# Generated by pormake.
# Topology iac, (4,6)-cn, num edge types: 1
# Building blocks:
#     Node 0, Type 0, BuildingBlock: CEKHIL_clean_sbu_0, # of connection points: 4
#     Node 1, Type 0, BuildingBlock: CEKHIL_clean_sbu_0, # of connection points: 4
#     Node 2, Type 0, BuildingBlock: CEKHIL_clean_sbu_0, # of connection points: 4
#     Node 3, Type 0, BuildingBlock: CEKHIL_clean_sbu_0, # of connection points: 4
#     Node 4, Type 0, BuildingBlock: CEKHIL_clean_sbu_0, # of connection points: 4
#     Node 5, Type 0, BuildingBlock: CEKHIL_clean_sbu_0, # of connection points: 4
#     Node 6, Type 0, BuildingBlock: CEKHIL_clean_sbu_0, # of connection points: 4
#     Node 7, Type 0, BuildingBlock: CEKHIL_clean_sbu_0, # of connection points: 4
#     Node 8, Type 0, BuildingBlock: CEKHIL_clean_sbu_0, # of connection points: 4
#     Node 9, Type 0, BuildingBlock: CEKHIL_clean_sbu_0, # of connection points: 4
#     Node 10, Type 0, BuildingBlock: CEKHIL_clean_sbu_0, # of connection points: 4
#     Node 11, Type 0, BuildingBlock: CEKHIL_clean_sbu_0, # of connection points: 4
#     Node 12, Type 0, BuildingBlock: CEKHIL_clean_sbu_0, # of connection points: 4
#     Node 13, Type 0, BuildingBlock: CEKHIL_clean_sbu_0, # of connection points: 4
#     Node 14, Type 0, BuildingBlock: CEKHIL_clean_sbu_0, # of connection points: 4
#     Node 15, Type 0, BuildingBlock: CEKHIL_clean_sbu_0, # of connection points: 4
#     Node 16, Type 0, BuildingBlock: CEKHIL_clean_sbu_0, # of connection points: 4
#     Node 17, Type 0, BuildingBlock: CEKHIL_clean_sbu_0, # of connection points: 4
#     Node 18, Type 0, BuildingBlock: CEKHIL_clean_sbu_0, # of connection points: 4
#     Node 19, Type 0, BuildingBlock: CEKHIL_clean_sbu_0, # of connection points: 4
#     Node 20, Type 0, BuildingBlock: CEKHIL_clean_sbu_0, # of connection points: 4
#     Node 21, Type 0, BuildingBlock: CEKHIL_clean_sbu_0, # of connection points: 4
#     Node 22, Type 0, BuildingBlock: CEKHIL_clean_sbu_0, # of connection points: 4
#     Node 23, Type 0, BuildingBlock: CEKHIL_clean_sbu_0, # of connection points: 4
#     Node 24, Type 1, BuildingBlock: JUFBIX_clean_sbu_0, # of connection points: 6
#     Node 25, Type 1, BuildingBlock: JUFBIX_clean_sbu_0, # of connection points: 6
#     Node 26, Type 1, BuildingBlock: JUFBIX_clean_sbu_0, # of connection points: 6
#     Node 27, Type 1, BuildingBlock: JUFBIX_clean_sbu_0, # of connection points: 6
#     Node 28, Type 1, BuildingBlock: JUFBIX_clean_sbu_0, # of connection points: 6
#     Node 29, Type 1, BuildingBlock: JUFBIX_clean_sbu_0, # of connection points: 6
#     Node 30, Type 1, BuildingBlock: JUFBIX_clean_sbu_0, # of connection points: 6
#     Node 31, Type 1, BuildingBlock: JUFBIX_clean_sbu_0, # of connection points: 6
#     Node 32, Type 1, BuildingBlock: JUFBIX_clean_sbu_0, # of connection points: 6
#     Node 33, Type 1, BuildingBlock: JUFBIX_clean_sbu_0, # of connection points: 6
#     Node 34, Type 1, BuildingBlock: JUFBIX_clean_sbu_0, # of connection points: 6
#     Node 35, Type 1, BuildingBlock: JUFBIX_clean_sbu_0, # of connection points: 6
#     Node 36, Type 1, BuildingBlock: JUFBIX_clean_sbu_0, # of connection points: 6
#     Node 37, Type 1, BuildingBlock: JUFBIX_clean_sbu_0, # of connection points: 6
#     Node 38, Type 1, BuildingBlock: JUFBIX_clean_sbu_0, # of connection points: 6
#     Node 39, Type 1, BuildingBlock: JUFBIX_clean_sbu_0, # of connection points: 6
#     Edge 40, Type (0, 1), BuildingBlock: KIFKEQ_clean_linker_1, # of connection points: 2
#     Edge 41, Type (0, 1), BuildingBlock: KIFKEQ_clean_linker_1, # of connection points: 2
#     Edge 42, Type (0, 1), BuildingBlock: KIFKEQ_clean_linker_1, # of connection points: 2
#     Edge 43, Type (0, 1), BuildingBlock: KIFKEQ_clean_linker_1, # of connection points: 2
#     Edge 44, Type (0, 1), BuildingBlock: KIFKEQ_clean_linker_1, # of connection points: 2
#     Edge 45, Type (0, 1), BuildingBlock: KIFKEQ_clean_linker_1, # of connection points: 2
#     Edge 46, Type (0, 1), BuildingBlock: KIFKEQ_clean_linker_1, # of connection points: 2
#     Edge 47, Type (0, 1), BuildingBlock: KIFKEQ_clean_linker_1, # of connection points: 2
#     Edge 48, Type (0, 1), BuildingBlock: KIFKEQ_clean_linker_1, # of connection points: 2
#     Edge 49, Type (0, 1), BuildingBlock: KIFKEQ_clean_linker_1, # of connection points: 2
#     Edge 50, Type (0, 1), BuildingBlock: KIFKEQ_clean_linker_1, # of connection points: 2
#     Edge 51, Type (0, 1), BuildingBlock: KIFKEQ_clean_linker_1, # of connection points: 2
#     Edge 52, Type (0, 1), BuildingBlock: KIFKEQ_clean_linker_1, # of connection points: 2
#     Edge 53, Type (0, 1), BuildingBlock: KIFKEQ_clean_linker_1, # of connection points: 2
#     Edge 54, Type (0, 1), BuildingBlock: KIFKEQ_clean_linker_1, # of connection points: 2
#     Edge 55, Type (0, 1), BuildingBlock: KIFKEQ_clean_linker_1, # of connection points: 2
#     Edge 56, Type (0, 1), BuildingBlock: KIFKEQ_clean_linker_1, # of connection points: 2
#     Edge 57, Type (0, 1), BuildingBlock: KIFKEQ_clean_linker_1, # of connection points: 2
#     Edge 58, Type (0, 1), BuildingBlock: KIFKEQ_clean_linker_1, # of connection points: 2
#     Edge 59, Type (0, 1), BuildingBlock: KIFKEQ_clean_linker_1, # of connection points: 2
#     Edge 60, Type (0, 1), BuildingBlock: KIFKEQ_clean_linker_1, # of connection points: 2
#     Edge 61, Type (0, 1), BuildingBlock: KIFKEQ_clean_linker_1, # of connection points: 2
#     Edge 62, Type (0, 1), BuildingBlock: KIFKEQ_clean_linker_1, # of connection points: 2
#     Edge 63, Type (0, 1), BuildingBlock: KIFKEQ_clean_linker_1, # of connection points: 2
#     Edge 64, Type (0, 1), BuildingBlock: KIFKEQ_clean_linker_1, # of connection points: 2
#     Edge 65, Type (0, 1), BuildingBlock: KIFKEQ_clean_linker_1, # of connection points: 2
#     Edge 66, Type (0, 1), BuildingBlock: KIFKEQ_clean_linker_1, # of connection points: 2
#     Edge 67, Type (0, 1), BuildingBlock: KIFKEQ_clean_linker_1, # of connection points: 2
#     Edge 68, Type (0, 1), BuildingBlock: KIFKEQ_clean_linker_1, # of connection points: 2
#     Edge 69, Type (0, 1), BuildingBlock: KIFKEQ_clean_linker_1, # of connection points: 2
#     Edge 70, Type (0, 1), BuildingBlock: KIFKEQ_clean_linker_1, # of connection points: 2
#     Edge 71, Type (0, 1), BuildingBlock: KIFKEQ_clean_linker_1, # of connection points: 2
#     Edge 72, Type (0, 1), BuildingBlock: KIFKEQ_clean_linker_1, # of connection points: 2
#     Edge 73, Type (0, 1), BuildingBlock: KIFKEQ_clean_linker_1, # of connection points: 2
#     Edge 74, Type (0, 1), BuildingBlock: KIFKEQ_clean_linker_1, # of connection points: 2
#     Edge 75, Type (0, 1), BuildingBlock: KIFKEQ_clean_linker_1, # of connection points: 2
#     Edge 76, Type (0, 1), BuildingBlock: KIFKEQ_clean_linker_1, # of connection points: 2
#     Edge 77, Type (0, 1), BuildingBlock: KIFKEQ_clean_linker_1, # of connection points: 2
#     Edge 78, Type (0, 1), BuildingBlock: KIFKEQ_clean_linker_1, # of connection points: 2
#     Edge 79, Type (0, 1), BuildingBlock: KIFKEQ_clean_linker_1, # of connection points: 2
#     Edge 80, Type (0, 1), BuildingBlock: KIFKEQ_clean_linker_1, # of connection points: 2
#     Edge 81, Type (0, 1), BuildingBlock: KIFKEQ_clean_linker_1, # of connection points: 2
#     Edge 82, Type (0, 1), BuildingBlock: KIFKEQ_clean_linker_1, # of connection points: 2
#     Edge 83, Type (0, 1), BuildingBlock: KIFKEQ_clean_linker_1, # of connection points: 2
#     Edge 84, Type (0, 1), BuildingBlock: KIFKEQ_clean_linker_1, # of connection points: 2
#     Edge 85, Type (0, 1), BuildingBlock: KIFKEQ_clean_linker_1, # of connection points: 2
#     Edge 86, Type (0, 1), BuildingBlock: KIFKEQ_clean_linker_1, # of connection points: 2
#     Edge 87, Type (0, 1), BuildingBlock: KIFKEQ_clean_linker_1, # of connection points: 2
#     Edge 88, Type (0, 1), BuildingBlock: KIFKEQ_clean_linker_1, # of connection points: 2
#     Edge 89, Type (0, 1), BuildingBlock: KIFKEQ_clean_linker_1, # of connection points: 2
#     Edge 90, Type (0, 1), BuildingBlock: KIFKEQ_clean_linker_1, # of connection points: 2
#     Edge 91, Type (0, 1), BuildingBlock: KIFKEQ_clean_linker_1, # of connection points: 2
#     Edge 92, Type (0, 1), BuildingBlock: KIFKEQ_clean_linker_1, # of connection points: 2
#     Edge 93, Type (0, 1), BuildingBlock: KIFKEQ_clean_linker_1, # of connection points: 2
#     Edge 94, Type (0, 1), BuildingBlock: KIFKEQ_clean_linker_1, # of connection points: 2
#     Edge 95, Type (0, 1), BuildingBlock: KIFKEQ_clean_linker_1, # of connection points: 2
#     Edge 96, Type (0, 1), BuildingBlock: KIFKEQ_clean_linker_1, # of connection points: 2
#     Edge 97, Type (0, 1), BuildingBlock: KIFKEQ_clean_linker_1, # of connection points: 2
#     Edge 98, Type (0, 1), BuildingBlock: KIFKEQ_clean_linker_1, # of connection points: 2
#     Edge 99, Type (0, 1), BuildingBlock: KIFKEQ_clean_linker_1, # of connection points: 2
#     Edge 100, Type (0, 1), BuildingBlock: KIFKEQ_clean_linker_1, # of connection points: 2
#     Edge 101, Type (0, 1), BuildingBlock: KIFKEQ_clean_linker_1, # of connection points: 2
#     Edge 102, Type (0, 1), BuildingBlock: KIFKEQ_clean_linker_1, # of connection points: 2
#     Edge 103, Type (0, 1), BuildingBlock: KIFKEQ_clean_linker_1, # of connection points: 2
#     Edge 104, Type (0, 1), BuildingBlock: KIFKEQ_clean_linker_1, # of connection points: 2
#     Edge 105, Type (0, 1), BuildingBlock: KIFKEQ_clean_linker_1, # of connection points: 2
#     Edge 106, Type (0, 1), BuildingBlock: KIFKEQ_clean_linker_1, # of connection points: 2
#     Edge 107, Type (0, 1), BuildingBlock: KIFKEQ_clean_linker_1, # of connection points: 2
#     Edge 108, Type (0, 1), BuildingBlock: KIFKEQ_clean_linker_1, # of connection points: 2
#     Edge 109, Type (0, 1), BuildingBlock: KIFKEQ_clean_linker_1, # of connection points: 2
#     Edge 110, Type (0, 1), BuildingBlock: KIFKEQ_clean_linker_1, # of connection points: 2
#     Edge 111, Type (0, 1), BuildingBlock: KIFKEQ_clean_linker_1, # of connection points: 2
#     Edge 112, Type (0, 1), BuildingBlock: KIFKEQ_clean_linker_1, # of connection points: 2
#     Edge 113, Type (0, 1), BuildingBlock: KIFKEQ_clean_linker_1, # of connection points: 2
#     Edge 114, Type (0, 1), BuildingBlock: KIFKEQ_clean_linker_1, # of connection points: 2
#     Edge 115, Type (0, 1), BuildingBlock: KIFKEQ_clean_linker_1, # of connection points: 2
#     Edge 116, Type (0, 1), BuildingBlock: KIFKEQ_clean_linker_1, # of connection points: 2
#     Edge 117, Type (0, 1), BuildingBlock: KIFKEQ_clean_linker_1, # of connection points: 2
#     Edge 118, Type (0, 1), BuildingBlock: KIFKEQ_clean_linker_1, # of connection points: 2
#     Edge 119, Type (0, 1), BuildingBlock: KIFKEQ_clean_linker_1, # of connection points: 2
#     Edge 120, Type (0, 1), BuildingBlock: KIFKEQ_clean_linker_1, # of connection points: 2
#     Edge 121, Type (0, 1), BuildingBlock: KIFKEQ_clean_linker_1, # of connection points: 2
#     Edge 122, Type (0, 1), BuildingBlock: KIFKEQ_clean_linker_1, # of connection points: 2
#     Edge 123, Type (0, 1), BuildingBlock: KIFKEQ_clean_linker_1, # of connection points: 2
#     Edge 124, Type (0, 1), BuildingBlock: KIFKEQ_clean_linker_1, # of connection points: 2
#     Edge 125, Type (0, 1), BuildingBlock: KIFKEQ_clean_linker_1, # of connection points: 2
#     Edge 126, Type (0, 1), BuildingBlock: KIFKEQ_clean_linker_1, # of connection points: 2
#     Edge 127, Type (0, 1), BuildingBlock: KIFKEQ_clean_linker_1, # of connection points: 2
#     Edge 128, Type (0, 1), BuildingBlock: KIFKEQ_clean_linker_1, # of connection points: 2
#     Edge 129, Type (0, 1), BuildingBlock: KIFKEQ_clean_linker_1, # of connection points: 2
#     Edge 130, Type (0, 1), BuildingBlock: KIFKEQ_clean_linker_1, # of connection points: 2
#     Edge 131, Type (0, 1), BuildingBlock: KIFKEQ_clean_linker_1, # of connection points: 2
#     Edge 132, Type (0, 1), BuildingBlock: KIFKEQ_clean_linker_1, # of connection points: 2
#     Edge 133, Type (0, 1), BuildingBlock: KIFKEQ_clean_linker_1, # of connection points: 2
#     Edge 134, Type (0, 1), BuildingBlock: KIFKEQ_clean_linker_1, # of connection points: 2
#     Edge 135, Type (0, 1), BuildingBlock: KIFKEQ_clean_linker_1, # of connection points: 2
# Relax obj value: 0.229
# Max RMSD: 0.237
# Mean RMSD: 0.114
data_MOF--net-iac--node1-CEKHIL_clean_sbu_0--node2-JUFBIX_clean_sbu_0--edge1-KIFKEQ_clean_linker_1
_symmetry_space_group_name_H-M    P1
_symmetry_Int_Tables_number       1
_symmetry_cell_setting            triclinic
loop_
_symmetry_equiv_pos_as_xyz
'x, y, z'
_cell_length_a     55.525069
_cell_length_b     56.084419
_cell_length_c     55.07305
_cell_angle_alpha  89.258562
_cell_angle_beta   88.341262
_cell_angle_gamma 89.014598
loop_
_atom_site_label
_atom_site_type_symbol
_atom_site_fract_x
_atom_site_fract_y
_atom_site_fract_z
_atom_type_partial_charge
Co0 Co 0.02962 0.28498 0.14988 0.0
O1 O 0.99461 0.28591 0.14528 0.0
O2 O 0.01125 0.27514 0.17932 0.0
C3 C 0.03582 0.32287 0.13258 0.0
O4 O 0.06446 0.28313 0.16413 0.0
Co5 Co 0.06738 0.28656 0.10974 0.0
O6 O 0.09166 0.29187 0.1348 0.0
C7 C 0.04078 0.24153 0.11655 0.0
C8 C 0.99148 0.2793 0.16781 0.0
C9 C 0.08649 0.28767 0.1571 0.0
O10 O 0.03157 0.25011 0.13672 0.0
O11 O 0.05426 0.25424 0.10246 0.0
O12 O 0.02896 0.31992 0.15515 0.0
O13 O 0.03799 0.30307 0.12075 0.0
Co14 Co 0.05495 0.76937 0.41376 0.0
O15 O 0.08936 0.76433 0.41503 0.0
O16 O 0.06806 0.76491 0.38154 0.0
C17 C 0.05217 0.80062 0.43874 0.0
O18 O 0.02023 0.77507 0.40434 0.0
Co19 Co 0.01989 0.76471 0.45846 0.0
O20 O 0.99608 0.78047 0.43724 0.0
C21 C 0.04003 0.72149 0.43477 0.0
C22 C 0.08891 0.7628 0.39149 0.0
C23 C 0.99982 0.78097 0.41432 0.0
O24 O 0.05004 0.73412 0.41781 0.0
O25 O 0.02835 0.73029 0.45301 0.0
O26 O 0.05892 0.80365 0.41612 0.0
O27 O 0.04952 0.77881 0.446 0.0
Co28 Co 0.53078 0.78645 0.64918 0.0
O29 O 0.49583 0.78757 0.64424 0.0
O30 O 0.51218 0.77721 0.67858 0.0
C31 C 0.53757 0.82399 0.63138 0.0
O32 O 0.56538 0.78448 0.66398 0.0
Co33 Co 0.56895 0.786 0.60995 0.0
O34 O 0.59302 0.79229 0.63485 0.0
C35 C 0.54342 0.74094 0.61885 0.0
C36 C 0.49255 0.78124 0.66685 0.0
C37 C 0.58755 0.78864 0.65716 0.0
O38 O 0.53234 0.75132 0.63708 0.0
O39 O 0.55844 0.75216 0.60505 0.0
O40 O 0.53022 0.82131 0.65382 0.0
O41 O 0.53984 0.80404 0.6197 0.0
Co42 Co 0.53897 0.27821 0.92333 0.0
O43 O 0.57362 0.27824 0.92259 0.0
O44 O 0.55059 0.27436 0.89058 0.0
C45 C 0.53323 0.30998 0.9471 0.0
O46 O 0.5037 0.27852 0.91603 0.0
Co47 Co 0.5075 0.27051 0.96983 0.0
O48 O 0.48004 0.28091 0.94956 0.0
C49 C 0.53423 0.22999 0.94752 0.0
C50 C 0.572 0.27591 0.89922 0.0
C51 C 0.48299 0.28136 0.92654 0.0
O52 O 0.53918 0.24278 0.92861 0.0
O53 O 0.52373 0.23829 0.96671 0.0
O54 O 0.53788 0.31274 0.92399 0.0
O55 O 0.53421 0.28835 0.95552 0.0
Co56 Co 0.15359 0.01019 0.31023 0.0
O57 O 0.15366 0.97721 0.30178 0.0
O58 O 0.18441 1.00161 0.29565 0.0
C59 C 0.13711 0.00534 0.34736 0.0
O60 O 0.16042 0.04477 0.31719 0.0
Co61 Co 0.10569 0.03816 0.32125 0.0
O62 O 0.12673 0.06511 0.32861 0.0
C63 C 0.11943 0.02492 0.27105 0.0
C64 C 0.17562 0.98038 0.29379 0.0
C65 C 0.14939 0.0638 0.32452 0.0
O66 O 0.14064 0.01873 0.27767 0.0
O67 O 0.10243 0.03122 0.28593 0.0
O68 O 0.16016 1.00191 0.34381 0.0
O69 O 0.12475 0.00973 0.3283 0.0
Co70 Co 0.25642 0.9003 0.53568 0.0
O71 O 0.22254 0.8981 0.54307 0.0
O72 O 0.24385 0.93123 0.54449 0.0
C73 C 0.25784 0.87943 0.50137 0.0
O74 O 0.29107 0.90964 0.52879 0.0
Co75 Co 0.28962 0.85501 0.53527 0.0
O76 O 0.31487 0.8771 0.52337 0.0
C77 C 0.27289 0.8755 0.58182 0.0
C78 C 0.22328 0.92075 0.54768 0.0
C79 C 0.3115 0.89962 0.52346 0.0
O80 O 0.26315 0.89316 0.57058 0.0
O81 O 0.28312 0.85774 0.57112 0.0
O82 O 0.25098 0.90171 0.50105 0.0
O83 O 0.26064 0.86983 0.52259 0.0
Co84 Co 0.40605 0.05731 0.77484 0.0
O85 O 0.4061 0.09137 0.77187 0.0
O86 O 0.37663 0.06821 0.76016 0.0
C87 C 0.41808 0.05403 0.81316 0.0
O88 O 0.39956 0.02175 0.77615 0.0
Co89 Co 0.45425 0.02947 0.78307 0.0
O90 O 0.43217 1.00276 0.79091 0.0
C91 C 0.44542 0.05334 0.73645 0.0
C92 C 0.38516 0.08952 0.76223 0.0
C93 C 0.41011 1.00307 0.785 0.0
O94 O 0.42284 0.05497 0.74207 0.0
O95 O 0.46135 0.0461 0.7513 0.0
O96 O 0.39559 0.05893 0.80893 0.0
O97 O 0.43259 0.05457 0.79445 0.0
Co98 Co 0.28568 0.15716 0.02187 0.0
O99 O 0.32054 0.16297 0.02054 0.0
O100 O 0.3047 0.12872 0.03095 0.0
C101 C 0.27814 0.17481 0.98435 0.0
O102 O 0.25119 0.14211 0.02393 0.0
Co103 Co 0.24681 0.19579 0.02278 0.0
O104 O 0.22373 0.17048 0.01549 0.0
C105 C 0.27298 0.18686 0.06801 0.0
C106 C 0.32417 0.14085 0.02692 0.0
C107 C 0.2292 0.14863 0.01918 0.0
O108 O 0.2838 0.16884 0.05753 0.0
O109 O 0.25811 0.20045 0.0568 0.0
O110 O 0.28632 0.15305 0.98629 0.0
O111 O 0.27597 0.18583 0.00487 0.0
Co112 Co 0.7617 0.40637 0.03813 0.0
O113 O 0.72808 0.40478 0.0471 0.0
O114 O 0.74989 0.43766 0.04626 0.0
C115 C 0.76066 0.3843 0.00471 0.0
O116 O 0.796 0.41549 0.02892 0.0
Co117 Co 0.79545 0.36167 0.03659 0.0
O118 O 0.81767 0.38295 0.0182 0.0
C119 C 0.77923 0.38173 0.08362 0.0
C120 C 0.72919 0.42767 0.05023 0.0
C121 C 0.81495 0.40549 0.01937 0.0
O122 O 0.76994 0.39991 0.07279 0.0
O123 O 0.78902 0.36399 0.0725 0.0
O124 O 0.75415 0.40666 0.00394 0.0
O125 O 0.76518 0.37552 0.02595 0.0
Co126 Co 0.90586 0.55535 0.26685 0.0
O127 O 0.90999 0.58851 0.25901 0.0
O128 O 0.8751 0.56968 0.26 0.0
C129 C 0.9286 0.55373 0.29975 0.0
O130 O 0.89434 0.52189 0.27511 0.0
Co131 Co 0.94902 0.51927 0.26544 0.0
O132 O 0.92635 0.49867 0.28403 0.0
C133 C 0.92807 0.53644 0.21978 0.0
C134 C 0.8868 0.58935 0.25639 0.0
C135 C 0.90369 0.50251 0.28372 0.0
O136 O 0.91113 0.5474 0.23167 0.0
O137 O 0.94551 0.52525 0.2298 0.0
O138 O 0.9066 0.56199 0.30134 0.0
O139 O 0.93688 0.54943 0.27804 0.0
Co140 Co 0.78709 0.65451 0.52103 0.0
O141 O 0.82225 0.65806 0.52002 0.0
O142 O 0.80416 0.6247 0.52958 0.0
C143 C 0.78122 0.67359 0.48383 0.0
O144 O 0.75177 0.64173 0.52264 0.0
Co145 Co 0.75094 0.69566 0.52209 0.0
O146 O 0.7257 0.67185 0.5161 0.0
C147 C 0.77874 0.68606 0.56611 0.0
C148 C 0.8244 0.63565 0.5259 0.0
C149 C 0.73003 0.64962 0.5189 0.0
O150 O 0.78562 0.66574 0.55688 0.0
O151 O 0.76659 0.70149 0.55401 0.0
O152 O 0.78746 0.65119 0.48524 0.0
O153 O 0.77969 0.68407 0.50464 0.0
Co154 Co 0.65346 0.5096 0.80967 0.0
O155 O 0.65521 0.4761 0.80302 0.0
O156 O 0.68595 0.50087 0.79992 0.0
C157 C 0.63202 0.50688 0.84463 0.0
O158 O 0.65918 0.54464 0.81561 0.0
Co159 Co 0.60494 0.5381 0.81246 0.0
O160 O 0.6246 0.56551 0.82161 0.0
C161 C 0.62569 0.52324 0.765 0.0
C162 C 0.6779 0.47941 0.79776 0.0
C163 C 0.6475 0.56403 0.82057 0.0
O164 O 0.64519 0.51613 0.77498 0.0
O165 O 0.6071 0.53102 0.7769 0.0
O166 O 0.65524 0.50334 0.84437 0.0
O167 O 0.62237 0.50993 0.82374 0.0
Co168 Co 0.03592 0.78836 0.9021 0.0
O169 O 0.07091 0.78857 0.90695 0.0
O170 O 0.05456 0.77784 0.87321 0.0
C171 C 0.02997 0.82654 0.91827 0.0
O172 O 1.00149 0.78676 0.88723 0.0
Co173 Co 0.99668 0.79187 0.94023 0.0
O174 O 0.97311 0.79813 0.91441 0.0
C175 C 0.02141 0.74487 0.93453 0.0
C176 C 0.0742 0.78186 0.8846 0.0
C177 C 0.97922 0.79232 0.89285 0.0
O178 O 0.03372 0.75377 0.91619 0.0
O179 O 1.00632 0.75762 0.94695 0.0
O180 O 0.0367 0.82317 0.89578 0.0
O181 O 0.02702 0.80691 0.93066 0.0
Co182 Co 0.99281 0.30771 0.6493 0.0
O183 O 0.95958 0.30116 0.64434 0.0
O184 O 0.98109 0.28681 0.67481 0.0
C185 C 0.98983 0.34703 0.64325 0.0
O186 O 0.02697 0.31069 0.66058 0.0
Co187 Co 0.0251 0.32876 0.60761 0.0
O188 O 0.05038 0.32902 0.63237 0.0
C189 C 0.01284 0.27792 0.60749 0.0
C190 C 0.96052 0.28842 0.66414 0.0
C191 C 0.04729 0.31912 0.65317 0.0
O192 O 1.00298 0.27985 0.62879 0.0
O193 O 0.02068 0.29571 0.59498 0.0
O194 O 0.98407 0.33801 0.66439 0.0
O195 O 0.99509 0.3322 0.62611 0.0
Co196 Co 0.53472 0.2905 0.40284 0.0
O197 O 0.56967 0.29092 0.40768 0.0
O198 O 0.55334 0.27932 0.37422 0.0
C199 C 0.52861 0.32905 0.41811 0.0
O200 O 0.50027 0.28845 0.38805 0.0
Co201 Co 0.49559 0.29463 0.44098 0.0
O202 O 0.47191 0.30018 0.41508 0.0
C203 C 0.5211 0.24783 0.43679 0.0
C204 C 0.57297 0.28361 0.38553 0.0
C205 C 0.478 0.29402 0.39361 0.0
O206 O 0.53276 0.2562 0.41776 0.0
O207 O 0.50626 0.26095 0.44912 0.0
O208 O 0.53535 0.32521 0.3957 0.0
O209 O 0.52579 0.30967 0.43093 0.0
Co210 Co 0.51011 0.82249 0.14109 0.0
O211 O 0.47678 0.82242 0.13273 0.0
O212 O 0.49289 0.80109 0.16254 0.0
C213 C 0.51399 0.86207 0.14025 0.0
O214 O 0.54297 0.81853 0.15578 0.0
Co215 Co 0.54945 0.84237 0.10538 0.0
O216 O 0.57149 0.83644 0.13255 0.0
C217 C 0.53016 0.79451 0.09775 0.0
C218 C 0.47378 0.80773 0.15095 0.0
C219 C 0.56483 0.82488 0.15157 0.0
O220 O 0.51781 0.79599 0.11781 0.0
O221 O 0.54249 0.81174 0.08873 0.0
O222 O 0.50451 0.85166 0.15932 0.0
O223 O 0.51868 0.84872 0.12169 0.0
Co224 Co 0.87977 0.06434 0.7679 0.0
O225 O 0.87105 0.09624 0.77616 0.0
O226 O 0.84676 0.07037 0.75946 0.0
C227 C 0.89756 0.05559 0.80277 0.0
O228 O 0.88251 0.02995 0.75783 0.0
Co229 Co 0.93385 0.04812 0.76479 0.0
O230 O 0.92044 0.01572 0.76142 0.0
C231 C 0.91324 0.07957 0.72733 0.0
C232 C 0.84981 0.09137 0.76854 0.0
C233 C 0.89827 0.01293 0.75697 0.0
O234 O 0.89173 0.07479 0.73485 0.0
O235 O 0.93206 0.07371 0.73905 0.0
O236 O 0.87427 0.05439 0.80173 0.0
O237 O 0.9087 0.06382 0.78373 0.0
Co238 Co 0.81002 0.15699 0.49718 0.0
O239 O 0.84281 0.16034 0.5065 0.0
O240 O 0.81968 0.12938 0.51568 0.0
C241 C 0.81696 0.16795 0.45845 0.0
O242 O 0.77621 0.14666 0.49047 0.0
Co243 Co 0.77941 0.19941 0.47699 0.0
O244 O 0.75361 0.17571 0.47364 0.0
C245 C 0.78904 0.19543 0.52942 0.0
C246 C 0.84072 0.13919 0.51611 0.0
C247 C 0.75639 0.15446 0.48166 0.0
O248 O 0.79783 0.17417 0.527 0.0
O249 O 0.78344 0.20902 0.51152 0.0
O250 O 0.8211 0.14602 0.46518 0.0
O251 O 0.81 0.18247 0.47528 0.0
Co252 Co 0.65255 0.01156 0.29167 0.0
O253 O 0.6487 0.97819 0.28564 0.0
O254 O 0.6818 0.99875 0.27728 0.0
C255 C 0.63692 0.00923 0.32952 0.0
O256 O 0.664 0.04527 0.29532 0.0
Co257 Co 0.61055 0.04638 0.30518 0.0
O258 O 0.63552 0.07082 0.30913 0.0
C259 C 0.62015 0.03239 0.25383 0.0
C260 C 0.67112 0.9783 0.27826 0.0
C261 C 0.65706 0.06621 0.30187 0.0
O262 O 0.63943 0.0207 0.25928 0.0
O263 O 0.60559 0.04173 0.26963 0.0
O264 O 0.65954 1.00413 0.32539 0.0
O265 O 0.6244 0.01505 0.31094 0.0
Co266 Co 0.77846 0.9103 0.01789 0.0
O267 O 0.74346 0.90577 0.01738 0.0
O268 O 0.76013 0.93879 0.02864 0.0
C269 C 0.78451 0.89388 0.97945 0.0
O270 O 0.81318 0.92443 0.0197 0.0
Co271 Co 0.81731 0.8722 0.01371 0.0
O272 O 0.84116 0.89766 0.00761 0.0
C273 C 0.79175 0.87804 0.06157 0.0
C274 C 0.74041 0.92768 0.02429 0.0
C275 C 0.83538 0.91877 0.01391 0.0
O276 O 0.78003 0.89643 0.05298 0.0
O277 O 0.80642 0.86565 0.04827 0.0
O278 O 0.7784 0.91617 0.98226 0.0
O279 O 0.787 0.88217 0.99964 0.0
Co280 Co 0.30063 0.64953 0.98836 0.0
O281 O 0.3341 0.65695 0.99147 0.0
O282 O 0.3152 0.62688 0.00998 0.0
C283 C 0.30026 0.65306 0.94794 0.0
O284 O 0.26724 0.63575 0.9898 0.0
Co285 Co 0.2633 0.68542 0.9671 0.0
O286 O 0.24007 0.65906 0.97113 0.0
C287 C 0.27988 0.69109 0.01715 0.0
C288 C 0.33508 0.63826 0.00564 0.0
C289 C 0.24572 0.64019 0.98292 0.0
O290 O 0.29138 0.67102 0.01599 0.0
O291 O 0.26944 0.70084 0.99902 0.0
O292 O 0.3082 0.63342 0.95782 0.0
O293 O 0.29464 0.67029 0.96243 0.0
Co294 Co 0.15929 0.51667 0.80459 0.0
O295 O 0.15148 0.48357 0.80619 0.0
O296 O 0.18289 0.49863 0.78584 0.0
C297 C 0.15418 0.52272 0.84454 0.0
O298 O 0.17326 0.54948 0.79933 0.0
Co299 Co 0.12149 0.55555 0.8204 0.0
O300 O 0.14923 0.57726 0.81707 0.0
C301 C 0.11885 0.53326 0.77221 0.0
C302 C 0.17097 0.47994 0.79311 0.0
C303 C 0.16855 0.57109 0.80558 0.0
O304 O 0.13879 0.52182 0.77551 0.0
O305 O 0.10812 0.54588 0.78859 0.0
O306 O 0.1744 0.51377 0.83609 0.0
O307 O 0.13742 0.52596 0.82904 0.0
Co308 Co 0.27981 0.40879 0.51859 0.0
O309 O 0.24493 0.40368 0.51823 0.0
O310 O 0.26117 0.43682 0.5298 0.0
C311 C 0.28612 0.39334 0.47975 0.0
O312 O 0.31438 0.42327 0.52071 0.0
Co313 Co 0.31893 0.37105 0.51409 0.0
O314 O 0.34275 0.39671 0.50902 0.0
C315 C 0.29277 0.37573 0.5617 0.0
C316 C 0.24159 0.42543 0.52554 0.0
C317 C 0.33671 0.41774 0.51537 0.0
O318 O 0.28138 0.3944 0.55335 0.0
O319 O 0.30754 0.36351 0.54834 0.0
O320 O 0.27952 0.41541 0.4832 0.0
O321 O 0.28877 0.38113 0.49965 0.0
Co322 Co 0.40503 0.56082 0.27735 0.0
O323 O 0.40714 0.5948 0.27659 0.0
O324 O 0.3853 0.57341 0.25195 0.0
C325 C 0.39937 0.55736 0.31744 0.0
O326 O 0.3977 0.52602 0.27316 0.0
Co327 Co 0.44218 0.52897 0.30434 0.0
O328 O 0.41922 0.5031 0.29862 0.0
C329 C 0.4556 0.55124 0.25728 0.0
C330 C 0.3919 0.59423 0.25917 0.0
C331 C 0.40288 0.50579 0.283 0.0
O332 O 0.43368 0.55828 0.25466 0.0
O333 O 0.46307 0.54058 0.2764 0.0
O334 O 0.38122 0.56276 0.30397 0.0
O335 O 0.42033 0.55624 0.30668 0.0
Co336 Co 0.029 0.04066 0.0063 0.0
C337 C 0.02508 0.072 0.04659 0.0
Co338 Co 0.03662 0.02283 0.04047 0.0
C339 C 1.00628 0.04788 0.96181 0.0
C340 C 0.02834 0.0776 0.96962 0.0
N341 N 0.02171 0.05591 0.97799 0.0
N342 N 1.00257 0.06377 0.94382 0.0
C343 C 0.01657 0.08249 0.9484 0.0
H344 H 0.9977 0.03073 0.96337 0.0
H345 H 0.04034 0.08932 0.97872 0.0
C346 C 0.04017 0.99161 1.00005 0.0
N347 N 0.04395 0.00754 0.06883 0.0
C348 C 0.05754 0.01634 0.08626 0.0
C349 C 0.03758 0.98566 0.07683 0.0
N350 N 0.0599 1.00095 0.10501 0.0
C351 C 0.04742 0.98153 0.09919 0.0
C352 C 0.98808 0.01813 0.02801 0.0
O353 O 0.03519 0.01091 0.98861 0.0
O354 O 0.04303 0.993 0.02289 0.0
O355 O 1.00289 0.01309 0.04467 0.0
O356 O 0.99553 0.0312 0.0104 0.0
O357 O 0.03012 0.05281 0.05825 0.0
H358 H 0.02639 0.97362 0.06713 0.0
H359 H 0.06566 0.03373 0.08508 0.0
O360 O 0.02265 0.07039 0.02372 0.0
O361 O 0.06224 0.0501 0.00193 0.0
O362 O 0.07051 0.03259 0.03631 0.0
C363 C 0.07748 0.04542 0.01822 0.0
H364 H 0.01757 0.09878 0.93769 0.0
H365 H 0.04504 0.96579 0.11052 0.0
Co366 Co 0.28681 0.78785 0.27913 0.0
C367 C 0.29238 0.74197 0.26273 0.0
Co368 Co 0.26659 0.78106 0.24624 0.0
C369 C 0.29301 0.80163 0.32806 0.0
C370 C 0.32666 0.7904 0.3117 0.0
N371 N 0.30302 0.79343 0.30718 0.0
N372 N 0.30931 0.80375 0.34543 0.0
C373 C 0.33063 0.79697 0.33529 0.0
H374 H 0.27411 0.80636 0.33043 0.0
H375 H 0.3401 0.7838 0.29874 0.0
C376 C 0.26181 0.82728 0.26202 0.0
N377 N 0.25061 0.77534 0.21825 0.0
C378 C 0.26049 0.7646 0.19861 0.0
C379 C 0.22764 0.78036 0.21246 0.0
N380 N 0.24475 0.76257 0.18063 0.0
C381 C 0.22397 0.77252 0.18925 0.0
C382 C 0.23996 0.77252 0.28816 0.0
O383 O 0.27565 0.81986 0.27856 0.0
O384 O 0.25535 0.81295 0.24588 0.0
O385 O 0.23905 0.77195 0.26517 0.0
O386 O 0.25923 0.77893 0.29781 0.0
O387 O 0.27813 0.74922 0.24653 0.0
H388 H 0.21448 0.7891 0.22434 0.0
H389 H 0.27913 0.75871 0.19751 0.0
O390 O 0.29808 0.75604 0.27941 0.0
O391 O 0.31418 0.79648 0.26038 0.0
O392 O 0.29435 0.79 0.22742 0.0
C393 C 0.31371 0.79568 0.23741 0.0
H394 H 0.34767 0.79649 0.34436 0.0
H395 H 0.20726 0.77385 0.17966 0.0
Co396 Co 0.51672 0.03146 0.52347 0.0
C397 C 0.53383 0.07751 0.5107 0.0
Co398 Co 0.55293 0.03748 0.53709 0.0
C399 C 0.47078 0.00889 0.51829 0.0
C400 C 0.47498 0.03876 0.4941 0.0
N401 N 0.48629 0.02621 0.51169 0.0
N402 N 0.4504 0.01031 0.50567 0.0
C403 C 0.4528 0.02912 0.49054 0.0
H404 H 0.47418 0.99547 0.53211 0.0
H405 H 0.48239 0.05374 0.48405 0.0
C406 C 0.53623 0.9914 0.5498 0.0
N407 N 0.58332 0.04339 0.54781 0.0
C408 C 0.60143 0.05163 0.53345 0.0
C409 C 0.59193 0.04331 0.57048 0.0
N410 N 0.62092 0.05691 0.54609 0.0
C411 C 0.6151 0.05191 0.56949 0.0
C412 C 0.51616 0.05047 0.56928 0.0
O413 O 0.51809 0.99903 0.538 0.0
O414 O 0.55391 0.00546 0.55182 0.0
O415 O 0.53891 0.04978 0.56607 0.0
O416 O 0.50279 0.04321 0.55267 0.0
O417 O 0.55216 0.06977 0.52203 0.0
H418 H 0.58171 0.03827 0.58671 0.0
H419 H 0.59987 0.05512 0.51417 0.0
O420 O 0.51599 0.06366 0.50953 0.0
O421 O 0.53056 0.01982 0.49411 0.0
O422 O 0.56651 0.02493 0.50833 0.0
C423 C 0.5533 0.01834 0.4914 0.0
H424 H 0.43975 0.03498 0.4774 0.0
H425 H 0.62651 0.05485 0.58474 0.0
Co426 Co 0.28934 0.28923 0.78014 0.0
C427 C 0.27655 0.3006 0.73257 0.0
Co428 Co 0.25543 0.27245 0.77113 0.0
C429 C 0.33329 0.29402 0.80502 0.0
C430 C 0.32549 0.32489 0.78321 0.0
N431 N 0.31763 0.30283 0.78887 0.0
N432 N 0.35034 0.30984 0.81012 0.0
C433 C 0.3457 0.32924 0.79623 0.0
H434 H 0.33182 0.27652 0.81337 0.0
H435 H 0.31645 0.33742 0.77131 0.0
C436 C 0.26864 0.26106 0.81879 0.0
N437 N 0.22656 0.26006 0.76213 0.0
C438 C 0.20989 0.27313 0.75043 0.0
C439 C 0.2173 0.23804 0.76416 0.0
N440 N 0.19059 0.26038 0.74476 0.0
C441 C 0.19504 0.2382 0.7535 0.0
C442 C 0.29524 0.24402 0.76106 0.0
O443 O 0.28591 0.27463 0.81233 0.0
O444 O 0.25218 0.2576 0.80354 0.0
O445 O 0.27241 0.24495 0.75979 0.0
O446 O 0.30624 0.26174 0.76931 0.0
O447 O 0.25884 0.28745 0.73874 0.0
H448 H 0.22624 0.22289 0.77253 0.0
H449 H 0.21195 0.29189 0.74625 0.0
O450 O 0.29277 0.30353 0.74805 0.0
O451 O 0.27248 0.31683 0.79087 0.0
O452 O 0.23866 0.29995 0.7824 0.0
C453 C 0.24974 0.31792 0.78972 0.0
H454 H 0.35545 0.34578 0.79637 0.0
H455 H 0.18337 0.22308 0.75188 0.0
Co456 Co 0.02353 0.01146 0.54891 0.0
C457 C 0.01179 0.03586 0.59035 0.0
Co458 Co 0.04228 0.04557 0.55133 0.0
C459 C 0.02071 0.9627 0.53741 0.0
C460 C 0.98693 0.975 0.55254 0.0
N461 N 0.00946 0.98209 0.54673 0.0
N462 N 1.00625 0.94368 0.5369 0.0
C463 C 0.98487 0.95133 0.54643 0.0
H464 H 0.03907 0.9629 0.5303 0.0
H465 H 0.97285 0.98639 0.56027 0.0
C466 C 0.05335 0.02223 0.50919 0.0
N467 N 0.05685 0.07467 0.55316 0.0
C468 C 0.04566 0.09587 0.55664 0.0
C469 C 0.08054 0.07966 0.5512 0.0
N470 N 0.06133 0.11387 0.55696 0.0
C471 C 0.08337 0.10384 0.55377 0.0
C472 C 0.06867 0.00811 0.56954 0.0
O473 O 0.03884 0.00698 0.51803 0.0
O474 O 0.05724 0.04098 0.52091 0.0
O475 O 0.069 0.03052 0.56613 0.0
O476 O 0.05016 0.99672 0.56386 0.0
O477 O 0.02719 0.05041 0.58184 0.0
H478 H 0.09481 0.06657 0.54813 0.0
H479 H 0.02637 0.09805 0.55943 0.0
O480 O 0.008 0.01661 0.57929 0.0
O481 O 0.99704 0.02597 0.53433 0.0
O482 O 0.01504 0.06033 0.53649 0.0
C483 C 0.99666 0.04841 0.5313 0.0
H484 H 0.96881 0.94076 0.54861 0.0
H485 H 0.10019 0.11333 0.55318 0.0
Co486 Co 0.28904 0.79585 0.78643 0.0
C487 C 0.24057 0.784 0.79622 0.0
Co488 Co 0.27605 0.76977 0.76063 0.0
C489 C 0.31169 0.83867 0.79816 0.0
C490 C 0.29854 0.82151 0.83069 0.0
N491 N 0.3002 0.8191 0.80636 0.0
N492 N 0.31709 0.85345 0.81619 0.0
C493 C 0.30906 0.84268 0.83682 0.0
H494 H 0.3161 0.84198 0.77916 0.0
H495 H 0.28998 0.80891 0.84306 0.0
C496 C 0.32464 0.78151 0.7512 0.0
N497 N 0.26521 0.74648 0.7405 0.0
C498 C 0.24972 0.7295 0.74779 0.0
C499 C 0.27306 0.73983 0.7181 0.0
N500 N 0.24768 0.71245 0.73114 0.0
C501 C 0.2625 0.71856 0.71242 0.0
C502 C 0.26855 0.8151 0.74462 0.0
O503 O 0.32049 0.79449 0.76973 0.0
O504 O 0.30746 0.76898 0.74375 0.0
O505 O 0.26538 0.7935 0.73923 0.0
O506 O 0.27865 0.82002 0.76427 0.0
O507 O 0.24481 0.77091 0.77778 0.0
H508 H 0.2866 0.74903 0.70722 0.0
H509 H 0.24157 0.72847 0.76586 0.0
O510 O 0.25755 0.79704 0.8033 0.0
O511 O 0.29934 0.77153 0.80819 0.0
O512 O 0.28657 0.74575 0.7821 0.0
C513 C 0.29619 0.75004 0.80213 0.0
H514 H 0.31019 0.84983 0.85491 0.0
H515 H 0.26614 0.70795 0.69641 0.0
Co516 Co 0.52759 0.02663 0.01171 0.0
C517 C 0.57603 0.01659 0.0217 0.0
Co518 Co 0.54196 0.05257 0.03673 0.0
C519 C 0.49746 0.01159 0.97472 0.0
C520 C 0.51777 0.98181 0.98826 0.0
N521 N 0.51424 0.00552 0.99088 0.0
N522 N 0.49013 0.99276 0.96223 0.0
C523 C 0.50306 0.97391 0.97031 0.0
H524 H 0.49115 0.02972 0.97165 0.0
H525 H 0.53023 0.97102 0.99863 0.0
C526 C 0.4933 0.06227 0.02704 0.0
N527 N 0.55526 0.07351 0.05763 0.0
C528 C 0.57026 0.06672 0.0752 0.0
C529 C 0.55233 0.09728 0.06015 0.0
N530 N 0.57686 0.08508 0.08878 0.0
C531 C 0.56548 0.10446 0.0796 0.0
C532 C 0.54797 0.06591 0.98889 0.0
O533 O 0.4969 0.04371 0.01431 0.0
O534 O 0.51095 0.06995 0.03888 0.0
O535 O 0.5517 0.07167 0.0106 0.0
O536 O 0.53712 0.04668 0.98468 0.0
O537 O 0.57272 0.03525 0.03439 0.0
H538 H 0.54089 0.10848 0.04905 0.0
H539 H 0.57518 0.04828 0.07886 0.0
O540 O 0.55842 0.00931 0.00958 0.0
O541 O 0.51804 0.00716 0.03837 0.0
O542 O 0.53238 0.03314 0.06335 0.0
C543 C 0.52202 0.01359 0.05988 0.0
H544 H 0.50195 0.95587 0.96373 0.0
H545 H 0.56608 0.12229 0.08683 0.0
Co546 Co 0.27847 0.26752 0.28564 0.0
C547 C 0.32776 0.28063 0.28946 0.0
Co548 Co 0.28751 0.30017 0.26562 0.0
C549 C 0.25441 0.22406 0.29986 0.0
C550 C 0.28344 0.232 0.32304 0.0
N551 N 0.2717 0.24015 0.30335 0.0
N552 N 0.2552 0.2062 0.31639 0.0
C553 C 0.27346 0.21094 0.33094 0.0
H554 H 0.24167 0.2252 0.28536 0.0
H555 H 0.29824 0.24083 0.3313 0.0
C556 C 0.2383 0.28771 0.26167 0.0
N557 N 0.29454 0.32744 0.24833 0.0
C558 C 0.31023 0.34401 0.25479 0.0
C559 C 0.28558 0.33553 0.22717 0.0
N560 N 0.31154 0.36207 0.23858 0.0
C561 C 0.29592 0.35708 0.2212 0.0
C562 C 0.29078 0.25897 0.23637 0.0
O563 O 0.24447 0.27078 0.27609 0.0
O564 O 0.25418 0.30305 0.25584 0.0
O565 O 0.29445 0.28136 0.23656 0.0
O566 O 0.2845 0.24879 0.25638 0.0
O567 O 0.32089 0.29751 0.2755 0.0
H568 H 0.27236 0.32641 0.21682 0.0
H569 H 0.32016 0.34315 0.27142 0.0
O570 O 0.31254 0.2645 0.29489 0.0
O571 O 0.27235 0.2862 0.31484 0.0
O572 O 0.28076 0.31899 0.29481 0.0
C573 C 0.2754 0.30868 0.31499 0.0
H574 H 0.27883 0.20016 0.34637 0.0
H575 H 0.29242 0.3681 0.20537 0.0
Co576 Co 0.52584 0.52472 0.04741 0.0
C577 C 0.52743 0.54581 0.09236 0.0
Co578 Co 0.54476 0.55889 0.04715 0.0
C579 C 0.51818 0.47543 0.03827 0.0
C580 C 0.48781 0.49129 0.05709 0.0
N581 N 0.51013 0.49602 0.0481 0.0
N582 N 0.50177 0.4581 0.04056 0.0
C583 C 0.48252 0.46794 0.05225 0.0
H584 H 0.53542 0.47342 0.02873 0.0
H585 H 0.47597 0.50411 0.0661 0.0
C586 C 0.54422 0.53761 0.00224 0.0
N587 N 0.56015 0.58768 0.04616 0.0
C588 C 0.55048 0.60858 0.05362 0.0
C589 C 0.58163 0.59325 0.03572 0.0
N590 N 0.56473 0.62712 0.04789 0.0
C591 C 0.58454 0.61757 0.03682 0.0
C592 C 0.57451 0.52015 0.05571 0.0
O593 O 0.5316 0.52195 0.01329 0.0
O594 O 0.55156 0.55528 0.01391 0.0
O595 O 0.57411 0.54278 0.0543 0.0
O596 O 0.55524 0.50881 0.05292 0.0
O597 O 0.53805 0.56236 0.08061 0.0
H598 H 0.59389 0.58059 0.02703 0.0
H599 H 0.53298 0.61017 0.06268 0.0
O600 O 0.52058 0.52753 0.08124 0.0
O601 O 0.49642 0.54077 0.04214 0.0
O602 O 0.5152 0.57477 0.03997 0.0
C603 C 0.49582 0.56321 0.03931 0.0
H604 H 0.46584 0.45897 0.05673 0.0
H605 H 0.59953 0.62751 0.02915 0.0
Co606 Co 0.78731 0.2957 0.28653 0.0
C607 C 0.73945 0.28233 0.29771 0.0
Co608 Co 0.77525 0.26714 0.26301 0.0
C609 C 0.80695 0.34068 0.2983 0.0
C610 C 0.79505 0.32161 0.33021 0.0
N611 N 0.79716 0.31999 0.30582 0.0
N612 N 0.8109 0.35529 0.31695 0.0
C613 C 0.80361 0.34331 0.33714 0.0
H614 H 0.81115 0.34488 0.27943 0.0
H615 H 0.78744 0.30804 0.34212 0.0
C616 C 0.82331 0.2806 0.25217 0.0
N617 N 0.76489 0.24213 0.24463 0.0
C618 C 0.74911 0.22583 0.25311 0.0
C619 C 0.77325 0.23341 0.22317 0.0
N620 N 0.74729 0.20737 0.2381 0.0
C621 C 0.76261 0.21172 0.21926 0.0
C622 C 0.76623 0.31174 0.24425 0.0
O623 O 0.81853 0.2952 0.2693 0.0
O624 O 0.80681 0.26637 0.24623 0.0
O625 O 0.76405 0.28965 0.24002 0.0
O626 O 0.77553 0.31816 0.26384 0.0
O627 O 0.74394 0.26844 0.28 0.0
H628 H 0.78714 0.24153 0.21182 0.0
H629 H 0.74048 0.22636 0.27098 0.0
O630 O 0.75612 0.29612 0.30392 0.0
O631 O 0.79937 0.27325 0.30866 0.0
O632 O 0.78663 0.24453 0.28596 0.0
C633 C 0.79736 0.25119 0.30462 0.0
H634 H 0.80395 0.34996 0.35549 0.0
H635 H 0.76646 0.19972 0.20436 0.0
Co636 Co 0.02703 0.51791 0.5118 0.0
C637 C 0.07462 0.50814 0.52625 0.0
Co638 Co 0.03764 0.54029 0.54185 0.0
C639 C 1.00409 0.50715 0.46802 0.0
C640 C 0.02598 0.47764 0.47971 0.0
N641 N 0.01825 0.49972 0.4861 0.0
N642 N 1.00279 0.49077 0.45059 0.0
C643 C 0.01671 0.47221 0.45752 0.0
H644 H 0.996 0.52482 0.46689 0.0
H645 H 0.0383 0.46662 0.49 0.0
C646 C 0.99006 0.55024 0.52769 0.0
N647 N 0.04668 0.55807 0.56768 0.0
C648 C 0.05703 0.54882 0.58753 0.0
C649 C 0.04424 0.58161 0.57195 0.0
N650 N 0.06115 0.56546 0.60422 0.0
C651 C 0.05309 0.58622 0.59455 0.0
C652 C 0.04771 0.56058 0.49724 0.0
O653 O 0.99513 0.53334 0.51302 0.0
O654 O 1.00632 0.55647 0.54212 0.0
O655 O 0.04986 0.56355 0.51989 0.0
O656 O 0.03811 0.54175 0.48982 0.0
O657 O 0.06899 0.52424 0.54158 0.0
H658 H 0.03627 0.59446 0.55961 0.0
H659 H 0.06074 0.52995 0.58994 0.0
O660 O 0.05892 0.50265 0.51094 0.0
O661 O 0.01579 0.49429 0.53344 0.0
O662 O 0.02522 0.51679 0.56379 0.0
C663 C 0.01647 0.49765 0.55612 0.0
H664 H 0.02042 0.45634 0.44698 0.0
H665 H 0.05345 0.60344 0.60316 0.0
Co666 Co 0.79727 0.7916 0.28033 0.0
C667 C 0.78208 0.80298 0.23299 0.0
Co668 Co 0.76294 0.77519 0.2722 0.0
C669 C 0.84294 0.7964 0.30219 0.0
C670 C 0.83402 0.82711 0.2806 0.0
N671 N 0.82602 0.8054 0.28747 0.0
N672 N 0.86109 0.81168 0.30506 0.0
C673 C 0.85565 0.831 0.29136 0.0
H674 H 0.84181 0.779 0.31083 0.0
H675 H 0.8244 0.83956 0.26909 0.0
C676 C 0.77792 0.76369 0.31954 0.0
N677 N 0.73403 0.76174 0.26512 0.0
C678 C 0.71458 0.77371 0.25705 0.0
C679 C 0.72776 0.73858 0.26546 0.0
N680 N 0.69646 0.75907 0.25225 0.0
C681 C 0.70463 0.73686 0.25724 0.0
C682 C 0.8026 0.7468 0.26079 0.0
O683 O 0.79485 0.7778 0.31326 0.0
O684 O 0.7617 0.75995 0.30418 0.0
O685 O 0.77982 0.74819 0.25965 0.0
O686 O 0.81392 0.76399 0.2696 0.0
O687 O 0.76418 0.79045 0.24003 0.0
H688 H 0.73943 0.7239 0.27078 0.0
H689 H 0.71404 0.79278 0.25371 0.0
O690 O 0.7993 0.80518 0.24758 0.0
O691 O 0.78084 0.8193 0.2907 0.0
O692 O 0.74629 0.80254 0.28461 0.0
C693 C 0.75805 0.82063 0.29063 0.0
H694 H 0.86606 0.84713 0.28995 0.0
H695 H 0.69473 0.72065 0.25478 0.0
Co696 Co 0.7696 0.28343 0.78502 0.0
C697 C 0.75805 0.23748 0.77348 0.0
Co698 Co 0.75007 0.28097 0.75113 0.0
C699 C 0.78221 0.3018 0.83085 0.0
C700 C 0.802 0.26969 0.82258 0.0
N701 N 0.78566 0.2853 0.81356 0.0
N702 N 0.79549 0.297 0.85041 0.0
C703 C 0.80791 0.27675 0.84546 0.0
H704 H 0.76928 0.31643 0.82964 0.0
H705 H 0.8086 0.25383 0.81341 0.0
C706 C 0.76064 0.32714 0.76292 0.0
N707 N 0.73444 0.27833 0.72242 0.0
C708 C 0.74111 0.26255 0.70527 0.0
C709 C 0.71574 0.2907 0.71314 0.0
N710 N 0.72755 0.26443 0.68549 0.0
C711 C 0.71154 0.28225 0.69021 0.0
C712 C 0.72015 0.28606 0.79127 0.0
O713 O 0.77141 0.31703 0.78043 0.0
O714 O 0.75003 0.31441 0.74776 0.0
O715 O 0.72018 0.28276 0.76849 0.0
O716 O 0.74 0.28752 0.80195 0.0
O717 O 0.74994 0.24744 0.75459 0.0
H718 H 0.70618 0.30518 0.7222 0.0
H719 H 0.75644 0.25053 0.70692 0.0
O720 O 0.76732 0.25014 0.78953 0.0
O721 O 0.79921 0.27908 0.76823 0.0
O722 O 0.78029 0.27908 0.7339 0.0
C723 C 0.7998 0.27763 0.7453 0.0
H724 H 0.81995 0.26754 0.85769 0.0
H725 H 0.69808 0.28893 0.67791 0.0
Co726 Co 0.77995 0.76603 0.78493 0.0
C727 C 0.82866 0.77963 0.78923 0.0
Co728 Co 0.78786 0.79963 0.76605 0.0
C729 C 0.75531 0.72275 0.79879 0.0
C730 C 0.78492 0.72962 0.82159 0.0
N731 N 0.77307 0.73837 0.80223 0.0
N732 N 0.75585 0.70463 0.81506 0.0
C733 C 0.7745 0.70872 0.82936 0.0
H734 H 0.74235 0.72444 0.78453 0.0
H735 H 0.80005 0.73797 0.82978 0.0
C736 C 0.73921 0.7868 0.76163 0.0
N737 N 0.79499 0.82701 0.74898 0.0
C738 C 0.81077 0.84363 0.75516 0.0
C739 C 0.78685 0.8342 0.72722 0.0
N740 N 0.81304 0.86096 0.73809 0.0
C741 C 0.79788 0.85513 0.72048 0.0
C742 C 0.79191 0.75879 0.73569 0.0
O743 O 0.74582 0.76943 0.7753 0.0
O744 O 0.75471 0.80264 0.75633 0.0
O745 O 0.79471 0.78127 0.73678 0.0
O746 O 0.78628 0.74766 0.75535 0.0
O747 O 0.8213 0.79688 0.77599 0.0
H748 H 0.77399 0.82467 0.71679 0.0
H749 H 0.82084 0.84259 0.77166 0.0
O750 O 0.81389 0.76298 0.79413 0.0
O751 O 0.77384 0.78442 0.81452 0.0
O752 O 0.78089 0.81802 0.79529 0.0
C753 C 0.77609 0.80702 0.8152 0.0
H754 H 0.77982 0.69764 0.8446 0.0
H755 H 0.79486 0.86521 0.70394 0.0
Co756 Co 0.52745 0.54322 0.50766 0.0
C757 C 0.52558 0.57235 0.55 0.0
Co758 Co 0.53746 0.52404 0.54062 0.0
C759 C 0.49877 0.55437 0.46738 0.0
C760 C 0.52174 0.5833 0.47532 0.0
N761 N 0.51734 0.56029 0.48106 0.0
N762 N 0.4905 0.57299 0.4542 0.0
C763 C 0.50521 0.59118 0.45872 0.0
H764 H 0.49057 0.53702 0.46823 0.0
H765 H 0.53469 0.59418 0.48417 0.0
C766 C 0.53908 0.49489 0.49833 0.0
N767 N 0.54738 0.5072 0.56739 0.0
C768 C 0.5621 0.51502 0.58442 0.0
C769 C 0.54338 0.4842 0.57326 0.0
N770 N 0.56775 0.49781 0.60076 0.0
C771 C 0.55588 0.47835 0.59376 0.0
C772 C 0.48841 0.51853 0.53095 0.0
O773 O 0.5332 0.5145 0.48779 0.0
O774 O 0.54307 0.49557 0.52099 0.0
O775 O 0.50413 0.51328 0.5467 0.0
O776 O 0.49472 0.53244 0.51357 0.0
O777 O 0.53194 0.55282 0.56034 0.0
H778 H 0.53246 0.47234 0.56305 0.0
H779 H 0.56848 0.53311 0.58461 0.0
O780 O 0.52141 0.57172 0.5274 0.0
O781 O 0.56024 0.55395 0.50174 0.0
O782 O 0.57069 0.53468 0.53457 0.0
C783 C 0.57644 0.54864 0.51694 0.0
H784 H 0.50312 0.60927 0.45194 0.0
H785 H 0.55631 0.46099 0.6025 0.0
Co786 Co 0.01947 0.52634 0.01705 0.0
C787 C 0.03081 0.57491 0.00854 0.0
Co788 Co 0.04649 0.53885 0.04205 0.0
C789 C 0.97583 0.50496 0.00383 0.0
C790 C 0.99526 0.51786 0.97237 0.0
N791 N 0.99627 0.51589 0.99677 0.0
N792 N 0.96194 0.50016 0.98493 0.0
C793 C 0.97412 0.50804 0.96499 0.0
H794 H 0.97128 0.50047 0.02256 0.0
H795 H 0.00886 0.52613 0.96076 0.0
C796 C 0.03498 0.49009 0.05023 0.0
N797 N 0.07042 0.54941 0.06171 0.0
C798 C 0.08708 0.56512 0.05398 0.0
C799 C 0.07886 0.54038 0.08274 0.0
N800 N 0.10569 0.56611 0.0689 0.0
C801 C 0.10089 0.55041 0.08701 0.0
C802 C 1.00052 0.54511 0.06005 0.0
O803 O 0.02131 0.49455 0.03242 0.0
O804 O 0.04782 0.50708 0.05764 0.0
O805 O 0.02244 0.54852 0.0648 0.0
O806 O 0.99534 0.53561 0.04012 0.0
O807 O 0.0447 0.57046 0.02612 0.0
H808 H 0.07063 0.52608 0.09321 0.0
H809 H 0.08704 0.57377 0.0363 0.0
O810 O 0.0176 0.55805 0.00161 0.0
O811 O 0.04365 0.51714 0.99434 0.0
O812 O 0.07069 0.52928 0.01928 0.0
C813 C 0.06556 0.52022 0.99918 0.0
H814 H 0.96796 0.50721 0.94655 0.0
H815 H 0.11307 0.54549 0.1013 0.0
H816 H 0.02006 0.20216 0.14156 0.0
H817 H 0.05153 0.22243 0.07196 0.0
H818 H 0.01459 0.16142 0.12634 0.0
H819 H 0.04637 0.18255 0.05719 0.0
H820 H 0.01603 0.1161 0.02588 0.0
H821 H 0.01774 0.15548 0.04375 0.0
H822 H 0.0346 0.12348 0.11297 0.0
H823 H 0.03259 0.08369 0.09493 0.0
C824 C 0.02576 0.19814 0.12308 0.0
C825 C 0.03626 0.21613 0.10821 0.0
C826 C 0.02275 0.17458 0.1143 0.0
C827 C 0.02979 0.16823 0.09023 0.0
C828 C 0.04017 0.18634 0.07558 0.0
C829 C 0.04334 0.20953 0.0843 0.0
C830 C 0.0199 0.11725 0.04499 0.0
C831 C 0.02414 0.09627 0.05874 0.0
C832 C 0.0211 0.14011 0.05533 0.0
C833 C 0.02664 0.14323 0.07999 0.0
C834 C 0.03016 0.1222 0.09402 0.0
C835 C 0.02905 0.0992 0.08359 0.0
H836 H 0.1341 0.7508 0.40644 0.0
H837 H 0.09381 0.76846 0.34255 0.0
H838 H 0.17115 0.74873 0.38156 0.0
H839 H 0.13074 0.76753 0.31791 0.0
H840 H 0.19838 0.75133 0.27501 0.0
H841 H 0.16235 0.7445 0.30038 0.0
H842 H 0.1972 0.77563 0.36135 0.0
H843 H 0.23338 0.78134 0.33638 0.0
C844 C 0.13319 0.75421 0.38708 0.0
C845 C 0.11113 0.75993 0.37645 0.0
C846 C 0.15441 0.75316 0.37283 0.0
C847 C 0.15401 0.75813 0.34771 0.0
C848 C 0.13176 0.76321 0.33707 0.0
C849 C 0.11055 0.76394 0.35126 0.0
C850 C 0.19836 0.75645 0.29391 0.0
C851 C 0.21863 0.76699 0.30366 0.0
C852 C 0.17769 0.75266 0.30843 0.0
C853 C 0.17676 0.75966 0.33291 0.0
C854 C 0.19733 0.76964 0.34273 0.0
C855 C 0.21806 0.77312 0.32833 0.0
H856 H 0.5624 0.83845 0.5892 0.0
H857 H 0.51401 0.86537 0.64534 0.0
H858 H 0.56269 0.87823 0.56958 0.0
H859 H 0.51353 0.90463 0.62529 0.0
H860 H 0.49798 0.96293 0.5641 0.0
H861 H 0.49877 0.92321 0.58343 0.0
H862 H 0.57637 0.92283 0.58006 0.0
H863 H 0.57561 0.96299 0.5616 0.0
C864 C 0.55177 0.85275 0.59738 0.0
C865 C 0.53827 0.84841 0.61906 0.0
C866 C 0.55196 0.87568 0.58611 0.0
C867 C 0.53805 0.89493 0.59566 0.0
C868 C 0.52438 0.89044 0.61718 0.0
C869 C 0.52476 0.8678 0.62881 0.0
C870 C 0.51526 0.95448 0.56747 0.0
C871 C 0.53672 0.96654 0.56119 0.0
C872 C 0.51572 0.93159 0.57868 0.0
C873 C 0.53765 0.91948 0.58341 0.0
C874 C 0.55911 0.93133 0.57668 0.0
C875 C 0.55866 0.95452 0.56613 0.0
H876 H 0.43544 0.29008 0.93985 0.0
H877 H 0.48375 0.28252 0.8772 0.0
H878 H 0.4021 0.29869 0.91267 0.0
H879 H 0.45076 0.29081 0.85057 0.0
H880 H 0.39376 0.33077 0.80996 0.0
H881 H 0.42482 0.32541 0.84006 0.0
H882 H 0.37883 0.27732 0.88116 0.0
H883 H 0.34748 0.28329 0.85151 0.0
C884 C 0.43894 0.29016 0.9204 0.0
C885 C 0.46227 0.2857 0.91075 0.0
C886 C 0.4199 0.29505 0.90489 0.0
C887 C 0.42399 0.29569 0.87957 0.0
C888 C 0.4472 0.29094 0.87002 0.0
C889 C 0.46609 0.286 0.88538 0.0
C890 C 0.39019 0.31931 0.82556 0.0
C891 C 0.36836 0.30722 0.82819 0.0
C892 C 0.40798 0.31612 0.8427 0.0
C893 C 0.40424 0.30081 0.86281 0.0
C894 C 0.38212 0.2893 0.86588 0.0
C895 C 0.36434 0.29245 0.8487 0.0
H896 H 0.06387 0.84721 0.43205 0.0
H897 H 0.02481 0.7996 0.48067 0.0
H898 H 0.05219 0.88082 0.45802 0.0
H899 H 0.01265 0.83337 0.50616 0.0
H900 H 0.97538 0.91105 0.51976 0.0
H901 H 0.98633 0.875 0.49718 0.0
H902 H 0.06163 0.88934 0.50577 0.0
H903 H 0.05101 0.9245 0.52931 0.0
C904 C 0.05274 0.84396 0.4482 0.0
C905 C 0.04527 0.82084 0.45438 0.0
C906 C 0.04613 0.86312 0.46301 0.0
C907 C 0.03155 0.8595 0.48394 0.0
C908 C 0.02382 0.83648 0.49001 0.0
C909 C 0.03086 0.81723 0.47548 0.0
C910 C 0.99425 0.90629 0.51734 0.0
C911 C 0.01229 0.92104 0.526 0.0
C912 C 1.00047 0.88574 0.50432 0.0
C913 C 0.02478 0.87981 0.49952 0.0
C914 C 0.04277 0.89389 0.50893 0.0
C915 C 0.0366 0.91411 0.52228 0.0
H916 H 0.44802 0.7848 0.64587 0.0
H917 H 0.48071 0.77514 0.71545 0.0
H918 H 0.40799 0.78451 0.66577 0.0
H919 H 0.44076 0.77486 0.73537 0.0
H920 H 0.33861 0.7603 0.70785 0.0
H921 H 0.37847 0.75957 0.6876 0.0
H922 H 0.40649 0.80094 0.7456 0.0
H923 H 0.3667 0.80167 0.76579 0.0
C924 C 0.44673 0.78248 0.66541 0.0
C925 C 0.46783 0.77996 0.67893 0.0
C926 C 0.42365 0.78221 0.67689 0.0
C927 C 0.42081 0.77974 0.70236 0.0
C928 C 0.44197 0.77711 0.71582 0.0
C929 C 0.46502 0.77709 0.70432 0.0
C930 C 0.35324 0.76926 0.71634 0.0
C931 C 0.34918 0.78102 0.73861 0.0
C932 C 0.37621 0.76895 0.70459 0.0
C933 C 0.39605 0.78015 0.71482 0.0
C934 C 0.39194 0.79182 0.73715 0.0
C935 C 0.36895 0.79236 0.74874 0.0
H936 H 0.54655 0.20232 0.98596 0.0
H937 H 0.53696 0.20025 0.90843 0.0
H938 H 0.55604 0.15982 0.98633 0.0
H939 H 0.54599 0.15712 0.90899 0.0
H940 H 0.51917 0.08112 0.95244 0.0
H941 H 0.52086 0.12124 0.93439 0.0
H942 H 0.59023 0.13124 0.96574 0.0
H943 H 0.58846 0.09142 0.98386 0.0
C944 C 0.54658 0.19276 0.96898 0.0
C945 C 0.54095 0.20449 0.94721 0.0
C946 C 0.55224 0.16852 0.96914 0.0
C947 C 0.55201 0.15539 0.9476 0.0
C948 C 0.54649 0.16702 0.92572 0.0
C949 C 0.54134 0.19156 0.92546 0.0
C950 C 0.53538 0.09137 0.9542 0.0
C951 C 0.55352 0.08353 0.96977 0.0
C952 C 0.53632 0.11432 0.94394 0.0
C953 C 0.55545 0.12932 0.94919 0.0
C954 C 0.57522 0.12 0.96168 0.0
C955 C 0.57423 0.09723 0.97197 0.0
H956 H 0.13273 0.30242 0.14805 0.0
H957 H 0.0882 0.27322 0.20622 0.0
H958 H 0.16693 0.30237 0.17427 0.0
H959 H 0.12303 0.2734 0.23303 0.0
H960 H 0.20035 0.25562 0.26521 0.0
H961 H 0.16312 0.25571 0.24207 0.0
H962 H 0.18386 0.32187 0.20727 0.0
H963 H 0.22079 0.32161 0.22996 0.0
C964 C 0.13003 0.29603 0.16655 0.0
C965 C 0.10721 0.28786 0.17469 0.0
C966 C 0.14992 0.29618 0.18185 0.0
C967 C 0.14819 0.2881 0.20618 0.0
C968 C 0.12542 0.27972 0.21447 0.0
C969 C 0.10525 0.27974 0.19907 0.0
C970 C 0.19685 0.27035 0.25283 0.0
C971 C 0.21396 0.28859 0.24966 0.0
C972 C 0.17533 0.27042 0.23948 0.0
C973 C 0.17018 0.28864 0.22228 0.0
C974 C 0.18703 0.30717 0.21977 0.0
C975 C 0.20836 0.30714 0.23309 0.0
H976 H 0.08202 0.04646 0.2481 0.0
H977 H 0.1445 1.00063 0.23553 0.0
H978 H 0.07073 0.04153 0.20618 0.0
H979 H 0.13315 0.99589 0.19334 0.0
H980 H 0.08018 0.9681 0.13488 0.0
H981 H 0.09803 0.97558 0.17406 0.0
H982 H 0.0852 0.0512 0.16399 0.0
H983 H 0.06672 0.04376 0.12545 0.0
C984 C 0.09348 0.03554 0.23632 0.0
C985 C 0.11404 0.02381 0.24511 0.0
C986 C 0.0871 0.03287 0.21229 0.0
C987 C 0.10109 0.01831 0.19665 0.0
C988 C 0.12203 0.00708 0.20518 0.0
C989 C 0.12856 0.00992 0.22922 0.0
C990 C 0.08121 0.98628 0.14107 0.0
C991 C 0.0719 0.0053 0.1272 0.0
C992 C 0.09168 0.99059 0.16328 0.0
C993 C 0.09287 0.01396 0.17195 0.0
C994 C 0.08431 0.03301 0.15772 0.0
C995 C 0.07391 0.02873 0.13557 0.0
H996 H 0.26418 0.83168 0.49506 0.0
H997 H 0.27038 0.89968 0.45781 0.0
H998 H 0.27896 0.81142 0.45824 0.0
H999 H 0.28558 0.87944 0.42128 0.0
H1000 H 0.3357 0.83435 0.37052 0.0
H1001 H 0.32443 0.85198 0.40995 0.0
H1002 H 0.26053 0.80915 0.41389 0.0
H1003 H 0.27161 0.79193 0.37443 0.0
C1004 C 0.26872 0.84224 0.47902 0.0
C1005 C 0.26597 0.86717 0.47912 0.0
C1006 C 0.27718 0.83069 0.45807 0.0
C1007 C 0.28352 0.84398 0.43716 0.0
C1008 C 0.28103 0.86891 0.43735 0.0
C1009 C 0.27211 0.88041 0.45811 0.0
C1010 C 0.3195 0.82852 0.3801 0.0
C1011 C 0.30441 0.81198 0.3696 0.0
C1012 C 0.313 0.83864 0.40244 0.0
C1013 C 0.29162 0.83189 0.41473 0.0
C1014 C 0.27715 0.81451 0.40474 0.0
C1015 C 0.28339 0.8048 0.38223 0.0
H1016 H 0.48631 0.07592 0.72245 0.0
H1017 H 0.42279 0.04394 0.69456 0.0
H1018 H 0.50217 0.08203 0.68122 0.0
H1019 H 0.43924 0.04838 0.6533 0.0
H1020 H 0.46961 0.06428 0.57951 0.0
H1021 H 0.45107 0.07127 0.61953 0.0
H1022 H 0.52001 0.05765 0.65222 0.0
H1023 H 0.53854 0.05215 0.61234 0.0
C1024 C 0.47578 0.07021 0.70738 0.0
C1025 C 0.45354 0.05919 0.71153 0.0
C1026 C 0.48488 0.07356 0.68377 0.0
C1027 C 0.47227 0.06526 0.66386 0.0
C1028 C 0.4494 0.05526 0.66808 0.0
C1029 C 0.44 0.05251 0.69172 0.0
C1030 C 0.48079 0.06326 0.5953 0.0
C1031 C 0.50545 0.05754 0.5929 0.0
C1032 C 0.47016 0.06709 0.61824 0.0
C1033 C 0.48392 0.06481 0.63923 0.0
C1034 C 0.50883 0.06002 0.63656 0.0
C1035 C 0.5195 0.05667 0.61365 0.0
H1036 H 0.25025 0.21464 0.97298 0.0
H1037 H 0.29934 0.16317 0.94031 0.0
H1038 H 0.24657 0.23505 0.93333 0.0
H1039 H 0.29642 0.18409 0.9011 0.0
H1040 H 0.30749 0.25027 0.8468 0.0
H1041 H 0.30864 0.22929 0.88603 0.0
H1042 H 0.2314 0.2231 0.88668 0.0
H1043 H 0.23027 0.24335 0.84671 0.0
C1044 C 0.26026 0.20764 0.9574 0.0
C1045 C 0.27505 0.18711 0.96003 0.0
C1046 C 0.25809 0.21933 0.9346 0.0
C1047 C 0.27122 0.21131 0.91387 0.0
C1048 C 0.28606 0.19086 0.91657 0.0
C1049 C 0.28767 0.17879 0.93913 0.0
C1050 C 0.29067 0.24448 0.8552 0.0
C1051 C 0.26877 0.24864 0.84333 0.0
C1052 C 0.29137 0.23233 0.87776 0.0
C1053 C 0.27013 0.22444 0.88971 0.0
C1054 C 0.24813 0.22896 0.87814 0.0
C1055 C 0.24749 0.24053 0.85514 0.0
H1056 H 0.15906 0.006 0.39101 0.0
H1057 H 0.08928 0.00458 0.35824 0.0
H1058 H 0.1393 0.00788 0.43129 0.0
H1059 H 0.0697 0.00638 0.39833 0.0
H1060 H 0.04486 0.98769 0.47621 0.0
H1061 H 0.06636 0.98109 0.43744 0.0
H1062 H 0.11248 0.04031 0.4514 0.0
H1063 H 0.09111 0.04702 0.49001 0.0
C1064 C 0.13956 0.0059 0.39246 0.0
C1065 C 0.12564 0.0053 0.37164 0.0
C1066 C 0.12832 0.00702 0.4154 0.0
C1067 C 0.10306 0.00724 0.41773 0.0
C1068 C 0.08921 0.00598 0.39694 0.0
C1069 C 0.10041 0.00514 0.37405 0.0
C1070 C 0.05962 0.99924 0.47099 0.0
C1071 C 0.06622 0.01797 0.48596 0.0
C1072 C 0.07186 0.99546 0.44889 0.0
C1073 C 0.09104 0.01017 0.44165 0.0
C1074 C 0.09791 0.02859 0.4568 0.0
C1075 C 0.08553 0.03254 0.47874 0.0
H1076 H 0.30669 0.85856 0.61241 0.0
H1077 H 0.23604 0.89195 0.61097 0.0
H1078 H 0.30257 0.85383 0.65646 0.0
H1079 H 0.23162 0.88643 0.65515 0.0
H1080 H 0.29386 0.85547 0.73602 0.0
H1081 H 0.29331 0.87945 0.69856 0.0
H1082 H 0.2319 0.8406 0.67511 0.0
H1083 H 0.23289 0.81613 0.71206 0.0
C1084 C 0.29047 0.86519 0.62162 0.0
C1085 C 0.27157 0.87533 0.60845 0.0
C1086 C 0.28823 0.86278 0.64677 0.0
C1087 C 0.26686 0.86998 0.659 0.0
C1088 C 0.24834 0.88105 0.646 0.0
C1089 C 0.25084 0.88406 0.62085 0.0
C1090 C 0.27968 0.85273 0.72328 0.0
C1091 C 0.26364 0.8338 0.72655 0.0
C1092 C 0.27939 0.86643 0.70195 0.0
C1093 C 0.26263 0.86169 0.68413 0.0
C1094 C 0.24484 0.84465 0.68877 0.0
C1095 C 0.2455 0.83058 0.70976 0.0
H1096 H 0.3898 0.04126 0.85266 0.0
H1097 H 0.46347 0.04111 0.82505 0.0
H1098 H 0.40278 0.01998 0.88929 0.0
H1099 H 0.47629 0.02006 0.86132 0.0
H1100 H 0.49433 0.96997 0.91943 0.0
H1101 H 0.47261 0.98083 0.88271 0.0
H1102 H 0.42807 0.03044 0.92417 0.0
H1103 H 0.44944 0.01918 0.96071 0.0
C1104 C 0.40872 0.0368 0.85447 0.0
C1105 C 0.42565 0.0429 0.83609 0.0
C1106 C 0.41609 0.02449 0.87528 0.0
C1107 C 0.44045 0.01799 0.87789 0.0
C1108 C 0.4573 0.02423 0.85951 0.0
C1109 C 0.44999 0.0366 0.83888 0.0
C1110 C 0.47929 0.98248 0.92075 0.0
C1111 C 0.47376 0.99411 0.94262 0.0
C1112 C 0.46703 0.98886 0.89979 0.0
C1113 C 0.44903 0.00683 0.90056 0.0
C1114 C 0.44185 0.01656 0.92301 0.0
C1115 C 0.45417 0.01026 0.94386 0.0
H1116 H 0.23947 0.19723 0.10373 0.0
H1117 H 0.3163 0.19178 0.09125 0.0
H1118 H 0.24557 0.21229 0.1446 0.0
H1119 H 0.32248 0.20786 0.13208 0.0
H1120 H 0.31441 0.27011 0.19283 0.0
H1121 H 0.31198 0.2501 0.15354 0.0
H1122 H 0.26424 0.19829 0.18621 0.0
H1123 H 0.26731 0.21772 0.22562 0.0
C1124 C 0.25773 0.19893 0.10983 0.0
C1125 C 0.27736 0.19289 0.09414 0.0
C1126 C 0.26123 0.20766 0.13334 0.0
C1127 C 0.28453 0.21145 0.14184 0.0
C1128 C 0.30426 0.20527 0.12624 0.0
C1129 C 0.30073 0.1958 0.10288 0.0
C1130 C 0.30372 0.2542 0.19178 0.0
C1131 C 0.29122 0.24555 0.21269 0.0
C1132 C 0.30236 0.24267 0.16918 0.0
C1133 C 0.28789 0.22249 0.16649 0.0
C1134 C 0.27555 0.21375 0.18743 0.0
C1135 C 0.27743 0.22488 0.21016 0.0
H1136 H 0.1842 0.1563 1.00145 0.0
H1137 H 0.22698 0.10082 0.03512 0.0
H1138 H 0.15004 0.13016 1.00106 0.0
H1139 H 0.1922 0.07408 0.03447 0.0
H1140 H 0.11381 0.04363 0.05203 0.0
H1141 H 0.1513 0.06628 0.05184 0.0
H1142 H 0.13414 0.09658 0.98192 0.0
H1143 H 0.09686 0.07436 0.98228 0.0
C1144 C 0.18651 0.1384 0.00871 0.0
C1145 C 0.20878 0.13097 0.01832 0.0
C1146 C 0.16669 0.12316 0.00829 0.0
C1147 C 0.16798 0.09964 0.01754 0.0
C1148 C 0.19022 0.09202 0.02724 0.0
C1149 C 0.21034 0.10736 0.02747 0.0
C1150 C 0.11817 0.05489 0.03645 0.0
C1151 C 0.10197 0.057 0.01718 0.0
C1152 C 0.13983 0.06794 0.03632 0.0
C1153 C 0.146 0.08373 0.017 0.0
C1154 C 0.13011 0.08514 0.99744 0.0
C1155 C 0.10861 0.07211 0.99753 0.0
H1156 H 0.72262 0.47545 0.04412 0.0
H1157 H 0.68711 0.41195 0.07072 0.0
H1158 H 0.68524 0.4982 0.04954 0.0
H1159 H 0.64992 0.43492 0.07744 0.0
H1160 H 0.58292 0.47293 0.0487 0.0
H1161 H 0.62075 0.45118 0.05177 0.0
H1162 H 0.65512 0.5152 0.07537 0.0
H1163 H 0.61719 0.53734 0.07112 0.0
C1164 C 0.70691 0.4665 0.05168 0.0
C1165 C 0.70756 0.44191 0.05666 0.0
C1166 C 0.68551 0.47957 0.05497 0.0
C1167 C 0.66447 0.46834 0.06368 0.0
C1168 C 0.66564 0.444 0.07011 0.0
C1169 C 0.68693 0.43085 0.06639 0.0
C1170 C 0.59849 0.48235 0.05474 0.0
C1171 C 0.59719 0.50687 0.0595 0.0
C1172 C 0.62019 0.46981 0.05673 0.0
C1173 C 0.64102 0.4814 0.06389 0.0
C1174 C 0.6395 0.50581 0.06947 0.0
C1175 C 0.61779 0.51848 0.06713 0.0
H1176 H 0.85486 0.49939 0.27884 0.0
H1177 H 0.91632 0.46218 0.30877 0.0
H1178 H 0.82937 0.46583 0.29047 0.0
H1179 H 0.89099 0.4287 0.31995 0.0
H1180 H 0.83728 0.37695 0.35056 0.0
H1181 H 0.85698 0.41545 0.34622 0.0
H1182 H 0.82721 0.42479 0.27503 0.0
H1183 H 0.807 0.38679 0.2797 0.0
C1184 C 0.86289 0.4842 0.28808 0.0
C1185 C 0.88768 0.48332 0.29258 0.0
C1186 C 0.84831 0.46498 0.29466 0.0
C1187 C 0.85823 0.44464 0.306 0.0
C1188 C 0.88277 0.44424 0.31146 0.0
C1189 C 0.89734 0.46335 0.30481 0.0
C1190 C 0.8346 0.38746 0.33422 0.0
C1191 C 0.82089 0.37874 0.31534 0.0
C1192 C 0.84599 0.40939 0.33166 0.0
C1193 C 0.84373 0.42302 0.31023 0.0
C1194 C 0.82913 0.41478 0.29183 0.0
C1195 C 0.81784 0.39285 0.29436 0.0
H1196 H 0.86966 0.65524 0.5248 0.0
H1197 H 0.83442 0.58738 0.52973 0.0
H1198 H 0.90898 0.63486 0.52554 0.0
H1199 H 0.87375 0.56694 0.53035 0.0
H1200 H 0.94895 0.53754 0.50425 0.0
H1201 H 0.9095 0.55773 0.50443 0.0
H1202 H 0.93609 0.61155 0.55156 0.0
H1203 H 0.97549 0.5913 0.55146 0.0
C1204 C 0.87023 0.63595 0.52614 0.0
C1205 C 0.84862 0.62308 0.52726 0.0
C1206 C 0.89291 0.6242 0.52667 0.0
C1207 C 0.89487 0.59908 0.52797 0.0
C1208 C 0.87321 0.58623 0.52908 0.0
C1209 C 0.85053 0.59801 0.5289 0.0
C1210 C 0.94644 0.55365 0.51472 0.0
C1211 C 0.96566 0.56263 0.52787 0.0
C1212 C 0.92364 0.56523 0.51493 0.0
C1213 C 0.91928 0.58644 0.52801 0.0
C1214 C 0.93859 0.59547 0.54104 0.0
C1215 C 0.96128 0.58371 0.5411 0.0
H1216 H 0.13749 0.10814 0.30849 0.0
H1217 H 0.19317 0.06788 0.34452 0.0
H1218 H 0.16293 0.14298 0.30686 0.0
H1219 H 0.21806 0.10319 0.345 0.0
H1220 H 0.26856 0.16017 0.31717 0.0
H1221 H 0.24221 0.12592 0.32035 0.0
H1222 H 0.18027 0.17386 0.32583 0.0
H1223 H 0.20699 0.20777 0.32046 0.0
C1224 C 0.155 0.10705 0.31668 0.0
C1225 C 0.16352 0.08548 0.32655 0.0
C1226 C 0.1696 0.12705 0.3159 0.0
C1227 C 0.19278 0.12605 0.32564 0.0
C1228 C 0.20069 0.10458 0.33661 0.0
C1229 C 0.18637 0.08438 0.33665 0.0
C1230 C 0.24927 0.16311 0.31893 0.0
C1231 C 0.23958 0.18628 0.31845 0.0
C1232 C 0.2341 0.14359 0.32105 0.0
C1233 C 0.20894 0.14694 0.32355 0.0
C1234 C 0.19942 0.1704 0.32343 0.0
C1235 C 0.21461 0.18987 0.32052 0.0
H1236 H 0.31209 0.942 0.49902 0.0
H1237 H 0.35741 0.89177 0.53728 0.0
H1238 H 0.34621 0.96829 0.49252 0.0
H1239 H 0.39111 0.91863 0.53259 0.0
H1240 H 0.45333 0.96255 0.50562 0.0
H1241 H 0.41989 0.93493 0.50715 0.0
H1242 H 0.36972 0.99481 0.51218 0.0
H1243 H 0.40341 0.0221 0.50873 0.0
C1244 C 0.3294 0.93673 0.50614 0.0
C1245 C 0.33226 0.91495 0.51856 0.0
C1246 C 0.34892 0.95185 0.50265 0.0
C1247 C 0.37152 0.94578 0.51219 0.0
C1248 C 0.37424 0.92378 0.52451 0.0
C1249 C 0.35489 0.9084 0.52736 0.0
C1250 C 0.43507 0.96958 0.50699 0.0
C1251 C 0.43071 0.99424 0.50712 0.0
C1252 C 0.41588 0.95386 0.50802 0.0
C1253 C 0.39195 0.96253 0.50991 0.0
C1254 C 0.38777 0.98738 0.51018 0.0
C1255 C 0.40698 1.00306 0.50845 0.0
H1256 H 0.83868 0.59904 0.26065 0.0
H1257 H 0.90664 0.63057 0.23934 0.0
H1258 H 0.81862 0.63769 0.25639 0.0
H1259 H 0.88644 0.66913 0.23403 0.0
H1260 H 0.8498 0.73575 0.26784 0.0
H1261 H 0.87006 0.69763 0.26157 0.0
H1262 H 0.80555 0.66984 0.231 0.0
H1263 H 0.78488 0.70794 0.2382 0.0
C1264 C 0.84922 0.61416 0.25453 0.0
C1265 C 0.87424 0.61195 0.25071 0.0
C1266 C 0.8377 0.6363 0.25189 0.0
C1267 C 0.85096 0.65658 0.24508 0.0
C1268 C 0.87579 0.65397 0.23982 0.0
C1269 C 0.88735 0.63189 0.24277 0.0
C1270 C 0.84001 0.72164 0.25947 0.0
C1271 C 0.81566 0.72474 0.25378 0.0
C1272 C 0.85171 0.69978 0.25568 0.0
C1273 C 0.8394 0.6806 0.24589 0.0
C1274 C 0.8154 0.68413 0.23897 0.0
C1275 C 0.80361 0.70598 0.24298 0.0
H1276 H 0.72717 0.47699 0.79674 0.0
H1277 H 0.66397 0.43736 0.77951 0.0
H1278 H 0.75287 0.44312 0.78389 0.0
H1279 H 0.68949 0.40393 0.7665 0.0
H1280 H 0.73788 0.35381 0.72853 0.0
H1281 H 0.72159 0.3941 0.73344 0.0
H1282 H 0.75756 0.39977 0.80151 0.0
H1283 H 0.77396 0.35938 0.79674 0.0
C1284 C 0.71883 0.46116 0.78999 0.0
C1285 C 0.69361 0.45966 0.78925 0.0
C1286 C 0.7335 0.44188 0.78267 0.0
C1287 C 0.72313 0.4211 0.774 0.0
C1288 C 0.69795 0.41992 0.77273 0.0
C1289 C 0.68334 0.43894 0.78041 0.0
C1290 C 0.74292 0.36386 0.74421 0.0
C1291 C 0.75676 0.35323 0.76253 0.0
C1292 C 0.73354 0.38689 0.74702 0.0
C1293 C 0.73797 0.39975 0.76806 0.0
C1294 C 0.75389 0.39017 0.78512 0.0
C1295 C 0.76322 0.36703 0.78239 0.0
H1296 H 0.04142 0.87004 0.89717 0.0
H1297 H 0.01996 0.8389 0.96617 0.0
H1298 H 0.04477 0.90887 0.91616 0.0
H1299 H 0.02262 0.87787 0.98523 0.0
H1300 H 0.04944 0.94655 0.01924 0.0
H1301 H 0.04683 0.90779 0.99987 0.0
H1302 H 0.02678 0.94283 0.93301 0.0
H1303 H 0.03007 0.98154 0.95231 0.0
C1304 C 0.03712 0.87145 0.9164 0.0
C1305 C 0.03035 0.85097 0.92994 0.0
C1306 C 0.03895 0.89399 0.92744 0.0
C1307 C 0.03409 0.89715 0.95257 0.0
C1308 C 0.02702 0.87661 0.96602 0.0
C1309 C 0.02523 0.85404 0.95496 0.0
C1310 C 0.04472 0.94608 1.00031 0.0
C1311 C 0.04022 0.96759 0.98748 0.0
C1312 C 0.04292 0.9236 0.98913 0.0
C1313 C 0.03643 0.92152 0.96458 0.0
C1314 C 0.03217 0.94315 0.95172 0.0
C1315 C 0.03402 0.96562 0.96291 0.0
H1316 H 0.92048 0.2747 0.64125 0.0
H1317 H 0.95073 0.28103 0.71213 0.0
H1318 H 0.88133 0.26588 0.66004 0.0
H1319 H 0.91145 0.27395 0.73106 0.0
H1320 H 0.83979 0.25529 0.76214 0.0
H1321 H 0.87885 0.25064 0.74139 0.0
H1322 H 0.85113 0.28846 0.67881 0.0
H1323 H 0.81174 0.29149 0.69908 0.0
C1324 C 0.91873 0.27392 0.66089 0.0
C1325 C 0.93843 0.27871 0.67531 0.0
C1326 C 0.89627 0.26914 0.67168 0.0
C1327 C 0.89297 0.26974 0.6971 0.0
C1328 C 0.9132 0.27306 0.71147 0.0
C1329 C 0.93578 0.27723 0.70065 0.0
C1330 C 0.84211 0.26237 0.74383 0.0
C1331 C 0.82296 0.274 0.73224 0.0
C1332 C 0.8645 0.2598 0.73196 0.0
C1333 C 0.86836 0.26937 0.70846 0.0
C1334 C 0.84885 0.28044 0.69669 0.0
C1335 C 0.82629 0.28246 0.70836 0.0
H1336 H 0.48982 0.22208 0.46558 0.0
H1337 H 0.55891 0.21457 0.42842 0.0
H1338 H 0.49382 0.182 0.48217 0.0
H1339 H 0.563 0.17377 0.44536 0.0
H1340 H 0.57063 0.11026 0.50335 0.0
H1341 H 0.56862 0.15004 0.48411 0.0
H1342 H 0.49313 0.1405 0.47152 0.0
H1343 H 0.49515 0.10106 0.49056 0.0
C1344 C 0.50596 0.21189 0.46075 0.0
C1345 C 0.52399 0.22204 0.44541 0.0
C1346 C 0.50819 0.18855 0.4703 0.0
C1347 C 0.52872 0.17413 0.46527 0.0
C1348 C 0.54692 0.18415 0.44991 0.0
C1349 C 0.54449 0.2076 0.43996 0.0
C1350 C 0.55358 0.11663 0.49649 0.0
C1351 C 0.53303 0.10214 0.49884 0.0
C1352 C 0.55246 0.13952 0.48521 0.0
C1353 C 0.53066 0.14898 0.47615 0.0
C1354 C 0.51023 0.13434 0.47842 0.0
C1355 C 0.51142 0.11145 0.48937 0.0
H1356 H 0.61228 0.81621 0.14107 0.0
H1357 H 0.55896 0.81377 0.1998 0.0
H1358 H 0.64211 0.79816 0.1677 0.0
H1359 H 0.58921 0.79618 0.2266 0.0
H1360 H 0.66819 0.79668 0.26418 0.0
H1361 H 0.63413 0.81253 0.24119 0.0
H1362 H 0.64209 0.75391 0.19143 0.0
H1363 H 0.67581 0.73781 0.21478 0.0
C1364 C 0.60704 0.81216 0.15975 0.0
C1365 C 0.58333 0.81641 0.16841 0.0
C1366 C 0.62402 0.80164 0.17485 0.0
C1367 C 0.6177 0.79564 0.19896 0.0
C1368 C 0.5943 0.8006 0.20796 0.0
C1369 C 0.57712 0.81067 0.19269 0.0
C1370 C 0.66223 0.78699 0.24863 0.0
C1371 C 0.67444 0.76611 0.24112 0.0
C1372 C 0.64284 0.79598 0.23559 0.0
C1373 C 0.6358 0.78444 0.2146 0.0
C1374 C 0.64739 0.76306 0.20759 0.0
C1375 C 0.66644 0.7538 0.22096 0.0
H1376 H 0.02076 0.2646 0.56021 0.0
H1377 H 0.01643 0.2368 0.63382 0.0
H1378 H 0.033 0.22489 0.54571 0.0
H1379 H 0.02914 0.19756 0.61927 0.0
H1380 H 0.08523 0.14411 0.58474 0.0
H1381 H 0.07249 0.18481 0.59551 0.0
H1382 H 0.01131 0.17958 0.5494 0.0
H1383 H 0.02383 0.1387 0.53899 0.0
C1384 C 0.02224 0.25002 0.57321 0.0
C1385 C 0.01764 0.25377 0.59813 0.0
C1386 C 0.02923 0.22743 0.56492 0.0
C1387 C 0.03221 0.20851 0.58151 0.0
C1388 C 0.02714 0.21208 0.60627 0.0
C1389 C 0.01968 0.23445 0.6145 0.0
C1390 C 0.06931 0.15186 0.57667 0.0
C1391 C 0.0554 0.13843 0.56119 0.0
C1392 C 0.06198 0.17494 0.58289 0.0
C1393 C 0.04094 0.18503 0.57328 0.0
C1394 C 0.02762 0.17204 0.55693 0.0
C1395 C 0.03468 0.14878 0.55111 0.0
H1396 H 0.58473 0.27171 0.3382 0.0
H1397 H 0.61737 0.29222 0.40468 0.0
H1398 H 0.62418 0.2715 0.31749 0.0
H1399 H 0.65702 0.29141 0.38423 0.0
H1400 H 0.70086 0.25327 0.29026 0.0
H1401 H 0.66179 0.25257 0.3116 0.0
H1402 H 0.68328 0.31073 0.35633 0.0
H1403 H 0.72266 0.31091 0.33533 0.0
C1404 C 0.60036 0.27592 0.34855 0.0
C1405 C 0.59761 0.28193 0.37325 0.0
C1406 C 0.62321 0.2757 0.33662 0.0
C1407 C 0.64429 0.28146 0.34893 0.0
C1408 C 0.64148 0.28722 0.37378 0.0
C1409 C 0.6186 0.28748 0.38568 0.0
C1410 C 0.69733 0.26595 0.30465 0.0
C1411 C 0.71519 0.28218 0.31089 0.0
C1412 C 0.67466 0.26566 0.3169 0.0
C1413 C 0.66886 0.28163 0.33591 0.0
C1414 C 0.68683 0.29784 0.34216 0.0
C1415 C 0.70954 0.29809 0.32992 0.0
H1416 H 0.4831 0.89603 0.1579 0.0
H1417 H 0.55049 0.88581 0.11801 0.0
H1418 H 0.48296 0.93851 0.14644 0.0
H1419 H 0.55086 0.92828 0.10754 0.0
H1420 H 0.48632 0.98125 0.06416 0.0
H1421 H 0.48373 0.94844 0.09373 0.0
H1422 H 0.54534 0.97522 0.13007 0.0
H1423 H 0.54744 0.00867 0.10105 0.0
C1424 C 0.49832 0.90312 0.14757 0.0
C1425 C 0.51671 0.88789 0.13856 0.0
C1426 C 0.49823 0.92728 0.14111 0.0
C1427 C 0.51698 0.93641 0.12635 0.0
C1428 C 0.53642 0.92155 0.11924 0.0
C1429 C 0.53613 0.89734 0.12504 0.0
C1430 C 0.49872 0.98058 0.079 0.0
C1431 C 0.51719 0.9972 0.0803 0.0
C1432 C 0.49712 0.96201 0.09597 0.0
C1433 C 0.5143 0.95959 0.11405 0.0
C1434 C 0.53178 0.97707 0.11638 0.0
C1435 C 0.53299 0.99604 0.09978 0.0
H1436 H 0.93877 0.82069 0.88974 0.0
H1437 H 0.97377 0.7605 0.85496 0.0
H1438 H 0.90451 0.81722 0.86319 0.0
H1439 H 0.93883 0.75651 0.82871 0.0
H1440 H 0.85477 0.74327 0.81179 0.0
H1441 H 0.89228 0.74619 0.83423 0.0
H1442 H 0.89441 0.82146 0.81785 0.0
H1443 H 0.85753 0.81847 0.79491 0.0
C1444 C 0.9393 0.80676 0.87629 0.0
C1445 C 0.9594 0.79104 0.87455 0.0
C1446 C 0.91952 0.80477 0.86097 0.0
C1447 C 0.9186 0.78653 0.84365 0.0
C1448 C 0.93869 0.77074 0.84181 0.0
C1449 C 0.9589 0.77316 0.85676 0.0
C1450 C 0.86343 0.76038 0.81259 0.0
C1451 C 0.85291 0.78056 0.80119 0.0
C1452 C 0.88505 0.76206 0.8255 0.0
C1453 C 0.89661 0.7841 0.82806 0.0
C1454 C 0.88617 0.80418 0.81648 0.0
C1455 C 0.86496 0.8024 0.80311 0.0
H1456 H 0.88099 0.05719 0.84982 0.0
H1457 H 0.94421 0.0418 0.80479 0.0
H1458 H 0.90606 0.05724 0.88571 0.0
H1459 H 0.96901 0.04141 0.8404 0.0
H1460 H 0.00718 0.08209 0.89851 0.0
H1461 H 0.98008 0.07621 0.86511 0.0
H1462 H 0.93403 0.03335 0.91209 0.0
H1463 H 0.96072 0.03989 0.94567 0.0
C1464 C 0.90007 0.0531 0.84775 0.0
C1465 C 0.91085 0.04994 0.82467 0.0
C1466 C 0.91438 0.05319 0.86819 0.0
C1467 C 0.93948 0.04995 0.86557 0.0
C1468 C 0.94978 0.04462 0.84272 0.0
C1469 C 0.93559 0.04471 0.82241 0.0
C1470 C 0.99116 0.07164 0.9017 0.0
C1471 C 0.98616 0.06125 0.92449 0.0
C1472 C 0.97584 0.06801 0.8826 0.0
C1473 C 0.95524 0.05399 0.88605 0.0
C1474 C 0.94986 0.04413 0.90901 0.0
C1475 C 0.96523 0.04771 0.92809 0.0
H1476 H 0.77389 0.16914 0.56869 0.0
H1477 H 0.78815 0.24124 0.54459 0.0
H1478 H 0.75563 0.18428 0.60636 0.0
H1479 H 0.77098 0.2564 0.58258 0.0
H1480 H 0.71834 0.28004 0.63984 0.0
H1481 H 0.73268 0.26162 0.60217 0.0
H1482 H 0.76334 0.20291 0.6433 0.0
H1483 H 0.7475 0.22045 0.68058 0.0
C1484 C 0.7737 0.18818 0.57178 0.0
C1485 C 0.78236 0.20405 0.55381 0.0
C1486 C 0.76315 0.19689 0.59329 0.0
C1487 C 0.76143 0.2216 0.5973 0.0
C1488 C 0.77129 0.23732 0.57975 0.0
C1489 C 0.78146 0.22864 0.55816 0.0
C1490 C 0.72753 0.2629 0.64074 0.0
C1491 C 0.73222 0.25195 0.66318 0.0
C1492 C 0.73613 0.25251 0.61921 0.0
C1493 C 0.74973 0.2311 0.61977 0.0
C1494 C 0.753 0.21942 0.64214 0.0
C1495 C 0.74416 0.22963 0.66357 0.0
H1496 H 0.59143 0.99564 0.33946 0.0
H1497 H 0.65658 0.01705 0.37341 0.0
H1498 H 0.57116 0.99229 0.37898 0.0
H1499 H 0.63588 0.01553 0.4131 0.0
H1500 H 0.59809 0.99923 0.48354 0.0
H1501 H 0.61862 0.99265 0.44444 0.0
H1502 H 0.55466 0.01745 0.40796 0.0
H1503 H 0.53389 0.02243 0.44694 0.0
C1504 C 0.6013 0.99986 0.35551 0.0
C1505 C 0.62538 0.00686 0.35359 0.0
C1506 C 0.58968 0.99806 0.37814 0.0
C1507 C 0.60172 1.00395 0.39927 0.0
C1508 C 0.62611 0.01049 0.39729 0.0
C1509 C 0.63795 0.01162 0.3746 0.0
C1510 C 0.58837 1.00275 0.46706 0.0
C1511 C 0.56448 0.01135 0.46811 0.0
C1512 C 0.60017 0.99923 0.44468 0.0
C1513 C 0.58845 0.00478 0.42299 0.0
C1514 C 0.56419 0.01256 0.4242 0.0
C1515 C 0.55225 0.01554 0.44655 0.0
H1516 H 0.75288 0.8829 0.095 0.0
H1517 H 0.82542 0.85455 0.08819 0.0
H1518 H 0.74962 0.86601 0.13657 0.0
H1519 H 0.82221 0.83792 0.12896 0.0
H1520 H 0.81921 0.82785 0.21088 0.0
H1521 H 0.82046 0.84796 0.17131 0.0
H1522 H 0.74742 0.82698 0.15933 0.0
H1523 H 0.74615 0.80683 0.19916 0.0
C1524 C 0.76821 0.87338 0.10236 0.0
C1525 C 0.78941 0.87022 0.08794 0.0
C1526 C 0.76629 0.86345 0.12618 0.0
C1527 C 0.78567 0.85046 0.13647 0.0
C1528 C 0.80693 0.84793 0.12214 0.0
C1529 C 0.80871 0.85746 0.09846 0.0
C1530 C 0.80336 0.82743 0.19988 0.0
C1531 C 0.78266 0.81536 0.20841 0.0
C1532 C 0.80409 0.839 0.177 0.0
C1533 C 0.78408 0.83918 0.16171 0.0
C1534 C 0.76317 0.82752 0.17044 0.0
C1535 C 0.76252 0.81572 0.19331 0.0
H1536 H 0.94402 0.11232 0.7078 0.0
H1537 H 0.89342 0.05841 0.68948 0.0
H1538 H 0.96512 0.10686 0.66883 0.0
H1539 H 0.91543 0.05118 0.65185 0.0
H1540 H 0.96355 0.03444 0.58844 0.0
H1541 H 0.93427 0.05471 0.61497 0.0
H1542 H 0.99226 0.07669 0.66028 0.0
H1543 H 0.02138 0.05824 0.63223 0.0
C1544 C 0.93685 0.10004 0.69492 0.0
C1545 C 0.91751 0.08542 0.70166 0.0
C1546 C 0.94923 0.09643 0.67286 0.0
C1547 C 0.94292 0.07755 0.65782 0.0
C1548 C 0.92118 0.06568 0.66296 0.0
C1549 C 0.90834 0.06991 0.68461 0.0
C1550 C 0.96983 0.04339 0.60433 0.0
C1551 C 0.99451 0.04432 0.60888 0.0
C1552 C 0.95311 0.05519 0.61944 0.0
C1553 C 0.96071 0.06753 0.63985 0.0
C1554 C 0.98558 0.06807 0.64441 0.0
C1555 C 1.00233 0.05696 0.62879 0.0
H1556 H 0.81972 0.14153 0.41674 0.0
H1557 H 0.82068 0.21354 0.44369 0.0
H1558 H 0.82162 0.15731 0.37481 0.0
H1559 H 0.82244 0.22902 0.40264 0.0
H1560 H 0.8365 0.25607 0.33192 0.0
H1561 H 0.84849 0.23066 0.36582 0.0
H1562 H 0.79157 0.18198 0.35037 0.0
H1563 H 0.78026 0.20699 0.31564 0.0
C1564 C 0.82066 0.16061 0.41367 0.0
C1565 C 0.81984 0.17638 0.43329 0.0
C1566 C 0.82175 0.16958 0.38983 0.0
C1567 C 0.82247 0.19432 0.38556 0.0
C1568 C 0.82246 0.20985 0.40533 0.0
C1569 C 0.82112 0.20098 0.42889 0.0
C1570 C 0.82697 0.23962 0.33545 0.0
C1571 C 0.80707 0.23371 0.32182 0.0
C1572 C 0.83389 0.22506 0.3547 0.0
C1573 C 0.82057 0.20472 0.36098 0.0
C1574 C 0.80215 0.19755 0.34585 0.0
C1575 C 0.79553 0.21195 0.32619 0.0
H1576 H 0.65297 0.03328 0.21586 0.0
H1577 H 0.57754 0.04543 0.23413 0.0
H1578 H 0.64674 0.05 0.1753 0.0
H1579 H 0.57127 0.06159 0.19366 0.0
H1580 H 0.56807 0.10938 0.13024 0.0
H1581 H 0.58178 0.09741 0.17039 0.0
H1582 H 0.62639 0.04182 0.13787 0.0
H1583 H 0.61345 0.05453 0.09781 0.0
C1584 C 0.63498 0.03902 0.21105 0.0
C1585 C 0.61575 0.03814 0.22817 0.0
C1586 C 0.63147 0.04877 0.18792 0.0
C1587 C 0.60866 0.05766 0.18156 0.0
C1588 C 0.58924 0.05565 0.19832 0.0
C1589 C 0.59275 0.04606 0.22138 0.0
C1590 C 0.58148 0.09524 0.13166 0.0
C1591 C 0.58938 0.08255 0.11108 0.0
C1592 C 0.58905 0.08812 0.15462 0.0
C1593 C 0.60459 0.06822 0.15727 0.0
C1594 C 0.61432 0.05711 0.13644 0.0
C1595 C 0.60682 0.06429 0.11354 0.0
H1596 H 0.77845 0.84635 0.97076 0.0
H1597 H 0.78893 0.91316 0.93293 0.0
H1598 H 0.77475 0.82622 0.93247 0.0
H1599 H 0.78718 0.89291 0.8941 0.0
H1600 H 0.76844 0.85509 0.8244 0.0
H1601 H 0.7699 0.87579 0.86294 0.0
H1602 H 0.78745 0.80889 0.89884 0.0
H1603 H 0.78405 0.78841 0.86069 0.0
C1604 C 0.78047 0.85675 0.95414 0.0
C1605 C 0.7841 0.8815 0.95522 0.0
C1606 C 0.77852 0.84505 0.93176 0.0
C1607 C 0.78075 0.85743 0.90923 0.0
C1608 C 0.78479 0.8823 0.91048 0.0
C1609 C 0.78612 0.8941 0.93298 0.0
C1610 C 0.77224 0.84479 0.84065 0.0
C1611 C 0.77575 0.81989 0.83921 0.0
C1612 C 0.77343 0.85678 0.86304 0.0
C1613 C 0.77887 0.8445 0.88493 0.0
C1614 C 0.78256 0.8195 0.88317 0.0
C1615 C 0.78073 0.80749 0.86094 0.0
H1616 H 0.84149 0.95479 0.04744 0.0
H1617 H 0.87586 0.92229 0.98468 0.0
H1618 H 0.87703 0.97999 0.05205 0.0
H1619 H 0.91072 0.9478 0.98879 0.0
H1620 H 0.95871 0.01441 0.989 0.0
H1621 H 0.9213 0.99251 0.98585 0.0
H1622 H 0.92376 0.97341 0.06178 0.0
H1623 H 0.96186 0.99487 0.06485 0.0
C1624 C 0.85636 0.95329 0.03435 0.0
C1625 C 0.85553 0.93647 0.01556 0.0
C1626 C 0.8769 0.96761 0.03713 0.0
C1627 C 0.89697 0.96607 0.02081 0.0
C1628 C 0.89573 0.94973 0.00167 0.0
C1629 C 0.87561 0.93503 0.99931 0.0
C1630 C 0.95128 0.00581 0.0052 0.0
C1631 C 0.96359 0.00666 0.02724 0.0
C1632 C 0.92974 0.99306 0.00332 0.0
C1633 C 0.91927 0.98103 0.02352 0.0
C1634 C 0.93107 0.98252 0.04582 0.0
C1635 C 0.95301 0.99485 0.04758 0.0
H1636 H 0.34555 0.59272 0.0187 0.0
H1637 H 0.37658 0.66261 0.01173 0.0
H1638 H 0.38455 0.57574 0.02814 0.0
H1639 H 0.41566 0.64598 0.02301 0.0
H1640 H 0.48671 0.60392 0.01338 0.0
H1641 H 0.4476 0.62328 0.00752 0.0
H1642 H 0.41426 0.57094 0.05562 0.0
H1643 H 0.45298 0.55075 0.05969 0.0
C1644 C 0.36068 0.60455 0.01986 0.0
C1645 C 0.35814 0.62893 0.01445 0.0
C1646 C 0.38312 0.59485 0.02544 0.0
C1647 C 0.40345 0.60943 0.02639 0.0
C1648 C 0.40059 0.63408 0.02194 0.0
C1649 C 0.37818 0.64369 0.01573 0.0
C1650 C 0.47089 0.59664 0.02256 0.0
C1651 C 0.47262 0.57569 0.03659 0.0
C1652 C 0.4485 0.60783 0.01946 0.0
C1653 C 0.42757 0.59862 0.03093 0.0
C1654 C 0.42973 0.57819 0.04586 0.0
C1655 C 0.45194 0.56664 0.04833 0.0
H1656 H 0.17135 0.61676 0.82149 0.0
H1657 H 0.20079 0.56849 0.76727 0.0
H1658 H 0.19145 0.64981 0.80088 0.0
H1659 H 0.22024 0.60174 0.74617 0.0
H1660 H 0.26763 0.66844 0.72854 0.0
H1661 H 0.25062 0.63231 0.74723 0.0
H1662 H 0.18439 0.67129 0.76372 0.0
H1663 H 0.20194 0.70727 0.7459 0.0
C1664 C 0.18231 0.61318 0.80531 0.0
C1665 C 0.18428 0.59009 0.79589 0.0
C1666 C 0.19361 0.63214 0.79334 0.0
C1667 C 0.20686 0.62846 0.77151 0.0
C1668 C 0.2101 0.60514 0.7629 0.0
C1669 C 0.19899 0.58609 0.77505 0.0
C1670 C 0.2492 0.66887 0.73553 0.0
C1671 C 0.23592 0.69036 0.73584 0.0
C1672 C 0.23952 0.64834 0.74638 0.0
C1673 C 0.21638 0.64913 0.7575 0.0
C1674 C 0.20254 0.67029 0.75601 0.0
C1675 C 0.21232 0.69075 0.74547 0.0
H1676 H 0.22935 0.47153 0.53846 0.0
H1677 H 0.19762 0.40609 0.5159 0.0
H1678 H 0.18972 0.49117 0.53862 0.0
H1679 H 0.15788 0.42548 0.51653 0.0
H1680 H 0.11193 0.51523 0.55721 0.0
H1681 H 0.15128 0.49521 0.55799 0.0
H1682 H 0.1326 0.45329 0.4963 0.0
H1683 H 0.09303 0.47301 0.49591 0.0
C1684 C 0.21389 0.4612 0.53377 0.0
C1685 C 0.21692 0.4371 0.52721 0.0
C1686 C 0.19097 0.47249 0.53395 0.0
C1687 C 0.17017 0.46014 0.52752 0.0
C1688 C 0.17325 0.43591 0.52122 0.0
C1689 C 0.19617 0.42463 0.52108 0.0
C1690 C 0.11616 0.50175 0.54376 0.0
C1691 C 0.09904 0.49589 0.52647 0.0
C1692 C 0.13895 0.49027 0.54411 0.0
C1693 C 0.14556 0.47243 0.5272 0.0
C1694 C 0.12836 0.46658 0.50992 0.0
C1695 C 0.10556 0.47808 0.50956 0.0
H1696 H 0.91708 0.96949 0.77031 0.0
H1697 H 0.86051 1.00303 0.72898 0.0
H1698 H 0.89982 0.93037 0.76299 0.0
H1699 H 0.84352 0.96417 0.72162 0.0
H1700 H 0.82833 0.88845 0.69982 0.0
H1701 H 0.85309 0.92384 0.70138 0.0
H1702 H 0.8587 0.91435 0.77891 0.0
H1703 H 0.83343 0.87963 0.77772 0.0
C1704 C 0.90127 0.96844 0.75933 0.0
C1705 C 0.88991 0.9892 0.75047 0.0
C1706 C 0.89141 0.94616 0.75521 0.0
C1707 C 0.87039 0.94441 0.74179 0.0
C1708 C 0.85986 0.96507 0.73184 0.0
C1709 C 0.86945 0.98729 0.73626 0.0
C1710 C 0.83472 0.89389 0.71722 0.0
C1711 C 0.82865 0.88117 0.73866 0.0
C1712 C 0.84908 0.91401 0.71804 0.0
C1713 C 0.85786 0.92159 0.74023 0.0
C1714 C 0.8525 0.90855 0.7615 0.0
C1715 C 0.83793 0.88864 0.76077 0.0
H1716 H 0.75575 0.10592 0.48226 0.0
H1717 H 0.70963 0.16845 0.48927 0.0
H1718 H 0.72253 0.08088 0.49675 0.0
H1719 H 0.67663 0.14338 0.50418 0.0
H1720 H 0.6432 0.09418 0.56545 0.0
H1721 H 0.67538 0.11769 0.54594 0.0
H1722 H 0.67733 0.07009 0.4849 0.0
H1723 H 0.64487 0.04686 0.5043 0.0
C1724 C 0.73836 0.11421 0.48635 0.0
C1725 C 0.73524 0.1391 0.48469 0.0
C1726 C 0.71945 0.09992 0.49468 0.0
C1727 C 0.6973 0.11036 0.50189 0.0
C1728 C 0.69372 0.13505 0.49896 0.0
C1729 C 0.71248 0.14931 0.49017 0.0
C1730 C 0.65082 0.08861 0.54807 0.0
C1731 C 0.64176 0.06877 0.53633 0.0
C1732 C 0.66892 0.10215 0.5368 0.0
C1733 C 0.67849 0.09575 0.51385 0.0
C1734 C 0.6701 0.07536 0.50255 0.0
C1735 C 0.65168 0.06212 0.51361 0.0
H1736 H 0.14996 0.43844 0.80743 0.0
H1737 H 0.21392 0.46646 0.77156 0.0
H1738 H 0.16838 0.39881 0.80792 0.0
H1739 H 0.23217 0.42655 0.77154 0.0
H1740 H 0.26827 0.36038 0.80316 0.0
H1741 H 0.24809 0.3993 0.8026 0.0
H1742 H 0.18206 0.36628 0.78207 0.0
H1743 H 0.20201 0.32733 0.78315 0.0
C1744 C 0.16779 0.43605 0.79922 0.0
C1745 C 0.18058 0.45557 0.78958 0.0
C1746 C 0.17832 0.41332 0.79949 0.0
C1747 C 0.20183 0.40965 0.79008 0.0
C1748 C 0.2142 0.42897 0.7794 0.0
C1749 C 0.20366 0.45175 0.77914 0.0
C1750 C 0.24934 0.36138 0.79893 0.0
C1751 C 0.23674 0.3408 0.79318 0.0
C1752 C 0.23788 0.3837 0.7983 0.0
C1753 C 0.21362 0.38585 0.7919 0.0
C1754 C 0.20076 0.36517 0.78714 0.0
C1755 C 0.21219 0.34285 0.7878 0.0
H1756 H 0.34891 0.59852 0.23669 0.0
H1757 H 0.40711 0.63948 0.26438 0.0
H1758 H 0.32378 0.63463 0.23479 0.0
H1759 H 0.38225 0.67556 0.26193 0.0
H1760 H 0.2914 0.71128 0.22461 0.0
H1761 H 0.31708 0.67595 0.21822 0.0
H1762 H 0.34713 0.68522 0.28891 0.0
H1763 H 0.32191 0.72053 0.2952 0.0
C1764 C 0.35661 0.61537 0.24152 0.0
C1765 C 0.37972 0.61624 0.25116 0.0
C1766 C 0.34222 0.636 0.24048 0.0
C1767 C 0.3509 0.65766 0.24891 0.0
C1768 C 0.37492 0.65889 0.25602 0.0
C1769 C 0.38919 0.63832 0.25723 0.0
C1770 C 0.30326 0.70555 0.23891 0.0
C1771 C 0.30479 0.71872 0.26036 0.0
C1772 C 0.318 0.68542 0.23517 0.0
C1773 C 0.33445 0.67827 0.25281 0.0
C1774 C 0.3351 0.6908 0.2747 0.0
C1775 C 0.32044 0.71084 0.27843 0.0
H1776 H 0.50039 0.71624 0.61642 0.0
H1777 H 0.57714 0.7067 0.60641 0.0
H1778 H 0.49448 0.67556 0.60128 0.0
H1779 H 0.57135 0.66599 0.59236 0.0
H1780 H 0.55125 0.58498 0.59005 0.0
H1781 H 0.55461 0.62443 0.60843 0.0
H1782 H 0.50318 0.65338 0.55845 0.0
H1783 H 0.50051 0.61415 0.53941 0.0
C1784 C 0.51604 0.70536 0.61155 0.0
C1785 C 0.53929 0.71496 0.61294 0.0
C1786 C 0.51266 0.68201 0.60264 0.0
C1787 C 0.53242 0.66717 0.5955 0.0
C1788 C 0.55564 0.67657 0.59773 0.0
C1789 C 0.55896 0.70006 0.60587 0.0
C1790 C 0.54038 0.59963 0.5831 0.0
C1791 C 0.52545 0.59601 0.56319 0.0
C1792 C 0.54244 0.62242 0.59361 0.0
C1793 C 0.52914 0.64239 0.58511 0.0
C1794 C 0.51359 0.63859 0.56574 0.0
C1795 C 0.51208 0.61596 0.55476 0.0
H1796 H 0.57311 0.28278 0.85032 0.0
H1797 H 0.619 0.27052 0.91143 0.0
H1798 H 0.60842 0.28668 0.82352 0.0
H1799 H 0.65444 0.27329 0.88446 0.0
H1800 H 0.71271 0.30455 0.83621 0.0
H1801 H 0.67639 0.30227 0.86183 0.0
H1802 H 0.64078 0.26502 0.80505 0.0
H1803 H 0.67685 0.26834 0.77903 0.0
C1804 C 0.59079 0.28055 0.85794 0.0
C1805 C 0.59339 0.27642 0.88293 0.0
C1806 C 0.61102 0.2827 0.84257 0.0
C1807 C 0.63426 0.28043 0.85185 0.0
C1808 C 0.63679 0.27568 0.87681 0.0
C1809 C 0.61654 0.27387 0.89224 0.0
C1810 C 0.697 0.2961 0.82915 0.0
C1811 C 0.69752 0.28657 0.80571 0.0
C1812 C 0.67628 0.29459 0.84389 0.0
C1813 C 0.65579 0.28316 0.83562 0.0
C1814 C 0.65617 0.27415 0.81189 0.0
C1815 C 0.67681 0.276 0.79699 0.0
H1816 H 0.03437 0.3673 0.15382 0.0
H1817 H 0.04019 0.33442 0.08359 0.0
H1818 H 0.03461 0.4068 0.13434 0.0
H1819 H 0.04038 0.37391 0.06401 0.0
H1820 H 0.05734 0.47563 0.09247 0.0
H1821 H 0.05836 0.4361 0.11188 0.0
H1822 H 0.01541 0.4087 0.05486 0.0
H1823 H 0.01438 0.44822 0.03552 0.0
C1824 C 0.03586 0.36841 0.13419 0.0
C1825 C 0.03731 0.34733 0.12046 0.0
C1826 C 0.03608 0.39125 0.12291 0.0
C1827 C 0.03745 0.39404 0.09736 0.0
C1828 C 0.03901 0.37288 0.08364 0.0
C1829 C 0.03909 0.35004 0.09495 0.0
C1830 C 0.0481 0.46122 0.08398 0.0
C1831 C 0.03579 0.4655 0.06222 0.0
C1832 C 0.04856 0.43838 0.09528 0.0
C1833 C 0.037 0.41871 0.08516 0.0
C1834 C 0.02484 0.42301 0.06329 0.0
C1835 C 0.02412 0.44591 0.05216 0.0
H1836 H 1.00069 0.78433 0.36472 0.0
H1837 H 0.95335 0.79281 0.42793 0.0
H1838 H 0.9671 0.79319 0.33848 0.0
H1839 H 0.91989 0.80205 0.40156 0.0
H1840 H 0.8621 0.78551 0.34662 0.0
H1841 H 0.89602 0.77959 0.3731 0.0
H1842 H 0.93915 0.82571 0.32661 0.0
H1843 H 0.90529 0.83102 0.29957 0.0
C1844 C 0.98319 0.78826 0.37306 0.0
C1845 C 0.97969 0.78766 0.39846 0.0
C1846 C 0.96398 0.79349 0.35799 0.0
C1847 C 0.94087 0.79821 0.36798 0.0
C1848 C 0.93746 0.79815 0.39336 0.0
C1849 C 0.95666 0.79296 0.40845 0.0
C1850 C 0.87887 0.7942 0.34188 0.0
C1851 C 0.88109 0.80858 0.32088 0.0
C1852 C 0.8982 0.79107 0.35725 0.0
C1853 C 0.9202 0.80225 0.35196 0.0
C1854 C 0.92244 0.81675 0.33104 0.0
C1855 C 0.90303 0.81994 0.31568 0.0
H1856 H 0.53538 0.31257 0.99631 0.0
H1857 H 0.51487 0.35286 0.93256 0.0
H1858 H 0.52549 0.34721 0.02166 0.0
H1859 H 0.50446 0.38717 0.95798 0.0
H1860 H 0.46769 0.43465 0.01702 0.0
H1861 H 0.47305 0.39664 0.99574 0.0
H1862 H 0.54612 0.39105 0.02017 0.0
H1863 H 0.54087 0.42924 0.04098 0.0
C1864 C 0.5285 0.32872 0.9878 0.0
C1865 C 0.52604 0.3302 0.96253 0.0
C1866 C 0.52288 0.34844 0.00226 0.0
C1867 C 0.51417 0.36965 0.99166 0.0
C1868 C 0.51097 0.37087 0.96651 0.0
C1869 C 0.51708 0.35136 0.952 0.0
C1870 C 0.48469 0.42502 0.01813 0.0
C1871 C 0.50392 0.43471 0.03049 0.0
C1872 C 0.48779 0.40346 0.00593 0.0
C1873 C 0.50996 0.39109 0.00644 0.0
C1874 C 0.52882 0.40026 0.01972 0.0
C1875 C 0.52589 0.42204 0.03145 0.0
H1876 H 0.9469 0.2814 0.14686 0.0
H1877 H 0.97969 0.27475 0.21667 0.0
H1878 H 0.90687 0.28128 0.16678 0.0
H1879 H 0.93969 0.2748 0.23664 0.0
H1880 H 0.86494 0.30255 0.26548 0.0
H1881 H 0.90484 0.30142 0.24545 0.0
H1882 H 0.8778 0.25628 0.18995 0.0
H1883 H 0.83788 0.25728 0.21013 0.0
C1884 C 0.94564 0.27977 0.16647 0.0
C1885 C 0.96678 0.27802 0.18002 0.0
C1886 C 0.92255 0.27963 0.17797 0.0
C1887 C 0.91971 0.27811 0.2035 0.0
C1888 C 0.9409 0.27627 0.21702 0.0
C1889 C 0.96398 0.27606 0.2055 0.0
C1890 C 0.86741 0.29234 0.24901 0.0
C1891 C 0.84789 0.28001 0.23957 0.0
C1892 C 0.89048 0.29157 0.23753 0.0
C1893 C 0.8949 0.27872 0.21593 0.0
C1894 C 0.8753 0.26656 0.20637 0.0
C1895 C 0.85229 0.26704 0.21806 0.0
H1896 H 0.08138 0.69631 0.42507 0.0
H1897 H 1.00594 0.68855 0.44413 0.0
H1898 H 0.08816 0.65351 0.43293 0.0
H1899 H 0.0125 0.64585 0.45104 0.0
H1900 H 0.02918 0.56809 0.45254 0.0
H1901 H 0.03047 0.60519 0.42879 0.0
H1902 H 0.07967 0.63439 0.47937 0.0
H1903 H 0.07796 0.59759 0.50356 0.0
C1904 C 0.06616 0.68525 0.43006 0.0
C1905 C 0.04318 0.69551 0.4342 0.0
C1906 C 0.07004 0.66091 0.43454 0.0
C1907 C 0.05081 0.64657 0.44242 0.0
C1908 C 0.02752 0.65657 0.44465 0.0
C1909 C 0.02379 0.68093 0.44087 0.0
C1910 C 0.04088 0.58213 0.45817 0.0
C1911 C 0.0532 0.58019 0.48007 0.0
C1912 C 0.04161 0.60328 0.44456 0.0
C1913 C 0.05515 0.62246 0.45235 0.0
C1914 C 0.06931 0.61967 0.47293 0.0
C1915 C 0.06818 0.59873 0.48683 0.0
H1916 H 0.58913 0.77297 0.7059 0.0
H1917 H 0.63347 0.80445 0.64886 0.0
H1918 H 0.6239 0.77258 0.73282 0.0
H1919 H 0.66761 0.80387 0.67519 0.0
H1920 H 0.72098 0.82178 0.73166 0.0
H1921 H 0.68397 0.82254 0.70915 0.0
H1922 H 0.66441 0.75464 0.7409 0.0
H1923 H 0.70177 0.75402 0.7639 0.0
C1924 C 0.60611 0.77992 0.69904 0.0
C1925 C 0.60807 0.78881 0.67494 0.0
C1926 C 0.62624 0.77955 0.7145 0.0
C1927 C 0.64894 0.78836 0.70653 0.0
C1928 C 0.65064 0.79729 0.6825 0.0
C1929 C 0.6308 0.79746 0.66715 0.0
C1930 C 0.70881 0.80702 0.73417 0.0
C1931 C 0.71478 0.78783 0.74982 0.0
C1932 C 0.68743 0.80735 0.72095 0.0
C1933 C 0.67089 0.7885 0.72265 0.0
C1934 C 0.67639 0.76961 0.73897 0.0
C1935 C 0.69798 0.76923 0.75223 0.0
H1936 H 0.60125 0.55268 0.73461 0.0
H1937 H 0.6458 0.48877 0.73617 0.0
H1938 H 0.59344 0.54609 0.69183 0.0
H1939 H 0.6374 0.48188 0.69336 0.0
H1940 H 0.57202 0.46665 0.63889 0.0
H1941 H 0.59288 0.47319 0.67628 0.0
H1942 H 0.61738 0.54114 0.6487 0.0
H1943 H 0.59758 0.53446 0.61075 0.0
C1944 C 0.60965 0.53745 0.72565 0.0
C1945 C 0.62397 0.52114 0.73858 0.0
C1946 C 0.60533 0.53378 0.70122 0.0
C1947 C 0.61484 0.51349 0.68952 0.0
C1948 C 0.62996 0.49765 0.70213 0.0
C1949 C 0.63477 0.50164 0.72648 0.0
C1950 C 0.58226 0.48275 0.64032 0.0
C1951 C 0.58243 0.50025 0.62177 0.0
C1952 C 0.59431 0.4864 0.6618 0.0
C1953 C 0.60651 0.5077 0.66524 0.0
C1954 C 0.60788 0.52464 0.64639 0.0
C1955 C 0.59621 0.52084 0.62475 0.0
H1956 H 0.74625 0.39515 0.95912 0.0
H1957 H 0.78732 0.3433 1.00013 0.0
H1958 H 0.75616 0.37369 0.92195 0.0
H1959 H 0.7986 0.32268 0.96291 0.0
H1960 H 0.79208 0.27733 0.89511 0.0
H1961 H 0.7838 0.29829 0.93302 0.0
H1962 H 0.78769 0.36575 0.8941 0.0
H1963 H 0.79456 0.3444 0.85615 0.0
C1964 C 0.75757 0.37926 0.96011 0.0
C1965 C 0.76604 0.37089 0.98243 0.0
C1966 C 0.76348 0.36708 0.93881 0.0
C1967 C 0.77841 0.34655 0.93935 0.0
C1968 C 0.78681 0.33821 0.9618 0.0
C1969 C 0.78046 0.35012 0.98316 0.0
C1970 C 0.79147 0.29664 0.89489 0.0
C1971 C 0.79385 0.30937 0.87294 0.0
C1972 C 0.78677 0.30869 0.91654 0.0
C1973 C 0.78485 0.33375 0.91663 0.0
C1974 C 0.78839 0.34645 0.89465 0.0
C1975 C 0.79257 0.33433 0.87298 0.0
H1976 H 0.94171 0.50228 0.1876 0.0
H1977 H 0.91651 0.5754 0.19248 0.0
H1978 H 0.95057 0.50806 0.14425 0.0
H1979 H 0.92624 0.5814 0.14912 0.0
H1980 H 1.00132 0.57613 0.09755 0.0
H1981 H 0.97414 0.57654 0.13321 0.0
H1982 H 0.93064 0.52305 0.10096 0.0
H1983 H 0.95739 0.52307 0.06488 0.0
C1984 C 0.93752 0.51938 0.1792 0.0
C1985 C 0.92866 0.53845 0.19322 0.0
C1986 C 0.94238 0.52263 0.15446 0.0
C1987 C 0.93899 0.54515 0.14356 0.0
C1988 C 0.92876 0.56386 0.15723 0.0
C1989 C 0.92326 0.56042 0.18191 0.0
C1990 C 0.9855 0.56507 0.09775 0.0
C1991 C 0.98159 0.54934 0.07873 0.0
C1992 C 0.96987 0.56546 0.118 0.0
C1993 C 0.95045 0.54979 0.11964 0.0
C1994 C 0.94548 0.53535 0.09988 0.0
C1995 C 0.9608 0.53536 0.07936 0.0
H1996 H 0.77801 0.6555 0.43764 0.0
H1997 H 0.78034 0.7222 0.47542 0.0
H1998 H 0.77665 0.6772 0.39875 0.0
H1999 H 0.77934 0.74391 0.43655 0.0
H2000 H 0.80482 0.77268 0.35988 0.0
H2001 H 0.80476 0.75148 0.3991 0.0
H2002 H 0.7506 0.7042 0.37402 0.0
H2003 H 0.75041 0.72557 0.33498 0.0
C2004 C 0.77813 0.6748 0.43773 0.0
C2005 C 0.77922 0.68696 0.45992 0.0
C2006 C 0.77728 0.68733 0.41531 0.0
C2007 C 0.77795 0.71249 0.41419 0.0
C2008 C 0.77903 0.72461 0.43643 0.0
C2009 C 0.77943 0.7121 0.45886 0.0
C2010 C 0.79276 0.75786 0.36272 0.0
C2011 C 0.77754 0.75106 0.34402 0.0
C2012 C 0.79267 0.74568 0.38536 0.0
C2013 C 0.77769 0.72593 0.39004 0.0
C2014 C 0.76256 0.71909 0.37127 0.0
C2015 C 0.76235 0.73153 0.3488 0.0
H2016 H 0.58321 0.50616 0.8504 0.0
H2017 H 0.64871 0.51419 0.88984 0.0
H2018 H 0.55933 0.51339 0.88776 0.0
H2019 H 0.6248 0.52173 0.92698 0.0
H2020 H 0.5745 0.56617 0.97602 0.0
H2021 H 0.5945 0.55754 0.93724 0.0
H2022 H 0.55439 0.49264 0.9323 0.0
H2023 H 0.53435 0.50099 0.97164 0.0
C2024 C 0.59246 0.50936 0.86707 0.0
C2025 C 0.61777 0.50974 0.86731 0.0
C2026 C 0.57882 0.51338 0.88836 0.0
C2027 C 0.59032 0.51825 0.91001 0.0
C2028 C 0.6156 0.5182 0.91034 0.0
C2029 C 0.62924 0.5138 0.88918 0.0
C2030 C 0.56962 0.55019 0.96662 0.0
C2031 C 0.553 0.53412 0.97701 0.0
C2032 C 0.5812 0.54524 0.94449 0.0
C2033 C 0.57618 0.5243 0.93215 0.0
C2034 C 0.55853 0.50888 0.94166 0.0
C2035 C 0.54709 0.51368 0.96407 0.0
H2036 H 0.81174 0.36392 0.1152 0.0
H2037 H 0.74019 0.39499 0.11133 0.0
H2038 H 0.80434 0.35451 0.15824 0.0
H2039 H 0.73252 0.38462 0.15429 0.0
H2040 H 0.73725 0.3075 0.20547 0.0
H2041 H 0.73774 0.33283 0.16896 0.0
H2042 H 0.7867 0.38045 0.20248 0.0
H2043 H 0.7857 0.35572 0.23933 0.0
C2044 C 0.79468 0.36918 0.12374 0.0
C2045 C 0.77652 0.38009 0.11013 0.0
C2046 C 0.7905 0.36393 0.14827 0.0
C2047 C 0.76794 0.369 0.15928 0.0
C2048 C 0.75011 0.38086 0.14604 0.0
C2049 C 0.75453 0.38674 0.12162 0.0
C2050 C 0.74739 0.32384 0.20537 0.0
C2051 C 0.76165 0.32952 0.22503 0.0
C2052 C 0.74755 0.33835 0.18461 0.0
C2053 C 0.76228 0.35841 0.18318 0.0
C2054 C 0.7751 0.36511 0.20344 0.0
C2055 C 0.77451 0.35092 0.22442 0.0
H2056 H 0.91678 0.56278 0.34702 0.0
H2057 H 0.96848 0.52472 0.30126 0.0
H2058 H 0.93515 0.54552 0.38287 0.0
H2059 H 0.9858 0.50609 0.33689 0.0
H2060 H 0.02636 0.49663 0.40801 0.0
H2061 H 0.00913 0.51226 0.37059 0.0
H2062 H 0.93794 0.50979 0.40472 0.0
H2063 H 0.95585 0.49571 0.44243 0.0
C2064 C 0.93202 0.55064 0.34465 0.0
C2065 C 0.94108 0.54495 0.32138 0.0
C2066 C 0.94237 0.54046 0.36517 0.0
C2067 C 0.96171 0.52401 0.36281 0.0
C2068 C 0.97108 0.51879 0.33946 0.0
C2069 C 0.96104 0.52938 0.31898 0.0
C2070 C 0.00701 0.49899 0.40706 0.0
C2071 C 0.99223 0.49489 0.42763 0.0
C2072 C 0.99708 0.50795 0.38575 0.0
C2073 C 0.97213 0.51259 0.38467 0.0
C2074 C 0.95728 0.50708 0.40507 0.0
C2075 C 0.96734 0.49865 0.42648 0.0
H2076 H 0.7686 0.66348 0.61047 0.0
H2077 H 0.80224 0.72568 0.57922 0.0
H2078 H 0.77277 0.67982 0.65123 0.0
H2079 H 0.808 0.74139 0.61945 0.0
H2080 H 0.79278 0.77928 0.69019 0.0
H2081 H 0.79095 0.76063 0.65094 0.0
H2082 H 0.79187 0.69111 0.68574 0.0
H2083 H 0.79229 0.71025 0.72544 0.0
C2084 C 0.77757 0.68032 0.61233 0.0
C2085 C 0.7852 0.69314 0.59141 0.0
C2086 C 0.77998 0.68987 0.63587 0.0
C2087 C 0.7904 0.71247 0.63934 0.0
C2088 C 0.79908 0.72449 0.6182 0.0
C2089 C 0.79618 0.71522 0.59484 0.0
C2090 C 0.79282 0.75998 0.6896 0.0
C2091 C 0.7929 0.74646 0.71134 0.0
C2092 C 0.79193 0.74906 0.66674 0.0
C2093 C 0.79154 0.72396 0.66437 0.0
C2094 C 0.79187 0.71038 0.68624 0.0
C2095 C 0.79237 0.72141 0.70924 0.0
H2096 H 0.6838 0.66042 0.50566 0.0
H2097 H 0.72725 0.6008 0.53012 0.0
H2098 H 0.64889 0.63516 0.50463 0.0
H2099 H 0.69182 0.57509 0.52886 0.0
H2100 H 0.61496 0.54341 0.54773 0.0
H2101 H 0.65239 0.56597 0.54771 0.0
H2102 H 0.63054 0.60415 0.48328 0.0
H2103 H 0.59321 0.58188 0.48349 0.0
C2104 C 0.68608 0.64182 0.51077 0.0
C2105 C 0.70878 0.63293 0.51798 0.0
C2106 C 0.66582 0.62713 0.50998 0.0
C2107 C 0.66712 0.60275 0.51647 0.0
C2108 C 0.68979 0.59372 0.52383 0.0
C2109 C 0.71028 0.6085 0.52443 0.0
C2110 C 0.61823 0.5564 0.53335 0.0
C2111 C 0.60075 0.5606 0.51557 0.0
C2112 C 0.63988 0.56941 0.53331 0.0
C2113 C 0.64481 0.5873 0.51564 0.0
C2114 C 0.62754 0.59098 0.49754 0.0
C2115 C 0.60602 0.57794 0.49751 0.0
H2116 H 0.18485 0.9026 0.57274 0.0
H2117 H 0.21356 0.96828 0.54335 0.0
H2118 H 0.14835 0.92375 0.58636 0.0
H2119 H 0.17652 0.9893 0.55546 0.0
H2120 H 0.11143 0.02605 0.58414 0.0
H2121 H 0.15003 0.0047 0.58539 0.0
H2122 H 0.11451 0.93926 0.568 0.0
H2123 H 0.07619 0.96017 0.56815 0.0
C2124 C 0.18322 0.92158 0.56909 0.0
C2125 C 0.20175 0.93381 0.5567 0.0
C2126 C 0.16232 0.93372 0.57685 0.0
C2127 C 0.15926 0.95823 0.5718 0.0
C2128 C 0.17829 0.97054 0.56007 0.0
C2129 C 0.19943 0.95847 0.55283 0.0
C2130 C 0.11187 0.00696 0.58132 0.0
C2131 C 0.09084 0.99485 0.57576 0.0
C2132 C 0.13401 0.99476 0.58177 0.0
C2133 C 0.13555 0.97032 0.5763 0.0
C2134 C 0.11416 0.95798 0.57255 0.0
C2135 C 0.09206 0.97007 0.5725 0.0
H2136 H 0.36254 0.99624 0.77566 0.0
H2137 H 0.42517 0.96077 0.80527 0.0
H2138 H 0.33869 0.96109 0.78509 0.0
H2139 H 0.40136 0.92557 0.81424 0.0
H2140 H 0.34632 0.87456 0.84779 0.0
H2141 H 0.36804 0.91183 0.84116 0.0
H2142 H 0.336 0.9203 0.77093 0.0
H2143 H 0.31387 0.88374 0.7779 0.0
C2144 C 0.37129 0.98093 0.784 0.0
C2145 C 0.39583 0.98133 0.78957 0.0
C2146 C 0.35761 0.96078 0.78939 0.0
C2147 C 0.36814 0.9406 0.80048 0.0
C2148 C 0.39265 0.94098 0.80604 0.0
C2149 C 0.40635 0.96109 0.80063 0.0
C2150 C 0.34371 0.88462 0.83114 0.0
C2151 C 0.32863 0.87612 0.81327 0.0
C2152 C 0.35629 0.90579 0.82722 0.0
C2153 C 0.35384 0.9189 0.80544 0.0
C2154 C 0.33816 0.91072 0.78795 0.0
C2155 C 0.3257 0.8896 0.79183 0.0
H2156 H 0.36835 0.1628 0.02317 0.0
H2157 H 0.3369 0.09358 0.03388 0.0
H2158 H 0.40874 0.14452 0.02391 0.0
H2159 H 0.37715 0.07529 0.03466 0.0
H2160 H 0.47901 0.10517 0.04818 0.0
H2161 H 0.43886 0.12423 0.04902 0.0
H2162 H 0.41153 0.06582 0.00835 0.0
H2163 H 0.45138 0.0469 0.00755 0.0
C2164 C 0.36998 0.14368 0.02582 0.0
C2165 C 0.3491 0.12978 0.02844 0.0
C2166 C 0.39328 0.13314 0.02636 0.0
C2167 C 0.39658 0.10825 0.02925 0.0
C2168 C 0.37563 0.09442 0.03206 0.0
C2169 C 0.35238 0.10499 0.03178 0.0
C2170 C 0.46444 0.09636 0.03944 0.0
C2171 C 0.46872 0.07434 0.02786 0.0
C2172 C 0.44131 0.1074 0.0398 0.0
C2173 C 0.42155 0.09667 0.02885 0.0
C2174 C 0.42593 0.07463 0.01734 0.0
C2175 C 0.44902 0.06376 0.01676 0.0
H2176 H 0.63744 0.60803 0.80218 0.0
H2177 H 0.68906 0.56867 0.84466 0.0
H2178 H 0.6633 0.64258 0.80159 0.0
H2179 H 0.7142 0.60373 0.84601 0.0
H2180 H 0.76794 0.65835 0.81929 0.0
H2181 H 0.74069 0.62484 0.82223 0.0
H2182 H 0.67975 0.67409 0.82058 0.0
H2183 H 0.70749 0.70722 0.81564 0.0
C2184 C 0.65407 0.60709 0.812 0.0
C2185 C 0.66141 0.58579 0.82336 0.0
C2186 C 0.66892 0.62694 0.8118 0.0
C2187 C 0.69113 0.62606 0.82356 0.0
C2188 C 0.69769 0.60497 0.83608 0.0
C2189 C 0.68318 0.58493 0.8356 0.0
C2190 C 0.74868 0.66178 0.8195 0.0
C2191 C 0.73965 0.68511 0.81713 0.0
C2192 C 0.73298 0.64267 0.82146 0.0
C2193 C 0.70783 0.64658 0.82184 0.0
C2194 C 0.69891 0.67019 0.81986 0.0
C2195 C 0.7147 0.68922 0.81716 0.0
H2196 H 0.85758 0.39156 0.99724 0.0
H2197 H 0.81704 0.45412 0.02072 0.0
H2198 H 0.8914 0.41662 0.98528 0.0
H2199 H 0.85079 0.47909 0.0084 0.0
H2200 H 0.92841 0.50495 0.02087 0.0
H2201 H 0.891 0.48328 0.02572 0.0
H2202 H 0.90528 0.44905 0.95682 0.0
H2203 H 0.94324 0.47056 0.95225 0.0
C2204 C 0.85576 0.41065 0.99962 0.0
C2205 C 0.83474 0.42079 0.0103 0.0
C2206 C 0.87506 0.42501 0.99254 0.0
C2207 C 0.87372 0.44976 0.99604 0.0
C2208 C 0.85238 0.46001 0.00578 0.0
C2209 C 0.83306 0.44568 0.01281 0.0
C2210 C 0.92352 0.49285 0.00673 0.0
C2211 C 0.93881 0.48915 0.98633 0.0
C2212 C 0.90197 0.48067 0.00936 0.0
C2213 C 0.89527 0.46447 0.99166 0.0
C2214 C 0.91014 0.46134 0.97081 0.0
C2215 C 0.93171 0.47372 0.9681 0.0
H2216 H 0.33639 0.09605 0.76219 0.0
H2217 H 0.4035 0.13134 0.74596 0.0
H2218 H 0.31452 0.1338 0.75685 0.0
H2219 H 0.38176 0.16874 0.73908 0.0
H2220 H 0.34214 0.23387 0.77011 0.0
H2221 H 0.36338 0.19621 0.76524 0.0
H2222 H 0.30073 0.16632 0.73289 0.0
H2223 H 0.27894 0.2041 0.7389 0.0
C2224 C 0.34634 0.11179 0.7568 0.0
C2225 C 0.37157 0.11101 0.75491 0.0
C2226 C 0.33384 0.13342 0.75358 0.0
C2227 C 0.34641 0.15449 0.74796 0.0
C2228 C 0.37155 0.15308 0.74416 0.0
C2229 C 0.38402 0.13164 0.74794 0.0
C2230 C 0.33294 0.2194 0.76165 0.0
C2231 C 0.3088 0.22192 0.75504 0.0
C2232 C 0.34522 0.19775 0.75865 0.0
C2233 C 0.33383 0.17811 0.74861 0.0
C2234 C 0.30995 0.18094 0.74101 0.0
C2235 C 0.29752 0.20262 0.74431 0.0
H2236 H 0.2245 0.97746 0.28668 0.0
H2237 H 0.15902 0.93809 0.27874 0.0
H2238 H 0.24826 0.94217 0.27442 0.0
H2239 H 0.1826 0.90309 0.26661 0.0
H2240 H 0.22949 0.84767 0.23135 0.0
H2241 H 0.21095 0.8873 0.23423 0.0
H2242 H 0.25441 0.9023 0.29583 0.0
H2243 H 0.27313 0.86278 0.29293 0.0
C2244 C 0.21522 0.96141 0.28195 0.0
C2245 C 0.18999 0.96035 0.28386 0.0
C2246 C 0.22877 0.94127 0.27504 0.0
C2247 C 0.21722 0.91998 0.26961 0.0
C2248 C 0.19196 0.91936 0.27042 0.0
C2249 C 0.17847 0.93933 0.27757 0.0
C2250 C 0.23534 0.85954 0.2453 0.0
C2251 C 0.25251 0.85202 0.26214 0.0
C2252 C 0.22472 0.88218 0.24693 0.0
C2253 C 0.23118 0.89773 0.26532 0.0
C2254 C 0.24928 0.89072 0.28134 0.0
C2255 C 0.25982 0.86802 0.27979 0.0
H2256 H 0.51967 0.34211 0.46593 0.0
H2257 H 0.5386 0.3725 0.39588 0.0
H2258 H 0.52227 0.38141 0.48425 0.0
H2259 H 0.54174 0.41179 0.41415 0.0
H2260 H 0.52676 0.48488 0.45088 0.0
H2261 H 0.52339 0.44598 0.43165 0.0
H2262 H 0.5475 0.41137 0.49726 0.0
H2263 H 0.55036 0.45008 0.51645 0.0
C2264 C 0.52435 0.35716 0.45433 0.0
C2265 C 0.52885 0.35374 0.42925 0.0
C2266 C 0.52611 0.37992 0.46495 0.0
C2267 C 0.53246 0.40039 0.45099 0.0
C2268 C 0.53657 0.39694 0.42579 0.0
C2269 C 0.53484 0.37415 0.41519 0.0
C2270 C 0.53159 0.46901 0.46117 0.0
C2271 C 0.539 0.47106 0.48536 0.0
C2272 C 0.52967 0.44645 0.45006 0.0
C2273 C 0.53498 0.42489 0.46266 0.0
C2274 C 0.54272 0.4271 0.48676 0.0
C2275 C 0.54465 0.44959 0.49782 0.0
H2276 H 0.43075 0.82165 0.13221 0.0
H2277 H 0.46191 0.78043 0.19066 0.0
H2278 H 0.391 0.81813 0.1518 0.0
H2279 H 0.42211 0.77665 0.21001 0.0
H2280 H 0.35793 0.8068 0.25359 0.0
H2281 H 0.3959 0.80692 0.23051 0.0
H2282 H 0.35862 0.79022 0.16526 0.0
H2283 H 0.32035 0.79033 0.18833 0.0
C2284 C 0.42903 0.81138 0.14895 0.0
C2285 C 0.44946 0.80157 0.16009 0.0
C2286 C 0.40627 0.80935 0.16013 0.0
C2287 C 0.40359 0.79751 0.18263 0.0
C2288 C 0.42379 0.78634 0.19292 0.0
C2289 C 0.44652 0.78833 0.18174 0.0
C2290 C 0.35774 0.80338 0.23428 0.0
C2291 C 0.33615 0.79854 0.22278 0.0
C2292 C 0.37954 0.80318 0.22112 0.0
C2293 C 0.38022 0.79817 0.19619 0.0
C2294 C 0.35857 0.79412 0.18447 0.0
C2295 C 0.3367 0.79425 0.19767 0.0
H2296 H 0.98635 0.71643 0.95427 0.0
H2297 H 0.06168 0.71398 0.93314 0.0
H2298 H 0.98931 0.67591 0.9705 0.0
H2299 H 0.06481 0.67307 0.95 0.0
H2300 H 0.06361 0.61146 0.01085 0.0
H2301 H 0.06249 0.65093 0.99105 0.0
H2302 H 0.99544 0.63362 0.95847 0.0
H2303 H 0.99678 0.59409 0.97787 0.0
C2304 C 1.00363 0.7072 0.95288 0.0
C2305 C 0.02374 0.71881 0.94215 0.0
C2306 C 1.0053 0.68372 0.96222 0.0
C2307 C 0.0273 0.67082 0.96177 0.0
C2308 C 0.04752 0.68229 0.9509 0.0
C2309 C 0.0457 0.70577 0.94098 0.0
C2310 C 0.04862 0.61598 0.99941 0.0
C2311 C 0.03022 0.59929 0.99621 0.0
C2312 C 0.04807 0.6387 0.98785 0.0
C2313 C 0.02885 0.64585 0.973 0.0
C2314 C 0.0105 0.62911 0.96981 0.0
C2315 C 0.01129 0.60625 0.98097 0.0
H2316 H 0.09475 0.32166 0.63921 0.0
H2317 H 0.04783 0.30491 0.70086 0.0
H2318 H 0.12924 0.30738 0.66157 0.0
H2319 H 0.08257 0.29139 0.72365 0.0
H2320 H 0.14537 0.24246 0.74567 0.0
H2321 H 0.11063 0.25837 0.72419 0.0
H2322 H 0.15442 0.31509 0.69402 0.0
H2323 H 0.18914 0.2984 0.71389 0.0
C2324 C 0.09185 0.31548 0.65776 0.0
C2325 C 0.06851 0.31435 0.6682 0.0
C2326 C 0.11167 0.30727 0.67063 0.0
C2327 C 0.10867 0.29801 0.69437 0.0
C2328 C 0.08545 0.2979 0.70521 0.0
C2329 C 0.06557 0.3059 0.69224 0.0
C2330 C 0.1476 0.25813 0.73421 0.0
C2331 C 0.17005 0.2692 0.73174 0.0
C2332 C 0.12762 0.26748 0.72217 0.0
C2333 C 0.12968 0.28813 0.70749 0.0
C2334 C 0.15217 0.29906 0.70497 0.0
C2335 C 0.17209 0.28962 0.71674 0.0
H2336 H 0.50502 0.75423 0.10922 0.0
H2337 H 0.5601 0.7815 0.05961 0.0
H2338 H 0.51268 0.71426 0.09395 0.0
H2339 H 0.56745 0.74143 0.04417 0.0
H2340 H 0.59595 0.66298 0.05385 0.0
H2341 H 0.58574 0.70468 0.06214 0.0
H2342 H 0.51008 0.68908 0.05782 0.0
H2343 H 0.52024 0.64759 0.04943 0.0
C2344 C 0.51846 0.7518 0.09477 0.0
C2345 C 0.53211 0.77106 0.08583 0.0
C2346 C 0.52277 0.72889 0.08594 0.0
C2347 C 0.54082 0.72474 0.06803 0.0
C2348 C 0.55368 0.74411 0.05824 0.0
C2349 C 0.54931 0.76707 0.06699 0.0
C2350 C 0.57719 0.66856 0.05436 0.0
C2351 C 0.55892 0.65194 0.05139 0.0
C2352 C 0.57133 0.69241 0.05902 0.0
C2353 C 0.54709 0.70006 0.06076 0.0
C2354 C 0.52888 0.68359 0.05699 0.0
C2355 C 0.53473 0.65981 0.05231 0.0
H2356 H 0.11869 0.78989 0.90391 0.0
H2357 H 0.08586 0.77179 0.83678 0.0
H2358 H 0.15827 0.79 0.88329 0.0
H2359 H 0.1252 0.77255 0.81592 0.0
H2360 H 0.20172 0.75573 0.78743 0.0
H2361 H 0.16275 0.75423 0.80884 0.0
H2362 H 0.18463 0.81011 0.85626 0.0
H2363 H 0.22395 0.81104 0.83517 0.0
C2364 C 0.11986 0.78587 0.88473 0.0
C2365 C 0.09883 0.78071 0.87218 0.0
C2366 C 0.1427 0.78616 0.87272 0.0
C2367 C 0.14544 0.78137 0.84764 0.0
C2368 C 0.12432 0.776 0.83521 0.0
C2369 C 0.10152 0.77566 0.84723 0.0
C2370 C 0.19829 0.76776 0.80241 0.0
C2371 C 0.21627 0.78356 0.80937 0.0
C2372 C 0.17567 0.76701 0.81473 0.0
C2373 C 0.16999 0.78208 0.83452 0.0
C2374 C 0.18806 0.79789 0.84147 0.0
C2375 C 0.21074 0.79859 0.82917 0.0
H2376 H 0.02635 0.37742 0.6491 0.0
H2377 H 0.95321 0.3732 0.62555 0.0
H2378 H 0.02894 0.41802 0.63241 0.0
H2379 H 0.95543 0.41392 0.60917 0.0
H2380 H 0.98973 0.45922 0.54589 0.0
H2381 H 0.97945 0.42606 0.57274 0.0
H2382 H 0.01384 0.46057 0.63195 0.0
H2383 H 0.02437 0.49398 0.60485 0.0
C2384 C 0.01061 0.38563 0.64108 0.0
C2385 C 0.98961 0.3726 0.63846 0.0
C2386 C 0.012 0.4088 0.63164 0.0
C2387 C 0.99242 0.41898 0.61934 0.0
C2388 C 0.97083 0.40637 0.61836 0.0
C2389 C 0.96949 0.38323 0.62777 0.0
C2390 C 0.99483 0.45993 0.56471 0.0
C2391 C 0.00806 0.47903 0.57323 0.0
C2392 C 0.98872 0.44104 0.58017 0.0
C2393 C 0.99581 0.44081 0.60444 0.0
C2394 C 0.00824 0.46034 0.61327 0.0
C2395 C 0.0142 0.47941 0.5978 0.0
H2396 H 0.4377 0.32254 0.38987 0.0
H2397 H 0.47239 0.26149 0.35637 0.0
H2398 H 0.40352 0.31882 0.36323 0.0
H2399 H 0.4375 0.25724 0.33008 0.0
H2400 H 0.35308 0.24452 0.31334 0.0
H2401 H 0.3905 0.2475 0.33595 0.0
H2402 H 0.39401 0.32222 0.31735 0.0
H2403 H 0.35726 0.31914 0.29419 0.0
C2404 C 0.43817 0.30835 0.37669 0.0
C2405 C 0.45817 0.29247 0.37533 0.0
C2406 C 0.41843 0.30622 0.36132 0.0
C2407 C 0.41744 0.28768 0.34436 0.0
C2408 C 0.43742 0.27171 0.34291 0.0
C2409 C 0.4576 0.27428 0.35788 0.0
C2410 C 0.36203 0.26151 0.31368 0.0
C2411 C 0.35194 0.28151 0.30158 0.0
C2412 C 0.38359 0.26322 0.3267 0.0
C2413 C 0.39551 0.28514 0.32869 0.0
C2414 C 0.38549 0.30504 0.31643 0.0
C2415 C 0.36435 0.30321 0.30294 0.0
H2416 H 0.41322 0.52217 0.34783 0.0
H2417 H 0.38383 0.59381 0.34551 0.0
H2418 H 0.42605 0.52829 0.38917 0.0
H2419 H 0.39751 0.60038 0.38677 0.0
H2420 H 0.45119 0.54536 0.4614 0.0
H2421 H 0.41742 0.54221 0.43453 0.0
H2422 H 0.44552 0.60018 0.39053 0.0
H2423 H 0.47992 0.60276 0.41681 0.0
C2424 C 0.40842 0.53877 0.35675 0.0
C2425 C 0.39767 0.55755 0.34382 0.0
C2426 C 0.41571 0.54231 0.38036 0.0
C2427 C 0.41296 0.56491 0.39088 0.0
C2428 C 0.39973 0.58284 0.37892 0.0
C2429 C 0.39184 0.57905 0.35547 0.0
C2430 C 0.45022 0.55747 0.44604 0.0
C2431 C 0.46875 0.57373 0.44066 0.0
C2432 C 0.4306 0.55595 0.43101 0.0
C2433 C 0.42895 0.57094 0.4106 0.0
C2434 C 0.44625 0.58864 0.40643 0.0
C2435 C 0.46606 0.58998 0.42132 0.0
H2436 H 0.26616 0.73719 0.02668 0.0
H2437 H 0.28609 0.67054 0.06163 0.0
H2438 H 0.25803 0.75487 0.06633 0.0
H2439 H 0.27703 0.68781 0.10105 0.0
H2440 H 0.28062 0.73103 0.16867 0.0
H2441 H 0.29072 0.71548 0.12895 0.0
H2442 H 0.22934 0.75314 0.0995 0.0
H2443 H 0.22019 0.77027 0.13917 0.0
C2444 C 0.26884 0.72633 0.04282 0.0
C2445 C 0.27683 0.7025 0.04104 0.0
C2446 C 0.26397 0.73639 0.06552 0.0
C2447 C 0.26674 0.72273 0.08687 0.0
C2448 C 0.27507 0.69899 0.08502 0.0
C2449 C 0.28023 0.68905 0.06238 0.0
C2450 C 0.26943 0.7364 0.15376 0.0
C2451 C 0.2497 0.75219 0.15719 0.0
C2452 C 0.27505 0.72713 0.13095 0.0
C2453 C 0.26085 0.73303 0.111 0.0
C2454 C 0.24088 0.74852 0.11442 0.0
C2455 C 0.23541 0.75807 0.13726 0.0
H2456 H 0.17607 0.50017 0.8825 0.0
H2457 H 0.11993 0.55133 0.8649 0.0
H2458 H 0.15965 0.49749 0.92439 0.0
H2459 H 0.10387 0.54867 0.90644 0.0
H2460 H 0.06136 0.49708 0.95656 0.0
H2461 H 0.08958 0.49823 0.92188 0.0
H2462 H 0.14054 0.53579 0.96423 0.0
H2463 H 0.11235 0.53469 0.99932 0.0
C2464 C 0.16083 0.51144 0.88782 0.0
C2465 C 0.14894 0.52566 0.87054 0.0
C2466 C 0.1515 0.50986 0.91164 0.0
C2467 C 0.13049 0.52269 0.91817 0.0
C2468 C 0.12007 0.53856 0.90152 0.0
C2469 C 0.12922 0.54004 0.87784 0.0
C2470 C 0.07881 0.50502 0.95875 0.0
C2471 C 0.08451 0.51615 0.98045 0.0
C2472 C 0.09491 0.50559 0.93898 0.0
C2473 C 0.11692 0.51723 0.94065 0.0
C2474 C 0.12362 0.52665 0.96281 0.0
C2475 C 0.10748 0.52603 0.98273 0.0
H2476 H 0.25355 0.38166 0.5943 0.0
H2477 H 0.32485 0.35011 0.58855 0.0
H2478 H 0.24871 0.36451 0.6356 0.0
H2479 H 0.32012 0.33333 0.62921 0.0
H2480 H 0.31477 0.32458 0.71155 0.0
H2481 H 0.31768 0.34434 0.67185 0.0
H2482 H 0.2447 0.32471 0.65765 0.0
H2483 H 0.24179 0.30476 0.69756 0.0
C2484 C 0.26828 0.37136 0.60183 0.0
C2485 C 0.2896 0.36741 0.58781 0.0
C2486 C 0.26544 0.3613 0.6255 0.0
C2487 C 0.28403 0.34742 0.63604 0.0
C2488 C 0.30544 0.34402 0.62211 0.0
C2489 C 0.3081 0.35365 0.59853 0.0
C2490 C 0.29928 0.32438 0.70003 0.0
C2491 C 0.27811 0.31275 0.70794 0.0
C2492 C 0.30097 0.33575 0.67709 0.0
C2493 C 0.28147 0.33622 0.6612 0.0
C2494 C 0.26008 0.32499 0.66928 0.0
C2495 C 0.25849 0.31332 0.69218 0.0
H2496 H 0.45251 0.58392 0.22061 0.0
H2497 H 0.49643 0.52513 0.24676 0.0
H2498 H 0.47604 0.58446 0.18262 0.0
H2499 H 0.51996 0.5257 0.20855 0.0
H2500 H 0.51488 0.5104 0.12415 0.0
H2501 H 0.50373 0.51432 0.16702 0.0
H2502 H 0.51813 0.58971 0.16279 0.0
H2503 H 0.52946 0.58586 0.11975 0.0
C2504 C 0.4675 0.57143 0.21841 0.0
C2505 C 0.47243 0.55423 0.23642 0.0
C2506 C 0.48108 0.5719 0.19678 0.0
C2507 C 0.49964 0.55502 0.19273 0.0
C2508 C 0.50561 0.5388 0.21132 0.0
C2509 C 0.49221 0.53853 0.23313 0.0
C2510 C 0.51596 0.52776 0.13243 0.0
C2511 C 0.52272 0.54788 0.11863 0.0
C2512 C 0.50986 0.52993 0.157 0.0
C2513 C 0.51018 0.5523 0.16809 0.0
C2514 C 0.51778 0.5723 0.15454 0.0
C2515 C 0.5242 0.57007 0.12999 0.0
H2516 H 0.33866 0.64977 0.91683 0.0
H2517 H 0.26273 0.66735 0.92124 0.0
H2518 H 0.34146 0.66847 0.87624 0.0
H2519 H 0.26526 0.68502 0.88043 0.0
H2520 H 0.2783 0.70531 0.80107 0.0
H2521 H 0.28161 0.67425 0.83232 0.0
H2522 H 0.3292 0.71843 0.87205 0.0
H2523 H 0.32546 0.74997 0.84115 0.0
C2524 C 0.32242 0.65659 0.90855 0.0
C2525 C 0.30046 0.65715 0.92177 0.0
C2526 C 0.32406 0.66733 0.88555 0.0
C2527 C 0.30356 0.67801 0.87545 0.0
C2528 C 0.2812 0.6766 0.88786 0.0
C2529 C 0.27973 0.66654 0.91108 0.0
C2530 C 0.28992 0.70823 0.81618 0.0
C2531 C 0.30143 0.73015 0.81891 0.0
C2532 C 0.29183 0.69041 0.83393 0.0
C2533 C 0.30576 0.69405 0.85428 0.0
C2534 C 0.31863 0.71524 0.85622 0.0
C2535 C 0.31631 0.73329 0.83873 0.0
H2536 H 0.14259 0.52244 0.72963 0.0
H2537 H 0.07366 0.5472 0.75892 0.0
H2538 H 0.12913 0.53057 0.68875 0.0
H2539 H 0.05985 0.5545 0.71789 0.0
H2540 H 0.05333 0.59189 0.64472 0.0
H2541 H 0.06714 0.58256 0.6854 0.0
H2542 H 0.10281 0.5187 0.65836 0.0
H2543 H 0.09042 0.52883 0.61766 0.0
C2544 C 0.12435 0.52907 0.72733 0.0
C2545 C 0.10923 0.5343 0.74752 0.0
C2546 C 0.11662 0.53375 0.70386 0.0
C2547 C 0.09351 0.54347 0.70006 0.0
C2548 C 0.07798 0.54758 0.72022 0.0
C2549 C 0.08579 0.54315 0.74372 0.0
C2550 C 0.06446 0.57611 0.6474 0.0
C2551 C 0.07056 0.56102 0.62795 0.0
C2552 C 0.07206 0.57053 0.67078 0.0
C2553 C 0.08582 0.5497 0.67519 0.0
C2554 C 0.09235 0.53493 0.65562 0.0
C2555 C 0.08496 0.54061 0.63228 0.0
H2556 H 0.29652 0.34656 0.46791 0.0
H2557 H 0.27461 0.41344 0.43534 0.0
H2558 H 0.29364 0.32706 0.42876 0.0
H2559 H 0.27109 0.39392 0.39619 0.0
H2560 H 0.26497 0.29183 0.36137 0.0
H2561 H 0.26774 0.31226 0.39998 0.0
H2562 H 0.28972 0.37631 0.36173 0.0
H2563 H 0.28631 0.35591 0.32305 0.0
C2564 C 0.29112 0.3572 0.45238 0.0
C2565 C 0.28588 0.38173 0.45508 0.0
C2566 C 0.2892 0.34589 0.42975 0.0
C2567 C 0.28187 0.3586 0.4088 0.0
C2568 C 0.27703 0.38329 0.41149 0.0
C2569 C 0.27898 0.3946 0.43415 0.0
C2570 C 0.27015 0.31036 0.36108 0.0
C2571 C 0.27522 0.32208 0.33874 0.0
C2572 C 0.27204 0.32213 0.38345 0.0
C2573 C 0.2792 0.34617 0.38453 0.0
C2574 C 0.28389 0.35799 0.36208 0.0
C2575 C 0.28196 0.34619 0.33968 0.0
H2576 H 0.34247 0.4531 0.54975 0.0
H2577 H 0.37735 0.42198 0.48653 0.0
H2578 H 0.37792 0.47829 0.55516 0.0
H2579 H 0.41209 0.44746 0.49143 0.0
H2580 H 0.45864 0.5148 0.4925 0.0
H2581 H 0.42156 0.49258 0.48933 0.0
H2582 H 0.4254 0.47168 0.56469 0.0
H2583 H 0.46328 0.49369 0.56777 0.0
C2584 C 0.35743 0.45191 0.53673 0.0
C2585 C 0.35675 0.4355 0.51754 0.0
C2586 C 0.37792 0.4662 0.53999 0.0
C2587 C 0.3981 0.46502 0.52377 0.0
C2588 C 0.39702 0.44907 0.50427 0.0
C2589 C 0.37696 0.43441 0.50143 0.0
C2590 C 0.45158 0.50582 0.5086 0.0
C2591 C 0.46421 0.50641 0.53047 0.0
C2592 C 0.43023 0.49283 0.50669 0.0
C2593 C 0.42022 0.48018 0.52671 0.0
C2594 C 0.43235 0.48129 0.54888 0.0
C2595 C 0.45416 0.49392 0.55065 0.0
H2596 H 0.84672 0.09124 0.51517 0.0
H2597 H 0.88342 0.15621 0.53102 0.0
H2598 H 0.88439 0.069 0.51733 0.0
H2599 H 0.92109 0.13374 0.53508 0.0
H2600 H 0.98932 0.09362 0.51347 0.0
H2601 H 0.95094 0.11528 0.51143 0.0
H2602 H 0.91422 0.05317 0.5404 0.0
H2603 H 0.95208 0.03128 0.54051 0.0
C2604 C 0.86277 0.10061 0.52 0.0
C2605 C 0.86224 0.1254 0.52293 0.0
C2606 C 0.88446 0.08785 0.52125 0.0
C2607 C 0.90601 0.09954 0.52611 0.0
C2608 C 0.90507 0.12421 0.53055 0.0
C2609 C 0.88344 0.13706 0.52865 0.0
C2610 C 0.97289 0.08455 0.5188 0.0
C2611 C 0.97361 0.06072 0.52678 0.0
C2612 C 0.95092 0.09704 0.51807 0.0
C2613 C 0.92935 0.08611 0.52598 0.0
C2614 C 0.93024 0.06213 0.53368 0.0
C2615 C 0.95203 0.04951 0.53375 0.0
H2616 H 0.69755 0.06512 0.27288 0.0
H2617 H 0.65345 0.11252 0.31745 0.0
H2618 H 0.71961 0.09866 0.2565 0.0
H2619 H 0.67672 0.14626 0.30212 0.0
H2620 H 0.70043 0.20401 0.24959 0.0
H2621 H 0.68003 0.16925 0.26682 0.0
H2622 H 0.74696 0.12867 0.26094 0.0
H2623 H 0.76657 0.16331 0.24223 0.0
C2624 C 0.69301 0.08267 0.2798 0.0
C2625 C 0.67353 0.08614 0.29636 0.0
C2626 C 0.70579 0.10202 0.27036 0.0
C2627 C 0.69977 0.12535 0.27759 0.0
C2628 C 0.68138 0.12864 0.29549 0.0
C2629 C 0.66823 0.10928 0.30459 0.0
C2630 C 0.71041 0.18736 0.25147 0.0
C2631 C 0.73478 0.18597 0.24427 0.0
C2632 C 0.69896 0.16758 0.26178 0.0
C2633 C 0.71188 0.14613 0.26573 0.0
C2634 C 0.73628 0.14471 0.25795 0.0
C2635 C 0.74756 0.16442 0.24712 0.0
H2636 H 0.72589 0.96822 0.04898 0.0
H2637 H 0.69939 0.91522 1.00111 0.0
H2638 H 0.68683 0.98858 0.04926 0.0
H2639 H 0.66086 0.93629 0.99964 0.0
H2640 H 0.58611 0.96947 0.0108 0.0
H2641 H 0.62433 0.94776 0.01293 0.0
H2642 H 0.65908 0.01268 0.03343 0.0
H2643 H 0.62044 0.03358 0.03301 0.0
C2644 C 0.71171 0.96095 0.03835 0.0
C2645 C 0.71596 0.93989 0.02518 0.0
C2646 C 0.68909 0.97288 0.0382 0.0
C2647 C 0.6699 0.96462 0.02429 0.0
C2648 C 0.67441 0.94343 0.01109 0.0
C2649 C 0.69683 0.93121 0.01177 0.0
C2650 C 0.60196 0.97908 0.01577 0.0
C2651 C 0.59996 1.00339 0.0217 0.0
C2652 C 0.62423 0.96659 0.01686 0.0
C2653 C 0.64565 0.97802 0.02337 0.0
C2654 C 0.64347 1.00257 0.02891 0.0
C2655 C 0.62109 0.01486 0.0284 0.0
H2656 H 0.39976 0.46242 0.3058 0.0
H2657 H 0.37669 0.50165 0.24223 0.0
H2658 H 0.37827 0.42771 0.29254 0.0
H2659 H 0.35595 0.46666 0.22851 0.0
H2660 H 0.29861 0.40763 0.22883 0.0
H2661 H 0.32142 0.44306 0.2384 0.0
H2662 H 0.38035 0.39786 0.26213 0.0
H2663 H 0.35707 0.36273 0.25335 0.0
C2664 C 0.39027 0.46355 0.2889 0.0
C2665 C 0.38987 0.48474 0.2751 0.0
C2666 C 0.3781 0.44363 0.28119 0.0
C2667 C 0.36555 0.4444 0.25936 0.0
C2668 C 0.36521 0.4656 0.24554 0.0
C2669 C 0.37715 0.48561 0.25339 0.0
C2670 C 0.3166 0.40546 0.23569 0.0
C2671 C 0.32611 0.38267 0.24063 0.0
C2672 C 0.32967 0.42564 0.24118 0.0
C2673 C 0.35255 0.42323 0.25138 0.0
C2674 C 0.36252 0.40031 0.25493 0.0
C2675 C 0.34933 0.38024 0.24977 0.0
H2676 H 0.19789 0.64152 0.97191 0.0
H2677 H 0.24936 0.60471 0.01714 0.0
H2678 H 0.16511 0.62238 0.99456 0.0
H2679 H 0.21661 0.5864 0.0403 0.0
H2680 H 0.14879 0.54375 0.06415 0.0
H2681 H 0.18386 0.55917 0.04139 0.0
H2682 H 0.14738 0.62757 0.03426 0.0
H2683 H 0.11225 0.61159 0.05613 0.0
C2684 C 0.20225 0.62913 0.98644 0.0
C2685 C 0.22625 0.62492 0.99286 0.0
C2686 C 0.18345 0.61839 0.99966 0.0
C2687 C 0.18824 0.6034 0.01971 0.0
C2688 C 0.21228 0.59789 0.02503 0.0
C2689 C 0.23108 0.60843 0.01167 0.0
C2690 C 0.14878 0.56227 0.05834 0.0
C2691 C 0.12814 0.57667 0.06196 0.0
C2692 C 0.16868 0.57106 0.04513 0.0
C2693 C 0.16819 0.59445 0.03552 0.0
C2694 C 0.14807 0.60926 0.04074 0.0
C2695 C 0.12818 0.60037 0.05365 0.0
H2696 H 0.65462 0.93463 0.26621 0.0
H2697 H 0.71835 0.97135 0.28702 0.0
H2698 H 0.67613 0.89652 0.26969 0.0
H2699 H 0.73927 0.93356 0.29253 0.0
H2700 H 0.77817 0.86346 0.28154 0.0
H2701 H 0.75768 0.90129 0.27568 0.0
H2702 H 0.69 0.86918 0.29778 0.0
H2703 H 0.71058 0.83059 0.30164 0.0
C2704 C 0.67333 0.93448 0.27131 0.0
C2705 C 0.68494 0.95584 0.2761 0.0
C2706 C 0.68556 0.91265 0.27376 0.0
C2707 C 0.70943 0.91175 0.28179 0.0
C2708 C 0.72112 0.93335 0.28591 0.0
C2709 C 0.70912 0.95513 0.28274 0.0
C2710 C 0.75897 0.86455 0.28557 0.0
C2711 C 0.74596 0.84412 0.2922 0.0
C2712 C 0.74713 0.88636 0.28221 0.0
C2713 C 0.72204 0.88849 0.28609 0.0
C2714 C 0.70921 0.86819 0.29394 0.0
C2715 C 0.72102 0.84613 0.29661 0.0
H2716 H 0.80524 0.09114 0.74815 0.0
H2717 H 0.84964 0.13069 0.7961 0.0
H2718 H 0.77335 0.12186 0.75257 0.0
H2719 H 0.8184 0.16087 0.80037 0.0
H2720 H 0.76318 0.21061 0.81446 0.0
H2721 H 0.77733 0.16927 0.81616 0.0
H2722 H 0.77188 0.16464 0.73826 0.0
H2723 H 0.75685 0.20564 0.73667 0.0
C2724 C 0.80805 0.10621 0.75977 0.0
C2725 C 0.82995 0.10877 0.77153 0.0
C2726 C 0.78985 0.12364 0.76237 0.0
C2727 C 0.79328 0.14353 0.77707 0.0
C2728 C 0.81492 0.14548 0.7894 0.0
C2729 C 0.83304 0.12834 0.78662 0.0
C2730 C 0.76419 0.20046 0.79785 0.0
C2731 C 0.7597 0.2114 0.77536 0.0
C2732 C 0.77221 0.17683 0.79881 0.0
C2733 C 0.77635 0.16408 0.77726 0.0
C2734 C 0.7689 0.17407 0.75515 0.0
C2735 C 0.76048 0.19763 0.75423 0.0
loop_
_geom_bond_atom_site_label_1
_geom_bond_atom_site_label_2
_geom_bond_distance
_geom_bond_site_symmetry_2
_ccdc_geom_bond_type
Co0 O1 2.216 1_455 S
Co0 O2 2.091 1_455 S
Co0 O4 2.004 . S
Co0 O10 2.021 . S
Co0 O12 2.137 . S
Co0 O13 2.244 . S
O1 Co0 2.216 1_655 S
O1 C8 1.247 . S
O2 Co0 2.091 1_655 S
O2 C8 1.261 . S
C3 O12 1.247 . S
C3 O13 1.272 . S
O4 Co0 2.004 . S
O4 C9 1.259 . S
Co5 O6 2.061 . S
Co5 O11 2.052 . S
Co5 O13 2.135 . S
O6 Co5 2.061 . S
O6 C9 1.235 . S
C7 O10 1.238 . S
C7 O11 1.241 . S
C8 O1 1.247 . S
C8 O2 1.261 . S
C9 O4 1.259 . S
C9 O6 1.235 . S
O10 Co0 2.021 . S
O10 C7 1.238 . S
O11 Co5 2.052 . S
O11 C7 1.241 . S
O12 Co0 2.137 . S
O12 C3 1.247 . S
O13 Co0 2.244 . S
O13 C3 1.272 . S
O13 Co5 2.135 . S
Co14 O15 2.216 . S
Co14 O16 2.091 . S
Co14 O18 2.004 . S
Co14 O24 2.021 . S
Co14 O26 2.137 . S
Co14 O27 2.244 . S
O15 Co14 2.216 . S
O15 C22 1.247 . S
O16 Co14 2.091 . S
O16 C22 1.261 . S
C17 O26 1.247 . S
C17 O27 1.272 . S
O18 Co14 2.004 . S
O18 C23 1.259 . S
Co19 O20 2.061 1_455 S
Co19 O25 2.052 . S
Co19 O27 2.135 . S
O20 Co19 2.061 1_655 S
O20 C23 1.235 1_655 S
C21 O24 1.238 . S
C21 O25 1.241 . S
C22 O15 1.247 . S
C22 O16 1.261 . S
C23 O18 1.259 . S
C23 O20 1.235 1_455 S
O24 Co14 2.021 . S
O24 C21 1.238 . S
O25 Co19 2.052 . S
O25 C21 1.241 . S
O26 Co14 2.137 . S
O26 C17 1.247 . S
O27 Co14 2.244 . S
O27 C17 1.272 . S
O27 Co19 2.135 . S
Co28 O29 2.216 . S
Co28 O30 2.091 . S
Co28 O32 2.004 . S
Co28 O38 2.021 . S
Co28 O40 2.137 . S
Co28 O41 2.244 . S
O29 Co28 2.216 . S
O29 C36 1.247 . S
O30 Co28 2.091 . S
O30 C36 1.261 . S
C31 O40 1.247 . S
C31 O41 1.272 . S
O32 Co28 2.004 . S
O32 C37 1.259 . S
Co33 O34 2.061 . S
Co33 O39 2.052 . S
Co33 O41 2.135 . S
O34 Co33 2.061 . S
O34 C37 1.235 . S
C35 O38 1.238 . S
C35 O39 1.241 . S
C36 O29 1.247 . S
C36 O30 1.261 . S
C37 O32 1.259 . S
C37 O34 1.235 . S
O38 Co28 2.021 . S
O38 C35 1.238 . S
O39 Co33 2.052 . S
O39 C35 1.241 . S
O40 Co28 2.137 . S
O40 C31 1.247 . S
O41 Co28 2.244 . S
O41 C31 1.272 . S
O41 Co33 2.135 . S
Co42 O43 2.216 . S
Co42 O44 2.091 . S
Co42 O46 2.004 . S
Co42 O52 2.021 . S
Co42 O54 2.137 . S
Co42 O55 2.244 . S
O43 Co42 2.216 . S
O43 C50 1.247 . S
O44 Co42 2.091 . S
O44 C50 1.261 . S
C45 O54 1.247 . S
C45 O55 1.272 . S
O46 Co42 2.004 . S
O46 C51 1.259 . S
Co47 O48 2.061 . S
Co47 O53 2.052 . S
Co47 O55 2.135 . S
O48 Co47 2.061 . S
O48 C51 1.235 . S
C49 O52 1.238 . S
C49 O53 1.241 . S
C50 O43 1.247 . S
C50 O44 1.261 . S
C51 O46 1.259 . S
C51 O48 1.235 . S
O52 Co42 2.021 . S
O52 C49 1.238 . S
O53 Co47 2.052 . S
O53 C49 1.241 . S
O54 Co42 2.137 . S
O54 C45 1.247 . S
O55 Co42 2.244 . S
O55 C45 1.272 . S
O55 Co47 2.135 . S
Co56 O57 2.216 1_545 S
Co56 O58 2.091 1_545 S
Co56 O60 2.004 . S
Co56 O66 2.021 . S
Co56 O68 2.137 1_545 S
Co56 O69 2.244 . S
O57 Co56 2.216 1_565 S
O57 C64 1.247 . S
O58 Co56 2.091 1_565 S
O58 C64 1.261 . S
C59 O68 1.247 1_545 S
C59 O69 1.272 . S
O60 Co56 2.004 . S
O60 C65 1.259 . S
Co61 O62 2.061 . S
Co61 O67 2.052 . S
Co61 O69 2.135 . S
O62 Co61 2.061 . S
O62 C65 1.235 . S
C63 O66 1.238 . S
C63 O67 1.241 . S
C64 O57 1.247 . S
C64 O58 1.261 . S
C65 O60 1.259 . S
C65 O62 1.235 . S
O66 Co56 2.021 . S
O66 C63 1.238 . S
O67 Co61 2.052 . S
O67 C63 1.241 . S
O68 Co56 2.137 1_565 S
O68 C59 1.247 1_565 S
O69 Co56 2.244 . S
O69 C59 1.272 . S
O69 Co61 2.135 . S
Co70 O71 2.216 . S
Co70 O72 2.091 . S
Co70 O74 2.004 . S
Co70 O80 2.021 . S
Co70 O82 2.137 . S
Co70 O83 2.244 . S
O71 Co70 2.216 . S
O71 C78 1.247 . S
O72 Co70 2.091 . S
O72 C78 1.261 . S
C73 O82 1.247 . S
C73 O83 1.272 . S
O74 Co70 2.004 . S
O74 C79 1.259 . S
Co75 O76 2.061 . S
Co75 O81 2.052 . S
Co75 O83 2.135 . S
O76 Co75 2.061 . S
O76 C79 1.235 . S
C77 O80 1.238 . S
C77 O81 1.241 . S
C78 O71 1.247 . S
C78 O72 1.261 . S
C79 O74 1.259 . S
C79 O76 1.235 . S
O80 Co70 2.021 . S
O80 C77 1.238 . S
O81 Co75 2.052 . S
O81 C77 1.241 . S
O82 Co70 2.137 . S
O82 C73 1.247 . S
O83 Co70 2.244 . S
O83 C73 1.272 . S
O83 Co75 2.135 . S
Co84 O85 2.216 . S
Co84 O86 2.091 . S
Co84 O88 2.004 . S
Co84 O94 2.021 . S
Co84 O96 2.137 . S
Co84 O97 2.244 . S
O85 Co84 2.216 . S
O85 C92 1.247 . S
O86 Co84 2.091 . S
O86 C92 1.261 . S
C87 O96 1.247 . S
C87 O97 1.272 . S
O88 Co84 2.004 . S
O88 C93 1.259 . S
Co89 O90 2.061 . S
Co89 O95 2.052 . S
Co89 O97 2.135 . S
O90 Co89 2.061 . S
O90 C93 1.235 . S
C91 O94 1.238 . S
C91 O95 1.241 . S
C92 O85 1.247 . S
C92 O86 1.261 . S
C93 O88 1.259 . S
C93 O90 1.235 . S
O94 Co84 2.021 . S
O94 C91 1.238 . S
O95 Co89 2.052 . S
O95 C91 1.241 . S
O96 Co84 2.137 . S
O96 C87 1.247 . S
O97 Co84 2.244 . S
O97 C87 1.272 . S
O97 Co89 2.135 . S
Co98 O99 2.216 . S
Co98 O100 2.091 . S
Co98 O102 2.004 . S
Co98 O108 2.021 . S
Co98 O110 2.137 1_554 S
Co98 O111 2.244 . S
O99 Co98 2.216 . S
O99 C106 1.247 . S
O100 Co98 2.091 . S
O100 C106 1.261 . S
C101 O110 1.247 . S
C101 O111 1.272 1_556 S
O102 Co98 2.004 . S
O102 C107 1.259 . S
Co103 O104 2.061 . S
Co103 O109 2.052 . S
Co103 O111 2.135 . S
O104 Co103 2.061 . S
O104 C107 1.235 . S
C105 O108 1.238 . S
C105 O109 1.241 . S
C106 O99 1.247 . S
C106 O100 1.261 . S
C107 O102 1.259 . S
C107 O104 1.235 . S
O108 Co98 2.021 . S
O108 C105 1.238 . S
O109 Co103 2.052 . S
O109 C105 1.241 . S
O110 Co98 2.137 1_556 S
O110 C101 1.247 . S
O111 Co98 2.244 . S
O111 C101 1.272 1_554 S
O111 Co103 2.135 . S
Co112 O113 2.216 . S
Co112 O114 2.091 . S
Co112 O116 2.004 . S
Co112 O122 2.021 . S
Co112 O124 2.137 . S
Co112 O125 2.244 . S
O113 Co112 2.216 . S
O113 C120 1.247 . S
O114 Co112 2.091 . S
O114 C120 1.261 . S
C115 O124 1.247 . S
C115 O125 1.272 . S
O116 Co112 2.004 . S
O116 C121 1.259 . S
Co117 O118 2.061 . S
Co117 O123 2.052 . S
Co117 O125 2.135 . S
O118 Co117 2.061 . S
O118 C121 1.235 . S
C119 O122 1.238 . S
C119 O123 1.241 . S
C120 O113 1.247 . S
C120 O114 1.261 . S
C121 O116 1.259 . S
C121 O118 1.235 . S
O122 Co112 2.021 . S
O122 C119 1.238 . S
O123 Co117 2.052 . S
O123 C119 1.241 . S
O124 Co112 2.137 . S
O124 C115 1.247 . S
O125 Co112 2.244 . S
O125 C115 1.272 . S
O125 Co117 2.135 . S
Co126 O127 2.216 . S
Co126 O128 2.091 . S
Co126 O130 2.004 . S
Co126 O136 2.021 . S
Co126 O138 2.137 . S
Co126 O139 2.244 . S
O127 Co126 2.216 . S
O127 C134 1.247 . S
O128 Co126 2.091 . S
O128 C134 1.261 . S
C129 O138 1.247 . S
C129 O139 1.272 . S
O130 Co126 2.004 . S
O130 C135 1.259 . S
Co131 O132 2.061 . S
Co131 O137 2.052 . S
Co131 O139 2.135 . S
O132 Co131 2.061 . S
O132 C135 1.235 . S
C133 O136 1.238 . S
C133 O137 1.241 . S
C134 O127 1.247 . S
C134 O128 1.261 . S
C135 O130 1.259 . S
C135 O132 1.235 . S
O136 Co126 2.021 . S
O136 C133 1.238 . S
O137 Co131 2.052 . S
O137 C133 1.241 . S
O138 Co126 2.137 . S
O138 C129 1.247 . S
O139 Co126 2.244 . S
O139 C129 1.272 . S
O139 Co131 2.135 . S
Co140 O141 2.216 . S
Co140 O142 2.091 . S
Co140 O144 2.004 . S
Co140 O150 2.021 . S
Co140 O152 2.137 . S
Co140 O153 2.244 . S
O141 Co140 2.216 . S
O141 C148 1.247 . S
O142 Co140 2.091 . S
O142 C148 1.261 . S
C143 O152 1.247 . S
C143 O153 1.272 . S
O144 Co140 2.004 . S
O144 C149 1.259 . S
Co145 O146 2.061 . S
Co145 O151 2.052 . S
Co145 O153 2.135 . S
O146 Co145 2.061 . S
O146 C149 1.235 . S
C147 O150 1.238 . S
C147 O151 1.241 . S
C148 O141 1.247 . S
C148 O142 1.261 . S
C149 O144 1.259 . S
C149 O146 1.235 . S
O150 Co140 2.021 . S
O150 C147 1.238 . S
O151 Co145 2.052 . S
O151 C147 1.241 . S
O152 Co140 2.137 . S
O152 C143 1.247 . S
O153 Co140 2.244 . S
O153 C143 1.272 . S
O153 Co145 2.135 . S
Co154 O155 2.216 . S
Co154 O156 2.091 . S
Co154 O158 2.004 . S
Co154 O164 2.021 . S
Co154 O166 2.137 . S
Co154 O167 2.244 . S
O155 Co154 2.216 . S
O155 C162 1.247 . S
O156 Co154 2.091 . S
O156 C162 1.261 . S
C157 O166 1.247 . S
C157 O167 1.272 . S
O158 Co154 2.004 . S
O158 C163 1.259 . S
Co159 O160 2.061 . S
Co159 O165 2.052 . S
Co159 O167 2.135 . S
O160 Co159 2.061 . S
O160 C163 1.235 . S
C161 O164 1.238 . S
C161 O165 1.241 . S
C162 O155 1.247 . S
C162 O156 1.261 . S
C163 O158 1.259 . S
C163 O160 1.235 . S
O164 Co154 2.021 . S
O164 C161 1.238 . S
O165 Co159 2.052 . S
O165 C161 1.241 . S
O166 Co154 2.137 . S
O166 C157 1.247 . S
O167 Co154 2.244 . S
O167 C157 1.272 . S
O167 Co159 2.135 . S
Co168 O169 2.216 . S
Co168 O170 2.091 . S
Co168 O172 2.004 1_455 S
Co168 O178 2.021 . S
Co168 O180 2.137 . S
Co168 O181 2.244 . S
O169 Co168 2.216 . S
O169 C176 1.247 . S
O170 Co168 2.091 . S
O170 C176 1.261 . S
C171 O180 1.247 . S
C171 O181 1.272 . S
O172 Co168 2.004 1_655 S
O172 C177 1.259 . S
Co173 O174 2.061 . S
Co173 O179 2.052 1_655 S
Co173 O181 2.135 1_655 S
O174 Co173 2.061 . S
O174 C177 1.235 . S
C175 O178 1.238 . S
C175 O179 1.241 . S
C176 O169 1.247 . S
C176 O170 1.261 . S
C177 O172 1.259 . S
C177 O174 1.235 . S
O178 Co168 2.021 . S
O178 C175 1.238 . S
O179 Co173 2.052 1_455 S
O179 C175 1.241 . S
O180 Co168 2.137 . S
O180 C171 1.247 . S
O181 Co168 2.244 . S
O181 C171 1.272 . S
O181 Co173 2.135 1_455 S
Co182 O183 2.216 . S
Co182 O184 2.091 . S
Co182 O186 2.004 1_655 S
Co182 O192 2.021 . S
Co182 O194 2.137 . S
Co182 O195 2.244 1_655 S
O183 Co182 2.216 . S
O183 C190 1.247 . S
O184 Co182 2.091 . S
O184 C190 1.261 . S
C185 O194 1.234 1_455 S
C185 O195 1.282 . S
O186 Co182 2.004 1_455 S
O186 C191 1.259 . S
Co187 O188 2.061 . S
Co187 O193 2.052 . S
Co187 O195 2.135 . S
O188 Co187 2.061 . S
O188 C191 1.235 . S
C189 O192 1.238 1_455 S
C189 O193 1.241 . S
C190 O183 1.247 . S
C190 O184 1.261 . S
C191 O186 1.259 . S
C191 O188 1.235 . S
O192 Co182 2.021 . S
O192 C189 1.238 1_655 S
O193 Co187 2.052 . S
O193 C189 1.241 . S
O194 Co182 2.137 . S
O194 C185 1.234 1_655 S
O195 Co182 2.244 1_455 S
O195 C185 1.282 . S
O195 Co187 2.135 . S
Co196 O197 2.216 . S
Co196 O198 2.091 . S
Co196 O200 2.004 . S
Co196 O206 2.021 . S
Co196 O208 2.137 . S
Co196 O209 2.244 . S
O197 Co196 2.216 . S
O197 C204 1.247 . S
O198 Co196 2.091 . S
O198 C204 1.261 . S
C199 O208 1.247 . S
C199 O209 1.272 . S
O200 Co196 2.004 . S
O200 C205 1.259 . S
Co201 O202 2.061 . S
Co201 O207 2.052 . S
Co201 O209 2.135 . S
O202 Co201 2.061 . S
O202 C205 1.235 . S
C203 O206 1.238 . S
C203 O207 1.241 . S
C204 O197 1.247 . S
C204 O198 1.261 . S
C205 O200 1.259 . S
C205 O202 1.235 . S
O206 Co196 2.021 . S
O206 C203 1.238 . S
O207 Co201 2.052 . S
O207 C203 1.241 . S
O208 Co196 2.137 . S
O208 C199 1.247 . S
O209 Co196 2.244 . S
O209 C199 1.272 . S
O209 Co201 2.135 . S
Co210 O211 2.216 . S
Co210 O212 2.091 . S
Co210 O214 2.004 . S
Co210 O220 2.021 . S
Co210 O222 2.137 . S
Co210 O223 2.244 . S
O211 Co210 2.216 . S
O211 C218 1.247 . S
O212 Co210 2.091 . S
O212 C218 1.261 . S
C213 O222 1.247 . S
C213 O223 1.272 . S
O214 Co210 2.004 . S
O214 C219 1.259 . S
Co215 O216 2.061 . S
Co215 O221 2.052 . S
Co215 O223 2.135 . S
O216 Co215 2.061 . S
O216 C219 1.235 . S
C217 O220 1.238 . S
C217 O221 1.241 . S
C218 O211 1.247 . S
C218 O212 1.261 . S
C219 O214 1.259 . S
C219 O216 1.235 . S
O220 Co210 2.021 . S
O220 C217 1.238 . S
O221 Co215 2.052 . S
O221 C217 1.241 . S
O222 Co210 2.137 . S
O222 C213 1.247 . S
O223 Co210 2.244 . S
O223 C213 1.272 . S
O223 Co215 2.135 . S
Co224 O225 2.216 . S
Co224 O226 2.091 . S
Co224 O228 2.004 . S
Co224 O234 2.021 . S
Co224 O236 2.137 . S
Co224 O237 2.244 . S
O225 Co224 2.216 . S
O225 C232 1.247 . S
O226 Co224 2.091 . S
O226 C232 1.261 . S
C227 O236 1.247 . S
C227 O237 1.272 . S
O228 Co224 2.004 . S
O228 C233 1.259 . S
Co229 O230 2.061 . S
Co229 O235 2.052 . S
Co229 O237 2.135 . S
O230 Co229 2.061 . S
O230 C233 1.235 . S
C231 O234 1.238 . S
C231 O235 1.241 . S
C232 O225 1.247 . S
C232 O226 1.261 . S
C233 O228 1.259 . S
C233 O230 1.235 . S
O234 Co224 2.021 . S
O234 C231 1.238 . S
O235 Co229 2.052 . S
O235 C231 1.241 . S
O236 Co224 2.137 . S
O236 C227 1.247 . S
O237 Co224 2.244 . S
O237 C227 1.272 . S
O237 Co229 2.135 . S
Co238 O239 2.216 . S
Co238 O240 2.091 . S
Co238 O242 2.004 . S
Co238 O248 2.021 . S
Co238 O250 2.137 . S
Co238 O251 2.244 . S
O239 Co238 2.216 . S
O239 C246 1.247 . S
O240 Co238 2.091 . S
O240 C246 1.261 . S
C241 O250 1.247 . S
C241 O251 1.272 . S
O242 Co238 2.004 . S
O242 C247 1.259 . S
Co243 O244 2.061 . S
Co243 O249 2.052 . S
Co243 O251 2.135 . S
O244 Co243 2.061 . S
O244 C247 1.235 . S
C245 O248 1.238 . S
C245 O249 1.241 . S
C246 O239 1.247 . S
C246 O240 1.261 . S
C247 O242 1.259 . S
C247 O244 1.235 . S
O248 Co238 2.021 . S
O248 C245 1.238 . S
O249 Co243 2.052 . S
O249 C245 1.241 . S
O250 Co238 2.137 . S
O250 C241 1.247 . S
O251 Co238 2.244 . S
O251 C241 1.272 . S
O251 Co243 2.135 . S
Co252 O253 2.216 1_545 S
Co252 O254 2.091 1_545 S
Co252 O256 2.004 . S
Co252 O262 2.021 . S
Co252 O264 2.137 1_545 S
Co252 O265 2.244 . S
O253 Co252 2.216 1_565 S
O253 C260 1.247 . S
O254 Co252 2.091 1_565 S
O254 C260 1.261 . S
C255 O264 1.247 1_545 S
C255 O265 1.272 . S
O256 Co252 2.004 . S
O256 C261 1.259 . S
Co257 O258 2.061 . S
Co257 O263 2.052 . S
Co257 O265 2.135 . S
O258 Co257 2.061 . S
O258 C261 1.235 . S
C259 O262 1.238 . S
C259 O263 1.241 . S
C260 O253 1.247 . S
C260 O254 1.261 . S
C261 O256 1.259 . S
C261 O258 1.235 . S
O262 Co252 2.021 . S
O262 C259 1.238 . S
O263 Co257 2.052 . S
O263 C259 1.241 . S
O264 Co252 2.137 1_565 S
O264 C255 1.247 1_565 S
O265 Co252 2.244 . S
O265 C255 1.272 . S
O265 Co257 2.135 . S
Co266 O267 2.216 . S
Co266 O268 2.091 . S
Co266 O270 2.004 . S
Co266 O276 2.021 . S
Co266 O278 2.137 1_554 S
Co266 O279 2.244 . S
O267 Co266 2.216 . S
O267 C274 1.247 . S
O268 Co266 2.091 . S
O268 C274 1.261 . S
C269 O278 1.247 . S
C269 O279 1.272 1_556 S
O270 Co266 2.004 . S
O270 C275 1.259 . S
Co271 O272 2.061 . S
Co271 O277 2.052 . S
Co271 O279 2.135 . S
O272 Co271 2.061 . S
O272 C275 1.235 . S
C273 O276 1.238 . S
C273 O277 1.241 . S
C274 O267 1.247 . S
C274 O268 1.261 . S
C275 O270 1.259 . S
C275 O272 1.235 . S
O276 Co266 2.021 . S
O276 C273 1.238 . S
O277 Co271 2.052 . S
O277 C273 1.241 . S
O278 Co266 2.137 1_556 S
O278 C269 1.247 . S
O279 Co266 2.244 . S
O279 C269 1.272 1_554 S
O279 Co271 2.135 . S
Co280 O281 2.216 . S
Co280 O282 2.090 1_556 S
Co280 O284 2.004 . S
Co280 O290 2.021 1_556 S
Co280 O292 2.137 . S
Co280 O293 2.244 . S
O281 Co280 2.216 . S
O281 C288 1.249 . S
O282 Co280 2.090 1_554 S
O282 C288 1.262 1_554 S
C283 O292 1.247 . S
C283 O293 1.272 . S
O284 Co280 2.004 . S
O284 C289 1.260 . S
Co285 O286 2.061 1_556 S
Co285 O291 2.046 1_556 S
Co285 O293 2.138 . S
O286 Co285 2.061 1_554 S
O286 C289 1.234 1_554 S
C287 O290 1.238 . S
C287 O291 1.241 . S
C288 O281 1.249 . S
C288 O282 1.262 1_556 S
C289 O284 1.260 . S
C289 O286 1.234 1_556 S
O290 Co280 2.021 1_554 S
O290 C287 1.238 . S
O291 Co285 2.046 1_554 S
O291 C287 1.241 . S
O292 Co280 2.137 . S
O292 C283 1.247 . S
O293 Co280 2.244 . S
O293 C283 1.272 . S
O293 Co285 2.138 . S
Co294 O295 2.216 . S
Co294 O296 2.091 . S
Co294 O298 2.004 . S
Co294 O304 2.021 . S
Co294 O306 2.137 . S
Co294 O307 2.244 . S
O295 Co294 2.216 . S
O295 C302 1.247 . S
O296 Co294 2.091 . S
O296 C302 1.261 . S
C297 O306 1.247 . S
C297 O307 1.272 . S
O298 Co294 2.004 . S
O298 C303 1.259 . S
Co299 O300 2.061 . S
Co299 O305 2.052 . S
Co299 O307 2.135 . S
O300 Co299 2.061 . S
O300 C303 1.235 . S
C301 O304 1.238 . S
C301 O305 1.241 . S
C302 O295 1.247 . S
C302 O296 1.261 . S
C303 O298 1.259 . S
C303 O300 1.235 . S
O304 Co294 2.021 . S
O304 C301 1.238 . S
O305 Co299 2.052 . S
O305 C301 1.241 . S
O306 Co294 2.137 . S
O306 C297 1.247 . S
O307 Co294 2.244 . S
O307 C297 1.272 . S
O307 Co299 2.135 . S
Co308 O309 2.216 . S
Co308 O310 2.091 . S
Co308 O312 2.004 . S
Co308 O318 2.021 . S
Co308 O320 2.137 . S
Co308 O321 2.244 . S
O309 Co308 2.216 . S
O309 C316 1.247 . S
O310 Co308 2.091 . S
O310 C316 1.261 . S
C311 O320 1.247 . S
C311 O321 1.272 . S
O312 Co308 2.004 . S
O312 C317 1.259 . S
Co313 O314 2.061 . S
Co313 O319 2.052 . S
Co313 O321 2.135 . S
O314 Co313 2.061 . S
O314 C317 1.235 . S
C315 O318 1.238 . S
C315 O319 1.241 . S
C316 O309 1.247 . S
C316 O310 1.261 . S
C317 O312 1.259 . S
C317 O314 1.235 . S
O318 Co308 2.021 . S
O318 C315 1.238 . S
O319 Co313 2.052 . S
O319 C315 1.241 . S
O320 Co308 2.137 . S
O320 C311 1.247 . S
O321 Co308 2.244 . S
O321 C311 1.272 . S
O321 Co313 2.135 . S
Co322 O323 2.216 . S
Co322 O324 2.091 . S
Co322 O326 2.004 . S
Co322 O332 2.021 . S
Co322 O334 2.137 . S
Co322 O335 2.244 . S
O323 Co322 2.216 . S
O323 C330 1.247 . S
O324 Co322 2.091 . S
O324 C330 1.261 . S
C325 O334 1.247 . S
C325 O335 1.272 . S
O326 Co322 2.004 . S
O326 C331 1.259 . S
Co327 O328 2.061 . S
Co327 O333 2.052 . S
Co327 O335 2.135 . S
O328 Co327 2.061 . S
O328 C331 1.235 . S
C329 O332 1.238 . S
C329 O333 1.241 . S
C330 O323 1.247 . S
C330 O324 1.261 . S
C331 O326 1.259 . S
C331 O328 1.235 . S
O332 Co322 2.021 . S
O332 C329 1.238 . S
O333 Co327 2.052 . S
O333 C329 1.241 . S
O334 Co322 2.137 . S
O334 C325 1.247 . S
O335 Co322 2.244 . S
O335 C325 1.272 . S
O335 Co327 2.135 . S
Co336 N341 2.021 1_554 S
Co336 O353 2.008 1_554 S
Co336 O356 2.075 1_455 S
Co336 O360 2.144 . S
Co336 O361 2.020 . S
C337 O357 1.259 . S
C337 O360 1.258 . S
Co338 N347 2.057 . S
Co338 O354 2.117 1_545 S
Co338 O355 2.020 1_455 S
Co338 O357 2.021 . S
Co338 O362 2.062 . S
C339 N341 1.306 1_655 S
C339 N342 1.366 . S
C339 H344 0.924 1_655 S
C340 N341 1.375 1_655 S
C340 C343 1.350 . S
C340 H345 0.930 . S
N341 Co336 2.021 1_556 S
N341 C339 1.306 1_455 S
N341 C340 1.375 1_455 S
N342 C339 1.366 . S
N342 C343 1.373 . S
C343 C340 1.350 . S
C343 N342 1.373 . S
C343 H364 0.931 . S
H344 C339 0.924 1_455 S
H345 C340 0.930 . S
C346 O353 1.259 1_564 S
C346 O354 1.258 . S
N347 Co338 2.057 . S
N347 C348 1.316 . S
N347 C349 1.375 1_545 S
C348 N347 1.316 . S
C348 N350 1.371 . S
C348 H359 0.931 . S
C349 N347 1.375 1_565 S
C349 C351 1.350 . S
C349 H358 0.930 . S
N350 C348 1.371 . S
N350 C351 1.339 1_545 S
C351 C349 1.350 . S
C351 N350 1.339 1_565 S
C351 H365 0.931 . S
C352 O355 1.256 . S
C352 O356 1.255 . S
O353 Co336 2.008 1_556 S
O353 C346 1.259 1_546 S
O354 Co338 2.117 1_565 S
O354 C346 1.258 . S
O355 Co338 2.020 1_655 S
O355 C352 1.256 . S
O356 Co336 2.075 1_655 S
O356 C352 1.255 . S
O357 C337 1.259 . S
O357 Co338 2.021 . S
H358 C349 0.930 . S
H359 C348 0.931 . S
O360 Co336 2.144 . S
O360 C337 1.258 . S
O361 Co336 2.020 . S
O361 C363 1.281 . S
O362 Co338 2.062 . S
O362 C363 1.255 . S
C363 O361 1.281 . S
C363 O362 1.255 . S
H364 C343 0.931 . S
H365 C351 0.931 . S
Co366 N371 2.057 . S
Co366 O383 2.021 . S
Co366 O386 2.062 . S
Co366 O390 2.117 . S
Co366 O391 2.020 . S
C367 O387 1.259 . S
C367 O390 1.258 . S
Co368 N377 2.057 . S
Co368 O384 2.117 . S
Co368 O385 2.020 . S
Co368 O387 2.021 . S
Co368 O392 2.062 . S
C369 N371 1.316 . S
C369 N372 1.347 . S
C369 H374 0.931 . S
C370 N371 1.375 . S
C370 C373 1.350 . S
C370 H375 0.930 . S
N371 Co366 2.057 . S
N371 C369 1.316 . S
N371 C370 1.375 . S
N372 C369 1.347 . S
N372 C373 1.373 . S
C373 C370 1.350 . S
C373 N372 1.373 . S
C373 H394 0.931 . S
H374 C369 0.931 . S
H375 C370 0.930 . S
C376 O383 1.259 . S
C376 O384 1.258 . S
N377 Co368 2.057 . S
N377 C378 1.316 . S
N377 C379 1.375 . S
C378 N377 1.316 . S
C378 N380 1.347 . S
C378 H389 0.931 . S
C379 N377 1.375 . S
C379 C381 1.350 . S
C379 H388 0.930 . S
N380 C378 1.347 . S
N380 C381 1.373 . S
C381 C379 1.350 . S
C381 N380 1.373 . S
C381 H395 0.931 . S
C382 O385 1.256 . S
C382 O386 1.255 . S
O383 Co366 2.021 . S
O383 C376 1.259 . S
O384 Co368 2.117 . S
O384 C376 1.258 . S
O385 Co368 2.020 . S
O385 C382 1.256 . S
O386 Co366 2.062 . S
O386 C382 1.255 . S
O387 C367 1.259 . S
O387 Co368 2.021 . S
H388 C379 0.930 . S
H389 C378 0.931 . S
O390 Co366 2.117 . S
O390 C367 1.258 . S
O391 Co366 2.020 . S
O391 C393 1.256 . S
O392 Co368 2.062 . S
O392 C393 1.255 . S
C393 O391 1.256 . S
C393 O392 1.255 . S
H394 C373 0.931 . S
H395 C381 0.931 . S
Co396 N401 2.057 . S
Co396 O413 2.021 1_545 S
Co396 O416 2.062 . S
Co396 O420 2.117 . S
Co396 O421 2.020 . S
C397 O417 1.259 . S
C397 O420 1.258 . S
Co398 N407 2.057 . S
Co398 O414 2.117 . S
Co398 O415 2.020 . S
Co398 O417 2.021 . S
Co398 O422 2.062 . S
C399 N401 1.316 1_565 S
C399 N402 1.347 1_565 S
C399 H404 0.931 . S
C400 N401 1.375 . S
C400 C403 1.350 . S
C400 H405 0.930 . S
N401 Co396 2.057 . S
N401 C399 1.316 1_545 S
N401 C400 1.375 . S
N402 C399 1.347 1_545 S
N402 C403 1.373 . S
C403 C400 1.350 . S
C403 N402 1.373 . S
C403 H424 0.931 . S
H404 C399 0.931 . S
H405 C400 0.930 . S
C406 O413 1.259 . S
C406 O414 1.258 1_565 S
N407 Co398 2.057 . S
N407 C408 1.316 . S
N407 C409 1.375 . S
C408 N407 1.316 . S
C408 N410 1.347 . S
C408 H419 0.931 . S
C409 N407 1.375 . S
C409 C411 1.350 . S
C409 H418 0.930 . S
N410 C408 1.347 . S
N410 C411 1.373 . S
C411 C409 1.350 . S
C411 N410 1.373 . S
C411 H425 0.931 . S
C412 O415 1.256 . S
C412 O416 1.255 . S
O413 Co396 2.021 1_565 S
O413 C406 1.259 . S
O414 Co398 2.117 . S
O414 C406 1.258 1_545 S
O415 Co398 2.020 . S
O415 C412 1.256 . S
O416 Co396 2.062 . S
O416 C412 1.255 . S
O417 C397 1.259 . S
O417 Co398 2.021 . S
H418 C409 0.930 . S
H419 C408 0.931 . S
O420 Co396 2.117 . S
O420 C397 1.258 . S
O421 Co396 2.020 . S
O421 C423 1.256 . S
O422 Co398 2.062 . S
O422 C423 1.255 . S
C423 O421 1.256 . S
C423 O422 1.255 . S
H424 C403 0.931 . S
H425 C411 0.931 . S
Co426 N431 2.057 . S
Co426 O443 2.021 . S
Co426 O446 2.062 . S
Co426 O450 2.117 . S
Co426 O451 2.020 . S
C427 O447 1.259 . S
C427 O450 1.258 . S
Co428 N437 2.057 . S
Co428 O444 2.117 . S
Co428 O445 2.020 . S
Co428 O447 2.021 . S
Co428 O452 2.062 . S
C429 N431 1.316 . S
C429 N432 1.347 . S
C429 H434 0.931 . S
C430 N431 1.375 . S
C430 C433 1.350 . S
C430 H435 0.930 . S
N431 Co426 2.057 . S
N431 C429 1.316 . S
N431 C430 1.375 . S
N432 C429 1.347 . S
N432 C433 1.373 . S
C433 C430 1.350 . S
C433 N432 1.373 . S
C433 H454 0.931 . S
H434 C429 0.931 . S
H435 C430 0.930 . S
C436 O443 1.259 . S
C436 O444 1.258 . S
N437 Co428 2.057 . S
N437 C438 1.316 . S
N437 C439 1.375 . S
C438 N437 1.316 . S
C438 N440 1.347 . S
C438 H449 0.931 . S
C439 N437 1.375 . S
C439 C441 1.350 . S
C439 H448 0.930 . S
N440 C438 1.347 . S
N440 C441 1.373 . S
C441 C439 1.350 . S
C441 N440 1.373 . S
C441 H455 0.931 . S
C442 O445 1.256 . S
C442 O446 1.255 . S
O443 Co426 2.021 . S
O443 C436 1.259 . S
O444 Co428 2.117 . S
O444 C436 1.258 . S
O445 Co428 2.020 . S
O445 C442 1.256 . S
O446 Co426 2.062 . S
O446 C442 1.255 . S
O447 C427 1.259 . S
O447 Co428 2.021 . S
H448 C439 0.930 . S
H449 C438 0.931 . S
O450 Co426 2.117 . S
O450 C427 1.258 . S
O451 Co426 2.020 . S
O451 C453 1.256 . S
O452 Co428 2.062 . S
O452 C453 1.255 . S
C453 O451 1.256 . S
C453 O452 1.255 . S
H454 C433 0.931 . S
H455 C441 0.931 . S
Co456 N461 2.057 1_545 S
Co456 O473 2.021 . S
Co456 O476 2.056 1_545 S
Co456 O480 2.117 . S
Co456 O481 2.020 1_455 S
C457 O477 1.259 . S
C457 O480 1.258 . S
Co458 N467 2.057 . S
Co458 O474 2.117 . S
Co458 O475 2.020 . S
Co458 O477 2.021 . S
Co458 O482 2.062 1_455 S
C459 N461 1.316 . S
C459 N462 1.347 . S
C459 H464 0.931 . S
C460 N461 1.375 1_655 S
C460 C463 1.350 . S
C460 H465 0.930 . S
N461 Co456 2.057 1_565 S
N461 C459 1.316 . S
N461 C460 1.375 1_455 S
N462 C459 1.347 . S
N462 C463 1.373 1_455 S
C463 C460 1.350 . S
C463 N462 1.373 1_655 S
C463 H484 0.931 . S
H464 C459 0.931 . S
H465 C460 0.930 . S
C466 O473 1.259 . S
C466 O474 1.258 . S
N467 Co458 2.057 . S
N467 C468 1.316 . S
N467 C469 1.375 . S
C468 N467 1.316 . S
C468 N470 1.347 . S
C468 H479 0.931 . S
C469 N467 1.375 . S
C469 C471 1.350 . S
C469 H478 0.930 . S
N470 C468 1.347 . S
N470 C471 1.373 . S
C471 C469 1.350 . S
C471 N470 1.373 . S
C471 H485 0.931 . S
C472 O475 1.256 . S
C472 O476 1.238 1_545 S
O473 Co456 2.021 . S
O473 C466 1.259 . S
O474 Co458 2.117 . S
O474 C466 1.258 . S
O475 Co458 2.020 . S
O475 C472 1.256 . S
O476 Co456 2.056 1_565 S
O476 C472 1.238 1_565 S
O477 C457 1.259 . S
O477 Co458 2.021 . S
H478 C469 0.930 . S
H479 C468 0.931 . S
O480 Co456 2.117 . S
O480 C457 1.258 . S
O481 Co456 2.020 1_655 S
O481 C483 1.256 . S
O482 Co458 2.062 1_655 S
O482 C483 1.255 . S
C483 O481 1.256 . S
C483 O482 1.255 . S
H484 C463 0.931 . S
H485 C471 0.931 . S
Co486 N491 2.057 . S
Co486 O503 2.021 . S
Co486 O506 2.062 . S
Co486 O510 2.117 . S
Co486 O511 2.020 . S
C487 O507 1.259 . S
C487 O510 1.258 . S
Co488 N497 2.057 . S
Co488 O504 2.117 . S
Co488 O505 2.020 . S
Co488 O507 2.021 . S
Co488 O512 2.062 . S
C489 N491 1.316 . S
C489 N492 1.347 . S
C489 H494 0.931 . S
C490 N491 1.375 . S
C490 C493 1.350 . S
C490 H495 0.930 . S
N491 Co486 2.057 . S
N491 C489 1.316 . S
N491 C490 1.375 . S
N492 C489 1.347 . S
N492 C493 1.373 . S
C493 C490 1.350 . S
C493 N492 1.373 . S
C493 H514 0.931 . S
H494 C489 0.931 . S
H495 C490 0.930 . S
C496 O503 1.259 . S
C496 O504 1.258 . S
N497 Co488 2.057 . S
N497 C498 1.316 . S
N497 C499 1.375 . S
C498 N497 1.316 . S
C498 N500 1.347 . S
C498 H509 0.931 . S
C499 N497 1.375 . S
C499 C501 1.350 . S
C499 H508 0.930 . S
N500 C498 1.347 . S
N500 C501 1.373 . S
C501 C499 1.350 . S
C501 N500 1.373 . S
C501 H515 0.931 . S
C502 O505 1.256 . S
C502 O506 1.255 . S
O503 Co486 2.021 . S
O503 C496 1.259 . S
O504 Co488 2.117 . S
O504 C496 1.258 . S
O505 Co488 2.020 . S
O505 C502 1.256 . S
O506 Co486 2.062 . S
O506 C502 1.255 . S
O507 C487 1.259 . S
O507 Co488 2.021 . S
H508 C499 0.930 . S
H509 C498 0.931 . S
O510 Co486 2.117 . S
O510 C487 1.258 . S
O511 Co486 2.020 . S
O511 C513 1.256 . S
O512 Co488 2.062 . S
O512 C513 1.255 . S
C513 O511 1.256 . S
C513 O512 1.255 . S
H514 C493 0.931 . S
H515 C501 0.931 . S
Co516 N521 2.057 1_554 S
Co516 O533 2.021 . S
Co516 O536 2.062 1_554 S
Co516 O540 2.117 . S
Co516 O541 2.020 1_545 S
C517 O537 1.259 . S
C517 O540 1.258 . S
Co518 N527 2.057 . S
Co518 O534 2.117 . S
Co518 O535 2.020 . S
Co518 O537 2.021 . S
Co518 O542 2.062 . S
C519 N521 1.316 . S
C519 N522 1.347 . S
C519 H524 0.931 . S
C520 N521 1.375 . S
C520 C523 1.350 . S
C520 H525 0.930 1_545 S
N521 Co516 2.057 1_556 S
N521 C519 1.316 . S
N521 C520 1.375 . S
N522 C519 1.347 . S
N522 C523 1.373 . S
C523 C520 1.350 . S
C523 N522 1.373 . S
C523 H544 0.931 1_545 S
H524 C519 0.931 . S
H525 C520 0.930 1_565 S
C526 O533 1.259 . S
C526 O534 1.258 . S
N527 Co518 2.057 . S
N527 C528 1.316 . S
N527 C529 1.375 . S
C528 N527 1.316 . S
C528 N530 1.347 . S
C528 H539 0.931 . S
C529 N527 1.375 . S
C529 C531 1.350 . S
C529 H538 0.930 . S
N530 C528 1.347 . S
N530 C531 1.373 . S
C531 C529 1.350 . S
C531 N530 1.373 . S
C531 H545 0.931 . S
C532 O535 1.256 . S
C532 O536 1.255 1_554 S
O533 Co516 2.021 . S
O533 C526 1.259 . S
O534 Co518 2.117 . S
O534 C526 1.258 . S
O535 Co518 2.020 . S
O535 C532 1.256 . S
O536 Co516 2.062 1_556 S
O536 C532 1.255 1_556 S
O537 C517 1.259 . S
O537 Co518 2.021 . S
H538 C529 0.930 . S
H539 C528 0.931 . S
O540 Co516 2.117 . S
O540 C517 1.258 . S
O541 Co516 2.020 1_565 S
O541 C543 1.256 . S
O542 Co518 2.062 . S
O542 C543 1.255 1_545 S
C543 O541 1.256 . S
C543 O542 1.255 1_565 S
H544 C523 0.931 1_565 S
H545 C531 0.931 . S
Co546 N551 2.057 . S
Co546 O563 2.021 . S
Co546 O566 2.062 . S
Co546 O570 2.117 . S
Co546 O571 2.020 . S
C547 O567 1.259 . S
C547 O570 1.258 . S
Co548 N557 2.057 . S
Co548 O564 2.117 . S
Co548 O565 2.020 . S
Co548 O567 2.021 . S
Co548 O572 2.062 . S
C549 N551 1.316 . S
C549 N552 1.347 . S
C549 H554 0.931 . S
C550 N551 1.375 . S
C550 C553 1.350 . S
C550 H555 0.930 . S
N551 Co546 2.057 . S
N551 C549 1.316 . S
N551 C550 1.375 . S
N552 C549 1.347 . S
N552 C553 1.373 . S
C553 C550 1.350 . S
C553 N552 1.373 . S
C553 H574 0.931 . S
H554 C549 0.931 . S
H555 C550 0.930 . S
C556 O563 1.259 . S
C556 O564 1.258 . S
N557 Co548 2.057 . S
N557 C558 1.316 . S
N557 C559 1.375 . S
C558 N557 1.316 . S
C558 N560 1.347 . S
C558 H569 0.931 . S
C559 N557 1.375 . S
C559 C561 1.350 . S
C559 H568 0.930 . S
N560 C558 1.347 . S
N560 C561 1.373 . S
C561 C559 1.350 . S
C561 N560 1.373 . S
C561 H575 0.931 . S
C562 O565 1.256 . S
C562 O566 1.255 . S
O563 Co546 2.021 . S
O563 C556 1.259 . S
O564 Co548 2.117 . S
O564 C556 1.258 . S
O565 Co548 2.020 . S
O565 C562 1.256 . S
O566 Co546 2.062 . S
O566 C562 1.255 . S
O567 C547 1.259 . S
O567 Co548 2.021 . S
H568 C559 0.930 . S
H569 C558 0.931 . S
O570 Co546 2.117 . S
O570 C547 1.258 . S
O571 Co546 2.020 . S
O571 C573 1.256 . S
O572 Co548 2.062 . S
O572 C573 1.255 . S
C573 O571 1.256 . S
C573 O572 1.255 . S
H574 C553 0.931 . S
H575 C561 0.931 . S
Co576 N581 2.057 . S
Co576 O593 2.021 1_554 S
Co576 O596 2.062 . S
Co576 O600 2.117 . S
Co576 O601 2.020 . S
C577 O597 1.259 . S
C577 O600 1.258 . S
Co578 N587 2.057 . S
Co578 O594 2.141 . S
Co578 O595 2.020 . S
Co578 O597 2.021 . S
Co578 O602 2.062 . S
C579 N581 1.316 1_556 S
C579 N582 1.347 1_556 S
C579 H584 0.931 . S
C580 N581 1.375 . S
C580 C583 1.350 . S
C580 H585 0.930 . S
N581 Co576 2.057 . S
N581 C579 1.316 1_554 S
N581 C580 1.375 . S
N582 C579 1.347 1_554 S
N582 C583 1.373 . S
C583 C580 1.350 . S
C583 N582 1.373 . S
C583 H604 0.931 . S
H584 C579 0.931 . S
H585 C580 0.930 . S
C586 O593 1.259 . S
C586 O594 1.239 1_556 S
N587 Co578 2.057 . S
N587 C588 1.316 . S
N587 C589 1.375 . S
C588 N587 1.316 . S
C588 N590 1.347 . S
C588 H599 0.931 . S
C589 N587 1.375 . S
C589 C591 1.350 . S
C589 H598 0.930 . S
N590 C588 1.347 . S
N590 C591 1.373 . S
C591 C589 1.350 . S
C591 N590 1.373 . S
C591 H605 0.931 . S
C592 O595 1.256 . S
C592 O596 1.255 . S
O593 Co576 2.021 1_556 S
O593 C586 1.259 . S
O594 Co578 2.141 . S
O594 C586 1.239 1_554 S
O595 Co578 2.020 . S
O595 C592 1.256 . S
O596 Co576 2.062 . S
O596 C592 1.255 . S
O597 C577 1.259 . S
O597 Co578 2.021 . S
H598 C589 0.930 . S
H599 C588 0.931 . S
O600 Co576 2.117 . S
O600 C577 1.258 . S
O601 Co576 2.020 . S
O601 C603 1.256 . S
O602 Co578 2.062 . S
O602 C603 1.255 . S
C603 O601 1.256 . S
C603 O602 1.255 . S
H604 C583 0.931 . S
H605 C591 0.931 . S
Co606 N611 2.057 . S
Co606 O623 2.021 . S
Co606 O626 2.062 . S
Co606 O630 2.117 . S
Co606 O631 2.020 . S
C607 O627 1.259 . S
C607 O630 1.258 . S
Co608 N617 2.057 . S
Co608 O624 2.117 . S
Co608 O625 2.020 . S
Co608 O627 2.021 . S
Co608 O632 2.062 . S
C609 N611 1.316 . S
C609 N612 1.347 . S
C609 H614 0.931 . S
C610 N611 1.375 . S
C610 C613 1.350 . S
C610 H615 0.930 . S
N611 Co606 2.057 . S
N611 C609 1.316 . S
N611 C610 1.375 . S
N612 C609 1.347 . S
N612 C613 1.373 . S
C613 C610 1.350 . S
C613 N612 1.373 . S
C613 H634 0.931 . S
H614 C609 0.931 . S
H615 C610 0.930 . S
C616 O623 1.259 . S
C616 O624 1.258 . S
N617 Co608 2.057 . S
N617 C618 1.316 . S
N617 C619 1.375 . S
C618 N617 1.316 . S
C618 N620 1.347 . S
C618 H629 0.931 . S
C619 N617 1.375 . S
C619 C621 1.350 . S
C619 H628 0.930 . S
N620 C618 1.347 . S
N620 C621 1.373 . S
C621 C619 1.350 . S
C621 N620 1.373 . S
C621 H635 0.931 . S
C622 O625 1.256 . S
C622 O626 1.255 . S
O623 Co606 2.021 . S
O623 C616 1.259 . S
O624 Co608 2.117 . S
O624 C616 1.258 . S
O625 Co608 2.020 . S
O625 C622 1.256 . S
O626 Co606 2.062 . S
O626 C622 1.255 . S
O627 C607 1.259 . S
O627 Co608 2.021 . S
H628 C619 0.930 . S
H629 C618 0.931 . S
O630 Co606 2.117 . S
O630 C607 1.258 . S
O631 Co606 2.020 . S
O631 C633 1.256 . S
O632 Co608 2.062 . S
O632 C633 1.255 . S
C633 O631 1.256 . S
C633 O632 1.255 . S
H634 C613 0.931 . S
H635 C621 0.931 . S
Co636 N641 2.057 . S
Co636 O653 2.021 1_455 S
Co636 O656 2.062 . S
Co636 O660 2.117 . S
Co636 O661 2.020 . S
C637 O657 1.259 . S
C637 O660 1.258 . S
Co638 N647 2.057 . S
Co638 O654 2.117 1_455 S
Co638 O655 2.020 . S
Co638 O657 2.021 . S
Co638 O662 2.062 . S
C639 N641 1.316 1_655 S
C639 N642 1.347 . S
C639 H644 0.931 . S
C640 N641 1.375 . S
C640 C643 1.350 . S
C640 H645 0.930 . S
N641 Co636 2.057 . S
N641 C639 1.316 1_455 S
N641 C640 1.375 . S
N642 C639 1.347 . S
N642 C643 1.373 1_655 S
C643 C640 1.350 . S
C643 N642 1.373 1_455 S
C643 H664 0.931 . S
H644 C639 0.931 . S
H645 C640 0.930 . S
C646 O653 1.259 . S
C646 O654 1.258 . S
N647 Co638 2.057 . S
N647 C648 1.316 . S
N647 C649 1.375 . S
C648 N647 1.316 . S
C648 N650 1.347 . S
C648 H659 0.931 . S
C649 N647 1.375 . S
C649 C651 1.350 . S
C649 H658 0.930 . S
N650 C648 1.347 . S
N650 C651 1.373 . S
C651 C649 1.350 . S
C651 N650 1.373 . S
C651 H665 0.931 . S
C652 O655 1.256 . S
C652 O656 1.255 . S
O653 Co636 2.021 1_655 S
O653 C646 1.259 . S
O654 Co638 2.117 1_655 S
O654 C646 1.258 . S
O655 Co638 2.020 . S
O655 C652 1.256 . S
O656 Co636 2.062 . S
O656 C652 1.255 . S
O657 C637 1.259 . S
O657 Co638 2.021 . S
H658 C649 0.930 . S
H659 C648 0.931 . S
O660 Co636 2.117 . S
O660 C637 1.258 . S
O661 Co636 2.020 . S
O661 C663 1.256 . S
O662 Co638 2.062 . S
O662 C663 1.255 . S
C663 O661 1.256 . S
C663 O662 1.255 . S
H664 C643 0.931 . S
H665 C651 0.931 . S
Co666 N671 2.057 . S
Co666 O683 2.021 . S
Co666 O686 2.062 . S
Co666 O690 2.117 . S
Co666 O691 2.020 . S
C667 O687 1.259 . S
C667 O690 1.258 . S
Co668 N677 2.057 . S
Co668 O684 2.117 . S
Co668 O685 2.020 . S
Co668 O687 2.021 . S
Co668 O692 2.062 . S
C669 N671 1.316 . S
C669 N672 1.347 . S
C669 H674 0.931 . S
C670 N671 1.375 . S
C670 C673 1.350 . S
C670 H675 0.930 . S
N671 Co666 2.057 . S
N671 C669 1.316 . S
N671 C670 1.375 . S
N672 C669 1.347 . S
N672 C673 1.373 . S
C673 C670 1.350 . S
C673 N672 1.373 . S
C673 H694 0.931 . S
H674 C669 0.931 . S
H675 C670 0.930 . S
C676 O683 1.259 . S
C676 O684 1.258 . S
N677 Co668 2.057 . S
N677 C678 1.316 . S
N677 C679 1.375 . S
C678 N677 1.316 . S
C678 N680 1.347 . S
C678 H689 0.931 . S
C679 N677 1.375 . S
C679 C681 1.350 . S
C679 H688 0.930 . S
N680 C678 1.347 . S
N680 C681 1.373 . S
C681 C679 1.350 . S
C681 N680 1.373 . S
C681 H695 0.931 . S
C682 O685 1.256 . S
C682 O686 1.255 . S
O683 Co666 2.021 . S
O683 C676 1.259 . S
O684 Co668 2.117 . S
O684 C676 1.258 . S
O685 Co668 2.020 . S
O685 C682 1.256 . S
O686 Co666 2.062 . S
O686 C682 1.255 . S
O687 C667 1.259 . S
O687 Co668 2.021 . S
H688 C679 0.930 . S
H689 C678 0.931 . S
O690 Co666 2.117 . S
O690 C667 1.258 . S
O691 Co666 2.020 . S
O691 C693 1.256 . S
O692 Co668 2.062 . S
O692 C693 1.255 . S
C693 O691 1.256 . S
C693 O692 1.255 . S
H694 C673 0.931 . S
H695 C681 0.931 . S
Co696 N701 2.057 . S
Co696 O713 2.021 . S
Co696 O716 2.062 . S
Co696 O720 2.117 . S
Co696 O721 2.020 . S
C697 O717 1.259 . S
C697 O720 1.258 . S
Co698 N707 2.057 . S
Co698 O714 2.117 . S
Co698 O715 2.020 . S
Co698 O717 2.021 . S
Co698 O722 2.062 . S
C699 N701 1.316 . S
C699 N702 1.347 . S
C699 H704 0.931 . S
C700 N701 1.375 . S
C700 C703 1.350 . S
C700 H705 0.930 . S
N701 Co696 2.057 . S
N701 C699 1.316 . S
N701 C700 1.375 . S
N702 C699 1.347 . S
N702 C703 1.373 . S
C703 C700 1.350 . S
C703 N702 1.373 . S
C703 H724 0.931 . S
H704 C699 0.931 . S
H705 C700 0.930 . S
C706 O713 1.259 . S
C706 O714 1.258 . S
N707 Co698 2.057 . S
N707 C708 1.316 . S
N707 C709 1.375 . S
C708 N707 1.316 . S
C708 N710 1.347 . S
C708 H719 0.931 . S
C709 N707 1.375 . S
C709 C711 1.350 . S
C709 H718 0.930 . S
N710 C708 1.347 . S
N710 C711 1.373 . S
C711 C709 1.350 . S
C711 N710 1.373 . S
C711 H725 0.931 . S
C712 O715 1.256 . S
C712 O716 1.255 . S
O713 Co696 2.021 . S
O713 C706 1.259 . S
O714 Co698 2.117 . S
O714 C706 1.258 . S
O715 Co698 2.020 . S
O715 C712 1.256 . S
O716 Co696 2.062 . S
O716 C712 1.255 . S
O717 C697 1.259 . S
O717 Co698 2.021 . S
H718 C709 0.930 . S
H719 C708 0.931 . S
O720 Co696 2.117 . S
O720 C697 1.258 . S
O721 Co696 2.020 . S
O721 C723 1.256 . S
O722 Co698 2.062 . S
O722 C723 1.255 . S
C723 O721 1.256 . S
C723 O722 1.255 . S
H724 C703 0.931 . S
H725 C711 0.931 . S
Co726 N731 2.057 . S
Co726 O743 2.021 . S
Co726 O746 2.062 . S
Co726 O750 2.117 . S
Co726 O751 2.020 . S
C727 O747 1.259 . S
C727 O750 1.258 . S
Co728 N737 2.057 . S
Co728 O744 2.117 . S
Co728 O745 2.020 . S
Co728 O747 2.021 . S
Co728 O752 2.062 . S
C729 N731 1.316 . S
C729 N732 1.347 . S
C729 H734 0.931 . S
C730 N731 1.375 . S
C730 C733 1.350 . S
C730 H735 0.930 . S
N731 Co726 2.057 . S
N731 C729 1.316 . S
N731 C730 1.375 . S
N732 C729 1.347 . S
N732 C733 1.373 . S
C733 C730 1.350 . S
C733 N732 1.373 . S
C733 H754 0.931 . S
H734 C729 0.931 . S
H735 C730 0.930 . S
C736 O743 1.259 . S
C736 O744 1.258 . S
N737 Co728 2.057 . S
N737 C738 1.316 . S
N737 C739 1.375 . S
C738 N737 1.316 . S
C738 N740 1.347 . S
C738 H749 0.931 . S
C739 N737 1.375 . S
C739 C741 1.350 . S
C739 H748 0.930 . S
N740 C738 1.347 . S
N740 C741 1.373 . S
C741 C739 1.350 . S
C741 N740 1.373 . S
C741 H755 0.931 . S
C742 O745 1.256 . S
C742 O746 1.255 . S
O743 Co726 2.021 . S
O743 C736 1.259 . S
O744 Co728 2.117 . S
O744 C736 1.258 . S
O745 Co728 2.020 . S
O745 C742 1.256 . S
O746 Co726 2.062 . S
O746 C742 1.255 . S
O747 C727 1.259 . S
O747 Co728 2.021 . S
H748 C739 0.930 . S
H749 C738 0.931 . S
O750 Co726 2.117 . S
O750 C727 1.258 . S
O751 Co726 2.020 . S
O751 C753 1.256 . S
O752 Co728 2.062 . S
O752 C753 1.255 . S
C753 O751 1.256 . S
C753 O752 1.255 . S
H754 C733 0.931 . S
H755 C741 0.931 . S
Co756 N761 2.057 . S
Co756 O773 2.021 . S
Co756 O776 2.062 . S
Co756 O780 2.117 . S
Co756 O781 2.020 . S
C757 O777 1.259 . S
C757 O780 1.258 . S
Co758 N767 2.057 . S
Co758 O774 2.117 . S
Co758 O775 2.020 . S
Co758 O777 2.021 . S
Co758 O782 2.062 . S
C759 N761 1.316 . S
C759 N762 1.347 . S
C759 H764 0.931 . S
C760 N761 1.375 . S
C760 C763 1.350 . S
C760 H765 0.930 . S
N761 Co756 2.057 . S
N761 C759 1.316 . S
N761 C760 1.375 . S
N762 C759 1.347 . S
N762 C763 1.373 . S
C763 C760 1.350 . S
C763 N762 1.373 . S
C763 H784 0.931 . S
H764 C759 0.931 . S
H765 C760 0.930 . S
C766 O773 1.259 . S
C766 O774 1.258 . S
N767 Co758 2.057 . S
N767 C768 1.316 . S
N767 C769 1.375 . S
C768 N767 1.316 . S
C768 N770 1.347 . S
C768 H779 0.931 . S
C769 N767 1.375 . S
C769 C771 1.350 . S
C769 H778 0.930 . S
N770 C768 1.347 . S
N770 C771 1.373 . S
C771 C769 1.350 . S
C771 N770 1.373 . S
C771 H785 0.931 . S
C772 O775 1.256 . S
C772 O776 1.255 . S
O773 Co756 2.021 . S
O773 C766 1.259 . S
O774 Co758 2.117 . S
O774 C766 1.258 . S
O775 Co758 2.020 . S
O775 C772 1.256 . S
O776 Co756 2.062 . S
O776 C772 1.255 . S
O777 C757 1.259 . S
O777 Co758 2.021 . S
H778 C769 0.930 . S
H779 C768 0.931 . S
O780 Co756 2.117 . S
O780 C757 1.258 . S
O781 Co756 2.020 . S
O781 C783 1.256 . S
O782 Co758 2.062 . S
O782 C783 1.255 . S
C783 O781 1.256 . S
C783 O782 1.255 . S
H784 C763 0.931 . S
H785 C771 0.931 . S
Co786 N791 2.057 1_455 S
Co786 O803 2.021 . S
Co786 O806 2.062 1_455 S
Co786 O810 2.117 . S
Co786 O811 2.020 1_554 S
C787 O807 1.259 . S
C787 O810 1.258 . S
Co788 N797 2.057 . S
Co788 O804 2.117 . S
Co788 O805 2.020 . S
Co788 O807 2.021 . S
Co788 O812 2.062 1_554 S
C789 N791 1.316 . S
C789 N792 1.347 . S
C789 H794 0.931 . S
C790 N791 1.375 1_556 S
C790 C793 1.350 . S
C790 H795 0.930 . S
N791 Co786 2.057 1_655 S
N791 C789 1.316 . S
N791 C790 1.375 1_554 S
N792 C789 1.347 . S
N792 C793 1.373 1_554 S
C793 C790 1.350 . S
C793 N792 1.373 1_556 S
C793 H814 0.931 . S
H794 C789 0.931 . S
H795 C790 0.930 . S
C796 O803 1.259 . S
C796 O804 1.258 . S
N797 Co788 2.057 . S
N797 C798 1.316 . S
N797 C799 1.375 . S
C798 N797 1.316 . S
C798 N800 1.347 . S
C798 H809 0.931 . S
C799 N797 1.375 . S
C799 C801 1.350 . S
C799 H808 0.930 . S
N800 C798 1.347 . S
N800 C801 1.373 . S
C801 C799 1.350 . S
C801 N800 1.373 . S
C801 H815 0.931 . S
C802 O805 1.256 . S
C802 O806 1.255 1_455 S
O803 Co786 2.021 . S
O803 C796 1.259 . S
O804 Co788 2.117 . S
O804 C796 1.258 . S
O805 Co788 2.020 . S
O805 C802 1.256 . S
O806 Co786 2.062 1_655 S
O806 C802 1.255 1_655 S
O807 C787 1.259 . S
O807 Co788 2.021 . S
H808 C799 0.930 . S
H809 C798 0.931 . S
O810 Co786 2.117 . S
O810 C787 1.258 . S
O811 Co786 2.020 1_556 S
O811 C813 1.256 . S
O812 Co788 2.062 1_556 S
O812 C813 1.255 . S
C813 O811 1.256 . S
C813 O812 1.255 . S
H814 C793 0.931 . S
H815 C801 0.931 . S
H816 C824 0.950 . S
H817 C829 0.950 . S
H818 C826 0.950 . S
H819 C828 0.952 . S
H820 C830 0.950 1_655 S
H821 C832 0.950 1_655 S
H822 C834 0.950 . S
H823 C835 0.950 . S
C824 H816 0.950 . S
C824 C825 1.386 . S
C824 C826 1.391 . S
C825 C824 1.386 . S
C825 C829 1.393 . S
C826 H818 0.950 . S
C826 C824 1.391 . S
C826 C827 1.400 . S
C827 C826 1.400 . S
C827 C828 1.398 . S
C827 C833 1.491 . S
C828 H819 0.952 . S
C828 C827 1.398 . S
C828 C829 1.391 . S
C829 H817 0.950 . S
C829 C825 1.393 . S
C829 C828 1.391 . S
C830 H820 0.950 1_455 S
C830 C831 1.386 . S
C830 C832 1.391 . S
C831 C830 1.386 . S
C831 C835 1.393 . S
C832 H821 0.950 1_455 S
C832 C830 1.391 . S
C832 C833 1.400 . S
C833 C827 1.491 . S
C833 C832 1.400 . S
C833 C834 1.398 . S
C834 H822 0.950 . S
C834 C833 1.398 . S
C834 C835 1.391 . S
C835 H823 0.950 . S
C835 C831 1.393 . S
C835 C834 1.391 . S
H836 C844 0.950 . S
H837 C849 0.950 . S
H838 C846 0.950 . S
H839 C848 0.950 . S
H840 C850 0.950 . S
H841 C852 0.950 . S
H842 C854 0.950 . S
H843 C855 0.950 . S
C844 H836 0.950 . S
C844 C845 1.386 . S
C844 C846 1.391 . S
C845 C844 1.386 . S
C845 C849 1.393 . S
C846 H838 0.950 . S
C846 C844 1.391 . S
C846 C847 1.400 . S
C847 C846 1.400 . S
C847 C848 1.398 . S
C847 C853 1.491 . S
C848 H839 0.950 . S
C848 C847 1.398 . S
C848 C849 1.391 . S
C849 H837 0.950 . S
C849 C845 1.393 . S
C849 C848 1.391 . S
C850 H840 0.950 . S
C850 C851 1.386 . S
C850 C852 1.391 . S
C851 C850 1.386 . S
C851 C855 1.393 . S
C852 H841 0.950 . S
C852 C850 1.391 . S
C852 C853 1.400 . S
C853 C847 1.491 . S
C853 C852 1.400 . S
C853 C854 1.398 . S
C854 H842 0.950 . S
C854 C853 1.398 . S
C854 C855 1.391 . S
C855 H843 0.950 . S
C855 C851 1.393 . S
C855 C854 1.391 . S
H856 C864 0.950 . S
H857 C869 0.950 . S
H858 C866 0.950 . S
H859 C868 0.950 . S
H860 C870 0.950 . S
H861 C872 0.950 . S
H862 C874 0.950 . S
H863 C875 0.950 . S
C864 H856 0.950 . S
C864 C865 1.386 . S
C864 C866 1.391 . S
C865 C864 1.386 . S
C865 C869 1.393 . S
C866 H858 0.950 . S
C866 C864 1.391 . S
C866 C867 1.400 . S
C867 C866 1.400 . S
C867 C868 1.398 . S
C867 C873 1.491 . S
C868 H859 0.950 . S
C868 C867 1.398 . S
C868 C869 1.391 . S
C869 H857 0.950 . S
C869 C865 1.393 . S
C869 C868 1.391 . S
C870 H860 0.950 . S
C870 C871 1.386 . S
C870 C872 1.391 . S
C871 C870 1.386 . S
C871 C875 1.393 . S
C872 H861 0.950 . S
C872 C870 1.391 . S
C872 C873 1.400 . S
C873 C867 1.491 . S
C873 C872 1.400 . S
C873 C874 1.398 . S
C874 H862 0.950 . S
C874 C873 1.398 . S
C874 C875 1.391 . S
C875 H863 0.950 . S
C875 C871 1.393 . S
C875 C874 1.391 . S
H876 C884 0.950 . S
H877 C889 0.950 . S
H878 C886 0.950 . S
H879 C888 0.950 . S
H880 C890 0.950 . S
H881 C892 0.950 . S
H882 C894 0.950 . S
H883 C895 0.950 . S
C884 H876 0.950 . S
C884 C885 1.386 . S
C884 C886 1.391 . S
C885 C884 1.386 . S
C885 C889 1.393 . S
C886 H878 0.950 . S
C886 C884 1.391 . S
C886 C887 1.400 . S
C887 C886 1.400 . S
C887 C888 1.398 . S
C887 C893 1.491 . S
C888 H879 0.950 . S
C888 C887 1.398 . S
C888 C889 1.391 . S
C889 H877 0.950 . S
C889 C885 1.393 . S
C889 C888 1.391 . S
C890 H880 0.950 . S
C890 C891 1.386 . S
C890 C892 1.391 . S
C891 C890 1.386 . S
C891 C895 1.393 . S
C892 H881 0.950 . S
C892 C890 1.391 . S
C892 C893 1.400 . S
C893 C887 1.491 . S
C893 C892 1.400 . S
C893 C894 1.398 . S
C894 H882 0.950 . S
C894 C893 1.398 . S
C894 C895 1.391 . S
C895 H883 0.950 . S
C895 C891 1.393 . S
C895 C894 1.391 . S
H896 C904 0.950 . S
H897 C909 0.950 . S
H898 C906 0.950 . S
H899 C908 0.945 1_655 S
H900 C910 0.950 . S
H901 C912 0.950 1_655 S
H902 C914 0.950 . S
H903 C915 0.950 . S
C904 H896 0.950 . S
C904 C905 1.386 . S
C904 C906 1.391 . S
C905 C904 1.386 . S
C905 C909 1.393 . S
C906 H898 0.950 . S
C906 C904 1.391 . S
C906 C907 1.400 . S
C907 C906 1.400 . S
C907 C908 1.398 . S
C907 C913 1.491 . S
C908 H899 0.945 1_455 S
C908 C907 1.398 . S
C908 C909 1.391 . S
C909 H897 0.950 . S
C909 C905 1.393 . S
C909 C908 1.391 . S
C910 H900 0.950 . S
C910 C911 1.386 1_655 S
C910 C912 1.391 1_655 S
C911 C910 1.386 1_455 S
C911 C915 1.393 . S
C912 H901 0.950 1_455 S
C912 C910 1.391 1_455 S
C912 C913 1.400 . S
C913 C907 1.491 . S
C913 C912 1.400 . S
C913 C914 1.398 . S
C914 H902 0.950 . S
C914 C913 1.398 . S
C914 C915 1.391 . S
C915 H903 0.950 . S
C915 C911 1.393 . S
C915 C914 1.391 . S
H916 C924 0.950 . S
H917 C929 0.950 . S
H918 C926 0.950 . S
H919 C928 0.950 . S
H920 C930 0.950 . S
H921 C932 0.950 . S
H922 C934 0.950 . S
H923 C935 0.950 . S
C924 H916 0.950 . S
C924 C925 1.386 . S
C924 C926 1.391 . S
C925 C924 1.386 . S
C925 C929 1.393 . S
C926 H918 0.950 . S
C926 C924 1.391 . S
C926 C927 1.400 . S
C927 C926 1.400 . S
C927 C928 1.398 . S
C927 C933 1.491 . S
C928 H919 0.950 . S
C928 C927 1.398 . S
C928 C929 1.391 . S
C929 H917 0.950 . S
C929 C925 1.393 . S
C929 C928 1.391 . S
C930 H920 0.950 . S
C930 C931 1.386 . S
C930 C932 1.391 . S
C931 C930 1.386 . S
C931 C935 1.393 . S
C932 H921 0.950 . S
C932 C930 1.391 . S
C932 C933 1.400 . S
C933 C927 1.491 . S
C933 C932 1.400 . S
C933 C934 1.398 . S
C934 H922 0.950 . S
C934 C933 1.398 . S
C934 C935 1.391 . S
C935 H923 0.950 . S
C935 C931 1.393 . S
C935 C934 1.391 . S
H936 C944 0.950 . S
H937 C949 0.950 . S
H938 C946 0.950 . S
H939 C948 0.950 . S
H940 C950 0.950 . S
H941 C952 0.950 . S
H942 C954 0.950 . S
H943 C955 0.950 1_554 S
C944 H936 0.950 . S
C944 C945 1.386 . S
C944 C946 1.391 . S
C945 C944 1.386 . S
C945 C949 1.393 . S
C946 H938 0.950 . S
C946 C944 1.391 . S
C946 C947 1.400 . S
C947 C946 1.400 . S
C947 C948 1.398 . S
C947 C953 1.491 . S
C948 H939 0.950 . S
C948 C947 1.398 . S
C948 C949 1.391 . S
C949 H937 0.950 . S
C949 C945 1.393 . S
C949 C948 1.391 . S
C950 H940 0.950 . S
C950 C951 1.386 . S
C950 C952 1.391 . S
C951 C950 1.386 . S
C951 C955 1.393 . S
C952 H941 0.950 . S
C952 C950 1.391 . S
C952 C953 1.400 . S
C953 C947 1.491 . S
C953 C952 1.400 . S
C953 C954 1.398 . S
C954 H942 0.950 . S
C954 C953 1.398 . S
C954 C955 1.391 . S
C955 H943 0.950 1_556 S
C955 C951 1.393 . S
C955 C954 1.391 . S
H956 C964 0.950 . S
H957 C969 0.950 . S
H958 C966 0.950 . S
H959 C968 0.950 . S
H960 C970 0.950 . S
H961 C972 0.950 . S
H962 C974 0.950 . S
H963 C975 0.950 . S
C964 H956 0.950 . S
C964 C965 1.386 . S
C964 C966 1.391 . S
C965 C964 1.386 . S
C965 C969 1.393 . S
C966 H958 0.950 . S
C966 C964 1.391 . S
C966 C967 1.400 . S
C967 C966 1.400 . S
C967 C968 1.398 . S
C967 C973 1.491 . S
C968 H959 0.950 . S
C968 C967 1.398 . S
C968 C969 1.391 . S
C969 H957 0.950 . S
C969 C965 1.393 . S
C969 C968 1.391 . S
C970 H960 0.950 . S
C970 C971 1.386 . S
C970 C972 1.391 . S
C971 C970 1.386 . S
C971 C975 1.393 . S
C972 H961 0.950 . S
C972 C970 1.391 . S
C972 C973 1.400 . S
C973 C967 1.491 . S
C973 C972 1.400 . S
C973 C974 1.398 . S
C974 H962 0.950 . S
C974 C973 1.398 . S
C974 C975 1.391 . S
C975 H963 0.950 . S
C975 C971 1.393 . S
C975 C974 1.391 . S
H976 C984 0.950 . S
H977 C989 0.950 . S
H978 C986 0.950 . S
H979 C988 0.950 . S
H980 C990 0.950 . S
H981 C992 0.950 . S
H982 C994 0.950 . S
H983 C995 0.950 . S
C984 H976 0.950 . S
C984 C985 1.386 . S
C984 C986 1.391 . S
C985 C984 1.386 . S
C985 C989 1.393 1_545 S
C986 H978 0.950 . S
C986 C984 1.391 . S
C986 C987 1.400 . S
C987 C986 1.400 . S
C987 C988 1.398 1_545 S
C987 C993 1.491 . S
C988 H979 0.950 . S
C988 C987 1.398 1_565 S
C988 C989 1.391 . S
C989 H977 0.950 . S
C989 C985 1.393 1_565 S
C989 C988 1.391 . S
C990 H980 0.950 . S
C990 C991 1.386 1_565 S
C990 C992 1.391 . S
C991 C990 1.386 1_545 S
C991 C995 1.393 . S
C992 H981 0.950 . S
C992 C990 1.391 . S
C992 C993 1.400 1_565 S
C993 C987 1.491 . S
C993 C992 1.400 1_545 S
C993 C994 1.398 . S
C994 H982 0.950 . S
C994 C993 1.398 . S
C994 C995 1.391 . S
C995 H983 0.950 . S
C995 C991 1.393 . S
C995 C994 1.391 . S
H996 C1004 0.950 . S
H997 C1009 0.950 . S
H998 C1006 0.950 . S
H999 C1008 0.950 . S
H1000 C1010 0.950 . S
H1001 C1012 0.950 . S
H1002 C1014 0.950 . S
H1003 C1015 0.950 . S
C1004 H996 0.950 . S
C1004 C1005 1.386 . S
C1004 C1006 1.391 . S
C1005 C1004 1.386 . S
C1005 C1009 1.393 . S
C1006 H998 0.950 . S
C1006 C1004 1.391 . S
C1006 C1007 1.400 . S
C1007 C1006 1.400 . S
C1007 C1008 1.398 . S
C1007 C1013 1.491 . S
C1008 H999 0.950 . S
C1008 C1007 1.398 . S
C1008 C1009 1.391 . S
C1009 H997 0.950 . S
C1009 C1005 1.393 . S
C1009 C1008 1.391 . S
C1010 H1000 0.950 . S
C1010 C1011 1.386 . S
C1010 C1012 1.391 . S
C1011 C1010 1.386 . S
C1011 C1015 1.393 . S
C1012 H1001 0.950 . S
C1012 C1010 1.391 . S
C1012 C1013 1.400 . S
C1013 C1007 1.491 . S
C1013 C1012 1.400 . S
C1013 C1014 1.398 . S
C1014 H1002 0.950 . S
C1014 C1013 1.398 . S
C1014 C1015 1.391 . S
C1015 H1003 0.950 . S
C1015 C1011 1.393 . S
C1015 C1014 1.391 . S
H1016 C1024 0.950 . S
H1017 C1029 0.950 . S
H1018 C1026 0.950 . S
H1019 C1028 0.950 . S
H1020 C1030 0.950 . S
H1021 C1032 0.950 . S
H1022 C1034 0.950 . S
H1023 C1035 0.950 . S
C1024 H1016 0.950 . S
C1024 C1025 1.386 . S
C1024 C1026 1.391 . S
C1025 C1024 1.386 . S
C1025 C1029 1.393 . S
C1026 H1018 0.950 . S
C1026 C1024 1.391 . S
C1026 C1027 1.400 . S
C1027 C1026 1.400 . S
C1027 C1028 1.398 . S
C1027 C1033 1.491 . S
C1028 H1019 0.950 . S
C1028 C1027 1.398 . S
C1028 C1029 1.391 . S
C1029 H1017 0.950 . S
C1029 C1025 1.393 . S
C1029 C1028 1.391 . S
C1030 H1020 0.950 . S
C1030 C1031 1.386 . S
C1030 C1032 1.391 . S
C1031 C1030 1.386 . S
C1031 C1035 1.393 . S
C1032 H1021 0.950 . S
C1032 C1030 1.391 . S
C1032 C1033 1.400 . S
C1033 C1027 1.491 . S
C1033 C1032 1.400 . S
C1033 C1034 1.398 . S
C1034 H1022 0.950 . S
C1034 C1033 1.398 . S
C1034 C1035 1.391 . S
C1035 H1023 0.950 . S
C1035 C1031 1.393 . S
C1035 C1034 1.391 . S
H1036 C1044 0.950 . S
H1037 C1049 0.950 . S
H1038 C1046 0.950 . S
H1039 C1048 0.950 . S
H1040 C1050 0.950 . S
H1041 C1052 0.950 . S
H1042 C1054 0.950 . S
H1043 C1055 0.950 . S
C1044 H1036 0.950 . S
C1044 C1045 1.386 . S
C1044 C1046 1.391 . S
C1045 C1044 1.386 . S
C1045 C1049 1.393 . S
C1046 H1038 0.950 . S
C1046 C1044 1.391 . S
C1046 C1047 1.400 . S
C1047 C1046 1.400 . S
C1047 C1048 1.398 . S
C1047 C1053 1.491 . S
C1048 H1039 0.950 . S
C1048 C1047 1.398 . S
C1048 C1049 1.391 . S
C1049 H1037 0.950 . S
C1049 C1045 1.393 . S
C1049 C1048 1.391 . S
C1050 H1040 0.950 . S
C1050 C1051 1.386 . S
C1050 C1052 1.391 . S
C1051 C1050 1.386 . S
C1051 C1055 1.393 . S
C1052 H1041 0.950 . S
C1052 C1050 1.391 . S
C1052 C1053 1.400 . S
C1053 C1047 1.491 . S
C1053 C1052 1.400 . S
C1053 C1054 1.398 . S
C1054 H1042 0.950 . S
C1054 C1053 1.398 . S
C1054 C1055 1.391 . S
C1055 H1043 0.950 . S
C1055 C1051 1.393 . S
C1055 C1054 1.391 . S
H1056 C1064 0.950 . S
H1057 C1069 0.950 . S
H1058 C1066 0.950 . S
H1059 C1068 0.950 . S
H1060 C1070 0.950 . S
H1061 C1072 0.950 . S
H1062 C1074 0.950 . S
H1063 C1075 0.950 . S
C1064 H1056 0.950 . S
C1064 C1065 1.386 . S
C1064 C1066 1.391 . S
C1065 C1064 1.386 . S
C1065 C1069 1.393 . S
C1066 H1058 0.950 . S
C1066 C1064 1.391 . S
C1066 C1067 1.400 . S
C1067 C1066 1.400 . S
C1067 C1068 1.398 . S
C1067 C1073 1.491 . S
C1068 H1059 0.950 . S
C1068 C1067 1.398 . S
C1068 C1069 1.391 . S
C1069 H1057 0.950 . S
C1069 C1065 1.393 . S
C1069 C1068 1.391 . S
C1070 H1060 0.950 . S
C1070 C1071 1.386 . S
C1070 C1072 1.391 . S
C1071 C1070 1.386 . S
C1071 C1075 1.393 . S
C1072 H1061 0.950 . S
C1072 C1070 1.391 . S
C1072 C1073 1.400 . S
C1073 C1067 1.491 . S
C1073 C1072 1.400 . S
C1073 C1074 1.398 . S
C1074 H1062 0.950 . S
C1074 C1073 1.398 . S
C1074 C1075 1.391 . S
C1075 H1063 0.950 . S
C1075 C1071 1.393 . S
C1075 C1074 1.391 . S
H1076 C1084 0.950 . S
H1077 C1089 0.950 . S
H1078 C1086 0.950 . S
H1079 C1088 0.950 . S
H1080 C1090 0.950 . S
H1081 C1092 0.950 . S
H1082 C1094 0.950 . S
H1083 C1095 0.950 . S
C1084 H1076 0.950 . S
C1084 C1085 1.386 . S
C1084 C1086 1.391 . S
C1085 C1084 1.386 . S
C1085 C1089 1.393 . S
C1086 H1078 0.950 . S
C1086 C1084 1.391 . S
C1086 C1087 1.400 . S
C1087 C1086 1.400 . S
C1087 C1088 1.398 . S
C1087 C1093 1.491 . S
C1088 H1079 0.950 . S
C1088 C1087 1.398 . S
C1088 C1089 1.391 . S
C1089 H1077 0.950 . S
C1089 C1085 1.393 . S
C1089 C1088 1.391 . S
C1090 H1080 0.950 . S
C1090 C1091 1.386 . S
C1090 C1092 1.391 . S
C1091 C1090 1.386 . S
C1091 C1095 1.393 . S
C1092 H1081 0.950 . S
C1092 C1090 1.391 . S
C1092 C1093 1.400 . S
C1093 C1087 1.491 . S
C1093 C1092 1.400 . S
C1093 C1094 1.398 . S
C1094 H1082 0.950 . S
C1094 C1093 1.398 . S
C1094 C1095 1.391 . S
C1095 H1083 0.950 . S
C1095 C1091 1.393 . S
C1095 C1094 1.391 . S
H1096 C1104 0.950 . S
H1097 C1109 0.950 . S
H1098 C1106 0.950 . S
H1099 C1108 0.950 . S
H1100 C1110 0.950 . S
H1101 C1112 0.950 . S
H1102 C1114 0.950 . S
H1103 C1115 0.950 . S
C1104 H1096 0.950 . S
C1104 C1105 1.386 . S
C1104 C1106 1.391 . S
C1105 C1104 1.386 . S
C1105 C1109 1.393 . S
C1106 H1098 0.950 . S
C1106 C1104 1.391 . S
C1106 C1107 1.400 . S
C1107 C1106 1.400 . S
C1107 C1108 1.398 . S
C1107 C1113 1.491 . S
C1108 H1099 0.950 . S
C1108 C1107 1.398 . S
C1108 C1109 1.391 . S
C1109 H1097 0.950 . S
C1109 C1105 1.393 . S
C1109 C1108 1.391 . S
C1110 H1100 0.950 . S
C1110 C1111 1.386 . S
C1110 C1112 1.391 . S
C1111 C1110 1.386 . S
C1111 C1115 1.393 . S
C1112 H1101 0.950 . S
C1112 C1110 1.391 . S
C1112 C1113 1.400 . S
C1113 C1107 1.491 . S
C1113 C1112 1.400 . S
C1113 C1114 1.398 . S
C1114 H1102 0.950 . S
C1114 C1113 1.398 . S
C1114 C1115 1.391 . S
C1115 H1103 0.950 . S
C1115 C1111 1.393 . S
C1115 C1114 1.391 . S
H1116 C1124 0.950 . S
H1117 C1129 0.950 . S
H1118 C1126 0.950 . S
H1119 C1128 0.950 . S
H1120 C1130 0.950 . S
H1121 C1132 0.950 . S
H1122 C1134 0.950 . S
H1123 C1135 0.950 . S
C1124 H1116 0.950 . S
C1124 C1125 1.386 . S
C1124 C1126 1.391 . S
C1125 C1124 1.386 . S
C1125 C1129 1.393 . S
C1126 H1118 0.950 . S
C1126 C1124 1.391 . S
C1126 C1127 1.400 . S
C1127 C1126 1.400 . S
C1127 C1128 1.398 . S
C1127 C1133 1.491 . S
C1128 H1119 0.950 . S
C1128 C1127 1.398 . S
C1128 C1129 1.391 . S
C1129 H1117 0.950 . S
C1129 C1125 1.393 . S
C1129 C1128 1.391 . S
C1130 H1120 0.950 . S
C1130 C1131 1.386 . S
C1130 C1132 1.391 . S
C1131 C1130 1.386 . S
C1131 C1135 1.393 . S
C1132 H1121 0.950 . S
C1132 C1130 1.391 . S
C1132 C1133 1.400 . S
C1133 C1127 1.491 . S
C1133 C1132 1.400 . S
C1133 C1134 1.398 . S
C1134 H1122 0.950 . S
C1134 C1133 1.398 . S
C1134 C1135 1.391 . S
C1135 H1123 0.950 . S
C1135 C1131 1.393 . S
C1135 C1134 1.391 . S
H1136 C1144 0.950 . S
H1137 C1149 0.950 . S
H1138 C1146 0.950 . S
H1139 C1148 0.950 . S
H1140 C1150 0.950 . S
H1141 C1152 0.950 . S
H1142 C1154 0.948 . S
H1143 C1155 0.950 1_556 S
C1144 H1136 0.950 . S
C1144 C1145 1.386 . S
C1144 C1146 1.391 . S
C1145 C1144 1.386 . S
C1145 C1149 1.393 . S
C1146 H1138 0.950 . S
C1146 C1144 1.391 . S
C1146 C1147 1.400 . S
C1147 C1146 1.400 . S
C1147 C1148 1.398 . S
C1147 C1153 1.491 . S
C1148 H1139 0.950 . S
C1148 C1147 1.398 . S
C1148 C1149 1.391 . S
C1149 H1137 0.950 . S
C1149 C1145 1.393 . S
C1149 C1148 1.391 . S
C1150 H1140 0.950 . S
C1150 C1151 1.386 . S
C1150 C1152 1.391 . S
C1151 C1150 1.386 . S
C1151 C1155 1.393 . S
C1152 H1141 0.950 . S
C1152 C1150 1.391 . S
C1152 C1153 1.400 . S
C1153 C1147 1.491 . S
C1153 C1152 1.400 . S
C1153 C1154 1.398 . S
C1154 H1142 0.948 . S
C1154 C1153 1.398 . S
C1154 C1155 1.391 . S
C1155 H1143 0.950 1_554 S
C1155 C1151 1.393 . S
C1155 C1154 1.391 . S
H1156 C1164 0.950 . S
H1157 C1169 0.950 . S
H1158 C1166 0.950 . S
H1159 C1168 0.950 . S
H1160 C1170 0.950 . S
H1161 C1172 0.950 . S
H1162 C1174 0.950 . S
H1163 C1175 0.950 . S
C1164 H1156 0.950 . S
C1164 C1165 1.386 . S
C1164 C1166 1.391 . S
C1165 C1164 1.386 . S
C1165 C1169 1.393 . S
C1166 H1158 0.950 . S
C1166 C1164 1.391 . S
C1166 C1167 1.400 . S
C1167 C1166 1.400 . S
C1167 C1168 1.398 . S
C1167 C1173 1.491 . S
C1168 H1159 0.950 . S
C1168 C1167 1.398 . S
C1168 C1169 1.391 . S
C1169 H1157 0.950 . S
C1169 C1165 1.393 . S
C1169 C1168 1.391 . S
C1170 H1160 0.950 . S
C1170 C1171 1.386 . S
C1170 C1172 1.391 . S
C1171 C1170 1.386 . S
C1171 C1175 1.393 . S
C1172 H1161 0.950 . S
C1172 C1170 1.391 . S
C1172 C1173 1.400 . S
C1173 C1167 1.491 . S
C1173 C1172 1.400 . S
C1173 C1174 1.398 . S
C1174 H1162 0.950 . S
C1174 C1173 1.398 . S
C1174 C1175 1.391 . S
C1175 H1163 0.950 . S
C1175 C1171 1.393 . S
C1175 C1174 1.391 . S
H1176 C1184 0.950 . S
H1177 C1189 0.950 . S
H1178 C1186 0.950 . S
H1179 C1188 0.950 . S
H1180 C1190 0.950 . S
H1181 C1192 0.950 . S
H1182 C1194 0.950 . S
H1183 C1195 0.950 . S
C1184 H1176 0.950 . S
C1184 C1185 1.386 . S
C1184 C1186 1.391 . S
C1185 C1184 1.386 . S
C1185 C1189 1.393 . S
C1186 H1178 0.950 . S
C1186 C1184 1.391 . S
C1186 C1187 1.400 . S
C1187 C1186 1.400 . S
C1187 C1188 1.398 . S
C1187 C1193 1.491 . S
C1188 H1179 0.950 . S
C1188 C1187 1.398 . S
C1188 C1189 1.391 . S
C1189 H1177 0.950 . S
C1189 C1185 1.393 . S
C1189 C1188 1.391 . S
C1190 H1180 0.950 . S
C1190 C1191 1.386 . S
C1190 C1192 1.391 . S
C1191 C1190 1.386 . S
C1191 C1195 1.393 . S
C1192 H1181 0.950 . S
C1192 C1190 1.391 . S
C1192 C1193 1.400 . S
C1193 C1187 1.491 . S
C1193 C1192 1.400 . S
C1193 C1194 1.398 . S
C1194 H1182 0.950 . S
C1194 C1193 1.398 . S
C1194 C1195 1.391 . S
C1195 H1183 0.950 . S
C1195 C1191 1.393 . S
C1195 C1194 1.391 . S
H1196 C1204 0.950 . S
H1197 C1209 0.950 . S
H1198 C1206 0.950 . S
H1199 C1208 0.950 . S
H1200 C1210 0.950 . S
H1201 C1212 0.950 . S
H1202 C1214 0.950 . S
H1203 C1215 0.950 . S
C1204 H1196 0.950 . S
C1204 C1205 1.386 . S
C1204 C1206 1.391 . S
C1205 C1204 1.386 . S
C1205 C1209 1.393 . S
C1206 H1198 0.950 . S
C1206 C1204 1.391 . S
C1206 C1207 1.400 . S
C1207 C1206 1.400 . S
C1207 C1208 1.398 . S
C1207 C1213 1.491 . S
C1208 H1199 0.950 . S
C1208 C1207 1.398 . S
C1208 C1209 1.391 . S
C1209 H1197 0.950 . S
C1209 C1205 1.393 . S
C1209 C1208 1.391 . S
C1210 H1200 0.950 . S
C1210 C1211 1.386 . S
C1210 C1212 1.391 . S
C1211 C1210 1.386 . S
C1211 C1215 1.393 . S
C1212 H1201 0.950 . S
C1212 C1210 1.391 . S
C1212 C1213 1.400 . S
C1213 C1207 1.491 . S
C1213 C1212 1.400 . S
C1213 C1214 1.398 . S
C1214 H1202 0.950 . S
C1214 C1213 1.398 . S
C1214 C1215 1.391 . S
C1215 H1203 0.950 . S
C1215 C1211 1.393 . S
C1215 C1214 1.391 . S
H1216 C1224 0.950 . S
H1217 C1229 0.950 . S
H1218 C1226 0.950 . S
H1219 C1228 0.950 . S
H1220 C1230 0.950 . S
H1221 C1232 0.950 . S
H1222 C1234 0.950 . S
H1223 C1235 0.950 . S
C1224 H1216 0.950 . S
C1224 C1225 1.386 . S
C1224 C1226 1.391 . S
C1225 C1224 1.386 . S
C1225 C1229 1.393 . S
C1226 H1218 0.950 . S
C1226 C1224 1.391 . S
C1226 C1227 1.400 . S
C1227 C1226 1.400 . S
C1227 C1228 1.398 . S
C1227 C1233 1.491 . S
C1228 H1219 0.950 . S
C1228 C1227 1.398 . S
C1228 C1229 1.391 . S
C1229 H1217 0.950 . S
C1229 C1225 1.393 . S
C1229 C1228 1.391 . S
C1230 H1220 0.950 . S
C1230 C1231 1.386 . S
C1230 C1232 1.391 . S
C1231 C1230 1.386 . S
C1231 C1235 1.393 . S
C1232 H1221 0.950 . S
C1232 C1230 1.391 . S
C1232 C1233 1.400 . S
C1233 C1227 1.491 . S
C1233 C1232 1.400 . S
C1233 C1234 1.398 . S
C1234 H1222 0.950 . S
C1234 C1233 1.398 . S
C1234 C1235 1.391 . S
C1235 H1223 0.950 . S
C1235 C1231 1.393 . S
C1235 C1234 1.391 . S
H1236 C1244 0.950 . S
H1237 C1249 0.950 . S
H1238 C1246 0.950 . S
H1239 C1248 0.950 . S
H1240 C1250 0.950 . S
H1241 C1252 0.950 . S
H1242 C1254 0.950 . S
H1243 C1255 0.950 . S
C1244 H1236 0.950 . S
C1244 C1245 1.386 . S
C1244 C1246 1.391 . S
C1245 C1244 1.386 . S
C1245 C1249 1.393 . S
C1246 H1238 0.950 . S
C1246 C1244 1.391 . S
C1246 C1247 1.400 . S
C1247 C1246 1.400 . S
C1247 C1248 1.398 . S
C1247 C1253 1.491 . S
C1248 H1239 0.950 . S
C1248 C1247 1.398 . S
C1248 C1249 1.391 . S
C1249 H1237 0.950 . S
C1249 C1245 1.393 . S
C1249 C1248 1.391 . S
C1250 H1240 0.950 . S
C1250 C1251 1.386 . S
C1250 C1252 1.391 . S
C1251 C1250 1.386 . S
C1251 C1255 1.393 1_565 S
C1252 H1241 0.950 . S
C1252 C1250 1.391 . S
C1252 C1253 1.400 . S
C1253 C1247 1.491 . S
C1253 C1252 1.400 . S
C1253 C1254 1.398 . S
C1254 H1242 0.950 . S
C1254 C1253 1.398 . S
C1254 C1255 1.391 1_565 S
C1255 H1243 0.950 . S
C1255 C1251 1.393 1_545 S
C1255 C1254 1.391 1_545 S
H1256 C1264 0.950 . S
H1257 C1269 0.950 . S
H1258 C1266 0.950 . S
H1259 C1268 0.950 . S
H1260 C1270 0.950 . S
H1261 C1272 0.950 . S
H1262 C1274 0.950 . S
H1263 C1275 0.950 . S
C1264 H1256 0.950 . S
C1264 C1265 1.386 . S
C1264 C1266 1.391 . S
C1265 C1264 1.386 . S
C1265 C1269 1.393 . S
C1266 H1258 0.950 . S
C1266 C1264 1.391 . S
C1266 C1267 1.400 . S
C1267 C1266 1.400 . S
C1267 C1268 1.398 . S
C1267 C1273 1.491 . S
C1268 H1259 0.950 . S
C1268 C1267 1.398 . S
C1268 C1269 1.391 . S
C1269 H1257 0.950 . S
C1269 C1265 1.393 . S
C1269 C1268 1.391 . S
C1270 H1260 0.950 . S
C1270 C1271 1.386 . S
C1270 C1272 1.391 . S
C1271 C1270 1.386 . S
C1271 C1275 1.393 . S
C1272 H1261 0.950 . S
C1272 C1270 1.391 . S
C1272 C1273 1.400 . S
C1273 C1267 1.491 . S
C1273 C1272 1.400 . S
C1273 C1274 1.398 . S
C1274 H1262 0.950 . S
C1274 C1273 1.398 . S
C1274 C1275 1.391 . S
C1275 H1263 0.950 . S
C1275 C1271 1.393 . S
C1275 C1274 1.391 . S
H1276 C1284 0.950 . S
H1277 C1289 0.950 . S
H1278 C1286 0.950 . S
H1279 C1288 0.950 . S
H1280 C1290 0.950 . S
H1281 C1292 0.950 . S
H1282 C1294 0.950 . S
H1283 C1295 0.950 . S
C1284 H1276 0.950 . S
C1284 C1285 1.386 . S
C1284 C1286 1.391 . S
C1285 C1284 1.386 . S
C1285 C1289 1.393 . S
C1286 H1278 0.950 . S
C1286 C1284 1.391 . S
C1286 C1287 1.400 . S
C1287 C1286 1.400 . S
C1287 C1288 1.398 . S
C1287 C1293 1.491 . S
C1288 H1279 0.950 . S
C1288 C1287 1.398 . S
C1288 C1289 1.391 . S
C1289 H1277 0.950 . S
C1289 C1285 1.393 . S
C1289 C1288 1.391 . S
C1290 H1280 0.950 . S
C1290 C1291 1.386 . S
C1290 C1292 1.391 . S
C1291 C1290 1.386 . S
C1291 C1295 1.393 . S
C1292 H1281 0.950 . S
C1292 C1290 1.391 . S
C1292 C1293 1.400 . S
C1293 C1287 1.491 . S
C1293 C1292 1.400 . S
C1293 C1294 1.398 . S
C1294 H1282 0.950 . S
C1294 C1293 1.398 . S
C1294 C1295 1.391 . S
C1295 H1283 0.950 . S
C1295 C1291 1.393 . S
C1295 C1294 1.391 . S
H1296 C1304 0.950 . S
H1297 C1309 0.950 1_655 S
H1298 C1306 0.950 . S
H1299 C1308 0.950 1_655 S
H1300 C1310 0.950 . S
H1301 C1312 0.950 . S
H1302 C1314 0.950 . S
H1303 C1315 0.950 . S
C1304 H1296 0.950 . S
C1304 C1305 1.386 . S
C1304 C1306 1.391 . S
C1305 C1304 1.386 . S
C1305 C1309 1.393 . S
C1306 H1298 0.950 . S
C1306 C1304 1.391 . S
C1306 C1307 1.400 . S
C1307 C1306 1.400 . S
C1307 C1308 1.398 . S
C1307 C1313 1.491 . S
C1308 H1299 0.950 1_455 S
C1308 C1307 1.398 . S
C1308 C1309 1.391 . S
C1309 H1297 0.950 1_455 S
C1309 C1305 1.393 . S
C1309 C1308 1.391 . S
C1310 H1300 0.950 . S
C1310 C1311 1.386 1_554 S
C1310 C1312 1.391 1_554 S
C1311 C1310 1.386 1_556 S
C1311 C1315 1.393 . S
C1312 H1301 0.950 . S
C1312 C1310 1.391 1_556 S
C1312 C1313 1.400 . S
C1313 C1307 1.491 . S
C1313 C1312 1.400 . S
C1313 C1314 1.398 . S
C1314 H1302 0.950 . S
C1314 C1313 1.398 . S
C1314 C1315 1.391 . S
C1315 H1303 0.950 . S
C1315 C1311 1.393 . S
C1315 C1314 1.391 . S
H1316 C1324 0.950 . S
H1317 C1329 0.950 . S
H1318 C1326 0.950 . S
H1319 C1328 0.950 . S
H1320 C1330 0.950 . S
H1321 C1332 0.950 . S
H1322 C1334 0.950 . S
H1323 C1335 0.950 . S
C1324 H1316 0.950 . S
C1324 C1325 1.386 . S
C1324 C1326 1.391 . S
C1325 C1324 1.386 . S
C1325 C1329 1.393 . S
C1326 H1318 0.950 . S
C1326 C1324 1.391 . S
C1326 C1327 1.400 . S
C1327 C1326 1.400 . S
C1327 C1328 1.398 . S
C1327 C1333 1.491 . S
C1328 H1319 0.950 . S
C1328 C1327 1.398 . S
C1328 C1329 1.391 . S
C1329 H1317 0.950 . S
C1329 C1325 1.393 . S
C1329 C1328 1.391 . S
C1330 H1320 0.950 . S
C1330 C1331 1.386 . S
C1330 C1332 1.391 . S
C1331 C1330 1.386 . S
C1331 C1335 1.393 . S
C1332 H1321 0.950 . S
C1332 C1330 1.391 . S
C1332 C1333 1.400 . S
C1333 C1327 1.491 . S
C1333 C1332 1.400 . S
C1333 C1334 1.398 . S
C1334 H1322 0.950 . S
C1334 C1333 1.398 . S
C1334 C1335 1.391 . S
C1335 H1323 0.950 . S
C1335 C1331 1.393 . S
C1335 C1334 1.391 . S
H1336 C1344 0.950 . S
H1337 C1349 0.950 . S
H1338 C1346 0.950 . S
H1339 C1348 0.950 . S
H1340 C1350 0.950 . S
H1341 C1352 0.950 . S
H1342 C1354 0.950 . S
H1343 C1355 0.950 . S
C1344 H1336 0.950 . S
C1344 C1345 1.386 . S
C1344 C1346 1.391 . S
C1345 C1344 1.386 . S
C1345 C1349 1.393 . S
C1346 H1338 0.950 . S
C1346 C1344 1.391 . S
C1346 C1347 1.400 . S
C1347 C1346 1.400 . S
C1347 C1348 1.398 . S
C1347 C1353 1.491 . S
C1348 H1339 0.950 . S
C1348 C1347 1.398 . S
C1348 C1349 1.391 . S
C1349 H1337 0.950 . S
C1349 C1345 1.393 . S
C1349 C1348 1.391 . S
C1350 H1340 0.950 . S
C1350 C1351 1.386 . S
C1350 C1352 1.391 . S
C1351 C1350 1.386 . S
C1351 C1355 1.393 . S
C1352 H1341 0.950 . S
C1352 C1350 1.391 . S
C1352 C1353 1.400 . S
C1353 C1347 1.491 . S
C1353 C1352 1.400 . S
C1353 C1354 1.398 . S
C1354 H1342 0.950 . S
C1354 C1353 1.398 . S
C1354 C1355 1.391 . S
C1355 H1343 0.950 . S
C1355 C1351 1.393 . S
C1355 C1354 1.391 . S
H1356 C1364 0.950 . S
H1357 C1369 0.950 . S
H1358 C1366 0.950 . S
H1359 C1368 0.950 . S
H1360 C1370 0.950 . S
H1361 C1372 0.950 . S
H1362 C1374 0.950 . S
H1363 C1375 0.950 . S
C1364 H1356 0.950 . S
C1364 C1365 1.386 . S
C1364 C1366 1.391 . S
C1365 C1364 1.386 . S
C1365 C1369 1.393 . S
C1366 H1358 0.950 . S
C1366 C1364 1.391 . S
C1366 C1367 1.400 . S
C1367 C1366 1.400 . S
C1367 C1368 1.398 . S
C1367 C1373 1.491 . S
C1368 H1359 0.950 . S
C1368 C1367 1.398 . S
C1368 C1369 1.391 . S
C1369 H1357 0.950 . S
C1369 C1365 1.393 . S
C1369 C1368 1.391 . S
C1370 H1360 0.950 . S
C1370 C1371 1.386 . S
C1370 C1372 1.391 . S
C1371 C1370 1.386 . S
C1371 C1375 1.393 . S
C1372 H1361 0.950 . S
C1372 C1370 1.391 . S
C1372 C1373 1.400 . S
C1373 C1367 1.491 . S
C1373 C1372 1.400 . S
C1373 C1374 1.398 . S
C1374 H1362 0.950 . S
C1374 C1373 1.398 . S
C1374 C1375 1.391 . S
C1375 H1363 0.950 . S
C1375 C1371 1.393 . S
C1375 C1374 1.391 . S
H1376 C1384 0.950 . S
H1377 C1389 0.950 . S
H1378 C1386 0.950 . S
H1379 C1388 0.950 . S
H1380 C1390 0.950 . S
H1381 C1392 0.950 . S
H1382 C1394 0.950 1_655 S
H1383 C1395 0.950 . S
C1384 H1376 0.950 . S
C1384 C1385 1.386 1_655 S
C1384 C1386 1.391 . S
C1385 C1384 1.386 1_455 S
C1385 C1389 1.393 . S
C1386 H1378 0.950 . S
C1386 C1384 1.391 . S
C1386 C1387 1.400 1_655 S
C1387 C1386 1.400 1_455 S
C1387 C1388 1.398 . S
C1387 C1393 1.491 . S
C1388 H1379 0.950 . S
C1388 C1387 1.398 . S
C1388 C1389 1.391 . S
C1389 H1377 0.950 . S
C1389 C1385 1.393 . S
C1389 C1388 1.391 . S
C1390 H1380 0.950 . S
C1390 C1391 1.386 . S
C1390 C1392 1.391 . S
C1391 C1390 1.386 . S
C1391 C1395 1.393 . S
C1392 H1381 0.950 . S
C1392 C1390 1.391 . S
C1392 C1393 1.400 . S
C1393 C1387 1.491 . S
C1393 C1392 1.400 . S
C1393 C1394 1.398 . S
C1394 H1382 0.950 1_455 S
C1394 C1393 1.398 . S
C1394 C1395 1.391 . S
C1395 H1383 0.950 . S
C1395 C1391 1.393 . S
C1395 C1394 1.391 . S
H1396 C1404 0.950 . S
H1397 C1409 0.950 . S
H1398 C1406 0.950 . S
H1399 C1408 0.950 . S
H1400 C1410 0.950 . S
H1401 C1412 0.950 . S
H1402 C1414 0.950 . S
H1403 C1415 0.950 . S
C1404 H1396 0.950 . S
C1404 C1405 1.386 . S
C1404 C1406 1.391 . S
C1405 C1404 1.386 . S
C1405 C1409 1.393 . S
C1406 H1398 0.950 . S
C1406 C1404 1.391 . S
C1406 C1407 1.400 . S
C1407 C1406 1.400 . S
C1407 C1408 1.398 . S
C1407 C1413 1.491 . S
C1408 H1399 0.950 . S
C1408 C1407 1.398 . S
C1408 C1409 1.391 . S
C1409 H1397 0.950 . S
C1409 C1405 1.393 . S
C1409 C1408 1.391 . S
C1410 H1400 0.950 . S
C1410 C1411 1.386 . S
C1410 C1412 1.391 . S
C1411 C1410 1.386 . S
C1411 C1415 1.393 . S
C1412 H1401 0.950 . S
C1412 C1410 1.391 . S
C1412 C1413 1.400 . S
C1413 C1407 1.491 . S
C1413 C1412 1.400 . S
C1413 C1414 1.398 . S
C1414 H1402 0.950 . S
C1414 C1413 1.398 . S
C1414 C1415 1.391 . S
C1415 H1403 0.950 . S
C1415 C1411 1.393 . S
C1415 C1414 1.391 . S
H1416 C1424 0.950 . S
H1417 C1429 0.950 . S
H1418 C1426 0.950 . S
H1419 C1428 0.950 . S
H1420 C1430 0.950 . S
H1421 C1432 0.950 . S
H1422 C1434 0.950 . S
H1423 C1435 0.950 . S
C1424 H1416 0.950 . S
C1424 C1425 1.386 . S
C1424 C1426 1.391 . S
C1425 C1424 1.386 . S
C1425 C1429 1.393 . S
C1426 H1418 0.950 . S
C1426 C1424 1.391 . S
C1426 C1427 1.400 . S
C1427 C1426 1.400 . S
C1427 C1428 1.398 . S
C1427 C1433 1.491 . S
C1428 H1419 0.950 . S
C1428 C1427 1.398 . S
C1428 C1429 1.391 . S
C1429 H1417 0.950 . S
C1429 C1425 1.393 . S
C1429 C1428 1.391 . S
C1430 H1420 0.950 . S
C1430 C1431 1.386 . S
C1430 C1432 1.391 . S
C1431 C1430 1.386 . S
C1431 C1435 1.393 . S
C1432 H1421 0.950 . S
C1432 C1430 1.391 . S
C1432 C1433 1.400 . S
C1433 C1427 1.491 . S
C1433 C1432 1.400 . S
C1433 C1434 1.398 . S
C1434 H1422 0.950 . S
C1434 C1433 1.398 . S
C1434 C1435 1.391 . S
C1435 H1423 0.950 . S
C1435 C1431 1.393 . S
C1435 C1434 1.391 . S
H1436 C1444 0.950 . S
H1437 C1449 0.950 . S
H1438 C1446 0.950 . S
H1439 C1448 0.950 . S
H1440 C1450 0.950 . S
H1441 C1452 0.950 . S
H1442 C1454 0.950 . S
H1443 C1455 0.950 . S
C1444 H1436 0.950 . S
C1444 C1445 1.386 . S
C1444 C1446 1.391 . S
C1445 C1444 1.386 . S
C1445 C1449 1.393 . S
C1446 H1438 0.950 . S
C1446 C1444 1.391 . S
C1446 C1447 1.400 . S
C1447 C1446 1.400 . S
C1447 C1448 1.398 . S
C1447 C1453 1.491 . S
C1448 H1439 0.950 . S
C1448 C1447 1.398 . S
C1448 C1449 1.391 . S
C1449 H1437 0.950 . S
C1449 C1445 1.393 . S
C1449 C1448 1.391 . S
C1450 H1440 0.950 . S
C1450 C1451 1.386 . S
C1450 C1452 1.391 . S
C1451 C1450 1.386 . S
C1451 C1455 1.393 . S
C1452 H1441 0.950 . S
C1452 C1450 1.391 . S
C1452 C1453 1.400 . S
C1453 C1447 1.491 . S
C1453 C1452 1.400 . S
C1453 C1454 1.398 . S
C1454 H1442 0.950 . S
C1454 C1453 1.398 . S
C1454 C1455 1.391 . S
C1455 H1443 0.950 . S
C1455 C1451 1.393 . S
C1455 C1454 1.391 . S
H1456 C1464 0.950 . S
H1457 C1469 0.950 . S
H1458 C1466 0.950 . S
H1459 C1468 0.950 . S
H1460 C1470 0.950 1_455 S
H1461 C1472 0.950 . S
H1462 C1474 0.950 . S
H1463 C1475 0.950 . S
C1464 H1456 0.950 . S
C1464 C1465 1.386 . S
C1464 C1466 1.391 . S
C1465 C1464 1.386 . S
C1465 C1469 1.393 . S
C1466 H1458 0.950 . S
C1466 C1464 1.391 . S
C1466 C1467 1.400 . S
C1467 C1466 1.400 . S
C1467 C1468 1.398 . S
C1467 C1473 1.491 . S
C1468 H1459 0.950 . S
C1468 C1467 1.398 . S
C1468 C1469 1.391 . S
C1469 H1457 0.950 . S
C1469 C1465 1.393 . S
C1469 C1468 1.391 . S
C1470 H1460 0.950 1_655 S
C1470 C1471 1.386 . S
C1470 C1472 1.391 . S
C1471 C1470 1.386 . S
C1471 C1475 1.393 . S
C1472 H1461 0.950 . S
C1472 C1470 1.391 . S
C1472 C1473 1.400 . S
C1473 C1467 1.491 . S
C1473 C1472 1.400 . S
C1473 C1474 1.398 . S
C1474 H1462 0.950 . S
C1474 C1473 1.398 . S
C1474 C1475 1.391 . S
C1475 H1463 0.950 . S
C1475 C1471 1.393 . S
C1475 C1474 1.391 . S
H1476 C1484 0.950 . S
H1477 C1489 0.950 . S
H1478 C1486 0.950 . S
H1479 C1488 0.950 . S
H1480 C1490 0.950 . S
H1481 C1492 0.950 . S
H1482 C1494 0.950 . S
H1483 C1495 0.950 . S
C1484 H1476 0.950 . S
C1484 C1485 1.386 . S
C1484 C1486 1.391 . S
C1485 C1484 1.386 . S
C1485 C1489 1.393 . S
C1486 H1478 0.950 . S
C1486 C1484 1.391 . S
C1486 C1487 1.400 . S
C1487 C1486 1.400 . S
C1487 C1488 1.398 . S
C1487 C1493 1.491 . S
C1488 H1479 0.950 . S
C1488 C1487 1.398 . S
C1488 C1489 1.391 . S
C1489 H1477 0.950 . S
C1489 C1485 1.393 . S
C1489 C1488 1.391 . S
C1490 H1480 0.950 . S
C1490 C1491 1.386 . S
C1490 C1492 1.391 . S
C1491 C1490 1.386 . S
C1491 C1495 1.393 . S
C1492 H1481 0.950 . S
C1492 C1490 1.391 . S
C1492 C1493 1.400 . S
C1493 C1487 1.491 . S
C1493 C1492 1.400 . S
C1493 C1494 1.398 . S
C1494 H1482 0.950 . S
C1494 C1493 1.398 . S
C1494 C1495 1.391 . S
C1495 H1483 0.950 . S
C1495 C1491 1.393 . S
C1495 C1494 1.391 . S
H1496 C1504 0.950 . S
H1497 C1509 0.950 1_565 S
H1498 C1506 0.950 . S
H1499 C1508 0.949 1_565 S
H1500 C1510 0.950 . S
H1501 C1512 0.950 . S
H1502 C1514 0.950 . S
H1503 C1515 0.950 . S
C1504 H1496 0.950 . S
C1504 C1505 1.386 . S
C1504 C1506 1.391 . S
C1505 C1504 1.386 . S
C1505 C1509 1.393 . S
C1506 H1498 0.950 . S
C1506 C1504 1.391 . S
C1506 C1507 1.400 . S
C1507 C1506 1.400 . S
C1507 C1508 1.398 . S
C1507 C1513 1.491 . S
C1508 H1499 0.949 1_545 S
C1508 C1507 1.398 . S
C1508 C1509 1.391 . S
C1509 H1497 0.950 1_545 S
C1509 C1505 1.393 . S
C1509 C1508 1.391 . S
C1510 H1500 0.950 . S
C1510 C1511 1.386 . S
C1510 C1512 1.391 . S
C1511 C1510 1.386 . S
C1511 C1515 1.393 . S
C1512 H1501 0.950 . S
C1512 C1510 1.391 . S
C1512 C1513 1.400 . S
C1513 C1507 1.491 . S
C1513 C1512 1.400 . S
C1513 C1514 1.398 . S
C1514 H1502 0.950 . S
C1514 C1513 1.398 . S
C1514 C1515 1.391 . S
C1515 H1503 0.950 . S
C1515 C1511 1.393 . S
C1515 C1514 1.391 . S
H1516 C1524 0.950 . S
H1517 C1529 0.950 . S
H1518 C1526 0.950 . S
H1519 C1528 0.950 . S
H1520 C1530 0.950 . S
H1521 C1532 0.950 . S
H1522 C1534 0.950 . S
H1523 C1535 0.950 . S
C1524 H1516 0.950 . S
C1524 C1525 1.386 . S
C1524 C1526 1.391 . S
C1525 C1524 1.386 . S
C1525 C1529 1.393 . S
C1526 H1518 0.950 . S
C1526 C1524 1.391 . S
C1526 C1527 1.400 . S
C1527 C1526 1.400 . S
C1527 C1528 1.398 . S
C1527 C1533 1.491 . S
C1528 H1519 0.950 . S
C1528 C1527 1.398 . S
C1528 C1529 1.391 . S
C1529 H1517 0.950 . S
C1529 C1525 1.393 . S
C1529 C1528 1.391 . S
C1530 H1520 0.950 . S
C1530 C1531 1.386 . S
C1530 C1532 1.391 . S
C1531 C1530 1.386 . S
C1531 C1535 1.393 . S
C1532 H1521 0.950 . S
C1532 C1530 1.391 . S
C1532 C1533 1.400 . S
C1533 C1527 1.491 . S
C1533 C1532 1.400 . S
C1533 C1534 1.398 . S
C1534 H1522 0.950 . S
C1534 C1533 1.398 . S
C1534 C1535 1.391 . S
C1535 H1523 0.950 . S
C1535 C1531 1.393 . S
C1535 C1534 1.391 . S
H1536 C1544 0.950 . S
H1537 C1549 0.950 . S
H1538 C1546 0.950 . S
H1539 C1548 0.950 . S
H1540 C1550 0.950 . S
H1541 C1552 0.950 . S
H1542 C1554 0.950 . S
H1543 C1555 0.950 . S
C1544 H1536 0.950 . S
C1544 C1545 1.386 . S
C1544 C1546 1.391 . S
C1545 C1544 1.386 . S
C1545 C1549 1.393 . S
C1546 H1538 0.950 . S
C1546 C1544 1.391 . S
C1546 C1547 1.400 . S
C1547 C1546 1.400 . S
C1547 C1548 1.398 . S
C1547 C1553 1.491 . S
C1548 H1539 0.950 . S
C1548 C1547 1.398 . S
C1548 C1549 1.391 . S
C1549 H1537 0.950 . S
C1549 C1545 1.393 . S
C1549 C1548 1.391 . S
C1550 H1540 0.950 . S
C1550 C1551 1.386 . S
C1550 C1552 1.391 . S
C1551 C1550 1.386 . S
C1551 C1555 1.393 1_655 S
C1552 H1541 0.950 . S
C1552 C1550 1.391 . S
C1552 C1553 1.400 . S
C1553 C1547 1.491 . S
C1553 C1552 1.400 . S
C1553 C1554 1.398 . S
C1554 H1542 0.950 . S
C1554 C1553 1.398 . S
C1554 C1555 1.391 1_655 S
C1555 H1543 0.950 . S
C1555 C1551 1.393 1_455 S
C1555 C1554 1.391 1_455 S
H1556 C1564 0.950 . S
H1557 C1569 0.950 . S
H1558 C1566 0.950 . S
H1559 C1568 0.950 . S
H1560 C1570 0.950 . S
H1561 C1572 0.950 . S
H1562 C1574 0.950 . S
H1563 C1575 0.950 . S
C1564 H1556 0.950 . S
C1564 C1565 1.386 . S
C1564 C1566 1.391 . S
C1565 C1564 1.386 . S
C1565 C1569 1.393 . S
C1566 H1558 0.950 . S
C1566 C1564 1.391 . S
C1566 C1567 1.400 . S
C1567 C1566 1.400 . S
C1567 C1568 1.398 . S
C1567 C1573 1.491 . S
C1568 H1559 0.950 . S
C1568 C1567 1.398 . S
C1568 C1569 1.391 . S
C1569 H1557 0.950 . S
C1569 C1565 1.393 . S
C1569 C1568 1.391 . S
C1570 H1560 0.950 . S
C1570 C1571 1.386 . S
C1570 C1572 1.391 . S
C1571 C1570 1.386 . S
C1571 C1575 1.393 . S
C1572 H1561 0.950 . S
C1572 C1570 1.391 . S
C1572 C1573 1.400 . S
C1573 C1567 1.491 . S
C1573 C1572 1.400 . S
C1573 C1574 1.398 . S
C1574 H1562 0.950 . S
C1574 C1573 1.398 . S
C1574 C1575 1.391 . S
C1575 H1563 0.950 . S
C1575 C1571 1.393 . S
C1575 C1574 1.391 . S
H1576 C1584 0.950 1_565 S
H1577 C1589 0.950 . S
H1578 C1586 0.950 . S
H1579 C1588 0.950 . S
H1580 C1590 0.950 . S
H1581 C1592 0.950 . S
H1582 C1594 0.950 . S
H1583 C1595 0.950 . S
C1584 H1576 0.950 1_545 S
C1584 C1585 1.386 . S
C1584 C1586 1.391 . S
C1585 C1584 1.386 . S
C1585 C1589 1.393 . S
C1586 H1578 0.950 . S
C1586 C1584 1.391 . S
C1586 C1587 1.400 . S
C1587 C1586 1.400 . S
C1587 C1588 1.398 . S
C1587 C1593 1.491 . S
C1588 H1579 0.950 . S
C1588 C1587 1.398 . S
C1588 C1589 1.391 . S
C1589 H1577 0.950 . S
C1589 C1585 1.393 . S
C1589 C1588 1.391 . S
C1590 H1580 0.950 . S
C1590 C1591 1.386 . S
C1590 C1592 1.391 . S
C1591 C1590 1.386 . S
C1591 C1595 1.393 . S
C1592 H1581 0.950 . S
C1592 C1590 1.391 . S
C1592 C1593 1.400 . S
C1593 C1587 1.491 . S
C1593 C1592 1.400 . S
C1593 C1594 1.398 . S
C1594 H1582 0.950 . S
C1594 C1593 1.398 . S
C1594 C1595 1.391 . S
C1595 H1583 0.950 . S
C1595 C1591 1.393 . S
C1595 C1594 1.391 . S
H1596 C1604 0.950 . S
H1597 C1609 0.950 . S
H1598 C1606 0.950 . S
H1599 C1608 0.950 . S
H1600 C1610 0.950 . S
H1601 C1612 0.950 . S
H1602 C1614 0.950 . S
H1603 C1615 0.950 . S
C1604 H1596 0.950 . S
C1604 C1605 1.386 . S
C1604 C1606 1.391 . S
C1605 C1604 1.386 . S
C1605 C1609 1.393 . S
C1606 H1598 0.950 . S
C1606 C1604 1.391 . S
C1606 C1607 1.400 . S
C1607 C1606 1.400 . S
C1607 C1608 1.398 . S
C1607 C1613 1.491 . S
C1608 H1599 0.950 . S
C1608 C1607 1.398 . S
C1608 C1609 1.391 . S
C1609 H1597 0.950 . S
C1609 C1605 1.393 . S
C1609 C1608 1.391 . S
C1610 H1600 0.950 . S
C1610 C1611 1.386 . S
C1610 C1612 1.391 . S
C1611 C1610 1.386 . S
C1611 C1615 1.393 . S
C1612 H1601 0.950 . S
C1612 C1610 1.391 . S
C1612 C1613 1.400 . S
C1613 C1607 1.491 . S
C1613 C1612 1.400 . S
C1613 C1614 1.398 . S
C1614 H1602 0.950 . S
C1614 C1613 1.398 . S
C1614 C1615 1.391 . S
C1615 H1603 0.950 . S
C1615 C1611 1.393 . S
C1615 C1614 1.391 . S
H1616 C1624 0.950 . S
H1617 C1629 0.950 1_556 S
H1618 C1626 0.950 . S
H1619 C1628 0.950 1_556 S
H1620 C1630 0.950 . S
H1621 C1632 0.963 . S
H1622 C1634 0.950 . S
H1623 C1635 0.950 . S
C1624 H1616 0.950 . S
C1624 C1625 1.386 . S
C1624 C1626 1.391 . S
C1625 C1624 1.386 . S
C1625 C1629 1.393 . S
C1626 H1618 0.950 . S
C1626 C1624 1.391 . S
C1626 C1627 1.400 . S
C1627 C1626 1.400 . S
C1627 C1628 1.398 . S
C1627 C1633 1.491 . S
C1628 H1619 0.950 1_554 S
C1628 C1627 1.398 . S
C1628 C1629 1.391 . S
C1629 H1617 0.950 1_554 S
C1629 C1625 1.393 . S
C1629 C1628 1.391 . S
C1630 H1620 0.950 . S
C1630 C1631 1.386 1_565 S
C1630 C1632 1.391 . S
C1631 C1630 1.386 1_545 S
C1631 C1635 1.393 . S
C1632 H1621 0.963 . S
C1632 C1630 1.391 . S
C1632 C1633 1.400 . S
C1633 C1627 1.491 . S
C1633 C1632 1.400 . S
C1633 C1634 1.398 . S
C1634 H1622 0.950 . S
C1634 C1633 1.398 . S
C1634 C1635 1.391 1_565 S
C1635 H1623 0.950 . S
C1635 C1631 1.393 . S
C1635 C1634 1.391 1_545 S
H1636 C1644 0.950 . S
H1637 C1649 0.950 . S
H1638 C1646 0.950 . S
H1639 C1648 0.950 1_556 S
H1640 C1650 0.950 . S
H1641 C1652 0.950 . S
H1642 C1654 0.950 . S
H1643 C1655 0.950 . S
C1644 H1636 0.950 . S
C1644 C1645 1.385 1_554 S
C1644 C1646 1.391 . S
C1645 C1644 1.385 1_556 S
C1645 C1649 1.393 . S
C1646 H1638 0.950 . S
C1646 C1644 1.391 . S
C1646 C1647 1.400 . S
C1647 C1646 1.400 . S
C1647 C1648 1.398 . S
C1647 C1653 1.491 . S
C1648 H1639 0.950 1_554 S
C1648 C1647 1.398 . S
C1648 C1649 1.391 1_554 S
C1649 H1637 0.950 . S
C1649 C1645 1.393 . S
C1649 C1648 1.391 1_556 S
C1650 H1640 0.950 . S
C1650 C1651 1.386 . S
C1650 C1652 1.391 . S
C1651 C1650 1.386 . S
C1651 C1655 1.393 . S
C1652 H1641 0.950 . S
C1652 C1650 1.391 . S
C1652 C1653 1.400 . S
C1653 C1647 1.491 . S
C1653 C1652 1.400 . S
C1653 C1654 1.398 . S
C1654 H1642 0.950 . S
C1654 C1653 1.398 . S
C1654 C1655 1.391 . S
C1655 H1643 0.950 . S
C1655 C1651 1.393 . S
C1655 C1654 1.391 . S
H1656 C1664 0.950 . S
H1657 C1669 0.950 . S
H1658 C1666 0.950 . S
H1659 C1668 0.950 . S
H1660 C1670 0.950 . S
H1661 C1672 0.950 . S
H1662 C1674 0.950 . S
H1663 C1675 0.950 . S
C1664 H1656 0.950 . S
C1664 C1665 1.386 . S
C1664 C1666 1.391 . S
C1665 C1664 1.386 . S
C1665 C1669 1.393 . S
C1666 H1658 0.950 . S
C1666 C1664 1.391 . S
C1666 C1667 1.400 . S
C1667 C1666 1.400 . S
C1667 C1668 1.398 . S
C1667 C1673 1.491 . S
C1668 H1659 0.950 . S
C1668 C1667 1.398 . S
C1668 C1669 1.391 . S
C1669 H1657 0.950 . S
C1669 C1665 1.393 . S
C1669 C1668 1.391 . S
C1670 H1660 0.950 . S
C1670 C1671 1.386 . S
C1670 C1672 1.391 . S
C1671 C1670 1.386 . S
C1671 C1675 1.393 . S
C1672 H1661 0.950 . S
C1672 C1670 1.391 . S
C1672 C1673 1.400 . S
C1673 C1667 1.491 . S
C1673 C1672 1.400 . S
C1673 C1674 1.398 . S
C1674 H1662 0.950 . S
C1674 C1673 1.398 . S
C1674 C1675 1.391 . S
C1675 H1663 0.950 . S
C1675 C1671 1.393 . S
C1675 C1674 1.391 . S
H1676 C1684 0.950 . S
H1677 C1689 0.950 . S
H1678 C1686 0.950 . S
H1679 C1688 0.950 . S
H1680 C1690 0.950 . S
H1681 C1692 0.950 . S
H1682 C1694 0.950 . S
H1683 C1695 0.950 . S
C1684 H1676 0.950 . S
C1684 C1685 1.386 . S
C1684 C1686 1.391 . S
C1685 C1684 1.386 . S
C1685 C1689 1.393 . S
C1686 H1678 0.950 . S
C1686 C1684 1.391 . S
C1686 C1687 1.400 . S
C1687 C1686 1.400 . S
C1687 C1688 1.398 . S
C1687 C1693 1.491 . S
C1688 H1679 0.950 . S
C1688 C1687 1.398 . S
C1688 C1689 1.391 . S
C1689 H1677 0.950 . S
C1689 C1685 1.393 . S
C1689 C1688 1.391 . S
C1690 H1680 0.950 . S
C1690 C1691 1.386 . S
C1690 C1692 1.391 . S
C1691 C1690 1.386 . S
C1691 C1695 1.393 . S
C1692 H1681 0.950 . S
C1692 C1690 1.391 . S
C1692 C1693 1.400 . S
C1693 C1687 1.491 . S
C1693 C1692 1.400 . S
C1693 C1694 1.398 . S
C1694 H1682 0.950 . S
C1694 C1693 1.398 . S
C1694 C1695 1.391 . S
C1695 H1683 0.950 . S
C1695 C1691 1.393 . S
C1695 C1694 1.391 . S
H1696 C1704 0.950 . S
H1697 C1709 0.941 1_545 S
H1698 C1706 0.950 . S
H1699 C1708 0.950 . S
H1700 C1710 0.950 . S
H1701 C1712 0.950 . S
H1702 C1714 0.950 . S
H1703 C1715 0.950 . S
C1704 H1696 0.950 . S
C1704 C1705 1.386 . S
C1704 C1706 1.391 . S
C1705 C1704 1.386 . S
C1705 C1709 1.393 . S
C1706 H1698 0.950 . S
C1706 C1704 1.391 . S
C1706 C1707 1.400 . S
C1707 C1706 1.400 . S
C1707 C1708 1.398 . S
C1707 C1713 1.491 . S
C1708 H1699 0.950 . S
C1708 C1707 1.398 . S
C1708 C1709 1.391 . S
C1709 H1697 0.941 1_565 S
C1709 C1705 1.393 . S
C1709 C1708 1.391 . S
C1710 H1700 0.950 . S
C1710 C1711 1.386 . S
C1710 C1712 1.391 . S
C1711 C1710 1.386 . S
C1711 C1715 1.393 . S
C1712 H1701 0.950 . S
C1712 C1710 1.391 . S
C1712 C1713 1.400 . S
C1713 C1707 1.491 . S
C1713 C1712 1.400 . S
C1713 C1714 1.398 . S
C1714 H1702 0.950 . S
C1714 C1713 1.398 . S
C1714 C1715 1.391 . S
C1715 H1703 0.950 . S
C1715 C1711 1.393 . S
C1715 C1714 1.391 . S
H1716 C1724 0.950 . S
H1717 C1729 0.950 . S
H1718 C1726 0.950 . S
H1719 C1728 0.950 . S
H1720 C1730 0.950 . S
H1721 C1732 0.950 . S
H1722 C1734 0.950 . S
H1723 C1735 0.950 . S
C1724 H1716 0.950 . S
C1724 C1725 1.386 . S
C1724 C1726 1.391 . S
C1725 C1724 1.386 . S
C1725 C1729 1.393 . S
C1726 H1718 0.950 . S
C1726 C1724 1.391 . S
C1726 C1727 1.400 . S
C1727 C1726 1.400 . S
C1727 C1728 1.398 . S
C1727 C1733 1.491 . S
C1728 H1719 0.950 . S
C1728 C1727 1.398 . S
C1728 C1729 1.391 . S
C1729 H1717 0.950 . S
C1729 C1725 1.393 . S
C1729 C1728 1.391 . S
C1730 H1720 0.950 . S
C1730 C1731 1.386 . S
C1730 C1732 1.391 . S
C1731 C1730 1.386 . S
C1731 C1735 1.393 . S
C1732 H1721 0.950 . S
C1732 C1730 1.391 . S
C1732 C1733 1.400 . S
C1733 C1727 1.491 . S
C1733 C1732 1.400 . S
C1733 C1734 1.398 . S
C1734 H1722 0.950 . S
C1734 C1733 1.398 . S
C1734 C1735 1.391 . S
C1735 H1723 0.950 . S
C1735 C1731 1.393 . S
C1735 C1734 1.391 . S
H1736 C1744 0.950 . S
H1737 C1749 0.950 . S
H1738 C1746 0.950 . S
H1739 C1748 0.950 . S
H1740 C1750 0.950 . S
H1741 C1752 0.950 . S
H1742 C1754 0.950 . S
H1743 C1755 0.950 . S
C1744 H1736 0.950 . S
C1744 C1745 1.386 . S
C1744 C1746 1.391 . S
C1745 C1744 1.386 . S
C1745 C1749 1.393 . S
C1746 H1738 0.950 . S
C1746 C1744 1.391 . S
C1746 C1747 1.400 . S
C1747 C1746 1.400 . S
C1747 C1748 1.398 . S
C1747 C1753 1.491 . S
C1748 H1739 0.950 . S
C1748 C1747 1.398 . S
C1748 C1749 1.391 . S
C1749 H1737 0.950 . S
C1749 C1745 1.393 . S
C1749 C1748 1.391 . S
C1750 H1740 0.950 . S
C1750 C1751 1.386 . S
C1750 C1752 1.391 . S
C1751 C1750 1.386 . S
C1751 C1755 1.393 . S
C1752 H1741 0.950 . S
C1752 C1750 1.391 . S
C1752 C1753 1.400 . S
C1753 C1747 1.491 . S
C1753 C1752 1.400 . S
C1753 C1754 1.398 . S
C1754 H1742 0.950 . S
C1754 C1753 1.398 . S
C1754 C1755 1.391 . S
C1755 H1743 0.950 . S
C1755 C1751 1.393 . S
C1755 C1754 1.391 . S
H1756 C1764 0.950 . S
H1757 C1769 0.950 . S
H1758 C1766 0.950 . S
H1759 C1768 0.950 . S
H1760 C1770 0.950 . S
H1761 C1772 0.950 . S
H1762 C1774 0.950 . S
H1763 C1775 0.950 . S
C1764 H1756 0.950 . S
C1764 C1765 1.386 . S
C1764 C1766 1.391 . S
C1765 C1764 1.386 . S
C1765 C1769 1.393 . S
C1766 H1758 0.950 . S
C1766 C1764 1.391 . S
C1766 C1767 1.400 . S
C1767 C1766 1.400 . S
C1767 C1768 1.398 . S
C1767 C1773 1.491 . S
C1768 H1759 0.950 . S
C1768 C1767 1.398 . S
C1768 C1769 1.391 . S
C1769 H1757 0.950 . S
C1769 C1765 1.393 . S
C1769 C1768 1.391 . S
C1770 H1760 0.950 . S
C1770 C1771 1.386 . S
C1770 C1772 1.391 . S
C1771 C1770 1.386 . S
C1771 C1775 1.393 . S
C1772 H1761 0.950 . S
C1772 C1770 1.391 . S
C1772 C1773 1.400 . S
C1773 C1767 1.491 . S
C1773 C1772 1.400 . S
C1773 C1774 1.398 . S
C1774 H1762 0.950 . S
C1774 C1773 1.398 . S
C1774 C1775 1.391 . S
C1775 H1763 0.950 . S
C1775 C1771 1.393 . S
C1775 C1774 1.391 . S
H1776 C1784 0.950 . S
H1777 C1789 0.950 . S
H1778 C1786 0.950 . S
H1779 C1788 0.950 . S
H1780 C1790 0.950 . S
H1781 C1792 0.950 . S
H1782 C1794 0.950 . S
H1783 C1795 0.950 . S
C1784 H1776 0.950 . S
C1784 C1785 1.386 . S
C1784 C1786 1.391 . S
C1785 C1784 1.386 . S
C1785 C1789 1.393 . S
C1786 H1778 0.950 . S
C1786 C1784 1.391 . S
C1786 C1787 1.400 . S
C1787 C1786 1.400 . S
C1787 C1788 1.398 . S
C1787 C1793 1.491 . S
C1788 H1779 0.950 . S
C1788 C1787 1.398 . S
C1788 C1789 1.391 . S
C1789 H1777 0.950 . S
C1789 C1785 1.393 . S
C1789 C1788 1.391 . S
C1790 H1780 0.950 . S
C1790 C1791 1.386 . S
C1790 C1792 1.391 . S
C1791 C1790 1.386 . S
C1791 C1795 1.393 . S
C1792 H1781 0.950 . S
C1792 C1790 1.391 . S
C1792 C1793 1.400 . S
C1793 C1787 1.491 . S
C1793 C1792 1.400 . S
C1793 C1794 1.398 . S
C1794 H1782 0.950 . S
C1794 C1793 1.398 . S
C1794 C1795 1.391 . S
C1795 H1783 0.950 . S
C1795 C1791 1.393 . S
C1795 C1794 1.391 . S
H1796 C1804 0.950 . S
H1797 C1809 0.950 . S
H1798 C1806 0.950 . S
H1799 C1808 0.950 . S
H1800 C1810 0.950 . S
H1801 C1812 0.950 . S
H1802 C1814 0.950 . S
H1803 C1815 0.950 . S
C1804 H1796 0.950 . S
C1804 C1805 1.386 . S
C1804 C1806 1.391 . S
C1805 C1804 1.386 . S
C1805 C1809 1.393 . S
C1806 H1798 0.950 . S
C1806 C1804 1.391 . S
C1806 C1807 1.400 . S
C1807 C1806 1.400 . S
C1807 C1808 1.398 . S
C1807 C1813 1.491 . S
C1808 H1799 0.950 . S
C1808 C1807 1.398 . S
C1808 C1809 1.391 . S
C1809 H1797 0.950 . S
C1809 C1805 1.393 . S
C1809 C1808 1.391 . S
C1810 H1800 0.950 . S
C1810 C1811 1.386 . S
C1810 C1812 1.391 . S
C1811 C1810 1.386 . S
C1811 C1815 1.393 . S
C1812 H1801 0.950 . S
C1812 C1810 1.391 . S
C1812 C1813 1.400 . S
C1813 C1807 1.491 . S
C1813 C1812 1.400 . S
C1813 C1814 1.398 . S
C1814 H1802 0.950 . S
C1814 C1813 1.398 . S
C1814 C1815 1.391 . S
C1815 H1803 0.950 . S
C1815 C1811 1.393 . S
C1815 C1814 1.391 . S
H1816 C1824 0.964 . S
H1817 C1829 0.950 . S
H1818 C1826 0.950 . S
H1819 C1828 0.950 . S
H1820 C1830 0.950 . S
H1821 C1832 0.950 . S
H1822 C1834 0.950 . S
H1823 C1835 0.950 . S
C1824 H1816 0.964 . S
C1824 C1825 1.386 . S
C1824 C1826 1.391 . S
C1825 C1824 1.386 . S
C1825 C1829 1.393 . S
C1826 H1818 0.950 . S
C1826 C1824 1.391 . S
C1826 C1827 1.400 . S
C1827 C1826 1.400 . S
C1827 C1828 1.398 . S
C1827 C1833 1.491 . S
C1828 H1819 0.950 . S
C1828 C1827 1.398 . S
C1828 C1829 1.391 . S
C1829 H1817 0.950 . S
C1829 C1825 1.393 . S
C1829 C1828 1.391 . S
C1830 H1820 0.950 . S
C1830 C1831 1.386 . S
C1830 C1832 1.391 . S
C1831 C1830 1.386 . S
C1831 C1835 1.393 . S
C1832 H1821 0.950 . S
C1832 C1830 1.391 . S
C1832 C1833 1.400 . S
C1833 C1827 1.491 . S
C1833 C1832 1.400 . S
C1833 C1834 1.398 . S
C1834 H1822 0.950 . S
C1834 C1833 1.398 . S
C1834 C1835 1.391 . S
C1835 H1823 0.950 . S
C1835 C1831 1.393 . S
C1835 C1834 1.391 . S
H1836 C1844 0.950 1_455 S
H1837 C1849 0.950 . S
H1838 C1846 0.950 . S
H1839 C1848 0.950 . S
H1840 C1850 0.950 . S
H1841 C1852 0.950 . S
H1842 C1854 0.950 . S
H1843 C1855 0.950 . S
C1844 H1836 0.950 1_655 S
C1844 C1845 1.386 . S
C1844 C1846 1.391 . S
C1845 C1844 1.386 . S
C1845 C1849 1.393 . S
C1846 H1838 0.950 . S
C1846 C1844 1.391 . S
C1846 C1847 1.400 . S
C1847 C1846 1.400 . S
C1847 C1848 1.398 . S
C1847 C1853 1.491 . S
C1848 H1839 0.950 . S
C1848 C1847 1.398 . S
C1848 C1849 1.391 . S
C1849 H1837 0.950 . S
C1849 C1845 1.393 . S
C1849 C1848 1.391 . S
C1850 H1840 0.950 . S
C1850 C1851 1.386 . S
C1850 C1852 1.391 . S
C1851 C1850 1.386 . S
C1851 C1855 1.393 . S
C1852 H1841 0.950 . S
C1852 C1850 1.391 . S
C1852 C1853 1.400 . S
C1853 C1847 1.491 . S
C1853 C1852 1.400 . S
C1853 C1854 1.398 . S
C1854 H1842 0.950 . S
C1854 C1853 1.398 . S
C1854 C1855 1.391 . S
C1855 H1843 0.950 . S
C1855 C1851 1.393 . S
C1855 C1854 1.391 . S
H1856 C1864 0.950 . S
H1857 C1869 0.950 . S
H1858 C1866 0.950 . S
H1859 C1868 0.950 . S
H1860 C1870 0.950 . S
H1861 C1872 0.950 . S
H1862 C1874 0.950 . S
H1863 C1875 0.950 . S
C1864 H1856 0.950 . S
C1864 C1865 1.386 . S
C1864 C1866 1.391 . S
C1865 C1864 1.386 . S
C1865 C1869 1.393 . S
C1866 H1858 0.950 . S
C1866 C1864 1.391 . S
C1866 C1867 1.400 . S
C1867 C1866 1.400 . S
C1867 C1868 1.398 . S
C1867 C1873 1.491 . S
C1868 H1859 0.950 . S
C1868 C1867 1.398 . S
C1868 C1869 1.391 . S
C1869 H1857 0.950 . S
C1869 C1865 1.393 . S
C1869 C1868 1.391 . S
C1870 H1860 0.950 . S
C1870 C1871 1.386 . S
C1870 C1872 1.391 . S
C1871 C1870 1.386 . S
C1871 C1875 1.393 1_556 S
C1872 H1861 0.950 . S
C1872 C1870 1.391 . S
C1872 C1873 1.400 . S
C1873 C1867 1.491 . S
C1873 C1872 1.400 . S
C1873 C1874 1.398 . S
C1874 H1862 0.950 . S
C1874 C1873 1.398 . S
C1874 C1875 1.391 1_556 S
C1875 H1863 0.950 . S
C1875 C1871 1.393 1_554 S
C1875 C1874 1.391 1_554 S
H1876 C1884 0.950 . S
H1877 C1889 0.950 . S
H1878 C1886 0.950 . S
H1879 C1888 0.950 . S
H1880 C1890 0.950 . S
H1881 C1892 0.950 . S
H1882 C1894 0.950 . S
H1883 C1895 0.950 . S
C1884 H1876 0.950 . S
C1884 C1885 1.386 . S
C1884 C1886 1.391 . S
C1885 C1884 1.386 . S
C1885 C1889 1.393 . S
C1886 H1878 0.950 . S
C1886 C1884 1.391 . S
C1886 C1887 1.400 . S
C1887 C1886 1.400 . S
C1887 C1888 1.398 . S
C1887 C1893 1.491 . S
C1888 H1879 0.950 . S
C1888 C1887 1.398 . S
C1888 C1889 1.391 . S
C1889 H1877 0.950 . S
C1889 C1885 1.393 . S
C1889 C1888 1.391 . S
C1890 H1880 0.950 . S
C1890 C1891 1.386 . S
C1890 C1892 1.391 . S
C1891 C1890 1.386 . S
C1891 C1895 1.393 . S
C1892 H1881 0.950 . S
C1892 C1890 1.391 . S
C1892 C1893 1.400 . S
C1893 C1887 1.491 . S
C1893 C1892 1.400 . S
C1893 C1894 1.398 . S
C1894 H1882 0.950 . S
C1894 C1893 1.398 . S
C1894 C1895 1.391 . S
C1895 H1883 0.950 . S
C1895 C1891 1.393 . S
C1895 C1894 1.391 . S
H1896 C1904 0.950 . S
H1897 C1909 0.950 . S
H1898 C1906 0.950 . S
H1899 C1908 0.950 . S
H1900 C1910 0.950 . S
H1901 C1912 0.950 . S
H1902 C1914 0.950 . S
H1903 C1915 0.950 . S
C1904 H1896 0.950 . S
C1904 C1905 1.386 . S
C1904 C1906 1.391 . S
C1905 C1904 1.386 . S
C1905 C1909 1.393 . S
C1906 H1898 0.950 . S
C1906 C1904 1.391 . S
C1906 C1907 1.400 . S
C1907 C1906 1.400 . S
C1907 C1908 1.398 . S
C1907 C1913 1.491 . S
C1908 H1899 0.950 . S
C1908 C1907 1.398 . S
C1908 C1909 1.391 . S
C1909 H1897 0.950 . S
C1909 C1905 1.393 . S
C1909 C1908 1.391 . S
C1910 H1900 0.950 . S
C1910 C1911 1.386 . S
C1910 C1912 1.391 . S
C1911 C1910 1.386 . S
C1911 C1915 1.393 . S
C1912 H1901 0.950 . S
C1912 C1910 1.391 . S
C1912 C1913 1.400 . S
C1913 C1907 1.491 . S
C1913 C1912 1.400 . S
C1913 C1914 1.398 . S
C1914 H1902 0.950 . S
C1914 C1913 1.398 . S
C1914 C1915 1.391 . S
C1915 H1903 0.950 . S
C1915 C1911 1.393 . S
C1915 C1914 1.391 . S
H1916 C1924 0.950 . S
H1917 C1929 0.950 . S
H1918 C1926 0.950 . S
H1919 C1928 0.950 . S
H1920 C1930 0.950 . S
H1921 C1932 0.950 . S
H1922 C1934 0.950 . S
H1923 C1935 0.950 . S
C1924 H1916 0.950 . S
C1924 C1925 1.386 . S
C1924 C1926 1.391 . S
C1925 C1924 1.386 . S
C1925 C1929 1.393 . S
C1926 H1918 0.950 . S
C1926 C1924 1.391 . S
C1926 C1927 1.400 . S
C1927 C1926 1.400 . S
C1927 C1928 1.398 . S
C1927 C1933 1.491 . S
C1928 H1919 0.950 . S
C1928 C1927 1.398 . S
C1928 C1929 1.391 . S
C1929 H1917 0.950 . S
C1929 C1925 1.393 . S
C1929 C1928 1.391 . S
C1930 H1920 0.950 . S
C1930 C1931 1.386 . S
C1930 C1932 1.391 . S
C1931 C1930 1.386 . S
C1931 C1935 1.393 . S
C1932 H1921 0.950 . S
C1932 C1930 1.391 . S
C1932 C1933 1.400 . S
C1933 C1927 1.491 . S
C1933 C1932 1.400 . S
C1933 C1934 1.398 . S
C1934 H1922 0.950 . S
C1934 C1933 1.398 . S
C1934 C1935 1.391 . S
C1935 H1923 0.950 . S
C1935 C1931 1.393 . S
C1935 C1934 1.391 . S
H1936 C1944 0.950 . S
H1937 C1949 0.950 . S
H1938 C1946 0.950 . S
H1939 C1948 0.950 . S
H1940 C1950 0.950 . S
H1941 C1952 0.950 . S
H1942 C1954 0.950 . S
H1943 C1955 0.950 . S
C1944 H1936 0.950 . S
C1944 C1945 1.386 . S
C1944 C1946 1.391 . S
C1945 C1944 1.386 . S
C1945 C1949 1.393 . S
C1946 H1938 0.950 . S
C1946 C1944 1.391 . S
C1946 C1947 1.400 . S
C1947 C1946 1.400 . S
C1947 C1948 1.398 . S
C1947 C1953 1.491 . S
C1948 H1939 0.950 . S
C1948 C1947 1.398 . S
C1948 C1949 1.391 . S
C1949 H1937 0.950 . S
C1949 C1945 1.393 . S
C1949 C1948 1.391 . S
C1950 H1940 0.950 . S
C1950 C1951 1.386 . S
C1950 C1952 1.391 . S
C1951 C1950 1.386 . S
C1951 C1955 1.393 . S
C1952 H1941 0.950 . S
C1952 C1950 1.391 . S
C1952 C1953 1.400 . S
C1953 C1947 1.491 . S
C1953 C1952 1.400 . S
C1953 C1954 1.398 . S
C1954 H1942 0.950 . S
C1954 C1953 1.398 . S
C1954 C1955 1.391 . S
C1955 H1943 0.950 . S
C1955 C1951 1.393 . S
C1955 C1954 1.391 . S
H1956 C1964 0.950 . S
H1957 C1969 0.950 1_554 S
H1958 C1966 0.950 . S
H1959 C1968 0.950 . S
H1960 C1970 0.950 . S
H1961 C1972 0.950 . S
H1962 C1974 0.950 . S
H1963 C1975 0.950 . S
C1964 H1956 0.950 . S
C1964 C1965 1.386 . S
C1964 C1966 1.391 . S
C1965 C1964 1.386 . S
C1965 C1969 1.393 . S
C1966 H1958 0.950 . S
C1966 C1964 1.391 . S
C1966 C1967 1.400 . S
C1967 C1966 1.400 . S
C1967 C1968 1.398 . S
C1967 C1973 1.491 . S
C1968 H1959 0.950 . S
C1968 C1967 1.398 . S
C1968 C1969 1.391 . S
C1969 H1957 0.950 1_556 S
C1969 C1965 1.393 . S
C1969 C1968 1.391 . S
C1970 H1960 0.950 . S
C1970 C1971 1.386 . S
C1970 C1972 1.391 . S
C1971 C1970 1.386 . S
C1971 C1975 1.393 . S
C1972 H1961 0.950 . S
C1972 C1970 1.391 . S
C1972 C1973 1.400 . S
C1973 C1967 1.491 . S
C1973 C1972 1.400 . S
C1973 C1974 1.398 . S
C1974 H1962 0.950 . S
C1974 C1973 1.398 . S
C1974 C1975 1.391 . S
C1975 H1963 0.950 . S
C1975 C1971 1.393 . S
C1975 C1974 1.391 . S
H1976 C1984 0.950 . S
H1977 C1989 0.950 . S
H1978 C1986 0.950 . S
H1979 C1988 0.950 . S
H1980 C1990 0.950 . S
H1981 C1992 0.950 1_455 S
H1982 C1994 0.950 . S
H1983 C1995 0.950 . S
C1984 H1976 0.950 . S
C1984 C1985 1.386 . S
C1984 C1986 1.391 . S
C1985 C1984 1.386 . S
C1985 C1989 1.393 . S
C1986 H1978 0.950 . S
C1986 C1984 1.391 . S
C1986 C1987 1.400 . S
C1987 C1986 1.400 . S
C1987 C1988 1.398 . S
C1987 C1993 1.491 . S
C1988 H1979 0.950 . S
C1988 C1987 1.398 . S
C1988 C1989 1.391 . S
C1989 H1977 0.950 . S
C1989 C1985 1.393 . S
C1989 C1988 1.391 . S
C1990 H1980 0.950 . S
C1990 C1991 1.386 1_455 S
C1990 C1992 1.391 1_455 S
C1991 C1990 1.386 1_655 S
C1991 C1995 1.393 . S
C1992 H1981 0.950 1_655 S
C1992 C1990 1.391 1_655 S
C1992 C1993 1.400 . S
C1993 C1987 1.491 . S
C1993 C1992 1.400 . S
C1993 C1994 1.398 . S
C1994 H1982 0.950 . S
C1994 C1993 1.398 . S
C1994 C1995 1.391 . S
C1995 H1983 0.950 . S
C1995 C1991 1.393 . S
C1995 C1994 1.391 . S
H1996 C2004 0.950 . S
H1997 C2009 0.950 . S
H1998 C2006 0.950 . S
H1999 C2008 0.950 . S
H2000 C2010 0.950 . S
H2001 C2012 0.950 . S
H2002 C2014 0.950 . S
H2003 C2015 0.950 . S
C2004 H1996 0.950 . S
C2004 C2005 1.386 . S
C2004 C2006 1.391 . S
C2005 C2004 1.386 . S
C2005 C2009 1.393 . S
C2006 H1998 0.950 . S
C2006 C2004 1.391 . S
C2006 C2007 1.400 . S
C2007 C2006 1.400 . S
C2007 C2008 1.398 . S
C2007 C2013 1.491 . S
C2008 H1999 0.950 . S
C2008 C2007 1.398 . S
C2008 C2009 1.391 . S
C2009 H1997 0.950 . S
C2009 C2005 1.393 . S
C2009 C2008 1.391 . S
C2010 H2000 0.950 . S
C2010 C2011 1.386 . S
C2010 C2012 1.391 . S
C2011 C2010 1.386 . S
C2011 C2015 1.393 . S
C2012 H2001 0.950 . S
C2012 C2010 1.391 . S
C2012 C2013 1.400 . S
C2013 C2007 1.491 . S
C2013 C2012 1.400 . S
C2013 C2014 1.398 . S
C2014 H2002 0.950 . S
C2014 C2013 1.398 . S
C2014 C2015 1.391 . S
C2015 H2003 0.950 . S
C2015 C2011 1.393 . S
C2015 C2014 1.391 . S
H2016 C2024 0.950 . S
H2017 C2029 0.950 . S
H2018 C2026 0.950 . S
H2019 C2028 0.950 . S
H2020 C2030 0.950 . S
H2021 C2032 0.950 . S
H2022 C2034 0.950 . S
H2023 C2035 0.950 . S
C2024 H2016 0.950 . S
C2024 C2025 1.386 . S
C2024 C2026 1.391 . S
C2025 C2024 1.386 . S
C2025 C2029 1.393 . S
C2026 H2018 0.950 . S
C2026 C2024 1.391 . S
C2026 C2027 1.400 . S
C2027 C2026 1.400 . S
C2027 C2028 1.398 . S
C2027 C2033 1.491 . S
C2028 H2019 0.950 . S
C2028 C2027 1.398 . S
C2028 C2029 1.391 . S
C2029 H2017 0.950 . S
C2029 C2025 1.393 . S
C2029 C2028 1.391 . S
C2030 H2020 0.950 . S
C2030 C2031 1.386 . S
C2030 C2032 1.391 . S
C2031 C2030 1.386 . S
C2031 C2035 1.393 . S
C2032 H2021 0.950 . S
C2032 C2030 1.391 . S
C2032 C2033 1.400 . S
C2033 C2027 1.491 . S
C2033 C2032 1.400 . S
C2033 C2034 1.398 . S
C2034 H2022 0.950 . S
C2034 C2033 1.398 . S
C2034 C2035 1.391 . S
C2035 H2023 0.950 . S
C2035 C2031 1.393 . S
C2035 C2034 1.391 . S
H2036 C2044 0.950 . S
H2037 C2049 0.950 . S
H2038 C2046 0.950 . S
H2039 C2048 0.950 . S
H2040 C2050 0.950 . S
H2041 C2052 0.950 . S
H2042 C2054 0.950 . S
H2043 C2055 0.950 . S
C2044 H2036 0.950 . S
C2044 C2045 1.386 . S
C2044 C2046 1.391 . S
C2045 C2044 1.386 . S
C2045 C2049 1.393 . S
C2046 H2038 0.950 . S
C2046 C2044 1.391 . S
C2046 C2047 1.400 . S
C2047 C2046 1.400 . S
C2047 C2048 1.398 . S
C2047 C2053 1.491 . S
C2048 H2039 0.950 . S
C2048 C2047 1.398 . S
C2048 C2049 1.391 . S
C2049 H2037 0.950 . S
C2049 C2045 1.393 . S
C2049 C2048 1.391 . S
C2050 H2040 0.950 . S
C2050 C2051 1.386 . S
C2050 C2052 1.391 . S
C2051 C2050 1.386 . S
C2051 C2055 1.393 . S
C2052 H2041 0.950 . S
C2052 C2050 1.391 . S
C2052 C2053 1.400 . S
C2053 C2047 1.491 . S
C2053 C2052 1.400 . S
C2053 C2054 1.398 . S
C2054 H2042 0.950 . S
C2054 C2053 1.398 . S
C2054 C2055 1.391 . S
C2055 H2043 0.950 . S
C2055 C2051 1.393 . S
C2055 C2054 1.391 . S
H2056 C2064 0.950 . S
H2057 C2069 0.950 . S
H2058 C2066 0.950 . S
H2059 C2068 0.950 . S
H2060 C2070 0.950 1_455 S
H2061 C2072 0.950 . S
H2062 C2074 0.950 . S
H2063 C2075 0.950 . S
C2064 H2056 0.950 . S
C2064 C2065 1.386 . S
C2064 C2066 1.391 . S
C2065 C2064 1.386 . S
C2065 C2069 1.393 . S
C2066 H2058 0.950 . S
C2066 C2064 1.391 . S
C2066 C2067 1.400 . S
C2067 C2066 1.400 . S
C2067 C2068 1.398 . S
C2067 C2073 1.491 . S
C2068 H2059 0.950 . S
C2068 C2067 1.398 . S
C2068 C2069 1.391 . S
C2069 H2057 0.950 . S
C2069 C2065 1.393 . S
C2069 C2068 1.391 . S
C2070 H2060 0.950 1_655 S
C2070 C2071 1.386 . S
C2070 C2072 1.391 . S
C2071 C2070 1.386 . S
C2071 C2075 1.393 . S
C2072 H2061 0.950 . S
C2072 C2070 1.391 . S
C2072 C2073 1.400 . S
C2073 C2067 1.491 . S
C2073 C2072 1.400 . S
C2073 C2074 1.398 . S
C2074 H2062 0.950 . S
C2074 C2073 1.398 . S
C2074 C2075 1.391 . S
C2075 H2063 0.950 . S
C2075 C2071 1.393 . S
C2075 C2074 1.391 . S
H2076 C2084 0.950 . S
H2077 C2089 0.950 . S
H2078 C2086 0.950 . S
H2079 C2088 0.950 . S
H2080 C2090 0.950 . S
H2081 C2092 0.950 . S
H2082 C2094 0.950 . S
H2083 C2095 0.950 . S
C2084 H2076 0.950 . S
C2084 C2085 1.386 . S
C2084 C2086 1.391 . S
C2085 C2084 1.386 . S
C2085 C2089 1.393 . S
C2086 H2078 0.950 . S
C2086 C2084 1.391 . S
C2086 C2087 1.400 . S
C2087 C2086 1.400 . S
C2087 C2088 1.398 . S
C2087 C2093 1.491 . S
C2088 H2079 0.950 . S
C2088 C2087 1.398 . S
C2088 C2089 1.391 . S
C2089 H2077 0.950 . S
C2089 C2085 1.393 . S
C2089 C2088 1.391 . S
C2090 H2080 0.950 . S
C2090 C2091 1.386 . S
C2090 C2092 1.391 . S
C2091 C2090 1.386 . S
C2091 C2095 1.393 . S
C2092 H2081 0.950 . S
C2092 C2090 1.391 . S
C2092 C2093 1.400 . S
C2093 C2087 1.491 . S
C2093 C2092 1.400 . S
C2093 C2094 1.398 . S
C2094 H2082 0.950 . S
C2094 C2093 1.398 . S
C2094 C2095 1.391 . S
C2095 H2083 0.950 . S
C2095 C2091 1.393 . S
C2095 C2094 1.391 . S
H2096 C2104 0.950 . S
H2097 C2109 0.950 . S
H2098 C2106 0.950 . S
H2099 C2108 0.950 . S
H2100 C2110 0.950 . S
H2101 C2112 0.950 . S
H2102 C2114 0.950 . S
H2103 C2115 0.950 . S
C2104 H2096 0.950 . S
C2104 C2105 1.386 . S
C2104 C2106 1.391 . S
C2105 C2104 1.386 . S
C2105 C2109 1.393 . S
C2106 H2098 0.950 . S
C2106 C2104 1.391 . S
C2106 C2107 1.400 . S
C2107 C2106 1.400 . S
C2107 C2108 1.398 . S
C2107 C2113 1.491 . S
C2108 H2099 0.950 . S
C2108 C2107 1.398 . S
C2108 C2109 1.391 . S
C2109 H2097 0.950 . S
C2109 C2105 1.393 . S
C2109 C2108 1.391 . S
C2110 H2100 0.950 . S
C2110 C2111 1.386 . S
C2110 C2112 1.391 . S
C2111 C2110 1.386 . S
C2111 C2115 1.393 . S
C2112 H2101 0.950 . S
C2112 C2110 1.391 . S
C2112 C2113 1.400 . S
C2113 C2107 1.491 . S
C2113 C2112 1.400 . S
C2113 C2114 1.398 . S
C2114 H2102 0.950 . S
C2114 C2113 1.398 . S
C2114 C2115 1.391 . S
C2115 H2103 0.950 . S
C2115 C2111 1.393 . S
C2115 C2114 1.391 . S
H2116 C2124 0.950 . S
H2117 C2129 0.950 . S
H2118 C2126 0.950 . S
H2119 C2128 0.950 . S
H2120 C2130 0.950 . S
H2121 C2132 0.950 . S
H2122 C2134 0.950 . S
H2123 C2135 0.950 . S
C2124 H2116 0.950 . S
C2124 C2125 1.386 . S
C2124 C2126 1.391 . S
C2125 C2124 1.386 . S
C2125 C2129 1.393 . S
C2126 H2118 0.950 . S
C2126 C2124 1.391 . S
C2126 C2127 1.400 . S
C2127 C2126 1.400 . S
C2127 C2128 1.398 . S
C2127 C2133 1.491 . S
C2128 H2119 0.950 . S
C2128 C2127 1.398 . S
C2128 C2129 1.391 . S
C2129 H2117 0.950 . S
C2129 C2125 1.393 . S
C2129 C2128 1.391 . S
C2130 H2120 0.950 . S
C2130 C2131 1.386 . S
C2130 C2132 1.391 1_545 S
C2131 C2130 1.386 . S
C2131 C2135 1.393 1_545 S
C2132 H2121 0.950 . S
C2132 C2130 1.391 1_565 S
C2132 C2133 1.400 . S
C2133 C2127 1.491 . S
C2133 C2132 1.400 . S
C2133 C2134 1.398 . S
C2134 H2122 0.950 . S
C2134 C2133 1.398 . S
C2134 C2135 1.391 . S
C2135 H2123 0.950 . S
C2135 C2131 1.393 1_565 S
C2135 C2134 1.391 . S
H2136 C2144 0.950 1_545 S
H2137 C2149 0.950 . S
H2138 C2146 0.950 . S
H2139 C2148 0.950 . S
H2140 C2150 0.950 . S
H2141 C2152 0.950 . S
H2142 C2154 0.950 . S
H2143 C2155 0.950 . S
C2144 H2136 0.950 1_565 S
C2144 C2145 1.386 . S
C2144 C2146 1.391 . S
C2145 C2144 1.386 . S
C2145 C2149 1.393 . S
C2146 H2138 0.950 . S
C2146 C2144 1.391 . S
C2146 C2147 1.400 . S
C2147 C2146 1.400 . S
C2147 C2148 1.398 . S
C2147 C2153 1.491 . S
C2148 H2139 0.950 . S
C2148 C2147 1.398 . S
C2148 C2149 1.391 . S
C2149 H2137 0.950 . S
C2149 C2145 1.393 . S
C2149 C2148 1.391 . S
C2150 H2140 0.950 . S
C2150 C2151 1.386 . S
C2150 C2152 1.391 . S
C2151 C2150 1.386 . S
C2151 C2155 1.393 . S
C2152 H2141 0.950 . S
C2152 C2150 1.391 . S
C2152 C2153 1.400 . S
C2153 C2147 1.491 . S
C2153 C2152 1.400 . S
C2153 C2154 1.398 . S
C2154 H2142 0.950 . S
C2154 C2153 1.398 . S
C2154 C2155 1.391 . S
C2155 H2143 0.950 . S
C2155 C2151 1.393 . S
C2155 C2154 1.391 . S
H2156 C2164 0.950 1_556 S
H2157 C2169 0.950 . S
H2158 C2166 0.950 1_556 S
H2159 C2168 0.950 . S
H2160 C2170 0.950 . S
H2161 C2172 0.950 . S
H2162 C2174 0.921 1_556 S
H2163 C2175 0.950 . S
C2164 H2156 0.950 1_554 S
C2164 C2165 1.386 . S
C2164 C2166 1.391 . S
C2165 C2164 1.386 . S
C2165 C2169 1.393 . S
C2166 H2158 0.950 1_554 S
C2166 C2164 1.391 . S
C2166 C2167 1.400 . S
C2167 C2166 1.400 . S
C2167 C2168 1.398 . S
C2167 C2173 1.491 . S
C2168 H2159 0.950 . S
C2168 C2167 1.398 . S
C2168 C2169 1.391 . S
C2169 H2157 0.950 . S
C2169 C2165 1.393 . S
C2169 C2168 1.391 . S
C2170 H2160 0.950 . S
C2170 C2171 1.386 . S
C2170 C2172 1.391 . S
C2171 C2170 1.386 . S
C2171 C2175 1.393 . S
C2172 H2161 0.950 . S
C2172 C2170 1.391 . S
C2172 C2173 1.400 . S
C2173 C2167 1.491 . S
C2173 C2172 1.400 . S
C2173 C2174 1.398 . S
C2174 H2162 0.921 1_554 S
C2174 C2173 1.398 . S
C2174 C2175 1.391 . S
C2175 H2163 0.950 . S
C2175 C2171 1.393 . S
C2175 C2174 1.391 . S
H2176 C2184 0.950 . S
H2177 C2189 0.950 . S
H2178 C2186 0.950 . S
H2179 C2188 0.950 . S
H2180 C2190 0.950 . S
H2181 C2192 0.950 . S
H2182 C2194 0.950 . S
H2183 C2195 0.950 . S
C2184 H2176 0.950 . S
C2184 C2185 1.386 . S
C2184 C2186 1.391 . S
C2185 C2184 1.386 . S
C2185 C2189 1.393 . S
C2186 H2178 0.950 . S
C2186 C2184 1.391 . S
C2186 C2187 1.400 . S
C2187 C2186 1.400 . S
C2187 C2188 1.398 . S
C2187 C2193 1.491 . S
C2188 H2179 0.950 . S
C2188 C2187 1.398 . S
C2188 C2189 1.391 . S
C2189 H2177 0.950 . S
C2189 C2185 1.393 . S
C2189 C2188 1.391 . S
C2190 H2180 0.950 . S
C2190 C2191 1.386 . S
C2190 C2192 1.391 . S
C2191 C2190 1.386 . S
C2191 C2195 1.393 . S
C2192 H2181 0.950 . S
C2192 C2190 1.391 . S
C2192 C2193 1.400 . S
C2193 C2187 1.491 . S
C2193 C2192 1.400 . S
C2193 C2194 1.398 . S
C2194 H2182 0.950 . S
C2194 C2193 1.398 . S
C2194 C2195 1.391 . S
C2195 H2183 0.950 . S
C2195 C2191 1.393 . S
C2195 C2194 1.391 . S
H2196 C2204 0.950 . S
H2197 C2209 0.950 . S
H2198 C2206 0.950 . S
H2199 C2208 0.950 . S
H2200 C2210 0.950 1_556 S
H2201 C2212 0.950 . S
H2202 C2214 0.950 . S
H2203 C2215 0.950 . S
C2204 H2196 0.950 . S
C2204 C2205 1.386 . S
C2204 C2206 1.391 . S
C2205 C2204 1.386 . S
C2205 C2209 1.393 . S
C2206 H2198 0.950 . S
C2206 C2204 1.391 . S
C2206 C2207 1.400 . S
C2207 C2206 1.400 . S
C2207 C2208 1.398 . S
C2207 C2213 1.491 . S
C2208 H2199 0.950 . S
C2208 C2207 1.398 . S
C2208 C2209 1.391 . S
C2209 H2197 0.950 . S
C2209 C2205 1.393 . S
C2209 C2208 1.391 . S
C2210 H2200 0.950 1_554 S
C2210 C2211 1.386 . S
C2210 C2212 1.391 . S
C2211 C2210 1.386 . S
C2211 C2215 1.393 . S
C2212 H2201 0.950 . S
C2212 C2210 1.391 . S
C2212 C2213 1.400 . S
C2213 C2207 1.491 . S
C2213 C2212 1.400 . S
C2213 C2214 1.398 . S
C2214 H2202 0.950 . S
C2214 C2213 1.398 . S
C2214 C2215 1.391 . S
C2215 H2203 0.950 . S
C2215 C2211 1.393 . S
C2215 C2214 1.391 . S
H2216 C2224 0.950 . S
H2217 C2229 0.950 . S
H2218 C2226 0.950 . S
H2219 C2228 0.950 . S
H2220 C2230 0.950 . S
H2221 C2232 0.950 . S
H2222 C2234 0.950 . S
H2223 C2235 0.950 . S
C2224 H2216 0.950 . S
C2224 C2225 1.386 . S
C2224 C2226 1.391 . S
C2225 C2224 1.386 . S
C2225 C2229 1.393 . S
C2226 H2218 0.950 . S
C2226 C2224 1.391 . S
C2226 C2227 1.400 . S
C2227 C2226 1.400 . S
C2227 C2228 1.398 . S
C2227 C2233 1.491 . S
C2228 H2219 0.950 . S
C2228 C2227 1.398 . S
C2228 C2229 1.391 . S
C2229 H2217 0.950 . S
C2229 C2225 1.393 . S
C2229 C2228 1.391 . S
C2230 H2220 0.950 . S
C2230 C2231 1.386 . S
C2230 C2232 1.391 . S
C2231 C2230 1.386 . S
C2231 C2235 1.393 . S
C2232 H2221 0.950 . S
C2232 C2230 1.391 . S
C2232 C2233 1.400 . S
C2233 C2227 1.491 . S
C2233 C2232 1.400 . S
C2233 C2234 1.398 . S
C2234 H2222 0.950 . S
C2234 C2233 1.398 . S
C2234 C2235 1.391 . S
C2235 H2223 0.950 . S
C2235 C2231 1.393 . S
C2235 C2234 1.391 . S
H2236 C2244 0.950 . S
H2237 C2249 0.950 . S
H2238 C2246 0.950 . S
H2239 C2248 0.950 . S
H2240 C2250 0.950 . S
H2241 C2252 0.950 . S
H2242 C2254 0.950 . S
H2243 C2255 0.950 . S
C2244 H2236 0.950 . S
C2244 C2245 1.386 . S
C2244 C2246 1.391 . S
C2245 C2244 1.386 . S
C2245 C2249 1.393 . S
C2246 H2238 0.950 . S
C2246 C2244 1.391 . S
C2246 C2247 1.400 . S
C2247 C2246 1.400 . S
C2247 C2248 1.398 . S
C2247 C2253 1.491 . S
C2248 H2239 0.950 . S
C2248 C2247 1.398 . S
C2248 C2249 1.391 . S
C2249 H2237 0.950 . S
C2249 C2245 1.393 . S
C2249 C2248 1.391 . S
C2250 H2240 0.950 . S
C2250 C2251 1.386 . S
C2250 C2252 1.391 . S
C2251 C2250 1.386 . S
C2251 C2255 1.393 . S
C2252 H2241 0.950 . S
C2252 C2250 1.391 . S
C2252 C2253 1.400 . S
C2253 C2247 1.491 . S
C2253 C2252 1.400 . S
C2253 C2254 1.398 . S
C2254 H2242 0.950 . S
C2254 C2253 1.398 . S
C2254 C2255 1.391 . S
C2255 H2243 0.950 . S
C2255 C2251 1.393 . S
C2255 C2254 1.391 . S
H2256 C2264 0.950 . S
H2257 C2269 0.950 . S
H2258 C2266 0.950 . S
H2259 C2268 0.950 . S
H2260 C2270 0.950 . S
H2261 C2272 0.950 . S
H2262 C2274 0.950 . S
H2263 C2275 0.950 . S
C2264 H2256 0.950 . S
C2264 C2265 1.386 . S
C2264 C2266 1.391 . S
C2265 C2264 1.386 . S
C2265 C2269 1.393 . S
C2266 H2258 0.950 . S
C2266 C2264 1.391 . S
C2266 C2267 1.400 . S
C2267 C2266 1.400 . S
C2267 C2268 1.398 . S
C2267 C2273 1.491 . S
C2268 H2259 0.950 . S
C2268 C2267 1.398 . S
C2268 C2269 1.391 . S
C2269 H2257 0.950 . S
C2269 C2265 1.393 . S
C2269 C2268 1.391 . S
C2270 H2260 0.950 . S
C2270 C2271 1.386 . S
C2270 C2272 1.391 . S
C2271 C2270 1.386 . S
C2271 C2275 1.393 . S
C2272 H2261 0.950 . S
C2272 C2270 1.391 . S
C2272 C2273 1.400 . S
C2273 C2267 1.491 . S
C2273 C2272 1.400 . S
C2273 C2274 1.398 . S
C2274 H2262 0.950 . S
C2274 C2273 1.398 . S
C2274 C2275 1.391 . S
C2275 H2263 0.950 . S
C2275 C2271 1.393 . S
C2275 C2274 1.391 . S
H2276 C2284 0.950 . S
H2277 C2289 0.950 . S
H2278 C2286 0.950 . S
H2279 C2288 0.950 . S
H2280 C2290 0.950 . S
H2281 C2292 0.950 . S
H2282 C2294 0.950 . S
H2283 C2295 0.950 . S
C2284 H2276 0.950 . S
C2284 C2285 1.386 . S
C2284 C2286 1.391 . S
C2285 C2284 1.386 . S
C2285 C2289 1.393 . S
C2286 H2278 0.950 . S
C2286 C2284 1.391 . S
C2286 C2287 1.400 . S
C2287 C2286 1.400 . S
C2287 C2288 1.398 . S
C2287 C2293 1.491 . S
C2288 H2279 0.950 . S
C2288 C2287 1.398 . S
C2288 C2289 1.391 . S
C2289 H2277 0.950 . S
C2289 C2285 1.393 . S
C2289 C2288 1.391 . S
C2290 H2280 0.950 . S
C2290 C2291 1.386 . S
C2290 C2292 1.391 . S
C2291 C2290 1.386 . S
C2291 C2295 1.393 . S
C2292 H2281 0.950 . S
C2292 C2290 1.391 . S
C2292 C2293 1.400 . S
C2293 C2287 1.491 . S
C2293 C2292 1.400 . S
C2293 C2294 1.398 . S
C2294 H2282 0.950 . S
C2294 C2293 1.398 . S
C2294 C2295 1.391 . S
C2295 H2283 0.950 . S
C2295 C2291 1.393 . S
C2295 C2294 1.391 . S
H2296 C2304 0.952 1_655 S
H2297 C2309 0.950 . S
H2298 C2306 0.950 . S
H2299 C2308 0.950 . S
H2300 C2310 0.950 1_554 S
H2301 C2312 0.950 . S
H2302 C2314 0.950 . S
H2303 C2315 0.950 . S
C2304 H2296 0.952 1_455 S
C2304 C2305 1.383 . S
C2304 C2306 1.392 1_455 S
C2305 C2304 1.383 . S
C2305 C2309 1.393 . S
C2306 H2298 0.950 . S
C2306 C2304 1.392 1_655 S
C2306 C2307 1.400 1_655 S
C2307 C2306 1.400 1_455 S
C2307 C2308 1.398 . S
C2307 C2313 1.491 . S
C2308 H2299 0.950 . S
C2308 C2307 1.398 . S
C2308 C2309 1.391 . S
C2309 H2297 0.950 . S
C2309 C2305 1.393 . S
C2309 C2308 1.391 . S
C2310 H2300 0.950 1_556 S
C2310 C2311 1.386 . S
C2310 C2312 1.391 . S
C2311 C2310 1.386 . S
C2311 C2315 1.393 1_455 S
C2312 H2301 0.950 . S
C2312 C2310 1.391 . S
C2312 C2313 1.400 . S
C2313 C2307 1.491 . S
C2313 C2312 1.400 . S
C2313 C2314 1.398 1_455 S
C2314 H2302 0.950 . S
C2314 C2313 1.398 1_655 S
C2314 C2315 1.391 . S
C2315 H2303 0.950 . S
C2315 C2311 1.393 1_655 S
C2315 C2314 1.391 . S
H2316 C2324 0.950 . S
H2317 C2329 0.950 . S
H2318 C2326 0.950 . S
H2319 C2328 0.950 . S
H2320 C2330 0.950 . S
H2321 C2332 0.950 . S
H2322 C2334 0.950 . S
H2323 C2335 0.950 . S
C2324 H2316 0.950 . S
C2324 C2325 1.386 . S
C2324 C2326 1.391 . S
C2325 C2324 1.386 . S
C2325 C2329 1.393 . S
C2326 H2318 0.950 . S
C2326 C2324 1.391 . S
C2326 C2327 1.400 . S
C2327 C2326 1.400 . S
C2327 C2328 1.398 . S
C2327 C2333 1.491 . S
C2328 H2319 0.950 . S
C2328 C2327 1.398 . S
C2328 C2329 1.391 . S
C2329 H2317 0.950 . S
C2329 C2325 1.393 . S
C2329 C2328 1.391 . S
C2330 H2320 0.950 . S
C2330 C2331 1.386 . S
C2330 C2332 1.391 . S
C2331 C2330 1.386 . S
C2331 C2335 1.393 . S
C2332 H2321 0.950 . S
C2332 C2330 1.391 . S
C2332 C2333 1.400 . S
C2333 C2327 1.491 . S
C2333 C2332 1.400 . S
C2333 C2334 1.398 . S
C2334 H2322 0.950 . S
C2334 C2333 1.398 . S
C2334 C2335 1.391 . S
C2335 H2323 0.950 . S
C2335 C2331 1.393 . S
C2335 C2334 1.391 . S
H2336 C2344 0.950 . S
H2337 C2349 0.950 . S
H2338 C2346 0.950 . S
H2339 C2348 0.950 . S
H2340 C2350 0.950 . S
H2341 C2352 0.950 . S
H2342 C2354 0.950 . S
H2343 C2355 0.950 . S
C2344 H2336 0.950 . S
C2344 C2345 1.386 . S
C2344 C2346 1.391 . S
C2345 C2344 1.386 . S
C2345 C2349 1.393 . S
C2346 H2338 0.950 . S
C2346 C2344 1.391 . S
C2346 C2347 1.400 . S
C2347 C2346 1.400 . S
C2347 C2348 1.398 . S
C2347 C2353 1.491 . S
C2348 H2339 0.950 . S
C2348 C2347 1.398 . S
C2348 C2349 1.391 . S
C2349 H2337 0.950 . S
C2349 C2345 1.393 . S
C2349 C2348 1.391 . S
C2350 H2340 0.950 . S
C2350 C2351 1.386 . S
C2350 C2352 1.391 . S
C2351 C2350 1.386 . S
C2351 C2355 1.393 . S
C2352 H2341 0.950 . S
C2352 C2350 1.391 . S
C2352 C2353 1.400 . S
C2353 C2347 1.491 . S
C2353 C2352 1.400 . S
C2353 C2354 1.398 . S
C2354 H2342 0.950 . S
C2354 C2353 1.398 . S
C2354 C2355 1.391 . S
C2355 H2343 0.950 . S
C2355 C2351 1.393 . S
C2355 C2354 1.391 . S
H2356 C2364 0.950 . S
H2357 C2369 0.950 . S
H2358 C2366 0.950 . S
H2359 C2368 0.950 . S
H2360 C2370 0.950 . S
H2361 C2372 0.950 . S
H2362 C2374 0.950 . S
H2363 C2375 0.950 . S
C2364 H2356 0.950 . S
C2364 C2365 1.386 . S
C2364 C2366 1.391 . S
C2365 C2364 1.386 . S
C2365 C2369 1.393 . S
C2366 H2358 0.950 . S
C2366 C2364 1.391 . S
C2366 C2367 1.400 . S
C2367 C2366 1.400 . S
C2367 C2368 1.398 . S
C2367 C2373 1.491 . S
C2368 H2359 0.950 . S
C2368 C2367 1.398 . S
C2368 C2369 1.391 . S
C2369 H2357 0.950 . S
C2369 C2365 1.393 . S
C2369 C2368 1.391 . S
C2370 H2360 0.950 . S
C2370 C2371 1.386 . S
C2370 C2372 1.391 . S
C2371 C2370 1.386 . S
C2371 C2375 1.393 . S
C2372 H2361 0.950 . S
C2372 C2370 1.391 . S
C2372 C2373 1.400 . S
C2373 C2367 1.491 . S
C2373 C2372 1.400 . S
C2373 C2374 1.398 . S
C2374 H2362 0.950 . S
C2374 C2373 1.398 . S
C2374 C2375 1.391 . S
C2375 H2363 0.950 . S
C2375 C2371 1.393 . S
C2375 C2374 1.391 . S
H2376 C2384 0.950 . S
H2377 C2389 0.950 . S
H2378 C2386 0.950 . S
H2379 C2388 0.950 . S
H2380 C2390 0.950 . S
H2381 C2392 0.950 . S
H2382 C2394 0.950 . S
H2383 C2395 0.950 . S
C2384 H2376 0.950 . S
C2384 C2385 1.386 1_655 S
C2384 C2386 1.391 . S
C2385 C2384 1.386 1_455 S
C2385 C2389 1.393 . S
C2386 H2378 0.950 . S
C2386 C2384 1.391 . S
C2386 C2387 1.400 1_655 S
C2387 C2386 1.400 1_455 S
C2387 C2388 1.398 . S
C2387 C2393 1.491 . S
C2388 H2379 0.950 . S
C2388 C2387 1.398 . S
C2388 C2389 1.391 . S
C2389 H2377 0.950 . S
C2389 C2385 1.393 . S
C2389 C2388 1.391 . S
C2390 H2380 0.950 . S
C2390 C2391 1.386 . S
C2390 C2392 1.391 . S
C2391 C2390 1.386 . S
C2391 C2395 1.393 1_455 S
C2392 H2381 0.950 . S
C2392 C2390 1.391 . S
C2392 C2393 1.400 . S
C2393 C2387 1.491 . S
C2393 C2392 1.400 . S
C2393 C2394 1.398 1_455 S
C2394 H2382 0.950 . S
C2394 C2393 1.398 1_655 S
C2394 C2395 1.391 . S
C2395 H2383 0.950 . S
C2395 C2391 1.393 1_655 S
C2395 C2394 1.391 . S
H2396 C2404 0.950 . S
H2397 C2409 0.950 . S
H2398 C2406 0.950 . S
H2399 C2408 0.950 . S
H2400 C2410 0.950 . S
H2401 C2412 0.950 . S
H2402 C2414 0.950 . S
H2403 C2415 0.950 . S
C2404 H2396 0.950 . S
C2404 C2405 1.386 . S
C2404 C2406 1.391 . S
C2405 C2404 1.386 . S
C2405 C2409 1.393 . S
C2406 H2398 0.950 . S
C2406 C2404 1.391 . S
C2406 C2407 1.400 . S
C2407 C2406 1.400 . S
C2407 C2408 1.398 . S
C2407 C2413 1.491 . S
C2408 H2399 0.950 . S
C2408 C2407 1.398 . S
C2408 C2409 1.391 . S
C2409 H2397 0.950 . S
C2409 C2405 1.393 . S
C2409 C2408 1.391 . S
C2410 H2400 0.950 . S
C2410 C2411 1.386 . S
C2410 C2412 1.391 . S
C2411 C2410 1.386 . S
C2411 C2415 1.393 . S
C2412 H2401 0.950 . S
C2412 C2410 1.391 . S
C2412 C2413 1.400 . S
C2413 C2407 1.491 . S
C2413 C2412 1.400 . S
C2413 C2414 1.398 . S
C2414 H2402 0.950 . S
C2414 C2413 1.398 . S
C2414 C2415 1.391 . S
C2415 H2403 0.950 . S
C2415 C2411 1.393 . S
C2415 C2414 1.391 . S
H2416 C2424 0.950 . S
H2417 C2429 0.950 . S
H2418 C2426 0.950 . S
H2419 C2428 0.950 . S
H2420 C2430 0.950 . S
H2421 C2432 0.950 . S
H2422 C2434 0.950 . S
H2423 C2435 0.950 . S
C2424 H2416 0.950 . S
C2424 C2425 1.386 . S
C2424 C2426 1.391 . S
C2425 C2424 1.386 . S
C2425 C2429 1.393 . S
C2426 H2418 0.950 . S
C2426 C2424 1.391 . S
C2426 C2427 1.400 . S
C2427 C2426 1.400 . S
C2427 C2428 1.398 . S
C2427 C2433 1.491 . S
C2428 H2419 0.950 . S
C2428 C2427 1.398 . S
C2428 C2429 1.391 . S
C2429 H2417 0.950 . S
C2429 C2425 1.393 . S
C2429 C2428 1.391 . S
C2430 H2420 0.950 . S
C2430 C2431 1.386 . S
C2430 C2432 1.391 . S
C2431 C2430 1.386 . S
C2431 C2435 1.393 . S
C2432 H2421 0.950 . S
C2432 C2430 1.391 . S
C2432 C2433 1.400 . S
C2433 C2427 1.491 . S
C2433 C2432 1.400 . S
C2433 C2434 1.398 . S
C2434 H2422 0.950 . S
C2434 C2433 1.398 . S
C2434 C2435 1.391 . S
C2435 H2423 0.950 . S
C2435 C2431 1.393 . S
C2435 C2434 1.391 . S
H2436 C2444 0.950 . S
H2437 C2449 0.950 . S
H2438 C2446 0.950 . S
H2439 C2448 0.950 . S
H2440 C2450 0.950 . S
H2441 C2452 0.950 . S
H2442 C2454 0.950 . S
H2443 C2455 0.950 . S
C2444 H2436 0.950 . S
C2444 C2445 1.386 . S
C2444 C2446 1.391 . S
C2445 C2444 1.386 . S
C2445 C2449 1.393 . S
C2446 H2438 0.950 . S
C2446 C2444 1.391 . S
C2446 C2447 1.400 . S
C2447 C2446 1.400 . S
C2447 C2448 1.398 . S
C2447 C2453 1.491 . S
C2448 H2439 0.950 . S
C2448 C2447 1.398 . S
C2448 C2449 1.391 . S
C2449 H2437 0.950 . S
C2449 C2445 1.393 . S
C2449 C2448 1.391 . S
C2450 H2440 0.950 . S
C2450 C2451 1.386 . S
C2450 C2452 1.391 . S
C2451 C2450 1.386 . S
C2451 C2455 1.393 . S
C2452 H2441 0.950 . S
C2452 C2450 1.391 . S
C2452 C2453 1.400 . S
C2453 C2447 1.491 . S
C2453 C2452 1.400 . S
C2453 C2454 1.398 . S
C2454 H2442 0.950 . S
C2454 C2453 1.398 . S
C2454 C2455 1.391 . S
C2455 H2443 0.950 . S
C2455 C2451 1.393 . S
C2455 C2454 1.391 . S
H2456 C2464 0.950 . S
H2457 C2469 0.950 . S
H2458 C2466 0.950 . S
H2459 C2468 0.950 . S
H2460 C2470 0.950 . S
H2461 C2472 0.950 . S
H2462 C2474 0.950 . S
H2463 C2475 0.950 . S
C2464 H2456 0.950 . S
C2464 C2465 1.386 . S
C2464 C2466 1.391 . S
C2465 C2464 1.386 . S
C2465 C2469 1.393 . S
C2466 H2458 0.950 . S
C2466 C2464 1.391 . S
C2466 C2467 1.400 . S
C2467 C2466 1.400 . S
C2467 C2468 1.398 . S
C2467 C2473 1.491 . S
C2468 H2459 0.950 . S
C2468 C2467 1.398 . S
C2468 C2469 1.391 . S
C2469 H2457 0.950 . S
C2469 C2465 1.393 . S
C2469 C2468 1.391 . S
C2470 H2460 0.950 . S
C2470 C2471 1.386 . S
C2470 C2472 1.391 . S
C2471 C2470 1.386 . S
C2471 C2475 1.393 . S
C2472 H2461 0.950 . S
C2472 C2470 1.391 . S
C2472 C2473 1.400 . S
C2473 C2467 1.491 . S
C2473 C2472 1.400 . S
C2473 C2474 1.398 . S
C2474 H2462 0.950 . S
C2474 C2473 1.398 . S
C2474 C2475 1.391 . S
C2475 H2463 0.950 . S
C2475 C2471 1.393 . S
C2475 C2474 1.391 . S
H2476 C2484 0.950 . S
H2477 C2489 0.950 . S
H2478 C2486 0.950 . S
H2479 C2488 0.950 . S
H2480 C2490 0.950 . S
H2481 C2492 0.950 . S
H2482 C2494 0.950 . S
H2483 C2495 0.950 . S
C2484 H2476 0.950 . S
C2484 C2485 1.386 . S
C2484 C2486 1.391 . S
C2485 C2484 1.386 . S
C2485 C2489 1.393 . S
C2486 H2478 0.950 . S
C2486 C2484 1.391 . S
C2486 C2487 1.400 . S
C2487 C2486 1.400 . S
C2487 C2488 1.398 . S
C2487 C2493 1.491 . S
C2488 H2479 0.950 . S
C2488 C2487 1.398 . S
C2488 C2489 1.391 . S
C2489 H2477 0.950 . S
C2489 C2485 1.393 . S
C2489 C2488 1.391 . S
C2490 H2480 0.950 . S
C2490 C2491 1.386 . S
C2490 C2492 1.391 . S
C2491 C2490 1.386 . S
C2491 C2495 1.393 . S
C2492 H2481 0.950 . S
C2492 C2490 1.391 . S
C2492 C2493 1.400 . S
C2493 C2487 1.491 . S
C2493 C2492 1.400 . S
C2493 C2494 1.398 . S
C2494 H2482 0.950 . S
C2494 C2493 1.398 . S
C2494 C2495 1.391 . S
C2495 H2483 0.950 . S
C2495 C2491 1.393 . S
C2495 C2494 1.391 . S
H2496 C2504 0.950 . S
H2497 C2509 0.950 . S
H2498 C2506 0.950 . S
H2499 C2508 0.950 . S
H2500 C2510 0.950 . S
H2501 C2512 0.950 . S
H2502 C2514 0.950 . S
H2503 C2515 0.950 . S
C2504 H2496 0.950 . S
C2504 C2505 1.386 . S
C2504 C2506 1.391 . S
C2505 C2504 1.386 . S
C2505 C2509 1.393 . S
C2506 H2498 0.950 . S
C2506 C2504 1.391 . S
C2506 C2507 1.400 . S
C2507 C2506 1.400 . S
C2507 C2508 1.398 . S
C2507 C2513 1.491 . S
C2508 H2499 0.950 . S
C2508 C2507 1.398 . S
C2508 C2509 1.391 . S
C2509 H2497 0.950 . S
C2509 C2505 1.393 . S
C2509 C2508 1.391 . S
C2510 H2500 0.950 . S
C2510 C2511 1.386 . S
C2510 C2512 1.391 . S
C2511 C2510 1.386 . S
C2511 C2515 1.393 . S
C2512 H2501 0.950 . S
C2512 C2510 1.391 . S
C2512 C2513 1.400 . S
C2513 C2507 1.491 . S
C2513 C2512 1.400 . S
C2513 C2514 1.398 . S
C2514 H2502 0.950 . S
C2514 C2513 1.398 . S
C2514 C2515 1.391 . S
C2515 H2503 0.950 . S
C2515 C2511 1.393 . S
C2515 C2514 1.391 . S
H2516 C2524 0.950 . S
H2517 C2529 0.950 . S
H2518 C2526 0.950 . S
H2519 C2528 0.950 . S
H2520 C2530 0.950 . S
H2521 C2532 0.950 . S
H2522 C2534 0.950 . S
H2523 C2535 0.950 . S
C2524 H2516 0.950 . S
C2524 C2525 1.386 . S
C2524 C2526 1.391 . S
C2525 C2524 1.386 . S
C2525 C2529 1.393 . S
C2526 H2518 0.950 . S
C2526 C2524 1.391 . S
C2526 C2527 1.400 . S
C2527 C2526 1.400 . S
C2527 C2528 1.398 . S
C2527 C2533 1.491 . S
C2528 H2519 0.950 . S
C2528 C2527 1.398 . S
C2528 C2529 1.391 . S
C2529 H2517 0.950 . S
C2529 C2525 1.393 . S
C2529 C2528 1.391 . S
C2530 H2520 0.950 . S
C2530 C2531 1.386 . S
C2530 C2532 1.391 . S
C2531 C2530 1.386 . S
C2531 C2535 1.393 . S
C2532 H2521 0.950 . S
C2532 C2530 1.391 . S
C2532 C2533 1.400 . S
C2533 C2527 1.491 . S
C2533 C2532 1.400 . S
C2533 C2534 1.398 . S
C2534 H2522 0.950 . S
C2534 C2533 1.398 . S
C2534 C2535 1.391 . S
C2535 H2523 0.950 . S
C2535 C2531 1.393 . S
C2535 C2534 1.391 . S
H2536 C2544 0.950 . S
H2537 C2549 0.950 . S
H2538 C2546 0.950 . S
H2539 C2548 0.950 . S
H2540 C2550 0.950 . S
H2541 C2552 0.950 . S
H2542 C2554 0.950 . S
H2543 C2555 0.950 . S
C2544 H2536 0.950 . S
C2544 C2545 1.386 . S
C2544 C2546 1.391 . S
C2545 C2544 1.386 . S
C2545 C2549 1.393 . S
C2546 H2538 0.950 . S
C2546 C2544 1.391 . S
C2546 C2547 1.400 . S
C2547 C2546 1.400 . S
C2547 C2548 1.398 . S
C2547 C2553 1.491 . S
C2548 H2539 0.950 . S
C2548 C2547 1.398 . S
C2548 C2549 1.391 . S
C2549 H2537 0.950 . S
C2549 C2545 1.393 . S
C2549 C2548 1.391 . S
C2550 H2540 0.950 . S
C2550 C2551 1.386 . S
C2550 C2552 1.391 . S
C2551 C2550 1.386 . S
C2551 C2555 1.393 . S
C2552 H2541 0.950 . S
C2552 C2550 1.391 . S
C2552 C2553 1.400 . S
C2553 C2547 1.491 . S
C2553 C2552 1.400 . S
C2553 C2554 1.398 . S
C2554 H2542 0.950 . S
C2554 C2553 1.398 . S
C2554 C2555 1.391 . S
C2555 H2543 0.950 . S
C2555 C2551 1.393 . S
C2555 C2554 1.391 . S
H2556 C2564 0.950 . S
H2557 C2569 0.950 . S
H2558 C2566 0.950 . S
H2559 C2568 0.950 . S
H2560 C2570 0.950 . S
H2561 C2572 0.950 . S
H2562 C2574 0.950 . S
H2563 C2575 0.950 . S
C2564 H2556 0.950 . S
C2564 C2565 1.386 . S
C2564 C2566 1.391 . S
C2565 C2564 1.386 . S
C2565 C2569 1.393 . S
C2566 H2558 0.950 . S
C2566 C2564 1.391 . S
C2566 C2567 1.400 . S
C2567 C2566 1.400 . S
C2567 C2568 1.398 . S
C2567 C2573 1.491 . S
C2568 H2559 0.950 . S
C2568 C2567 1.398 . S
C2568 C2569 1.391 . S
C2569 H2557 0.950 . S
C2569 C2565 1.393 . S
C2569 C2568 1.391 . S
C2570 H2560 0.950 . S
C2570 C2571 1.386 . S
C2570 C2572 1.391 . S
C2571 C2570 1.386 . S
C2571 C2575 1.393 . S
C2572 H2561 0.950 . S
C2572 C2570 1.391 . S
C2572 C2573 1.400 . S
C2573 C2567 1.491 . S
C2573 C2572 1.400 . S
C2573 C2574 1.398 . S
C2574 H2562 0.950 . S
C2574 C2573 1.398 . S
C2574 C2575 1.391 . S
C2575 H2563 0.950 . S
C2575 C2571 1.393 . S
C2575 C2574 1.391 . S
H2576 C2584 0.950 . S
H2577 C2589 0.950 . S
H2578 C2586 0.950 . S
H2579 C2588 0.950 . S
H2580 C2590 0.950 . S
H2581 C2592 0.950 . S
H2582 C2594 0.950 . S
H2583 C2595 0.950 . S
C2584 H2576 0.950 . S
C2584 C2585 1.386 . S
C2584 C2586 1.391 . S
C2585 C2584 1.386 . S
C2585 C2589 1.393 . S
C2586 H2578 0.950 . S
C2586 C2584 1.391 . S
C2586 C2587 1.400 . S
C2587 C2586 1.400 . S
C2587 C2588 1.398 . S
C2587 C2593 1.491 . S
C2588 H2579 0.950 . S
C2588 C2587 1.398 . S
C2588 C2589 1.391 . S
C2589 H2577 0.950 . S
C2589 C2585 1.393 . S
C2589 C2588 1.391 . S
C2590 H2580 0.950 . S
C2590 C2591 1.386 . S
C2590 C2592 1.391 . S
C2591 C2590 1.386 . S
C2591 C2595 1.393 . S
C2592 H2581 0.950 . S
C2592 C2590 1.391 . S
C2592 C2593 1.400 . S
C2593 C2587 1.491 . S
C2593 C2592 1.400 . S
C2593 C2594 1.398 . S
C2594 H2582 0.950 . S
C2594 C2593 1.398 . S
C2594 C2595 1.391 . S
C2595 H2583 0.950 . S
C2595 C2591 1.393 . S
C2595 C2594 1.391 . S
H2596 C2604 0.950 . S
H2597 C2609 0.950 . S
H2598 C2606 0.950 . S
H2599 C2608 0.950 . S
H2600 C2610 0.950 . S
H2601 C2612 0.950 . S
H2602 C2614 0.950 . S
H2603 C2615 0.950 . S
C2604 H2596 0.950 . S
C2604 C2605 1.386 . S
C2604 C2606 1.391 . S
C2605 C2604 1.386 . S
C2605 C2609 1.393 . S
C2606 H2598 0.950 . S
C2606 C2604 1.391 . S
C2606 C2607 1.400 . S
C2607 C2606 1.400 . S
C2607 C2608 1.398 . S
C2607 C2613 1.491 . S
C2608 H2599 0.950 . S
C2608 C2607 1.398 . S
C2608 C2609 1.391 . S
C2609 H2597 0.950 . S
C2609 C2605 1.393 . S
C2609 C2608 1.391 . S
C2610 H2600 0.950 . S
C2610 C2611 1.386 . S
C2610 C2612 1.391 . S
C2611 C2610 1.386 . S
C2611 C2615 1.393 . S
C2612 H2601 0.950 . S
C2612 C2610 1.391 . S
C2612 C2613 1.400 . S
C2613 C2607 1.491 . S
C2613 C2612 1.400 . S
C2613 C2614 1.398 . S
C2614 H2602 0.950 . S
C2614 C2613 1.398 . S
C2614 C2615 1.391 . S
C2615 H2603 0.950 . S
C2615 C2611 1.393 . S
C2615 C2614 1.391 . S
H2616 C2624 0.950 . S
H2617 C2629 0.950 . S
H2618 C2626 0.950 . S
H2619 C2628 0.950 . S
H2620 C2630 0.950 . S
H2621 C2632 0.950 . S
H2622 C2634 0.950 . S
H2623 C2635 0.950 . S
C2624 H2616 0.950 . S
C2624 C2625 1.386 . S
C2624 C2626 1.391 . S
C2625 C2624 1.386 . S
C2625 C2629 1.393 . S
C2626 H2618 0.950 . S
C2626 C2624 1.391 . S
C2626 C2627 1.400 . S
C2627 C2626 1.400 . S
C2627 C2628 1.398 . S
C2627 C2633 1.491 . S
C2628 H2619 0.950 . S
C2628 C2627 1.398 . S
C2628 C2629 1.391 . S
C2629 H2617 0.950 . S
C2629 C2625 1.393 . S
C2629 C2628 1.391 . S
C2630 H2620 0.950 . S
C2630 C2631 1.386 . S
C2630 C2632 1.391 . S
C2631 C2630 1.386 . S
C2631 C2635 1.393 . S
C2632 H2621 0.950 . S
C2632 C2630 1.391 . S
C2632 C2633 1.400 . S
C2633 C2627 1.491 . S
C2633 C2632 1.400 . S
C2633 C2634 1.398 . S
C2634 H2622 0.950 . S
C2634 C2633 1.398 . S
C2634 C2635 1.391 . S
C2635 H2623 0.950 . S
C2635 C2631 1.393 . S
C2635 C2634 1.391 . S
H2636 C2644 0.950 . S
H2637 C2649 0.950 . S
H2638 C2646 0.950 . S
H2639 C2648 0.950 . S
H2640 C2650 0.950 . S
H2641 C2652 0.950 . S
H2642 C2654 0.969 . S
H2643 C2655 0.950 . S
C2644 H2636 0.950 . S
C2644 C2645 1.386 . S
C2644 C2646 1.391 . S
C2645 C2644 1.386 . S
C2645 C2649 1.393 . S
C2646 H2638 0.950 . S
C2646 C2644 1.391 . S
C2646 C2647 1.400 . S
C2647 C2646 1.400 . S
C2647 C2648 1.398 . S
C2647 C2653 1.491 . S
C2648 H2639 0.950 . S
C2648 C2647 1.398 . S
C2648 C2649 1.391 . S
C2649 H2637 0.950 . S
C2649 C2645 1.393 . S
C2649 C2648 1.391 . S
C2650 H2640 0.950 . S
C2650 C2651 1.384 1_565 S
C2650 C2652 1.391 . S
C2651 C2650 1.384 1_545 S
C2651 C2655 1.394 . S
C2652 H2641 0.950 . S
C2652 C2650 1.391 . S
C2652 C2653 1.400 . S
C2653 C2647 1.491 . S
C2653 C2652 1.400 . S
C2653 C2654 1.364 1_565 S
C2654 H2642 0.969 . S
C2654 C2653 1.364 1_545 S
C2654 C2655 1.407 . S
C2655 H2643 0.950 . S
C2655 C2651 1.394 . S
C2655 C2654 1.407 . S
H2656 C2664 0.950 . S
H2657 C2669 0.950 . S
H2658 C2666 0.950 . S
H2659 C2668 0.950 . S
H2660 C2670 0.950 . S
H2661 C2672 0.950 . S
H2662 C2674 0.950 . S
H2663 C2675 0.950 . S
C2664 H2656 0.950 . S
C2664 C2665 1.386 . S
C2664 C2666 1.391 . S
C2665 C2664 1.386 . S
C2665 C2669 1.393 . S
C2666 H2658 0.950 . S
C2666 C2664 1.391 . S
C2666 C2667 1.400 . S
C2667 C2666 1.400 . S
C2667 C2668 1.398 . S
C2667 C2673 1.491 . S
C2668 H2659 0.950 . S
C2668 C2667 1.398 . S
C2668 C2669 1.391 . S
C2669 H2657 0.950 . S
C2669 C2665 1.393 . S
C2669 C2668 1.391 . S
C2670 H2660 0.950 . S
C2670 C2671 1.386 . S
C2670 C2672 1.391 . S
C2671 C2670 1.386 . S
C2671 C2675 1.393 . S
C2672 H2661 0.950 . S
C2672 C2670 1.391 . S
C2672 C2673 1.400 . S
C2673 C2667 1.491 . S
C2673 C2672 1.400 . S
C2673 C2674 1.398 . S
C2674 H2662 0.950 . S
C2674 C2673 1.398 . S
C2674 C2675 1.391 . S
C2675 H2663 0.950 . S
C2675 C2671 1.393 . S
C2675 C2674 1.391 . S
H2676 C2684 0.949 1_556 S
H2677 C2689 0.950 . S
H2678 C2686 0.950 . S
H2679 C2688 0.950 . S
H2680 C2690 0.950 . S
H2681 C2692 0.950 . S
H2682 C2694 0.950 . S
H2683 C2695 0.950 . S
C2684 H2676 0.949 1_554 S
C2684 C2685 1.386 . S
C2684 C2686 1.391 . S
C2685 C2684 1.386 . S
C2685 C2689 1.393 . S
C2686 H2678 0.950 . S
C2686 C2684 1.391 . S
C2686 C2687 1.400 . S
C2687 C2686 1.400 . S
C2687 C2688 1.398 . S
C2687 C2693 1.491 . S
C2688 H2679 0.950 . S
C2688 C2687 1.398 . S
C2688 C2689 1.391 . S
C2689 H2677 0.950 . S
C2689 C2685 1.393 . S
C2689 C2688 1.391 . S
C2690 H2680 0.950 . S
C2690 C2691 1.386 . S
C2690 C2692 1.391 . S
C2691 C2690 1.386 . S
C2691 C2695 1.393 . S
C2692 H2681 0.950 . S
C2692 C2690 1.391 . S
C2692 C2693 1.400 . S
C2693 C2687 1.491 . S
C2693 C2692 1.400 . S
C2693 C2694 1.398 . S
C2694 H2682 0.950 . S
C2694 C2693 1.398 . S
C2694 C2695 1.391 . S
C2695 H2683 0.950 . S
C2695 C2691 1.393 . S
C2695 C2694 1.391 . S
H2696 C2704 0.950 . S
H2697 C2709 0.950 . S
H2698 C2706 0.950 . S
H2699 C2708 0.950 . S
H2700 C2710 0.950 . S
H2701 C2712 0.950 . S
H2702 C2714 0.950 . S
H2703 C2715 0.950 . S
C2704 H2696 0.950 . S
C2704 C2705 1.386 . S
C2704 C2706 1.391 . S
C2705 C2704 1.386 . S
C2705 C2709 1.393 . S
C2706 H2698 0.950 . S
C2706 C2704 1.391 . S
C2706 C2707 1.400 . S
C2707 C2706 1.400 . S
C2707 C2708 1.398 . S
C2707 C2713 1.491 . S
C2708 H2699 0.950 . S
C2708 C2707 1.398 . S
C2708 C2709 1.391 . S
C2709 H2697 0.950 . S
C2709 C2705 1.393 . S
C2709 C2708 1.391 . S
C2710 H2700 0.950 . S
C2710 C2711 1.386 . S
C2710 C2712 1.391 . S
C2711 C2710 1.386 . S
C2711 C2715 1.393 . S
C2712 H2701 0.950 . S
C2712 C2710 1.391 . S
C2712 C2713 1.400 . S
C2713 C2707 1.491 . S
C2713 C2712 1.400 . S
C2713 C2714 1.398 . S
C2714 H2702 0.950 . S
C2714 C2713 1.398 . S
C2714 C2715 1.391 . S
C2715 H2703 0.950 . S
C2715 C2711 1.393 . S
C2715 C2714 1.391 . S
H2716 C2724 0.950 . S
H2717 C2729 0.950 . S
H2718 C2726 0.950 . S
H2719 C2728 0.950 . S
H2720 C2730 0.950 . S
H2721 C2732 0.950 . S
H2722 C2734 0.950 . S
H2723 C2735 0.950 . S
C2724 H2716 0.950 . S
C2724 C2725 1.386 . S
C2724 C2726 1.391 . S
C2725 C2724 1.386 . S
C2725 C2729 1.393 . S
C2726 H2718 0.950 . S
C2726 C2724 1.391 . S
C2726 C2727 1.400 . S
C2727 C2726 1.400 . S
C2727 C2728 1.398 . S
C2727 C2733 1.491 . S
C2728 H2719 0.950 . S
C2728 C2727 1.398 . S
C2728 C2729 1.391 . S
C2729 H2717 0.950 . S
C2729 C2725 1.393 . S
C2729 C2728 1.391 . S
C2730 H2720 0.950 . S
C2730 C2731 1.386 . S
C2730 C2732 1.391 . S
C2731 C2730 1.386 . S
C2731 C2735 1.393 . S
C2732 H2721 0.950 . S
C2732 C2730 1.391 . S
C2732 C2733 1.400 . S
C2733 C2727 1.491 . S
C2733 C2732 1.400 . S
C2733 C2734 1.398 . S
C2734 H2722 0.950 . S
C2734 C2733 1.398 . S
C2734 C2735 1.391 . S
C2735 H2723 0.950 . S
C2735 C2731 1.393 . S
C2735 C2734 1.391 . S
C831 C337 1.819 . S
C825 C7 1.839 . S
C845 C22 0.999 . S
C851 C382 0.996 . S
C865 C31 1.756 . S
C871 C406 1.731 . S
C891 N432 1.059 . S
C885 C51 1.041 . S
C905 C17 1.114 . S
C911 N462 1.122 . S
C931 C496 1.577 . S
C925 C36 1.606 . S
C951 C532 1.207 1_556 S
C945 C49 1.169 . S
C965 C9 1.788 . S
C971 C556 1.757 . S
C985 C63 0.983 . S
C991 N350 0.994 . S
C1005 C73 1.105 . S
C1011 N372 1.109 . S
C1031 C412 1.058 . S
C1025 C91 1.014 . S
C1051 C436 1.786 . S
C1045 C101 1.812 . S
C1065 C59 1.243 . S
C1071 C466 1.202 . S
C1091 C502 1.120 . S
C1085 C77 1.090 . S
C1111 N522 1.086 . S
C1105 C87 1.077 . S
C1131 C562 1.728 . S
C1125 C105 1.733 . S
C1151 C363 1.677 . S
C1145 C107 1.700 . S
C1171 C592 1.021 . S
C1165 C120 1.011 . S
C1185 C135 1.088 . S
C1191 N612 1.096 . S
C1211 C646 1.571 . S
C1205 C148 1.606 . S
C1225 C65 0.913 . S
C1231 N552 0.922 . S
C1251 N402 1.086 1_565 S
C1245 C79 1.082 . S
C1265 C134 1.055 . S
C1271 C682 1.059 . S
C1291 C706 1.041 . S
C1285 C162 1.049 . S
C1305 C171 1.804 . S
C1311 C346 1.786 1_556 S
C1331 C723 0.968 . S
C1325 C190 0.962 . S
C1345 C203 1.679 . S
C1351 C397 1.683 . S
C1365 C219 1.016 . S
C1371 N680 1.026 . S
C1391 N470 1.093 . S
C1385 C189 1.030 . S
C1411 C607 1.537 . S
C1405 C204 1.564 . S
C1431 C543 1.157 . S
C1425 C213 1.166 . S
C1451 C727 1.729 . S
C1445 C177 1.757 . S
C1471 N342 0.946 . S
C1465 C227 0.957 . S
C1485 C245 1.053 . S
C1491 N710 1.081 . S
C1511 C423 0.996 . S
C1505 C255 1.010 . S
C1525 C273 1.720 . S
C1531 C667 1.743 . S
C1545 C231 1.129 . S
C1551 C457 1.158 1_655 S
C1565 C241 1.069 . S
C1571 C633 1.061 . S
C1591 N530 1.063 . S
C1585 C259 1.030 . S
C1605 C269 1.703 . S
C1611 C753 1.684 . S
C1625 C275 1.660 . S
C1631 C352 1.647 . S
C1645 C288 0.973 . S
C1651 C603 0.961 . S
C1665 C303 1.066 . S
C1671 N500 1.067 . S
C1685 C316 1.561 . S
C1691 C637 1.531 . S
C1711 N740 0.898 . S
C1705 C233 0.901 1_565 S
C1731 N410 1.056 . S
C1725 C247 1.049 . S
C1751 C453 1.012 . S
C1745 C302 1.007 . S
C1771 C367 0.972 . S
C1765 C330 0.993 . S
C1785 C35 1.829 . S
C1791 C757 1.818 . S
C1811 C712 1.006 . S
C1805 C50 0.995 . S
C1831 C796 1.721 . S
C1825 C3 1.752 . S
C1845 C23 1.060 1_655 S
C1851 N672 1.062 . S
C1865 C45 1.122 . S
C1871 N582 1.123 1_556 S
C1891 C616 1.572 . S
C1885 C8 1.602 . S
C1911 C652 1.214 . S
C1905 C21 1.169 . S
C1931 C736 1.767 . S
C1925 C37 1.787 . S
C1951 N770 0.986 . S
C1945 C161 0.982 . S
C1965 C115 1.098 1_556 S
C1971 N702 1.107 . S
C1985 C133 1.043 . S
C1991 C802 1.046 1_655 S
C2011 C676 1.775 . S
C2005 C143 1.812 . S
C2031 C586 1.229 . S
C2025 C157 1.252 . S
C2045 C119 1.097 . S
C2051 C622 1.107 . S
C2071 N642 1.085 . S
C2065 C129 1.076 . S
C2085 C147 1.732 . S
C2091 C742 1.726 . S
C2111 C783 1.679 . S
C2105 C149 1.696 . S
C2131 C472 1.005 . S
C2125 C78 1.005 . S
C2151 N492 1.096 . S
C2145 C93 1.087 1_565 S
C2165 C106 1.609 . S
C2171 C526 1.578 . S
C2191 N732 0.922 . S
C2185 C163 0.913 . S
C2205 C121 1.060 . S
C2211 N792 1.081 . S
C2231 C442 1.060 . S
C2225 C92 1.051 . S
C2251 C376 1.017 . S
C2245 C64 1.049 . S
C2265 C199 1.801 . S
C2271 C766 1.771 . S
C2291 C393 0.965 . S
C2285 C218 0.959 . S
C2311 C787 1.690 1_556 S
C2305 C175 1.686 . S
C2325 C191 1.024 . S
C2331 N440 1.028 . S
C2345 C217 1.063 . S
C2351 N590 1.094 . S
C2365 C176 1.566 . S
C2371 C487 1.549 . S
C2385 C185 1.170 . S
C2391 C663 1.166 . S
C2405 C205 1.757 . S
C2411 C547 1.726 . S
C2431 N762 0.958 . S
C2425 C325 0.950 . S
C2445 C287 1.020 . S
C2451 N380 1.073 . S
C2471 C813 1.012 . S
C2465 C297 1.010 . S
C2485 C315 1.715 . S
C2491 C427 1.739 . S
C2505 C329 1.156 . S
C2511 C577 1.185 . S
C2531 C513 1.059 . S
C2525 C283 1.076 . S
C2545 C301 1.029 . S
C2551 N650 1.063 . S
C2571 C573 1.685 . S
C2565 C311 1.703 . S
C2591 C772 1.650 . S
C2585 C317 1.660 . S
C2611 C483 0.963 . S
C2605 C246 0.975 . S
C2625 C261 1.047 . S
C2631 N620 1.062 . S
C2651 C517 1.531 . S
C2645 C274 1.560 . S
C2671 N560 0.895 . S
C2665 C331 0.898 . S
C2685 C289 1.056 1_554 S
C2691 N800 1.056 . S
C2711 C693 1.018 . S
C2705 C260 1.013 . S
C2731 C697 0.964 . S
C2725 C232 0.986 . S
