# Generated by pormake.
# Topology gar, (4,6)-cn, num edge types: 1
# Building blocks:
#     Node 0, Type 0, BuildingBlock: QUQFOY_clean_sbu_1, # of connection points: 4
#     Node 1, Type 0, BuildingBlock: QUQFOY_clean_sbu_1, # of connection points: 4
#     Node 2, Type 0, BuildingBlock: QUQFOY_clean_sbu_1, # of connection points: 4
#     Node 3, Type 0, BuildingBlock: QUQFOY_clean_sbu_1, # of connection points: 4
#     Node 4, Type 0, BuildingBlock: QUQFOY_clean_sbu_1, # of connection points: 4
#     Node 5, Type 0, BuildingBlock: QUQFOY_clean_sbu_1, # of connection points: 4
#     Node 6, Type 0, BuildingBlock: QUQFOY_clean_sbu_1, # of connection points: 4
#     Node 7, Type 0, BuildingBlock: QUQFOY_clean_sbu_1, # of connection points: 4
#     Node 8, Type 0, BuildingBlock: QUQFOY_clean_sbu_1, # of connection points: 4
#     Node 9, Type 0, BuildingBlock: QUQFOY_clean_sbu_1, # of connection points: 4
#     Node 10, Type 0, BuildingBlock: QUQFOY_clean_sbu_1, # of connection points: 4
#     Node 11, Type 0, BuildingBlock: QUQFOY_clean_sbu_1, # of connection points: 4
#     Node 12, Type 0, BuildingBlock: QUQFOY_clean_sbu_1, # of connection points: 4
#     Node 13, Type 0, BuildingBlock: QUQFOY_clean_sbu_1, # of connection points: 4
#     Node 14, Type 0, BuildingBlock: QUQFOY_clean_sbu_1, # of connection points: 4
#     Node 15, Type 0, BuildingBlock: QUQFOY_clean_sbu_1, # of connection points: 4
#     Node 16, Type 0, BuildingBlock: QUQFOY_clean_sbu_1, # of connection points: 4
#     Node 17, Type 0, BuildingBlock: QUQFOY_clean_sbu_1, # of connection points: 4
#     Node 18, Type 0, BuildingBlock: QUQFOY_clean_sbu_1, # of connection points: 4
#     Node 19, Type 0, BuildingBlock: QUQFOY_clean_sbu_1, # of connection points: 4
#     Node 20, Type 0, BuildingBlock: QUQFOY_clean_sbu_1, # of connection points: 4
#     Node 21, Type 0, BuildingBlock: QUQFOY_clean_sbu_1, # of connection points: 4
#     Node 22, Type 0, BuildingBlock: QUQFOY_clean_sbu_1, # of connection points: 4
#     Node 23, Type 0, BuildingBlock: QUQFOY_clean_sbu_1, # of connection points: 4
#     Node 24, Type 1, BuildingBlock: KUMBUR_clean_sbu_1, # of connection points: 6
#     Node 25, Type 1, BuildingBlock: KUMBUR_clean_sbu_1, # of connection points: 6
#     Node 26, Type 1, BuildingBlock: KUMBUR_clean_sbu_1, # of connection points: 6
#     Node 27, Type 1, BuildingBlock: KUMBUR_clean_sbu_1, # of connection points: 6
#     Node 28, Type 1, BuildingBlock: KUMBUR_clean_sbu_1, # of connection points: 6
#     Node 29, Type 1, BuildingBlock: KUMBUR_clean_sbu_1, # of connection points: 6
#     Node 30, Type 1, BuildingBlock: KUMBUR_clean_sbu_1, # of connection points: 6
#     Node 31, Type 1, BuildingBlock: KUMBUR_clean_sbu_1, # of connection points: 6
#     Node 32, Type 1, BuildingBlock: KUMBUR_clean_sbu_1, # of connection points: 6
#     Node 33, Type 1, BuildingBlock: KUMBUR_clean_sbu_1, # of connection points: 6
#     Node 34, Type 1, BuildingBlock: KUMBUR_clean_sbu_1, # of connection points: 6
#     Node 35, Type 1, BuildingBlock: KUMBUR_clean_sbu_1, # of connection points: 6
#     Node 36, Type 1, BuildingBlock: KUMBUR_clean_sbu_1, # of connection points: 6
#     Node 37, Type 1, BuildingBlock: KUMBUR_clean_sbu_1, # of connection points: 6
#     Node 38, Type 1, BuildingBlock: KUMBUR_clean_sbu_1, # of connection points: 6
#     Node 39, Type 1, BuildingBlock: KUMBUR_clean_sbu_1, # of connection points: 6
#     Edge 40, Type (0, 1), BuildingBlock: AJUNOK_clean_linker_0, # of connection points: 2
#     Edge 41, Type (0, 1), BuildingBlock: AJUNOK_clean_linker_0, # of connection points: 2
#     Edge 42, Type (0, 1), BuildingBlock: AJUNOK_clean_linker_0, # of connection points: 2
#     Edge 43, Type (0, 1), BuildingBlock: AJUNOK_clean_linker_0, # of connection points: 2
#     Edge 44, Type (0, 1), BuildingBlock: AJUNOK_clean_linker_0, # of connection points: 2
#     Edge 45, Type (0, 1), BuildingBlock: AJUNOK_clean_linker_0, # of connection points: 2
#     Edge 46, Type (0, 1), BuildingBlock: AJUNOK_clean_linker_0, # of connection points: 2
#     Edge 47, Type (0, 1), BuildingBlock: AJUNOK_clean_linker_0, # of connection points: 2
#     Edge 48, Type (0, 1), BuildingBlock: AJUNOK_clean_linker_0, # of connection points: 2
#     Edge 49, Type (0, 1), BuildingBlock: AJUNOK_clean_linker_0, # of connection points: 2
#     Edge 50, Type (0, 1), BuildingBlock: AJUNOK_clean_linker_0, # of connection points: 2
#     Edge 51, Type (0, 1), BuildingBlock: AJUNOK_clean_linker_0, # of connection points: 2
#     Edge 52, Type (0, 1), BuildingBlock: AJUNOK_clean_linker_0, # of connection points: 2
#     Edge 53, Type (0, 1), BuildingBlock: AJUNOK_clean_linker_0, # of connection points: 2
#     Edge 54, Type (0, 1), BuildingBlock: AJUNOK_clean_linker_0, # of connection points: 2
#     Edge 55, Type (0, 1), BuildingBlock: AJUNOK_clean_linker_0, # of connection points: 2
#     Edge 56, Type (0, 1), BuildingBlock: AJUNOK_clean_linker_0, # of connection points: 2
#     Edge 57, Type (0, 1), BuildingBlock: AJUNOK_clean_linker_0, # of connection points: 2
#     Edge 58, Type (0, 1), BuildingBlock: AJUNOK_clean_linker_0, # of connection points: 2
#     Edge 59, Type (0, 1), BuildingBlock: AJUNOK_clean_linker_0, # of connection points: 2
#     Edge 60, Type (0, 1), BuildingBlock: AJUNOK_clean_linker_0, # of connection points: 2
#     Edge 61, Type (0, 1), BuildingBlock: AJUNOK_clean_linker_0, # of connection points: 2
#     Edge 62, Type (0, 1), BuildingBlock: AJUNOK_clean_linker_0, # of connection points: 2
#     Edge 63, Type (0, 1), BuildingBlock: AJUNOK_clean_linker_0, # of connection points: 2
#     Edge 64, Type (0, 1), BuildingBlock: AJUNOK_clean_linker_0, # of connection points: 2
#     Edge 65, Type (0, 1), BuildingBlock: AJUNOK_clean_linker_0, # of connection points: 2
#     Edge 66, Type (0, 1), BuildingBlock: AJUNOK_clean_linker_0, # of connection points: 2
#     Edge 67, Type (0, 1), BuildingBlock: AJUNOK_clean_linker_0, # of connection points: 2
#     Edge 68, Type (0, 1), BuildingBlock: AJUNOK_clean_linker_0, # of connection points: 2
#     Edge 69, Type (0, 1), BuildingBlock: AJUNOK_clean_linker_0, # of connection points: 2
#     Edge 70, Type (0, 1), BuildingBlock: AJUNOK_clean_linker_0, # of connection points: 2
#     Edge 71, Type (0, 1), BuildingBlock: AJUNOK_clean_linker_0, # of connection points: 2
#     Edge 72, Type (0, 1), BuildingBlock: AJUNOK_clean_linker_0, # of connection points: 2
#     Edge 73, Type (0, 1), BuildingBlock: AJUNOK_clean_linker_0, # of connection points: 2
#     Edge 74, Type (0, 1), BuildingBlock: AJUNOK_clean_linker_0, # of connection points: 2
#     Edge 75, Type (0, 1), BuildingBlock: AJUNOK_clean_linker_0, # of connection points: 2
#     Edge 76, Type (0, 1), BuildingBlock: AJUNOK_clean_linker_0, # of connection points: 2
#     Edge 77, Type (0, 1), BuildingBlock: AJUNOK_clean_linker_0, # of connection points: 2
#     Edge 78, Type (0, 1), BuildingBlock: AJUNOK_clean_linker_0, # of connection points: 2
#     Edge 79, Type (0, 1), BuildingBlock: AJUNOK_clean_linker_0, # of connection points: 2
#     Edge 80, Type (0, 1), BuildingBlock: AJUNOK_clean_linker_0, # of connection points: 2
#     Edge 81, Type (0, 1), BuildingBlock: AJUNOK_clean_linker_0, # of connection points: 2
#     Edge 82, Type (0, 1), BuildingBlock: AJUNOK_clean_linker_0, # of connection points: 2
#     Edge 83, Type (0, 1), BuildingBlock: AJUNOK_clean_linker_0, # of connection points: 2
#     Edge 84, Type (0, 1), BuildingBlock: AJUNOK_clean_linker_0, # of connection points: 2
#     Edge 85, Type (0, 1), BuildingBlock: AJUNOK_clean_linker_0, # of connection points: 2
#     Edge 86, Type (0, 1), BuildingBlock: AJUNOK_clean_linker_0, # of connection points: 2
#     Edge 87, Type (0, 1), BuildingBlock: AJUNOK_clean_linker_0, # of connection points: 2
#     Edge 88, Type (0, 1), BuildingBlock: AJUNOK_clean_linker_0, # of connection points: 2
#     Edge 89, Type (0, 1), BuildingBlock: AJUNOK_clean_linker_0, # of connection points: 2
#     Edge 90, Type (0, 1), BuildingBlock: AJUNOK_clean_linker_0, # of connection points: 2
#     Edge 91, Type (0, 1), BuildingBlock: AJUNOK_clean_linker_0, # of connection points: 2
#     Edge 92, Type (0, 1), BuildingBlock: AJUNOK_clean_linker_0, # of connection points: 2
#     Edge 93, Type (0, 1), BuildingBlock: AJUNOK_clean_linker_0, # of connection points: 2
#     Edge 94, Type (0, 1), BuildingBlock: AJUNOK_clean_linker_0, # of connection points: 2
#     Edge 95, Type (0, 1), BuildingBlock: AJUNOK_clean_linker_0, # of connection points: 2
#     Edge 96, Type (0, 1), BuildingBlock: AJUNOK_clean_linker_0, # of connection points: 2
#     Edge 97, Type (0, 1), BuildingBlock: AJUNOK_clean_linker_0, # of connection points: 2
#     Edge 98, Type (0, 1), BuildingBlock: AJUNOK_clean_linker_0, # of connection points: 2
#     Edge 99, Type (0, 1), BuildingBlock: AJUNOK_clean_linker_0, # of connection points: 2
#     Edge 100, Type (0, 1), BuildingBlock: AJUNOK_clean_linker_0, # of connection points: 2
#     Edge 101, Type (0, 1), BuildingBlock: AJUNOK_clean_linker_0, # of connection points: 2
#     Edge 102, Type (0, 1), BuildingBlock: AJUNOK_clean_linker_0, # of connection points: 2
#     Edge 103, Type (0, 1), BuildingBlock: AJUNOK_clean_linker_0, # of connection points: 2
#     Edge 104, Type (0, 1), BuildingBlock: AJUNOK_clean_linker_0, # of connection points: 2
#     Edge 105, Type (0, 1), BuildingBlock: AJUNOK_clean_linker_0, # of connection points: 2
#     Edge 106, Type (0, 1), BuildingBlock: AJUNOK_clean_linker_0, # of connection points: 2
#     Edge 107, Type (0, 1), BuildingBlock: AJUNOK_clean_linker_0, # of connection points: 2
#     Edge 108, Type (0, 1), BuildingBlock: AJUNOK_clean_linker_0, # of connection points: 2
#     Edge 109, Type (0, 1), BuildingBlock: AJUNOK_clean_linker_0, # of connection points: 2
#     Edge 110, Type (0, 1), BuildingBlock: AJUNOK_clean_linker_0, # of connection points: 2
#     Edge 111, Type (0, 1), BuildingBlock: AJUNOK_clean_linker_0, # of connection points: 2
#     Edge 112, Type (0, 1), BuildingBlock: AJUNOK_clean_linker_0, # of connection points: 2
#     Edge 113, Type (0, 1), BuildingBlock: AJUNOK_clean_linker_0, # of connection points: 2
#     Edge 114, Type (0, 1), BuildingBlock: AJUNOK_clean_linker_0, # of connection points: 2
#     Edge 115, Type (0, 1), BuildingBlock: AJUNOK_clean_linker_0, # of connection points: 2
#     Edge 116, Type (0, 1), BuildingBlock: AJUNOK_clean_linker_0, # of connection points: 2
#     Edge 117, Type (0, 1), BuildingBlock: AJUNOK_clean_linker_0, # of connection points: 2
#     Edge 118, Type (0, 1), BuildingBlock: AJUNOK_clean_linker_0, # of connection points: 2
#     Edge 119, Type (0, 1), BuildingBlock: AJUNOK_clean_linker_0, # of connection points: 2
#     Edge 120, Type (0, 1), BuildingBlock: AJUNOK_clean_linker_0, # of connection points: 2
#     Edge 121, Type (0, 1), BuildingBlock: AJUNOK_clean_linker_0, # of connection points: 2
#     Edge 122, Type (0, 1), BuildingBlock: AJUNOK_clean_linker_0, # of connection points: 2
#     Edge 123, Type (0, 1), BuildingBlock: AJUNOK_clean_linker_0, # of connection points: 2
#     Edge 124, Type (0, 1), BuildingBlock: AJUNOK_clean_linker_0, # of connection points: 2
#     Edge 125, Type (0, 1), BuildingBlock: AJUNOK_clean_linker_0, # of connection points: 2
#     Edge 126, Type (0, 1), BuildingBlock: AJUNOK_clean_linker_0, # of connection points: 2
#     Edge 127, Type (0, 1), BuildingBlock: AJUNOK_clean_linker_0, # of connection points: 2
#     Edge 128, Type (0, 1), BuildingBlock: AJUNOK_clean_linker_0, # of connection points: 2
#     Edge 129, Type (0, 1), BuildingBlock: AJUNOK_clean_linker_0, # of connection points: 2
#     Edge 130, Type (0, 1), BuildingBlock: AJUNOK_clean_linker_0, # of connection points: 2
#     Edge 131, Type (0, 1), BuildingBlock: AJUNOK_clean_linker_0, # of connection points: 2
#     Edge 132, Type (0, 1), BuildingBlock: AJUNOK_clean_linker_0, # of connection points: 2
#     Edge 133, Type (0, 1), BuildingBlock: AJUNOK_clean_linker_0, # of connection points: 2
#     Edge 134, Type (0, 1), BuildingBlock: AJUNOK_clean_linker_0, # of connection points: 2
#     Edge 135, Type (0, 1), BuildingBlock: AJUNOK_clean_linker_0, # of connection points: 2
# Relax obj value: 0.122
# Max RMSD: 0.200
# Mean RMSD: 0.144
data_MOF--net-gar--node1-QUQFOY_clean_sbu_1--node2-KUMBUR_clean_sbu_1--edge1-AJUNOK_clean_linker_0
_symmetry_space_group_name_H-M    P1
_symmetry_Int_Tables_number       1
_symmetry_cell_setting            triclinic
loop_
_symmetry_equiv_pos_as_xyz
'x, y, z'
_cell_length_a     45.724851
_cell_length_b     45.759089
_cell_length_c     42.651527
_cell_angle_alpha  97.216615
_cell_angle_beta   97.378559
_cell_angle_gamma 104.45451
loop_
_atom_site_label
_atom_site_type_symbol
_atom_site_fract_x
_atom_site_fract_y
_atom_site_fract_z
_atom_type_partial_charge
O0 O 0.09534 0.31088 0.39657 0.0
Cd1 Cd 0.09833 0.33506 0.35822 0.0
Cd2 Cd 0.0783 0.37873 0.41798 0.0
O3 O 0.09157 0.34399 0.43795 0.0
O4 O 0.12387 0.31429 0.32737 0.0
O5 O 0.14569 0.35754 0.3584 0.0
C6 C 0.14924 0.33526 0.33861 0.0
C7 C 0.08259 0.42503 0.45509 0.0
C8 C 0.09432 0.3179 0.4263 0.0
C9 C 1.02919 0.34683 0.35613 0.0
O10 O 1.03808 0.36225 0.38441 0.0
O11 O 0.04899 0.33715 0.34074 0.0
O12 O 0.06367 0.39929 0.45612 0.0
O13 O 0.09931 0.42499 0.43294 0.0
O14 O 0.04272 0.72837 0.73418 0.0
Cd15 Cd 0.05021 0.76942 0.76876 0.0
Cd16 Cd 0.07227 0.79408 0.71944 0.0
O17 O 0.05034 0.7522 0.69304 0.0
O18 O 1.01361 0.76415 0.79737 0.0
O19 O 1.01647 0.79555 0.76354 0.0
C20 C 1.00083 0.78281 0.78393 0.0
C21 C 0.07125 0.83542 0.69286 0.0
C22 C 0.04443 0.72746 0.70433 0.0
C23 C 0.12422 0.79035 0.7686 0.0
O24 O 0.11546 0.79565 0.74099 0.0
O25 O 0.10316 0.78327 0.78662 0.0
O26 O 0.08305 0.81423 0.68256 0.0
O27 O 0.05936 0.83345 0.71856 0.0
O28 O 0.65411 0.86187 0.89455 0.0
Cd29 Cd 0.61818 0.85974 0.92029 0.0
Cd30 Cd 0.58467 0.87464 0.86381 0.0
O31 O 0.62832 0.86255 0.84727 0.0
O32 O 0.62686 0.83635 0.95539 0.0
O33 O 0.587 0.81938 0.91644 0.0
C34 C 0.60239 0.81523 0.94234 0.0
C35 C 0.52658 0.85665 0.8444 0.0
C36 C 0.65364 0.86071 0.8645 0.0
C37 C 0.59951 0.91899 0.92996 0.0
O38 O 0.59234 0.9154 0.89934 0.0
O39 O 0.60876 0.89861 0.94285 0.0
O40 O 0.54512 0.8753 0.83071 0.0
O41 O 0.54069 0.84547 0.86631 0.0
O42 O 0.54799 0.21664 0.21988 0.0
Cd43 Cd 0.55404 0.25931 0.25401 0.0
Cd44 Cd 0.58112 0.27969 0.2051 0.0
O45 O 0.55743 0.23871 0.17792 0.0
O46 O 0.51836 0.2558 0.28396 0.0
O47 O 0.51921 0.28432 0.24755 0.0
C48 C 0.50482 0.27343 0.26964 0.0
C49 C 0.58282 0.32533 0.18582 0.0
C50 C 0.55051 0.21441 0.18994 0.0
C51 C 0.62903 0.28052 0.25931 0.0
O52 O 0.62277 0.27967 0.22938 0.0
O53 O 0.60618 0.277 0.27548 0.0
O54 O 0.59447 0.3051 0.17258 0.0
O55 O 0.56846 0.3189 0.2093 0.0
O56 O 0.10006 0.78214 0.13723 0.0
Cd57 Cd 0.10424 0.82478 0.16232 0.0
Cd58 Cd 0.12786 0.8508 0.11197 0.0
O59 O 0.11293 0.79814 0.09299 0.0
O60 O 0.08567 0.81256 0.19978 0.0
O61 O 0.06601 0.83889 0.16704 0.0
C62 C 0.0646 0.8255 0.19188 0.0
C63 C 0.11375 0.89972 0.09685 0.0
C64 C 0.1045 0.77547 0.10879 0.0
C65 C 0.17173 0.85659 0.17539 0.0
O66 O 0.17 0.85991 0.14579 0.0
O67 O 0.14736 0.84627 0.18634 0.0
O68 O 0.1292 0.88495 0.08058 0.0
O69 O 0.10446 0.88636 0.12024 0.0
O70 O 0.58751 0.80233 0.47779 0.0
Cd71 Cd 0.56548 0.80061 0.51761 0.0
Cd72 Cd 0.52082 0.82239 0.46126 0.0
O73 O 0.55511 0.81102 0.43878 0.0
O74 O 0.58815 0.77409 0.54482 0.0
O75 O 0.54094 0.75514 0.52161 0.0
C76 C 0.56491 0.75009 0.53732 0.0
C77 C 0.4735 0.81776 0.42579 0.0
C78 C 0.58053 0.80582 0.44882 0.0
C79 C 0.55464 0.87007 0.5229 0.0
O80 O 0.5374 0.86213 0.49551 0.0
O81 O 0.56572 0.84993 0.53626 0.0
O82 O 0.49863 0.83776 0.42507 0.0
O83 O 0.47463 0.80012 0.44697 0.0
O84 O 0.61306 0.27636 0.64681 0.0
Cd85 Cd 0.61841 0.31959 0.67127 0.0
Cd86 Cd 0.64216 0.34392 0.62327 0.0
O87 O 0.62455 0.29206 0.60215 0.0
O88 O 0.59539 0.31007 0.70655 0.0
O89 O 0.58166 0.33676 0.67036 0.0
C90 C 0.57653 0.32426 0.69529 0.0
C91 C 0.62786 0.39285 0.6089 0.0
C92 C 0.61616 0.26943 0.61791 0.0
C93 C 0.68556 0.3463 0.68691 0.0
O94 O 0.68438 0.35017 0.65745 0.0
O95 O 0.66079 0.33859 0.69787 0.0
O96 O 0.64523 0.37968 0.5938 0.0
O97 O 0.61721 0.3782 0.6309 0.0
O98 O 0.04096 0.24496 0.97921 0.0
Cd99 Cd 0.0411 0.27877 0.95156 0.0
Cd100 Cd 1.03256 0.31789 1.00797 0.0
O101 O 0.04161 0.27315 0.02559 0.0
O102 O 0.06547 0.27211 0.91684 0.0
O103 O 0.07942 0.31238 0.95544 0.0
C104 C 0.08493 0.29776 0.92987 0.0
C105 C 0.05127 0.37551 0.0293 0.0
C106 C 0.04264 0.24698 1.00943 0.0
C107 C 0.98389 0.29971 0.94284 0.0
O108 O 0.99219 0.31264 0.97228 0.0
O109 O 1.00044 0.28471 0.93001 0.0
O110 O 1.03024 0.35671 0.0401 0.0
O111 O 0.06455 0.36188 1.00924 0.0
O112 O 0.41921 0.05382 0.28698 0.0
Cd113 Cd 0.40492 0.05758 0.33097 0.0
Cd114 Cd 0.45421 0.04992 0.34401 0.0
O115 O 0.46588 0.0763 0.31052 0.0
O116 O 0.37376 0.07927 0.32956 0.0
O117 O 0.42028 0.09777 0.35925 0.0
C118 C 0.39403 0.10162 0.34822 0.0
C119 C 0.4834 0.05565 0.3924 0.0
C120 C 0.44698 0.06562 0.28482 0.0
C121 C 0.40107 0.99761 0.33516 0.0
O122 O 0.42767 1.00614 0.32824 0.0
O123 O 0.38789 1.01735 0.34505 0.0
O124 O 0.49152 0.04427 0.36675 0.0
O125 O 0.45944 0.06592 0.39008 0.0
O126 O 0.3106 0.22832 0.60408 0.0
Cd127 Cd 0.30806 0.20116 0.56108 0.0
Cd128 Cd 0.2922 0.24853 0.53815 0.0
O129 O 0.30867 0.27154 0.58754 0.0
O130 O 0.32473 0.16891 0.57766 0.0
O131 O 0.34751 0.19861 0.54609 0.0
C132 C 0.34787 0.1776 0.5636 0.0
C133 C 0.30585 0.26292 0.48761 0.0
C134 C 0.31235 0.25658 0.61069 0.0
C135 C 0.24343 0.1886 0.53147 0.0
O136 O 0.24885 0.21748 0.53287 0.0
O137 O 0.26528 0.17667 0.53781 0.0
O138 O 0.28973 0.27626 0.5043 0.0
O139 O 0.31636 0.24271 0.50057 0.0
O140 O 0.15443 0.08455 0.76442 0.0
Cd141 Cd 0.18401 0.08461 0.80456 0.0
Cd142 Cd 0.14401 0.11475 0.83132 0.0
O143 O 0.1193 0.10429 0.78242 0.0
O144 O 0.21126 0.06847 0.77865 0.0
O145 O 0.19323 0.04587 0.81739 0.0
C146 C 0.20948 0.04658 0.79483 0.0
C147 C 0.12828 0.10065 0.88102 0.0
C148 C 0.13059 0.09364 0.75883 0.0
C149 C 0.2091 0.15161 0.83111 0.0
O150 O 0.18251 0.15253 0.8365 0.0
O151 O 0.21426 0.12627 0.82171 0.0
O152 O 0.11974 0.12169 0.86762 0.0
O153 O 0.14419 0.08611 0.86531 0.0
O154 O 0.34513 0.98183 0.07321 0.0
Cd155 Cd 0.33493 1.00277 0.03483 0.0
Cd156 Cd 0.33512 0.95387 1.01147 0.0
O157 O 0.31499 0.93832 0.04761 0.0
O158 O 0.31651 0.03414 0.04931 0.0
O159 O 0.29117 0.99037 0.01633 0.0
C160 C 0.29113 1.01551 0.034 0.0
C161 C 0.329 0.9244 0.96401 0.0
C162 C 0.33088 0.95422 0.07336 0.0
C163 C 0.38909 1.00477 0.01584 0.0
O164 O 0.38002 0.97801 0.02207 0.0
O165 O 0.37008 1.02042 1.01225 0.0
O166 O 0.34187 0.91741 0.98955 0.0
O167 O 0.31613 0.94655 0.96598 0.0
O168 O 0.34978 0.41454 0.13552 0.0
Cd169 Cd 0.35347 0.44261 0.10151 0.0
Cd170 Cd 0.368 0.39225 0.06553 0.0
O171 O 0.35578 0.37278 0.10784 0.0
O172 O 0.32877 0.47238 0.10965 0.0
O173 O 0.31731 0.43551 0.06733 0.0
C174 C 0.31073 0.45822 0.08343 0.0
C175 C 0.35215 0.36905 1.00992 0.0
C176 C 0.3501 0.38667 0.13365 0.0
C177 C 0.41485 0.45635 0.08221 0.0
O178 O 0.40826 0.42809 0.07021 0.0
O179 O 0.39594 0.46726 0.09582 0.0
O180 O 0.37313 0.36202 0.02835 0.0
O181 O 0.33807 0.38715 0.02338 0.0
O182 O 0.8207 0.16462 0.16571 0.0
Cd183 Cd 0.81409 0.12736 0.13212 0.0
Cd184 Cd 0.80275 0.16977 0.08963 0.0
O185 O 0.82602 0.19683 0.1307 0.0
O186 O 0.84607 0.10535 0.12936 0.0
O187 O 0.83605 0.13809 0.09761 0.0
C188 C 0.85166 0.11968 0.10555 0.0
C189 C 0.8015 0.19606 0.04716 0.0
C190 C 0.82669 0.19153 0.15913 0.0
C191 C 0.75218 0.11529 0.10083 0.0
O192 O 0.76185 0.14018 0.09061 0.0
O193 O 0.76998 0.10325 0.11674 0.0
O194 O 0.78842 0.20175 0.0712 0.0
O195 O 0.81577 0.17503 0.0469 0.0
O196 O 0.23894 0.59534 0.23176 0.0
Cd197 Cd 0.2702 0.59873 0.27077 0.0
Cd198 Cd 0.22329 0.59887 0.30093 0.0
O199 O 0.20201 0.57498 0.25697 0.0
O200 O 0.29629 0.57096 0.26616 0.0
O201 O 0.25986 0.56704 0.2968 0.0
C202 C 0.28127 0.55696 0.28617 0.0
C203 C 0.19292 0.59102 0.3397 0.0
C204 C 0.21117 0.58158 0.23133 0.0
C205 C 0.27419 0.65688 0.30464 0.0
O206 O 0.24631 0.64422 0.3055 0.0
O207 O 0.29125 0.64108 0.2947 0.0
O208 O 0.18583 0.60365 0.3157 0.0
O209 O 0.21761 0.58209 0.34184 0.0
O210 O 0.85562 0.92075 0.6462 0.0
Cd211 Cd 0.85895 0.94711 0.61136 0.0
Cd212 Cd 0.8694 0.89683 0.57386 0.0
O213 O 0.85777 0.87808 0.61712 0.0
O214 O 0.83511 0.97704 0.62026 0.0
O215 O 0.82294 0.9408 0.57743 0.0
C216 C 0.81711 0.96389 0.59371 0.0
C217 C 0.85031 0.87381 0.51845 0.0
C218 C 0.85426 0.89253 0.64377 0.0
C219 C 0.91798 0.96 0.58798 0.0
O220 O 0.91004 0.93177 0.57549 0.0
O221 O 0.90091 0.97118 0.60428 0.0
O222 O 0.87013 0.86458 0.53622 0.0
O223 O 0.83894 0.89392 0.53283 0.0
O224 O 0.982 0.04482 0.23328 0.0
Cd225 Cd 0.95722 0.04268 0.2701 0.0
Cd226 Cd 1.00614 1.02495 0.3009 0.0
O227 O 1.02494 0.03957 0.25917 0.0
O228 O 0.92622 0.06484 0.25876 0.0
O229 O 0.96298 0.08068 0.30115 0.0
C230 C 0.93924 0.08465 0.28405 0.0
C231 C 1.02794 0.04176 0.3571 0.0
C232 C 1.00993 0.04519 0.23399 0.0
C233 C 0.94241 0.98044 0.28857 0.0
O234 O 0.97123 0.9837 0.29443 0.0
O235 O 0.93212 1.00207 0.28024 0.0
O236 O 1.03791 1.02309 0.33872 0.0
O237 O 1.00734 0.05292 0.34317 0.0
O238 O 0.3146 0.66691 0.65473 0.0
Cd239 Cd 0.3085 0.63213 0.61844 0.0
Cd240 Cd 0.30351 0.67593 0.57921 0.0
O241 O 0.32393 0.70125 0.62252 0.0
O242 O 0.33817 0.60755 0.62058 0.0
O243 O 0.33612 0.64194 0.58813 0.0
C244 C 0.34865 0.62187 0.59831 0.0
C245 C 0.30731 0.70438 0.53824 0.0
C246 C 0.32284 0.69439 0.65024 0.0
C247 C 0.24846 0.6229 0.58172 0.0
O248 O 0.25994 0.6487 0.57413 0.0
O249 O 0.2648 0.60994 0.59839 0.0
O250 O 0.29329 0.71016 0.56144 0.0
O251 O 0.3204 0.68248 0.53841 0.0
O252 O 0.48784 0.54988 0.74192 0.0
Cd253 Cd 0.4609 0.54608 0.77748 0.0
Cd254 Cd 0.50849 0.52591 0.80707 0.0
O255 O 0.52885 0.54007 0.76663 0.0
O256 O 0.42846 0.56564 0.76295 0.0
O257 O 0.46096 0.58299 0.8084 0.0
C258 C 0.43766 0.58512 0.78909 0.0
C259 C 0.52916 0.54296 0.86297 0.0
C260 C 0.51509 0.54782 0.74215 0.0
C261 C 0.44533 0.48196 0.79282 0.0
O262 O 0.47396 0.48462 0.79932 0.0
O263 O 0.43573 0.50421 0.78512 0.0
O264 O 0.5397 0.52443 0.84507 0.0
O265 O 0.50827 0.55361 0.84882 0.0
O266 O 0.73481 0.08276 0.71269 0.0
Cd267 Cd 0.77094 0.09165 0.74804 0.0
Cd268 Cd 0.72853 0.09879 0.79199 0.0
O269 O 0.7035 0.08708 0.74765 0.0
O270 O 0.7966 0.06268 0.75089 0.0
O271 O 0.75991 0.06615 0.77972 0.0
C272 C 0.78108 0.05382 0.77294 0.0
C273 C 0.69858 0.08811 0.83047 0.0
C274 C 0.70838 0.08204 0.71923 0.0
C275 C 0.78334 0.15113 0.7902 0.0
O276 O 0.76057 0.13949 0.80293 0.0
O277 O 0.79148 0.1361 0.76739 0.0
O278 O 0.69616 0.10861 0.81312 0.0
O279 O 0.71891 0.07345 0.82671 0.0
O280 O 0.81765 0.74152 0.10946 0.0
Cd281 Cd 0.81476 0.7121 0.0683 0.0
Cd282 Cd 0.7844 0.75352 0.04537 0.0
O283 O 0.79735 0.77733 0.09471 0.0
O284 O 0.83251 0.68446 0.09216 0.0
O285 O 0.85288 0.70376 0.05273 0.0
C286 C 0.85375 0.68736 0.07507 0.0
C287 C 0.79898 0.77032 0.99604 0.0
C288 C 0.80972 0.76569 0.11707 0.0
C289 C 0.74704 0.68809 0.04525 0.0
O290 O 0.7463 0.71496 0.04059 0.0
O291 O 0.77244 0.68235 0.05317 0.0
O292 O 0.77796 0.77877 1.00951 0.0
O293 O 0.81295 0.75361 1.01127 0.0
O294 O 0.9019 0.54789 0.80302 0.0
Cd295 Cd 0.88906 0.55958 0.84647 0.0
Cd296 Cd 0.94179 0.56145 0.86097 0.0
O297 O 0.9468 0.57975 0.8206 0.0
O298 O 0.85626 0.57882 0.83882 0.0
O299 O 0.90395 0.60344 0.86356 0.0
C300 C 0.8772 0.60414 0.84987 0.0
C301 C 0.97809 0.57412 0.90532 0.0
C302 C 0.92769 0.5625 0.79745 0.0
C303 C 0.89398 0.50657 0.86483 0.0
O304 O 0.91904 0.51616 0.85494 0.0
O305 O 0.87862 0.5252 0.87198 0.0
O306 O 0.98264 0.56009 0.87901 0.0
O307 O 0.95374 0.58364 0.90536 0.0
O308 O 0.84722 0.46841 0.58554 0.0
Cd309 Cd 0.84763 0.48822 0.54444 0.0
Cd310 Cd 0.85313 0.4386 0.52949 0.0
O311 O 0.82358 0.42343 0.55877 0.0
O312 O 0.80842 0.49371 0.52398 0.0
O313 O 0.84285 0.52764 0.56114 0.0
C314 C 0.81591 0.51893 0.54422 0.0
C315 C 0.84652 0.41606 0.47864 0.0
C316 C 0.83313 0.44072 0.58549 0.0
C317 C 0.90715 0.48875 0.54283 0.0
O318 O 0.89732 0.46224 0.54945 0.0
O319 O 0.8885 0.50215 0.53083 0.0
O320 O 0.85713 0.40388 0.50175 0.0
O321 O 0.83827 0.44096 0.48481 0.0
O322 O 0.66612 0.58384 0.27318 0.0
Cd323 Cd 0.6935 0.58623 0.3158 0.0
Cd324 Cd 0.64871 0.60914 0.33854 0.0
O325 O 0.62583 0.59567 0.28846 0.0
O326 O 0.72451 0.56854 0.29767 0.0
O327 O 0.69771 0.54758 0.33228 0.0
C328 C 0.71763 0.54654 0.31363 0.0
C329 C 0.63429 0.59416 0.38864 0.0
C330 C 0.64004 0.58833 0.26578 0.0
C331 C 0.71153 0.65277 0.34187 0.0
O332 O 0.68356 0.65026 0.34447 0.0
O333 O 0.7205 0.6292 0.33404 0.0
O334 O 0.62254 0.61275 0.37403 0.0
O335 O 0.65256 0.58218 0.3738 0.0
Tb336 Tb 0.11418 0.10034 0.08591 0.0
C337 C 1.02498 0.98415 1.00306 0.0
N338 N 1.03718 1.01295 0.99728 0.0
C339 C 0.04227 0.99225 0.94428 0.0
C340 C 1.02162 0.95824 0.97979 0.0
C341 C 0.04522 1.01728 0.96807 0.0
C342 C 1.03055 0.96261 0.95018 0.0
C343 C 1.0038 0.95122 0.03966 0.0
C344 C 1.01617 0.98069 0.03269 0.0
C345 C 1.00079 0.92538 0.01669 0.0
C346 C 1.00962 0.92888 0.98685 0.0
Tb347 Tb 1.03794 0.05176 0.0372 0.0
N348 N 1.01961 1.00626 0.05454 0.0
C349 C 0.99426 0.9486 0.06929 0.0
C350 C 1.00784 1.0037 0.08226 0.0
C351 C 0.99588 0.97499 0.09047 0.0
H352 H 0.05264 0.03993 0.96235 0.0
H353 H 0.9871 0.97325 0.11275 0.0
H354 H 0.09096 0.11522 0.15621 0.0
H355 H 0.16707 0.17512 1.00766 0.0
H356 H 1.00601 1.02345 0.0975 0.0
H357 H 0.98463 0.92638 0.07555 0.0
H358 H 0.14761 0.12592 0.02452 0.0
H359 H 0.0486 0.99588 0.92119 0.0
H360 H 0.9914 0.90257 0.02166 0.0
H361 H 1.00718 0.90871 0.96946 0.0
H362 H 0.09126 0.16063 0.19357 0.0
H363 H 1.02821 0.94329 0.93163 0.0
H364 H 0.1683 0.22299 0.0424 0.0
N365 N 0.10989 0.14029 0.12139 0.0
C366 C 0.12335 0.16856 0.115 0.0
C367 C 0.10003 0.16317 0.17138 0.0
C368 C 0.12526 0.19525 0.13656 0.0
C369 C 0.09909 0.13733 0.1496 0.0
C370 C 0.11299 0.19224 0.16477 0.0
N371 N 0.13197 0.1444 0.06564 0.0
C372 C 0.14489 0.14598 0.03848 0.0
C373 C 0.14716 0.19967 0.07825 0.0
C374 C 0.1341 0.17067 0.086 0.0
C375 C 0.15817 0.20116 0.04924 0.0
C376 C 0.15726 0.17419 0.02943 0.0
H377 H 0.1136 0.21222 0.1817 0.0
H378 H 0.14037 0.24478 0.14534 0.0
H379 H 0.15953 0.24867 0.09435 0.0
O380 O 0.16125 0.10959 0.08552 0.0
O381 O 0.07735 0.12552 0.07782 0.0
O382 O 0.04826 0.10118 0.02983 0.0
O383 O 0.14399 0.10909 0.12995 0.0
O384 O 0.11505 0.08007 0.03528 0.0
O385 O 0.06767 0.07953 1.00996 0.0
O386 O 0.99403 0.05247 0.04538 0.0
O387 O 0.07168 1.02372 0.04603 0.0
O388 O 0.10809 0.04991 0.08956 0.0
O389 O 1.00289 0.04212 0.9974 0.0
O390 O 0.03958 0.0709 0.08834 0.0
O391 O 0.08654 0.0708 0.11355 0.0
C392 C 0.05995 0.12687 0.05086 0.0
C393 C 0.18826 0.09303 0.1273 0.0
C394 C 0.21853 0.05854 0.11354 0.0
C395 C 0.23337 0.06414 0.14552 0.0
C396 C 0.20318 0.09898 0.15923 0.0
C397 C 0.22523 0.08396 0.16844 0.0
C398 C 0.19474 0.0714 0.10518 0.0
C399 C 0.09638 0.08072 1.00899 0.0
C400 C 0.16795 0.11106 0.11637 0.0
C401 C 0.1386 0.22405 0.12898 0.0
C402 C 0.14939 0.22625 0.09987 0.0
C403 C 0.09278 1.02358 0.07047 0.0
C404 C 0.96685 0.07 1.0049 0.0
C405 C 0.92851 0.09629 0.01544 0.0
C406 C 0.93418 0.11201 0.98968 0.0
C407 C 0.9725 0.08548 0.97889 0.0
C408 C 0.94525 0.07583 0.02304 0.0
C409 C 0.95617 0.10652 0.97142 0.0
C410 C 0.05737 0.06734 0.11374 0.0
C411 C 0.98334 0.04827 0.01485 0.0
H412 H 0.25208 0.05442 0.15236 0.0
H413 H 0.19823 0.11561 0.17673 0.0
H414 H 0.23697 0.08875 0.19299 0.0
H415 H 0.18303 0.06631 0.08053 0.0
H416 H 0.92168 0.12834 0.98374 0.0
H417 H 0.98955 0.0816 0.96464 0.0
H418 H 0.94197 0.06475 0.04388 0.0
H419 H 0.96062 0.11861 0.95156 0.0
Tb420 Tb 0.29096 0.82078 0.33433 0.0
C421 C 0.36883 0.78678 0.21471 0.0
N422 N 0.37924 0.8055 0.24334 0.0
C423 C 0.42594 0.79015 0.24786 0.0
C424 C 0.38661 0.7688 0.20147 0.0
C425 C 0.40727 0.80715 0.2602 0.0
C426 C 0.41562 0.77096 0.21829 0.0
C427 C 0.32668 0.7628 0.17137 0.0
C428 C 0.33939 0.78404 0.19984 0.0
C429 C 0.34459 0.74557 0.15749 0.0
C430 C 0.37451 0.74858 0.1725 0.0
Tb431 Tb 0.34773 0.83306 0.26147 0.0
N432 N 0.32236 0.8001 0.21487 0.0
C433 C 0.29595 0.75845 0.1585 0.0
C434 C 0.29176 0.79423 0.20327 0.0
C435 C 0.27835 0.77397 0.17476 0.0
H436 H 0.41556 0.82193 0.28301 0.0
H437 H 0.25418 0.76982 0.16576 0.0
H438 H 0.21946 0.82265 0.31094 0.0
H439 H 0.37083 0.8726 0.44481 0.0
H440 H 0.27688 0.80393 0.21602 0.0
H441 H 0.2853 0.74229 0.13678 0.0
H442 H 0.35339 0.83987 0.39288 0.0
H443 H 0.44823 0.79179 0.26124 0.0
H444 H 0.33521 0.7292 0.13564 0.0
H445 H 0.38781 0.73458 0.16197 0.0
H446 H 0.18326 0.85009 0.32979 0.0
H447 H 0.42997 0.75753 0.20895 0.0
H448 H 0.33785 0.90224 0.46732 0.0
N449 N 0.25518 0.84408 0.3502 0.0
C450 C 0.26318 0.86269 0.37912 0.0
C451 C 0.20581 0.85413 0.34376 0.0
C452 C 0.24306 0.87851 0.39109 0.0
C453 C 0.22659 0.83903 0.33288 0.0
C454 C 0.21418 0.87421 0.37286 0.0
N455 N 0.31036 0.85031 0.38423 0.0
C456 C 0.33833 0.85224 0.40162 0.0
C457 C 0.3009 0.88501 0.42695 0.0
C458 C 0.29156 0.8657 0.3969 0.0
C459 C 0.32981 0.88761 0.4442 0.0
C460 C 0.34849 0.87098 0.43154 0.0
H461 H 0.19806 0.88589 0.38124 0.0
H462 H 0.23725 0.91041 0.43037 0.0
H463 H 0.28802 0.91624 0.46171 0.0
O464 O 0.29184 0.78319 0.3574 0.0
O465 O 0.31583 0.8689 0.34211 0.0
O466 O 0.33218 0.84762 0.30333 0.0
O467 O 0.2491 0.78921 0.33575 0.0
O468 O 0.33643 0.80943 0.34277 0.0
O469 O 0.37114 0.83072 0.30942 0.0
O470 O 0.35171 0.8711 0.23868 0.0
O471 O 0.331 0.78572 0.26601 0.0
O472 O 0.29325 0.79966 0.28645 0.0
O473 O 0.39173 0.8629 0.26444 0.0
O474 O 0.30507 0.84808 0.25241 0.0
O475 O 0.27022 0.83356 0.28852 0.0
C476 C 0.33388 0.87297 0.32148 0.0
C477 C 0.25085 0.77172 0.38551 0.0
C478 C 0.25871 0.75832 0.4385 0.0
C479 C 0.23477 0.77041 0.44656 0.0
C480 C 0.22659 0.78342 0.39351 0.0
C481 C 0.21864 0.7827 0.42399 0.0
C482 C 0.26644 0.75885 0.40798 0.0
C483 C 0.36448 0.81762 0.33484 0.0
C484 C 0.26216 0.77485 0.35516 0.0
C485 C 0.2523 0.89792 0.42089 0.0
C486 C 0.28118 0.9012 0.43876 0.0
C487 C 0.30748 0.77868 0.28046 0.0
C488 C 0.39646 0.88372 0.21668 0.0
C489 C 0.3945 0.90136 0.16549 0.0
C490 C 0.42068 0.89198 0.16028 0.0
C491 C 0.42303 0.87476 0.2119 0.0
C492 C 0.3826 0.897 0.19345 0.0
C493 C 0.43503 0.87889 0.18366 0.0
C494 C 0.27817 0.8458 0.26256 0.0
C495 C 0.38152 0.8788 0.24468 0.0
H496 H 0.22848 0.77013 0.47018 0.0
H497 H 0.21414 0.79355 0.37658 0.0
H498 H 0.20017 0.79197 0.43022 0.0
H499 H 0.28546 0.75021 0.40209 0.0
H500 H 0.43008 0.89505 0.13849 0.0
H501 H 0.43425 0.86438 0.22962 0.0
H502 H 0.36182 0.90353 0.19684 0.0
H503 H 0.45538 0.87185 0.17984 0.0
Tb504 Tb 0.54745 0.06455 0.58609 0.0
C505 C 0.65231 0.13086 0.51491 0.0
N506 N 0.62891 0.10474 0.50602 0.0
C507 C 0.62233 0.11475 0.45207 0.0
C508 C 0.66158 0.14991 0.49244 0.0
C509 C 0.61413 0.09629 0.47501 0.0
C510 C 0.64617 0.1416 0.46077 0.0
C511 C 0.69097 0.16586 0.55672 0.0
C512 C 0.66702 0.13874 0.54682 0.0
C513 C 0.7004 0.18461 0.53422 0.0
C514 C 0.68585 0.17661 0.50219 0.0
Tb515 Tb 0.6227 0.07525 0.54508 0.0
N516 N 0.65749 0.12007 0.56816 0.0
C517 C 0.70494 0.17323 0.58892 0.0
C518 C 0.67187 0.12658 0.59925 0.0
C519 C 0.69538 0.15345 0.61024 0.0
H520 H 0.59688 0.07483 0.46734 0.0
H521 H 0.7066 0.15854 0.63499 0.0
H522 H 0.57072 0.07544 0.66598 0.0
H523 H 0.46332 0.97327 0.50523 0.0
H524 H 0.66625 0.11074 0.61536 0.0
H525 H 0.72342 0.19386 0.59745 0.0
H526 H 0.50121 1.02365 0.52045 0.0
H527 H 0.61065 0.10792 0.4275 0.0
H528 H 0.71892 0.2054 0.54136 0.0
H529 H 0.69337 0.1914 0.48518 0.0
H530 H 0.56255 0.04531 0.70939 0.0
H531 H 0.65264 0.15565 0.44281 0.0
H532 H 0.45221 0.93994 0.54605 0.0
N533 N 0.54267 0.03972 0.62931 0.0
C534 C 0.52202 1.01162 0.62292 0.0
C535 C 0.55134 0.03541 0.68509 0.0
C536 C 0.51584 0.99404 0.64738 0.0
C537 C 0.55646 0.0522 0.66015 0.0
C538 C 0.53118 1.00611 0.67866 0.0
N539 N 0.51346 1.01783 0.56851 0.0
C540 C 0.49746 1.00887 0.53806 0.0
C541 C 0.4844 0.97199 0.58437 0.0
C542 C 0.50637 1.00068 0.59177 0.0
C543 C 0.46919 0.96188 0.55273 0.0
C544 C 0.47555 0.98054 0.52956 0.0
H545 H 0.52706 0.99331 0.69812 0.0
H546 H 0.48927 0.95142 0.65852 0.0
H547 H 0.46185 0.93212 0.60338 0.0
O548 O 0.51021 0.0795 0.5661 0.0
O549 O 0.55888 1.01969 0.57009 0.0
O550 O 0.5975 1.02553 0.53862 0.0
O551 O 0.51789 0.07606 0.61618 0.0
O552 O 0.55201 0.0781 0.53964 0.0
O553 O 0.58079 0.05359 0.51282 0.0
O554 O 0.66438 0.06475 0.56087 0.0
O555 O 0.60767 0.11868 0.55734 0.0
O556 O 0.57786 0.11298 0.59776 0.0
O557 O 0.64581 0.06022 0.50988 0.0
O558 O 0.61598 0.05732 0.58858 0.0
O559 O 0.59052 0.08376 0.618 0.0
C560 C 0.5763 1.00783 0.55193 0.0
C561 C 0.496 0.11477 0.60226 0.0
C562 C 0.46174 0.14751 0.5987 0.0
C563 C 0.48382 0.17113 0.61965 0.0
C564 C 0.5178 0.13839 0.62361 0.0
C565 C 0.51179 0.16653 0.63205 0.0
C566 C 0.4679 0.11939 0.58992 0.0
C567 C 0.55502 0.06041 0.51454 0.0
C568 C 0.50172 0.08486 0.59378 0.0
C569 C 0.49424 0.96526 0.64002 0.0
C570 C 0.47854 0.95429 0.60863 0.0
C571 C 0.59481 0.13077 0.5804 0.0
C572 C 0.69392 0.04805 0.52139 0.0
C573 C 0.7337 1.02181 0.53004 0.0
C574 C 0.74169 1.02724 0.50013 0.0
C575 C 0.70225 0.05329 0.49161 0.0
C576 C 0.70988 0.03253 0.54077 0.0
C577 C 0.72611 0.043 0.48113 0.0
C578 C 0.61353 0.07214 0.61554 0.0
C579 C 0.6677 0.05767 0.53116 0.0
H580 H 0.47916 0.19286 0.62683 0.0
H581 H 0.53918 0.13485 0.63413 0.0
H582 H 0.52865 0.18463 0.64857 0.0
H583 H 0.45069 0.10103 0.57396 0.0
H584 H 0.76019 1.01943 0.49156 0.0
H585 H 0.69026 0.0653 0.47636 0.0
H586 H 0.70325 1.02801 0.56358 0.0
H587 H 0.73245 0.04712 0.45817 0.0
Tb588 Tb 0.36357 0.30049 0.81343 0.0
C589 C 0.2612 0.34186 0.73645 0.0
N590 N 0.28195 0.35776 0.76257 0.0
C591 C 0.28875 0.40347 0.73922 0.0
C592 C 0.25406 0.35615 0.71017 0.0
C593 C 0.29535 0.38826 0.76457 0.0
C594 C 0.2681 0.38735 0.71185 0.0
C595 C 0.22758 0.29335 0.70815 0.0
C596 C 0.2481 0.31077 0.73555 0.0
C597 C 0.22047 0.30752 0.68191 0.0
C598 C 0.23357 0.33884 0.68297 0.0
Tb599 Tb 0.28894 0.33108 0.8031 0.0
N600 N 0.25583 0.29762 0.76128 0.0
C601 C 0.21467 0.26221 0.70797 0.0
C602 C 0.2416 0.26771 0.76185 0.0
C603 C 0.22148 0.24944 0.73508 0.0
H604 H 0.31068 0.40111 0.78589 0.0
H605 H 0.21069 0.22564 0.73566 0.0
H606 H 0.33657 0.23103 0.83336 0.0
H607 H 0.46549 0.39029 0.8644 0.0
H608 H 0.24435 0.25786 0.78305 0.0
H609 H 0.19887 0.24803 0.68737 0.0
H610 H 0.42036 0.36305 0.82373 0.0
H611 H 0.29946 0.42767 0.74088 0.0
H612 H 0.20477 0.29446 0.66069 0.0
H613 H 0.22786 0.34941 0.66251 0.0
H614 H 0.344 0.20553 0.8797 0.0
H615 H 0.26314 0.39918 0.6922 0.0
H616 H 0.47647 0.369 0.91378 0.0
N617 N 0.36826 0.27355 0.85497 0.0
C618 C 0.39167 0.28754 0.87953 0.0
C619 C 0.35713 0.22889 0.88032 0.0
C620 C 0.39796 0.27312 0.906 0.0
C621 C 0.35221 0.2439 0.85433 0.0
C622 C 0.37979 0.24373 0.90652 0.0
N623 N 0.4045 0.3282 0.85073 0.0
C624 C 0.42419 0.35428 0.84565 0.0
C625 C 0.43662 0.32989 0.90072 0.0
C626 C 0.41077 0.31552 0.87704 0.0
C627 C 0.45631 0.35729 0.89621 0.0
C628 C 0.45012 0.36945 0.86844 0.0
H629 H 0.38395 0.23181 0.92634 0.0
H630 H 0.42805 0.27719 0.95092 0.0
H631 H 0.46189 0.32698 0.94629 0.0
O632 O 0.39536 0.30762 0.78114 0.0
O633 O 0.35882 0.33276 0.85475 0.0
O634 O 0.3068 0.32607 0.85243 0.0
O635 O 0.38625 0.26672 0.80386 0.0
O636 O 0.36606 0.3425 0.7931 0.0
O637 O 0.33314 0.36652 0.81604 0.0
O638 O 0.24334 0.32422 0.81018 0.0
O639 O 0.31044 0.32258 0.75996 0.0
O640 O 0.32764 0.28205 0.77098 0.0
O641 O 0.27595 0.3695 0.82434 0.0
O642 O 0.28488 0.29025 0.82598 0.0
O643 O 0.31881 0.26674 0.80523 0.0
C644 C 0.33488 0.33358 0.86884 0.0
C645 C 0.42231 0.26917 0.76714 0.0
C646 C 0.46559 0.27663 0.7388 0.0
C647 C 0.46074 0.24482 0.73184 0.0
C648 C 0.41797 0.23737 0.76056 0.0
C649 C 0.43702 0.22529 0.74278 0.0
C650 C 0.4463 0.28881 0.75633 0.0
C651 C 0.35854 0.36742 0.80391 0.0
C652 C 0.40111 0.28156 0.78421 0.0
C653 C 0.42296 0.28788 0.93037 0.0
C654 C 0.44229 0.31619 0.9277 0.0
C655 C 0.31993 0.29867 0.74998 0.0
C656 C 0.22346 0.36401 0.83462 0.0
C657 C 0.17952 0.35713 0.8626 0.0
C658 C 0.17693 0.38614 0.85735 0.0
C659 C 0.22069 0.39303 0.82991 0.0
C660 C 0.20251 0.34582 0.85061 0.0
C661 C 0.19731 0.40387 0.84097 0.0
C662 C 0.29544 0.26622 0.82038 0.0
C663 C 0.24798 0.35273 0.82255 0.0
H664 H 0.4757 0.23519 0.71847 0.0
H665 H 0.39947 0.22184 0.76861 0.0
H666 H 0.43344 0.20077 0.73753 0.0
H667 H 0.45014 0.31341 0.76171 0.0
H668 H 0.15914 0.3951 0.86606 0.0
H669 H 0.23641 0.40715 0.81736 0.0
H670 H 0.20464 0.32344 0.85456 0.0
H671 H 0.1951 0.42618 0.83703 0.0
Tb672 Tb 0.09789 0.04277 0.56196 0.0
C673 C 0.04204 0.14263 0.62422 0.0
N674 N 1.02867 0.12054 0.59833 0.0
C675 C 0.98027 0.11303 0.61646 0.0
C676 C 1.02484 0.15076 0.64737 0.0
C677 C 0.99828 0.10555 0.5942 0.0
C678 C 0.99355 0.13583 0.64305 0.0
C679 C 0.08848 0.17696 0.65638 0.0
C680 C 0.07355 0.15568 0.62858 0.0
C681 C 0.07122 0.18592 0.67891 0.0
C682 C 0.0395 0.17288 0.67441 0.0
Tb683 Tb 0.05999 0.11275 0.56268 0.0
N684 N 0.08976 0.14555 0.60688 0.0
C685 C 0.12042 0.18785 0.66125 0.0
C686 C 0.12098 0.1556 0.61206 0.0
C687 C 0.13673 0.17689 0.63914 0.0
H688 H 0.9877 0.08839 0.57334 0.0
H689 H 0.1615 0.18455 0.64314 0.0
H690 H 0.17371 0.06003 0.56743 0.0
H691 H 1.00728 0.95282 0.48607 0.0
H692 H 0.1341 0.14662 0.59627 0.0
H693 H 0.13276 0.20411 0.68237 0.0
H694 H 1.0293 0.99511 0.53062 0.0
H695 H 0.95612 0.10131 0.61301 0.0
H696 H 0.08228 0.20239 0.7003 0.0
H697 H 1.02661 0.17956 0.69237 0.0
H698 H 0.21135 0.04046 0.54062 0.0
H699 H 0.97954 0.14146 0.6603 0.0
H700 H 0.0411 0.93375 0.45261 0.0
N701 N 0.13494 0.02902 0.53685 0.0
C702 C 0.12493 1.00532 0.51206 0.0
C703 C 0.1871 0.03052 0.53217 0.0
C704 C 0.14566 0.99374 0.49577 0.0
C705 C 0.16566 0.04165 0.54718 0.0
C706 C 0.17707 1.00675 0.50608 0.0
N707 N 0.07478 1.0028 0.52113 0.0
C708 C 0.04418 0.98834 0.5156 0.0
C709 C 0.08239 0.9666 0.47878 0.0
C710 C 0.09382 0.9917 0.50395 0.0
C711 C 0.05081 0.953 0.47181 0.0
C712 C 1.03166 0.96376 0.49054 0.0
H713 H 0.19373 0.9983 0.49441 0.0
H714 H 0.15 0.95991 0.45749 0.0
H715 H 0.0945 0.93636 0.44237 0.0
O716 O 0.08175 1.00846 0.58907 0.0
O717 O 0.08175 0.05001 0.51297 0.0
O718 O 0.04969 0.08267 0.51547 0.0
O719 O 0.12995 0.02958 0.593 0.0
O720 O 0.05293 0.03904 0.57684 0.0
O721 O 1.02724 0.0677 0.54872 0.0
O722 O 0.07266 0.15499 0.54603 0.0
O723 O 0.06782 0.09461 0.60813 0.0
O724 O 0.11133 0.08281 0.59977 0.0
O725 O 1.02462 0.13123 0.54452 0.0
O726 O 0.10246 0.11904 0.54263 0.0
O727 O 0.13068 0.08591 0.55876 0.0
C728 C 0.06267 0.06408 0.49926 0.0
C729 C 0.11516 0.97771 0.59944 0.0
C730 C 0.10598 0.92843 0.6175 0.0
C731 C 0.12503 0.91948 0.59704 0.0
C732 C 0.13482 0.96871 0.5797 0.0
C733 C 0.13949 0.93966 0.57835 0.0
C734 C 0.10103 0.95752 0.61859 0.0
C735 C 1.02753 0.04443 0.56382 0.0
C736 C 0.1093 1.00797 0.60088 0.0
C737 C 0.13443 0.96903 0.47038 0.0
C738 C 0.10285 0.95557 0.46181 0.0
C739 C 0.09272 0.08754 0.61961 0.0
C740 C 1.03481 0.17983 0.52458 0.0
C741 C 0.04591 0.2244 0.49762 0.0
C742 C 1.01613 0.22701 0.49884 0.0
C743 C 1.00505 0.18277 0.52533 0.0
C744 C 0.05529 0.20076 0.51053 0.0
C745 C 0.99584 0.20627 0.51257 0.0
C746 C 0.12722 0.10916 0.54449 0.0
C747 C 0.04417 0.15505 0.53865 0.0
H748 H 0.12914 0.89709 0.59602 0.0
H749 H 0.14684 0.98402 0.56553 0.0
H750 H 0.15455 0.93287 0.56298 0.0
H751 H 0.08615 0.96437 0.63423 0.0
H752 H 1.00854 0.24507 0.48894 0.0
H753 H 0.98893 0.16703 0.53602 0.0
H754 H 0.07828 0.1987 0.50958 0.0
H755 H 0.97289 0.20842 0.51332 0.0
Tb756 Tb 0.32524 0.85228 0.7768 0.0
C757 C 0.27276 0.75107 0.86139 0.0
N758 N 0.30003 0.77301 0.86746 0.0
C759 C 0.29717 0.78016 0.92352 0.0
C760 C 0.25646 0.74309 0.88633 0.0
C761 C 0.31264 0.78724 0.89805 0.0
C762 C 0.26893 0.75809 0.91764 0.0
C763 C 0.23316 0.71334 0.82291 0.0
C764 C 0.26123 0.73626 0.83002 0.0
C765 C 0.21681 0.70549 0.84771 0.0
C766 C 0.22842 0.72031 0.87931 0.0
Tb767 Tb 0.32294 0.78096 0.82382 0.0
N768 N 0.27733 0.74484 0.80642 0.0
C769 C 0.22243 0.6989 0.7911 0.0
C770 C 0.26762 0.72987 0.77565 0.0
C771 C 0.23987 0.70706 0.76743 0.0
H772 H 0.33491 0.8036 0.9031 0.0
H773 H 0.23214 0.69553 0.74288 0.0
H774 H 0.31437 0.82556 0.69764 0.0
H775 H 0.41131 0.94585 0.85223 0.0
H776 H 0.28127 0.73491 0.75746 0.0
H777 H 0.20099 0.68114 0.78465 0.0
H778 H 0.36296 0.90475 0.83909 0.0
H779 H 0.30718 0.79151 0.94773 0.0
H780 H 0.1952 0.68793 0.84271 0.0
H781 H 0.21558 0.71388 0.89818 0.0
H782 H 0.34346 0.83336 0.65352 0.0
H783 H 0.25712 0.75257 0.93747 0.0
H784 H 0.44427 0.95611 0.81096 0.0
N785 N 0.34925 0.8567 0.73301 0.0
C786 C 0.37631 0.87887 0.73819 0.0
C787 C 0.35318 0.84599 0.67733 0.0
C788 C 0.39327 0.88482 0.71321 0.0
C789 C 0.33701 0.84112 0.70275 0.0
C790 C 0.38157 0.86769 0.68263 0.0
N791 N 0.36965 0.89024 0.79198 0.0
C792 C 0.37767 0.90825 0.82141 0.0
C793 C 0.41409 0.92018 0.77458 0.0
C794 C 0.38659 0.89653 0.76845 0.0
C795 C 0.42328 0.93771 0.80528 0.0
C796 C 0.40482 0.9319 0.82869 0.0
H797 H 0.39387 0.8716 0.6628 0.0
H798 H 0.43432 0.91287 0.70045 0.0
H799 H 0.45259 0.9437 0.7542 0.0
O800 O 0.30928 0.88961 0.79426 0.0
O801 O 0.37261 0.84523 0.79439 0.0
O802 O 0.37015 0.81303 0.83309 0.0
O803 O 0.30341 0.87307 0.7435 0.0
O804 O 0.31263 0.84777 0.82319 0.0
O805 O 0.34047 0.82477 0.85427 0.0
O806 O 0.33665 0.74357 0.80261 0.0
O807 O 0.27702 0.79225 0.81337 0.0
O808 O 0.27814 0.81953 0.7707 0.0
O809 O 0.34509 0.75764 0.85411 0.0
O810 O 0.33759 0.78928 0.77901 0.0
O811 O 0.30754 0.80828 0.74694 0.0
C812 C 0.38642 0.83231 0.81663 0.0
C813 C 0.30506 0.9248 0.75881 0.0
C814 C 0.2878 0.97096 0.76041 0.0
C815 C 0.30885 0.98214 0.74059 0.0
C816 C 0.32632 0.93628 0.73934 0.0
C817 C 0.32822 0.96495 0.73039 0.0
C818 C 0.28618 0.94237 0.76958 0.0
C819 C 0.3315 0.84886 0.84895 0.0
C820 C 0.29941 0.89345 0.76544 0.0
C821 C 0.42095 0.90806 0.71934 0.0
C822 C 0.43134 0.92569 0.74993 0.0
C823 C 0.26267 0.80382 0.7906 0.0
C824 C 0.34264 0.70621 0.83478 0.0
C825 C 0.3602 0.66016 0.82953 0.0
C826 C 0.33887 0.64712 0.84817 0.0
C827 C 0.3211 0.69288 0.8531 0.0
C828 C 0.36181 0.68958 0.82263 0.0
C829 C 0.3192 0.66335 0.85963 0.0
C830 C 0.31919 0.786 0.75242 0.0
C831 C 0.34785 0.73821 0.83033 0.0
H832 H 0.31023 1.0041 0.73301 0.0
H833 H 0.34083 0.92287 0.73043 0.0
H834 H 0.34433 0.97361 0.71505 0.0
H835 H 0.26924 0.93319 0.78398 0.0
H836 H 0.33747 0.62442 0.8538 0.0
H837 H 0.3063 0.70545 0.86291 0.0
H838 H 0.37872 0.69992 0.80874 0.0
H839 H 0.30279 0.6532 0.87401 0.0
Tb840 Tb 0.57985 0.09351 0.03148 0.0
C841 C 0.61709 1.01913 0.13427 0.0
N842 N 0.59647 1.00652 0.10709 0.0
C843 C 0.62108 0.96634 0.09777 0.0
C844 C 0.64121 1.00636 0.14373 0.0
C845 C 0.59805 0.9803 0.08891 0.0
C846 C 0.64293 0.97956 0.12516 0.0
C847 C 0.63538 0.05944 0.18024 0.0
C848 C 0.61436 0.04552 0.1519 0.0
C849 C 0.66006 0.04744 0.18931 0.0
C850 C 0.66291 1.02089 0.17114 0.0
Tb851 Tb 0.5616 0.03273 0.09237 0.0
N852 N 0.59029 0.05661 0.14207 0.0
C853 C 0.63033 0.0843 0.19922 0.0
C854 C 0.58304 0.07777 0.16322 0.0
C855 C 0.60348 0.09284 0.1912 0.0
H856 H 0.58143 0.97008 0.06757 0.0
H857 H 0.59809 0.11049 0.20699 0.0
H858 H 0.56761 0.1589 0.06119 0.0
H859 H 0.52786 1.01497 0.91933 0.0
H860 H 0.5612 0.08274 0.1596 0.0
H861 H 0.64599 0.09577 0.22107 0.0
H862 H 0.56726 0.03723 0.96558 0.0
H863 H 0.62214 0.94555 0.0833 0.0
H864 H 0.67664 0.0581 0.21076 0.0
H865 H 0.68181 1.01162 0.17864 0.0
H866 H 0.53185 0.18965 0.04824 0.0
H867 H 0.661 0.96891 0.13174 0.0
H868 H 0.48666 0.03962 0.90599 0.0
N869 N 0.54903 0.12463 0.02011 0.0
C870 C 0.52767 0.11495 0.99308 0.0
C871 C 0.53035 0.16863 0.03255 0.0
C872 C 0.50633 0.13151 0.98506 0.0
C873 C 0.55054 0.15107 0.0399 0.0
C874 C 0.50808 0.15877 1.00506 0.0
N875 N 0.54731 0.07224 0.98307 0.0
C876 C 0.54881 0.04742 0.96237 0.0
C877 C 0.50379 0.07625 0.94657 0.0
C878 C 0.52641 0.08761 0.97426 0.0
C879 C 0.50369 0.04918 0.92734 0.0
C880 C 0.52672 0.03509 0.93494 0.0
H881 H 0.49218 0.17219 0.99966 0.0
H882 H 0.46684 0.13229 0.95145 0.0
H883 H 0.46462 0.08386 0.91769 0.0
O884 O 0.61902 0.09858 1.01006 0.0
O885 O 0.53312 0.07962 0.03936 0.0
O886 O 0.53539 0.0326 0.04649 0.0
O887 O 0.60363 0.13766 0.02559 0.0
O888 O 0.59091 0.04882 0.01801 0.0
O889 O 0.56214 1.01112 0.04256 0.0
O890 O 0.52008 1.02379 0.10985 0.0
O891 O 0.60811 0.04542 0.0831 0.0
O892 O 0.60595 0.09244 0.07685 0.0
O893 O 0.54166 0.98808 0.10034 0.0
O894 O 0.54986 0.07778 0.10487 0.0
O895 O 0.58205 0.11378 0.08197 0.0
C896 C 0.51941 0.05201 0.04247 0.0
C897 C 0.62437 0.13678 0.97788 0.0
C898 C 0.63716 0.12653 0.92501 0.0
C899 C 0.62574 0.15055 0.9159 0.0
C900 C 0.6131 0.16094 0.96877 0.0
C901 C 0.61393 0.16781 0.93786 0.0
C902 C 0.63697 0.12019 0.95604 0.0
C903 C 0.58011 1.01957 0.02108 0.0
C904 C 0.62204 0.12749 1.0093 0.0
C905 C 0.48359 0.12004 0.95783 0.0
C906 C 0.48225 0.09241 0.9387 0.0
C907 C 0.62186 0.07294 0.07998 0.0
C908 C 0.51762 0.98896 0.14599 0.0
C909 C 0.50189 1.00105 0.19702 0.0
C910 C 0.51529 0.97967 0.2095 0.0
C911 C 0.53095 0.96734 0.15843 0.0
C912 C 0.50262 1.00526 0.16538 0.0
C913 C 0.52964 0.96269 0.19007 0.0
C914 C 0.56297 0.10687 0.10266 0.0
C915 C 0.52049 0.99619 0.11371 0.0
H916 H 0.62634 0.15616 0.89201 0.0
H917 H 0.60341 0.17426 0.98532 0.0
H918 H 0.60525 0.18639 0.93085 0.0
H919 H 0.64599 0.10167 0.96286 0.0
H920 H 0.51475 0.97628 0.23413 0.0
H921 H 0.54269 0.95438 0.14394 0.0
H922 H 0.49207 1.02192 0.1562 0.0
H923 H 0.54007 0.94619 0.19965 0.0
Tb924 Tb 0.3086 0.27141 0.28019 0.0
C925 C 0.41752 0.3656 0.3601 0.0
N926 N 0.38911 0.35068 0.36509 0.0
C927 C 0.41107 0.34466 0.41749 0.0
C928 C 0.44383 0.3696 0.38325 0.0
C929 C 0.38563 0.34172 0.39415 0.0
C930 C 0.44033 0.35827 0.41186 0.0
C931 C 0.4489 0.39524 0.32704 0.0
C932 C 0.42012 0.37868 0.33254 0.0
C933 C 0.47515 0.39854 0.34967 0.0
C934 C 0.47261 0.38582 0.37772 0.0
Tb935 Tb 0.34957 0.35117 0.32601 0.0
N936 N 0.39424 0.37541 0.31124 0.0
C937 C 0.45034 0.40855 0.29926 0.0
C938 C 0.39533 0.38958 0.28492 0.0
C939 C 0.4234 0.40584 0.27821 0.0
H940 H 0.36346 0.33414 0.40072 0.0
H941 H 0.42417 0.41676 0.25713 0.0
H942 H 0.29606 0.28675 0.20542 0.0
H943 H 0.23042 0.21425 0.3537 0.0
H944 H 0.37458 0.38898 0.26946 0.0
H945 H 0.47202 0.42149 0.29419 0.0
H946 H 0.28042 0.2387 0.34182 0.0
H947 H 0.40797 0.33734 0.4403 0.0
H948 H 0.49745 0.41133 0.34596 0.0
H949 H 0.49298 0.38914 0.3953 0.0
H950 H 0.25282 0.27627 0.16195 0.0
H951 H 0.45993 0.36099 0.43027 0.0
H952 H 0.18432 0.20359 0.3125 0.0
N953 N 0.26952 0.26767 0.23927 0.0
C954 C 0.2416 0.25068 0.24317 0.0
C955 C 0.24921 0.26936 0.18482 0.0
C956 C 0.2163 0.24289 0.21803 0.0
C957 C 0.27371 0.27618 0.21017 0.0
C958 C 0.22036 0.25267 0.18875 0.0
N959 N 0.26348 0.24762 0.29589 0.0
C960 C 0.26083 0.23708 0.32434 0.0
C961 C 0.2092 0.22474 0.27769 0.0
C962 C 0.23827 0.24117 0.27259 0.0
C963 C 0.20631 0.2159 0.30755 0.0
C964 C 0.23225 0.22203 0.33091 0.0
H965 H 0.20149 0.24713 0.16892 0.0
H966 H 0.16823 0.2196 0.20383 0.0
H967 H 0.16166 0.20426 0.25616 0.0
O968 O 0.29695 0.22351 0.27154 0.0
O969 O 0.27711 0.30242 0.28611 0.0
O970 O 0.29985 0.33666 0.33193 0.0
O971 O 0.31991 0.24967 0.23898 0.0
O972 O 0.32508 0.27125 0.33197 0.0
O973 O 0.32545 0.3196 0.35438 0.0
O974 O 0.34002 0.39279 0.319 0.0
O975 O 0.37973 0.32712 0.2999 0.0
O976 O 0.35836 0.27639 0.29991 0.0
O977 O 0.35961 0.38583 0.36613 0.0
O978 O 0.32696 0.34908 0.27679 0.0
O979 O 0.33359 0.30452 0.25294 0.0
C980 C 0.27466 0.32165 0.31119 0.0
C981 C 0.33218 0.20453 0.24576 0.0
C982 C 0.36624 0.18053 0.27434 0.0
C983 C 0.37329 0.16859 0.2451 0.0
C984 C 0.33888 0.19243 0.21653 0.0
C985 C 0.3598 0.17481 0.21628 0.0
C986 C 0.34674 0.19945 0.27456 0.0
C987 C 0.32381 0.29103 0.35697 0.0
C988 C 0.31026 0.22268 0.24636 0.0
C989 C 0.18772 0.22576 0.22288 0.0
C990 C 0.18404 0.21711 0.25273 0.0
C991 C 0.38266 0.29879 0.29773 0.0
C992 C 0.34988 0.43486 0.36326 0.0
C993 C 0.33271 0.47995 0.35811 0.0
C994 C 0.34375 0.49141 0.39066 0.0
C995 C 0.36133 0.44634 0.39589 0.0
C996 C 0.33602 0.452 0.34444 0.0
C997 C 0.35833 0.47466 0.40947 0.0
C998 C 0.33124 0.33231 0.25136 0.0
C999 C 0.34964 0.40404 0.34927 0.0
H1000 H 0.38814 0.15349 0.24449 0.0
H1001 H 0.32792 0.19656 0.19406 0.0
H1002 H 0.3649 0.16529 0.19374 0.0
H1003 H 0.34188 0.20904 0.29728 0.0
H1004 H 0.34123 0.51324 0.40132 0.0
H1005 H 0.37205 0.43327 0.41095 0.0
H1006 H 0.32688 0.44329 0.31928 0.0
H1007 H 0.36698 0.48344 0.43461 0.0
Tb1008 Tb 0.59807 0.53361 0.06096 0.0
C1009 C 0.55329 0.63163 0.13715 0.0
N1010 N 0.53803 0.61172 0.11018 0.0
C1011 C 0.49201 0.6018 0.13308 0.0
C1012 C 0.53853 0.63688 0.1635 0.0
C1013 C 0.5077 0.59703 0.10766 0.0
C1014 C 0.50749 0.62174 0.16115 0.0
C1015 C 0.60113 0.66554 0.16679 0.0
C1016 C 0.58428 0.64567 0.13876 0.0
C1017 C 0.58648 0.6709 0.19309 0.0
C1018 C 0.55527 0.65666 0.19143 0.0
Tb1019 Tb 0.56593 0.60643 0.0702 0.0
N1020 N 0.59796 0.63926 0.11311 0.0
C1021 C 0.63216 0.67956 0.16749 0.0
C1022 C 0.62758 0.65481 0.11292 0.0
C1023 C 0.64531 0.67449 0.14026 0.0
H1024 H 0.49534 0.58212 0.08582 0.0
H1025 H 0.66895 0.68627 0.14005 0.0
H1026 H 0.67149 0.55512 0.05298 0.0
H1027 H 0.49996 0.45092 0.98669 0.0
H1028 H 0.63749 0.65336 0.09159 0.0
H1029 H 0.64592 0.69495 0.18857 0.0
H1030 H 0.52744 0.48742 0.03458 0.0
H1031 H 0.46796 0.59016 0.13097 0.0
H1032 H 0.59908 0.68606 0.21482 0.0
H1033 H 0.54432 0.66097 0.21196 0.0
H1034 H 0.7037 0.54296 0.0139 0.0
H1035 H 0.49529 0.62524 0.18084 0.0
H1036 H 0.52803 0.4376 0.94359 0.0
N1037 N 0.63019 0.52539 0.02597 0.0
C1038 C 0.61716 0.50397 0.99949 0.0
C1039 C 0.67934 0.53197 1.00944 0.0
C1040 C 0.63483 0.49568 0.97687 0.0
C1041 C 0.66091 0.53928 0.03131 0.0
C1042 C 0.66627 0.51006 0.98212 0.0
N1043 N 0.56961 0.49923 0.01725 0.0
C1044 C 0.53947 0.48413 0.01515 0.0
C1045 C 0.57144 0.46837 0.96759 0.0
C1046 C 0.58586 0.49055 0.99488 0.0
C1047 C 0.53997 0.45474 0.96418 0.0
C1048 C 0.52401 0.46239 0.9883 0.0
H1049 H 0.68063 0.50437 0.96528 0.0
H1050 H 0.63377 0.46699 0.93201 0.0
H1051 H 0.57826 0.44308 0.9239 0.0
O1052 O 0.58272 0.49495 0.08242 0.0
O1053 O 0.58673 0.55047 0.01568 0.0
O1054 O 0.55024 0.57685 0.02264 0.0
O1055 O 0.62979 0.50996 0.07603 0.0
O1056 O 0.55458 0.53058 0.07911 0.0
O1057 O 0.53128 0.56283 0.0543 0.0
O1058 O 0.57771 0.64819 0.05195 0.0
O1059 O 0.5747 0.58506 0.11362 0.0
O1060 O 0.61576 0.56664 0.1058 0.0
O1061 O 0.53094 0.62735 0.05829 0.0
O1062 O 0.60788 0.60982 0.04913 0.0
O1063 O 0.63229 0.57801 0.07309 0.0
C1064 C 0.56528 0.56275 1.00404 0.0
C1065 C 0.61956 0.48507 0.12016 0.0
C1066 C 0.61781 0.44867 0.15725 0.0
C1067 C 0.63772 0.47179 0.18084 0.0
C1068 C 0.63981 0.50788 0.14364 0.0
C1069 C 0.6486 0.5013 0.174 0.0
C1070 C 0.60838 0.45574 0.1272 0.0
C1071 C 0.52998 0.53859 0.06814 0.0
C1072 C 0.60992 0.49079 0.08794 0.0
C1073 C 0.62056 0.47363 0.94966 0.0
C1074 C 0.58893 0.46009 0.94498 0.0
C1075 C 0.59925 0.57725 0.12526 0.0
C1076 C 0.53922 0.6754 0.03787 0.0
C1077 C 0.54608 0.71881 1.00894 0.0
C1078 C 0.51736 0.722 0.01465 0.0
C1079 C 0.51061 0.67915 0.04329 0.0
C1080 C 0.55715 0.69558 0.02091 0.0
C1081 C 0.49986 0.70238 0.03183 0.0
C1082 C 0.63277 0.60127 0.05767 0.0
C1083 C 0.5496 0.65008 0.04957 0.0
H1084 H 0.64535 0.46685 0.20421 0.0
H1085 H 0.64892 0.53054 0.13838 0.0
H1086 H 0.66421 0.51896 0.19209 0.0
H1087 H 0.59246 0.43826 0.10906 0.0
H1088 H 0.50852 0.73988 1.00594 0.0
H1089 H 0.49649 0.6641 0.05644 0.0
H1090 H 0.57917 0.6928 0.01637 0.0
H1091 H 0.47782 0.70512 0.03617 0.0
Tb1092 Tb 0.83426 0.3515 0.28513 0.0
C1093 C 0.76697 0.25208 0.36106 0.0
N1094 N 0.79419 0.27418 0.36923 0.0
C1095 C 0.78362 0.28527 0.42245 0.0
C1096 C 0.74674 0.24632 0.38327 0.0
C1097 C 0.80307 0.29013 0.39974 0.0
C1098 C 0.75529 0.26343 0.41415 0.0
C1099 C 0.73148 0.21183 0.32116 0.0
C1100 C 0.75937 0.23484 0.3303 0.0
C1101 C 0.71122 0.20634 0.34319 0.0
C1102 C 0.71883 0.2235 0.37413 0.0
Tb1103 Tb 0.82396 0.27711 0.33007 0.0
N1104 N 0.77914 0.24121 0.30915 0.0
C1105 C 0.72492 0.19479 0.29024 0.0
C1106 C 0.77357 0.22364 0.27961 0.0
C1107 C 0.74626 0.20046 0.26955 0.0
H1108 H 0.82544 0.30597 0.40724 0.0
H1109 H 0.74181 0.1868 0.24594 0.0
H1110 H 0.82507 0.32564 0.20576 0.0
H1111 H 0.92601 0.43505 0.36637 0.0
H1112 H 0.79044 0.22672 0.26415 0.0
H1113 H 0.70376 0.17685 0.28232 0.0
H1114 H 0.87466 0.39907 0.35041 0.0
H1115 H 0.79072 0.29804 0.44654 0.0
H1116 H 0.68968 0.18873 0.33661 0.0
H1117 H 0.70304 0.21879 0.39091 0.0
H1118 H 0.85652 0.33191 0.16335 0.0
H1119 H 0.74042 0.25961 0.43193 0.0
H1120 H 0.96085 0.44346 0.32656 0.0
N1121 N 0.86026 0.35425 0.24269 0.0
C1122 C 0.88867 0.37446 0.24937 0.0
C1123 C 0.86596 0.3437 0.18754 0.0
C1124 C 0.90706 0.37944 0.22538 0.0
C1125 C 0.84838 0.33969 0.21198 0.0
C1126 C 0.89549 0.36345 0.19429 0.0
N1127 N 0.88132 0.38489 0.30321 0.0
C1128 C 0.89007 0.40145 0.33337 0.0
C1129 C 0.92864 0.41153 0.28815 0.0
C1130 C 0.89936 0.39059 0.28038 0.0
C1131 C 0.93849 0.42719 0.31963 0.0
C1132 C 0.91898 0.42236 0.34223 0.0
H1133 H 0.90892 0.36663 0.17522 0.0
H1134 H 0.9507 0.40437 0.21491 0.0
H1135 H 0.96962 0.43225 0.26986 0.0
O1136 O 0.82307 0.39151 0.30345 0.0
O1137 O 0.87854 0.33889 0.30169 0.0
O1138 O 0.87341 0.3045 0.3383 0.0
O1139 O 0.82133 0.37864 0.25274 0.0
O1140 O 0.81964 0.34625 0.33089 0.0
O1141 O 0.84474 0.32001 0.36074 0.0
O1142 O 0.8375 0.23728 0.31429 0.0
O1143 O 0.77983 0.28905 0.31309 0.0
O1144 O 0.78457 0.32461 0.27777 0.0
O1145 O 0.83763 0.25302 0.3651 0.0
O1146 O 0.83979 0.28524 0.28606 0.0
O1147 O 0.81383 0.30831 0.25391 0.0
C1148 C 0.89071 0.32371 0.32247 0.0
C1149 C 0.78429 0.40222 0.26868 0.0
C1150 C 0.75089 0.43533 0.27619 0.0
C1151 C 0.72615 0.4124 0.25783 0.0
C1152 C 0.75935 0.37937 0.25022 0.0
C1153 C 0.73043 0.38452 0.24489 0.0
C1154 C 0.77995 0.43024 0.28156 0.0
C1155 C 0.83764 0.34525 0.35665 0.0
C1156 C 0.81479 0.39705 0.2749 0.0
C1157 C 0.93626 0.40034 0.23304 0.0
C1158 C 0.94704 0.41626 0.26434 0.0
C1159 C 0.76753 0.30474 0.29317 0.0
C1160 C 0.85277 0.20652 0.35334 0.0
C1161 C 0.87925 0.16715 0.34397 0.0
C1162 C 0.87477 0.15913 0.37406 0.0
C1163 C 0.84835 0.1981 0.38331 0.0
C1164 C 0.86789 0.19065 0.33341 0.0
C1165 C 0.85921 0.17442 0.3935 0.0
C1166 C 0.82232 0.28407 0.25935 0.0
C1167 C 0.84248 0.23253 0.34382 0.0
H1168 H 0.70364 0.41622 0.25334 0.0
H1169 H 0.76217 0.35763 0.23982 0.0
H1170 H 0.71133 0.36689 0.23063 0.0
H1171 H 0.79907 0.44803 0.29571 0.0
H1172 H 0.88325 0.1409 0.38243 0.0
H1173 H 0.83657 0.20988 0.39896 0.0
H1174 H 0.87161 0.19708 0.31032 0.0
H1175 H 0.85576 0.16807 0.41663 0.0
Tb1176 Tb 0.07824 0.60632 0.54654 0.0
C1177 C 0.12336 0.53409 0.66431 0.0
N1178 N 0.10038 0.52165 0.63916 0.0
C1179 C 0.11412 0.47424 0.63551 0.0
C1180 C 0.14335 0.51729 0.67554 0.0
C1181 C 0.09518 0.49201 0.62496 0.0
C1182 C 0.13845 0.48699 0.6608 0.0
C1183 C 0.15176 0.57835 0.70347 0.0
C1184 C 0.12724 0.56406 0.67819 0.0
C1185 C 0.17192 0.56184 0.71468 0.0
C1186 C 0.16765 0.53133 0.70083 0.0
Tb1187 Tb 0.07128 0.5523 0.62258 0.0
N1188 N 0.10754 0.57941 0.66616 0.0
C1189 C 0.15553 0.60889 0.71648 0.0
C1190 C 0.11088 0.60906 0.67956 0.0
C1191 C 0.13489 0.62423 0.70455 0.0
H1192 H 0.07637 0.48193 0.60554 0.0
H1193 H 0.13742 0.64783 0.71462 0.0
H1194 H 0.07162 0.67506 0.57665 0.0
H1195 H 1.02194 0.52882 0.43615 0.0
H1196 H 0.0954 0.62158 0.67166 0.0
H1197 H 0.17418 0.62078 0.73575 0.0
H1198 H 0.05643 0.54494 0.48738 0.0
H1199 H 0.10998 0.45075 0.62408 0.0
H1200 H 0.19091 0.57247 0.734 0.0
H1201 H 0.18336 0.51886 0.70971 0.0
H1202 H 0.04177 0.71033 0.56172 0.0
H1203 H 0.15324 0.47326 0.66876 0.0
H1204 H 0.99099 0.56215 0.41679 0.0
N1205 N 0.05085 0.64069 0.53596 0.0
C1206 C 1.03153 0.63356 0.5074 0.0
C1207 C 1.03836 0.68863 0.54638 0.0
C1208 C 1.01443 0.65352 0.4975 0.0
C1209 C 0.05486 0.66816 0.55514 0.0
C1210 C 1.01794 0.68124 0.51751 0.0
N1211 N 0.04558 0.58741 0.49847 0.0
C1212 C 0.04345 0.56006 0.47986 0.0
C1213 C 1.00884 0.59771 0.45828 0.0
C1214 C 1.029 0.60619 0.48787 0.0
C1215 C 1.00631 0.56954 0.43959 0.0
C1216 C 1.0237 0.55066 0.45045 0.0
H1217 H 1.00531 0.69723 0.51072 0.0
H1218 H 0.98124 0.66036 0.45998 0.0
H1219 H 0.97616 0.61133 0.42575 0.0
O1220 O 0.11408 0.6056 0.52067 0.0
O1221 O 1.03068 0.57991 0.54158 0.0
O1222 O 0.05417 0.56868 0.58259 0.0
O1223 O 0.10569 0.64819 0.53897 0.0
O1224 O 0.08739 0.56017 0.53758 0.0
O1225 O 0.07318 0.52687 0.5752 0.0
O1226 O 0.04422 0.54485 0.65773 0.0
O1227 O 0.11684 0.56581 0.612 0.0
O1228 O 0.10474 0.60509 0.59246 0.0
O1229 O 1.03594 0.51049 0.61444 0.0
O1230 O 0.05474 0.59461 0.62945 0.0
O1231 O 0.07588 0.62891 0.59563 0.0
C1232 C 1.0284 0.56356 0.56382 0.0
C1233 C 0.11881 0.64284 0.48742 0.0
C1234 C 0.12962 0.63216 0.43374 0.0
C1235 C 0.11298 0.65225 0.4236 0.0
C1236 C 0.10218 0.66298 0.47721 0.0
C1237 C 0.09941 0.66767 0.44538 0.0
C1238 C 0.13281 0.62795 0.46568 0.0
C1239 C 0.0824 0.53291 0.54751 0.0
C1240 C 0.11974 0.63476 0.51959 0.0
C1241 C 0.99455 0.64532 0.46794 0.0
C1242 C 0.99171 0.61744 0.44841 0.0
C1243 C 0.12397 0.5884 0.59626 0.0
C1244 C 1.00219 0.50051 0.65417 0.0
C1245 C 0.96777 0.49989 0.69279 0.0
C1246 C 0.95828 0.46782 0.68598 0.0
C1247 C 0.99228 0.46851 0.64666 0.0
C1248 C 0.98894 0.51597 0.67614 0.0
C1249 C 0.97014 0.45222 0.66248 0.0
C1250 C 0.06124 0.62215 0.6202 0.0
C1251 C 1.02792 0.51839 0.64173 0.0
H1252 H 0.11078 0.65621 0.399 0.0
H1253 H 0.09097 0.67472 0.49355 0.0
H1254 H 0.08655 0.68309 0.43753 0.0
H1255 H 0.14542 0.6122 0.47339 0.0
H1256 H 0.94262 0.45495 0.69945 0.0
H1257 H 1.0023 0.45619 0.62952 0.0
H1258 H 0.99607 0.54079 0.68141 0.0
H1259 H 0.96298 0.4275 0.65729 0.0
Tb1260 Tb 0.85718 0.79999 0.32006 0.0
C1261 C 0.75577 0.84863 0.24789 0.0
N1262 N 0.77686 0.8642 0.27387 0.0
C1263 C 0.78389 0.91008 0.2507 0.0
C1264 C 0.74827 0.86318 0.22195 0.0
C1265 C 0.79083 0.89458 0.27569 0.0
C1266 C 0.76257 0.89432 0.22367 0.0
C1267 C 0.72136 0.80049 0.21983 0.0
C1268 C 0.74269 0.81761 0.24679 0.0
C1269 C 0.71384 0.81488 0.19391 0.0
C1270 C 0.72723 0.84614 0.19497 0.0
Tb1271 Tb 0.78658 0.83662 0.31308 0.0
N1272 N 0.75126 0.80422 0.27197 0.0
C1273 C 0.708 0.76948 0.21984 0.0
C1274 C 0.73616 0.77466 0.27309 0.0
C1275 C 0.71504 0.75668 0.24685 0.0
H1276 H 0.80685 0.90704 0.29673 0.0
H1277 H 0.70367 0.7331 0.24781 0.0
H1278 H 0.83134 0.72868 0.33294 0.0
H1279 H 0.94638 0.897 0.38797 0.0
H1280 H 0.7389 0.76496 0.2944 0.0
H1281 H 0.69152 0.75552 0.19962 0.0
H1282 H 0.9065 0.87012 0.34268 0.0
H1283 H 0.79496 0.93419 0.25232 0.0
H1284 H 0.6976 0.80204 0.17296 0.0
H1285 H 0.72125 0.8569 0.17476 0.0
H1286 H 0.84175 0.69798 0.37444 0.0
H1287 H 0.7574 0.90635 0.20425 0.0
H1288 H 0.96001 0.86983 0.43184 0.0
N1289 N 0.86436 0.76931 0.35695 0.0
C1290 C 0.88726 0.78223 0.38218 0.0
C1291 C 0.85453 0.72174 0.37708 0.0
C1292 C 0.89444 0.7654 0.40621 0.0
C1293 C 0.84824 0.73936 0.35388 0.0
C1294 C 0.87769 0.73482 0.40341 0.0
N1295 N 0.89471 0.82848 0.36122 0.0
C1296 C 0.91072 0.85813 0.36194 0.0
C1297 C 0.9265 0.82714 0.41059 0.0
C1298 C 0.90303 0.81275 0.38436 0.0
C1299 C 0.94185 0.85793 0.4121 0.0
C1300 C 0.93407 0.87339 0.38751 0.0
H1301 H 0.88254 0.7211 0.42133 0.0
H1302 H 0.92373 0.76706 0.45095 0.0
H1303 H 0.95181 0.8211 0.45478 0.0
O1304 O 0.89449 0.80906 0.29475 0.0
O1305 O 0.84272 0.81413 0.36614 0.0
O1306 O 0.82083 0.85328 0.35738 0.0
O1307 O 0.87383 0.76308 0.30361 0.0
O1308 O 0.86286 0.84273 0.30057 0.0
O1309 O 0.83189 0.87029 0.32207 0.0
O1310 O 0.74724 0.82558 0.33514 0.0
O1311 O 0.80422 0.82635 0.2677 0.0
O1312 O 0.82127 0.78518 0.2772 0.0
O1313 O 0.76767 0.87239 0.32879 0.0
O1314 O 0.78265 0.79514 0.33553 0.0
O1315 O 0.81133 0.76927 0.30896 0.0
C1316 C 0.8323 0.83727 0.377 0.0
C1317 C 0.9159 0.76815 0.27378 0.0
C1318 C 0.95949 0.77578 0.24575 0.0
C1319 C 0.95575 0.74409 0.24029 0.0
C1320 C 0.91238 0.73643 0.26814 0.0
C1321 C 0.93224 0.72452 0.25145 0.0
C1322 C 0.93955 0.78784 0.26242 0.0
C1323 C 0.85577 0.86861 0.30805 0.0
C1324 C 0.89446 0.78037 0.29083 0.0
C1325 C 0.91787 0.77963 0.43228 0.0
C1326 C 0.93385 0.81041 0.43447 0.0
C1327 C 0.81397 0.80281 0.25709 0.0
C1328 C 0.72224 0.8641 0.35455 0.0
C1329 C 0.67706 0.85377 0.38073 0.0
C1330 C 0.67718 0.88464 0.38263 0.0
C1331 C 0.72193 0.89492 0.3569 0.0
C1332 C 0.69975 0.84349 0.36681 0.0
C1333 C 0.69954 0.90506 0.37089 0.0
C1334 C 0.79055 0.76987 0.32731 0.0
C1335 C 0.746 0.85386 0.33923 0.0
H1336 H 0.9712 0.73457 0.2276 0.0
H1337 H 0.89419 0.72077 0.27646 0.0
H1338 H 0.92943 0.70008 0.24721 0.0
H1339 H 0.9427 0.81237 0.26675 0.0
H1340 H 0.65999 0.89297 0.39345 0.0
H1341 H 0.73897 0.91125 0.34785 0.0
H1342 H 0.69972 0.81967 0.36539 0.0
H1343 H 0.69951 0.92886 0.3726 0.0
Tb1344 Tb 0.80438 0.317 0.84907 0.0
C1345 C 0.88657 0.28881 0.74025 0.0
N1346 N 0.89677 0.3074 0.76912 0.0
C1347 C 0.93922 0.28571 0.77801 0.0
C1348 C 0.90171 0.26704 0.72968 0.0
C1349 C 0.92291 0.30631 0.78794 0.0
C1350 C 0.92844 0.2658 0.74889 0.0
C1351 C 0.84783 0.27096 0.69272 0.0
C1352 C 0.85977 0.29056 0.72236 0.0
C1353 C 0.86243 0.24879 0.68229 0.0
C1354 C 0.88937 0.24688 0.7007 0.0
Tb1355 Tb 0.86712 0.3383 0.78503 0.0
N1356 N 0.84581 0.31182 0.73375 0.0
C1357 C 0.82196 0.27467 0.67411 0.0
C1358 C 0.82307 0.3179 0.71349 0.0
C1359 C 0.8101 0.29883 0.68413 0.0
H1360 H 0.93117 0.32127 0.81075 0.0
H1361 H 0.79138 0.30326 0.66891 0.0
H1362 H 0.74126 0.3332 0.8185 0.0
H1363 H 0.87522 0.35451 0.9673 0.0
H1364 H 0.81525 0.33792 0.71874 0.0
H1365 H 0.81197 0.26001 0.65129 0.0
H1366 H 0.85484 0.31999 0.91659 0.0
H1367 H 0.95986 0.28491 0.79305 0.0
H1368 H 0.85333 0.23329 0.65982 0.0
H1369 H 0.90047 0.22977 0.69231 0.0
H1370 H 0.71082 0.36871 0.83325 0.0
H1371 H 0.94082 0.24947 0.74156 0.0
H1372 H 0.85212 0.39636 0.98312 0.0
N1373 N 0.77392 0.3481 0.86145 0.0
C1374 C 0.78241 0.36681 0.89028 0.0
C1375 C 0.731 0.36853 0.84946 0.0
C1376 C 0.76601 0.38788 0.89947 0.0
C1377 C 0.7484 0.34849 0.84111 0.0
C1378 C 0.73993 0.38845 0.87869 0.0
N1379 N 0.82332 0.34457 0.90005 0.0
C1380 C 0.84573 0.33928 0.92138 0.0
C1381 C 0.81841 0.38495 0.93983 0.0
C1382 C 0.80837 0.36545 0.90994 0.0
C1383 C 0.84359 0.38176 0.96003 0.0
C1384 C 0.85682 0.35833 0.95107 0.0
H1385 H 0.72663 0.40422 0.88492 0.0
H1386 H 0.76429 0.42446 0.93616 0.0
H1387 H 0.81018 0.42185 0.97161 0.0
O1388 O 0.7977 0.27678 0.86913 0.0
O1389 O 0.81741 0.36465 0.84482 0.0
O1390 O 0.86083 0.35897 0.83112 0.0
O1391 O 0.75933 0.29053 0.84767 0.0
O1392 O 0.85056 0.30837 0.86228 0.0
O1393 O 0.88785 0.33541 0.83479 0.0
O1394 O 0.87363 0.38003 0.7681 0.0
O1395 O 0.85554 0.28981 0.78787 0.0
O1396 O 0.817 0.30086 0.80531 0.0
O1397 O 0.91204 0.36345 0.78277 0.0
O1398 O 0.82079 0.34787 0.7732 0.0
O1399 O 0.78476 0.31689 0.79828 0.0
C1400 C 0.84282 0.3765 0.83532 0.0
C1401 C 0.75555 0.27099 0.89589 0.0
C1402 C 0.759 0.25603 0.94847 0.0
C1403 C 0.73833 0.2727 0.95662 0.0
C1404 C 0.73461 0.28741 0.90407 0.0
C1405 C 0.72601 0.2881 0.93433 0.0
C1406 C 0.7672 0.255 0.91804 0.0
C1407 C 0.87948 0.31855 0.85734 0.0
C1408 C 0.76826 0.27291 0.86611 0.0
C1409 C 0.77639 0.40789 0.92879 0.0
C1410 C 0.8026 0.40649 0.94889 0.0
C1411 C 0.8312 0.28024 0.79963 0.0
C1412 C 0.91067 0.38397 0.73484 0.0
C1413 C 0.89494 0.39186 0.68087 0.0
C1414 C 0.91525 0.37621 0.66958 0.0
C1415 C 0.93141 0.36868 0.72359 0.0
C1416 C 0.8936 0.39662 0.71346 0.0
C1417 C 0.93388 0.36517 0.69108 0.0
C1418 C 0.79182 0.33548 0.77685 0.0
C1419 C 0.90235 0.3824 0.76685 0.0
H1420 H 0.73178 0.27378 0.98018 0.0
H1421 H 0.72545 0.30027 0.8875 0.0
H1422 H 0.71017 0.30102 0.94071 0.0
H1423 H 0.78391 0.24293 0.91212 0.0
H1424 H 0.91678 0.37273 0.64431 0.0
H1425 H 0.94483 0.35849 0.73956 0.0
H1426 H 0.87748 0.40841 0.72179 0.0
H1427 H 0.94957 0.35311 0.6824 0.0
Tb1428 Tb 0.80185 0.78452 0.7932 0.0
C1429 C 0.91468 0.87128 0.87672 0.0
N1430 N 0.88492 0.86134 0.88083 0.0
C1431 C 0.90198 0.85716 0.93547 0.0
C1432 C 0.93913 0.87322 0.90141 0.0
C1433 C 0.87854 0.85615 0.91049 0.0
C1434 C 0.93239 0.86524 0.93077 0.0
C1435 C 0.95108 0.89419 0.84399 0.0
C1436 C 0.92074 0.88194 0.84856 0.0
C1437 C 0.97544 0.89489 0.86795 0.0
C1438 C 0.96948 0.88436 0.89655 0.0
Tb1439 Tb 0.84912 0.86312 0.83836 0.0
N1440 N 0.89662 0.88088 0.8258 0.0
C1441 C 0.95596 0.90608 0.81582 0.0
C1442 C 0.90119 0.89413 0.79921 0.0
C1443 C 0.93088 0.90637 0.79351 0.0
H1444 H 0.85566 0.85269 0.91587 0.0
H1445 H 0.93439 0.91631 0.77211 0.0
H1446 H 0.78319 0.80703 0.72354 0.0
H1447 H 0.73167 0.72567 0.87203 0.0
H1448 H 0.88194 0.89536 0.78248 0.0
H1449 H 0.97894 0.91576 0.81146 0.0
H1450 H 0.77978 0.74702 0.85363 0.0
H1451 H 0.89659 0.85261 0.95866 0.0
H1452 H 0.99895 0.90411 0.8649 0.0
H1453 H 0.98852 0.88562 0.91505 0.0
H1454 H 0.7363 0.80553 0.6877 0.0
H1455 H 0.95051 0.86665 0.95042 0.0
H1456 H 0.68236 0.72478 0.83999 0.0
N1457 N 0.76002 0.78762 0.75941 0.0
C1458 C 0.7324 0.77317 0.76656 0.0
C1459 C 0.73486 0.7968 0.71006 0.0
C1460 C 0.70485 0.77123 0.74623 0.0
C1461 C 0.76156 0.79827 0.73094 0.0
C1462 C 0.70637 0.78353 0.71788 0.0
N1463 N 0.75898 0.76304 0.81387 0.0
C1464 C 0.75894 0.74926 0.84056 0.0
C1465 C 0.70355 0.74754 0.80385 0.0
C1466 C 0.73187 0.76135 0.79507 0.0
C1467 C 0.70363 0.73543 0.83235 0.0
C1468 C 0.73142 0.73608 0.8506 0.0
H1469 H 0.68573 0.7826 0.70171 0.0
H1470 H 0.65534 0.7558 0.73967 0.0
H1471 H 0.65415 0.73518 0.79014 0.0
O1472 O 0.7873 0.73658 0.78438 0.0
O1473 O 0.77515 0.82031 0.80112 0.0
O1474 O 0.80032 0.85238 0.84725 0.0
O1475 O 0.80453 0.76159 0.74824 0.0
O1476 O 0.8219 0.7844 0.84359 0.0
O1477 O 0.82282 0.83256 0.86684 0.0
O1478 O 0.84286 0.90436 0.8265 0.0
O1479 O 0.87661 0.83607 0.81245 0.0
O1480 O 0.85177 0.78525 0.80849 0.0
O1481 O 0.86329 0.90195 0.87419 0.0
O1482 O 0.8284 0.86069 0.78793 0.0
O1483 O 0.82929 0.81348 0.76455 0.0
C1484 C 0.77418 0.83912 0.82724 0.0
C1485 C 0.81311 0.71346 0.74836 0.0
C1486 C 0.84354 0.68015 0.7654 0.0
C1487 C 0.8451 0.67027 0.73323 0.0
C1488 C 0.81482 0.70368 0.7163 0.0
C1489 C 0.83103 0.68231 0.70882 0.0
C1490 C 0.82811 0.7022 0.77278 0.0
C1491 C 0.8215 0.80393 0.86902 0.0
C1492 C 0.795 0.73476 0.75603 0.0
C1493 C 0.67672 0.75745 0.75497 0.0
C1494 C 0.67607 0.74578 0.78375 0.0
C1495 C 0.87747 0.80711 0.80861 0.0
C1496 C 0.83411 0.93726 0.86875 0.0
C1497 C 0.80935 0.97723 0.86131 0.0
C1498 C 0.79939 0.97557 0.89093 0.0
C1499 C 0.82479 0.93578 0.89882 0.0
C1500 C 0.82616 0.95781 0.85028 0.0
C1501 C 0.80735 0.95493 0.90977 0.0
C1502 C 0.83172 0.84236 0.76301 0.0
C1503 C 0.85288 0.91875 0.85574 0.0
H1504 H 0.85635 0.65268 0.72693 0.0
H1505 H 0.8034 0.71234 0.69712 0.0
H1506 H 0.83209 0.67456 0.68405 0.0
H1507 H 0.82719 0.70995 0.79765 0.0
H1508 H 0.78603 0.99043 0.89956 0.0
H1509 H 0.83085 0.91998 0.9137 0.0
H1510 H 0.83326 0.95882 0.82699 0.0
H1511 H 0.80013 0.95387 0.93288 0.0
Tb1512 Tb 0.62759 0.59025 0.59497 0.0
C1513 C 0.52493 0.48108 0.51036 0.0
N1514 N 0.54315 0.50867 0.50682 0.0
C1515 C 0.54528 0.48802 0.45271 0.0
C1516 C 0.51615 0.45601 0.485 0.0
C1517 C 0.55278 0.51247 0.47814 0.0
C1518 C 0.52688 0.4597 0.45611 0.0
C1519 C 0.49526 0.44991 0.54363 0.0
C1520 C 0.51432 0.47807 0.53936 0.0
C1521 C 0.48622 0.42516 0.51822 0.0
C1522 C 0.49656 0.42824 0.48899 0.0
Tb1523 Tb 0.54651 0.54733 0.54801 0.0
N1524 N 0.52274 0.5027 0.56332 0.0
C1525 C 0.48552 0.44753 0.57321 0.0
C1526 C 0.51195 0.50082 0.5916 0.0
C1527 C 0.49391 0.47312 0.59729 0.0
H1528 H 0.56448 0.53451 0.47361 0.0
H1529 H 0.48563 0.4718 0.61987 0.0
H1530 H 0.60558 0.60664 0.66644 0.0
H1531 H 0.69262 0.66284 0.52258 0.0
H1532 H 0.51568 0.52077 0.60924 0.0
H1533 H 0.47101 0.42625 0.57747 0.0
H1534 H 0.66329 0.61423 0.53454 0.0
H1535 H 0.55285 0.49134 0.43008 0.0
H1536 H 0.47132 0.40349 0.52098 0.0
H1537 H 0.48943 0.4089 0.46965 0.0
H1538 H 0.61182 0.65194 0.70609 0.0
H1539 H 0.52059 0.44101 0.43608 0.0
H1540 H 0.70276 0.7103 0.56169 0.0
N1541 N 0.6279 0.63081 0.63276 0.0
C1542 C 0.64596 0.65822 0.62853 0.0
C1543 C 0.62094 0.65417 0.68404 0.0
C1544 C 0.65123 0.68479 0.65155 0.0
C1545 C 0.61641 0.62842 0.6607 0.0
C1546 C 0.63823 0.68252 0.67938 0.0
N1547 N 0.65311 0.63386 0.57853 0.0
C1548 C 0.66549 0.63475 0.55101 0.0
C1549 C 0.67721 0.68795 0.59542 0.0
C1550 C 0.6591 0.65972 0.60078 0.0
C1551 C 0.68897 0.68902 0.56678 0.0
C1552 C 0.68306 0.66233 0.54451 0.0
H1553 H 0.64198 0.70235 0.69771 0.0
H1554 H 0.67382 0.73326 0.6638 0.0
H1555 H 0.69629 0.73614 0.61463 0.0
O1556 O 0.67392 0.59376 0.59481 0.0
O1557 O 0.5997 0.62259 0.58195 0.0
O1558 O 0.55591 0.59773 0.54523 0.0
O1559 O 0.65599 0.59472 0.63902 0.0
O1560 O 0.62496 0.57115 0.54334 0.0
O1561 O 0.57749 0.57311 0.52015 0.0
O1562 O 0.50298 0.55037 0.55609 0.0
O1563 O 0.57338 0.51404 0.56366 0.0
O1564 O 0.62171 0.53962 0.5921 0.0
O1565 O 0.51206 0.53977 0.50824 0.0
O1566 O 0.55036 0.56935 0.59789 0.0
O1567 O 0.59558 0.56407 0.62218 0.0
C1568 C 0.57553 0.62345 0.56152 0.0
C1569 C 0.69678 0.57264 0.63528 0.0
C1570 C 0.73394 0.54571 0.62331 0.0
C1571 C 0.7281 0.52905 0.64826 0.0
C1572 C 0.69107 0.55659 0.66092 0.0
C1573 C 0.7069 0.5349 0.66741 0.0
C1574 C 0.71886 0.56767 0.61738 0.0
C1575 C 0.60618 0.57449 0.51845 0.0
C1576 C 0.67967 0.59392 0.62557 0.0
C1577 C 0.66955 0.71272 0.64634 0.0
C1578 C 0.68243 0.71432 0.61837 0.0
C1579 C 0.60035 0.5136 0.57994 0.0
C1580 C 0.47437 0.56579 0.5141 0.0
C1581 C 0.43433 0.59055 0.52216 0.0
C1582 C 0.43386 0.59816 0.49124 0.0
C1583 C 0.47388 0.5734 0.48311 0.0
C1584 C 0.45515 0.57517 0.53364 0.0
C1585 C 0.45388 0.58985 0.47194 0.0
C1586 C 0.56724 0.56472 0.62312 0.0
C1587 C 0.49225 0.54563 0.5255 0.0
H1588 H 0.73986 0.51182 0.65286 0.0
H1589 H 0.67419 0.56034 0.67546 0.0
H1590 H 0.70235 0.52229 0.68689 0.0
H1591 H 0.72372 0.58024 0.59781 0.0
H1592 H 0.41793 0.61024 0.482 0.0
H1593 H 0.48849 0.56628 0.46736 0.0
H1594 H 0.45599 0.56992 0.55779 0.0
H1595 H 0.45348 0.59564 0.44808 0.0
Tb1596 Tb 0.05156 0.57518 0.09651 0.0
C1597 C 0.14837 0.63142 1.01054 0.0
N1598 N 0.12643 0.60413 1.00482 0.0
C1599 C 0.11874 0.60637 0.94858 0.0
C1600 C 0.15632 0.64717 0.98518 0.0
C1601 C 0.11174 0.59137 0.97435 0.0
C1602 C 0.14112 0.63434 0.95399 0.0
C1603 C 0.18556 0.67203 0.04851 0.0
C1604 C 0.16308 0.64362 0.04198 0.0
C1605 C 0.1938 0.68742 0.02316 0.0
C1606 C 0.17924 0.67505 0.99164 0.0
Tb1607 Tb 0.12149 0.58074 0.04862 0.0
N1608 N 0.15391 0.62862 0.06626 0.0
C1609 C 0.19832 0.68467 0.08044 0.0
C1610 C 0.16563 0.64147 0.09748 0.0
C1611 C 0.188 0.66953 0.105 0.0
H1612 H 0.096 0.56885 0.96959 0.0
H1613 H 0.1971 0.67958 0.12978 0.0
H1614 H 0.07125 0.58581 0.17566 0.0
H1615 H 0.94948 0.50308 0.02094 0.0
H1616 H 0.15715 0.63086 0.11672 0.0
H1617 H 0.21551 0.70652 0.08642 0.0
H1618 H 0.99782 0.54397 0.0336 0.0
H1619 H 0.10735 0.59601 0.92446 0.0
H1620 H 0.21109 0.7092 0.02774 0.0
H1621 H 0.18575 0.68737 0.9724 0.0
H1622 H 0.05935 0.55698 0.21972 0.0
H1623 H 0.1467 0.64571 0.93387 0.0
H1624 H 0.93374 0.47044 0.06119 0.0
N1625 N 0.04265 0.55062 0.13924 0.0
C1626 C 1.01914 0.52465 0.13296 0.0
C1627 C 0.04834 0.54723 0.19533 0.0
C1628 C 1.00999 0.50838 0.15766 0.0
C1629 C 0.05576 0.56307 0.17018 0.0
C1630 C 1.02577 0.51939 0.18894 0.0
N1631 N 1.01061 0.53353 0.07967 0.0
C1632 C 0.99203 0.52911 0.05078 0.0
C1633 C 0.97435 0.49279 0.09631 0.0
C1634 C 1.00186 0.51649 0.10247 0.0
C1635 C 0.95532 0.48805 0.06665 0.0
C1636 C 0.9642 0.50632 0.04381 0.0
H1637 H 1.01946 0.50757 0.20857 0.0
H1638 H 0.97694 0.47008 0.16942 0.0
H1639 H 0.94542 0.45672 0.11577 0.0
O1640 O 1.01627 0.59423 0.07964 0.0
O1641 O 0.05816 0.52817 0.07824 0.0
O1642 O 0.09268 0.53193 0.04163 0.0
O1643 O 1.03123 0.59727 0.13022 0.0
O1644 O 0.05291 0.5876 0.04924 0.0
O1645 O 0.07721 0.55988 0.01959 0.0
O1646 O 0.15917 0.56435 0.06419 0.0
O1647 O 0.10727 0.62522 0.06005 0.0
O1648 O 0.08432 0.62184 0.10504 0.0
O1649 O 0.149 0.56986 0.01558 0.0
O1650 O 0.12285 0.56559 0.09482 0.0
O1651 O 0.09645 0.58863 0.12748 0.0
C1652 C 0.07291 0.51517 0.05737 0.0
C1653 C 0.97973 0.59677 0.11374 0.0
C1654 C 0.93287 0.61291 0.10953 0.0
C1655 C 0.92088 0.59146 0.12858 0.0
C1656 C 0.96756 0.57537 0.13283 0.0
C1657 C 0.93811 0.57256 0.13991 0.0
C1658 C 0.96208 0.61517 0.10177 0.0
C1659 C 0.05357 0.57041 0.02276 0.0
C1660 C 1.0116 0.60267 0.10843 0.0
C1661 C 0.98413 0.483 0.15083 0.0
C1662 C 0.96614 0.47543 0.12029 0.0
C1663 C 0.09587 0.63838 0.08377 0.0
C1664 C 0.17264 0.53071 0.02479 0.0
C1665 C 0.20488 0.4954 0.02961 0.0
C1666 C 0.1899 0.47923 0.99912 0.0
C1667 C 0.15719 0.51308 0.99515 0.0
C1668 C 0.19622 0.52148 0.04219 0.0
C1669 C 0.16594 0.48769 0.98242 0.0
C1670 C 0.12098 0.57988 0.12251 0.0
C1671 C 0.16635 0.56016 0.03588 0.0
H1672 H 0.8984 0.58967 0.135 0.0
H1673 H 0.98097 0.56144 0.14298 0.0
H1674 H 0.92892 0.55623 0.15484 0.0
H1675 H 0.9716 0.63225 0.08767 0.0
H1676 H 0.19702 0.46027 0.98772 0.0
H1677 H 0.13891 0.51943 0.98121 0.0
H1678 H 0.20803 0.53485 0.06518 0.0
H1679 H 0.15453 0.47486 0.95912 0.0
C1680 C 0.04338 0.18986 1.00102 0.0
C1681 C 0.0461 0.21712 0.02301 0.0
C1682 C 0.04721 0.1618 1.01029 0.0
C1683 C 0.05457 0.15803 0.04256 0.0
H1684 H 1.03814 0.18991 0.97555 0.0
H1685 H 0.04462 0.14272 0.99143 0.0
S1686 S 0.06041 0.21967 0.11133 0.0
N1687 N 0.05443 0.23648 0.07992 0.0
N1688 N 0.06099 0.1845 0.09718 0.0
C1689 C 0.05638 0.18462 0.06518 0.0
C1690 C 0.05235 0.21352 0.05562 0.0
C1691 C 0.20085 0.85887 0.23031 0.0
C1692 C 0.20153 0.86042 0.19752 0.0
C1693 C 0.22606 0.85597 0.25111 0.0
C1694 C 0.25355 0.85408 0.24064 0.0
H1695 H 0.18011 0.85885 0.24008 0.0
H1696 H 0.22358 0.85485 0.27563 0.0
S1697 S 0.27013 0.86377 0.15859 0.0
N1698 N 0.23398 0.86442 0.15659 0.0
N1699 N 0.28154 0.8596 0.19569 0.0
C1700 C 0.25569 0.85857 0.20853 0.0
C1701 C 0.22973 0.86145 0.18709 0.0
C1702 C 0.54876 0.91937 0.55671 0.0
C1703 C 0.56442 0.90495 0.53555 0.0
C1704 C 0.5531 0.95195 0.56238 0.0
C1705 C 0.57255 0.97253 0.54653 0.0
H1706 H 0.53226 0.90527 0.56846 0.0
H1707 H 0.54077 0.96097 0.57938 0.0
S1708 S 0.61946 0.947 0.48875 0.0
N1709 N 0.60085 0.91476 0.49907 0.0
N1710 N 0.60854 0.97446 0.509 0.0
C1711 C 0.58868 0.95824 0.5257 0.0
C1712 C 0.58456 0.92522 0.52029 0.0
C1713 C 0.51993 0.31282 0.68671 0.0
C1714 C 0.54787 0.32175 0.70806 0.0
C1715 C 0.49248 0.30007 0.69728 0.0
C1716 C 0.49232 0.29674 0.72953 0.0
H1717 H 0.51962 0.31294 0.66128 0.0
H1718 H 0.47166 0.29102 0.67986 0.0
S1719 S 0.55849 0.32157 0.79565 0.0
N1720 N 0.57317 0.32991 0.7634 0.0
N1721 N 0.52133 0.30669 0.78332 0.0
C1722 C 0.51954 0.3084 0.75158 0.0
C1723 C 0.54747 0.32085 0.7408 0.0
C1724 C 0.06395 0.85564 0.64247 0.0
C1725 C 0.07323 0.8615 0.67585 0.0
C1726 C 0.07306 0.87823 0.62383 0.0
C1727 C 0.09191 0.90728 0.63803 0.0
H1728 H 0.05103 0.83289 0.63052 0.0
H1729 H 0.06664 0.8725 0.598 0.0
S1730 S 0.12184 0.9342 0.72454 0.0
N1731 N 0.1013 0.89853 0.72256 0.0
N1732 N 0.11871 0.94121 0.68735 0.0
C1733 C 0.1 0.91399 0.67155 0.0
C1734 C 0.09055 0.89097 0.69058 0.0
C1735 C 0.47511 0.85995 0.81093 0.0
C1736 C 0.49074 0.84996 0.83692 0.0
C1737 C 0.44226 0.85468 0.80463 0.0
C1738 C 0.42232 0.83926 0.82401 0.0
H1739 H 0.48842 0.872 0.79496 0.0
H1740 H 0.43243 0.8626 0.78397 0.0
S1741 S 0.45063 0.80981 0.89655 0.0
N1742 N 0.48233 0.82451 0.88284 0.0
N1743 N 0.4224 0.81517 0.87169 0.0
C1744 C 0.4378 0.82961 0.85034 0.0
C1745 C 0.4711 0.83477 0.85656 0.0
C1746 C 0.53304 0.1562 0.16661 0.0
C1747 C 0.55364 0.18561 0.17007 0.0
C1748 C 0.53601 0.13075 0.14524 0.0
C1749 C 0.55994 0.13337 0.12667 0.0
H1750 H 0.51402 0.15298 0.17972 0.0
H1751 H 0.51912 0.10895 0.14292 0.0
S1752 S 0.62195 0.20483 0.12986 0.0
N1753 N 0.6 0.21492 0.15458 0.0
N1754 N 0.60591 0.16827 0.11598 0.0
C1755 C 0.58119 0.16255 0.13117 0.0
C1756 C 0.57798 0.18816 0.15236 0.0
C1757 C 0.20893 0.34501 0.35301 0.0
C1758 C 0.18125 0.33294 0.33059 0.0
C1759 C 0.23823 0.34165 0.34654 0.0
C1760 C 0.2425 0.32611 0.31703 0.0
H1761 H 0.20797 0.35685 0.37632 0.0
H1762 H 0.25788 0.35147 0.36521 0.0
S1763 S 0.1789 0.29559 0.24741 0.0
N1764 N 0.16146 0.30745 0.27604 0.0
N1765 N 0.21534 0.30273 0.26348 0.0
C1766 C 0.21515 0.31542 0.29388 0.0
C1767 C 0.18524 0.31832 0.30071 0.0
C1768 C 0.04701 0.04001 0.19471 0.0
C1769 C 1.02397 0.05271 0.20473 0.0
C1770 C 0.05766 0.04491 0.16546 0.0
C1771 C 0.04565 0.06252 0.14476 0.0
H1772 H 0.05632 1.02553 0.2091 0.0
H1773 H 0.07509 0.03427 0.15868 0.0
S1774 S 0.98835 0.10452 0.16178 0.0
N1775 N 0.99191 0.08644 0.19263 0.0
N1776 N 1.01157 0.095 0.13818 0.0
C1777 C 1.02345 0.07613 0.15502 0.0
C1778 C 1.01279 0.07142 0.18477 0.0
C1779 C 0.30237 0.75042 0.5165 0.0
C1780 C 0.30397 0.71999 0.51074 0.0
C1781 C 0.28872 0.76312 0.49249 0.0
C1782 C 0.27623 0.74571 0.46209 0.0
H1783 H 0.30983 0.76378 0.54034 0.0
H1784 H 0.28679 0.78626 0.49811 0.0
S1785 S 0.27753 0.66605 0.4341 0.0
N1786 N 0.2946 0.67367 0.47189 0.0
N1787 N 0.26858 0.69754 0.4265 0.0
C1788 C 0.27985 0.71607 0.45527 0.0
C1789 C 0.29397 0.7032 0.47972 0.0
C1790 C 0.66302 0.0962 0.69597 0.0
C1791 C 0.68276 0.0772 0.69385 0.0
C1792 C 0.63904 0.09321 0.67116 0.0
C1793 C 0.63413 0.07084 0.64399 0.0
H1794 H 0.66694 0.11429 0.71631 0.0
H1795 H 0.62544 0.10949 0.67251 0.0
S1796 S 0.67662 1.01211 0.63041 0.0
N1797 N 0.69437 0.03354 0.66495 0.0
N1798 N 0.64829 1.02661 0.61844 0.0
C1799 C 0.65243 0.05019 0.64288 0.0
C1800 C 0.6772 0.05378 0.66782 0.0
C1801 C 0.31938 0.34201 0.95614 0.0
C1802 C 0.34757 0.36008 0.97408 0.0
C1803 C 0.31549 0.33365 0.92236 0.0
C1804 C 0.33947 0.34329 0.90485 0.0
H1805 H 0.30029 0.33392 0.96833 0.0
H1806 H 0.29349 0.31922 0.9099 0.0
S1807 S 0.41602 0.39573 0.94023 0.0
N1808 N 0.39882 0.38978 0.97149 0.0
N1809 N 0.3913 0.37545 0.90859 0.0
C1810 C 0.36733 0.36251 0.9226 0.0
C1811 C 0.37138 0.37054 0.95693 0.0
C1812 C 1.02171 0.06238 0.41353 0.0
C1813 C 1.03815 0.04839 0.39317 0.0
C1814 C 1.02962 0.06712 0.44737 0.0
C1815 C 0.05451 0.05825 0.46289 0.0
H1816 H 1.00213 0.06937 0.40329 0.0
H1817 H 1.01581 0.07773 0.46147 0.0
S1818 S 0.10677 1.02288 0.42082 0.0
N1819 N 0.08147 1.0268 0.39148 0.0
N1820 N 0.0968 0.0365 0.45431 0.0
C1821 C 0.07156 0.04486 0.44273 0.0
C1822 C 0.06332 0.03977 0.40828 0.0
C1823 C 0.3446 0.72561 0.70337 0.0
C1824 C 0.32291 0.71851 0.67547 0.0
C1825 C 0.34369 0.74824 0.728 0.0
C1826 C 0.3206 0.76368 0.72546 0.0
H1827 H 0.3623 0.71373 0.70605 0.0
H1828 H 0.36111 0.75346 0.74916 0.0
S1829 S 0.25746 0.75119 0.6572 0.0
N1830 N 0.27762 0.72752 0.64616 0.0
N1831 N 0.27493 0.76927 0.69327 0.0
C1832 C 0.29863 0.75641 0.69755 0.0
C1833 C 0.3 0.73388 0.67229 0.0
C1834 C 0.69559 0.09531 0.88764 0.0
C1835 C 0.68043 0.08495 0.85598 0.0
C1836 C 0.68064 0.10707 0.91078 0.0
C1837 C 0.65031 0.10857 0.90257 0.0
H1838 H 0.7199 0.09758 0.89366 0.0
H1839 H 0.6936 0.11728 0.93439 0.0
S1840 S 0.59891 0.07668 0.82498 0.0
N1841 N 0.63234 0.07139 0.819 0.0
N1842 N 0.60396 0.0931 0.86277 0.0
C1843 C 0.63394 0.09466 0.87211 0.0
C1844 C 0.64912 0.08274 0.84868 0.0
C1845 C 0.35298 0.34507 0.16829 0.0
C1846 C 0.34361 0.37134 0.16254 0.0
C1847 C 0.34874 0.33245 0.1967 0.0
C1848 C 0.33482 0.34539 0.22072 0.0
H1849 H 0.36432 0.33454 0.15109 0.0
H1850 H 0.3569 0.3126 0.20006 0.0
S1851 S 0.3037 0.41263 0.21654 0.0
N1852 N 0.31792 0.4086 0.18312 0.0
N1853 N 0.31016 0.38505 0.23554 0.0
C1854 C 0.32466 0.37109 0.21482 0.0
C1855 C 0.32896 0.38393 0.18612 0.0
C1856 C 0.25166 1.00303 0.06674 0.0
C1857 C 0.26323 1.01999 0.04364 0.0
C1858 C 0.23586 1.015 0.08881 0.0
C1859 C 0.23089 0.04387 0.08771 0.0
H1860 H 0.25776 0.98206 0.07004 0.0
H1861 H 0.22897 1.00245 0.10776 0.0
S1862 S 0.25366 0.09507 0.02886 0.0
N1863 N 0.26651 0.06513 0.01878 0.0
N1864 N 0.23631 0.08785 0.05978 0.0
C1865 C 0.24006 0.05971 0.06279 0.0
C1866 C 0.25629 0.04757 0.04066 0.0
C1867 C 0.69041 0.66302 0.02771 0.0
C1868 C 0.71844 0.66419 0.0464 0.0
C1869 C 0.6631 0.64178 0.03065 0.0
C1870 C 0.6626 0.62123 0.05282 0.0
H1871 H 0.68951 0.67873 1.01084 0.0
H1872 H 0.64207 0.64191 0.01579 0.0
S1873 S 0.72969 0.61651 0.10909 0.0
N1874 N 0.74392 0.64325 0.0884 0.0
N1875 N 0.69271 0.60465 0.09481 0.0
C1876 C 0.69053 0.62229 0.07171 0.0
C1877 C 0.71836 0.64343 0.06829 0.0
C1878 C 0.74403 0.51595 0.28046 0.0
C1879 C 0.7299 0.51971 0.30766 0.0
C1880 C 0.75195 0.48892 0.27113 0.0
C1881 C 0.74625 0.4649 0.28881 0.0
H1882 H 0.74782 0.53343 0.26535 0.0
H1883 H 0.76157 0.48635 0.24934 0.0
S1884 S 0.71401 0.46443 0.36403 0.0
N1885 N 0.71348 0.49799 0.35383 0.0
N1886 N 0.7286 0.44711 0.33603 0.0
C1887 C 0.73387 0.46883 0.31692 0.0
C1888 C 0.72567 0.49632 0.32646 0.0
C1889 C 0.94623 0.53587 0.56879 0.0
C1890 C 0.93902 0.50558 0.5528 0.0
C1891 C 0.97643 0.55387 0.57543 0.0
C1892 C 0.9999 0.54202 0.56595 0.0
H1893 H 0.9283 0.54597 0.57519 0.0
H1894 H 0.98119 0.57769 0.58617 0.0
S1895 S 0.9923 0.46405 0.52348 0.0
N1896 N 0.95721 0.46399 0.52895 0.0
N1897 N 1.01407 0.49857 0.53964 0.0
C1898 C 0.99303 0.5115 0.55088 0.0
C1899 C 0.9624 0.49295 0.54485 0.0
C1900 C 0.41355 0.15244 0.33598 0.0
C1901 C 0.39038 0.13224 0.34749 0.0
C1902 C 0.4059 0.17025 0.31361 0.0
C1903 C 0.37523 0.1695 0.30393 0.0
H1904 H 0.43691 0.15068 0.33982 0.0
H1905 H 0.42363 0.18253 0.30182 0.0
S1906 S 0.30778 0.12765 0.33553 0.0
N1907 N 0.33704 0.11787 0.35396 0.0
N1908 N 0.32243 0.15212 0.31262 0.0
C1909 C 0.35269 0.15368 0.31987 0.0
C1910 C 0.36051 0.13527 0.3422 0.0
C1911 C 0.39965 0.17433 0.55309 0.0
C1912 C 0.37521 0.16608 0.57009 0.0
C1913 C 0.42743 0.16733 0.56178 0.0
C1914 C 0.43156 0.15181 0.58763 0.0
H1915 H 0.39767 0.18707 0.53353 0.0
H1916 H 0.44607 0.17477 0.54877 0.0
S1917 S 0.375 0.12398 0.63927 0.0
N1918 N 0.35702 0.1404 0.61355 0.0
N1919 N 0.40936 0.12744 0.62953 0.0
C1920 C 0.40721 0.14244 0.60412 0.0
C1921 C 0.37893 0.14948 0.59539 0.0
C1922 C 0.75087 0.68512 0.31677 0.0
C1923 C 0.73258 0.68294 0.34097 0.0
C1924 C 0.76958 0.71319 0.31287 0.0
C1925 C 0.77141 0.74037 0.33342 0.0
H1926 H 0.74997 0.66502 0.29986 0.0
H1927 H 0.7823 0.71357 0.29311 0.0
S1928 S 0.72991 0.74681 0.40221 0.0
N1929 N 0.71812 0.7101 0.38653 0.0
N1930 N 0.75432 0.7631 0.38 0.0
C1931 C 0.75378 0.7385 0.35827 0.0
C1932 C 0.73416 0.70976 0.36188 0.0
C1933 C 0.89934 0.45395 0.85616 0.0
C1934 C 0.88042 0.47353 0.86085 0.0
C1935 C 0.88691 0.42256 0.84694 0.0
C1936 C 0.85514 0.4097 0.84226 0.0
H1937 H 0.92398 0.46299 0.85901 0.0
H1938 H 0.90238 0.40834 0.84376 0.0
S1939 S 0.79554 0.45101 0.85052 0.0
N1940 N 0.82832 0.47791 0.85987 0.0
N1941 N 0.80481 0.41865 0.84203 0.0
C1942 C 0.83588 0.42892 0.84686 0.0
C1943 C 0.84858 0.46092 0.8565 0.0
C1944 C 0.10925 0.9558 0.11443 0.0
C1945 C 0.10798 0.93114 0.08973 0.0
C1946 C 0.10535 0.98514 0.1083 0.0
C1947 C 0.09884 0.99212 0.07691 0.0
H1948 H 0.11391 0.95266 0.13914 0.0
H1949 H 0.10694 1.00246 0.12869 0.0
S1950 S 0.09193 0.93618 1.00295 0.0
N1951 N 0.09947 0.91701 0.03193 0.0
N1952 N 0.0911 0.97013 0.0207 0.0
C1953 C 0.09697 0.96746 0.05206 0.0
C1954 C 0.1018 0.93795 0.0583 0.0
C1955 C 0.94322 0.3281 0.92979 0.0
C1956 C 0.95568 0.30322 0.92225 0.0
C1957 C 0.91861 0.33296 0.90899 0.0
C1958 C 0.90481 0.31283 0.88004 0.0
H1959 H 0.95315 0.34453 0.95145 0.0
H1960 H 0.91065 0.35292 0.91544 0.0
S1961 S 0.92792 0.24415 0.84883 0.0
N1962 N 0.95153 0.2582 0.88308 0.0
N1963 N 0.90563 0.26727 0.84513 0.0
C1964 C 0.91678 0.28789 0.87244 0.0
C1965 C 0.94195 0.28307 0.89321 0.0
C1966 C 0.59924 0.21276 0.62555 0.0
C1967 C 0.61021 0.23433 0.60541 0.0
C1968 C 0.59475 0.18048 0.6174 0.0
C1969 C 0.60039 0.16641 0.58811 0.0
H1970 H 0.5942 0.22086 0.64866 0.0
H1971 H 0.58725 0.16643 0.63494 0.0
S1972 S 0.62893 0.21095 0.52534 0.0
N1973 N 0.62678 0.23787 0.55396 0.0
N1974 N 0.6174 0.17802 0.53819 0.0
C1975 C 0.61119 0.18751 0.56739 0.0
C1976 C 0.61615 0.22078 0.57596 0.0
C1977 C 0.63579 0.81566 0.4421 0.0
C1978 C 0.60472 0.80962 0.42807 0.0
C1979 C 0.65955 0.8274 0.42546 0.0
C1980 C 0.65312 0.83319 0.39412 0.0
H1981 H 0.64191 0.81357 0.46695 0.0
H1982 H 0.68297 0.83405 0.43798 0.0
S1983 S 0.57656 0.81561 0.34406 0.0
N1984 N 0.56941 0.80593 0.3789 0.0
N1985 N 0.6142 0.82821 0.34804 0.0
C1986 C 0.62254 0.82455 0.37874 0.0
C1987 C 0.5983 0.81261 0.39557 0.0
C1988 C 0.07968 0.26241 0.43206 0.0
C1989 C 0.09034 0.29341 0.44666 0.0
C1990 C 0.06771 0.2394 0.4495 0.0
C1991 C 0.06634 0.24654 0.48217 0.0
H1992 H 0.0783 0.25605 0.40647 0.0
H1993 H 0.0575 0.21627 0.43686 0.0
S1994 S 0.09666 0.3226 0.53328 0.0
N1995 N 0.10292 0.32893 0.49711 0.0
N1996 N 0.08019 0.28557 0.5295 0.0
C1997 C 0.0795 0.27674 0.49773 0.0
C1998 C 0.09166 0.3002 0.48009 0.0
C1999 C 0.68199 0.30783 0.29723 0.0
C2000 C 0.66355 0.28426 0.27239 0.0
C2001 C 0.71501 0.31429 0.30395 0.0
C2002 C 0.73193 0.29785 0.28619 0.0
H2003 H 0.67102 0.32226 0.3109 0.0
H2004 H 0.72746 0.33282 0.32303 0.0
S2005 S 0.69579 0.23387 0.21885 0.0
N2006 N 0.66629 0.24438 0.23038 0.0
N2007 N 0.72652 0.25659 0.24268 0.0
C2008 C 0.71377 0.2742 0.26174 0.0
C2009 C 0.68046 0.26756 0.25497 0.0
C2010 C 0.57556 0.9396 0.97509 0.0
C2011 C 0.59445 0.94544 0.95165 0.0
C2012 C 0.57098 0.96342 0.99686 0.0
C2013 C 0.58592 0.99457 0.99731 0.0
H2014 H 0.56379 0.9162 0.97641 0.0
H2015 H 0.55539 0.95714 0.01346 0.0
S2016 S 0.63983 1.02225 0.9421 0.0
N2017 N 0.62865 0.98478 0.93047 0.0
N2018 N 0.62213 0.0293 0.97246 0.0
C2019 C 0.60566 1.00062 0.97438 0.0
C2020 C 0.60937 0.97627 0.9514 0.0
C2021 C 0.95858 0.8133 0.78072 0.0
C2022 C 0.96922 0.78863 0.79076 0.0
C2023 C 0.92977 0.81881 0.78651 0.0
C2024 C 0.90844 0.79977 0.80211 0.0
H2025 H 0.97287 0.82898 0.76832 0.0
H2026 H 0.92399 0.83832 0.77808 0.0
S2027 S 0.92407 0.73246 0.83474 0.0
N2028 N 0.95479 0.74539 0.81861 0.0
N2029 N 0.90164 0.75503 0.82813 0.0
C2030 C 0.91861 0.77494 0.81209 0.0
C2031 C 0.9483 0.76967 0.80686 0.0
C2032 C 0.10472 0.11236 0.93037 0.0
C2033 C 0.12107 0.09472 0.91392 0.0
C2034 C 0.09789 0.10809 0.96115 0.0
C2035 C 0.10739 0.08632 0.97771 0.0
H2036 H 0.09688 0.1297 0.91933 0.0
H2037 H 0.0849 0.12211 0.97216 0.0
S2038 S 0.14971 0.03305 0.94572 0.0
N2039 N 0.14588 0.05361 0.91699 0.0
N2040 N 0.13329 0.04613 0.97475 0.0
C2041 C 0.12385 0.06855 0.96187 0.0
C2042 C 0.13056 0.07259 0.93016 0.0
C2043 C 0.85849 0.44602 0.64151 0.0
C2044 C 0.83979 0.42695 0.61404 0.0
C2045 C 0.87542 0.43413 0.66369 0.0
C2046 C 0.87443 0.40303 0.65897 0.0
H2047 H 0.86203 0.4706 0.64469 0.0
H2048 H 0.89041 0.44953 0.6839 0.0
S2049 S 0.82177 0.34213 0.59723 0.0
N2050 N 0.81556 0.37426 0.58785 0.0
N2051 N 0.84837 0.3523 0.6296 0.0
C2052 C 0.8531 0.38316 0.63405 0.0
C2053 C 0.83532 0.39507 0.61168 0.0
C2054 C 0.5003 0.07733 0.45005 0.0
C2055 C 0.50052 0.05568 0.42374 0.0
C2056 C 0.51729 0.0782 0.47991 0.0
C2057 C 0.53476 0.05731 0.48421 0.0
H2058 H 0.48758 0.09417 0.44737 0.0
H2059 H 0.51741 0.09589 0.4994 0.0
S2060 S 0.53886 0.99312 0.42411 0.0
N2061 N 0.51691 1.01088 0.40457 0.0
N2062 N 0.54853 1.01228 0.461 0.0
C2063 C 0.53377 0.03449 0.45855 0.0
C2064 C 0.51675 0.03378 0.42814 0.0
C2065 C 0.80139 0.80157 0.1649 0.0
C2066 C 0.81288 0.77727 0.15281 0.0
C2067 C 0.8022 0.81004 0.19835 0.0
C2068 C 0.81392 0.7943 0.22145 0.0
H2069 H 0.79133 0.81395 0.14844 0.0
H2070 H 0.79325 0.82899 0.20603 0.0
S2071 S 0.84832 0.72987 0.20319 0.0
N2072 N 0.83802 0.73863 0.16787 0.0
N2073 N 0.83834 0.75378 0.22925 0.0
C2074 C 0.82589 0.77036 0.20968 0.0
C2075 C 0.82564 0.76208 0.17595 0.0
C2076 C 0.08885 0.08775 0.70984 0.0
C2077 C 0.11992 0.09498 0.72407 0.0
C2078 C 0.08015 0.08588 0.67622 0.0
C2079 C 0.10209 0.09089 0.65541 0.0
H2080 H 0.07117 0.08258 0.72451 0.0
H2081 H 0.05598 0.07966 0.66632 0.0
S2082 S 0.18636 0.11573 0.68123 0.0
N2083 N 0.17257 0.11109 0.7147 0.0
N2084 N 0.15624 0.10682 0.65256 0.0
C2085 C 0.13308 0.09952 0.66966 0.0
C2086 C 0.14192 0.10178 0.70359 0.0
C2087 C 0.86784 0.38726 0.43961 0.0
C2088 C 0.8452 0.40188 0.44595 0.0
C2089 C 0.8658 0.37022 0.4098 0.0
C2090 C 0.84091 0.36708 0.38558 0.0
H2091 H 0.88694 0.38842 0.45807 0.0
H2092 H 0.88333 0.35861 0.40599 0.0
S2093 S 0.7768 0.40285 0.38969 0.0
N2094 N 0.79831 0.41413 0.42551 0.0
N2095 N 0.79409 0.38138 0.36886 0.0
C2096 C 0.8189 0.38294 0.39095 0.0
C2097 C 0.82114 0.40057 0.42145 0.0
C2098 C 0.44194 1.02685 0.2369 0.0
C2099 C 0.459 0.05454 0.25657 0.0
C2100 C 0.45606 1.00966 0.21746 0.0
C2101 C 0.48745 1.0198 0.21686 0.0
H2102 H 0.41809 1.0171 0.23833 0.0
H2103 H 0.44265 0.98785 0.20364 0.0
S2104 S 0.54107 0.09301 0.25856 0.0
N2105 N 0.50816 0.0931 0.27063 0.0
N2106 N 0.53447 0.06061 0.23347 0.0
C2107 C 0.50424 0.04848 0.234 0.0
C2108 C 0.48999 0.06601 0.25391 0.0
C2109 C 0.78748 0.79402 0.94637 0.0
C2110 C 0.80566 0.77853 0.96361 0.0
C2111 C 0.79253 0.80152 0.91591 0.0
C2112 C 0.81566 0.7935 0.90054 0.0
H2113 H 0.76903 0.80052 0.95648 0.0
H2114 H 0.77795 0.81365 0.90413 0.0
S2115 S 0.87134 0.75489 0.93538 0.0
N2116 N 0.84917 0.75692 0.96284 0.0
N2117 N 0.85798 0.77052 0.90574 0.0
C2118 C 0.83412 0.77819 0.91733 0.0
C2119 C 0.82931 0.77088 0.94865 0.0
C2120 C 0.89174 0.13769 0.07385 0.0
C2121 C 0.87296 0.11334 0.08511 0.0
C2122 C 0.90881 0.13209 0.05005 0.0
C2123 C 0.90684 0.10198 0.03643 0.0
H2124 H 0.89312 0.16117 0.08347 0.0
H2125 H 0.92408 0.15132 0.04283 0.0
S2126 S 0.85796 0.03069 0.05555 0.0
N2127 N 0.85194 0.05851 0.08031 0.0
N2128 N 0.88265 0.04765 0.03404 0.0
C2129 C 0.88714 0.07751 0.04681 0.0
C2130 C 0.87062 0.08327 0.07171 0.0
C2131 C 0.46767 0.48944 0.10472 0.0
C2132 C 0.44398 0.47732 0.07838 0.0
C2133 C 0.49539 0.50963 0.10132 0.0
C2134 C 0.49981 0.5192 0.07176 0.0
H2135 H 0.46493 0.4829 0.12794 0.0
H2136 H 0.51346 0.51794 0.12196 0.0
S2137 S 0.44445 0.49446 0.99579 0.0
N2138 N 0.42665 0.47611 0.02189 0.0
N2139 N 0.47805 0.51531 0.01588 0.0
C2140 C 0.47591 0.50791 0.04553 0.0
C2141 C 0.44816 0.48659 0.04874 0.0
C2142 C 0.42431 0.62152 0.82998 0.0
C2143 C 0.42021 0.60729 0.79788 0.0
C2144 C 0.40507 0.63908 0.83995 0.0
C2145 C 0.38144 0.64338 0.81809 0.0
H2146 H 0.44172 0.61812 0.84783 0.0
H2147 H 0.40835 0.64896 0.86503 0.0
S2148 S 0.36281 0.61398 0.73098 0.0
N2149 N 0.39179 0.60066 0.74384 0.0
N2150 N 0.35608 0.63415 0.76285 0.0
C2151 C 0.37799 0.63073 0.78574 0.0
C2152 C 0.39729 0.61256 0.77555 0.0
C2153 C 0.19738 0.63239 0.57529 0.0
C2154 C 0.21509 0.61129 0.57665 0.0
C2155 C 0.16694 0.62427 0.57969 0.0
C2156 C 0.15309 0.59461 0.58443 0.0
H2157 H 0.20772 0.65608 0.57371 0.0
H2158 H 0.15499 0.64191 0.58173 0.0
S2159 S 0.1877 0.52927 0.58292 0.0
N2160 N 0.21561 0.55856 0.57861 0.0
N2161 N 0.15759 0.5427 0.58518 0.0
C2162 C 0.16954 0.57241 0.58231 0.0
C2163 C 0.20078 0.58089 0.57868 0.0
C2164 C 0.76517 1.01325 0.80479 0.0
C2165 C 0.78874 0.03251 0.79285 0.0
C2166 C 0.77196 0.9963 0.82834 0.0
C2167 C 0.80246 0.99861 0.84071 0.0
H2168 H 0.74137 1.0115 0.79604 0.0
H2169 H 0.75336 0.98089 0.83639 0.0
S2170 S 0.87219 0.04712 0.81856 0.0
N2171 N 0.84343 0.05363 0.79543 0.0
N2172 N 0.85638 1.02212 0.8404 0.0
C2173 C 0.82619 1.01807 0.8292 0.0
C2174 C 0.81927 0.03488 0.8049 0.0
C2175 C 0.77454 0.96287 0.55053 0.0
C2176 C 0.79201 0.97635 0.58084 0.0
C2177 C 0.75427 0.9769 0.5351 0.0
C2178 C 0.75057 1.00482 0.54944 0.0
H2179 H 0.7775 0.94202 0.53788 0.0
H2180 H 0.74227 0.96643 0.51117 0.0
S2181 S 0.78733 0.04737 0.63043 0.0
N2182 N 0.80156 1.01756 0.62624 0.0
N2183 N 0.76341 0.04395 0.59686 0.0
C2184 C 0.76599 1.01739 0.58071 0.0
C2185 C 0.78677 1.00315 0.5965 0.0
C2186 C 0.42444 0.42505 0.78 0.0
C2187 C 0.42273 0.45328 0.79553 0.0
C2188 C 0.40294 0.39776 0.78204 0.0
C2189 C 0.37946 0.39737 0.80073 0.0
H2190 H 0.44227 0.42408 0.76575 0.0
H2191 H 0.40516 0.37669 0.76914 0.0
S2192 S 0.366 0.46576 0.84701 0.0
N2193 N 0.39571 0.47971 0.82985 0.0
N2194 N 0.35652 0.42831 0.83555 0.0
C2195 C 0.37769 0.42565 0.81653 0.0
C2196 C 0.39906 0.45357 0.81355 0.0
C2197 C 0.26188 0.70596 0.30118 0.0
C2198 C 0.28423 0.6902 0.30733 0.0
C2199 C 0.26987 0.73528 0.29355 0.0
C2200 C 0.30046 0.75009 0.29306 0.0
H2201 H 0.23774 0.69477 0.29954 0.0
H2202 H 0.25182 0.74578 0.28643 0.0
S2203 S 0.36818 0.72113 0.31349 0.0
N2204 N 0.33858 0.693 0.31663 0.0
N2205 N 0.35371 0.74878 0.30298 0.0
C2206 C 0.32335 0.73574 0.30187 0.0
C2207 C 0.3152 0.70568 0.30922 0.0
C2208 C 0.59489 0.71126 0.5537 0.0
C2209 C 0.56654 0.71774 0.54446 0.0
C2210 C 0.59724 0.68145 0.55873 0.0
C2211 C 0.57163 0.65552 0.55544 0.0
H2212 H 0.6159 0.72938 0.55647 0.0
H2213 H 0.61979 0.67865 0.56432 0.0
S2214 S 0.49143 0.65923 0.5328 0.0
N2215 N 0.51171 0.69451 0.53267 0.0
N2216 N 0.51617 0.63969 0.54253 0.0
C2217 C 0.54304 0.66166 0.54627 0.0
C2218 C 0.54056 0.6921 0.54088 0.0
C2219 C 0.74304 0.36496 0.71227 0.0
C2220 C 0.714 0.34356 0.70761 0.0
C2221 C 0.76815 0.36241 0.7344 0.0
C2222 C 0.76548 0.33817 0.75257 0.0
H2223 H 0.74618 0.38422 0.69949 0.0
H2224 H 0.78973 0.37982 0.73761 0.0
S2225 S 0.69504 0.27436 0.74653 0.0
N2226 N 0.68497 0.29625 0.72164 0.0
N2227 N 0.73118 0.29127 0.76188 0.0
C2228 C 0.73671 0.31626 0.74707 0.0
C2229 C 0.7114 0.31897 0.72501 0.0
C2230 C 0.08641 0.43246 0.0394 0.0
C2231 C 0.05729 0.41114 0.0371 0.0
C2232 C 0.0911 0.46522 0.0459 0.0
C2233 C 0.06706 0.47935 0.05042 0.0
H2234 H 0.10603 0.42381 0.03638 0.0
H2235 H 0.11412 0.4797 0.0476 0.0
S2236 S 0.98541 0.43443 0.04003 0.0
N2237 N 1.00361 0.40768 0.03609 0.0
N2238 N 1.01202 0.46749 0.04723 0.0
C2239 C 1.0378 0.45812 0.04682 0.0
C2240 C 1.03309 0.42491 0.04049 0.0
C2241 C 1.00845 0.81659 0.19146 0.0
C2242 C 1.03805 0.82132 0.20875 0.0
C2243 C 0.98247 0.8038 0.20455 0.0
C2244 C 0.98554 0.79594 0.23535 0.0
H2245 H 1.00538 0.82036 0.16682 0.0
H2246 H 0.96006 0.79821 0.18981 0.0
S2247 S 0.05742 0.809 0.29238 0.0
N2248 N 0.06858 0.82109 0.25982 0.0
N2249 N 1.01965 0.79722 0.28424 0.0
C2250 C 1.01471 0.80321 0.25389 0.0
C2251 C 0.04106 0.81598 0.24062 0.0
C2252 C 0.58543 0.38093 0.1973 0.0
C2253 C 0.58866 0.35601 0.17638 0.0
C2254 C 0.59486 0.41089 0.19098 0.0
C2255 C 0.60755 0.4169 0.16339 0.0
H2256 H 0.57647 0.37745 0.21925 0.0
H2257 H 0.5923 0.4295 0.20785 0.0
S2258 S 0.62007 0.35971 0.1004 0.0
N2259 N 0.60454 0.33934 0.1263 0.0
N2260 N 0.62261 0.39562 0.11479 0.0
C2261 C 0.61028 0.39216 0.14191 0.0
C2262 C 0.60072 0.36172 0.1483 0.0
C2263 C 0.97383 0.33325 0.36738 0.0
C2264 C 0.99387 0.33853 0.34446 0.0
C2265 C 0.94139 0.32821 0.36 0.0
C2266 C 0.92611 0.32886 0.32918 0.0
H2267 H 0.98341 0.33305 0.39191 0.0
H2268 H 0.92816 0.32438 0.37914 0.0
S2269 S 0.96623 0.34037 0.25902 0.0
N2270 N 0.99451 0.34282 0.28844 0.0
N2271 N 0.93445 0.33412 0.27475 0.0
C2272 C 0.94563 0.33381 0.30571 0.0
C2273 C 0.97889 0.33835 0.31317 0.0
C2274 C 1.02806 0.67027 0.68036 0.0
C2275 C 0.04829 0.69976 0.68402 0.0
C2276 C 1.03218 0.64519 0.65976 0.0
C2277 C 0.05677 0.6486 0.64222 0.0
H2278 H 1.00867 0.66667 0.69294 0.0
H2279 H 1.01578 0.62305 0.65725 0.0
S2280 S 0.11907 0.71994 0.64793 0.0
N2281 N 0.09552 0.72995 0.67074 0.0
N2282 N 0.1037 0.68331 0.63368 0.0
C2283 C 0.07784 0.6777 0.64707 0.0
C2284 C 0.07348 0.70305 0.66749 0.0
C2285 C 0.68622 0.84182 0.82169 0.0
C2286 C 0.68415 0.85729 0.85221 0.0
C2287 C 0.71457 0.83639 0.81352 0.0
C2288 C 0.74319 0.84574 0.83511 0.0
H2289 H 0.6656 0.83308 0.804 0.0
H2290 H 0.71387 0.82469 0.78974 0.0
S2291 S 0.75187 0.88841 0.91769 0.0
N2292 N 0.71533 0.88299 0.90345 0.0
N2293 N 0.76629 0.87253 0.88867 0.0
C2294 C 0.74134 0.86173 0.86526 0.0
C2295 C 0.71285 0.86737 0.87351 0.0
C2296 C 0.55493 0.54296 0.70613 0.0
C2297 C 0.52982 0.55399 0.7129 0.0
C2298 C 0.56707 0.54678 0.67746 0.0
C2299 C 0.55469 0.56175 0.6541 0.0
H2300 H 0.56488 0.53064 0.72275 0.0
H2301 H 0.586 0.53736 0.6733 0.0
S2302 S 0.49115 0.59794 0.66138 0.0
N2303 N 0.4947 0.58281 0.69434 0.0
N2304 N 0.51727 0.58964 0.64118 0.0
C2305 C 0.53028 0.5737 0.66105 0.0
C2306 C 0.51799 0.56993 0.69014 0.0
C2307 C 0.79895 0.24315 0.02628 0.0
C2308 C 0.79745 0.2119 0.02004 0.0
C2309 C 0.78722 0.2575 1.0026 0.0
C2310 C 0.77331 0.24089 0.97213 0.0
H2311 H 0.80799 0.25621 0.05008 0.0
H2312 H 0.78825 0.28152 1.00841 0.0
S2313 S 0.76528 0.15886 0.94357 0.0
N2314 N 0.78286 0.16513 0.98109 0.0
N2315 N 0.76006 0.19199 0.93638 0.0
C2316 C 0.77315 0.20998 0.96509 0.0
C2317 C 0.78548 0.19548 0.98916 0.0
C2318 C 0.15743 0.57288 0.20517 0.0
C2319 C 0.18854 0.57799 0.20257 0.0
C2320 C 0.13593 0.57384 0.17932 0.0
C2321 C 0.14448 0.58002 0.14994 0.0
H2322 H 0.14958 0.56881 0.22756 0.0
H2323 H 0.11256 0.56908 0.18256 0.0
S2324 S 0.22357 0.59395 0.13079 0.0
N2325 N 0.22708 0.58807 0.16822 0.0
N2326 N 0.18688 0.59084 0.12005 0.0
C2327 C 0.17562 0.58448 0.147 0.0
C2328 C 0.19756 0.58326 0.17321 0.0
C2329 C 0.85523 0.84066 0.46804 0.0
C2330 C 0.84313 0.86351 0.48244 0.0
C2331 C 0.85112 0.83215 0.43443 0.0
C2332 C 0.83536 0.84646 0.41303 0.0
H2333 H 0.86826 0.8292 0.48288 0.0
H2334 H 0.86063 0.81412 0.42532 0.0
S2335 S 0.79699 0.90628 0.43796 0.0
N2336 N 0.81283 0.89912 0.47218 0.0
N2337 N 0.80577 0.88369 0.40944 0.0
C2338 C 0.82246 0.86889 0.4271 0.0
C2339 C 0.82622 0.87727 0.46148 0.0
C2340 C 0.51986 0.55752 0.91972 0.0
C2341 C 0.53946 0.55009 0.89879 0.0
C2342 C 0.52834 0.56186 0.95348 0.0
C2343 C 0.55695 0.55927 0.968 0.0
H2344 H 0.49738 0.55918 0.90996 0.0
H2345 H 0.51204 0.56676 0.96829 0.0
S2346 S 0.61843 0.54476 0.92397 0.0
N2347 N 0.58971 0.5427 0.89535 0.0
N2348 N 0.60614 0.55221 0.95803 0.0
C2349 C 0.5772 0.55318 0.94722 0.0
C2350 C 0.56836 0.54826 0.91296 0.0
C2351 C 0.84815 0.22372 0.21142 0.0
C2352 C 0.82683 0.21651 0.18332 0.0
C2353 C 0.84712 0.24664 0.23551 0.0
C2354 C 0.82427 0.26236 0.23226 0.0
H2355 H 0.86554 0.21154 0.21479 0.0
H2356 H 0.86412 0.2516 0.25702 0.0
S2357 S 0.76216 0.24994 0.1632 0.0
N2358 N 0.78199 0.22566 0.153 0.0
N2359 N 0.77951 0.26855 0.19914 0.0
C2360 C 0.80284 0.25528 0.20405 0.0
C2361 C 0.8042 0.23223 0.17931 0.0
C2362 C 0.19107 0.60582 0.39666 0.0
C2363 C 0.17545 0.59187 0.36585 0.0
C2364 C 0.17568 0.6178 0.41916 0.0
C2365 C 0.14432 0.61586 0.41138 0.0
H2366 H 0.2157 0.61006 0.40238 0.0
H2367 H 0.18877 0.63032 0.442 0.0
S2368 S 0.09229 0.57522 0.33633 0.0
N2369 N 0.12652 0.57244 0.33024 0.0
N2370 N 0.09729 0.59434 0.373 0.0
C2371 C 0.12797 0.59917 0.38182 0.0
C2372 C 0.14365 0.58718 0.35892 0.0
C2373 C 0.83999 0.89477 0.6992 0.0
C2374 C 0.848 0.8778 0.67303 0.0
C2375 C 0.83475 0.88321 0.72767 0.0
C2376 C 0.83727 0.85392 0.73194 0.0
H2377 H 0.83766 0.91758 0.69789 0.0
H2378 H 0.82871 0.89756 0.74658 0.0
S2379 S 0.85743 0.7994 0.67133 0.0
N2380 N 0.85786 0.82958 0.65362 0.0
N2381 N 0.84831 0.8078 0.70697 0.0
C2382 C 0.84505 0.83639 0.70597 0.0
C2383 C 0.8503 0.84825 0.67673 0.0
C2384 C 0.76288 0.51159 0.55331 0.0
C2385 C 0.79235 0.53151 0.55612 0.0
C2386 C 0.74432 0.5158 0.57604 0.0
C2387 C 0.75467 0.54017 0.60166 0.0
H2388 H 0.75518 0.49114 0.53533 0.0
H2389 H 0.72202 0.49971 0.57392 0.0
S2390 S 0.82625 0.60278 0.61502 0.0
N2391 N 0.8284 0.57962 0.58292 0.0
N2392 N 0.79313 0.58731 0.62574 0.0
C2393 C 0.78242 0.56205 0.60273 0.0
C2394 C 0.80123 0.55796 0.57959 0.0
C2395 C 0.18919 0.18093 0.54042 0.0
C2396 C 0.21161 0.16907 0.5279 0.0
C2397 C 0.16109 0.16151 0.54379 0.0
C2398 C 0.15465 0.12947 0.53547 0.0
H2399 H 0.19398 0.20516 0.54933 0.0
H2400 H 0.14496 0.17175 0.55434 0.0
S2401 S 0.20093 0.0887 0.49062 0.0
N2402 N 0.22246 0.12436 0.49998 0.0
N2403 N 0.16928 0.08814 0.50567 0.0
C2404 C 0.1753 0.11786 0.51936 0.0
C2405 C 0.20392 0.13759 0.51587 0.0
C2406 C 0.2277 1.01448 0.75489 0.0
C2407 C 0.22622 1.02382 0.78721 0.0
C2408 C 0.24733 0.99692 0.74645 0.0
C2409 C 0.2663 0.98829 0.77006 0.0
H2410 H 0.21404 1.02141 0.73598 0.0
H2411 H 0.24799 0.99038 0.72128 0.0
S2412 S 0.27105 1.00693 0.85801 0.0
N2413 N 0.24496 1.02292 0.8429 0.0
N2414 N 0.28222 0.9899 0.82701 0.0
C2415 C 0.26442 0.99669 0.80245 0.0
C2416 C 0.24424 1.01448 0.81105 0.0
C2417 C 0.44098 0.99835 0.01685 0.0
C2418 C 0.42194 1.01815 0.01791 0.0
C2419 C 0.47257 1.00964 0.02461 0.0
C2420 C 0.48622 0.04114 0.03344 0.0
H2421 H 0.43139 0.97377 1.01099 0.0
H2422 H 0.48627 0.99343 0.02404 0.0
S2423 S 0.44667 0.10278 0.03834 0.0
N2424 N 0.41886 0.07082 0.02699 0.0
N2425 N 0.47876 0.09225 0.04191 0.0
C2426 C 0.46763 0.0614 0.03342 0.0
C2427 C 0.4353 0.04984 0.02541 0.0
C2428 C 0.84462 0.63722 0.83518 0.0
C2429 C 0.87336 0.63132 0.83731 0.0
C2430 C 0.83576 0.65436 0.81271 0.0
C2431 C 0.85519 0.66556 0.79132 0.0
H2432 H 0.82807 0.6266 0.84924 0.0
H2433 H 0.81277 0.65712 0.81068 0.0
S2434 S 0.93369 0.65808 0.78902 0.0
N2435 N 0.92219 0.63981 0.81813 0.0
N2436 N 0.9051 0.67146 0.77514 0.0
C2437 C 0.88461 0.66121 0.79441 0.0
C2438 C 0.89392 0.64442 0.81785 0.0
C2439 C 0.88419 0.65133 0.05898 0.0
C2440 C 0.87829 0.67265 0.08232 0.0
C2441 C 0.90283 0.63247 0.06771 0.0
C2442 C 0.91583 0.63458 0.09992 0.0
H2443 H 0.87305 0.64805 0.03431 0.0
H2444 H 0.90609 0.61537 0.04949 0.0
S2445 S 0.91086 0.68998 0.16881 0.0
N2446 N 0.88937 0.69707 0.13806 0.0
N2447 N 0.92441 0.66175 0.15437 0.0
C2448 C 0.91155 0.65708 0.12298 0.0
C2449 C 0.89272 0.67613 0.11416 0.0
C2450 C 0.23444 0.20783 0.85006 0.0
C2451 C 0.23318 0.18018 0.83069 0.0
C2452 C 0.25553 0.23533 0.8475 0.0
C2453 C 0.27586 0.23631 0.82515 0.0
H2454 H 0.21881 0.2083 0.86705 0.0
H2455 H 0.25547 0.25613 0.86271 0.0
S2456 S 0.2804 0.17046 0.76728 0.0
N2457 N 0.2538 0.15565 0.78786 0.0
N2458 N 0.29236 0.20719 0.7824 0.0
C2459 C 0.27482 0.20876 0.80568 0.0
C2460 C 0.25377 0.18077 0.80862 0.0
C2461 C 0.35266 0.95655 0.32093 0.0
C2462 C 0.38471 0.96528 0.32907 0.0
C2463 C 0.33641 0.92582 0.31586 0.0
C2464 C 0.35179 0.90315 0.3188 0.0
H2465 H 0.34002 0.97354 0.31888 0.0
H2466 H 0.31159 0.9198 0.31087 0.0
S2467 S 0.43532 0.91446 0.34088 0.0
N2468 N 0.43131 0.94917 0.33974 0.0
N2469 N 0.40036 0.89128 0.3315 0.0
C2470 C 0.38377 0.9115 0.32642 0.0
C2471 C 0.4004 0.94275 0.33121 0.0
C2472 C 0.63728 0.45294 0.61834 0.0
C2473 C 0.62055 0.4234 0.60135 0.0
C2474 C 0.63086 0.48103 0.61121 0.0
C2475 C 0.60699 0.48223 0.58662 0.0
H2476 H 0.65586 0.45452 0.63752 0.0
H2477 H 0.64486 0.50226 0.6256 0.0
S2478 S 0.55685 0.41162 0.53358 0.0
N2479 N 0.57914 0.39795 0.55794 0.0
N2480 N 0.5675 0.44917 0.54453 0.0
C2481 C 0.59033 0.45269 0.56941 0.0
C2482 C 0.59694 0.42413 0.57666 0.0
C2483 C 0.44721 0.83213 0.37701 0.0
C2484 C 0.44497 0.81554 0.40265 0.0
C2485 C 0.42138 0.83171 0.3551 0.0
C2486 C 0.39155 0.81507 0.35765 0.0
H2487 H 0.46928 0.84584 0.37373 0.0
H2488 H 0.42513 0.84525 0.33628 0.0
S2489 S 0.37282 0.76581 0.41925 0.0
N2490 N 0.41033 0.78043 0.42842 0.0
N2491 N 0.36172 0.77984 0.38733 0.0
C2492 C 0.38892 0.7976 0.38272 0.0
C2493 C 0.4155 0.79782 0.4051 0.0
C2494 C 0.11954 0.72791 0.07936 0.0
C2495 C 0.09978 0.74045 0.09685 0.0
C2496 C 0.11781 0.69558 0.07447 0.0
C2497 C 0.09694 0.67337 0.08746 0.0
H2498 H 0.13728 0.74328 0.07019 0.0
H2499 H 0.13365 0.68816 0.06083 0.0
S2500 S 1.03697 0.6926 0.13128 0.0
N2501 N 0.05605 0.72605 0.12398 0.0
N2502 N 0.05387 0.66751 0.11604 0.0
C2503 C 0.07643 0.68563 0.10383 0.0
C2504 C 0.07767 0.71815 0.10821 0.0
C2505 C 0.11411 0.29762 0.88377 0.0
C2506 C 0.11176 0.31082 0.91477 0.0
C2507 C 0.13718 0.31177 0.86743 0.0
C2508 C 0.15857 0.33958 0.88156 0.0
H2509 H 0.09735 0.27686 0.87146 0.0
H2510 H 0.13741 0.30168 0.84312 0.0
S2511 S 0.16538 0.38118 0.96355 0.0
N2512 N 0.1352 0.35159 0.96005 0.0
N2513 N 0.17817 0.37804 0.92917 0.0
C2514 C 0.15767 0.35193 0.91311 0.0
C2515 C 0.13437 0.33758 0.92978 0.0
C2516 C 0.56291 0.76688 0.94414 0.0
C2517 C 0.59113 0.78804 0.95765 0.0
C2518 C 0.54942 0.74341 0.96012 0.0
C2519 C 0.56367 0.73996 0.99014 0.0
H2520 H 0.55043 0.76912 0.9216 0.0
H2521 H 0.52705 0.72847 0.94944 0.0
S2522 S 0.63936 0.78675 0.03436 0.0
N2523 N 0.63428 0.80211 1.00173 0.0
N2524 N 0.60863 0.75787 0.03165 0.0
C2525 C 0.59278 0.75956 1.00302 0.0
C2526 C 0.60657 0.78365 0.98682 0.0
C2527 C 0.1773 0.79634 0.80713 0.0
C2528 C 0.15922 0.7914 0.77616 0.0
C2529 C 0.20999 0.79941 0.81189 0.0
C2530 C 0.22706 0.79819 0.78612 0.0
H2531 H 0.16634 0.79853 0.82801 0.0
H2532 H 0.22218 0.80366 0.83622 0.0
S2533 S 0.19141 0.78119 0.70024 0.0
N2534 N 0.16231 0.78194 0.71922 0.0
N2535 N 0.22173 0.78868 0.72844 0.0
C2536 C 0.20912 0.79221 0.75536 0.0
C2537 C 0.17616 0.78859 0.75041 0.0
C2538 C 0.07202 0.45015 0.50701 0.0
C2539 C 0.08472 0.45315 0.47878 0.0
C2540 C 0.07257 0.47579 0.52936 0.0
C2541 C 0.08526 0.50604 0.52456 0.0
H2542 H 0.06131 0.42765 0.51194 0.0
H2543 H 0.06191 0.47161 0.55015 0.0
S2544 S 0.12342 0.52678 0.45533 0.0
N2545 N 0.11182 0.48902 0.44796 0.0
N2546 N 0.11294 0.53707 0.48975 0.0
C2547 C 0.09899 0.50937 0.49683 0.0
C2548 C 0.09862 0.4831 0.47408 0.0
C2549 C 0.45837 0.29829 0.26025 0.0
C2550 C 0.47381 0.28017 0.27757 0.0
C2551 C 0.42992 0.30428 0.26691 0.0
C2552 C 0.41384 0.29211 0.29099 0.0
H2553 H 0.4684 0.30816 0.24104 0.0
H2554 H 0.42012 0.31841 0.25245 0.0
S2555 S 0.44445 0.24588 0.34621 0.0
N2556 N 0.4703 0.25218 0.32232 0.0
N2557 N 0.41785 0.26238 0.33365 0.0
C2558 C 0.42909 0.27432 0.3087 0.0
C2559 C 0.45835 0.2687 0.30238 0.0
C2560 C 0.60956 0.6038 0.4378 0.0
C2561 C 0.62808 0.58838 0.42198 0.0
C2562 C 0.60369 0.59973 0.46898 0.0
C2563 C 0.61626 0.58031 0.48664 0.0
H2564 H 0.59925 0.61925 0.42595 0.0
H2565 H 0.58887 0.61199 0.47938 0.0
S2566 S 0.66551 0.53344 0.45667 0.0
N2567 N 0.65853 0.55198 0.42692 0.0
N2568 N 0.64764 0.54474 0.48527 0.0
C2569 C 0.63498 0.56481 0.4714 0.0
C2570 C 0.64078 0.56869 0.43932 0.0
C2571 C 0.34892 0.91077 0.08922 0.0
C2572 C 0.34218 0.93874 0.09824 0.0
C2573 C 0.36686 0.89918 0.11084 0.0
C2574 C 0.37828 0.91514 0.14205 0.0
H2575 H 0.34162 0.89853 0.06488 0.0
H2576 H 0.3717 0.87763 0.10321 0.0
S2577 S 0.36478 0.98784 0.17783 0.0
N2578 N 0.34652 0.98099 0.14057 0.0
N2579 N 0.38032 0.95927 0.18149 0.0
C2580 C 0.37074 0.94253 0.1516 0.0
C2581 C 0.35255 0.95426 0.12962 0.0
C2582 C 1.0152 0.55362 0.9367 0.0
C2583 C 0.99827 0.57532 0.93522 0.0
C2584 C 1.0324 0.5518 0.96538 0.0
C2585 C 1.03397 0.57214 0.99339 0.0
H2586 H 1.0145 0.53721 0.91577 0.0
H2587 H 0.0445 0.53424 0.96556 0.0
S2588 S 0.9936 0.63321 1.00202 0.0
N2589 N 0.98335 0.61708 0.96402 0.0
N2590 N 1.01695 0.61479 0.018 0.0
C2591 C 1.01712 0.59406 0.99227 0.0
C2592 C 0.99905 0.59545 0.96309 0.0
C2593 C 0.3067 0.29506 0.65748 0.0
C2594 C 0.31778 0.27032 0.64597 0.0
C2595 C 0.3082 0.30458 0.69085 0.0
C2596 C 0.32029 0.28955 0.71446 0.0
H2597 H 0.29593 0.30661 0.64063 0.0
H2598 H 0.29936 0.32369 0.69803 0.0
S2599 S 0.35653 0.22633 0.69733 0.0
N2600 N 0.34478 0.23346 0.6616 0.0
N2601 N 0.34643 0.25039 0.72317 0.0
C2602 C 0.33272 0.26575 0.70318 0.0
C2603 C 0.3317 0.25642 0.66943 0.0
C2604 C 0.59792 0.58304 0.21685 0.0
C2605 C 0.62885 0.58685 0.23018 0.0
C2606 C 0.58841 0.58047 0.18318 0.0
C2607 C 0.60935 0.58164 0.16124 0.0
H2608 H 0.58083 0.58146 0.23239 0.0
H2609 H 0.56432 0.57693 0.17422 0.0
S2610 S 0.69349 0.59624 0.18359 0.0
N2611 N 0.6807 0.59476 0.21793 0.0
N2612 N 0.66288 0.59058 0.15619 0.0
C2613 C 0.64035 0.58693 0.17445 0.0
C2614 C 0.65001 0.58934 0.20832 0.0
C2615 C 0.30589 0.90026 0.90847 0.0
C2616 C 0.33098 0.90827 0.93333 0.0
C2617 C 0.30654 0.88162 0.8803 0.0
C2618 C 0.33235 0.87088 0.87666 0.0
H2619 H 0.2853 0.90724 0.91136 0.0
H2620 H 0.2863 0.87458 0.86195 0.0
S2621 S 0.40609 0.89128 0.93208 0.0
N2622 N 0.38394 0.90841 0.95086 0.0
N2623 N 0.3849 0.873 0.89758 0.0
C2624 C 0.35832 0.88062 0.90037 0.0
C2625 C 0.35772 0.89955 0.92892 0.0
C2626 C 0.91722 0.53236 0.74264 0.0
C2627 C 0.93856 0.55157 0.76834 0.0
C2628 C 0.92677 0.51561 0.71813 0.0
C2629 C 0.95784 0.51726 0.7188 0.0
H2630 H 0.89289 0.52946 0.74199 0.0
H2631 H 0.90978 0.5014 0.69856 0.0
S2632 S 1.0232 0.56574 0.77915 0.0
N2633 N 0.9926 0.57302 0.79147 0.0
N2634 N 1.0102 0.54054 0.74593 0.0
C2635 C 0.97955 0.53728 0.74355 0.0
C2636 C 0.96999 0.55478 0.76815 0.0
C2637 C 0.32494 0.25277 0.43381 0.0
C2638 C 0.31063 0.26974 0.4542 0.0
C2639 C 0.32841 0.25864 0.40218 0.0
C2640 C 0.31786 0.2819 0.38935 0.0
H2641 H 0.33357 0.2347 0.44232 0.0
H2642 H 0.34 0.24528 0.38799 0.0
S2643 S 0.27763 0.33223 0.4319 0.0
N2644 N 0.28524 0.31042 0.45807 0.0
N2645 N 0.29134 0.32112 0.39992 0.0
C2646 C 0.30313 0.29857 0.40944 0.0
C2647 C 0.29966 0.29265 0.44132 0.0
C2648 C 0.38985 0.63597 0.56655 0.0
C2649 C 0.37289 0.61432 0.58261 0.0
C2650 C 0.40973 0.6281 0.54695 0.0
C2651 C 0.41314 0.59833 0.54279 0.0
H2652 H 0.38728 0.65902 0.5686 0.0
H2653 H 0.42234 0.64537 0.53489 0.0
S2654 S 0.37381 0.53336 0.57977 0.0
N2655 N 0.3611 0.56228 0.59387 0.0
N2656 N 0.39792 0.547 0.55612 0.0
C2657 C 0.3967 0.5766 0.55924 0.0
C2658 C 0.37677 0.58477 0.57953 0.0
C2659 C 0.96912 0.99788 0.60662 0.0
C2660 C 0.94597 0.98093 0.58129 0.0
C2661 C 0.99521 1.01888 0.60074 0.0
C2662 C 0.9984 1.02462 0.56951 0.0
H2663 H 0.96724 0.99452 0.63105 0.0
H2664 H 1.01304 0.03079 0.62079 0.0
S2665 S 0.94331 0.98754 0.49528 0.0
N2666 N 0.92755 0.97166 0.52396 0.0
N2667 N 0.97577 1.01245 0.51319 0.0
C2668 C 0.97488 1.00867 0.54417 0.0
C2669 C 0.94888 0.98644 0.54999 0.0
C2670 C 0.94073 0.13071 0.32265 0.0
C2671 C 0.92583 0.10962 0.29486 0.0
C2672 C 0.92615 0.15086 0.33722 0.0
C2673 C 0.89632 0.15083 0.32436 0.0
H2674 H 0.96323 0.13067 0.33424 0.0
H2675 H 0.93772 0.16559 0.35957 0.0
S2676 S 0.84889 0.10357 0.24955 0.0
N2677 N 0.8807 0.09247 0.25297 0.0
N2678 N 0.85344 0.13062 0.28071 0.0
C2679 C 0.88206 0.13179 0.29523 0.0
C2680 C 0.89683 0.11109 0.28034 0.0
C2681 C 0.70453 0.07279 0.08591 0.0
C2682 C 0.71933 0.10355 0.09809 0.0
C2683 C 0.67256 0.06274 0.08048 0.0
C2684 C 0.65506 0.08333 0.08722 0.0
H2685 H 0.7176 0.05683 0.07959 0.0
H2686 H 0.66149 0.03903 0.07022 0.0
S2687 S 0.68404 0.16515 0.12408 0.0
N2688 N 0.71497 0.15372 0.11983 0.0
N2689 N 0.65492 0.13486 0.10986 0.0
C2690 C 0.66988 0.11379 0.10084 0.0
C2691 C 0.70215 0.12392 0.10627 0.0
C2692 C 0.31933 0.52767 0.29545 0.0
C2693 C 0.29091 0.53254 0.29996 0.0
C2694 C 0.33252 0.51 0.31416 0.0
C2695 C 0.31766 0.49693 0.3378 0.0
H2696 H 0.33226 0.53885 0.27866 0.0
H2697 H 0.35493 0.50742 0.31097 0.0
S2698 S 0.24003 0.49667 0.3538 0.0
N2699 N 0.24594 0.51833 0.32582 0.0
N2700 N 0.27144 0.48538 0.36144 0.0
C2701 C 0.28821 0.49928 0.34069 0.0
C2702 C 0.27456 0.51699 0.32147 0.0
C2703 C 0.28354 0.49857 0.07502 0.0
C2704 C 0.28301 0.46749 0.07224 0.0
C2705 C 0.25786 0.50756 0.06224 0.0
C2706 C 0.23055 0.48571 0.04687 0.0
H2707 H 0.30431 0.51608 0.08599 0.0
H2708 H 0.25989 0.53177 0.06337 0.0
S2709 S 0.21598 0.40131 0.03997 0.0
N2710 N 0.2523 0.41493 0.05663 0.0
N2711 N 0.20347 0.43148 0.03455 0.0
C2712 C 0.22925 0.45451 0.04631 0.0
C2713 C 0.25561 0.44549 0.05847 0.0
C2714 C 0.89524 0.95306 0.30817 0.0
C2715 C 0.9204 0.95179 0.29262 0.0
C2716 C 0.87438 0.92628 0.31298 0.0
C2717 C 0.87719 0.89705 0.30144 0.0
H2718 H 0.8921 0.97501 0.31749 0.0
H2719 H 0.85629 0.92865 0.32633 0.0
S2720 S 0.9382 0.88168 0.25666 0.0
N2721 N 0.94669 0.91934 0.26499 0.0
N2722 N 0.90689 0.86903 0.27183 0.0
C2723 C 0.90192 0.89569 0.28482 0.0
C2724 C 0.92364 0.92299 0.28097 0.0
C2725 C 0.82731 0.19716 0.79875 0.0
C2726 C 0.79597 0.18411 0.79736 0.0
C2727 C 0.83866 0.2287 0.80067 0.0
C2728 C 0.819 0.24792 0.80132 0.0
H2729 H 0.84291 0.18287 0.79732 0.0
H2730 H 0.86271 0.23782 0.80002 0.0
S2731 S 0.73428 0.22343 0.79194 0.0
N2732 N 0.745 0.1918 0.79385 0.0
N2733 N 0.7663 0.25085 0.79537 0.0
C2734 C 0.78748 0.23485 0.79895 0.0
C2735 C 0.77598 0.20291 0.79768 0.0
loop_
_geom_bond_atom_site_label_1
_geom_bond_atom_site_label_2
_geom_bond_distance
_geom_bond_site_symmetry_2
_ccdc_geom_bond_type
O0 Cd1 2.223 . S
O0 C8 1.315 . S
Cd1 O0 2.223 . S
Cd1 O4 2.297 . S
Cd1 O5 2.439 . S
Cd1 O11 2.240 . S
Cd2 O3 2.240 . S
Cd2 O10 2.223 1_455 S
Cd2 O12 2.297 . S
Cd2 O13 2.439 . S
O3 Cd2 2.240 . S
O3 C8 1.279 . S
O4 Cd1 2.297 . S
O4 C6 1.247 . S
O5 Cd1 2.439 . S
O5 C6 1.208 . S
C6 O4 1.247 . S
C6 O5 1.208 . S
C7 O12 1.247 . S
C7 O13 1.208 . S
C8 O0 1.315 . S
C8 O3 1.279 . S
C9 O10 1.315 . S
C9 O11 1.279 1_655 S
O10 Cd2 2.223 1_655 S
O10 C9 1.315 . S
O11 Cd1 2.240 . S
O11 C9 1.279 1_455 S
O12 Cd2 2.297 . S
O12 C7 1.247 . S
O13 Cd2 2.439 . S
O13 C7 1.208 . S
O14 Cd15 2.223 . S
O14 C22 1.315 . S
Cd15 O14 2.223 . S
Cd15 O18 2.297 1_455 S
Cd15 O19 2.439 1_455 S
Cd15 O25 2.240 . S
Cd16 O17 2.240 . S
Cd16 O24 2.223 . S
Cd16 O26 2.297 . S
Cd16 O27 2.439 . S
O17 Cd16 2.240 . S
O17 C22 1.279 . S
O18 Cd15 2.297 1_655 S
O18 C20 1.247 . S
O19 Cd15 2.439 1_655 S
O19 C20 1.208 . S
C20 O18 1.247 . S
C20 O19 1.208 . S
C21 O26 1.247 . S
C21 O27 1.208 . S
C22 O14 1.315 . S
C22 O17 1.279 . S
C23 O24 1.315 . S
C23 O25 1.279 . S
O24 Cd16 2.223 . S
O24 C23 1.315 . S
O25 Cd15 2.240 . S
O25 C23 1.279 . S
O26 Cd16 2.297 . S
O26 C21 1.247 . S
O27 Cd16 2.439 . S
O27 C21 1.208 . S
O28 Cd29 2.223 . S
O28 C36 1.315 . S
Cd29 O28 2.223 . S
Cd29 O32 2.297 . S
Cd29 O33 2.439 . S
Cd29 O39 2.240 . S
Cd30 O31 2.240 . S
Cd30 O38 2.223 . S
Cd30 O40 2.297 . S
Cd30 O41 2.439 . S
O31 Cd30 2.240 . S
O31 C36 1.279 . S
O32 Cd29 2.297 . S
O32 C34 1.247 . S
O33 Cd29 2.439 . S
O33 C34 1.208 . S
C34 O32 1.247 . S
C34 O33 1.208 . S
C35 O40 1.247 . S
C35 O41 1.208 . S
C36 O28 1.315 . S
C36 O31 1.279 . S
C37 O38 1.315 . S
C37 O39 1.279 . S
O38 Cd30 2.223 . S
O38 C37 1.315 . S
O39 Cd29 2.240 . S
O39 C37 1.279 . S
O40 Cd30 2.297 . S
O40 C35 1.247 . S
O41 Cd30 2.439 . S
O41 C35 1.208 . S
O42 Cd43 2.223 . S
O42 C50 1.315 . S
Cd43 O42 2.223 . S
Cd43 O46 2.297 . S
Cd43 O47 2.439 . S
Cd43 O53 2.240 . S
Cd44 O45 2.240 . S
Cd44 O52 2.223 . S
Cd44 O54 2.297 . S
Cd44 O55 2.439 . S
O45 Cd44 2.240 . S
O45 C50 1.279 . S
O46 Cd43 2.297 . S
O46 C48 1.247 . S
O47 Cd43 2.439 . S
O47 C48 1.208 . S
C48 O46 1.247 . S
C48 O47 1.208 . S
C49 O54 1.247 . S
C49 O55 1.208 . S
C50 O42 1.315 . S
C50 O45 1.279 . S
C51 O52 1.315 . S
C51 O53 1.279 . S
O52 Cd44 2.223 . S
O52 C51 1.315 . S
O53 Cd43 2.240 . S
O53 C51 1.279 . S
O54 Cd44 2.297 . S
O54 C49 1.247 . S
O55 Cd44 2.439 . S
O55 C49 1.208 . S
O56 Cd57 2.223 . S
O56 C64 1.315 . S
Cd57 O56 2.223 . S
Cd57 O60 2.297 . S
Cd57 O61 2.439 . S
Cd57 O67 2.240 . S
Cd58 O59 2.240 . S
Cd58 O66 2.223 . S
Cd58 O68 2.297 . S
Cd58 O69 2.439 . S
O59 Cd58 2.240 . S
O59 C64 1.279 . S
O60 Cd57 2.297 . S
O60 C62 1.247 . S
O61 Cd57 2.439 . S
O61 C62 1.208 . S
C62 O60 1.247 . S
C62 O61 1.208 . S
C63 O68 1.247 . S
C63 O69 1.208 . S
C64 O56 1.315 . S
C64 O59 1.279 . S
C65 O66 1.315 . S
C65 O67 1.279 . S
O66 Cd58 2.223 . S
O66 C65 1.315 . S
O67 Cd57 2.240 . S
O67 C65 1.279 . S
O68 Cd58 2.297 . S
O68 C63 1.247 . S
O69 Cd58 2.439 . S
O69 C63 1.208 . S
O70 Cd71 2.223 . S
O70 C78 1.315 . S
Cd71 O70 2.223 . S
Cd71 O74 2.297 . S
Cd71 O75 2.439 . S
Cd71 O81 2.240 . S
Cd72 O73 2.240 . S
Cd72 O80 2.223 . S
Cd72 O82 2.297 . S
Cd72 O83 2.439 . S
O73 Cd72 2.240 . S
O73 C78 1.279 . S
O74 Cd71 2.297 . S
O74 C76 1.247 . S
O75 Cd71 2.439 . S
O75 C76 1.208 . S
C76 O74 1.247 . S
C76 O75 1.208 . S
C77 O82 1.247 . S
C77 O83 1.208 . S
C78 O70 1.315 . S
C78 O73 1.279 . S
C79 O80 1.315 . S
C79 O81 1.279 . S
O80 Cd72 2.223 . S
O80 C79 1.315 . S
O81 Cd71 2.240 . S
O81 C79 1.279 . S
O82 Cd72 2.297 . S
O82 C77 1.247 . S
O83 Cd72 2.439 . S
O83 C77 1.208 . S
O84 Cd85 2.223 . S
O84 C92 1.315 . S
Cd85 O84 2.223 . S
Cd85 O88 2.297 . S
Cd85 O89 2.439 . S
Cd85 O95 2.240 . S
Cd86 O87 2.240 . S
Cd86 O94 2.223 . S
Cd86 O96 2.297 . S
Cd86 O97 2.439 . S
O87 Cd86 2.240 . S
O87 C92 1.279 . S
O88 Cd85 2.297 . S
O88 C90 1.247 . S
O89 Cd85 2.439 . S
O89 C90 1.208 . S
C90 O88 1.247 . S
C90 O89 1.208 . S
C91 O96 1.247 . S
C91 O97 1.208 . S
C92 O84 1.315 . S
C92 O87 1.279 . S
C93 O94 1.315 . S
C93 O95 1.279 . S
O94 Cd86 2.223 . S
O94 C93 1.315 . S
O95 Cd85 2.240 . S
O95 C93 1.279 . S
O96 Cd86 2.297 . S
O96 C91 1.247 . S
O97 Cd86 2.439 . S
O97 C91 1.208 . S
O98 Cd99 2.223 1_655 S
O98 C106 1.315 . S
Cd99 O98 2.223 1_455 S
Cd99 O102 2.297 . S
Cd99 O103 2.439 . S
Cd99 O109 2.240 1_455 S
Cd100 O101 2.240 1_654 S
Cd100 O108 2.223 1_554 S
Cd100 O110 2.297 . S
Cd100 O111 2.439 1_654 S
O101 Cd100 2.240 1_456 S
O101 C106 1.279 1_455 S
O102 Cd99 2.297 . S
O102 C104 1.247 . S
O103 Cd99 2.439 . S
O103 C104 1.208 . S
C104 O102 1.247 . S
C104 O103 1.208 . S
C105 O110 1.247 1_455 S
C105 O111 1.208 1_554 S
C106 O98 1.315 . S
C106 O101 1.279 1_655 S
C107 O108 1.315 . S
C107 O109 1.279 . S
O108 Cd100 2.223 1_556 S
O108 C107 1.315 . S
O109 Cd99 2.240 1_655 S
O109 C107 1.279 . S
O110 Cd100 2.297 . S
O110 C105 1.247 1_655 S
O111 Cd100 2.439 1_456 S
O111 C105 1.208 1_556 S
O112 Cd113 2.223 1_565 S
O112 C120 1.315 1_565 S
Cd113 O112 2.223 1_545 S
Cd113 O116 2.297 . S
Cd113 O117 2.439 . S
Cd113 O123 2.240 1_545 S
Cd114 O115 2.250 . S
Cd114 O122 2.210 1_545 S
Cd114 O124 2.291 1_545 S
Cd114 O125 2.445 . S
O115 Cd114 2.250 . S
O115 C120 1.279 . S
O116 Cd113 2.297 . S
O116 C118 1.247 . S
O117 Cd113 2.439 . S
O117 C118 1.208 . S
C118 O116 1.247 . S
C118 O117 1.208 . S
C119 O124 1.247 1_545 S
C119 O125 1.208 . S
C120 O112 1.315 1_545 S
C120 O115 1.279 . S
C121 O122 1.315 . S
C121 O123 1.279 . S
O122 Cd114 2.210 1_565 S
O122 C121 1.315 . S
O123 Cd113 2.240 1_565 S
O123 C121 1.279 . S
O124 Cd114 2.291 1_565 S
O124 C119 1.247 1_565 S
O125 Cd114 2.445 . S
O125 C119 1.208 . S
O126 Cd127 2.223 . S
O126 C134 1.315 . S
Cd127 O126 2.223 . S
Cd127 O130 2.297 . S
Cd127 O131 2.439 . S
Cd127 O137 2.240 . S
Cd128 O129 2.240 . S
Cd128 O136 2.223 . S
Cd128 O138 2.297 . S
Cd128 O139 2.439 . S
O129 Cd128 2.240 . S
O129 C134 1.279 . S
O130 Cd127 2.297 . S
O130 C132 1.247 . S
O131 Cd127 2.439 . S
O131 C132 1.208 . S
C132 O130 1.247 . S
C132 O131 1.208 . S
C133 O138 1.247 . S
C133 O139 1.208 . S
C134 O126 1.315 . S
C134 O129 1.279 . S
C135 O136 1.315 . S
C135 O137 1.279 . S
O136 Cd128 2.223 . S
O136 C135 1.315 . S
O137 Cd127 2.240 . S
O137 C135 1.279 . S
O138 Cd128 2.297 . S
O138 C133 1.247 . S
O139 Cd128 2.439 . S
O139 C133 1.208 . S
O140 Cd141 2.223 . S
O140 C148 1.315 . S
Cd141 O140 2.223 . S
Cd141 O144 2.297 . S
Cd141 O145 2.439 . S
Cd141 O151 2.240 . S
Cd142 O143 2.240 . S
Cd142 O150 2.223 . S
Cd142 O152 2.297 . S
Cd142 O153 2.439 . S
O143 Cd142 2.240 . S
O143 C148 1.279 . S
O144 Cd141 2.297 . S
O144 C146 1.247 . S
O145 Cd141 2.439 . S
O145 C146 1.208 . S
C146 O144 1.247 . S
C146 O145 1.208 . S
C147 O152 1.247 . S
C147 O153 1.208 . S
C148 O140 1.315 . S
C148 O143 1.279 . S
C149 O150 1.315 . S
C149 O151 1.279 . S
O150 Cd142 2.223 . S
O150 C149 1.315 . S
O151 Cd141 2.240 . S
O151 C149 1.279 . S
O152 Cd142 2.297 . S
O152 C147 1.247 . S
O153 Cd142 2.439 . S
O153 C147 1.208 . S
O154 Cd155 2.223 . S
O154 C162 1.315 . S
Cd155 O154 2.223 . S
Cd155 O158 2.297 . S
Cd155 O159 2.439 1_554 S
Cd155 O165 2.240 1_554 S
Cd156 O157 2.240 1_556 S
Cd156 O164 2.223 1_556 S
Cd156 O166 2.297 . S
Cd156 O167 2.439 . S
O157 Cd156 2.240 1_554 S
O157 C162 1.279 . S
O158 Cd155 2.297 . S
O158 C160 1.247 . S
O159 Cd155 2.439 1_556 S
O159 C160 1.208 1_556 S
C160 O158 1.247 . S
C160 O159 1.208 1_554 S
C161 O166 1.247 . S
C161 O167 1.208 . S
C162 O154 1.315 . S
C162 O157 1.279 . S
C163 O164 1.315 . S
C163 O165 1.279 1_554 S
O164 Cd156 2.223 1_554 S
O164 C163 1.315 . S
O165 Cd155 2.240 1_556 S
O165 C163 1.279 1_556 S
O166 Cd156 2.297 . S
O166 C161 1.247 . S
O167 Cd156 2.439 . S
O167 C161 1.208 . S
O168 Cd169 2.223 . S
O168 C176 1.315 . S
Cd169 O168 2.223 . S
Cd169 O172 2.297 . S
Cd169 O173 2.439 . S
Cd169 O179 2.240 . S
Cd170 O171 2.240 . S
Cd170 O178 2.223 . S
Cd170 O180 2.297 . S
Cd170 O181 2.439 . S
O171 Cd170 2.240 . S
O171 C176 1.279 . S
O172 Cd169 2.297 . S
O172 C174 1.247 . S
O173 Cd169 2.439 . S
O173 C174 1.208 . S
C174 O172 1.247 . S
C174 O173 1.208 . S
C175 O180 1.247 1_556 S
C175 O181 1.208 1_556 S
C176 O168 1.315 . S
C176 O171 1.279 . S
C177 O178 1.315 . S
C177 O179 1.279 . S
O178 Cd170 2.223 . S
O178 C177 1.315 . S
O179 Cd169 2.240 . S
O179 C177 1.279 . S
O180 Cd170 2.297 . S
O180 C175 1.247 1_554 S
O181 Cd170 2.439 . S
O181 C175 1.208 1_554 S
O182 Cd183 2.223 . S
O182 C190 1.315 . S
Cd183 O182 2.223 . S
Cd183 O186 2.297 . S
Cd183 O187 2.439 . S
Cd183 O193 2.240 . S
Cd184 O185 2.240 . S
Cd184 O192 2.223 . S
Cd184 O194 2.297 . S
Cd184 O195 2.439 . S
O185 Cd184 2.240 . S
O185 C190 1.279 . S
O186 Cd183 2.297 . S
O186 C188 1.247 . S
O187 Cd183 2.439 . S
O187 C188 1.208 . S
C188 O186 1.247 . S
C188 O187 1.208 . S
C189 O194 1.247 . S
C189 O195 1.208 . S
C190 O182 1.315 . S
C190 O185 1.279 . S
C191 O192 1.315 . S
C191 O193 1.279 . S
O192 Cd184 2.223 . S
O192 C191 1.315 . S
O193 Cd183 2.240 . S
O193 C191 1.279 . S
O194 Cd184 2.297 . S
O194 C189 1.247 . S
O195 Cd184 2.439 . S
O195 C189 1.208 . S
O196 Cd197 2.223 . S
O196 C204 1.315 . S
Cd197 O196 2.223 . S
Cd197 O200 2.297 . S
Cd197 O201 2.439 . S
Cd197 O207 2.240 . S
Cd198 O199 2.240 . S
Cd198 O206 2.223 . S
Cd198 O208 2.297 . S
Cd198 O209 2.439 . S
O199 Cd198 2.240 . S
O199 C204 1.279 . S
O200 Cd197 2.297 . S
O200 C202 1.247 . S
O201 Cd197 2.439 . S
O201 C202 1.208 . S
C202 O200 1.247 . S
C202 O201 1.208 . S
C203 O208 1.247 . S
C203 O209 1.208 . S
C204 O196 1.315 . S
C204 O199 1.279 . S
C205 O206 1.315 . S
C205 O207 1.279 . S
O206 Cd198 2.223 . S
O206 C205 1.315 . S
O207 Cd197 2.240 . S
O207 C205 1.279 . S
O208 Cd198 2.297 . S
O208 C203 1.247 . S
O209 Cd198 2.439 . S
O209 C203 1.208 . S
O210 Cd211 2.223 . S
O210 C218 1.315 . S
Cd211 O210 2.223 . S
Cd211 O214 2.297 . S
Cd211 O215 2.439 . S
Cd211 O221 2.240 . S
Cd212 O213 2.240 . S
Cd212 O220 2.223 . S
Cd212 O222 2.297 . S
Cd212 O223 2.439 . S
O213 Cd212 2.240 . S
O213 C218 1.279 . S
O214 Cd211 2.297 . S
O214 C216 1.247 . S
O215 Cd211 2.439 . S
O215 C216 1.208 . S
C216 O214 1.247 . S
C216 O215 1.208 . S
C217 O222 1.247 . S
C217 O223 1.208 . S
C218 O210 1.315 . S
C218 O213 1.279 . S
C219 O220 1.315 . S
C219 O221 1.279 . S
O220 Cd212 2.223 . S
O220 C219 1.315 . S
O221 Cd211 2.240 . S
O221 C219 1.279 . S
O222 Cd212 2.297 . S
O222 C217 1.247 . S
O223 Cd212 2.439 . S
O223 C217 1.208 . S
O224 Cd225 2.223 1_565 S
O224 C232 1.315 1_565 S
Cd225 O224 2.223 1_545 S
Cd225 O228 2.297 . S
Cd225 O229 2.439 . S
Cd225 O235 2.240 1_545 S
Cd226 O227 2.240 . S
Cd226 O234 2.223 1_545 S
Cd226 O236 2.297 1_545 S
Cd226 O237 2.439 . S
O227 Cd226 2.240 . S
O227 C232 1.279 . S
O228 Cd225 2.297 . S
O228 C230 1.247 . S
O229 Cd225 2.439 . S
O229 C230 1.208 . S
C230 O228 1.247 . S
C230 O229 1.208 . S
C231 O236 1.247 1_545 S
C231 O237 1.208 . S
C232 O224 1.315 1_545 S
C232 O227 1.279 . S
C233 O234 1.315 . S
C233 O235 1.279 . S
O234 Cd226 2.223 1_565 S
O234 C233 1.315 . S
O235 Cd225 2.240 1_565 S
O235 C233 1.279 . S
O236 Cd226 2.297 1_565 S
O236 C231 1.247 1_565 S
O237 Cd226 2.439 . S
O237 C231 1.208 . S
O238 Cd239 2.223 . S
O238 C246 1.315 . S
Cd239 O238 2.223 . S
Cd239 O242 2.297 . S
Cd239 O243 2.439 . S
Cd239 O249 2.240 . S
Cd240 O241 2.240 . S
Cd240 O248 2.223 . S
Cd240 O250 2.297 . S
Cd240 O251 2.439 . S
O241 Cd240 2.240 . S
O241 C246 1.279 . S
O242 Cd239 2.297 . S
O242 C244 1.247 . S
O243 Cd239 2.439 . S
O243 C244 1.208 . S
C244 O242 1.247 . S
C244 O243 1.208 . S
C245 O250 1.247 . S
C245 O251 1.208 . S
C246 O238 1.315 . S
C246 O241 1.279 . S
C247 O248 1.315 . S
C247 O249 1.279 . S
O248 Cd240 2.223 . S
O248 C247 1.315 . S
O249 Cd239 2.240 . S
O249 C247 1.279 . S
O250 Cd240 2.297 . S
O250 C245 1.247 . S
O251 Cd240 2.439 . S
O251 C245 1.208 . S
O252 Cd253 2.223 . S
O252 C260 1.315 . S
Cd253 O252 2.223 . S
Cd253 O256 2.297 . S
Cd253 O257 2.439 . S
Cd253 O263 2.240 . S
Cd254 O255 2.240 . S
Cd254 O262 2.223 . S
Cd254 O264 2.297 . S
Cd254 O265 2.439 . S
O255 Cd254 2.240 . S
O255 C260 1.279 . S
O256 Cd253 2.297 . S
O256 C258 1.247 . S
O257 Cd253 2.439 . S
O257 C258 1.208 . S
C258 O256 1.247 . S
C258 O257 1.208 . S
C259 O264 1.247 . S
C259 O265 1.208 . S
C260 O252 1.315 . S
C260 O255 1.279 . S
C261 O262 1.315 . S
C261 O263 1.279 . S
O262 Cd254 2.223 . S
O262 C261 1.315 . S
O263 Cd253 2.240 . S
O263 C261 1.279 . S
O264 Cd254 2.297 . S
O264 C259 1.247 . S
O265 Cd254 2.439 . S
O265 C259 1.208 . S
O266 Cd267 2.223 . S
O266 C274 1.315 . S
Cd267 O266 2.223 . S
Cd267 O270 2.297 . S
Cd267 O271 2.439 . S
Cd267 O277 2.240 . S
Cd268 O269 2.240 . S
Cd268 O276 2.223 . S
Cd268 O278 2.297 . S
Cd268 O279 2.439 . S
O269 Cd268 2.240 . S
O269 C274 1.279 . S
O270 Cd267 2.297 . S
O270 C272 1.247 . S
O271 Cd267 2.439 . S
O271 C272 1.208 . S
C272 O270 1.247 . S
C272 O271 1.208 . S
C273 O278 1.247 . S
C273 O279 1.208 . S
C274 O266 1.315 . S
C274 O269 1.279 . S
C275 O276 1.315 . S
C275 O277 1.279 . S
O276 Cd268 2.223 . S
O276 C275 1.315 . S
O277 Cd267 2.240 . S
O277 C275 1.279 . S
O278 Cd268 2.297 . S
O278 C273 1.247 . S
O279 Cd268 2.439 . S
O279 C273 1.208 . S
O280 Cd281 2.223 . S
O280 C288 1.315 . S
Cd281 O280 2.223 . S
Cd281 O284 2.297 . S
Cd281 O285 2.439 . S
Cd281 O291 2.240 . S
Cd282 O283 2.240 . S
Cd282 O290 2.223 . S
Cd282 O292 2.297 1_554 S
Cd282 O293 2.439 1_554 S
O283 Cd282 2.240 . S
O283 C288 1.279 . S
O284 Cd281 2.297 . S
O284 C286 1.247 . S
O285 Cd281 2.439 . S
O285 C286 1.208 . S
C286 O284 1.247 . S
C286 O285 1.208 . S
C287 O292 1.247 . S
C287 O293 1.208 . S
C288 O280 1.315 . S
C288 O283 1.279 . S
C289 O290 1.315 . S
C289 O291 1.279 . S
O290 Cd282 2.223 . S
O290 C289 1.315 . S
O291 Cd281 2.240 . S
O291 C289 1.279 . S
O292 Cd282 2.297 1_556 S
O292 C287 1.247 . S
O293 Cd282 2.439 1_556 S
O293 C287 1.208 . S
O294 Cd295 2.223 . S
O294 C302 1.315 . S
Cd295 O294 2.223 . S
Cd295 O298 2.297 . S
Cd295 O299 2.439 . S
Cd295 O305 2.240 . S
Cd296 O297 2.240 . S
Cd296 O304 2.223 . S
Cd296 O306 2.297 . S
Cd296 O307 2.439 . S
O297 Cd296 2.240 . S
O297 C302 1.279 . S
O298 Cd295 2.297 . S
O298 C300 1.247 . S
O299 Cd295 2.439 . S
O299 C300 1.208 . S
C300 O298 1.247 . S
C300 O299 1.208 . S
C301 O306 1.247 . S
C301 O307 1.208 . S
C302 O294 1.315 . S
C302 O297 1.279 . S
C303 O304 1.315 . S
C303 O305 1.279 . S
O304 Cd296 2.223 . S
O304 C303 1.315 . S
O305 Cd295 2.240 . S
O305 C303 1.279 . S
O306 Cd296 2.297 . S
O306 C301 1.247 . S
O307 Cd296 2.439 . S
O307 C301 1.208 . S
O308 Cd309 2.223 . S
O308 C316 1.315 . S
Cd309 O308 2.223 . S
Cd309 O312 2.297 . S
Cd309 O313 2.439 . S
Cd309 O319 2.240 . S
Cd310 O311 2.240 . S
Cd310 O318 2.223 . S
Cd310 O320 2.297 . S
Cd310 O321 2.439 . S
O311 Cd310 2.240 . S
O311 C316 1.279 . S
O312 Cd309 2.297 . S
O312 C314 1.247 . S
O313 Cd309 2.439 . S
O313 C314 1.208 . S
C314 O312 1.247 . S
C314 O313 1.208 . S
C315 O320 1.247 . S
C315 O321 1.208 . S
C316 O308 1.315 . S
C316 O311 1.279 . S
C317 O318 1.315 . S
C317 O319 1.279 . S
O318 Cd310 2.223 . S
O318 C317 1.315 . S
O319 Cd309 2.240 . S
O319 C317 1.279 . S
O320 Cd310 2.297 . S
O320 C315 1.247 . S
O321 Cd310 2.439 . S
O321 C315 1.208 . S
O322 Cd323 2.223 . S
O322 C330 1.315 . S
Cd323 O322 2.223 . S
Cd323 O326 2.297 . S
Cd323 O327 2.439 . S
Cd323 O333 2.240 . S
Cd324 O325 2.240 . S
Cd324 O332 2.223 . S
Cd324 O334 2.297 . S
Cd324 O335 2.439 . S
O325 Cd324 2.240 . S
O325 C330 1.279 . S
O326 Cd323 2.297 . S
O326 C328 1.247 . S
O327 Cd323 2.439 . S
O327 C328 1.208 . S
C328 O326 1.247 . S
C328 O327 1.208 . S
C329 O334 1.247 . S
C329 O335 1.208 . S
C330 O322 1.315 . S
C330 O325 1.279 . S
C331 O332 1.315 . S
C331 O333 1.279 . S
O332 Cd324 2.223 . S
O332 C331 1.315 . S
O333 Cd323 2.240 . S
O333 C331 1.279 . S
O334 Cd324 2.297 . S
O334 C329 1.247 . S
O335 Cd324 2.439 . S
O335 C329 1.208 . S
Tb336 N365 2.617 . S
Tb336 N371 2.572 . S
Tb336 O380 2.465 . S
Tb336 O381 2.387 . S
Tb336 O383 2.428 . S
Tb336 O384 2.308 . S
Tb336 O388 2.349 . S
Tb336 O391 2.393 . S
Tb336 C400 2.802 . S
C337 N338 1.379 . S
C337 C340 1.416 . S
C337 C344 1.424 1_556 S
N338 C337 1.379 . S
N338 C341 1.334 . S
N338 Tb347 2.617 1_566 S
C339 C341 1.390 . S
C339 C342 1.339 . S
C339 H359 0.930 . S
C340 C337 1.416 . S
C340 C342 1.416 . S
C340 C346 1.448 . S
C341 N338 1.334 . S
C341 C339 1.390 . S
C341 H352 0.930 1_565 S
C342 C339 1.339 . S
C342 C340 1.416 . S
C342 H363 0.930 . S
C343 C344 1.413 . S
C343 C345 1.427 . S
C343 C349 1.416 . S
C344 C337 1.424 1_554 S
C344 C343 1.413 . S
C344 N348 1.361 . S
C345 C343 1.427 . S
C345 C346 1.328 1_554 S
C345 H360 0.929 . S
C346 C340 1.448 . S
C346 C345 1.328 1_556 S
C346 H361 0.930 . S
Tb347 N338 2.617 1_544 S
Tb347 N348 2.572 1_545 S
Tb347 O382 2.349 1_655 S
Tb347 O385 2.393 1_654 S
Tb347 O386 2.465 . S
Tb347 O387 2.353 1_645 S
Tb347 O389 2.428 . S
Tb347 O390 2.308 1_655 S
Tb347 C411 2.802 . S
N348 C344 1.361 . S
N348 Tb347 2.572 1_565 S
N348 C350 1.340 . S
C349 C343 1.416 . S
C349 C351 1.332 . S
C349 H357 0.931 . S
C350 N348 1.340 . S
C350 C351 1.407 . S
C350 H356 0.930 1_565 S
C351 C349 1.332 . S
C351 C350 1.407 . S
C351 H353 0.929 . S
H352 C341 0.930 1_545 S
H353 C351 0.929 . S
H354 C369 0.930 . S
H355 C376 0.929 . S
H356 C350 0.930 1_545 S
H357 C349 0.931 . S
H358 C372 0.930 . S
H359 C339 0.930 . S
H360 C345 0.929 . S
H361 C346 0.930 . S
H362 C367 0.930 . S
H363 C342 0.930 . S
H364 C375 0.931 . S
N365 Tb336 2.617 . S
N365 C366 1.379 . S
N365 C369 1.334 . S
C366 N365 1.379 . S
C366 C368 1.416 . S
C366 C374 1.424 . S
C367 H362 0.930 . S
C367 C369 1.390 . S
C367 C370 1.339 . S
C368 C366 1.416 . S
C368 C370 1.416 . S
C368 C401 1.448 . S
C369 H354 0.930 . S
C369 N365 1.334 . S
C369 C367 1.390 . S
C370 C367 1.339 . S
C370 C368 1.416 . S
C370 H377 0.930 . S
N371 Tb336 2.572 . S
N371 C372 1.340 . S
N371 C374 1.361 . S
C372 H358 0.930 . S
C372 N371 1.340 . S
C372 C376 1.407 . S
C373 C374 1.413 . S
C373 C375 1.416 . S
C373 C402 1.427 . S
C374 C366 1.424 . S
C374 N371 1.361 . S
C374 C373 1.413 . S
C375 H364 0.931 . S
C375 C373 1.416 . S
C375 C376 1.332 . S
C376 H355 0.929 . S
C376 C372 1.407 . S
C376 C375 1.332 . S
H377 C370 0.930 . S
H378 C401 0.930 . S
H379 C402 0.929 . S
O380 Tb336 2.465 . S
O380 C400 1.264 . S
O381 Tb336 2.387 . S
O381 C392 1.264 . S
O382 Tb347 2.349 1_455 S
O382 C392 1.243 . S
O383 Tb336 2.428 . S
O383 C400 1.256 . S
O384 Tb336 2.308 . S
O384 C399 1.266 . S
O385 Tb347 2.393 1_456 S
O385 C399 1.248 1_556 S
O386 Tb347 2.465 . S
O386 C411 1.264 . S
O387 Tb347 2.353 1_465 S
O387 C403 1.278 . S
O388 Tb336 2.349 . S
O388 C403 1.243 1_545 S
O389 Tb347 2.428 . S
O389 C411 1.256 . S
O390 Tb347 2.308 1_455 S
O390 C410 1.266 . S
O391 Tb336 2.393 . S
O391 C410 1.248 . S
C392 O381 1.264 . S
C392 O382 1.243 . S
C393 C396 1.399 . S
C393 C398 1.383 . S
C393 C400 1.496 . S
C394 C395 1.399 . S
C394 C398 1.389 . S
C395 C394 1.399 . S
C395 C397 1.380 . S
C395 H412 0.929 . S
C396 C393 1.399 . S
C396 C397 1.392 . S
C396 H413 0.929 . S
C397 C395 1.380 . S
C397 C396 1.392 . S
C397 H414 0.929 . S
C398 C393 1.383 . S
C398 C394 1.389 . S
C398 H415 0.931 . S
C399 O384 1.266 . S
C399 O385 1.248 1_554 S
C400 Tb336 2.802 . S
C400 O380 1.264 . S
C400 O383 1.256 . S
C400 C393 1.496 . S
C401 C368 1.448 . S
C401 H378 0.930 . S
C401 C402 1.328 . S
C402 C373 1.427 . S
C402 H379 0.929 . S
C402 C401 1.328 . S
C403 O387 1.278 . S
C403 O388 1.243 1_565 S
C404 C407 1.399 1_554 S
C404 C408 1.383 . S
C404 C411 1.496 . S
C405 C406 1.399 . S
C405 C408 1.389 . S
C406 C405 1.399 . S
C406 C409 1.380 1_554 S
C406 H416 0.929 . S
C407 C404 1.399 1_556 S
C407 C409 1.392 . S
C407 H417 0.929 . S
C408 C404 1.383 . S
C408 C405 1.389 . S
C408 H418 0.931 . S
C409 C406 1.380 1_556 S
C409 C407 1.392 . S
C409 H419 0.929 . S
C410 O390 1.266 . S
C410 O391 1.248 . S
C411 Tb347 2.802 . S
C411 O386 1.264 . S
C411 O389 1.256 . S
C411 C404 1.496 . S
H412 C395 0.929 . S
H413 C396 0.929 . S
H414 C397 0.929 . S
H415 C398 0.931 . S
H416 C406 0.929 . S
H417 C407 0.929 . S
H418 C408 0.931 . S
H419 C409 0.929 . S
Tb420 N449 2.617 . S
Tb420 N455 2.572 . S
Tb420 O464 2.465 . S
Tb420 O465 2.387 . S
Tb420 O467 2.428 . S
Tb420 O468 2.308 . S
Tb420 O472 2.349 . S
Tb420 O475 2.393 . S
Tb420 C484 2.802 . S
C421 N422 1.379 . S
C421 C424 1.416 . S
C421 C428 1.424 . S
N422 C421 1.379 . S
N422 C425 1.334 . S
N422 Tb431 2.617 . S
C423 C425 1.390 . S
C423 C426 1.339 . S
C423 H443 0.930 . S
C424 C421 1.416 . S
C424 C426 1.416 . S
C424 C430 1.448 . S
C425 N422 1.334 . S
C425 C423 1.390 . S
C425 H436 0.930 . S
C426 C423 1.339 . S
C426 C424 1.416 . S
C426 H447 0.930 . S
C427 C428 1.413 . S
C427 C429 1.427 . S
C427 C433 1.416 . S
C428 C421 1.424 . S
C428 C427 1.413 . S
C428 N432 1.361 . S
C429 C427 1.427 . S
C429 C430 1.328 . S
C429 H444 0.929 . S
C430 C424 1.448 . S
C430 C429 1.328 . S
C430 H445 0.930 . S
Tb431 N422 2.617 . S
Tb431 N432 2.572 . S
Tb431 O466 2.349 . S
Tb431 O469 2.393 . S
Tb431 O470 2.465 . S
Tb431 O471 2.387 . S
Tb431 O473 2.428 . S
Tb431 O474 2.308 . S
Tb431 C495 2.802 . S
N432 C428 1.361 . S
N432 Tb431 2.572 . S
N432 C434 1.340 . S
C433 C427 1.416 . S
C433 C435 1.332 . S
C433 H441 0.931 . S
C434 N432 1.340 . S
C434 C435 1.407 . S
C434 H440 0.930 . S
C435 C433 1.332 . S
C435 C434 1.407 . S
C435 H437 0.929 . S
H436 C425 0.930 . S
H437 C435 0.929 . S
H438 C453 0.930 . S
H439 C460 0.929 . S
H440 C434 0.930 . S
H441 C433 0.931 . S
H442 C456 0.930 . S
H443 C423 0.930 . S
H444 C429 0.929 . S
H445 C430 0.930 . S
H446 C451 0.930 . S
H447 C426 0.930 . S
H448 C459 0.931 . S
N449 Tb420 2.617 . S
N449 C450 1.379 . S
N449 C453 1.334 . S
C450 N449 1.379 . S
C450 C452 1.416 . S
C450 C458 1.424 . S
C451 H446 0.930 . S
C451 C453 1.390 . S
C451 C454 1.339 . S
C452 C450 1.416 . S
C452 C454 1.416 . S
C452 C485 1.448 . S
C453 H438 0.930 . S
C453 N449 1.334 . S
C453 C451 1.390 . S
C454 C451 1.339 . S
C454 C452 1.416 . S
C454 H461 0.930 . S
N455 Tb420 2.572 . S
N455 C456 1.340 . S
N455 C458 1.361 . S
C456 H442 0.930 . S
C456 N455 1.340 . S
C456 C460 1.407 . S
C457 C458 1.413 . S
C457 C459 1.416 . S
C457 C486 1.427 . S
C458 C450 1.424 . S
C458 N455 1.361 . S
C458 C457 1.413 . S
C459 H448 0.931 . S
C459 C457 1.416 . S
C459 C460 1.332 . S
C460 H439 0.929 . S
C460 C456 1.407 . S
C460 C459 1.332 . S
H461 C454 0.930 . S
H462 C485 0.930 . S
H463 C486 0.929 . S
O464 Tb420 2.465 . S
O464 C484 1.264 . S
O465 Tb420 2.387 . S
O465 C476 1.264 . S
O466 Tb431 2.349 . S
O466 C476 1.243 . S
O467 Tb420 2.428 . S
O467 C484 1.256 . S
O468 Tb420 2.308 . S
O468 C483 1.266 . S
O469 Tb431 2.393 . S
O469 C483 1.248 . S
O470 Tb431 2.465 . S
O470 C495 1.264 . S
O471 Tb431 2.387 . S
O471 C487 1.264 . S
O472 Tb420 2.349 . S
O472 C487 1.243 . S
O473 Tb431 2.428 . S
O473 C495 1.256 . S
O474 Tb431 2.308 . S
O474 C494 1.266 . S
O475 Tb420 2.393 . S
O475 C494 1.248 . S
C476 O465 1.264 . S
C476 O466 1.243 . S
C477 C480 1.399 . S
C477 C482 1.383 . S
C477 C484 1.496 . S
C478 C479 1.399 . S
C478 C482 1.389 . S
C479 C478 1.399 . S
C479 C481 1.380 . S
C479 H496 0.929 . S
C480 C477 1.399 . S
C480 C481 1.392 . S
C480 H497 0.929 . S
C481 C479 1.380 . S
C481 C480 1.392 . S
C481 H498 0.929 . S
C482 C477 1.383 . S
C482 C478 1.389 . S
C482 H499 0.931 . S
C483 O468 1.266 . S
C483 O469 1.248 . S
C484 Tb420 2.802 . S
C484 O464 1.264 . S
C484 O467 1.256 . S
C484 C477 1.496 . S
C485 C452 1.448 . S
C485 H462 0.930 . S
C485 C486 1.328 . S
C486 C457 1.427 . S
C486 H463 0.929 . S
C486 C485 1.328 . S
C487 O471 1.264 . S
C487 O472 1.243 . S
C488 C491 1.399 . S
C488 C492 1.383 . S
C488 C495 1.496 . S
C489 C490 1.399 . S
C489 C492 1.389 . S
C490 C489 1.399 . S
C490 C493 1.380 . S
C490 H500 0.929 . S
C491 C488 1.399 . S
C491 C493 1.392 . S
C491 H501 0.929 . S
C492 C488 1.383 . S
C492 C489 1.389 . S
C492 H502 0.931 . S
C493 C490 1.380 . S
C493 C491 1.392 . S
C493 H503 0.929 . S
C494 O474 1.266 . S
C494 O475 1.248 . S
C495 Tb431 2.802 . S
C495 O470 1.264 . S
C495 O473 1.256 . S
C495 C488 1.496 . S
H496 C479 0.929 . S
H497 C480 0.929 . S
H498 C481 0.929 . S
H499 C482 0.931 . S
H500 C490 0.929 . S
H501 C491 0.929 . S
H502 C492 0.931 . S
H503 C493 0.929 . S
Tb504 N533 2.617 . S
Tb504 N539 2.572 1_545 S
Tb504 O548 2.465 . S
Tb504 O549 2.387 1_545 S
Tb504 O551 2.428 . S
Tb504 O552 2.308 . S
Tb504 O556 2.349 . S
Tb504 O559 2.393 . S
Tb504 C568 2.802 . S
C505 N506 1.379 . S
C505 C508 1.416 . S
C505 C512 1.424 . S
N506 C505 1.379 . S
N506 C509 1.334 . S
N506 Tb515 2.617 . S
C507 C509 1.390 . S
C507 C510 1.339 . S
C507 H527 0.930 . S
C508 C505 1.416 . S
C508 C510 1.416 . S
C508 C514 1.448 . S
C509 N506 1.334 . S
C509 C507 1.390 . S
C509 H520 0.930 . S
C510 C507 1.339 . S
C510 C508 1.416 . S
C510 H531 0.930 . S
C511 C512 1.413 . S
C511 C513 1.427 . S
C511 C517 1.416 . S
C512 C505 1.424 . S
C512 C511 1.413 . S
C512 N516 1.361 . S
C513 C511 1.427 . S
C513 C514 1.328 . S
C513 H528 0.929 . S
C514 C508 1.448 . S
C514 C513 1.328 . S
C514 H529 0.930 . S
Tb515 N506 2.617 . S
Tb515 N516 2.572 . S
Tb515 O550 2.350 1_545 S
Tb515 O553 2.393 . S
Tb515 O554 2.465 . S
Tb515 O555 2.387 . S
Tb515 O557 2.428 . S
Tb515 O558 2.308 . S
Tb515 C579 2.802 . S
N516 C512 1.361 . S
N516 Tb515 2.572 . S
N516 C518 1.340 . S
C517 C511 1.416 . S
C517 C519 1.332 . S
C517 H525 0.931 . S
C518 N516 1.340 . S
C518 C519 1.407 . S
C518 H524 0.930 . S
C519 C517 1.332 . S
C519 C518 1.407 . S
C519 H521 0.929 . S
H520 C509 0.930 . S
H521 C519 0.929 . S
H522 C537 0.930 . S
H523 C544 0.929 . S
H524 C518 0.930 . S
H525 C517 0.931 . S
H526 C540 0.949 . S
H527 C507 0.930 . S
H528 C513 0.929 . S
H529 C514 0.930 . S
H530 C535 0.931 1_545 S
H531 C510 0.930 . S
H532 C543 0.931 . S
N533 Tb504 2.617 . S
N533 C534 1.379 1_545 S
N533 C537 1.334 . S
C534 N533 1.379 1_565 S
C534 C536 1.416 . S
C534 C542 1.424 . S
C535 H530 0.931 1_565 S
C535 C537 1.390 1_565 S
C535 C538 1.339 . S
C536 C534 1.416 . S
C536 C538 1.416 . S
C536 C569 1.448 . S
C537 H522 0.930 . S
C537 N533 1.334 . S
C537 C535 1.390 1_545 S
C538 C535 1.339 . S
C538 C536 1.416 . S
C538 H545 0.930 . S
N539 Tb504 2.572 1_565 S
N539 C540 1.340 . S
N539 C542 1.361 . S
C540 H526 0.949 . S
C540 N539 1.340 . S
C540 C544 1.407 . S
C541 C542 1.413 . S
C541 C543 1.416 . S
C541 C570 1.427 . S
C542 C534 1.424 . S
C542 N539 1.361 . S
C542 C541 1.413 . S
C543 H532 0.931 . S
C543 C541 1.416 . S
C543 C544 1.332 . S
C544 H523 0.929 . S
C544 C540 1.407 . S
C544 C543 1.332 . S
H545 C538 0.930 . S
H546 C569 0.930 . S
H547 C570 0.929 . S
O548 Tb504 2.465 . S
O548 C568 1.264 . S
O549 Tb504 2.387 1_565 S
O549 C560 1.264 . S
O550 Tb515 2.350 1_565 S
O550 C560 1.243 . S
O551 Tb504 2.428 . S
O551 C568 1.256 . S
O552 Tb504 2.308 . S
O552 C567 1.266 . S
O553 Tb515 2.393 . S
O553 C567 1.248 . S
O554 Tb515 2.465 . S
O554 C579 1.264 . S
O555 Tb515 2.387 . S
O555 C571 1.264 . S
O556 Tb504 2.349 . S
O556 C571 1.243 . S
O557 Tb515 2.428 . S
O557 C579 1.256 . S
O558 Tb515 2.308 . S
O558 C578 1.266 . S
O559 Tb504 2.393 . S
O559 C578 1.248 . S
C560 O549 1.264 . S
C560 O550 1.243 . S
C561 C564 1.399 . S
C561 C566 1.383 . S
C561 C568 1.496 . S
C562 C563 1.399 . S
C562 C566 1.389 . S
C563 C562 1.399 . S
C563 C565 1.380 . S
C563 H580 0.929 . S
C564 C561 1.399 . S
C564 C565 1.392 . S
C564 H581 0.929 . S
C565 C563 1.380 . S
C565 C564 1.392 . S
C565 H582 0.929 . S
C566 C561 1.383 . S
C566 C562 1.389 . S
C566 H583 0.931 . S
C567 O552 1.266 . S
C567 O553 1.248 . S
C568 Tb504 2.802 . S
C568 O548 1.264 . S
C568 O551 1.256 . S
C568 C561 1.496 . S
C569 C536 1.448 . S
C569 H546 0.930 . S
C569 C570 1.328 . S
C570 C541 1.427 . S
C570 H547 0.929 . S
C570 C569 1.328 . S
C571 O555 1.264 . S
C571 O556 1.243 . S
C572 C575 1.399 1_545 S
C572 C576 1.383 1_545 S
C572 C579 1.496 . S
C573 C574 1.399 . S
C573 C576 1.389 . S
C574 C573 1.399 . S
C574 C577 1.380 . S
C574 H584 0.929 . S
C575 C572 1.399 1_565 S
C575 C577 1.392 . S
C575 H585 0.929 . S
C576 C572 1.383 1_565 S
C576 C573 1.389 . S
C576 H586 0.931 1_565 S
C577 C574 1.380 . S
C577 C575 1.392 . S
C577 H587 0.929 . S
C578 O558 1.266 . S
C578 O559 1.248 . S
C579 Tb515 2.802 . S
C579 O554 1.264 . S
C579 O557 1.256 . S
C579 C572 1.496 . S
H580 C563 0.929 . S
H581 C564 0.929 . S
H582 C565 0.929 . S
H583 C566 0.931 . S
H584 C574 0.929 . S
H585 C575 0.929 . S
H586 C576 0.931 1_545 S
H587 C577 0.929 . S
Tb588 N617 2.617 . S
Tb588 N623 2.572 . S
Tb588 O632 2.465 . S
Tb588 O633 2.387 . S
Tb588 O635 2.428 . S
Tb588 O636 2.308 . S
Tb588 O640 2.349 . S
Tb588 O643 2.393 . S
Tb588 C652 2.802 . S
C589 N590 1.379 . S
C589 C592 1.416 . S
C589 C596 1.424 . S
N590 C589 1.379 . S
N590 C593 1.334 . S
N590 Tb599 2.617 . S
C591 C593 1.390 . S
C591 C594 1.339 . S
C591 H611 0.930 . S
C592 C589 1.416 . S
C592 C594 1.416 . S
C592 C598 1.448 . S
C593 N590 1.334 . S
C593 C591 1.390 . S
C593 H604 0.930 . S
C594 C591 1.339 . S
C594 C592 1.416 . S
C594 H615 0.930 . S
C595 C596 1.413 . S
C595 C597 1.427 . S
C595 C601 1.416 . S
C596 C589 1.424 . S
C596 C595 1.413 . S
C596 N600 1.361 . S
C597 C595 1.427 . S
C597 C598 1.328 . S
C597 H612 0.929 . S
C598 C592 1.448 . S
C598 C597 1.328 . S
C598 H613 0.930 . S
Tb599 N590 2.617 . S
Tb599 N600 2.572 . S
Tb599 O634 2.349 . S
Tb599 O637 2.393 . S
Tb599 O638 2.465 . S
Tb599 O639 2.387 . S
Tb599 O641 2.428 . S
Tb599 O642 2.308 . S
Tb599 C663 2.802 . S
N600 C596 1.361 . S
N600 Tb599 2.572 . S
N600 C602 1.340 . S
C601 C595 1.416 . S
C601 C603 1.332 . S
C601 H609 0.931 . S
C602 N600 1.340 . S
C602 C603 1.407 . S
C602 H608 0.930 . S
C603 C601 1.332 . S
C603 C602 1.407 . S
C603 H605 0.929 . S
H604 C593 0.930 . S
H605 C603 0.929 . S
H606 C621 0.930 . S
H607 C628 0.929 . S
H608 C602 0.930 . S
H609 C601 0.931 . S
H610 C624 0.930 . S
H611 C591 0.930 . S
H612 C597 0.929 . S
H613 C598 0.930 . S
H614 C619 0.930 . S
H615 C594 0.930 . S
H616 C627 0.931 . S
N617 Tb588 2.617 . S
N617 C618 1.379 . S
N617 C621 1.334 . S
C618 N617 1.379 . S
C618 C620 1.416 . S
C618 C626 1.424 . S
C619 H614 0.930 . S
C619 C621 1.390 . S
C619 C622 1.339 . S
C620 C618 1.416 . S
C620 C622 1.416 . S
C620 C653 1.448 . S
C621 H606 0.930 . S
C621 N617 1.334 . S
C621 C619 1.390 . S
C622 C619 1.339 . S
C622 C620 1.416 . S
C622 H629 0.930 . S
N623 Tb588 2.572 . S
N623 C624 1.340 . S
N623 C626 1.361 . S
C624 H610 0.930 . S
C624 N623 1.340 . S
C624 C628 1.407 . S
C625 C626 1.413 . S
C625 C627 1.416 . S
C625 C654 1.427 . S
C626 C618 1.424 . S
C626 N623 1.361 . S
C626 C625 1.413 . S
C627 H616 0.931 . S
C627 C625 1.416 . S
C627 C628 1.332 . S
C628 H607 0.929 . S
C628 C624 1.407 . S
C628 C627 1.332 . S
H629 C622 0.930 . S
H630 C653 0.930 . S
H631 C654 0.929 . S
O632 Tb588 2.465 . S
O632 C652 1.264 . S
O633 Tb588 2.387 . S
O633 C644 1.264 . S
O634 Tb599 2.349 . S
O634 C644 1.243 . S
O635 Tb588 2.428 . S
O635 C652 1.256 . S
O636 Tb588 2.308 . S
O636 C651 1.266 . S
O637 Tb599 2.393 . S
O637 C651 1.248 . S
O638 Tb599 2.465 . S
O638 C663 1.264 . S
O639 Tb599 2.387 . S
O639 C655 1.264 . S
O640 Tb588 2.349 . S
O640 C655 1.243 . S
O641 Tb599 2.428 . S
O641 C663 1.256 . S
O642 Tb599 2.308 . S
O642 C662 1.266 . S
O643 Tb588 2.393 . S
O643 C662 1.248 . S
C644 O633 1.264 . S
C644 O634 1.243 . S
C645 C648 1.399 . S
C645 C650 1.383 . S
C645 C652 1.496 . S
C646 C647 1.399 . S
C646 C650 1.389 . S
C647 C646 1.399 . S
C647 C649 1.380 . S
C647 H664 0.929 . S
C648 C645 1.399 . S
C648 C649 1.392 . S
C648 H665 0.929 . S
C649 C647 1.380 . S
C649 C648 1.392 . S
C649 H666 0.929 . S
C650 C645 1.383 . S
C650 C646 1.389 . S
C650 H667 0.931 . S
C651 O636 1.266 . S
C651 O637 1.248 . S
C652 Tb588 2.802 . S
C652 O632 1.264 . S
C652 O635 1.256 . S
C652 C645 1.496 . S
C653 C620 1.448 . S
C653 H630 0.930 . S
C653 C654 1.328 . S
C654 C625 1.427 . S
C654 H631 0.929 . S
C654 C653 1.328 . S
C655 O639 1.264 . S
C655 O640 1.243 . S
C656 C659 1.399 . S
C656 C660 1.383 . S
C656 C663 1.496 . S
C657 C658 1.399 . S
C657 C660 1.389 . S
C658 C657 1.399 . S
C658 C661 1.380 . S
C658 H668 0.929 . S
C659 C656 1.399 . S
C659 C661 1.392 . S
C659 H669 0.929 . S
C660 C656 1.383 . S
C660 C657 1.389 . S
C660 H670 0.931 . S
C661 C658 1.380 . S
C661 C659 1.392 . S
C661 H671 0.929 . S
C662 O642 1.266 . S
C662 O643 1.248 . S
C663 Tb599 2.802 . S
C663 O638 1.264 . S
C663 O641 1.256 . S
C663 C656 1.496 . S
H664 C647 0.929 . S
H665 C648 0.929 . S
H666 C649 0.929 . S
H667 C650 0.931 . S
H668 C658 0.929 . S
H669 C659 0.929 . S
H670 C660 0.931 . S
H671 C661 0.929 . S
Tb672 N701 2.617 1_545 S
Tb672 N707 2.572 1_545 S
Tb672 O716 2.465 1_545 S
Tb672 O717 2.387 . S
Tb672 O719 2.428 1_545 S
Tb672 O720 2.308 . S
Tb672 O724 2.349 . S
Tb672 O727 2.393 . S
Tb672 C736 2.802 1_545 S
C673 N674 1.379 . S
C673 C676 1.416 . S
C673 C680 1.424 . S
N674 C673 1.379 . S
N674 C677 1.334 1_455 S
N674 Tb683 2.617 . S
C675 C677 1.390 . S
C675 C678 1.339 . S
C675 H695 0.930 . S
C676 C673 1.416 . S
C676 C678 1.416 1_455 S
C676 C682 1.448 . S
C677 N674 1.334 1_655 S
C677 C675 1.390 . S
C677 H688 0.930 . S
C678 C675 1.339 . S
C678 C676 1.416 1_655 S
C678 H699 0.930 . S
C679 C680 1.413 . S
C679 C681 1.427 . S
C679 C685 1.416 . S
C680 C673 1.424 . S
C680 C679 1.413 . S
C680 N684 1.361 . S
C681 C679 1.427 . S
C681 C682 1.328 . S
C681 H696 0.929 . S
C682 C676 1.448 . S
C682 C681 1.328 . S
C682 H697 0.930 . S
Tb683 N674 2.617 . S
Tb683 N684 2.572 . S
Tb683 O718 2.349 . S
Tb683 O721 2.393 1_455 S
Tb683 O722 2.465 . S
Tb683 O723 2.387 . S
Tb683 O725 2.428 . S
Tb683 O726 2.308 . S
Tb683 C747 2.802 . S
N684 C680 1.361 . S
N684 Tb683 2.572 . S
N684 C686 1.340 . S
C685 C679 1.416 . S
C685 C687 1.332 . S
C685 H693 0.931 . S
C686 N684 1.340 . S
C686 C687 1.407 . S
C686 H692 0.930 . S
C687 C685 1.332 . S
C687 C686 1.407 . S
C687 H689 0.929 . S
H688 C677 0.930 . S
H689 C687 0.929 . S
H690 C705 0.930 . S
H691 C712 0.929 . S
H692 C686 0.930 . S
H693 C685 0.931 . S
H694 C708 0.930 1_655 S
H695 C675 0.930 . S
H696 C681 0.929 . S
H697 C682 0.930 . S
H698 C703 0.930 1_545 S
H699 C678 0.930 . S
H700 C711 0.931 . S
N701 Tb672 2.617 1_565 S
N701 C702 1.379 . S
N701 C705 1.334 1_565 S
C702 N701 1.379 . S
C702 C704 1.416 . S
C702 C710 1.424 . S
C703 H698 0.930 1_565 S
C703 C705 1.390 1_565 S
C703 C706 1.339 . S
C704 C702 1.416 . S
C704 C706 1.416 . S
C704 C737 1.448 . S
C705 H690 0.930 . S
C705 N701 1.334 1_545 S
C705 C703 1.390 1_545 S
C706 C703 1.339 . S
C706 C704 1.416 . S
C706 H713 0.930 . S
N707 Tb672 2.572 1_565 S
N707 C708 1.340 . S
N707 C710 1.361 . S
C708 H694 0.930 1_455 S
C708 N707 1.340 . S
C708 C712 1.407 1_455 S
C709 C710 1.413 . S
C709 C711 1.416 1_455 S
C709 C738 1.427 . S
C710 C702 1.424 . S
C710 N707 1.361 . S
C710 C709 1.413 . S
C711 H700 0.931 . S
C711 C709 1.416 1_655 S
C711 C712 1.332 . S
C712 H691 0.929 . S
C712 C708 1.407 1_655 S
C712 C711 1.332 . S
H713 C706 0.930 . S
H714 C737 0.930 . S
H715 C738 0.929 . S
O716 Tb672 2.465 1_565 S
O716 C736 1.264 . S
O717 Tb672 2.387 . S
O717 C728 1.264 . S
O718 Tb683 2.349 . S
O718 C728 1.243 . S
O719 Tb672 2.428 1_565 S
O719 C736 1.256 . S
O720 Tb672 2.308 . S
O720 C735 1.266 1_455 S
O721 Tb683 2.393 1_655 S
O721 C735 1.248 . S
O722 Tb683 2.465 . S
O722 C747 1.264 . S
O723 Tb683 2.387 . S
O723 C739 1.264 . S
O724 Tb672 2.349 . S
O724 C739 1.243 . S
O725 Tb683 2.428 . S
O725 C747 1.256 . S
O726 Tb683 2.308 . S
O726 C746 1.266 . S
O727 Tb672 2.393 . S
O727 C746 1.248 . S
C728 O717 1.264 . S
C728 O718 1.243 . S
C729 C732 1.399 . S
C729 C734 1.383 . S
C729 C736 1.496 . S
C730 C731 1.399 . S
C730 C734 1.389 . S
C731 C730 1.399 . S
C731 C733 1.380 . S
C731 H748 0.929 . S
C732 C729 1.399 . S
C732 C733 1.392 . S
C732 H749 0.929 . S
C733 C731 1.380 . S
C733 C732 1.392 . S
C733 H750 0.929 . S
C734 C729 1.383 . S
C734 C730 1.389 . S
C734 H751 0.931 . S
C735 O720 1.266 1_655 S
C735 O721 1.248 . S
C736 Tb672 2.802 1_565 S
C736 O716 1.264 . S
C736 O719 1.256 . S
C736 C729 1.496 . S
C737 C704 1.448 . S
C737 H714 0.930 . S
C737 C738 1.328 . S
C738 C709 1.427 . S
C738 H715 0.929 . S
C738 C737 1.328 . S
C739 O723 1.264 . S
C739 O724 1.243 . S
C740 C743 1.399 1_455 S
C740 C744 1.383 . S
C740 C747 1.496 . S
C741 C742 1.399 . S
C741 C744 1.389 . S
C742 C741 1.399 . S
C742 C745 1.380 1_455 S
C742 H752 0.929 . S
C743 C740 1.399 1_655 S
C743 C745 1.392 . S
C743 H753 0.929 . S
C744 C740 1.383 . S
C744 C741 1.389 . S
C744 H754 0.931 . S
C745 C742 1.380 1_655 S
C745 C743 1.392 . S
C745 H755 0.929 . S
C746 O726 1.266 . S
C746 O727 1.248 . S
C747 Tb683 2.802 . S
C747 O722 1.264 . S
C747 O725 1.256 . S
C747 C740 1.496 . S
H748 C731 0.929 . S
H749 C732 0.929 . S
H750 C733 0.929 . S
H751 C734 0.931 . S
H752 C742 0.929 . S
H753 C743 0.929 . S
H754 C744 0.931 . S
H755 C745 0.929 . S
Tb756 N785 2.617 . S
Tb756 N791 2.572 . S
Tb756 O800 2.465 . S
Tb756 O801 2.387 . S
Tb756 O803 2.428 . S
Tb756 O804 2.308 . S
Tb756 O808 2.349 . S
Tb756 O811 2.393 . S
Tb756 C820 2.802 . S
C757 N758 1.379 . S
C757 C760 1.416 . S
C757 C764 1.424 . S
N758 C757 1.379 . S
N758 C761 1.334 . S
N758 Tb767 2.617 . S
C759 C761 1.390 . S
C759 C762 1.339 . S
C759 H779 0.930 . S
C760 C757 1.416 . S
C760 C762 1.416 . S
C760 C766 1.448 . S
C761 N758 1.334 . S
C761 C759 1.390 . S
C761 H772 0.930 . S
C762 C759 1.339 . S
C762 C760 1.416 . S
C762 H783 0.930 . S
C763 C764 1.413 . S
C763 C765 1.427 . S
C763 C769 1.416 . S
C764 C757 1.424 . S
C764 C763 1.413 . S
C764 N768 1.361 . S
C765 C763 1.427 . S
C765 C766 1.328 . S
C765 H780 0.929 . S
C766 C760 1.448 . S
C766 C765 1.328 . S
C766 H781 0.930 . S
Tb767 N758 2.617 . S
Tb767 N768 2.572 . S
Tb767 O802 2.349 . S
Tb767 O805 2.393 . S
Tb767 O806 2.465 . S
Tb767 O807 2.387 . S
Tb767 O809 2.428 . S
Tb767 O810 2.308 . S
Tb767 C831 2.802 . S
N768 C764 1.361 . S
N768 Tb767 2.572 . S
N768 C770 1.340 . S
C769 C763 1.416 . S
C769 C771 1.332 . S
C769 H777 0.931 . S
C770 N768 1.340 . S
C770 C771 1.407 . S
C770 H776 0.930 . S
C771 C769 1.332 . S
C771 C770 1.407 . S
C771 H773 0.929 . S
H772 C761 0.930 . S
H773 C771 0.929 . S
H774 C789 0.930 . S
H775 C796 0.929 . S
H776 C770 0.930 . S
H777 C769 0.931 . S
H778 C792 0.930 . S
H779 C759 0.930 . S
H780 C765 0.929 . S
H781 C766 0.930 . S
H782 C787 0.930 . S
H783 C762 0.930 . S
H784 C795 0.931 . S
N785 Tb756 2.617 . S
N785 C786 1.379 . S
N785 C789 1.334 . S
C786 N785 1.379 . S
C786 C788 1.416 . S
C786 C794 1.424 . S
C787 H782 0.930 . S
C787 C789 1.390 . S
C787 C790 1.339 . S
C788 C786 1.416 . S
C788 C790 1.416 . S
C788 C821 1.448 . S
C789 H774 0.930 . S
C789 N785 1.334 . S
C789 C787 1.390 . S
C790 C787 1.339 . S
C790 C788 1.416 . S
C790 H797 0.930 . S
N791 Tb756 2.572 . S
N791 C792 1.340 . S
N791 C794 1.361 . S
C792 H778 0.930 . S
C792 N791 1.340 . S
C792 C796 1.407 . S
C793 C794 1.413 . S
C793 C795 1.416 . S
C793 C822 1.427 . S
C794 C786 1.424 . S
C794 N791 1.361 . S
C794 C793 1.413 . S
C795 H784 0.931 . S
C795 C793 1.416 . S
C795 C796 1.332 . S
C796 H775 0.929 . S
C796 C792 1.407 . S
C796 C795 1.332 . S
H797 C790 0.930 . S
H798 C821 0.930 . S
H799 C822 0.929 . S
O800 Tb756 2.465 . S
O800 C820 1.264 . S
O801 Tb756 2.387 . S
O801 C812 1.264 . S
O802 Tb767 2.349 . S
O802 C812 1.243 . S
O803 Tb756 2.428 . S
O803 C820 1.256 . S
O804 Tb756 2.308 . S
O804 C819 1.266 . S
O805 Tb767 2.393 . S
O805 C819 1.248 . S
O806 Tb767 2.465 . S
O806 C831 1.264 . S
O807 Tb767 2.387 . S
O807 C823 1.264 . S
O808 Tb756 2.349 . S
O808 C823 1.243 . S
O809 Tb767 2.428 . S
O809 C831 1.256 . S
O810 Tb767 2.308 . S
O810 C830 1.266 . S
O811 Tb756 2.393 . S
O811 C830 1.248 . S
C812 O801 1.264 . S
C812 O802 1.243 . S
C813 C816 1.399 . S
C813 C818 1.383 . S
C813 C820 1.496 . S
C814 C815 1.399 . S
C814 C818 1.389 . S
C815 C814 1.399 . S
C815 C817 1.380 . S
C815 H832 0.929 . S
C816 C813 1.399 . S
C816 C817 1.392 . S
C816 H833 0.929 . S
C817 C815 1.380 . S
C817 C816 1.392 . S
C817 H834 0.929 . S
C818 C813 1.383 . S
C818 C814 1.389 . S
C818 H835 0.931 . S
C819 O804 1.266 . S
C819 O805 1.248 . S
C820 Tb756 2.802 . S
C820 O800 1.264 . S
C820 O803 1.256 . S
C820 C813 1.496 . S
C821 C788 1.448 . S
C821 H798 0.930 . S
C821 C822 1.328 . S
C822 C793 1.427 . S
C822 H799 0.929 . S
C822 C821 1.328 . S
C823 O807 1.264 . S
C823 O808 1.243 . S
C824 C827 1.399 . S
C824 C828 1.383 . S
C824 C831 1.496 . S
C825 C826 1.399 . S
C825 C828 1.389 . S
C826 C825 1.399 . S
C826 C829 1.380 . S
C826 H836 0.929 . S
C827 C824 1.399 . S
C827 C829 1.392 . S
C827 H837 0.929 . S
C828 C824 1.383 . S
C828 C825 1.389 . S
C828 H838 0.931 . S
C829 C826 1.380 . S
C829 C827 1.392 . S
C829 H839 0.929 . S
C830 O810 1.266 . S
C830 O811 1.248 . S
C831 Tb767 2.802 . S
C831 O806 1.264 . S
C831 O809 1.256 . S
C831 C824 1.496 . S
H832 C815 0.929 . S
H833 C816 0.929 . S
H834 C817 0.929 . S
H835 C818 0.931 . S
H836 C826 0.929 . S
H837 C827 0.929 . S
H838 C828 0.931 . S
H839 C829 0.929 . S
Tb840 N869 2.617 1_554 S
Tb840 N875 2.572 1_554 S
Tb840 O884 2.465 1_554 S
Tb840 O885 2.387 . S
Tb840 O887 2.428 1_554 S
Tb840 O888 2.308 . S
Tb840 O892 2.349 . S
Tb840 O895 2.393 . S
Tb840 C904 2.802 1_554 S
C841 N842 1.379 1_545 S
C841 C844 1.416 1_545 S
C841 C848 1.424 . S
N842 C841 1.379 1_565 S
N842 C845 1.334 . S
N842 Tb851 2.617 1_565 S
C843 C845 1.390 . S
C843 C846 1.339 . S
C843 H863 0.930 . S
C844 C841 1.416 1_565 S
C844 C846 1.416 . S
C844 C850 1.448 1_565 S
C845 N842 1.334 . S
C845 C843 1.390 . S
C845 H856 0.930 . S
C846 C843 1.339 . S
C846 C844 1.416 . S
C846 H867 0.930 . S
C847 C848 1.413 . S
C847 C849 1.427 . S
C847 C853 1.416 . S
C848 C841 1.424 . S
C848 C847 1.413 . S
C848 N852 1.361 . S
C849 C847 1.427 . S
C849 C850 1.328 . S
C849 H864 0.929 . S
C850 C844 1.448 1_545 S
C850 C849 1.328 . S
C850 H865 0.930 1_545 S
Tb851 N842 2.617 1_545 S
Tb851 N852 2.572 . S
Tb851 O886 2.349 . S
Tb851 O889 2.393 1_545 S
Tb851 O890 2.465 . S
Tb851 O891 2.387 . S
Tb851 O893 2.428 1_545 S
Tb851 O894 2.308 . S
Tb851 C915 2.802 . S
N852 C848 1.361 . S
N852 Tb851 2.572 . S
N852 C854 1.340 . S
C853 C847 1.416 . S
C853 C855 1.332 . S
C853 H861 0.931 . S
C854 N852 1.340 . S
C854 C855 1.407 . S
C854 H860 0.930 . S
C855 C853 1.332 . S
C855 C854 1.407 . S
C855 H857 0.929 . S
H856 C845 0.930 . S
H857 C855 0.929 . S
H858 C873 0.930 . S
H859 C880 0.960 . S
H860 C854 0.930 . S
H861 C853 0.931 . S
H862 C876 0.930 . S
H863 C843 0.930 . S
H864 C849 0.929 . S
H865 C850 0.930 1_565 S
H866 C871 0.930 . S
H867 C846 0.930 . S
H868 C879 0.931 . S
N869 Tb840 2.617 1_556 S
N869 C870 1.379 . S
N869 C873 1.334 1_556 S
C870 N869 1.379 . S
C870 C872 1.416 . S
C870 C878 1.424 . S
C871 H866 0.930 . S
C871 C873 1.390 . S
C871 C874 1.339 1_554 S
C872 C870 1.416 . S
C872 C874 1.416 . S
C872 C905 1.448 . S
C873 H858 0.930 . S
C873 N869 1.334 1_554 S
C873 C871 1.390 . S
C874 C871 1.339 1_556 S
C874 C872 1.416 . S
C874 H881 0.930 . S
N875 Tb840 2.572 1_556 S
N875 C876 1.340 . S
N875 C878 1.361 . S
C876 H862 0.930 . S
C876 N875 1.340 . S
C876 C880 1.401 1_545 S
C877 C878 1.413 . S
C877 C879 1.416 . S
C877 C906 1.427 . S
C878 C870 1.424 . S
C878 N875 1.361 . S
C878 C877 1.413 . S
C879 H868 0.931 . S
C879 C877 1.416 . S
C879 C880 1.308 1_545 S
C880 H859 0.960 . S
C880 C876 1.401 1_565 S
C880 C879 1.308 1_565 S
H881 C874 0.930 . S
H882 C905 0.930 . S
H883 C906 0.929 . S
O884 Tb840 2.465 1_556 S
O884 C904 1.264 . S
O885 Tb840 2.387 . S
O885 C896 1.264 . S
O886 Tb851 2.349 . S
O886 C896 1.243 . S
O887 Tb840 2.428 1_556 S
O887 C904 1.256 . S
O888 Tb840 2.308 . S
O888 C903 1.266 1_545 S
O889 Tb851 2.393 1_565 S
O889 C903 1.248 . S
O890 Tb851 2.465 . S
O890 C915 1.264 . S
O891 Tb851 2.387 . S
O891 C907 1.264 . S
O892 Tb840 2.349 . S
O892 C907 1.243 . S
O893 Tb851 2.428 1_565 S
O893 C915 1.256 1_565 S
O894 Tb851 2.308 . S
O894 C914 1.266 . S
O895 Tb840 2.393 . S
O895 C914 1.248 . S
C896 O885 1.264 . S
C896 O886 1.243 . S
C897 C900 1.399 . S
C897 C902 1.383 . S
C897 C904 1.496 . S
C898 C899 1.399 . S
C898 C902 1.389 . S
C899 C898 1.399 . S
C899 C901 1.380 . S
C899 H916 0.929 . S
C900 C897 1.399 . S
C900 C901 1.392 . S
C900 H917 0.929 . S
C901 C899 1.380 . S
C901 C900 1.392 . S
C901 H918 0.929 . S
C902 C897 1.383 . S
C902 C898 1.389 . S
C902 H919 0.931 . S
C903 O888 1.266 1_565 S
C903 O889 1.248 . S
C904 Tb840 2.802 1_556 S
C904 O884 1.264 . S
C904 O887 1.256 . S
C904 C897 1.496 . S
C905 C872 1.448 . S
C905 H882 0.930 . S
C905 C906 1.328 . S
C906 C877 1.427 . S
C906 H883 0.929 . S
C906 C905 1.328 . S
C907 O891 1.264 . S
C907 O892 1.243 . S
C908 C911 1.399 . S
C908 C912 1.383 1_565 S
C908 C915 1.496 1_565 S
C909 C910 1.399 1_545 S
C909 C912 1.389 . S
C910 C909 1.399 1_565 S
C910 C913 1.380 . S
C910 H920 0.929 . S
C911 C908 1.399 . S
C911 C913 1.392 . S
C911 H921 0.929 . S
C912 C908 1.383 1_545 S
C912 C909 1.389 . S
C912 H922 0.931 . S
C913 C910 1.380 . S
C913 C911 1.392 . S
C913 H923 0.929 . S
C914 O894 1.266 . S
C914 O895 1.248 . S
C915 Tb851 2.802 . S
C915 O890 1.264 . S
C915 O893 1.256 1_545 S
C915 C908 1.496 1_545 S
H916 C899 0.929 . S
H917 C900 0.929 . S
H918 C901 0.929 . S
H919 C902 0.931 . S
H920 C910 0.929 . S
H921 C911 0.929 . S
H922 C912 0.931 . S
H923 C913 0.929 . S
Tb924 N953 2.617 . S
Tb924 N959 2.572 . S
Tb924 O968 2.465 . S
Tb924 O969 2.387 . S
Tb924 O971 2.428 . S
Tb924 O972 2.308 . S
Tb924 O976 2.349 . S
Tb924 O979 2.393 . S
Tb924 C988 2.802 . S
C925 N926 1.379 . S
C925 C928 1.416 . S
C925 C932 1.424 . S
N926 C925 1.379 . S
N926 C929 1.334 . S
N926 Tb935 2.617 . S
C927 C929 1.390 . S
C927 C930 1.339 . S
C927 H947 0.930 . S
C928 C925 1.416 . S
C928 C930 1.416 . S
C928 C934 1.448 . S
C929 N926 1.334 . S
C929 C927 1.390 . S
C929 H940 0.930 . S
C930 C927 1.339 . S
C930 C928 1.416 . S
C930 H951 0.930 . S
C931 C932 1.413 . S
C931 C933 1.427 . S
C931 C937 1.416 . S
C932 C925 1.424 . S
C932 C931 1.413 . S
C932 N936 1.361 . S
C933 C931 1.427 . S
C933 C934 1.328 . S
C933 H948 0.929 . S
C934 C928 1.448 . S
C934 C933 1.328 . S
C934 H949 0.930 . S
Tb935 N926 2.617 . S
Tb935 N936 2.572 . S
Tb935 O970 2.349 . S
Tb935 O973 2.393 . S
Tb935 O974 2.465 . S
Tb935 O975 2.387 . S
Tb935 O977 2.428 . S
Tb935 O978 2.308 . S
Tb935 C999 2.802 . S
N936 C932 1.361 . S
N936 Tb935 2.572 . S
N936 C938 1.340 . S
C937 C931 1.416 . S
C937 C939 1.332 . S
C937 H945 0.931 . S
C938 N936 1.340 . S
C938 C939 1.407 . S
C938 H944 0.930 . S
C939 C937 1.332 . S
C939 C938 1.407 . S
C939 H941 0.929 . S
H940 C929 0.930 . S
H941 C939 0.929 . S
H942 C957 0.930 . S
H943 C964 0.929 . S
H944 C938 0.930 . S
H945 C937 0.931 . S
H946 C960 0.930 . S
H947 C927 0.930 . S
H948 C933 0.929 . S
H949 C934 0.930 . S
H950 C955 0.930 . S
H951 C930 0.930 . S
H952 C963 0.931 . S
N953 Tb924 2.617 . S
N953 C954 1.379 . S
N953 C957 1.334 . S
C954 N953 1.379 . S
C954 C956 1.416 . S
C954 C962 1.424 . S
C955 H950 0.930 . S
C955 C957 1.390 . S
C955 C958 1.339 . S
C956 C954 1.416 . S
C956 C958 1.416 . S
C956 C989 1.448 . S
C957 H942 0.930 . S
C957 N953 1.334 . S
C957 C955 1.390 . S
C958 C955 1.339 . S
C958 C956 1.416 . S
C958 H965 0.930 . S
N959 Tb924 2.572 . S
N959 C960 1.340 . S
N959 C962 1.361 . S
C960 H946 0.930 . S
C960 N959 1.340 . S
C960 C964 1.407 . S
C961 C962 1.413 . S
C961 C963 1.416 . S
C961 C990 1.427 . S
C962 C954 1.424 . S
C962 N959 1.361 . S
C962 C961 1.413 . S
C963 H952 0.931 . S
C963 C961 1.416 . S
C963 C964 1.332 . S
C964 H943 0.929 . S
C964 C960 1.407 . S
C964 C963 1.332 . S
H965 C958 0.930 . S
H966 C989 0.930 . S
H967 C990 0.929 . S
O968 Tb924 2.465 . S
O968 C988 1.264 . S
O969 Tb924 2.387 . S
O969 C980 1.264 . S
O970 Tb935 2.349 . S
O970 C980 1.243 . S
O971 Tb924 2.428 . S
O971 C988 1.256 . S
O972 Tb924 2.308 . S
O972 C987 1.266 . S
O973 Tb935 2.393 . S
O973 C987 1.248 . S
O974 Tb935 2.465 . S
O974 C999 1.264 . S
O975 Tb935 2.387 . S
O975 C991 1.264 . S
O976 Tb924 2.349 . S
O976 C991 1.243 . S
O977 Tb935 2.428 . S
O977 C999 1.256 . S
O978 Tb935 2.308 . S
O978 C998 1.266 . S
O979 Tb924 2.393 . S
O979 C998 1.248 . S
C980 O969 1.264 . S
C980 O970 1.243 . S
C981 C984 1.399 . S
C981 C986 1.383 . S
C981 C988 1.496 . S
C982 C983 1.399 . S
C982 C986 1.389 . S
C983 C982 1.399 . S
C983 C985 1.380 . S
C983 H1000 0.929 . S
C984 C981 1.399 . S
C984 C985 1.392 . S
C984 H1001 0.929 . S
C985 C983 1.380 . S
C985 C984 1.392 . S
C985 H1002 0.929 . S
C986 C981 1.383 . S
C986 C982 1.389 . S
C986 H1003 0.931 . S
C987 O972 1.266 . S
C987 O973 1.248 . S
C988 Tb924 2.802 . S
C988 O968 1.264 . S
C988 O971 1.256 . S
C988 C981 1.496 . S
C989 C956 1.448 . S
C989 H966 0.930 . S
C989 C990 1.328 . S
C990 C961 1.427 . S
C990 H967 0.929 . S
C990 C989 1.328 . S
C991 O975 1.264 . S
C991 O976 1.243 . S
C992 C995 1.399 . S
C992 C996 1.383 . S
C992 C999 1.496 . S
C993 C994 1.399 . S
C993 C996 1.389 . S
C994 C993 1.399 . S
C994 C997 1.380 . S
C994 H1004 0.929 . S
C995 C992 1.399 . S
C995 C997 1.392 . S
C995 H1005 0.929 . S
C996 C992 1.383 . S
C996 C993 1.389 . S
C996 H1006 0.931 . S
C997 C994 1.380 . S
C997 C995 1.392 . S
C997 H1007 0.929 . S
C998 O978 1.266 . S
C998 O979 1.248 . S
C999 Tb935 2.802 . S
C999 O974 1.264 . S
C999 O977 1.256 . S
C999 C992 1.496 . S
H1000 C983 0.929 . S
H1001 C984 0.929 . S
H1002 C985 0.929 . S
H1003 C986 0.931 . S
H1004 C994 0.929 . S
H1005 C995 0.929 . S
H1006 C996 0.931 . S
H1007 C997 0.929 . S
Tb1008 N1037 2.617 . S
Tb1008 N1043 2.572 . S
Tb1008 O1052 2.465 . S
Tb1008 O1053 2.387 . S
Tb1008 O1055 2.428 . S
Tb1008 O1056 2.308 . S
Tb1008 O1060 2.349 . S
Tb1008 O1063 2.393 . S
Tb1008 C1072 2.802 . S
C1009 N1010 1.379 . S
C1009 C1012 1.416 . S
C1009 C1016 1.424 . S
N1010 C1009 1.379 . S
N1010 C1013 1.334 . S
N1010 Tb1019 2.617 . S
C1011 C1013 1.390 . S
C1011 C1014 1.339 . S
C1011 H1031 0.930 . S
C1012 C1009 1.416 . S
C1012 C1014 1.416 . S
C1012 C1018 1.448 . S
C1013 N1010 1.334 . S
C1013 C1011 1.390 . S
C1013 H1024 0.930 . S
C1014 C1011 1.339 . S
C1014 C1012 1.416 . S
C1014 H1035 0.930 . S
C1015 C1016 1.413 . S
C1015 C1017 1.427 . S
C1015 C1021 1.416 . S
C1016 C1009 1.424 . S
C1016 C1015 1.413 . S
C1016 N1020 1.361 . S
C1017 C1015 1.427 . S
C1017 C1018 1.328 . S
C1017 H1032 0.929 . S
C1018 C1012 1.448 . S
C1018 C1017 1.328 . S
C1018 H1033 0.930 . S
Tb1019 N1010 2.617 . S
Tb1019 N1020 2.572 . S
Tb1019 O1054 2.349 . S
Tb1019 O1057 2.393 . S
Tb1019 O1058 2.465 . S
Tb1019 O1059 2.387 . S
Tb1019 O1061 2.428 . S
Tb1019 O1062 2.308 . S
Tb1019 C1083 2.802 . S
N1020 C1016 1.361 . S
N1020 Tb1019 2.572 . S
N1020 C1022 1.340 . S
C1021 C1015 1.416 . S
C1021 C1023 1.332 . S
C1021 H1029 0.931 . S
C1022 N1020 1.340 . S
C1022 C1023 1.407 . S
C1022 H1028 0.930 . S
C1023 C1021 1.332 . S
C1023 C1022 1.407 . S
C1023 H1025 0.929 . S
H1024 C1013 0.930 . S
H1025 C1023 0.929 . S
H1026 C1041 0.930 . S
H1027 C1048 0.929 . S
H1028 C1022 0.930 . S
H1029 C1021 0.931 . S
H1030 C1044 0.930 . S
H1031 C1011 0.930 . S
H1032 C1017 0.929 . S
H1033 C1018 0.930 . S
H1034 C1039 0.930 . S
H1035 C1014 0.930 . S
H1036 C1047 0.931 . S
N1037 Tb1008 2.617 . S
N1037 C1038 1.379 1_554 S
N1037 C1041 1.334 . S
C1038 N1037 1.379 1_556 S
C1038 C1040 1.416 . S
C1038 C1046 1.424 . S
C1039 H1034 0.930 . S
C1039 C1041 1.390 1_556 S
C1039 C1042 1.339 . S
C1040 C1038 1.416 . S
C1040 C1042 1.416 . S
C1040 C1073 1.448 . S
C1041 H1026 0.930 . S
C1041 N1037 1.334 . S
C1041 C1039 1.390 1_554 S
C1042 C1039 1.339 . S
C1042 C1040 1.416 . S
C1042 H1049 0.930 . S
N1043 Tb1008 2.572 . S
N1043 C1044 1.340 . S
N1043 C1046 1.361 1_554 S
C1044 H1030 0.930 . S
C1044 N1043 1.340 . S
C1044 C1048 1.407 1_554 S
C1045 C1046 1.413 . S
C1045 C1047 1.416 . S
C1045 C1074 1.427 . S
C1046 C1038 1.424 . S
C1046 N1043 1.361 1_556 S
C1046 C1045 1.413 . S
C1047 H1036 0.931 . S
C1047 C1045 1.416 . S
C1047 C1048 1.332 . S
C1048 H1027 0.929 . S
C1048 C1044 1.407 1_556 S
C1048 C1047 1.332 . S
H1049 C1042 0.930 . S
H1050 C1073 0.930 . S
H1051 C1074 0.929 . S
O1052 Tb1008 2.465 . S
O1052 C1072 1.264 . S
O1053 Tb1008 2.387 . S
O1053 C1064 1.264 1_554 S
O1054 Tb1019 2.349 . S
O1054 C1064 1.243 1_554 S
O1055 Tb1008 2.428 . S
O1055 C1072 1.256 . S
O1056 Tb1008 2.308 . S
O1056 C1071 1.266 . S
O1057 Tb1019 2.393 . S
O1057 C1071 1.248 . S
O1058 Tb1019 2.465 . S
O1058 C1083 1.264 . S
O1059 Tb1019 2.387 . S
O1059 C1075 1.264 . S
O1060 Tb1008 2.349 . S
O1060 C1075 1.243 . S
O1061 Tb1019 2.428 . S
O1061 C1083 1.256 . S
O1062 Tb1019 2.308 . S
O1062 C1082 1.266 . S
O1063 Tb1008 2.393 . S
O1063 C1082 1.248 . S
C1064 O1053 1.264 1_556 S
C1064 O1054 1.243 1_556 S
C1065 C1068 1.399 . S
C1065 C1070 1.383 . S
C1065 C1072 1.496 . S
C1066 C1067 1.399 . S
C1066 C1070 1.389 . S
C1067 C1066 1.399 . S
C1067 C1069 1.380 . S
C1067 H1084 0.929 . S
C1068 C1065 1.399 . S
C1068 C1069 1.392 . S
C1068 H1085 0.929 . S
C1069 C1067 1.380 . S
C1069 C1068 1.392 . S
C1069 H1086 0.929 . S
C1070 C1065 1.383 . S
C1070 C1066 1.389 . S
C1070 H1087 0.931 . S
C1071 O1056 1.266 . S
C1071 O1057 1.248 . S
C1072 Tb1008 2.802 . S
C1072 O1052 1.264 . S
C1072 O1055 1.256 . S
C1072 C1065 1.496 . S
C1073 C1040 1.448 . S
C1073 H1050 0.930 . S
C1073 C1074 1.328 . S
C1074 C1045 1.427 . S
C1074 H1051 0.929 . S
C1074 C1073 1.328 . S
C1075 O1059 1.264 . S
C1075 O1060 1.243 . S
C1076 C1079 1.399 . S
C1076 C1080 1.383 . S
C1076 C1083 1.496 . S
C1077 C1078 1.399 . S
C1077 C1080 1.389 1_556 S
C1078 C1077 1.399 . S
C1078 C1081 1.380 . S
C1078 H1088 0.929 . S
C1079 C1076 1.399 . S
C1079 C1081 1.392 1_554 S
C1079 H1089 0.929 . S
C1080 C1076 1.383 . S
C1080 C1077 1.389 1_554 S
C1080 H1090 0.931 . S
C1081 C1078 1.380 . S
C1081 C1079 1.392 1_556 S
C1081 H1091 0.929 . S
C1082 O1062 1.266 . S
C1082 O1063 1.248 . S
C1083 Tb1019 2.802 . S
C1083 O1058 1.264 . S
C1083 O1061 1.256 . S
C1083 C1076 1.496 . S
H1084 C1067 0.929 . S
H1085 C1068 0.929 . S
H1086 C1069 0.929 . S
H1087 C1070 0.931 . S
H1088 C1078 0.929 . S
H1089 C1079 0.929 . S
H1090 C1080 0.931 . S
H1091 C1081 0.929 . S
Tb1092 N1121 2.617 . S
Tb1092 N1127 2.572 . S
Tb1092 O1136 2.465 . S
Tb1092 O1137 2.387 . S
Tb1092 O1139 2.428 . S
Tb1092 O1140 2.308 . S
Tb1092 O1144 2.349 . S
Tb1092 O1147 2.393 . S
Tb1092 C1156 2.802 . S
C1093 N1094 1.379 . S
C1093 C1096 1.416 . S
C1093 C1100 1.424 . S
N1094 C1093 1.379 . S
N1094 C1097 1.334 . S
N1094 Tb1103 2.617 . S
C1095 C1097 1.390 . S
C1095 C1098 1.339 . S
C1095 H1115 0.930 . S
C1096 C1093 1.416 . S
C1096 C1098 1.416 . S
C1096 C1102 1.448 . S
C1097 N1094 1.334 . S
C1097 C1095 1.390 . S
C1097 H1108 0.930 . S
C1098 C1095 1.339 . S
C1098 C1096 1.416 . S
C1098 H1119 0.930 . S
C1099 C1100 1.413 . S
C1099 C1101 1.427 . S
C1099 C1105 1.416 . S
C1100 C1093 1.424 . S
C1100 C1099 1.413 . S
C1100 N1104 1.361 . S
C1101 C1099 1.427 . S
C1101 C1102 1.328 . S
C1101 H1116 0.929 . S
C1102 C1096 1.448 . S
C1102 C1101 1.328 . S
C1102 H1117 0.930 . S
Tb1103 N1094 2.617 . S
Tb1103 N1104 2.572 . S
Tb1103 O1138 2.349 . S
Tb1103 O1141 2.393 . S
Tb1103 O1142 2.465 . S
Tb1103 O1143 2.387 . S
Tb1103 O1145 2.428 . S
Tb1103 O1146 2.308 . S
Tb1103 C1167 2.802 . S
N1104 C1100 1.361 . S
N1104 Tb1103 2.572 . S
N1104 C1106 1.340 . S
C1105 C1099 1.416 . S
C1105 C1107 1.332 . S
C1105 H1113 0.931 . S
C1106 N1104 1.340 . S
C1106 C1107 1.407 . S
C1106 H1112 0.930 . S
C1107 C1105 1.332 . S
C1107 C1106 1.407 . S
C1107 H1109 0.929 . S
H1108 C1097 0.930 . S
H1109 C1107 0.929 . S
H1110 C1125 0.930 . S
H1111 C1132 0.929 . S
H1112 C1106 0.930 . S
H1113 C1105 0.931 . S
H1114 C1128 0.930 . S
H1115 C1095 0.930 . S
H1116 C1101 0.929 . S
H1117 C1102 0.930 . S
H1118 C1123 0.930 . S
H1119 C1098 0.930 . S
H1120 C1131 0.931 . S
N1121 Tb1092 2.617 . S
N1121 C1122 1.379 . S
N1121 C1125 1.334 . S
C1122 N1121 1.379 . S
C1122 C1124 1.416 . S
C1122 C1130 1.424 . S
C1123 H1118 0.930 . S
C1123 C1125 1.390 . S
C1123 C1126 1.339 . S
C1124 C1122 1.416 . S
C1124 C1126 1.416 . S
C1124 C1157 1.448 . S
C1125 H1110 0.930 . S
C1125 N1121 1.334 . S
C1125 C1123 1.390 . S
C1126 C1123 1.339 . S
C1126 C1124 1.416 . S
C1126 H1133 0.930 . S
N1127 Tb1092 2.572 . S
N1127 C1128 1.340 . S
N1127 C1130 1.361 . S
C1128 H1114 0.930 . S
C1128 N1127 1.340 . S
C1128 C1132 1.407 . S
C1129 C1130 1.413 . S
C1129 C1131 1.416 . S
C1129 C1158 1.427 . S
C1130 C1122 1.424 . S
C1130 N1127 1.361 . S
C1130 C1129 1.413 . S
C1131 H1120 0.931 . S
C1131 C1129 1.416 . S
C1131 C1132 1.332 . S
C1132 H1111 0.929 . S
C1132 C1128 1.407 . S
C1132 C1131 1.332 . S
H1133 C1126 0.930 . S
H1134 C1157 0.930 . S
H1135 C1158 0.929 . S
O1136 Tb1092 2.465 . S
O1136 C1156 1.264 . S
O1137 Tb1092 2.387 . S
O1137 C1148 1.264 . S
O1138 Tb1103 2.349 . S
O1138 C1148 1.243 . S
O1139 Tb1092 2.428 . S
O1139 C1156 1.256 . S
O1140 Tb1092 2.308 . S
O1140 C1155 1.266 . S
O1141 Tb1103 2.393 . S
O1141 C1155 1.248 . S
O1142 Tb1103 2.465 . S
O1142 C1167 1.264 . S
O1143 Tb1103 2.387 . S
O1143 C1159 1.264 . S
O1144 Tb1092 2.349 . S
O1144 C1159 1.243 . S
O1145 Tb1103 2.428 . S
O1145 C1167 1.256 . S
O1146 Tb1103 2.308 . S
O1146 C1166 1.266 . S
O1147 Tb1092 2.393 . S
O1147 C1166 1.248 . S
C1148 O1137 1.264 . S
C1148 O1138 1.243 . S
C1149 C1152 1.399 . S
C1149 C1154 1.383 . S
C1149 C1156 1.496 . S
C1150 C1151 1.399 . S
C1150 C1154 1.389 . S
C1151 C1150 1.399 . S
C1151 C1153 1.380 . S
C1151 H1168 0.929 . S
C1152 C1149 1.399 . S
C1152 C1153 1.392 . S
C1152 H1169 0.929 . S
C1153 C1151 1.380 . S
C1153 C1152 1.392 . S
C1153 H1170 0.929 . S
C1154 C1149 1.383 . S
C1154 C1150 1.389 . S
C1154 H1171 0.931 . S
C1155 O1140 1.266 . S
C1155 O1141 1.248 . S
C1156 Tb1092 2.802 . S
C1156 O1136 1.264 . S
C1156 O1139 1.256 . S
C1156 C1149 1.496 . S
C1157 C1124 1.448 . S
C1157 H1134 0.930 . S
C1157 C1158 1.328 . S
C1158 C1129 1.427 . S
C1158 H1135 0.929 . S
C1158 C1157 1.328 . S
C1159 O1143 1.264 . S
C1159 O1144 1.243 . S
C1160 C1163 1.399 . S
C1160 C1164 1.383 . S
C1160 C1167 1.496 . S
C1161 C1162 1.399 . S
C1161 C1164 1.389 . S
C1162 C1161 1.399 . S
C1162 C1165 1.380 . S
C1162 H1172 0.929 . S
C1163 C1160 1.399 . S
C1163 C1165 1.392 . S
C1163 H1173 0.929 . S
C1164 C1160 1.383 . S
C1164 C1161 1.389 . S
C1164 H1174 0.931 . S
C1165 C1162 1.380 . S
C1165 C1163 1.392 . S
C1165 H1175 0.929 . S
C1166 O1146 1.266 . S
C1166 O1147 1.248 . S
C1167 Tb1103 2.802 . S
C1167 O1142 1.264 . S
C1167 O1145 1.256 . S
C1167 C1160 1.496 . S
H1168 C1151 0.929 . S
H1169 C1152 0.929 . S
H1170 C1153 0.929 . S
H1171 C1154 0.931 . S
H1172 C1162 0.929 . S
H1173 C1163 0.929 . S
H1174 C1164 0.931 . S
H1175 C1165 0.929 . S
Tb1176 N1205 2.617 1_455 S
Tb1176 N1211 2.572 1_455 S
Tb1176 O1220 2.465 . S
Tb1176 O1221 2.387 1_455 S
Tb1176 O1223 2.428 . S
Tb1176 O1224 2.308 . S
Tb1176 O1228 2.349 . S
Tb1176 O1231 2.393 . S
Tb1176 C1240 2.802 . S
C1177 N1178 1.379 . S
C1177 C1180 1.416 . S
C1177 C1184 1.424 . S
N1178 C1177 1.379 . S
N1178 C1181 1.334 . S
N1178 Tb1187 2.617 . S
C1179 C1181 1.390 . S
C1179 C1182 1.339 . S
C1179 H1199 0.930 . S
C1180 C1177 1.416 . S
C1180 C1182 1.416 . S
C1180 C1186 1.448 . S
C1181 N1178 1.334 . S
C1181 C1179 1.390 . S
C1181 H1192 0.930 . S
C1182 C1179 1.339 . S
C1182 C1180 1.416 . S
C1182 H1203 0.930 . S
C1183 C1184 1.413 . S
C1183 C1185 1.427 . S
C1183 C1189 1.416 . S
C1184 C1177 1.424 . S
C1184 C1183 1.413 . S
C1184 N1188 1.361 . S
C1185 C1183 1.427 . S
C1185 C1186 1.328 . S
C1185 H1200 0.929 . S
C1186 C1180 1.448 . S
C1186 C1185 1.328 . S
C1186 H1201 0.930 . S
Tb1187 N1178 2.617 . S
Tb1187 N1188 2.572 . S
Tb1187 O1222 2.349 1_455 S
Tb1187 O1225 2.393 . S
Tb1187 O1226 2.465 . S
Tb1187 O1227 2.387 . S
Tb1187 O1229 2.428 . S
Tb1187 O1230 2.308 . S
Tb1187 C1251 2.802 . S
N1188 C1184 1.361 . S
N1188 Tb1187 2.572 . S
N1188 C1190 1.340 . S
C1189 C1183 1.416 . S
C1189 C1191 1.332 . S
C1189 H1197 0.931 . S
C1190 N1188 1.340 . S
C1190 C1191 1.407 . S
C1190 H1196 0.930 . S
C1191 C1189 1.332 . S
C1191 C1190 1.407 . S
C1191 H1193 0.929 . S
H1192 C1181 0.930 . S
H1193 C1191 0.929 . S
H1194 C1209 0.930 1_455 S
H1195 C1216 0.929 . S
H1196 C1190 0.930 . S
H1197 C1189 0.931 . S
H1198 C1212 0.907 1_455 S
H1199 C1179 0.930 . S
H1200 C1185 0.929 . S
H1201 C1186 0.930 . S
H1202 C1207 0.930 . S
H1203 C1182 0.930 . S
H1204 C1215 0.931 . S
N1205 Tb1176 2.617 1_655 S
N1205 C1206 1.379 . S
N1205 C1209 1.334 . S
C1206 N1205 1.379 . S
C1206 C1208 1.416 . S
C1206 C1214 1.424 . S
C1207 H1202 0.930 . S
C1207 C1209 1.390 . S
C1207 C1210 1.339 . S
C1208 C1206 1.416 . S
C1208 C1210 1.416 . S
C1208 C1241 1.448 . S
C1209 H1194 0.930 1_655 S
C1209 N1205 1.334 . S
C1209 C1207 1.390 . S
C1210 C1207 1.339 . S
C1210 C1208 1.416 . S
C1210 H1217 0.930 . S
N1211 Tb1176 2.572 1_655 S
N1211 C1212 1.340 . S
N1211 C1214 1.361 . S
C1212 H1198 0.907 1_655 S
C1212 N1211 1.340 . S
C1212 C1216 1.407 . S
C1213 C1214 1.413 . S
C1213 C1215 1.416 . S
C1213 C1242 1.427 . S
C1214 C1206 1.424 . S
C1214 N1211 1.361 . S
C1214 C1213 1.413 . S
C1215 H1204 0.931 . S
C1215 C1213 1.416 . S
C1215 C1216 1.332 . S
C1216 H1195 0.929 . S
C1216 C1212 1.407 . S
C1216 C1215 1.332 . S
H1217 C1210 0.930 . S
H1218 C1241 0.930 . S
H1219 C1242 0.929 . S
O1220 Tb1176 2.465 . S
O1220 C1240 1.264 . S
O1221 Tb1176 2.387 1_655 S
O1221 C1232 1.264 . S
O1222 Tb1187 2.349 1_655 S
O1222 C1232 1.243 . S
O1223 Tb1176 2.428 . S
O1223 C1240 1.256 . S
O1224 Tb1176 2.308 . S
O1224 C1239 1.266 . S
O1225 Tb1187 2.393 . S
O1225 C1239 1.248 . S
O1226 Tb1187 2.465 . S
O1226 C1251 1.264 . S
O1227 Tb1187 2.387 . S
O1227 C1243 1.264 . S
O1228 Tb1176 2.349 . S
O1228 C1243 1.243 . S
O1229 Tb1187 2.428 . S
O1229 C1251 1.256 . S
O1230 Tb1187 2.308 . S
O1230 C1250 1.266 . S
O1231 Tb1176 2.393 . S
O1231 C1250 1.248 . S
C1232 O1221 1.264 . S
C1232 O1222 1.243 . S
C1233 C1236 1.399 . S
C1233 C1238 1.383 . S
C1233 C1240 1.496 . S
C1234 C1235 1.399 . S
C1234 C1238 1.389 . S
C1235 C1234 1.399 . S
C1235 C1237 1.380 . S
C1235 H1252 0.929 . S
C1236 C1233 1.399 . S
C1236 C1237 1.392 . S
C1236 H1253 0.929 . S
C1237 C1235 1.380 . S
C1237 C1236 1.392 . S
C1237 H1254 0.929 . S
C1238 C1233 1.383 . S
C1238 C1234 1.389 . S
C1238 H1255 0.931 . S
C1239 O1224 1.266 . S
C1239 O1225 1.248 . S
C1240 Tb1176 2.802 . S
C1240 O1220 1.264 . S
C1240 O1223 1.256 . S
C1240 C1233 1.496 . S
C1241 C1208 1.448 . S
C1241 H1218 0.930 . S
C1241 C1242 1.328 . S
C1242 C1213 1.427 . S
C1242 H1219 0.929 . S
C1242 C1241 1.328 . S
C1243 O1227 1.264 . S
C1243 O1228 1.243 . S
C1244 C1247 1.399 . S
C1244 C1248 1.383 . S
C1244 C1251 1.496 1_655 S
C1245 C1246 1.399 . S
C1245 C1248 1.389 . S
C1246 C1245 1.399 . S
C1246 C1249 1.380 . S
C1246 H1256 0.929 . S
C1247 C1244 1.399 . S
C1247 C1249 1.392 . S
C1247 H1257 0.929 . S
C1248 C1244 1.383 . S
C1248 C1245 1.389 . S
C1248 H1258 0.931 . S
C1249 C1246 1.380 . S
C1249 C1247 1.392 . S
C1249 H1259 0.929 . S
C1250 O1230 1.266 . S
C1250 O1231 1.248 . S
C1251 Tb1187 2.802 . S
C1251 O1226 1.264 . S
C1251 O1229 1.256 . S
C1251 C1244 1.496 1_455 S
H1252 C1235 0.929 . S
H1253 C1236 0.929 . S
H1254 C1237 0.929 . S
H1255 C1238 0.931 . S
H1256 C1246 0.929 . S
H1257 C1247 0.929 . S
H1258 C1248 0.931 . S
H1259 C1249 0.929 . S
Tb1260 N1289 2.617 . S
Tb1260 N1295 2.572 . S
Tb1260 O1304 2.465 . S
Tb1260 O1305 2.387 . S
Tb1260 O1307 2.428 . S
Tb1260 O1308 2.308 . S
Tb1260 O1312 2.349 . S
Tb1260 O1315 2.393 . S
Tb1260 C1324 2.802 . S
C1261 N1262 1.379 . S
C1261 C1264 1.416 . S
C1261 C1268 1.424 . S
N1262 C1261 1.379 . S
N1262 C1265 1.334 . S
N1262 Tb1271 2.617 . S
C1263 C1265 1.390 . S
C1263 C1266 1.339 . S
C1263 H1283 0.930 . S
C1264 C1261 1.416 . S
C1264 C1266 1.416 . S
C1264 C1270 1.448 . S
C1265 N1262 1.334 . S
C1265 C1263 1.390 . S
C1265 H1276 0.930 . S
C1266 C1263 1.339 . S
C1266 C1264 1.416 . S
C1266 H1287 0.930 . S
C1267 C1268 1.413 . S
C1267 C1269 1.427 . S
C1267 C1273 1.416 . S
C1268 C1261 1.424 . S
C1268 C1267 1.413 . S
C1268 N1272 1.361 . S
C1269 C1267 1.427 . S
C1269 C1270 1.328 . S
C1269 H1284 0.929 . S
C1270 C1264 1.448 . S
C1270 C1269 1.328 . S
C1270 H1285 0.930 . S
Tb1271 N1262 2.617 . S
Tb1271 N1272 2.572 . S
Tb1271 O1306 2.349 . S
Tb1271 O1309 2.393 . S
Tb1271 O1310 2.465 . S
Tb1271 O1311 2.387 . S
Tb1271 O1313 2.428 . S
Tb1271 O1314 2.308 . S
Tb1271 C1335 2.802 . S
N1272 C1268 1.361 . S
N1272 Tb1271 2.572 . S
N1272 C1274 1.340 . S
C1273 C1267 1.416 . S
C1273 C1275 1.332 . S
C1273 H1281 0.931 . S
C1274 N1272 1.340 . S
C1274 C1275 1.407 . S
C1274 H1280 0.930 . S
C1275 C1273 1.332 . S
C1275 C1274 1.407 . S
C1275 H1277 0.929 . S
H1276 C1265 0.930 . S
H1277 C1275 0.929 . S
H1278 C1293 0.930 . S
H1279 C1300 0.929 . S
H1280 C1274 0.930 . S
H1281 C1273 0.931 . S
H1282 C1296 0.930 . S
H1283 C1263 0.930 . S
H1284 C1269 0.929 . S
H1285 C1270 0.930 . S
H1286 C1291 0.930 . S
H1287 C1266 0.930 . S
H1288 C1299 0.931 . S
N1289 Tb1260 2.617 . S
N1289 C1290 1.379 . S
N1289 C1293 1.334 . S
C1290 N1289 1.379 . S
C1290 C1292 1.416 . S
C1290 C1298 1.424 . S
C1291 H1286 0.930 . S
C1291 C1293 1.390 . S
C1291 C1294 1.339 . S
C1292 C1290 1.416 . S
C1292 C1294 1.416 . S
C1292 C1325 1.448 . S
C1293 H1278 0.930 . S
C1293 N1289 1.334 . S
C1293 C1291 1.390 . S
C1294 C1291 1.339 . S
C1294 C1292 1.416 . S
C1294 H1301 0.930 . S
N1295 Tb1260 2.572 . S
N1295 C1296 1.340 . S
N1295 C1298 1.361 . S
C1296 H1282 0.930 . S
C1296 N1295 1.340 . S
C1296 C1300 1.407 . S
C1297 C1298 1.413 . S
C1297 C1299 1.416 . S
C1297 C1326 1.427 . S
C1298 C1290 1.424 . S
C1298 N1295 1.361 . S
C1298 C1297 1.413 . S
C1299 H1288 0.931 . S
C1299 C1297 1.416 . S
C1299 C1300 1.332 . S
C1300 H1279 0.929 . S
C1300 C1296 1.407 . S
C1300 C1299 1.332 . S
H1301 C1294 0.930 . S
H1302 C1325 0.930 . S
H1303 C1326 0.929 . S
O1304 Tb1260 2.465 . S
O1304 C1324 1.264 . S
O1305 Tb1260 2.387 . S
O1305 C1316 1.264 . S
O1306 Tb1271 2.349 . S
O1306 C1316 1.243 . S
O1307 Tb1260 2.428 . S
O1307 C1324 1.256 . S
O1308 Tb1260 2.308 . S
O1308 C1323 1.266 . S
O1309 Tb1271 2.393 . S
O1309 C1323 1.248 . S
O1310 Tb1271 2.465 . S
O1310 C1335 1.264 . S
O1311 Tb1271 2.387 . S
O1311 C1327 1.264 . S
O1312 Tb1260 2.349 . S
O1312 C1327 1.243 . S
O1313 Tb1271 2.428 . S
O1313 C1335 1.256 . S
O1314 Tb1271 2.308 . S
O1314 C1334 1.266 . S
O1315 Tb1260 2.393 . S
O1315 C1334 1.248 . S
C1316 O1305 1.264 . S
C1316 O1306 1.243 . S
C1317 C1320 1.399 . S
C1317 C1322 1.383 . S
C1317 C1324 1.496 . S
C1318 C1319 1.399 . S
C1318 C1322 1.389 . S
C1319 C1318 1.399 . S
C1319 C1321 1.380 . S
C1319 H1336 0.929 . S
C1320 C1317 1.399 . S
C1320 C1321 1.392 . S
C1320 H1337 0.929 . S
C1321 C1319 1.380 . S
C1321 C1320 1.392 . S
C1321 H1338 0.929 . S
C1322 C1317 1.383 . S
C1322 C1318 1.389 . S
C1322 H1339 0.931 . S
C1323 O1308 1.266 . S
C1323 O1309 1.248 . S
C1324 Tb1260 2.802 . S
C1324 O1304 1.264 . S
C1324 O1307 1.256 . S
C1324 C1317 1.496 . S
C1325 C1292 1.448 . S
C1325 H1302 0.930 . S
C1325 C1326 1.328 . S
C1326 C1297 1.427 . S
C1326 H1303 0.929 . S
C1326 C1325 1.328 . S
C1327 O1311 1.264 . S
C1327 O1312 1.243 . S
C1328 C1331 1.399 . S
C1328 C1332 1.383 . S
C1328 C1335 1.496 . S
C1329 C1330 1.399 . S
C1329 C1332 1.389 . S
C1330 C1329 1.399 . S
C1330 C1333 1.380 . S
C1330 H1340 0.929 . S
C1331 C1328 1.399 . S
C1331 C1333 1.392 . S
C1331 H1341 0.929 . S
C1332 C1328 1.383 . S
C1332 C1329 1.389 . S
C1332 H1342 0.931 . S
C1333 C1330 1.380 . S
C1333 C1331 1.392 . S
C1333 H1343 0.929 . S
C1334 O1314 1.266 . S
C1334 O1315 1.248 . S
C1335 Tb1271 2.802 . S
C1335 O1310 1.264 . S
C1335 O1313 1.256 . S
C1335 C1328 1.496 . S
H1336 C1319 0.929 . S
H1337 C1320 0.929 . S
H1338 C1321 0.929 . S
H1339 C1322 0.931 . S
H1340 C1330 0.929 . S
H1341 C1331 0.929 . S
H1342 C1332 0.931 . S
H1343 C1333 0.929 . S
Tb1344 N1373 2.617 . S
Tb1344 N1379 2.572 . S
Tb1344 O1388 2.465 . S
Tb1344 O1389 2.387 . S
Tb1344 O1391 2.428 . S
Tb1344 O1392 2.308 . S
Tb1344 O1396 2.349 . S
Tb1344 O1399 2.393 . S
Tb1344 C1408 2.802 . S
C1345 N1346 1.379 . S
C1345 C1348 1.416 . S
C1345 C1352 1.424 . S
N1346 C1345 1.379 . S
N1346 C1349 1.334 . S
N1346 Tb1355 2.617 . S
C1347 C1349 1.390 . S
C1347 C1350 1.339 . S
C1347 H1367 0.930 . S
C1348 C1345 1.416 . S
C1348 C1350 1.416 . S
C1348 C1354 1.448 . S
C1349 N1346 1.334 . S
C1349 C1347 1.390 . S
C1349 H1360 0.930 . S
C1350 C1347 1.339 . S
C1350 C1348 1.416 . S
C1350 H1371 0.930 . S
C1351 C1352 1.413 . S
C1351 C1353 1.427 . S
C1351 C1357 1.416 . S
C1352 C1345 1.424 . S
C1352 C1351 1.413 . S
C1352 N1356 1.361 . S
C1353 C1351 1.427 . S
C1353 C1354 1.328 . S
C1353 H1368 0.929 . S
C1354 C1348 1.448 . S
C1354 C1353 1.328 . S
C1354 H1369 0.930 . S
Tb1355 N1346 2.617 . S
Tb1355 N1356 2.572 . S
Tb1355 O1390 2.349 . S
Tb1355 O1393 2.393 . S
Tb1355 O1394 2.465 . S
Tb1355 O1395 2.387 . S
Tb1355 O1397 2.428 . S
Tb1355 O1398 2.308 . S
Tb1355 C1419 2.802 . S
N1356 C1352 1.361 . S
N1356 Tb1355 2.572 . S
N1356 C1358 1.340 . S
C1357 C1351 1.416 . S
C1357 C1359 1.332 . S
C1357 H1365 0.931 . S
C1358 N1356 1.340 . S
C1358 C1359 1.407 . S
C1358 H1364 0.930 . S
C1359 C1357 1.332 . S
C1359 C1358 1.407 . S
C1359 H1361 0.929 . S
H1360 C1349 0.930 . S
H1361 C1359 0.929 . S
H1362 C1377 0.930 . S
H1363 C1384 0.929 . S
H1364 C1358 0.930 . S
H1365 C1357 0.931 . S
H1366 C1380 0.930 . S
H1367 C1347 0.930 . S
H1368 C1353 0.929 . S
H1369 C1354 0.930 . S
H1370 C1375 0.930 . S
H1371 C1350 0.930 . S
H1372 C1383 0.931 . S
N1373 Tb1344 2.617 . S
N1373 C1374 1.379 . S
N1373 C1377 1.334 . S
C1374 N1373 1.379 . S
C1374 C1376 1.416 . S
C1374 C1382 1.424 . S
C1375 H1370 0.930 . S
C1375 C1377 1.390 . S
C1375 C1378 1.339 . S
C1376 C1374 1.416 . S
C1376 C1378 1.416 . S
C1376 C1409 1.448 . S
C1377 H1362 0.930 . S
C1377 N1373 1.334 . S
C1377 C1375 1.390 . S
C1378 C1375 1.339 . S
C1378 C1376 1.416 . S
C1378 H1385 0.930 . S
N1379 Tb1344 2.572 . S
N1379 C1380 1.340 . S
N1379 C1382 1.361 . S
C1380 H1366 0.930 . S
C1380 N1379 1.340 . S
C1380 C1384 1.407 . S
C1381 C1382 1.413 . S
C1381 C1383 1.416 . S
C1381 C1410 1.427 . S
C1382 C1374 1.424 . S
C1382 N1379 1.361 . S
C1382 C1381 1.413 . S
C1383 H1372 0.931 . S
C1383 C1381 1.416 . S
C1383 C1384 1.332 . S
C1384 H1363 0.929 . S
C1384 C1380 1.407 . S
C1384 C1383 1.332 . S
H1385 C1378 0.930 . S
H1386 C1409 0.930 . S
H1387 C1410 0.929 . S
O1388 Tb1344 2.465 . S
O1388 C1408 1.264 . S
O1389 Tb1344 2.387 . S
O1389 C1400 1.264 . S
O1390 Tb1355 2.349 . S
O1390 C1400 1.243 . S
O1391 Tb1344 2.428 . S
O1391 C1408 1.256 . S
O1392 Tb1344 2.308 . S
O1392 C1407 1.266 . S
O1393 Tb1355 2.393 . S
O1393 C1407 1.248 . S
O1394 Tb1355 2.465 . S
O1394 C1419 1.264 . S
O1395 Tb1355 2.387 . S
O1395 C1411 1.264 . S
O1396 Tb1344 2.349 . S
O1396 C1411 1.243 . S
O1397 Tb1355 2.428 . S
O1397 C1419 1.256 . S
O1398 Tb1355 2.308 . S
O1398 C1418 1.266 . S
O1399 Tb1344 2.393 . S
O1399 C1418 1.248 . S
C1400 O1389 1.264 . S
C1400 O1390 1.243 . S
C1401 C1404 1.399 . S
C1401 C1406 1.383 . S
C1401 C1408 1.496 . S
C1402 C1403 1.399 . S
C1402 C1406 1.389 . S
C1403 C1402 1.399 . S
C1403 C1405 1.380 . S
C1403 H1420 0.929 . S
C1404 C1401 1.399 . S
C1404 C1405 1.392 . S
C1404 H1421 0.929 . S
C1405 C1403 1.380 . S
C1405 C1404 1.392 . S
C1405 H1422 0.929 . S
C1406 C1401 1.383 . S
C1406 C1402 1.389 . S
C1406 H1423 0.931 . S
C1407 O1392 1.266 . S
C1407 O1393 1.248 . S
C1408 Tb1344 2.802 . S
C1408 O1388 1.264 . S
C1408 O1391 1.256 . S
C1408 C1401 1.496 . S
C1409 C1376 1.448 . S
C1409 H1386 0.930 . S
C1409 C1410 1.328 . S
C1410 C1381 1.427 . S
C1410 H1387 0.929 . S
C1410 C1409 1.328 . S
C1411 O1395 1.264 . S
C1411 O1396 1.243 . S
C1412 C1415 1.399 . S
C1412 C1416 1.383 . S
C1412 C1419 1.496 . S
C1413 C1414 1.399 . S
C1413 C1416 1.389 . S
C1414 C1413 1.399 . S
C1414 C1417 1.380 . S
C1414 H1424 0.929 . S
C1415 C1412 1.399 . S
C1415 C1417 1.392 . S
C1415 H1425 0.929 . S
C1416 C1412 1.383 . S
C1416 C1413 1.389 . S
C1416 H1426 0.931 . S
C1417 C1414 1.380 . S
C1417 C1415 1.392 . S
C1417 H1427 0.929 . S
C1418 O1398 1.266 . S
C1418 O1399 1.248 . S
C1419 Tb1355 2.802 . S
C1419 O1394 1.264 . S
C1419 O1397 1.256 . S
C1419 C1412 1.496 . S
H1420 C1403 0.929 . S
H1421 C1404 0.929 . S
H1422 C1405 0.929 . S
H1423 C1406 0.931 . S
H1424 C1414 0.929 . S
H1425 C1415 0.929 . S
H1426 C1416 0.931 . S
H1427 C1417 0.929 . S
Tb1428 N1457 2.617 . S
Tb1428 N1463 2.572 . S
Tb1428 O1472 2.465 . S
Tb1428 O1473 2.387 . S
Tb1428 O1475 2.428 . S
Tb1428 O1476 2.308 . S
Tb1428 O1480 2.349 . S
Tb1428 O1483 2.393 . S
Tb1428 C1492 2.802 . S
C1429 N1430 1.379 . S
C1429 C1432 1.416 . S
C1429 C1436 1.424 . S
N1430 C1429 1.379 . S
N1430 C1433 1.334 . S
N1430 Tb1439 2.617 . S
C1431 C1433 1.390 . S
C1431 C1434 1.339 . S
C1431 H1451 0.930 . S
C1432 C1429 1.416 . S
C1432 C1434 1.416 . S
C1432 C1438 1.448 . S
C1433 N1430 1.334 . S
C1433 C1431 1.390 . S
C1433 H1444 0.930 . S
C1434 C1431 1.339 . S
C1434 C1432 1.416 . S
C1434 H1455 0.930 . S
C1435 C1436 1.413 . S
C1435 C1437 1.427 . S
C1435 C1441 1.416 . S
C1436 C1429 1.424 . S
C1436 C1435 1.413 . S
C1436 N1440 1.361 . S
C1437 C1435 1.427 . S
C1437 C1438 1.328 . S
C1437 H1452 0.929 . S
C1438 C1432 1.448 . S
C1438 C1437 1.328 . S
C1438 H1453 0.930 . S
Tb1439 N1430 2.617 . S
Tb1439 N1440 2.572 . S
Tb1439 O1474 2.349 . S
Tb1439 O1477 2.393 . S
Tb1439 O1478 2.465 . S
Tb1439 O1479 2.387 . S
Tb1439 O1481 2.428 . S
Tb1439 O1482 2.308 . S
Tb1439 C1503 2.802 . S
N1440 C1436 1.361 . S
N1440 Tb1439 2.572 . S
N1440 C1442 1.340 . S
C1441 C1435 1.416 . S
C1441 C1443 1.332 . S
C1441 H1449 0.931 . S
C1442 N1440 1.340 . S
C1442 C1443 1.407 . S
C1442 H1448 0.930 . S
C1443 C1441 1.332 . S
C1443 C1442 1.407 . S
C1443 H1445 0.929 . S
H1444 C1433 0.930 . S
H1445 C1443 0.929 . S
H1446 C1461 0.930 . S
H1447 C1468 0.929 . S
H1448 C1442 0.930 . S
H1449 C1441 0.931 . S
H1450 C1464 0.930 . S
H1451 C1431 0.930 . S
H1452 C1437 0.929 . S
H1453 C1438 0.930 . S
H1454 C1459 0.930 . S
H1455 C1434 0.930 . S
H1456 C1467 0.931 . S
N1457 Tb1428 2.617 . S
N1457 C1458 1.379 . S
N1457 C1461 1.334 . S
C1458 N1457 1.379 . S
C1458 C1460 1.416 . S
C1458 C1466 1.424 . S
C1459 H1454 0.930 . S
C1459 C1461 1.390 . S
C1459 C1462 1.339 . S
C1460 C1458 1.416 . S
C1460 C1462 1.416 . S
C1460 C1493 1.448 . S
C1461 H1446 0.930 . S
C1461 N1457 1.334 . S
C1461 C1459 1.390 . S
C1462 C1459 1.339 . S
C1462 C1460 1.416 . S
C1462 H1469 0.930 . S
N1463 Tb1428 2.572 . S
N1463 C1464 1.340 . S
N1463 C1466 1.361 . S
C1464 H1450 0.930 . S
C1464 N1463 1.340 . S
C1464 C1468 1.407 . S
C1465 C1466 1.413 . S
C1465 C1467 1.416 . S
C1465 C1494 1.427 . S
C1466 C1458 1.424 . S
C1466 N1463 1.361 . S
C1466 C1465 1.413 . S
C1467 H1456 0.931 . S
C1467 C1465 1.416 . S
C1467 C1468 1.332 . S
C1468 H1447 0.929 . S
C1468 C1464 1.407 . S
C1468 C1467 1.332 . S
H1469 C1462 0.930 . S
H1470 C1493 0.930 . S
H1471 C1494 0.929 . S
O1472 Tb1428 2.465 . S
O1472 C1492 1.264 . S
O1473 Tb1428 2.387 . S
O1473 C1484 1.264 . S
O1474 Tb1439 2.349 . S
O1474 C1484 1.243 . S
O1475 Tb1428 2.428 . S
O1475 C1492 1.256 . S
O1476 Tb1428 2.308 . S
O1476 C1491 1.266 . S
O1477 Tb1439 2.393 . S
O1477 C1491 1.248 . S
O1478 Tb1439 2.465 . S
O1478 C1503 1.264 . S
O1479 Tb1439 2.387 . S
O1479 C1495 1.264 . S
O1480 Tb1428 2.349 . S
O1480 C1495 1.243 . S
O1481 Tb1439 2.428 . S
O1481 C1503 1.256 . S
O1482 Tb1439 2.308 . S
O1482 C1502 1.266 . S
O1483 Tb1428 2.393 . S
O1483 C1502 1.248 . S
C1484 O1473 1.264 . S
C1484 O1474 1.243 . S
C1485 C1488 1.399 . S
C1485 C1490 1.383 . S
C1485 C1492 1.496 . S
C1486 C1487 1.399 . S
C1486 C1490 1.389 . S
C1487 C1486 1.399 . S
C1487 C1489 1.380 . S
C1487 H1504 0.929 . S
C1488 C1485 1.399 . S
C1488 C1489 1.392 . S
C1488 H1505 0.929 . S
C1489 C1487 1.380 . S
C1489 C1488 1.392 . S
C1489 H1506 0.929 . S
C1490 C1485 1.383 . S
C1490 C1486 1.389 . S
C1490 H1507 0.931 . S
C1491 O1476 1.266 . S
C1491 O1477 1.248 . S
C1492 Tb1428 2.802 . S
C1492 O1472 1.264 . S
C1492 O1475 1.256 . S
C1492 C1485 1.496 . S
C1493 C1460 1.448 . S
C1493 H1470 0.930 . S
C1493 C1494 1.328 . S
C1494 C1465 1.427 . S
C1494 H1471 0.929 . S
C1494 C1493 1.328 . S
C1495 O1479 1.264 . S
C1495 O1480 1.243 . S
C1496 C1499 1.399 . S
C1496 C1500 1.383 . S
C1496 C1503 1.496 . S
C1497 C1498 1.399 . S
C1497 C1500 1.389 . S
C1498 C1497 1.399 . S
C1498 C1501 1.380 . S
C1498 H1508 0.929 . S
C1499 C1496 1.399 . S
C1499 C1501 1.392 . S
C1499 H1509 0.929 . S
C1500 C1496 1.383 . S
C1500 C1497 1.389 . S
C1500 H1510 0.931 . S
C1501 C1498 1.380 . S
C1501 C1499 1.392 . S
C1501 H1511 0.929 . S
C1502 O1482 1.266 . S
C1502 O1483 1.248 . S
C1503 Tb1439 2.802 . S
C1503 O1478 1.264 . S
C1503 O1481 1.256 . S
C1503 C1496 1.496 . S
H1504 C1487 0.929 . S
H1505 C1488 0.929 . S
H1506 C1489 0.929 . S
H1507 C1490 0.931 . S
H1508 C1498 0.929 . S
H1509 C1499 0.929 . S
H1510 C1500 0.931 . S
H1511 C1501 0.929 . S
Tb1512 N1541 2.617 . S
Tb1512 N1547 2.572 . S
Tb1512 O1556 2.465 . S
Tb1512 O1557 2.387 . S
Tb1512 O1559 2.428 . S
Tb1512 O1560 2.308 . S
Tb1512 O1564 2.349 . S
Tb1512 O1567 2.393 . S
Tb1512 C1576 2.802 . S
C1513 N1514 1.379 . S
C1513 C1516 1.416 . S
C1513 C1520 1.424 . S
N1514 C1513 1.379 . S
N1514 C1517 1.334 . S
N1514 Tb1523 2.617 . S
C1515 C1517 1.390 . S
C1515 C1518 1.339 . S
C1515 H1535 0.930 . S
C1516 C1513 1.416 . S
C1516 C1518 1.416 . S
C1516 C1522 1.448 . S
C1517 N1514 1.334 . S
C1517 C1515 1.390 . S
C1517 H1528 0.930 . S
C1518 C1515 1.339 . S
C1518 C1516 1.416 . S
C1518 H1539 0.930 . S
C1519 C1520 1.413 . S
C1519 C1521 1.427 . S
C1519 C1525 1.416 . S
C1520 C1513 1.424 . S
C1520 C1519 1.413 . S
C1520 N1524 1.361 . S
C1521 C1519 1.427 . S
C1521 C1522 1.328 . S
C1521 H1536 0.929 . S
C1522 C1516 1.448 . S
C1522 C1521 1.328 . S
C1522 H1537 0.930 . S
Tb1523 N1514 2.617 . S
Tb1523 N1524 2.572 . S
Tb1523 O1558 2.349 . S
Tb1523 O1561 2.393 . S
Tb1523 O1562 2.465 . S
Tb1523 O1563 2.387 . S
Tb1523 O1565 2.428 . S
Tb1523 O1566 2.308 . S
Tb1523 C1587 2.802 . S
N1524 C1520 1.361 . S
N1524 Tb1523 2.572 . S
N1524 C1526 1.340 . S
C1525 C1519 1.416 . S
C1525 C1527 1.332 . S
C1525 H1533 0.931 . S
C1526 N1524 1.340 . S
C1526 C1527 1.407 . S
C1526 H1532 0.930 . S
C1527 C1525 1.332 . S
C1527 C1526 1.407 . S
C1527 H1529 0.929 . S
H1528 C1517 0.930 . S
H1529 C1527 0.929 . S
H1530 C1545 0.930 . S
H1531 C1552 0.929 . S
H1532 C1526 0.930 . S
H1533 C1525 0.931 . S
H1534 C1548 0.930 . S
H1535 C1515 0.930 . S
H1536 C1521 0.929 . S
H1537 C1522 0.930 . S
H1538 C1543 0.930 . S
H1539 C1518 0.930 . S
H1540 C1551 0.931 . S
N1541 Tb1512 2.617 . S
N1541 C1542 1.379 . S
N1541 C1545 1.334 . S
C1542 N1541 1.379 . S
C1542 C1544 1.416 . S
C1542 C1550 1.424 . S
C1543 H1538 0.930 . S
C1543 C1545 1.390 . S
C1543 C1546 1.339 . S
C1544 C1542 1.416 . S
C1544 C1546 1.416 . S
C1544 C1577 1.448 . S
C1545 H1530 0.930 . S
C1545 N1541 1.334 . S
C1545 C1543 1.390 . S
C1546 C1543 1.339 . S
C1546 C1544 1.416 . S
C1546 H1553 0.930 . S
N1547 Tb1512 2.572 . S
N1547 C1548 1.340 . S
N1547 C1550 1.361 . S
C1548 H1534 0.930 . S
C1548 N1547 1.340 . S
C1548 C1552 1.407 . S
C1549 C1550 1.413 . S
C1549 C1551 1.416 . S
C1549 C1578 1.427 . S
C1550 C1542 1.424 . S
C1550 N1547 1.361 . S
C1550 C1549 1.413 . S
C1551 H1540 0.931 . S
C1551 C1549 1.416 . S
C1551 C1552 1.332 . S
C1552 H1531 0.929 . S
C1552 C1548 1.407 . S
C1552 C1551 1.332 . S
H1553 C1546 0.930 . S
H1554 C1577 0.930 . S
H1555 C1578 0.929 . S
O1556 Tb1512 2.465 . S
O1556 C1576 1.264 . S
O1557 Tb1512 2.387 . S
O1557 C1568 1.264 . S
O1558 Tb1523 2.349 . S
O1558 C1568 1.243 . S
O1559 Tb1512 2.428 . S
O1559 C1576 1.256 . S
O1560 Tb1512 2.308 . S
O1560 C1575 1.266 . S
O1561 Tb1523 2.393 . S
O1561 C1575 1.248 . S
O1562 Tb1523 2.465 . S
O1562 C1587 1.264 . S
O1563 Tb1523 2.387 . S
O1563 C1579 1.264 . S
O1564 Tb1512 2.349 . S
O1564 C1579 1.243 . S
O1565 Tb1523 2.428 . S
O1565 C1587 1.256 . S
O1566 Tb1523 2.308 . S
O1566 C1586 1.266 . S
O1567 Tb1512 2.393 . S
O1567 C1586 1.248 . S
C1568 O1557 1.264 . S
C1568 O1558 1.243 . S
C1569 C1572 1.399 . S
C1569 C1574 1.383 . S
C1569 C1576 1.496 . S
C1570 C1571 1.399 . S
C1570 C1574 1.389 . S
C1571 C1570 1.399 . S
C1571 C1573 1.380 . S
C1571 H1588 0.929 . S
C1572 C1569 1.399 . S
C1572 C1573 1.392 . S
C1572 H1589 0.929 . S
C1573 C1571 1.380 . S
C1573 C1572 1.392 . S
C1573 H1590 0.929 . S
C1574 C1569 1.383 . S
C1574 C1570 1.389 . S
C1574 H1591 0.931 . S
C1575 O1560 1.266 . S
C1575 O1561 1.248 . S
C1576 Tb1512 2.802 . S
C1576 O1556 1.264 . S
C1576 O1559 1.256 . S
C1576 C1569 1.496 . S
C1577 C1544 1.448 . S
C1577 H1554 0.930 . S
C1577 C1578 1.328 . S
C1578 C1549 1.427 . S
C1578 H1555 0.929 . S
C1578 C1577 1.328 . S
C1579 O1563 1.264 . S
C1579 O1564 1.243 . S
C1580 C1583 1.399 . S
C1580 C1584 1.383 . S
C1580 C1587 1.496 . S
C1581 C1582 1.399 . S
C1581 C1584 1.389 . S
C1582 C1581 1.399 . S
C1582 C1585 1.380 . S
C1582 H1592 0.929 . S
C1583 C1580 1.399 . S
C1583 C1585 1.392 . S
C1583 H1593 0.929 . S
C1584 C1580 1.383 . S
C1584 C1581 1.389 . S
C1584 H1594 0.931 . S
C1585 C1582 1.380 . S
C1585 C1583 1.392 . S
C1585 H1595 0.929 . S
C1586 O1566 1.266 . S
C1586 O1567 1.248 . S
C1587 Tb1523 2.802 . S
C1587 O1562 1.264 . S
C1587 O1565 1.256 . S
C1587 C1580 1.496 . S
H1588 C1571 0.929 . S
H1589 C1572 0.929 . S
H1590 C1573 0.929 . S
H1591 C1574 0.931 . S
H1592 C1582 0.929 . S
H1593 C1583 0.929 . S
H1594 C1584 0.931 . S
H1595 C1585 0.929 . S
Tb1596 N1625 2.617 1_455 S
Tb1596 N1631 2.572 1_455 S
Tb1596 O1640 2.465 1_455 S
Tb1596 O1641 2.387 . S
Tb1596 O1643 2.428 1_455 S
Tb1596 O1644 2.308 . S
Tb1596 O1648 2.349 . S
Tb1596 O1651 2.393 . S
Tb1596 C1660 2.802 1_455 S
C1597 N1598 1.379 . S
C1597 C1600 1.416 1_554 S
C1597 C1604 1.424 . S
N1598 C1597 1.379 . S
N1598 C1601 1.334 1_554 S
N1598 Tb1607 2.617 . S
C1599 C1601 1.390 . S
C1599 C1602 1.339 . S
C1599 H1619 0.930 . S
C1600 C1597 1.416 1_556 S
C1600 C1602 1.416 . S
C1600 C1606 1.448 1_556 S
C1601 N1598 1.334 1_556 S
C1601 C1599 1.390 . S
C1601 H1612 0.930 . S
C1602 C1599 1.339 . S
C1602 C1600 1.416 . S
C1602 H1623 0.930 . S
C1603 C1604 1.413 . S
C1603 C1605 1.427 . S
C1603 C1609 1.416 . S
C1604 C1597 1.424 . S
C1604 C1603 1.413 . S
C1604 N1608 1.361 . S
C1605 C1603 1.427 . S
C1605 C1606 1.328 . S
C1605 H1620 0.929 . S
C1606 C1600 1.448 1_554 S
C1606 C1605 1.328 . S
C1606 H1621 0.930 1_554 S
Tb1607 N1598 2.617 . S
Tb1607 N1608 2.572 . S
Tb1607 O1642 2.349 . S
Tb1607 O1645 2.393 . S
Tb1607 O1646 2.465 . S
Tb1607 O1647 2.387 . S
Tb1607 O1649 2.428 . S
Tb1607 O1650 2.308 . S
Tb1607 C1671 2.802 . S
N1608 C1604 1.361 . S
N1608 Tb1607 2.572 . S
N1608 C1610 1.340 . S
C1609 C1603 1.416 . S
C1609 C1611 1.332 . S
C1609 H1617 0.931 . S
C1610 N1608 1.340 . S
C1610 C1611 1.407 . S
C1610 H1616 0.930 . S
C1611 C1609 1.332 . S
C1611 C1610 1.407 . S
C1611 H1613 0.929 . S
H1612 C1601 0.930 . S
H1613 C1611 0.929 . S
H1614 C1629 0.930 . S
H1615 C1636 0.929 . S
H1616 C1610 0.930 . S
H1617 C1609 0.931 . S
H1618 C1632 0.930 . S
H1619 C1599 0.930 . S
H1620 C1605 0.929 . S
H1621 C1606 0.930 1_556 S
H1622 C1627 0.930 1_455 S
H1623 C1602 0.930 . S
H1624 C1635 0.931 . S
N1625 Tb1596 2.617 1_655 S
N1625 C1626 1.379 . S
N1625 C1629 1.334 1_655 S
C1626 N1625 1.379 . S
C1626 C1628 1.416 . S
C1626 C1634 1.424 . S
C1627 H1622 0.930 1_655 S
C1627 C1629 1.390 1_655 S
C1627 C1630 1.339 . S
C1628 C1626 1.416 . S
C1628 C1630 1.416 . S
C1628 C1661 1.448 . S
C1629 H1614 0.930 . S
C1629 N1625 1.334 1_455 S
C1629 C1627 1.390 1_455 S
C1630 C1627 1.339 . S
C1630 C1628 1.416 . S
C1630 H1637 0.930 . S
N1631 Tb1596 2.572 1_655 S
N1631 C1632 1.340 . S
N1631 C1634 1.361 . S
C1632 H1618 0.930 . S
C1632 N1631 1.340 . S
C1632 C1636 1.407 . S
C1633 C1634 1.413 . S
C1633 C1635 1.416 . S
C1633 C1662 1.427 . S
C1634 C1626 1.424 . S
C1634 N1631 1.361 . S
C1634 C1633 1.413 . S
C1635 H1624 0.931 . S
C1635 C1633 1.416 . S
C1635 C1636 1.332 . S
C1636 H1615 0.929 . S
C1636 C1632 1.407 . S
C1636 C1635 1.332 . S
H1637 C1630 0.930 . S
H1638 C1661 0.930 . S
H1639 C1662 0.929 . S
O1640 Tb1596 2.465 1_655 S
O1640 C1660 1.264 . S
O1641 Tb1596 2.387 . S
O1641 C1652 1.264 . S
O1642 Tb1607 2.349 . S
O1642 C1652 1.243 . S
O1643 Tb1596 2.428 1_655 S
O1643 C1660 1.256 . S
O1644 Tb1596 2.308 . S
O1644 C1659 1.266 . S
O1645 Tb1607 2.393 . S
O1645 C1659 1.248 . S
O1646 Tb1607 2.465 . S
O1646 C1671 1.264 . S
O1647 Tb1607 2.387 . S
O1647 C1663 1.264 . S
O1648 Tb1596 2.349 . S
O1648 C1663 1.243 . S
O1649 Tb1607 2.428 . S
O1649 C1671 1.256 . S
O1650 Tb1607 2.308 . S
O1650 C1670 1.266 . S
O1651 Tb1596 2.393 . S
O1651 C1670 1.248 . S
C1652 O1641 1.264 . S
C1652 O1642 1.243 . S
C1653 C1656 1.399 . S
C1653 C1658 1.383 . S
C1653 C1660 1.496 . S
C1654 C1655 1.399 . S
C1654 C1658 1.389 . S
C1655 C1654 1.399 . S
C1655 C1657 1.380 . S
C1655 H1672 0.929 . S
C1656 C1653 1.399 . S
C1656 C1657 1.392 . S
C1656 H1673 0.929 . S
C1657 C1655 1.380 . S
C1657 C1656 1.392 . S
C1657 H1674 0.929 . S
C1658 C1653 1.383 . S
C1658 C1654 1.389 . S
C1658 H1675 0.931 . S
C1659 O1644 1.266 . S
C1659 O1645 1.248 . S
C1660 Tb1596 2.802 1_655 S
C1660 O1640 1.264 . S
C1660 O1643 1.256 . S
C1660 C1653 1.496 . S
C1661 C1628 1.448 . S
C1661 H1638 0.930 . S
C1661 C1662 1.328 . S
C1662 C1633 1.427 . S
C1662 H1639 0.929 . S
C1662 C1661 1.328 . S
C1663 O1647 1.264 . S
C1663 O1648 1.243 . S
C1664 C1667 1.399 . S
C1664 C1668 1.383 . S
C1664 C1671 1.496 . S
C1665 C1666 1.399 . S
C1665 C1668 1.389 . S
C1666 C1665 1.399 . S
C1666 C1669 1.380 1_554 S
C1666 H1676 0.929 . S
C1667 C1664 1.399 . S
C1667 C1669 1.392 1_554 S
C1667 H1677 0.929 1_554 S
C1668 C1664 1.383 . S
C1668 C1665 1.389 . S
C1668 H1678 0.931 . S
C1669 C1666 1.380 1_556 S
C1669 C1667 1.392 1_556 S
C1669 H1679 0.929 . S
C1670 O1650 1.266 . S
C1670 O1651 1.248 . S
C1671 Tb1607 2.802 . S
C1671 O1646 1.264 . S
C1671 O1649 1.256 . S
C1671 C1664 1.496 . S
H1672 C1655 0.929 . S
H1673 C1656 0.929 . S
H1674 C1657 0.929 . S
H1675 C1658 0.931 . S
H1676 C1666 0.929 . S
H1677 C1667 0.929 1_556 S
H1678 C1668 0.931 . S
H1679 C1669 0.929 . S
C1680 C1681 1.369 1_556 S
C1680 C1682 1.419 1_556 S
C1680 H1684 0.930 . S
C1681 C1680 1.369 1_554 S
C1681 C1690 1.428 1_455 S
C1682 C1680 1.419 1_554 S
C1682 C1683 1.363 . S
C1682 H1685 0.929 1_554 S
C1683 C1682 1.363 . S
C1683 C1689 1.428 . S
H1684 C1680 0.930 . S
H1685 C1682 0.929 1_556 S
S1686 N1687 1.613 . S
S1686 N1688 1.610 1_655 S
N1687 S1686 1.613 . S
N1687 C1690 1.350 . S
N1688 S1686 1.610 1_455 S
N1688 C1689 1.351 . S
C1689 C1683 1.428 . S
C1689 N1688 1.351 . S
C1689 C1690 1.434 1_455 S
C1690 C1681 1.428 1_655 S
C1690 N1687 1.350 . S
C1690 C1689 1.434 1_655 S
C1691 C1692 1.369 . S
C1691 C1693 1.419 . S
C1691 H1695 0.930 . S
C1692 C1691 1.369 . S
C1692 C1701 1.429 . S
C1693 C1691 1.419 . S
C1693 C1694 1.363 . S
C1693 H1696 0.929 . S
C1694 C1693 1.363 . S
C1694 C1700 1.428 . S
H1695 C1691 0.930 . S
H1696 C1693 0.929 . S
S1697 N1698 1.613 . S
S1697 N1699 1.610 . S
N1698 S1697 1.613 . S
N1698 C1701 1.350 . S
N1699 S1697 1.610 . S
N1699 C1700 1.351 . S
C1700 C1694 1.428 . S
C1700 N1699 1.351 . S
C1700 C1701 1.434 . S
C1701 C1692 1.429 . S
C1701 N1698 1.350 . S
C1701 C1700 1.434 . S
C1702 C1703 1.369 . S
C1702 C1704 1.419 . S
C1702 H1706 0.930 . S
C1703 C1702 1.369 . S
C1703 C1712 1.429 . S
C1704 C1702 1.419 . S
C1704 C1705 1.363 . S
C1704 H1707 0.929 . S
C1705 C1704 1.363 . S
C1705 C1711 1.428 . S
H1706 C1702 0.930 . S
H1707 C1704 0.929 . S
S1708 N1709 1.613 . S
S1708 N1710 1.610 . S
N1709 S1708 1.613 . S
N1709 C1712 1.350 . S
N1710 S1708 1.610 . S
N1710 C1711 1.351 . S
C1711 C1705 1.428 . S
C1711 N1710 1.351 . S
C1711 C1712 1.434 . S
C1712 C1703 1.429 . S
C1712 N1709 1.350 . S
C1712 C1711 1.434 . S
C1713 C1714 1.369 . S
C1713 C1715 1.419 . S
C1713 H1717 0.930 . S
C1714 C1713 1.369 . S
C1714 C1723 1.429 . S
C1715 C1713 1.419 . S
C1715 C1716 1.363 . S
C1715 H1718 0.929 . S
C1716 C1715 1.363 . S
C1716 C1722 1.428 . S
H1717 C1713 0.930 . S
H1718 C1715 0.929 . S
S1719 N1720 1.613 . S
S1719 N1721 1.610 . S
N1720 S1719 1.613 . S
N1720 C1723 1.350 . S
N1721 S1719 1.610 . S
N1721 C1722 1.351 . S
C1722 C1716 1.428 . S
C1722 N1721 1.351 . S
C1722 C1723 1.434 . S
C1723 C1714 1.429 . S
C1723 N1720 1.350 . S
C1723 C1722 1.434 . S
C1724 C1725 1.369 . S
C1724 C1726 1.419 . S
C1724 H1728 0.930 . S
C1725 C1724 1.369 . S
C1725 C1734 1.429 . S
C1726 C1724 1.419 . S
C1726 C1727 1.363 . S
C1726 H1729 0.929 . S
C1727 C1726 1.363 . S
C1727 C1733 1.428 . S
H1728 C1724 0.930 . S
H1729 C1726 0.929 . S
S1730 N1731 1.613 . S
S1730 N1732 1.610 . S
N1731 S1730 1.613 . S
N1731 C1734 1.350 . S
N1732 S1730 1.610 . S
N1732 C1733 1.351 . S
C1733 C1727 1.428 . S
C1733 N1732 1.351 . S
C1733 C1734 1.434 . S
C1734 C1725 1.429 . S
C1734 N1731 1.350 . S
C1734 C1733 1.434 . S
C1735 C1736 1.369 . S
C1735 C1737 1.419 . S
C1735 H1739 0.930 . S
C1736 C1735 1.369 . S
C1736 C1745 1.429 . S
C1737 C1735 1.419 . S
C1737 C1738 1.363 . S
C1737 H1740 0.929 . S
C1738 C1737 1.363 . S
C1738 C1744 1.428 . S
H1739 C1735 0.930 . S
H1740 C1737 0.929 . S
S1741 N1742 1.613 . S
S1741 N1743 1.610 . S
N1742 S1741 1.613 . S
N1742 C1745 1.350 . S
N1743 S1741 1.610 . S
N1743 C1744 1.351 . S
C1744 C1738 1.428 . S
C1744 N1743 1.351 . S
C1744 C1745 1.434 . S
C1745 C1736 1.429 . S
C1745 N1742 1.350 . S
C1745 C1744 1.434 . S
C1746 C1747 1.369 . S
C1746 C1748 1.419 . S
C1746 H1750 0.930 . S
C1747 C1746 1.369 . S
C1747 C1756 1.429 . S
C1748 C1746 1.419 . S
C1748 C1749 1.363 . S
C1748 H1751 0.929 . S
C1749 C1748 1.363 . S
C1749 C1755 1.428 . S
H1750 C1746 0.930 . S
H1751 C1748 0.929 . S
S1752 N1753 1.613 . S
S1752 N1754 1.610 . S
N1753 S1752 1.613 . S
N1753 C1756 1.350 . S
N1754 S1752 1.610 . S
N1754 C1755 1.351 . S
C1755 C1749 1.428 . S
C1755 N1754 1.351 . S
C1755 C1756 1.434 . S
C1756 C1747 1.429 . S
C1756 N1753 1.350 . S
C1756 C1755 1.434 . S
C1757 C1758 1.369 . S
C1757 C1759 1.419 . S
C1757 H1761 0.930 . S
C1758 C1757 1.369 . S
C1758 C1767 1.429 . S
C1759 C1757 1.419 . S
C1759 C1760 1.363 . S
C1759 H1762 0.929 . S
C1760 C1759 1.363 . S
C1760 C1766 1.428 . S
H1761 C1757 0.930 . S
H1762 C1759 0.929 . S
S1763 N1764 1.613 . S
S1763 N1765 1.610 . S
N1764 S1763 1.613 . S
N1764 C1767 1.350 . S
N1765 S1763 1.610 . S
N1765 C1766 1.351 . S
C1766 C1760 1.428 . S
C1766 N1765 1.351 . S
C1766 C1767 1.434 . S
C1767 C1758 1.429 . S
C1767 N1764 1.350 . S
C1767 C1766 1.434 . S
C1768 C1769 1.369 . S
C1768 C1770 1.419 . S
C1768 H1772 0.930 1_545 S
C1769 C1768 1.369 . S
C1769 C1778 1.429 . S
C1770 C1768 1.419 . S
C1770 C1771 1.363 1_655 S
C1770 H1773 0.929 . S
C1771 C1770 1.363 1_455 S
C1771 C1777 1.428 . S
H1772 C1768 0.930 1_565 S
H1773 C1770 0.929 . S
S1774 N1775 1.613 1_455 S
S1774 N1776 1.610 . S
N1775 S1774 1.613 1_655 S
N1775 C1778 1.350 . S
N1776 S1774 1.610 . S
N1776 C1777 1.351 . S
C1777 C1771 1.428 . S
C1777 N1776 1.351 . S
C1777 C1778 1.434 1_455 S
C1778 C1769 1.429 . S
C1778 N1775 1.350 . S
C1778 C1777 1.434 1_655 S
C1779 C1780 1.369 . S
C1779 C1781 1.419 . S
C1779 H1783 0.930 . S
C1780 C1779 1.369 . S
C1780 C1789 1.429 . S
C1781 C1779 1.419 . S
C1781 C1782 1.363 . S
C1781 H1784 0.929 . S
C1782 C1781 1.363 . S
C1782 C1788 1.428 . S
H1783 C1779 0.930 . S
H1784 C1781 0.929 . S
S1785 N1786 1.613 . S
S1785 N1787 1.610 . S
N1786 S1785 1.613 . S
N1786 C1789 1.350 . S
N1787 S1785 1.610 . S
N1787 C1788 1.351 . S
C1788 C1782 1.428 . S
C1788 N1787 1.351 . S
C1788 C1789 1.434 . S
C1789 C1780 1.429 . S
C1789 N1786 1.350 . S
C1789 C1788 1.434 . S
C1790 C1791 1.369 . S
C1790 C1792 1.419 . S
C1790 H1794 0.930 . S
C1791 C1790 1.369 . S
C1791 C1800 1.429 . S
C1792 C1790 1.419 . S
C1792 C1793 1.363 . S
C1792 H1795 0.929 . S
C1793 C1792 1.363 . S
C1793 C1799 1.428 . S
H1794 C1790 0.930 . S
H1795 C1792 0.929 . S
S1796 N1797 1.613 . S
S1796 N1798 1.610 . S
N1797 S1796 1.613 . S
N1797 C1800 1.350 . S
N1798 S1796 1.610 . S
N1798 C1799 1.351 . S
C1799 C1793 1.428 . S
C1799 N1798 1.351 . S
C1799 C1800 1.434 . S
C1800 C1791 1.429 . S
C1800 N1797 1.350 . S
C1800 C1799 1.434 . S
C1801 C1802 1.369 . S
C1801 C1803 1.419 . S
C1801 H1805 0.930 . S
C1802 C1801 1.369 . S
C1802 C1811 1.429 . S
C1803 C1801 1.419 . S
C1803 C1804 1.363 . S
C1803 H1806 0.929 . S
C1804 C1803 1.363 . S
C1804 C1810 1.428 . S
H1805 C1801 0.930 . S
H1806 C1803 0.929 . S
S1807 N1808 1.613 . S
S1807 N1809 1.610 . S
N1808 S1807 1.613 . S
N1808 C1811 1.350 . S
N1809 S1807 1.610 . S
N1809 C1810 1.351 . S
C1810 C1804 1.428 . S
C1810 N1809 1.351 . S
C1810 C1811 1.434 . S
C1811 C1802 1.429 . S
C1811 N1808 1.350 . S
C1811 C1810 1.434 . S
C1812 C1813 1.369 . S
C1812 C1814 1.419 . S
C1812 H1816 0.930 . S
C1813 C1812 1.369 . S
C1813 C1822 1.429 . S
C1814 C1812 1.419 . S
C1814 C1815 1.363 1_655 S
C1814 H1817 0.929 . S
C1815 C1814 1.363 1_455 S
C1815 C1821 1.428 . S
H1816 C1812 0.930 . S
H1817 C1814 0.929 . S
S1818 N1819 1.613 . S
S1818 N1820 1.610 . S
N1819 S1818 1.613 . S
N1819 C1822 1.350 1_465 S
N1820 S1818 1.610 . S
N1820 C1821 1.351 1_565 S
C1821 C1815 1.428 . S
C1821 N1820 1.351 1_545 S
C1821 C1822 1.434 1_455 S
C1822 C1813 1.429 . S
C1822 N1819 1.350 1_645 S
C1822 C1821 1.434 1_655 S
C1823 C1824 1.369 . S
C1823 C1825 1.419 . S
C1823 H1827 0.930 . S
C1824 C1823 1.369 . S
C1824 C1833 1.429 . S
C1825 C1823 1.419 . S
C1825 C1826 1.363 . S
C1825 H1828 0.929 . S
C1826 C1825 1.363 . S
C1826 C1832 1.428 . S
H1827 C1823 0.930 . S
H1828 C1825 0.929 . S
S1829 N1830 1.613 . S
S1829 N1831 1.610 . S
N1830 S1829 1.613 . S
N1830 C1833 1.350 . S
N1831 S1829 1.610 . S
N1831 C1832 1.351 . S
C1832 C1826 1.428 . S
C1832 N1831 1.351 . S
C1832 C1833 1.434 . S
C1833 C1824 1.429 . S
C1833 N1830 1.350 . S
C1833 C1832 1.434 . S
C1834 C1835 1.369 . S
C1834 C1836 1.419 . S
C1834 H1838 0.930 . S
C1835 C1834 1.369 . S
C1835 C1844 1.429 . S
C1836 C1834 1.419 . S
C1836 C1837 1.363 . S
C1836 H1839 0.929 . S
C1837 C1836 1.363 . S
C1837 C1843 1.428 . S
H1838 C1834 0.930 . S
H1839 C1836 0.929 . S
S1840 N1841 1.613 . S
S1840 N1842 1.610 . S
N1841 S1840 1.613 . S
N1841 C1844 1.350 . S
N1842 S1840 1.610 . S
N1842 C1843 1.351 . S
C1843 C1837 1.428 . S
C1843 N1842 1.351 . S
C1843 C1844 1.434 . S
C1844 C1835 1.429 . S
C1844 N1841 1.350 . S
C1844 C1843 1.434 . S
C1845 C1846 1.369 . S
C1845 C1847 1.419 . S
C1845 H1849 0.930 . S
C1846 C1845 1.369 . S
C1846 C1855 1.429 . S
C1847 C1845 1.419 . S
C1847 C1848 1.363 . S
C1847 H1850 0.929 . S
C1848 C1847 1.363 . S
C1848 C1854 1.428 . S
H1849 C1845 0.930 . S
H1850 C1847 0.929 . S
S1851 N1852 1.613 . S
S1851 N1853 1.610 . S
N1852 S1851 1.613 . S
N1852 C1855 1.350 . S
N1853 S1851 1.610 . S
N1853 C1854 1.351 . S
C1854 C1848 1.428 . S
C1854 N1853 1.351 . S
C1854 C1855 1.434 . S
C1855 C1846 1.429 . S
C1855 N1852 1.350 . S
C1855 C1854 1.434 . S
C1856 C1857 1.369 . S
C1856 C1858 1.419 1_565 S
C1856 H1860 0.930 . S
C1857 C1856 1.369 . S
C1857 C1866 1.429 . S
C1858 C1856 1.419 1_545 S
C1858 C1859 1.363 . S
C1858 H1861 0.929 . S
C1859 C1858 1.363 . S
C1859 C1865 1.428 . S
H1860 C1856 0.930 . S
H1861 C1858 0.929 . S
S1862 N1863 1.613 1_545 S
S1862 N1864 1.610 1_556 S
N1863 S1862 1.613 1_565 S
N1863 C1866 1.350 1_556 S
N1864 S1862 1.610 1_554 S
N1864 C1865 1.351 . S
C1865 C1859 1.428 . S
C1865 N1864 1.351 . S
C1865 C1866 1.434 1_545 S
C1866 C1857 1.429 . S
C1866 N1863 1.350 1_554 S
C1866 C1865 1.434 1_565 S
C1867 C1868 1.369 . S
C1867 C1869 1.419 . S
C1867 H1871 0.930 . S
C1868 C1867 1.369 . S
C1868 C1877 1.429 . S
C1869 C1867 1.419 . S
C1869 C1870 1.363 . S
C1869 H1872 0.929 . S
C1870 C1869 1.363 . S
C1870 C1876 1.428 . S
H1871 C1867 0.930 . S
H1872 C1869 0.929 . S
S1873 N1874 1.613 . S
S1873 N1875 1.610 . S
N1874 S1873 1.613 . S
N1874 C1877 1.350 . S
N1875 S1873 1.610 . S
N1875 C1876 1.351 . S
C1876 C1870 1.428 . S
C1876 N1875 1.351 . S
C1876 C1877 1.434 . S
C1877 C1868 1.429 . S
C1877 N1874 1.350 . S
C1877 C1876 1.434 . S
C1878 C1879 1.369 . S
C1878 C1880 1.419 . S
C1878 H1882 0.930 . S
C1879 C1878 1.369 . S
C1879 C1888 1.429 . S
C1880 C1878 1.419 . S
C1880 C1881 1.363 . S
C1880 H1883 0.929 . S
C1881 C1880 1.363 . S
C1881 C1887 1.428 . S
H1882 C1878 0.930 . S
H1883 C1880 0.929 . S
S1884 N1885 1.613 . S
S1884 N1886 1.610 . S
N1885 S1884 1.613 . S
N1885 C1888 1.350 . S
N1886 S1884 1.610 . S
N1886 C1887 1.351 . S
C1887 C1881 1.428 . S
C1887 N1886 1.351 . S
C1887 C1888 1.434 . S
C1888 C1879 1.429 . S
C1888 N1885 1.350 . S
C1888 C1887 1.434 . S
C1889 C1890 1.369 . S
C1889 C1891 1.419 . S
C1889 H1893 0.930 . S
C1890 C1889 1.369 . S
C1890 C1899 1.429 . S
C1891 C1889 1.419 . S
C1891 C1892 1.363 . S
C1891 H1894 0.929 . S
C1892 C1891 1.363 . S
C1892 C1898 1.428 . S
H1893 C1889 0.930 . S
H1894 C1891 0.929 . S
S1895 N1896 1.613 . S
S1895 N1897 1.610 . S
N1896 S1895 1.613 . S
N1896 C1899 1.350 . S
N1897 S1895 1.610 . S
N1897 C1898 1.351 . S
C1898 C1892 1.428 . S
C1898 N1897 1.351 . S
C1898 C1899 1.434 . S
C1899 C1890 1.429 . S
C1899 N1896 1.350 . S
C1899 C1898 1.434 . S
C1900 C1901 1.369 . S
C1900 C1902 1.419 . S
C1900 H1904 0.930 . S
C1901 C1900 1.369 . S
C1901 C1910 1.429 . S
C1902 C1900 1.419 . S
C1902 C1903 1.363 . S
C1902 H1905 0.929 . S
C1903 C1902 1.363 . S
C1903 C1909 1.428 . S
H1904 C1900 0.930 . S
H1905 C1902 0.929 . S
S1906 N1907 1.613 . S
S1906 N1908 1.610 . S
N1907 S1906 1.613 . S
N1907 C1910 1.350 . S
N1908 S1906 1.610 . S
N1908 C1909 1.351 . S
C1909 C1903 1.428 . S
C1909 N1908 1.351 . S
C1909 C1910 1.434 . S
C1910 C1901 1.429 . S
C1910 N1907 1.350 . S
C1910 C1909 1.434 . S
C1911 C1912 1.369 . S
C1911 C1913 1.419 . S
C1911 H1915 0.930 . S
C1912 C1911 1.369 . S
C1912 C1921 1.429 . S
C1913 C1911 1.419 . S
C1913 C1914 1.363 . S
C1913 H1916 0.929 . S
C1914 C1913 1.363 . S
C1914 C1920 1.428 . S
H1915 C1911 0.930 . S
H1916 C1913 0.929 . S
S1917 N1918 1.613 . S
S1917 N1919 1.610 . S
N1918 S1917 1.613 . S
N1918 C1921 1.350 . S
N1919 S1917 1.610 . S
N1919 C1920 1.351 . S
C1920 C1914 1.428 . S
C1920 N1919 1.351 . S
C1920 C1921 1.434 . S
C1921 C1912 1.429 . S
C1921 N1918 1.350 . S
C1921 C1920 1.434 . S
C1922 C1923 1.369 . S
C1922 C1924 1.419 . S
C1922 H1926 0.930 . S
C1923 C1922 1.369 . S
C1923 C1932 1.429 . S
C1924 C1922 1.419 . S
C1924 C1925 1.363 . S
C1924 H1927 0.929 . S
C1925 C1924 1.363 . S
C1925 C1931 1.428 . S
H1926 C1922 0.930 . S
H1927 C1924 0.929 . S
S1928 N1929 1.613 . S
S1928 N1930 1.610 . S
N1929 S1928 1.613 . S
N1929 C1932 1.350 . S
N1930 S1928 1.610 . S
N1930 C1931 1.351 . S
C1931 C1925 1.428 . S
C1931 N1930 1.351 . S
C1931 C1932 1.434 . S
C1932 C1923 1.429 . S
C1932 N1929 1.350 . S
C1932 C1931 1.434 . S
C1933 C1934 1.369 . S
C1933 C1935 1.419 . S
C1933 H1937 0.930 . S
C1934 C1933 1.369 . S
C1934 C1943 1.429 . S
C1935 C1933 1.419 . S
C1935 C1936 1.363 . S
C1935 H1938 0.929 . S
C1936 C1935 1.363 . S
C1936 C1942 1.428 . S
H1937 C1933 0.930 . S
H1938 C1935 0.929 . S
S1939 N1940 1.613 . S
S1939 N1941 1.610 . S
N1940 S1939 1.613 . S
N1940 C1943 1.350 . S
N1941 S1939 1.610 . S
N1941 C1942 1.351 . S
C1942 C1936 1.428 . S
C1942 N1941 1.351 . S
C1942 C1943 1.434 . S
C1943 C1934 1.429 . S
C1943 N1940 1.350 . S
C1943 C1942 1.434 . S
C1944 C1945 1.369 . S
C1944 C1946 1.419 . S
C1944 H1948 0.930 . S
C1945 C1944 1.369 . S
C1945 C1954 1.429 . S
C1946 C1944 1.419 . S
C1946 C1947 1.363 . S
C1946 H1949 0.929 . S
C1947 C1946 1.363 . S
C1947 C1953 1.428 . S
H1948 C1944 0.930 . S
H1949 C1946 0.929 . S
S1950 N1951 1.613 . S
S1950 N1952 1.610 . S
N1951 S1950 1.613 . S
N1951 C1954 1.350 . S
N1952 S1950 1.610 . S
N1952 C1953 1.351 . S
C1953 C1947 1.428 . S
C1953 N1952 1.351 . S
C1953 C1954 1.434 . S
C1954 C1945 1.429 . S
C1954 N1951 1.350 . S
C1954 C1953 1.434 . S
C1955 C1956 1.369 . S
C1955 C1957 1.419 . S
C1955 H1959 0.930 . S
C1956 C1955 1.369 . S
C1956 C1965 1.429 . S
C1957 C1955 1.419 . S
C1957 C1958 1.363 . S
C1957 H1960 0.929 . S
C1958 C1957 1.363 . S
C1958 C1964 1.428 . S
H1959 C1955 0.930 . S
H1960 C1957 0.929 . S
S1961 N1962 1.613 . S
S1961 N1963 1.610 . S
N1962 S1961 1.613 . S
N1962 C1965 1.350 . S
N1963 S1961 1.610 . S
N1963 C1964 1.351 . S
C1964 C1958 1.428 . S
C1964 N1963 1.351 . S
C1964 C1965 1.434 . S
C1965 C1956 1.429 . S
C1965 N1962 1.350 . S
C1965 C1964 1.434 . S
C1966 C1967 1.369 . S
C1966 C1968 1.419 . S
C1966 H1970 0.930 . S
C1967 C1966 1.369 . S
C1967 C1976 1.429 . S
C1968 C1966 1.419 . S
C1968 C1969 1.363 . S
C1968 H1971 0.929 . S
C1969 C1968 1.363 . S
C1969 C1975 1.428 . S
H1970 C1966 0.930 . S
H1971 C1968 0.929 . S
S1972 N1973 1.613 . S
S1972 N1974 1.610 . S
N1973 S1972 1.613 . S
N1973 C1976 1.350 . S
N1974 S1972 1.610 . S
N1974 C1975 1.351 . S
C1975 C1969 1.428 . S
C1975 N1974 1.351 . S
C1975 C1976 1.434 . S
C1976 C1967 1.429 . S
C1976 N1973 1.350 . S
C1976 C1975 1.434 . S
C1977 C1978 1.369 . S
C1977 C1979 1.419 . S
C1977 H1981 0.930 . S
C1978 C1977 1.369 . S
C1978 C1987 1.429 . S
C1979 C1977 1.419 . S
C1979 C1980 1.363 . S
C1979 H1982 0.929 . S
C1980 C1979 1.363 . S
C1980 C1986 1.428 . S
H1981 C1977 0.930 . S
H1982 C1979 0.929 . S
S1983 N1984 1.613 . S
S1983 N1985 1.610 . S
N1984 S1983 1.613 . S
N1984 C1987 1.350 . S
N1985 S1983 1.610 . S
N1985 C1986 1.351 . S
C1986 C1980 1.428 . S
C1986 N1985 1.351 . S
C1986 C1987 1.434 . S
C1987 C1978 1.429 . S
C1987 N1984 1.350 . S
C1987 C1986 1.434 . S
C1988 C1989 1.369 . S
C1988 C1990 1.419 . S
C1988 H1992 0.930 . S
C1989 C1988 1.369 . S
C1989 C1998 1.429 . S
C1990 C1988 1.419 . S
C1990 C1991 1.363 . S
C1990 H1993 0.929 . S
C1991 C1990 1.363 . S
C1991 C1997 1.428 . S
H1992 C1988 0.930 . S
H1993 C1990 0.929 . S
S1994 N1995 1.613 . S
S1994 N1996 1.610 . S
N1995 S1994 1.613 . S
N1995 C1998 1.350 . S
N1996 S1994 1.610 . S
N1996 C1997 1.351 . S
C1997 C1991 1.428 . S
C1997 N1996 1.351 . S
C1997 C1998 1.434 . S
C1998 C1989 1.429 . S
C1998 N1995 1.350 . S
C1998 C1997 1.434 . S
C1999 C2000 1.369 . S
C1999 C2001 1.419 . S
C1999 H2003 0.930 . S
C2000 C1999 1.369 . S
C2000 C2009 1.429 . S
C2001 C1999 1.419 . S
C2001 C2002 1.363 . S
C2001 H2004 0.929 . S
C2002 C2001 1.363 . S
C2002 C2008 1.428 . S
H2003 C1999 0.930 . S
H2004 C2001 0.929 . S
S2005 N2006 1.613 . S
S2005 N2007 1.610 . S
N2006 S2005 1.613 . S
N2006 C2009 1.350 . S
N2007 S2005 1.610 . S
N2007 C2008 1.351 . S
C2008 C2002 1.428 . S
C2008 N2007 1.351 . S
C2008 C2009 1.434 . S
C2009 C2000 1.429 . S
C2009 N2006 1.350 . S
C2009 C2008 1.434 . S
C2010 C2011 1.369 . S
C2010 C2012 1.419 . S
C2010 H2014 0.930 . S
C2011 C2010 1.369 . S
C2011 C2020 1.429 . S
C2012 C2010 1.419 . S
C2012 C2013 1.363 . S
C2012 H2015 0.929 . S
C2013 C2012 1.363 . S
C2013 C2019 1.428 . S
H2014 C2010 0.930 . S
H2015 C2012 0.929 . S
S2016 N2017 1.613 . S
S2016 N2018 1.610 . S
N2017 S2016 1.613 . S
N2017 C2020 1.350 . S
N2018 S2016 1.610 . S
N2018 C2019 1.351 . S
C2019 C2013 1.428 . S
C2019 N2018 1.351 . S
C2019 C2020 1.434 . S
C2020 C2011 1.429 . S
C2020 N2017 1.350 . S
C2020 C2019 1.434 . S
C2021 C2022 1.369 . S
C2021 C2023 1.419 . S
C2021 H2025 0.930 . S
C2022 C2021 1.369 . S
C2022 C2031 1.429 . S
C2023 C2021 1.419 . S
C2023 C2024 1.363 . S
C2023 H2026 0.929 . S
C2024 C2023 1.363 . S
C2024 C2030 1.428 . S
H2025 C2021 0.930 . S
H2026 C2023 0.929 . S
S2027 N2028 1.613 . S
S2027 N2029 1.610 . S
N2028 S2027 1.613 . S
N2028 C2031 1.350 . S
N2029 S2027 1.610 . S
N2029 C2030 1.351 . S
C2030 C2024 1.428 . S
C2030 N2029 1.351 . S
C2030 C2031 1.434 . S
C2031 C2022 1.429 . S
C2031 N2028 1.350 . S
C2031 C2030 1.434 . S
C2032 C2033 1.369 . S
C2032 C2034 1.419 . S
C2032 H2036 0.930 . S
C2033 C2032 1.369 . S
C2033 C2042 1.429 . S
C2034 C2032 1.419 . S
C2034 C2035 1.363 . S
C2034 H2037 0.929 . S
C2035 C2034 1.363 . S
C2035 C2041 1.428 . S
H2036 C2032 0.930 . S
H2037 C2034 0.929 . S
S2038 N2039 1.613 1_565 S
S2038 N2040 1.610 1_565 S
N2039 S2038 1.613 1_545 S
N2039 C2042 1.350 . S
N2040 S2038 1.610 1_545 S
N2040 C2041 1.351 . S
C2041 C2035 1.428 . S
C2041 N2040 1.351 . S
C2041 C2042 1.434 . S
C2042 C2033 1.429 . S
C2042 N2039 1.350 . S
C2042 C2041 1.434 . S
C2043 C2044 1.369 . S
C2043 C2045 1.419 . S
C2043 H2047 0.930 . S
C2044 C2043 1.369 . S
C2044 C2053 1.429 . S
C2045 C2043 1.419 . S
C2045 C2046 1.363 . S
C2045 H2048 0.929 . S
C2046 C2045 1.363 . S
C2046 C2052 1.428 . S
H2047 C2043 0.930 . S
H2048 C2045 0.929 . S
S2049 N2050 1.613 . S
S2049 N2051 1.610 . S
N2050 S2049 1.613 . S
N2050 C2053 1.350 . S
N2051 S2049 1.610 . S
N2051 C2052 1.351 . S
C2052 C2046 1.428 . S
C2052 N2051 1.351 . S
C2052 C2053 1.434 . S
C2053 C2044 1.429 . S
C2053 N2050 1.350 . S
C2053 C2052 1.434 . S
C2054 C2055 1.369 . S
C2054 C2056 1.419 . S
C2054 H2058 0.930 . S
C2055 C2054 1.369 . S
C2055 C2064 1.429 . S
C2056 C2054 1.419 . S
C2056 C2057 1.363 . S
C2056 H2059 0.929 . S
C2057 C2056 1.363 . S
C2057 C2063 1.428 . S
H2058 C2054 0.930 . S
H2059 C2056 0.929 . S
S2060 N2061 1.605 . S
S2060 N2062 1.610 . S
N2061 S2060 1.605 . S
N2061 C2064 1.361 . S
N2062 S2060 1.610 . S
N2062 C2063 1.351 . S
C2063 C2057 1.428 . S
C2063 N2062 1.351 . S
C2063 C2064 1.434 . S
C2064 C2055 1.429 . S
C2064 N2061 1.361 . S
C2064 C2063 1.434 . S
C2065 C2066 1.369 . S
C2065 C2067 1.419 . S
C2065 H2069 0.930 . S
C2066 C2065 1.369 . S
C2066 C2075 1.429 . S
C2067 C2065 1.419 . S
C2067 C2068 1.363 . S
C2067 H2070 0.929 . S
C2068 C2067 1.363 . S
C2068 C2074 1.428 . S
H2069 C2065 0.930 . S
H2070 C2067 0.929 . S
S2071 N2072 1.613 . S
S2071 N2073 1.610 . S
N2072 S2071 1.613 . S
N2072 C2075 1.350 . S
N2073 S2071 1.610 . S
N2073 C2074 1.351 . S
C2074 C2068 1.428 . S
C2074 N2073 1.351 . S
C2074 C2075 1.434 . S
C2075 C2066 1.429 . S
C2075 N2072 1.350 . S
C2075 C2074 1.434 . S
C2076 C2077 1.369 . S
C2076 C2078 1.419 . S
C2076 H2080 0.930 . S
C2077 C2076 1.369 . S
C2077 C2086 1.429 . S
C2078 C2076 1.419 . S
C2078 C2079 1.363 . S
C2078 H2081 0.929 . S
C2079 C2078 1.363 . S
C2079 C2085 1.428 . S
H2080 C2076 0.930 . S
H2081 C2078 0.929 . S
S2082 N2083 1.613 . S
S2082 N2084 1.610 . S
N2083 S2082 1.613 . S
N2083 C2086 1.350 . S
N2084 S2082 1.610 . S
N2084 C2085 1.351 . S
C2085 C2079 1.428 . S
C2085 N2084 1.351 . S
C2085 C2086 1.434 . S
C2086 C2077 1.429 . S
C2086 N2083 1.350 . S
C2086 C2085 1.434 . S
C2087 C2088 1.369 . S
C2087 C2089 1.419 . S
C2087 H2091 0.930 . S
C2088 C2087 1.369 . S
C2088 C2097 1.429 . S
C2089 C2087 1.419 . S
C2089 C2090 1.363 . S
C2089 H2092 0.929 . S
C2090 C2089 1.363 . S
C2090 C2096 1.428 . S
H2091 C2087 0.930 . S
H2092 C2089 0.929 . S
S2093 N2094 1.613 . S
S2093 N2095 1.610 . S
N2094 S2093 1.613 . S
N2094 C2097 1.350 . S
N2095 S2093 1.610 . S
N2095 C2096 1.351 . S
C2096 C2090 1.428 . S
C2096 N2095 1.351 . S
C2096 C2097 1.434 . S
C2097 C2088 1.429 . S
C2097 N2094 1.350 . S
C2097 C2096 1.434 . S
C2098 C2099 1.369 1_565 S
C2098 C2100 1.419 . S
C2098 H2102 0.930 . S
C2099 C2098 1.369 1_545 S
C2099 C2108 1.429 . S
C2100 C2098 1.419 . S
C2100 C2101 1.363 1_565 S
C2100 H2103 0.929 . S
C2101 C2100 1.363 1_545 S
C2101 C2107 1.428 . S
H2102 C2098 0.930 . S
H2103 C2100 0.929 . S
S2104 N2105 1.613 . S
S2104 N2106 1.610 . S
N2105 S2104 1.613 . S
N2105 C2108 1.350 . S
N2106 S2104 1.610 . S
N2106 C2107 1.351 . S
C2107 C2101 1.428 . S
C2107 N2106 1.351 . S
C2107 C2108 1.434 . S
C2108 C2099 1.429 . S
C2108 N2105 1.350 . S
C2108 C2107 1.434 . S
C2109 C2110 1.369 . S
C2109 C2111 1.419 . S
C2109 H2113 0.930 . S
C2110 C2109 1.369 . S
C2110 C2119 1.429 . S
C2111 C2109 1.419 . S
C2111 C2112 1.363 . S
C2111 H2114 0.929 . S
C2112 C2111 1.363 . S
C2112 C2118 1.428 . S
H2113 C2109 0.930 . S
H2114 C2111 0.929 . S
S2115 N2116 1.613 . S
S2115 N2117 1.610 . S
N2116 S2115 1.613 . S
N2116 C2119 1.350 . S
N2117 S2115 1.610 . S
N2117 C2118 1.351 . S
C2118 C2112 1.428 . S
C2118 N2117 1.351 . S
C2118 C2119 1.434 . S
C2119 C2110 1.429 . S
C2119 N2116 1.350 . S
C2119 C2118 1.434 . S
C2120 C2121 1.369 . S
C2120 C2122 1.419 . S
C2120 H2124 0.930 . S
C2121 C2120 1.369 . S
C2121 C2130 1.429 . S
C2122 C2120 1.419 . S
C2122 C2123 1.363 . S
C2122 H2125 0.929 . S
C2123 C2122 1.363 . S
C2123 C2129 1.428 . S
H2124 C2120 0.930 . S
H2125 C2122 0.929 . S
S2126 N2127 1.613 . S
S2126 N2128 1.610 . S
N2127 S2126 1.613 . S
N2127 C2130 1.350 . S
N2128 S2126 1.610 . S
N2128 C2129 1.351 . S
C2129 C2123 1.428 . S
C2129 N2128 1.351 . S
C2129 C2130 1.434 . S
C2130 C2121 1.429 . S
C2130 N2127 1.350 . S
C2130 C2129 1.434 . S
C2131 C2132 1.369 . S
C2131 C2133 1.419 . S
C2131 H2135 0.930 . S
C2132 C2131 1.369 . S
C2132 C2141 1.429 . S
C2133 C2131 1.419 . S
C2133 C2134 1.363 . S
C2133 H2136 0.929 . S
C2134 C2133 1.363 . S
C2134 C2140 1.428 . S
H2135 C2131 0.930 . S
H2136 C2133 0.929 . S
S2137 N2138 1.613 1_556 S
S2137 N2139 1.610 1_556 S
N2138 S2137 1.613 1_554 S
N2138 C2141 1.350 . S
N2139 S2137 1.610 1_554 S
N2139 C2140 1.351 . S
C2140 C2134 1.428 . S
C2140 N2139 1.351 . S
C2140 C2141 1.434 . S
C2141 C2132 1.429 . S
C2141 N2138 1.350 . S
C2141 C2140 1.434 . S
C2142 C2143 1.369 . S
C2142 C2144 1.419 . S
C2142 H2146 0.930 . S
C2143 C2142 1.369 . S
C2143 C2152 1.429 . S
C2144 C2142 1.419 . S
C2144 C2145 1.363 . S
C2144 H2147 0.929 . S
C2145 C2144 1.363 . S
C2145 C2151 1.428 . S
H2146 C2142 0.930 . S
H2147 C2144 0.929 . S
S2148 N2149 1.613 . S
S2148 N2150 1.610 . S
N2149 S2148 1.613 . S
N2149 C2152 1.350 . S
N2150 S2148 1.610 . S
N2150 C2151 1.351 . S
C2151 C2145 1.428 . S
C2151 N2150 1.351 . S
C2151 C2152 1.434 . S
C2152 C2143 1.429 . S
C2152 N2149 1.350 . S
C2152 C2151 1.434 . S
C2153 C2154 1.369 . S
C2153 C2155 1.419 . S
C2153 H2157 0.930 . S
C2154 C2153 1.369 . S
C2154 C2163 1.429 . S
C2155 C2153 1.419 . S
C2155 C2156 1.363 . S
C2155 H2158 0.929 . S
C2156 C2155 1.363 . S
C2156 C2162 1.428 . S
H2157 C2153 0.930 . S
H2158 C2155 0.929 . S
S2159 N2160 1.613 . S
S2159 N2161 1.610 . S
N2160 S2159 1.613 . S
N2160 C2163 1.350 . S
N2161 S2159 1.610 . S
N2161 C2162 1.351 . S
C2162 C2156 1.428 . S
C2162 N2161 1.351 . S
C2162 C2163 1.434 . S
C2163 C2154 1.429 . S
C2163 N2160 1.350 . S
C2163 C2162 1.434 . S
C2164 C2165 1.369 1_565 S
C2164 C2166 1.419 . S
C2164 H2168 0.930 . S
C2165 C2164 1.369 1_545 S
C2165 C2174 1.429 . S
C2166 C2164 1.419 . S
C2166 C2167 1.363 . S
C2166 H2169 0.929 . S
C2167 C2166 1.363 . S
C2167 C2173 1.428 . S
H2168 C2164 0.930 . S
H2169 C2166 0.929 . S
S2170 N2171 1.613 . S
S2170 N2172 1.610 . S
N2171 S2170 1.613 . S
N2171 C2174 1.350 . S
N2172 S2170 1.610 . S
N2172 C2173 1.351 1_545 S
C2173 C2167 1.428 . S
C2173 N2172 1.351 1_565 S
C2173 C2174 1.434 1_565 S
C2174 C2165 1.429 . S
C2174 N2171 1.350 . S
C2174 C2173 1.434 1_545 S
C2175 C2176 1.369 . S
C2175 C2177 1.419 . S
C2175 H2179 0.930 . S
C2176 C2175 1.369 . S
C2176 C2185 1.429 . S
C2177 C2175 1.419 . S
C2177 C2178 1.363 . S
C2177 H2180 0.929 . S
C2178 C2177 1.363 . S
C2178 C2184 1.428 . S
H2179 C2175 0.930 . S
H2180 C2177 0.929 . S
S2181 N2182 1.610 . S
S2181 N2183 1.612 1_565 S
N2182 S2181 1.610 . S
N2182 C2185 1.350 . S
N2183 S2181 1.612 1_545 S
N2183 C2184 1.351 1_545 S
C2184 C2178 1.428 . S
C2184 N2183 1.351 1_565 S
C2184 C2185 1.434 . S
C2185 C2176 1.429 . S
C2185 N2182 1.350 . S
C2185 C2184 1.434 . S
C2186 C2187 1.369 . S
C2186 C2188 1.419 . S
C2186 H2190 0.930 . S
C2187 C2186 1.369 . S
C2187 C2196 1.429 . S
C2188 C2186 1.419 . S
C2188 C2189 1.363 . S
C2188 H2191 0.929 . S
C2189 C2188 1.363 . S
C2189 C2195 1.428 . S
H2190 C2186 0.930 . S
H2191 C2188 0.929 . S
S2192 N2193 1.613 . S
S2192 N2194 1.610 . S
N2193 S2192 1.613 . S
N2193 C2196 1.350 . S
N2194 S2192 1.610 . S
N2194 C2195 1.351 . S
C2195 C2189 1.428 . S
C2195 N2194 1.351 . S
C2195 C2196 1.434 . S
C2196 C2187 1.429 . S
C2196 N2193 1.350 . S
C2196 C2195 1.434 . S
C2197 C2198 1.369 . S
C2197 C2199 1.419 . S
C2197 H2201 0.930 . S
C2198 C2197 1.369 . S
C2198 C2207 1.429 . S
C2199 C2197 1.419 . S
C2199 C2200 1.363 . S
C2199 H2202 0.929 . S
C2200 C2199 1.363 . S
C2200 C2206 1.428 . S
H2201 C2197 0.930 . S
H2202 C2199 0.929 . S
S2203 N2204 1.613 . S
S2203 N2205 1.610 . S
N2204 S2203 1.613 . S
N2204 C2207 1.350 . S
N2205 S2203 1.610 . S
N2205 C2206 1.351 . S
C2206 C2200 1.428 . S
C2206 N2205 1.351 . S
C2206 C2207 1.434 . S
C2207 C2198 1.429 . S
C2207 N2204 1.350 . S
C2207 C2206 1.434 . S
C2208 C2209 1.369 . S
C2208 C2210 1.419 . S
C2208 H2212 0.930 . S
C2209 C2208 1.369 . S
C2209 C2218 1.429 . S
C2210 C2208 1.419 . S
C2210 C2211 1.363 . S
C2210 H2213 0.929 . S
C2211 C2210 1.363 . S
C2211 C2217 1.428 . S
H2212 C2208 0.930 . S
H2213 C2210 0.929 . S
S2214 N2215 1.613 . S
S2214 N2216 1.610 . S
N2215 S2214 1.613 . S
N2215 C2218 1.350 . S
N2216 S2214 1.610 . S
N2216 C2217 1.351 . S
C2217 C2211 1.428 . S
C2217 N2216 1.351 . S
C2217 C2218 1.434 . S
C2218 C2209 1.429 . S
C2218 N2215 1.350 . S
C2218 C2217 1.434 . S
C2219 C2220 1.369 . S
C2219 C2221 1.419 . S
C2219 H2223 0.930 . S
C2220 C2219 1.369 . S
C2220 C2229 1.429 . S
C2221 C2219 1.419 . S
C2221 C2222 1.363 . S
C2221 H2224 0.929 . S
C2222 C2221 1.363 . S
C2222 C2228 1.428 . S
H2223 C2219 0.930 . S
H2224 C2221 0.929 . S
S2225 N2226 1.613 . S
S2225 N2227 1.610 . S
N2226 S2225 1.613 . S
N2226 C2229 1.350 . S
N2227 S2225 1.610 . S
N2227 C2228 1.351 . S
C2228 C2222 1.428 . S
C2228 N2227 1.351 . S
C2228 C2229 1.434 . S
C2229 C2220 1.429 . S
C2229 N2226 1.350 . S
C2229 C2228 1.434 . S
C2230 C2231 1.369 . S
C2230 C2232 1.419 . S
C2230 H2234 0.930 . S
C2231 C2230 1.369 . S
C2231 C2240 1.429 1_455 S
C2232 C2230 1.419 . S
C2232 C2233 1.363 . S
C2232 H2235 0.929 . S
C2233 C2232 1.363 . S
C2233 C2239 1.428 1_455 S
H2234 C2230 0.930 . S
H2235 C2232 0.929 . S
S2236 N2237 1.613 . S
S2236 N2238 1.610 1_556 S
N2237 S2236 1.613 . S
N2237 C2240 1.350 1_556 S
N2238 S2236 1.610 1_554 S
N2238 C2239 1.351 . S
C2239 C2233 1.428 1_655 S
C2239 N2238 1.351 . S
C2239 C2240 1.434 . S
C2240 C2231 1.429 1_655 S
C2240 N2237 1.350 1_554 S
C2240 C2239 1.434 . S
C2241 C2242 1.369 . S
C2241 C2243 1.419 . S
C2241 H2245 0.930 . S
C2242 C2241 1.369 . S
C2242 C2251 1.429 . S
C2243 C2241 1.419 . S
C2243 C2244 1.363 . S
C2243 H2246 0.929 . S
C2244 C2243 1.363 . S
C2244 C2250 1.428 . S
H2245 C2241 0.930 . S
H2246 C2243 0.929 . S
S2247 N2248 1.613 . S
S2247 N2249 1.610 1_455 S
N2248 S2247 1.613 . S
N2248 C2251 1.350 1_455 S
N2249 S2247 1.610 1_655 S
N2249 C2250 1.351 . S
C2250 C2244 1.428 . S
C2250 N2249 1.351 . S
C2250 C2251 1.434 . S
C2251 C2242 1.429 . S
C2251 N2248 1.350 1_655 S
C2251 C2250 1.434 . S
C2252 C2253 1.369 . S
C2252 C2254 1.419 . S
C2252 H2256 0.930 . S
C2253 C2252 1.369 . S
C2253 C2262 1.429 . S
C2254 C2252 1.419 . S
C2254 C2255 1.363 . S
C2254 H2257 0.929 . S
C2255 C2254 1.363 . S
C2255 C2261 1.428 . S
H2256 C2252 0.930 . S
H2257 C2254 0.929 . S
S2258 N2259 1.613 . S
S2258 N2260 1.610 . S
N2259 S2258 1.613 . S
N2259 C2262 1.350 . S
N2260 S2258 1.610 . S
N2260 C2261 1.351 . S
C2261 C2255 1.428 . S
C2261 N2260 1.351 . S
C2261 C2262 1.434 . S
C2262 C2253 1.429 . S
C2262 N2259 1.350 . S
C2262 C2261 1.434 . S
C2263 C2264 1.369 . S
C2263 C2265 1.419 . S
C2263 H2267 0.930 . S
C2264 C2263 1.369 . S
C2264 C2273 1.429 . S
C2265 C2263 1.419 . S
C2265 C2266 1.363 . S
C2265 H2268 0.929 . S
C2266 C2265 1.363 . S
C2266 C2272 1.428 . S
H2267 C2263 0.930 . S
H2268 C2265 0.929 . S
S2269 N2270 1.613 . S
S2269 N2271 1.610 . S
N2270 S2269 1.613 . S
N2270 C2273 1.350 . S
N2271 S2269 1.610 . S
N2271 C2272 1.351 . S
C2272 C2266 1.428 . S
C2272 N2271 1.351 . S
C2272 C2273 1.434 . S
C2273 C2264 1.429 . S
C2273 N2270 1.350 . S
C2273 C2272 1.434 . S
C2274 C2275 1.369 1_655 S
C2274 C2276 1.419 . S
C2274 H2278 0.930 . S
C2275 C2274 1.369 1_455 S
C2275 C2284 1.429 . S
C2276 C2274 1.419 . S
C2276 C2277 1.363 1_655 S
C2276 H2279 0.929 . S
C2277 C2276 1.363 1_455 S
C2277 C2283 1.428 . S
H2278 C2274 0.930 . S
H2279 C2276 0.929 . S
S2280 N2281 1.613 . S
S2280 N2282 1.610 . S
N2281 S2280 1.613 . S
N2281 C2284 1.350 . S
N2282 S2280 1.610 . S
N2282 C2283 1.351 . S
C2283 C2277 1.428 . S
C2283 N2282 1.351 . S
C2283 C2284 1.434 . S
C2284 C2275 1.429 . S
C2284 N2281 1.350 . S
C2284 C2283 1.434 . S
C2285 C2286 1.369 . S
C2285 C2287 1.419 . S
C2285 H2289 0.930 . S
C2286 C2285 1.369 . S
C2286 C2295 1.429 . S
C2287 C2285 1.419 . S
C2287 C2288 1.363 . S
C2287 H2290 0.929 . S
C2288 C2287 1.363 . S
C2288 C2294 1.428 . S
H2289 C2285 0.930 . S
H2290 C2287 0.929 . S
S2291 N2292 1.613 . S
S2291 N2293 1.610 . S
N2292 S2291 1.613 . S
N2292 C2295 1.350 . S
N2293 S2291 1.610 . S
N2293 C2294 1.351 . S
C2294 C2288 1.428 . S
C2294 N2293 1.351 . S
C2294 C2295 1.434 . S
C2295 C2286 1.429 . S
C2295 N2292 1.350 . S
C2295 C2294 1.434 . S
C2296 C2297 1.369 . S
C2296 C2298 1.419 . S
C2296 H2300 0.930 . S
C2297 C2296 1.369 . S
C2297 C2306 1.429 . S
C2298 C2296 1.419 . S
C2298 C2299 1.363 . S
C2298 H2301 0.929 . S
C2299 C2298 1.363 . S
C2299 C2305 1.428 . S
H2300 C2296 0.930 . S
H2301 C2298 0.929 . S
S2302 N2303 1.613 . S
S2302 N2304 1.610 . S
N2303 S2302 1.613 . S
N2303 C2306 1.350 . S
N2304 S2302 1.610 . S
N2304 C2305 1.351 . S
C2305 C2299 1.428 . S
C2305 N2304 1.351 . S
C2305 C2306 1.434 . S
C2306 C2297 1.429 . S
C2306 N2303 1.350 . S
C2306 C2305 1.434 . S
C2307 C2308 1.369 1_554 S
C2307 C2309 1.419 1_554 S
C2307 H2311 0.930 . S
C2308 C2307 1.369 1_556 S
C2308 C2317 1.429 . S
C2309 C2307 1.419 1_556 S
C2309 C2310 1.363 . S
C2309 H2312 0.929 . S
C2310 C2309 1.363 . S
C2310 C2316 1.428 . S
H2311 C2307 0.930 . S
H2312 C2309 0.929 . S
S2313 N2314 1.613 . S
S2313 N2315 1.610 . S
N2314 S2313 1.613 . S
N2314 C2317 1.350 . S
N2315 S2313 1.610 . S
N2315 C2316 1.351 . S
C2316 C2310 1.428 . S
C2316 N2315 1.351 . S
C2316 C2317 1.434 . S
C2317 C2308 1.429 . S
C2317 N2314 1.350 . S
C2317 C2316 1.434 . S
C2318 C2319 1.369 . S
C2318 C2320 1.419 . S
C2318 H2322 0.930 . S
C2319 C2318 1.369 . S
C2319 C2328 1.429 . S
C2320 C2318 1.419 . S
C2320 C2321 1.363 . S
C2320 H2323 0.929 . S
C2321 C2320 1.363 . S
C2321 C2327 1.428 . S
H2322 C2318 0.930 . S
H2323 C2320 0.929 . S
S2324 N2325 1.613 . S
S2324 N2326 1.610 . S
N2325 S2324 1.613 . S
N2325 C2328 1.350 . S
N2326 S2324 1.610 . S
N2326 C2327 1.351 . S
C2327 C2321 1.428 . S
C2327 N2326 1.351 . S
C2327 C2328 1.434 . S
C2328 C2319 1.429 . S
C2328 N2325 1.350 . S
C2328 C2327 1.434 . S
C2329 C2330 1.369 . S
C2329 C2331 1.419 . S
C2329 H2333 0.930 . S
C2330 C2329 1.369 . S
C2330 C2339 1.429 . S
C2331 C2329 1.419 . S
C2331 C2332 1.363 . S
C2331 H2334 0.929 . S
C2332 C2331 1.363 . S
C2332 C2338 1.428 . S
H2333 C2329 0.930 . S
H2334 C2331 0.929 . S
S2335 N2336 1.613 . S
S2335 N2337 1.610 . S
N2336 S2335 1.613 . S
N2336 C2339 1.350 . S
N2337 S2335 1.610 . S
N2337 C2338 1.351 . S
C2338 C2332 1.428 . S
C2338 N2337 1.351 . S
C2338 C2339 1.434 . S
C2339 C2330 1.429 . S
C2339 N2336 1.350 . S
C2339 C2338 1.434 . S
C2340 C2341 1.369 . S
C2340 C2342 1.419 . S
C2340 H2344 0.930 . S
C2341 C2340 1.369 . S
C2341 C2350 1.429 . S
C2342 C2340 1.419 . S
C2342 C2343 1.363 . S
C2342 H2345 0.929 . S
C2343 C2342 1.363 . S
C2343 C2349 1.428 . S
H2344 C2340 0.930 . S
H2345 C2342 0.929 . S
S2346 N2347 1.613 . S
S2346 N2348 1.610 . S
N2347 S2346 1.613 . S
N2347 C2350 1.350 . S
N2348 S2346 1.610 . S
N2348 C2349 1.351 . S
C2349 C2343 1.428 . S
C2349 N2348 1.351 . S
C2349 C2350 1.434 . S
C2350 C2341 1.429 . S
C2350 N2347 1.350 . S
C2350 C2349 1.434 . S
C2351 C2352 1.369 . S
C2351 C2353 1.419 . S
C2351 H2355 0.930 . S
C2352 C2351 1.369 . S
C2352 C2361 1.429 . S
C2353 C2351 1.419 . S
C2353 C2354 1.363 . S
C2353 H2356 0.929 . S
C2354 C2353 1.363 . S
C2354 C2360 1.428 . S
H2355 C2351 0.930 . S
H2356 C2353 0.929 . S
S2357 N2358 1.613 . S
S2357 N2359 1.610 . S
N2358 S2357 1.613 . S
N2358 C2361 1.350 . S
N2359 S2357 1.610 . S
N2359 C2360 1.351 . S
C2360 C2354 1.428 . S
C2360 N2359 1.351 . S
C2360 C2361 1.434 . S
C2361 C2352 1.429 . S
C2361 N2358 1.350 . S
C2361 C2360 1.434 . S
C2362 C2363 1.369 . S
C2362 C2364 1.419 . S
C2362 H2366 0.930 . S
C2363 C2362 1.369 . S
C2363 C2372 1.429 . S
C2364 C2362 1.419 . S
C2364 C2365 1.363 . S
C2364 H2367 0.929 . S
C2365 C2364 1.363 . S
C2365 C2371 1.428 . S
H2366 C2362 0.930 . S
H2367 C2364 0.929 . S
S2368 N2369 1.613 . S
S2368 N2370 1.610 . S
N2369 S2368 1.613 . S
N2369 C2372 1.350 . S
N2370 S2368 1.610 . S
N2370 C2371 1.351 . S
C2371 C2365 1.428 . S
C2371 N2370 1.351 . S
C2371 C2372 1.434 . S
C2372 C2363 1.429 . S
C2372 N2369 1.350 . S
C2372 C2371 1.434 . S
C2373 C2374 1.369 . S
C2373 C2375 1.419 . S
C2373 H2377 0.930 . S
C2374 C2373 1.369 . S
C2374 C2383 1.429 . S
C2375 C2373 1.419 . S
C2375 C2376 1.363 . S
C2375 H2378 0.929 . S
C2376 C2375 1.363 . S
C2376 C2382 1.428 . S
H2377 C2373 0.930 . S
H2378 C2375 0.929 . S
S2379 N2380 1.613 . S
S2379 N2381 1.610 . S
N2380 S2379 1.613 . S
N2380 C2383 1.350 . S
N2381 S2379 1.610 . S
N2381 C2382 1.351 . S
C2382 C2376 1.428 . S
C2382 N2381 1.351 . S
C2382 C2383 1.434 . S
C2383 C2374 1.429 . S
C2383 N2380 1.350 . S
C2383 C2382 1.434 . S
C2384 C2385 1.369 . S
C2384 C2386 1.419 . S
C2384 H2388 0.930 . S
C2385 C2384 1.369 . S
C2385 C2394 1.429 . S
C2386 C2384 1.419 . S
C2386 C2387 1.363 . S
C2386 H2389 0.929 . S
C2387 C2386 1.363 . S
C2387 C2393 1.428 . S
H2388 C2384 0.930 . S
H2389 C2386 0.929 . S
S2390 N2391 1.613 . S
S2390 N2392 1.610 . S
N2391 S2390 1.613 . S
N2391 C2394 1.350 . S
N2392 S2390 1.610 . S
N2392 C2393 1.351 . S
C2393 C2387 1.428 . S
C2393 N2392 1.351 . S
C2393 C2394 1.434 . S
C2394 C2385 1.429 . S
C2394 N2391 1.350 . S
C2394 C2393 1.434 . S
C2395 C2396 1.369 . S
C2395 C2397 1.419 . S
C2395 H2399 0.930 . S
C2396 C2395 1.369 . S
C2396 C2405 1.429 . S
C2397 C2395 1.419 . S
C2397 C2398 1.363 . S
C2397 H2400 0.929 . S
C2398 C2397 1.363 . S
C2398 C2404 1.428 . S
H2399 C2395 0.930 . S
H2400 C2397 0.929 . S
S2401 N2402 1.613 . S
S2401 N2403 1.610 . S
N2402 S2401 1.613 . S
N2402 C2405 1.350 . S
N2403 S2401 1.610 . S
N2403 C2404 1.351 . S
C2404 C2398 1.428 . S
C2404 N2403 1.351 . S
C2404 C2405 1.434 . S
C2405 C2396 1.429 . S
C2405 N2402 1.350 . S
C2405 C2404 1.434 . S
C2406 C2407 1.369 . S
C2406 C2408 1.419 . S
C2406 H2410 0.930 . S
C2407 C2406 1.369 . S
C2407 C2416 1.429 . S
C2408 C2406 1.419 . S
C2408 C2409 1.363 . S
C2408 H2411 0.929 . S
C2409 C2408 1.363 . S
C2409 C2415 1.428 . S
H2410 C2406 0.930 . S
H2411 C2408 0.929 . S
S2412 N2413 1.613 . S
S2412 N2414 1.610 . S
N2413 S2412 1.613 . S
N2413 C2416 1.350 . S
N2414 S2412 1.610 . S
N2414 C2415 1.351 . S
C2415 C2409 1.428 . S
C2415 N2414 1.351 . S
C2415 C2416 1.434 . S
C2416 C2407 1.429 . S
C2416 N2413 1.350 . S
C2416 C2415 1.434 . S
C2417 C2418 1.369 . S
C2417 C2419 1.419 . S
C2417 H2421 0.930 . S
C2418 C2417 1.369 . S
C2418 C2427 1.429 1_565 S
C2419 C2417 1.419 . S
C2419 C2420 1.363 1_565 S
C2419 H2422 0.929 . S
C2420 C2419 1.363 1_545 S
C2420 C2426 1.428 . S
H2421 C2417 0.930 . S
H2422 C2419 0.929 . S
S2423 N2424 1.613 . S
S2423 N2425 1.610 . S
N2424 S2423 1.613 . S
N2424 C2427 1.350 . S
N2425 S2423 1.610 . S
N2425 C2426 1.351 . S
C2426 C2420 1.428 . S
C2426 N2425 1.351 . S
C2426 C2427 1.434 . S
C2427 C2418 1.429 1_545 S
C2427 N2424 1.350 . S
C2427 C2426 1.434 . S
C2428 C2429 1.369 . S
C2428 C2430 1.419 . S
C2428 H2432 0.930 . S
C2429 C2428 1.369 . S
C2429 C2438 1.429 . S
C2430 C2428 1.419 . S
C2430 C2431 1.363 . S
C2430 H2433 0.929 . S
C2431 C2430 1.363 . S
C2431 C2437 1.428 . S
H2432 C2428 0.930 . S
H2433 C2430 0.929 . S
S2434 N2435 1.613 . S
S2434 N2436 1.610 . S
N2435 S2434 1.613 . S
N2435 C2438 1.350 . S
N2436 S2434 1.610 . S
N2436 C2437 1.351 . S
C2437 C2431 1.428 . S
C2437 N2436 1.351 . S
C2437 C2438 1.434 . S
C2438 C2429 1.429 . S
C2438 N2435 1.350 . S
C2438 C2437 1.434 . S
C2439 C2440 1.369 . S
C2439 C2441 1.419 . S
C2439 H2443 0.930 . S
C2440 C2439 1.369 . S
C2440 C2449 1.429 . S
C2441 C2439 1.419 . S
C2441 C2442 1.363 . S
C2441 H2444 0.929 . S
C2442 C2441 1.363 . S
C2442 C2448 1.428 . S
H2443 C2439 0.930 . S
H2444 C2441 0.929 . S
S2445 N2446 1.613 . S
S2445 N2447 1.610 . S
N2446 S2445 1.613 . S
N2446 C2449 1.350 . S
N2447 S2445 1.610 . S
N2447 C2448 1.351 . S
C2448 C2442 1.428 . S
C2448 N2447 1.351 . S
C2448 C2449 1.434 . S
C2449 C2440 1.429 . S
C2449 N2446 1.350 . S
C2449 C2448 1.434 . S
C2450 C2451 1.369 . S
C2450 C2452 1.419 . S
C2450 H2454 0.930 . S
C2451 C2450 1.369 . S
C2451 C2460 1.429 . S
C2452 C2450 1.419 . S
C2452 C2453 1.363 . S
C2452 H2455 0.929 . S
C2453 C2452 1.363 . S
C2453 C2459 1.428 . S
H2454 C2450 0.930 . S
H2455 C2452 0.929 . S
S2456 N2457 1.613 . S
S2456 N2458 1.610 . S
N2457 S2456 1.613 . S
N2457 C2460 1.350 . S
N2458 S2456 1.610 . S
N2458 C2459 1.351 . S
C2459 C2453 1.428 . S
C2459 N2458 1.351 . S
C2459 C2460 1.434 . S
C2460 C2451 1.429 . S
C2460 N2457 1.350 . S
C2460 C2459 1.434 . S
C2461 C2462 1.369 . S
C2461 C2463 1.419 . S
C2461 H2465 0.930 . S
C2462 C2461 1.369 . S
C2462 C2471 1.429 . S
C2463 C2461 1.419 . S
C2463 C2464 1.363 . S
C2463 H2466 0.929 . S
C2464 C2463 1.363 . S
C2464 C2470 1.428 . S
H2465 C2461 0.930 . S
H2466 C2463 0.929 . S
S2467 N2468 1.613 . S
S2467 N2469 1.610 . S
N2468 S2467 1.613 . S
N2468 C2471 1.350 . S
N2469 S2467 1.610 . S
N2469 C2470 1.351 . S
C2470 C2464 1.428 . S
C2470 N2469 1.351 . S
C2470 C2471 1.434 . S
C2471 C2462 1.429 . S
C2471 N2468 1.350 . S
C2471 C2470 1.434 . S
C2472 C2473 1.369 . S
C2472 C2474 1.419 . S
C2472 H2476 0.930 . S
C2473 C2472 1.369 . S
C2473 C2482 1.429 . S
C2474 C2472 1.419 . S
C2474 C2475 1.363 . S
C2474 H2477 0.929 . S
C2475 C2474 1.363 . S
C2475 C2481 1.428 . S
H2476 C2472 0.930 . S
H2477 C2474 0.929 . S
S2478 N2479 1.613 . S
S2478 N2480 1.610 . S
N2479 S2478 1.613 . S
N2479 C2482 1.350 . S
N2480 S2478 1.610 . S
N2480 C2481 1.351 . S
C2481 C2475 1.428 . S
C2481 N2480 1.351 . S
C2481 C2482 1.434 . S
C2482 C2473 1.429 . S
C2482 N2479 1.350 . S
C2482 C2481 1.434 . S
C2483 C2484 1.369 . S
C2483 C2485 1.419 . S
C2483 H2487 0.930 . S
C2484 C2483 1.369 . S
C2484 C2493 1.429 . S
C2485 C2483 1.419 . S
C2485 C2486 1.363 . S
C2485 H2488 0.929 . S
C2486 C2485 1.363 . S
C2486 C2492 1.428 . S
H2487 C2483 0.930 . S
H2488 C2485 0.929 . S
S2489 N2490 1.613 . S
S2489 N2491 1.610 . S
N2490 S2489 1.613 . S
N2490 C2493 1.350 . S
N2491 S2489 1.610 . S
N2491 C2492 1.351 . S
C2492 C2486 1.428 . S
C2492 N2491 1.351 . S
C2492 C2493 1.434 . S
C2493 C2484 1.429 . S
C2493 N2490 1.350 . S
C2493 C2492 1.434 . S
C2494 C2495 1.369 . S
C2494 C2496 1.419 . S
C2494 H2498 0.930 . S
C2495 C2494 1.369 . S
C2495 C2504 1.429 . S
C2496 C2494 1.419 . S
C2496 C2497 1.363 . S
C2496 H2499 0.929 . S
C2497 C2496 1.363 . S
C2497 C2503 1.428 . S
H2498 C2494 0.930 . S
H2499 C2496 0.929 . S
S2500 N2501 1.613 1_655 S
S2500 N2502 1.610 1_655 S
N2501 S2500 1.613 1_455 S
N2501 C2504 1.350 . S
N2502 S2500 1.610 1_455 S
N2502 C2503 1.351 . S
C2503 C2497 1.428 . S
C2503 N2502 1.351 . S
C2503 C2504 1.434 . S
C2504 C2495 1.429 . S
C2504 N2501 1.350 . S
C2504 C2503 1.434 . S
C2505 C2506 1.369 . S
C2505 C2507 1.419 . S
C2505 H2509 0.930 . S
C2506 C2505 1.369 . S
C2506 C2515 1.429 . S
C2507 C2505 1.419 . S
C2507 C2508 1.363 . S
C2507 H2510 0.929 . S
C2508 C2507 1.363 . S
C2508 C2514 1.428 . S
H2509 C2505 0.930 . S
H2510 C2507 0.929 . S
S2511 N2512 1.613 . S
S2511 N2513 1.610 . S
N2512 S2511 1.613 . S
N2512 C2515 1.350 . S
N2513 S2511 1.610 . S
N2513 C2514 1.351 . S
C2514 C2508 1.428 . S
C2514 N2513 1.351 . S
C2514 C2515 1.434 . S
C2515 C2506 1.429 . S
C2515 N2512 1.350 . S
C2515 C2514 1.434 . S
C2516 C2517 1.369 . S
C2516 C2518 1.419 . S
C2516 H2520 0.930 . S
C2517 C2516 1.369 . S
C2517 C2526 1.429 . S
C2518 C2516 1.419 . S
C2518 C2519 1.363 . S
C2518 H2521 0.929 . S
C2519 C2518 1.363 . S
C2519 C2525 1.428 . S
H2520 C2516 0.930 . S
H2521 C2518 0.929 . S
S2522 N2523 1.613 . S
S2522 N2524 1.610 . S
N2523 S2522 1.613 . S
N2523 C2526 1.350 . S
N2524 S2522 1.610 . S
N2524 C2525 1.351 . S
C2525 C2519 1.428 . S
C2525 N2524 1.351 . S
C2525 C2526 1.434 . S
C2526 C2517 1.429 . S
C2526 N2523 1.350 . S
C2526 C2525 1.434 . S
C2527 C2528 1.369 . S
C2527 C2529 1.419 . S
C2527 H2531 0.930 . S
C2528 C2527 1.369 . S
C2528 C2537 1.429 . S
C2529 C2527 1.419 . S
C2529 C2530 1.363 . S
C2529 H2532 0.929 . S
C2530 C2529 1.363 . S
C2530 C2536 1.428 . S
H2531 C2527 0.930 . S
H2532 C2529 0.929 . S
S2533 N2534 1.613 . S
S2533 N2535 1.610 . S
N2534 S2533 1.613 . S
N2534 C2537 1.350 . S
N2535 S2533 1.610 . S
N2535 C2536 1.351 . S
C2536 C2530 1.428 . S
C2536 N2535 1.351 . S
C2536 C2537 1.434 . S
C2537 C2528 1.429 . S
C2537 N2534 1.350 . S
C2537 C2536 1.434 . S
C2538 C2539 1.369 . S
C2538 C2540 1.419 . S
C2538 H2542 0.930 . S
C2539 C2538 1.369 . S
C2539 C2548 1.429 . S
C2540 C2538 1.419 . S
C2540 C2541 1.363 . S
C2540 H2543 0.929 . S
C2541 C2540 1.363 . S
C2541 C2547 1.428 . S
H2542 C2538 0.930 . S
H2543 C2540 0.929 . S
S2544 N2545 1.613 . S
S2544 N2546 1.610 . S
N2545 S2544 1.613 . S
N2545 C2548 1.350 . S
N2546 S2544 1.610 . S
N2546 C2547 1.351 . S
C2547 C2541 1.428 . S
C2547 N2546 1.351 . S
C2547 C2548 1.434 . S
C2548 C2539 1.429 . S
C2548 N2545 1.350 . S
C2548 C2547 1.434 . S
C2549 C2550 1.369 . S
C2549 C2551 1.419 . S
C2549 H2553 0.930 . S
C2550 C2549 1.369 . S
C2550 C2559 1.429 . S
C2551 C2549 1.419 . S
C2551 C2552 1.363 . S
C2551 H2554 0.929 . S
C2552 C2551 1.363 . S
C2552 C2558 1.428 . S
H2553 C2549 0.930 . S
H2554 C2551 0.929 . S
S2555 N2556 1.613 . S
S2555 N2557 1.610 . S
N2556 S2555 1.613 . S
N2556 C2559 1.350 . S
N2557 S2555 1.610 . S
N2557 C2558 1.351 . S
C2558 C2552 1.428 . S
C2558 N2557 1.351 . S
C2558 C2559 1.434 . S
C2559 C2550 1.429 . S
C2559 N2556 1.350 . S
C2559 C2558 1.434 . S
C2560 C2561 1.369 . S
C2560 C2562 1.419 . S
C2560 H2564 0.930 . S
C2561 C2560 1.369 . S
C2561 C2570 1.429 . S
C2562 C2560 1.419 . S
C2562 C2563 1.363 . S
C2562 H2565 0.929 . S
C2563 C2562 1.363 . S
C2563 C2569 1.428 . S
H2564 C2560 0.930 . S
H2565 C2562 0.929 . S
S2566 N2567 1.613 . S
S2566 N2568 1.610 . S
N2567 S2566 1.613 . S
N2567 C2570 1.350 . S
N2568 S2566 1.610 . S
N2568 C2569 1.351 . S
C2569 C2563 1.428 . S
C2569 N2568 1.351 . S
C2569 C2570 1.434 . S
C2570 C2561 1.429 . S
C2570 N2567 1.350 . S
C2570 C2569 1.434 . S
C2571 C2572 1.369 . S
C2571 C2573 1.419 . S
C2571 H2575 0.930 . S
C2572 C2571 1.369 . S
C2572 C2581 1.429 . S
C2573 C2571 1.419 . S
C2573 C2574 1.363 . S
C2573 H2576 0.929 . S
C2574 C2573 1.363 . S
C2574 C2580 1.428 . S
H2575 C2571 0.930 . S
H2576 C2573 0.929 . S
S2577 N2578 1.613 . S
S2577 N2579 1.610 . S
N2578 S2577 1.613 . S
N2578 C2581 1.350 . S
N2579 S2577 1.610 . S
N2579 C2580 1.351 . S
C2580 C2574 1.428 . S
C2580 N2579 1.351 . S
C2580 C2581 1.434 . S
C2581 C2572 1.429 . S
C2581 N2578 1.350 . S
C2581 C2580 1.434 . S
C2582 C2583 1.369 . S
C2582 C2584 1.419 . S
C2582 H2586 0.930 . S
C2583 C2582 1.369 . S
C2583 C2592 1.429 . S
C2584 C2582 1.419 . S
C2584 C2585 1.363 . S
C2584 H2587 0.929 1_655 S
C2585 C2584 1.363 . S
C2585 C2591 1.428 1_556 S
H2586 C2582 0.930 . S
H2587 C2584 0.929 1_455 S
S2588 N2589 1.613 1_554 S
S2588 N2590 1.610 . S
N2589 S2588 1.613 1_556 S
N2589 C2592 1.350 . S
N2590 S2588 1.610 . S
N2590 C2591 1.351 . S
C2591 C2585 1.428 1_554 S
C2591 N2590 1.351 . S
C2591 C2592 1.434 1_554 S
C2592 C2583 1.429 . S
C2592 N2589 1.350 . S
C2592 C2591 1.434 1_556 S
C2593 C2594 1.369 . S
C2593 C2595 1.419 . S
C2593 H2597 0.930 . S
C2594 C2593 1.369 . S
C2594 C2603 1.429 . S
C2595 C2593 1.419 . S
C2595 C2596 1.363 . S
C2595 H2598 0.929 . S
C2596 C2595 1.363 . S
C2596 C2602 1.428 . S
H2597 C2593 0.930 . S
H2598 C2595 0.929 . S
S2599 N2600 1.613 . S
S2599 N2601 1.610 . S
N2600 S2599 1.613 . S
N2600 C2603 1.350 . S
N2601 S2599 1.610 . S
N2601 C2602 1.351 . S
C2602 C2596 1.428 . S
C2602 N2601 1.351 . S
C2602 C2603 1.434 . S
C2603 C2594 1.429 . S
C2603 N2600 1.350 . S
C2603 C2602 1.434 . S
C2604 C2605 1.369 . S
C2604 C2606 1.419 . S
C2604 H2608 0.930 . S
C2605 C2604 1.369 . S
C2605 C2614 1.429 . S
C2606 C2604 1.419 . S
C2606 C2607 1.363 . S
C2606 H2609 0.929 . S
C2607 C2606 1.363 . S
C2607 C2613 1.428 . S
H2608 C2604 0.930 . S
H2609 C2606 0.929 . S
S2610 N2611 1.613 . S
S2610 N2612 1.610 . S
N2611 S2610 1.613 . S
N2611 C2614 1.350 . S
N2612 S2610 1.610 . S
N2612 C2613 1.351 . S
C2613 C2607 1.428 . S
C2613 N2612 1.351 . S
C2613 C2614 1.434 . S
C2614 C2605 1.429 . S
C2614 N2611 1.350 . S
C2614 C2613 1.434 . S
C2615 C2616 1.369 . S
C2615 C2617 1.419 . S
C2615 H2619 0.930 . S
C2616 C2615 1.369 . S
C2616 C2625 1.429 . S
C2617 C2615 1.419 . S
C2617 C2618 1.363 . S
C2617 H2620 0.929 . S
C2618 C2617 1.363 . S
C2618 C2624 1.428 . S
H2619 C2615 0.930 . S
H2620 C2617 0.929 . S
S2621 N2622 1.613 . S
S2621 N2623 1.610 . S
N2622 S2621 1.613 . S
N2622 C2625 1.350 . S
N2623 S2621 1.610 . S
N2623 C2624 1.351 . S
C2624 C2618 1.428 . S
C2624 N2623 1.351 . S
C2624 C2625 1.434 . S
C2625 C2616 1.429 . S
C2625 N2622 1.350 . S
C2625 C2624 1.434 . S
C2626 C2627 1.369 . S
C2626 C2628 1.419 . S
C2626 H2630 0.930 . S
C2627 C2626 1.369 . S
C2627 C2636 1.429 . S
C2628 C2626 1.419 . S
C2628 C2629 1.363 . S
C2628 H2631 0.929 . S
C2629 C2628 1.363 . S
C2629 C2635 1.428 . S
H2630 C2626 0.930 . S
H2631 C2628 0.929 . S
S2632 N2633 1.613 . S
S2632 N2634 1.610 . S
N2633 S2632 1.613 . S
N2633 C2636 1.350 . S
N2634 S2632 1.610 . S
N2634 C2635 1.351 . S
C2635 C2629 1.428 . S
C2635 N2634 1.351 . S
C2635 C2636 1.434 . S
C2636 C2627 1.429 . S
C2636 N2633 1.350 . S
C2636 C2635 1.434 . S
C2637 C2638 1.369 . S
C2637 C2639 1.419 . S
C2637 H2641 0.930 . S
C2638 C2637 1.369 . S
C2638 C2647 1.429 . S
C2639 C2637 1.419 . S
C2639 C2640 1.363 . S
C2639 H2642 0.929 . S
C2640 C2639 1.363 . S
C2640 C2646 1.428 . S
H2641 C2637 0.930 . S
H2642 C2639 0.929 . S
S2643 N2644 1.613 . S
S2643 N2645 1.610 . S
N2644 S2643 1.613 . S
N2644 C2647 1.350 . S
N2645 S2643 1.610 . S
N2645 C2646 1.351 . S
C2646 C2640 1.428 . S
C2646 N2645 1.351 . S
C2646 C2647 1.434 . S
C2647 C2638 1.429 . S
C2647 N2644 1.350 . S
C2647 C2646 1.434 . S
C2648 C2649 1.369 . S
C2648 C2650 1.419 . S
C2648 H2652 0.930 . S
C2649 C2648 1.369 . S
C2649 C2658 1.429 . S
C2650 C2648 1.419 . S
C2650 C2651 1.363 . S
C2650 H2653 0.929 . S
C2651 C2650 1.363 . S
C2651 C2657 1.428 . S
H2652 C2648 0.930 . S
H2653 C2650 0.929 . S
S2654 N2655 1.613 . S
S2654 N2656 1.610 . S
N2655 S2654 1.613 . S
N2655 C2658 1.350 . S
N2656 S2654 1.610 . S
N2656 C2657 1.351 . S
C2657 C2651 1.428 . S
C2657 N2656 1.351 . S
C2657 C2658 1.434 . S
C2658 C2649 1.429 . S
C2658 N2655 1.350 . S
C2658 C2657 1.434 . S
C2659 C2660 1.369 . S
C2659 C2661 1.419 . S
C2659 H2663 0.930 . S
C2660 C2659 1.369 . S
C2660 C2669 1.429 . S
C2661 C2659 1.419 . S
C2661 C2662 1.363 . S
C2661 H2664 0.929 1_565 S
C2662 C2661 1.363 . S
C2662 C2668 1.428 . S
H2663 C2659 0.930 . S
H2664 C2661 0.929 1_545 S
S2665 N2666 1.613 . S
S2665 N2667 1.610 . S
N2666 S2665 1.613 . S
N2666 C2669 1.350 . S
N2667 S2665 1.610 . S
N2667 C2668 1.351 . S
C2668 C2662 1.428 . S
C2668 N2667 1.351 . S
C2668 C2669 1.434 . S
C2669 C2660 1.429 . S
C2669 N2666 1.350 . S
C2669 C2668 1.434 . S
C2670 C2671 1.369 . S
C2670 C2672 1.419 . S
C2670 H2674 0.930 . S
C2671 C2670 1.369 . S
C2671 C2680 1.429 . S
C2672 C2670 1.419 . S
C2672 C2673 1.363 . S
C2672 H2675 0.929 . S
C2673 C2672 1.363 . S
C2673 C2679 1.428 . S
H2674 C2670 0.930 . S
H2675 C2672 0.929 . S
S2676 N2677 1.613 . S
S2676 N2678 1.610 . S
N2677 S2676 1.613 . S
N2677 C2680 1.350 . S
N2678 S2676 1.610 . S
N2678 C2679 1.351 . S
C2679 C2673 1.428 . S
C2679 N2678 1.351 . S
C2679 C2680 1.434 . S
C2680 C2671 1.429 . S
C2680 N2677 1.350 . S
C2680 C2679 1.434 . S
C2681 C2682 1.369 . S
C2681 C2683 1.419 . S
C2681 H2685 0.930 . S
C2682 C2681 1.369 . S
C2682 C2691 1.429 . S
C2683 C2681 1.419 . S
C2683 C2684 1.363 . S
C2683 H2686 0.929 . S
C2684 C2683 1.363 . S
C2684 C2690 1.428 . S
H2685 C2681 0.930 . S
H2686 C2683 0.929 . S
S2687 N2688 1.613 . S
S2687 N2689 1.610 . S
N2688 S2687 1.613 . S
N2688 C2691 1.350 . S
N2689 S2687 1.610 . S
N2689 C2690 1.351 . S
C2690 C2684 1.428 . S
C2690 N2689 1.351 . S
C2690 C2691 1.434 . S
C2691 C2682 1.429 . S
C2691 N2688 1.350 . S
C2691 C2690 1.434 . S
C2692 C2693 1.369 . S
C2692 C2694 1.419 . S
C2692 H2696 0.930 . S
C2693 C2692 1.369 . S
C2693 C2702 1.429 . S
C2694 C2692 1.419 . S
C2694 C2695 1.363 . S
C2694 H2697 0.929 . S
C2695 C2694 1.363 . S
C2695 C2701 1.428 . S
H2696 C2692 0.930 . S
H2697 C2694 0.929 . S
S2698 N2699 1.613 . S
S2698 N2700 1.610 . S
N2699 S2698 1.613 . S
N2699 C2702 1.350 . S
N2700 S2698 1.610 . S
N2700 C2701 1.351 . S
C2701 C2695 1.428 . S
C2701 N2700 1.351 . S
C2701 C2702 1.434 . S
C2702 C2693 1.429 . S
C2702 N2699 1.350 . S
C2702 C2701 1.434 . S
C2703 C2704 1.369 . S
C2703 C2705 1.419 . S
C2703 H2707 0.930 . S
C2704 C2703 1.369 . S
C2704 C2713 1.429 . S
C2705 C2703 1.419 . S
C2705 C2706 1.363 . S
C2705 H2708 0.929 . S
C2706 C2705 1.363 . S
C2706 C2712 1.428 . S
H2707 C2703 0.930 . S
H2708 C2705 0.929 . S
S2709 N2710 1.613 . S
S2709 N2711 1.610 . S
N2710 S2709 1.613 . S
N2710 C2713 1.350 . S
N2711 S2709 1.610 . S
N2711 C2712 1.351 . S
C2712 C2706 1.428 . S
C2712 N2711 1.351 . S
C2712 C2713 1.434 . S
C2713 C2704 1.429 . S
C2713 N2710 1.350 . S
C2713 C2712 1.434 . S
C2714 C2715 1.369 . S
C2714 C2716 1.419 . S
C2714 H2718 0.930 . S
C2715 C2714 1.369 . S
C2715 C2724 1.429 . S
C2716 C2714 1.419 . S
C2716 C2717 1.363 . S
C2716 H2719 0.929 . S
C2717 C2716 1.363 . S
C2717 C2723 1.428 . S
H2718 C2714 0.930 . S
H2719 C2716 0.929 . S
S2720 N2721 1.613 . S
S2720 N2722 1.610 . S
N2721 S2720 1.613 . S
N2721 C2724 1.350 . S
N2722 S2720 1.610 . S
N2722 C2723 1.351 . S
C2723 C2717 1.428 . S
C2723 N2722 1.351 . S
C2723 C2724 1.434 . S
C2724 C2715 1.429 . S
C2724 N2721 1.350 . S
C2724 C2723 1.434 . S
C2725 C2726 1.369 . S
C2725 C2727 1.419 . S
C2725 H2729 0.930 . S
C2726 C2725 1.369 . S
C2726 C2735 1.429 . S
C2727 C2725 1.419 . S
C2727 C2728 1.363 . S
C2727 H2730 0.929 . S
C2728 C2727 1.363 . S
C2728 C2734 1.428 . S
H2729 C2725 0.930 . S
H2730 C2727 0.929 . S
S2731 N2732 1.613 . S
S2731 N2733 1.610 . S
N2732 S2731 1.613 . S
N2732 C2735 1.350 . S
N2733 S2731 1.610 . S
N2733 C2734 1.351 . S
C2734 C2728 1.428 . S
C2734 N2733 1.351 . S
C2734 C2735 1.434 . S
C2735 C2726 1.429 . S
C2735 N2732 1.350 . S
C2735 C2734 1.434 . S
C1681 C106 2.545 1_454 S
C1683 C392 2.614 . S
C1692 C65 1.956 . S
C1694 C494 1.953 . S
C1703 C79 2.156 . S
C1705 C560 2.181 . S
C1716 C646 1.180 . S
C1714 C90 1.199 . S
C1725 C21 1.244 . S
C1727 C730 1.205 . S
C1738 C812 1.865 . S
C1736 C35 1.852 . S
C1749 C914 2.017 . S
C1747 C50 2.019 . S
C1758 C6 2.151 . S
C1760 C980 2.222 . S
C1771 C410 2.070 . S
C1769 C232 2.086 . S
C1780 C245 0.997 . S
C1782 C478 0.979 . S
C1793 C578 1.359 . S
C1791 C274 1.369 . S
C1804 C644 1.660 . S
C1802 C175 1.621 . S
C1813 C231 1.502 . S
C1815 C728 1.531 . S
C1826 C830 1.315 . S
C1824 C246 1.316 . S
C1837 C898 0.901 . S
C1835 C273 0.913 . S
C1848 C998 2.003 . S
C1846 C176 2.024 . S
C1859 C394 1.321 . S
C1857 C160 1.208 . S
C1868 C289 1.717 . S
C1870 C1082 1.713 . S
C1881 C1150 1.440 . S
C1879 C328 1.389 . S
C1892 C1232 0.999 . S
C1890 C317 1.004 . S
C1901 C118 1.198 . S
C1903 C982 1.334 . S
C1912 C132 1.383 . S
C1914 C562 1.433 . S
C1923 C331 1.766 . S
C1925 C1334 1.754 . S
C1936 C1400 1.056 . S
C1934 C303 1.054 . S
C1947 C403 2.281 . S
C1945 C63 2.274 . S
C1958 C1407 2.405 . S
C1956 C107 2.316 . S
C1967 C92 2.039 . S
C1969 C571 2.105 . S
C1978 C78 1.711 . S
C1980 C1329 1.562 . S
C1991 C741 1.563 . S
C1989 C8 1.711 . S
C2000 C51 2.035 . S
C2002 C1159 2.105 . S
C2013 C903 2.406 1_556 S
C2011 C37 2.318 . S
C2024 C1495 2.280 . S
C2022 C20 2.276 . S
C2035 C399 1.884 1_556 S
C2033 C147 1.898 . S
C2046 C1413 1.095 . S
C2044 C316 1.162 . S
C2055 C119 1.239 . S
C2057 C567 1.347 . S
C2066 C288 1.792 . S
C2068 C1327 1.813 . S
C2077 C148 1.795 . S
C2079 C739 1.814 . S
C2090 C1155 1.351 . S
C2088 C315 1.241 . S
C2099 C120 1.161 . S
C2101 C909 1.096 . S
C2110 C287 1.898 . S
C2112 C1491 1.884 . S
C2121 C188 1.123 . S
C2123 C405 1.165 . S
C2132 C177 1.971 . S
C2134 C1071 2.011 . S
C2143 C258 1.457 . S
C2145 C825 1.450 . S
C2154 C247 1.031 . S
C2156 C1243 1.038 . S
C2167 C1497 1.164 . S
C2165 C272 1.122 . S
C2176 C216 1.321 . S
C2178 C573 1.347 . S
C2189 C651 2.011 . S
C2187 C261 1.972 . S
C2200 C487 1.037 . S
C2198 C205 1.030 . S
C2209 C76 2.154 . S
C2211 C1568 2.221 . S
C2222 C1418 2.016 . S
C2220 C93 2.019 . S
C2231 C105 1.852 . S
C2233 C1652 1.866 . S
C2242 C62 1.234 1_655 S
C2244 C1318 1.205 . S
C2253 C49 1.203 . S
C2255 C1066 1.175 . S
C2266 C1148 2.183 . S
C2264 C9 2.157 . S
C2277 C1250 1.953 . S
C2275 C22 1.954 . S
C2288 C1484 2.612 . S
C2286 C36 2.547 . S
C2299 C1586 2.005 . S
C2297 C260 2.022 . S
C2308 C189 0.932 1_556 S
C2310 C1402 0.895 . S
C2321 C1670 1.312 . S
C2319 C204 1.322 . S
C2332 C1316 1.531 . S
C2330 C217 1.504 . S
C2343 C1064 1.661 . S
C2341 C259 1.617 . S
C2352 C190 1.365 . S
C2354 C1166 1.359 . S
C2365 C1234 0.980 . S
C2363 C203 0.979 . S
C2374 C218 2.087 . S
C2376 C1502 2.069 . S
C2387 C1570 1.330 . S
C2385 C314 1.192 . S
C2396 C135 1.765 . S
C2398 C746 1.753 . S
C2409 C814 1.464 . S
C2407 C146 1.381 1_565 S
C2420 C896 1.056 . S
C2418 C163 1.054 . S
C2431 C1486 1.316 . S
C2429 C300 1.209 . S
C2440 C286 1.380 . S
C2442 C1654 1.457 . S
C2453 C662 1.713 . S
C2451 C149 1.717 . S
C2464 C476 1.000 . S
C2462 C121 1.005 . S
C2473 C91 2.271 . S
C2475 C1579 2.279 . S
C2486 C483 2.022 . S
C2484 C77 1.866 . S
C2495 C64 2.020 . S
C2497 C1663 2.097 . S
C2506 C104 1.383 . S
C2508 C657 1.353 . S
C2517 C34 1.381 . S
C2519 C1077 1.363 . S
C2530 C823 2.098 . S
C2528 C23 2.021 . S
C2539 C7 1.866 . S
C2541 C1239 2.022 . S
C2550 C48 2.274 . S
C2552 C991 2.278 . S
C2563 C1575 1.845 . S
C2561 C329 1.867 . S
C2572 C162 1.198 . S
C2574 C489 1.109 . S
C2585 C1659 1.314 1_656 S
C2583 C301 1.229 . S
C2594 C134 1.803 . S
C2596 C655 1.827 . S
C2605 C330 1.804 . S
C2607 C1075 1.828 . S
C2618 C819 1.312 . S
C2616 C161 1.234 . S
C2627 C302 1.196 . S
C2629 C1245 1.115 . S
C2640 C987 1.841 . S
C2638 C133 1.868 . S
C2651 C1581 1.239 . S
C2649 C244 1.219 . S
C2662 C735 1.994 1_565 S
C2660 C219 1.934 . S
C2671 C230 1.319 . S
C2673 C1161 1.347 . S
C2684 C907 1.012 . S
C2682 C191 1.002 . S
C2693 C202 1.218 . S
C2695 C993 1.233 . S
C2704 C174 1.459 . S
C2706 C1665 1.441 . S
C2717 C1323 1.995 . S
C2715 C233 1.937 . S
C2728 C1411 1.011 . S
C2726 C275 0.998 . S
