# Generated by pormake.
# Topology ocu, (6,8)-cn, num edge types: 1
# Building blocks:
#     Node 0, Type 0, BuildingBlock: NUHQIS_clean_sbu_0, # of connection points: 6
#     Node 1, Type 0, BuildingBlock: NUHQIS_clean_sbu_0, # of connection points: 6
#     Node 2, Type 0, BuildingBlock: NUHQIS_clean_sbu_0, # of connection points: 6
#     Node 3, Type 0, BuildingBlock: NUHQIS_clean_sbu_0, # of connection points: 6
#     Node 4, Type 0, BuildingBlock: NUHQIS_clean_sbu_0, # of connection points: 6
#     Node 5, Type 0, BuildingBlock: NUHQIS_clean_sbu_0, # of connection points: 6
#     Node 6, Type 0, BuildingBlock: NUHQIS_clean_sbu_0, # of connection points: 6
#     Node 7, Type 0, BuildingBlock: NUHQIS_clean_sbu_0, # of connection points: 6
#     Node 8, Type 1, BuildingBlock: VETTIZ_charged_sbu_0, # of connection points: 8
#     Node 9, Type 1, BuildingBlock: VETTIZ_charged_sbu_0, # of connection points: 8
#     Node 10, Type 1, BuildingBlock: VETTIZ_charged_sbu_0, # of connection points: 8
#     Node 11, Type 1, BuildingBlock: VETTIZ_charged_sbu_0, # of connection points: 8
#     Node 12, Type 1, BuildingBlock: VETTIZ_charged_sbu_0, # of connection points: 8
#     Node 13, Type 1, BuildingBlock: VETTIZ_charged_sbu_0, # of connection points: 8
#     Edge 14, Type (0, 1), BuildingBlock: MIFKUJ_clean_linker_0, # of connection points: 2
#     Edge 15, Type (0, 1), BuildingBlock: MIFKUJ_clean_linker_0, # of connection points: 2
#     Edge 16, Type (0, 1), BuildingBlock: MIFKUJ_clean_linker_0, # of connection points: 2
#     Edge 17, Type (0, 1), BuildingBlock: MIFKUJ_clean_linker_0, # of connection points: 2
#     Edge 18, Type (0, 1), BuildingBlock: MIFKUJ_clean_linker_0, # of connection points: 2
#     Edge 19, Type (0, 1), BuildingBlock: MIFKUJ_clean_linker_0, # of connection points: 2
#     Edge 20, Type (0, 1), BuildingBlock: MIFKUJ_clean_linker_0, # of connection points: 2
#     Edge 21, Type (0, 1), BuildingBlock: MIFKUJ_clean_linker_0, # of connection points: 2
#     Edge 22, Type (0, 1), BuildingBlock: MIFKUJ_clean_linker_0, # of connection points: 2
#     Edge 23, Type (0, 1), BuildingBlock: MIFKUJ_clean_linker_0, # of connection points: 2
#     Edge 24, Type (0, 1), BuildingBlock: MIFKUJ_clean_linker_0, # of connection points: 2
#     Edge 25, Type (0, 1), BuildingBlock: MIFKUJ_clean_linker_0, # of connection points: 2
#     Edge 26, Type (0, 1), BuildingBlock: MIFKUJ_clean_linker_0, # of connection points: 2
#     Edge 27, Type (0, 1), BuildingBlock: MIFKUJ_clean_linker_0, # of connection points: 2
#     Edge 28, Type (0, 1), BuildingBlock: MIFKUJ_clean_linker_0, # of connection points: 2
#     Edge 29, Type (0, 1), BuildingBlock: MIFKUJ_clean_linker_0, # of connection points: 2
#     Edge 30, Type (0, 1), BuildingBlock: MIFKUJ_clean_linker_0, # of connection points: 2
#     Edge 31, Type (0, 1), BuildingBlock: MIFKUJ_clean_linker_0, # of connection points: 2
#     Edge 32, Type (0, 1), BuildingBlock: MIFKUJ_clean_linker_0, # of connection points: 2
#     Edge 33, Type (0, 1), BuildingBlock: MIFKUJ_clean_linker_0, # of connection points: 2
#     Edge 34, Type (0, 1), BuildingBlock: MIFKUJ_clean_linker_0, # of connection points: 2
#     Edge 35, Type (0, 1), BuildingBlock: MIFKUJ_clean_linker_0, # of connection points: 2
#     Edge 36, Type (0, 1), BuildingBlock: MIFKUJ_clean_linker_0, # of connection points: 2
#     Edge 37, Type (0, 1), BuildingBlock: MIFKUJ_clean_linker_0, # of connection points: 2
#     Edge 38, Type (0, 1), BuildingBlock: MIFKUJ_clean_linker_0, # of connection points: 2
#     Edge 39, Type (0, 1), BuildingBlock: MIFKUJ_clean_linker_0, # of connection points: 2
#     Edge 40, Type (0, 1), BuildingBlock: MIFKUJ_clean_linker_0, # of connection points: 2
#     Edge 41, Type (0, 1), BuildingBlock: MIFKUJ_clean_linker_0, # of connection points: 2
#     Edge 42, Type (0, 1), BuildingBlock: MIFKUJ_clean_linker_0, # of connection points: 2
#     Edge 43, Type (0, 1), BuildingBlock: MIFKUJ_clean_linker_0, # of connection points: 2
#     Edge 44, Type (0, 1), BuildingBlock: MIFKUJ_clean_linker_0, # of connection points: 2
#     Edge 45, Type (0, 1), BuildingBlock: MIFKUJ_clean_linker_0, # of connection points: 2
#     Edge 46, Type (0, 1), BuildingBlock: MIFKUJ_clean_linker_0, # of connection points: 2
#     Edge 47, Type (0, 1), BuildingBlock: MIFKUJ_clean_linker_0, # of connection points: 2
#     Edge 48, Type (0, 1), BuildingBlock: MIFKUJ_clean_linker_0, # of connection points: 2
#     Edge 49, Type (0, 1), BuildingBlock: MIFKUJ_clean_linker_0, # of connection points: 2
#     Edge 50, Type (0, 1), BuildingBlock: MIFKUJ_clean_linker_0, # of connection points: 2
#     Edge 51, Type (0, 1), BuildingBlock: MIFKUJ_clean_linker_0, # of connection points: 2
#     Edge 52, Type (0, 1), BuildingBlock: MIFKUJ_clean_linker_0, # of connection points: 2
#     Edge 53, Type (0, 1), BuildingBlock: MIFKUJ_clean_linker_0, # of connection points: 2
#     Edge 54, Type (0, 1), BuildingBlock: MIFKUJ_clean_linker_0, # of connection points: 2
#     Edge 55, Type (0, 1), BuildingBlock: MIFKUJ_clean_linker_0, # of connection points: 2
#     Edge 56, Type (0, 1), BuildingBlock: MIFKUJ_clean_linker_0, # of connection points: 2
#     Edge 57, Type (0, 1), BuildingBlock: MIFKUJ_clean_linker_0, # of connection points: 2
#     Edge 58, Type (0, 1), BuildingBlock: MIFKUJ_clean_linker_0, # of connection points: 2
#     Edge 59, Type (0, 1), BuildingBlock: MIFKUJ_clean_linker_0, # of connection points: 2
#     Edge 60, Type (0, 1), BuildingBlock: MIFKUJ_clean_linker_0, # of connection points: 2
#     Edge 61, Type (0, 1), BuildingBlock: MIFKUJ_clean_linker_0, # of connection points: 2
# Relax obj value: 0.106
# Max RMSD: 0.203
# Mean RMSD: 0.125
data_MOF--net-ocu--node1-NUHQIS_clean_sbu_0--node2-VETTIZ_charged_sbu_0--edge1-MIFKUJ_clean_linker_0
_symmetry_space_group_name_H-M    P1
_symmetry_Int_Tables_number       1
_symmetry_cell_setting            triclinic
loop_
_symmetry_equiv_pos_as_xyz
'x, y, z'
_cell_length_a     49.763303
_cell_length_b     52.08794
_cell_length_c     52.170326
_cell_angle_alpha  95.238357
_cell_angle_beta   87.243222
_cell_angle_gamma 101.91329
loop_
_atom_site_label
_atom_site_type_symbol
_atom_site_fract_x
_atom_site_fract_y
_atom_site_fract_z
_atom_type_partial_charge
Tb0 Tb 0.25606 0.26922 0.25328 0.0
Eu1 Eu 0.29847 0.28646 0.29635 0.0
C2 C 0.31159 0.24126 0.24653 0.0
C3 C 0.24819 0.23559 0.30188 0.0
C4 C 0.22567 0.28446 0.19893 0.0
C5 C 0.22321 0.29956 0.15669 0.0
C6 C 0.21871 0.27908 0.17304 0.0
C7 C 0.23754 0.31027 0.20817 0.0
C8 C 0.24278 0.33037 0.19186 0.0
C9 C 0.23527 0.32545 0.16604 0.0
C10 C 0.22461 0.26346 0.21601 0.0
O11 O 0.23583 0.29992 0.27874 0.0
O12 O 0.26561 0.31236 0.31142 0.0
O13 O 0.30886 0.32123 0.27243 0.0
O14 O 0.28744 0.29976 0.23691 0.0
C15 C 0.24198 0.31443 0.30133 0.0
O16 O 0.30802 0.29471 0.33694 0.0
O17 O 0.34104 0.29779 0.30819 0.0
O18 O 0.32002 0.2569 0.26784 0.0
O19 O 0.28625 0.24205 0.23906 0.0
O20 O 0.2389 0.23936 0.27967 0.0
O21 O 0.27113 0.25004 0.31083 0.0
C22 C 0.30452 0.31985 0.24782 0.0
O23 O 0.24681 0.254 0.2152 0.0
O24 O 0.21684 0.26893 0.23965 0.0
C25 C 0.34581 0.27775 0.3456 0.0
C26 C 0.361 0.23929 0.37286 0.0
C27 C 0.36476 0.26555 0.38351 0.0
C28 C 0.35707 0.2847 0.36995 0.0
C29 C 0.34263 0.25172 0.33474 0.0
C30 C 0.35027 0.23268 0.3482 0.0
C31 C 0.33428 0.29645 0.33257 0.0
H32 H 0.21688 0.29521 0.13693 0.0
H33 H 0.21001 0.25918 0.1655 0.0
H34 H 0.24331 0.3149 0.22805 0.0
H35 H 0.25264 0.34987 0.1996 0.0
H36 H 0.37292 0.27109 0.40256 0.0
H37 H 0.35921 0.30467 0.3787 0.0
H38 H 0.33358 0.24595 0.31608 0.0
H39 H 0.34764 0.21272 0.33932 0.0
Tb40 Tb 0.7955 0.26379 0.28458 0.0
Eu41 Eu 0.75125 0.30316 0.28506 0.0
C42 C 0.75073 0.25632 0.2424 0.0
C43 C 0.80774 0.31316 0.25087 0.0
C44 C 0.84612 0.2216 0.29747 0.0
C45 C 0.88142 0.19614 0.30001 0.0
C46 C 0.86666 0.20949 0.28562 0.0
C47 C 0.84067 0.22065 0.32401 0.0
C48 C 0.85544 0.20724 0.33847 0.0
C49 C 0.87584 0.19467 0.32656 0.0
C50 C 0.83027 0.23436 0.28145 0.0
O51 O 0.80847 0.2945 0.3153 0.0
O52 O 0.76882 0.31032 0.32395 0.0
O53 O 0.73002 0.2671 0.30517 0.0
O54 O 0.76698 0.25087 0.31656 0.0
C55 C 0.79307 0.3076 0.33039 0.0
O56 O 0.74102 0.34214 0.28607 0.0
O57 O 0.70869 0.30717 0.28559 0.0
O58 O 0.74806 0.28074 0.2466 0.0
O59 O 0.7636 0.2451 0.25814 0.0
O60 O 0.80821 0.28814 0.25223 0.0
O61 O 0.79053 0.32448 0.26564 0.0
C62 C 0.7407 0.25198 0.31904 0.0
O63 O 0.80376 0.22574 0.28175 0.0
O64 O 0.83678 0.25996 0.28217 0.0
C65 C 0.70136 0.34147 0.26289 0.0
C66 C 0.67249 0.35594 0.22333 0.0
C67 C 0.67147 0.36819 0.24846 0.0
C68 C 0.68577 0.36092 0.26812 0.0
C69 C 0.70283 0.3295 0.23781 0.0
C70 C 0.68842 0.33657 0.21823 0.0
C71 C 0.71479 0.3325 0.28375 0.0
H72 H 0.89671 0.1864 0.2902 0.0
H73 H 0.87102 0.21002 0.2651 0.0
H74 H 0.82488 0.23002 0.33343 0.0
H75 H 0.8509 0.20671 0.35896 0.0
H76 H 0.65976 0.38348 0.25291 0.0
H77 H 0.68444 0.3703 0.28742 0.0
H78 H 0.7147 0.31432 0.2335 0.0
H79 H 0.68937 0.3265 0.19921 0.0
Tb80 Tb 0.7628 0.76937 0.2887 0.0
Eu81 Eu 0.81092 0.77603 0.24662 0.0
C82 C 0.76015 0.7272 0.24084 0.0
C83 C 0.81593 0.73864 0.29495 0.0
C84 C 0.71092 0.7756 0.34246 0.0
C85 C 0.68604 0.7773 0.38344 0.0
C86 C 0.69921 0.76346 0.36435 0.0
C87 C 0.70947 0.80179 0.33977 0.0
C88 C 0.69613 0.81563 0.35879 0.0
C89 C 0.68431 0.80353 0.38086 0.0
C90 C 0.72508 0.7607 0.32309 0.0
O91 O 0.78787 0.80617 0.30448 0.0
O92 O 0.82535 0.80942 0.27675 0.0
O93 O 0.78014 0.79988 0.23066 0.0
O94 O 0.74804 0.79793 0.26375 0.0
C95 C 0.81295 0.81753 0.29779 0.0
O96 O 0.85358 0.79115 0.23506 0.0
O97 O 0.82528 0.76966 0.20678 0.0
O98 O 0.78658 0.73489 0.23659 0.0
O99 O 0.74702 0.74003 0.25812 0.0
O100 O 0.79067 0.74277 0.30196 0.0
O101 O 0.82772 0.74998 0.27424 0.0
C102 C 0.75682 0.80638 0.24053 0.0
O103 O 0.72078 0.76297 0.29911 0.0
O104 O 0.75088 0.76185 0.32689 0.0
C105 C 0.86903 0.75951 0.20708 0.0
C106 C 0.90495 0.72398 0.20197 0.0
C107 C 0.91287 0.74906 0.19261 0.0
C108 C 0.89501 0.76675 0.19521 0.0
C109 C 0.86109 0.7345 0.21632 0.0
C110 C 0.87885 0.71693 0.21381 0.0
C111 C 0.85099 0.77847 0.21234 0.0
H112 H 0.67752 0.76756 0.40036 0.0
H113 H 0.70042 0.74328 0.36674 0.0
H114 H 0.71858 0.81148 0.32299 0.0
H115 H 0.69482 0.83569 0.35606 0.0
H116 H 0.93277 0.75492 0.18315 0.0
H117 H 0.90157 0.78611 0.18829 0.0
H118 H 0.84127 0.72869 0.22593 0.0
H119 H 0.87229 0.69796 0.22157 0.0
Tb120 Tb 0.31521 0.74656 0.2933 0.0
Eu121 Eu 0.2701 0.78096 0.28126 0.0
C122 C 0.31642 0.8022 0.32149 0.0
C123 C 0.25929 0.73937 0.32425 0.0
C124 C 0.37813 0.72079 0.28866 0.0
C125 C 0.42409 0.71173 0.28655 0.0
C126 C 0.39947 0.71281 0.30033 0.0
C127 C 0.38169 0.72812 0.26336 0.0
C128 C 0.40633 0.72751 0.24978 0.0
C129 C 0.42769 0.71914 0.26117 0.0
C130 C 0.35289 0.72348 0.30319 0.0
O131 O 0.29766 0.72833 0.2565 0.0
O132 O 0.25577 0.73962 0.26323 0.0
O133 O 0.3006 0.78654 0.24793 0.0
O134 O 0.33646 0.77405 0.26651 0.0
C135 C 0.27159 0.72505 0.2508 0.0
O136 O 0.23375 0.78495 0.26117 0.0
O137 O 0.25225 0.81584 0.28916 0.0
O138 O 0.30531 0.80861 0.30135 0.0
O139 O 0.31472 0.77723 0.32489 0.0
O140 O 0.27791 0.72758 0.31259 0.0
O141 O 0.25659 0.76272 0.31857 0.0
C142 C 0.32654 0.78462 0.24805 0.0
O143 O 0.352 0.74757 0.31162 0.0
O144 O 0.33 0.71147 0.29253 0.0
C145 C 0.20416 0.80506 0.28893 0.0
C146 C 0.1544 0.80479 0.31728 0.0
C147 C 0.1585 0.81506 0.29299 0.0
C148 C 0.18324 0.81517 0.2789 0.0
C149 C 0.19973 0.79403 0.31265 0.0
C150 C 0.17522 0.79391 0.3267 0.0
C151 C 0.23085 0.80624 0.27525 0.0
H152 H 0.44021 0.70497 0.2956 0.0
H153 H 0.39705 0.70737 0.31999 0.0
H154 H 0.3653 0.7342 0.25409 0.0
H155 H 0.40829 0.7327 0.23003 0.0
H156 H 0.14284 0.8235 0.28514 0.0
H157 H 0.18624 0.82359 0.26049 0.0
H158 H 0.21566 0.78626 0.32073 0.0
H159 H 0.17322 0.78643 0.34555 0.0
Tb160 Tb 0.29719 0.75324 0.7731 0.0
Eu161 Eu 0.25419 0.79148 0.78918 0.0
C162 C 0.24093 0.74595 0.74182 0.0
C163 C 0.29928 0.80368 0.74352 0.0
C164 C 0.34919 0.7123 0.77597 0.0
C165 C 0.38752 0.69035 0.77776 0.0
C166 C 0.3706 0.70177 0.76357 0.0
C167 C 0.34504 0.7117 0.80269 0.0
C168 C 0.36175 0.70015 0.8168 0.0
C169 C 0.38299 0.68917 0.80445 0.0
C170 C 0.33116 0.72386 0.7611 0.0
O171 O 0.32021 0.7835 0.8017 0.0
O172 O 0.28547 0.80183 0.82118 0.0
O173 O 0.23836 0.75402 0.80826 0.0
O174 O 0.27812 0.73863 0.80876 0.0
C175 C 0.31137 0.79926 0.82022 0.0
O176 O 0.24541 0.8299 0.8025 0.0
O177 O 0.21191 0.79657 0.79585 0.0
O178 O 0.23891 0.77011 0.7506 0.0
O179 O 0.25967 0.73482 0.75113 0.0
O180 O 0.30111 0.77883 0.74186 0.0
O181 O 0.28538 0.81376 0.76241 0.0
C182 C 0.25241 0.73771 0.81617 0.0
O183 O 0.30492 0.71523 0.76499 0.0
O184 O 0.3372 0.74941 0.76108 0.0
C185 C 0.2053 0.83768 0.78577 0.0
C186 C 0.17969 0.86834 0.7569 0.0
C187 C 0.17378 0.86715 0.78347 0.0
C188 C 0.18655 0.85193 0.7978 0.0
C189 C 0.21111 0.8386 0.75927 0.0
C190 C 0.19841 0.85381 0.74495 0.0
C191 C 0.21892 0.82198 0.8008 0.0
H192 H 0.40377 0.68202 0.76783 0.0
H193 H 0.3741 0.70224 0.74295 0.0
H194 H 0.32878 0.72004 0.8126 0.0
H195 H 0.35816 0.69995 0.83744 0.0
H196 H 0.15965 0.87832 0.79323 0.0
H197 H 0.18192 0.85139 0.81828 0.0
H198 H 0.22551 0.82758 0.74971 0.0
H199 H 0.20307 0.854 0.72446 0.0
Tb200 Tb 0.26547 0.28523 0.75347 0.0
Eu201 Eu 0.27618 0.24284 0.80243 0.0
C202 C 0.31467 0.3034 0.79121 0.0
C203 C 0.3058 0.24359 0.74261 0.0
C204 C 0.22677 0.32297 0.71301 0.0
C205 C 0.21845 0.3534 0.68274 0.0
C206 C 0.23374 0.33573 0.69032 0.0
C207 C 0.20429 0.32867 0.72827 0.0
C208 C 0.18891 0.3464 0.72067 0.0
C209 C 0.19559 0.35888 0.69762 0.0
C210 C 0.24175 0.30224 0.71872 0.0
O211 O 0.24921 0.24901 0.76729 0.0
O212 O 0.23883 0.21402 0.78468 0.0
O213 O 0.24698 0.26989 0.81848 0.0
O214 O 0.24999 0.30265 0.78961 0.0
C215 C 0.23349 0.22601 0.76563 0.0
O216 O 0.27848 0.20576 0.81799 0.0
O217 O 0.29306 0.2424 0.84061 0.0
O218 O 0.30957 0.28031 0.80146 0.0
O219 O 0.30006 0.30977 0.77304 0.0
O220 O 0.29364 0.26162 0.73427 0.0
O221 O 0.3021 0.23539 0.76619 0.0
C222 C 0.24255 0.29293 0.81219 0.0
O223 O 0.26816 0.30937 0.72274 0.0
O224 O 0.22944 0.28422 0.73373 0.0
C225 C 0.31198 0.20477 0.84933 0.0
C226 C 0.34839 0.17992 0.87438 0.0
C227 C 0.32646 0.16497 0.85997 0.0
C228 C 0.30856 0.17718 0.84773 0.0
C229 C 0.33429 0.21987 0.86317 0.0
C230 C 0.35235 0.20761 0.87539 0.0
C231 C 0.2903 0.21685 0.83909 0.0
H232 H 0.22412 0.36214 0.6647 0.0
H233 H 0.25071 0.33149 0.678 0.0
H234 H 0.1983 0.31913 0.74585 0.0
H235 H 0.17174 0.35029 0.73287 0.0
H236 H 0.32289 0.14367 0.8583 0.0
H237 H 0.29147 0.16487 0.83752 0.0
H238 H 0.33743 0.24115 0.86515 0.0
H239 H 0.36882 0.21985 0.88642 0.0
Tb240 Tb 0.79895 0.27011 0.78453 0.0
Eu241 Eu 0.75134 0.30369 0.78768 0.0
C242 C 0.80285 0.32013 0.82214 0.0
C243 C 0.74634 0.25281 0.82361 0.0
C244 C 0.86045 0.24657 0.76141 0.0
C245 C 0.90472 0.23741 0.74688 0.0
C246 C 0.88424 0.23763 0.76614 0.0
C247 C 0.85748 0.25579 0.73747 0.0
C248 C 0.87792 0.25565 0.71826 0.0
C249 C 0.90165 0.24624 0.72268 0.0
C250 C 0.83944 0.24782 0.78181 0.0
O251 O 0.77555 0.25548 0.75016 0.0
O252 O 0.7349 0.2654 0.76544 0.0
O253 O 0.77937 0.32126 0.75425 0.0
O254 O 0.8162 0.30193 0.75843 0.0
C255 C 0.74884 0.25249 0.74892 0.0
O256 O 0.71921 0.31705 0.76871 0.0
O257 O 0.72692 0.329 0.80915 0.0
O258 O 0.78755 0.32957 0.80729 0.0
O259 O 0.80225 0.29482 0.82054 0.0
O260 O 0.76742 0.24618 0.80973 0.0
O261 O 0.73887 0.27531 0.82016 0.0
C262 C 0.80484 0.31897 0.74744 0.0
O263 O 0.83997 0.27135 0.79286 0.0
O264 O 0.81453 0.23564 0.77613 0.0
C265 C 0.68119 0.32104 0.79611 0.0
C266 C 0.62574 0.31099 0.81269 0.0
C267 C 0.64307 0.29423 0.81838 0.0
C268 C 0.67061 0.29916 0.81004 0.0
C269 C 0.66361 0.33672 0.78893 0.0
C270 C 0.63604 0.3317 0.79709 0.0
C271 C 0.71069 0.32835 0.79003 0.0
H272 H 0.92257 0.22964 0.75071 0.0
H273 H 0.88691 0.23072 0.78463 0.0
H274 H 0.83931 0.26305 0.73364 0.0
H275 H 0.8751 0.26276 0.6999 0.0
H276 H 0.63564 0.27812 0.83031 0.0
H277 H 0.68391 0.2866 0.8154 0.0
H278 H 0.67146 0.35353 0.77798 0.0
H279 H 0.62332 0.3452 0.79272 0.0
Tb280 Tb 0.75888 0.77429 0.75977 0.0
Eu281 Eu 0.80266 0.7718 0.80437 0.0
C282 C 0.80521 0.73686 0.74883 0.0
C283 C 0.74503 0.72847 0.79768 0.0
C284 C 0.71478 0.8016 0.71622 0.0
C285 C 0.69809 0.82141 0.68115 0.0
C286 C 0.71102 0.80248 0.68986 0.0
C287 C 0.70569 0.82036 0.73378 0.0
C288 C 0.69267 0.83933 0.72508 0.0
C289 C 0.68854 0.84006 0.6986 0.0
C290 C 0.72749 0.78052 0.72476 0.0
O291 O 0.74127 0.79314 0.79516 0.0
O292 O 0.77865 0.8038 0.82103 0.0
O293 O 0.82566 0.79878 0.7753 0.0
O294 O 0.78841 0.81186 0.76143 0.0
C295 C 0.753 0.8054 0.81648 0.0
O296 O 0.81114 0.77022 0.84496 0.0
O297 O 0.84405 0.77109 0.81647 0.0
O298 O 0.81002 0.7392 0.77376 0.0
O299 O 0.78784 0.75009 0.73986 0.0
O300 O 0.74084 0.73661 0.77528 0.0
O301 O 0.76601 0.73986 0.8118 0.0
C302 C 0.81517 0.8141 0.76173 0.0
O303 O 0.75405 0.78361 0.72193 0.0
O304 O 0.71889 0.77132 0.74672 0.0
C305 C 0.84593 0.74684 0.85314 0.0
C306 C 0.86575 0.70904 0.87923 0.0
C307 C 0.84799 0.72431 0.89185 0.0
C308 C 0.83834 0.74298 0.87902 0.0
C309 C 0.86336 0.73137 0.84032 0.0
C310 C 0.8731 0.71272 0.85319 0.0
C311 C 0.83649 0.76779 0.8404 0.0
H312 H 0.69503 0.82099 0.66069 0.0
H313 H 0.71779 0.78822 0.67594 0.0
H314 H 0.70848 0.82026 0.75424 0.0
H315 H 0.68599 0.85353 0.73911 0.0
H316 H 0.84143 0.72185 0.91172 0.0
H317 H 0.82505 0.75461 0.8895 0.0
H318 H 0.8698 0.73387 0.82042 0.0
H319 H 0.88698 0.70166 0.84284 0.0
Fe320 Fe 0.03918 0.04818 0.52213 0.0
O321 O 1.01119 0.02297 0.54142 0.0
Fe322 Fe 0.09541 0.01848 0.51631 0.0
Fe323 Fe 0.97132 0.01997 0.53934 0.0
O324 O 0.05594 0.01693 0.51246 0.0
O325 O 0.05528 0.01435 0.51307 0.0
O326 O 1.0105 0.02053 0.54185 0.0
Fe327 Fe 0.02723 0.98926 0.53268 0.0
C328 C 0.99875 0.07758 0.55346 0.0
O329 O 0.01638 0.04041 0.48937 0.0
O330 O 0.97472 0.04049 0.50717 0.0
O331 O 0.04915 0.95986 0.52027 0.0
O332 O 0.08716 0.98106 0.49755 0.0
O333 O 0.09864 0.04121 0.48523 0.0
O334 O 0.07094 0.07048 0.4994 0.0
O335 O 0.96336 0.98503 0.51555 0.0
O336 O 1.00426 0.97902 0.49965 0.0
C337 C 0.09032 0.06323 0.48425 0.0
O338 O 0.04944 0.99816 0.56559 0.0
O339 O 0.092 0.99935 0.54959 0.0
O340 O 0.01819 0.07777 0.53577 0.0
O341 O 0.98113 0.05666 0.55967 0.0
C342 C 0.99163 0.04307 0.48802 0.0
C343 C 0.9782 0.97532 0.49815 0.0
C344 C 0.97618 0.9743 0.57073 0.0
O345 O 0.96804 0.99636 0.5697 0.0
O346 O 0.99555 0.96698 0.55564 0.0
C347 C 0.0704 0.96 0.50457 0.0
O348 O 0.1028 0.05434 0.53848 0.0
O349 O 0.06177 0.05778 0.55516 0.0
C350 C 0.07434 0.99671 0.56816 0.0
C351 C 0.08781 0.06349 0.55597 0.0
Fe352 Fe 0.54802 0.97361 0.04786 0.0
O353 O 0.57184 1.0068 0.03648 0.0
Fe354 Fe 0.48612 0.99952 0.06553 0.0
Fe355 Fe 0.61195 0.01403 0.03764 0.0
O356 O 0.5276 1.0016 0.06695 0.0
O357 O 0.52637 1.00688 0.06641 0.0
O358 O 0.57075 0.01129 0.03632 0.0
Fe359 Fe 0.54878 0.03939 0.05197 0.0
C360 C 0.60031 0.96972 0.07942 0.0
O361 O 0.57388 0.95095 0.02278 0.0
O362 O 0.60875 0.98337 1.00824 0.0
O363 O 0.52508 0.03495 0.01969 0.0
O364 O 0.4845 0.0273 0.04005 0.0
O365 O 0.48135 0.97084 0.03444 0.0
O366 O 0.52239 0.96992 0.01548 0.0
O367 O 0.61132 0.04549 0.01442 0.0
O368 O 0.57846 0.06869 0.03124 0.0
C369 C 0.4959 0.96409 0.01515 0.0
O370 O 0.51925 0.06385 0.07405 0.0
O371 O 0.48823 0.03263 0.09428 0.0
O372 O 0.57398 0.96946 0.08005 0.0
O373 O 0.61524 0.9841 0.06309 0.0
C374 C 0.59577 0.95888 1.00764 0.0
C375 C 0.59978 0.06604 0.01553 0.0
C376 C 0.59828 0.04967 0.08588 0.0
O377 O 0.61449 0.04159 0.06872 0.0
O378 O 0.57237 0.04594 0.08375 0.0
C379 C 0.49964 0.03576 0.02104 0.0
O380 O 0.48788 0.96842 0.0873 0.0
O381 O 0.51778 0.94471 0.06444 0.0
C382 C 0.49774 0.05763 0.0908 0.0
C383 C 0.49771 0.94712 0.08121 0.0
Fe384 Fe 0.06488 0.56436 0.02569 0.0
O385 O 0.0586 0.52577 0.02332 0.0
Fe386 Fe 0.09671 0.50818 0.01627 0.0
Fe387 Fe 0.02349 0.50297 0.03677 0.0
O388 O 0.06406 0.52604 0.0261 0.0
O389 O 0.06857 0.47631 1.00137 0.0
O390 O 0.04856 0.48175 0.04434 0.0
Fe391 Fe 0.05024 0.44859 0.02524 0.0
C392 C 0.03684 0.54792 0.07822 0.0
O393 O 0.02739 0.55928 1.00851 0.0
O394 O 0.99754 0.52764 0.02826 0.0
O395 O 0.08422 0.45802 0.99621 0.0
O396 O 0.12441 0.48468 1.00443 0.0
O397 O 0.10086 0.52563 0.98138 0.0
O398 O 0.0848 0.56358 0.99013 0.0
O399 O 0.01434 0.48553 1.00006 0.0
O400 O 0.01935 0.44431 1.00028 0.0
C401 C 0.09697 0.54808 0.97538 0.0
O402 O 0.08176 0.45069 0.04958 0.0
O403 O 0.09712 0.49434 0.05237 0.0
O404 O 0.04615 0.56476 0.06184 0.0
O405 O 0.02993 0.52302 0.07255 0.0
C406 C 1.003 0.54697 0.01386 0.0
C407 C 1.00915 0.46161 0.99101 0.0
C408 C 0.99681 0.4504 0.05996 0.0
O409 O 0.99379 0.47317 0.05287 0.0
O410 O 0.01779 0.43942 0.05288 0.0
C411 C 0.11137 0.46146 0.99664 0.0
O412 O 0.12619 0.53962 0.03229 0.0
O413 O 0.10172 0.57085 0.04364 0.0
C414 C 0.09797 0.47144 0.05868 0.0
C415 C 0.12344 0.56157 0.04446 0.0
Fe416 Fe 0.51873 0.52594 0.98981 0.0
O417 O 0.54828 0.53543 0.01544 0.0
Fe418 Fe 0.45852 0.52228 0.02661 0.0
Fe419 Fe 0.5841 0.52519 1.00934 0.0
O420 O 0.49459 0.51336 0.01967 0.0
O421 O 0.49475 0.51252 0.02197 0.0
O422 O 0.54842 0.53486 0.01778 0.0
Fe423 Fe 0.52421 0.52255 0.04789 0.0
C424 C 0.54791 0.48221 0.97495 0.0
O425 O 0.54816 0.54102 0.96117 0.0
O426 O 0.58881 0.55285 0.98266 0.0
O427 O 0.51615 0.55947 0.05441 0.0
O428 O 0.47035 0.5507 0.05662 0.0
O429 O 0.46527 0.55168 1.00143 0.0
O430 O 0.51059 0.56281 0.9961 0.0
O431 O 0.59462 0.55035 0.04204 0.0
O432 O 0.55909 0.53585 0.07105 0.0
C433 C 0.48682 0.56756 0.99423 0.0
O434 O 0.49415 0.50748 0.07626 0.0
O435 O 0.45385 0.49494 0.05389 0.0
O436 O 0.52591 0.48902 0.98311 0.0
O437 O 0.5714 0.49708 0.97888 0.0
C438 C 0.57368 0.55361 0.96323 0.0
C439 C 0.58352 0.54932 0.06517 0.0
C440 C 0.55618 0.47985 0.04135 0.0
O441 O 0.57758 0.49548 0.03363 0.0
O442 O 0.53252 0.48552 0.04242 0.0
C443 C 0.49348 0.56595 0.06122 0.0
O444 O 0.44893 0.49659 0.99397 0.0
O445 O 0.48467 0.51308 0.96635 0.0
C446 C 0.46885 0.4943 0.0735 0.0
C447 C 0.4608 0.49823 0.97118 0.0
Fe448 Fe 0.02241 0.48317 0.51119 0.0
O449 O 0.02268 0.52126 0.51234 0.0
Fe450 Fe 1.01097 0.53665 0.47694 0.0
Fe451 Fe 1.00522 0.54118 0.54227 0.0
O452 O 0.02417 0.52143 0.50773 0.0
O453 O 0.99294 0.55643 0.50702 0.0
O454 O 0.9914 0.55651 0.51203 0.0
Fe455 Fe 0.99564 0.59555 0.51142 0.0
C456 C 0.97162 0.48668 0.55078 0.0
O457 O 0.04853 0.49554 0.54161 0.0
O458 O 0.02489 0.52206 0.56835 0.0
O459 O 0.02811 0.60198 0.48509 0.0
O460 O 0.04572 0.56571 0.47757 0.0
O461 O 0.03606 0.50949 0.45111 0.0
O462 O 0.05212 0.48589 0.48021 0.0
O463 O 0.04114 0.5703 0.54427 0.0
O464 O 0.02386 0.60565 0.54173 0.0
C465 C 0.05173 0.49216 0.4566 0.0
O466 O 0.97011 0.58822 0.47918 0.0
O467 O 0.98991 0.56026 0.45055 0.0
O468 O 0.99126 0.47658 0.54025 0.0
O469 O 0.96994 0.51026 0.54614 0.0
C470 C 0.04336 0.50731 0.56385 0.0
C471 C 0.04207 0.59475 0.55021 0.0
C472 C 0.96688 0.58256 0.5638 0.0
O473 O 0.98318 0.56642 0.56867 0.0
O474 O 0.96538 0.59015 0.54087 0.0
C475 C 0.04753 0.59041 0.47718 0.0
O476 O 0.97636 0.5073 0.47597 0.0
O477 O 0.99345 0.47203 0.4835 0.0
C478 C 0.97359 0.57822 0.45566 0.0
C479 C 0.97436 0.48254 0.4764 0.0
Fe480 Fe 0.50695 0.01287 0.54541 0.0
O481 O 0.49387 0.04346 0.564 0.0
Fe482 Fe 0.5332 0.03679 0.48734 0.0
Fe483 Fe 0.49227 0.04825 0.60191 0.0
O484 O 0.5301 0.04041 0.52497 0.0
O485 O 0.53114 0.04327 0.52513 0.0
O486 O 0.49493 0.04631 0.56412 0.0
Fe487 Fe 0.51792 0.07407 0.54348 0.0
C488 C 0.46134 0.99307 0.58652 0.0
O489 O 0.53873 0.01668 0.57033 0.0
O490 O 0.51557 0.0204 0.60734 0.0
O491 O 0.54472 0.09893 0.51794 0.0
O492 O 0.56465 0.06958 0.49139 0.0
O493 O 0.55451 1.00826 0.49476 0.0
O494 O 0.52481 0.98472 0.52371 0.0
O495 O 0.52727 0.07716 0.60642 0.0
O496 O 0.54985 0.07987 0.56829 0.0
C497 C 0.54572 0.98761 0.50748 0.0
O498 O 0.4864 0.06936 0.51879 0.0
O499 O 0.50811 0.06243 0.48109 0.0
O500 O 0.48026 0.98801 0.56967 0.0
O501 O 0.46001 0.01646 0.5969 0.0
C502 C 0.53537 0.01324 0.59416 0.0
C503 C 0.54919 0.08337 0.59276 0.0
C504 C 0.47944 0.099 0.58405 0.0
O505 O 0.47179 0.078 0.59638 0.0
O506 O 0.49924 0.10241 0.56632 0.0
C507 C 0.56324 0.09331 0.50065 0.0
O508 O 0.49943 1.00631 0.48301 0.0
O509 O 0.47498 1.00627 0.51998 0.0
C510 C 0.48798 0.06885 0.49438 0.0
C511 C 0.47707 0.99981 0.49589 0.0
H512 H 0.19233 0.21715 0.30248 0.0
H513 H 0.16434 0.18821 0.33259 0.0
H514 H 0.23769 0.18001 0.36888 0.0
H515 H 0.26578 0.20969 0.33945 0.0
H516 H 0.19213 0.12957 0.35377 0.0
H517 H 0.20968 0.21616 0.4009 0.0
H518 H 0.2092 0.26358 0.40637 0.0
H519 H 0.12172 0.24643 0.3981 0.0
H520 H 0.12178 0.1989 0.39204 0.0
H521 H 0.14276 0.06654 0.46493 0.0
H522 H 0.16761 0.09532 0.43374 0.0
H523 H 0.09674 0.12997 0.42804 0.0
H524 H 0.07208 0.10183 0.4606 0.0
H525 H 0.13865 0.16703 0.42514 0.0
H526 H 0.11799 0.08258 0.37969 0.0
H527 H 0.11511 0.03476 0.37113 0.0
H528 H 0.20307 0.04641 0.37168 0.0
H529 H 0.20646 0.09428 0.38059 0.0
C530 C 0.20258 0.20898 0.31667 0.0
C531 C 0.2314 0.21573 0.31839 0.0
C532 C 0.18649 0.19252 0.33399 0.0
C533 C 0.19884 0.18193 0.35311 0.0
C534 C 0.22765 0.18791 0.35434 0.0
C535 C 0.2437 0.2049 0.33746 0.0
C536 C 0.18172 0.165 0.37208 0.0
C537 C 0.18069 0.13777 0.36957 0.0
C538 C 0.16582 0.17545 0.39209 0.0
C539 C 0.16579 0.204 0.39567 0.0
C540 C 0.1904 0.22251 0.39991 0.0
C541 C 0.19019 0.24941 0.40318 0.0
C542 C 0.16547 0.25803 0.40249 0.0
C543 C 0.14088 0.23975 0.39855 0.0
C544 C 0.14099 0.21283 0.3952 0.0
C545 C 0.1323 0.08021 0.45705 0.0
C546 C 0.10518 0.08153 0.46521 0.0
C547 C 0.14658 0.09666 0.43893 0.0
C548 C 0.13403 0.11454 0.42763 0.0
C549 C 0.10706 0.11633 0.43613 0.0
C550 C 0.09287 0.10015 0.45478 0.0
C551 C 0.14929 0.13132 0.40729 0.0
C552 C 0.14994 0.1586 0.40938 0.0
C553 C 0.16436 0.12079 0.38646 0.0
C554 C 0.16246 0.09201 0.38104 0.0
C555 C 0.13671 0.07493 0.37816 0.0
C556 C 0.13499 0.04782 0.37322 0.0
C557 C 0.15889 0.03755 0.37092 0.0
C558 C 0.18457 0.05439 0.37349 0.0
C559 C 0.18641 0.08152 0.37846 0.0
H560 H 0.15751 0.01655 0.3671 0.0
H561 H 0.16536 0.27886 0.40511 0.0
H562 H 0.85442 0.16101 0.36292 0.0
H563 H 0.87849 0.13499 0.38686 0.0
H564 H 0.95467 0.16689 0.34756 0.0
H565 H 0.93068 0.19319 0.32354 0.0
H566 H 0.94835 0.11382 0.35064 0.0
H567 H 0.94392 0.18935 0.40803 0.0
H568 H 0.92223 0.2231 0.43207 0.0
H569 H 0.86902 0.16335 0.47263 0.0
H570 H 0.8901 0.12917 0.44854 0.0
H571 H 0.02371 0.06946 0.45039 0.0
H572 H 1.00785 0.09416 0.4182 0.0
H573 H 0.92381 0.06472 0.44211 0.0
H574 H 0.93927 0.03999 0.47391 0.0
H575 H 0.94031 0.12033 0.44607 0.0
H576 H 0.94398 0.04465 0.38574 0.0
H577 H 0.96718 0.01183 0.362 0.0
H578 H 0.02449 0.07362 0.32783 0.0
H579 H 1.00186 0.10686 0.35169 0.0
C580 C 0.87635 0.16276 0.35958 0.0
C581 C 0.89068 0.17933 0.34149 0.0
C582 C 0.89006 0.14778 0.37317 0.0
C583 C 0.91842 0.14922 0.36915 0.0
C584 C 0.93277 0.16548 0.3509 0.0
C585 C 0.91904 0.18047 0.33723 0.0
C586 C 0.93291 0.13393 0.38439 0.0
C587 C 0.947 0.11552 0.37152 0.0
C588 C 0.9311 0.13615 0.41161 0.0
C589 C 0.91847 0.15666 0.42632 0.0
C590 C 0.92746 0.18338 0.42194 0.0
C591 C 0.91529 0.20259 0.4356 0.0
C592 C 0.89422 0.19537 0.45382 0.0
C593 C 0.88533 0.16891 0.45849 0.0
C594 C 0.8974 0.14961 0.44486 0.0
C595 C 1.00184 0.06769 0.44825 0.0
C596 C 0.98274 0.05315 0.46496 0.0
C597 C 0.99284 0.08185 0.42994 0.0
C598 C 0.96469 0.08148 0.42812 0.0
C599 C 0.94562 0.06545 0.44346 0.0
C600 C 0.95452 0.05132 0.4616 0.0
C601 C 0.9549 0.09966 0.41233 0.0
C602 C 0.94186 0.11879 0.42518 0.0
C603 C 0.95796 0.09823 0.38521 0.0
C604 C 0.97143 0.07826 0.37073 0.0
C605 C 0.96169 0.05126 0.37335 0.0
C606 C 0.9747 0.03257 0.35983 0.0
C607 C 0.99735 0.04064 0.34348 0.0
C608 C 1.00697 0.06741 0.34055 0.0
C609 C 0.99405 0.08618 0.35405 0.0
H610 H 1.00739 0.02615 0.33303 0.0
H611 H 0.88482 0.21027 0.46437 0.0
H612 H 0.80143 0.82957 0.34887 0.0
H613 H 0.83042 0.85947 0.37977 0.0
H614 H 0.88936 0.88358 0.31877 0.0
H615 H 0.86095 0.85267 0.28795 0.0
H616 H 0.91599 0.87579 0.35567 0.0
H617 H 0.84592 0.92508 0.35258 0.0
H618 H 0.7987 0.93309 0.35403 0.0
H619 H 0.78757 0.91202 0.43208 0.0
H620 H 0.83461 0.90356 0.431 0.0
H621 H 0.99457 0.97541 0.44713 0.0
H622 H 0.96881 0.9527 0.41001 0.0
H623 H 0.90496 0.91517 0.4611 0.0
H624 H 0.92971 0.93951 0.49807 0.0
H625 H 0.88298 0.93417 0.42503 0.0
H626 H 0.94392 0.85875 0.40182 0.0
H627 H 0.98865 0.84657 0.39037 0.0
H628 H 0.01744 0.92067 0.35827 0.0
H629 H 0.97229 0.93246 0.36805 0.0
C630 C 0.82032 0.84156 0.34188 0.0
C631 C 0.82874 0.83865 0.31579 0.0
C632 C 0.83694 0.85886 0.35966 0.0
C633 C 0.86217 0.87427 0.3518 0.0
C634 C 0.87013 0.872 0.32555 0.0
C635 C 0.85374 0.85435 0.30783 0.0
C636 C 0.88109 0.89116 0.37113 0.0
C637 C 0.90874 0.88886 0.37059 0.0
C638 C 0.87199 0.90827 0.39084 0.0
C639 C 0.84374 0.9135 0.39163 0.0
C640 C 0.83335 0.922 0.37 0.0
C641 C 0.80662 0.92664 0.37077 0.0
C642 C 0.79013 0.92301 0.39311 0.0
C643 C 0.80036 0.91481 0.41477 0.0
C644 C 0.82707 0.91013 0.41411 0.0
C645 C 0.97525 0.96195 0.45039 0.0
C646 C 0.96429 0.95917 0.47559 0.0
C647 C 0.96061 0.94854 0.42904 0.0
C648 C 0.9351 0.93126 0.43236 0.0
C649 C 0.92459 0.92812 0.45771 0.0
C650 C 0.93878 0.94206 0.47894 0.0
C651 C 0.91781 0.9183 0.40997 0.0
C652 C 0.89028 0.92127 0.40997 0.0
C653 C 0.92715 0.90219 0.38942 0.0
C654 C 0.95533 0.89714 0.38705 0.0
C655 C 0.96003 0.87265 0.39282 0.0
C656 C 0.98524 0.86558 0.38613 0.0
C657 C 1.00602 0.88299 0.37394 0.0
C658 C 1.00148 0.90735 0.36806 0.0
C659 C 0.97605 0.91421 0.3741 0.0
H660 H 0.02558 0.87755 0.36896 0.0
H661 H 0.76944 0.92659 0.39366 0.0
H662 H 0.13021 0.8476 0.32396 0.0
H663 H 0.10146 0.85866 0.36064 0.0
H664 H 0.09657 0.78184 0.38723 0.0
H665 H 0.12478 0.77019 0.35001 0.0
H666 H 0.05106 0.83892 0.39167 0.0
H667 H 0.12123 0.79547 0.44639 0.0
H668 H 0.1628 0.77639 0.43966 0.0
H669 H 0.19557 0.83295 0.38539 0.0
H670 H 0.15434 0.85249 0.39209 0.0
H671 H 0.04036 0.91044 0.51193 0.0
H672 H 0.04657 0.86884 0.48907 0.0
H673 H 0.11859 0.9097 0.44944 0.0
H674 H 0.11307 0.95108 0.47236 0.0
H675 H 0.12103 0.85646 0.45939 0.0
H676 H 0.05747 0.90776 0.42183 0.0
H677 H 0.01798 0.92862 0.4344 0.0
H678 H 0.97194 0.85517 0.45846 0.0
H679 H 1.01125 0.83396 0.44607 0.0
C680 C 0.12194 0.83251 0.3368 0.0
C681 C 0.13044 0.80826 0.33442 0.0
C682 C 0.10539 0.83888 0.35781 0.0
C683 C 0.09729 0.82121 0.37681 0.0
C684 C 0.10277 0.79578 0.3728 0.0
C685 C 0.11917 0.7893 0.35168 0.0
C686 C 0.08994 0.83184 0.40286 0.0
C687 C 0.06591 0.84202 0.40678 0.0
C688 C 0.1092 0.83583 0.42271 0.0
C689 C 0.13473 0.82529 0.41965 0.0
C690 C 0.13744 0.80393 0.43321 0.0
C691 C 0.1609 0.79301 0.42936 0.0
C692 C 0.1818 0.80342 0.41207 0.0
C693 C 0.17938 0.82491 0.39877 0.0
C694 C 0.156 0.83593 0.40261 0.0
C695 C 0.05787 0.91053 0.49876 0.0
C696 C 0.07579 0.93428 0.49347 0.0
C697 C 0.06149 0.88667 0.4859 0.0
C698 C 0.08288 0.8863 0.46743 0.0
C699 C 0.10202 0.90957 0.46373 0.0
C700 C 0.09854 0.93332 0.4766 0.0
C701 C 0.08241 0.86369 0.44805 0.0
C702 C 0.10528 0.85181 0.44505 0.0
C703 C 0.06188 0.85771 0.42936 0.0
C704 C 0.03705 0.86925 0.43273 0.0
C705 C 0.03872 0.896 0.42937 0.0
C706 C 0.0165 0.90794 0.43674 0.0
C707 C 0.99254 0.89325 0.44739 0.0
C708 C 0.99056 0.86651 0.4503 0.0
C709 C 1.01272 0.85449 0.44296 0.0
H710 H 0.97543 0.9025 0.45326 0.0
H711 H 0.19986 0.79484 0.409 0.0
H712 H 0.1259 0.87342 0.7592 0.0
H713 H 0.10423 0.89962 0.7329 0.0
H714 H 0.18197 0.92587 0.69354 0.0
H715 H 0.20388 0.90042 0.72019 0.0
H716 H 0.15557 0.96575 0.70496 0.0
H717 H 0.13424 0.87646 0.66705 0.0
H718 H 0.11561 0.82873 0.66663 0.0
H719 H 0.03514 0.8436 0.68644 0.0
H720 H 0.05346 0.89145 0.68731 0.0
H721 H 0.12629 0.99705 0.58273 0.0
H722 H 0.1399 0.98006 0.62092 0.0
H723 H 0.05534 0.96276 0.64808 0.0
H724 H 0.04134 0.97937 0.60944 0.0
H725 H 0.07933 0.92096 0.64872 0.0
H726 H 0.10274 0.01222 0.67908 0.0
H727 H 0.12403 0.05906 0.67667 0.0
H728 H 0.2039 0.0396 0.66756 0.0
H729 H 0.18305 0.99258 0.66956 0.0
C730 C 0.13842 0.88505 0.74517 0.0
C731 C 0.16655 0.88474 0.74164 0.0
C732 C 0.12598 0.89984 0.73006 0.0
C733 C 0.14146 0.91448 0.71115 0.0
C734 C 0.16966 0.91469 0.70803 0.0
C735 C 0.18208 0.89993 0.72308 0.0
C736 C 0.12833 0.92902 0.69395 0.0
C737 C 0.13895 0.95599 0.69259 0.0
C738 C 0.10624 0.91632 0.67828 0.0
C739 C 0.09526 0.88754 0.67765 0.0
C740 C 0.11263 0.86956 0.67156 0.0
C741 C 0.10213 0.84248 0.67119 0.0
C742 C 0.07423 0.83313 0.67661 0.0
C743 C 0.05676 0.85085 0.68232 0.0
C744 C 0.06719 0.87795 0.68277 0.0
C745 C 0.11056 0.98997 0.59693 0.0
C746 C 0.0827 0.98943 0.59291 0.0
C747 C 0.11842 0.98044 0.6189 0.0
C748 C 0.09868 0.97039 0.63749 0.0
C749 C 0.07092 0.97055 0.634 0.0
C750 C 0.06298 0.98013 0.61195 0.0
C751 C 0.10704 0.95765 0.65922 0.0
C752 C 0.09553 0.93094 0.66147 0.0
C753 C 0.12869 0.97049 0.67536 0.0
C754 C 0.14128 0.99883 0.67433 0.0
C755 C 0.12482 0.0179 0.67639 0.0
C756 C 0.13684 0.04451 0.6751 0.0
C757 C 0.16533 0.05229 0.67185 0.0
C758 C 0.18185 0.03353 0.67003 0.0
C759 C 0.16994 1.0069 0.67129 0.0
H760 H 0.17469 0.07284 0.67075 0.0
H761 H 0.06614 0.81216 0.67631 0.0
H762 H 0.18686 0.18869 0.76852 0.0
H763 H 0.15962 0.16406 0.73322 0.0
H764 H 0.21404 0.20815 0.67852 0.0
H765 H 0.24018 0.23411 0.71421 0.0
H766 H 0.16673 0.19877 0.65995 0.0
H767 H 0.21693 0.141 0.69433 0.0
H768 H 0.23316 0.11684 0.72701 0.0
H769 H 0.15 0.079 0.7445 0.0
H770 H 0.13326 0.10321 0.71216 0.0
H771 H 0.13586 0.09997 0.55398 0.0
H772 H 0.15809 0.13007 0.58924 0.0
H773 H 0.09322 0.09738 0.64185 0.0
H774 H 0.07021 0.06818 0.60637 0.0
H775 H 0.14434 0.10164 0.66089 0.0
H776 H 0.09618 0.15698 0.62121 0.0
H777 H 0.08244 0.17923 0.5858 0.0
H778 H 0.16591 0.22009 0.57502 0.0
H779 H 0.18017 0.19778 0.61025 0.0
C780 C 0.19272 0.19339 0.74896 0.0
C781 C 0.2156 0.21334 0.74413 0.0
C782 C 0.17733 0.17904 0.72868 0.0
C783 C 0.18512 0.18341 0.70288 0.0
C784 C 0.2075 0.20409 0.6981 0.0
C785 C 0.22246 0.21902 0.71852 0.0
C786 C 0.17041 0.16604 0.68109 0.0
C787 C 0.16228 0.1775 0.66007 0.0
C788 C 0.16391 0.13816 0.6811 0.0
C789 C 0.17384 0.12411 0.70103 0.0
C790 C 0.2021 0.12772 0.70533 0.0
C791 C 0.21139 0.11398 0.72375 0.0
C792 C 0.19262 0.09645 0.73787 0.0
C793 C 0.16451 0.09265 0.73361 0.0
C794 C 0.15511 0.10638 0.71526 0.0
C795 C 0.12619 0.09942 0.57303 0.0
C796 C 0.10115 0.08185 0.57735 0.0
C797 C 0.13886 0.11673 0.59315 0.0
C798 C 0.12708 0.11649 0.61819 0.0
C799 C 0.10241 0.09846 0.62264 0.0
C800 C 0.0893 0.08171 0.60236 0.0
C801 C 0.14102 0.13428 0.63989 0.0
C802 C 0.14893 0.12287 0.66087 0.0
C803 C 0.14776 0.16206 0.63951 0.0
C804 C 0.13925 0.17552 0.61829 0.0
C805 C 0.11163 0.17056 0.61121 0.0
C806 C 0.10374 0.18321 0.59117 0.0
C807 C 0.12331 0.20103 0.57812 0.0
C808 C 0.15078 0.20626 0.58514 0.0
C809 C 0.15876 0.19363 0.60517 0.0
H810 H 0.11718 0.21082 0.5626 0.0
H811 H 0.19986 0.08578 0.75207 0.0
H812 H 0.95787 0.25754 0.72472 0.0
H813 H 0.99041 0.24481 0.69167 0.0
H814 H 0.92347 0.21518 0.64031 0.0
H815 H 0.89122 0.22792 0.67292 0.0
H816 H 0.9894 0.19643 0.67787 0.0
H817 H 0.94185 0.20963 0.57968 0.0
H818 H 0.9259 0.24464 0.55969 0.0
H819 H 0.97465 0.30328 0.61093 0.0
H820 H 0.99127 0.26868 0.63101 0.0
H821 H 0.96525 0.08583 0.59511 0.0
H822 H 0.96443 0.12693 0.62094 0.0
H823 H 0.0283 0.16807 0.57209 0.0
H824 H 0.02937 0.12682 0.54582 0.0
H825 H 0.98539 0.19449 0.58287 0.0
H826 H 0.04777 0.16279 0.63094 0.0
H827 H 0.06756 0.13091 0.65228 0.0
H828 H 0.99525 0.11425 0.70102 0.0
H829 H 0.97515 0.14631 0.68025 0.0
C830 C 0.95028 0.24886 0.70613 0.0
C831 C 0.92199 0.24341 0.7015 0.0
C832 C 0.96888 0.24179 0.68722 0.0
C833 C 0.95945 0.22916 0.66344 0.0
C834 C 0.93143 0.22547 0.65821 0.0
C835 C 0.91291 0.23263 0.67701 0.0
C836 C 0.97715 0.21499 0.64628 0.0
C837 C 0.98906 0.19648 0.6571 0.0
C838 C 0.97759 0.21553 0.61917 0.0
C839 C 0.96782 0.23647 0.6069 0.0
C840 C 0.9494 0.22998 0.58656 0.0
C841 C 0.94017 0.24978 0.57525 0.0
C842 C 0.94924 0.27616 0.58404 0.0
C843 C 0.96759 0.28282 0.60417 0.0
C844 C 0.97688 0.26311 0.61555 0.0
C845 C 0.97913 0.10352 0.58968 0.0
C846 C 0.99736 0.10292 0.56832 0.0
C847 C 0.97878 0.127 0.60464 0.0
C848 C 0.99665 0.15039 0.59864 0.0
C849 C 0.01454 0.15013 0.5771 0.0
C850 C 0.01503 0.12653 0.56213 0.0
C851 C 0.99539 0.175 0.6147 0.0
C852 C 0.98663 0.1953 0.60363 0.0
C853 C 0.99831 0.17653 0.64161 0.0
C854 C 1.00997 0.15689 0.65398 0.0
C855 C 0.03605 0.1522 0.64611 0.0
C856 C 0.04733 0.13413 0.65812 0.0
C857 C 0.03263 0.12042 0.67784 0.0
C858 C 1.00663 0.12488 0.68573 0.0
C859 C 0.99535 0.14311 0.67395 0.0
H860 H 0.04142 0.10641 0.68707 0.0
H861 H 0.94206 0.29145 0.57526 0.0
H862 H 0.8025 0.8538 0.73599 0.0
H863 H 0.83128 0.88068 0.70503 0.0
H864 H 0.89796 0.84199 0.71642 0.0
H865 H 0.86963 0.81588 0.74822 0.0
H866 H 0.91935 0.89049 0.70992 0.0
H867 H 0.85335 0.82593 0.66236 0.0
H868 H 0.8068 0.80143 0.6516 0.0
H869 H 0.78426 0.87301 0.63413 0.0
H870 H 0.83058 0.89801 0.64513 0.0
H871 H 0.99211 0.93282 0.59206 0.0
H872 H 0.96686 0.90498 0.62472 0.0
H873 H 0.90089 0.94723 0.62573 0.0
H874 H 0.92568 0.97484 0.59356 0.0
H875 H 0.88063 0.89485 0.62499 0.0
H876 H 0.94841 0.95891 0.67178 0.0
H877 H 0.99532 0.98231 0.68249 0.0
H878 H 0.0151 0.91009 0.70154 0.0
H879 H 0.9687 0.886 0.68992 0.0
C880 C 0.8234 0.85121 0.73219 0.0
C881 C 0.83358 0.83252 0.74475 0.0
C882 C 0.83988 0.86648 0.71418 0.0
C883 C 0.86683 0.86311 0.7076 0.0
C884 C 0.87733 0.84511 0.72083 0.0
C885 C 0.861 0.8301 0.73914 0.0
C886 C 0.88372 0.87773 0.68659 0.0
C887 C 0.91093 0.89105 0.69124 0.0
C888 C 0.87301 0.87895 0.66206 0.0
C889 C 0.84537 0.86387 0.65478 0.0
C890 C 0.83843 0.83646 0.65631 0.0
C891 C 0.81209 0.82248 0.65018 0.0
C892 C 0.79256 0.83566 0.64225 0.0
C893 C 0.79939 0.86283 0.64031 0.0
C894 C 0.8257 0.87691 0.64646 0.0
C895 C 0.97218 0.9361 0.59916 0.0
C896 C 0.96115 0.95631 0.59007 0.0
C897 C 0.95776 0.92021 0.61797 0.0
C898 C 0.93185 0.92396 0.62797 0.0
C899 C 0.92071 0.94376 0.61849 0.0
C900 C 0.93514 0.95973 0.60006 0.0
C901 C 0.91614 0.90772 0.6484 0.0
C902 C 0.88911 0.8941 0.64361 0.0
C903 C 0.92716 0.90606 0.67265 0.0
C904 C 0.95515 0.92055 0.67956 0.0
C905 C 0.96289 0.94791 0.67785 0.0
C906 C 0.98943 0.96131 0.68406 0.0
C907 C 1.0083 0.94765 0.69244 0.0
C908 C 1.00061 0.92058 0.69472 0.0
C909 C 0.9742 0.90704 0.68828 0.0
H910 H 0.02881 0.95805 0.69731 0.0
H911 H 0.77215 0.82482 0.63759 0.0
H912 H 0.35347 0.21514 0.26282 0.0
H913 H 0.3812 0.1865 0.2402 0.0
H914 H 0.34617 0.19535 0.16869 0.0
H915 H 0.31617 0.22204 0.19228 0.0
H916 H 0.36851 0.16379 0.14817 0.0
H917 H 0.4354 0.21208 0.20859 0.0
H918 H 0.45408 0.23016 0.251 0.0
H919 H 0.43453 0.15287 0.27812 0.0
H920 H 0.41557 0.13441 0.23591 0.0
H921 H 0.48299 0.10715 0.07835 0.0
H922 H 0.4542 0.13565 0.1018 0.0
H923 H 0.44368 0.08704 0.16495 0.0
H924 H 0.47127 0.05801 0.14114 0.0
H925 H 0.44625 0.13881 0.18824 0.0
H926 H 0.38953 0.09246 0.11955 0.0
H927 H 0.37851 0.07905 0.07408 0.0
H928 H 0.38692 0.16004 0.05903 0.0
H929 H 0.39842 0.17399 0.10438 0.0
C930 C 0.35126 0.21138 0.2422 0.0
C931 C 0.33106 0.22251 0.2307 0.0
C932 C 0.36851 0.19454 0.22827 0.0
C933 C 0.36902 0.18765 0.20067 0.0
C934 C 0.34858 0.19889 0.18926 0.0
C935 C 0.33056 0.21498 0.20338 0.0
C936 C 0.38921 0.16925 0.18434 0.0
C937 C 0.38548 0.15907 0.15771 0.0
C938 C 0.41298 0.16108 0.19393 0.0
C939 C 0.4237 0.17199 0.21934 0.0
C940 C 0.43498 0.19902 0.22368 0.0
C941 C 0.4456 0.20931 0.24765 0.0
C942 C 0.44534 0.1927 0.26728 0.0
C943 C 0.43456 0.16573 0.26296 0.0
C944 C 0.42386 0.15534 0.23903 0.0
C945 C 0.47506 0.10217 0.09734 0.0
C946 C 0.4814 0.079 0.10682 0.0
C947 C 0.45765 0.11902 0.11125 0.0
C948 C 0.44504 0.11512 0.13656 0.0
C949 C 0.45191 0.0923 0.14613 0.0
C950 C 0.4685 0.07504 0.13193 0.0
C951 C 0.42536 0.13374 0.15254 0.0
C952 C 0.42915 0.14371 0.17899 0.0
C953 C 0.40249 0.1426 0.1424 0.0
C954 C 0.39509 0.13428 0.11532 0.0
C955 C 0.38919 0.10743 0.10652 0.0
C956 C 0.38285 0.09973 0.08077 0.0
C957 C 0.38211 0.11869 0.06367 0.0
C958 C 0.38756 0.14539 0.07231 0.0
C959 C 0.39397 0.1532 0.09804 0.0
H960 H 0.3773 0.11267 0.04373 0.0
H961 H 0.45359 0.20072 0.2858 0.0
H962 H 0.84778 0.29665 0.21924 0.0
H963 H 0.87826 0.32063 0.1875 0.0
H964 H 0.84151 0.38828 0.20603 0.0
H965 H 0.81058 0.36419 0.23788 0.0
H966 H 0.84946 0.3808 0.15437 0.0
H967 H 0.90611 0.38622 0.2271 0.0
H968 H 0.92755 0.36916 0.26182 0.0
H969 H 0.96728 0.32264 0.20585 0.0
H970 H 0.94577 0.33916 0.17079 0.0
H971 H 0.95363 0.46832 0.08633 0.0
H972 H 0.92131 0.44653 0.11828 0.0
H973 H 0.95919 0.37883 0.10793 0.0
H974 H 0.99192 0.40071 0.07647 0.0
H975 H 0.95025 0.38792 0.15655 0.0
H976 H 0.89296 0.38102 0.08388 0.0
H977 H 0.87122 0.39719 0.04878 0.0
H978 H 0.83252 0.44547 0.10387 0.0
H979 H 0.85433 0.42983 0.13929 0.0
C980 C 0.84607 0.31665 0.21671 0.0
C981 C 0.82657 0.32836 0.23146 0.0
C982 C 0.86374 0.33048 0.19848 0.0
C983 C 0.8627 0.35659 0.19431 0.0
C984 C 0.84298 0.36825 0.20873 0.0
C985 C 0.8253 0.35442 0.22711 0.0
C986 C 0.88215 0.37148 0.17499 0.0
C987 C 0.87153 0.38267 0.15513 0.0
C988 C 0.91106 0.37362 0.1753 0.0
C989 C 0.92412 0.36375 0.19633 0.0
C990 C 0.91926 0.37221 0.2222 0.0
C991 C 0.93145 0.36266 0.24194 0.0
C992 C 0.94872 0.34478 0.23605 0.0
C993 C 0.95388 0.33647 0.21039 0.0
C994 C 0.94172 0.34593 0.19057 0.0
C995 C 0.95502 0.44869 0.0906 0.0
C996 C 0.97561 0.43642 0.07845 0.0
C997 C 0.93631 0.43611 0.10898 0.0
C998 C 0.93727 0.41067 0.11565 0.0
C999 C 0.95773 0.39838 0.10342 0.0
C1000 C 0.97652 0.41098 0.08519 0.0
C1001 C 0.91761 0.39707 0.13567 0.0
C1002 C 0.92819 0.38612 0.15574 0.0
C1003 C 0.88868 0.39507 0.13545 0.0
C1004 C 0.87552 0.40447 0.11421 0.0
C1005 C 0.87998 0.39524 0.08849 0.0
C1006 C 0.86762 0.40428 0.06854 0.0
C1007 C 0.85056 0.4224 0.07408 0.0
C1008 C 0.84578 0.43147 0.0996 0.0
C1009 C 0.85812 0.42251 0.11962 0.0
H1010 H 0.84101 0.42938 0.05861 0.0
H1011 H 0.95814 0.33741 0.25136 0.0
H1012 H 0.70307 0.81955 0.2489 0.0
H1013 H 0.67785 0.84483 0.22456 0.0
H1014 H 0.74576 0.85926 0.17033 0.0
H1015 H 0.7709 0.83383 0.19464 0.0
H1016 H 0.72667 0.90189 0.16914 0.0
H1017 H 0.67075 0.81497 0.16132 0.0
H1018 H 0.64249 0.7741 0.17633 0.0
H1019 H 0.58819 0.81856 0.21773 0.0
H1020 H 0.61633 0.85974 0.2032 0.0
H1021 H 0.65506 0.96122 0.0778 0.0
H1022 H 0.67872 0.9354 0.10228 0.0
H1023 H 0.60537 0.91231 0.14841 0.0
H1024 H 0.58106 0.93746 0.12263 0.0
H1025 H 0.62699 0.87422 0.15475 0.0
H1026 H 0.68267 0.96088 0.16523 0.0
H1027 H 0.71084 1.00263 0.15204 0.0
H1028 H 0.76539 0.96013 0.1083 0.0
H1029 H 0.73739 0.9181 0.12105 0.0
C1030 C 0.71309 0.82787 0.23179 0.0
C1031 C 0.74015 0.82349 0.22482 0.0
C1032 C 0.69802 0.84271 0.21718 0.0
C1033 C 0.70842 0.85495 0.19405 0.0
C1034 C 0.73568 0.85091 0.18739 0.0
C1035 C 0.75059 0.83579 0.20181 0.0
C1036 C 0.69177 0.87158 0.17745 0.0
C1037 C 0.70489 0.89513 0.16602 0.0
C1038 C 0.66265 0.86506 0.17253 0.0
C1039 C 0.64581 0.84044 0.1814 0.0
C1040 C 0.65289 0.81604 0.17377 0.0
C1041 C 0.63688 0.79282 0.18217 0.0
C1042 C 0.6136 0.79374 0.19804 0.0
C1043 C 0.60626 0.81788 0.20549 0.0
C1044 C 0.62222 0.84116 0.19717 0.0
C1045 C 0.64345 0.95101 0.09323 0.0
C1046 C 0.61517 0.95292 0.09726 0.0
C1047 C 0.65769 0.93585 0.10812 0.0
C1048 C 0.64552 0.92121 0.12928 0.0
C1049 C 0.61698 0.92275 0.13313 0.0
C1050 C 0.60254 0.93777 0.11792 0.0
C1051 C 0.66189 0.90462 0.14634 0.0
C1052 C 0.64876 0.88104 0.15784 0.0
C1053 C 0.69098 0.91128 0.15163 0.0
C1054 C 0.70779 0.93637 0.14386 0.0
C1055 C 0.7006 0.96045 0.15269 0.0
C1056 C 0.71654 0.98416 0.14531 0.0
C1057 C 0.73984 0.98402 0.12928 0.0
C1058 C 0.7473 0.96019 0.12067 0.0
C1059 C 0.73142 0.93643 0.12798 0.0
H1060 H 0.75215 1.00239 0.12359 0.0
H1061 H 0.60123 0.77574 0.20451 0.0
H1062 H 0.29601 0.68893 0.22089 0.0
H1063 H 0.27576 0.65742 0.18568 0.0
H1064 H 0.19999 0.68548 0.19685 0.0
H1065 H 0.21969 0.71622 0.23223 0.0
H1066 H 0.18746 0.63538 0.18878 0.0
H1067 H 0.24949 0.70289 0.14611 0.0
H1068 H 0.29434 0.73134 0.13661 0.0
H1069 H 0.32796 0.66313 0.11251 0.0
H1070 H 0.28337 0.63425 0.12219 0.0
H1071 H 0.12441 0.60993 0.06982 0.0
H1072 H 0.15435 0.63262 0.10361 0.0
H1073 H 0.2018 0.5718 0.09462 0.0
H1074 H 0.17111 0.54809 0.06055 0.0
H1075 H 0.23229 0.63196 0.10187 0.0
H1076 H 0.16443 0.56527 0.1401 0.0
H1077 H 0.11733 0.54041 0.14758 0.0
H1078 H 0.09259 0.61132 0.17905 0.0
H1079 H 0.13934 0.63678 0.17099 0.0
C1080 C 0.275 0.68832 0.21591 0.0
C1081 C 0.25959 0.70527 0.22955 0.0
C1082 C 0.26344 0.67033 0.19559 0.0
C1083 C 0.23628 0.66906 0.18817 0.0
C1084 C 0.22089 0.68581 0.20202 0.0
C1085 C 0.23231 0.70357 0.22234 0.0
C1086 C 0.22361 0.65057 0.16608 0.0
C1087 C 0.19738 0.63477 0.16983 0.0
C1088 C 0.23648 0.64911 0.14122 0.0
C1089 C 0.26321 0.66641 0.13518 0.0
C1090 C 0.26651 0.69396 0.13896 0.0
C1091 C 0.29187 0.71016 0.13351 0.0
C1092 C 0.31401 0.69904 0.12405 0.0
C1093 C 0.31081 0.6717 0.1199 0.0
C1094 C 0.28549 0.65541 0.12535 0.0
C1095 C 0.14131 0.60123 0.07459 0.0
C1096 C 0.14501 0.57683 0.06229 0.0
C1097 C 0.15851 0.61442 0.09407 0.0
C1098 C 0.18024 0.60394 0.10187 0.0
C1099 C 0.18514 0.58031 0.08891 0.0
C1100 C 0.16757 0.56678 0.06939 0.0
C1101 C 0.1962 0.61724 0.1247 0.0
C1102 C 0.22281 0.6322 0.12103 0.0
C1103 C 0.18352 0.61833 0.14957 0.0
C1104 C 0.1554 0.60299 0.1547 0.0
C1105 C 0.14889 0.57563 0.14833 0.0
C1106 C 0.12223 0.56143 0.15268 0.0
C1107 C 0.10194 0.57429 0.1637 0.0
C1108 C 0.1083 0.60139 0.17043 0.0
C1109 C 0.13487 0.61573 0.16595 0.0
H1110 H 0.08132 0.56327 0.16707 0.0
H1111 H 0.33364 0.71162 0.11987 0.0
H1112 H 0.36226 0.79154 0.8352 0.0
H1113 H 0.3939 0.81814 0.86694 0.0
H1114 H 0.33824 0.87128 0.88217 0.0
H1115 H 0.30633 0.84444 0.85111 0.0
H1116 H 0.38946 0.90012 0.8791 0.0
H1117 H 0.34678 0.82981 0.92641 0.0
H1118 H 0.33007 0.78542 0.94081 0.0
H1119 H 0.41287 0.7733 0.94026 0.0
H1120 H 0.43008 0.8175 0.92535 0.0
H1121 H 0.4457 0.96817 0.99782 0.0
H1122 H 0.41734 0.9411 0.96436 0.0
H1123 H 0.48022 0.89594 0.94704 0.0
H1124 H 0.50919 0.92365 0.9804 0.0
H1125 H 0.42679 0.86298 0.95055 0.0
H1126 H 0.46776 0.93797 0.90479 0.0
H1127 H 0.48039 0.98488 0.89666 0.0
H1128 H 0.3952 0.98976 0.89978 0.0
H1129 H 0.38205 0.94293 0.90826 0.0
C1130 C 0.35656 0.8088 0.84534 0.0
C1131 C 0.33125 0.81542 0.8402 0.0
C1132 C 0.37484 0.82414 0.86377 0.0
C1133 C 0.36899 0.84718 0.87755 0.0
C1134 C 0.34383 0.85389 0.8722 0.0
C1135 C 0.32531 0.83826 0.85426 0.0
C1136 C 0.38898 0.86442 0.89699 0.0
C1137 C 0.39732 0.89179 0.89477 0.0
C1138 C 0.4 0.85431 0.91779 0.0
C1139 C 0.3897 0.82686 0.92439 0.0
C1140 C 0.3614 0.8175 0.92882 0.0
C1141 C 0.35185 0.79243 0.93724 0.0
C1142 C 0.3704 0.77661 0.94153 0.0
C1143 C 0.39852 0.78562 0.93698 0.0
C1144 C 0.40819 0.81066 0.92847 0.0
C1145 C 0.45387 0.95274 0.98674 0.0
C1146 C 0.48023 0.94862 0.9921 0.0
C1147 C 0.4374 0.93707 0.96737 0.0
C1148 C 0.44613 0.91604 0.95259 0.0
C1149 C 0.47253 0.91183 0.95781 0.0
C1150 C 0.48937 0.92797 0.97691 0.0
C1151 C 0.42749 0.89848 0.93237 0.0
C1152 C 0.41925 0.87113 0.93458 0.0
C1153 C 0.41607 0.90869 0.9119 0.0
C1154 C 0.42394 0.93698 0.90736 0.0
C1155 C 0.45173 0.94911 0.90402 0.0
C1156 C 0.45898 0.97568 0.89929 0.0
C1157 C 0.4386 0.99029 0.89772 0.0
C1158 C 0.41095 0.97841 0.901 0.0
C1159 C 0.40359 0.95185 0.90574 0.0
H1160 H 0.4442 0.01077 0.89379 0.0
H1161 H 0.36297 0.75737 0.94845 0.0
H1162 H 0.22279 0.33763 0.80573 0.0
H1163 H 0.20237 0.36543 0.838 0.0
H1164 H 0.21165 0.31457 0.89629 0.0
H1165 H 0.23143 0.28623 0.8639 0.0
H1166 H 0.16613 0.32762 0.90606 0.0
H1167 H 0.25444 0.37784 0.88968 0.0
H1168 H 0.29442 0.40026 0.86481 0.0
H1169 H 0.24605 0.45162 0.8388 0.0
H1170 H 0.20553 0.42907 0.863 0.0
H1171 H 0.16724 0.46393 0.98924 0.0
H1172 H 0.1907 0.43493 0.96063 0.0
H1173 H 0.11227 0.38963 0.93593 0.0
H1174 H 0.08887 0.41804 0.96483 0.0
H1175 H 0.19592 0.42482 0.91235 0.0
H1176 H 0.11055 0.33174 0.91788 0.0
H1177 H 0.08025 0.30689 0.95002 0.0
H1178 H 0.13827 0.33886 1.00876 0.0
H1179 H 0.16814 0.36486 0.97729 0.0
C1180 C 0.22048 0.33221 0.82539 0.0
C1181 C 0.22894 0.30946 0.83197 0.0
C1182 C 0.20889 0.34837 0.84401 0.0
C1183 C 0.20569 0.34265 0.87 0.0
C1184 C 0.21374 0.31971 0.87654 0.0
C1185 C 0.22514 0.3034 0.85787 0.0
C1186 C 0.19367 0.36025 0.89018 0.0
C1187 C 0.1727 0.34887 0.9072 0.0
C1188 C 0.20263 0.3881 0.89283 0.0
C1189 C 0.22683 0.40155 0.87795 0.0
C1190 C 0.25223 0.39374 0.87845 0.0
C1191 C 0.27501 0.4065 0.86451 0.0
C1192 C 0.27279 0.42736 0.85026 0.0
C1193 C 0.24774 0.43545 0.84985 0.0
C1194 C 0.22484 0.42266 0.86365 0.0
C1195 C 0.15496 0.44775 0.97776 0.0
C1196 C 0.12603 0.44358 0.97942 0.0
C1197 C 0.16846 0.43108 0.9613 0.0
C1198 C 0.15351 0.40961 0.94601 0.0
C1199 C 0.1246 0.40547 0.94774 0.0
C1200 C 0.11112 0.42203 0.96423 0.0
C1201 C 0.16789 0.39216 0.92766 0.0
C1202 C 0.18928 0.40357 0.91099 0.0
C1203 C 0.16033 0.36427 0.9261 0.0
C1204 C 0.14134 0.3504 0.94535 0.0
C1205 C 0.11656 0.33373 0.93776 0.0
C1206 C 0.0994 0.31959 0.95589 0.0
C1207 C 0.10715 0.32157 0.98151 0.0
C1208 C 0.13199 0.33779 0.98907 0.0
C1209 C 0.14889 0.35244 0.97117 0.0
H1210 H 0.09401 0.31038 0.99547 0.0
H1211 H 0.29049 0.43728 0.83956 0.0
H1212 H 0.75575 0.20489 0.83823 0.0
H1213 H 0.73115 0.1759 0.86987 0.0
H1214 H 0.67518 0.22847 0.88708 0.0
H1215 H 0.70027 0.25787 0.85575 0.0
H1216 H 0.68019 0.21089 0.93059 0.0
H1217 H 0.65959 0.16104 0.84972 0.0
H1218 H 0.66905 0.13938 0.80715 0.0
H1219 H 0.7157 0.09208 0.84235 0.0
H1220 H 0.70662 0.11353 0.88513 0.0
H1221 H 0.58599 0.11485 1.00508 0.0
H1222 H 0.60819 0.14653 0.9742 0.0
H1223 H 0.66707 0.09795 0.9522 0.0
H1224 H 0.64503 0.06654 0.98218 0.0
H1225 H 0.65834 0.11425 0.91057 0.0
H1226 H 0.67947 0.16517 0.99168 0.0
H1227 H 0.66921 0.18679 0.03406 0.0
H1228 H 0.62027 0.23153 0.99827 0.0
H1229 H 0.63024 0.21021 0.95566 0.0
C1230 C 0.73818 0.21049 0.84858 0.0
C1231 C 0.7305 0.23432 0.84367 0.0
C1232 C 0.72365 0.19345 0.86691 0.0
C1233 C 0.70023 0.19889 0.88141 0.0
C1234 C 0.69278 0.22292 0.87674 0.0
C1235 C 0.70736 0.24002 0.85841 0.0
C1236 C 0.68392 0.17994 0.90115 0.0
C1237 C 0.67525 0.1898 0.92578 0.0
C1238 C 0.67706 0.15191 0.89624 0.0
C1239 C 0.68266 0.13908 0.87058 0.0
C1240 C 0.67202 0.14614 0.84835 0.0
C1241 C 0.67729 0.13389 0.8242 0.0
C1242 C 0.69307 0.11447 0.82204 0.0
C1243 C 0.70353 0.10717 0.84405 0.0
C1244 C 0.69828 0.11933 0.86826 0.0
C1245 C 0.60371 0.11082 0.99381 0.0
C1246 C 0.61313 0.08737 0.99692 0.0
C1247 C 0.61681 0.12935 0.97591 0.0
C1248 C 0.64018 0.12561 0.96014 0.0
C1249 C 0.64935 0.10219 0.96337 0.0
C1250 C 0.63642 0.08386 0.98107 0.0
C1251 C 0.65494 0.1451 0.94018 0.0
C1252 C 0.66331 0.13533 0.91544 0.0
C1253 C 0.66142 0.17316 0.945 0.0
C1254 C 0.65536 0.1859 0.97054 0.0
C1255 C 0.66638 0.1795 0.99288 0.0
C1256 C 0.66064 0.19171 0.01693 0.0
C1257 C 0.64397 0.21038 0.01887 0.0
C1258 C 0.63312 0.21701 0.99675 0.0
C1259 C 0.63886 0.20492 0.97263 0.0
H1260 H 0.63954 0.21978 0.03751 0.0
H1261 H 0.69714 0.10502 0.80332 0.0
H1262 H 0.88164 0.71444 0.92956 0.0
H1263 H 0.90038 0.6838 0.95262 0.0
H1264 H 0.89567 0.63004 0.8843 0.0
H1265 H 0.87566 0.66017 0.8613 0.0
H1266 H 0.88099 0.60287 0.92516 0.0
H1267 H 0.9571 0.66972 0.90325 0.0
H1268 H 0.98388 0.71482 0.9001 0.0
H1269 H 0.9833 0.72801 0.98256 0.0
H1270 H 0.95616 0.68308 0.98621 0.0
H1271 H 0.98117 0.53326 0.96657 0.0
H1272 H 0.95313 0.55747 0.94433 0.0
H1273 H 0.94936 0.6094 0.01314 0.0
H1274 H 0.97718 0.58497 0.03535 0.0
H1275 H 0.96788 0.63623 0.97111 0.0
H1276 H 0.89288 0.56619 0.99144 0.0
H1277 H 0.86856 0.51995 0.99218 0.0
H1278 H 0.86949 0.51147 0.90954 0.0
H1279 H 0.89457 0.55743 0.90825 0.0
C1280 C 0.88415 0.69596 0.91942 0.0
C1281 C 0.87707 0.68996 0.89341 0.0
C1282 C 0.89523 0.6785 0.93263 0.0
C1283 C 0.89992 0.65465 0.92019 0.0
C1284 C 0.89241 0.64831 0.89439 0.0
C1285 C 0.88121 0.66575 0.88115 0.0
C1286 C 0.91314 0.63673 0.93403 0.0
C1287 C 0.90017 0.61011 0.93494 0.0
C1288 C 0.93808 0.64605 0.94708 0.0
C1289 C 0.95434 0.67312 0.94499 0.0
C1290 C 0.96248 0.68231 0.92071 0.0
C1291 C 0.97776 0.70783 0.91884 0.0
C1292 C 0.98522 0.72429 0.94111 0.0
C1293 C 0.97746 0.71524 0.96532 0.0
C1294 C 0.96214 0.68975 0.96731 0.0
C1295 C 0.97332 0.54913 0.97721 0.0
C1296 C 0.98059 0.55679 1.00289 0.0
C1297 C 0.9575 0.56313 0.96444 0.0
C1298 C 0.949 0.5853 0.97703 0.0
C1299 C 0.95554 0.59235 1.00301 0.0
C1300 C 0.97116 0.57823 0.0158 0.0
C1301 C 0.93554 0.6025 0.96262 0.0
C1302 C 0.94862 0.629 0.96145 0.0
C1303 C 0.91101 0.59289 0.94902 0.0
C1304 C 0.8959 0.56522 0.94976 0.0
C1305 C 0.88821 0.55439 0.9734 0.0
C1306 C 0.87429 0.52821 0.97392 0.0
C1307 C 0.86765 0.51273 0.95091 0.0
C1308 C 0.87483 0.52343 0.92734 0.0
C1309 C 0.88891 0.54954 0.92671 0.0
H1310 H 0.85685 0.49247 0.95135 0.0
H1311 H 0.99706 0.74404 0.93962 0.0
H1312 H 0.25012 0.32717 0.11455 0.0
H1313 H 0.24755 0.3626 0.08737 0.0
H1314 H 0.22429 0.40919 0.15428 0.0
H1315 H 0.22596 0.37425 0.18093 0.0
H1316 H 0.20036 0.3743 0.08144 0.0
H1317 H 0.23679 0.47174 0.14978 0.0
H1318 H 0.27829 0.49262 0.17357 0.0
H1319 H 0.32599 0.44639 0.12546 0.0
H1320 H 0.28496 0.42559 0.10091 0.0
H1321 H 0.09797 0.43784 0.09559 0.0
H1322 H 0.13847 0.42383 0.1096 0.0
H1323 H 0.191 0.48222 0.06616 0.0
H1324 H 0.15062 0.49753 0.05363 0.0
H1325 H 0.21747 0.47015 0.10783 0.0
H1326 H 0.16925 0.42385 0.03466 0.0
H1327 H 0.12616 0.40404 0.01264 0.0
H1328 H 0.10516 0.34777 0.06912 0.0
H1329 H 0.148 0.3672 0.09163 0.0
C1330 C 0.2449 0.34519 0.12341 0.0
C1331 C 0.238 0.34779 0.14985 0.0
C1332 C 0.24387 0.36553 0.10796 0.0
C1333 C 0.23614 0.3887 0.11883 0.0
C1334 C 0.23114 0.3919 0.14548 0.0
C1335 C 0.23191 0.37167 0.16077 0.0
C1336 C 0.22657 0.40664 0.10266 0.0
C1337 C 0.20476 0.39538 0.08654 0.0
C1338 C 0.23275 0.43425 0.10871 0.0
C1339 C 0.25765 0.44715 0.12331 0.0
C1340 C 0.25615 0.46624 0.14396 0.0
C1341 C 0.27963 0.47805 0.15764 0.0
C1342 C 0.30479 0.47098 0.15089 0.0
C1343 C 0.30651 0.45196 0.13056 0.0
C1344 C 0.28312 0.44013 0.11677 0.0
C1345 C 0.11821 0.44841 0.09003 0.0
C1346 C 0.12132 0.46842 0.07333 0.0
C1347 C 0.14129 0.44038 0.09788 0.0
C1348 C 0.16752 0.45138 0.08801 0.0
C1349 C 0.17089 0.47333 0.07369 0.0
C1350 C 0.14781 0.48202 0.06658 0.0
C1351 C 0.19003 0.43707 0.08922 0.0
C1352 C 0.21411 0.44926 0.10194 0.0
C1353 C 0.18634 0.41029 0.0797 0.0
C1354 C 0.16186 0.397 0.06483 0.0
C1355 C 0.15552 0.40716 0.04231 0.0
C1356 C 0.13105 0.39614 0.02985 0.0
C1357 C 0.11279 0.37495 0.03966 0.0
C1358 C 0.11924 0.36432 0.06165 0.0
C1359 C 0.14369 0.37522 0.07419 0.0
H1360 H 0.09382 0.36655 0.03001 0.0
H1361 H 0.32292 0.48012 0.16153 0.0
H1362 H 0.19964 0.73034 0.83561 0.0
H1363 H 0.17515 0.69468 0.86018 0.0
H1364 H 0.24793 0.66168 0.85865 0.0
H1365 H 0.27268 0.6973 0.83356 0.0
H1366 H 0.20242 0.62342 0.84858 0.0
H1367 H 0.22847 0.69374 0.9133 0.0
H1368 H 0.23369 0.73895 0.93389 0.0
H1369 H 0.14606 0.73149 0.93721 0.0
H1370 H 0.14032 0.68635 0.91629 0.0
H1371 H 0.14553 0.54063 0.95161 0.0
H1372 H 0.17332 0.56912 0.92108 0.0
H1373 H 0.10696 0.61001 0.91603 0.0
H1374 H 0.07936 0.58192 0.94654 0.0
H1375 H 0.15335 0.64328 0.93065 0.0
H1376 H 0.12796 0.57264 0.86443 0.0
H1377 H 0.12366 0.5273 0.8444 0.0
H1378 H 0.2112 0.53489 0.84523 0.0
H1379 H 0.216 0.5802 0.8656 0.0
C1380 C 0.21062 0.71567 0.84059 0.0
C1381 C 0.23825 0.71687 0.83268 0.0
C1382 C 0.19653 0.69523 0.85471 0.0
C1383 C 0.20972 0.67556 0.8615 0.0
C1384 C 0.23731 0.67662 0.85365 0.0
C1385 C 0.25148 0.69713 0.83947 0.0
C1386 C 0.19447 0.65405 0.87679 0.0
C1387 C 0.19203 0.62771 0.86674 0.0
C1388 C 0.18064 0.65959 0.90035 0.0
C1389 C 0.18398 0.68672 0.91303 0.0
C1390 C 0.21032 0.70181 0.91824 0.0
C1391 C 0.21337 0.72741 0.93 0.0
C1392 C 0.19023 0.73811 0.9368 0.0
C1393 C 0.16397 0.72319 0.93191 0.0
C1394 C 0.16081 0.69758 0.92013 0.0
C1395 C 0.1365 0.55502 0.94321 0.0
C1396 C 0.11031 0.55913 0.95162 0.0
C1397 C 0.15248 0.57142 0.92586 0.0
C1398 C 0.14236 0.59197 0.91648 0.0
C1399 C 0.11534 0.59453 0.92321 0.0
C1400 C 0.09951 0.57832 0.94055 0.0
C1401 C 0.16059 0.61265 0.90213 0.0
C1402 C 0.16376 0.63891 0.91252 0.0
C1403 C 0.17517 0.60693 0.87905 0.0
C1404 C 0.17231 0.57971 0.86681 0.0
C1405 C 0.14628 0.56457 0.86057 0.0
C1406 C 0.14375 0.53889 0.8491 0.0
C1407 C 0.16713 0.52819 0.84361 0.0
C1408 C 0.1931 0.54319 0.84953 0.0
C1409 C 0.19573 0.56887 0.86101 0.0
H1410 H 0.16513 0.50831 0.83473 0.0
H1411 H 0.19263 0.75793 0.94591 0.0
H1412 H 0.33268 0.13604 0.90131 0.0
H1413 H 0.3612 0.11373 0.92463 0.0
H1414 H 0.43311 0.171 0.90478 0.0
H1415 H 0.40461 0.19324 0.8808 0.0
H1416 H 0.44423 0.12196 0.89943 0.0
H1417 H 0.40499 0.17288 0.96584 0.0
H1418 H 0.36879 0.19038 0.9914 0.0
H1419 H 0.33046 0.11227 1.00971 0.0
H1420 H 0.36627 0.09425 0.98401 0.0
H1421 H 0.52509 0.07532 0.99078 0.0
H1422 H 0.50277 0.1016 0.96488 0.0
H1423 H 0.42378 0.05346 0.98273 0.0
H1424 H 0.4458 0.02784 1.00898 0.0
H1425 H 0.4198 0.10224 0.9898 0.0
H1426 H 0.45987 0.05156 0.92196 0.0
H1427 H 0.4977 0.03541 0.89768 0.0
H1428 H 0.53611 0.11461 0.88308 0.0
H1429 H 0.49869 0.13126 0.90758 0.0
C1430 C 0.35459 0.14387 0.90163 0.0
C1431 C 0.36621 0.16652 0.88896 0.0
C1432 C 0.37092 0.13116 0.91528 0.0
C1433 C 0.39942 0.1407 0.91682 0.0
C1434 C 0.41121 0.16318 0.90402 0.0
C1435 C 0.39481 0.17603 0.89044 0.0
C1436 C 0.41666 0.12704 0.93171 0.0
C1437 C 0.43911 0.11799 0.91932 0.0
C1438 C 0.41003 0.12149 0.95763 0.0
C1439 C 0.38818 0.13219 0.97277 0.0
C1440 C 0.3887 0.1594 0.97511 0.0
C1441 C 0.36828 0.16942 0.98968 0.0
C1442 C 0.3473 0.15244 1.00212 0.0
C1443 C 0.34669 0.1254 1.00001 0.0
C1444 C 0.36706 0.11527 0.98547 0.0
C1445 C 0.50303 0.07007 0.98877 0.0
C1446 C 0.48728 0.04943 1.00203 0.0
C1447 C 0.49021 0.08517 0.97395 0.0
C1448 C 0.4614 0.07967 0.97168 0.0
C1449 C 0.44592 0.05843 0.98421 0.0
C1450 C 0.45862 0.04363 0.99918 0.0
C1451 C 0.44692 0.09639 0.95733 0.0
C1452 C 0.425 0.10618 0.96991 0.0
C1453 C 0.45419 0.10268 0.93166 0.0
C1454 C 0.47659 0.09266 0.9168 0.0
C1455 C 0.47645 0.06553 0.91369 0.0
C1456 C 0.49781 0.05628 0.89988 0.0
C1457 C 0.5193 0.07397 0.88888 0.0
C1458 C 0.51946 0.10093 0.89163 0.0
C1459 C 0.49817 0.11028 0.90547 0.0
H1460 H 0.53582 0.06677 0.8782 0.0
H1461 H 0.33155 0.16024 0.01343 0.0
H1462 H 0.84665 0.30928 0.84495 0.0
H1463 H 0.87878 0.33845 0.87357 0.0
H1464 H 0.83364 0.40032 0.8696 0.0
H1465 H 0.80183 0.37129 0.83978 0.0
H1466 H 0.88617 0.4208 0.86808 0.0
H1467 H 0.82907 0.36505 0.92401 0.0
H1468 H 0.8033 0.32351 0.93975 0.0
H1469 H 0.87865 0.29679 0.94566 0.0
H1470 H 0.90486 0.33802 0.9296 0.0
H1471 H 0.96896 0.48619 0.97705 0.0
H1472 H 0.93115 0.46749 0.94804 0.0
H1473 H 0.96604 0.39851 0.93 0.0
H1474 H 1.0036 0.41692 0.95876 0.0
H1475 H 0.91212 0.38687 0.94718 0.0
H1476 H 0.96761 0.44384 0.88645 0.0
H1477 H 0.99123 0.48737 0.87347 0.0
H1478 H 0.91511 0.51435 0.88083 0.0
H1479 H 0.89109 0.47104 0.89425 0.0
C1480 C 0.84336 0.32901 0.85027 0.0
C1481 C 0.82149 0.33787 0.84035 0.0
C1482 C 0.86175 0.3457 0.86675 0.0
C1483 C 0.85831 0.37144 0.8743 0.0
C1484 C 0.83663 0.3805 0.8642 0.0
C1485 C 0.81841 0.36388 0.84727 0.0
C1486 C 0.87773 0.38862 0.89252 0.0
C1487 C 0.89148 0.41355 0.88562 0.0
C1488 C 0.88457 0.37941 0.91558 0.0
C1489 C 0.86892 0.35461 0.92546 0.0
C1490 C 0.84014 0.35026 0.92853 0.0
C1491 C 0.82545 0.32677 0.93752 0.0
C1492 C 0.83933 0.30751 0.94367 0.0
C1493 C 0.86793 0.31173 0.94089 0.0
C1494 C 0.88272 0.33518 0.93188 0.0
C1495 C 0.96894 0.46738 0.96633 0.0
C1496 C 0.98922 0.45299 0.97025 0.0
C1497 C 0.94726 0.45667 0.94988 0.0
C1498 C 0.94571 0.43152 0.93703 0.0
C1499 C 0.96673 0.41784 0.93991 0.0
C1500 C 0.98824 0.42843 0.95631 0.0
C1501 C 0.92143 0.41825 0.92202 0.0
C1502 C 0.90655 0.39416 0.92976 0.0
C1503 C 0.91326 0.42853 0.90016 0.0
C1504 C 0.92762 0.45431 0.89159 0.0
C1505 C 0.95595 0.45911 0.88547 0.0
C1506 C 0.9694 0.48373 0.87803 0.0
C1507 C 0.95469 0.50364 0.87645 0.0
C1508 C 0.92647 0.49893 0.88217 0.0
C1509 C 0.91293 0.47435 0.88966 0.0
H1510 H 0.96514 0.5227 0.87071 0.0
H1511 H 0.82792 0.28933 0.95062 0.0
H1512 H 0.69661 0.80462 0.81949 0.0
H1513 H 0.66943 0.82705 0.85088 0.0
H1514 H 0.74317 0.86506 0.89004 0.0
H1515 H 0.77023 0.84122 0.85932 0.0
H1516 H 0.70939 0.86021 0.92588 0.0
H1517 H 0.69662 0.89514 0.84696 0.0
H1518 H 0.68464 0.89415 0.80149 0.0
H1519 H 0.60228 0.85429 0.81922 0.0
H1520 H 0.61387 0.85473 0.86475 0.0
H1521 H 0.65062 0.9627 0.99487 0.0
H1522 H 0.67432 0.93628 0.96413 0.0
H1523 H 0.59724 0.88483 0.94539 0.0
H1524 H 0.57308 0.91143 0.97695 0.0
H1525 H 0.63079 0.89568 0.89966 0.0
H1526 H 0.64548 0.86472 0.98067 0.0
H1527 H 0.65939 0.86947 0.02587 0.0
H1528 H 0.74116 0.90689 1.00321 0.0
H1529 H 0.72762 0.90271 0.95789 0.0
C1530 C 0.70733 0.81783 0.83463 0.0
C1531 C 0.73623 0.82079 0.83607 0.0
C1532 C 0.69147 0.83119 0.85285 0.0
C1533 C 0.70349 0.84908 0.87338 0.0
C1534 C 0.73244 0.85186 0.8749 0.0
C1535 C 0.74828 0.83808 0.85691 0.0
C1536 C 0.68624 0.86423 0.89316 0.0
C1537 C 0.69251 0.86812 0.91967 0.0
C1538 C 0.66333 0.87485 0.88647 0.0
C1539 C 0.65621 0.87471 0.8592 0.0
C1540 C 0.676 0.88603 0.84113 0.0
C1541 C 0.66928 0.88558 0.81535 0.0
C1542 C 0.64274 0.87409 0.80745 0.0
C1543 C 0.62284 0.86313 0.82535 0.0
C1544 C 0.62947 0.86349 0.85115 0.0
C1545 C 0.63833 0.94568 0.98451 0.0
C1546 C 0.60942 0.9397 0.98919 0.0
C1547 C 0.65225 0.93027 0.96662 0.0
C1548 C 0.63824 0.9079 0.95175 0.0
C1549 C 0.60922 0.90173 0.95616 0.0
C1550 C 0.59519 0.91702 0.97463 0.0
C1551 C 0.65412 0.89154 0.93206 0.0
C1552 C 0.64764 0.88758 0.90567 0.0
C1553 C 0.67718 0.88134 0.93874 0.0
C1554 C 0.68546 0.8836 0.9659 0.0
C1555 C 0.66638 0.87412 0.98534 0.0
C1556 C 0.6742 0.87669 0.01098 0.0
C1557 C 0.70112 0.88853 0.01741 0.0
C1558 C 0.7203 0.89775 0.9982 0.0
C1559 C 0.71257 0.89526 0.97253 0.0
H1560 H 0.70714 0.89052 0.03728 0.0
H1561 H 0.63759 0.87373 0.78748 0.0
H1562 H 0.96037 0.73362 0.20967 0.0
H1563 H 0.99109 0.70225 0.20268 0.0
H1564 H 0.92209 0.6402 0.18127 0.0
H1565 H 0.89143 0.6713 0.18801 0.0
H1566 H 0.95931 0.62279 0.21015 0.0
H1567 H 0.95985 0.67426 0.1358 0.0
H1568 H 0.96734 0.7159 0.11492 0.0
H1569 H 0.05096 0.73494 0.13897 0.0
H1570 H 0.04381 0.69353 0.16027 0.0
H1571 H 0.99039 0.53598 0.10799 0.0
H1572 H 0.97695 0.56414 0.14427 0.0
H1573 H 0.05853 0.61277 0.14376 0.0
H1574 H 0.07155 0.58519 0.10679 0.0
H1575 H 0.02488 0.64079 0.13625 0.0
H1576 H 0.02747 0.58221 0.19907 0.0
H1577 H 0.02023 0.54033 0.21935 0.0
H1578 H 0.93286 0.53372 0.21811 0.0
H1579 H 0.93949 0.57532 0.19739 0.0
C1580 C 0.95178 0.71327 0.20354 0.0
C1581 C 0.92354 0.70497 0.19914 0.0
C1582 C 0.96928 0.69535 0.19982 0.0
C1583 C 0.95882 0.66894 0.19142 0.0
C1584 C 0.93052 0.66043 0.18802 0.0
C1585 C 0.91304 0.67827 0.19177 0.0
C1586 C 0.97738 0.65075 0.18312 0.0
C1587 C 0.97379 0.62657 0.19405 0.0
C1588 C 0.99692 0.65624 0.16278 0.0
C1589 C 1.0012 0.68103 0.14989 0.0
C1590 C 0.97976 0.68744 0.13678 0.0
C1591 C 0.98395 0.71097 0.12485 0.0
C1592 C 1.00958 0.7281 0.12569 0.0
C1593 C 0.0311 0.72169 0.1384 0.0
C1594 C 0.02699 0.6982 0.1504 0.0
C1595 C 1.00572 0.55201 0.1164 0.0
C1596 C 0.03179 0.55876 0.10454 0.0
C1597 C 0.99811 0.56809 0.13725 0.0
C1598 C 0.01671 0.59074 0.14677 0.0
C1599 C 0.0438 0.59552 0.13673 0.0
C1600 C 0.05122 0.57979 0.11561 0.0
C1601 C 1.00634 0.61202 0.1626 0.0
C1602 C 1.01131 0.63696 0.15298 0.0
C1603 C 0.98822 0.60711 0.18417 0.0
C1604 C 0.98401 0.58194 0.19655 0.0
C1605 C 1.00669 0.57176 0.20292 0.0
C1606 C 1.0027 0.54805 0.21454 0.0
C1607 C 0.97611 0.53437 0.22 0.0
C1608 C 0.95345 0.54436 0.21388 0.0
C1609 C 0.95732 0.56803 0.20223 0.0
H1610 H 0.97306 0.51602 0.22901 0.0
H1611 H 1.01279 0.74631 0.11644 0.0
H1612 H 0.37856 0.77641 0.23728 0.0
H1613 H 0.41068 0.79404 0.20351 0.0
H1614 H 0.35083 0.83461 0.17787 0.0
H1615 H 0.31795 0.81591 0.21096 0.0
H1616 H 0.37811 0.81566 0.13758 0.0
H1617 H 0.40329 0.86553 0.21974 0.0
H1618 H 0.41653 0.86977 0.26515 0.0
H1619 H 0.48704 0.83628 0.24316 0.0
H1620 H 0.47402 0.83161 0.19763 0.0
H1621 H 0.4438 0.9352 0.09471 0.0
H1622 H 0.41934 0.89802 0.11714 0.0
H1623 H 0.49388 0.86816 0.11844 0.0
H1624 H 0.5188 0.90573 0.09547 0.0
H1625 H 0.46598 0.87218 0.16691 0.0
H1626 H 0.44566 0.83319 0.08293 0.0
H1627 H 0.43225 0.83075 0.03776 0.0
H1628 H 0.35263 0.84464 0.06271 0.0
H1629 H 0.36568 0.8476 0.10804 0.0
C1630 C 0.37202 0.78882 0.22433 0.0
C1631 C 0.34567 0.79489 0.22699 0.0
C1632 C 0.39052 0.79898 0.20504 0.0
C1633 C 0.38338 0.81604 0.18843 0.0
C1634 C 0.35681 0.8215 0.1905 0.0
C1635 C 0.33808 0.81094 0.20953 0.0
C1636 C 0.40397 0.82954 0.16997 0.0
C1637 C 0.39731 0.82804 0.14397 0.0
C1638 C 0.42956 0.84487 0.17809 0.0
C1639 C 0.43755 0.84799 0.20537 0.0
C1640 C 0.42154 0.85897 0.22463 0.0
C1641 C 0.42901 0.86145 0.25037 0.0
C1642 C 0.45257 0.85324 0.25704 0.0
C1643 C 0.46877 0.8426 0.23797 0.0
C1644 C 0.46138 0.84005 0.2122 0.0
C1645 C 0.45506 0.92069 0.09962 0.0
C1646 C 0.48328 0.92348 0.09355 0.0
C1647 C 0.44096 0.8993 0.11222 0.0
C1648 C 0.45472 0.88021 0.11921 0.0
C1649 C 0.48289 0.88264 0.113 0.0
C1650 C 0.49704 0.90401 0.0999 0.0
C1651 C 0.43956 0.85916 0.13478 0.0
C1652 C 0.44719 0.85921 0.1603 0.0
C1653 C 0.41483 0.84261 0.12621 0.0
C1654 C 0.40672 0.84071 0.09895 0.0
C1655 C 0.42535 0.8359 0.07881 0.0
C1656 C 0.4178 0.8344 0.05316 0.0
C1657 C 0.39161 0.83755 0.04737 0.0
C1658 C 0.3729 0.84218 0.06723 0.0
C1659 C 0.38035 0.84372 0.09291 0.0
H1660 H 0.38581 0.83639 0.0275 0.0
H1661 H 0.45831 0.85516 0.27698 0.0
H1662 H 0.70227 0.26066 0.22326 0.0
H1663 H 0.67351 0.22799 0.19401 0.0
H1664 H 0.73746 0.1829 0.18456 0.0
H1665 H 0.76597 0.21499 0.21444 0.0
H1666 H 0.70251 0.18816 0.1372 0.0
H1667 H 0.7007 0.16397 0.22701 0.0
H1668 H 0.695 0.17535 0.27362 0.0
H1669 H 0.61414 0.1884 0.26219 0.0
H1670 H 0.61969 0.17769 0.21537 0.0
H1671 H 0.65127 0.05849 0.10108 0.0
H1672 H 0.67419 0.09583 0.129 0.0
H1673 H 0.5967 0.11907 0.14723 0.0
H1674 H 0.57338 0.08165 0.11945 0.0
H1675 H 0.63332 0.12919 0.1886 0.0
H1676 H 0.63043 0.1458 0.10077 0.0
H1677 H 0.63484 0.13597 0.05379 0.0
H1678 H 0.72135 0.13998 0.05998 0.0
H1679 H 0.71736 0.14929 0.10709 0.0
C1680 C 0.71044 0.24414 0.21437 0.0
C1681 C 0.73606 0.23997 0.22119 0.0
C1682 C 0.69407 0.22563 0.19771 0.0
C1683 C 0.70354 0.20324 0.1874 0.0
C1684 C 0.73007 0.20025 0.19239 0.0
C1685 C 0.74616 0.21839 0.20952 0.0
C1686 C 0.6845 0.18097 0.17486 0.0
C1687 C 0.68739 0.1752 0.1483 0.0
C1688 C 0.6644 0.16473 0.18953 0.0
C1689 C 0.66074 0.17036 0.21771 0.0
C1690 C 0.68181 0.1695 0.23442 0.0
C1691 C 0.67861 0.17581 0.26086 0.0
C1692 C 0.65425 0.18267 0.27086 0.0
C1693 C 0.63302 0.18314 0.25442 0.0
C1694 C 0.63619 0.17698 0.22792 0.0
C1695 C 0.63895 0.07113 0.11149 0.0
C1696 C 0.61066 0.06758 0.10752 0.0
C1697 C 0.65208 0.09241 0.12742 0.0
C1698 C 0.63711 0.1104 0.13944 0.0
C1699 C 0.60849 0.1054 0.1378 0.0
C1700 C 0.59527 0.08403 0.1219 0.0
C1701 C 0.65186 0.13584 0.15095 0.0
C1702 C 0.64811 0.14229 0.17733 0.0
C1703 C 0.67085 0.15295 0.13598 0.0
C1704 C 0.67354 0.14801 0.10754 0.0
C1705 C 0.65036 0.14439 0.09215 0.0
C1706 C 0.65277 0.13889 0.0655 0.0
C1707 C 0.67833 0.13724 0.05393 0.0
C1708 C 0.70155 0.14121 0.06899 0.0
C1709 C 0.69923 0.14661 0.09567 0.0
H1710 H 0.68015 0.13301 0.03329 0.0
H1711 H 0.6518 0.18753 0.29134 0.0
H1712 H 0.75204 0.70089 0.83803 0.0
H1713 H 0.71826 0.66852 0.85942 0.0
H1714 H 0.65784 0.67378 0.80465 0.0
H1715 H 0.69183 0.70682 0.78306 0.0
H1716 H 0.63599 0.67449 0.85403 0.0
H1717 H 0.68492 0.61906 0.80189 0.0
H1718 H 0.72547 0.60373 0.78224 0.0
H1719 H 0.75119 0.59238 0.85706 0.0
H1720 H 0.711 0.60801 0.8772 0.0
H1721 H 0.55064 0.56763 0.92033 0.0
H1722 H 0.57455 0.59409 0.88612 0.0
H1723 H 0.65117 0.60245 0.92423 0.0
H1724 H 0.62802 0.57619 0.95782 0.0
H1725 H 0.65846 0.59041 0.87468 0.0
H1726 H 0.61167 0.65146 0.92651 0.0
H1727 H 0.57092 0.667 0.94547 0.0
H1728 H 0.5403 0.66717 0.86997 0.0
H1729 H 0.58055 0.65099 0.85055 0.0
C1730 C 0.73169 0.69509 0.83023 0.0
C1731 C 0.72483 0.70651 0.80864 0.0
C1732 C 0.71231 0.67641 0.84253 0.0
C1733 C 0.68543 0.6684 0.83362 0.0
C1734 C 0.67843 0.67954 0.81192 0.0
C1735 C 0.69798 0.69827 0.79944 0.0
C1736 C 0.66494 0.64883 0.8476 0.0
C1737 C 0.64061 0.65583 0.8581 0.0
C1738 C 0.67084 0.62446 0.85309 0.0
C1739 C 0.69498 0.61485 0.84107 0.0
C1740 C 0.69931 0.61345 0.81417 0.0
C1741 C 0.72222 0.60469 0.80294 0.0
C1742 C 0.74092 0.59712 0.8184 0.0
C1743 C 0.73669 0.59825 0.84511 0.0
C1744 C 0.71382 0.60702 0.85644 0.0
C1745 C 0.5726 0.57502 0.92134 0.0
C1746 C 0.58727 0.56959 0.94198 0.0
C1747 C 0.58622 0.59027 0.9018 0.0
C1748 C 0.61474 0.60037 0.90249 0.0
C1749 C 0.62924 0.59487 0.92303 0.0
C1750 C 0.61579 0.57983 0.94243 0.0
C1751 C 0.63013 0.61656 0.88211 0.0
C1752 C 0.65353 0.60884 0.87029 0.0
C1753 C 0.62322 0.64013 0.87537 0.0
C1754 C 0.59898 0.64972 0.88709 0.0
C1755 C 0.59612 0.65456 0.91395 0.0
C1756 C 0.57313 0.66351 0.92478 0.0
C1757 C 0.55304 0.66805 0.90893 0.0
C1758 C 0.55589 0.66363 0.88222 0.0
C1759 C 0.57875 0.65451 0.87129 0.0
H1760 H 0.53523 0.67494 0.91734 0.0
H1761 H 0.75865 0.59035 0.80966 0.0
H1762 H 0.3653 0.65363 0.8396 0.0
H1763 H 0.39309 0.63733 0.86926 0.0
H1764 H 0.46702 0.6797 0.83367 0.0
H1765 H 0.43915 0.69621 0.80369 0.0
H1766 H 0.46546 0.62315 0.85143 0.0
H1767 H 0.45202 0.71143 0.88137 0.0
H1768 H 0.41985 0.74194 0.88486 0.0
H1769 H 0.36516 0.69075 0.93314 0.0
H1770 H 0.39682 0.65977 0.92965 0.0
H1771 H 0.52598 0.59601 0.96344 0.0
H1772 H 0.51799 0.62342 0.93023 0.0
H1773 H 0.43283 0.6139 0.95515 0.0
H1774 H 0.44059 0.58659 0.98844 0.0
H1775 H 0.45067 0.66167 0.94036 0.0
H1776 H 0.45582 0.57293 0.90926 0.0
H1777 H 0.47743 0.53444 0.9003 0.0
H1778 H 0.53863 0.57841 0.85154 0.0
H1779 H 0.51774 0.6174 0.86071 0.0
C1780 C 0.38748 0.6592 0.83785 0.0
C1781 C 0.40011 0.67651 0.81969 0.0
C1782 C 0.4033 0.64972 0.85463 0.0
C1783 C 0.432 0.65754 0.85369 0.0
C1784 C 0.44487 0.67343 0.83452 0.0
C1785 C 0.42896 0.68287 0.81754 0.0
C1786 C 0.44771 0.65177 0.87497 0.0
C1787 C 0.46311 0.63205 0.87081 0.0
C1788 C 0.44385 0.66308 0.9002 0.0
C1789 C 0.42675 0.68329 0.9052 0.0
C1790 C 0.43325 0.70683 0.89293 0.0
C1791 C 0.41505 0.72412 0.8948 0.0
C1792 C 0.3904 0.71814 0.90902 0.0
C1793 C 0.38424 0.69528 0.92206 0.0
C1794 C 0.40235 0.67789 0.92022 0.0
C1795 C 0.50572 0.60036 0.96236 0.0
C1796 C 0.48376 0.58879 0.97835 0.0
C1797 C 0.50121 0.61601 0.94328 0.0
C1798 C 0.47476 0.62038 0.93998 0.0
C1799 C 0.45341 0.61071 0.95732 0.0
C1800 C 0.45784 0.59501 0.9763 0.0
C1801 C 0.46825 0.63253 0.91709 0.0
C1802 C 0.45434 0.65347 0.92094 0.0
C1803 C 0.47297 0.62181 0.89165 0.0
C1804 C 0.48566 0.59837 0.88625 0.0
C1805 C 0.47416 0.57456 0.89698 0.0
C1806 C 0.48625 0.55261 0.89182 0.0
C1807 C 0.50956 0.55404 0.87557 0.0
C1808 C 0.52072 0.57739 0.86433 0.0
C1809 C 0.50885 0.59947 0.8696 0.0
H1810 H 0.51887 0.537 0.87156 0.0
H1811 H 0.37595 0.7311 0.90974 0.0
H1812 H 0.32879 0.35543 0.78119 0.0
H1813 H 0.35921 0.39091 0.80578 0.0
H1814 H 0.38038 0.33474 0.85307 0.0
H1815 H 0.35035 0.29907 0.82843 0.0
H1816 H 0.35045 0.40461 0.8543 0.0
H1817 H 0.44479 0.3625 0.88154 0.0
H1818 H 0.47618 0.33475 0.86216 0.0
H1819 H 0.45532 0.34887 0.78652 0.0
H1820 H 0.42429 0.37727 0.80539 0.0
H1821 H 0.41005 0.46514 0.97131 0.0
H1822 H 0.38882 0.43503 0.93592 0.0
H1823 H 0.45822 0.4627 0.8859 0.0
H1824 H 0.48005 0.49236 0.92126 0.0
H1825 H 0.44589 0.41106 0.88143 0.0
H1826 H 0.39577 0.47971 0.87988 0.0
H1827 H 0.36707 0.51119 0.89667 0.0
H1828 H 0.30229 0.44721 0.9165 0.0
H1829 H 0.33086 0.41537 0.90041 0.0
C1830 C 0.34037 0.35045 0.7964 0.0
C1831 C 0.33678 0.3243 0.80291 0.0
C1832 C 0.35776 0.37084 0.81052 0.0
C1833 C 0.37209 0.36557 0.83135 0.0
C1834 C 0.36982 0.33934 0.83694 0.0
C1835 C 0.35243 0.31893 0.82284 0.0
C1836 C 0.38652 0.38759 0.84908 0.0
C1837 C 0.37139 0.40602 0.86011 0.0
C1838 C 0.41394 0.38962 0.8566 0.0
C1839 C 0.43181 0.37177 0.84494 0.0
C1840 C 0.44684 0.3597 0.86076 0.0
C1841 C 0.46466 0.34389 0.84986 0.0
C1842 C 0.46766 0.33995 0.82313 0.0
C1843 C 0.45286 0.35183 0.80724 0.0
C1844 C 0.43509 0.36776 0.81803 0.0
C1845 C 0.42077 0.46503 0.95276 0.0
C1846 C 0.44677 0.48135 0.94923 0.0
C1847 C 0.40851 0.44785 0.93247 0.0
C1848 C 0.42185 0.44673 0.90817 0.0
C1849 C 0.44759 0.4632 0.90448 0.0
C1850 C 0.45994 0.48031 0.92475 0.0
C1851 C 0.40956 0.4275 0.88696 0.0
C1852 C 0.42501 0.40959 0.87544 0.0
C1853 C 0.38253 0.42599 0.87881 0.0
C1854 C 0.36556 0.44515 0.88909 0.0
C1855 C 0.37553 0.47236 0.88809 0.0
C1856 C 0.35927 0.49027 0.89746 0.0
C1857 C 0.3329 0.48121 0.9077 0.0
C1858 C 0.32275 0.45422 0.90862 0.0
C1859 C 0.33897 0.43623 0.89939 0.0
H1860 H 0.32031 0.49511 0.91487 0.0
H1861 H 0.48151 0.32776 0.81473 0.0
H1862 H 0.61586 0.30715 0.86376 0.0
H1863 H 0.57945 0.32217 0.88907 0.0
H1864 H 0.53857 0.32921 0.81959 0.0
H1865 H 0.57625 0.31512 0.79391 0.0
H1866 H 0.54784 0.37307 0.84225 0.0
H1867 H 0.50267 0.29527 0.87364 0.0
H1868 H 0.49424 0.25108 0.88946 0.0
H1869 H 0.53848 0.28262 0.95774 0.0
H1870 H 0.54757 0.32694 0.94224 0.0
H1871 H 0.50261 0.44262 0.97068 0.0
H1872 H 0.49604 0.40302 0.9409 0.0
H1873 H 0.57976 0.42522 0.91263 0.0
H1874 H 0.58661 0.46502 0.94238 0.0
H1875 H 0.52251 0.36063 0.93403 0.0
H1876 H 0.5793 0.41742 0.84861 0.0
H1877 H 0.58316 0.46106 0.83238 0.0
H1878 H 0.50611 0.46844 0.86982 0.0
H1879 H 0.5014 0.42457 0.88584 0.0
C1880 C 0.59851 0.31065 0.8538 0.0
C1881 C 0.59917 0.31049 0.82687 0.0
C1882 C 0.57736 0.31912 0.8684 0.0
C1883 C 0.55613 0.32714 0.85637 0.0
C1884 C 0.55485 0.32347 0.82938 0.0
C1885 C 0.57638 0.31544 0.8147 0.0
C1886 C 0.54058 0.34525 0.87139 0.0
C1887 C 0.54168 0.36998 0.86212 0.0
C1888 C 0.5311 0.3412 0.89705 0.0
C1889 C 0.52572 0.31456 0.90674 0.0
C1890 C 0.51072 0.29281 0.89198 0.0
C1891 C 0.50581 0.26771 0.90091 0.0
C1892 C 0.51579 0.26405 0.9246 0.0
C1893 C 0.53068 0.2855 0.93943 0.0
C1894 C 0.53563 0.31065 0.93061 0.0
C1895 C 0.51976 0.43903 0.95826 0.0
C1896 C 0.54517 0.45708 0.95875 0.0
C1897 C 0.51589 0.41635 0.94132 0.0
C1898 C 0.53725 0.41147 0.9244 0.0
C1899 C 0.5629 0.42893 0.92539 0.0
C1900 C 0.56687 0.45155 0.94248 0.0
C1901 C 0.53304 0.3884 0.90528 0.0
C1902 C 0.52777 0.36307 0.91387 0.0
C1903 C 0.53775 0.3916 0.87878 0.0
C1904 C 0.54006 0.41768 0.86849 0.0
C1905 C 0.56302 0.4282 0.85317 0.0
C1906 C 0.56537 0.45301 0.84404 0.0
C1907 C 0.54488 0.4675 0.85008 0.0
C1908 C 0.52193 0.45717 0.86518 0.0
C1909 C 0.51942 0.43234 0.87429 0.0
H1910 H 0.54678 0.48674 0.84307 0.0
H1911 H 0.512 0.24459 0.93146 0.0
H1912 H 0.6208 0.36694 0.22605 0.0
H1913 H 0.59663 0.38096 0.19182 0.0
H1914 H 0.66477 0.37455 0.13894 0.0
H1915 H 0.68958 0.36185 0.17327 0.0
H1916 H 0.65033 0.41994 0.13731 0.0
H1917 H 0.60222 0.32968 0.13632 0.0
H1918 H 0.57475 0.29015 0.15451 0.0
H1919 H 0.5094 0.33133 0.17491 0.0
H1920 H 0.53667 0.37126 0.15728 0.0
H1921 H 0.59453 0.4503 0.02861 0.0
H1922 H 0.60926 0.42038 0.05592 0.0
H1923 H 0.54293 0.42898 0.11024 0.0
H1924 H 0.52742 0.45808 0.08251 0.0
H1925 H 0.55543 0.3806 0.11017 0.0
H1926 H 0.60382 0.4711 0.11563 0.0
H1927 H 0.63056 0.5117 0.09874 0.0
H1928 H 0.69465 0.47114 0.07194 0.0
H1929 H 0.66815 0.43013 0.0883 0.0
C1930 C 0.63069 0.36865 0.20716 0.0
C1931 C 0.65717 0.36337 0.20242 0.0
C1932 C 0.61667 0.37628 0.18753 0.0
C1933 C 0.62876 0.37846 0.16276 0.0
C1934 C 0.655 0.37283 0.15789 0.0
C1935 C 0.66909 0.36541 0.17751 0.0
C1936 C 0.61518 0.38864 0.14237 0.0
C1937 C 0.62977 0.41099 0.13106 0.0
C1938 C 0.58796 0.37753 0.1349 0.0
C1939 C 0.57164 0.35356 0.14571 0.0
C1940 C 0.58212 0.3304 0.14493 0.0
C1941 C 0.56655 0.3079 0.1551 0.0
C1942 C 0.54038 0.30825 0.16593 0.0
C1943 C 0.5297 0.33109 0.16657 0.0
C1944 C 0.5452 0.35366 0.15648 0.0
C1945 C 0.58256 0.44505 0.04596 0.0
C1946 C 0.56018 0.45677 0.05375 0.0
C1947 C 0.59101 0.42805 0.06154 0.0
C1948 C 0.57762 0.42315 0.08542 0.0
C1949 C 0.55357 0.43265 0.09194 0.0
C1950 C 0.54476 0.44929 0.0761 0.0
C1951 C 0.59083 0.41148 0.10495 0.0
C1952 C 0.57611 0.3892 0.11628 0.0
C1953 C 0.61788 0.42277 0.11274 0.0
C1954 C 0.63386 0.44747 0.10295 0.0
C1955 C 0.62352 0.47077 0.10597 0.0
C1956 C 0.63863 0.49387 0.09651 0.0
C1957 C 0.66423 0.494 0.08424 0.0
C1958 C 0.6748 0.47101 0.08142 0.0
C1959 C 0.65975 0.44783 0.09077 0.0
H1960 H 0.67589 0.51192 0.07698 0.0
H1961 H 0.52836 0.29079 0.17377 0.0
H1962 H 0.70521 0.71756 0.23358 0.0
H1963 H 0.67771 0.68274 0.20632 0.0
H1964 H 0.74967 0.65071 0.18453 0.0
H1965 H 0.77788 0.68681 0.21109 0.0
H1966 H 0.72258 0.64737 0.14466 0.0
H1967 H 0.69545 0.62057 0.22732 0.0
H1968 H 0.68013 0.62391 0.27292 0.0
H1969 H 0.6045 0.64223 0.2513 0.0
H1970 H 0.61951 0.6394 0.2056 0.0
H1971 H 0.59111 0.53533 0.11344 0.0
H1972 H 0.62396 0.55969 0.14522 0.0
H1973 H 0.64499 0.6237 0.09612 0.0
H1974 H 0.61401 0.59863 0.06379 0.0
H1975 H 0.63024 0.60179 0.17419 0.0
H1976 H 0.709 0.65561 0.09954 0.0
H1977 H 0.72679 0.64605 0.05553 0.0
H1978 H 0.70419 0.56309 0.06411 0.0
H1979 H 0.68665 0.57212 0.10829 0.0
C1980 C 0.71529 0.70302 0.22321 0.0
C1981 C 0.7438 0.70489 0.22476 0.0
C1982 C 0.69938 0.68288 0.20768 0.0
C1983 C 0.71127 0.66346 0.19375 0.0
C1984 C 0.73984 0.66527 0.19517 0.0
C1985 C 0.75598 0.68587 0.21041 0.0
C1986 C 0.69386 0.64224 0.17693 0.0
C1987 C 0.70246 0.63736 0.15122 0.0
C1988 C 0.66791 0.62818 0.1855 0.0
C1989 C 0.65871 0.62992 0.213 0.0
C1990 C 0.67563 0.62548 0.23229 0.0
C1991 C 0.66698 0.62727 0.25817 0.0
C1992 C 0.64138 0.63332 0.26501 0.0
C1993 C 0.62433 0.63755 0.24598 0.0
C1994 C 0.63289 0.63582 0.22007 0.0
C1995 C 0.60283 0.55461 0.10955 0.0
C1996 C 0.60039 0.56493 0.08601 0.0
C1997 C 0.62164 0.56852 0.12767 0.0
C1998 C 0.63769 0.59334 0.12288 0.0
C1999 C 0.63379 0.60424 0.1 0.0
C2000 C 0.61581 0.59 0.0816 0.0
C2001 C 0.65833 0.60818 0.14163 0.0
C2002 C 0.65042 0.6117 0.1677 0.0
C2003 C 0.68532 0.62015 0.13364 0.0
C2004 C 0.69634 0.61458 0.10721 0.0
C2005 C 0.708 0.63533 0.09212 0.0
C2006 C 0.718 0.63 0.06711 0.0
C2007 C 0.71657 0.60398 0.05701 0.0
C2008 C 0.70522 0.58323 0.07193 0.0
C2009 C 0.69523 0.58845 0.09695 0.0
H2010 H 0.72428 0.59991 0.03764 0.0
H2011 H 0.63473 0.63469 0.28506 0.0
H2012 H 0.45997 0.75336 0.23005 0.0
H2013 H 0.48949 0.74105 0.19403 0.0
H2014 H 0.47764 0.66271 0.21922 0.0
H2015 H 0.44904 0.67513 0.25541 0.0
H2016 H 0.52493 0.67355 0.19302 0.0
H2017 H 0.42809 0.68062 0.18117 0.0
H2018 H 0.39213 0.70718 0.18356 0.0
H2019 H 0.44186 0.76169 0.13488 0.0
H2020 H 0.47812 0.7354 0.13228 0.0
H2021 H 0.45088 0.58353 0.08724 0.0
H2022 H 0.4537 0.6225 0.11743 0.0
H2023 H 0.5407 0.64487 0.1005 0.0
H2024 H 0.53824 0.60559 0.07064 0.0
H2025 H 0.4687 0.67469 0.11721 0.0
H2026 H 0.5718 0.66825 0.15639 0.0
H2027 H 0.602 0.63639 0.15842 0.0
H2028 H 0.53161 0.57277 0.15682 0.0
H2029 H 0.50106 0.60427 0.15481 0.0
C2030 C 0.46468 0.73386 0.2284 0.0
C2031 C 0.45186 0.71497 0.24509 0.0
C2032 C 0.48151 0.72686 0.20787 0.0
C2033 C 0.48504 0.70076 0.20354 0.0
C2034 C 0.4751 0.68295 0.22211 0.0
C2035 C 0.45867 0.69004 0.24281 0.0
C2036 C 0.4934 0.69011 0.17781 0.0
C2037 C 0.51327 0.67442 0.17617 0.0
C2038 C 0.47792 0.69097 0.15591 0.0
C2039 C 0.4558 0.7062 0.15667 0.0
C2040 C 0.43127 0.69824 0.17093 0.0
C2041 C 0.41088 0.71324 0.17235 0.0
C2042 C 0.41474 0.73615 0.15944 0.0
C2043 C 0.43892 0.74396 0.1449 0.0
C2044 C 0.45937 0.729 0.14341 0.0
C2045 C 0.47055 0.5969 0.08963 0.0
C2046 C 0.49439 0.59119 0.07689 0.0
C2047 C 0.47211 0.61928 0.10678 0.0
C2048 C 0.49748 0.6364 0.1114 0.0
C2049 C 0.52101 0.63171 0.09744 0.0
C2050 C 0.51952 0.60921 0.08043 0.0
C2051 C 0.49938 0.65728 0.13283 0.0
C2052 C 0.48148 0.6749 0.13354 0.0
C2053 C 0.51608 0.6576 0.15413 0.0
C2054 C 0.53426 0.63855 0.1552 0.0
C2055 C 0.56283 0.64745 0.15647 0.0
C2056 C 0.57998 0.62947 0.15762 0.0
C2057 C 0.5687 0.60258 0.1578 0.0
C2058 C 0.54029 0.59359 0.15666 0.0
C2059 C 0.52307 0.61149 0.15546 0.0
H2060 H 0.5819 0.58869 0.159 0.0
H2061 H 0.399 0.74782 0.16066 0.0
H2062 H 0.33539 0.36896 0.26265 0.0
H2063 H 0.36398 0.4004 0.23505 0.0
H2064 H 0.34004 0.34724 0.16811 0.0
H2065 H 0.31089 0.31618 0.19527 0.0
H2066 H 0.39982 0.36745 0.17345 0.0
H2067 H 0.3142 0.39603 0.17169 0.0
H2068 H 0.27316 0.41091 0.19073 0.0
H2069 H 0.32437 0.4786 0.22911 0.0
H2070 H 0.3658 0.46392 0.21058 0.0
H2071 H 0.43313 0.44734 0.06638 0.0
H2072 H 0.40807 0.41981 0.09883 0.0
H2073 H 0.44785 0.47451 0.15909 0.0
H2074 H 0.47387 0.502 0.12643 0.0
H2075 H 0.38214 0.45547 0.15975 0.0
H2076 H 0.4681 0.42647 0.16096 0.0
H2077 H 0.50865 0.41042 0.1423 0.0
H2078 H 0.45617 0.34339 0.10418 0.0
H2079 H 0.41525 0.35902 0.12275 0.0
C2080 C 0.33601 0.36405 0.24203 0.0
C2081 C 0.3208 0.33992 0.23129 0.0
C2082 C 0.35238 0.38206 0.22627 0.0
C2083 C 0.35432 0.37616 0.19947 0.0
C2084 C 0.33902 0.35222 0.1887 0.0
C2085 C 0.32224 0.3345 0.20433 0.0
C2086 C 0.37277 0.39456 0.18267 0.0
C2087 C 0.39584 0.38664 0.1704 0.0
C2088 C 0.36795 0.41981 0.17891 0.0
C2089 C 0.34312 0.42867 0.19008 0.0
C2090 C 0.31674 0.41391 0.18445 0.0
C2091 C 0.29339 0.42233 0.1951 0.0
C2092 C 0.29615 0.44558 0.21126 0.0
C2093 C 0.32227 0.46052 0.2167 0.0
C2094 C 0.34569 0.45218 0.20611 0.0
C2095 C 0.43679 0.45348 0.08654 0.0
C2096 C 0.45555 0.47695 0.09377 0.0
C2097 C 0.4224 0.43768 0.10508 0.0
C2098 C 0.4259 0.4451 0.13142 0.0
C2099 C 0.44475 0.46841 0.13886 0.0
C2100 C 0.45974 0.48401 0.1202 0.0
C2101 C 0.40932 0.42844 0.15077 0.0
C2102 C 0.38638 0.43649 0.16321 0.0
C2103 C 0.41419 0.40327 0.15469 0.0
C2104 C 0.43864 0.39408 0.14298 0.0
C2105 C 0.46521 0.40847 0.14835 0.0
C2106 C 0.48826 0.39941 0.13786 0.0
C2107 C 0.485 0.37601 0.12189 0.0
C2108 C 0.45866 0.36156 0.11649 0.0
C2109 C 0.43554 0.37046 0.12706 0.0
H2110 H 0.50287 0.36901 0.11379 0.0
H2111 H 0.27805 0.45211 0.2194 0.0
H2112 H 0.84405 0.70793 0.75995 0.0
H2113 H 0.86996 0.68137 0.73127 0.0
H2114 H 0.8293 0.69906 0.66607 0.0
H2115 H 0.80293 0.72549 0.69494 0.0
H2116 H 0.83477 0.65072 0.65601 0.0
H2117 H 0.90229 0.72656 0.68358 0.0
H2118 H 0.92929 0.7591 0.71471 0.0
H2119 H 0.95942 0.69748 0.74622 0.0
H2120 H 0.93232 0.66451 0.71548 0.0
H2121 H 0.92476 0.60852 0.5576 0.0
H2122 H 0.89897 0.63223 0.58862 0.0
H2123 H 0.94164 0.61064 0.6505 0.0
H2124 H 0.96848 0.5869 0.61887 0.0
H2125 H 0.93522 0.65961 0.66353 0.0
H2126 H 0.86857 0.58387 0.63542 0.0
H2127 H 0.84156 0.55125 0.60438 0.0
H2128 H 0.80954 0.61246 0.57419 0.0
H2129 H 0.83665 0.64551 0.60484 0.0
C2130 C 0.84037 0.70631 0.73952 0.0
C2131 C 0.82084 0.71941 0.73036 0.0
C2132 C 0.85569 0.69101 0.72277 0.0
C2133 C 0.85266 0.68792 0.69569 0.0
C2134 C 0.83277 0.70063 0.68653 0.0
C2135 C 0.81744 0.71602 0.70332 0.0
C2136 C 0.86974 0.67154 0.67726 0.0
C2137 C 0.8568 0.65317 0.65766 0.0
C2138 C 0.89872 0.67331 0.67894 0.0
C2139 C 0.91505 0.69304 0.69741 0.0
C2140 C 0.91453 0.71993 0.69727 0.0
C2141 C 0.92987 0.73845 0.71483 0.0
C2142 C 0.946 0.73035 0.73248 0.0
C2143 C 0.94688 0.70372 0.73257 0.0
C2144 C 0.93155 0.68511 0.71507 0.0
C2145 C 0.92885 0.60833 0.57777 0.0
C2146 C 0.94918 0.59499 0.585 0.0
C2147 C 0.91357 0.62211 0.5959 0.0
C2148 C 0.91726 0.62349 0.62273 0.0
C2149 C 0.93763 0.61027 0.63024 0.0
C2150 C 0.95306 0.59626 0.61191 0.0
C2151 C 0.90023 0.63892 0.64221 0.0
C2152 C 0.91318 0.65713 0.66194 0.0
C2153 C 0.87121 0.63699 0.6407 0.0
C2154 C 0.85484 0.6172 0.62228 0.0
C2155 C 0.85591 0.5904 0.62205 0.0
C2156 C 0.84056 0.57183 0.60454 0.0
C2157 C 0.82389 0.57979 0.58728 0.0
C2158 C 0.82249 0.60633 0.58754 0.0
C2159 C 0.83782 0.62499 0.605 0.0
H2160 H 0.81202 0.56538 0.57374 0.0
H2161 H 0.95786 0.74472 0.74606 0.0
H2162 H 0.29895 0.85567 0.73928 0.0
H2163 H 0.32453 0.88432 0.70803 0.0
H2164 H 0.35784 0.81942 0.67176 0.0
H2165 H 0.3326 0.79064 0.70314 0.0
H2166 H 0.39742 0.86359 0.67926 0.0
H2167 H 0.30782 0.84133 0.64308 0.0
H2168 H 0.25742 0.83634 0.64418 0.0
H2169 H 0.26556 0.91934 0.66411 0.0
H2170 H 0.31602 0.92479 0.66346 0.0
H2171 H 0.4608 0.93992 0.57807 0.0
H2172 H 0.43101 0.90415 0.59953 0.0
H2173 H 0.38755 0.95991 0.64002 0.0
H2174 H 0.41652 0.99545 0.61839 0.0
H2175 H 0.35254 0.91628 0.62646 0.0
H2176 H 0.44028 0.93878 0.66675 0.0
H2177 H 0.49069 0.94517 0.66851 0.0
H2178 H 0.48631 0.8635 0.64396 0.0
H2179 H 0.43588 0.85674 0.64148 0.0
C2180 C 0.31157 0.84739 0.72458 0.0
C2181 C 0.31364 0.8208 0.72374 0.0
C2182 C 0.32613 0.86381 0.70665 0.0
C2183 C 0.34292 0.85397 0.68737 0.0
C2184 C 0.34498 0.82743 0.68642 0.0
C2185 C 0.33042 0.81098 0.70434 0.0
C2186 C 0.35885 0.8716 0.66866 0.0
C2187 C 0.38759 0.87474 0.66732 0.0
C2188 C 0.34606 0.88657 0.65351 0.0
C2189 C 0.31572 0.88343 0.65338 0.0
C2190 C 0.29887 0.8585 0.64782 0.0
C2191 C 0.27028 0.85559 0.64835 0.0
C2192 C 0.25829 0.8775 0.65426 0.0
C2193 C 0.27488 0.90239 0.65954 0.0
C2194 C 0.30347 0.9054 0.65905 0.0
C2195 C 0.44462 0.94452 0.59122 0.0
C2196 C 0.44135 0.97069 0.59667 0.0
C2197 C 0.4277 0.92405 0.6036 0.0
C2198 C 0.40734 0.92939 0.62177 0.0
C2199 C 0.40316 0.95526 0.62618 0.0
C2200 C 0.41991 0.97564 0.61382 0.0
C2201 C 0.39118 0.90856 0.63727 0.0
C2202 C 0.36238 0.90484 0.63807 0.0
C2203 C 0.40396 0.89329 0.65216 0.0
C2204 C 0.43431 0.89734 0.65359 0.0
C2205 C 0.45008 0.92224 0.66146 0.0
C2206 C 0.47865 0.92592 0.66262 0.0
C2207 C 0.49169 0.90477 0.65627 0.0
C2208 C 0.47617 0.87989 0.64878 0.0
C2209 C 0.4476 0.87612 0.64747 0.0
H2210 H 0.51379 0.90765 0.65725 0.0
H2211 H 0.23616 0.8752 0.65472 0.0
H2212 H 0.21307 0.40423 0.67288 0.0
H2213 H 0.18538 0.43194 0.65586 0.0
H2214 H 0.11173 0.38321 0.68545 0.0
H2215 H 0.1393 0.35461 0.70158 0.0
H2216 H 0.10232 0.39378 0.63958 0.0
H2217 H 0.13866 0.44687 0.71327 0.0
H2218 H 0.17349 0.47016 0.74392 0.0
H2219 H 0.21363 0.51812 0.68498 0.0
H2220 H 0.17925 0.49485 0.65384 0.0
H2221 H 0.02128 0.48389 0.60699 0.0
H2222 H 0.04511 0.46179 0.6359 0.0
H2223 H 0.12229 0.49158 0.59728 0.0
H2224 H 0.09847 0.51311 0.56813 0.0
H2225 H 0.12613 0.4913 0.65225 0.0
H2226 H 0.08943 0.43317 0.57819 0.0
H2227 H 0.05168 0.41088 0.55007 0.0
H2228 H 1.00872 0.37305 0.61425 0.0
H2229 H 0.04607 0.39546 0.64285 0.0
C2230 C 0.19098 0.39922 0.67572 0.0
C2231 C 0.17859 0.37697 0.68867 0.0
C2232 C 0.17509 0.41539 0.66619 0.0
C2233 C 0.1463 0.41006 0.66955 0.0
C2234 C 0.13385 0.38795 0.6826 0.0
C2235 C 0.14974 0.3717 0.69208 0.0
C2236 C 0.12932 0.42703 0.65867 0.0
C2237 C 0.10732 0.41507 0.64283 0.0
C2238 C 0.13563 0.45495 0.66258 0.0
C2239 C 0.1565 0.46892 0.68115 0.0
C2240 C 0.15505 0.46222 0.70677 0.0
C2241 C 0.17469 0.47545 0.72425 0.0
C2242 C 0.1958 0.49556 0.71638 0.0
C2243 C 0.19728 0.50251 0.69103 0.0
C2244 C 0.17771 0.48932 0.67346 0.0
C2245 C 0.04345 0.48652 0.60535 0.0
C2246 C 0.05809 0.50056 0.58557 0.0
C2247 C 0.05704 0.47364 0.62169 0.0
C2248 C 0.08554 0.47481 0.61869 0.0
C2249 C 0.10037 0.49039 0.60008 0.0
C2250 C 0.08675 0.50281 0.58349 0.0
C2251 C 0.09962 0.45799 0.63304 0.0
C2252 C 0.12107 0.46998 0.64938 0.0
C2253 C 0.09251 0.43012 0.62999 0.0
C2254 C 0.07038 0.4162 0.6127 0.0
C2255 C 0.07185 0.42023 0.58634 0.0
C2256 C 0.05054 0.40756 0.57031 0.0
C2257 C 0.02778 0.39062 0.58038 0.0
C2258 C 0.02634 0.38622 0.60649 0.0
C2259 C 0.04758 0.39888 0.62261 0.0
H2260 H 1.01128 0.38086 0.56795 0.0
H2261 H 0.21097 0.5058 0.72995 0.0
H2262 H 0.70039 0.25507 0.72889 0.0
H2263 H 0.67214 0.22238 0.69976 0.0
H2264 H 0.73369 0.17455 0.69549 0.0
H2265 H 0.76276 0.208 0.72414 0.0
H2266 H 0.70977 0.17106 0.64974 0.0
H2267 H 0.67922 0.16125 0.73626 0.0
H2268 H 0.6656 0.17596 0.78034 0.0
H2269 H 0.59615 0.19999 0.75137 0.0
H2270 H 0.60975 0.18609 0.70701 0.0
H2271 H 0.56478 0.07253 0.63899 0.0
H2272 H 0.60478 0.09533 0.66326 0.0
H2273 H 0.62991 0.14615 0.60178 0.0
H2274 H 0.59065 0.12232 0.57688 0.0
H2275 H 0.61443 0.14133 0.68322 0.0
H2276 H 0.69718 0.17357 0.60259 0.0
H2277 H 0.71271 0.15532 0.56049 0.0
H2278 H 0.68028 0.07684 0.58144 0.0
H2279 H 0.66497 0.09457 0.62383 0.0
C2280 C 0.70809 0.23774 0.72155 0.0
C2281 C 0.73357 0.23386 0.72907 0.0
C2282 C 0.6919 0.21904 0.70492 0.0
C2283 C 0.70047 0.19569 0.69598 0.0
C2284 C 0.7266 0.19236 0.70231 0.0
C2285 C 0.74314 0.21141 0.71868 0.0
C2286 C 0.68113 0.17434 0.68155 0.0
C2287 C 0.68894 0.1644 0.65702 0.0
C2288 C 0.65429 0.16489 0.69151 0.0
C2289 C 0.64561 0.17275 0.71826 0.0
C2290 C 0.66111 0.16979 0.73926 0.0
C2291 C 0.6534 0.17799 0.7643 0.0
C2292 C 0.63 0.18886 0.76866 0.0
C2293 C 0.61426 0.19155 0.74797 0.0
C2294 C 0.62197 0.18352 0.72286 0.0
C2295 C 0.5791 0.08835 0.63054 0.0
C2296 C 0.57458 0.09586 0.60619 0.0
C2297 C 0.60195 0.10137 0.64441 0.0
C2298 C 0.6205 0.12251 0.63444 0.0
C2299 C 0.61632 0.12959 0.60976 0.0
C2300 C 0.59377 0.11611 0.59558 0.0
C2301 C 0.64258 0.13859 0.6508 0.0
C2302 C 0.6353 0.14758 0.67586 0.0
C2303 C 0.6701 0.14631 0.64163 0.0
C2304 C 0.67975 0.13545 0.61635 0.0
C2305 C 0.69353 0.15242 0.5983 0.0
C2306 C 0.70226 0.14216 0.57437 0.0
C2307 C 0.69744 0.11494 0.56829 0.0
C2308 C 0.68395 0.09792 0.58617 0.0
C2309 C 0.67522 0.10806 0.61014 0.0
H2310 H 0.70417 0.10705 0.54973 0.0
H2311 H 0.62407 0.1952 0.78806 0.0
H2312 H 0.84344 0.31002 0.35038 0.0
H2313 H 0.86207 0.33632 0.38901 0.0
H2314 H 0.7848 0.36065 0.4053 0.0
H2315 H 0.76597 0.33457 0.36673 0.0
H2316 H 0.82734 0.4016 0.40074 0.0
H2317 H 0.80699 0.32675 0.44858 0.0
H2318 H 0.80406 0.28049 0.45719 0.0
H2319 H 0.89199 0.29146 0.45181 0.0
H2320 H 0.89549 0.33768 0.44278 0.0
H2321 H 0.92198 0.49092 0.48257 0.0
H2322 H 0.87954 0.45915 0.47145 0.0
H2323 H 0.92775 0.40263 0.44079 0.0
H2324 H 0.9697 0.43366 0.45269 0.0
H2325 H 0.88484 0.3787 0.46677 0.0
H2326 H 0.90229 0.4443 0.40228 0.0
H2327 H 0.90777 0.48949 0.38916 0.0
H2328 H 0.82795 0.49427 0.42196 0.0
H2329 H 0.82216 0.44917 0.43548 0.0
C2330 C 0.83025 0.32057 0.36241 0.0
C2331 C 0.80347 0.32066 0.35521 0.0
C2332 C 0.8408 0.33534 0.38463 0.0
C2333 C 0.82466 0.35024 0.40002 0.0
C2334 C 0.79744 0.34917 0.39368 0.0
C2335 C 0.78686 0.33439 0.37151 0.0
C2336 C 0.83783 0.37015 0.41985 0.0
C2337 C 0.83923 0.39665 0.41579 0.0
C2338 C 0.85339 0.36354 0.43926 0.0
C2339 C 0.85148 0.33577 0.445 0.0
C2340 C 0.82571 0.31929 0.44911 0.0
C2341 C 0.82395 0.29306 0.45408 0.0
C2342 C 0.84782 0.28305 0.45506 0.0
C2343 C 0.87351 0.29926 0.4511 0.0
C2344 C 0.8754 0.32551 0.44612 0.0
C2345 C 0.92333 0.47172 0.47333 0.0
C2346 C 0.94894 0.46469 0.46821 0.0
C2347 C 0.89919 0.45359 0.4672 0.0
C2348 C 0.90056 0.42856 0.45534 0.0
C2349 C 0.9262 0.42169 0.45027 0.0
C2350 C 0.95016 0.43951 0.4568 0.0
C2351 C 0.87583 0.40982 0.44618 0.0
C2352 C 0.87204 0.38363 0.45246 0.0
C2353 C 0.85848 0.41657 0.42835 0.0
C2354 C 0.86195 0.44359 0.42018 0.0
C2355 C 0.886 0.45509 0.40682 0.0
C2356 C 0.88915 0.48065 0.3993 0.0
C2357 C 0.86827 0.49478 0.40481 0.0
C2358 C 0.84415 0.48333 0.41778 0.0
C2359 C 0.84092 0.45779 0.42537 0.0
H2360 H 0.87075 0.51457 0.39897 0.0
H2361 H 0.84641 0.26272 0.45888 0.0
H2362 H 0.69986 0.85493 0.39955 0.0
H2363 H 0.67489 0.87984 0.4305 0.0
H2364 H 0.61238 0.81006 0.4398 0.0
H2365 H 0.63656 0.78527 0.40769 0.0
H2366 H 0.58946 0.84908 0.43295 0.0
H2367 H 0.65644 0.8374 0.48928 0.0
H2368 H 0.70247 0.83611 0.50391 0.0
H2369 H 0.72818 0.91923 0.49748 0.0
H2370 H 0.68242 0.921 0.48246 0.0
H2371 H 0.52738 0.93646 0.5187 0.0
H2372 H 0.54992 0.89927 0.50722 0.0
H2373 H 0.61875 0.95141 0.47377 0.0
H2374 H 0.59656 0.98863 0.48511 0.0
H2375 H 0.6339 0.91311 0.5023 0.0
H2376 H 0.56928 0.91992 0.43613 0.0
H2377 H 0.52298 0.9205 0.42172 0.0
H2378 H 0.49239 0.84423 0.44884 0.0
H2379 H 0.53855 0.84333 0.4637 0.0
C2380 C 0.68076 0.84488 0.40811 0.0
C2381 C 0.6701 0.81817 0.40103 0.0
C2382 C 0.66673 0.85903 0.42615 0.0
C2383 C 0.642 0.84669 0.43782 0.0
C2384 C 0.63155 0.8199 0.43119 0.0
C2385 C 0.64548 0.80575 0.41295 0.0
C2386 C 0.62602 0.86253 0.45505 0.0
C2387 C 0.59895 0.86253 0.44861 0.0
C2388 C 0.63838 0.88014 0.47544 0.0
C2389 C 0.66597 0.8793 0.48464 0.0
C2390 C 0.67194 0.85539 0.49084 0.0
C2391 C 0.69799 0.85458 0.49922 0.0
C2392 C 0.71824 0.87757 0.5016 0.0
C2393 C 0.71246 0.90144 0.49565 0.0
C2394 C 0.68644 0.90237 0.48725 0.0
C2395 C 0.54748 0.94007 0.50919 0.0
C2396 C 0.56004 0.96544 0.50248 0.0
C2397 C 0.56029 0.91882 0.5027 0.0
C2398 C 0.58586 0.92268 0.48958 0.0
C2399 C 0.59902 0.94812 0.48398 0.0
C2400 C 0.58618 0.96931 0.49025 0.0
C2401 C 0.59804 0.90018 0.47941 0.0
C2402 C 0.62428 0.89899 0.48719 0.0
C2403 C 0.58485 0.88126 0.46045 0.0
C2404 C 0.55723 0.88171 0.45131 0.0
C2405 C 0.55263 0.90337 0.43919 0.0
C2406 C 0.52642 0.90375 0.43092 0.0
C2407 C 0.50471 0.88249 0.43445 0.0
C2408 C 0.5092 0.86073 0.44618 0.0
C2409 C 0.53538 0.86026 0.45452 0.0
H2410 H 0.48443 0.88284 0.42803 0.0
H2411 H 0.7384 0.87689 0.50808 0.0
H2412 H 0.25877 0.69086 0.34035 0.0
H2413 H 0.2261 0.66665 0.37024 0.0
H2414 H 0.18435 0.7318 0.382 0.0
H2415 H 0.21746 0.75654 0.35258 0.0
H2416 H 0.18785 0.71004 0.42667 0.0
H2417 H 0.15977 0.67942 0.34059 0.0
H2418 H 0.16584 0.6617 0.2957 0.0
H2419 H 0.18459 0.59192 0.32223 0.0
H2420 H 0.17904 0.60942 0.36732 0.0
H2421 H 0.05728 0.64279 0.46961 0.0
H2422 H 0.09666 0.66842 0.44769 0.0
H2423 H 0.13407 0.60036 0.43667 0.0
H2424 H 0.09429 0.57421 0.45817 0.0
H2425 H 0.13475 0.62309 0.39306 0.0
H2426 H 0.15843 0.65327 0.48018 0.0
H2427 H 0.15072 0.67172 0.5245 0.0
H2428 H 0.13868 0.74306 0.49583 0.0
H2429 H 0.14573 0.72487 0.45128 0.0
C2430 C 0.24278 0.70019 0.34938 0.0
C2431 C 0.24047 0.72551 0.34368 0.0
C2432 C 0.22408 0.68626 0.36644 0.0
C2433 C 0.20251 0.69723 0.37793 0.0
C2434 C 0.20077 0.72291 0.37318 0.0
C2435 C 0.2196 0.73695 0.3562 0.0
C2436 C 0.18111 0.68139 0.39397 0.0
C2437 C 0.17604 0.69113 0.41931 0.0
C2438 C 0.16611 0.6565 0.38443 0.0
C2439 C 0.16927 0.64585 0.35733 0.0
C2440 C 0.16539 0.66039 0.33686 0.0
C2441 C 0.16871 0.65037 0.31137 0.0
C2442 C 0.17567 0.62573 0.30611 0.0
C2443 C 0.17925 0.61102 0.32633 0.0
C2444 C 0.176 0.62097 0.35185 0.0
C2445 C 0.07395 0.63322 0.46277 0.0
C2446 C 0.07251 0.60634 0.46557 0.0
C2447 C 0.09658 0.64802 0.45037 0.0
C2448 C 0.11846 0.6364 0.4408 0.0
C2449 C 0.11741 0.60972 0.44399 0.0
C2450 C 0.09467 0.59482 0.4563 0.0
C2451 C 0.14144 0.65164 0.42589 0.0
C2452 C 0.14674 0.64184 0.40062 0.0
C2453 C 0.15645 0.67654 0.43549 0.0
C2454 C 0.1524 0.6876 0.46233 0.0
C2455 C 0.15392 0.67281 0.48329 0.0
C2456 C 0.1497 0.68323 0.50847 0.0
C2457 C 0.14419 0.70852 0.51298 0.0
C2458 C 0.14293 0.72346 0.49231 0.0
C2459 C 0.14705 0.71311 0.46709 0.0
H2460 H 0.14093 0.71654 0.53249 0.0
H2461 H 0.17822 0.61801 0.28637 0.0
H2462 H 0.40724 0.24224 0.39989 0.0
H2463 H 0.42126 0.2065 0.4197 0.0
H2464 H 0.34568 0.15391 0.39711 0.0
H2465 H 0.33113 0.18979 0.37796 0.0
H2466 H 0.36018 0.14563 0.44472 0.0
H2467 H 0.40074 0.15171 0.36089 0.0
H2468 H 0.42613 0.17369 0.32456 0.0
H2469 H 0.49856 0.19614 0.36954 0.0
H2470 H 0.47341 0.17479 0.40639 0.0
H2471 H 0.47404 0.05838 0.44405 0.0
H2472 H 0.44274 0.07839 0.4214 0.0
H2473 H 0.42489 0.12222 0.4923 0.0
H2474 H 0.45496 0.10142 0.51512 0.0
H2475 H 0.45036 0.12647 0.41359 0.0
H2476 H 0.36621 0.14193 0.49259 0.0
H2477 H 0.33893 0.1171 0.52634 0.0
H2478 H 0.3495 0.0443 0.48551 0.0
H2479 H 0.37652 0.06865 0.45132 0.0
C2480 C 0.3934 0.22321 0.39961 0.0
C2481 C 0.3683 0.21864 0.38712 0.0
C2482 C 0.40148 0.2028 0.41073 0.0
C2483 C 0.38467 0.17754 0.40937 0.0
C2484 C 0.35896 0.17326 0.39815 0.0
C2485 C 0.35084 0.19367 0.38706 0.0
C2486 C 0.39475 0.15537 0.41844 0.0
C2487 C 0.37981 0.14124 0.43792 0.0
C2488 C 0.41977 0.14905 0.40866 0.0
C2489 C 0.43511 0.16178 0.38648 0.0
C2490 C 0.42203 0.1615 0.36311 0.0
C2491 C 0.43639 0.17383 0.3424 0.0
C2492 C 0.46396 0.1863 0.34473 0.0
C2493 C 0.47721 0.18647 0.36777 0.0
C2494 C 0.4629 0.17425 0.38858 0.0
C2495 C 0.46297 0.07189 0.45483 0.0
C2496 C 0.46706 0.07854 0.48125 0.0
C2497 C 0.44509 0.08325 0.44192 0.0
C2498 C 0.43133 0.10168 0.45517 0.0
C2499 C 0.43469 0.10758 0.48176 0.0
C2500 C 0.45212 0.09585 0.49476 0.0
C2501 C 0.41645 0.11733 0.44085 0.0
C2502 C 0.43047 0.13034 0.42023 0.0
C2503 C 0.39024 0.122 0.44913 0.0
C2504 C 0.37353 0.10717 0.46942 0.0
C2505 C 0.36255 0.12062 0.49069 0.0
C2506 C 0.34717 0.10662 0.50994 0.0
C2507 C 0.34252 0.07914 0.50809 0.0
C2508 C 0.35318 0.06559 0.48695 0.0
C2509 C 0.36856 0.07949 0.46765 0.0
H2510 H 0.33064 0.06835 0.52303 0.0
H2511 H 0.47507 0.19581 0.32867 0.0
H2512 H 0.64396 0.85842 0.72083 0.0
H2513 H 0.61938 0.88934 0.7045 0.0
H2514 H 0.67467 0.89676 0.63815 0.0
H2515 H 0.69995 0.86663 0.6548 0.0
H2516 H 0.66506 0.94357 0.65462 0.0
H2517 H 0.60888 0.85789 0.63638 0.0
H2518 H 0.58146 0.81437 0.64541 0.0
H2519 H 0.5269 0.85139 0.69534 0.0
H2520 H 0.55432 0.89513 0.68703 0.0
H2521 H 0.58187 0.9973 0.5737 0.0
H2522 H 0.60887 0.96988 0.5926 0.0
H2523 H 0.55575 0.96672 0.6605 0.0
H2524 H 0.52869 0.9941 0.64183 0.0
H2525 H 0.56436 0.91844 0.64361 0.0
H2526 H 0.62023 1.00424 0.66141 0.0
H2527 H 0.64663 0.0477 0.65091 0.0
H2528 H 0.70072 0.01043 0.60067 0.0
H2529 H 0.67434 0.96671 0.6105 0.0
C2530 C 0.65117 0.86685 0.70292 0.0
C2531 C 0.67396 0.85975 0.68913 0.0
C2532 C 0.63685 0.88437 0.69343 0.0
C2533 C 0.64479 0.89519 0.66981 0.0
C2534 C 0.66793 0.88866 0.65632 0.0
C2535 C 0.68226 0.87116 0.6658 0.0
C2536 C 0.62898 0.91311 0.65903 0.0
C2537 C 0.64308 0.9379 0.65198 0.0
C2538 C 0.60013 0.90613 0.65597 0.0
C2539 C 0.58392 0.8798 0.66137 0.0
C2540 C 0.59125 0.85676 0.64955 0.0
C2541 C 0.57567 0.83204 0.65449 0.0
C2542 C 0.55253 0.83011 0.67102 0.0
C2543 C 0.54489 0.8529 0.68262 0.0
C2544 C 0.56047 0.87766 0.67781 0.0
C2545 C 0.57608 0.99104 0.59278 0.0
C2546 C 0.55312 0.99814 0.60626 0.0
C2547 C 0.59161 0.97536 0.6036 0.0
C2548 C 0.58455 0.96633 0.62812 0.0
C2549 C 0.56171 0.97345 0.64162 0.0
C2550 C 0.54631 0.98928 0.63092 0.0
C2551 C 0.60039 0.94883 0.63939 0.0
C2552 C 0.5863 0.92413 0.64644 0.0
C2553 C 0.62919 0.95588 0.64242 0.0
C2554 C 0.64515 0.98216 0.63653 0.0
C2555 C 0.63761 1.00529 0.64795 0.0
C2556 C 0.65259 0.02998 0.64214 0.0
C2557 C 0.67532 0.03182 0.62512 0.0
C2558 C 0.6831 1.00897 0.61384 0.0
C2559 C 0.66815 0.98423 0.61953 0.0
H2560 H 0.68698 0.05094 0.62074 0.0
H2561 H 0.54045 0.81096 0.67478 0.0
H2562 H 0.75187 0.21327 0.34743 0.0
H2563 H 0.72217 0.18868 0.37963 0.0
H2564 H 0.65861 0.23098 0.36774 0.0
H2565 H 0.68803 0.25547 0.33545 0.0
H2566 H 0.66437 0.22724 0.41956 0.0
H2567 H 0.65212 0.16759 0.34318 0.0
H2568 H 0.66678 0.14129 0.30537 0.0
H2569 H 0.70663 0.09988 0.35452 0.0
H2570 H 0.69221 0.12594 0.39268 0.0
H2571 H 0.55505 0.14084 0.48577 0.0
H2572 H 0.58499 0.16985 0.45683 0.0
H2573 H 0.64635 0.12233 0.45759 0.0
H2574 H 0.61634 0.0932 0.48571 0.0
H2575 H 0.64083 0.1297 0.41078 0.0
H2576 H 0.65317 0.18867 0.48737 0.0
H2577 H 0.63877 0.21471 0.5255 0.0
H2578 H 0.60013 0.25775 0.4769 0.0
H2579 H 0.614 0.23172 0.43848 0.0
C2580 C 0.73156 0.21735 0.35156 0.0
C2581 C 0.7225 0.23643 0.33856 0.0
C2582 C 0.71448 0.20317 0.37004 0.0
C2583 C 0.68789 0.20775 0.37626 0.0
C2584 C 0.67893 0.22697 0.3635 0.0
C2585 C 0.69585 0.24093 0.34483 0.0
C2586 C 0.66941 0.19242 0.39584 0.0
C2587 C 0.65897 0.20591 0.41746 0.0
C2588 C 0.66256 0.16452 0.39365 0.0
C2589 C 0.67132 0.14889 0.37076 0.0
C2590 C 0.66419 0.15301 0.34591 0.0
C2591 C 0.67241 0.13813 0.32442 0.0
C2592 C 0.68776 0.11905 0.32752 0.0
C2593 C 0.69479 0.11471 0.35215 0.0
C2594 C 0.68654 0.12948 0.37372 0.0
C2595 C 0.57525 0.13707 0.48037 0.0
C2596 C 0.58325 0.11469 0.48832 0.0
C2597 C 0.59244 0.15365 0.46362 0.0
C2598 C 0.61825 0.14851 0.45467 0.0
C2599 C 0.62662 0.12686 0.46373 0.0
C2600 C 0.60945 0.11025 0.48013 0.0
C2601 C 0.63597 0.16442 0.43489 0.0
C2602 C 0.64622 0.15103 0.41307 0.0
C2603 C 0.64273 0.19239 0.43704 0.0
C2604 C 0.63437 0.20805 0.46007 0.0
C2605 C 0.64141 0.20355 0.48483 0.0
C2606 C 0.63338 0.21833 0.50649 0.0
C2607 C 0.61848 0.23782 0.50363 0.0
C2608 C 0.61164 0.24262 0.47909 0.0
C2609 C 0.6196 0.22787 0.45736 0.0
H2610 H 0.61229 0.24925 0.52042 0.0
H2611 H 0.69412 0.10756 0.31085 0.0
H2612 H 0.80376 0.71561 0.34363 0.0
H2613 H 0.8284 0.68937 0.36737 0.0
H2614 H 0.89052 0.6933 0.30705 0.0
H2615 H 0.8658 0.71959 0.2833 0.0
H2616 H 0.89139 0.64763 0.32351 0.0
H2617 H 0.8956 0.72723 0.37816 0.0
H2618 H 0.87767 0.76225 0.4043 0.0
H2619 H 0.82976 0.7048 0.45115 0.0
H2620 H 0.84719 0.66939 0.42508 0.0
H2621 H 0.98275 0.58851 0.40059 0.0
H2622 H 0.95906 0.61331 0.37399 0.0
H2623 H 0.90209 0.62307 0.43684 0.0
H2624 H 0.926 0.59934 0.46324 0.0
H2625 H 0.89948 0.6625 0.41799 0.0
H2626 H 0.89377 0.58245 0.36302 0.0
H2627 H 0.91056 0.54702 0.3364 0.0
H2628 H 0.95993 0.60411 0.29008 0.0
H2629 H 0.94367 0.63991 0.31664 0.0
C2630 C 0.82268 0.71118 0.33503 0.0
C2631 C 0.83176 0.7209 0.31058 0.0
C2632 C 0.83747 0.6958 0.3492 0.0
C2633 C 0.86288 0.68841 0.3404 0.0
C2634 C 0.87163 0.69773 0.3157 0.0
C2635 C 0.857 0.71336 0.30166 0.0
C2636 C 0.87974 0.67153 0.35631 0.0
C2637 C 0.89309 0.65149 0.34419 0.0
C2638 C 0.88301 0.6745 0.38385 0.0
C2639 C 0.87246 0.69565 0.39951 0.0
C2640 C 0.8811 0.72205 0.39393 0.0
C2641 C 0.87105 0.74197 0.40875 0.0
C2642 C 0.85252 0.73574 0.42932 0.0
C2643 C 0.84407 0.70958 0.43517 0.0
C2644 C 0.85404 0.68959 0.42039 0.0
C2645 C 0.96484 0.59525 0.40894 0.0
C2646 C 0.95705 0.59034 0.43515 0.0
C2647 C 0.95065 0.61001 0.39317 0.0
C2648 C 0.92712 0.62112 0.40192 0.0
C2649 C 0.91953 0.6159 0.42799 0.0
C2650 C 0.93368 0.60149 0.44362 0.0
C2651 C 0.91092 0.63815 0.38535 0.0
C2652 C 0.89772 0.65838 0.39735 0.0
C2653 C 0.90765 0.63518 0.35773 0.0
C2654 C 0.91778 0.61385 0.34201 0.0
C2655 C 0.90837 0.58744 0.34728 0.0
C2656 C 0.91777 0.56731 0.33219 0.0
C2657 C 0.93637 0.57332 0.31162 0.0
C2658 C 0.94559 0.59949 0.30607 0.0
C2659 C 0.9363 0.61971 0.32114 0.0
H2660 H 0.94359 0.55771 0.29993 0.0
H2661 H 0.84477 0.75119 0.44078 0.0
H2662 H 0.33699 0.79613 0.36804 0.0
H2663 H 0.36076 0.83036 0.39911 0.0
H2664 H 0.35179 0.88992 0.34979 0.0
H2665 H 0.32804 0.85579 0.31859 0.0
H2666 H 0.40338 0.8987 0.36732 0.0
H2667 H 0.31234 0.88036 0.4048 0.0
H2668 H 0.27023 0.85226 0.42146 0.0
H2669 H 0.31657 0.82833 0.47905 0.0
H2670 H 0.35906 0.85601 0.46249 0.0
H2671 H 0.45261 1.00849 0.45297 0.0
H2672 H 0.42122 0.97637 0.42551 0.0
H2673 H 0.42101 0.91756 0.47874 0.0
H2674 H 0.451 0.95041 0.50709 0.0
H2675 H 0.37326 0.90825 0.4591 0.0
H2676 H 0.46478 0.92668 0.42109 0.0
H2677 H 0.50652 0.9553 0.40423 0.0
H2678 H 0.45945 0.9783 0.34675 0.0
H2679 H 0.41728 0.95049 0.36367 0.0
C2680 C 0.33995 0.81651 0.36379 0.0
C2681 C 0.33045 0.82311 0.34074 0.0
C2682 C 0.35349 0.83613 0.38169 0.0
C2683 C 0.35795 0.86288 0.37702 0.0
C2684 C 0.34862 0.8695 0.35396 0.0
C2685 C 0.33493 0.8499 0.33612 0.0
C2686 C 0.37286 0.88388 0.39584 0.0
C2687 C 0.39656 0.90099 0.38732 0.0
C2688 C 0.36447 0.88661 0.42214 0.0
C2689 C 0.33894 0.87007 0.43224 0.0
C2690 C 0.3136 0.86895 0.42089 0.0
C2691 C 0.28965 0.85312 0.43033 0.0
C2692 C 0.29074 0.83846 0.45125 0.0
C2693 C 0.31577 0.83967 0.46282 0.0
C2694 C 0.33979 0.85544 0.45343 0.0
C2695 C 0.4452 0.98889 0.45912 0.0
C2696 C 0.45406 0.98198 0.48223 0.0
C2697 C 0.42754 0.97036 0.44322 0.0
C2698 C 0.41932 0.94406 0.44942 0.0
C2699 C 0.42708 0.93755 0.47326 0.0
C2700 C 0.44415 0.95636 0.48956 0.0
C2701 C 0.40388 0.92322 0.43061 0.0
C2702 C 0.38013 0.90603 0.43913 0.0
C2703 C 0.41229 0.92033 0.40425 0.0
C2704 C 0.43781 0.93665 0.3938 0.0
C2705 C 0.4633 0.93793 0.40493 0.0
C2706 C 0.48703 0.95401 0.39538 0.0
C2707 C 0.48564 0.96853 0.37443 0.0
C2708 C 0.4605 0.96704 0.36298 0.0
C2709 C 0.43667 0.95116 0.37257 0.0
H2710 H 0.50404 0.98095 0.36707 0.0
H2711 H 0.27218 0.82622 0.45854 0.0
H2712 H 0.18504 0.31857 0.2945 0.0
H2713 H 0.15535 0.34645 0.31702 0.0
H2714 H 0.22169 0.38411 0.3655 0.0
H2715 H 0.25121 0.35582 0.34328 0.0
H2716 H 0.19469 0.42367 0.36327 0.0
H2717 H 0.08946 0.35829 0.34143 0.0
H2718 H 0.06793 0.31139 0.33263 0.0
H2719 H 0.13115 0.28918 0.37367 0.0
H2720 H 0.15277 0.33593 0.38314 0.0
H2721 H 0.09019 0.50493 0.41126 0.0
H2722 H 0.11988 0.47832 0.38616 0.0
H2723 H 0.08695 0.41282 0.43021 0.0
H2724 H 0.05801 0.43927 0.4553 0.0
H2725 H 0.09787 0.38724 0.38697 0.0
H2726 H 0.16188 0.45825 0.42951 0.0
H2727 H 0.18412 0.50457 0.44062 0.0
H2728 H 0.20406 0.51485 0.36071 0.0
H2729 H 0.18167 0.46864 0.34911 0.0
C2730 C 0.19391 0.33259 0.30995 0.0
C2731 C 0.22208 0.33344 0.3159 0.0
C2732 C 0.17613 0.34916 0.32353 0.0
C2733 C 0.18444 0.3689 0.34452 0.0
C2734 C 0.21278 0.37006 0.3501 0.0
C2735 C 0.23038 0.35314 0.33685 0.0
C2736 C 0.16446 0.38749 0.36008 0.0
C2737 C 0.17347 0.41509 0.36789 0.0
C2738 C 0.13589 0.3787 0.36793 0.0
C2739 C 0.12287 0.3506 0.36274 0.0
C2740 C 0.09869 0.34339 0.34868 0.0
C2741 C 0.08647 0.31683 0.34359 0.0
C2742 C 0.0982 0.29731 0.35255 0.0
C2743 C 0.12211 0.30431 0.36674 0.0
C2744 C 0.13435 0.33084 0.37196 0.0
C2745 C 0.08855 0.48479 0.41579 0.0
C2746 C 0.06971 0.47548 0.43639 0.0
C2747 C 0.10655 0.46895 0.40108 0.0
C2748 C 0.10759 0.44194 0.40502 0.0
C2749 C 0.08831 0.43275 0.42517 0.0
C2750 C 0.07094 0.44861 0.4401 0.0
C2751 C 0.12774 0.42366 0.38925 0.0
C2752 C 0.1189 0.39598 0.3818 0.0
C2753 C 0.15636 0.43245 0.38154 0.0
C2754 C 0.16988 0.46009 0.38843 0.0
C2755 C 0.17088 0.47044 0.4143 0.0
C2756 C 0.18353 0.49666 0.42069 0.0
C2757 C 0.19543 0.51266 0.40138 0.0
C2758 C 0.19479 0.50245 0.37564 0.0
C2759 C 0.18215 0.47624 0.36915 0.0
H2760 H 0.2052 0.53296 0.40635 0.0
H2761 H 0.08876 0.27676 0.34855 0.0
H2762 H 0.33609 0.20704 0.75218 0.0
H2763 H 0.36649 0.18643 0.7228 0.0
H2764 H 0.34904 0.23051 0.66178 0.0
H2765 H 0.31877 0.25166 0.6913 0.0
H2766 H 0.35856 0.15483 0.6816 0.0
H2767 H 0.40411 0.24015 0.61849 0.0
H2768 H 0.41557 0.28873 0.62224 0.0
H2769 H 0.42466 0.28922 0.70373 0.0
H2770 H 0.41362 0.24068 0.70041 0.0
H2771 H 0.42564 0.09818 0.57712 0.0
H2772 H 0.39721 0.12636 0.60039 0.0
H2773 H 0.46948 0.17418 0.6355 0.0
H2774 H 0.49807 0.14633 0.61142 0.0
H2775 H 0.4338 0.20476 0.629 0.0
H2776 H 0.42822 0.12278 0.66584 0.0
H2777 H 0.42042 0.07444 0.66563 0.0
H2778 H 0.33705 0.06793 0.64372 0.0
H2779 H 0.34449 0.11624 0.64342 0.0
C2780 C 0.33868 0.21256 0.73256 0.0
C2781 C 0.32479 0.23124 0.72434 0.0
C2782 C 0.35614 0.20058 0.71564 0.0
C2783 C 0.36046 0.20687 0.68991 0.0
C2784 C 0.34659 0.22547 0.68156 0.0
C2785 C 0.32909 0.23753 0.69853 0.0
C2786 C 0.37901 0.19351 0.67196 0.0
C2787 C 0.37489 0.16587 0.67006 0.0
C2788 C 0.40083 0.20761 0.65703 0.0
C2789 C 0.40773 0.23679 0.65921 0.0
C2790 C 0.40863 0.25064 0.63719 0.0
C2791 C 0.41504 0.27816 0.63924 0.0
C2792 C 0.42074 0.29205 0.66322 0.0
C2793 C 0.42013 0.27844 0.68518 0.0
C2794 C 0.41376 0.25093 0.68323 0.0
C2795 C 0.43557 0.11532 0.58904 0.0
C2796 C 0.46416 0.12029 0.59207 0.0
C2797 C 0.41924 0.13126 0.60267 0.0
C2798 C 0.43094 0.15219 0.62035 0.0
C2799 C 0.45978 0.15822 0.62212 0.0
C2800 C 0.47621 0.1424 0.60817 0.0
C2801 C 0.41296 0.16613 0.63837 0.0
C2802 C 0.41726 0.1938 0.64036 0.0
C2803 C 0.39164 0.15212 0.65387 0.0
C2804 C 0.38699 0.1231 0.65438 0.0
C2805 C 0.40827 0.11103 0.66084 0.0
C2806 C 0.40392 0.08364 0.66082 0.0
C2807 C 0.37828 0.06812 0.65461 0.0
C2808 C 0.35691 0.07997 0.64849 0.0
C2809 C 0.36118 0.10736 0.64843 0.0
H2810 H 0.37495 0.04691 0.65459 0.0
H2811 H 0.42568 0.31336 0.66477 0.0
H2812 H 0.85541 0.31607 0.72223 0.0
H2813 H 0.88135 0.34318 0.68982 0.0
H2814 H 0.81916 0.38999 0.69327 0.0
H2815 H 0.79258 0.36202 0.72489 0.0
H2816 H 0.8352 0.39065 0.64724 0.0
H2817 H 0.89272 0.40883 0.7205 0.0
H2818 H 0.91954 0.39873 0.75547 0.0
H2819 H 0.96984 0.36254 0.70003 0.0
H2820 H 0.94311 0.37217 0.66473 0.0
H2821 H 0.92238 0.49517 0.57761 0.0
H2822 H 0.89407 0.46854 0.6097 0.0
H2823 H 0.94887 0.41412 0.60201 0.0
H2824 H 0.9768 0.44028 0.57028 0.0
H2825 H 0.93637 0.41872 0.65061 0.0
H2826 H 0.87875 0.40127 0.57744 0.0
H2827 H 0.85244 0.41249 0.54268 0.0
H2828 H 0.80285 0.44895 0.5986 0.0
H2829 H 0.82912 0.43824 0.6337 0.0
C2830 C 0.84707 0.33213 0.71628 0.0
C2831 C 0.82143 0.33637 0.72698 0.0
C2832 C 0.86235 0.34817 0.69754 0.0
C2833 C 0.85334 0.36992 0.68865 0.0
C2834 C 0.82748 0.37388 0.69913 0.0
C2835 C 0.81202 0.35763 0.71765 0.0
C2836 C 0.87036 0.3881 0.66867 0.0
C2837 C 0.85728 0.39695 0.64853 0.0
C2838 C 0.89962 0.39675 0.66888 0.0
C2839 C 0.91573 0.39097 0.69001 0.0
C2840 C 0.9094 0.39858 0.71579 0.0
C2841 C 0.92459 0.39296 0.73566 0.0
C2842 C 0.94632 0.37993 0.72998 0.0
C2843 C 0.95296 0.37258 0.7044 0.0
C2844 C 0.93782 0.37813 0.68446 0.0
C2845 C 0.9284 0.47744 0.58248 0.0
C2846 C 0.9523 0.47032 0.57043 0.0
C2847 C 0.91192 0.46188 0.6011 0.0
C2848 C 0.91852 0.43845 0.60891 0.0
C2849 C 0.94254 0.43167 0.59703 0.0
C2850 C 0.95871 0.44692 0.57836 0.0
C2851 C 0.9012 0.42118 0.62929 0.0
C2852 C 0.91425 0.41247 0.64946 0.0
C2853 C 0.87197 0.41283 0.62917 0.0
C2854 C 0.85609 0.4192 0.60817 0.0
C2855 C 0.86236 0.41184 0.58231 0.0
C2856 C 0.84744 0.41809 0.56255 0.0
C2857 C 0.82604 0.43149 0.56842 0.0
C2858 C 0.81946 0.43861 0.59408 0.0
C2859 C 0.83435 0.43245 0.61391 0.0
H2860 H 0.8145 0.43631 0.5531 0.0
H2861 H 0.95806 0.3756 0.74539 0.0
H2862 H 0.20187 0.76313 0.71491 0.0
H2863 H 0.17007 0.73883 0.68258 0.0
H2864 H 0.20206 0.66909 0.68966 0.0
H2865 H 0.23456 0.69368 0.72147 0.0
H2866 H 0.19224 0.66803 0.642 0.0
H2867 H 0.13408 0.68194 0.71596 0.0
H2868 H 0.1143 0.70786 0.75116 0.0
H2869 H 0.08543 0.75156 0.69609 0.0
H2870 H 0.1053 0.72608 0.66057 0.0
H2871 H 0.08246 0.57794 0.57578 0.0
H2872 H 0.11552 0.60279 0.60685 0.0
H2873 H 0.08477 0.6729 0.59831 0.0
H2874 H 0.05127 0.64794 0.56761 0.0
H2875 H 0.09398 0.67385 0.64649 0.0
H2876 H 0.15156 0.65972 0.57252 0.0
H2877 H 0.17112 0.63373 0.53719 0.0
H2878 H 0.20093 0.59055 0.59211 0.0
H2879 H 0.18125 0.61603 0.62775 0.0
C2880 C 0.20228 0.74261 0.70971 0.0
C2881 C 0.22119 0.7307 0.72135 0.0
C2882 C 0.18365 0.72843 0.6911 0.0
C2883 C 0.18258 0.70144 0.68343 0.0
C2884 C 0.20179 0.68966 0.69479 0.0
C2885 C 0.22058 0.7039 0.71328 0.0
C2886 C 0.16187 0.6857 0.66371 0.0
C2887 C 0.17071 0.66917 0.6434 0.0
C2888 C 0.13347 0.68704 0.66435 0.0
C2889 C 0.1214 0.70228 0.68564 0.0
C2890 C 0.12365 0.69718 0.71138 0.0
C2891 C 0.1124 0.71178 0.73138 0.0
C2892 C 0.09868 0.73139 0.72587 0.0
C2893 C 0.09609 0.73639 0.70033 0.0
C2894 C 0.10732 0.72186 0.68026 0.0
C2895 C 0.08276 0.59871 0.58023 0.0
C2896 C 0.06385 0.61062 0.56856 0.0
C2897 C 0.10202 0.61316 0.59818 0.0
C2898 C 0.10357 0.64033 0.60526 0.0
C2899 C 0.0846 0.65218 0.59365 0.0
C2900 C 0.06529 0.63773 0.57574 0.0
C2901 C 0.12434 0.65617 0.62483 0.0
C2902 C 0.11551 0.67271 0.6451 0.0
C2903 C 0.15273 0.65485 0.62414 0.0
C2904 C 0.16471 0.63961 0.60278 0.0
C2905 C 0.16214 0.64456 0.57704 0.0
C2906 C 0.17326 0.62995 0.55697 0.0
C2907 C 0.18719 0.61047 0.56241 0.0
C2908 C 0.1901 0.60562 0.58793 0.0
C2909 C 0.17899 0.62016 0.60807 0.0
H2910 H 0.19578 0.59918 0.54684 0.0
H2911 H 0.09 0.74268 0.74138 0.0
loop_
_geom_bond_atom_site_label_1
_geom_bond_atom_site_label_2
_geom_bond_distance
_geom_bond_site_symmetry_2
_ccdc_geom_bond_type
Tb0 C10 2.825 . S
Tb0 O11 2.347 . S
Tb0 O14 2.366 . S
Tb0 O19 2.418 . S
Tb0 O20 2.384 . S
Tb0 O23 2.479 . S
Tb0 O24 2.471 . S
Eu1 O12 2.418 . S
Eu1 O13 2.384 . S
Eu1 O16 2.479 . S
Eu1 O17 2.471 . S
Eu1 O18 2.347 . S
Eu1 O21 2.366 . S
Eu1 C31 2.825 . S
C2 O18 1.259 . S
C2 O19 1.265 . S
C3 O20 1.255 . S
C3 O21 1.265 . S
C4 C6 1.380 . S
C4 C7 1.374 . S
C4 C10 1.507 . S
C5 C6 1.384 . S
C5 C9 1.387 . S
C5 H32 0.930 . S
C6 C4 1.380 . S
C6 C5 1.384 . S
C6 H33 0.931 . S
C7 C4 1.374 . S
C7 C8 1.390 . S
C7 H34 0.930 . S
C8 C7 1.390 . S
C8 C9 1.391 . S
C8 H35 0.930 . S
C9 C5 1.387 . S
C9 C8 1.391 . S
C10 Tb0 2.825 . S
C10 C4 1.507 . S
C10 O23 1.238 . S
C10 O24 1.247 . S
O11 Tb0 2.347 . S
O11 C15 1.259 . S
O12 Eu1 2.418 . S
O12 C15 1.265 . S
O13 Eu1 2.384 . S
O13 C22 1.255 . S
O14 Tb0 2.366 . S
O14 C22 1.265 . S
C15 O11 1.259 . S
C15 O12 1.265 . S
O16 Eu1 2.479 . S
O16 C31 1.238 . S
O17 Eu1 2.471 . S
O17 C31 1.247 . S
O18 Eu1 2.347 . S
O18 C2 1.259 . S
O19 Tb0 2.418 . S
O19 C2 1.265 . S
O20 Tb0 2.384 . S
O20 C3 1.255 . S
O21 Eu1 2.366 . S
O21 C3 1.265 . S
C22 O13 1.255 . S
C22 O14 1.265 . S
O23 Tb0 2.479 . S
O23 C10 1.238 . S
O24 Tb0 2.471 . S
O24 C10 1.247 . S
C25 C28 1.380 . S
C25 C29 1.374 . S
C25 C31 1.507 . S
C26 C27 1.387 . S
C26 C30 1.391 . S
C27 C26 1.387 . S
C27 C28 1.384 . S
C27 H36 0.930 . S
C28 C25 1.380 . S
C28 C27 1.384 . S
C28 H37 0.931 . S
C29 C25 1.374 . S
C29 C30 1.390 . S
C29 H38 0.930 . S
C30 C26 1.391 . S
C30 C29 1.390 . S
C30 H39 0.930 . S
C31 Eu1 2.825 . S
C31 O16 1.238 . S
C31 O17 1.247 . S
C31 C25 1.507 . S
H32 C5 0.930 . S
H33 C6 0.931 . S
H34 C7 0.930 . S
H35 C8 0.930 . S
H36 C27 0.930 . S
H37 C28 0.931 . S
H38 C29 0.930 . S
H39 C30 0.930 . S
Tb40 C50 2.825 . S
Tb40 O51 2.347 . S
Tb40 O54 2.366 . S
Tb40 O59 2.418 . S
Tb40 O60 2.384 . S
Tb40 O63 2.479 . S
Tb40 O64 2.471 . S
Eu41 O52 2.418 . S
Eu41 O53 2.384 . S
Eu41 O56 2.479 . S
Eu41 O57 2.471 . S
Eu41 O58 2.347 . S
Eu41 O61 2.366 . S
Eu41 C71 2.825 . S
C42 O58 1.259 . S
C42 O59 1.265 . S
C43 O60 1.255 . S
C43 O61 1.265 . S
C44 C46 1.380 . S
C44 C47 1.374 . S
C44 C50 1.507 . S
C45 C46 1.384 . S
C45 C49 1.387 . S
C45 H72 0.930 . S
C46 C44 1.380 . S
C46 C45 1.384 . S
C46 H73 0.931 . S
C47 C44 1.374 . S
C47 C48 1.390 . S
C47 H74 0.930 . S
C48 C47 1.390 . S
C48 C49 1.391 . S
C48 H75 0.930 . S
C49 C45 1.387 . S
C49 C48 1.391 . S
C50 Tb40 2.825 . S
C50 C44 1.507 . S
C50 O63 1.238 . S
C50 O64 1.247 . S
O51 Tb40 2.347 . S
O51 C55 1.259 . S
O52 Eu41 2.418 . S
O52 C55 1.265 . S
O53 Eu41 2.384 . S
O53 C62 1.255 . S
O54 Tb40 2.366 . S
O54 C62 1.265 . S
C55 O51 1.259 . S
C55 O52 1.265 . S
O56 Eu41 2.479 . S
O56 C71 1.238 . S
O57 Eu41 2.471 . S
O57 C71 1.247 . S
O58 Eu41 2.347 . S
O58 C42 1.259 . S
O59 Tb40 2.418 . S
O59 C42 1.265 . S
O60 Tb40 2.384 . S
O60 C43 1.255 . S
O61 Eu41 2.366 . S
O61 C43 1.265 . S
C62 O53 1.255 . S
C62 O54 1.265 . S
O63 Tb40 2.479 . S
O63 C50 1.238 . S
O64 Tb40 2.471 . S
O64 C50 1.247 . S
C65 C68 1.380 . S
C65 C69 1.374 . S
C65 C71 1.507 . S
C66 C67 1.387 . S
C66 C70 1.391 . S
C67 C66 1.387 . S
C67 C68 1.384 . S
C67 H76 0.930 . S
C68 C65 1.380 . S
C68 C67 1.384 . S
C68 H77 0.931 . S
C69 C65 1.374 . S
C69 C70 1.390 . S
C69 H78 0.930 . S
C70 C66 1.391 . S
C70 C69 1.390 . S
C70 H79 0.930 . S
C71 Eu41 2.825 . S
C71 O56 1.238 . S
C71 O57 1.247 . S
C71 C65 1.507 . S
H72 C45 0.930 . S
H73 C46 0.931 . S
H74 C47 0.930 . S
H75 C48 0.930 . S
H76 C67 0.930 . S
H77 C68 0.931 . S
H78 C69 0.930 . S
H79 C70 0.930 . S
Tb80 C90 2.825 . S
Tb80 O91 2.347 . S
Tb80 O94 2.366 . S
Tb80 O99 2.418 . S
Tb80 O100 2.384 . S
Tb80 O103 2.479 . S
Tb80 O104 2.471 . S
Eu81 O92 2.418 . S
Eu81 O93 2.384 . S
Eu81 O96 2.479 . S
Eu81 O97 2.471 . S
Eu81 O98 2.347 . S
Eu81 O101 2.366 . S
Eu81 C111 2.825 . S
C82 O98 1.259 . S
C82 O99 1.265 . S
C83 O100 1.255 . S
C83 O101 1.265 . S
C84 C86 1.380 . S
C84 C87 1.374 . S
C84 C90 1.507 . S
C85 C86 1.384 . S
C85 C89 1.387 . S
C85 H112 0.930 . S
C86 C84 1.380 . S
C86 C85 1.384 . S
C86 H113 0.931 . S
C87 C84 1.374 . S
C87 C88 1.390 . S
C87 H114 0.930 . S
C88 C87 1.390 . S
C88 C89 1.391 . S
C88 H115 0.930 . S
C89 C85 1.387 . S
C89 C88 1.391 . S
C90 Tb80 2.825 . S
C90 C84 1.507 . S
C90 O103 1.238 . S
C90 O104 1.247 . S
O91 Tb80 2.347 . S
O91 C95 1.259 . S
O92 Eu81 2.418 . S
O92 C95 1.265 . S
O93 Eu81 2.384 . S
O93 C102 1.255 . S
O94 Tb80 2.366 . S
O94 C102 1.265 . S
C95 O91 1.259 . S
C95 O92 1.265 . S
O96 Eu81 2.479 . S
O96 C111 1.238 . S
O97 Eu81 2.471 . S
O97 C111 1.247 . S
O98 Eu81 2.347 . S
O98 C82 1.259 . S
O99 Tb80 2.418 . S
O99 C82 1.265 . S
O100 Tb80 2.384 . S
O100 C83 1.255 . S
O101 Eu81 2.366 . S
O101 C83 1.265 . S
C102 O93 1.255 . S
C102 O94 1.265 . S
O103 Tb80 2.479 . S
O103 C90 1.238 . S
O104 Tb80 2.471 . S
O104 C90 1.247 . S
C105 C108 1.380 . S
C105 C109 1.374 . S
C105 C111 1.507 . S
C106 C107 1.387 . S
C106 C110 1.391 . S
C107 C106 1.387 . S
C107 C108 1.384 . S
C107 H116 0.930 . S
C108 C105 1.380 . S
C108 C107 1.384 . S
C108 H117 0.931 . S
C109 C105 1.374 . S
C109 C110 1.390 . S
C109 H118 0.930 . S
C110 C106 1.391 . S
C110 C109 1.390 . S
C110 H119 0.930 . S
C111 Eu81 2.825 . S
C111 O96 1.238 . S
C111 O97 1.247 . S
C111 C105 1.507 . S
H112 C85 0.930 . S
H113 C86 0.931 . S
H114 C87 0.930 . S
H115 C88 0.930 . S
H116 C107 0.930 . S
H117 C108 0.931 . S
H118 C109 0.930 . S
H119 C110 0.930 . S
Tb120 C130 2.825 . S
Tb120 O131 2.347 . S
Tb120 O134 2.366 . S
Tb120 O139 2.418 . S
Tb120 O140 2.384 . S
Tb120 O143 2.479 . S
Tb120 O144 2.471 . S
Eu121 O132 2.418 . S
Eu121 O133 2.384 . S
Eu121 O136 2.479 . S
Eu121 O137 2.471 . S
Eu121 O138 2.347 . S
Eu121 O141 2.366 . S
Eu121 C151 2.825 . S
C122 O138 1.259 . S
C122 O139 1.265 . S
C123 O140 1.255 . S
C123 O141 1.265 . S
C124 C126 1.380 . S
C124 C127 1.374 . S
C124 C130 1.507 . S
C125 C126 1.384 . S
C125 C129 1.387 . S
C125 H152 0.930 . S
C126 C124 1.380 . S
C126 C125 1.384 . S
C126 H153 0.931 . S
C127 C124 1.374 . S
C127 C128 1.390 . S
C127 H154 0.930 . S
C128 C127 1.390 . S
C128 C129 1.391 . S
C128 H155 0.930 . S
C129 C125 1.387 . S
C129 C128 1.391 . S
C130 Tb120 2.825 . S
C130 C124 1.507 . S
C130 O143 1.238 . S
C130 O144 1.247 . S
O131 Tb120 2.347 . S
O131 C135 1.259 . S
O132 Eu121 2.418 . S
O132 C135 1.265 . S
O133 Eu121 2.384 . S
O133 C142 1.255 . S
O134 Tb120 2.366 . S
O134 C142 1.265 . S
C135 O131 1.259 . S
C135 O132 1.265 . S
O136 Eu121 2.479 . S
O136 C151 1.238 . S
O137 Eu121 2.471 . S
O137 C151 1.247 . S
O138 Eu121 2.347 . S
O138 C122 1.259 . S
O139 Tb120 2.418 . S
O139 C122 1.265 . S
O140 Tb120 2.384 . S
O140 C123 1.255 . S
O141 Eu121 2.366 . S
O141 C123 1.265 . S
C142 O133 1.255 . S
C142 O134 1.265 . S
O143 Tb120 2.479 . S
O143 C130 1.238 . S
O144 Tb120 2.471 . S
O144 C130 1.247 . S
C145 C148 1.380 . S
C145 C149 1.374 . S
C145 C151 1.507 . S
C146 C147 1.387 . S
C146 C150 1.391 . S
C147 C146 1.387 . S
C147 C148 1.384 . S
C147 H156 0.930 . S
C148 C145 1.380 . S
C148 C147 1.384 . S
C148 H157 0.931 . S
C149 C145 1.374 . S
C149 C150 1.390 . S
C149 H158 0.930 . S
C150 C146 1.391 . S
C150 C149 1.390 . S
C150 H159 0.930 . S
C151 Eu121 2.825 . S
C151 O136 1.238 . S
C151 O137 1.247 . S
C151 C145 1.507 . S
H152 C125 0.930 . S
H153 C126 0.931 . S
H154 C127 0.930 . S
H155 C128 0.930 . S
H156 C147 0.930 . S
H157 C148 0.931 . S
H158 C149 0.930 . S
H159 C150 0.930 . S
Tb160 C170 2.825 . S
Tb160 O171 2.347 . S
Tb160 O174 2.366 . S
Tb160 O179 2.418 . S
Tb160 O180 2.384 . S
Tb160 O183 2.479 . S
Tb160 O184 2.471 . S
Eu161 O172 2.418 . S
Eu161 O173 2.384 . S
Eu161 O176 2.479 . S
Eu161 O177 2.471 . S
Eu161 O178 2.347 . S
Eu161 O181 2.366 . S
Eu161 C191 2.825 . S
C162 O178 1.259 . S
C162 O179 1.265 . S
C163 O180 1.255 . S
C163 O181 1.265 . S
C164 C166 1.380 . S
C164 C167 1.374 . S
C164 C170 1.507 . S
C165 C166 1.384 . S
C165 C169 1.387 . S
C165 H192 0.930 . S
C166 C164 1.380 . S
C166 C165 1.384 . S
C166 H193 0.931 . S
C167 C164 1.374 . S
C167 C168 1.390 . S
C167 H194 0.930 . S
C168 C167 1.390 . S
C168 C169 1.391 . S
C168 H195 0.930 . S
C169 C165 1.387 . S
C169 C168 1.391 . S
C170 Tb160 2.825 . S
C170 C164 1.507 . S
C170 O183 1.238 . S
C170 O184 1.247 . S
O171 Tb160 2.347 . S
O171 C175 1.259 . S
O172 Eu161 2.418 . S
O172 C175 1.265 . S
O173 Eu161 2.384 . S
O173 C182 1.255 . S
O174 Tb160 2.366 . S
O174 C182 1.265 . S
C175 O171 1.259 . S
C175 O172 1.265 . S
O176 Eu161 2.479 . S
O176 C191 1.238 . S
O177 Eu161 2.471 . S
O177 C191 1.247 . S
O178 Eu161 2.347 . S
O178 C162 1.259 . S
O179 Tb160 2.418 . S
O179 C162 1.265 . S
O180 Tb160 2.384 . S
O180 C163 1.255 . S
O181 Eu161 2.366 . S
O181 C163 1.265 . S
C182 O173 1.255 . S
C182 O174 1.265 . S
O183 Tb160 2.479 . S
O183 C170 1.238 . S
O184 Tb160 2.471 . S
O184 C170 1.247 . S
C185 C188 1.380 . S
C185 C189 1.374 . S
C185 C191 1.507 . S
C186 C187 1.387 . S
C186 C190 1.391 . S
C187 C186 1.387 . S
C187 C188 1.384 . S
C187 H196 0.930 . S
C188 C185 1.380 . S
C188 C187 1.384 . S
C188 H197 0.931 . S
C189 C185 1.374 . S
C189 C190 1.390 . S
C189 H198 0.930 . S
C190 C186 1.391 . S
C190 C189 1.390 . S
C190 H199 0.930 . S
C191 Eu161 2.825 . S
C191 O176 1.238 . S
C191 O177 1.247 . S
C191 C185 1.507 . S
H192 C165 0.930 . S
H193 C166 0.931 . S
H194 C167 0.930 . S
H195 C168 0.930 . S
H196 C187 0.930 . S
H197 C188 0.931 . S
H198 C189 0.930 . S
H199 C190 0.930 . S
Tb200 C210 2.825 . S
Tb200 O211 2.347 . S
Tb200 O214 2.366 . S
Tb200 O219 2.418 . S
Tb200 O220 2.384 . S
Tb200 O223 2.479 . S
Tb200 O224 2.471 . S
Eu201 O212 2.418 . S
Eu201 O213 2.384 . S
Eu201 O216 2.479 . S
Eu201 O217 2.471 . S
Eu201 O218 2.347 . S
Eu201 O221 2.366 . S
Eu201 C231 2.825 . S
C202 O218 1.259 . S
C202 O219 1.265 . S
C203 O220 1.255 . S
C203 O221 1.265 . S
C204 C206 1.380 . S
C204 C207 1.374 . S
C204 C210 1.507 . S
C205 C206 1.384 . S
C205 C209 1.387 . S
C205 H232 0.930 . S
C206 C204 1.380 . S
C206 C205 1.384 . S
C206 H233 0.931 . S
C207 C204 1.374 . S
C207 C208 1.390 . S
C207 H234 0.930 . S
C208 C207 1.390 . S
C208 C209 1.391 . S
C208 H235 0.930 . S
C209 C205 1.387 . S
C209 C208 1.391 . S
C210 Tb200 2.825 . S
C210 C204 1.507 . S
C210 O223 1.238 . S
C210 O224 1.247 . S
O211 Tb200 2.347 . S
O211 C215 1.259 . S
O212 Eu201 2.418 . S
O212 C215 1.265 . S
O213 Eu201 2.384 . S
O213 C222 1.255 . S
O214 Tb200 2.366 . S
O214 C222 1.265 . S
C215 O211 1.259 . S
C215 O212 1.265 . S
O216 Eu201 2.479 . S
O216 C231 1.238 . S
O217 Eu201 2.471 . S
O217 C231 1.247 . S
O218 Eu201 2.347 . S
O218 C202 1.259 . S
O219 Tb200 2.418 . S
O219 C202 1.265 . S
O220 Tb200 2.384 . S
O220 C203 1.255 . S
O221 Eu201 2.366 . S
O221 C203 1.265 . S
C222 O213 1.255 . S
C222 O214 1.265 . S
O223 Tb200 2.479 . S
O223 C210 1.238 . S
O224 Tb200 2.471 . S
O224 C210 1.247 . S
C225 C228 1.380 . S
C225 C229 1.374 . S
C225 C231 1.507 . S
C226 C227 1.387 . S
C226 C230 1.391 . S
C227 C226 1.387 . S
C227 C228 1.384 . S
C227 H236 0.930 . S
C228 C225 1.380 . S
C228 C227 1.384 . S
C228 H237 0.931 . S
C229 C225 1.374 . S
C229 C230 1.390 . S
C229 H238 0.930 . S
C230 C226 1.391 . S
C230 C229 1.390 . S
C230 H239 0.930 . S
C231 Eu201 2.825 . S
C231 O216 1.238 . S
C231 O217 1.247 . S
C231 C225 1.507 . S
H232 C205 0.930 . S
H233 C206 0.931 . S
H234 C207 0.930 . S
H235 C208 0.930 . S
H236 C227 0.930 . S
H237 C228 0.931 . S
H238 C229 0.930 . S
H239 C230 0.930 . S
Tb240 C250 2.825 . S
Tb240 O251 2.347 . S
Tb240 O254 2.366 . S
Tb240 O259 2.418 . S
Tb240 O260 2.384 . S
Tb240 O263 2.479 . S
Tb240 O264 2.471 . S
Eu241 O252 2.418 . S
Eu241 O253 2.384 . S
Eu241 O256 2.479 . S
Eu241 O257 2.471 . S
Eu241 O258 2.347 . S
Eu241 O261 2.366 . S
Eu241 C271 2.825 . S
C242 O258 1.259 . S
C242 O259 1.265 . S
C243 O260 1.255 . S
C243 O261 1.265 . S
C244 C246 1.380 . S
C244 C247 1.374 . S
C244 C250 1.507 . S
C245 C246 1.384 . S
C245 C249 1.387 . S
C245 H272 0.930 . S
C246 C244 1.380 . S
C246 C245 1.384 . S
C246 H273 0.931 . S
C247 C244 1.374 . S
C247 C248 1.390 . S
C247 H274 0.930 . S
C248 C247 1.390 . S
C248 C249 1.391 . S
C248 H275 0.930 . S
C249 C245 1.387 . S
C249 C248 1.391 . S
C250 Tb240 2.825 . S
C250 C244 1.507 . S
C250 O263 1.238 . S
C250 O264 1.247 . S
O251 Tb240 2.347 . S
O251 C255 1.259 . S
O252 Eu241 2.418 . S
O252 C255 1.265 . S
O253 Eu241 2.384 . S
O253 C262 1.255 . S
O254 Tb240 2.366 . S
O254 C262 1.265 . S
C255 O251 1.259 . S
C255 O252 1.265 . S
O256 Eu241 2.479 . S
O256 C271 1.238 . S
O257 Eu241 2.471 . S
O257 C271 1.247 . S
O258 Eu241 2.347 . S
O258 C242 1.259 . S
O259 Tb240 2.418 . S
O259 C242 1.265 . S
O260 Tb240 2.384 . S
O260 C243 1.255 . S
O261 Eu241 2.366 . S
O261 C243 1.265 . S
C262 O253 1.255 . S
C262 O254 1.265 . S
O263 Tb240 2.479 . S
O263 C250 1.238 . S
O264 Tb240 2.471 . S
O264 C250 1.247 . S
C265 C268 1.380 . S
C265 C269 1.374 . S
C265 C271 1.507 . S
C266 C267 1.387 . S
C266 C270 1.391 . S
C267 C266 1.387 . S
C267 C268 1.384 . S
C267 H276 0.930 . S
C268 C265 1.380 . S
C268 C267 1.384 . S
C268 H277 0.931 . S
C269 C265 1.374 . S
C269 C270 1.390 . S
C269 H278 0.930 . S
C270 C266 1.391 . S
C270 C269 1.390 . S
C270 H279 0.930 . S
C271 Eu241 2.825 . S
C271 O256 1.238 . S
C271 O257 1.247 . S
C271 C265 1.507 . S
H272 C245 0.930 . S
H273 C246 0.931 . S
H274 C247 0.930 . S
H275 C248 0.930 . S
H276 C267 0.930 . S
H277 C268 0.931 . S
H278 C269 0.930 . S
H279 C270 0.930 . S
Tb280 C290 2.825 . S
Tb280 O291 2.347 . S
Tb280 O294 2.366 . S
Tb280 O299 2.418 . S
Tb280 O300 2.384 . S
Tb280 O303 2.479 . S
Tb280 O304 2.471 . S
Eu281 O292 2.418 . S
Eu281 O293 2.384 . S
Eu281 O296 2.479 . S
Eu281 O297 2.471 . S
Eu281 O298 2.347 . S
Eu281 O301 2.366 . S
Eu281 C311 2.825 . S
C282 O298 1.259 . S
C282 O299 1.265 . S
C283 O300 1.255 . S
C283 O301 1.265 . S
C284 C286 1.380 . S
C284 C287 1.374 . S
C284 C290 1.507 . S
C285 C286 1.384 . S
C285 C289 1.387 . S
C285 H312 0.930 . S
C286 C284 1.380 . S
C286 C285 1.384 . S
C286 H313 0.931 . S
C287 C284 1.374 . S
C287 C288 1.390 . S
C287 H314 0.930 . S
C288 C287 1.390 . S
C288 C289 1.391 . S
C288 H315 0.930 . S
C289 C285 1.387 . S
C289 C288 1.391 . S
C290 Tb280 2.825 . S
C290 C284 1.507 . S
C290 O303 1.238 . S
C290 O304 1.247 . S
O291 Tb280 2.347 . S
O291 C295 1.259 . S
O292 Eu281 2.418 . S
O292 C295 1.265 . S
O293 Eu281 2.384 . S
O293 C302 1.255 . S
O294 Tb280 2.366 . S
O294 C302 1.265 . S
C295 O291 1.259 . S
C295 O292 1.265 . S
O296 Eu281 2.479 . S
O296 C311 1.238 . S
O297 Eu281 2.471 . S
O297 C311 1.247 . S
O298 Eu281 2.347 . S
O298 C282 1.259 . S
O299 Tb280 2.418 . S
O299 C282 1.265 . S
O300 Tb280 2.384 . S
O300 C283 1.255 . S
O301 Eu281 2.366 . S
O301 C283 1.265 . S
C302 O293 1.255 . S
C302 O294 1.265 . S
O303 Tb280 2.479 . S
O303 C290 1.238 . S
O304 Tb280 2.471 . S
O304 C290 1.247 . S
C305 C308 1.380 . S
C305 C309 1.374 . S
C305 C311 1.507 . S
C306 C307 1.387 . S
C306 C310 1.391 . S
C307 C306 1.387 . S
C307 C308 1.384 . S
C307 H316 0.930 . S
C308 C305 1.380 . S
C308 C307 1.384 . S
C308 H317 0.931 . S
C309 C305 1.374 . S
C309 C310 1.390 . S
C309 H318 0.930 . S
C310 C306 1.391 . S
C310 C309 1.390 . S
C310 H319 0.930 . S
C311 Eu281 2.825 . S
C311 O296 1.238 . S
C311 O297 1.247 . S
C311 C305 1.507 . S
H312 C285 0.930 . S
H313 C286 0.931 . S
H314 C287 0.930 . S
H315 C288 0.930 . S
H316 C307 0.930 . S
H317 C308 0.931 . S
H318 C309 0.930 . S
H319 C310 0.930 . S
Fe320 O321 1.886 1_455 S
Fe320 O324 1.715 . S
Fe320 O329 2.077 1_455 S
Fe320 O334 1.935 . S
Fe320 O340 2.077 1_455 S
Fe320 O349 1.935 . S
O321 Fe320 1.886 1_655 S
O321 Fe323 1.715 . S
Fe322 O324 1.886 . S
Fe322 O325 1.715 1_545 S
Fe322 O332 1.926 1_545 S
Fe322 O333 2.077 . S
Fe322 O339 1.935 . S
Fe322 O348 2.077 . S
Fe323 O321 1.715 . S
Fe323 O326 1.886 1_545 S
Fe323 O330 1.935 . S
Fe323 O335 2.077 1_545 S
Fe323 O341 1.935 . S
Fe323 O345 2.077 1_545 S
O324 Fe320 1.715 . S
O324 Fe322 1.886 . S
O325 Fe322 1.715 1_565 S
O325 Fe327 1.886 . S
O326 Fe323 1.886 1_565 S
O326 Fe327 1.715 1_655 S
Fe327 O325 1.886 . S
Fe327 O326 1.715 1_455 S
Fe327 O331 2.077 . S
Fe327 O336 1.935 1_455 S
Fe327 O338 2.077 . S
Fe327 O346 1.935 1_455 S
C328 O340 1.381 . S
C328 O341 1.421 . S
O329 Fe320 2.077 1_655 S
O329 C342 1.381 . S
O330 Fe323 1.935 . S
O330 C342 1.421 . S
O331 Fe327 2.077 . S
O331 C347 1.381 . S
O332 Fe322 1.926 1_565 S
O332 C347 1.436 . S
O333 Fe322 2.077 . S
O333 C337 1.381 . S
O334 Fe320 1.935 . S
O334 C337 1.421 . S
O335 Fe323 2.077 1_565 S
O335 C343 1.381 . S
O336 Fe327 1.935 1_655 S
O336 C343 1.421 . S
C337 O333 1.381 . S
C337 O334 1.421 . S
O338 Fe327 2.077 . S
O338 C350 1.381 . S
O339 Fe322 1.935 . S
O339 C350 1.421 1_545 S
O340 Fe320 2.077 1_655 S
O340 C328 1.381 . S
O341 Fe323 1.935 . S
O341 C328 1.421 . S
C342 O329 1.381 . S
C342 O330 1.421 . S
C343 O335 1.381 . S
C343 O336 1.421 . S
C344 O345 1.381 . S
C344 O346 1.421 . S
O345 Fe323 2.077 1_565 S
O345 C344 1.381 . S
O346 Fe327 1.935 1_655 S
O346 C344 1.421 . S
C347 O331 1.381 . S
C347 O332 1.436 . S
O348 Fe322 2.077 . S
O348 C351 1.381 . S
O349 Fe320 1.935 . S
O349 C351 1.421 . S
C350 O338 1.381 . S
C350 O339 1.421 1_565 S
C351 O348 1.381 . S
C351 O349 1.421 . S
Fe352 O353 1.886 . S
Fe352 O356 1.715 . S
Fe352 O361 2.077 . S
Fe352 O366 1.939 . S
Fe352 O372 2.077 . S
Fe352 O381 1.935 . S
O353 Fe352 1.886 . S
O353 Fe355 1.715 1_565 S
Fe354 O356 1.886 . S
Fe354 O357 1.715 1_565 S
Fe354 O364 1.935 1_565 S
Fe354 O365 2.077 . S
Fe354 O371 1.935 1_565 S
Fe354 O380 2.077 . S
Fe355 O353 1.715 1_545 S
Fe355 O358 1.886 . S
Fe355 O362 1.935 1_545 S
Fe355 O367 2.077 . S
Fe355 O373 1.935 1_545 S
Fe355 O377 2.077 . S
O356 Fe352 1.715 . S
O356 Fe354 1.886 . S
O357 Fe354 1.715 1_545 S
O357 Fe359 1.886 . S
O358 Fe355 1.886 . S
O358 Fe359 1.715 . S
Fe359 O357 1.886 . S
Fe359 O358 1.715 . S
Fe359 O363 2.077 . S
Fe359 O368 1.935 . S
Fe359 O370 2.077 . S
Fe359 O378 1.935 . S
C360 O372 1.381 . S
C360 O373 1.421 . S
O361 Fe352 2.077 . S
O361 C374 1.381 1_554 S
O362 Fe355 1.935 1_565 S
O362 C374 1.421 1_554 S
O363 Fe359 2.077 . S
O363 C379 1.381 1_554 S
O364 Fe354 1.935 1_545 S
O364 C379 1.421 1_554 S
O365 Fe354 2.077 . S
O365 C369 1.381 1_554 S
O366 Fe352 1.939 . S
O366 C369 1.420 1_554 S
O367 Fe355 2.077 . S
O367 C375 1.381 1_554 S
O368 Fe359 1.935 . S
O368 C375 1.421 1_554 S
C369 O365 1.381 1_556 S
C369 O366 1.420 1_556 S
O370 Fe359 2.077 . S
O370 C382 1.381 . S
O371 Fe354 1.935 1_545 S
O371 C382 1.421 . S
O372 Fe352 2.077 . S
O372 C360 1.381 . S
O373 Fe355 1.935 1_565 S
O373 C360 1.421 . S
C374 O361 1.381 1_556 S
C374 O362 1.421 1_556 S
C375 O367 1.381 1_556 S
C375 O368 1.421 1_556 S
C376 O377 1.381 . S
C376 O378 1.421 . S
O377 Fe355 2.077 . S
O377 C376 1.381 . S
O378 Fe359 1.935 . S
O378 C376 1.421 . S
C379 O363 1.381 1_556 S
C379 O364 1.421 1_556 S
O380 Fe354 2.077 . S
O380 C383 1.381 . S
O381 Fe352 1.935 . S
O381 C383 1.421 . S
C382 O370 1.381 . S
C382 O371 1.421 . S
C383 O380 1.381 . S
C383 O381 1.421 . S
Fe384 O385 1.886 . S
Fe384 O388 1.715 . S
Fe384 O393 2.077 1_554 S
Fe384 O398 1.935 1_554 S
Fe384 O404 2.077 . S
Fe384 O413 1.935 . S
O385 Fe384 1.886 . S
O385 Fe387 1.715 1_455 S
Fe386 O388 1.886 . S
Fe386 O389 1.714 . S
Fe386 O396 1.935 1_554 S
Fe386 O397 2.077 1_554 S
Fe386 O403 1.935 . S
Fe386 O412 2.077 . S
Fe387 O385 1.715 1_655 S
Fe387 O390 1.884 1_655 S
Fe387 O394 1.935 1_554 S
Fe387 O399 2.077 1_554 S
Fe387 O405 1.935 . S
Fe387 O409 2.077 . S
O388 Fe384 1.715 . S
O388 Fe386 1.886 . S
O389 Fe386 1.714 . S
O389 Fe391 1.888 1_554 S
O390 Fe387 1.884 1_455 S
O390 Fe391 1.718 1_554 S
Fe391 O389 1.888 1_556 S
Fe391 O390 1.718 1_556 S
Fe391 O395 2.082 . S
Fe391 O400 1.941 . S
Fe391 O402 2.072 1_556 S
Fe391 O410 1.930 1_556 S
C392 O404 1.381 1_655 S
C392 O405 1.421 . S
O393 Fe384 2.077 1_556 S
O393 C406 1.381 1_455 S
O394 Fe387 1.935 1_556 S
O394 C406 1.421 . S
O395 Fe391 2.082 . S
O395 C411 1.381 . S
O396 Fe386 1.935 1_556 S
O396 C411 1.421 . S
O397 Fe386 2.077 1_556 S
O397 C401 1.381 . S
O398 Fe384 1.935 1_556 S
O398 C401 1.421 . S
O399 Fe387 2.077 1_556 S
O399 C407 1.381 . S
O400 Fe391 1.941 . S
O400 C407 1.421 1_455 S
C401 O397 1.381 . S
C401 O398 1.421 . S
O402 Fe391 2.072 1_554 S
O402 C414 1.381 . S
O403 Fe386 1.935 . S
O403 C414 1.421 . S
O404 Fe384 2.077 . S
O404 C392 1.381 1_455 S
O405 Fe387 1.935 . S
O405 C392 1.421 . S
C406 O393 1.381 1_655 S
C406 O394 1.421 . S
C407 O399 1.381 . S
C407 O400 1.421 1_655 S
C408 O409 1.381 . S
C408 O410 1.421 1_655 S
O409 Fe387 2.077 . S
O409 C408 1.381 . S
O410 Fe391 1.930 1_554 S
O410 C408 1.421 1_455 S
C411 O395 1.381 . S
C411 O396 1.421 . S
O412 Fe386 2.077 . S
O412 C415 1.381 . S
O413 Fe384 1.935 . S
O413 C415 1.421 . S
C414 O402 1.381 . S
C414 O403 1.421 . S
C415 O412 1.381 . S
C415 O413 1.421 . S
Fe416 O417 1.886 . S
Fe416 O420 1.715 . S
Fe416 O425 2.077 . S
Fe416 O430 1.935 . S
Fe416 O436 2.077 . S
Fe416 O445 1.935 . S
O417 Fe416 1.886 . S
O417 Fe419 1.715 1_556 S
Fe418 O420 1.886 1_554 S
Fe418 O421 1.715 . S
Fe418 O428 1.935 . S
Fe418 O429 2.077 1_554 S
Fe418 O435 1.935 . S
Fe418 O444 2.077 1_554 S
Fe419 O417 1.715 1_554 S
Fe419 O422 1.886 . S
Fe419 O426 1.955 . S
Fe419 O431 2.077 . S
Fe419 O437 1.935 1_554 S
Fe419 O441 2.077 . S
O420 Fe416 1.715 . S
O420 Fe418 1.886 1_556 S
O421 Fe418 1.715 . S
O421 Fe423 1.886 . S
O422 Fe419 1.886 . S
O422 Fe423 1.715 . S
Fe423 O421 1.886 . S
Fe423 O422 1.715 . S
Fe423 O427 2.077 . S
Fe423 O432 1.935 . S
Fe423 O434 2.077 . S
Fe423 O442 1.935 . S
C424 O436 1.381 . S
C424 O437 1.421 . S
O425 Fe416 2.077 . S
O425 C438 1.381 . S
O426 Fe419 1.955 . S
O426 C438 1.389 1_554 S
O427 Fe423 2.077 . S
O427 C443 1.381 . S
O428 Fe418 1.935 . S
O428 C443 1.421 . S
O429 Fe418 2.077 1_556 S
O429 C433 1.381 . S
O430 Fe416 1.935 . S
O430 C433 1.421 . S
O431 Fe419 2.077 . S
O431 C439 1.381 . S
O432 Fe423 1.935 . S
O432 C439 1.421 . S
C433 O429 1.381 . S
C433 O430 1.421 . S
O434 Fe423 2.077 . S
O434 C446 1.381 . S
O435 Fe418 1.935 . S
O435 C446 1.421 . S
O436 Fe416 2.077 . S
O436 C424 1.381 . S
O437 Fe419 1.935 1_556 S
O437 C424 1.421 . S
C438 O425 1.381 . S
C438 O426 1.389 1_556 S
C439 O431 1.381 . S
C439 O432 1.421 . S
C440 O441 1.381 . S
C440 O442 1.421 . S
O441 Fe419 2.077 . S
O441 C440 1.381 . S
O442 Fe423 1.935 . S
O442 C440 1.421 . S
C443 O427 1.381 . S
C443 O428 1.421 . S
O444 Fe418 2.077 1_556 S
O444 C447 1.381 . S
O445 Fe416 1.935 . S
O445 C447 1.421 . S
C446 O434 1.381 . S
C446 O435 1.421 . S
C447 O444 1.381 . S
C447 O445 1.421 . S
Fe448 O449 1.888 1_655 S
Fe448 O452 1.717 1_655 S
Fe448 O457 2.077 1_655 S
Fe448 O462 1.935 1_655 S
Fe448 O468 2.077 . S
Fe448 O477 1.935 . S
O449 Fe448 1.888 1_455 S
O449 Fe451 1.713 . S
Fe450 O452 1.884 . S
Fe450 O453 1.715 . S
Fe450 O460 1.935 . S
Fe450 O461 2.077 . S
Fe450 O467 1.935 1_455 S
Fe450 O476 2.077 1_455 S
Fe451 O449 1.713 . S
Fe451 O454 1.886 . S
Fe451 O458 1.935 . S
Fe451 O463 2.077 . S
Fe451 O469 1.935 1_455 S
Fe451 O473 2.077 1_455 S
O452 Fe448 1.717 1_455 S
O452 Fe450 1.884 . S
O453 Fe450 1.715 . S
O453 Fe455 1.886 . S
O454 Fe451 1.886 . S
O454 Fe455 1.715 . S
Fe455 O453 1.886 . S
Fe455 O454 1.715 . S
Fe455 O459 2.077 . S
Fe455 O464 1.935 . S
Fe455 O466 2.077 1_455 S
Fe455 O474 1.935 1_455 S
C456 O468 1.381 . S
C456 O469 1.421 . S
O457 Fe448 2.077 1_455 S
O457 C470 1.381 . S
O458 Fe451 1.935 . S
O458 C470 1.421 . S
O459 Fe455 2.077 . S
O459 C475 1.381 . S
O460 Fe450 1.935 . S
O460 C475 1.421 . S
O461 Fe450 2.077 . S
O461 C465 1.381 . S
O462 Fe448 1.935 1_455 S
O462 C465 1.421 . S
O463 Fe451 2.077 . S
O463 C471 1.381 . S
O464 Fe455 1.935 . S
O464 C471 1.421 . S
C465 O461 1.381 . S
C465 O462 1.421 . S
O466 Fe455 2.077 1_655 S
O466 C478 1.381 . S
O467 Fe450 1.935 1_655 S
O467 C478 1.421 . S
O468 Fe448 2.077 . S
O468 C456 1.381 . S
O469 Fe451 1.935 1_655 S
O469 C456 1.421 . S
C470 O457 1.381 . S
C470 O458 1.421 . S
C471 O463 1.381 . S
C471 O464 1.421 . S
C472 O473 1.381 . S
C472 O474 1.421 . S
O473 Fe451 2.077 1_655 S
O473 C472 1.381 . S
O474 Fe455 1.935 1_655 S
O474 C472 1.421 . S
C475 O459 1.381 . S
C475 O460 1.421 . S
O476 Fe450 2.077 1_655 S
O476 C479 1.381 . S
O477 Fe448 1.935 . S
O477 C479 1.421 . S
C478 O466 1.381 . S
C478 O467 1.421 . S
C479 O476 1.381 . S
C479 O477 1.421 . S
Fe480 O481 1.886 1_565 S
Fe480 O484 1.728 . S
Fe480 O489 2.077 . S
Fe480 O494 1.935 . S
Fe480 O500 2.077 . S
Fe480 O509 1.935 . S
O481 Fe480 1.886 1_545 S
O481 Fe483 1.715 . S
Fe482 O484 1.872 1_545 S
Fe482 O485 1.715 . S
Fe482 O492 1.935 . S
Fe482 O493 2.077 . S
Fe482 O499 1.935 . S
Fe482 O508 2.077 1_545 S
Fe483 O481 1.715 . S
Fe483 O486 1.886 . S
Fe483 O490 1.935 . S
Fe483 O495 2.077 . S
Fe483 O501 1.935 . S
Fe483 O505 2.077 . S
O484 Fe480 1.728 . S
O484 Fe482 1.872 1_565 S
O485 Fe482 1.715 . S
O485 Fe487 1.886 . S
O486 Fe483 1.886 . S
O486 Fe487 1.715 . S
Fe487 O485 1.886 . S
Fe487 O486 1.715 . S
Fe487 O491 2.077 . S
Fe487 O496 1.935 . S
Fe487 O498 2.077 . S
Fe487 O506 1.935 . S
C488 O500 1.381 . S
C488 O501 1.421 1_565 S
O489 Fe480 2.077 . S
O489 C502 1.381 . S
O490 Fe483 1.935 . S
O490 C502 1.421 1_545 S
O491 Fe487 2.077 . S
O491 C507 1.381 . S
O492 Fe482 1.935 . S
O492 C507 1.421 . S
O493 Fe482 2.077 . S
O493 C497 1.381 1_545 S
O494 Fe480 1.935 . S
O494 C497 1.421 . S
O495 Fe483 2.077 . S
O495 C503 1.381 . S
O496 Fe487 1.935 . S
O496 C503 1.421 . S
C497 O493 1.381 1_565 S
C497 O494 1.421 . S
O498 Fe487 2.077 . S
O498 C510 1.381 . S
O499 Fe482 1.935 . S
O499 C510 1.421 . S
O500 Fe480 2.077 . S
O500 C488 1.381 . S
O501 Fe483 1.935 . S
O501 C488 1.421 1_545 S
C502 O489 1.381 . S
C502 O490 1.421 1_565 S
C503 O495 1.381 . S
C503 O496 1.421 . S
C504 O505 1.381 . S
C504 O506 1.421 . S
O505 Fe483 2.077 . S
O505 C504 1.381 . S
O506 Fe487 1.935 . S
O506 C504 1.421 . S
C507 O491 1.381 . S
C507 O492 1.421 . S
O508 Fe482 2.077 1_565 S
O508 C511 1.381 . S
O509 Fe480 1.935 . S
O509 C511 1.421 . S
C510 O498 1.381 . S
C510 O499 1.421 . S
C511 O508 1.381 . S
C511 O509 1.421 . S
H512 C530 0.951 . S
H513 C532 0.951 . S
H514 C534 0.950 . S
H515 C535 0.950 . S
H516 C537 0.950 . S
H517 C540 0.950 . S
H518 C541 0.950 . S
H519 C543 0.950 . S
H520 C544 0.950 . S
H521 C545 0.951 . S
H522 C547 0.951 . S
H523 C549 0.950 . S
H524 C550 0.950 . S
H525 C552 0.950 . S
H526 C555 0.950 . S
H527 C556 0.950 . S
H528 C558 0.950 . S
H529 C559 0.950 . S
C530 H512 0.951 . S
C530 C531 1.366 . S
C530 C532 1.388 . S
C531 C530 1.366 . S
C531 C535 1.385 . S
C532 H513 0.951 . S
C532 C530 1.388 . S
C532 C533 1.366 . S
C533 C532 1.366 . S
C533 C534 1.414 . S
C533 C536 1.499 . S
C534 H514 0.950 . S
C534 C533 1.414 . S
C534 C535 1.374 . S
C535 H515 0.950 . S
C535 C531 1.385 . S
C535 C534 1.374 . S
C536 C533 1.499 . S
C536 C537 1.373 . S
C536 C538 1.389 . S
C537 H516 0.950 . S
C537 C536 1.373 . S
C537 C553 1.377 . S
C538 C536 1.389 . S
C538 C539 1.524 . S
C538 C552 1.377 . S
C539 C538 1.524 . S
C539 C540 1.397 . S
C539 C544 1.363 . S
C540 H517 0.950 . S
C540 C539 1.397 . S
C540 C541 1.334 . S
C541 H518 0.950 . S
C541 C540 1.334 . S
C541 C542 1.287 . S
C542 C541 1.287 . S
C542 C543 1.524 . S
C542 H561 0.913 . S
C543 H519 0.950 . S
C543 C542 1.524 . S
C543 C544 1.415 . S
C544 H520 0.950 . S
C544 C539 1.363 . S
C544 C543 1.415 . S
C545 H521 0.951 . S
C545 C546 1.366 . S
C545 C547 1.388 . S
C546 C545 1.366 . S
C546 C550 1.385 . S
C547 H522 0.951 . S
C547 C545 1.388 . S
C547 C548 1.366 . S
C548 C547 1.366 . S
C548 C549 1.414 . S
C548 C551 1.499 . S
C549 H523 0.950 . S
C549 C548 1.414 . S
C549 C550 1.374 . S
C550 H524 0.950 . S
C550 C546 1.385 . S
C550 C549 1.374 . S
C551 C548 1.499 . S
C551 C552 1.373 . S
C551 C553 1.389 . S
C552 H525 0.950 . S
C552 C538 1.377 . S
C552 C551 1.373 . S
C553 C537 1.377 . S
C553 C551 1.389 . S
C553 C554 1.524 . S
C554 C553 1.524 . S
C554 C555 1.397 . S
C554 C559 1.363 . S
C555 H526 0.950 . S
C555 C554 1.397 . S
C555 C556 1.334 . S
C556 H527 0.950 . S
C556 C555 1.334 . S
C556 C557 1.287 . S
C557 C556 1.287 . S
C557 C558 1.524 . S
C557 H560 0.999 . S
C558 H528 0.950 . S
C558 C557 1.524 . S
C558 C559 1.415 . S
C559 H529 0.950 . S
C559 C554 1.363 . S
C559 C558 1.415 . S
H560 C557 0.999 . S
H561 C542 0.913 . S
H562 C580 0.951 . S
H563 C582 0.951 . S
H564 C584 0.950 . S
H565 C585 0.950 . S
H566 C587 0.950 . S
H567 C590 0.950 . S
H568 C591 0.950 . S
H569 C593 0.950 . S
H570 C594 0.950 . S
H571 C595 0.951 . S
H572 C597 0.951 . S
H573 C599 0.950 . S
H574 C600 0.950 . S
H575 C602 0.950 . S
H576 C605 0.950 . S
H577 C606 0.950 . S
H578 C608 0.950 . S
H579 C609 0.950 . S
C580 H562 0.951 . S
C580 C581 1.366 . S
C580 C582 1.388 . S
C581 C580 1.366 . S
C581 C585 1.385 . S
C582 H563 0.951 . S
C582 C580 1.388 . S
C582 C583 1.366 . S
C583 C582 1.366 . S
C583 C584 1.414 . S
C583 C586 1.499 . S
C584 H564 0.950 . S
C584 C583 1.414 . S
C584 C585 1.374 . S
C585 H565 0.950 . S
C585 C581 1.385 . S
C585 C584 1.374 . S
C586 C583 1.499 . S
C586 C587 1.373 . S
C586 C588 1.389 . S
C587 H566 0.950 . S
C587 C586 1.373 . S
C587 C603 1.377 . S
C588 C586 1.389 . S
C588 C589 1.524 . S
C588 C602 1.377 . S
C589 C588 1.524 . S
C589 C590 1.397 . S
C589 C594 1.363 . S
C590 H567 0.950 . S
C590 C589 1.397 . S
C590 C591 1.334 . S
C591 H568 0.950 . S
C591 C590 1.334 . S
C591 C592 1.287 . S
C592 C591 1.287 . S
C592 C593 1.524 . S
C592 H611 0.913 . S
C593 H569 0.950 . S
C593 C592 1.524 . S
C593 C594 1.415 . S
C594 H570 0.950 . S
C594 C589 1.363 . S
C594 C593 1.415 . S
C595 H571 0.951 . S
C595 C596 1.366 . S
C595 C597 1.388 . S
C596 C595 1.366 . S
C596 C600 1.385 . S
C597 H572 0.951 . S
C597 C595 1.388 . S
C597 C598 1.366 . S
C598 C597 1.366 . S
C598 C599 1.414 . S
C598 C601 1.499 . S
C599 H573 0.950 . S
C599 C598 1.414 . S
C599 C600 1.374 . S
C600 H574 0.950 . S
C600 C596 1.385 . S
C600 C599 1.374 . S
C601 C598 1.499 . S
C601 C602 1.373 . S
C601 C603 1.389 . S
C602 H575 0.950 . S
C602 C588 1.377 . S
C602 C601 1.373 . S
C603 C587 1.377 . S
C603 C601 1.389 . S
C603 C604 1.524 . S
C604 C603 1.524 . S
C604 C605 1.397 . S
C604 C609 1.363 . S
C605 H576 0.950 . S
C605 C604 1.397 . S
C605 C606 1.334 . S
C606 H577 0.950 . S
C606 C605 1.334 . S
C606 C607 1.287 . S
C607 C606 1.287 . S
C607 C608 1.524 . S
C607 H610 0.999 . S
C608 H578 0.950 . S
C608 C607 1.524 . S
C608 C609 1.415 . S
C609 H579 0.950 . S
C609 C604 1.363 . S
C609 C608 1.415 . S
H610 C607 0.999 . S
H611 C592 0.913 . S
H612 C630 0.951 . S
H613 C632 0.951 . S
H614 C634 0.950 . S
H615 C635 0.950 . S
H616 C637 0.950 . S
H617 C640 0.950 . S
H618 C641 0.950 . S
H619 C643 0.950 . S
H620 C644 0.950 . S
H621 C645 0.951 . S
H622 C647 0.951 . S
H623 C649 0.950 . S
H624 C650 0.950 . S
H625 C652 0.950 . S
H626 C655 0.950 . S
H627 C656 0.950 . S
H628 C658 0.950 . S
H629 C659 0.950 . S
C630 H612 0.951 . S
C630 C631 1.366 . S
C630 C632 1.388 . S
C631 C630 1.366 . S
C631 C635 1.385 . S
C632 H613 0.951 . S
C632 C630 1.388 . S
C632 C633 1.366 . S
C633 C632 1.366 . S
C633 C634 1.414 . S
C633 C636 1.499 . S
C634 H614 0.950 . S
C634 C633 1.414 . S
C634 C635 1.374 . S
C635 H615 0.950 . S
C635 C631 1.385 . S
C635 C634 1.374 . S
C636 C633 1.499 . S
C636 C637 1.373 . S
C636 C638 1.389 . S
C637 H616 0.950 . S
C637 C636 1.373 . S
C637 C653 1.377 . S
C638 C636 1.389 . S
C638 C639 1.524 . S
C638 C652 1.377 . S
C639 C638 1.524 . S
C639 C640 1.397 . S
C639 C644 1.363 . S
C640 H617 0.950 . S
C640 C639 1.397 . S
C640 C641 1.334 . S
C641 H618 0.950 . S
C641 C640 1.334 . S
C641 C642 1.287 . S
C642 C641 1.287 . S
C642 C643 1.524 . S
C642 H661 0.913 . S
C643 H619 0.950 . S
C643 C642 1.524 . S
C643 C644 1.415 . S
C644 H620 0.950 . S
C644 C639 1.363 . S
C644 C643 1.415 . S
C645 H621 0.951 . S
C645 C646 1.366 . S
C645 C647 1.388 . S
C646 C645 1.366 . S
C646 C650 1.385 . S
C647 H622 0.951 . S
C647 C645 1.388 . S
C647 C648 1.366 . S
C648 C647 1.366 . S
C648 C649 1.414 . S
C648 C651 1.499 . S
C649 H623 0.950 . S
C649 C648 1.414 . S
C649 C650 1.374 . S
C650 H624 0.950 . S
C650 C646 1.385 . S
C650 C649 1.374 . S
C651 C648 1.499 . S
C651 C652 1.373 . S
C651 C653 1.389 . S
C652 H625 0.950 . S
C652 C638 1.377 . S
C652 C651 1.373 . S
C653 C637 1.377 . S
C653 C651 1.389 . S
C653 C654 1.524 . S
C654 C653 1.524 . S
C654 C655 1.397 . S
C654 C659 1.363 . S
C655 H626 0.950 . S
C655 C654 1.397 . S
C655 C656 1.334 . S
C656 H627 0.950 . S
C656 C655 1.334 . S
C656 C657 1.287 . S
C657 C656 1.287 . S
C657 C658 1.524 . S
C657 H660 0.963 1_655 S
C658 H628 0.950 . S
C658 C657 1.524 . S
C658 C659 1.415 . S
C659 H629 0.950 . S
C659 C654 1.363 . S
C659 C658 1.415 . S
H660 C657 0.963 1_455 S
H661 C642 0.913 . S
H662 C680 0.951 . S
H663 C682 0.951 . S
H664 C684 0.950 . S
H665 C685 0.950 . S
H666 C687 0.950 . S
H667 C690 0.950 . S
H668 C691 0.950 . S
H669 C693 0.950 . S
H670 C694 0.950 . S
H671 C695 0.951 . S
H672 C697 0.951 . S
H673 C699 0.950 . S
H674 C700 0.950 1_545 S
H675 C702 0.950 . S
H676 C705 0.950 . S
H677 C706 0.950 . S
H678 C708 0.950 . S
H679 C709 0.950 . S
C680 H662 0.951 . S
C680 C681 1.366 . S
C680 C682 1.388 . S
C681 C680 1.366 . S
C681 C685 1.385 . S
C682 H663 0.951 . S
C682 C680 1.388 . S
C682 C683 1.366 . S
C683 C682 1.366 . S
C683 C684 1.414 . S
C683 C686 1.499 . S
C684 H664 0.950 . S
C684 C683 1.414 . S
C684 C685 1.374 . S
C685 H665 0.950 . S
C685 C681 1.385 . S
C685 C684 1.374 . S
C686 C683 1.499 . S
C686 C687 1.373 . S
C686 C688 1.389 . S
C687 H666 0.950 . S
C687 C686 1.373 . S
C687 C703 1.377 . S
C688 C686 1.389 . S
C688 C689 1.524 . S
C688 C702 1.377 . S
C689 C688 1.524 . S
C689 C690 1.397 . S
C689 C694 1.363 . S
C690 H667 0.950 . S
C690 C689 1.397 . S
C690 C691 1.334 . S
C691 H668 0.950 . S
C691 C690 1.334 . S
C691 C692 1.287 . S
C692 C691 1.287 . S
C692 C693 1.524 . S
C692 H711 0.913 . S
C693 H669 0.950 . S
C693 C692 1.524 . S
C693 C694 1.415 . S
C694 H670 0.950 . S
C694 C689 1.363 . S
C694 C693 1.415 . S
C695 H671 0.951 . S
C695 C696 1.366 . S
C695 C697 1.388 . S
C696 C695 1.366 . S
C696 C700 1.385 . S
C697 H672 0.951 . S
C697 C695 1.388 . S
C697 C698 1.366 . S
C698 C697 1.366 . S
C698 C699 1.414 . S
C698 C701 1.499 . S
C699 H673 0.950 . S
C699 C698 1.414 . S
C699 C700 1.374 . S
C700 H674 0.950 1_565 S
C700 C696 1.385 . S
C700 C699 1.374 . S
C701 C698 1.499 . S
C701 C702 1.373 . S
C701 C703 1.389 . S
C702 H675 0.950 . S
C702 C688 1.377 . S
C702 C701 1.373 . S
C703 C687 1.377 . S
C703 C701 1.389 . S
C703 C704 1.524 . S
C704 C703 1.524 . S
C704 C705 1.397 . S
C704 C709 1.363 . S
C705 H676 0.950 . S
C705 C704 1.397 . S
C705 C706 1.334 . S
C706 H677 0.950 . S
C706 C705 1.334 . S
C706 C707 1.287 1_455 S
C707 C706 1.287 1_655 S
C707 C708 1.524 . S
C707 H710 0.999 . S
C708 H678 0.950 . S
C708 C707 1.524 . S
C708 C709 1.415 1_655 S
C709 H679 0.950 . S
C709 C704 1.363 . S
C709 C708 1.415 1_455 S
H710 C707 0.999 . S
H711 C692 0.913 . S
H712 C730 0.951 . S
H713 C732 0.951 . S
H714 C734 0.950 . S
H715 C735 0.950 . S
H716 C737 0.950 . S
H717 C740 0.950 . S
H718 C741 0.950 . S
H719 C743 0.950 . S
H720 C744 0.950 . S
H721 C745 0.951 . S
H722 C747 0.951 . S
H723 C749 0.950 . S
H724 C750 0.950 . S
H725 C752 0.950 . S
H726 C755 0.950 . S
H727 C756 0.950 1_545 S
H728 C758 0.950 . S
H729 C759 0.950 . S
C730 H712 0.951 . S
C730 C731 1.366 . S
C730 C732 1.388 . S
C731 C730 1.366 . S
C731 C735 1.385 . S
C732 H713 0.951 . S
C732 C730 1.388 . S
C732 C733 1.366 . S
C733 C732 1.366 . S
C733 C734 1.414 . S
C733 C736 1.499 . S
C734 H714 0.950 . S
C734 C733 1.414 . S
C734 C735 1.374 . S
C735 H715 0.950 . S
C735 C731 1.385 . S
C735 C734 1.374 . S
C736 C733 1.499 . S
C736 C737 1.373 . S
C736 C738 1.389 . S
C737 H716 0.950 . S
C737 C736 1.373 . S
C737 C753 1.377 . S
C738 C736 1.389 . S
C738 C739 1.524 . S
C738 C752 1.377 . S
C739 C738 1.524 . S
C739 C740 1.397 . S
C739 C744 1.363 . S
C740 H717 0.950 . S
C740 C739 1.397 . S
C740 C741 1.334 . S
C741 H718 0.950 . S
C741 C740 1.334 . S
C741 C742 1.287 . S
C742 C741 1.287 . S
C742 C743 1.524 . S
C742 H761 0.913 . S
C743 H719 0.950 . S
C743 C742 1.524 . S
C743 C744 1.415 . S
C744 H720 0.950 . S
C744 C739 1.363 . S
C744 C743 1.415 . S
C745 H721 0.951 . S
C745 C746 1.366 . S
C745 C747 1.388 . S
C746 C745 1.366 . S
C746 C750 1.385 . S
C747 H722 0.951 . S
C747 C745 1.388 . S
C747 C748 1.366 . S
C748 C747 1.366 . S
C748 C749 1.414 . S
C748 C751 1.499 . S
C749 H723 0.950 . S
C749 C748 1.414 . S
C749 C750 1.374 . S
C750 H724 0.950 . S
C750 C746 1.385 . S
C750 C749 1.374 . S
C751 C748 1.499 . S
C751 C752 1.373 . S
C751 C753 1.389 . S
C752 H725 0.950 . S
C752 C738 1.377 . S
C752 C751 1.373 . S
C753 C737 1.377 . S
C753 C751 1.389 . S
C753 C754 1.524 . S
C754 C753 1.524 . S
C754 C755 1.397 . S
C754 C759 1.363 . S
C755 H726 0.950 . S
C755 C754 1.397 . S
C755 C756 1.334 . S
C756 H727 0.950 1_565 S
C756 C755 1.334 . S
C756 C757 1.287 . S
C757 C756 1.287 . S
C757 C758 1.524 . S
C757 H760 0.999 . S
C758 H728 0.950 . S
C758 C757 1.524 . S
C758 C759 1.415 . S
C759 H729 0.950 . S
C759 C754 1.363 . S
C759 C758 1.415 . S
H760 C757 0.999 . S
H761 C742 0.913 . S
H762 C780 0.951 . S
H763 C782 0.951 . S
H764 C784 0.950 . S
H765 C785 0.950 . S
H766 C787 0.950 . S
H767 C790 0.950 . S
H768 C791 0.950 . S
H769 C793 0.950 . S
H770 C794 0.950 . S
H771 C795 0.951 . S
H772 C797 0.951 . S
H773 C799 0.950 . S
H774 C800 0.950 . S
H775 C802 0.950 . S
H776 C805 0.950 . S
H777 C806 0.950 . S
H778 C808 0.950 . S
H779 C809 0.950 . S
C780 H762 0.951 . S
C780 C781 1.366 . S
C780 C782 1.388 . S
C781 C780 1.366 . S
C781 C785 1.385 . S
C782 H763 0.951 . S
C782 C780 1.388 . S
C782 C783 1.366 . S
C783 C782 1.366 . S
C783 C784 1.414 . S
C783 C786 1.499 . S
C784 H764 0.950 . S
C784 C783 1.414 . S
C784 C785 1.374 . S
C785 H765 0.950 . S
C785 C781 1.385 . S
C785 C784 1.374 . S
C786 C783 1.499 . S
C786 C787 1.373 . S
C786 C788 1.389 . S
C787 H766 0.950 . S
C787 C786 1.373 . S
C787 C803 1.377 . S
C788 C786 1.389 . S
C788 C789 1.524 . S
C788 C802 1.377 . S
C789 C788 1.524 . S
C789 C790 1.397 . S
C789 C794 1.363 . S
C790 H767 0.950 . S
C790 C789 1.397 . S
C790 C791 1.334 . S
C791 H768 0.950 . S
C791 C790 1.334 . S
C791 C792 1.287 . S
C792 C791 1.287 . S
C792 C793 1.524 . S
C792 H811 0.913 . S
C793 H769 0.950 . S
C793 C792 1.524 . S
C793 C794 1.415 . S
C794 H770 0.950 . S
C794 C789 1.363 . S
C794 C793 1.415 . S
C795 H771 0.951 . S
C795 C796 1.366 . S
C795 C797 1.388 . S
C796 C795 1.366 . S
C796 C800 1.385 . S
C797 H772 0.951 . S
C797 C795 1.388 . S
C797 C798 1.366 . S
C798 C797 1.366 . S
C798 C799 1.414 . S
C798 C801 1.499 . S
C799 H773 0.950 . S
C799 C798 1.414 . S
C799 C800 1.374 . S
C800 H774 0.950 . S
C800 C796 1.385 . S
C800 C799 1.374 . S
C801 C798 1.499 . S
C801 C802 1.373 . S
C801 C803 1.389 . S
C802 H775 0.950 . S
C802 C788 1.377 . S
C802 C801 1.373 . S
C803 C787 1.377 . S
C803 C801 1.389 . S
C803 C804 1.524 . S
C804 C803 1.524 . S
C804 C805 1.397 . S
C804 C809 1.363 . S
C805 H776 0.950 . S
C805 C804 1.397 . S
C805 C806 1.334 . S
C806 H777 0.950 . S
C806 C805 1.334 . S
C806 C807 1.287 . S
C807 C806 1.287 . S
C807 C808 1.524 . S
C807 H810 0.999 . S
C808 H778 0.950 . S
C808 C807 1.524 . S
C808 C809 1.415 . S
C809 H779 0.950 . S
C809 C804 1.363 . S
C809 C808 1.415 . S
H810 C807 0.999 . S
H811 C792 0.913 . S
H812 C830 0.951 . S
H813 C832 0.951 . S
H814 C834 0.950 . S
H815 C835 0.950 . S
H816 C837 0.950 . S
H817 C840 0.950 . S
H818 C841 0.950 . S
H819 C843 0.950 . S
H820 C844 0.950 . S
H821 C845 0.951 . S
H822 C847 0.951 . S
H823 C849 0.950 . S
H824 C850 0.950 . S
H825 C852 0.950 . S
H826 C855 0.950 . S
H827 C856 0.950 1_455 S
H828 C858 0.950 . S
H829 C859 0.950 . S
C830 H812 0.951 . S
C830 C831 1.366 . S
C830 C832 1.388 . S
C831 C830 1.366 . S
C831 C835 1.385 . S
C832 H813 0.951 . S
C832 C830 1.388 . S
C832 C833 1.366 . S
C833 C832 1.366 . S
C833 C834 1.414 . S
C833 C836 1.499 . S
C834 H814 0.950 . S
C834 C833 1.414 . S
C834 C835 1.374 . S
C835 H815 0.950 . S
C835 C831 1.385 . S
C835 C834 1.374 . S
C836 C833 1.499 . S
C836 C837 1.373 . S
C836 C838 1.389 . S
C837 H816 0.950 . S
C837 C836 1.373 . S
C837 C853 1.377 . S
C838 C836 1.389 . S
C838 C839 1.524 . S
C838 C852 1.377 . S
C839 C838 1.524 . S
C839 C840 1.397 . S
C839 C844 1.363 . S
C840 H817 0.950 . S
C840 C839 1.397 . S
C840 C841 1.334 . S
C841 H818 0.950 . S
C841 C840 1.334 . S
C841 C842 1.287 . S
C842 C841 1.287 . S
C842 C843 1.524 . S
C842 H861 0.913 . S
C843 H819 0.950 . S
C843 C842 1.524 . S
C843 C844 1.415 . S
C844 H820 0.950 . S
C844 C839 1.363 . S
C844 C843 1.415 . S
C845 H821 0.951 . S
C845 C846 1.366 . S
C845 C847 1.388 . S
C846 C845 1.366 . S
C846 C850 1.385 . S
C847 H822 0.951 . S
C847 C845 1.388 . S
C847 C848 1.366 . S
C848 C847 1.366 . S
C848 C849 1.414 . S
C848 C851 1.499 . S
C849 H823 0.950 . S
C849 C848 1.414 . S
C849 C850 1.374 . S
C850 H824 0.950 . S
C850 C846 1.385 . S
C850 C849 1.374 . S
C851 C848 1.499 . S
C851 C852 1.373 . S
C851 C853 1.389 . S
C852 H825 0.950 . S
C852 C838 1.377 . S
C852 C851 1.373 . S
C853 C837 1.377 . S
C853 C851 1.389 . S
C853 C854 1.524 . S
C854 C853 1.524 . S
C854 C855 1.397 . S
C854 C859 1.363 . S
C855 H826 0.950 . S
C855 C854 1.397 . S
C855 C856 1.334 . S
C856 H827 0.950 1_655 S
C856 C855 1.334 . S
C856 C857 1.287 . S
C857 C856 1.287 . S
C857 C858 1.524 . S
C857 H860 0.999 . S
C858 H828 0.950 . S
C858 C857 1.524 . S
C858 C859 1.415 . S
C859 H829 0.950 . S
C859 C854 1.363 . S
C859 C858 1.415 . S
H860 C857 0.999 . S
H861 C842 0.913 . S
H862 C880 0.951 . S
H863 C882 0.951 . S
H864 C884 0.950 . S
H865 C885 0.950 . S
H866 C887 0.950 . S
H867 C890 0.950 . S
H868 C891 0.950 . S
H869 C893 0.950 . S
H870 C894 0.950 . S
H871 C895 0.951 . S
H872 C897 0.951 . S
H873 C899 0.950 . S
H874 C900 0.950 . S
H875 C902 0.950 . S
H876 C905 0.950 . S
H877 C906 0.950 . S
H878 C908 0.950 . S
H879 C909 0.950 . S
C880 H862 0.951 . S
C880 C881 1.366 . S
C880 C882 1.388 . S
C881 C880 1.366 . S
C881 C885 1.385 . S
C882 H863 0.951 . S
C882 C880 1.388 . S
C882 C883 1.366 . S
C883 C882 1.366 . S
C883 C884 1.414 . S
C883 C886 1.499 . S
C884 H864 0.950 . S
C884 C883 1.414 . S
C884 C885 1.374 . S
C885 H865 0.950 . S
C885 C881 1.385 . S
C885 C884 1.374 . S
C886 C883 1.499 . S
C886 C887 1.373 . S
C886 C888 1.389 . S
C887 H866 0.950 . S
C887 C886 1.373 . S
C887 C903 1.377 . S
C888 C886 1.389 . S
C888 C889 1.524 . S
C888 C902 1.377 . S
C889 C888 1.524 . S
C889 C890 1.397 . S
C889 C894 1.363 . S
C890 H867 0.950 . S
C890 C889 1.397 . S
C890 C891 1.334 . S
C891 H868 0.950 . S
C891 C890 1.334 . S
C891 C892 1.287 . S
C892 C891 1.287 . S
C892 C893 1.524 . S
C892 H911 0.913 . S
C893 H869 0.950 . S
C893 C892 1.524 . S
C893 C894 1.415 . S
C894 H870 0.950 . S
C894 C889 1.363 . S
C894 C893 1.415 . S
C895 H871 0.951 . S
C895 C896 1.366 . S
C895 C897 1.388 . S
C896 C895 1.366 . S
C896 C900 1.385 . S
C897 H872 0.951 . S
C897 C895 1.388 . S
C897 C898 1.366 . S
C898 C897 1.366 . S
C898 C899 1.414 . S
C898 C901 1.499 . S
C899 H873 0.950 . S
C899 C898 1.414 . S
C899 C900 1.374 . S
C900 H874 0.950 . S
C900 C896 1.385 . S
C900 C899 1.374 . S
C901 C898 1.499 . S
C901 C902 1.373 . S
C901 C903 1.389 . S
C902 H875 0.950 . S
C902 C888 1.377 . S
C902 C901 1.373 . S
C903 C887 1.377 . S
C903 C901 1.389 . S
C903 C904 1.524 . S
C904 C903 1.524 . S
C904 C905 1.397 . S
C904 C909 1.363 . S
C905 H876 0.950 . S
C905 C904 1.397 . S
C905 C906 1.334 . S
C906 H877 0.950 . S
C906 C905 1.334 . S
C906 C907 1.287 . S
C907 C906 1.287 . S
C907 C908 1.524 . S
C907 H910 0.999 . S
C908 H878 0.950 . S
C908 C907 1.524 . S
C908 C909 1.415 . S
C909 H879 0.950 . S
C909 C904 1.363 . S
C909 C908 1.415 . S
H910 C907 0.999 . S
H911 C892 0.913 . S
H912 C930 0.951 . S
H913 C932 0.951 . S
H914 C934 0.950 . S
H915 C935 0.950 . S
H916 C937 0.950 . S
H917 C940 0.950 . S
H918 C941 0.950 . S
H919 C943 0.950 . S
H920 C944 0.950 . S
H921 C945 0.951 . S
H922 C947 0.951 . S
H923 C949 0.950 . S
H924 C950 0.950 . S
H925 C952 0.950 . S
H926 C955 0.950 . S
H927 C956 0.950 . S
H928 C958 0.950 . S
H929 C959 0.950 . S
C930 H912 0.951 . S
C930 C931 1.366 . S
C930 C932 1.388 . S
C931 C930 1.366 . S
C931 C935 1.385 . S
C932 H913 0.951 . S
C932 C930 1.388 . S
C932 C933 1.366 . S
C933 C932 1.366 . S
C933 C934 1.414 . S
C933 C936 1.499 . S
C934 H914 0.950 . S
C934 C933 1.414 . S
C934 C935 1.374 . S
C935 H915 0.950 . S
C935 C931 1.385 . S
C935 C934 1.374 . S
C936 C933 1.499 . S
C936 C937 1.373 . S
C936 C938 1.389 . S
C937 H916 0.950 . S
C937 C936 1.373 . S
C937 C953 1.377 . S
C938 C936 1.389 . S
C938 C939 1.524 . S
C938 C952 1.377 . S
C939 C938 1.524 . S
C939 C940 1.397 . S
C939 C944 1.363 . S
C940 H917 0.950 . S
C940 C939 1.397 . S
C940 C941 1.334 . S
C941 H918 0.950 . S
C941 C940 1.334 . S
C941 C942 1.287 . S
C942 C941 1.287 . S
C942 C943 1.524 . S
C942 H961 0.913 . S
C943 H919 0.950 . S
C943 C942 1.524 . S
C943 C944 1.415 . S
C944 H920 0.950 . S
C944 C939 1.363 . S
C944 C943 1.415 . S
C945 H921 0.951 . S
C945 C946 1.366 . S
C945 C947 1.388 . S
C946 C945 1.366 . S
C946 C950 1.385 . S
C947 H922 0.951 . S
C947 C945 1.388 . S
C947 C948 1.366 . S
C948 C947 1.366 . S
C948 C949 1.414 . S
C948 C951 1.499 . S
C949 H923 0.950 . S
C949 C948 1.414 . S
C949 C950 1.374 . S
C950 H924 0.950 . S
C950 C946 1.385 . S
C950 C949 1.374 . S
C951 C948 1.499 . S
C951 C952 1.373 . S
C951 C953 1.389 . S
C952 H925 0.950 . S
C952 C938 1.377 . S
C952 C951 1.373 . S
C953 C937 1.377 . S
C953 C951 1.389 . S
C953 C954 1.524 . S
C954 C953 1.524 . S
C954 C955 1.397 . S
C954 C959 1.363 . S
C955 H926 0.950 . S
C955 C954 1.397 . S
C955 C956 1.334 . S
C956 H927 0.950 . S
C956 C955 1.334 . S
C956 C957 1.287 . S
C957 C956 1.287 . S
C957 C958 1.524 . S
C957 H960 0.999 . S
C958 H928 0.950 . S
C958 C957 1.524 . S
C958 C959 1.415 . S
C959 H929 0.950 . S
C959 C954 1.363 . S
C959 C958 1.415 . S
H960 C957 0.999 . S
H961 C942 0.913 . S
H962 C980 0.951 . S
H963 C982 0.951 . S
H964 C984 0.950 . S
H965 C985 0.950 . S
H966 C987 0.950 . S
H967 C990 0.950 . S
H968 C991 0.950 . S
H969 C993 0.950 . S
H970 C994 0.950 . S
H971 C995 0.951 . S
H972 C997 0.951 . S
H973 C999 0.950 . S
H974 C1000 0.950 . S
H975 C1002 0.950 . S
H976 C1005 0.950 . S
H977 C1006 0.950 . S
H978 C1008 0.950 . S
H979 C1009 0.950 . S
C980 H962 0.951 . S
C980 C981 1.366 . S
C980 C982 1.388 . S
C981 C980 1.366 . S
C981 C985 1.385 . S
C982 H963 0.951 . S
C982 C980 1.388 . S
C982 C983 1.366 . S
C983 C982 1.366 . S
C983 C984 1.414 . S
C983 C986 1.499 . S
C984 H964 0.950 . S
C984 C983 1.414 . S
C984 C985 1.374 . S
C985 H965 0.950 . S
C985 C981 1.385 . S
C985 C984 1.374 . S
C986 C983 1.499 . S
C986 C987 1.373 . S
C986 C988 1.389 . S
C987 H966 0.950 . S
C987 C986 1.373 . S
C987 C1003 1.377 . S
C988 C986 1.389 . S
C988 C989 1.524 . S
C988 C1002 1.377 . S
C989 C988 1.524 . S
C989 C990 1.397 . S
C989 C994 1.363 . S
C990 H967 0.950 . S
C990 C989 1.397 . S
C990 C991 1.334 . S
C991 H968 0.950 . S
C991 C990 1.334 . S
C991 C992 1.287 . S
C992 C991 1.287 . S
C992 C993 1.524 . S
C992 H1011 0.913 . S
C993 H969 0.950 . S
C993 C992 1.524 . S
C993 C994 1.415 . S
C994 H970 0.950 . S
C994 C989 1.363 . S
C994 C993 1.415 . S
C995 H971 0.951 . S
C995 C996 1.366 . S
C995 C997 1.388 . S
C996 C995 1.366 . S
C996 C1000 1.385 . S
C997 H972 0.951 . S
C997 C995 1.388 . S
C997 C998 1.366 . S
C998 C997 1.366 . S
C998 C999 1.414 . S
C998 C1001 1.499 . S
C999 H973 0.950 . S
C999 C998 1.414 . S
C999 C1000 1.374 . S
C1000 H974 0.950 . S
C1000 C996 1.385 . S
C1000 C999 1.374 . S
C1001 C998 1.499 . S
C1001 C1002 1.373 . S
C1001 C1003 1.389 . S
C1002 H975 0.950 . S
C1002 C988 1.377 . S
C1002 C1001 1.373 . S
C1003 C987 1.377 . S
C1003 C1001 1.389 . S
C1003 C1004 1.524 . S
C1004 C1003 1.524 . S
C1004 C1005 1.397 . S
C1004 C1009 1.363 . S
C1005 H976 0.950 . S
C1005 C1004 1.397 . S
C1005 C1006 1.334 . S
C1006 H977 0.950 . S
C1006 C1005 1.334 . S
C1006 C1007 1.287 . S
C1007 C1006 1.287 . S
C1007 C1008 1.524 . S
C1007 H1010 0.999 . S
C1008 H978 0.950 . S
C1008 C1007 1.524 . S
C1008 C1009 1.415 . S
C1009 H979 0.950 . S
C1009 C1004 1.363 . S
C1009 C1008 1.415 . S
H1010 C1007 0.999 . S
H1011 C992 0.913 . S
H1012 C1030 0.951 . S
H1013 C1032 0.951 . S
H1014 C1034 0.950 . S
H1015 C1035 0.950 . S
H1016 C1037 0.950 . S
H1017 C1040 0.950 . S
H1018 C1041 0.950 . S
H1019 C1043 0.950 . S
H1020 C1044 0.950 . S
H1021 C1045 0.951 . S
H1022 C1047 0.951 . S
H1023 C1049 0.950 . S
H1024 C1050 0.950 . S
H1025 C1052 0.950 . S
H1026 C1055 0.950 . S
H1027 C1056 0.950 . S
H1028 C1058 0.950 . S
H1029 C1059 0.950 . S
C1030 H1012 0.951 . S
C1030 C1031 1.366 . S
C1030 C1032 1.388 . S
C1031 C1030 1.366 . S
C1031 C1035 1.385 . S
C1032 H1013 0.951 . S
C1032 C1030 1.388 . S
C1032 C1033 1.366 . S
C1033 C1032 1.366 . S
C1033 C1034 1.414 . S
C1033 C1036 1.499 . S
C1034 H1014 0.950 . S
C1034 C1033 1.414 . S
C1034 C1035 1.374 . S
C1035 H1015 0.950 . S
C1035 C1031 1.385 . S
C1035 C1034 1.374 . S
C1036 C1033 1.499 . S
C1036 C1037 1.373 . S
C1036 C1038 1.389 . S
C1037 H1016 0.950 . S
C1037 C1036 1.373 . S
C1037 C1053 1.377 . S
C1038 C1036 1.389 . S
C1038 C1039 1.524 . S
C1038 C1052 1.377 . S
C1039 C1038 1.524 . S
C1039 C1040 1.397 . S
C1039 C1044 1.363 . S
C1040 H1017 0.950 . S
C1040 C1039 1.397 . S
C1040 C1041 1.334 . S
C1041 H1018 0.950 . S
C1041 C1040 1.334 . S
C1041 C1042 1.287 . S
C1042 C1041 1.287 . S
C1042 C1043 1.524 . S
C1042 H1061 0.913 . S
C1043 H1019 0.950 . S
C1043 C1042 1.524 . S
C1043 C1044 1.415 . S
C1044 H1020 0.950 . S
C1044 C1039 1.363 . S
C1044 C1043 1.415 . S
C1045 H1021 0.951 . S
C1045 C1046 1.366 . S
C1045 C1047 1.388 . S
C1046 C1045 1.366 . S
C1046 C1050 1.385 . S
C1047 H1022 0.951 . S
C1047 C1045 1.388 . S
C1047 C1048 1.366 . S
C1048 C1047 1.366 . S
C1048 C1049 1.414 . S
C1048 C1051 1.499 . S
C1049 H1023 0.950 . S
C1049 C1048 1.414 . S
C1049 C1050 1.374 . S
C1050 H1024 0.950 . S
C1050 C1046 1.385 . S
C1050 C1049 1.374 . S
C1051 C1048 1.499 . S
C1051 C1052 1.373 . S
C1051 C1053 1.389 . S
C1052 H1025 0.950 . S
C1052 C1038 1.377 . S
C1052 C1051 1.373 . S
C1053 C1037 1.377 . S
C1053 C1051 1.389 . S
C1053 C1054 1.524 . S
C1054 C1053 1.524 . S
C1054 C1055 1.397 . S
C1054 C1059 1.363 . S
C1055 H1026 0.950 . S
C1055 C1054 1.397 . S
C1055 C1056 1.334 . S
C1056 H1027 0.950 . S
C1056 C1055 1.334 . S
C1056 C1057 1.287 . S
C1057 C1056 1.287 . S
C1057 C1058 1.524 . S
C1057 H1060 0.999 . S
C1058 H1028 0.950 . S
C1058 C1057 1.524 . S
C1058 C1059 1.415 . S
C1059 H1029 0.950 . S
C1059 C1054 1.363 . S
C1059 C1058 1.415 . S
H1060 C1057 0.999 . S
H1061 C1042 0.913 . S
H1062 C1080 0.951 . S
H1063 C1082 0.951 . S
H1064 C1084 0.950 . S
H1065 C1085 0.950 . S
H1066 C1087 0.950 . S
H1067 C1090 0.950 . S
H1068 C1091 0.950 . S
H1069 C1093 0.950 . S
H1070 C1094 0.950 . S
H1071 C1095 0.951 . S
H1072 C1097 0.951 . S
H1073 C1099 0.950 . S
H1074 C1100 0.950 . S
H1075 C1102 0.950 . S
H1076 C1105 0.950 . S
H1077 C1106 0.950 . S
H1078 C1108 0.950 . S
H1079 C1109 0.950 . S
C1080 H1062 0.951 . S
C1080 C1081 1.366 . S
C1080 C1082 1.388 . S
C1081 C1080 1.366 . S
C1081 C1085 1.385 . S
C1082 H1063 0.951 . S
C1082 C1080 1.388 . S
C1082 C1083 1.366 . S
C1083 C1082 1.366 . S
C1083 C1084 1.414 . S
C1083 C1086 1.499 . S
C1084 H1064 0.950 . S
C1084 C1083 1.414 . S
C1084 C1085 1.374 . S
C1085 H1065 0.950 . S
C1085 C1081 1.385 . S
C1085 C1084 1.374 . S
C1086 C1083 1.499 . S
C1086 C1087 1.373 . S
C1086 C1088 1.389 . S
C1087 H1066 0.950 . S
C1087 C1086 1.373 . S
C1087 C1103 1.377 . S
C1088 C1086 1.389 . S
C1088 C1089 1.524 . S
C1088 C1102 1.377 . S
C1089 C1088 1.524 . S
C1089 C1090 1.397 . S
C1089 C1094 1.363 . S
C1090 H1067 0.950 . S
C1090 C1089 1.397 . S
C1090 C1091 1.334 . S
C1091 H1068 0.950 . S
C1091 C1090 1.334 . S
C1091 C1092 1.287 . S
C1092 C1091 1.287 . S
C1092 C1093 1.524 . S
C1092 H1111 0.913 . S
C1093 H1069 0.950 . S
C1093 C1092 1.524 . S
C1093 C1094 1.415 . S
C1094 H1070 0.950 . S
C1094 C1089 1.363 . S
C1094 C1093 1.415 . S
C1095 H1071 0.951 . S
C1095 C1096 1.366 . S
C1095 C1097 1.388 . S
C1096 C1095 1.366 . S
C1096 C1100 1.385 . S
C1097 H1072 0.951 . S
C1097 C1095 1.388 . S
C1097 C1098 1.366 . S
C1098 C1097 1.366 . S
C1098 C1099 1.414 . S
C1098 C1101 1.499 . S
C1099 H1073 0.950 . S
C1099 C1098 1.414 . S
C1099 C1100 1.374 . S
C1100 H1074 0.950 . S
C1100 C1096 1.385 . S
C1100 C1099 1.374 . S
C1101 C1098 1.499 . S
C1101 C1102 1.373 . S
C1101 C1103 1.389 . S
C1102 H1075 0.950 . S
C1102 C1088 1.377 . S
C1102 C1101 1.373 . S
C1103 C1087 1.377 . S
C1103 C1101 1.389 . S
C1103 C1104 1.524 . S
C1104 C1103 1.524 . S
C1104 C1105 1.397 . S
C1104 C1109 1.363 . S
C1105 H1076 0.950 . S
C1105 C1104 1.397 . S
C1105 C1106 1.334 . S
C1106 H1077 0.950 . S
C1106 C1105 1.334 . S
C1106 C1107 1.287 . S
C1107 C1106 1.287 . S
C1107 C1108 1.524 . S
C1107 H1110 0.999 . S
C1108 H1078 0.950 . S
C1108 C1107 1.524 . S
C1108 C1109 1.415 . S
C1109 H1079 0.950 . S
C1109 C1104 1.363 . S
C1109 C1108 1.415 . S
H1110 C1107 0.999 . S
H1111 C1092 0.913 . S
H1112 C1130 0.951 . S
H1113 C1132 0.951 . S
H1114 C1134 0.950 . S
H1115 C1135 0.950 . S
H1116 C1137 0.950 . S
H1117 C1140 0.950 . S
H1118 C1141 0.950 . S
H1119 C1143 0.950 . S
H1120 C1144 0.950 . S
H1121 C1145 0.951 . S
H1122 C1147 0.951 . S
H1123 C1149 0.950 . S
H1124 C1150 0.950 . S
H1125 C1152 0.950 . S
H1126 C1155 0.950 . S
H1127 C1156 0.950 . S
H1128 C1158 0.950 . S
H1129 C1159 0.950 . S
C1130 H1112 0.951 . S
C1130 C1131 1.366 . S
C1130 C1132 1.388 . S
C1131 C1130 1.366 . S
C1131 C1135 1.385 . S
C1132 H1113 0.951 . S
C1132 C1130 1.388 . S
C1132 C1133 1.366 . S
C1133 C1132 1.366 . S
C1133 C1134 1.414 . S
C1133 C1136 1.499 . S
C1134 H1114 0.950 . S
C1134 C1133 1.414 . S
C1134 C1135 1.374 . S
C1135 H1115 0.950 . S
C1135 C1131 1.385 . S
C1135 C1134 1.374 . S
C1136 C1133 1.499 . S
C1136 C1137 1.373 . S
C1136 C1138 1.389 . S
C1137 H1116 0.950 . S
C1137 C1136 1.373 . S
C1137 C1153 1.377 . S
C1138 C1136 1.389 . S
C1138 C1139 1.524 . S
C1138 C1152 1.377 . S
C1139 C1138 1.524 . S
C1139 C1140 1.397 . S
C1139 C1144 1.363 . S
C1140 H1117 0.950 . S
C1140 C1139 1.397 . S
C1140 C1141 1.334 . S
C1141 H1118 0.950 . S
C1141 C1140 1.334 . S
C1141 C1142 1.287 . S
C1142 C1141 1.287 . S
C1142 C1143 1.524 . S
C1142 H1161 0.913 . S
C1143 H1119 0.950 . S
C1143 C1142 1.524 . S
C1143 C1144 1.415 . S
C1144 H1120 0.950 . S
C1144 C1139 1.363 . S
C1144 C1143 1.415 . S
C1145 H1121 0.951 . S
C1145 C1146 1.366 . S
C1145 C1147 1.388 . S
C1146 C1145 1.366 . S
C1146 C1150 1.385 . S
C1147 H1122 0.951 . S
C1147 C1145 1.388 . S
C1147 C1148 1.366 . S
C1148 C1147 1.366 . S
C1148 C1149 1.414 . S
C1148 C1151 1.499 . S
C1149 H1123 0.950 . S
C1149 C1148 1.414 . S
C1149 C1150 1.374 . S
C1150 H1124 0.950 . S
C1150 C1146 1.385 . S
C1150 C1149 1.374 . S
C1151 C1148 1.499 . S
C1151 C1152 1.373 . S
C1151 C1153 1.389 . S
C1152 H1125 0.950 . S
C1152 C1138 1.377 . S
C1152 C1151 1.373 . S
C1153 C1137 1.377 . S
C1153 C1151 1.389 . S
C1153 C1154 1.524 . S
C1154 C1153 1.524 . S
C1154 C1155 1.397 . S
C1154 C1159 1.363 . S
C1155 H1126 0.950 . S
C1155 C1154 1.397 . S
C1155 C1156 1.334 . S
C1156 H1127 0.950 . S
C1156 C1155 1.334 . S
C1156 C1157 1.287 . S
C1157 C1156 1.287 . S
C1157 C1158 1.524 . S
C1157 H1160 0.999 . S
C1158 H1128 0.950 . S
C1158 C1157 1.524 . S
C1158 C1159 1.415 . S
C1159 H1129 0.950 . S
C1159 C1154 1.363 . S
C1159 C1158 1.415 . S
H1160 C1157 0.999 . S
H1161 C1142 0.913 . S
H1162 C1180 0.951 . S
H1163 C1182 0.951 . S
H1164 C1184 0.950 . S
H1165 C1185 0.950 . S
H1166 C1187 0.950 . S
H1167 C1190 0.950 . S
H1168 C1191 0.950 . S
H1169 C1193 0.950 . S
H1170 C1194 0.950 . S
H1171 C1195 0.951 . S
H1172 C1197 0.951 . S
H1173 C1199 0.950 . S
H1174 C1200 0.950 . S
H1175 C1202 0.950 . S
H1176 C1205 0.950 . S
H1177 C1206 0.950 . S
H1178 C1208 0.950 . S
H1179 C1209 0.950 . S
C1180 H1162 0.951 . S
C1180 C1181 1.366 . S
C1180 C1182 1.388 . S
C1181 C1180 1.366 . S
C1181 C1185 1.385 . S
C1182 H1163 0.951 . S
C1182 C1180 1.388 . S
C1182 C1183 1.366 . S
C1183 C1182 1.366 . S
C1183 C1184 1.414 . S
C1183 C1186 1.499 . S
C1184 H1164 0.950 . S
C1184 C1183 1.414 . S
C1184 C1185 1.374 . S
C1185 H1165 0.950 . S
C1185 C1181 1.385 . S
C1185 C1184 1.374 . S
C1186 C1183 1.499 . S
C1186 C1187 1.373 . S
C1186 C1188 1.389 . S
C1187 H1166 0.950 . S
C1187 C1186 1.373 . S
C1187 C1203 1.377 . S
C1188 C1186 1.389 . S
C1188 C1189 1.524 . S
C1188 C1202 1.377 . S
C1189 C1188 1.524 . S
C1189 C1190 1.397 . S
C1189 C1194 1.363 . S
C1190 H1167 0.950 . S
C1190 C1189 1.397 . S
C1190 C1191 1.334 . S
C1191 H1168 0.950 . S
C1191 C1190 1.334 . S
C1191 C1192 1.287 . S
C1192 C1191 1.287 . S
C1192 C1193 1.524 . S
C1192 H1211 0.913 . S
C1193 H1169 0.950 . S
C1193 C1192 1.524 . S
C1193 C1194 1.415 . S
C1194 H1170 0.950 . S
C1194 C1189 1.363 . S
C1194 C1193 1.415 . S
C1195 H1171 0.951 . S
C1195 C1196 1.366 . S
C1195 C1197 1.388 . S
C1196 C1195 1.366 . S
C1196 C1200 1.385 . S
C1197 H1172 0.951 . S
C1197 C1195 1.388 . S
C1197 C1198 1.366 . S
C1198 C1197 1.366 . S
C1198 C1199 1.414 . S
C1198 C1201 1.499 . S
C1199 H1173 0.950 . S
C1199 C1198 1.414 . S
C1199 C1200 1.374 . S
C1200 H1174 0.950 . S
C1200 C1196 1.385 . S
C1200 C1199 1.374 . S
C1201 C1198 1.499 . S
C1201 C1202 1.373 . S
C1201 C1203 1.389 . S
C1202 H1175 0.950 . S
C1202 C1188 1.377 . S
C1202 C1201 1.373 . S
C1203 C1187 1.377 . S
C1203 C1201 1.389 . S
C1203 C1204 1.524 . S
C1204 C1203 1.524 . S
C1204 C1205 1.397 . S
C1204 C1209 1.363 . S
C1205 H1176 0.950 . S
C1205 C1204 1.397 . S
C1205 C1206 1.334 . S
C1206 H1177 0.950 . S
C1206 C1205 1.334 . S
C1206 C1207 1.287 . S
C1207 C1206 1.287 . S
C1207 C1208 1.524 . S
C1207 H1210 0.999 . S
C1208 H1178 0.950 . S
C1208 C1207 1.524 . S
C1208 C1209 1.415 . S
C1209 H1179 0.950 . S
C1209 C1204 1.363 . S
C1209 C1208 1.415 . S
H1210 C1207 0.999 . S
H1211 C1192 0.913 . S
H1212 C1230 0.951 . S
H1213 C1232 0.951 . S
H1214 C1234 0.950 . S
H1215 C1235 0.950 . S
H1216 C1237 0.950 . S
H1217 C1240 0.950 . S
H1218 C1241 0.950 . S
H1219 C1243 0.950 . S
H1220 C1244 0.950 . S
H1221 C1245 0.951 . S
H1222 C1247 0.951 . S
H1223 C1249 0.950 . S
H1224 C1250 0.950 . S
H1225 C1252 0.950 . S
H1226 C1255 0.950 . S
H1227 C1256 0.950 1_554 S
H1228 C1258 0.950 . S
H1229 C1259 0.950 . S
C1230 H1212 0.951 . S
C1230 C1231 1.366 . S
C1230 C1232 1.388 . S
C1231 C1230 1.366 . S
C1231 C1235 1.385 . S
C1232 H1213 0.951 . S
C1232 C1230 1.388 . S
C1232 C1233 1.366 . S
C1233 C1232 1.366 . S
C1233 C1234 1.414 . S
C1233 C1236 1.499 . S
C1234 H1214 0.950 . S
C1234 C1233 1.414 . S
C1234 C1235 1.374 . S
C1235 H1215 0.950 . S
C1235 C1231 1.385 . S
C1235 C1234 1.374 . S
C1236 C1233 1.499 . S
C1236 C1237 1.373 . S
C1236 C1238 1.389 . S
C1237 H1216 0.950 . S
C1237 C1236 1.373 . S
C1237 C1253 1.377 . S
C1238 C1236 1.389 . S
C1238 C1239 1.524 . S
C1238 C1252 1.377 . S
C1239 C1238 1.524 . S
C1239 C1240 1.397 . S
C1239 C1244 1.363 . S
C1240 H1217 0.950 . S
C1240 C1239 1.397 . S
C1240 C1241 1.334 . S
C1241 H1218 0.950 . S
C1241 C1240 1.334 . S
C1241 C1242 1.287 . S
C1242 C1241 1.287 . S
C1242 C1243 1.524 . S
C1242 H1261 0.913 . S
C1243 H1219 0.950 . S
C1243 C1242 1.524 . S
C1243 C1244 1.415 . S
C1244 H1220 0.950 . S
C1244 C1239 1.363 . S
C1244 C1243 1.415 . S
C1245 H1221 0.951 . S
C1245 C1246 1.366 . S
C1245 C1247 1.388 . S
C1246 C1245 1.366 . S
C1246 C1250 1.385 . S
C1247 H1222 0.951 . S
C1247 C1245 1.388 . S
C1247 C1248 1.366 . S
C1248 C1247 1.366 . S
C1248 C1249 1.414 . S
C1248 C1251 1.499 . S
C1249 H1223 0.950 . S
C1249 C1248 1.414 . S
C1249 C1250 1.374 . S
C1250 H1224 0.950 . S
C1250 C1246 1.385 . S
C1250 C1249 1.374 . S
C1251 C1248 1.499 . S
C1251 C1252 1.373 . S
C1251 C1253 1.389 . S
C1252 H1225 0.950 . S
C1252 C1238 1.377 . S
C1252 C1251 1.373 . S
C1253 C1237 1.377 . S
C1253 C1251 1.389 . S
C1253 C1254 1.524 . S
C1254 C1253 1.524 . S
C1254 C1255 1.397 . S
C1254 C1259 1.363 . S
C1255 H1226 0.950 . S
C1255 C1254 1.397 . S
C1255 C1256 1.334 . S
C1256 H1227 0.950 1_556 S
C1256 C1255 1.334 . S
C1256 C1257 1.287 . S
C1257 C1256 1.287 . S
C1257 C1258 1.524 . S
C1257 H1260 0.999 1_556 S
C1258 H1228 0.950 . S
C1258 C1257 1.524 . S
C1258 C1259 1.415 . S
C1259 H1229 0.950 . S
C1259 C1254 1.363 . S
C1259 C1258 1.415 . S
H1260 C1257 0.999 1_554 S
H1261 C1242 0.913 . S
H1262 C1280 0.951 . S
H1263 C1282 0.951 . S
H1264 C1284 0.950 . S
H1265 C1285 0.950 . S
H1266 C1287 0.950 . S
H1267 C1290 0.950 . S
H1268 C1291 0.950 . S
H1269 C1293 0.950 . S
H1270 C1294 0.950 . S
H1271 C1295 0.951 . S
H1272 C1297 0.951 . S
H1273 C1299 0.950 . S
H1274 C1300 0.950 . S
H1275 C1302 0.950 . S
H1276 C1305 0.950 . S
H1277 C1306 0.950 . S
H1278 C1308 0.950 . S
H1279 C1309 0.950 . S
C1280 H1262 0.951 . S
C1280 C1281 1.366 . S
C1280 C1282 1.388 . S
C1281 C1280 1.366 . S
C1281 C1285 1.385 . S
C1282 H1263 0.951 . S
C1282 C1280 1.388 . S
C1282 C1283 1.366 . S
C1283 C1282 1.366 . S
C1283 C1284 1.414 . S
C1283 C1286 1.499 . S
C1284 H1264 0.950 . S
C1284 C1283 1.414 . S
C1284 C1285 1.374 . S
C1285 H1265 0.950 . S
C1285 C1281 1.385 . S
C1285 C1284 1.374 . S
C1286 C1283 1.499 . S
C1286 C1287 1.373 . S
C1286 C1288 1.389 . S
C1287 H1266 0.950 . S
C1287 C1286 1.373 . S
C1287 C1303 1.377 . S
C1288 C1286 1.389 . S
C1288 C1289 1.524 . S
C1288 C1302 1.377 . S
C1289 C1288 1.524 . S
C1289 C1290 1.397 . S
C1289 C1294 1.363 . S
C1290 H1267 0.950 . S
C1290 C1289 1.397 . S
C1290 C1291 1.334 . S
C1291 H1268 0.950 . S
C1291 C1290 1.334 . S
C1291 C1292 1.287 . S
C1292 C1291 1.287 . S
C1292 C1293 1.524 . S
C1292 H1311 0.913 . S
C1293 H1269 0.950 . S
C1293 C1292 1.524 . S
C1293 C1294 1.415 . S
C1294 H1270 0.950 . S
C1294 C1289 1.363 . S
C1294 C1293 1.415 . S
C1295 H1271 0.951 . S
C1295 C1296 1.366 . S
C1295 C1297 1.388 . S
C1296 C1295 1.366 . S
C1296 C1300 1.385 . S
C1297 H1272 0.951 . S
C1297 C1295 1.388 . S
C1297 C1298 1.366 . S
C1298 C1297 1.366 . S
C1298 C1299 1.414 . S
C1298 C1301 1.499 . S
C1299 H1273 0.950 . S
C1299 C1298 1.414 . S
C1299 C1300 1.374 . S
C1300 H1274 0.950 . S
C1300 C1296 1.385 . S
C1300 C1299 1.374 . S
C1301 C1298 1.499 . S
C1301 C1302 1.373 . S
C1301 C1303 1.389 . S
C1302 H1275 0.950 . S
C1302 C1288 1.377 . S
C1302 C1301 1.373 . S
C1303 C1287 1.377 . S
C1303 C1301 1.389 . S
C1303 C1304 1.524 . S
C1304 C1303 1.524 . S
C1304 C1305 1.397 . S
C1304 C1309 1.363 . S
C1305 H1276 0.950 . S
C1305 C1304 1.397 . S
C1305 C1306 1.334 . S
C1306 H1277 0.950 . S
C1306 C1305 1.334 . S
C1306 C1307 1.287 . S
C1307 C1306 1.287 . S
C1307 C1308 1.524 . S
C1307 H1310 0.999 . S
C1308 H1278 0.950 . S
C1308 C1307 1.524 . S
C1308 C1309 1.415 . S
C1309 H1279 0.950 . S
C1309 C1304 1.363 . S
C1309 C1308 1.415 . S
H1310 C1307 0.999 . S
H1311 C1292 0.913 . S
H1312 C1330 0.951 . S
H1313 C1332 0.951 . S
H1314 C1334 0.950 . S
H1315 C1335 0.950 . S
H1316 C1337 0.950 . S
H1317 C1340 0.950 . S
H1318 C1341 0.950 . S
H1319 C1343 0.950 . S
H1320 C1344 0.950 . S
H1321 C1345 0.951 . S
H1322 C1347 0.951 . S
H1323 C1349 0.950 . S
H1324 C1350 0.950 . S
H1325 C1352 0.950 . S
H1326 C1355 0.950 . S
H1327 C1356 0.950 . S
H1328 C1358 0.950 . S
H1329 C1359 0.950 . S
C1330 H1312 0.951 . S
C1330 C1331 1.366 . S
C1330 C1332 1.388 . S
C1331 C1330 1.366 . S
C1331 C1335 1.385 . S
C1332 H1313 0.951 . S
C1332 C1330 1.388 . S
C1332 C1333 1.366 . S
C1333 C1332 1.366 . S
C1333 C1334 1.414 . S
C1333 C1336 1.499 . S
C1334 H1314 0.950 . S
C1334 C1333 1.414 . S
C1334 C1335 1.374 . S
C1335 H1315 0.950 . S
C1335 C1331 1.385 . S
C1335 C1334 1.374 . S
C1336 C1333 1.499 . S
C1336 C1337 1.373 . S
C1336 C1338 1.389 . S
C1337 H1316 0.950 . S
C1337 C1336 1.373 . S
C1337 C1353 1.377 . S
C1338 C1336 1.389 . S
C1338 C1339 1.524 . S
C1338 C1352 1.377 . S
C1339 C1338 1.524 . S
C1339 C1340 1.397 . S
C1339 C1344 1.363 . S
C1340 H1317 0.950 . S
C1340 C1339 1.397 . S
C1340 C1341 1.334 . S
C1341 H1318 0.950 . S
C1341 C1340 1.334 . S
C1341 C1342 1.287 . S
C1342 C1341 1.287 . S
C1342 C1343 1.524 . S
C1342 H1361 0.913 . S
C1343 H1319 0.950 . S
C1343 C1342 1.524 . S
C1343 C1344 1.415 . S
C1344 H1320 0.950 . S
C1344 C1339 1.363 . S
C1344 C1343 1.415 . S
C1345 H1321 0.951 . S
C1345 C1346 1.366 . S
C1345 C1347 1.388 . S
C1346 C1345 1.366 . S
C1346 C1350 1.385 . S
C1347 H1322 0.951 . S
C1347 C1345 1.388 . S
C1347 C1348 1.366 . S
C1348 C1347 1.366 . S
C1348 C1349 1.414 . S
C1348 C1351 1.499 . S
C1349 H1323 0.950 . S
C1349 C1348 1.414 . S
C1349 C1350 1.374 . S
C1350 H1324 0.950 . S
C1350 C1346 1.385 . S
C1350 C1349 1.374 . S
C1351 C1348 1.499 . S
C1351 C1352 1.373 . S
C1351 C1353 1.389 . S
C1352 H1325 0.950 . S
C1352 C1338 1.377 . S
C1352 C1351 1.373 . S
C1353 C1337 1.377 . S
C1353 C1351 1.389 . S
C1353 C1354 1.524 . S
C1354 C1353 1.524 . S
C1354 C1355 1.397 . S
C1354 C1359 1.363 . S
C1355 H1326 0.950 . S
C1355 C1354 1.397 . S
C1355 C1356 1.334 . S
C1356 H1327 0.950 . S
C1356 C1355 1.334 . S
C1356 C1357 1.287 . S
C1357 C1356 1.287 . S
C1357 C1358 1.524 . S
C1357 H1360 0.999 . S
C1358 H1328 0.950 . S
C1358 C1357 1.524 . S
C1358 C1359 1.415 . S
C1359 H1329 0.950 . S
C1359 C1354 1.363 . S
C1359 C1358 1.415 . S
H1360 C1357 0.999 . S
H1361 C1342 0.913 . S
H1362 C1380 0.951 . S
H1363 C1382 0.951 . S
H1364 C1384 0.950 . S
H1365 C1385 0.950 . S
H1366 C1387 0.950 . S
H1367 C1390 0.950 . S
H1368 C1391 0.950 . S
H1369 C1393 0.950 . S
H1370 C1394 0.950 . S
H1371 C1395 0.951 . S
H1372 C1397 0.951 . S
H1373 C1399 0.950 . S
H1374 C1400 0.950 . S
H1375 C1402 0.950 . S
H1376 C1405 0.950 . S
H1377 C1406 0.950 . S
H1378 C1408 0.950 . S
H1379 C1409 0.950 . S
C1380 H1362 0.951 . S
C1380 C1381 1.366 . S
C1380 C1382 1.388 . S
C1381 C1380 1.366 . S
C1381 C1385 1.385 . S
C1382 H1363 0.951 . S
C1382 C1380 1.388 . S
C1382 C1383 1.366 . S
C1383 C1382 1.366 . S
C1383 C1384 1.414 . S
C1383 C1386 1.499 . S
C1384 H1364 0.950 . S
C1384 C1383 1.414 . S
C1384 C1385 1.374 . S
C1385 H1365 0.950 . S
C1385 C1381 1.385 . S
C1385 C1384 1.374 . S
C1386 C1383 1.499 . S
C1386 C1387 1.373 . S
C1386 C1388 1.389 . S
C1387 H1366 0.950 . S
C1387 C1386 1.373 . S
C1387 C1403 1.377 . S
C1388 C1386 1.389 . S
C1388 C1389 1.524 . S
C1388 C1402 1.377 . S
C1389 C1388 1.524 . S
C1389 C1390 1.397 . S
C1389 C1394 1.363 . S
C1390 H1367 0.950 . S
C1390 C1389 1.397 . S
C1390 C1391 1.334 . S
C1391 H1368 0.950 . S
C1391 C1390 1.334 . S
C1391 C1392 1.287 . S
C1392 C1391 1.287 . S
C1392 C1393 1.524 . S
C1392 H1411 0.913 . S
C1393 H1369 0.950 . S
C1393 C1392 1.524 . S
C1393 C1394 1.415 . S
C1394 H1370 0.950 . S
C1394 C1389 1.363 . S
C1394 C1393 1.415 . S
C1395 H1371 0.951 . S
C1395 C1396 1.366 . S
C1395 C1397 1.388 . S
C1396 C1395 1.366 . S
C1396 C1400 1.385 . S
C1397 H1372 0.951 . S
C1397 C1395 1.388 . S
C1397 C1398 1.366 . S
C1398 C1397 1.366 . S
C1398 C1399 1.414 . S
C1398 C1401 1.499 . S
C1399 H1373 0.950 . S
C1399 C1398 1.414 . S
C1399 C1400 1.374 . S
C1400 H1374 0.950 . S
C1400 C1396 1.385 . S
C1400 C1399 1.374 . S
C1401 C1398 1.499 . S
C1401 C1402 1.373 . S
C1401 C1403 1.389 . S
C1402 H1375 0.950 . S
C1402 C1388 1.377 . S
C1402 C1401 1.373 . S
C1403 C1387 1.377 . S
C1403 C1401 1.389 . S
C1403 C1404 1.524 . S
C1404 C1403 1.524 . S
C1404 C1405 1.397 . S
C1404 C1409 1.363 . S
C1405 H1376 0.950 . S
C1405 C1404 1.397 . S
C1405 C1406 1.334 . S
C1406 H1377 0.950 . S
C1406 C1405 1.334 . S
C1406 C1407 1.287 . S
C1407 C1406 1.287 . S
C1407 C1408 1.524 . S
C1407 H1410 0.999 . S
C1408 H1378 0.950 . S
C1408 C1407 1.524 . S
C1408 C1409 1.415 . S
C1409 H1379 0.950 . S
C1409 C1404 1.363 . S
C1409 C1408 1.415 . S
H1410 C1407 0.999 . S
H1411 C1392 0.913 . S
H1412 C1430 0.951 . S
H1413 C1432 0.951 . S
H1414 C1434 0.950 . S
H1415 C1435 0.950 . S
H1416 C1437 0.950 . S
H1417 C1440 0.950 . S
H1418 C1441 0.950 . S
H1419 C1443 0.950 . S
H1420 C1444 0.950 . S
H1421 C1445 0.951 . S
H1422 C1447 0.951 . S
H1423 C1449 0.950 . S
H1424 C1450 0.950 1_554 S
H1425 C1452 0.950 . S
H1426 C1455 0.950 . S
H1427 C1456 0.950 1_565 S
H1428 C1458 0.950 . S
H1429 C1459 0.950 . S
C1430 H1412 0.951 . S
C1430 C1431 1.366 . S
C1430 C1432 1.388 . S
C1431 C1430 1.366 . S
C1431 C1435 1.385 . S
C1432 H1413 0.951 . S
C1432 C1430 1.388 . S
C1432 C1433 1.366 . S
C1433 C1432 1.366 . S
C1433 C1434 1.414 . S
C1433 C1436 1.499 . S
C1434 H1414 0.950 . S
C1434 C1433 1.414 . S
C1434 C1435 1.374 . S
C1435 H1415 0.950 . S
C1435 C1431 1.385 . S
C1435 C1434 1.374 . S
C1436 C1433 1.499 . S
C1436 C1437 1.373 . S
C1436 C1438 1.389 . S
C1437 H1416 0.950 . S
C1437 C1436 1.373 . S
C1437 C1453 1.377 . S
C1438 C1436 1.389 . S
C1438 C1439 1.524 . S
C1438 C1452 1.377 . S
C1439 C1438 1.524 . S
C1439 C1440 1.397 . S
C1439 C1444 1.363 . S
C1440 H1417 0.950 . S
C1440 C1439 1.397 . S
C1440 C1441 1.334 . S
C1441 H1418 0.950 . S
C1441 C1440 1.334 . S
C1441 C1442 1.287 . S
C1442 C1441 1.287 . S
C1442 C1443 1.524 . S
C1442 H1461 0.913 . S
C1443 H1419 0.950 . S
C1443 C1442 1.524 . S
C1443 C1444 1.415 . S
C1444 H1420 0.950 . S
C1444 C1439 1.363 . S
C1444 C1443 1.415 . S
C1445 H1421 0.951 . S
C1445 C1446 1.366 . S
C1445 C1447 1.388 . S
C1446 C1445 1.366 . S
C1446 C1450 1.385 . S
C1447 H1422 0.951 . S
C1447 C1445 1.388 . S
C1447 C1448 1.366 . S
C1448 C1447 1.366 . S
C1448 C1449 1.414 . S
C1448 C1451 1.499 . S
C1449 H1423 0.950 . S
C1449 C1448 1.414 . S
C1449 C1450 1.374 . S
C1450 H1424 0.950 1_556 S
C1450 C1446 1.385 . S
C1450 C1449 1.374 . S
C1451 C1448 1.499 . S
C1451 C1452 1.373 . S
C1451 C1453 1.389 . S
C1452 H1425 0.950 . S
C1452 C1438 1.377 . S
C1452 C1451 1.373 . S
C1453 C1437 1.377 . S
C1453 C1451 1.389 . S
C1453 C1454 1.524 . S
C1454 C1453 1.524 . S
C1454 C1455 1.397 . S
C1454 C1459 1.363 . S
C1455 H1426 0.950 . S
C1455 C1454 1.397 . S
C1455 C1456 1.334 . S
C1456 H1427 0.950 1_545 S
C1456 C1455 1.334 . S
C1456 C1457 1.287 . S
C1457 C1456 1.287 . S
C1457 C1458 1.524 . S
C1457 H1460 0.999 1_545 S
C1458 H1428 0.950 . S
C1458 C1457 1.524 . S
C1458 C1459 1.415 . S
C1459 H1429 0.950 . S
C1459 C1454 1.363 . S
C1459 C1458 1.415 . S
H1460 C1457 0.999 1_565 S
H1461 C1442 0.913 . S
H1462 C1480 0.951 . S
H1463 C1482 0.951 . S
H1464 C1484 0.950 . S
H1465 C1485 0.950 . S
H1466 C1487 0.950 . S
H1467 C1490 0.950 . S
H1468 C1491 0.950 . S
H1469 C1493 0.950 . S
H1470 C1494 0.950 . S
H1471 C1495 0.951 . S
H1472 C1497 0.951 . S
H1473 C1499 0.950 . S
H1474 C1500 0.950 . S
H1475 C1502 0.950 . S
H1476 C1505 0.950 . S
H1477 C1506 0.950 . S
H1478 C1508 0.950 . S
H1479 C1509 0.950 . S
C1480 H1462 0.951 . S
C1480 C1481 1.366 . S
C1480 C1482 1.388 . S
C1481 C1480 1.366 . S
C1481 C1485 1.385 . S
C1482 H1463 0.951 . S
C1482 C1480 1.388 . S
C1482 C1483 1.366 . S
C1483 C1482 1.366 . S
C1483 C1484 1.414 . S
C1483 C1486 1.499 . S
C1484 H1464 0.950 . S
C1484 C1483 1.414 . S
C1484 C1485 1.374 . S
C1485 H1465 0.950 . S
C1485 C1481 1.385 . S
C1485 C1484 1.374 . S
C1486 C1483 1.499 . S
C1486 C1487 1.373 . S
C1486 C1488 1.389 . S
C1487 H1466 0.950 . S
C1487 C1486 1.373 . S
C1487 C1503 1.377 . S
C1488 C1486 1.389 . S
C1488 C1489 1.524 . S
C1488 C1502 1.377 . S
C1489 C1488 1.524 . S
C1489 C1490 1.397 . S
C1489 C1494 1.363 . S
C1490 H1467 0.950 . S
C1490 C1489 1.397 . S
C1490 C1491 1.334 . S
C1491 H1468 0.950 . S
C1491 C1490 1.334 . S
C1491 C1492 1.287 . S
C1492 C1491 1.287 . S
C1492 C1493 1.524 . S
C1492 H1511 0.913 . S
C1493 H1469 0.950 . S
C1493 C1492 1.524 . S
C1493 C1494 1.415 . S
C1494 H1470 0.950 . S
C1494 C1489 1.363 . S
C1494 C1493 1.415 . S
C1495 H1471 0.951 . S
C1495 C1496 1.366 . S
C1495 C1497 1.388 . S
C1496 C1495 1.366 . S
C1496 C1500 1.385 . S
C1497 H1472 0.951 . S
C1497 C1495 1.388 . S
C1497 C1498 1.366 . S
C1498 C1497 1.366 . S
C1498 C1499 1.414 . S
C1498 C1501 1.499 . S
C1499 H1473 0.950 . S
C1499 C1498 1.414 . S
C1499 C1500 1.374 . S
C1500 H1474 0.950 . S
C1500 C1496 1.385 . S
C1500 C1499 1.374 . S
C1501 C1498 1.499 . S
C1501 C1502 1.373 . S
C1501 C1503 1.389 . S
C1502 H1475 0.950 . S
C1502 C1488 1.377 . S
C1502 C1501 1.373 . S
C1503 C1487 1.377 . S
C1503 C1501 1.389 . S
C1503 C1504 1.524 . S
C1504 C1503 1.524 . S
C1504 C1505 1.397 . S
C1504 C1509 1.363 . S
C1505 H1476 0.950 . S
C1505 C1504 1.397 . S
C1505 C1506 1.334 . S
C1506 H1477 0.950 . S
C1506 C1505 1.334 . S
C1506 C1507 1.287 . S
C1507 C1506 1.287 . S
C1507 C1508 1.524 . S
C1507 H1510 0.999 . S
C1508 H1478 0.950 . S
C1508 C1507 1.524 . S
C1508 C1509 1.415 . S
C1509 H1479 0.950 . S
C1509 C1504 1.363 . S
C1509 C1508 1.415 . S
H1510 C1507 0.999 . S
H1511 C1492 0.913 . S
H1512 C1530 0.951 . S
H1513 C1532 0.951 . S
H1514 C1534 0.950 . S
H1515 C1535 0.950 . S
H1516 C1537 0.950 . S
H1517 C1540 0.950 . S
H1518 C1541 0.950 . S
H1519 C1543 0.950 . S
H1520 C1544 0.950 . S
H1521 C1545 0.951 . S
H1522 C1547 0.951 . S
H1523 C1549 0.950 . S
H1524 C1550 0.950 . S
H1525 C1552 0.950 . S
H1526 C1555 0.950 . S
H1527 C1556 0.950 . S
H1528 C1558 0.950 . S
H1529 C1559 0.950 . S
C1530 H1512 0.951 . S
C1530 C1531 1.366 . S
C1530 C1532 1.388 . S
C1531 C1530 1.366 . S
C1531 C1535 1.385 . S
C1532 H1513 0.951 . S
C1532 C1530 1.388 . S
C1532 C1533 1.366 . S
C1533 C1532 1.366 . S
C1533 C1534 1.414 . S
C1533 C1536 1.499 . S
C1534 H1514 0.950 . S
C1534 C1533 1.414 . S
C1534 C1535 1.374 . S
C1535 H1515 0.950 . S
C1535 C1531 1.385 . S
C1535 C1534 1.374 . S
C1536 C1533 1.499 . S
C1536 C1537 1.373 . S
C1536 C1538 1.389 . S
C1537 H1516 0.950 . S
C1537 C1536 1.373 . S
C1537 C1553 1.377 . S
C1538 C1536 1.389 . S
C1538 C1539 1.524 . S
C1538 C1552 1.377 . S
C1539 C1538 1.524 . S
C1539 C1540 1.397 . S
C1539 C1544 1.363 . S
C1540 H1517 0.950 . S
C1540 C1539 1.397 . S
C1540 C1541 1.334 . S
C1541 H1518 0.950 . S
C1541 C1540 1.334 . S
C1541 C1542 1.287 . S
C1542 C1541 1.287 . S
C1542 C1543 1.524 . S
C1542 H1561 0.913 . S
C1543 H1519 0.950 . S
C1543 C1542 1.524 . S
C1543 C1544 1.415 . S
C1544 H1520 0.950 . S
C1544 C1539 1.363 . S
C1544 C1543 1.415 . S
C1545 H1521 0.951 . S
C1545 C1546 1.366 . S
C1545 C1547 1.388 . S
C1546 C1545 1.366 . S
C1546 C1550 1.385 . S
C1547 H1522 0.951 . S
C1547 C1545 1.388 . S
C1547 C1548 1.366 . S
C1548 C1547 1.366 . S
C1548 C1549 1.414 . S
C1548 C1551 1.499 . S
C1549 H1523 0.950 . S
C1549 C1548 1.414 . S
C1549 C1550 1.374 . S
C1550 H1524 0.950 . S
C1550 C1546 1.385 . S
C1550 C1549 1.374 . S
C1551 C1548 1.499 . S
C1551 C1552 1.373 . S
C1551 C1553 1.389 . S
C1552 H1525 0.950 . S
C1552 C1538 1.377 . S
C1552 C1551 1.373 . S
C1553 C1537 1.377 . S
C1553 C1551 1.389 . S
C1553 C1554 1.524 . S
C1554 C1553 1.524 . S
C1554 C1555 1.397 . S
C1554 C1559 1.363 . S
C1555 H1526 0.950 . S
C1555 C1554 1.397 . S
C1555 C1556 1.334 . S
C1556 H1527 0.950 . S
C1556 C1555 1.334 . S
C1556 C1557 1.287 . S
C1557 C1556 1.287 . S
C1557 C1558 1.524 . S
C1557 H1560 0.999 1_556 S
C1558 H1528 0.950 . S
C1558 C1557 1.524 . S
C1558 C1559 1.415 . S
C1559 H1529 0.950 . S
C1559 C1554 1.363 . S
C1559 C1558 1.415 . S
H1560 C1557 0.999 1_554 S
H1561 C1542 0.913 . S
H1562 C1580 0.951 . S
H1563 C1582 0.951 . S
H1564 C1584 0.950 . S
H1565 C1585 0.950 . S
H1566 C1587 0.950 . S
H1567 C1590 0.950 . S
H1568 C1591 0.950 . S
H1569 C1593 0.950 . S
H1570 C1594 0.950 1_455 S
H1571 C1595 0.951 . S
H1572 C1597 0.951 . S
H1573 C1599 0.950 . S
H1574 C1600 0.950 1_455 S
H1575 C1602 0.950 . S
H1576 C1605 0.950 . S
H1577 C1606 0.950 . S
H1578 C1608 0.950 . S
H1579 C1609 0.950 . S
C1580 H1562 0.951 . S
C1580 C1581 1.366 . S
C1580 C1582 1.388 . S
C1581 C1580 1.366 . S
C1581 C1585 1.385 . S
C1582 H1563 0.951 . S
C1582 C1580 1.388 . S
C1582 C1583 1.366 . S
C1583 C1582 1.366 . S
C1583 C1584 1.414 . S
C1583 C1586 1.499 . S
C1584 H1564 0.950 . S
C1584 C1583 1.414 . S
C1584 C1585 1.374 . S
C1585 H1565 0.950 . S
C1585 C1581 1.385 . S
C1585 C1584 1.374 . S
C1586 C1583 1.499 . S
C1586 C1587 1.373 . S
C1586 C1588 1.389 . S
C1587 H1566 0.950 . S
C1587 C1586 1.373 . S
C1587 C1603 1.377 . S
C1588 C1586 1.389 . S
C1588 C1589 1.524 . S
C1588 C1602 1.377 . S
C1589 C1588 1.524 . S
C1589 C1590 1.397 . S
C1589 C1594 1.363 . S
C1590 H1567 0.950 . S
C1590 C1589 1.397 . S
C1590 C1591 1.334 . S
C1591 H1568 0.950 . S
C1591 C1590 1.334 . S
C1591 C1592 1.287 . S
C1592 C1591 1.287 . S
C1592 C1593 1.524 1_655 S
C1592 H1611 0.913 1_655 S
C1593 H1569 0.950 . S
C1593 C1592 1.524 1_455 S
C1593 C1594 1.415 1_455 S
C1594 H1570 0.950 1_655 S
C1594 C1589 1.363 . S
C1594 C1593 1.415 1_655 S
C1595 H1571 0.951 . S
C1595 C1596 1.366 . S
C1595 C1597 1.388 . S
C1596 C1595 1.366 . S
C1596 C1600 1.385 . S
C1597 H1572 0.951 . S
C1597 C1595 1.388 . S
C1597 C1598 1.366 . S
C1598 C1597 1.366 . S
C1598 C1599 1.414 . S
C1598 C1601 1.499 . S
C1599 H1573 0.950 . S
C1599 C1598 1.414 . S
C1599 C1600 1.374 . S
C1600 H1574 0.950 1_655 S
C1600 C1596 1.385 . S
C1600 C1599 1.374 . S
C1601 C1598 1.499 . S
C1601 C1602 1.373 . S
C1601 C1603 1.389 . S
C1602 H1575 0.950 . S
C1602 C1588 1.377 . S
C1602 C1601 1.373 . S
C1603 C1587 1.377 . S
C1603 C1601 1.389 . S
C1603 C1604 1.524 . S
C1604 C1603 1.524 . S
C1604 C1605 1.397 . S
C1604 C1609 1.363 . S
C1605 H1576 0.950 . S
C1605 C1604 1.397 . S
C1605 C1606 1.334 . S
C1606 H1577 0.950 . S
C1606 C1605 1.334 . S
C1606 C1607 1.287 . S
C1607 C1606 1.287 . S
C1607 C1608 1.524 . S
C1607 H1610 0.999 . S
C1608 H1578 0.950 . S
C1608 C1607 1.524 . S
C1608 C1609 1.415 . S
C1609 H1579 0.950 . S
C1609 C1604 1.363 . S
C1609 C1608 1.415 . S
H1610 C1607 0.999 . S
H1611 C1592 0.913 1_455 S
H1612 C1630 0.951 . S
H1613 C1632 0.951 . S
H1614 C1634 0.950 . S
H1615 C1635 0.950 . S
H1616 C1637 0.950 . S
H1617 C1640 0.950 . S
H1618 C1641 0.950 . S
H1619 C1643 0.950 . S
H1620 C1644 0.950 . S
H1621 C1645 0.951 . S
H1622 C1647 0.951 . S
H1623 C1649 0.950 . S
H1624 C1650 0.950 . S
H1625 C1652 0.950 . S
H1626 C1655 0.950 . S
H1627 C1656 0.950 . S
H1628 C1658 0.950 . S
H1629 C1659 0.950 . S
C1630 H1612 0.951 . S
C1630 C1631 1.366 . S
C1630 C1632 1.388 . S
C1631 C1630 1.366 . S
C1631 C1635 1.385 . S
C1632 H1613 0.951 . S
C1632 C1630 1.388 . S
C1632 C1633 1.366 . S
C1633 C1632 1.366 . S
C1633 C1634 1.414 . S
C1633 C1636 1.499 . S
C1634 H1614 0.950 . S
C1634 C1633 1.414 . S
C1634 C1635 1.374 . S
C1635 H1615 0.950 . S
C1635 C1631 1.385 . S
C1635 C1634 1.374 . S
C1636 C1633 1.499 . S
C1636 C1637 1.373 . S
C1636 C1638 1.389 . S
C1637 H1616 0.950 . S
C1637 C1636 1.373 . S
C1637 C1653 1.377 . S
C1638 C1636 1.389 . S
C1638 C1639 1.524 . S
C1638 C1652 1.377 . S
C1639 C1638 1.524 . S
C1639 C1640 1.397 . S
C1639 C1644 1.363 . S
C1640 H1617 0.950 . S
C1640 C1639 1.397 . S
C1640 C1641 1.334 . S
C1641 H1618 0.950 . S
C1641 C1640 1.334 . S
C1641 C1642 1.287 . S
C1642 C1641 1.287 . S
C1642 C1643 1.524 . S
C1642 H1661 0.913 . S
C1643 H1619 0.950 . S
C1643 C1642 1.524 . S
C1643 C1644 1.415 . S
C1644 H1620 0.950 . S
C1644 C1639 1.363 . S
C1644 C1643 1.415 . S
C1645 H1621 0.951 . S
C1645 C1646 1.366 . S
C1645 C1647 1.388 . S
C1646 C1645 1.366 . S
C1646 C1650 1.385 . S
C1647 H1622 0.951 . S
C1647 C1645 1.388 . S
C1647 C1648 1.366 . S
C1648 C1647 1.366 . S
C1648 C1649 1.414 . S
C1648 C1651 1.499 . S
C1649 H1623 0.950 . S
C1649 C1648 1.414 . S
C1649 C1650 1.374 . S
C1650 H1624 0.950 . S
C1650 C1646 1.385 . S
C1650 C1649 1.374 . S
C1651 C1648 1.499 . S
C1651 C1652 1.373 . S
C1651 C1653 1.389 . S
C1652 H1625 0.950 . S
C1652 C1638 1.377 . S
C1652 C1651 1.373 . S
C1653 C1637 1.377 . S
C1653 C1651 1.389 . S
C1653 C1654 1.524 . S
C1654 C1653 1.524 . S
C1654 C1655 1.397 . S
C1654 C1659 1.363 . S
C1655 H1626 0.950 . S
C1655 C1654 1.397 . S
C1655 C1656 1.334 . S
C1656 H1627 0.950 . S
C1656 C1655 1.334 . S
C1656 C1657 1.287 . S
C1657 C1656 1.287 . S
C1657 C1658 1.524 . S
C1657 H1660 0.999 . S
C1658 H1628 0.950 . S
C1658 C1657 1.524 . S
C1658 C1659 1.415 . S
C1659 H1629 0.950 . S
C1659 C1654 1.363 . S
C1659 C1658 1.415 . S
H1660 C1657 0.999 . S
H1661 C1642 0.913 . S
H1662 C1680 0.951 . S
H1663 C1682 0.951 . S
H1664 C1684 0.950 . S
H1665 C1685 0.950 . S
H1666 C1687 0.950 . S
H1667 C1690 0.950 . S
H1668 C1691 0.950 . S
H1669 C1693 0.950 . S
H1670 C1694 0.950 . S
H1671 C1695 0.951 . S
H1672 C1697 0.951 . S
H1673 C1699 0.950 . S
H1674 C1700 0.950 . S
H1675 C1702 0.950 . S
H1676 C1705 0.950 . S
H1677 C1706 0.950 . S
H1678 C1708 0.950 . S
H1679 C1709 0.950 . S
C1680 H1662 0.951 . S
C1680 C1681 1.366 . S
C1680 C1682 1.388 . S
C1681 C1680 1.366 . S
C1681 C1685 1.385 . S
C1682 H1663 0.951 . S
C1682 C1680 1.388 . S
C1682 C1683 1.366 . S
C1683 C1682 1.366 . S
C1683 C1684 1.414 . S
C1683 C1686 1.499 . S
C1684 H1664 0.950 . S
C1684 C1683 1.414 . S
C1684 C1685 1.374 . S
C1685 H1665 0.950 . S
C1685 C1681 1.385 . S
C1685 C1684 1.374 . S
C1686 C1683 1.499 . S
C1686 C1687 1.373 . S
C1686 C1688 1.389 . S
C1687 H1666 0.950 . S
C1687 C1686 1.373 . S
C1687 C1703 1.377 . S
C1688 C1686 1.389 . S
C1688 C1689 1.524 . S
C1688 C1702 1.377 . S
C1689 C1688 1.524 . S
C1689 C1690 1.397 . S
C1689 C1694 1.363 . S
C1690 H1667 0.950 . S
C1690 C1689 1.397 . S
C1690 C1691 1.334 . S
C1691 H1668 0.950 . S
C1691 C1690 1.334 . S
C1691 C1692 1.287 . S
C1692 C1691 1.287 . S
C1692 C1693 1.524 . S
C1692 H1711 0.913 . S
C1693 H1669 0.950 . S
C1693 C1692 1.524 . S
C1693 C1694 1.415 . S
C1694 H1670 0.950 . S
C1694 C1689 1.363 . S
C1694 C1693 1.415 . S
C1695 H1671 0.951 . S
C1695 C1696 1.366 . S
C1695 C1697 1.388 . S
C1696 C1695 1.366 . S
C1696 C1700 1.385 . S
C1697 H1672 0.951 . S
C1697 C1695 1.388 . S
C1697 C1698 1.366 . S
C1698 C1697 1.366 . S
C1698 C1699 1.414 . S
C1698 C1701 1.499 . S
C1699 H1673 0.950 . S
C1699 C1698 1.414 . S
C1699 C1700 1.374 . S
C1700 H1674 0.950 . S
C1700 C1696 1.385 . S
C1700 C1699 1.374 . S
C1701 C1698 1.499 . S
C1701 C1702 1.373 . S
C1701 C1703 1.389 . S
C1702 H1675 0.950 . S
C1702 C1688 1.377 . S
C1702 C1701 1.373 . S
C1703 C1687 1.377 . S
C1703 C1701 1.389 . S
C1703 C1704 1.524 . S
C1704 C1703 1.524 . S
C1704 C1705 1.397 . S
C1704 C1709 1.363 . S
C1705 H1676 0.950 . S
C1705 C1704 1.397 . S
C1705 C1706 1.334 . S
C1706 H1677 0.950 . S
C1706 C1705 1.334 . S
C1706 C1707 1.287 . S
C1707 C1706 1.287 . S
C1707 C1708 1.524 . S
C1707 H1710 0.999 . S
C1708 H1678 0.950 . S
C1708 C1707 1.524 . S
C1708 C1709 1.415 . S
C1709 H1679 0.950 . S
C1709 C1704 1.363 . S
C1709 C1708 1.415 . S
H1710 C1707 0.999 . S
H1711 C1692 0.913 . S
H1712 C1730 0.951 . S
H1713 C1732 0.951 . S
H1714 C1734 0.950 . S
H1715 C1735 0.950 . S
H1716 C1737 0.950 . S
H1717 C1740 0.950 . S
H1718 C1741 0.950 . S
H1719 C1743 0.950 . S
H1720 C1744 0.950 . S
H1721 C1745 0.951 . S
H1722 C1747 0.951 . S
H1723 C1749 0.950 . S
H1724 C1750 0.950 . S
H1725 C1752 0.950 . S
H1726 C1755 0.950 . S
H1727 C1756 0.950 . S
H1728 C1758 0.950 . S
H1729 C1759 0.950 . S
C1730 H1712 0.951 . S
C1730 C1731 1.366 . S
C1730 C1732 1.388 . S
C1731 C1730 1.366 . S
C1731 C1735 1.385 . S
C1732 H1713 0.951 . S
C1732 C1730 1.388 . S
C1732 C1733 1.366 . S
C1733 C1732 1.366 . S
C1733 C1734 1.414 . S
C1733 C1736 1.499 . S
C1734 H1714 0.950 . S
C1734 C1733 1.414 . S
C1734 C1735 1.374 . S
C1735 H1715 0.950 . S
C1735 C1731 1.385 . S
C1735 C1734 1.374 . S
C1736 C1733 1.499 . S
C1736 C1737 1.373 . S
C1736 C1738 1.389 . S
C1737 H1716 0.950 . S
C1737 C1736 1.373 . S
C1737 C1753 1.377 . S
C1738 C1736 1.389 . S
C1738 C1739 1.524 . S
C1738 C1752 1.377 . S
C1739 C1738 1.524 . S
C1739 C1740 1.397 . S
C1739 C1744 1.363 . S
C1740 H1717 0.950 . S
C1740 C1739 1.397 . S
C1740 C1741 1.334 . S
C1741 H1718 0.950 . S
C1741 C1740 1.334 . S
C1741 C1742 1.287 . S
C1742 C1741 1.287 . S
C1742 C1743 1.524 . S
C1742 H1761 0.913 . S
C1743 H1719 0.950 . S
C1743 C1742 1.524 . S
C1743 C1744 1.415 . S
C1744 H1720 0.950 . S
C1744 C1739 1.363 . S
C1744 C1743 1.415 . S
C1745 H1721 0.951 . S
C1745 C1746 1.366 . S
C1745 C1747 1.388 . S
C1746 C1745 1.366 . S
C1746 C1750 1.385 . S
C1747 H1722 0.951 . S
C1747 C1745 1.388 . S
C1747 C1748 1.366 . S
C1748 C1747 1.366 . S
C1748 C1749 1.414 . S
C1748 C1751 1.499 . S
C1749 H1723 0.950 . S
C1749 C1748 1.414 . S
C1749 C1750 1.374 . S
C1750 H1724 0.950 . S
C1750 C1746 1.385 . S
C1750 C1749 1.374 . S
C1751 C1748 1.499 . S
C1751 C1752 1.373 . S
C1751 C1753 1.389 . S
C1752 H1725 0.950 . S
C1752 C1738 1.377 . S
C1752 C1751 1.373 . S
C1753 C1737 1.377 . S
C1753 C1751 1.389 . S
C1753 C1754 1.524 . S
C1754 C1753 1.524 . S
C1754 C1755 1.397 . S
C1754 C1759 1.363 . S
C1755 H1726 0.950 . S
C1755 C1754 1.397 . S
C1755 C1756 1.334 . S
C1756 H1727 0.950 . S
C1756 C1755 1.334 . S
C1756 C1757 1.287 . S
C1757 C1756 1.287 . S
C1757 C1758 1.524 . S
C1757 H1760 0.999 . S
C1758 H1728 0.950 . S
C1758 C1757 1.524 . S
C1758 C1759 1.415 . S
C1759 H1729 0.950 . S
C1759 C1754 1.363 . S
C1759 C1758 1.415 . S
H1760 C1757 0.999 . S
H1761 C1742 0.913 . S
H1762 C1780 0.951 . S
H1763 C1782 0.951 . S
H1764 C1784 0.950 . S
H1765 C1785 0.950 . S
H1766 C1787 0.950 . S
H1767 C1790 0.950 . S
H1768 C1791 0.950 . S
H1769 C1793 0.950 . S
H1770 C1794 0.950 . S
H1771 C1795 0.951 . S
H1772 C1797 0.951 . S
H1773 C1799 0.950 . S
H1774 C1800 0.950 . S
H1775 C1802 0.950 . S
H1776 C1805 0.950 . S
H1777 C1806 0.950 . S
H1778 C1808 0.950 . S
H1779 C1809 0.950 . S
C1780 H1762 0.951 . S
C1780 C1781 1.366 . S
C1780 C1782 1.388 . S
C1781 C1780 1.366 . S
C1781 C1785 1.385 . S
C1782 H1763 0.951 . S
C1782 C1780 1.388 . S
C1782 C1783 1.366 . S
C1783 C1782 1.366 . S
C1783 C1784 1.414 . S
C1783 C1786 1.499 . S
C1784 H1764 0.950 . S
C1784 C1783 1.414 . S
C1784 C1785 1.374 . S
C1785 H1765 0.950 . S
C1785 C1781 1.385 . S
C1785 C1784 1.374 . S
C1786 C1783 1.499 . S
C1786 C1787 1.373 . S
C1786 C1788 1.389 . S
C1787 H1766 0.950 . S
C1787 C1786 1.373 . S
C1787 C1803 1.377 . S
C1788 C1786 1.389 . S
C1788 C1789 1.524 . S
C1788 C1802 1.377 . S
C1789 C1788 1.524 . S
C1789 C1790 1.397 . S
C1789 C1794 1.363 . S
C1790 H1767 0.950 . S
C1790 C1789 1.397 . S
C1790 C1791 1.334 . S
C1791 H1768 0.950 . S
C1791 C1790 1.334 . S
C1791 C1792 1.287 . S
C1792 C1791 1.287 . S
C1792 C1793 1.524 . S
C1792 H1811 0.913 . S
C1793 H1769 0.950 . S
C1793 C1792 1.524 . S
C1793 C1794 1.415 . S
C1794 H1770 0.950 . S
C1794 C1789 1.363 . S
C1794 C1793 1.415 . S
C1795 H1771 0.951 . S
C1795 C1796 1.366 . S
C1795 C1797 1.388 . S
C1796 C1795 1.366 . S
C1796 C1800 1.385 . S
C1797 H1772 0.951 . S
C1797 C1795 1.388 . S
C1797 C1798 1.366 . S
C1798 C1797 1.366 . S
C1798 C1799 1.414 . S
C1798 C1801 1.499 . S
C1799 H1773 0.950 . S
C1799 C1798 1.414 . S
C1799 C1800 1.374 . S
C1800 H1774 0.950 . S
C1800 C1796 1.385 . S
C1800 C1799 1.374 . S
C1801 C1798 1.499 . S
C1801 C1802 1.373 . S
C1801 C1803 1.389 . S
C1802 H1775 0.950 . S
C1802 C1788 1.377 . S
C1802 C1801 1.373 . S
C1803 C1787 1.377 . S
C1803 C1801 1.389 . S
C1803 C1804 1.524 . S
C1804 C1803 1.524 . S
C1804 C1805 1.397 . S
C1804 C1809 1.363 . S
C1805 H1776 0.950 . S
C1805 C1804 1.397 . S
C1805 C1806 1.334 . S
C1806 H1777 0.950 . S
C1806 C1805 1.334 . S
C1806 C1807 1.287 . S
C1807 C1806 1.287 . S
C1807 C1808 1.524 . S
C1807 H1810 0.999 . S
C1808 H1778 0.950 . S
C1808 C1807 1.524 . S
C1808 C1809 1.415 . S
C1809 H1779 0.950 . S
C1809 C1804 1.363 . S
C1809 C1808 1.415 . S
H1810 C1807 0.999 . S
H1811 C1792 0.913 . S
H1812 C1830 0.951 . S
H1813 C1832 0.951 . S
H1814 C1834 0.950 . S
H1815 C1835 0.950 . S
H1816 C1837 0.950 . S
H1817 C1840 0.950 . S
H1818 C1841 0.950 . S
H1819 C1843 0.950 . S
H1820 C1844 0.950 . S
H1821 C1845 0.951 . S
H1822 C1847 0.951 . S
H1823 C1849 0.950 . S
H1824 C1850 0.950 . S
H1825 C1852 0.950 . S
H1826 C1855 0.950 . S
H1827 C1856 0.950 . S
H1828 C1858 0.950 . S
H1829 C1859 0.950 . S
C1830 H1812 0.951 . S
C1830 C1831 1.366 . S
C1830 C1832 1.388 . S
C1831 C1830 1.366 . S
C1831 C1835 1.385 . S
C1832 H1813 0.951 . S
C1832 C1830 1.388 . S
C1832 C1833 1.366 . S
C1833 C1832 1.366 . S
C1833 C1834 1.414 . S
C1833 C1836 1.499 . S
C1834 H1814 0.950 . S
C1834 C1833 1.414 . S
C1834 C1835 1.374 . S
C1835 H1815 0.950 . S
C1835 C1831 1.385 . S
C1835 C1834 1.374 . S
C1836 C1833 1.499 . S
C1836 C1837 1.373 . S
C1836 C1838 1.389 . S
C1837 H1816 0.950 . S
C1837 C1836 1.373 . S
C1837 C1853 1.377 . S
C1838 C1836 1.389 . S
C1838 C1839 1.524 . S
C1838 C1852 1.377 . S
C1839 C1838 1.524 . S
C1839 C1840 1.397 . S
C1839 C1844 1.363 . S
C1840 H1817 0.950 . S
C1840 C1839 1.397 . S
C1840 C1841 1.334 . S
C1841 H1818 0.950 . S
C1841 C1840 1.334 . S
C1841 C1842 1.287 . S
C1842 C1841 1.287 . S
C1842 C1843 1.524 . S
C1842 H1861 0.913 . S
C1843 H1819 0.950 . S
C1843 C1842 1.524 . S
C1843 C1844 1.415 . S
C1844 H1820 0.950 . S
C1844 C1839 1.363 . S
C1844 C1843 1.415 . S
C1845 H1821 0.951 . S
C1845 C1846 1.366 . S
C1845 C1847 1.388 . S
C1846 C1845 1.366 . S
C1846 C1850 1.385 . S
C1847 H1822 0.951 . S
C1847 C1845 1.388 . S
C1847 C1848 1.366 . S
C1848 C1847 1.366 . S
C1848 C1849 1.414 . S
C1848 C1851 1.499 . S
C1849 H1823 0.950 . S
C1849 C1848 1.414 . S
C1849 C1850 1.374 . S
C1850 H1824 0.950 . S
C1850 C1846 1.385 . S
C1850 C1849 1.374 . S
C1851 C1848 1.499 . S
C1851 C1852 1.373 . S
C1851 C1853 1.389 . S
C1852 H1825 0.950 . S
C1852 C1838 1.377 . S
C1852 C1851 1.373 . S
C1853 C1837 1.377 . S
C1853 C1851 1.389 . S
C1853 C1854 1.524 . S
C1854 C1853 1.524 . S
C1854 C1855 1.397 . S
C1854 C1859 1.363 . S
C1855 H1826 0.950 . S
C1855 C1854 1.397 . S
C1855 C1856 1.334 . S
C1856 H1827 0.950 . S
C1856 C1855 1.334 . S
C1856 C1857 1.287 . S
C1857 C1856 1.287 . S
C1857 C1858 1.524 . S
C1857 H1860 0.999 . S
C1858 H1828 0.950 . S
C1858 C1857 1.524 . S
C1858 C1859 1.415 . S
C1859 H1829 0.950 . S
C1859 C1854 1.363 . S
C1859 C1858 1.415 . S
H1860 C1857 0.999 . S
H1861 C1842 0.913 . S
H1862 C1880 0.951 . S
H1863 C1882 0.951 . S
H1864 C1884 0.950 . S
H1865 C1885 0.950 . S
H1866 C1887 0.950 . S
H1867 C1890 0.950 . S
H1868 C1891 0.950 . S
H1869 C1893 0.950 . S
H1870 C1894 0.950 . S
H1871 C1895 0.951 . S
H1872 C1897 0.951 . S
H1873 C1899 0.950 . S
H1874 C1900 0.950 1_554 S
H1875 C1902 0.950 . S
H1876 C1905 0.950 . S
H1877 C1906 0.950 . S
H1878 C1908 0.950 . S
H1879 C1909 0.950 . S
C1880 H1862 0.951 . S
C1880 C1881 1.366 . S
C1880 C1882 1.388 . S
C1881 C1880 1.366 . S
C1881 C1885 1.385 . S
C1882 H1863 0.951 . S
C1882 C1880 1.388 . S
C1882 C1883 1.366 . S
C1883 C1882 1.366 . S
C1883 C1884 1.414 . S
C1883 C1886 1.499 . S
C1884 H1864 0.950 . S
C1884 C1883 1.414 . S
C1884 C1885 1.374 . S
C1885 H1865 0.950 . S
C1885 C1881 1.385 . S
C1885 C1884 1.374 . S
C1886 C1883 1.499 . S
C1886 C1887 1.373 . S
C1886 C1888 1.389 . S
C1887 H1866 0.950 . S
C1887 C1886 1.373 . S
C1887 C1903 1.377 . S
C1888 C1886 1.389 . S
C1888 C1889 1.524 . S
C1888 C1902 1.377 . S
C1889 C1888 1.524 . S
C1889 C1890 1.397 . S
C1889 C1894 1.363 . S
C1890 H1867 0.950 . S
C1890 C1889 1.397 . S
C1890 C1891 1.334 . S
C1891 H1868 0.950 . S
C1891 C1890 1.334 . S
C1891 C1892 1.287 . S
C1892 C1891 1.287 . S
C1892 C1893 1.524 . S
C1892 H1911 0.913 . S
C1893 H1869 0.950 . S
C1893 C1892 1.524 . S
C1893 C1894 1.415 . S
C1894 H1870 0.950 . S
C1894 C1889 1.363 . S
C1894 C1893 1.415 . S
C1895 H1871 0.951 . S
C1895 C1896 1.366 . S
C1895 C1897 1.388 . S
C1896 C1895 1.366 . S
C1896 C1900 1.385 . S
C1897 H1872 0.951 . S
C1897 C1895 1.388 . S
C1897 C1898 1.366 . S
C1898 C1897 1.366 . S
C1898 C1899 1.414 . S
C1898 C1901 1.499 . S
C1899 H1873 0.950 . S
C1899 C1898 1.414 . S
C1899 C1900 1.374 . S
C1900 H1874 0.950 1_556 S
C1900 C1896 1.385 . S
C1900 C1899 1.374 . S
C1901 C1898 1.499 . S
C1901 C1902 1.373 . S
C1901 C1903 1.389 . S
C1902 H1875 0.950 . S
C1902 C1888 1.377 . S
C1902 C1901 1.373 . S
C1903 C1887 1.377 . S
C1903 C1901 1.389 . S
C1903 C1904 1.524 . S
C1904 C1903 1.524 . S
C1904 C1905 1.397 . S
C1904 C1909 1.363 . S
C1905 H1876 0.950 . S
C1905 C1904 1.397 . S
C1905 C1906 1.334 . S
C1906 H1877 0.950 . S
C1906 C1905 1.334 . S
C1906 C1907 1.287 . S
C1907 C1906 1.287 . S
C1907 C1908 1.524 . S
C1907 H1910 0.999 . S
C1908 H1878 0.950 . S
C1908 C1907 1.524 . S
C1908 C1909 1.415 . S
C1909 H1879 0.950 . S
C1909 C1904 1.363 . S
C1909 C1908 1.415 . S
H1910 C1907 0.999 . S
H1911 C1892 0.913 . S
H1912 C1930 0.951 . S
H1913 C1932 0.951 . S
H1914 C1934 0.950 . S
H1915 C1935 0.950 . S
H1916 C1937 0.950 . S
H1917 C1940 0.950 . S
H1918 C1941 0.950 . S
H1919 C1943 0.950 . S
H1920 C1944 0.950 . S
H1921 C1945 0.951 . S
H1922 C1947 0.951 . S
H1923 C1949 0.950 . S
H1924 C1950 0.950 . S
H1925 C1952 0.950 . S
H1926 C1955 0.950 . S
H1927 C1956 0.950 . S
H1928 C1958 0.950 . S
H1929 C1959 0.950 . S
C1930 H1912 0.951 . S
C1930 C1931 1.366 . S
C1930 C1932 1.388 . S
C1931 C1930 1.366 . S
C1931 C1935 1.385 . S
C1932 H1913 0.951 . S
C1932 C1930 1.388 . S
C1932 C1933 1.366 . S
C1933 C1932 1.366 . S
C1933 C1934 1.414 . S
C1933 C1936 1.499 . S
C1934 H1914 0.950 . S
C1934 C1933 1.414 . S
C1934 C1935 1.374 . S
C1935 H1915 0.950 . S
C1935 C1931 1.385 . S
C1935 C1934 1.374 . S
C1936 C1933 1.499 . S
C1936 C1937 1.373 . S
C1936 C1938 1.389 . S
C1937 H1916 0.950 . S
C1937 C1936 1.373 . S
C1937 C1953 1.377 . S
C1938 C1936 1.389 . S
C1938 C1939 1.524 . S
C1938 C1952 1.377 . S
C1939 C1938 1.524 . S
C1939 C1940 1.397 . S
C1939 C1944 1.363 . S
C1940 H1917 0.950 . S
C1940 C1939 1.397 . S
C1940 C1941 1.334 . S
C1941 H1918 0.950 . S
C1941 C1940 1.334 . S
C1941 C1942 1.287 . S
C1942 C1941 1.287 . S
C1942 C1943 1.524 . S
C1942 H1961 0.913 . S
C1943 H1919 0.950 . S
C1943 C1942 1.524 . S
C1943 C1944 1.415 . S
C1944 H1920 0.950 . S
C1944 C1939 1.363 . S
C1944 C1943 1.415 . S
C1945 H1921 0.951 . S
C1945 C1946 1.366 . S
C1945 C1947 1.388 . S
C1946 C1945 1.366 . S
C1946 C1950 1.385 . S
C1947 H1922 0.951 . S
C1947 C1945 1.388 . S
C1947 C1948 1.366 . S
C1948 C1947 1.366 . S
C1948 C1949 1.414 . S
C1948 C1951 1.499 . S
C1949 H1923 0.950 . S
C1949 C1948 1.414 . S
C1949 C1950 1.374 . S
C1950 H1924 0.950 . S
C1950 C1946 1.385 . S
C1950 C1949 1.374 . S
C1951 C1948 1.499 . S
C1951 C1952 1.373 . S
C1951 C1953 1.389 . S
C1952 H1925 0.950 . S
C1952 C1938 1.377 . S
C1952 C1951 1.373 . S
C1953 C1937 1.377 . S
C1953 C1951 1.389 . S
C1953 C1954 1.524 . S
C1954 C1953 1.524 . S
C1954 C1955 1.397 . S
C1954 C1959 1.363 . S
C1955 H1926 0.950 . S
C1955 C1954 1.397 . S
C1955 C1956 1.334 . S
C1956 H1927 0.950 . S
C1956 C1955 1.334 . S
C1956 C1957 1.287 . S
C1957 C1956 1.287 . S
C1957 C1958 1.524 . S
C1957 H1960 0.999 . S
C1958 H1928 0.950 . S
C1958 C1957 1.524 . S
C1958 C1959 1.415 . S
C1959 H1929 0.950 . S
C1959 C1954 1.363 . S
C1959 C1958 1.415 . S
H1960 C1957 0.999 . S
H1961 C1942 0.913 . S
H1962 C1980 0.951 . S
H1963 C1982 0.951 . S
H1964 C1984 0.950 . S
H1965 C1985 0.950 . S
H1966 C1987 0.950 . S
H1967 C1990 0.950 . S
H1968 C1991 0.950 . S
H1969 C1993 0.950 . S
H1970 C1994 0.950 . S
H1971 C1995 0.951 . S
H1972 C1997 0.951 . S
H1973 C1999 0.950 . S
H1974 C2000 0.950 . S
H1975 C2002 0.950 . S
H1976 C2005 0.950 . S
H1977 C2006 0.950 . S
H1978 C2008 0.950 . S
H1979 C2009 0.950 . S
C1980 H1962 0.951 . S
C1980 C1981 1.366 . S
C1980 C1982 1.388 . S
C1981 C1980 1.366 . S
C1981 C1985 1.385 . S
C1982 H1963 0.951 . S
C1982 C1980 1.388 . S
C1982 C1983 1.366 . S
C1983 C1982 1.366 . S
C1983 C1984 1.414 . S
C1983 C1986 1.499 . S
C1984 H1964 0.950 . S
C1984 C1983 1.414 . S
C1984 C1985 1.374 . S
C1985 H1965 0.950 . S
C1985 C1981 1.385 . S
C1985 C1984 1.374 . S
C1986 C1983 1.499 . S
C1986 C1987 1.373 . S
C1986 C1988 1.389 . S
C1987 H1966 0.950 . S
C1987 C1986 1.373 . S
C1987 C2003 1.377 . S
C1988 C1986 1.389 . S
C1988 C1989 1.524 . S
C1988 C2002 1.377 . S
C1989 C1988 1.524 . S
C1989 C1990 1.397 . S
C1989 C1994 1.363 . S
C1990 H1967 0.950 . S
C1990 C1989 1.397 . S
C1990 C1991 1.334 . S
C1991 H1968 0.950 . S
C1991 C1990 1.334 . S
C1991 C1992 1.287 . S
C1992 C1991 1.287 . S
C1992 C1993 1.524 . S
C1992 H2011 0.913 . S
C1993 H1969 0.950 . S
C1993 C1992 1.524 . S
C1993 C1994 1.415 . S
C1994 H1970 0.950 . S
C1994 C1989 1.363 . S
C1994 C1993 1.415 . S
C1995 H1971 0.951 . S
C1995 C1996 1.366 . S
C1995 C1997 1.388 . S
C1996 C1995 1.366 . S
C1996 C2000 1.385 . S
C1997 H1972 0.951 . S
C1997 C1995 1.388 . S
C1997 C1998 1.366 . S
C1998 C1997 1.366 . S
C1998 C1999 1.414 . S
C1998 C2001 1.499 . S
C1999 H1973 0.950 . S
C1999 C1998 1.414 . S
C1999 C2000 1.374 . S
C2000 H1974 0.950 . S
C2000 C1996 1.385 . S
C2000 C1999 1.374 . S
C2001 C1998 1.499 . S
C2001 C2002 1.373 . S
C2001 C2003 1.389 . S
C2002 H1975 0.950 . S
C2002 C1988 1.377 . S
C2002 C2001 1.373 . S
C2003 C1987 1.377 . S
C2003 C2001 1.389 . S
C2003 C2004 1.524 . S
C2004 C2003 1.524 . S
C2004 C2005 1.397 . S
C2004 C2009 1.363 . S
C2005 H1976 0.950 . S
C2005 C2004 1.397 . S
C2005 C2006 1.334 . S
C2006 H1977 0.950 . S
C2006 C2005 1.334 . S
C2006 C2007 1.287 . S
C2007 C2006 1.287 . S
C2007 C2008 1.524 . S
C2007 H2010 0.999 . S
C2008 H1978 0.950 . S
C2008 C2007 1.524 . S
C2008 C2009 1.415 . S
C2009 H1979 0.950 . S
C2009 C2004 1.363 . S
C2009 C2008 1.415 . S
H2010 C2007 0.999 . S
H2011 C1992 0.913 . S
H2012 C2030 0.951 . S
H2013 C2032 0.951 . S
H2014 C2034 0.950 . S
H2015 C2035 0.950 . S
H2016 C2037 0.950 . S
H2017 C2040 0.950 . S
H2018 C2041 0.950 . S
H2019 C2043 0.950 . S
H2020 C2044 0.950 . S
H2021 C2045 0.951 . S
H2022 C2047 0.951 . S
H2023 C2049 0.950 . S
H2024 C2050 0.950 . S
H2025 C2052 0.950 . S
H2026 C2055 0.950 . S
H2027 C2056 0.950 . S
H2028 C2058 0.950 . S
H2029 C2059 0.950 . S
C2030 H2012 0.951 . S
C2030 C2031 1.366 . S
C2030 C2032 1.388 . S
C2031 C2030 1.366 . S
C2031 C2035 1.385 . S
C2032 H2013 0.951 . S
C2032 C2030 1.388 . S
C2032 C2033 1.366 . S
C2033 C2032 1.366 . S
C2033 C2034 1.414 . S
C2033 C2036 1.499 . S
C2034 H2014 0.950 . S
C2034 C2033 1.414 . S
C2034 C2035 1.374 . S
C2035 H2015 0.950 . S
C2035 C2031 1.385 . S
C2035 C2034 1.374 . S
C2036 C2033 1.499 . S
C2036 C2037 1.373 . S
C2036 C2038 1.389 . S
C2037 H2016 0.950 . S
C2037 C2036 1.373 . S
C2037 C2053 1.377 . S
C2038 C2036 1.389 . S
C2038 C2039 1.524 . S
C2038 C2052 1.377 . S
C2039 C2038 1.524 . S
C2039 C2040 1.397 . S
C2039 C2044 1.363 . S
C2040 H2017 0.950 . S
C2040 C2039 1.397 . S
C2040 C2041 1.334 . S
C2041 H2018 0.950 . S
C2041 C2040 1.334 . S
C2041 C2042 1.287 . S
C2042 C2041 1.287 . S
C2042 C2043 1.524 . S
C2042 H2061 0.913 . S
C2043 H2019 0.950 . S
C2043 C2042 1.524 . S
C2043 C2044 1.415 . S
C2044 H2020 0.950 . S
C2044 C2039 1.363 . S
C2044 C2043 1.415 . S
C2045 H2021 0.951 . S
C2045 C2046 1.366 . S
C2045 C2047 1.388 . S
C2046 C2045 1.366 . S
C2046 C2050 1.385 . S
C2047 H2022 0.951 . S
C2047 C2045 1.388 . S
C2047 C2048 1.366 . S
C2048 C2047 1.366 . S
C2048 C2049 1.414 . S
C2048 C2051 1.499 . S
C2049 H2023 0.950 . S
C2049 C2048 1.414 . S
C2049 C2050 1.374 . S
C2050 H2024 0.950 . S
C2050 C2046 1.385 . S
C2050 C2049 1.374 . S
C2051 C2048 1.499 . S
C2051 C2052 1.373 . S
C2051 C2053 1.389 . S
C2052 H2025 0.950 . S
C2052 C2038 1.377 . S
C2052 C2051 1.373 . S
C2053 C2037 1.377 . S
C2053 C2051 1.389 . S
C2053 C2054 1.524 . S
C2054 C2053 1.524 . S
C2054 C2055 1.397 . S
C2054 C2059 1.363 . S
C2055 H2026 0.950 . S
C2055 C2054 1.397 . S
C2055 C2056 1.334 . S
C2056 H2027 0.950 . S
C2056 C2055 1.334 . S
C2056 C2057 1.287 . S
C2057 C2056 1.287 . S
C2057 C2058 1.524 . S
C2057 H2060 0.999 . S
C2058 H2028 0.950 . S
C2058 C2057 1.524 . S
C2058 C2059 1.415 . S
C2059 H2029 0.950 . S
C2059 C2054 1.363 . S
C2059 C2058 1.415 . S
H2060 C2057 0.999 . S
H2061 C2042 0.913 . S
H2062 C2080 0.951 . S
H2063 C2082 0.951 . S
H2064 C2084 0.950 . S
H2065 C2085 0.950 . S
H2066 C2087 0.950 . S
H2067 C2090 0.950 . S
H2068 C2091 0.950 . S
H2069 C2093 0.950 . S
H2070 C2094 0.950 . S
H2071 C2095 0.951 . S
H2072 C2097 0.951 . S
H2073 C2099 0.950 . S
H2074 C2100 0.950 . S
H2075 C2102 0.950 . S
H2076 C2105 0.950 . S
H2077 C2106 0.950 . S
H2078 C2108 0.950 . S
H2079 C2109 0.950 . S
C2080 H2062 0.951 . S
C2080 C2081 1.366 . S
C2080 C2082 1.388 . S
C2081 C2080 1.366 . S
C2081 C2085 1.385 . S
C2082 H2063 0.951 . S
C2082 C2080 1.388 . S
C2082 C2083 1.366 . S
C2083 C2082 1.366 . S
C2083 C2084 1.414 . S
C2083 C2086 1.499 . S
C2084 H2064 0.950 . S
C2084 C2083 1.414 . S
C2084 C2085 1.374 . S
C2085 H2065 0.950 . S
C2085 C2081 1.385 . S
C2085 C2084 1.374 . S
C2086 C2083 1.499 . S
C2086 C2087 1.373 . S
C2086 C2088 1.389 . S
C2087 H2066 0.950 . S
C2087 C2086 1.373 . S
C2087 C2103 1.377 . S
C2088 C2086 1.389 . S
C2088 C2089 1.524 . S
C2088 C2102 1.377 . S
C2089 C2088 1.524 . S
C2089 C2090 1.397 . S
C2089 C2094 1.363 . S
C2090 H2067 0.950 . S
C2090 C2089 1.397 . S
C2090 C2091 1.334 . S
C2091 H2068 0.950 . S
C2091 C2090 1.334 . S
C2091 C2092 1.287 . S
C2092 C2091 1.287 . S
C2092 C2093 1.524 . S
C2092 H2111 0.913 . S
C2093 H2069 0.950 . S
C2093 C2092 1.524 . S
C2093 C2094 1.415 . S
C2094 H2070 0.950 . S
C2094 C2089 1.363 . S
C2094 C2093 1.415 . S
C2095 H2071 0.951 . S
C2095 C2096 1.366 . S
C2095 C2097 1.388 . S
C2096 C2095 1.366 . S
C2096 C2100 1.385 . S
C2097 H2072 0.951 . S
C2097 C2095 1.388 . S
C2097 C2098 1.366 . S
C2098 C2097 1.366 . S
C2098 C2099 1.414 . S
C2098 C2101 1.499 . S
C2099 H2073 0.950 . S
C2099 C2098 1.414 . S
C2099 C2100 1.374 . S
C2100 H2074 0.950 . S
C2100 C2096 1.385 . S
C2100 C2099 1.374 . S
C2101 C2098 1.499 . S
C2101 C2102 1.373 . S
C2101 C2103 1.389 . S
C2102 H2075 0.950 . S
C2102 C2088 1.377 . S
C2102 C2101 1.373 . S
C2103 C2087 1.377 . S
C2103 C2101 1.389 . S
C2103 C2104 1.524 . S
C2104 C2103 1.524 . S
C2104 C2105 1.397 . S
C2104 C2109 1.363 . S
C2105 H2076 0.950 . S
C2105 C2104 1.397 . S
C2105 C2106 1.334 . S
C2106 H2077 0.950 . S
C2106 C2105 1.334 . S
C2106 C2107 1.287 . S
C2107 C2106 1.287 . S
C2107 C2108 1.524 . S
C2107 H2110 0.999 . S
C2108 H2078 0.950 . S
C2108 C2107 1.524 . S
C2108 C2109 1.415 . S
C2109 H2079 0.950 . S
C2109 C2104 1.363 . S
C2109 C2108 1.415 . S
H2110 C2107 0.999 . S
H2111 C2092 0.913 . S
H2112 C2130 0.951 . S
H2113 C2132 0.951 . S
H2114 C2134 0.950 . S
H2115 C2135 0.950 . S
H2116 C2137 0.950 . S
H2117 C2140 0.950 . S
H2118 C2141 0.950 . S
H2119 C2143 0.950 . S
H2120 C2144 0.950 . S
H2121 C2145 0.951 . S
H2122 C2147 0.951 . S
H2123 C2149 0.950 . S
H2124 C2150 0.950 . S
H2125 C2152 0.950 . S
H2126 C2155 0.950 . S
H2127 C2156 0.950 . S
H2128 C2158 0.950 . S
H2129 C2159 0.950 . S
C2130 H2112 0.951 . S
C2130 C2131 1.366 . S
C2130 C2132 1.388 . S
C2131 C2130 1.366 . S
C2131 C2135 1.385 . S
C2132 H2113 0.951 . S
C2132 C2130 1.388 . S
C2132 C2133 1.366 . S
C2133 C2132 1.366 . S
C2133 C2134 1.414 . S
C2133 C2136 1.499 . S
C2134 H2114 0.950 . S
C2134 C2133 1.414 . S
C2134 C2135 1.374 . S
C2135 H2115 0.950 . S
C2135 C2131 1.385 . S
C2135 C2134 1.374 . S
C2136 C2133 1.499 . S
C2136 C2137 1.373 . S
C2136 C2138 1.389 . S
C2137 H2116 0.950 . S
C2137 C2136 1.373 . S
C2137 C2153 1.377 . S
C2138 C2136 1.389 . S
C2138 C2139 1.524 . S
C2138 C2152 1.377 . S
C2139 C2138 1.524 . S
C2139 C2140 1.397 . S
C2139 C2144 1.363 . S
C2140 H2117 0.950 . S
C2140 C2139 1.397 . S
C2140 C2141 1.334 . S
C2141 H2118 0.950 . S
C2141 C2140 1.334 . S
C2141 C2142 1.287 . S
C2142 C2141 1.287 . S
C2142 C2143 1.524 . S
C2142 H2161 0.913 . S
C2143 H2119 0.950 . S
C2143 C2142 1.524 . S
C2143 C2144 1.415 . S
C2144 H2120 0.950 . S
C2144 C2139 1.363 . S
C2144 C2143 1.415 . S
C2145 H2121 0.951 . S
C2145 C2146 1.366 . S
C2145 C2147 1.388 . S
C2146 C2145 1.366 . S
C2146 C2150 1.385 . S
C2147 H2122 0.951 . S
C2147 C2145 1.388 . S
C2147 C2148 1.366 . S
C2148 C2147 1.366 . S
C2148 C2149 1.414 . S
C2148 C2151 1.499 . S
C2149 H2123 0.950 . S
C2149 C2148 1.414 . S
C2149 C2150 1.374 . S
C2150 H2124 0.950 . S
C2150 C2146 1.385 . S
C2150 C2149 1.374 . S
C2151 C2148 1.499 . S
C2151 C2152 1.373 . S
C2151 C2153 1.389 . S
C2152 H2125 0.950 . S
C2152 C2138 1.377 . S
C2152 C2151 1.373 . S
C2153 C2137 1.377 . S
C2153 C2151 1.389 . S
C2153 C2154 1.524 . S
C2154 C2153 1.524 . S
C2154 C2155 1.397 . S
C2154 C2159 1.363 . S
C2155 H2126 0.950 . S
C2155 C2154 1.397 . S
C2155 C2156 1.334 . S
C2156 H2127 0.950 . S
C2156 C2155 1.334 . S
C2156 C2157 1.287 . S
C2157 C2156 1.287 . S
C2157 C2158 1.524 . S
C2157 H2160 0.999 . S
C2158 H2128 0.950 . S
C2158 C2157 1.524 . S
C2158 C2159 1.415 . S
C2159 H2129 0.950 . S
C2159 C2154 1.363 . S
C2159 C2158 1.415 . S
H2160 C2157 0.999 . S
H2161 C2142 0.913 . S
H2162 C2180 0.951 . S
H2163 C2182 0.951 . S
H2164 C2184 0.950 . S
H2165 C2185 0.950 . S
H2166 C2187 0.950 . S
H2167 C2190 0.950 . S
H2168 C2191 0.950 . S
H2169 C2193 0.950 . S
H2170 C2194 0.950 . S
H2171 C2195 0.951 . S
H2172 C2197 0.951 . S
H2173 C2199 0.950 . S
H2174 C2200 0.950 . S
H2175 C2202 0.950 . S
H2176 C2205 0.950 . S
H2177 C2206 0.950 . S
H2178 C2208 0.950 . S
H2179 C2209 0.950 . S
C2180 H2162 0.951 . S
C2180 C2181 1.366 . S
C2180 C2182 1.388 . S
C2181 C2180 1.366 . S
C2181 C2185 1.385 . S
C2182 H2163 0.951 . S
C2182 C2180 1.388 . S
C2182 C2183 1.366 . S
C2183 C2182 1.366 . S
C2183 C2184 1.414 . S
C2183 C2186 1.499 . S
C2184 H2164 0.950 . S
C2184 C2183 1.414 . S
C2184 C2185 1.374 . S
C2185 H2165 0.950 . S
C2185 C2181 1.385 . S
C2185 C2184 1.374 . S
C2186 C2183 1.499 . S
C2186 C2187 1.373 . S
C2186 C2188 1.389 . S
C2187 H2166 0.950 . S
C2187 C2186 1.373 . S
C2187 C2203 1.377 . S
C2188 C2186 1.389 . S
C2188 C2189 1.524 . S
C2188 C2202 1.377 . S
C2189 C2188 1.524 . S
C2189 C2190 1.397 . S
C2189 C2194 1.363 . S
C2190 H2167 0.950 . S
C2190 C2189 1.397 . S
C2190 C2191 1.334 . S
C2191 H2168 0.950 . S
C2191 C2190 1.334 . S
C2191 C2192 1.287 . S
C2192 C2191 1.287 . S
C2192 C2193 1.524 . S
C2192 H2211 0.913 . S
C2193 H2169 0.950 . S
C2193 C2192 1.524 . S
C2193 C2194 1.415 . S
C2194 H2170 0.950 . S
C2194 C2189 1.363 . S
C2194 C2193 1.415 . S
C2195 H2171 0.951 . S
C2195 C2196 1.366 . S
C2195 C2197 1.388 . S
C2196 C2195 1.366 . S
C2196 C2200 1.385 . S
C2197 H2172 0.951 . S
C2197 C2195 1.388 . S
C2197 C2198 1.366 . S
C2198 C2197 1.366 . S
C2198 C2199 1.414 . S
C2198 C2201 1.499 . S
C2199 H2173 0.950 . S
C2199 C2198 1.414 . S
C2199 C2200 1.374 . S
C2200 H2174 0.950 . S
C2200 C2196 1.385 . S
C2200 C2199 1.374 . S
C2201 C2198 1.499 . S
C2201 C2202 1.373 . S
C2201 C2203 1.389 . S
C2202 H2175 0.950 . S
C2202 C2188 1.377 . S
C2202 C2201 1.373 . S
C2203 C2187 1.377 . S
C2203 C2201 1.389 . S
C2203 C2204 1.524 . S
C2204 C2203 1.524 . S
C2204 C2205 1.397 . S
C2204 C2209 1.363 . S
C2205 H2176 0.950 . S
C2205 C2204 1.397 . S
C2205 C2206 1.334 . S
C2206 H2177 0.950 . S
C2206 C2205 1.334 . S
C2206 C2207 1.287 . S
C2207 C2206 1.287 . S
C2207 C2208 1.524 . S
C2207 H2210 0.999 . S
C2208 H2178 0.950 . S
C2208 C2207 1.524 . S
C2208 C2209 1.415 . S
C2209 H2179 0.950 . S
C2209 C2204 1.363 . S
C2209 C2208 1.415 . S
H2210 C2207 0.999 . S
H2211 C2192 0.913 . S
H2212 C2230 0.951 . S
H2213 C2232 0.951 . S
H2214 C2234 0.950 . S
H2215 C2235 0.950 . S
H2216 C2237 0.950 . S
H2217 C2240 0.950 . S
H2218 C2241 0.950 . S
H2219 C2243 0.950 . S
H2220 C2244 0.950 . S
H2221 C2245 0.951 . S
H2222 C2247 0.951 . S
H2223 C2249 0.950 . S
H2224 C2250 0.950 . S
H2225 C2252 0.950 . S
H2226 C2255 0.950 . S
H2227 C2256 0.950 . S
H2228 C2258 0.950 . S
H2229 C2259 0.950 . S
C2230 H2212 0.951 . S
C2230 C2231 1.366 . S
C2230 C2232 1.388 . S
C2231 C2230 1.366 . S
C2231 C2235 1.385 . S
C2232 H2213 0.951 . S
C2232 C2230 1.388 . S
C2232 C2233 1.366 . S
C2233 C2232 1.366 . S
C2233 C2234 1.414 . S
C2233 C2236 1.499 . S
C2234 H2214 0.950 . S
C2234 C2233 1.414 . S
C2234 C2235 1.374 . S
C2235 H2215 0.950 . S
C2235 C2231 1.385 . S
C2235 C2234 1.374 . S
C2236 C2233 1.499 . S
C2236 C2237 1.373 . S
C2236 C2238 1.389 . S
C2237 H2216 0.950 . S
C2237 C2236 1.373 . S
C2237 C2253 1.377 . S
C2238 C2236 1.389 . S
C2238 C2239 1.524 . S
C2238 C2252 1.377 . S
C2239 C2238 1.524 . S
C2239 C2240 1.397 . S
C2239 C2244 1.363 . S
C2240 H2217 0.950 . S
C2240 C2239 1.397 . S
C2240 C2241 1.334 . S
C2241 H2218 0.950 . S
C2241 C2240 1.334 . S
C2241 C2242 1.287 . S
C2242 C2241 1.287 . S
C2242 C2243 1.524 . S
C2242 H2261 0.913 . S
C2243 H2219 0.950 . S
C2243 C2242 1.524 . S
C2243 C2244 1.415 . S
C2244 H2220 0.950 . S
C2244 C2239 1.363 . S
C2244 C2243 1.415 . S
C2245 H2221 0.951 . S
C2245 C2246 1.366 . S
C2245 C2247 1.388 . S
C2246 C2245 1.366 . S
C2246 C2250 1.385 . S
C2247 H2222 0.951 . S
C2247 C2245 1.388 . S
C2247 C2248 1.366 . S
C2248 C2247 1.366 . S
C2248 C2249 1.414 . S
C2248 C2251 1.499 . S
C2249 H2223 0.950 . S
C2249 C2248 1.414 . S
C2249 C2250 1.374 . S
C2250 H2224 0.950 . S
C2250 C2246 1.385 . S
C2250 C2249 1.374 . S
C2251 C2248 1.499 . S
C2251 C2252 1.373 . S
C2251 C2253 1.389 . S
C2252 H2225 0.950 . S
C2252 C2238 1.377 . S
C2252 C2251 1.373 . S
C2253 C2237 1.377 . S
C2253 C2251 1.389 . S
C2253 C2254 1.524 . S
C2254 C2253 1.524 . S
C2254 C2255 1.397 . S
C2254 C2259 1.363 . S
C2255 H2226 0.950 . S
C2255 C2254 1.397 . S
C2255 C2256 1.334 . S
C2256 H2227 0.950 . S
C2256 C2255 1.334 . S
C2256 C2257 1.287 . S
C2257 C2256 1.287 . S
C2257 C2258 1.524 . S
C2257 H2260 0.999 . S
C2258 H2228 0.950 . S
C2258 C2257 1.524 . S
C2258 C2259 1.415 . S
C2259 H2229 0.950 . S
C2259 C2254 1.363 . S
C2259 C2258 1.415 . S
H2260 C2257 0.999 . S
H2261 C2242 0.913 . S
H2262 C2280 0.951 . S
H2263 C2282 0.951 . S
H2264 C2284 0.950 . S
H2265 C2285 0.950 . S
H2266 C2287 0.950 . S
H2267 C2290 0.950 . S
H2268 C2291 0.950 . S
H2269 C2293 0.950 . S
H2270 C2294 0.950 . S
H2271 C2295 0.951 . S
H2272 C2297 0.951 . S
H2273 C2299 0.950 . S
H2274 C2300 0.950 . S
H2275 C2302 0.950 . S
H2276 C2305 0.950 . S
H2277 C2306 0.950 . S
H2278 C2308 0.950 . S
H2279 C2309 0.950 . S
C2280 H2262 0.951 . S
C2280 C2281 1.366 . S
C2280 C2282 1.388 . S
C2281 C2280 1.366 . S
C2281 C2285 1.385 . S
C2282 H2263 0.951 . S
C2282 C2280 1.388 . S
C2282 C2283 1.366 . S
C2283 C2282 1.366 . S
C2283 C2284 1.414 . S
C2283 C2286 1.499 . S
C2284 H2264 0.950 . S
C2284 C2283 1.414 . S
C2284 C2285 1.374 . S
C2285 H2265 0.950 . S
C2285 C2281 1.385 . S
C2285 C2284 1.374 . S
C2286 C2283 1.499 . S
C2286 C2287 1.373 . S
C2286 C2288 1.389 . S
C2287 H2266 0.950 . S
C2287 C2286 1.373 . S
C2287 C2303 1.377 . S
C2288 C2286 1.389 . S
C2288 C2289 1.524 . S
C2288 C2302 1.377 . S
C2289 C2288 1.524 . S
C2289 C2290 1.397 . S
C2289 C2294 1.363 . S
C2290 H2267 0.950 . S
C2290 C2289 1.397 . S
C2290 C2291 1.334 . S
C2291 H2268 0.950 . S
C2291 C2290 1.334 . S
C2291 C2292 1.287 . S
C2292 C2291 1.287 . S
C2292 C2293 1.524 . S
C2292 H2311 0.913 . S
C2293 H2269 0.950 . S
C2293 C2292 1.524 . S
C2293 C2294 1.415 . S
C2294 H2270 0.950 . S
C2294 C2289 1.363 . S
C2294 C2293 1.415 . S
C2295 H2271 0.951 . S
C2295 C2296 1.366 . S
C2295 C2297 1.388 . S
C2296 C2295 1.366 . S
C2296 C2300 1.385 . S
C2297 H2272 0.951 . S
C2297 C2295 1.388 . S
C2297 C2298 1.366 . S
C2298 C2297 1.366 . S
C2298 C2299 1.414 . S
C2298 C2301 1.499 . S
C2299 H2273 0.950 . S
C2299 C2298 1.414 . S
C2299 C2300 1.374 . S
C2300 H2274 0.950 . S
C2300 C2296 1.385 . S
C2300 C2299 1.374 . S
C2301 C2298 1.499 . S
C2301 C2302 1.373 . S
C2301 C2303 1.389 . S
C2302 H2275 0.950 . S
C2302 C2288 1.377 . S
C2302 C2301 1.373 . S
C2303 C2287 1.377 . S
C2303 C2301 1.389 . S
C2303 C2304 1.524 . S
C2304 C2303 1.524 . S
C2304 C2305 1.397 . S
C2304 C2309 1.363 . S
C2305 H2276 0.950 . S
C2305 C2304 1.397 . S
C2305 C2306 1.334 . S
C2306 H2277 0.950 . S
C2306 C2305 1.334 . S
C2306 C2307 1.287 . S
C2307 C2306 1.287 . S
C2307 C2308 1.524 . S
C2307 H2310 0.999 . S
C2308 H2278 0.950 . S
C2308 C2307 1.524 . S
C2308 C2309 1.415 . S
C2309 H2279 0.950 . S
C2309 C2304 1.363 . S
C2309 C2308 1.415 . S
H2310 C2307 0.999 . S
H2311 C2292 0.913 . S
H2312 C2330 0.951 . S
H2313 C2332 0.951 . S
H2314 C2334 0.950 . S
H2315 C2335 0.950 . S
H2316 C2337 0.950 . S
H2317 C2340 0.950 . S
H2318 C2341 0.950 . S
H2319 C2343 0.950 . S
H2320 C2344 0.950 . S
H2321 C2345 0.951 . S
H2322 C2347 0.951 . S
H2323 C2349 0.950 . S
H2324 C2350 0.950 . S
H2325 C2352 0.950 . S
H2326 C2355 0.950 . S
H2327 C2356 0.950 . S
H2328 C2358 0.950 . S
H2329 C2359 0.950 . S
C2330 H2312 0.951 . S
C2330 C2331 1.366 . S
C2330 C2332 1.388 . S
C2331 C2330 1.366 . S
C2331 C2335 1.385 . S
C2332 H2313 0.951 . S
C2332 C2330 1.388 . S
C2332 C2333 1.366 . S
C2333 C2332 1.366 . S
C2333 C2334 1.414 . S
C2333 C2336 1.499 . S
C2334 H2314 0.950 . S
C2334 C2333 1.414 . S
C2334 C2335 1.374 . S
C2335 H2315 0.950 . S
C2335 C2331 1.385 . S
C2335 C2334 1.374 . S
C2336 C2333 1.499 . S
C2336 C2337 1.373 . S
C2336 C2338 1.389 . S
C2337 H2316 0.950 . S
C2337 C2336 1.373 . S
C2337 C2353 1.377 . S
C2338 C2336 1.389 . S
C2338 C2339 1.524 . S
C2338 C2352 1.377 . S
C2339 C2338 1.524 . S
C2339 C2340 1.397 . S
C2339 C2344 1.363 . S
C2340 H2317 0.950 . S
C2340 C2339 1.397 . S
C2340 C2341 1.334 . S
C2341 H2318 0.950 . S
C2341 C2340 1.334 . S
C2341 C2342 1.287 . S
C2342 C2341 1.287 . S
C2342 C2343 1.524 . S
C2342 H2361 0.913 . S
C2343 H2319 0.950 . S
C2343 C2342 1.524 . S
C2343 C2344 1.415 . S
C2344 H2320 0.950 . S
C2344 C2339 1.363 . S
C2344 C2343 1.415 . S
C2345 H2321 0.951 . S
C2345 C2346 1.366 . S
C2345 C2347 1.388 . S
C2346 C2345 1.366 . S
C2346 C2350 1.385 . S
C2347 H2322 0.951 . S
C2347 C2345 1.388 . S
C2347 C2348 1.366 . S
C2348 C2347 1.366 . S
C2348 C2349 1.414 . S
C2348 C2351 1.499 . S
C2349 H2323 0.950 . S
C2349 C2348 1.414 . S
C2349 C2350 1.374 . S
C2350 H2324 0.950 . S
C2350 C2346 1.385 . S
C2350 C2349 1.374 . S
C2351 C2348 1.499 . S
C2351 C2352 1.373 . S
C2351 C2353 1.389 . S
C2352 H2325 0.950 . S
C2352 C2338 1.377 . S
C2352 C2351 1.373 . S
C2353 C2337 1.377 . S
C2353 C2351 1.389 . S
C2353 C2354 1.524 . S
C2354 C2353 1.524 . S
C2354 C2355 1.397 . S
C2354 C2359 1.363 . S
C2355 H2326 0.950 . S
C2355 C2354 1.397 . S
C2355 C2356 1.334 . S
C2356 H2327 0.950 . S
C2356 C2355 1.334 . S
C2356 C2357 1.287 . S
C2357 C2356 1.287 . S
C2357 C2358 1.524 . S
C2357 H2360 0.999 . S
C2358 H2328 0.950 . S
C2358 C2357 1.524 . S
C2358 C2359 1.415 . S
C2359 H2329 0.950 . S
C2359 C2354 1.363 . S
C2359 C2358 1.415 . S
H2360 C2357 0.999 . S
H2361 C2342 0.913 . S
H2362 C2380 0.951 . S
H2363 C2382 0.951 . S
H2364 C2384 0.950 . S
H2365 C2385 0.950 . S
H2366 C2387 0.950 . S
H2367 C2390 0.950 . S
H2368 C2391 0.950 . S
H2369 C2393 0.950 . S
H2370 C2394 0.950 . S
H2371 C2395 0.951 . S
H2372 C2397 0.951 . S
H2373 C2399 0.950 . S
H2374 C2400 0.950 1_545 S
H2375 C2402 0.950 . S
H2376 C2405 0.950 . S
H2377 C2406 0.950 . S
H2378 C2408 0.950 . S
H2379 C2409 0.950 . S
C2380 H2362 0.951 . S
C2380 C2381 1.366 . S
C2380 C2382 1.388 . S
C2381 C2380 1.366 . S
C2381 C2385 1.385 . S
C2382 H2363 0.951 . S
C2382 C2380 1.388 . S
C2382 C2383 1.366 . S
C2383 C2382 1.366 . S
C2383 C2384 1.414 . S
C2383 C2386 1.499 . S
C2384 H2364 0.950 . S
C2384 C2383 1.414 . S
C2384 C2385 1.374 . S
C2385 H2365 0.950 . S
C2385 C2381 1.385 . S
C2385 C2384 1.374 . S
C2386 C2383 1.499 . S
C2386 C2387 1.373 . S
C2386 C2388 1.389 . S
C2387 H2366 0.950 . S
C2387 C2386 1.373 . S
C2387 C2403 1.377 . S
C2388 C2386 1.389 . S
C2388 C2389 1.524 . S
C2388 C2402 1.377 . S
C2389 C2388 1.524 . S
C2389 C2390 1.397 . S
C2389 C2394 1.363 . S
C2390 H2367 0.950 . S
C2390 C2389 1.397 . S
C2390 C2391 1.334 . S
C2391 H2368 0.950 . S
C2391 C2390 1.334 . S
C2391 C2392 1.287 . S
C2392 C2391 1.287 . S
C2392 C2393 1.524 . S
C2392 H2411 0.913 . S
C2393 H2369 0.950 . S
C2393 C2392 1.524 . S
C2393 C2394 1.415 . S
C2394 H2370 0.950 . S
C2394 C2389 1.363 . S
C2394 C2393 1.415 . S
C2395 H2371 0.951 . S
C2395 C2396 1.366 . S
C2395 C2397 1.388 . S
C2396 C2395 1.366 . S
C2396 C2400 1.385 . S
C2397 H2372 0.951 . S
C2397 C2395 1.388 . S
C2397 C2398 1.366 . S
C2398 C2397 1.366 . S
C2398 C2399 1.414 . S
C2398 C2401 1.499 . S
C2399 H2373 0.950 . S
C2399 C2398 1.414 . S
C2399 C2400 1.374 . S
C2400 H2374 0.950 1_565 S
C2400 C2396 1.385 . S
C2400 C2399 1.374 . S
C2401 C2398 1.499 . S
C2401 C2402 1.373 . S
C2401 C2403 1.389 . S
C2402 H2375 0.950 . S
C2402 C2388 1.377 . S
C2402 C2401 1.373 . S
C2403 C2387 1.377 . S
C2403 C2401 1.389 . S
C2403 C2404 1.524 . S
C2404 C2403 1.524 . S
C2404 C2405 1.397 . S
C2404 C2409 1.363 . S
C2405 H2376 0.950 . S
C2405 C2404 1.397 . S
C2405 C2406 1.334 . S
C2406 H2377 0.950 . S
C2406 C2405 1.334 . S
C2406 C2407 1.287 . S
C2407 C2406 1.287 . S
C2407 C2408 1.524 . S
C2407 H2410 0.999 . S
C2408 H2378 0.950 . S
C2408 C2407 1.524 . S
C2408 C2409 1.415 . S
C2409 H2379 0.950 . S
C2409 C2404 1.363 . S
C2409 C2408 1.415 . S
H2410 C2407 0.999 . S
H2411 C2392 0.913 . S
H2412 C2430 0.951 . S
H2413 C2432 0.951 . S
H2414 C2434 0.950 . S
H2415 C2435 0.950 . S
H2416 C2437 0.950 . S
H2417 C2440 0.950 . S
H2418 C2441 0.950 . S
H2419 C2443 0.950 . S
H2420 C2444 0.950 . S
H2421 C2445 0.951 . S
H2422 C2447 0.951 . S
H2423 C2449 0.950 . S
H2424 C2450 0.950 . S
H2425 C2452 0.950 . S
H2426 C2455 0.950 . S
H2427 C2456 0.950 . S
H2428 C2458 0.950 . S
H2429 C2459 0.950 . S
C2430 H2412 0.951 . S
C2430 C2431 1.366 . S
C2430 C2432 1.388 . S
C2431 C2430 1.366 . S
C2431 C2435 1.385 . S
C2432 H2413 0.951 . S
C2432 C2430 1.388 . S
C2432 C2433 1.366 . S
C2433 C2432 1.366 . S
C2433 C2434 1.414 . S
C2433 C2436 1.499 . S
C2434 H2414 0.950 . S
C2434 C2433 1.414 . S
C2434 C2435 1.374 . S
C2435 H2415 0.950 . S
C2435 C2431 1.385 . S
C2435 C2434 1.374 . S
C2436 C2433 1.499 . S
C2436 C2437 1.373 . S
C2436 C2438 1.389 . S
C2437 H2416 0.950 . S
C2437 C2436 1.373 . S
C2437 C2453 1.377 . S
C2438 C2436 1.389 . S
C2438 C2439 1.524 . S
C2438 C2452 1.377 . S
C2439 C2438 1.524 . S
C2439 C2440 1.397 . S
C2439 C2444 1.363 . S
C2440 H2417 0.950 . S
C2440 C2439 1.397 . S
C2440 C2441 1.334 . S
C2441 H2418 0.950 . S
C2441 C2440 1.334 . S
C2441 C2442 1.287 . S
C2442 C2441 1.287 . S
C2442 C2443 1.524 . S
C2442 H2461 0.913 . S
C2443 H2419 0.950 . S
C2443 C2442 1.524 . S
C2443 C2444 1.415 . S
C2444 H2420 0.950 . S
C2444 C2439 1.363 . S
C2444 C2443 1.415 . S
C2445 H2421 0.951 . S
C2445 C2446 1.366 . S
C2445 C2447 1.388 . S
C2446 C2445 1.366 . S
C2446 C2450 1.385 . S
C2447 H2422 0.951 . S
C2447 C2445 1.388 . S
C2447 C2448 1.366 . S
C2448 C2447 1.366 . S
C2448 C2449 1.414 . S
C2448 C2451 1.499 . S
C2449 H2423 0.950 . S
C2449 C2448 1.414 . S
C2449 C2450 1.374 . S
C2450 H2424 0.950 . S
C2450 C2446 1.385 . S
C2450 C2449 1.374 . S
C2451 C2448 1.499 . S
C2451 C2452 1.373 . S
C2451 C2453 1.389 . S
C2452 H2425 0.950 . S
C2452 C2438 1.377 . S
C2452 C2451 1.373 . S
C2453 C2437 1.377 . S
C2453 C2451 1.389 . S
C2453 C2454 1.524 . S
C2454 C2453 1.524 . S
C2454 C2455 1.397 . S
C2454 C2459 1.363 . S
C2455 H2426 0.950 . S
C2455 C2454 1.397 . S
C2455 C2456 1.334 . S
C2456 H2427 0.950 . S
C2456 C2455 1.334 . S
C2456 C2457 1.287 . S
C2457 C2456 1.287 . S
C2457 C2458 1.524 . S
C2457 H2460 0.999 . S
C2458 H2428 0.950 . S
C2458 C2457 1.524 . S
C2458 C2459 1.415 . S
C2459 H2429 0.950 . S
C2459 C2454 1.363 . S
C2459 C2458 1.415 . S
H2460 C2457 0.999 . S
H2461 C2442 0.913 . S
H2462 C2480 0.951 . S
H2463 C2482 0.951 . S
H2464 C2484 0.950 . S
H2465 C2485 0.950 . S
H2466 C2487 0.950 . S
H2467 C2490 0.950 . S
H2468 C2491 0.950 . S
H2469 C2493 0.950 . S
H2470 C2494 0.950 . S
H2471 C2495 0.951 . S
H2472 C2497 0.951 . S
H2473 C2499 0.950 . S
H2474 C2500 0.950 . S
H2475 C2502 0.950 . S
H2476 C2505 0.950 . S
H2477 C2506 0.950 . S
H2478 C2508 0.950 . S
H2479 C2509 0.950 . S
C2480 H2462 0.951 . S
C2480 C2481 1.366 . S
C2480 C2482 1.388 . S
C2481 C2480 1.366 . S
C2481 C2485 1.385 . S
C2482 H2463 0.951 . S
C2482 C2480 1.388 . S
C2482 C2483 1.366 . S
C2483 C2482 1.366 . S
C2483 C2484 1.414 . S
C2483 C2486 1.499 . S
C2484 H2464 0.950 . S
C2484 C2483 1.414 . S
C2484 C2485 1.374 . S
C2485 H2465 0.950 . S
C2485 C2481 1.385 . S
C2485 C2484 1.374 . S
C2486 C2483 1.499 . S
C2486 C2487 1.373 . S
C2486 C2488 1.389 . S
C2487 H2466 0.950 . S
C2487 C2486 1.373 . S
C2487 C2503 1.377 . S
C2488 C2486 1.389 . S
C2488 C2489 1.524 . S
C2488 C2502 1.377 . S
C2489 C2488 1.524 . S
C2489 C2490 1.397 . S
C2489 C2494 1.363 . S
C2490 H2467 0.950 . S
C2490 C2489 1.397 . S
C2490 C2491 1.334 . S
C2491 H2468 0.950 . S
C2491 C2490 1.334 . S
C2491 C2492 1.287 . S
C2492 C2491 1.287 . S
C2492 C2493 1.524 . S
C2492 H2511 0.913 . S
C2493 H2469 0.950 . S
C2493 C2492 1.524 . S
C2493 C2494 1.415 . S
C2494 H2470 0.950 . S
C2494 C2489 1.363 . S
C2494 C2493 1.415 . S
C2495 H2471 0.951 . S
C2495 C2496 1.366 . S
C2495 C2497 1.388 . S
C2496 C2495 1.366 . S
C2496 C2500 1.385 . S
C2497 H2472 0.951 . S
C2497 C2495 1.388 . S
C2497 C2498 1.366 . S
C2498 C2497 1.366 . S
C2498 C2499 1.414 . S
C2498 C2501 1.499 . S
C2499 H2473 0.950 . S
C2499 C2498 1.414 . S
C2499 C2500 1.374 . S
C2500 H2474 0.950 . S
C2500 C2496 1.385 . S
C2500 C2499 1.374 . S
C2501 C2498 1.499 . S
C2501 C2502 1.373 . S
C2501 C2503 1.389 . S
C2502 H2475 0.950 . S
C2502 C2488 1.377 . S
C2502 C2501 1.373 . S
C2503 C2487 1.377 . S
C2503 C2501 1.389 . S
C2503 C2504 1.524 . S
C2504 C2503 1.524 . S
C2504 C2505 1.397 . S
C2504 C2509 1.363 . S
C2505 H2476 0.950 . S
C2505 C2504 1.397 . S
C2505 C2506 1.334 . S
C2506 H2477 0.950 . S
C2506 C2505 1.334 . S
C2506 C2507 1.287 . S
C2507 C2506 1.287 . S
C2507 C2508 1.524 . S
C2507 H2510 0.999 . S
C2508 H2478 0.950 . S
C2508 C2507 1.524 . S
C2508 C2509 1.415 . S
C2509 H2479 0.950 . S
C2509 C2504 1.363 . S
C2509 C2508 1.415 . S
H2510 C2507 0.999 . S
H2511 C2492 0.913 . S
H2512 C2530 0.951 . S
H2513 C2532 0.951 . S
H2514 C2534 0.950 . S
H2515 C2535 0.950 . S
H2516 C2537 0.950 . S
H2517 C2540 0.950 . S
H2518 C2541 0.950 . S
H2519 C2543 0.950 . S
H2520 C2544 0.950 . S
H2521 C2545 0.951 . S
H2522 C2547 0.951 . S
H2523 C2549 0.950 . S
H2524 C2550 0.950 . S
H2525 C2552 0.950 . S
H2526 C2555 0.950 . S
H2527 C2556 0.950 . S
H2528 C2558 0.950 . S
H2529 C2559 0.950 . S
C2530 H2512 0.951 . S
C2530 C2531 1.366 . S
C2530 C2532 1.388 . S
C2531 C2530 1.366 . S
C2531 C2535 1.385 . S
C2532 H2513 0.951 . S
C2532 C2530 1.388 . S
C2532 C2533 1.366 . S
C2533 C2532 1.366 . S
C2533 C2534 1.414 . S
C2533 C2536 1.499 . S
C2534 H2514 0.950 . S
C2534 C2533 1.414 . S
C2534 C2535 1.374 . S
C2535 H2515 0.950 . S
C2535 C2531 1.385 . S
C2535 C2534 1.374 . S
C2536 C2533 1.499 . S
C2536 C2537 1.373 . S
C2536 C2538 1.389 . S
C2537 H2516 0.950 . S
C2537 C2536 1.373 . S
C2537 C2553 1.377 . S
C2538 C2536 1.389 . S
C2538 C2539 1.524 . S
C2538 C2552 1.377 . S
C2539 C2538 1.524 . S
C2539 C2540 1.397 . S
C2539 C2544 1.363 . S
C2540 H2517 0.950 . S
C2540 C2539 1.397 . S
C2540 C2541 1.334 . S
C2541 H2518 0.950 . S
C2541 C2540 1.334 . S
C2541 C2542 1.287 . S
C2542 C2541 1.287 . S
C2542 C2543 1.524 . S
C2542 H2561 0.913 . S
C2543 H2519 0.950 . S
C2543 C2542 1.524 . S
C2543 C2544 1.415 . S
C2544 H2520 0.950 . S
C2544 C2539 1.363 . S
C2544 C2543 1.415 . S
C2545 H2521 0.951 . S
C2545 C2546 1.366 . S
C2545 C2547 1.388 . S
C2546 C2545 1.366 . S
C2546 C2550 1.385 . S
C2547 H2522 0.951 . S
C2547 C2545 1.388 . S
C2547 C2548 1.366 . S
C2548 C2547 1.366 . S
C2548 C2549 1.414 . S
C2548 C2551 1.499 . S
C2549 H2523 0.950 . S
C2549 C2548 1.414 . S
C2549 C2550 1.374 . S
C2550 H2524 0.950 . S
C2550 C2546 1.385 . S
C2550 C2549 1.374 . S
C2551 C2548 1.499 . S
C2551 C2552 1.373 . S
C2551 C2553 1.389 . S
C2552 H2525 0.950 . S
C2552 C2538 1.377 . S
C2552 C2551 1.373 . S
C2553 C2537 1.377 . S
C2553 C2551 1.389 . S
C2553 C2554 1.524 . S
C2554 C2553 1.524 . S
C2554 C2555 1.397 . S
C2554 C2559 1.363 . S
C2555 H2526 0.950 . S
C2555 C2554 1.397 . S
C2555 C2556 1.334 1_565 S
C2556 H2527 0.950 . S
C2556 C2555 1.334 1_545 S
C2556 C2557 1.287 . S
C2557 C2556 1.287 . S
C2557 C2558 1.524 . S
C2557 H2560 0.999 . S
C2558 H2528 0.950 . S
C2558 C2557 1.524 . S
C2558 C2559 1.415 1_545 S
C2559 H2529 0.950 . S
C2559 C2554 1.363 . S
C2559 C2558 1.415 1_565 S
H2560 C2557 0.999 . S
H2561 C2542 0.913 . S
H2562 C2580 0.951 . S
H2563 C2582 0.951 . S
H2564 C2584 0.950 . S
H2565 C2585 0.950 . S
H2566 C2587 0.950 . S
H2567 C2590 0.950 . S
H2568 C2591 0.950 . S
H2569 C2593 0.950 . S
H2570 C2594 0.950 . S
H2571 C2595 0.951 . S
H2572 C2597 0.951 . S
H2573 C2599 0.950 . S
H2574 C2600 0.950 . S
H2575 C2602 0.950 . S
H2576 C2605 0.950 . S
H2577 C2606 0.950 . S
H2578 C2608 0.950 . S
H2579 C2609 0.950 . S
C2580 H2562 0.951 . S
C2580 C2581 1.366 . S
C2580 C2582 1.388 . S
C2581 C2580 1.366 . S
C2581 C2585 1.385 . S
C2582 H2563 0.951 . S
C2582 C2580 1.388 . S
C2582 C2583 1.366 . S
C2583 C2582 1.366 . S
C2583 C2584 1.414 . S
C2583 C2586 1.499 . S
C2584 H2564 0.950 . S
C2584 C2583 1.414 . S
C2584 C2585 1.374 . S
C2585 H2565 0.950 . S
C2585 C2581 1.385 . S
C2585 C2584 1.374 . S
C2586 C2583 1.499 . S
C2586 C2587 1.373 . S
C2586 C2588 1.389 . S
C2587 H2566 0.950 . S
C2587 C2586 1.373 . S
C2587 C2603 1.377 . S
C2588 C2586 1.389 . S
C2588 C2589 1.524 . S
C2588 C2602 1.377 . S
C2589 C2588 1.524 . S
C2589 C2590 1.397 . S
C2589 C2594 1.363 . S
C2590 H2567 0.950 . S
C2590 C2589 1.397 . S
C2590 C2591 1.334 . S
C2591 H2568 0.950 . S
C2591 C2590 1.334 . S
C2591 C2592 1.287 . S
C2592 C2591 1.287 . S
C2592 C2593 1.524 . S
C2592 H2611 0.913 . S
C2593 H2569 0.950 . S
C2593 C2592 1.524 . S
C2593 C2594 1.415 . S
C2594 H2570 0.950 . S
C2594 C2589 1.363 . S
C2594 C2593 1.415 . S
C2595 H2571 0.951 . S
C2595 C2596 1.366 . S
C2595 C2597 1.388 . S
C2596 C2595 1.366 . S
C2596 C2600 1.385 . S
C2597 H2572 0.951 . S
C2597 C2595 1.388 . S
C2597 C2598 1.366 . S
C2598 C2597 1.366 . S
C2598 C2599 1.414 . S
C2598 C2601 1.499 . S
C2599 H2573 0.950 . S
C2599 C2598 1.414 . S
C2599 C2600 1.374 . S
C2600 H2574 0.950 . S
C2600 C2596 1.385 . S
C2600 C2599 1.374 . S
C2601 C2598 1.499 . S
C2601 C2602 1.373 . S
C2601 C2603 1.389 . S
C2602 H2575 0.950 . S
C2602 C2588 1.377 . S
C2602 C2601 1.373 . S
C2603 C2587 1.377 . S
C2603 C2601 1.389 . S
C2603 C2604 1.524 . S
C2604 C2603 1.524 . S
C2604 C2605 1.397 . S
C2604 C2609 1.363 . S
C2605 H2576 0.950 . S
C2605 C2604 1.397 . S
C2605 C2606 1.334 . S
C2606 H2577 0.950 . S
C2606 C2605 1.334 . S
C2606 C2607 1.287 . S
C2607 C2606 1.287 . S
C2607 C2608 1.524 . S
C2607 H2610 0.999 . S
C2608 H2578 0.950 . S
C2608 C2607 1.524 . S
C2608 C2609 1.415 . S
C2609 H2579 0.950 . S
C2609 C2604 1.363 . S
C2609 C2608 1.415 . S
H2610 C2607 0.999 . S
H2611 C2592 0.913 . S
H2612 C2630 0.951 . S
H2613 C2632 0.951 . S
H2614 C2634 0.950 . S
H2615 C2635 0.950 . S
H2616 C2637 0.950 . S
H2617 C2640 0.950 . S
H2618 C2641 0.950 . S
H2619 C2643 0.950 . S
H2620 C2644 0.950 . S
H2621 C2645 0.951 . S
H2622 C2647 0.951 . S
H2623 C2649 0.950 . S
H2624 C2650 0.950 . S
H2625 C2652 0.950 . S
H2626 C2655 0.950 . S
H2627 C2656 0.950 . S
H2628 C2658 0.950 . S
H2629 C2659 0.950 . S
C2630 H2612 0.951 . S
C2630 C2631 1.366 . S
C2630 C2632 1.388 . S
C2631 C2630 1.366 . S
C2631 C2635 1.385 . S
C2632 H2613 0.951 . S
C2632 C2630 1.388 . S
C2632 C2633 1.366 . S
C2633 C2632 1.366 . S
C2633 C2634 1.414 . S
C2633 C2636 1.499 . S
C2634 H2614 0.950 . S
C2634 C2633 1.414 . S
C2634 C2635 1.374 . S
C2635 H2615 0.950 . S
C2635 C2631 1.385 . S
C2635 C2634 1.374 . S
C2636 C2633 1.499 . S
C2636 C2637 1.373 . S
C2636 C2638 1.389 . S
C2637 H2616 0.950 . S
C2637 C2636 1.373 . S
C2637 C2653 1.377 . S
C2638 C2636 1.389 . S
C2638 C2639 1.524 . S
C2638 C2652 1.377 . S
C2639 C2638 1.524 . S
C2639 C2640 1.397 . S
C2639 C2644 1.363 . S
C2640 H2617 0.950 . S
C2640 C2639 1.397 . S
C2640 C2641 1.334 . S
C2641 H2618 0.950 . S
C2641 C2640 1.334 . S
C2641 C2642 1.287 . S
C2642 C2641 1.287 . S
C2642 C2643 1.524 . S
C2642 H2661 0.913 . S
C2643 H2619 0.950 . S
C2643 C2642 1.524 . S
C2643 C2644 1.415 . S
C2644 H2620 0.950 . S
C2644 C2639 1.363 . S
C2644 C2643 1.415 . S
C2645 H2621 0.951 . S
C2645 C2646 1.366 . S
C2645 C2647 1.388 . S
C2646 C2645 1.366 . S
C2646 C2650 1.385 . S
C2647 H2622 0.951 . S
C2647 C2645 1.388 . S
C2647 C2648 1.366 . S
C2648 C2647 1.366 . S
C2648 C2649 1.414 . S
C2648 C2651 1.499 . S
C2649 H2623 0.950 . S
C2649 C2648 1.414 . S
C2649 C2650 1.374 . S
C2650 H2624 0.950 . S
C2650 C2646 1.385 . S
C2650 C2649 1.374 . S
C2651 C2648 1.499 . S
C2651 C2652 1.373 . S
C2651 C2653 1.389 . S
C2652 H2625 0.950 . S
C2652 C2638 1.377 . S
C2652 C2651 1.373 . S
C2653 C2637 1.377 . S
C2653 C2651 1.389 . S
C2653 C2654 1.524 . S
C2654 C2653 1.524 . S
C2654 C2655 1.397 . S
C2654 C2659 1.363 . S
C2655 H2626 0.950 . S
C2655 C2654 1.397 . S
C2655 C2656 1.334 . S
C2656 H2627 0.950 . S
C2656 C2655 1.334 . S
C2656 C2657 1.287 . S
C2657 C2656 1.287 . S
C2657 C2658 1.524 . S
C2657 H2660 0.999 . S
C2658 H2628 0.950 . S
C2658 C2657 1.524 . S
C2658 C2659 1.415 . S
C2659 H2629 0.950 . S
C2659 C2654 1.363 . S
C2659 C2658 1.415 . S
H2660 C2657 0.999 . S
H2661 C2642 0.913 . S
H2662 C2680 0.951 . S
H2663 C2682 0.951 . S
H2664 C2684 0.950 . S
H2665 C2685 0.950 . S
H2666 C2687 0.950 . S
H2667 C2690 0.950 . S
H2668 C2691 0.950 . S
H2669 C2693 0.950 . S
H2670 C2694 0.950 . S
H2671 C2695 0.951 . S
H2672 C2697 0.951 . S
H2673 C2699 0.950 . S
H2674 C2700 0.950 . S
H2675 C2702 0.950 . S
H2676 C2705 0.950 . S
H2677 C2706 0.950 . S
H2678 C2708 0.950 . S
H2679 C2709 0.950 . S
C2680 H2662 0.951 . S
C2680 C2681 1.366 . S
C2680 C2682 1.388 . S
C2681 C2680 1.366 . S
C2681 C2685 1.385 . S
C2682 H2663 0.951 . S
C2682 C2680 1.388 . S
C2682 C2683 1.366 . S
C2683 C2682 1.366 . S
C2683 C2684 1.414 . S
C2683 C2686 1.499 . S
C2684 H2664 0.950 . S
C2684 C2683 1.414 . S
C2684 C2685 1.374 . S
C2685 H2665 0.950 . S
C2685 C2681 1.385 . S
C2685 C2684 1.374 . S
C2686 C2683 1.499 . S
C2686 C2687 1.373 . S
C2686 C2688 1.389 . S
C2687 H2666 0.950 . S
C2687 C2686 1.373 . S
C2687 C2703 1.377 . S
C2688 C2686 1.389 . S
C2688 C2689 1.524 . S
C2688 C2702 1.377 . S
C2689 C2688 1.524 . S
C2689 C2690 1.397 . S
C2689 C2694 1.363 . S
C2690 H2667 0.950 . S
C2690 C2689 1.397 . S
C2690 C2691 1.334 . S
C2691 H2668 0.950 . S
C2691 C2690 1.334 . S
C2691 C2692 1.287 . S
C2692 C2691 1.287 . S
C2692 C2693 1.524 . S
C2692 H2711 0.913 . S
C2693 H2669 0.950 . S
C2693 C2692 1.524 . S
C2693 C2694 1.415 . S
C2694 H2670 0.950 . S
C2694 C2689 1.363 . S
C2694 C2693 1.415 . S
C2695 H2671 0.951 . S
C2695 C2696 1.366 . S
C2695 C2697 1.388 . S
C2696 C2695 1.366 . S
C2696 C2700 1.385 . S
C2697 H2672 0.951 . S
C2697 C2695 1.388 . S
C2697 C2698 1.366 . S
C2698 C2697 1.366 . S
C2698 C2699 1.414 . S
C2698 C2701 1.499 . S
C2699 H2673 0.950 . S
C2699 C2698 1.414 . S
C2699 C2700 1.374 . S
C2700 H2674 0.950 . S
C2700 C2696 1.385 . S
C2700 C2699 1.374 . S
C2701 C2698 1.499 . S
C2701 C2702 1.373 . S
C2701 C2703 1.389 . S
C2702 H2675 0.950 . S
C2702 C2688 1.377 . S
C2702 C2701 1.373 . S
C2703 C2687 1.377 . S
C2703 C2701 1.389 . S
C2703 C2704 1.524 . S
C2704 C2703 1.524 . S
C2704 C2705 1.397 . S
C2704 C2709 1.363 . S
C2705 H2676 0.950 . S
C2705 C2704 1.397 . S
C2705 C2706 1.334 . S
C2706 H2677 0.950 . S
C2706 C2705 1.334 . S
C2706 C2707 1.287 . S
C2707 C2706 1.287 . S
C2707 C2708 1.524 . S
C2707 H2710 0.999 . S
C2708 H2678 0.950 . S
C2708 C2707 1.524 . S
C2708 C2709 1.415 . S
C2709 H2679 0.950 . S
C2709 C2704 1.363 . S
C2709 C2708 1.415 . S
H2710 C2707 0.999 . S
H2711 C2692 0.913 . S
H2712 C2730 0.951 . S
H2713 C2732 0.951 . S
H2714 C2734 0.950 . S
H2715 C2735 0.950 . S
H2716 C2737 0.950 . S
H2717 C2740 0.950 . S
H2718 C2741 0.950 . S
H2719 C2743 0.950 . S
H2720 C2744 0.950 . S
H2721 C2745 0.951 . S
H2722 C2747 0.951 . S
H2723 C2749 0.950 . S
H2724 C2750 0.950 . S
H2725 C2752 0.950 . S
H2726 C2755 0.950 . S
H2727 C2756 0.950 . S
H2728 C2758 0.950 . S
H2729 C2759 0.950 . S
C2730 H2712 0.951 . S
C2730 C2731 1.366 . S
C2730 C2732 1.388 . S
C2731 C2730 1.366 . S
C2731 C2735 1.385 . S
C2732 H2713 0.951 . S
C2732 C2730 1.388 . S
C2732 C2733 1.366 . S
C2733 C2732 1.366 . S
C2733 C2734 1.414 . S
C2733 C2736 1.499 . S
C2734 H2714 0.950 . S
C2734 C2733 1.414 . S
C2734 C2735 1.374 . S
C2735 H2715 0.950 . S
C2735 C2731 1.385 . S
C2735 C2734 1.374 . S
C2736 C2733 1.499 . S
C2736 C2737 1.373 . S
C2736 C2738 1.389 . S
C2737 H2716 0.950 . S
C2737 C2736 1.373 . S
C2737 C2753 1.377 . S
C2738 C2736 1.389 . S
C2738 C2739 1.524 . S
C2738 C2752 1.377 . S
C2739 C2738 1.524 . S
C2739 C2740 1.397 . S
C2739 C2744 1.363 . S
C2740 H2717 0.950 . S
C2740 C2739 1.397 . S
C2740 C2741 1.334 . S
C2741 H2718 0.950 . S
C2741 C2740 1.334 . S
C2741 C2742 1.287 . S
C2742 C2741 1.287 . S
C2742 C2743 1.524 . S
C2742 H2761 0.913 . S
C2743 H2719 0.950 . S
C2743 C2742 1.524 . S
C2743 C2744 1.415 . S
C2744 H2720 0.950 . S
C2744 C2739 1.363 . S
C2744 C2743 1.415 . S
C2745 H2721 0.951 . S
C2745 C2746 1.366 . S
C2745 C2747 1.388 . S
C2746 C2745 1.366 . S
C2746 C2750 1.385 . S
C2747 H2722 0.951 . S
C2747 C2745 1.388 . S
C2747 C2748 1.366 . S
C2748 C2747 1.366 . S
C2748 C2749 1.414 . S
C2748 C2751 1.499 . S
C2749 H2723 0.950 . S
C2749 C2748 1.414 . S
C2749 C2750 1.374 . S
C2750 H2724 0.950 . S
C2750 C2746 1.385 . S
C2750 C2749 1.374 . S
C2751 C2748 1.499 . S
C2751 C2752 1.373 . S
C2751 C2753 1.389 . S
C2752 H2725 0.950 . S
C2752 C2738 1.377 . S
C2752 C2751 1.373 . S
C2753 C2737 1.377 . S
C2753 C2751 1.389 . S
C2753 C2754 1.524 . S
C2754 C2753 1.524 . S
C2754 C2755 1.397 . S
C2754 C2759 1.363 . S
C2755 H2726 0.950 . S
C2755 C2754 1.397 . S
C2755 C2756 1.334 . S
C2756 H2727 0.950 . S
C2756 C2755 1.334 . S
C2756 C2757 1.287 . S
C2757 C2756 1.287 . S
C2757 C2758 1.524 . S
C2757 H2760 0.999 . S
C2758 H2728 0.950 . S
C2758 C2757 1.524 . S
C2758 C2759 1.415 . S
C2759 H2729 0.950 . S
C2759 C2754 1.363 . S
C2759 C2758 1.415 . S
H2760 C2757 0.999 . S
H2761 C2742 0.913 . S
H2762 C2780 0.951 . S
H2763 C2782 0.951 . S
H2764 C2784 0.950 . S
H2765 C2785 0.950 . S
H2766 C2787 0.950 . S
H2767 C2790 0.950 . S
H2768 C2791 0.950 . S
H2769 C2793 0.950 . S
H2770 C2794 0.950 . S
H2771 C2795 0.951 . S
H2772 C2797 0.951 . S
H2773 C2799 0.950 . S
H2774 C2800 0.950 . S
H2775 C2802 0.950 . S
H2776 C2805 0.950 . S
H2777 C2806 0.950 . S
H2778 C2808 0.950 . S
H2779 C2809 0.950 . S
C2780 H2762 0.951 . S
C2780 C2781 1.366 . S
C2780 C2782 1.388 . S
C2781 C2780 1.366 . S
C2781 C2785 1.385 . S
C2782 H2763 0.951 . S
C2782 C2780 1.388 . S
C2782 C2783 1.366 . S
C2783 C2782 1.366 . S
C2783 C2784 1.414 . S
C2783 C2786 1.499 . S
C2784 H2764 0.950 . S
C2784 C2783 1.414 . S
C2784 C2785 1.374 . S
C2785 H2765 0.950 . S
C2785 C2781 1.385 . S
C2785 C2784 1.374 . S
C2786 C2783 1.499 . S
C2786 C2787 1.373 . S
C2786 C2788 1.389 . S
C2787 H2766 0.950 . S
C2787 C2786 1.373 . S
C2787 C2803 1.377 . S
C2788 C2786 1.389 . S
C2788 C2789 1.524 . S
C2788 C2802 1.377 . S
C2789 C2788 1.524 . S
C2789 C2790 1.397 . S
C2789 C2794 1.363 . S
C2790 H2767 0.950 . S
C2790 C2789 1.397 . S
C2790 C2791 1.334 . S
C2791 H2768 0.950 . S
C2791 C2790 1.334 . S
C2791 C2792 1.287 . S
C2792 C2791 1.287 . S
C2792 C2793 1.524 . S
C2792 H2811 0.913 . S
C2793 H2769 0.950 . S
C2793 C2792 1.524 . S
C2793 C2794 1.415 . S
C2794 H2770 0.950 . S
C2794 C2789 1.363 . S
C2794 C2793 1.415 . S
C2795 H2771 0.951 . S
C2795 C2796 1.366 . S
C2795 C2797 1.388 . S
C2796 C2795 1.366 . S
C2796 C2800 1.385 . S
C2797 H2772 0.951 . S
C2797 C2795 1.388 . S
C2797 C2798 1.366 . S
C2798 C2797 1.366 . S
C2798 C2799 1.414 . S
C2798 C2801 1.499 . S
C2799 H2773 0.950 . S
C2799 C2798 1.414 . S
C2799 C2800 1.374 . S
C2800 H2774 0.950 . S
C2800 C2796 1.385 . S
C2800 C2799 1.374 . S
C2801 C2798 1.499 . S
C2801 C2802 1.373 . S
C2801 C2803 1.389 . S
C2802 H2775 0.950 . S
C2802 C2788 1.377 . S
C2802 C2801 1.373 . S
C2803 C2787 1.377 . S
C2803 C2801 1.389 . S
C2803 C2804 1.524 . S
C2804 C2803 1.524 . S
C2804 C2805 1.397 . S
C2804 C2809 1.363 . S
C2805 H2776 0.950 . S
C2805 C2804 1.397 . S
C2805 C2806 1.334 . S
C2806 H2777 0.950 . S
C2806 C2805 1.334 . S
C2806 C2807 1.287 . S
C2807 C2806 1.287 . S
C2807 C2808 1.524 . S
C2807 H2810 0.999 . S
C2808 H2778 0.950 . S
C2808 C2807 1.524 . S
C2808 C2809 1.415 . S
C2809 H2779 0.950 . S
C2809 C2804 1.363 . S
C2809 C2808 1.415 . S
H2810 C2807 0.999 . S
H2811 C2792 0.913 . S
H2812 C2830 0.951 . S
H2813 C2832 0.951 . S
H2814 C2834 0.950 . S
H2815 C2835 0.950 . S
H2816 C2837 0.950 . S
H2817 C2840 0.950 . S
H2818 C2841 0.950 . S
H2819 C2843 0.950 . S
H2820 C2844 0.950 . S
H2821 C2845 0.951 . S
H2822 C2847 0.951 . S
H2823 C2849 0.950 . S
H2824 C2850 0.950 . S
H2825 C2852 0.950 . S
H2826 C2855 0.950 . S
H2827 C2856 0.950 . S
H2828 C2858 0.950 . S
H2829 C2859 0.950 . S
C2830 H2812 0.951 . S
C2830 C2831 1.366 . S
C2830 C2832 1.388 . S
C2831 C2830 1.366 . S
C2831 C2835 1.385 . S
C2832 H2813 0.951 . S
C2832 C2830 1.388 . S
C2832 C2833 1.366 . S
C2833 C2832 1.366 . S
C2833 C2834 1.414 . S
C2833 C2836 1.499 . S
C2834 H2814 0.950 . S
C2834 C2833 1.414 . S
C2834 C2835 1.374 . S
C2835 H2815 0.950 . S
C2835 C2831 1.385 . S
C2835 C2834 1.374 . S
C2836 C2833 1.499 . S
C2836 C2837 1.373 . S
C2836 C2838 1.389 . S
C2837 H2816 0.950 . S
C2837 C2836 1.373 . S
C2837 C2853 1.377 . S
C2838 C2836 1.389 . S
C2838 C2839 1.524 . S
C2838 C2852 1.377 . S
C2839 C2838 1.524 . S
C2839 C2840 1.397 . S
C2839 C2844 1.363 . S
C2840 H2817 0.950 . S
C2840 C2839 1.397 . S
C2840 C2841 1.334 . S
C2841 H2818 0.950 . S
C2841 C2840 1.334 . S
C2841 C2842 1.287 . S
C2842 C2841 1.287 . S
C2842 C2843 1.524 . S
C2842 H2861 0.913 . S
C2843 H2819 0.950 . S
C2843 C2842 1.524 . S
C2843 C2844 1.415 . S
C2844 H2820 0.950 . S
C2844 C2839 1.363 . S
C2844 C2843 1.415 . S
C2845 H2821 0.951 . S
C2845 C2846 1.366 . S
C2845 C2847 1.388 . S
C2846 C2845 1.366 . S
C2846 C2850 1.385 . S
C2847 H2822 0.951 . S
C2847 C2845 1.388 . S
C2847 C2848 1.366 . S
C2848 C2847 1.366 . S
C2848 C2849 1.414 . S
C2848 C2851 1.499 . S
C2849 H2823 0.950 . S
C2849 C2848 1.414 . S
C2849 C2850 1.374 . S
C2850 H2824 0.950 . S
C2850 C2846 1.385 . S
C2850 C2849 1.374 . S
C2851 C2848 1.499 . S
C2851 C2852 1.373 . S
C2851 C2853 1.389 . S
C2852 H2825 0.950 . S
C2852 C2838 1.377 . S
C2852 C2851 1.373 . S
C2853 C2837 1.377 . S
C2853 C2851 1.389 . S
C2853 C2854 1.524 . S
C2854 C2853 1.524 . S
C2854 C2855 1.397 . S
C2854 C2859 1.363 . S
C2855 H2826 0.950 . S
C2855 C2854 1.397 . S
C2855 C2856 1.334 . S
C2856 H2827 0.950 . S
C2856 C2855 1.334 . S
C2856 C2857 1.287 . S
C2857 C2856 1.287 . S
C2857 C2858 1.524 . S
C2857 H2860 0.999 . S
C2858 H2828 0.950 . S
C2858 C2857 1.524 . S
C2858 C2859 1.415 . S
C2859 H2829 0.950 . S
C2859 C2854 1.363 . S
C2859 C2858 1.415 . S
H2860 C2857 0.999 . S
H2861 C2842 0.913 . S
H2862 C2880 0.951 . S
H2863 C2882 0.951 . S
H2864 C2884 0.950 . S
H2865 C2885 0.950 . S
H2866 C2887 0.950 . S
H2867 C2890 0.950 . S
H2868 C2891 0.950 . S
H2869 C2893 0.950 . S
H2870 C2894 0.950 . S
H2871 C2895 0.951 . S
H2872 C2897 0.951 . S
H2873 C2899 0.950 . S
H2874 C2900 0.950 . S
H2875 C2902 0.950 . S
H2876 C2905 0.950 . S
H2877 C2906 0.950 . S
H2878 C2908 0.950 . S
H2879 C2909 0.950 . S
C2880 H2862 0.951 . S
C2880 C2881 1.366 . S
C2880 C2882 1.388 . S
C2881 C2880 1.366 . S
C2881 C2885 1.385 . S
C2882 H2863 0.951 . S
C2882 C2880 1.388 . S
C2882 C2883 1.366 . S
C2883 C2882 1.366 . S
C2883 C2884 1.414 . S
C2883 C2886 1.499 . S
C2884 H2864 0.950 . S
C2884 C2883 1.414 . S
C2884 C2885 1.374 . S
C2885 H2865 0.950 . S
C2885 C2881 1.385 . S
C2885 C2884 1.374 . S
C2886 C2883 1.499 . S
C2886 C2887 1.373 . S
C2886 C2888 1.389 . S
C2887 H2866 0.950 . S
C2887 C2886 1.373 . S
C2887 C2903 1.377 . S
C2888 C2886 1.389 . S
C2888 C2889 1.524 . S
C2888 C2902 1.377 . S
C2889 C2888 1.524 . S
C2889 C2890 1.397 . S
C2889 C2894 1.363 . S
C2890 H2867 0.950 . S
C2890 C2889 1.397 . S
C2890 C2891 1.334 . S
C2891 H2868 0.950 . S
C2891 C2890 1.334 . S
C2891 C2892 1.287 . S
C2892 C2891 1.287 . S
C2892 C2893 1.524 . S
C2892 H2911 0.913 . S
C2893 H2869 0.950 . S
C2893 C2892 1.524 . S
C2893 C2894 1.415 . S
C2894 H2870 0.950 . S
C2894 C2889 1.363 . S
C2894 C2893 1.415 . S
C2895 H2871 0.951 . S
C2895 C2896 1.366 . S
C2895 C2897 1.388 . S
C2896 C2895 1.366 . S
C2896 C2900 1.385 . S
C2897 H2872 0.951 . S
C2897 C2895 1.388 . S
C2897 C2898 1.366 . S
C2898 C2897 1.366 . S
C2898 C2899 1.414 . S
C2898 C2901 1.499 . S
C2899 H2873 0.950 . S
C2899 C2898 1.414 . S
C2899 C2900 1.374 . S
C2900 H2874 0.950 . S
C2900 C2896 1.385 . S
C2900 C2899 1.374 . S
C2901 C2898 1.499 . S
C2901 C2902 1.373 . S
C2901 C2903 1.389 . S
C2902 H2875 0.950 . S
C2902 C2888 1.377 . S
C2902 C2901 1.373 . S
C2903 C2887 1.377 . S
C2903 C2901 1.389 . S
C2903 C2904 1.524 . S
C2904 C2903 1.524 . S
C2904 C2905 1.397 . S
C2904 C2909 1.363 . S
C2905 H2876 0.950 . S
C2905 C2904 1.397 . S
C2905 C2906 1.334 . S
C2906 H2877 0.950 . S
C2906 C2905 1.334 . S
C2906 C2907 1.287 . S
C2907 C2906 1.287 . S
C2907 C2908 1.524 . S
C2907 H2910 0.999 . S
C2908 H2878 0.950 . S
C2908 C2907 1.524 . S
C2908 C2909 1.415 . S
C2909 H2879 0.950 . S
C2909 C2904 1.363 . S
C2909 C2908 1.415 . S
H2910 C2907 0.999 . S
H2911 C2892 0.913 . S
C546 C337 1.899 . S
C531 C3 1.916 . S
C596 C342 0.821 . S
C581 C49 0.828 . S
C646 C343 1.288 . S
C631 C95 1.297 . S
C681 C146 0.346 . S
C696 C347 0.401 . S
C731 C186 0.972 . S
C746 C350 0.958 . S
C796 C351 1.277 . S
C781 C215 1.287 . S
C831 C249 0.375 . S
C846 C328 0.468 . S
C881 C302 1.909 . S
C896 C344 1.896 . S
C946 C382 3.074 . S
C931 C2 3.181 . S
C981 C43 2.115 . S
C996 C408 2.088 . S
C1046 C360 3.108 . S
C1031 C102 3.162 . S
C1096 C415 1.559 . S
C1081 C135 1.582 . S
C1131 C175 1.576 . S
C1146 C369 1.557 . S
C1196 C411 2.079 . S
C1181 C222 2.135 . S
C1231 C243 2.140 . S
C1246 C375 2.109 . S
C1281 C306 1.211 . S
C1296 C406 1.151 . S
C1331 C9 0.744 . S
C1346 C414 0.745 . S
C1381 C182 1.669 . S
C1396 C401 1.621 . S
C1446 C379 1.465 . S
C1431 C226 1.488 . S
C1496 C407 0.948 . S
C1481 C242 0.955 . S
C1531 C295 2.735 . S
C1546 C374 2.675 . S
C1581 C106 0.680 . S
C1596 C392 0.683 . S
C1646 C383 1.647 . S
C1631 C142 1.682 . S
C1681 C42 0.994 . S
C1696 C376 0.984 . S
C1731 C283 1.877 . S
C1746 C438 1.828 . S
C1781 C169 0.936 . S
C1796 C433 0.920 . S
C1846 C447 1.217 . S
C1831 C202 1.260 . S
C1896 C424 0.249 . S
C1881 C266 0.387 . S
C1931 C66 0.795 . S
C1946 C440 0.792 . S
C1996 C439 1.218 . S
C1981 C82 1.263 . S
C2031 C129 0.345 . S
C2046 C443 0.236 . S
C2081 C22 1.881 . S
C2096 C446 1.826 . S
C2131 C282 2.749 . S
C2146 C472 2.705 . S
C2196 C488 1.610 . S
C2181 C163 1.683 . S
C2231 C209 1.496 . S
C2246 C470 1.469 . S
C2281 C255 0.977 . S
C2296 C503 0.969 . S
C2346 C479 0.954 . S
C2331 C55 0.971 . S
C2381 C89 0.703 . S
C2396 C497 0.710 . S
C2446 C475 1.610 . S
C2431 C123 1.661 . S
C2496 C510 0.771 . S
C2481 C26 0.774 . S
C2546 C502 1.232 . S
C2531 C289 1.236 . S
C2581 C62 2.128 . S
C2596 C507 2.055 . S
C2631 C83 3.176 . S
C2646 C478 3.121 . S
C2696 C511 1.534 . S
C2681 C122 1.602 . S
C2731 C15 3.191 . S
C2746 C465 3.150 . S
C2781 C203 2.175 . S
C2796 C504 2.123 . S
C2846 C456 2.022 . S
C2831 C262 2.120 . S
C2896 C471 1.530 . S
C2881 C162 1.561 . S
