# Generated by pormake.
# Topology alb, (6,12)-cn, num edge types: 1
# Building blocks:
#     Node 0, Type 0, BuildingBlock: OJICUG_clean_sbu_0, # of connection points: 6
#     Node 1, Type 0, BuildingBlock: OJICUG_clean_sbu_0, # of connection points: 6
#     Node 2, Type 1, BuildingBlock: QEWDON_clean_sbu_0, # of connection points: 12
#     Edge 3, Type (0, 1), BuildingBlock: XUDNAN_clean_linker_2, # of connection points: 2
#     Edge 4, Type (0, 1), BuildingBlock: XUDNAN_clean_linker_2, # of connection points: 2
#     Edge 5, Type (0, 1), BuildingBlock: XUDNAN_clean_linker_2, # of connection points: 2
#     Edge 6, Type (0, 1), BuildingBlock: XUDNAN_clean_linker_2, # of connection points: 2
#     Edge 7, Type (0, 1), BuildingBlock: XUDNAN_clean_linker_2, # of connection points: 2
#     Edge 8, Type (0, 1), BuildingBlock: XUDNAN_clean_linker_2, # of connection points: 2
#     Edge 9, Type (0, 1), BuildingBlock: XUDNAN_clean_linker_2, # of connection points: 2
#     Edge 10, Type (0, 1), BuildingBlock: XUDNAN_clean_linker_2, # of connection points: 2
#     Edge 11, Type (0, 1), BuildingBlock: XUDNAN_clean_linker_2, # of connection points: 2
#     Edge 12, Type (0, 1), BuildingBlock: XUDNAN_clean_linker_2, # of connection points: 2
#     Edge 13, Type (0, 1), BuildingBlock: XUDNAN_clean_linker_2, # of connection points: 2
#     Edge 14, Type (0, 1), BuildingBlock: XUDNAN_clean_linker_2, # of connection points: 2
# Relax obj value: 0.123
# Max RMSD: 0.221
# Mean RMSD: 0.143
data_MOF--net-alb--node1-OJICUG_clean_sbu_0--node2-QEWDON_clean_sbu_0--edge1-XUDNAN_clean_linker_2
_symmetry_space_group_name_H-M    P1
_symmetry_Int_Tables_number       1
_symmetry_cell_setting            triclinic
loop_
_symmetry_equiv_pos_as_xyz
'x, y, z'
_cell_length_a     24.646768
_cell_length_b     25.177413
_cell_length_c     20.663713
_cell_angle_alpha  90.782973
_cell_angle_beta   90.279484
_cell_angle_gamma 120.50846
loop_
_atom_site_label
_atom_site_type_symbol
_atom_site_fract_x
_atom_site_fract_y
_atom_site_fract_z
_atom_type_partial_charge
Sc0 Sc 0.31846 0.72838 0.13879 0.0
Sc1 Sc 0.16961 0.59156 0.13898 0.0
Sc2 Sc 0.3067 0.58625 0.10493 0.0
O3 O 0.26489 0.63546 0.12801 0.0
C4 C 0.39199 0.70717 0.02476 0.0
C5 C 0.20029 0.71063 0.05682 0.0
C6 C 0.18511 0.52106 0.01672 0.0
C7 C 0.21607 0.69748 0.24796 0.0
C8 C 0.39987 0.68045 0.21168 0.0
C9 C 0.19936 0.49566 0.20292 0.0
O10 O 0.37421 0.7398 0.0548 0.0
O11 O 0.16222 0.6557 0.07482 0.0
O12 O 0.24367 0.54211 0.02468 0.0
O13 O 0.26985 0.73147 0.22352 0.0
O14 O 0.37368 0.62805 0.18295 0.0
O15 O 0.16786 0.52307 0.20345 0.0
O16 O 0.38545 0.72143 0.20024 0.0
O17 O 0.17526 0.64579 0.22321 0.0
O18 O 0.24716 0.51252 0.16754 0.0
O19 O 0.25696 0.74208 0.07701 0.0
O20 O 0.37297 0.65167 0.03872 0.0
O21 O 0.15174 0.53106 0.05629 0.0
Sc22 Sc 0.68687 0.28782 0.04765 0.0
Sc23 Sc 0.83464 0.42678 0.04251 0.0
Sc24 Sc 0.69442 0.43096 0.05648 0.0
O25 O 0.73874 0.38179 0.04888 0.0
C26 C 0.59948 0.3202 0.96278 0.0
C27 C 0.79118 0.31403 0.94115 0.0
C28 C 0.80025 0.50852 0.95357 0.0
C29 C 0.80626 0.31477 0.1339 0.0
C30 C 0.61577 0.32164 0.15419 0.0
C31 C 0.81491 0.51029 0.14792 0.0
O32 O 0.61753 0.28312 0.97955 0.0
O33 O 0.83065 0.36813 0.96225 0.0
O34 O 0.74757 0.49184 0.97972 0.0
O35 O 0.74894 0.28164 0.11643 0.0
O36 O 0.63612 0.37588 0.13394 0.0
O37 O 0.84939 0.49166 0.122 0.0
O38 O 0.62968 0.2843 0.12779 0.0
O39 O 0.84346 0.36773 0.11129 0.0
O40 O 0.75915 0.49208 0.12862 0.0
O41 O 0.73816 0.28001 0.9674 0.0
O42 O 0.62371 0.37462 0.98597 0.0
O43 O 0.83659 0.48938 0.97164 0.0
Zn44 Zn 0.08983 0.0735 0.36893 0.0
Zn45 Zn 0.12219 0.99672 0.45667 0.0
O46 O 0.06926 0.03625 0.45746 0.0
H47 H 0.0345 0.02896 0.48465 0.0
C48 C 0.08661 0.18505 0.53891 0.0
O49 O 0.04834 0.18719 0.58134 0.0
Zn50 Zn 0.90101 0.89923 0.75519 0.0
Zn51 Zn 0.89947 0.02138 0.74308 0.0
O52 O 0.95829 0.99015 0.76133 0.0
H53 H -0.00251 0.01191 0.78553 0.0
Zn54 Zn 0.0949 0.09765 0.63112 0.0
O55 O 0.0579 0.00584 0.61927 0.0
Zn56 Zn 0.09475 0.97488 0.68363 0.0
H57 H 0.0369 0.98197 0.58081 0.0
Zn58 Zn 0.89187 0.00704 0.51278 0.0
O59 O 0.9337 0.96896 0.56266 0.0
H60 H 0.94238 0.9782 0.60833 0.0
Zn61 Zn 0.91722 0.89217 0.51375 0.0
C62 C 0.85061 0.06378 0.60998 0.0
O63 O 0.81795 0.00573 0.62675 0.0
O64 O 0.18474 0.11464 0.356 0.0
O65 O 0.2075 0.05596 0.41737 0.0
O66 O 0.80853 0.95844 0.76388 0.0
O67 O 0.81252 0.8744 0.78705 0.0
O68 O 0.16967 0.13083 0.69476 0.0
O69 O 0.17062 0.04763 0.72927 0.0
C70 C 0.01545 0.88516 0.42147 0.0
O71 O 0.81764 0.94014 0.45816 0.0
O72 O 0.83981 0.86441 0.45786 0.0
O73 O 0.93108 0.10979 0.77521 0.0
C74 C 0.22409 0.10119 0.37942 0.0
O75 O 0.04207 0.1153 0.33307 0.0
C76 C 0.00136 0.88419 0.78693 0.0
O77 O 0.10966 0.15062 0.54896 0.0
C78 C 0.78221 0.90315 0.78323 0.0
O79 O 0.88562 0.0776 0.56067 0.0
C80 C 0.13103 0.93159 0.57368 0.0
O81 O 0.07328 0.91681 0.40667 0.0
O82 O -0.00511 0.90883 0.46268 0.0
C83 C 0.1942 0.10614 0.72853 0.0
O84 O 0.94503 0.86332 0.80545 0.0
O85 O 0.02102 0.92326 0.74174 0.0
C86 C 0.89369 0.82832 0.63626 0.0
O87 O 0.12043 0.92159 0.63379 0.0
O88 O 0.1308 0.97773 0.5497 0.0
C89 C 0.80487 0.88595 0.44123 0.0
O90 O 0.90002 0.82469 0.57572 0.0
O91 O 0.89639 0.87628 0.66037 0.0
C92 C 0.97934 0.15211 0.74792 0.0
O93 O 0.00524 0.1372 0.70114 0.0
C94 C -0.00123 0.11474 0.36668 0.0
O95 O 0.98462 0.08658 0.42239 0.0
H96 H 0.25908 0.81782 0.2814 0.0
H97 H 0.13265 0.63045 0.3425 0.0
H98 H 0.09913 0.67048 0.43452 0.0
H99 H 0.30447 0.88949 0.44304 0.0
H100 H 0.30572 0.9584 0.41786 0.0
H101 H 0.32335 0.91476 0.36074 0.0
H102 H 0.23714 0.90804 0.28475 0.0
H103 H 0.21564 0.94841 0.34219 0.0
H104 H 0.15724 0.87304 0.31197 0.0
H105 H 0.07802 0.73076 0.51822 0.0
H106 H 0.06957 0.80718 0.58726 0.0
H107 H 0.2052 0.9546 0.46764 0.0
C108 C 0.22512 0.78525 0.31479 0.0
C109 C 0.19883 0.72104 0.30534 0.0
C110 C 0.1535 0.67981 0.34915 0.0
C111 C 0.13435 0.70212 0.40155 0.0
C112 C 0.16029 0.76565 0.4087 0.0
C113 C 0.20472 0.80667 0.36656 0.0
C114 C 0.22319 0.87258 0.38328 0.0
C115 C 0.29334 0.91105 0.4024 0.0
C116 C 0.2073 0.90225 0.32727 0.0
C117 C 0.18153 0.86213 0.44098 0.0
C118 C 0.14615 0.80021 0.45525 0.0
C119 C 0.10536 0.77933 0.50746 0.0
C120 C 0.10094 0.82297 0.54638 0.0
C121 C 0.13626 0.88647 0.53214 0.0
C122 C 0.17698 0.90618 0.4788 0.0
H123 H 0.53978 0.20256 0.19411 0.0
H124 H 0.58668 0.39126 0.23333 0.0
H125 H 0.49917 0.35398 0.30971 0.0
H126 H 0.38163 0.1397 0.18695 0.0
H127 H 0.36027 0.0682 0.22597 0.0
H128 H 0.43385 0.10921 0.18447 0.0
H129 H 0.49408 0.11203 0.28877 0.0
H130 H 0.42036 0.0704 0.3306 0.0
H131 H 0.48222 0.14324 0.36284 0.0
H132 H 0.3969 0.2976 0.36287 0.0
H133 H 0.28827 0.22435 0.39639 0.0
H134 H 0.30782 0.07126 0.32889 0.0
C135 C 0.533 0.23619 0.22042 0.0
C136 C 0.57011 0.29986 0.20761 0.0
C137 C 0.55887 0.34227 0.24212 0.0
C138 C 0.50945 0.32158 0.28595 0.0
C139 C 0.47219 0.25843 0.29547 0.0
C140 C 0.4838 0.21625 0.26455 0.0
C141 C 0.43255 0.15063 0.27821 0.0
C142 C 0.40018 0.11489 0.21516 0.0
C143 C 0.45889 0.1171 0.31746 0.0
C144 C 0.38865 0.16269 0.31856 0.0
C145 C 0.41299 0.22529 0.32852 0.0
C146 C 0.37813 0.24849 0.3573 0.0
C147 C 0.31653 0.20672 0.37579 0.0
C148 C 0.29083 0.14265 0.366 0.0
C149 C 0.32757 0.12013 0.33841 0.0
H150 H 0.12784 0.46074 0.31483 0.0
H151 H 0.22946 0.40703 0.18336 0.0
H152 H 0.20749 0.32023 0.25263 0.0
H153 H 0.18237 0.42685 0.45946 0.0
H154 H 0.10928 0.39701 0.50218 0.0
H155 H 0.12879 0.45352 0.44046 0.0
H156 H 0.024 0.38 0.37912 0.0
H157 H 0.00424 0.32436 0.44206 0.0
H158 H 0.00557 0.30275 0.35911 0.0
H159 H 0.18474 0.24592 0.33926 0.0
H160 H 0.15385 0.18171 0.43624 0.0
H161 H 0.06155 0.27734 0.51105 0.0
C162 C 0.14459 0.43014 0.30028 0.0
C163 C 0.18071 0.4411 0.24371 0.0
C164 C 0.20227 0.40021 0.22669 0.0
C165 C 0.18987 0.35047 0.2656 0.0
C166 C 0.15546 0.34163 0.32149 0.0
C167 C 0.13254 0.37976 0.33885 0.0
C168 C 0.09884 0.36061 0.40314 0.0
C169 C 0.13181 0.41259 0.45432 0.0
C170 C 0.02901 0.3408 0.39538 0.0
C171 C 0.10677 0.30612 0.41874 0.0
C172 C 0.14007 0.29651 0.37108 0.0
C173 C 0.15753 0.2521 0.37641 0.0
C174 C 0.13993 0.21595 0.43178 0.0
C175 C 0.10438 0.22367 0.48068 0.0
C176 C 0.08761 0.26944 0.47388 0.0
H177 H 0.91038 0.30403 0.12294 0.0
H178 H 0.75486 0.26473 0.24912 0.0
H179 H 0.79098 0.21385 0.32561 0.0
H180 H 0.89853 0.15717 0.1445 0.0
H181 H 0.98227 0.18825 0.13879 0.0
H182 H 0.94582 0.22519 0.09802 0.0
H183 H 0.0247 0.32686 0.15679 0.0
H184 H 0.05895 0.29013 0.20187 0.0
H185 H 0.02671 0.33104 0.24378 0.0
H186 H 0.84194 0.16541 0.38628 0.0
H187 H 0.90098 0.117 0.4254 0.0
H188 H 0.02056 0.18278 0.25674 0.0
C189 C 0.88494 0.28578 0.16743 0.0
C190 C 0.83073 0.28905 0.18129 0.0
C191 C 0.79696 0.263 0.23851 0.0
C192 C 0.8171 0.23416 0.28202 0.0
C193 C 0.87029 0.23082 0.26668 0.0
C194 C 0.90344 0.25536 0.21052 0.0
C195 C 0.95592 0.24118 0.20309 0.0
C196 C 0.94497 0.20053 0.14252 0.0
C197 C 0.02043 0.30084 0.20134 0.0
C198 C 0.94777 0.20576 0.2645 0.0
C199 C 0.89809 0.20037 0.30039 0.0
C200 C 0.8808 0.16906 0.35857 0.0
C201 C 0.91468 0.14176 0.38039 0.0
C202 C 0.96504 0.14567 0.34392 0.0
C203 C 0.98205 0.17867 0.28553 0.0
H204 H 0.47666 0.79153 0.27296 0.0
H205 H 0.44703 0.60694 0.24708 0.0
H206 H 0.54682 0.63927 0.30517 0.0
H207 H 0.63723 0.87093 0.24426 0.0
H208 H 0.65735 0.93099 0.30422 0.0
H209 H 0.58021 0.89225 0.26708 0.0
H210 H 0.5285 0.86212 0.37979 0.0
H211 H 0.60551 0.90186 0.41747 0.0
H212 H 0.55164 0.82199 0.43484 0.0
H213 H 0.6542 0.69395 0.35577 0.0
H214 H 0.75776 0.76497 0.40576 0.0
H215 H 0.71667 0.91356 0.39861 0.0
C216 C 0.49028 0.75739 0.28065 0.0
C217 C 0.45399 0.69673 0.25522 0.0
C218 C 0.47397 0.65373 0.26603 0.0
C219 C 0.53066 0.67163 0.29887 0.0
C220 C 0.56642 0.73243 0.32096 0.0
C221 C 0.54662 0.77441 0.31324 0.0
C222 C 0.59503 0.8376 0.33925 0.0
C223 C 0.61884 0.88575 0.28548 0.0
C224 C 0.56859 0.85701 0.39624 0.0
C225 C 0.64572 0.82483 0.36151 0.0
C226 C 0.62828 0.76391 0.35062 0.0
C227 C 0.66815 0.74161 0.36533 0.0
C228 C 0.72703 0.78247 0.39333 0.0
C229 C 0.74528 0.84486 0.40632 0.0
C230 C 0.70413 0.86618 0.38949 0.0
H231 H 0.9355 0.60932 0.16998 0.0
H232 H 0.74683 0.51501 0.24797 0.0
H233 H 0.77883 0.59746 0.33045 0.0
H234 H 0.01994 0.67336 0.32843 0.0
H235 H 0.07738 0.74492 0.29258 0.0
H236 H 0.04205 0.67438 0.24523 0.0
H237 H 0.00819 0.72577 0.1604 0.0
H238 H 0.041 0.79593 0.20788 0.0
H239 H 0.9592 0.75698 0.18325 0.0
H240 H 0.82787 0.69442 0.39857 0.0
H241 H 0.89266 0.79762 0.44941 0.0
H242 H 0.04852 0.83048 0.32671 0.0
C243 C 0.90162 0.60523 0.20569 0.0
C244 C 0.83878 0.55547 0.20278 0.0
C245 C 0.79527 0.55265 0.2493 0.0
C246 C 0.81296 0.59924 0.29646 0.0
C247 C 0.87452 0.64868 0.29685 0.0
C248 C 0.91846 0.65186 0.25314 0.0
C249 C 0.98035 0.71217 0.26178 0.0
C250 C 0.03305 0.70046 0.28331 0.0
C251 C -0.00186 0.74999 0.19962 0.0
C252 C 0.96359 0.7427 0.31566 0.0
C253 C 0.90256 0.7051 0.33569 0.0
C254 C 0.87601 0.72412 0.38363 0.0
C255 C 0.913 0.7831 0.41202 0.0
C256 C 0.97565 0.82259 0.3921 0.0
C257 C 0.00096 0.80155 0.34341 0.0
H258 H 0.08127 0.69245 0.0357 0.0
H259 H 0.27389 0.79513 0.96853 0.0
H260 H 0.24333 0.84775 0.88926 0.0
H261 H 0.00314 0.67366 0.87968 0.0
H262 H 0.94269 0.68527 0.91429 0.0
H263 H 0.97932 0.65263 0.96222 0.0
H264 H 0.00679 0.738 0.04791 0.0
H265 H 0.97281 0.77247 -0.00101 0.0
H266 H 0.05362 0.81794 0.02635 0.0
H267 H 0.19326 0.89196 0.81953 0.0
H268 H 0.12655 0.92568 0.76562 0.0
H269 H 0.96695 0.79527 0.87787 0.0
C270 C 0.1167 0.72542 0.00371 0.0
C271 C 0.17986 0.73956 0.00811 0.0
C272 C 0.22523 0.7838 0.9662 0.0
C273 C 0.20836 0.81381 0.92081 0.0
C274 C 0.14597 0.79946 0.9181 0.0
C275 C 0.10084 0.75657 0.95852 0.0
C276 C 0.03784 0.75206 0.94755 0.0
C277 C 0.98782 0.68697 0.9245 0.0
C278 C 0.01659 0.77138 0.00886 0.0
C279 C 0.05458 0.79854 0.8944 0.0
C280 C 0.11718 0.82539 0.8781 0.0
C281 C 0.14396 0.87093 0.83152 0.0
C282 C 0.10567 0.88971 0.80098 0.0
C283 C 0.04139 0.86296 0.81715 0.0
C284 C 0.01577 0.81652 0.86422 0.0
H285 H 0.51111 0.20037 0.92788 0.0
H286 H 0.56273 0.39097 0.89881 0.0
H287 H 0.46461 0.35596 0.83682 0.0
H288 H 0.43568 0.14198 0.76796 0.0
H289 H 0.37461 0.06997 0.79955 0.0
H290 H 0.45112 0.10988 0.83832 0.0
H291 H 0.39884 0.10913 0.94705 0.0
H292 H 0.32231 0.0701 0.9084 0.0
H293 H 0.34886 0.14208 0.95143 0.0
H294 H 0.35925 0.30211 0.78532 0.0
H295 H 0.25515 0.2317 0.73722 0.0
H296 H 0.27005 0.07466 0.79736 0.0
C297 C 0.50238 0.23473 0.90736 0.0
C298 C 0.5447 0.29847 0.91836 0.0
C299 C 0.53105 0.34191 0.89133 0.0
C300 C 0.47537 0.32254 0.85606 0.0
C301 C 0.43383 0.25956 0.84793 0.0
C302 C 0.44676 0.21617 0.87193 0.0
C303 C 0.39301 0.15127 0.85712 0.0
C304 C 0.41492 0.11622 0.8131 0.0
C305 C 0.36406 0.11609 0.91974 0.0
C306 C 0.34778 0.16525 0.82171 0.0
C307 C 0.37245 0.22807 0.81725 0.0
C308 C 0.33954 0.25277 0.78788 0.0
C309 C 0.28021 0.21221 0.7609 0.0
C310 C 0.25427 0.14746 0.76318 0.0
C311 C 0.28843 0.12382 0.79478 0.0
H312 H 0.07694 0.4105 0.01952 0.0
H313 H 0.22594 0.53451 0.89268 0.0
H314 H 0.17999 0.4566 0.80378 0.0
H315 H 0.08091 0.27914 0.96797 0.0
H316 H -0.00251 0.22734 0.9771 0.0
H317 H 0.03763 0.29668 0.02598 0.0
H318 H 0.95664 0.32427 0.98642 0.0
H319 H 0.91864 0.25967 0.93037 0.0
H320 H 0.95176 0.33748 0.90196 0.0
H321 H 0.12599 0.36187 0.73406 0.0
H322 H 0.06943 0.2559 0.68873 0.0
H323 H 0.95691 0.19284 0.8621 0.0
C324 C 0.09849 0.42181 0.9723 0.0
C325 C 0.15384 0.47859 0.9619 0.0
C326 C 0.18281 0.49129 0.90072 0.0
C327 C 0.15703 0.4475 0.85016 0.0
C328 C 0.10299 0.39119 0.86225 0.0
C329 C 0.07438 0.37804 0.92199 0.0
C330 C 0.02157 0.31168 0.925 0.0
C331 C 0.03525 0.27666 0.97706 0.0
C332 C 0.95826 0.3079 0.93663 0.0
C333 C 0.02496 0.28947 0.85755 0.0
C334 C 0.07208 0.33607 0.82207 0.0
C335 C 0.0882 0.32521 0.76082 0.0
C336 C 0.05604 0.26485 0.73559 0.0
C337 C 0.0085 0.21633 0.77169 0.0
C338 C 0.99205 0.22923 0.8328 0.0
H339 H 0.74604 0.19252 0.90989 0.0
H340 H 0.87348 0.37774 0.84376 0.0
H341 H 0.90279 0.33446 0.751 0.0
H342 H 0.84227 0.12861 0.8687 0.0
H343 H 0.7772 0.05482 0.84297 0.0
H344 H 0.76584 0.10011 0.90375 0.0
H345 H 0.67601 0.09667 0.83508 0.0
H346 H 0.68639 0.05069 0.7744 0.0
H347 H 0.69053 0.1217 0.7524 0.0
H348 H 0.91898 0.26975 0.66573 0.0
H349 H 0.91905 0.18965 0.59497 0.0
H350 H 0.77923 0.04772 0.71701 0.0
C351 C 0.77983 0.22408 0.8757 0.0
C352 C 0.80774 0.2886 0.88429 0.0
C353 C 0.8518 0.32819 0.83841 0.0
C354 C 0.86871 0.30401 0.78558 0.0
C355 C 0.84083 0.24015 0.77908 0.0
C356 C 0.79714 0.20078 0.82287 0.0
C357 C 0.77375 0.13395 0.80507 0.0
C358 C 0.79081 0.10254 0.85827 0.0
C359 C 0.70245 0.0987 0.79087 0.0
C360 C 0.8108 0.14174 0.74421 0.0
C361 C 0.84946 0.20325 0.73 0.0
C362 C 0.88855 0.22146 0.67626 0.0
C363 C 0.88814 0.1756 0.63622 0.0
C364 C 0.84891 0.11226 0.65017 0.0
C365 C 0.80961 0.09556 0.70476 0.0
H366 H 0.48173 0.67927 0.9899 0.0
H367 H 0.41186 0.80257 0.94807 0.0
H368 H 0.49849 0.85824 0.87131 0.0
H369 H 0.63987 0.79279 0.99498 0.0
H370 H 0.66897 0.74663 0.95886 0.0
H371 H 0.59634 0.71013 0.00264 0.0
H372 H 0.53833 0.64137 0.9021 0.0
H373 H 0.61109 0.6777 0.85814 0.0
H374 H 0.54265 0.67689 0.82565 0.0
H375 H 0.59637 0.90619 0.80843 0.0
H376 H 0.70237 0.94677 0.76508 0.0
H377 H 0.71243 0.79476 0.84949 0.0
C378 C 0.48371 0.71688 0.96313 0.0
C379 C 0.43978 0.7363 0.97418 0.0
C380 C 0.44493 0.78691 0.93997 0.0
C381 C 0.49372 0.81853 0.89611 0.0
C382 C 0.53702 0.79909 0.88731 0.0
C383 C 0.53268 0.74951 0.9198 0.0
C384 C 0.58915 0.74228 0.90658 0.0
C385 C 0.62573 0.74836 0.96951 0.0
C386 C 0.56908 0.68091 0.87098 0.0
C387 C 0.62662 0.79657 0.86295 0.0
C388 C 0.59504 0.82798 0.85178 0.0
C389 C 0.62125 0.88162 0.81612 0.0
C390 C 0.68178 0.90442 0.79192 0.0
C391 C 0.71593 0.87401 0.8039 0.0
C392 C 0.68735 0.81868 0.83894 0.0
H393 H 0.75893 0.58808 0.92321 0.0
H394 H 0.88609 0.52603 0.86094 0.0
H395 H 0.92188 0.59996 0.77181 0.0
H396 H 0.71724 0.61275 0.76003 0.0
H397 H 0.71374 0.6798 0.78516 0.0
H398 H 0.69537 0.61924 0.84161 0.0
H399 H 0.77822 0.69939 0.92048 0.0
H400 H 0.80034 0.7606 0.8639 0.0
H401 H 0.85887 0.7451 0.89609 0.0
H402 H 0.94705 0.68248 0.69265 0.0
H403 H 0.95733 0.76726 0.62498 0.0
H404 H 0.81516 0.77688 0.73873 0.0
C405 C 0.79397 0.58975 0.89053 0.0
C406 C 0.82006 0.55161 0.89921 0.0
C407 C 0.86586 0.55518 0.85551 0.0
C408 C 0.88626 0.59677 0.80456 0.0
C409 C 0.86074 0.6347 0.79833 0.0
C410 C 0.81525 0.63137 0.83969 0.0
C411 C 0.79609 0.67796 0.82251 0.0
C412 C 0.72649 0.64548 0.80102 0.0
C413 C 0.80924 0.72349 0.87906 0.0
C414 C 0.83934 0.7091 0.76621 0.0
C415 C 0.8758 0.68303 0.75282 0.0
C416 C 0.91875 0.70326 0.7025 0.0
C417 C 0.92424 0.75122 0.66441 0.0
C418 C 0.88764 0.77873 0.67756 0.0
C419 C 0.8445 0.75725 0.7288 0.0
loop_
_geom_bond_atom_site_label_1
_geom_bond_atom_site_label_2
_geom_bond_distance
_geom_bond_site_symmetry_2
_ccdc_geom_bond_type
Sc0 O3 2.025 . S
Sc0 O10 2.105 . S
Sc0 O13 2.105 . S
Sc0 O16 2.105 . S
Sc0 O19 2.105 . S
Sc1 O3 2.025 . S
Sc1 O11 2.105 . S
Sc1 O15 2.105 . S
Sc1 O17 2.105 . S
Sc1 O21 2.105 . S
Sc2 O3 2.025 . S
Sc2 O12 2.105 . S
Sc2 O14 2.105 . S
Sc2 O18 2.105 . S
Sc2 O20 2.105 . S
O3 Sc0 2.025 . S
O3 Sc1 2.025 . S
O3 Sc2 2.025 . S
C4 O10 1.268 . S
C4 O20 1.268 . S
C5 O11 1.268 . S
C5 O19 1.268 . S
C6 O12 1.268 . S
C6 O21 1.268 . S
C7 O13 1.268 . S
C7 O17 1.268 . S
C8 O14 1.268 . S
C8 O16 1.268 . S
C9 O15 1.268 . S
C9 O18 1.268 . S
O10 Sc0 2.105 . S
O10 C4 1.268 . S
O11 Sc1 2.105 . S
O11 C5 1.268 . S
O12 Sc2 2.105 . S
O12 C6 1.268 . S
O13 Sc0 2.105 . S
O13 C7 1.268 . S
O14 Sc2 2.105 . S
O14 C8 1.268 . S
O15 Sc1 2.105 . S
O15 C9 1.268 . S
O16 Sc0 2.105 . S
O16 C8 1.268 . S
O17 Sc1 2.105 . S
O17 C7 1.268 . S
O18 Sc2 2.105 . S
O18 C9 1.268 . S
O19 Sc0 2.105 . S
O19 C5 1.268 . S
O20 Sc2 2.105 . S
O20 C4 1.268 . S
O21 Sc1 2.105 . S
O21 C6 1.268 . S
Sc22 O25 2.025 . S
Sc22 O32 2.105 1_554 S
Sc22 O35 2.105 . S
Sc22 O38 2.105 . S
Sc22 O41 2.105 1_554 S
Sc23 O25 2.025 . S
Sc23 O33 2.105 1_554 S
Sc23 O37 2.105 . S
Sc23 O39 2.105 . S
Sc23 O43 2.105 1_554 S
Sc24 O25 2.025 . S
Sc24 O34 2.105 1_554 S
Sc24 O36 2.105 . S
Sc24 O40 2.105 . S
Sc24 O42 2.105 1_554 S
O25 Sc22 2.025 . S
O25 Sc23 2.025 . S
O25 Sc24 2.025 . S
C26 O32 1.268 . S
C26 O42 1.268 . S
C27 O33 1.268 . S
C27 O41 1.268 . S
C28 O34 1.268 . S
C28 O43 1.268 . S
C29 O35 1.268 . S
C29 O39 1.268 . S
C30 O36 1.268 . S
C30 O38 1.268 . S
C31 O37 1.268 . S
C31 O40 1.268 . S
O32 Sc22 2.105 1_556 S
O32 C26 1.268 . S
O33 Sc23 2.105 1_556 S
O33 C27 1.268 . S
O34 Sc24 2.105 1_556 S
O34 C28 1.268 . S
O35 Sc22 2.105 . S
O35 C29 1.268 . S
O36 Sc24 2.105 . S
O36 C30 1.268 . S
O37 Sc23 2.105 . S
O37 C31 1.268 . S
O38 Sc22 2.105 . S
O38 C30 1.268 . S
O39 Sc23 2.105 . S
O39 C29 1.268 . S
O40 Sc24 2.105 . S
O40 C31 1.268 . S
O41 Sc22 2.105 1_556 S
O41 C27 1.268 . S
O42 Sc24 2.105 1_556 S
O42 C26 1.268 . S
O43 Sc23 2.105 1_556 S
O43 C28 1.268 . S
Zn44 O46 1.933 . S
Zn44 O64 1.985 . S
Zn44 O75 1.956 1_455 S
Zn45 O46 1.911 1_565 S
Zn45 O65 1.970 1_565 S
Zn45 O81 1.945 . S
Zn45 O88 1.981 . S
O46 Zn44 1.933 . S
O46 Zn45 1.911 1_545 S
O46 H47 0.841 1_445 S
H47 O46 0.841 1_665 S
C48 O49 1.246 . S
C48 O77 1.276 . S
O49 C48 1.246 . S
Zn50 O52 1.911 . S
Zn50 O67 1.970 . S
Zn50 O84 1.945 1_655 S
Zn50 O91 1.981 . S
Zn51 O52 1.933 1_545 S
Zn51 O66 1.985 1_545 S
Zn51 O73 1.955 1_655 S
O52 Zn50 1.911 . S
O52 Zn51 1.933 1_565 S
O52 H53 0.841 1_665 S
H53 O52 0.841 1_445 S
Zn54 O55 1.933 . S
Zn54 O68 1.985 . S
Zn54 O77 1.955 . S
O55 Zn54 1.933 . S
O55 Zn56 1.911 . S
O55 H57 0.841 . S
Zn56 O55 1.911 . S
Zn56 O69 1.970 . S
Zn56 O85 1.981 1_545 S
Zn56 O87 1.945 1_545 S
H57 O55 0.841 . S
Zn58 O59 1.933 . S
Zn58 O71 1.985 . S
Zn58 O79 1.955 1_565 S
O59 Zn58 1.933 . S
O59 H60 0.841 . S
O59 Zn61 1.911 . S
H60 O59 0.841 . S
Zn61 O59 1.911 . S
Zn61 O72 1.970 . S
Zn61 O82 1.981 . S
Zn61 O90 1.945 . S
C62 O63 1.246 . S
C62 O79 1.276 . S
O63 C62 1.246 . S
O64 Zn44 1.985 . S
O64 C74 1.245 . S
O65 Zn45 1.970 1_545 S
O65 C74 1.263 . S
O66 Zn51 1.985 1_565 S
O66 C78 1.245 . S
O67 Zn50 1.970 . S
O67 C78 1.263 . S
O68 Zn54 1.985 . S
O68 C83 1.245 . S
O69 Zn56 1.970 . S
O69 C83 1.263 . S
C70 O81 1.262 1_655 S
C70 O82 1.245 . S
O71 Zn58 1.985 . S
O71 C89 1.245 . S
O72 Zn61 1.970 . S
O72 C89 1.263 . S
O73 Zn51 1.955 1_455 S
O73 C92 1.276 . S
C74 O64 1.245 . S
C74 O65 1.263 . S
O75 Zn44 1.956 1_655 S
O75 C94 1.275 . S
C76 O84 1.262 . S
C76 O85 1.245 . S
O77 C48 1.276 . S
O77 Zn54 1.955 . S
C78 O66 1.245 . S
C78 O67 1.263 . S
O79 Zn58 1.955 1_545 S
O79 C62 1.276 . S
C80 O87 1.262 . S
C80 O88 1.245 . S
O81 Zn45 1.945 . S
O81 C70 1.262 1_455 S
O82 Zn61 1.981 . S
O82 C70 1.245 . S
C83 O68 1.245 . S
C83 O69 1.263 . S
O84 Zn50 1.945 1_455 S
O84 C76 1.262 . S
O85 Zn56 1.981 1_565 S
O85 C76 1.245 . S
C86 O90 1.262 . S
C86 O91 1.245 . S
O87 Zn56 1.945 1_565 S
O87 C80 1.262 . S
O88 Zn45 1.981 . S
O88 C80 1.245 . S
C89 O71 1.245 . S
C89 O72 1.263 . S
O90 Zn61 1.945 . S
O90 C86 1.262 . S
O91 Zn50 1.981 . S
O91 C86 1.245 . S
C92 O73 1.276 . S
C92 O93 1.246 . S
O93 C92 1.246 . S
C94 O75 1.275 . S
C94 O95 1.246 . S
O95 C94 1.246 . S
H96 C108 0.930 . S
H97 C110 0.930 . S
H98 C111 0.930 . S
H99 C115 0.959 . S
H100 C115 0.959 . S
H101 C115 0.961 . S
H102 C116 0.960 . S
H103 C116 0.961 . S
H104 C116 0.959 . S
H105 C119 0.929 . S
H106 C120 0.931 . S
H107 C122 0.930 . S
C108 H96 0.930 . S
C108 C109 1.399 . S
C108 C113 1.399 . S
C109 C108 1.399 . S
C109 C110 1.376 . S
C110 H97 0.930 . S
C110 C109 1.376 . S
C110 C111 1.388 . S
C111 H98 0.930 . S
C111 C110 1.388 . S
C111 C112 1.390 . S
C112 C111 1.390 . S
C112 C113 1.394 . S
C112 C118 1.465 . S
C113 C108 1.399 . S
C113 C112 1.394 . S
C113 C114 1.516 . S
C114 C113 1.516 . S
C114 C115 1.502 . S
C114 C116 1.561 . S
C114 C117 1.526 . S
C115 H99 0.959 . S
C115 H100 0.959 . S
C115 H101 0.961 . S
C115 C114 1.502 . S
C116 H102 0.960 . S
C116 H103 0.961 . S
C116 H104 0.959 . S
C116 C114 1.561 . S
C117 C114 1.526 . S
C117 C118 1.396 . S
C117 C122 1.390 . S
C118 C112 1.465 . S
C118 C117 1.396 . S
C118 C119 1.399 . S
C119 H105 0.929 . S
C119 C118 1.399 . S
C119 C120 1.385 . S
C120 H106 0.931 . S
C120 C119 1.385 . S
C120 C121 1.389 . S
C121 C120 1.389 . S
C121 C122 1.387 . S
C122 H107 0.930 . S
C122 C117 1.390 . S
C122 C121 1.387 . S
H123 C135 0.930 . S
H124 C137 0.930 . S
H125 C138 0.930 . S
H126 C142 0.959 . S
H127 C142 0.959 . S
H128 C142 0.961 . S
H129 C143 0.960 . S
H130 C143 0.961 . S
H131 C143 0.959 . S
H132 C146 0.929 . S
H133 C147 0.931 . S
H134 C149 0.930 . S
C135 H123 0.930 . S
C135 C136 1.399 . S
C135 C140 1.399 . S
C136 C135 1.399 . S
C136 C137 1.376 . S
C137 H124 0.930 . S
C137 C136 1.376 . S
C137 C138 1.388 . S
C138 H125 0.930 . S
C138 C137 1.388 . S
C138 C139 1.390 . S
C139 C138 1.390 . S
C139 C140 1.394 . S
C139 C145 1.465 . S
C140 C135 1.399 . S
C140 C139 1.394 . S
C140 C141 1.516 . S
C141 C140 1.516 . S
C141 C142 1.502 . S
C141 C143 1.561 . S
C141 C144 1.526 . S
C142 H126 0.959 . S
C142 H127 0.959 . S
C142 H128 0.961 . S
C142 C141 1.502 . S
C143 H129 0.960 . S
C143 H130 0.961 . S
C143 H131 0.959 . S
C143 C141 1.561 . S
C144 C141 1.526 . S
C144 C145 1.396 . S
C144 C149 1.390 . S
C145 C139 1.465 . S
C145 C144 1.396 . S
C145 C146 1.399 . S
C146 H132 0.929 . S
C146 C145 1.399 . S
C146 C147 1.385 . S
C147 H133 0.931 . S
C147 C146 1.385 . S
C147 C148 1.389 . S
C148 C147 1.389 . S
C148 C149 1.387 . S
C149 H134 0.930 . S
C149 C144 1.390 . S
C149 C148 1.387 . S
H150 C162 0.930 . S
H151 C164 0.930 . S
H152 C165 0.930 . S
H153 C169 0.959 . S
H154 C169 0.959 . S
H155 C169 0.961 . S
H156 C170 0.960 . S
H157 C170 0.961 . S
H158 C170 0.959 . S
H159 C173 0.929 . S
H160 C174 0.931 . S
H161 C176 0.930 . S
C162 H150 0.930 . S
C162 C163 1.399 . S
C162 C167 1.399 . S
C163 C162 1.399 . S
C163 C164 1.376 . S
C164 H151 0.930 . S
C164 C163 1.376 . S
C164 C165 1.388 . S
C165 H152 0.930 . S
C165 C164 1.388 . S
C165 C166 1.390 . S
C166 C165 1.390 . S
C166 C167 1.394 . S
C166 C172 1.465 . S
C167 C162 1.399 . S
C167 C166 1.394 . S
C167 C168 1.516 . S
C168 C167 1.516 . S
C168 C169 1.502 . S
C168 C170 1.561 . S
C168 C171 1.526 . S
C169 H153 0.959 . S
C169 H154 0.959 . S
C169 H155 0.961 . S
C169 C168 1.502 . S
C170 H156 0.960 . S
C170 H157 0.961 . S
C170 H158 0.959 . S
C170 C168 1.561 . S
C171 C168 1.526 . S
C171 C172 1.396 . S
C171 C176 1.390 . S
C172 C166 1.465 . S
C172 C171 1.396 . S
C172 C173 1.399 . S
C173 H159 0.929 . S
C173 C172 1.399 . S
C173 C174 1.385 . S
C174 H160 0.931 . S
C174 C173 1.385 . S
C174 C175 1.389 . S
C175 C174 1.389 . S
C175 C176 1.387 . S
C176 H161 0.930 . S
C176 C171 1.390 . S
C176 C175 1.387 . S
H177 C189 0.930 . S
H178 C191 0.930 . S
H179 C192 0.930 . S
H180 C196 0.959 . S
H181 C196 0.959 . S
H182 C196 0.961 . S
H183 C197 0.960 . S
H184 C197 0.961 . S
H185 C197 0.959 . S
H186 C200 0.929 . S
H187 C201 0.931 . S
H188 C203 0.930 . S
C189 H177 0.930 . S
C189 C190 1.399 . S
C189 C194 1.399 . S
C190 C189 1.399 . S
C190 C191 1.376 . S
C191 H178 0.930 . S
C191 C190 1.376 . S
C191 C192 1.388 . S
C192 H179 0.930 . S
C192 C191 1.388 . S
C192 C193 1.390 . S
C193 C192 1.390 . S
C193 C194 1.394 . S
C193 C199 1.465 . S
C194 C189 1.399 . S
C194 C193 1.394 . S
C194 C195 1.516 . S
C195 C194 1.516 . S
C195 C196 1.502 . S
C195 C197 1.561 . S
C195 C198 1.526 . S
C196 H180 0.959 . S
C196 H181 0.959 . S
C196 H182 0.961 . S
C196 C195 1.502 . S
C197 H183 0.960 . S
C197 H184 0.961 . S
C197 H185 0.959 . S
C197 C195 1.561 . S
C198 C195 1.526 . S
C198 C199 1.396 . S
C198 C203 1.390 . S
C199 C193 1.465 . S
C199 C198 1.396 . S
C199 C200 1.399 . S
C200 H186 0.929 . S
C200 C199 1.399 . S
C200 C201 1.385 . S
C201 H187 0.931 . S
C201 C200 1.385 . S
C201 C202 1.389 . S
C202 C201 1.389 . S
C202 C203 1.387 . S
C203 H188 0.930 . S
C203 C198 1.390 . S
C203 C202 1.387 . S
H204 C216 0.930 . S
H205 C218 0.930 . S
H206 C219 0.930 . S
H207 C223 0.959 . S
H208 C223 0.959 . S
H209 C223 0.961 . S
H210 C224 0.960 . S
H211 C224 0.961 . S
H212 C224 0.959 . S
H213 C227 0.929 . S
H214 C228 0.931 . S
H215 C230 0.930 . S
C216 H204 0.930 . S
C216 C217 1.399 . S
C216 C221 1.399 . S
C217 C216 1.399 . S
C217 C218 1.376 . S
C218 H205 0.930 . S
C218 C217 1.376 . S
C218 C219 1.388 . S
C219 H206 0.930 . S
C219 C218 1.388 . S
C219 C220 1.390 . S
C220 C219 1.390 . S
C220 C221 1.394 . S
C220 C226 1.465 . S
C221 C216 1.399 . S
C221 C220 1.394 . S
C221 C222 1.516 . S
C222 C221 1.516 . S
C222 C223 1.502 . S
C222 C224 1.561 . S
C222 C225 1.526 . S
C223 H207 0.959 . S
C223 H208 0.959 . S
C223 H209 0.961 . S
C223 C222 1.502 . S
C224 H210 0.960 . S
C224 H211 0.961 . S
C224 H212 0.959 . S
C224 C222 1.561 . S
C225 C222 1.526 . S
C225 C226 1.396 . S
C225 C230 1.390 . S
C226 C220 1.465 . S
C226 C225 1.396 . S
C226 C227 1.399 . S
C227 H213 0.929 . S
C227 C226 1.399 . S
C227 C228 1.385 . S
C228 H214 0.931 . S
C228 C227 1.385 . S
C228 C229 1.389 . S
C229 C228 1.389 . S
C229 C230 1.387 . S
C230 H215 0.930 . S
C230 C225 1.390 . S
C230 C229 1.387 . S
H231 C243 0.930 . S
H232 C245 0.930 . S
H233 C246 0.930 . S
H234 C250 0.959 . S
H235 C250 0.959 . S
H236 C250 0.961 . S
H237 C251 0.960 . S
H238 C251 0.961 . S
H239 C251 0.959 . S
H240 C254 0.929 . S
H241 C255 0.931 . S
H242 C257 0.930 . S
C243 H231 0.930 . S
C243 C244 1.399 . S
C243 C248 1.399 . S
C244 C243 1.399 . S
C244 C245 1.376 . S
C245 H232 0.930 . S
C245 C244 1.376 . S
C245 C246 1.388 . S
C246 H233 0.930 . S
C246 C245 1.388 . S
C246 C247 1.390 . S
C247 C246 1.390 . S
C247 C248 1.394 . S
C247 C253 1.465 . S
C248 C243 1.399 . S
C248 C247 1.394 . S
C248 C249 1.516 . S
C249 C248 1.516 . S
C249 C250 1.502 . S
C249 C251 1.561 . S
C249 C252 1.526 . S
C250 H234 0.959 . S
C250 H235 0.959 . S
C250 H236 0.961 . S
C250 C249 1.502 . S
C251 H237 0.960 . S
C251 H238 0.961 . S
C251 H239 0.959 . S
C251 C249 1.561 . S
C252 C249 1.526 . S
C252 C253 1.396 . S
C252 C257 1.390 . S
C253 C247 1.465 . S
C253 C252 1.396 . S
C253 C254 1.399 . S
C254 H240 0.929 . S
C254 C253 1.399 . S
C254 C255 1.385 . S
C255 H241 0.931 . S
C255 C254 1.385 . S
C255 C256 1.389 . S
C256 C255 1.389 . S
C256 C257 1.387 . S
C257 H242 0.930 . S
C257 C252 1.390 . S
C257 C256 1.387 . S
H258 C270 0.930 1_554 S
H259 C272 0.930 . S
H260 C273 0.930 . S
H261 C277 0.959 . S
H262 C277 0.959 . S
H263 C277 0.961 . S
H264 C278 0.960 1_554 S
H265 C278 0.961 . S
H266 C278 0.959 . S
H267 C281 0.929 . S
H268 C282 0.931 . S
H269 C284 0.930 . S
C270 H258 0.930 1_556 S
C270 C271 1.399 . S
C270 C275 1.399 . S
C271 C270 1.399 . S
C271 C272 1.376 . S
C272 H259 0.930 . S
C272 C271 1.376 . S
C272 C273 1.388 . S
C273 H260 0.930 . S
C273 C272 1.388 . S
C273 C274 1.390 . S
C274 C273 1.390 . S
C274 C275 1.394 . S
C274 C280 1.465 . S
C275 C270 1.399 . S
C275 C274 1.394 . S
C275 C276 1.516 . S
C276 C275 1.516 . S
C276 C277 1.502 . S
C276 C278 1.561 . S
C276 C279 1.526 . S
C277 H261 0.959 . S
C277 H262 0.959 . S
C277 H263 0.961 . S
C277 C276 1.502 . S
C278 H264 0.960 1_556 S
C278 H265 0.961 . S
C278 H266 0.959 . S
C278 C276 1.561 . S
C279 C276 1.526 . S
C279 C280 1.396 . S
C279 C284 1.390 . S
C280 C274 1.465 . S
C280 C279 1.396 . S
C280 C281 1.399 . S
C281 H267 0.929 . S
C281 C280 1.399 . S
C281 C282 1.385 . S
C282 H268 0.931 . S
C282 C281 1.385 . S
C282 C283 1.389 . S
C283 C282 1.389 . S
C283 C284 1.387 . S
C284 H269 0.930 . S
C284 C279 1.390 . S
C284 C283 1.387 . S
H285 C297 0.930 . S
H286 C299 0.930 . S
H287 C300 0.930 . S
H288 C304 0.959 . S
H289 C304 0.959 . S
H290 C304 0.961 . S
H291 C305 0.960 . S
H292 C305 0.961 . S
H293 C305 0.959 . S
H294 C308 0.929 . S
H295 C309 0.931 . S
H296 C311 0.930 . S
C297 H285 0.930 . S
C297 C298 1.399 . S
C297 C302 1.399 . S
C298 C297 1.399 . S
C298 C299 1.376 . S
C299 H286 0.930 . S
C299 C298 1.376 . S
C299 C300 1.388 . S
C300 H287 0.930 . S
C300 C299 1.388 . S
C300 C301 1.390 . S
C301 C300 1.390 . S
C301 C302 1.394 . S
C301 C307 1.465 . S
C302 C297 1.399 . S
C302 C301 1.394 . S
C302 C303 1.516 . S
C303 C302 1.516 . S
C303 C304 1.502 . S
C303 C305 1.561 . S
C303 C306 1.526 . S
C304 H288 0.959 . S
C304 H289 0.959 . S
C304 H290 0.961 . S
C304 C303 1.502 . S
C305 H291 0.960 . S
C305 H292 0.961 . S
C305 H293 0.959 . S
C305 C303 1.561 . S
C306 C303 1.526 . S
C306 C307 1.396 . S
C306 C311 1.390 . S
C307 C301 1.465 . S
C307 C306 1.396 . S
C307 C308 1.399 . S
C308 H294 0.929 . S
C308 C307 1.399 . S
C308 C309 1.385 . S
C309 H295 0.931 . S
C309 C308 1.385 . S
C309 C310 1.389 . S
C310 C309 1.389 . S
C310 C311 1.387 . S
C311 H296 0.930 . S
C311 C306 1.390 . S
C311 C310 1.387 . S
H312 C324 0.930 . S
H313 C326 0.930 . S
H314 C327 0.930 1_554 S
H315 C331 0.959 . S
H316 C331 0.959 . S
H317 C331 0.961 . S
H318 C332 0.960 . S
H319 C332 0.961 . S
H320 C332 0.959 . S
H321 C335 0.929 . S
H322 C336 0.931 . S
H323 C338 0.930 . S
C324 H312 0.930 . S
C324 C325 1.399 . S
C324 C329 1.399 . S
C325 C324 1.399 . S
C325 C326 1.376 1_556 S
C326 H313 0.930 . S
C326 C325 1.376 1_554 S
C326 C327 1.388 1_554 S
C327 H314 0.930 1_556 S
C327 C326 1.388 1_556 S
C327 C328 1.390 . S
C328 C327 1.390 . S
C328 C329 1.394 . S
C328 C334 1.465 . S
C329 C324 1.399 . S
C329 C328 1.394 . S
C329 C330 1.516 . S
C330 C329 1.516 . S
C330 C331 1.502 . S
C330 C332 1.561 . S
C330 C333 1.526 . S
C331 H315 0.959 . S
C331 H316 0.959 . S
C331 H317 0.961 . S
C331 C330 1.502 . S
C332 H318 0.960 . S
C332 H319 0.961 . S
C332 H320 0.959 . S
C332 C330 1.561 . S
C333 C330 1.526 . S
C333 C334 1.396 . S
C333 C338 1.390 . S
C334 C328 1.465 . S
C334 C333 1.396 . S
C334 C335 1.399 . S
C335 H321 0.929 . S
C335 C334 1.399 . S
C335 C336 1.385 . S
C336 H322 0.931 . S
C336 C335 1.385 . S
C336 C337 1.389 . S
C337 C336 1.389 . S
C337 C338 1.387 . S
C338 H323 0.930 . S
C338 C333 1.390 . S
C338 C337 1.387 . S
H339 C351 0.930 . S
H340 C353 0.930 . S
H341 C354 0.930 . S
H342 C358 0.959 . S
H343 C358 0.959 . S
H344 C358 0.961 . S
H345 C359 0.960 . S
H346 C359 0.961 . S
H347 C359 0.959 . S
H348 C362 0.929 . S
H349 C363 0.931 . S
H350 C365 0.930 . S
C351 H339 0.930 . S
C351 C352 1.399 . S
C351 C356 1.399 . S
C352 C351 1.399 . S
C352 C353 1.376 . S
C353 H340 0.930 . S
C353 C352 1.376 . S
C353 C354 1.388 . S
C354 H341 0.930 . S
C354 C353 1.388 . S
C354 C355 1.390 . S
C355 C354 1.390 . S
C355 C356 1.394 . S
C355 C361 1.465 . S
C356 C351 1.399 . S
C356 C355 1.394 . S
C356 C357 1.516 . S
C357 C356 1.516 . S
C357 C358 1.502 . S
C357 C359 1.561 . S
C357 C360 1.526 . S
C358 H342 0.959 . S
C358 H343 0.959 . S
C358 H344 0.961 . S
C358 C357 1.502 . S
C359 H345 0.960 . S
C359 H346 0.961 . S
C359 H347 0.959 . S
C359 C357 1.561 . S
C360 C357 1.526 . S
C360 C361 1.396 . S
C360 C365 1.390 . S
C361 C355 1.465 . S
C361 C360 1.396 . S
C361 C362 1.399 . S
C362 H348 0.929 . S
C362 C361 1.399 . S
C362 C363 1.385 . S
C363 H349 0.931 . S
C363 C362 1.385 . S
C363 C364 1.389 . S
C364 C363 1.389 . S
C364 C365 1.387 . S
C365 H350 0.930 . S
C365 C360 1.390 . S
C365 C364 1.387 . S
H366 C378 0.930 . S
H367 C380 0.930 . S
H368 C381 0.930 . S
H369 C385 0.959 . S
H370 C385 0.959 . S
H371 C385 0.961 . S
H372 C386 0.960 . S
H373 C386 0.961 . S
H374 C386 0.959 . S
H375 C389 0.929 . S
H376 C390 0.931 . S
H377 C392 0.930 . S
C378 H366 0.930 . S
C378 C379 1.399 1_556 S
C378 C383 1.399 . S
C379 C378 1.399 1_554 S
C379 C380 1.376 . S
C380 H367 0.930 . S
C380 C379 1.376 . S
C380 C381 1.388 . S
C381 H368 0.930 . S
C381 C380 1.388 . S
C381 C382 1.390 1_554 S
C382 C381 1.390 1_556 S
C382 C383 1.394 . S
C382 C388 1.465 . S
C383 C378 1.399 . S
C383 C382 1.394 . S
C383 C384 1.516 . S
C384 C383 1.516 . S
C384 C385 1.502 . S
C384 C386 1.561 . S
C384 C387 1.526 . S
C385 H369 0.959 . S
C385 H370 0.959 . S
C385 H371 0.961 . S
C385 C384 1.502 . S
C386 H372 0.960 . S
C386 H373 0.961 . S
C386 H374 0.959 . S
C386 C384 1.561 . S
C387 C384 1.526 . S
C387 C388 1.396 . S
C387 C392 1.390 . S
C388 C382 1.465 . S
C388 C387 1.396 . S
C388 C389 1.399 . S
C389 H375 0.929 . S
C389 C388 1.399 . S
C389 C390 1.385 . S
C390 H376 0.931 . S
C390 C389 1.385 . S
C390 C391 1.389 . S
C391 C390 1.389 . S
C391 C392 1.387 . S
C392 H377 0.930 . S
C392 C387 1.390 . S
C392 C391 1.387 . S
H393 C405 0.930 . S
H394 C407 0.930 . S
H395 C408 0.930 . S
H396 C412 0.959 . S
H397 C412 0.959 . S
H398 C412 0.961 . S
H399 C413 0.960 . S
H400 C413 0.961 . S
H401 C413 0.959 . S
H402 C416 0.929 . S
H403 C417 0.931 . S
H404 C419 0.930 . S
C405 H393 0.930 . S
C405 C406 1.399 . S
C405 C410 1.399 . S
C406 C405 1.399 . S
C406 C407 1.376 . S
C407 H394 0.930 . S
C407 C406 1.376 . S
C407 C408 1.388 . S
C408 H395 0.930 . S
C408 C407 1.388 . S
C408 C409 1.390 . S
C409 C408 1.390 . S
C409 C410 1.394 . S
C409 C415 1.465 . S
C410 C405 1.399 . S
C410 C409 1.394 . S
C410 C411 1.516 . S
C411 C410 1.516 . S
C411 C412 1.502 . S
C411 C413 1.561 . S
C411 C414 1.526 . S
C412 H396 0.959 . S
C412 H397 0.959 . S
C412 H398 0.961 . S
C412 C411 1.502 . S
C413 H399 0.960 . S
C413 H400 0.961 . S
C413 H401 0.959 . S
C413 C411 1.561 . S
C414 C411 1.526 . S
C414 C415 1.396 . S
C414 C419 1.390 . S
C415 C409 1.465 . S
C415 C414 1.396 . S
C415 C416 1.399 . S
C416 H402 0.929 . S
C416 C415 1.399 . S
C416 C417 1.385 . S
C417 H403 0.931 . S
C417 C416 1.385 . S
C417 C418 1.389 . S
C418 C417 1.389 . S
C418 C419 1.387 . S
C419 H404 0.930 . S
C419 C414 1.390 . S
C419 C418 1.387 . S
C109 C7 1.456 . S
C121 C80 1.447 . S
C148 C74 1.674 . S
C136 C30 1.675 . S
C175 C48 1.461 . S
C163 C9 1.429 . S
C202 C94 1.880 . S
C190 C29 1.957 . S
C229 C89 0.213 . S
C217 C8 0.546 . S
C244 C31 1.891 . S
C256 C70 1.862 . S
C271 C5 1.879 1_556 S
C283 C76 1.846 . S
C298 C26 0.336 . S
C310 C83 0.350 . S
C325 C6 1.950 1_556 S
C337 C92 1.871 . S
C352 C27 1.469 . S
C364 C62 1.462 . S
C391 C78 1.702 . S
C379 C4 1.626 . S
C406 C28 1.448 . S
C418 C86 1.461 . S
