# Generated by pormake.
# Topology hwx, (6,3)-cn, num edge types: 1
# Building blocks:
#     Node 0, Type 0, BuildingBlock: OJICUG_clean_sbu_0, # of connection points: 6
#     Node 1, Type 0, BuildingBlock: OJICUG_clean_sbu_0, # of connection points: 6
#     Node 2, Type 0, BuildingBlock: OJICUG_clean_sbu_0, # of connection points: 6
#     Node 3, Type 0, BuildingBlock: OJICUG_clean_sbu_0, # of connection points: 6
#     Node 4, Type 1, BuildingBlock: OLANEW_clean_sbu_2, # of connection points: 3
#     Node 5, Type 1, BuildingBlock: OLANEW_clean_sbu_2, # of connection points: 3
#     Node 6, Type 1, BuildingBlock: OLANEW_clean_sbu_2, # of connection points: 3
#     Node 7, Type 1, BuildingBlock: OLANEW_clean_sbu_2, # of connection points: 3
#     Node 8, Type 1, BuildingBlock: OLANEW_clean_sbu_2, # of connection points: 3
#     Node 9, Type 1, BuildingBlock: OLANEW_clean_sbu_2, # of connection points: 3
#     Node 10, Type 1, BuildingBlock: OLANEW_clean_sbu_2, # of connection points: 3
#     Node 11, Type 1, BuildingBlock: OLANEW_clean_sbu_2, # of connection points: 3
#     Edge 12, Type (0, 1), BuildingBlock: MIFKUJ_clean_linker_0, # of connection points: 2
#     Edge 13, Type (0, 1), BuildingBlock: MIFKUJ_clean_linker_0, # of connection points: 2
#     Edge 14, Type (0, 1), BuildingBlock: MIFKUJ_clean_linker_0, # of connection points: 2
#     Edge 15, Type (0, 1), BuildingBlock: MIFKUJ_clean_linker_0, # of connection points: 2
#     Edge 16, Type (0, 1), BuildingBlock: MIFKUJ_clean_linker_0, # of connection points: 2
#     Edge 17, Type (0, 1), BuildingBlock: MIFKUJ_clean_linker_0, # of connection points: 2
#     Edge 18, Type (0, 1), BuildingBlock: MIFKUJ_clean_linker_0, # of connection points: 2
#     Edge 19, Type (0, 1), BuildingBlock: MIFKUJ_clean_linker_0, # of connection points: 2
#     Edge 20, Type (0, 1), BuildingBlock: MIFKUJ_clean_linker_0, # of connection points: 2
#     Edge 21, Type (0, 1), BuildingBlock: MIFKUJ_clean_linker_0, # of connection points: 2
#     Edge 22, Type (0, 1), BuildingBlock: MIFKUJ_clean_linker_0, # of connection points: 2
#     Edge 23, Type (0, 1), BuildingBlock: MIFKUJ_clean_linker_0, # of connection points: 2
#     Edge 24, Type (0, 1), BuildingBlock: MIFKUJ_clean_linker_0, # of connection points: 2
#     Edge 25, Type (0, 1), BuildingBlock: MIFKUJ_clean_linker_0, # of connection points: 2
#     Edge 26, Type (0, 1), BuildingBlock: MIFKUJ_clean_linker_0, # of connection points: 2
#     Edge 27, Type (0, 1), BuildingBlock: MIFKUJ_clean_linker_0, # of connection points: 2
#     Edge 28, Type (0, 1), BuildingBlock: MIFKUJ_clean_linker_0, # of connection points: 2
#     Edge 29, Type (0, 1), BuildingBlock: MIFKUJ_clean_linker_0, # of connection points: 2
#     Edge 30, Type (0, 1), BuildingBlock: MIFKUJ_clean_linker_0, # of connection points: 2
#     Edge 31, Type (0, 1), BuildingBlock: MIFKUJ_clean_linker_0, # of connection points: 2
#     Edge 32, Type (0, 1), BuildingBlock: MIFKUJ_clean_linker_0, # of connection points: 2
#     Edge 33, Type (0, 1), BuildingBlock: MIFKUJ_clean_linker_0, # of connection points: 2
#     Edge 34, Type (0, 1), BuildingBlock: MIFKUJ_clean_linker_0, # of connection points: 2
#     Edge 35, Type (0, 1), BuildingBlock: MIFKUJ_clean_linker_0, # of connection points: 2
# Relax obj value: 0.021
# Max RMSD: 0.065
# Mean RMSD: 0.062
data_MOF--net-hwx--node1-OJICUG_clean_sbu_0--node2-OLANEW_clean_sbu_2--edge1-MIFKUJ_clean_linker_0
_symmetry_space_group_name_H-M    P1
_symmetry_Int_Tables_number       1
_symmetry_cell_setting            triclinic
loop_
_symmetry_equiv_pos_as_xyz
'x, y, z'
_cell_length_a     71.111558
_cell_length_b     71.14602
_cell_length_c     28.001348
_cell_angle_alpha  85.882686
_cell_angle_beta   94.060741
_cell_angle_gamma 89.989427
loop_
_atom_site_label
_atom_site_type_symbol
_atom_site_fract_x
_atom_site_fract_y
_atom_site_fract_z
_atom_type_partial_charge
Sc0 Sc 0.22363 0.22515 0.07851 0.0
Sc1 Sc 0.19195 0.19734 0.01174 0.0
Sc2 Sc 0.22353 0.22801 0.95271 0.0
O3 O 0.21301 0.2168 0.01426 0.0
C4 C 0.22329 0.26398 0.01421 0.0
C5 C 0.18009 0.22224 0.09606 0.0
C6 C 0.17898 0.2277 0.92564 0.0
C7 C 0.21841 0.18075 0.10136 0.0
C8 C 0.26072 0.22078 0.02213 0.0
C9 C 0.21649 0.18546 0.92709 0.0
O10 O 0.22303 0.25462 0.05449 0.0
O11 O 0.17649 0.21007 0.06551 0.0
O12 O 0.19555 0.23383 0.91973 0.0
O13 O 0.22509 0.19677 0.11056 0.0
O14 O 0.25246 0.22314 0.98027 0.0
O15 O 0.20443 0.18189 0.95791 0.0
O16 O 0.25214 0.22145 0.06028 0.0
O17 O 0.20666 0.17841 0.06584 0.0
O18 O 0.22449 0.20134 0.92195 0.0
O19 O 0.19631 0.22934 0.10327 0.0
O20 O 0.22384 0.25626 0.97488 0.0
O21 O 0.1755 0.21458 0.95721 0.0
Sc22 Sc 0.27745 0.71933 0.46927 0.0
Sc23 Sc 0.3073 0.6885 0.54407 0.0
Sc24 Sc 0.27774 0.7207 0.59458 0.0
O25 O 0.28751 0.70949 0.53601 0.0
C26 C 0.28085 0.75743 0.523 0.0
C27 C 0.32139 0.71421 0.45564 0.0
C28 C 0.32161 0.71551 0.62585 0.0
C29 C 0.28082 0.67535 0.45563 0.0
C30 C 0.24006 0.71809 0.52612 0.0
C31 C 0.28018 0.67659 0.62727 0.0
O32 O 0.28001 0.74829 0.48558 0.0
O33 O 0.3245 0.70224 0.49136 0.0
O34 O 0.30573 0.7235 0.62811 0.0
O35 O 0.27379 0.69163 0.44475 0.0
O36 O 0.24861 0.71909 0.56733 0.0
O37 O 0.29204 0.67265 0.59743 0.0
O38 O 0.24864 0.71813 0.48783 0.0
O39 O 0.29318 0.67199 0.49033 0.0
O40 O 0.27418 0.69326 0.63072 0.0
O41 O 0.30519 0.72134 0.44367 0.0
O42 O 0.28013 0.74945 0.56496 0.0
O43 O 0.32408 0.70245 0.59814 0.0
Sc44 Sc 0.7795 0.78381 0.9518 0.0
Sc45 Sc 0.81172 0.81288 0.01396 0.0
Sc46 Sc 0.78359 0.78028 0.07773 0.0
O47 O 0.79161 0.79237 0.01446 0.0
C48 C 0.74422 0.78493 0.0167 0.0
C49 C 0.78217 0.82823 0.92834 0.0
C50 C 0.78883 0.82337 0.10211 0.0
C51 C 0.82247 0.78909 0.92708 0.0
C52 C 0.78365 0.74472 0.01426 0.0
C53 C 0.82805 0.78315 0.09812 0.0
O54 O 0.75144 0.78461 0.97648 0.0
O55 O 0.79568 0.83073 0.95958 0.0
O56 O 0.7829 0.80669 0.11035 0.0
O57 O 0.806 0.78245 0.91995 0.0
O58 O 0.78338 0.7523 0.05386 0.0
O59 O 0.83 0.79738 0.06862 0.0
O60 O 0.78292 0.75425 0.974 0.0
O61 O 0.82686 0.79998 0.96023 0.0
O62 O 0.81232 0.77518 0.10413 0.0
O63 O 0.77491 0.81218 0.92234 0.0
O64 O 0.754 0.78389 0.05665 0.0
O65 O 0.79887 0.82807 0.06741 0.0
Sc66 Sc 0.72452 0.26347 0.55126 0.0
Sc67 Sc 0.69357 0.29536 0.48393 0.0
Sc68 Sc 0.72341 0.26607 0.42492 0.0
O69 O 0.7138 0.27497 0.4866 0.0
C70 C 0.76142 0.26699 0.49235 0.0
C71 C 0.72203 0.3071 0.57007 0.0
C72 C 0.71887 0.31035 0.39913 0.0
C73 C 0.68117 0.26794 0.57123 0.0
C74 C 0.72062 0.22744 0.49014 0.0
C75 C 0.67896 0.27027 0.39852 0.0
O76 O 0.75296 0.26505 0.53082 0.0
O77 O 0.70903 0.31093 0.53719 0.0
O78 O 0.72594 0.29439 0.39263 0.0
O79 O 0.69737 0.26045 0.5798 0.0
O80 O 0.72179 0.23657 0.44966 0.0
O81 O 0.6762 0.28177 0.43019 0.0
O82 O 0.72124 0.23535 0.52947 0.0
O83 O 0.67756 0.2808 0.53795 0.0
O84 O 0.69517 0.26362 0.39241 0.0
O85 O 0.72887 0.29062 0.57935 0.0
O86 O 0.75272 0.26779 0.45094 0.0
O87 O 0.70711 0.31262 0.43037 0.0
O88 O 0.17729 0.51794 0.88056 0.0
Cd89 Cd 0.15994 0.49703 0.93475 0.0
O90 O 0.19405 0.52468 0.9455 0.0
Cd91 Cd 0.21379 0.54083 0.98986 0.0
O92 O 0.22836 0.55549 0.04751 0.0
C93 C 0.22007 0.55616 0.08611 0.0
O94 O 0.2035 0.54816 0.08901 0.0
C95 C 0.19053 0.52729 0.90033 0.0
C96 C 0.17216 0.45965 0.94226 0.0
O97 O 0.15785 0.46494 0.91404 0.0
O98 O 0.18083 0.47208 0.96631 0.0
O99 O 0.98486 0.68175 0.39822 0.0
Cd100 Cd 0.00654 0.66188 0.45176 0.0
O101 O 0.97754 0.69764 0.45849 0.0
Cd102 Cd 0.96026 0.71651 0.49578 0.0
O103 O 0.94258 0.72896 0.54603 0.0
C104 C 0.94995 0.73494 0.58474 0.0
O105 O 0.96835 0.73414 0.59316 0.0
C106 C 0.97518 0.69461 0.41426 0.0
C107 C 0.04296 0.676 0.46533 0.0
O108 O 0.03815 0.66643 0.42939 0.0
O109 O 0.03042 0.67922 0.49449 0.0
O110 O 0.73299 0.49163 0.10783 0.0
Cd111 Cd 0.72381 0.51793 0.05002 0.0
O112 O 0.74596 0.47856 0.05002 0.0
Cd113 Cd 0.75973 0.45778 0.01021 0.0
O114 O 0.76472 0.43929 0.95356 0.0
C115 C 0.75542 0.44306 0.91357 0.0
O116 O 0.74404 0.45774 0.90894 0.0
C117 C 0.74124 0.47753 0.09314 0.0
C118 C 0.74614 0.55002 0.05251 0.0
O119 O 0.73284 0.54729 0.08079 0.0
O120 O 0.74928 0.53726 0.02395 0.0
O121 O 0.0133 0.31705 0.63868 0.0
Cd122 Cd 0.98958 0.33756 0.59392 0.0
O123 O 0.02684 0.31432 0.57163 0.0
Cd124 Cd 0.04788 0.30335 0.52745 0.0
O125 O 0.0653 0.29275 0.47398 0.0
C126 C 0.0609 0.2776 0.45455 0.0
O127 O 0.04599 0.26825 0.46787 0.0
C128 C 0.02674 0.31074 0.61675 0.0
C129 C 0.95443 0.32113 0.57603 0.0
O130 O 0.96697 0.32094 0.54534 0.0
O131 O 0.95868 0.32875 0.61547 0.0
O132 O 0.67228 0.97867 0.62679 0.0
Cd133 Cd 0.65199 -0.0019 0.5688 0.0
O134 O 0.68919 0.97182 0.56819 0.0
Cd135 Cd 0.71108 0.95938 0.52884 0.0
O136 O 0.7261 0.94313 0.48015 0.0
C137 C 0.73097 0.95063 0.44034 0.0
O138 O 0.72752 0.96863 0.42945 0.0
C139 C 0.68607 0.96977 0.61251 0.0
C140 C 0.66651 0.03401 0.54957 0.0
O141 O 0.65618 0.03042 0.58476 0.0
O142 O 0.67008 0.02055 0.52343 0.0
O143 O 0.5151 0.17646 0.15233 0.0
Cd144 Cd 0.49361 0.15546 0.10992 0.0
O145 O 0.526 0.18439 0.0826 0.0
Cd146 Cd 0.54362 0.2001 0.03288 0.0
O147 O 0.5579 0.21304 0.97239 0.0
C148 C 0.56752 0.20248 0.94855 0.0
O149 O 0.56883 0.18442 0.96195 0.0
C150 C 0.52674 0.18576 0.12772 0.0
C151 C 0.45664 0.16875 0.0955 0.0
O152 O 0.46207 0.1583 0.13315 0.0
O153 O 0.46879 0.17313 0.06491 0.0
O154 O 0.30941 0.01493 0.38768 0.0
Cd155 Cd 0.33022 0.99242 0.43583 0.0
O156 O 0.30315 0.02756 0.4538 0.0
Cd157 Cd 0.28975 0.04703 0.49832 0.0
O158 O 0.27888 0.0651 0.55007 0.0
C159 C 0.26813 0.05843 0.58145 0.0
O160 O 0.26338 0.04058 0.58183 0.0
C161 C 0.30122 0.02766 0.40825 0.0
C162 C 0.31628 0.9559 0.44792 0.0
O163 O 0.31392 0.96787 0.47911 0.0
O164 O 0.32486 0.96134 0.41065 0.0
O165 O 0.48379 0.77126 0.96211 0.0
Cd166 Cd 0.50365 0.77959 0.03254 0.0
O167 O 0.46252 0.79194 0.97794 0.0
Cd168 Cd 0.47455 0.79583 0.05037 0.0
O169 O 0.46621 0.78786 0.12248 0.0
C170 C 0.44928 0.79233 0.12842 0.0
O171 O 0.43968 0.80227 0.09352 0.0
C172 C 0.46831 0.77997 0.95062 0.0
C173 C 0.54231 0.78009 0.02148 0.0
O174 O 0.53444 0.76557 0.04104 0.0
O175 O 0.53185 0.79425 0.00626 0.0
H176 H 0.14752 0.20351 0.11705 0.0
H177 H 0.12527 0.21161 0.17554 0.0
H178 H 0.15683 0.26208 0.20185 0.0
H179 H 0.17916 0.25395 0.14456 0.0
H180 H 0.15085 0.24294 0.28357 0.0
H181 H 0.11309 0.26304 0.1387 0.0
H182 H 0.09673 0.25887 0.05955 0.0
H183 H 0.06261 0.21528 0.12255 0.0
H184 H 0.07895 0.21903 0.20201 0.0
H185 H 0.09137 0.29456 0.41588 0.0
H186 H 0.10976 0.2836 0.35289 0.0
H187 H 0.07454 0.23443 0.34433 0.0
H188 H 0.05581 0.24545 0.40699 0.0
H189 H 0.08144 0.24966 0.25564 0.0
H190 H 0.11805 0.23074 0.40107 0.0
H191 H 0.13438 0.23489 0.48025 0.0
H192 H 0.17085 0.27603 0.416 0.0
H193 H 0.15457 0.27232 0.3365 0.0
C194 C 0.14953 0.21646 0.13481 0.0
C195 C 0.1652 0.22799 0.12649 0.0
C196 C 0.1368 0.22109 0.16819 0.0
C197 C 0.13942 0.23744 0.19318 0.0
C198 C 0.15462 0.24931 0.18336 0.0
C199 C 0.16737 0.24464 0.15049 0.0
C200 C 0.1271 0.24185 0.2316 0.0
C201 C 0.13569 0.24461 0.27725 0.0
C202 C 0.10726 0.24337 0.22389 0.0
C203 C 0.09738 0.24118 0.17619 0.0
C204 C 0.1022 0.25247 0.1356 0.0
C205 C 0.09291 0.2502 0.0907 0.0
C206 C 0.07868 0.23678 0.086 0.0
C207 C 0.07366 0.22565 0.12623 0.0
C208 C 0.08292 0.22785 0.17121 0.0
C209 C 0.08752 0.28139 0.40072 0.0
C210 C 0.07217 0.27083 0.41666 0.0
C211 C 0.09808 0.27512 0.36476 0.0
C212 C 0.09366 0.25808 0.34431 0.0
C213 C 0.07821 0.2476 0.35968 0.0
C214 C 0.06758 0.2539 0.39563 0.0
C215 C 0.10529 0.25125 0.30709 0.0
C216 C 0.09659 0.2479 0.2619 0.0
C217 C 0.12507 0.24917 0.31513 0.0
C218 C 0.13498 0.25135 0.36287 0.0
C219 C 0.12947 0.24077 0.40387 0.0
C220 C 0.13873 0.24303 0.4488 0.0
C221 C 0.15362 0.25574 0.45317 0.0
C222 C 0.15931 0.26619 0.41257 0.0
C223 C 0.15008 0.264 0.36756 0.0
H224 H 0.16077 0.25747 0.48799 0.0
H225 H 0.0715 0.23505 0.05121 0.0
H226 H 0.28947 0.63899 0.63278 0.0
H227 H 0.27534 0.61332 0.68053 0.0
H228 H 0.23895 0.65307 0.73863 0.0
H229 H 0.25312 0.67886 0.69168 0.0
H230 H 0.2526 0.62722 0.80758 0.0
H231 H 0.22275 0.62732 0.6479 0.0
H232 H 0.22206 0.62652 0.55981 0.0
H233 H 0.24912 0.57228 0.57552 0.0
H234 H 0.25029 0.57288 0.66368 0.0
H235 H 0.17679 0.54857 0.82101 0.0
H236 H 0.19295 0.57355 0.7755 0.0
H237 H 0.24358 0.56285 0.86784 0.0
H238 H 0.22738 0.53799 0.91368 0.0
H239 H 0.22247 0.57462 0.72397 0.0
H240 H 0.26693 0.60373 0.88225 0.0
H241 H 0.2659 0.60491 0.96991 0.0
H242 H 0.20543 0.60278 0.9559 0.0
H243 H 0.20609 0.60186 0.86814 0.0
C244 C 0.27855 0.64233 0.65593 0.0
C245 C 0.27241 0.66104 0.65813 0.0
C246 C 0.27045 0.62761 0.68312 0.0
C247 C 0.25595 0.63126 0.71277 0.0
C248 C 0.25013 0.64993 0.71604 0.0
C249 C 0.25824 0.66466 0.68899 0.0
C250 C 0.24643 0.6156 0.73928 0.0
C251 C 0.24606 0.61569 0.78933 0.0
C252 C 0.23765 0.60069 0.7154 0.0
C253 C 0.23677 0.60023 0.66239 0.0
C254 C 0.22867 0.61528 0.63257 0.0
C255 C 0.22817 0.61486 0.58264 0.0
C256 C 0.23556 0.59938 0.56212 0.0
C257 C 0.24342 0.58427 0.59147 0.0
C258 C 0.244 0.58464 0.64141 0.0
C259 C 0.19138 0.55154 0.83152 0.0
C260 C 0.20069 0.54169 0.87164 0.0
C261 C 0.20061 0.56578 0.80545 0.0
C262 C 0.21937 0.57033 0.81877 0.0
C263 C 0.22894 0.55995 0.85767 0.0
C264 C 0.21965 0.54582 0.88403 0.0
C265 C 0.22876 0.58614 0.79235 0.0
C266 C 0.2291 0.58608 0.74229 0.0
C267 C 0.2372 0.60125 0.81614 0.0
C268 C 0.23659 0.60255 0.86868 0.0
C269 C 0.25341 0.60365 0.89786 0.0
C270 C 0.2529 0.60424 0.94757 0.0
C271 C 0.23562 0.60385 0.96848 0.0
C272 C 0.21881 0.60302 0.93968 0.0
C273 C 0.21925 0.60246 0.88996 0.0
H274 H 0.23525 0.60421 0.00699 0.0
H275 H 0.23516 0.59909 0.52347 0.0
H276 H 0.83689 0.74625 0.11705 0.0
H277 H 0.86302 0.73258 0.16934 0.0
H278 H 0.88213 0.78841 0.19946 0.0
H279 H 0.85659 0.80211 0.14417 0.0
H280 H 0.91115 0.76787 0.19615 0.0
H281 H 0.85508 0.75893 0.27904 0.0
H282 H 0.82232 0.74913 0.29024 0.0
H283 H 0.83721 0.69168 0.27263 0.0
H284 H 0.87001 0.70117 0.26058 0.0
H285 H 0.96437 0.73161 0.41383 0.0
H286 H 0.94006 0.74817 0.35974 0.0
H287 H 0.92907 0.69719 0.2883 0.0
H288 H 0.95341 0.68067 0.34172 0.0
H289 H 0.89604 0.71686 0.31755 0.0
H290 H 0.95268 0.72768 0.2329 0.0
H291 H 0.98528 0.73872 0.22538 0.0
H292 H 0.96862 0.79467 0.25338 0.0
H293 H 0.93595 0.78388 0.26176 0.0
C294 C 0.84679 0.75558 0.13453 0.0
C295 C 0.84469 0.77521 0.12702 0.0
C296 C 0.86164 0.74777 0.16477 0.0
C297 C 0.87424 0.75942 0.1898 0.0
C298 C 0.87253 0.77909 0.18096 0.0
C299 C 0.85796 0.78693 0.14943 0.0
C300 C 0.88895 0.751 0.22558 0.0
C301 C 0.90773 0.75694 0.22315 0.0
C302 C 0.88465 0.73661 0.26085 0.0
C303 C 0.86497 0.73079 0.26859 0.0
C304 C 0.85134 0.74422 0.2773 0.0
C305 C 0.83277 0.73872 0.28379 0.0
C306 C 0.82768 0.7198 0.28202 0.0
C307 C 0.84117 0.70633 0.27391 0.0
C308 C 0.85976 0.71176 0.26731 0.0
C309 C 0.95663 0.72392 0.38688 0.0
C310 C 0.9606 0.70482 0.38225 0.0
C311 C 0.94289 0.73342 0.35583 0.0
C312 C 0.9328 0.72386 0.32015 0.0
C313 C 0.93669 0.70477 0.31569 0.0
C314 C 0.95062 0.69539 0.34608 0.0
C315 C 0.91805 0.73362 0.28748 0.0
C316 C 0.8993 0.72791 0.29069 0.0
C317 C 0.92232 0.74844 0.25369 0.0
C318 C 0.94193 0.75493 0.24854 0.0
C319 C 0.95601 0.7423 0.23794 0.0
C320 C 0.97449 0.74852 0.23341 0.0
C321 C 0.97903 0.76737 0.23905 0.0
C322 C 0.96509 0.78006 0.2491 0.0
C323 C 0.94659 0.7739 0.25372 0.0
H324 H 0.99334 0.77217 0.23551 0.0
H325 H 0.81329 0.71557 0.28703 0.0
H326 H 0.75333 0.3062 0.63305 0.0
H327 H 0.76418 0.33055 0.68551 0.0
H328 H 0.71846 0.36685 0.62635 0.0
H329 H 0.70763 0.3427 0.57313 0.0
H330 H 0.75139 0.38652 0.64291 0.0
H331 H 0.71419 0.34 0.72716 0.0
H332 H 0.70642 0.30767 0.75606 0.0
H333 H 0.75977 0.30253 0.83798 0.0
H334 H 0.76815 0.33473 0.80818 0.0
H335 H 0.73461 0.44547 0.82768 0.0
H336 H 0.73423 0.42348 0.76483 0.0
H337 H 0.77805 0.39044 0.84591 0.0
H338 H 0.77819 0.41221 0.90975 0.0
H339 H 0.75051 0.36862 0.81732 0.0
H340 H 0.78647 0.41668 0.73992 0.0
H341 H 0.7944 0.44889 0.70961 0.0
H342 H 0.74378 0.45147 0.61615 0.0
H343 H 0.7354 0.41937 0.64637 0.0
C344 C 0.74561 0.3194 0.63092 0.0
C345 C 0.72939 0.32236 0.59943 0.0
C346 C 0.75189 0.33332 0.66086 0.0
C347 C 0.74196 0.35038 0.6603 0.0
C348 C 0.72631 0.35376 0.62736 0.0
C349 C 0.72008 0.33988 0.59717 0.0
C350 C 0.74689 0.36408 0.69656 0.0
C351 C 0.75112 0.38269 0.68106 0.0
C352 C 0.74702 0.3589 0.74634 0.0
C353 C 0.74188 0.33968 0.76498 0.0
C354 C 0.72433 0.33193 0.75103 0.0
C355 C 0.71981 0.31362 0.76762 0.0
C356 C 0.73256 0.30303 0.79893 0.0
C357 C 0.7499 0.31074 0.81368 0.0
C358 C 0.75457 0.32901 0.79685 0.0
C359 C 0.74433 0.43365 0.83199 0.0
C360 C 0.75638 0.43054 0.87384 0.0
C361 C 0.74419 0.42114 0.79579 0.0
C362 C 0.75627 0.40541 0.80032 0.0
C363 C 0.76864 0.40251 0.84159 0.0
C364 C 0.76871 0.41497 0.87802 0.0
C365 C 0.75483 0.39124 0.76384 0.0
C366 C 0.75115 0.37249 0.77928 0.0
C367 C 0.75525 0.39633 0.71408 0.0
C368 C 0.76025 0.41565 0.69569 0.0
C369 C 0.77696 0.42416 0.71316 0.0
C370 C 0.78154 0.4424 0.69595 0.0
C371 C 0.76958 0.45224 0.66104 0.0
C372 C 0.75303 0.44384 0.6432 0.0
C373 C 0.74837 0.42561 0.66031 0.0
H374 H 0.77316 0.46635 0.64777 0.0
H375 H 0.729 0.28885 0.81178 0.0
H376 H 0.64142 0.27732 0.40689 0.0
H377 H 0.61447 0.26576 0.35849 0.0
H378 H 0.65219 0.23744 0.27298 0.0
H379 H 0.67924 0.24893 0.3209 0.0
H380 H 0.62267 0.25633 0.21805 0.0
H381 H 0.63161 0.21332 0.36013 0.0
H382 H 0.6345 0.20525 0.44762 0.0
H383 H 0.57906 0.22746 0.45969 0.0
H384 H 0.57596 0.23597 0.37248 0.0
H385 H 0.56337 0.19016 0.10706 0.0
H386 H 0.58796 0.20727 0.15085 0.0
H387 H 0.54739 0.2245 0.247 0.0
H388 H 0.5229 0.20668 0.20414 0.0
H389 H 0.57713 0.21374 0.29697 0.0
H390 H 0.56656 0.2557 0.15703 0.0
H391 H 0.56271 0.26482 0.07025 0.0
H392 H 0.61939 0.24682 0.05402 0.0
H393 H 0.62351 0.23734 0.14063 0.0
C394 C 0.64403 0.26873 0.37761 0.0
C395 C 0.66255 0.26399 0.36802 0.0
C396 C 0.62859 0.26211 0.35006 0.0
C397 C 0.63134 0.25064 0.31238 0.0
C398 C 0.64977 0.24629 0.30188 0.0
C399 C 0.66521 0.25281 0.32952 0.0
C400 C 0.61506 0.24259 0.28488 0.0
C401 C 0.61276 0.2469 0.23512 0.0
C402 C 0.60184 0.23077 0.30752 0.0
C403 C 0.60364 0.22546 0.35987 0.0
C404 C 0.6201 0.2166 0.38152 0.0
C405 C 0.62177 0.21193 0.43101 0.0
C406 C 0.607 0.21587 0.45915 0.0
C407 C 0.5905 0.22444 0.43785 0.0
C408 C 0.58878 0.22919 0.38841 0.0
C409 C 0.55962 0.19796 0.13684 0.0
C410 C 0.54118 0.19741 0.15171 0.0
C411 C 0.5737 0.20774 0.16195 0.0
C412 C 0.56952 0.21755 0.20179 0.0
C413 C 0.551 0.21712 0.21635 0.0
C414 C 0.537 0.20701 0.19179 0.0
C415 C 0.58467 0.22735 0.22971 0.0
C416 C 0.58683 0.22334 0.27967 0.0
C417 C 0.59759 0.23968 0.2073 0.0
C418 C 0.59529 0.24567 0.1553 0.0
C419 C 0.57818 0.25359 0.13492 0.0
C420 C 0.57595 0.25884 0.08576 0.0
C421 C 0.59078 0.25636 0.05662 0.0
C422 C 0.60791 0.24872 0.07663 0.0
C423 C 0.61021 0.24343 0.12578 0.0
H424 H 0.58902 0.26039 0.01855 0.0
H425 H 0.60832 0.21224 0.49746 0.0
H426 H 0.20317 0.14912 0.92494 0.0
H427 H 0.21015 0.12588 0.86802 0.0
H428 H 0.24717 0.16551 0.7986 0.0
H429 H 0.2403 0.18873 0.85465 0.0
H430 H 0.22305 0.14935 0.73425 0.0
H431 H 0.26479 0.12925 0.87231 0.0
H432 H 0.27237 0.11873 0.95734 0.0
H433 H 0.23671 0.07053 0.94193 0.0
H434 H 0.22871 0.08091 0.85691 0.0
H435 H 0.27685 0.0953 0.5933 0.0
H436 H 0.26609 0.11514 0.65357 0.0
H437 H 0.2333 0.06905 0.71171 0.0
H438 H 0.2443 0.04894 0.6519 0.0
H439 H 0.25182 0.08669 0.78233 0.0
H440 H 0.21181 0.10537 0.64295 0.0
H441 H 0.204 0.11581 0.55798 0.0
H442 H 0.23561 0.16655 0.57573 0.0
H443 H 0.24384 0.1563 0.66067 0.0
C444 C 0.21286 0.15286 0.8977 0.0
C445 C 0.22113 0.17085 0.89443 0.0
C446 C 0.21686 0.13954 0.86528 0.0
C447 C 0.22919 0.14398 0.82913 0.0
C448 C 0.23754 0.16182 0.82607 0.0
C449 C 0.23363 0.17507 0.85838 0.0
C450 C 0.23328 0.1303 0.79364 0.0
C451 C 0.22948 0.13571 0.74472 0.0
C452 C 0.24111 0.11227 0.80742 0.0
C453 C 0.24598 0.10598 0.85843 0.0
C454 C 0.25844 0.1165 0.88717 0.0
C455 C 0.26284 0.11054 0.93533 0.0
C456 C 0.25498 0.094 0.95507 0.0
C457 C 0.24276 0.08335 0.92662 0.0
C458 C 0.2383 0.08926 0.87844 0.0
C459 C 0.26731 0.08937 0.61878 0.0
C460 C 0.26137 0.07055 0.61763 0.0
C461 C 0.26111 0.10076 0.65315 0.0
C462 C 0.24868 0.09366 0.68677 0.0
C463 C 0.24285 0.07483 0.68604 0.0
C464 C 0.2491 0.06338 0.65172 0.0
C465 C 0.24197 0.10593 0.72283 0.0
C466 C 0.24522 0.10025 0.77181 0.0
C467 C 0.23356 0.12372 0.70916 0.0
C468 C 0.22856 0.12999 0.65811 0.0
C469 C 0.21721 0.1187 0.62866 0.0
C470 C 0.21268 0.12459 0.58051 0.0
C471 C 0.21933 0.14181 0.56145 0.0
C472 C 0.23048 0.15321 0.59054 0.0
C473 C 0.23506 0.14737 0.63871 0.0
H474 H 0.21582 0.14635 0.52416 0.0
H475 H 0.2584 0.08942 0.99237 0.0
H476 H 0.35896 0.7044 0.4704 0.0
H477 H 0.38464 0.71454 0.42061 0.0
H478 H 0.34519 0.74761 0.32499 0.0
H479 H 0.31959 0.73756 0.37377 0.0
H480 H 0.36849 0.72701 0.27633 0.0
H481 H 0.37324 0.76713 0.40906 0.0
H482 H 0.37739 0.77323 0.49453 0.0
H483 H 0.43199 0.74689 0.50515 0.0
H484 H 0.42799 0.74029 0.41965 0.0
H485 H 0.41286 0.7981 0.14759 0.0
H486 H 0.39544 0.78185 0.20985 0.0
H487 H 0.44592 0.7521 0.26645 0.0
H488 H 0.46364 0.76835 0.20368 0.0
H489 H 0.42199 0.76525 0.33837 0.0
H490 H 0.41858 0.72843 0.20234 0.0
H491 H 0.4141 0.72278 0.11645 0.0
H492 H 0.35703 0.74285 0.11235 0.0
H493 H 0.36125 0.74893 0.19807 0.0
C494 C 0.35575 0.7138 0.43871 0.0
C495 C 0.33717 0.72016 0.42617 0.0
C496 C 0.37045 0.7196 0.4104 0.0
C497 C 0.3668 0.73185 0.36918 0.0
C498 C 0.3483 0.73808 0.35652 0.0
C499 C 0.33367 0.73236 0.38468 0.0
C500 C 0.38206 0.73852 0.33888 0.0
C501 C 0.38018 0.73536 0.28992 0.0
C502 C 0.39767 0.74888 0.35696 0.0
C503 C 0.40021 0.75302 0.40815 0.0
C504 C 0.38607 0.76251 0.42971 0.0
C505 C 0.38841 0.76608 0.47817 0.0
C506 C 0.40492 0.76043 0.50539 0.0
C507 C 0.41918 0.75123 0.48408 0.0
C508 C 0.41688 0.74756 0.4356 0.0
C509 C 0.42039 0.7883 0.17354 0.0
C510 C 0.43961 0.78436 0.17031 0.0
C511 C 0.41038 0.779 0.20908 0.0
C512 C 0.41935 0.7656 0.24219 0.0
C513 C 0.43877 0.76236 0.241 0.0
C514 C 0.44883 0.77164 0.20513 0.0
C515 C 0.40792 0.75429 0.2757 0.0
C516 C 0.41055 0.75652 0.32509 0.0
C517 C 0.39296 0.74302 0.25813 0.0
C518 C 0.39028 0.73925 0.2066 0.0
C519 C 0.40511 0.73178 0.18305 0.0
C520 C 0.40262 0.72848 0.1344 0.0
C521 C 0.3853 0.73248 0.10894 0.0
C522 C 0.37043 0.73976 0.13212 0.0
C523 C 0.37287 0.74312 0.18076 0.0
H524 H 0.3834 0.72992 0.07127 0.0
H525 H 0.40669 0.76321 0.54295 0.0
H526 H 0.79035 0.86591 0.93397 0.0
H527 H 0.77563 0.89263 0.88477 0.0
H528 H 0.74163 0.85418 0.80377 0.0
H529 H 0.75591 0.82759 0.85255 0.0
H530 H 0.7731 0.90215 0.78515 0.0
H531 H 0.69828 0.87171 0.78235 0.0
H532 H 0.68042 0.84889 0.83168 0.0
H533 H 0.71307 0.8634 0.95852 0.0
H534 H 0.73098 0.88649 0.91003 0.0
H535 H 0.70807 0.93935 0.59532 0.0
H536 H 0.72673 0.91879 0.65395 0.0
H537 H 0.70752 0.94958 0.76843 0.0
H538 H 0.68959 0.97096 0.70968 0.0
H539 H 0.70348 0.90902 0.77977 0.0
H540 H 0.75001 0.95634 0.7474 0.0
H541 H 0.76899 0.97704 0.69544 0.0
H542 H 0.79311 0.92865 0.63918 0.0
H543 H 0.77406 0.90765 0.69032 0.0
C544 C 0.77979 0.86315 0.90556 0.0
C545 C 0.7742 0.84458 0.89762 0.0
C546 C 0.77144 0.87842 0.87744 0.0
C547 C 0.75736 0.87536 0.84116 0.0
C548 C 0.75224 0.85686 0.83215 0.0
C549 C 0.76047 0.84166 0.86016 0.0
C550 C 0.7475 0.89137 0.81322 0.0
C551 C 0.75791 0.90377 0.78424 0.0
C552 C 0.72768 0.89351 0.81237 0.0
C553 C 0.71605 0.88075 0.84246 0.0
C554 C 0.7015 0.8702 0.82083 0.0
C555 C 0.69142 0.85717 0.84862 0.0
C556 C 0.6957 0.85461 0.89813 0.0
C557 C 0.70984 0.86533 0.92011 0.0
C558 C 0.71996 0.8784 0.8925 0.0
C559 C 0.70837 0.94232 0.63257 0.0
C560 C 0.6978 0.95726 0.64743 0.0
C561 C 0.71883 0.93032 0.66622 0.0
C562 C 0.71863 0.93281 0.71541 0.0
C563 C 0.70791 0.94751 0.73056 0.0
C564 C 0.69769 0.95969 0.69689 0.0
C565 C 0.72905 0.91957 0.75101 0.0
C566 C 0.71871 0.90762 0.78128 0.0
C567 C 0.74891 0.91784 0.75298 0.0
C568 C 0.76049 0.93042 0.72244 0.0
C569 C 0.75925 0.95011 0.72368 0.0
C570 C 0.77004 0.9619 0.69442 0.0
C571 C 0.78222 0.95417 0.66396 0.0
C572 C 0.78366 0.93462 0.66278 0.0
C573 C 0.77288 0.92277 0.69194 0.0
H574 H 0.79056 0.96332 0.64133 0.0
H575 H 0.6881 0.84427 0.91938 0.0
H576 H 0.81673 0.77338 0.84133 0.0
H577 H 0.84016 0.76475 0.78756 0.0
H578 H 0.8845 0.78424 0.88483 0.0
H579 H 0.86093 0.79348 0.93869 0.0
H580 H 0.89099 0.79501 0.79463 0.0
H581 H 0.8758 0.73686 0.87781 0.0
H582 H 0.85496 0.71215 0.91039 0.0
H583 H 0.83287 0.7023 0.76771 0.0
H584 H 0.85337 0.72715 0.73428 0.0
H585 H 0.96113 0.74924 0.6704 0.0
H586 H 0.9411 0.75895 0.73186 0.0
H587 H 0.89156 0.7456 0.64299 0.0
H588 H 0.91143 0.73576 0.58151 0.0
H589 H 0.89019 0.73088 0.73557 0.0
H590 H 0.90451 0.79088 0.65405 0.0
H591 H 0.92563 0.81565 0.62303 0.0
H592 H 0.95038 0.82135 0.76561 0.0
H593 H 0.92956 0.79643 0.7974 0.0
C594 C 0.83145 0.77581 0.85156 0.0
C595 C 0.83695 0.78399 0.89461 0.0
C596 C 0.84486 0.77079 0.82075 0.0
C597 C 0.86413 0.77348 0.83259 0.0
C598 C 0.86971 0.78194 0.87511 0.0
C599 C 0.85623 0.78718 0.90587 0.0
C600 C 0.87827 0.76752 0.80007 0.0
C601 C 0.89105 0.78088 0.78239 0.0
C602 C 0.87822 0.74914 0.78364 0.0
C603 C 0.86604 0.73397 0.80356 0.0
C604 C 0.86642 0.7295 0.85338 0.0
C605 C 0.85467 0.71546 0.87201 0.0
C606 C 0.84257 0.70569 0.84114 0.0
C607 C 0.84224 0.70989 0.79157 0.0
C608 C 0.85394 0.72394 0.77276 0.0
C609 C 0.94597 0.74846 0.66379 0.0
C610 C 0.93788 0.74171 0.62103 0.0
C611 C 0.93455 0.75407 0.69892 0.0
C612 C 0.91484 0.75307 0.69189 0.0
C613 C 0.90674 0.74645 0.64915 0.0
C614 C 0.91813 0.7409 0.61397 0.0
C615 C 0.90259 0.75848 0.72942 0.0
C616 C 0.89022 0.74495 0.74816 0.0
C617 C 0.90316 0.77663 0.7471 0.0
C618 C 0.91562 0.79165 0.72802 0.0
C619 C 0.91456 0.7973 0.67873 0.0
C620 C 0.92646 0.81139 0.66102 0.0
C621 C 0.93938 0.82003 0.69231 0.0
C622 C 0.94039 0.81463 0.7414 0.0
C623 C 0.92854 0.80053 0.75929 0.0
H624 H 0.94857 0.83094 0.67853 0.0
H625 H 0.83347 0.69484 0.85564 0.0
H626 H 0.71742 0.3471 0.42009 0.0
H627 H 0.72475 0.37497 0.3691 0.0
H628 H 0.7395 0.33964 0.2583 0.0
H629 H 0.73285 0.31154 0.31015 0.0
H630 H 0.76279 0.36814 0.26106 0.0
H631 H 0.69586 0.36211 0.25438 0.0
H632 H 0.66449 0.35826 0.28605 0.0
H633 H 0.67138 0.41024 0.35421 0.0
H634 H 0.70291 0.41427 0.32349 0.0
H635 H 0.74441 0.44086 0.06878 0.0
H636 H 0.74516 0.41228 0.12244 0.0
H637 H 0.74234 0.44584 0.24392 0.0
H638 H 0.74251 0.47461 0.19064 0.0
H639 H 0.71365 0.41803 0.23383 0.0
H640 H 0.7812 0.42366 0.23505 0.0
H641 H 0.81159 0.42683 0.19805 0.0
H642 H 0.80192 0.37465 0.13242 0.0
H643 H 0.77133 0.37129 0.1685 0.0
C644 C 0.72228 0.34523 0.38493 0.0
C645 C 0.72432 0.32712 0.36889 0.0
C646 C 0.72643 0.3612 0.35573 0.0
C647 C 0.73224 0.35945 0.30935 0.0
C648 C 0.73494 0.34136 0.29384 0.0
C649 C 0.73109 0.32532 0.32344 0.0
C650 C 0.73488 0.37653 0.27674 0.0
C651 C 0.75195 0.37893 0.25466 0.0
C652 C 0.72081 0.39073 0.26856 0.0
C653 C 0.70182 0.3884 0.28701 0.0
C654 C 0.69074 0.37265 0.27641 0.0
C655 C 0.67293 0.37045 0.29415 0.0
C656 C 0.66597 0.38397 0.32223 0.0
C657 C 0.6768 0.39976 0.33252 0.0
C658 C 0.69464 0.40202 0.31491 0.0
C659 C 0.74488 0.44229 0.10693 0.0
C660 C 0.74388 0.46012 0.12535 0.0
C661 C 0.74504 0.42587 0.1376 0.0
C662 C 0.74391 0.42698 0.18711 0.0
C663 C 0.74329 0.44471 0.20578 0.0
C664 C 0.74338 0.46112 0.17525 0.0
C665 C 0.7416 0.4097 0.21886 0.0
C666 C 0.7245 0.40724 0.24046 0.0
C667 C 0.75548 0.39535 0.22573 0.0
C668 C 0.77388 0.39733 0.20408 0.0
C669 C 0.78547 0.41295 0.21236 0.0
C670 C 0.80275 0.41476 0.19163 0.0
C671 C 0.80866 0.40098 0.16279 0.0
C672 C 0.79732 0.38533 0.15471 0.0
C673 C 0.78001 0.38346 0.17533 0.0
H674 H 0.82205 0.4024 0.14679 0.0
H675 H 0.65217 0.38224 0.33592 0.0
H676 H 0.17939 0.25924 0.86331 0.0
H677 H 0.15324 0.27297 0.81104 0.0
H678 H 0.11628 0.22953 0.8646 0.0
H679 H 0.14236 0.2156 0.91689 0.0
H680 H 0.11189 0.23411 0.7691 0.0
H681 H 0.11339 0.27352 0.89868 0.0
H682 H 0.12505 0.29533 0.95841 0.0
H683 H 0.13785 0.33631 0.84539 0.0
H684 H 0.1267 0.31456 0.78486 0.0
H685 H 0.02447 0.28491 0.6927 0.0
H686 H 0.05074 0.26962 0.74265 0.0
H687 H 0.09039 0.29874 0.65453 0.0
H688 H 0.06422 0.31369 0.60384 0.0
H689 H 0.0929 0.30129 0.76668 0.0
H690 H 0.09131 0.25942 0.6374 0.0
H691 H 0.0755 0.23811 0.58182 0.0
H692 H 0.05947 0.20186 0.70128 0.0
H693 H 0.07493 0.22316 0.75762 0.0
C694 C 0.16571 0.25257 0.86407 0.0
C695 C 0.16303 0.23624 0.89431 0.0
C696 C 0.15074 0.26053 0.83432 0.0
C697 C 0.13277 0.25234 0.8341 0.0
C698 C 0.13003 0.23607 0.86417 0.0
C699 C 0.14497 0.22816 0.89416 0.0
C700 C 0.11698 0.26043 0.80144 0.0
C701 C 0.10766 0.24877 0.769 0.0
C702 C 0.11153 0.27962 0.80086 0.0
C703 C 0.11937 0.2923 0.83715 0.0
C704 C 0.11898 0.28705 0.88649 0.0
C705 C 0.1254 0.29945 0.92052 0.0
C706 C 0.13207 0.31724 0.9057 0.0
C707 C 0.13255 0.32258 0.8568 0.0
C708 C 0.12625 0.31019 0.82262 0.0
C709 C 0.0388 0.28777 0.68359 0.0
C710 C 0.04235 0.30023 0.64406 0.0
C711 C 0.05373 0.27907 0.71206 0.0
C712 C 0.07242 0.28306 0.70203 0.0
C713 C 0.07602 0.29543 0.66251 0.0
C714 C 0.06109 0.3038 0.63339 0.0
C715 C 0.08819 0.27504 0.73438 0.0
C716 C 0.09737 0.2867 0.7668 0.0
C717 C 0.09332 0.25585 0.73548 0.0
C718 C 0.08407 0.24301 0.70171 0.0
C719 C 0.08423 0.24702 0.65183 0.0
C720 C 0.07537 0.23492 0.62018 0.0
C721 C 0.06643 0.21867 0.63801 0.0
C722 C 0.06637 0.21447 0.68752 0.0
C723 C 0.07519 0.22655 0.71933 0.0
H724 H 0.05959 0.20931 0.61345 0.0
H725 H 0.13699 0.32684 0.9321 0.0
H726 H 0.2972 0.64044 0.4524 0.0
H727 H 0.28976 0.61725 0.39322 0.0
H728 H 0.24406 0.65254 0.32931 0.0
H729 H 0.25141 0.67574 0.38752 0.0
H730 H 0.25871 0.5965 0.3663 0.0
H731 H 0.24447 0.6539 0.20941 0.0
H732 H 0.25487 0.68615 0.18634 0.0
H733 H 0.30695 0.67628 0.2718 0.0
H734 H 0.29699 0.64389 0.29478 0.0
H735 H 0.2049 0.56169 0.17088 0.0
H736 H 0.21852 0.5788 0.23723 0.0
H737 H 0.2685 0.58973 0.16108 0.0
H738 H 0.25472 0.573 0.09381 0.0
H739 H 0.25774 0.62047 0.19522 0.0
H740 H 0.26873 0.55787 0.26133 0.0
H741 H 0.26126 0.5248 0.28484 0.0
H742 H 0.22142 0.54303 0.38037 0.0
H743 H 0.22844 0.57623 0.35694 0.0
C744 C 0.28542 0.64315 0.42611 0.0
C745 C 0.27509 0.6601 0.4243 0.0
C746 C 0.28119 0.62988 0.39236 0.0
C747 C 0.26662 0.63338 0.35632 0.0
C748 C 0.25563 0.64975 0.35621 0.0
C749 C 0.25985 0.663 0.38964 0.0
C750 C 0.26326 0.6205 0.31728 0.0
C751 C 0.25855 0.60167 0.32887 0.0
C752 C 0.26364 0.62714 0.26848 0.0
C753 C 0.2699 0.64651 0.2541 0.0
C754 C 0.25818 0.65857 0.22306 0.0
C755 C 0.264 0.67689 0.21004 0.0
C756 C 0.28154 0.68328 0.22769 0.0
C757 C 0.29334 0.67134 0.25827 0.0
C758 C 0.28761 0.65301 0.27133 0.0
C759 C 0.21884 0.56763 0.16828 0.0
C760 C 0.22872 0.56598 0.12701 0.0
C761 C 0.22668 0.5773 0.20648 0.0
C762 C 0.24467 0.58534 0.20453 0.0
C763 C 0.25463 0.5836 0.16349 0.0
C764 C 0.24674 0.57401 0.12508 0.0
C765 C 0.25248 0.59654 0.24404 0.0
C766 C 0.25805 0.61514 0.23256 0.0
C767 C 0.25331 0.58952 0.29283 0.0
C768 C 0.24902 0.56956 0.30708 0.0
C769 C 0.25827 0.55484 0.28708 0.0
C770 C 0.25413 0.53607 0.30044 0.0
C771 C 0.24084 0.53182 0.33401 0.0
C772 C 0.2317 0.54634 0.35436 0.0
C773 C 0.23577 0.56514 0.34109 0.0
H774 H 0.23766 0.51728 0.34431 0.0
H775 H 0.28601 0.69747 0.21762 0.0
H776 H 0.32295 0.74464 0.68495 0.0
H777 H 0.35014 0.75571 0.73298 0.0
H778 H 0.38481 0.71252 0.68291 0.0
H779 H 0.35765 0.70118 0.63491 0.0
H780 H 0.39047 0.71512 0.77971 0.0
H781 H 0.38874 0.75755 0.63826 0.0
H782 H 0.37395 0.78006 0.57589 0.0
H783 H 0.36161 0.81756 0.68307 0.0
H784 H 0.37613 0.79513 0.74637 0.0
H785 H 0.47408 0.75279 0.88814 0.0
H786 H 0.45161 0.74222 0.82538 0.0
H787 H 0.41202 0.7849 0.85629 0.0
H788 H 0.43442 0.79578 0.91801 0.0
H789 H 0.4111 0.78175 0.7628 0.0
H790 H 0.40914 0.73906 0.90398 0.0
H791 H 0.42242 0.71672 0.96911 0.0
H792 H 0.44011 0.68007 0.86527 0.0
H793 H 0.42713 0.70233 0.79949 0.0
C794 C 0.33632 0.73743 0.6841 0.0
C795 C 0.33806 0.722 0.65591 0.0
C796 C 0.35189 0.74387 0.71141 0.0
C797 C 0.36956 0.73509 0.71103 0.0
C798 C 0.37132 0.71954 0.68356 0.0
C799 C 0.35576 0.7131 0.6561 0.0
C800 C 0.38608 0.74201 0.74001 0.0
C801 C 0.39523 0.72959 0.77541 0.0
C802 C 0.392 0.761 0.73511 0.0
C803 C 0.3834 0.77459 0.6971 0.0
C804 C 0.38276 0.77054 0.6486 0.0
C805 C 0.37444 0.7833 0.61304 0.0
C806 C 0.36681 0.80023 0.62544 0.0
C807 C 0.36752 0.80444 0.67349 0.0
C808 C 0.37582 0.79172 0.70924 0.0
C809 C 0.46071 0.76012 0.88103 0.0
C810 C 0.456 0.77503 0.90843 0.0
C811 C 0.44784 0.75398 0.84534 0.0
C812 C 0.42999 0.76255 0.83672 0.0
C813 C 0.42567 0.77803 0.86236 0.0
C814 C 0.43852 0.7842 0.8978 0.0
C815 C 0.41535 0.75492 0.80292 0.0
C816 C 0.40653 0.7672 0.76666 0.0
C817 C 0.40958 0.73586 0.80739 0.0
C818 C 0.41737 0.72246 0.84685 0.0
C819 C 0.416 0.72631 0.89505 0.0
C820 C 0.42344 0.71365 0.93207 0.0
C821 C 0.43216 0.69702 0.92133 0.0
C822 C 0.43339 0.69298 0.87353 0.0
C823 C 0.42599 0.70561 0.83637 0.0
H824 H 0.43791 0.68723 0.95004 0.0
H825 H 0.36037 0.81009 0.59783 0.0
H826 H 0.79042 0.86195 0.08749 0.0
H827 H 0.78146 0.88532 0.14197 0.0
H828 H 0.76769 0.84058 0.24583 0.0
H829 H 0.77601 0.81728 0.1913 0.0
H830 H 0.74122 0.86575 0.23833 0.0
H831 H 0.80918 0.86765 0.25656 0.0
H832 H 0.84116 0.8716 0.22858 0.0
H833 H 0.82735 0.92814 0.17317 0.0
H834 H 0.7952 0.92444 0.2003 0.0
H835 H 0.73763 0.91266 0.44955 0.0
H836 H 0.74857 0.8929 0.38925 0.0
H837 H 0.75335 0.94196 0.29117 0.0
H838 H 0.74248 0.96194 0.35149 0.0
H839 H 0.78356 0.91694 0.29061 0.0
H840 H 0.71591 0.91507 0.27718 0.0
H841 H 0.6843 0.9108 0.30719 0.0
H842 H 0.69809 0.85349 0.35558 0.0
H843 H 0.72989 0.8575 0.32645 0.0
C844 C 0.78554 0.85711 0.12201 0.0
C845 C 0.7839 0.83774 0.13498 0.0
C846 C 0.78049 0.87049 0.15321 0.0
C847 C 0.77406 0.86472 0.19826 0.0
C848 C 0.77254 0.84539 0.21124 0.0
C849 C 0.77733 0.83207 0.17996 0.0
C850 C 0.76843 0.87864 0.2318 0.0
C851 C 0.75059 0.8768 0.2501 0.0
C852 C 0.7804 0.89344 0.24618 0.0
C853 C 0.79973 0.89569 0.22999 0.0
C854 C 0.81292 0.88088 0.23808 0.0
C855 C 0.83108 0.88308 0.22244 0.0
C856 C 0.83626 0.9001 0.19899 0.0
C857 C 0.82331 0.91496 0.19126 0.0
C858 C 0.80512 0.91282 0.20679 0.0
C859 C 0.74114 0.91931 0.41533 0.0
C860 C 0.73902 0.93887 0.40519 0.0
C861 C 0.74734 0.90798 0.38085 0.0
C862 C 0.75151 0.91595 0.33554 0.0
C863 C 0.75014 0.93554 0.32589 0.0
C864 C 0.74388 0.94691 0.36036 0.0
C865 C 0.7566 0.90367 0.29782 0.0
C866 C 0.77422 0.9059 0.2786 0.0
C867 C 0.7445 0.88912 0.28274 0.0
C868 C 0.72534 0.88664 0.29998 0.0
C869 C 0.71225 0.9016 0.29453 0.0
C870 C 0.69429 0.89922 0.31133 0.0
C871 C 0.68921 0.8819 0.33337 0.0
C872 C 0.70206 0.8669 0.33854 0.0
C873 C 0.72004 0.86922 0.32184 0.0
H874 H 0.6753 0.88009 0.34636 0.0
H875 H 0.85033 0.90178 0.1869 0.0
H876 H 0.65023 0.28783 0.59265 0.0
H877 H 0.62717 0.27815 0.65074 0.0
H878 H 0.65511 0.22427 0.67835 0.0
H879 H 0.67833 0.2339 0.62116 0.0
H880 H 0.61439 0.22263 0.66806 0.0
H881 H 0.66527 0.25415 0.75565 0.0
H882 H 0.6866 0.28058 0.77155 0.0
H883 H 0.63902 0.31708 0.78031 0.0
H884 H 0.61738 0.29074 0.76442 0.0
H885 H 0.59068 0.18404 0.8936 0.0
H886 H 0.60601 0.19672 0.82317 0.0
H887 H 0.58043 0.25102 0.83522 0.0
H888 H 0.56536 0.23851 0.90665 0.0
H889 H 0.61603 0.25525 0.81912 0.0
H890 H 0.56502 0.2223 0.74571 0.0
H891 H 0.54359 0.19572 0.73154 0.0
H892 H 0.58996 0.16245 0.69393 0.0
H893 H 0.61174 0.18873 0.70854 0.0
C894 C 0.65131 0.27384 0.61069 0.0
C895 C 0.66615 0.26166 0.60262 0.0
C896 C 0.63817 0.26837 0.64389 0.0
C897 C 0.63952 0.25053 0.66886 0.0
C898 C 0.65384 0.23808 0.65936 0.0
C899 C 0.66714 0.24364 0.62688 0.0
C900 C 0.62673 0.24511 0.70691 0.0
C901 C 0.61474 0.22967 0.70121 0.0
C902 C 0.62683 0.25469 0.74941 0.0
C903 C 0.63975 0.27058 0.75825 0.0
C904 C 0.65937 0.26786 0.7605 0.0
C905 C 0.67151 0.28282 0.76964 0.0
C906 C 0.66418 0.30056 0.77667 0.0
C907 C 0.64468 0.30335 0.77473 0.0
C908 C 0.63247 0.2884 0.76577 0.0
C909 C 0.58825 0.19867 0.88126 0.0
C910 C 0.57676 0.21025 0.90572 0.0
C911 C 0.59692 0.20588 0.84069 0.0
C912 C 0.59411 0.22475 0.8233 0.0
C913 C 0.58272 0.23639 0.8478 0.0
C914 C 0.57412 0.22922 0.88862 0.0
C915 C 0.60381 0.23245 0.78092 0.0
C916 C 0.61529 0.24834 0.78573 0.0
C917 C 0.60308 0.22334 0.73744 0.0
C918 C 0.59004 0.20746 0.72859 0.0
C919 C 0.57068 0.20927 0.73478 0.0
C920 C 0.55846 0.19426 0.7266 0.0
C921 C 0.56542 0.1774 0.71193 0.0
C922 C 0.5846 0.17552 0.70532 0.0
C923 C 0.59688 0.19048 0.71348 0.0
H924 H 0.55593 0.1658 0.70561 0.0
H925 H 0.67359 0.31214 0.78383 0.0
H926 H 0.23623 0.18082 0.19082 0.0
H927 H 0.24871 0.15399 0.24216 0.0
H928 H 0.2287 0.11633 0.13584 0.0
H929 H 0.21565 0.14323 0.08443 0.0
H930 H 0.2226 0.10181 0.22399 0.0
H931 H 0.27527 0.12943 0.14816 0.0
H932 H 0.29651 0.15513 0.12306 0.0
H933 H 0.3117 0.16441 0.2706 0.0
H934 H 0.2903 0.13899 0.29663 0.0
H935 H 0.28141 0.02466 0.32233 0.0
H936 H 0.26573 0.04996 0.27026 0.0
H937 H 0.28153 0.08979 0.3749 0.0
H938 H 0.2976 0.06468 0.42641 0.0
H939 H 0.28984 0.10239 0.28481 0.0
H940 H 0.23641 0.07541 0.36008 0.0
H941 H 0.21502 0.04984 0.38496 0.0
H942 H 0.20167 0.03913 0.23746 0.0
H943 H 0.2232 0.06449 0.2117 0.0
C944 C 0.23441 0.16685 0.17825 0.0
C945 C 0.22507 0.1642 0.13326 0.0
C946 C 0.24163 0.1515 0.20765 0.0
C947 C 0.24001 0.13317 0.19244 0.0
C948 C 0.23021 0.13037 0.14819 0.0
C949 C 0.22277 0.14575 0.11884 0.0
C950 C 0.24875 0.11706 0.22271 0.0
C951 C 0.23738 0.10179 0.23667 0.0
C952 C 0.26797 0.1172 0.23996 0.0
C953 C 0.28105 0.13237 0.22435 0.0
C954 C 0.28304 0.13703 0.17527 0.0
C955 C 0.29512 0.15154 0.16087 0.0
C956 C 0.30542 0.16141 0.19523 0.0
C957 C 0.3037 0.15676 0.24404 0.0
C958 C 0.2916 0.14229 0.25864 0.0
C959 C 0.28132 0.03878 0.33444 0.0
C960 C 0.29034 0.0426 0.37898 0.0
C961 C 0.27232 0.0532 0.30475 0.0
C962 C 0.27229 0.07173 0.31894 0.0
C963 C 0.28125 0.07556 0.36345 0.0
C964 C 0.29017 0.06113 0.39324 0.0
C965 C 0.26364 0.08727 0.2865 0.0
C966 C 0.27508 0.1024 0.27198 0.0
C967 C 0.24454 0.08695 0.26859 0.0
C968 C 0.23157 0.07172 0.284 0.0
C969 C 0.22904 0.06749 0.33297 0.0
C970 C 0.21687 0.05306 0.34722 0.0
C971 C 0.20703 0.04283 0.31282 0.0
C972 C 0.20932 0.04705 0.26407 0.0
C973 C 0.2215 0.06146 0.24962 0.0
H974 H 0.19761 0.03166 0.32393 0.0
H975 H 0.31478 0.17262 0.18408 0.0
H976 H 0.20678 0.285 0.07768 0.0
H977 H 0.19904 0.31859 0.06733 0.0
H978 H 0.22794 0.32339 0.93658 0.0
H979 H 0.23502 0.28966 0.9457 0.0
H980 H 0.21606 0.35067 0.06154 0.0
H981 H 0.20287 0.3536 0.85242 0.0
H982 H 0.19457 0.3316 0.79017 0.0
H983 H 0.16916 0.29423 0.89401 0.0
H984 H 0.17652 0.31634 0.95637 0.0
H985 H 0.20666 0.44555 0.97558 0.0
H986 H 0.21622 0.41248 0.98812 0.0
H987 H 0.16046 0.39561 0.93718 0.0
H988 H 0.15118 0.42872 0.92217 0.0
H989 H 0.18362 0.37363 0.9055 0.0
H990 H 0.17603 0.39412 0.0609 0.0
H991 H 0.18045 0.41434 0.12871 0.0
H992 H 0.23978 0.40204 0.14087 0.0
H993 H 0.23576 0.38193 0.0727 0.0
C994 C 0.21173 0.29328 0.04712 0.0
C995 C 0.2213 0.28468 0.01217 0.0
C996 C 0.2073 0.31248 0.04126 0.0
C997 C 0.21255 0.32342 0.00063 0.0
C998 C 0.22333 0.31512 0.96757 0.0
C999 C 0.22743 0.29587 0.97291 0.0
C1000 C 0.20576 0.34316 0.99132 0.0
C1001 C 0.20902 0.35571 0.02737 0.0
C1002 C 0.19594 0.34956 0.9473 0.0
C1003 C 0.19054 0.33656 0.90935 0.0
C1004 C 0.19534 0.34079 0.86191 0.0
C1005 C 0.19077 0.32829 0.82655 0.0
C1006 C 0.18143 0.31148 0.83818 0.0
C1007 C 0.1765 0.3072 0.8851 0.0
C1008 C 0.18078 0.31977 0.9204 0.0
C1009 C 0.19648 0.43477 0.96683 0.0
C1010 C 0.17815 0.43969 0.94814 0.0
C1011 C 0.20191 0.41586 0.9743 0.0
C1012 C 0.18895 0.40147 0.96464 0.0
C1013 C 0.17073 0.40641 0.94502 0.0
C1014 C 0.16542 0.42534 0.93654 0.0
C1015 C 0.19433 0.38131 0.97535 0.0
C1016 C 0.19072 0.36863 0.93961 0.0
C1017 C 0.20312 0.37458 0.02037 0.0
C1018 C 0.20561 0.38666 0.0614 0.0
C1019 C 0.19004 0.39583 0.07782 0.0
C1020 C 0.19247 0.40726 0.11635 0.0
C1021 C 0.21039 0.40951 0.139 0.0
C1022 C 0.22592 0.4003 0.12325 0.0
C1023 C 0.22357 0.38887 0.08469 0.0
H1024 H 0.21224 0.41836 0.16883 0.0
H1025 H 0.17796 0.3018 0.81081 0.0
H1026 H 0.21558 0.72008 0.59736 0.0
H1027 H 0.18142 0.71554 0.5909 0.0
H1028 H 0.18336 0.7066 0.44056 0.0
H1029 H 0.21729 0.71152 0.4463 0.0
H1030 H 0.15423 0.72804 0.45338 0.0
H1031 H 0.18066 0.66984 0.5269 0.0
H1032 H 0.19987 0.65012 0.58787 0.0
H1033 H 0.16594 0.66748 0.69782 0.0
H1034 H 0.1467 0.68761 0.63757 0.0
H1035 H 0.07101 0.67619 0.40359 0.0
H1036 H 0.10371 0.68603 0.41826 0.0
H1037 H 0.09216 0.70034 0.56039 0.0
H1038 H 0.0593 0.69062 0.54593 0.0
H1039 H 0.12517 0.67844 0.55765 0.0
H1040 H 0.09712 0.73489 0.47984 0.0
H1041 H 0.0782 0.75377 0.41652 0.0
H1042 H 0.11549 0.73819 0.31175 0.0
H1043 H 0.13449 0.71898 0.37434 0.0
C1044 C 0.20874 0.71724 0.56286 0.0
C1045 C 0.21924 0.71611 0.5224 0.0
C1046 C 0.18921 0.71458 0.55928 0.0
C1047 C 0.17986 0.71051 0.51536 0.0
C1048 C 0.19025 0.70975 0.4748 0.0
C1049 C 0.20971 0.71253 0.47823 0.0
C1050 C 0.1593 0.70668 0.51144 0.0
C1051 C 0.14792 0.71709 0.47597 0.0
C1052 C 0.15097 0.69267 0.54159 0.0
C1053 C 0.16238 0.6804 0.5778 0.0
C1054 C 0.17738 0.66956 0.56413 0.0
C1055 C 0.18826 0.6583 0.59855 0.0
C1056 C 0.18417 0.65757 0.64671 0.0
C1057 C 0.16912 0.66808 0.66052 0.0
C1058 C 0.15822 0.67943 0.62625 0.0
C1059 C 0.07538 0.68152 0.43789 0.0
C1060 C 0.06256 0.68266 0.47357 0.0
C1061 C 0.09406 0.68718 0.44617 0.0
C1062 C 0.1003 0.694 0.49031 0.0
C1063 C 0.08758 0.69513 0.52608 0.0
C1064 C 0.06882 0.68965 0.51765 0.0
C1065 C 0.12024 0.6996 0.49914 0.0
C1066 C 0.13149 0.68951 0.53548 0.0
C1067 C 0.1285 0.71376 0.46946 0.0
C1068 C 0.11714 0.72536 0.43174 0.0
C1069 C 0.1012 0.73536 0.44324 0.0
C1070 C 0.09048 0.74615 0.40748 0.0
C1071 C 0.09561 0.74715 0.36012 0.0
C1072 C 0.11152 0.73739 0.34844 0.0
C1073 C 0.12228 0.72657 0.38406 0.0
H1074 H 0.08729 0.75551 0.3325 0.0
H1075 H 0.19263 0.64884 0.6733 0.0
H1076 H 0.77729 0.71973 0.08966 0.0
H1077 H 0.77773 0.68555 0.0921 0.0
H1078 H 0.79292 0.68802 0.94527 0.0
H1079 H 0.79193 0.72253 0.942 0.0
H1080 H 0.7663 0.66353 0.9569 0.0
H1081 H 0.82507 0.67328 0.04045 0.0
H1082 H 0.84762 0.68706 0.09895 0.0
H1083 H 0.81768 0.66201 0.21506 0.0
H1084 H 0.79476 0.64828 0.15725 0.0
H1085 H 0.76937 0.56343 0.98419 0.0
H1086 H 0.78278 0.59509 0.97506 0.0
H1087 H 0.75972 0.60896 0.10655 0.0
H1088 H 0.74619 0.57744 0.11586 0.0
H1089 H 0.79656 0.62381 0.09409 0.0
H1090 H 0.73499 0.61973 0.00575 0.0
H1091 H 0.71276 0.6065 0.94546 0.0
H1092 H 0.75033 0.6212 0.83536 0.0
H1093 H 0.7729 0.6343 0.8952 0.0
C1094 C 0.78088 0.71308 0.05789 0.0
C1095 C 0.78457 0.7239 0.0156 0.0
C1096 C 0.78127 0.69347 0.05949 0.0
C1097 C 0.78574 0.68417 0.0192 0.0
C1098 C 0.78955 0.6949 0.9769 0.0
C1099 C 0.78894 0.7146 0.97507 0.0
C1100 C 0.78511 0.66328 0.02082 0.0
C1101 C 0.77335 0.65483 0.98622 0.0
C1102 C 0.79418 0.65187 0.05926 0.0
C1103 C 0.80812 0.6598 0.09441 0.0
C1104 C 0.82322 0.67077 0.07844 0.0
C1105 C 0.83608 0.67857 0.11149 0.0
C1106 C 0.83407 0.67542 0.16067 0.0
C1107 C 0.81922 0.66442 0.17693 0.0
C1108 C 0.80631 0.65659 0.14402 0.0
C1109 C 0.76745 0.5731 0.01164 0.0
C1110 C 0.75655 0.56802 0.0505 0.0
C1111 C 0.77512 0.59117 0.00632 0.0
C1112 C 0.7721 0.60436 0.03993 0.0
C1113 C 0.76223 0.59895 0.08027 0.0
C1114 C 0.75442 0.58097 0.08538 0.0
C1115 C 0.77743 0.62434 0.03091 0.0
C1116 C 0.78999 0.63256 0.06416 0.0
C1117 C 0.76933 0.63554 0.99091 0.0
C1118 C 0.75572 0.62776 0.95499 0.0
C1119 C 0.73857 0.61999 0.96875 0.0
C1120 C 0.7259 0.61255 0.93466 0.0
C1121 C 0.73016 0.61295 0.88664 0.0
C1122 C 0.74707 0.62086 0.87258 0.0
C1123 C 0.75981 0.62829 0.90656 0.0
H1124 H 0.72033 0.60719 0.86029 0.0
H1125 H 0.84405 0.68148 0.18616 0.0
H1126 H 0.78419 0.26718 0.57494 0.0
H1127 H 0.81756 0.27463 0.58346 0.0
H1128 H 0.81943 0.28022 0.42957 0.0
H1129 H 0.78572 0.27279 0.4203 0.0
H1130 H 0.85159 0.26039 0.48338 0.0
H1131 H 0.81621 0.31849 0.47903 0.0
H1132 H 0.7907 0.33828 0.50401 0.0
H1133 H 0.81465 0.33292 0.64949 0.0
H1134 H 0.84016 0.31285 0.62548 0.0
H1135 H 0.93911 0.30961 0.49066 0.0
H1136 H 0.90692 0.29887 0.47243 0.0
H1137 H 0.89459 0.30422 0.61959 0.0
H1138 H 0.92655 0.3155 0.63765 0.0
H1139 H 0.86727 0.31905 0.56316 0.0
H1140 H 0.90122 0.26063 0.57257 0.0
H1141 H 0.92567 0.23832 0.55353 0.0
H1142 H 0.90425 0.24198 0.40587 0.0
H1143 H 0.87981 0.26453 0.42392 0.0
C1144 C 0.79163 0.26979 0.54269 0.0
C1145 C 0.78215 0.26956 0.49683 0.0
C1146 C 0.81074 0.27405 0.54775 0.0
C1147 C 0.82085 0.27817 0.50718 0.0
C1148 C 0.81179 0.2771 0.46129 0.0
C1149 C 0.79254 0.27291 0.4561 0.0
C1150 C 0.84054 0.28474 0.51335 0.0
C1151 C 0.8551 0.27337 0.49998 0.0
C1152 C 0.84497 0.30141 0.53629 0.0
C1153 C 0.83003 0.31405 0.55049 0.0
C1154 C 0.81599 0.32146 0.51638 0.0
C1155 C 0.80153 0.33273 0.53037 0.0
C1156 C 0.80103 0.33682 0.57834 0.0
C1157 C 0.81505 0.32973 0.61235 0.0
C1158 C 0.82954 0.31843 0.59856 0.0
C1159 C 0.92958 0.30837 0.51922 0.0
C1160 C 0.93537 0.31342 0.56561 0.0
C1161 C 0.91119 0.30215 0.50879 0.0
C1162 C 0.89834 0.30058 0.54472 0.0
C1163 C 0.90422 0.30537 0.59122 0.0
C1164 C 0.92252 0.31176 0.60154 0.0
C1165 C 0.87858 0.29459 0.53367 0.0
C1166 C 0.86391 0.30612 0.54612 0.0
C1167 C 0.87409 0.27792 0.51052 0.0
C1168 C 0.88882 0.26444 0.49949 0.0
C1169 C 0.90183 0.25681 0.53595 0.0
C1170 C 0.91567 0.2441 0.52536 0.0
C1171 C 0.91655 0.23878 0.47849 0.0
C1172 C 0.90357 0.24614 0.44214 0.0
C1173 C 0.88972 0.25888 0.45253 0.0
H1174 H 0.92727 0.22893 0.47037 0.0
H1175 H 0.78978 0.34548 0.58914 0.0
H1176 H 0.72526 0.20317 0.41956 0.0
H1177 H 0.71935 0.16916 0.42351 0.0
H1178 H 0.7025 0.17139 0.56808 0.0
H1179 H 0.7089 0.20498 0.56502 0.0
H1180 H 0.72362 0.14193 0.56367 0.0
H1181 H 0.67077 0.17045 0.46598 0.0
H1182 H 0.65599 0.18953 0.39639 0.0
H1183 H 0.67879 0.15243 0.30064 0.0
H1184 H 0.69413 0.13335 0.36966 0.0
H1185 H 0.66468 0.06409 0.60424 0.0
H1186 H 0.67696 0.09575 0.58774 0.0
H1187 H 0.69748 0.07917 0.45561 0.0
H1188 H 0.68521 0.04731 0.47188 0.0
H1189 H 0.67843 0.11403 0.44572 0.0
H1190 H 0.72845 0.0837 0.54582 0.0
H1191 H 0.74256 0.06476 0.61654 0.0
H1192 H 0.72379 0.10544 0.70907 0.0
H1193 H 0.70932 0.1245 0.63894 0.0
C1194 C 0.72038 0.19637 0.45222 0.0
C1195 C 0.71758 0.20681 0.49197 0.0
C1196 C 0.71694 0.17695 0.45438 0.0
C1197 C 0.7103 0.16773 0.49596 0.0
C1198 C 0.7077 0.17814 0.53569 0.0
C1199 C 0.71134 0.1974 0.53381 0.0
C1200 C 0.70576 0.14732 0.49866 0.0
C1201 C 0.71365 0.13589 0.53797 0.0
C1202 C 0.69318 0.13924 0.46439 0.0
C1203 C 0.68379 0.15061 0.42296 0.0
C1204 C 0.67276 0.16644 0.43008 0.0
C1205 C 0.66426 0.17725 0.39075 0.0
C1206 C 0.66644 0.17222 0.34414 0.0
C1207 C 0.67713 0.15634 0.33676 0.0
C1208 C 0.68576 0.14553 0.37597 0.0
C1209 C 0.67181 0.06713 0.57168 0.0
C1210 C 0.67403 0.05316 0.53945 0.0
C1211 C 0.67887 0.08522 0.56238 0.0
C1212 C 0.68827 0.08973 0.52068 0.0
C1213 C 0.6903 0.07593 0.48805 0.0
C1214 C 0.68335 0.05774 0.4975 0.0
C1215 C 0.69584 0.10894 0.5115 0.0
C1216 C 0.68858 0.12007 0.47098 0.0
C1217 C 0.70888 0.11682 0.54483 0.0
C1218 C 0.71769 0.10546 0.58711 0.0
C1219 C 0.72721 0.08854 0.58127 0.0
C1220 C 0.73529 0.07779 0.62125 0.0
C1221 C 0.73404 0.08388 0.66728 0.0
C1222 C 0.72474 0.10074 0.6734 0.0
C1223 C 0.71662 0.11154 0.63354 0.0
H1224 H 0.74031 0.07553 0.69819 0.0
H1225 H 0.65983 0.18061 0.31376 0.0
H1226 H 0.27948 0.20006 0.0957 0.0
H1227 H 0.3129 0.1921 0.10511 0.0
H1228 H 0.32158 0.22331 0.97062 0.0
H1229 H 0.28775 0.23062 0.95983 0.0
H1230 H 0.34116 0.19197 0.97735 0.0
H1231 H 0.33423 0.24139 0.08383 0.0
H1232 H 0.31985 0.25691 0.14843 0.0
H1233 H 0.33477 0.20949 0.24751 0.0
H1234 H 0.34911 0.19363 0.18341 0.0
H1235 H 0.44108 0.19201 0.02099 0.0
H1236 H 0.40814 0.20202 0.00651 0.0
H1237 H 0.39441 0.16987 0.13586 0.0
H1238 H 0.42735 0.1601 0.15107 0.0
H1239 H 0.37793 0.20353 0.12963 0.0
H1240 H 0.38395 0.15375 0.02404 0.0
H1241 H 0.39771 0.13742 0.95989 0.0
H1242 H 0.38408 0.18478 0.85957 0.0
H1243 H 0.37046 0.2015 0.92332 0.0
C1244 C 0.28851 0.20533 0.06819 0.0
C1245 C 0.28106 0.2162 0.0273 0.0
C1246 C 0.30764 0.20082 0.07373 0.0
C1247 C 0.31989 0.20753 0.03926 0.0
C1248 C 0.31243 0.2181 0.99789 0.0
C1249 C 0.29314 0.22231 0.9918 0.0
C1250 C 0.3404 0.20332 0.04649 0.0
C1251 C 0.34928 0.19482 0.01029 0.0
C1252 C 0.35093 0.20661 0.08994 0.0
C1253 C 0.34267 0.2163 0.12877 0.0
C1254 C 0.3344 0.23426 0.11938 0.0
C1255 C 0.32626 0.24312 0.1559 0.0
C1256 C 0.32638 0.23419 0.20204 0.0
C1257 C 0.33471 0.21641 0.21178 0.0
C1258 C 0.34289 0.2075 0.1754 0.0
C1259 C 0.43105 0.18711 0.04642 0.0
C1260 C 0.43682 0.17522 0.08713 0.0
C1261 C 0.41221 0.19277 0.03796 0.0
C1262 C 0.39876 0.1865 0.06978 0.0
C1263 C 0.40455 0.17486 0.11079 0.0
C1264 C 0.42338 0.16926 0.11938 0.0
C1265 C 0.37865 0.19208 0.06063 0.0
C1266 C 0.36985 0.20084 0.0965 0.0
C1267 C 0.36821 0.18899 0.01695 0.0
C1268 C 0.37638 0.17896 0.97857 0.0
C1269 C 0.38403 0.16074 0.9884 0.0
C1270 C 0.39177 0.1514 0.95209 0.0
C1271 C 0.39182 0.16008 0.90572 0.0
C1272 C 0.38407 0.17809 0.89553 0.0
C1273 C 0.37632 0.1875 0.93172 0.0
H1274 H 0.39782 0.15282 0.87766 0.0
H1275 H 0.32004 0.24105 0.23024 0.0
H1276 H 0.28462 0.77915 0.43965 0.0
H1277 H 0.2892 0.81308 0.42961 0.0
H1278 H 0.28691 0.81698 0.58204 0.0
H1279 H 0.28216 0.78287 0.59266 0.0
H1280 H 0.26619 0.84529 0.5274 0.0
H1281 H 0.32831 0.81803 0.535 0.0
H1282 H 0.35299 0.79687 0.51186 0.0
H1283 H 0.34806 0.8226 0.36809 0.0
H1284 H 0.32299 0.84365 0.39001 0.0
H1285 H 0.30441 0.9381 0.53023 0.0
H1286 H 0.29677 0.90477 0.54455 0.0
H1287 H 0.30612 0.89578 0.39727 0.0
H1288 H 0.31437 0.92893 0.38319 0.0
H1289 H 0.3234 0.86983 0.45304 0.0
H1290 H 0.26099 0.89595 0.44151 0.0
H1291 H 0.23546 0.91694 0.46099 0.0
H1292 H 0.23997 0.89359 0.60709 0.0
H1293 H 0.26571 0.87262 0.58863 0.0
C1294 C 0.28501 0.78715 0.47118 0.0
C1295 C 0.2831 0.77819 0.51707 0.0
C1296 C 0.28769 0.80657 0.46531 0.0
C1297 C 0.2886 0.8175 0.50513 0.0
C1298 C 0.28628 0.80876 0.55087 0.0
C1299 C 0.28363 0.78926 0.55685 0.0
C1300 C 0.29232 0.838 0.49878 0.0
C1301 C 0.27882 0.85071 0.51178 0.0
C1302 C 0.30857 0.845 0.47728 0.0
C1303 C 0.32365 0.83232 0.46408 0.0
C1304 C 0.33236 0.81907 0.49833 0.0
C1305 C 0.34645 0.80711 0.48544 0.0
C1306 C 0.35211 0.80841 0.43856 0.0
C1307 C 0.34366 0.82162 0.4044 0.0
C1308 C 0.3295 0.83357 0.41702 0.0
C1309 C 0.30465 0.92906 0.50076 0.0
C1310 C 0.31005 0.93614 0.4556 0.0
C1311 C 0.30019 0.91001 0.50895 0.0
C1312 C 0.30071 0.89775 0.4719 0.0
C1313 C 0.30567 0.90493 0.42647 0.0
C1314 C 0.31034 0.9239 0.41843 0.0
C1315 C 0.29713 0.87726 0.48094 0.0
C1316 C 0.31074 0.8645 0.46865 0.0
C1317 C 0.28087 0.87025 0.50257 0.0
C1318 C 0.26542 0.88286 0.5138 0.0
C1319 C 0.25665 0.89541 0.47789 0.0
C1320 C 0.24211 0.90728 0.48873 0.0
C1321 C 0.23613 0.90664 0.53528 0.0
C1322 C 0.24464 0.89409 0.57107 0.0
C1323 C 0.25919 0.8822 0.56043 0.0
H1324 H 0.22487 0.91584 0.5436 0.0
H1325 H 0.36309 0.79922 0.4287 0.0
H1326 H 0.71932 0.80123 0.94696 0.0
H1327 H 0.6848 0.80189 0.94644 0.0
H1328 H 0.6878 0.77141 0.08556 0.0
H1329 H 0.72228 0.7711 0.08696 0.0
H1330 H 0.66276 0.75613 0.00861 0.0
H1331 H 0.67831 0.81364 0.08416 0.0
H1332 H 0.69264 0.84504 0.08902 0.0
H1333 H 0.65865 0.86564 0.96332 0.0
H1334 H 0.64452 0.83419 0.95681 0.0
H1335 H 0.56903 0.75802 0.07277 0.0
H1336 H 0.60318 0.75992 0.06979 0.0
H1337 H 0.59645 0.80507 0.95831 0.0
H1338 H 0.56223 0.80383 0.96296 0.0
H1339 H 0.62375 0.81347 0.01664 0.0
H1340 H 0.60871 0.7581 0.93629 0.0
H1341 H 0.59457 0.72702 0.92403 0.0
H1342 H 0.62727 0.7029 0.0482 0.0
H1343 H 0.64143 0.73391 0.06159 0.0
C1344 C 0.71261 0.79476 0.97753 0.0
C1345 C 0.72347 0.78606 0.01698 0.0
C1346 C 0.69294 0.7952 0.97722 0.0
C1347 C 0.68384 0.78668 0.01595 0.0
C1348 C 0.69463 0.77806 0.05539 0.0
C1349 C 0.71429 0.77796 0.0562 0.0
C1350 C 0.66303 0.78609 0.01471 0.0
C1351 C 0.65418 0.76861 0.01089 0.0
C1352 C 0.65195 0.80254 0.01576 0.0
C1353 C 0.66055 0.82144 0.01958 0.0
C1354 C 0.67408 0.82477 0.05711 0.0
C1355 C 0.68215 0.8426 0.06022 0.0
C1356 C 0.67661 0.85731 0.0264 0.0
C1357 C 0.66294 0.85423 0.98949 0.0
C1358 C 0.65494 0.83638 0.98597 0.0
C1359 C 0.57482 0.76828 0.04742 0.0
C1360 C 0.56295 0.78071 0.01791 0.0
C1361 C 0.59437 0.7693 0.04556 0.0
C1362 C 0.60247 0.7824 0.01316 0.0
C1363 C 0.59059 0.79482 0.98357 0.0
C1364 C 0.57103 0.79405 0.98612 0.0
C1365 C 0.62331 0.78339 0.011 0.0
C1366 C 0.63222 0.80095 0.01407 0.0
C1367 C 0.63448 0.76707 0.0081 0.0
C1368 C 0.62601 0.74838 0.00017 0.0
C1369 C 0.61279 0.7462 0.96118 0.0
C1370 C 0.60479 0.72859 0.954 0.0
C1371 C 0.60999 0.71301 0.98538 0.0
C1372 C 0.62324 0.71499 0.02395 0.0
C1373 C 0.63128 0.73258 0.03132 0.0
H1374 H 0.60378 0.69939 0.97976 0.0
H1375 H 0.68287 0.8711 0.02885 0.0
loop_
_geom_bond_atom_site_label_1
_geom_bond_atom_site_label_2
_geom_bond_distance
_geom_bond_site_symmetry_2
_ccdc_geom_bond_type
Sc0 O3 2.025 . S
Sc0 O10 2.105 . S
Sc0 O13 2.105 . S
Sc0 O16 2.105 . S
Sc0 O19 2.105 . S
Sc1 O3 2.025 . S
Sc1 O11 2.105 . S
Sc1 O15 2.105 1_554 S
Sc1 O17 2.105 . S
Sc1 O21 2.105 1_554 S
Sc2 O3 2.025 1_556 S
Sc2 O12 2.105 . S
Sc2 O14 2.105 . S
Sc2 O18 2.105 . S
Sc2 O20 2.105 . S
O3 Sc0 2.025 . S
O3 Sc1 2.025 . S
O3 Sc2 2.025 1_554 S
C4 O10 1.268 . S
C4 O20 1.268 1_554 S
C5 O11 1.268 . S
C5 O19 1.268 . S
C6 O12 1.268 . S
C6 O21 1.268 . S
C7 O13 1.268 . S
C7 O17 1.268 . S
C8 O14 1.268 1_554 S
C8 O16 1.268 . S
C9 O15 1.268 . S
C9 O18 1.268 . S
O10 Sc0 2.105 . S
O10 C4 1.268 . S
O11 Sc1 2.105 . S
O11 C5 1.268 . S
O12 Sc2 2.105 . S
O12 C6 1.268 . S
O13 Sc0 2.105 . S
O13 C7 1.268 . S
O14 Sc2 2.105 . S
O14 C8 1.268 1_556 S
O15 Sc1 2.105 1_556 S
O15 C9 1.268 . S
O16 Sc0 2.105 . S
O16 C8 1.268 . S
O17 Sc1 2.105 . S
O17 C7 1.268 . S
O18 Sc2 2.105 . S
O18 C9 1.268 . S
O19 Sc0 2.105 . S
O19 C5 1.268 . S
O20 Sc2 2.105 . S
O20 C4 1.268 1_556 S
O21 Sc1 2.105 1_556 S
O21 C6 1.268 . S
Sc22 O25 2.025 . S
Sc22 O32 2.105 . S
Sc22 O35 2.105 . S
Sc22 O38 2.105 . S
Sc22 O41 2.105 . S
Sc23 O25 2.025 . S
Sc23 O33 2.105 . S
Sc23 O37 2.105 . S
Sc23 O39 2.105 . S
Sc23 O43 2.105 . S
Sc24 O25 2.025 . S
Sc24 O34 2.105 . S
Sc24 O36 2.105 . S
Sc24 O40 2.105 . S
Sc24 O42 2.105 . S
O25 Sc22 2.025 . S
O25 Sc23 2.025 . S
O25 Sc24 2.025 . S
C26 O32 1.268 . S
C26 O42 1.268 . S
C27 O33 1.268 . S
C27 O41 1.268 . S
C28 O34 1.268 . S
C28 O43 1.268 . S
C29 O35 1.268 . S
C29 O39 1.268 . S
C30 O36 1.268 . S
C30 O38 1.268 . S
C31 O37 1.268 . S
C31 O40 1.268 . S
O32 Sc22 2.105 . S
O32 C26 1.268 . S
O33 Sc23 2.105 . S
O33 C27 1.268 . S
O34 Sc24 2.105 . S
O34 C28 1.268 . S
O35 Sc22 2.105 . S
O35 C29 1.268 . S
O36 Sc24 2.105 . S
O36 C30 1.268 . S
O37 Sc23 2.105 . S
O37 C31 1.268 . S
O38 Sc22 2.105 . S
O38 C30 1.268 . S
O39 Sc23 2.105 . S
O39 C29 1.268 . S
O40 Sc24 2.105 . S
O40 C31 1.268 . S
O41 Sc22 2.105 . S
O41 C27 1.268 . S
O42 Sc24 2.105 . S
O42 C26 1.268 . S
O43 Sc23 2.105 . S
O43 C28 1.268 . S
Sc44 O47 2.025 1_556 S
Sc44 O54 2.105 . S
Sc44 O57 2.105 . S
Sc44 O60 2.105 . S
Sc44 O63 2.105 . S
Sc45 O47 2.025 . S
Sc45 O55 2.105 1_554 S
Sc45 O59 2.105 . S
Sc45 O61 2.105 1_554 S
Sc45 O65 2.105 . S
Sc46 O47 2.025 . S
Sc46 O56 2.105 . S
Sc46 O58 2.105 . S
Sc46 O62 2.105 . S
Sc46 O64 2.105 . S
O47 Sc44 2.025 1_554 S
O47 Sc45 2.025 . S
O47 Sc46 2.025 . S
C48 O54 1.268 1_554 S
C48 O64 1.268 . S
C49 O55 1.268 . S
C49 O63 1.268 . S
C50 O56 1.268 . S
C50 O65 1.268 . S
C51 O57 1.268 . S
C51 O61 1.268 . S
C52 O58 1.268 . S
C52 O60 1.268 1_554 S
C53 O59 1.268 . S
C53 O62 1.268 . S
O54 Sc44 2.105 . S
O54 C48 1.268 1_556 S
O55 Sc45 2.105 1_556 S
O55 C49 1.268 . S
O56 Sc46 2.105 . S
O56 C50 1.268 . S
O57 Sc44 2.105 . S
O57 C51 1.268 . S
O58 Sc46 2.105 . S
O58 C52 1.268 . S
O59 Sc45 2.105 . S
O59 C53 1.268 . S
O60 Sc44 2.105 . S
O60 C52 1.268 1_556 S
O61 Sc45 2.105 1_556 S
O61 C51 1.268 . S
O62 Sc46 2.105 . S
O62 C53 1.268 . S
O63 Sc44 2.105 . S
O63 C49 1.268 . S
O64 Sc46 2.105 . S
O64 C48 1.268 . S
O65 Sc45 2.105 . S
O65 C50 1.268 . S
Sc66 O69 2.025 . S
Sc66 O76 2.105 . S
Sc66 O79 2.105 . S
Sc66 O82 2.105 . S
Sc66 O85 2.105 . S
Sc67 O69 2.025 . S
Sc67 O77 2.105 . S
Sc67 O81 2.105 . S
Sc67 O83 2.105 . S
Sc67 O87 2.105 . S
Sc68 O69 2.025 . S
Sc68 O78 2.105 . S
Sc68 O80 2.105 . S
Sc68 O84 2.105 . S
Sc68 O86 2.105 . S
O69 Sc66 2.025 . S
O69 Sc67 2.025 . S
O69 Sc68 2.025 . S
C70 O76 1.268 . S
C70 O86 1.268 . S
C71 O77 1.268 . S
C71 O85 1.268 . S
C72 O78 1.268 . S
C72 O87 1.268 . S
C73 O79 1.268 . S
C73 O83 1.268 . S
C74 O80 1.268 . S
C74 O82 1.268 . S
C75 O81 1.268 . S
C75 O84 1.268 . S
O76 Sc66 2.105 . S
O76 C70 1.268 . S
O77 Sc67 2.105 . S
O77 C71 1.268 . S
O78 Sc68 2.105 . S
O78 C72 1.268 . S
O79 Sc66 2.105 . S
O79 C73 1.268 . S
O80 Sc68 2.105 . S
O80 C74 1.268 . S
O81 Sc67 2.105 . S
O81 C75 1.268 . S
O82 Sc66 2.105 . S
O82 C74 1.268 . S
O83 Sc67 2.105 . S
O83 C73 1.268 . S
O84 Sc68 2.105 . S
O84 C75 1.268 . S
O85 Sc66 2.105 . S
O85 C71 1.268 . S
O86 Sc68 2.105 . S
O86 C70 1.268 . S
O87 Sc67 2.105 . S
O87 C72 1.268 . S
O88 Cd89 2.300 1_556 S
O88 C95 1.275 . S
Cd89 O88 2.300 1_554 S
Cd89 O97 2.381 1_554 S
Cd89 O98 2.378 . S
O90 Cd91 2.385 1_556 S
O90 C95 1.255 . S
Cd91 O90 2.385 1_554 S
Cd91 O92 2.317 . S
O92 Cd91 2.317 . S
O92 C93 1.232 . S
C93 O92 1.232 . S
C93 O94 1.218 . S
O94 C93 1.218 . S
C95 O88 1.275 . S
C95 O90 1.255 . S
C96 O97 1.258 1_554 S
C96 O98 1.256 . S
O97 Cd89 2.381 1_556 S
O97 C96 1.258 1_556 S
O98 Cd89 2.378 . S
O98 C96 1.256 . S
O99 Cd100 2.300 1_655 S
O99 C106 1.275 . S
Cd100 O99 2.300 1_455 S
Cd100 O108 2.381 . S
Cd100 O109 2.378 . S
O101 Cd102 2.385 . S
O101 C106 1.255 . S
Cd102 O101 2.385 . S
Cd102 O103 2.317 . S
O103 Cd102 2.317 . S
O103 C104 1.232 . S
C104 O103 1.232 . S
C104 O105 1.218 . S
O105 C104 1.218 . S
C106 O99 1.275 . S
C106 O101 1.255 . S
C107 O108 1.258 . S
C107 O109 1.256 . S
O108 Cd100 2.381 . S
O108 C107 1.258 . S
O109 Cd100 2.378 . S
O109 C107 1.256 . S
O110 Cd111 2.300 . S
O110 C117 1.275 . S
Cd111 O110 2.300 . S
Cd111 O119 2.381 . S
Cd111 O120 2.378 1_554 S
O112 Cd113 2.385 1_554 S
O112 C117 1.255 . S
Cd113 O112 2.385 1_556 S
Cd113 O114 2.317 . S
O114 Cd113 2.317 . S
O114 C115 1.232 . S
C115 O114 1.232 . S
C115 O116 1.218 . S
O116 C115 1.218 . S
C117 O110 1.275 . S
C117 O112 1.255 . S
C118 O119 1.258 . S
C118 O120 1.256 1_554 S
O119 Cd111 2.381 . S
O119 C118 1.258 . S
O120 Cd111 2.378 1_556 S
O120 C118 1.256 1_556 S
O121 Cd122 2.300 . S
O121 C128 1.275 . S
Cd122 O121 2.300 . S
Cd122 O130 2.383 1_455 S
Cd122 O131 2.380 1_455 S
O123 Cd124 2.385 . S
O123 C128 1.255 . S
Cd124 O123 2.385 . S
Cd124 O125 2.317 . S
O125 Cd124 2.317 . S
O125 C126 1.232 . S
C126 O125 1.232 . S
C126 O127 1.218 . S
O127 C126 1.218 . S
C128 O121 1.275 . S
C128 O123 1.255 . S
C129 O130 1.258 . S
C129 O131 1.256 . S
O130 Cd122 2.383 1_655 S
O130 C129 1.258 . S
O131 Cd122 2.380 1_655 S
O131 C129 1.256 . S
O132 Cd133 2.300 1_565 S
O132 C139 1.275 . S
Cd133 O132 2.300 1_545 S
Cd133 O141 2.381 . S
Cd133 O142 2.378 . S
O134 Cd135 2.385 . S
O134 C139 1.255 . S
Cd135 O134 2.385 . S
Cd135 O136 2.317 . S
O136 Cd135 2.317 . S
O136 C137 1.232 . S
C137 O136 1.232 . S
C137 O138 1.218 . S
O138 C137 1.218 . S
C139 O132 1.275 . S
C139 O134 1.255 . S
C140 O141 1.258 . S
C140 O142 1.256 . S
O141 Cd133 2.381 . S
O141 C140 1.258 . S
O142 Cd133 2.378 . S
O142 C140 1.256 . S
O143 Cd144 2.300 . S
O143 C150 1.275 . S
Cd144 O143 2.300 . S
Cd144 O152 2.381 . S
Cd144 O153 2.378 1_554 S
O145 Cd146 2.385 1_554 S
O145 C150 1.255 . S
Cd146 O145 2.385 1_556 S
Cd146 O147 2.317 . S
O147 Cd146 2.317 . S
O147 C148 1.232 . S
C148 O147 1.232 . S
C148 O149 1.218 . S
O149 C148 1.218 . S
C150 O143 1.275 . S
C150 O145 1.255 . S
C151 O152 1.258 . S
C151 O153 1.256 1_554 S
O152 Cd144 2.381 . S
O152 C151 1.258 . S
O153 Cd144 2.378 1_556 S
O153 C151 1.256 1_556 S
O154 Cd155 2.298 1_545 S
O154 C161 1.275 . S
Cd155 O154 2.298 1_565 S
Cd155 O163 2.387 . S
Cd155 O164 2.384 . S
O156 Cd157 2.385 . S
O156 C161 1.255 . S
Cd157 O156 2.385 . S
Cd157 O158 2.317 . S
O158 Cd157 2.317 . S
O158 C159 1.232 . S
C159 O158 1.232 . S
C159 O160 1.218 . S
O160 C159 1.218 . S
C161 O154 1.275 . S
C161 O156 1.255 . S
C162 O163 1.258 . S
C162 O164 1.256 . S
O163 Cd155 2.387 . S
O163 C162 1.258 . S
O164 Cd155 2.384 . S
O164 C162 1.256 . S
O165 Cd166 2.300 1_556 S
O165 C172 1.275 . S
Cd166 O165 2.300 1_554 S
Cd166 O174 2.381 1_554 S
Cd166 O175 2.378 . S
O167 Cd168 2.385 1_556 S
O167 C172 1.255 . S
Cd168 O167 2.385 1_554 S
Cd168 O169 2.317 . S
O169 Cd168 2.317 . S
O169 C170 1.232 . S
C170 O169 1.232 . S
C170 O171 1.218 . S
O171 C170 1.218 . S
C172 O165 1.275 . S
C172 O167 1.255 . S
C173 O174 1.258 1_554 S
C173 O175 1.256 . S
O174 Cd166 2.381 1_556 S
O174 C173 1.258 1_556 S
O175 Cd166 2.378 . S
O175 C173 1.256 . S
H176 C194 0.951 . S
H177 C196 0.951 . S
H178 C198 0.950 . S
H179 C199 0.950 . S
H180 C201 0.950 . S
H181 C204 0.950 . S
H182 C205 0.950 . S
H183 C207 0.950 . S
H184 C208 0.950 . S
H185 C209 0.951 . S
H186 C211 0.951 . S
H187 C213 0.950 . S
H188 C214 0.950 . S
H189 C216 0.950 . S
H190 C219 0.950 . S
H191 C220 0.950 . S
H192 C222 0.950 . S
H193 C223 0.950 . S
C194 H176 0.951 . S
C194 C195 1.366 . S
C194 C196 1.388 . S
C195 C194 1.366 . S
C195 C199 1.385 . S
C196 H177 0.951 . S
C196 C194 1.388 . S
C196 C197 1.366 . S
C197 C196 1.366 . S
C197 C198 1.414 . S
C197 C200 1.499 . S
C198 H178 0.950 . S
C198 C197 1.414 . S
C198 C199 1.374 . S
C199 H179 0.950 . S
C199 C195 1.385 . S
C199 C198 1.374 . S
C200 C197 1.499 . S
C200 C201 1.373 . S
C200 C202 1.389 . S
C201 H180 0.950 . S
C201 C200 1.373 . S
C201 C217 1.377 . S
C202 C200 1.389 . S
C202 C203 1.524 . S
C202 C216 1.377 . S
C203 C202 1.524 . S
C203 C204 1.397 . S
C203 C208 1.363 . S
C204 H181 0.950 . S
C204 C203 1.397 . S
C204 C205 1.334 . S
C205 H182 0.950 . S
C205 C204 1.334 . S
C205 C206 1.287 . S
C206 C205 1.287 . S
C206 C207 1.524 . S
C206 H225 0.913 . S
C207 H183 0.950 . S
C207 C206 1.524 . S
C207 C208 1.415 . S
C208 H184 0.950 . S
C208 C203 1.363 . S
C208 C207 1.415 . S
C209 H185 0.951 . S
C209 C210 1.366 . S
C209 C211 1.388 . S
C210 C209 1.366 . S
C210 C214 1.385 . S
C211 H186 0.951 . S
C211 C209 1.388 . S
C211 C212 1.366 . S
C212 C211 1.366 . S
C212 C213 1.414 . S
C212 C215 1.499 . S
C213 H187 0.950 . S
C213 C212 1.414 . S
C213 C214 1.374 . S
C214 H188 0.950 . S
C214 C210 1.385 . S
C214 C213 1.374 . S
C215 C212 1.499 . S
C215 C216 1.373 . S
C215 C217 1.389 . S
C216 H189 0.950 . S
C216 C202 1.377 . S
C216 C215 1.373 . S
C217 C201 1.377 . S
C217 C215 1.389 . S
C217 C218 1.524 . S
C218 C217 1.524 . S
C218 C219 1.397 . S
C218 C223 1.363 . S
C219 H190 0.950 . S
C219 C218 1.397 . S
C219 C220 1.334 . S
C220 H191 0.950 . S
C220 C219 1.334 . S
C220 C221 1.287 . S
C221 C220 1.287 . S
C221 C222 1.524 . S
C221 H224 0.999 . S
C222 H192 0.950 . S
C222 C221 1.524 . S
C222 C223 1.415 . S
C223 H193 0.950 . S
C223 C218 1.363 . S
C223 C222 1.415 . S
H224 C221 0.999 . S
H225 C206 0.913 . S
H226 C244 0.951 . S
H227 C246 0.951 . S
H228 C248 0.950 . S
H229 C249 0.950 . S
H230 C251 0.950 . S
H231 C254 0.950 . S
H232 C255 0.950 . S
H233 C257 0.950 . S
H234 C258 0.950 . S
H235 C259 0.951 . S
H236 C261 0.951 . S
H237 C263 0.950 . S
H238 C264 0.950 . S
H239 C266 0.950 . S
H240 C269 0.950 . S
H241 C270 0.950 . S
H242 C272 0.950 . S
H243 C273 0.950 . S
C244 H226 0.951 . S
C244 C245 1.366 . S
C244 C246 1.388 . S
C245 C244 1.366 . S
C245 C249 1.385 . S
C246 H227 0.951 . S
C246 C244 1.388 . S
C246 C247 1.366 . S
C247 C246 1.366 . S
C247 C248 1.414 . S
C247 C250 1.499 . S
C248 H228 0.950 . S
C248 C247 1.414 . S
C248 C249 1.374 . S
C249 H229 0.950 . S
C249 C245 1.385 . S
C249 C248 1.374 . S
C250 C247 1.499 . S
C250 C251 1.373 . S
C250 C252 1.389 . S
C251 H230 0.950 . S
C251 C250 1.373 . S
C251 C267 1.377 . S
C252 C250 1.389 . S
C252 C253 1.524 . S
C252 C266 1.377 . S
C253 C252 1.524 . S
C253 C254 1.397 . S
C253 C258 1.363 . S
C254 H231 0.950 . S
C254 C253 1.397 . S
C254 C255 1.334 . S
C255 H232 0.950 . S
C255 C254 1.334 . S
C255 C256 1.287 . S
C256 C255 1.287 . S
C256 C257 1.524 . S
C256 H275 0.913 . S
C257 H233 0.950 . S
C257 C256 1.524 . S
C257 C258 1.415 . S
C258 H234 0.950 . S
C258 C253 1.363 . S
C258 C257 1.415 . S
C259 H235 0.951 . S
C259 C260 1.366 . S
C259 C261 1.388 . S
C260 C259 1.366 . S
C260 C264 1.385 . S
C261 H236 0.951 . S
C261 C259 1.388 . S
C261 C262 1.366 . S
C262 C261 1.366 . S
C262 C263 1.414 . S
C262 C265 1.499 . S
C263 H237 0.950 . S
C263 C262 1.414 . S
C263 C264 1.374 . S
C264 H238 0.950 . S
C264 C260 1.385 . S
C264 C263 1.374 . S
C265 C262 1.499 . S
C265 C266 1.373 . S
C265 C267 1.389 . S
C266 H239 0.950 . S
C266 C252 1.377 . S
C266 C265 1.373 . S
C267 C251 1.377 . S
C267 C265 1.389 . S
C267 C268 1.524 . S
C268 C267 1.524 . S
C268 C269 1.397 . S
C268 C273 1.363 . S
C269 H240 0.950 . S
C269 C268 1.397 . S
C269 C270 1.334 . S
C270 H241 0.950 . S
C270 C269 1.334 . S
C270 C271 1.287 . S
C271 C270 1.287 . S
C271 C272 1.524 . S
C271 H274 0.999 . S
C272 H242 0.950 . S
C272 C271 1.524 . S
C272 C273 1.415 . S
C273 H243 0.950 . S
C273 C268 1.363 . S
C273 C272 1.415 . S
H274 C271 0.999 . S
H275 C256 0.913 . S
H276 C294 0.951 . S
H277 C296 0.951 . S
H278 C298 0.950 . S
H279 C299 0.950 . S
H280 C301 0.950 . S
H281 C304 0.950 . S
H282 C305 0.950 . S
H283 C307 0.950 . S
H284 C308 0.950 . S
H285 C309 0.951 . S
H286 C311 0.951 . S
H287 C313 0.950 . S
H288 C314 0.950 . S
H289 C316 0.950 . S
H290 C319 0.950 . S
H291 C320 0.950 . S
H292 C322 0.950 . S
H293 C323 0.950 . S
C294 H276 0.951 . S
C294 C295 1.366 . S
C294 C296 1.388 . S
C295 C294 1.366 . S
C295 C299 1.385 . S
C296 H277 0.951 . S
C296 C294 1.388 . S
C296 C297 1.366 . S
C297 C296 1.366 . S
C297 C298 1.414 . S
C297 C300 1.499 . S
C298 H278 0.950 . S
C298 C297 1.414 . S
C298 C299 1.374 . S
C299 H279 0.950 . S
C299 C295 1.385 . S
C299 C298 1.374 . S
C300 C297 1.499 . S
C300 C301 1.373 . S
C300 C302 1.389 . S
C301 H280 0.950 . S
C301 C300 1.373 . S
C301 C317 1.377 . S
C302 C300 1.389 . S
C302 C303 1.524 . S
C302 C316 1.377 . S
C303 C302 1.524 . S
C303 C304 1.397 . S
C303 C308 1.363 . S
C304 H281 0.950 . S
C304 C303 1.397 . S
C304 C305 1.334 . S
C305 H282 0.950 . S
C305 C304 1.334 . S
C305 C306 1.287 . S
C306 C305 1.287 . S
C306 C307 1.524 . S
C306 H325 0.913 . S
C307 H283 0.950 . S
C307 C306 1.524 . S
C307 C308 1.415 . S
C308 H284 0.950 . S
C308 C303 1.363 . S
C308 C307 1.415 . S
C309 H285 0.951 . S
C309 C310 1.366 . S
C309 C311 1.388 . S
C310 C309 1.366 . S
C310 C314 1.385 . S
C311 H286 0.951 . S
C311 C309 1.388 . S
C311 C312 1.366 . S
C312 C311 1.366 . S
C312 C313 1.414 . S
C312 C315 1.499 . S
C313 H287 0.950 . S
C313 C312 1.414 . S
C313 C314 1.374 . S
C314 H288 0.950 . S
C314 C310 1.385 . S
C314 C313 1.374 . S
C315 C312 1.499 . S
C315 C316 1.373 . S
C315 C317 1.389 . S
C316 H289 0.950 . S
C316 C302 1.377 . S
C316 C315 1.373 . S
C317 C301 1.377 . S
C317 C315 1.389 . S
C317 C318 1.524 . S
C318 C317 1.524 . S
C318 C319 1.397 . S
C318 C323 1.363 . S
C319 H290 0.950 . S
C319 C318 1.397 . S
C319 C320 1.334 . S
C320 H291 0.950 . S
C320 C319 1.334 . S
C320 C321 1.287 . S
C321 C320 1.287 . S
C321 C322 1.524 . S
C321 H324 0.999 . S
C322 H292 0.950 . S
C322 C321 1.524 . S
C322 C323 1.415 . S
C323 H293 0.950 . S
C323 C318 1.363 . S
C323 C322 1.415 . S
H324 C321 0.999 . S
H325 C306 0.913 . S
H326 C344 0.951 . S
H327 C346 0.951 . S
H328 C348 0.950 . S
H329 C349 0.950 . S
H330 C351 0.950 . S
H331 C354 0.950 . S
H332 C355 0.950 . S
H333 C357 0.950 . S
H334 C358 0.950 . S
H335 C359 0.951 . S
H336 C361 0.951 . S
H337 C363 0.950 . S
H338 C364 0.950 . S
H339 C366 0.950 . S
H340 C369 0.950 . S
H341 C370 0.950 . S
H342 C372 0.950 . S
H343 C373 0.950 . S
C344 H326 0.951 . S
C344 C345 1.366 . S
C344 C346 1.388 . S
C345 C344 1.366 . S
C345 C349 1.385 . S
C346 H327 0.951 . S
C346 C344 1.388 . S
C346 C347 1.366 . S
C347 C346 1.366 . S
C347 C348 1.414 . S
C347 C350 1.499 . S
C348 H328 0.950 . S
C348 C347 1.414 . S
C348 C349 1.374 . S
C349 H329 0.950 . S
C349 C345 1.385 . S
C349 C348 1.374 . S
C350 C347 1.499 . S
C350 C351 1.373 . S
C350 C352 1.389 . S
C351 H330 0.950 . S
C351 C350 1.373 . S
C351 C367 1.377 . S
C352 C350 1.389 . S
C352 C353 1.524 . S
C352 C366 1.377 . S
C353 C352 1.524 . S
C353 C354 1.397 . S
C353 C358 1.363 . S
C354 H331 0.950 . S
C354 C353 1.397 . S
C354 C355 1.334 . S
C355 H332 0.950 . S
C355 C354 1.334 . S
C355 C356 1.287 . S
C356 C355 1.287 . S
C356 C357 1.524 . S
C356 H375 0.913 . S
C357 H333 0.950 . S
C357 C356 1.524 . S
C357 C358 1.415 . S
C358 H334 0.950 . S
C358 C353 1.363 . S
C358 C357 1.415 . S
C359 H335 0.951 . S
C359 C360 1.366 . S
C359 C361 1.388 . S
C360 C359 1.366 . S
C360 C364 1.385 . S
C361 H336 0.951 . S
C361 C359 1.388 . S
C361 C362 1.366 . S
C362 C361 1.366 . S
C362 C363 1.414 . S
C362 C365 1.499 . S
C363 H337 0.950 . S
C363 C362 1.414 . S
C363 C364 1.374 . S
C364 H338 0.950 . S
C364 C360 1.385 . S
C364 C363 1.374 . S
C365 C362 1.499 . S
C365 C366 1.373 . S
C365 C367 1.389 . S
C366 H339 0.950 . S
C366 C352 1.377 . S
C366 C365 1.373 . S
C367 C351 1.377 . S
C367 C365 1.389 . S
C367 C368 1.524 . S
C368 C367 1.524 . S
C368 C369 1.397 . S
C368 C373 1.363 . S
C369 H340 0.950 . S
C369 C368 1.397 . S
C369 C370 1.334 . S
C370 H341 0.950 . S
C370 C369 1.334 . S
C370 C371 1.287 . S
C371 C370 1.287 . S
C371 C372 1.524 . S
C371 H374 0.999 . S
C372 H342 0.950 . S
C372 C371 1.524 . S
C372 C373 1.415 . S
C373 H343 0.950 . S
C373 C368 1.363 . S
C373 C372 1.415 . S
H374 C371 0.999 . S
H375 C356 0.913 . S
H376 C394 0.951 . S
H377 C396 0.951 . S
H378 C398 0.950 . S
H379 C399 0.950 . S
H380 C401 0.950 . S
H381 C404 0.950 . S
H382 C405 0.950 . S
H383 C407 0.950 . S
H384 C408 0.950 . S
H385 C409 0.951 . S
H386 C411 0.951 . S
H387 C413 0.950 . S
H388 C414 0.950 . S
H389 C416 0.950 . S
H390 C419 0.950 . S
H391 C420 0.950 . S
H392 C422 0.950 . S
H393 C423 0.950 . S
C394 H376 0.951 . S
C394 C395 1.366 . S
C394 C396 1.388 . S
C395 C394 1.366 . S
C395 C399 1.385 . S
C396 H377 0.951 . S
C396 C394 1.388 . S
C396 C397 1.366 . S
C397 C396 1.366 . S
C397 C398 1.414 . S
C397 C400 1.499 . S
C398 H378 0.950 . S
C398 C397 1.414 . S
C398 C399 1.374 . S
C399 H379 0.950 . S
C399 C395 1.385 . S
C399 C398 1.374 . S
C400 C397 1.499 . S
C400 C401 1.373 . S
C400 C402 1.389 . S
C401 H380 0.950 . S
C401 C400 1.373 . S
C401 C417 1.377 . S
C402 C400 1.389 . S
C402 C403 1.524 . S
C402 C416 1.377 . S
C403 C402 1.524 . S
C403 C404 1.397 . S
C403 C408 1.363 . S
C404 H381 0.950 . S
C404 C403 1.397 . S
C404 C405 1.334 . S
C405 H382 0.950 . S
C405 C404 1.334 . S
C405 C406 1.287 . S
C406 C405 1.287 . S
C406 C407 1.524 . S
C406 H425 0.913 . S
C407 H383 0.950 . S
C407 C406 1.524 . S
C407 C408 1.415 . S
C408 H384 0.950 . S
C408 C403 1.363 . S
C408 C407 1.415 . S
C409 H385 0.951 . S
C409 C410 1.366 . S
C409 C411 1.388 . S
C410 C409 1.366 . S
C410 C414 1.385 . S
C411 H386 0.951 . S
C411 C409 1.388 . S
C411 C412 1.366 . S
C412 C411 1.366 . S
C412 C413 1.414 . S
C412 C415 1.499 . S
C413 H387 0.950 . S
C413 C412 1.414 . S
C413 C414 1.374 . S
C414 H388 0.950 . S
C414 C410 1.385 . S
C414 C413 1.374 . S
C415 C412 1.499 . S
C415 C416 1.373 . S
C415 C417 1.389 . S
C416 H389 0.950 . S
C416 C402 1.377 . S
C416 C415 1.373 . S
C417 C401 1.377 . S
C417 C415 1.389 . S
C417 C418 1.524 . S
C418 C417 1.524 . S
C418 C419 1.397 . S
C418 C423 1.363 . S
C419 H390 0.950 . S
C419 C418 1.397 . S
C419 C420 1.334 . S
C420 H391 0.950 . S
C420 C419 1.334 . S
C420 C421 1.287 . S
C421 C420 1.287 . S
C421 C422 1.524 . S
C421 H424 0.999 . S
C422 H392 0.950 . S
C422 C421 1.524 . S
C422 C423 1.415 . S
C423 H393 0.950 . S
C423 C418 1.363 . S
C423 C422 1.415 . S
H424 C421 0.999 . S
H425 C406 0.913 . S
H426 C444 0.951 . S
H427 C446 0.951 . S
H428 C448 0.950 . S
H429 C449 0.950 . S
H430 C451 0.950 . S
H431 C454 0.950 . S
H432 C455 0.950 . S
H433 C457 0.950 . S
H434 C458 0.950 . S
H435 C459 0.951 . S
H436 C461 0.951 . S
H437 C463 0.950 . S
H438 C464 0.950 . S
H439 C466 0.950 . S
H440 C469 0.950 . S
H441 C470 0.950 . S
H442 C472 0.950 . S
H443 C473 0.950 . S
C444 H426 0.951 . S
C444 C445 1.366 . S
C444 C446 1.388 . S
C445 C444 1.366 . S
C445 C449 1.385 . S
C446 H427 0.951 . S
C446 C444 1.388 . S
C446 C447 1.366 . S
C447 C446 1.366 . S
C447 C448 1.414 . S
C447 C450 1.499 . S
C448 H428 0.950 . S
C448 C447 1.414 . S
C448 C449 1.374 . S
C449 H429 0.950 . S
C449 C445 1.385 . S
C449 C448 1.374 . S
C450 C447 1.499 . S
C450 C451 1.373 . S
C450 C452 1.389 . S
C451 H430 0.950 . S
C451 C450 1.373 . S
C451 C467 1.377 . S
C452 C450 1.389 . S
C452 C453 1.524 . S
C452 C466 1.377 . S
C453 C452 1.524 . S
C453 C454 1.397 . S
C453 C458 1.363 . S
C454 H431 0.950 . S
C454 C453 1.397 . S
C454 C455 1.334 . S
C455 H432 0.950 . S
C455 C454 1.334 . S
C455 C456 1.287 . S
C456 C455 1.287 . S
C456 C457 1.524 . S
C456 H475 0.913 1_556 S
C457 H433 0.950 . S
C457 C456 1.524 . S
C457 C458 1.415 . S
C458 H434 0.950 . S
C458 C453 1.363 . S
C458 C457 1.415 . S
C459 H435 0.951 . S
C459 C460 1.366 . S
C459 C461 1.388 . S
C460 C459 1.366 . S
C460 C464 1.385 . S
C461 H436 0.951 . S
C461 C459 1.388 . S
C461 C462 1.366 . S
C462 C461 1.366 . S
C462 C463 1.414 . S
C462 C465 1.499 . S
C463 H437 0.950 . S
C463 C462 1.414 . S
C463 C464 1.374 . S
C464 H438 0.950 . S
C464 C460 1.385 . S
C464 C463 1.374 . S
C465 C462 1.499 . S
C465 C466 1.373 . S
C465 C467 1.389 . S
C466 H439 0.950 . S
C466 C452 1.377 . S
C466 C465 1.373 . S
C467 C451 1.377 . S
C467 C465 1.389 . S
C467 C468 1.524 . S
C468 C467 1.524 . S
C468 C469 1.397 . S
C468 C473 1.363 . S
C469 H440 0.950 . S
C469 C468 1.397 . S
C469 C470 1.334 . S
C470 H441 0.950 . S
C470 C469 1.334 . S
C470 C471 1.287 . S
C471 C470 1.287 . S
C471 C472 1.524 . S
C471 H474 0.999 . S
C472 H442 0.950 . S
C472 C471 1.524 . S
C472 C473 1.415 . S
C473 H443 0.950 . S
C473 C468 1.363 . S
C473 C472 1.415 . S
H474 C471 0.999 . S
H475 C456 0.913 1_554 S
H476 C494 0.951 . S
H477 C496 0.951 . S
H478 C498 0.950 . S
H479 C499 0.950 . S
H480 C501 0.950 . S
H481 C504 0.950 . S
H482 C505 0.950 . S
H483 C507 0.950 . S
H484 C508 0.950 . S
H485 C509 0.951 . S
H486 C511 0.951 . S
H487 C513 0.950 . S
H488 C514 0.950 . S
H489 C516 0.950 . S
H490 C519 0.950 . S
H491 C520 0.950 . S
H492 C522 0.950 . S
H493 C523 0.950 . S
C494 H476 0.951 . S
C494 C495 1.366 . S
C494 C496 1.388 . S
C495 C494 1.366 . S
C495 C499 1.385 . S
C496 H477 0.951 . S
C496 C494 1.388 . S
C496 C497 1.366 . S
C497 C496 1.366 . S
C497 C498 1.414 . S
C497 C500 1.499 . S
C498 H478 0.950 . S
C498 C497 1.414 . S
C498 C499 1.374 . S
C499 H479 0.950 . S
C499 C495 1.385 . S
C499 C498 1.374 . S
C500 C497 1.499 . S
C500 C501 1.373 . S
C500 C502 1.389 . S
C501 H480 0.950 . S
C501 C500 1.373 . S
C501 C517 1.377 . S
C502 C500 1.389 . S
C502 C503 1.524 . S
C502 C516 1.377 . S
C503 C502 1.524 . S
C503 C504 1.397 . S
C503 C508 1.363 . S
C504 H481 0.950 . S
C504 C503 1.397 . S
C504 C505 1.334 . S
C505 H482 0.950 . S
C505 C504 1.334 . S
C505 C506 1.287 . S
C506 C505 1.287 . S
C506 C507 1.524 . S
C506 H525 0.913 . S
C507 H483 0.950 . S
C507 C506 1.524 . S
C507 C508 1.415 . S
C508 H484 0.950 . S
C508 C503 1.363 . S
C508 C507 1.415 . S
C509 H485 0.951 . S
C509 C510 1.366 . S
C509 C511 1.388 . S
C510 C509 1.366 . S
C510 C514 1.385 . S
C511 H486 0.951 . S
C511 C509 1.388 . S
C511 C512 1.366 . S
C512 C511 1.366 . S
C512 C513 1.414 . S
C512 C515 1.499 . S
C513 H487 0.950 . S
C513 C512 1.414 . S
C513 C514 1.374 . S
C514 H488 0.950 . S
C514 C510 1.385 . S
C514 C513 1.374 . S
C515 C512 1.499 . S
C515 C516 1.373 . S
C515 C517 1.389 . S
C516 H489 0.950 . S
C516 C502 1.377 . S
C516 C515 1.373 . S
C517 C501 1.377 . S
C517 C515 1.389 . S
C517 C518 1.524 . S
C518 C517 1.524 . S
C518 C519 1.397 . S
C518 C523 1.363 . S
C519 H490 0.950 . S
C519 C518 1.397 . S
C519 C520 1.334 . S
C520 H491 0.950 . S
C520 C519 1.334 . S
C520 C521 1.287 . S
C521 C520 1.287 . S
C521 C522 1.524 . S
C521 H524 0.999 . S
C522 H492 0.950 . S
C522 C521 1.524 . S
C522 C523 1.415 . S
C523 H493 0.950 . S
C523 C518 1.363 . S
C523 C522 1.415 . S
H524 C521 0.999 . S
H525 C506 0.913 . S
H526 C544 0.951 . S
H527 C546 0.951 . S
H528 C548 0.950 . S
H529 C549 0.950 . S
H530 C551 0.950 . S
H531 C554 0.950 . S
H532 C555 0.950 . S
H533 C557 0.950 . S
H534 C558 0.950 . S
H535 C559 0.951 . S
H536 C561 0.951 . S
H537 C563 0.950 . S
H538 C564 0.950 . S
H539 C566 0.950 . S
H540 C569 0.950 . S
H541 C570 0.950 . S
H542 C572 0.950 . S
H543 C573 0.950 . S
C544 H526 0.951 . S
C544 C545 1.366 . S
C544 C546 1.388 . S
C545 C544 1.366 . S
C545 C549 1.385 . S
C546 H527 0.951 . S
C546 C544 1.388 . S
C546 C547 1.366 . S
C547 C546 1.366 . S
C547 C548 1.414 . S
C547 C550 1.499 . S
C548 H528 0.950 . S
C548 C547 1.414 . S
C548 C549 1.374 . S
C549 H529 0.950 . S
C549 C545 1.385 . S
C549 C548 1.374 . S
C550 C547 1.499 . S
C550 C551 1.373 . S
C550 C552 1.389 . S
C551 H530 0.950 . S
C551 C550 1.373 . S
C551 C567 1.377 . S
C552 C550 1.389 . S
C552 C553 1.524 . S
C552 C566 1.377 . S
C553 C552 1.524 . S
C553 C554 1.397 . S
C553 C558 1.363 . S
C554 H531 0.950 . S
C554 C553 1.397 . S
C554 C555 1.334 . S
C555 H532 0.950 . S
C555 C554 1.334 . S
C555 C556 1.287 . S
C556 C555 1.287 . S
C556 C557 1.524 . S
C556 H575 0.913 . S
C557 H533 0.950 . S
C557 C556 1.524 . S
C557 C558 1.415 . S
C558 H534 0.950 . S
C558 C553 1.363 . S
C558 C557 1.415 . S
C559 H535 0.951 . S
C559 C560 1.366 . S
C559 C561 1.388 . S
C560 C559 1.366 . S
C560 C564 1.385 . S
C561 H536 0.951 . S
C561 C559 1.388 . S
C561 C562 1.366 . S
C562 C561 1.366 . S
C562 C563 1.414 . S
C562 C565 1.499 . S
C563 H537 0.950 . S
C563 C562 1.414 . S
C563 C564 1.374 . S
C564 H538 0.950 . S
C564 C560 1.385 . S
C564 C563 1.374 . S
C565 C562 1.499 . S
C565 C566 1.373 . S
C565 C567 1.389 . S
C566 H539 0.950 . S
C566 C552 1.377 . S
C566 C565 1.373 . S
C567 C551 1.377 . S
C567 C565 1.389 . S
C567 C568 1.524 . S
C568 C567 1.524 . S
C568 C569 1.397 . S
C568 C573 1.363 . S
C569 H540 0.950 . S
C569 C568 1.397 . S
C569 C570 1.334 . S
C570 H541 0.950 . S
C570 C569 1.334 . S
C570 C571 1.287 . S
C571 C570 1.287 . S
C571 C572 1.524 . S
C571 H574 0.999 . S
C572 H542 0.950 . S
C572 C571 1.524 . S
C572 C573 1.415 . S
C573 H543 0.950 . S
C573 C568 1.363 . S
C573 C572 1.415 . S
H574 C571 0.999 . S
H575 C556 0.913 . S
H576 C594 0.951 . S
H577 C596 0.951 . S
H578 C598 0.950 . S
H579 C599 0.950 . S
H580 C601 0.950 . S
H581 C604 0.950 . S
H582 C605 0.950 . S
H583 C607 0.950 . S
H584 C608 0.950 . S
H585 C609 0.951 . S
H586 C611 0.951 . S
H587 C613 0.950 . S
H588 C614 0.950 . S
H589 C616 0.950 . S
H590 C619 0.950 . S
H591 C620 0.950 . S
H592 C622 0.950 . S
H593 C623 0.950 . S
C594 H576 0.951 . S
C594 C595 1.366 . S
C594 C596 1.388 . S
C595 C594 1.366 . S
C595 C599 1.385 . S
C596 H577 0.951 . S
C596 C594 1.388 . S
C596 C597 1.366 . S
C597 C596 1.366 . S
C597 C598 1.414 . S
C597 C600 1.499 . S
C598 H578 0.950 . S
C598 C597 1.414 . S
C598 C599 1.374 . S
C599 H579 0.950 . S
C599 C595 1.385 . S
C599 C598 1.374 . S
C600 C597 1.499 . S
C600 C601 1.373 . S
C600 C602 1.389 . S
C601 H580 0.950 . S
C601 C600 1.373 . S
C601 C617 1.377 . S
C602 C600 1.389 . S
C602 C603 1.524 . S
C602 C616 1.377 . S
C603 C602 1.524 . S
C603 C604 1.397 . S
C603 C608 1.363 . S
C604 H581 0.950 . S
C604 C603 1.397 . S
C604 C605 1.334 . S
C605 H582 0.950 . S
C605 C604 1.334 . S
C605 C606 1.287 . S
C606 C605 1.287 . S
C606 C607 1.524 . S
C606 H625 0.913 . S
C607 H583 0.950 . S
C607 C606 1.524 . S
C607 C608 1.415 . S
C608 H584 0.950 . S
C608 C603 1.363 . S
C608 C607 1.415 . S
C609 H585 0.951 . S
C609 C610 1.366 . S
C609 C611 1.388 . S
C610 C609 1.366 . S
C610 C614 1.385 . S
C611 H586 0.951 . S
C611 C609 1.388 . S
C611 C612 1.366 . S
C612 C611 1.366 . S
C612 C613 1.414 . S
C612 C615 1.499 . S
C613 H587 0.950 . S
C613 C612 1.414 . S
C613 C614 1.374 . S
C614 H588 0.950 . S
C614 C610 1.385 . S
C614 C613 1.374 . S
C615 C612 1.499 . S
C615 C616 1.373 . S
C615 C617 1.389 . S
C616 H589 0.950 . S
C616 C602 1.377 . S
C616 C615 1.373 . S
C617 C601 1.377 . S
C617 C615 1.389 . S
C617 C618 1.524 . S
C618 C617 1.524 . S
C618 C619 1.397 . S
C618 C623 1.363 . S
C619 H590 0.950 . S
C619 C618 1.397 . S
C619 C620 1.334 . S
C620 H591 0.950 . S
C620 C619 1.334 . S
C620 C621 1.287 . S
C621 C620 1.287 . S
C621 C622 1.524 . S
C621 H624 0.999 . S
C622 H592 0.950 . S
C622 C621 1.524 . S
C622 C623 1.415 . S
C623 H593 0.950 . S
C623 C618 1.363 . S
C623 C622 1.415 . S
H624 C621 0.999 . S
H625 C606 0.913 . S
H626 C644 0.951 . S
H627 C646 0.951 . S
H628 C648 0.950 . S
H629 C649 0.950 . S
H630 C651 0.950 . S
H631 C654 0.950 . S
H632 C655 0.950 . S
H633 C657 0.950 . S
H634 C658 0.950 . S
H635 C659 0.951 . S
H636 C661 0.951 . S
H637 C663 0.950 . S
H638 C664 0.950 . S
H639 C666 0.950 . S
H640 C669 0.950 . S
H641 C670 0.950 . S
H642 C672 0.950 . S
H643 C673 0.950 . S
C644 H626 0.951 . S
C644 C645 1.366 . S
C644 C646 1.388 . S
C645 C644 1.366 . S
C645 C649 1.385 . S
C646 H627 0.951 . S
C646 C644 1.388 . S
C646 C647 1.366 . S
C647 C646 1.366 . S
C647 C648 1.414 . S
C647 C650 1.499 . S
C648 H628 0.950 . S
C648 C647 1.414 . S
C648 C649 1.374 . S
C649 H629 0.950 . S
C649 C645 1.385 . S
C649 C648 1.374 . S
C650 C647 1.499 . S
C650 C651 1.373 . S
C650 C652 1.389 . S
C651 H630 0.950 . S
C651 C650 1.373 . S
C651 C667 1.377 . S
C652 C650 1.389 . S
C652 C653 1.524 . S
C652 C666 1.377 . S
C653 C652 1.524 . S
C653 C654 1.397 . S
C653 C658 1.363 . S
C654 H631 0.950 . S
C654 C653 1.397 . S
C654 C655 1.334 . S
C655 H632 0.950 . S
C655 C654 1.334 . S
C655 C656 1.287 . S
C656 C655 1.287 . S
C656 C657 1.524 . S
C656 H675 0.913 . S
C657 H633 0.950 . S
C657 C656 1.524 . S
C657 C658 1.415 . S
C658 H634 0.950 . S
C658 C653 1.363 . S
C658 C657 1.415 . S
C659 H635 0.951 . S
C659 C660 1.366 . S
C659 C661 1.388 . S
C660 C659 1.366 . S
C660 C664 1.385 . S
C661 H636 0.951 . S
C661 C659 1.388 . S
C661 C662 1.366 . S
C662 C661 1.366 . S
C662 C663 1.414 . S
C662 C665 1.499 . S
C663 H637 0.950 . S
C663 C662 1.414 . S
C663 C664 1.374 . S
C664 H638 0.950 . S
C664 C660 1.385 . S
C664 C663 1.374 . S
C665 C662 1.499 . S
C665 C666 1.373 . S
C665 C667 1.389 . S
C666 H639 0.950 . S
C666 C652 1.377 . S
C666 C665 1.373 . S
C667 C651 1.377 . S
C667 C665 1.389 . S
C667 C668 1.524 . S
C668 C667 1.524 . S
C668 C669 1.397 . S
C668 C673 1.363 . S
C669 H640 0.950 . S
C669 C668 1.397 . S
C669 C670 1.334 . S
C670 H641 0.950 . S
C670 C669 1.334 . S
C670 C671 1.287 . S
C671 C670 1.287 . S
C671 C672 1.524 . S
C671 H674 0.999 . S
C672 H642 0.950 . S
C672 C671 1.524 . S
C672 C673 1.415 . S
C673 H643 0.950 . S
C673 C668 1.363 . S
C673 C672 1.415 . S
H674 C671 0.999 . S
H675 C656 0.913 . S
H676 C694 0.951 . S
H677 C696 0.951 . S
H678 C698 0.950 . S
H679 C699 0.950 . S
H680 C701 0.950 . S
H681 C704 0.950 . S
H682 C705 0.950 . S
H683 C707 0.950 . S
H684 C708 0.950 . S
H685 C709 0.951 . S
H686 C711 0.951 . S
H687 C713 0.950 . S
H688 C714 0.950 . S
H689 C716 0.950 . S
H690 C719 0.950 . S
H691 C720 0.950 . S
H692 C722 0.950 . S
H693 C723 0.950 . S
C694 H676 0.951 . S
C694 C695 1.366 . S
C694 C696 1.388 . S
C695 C694 1.366 . S
C695 C699 1.385 . S
C696 H677 0.951 . S
C696 C694 1.388 . S
C696 C697 1.366 . S
C697 C696 1.366 . S
C697 C698 1.414 . S
C697 C700 1.499 . S
C698 H678 0.950 . S
C698 C697 1.414 . S
C698 C699 1.374 . S
C699 H679 0.950 . S
C699 C695 1.385 . S
C699 C698 1.374 . S
C700 C697 1.499 . S
C700 C701 1.373 . S
C700 C702 1.389 . S
C701 H680 0.950 . S
C701 C700 1.373 . S
C701 C717 1.377 . S
C702 C700 1.389 . S
C702 C703 1.524 . S
C702 C716 1.377 . S
C703 C702 1.524 . S
C703 C704 1.397 . S
C703 C708 1.363 . S
C704 H681 0.950 . S
C704 C703 1.397 . S
C704 C705 1.334 . S
C705 H682 0.950 . S
C705 C704 1.334 . S
C705 C706 1.287 . S
C706 C705 1.287 . S
C706 C707 1.524 . S
C706 H725 0.913 . S
C707 H683 0.950 . S
C707 C706 1.524 . S
C707 C708 1.415 . S
C708 H684 0.950 . S
C708 C703 1.363 . S
C708 C707 1.415 . S
C709 H685 0.951 . S
C709 C710 1.366 . S
C709 C711 1.388 . S
C710 C709 1.366 . S
C710 C714 1.385 . S
C711 H686 0.951 . S
C711 C709 1.388 . S
C711 C712 1.366 . S
C712 C711 1.366 . S
C712 C713 1.414 . S
C712 C715 1.499 . S
C713 H687 0.950 . S
C713 C712 1.414 . S
C713 C714 1.374 . S
C714 H688 0.950 . S
C714 C710 1.385 . S
C714 C713 1.374 . S
C715 C712 1.499 . S
C715 C716 1.373 . S
C715 C717 1.389 . S
C716 H689 0.950 . S
C716 C702 1.377 . S
C716 C715 1.373 . S
C717 C701 1.377 . S
C717 C715 1.389 . S
C717 C718 1.524 . S
C718 C717 1.524 . S
C718 C719 1.397 . S
C718 C723 1.363 . S
C719 H690 0.950 . S
C719 C718 1.397 . S
C719 C720 1.334 . S
C720 H691 0.950 . S
C720 C719 1.334 . S
C720 C721 1.287 . S
C721 C720 1.287 . S
C721 C722 1.524 . S
C721 H724 0.999 . S
C722 H692 0.950 . S
C722 C721 1.524 . S
C722 C723 1.415 . S
C723 H693 0.950 . S
C723 C718 1.363 . S
C723 C722 1.415 . S
H724 C721 0.999 . S
H725 C706 0.913 . S
H726 C744 0.951 . S
H727 C746 0.951 . S
H728 C748 0.950 . S
H729 C749 0.950 . S
H730 C751 0.950 . S
H731 C754 0.950 . S
H732 C755 0.950 . S
H733 C757 0.950 . S
H734 C758 0.950 . S
H735 C759 0.951 . S
H736 C761 0.951 . S
H737 C763 0.950 . S
H738 C764 0.950 . S
H739 C766 0.950 . S
H740 C769 0.950 . S
H741 C770 0.950 . S
H742 C772 0.950 . S
H743 C773 0.950 . S
C744 H726 0.951 . S
C744 C745 1.366 . S
C744 C746 1.388 . S
C745 C744 1.366 . S
C745 C749 1.385 . S
C746 H727 0.951 . S
C746 C744 1.388 . S
C746 C747 1.366 . S
C747 C746 1.366 . S
C747 C748 1.414 . S
C747 C750 1.499 . S
C748 H728 0.950 . S
C748 C747 1.414 . S
C748 C749 1.374 . S
C749 H729 0.950 . S
C749 C745 1.385 . S
C749 C748 1.374 . S
C750 C747 1.499 . S
C750 C751 1.373 . S
C750 C752 1.389 . S
C751 H730 0.950 . S
C751 C750 1.373 . S
C751 C767 1.377 . S
C752 C750 1.389 . S
C752 C753 1.524 . S
C752 C766 1.377 . S
C753 C752 1.524 . S
C753 C754 1.397 . S
C753 C758 1.363 . S
C754 H731 0.950 . S
C754 C753 1.397 . S
C754 C755 1.334 . S
C755 H732 0.950 . S
C755 C754 1.334 . S
C755 C756 1.287 . S
C756 C755 1.287 . S
C756 C757 1.524 . S
C756 H775 0.913 . S
C757 H733 0.950 . S
C757 C756 1.524 . S
C757 C758 1.415 . S
C758 H734 0.950 . S
C758 C753 1.363 . S
C758 C757 1.415 . S
C759 H735 0.951 . S
C759 C760 1.366 . S
C759 C761 1.388 . S
C760 C759 1.366 . S
C760 C764 1.385 . S
C761 H736 0.951 . S
C761 C759 1.388 . S
C761 C762 1.366 . S
C762 C761 1.366 . S
C762 C763 1.414 . S
C762 C765 1.499 . S
C763 H737 0.950 . S
C763 C762 1.414 . S
C763 C764 1.374 . S
C764 H738 0.950 . S
C764 C760 1.385 . S
C764 C763 1.374 . S
C765 C762 1.499 . S
C765 C766 1.373 . S
C765 C767 1.389 . S
C766 H739 0.950 . S
C766 C752 1.377 . S
C766 C765 1.373 . S
C767 C751 1.377 . S
C767 C765 1.389 . S
C767 C768 1.524 . S
C768 C767 1.524 . S
C768 C769 1.397 . S
C768 C773 1.363 . S
C769 H740 0.950 . S
C769 C768 1.397 . S
C769 C770 1.334 . S
C770 H741 0.950 . S
C770 C769 1.334 . S
C770 C771 1.287 . S
C771 C770 1.287 . S
C771 C772 1.524 . S
C771 H774 0.999 . S
C772 H742 0.950 . S
C772 C771 1.524 . S
C772 C773 1.415 . S
C773 H743 0.950 . S
C773 C768 1.363 . S
C773 C772 1.415 . S
H774 C771 0.999 . S
H775 C756 0.913 . S
H776 C794 0.951 . S
H777 C796 0.951 . S
H778 C798 0.950 . S
H779 C799 0.950 . S
H780 C801 0.950 . S
H781 C804 0.950 . S
H782 C805 0.950 . S
H783 C807 0.950 . S
H784 C808 0.950 . S
H785 C809 0.951 . S
H786 C811 0.951 . S
H787 C813 0.950 . S
H788 C814 0.950 . S
H789 C816 0.950 . S
H790 C819 0.950 . S
H791 C820 0.950 . S
H792 C822 0.950 . S
H793 C823 0.950 . S
C794 H776 0.951 . S
C794 C795 1.366 . S
C794 C796 1.388 . S
C795 C794 1.366 . S
C795 C799 1.385 . S
C796 H777 0.951 . S
C796 C794 1.388 . S
C796 C797 1.366 . S
C797 C796 1.366 . S
C797 C798 1.414 . S
C797 C800 1.499 . S
C798 H778 0.950 . S
C798 C797 1.414 . S
C798 C799 1.374 . S
C799 H779 0.950 . S
C799 C795 1.385 . S
C799 C798 1.374 . S
C800 C797 1.499 . S
C800 C801 1.373 . S
C800 C802 1.389 . S
C801 H780 0.950 . S
C801 C800 1.373 . S
C801 C817 1.377 . S
C802 C800 1.389 . S
C802 C803 1.524 . S
C802 C816 1.377 . S
C803 C802 1.524 . S
C803 C804 1.397 . S
C803 C808 1.363 . S
C804 H781 0.950 . S
C804 C803 1.397 . S
C804 C805 1.334 . S
C805 H782 0.950 . S
C805 C804 1.334 . S
C805 C806 1.287 . S
C806 C805 1.287 . S
C806 C807 1.524 . S
C806 H825 0.913 . S
C807 H783 0.950 . S
C807 C806 1.524 . S
C807 C808 1.415 . S
C808 H784 0.950 . S
C808 C803 1.363 . S
C808 C807 1.415 . S
C809 H785 0.951 . S
C809 C810 1.366 . S
C809 C811 1.388 . S
C810 C809 1.366 . S
C810 C814 1.385 . S
C811 H786 0.951 . S
C811 C809 1.388 . S
C811 C812 1.366 . S
C812 C811 1.366 . S
C812 C813 1.414 . S
C812 C815 1.499 . S
C813 H787 0.950 . S
C813 C812 1.414 . S
C813 C814 1.374 . S
C814 H788 0.950 . S
C814 C810 1.385 . S
C814 C813 1.374 . S
C815 C812 1.499 . S
C815 C816 1.373 . S
C815 C817 1.389 . S
C816 H789 0.950 . S
C816 C802 1.377 . S
C816 C815 1.373 . S
C817 C801 1.377 . S
C817 C815 1.389 . S
C817 C818 1.524 . S
C818 C817 1.524 . S
C818 C819 1.397 . S
C818 C823 1.363 . S
C819 H790 0.950 . S
C819 C818 1.397 . S
C819 C820 1.334 . S
C820 H791 0.950 . S
C820 C819 1.334 . S
C820 C821 1.287 . S
C821 C820 1.287 . S
C821 C822 1.524 . S
C821 H824 0.999 . S
C822 H792 0.950 . S
C822 C821 1.524 . S
C822 C823 1.415 . S
C823 H793 0.950 . S
C823 C818 1.363 . S
C823 C822 1.415 . S
H824 C821 0.999 . S
H825 C806 0.913 . S
H826 C844 0.951 . S
H827 C846 0.951 . S
H828 C848 0.950 . S
H829 C849 0.950 . S
H830 C851 0.950 . S
H831 C854 0.950 . S
H832 C855 0.950 . S
H833 C857 0.950 . S
H834 C858 0.950 . S
H835 C859 0.951 . S
H836 C861 0.951 . S
H837 C863 0.950 . S
H838 C864 0.950 . S
H839 C866 0.950 . S
H840 C869 0.950 . S
H841 C870 0.950 . S
H842 C872 0.950 . S
H843 C873 0.950 . S
C844 H826 0.951 . S
C844 C845 1.366 . S
C844 C846 1.388 . S
C845 C844 1.366 . S
C845 C849 1.385 . S
C846 H827 0.951 . S
C846 C844 1.388 . S
C846 C847 1.366 . S
C847 C846 1.366 . S
C847 C848 1.414 . S
C847 C850 1.499 . S
C848 H828 0.950 . S
C848 C847 1.414 . S
C848 C849 1.374 . S
C849 H829 0.950 . S
C849 C845 1.385 . S
C849 C848 1.374 . S
C850 C847 1.499 . S
C850 C851 1.373 . S
C850 C852 1.389 . S
C851 H830 0.950 . S
C851 C850 1.373 . S
C851 C867 1.377 . S
C852 C850 1.389 . S
C852 C853 1.524 . S
C852 C866 1.377 . S
C853 C852 1.524 . S
C853 C854 1.397 . S
C853 C858 1.363 . S
C854 H831 0.950 . S
C854 C853 1.397 . S
C854 C855 1.334 . S
C855 H832 0.950 . S
C855 C854 1.334 . S
C855 C856 1.287 . S
C856 C855 1.287 . S
C856 C857 1.524 . S
C856 H875 0.913 . S
C857 H833 0.950 . S
C857 C856 1.524 . S
C857 C858 1.415 . S
C858 H834 0.950 . S
C858 C853 1.363 . S
C858 C857 1.415 . S
C859 H835 0.951 . S
C859 C860 1.366 . S
C859 C861 1.388 . S
C860 C859 1.366 . S
C860 C864 1.385 . S
C861 H836 0.951 . S
C861 C859 1.388 . S
C861 C862 1.366 . S
C862 C861 1.366 . S
C862 C863 1.414 . S
C862 C865 1.499 . S
C863 H837 0.950 . S
C863 C862 1.414 . S
C863 C864 1.374 . S
C864 H838 0.950 . S
C864 C860 1.385 . S
C864 C863 1.374 . S
C865 C862 1.499 . S
C865 C866 1.373 . S
C865 C867 1.389 . S
C866 H839 0.950 . S
C866 C852 1.377 . S
C866 C865 1.373 . S
C867 C851 1.377 . S
C867 C865 1.389 . S
C867 C868 1.524 . S
C868 C867 1.524 . S
C868 C869 1.397 . S
C868 C873 1.363 . S
C869 H840 0.950 . S
C869 C868 1.397 . S
C869 C870 1.334 . S
C870 H841 0.950 . S
C870 C869 1.334 . S
C870 C871 1.287 . S
C871 C870 1.287 . S
C871 C872 1.524 . S
C871 H874 0.999 . S
C872 H842 0.950 . S
C872 C871 1.524 . S
C872 C873 1.415 . S
C873 H843 0.950 . S
C873 C868 1.363 . S
C873 C872 1.415 . S
H874 C871 0.999 . S
H875 C856 0.913 . S
H876 C894 0.951 . S
H877 C896 0.951 . S
H878 C898 0.950 . S
H879 C899 0.950 . S
H880 C901 0.950 . S
H881 C904 0.950 . S
H882 C905 0.950 . S
H883 C907 0.950 . S
H884 C908 0.950 . S
H885 C909 0.951 . S
H886 C911 0.951 . S
H887 C913 0.950 . S
H888 C914 0.950 . S
H889 C916 0.950 . S
H890 C919 0.950 . S
H891 C920 0.950 . S
H892 C922 0.950 . S
H893 C923 0.950 . S
C894 H876 0.951 . S
C894 C895 1.366 . S
C894 C896 1.388 . S
C895 C894 1.366 . S
C895 C899 1.385 . S
C896 H877 0.951 . S
C896 C894 1.388 . S
C896 C897 1.366 . S
C897 C896 1.366 . S
C897 C898 1.414 . S
C897 C900 1.499 . S
C898 H878 0.950 . S
C898 C897 1.414 . S
C898 C899 1.374 . S
C899 H879 0.950 . S
C899 C895 1.385 . S
C899 C898 1.374 . S
C900 C897 1.499 . S
C900 C901 1.373 . S
C900 C902 1.389 . S
C901 H880 0.950 . S
C901 C900 1.373 . S
C901 C917 1.377 . S
C902 C900 1.389 . S
C902 C903 1.524 . S
C902 C916 1.377 . S
C903 C902 1.524 . S
C903 C904 1.397 . S
C903 C908 1.363 . S
C904 H881 0.950 . S
C904 C903 1.397 . S
C904 C905 1.334 . S
C905 H882 0.950 . S
C905 C904 1.334 . S
C905 C906 1.287 . S
C906 C905 1.287 . S
C906 C907 1.524 . S
C906 H925 0.913 . S
C907 H883 0.950 . S
C907 C906 1.524 . S
C907 C908 1.415 . S
C908 H884 0.950 . S
C908 C903 1.363 . S
C908 C907 1.415 . S
C909 H885 0.951 . S
C909 C910 1.366 . S
C909 C911 1.388 . S
C910 C909 1.366 . S
C910 C914 1.385 . S
C911 H886 0.951 . S
C911 C909 1.388 . S
C911 C912 1.366 . S
C912 C911 1.366 . S
C912 C913 1.414 . S
C912 C915 1.499 . S
C913 H887 0.950 . S
C913 C912 1.414 . S
C913 C914 1.374 . S
C914 H888 0.950 . S
C914 C910 1.385 . S
C914 C913 1.374 . S
C915 C912 1.499 . S
C915 C916 1.373 . S
C915 C917 1.389 . S
C916 H889 0.950 . S
C916 C902 1.377 . S
C916 C915 1.373 . S
C917 C901 1.377 . S
C917 C915 1.389 . S
C917 C918 1.524 . S
C918 C917 1.524 . S
C918 C919 1.397 . S
C918 C923 1.363 . S
C919 H890 0.950 . S
C919 C918 1.397 . S
C919 C920 1.334 . S
C920 H891 0.950 . S
C920 C919 1.334 . S
C920 C921 1.287 . S
C921 C920 1.287 . S
C921 C922 1.524 . S
C921 H924 0.999 . S
C922 H892 0.950 . S
C922 C921 1.524 . S
C922 C923 1.415 . S
C923 H893 0.950 . S
C923 C918 1.363 . S
C923 C922 1.415 . S
H924 C921 0.999 . S
H925 C906 0.913 . S
H926 C944 0.951 . S
H927 C946 0.951 . S
H928 C948 0.950 . S
H929 C949 0.950 . S
H930 C951 0.950 . S
H931 C954 0.950 . S
H932 C955 0.950 . S
H933 C957 0.950 . S
H934 C958 0.950 . S
H935 C959 0.951 . S
H936 C961 0.951 . S
H937 C963 0.950 . S
H938 C964 0.950 . S
H939 C966 0.950 . S
H940 C969 0.950 . S
H941 C970 0.950 . S
H942 C972 0.950 . S
H943 C973 0.950 . S
C944 H926 0.951 . S
C944 C945 1.366 . S
C944 C946 1.388 . S
C945 C944 1.366 . S
C945 C949 1.385 . S
C946 H927 0.951 . S
C946 C944 1.388 . S
C946 C947 1.366 . S
C947 C946 1.366 . S
C947 C948 1.414 . S
C947 C950 1.499 . S
C948 H928 0.950 . S
C948 C947 1.414 . S
C948 C949 1.374 . S
C949 H929 0.950 . S
C949 C945 1.385 . S
C949 C948 1.374 . S
C950 C947 1.499 . S
C950 C951 1.373 . S
C950 C952 1.389 . S
C951 H930 0.950 . S
C951 C950 1.373 . S
C951 C967 1.377 . S
C952 C950 1.389 . S
C952 C953 1.524 . S
C952 C966 1.377 . S
C953 C952 1.524 . S
C953 C954 1.397 . S
C953 C958 1.363 . S
C954 H931 0.950 . S
C954 C953 1.397 . S
C954 C955 1.334 . S
C955 H932 0.950 . S
C955 C954 1.334 . S
C955 C956 1.287 . S
C956 C955 1.287 . S
C956 C957 1.524 . S
C956 H975 0.913 . S
C957 H933 0.950 . S
C957 C956 1.524 . S
C957 C958 1.415 . S
C958 H934 0.950 . S
C958 C953 1.363 . S
C958 C957 1.415 . S
C959 H935 0.951 . S
C959 C960 1.366 . S
C959 C961 1.388 . S
C960 C959 1.366 . S
C960 C964 1.385 . S
C961 H936 0.951 . S
C961 C959 1.388 . S
C961 C962 1.366 . S
C962 C961 1.366 . S
C962 C963 1.414 . S
C962 C965 1.499 . S
C963 H937 0.950 . S
C963 C962 1.414 . S
C963 C964 1.374 . S
C964 H938 0.950 . S
C964 C960 1.385 . S
C964 C963 1.374 . S
C965 C962 1.499 . S
C965 C966 1.373 . S
C965 C967 1.389 . S
C966 H939 0.950 . S
C966 C952 1.377 . S
C966 C965 1.373 . S
C967 C951 1.377 . S
C967 C965 1.389 . S
C967 C968 1.524 . S
C968 C967 1.524 . S
C968 C969 1.397 . S
C968 C973 1.363 . S
C969 H940 0.950 . S
C969 C968 1.397 . S
C969 C970 1.334 . S
C970 H941 0.950 . S
C970 C969 1.334 . S
C970 C971 1.287 . S
C971 C970 1.287 . S
C971 C972 1.524 . S
C971 H974 0.999 . S
C972 H942 0.950 . S
C972 C971 1.524 . S
C972 C973 1.415 . S
C973 H943 0.950 . S
C973 C968 1.363 . S
C973 C972 1.415 . S
H974 C971 0.999 . S
H975 C956 0.913 . S
H976 C994 0.951 . S
H977 C996 0.951 . S
H978 C998 0.950 . S
H979 C999 0.950 . S
H980 C1001 0.950 . S
H981 C1004 0.950 . S
H982 C1005 0.950 . S
H983 C1007 0.950 . S
H984 C1008 0.950 . S
H985 C1009 0.951 . S
H986 C1011 0.951 . S
H987 C1013 0.950 . S
H988 C1014 0.950 . S
H989 C1016 0.950 . S
H990 C1019 0.950 . S
H991 C1020 0.950 . S
H992 C1022 0.950 . S
H993 C1023 0.950 . S
C994 H976 0.951 . S
C994 C995 1.366 . S
C994 C996 1.388 . S
C995 C994 1.366 . S
C995 C999 1.385 . S
C996 H977 0.951 . S
C996 C994 1.388 . S
C996 C997 1.366 . S
C997 C996 1.366 . S
C997 C998 1.414 . S
C997 C1000 1.499 . S
C998 H978 0.950 . S
C998 C997 1.414 . S
C998 C999 1.374 . S
C999 H979 0.950 . S
C999 C995 1.385 . S
C999 C998 1.374 . S
C1000 C997 1.499 . S
C1000 C1001 1.373 . S
C1000 C1002 1.389 1_554 S
C1001 H980 0.950 . S
C1001 C1000 1.373 . S
C1001 C1017 1.377 . S
C1002 C1000 1.389 1_556 S
C1002 C1003 1.524 . S
C1002 C1016 1.377 . S
C1003 C1002 1.524 . S
C1003 C1004 1.397 . S
C1003 C1008 1.363 . S
C1004 H981 0.950 . S
C1004 C1003 1.397 . S
C1004 C1005 1.334 . S
C1005 H982 0.950 . S
C1005 C1004 1.334 . S
C1005 C1006 1.287 . S
C1006 C1005 1.287 . S
C1006 C1007 1.524 . S
C1006 H1025 0.913 . S
C1007 H983 0.950 . S
C1007 C1006 1.524 . S
C1007 C1008 1.415 . S
C1008 H984 0.950 . S
C1008 C1003 1.363 . S
C1008 C1007 1.415 . S
C1009 H985 0.951 . S
C1009 C1010 1.366 . S
C1009 C1011 1.388 . S
C1010 C1009 1.366 . S
C1010 C1014 1.385 . S
C1011 H986 0.951 . S
C1011 C1009 1.388 . S
C1011 C1012 1.366 . S
C1012 C1011 1.366 . S
C1012 C1013 1.414 . S
C1012 C1015 1.499 . S
C1013 H987 0.950 . S
C1013 C1012 1.414 . S
C1013 C1014 1.374 . S
C1014 H988 0.950 . S
C1014 C1010 1.385 . S
C1014 C1013 1.374 . S
C1015 C1012 1.499 . S
C1015 C1016 1.373 1_554 S
C1015 C1017 1.389 . S
C1016 H989 0.950 . S
C1016 C1002 1.377 . S
C1016 C1015 1.373 1_556 S
C1017 C1001 1.377 . S
C1017 C1015 1.389 . S
C1017 C1018 1.524 . S
C1018 C1017 1.524 . S
C1018 C1019 1.397 . S
C1018 C1023 1.363 . S
C1019 H990 0.950 . S
C1019 C1018 1.397 . S
C1019 C1020 1.334 . S
C1020 H991 0.950 . S
C1020 C1019 1.334 . S
C1020 C1021 1.287 . S
C1021 C1020 1.287 . S
C1021 C1022 1.524 . S
C1021 H1024 0.999 . S
C1022 H992 0.950 . S
C1022 C1021 1.524 . S
C1022 C1023 1.415 . S
C1023 H993 0.950 . S
C1023 C1018 1.363 . S
C1023 C1022 1.415 . S
H1024 C1021 0.999 . S
H1025 C1006 0.913 . S
H1026 C1044 0.951 . S
H1027 C1046 0.951 . S
H1028 C1048 0.950 . S
H1029 C1049 0.950 . S
H1030 C1051 0.950 . S
H1031 C1054 0.950 . S
H1032 C1055 0.950 . S
H1033 C1057 0.950 . S
H1034 C1058 0.950 . S
H1035 C1059 0.951 . S
H1036 C1061 0.951 . S
H1037 C1063 0.950 . S
H1038 C1064 0.950 . S
H1039 C1066 0.950 . S
H1040 C1069 0.950 . S
H1041 C1070 0.950 . S
H1042 C1072 0.950 . S
H1043 C1073 0.950 . S
C1044 H1026 0.951 . S
C1044 C1045 1.366 . S
C1044 C1046 1.388 . S
C1045 C1044 1.366 . S
C1045 C1049 1.385 . S
C1046 H1027 0.951 . S
C1046 C1044 1.388 . S
C1046 C1047 1.366 . S
C1047 C1046 1.366 . S
C1047 C1048 1.414 . S
C1047 C1050 1.499 . S
C1048 H1028 0.950 . S
C1048 C1047 1.414 . S
C1048 C1049 1.374 . S
C1049 H1029 0.950 . S
C1049 C1045 1.385 . S
C1049 C1048 1.374 . S
C1050 C1047 1.499 . S
C1050 C1051 1.373 . S
C1050 C1052 1.389 . S
C1051 H1030 0.950 . S
C1051 C1050 1.373 . S
C1051 C1067 1.377 . S
C1052 C1050 1.389 . S
C1052 C1053 1.524 . S
C1052 C1066 1.377 . S
C1053 C1052 1.524 . S
C1053 C1054 1.397 . S
C1053 C1058 1.363 . S
C1054 H1031 0.950 . S
C1054 C1053 1.397 . S
C1054 C1055 1.334 . S
C1055 H1032 0.950 . S
C1055 C1054 1.334 . S
C1055 C1056 1.287 . S
C1056 C1055 1.287 . S
C1056 C1057 1.524 . S
C1056 H1075 0.913 . S
C1057 H1033 0.950 . S
C1057 C1056 1.524 . S
C1057 C1058 1.415 . S
C1058 H1034 0.950 . S
C1058 C1053 1.363 . S
C1058 C1057 1.415 . S
C1059 H1035 0.951 . S
C1059 C1060 1.366 . S
C1059 C1061 1.388 . S
C1060 C1059 1.366 . S
C1060 C1064 1.385 . S
C1061 H1036 0.951 . S
C1061 C1059 1.388 . S
C1061 C1062 1.366 . S
C1062 C1061 1.366 . S
C1062 C1063 1.414 . S
C1062 C1065 1.499 . S
C1063 H1037 0.950 . S
C1063 C1062 1.414 . S
C1063 C1064 1.374 . S
C1064 H1038 0.950 . S
C1064 C1060 1.385 . S
C1064 C1063 1.374 . S
C1065 C1062 1.499 . S
C1065 C1066 1.373 . S
C1065 C1067 1.389 . S
C1066 H1039 0.950 . S
C1066 C1052 1.377 . S
C1066 C1065 1.373 . S
C1067 C1051 1.377 . S
C1067 C1065 1.389 . S
C1067 C1068 1.524 . S
C1068 C1067 1.524 . S
C1068 C1069 1.397 . S
C1068 C1073 1.363 . S
C1069 H1040 0.950 . S
C1069 C1068 1.397 . S
C1069 C1070 1.334 . S
C1070 H1041 0.950 . S
C1070 C1069 1.334 . S
C1070 C1071 1.287 . S
C1071 C1070 1.287 . S
C1071 C1072 1.524 . S
C1071 H1074 0.999 . S
C1072 H1042 0.950 . S
C1072 C1071 1.524 . S
C1072 C1073 1.415 . S
C1073 H1043 0.950 . S
C1073 C1068 1.363 . S
C1073 C1072 1.415 . S
H1074 C1071 0.999 . S
H1075 C1056 0.913 . S
H1076 C1094 0.951 . S
H1077 C1096 0.951 . S
H1078 C1098 0.950 . S
H1079 C1099 0.950 . S
H1080 C1101 0.950 . S
H1081 C1104 0.950 . S
H1082 C1105 0.950 . S
H1083 C1107 0.950 . S
H1084 C1108 0.950 . S
H1085 C1109 0.951 . S
H1086 C1111 0.951 . S
H1087 C1113 0.950 . S
H1088 C1114 0.950 . S
H1089 C1116 0.950 . S
H1090 C1119 0.950 . S
H1091 C1120 0.950 . S
H1092 C1122 0.950 . S
H1093 C1123 0.950 . S
C1094 H1076 0.951 . S
C1094 C1095 1.366 . S
C1094 C1096 1.388 . S
C1095 C1094 1.366 . S
C1095 C1099 1.385 1_554 S
C1096 H1077 0.951 . S
C1096 C1094 1.388 . S
C1096 C1097 1.366 . S
C1097 C1096 1.366 . S
C1097 C1098 1.414 1_554 S
C1097 C1100 1.499 . S
C1098 H1078 0.950 . S
C1098 C1097 1.414 1_556 S
C1098 C1099 1.374 . S
C1099 H1079 0.950 . S
C1099 C1095 1.385 1_556 S
C1099 C1098 1.374 . S
C1100 C1097 1.499 . S
C1100 C1101 1.373 1_554 S
C1100 C1102 1.389 . S
C1101 H1080 0.950 . S
C1101 C1100 1.373 1_556 S
C1101 C1117 1.377 . S
C1102 C1100 1.389 . S
C1102 C1103 1.524 . S
C1102 C1116 1.377 . S
C1103 C1102 1.524 . S
C1103 C1104 1.397 . S
C1103 C1108 1.363 . S
C1104 H1081 0.950 . S
C1104 C1103 1.397 . S
C1104 C1105 1.334 . S
C1105 H1082 0.950 . S
C1105 C1104 1.334 . S
C1105 C1106 1.287 . S
C1106 C1105 1.287 . S
C1106 C1107 1.524 . S
C1106 H1125 0.913 . S
C1107 H1083 0.950 . S
C1107 C1106 1.524 . S
C1107 C1108 1.415 . S
C1108 H1084 0.950 . S
C1108 C1103 1.363 . S
C1108 C1107 1.415 . S
C1109 H1085 0.951 . S
C1109 C1110 1.366 1_556 S
C1109 C1111 1.388 . S
C1110 C1109 1.366 1_554 S
C1110 C1114 1.385 . S
C1111 H1086 0.951 . S
C1111 C1109 1.388 . S
C1111 C1112 1.366 1_556 S
C1112 C1111 1.366 1_554 S
C1112 C1113 1.414 . S
C1112 C1115 1.499 . S
C1113 H1087 0.950 . S
C1113 C1112 1.414 . S
C1113 C1114 1.374 . S
C1114 H1088 0.950 . S
C1114 C1110 1.385 . S
C1114 C1113 1.374 . S
C1115 C1112 1.499 . S
C1115 C1116 1.373 . S
C1115 C1117 1.389 1_554 S
C1116 H1089 0.950 . S
C1116 C1102 1.377 . S
C1116 C1115 1.373 . S
C1117 C1101 1.377 . S
C1117 C1115 1.389 1_556 S
C1117 C1118 1.524 . S
C1118 C1117 1.524 . S
C1118 C1119 1.397 . S
C1118 C1123 1.363 . S
C1119 H1090 0.950 . S
C1119 C1118 1.397 . S
C1119 C1120 1.334 . S
C1120 H1091 0.950 . S
C1120 C1119 1.334 . S
C1120 C1121 1.287 . S
C1121 C1120 1.287 . S
C1121 C1122 1.524 . S
C1121 H1124 0.999 . S
C1122 H1092 0.950 . S
C1122 C1121 1.524 . S
C1122 C1123 1.415 . S
C1123 H1093 0.950 . S
C1123 C1118 1.363 . S
C1123 C1122 1.415 . S
H1124 C1121 0.999 . S
H1125 C1106 0.913 . S
H1126 C1144 0.951 . S
H1127 C1146 0.951 . S
H1128 C1148 0.950 . S
H1129 C1149 0.950 . S
H1130 C1151 0.950 . S
H1131 C1154 0.950 . S
H1132 C1155 0.950 . S
H1133 C1157 0.950 . S
H1134 C1158 0.950 . S
H1135 C1159 0.951 . S
H1136 C1161 0.951 . S
H1137 C1163 0.950 . S
H1138 C1164 0.950 . S
H1139 C1166 0.950 . S
H1140 C1169 0.950 . S
H1141 C1170 0.950 . S
H1142 C1172 0.950 . S
H1143 C1173 0.950 . S
C1144 H1126 0.951 . S
C1144 C1145 1.366 . S
C1144 C1146 1.388 . S
C1145 C1144 1.366 . S
C1145 C1149 1.385 . S
C1146 H1127 0.951 . S
C1146 C1144 1.388 . S
C1146 C1147 1.366 . S
C1147 C1146 1.366 . S
C1147 C1148 1.414 . S
C1147 C1150 1.499 . S
C1148 H1128 0.950 . S
C1148 C1147 1.414 . S
C1148 C1149 1.374 . S
C1149 H1129 0.950 . S
C1149 C1145 1.385 . S
C1149 C1148 1.374 . S
C1150 C1147 1.499 . S
C1150 C1151 1.373 . S
C1150 C1152 1.389 . S
C1151 H1130 0.950 . S
C1151 C1150 1.373 . S
C1151 C1167 1.377 . S
C1152 C1150 1.389 . S
C1152 C1153 1.524 . S
C1152 C1166 1.377 . S
C1153 C1152 1.524 . S
C1153 C1154 1.397 . S
C1153 C1158 1.363 . S
C1154 H1131 0.950 . S
C1154 C1153 1.397 . S
C1154 C1155 1.334 . S
C1155 H1132 0.950 . S
C1155 C1154 1.334 . S
C1155 C1156 1.287 . S
C1156 C1155 1.287 . S
C1156 C1157 1.524 . S
C1156 H1175 0.913 . S
C1157 H1133 0.950 . S
C1157 C1156 1.524 . S
C1157 C1158 1.415 . S
C1158 H1134 0.950 . S
C1158 C1153 1.363 . S
C1158 C1157 1.415 . S
C1159 H1135 0.951 . S
C1159 C1160 1.366 . S
C1159 C1161 1.388 . S
C1160 C1159 1.366 . S
C1160 C1164 1.385 . S
C1161 H1136 0.951 . S
C1161 C1159 1.388 . S
C1161 C1162 1.366 . S
C1162 C1161 1.366 . S
C1162 C1163 1.414 . S
C1162 C1165 1.499 . S
C1163 H1137 0.950 . S
C1163 C1162 1.414 . S
C1163 C1164 1.374 . S
C1164 H1138 0.950 . S
C1164 C1160 1.385 . S
C1164 C1163 1.374 . S
C1165 C1162 1.499 . S
C1165 C1166 1.373 . S
C1165 C1167 1.389 . S
C1166 H1139 0.950 . S
C1166 C1152 1.377 . S
C1166 C1165 1.373 . S
C1167 C1151 1.377 . S
C1167 C1165 1.389 . S
C1167 C1168 1.524 . S
C1168 C1167 1.524 . S
C1168 C1169 1.397 . S
C1168 C1173 1.363 . S
C1169 H1140 0.950 . S
C1169 C1168 1.397 . S
C1169 C1170 1.334 . S
C1170 H1141 0.950 . S
C1170 C1169 1.334 . S
C1170 C1171 1.287 . S
C1171 C1170 1.287 . S
C1171 C1172 1.524 . S
C1171 H1174 0.999 . S
C1172 H1142 0.950 . S
C1172 C1171 1.524 . S
C1172 C1173 1.415 . S
C1173 H1143 0.950 . S
C1173 C1168 1.363 . S
C1173 C1172 1.415 . S
H1174 C1171 0.999 . S
H1175 C1156 0.913 . S
H1176 C1194 0.951 . S
H1177 C1196 0.951 . S
H1178 C1198 0.950 . S
H1179 C1199 0.950 . S
H1180 C1201 0.950 . S
H1181 C1204 0.950 . S
H1182 C1205 0.950 . S
H1183 C1207 0.950 . S
H1184 C1208 0.950 . S
H1185 C1209 0.951 . S
H1186 C1211 0.951 . S
H1187 C1213 0.950 . S
H1188 C1214 0.950 . S
H1189 C1216 0.950 . S
H1190 C1219 0.950 . S
H1191 C1220 0.950 . S
H1192 C1222 0.950 . S
H1193 C1223 0.950 . S
C1194 H1176 0.951 . S
C1194 C1195 1.366 . S
C1194 C1196 1.388 . S
C1195 C1194 1.366 . S
C1195 C1199 1.385 . S
C1196 H1177 0.951 . S
C1196 C1194 1.388 . S
C1196 C1197 1.366 . S
C1197 C1196 1.366 . S
C1197 C1198 1.414 . S
C1197 C1200 1.499 . S
C1198 H1178 0.950 . S
C1198 C1197 1.414 . S
C1198 C1199 1.374 . S
C1199 H1179 0.950 . S
C1199 C1195 1.385 . S
C1199 C1198 1.374 . S
C1200 C1197 1.499 . S
C1200 C1201 1.373 . S
C1200 C1202 1.389 . S
C1201 H1180 0.950 . S
C1201 C1200 1.373 . S
C1201 C1217 1.377 . S
C1202 C1200 1.389 . S
C1202 C1203 1.524 . S
C1202 C1216 1.377 . S
C1203 C1202 1.524 . S
C1203 C1204 1.397 . S
C1203 C1208 1.363 . S
C1204 H1181 0.950 . S
C1204 C1203 1.397 . S
C1204 C1205 1.334 . S
C1205 H1182 0.950 . S
C1205 C1204 1.334 . S
C1205 C1206 1.287 . S
C1206 C1205 1.287 . S
C1206 C1207 1.524 . S
C1206 H1225 0.913 . S
C1207 H1183 0.950 . S
C1207 C1206 1.524 . S
C1207 C1208 1.415 . S
C1208 H1184 0.950 . S
C1208 C1203 1.363 . S
C1208 C1207 1.415 . S
C1209 H1185 0.951 . S
C1209 C1210 1.366 . S
C1209 C1211 1.388 . S
C1210 C1209 1.366 . S
C1210 C1214 1.385 . S
C1211 H1186 0.951 . S
C1211 C1209 1.388 . S
C1211 C1212 1.366 . S
C1212 C1211 1.366 . S
C1212 C1213 1.414 . S
C1212 C1215 1.499 . S
C1213 H1187 0.950 . S
C1213 C1212 1.414 . S
C1213 C1214 1.374 . S
C1214 H1188 0.950 . S
C1214 C1210 1.385 . S
C1214 C1213 1.374 . S
C1215 C1212 1.499 . S
C1215 C1216 1.373 . S
C1215 C1217 1.389 . S
C1216 H1189 0.950 . S
C1216 C1202 1.377 . S
C1216 C1215 1.373 . S
C1217 C1201 1.377 . S
C1217 C1215 1.389 . S
C1217 C1218 1.524 . S
C1218 C1217 1.524 . S
C1218 C1219 1.397 . S
C1218 C1223 1.363 . S
C1219 H1190 0.950 . S
C1219 C1218 1.397 . S
C1219 C1220 1.334 . S
C1220 H1191 0.950 . S
C1220 C1219 1.334 . S
C1220 C1221 1.287 . S
C1221 C1220 1.287 . S
C1221 C1222 1.524 . S
C1221 H1224 0.999 . S
C1222 H1192 0.950 . S
C1222 C1221 1.524 . S
C1222 C1223 1.415 . S
C1223 H1193 0.950 . S
C1223 C1218 1.363 . S
C1223 C1222 1.415 . S
H1224 C1221 0.999 . S
H1225 C1206 0.913 . S
H1226 C1244 0.951 . S
H1227 C1246 0.951 . S
H1228 C1248 0.950 . S
H1229 C1249 0.950 . S
H1230 C1251 0.950 . S
H1231 C1254 0.950 . S
H1232 C1255 0.950 . S
H1233 C1257 0.950 . S
H1234 C1258 0.950 . S
H1235 C1259 0.951 . S
H1236 C1261 0.951 . S
H1237 C1263 0.950 . S
H1238 C1264 0.950 . S
H1239 C1266 0.950 . S
H1240 C1269 0.950 . S
H1241 C1270 0.950 . S
H1242 C1272 0.950 . S
H1243 C1273 0.950 . S
C1244 H1226 0.951 . S
C1244 C1245 1.366 . S
C1244 C1246 1.388 . S
C1245 C1244 1.366 . S
C1245 C1249 1.385 1_554 S
C1246 H1227 0.951 . S
C1246 C1244 1.388 . S
C1246 C1247 1.366 . S
C1247 C1246 1.366 . S
C1247 C1248 1.414 1_554 S
C1247 C1250 1.499 . S
C1248 H1228 0.950 . S
C1248 C1247 1.414 1_556 S
C1248 C1249 1.374 . S
C1249 H1229 0.950 . S
C1249 C1245 1.385 1_556 S
C1249 C1248 1.374 . S
C1250 C1247 1.499 . S
C1250 C1251 1.373 1_554 S
C1250 C1252 1.389 . S
C1251 H1230 0.950 . S
C1251 C1250 1.373 1_556 S
C1251 C1267 1.377 . S
C1252 C1250 1.389 . S
C1252 C1253 1.524 . S
C1252 C1266 1.377 . S
C1253 C1252 1.524 . S
C1253 C1254 1.397 . S
C1253 C1258 1.363 . S
C1254 H1231 0.950 . S
C1254 C1253 1.397 . S
C1254 C1255 1.334 . S
C1255 H1232 0.950 . S
C1255 C1254 1.334 . S
C1255 C1256 1.287 . S
C1256 C1255 1.287 . S
C1256 C1257 1.524 . S
C1256 H1275 0.913 . S
C1257 H1233 0.950 . S
C1257 C1256 1.524 . S
C1257 C1258 1.415 . S
C1258 H1234 0.950 . S
C1258 C1253 1.363 . S
C1258 C1257 1.415 . S
C1259 H1235 0.951 . S
C1259 C1260 1.366 1_556 S
C1259 C1261 1.388 . S
C1260 C1259 1.366 1_554 S
C1260 C1264 1.385 . S
C1261 H1236 0.951 . S
C1261 C1259 1.388 . S
C1261 C1262 1.366 1_556 S
C1262 C1261 1.366 1_554 S
C1262 C1263 1.414 . S
C1262 C1265 1.499 . S
C1263 H1237 0.950 . S
C1263 C1262 1.414 . S
C1263 C1264 1.374 . S
C1264 H1238 0.950 . S
C1264 C1260 1.385 . S
C1264 C1263 1.374 . S
C1265 C1262 1.499 . S
C1265 C1266 1.373 . S
C1265 C1267 1.389 1_554 S
C1266 H1239 0.950 . S
C1266 C1252 1.377 . S
C1266 C1265 1.373 . S
C1267 C1251 1.377 . S
C1267 C1265 1.389 1_556 S
C1267 C1268 1.524 . S
C1268 C1267 1.524 . S
C1268 C1269 1.397 . S
C1268 C1273 1.363 . S
C1269 H1240 0.950 . S
C1269 C1268 1.397 . S
C1269 C1270 1.334 . S
C1270 H1241 0.950 . S
C1270 C1269 1.334 . S
C1270 C1271 1.287 . S
C1271 C1270 1.287 . S
C1271 C1272 1.524 . S
C1271 H1274 0.999 . S
C1272 H1242 0.950 . S
C1272 C1271 1.524 . S
C1272 C1273 1.415 . S
C1273 H1243 0.950 . S
C1273 C1268 1.363 . S
C1273 C1272 1.415 . S
H1274 C1271 0.999 . S
H1275 C1256 0.913 . S
H1276 C1294 0.951 . S
H1277 C1296 0.951 . S
H1278 C1298 0.950 . S
H1279 C1299 0.950 . S
H1280 C1301 0.950 . S
H1281 C1304 0.950 . S
H1282 C1305 0.950 . S
H1283 C1307 0.950 . S
H1284 C1308 0.950 . S
H1285 C1309 0.951 . S
H1286 C1311 0.951 . S
H1287 C1313 0.950 . S
H1288 C1314 0.950 . S
H1289 C1316 0.950 . S
H1290 C1319 0.950 . S
H1291 C1320 0.950 . S
H1292 C1322 0.950 . S
H1293 C1323 0.950 . S
C1294 H1276 0.951 . S
C1294 C1295 1.366 . S
C1294 C1296 1.388 . S
C1295 C1294 1.366 . S
C1295 C1299 1.385 . S
C1296 H1277 0.951 . S
C1296 C1294 1.388 . S
C1296 C1297 1.366 . S
C1297 C1296 1.366 . S
C1297 C1298 1.414 . S
C1297 C1300 1.499 . S
C1298 H1278 0.950 . S
C1298 C1297 1.414 . S
C1298 C1299 1.374 . S
C1299 H1279 0.950 . S
C1299 C1295 1.385 . S
C1299 C1298 1.374 . S
C1300 C1297 1.499 . S
C1300 C1301 1.373 . S
C1300 C1302 1.389 . S
C1301 H1280 0.950 . S
C1301 C1300 1.373 . S
C1301 C1317 1.377 . S
C1302 C1300 1.389 . S
C1302 C1303 1.524 . S
C1302 C1316 1.377 . S
C1303 C1302 1.524 . S
C1303 C1304 1.397 . S
C1303 C1308 1.363 . S
C1304 H1281 0.950 . S
C1304 C1303 1.397 . S
C1304 C1305 1.334 . S
C1305 H1282 0.950 . S
C1305 C1304 1.334 . S
C1305 C1306 1.287 . S
C1306 C1305 1.287 . S
C1306 C1307 1.524 . S
C1306 H1325 0.913 . S
C1307 H1283 0.950 . S
C1307 C1306 1.524 . S
C1307 C1308 1.415 . S
C1308 H1284 0.950 . S
C1308 C1303 1.363 . S
C1308 C1307 1.415 . S
C1309 H1285 0.951 . S
C1309 C1310 1.366 . S
C1309 C1311 1.388 . S
C1310 C1309 1.366 . S
C1310 C1314 1.385 . S
C1311 H1286 0.951 . S
C1311 C1309 1.388 . S
C1311 C1312 1.366 . S
C1312 C1311 1.366 . S
C1312 C1313 1.414 . S
C1312 C1315 1.499 . S
C1313 H1287 0.950 . S
C1313 C1312 1.414 . S
C1313 C1314 1.374 . S
C1314 H1288 0.950 . S
C1314 C1310 1.385 . S
C1314 C1313 1.374 . S
C1315 C1312 1.499 . S
C1315 C1316 1.373 . S
C1315 C1317 1.389 . S
C1316 H1289 0.950 . S
C1316 C1302 1.377 . S
C1316 C1315 1.373 . S
C1317 C1301 1.377 . S
C1317 C1315 1.389 . S
C1317 C1318 1.524 . S
C1318 C1317 1.524 . S
C1318 C1319 1.397 . S
C1318 C1323 1.363 . S
C1319 H1290 0.950 . S
C1319 C1318 1.397 . S
C1319 C1320 1.334 . S
C1320 H1291 0.950 . S
C1320 C1319 1.334 . S
C1320 C1321 1.287 . S
C1321 C1320 1.287 . S
C1321 C1322 1.524 . S
C1321 H1324 0.999 . S
C1322 H1292 0.950 . S
C1322 C1321 1.524 . S
C1322 C1323 1.415 . S
C1323 H1293 0.950 . S
C1323 C1318 1.363 . S
C1323 C1322 1.415 . S
H1324 C1321 0.999 . S
H1325 C1306 0.913 . S
H1326 C1344 0.951 . S
H1327 C1346 0.951 . S
H1328 C1348 0.950 . S
H1329 C1349 0.950 . S
H1330 C1351 0.950 . S
H1331 C1354 0.950 1_554 S
H1332 C1355 0.950 . S
H1333 C1357 0.950 . S
H1334 C1358 0.950 . S
H1335 C1359 0.951 . S
H1336 C1361 0.951 . S
H1337 C1363 0.950 . S
H1338 C1364 0.950 . S
H1339 C1366 0.950 . S
H1340 C1369 0.950 . S
H1341 C1370 0.950 . S
H1342 C1372 0.950 . S
H1343 C1373 0.950 . S
C1344 H1326 0.951 . S
C1344 C1345 1.366 1_556 S
C1344 C1346 1.388 . S
C1345 C1344 1.366 1_554 S
C1345 C1349 1.385 . S
C1346 H1327 0.951 . S
C1346 C1344 1.388 . S
C1346 C1347 1.366 1_556 S
C1347 C1346 1.366 1_554 S
C1347 C1348 1.414 . S
C1347 C1350 1.499 . S
C1348 H1328 0.950 . S
C1348 C1347 1.414 . S
C1348 C1349 1.374 . S
C1349 H1329 0.950 . S
C1349 C1345 1.385 . S
C1349 C1348 1.374 . S
C1350 C1347 1.499 . S
C1350 C1351 1.373 . S
C1350 C1352 1.389 1_554 S
C1351 H1330 0.950 . S
C1351 C1350 1.373 . S
C1351 C1367 1.377 . S
C1352 C1350 1.389 1_556 S
C1352 C1353 1.524 . S
C1352 C1366 1.377 . S
C1353 C1352 1.524 . S
C1353 C1354 1.397 . S
C1353 C1358 1.363 . S
C1354 H1331 0.950 1_556 S
C1354 C1353 1.397 . S
C1354 C1355 1.334 . S
C1355 H1332 0.950 . S
C1355 C1354 1.334 . S
C1355 C1356 1.287 . S
C1356 C1355 1.287 . S
C1356 C1357 1.524 . S
C1356 H1375 0.913 . S
C1357 H1333 0.950 . S
C1357 C1356 1.524 . S
C1357 C1358 1.415 . S
C1358 H1334 0.950 . S
C1358 C1353 1.363 . S
C1358 C1357 1.415 . S
C1359 H1335 0.951 . S
C1359 C1360 1.366 . S
C1359 C1361 1.388 . S
C1360 C1359 1.366 . S
C1360 C1364 1.385 1_554 S
C1361 H1336 0.951 . S
C1361 C1359 1.388 . S
C1361 C1362 1.366 . S
C1362 C1361 1.366 . S
C1362 C1363 1.414 1_554 S
C1362 C1365 1.499 . S
C1363 H1337 0.950 . S
C1363 C1362 1.414 1_556 S
C1363 C1364 1.374 . S
C1364 H1338 0.950 . S
C1364 C1360 1.385 1_556 S
C1364 C1363 1.374 . S
C1365 C1362 1.499 . S
C1365 C1366 1.373 1_554 S
C1365 C1367 1.389 . S
C1366 H1339 0.950 . S
C1366 C1352 1.377 . S
C1366 C1365 1.373 1_556 S
C1367 C1351 1.377 . S
C1367 C1365 1.389 . S
C1367 C1368 1.524 . S
C1368 C1367 1.524 . S
C1368 C1369 1.397 . S
C1368 C1373 1.363 . S
C1369 H1340 0.950 . S
C1369 C1368 1.397 . S
C1369 C1370 1.334 . S
C1370 H1341 0.950 . S
C1370 C1369 1.334 . S
C1370 C1371 1.287 . S
C1371 C1370 1.287 . S
C1371 C1372 1.524 . S
C1371 H1374 0.999 . S
C1372 H1342 0.950 . S
C1372 C1371 1.524 . S
C1372 C1373 1.415 . S
C1373 H1343 0.950 . S
C1373 C1368 1.363 . S
C1373 C1372 1.415 . S
H1374 C1371 0.999 . S
H1375 C1356 0.913 . S
C195 C5 1.428 . S
C210 C126 1.293 . S
C245 C31 1.495 . S
C260 C95 1.465 . S
C310 C106 1.435 . S
C295 C53 1.456 . S
C345 C71 1.388 . S
C360 C115 1.256 . S
C410 C150 1.465 . S
C395 C75 1.494 . S
C460 C159 1.291 . S
C445 C9 1.427 . S
C510 C170 1.255 . S
C495 C27 1.387 . S
C560 C139 1.435 . S
C545 C49 1.456 . S
C595 C51 1.428 . S
C610 C104 1.197 . S
C645 C72 1.495 . S
C660 C117 1.500 . S
C695 C6 1.456 . S
C710 C128 1.466 . S
C760 C93 1.174 . S
C745 C29 1.388 . S
C795 C28 1.495 . S
C810 C172 1.499 . S
C860 C137 1.196 . S
C845 C50 1.428 . S
C910 C148 1.173 . S
C895 C73 1.388 . S
C945 C7 1.456 . S
C960 C161 1.465 . S
C1010 C96 1.498 . S
C995 C4 1.505 . S
C1060 C107 1.498 . S
C1045 C30 1.505 . S
C1095 C52 1.504 . S
C1110 C118 1.519 . S
C1145 C70 1.505 . S
C1160 C129 1.519 . S
C1210 C140 1.497 . S
C1195 C74 1.505 . S
C1245 C8 1.505 . S
C1260 C151 1.498 . S
C1295 C26 1.505 . S
C1310 C162 1.519 . S
C1345 C48 1.504 . S
C1360 C173 1.519 . S
