# Generated by pormake.
# Topology iac, (4,6)-cn, num edge types: 1
# Building blocks:
#     Node 0, Type 0, BuildingBlock: KUFVIS_clean_sbu_0, # of connection points: 4
#     Node 1, Type 0, BuildingBlock: KUFVIS_clean_sbu_0, # of connection points: 4
#     Node 2, Type 0, BuildingBlock: KUFVIS_clean_sbu_0, # of connection points: 4
#     Node 3, Type 0, BuildingBlock: KUFVIS_clean_sbu_0, # of connection points: 4
#     Node 4, Type 0, BuildingBlock: KUFVIS_clean_sbu_0, # of connection points: 4
#     Node 5, Type 0, BuildingBlock: KUFVIS_clean_sbu_0, # of connection points: 4
#     Node 6, Type 0, BuildingBlock: KUFVIS_clean_sbu_0, # of connection points: 4
#     Node 7, Type 0, BuildingBlock: KUFVIS_clean_sbu_0, # of connection points: 4
#     Node 8, Type 0, BuildingBlock: KUFVIS_clean_sbu_0, # of connection points: 4
#     Node 9, Type 0, BuildingBlock: KUFVIS_clean_sbu_0, # of connection points: 4
#     Node 10, Type 0, BuildingBlock: KUFVIS_clean_sbu_0, # of connection points: 4
#     Node 11, Type 0, BuildingBlock: KUFVIS_clean_sbu_0, # of connection points: 4
#     Node 12, Type 0, BuildingBlock: KUFVIS_clean_sbu_0, # of connection points: 4
#     Node 13, Type 0, BuildingBlock: KUFVIS_clean_sbu_0, # of connection points: 4
#     Node 14, Type 0, BuildingBlock: KUFVIS_clean_sbu_0, # of connection points: 4
#     Node 15, Type 0, BuildingBlock: KUFVIS_clean_sbu_0, # of connection points: 4
#     Node 16, Type 0, BuildingBlock: KUFVIS_clean_sbu_0, # of connection points: 4
#     Node 17, Type 0, BuildingBlock: KUFVIS_clean_sbu_0, # of connection points: 4
#     Node 18, Type 0, BuildingBlock: KUFVIS_clean_sbu_0, # of connection points: 4
#     Node 19, Type 0, BuildingBlock: KUFVIS_clean_sbu_0, # of connection points: 4
#     Node 20, Type 0, BuildingBlock: KUFVIS_clean_sbu_0, # of connection points: 4
#     Node 21, Type 0, BuildingBlock: KUFVIS_clean_sbu_0, # of connection points: 4
#     Node 22, Type 0, BuildingBlock: KUFVIS_clean_sbu_0, # of connection points: 4
#     Node 23, Type 0, BuildingBlock: KUFVIS_clean_sbu_0, # of connection points: 4
#     Node 24, Type 1, BuildingBlock: FUNLAD_clean_sbu_0, # of connection points: 6
#     Node 25, Type 1, BuildingBlock: FUNLAD_clean_sbu_0, # of connection points: 6
#     Node 26, Type 1, BuildingBlock: FUNLAD_clean_sbu_0, # of connection points: 6
#     Node 27, Type 1, BuildingBlock: FUNLAD_clean_sbu_0, # of connection points: 6
#     Node 28, Type 1, BuildingBlock: FUNLAD_clean_sbu_0, # of connection points: 6
#     Node 29, Type 1, BuildingBlock: FUNLAD_clean_sbu_0, # of connection points: 6
#     Node 30, Type 1, BuildingBlock: FUNLAD_clean_sbu_0, # of connection points: 6
#     Node 31, Type 1, BuildingBlock: FUNLAD_clean_sbu_0, # of connection points: 6
#     Node 32, Type 1, BuildingBlock: FUNLAD_clean_sbu_0, # of connection points: 6
#     Node 33, Type 1, BuildingBlock: FUNLAD_clean_sbu_0, # of connection points: 6
#     Node 34, Type 1, BuildingBlock: FUNLAD_clean_sbu_0, # of connection points: 6
#     Node 35, Type 1, BuildingBlock: FUNLAD_clean_sbu_0, # of connection points: 6
#     Node 36, Type 1, BuildingBlock: FUNLAD_clean_sbu_0, # of connection points: 6
#     Node 37, Type 1, BuildingBlock: FUNLAD_clean_sbu_0, # of connection points: 6
#     Node 38, Type 1, BuildingBlock: FUNLAD_clean_sbu_0, # of connection points: 6
#     Node 39, Type 1, BuildingBlock: FUNLAD_clean_sbu_0, # of connection points: 6
#     Edge 40, Type (0, 1), BuildingBlock: XIVTED_clean_linker_0, # of connection points: 2
#     Edge 41, Type (0, 1), BuildingBlock: XIVTED_clean_linker_0, # of connection points: 2
#     Edge 42, Type (0, 1), BuildingBlock: XIVTED_clean_linker_0, # of connection points: 2
#     Edge 43, Type (0, 1), BuildingBlock: XIVTED_clean_linker_0, # of connection points: 2
#     Edge 44, Type (0, 1), BuildingBlock: XIVTED_clean_linker_0, # of connection points: 2
#     Edge 45, Type (0, 1), BuildingBlock: XIVTED_clean_linker_0, # of connection points: 2
#     Edge 46, Type (0, 1), BuildingBlock: XIVTED_clean_linker_0, # of connection points: 2
#     Edge 47, Type (0, 1), BuildingBlock: XIVTED_clean_linker_0, # of connection points: 2
#     Edge 48, Type (0, 1), BuildingBlock: XIVTED_clean_linker_0, # of connection points: 2
#     Edge 49, Type (0, 1), BuildingBlock: XIVTED_clean_linker_0, # of connection points: 2
#     Edge 50, Type (0, 1), BuildingBlock: XIVTED_clean_linker_0, # of connection points: 2
#     Edge 51, Type (0, 1), BuildingBlock: XIVTED_clean_linker_0, # of connection points: 2
#     Edge 52, Type (0, 1), BuildingBlock: XIVTED_clean_linker_0, # of connection points: 2
#     Edge 53, Type (0, 1), BuildingBlock: XIVTED_clean_linker_0, # of connection points: 2
#     Edge 54, Type (0, 1), BuildingBlock: XIVTED_clean_linker_0, # of connection points: 2
#     Edge 55, Type (0, 1), BuildingBlock: XIVTED_clean_linker_0, # of connection points: 2
#     Edge 56, Type (0, 1), BuildingBlock: XIVTED_clean_linker_0, # of connection points: 2
#     Edge 57, Type (0, 1), BuildingBlock: XIVTED_clean_linker_0, # of connection points: 2
#     Edge 58, Type (0, 1), BuildingBlock: XIVTED_clean_linker_0, # of connection points: 2
#     Edge 59, Type (0, 1), BuildingBlock: XIVTED_clean_linker_0, # of connection points: 2
#     Edge 60, Type (0, 1), BuildingBlock: XIVTED_clean_linker_0, # of connection points: 2
#     Edge 61, Type (0, 1), BuildingBlock: XIVTED_clean_linker_0, # of connection points: 2
#     Edge 62, Type (0, 1), BuildingBlock: XIVTED_clean_linker_0, # of connection points: 2
#     Edge 63, Type (0, 1), BuildingBlock: XIVTED_clean_linker_0, # of connection points: 2
#     Edge 64, Type (0, 1), BuildingBlock: XIVTED_clean_linker_0, # of connection points: 2
#     Edge 65, Type (0, 1), BuildingBlock: XIVTED_clean_linker_0, # of connection points: 2
#     Edge 66, Type (0, 1), BuildingBlock: XIVTED_clean_linker_0, # of connection points: 2
#     Edge 67, Type (0, 1), BuildingBlock: XIVTED_clean_linker_0, # of connection points: 2
#     Edge 68, Type (0, 1), BuildingBlock: XIVTED_clean_linker_0, # of connection points: 2
#     Edge 69, Type (0, 1), BuildingBlock: XIVTED_clean_linker_0, # of connection points: 2
#     Edge 70, Type (0, 1), BuildingBlock: XIVTED_clean_linker_0, # of connection points: 2
#     Edge 71, Type (0, 1), BuildingBlock: XIVTED_clean_linker_0, # of connection points: 2
#     Edge 72, Type (0, 1), BuildingBlock: XIVTED_clean_linker_0, # of connection points: 2
#     Edge 73, Type (0, 1), BuildingBlock: XIVTED_clean_linker_0, # of connection points: 2
#     Edge 74, Type (0, 1), BuildingBlock: XIVTED_clean_linker_0, # of connection points: 2
#     Edge 75, Type (0, 1), BuildingBlock: XIVTED_clean_linker_0, # of connection points: 2
#     Edge 76, Type (0, 1), BuildingBlock: XIVTED_clean_linker_0, # of connection points: 2
#     Edge 77, Type (0, 1), BuildingBlock: XIVTED_clean_linker_0, # of connection points: 2
#     Edge 78, Type (0, 1), BuildingBlock: XIVTED_clean_linker_0, # of connection points: 2
#     Edge 79, Type (0, 1), BuildingBlock: XIVTED_clean_linker_0, # of connection points: 2
#     Edge 80, Type (0, 1), BuildingBlock: XIVTED_clean_linker_0, # of connection points: 2
#     Edge 81, Type (0, 1), BuildingBlock: XIVTED_clean_linker_0, # of connection points: 2
#     Edge 82, Type (0, 1), BuildingBlock: XIVTED_clean_linker_0, # of connection points: 2
#     Edge 83, Type (0, 1), BuildingBlock: XIVTED_clean_linker_0, # of connection points: 2
#     Edge 84, Type (0, 1), BuildingBlock: XIVTED_clean_linker_0, # of connection points: 2
#     Edge 85, Type (0, 1), BuildingBlock: XIVTED_clean_linker_0, # of connection points: 2
#     Edge 86, Type (0, 1), BuildingBlock: XIVTED_clean_linker_0, # of connection points: 2
#     Edge 87, Type (0, 1), BuildingBlock: XIVTED_clean_linker_0, # of connection points: 2
#     Edge 88, Type (0, 1), BuildingBlock: XIVTED_clean_linker_0, # of connection points: 2
#     Edge 89, Type (0, 1), BuildingBlock: XIVTED_clean_linker_0, # of connection points: 2
#     Edge 90, Type (0, 1), BuildingBlock: XIVTED_clean_linker_0, # of connection points: 2
#     Edge 91, Type (0, 1), BuildingBlock: XIVTED_clean_linker_0, # of connection points: 2
#     Edge 92, Type (0, 1), BuildingBlock: XIVTED_clean_linker_0, # of connection points: 2
#     Edge 93, Type (0, 1), BuildingBlock: XIVTED_clean_linker_0, # of connection points: 2
#     Edge 94, Type (0, 1), BuildingBlock: XIVTED_clean_linker_0, # of connection points: 2
#     Edge 95, Type (0, 1), BuildingBlock: XIVTED_clean_linker_0, # of connection points: 2
#     Edge 96, Type (0, 1), BuildingBlock: XIVTED_clean_linker_0, # of connection points: 2
#     Edge 97, Type (0, 1), BuildingBlock: XIVTED_clean_linker_0, # of connection points: 2
#     Edge 98, Type (0, 1), BuildingBlock: XIVTED_clean_linker_0, # of connection points: 2
#     Edge 99, Type (0, 1), BuildingBlock: XIVTED_clean_linker_0, # of connection points: 2
#     Edge 100, Type (0, 1), BuildingBlock: XIVTED_clean_linker_0, # of connection points: 2
#     Edge 101, Type (0, 1), BuildingBlock: XIVTED_clean_linker_0, # of connection points: 2
#     Edge 102, Type (0, 1), BuildingBlock: XIVTED_clean_linker_0, # of connection points: 2
#     Edge 103, Type (0, 1), BuildingBlock: XIVTED_clean_linker_0, # of connection points: 2
#     Edge 104, Type (0, 1), BuildingBlock: XIVTED_clean_linker_0, # of connection points: 2
#     Edge 105, Type (0, 1), BuildingBlock: XIVTED_clean_linker_0, # of connection points: 2
#     Edge 106, Type (0, 1), BuildingBlock: XIVTED_clean_linker_0, # of connection points: 2
#     Edge 107, Type (0, 1), BuildingBlock: XIVTED_clean_linker_0, # of connection points: 2
#     Edge 108, Type (0, 1), BuildingBlock: XIVTED_clean_linker_0, # of connection points: 2
#     Edge 109, Type (0, 1), BuildingBlock: XIVTED_clean_linker_0, # of connection points: 2
#     Edge 110, Type (0, 1), BuildingBlock: XIVTED_clean_linker_0, # of connection points: 2
#     Edge 111, Type (0, 1), BuildingBlock: XIVTED_clean_linker_0, # of connection points: 2
#     Edge 112, Type (0, 1), BuildingBlock: XIVTED_clean_linker_0, # of connection points: 2
#     Edge 113, Type (0, 1), BuildingBlock: XIVTED_clean_linker_0, # of connection points: 2
#     Edge 114, Type (0, 1), BuildingBlock: XIVTED_clean_linker_0, # of connection points: 2
#     Edge 115, Type (0, 1), BuildingBlock: XIVTED_clean_linker_0, # of connection points: 2
#     Edge 116, Type (0, 1), BuildingBlock: XIVTED_clean_linker_0, # of connection points: 2
#     Edge 117, Type (0, 1), BuildingBlock: XIVTED_clean_linker_0, # of connection points: 2
#     Edge 118, Type (0, 1), BuildingBlock: XIVTED_clean_linker_0, # of connection points: 2
#     Edge 119, Type (0, 1), BuildingBlock: XIVTED_clean_linker_0, # of connection points: 2
#     Edge 120, Type (0, 1), BuildingBlock: XIVTED_clean_linker_0, # of connection points: 2
#     Edge 121, Type (0, 1), BuildingBlock: XIVTED_clean_linker_0, # of connection points: 2
#     Edge 122, Type (0, 1), BuildingBlock: XIVTED_clean_linker_0, # of connection points: 2
#     Edge 123, Type (0, 1), BuildingBlock: XIVTED_clean_linker_0, # of connection points: 2
#     Edge 124, Type (0, 1), BuildingBlock: XIVTED_clean_linker_0, # of connection points: 2
#     Edge 125, Type (0, 1), BuildingBlock: XIVTED_clean_linker_0, # of connection points: 2
#     Edge 126, Type (0, 1), BuildingBlock: XIVTED_clean_linker_0, # of connection points: 2
#     Edge 127, Type (0, 1), BuildingBlock: XIVTED_clean_linker_0, # of connection points: 2
#     Edge 128, Type (0, 1), BuildingBlock: XIVTED_clean_linker_0, # of connection points: 2
#     Edge 129, Type (0, 1), BuildingBlock: XIVTED_clean_linker_0, # of connection points: 2
#     Edge 130, Type (0, 1), BuildingBlock: XIVTED_clean_linker_0, # of connection points: 2
#     Edge 131, Type (0, 1), BuildingBlock: XIVTED_clean_linker_0, # of connection points: 2
#     Edge 132, Type (0, 1), BuildingBlock: XIVTED_clean_linker_0, # of connection points: 2
#     Edge 133, Type (0, 1), BuildingBlock: XIVTED_clean_linker_0, # of connection points: 2
#     Edge 134, Type (0, 1), BuildingBlock: XIVTED_clean_linker_0, # of connection points: 2
#     Edge 135, Type (0, 1), BuildingBlock: XIVTED_clean_linker_0, # of connection points: 2
# Relax obj value: 0.321
# Max RMSD: 0.286
# Mean RMSD: 0.125
data_MOF--net-iac--node1-KUFVIS_clean_sbu_0--node2-FUNLAD_clean_sbu_0--edge1-XIVTED_clean_linker_0
_symmetry_space_group_name_H-M    P1
_symmetry_Int_Tables_number       1
_symmetry_cell_setting            triclinic
loop_
_symmetry_equiv_pos_as_xyz
'x, y, z'
_cell_length_a     54.888631
_cell_length_b     52.111459
_cell_length_c     60.210638
_cell_angle_alpha  90.152262
_cell_angle_beta   92.183854
_cell_angle_gamma 90.493205
loop_
_atom_site_label
_atom_site_type_symbol
_atom_site_fract_x
_atom_site_fract_y
_atom_site_fract_z
_atom_type_partial_charge
Mn0 Mn 0.04329 0.20892 0.16847 0.0
Mn1 Mn 0.00817 0.18683 0.12583 0.0
C2 C 0.05433 0.17184 0.15053 0.0
C3 C 0.07409 0.23723 0.17994 0.0
C4 C 0.99363 0.18583 0.17415 0.0
O5 O 0.02201 0.23893 0.15939 0.0
O6 O 0.00617 0.22491 0.12642 0.0
C7 C 0.03232 0.20778 0.08658 0.0
N8 N 0.02447 0.18723 0.09836 0.0
C9 C 0.03593 0.15796 0.06971 0.0
C10 C 0.0441 0.17879 0.05723 0.0
C11 C 0.04239 0.20381 0.06577 0.0
C12 C 0.0262 0.16307 0.09039 0.0
H13 H 0.03083 0.22707 0.09298 0.0
C14 C 0.01107 0.24279 0.14065 0.0
O15 O 0.05803 0.22919 0.19371 0.0
O16 O 0.07245 0.2284 0.1598 0.0
N17 N 0.0097 0.15021 0.12365 0.0
C18 C 0.00243 0.1321 0.13835 0.0
C19 C 0.00426 0.10598 0.13285 0.0
C20 C 0.01331 0.09878 0.11227 0.0
C21 C 0.02062 0.11777 0.09742 0.0
C22 C 0.01854 0.14347 0.10386 0.0
H23 H 0.9953 0.13748 0.15412 0.0
O24 O 0.0631 0.17668 0.17047 0.0
O25 O 0.03941 0.18869 0.14222 0.0
O26 O 0.01436 0.19182 0.18301 0.0
O27 O 0.98941 0.18512 0.15314 0.0
C28 C 0.03002 0.1122 0.07656 0.0
C29 C 0.03737 0.13227 0.06257 0.0
H30 H 0.05186 0.1758 0.04118 0.0
H31 H 0.04871 0.21998 0.05627 0.0
H32 H 0.9986 0.09145 0.14443 0.0
H33 H 0.01464 0.07861 0.10805 0.0
H34 H 0.03188 0.09252 0.07123 0.0
H35 H 0.04449 0.12775 0.04652 0.0
Mn36 Mn 0.04299 0.76639 0.39164 0.0
Mn37 Mn 0.00413 0.77155 0.43398 0.0
C38 C 0.03635 0.8063 0.40852 0.0
C39 C 0.08156 0.75857 0.37675 0.0
C40 C 0.98699 0.76558 0.38557 0.0
O41 O 0.04 0.72894 0.40283 0.0
O42 O 0.01656 0.73616 0.43206 0.0
C43 C 0.03893 0.76255 0.47194 0.0
N44 N 0.02154 0.77729 0.46165 0.0
C45 C 0.02199 0.80687 0.49243 0.0
C46 C 0.03972 0.79186 0.50346 0.0
C47 C 0.04832 0.76969 0.49311 0.0
C48 C 0.0134 0.79886 0.47132 0.0
H49 H 0.04558 0.74549 0.46405 0.0
C50 C 0.02956 0.7214 0.42041 0.0
O51 O 0.06133 0.75544 0.36525 0.0
O52 O 0.07953 0.76586 0.39728 0.0
N53 N 0.99085 0.80496 0.43826 0.0
C54 C 0.97496 0.81824 0.42478 0.0
C55 C 0.96528 0.84141 0.43233 0.0
C56 C 0.97172 0.85047 0.45376 0.0
C57 C 0.98786 0.83632 0.46744 0.0
C58 C 0.99696 0.8134 0.459 0.0
H59 H 0.96971 0.81125 0.40838 0.0
O60 O 0.04445 0.80503 0.38855 0.0
O61 O 0.03239 0.78442 0.41799 0.0
O62 O 0.00814 0.76569 0.3775 0.0
O63 O 0.98375 0.76637 0.40644 0.0
C64 C 0.99561 0.84429 0.48897 0.0
C65 C 0.01279 0.82968 0.50139 0.0
H66 H 0.04701 0.7973 0.51978 0.0
H67 H 0.06212 0.7581 0.50145 0.0
H68 H 0.95283 0.85221 0.42167 0.0
H69 H 0.9643 0.86841 0.45949 0.0
H70 H 0.98882 0.8619 0.49596 0.0
H71 H 0.019 0.8363 0.51773 0.0
Mn72 Mn 0.56729 0.6936 0.65942 0.0
Mn73 Mn 0.52791 0.67129 0.62002 0.0
C74 C 0.5735 0.65351 0.6445 0.0
C75 C 0.60068 0.71985 0.66772 0.0
C76 C 0.51603 0.67721 0.66879 0.0
O77 O 0.54864 0.72469 0.64868 0.0
O78 O 0.52942 0.70949 0.61758 0.0
C79 C 0.55192 0.68502 0.57844 0.0
N80 N 0.5427 0.66684 0.59207 0.0
C81 C 0.55032 0.63334 0.56572 0.0
C82 C 0.55981 0.6517 0.55135 0.0
C83 C 0.56071 0.67764 0.55779 0.0
C84 C 0.54187 0.64182 0.58609 0.0
H85 H 0.55249 0.705 0.58326 0.0
C86 C 0.53674 0.72802 0.63035 0.0
O87 O 0.58462 0.7149 0.68248 0.0
O88 O 0.59775 0.7088 0.64847 0.0
N89 N 0.52575 0.63459 0.62074 0.0
C90 C 0.51753 0.61907 0.63708 0.0
C91 C 0.51671 0.59238 0.63374 0.0
C92 C 0.52417 0.58194 0.6136 0.0
C93 C 0.53251 0.5983 0.59703 0.0
C94 C 0.53301 0.62472 0.60132 0.0
H95 H 0.51168 0.62694 0.65256 0.0
O96 O 0.58381 0.65967 0.66359 0.0
O97 O 0.56009 0.67105 0.63507 0.0
O98 O 0.5377 0.68167 0.67622 0.0
O99 O 0.51045 0.67463 0.64809 0.0
C100 C 0.54062 0.58939 0.57653 0.0
C101 C 0.54924 0.60692 0.56077 0.0
H102 H 0.56663 0.64608 0.53542 0.0
H103 H 0.56808 0.69192 0.54682 0.0
H104 H 0.5103 0.57989 0.64664 0.0
H105 H 0.52355 0.56135 0.61109 0.0
H106 H 0.54053 0.56907 0.57286 0.0
H107 H 0.55539 0.59983 0.54504 0.0
Mn108 Mn 0.54187 0.27053 0.89129 0.0
Mn109 Mn 0.50162 0.277 0.93229 0.0
C110 C 0.53507 0.31083 0.90731 0.0
C111 C 0.58072 0.26199 0.87752 0.0
C112 C 0.48615 0.26974 0.8836 0.0
O113 O 0.53833 0.23346 0.90317 0.0
O114 O 0.51415 0.24157 0.93173 0.0
C115 C 0.53478 0.26923 0.97165 0.0
N116 N 0.51791 0.28368 0.96035 0.0
C117 C 0.51695 0.3142 0.99035 0.0
C118 C 0.5341 0.29949 0.00243 0.0
C119 C 0.54318 0.277 0.99297 0.0
C120 C 0.50937 0.30557 0.96914 0.0
H121 H 0.54179 0.25193 0.96446 0.0
C122 C 0.52755 0.2265 0.92075 0.0
O123 O 0.56079 0.25877 0.86561 0.0
O124 O 0.57823 0.26982 0.89784 0.0
N125 N 0.48831 0.31063 0.93517 0.0
C126 C 0.4732 0.32358 0.92072 0.0
C127 C 0.46337 0.3471 0.92725 0.0
C128 C 0.46884 0.35685 0.94865 0.0
C129 C 0.48422 0.34305 0.9633 0.0
C130 C 0.49357 0.31978 0.95584 0.0
H131 H 0.46869 0.31607 0.90435 0.0
O132 O 0.54374 0.30908 0.88758 0.0
O133 O 0.53059 0.28921 0.91698 0.0
O134 O 0.50757 0.26979 0.87618 0.0
O135 O 0.48218 0.27087 0.90433 0.0
C136 C 0.49091 0.35163 0.9849 0.0
C137 C 0.50734 0.33728 0.99838 0.0
H138 H 0.5406 0.3054 0.01888 0.0
H139 H 0.55655 0.26564 0.00212 0.0
H140 H 0.45152 0.35764 0.91583 0.0
H141 H 0.46128 0.37503 0.95359 0.0
H142 H 0.48391 0.36952 0.99115 0.0
H143 H 0.51274 0.34436 0.01479 0.0
Mn144 Mn 0.14721 0.01393 0.25412 0.0
Mn145 Mn 0.19953 0.03367 0.28074 0.0
C146 C 0.15694 0.057 0.25559 0.0
C147 C 0.12625 -0.00127 0.22249 0.0
C148 C 0.15359 0.02009 0.30454 0.0
O149 O 0.16627 0.98071 0.25776 0.0
O150 O 0.201 0.99659 0.27355 0.0
C151 C 0.232 0.02681 0.24305 0.0
N152 N 0.22287 0.04206 0.25908 0.0
C153 C 0.24782 0.07774 0.24822 0.0
C154 C 0.25761 0.06237 0.23168 0.0
C155 C 0.24959 0.03682 0.22903 0.0
C156 C 0.23021 0.06676 0.26158 0.0
H157 H 0.22589 0.00717 0.24097 0.0
C158 C 0.18808 0.97802 0.26543 0.0
O159 O 0.11785 0.99512 0.24211 0.0
O160 O 0.14712 0.01043 0.22131 0.0
N161 N 0.2015 0.06917 0.28895 0.0
C162 C 0.19046 0.08136 0.30588 0.0
C163 C 0.19679 0.10693 0.311 0.0
C164 C 0.21466 0.11959 0.29892 0.0
C165 C 0.22613 0.10651 0.28189 0.0
C166 C 0.21925 0.08096 0.27769 0.0
H167 H 0.17693 0.07167 0.31543 0.0
O168 O 0.1347 0.04958 0.25111 0.0
O169 O 0.17315 0.03906 0.25824 0.0
O170 O 0.14045 0.01466 0.2872 0.0
O171 O 0.17614 0.02636 0.30409 0.0
C172 C 0.24403 0.11788 0.26883 0.0
C173 C 0.25473 0.10356 0.2519 0.0
H174 H 0.27122 0.07 0.22086 0.0
H175 H 0.25699 0.02487 0.21625 0.0
H176 H 0.18792 0.11685 0.32424 0.0
H177 H 0.21936 0.13937 0.30281 0.0
H178 H 0.24954 0.13769 0.27155 0.0
H179 H 0.2683 0.11258 0.24183 0.0
Mn180 Mn 0.28342 0.89666 0.55823 0.0
Mn181 Mn 0.29323 0.95034 0.52802 0.0
C182 C 0.32279 0.9105 0.55278 0.0
C183 C 0.27552 0.87665 0.59176 0.0
C184 C 0.28166 0.89844 0.50732 0.0
O185 O 0.24995 0.91331 0.55669 0.0
O186 O 0.25932 0.94906 0.53798 0.0
C187 C 0.28843 0.98797 0.5645 0.0
N188 N 0.30144 0.97819 0.54767 0.0
C189 C 0.33278 0.01038 0.55322 0.0
C190 C 0.31967 0.02089 0.57055 0.0
C191 C 0.29746 0.00955 0.57627 0.0
C192 C 0.32298 0.98872 0.54223 0.0
H193 H 0.2713 0.97938 0.56886 0.0
C194 C 0.24426 0.9349 0.54816 0.0
O195 O 0.26968 0.86578 0.57286 0.0
O196 O 0.28526 0.89941 0.59119 0.0
N197 N 0.32512 0.95512 0.51686 0.0
C198 C 0.3357 0.94241 0.49996 0.0
C199 C 0.35801 0.95135 0.49215 0.0
C200 C 0.36896 0.97355 0.50145 0.0
C201 C 0.35754 0.98658 0.51854 0.0
C202 C 0.33528 0.97681 0.52559 0.0
H203 H 0.32719 0.92558 0.49247 0.0
O204 O 0.31846 0.88701 0.5586 0.0
O205 O 0.30409 0.92568 0.55103 0.0
O206 O 0.27991 0.88604 0.52546 0.0
O207 O 0.28571 0.92259 0.50649 0.0
C208 C 0.36751 0.00868 0.52905 0.0
C209 C 0.35523 0.02045 0.5465 0.0
H210 H 0.32652 0.03759 0.57961 0.0
H211 H 0.28727 0.01751 0.58967 0.0
H212 H 0.36668 0.94122 0.47892 0.0
H213 H 0.38621 0.98032 0.49543 0.0
H214 H 0.38475 0.01661 0.52403 0.0
H215 H 0.36323 0.03724 0.55464 0.0
Mn216 Mn 0.4093 0.01266 0.74381 0.0
Mn217 Mn 0.35697 0.00582 0.77144 0.0
C218 C 0.39338 0.97215 0.74974 0.0
C219 C 0.4303 0.02006 0.71164 0.0
C220 C 0.40625 0.01561 0.79434 0.0
O221 O 0.39543 0.0489 0.7431 0.0
O222 O 0.36 0.0408 0.75933 0.0
C223 C 0.32237 0.01113 0.73279 0.0
N224 N 0.33054 0.9978 0.75097 0.0
C225 C 0.29804 0.96677 0.74629 0.0
C226 C 0.28914 0.98028 0.72761 0.0
C227 C 0.30146 0.00247 0.72075 0.0
C228 C 0.31912 0.97616 0.75745 0.0
H229 H 0.33173 0.02826 0.72754 0.0
C230 C 0.37449 0.05574 0.74929 0.0
O231 O 0.4401 0.02486 0.73115 0.0
O232 O 0.40802 0.01136 0.71071 0.0
N233 N 0.35069 0.97293 0.7842 0.0
C234 C 0.36205 0.96168 0.80215 0.0
C235 C 0.35212 0.93918 0.81104 0.0
C236 C 0.33034 0.92879 0.80173 0.0
C237 C 0.31876 0.94091 0.7835 0.0
C238 C 0.32953 0.96326 0.77532 0.0
H239 H 0.37853 0.96981 0.80967 0.0
O240 O 0.41611 0.97512 0.7451 0.0
O241 O 0.38024 0.99279 0.75005 0.0
O242 O 0.4185 0.01585 0.7768 0.0
O243 O 0.38307 0.01321 0.79412 0.0
C244 C 0.2971 0.93154 0.77295 0.0
C245 C 0.28689 0.94431 0.75421 0.0
H246 H 0.27294 0.97373 0.71836 0.0
H247 H 0.29478 0.01293 0.7063 0.0
H248 H 0.36115 0.92996 0.82514 0.0
H249 H 0.32277 0.91141 0.80861 0.0
H250 H 0.2883 0.91435 0.77893 0.0
H251 H 0.27046 0.93667 0.74602 0.0
Mn252 Mn 0.2795 0.1005 0.01177 0.0
Mn253 Mn 0.29036 0.04495 0.98464 0.0
C254 C 0.24742 0.07477 0.99913 0.0
C255 C 0.27699 0.12401 0.04432 0.0
C256 C 0.29464 0.0976 0.96377 0.0
O257 O 0.31548 0.09444 0.01879 0.0
O258 O 0.31891 0.05496 0.00386 0.0
C259 C 0.29217 0.01098 0.02404 0.0
N260 N 0.28336 0.01626 0.00312 0.0
C261 C 0.25962 0.97721 0.00186 0.0
C262 C 0.26905 0.97096 0.02312 0.0
C263 C 0.28522 0.98805 0.03434 0.0
C264 C 0.26725 0.00033 0.99245 0.0
H265 H 0.30414 0.02434 0.03286 0.0
C266 C 0.32724 0.07391 0.01548 0.0
O267 O 0.2819 0.13484 0.02564 0.0
O268 O 0.27294 0.09938 0.0441 0.0
N269 N 0.26422 0.03224 0.96557 0.0
C270 C 0.25503 0.04223 0.94615 0.0
C271 C 0.23792 0.028 0.93316 0.0
C272 C 0.23045 0.00361 0.94024 0.0
C273 C 0.24011 0.99372 0.9603 0.0
C274 C 0.25736 0.00864 0.97238 0.0
H275 H 0.26043 0.06104 0.94078 0.0
O276 O 0.24372 0.09873 0.00382 0.0
O277 O 0.2694 0.06642 0.00261 0.0
O278 O 0.28702 0.11006 0.98025 0.0
O279 O 0.29743 0.07327 0.9637 0.0
C280 C 0.23286 0.96992 0.96905 0.0
C281 C 0.24247 0.96175 0.9899 0.0
H282 H 0.26364 0.95335 0.03116 0.0
H283 H 0.2922 0.98362 0.05092 0.0
H284 H 0.23037 0.0359 0.91781 0.0
H285 H 0.21701 0.99284 0.93033 0.0
H286 H 0.21946 0.95802 0.96014 0.0
H287 H 0.23629 0.94373 0.99671 0.0
Mn288 Mn 0.7833 0.39377 0.05986 0.0
Mn289 Mn 0.79514 0.4471 0.02979 0.0
C290 C 0.82305 0.40803 0.05732 0.0
C291 C 0.77152 0.37449 0.09271 0.0
C292 C 0.78561 0.39469 0.00917 0.0
O293 O 0.74974 0.4098 0.05505 0.0
O294 O 0.76067 0.44614 0.03798 0.0
C295 C 0.78832 0.48535 0.0654 0.0
N296 N 0.80224 0.47531 0.04933 0.0
C297 C 0.83298 0.50801 0.05542 0.0
C298 C 0.81894 0.5188 0.07198 0.0
C299 C 0.79657 0.50732 0.07708 0.0
C300 C 0.82397 0.48591 0.04458 0.0
H301 H 0.77103 0.47668 0.06922 0.0
C302 C 0.74476 0.43166 0.04665 0.0
O303 O 0.76863 0.36294 0.07366 0.0
O304 O 0.78098 0.39742 0.09268 0.0
N305 N 0.82769 0.45165 0.0201 0.0
C306 C 0.83908 0.43878 0.00376 0.0
C307 C 0.86148 0.448 0.9964 0.0
C308 C 0.8717 0.47064 0.00555 0.0
C309 C 0.8595 0.48378 0.02211 0.0
C310 C 0.83717 0.47373 0.02871 0.0
H311 H 0.83108 0.42168 0.99629 0.0
O312 O 0.8184 0.38475 0.06355 0.0
O313 O 0.80436 0.4229 0.05375 0.0
O314 O 0.78341 0.38233 0.02728 0.0
O315 O 0.78879 0.41897 0.00833 0.0
C316 C 0.86871 0.50633 0.03246 0.0
C317 C 0.85557 0.51829 0.04926 0.0
H318 H 0.82517 0.53584 0.08092 0.0
H319 H 0.78566 0.51549 0.08987 0.0
H320 H 0.87076 0.43779 0.98359 0.0
H321 H 0.88898 0.47769 -0.00019 0.0
H322 H 0.88599 0.51448 0.02779 0.0
H323 H 0.86297 0.53544 0.05728 0.0
Mn324 Mn 0.91034 0.51146 0.24325 0.0
Mn325 Mn 0.86048 0.50924 0.27495 0.0
C326 C 0.88972 0.47306 0.24781 0.0
C327 C 0.93002 0.51892 0.21031 0.0
C328 C 0.912 0.50852 0.29421 0.0
O329 O 0.90162 0.5493 0.24583 0.0
O330 O 0.86889 0.54468 0.26677 0.0
C331 C 0.82508 0.52672 0.23997 0.0
N332 N 0.83186 0.50942 0.25589 0.0
C333 C 0.79397 0.48624 0.25087 0.0
C334 C 0.78651 0.50386 0.23446 0.0
C335 C 0.80221 0.52409 0.22888 0.0
C336 C 0.81715 0.48957 0.26102 0.0
H337 H 0.83699 0.54246 0.23583 0.0
C338 C 0.88389 0.55846 0.25625 0.0
O339 O 0.9414 0.52048 0.22952 0.0
O340 O 0.90686 0.51338 0.21012 0.0
N341 N 0.84908 0.47658 0.28485 0.0
C342 C 0.85886 0.4615 0.30131 0.0
C343 C 0.84525 0.44074 0.30924 0.0
C344 C 0.8215 0.43607 0.30059 0.0
C345 C 0.81161 0.45213 0.28399 0.0
C346 C 0.82603 0.47254 0.27676 0.0
H347 H 0.87686 0.46536 0.30845 0.0
O348 O 0.9121 0.47336 0.24164 0.0
O349 O 0.87942 0.49524 0.25044 0.0
O350 O 0.92248 0.51035 0.27575 0.0
O351 O 0.88889 0.50828 0.29584 0.0
C352 C 0.78797 0.44878 0.27441 0.0
C353 C 0.77927 0.46562 0.25766 0.0
H354 H 0.76878 0.50205 0.22604 0.0
H355 H 0.79661 0.53774 0.21622 0.0
H356 H 0.85297 0.4285 0.32213 0.0
H357 H 0.81105 0.42007 0.30679 0.0
H358 H 0.77639 0.43316 0.27967 0.0
H359 H 0.76118 0.46265 0.25023 0.0
Mn360 Mn 0.7816 0.5977 0.51906 0.0
Mn361 Mn 0.77266 0.54778 0.4839 0.0
C362 C 0.74852 0.5712 0.52342 0.0
C363 C 0.80207 0.6167 0.54916 0.0
C364 C 0.76352 0.60325 0.47141 0.0
O365 O 0.81382 0.59379 0.50419 0.0
O366 O 0.808 0.55573 0.48699 0.0
C367 C 0.797 0.50636 0.50969 0.0
N368 N 0.77685 0.51562 0.49862 0.0
C369 C 0.75486 0.47609 0.50384 0.0
C370 C 0.7754 0.46607 0.51522 0.0
C371 C 0.79651 0.48132 0.51825 0.0
C372 C 0.75636 0.50124 0.49584 0.0
H373 H 0.8133 0.51798 0.51192 0.0
C374 C 0.8217 0.57427 0.49403 0.0
O375 O 0.79329 0.63002 0.53263 0.0
O376 O 0.79827 0.592 0.54869 0.0
N377 N 0.73921 0.53762 0.47952 0.0
C378 C 0.72054 0.55062 0.46924 0.0
C379 C 0.69799 0.53821 0.4652 0.0
C380 C 0.69496 0.51247 0.47144 0.0
C381 C 0.71447 0.49942 0.48185 0.0
C382 C 0.73651 0.51278 0.48545 0.0
H383 H 0.72282 0.57028 0.46409 0.0
O384 O 0.749 0.59399 0.53227 0.0
O385 O 0.76765 0.56437 0.51287 0.0
O386 O 0.76612 0.61226 0.49095 0.0
O387 O 0.7673 0.57977 0.46663 0.0
C388 C 0.71277 0.47382 0.48915 0.0
C389 C 0.73287 0.46224 0.50032 0.0
H390 H 0.77512 0.44675 0.52181 0.0
H391 H 0.81241 0.47375 0.52708 0.0
H392 H 0.683 0.54843 0.4572 0.0
H393 H 0.67751 0.50299 0.46835 0.0
H394 H 0.69592 0.46303 0.48666 0.0
H395 H 0.73118 0.44273 0.50626 0.0
Mn396 Mn 0.64655 0.51225 0.75279 0.0
Mn397 Mn 0.70003 0.5322 0.77731 0.0
C398 C 0.65883 0.55444 0.74957 0.0
C399 C 0.62351 0.49454 0.72338 0.0
C400 C 0.6538 0.52459 0.80235 0.0
O401 O 0.66407 0.47856 0.75932 0.0
O402 O 0.69947 0.49441 0.77386 0.0
C403 C 0.73215 0.51815 0.74085 0.0
N404 N 0.72385 0.53603 0.7552 0.0
C405 C 0.75162 0.56797 0.74192 0.0
C406 C 0.76056 0.54987 0.72707 0.0
C407 C 0.75069 0.52489 0.72646 0.0
C408 C 0.73295 0.56021 0.75569 0.0
H409 H 0.72469 0.49891 0.74042 0.0
C410 C 0.68573 0.47569 0.76737 0.0
O411 O 0.6159 0.49409 0.7435 0.0
O412 O 0.64497 0.50437 0.72041 0.0
N413 N 0.70388 0.5684 0.78189 0.0
C414 C 0.69314 0.58362 0.79708 0.0
C415 C 0.70111 0.60914 0.79995 0.0
C416 C 0.72031 0.61862 0.78748 0.0
C417 C 0.73134 0.60251 0.7722 0.0
C418 C 0.7227 0.57721 0.77013 0.0
H419 H 0.67864 0.57635 0.807 0.0
O420 O 0.63608 0.54809 0.74638 0.0
O421 O 0.67398 0.53593 0.7541 0.0
O422 O 0.6404 0.51767 0.78563 0.0
O423 O 0.67653 0.52963 0.80128 0.0
C424 C 0.75046 0.6106 0.75883 0.0
C425 C 0.76044 0.59341 0.74355 0.0
H426 H 0.77493 0.55496 0.71601 0.0
H427 H 0.75744 0.51084 0.715 0.0
H428 H 0.69254 0.62144 0.81182 0.0
H429 H 0.72636 0.63834 0.78969 0.0
H430 H 0.75746 0.63007 0.76001 0.0
H431 H 0.77492 0.59995 0.73317 0.0
Mn432 Mn 0.98595 0.82067 0.89159 0.0
Mn433 Mn 0.95228 0.80951 0.93614 0.0
C434 C 0.96936 0.85464 0.91095 0.0
C435 C 0.0241 0.8261 0.87637 0.0
C436 C 0.93639 0.79597 0.88876 0.0
O437 O 0.99387 0.78367 0.90054 0.0
O438 O 0.97736 0.78278 0.9345 0.0
C439 C 0.98722 0.81652 0.97433 0.0
N440 N 0.96627 0.82334 0.96315 0.0
C441 C 0.95503 0.85117 0.99295 0.0
C442 C 0.97646 0.84434 0.00486 0.0
C443 C 0.99272 0.82712 0.99542 0.0
C444 C 0.95065 0.84017 0.97194 0.0
H445 H 0.99954 0.80298 0.96726 0.0
C446 C 0.99063 0.77333 0.91948 0.0
O447 O 0.00533 0.81808 0.86449 0.0
O448 O 0.02072 0.83114 0.89717 0.0
N449 N 0.92765 0.83498 0.93899 0.0
C450 C 0.90866 0.8408 0.9247 0.0
C451 C 0.89154 0.85909 0.93094 0.0
C452 C 0.89393 0.8709 0.95193 0.0
C453 C 0.9136 0.86454 0.96636 0.0
C454 C 0.9303 0.84649 0.95907 0.0
H455 H 0.90655 0.83156 0.90868 0.0
O456 O 0.97611 0.85809 0.89071 0.0
O457 O 0.97259 0.83184 0.91871 0.0
O458 O 0.95282 0.80864 0.87909 0.0
O459 O 0.9355 0.79419 0.90981 0.0
C460 C 0.91742 0.87554 0.98762 0.0
C461 C 0.93798 0.86865 0.001 0.0
H462 H 0.98071 0.85238 0.02117 0.0
H463 H 0.00933 0.82185 0.00447 0.0
H464 H 0.87646 0.86395 0.91967 0.0
H465 H 0.88062 0.88489 0.95674 0.0
H466 H 0.90475 0.88945 0.99378 0.0
H467 H 0.94077 0.87732 0.01727 0.0
Mn468 Mn 0.03303 0.25557 0.65843 0.0
Mn469 Mn 0.99028 0.24335 0.61775 0.0
C470 C 0.02698 0.214 0.64455 0.0
C471 C 0.07344 0.26584 0.67027 0.0
C472 C 0.97778 0.25464 0.66571 0.0
O473 O 0.02688 0.29127 0.64477 0.0
O474 O 0.00063 0.2798 0.61661 0.0
C475 C 0.01991 0.25092 0.57817 0.0
N476 N 0.00529 0.23568 0.59041 0.0
C477 C 0.00687 0.20149 0.56356 0.0
C478 C 0.02184 0.21687 0.55061 0.0
C479 C 0.02844 0.24167 0.55799 0.0
C480 C 0.99888 0.21177 0.5835 0.0
H481 H 0.02505 0.26998 0.58377 0.0
C482 C 0.01392 0.29648 0.62719 0.0
O483 O 0.05514 0.26959 0.68289 0.0
O484 O 0.0682 0.25714 0.65045 0.0
N485 N 0.97923 0.20839 0.61695 0.0
C486 C 0.96601 0.19543 0.63207 0.0
C487 C 0.95865 0.17 0.62759 0.0
C488 C 0.96481 0.15823 0.60757 0.0
C489 C 0.97829 0.17201 0.5922 0.0
C490 C 0.98503 0.19734 0.59753 0.0
H491 H 0.96119 0.20438 0.64746 0.0
O492 O 0.03676 0.21759 0.66429 0.0
O493 O 0.02057 0.23462 0.63399 0.0
O494 O 0.99972 0.2563 0.67356 0.0
O495 O 0.97264 0.25046 0.64513 0.0
C496 C 0.98569 0.16145 0.57199 0.0
C497 C 1e-05 0.17617 0.5577 0.0
H498 H 0.02856 0.20976 0.53509 0.0
H499 H 0.04008 0.25361 0.54814 0.0
H500 H 0.94829 0.15947 0.63955 0.0
H501 H 0.95926 0.13855 0.60425 0.0
H502 H 0.98085 0.14188 0.56747 0.0
H503 H 0.00595 0.16768 0.54241 0.0
Mn504 Mn 0.4773 0.30272 0.39967 0.0
Mn505 Mn 0.45012 0.33853 0.35953 0.0
C506 C 0.44029 0.28988 0.38446 0.0
C507 C 0.50321 0.27056 0.41194 0.0
C508 C 0.45172 0.35301 0.40829 0.0
O509 O 0.50475 0.32543 0.38911 0.0
O510 O 0.48617 0.34475 0.3596 0.0
C511 C 0.46969 0.31396 0.31961 0.0
N512 N 0.45027 0.32123 0.33147 0.0
C513 C 0.42202 0.30445 0.30338 0.0
C514 C 0.44174 0.29719 0.29071 0.0
C515 C 0.46568 0.30188 0.2989 0.0
C516 C 0.42715 0.31667 0.3238 0.0
H517 H 0.4881 0.31719 0.32596 0.0
C518 C 0.50517 0.33966 0.37189 0.0
O519 O 0.49778 0.28962 0.42469 0.0
O520 O 0.49485 0.27109 0.39146 0.0
N521 N 0.41544 0.33352 0.35755 0.0
C522 C 0.39852 0.33957 0.37266 0.0
C523 C 0.37374 0.33446 0.36764 0.0
C524 C 0.36659 0.32341 0.34712 0.0
C525 C 0.38427 0.3176 0.33173 0.0
C526 C 0.4087 0.32313 0.33763 0.0
H527 H 0.40385 0.34801 0.38851 0.0
O528 O 0.44747 0.28171 0.40394 0.0
O529 O 0.45506 0.30528 0.37443 0.0
O530 O 0.46192 0.33258 0.41506 0.0
O531 O 0.448 0.35832 0.38776 0.0
C532 C 0.37866 0.30593 0.31102 0.0
C533 C 0.39752 0.29938 0.29684 0.0
H534 H 0.43873 0.28766 0.27482 0.0
H535 H 0.48099 0.29607 0.28933 0.0
H536 H 0.36019 0.33895 0.37962 0.0
H537 H 0.3475 0.3192 0.34344 0.0
H538 H 0.35995 0.30139 0.30602 0.0
H539 H 0.393 0.28995 0.28115 0.0
Mn540 Mn 0.53335 0.76074 0.1576 0.0
Mn541 Mn 0.49174 0.74958 0.11569 0.0
C542 C 0.52744 0.71947 0.14301 0.0
C543 C 0.57343 0.77021 0.17089 0.0
C544 C 0.47777 0.75943 0.16344 0.0
O545 O 0.52792 0.79682 0.14443 0.0
O546 O 0.50179 0.78618 0.11596 0.0
C547 C 0.52269 0.75906 0.07728 0.0
N548 N 0.50773 0.7432 0.0886 0.0
C549 C 0.51052 0.71014 0.06084 0.0
C550 C 0.52587 0.72616 0.04884 0.0
C551 C 0.53202 0.7507 0.05713 0.0
C552 C 0.50171 0.71954 0.08079 0.0
H553 H 0.52748 0.77792 0.0836 0.0
C554 C 0.51491 0.8026 0.12702 0.0
O555 O 0.55467 0.77398 0.18294 0.0
O556 O 0.56886 0.7621 0.15076 0.0
N557 N 0.48086 0.71463 0.11346 0.0
C558 C 0.46707 0.701 0.1277 0.0
C559 C 0.45992 0.67576 0.12218 0.0
C560 C 0.46687 0.66488 0.10204 0.0
C561 C 0.48093 0.67935 0.08759 0.0
C562 C 0.48739 0.70445 0.09391 0.0
H563 H 0.46164 0.70927 0.14319 0.0
O564 O 0.53653 0.72267 0.16304 0.0
O565 O 0.52159 0.74031 0.13248 0.0
O566 O 0.4995 0.76143 0.17175 0.0
O567 O 0.4732 0.75538 0.14276 0.0
C568 C 0.48917 0.66967 0.06735 0.0
C569 C 0.504 0.68504 0.05402 0.0
H570 H 0.5332 0.71975 0.03335 0.0
H571 H 0.54394 0.76313 0.04801 0.0
H572 H 0.44911 0.6647 0.13345 0.0
H573 H 0.4615 0.64533 0.09794 0.0
H574 H 0.48456 0.65028 0.06207 0.0
H575 H 0.51056 0.67723 0.03868 0.0
Mn576 Mn 0.91509 0.99658 0.80288 0.0
Mn577 Mn 0.87192 0.9851 0.83987 0.0
C578 C 0.90379 0.95503 0.81125 0.0
C579 C 0.92585 0.00247 0.76618 0.0
C580 C 0.92312 0.00352 0.85297 0.0
O581 O 0.89746 0.03072 0.80438 0.0
O582 O 0.86757 0.0203 0.82773 0.0
C583 C 0.82848 0.98462 0.80918 0.0
N584 N 0.84319 0.9724 0.82442 0.0
C585 C 0.81882 0.93382 0.82126 0.0
C586 C 0.80333 0.94607 0.80563 0.0
C587 C 0.80821 0.97156 0.79955 0.0
C588 C 0.8387 0.94783 0.83033 0.0
H589 H 0.83225 0.00415 0.80435 0.0
C590 C 0.87832 0.03606 0.8149 0.0
O591 O 0.94 0.01043 0.78264 0.0
O592 O 0.90511 0.99239 0.7711 0.0
N593 N 0.87438 0.95135 0.8523 0.0
C594 C 0.8917 0.94193 0.86682 0.0
C595 C 0.88968 0.91654 0.87436 0.0
C596 C 0.86991 0.90111 0.86689 0.0
C597 C 0.85229 0.91122 0.85197 0.0
C598 C 0.85513 0.93674 0.8452 0.0
H599 H 0.90696 0.9537 0.8726 0.0
O600 O 0.92512 0.95965 0.80348 0.0
O601 O 0.89062 0.97503 0.81461 0.0
O602 O 0.93151 0.00317 0.83349 0.0
O603 O 0.90111 0.99752 0.8571 0.0
C604 C 0.83219 0.89689 0.84332 0.0
C605 C 0.81551 0.90816 0.82792 0.0
H606 H 0.78775 0.93603 0.79809 0.0
H607 H 0.79642 0.98109 0.78741 0.0
H608 H 0.90335 0.90886 0.88586 0.0
H609 H 0.86851 0.88148 0.87264 0.0
H610 H 0.82952 0.87711 0.84823 0.0
H611 H 0.80029 0.89685 0.8212 0.0
Mn612 Mn 0.77124 0.13145 0.50436 0.0
Mn613 Mn 0.76245 0.08542 0.46544 0.0
C614 C 0.73308 0.11388 0.49752 0.0
C615 C 0.77871 0.14536 0.54066 0.0
C616 C 0.7689 0.14155 0.45421 0.0
O617 O 0.80534 0.11793 0.50112 0.0
O618 O 0.79796 0.08814 0.47427 0.0
C619 C 0.77649 0.04013 0.49256 0.0
N620 N 0.75959 0.05278 0.47965 0.0
C621 C 0.7303 0.01859 0.48355 0.0
C622 C 0.74746 0.00515 0.49674 0.0
C623 C 0.77063 0.01599 0.50127 0.0
C624 C 0.73727 0.04245 0.47507 0.0
H625 H 0.79429 0.0484 0.49623 0.0
C626 C 0.8123 0.10022 0.48817 0.0
O627 O 0.78264 0.16022 0.52387 0.0
O628 O 0.77181 0.12195 0.5363 0.0
N629 N 0.72889 0.08054 0.45632 0.0
C630 C 0.71362 0.09706 0.44532 0.0
C631 C 0.68933 0.08971 0.44052 0.0
C632 C 0.68099 0.0654 0.44694 0.0
C633 C 0.69695 0.04879 0.45842 0.0
C634 C 0.72101 0.05714 0.46271 0.0
H635 H 0.71977 0.11593 0.44073 0.0
O636 O 0.73545 0.13698 0.50547 0.0
O637 O 0.75312 0.10223 0.49294 0.0
O638 O 0.77245 0.14917 0.47417 0.0
O639 O 0.76439 0.11821 0.44892 0.0
C640 C 0.68971 0.02462 0.4664 0.0
C641 C 0.70638 0.00952 0.47893 0.0
H642 H 0.74294 0.98663 0.50369 0.0
H643 H 0.78393 0.0058 0.51155 0.0
H644 H 0.67697 0.10291 0.4322 0.0
H645 H 0.66216 0.0599 0.44337 0.0
H646 H 0.67122 0.01766 0.46334 0.0
H647 H 0.70048 0.99115 0.48528 0.0
Mn648 Mn 0.65592 0.02434 0.30797 0.0
Mn649 Mn 0.69747 0.03437 0.34965 0.0
C650 C 0.6649 0.06538 0.31981 0.0
C651 C 0.64662 0.02003 0.27024 0.0
C652 C 0.6465 0.0138 0.3566 0.0
O653 O 0.67475 0.99116 0.30905 0.0
O654 O 0.70343 0.00025 0.33595 0.0
C655 C 0.74242 0.0377 0.32412 0.0
N656 N 0.72658 0.04866 0.33813 0.0
C657 C 0.75012 0.08783 0.33972 0.0
C658 C 0.76675 0.07691 0.32541 0.0
C659 C 0.76287 0.05173 0.31758 0.0
C660 C 0.73024 0.07279 0.34592 0.0
H661 H 0.73942 0.01843 0.3179 0.0
C662 C 0.69376 0.98554 0.32085 0.0
O663 O 0.63229 0.01062 0.28493 0.0
O664 O 0.6666 0.03109 0.27752 0.0
N665 N 0.69352 0.06714 0.36346 0.0
C666 C 0.67471 0.07561 0.37557 0.0
C667 C 0.67515 0.10088 0.38372 0.0
C668 C 0.69499 0.11712 0.37949 0.0
C669 C 0.71409 0.10801 0.36692 0.0
C670 C 0.7127 0.08262 0.35928 0.0
H671 H 0.65933 0.06327 0.37875 0.0
O672 O 0.64404 0.06028 0.30979 0.0
O673 O 0.67925 0.04598 0.32315 0.0
O674 O 0.6389 0.01496 0.33638 0.0
O675 O 0.6681 0.02015 0.36326 0.0
C676 C 0.73411 0.12336 0.36112 0.0
C677 C 0.75214 0.11327 0.34759 0.0
H678 H 0.7824 0.08777 0.32012 0.0
H679 H 0.77555 0.04322 0.30643 0.0
H680 H 0.66017 0.10788 0.39313 0.0
H681 H 0.6952 0.13665 0.38572 0.0
H682 H 0.7356 0.1431 0.36663 0.0
H683 H 0.76726 0.12539 0.343 0.0
Mn684 Mn 0.80667 0.93864 0.00442 0.0
Mn685 Mn 0.78339 0.98672 0.9728 0.0
C686 C 0.82925 0.97524 0.99805 0.0
C687 C 0.81276 0.91843 0.0386 0.0
C688 C 0.79968 0.93618 0.95384 0.0
O689 O 0.7702 0.93139 0.00427 0.0
O690 O 0.75664 0.96551 0.98426 0.0
C691 C 0.75972 0.01638 0.00783 0.0
N692 N 0.77603 0.01517 0.99138 0.0
C693 C 0.78791 0.0593 0.99717 0.0
C694 C 0.77114 0.06108 0.01409 0.0
C695 C 0.75701 0.03952 0.01946 0.0
C696 C 0.7897 0.03579 0.98607 0.0
H697 H 0.74893 -0.00019 0.01207 0.0
C698 C 0.75321 0.94489 0.9953 0.0
O699 O 0.81403 0.9059 0.02003 0.0
O700 O 0.80777 0.9427 0.03731 0.0
N701 N 0.80782 0.0086 0.96093 0.0
C702 C 0.82401 0.00326 0.945 0.0
C703 C 0.83998 0.02261 0.93809 0.0
C704 C 0.83907 0.04723 0.94758 0.0
C705 C 0.8221 0.05231 0.96383 0.0
C706 C 0.80648 0.03235 0.96987 0.0
H707 H 0.82482 0.98434 0.9377 0.0
O708 O 0.84021 0.95403 0.00346 0.0
O709 O 0.80573 0.97411 0.99618 0.0
O710 O 0.80755 0.92658 0.97216 0.0
O711 O 0.79054 0.95857 0.95224 0.0
C712 C 0.82036 0.07626 0.97454 0.0
C713 C 0.80329 0.07975 0.99121 0.0
H714 H 0.76911 0.07884 0.02321 0.0
H715 H 0.74412 0.04071 0.03258 0.0
H716 H 0.85304 0.01853 0.92555 0.0
H717 H 0.85159 0.06202 0.94238 0.0
H718 H 0.83226 0.09203 0.97028 0.0
H719 H 0.80235 0.09815 0.99953 0.0
Mn720 Mn 0.27057 0.62757 0.00346 0.0
Mn721 Mn 0.26111 0.58171 0.96447 0.0
C722 C 0.23179 0.61262 0.99487 0.0
C723 C 0.27719 0.64048 0.04022 0.0
C724 C 0.27173 0.6371 0.95328 0.0
O725 O 0.30399 0.61191 0.00153 0.0
O726 O 0.29625 0.58219 0.9747 0.0
C727 C 0.27062 0.53606 0.99258 0.0
N728 N 0.2553 0.54966 0.97883 0.0
C729 C 0.22347 0.51795 0.98196 0.0
C730 C 0.23898 0.50354 0.99603 0.0
C731 C 0.26265 0.51265 0.00137 0.0
C732 C 0.23252 0.541 0.97349 0.0
H733 H 0.28878 0.54303 0.99687 0.0
C734 C 0.31062 0.5938 0.98886 0.0
O735 O 0.28289 0.65532 0.02386 0.0
O736 O 0.26882 0.61778 0.03518 0.0
N737 N 0.22782 0.57913 0.95384 0.0
C738 C 0.21445 0.59634 0.94163 0.0
C739 C 0.19004 0.59063 0.93565 0.0
C740 C 0.17961 0.56727 0.94219 0.0
C741 C 0.19367 0.54992 0.95486 0.0
C742 C 0.21798 0.55658 0.96023 0.0
H743 H 0.22222 0.61448 0.93686 0.0
O744 O 0.23508 0.6355 0.00308 0.0
O745 O 0.25135 0.59969 0.9912 0.0
O746 O 0.2744 0.64494 0.9733 0.0
O747 O 0.2662 0.61397 0.948 0.0
C748 C 0.18432 0.5266 0.96288 0.0
C749 C 0.19921 0.51062 0.97641 0.0
H750 H 0.23282 0.48558 0.00301 0.0
H751 H 0.27468 0.5017 0.01232 0.0
H752 H 0.17918 0.60435 0.92627 0.0
H753 H 0.1607 0.56305 0.93771 0.0
H754 H 0.16559 0.52096 0.95902 0.0
H755 H 0.19171 0.49292 0.98274 0.0
Mn756 Mn 0.1505 0.5215 0.80383 0.0
Mn757 Mn 0.19538 0.53072 0.84285 0.0
C758 C 0.16337 0.56236 0.8134 0.0
C759 C 0.1374 0.51684 0.76685 0.0
C760 C 0.14421 0.51363 0.85346 0.0
O761 O 0.16746 0.48699 0.80498 0.0
O762 O 0.19836 0.49576 0.82997 0.0
C763 C 0.23843 0.53021 0.81469 0.0
N764 N 0.22424 0.54271 0.82923 0.0
C765 C 0.2498 0.58043 0.8283 0.0
C766 C 0.26474 0.56792 0.81338 0.0
C767 C 0.25902 0.5427 0.80656 0.0
C768 C 0.22968 0.56691 0.83604 0.0
H769 H 0.234 0.5109 0.80927 0.0
C770 C 0.18688 0.48084 0.81608 0.0
O771 O 0.1241 0.50879 0.78286 0.0
O772 O 0.15874 0.52622 0.77233 0.0
N773 N 0.19411 0.56429 0.85577 0.0
C774 C 0.1768 0.57433 0.86882 0.0
C775 C 0.17927 0.59977 0.87635 0.0
C776 C 0.19954 0.61457 0.87053 0.0
C777 C 0.21707 0.60386 0.85702 0.0
C778 C 0.2137 0.57836 0.85007 0.0
H779 H 0.16112 0.56309 0.87326 0.0
O780 O 0.14147 0.55861 0.80505 0.0
O781 O 0.17623 0.54193 0.81682 0.0
O782 O 0.13526 0.51457 0.83365 0.0
O783 O 0.16647 0.51891 0.85863 0.0
C784 C 0.23742 0.61769 0.84972 0.0
C785 C 0.25377 0.60599 0.83536 0.0
H786 H 0.28049 0.57757 0.80689 0.0
H787 H 0.27039 0.53297 0.79496 0.0
H788 H 0.16548 0.60801 0.88651 0.0
H789 H 0.2013 0.63424 0.87628 0.0
H790 H 0.24048 0.63745 0.8548 0.0
H791 H 0.26914 0.61694 0.82959 0.0
Mn792 Mn 0.31565 0.45814 0.50917 0.0
Mn793 Mn 0.28652 0.50605 0.4822 0.0
C794 C 0.33688 0.49437 0.49887 0.0
C795 C 0.32641 0.43761 0.54233 0.0
C796 C 0.29638 0.45389 0.46182 0.0
O797 O 0.27966 0.45122 0.51412 0.0
O798 O 0.26342 0.48863 0.50166 0.0
C799 C 0.27568 0.54126 0.5191 0.0
N800 N 0.28659 0.53682 0.49953 0.0
C801 C 0.3022 0.58008 0.49863 0.0
C802 C 0.29104 0.58515 0.51872 0.0
C803 C 0.27774 0.56565 0.529 0.0
C804 C 0.29932 0.55548 0.48943 0.0
H805 H 0.26555 0.52627 0.5271 0.0
C806 C 0.26211 0.46702 0.51168 0.0
O807 O 0.32493 0.42529 0.52357 0.0
O808 O 0.32206 0.46207 0.5418 0.0
N809 N 0.30788 0.52423 0.46323 0.0
C810 C 0.31894 0.51568 0.44476 0.0
C811 C 0.33366 0.53259 0.43292 0.0
C812 C 0.33685 0.55808 0.44017 0.0
C813 C 0.32525 0.56646 0.4592 0.0
C814 C 0.3106 0.54882 0.4702 0.0
H815 H 0.31661 0.4961 0.43914 0.0
O816 O 0.34854 0.47327 0.50328 0.0
O817 O 0.31355 0.49342 0.50088 0.0
O818 O 0.3111 0.44615 0.47715 0.0
O819 O 0.28536 0.47535 0.46263 0.0
C820 C 0.32809 0.59144 0.46797 0.0
C821 C 0.31658 0.59825 0.48766 0.0
H822 H 0.29278 0.60387 0.52652 0.0
H823 H 0.26918 0.56938 0.54457 0.0
H824 H 0.34261 0.52595 0.41829 0.0
H825 H 0.34841 0.57098 0.43112 0.0
H826 H 0.33937 0.60548 0.45986 0.0
H827 H 0.31918 0.61741 0.49441 0.0
Mn828 Mn 0.41874 0.49861 0.30146 0.0
Mn829 Mn 0.37622 0.48847 0.33914 0.0
C830 C 0.40534 0.45729 0.30879 0.0
C831 C 0.42877 0.50608 0.26486 0.0
C832 C 0.42871 0.50368 0.35109 0.0
O833 O 0.40333 0.53399 0.30521 0.0
O834 O 0.37148 0.52307 0.32611 0.0
C835 C 0.33208 0.48691 0.30925 0.0
N836 N 0.34686 0.4755 0.32492 0.0
C837 C 0.32118 0.43781 0.32498 0.0
C838 C 0.30549 0.44933 0.30909 0.0
C839 C 0.31105 0.47392 0.3011 0.0
C840 C 0.34194 0.45163 0.33237 0.0
H841 H 0.33642 0.50566 0.3029 0.0
C842 C 0.38324 0.53913 0.31437 0.0
O843 O 0.44375 0.51209 0.28132 0.0
O844 O 0.40755 0.49712 0.26977 0.0
N845 N 0.37891 0.45519 0.35243 0.0
C846 C 0.39665 0.44611 0.3667 0.0
C847 C 0.39406 0.42159 0.37597 0.0
C848 C 0.37321 0.40673 0.37058 0.0
C849 C 0.35525 0.41638 0.35577 0.0
C850 C 0.35877 0.441 0.34713 0.0
H851 H 0.41259 0.45754 0.37116 0.0
O852 O 0.42628 0.46091 0.29996 0.0
O853 O 0.39365 0.47793 0.31329 0.0
O854 O 0.43669 0.50179 0.33159 0.0
O855 O 0.40619 0.50099 0.35546 0.0
C856 C 0.33409 0.40246 0.34912 0.0
C857 C 0.31717 0.41307 0.33357 0.0
H858 H 0.28926 0.43938 0.30276 0.0
H859 H 0.29917 0.48283 0.28867 0.0
H860 H 0.408 0.41422 0.38736 0.0
H861 H 0.37115 0.38799 0.37796 0.0
H862 H 0.33084 0.38341 0.35561 0.0
H863 H 0.30122 0.40197 0.32825 0.0
C864 C 0.02322 0.0332 0.99076 0.0
N865 N 0.99325 0.05536 0.04981 0.0
C866 C 0.99238 0.07872 0.03976 0.0
C867 C 0.97093 0.09287 0.03956 0.0
C868 C 0.95031 0.08235 0.04934 0.0
C869 C 0.95338 0.06071 0.06311 0.0
C870 C 0.97513 0.0472 0.06284 0.0
Zn871 Zn 0.01764 0.0293 0.03948 0.0
C872 C 0.99545 0.98089 0.02448 0.0
N873 N 0.07009 0.97733 0.01645 0.0
C874 C 0.06761 0.96863 0.99514 0.0
C875 C 0.09115 0.97413 0.02865 0.0
C876 C 0.1119 0.96577 0.01841 0.0
C877 C 0.11098 0.9616 0.99529 0.0
C878 C 0.0881 0.9606 0.98408 0.0
Zn879 Zn 0.04562 0.00265 0.0279 0.0
O880 O 0.01153 0.04227 0.0067 0.0
C881 C 0.06814 0.05095 0.04285 0.0
O882 O 0.04011 0.01726 0.995 0.0
H883 H 0.09273 0.98104 0.04559 0.0
H884 H 0.00728 0.08505 0.02982 0.0
H885 H 0.05046 0.97075 0.98591 0.0
O886 O 0.0458 0.05593 0.04517 0.0
O887 O 0.07418 0.02927 0.03535 0.0
H888 H 0.97635 0.02866 0.07083 0.0
O889 O 0.05039 0.98834 0.06017 0.0
O890 O 0.02389 0.01559 0.07266 0.0
O891 O 0.01775 0.97656 0.02133 0.0
O892 O 0.98911 0.00207 0.03285 0.0
C893 C 0.03941 0.99795 0.07635 0.0
H894 H 0.96948 0.1098 0.02922 0.0
H895 H 0.93813 0.05192 0.07117 0.0
H896 H 0.12908 0.96667 0.02786 0.0
H897 H 0.08659 0.95707 0.96634 0.0
C898 C 0.33024 0.76755 0.25905 0.0
N899 N 0.26411 0.73688 0.23478 0.0
C900 C 0.26694 0.75261 0.21705 0.0
C901 C 0.26525 0.74286 0.19549 0.0
C902 C 0.26123 0.71649 0.19201 0.0
C903 C 0.25657 0.701 0.21051 0.0
C904 C 0.258 0.71169 0.23187 0.0
Zn905 Zn 0.27672 0.7505 0.26507 0.0
C906 C 0.30441 0.70996 0.29063 0.0
N907 N 0.30928 0.7795 0.32525 0.0
C908 C 0.31886 0.80362 0.32687 0.0
C909 C 0.3033 0.76612 0.34365 0.0
C910 C 0.30484 0.77773 0.36453 0.0
C911 C 0.31266 0.80339 0.36652 0.0
C912 C 0.32079 0.81598 0.34749 0.0
Zn913 Zn 0.29647 0.7655 0.29536 0.0
O914 O 0.31055 0.75906 0.24977 0.0
C915 C 0.26933 0.80643 0.27026 0.0
O916 O 0.33048 0.77299 0.2797 0.0
H917 H 0.29546 0.74707 0.34197 0.0
H918 H 0.27223 0.77245 0.21956 0.0
H919 H 0.32342 0.81393 0.312 0.0
O920 O 0.26303 0.78783 0.25756 0.0
O921 O 0.28371 0.80236 0.28685 0.0
H922 H 0.25591 0.69943 0.24614 0.0
O923 O 0.26185 0.75779 0.31053 0.0
O924 O 0.24315 0.74218 0.28057 0.0
O925 O 0.30952 0.72873 0.30349 0.0
O926 O 0.29056 0.7134 0.27351 0.0
C927 C 0.24259 0.74852 0.30099 0.0
H928 H 0.26829 0.75572 0.18175 0.0
H929 H 0.25345 0.68055 0.20872 0.0
H930 H 0.29817 0.7673 0.37862 0.0
H931 H 0.32739 0.83561 0.34834 0.0
C932 C 0.51842 0.01855 0.57032 0.0
N933 N 0.55061 0.95177 0.5462 0.0
C934 C 0.55829 0.94842 0.56774 0.0
C935 C 0.55859 0.92386 0.57701 0.0
C936 C 0.55121 0.9026 0.56388 0.0
C937 C 0.54547 0.90652 0.54124 0.0
C938 C 0.54494 0.93134 0.5328 0.0
Zn939 Zn 0.54031 0.987 0.5347 0.0
C940 C 0.48579 0.98351 0.52248 0.0
N941 N 0.51223 0.057 0.5097 0.0
C942 C 0.52131 0.07812 0.52056 0.0
C943 C 0.50057 0.05885 0.48945 0.0
C944 C 0.49924 0.08249 0.47864 0.0
C945 C 0.51016 0.10428 0.48876 0.0
C946 C 0.52056 0.10201 0.51033 0.0
Zn947 Zn 0.5227 0.02232 0.52172 0.0
O948 O 0.53015 0.99802 0.56715 0.0
C949 C 0.57725 0.02615 0.53378 0.0
O950 O 0.51343 0.03319 0.55399 0.0
H951 H 0.49357 0.04176 0.48111 0.0
H952 H 0.56263 0.96489 0.57816 0.0
H953 H 0.53071 0.07617 0.53657 0.0
O954 O 0.57578 0.00292 0.54006 0.0
O955 O 0.55819 0.03739 0.52645 0.0
H956 H 0.53839 0.93425 0.51587 0.0
O957 O 0.53178 0.01113 0.48926 0.0
O958 O 0.55039 0.97706 0.50232 0.0
O959 O 0.48761 0.00701 0.51726 0.0
O960 O 0.50467 0.97135 0.52904 0.0
C961 C 0.54436 0.99126 0.48598 0.0
H962 H 0.56309 0.92186 0.59458 0.0
H963 H 0.54032 0.89071 0.5303 0.0
H964 H 0.49056 0.08348 0.46221 0.0
H965 H 0.52943 0.11815 0.51873 0.0
C966 C 0.30639 0.23045 0.74137 0.0
N967 N 0.27037 0.24656 0.79913 0.0
C968 C 0.26265 0.2219 0.79598 0.0
C969 C 0.26293 0.20483 0.81378 0.0
C970 C 0.2707 0.21345 0.83505 0.0
C971 C 0.27553 0.23978 0.83816 0.0
C972 C 0.2756 0.25601 0.81984 0.0
Zn973 Zn 0.28223 0.26676 0.77274 0.0
C974 C 0.33528 0.28079 0.78231 0.0
N975 N 0.3121 0.30524 0.7177 0.0
C976 C 0.30688 0.29605 0.69689 0.0
C977 C 0.32427 0.32787 0.72097 0.0
C978 C 0.33112 0.34257 0.70281 0.0
C979 C 0.32541 0.33386 0.68111 0.0
C980 C 0.31341 0.31007 0.6783 0.0
Zn981 Zn 0.29928 0.28555 0.74415 0.0
O982 O 0.29378 0.23231 0.75849 0.0
C983 C 0.24529 0.27098 0.73624 0.0
O984 O 0.31233 0.25056 0.73099 0.0
H985 H 0.32821 0.33481 0.73768 0.0
H986 H 0.25832 0.21483 0.77939 0.0
H987 H 0.29704 0.27809 0.69469 0.0
O988 O 0.2482 0.26314 0.75611 0.0
O989 O 0.26361 0.28044 0.72652 0.0
H990 H 0.28179 0.27564 0.822 0.0
O991 O 0.2861 0.32042 0.75753 0.0
O992 O 0.27079 0.30136 0.7864 0.0
O993 O 0.33425 0.29004 0.7627 0.0
O994 O 0.31627 0.27048 0.78978 0.0
C995 C 0.2746 0.32166 0.77543 0.0
H996 H 0.25894 0.18478 0.81046 0.0
H997 H 0.28071 0.24754 0.85438 0.0
H998 H 0.34057 0.36066 0.70574 0.0
H999 H 0.30829 0.30277 0.66191 0.0
C1000 C 0.0716 0.99457 0.53801 0.0
N1001 N 0.04346 0.03707 0.48488 0.0
C1002 C 0.06531 0.04962 0.4854 0.0
C1003 C 0.07695 0.05472 0.46564 0.0
C1004 C 0.06598 0.04672 0.44527 0.0
C1005 C 0.04253 0.03572 0.44524 0.0
C1006 C 0.03156 0.03107 0.46532 0.0
Zn1007 Zn 0.03085 0.02064 0.51286 0.0
C1008 C 0.01892 0.96412 0.50249 0.0
N1009 N 0.00609 0.98221 0.57049 0.0
C1010 C 0.02166 0.98443 0.58857 0.0
C1011 C 0.98215 0.97614 0.5729 0.0
C1012 C 0.97268 0.97451 0.59413 0.0
C1013 C 0.98808 0.97892 0.613 0.0
C1014 C 0.01309 0.98246 0.60995 0.0
Zn1015 Zn 0.0181 0.99774 0.54139 0.0
O1016 O 0.06675 0.00994 0.52217 0.0
C1017 C 0.0307 0.05403 0.55183 0.0
O1018 O 0.05436 0.98576 0.54927 0.0
H1019 H 0.96994 0.97454 0.55844 0.0
H1020 H 0.07444 0.05419 0.50117 0.0
H1021 H 0.04046 0.9899 0.58668 0.0
O1022 O 0.03535 0.05551 0.53132 0.0
O1023 O 0.0239 0.0326 0.5596 0.0
H1024 H 0.0143 0.0209 0.46528 0.0
O1025 O 0.98192 0.01036 0.53249 0.0
O1026 O 0.99505 0.03126 0.50364 0.0
O1027 O 0.01288 0.96282 0.52271 0.0
O1028 O 0.02633 0.98542 0.4949 0.0
C1029 C 0.97759 0.02439 0.51555 0.0
H1030 H 0.09484 0.06368 0.46639 0.0
H1031 H 0.03344 0.02894 0.43004 0.0
H1032 H 0.95324 0.97168 0.59562 0.0
H1033 H 0.02581 0.98524 0.62396 0.0
C1034 C 0.27033 0.78173 0.73534 0.0
N1035 N 0.32478 0.73651 0.76648 0.0
C1036 C 0.32415 0.72347 0.74686 0.0
C1037 C 0.3452 0.71211 0.73921 0.0
C1038 C 0.36718 0.71387 0.75194 0.0
C1039 C 0.367 0.72659 0.77258 0.0
C1040 C 0.34557 0.73795 0.77948 0.0
Zn1041 Zn 0.29444 0.75616 0.77534 0.0
C1042 C 0.30593 0.81081 0.78431 0.0
N1043 N 0.23063 0.79755 0.79191 0.0
C1044 C 0.2093 0.79251 0.78041 0.0
C1045 C 0.23117 0.81237 0.81056 0.0
C1046 C 0.20952 0.82171 0.81892 0.0
C1047 C 0.18705 0.81559 0.80807 0.0
C1048 C 0.18726 0.8013 0.78823 0.0
Zn1049 Zn 0.26125 0.77842 0.78298 0.0
O1050 O 0.28841 0.76819 0.74179 0.0
C1051 C 0.24991 0.72368 0.77403 0.0
O1052 O 0.25465 0.78826 0.74923 0.0
H1053 H 0.24832 0.81609 0.81949 0.0
H1054 H 0.30744 0.72252 0.73678 0.0
H1055 H 0.20923 0.78056 0.7657 0.0
O1056 O 0.27252 0.72289 0.77022 0.0
O1057 O 0.24041 0.74489 0.77912 0.0
H1058 H 0.3457 0.74843 0.79501 0.0
O1059 O 0.2679 0.76775 0.81666 0.0
O1060 O 0.29992 0.74491 0.80889 0.0
O1061 O 0.283 0.81196 0.78657 0.0
O1062 O 0.3158 0.78933 0.78071 0.0
C1063 C 0.28488 0.75265 0.82291 0.0
H1064 H 0.34437 0.70292 0.72305 0.0
H1065 H 0.3833 0.7281 0.78321 0.0
H1066 H 0.21035 0.83303 0.83404 0.0
H1067 H 0.17049 0.79574 0.77939 0.0
C1068 C 0.53238 0.97099 0.04775 0.0
N1069 N 0.56508 0.03891 0.06998 0.0
C1070 C 0.54998 0.0374 0.08735 0.0
C1071 C 0.55934 0.03863 0.10909 0.0
C1072 C 0.58459 0.04072 0.11315 0.0
C1073 C 0.59965 0.04436 0.09503 0.0
C1074 C 0.58941 0.04344 0.07339 0.0
Zn1075 Zn 0.55089 0.02574 0.04015 0.0
C1076 C 0.5874 0.99435 0.0163 0.0
N1077 N 0.52081 0.99205 0.98081 0.0
C1078 C 0.49778 0.98216 0.98002 0.0
C1079 C 0.53259 0.99754 0.96192 0.0
C1080 C 0.52046 0.99525 0.94126 0.0
C1081 C 0.49599 0.98709 0.94 0.0
C1082 C 0.48497 0.97944 0.95965 0.0
Zn1083 Zn 0.5359 0.00567 0.00997 0.0
O1084 O 0.54123 0.99111 0.05705 0.0
C1085 C 0.49887 0.03526 0.03418 0.0
O1086 O 0.5278 0.97111 0.02688 0.0
H1087 H 0.55085 0.00553 0.96293 0.0
H1088 H 0.53083 0.03316 0.08456 0.0
H1089 H 0.48877 0.97794 0.99527 0.0
O1090 O 0.51684 0.04224 0.04661 0.0
O1091 O 0.50202 0.02009 0.01807 0.0
H1092 H 0.60116 0.04443 0.0594 0.0
O1093 O 0.54404 0.04083 0.99337 0.0
O1094 O 0.56017 0.06016 0.02289 0.0
O1095 O 0.56968 0.99068 0.0025 0.0
O1096 O 0.58464 0.00863 0.03316 0.0
C1097 C 0.55393 0.06065 0.00228 0.0
H1098 H 0.54699 0.0364 0.12258 0.0
H1099 H 0.61925 0.04605 0.09744 0.0
H1100 H 0.52969 0.00161 0.92666 0.0
H1101 H 0.46629 0.97256 0.95941 0.0
C1102 C 0.23123 0.22992 0.26774 0.0
N1103 N 0.28523 0.25164 0.2249 0.0
C1104 C 0.28906 0.22589 0.22504 0.0
C1105 C 0.29287 0.2128 0.2053 0.0
C1106 C 0.2931 0.22634 0.18516 0.0
C1107 C 0.29109 0.25325 0.18581 0.0
C1108 C 0.28694 0.26555 0.20595 0.0
Zn1109 Zn 0.27116 0.26723 0.25264 0.0
C1110 C 0.22617 0.29622 0.242 0.0
N1111 N 0.23825 0.29351 0.31105 0.0
C1112 C 0.24154 0.28231 0.33134 0.0
C1113 C 0.23235 0.31876 0.30921 0.0
C1114 C 0.23192 0.33431 0.32798 0.0
C1115 C 0.23797 0.32393 0.3489 0.0
C1116 C 0.2416 0.29733 0.35064 0.0
Zn1117 Zn 0.25165 0.2771 0.28314 0.0
O1118 O 0.24775 0.23513 0.25422 0.0
C1119 C 0.29635 0.24806 0.29393 0.0
O1120 O 0.22767 0.24515 0.28382 0.0
H1121 H 0.23053 0.32766 0.29307 0.0
H1122 H 0.28753 0.21516 0.24027 0.0
H1123 H 0.24629 0.26226 0.33252 0.0
O1124 O 0.29824 0.24892 0.27297 0.0
O1125 O 0.27774 0.25758 0.30257 0.0
H1126 H 0.28378 0.28601 0.20623 0.0
O1127 O 0.27642 0.30839 0.28252 0.0
O1128 O 0.29435 0.29944 0.2515 0.0
O1129 O 0.22555 0.2962 0.26303 0.0
O1130 O 0.24398 0.28573 0.23274 0.0
C1131 C 0.29253 0.31352 0.26858 0.0
H1132 H 0.29401 0.19208 0.20578 0.0
H1133 H 0.29172 0.26461 0.17081 0.0
H1134 H 0.22933 0.35474 0.32579 0.0
H1135 H 0.24605 0.28855 0.36655 0.0
C1136 C 0.57477 0.50004 0.03612 0.0
N1137 N 0.5451 0.54193 0.98309 0.0
C1138 C 0.56662 0.5551 0.98353 0.0
C1139 C 0.57799 0.5607 0.96373 0.0
C1140 C 0.56712 0.55253 0.94337 0.0
C1141 C 0.54399 0.54076 0.94343 0.0
C1142 C 0.53327 0.53565 0.96356 0.0
Zn1143 Zn 0.53311 0.52546 0.01133 0.0
C1144 C 0.52182 0.46883 0.00188 0.0
N1145 N 0.51026 0.48742 0.06981 0.0
C1146 C 0.52567 0.4904 0.0879 0.0
C1147 C 0.48656 0.48032 0.07214 0.0
C1148 C 0.47703 0.47849 0.09333 0.0
C1149 C 0.49215 0.48372 0.11221 0.0
C1150 C 0.51706 0.48824 0.10926 0.0
Zn1151 Zn 0.52169 0.503 0.04061 0.0
O1152 O 0.56938 0.51494 0.02006 0.0
C1153 C 0.5335 0.5595 0.05016 0.0
O1154 O 0.55798 0.4917 0.04814 0.0
H1155 H 0.4745 0.47806 0.05764 0.0
H1156 H 0.57572 0.55988 0.99927 0.0
H1157 H 0.54429 0.49658 0.08599 0.0
O1158 O 0.53768 0.56054 0.02954 0.0
O1159 O 0.5272 0.53817 0.05846 0.0
H1160 H 0.51626 0.52503 0.9636 0.0
O1161 O 0.48544 0.51467 0.03218 0.0
O1162 O 0.49687 0.53565 0.00273 0.0
O1163 O 0.51671 0.46788 0.02235 0.0
O1164 O 0.52847 0.49008 0.99362 0.0
C1165 C 0.48009 0.52837 0.01528 0.0
H1166 H 0.59561 0.57024 0.96444 0.0
H1167 H 0.53499 0.53384 0.92824 0.0
H1168 H 0.4577 0.47488 0.09474 0.0
H1169 H 0.5296 0.49165 0.1233 0.0
C1170 C 0.75132 0.29311 0.24065 0.0
N1171 N 0.80494 0.24645 0.27043 0.0
C1172 C 0.80154 0.22846 0.25418 0.0
C1173 C 0.82126 0.21468 0.24659 0.0
C1174 C 0.84491 0.21985 0.25538 0.0
C1175 C 0.84774 0.23808 0.27258 0.0
C1176 C 0.82742 0.25103 0.28 0.0
Zn1177 Zn 0.77595 0.26775 0.27978 0.0
C1178 C 0.78958 0.32195 0.28795 0.0
N1179 N 0.71411 0.31174 0.2987 0.0
C1180 C 0.69457 0.31338 0.28419 0.0
C1181 C 0.71303 0.32126 0.31971 0.0
C1182 C 0.6913 0.33142 0.32722 0.0
C1183 C 0.67048 0.33247 0.31283 0.0
C1184 C 0.67279 0.32415 0.29076 0.0
Zn1185 Zn 0.74402 0.29107 0.28936 0.0
O1186 O 0.76824 0.27756 0.24603 0.0
C1187 C 0.73072 0.23669 0.28089 0.0
O1188 O 0.73781 0.30174 0.25558 0.0
H1189 H 0.72871 0.32004 0.33106 0.0
H1190 H 0.78355 0.22508 0.24676 0.0
H1191 H 0.69545 0.30552 0.26763 0.0
O1192 O 0.75324 0.23563 0.27701 0.0
O1193 O 0.72133 0.2581 0.28568 0.0
H1194 H 0.82973 0.26526 0.29303 0.0
O1195 O 0.75123 0.27932 0.32294 0.0
O1196 O 0.78349 0.25797 0.31334 0.0
O1197 O 0.76724 0.32387 0.29267 0.0
O1198 O 0.79811 0.3003 0.28277 0.0
C1199 C 0.76905 0.26481 0.32819 0.0
H1200 H 0.81796 0.20044 0.23369 0.0
H1201 H 0.86554 0.24308 0.27974 0.0
H1202 H 0.6907 0.33724 0.34444 0.0
H1203 H 0.65775 0.3252 0.27866 0.0
C1204 C 0.03105 0.4624 0.54396 0.0
N1205 N 0.0512 0.53432 0.56814 0.0
C1206 C 0.03459 0.5304 0.58401 0.0
C1207 C 0.04132 0.53339 0.60644 0.0
C1208 C 0.06552 0.53997 0.61265 0.0
C1209 C 0.08163 0.54615 0.59581 0.0
C1210 C 0.074 0.54332 0.57354 0.0
Zn1211 Zn 0.04413 0.51827 0.53753 0.0
C1212 C 0.08915 0.49185 0.52161 0.0
N1213 N 0.03135 0.47991 0.47579 0.0
C1214 C 0.01089 0.46507 0.47372 0.0
C1215 C 0.04314 0.48815 0.45763 0.0
C1216 C 0.0327 0.4842 0.43639 0.0
C1217 C 0.0101 0.47142 0.43395 0.0
C1218 C 5e-05 0.46031 0.45281 0.0
Zn1219 Zn 0.03925 0.49668 0.5058 0.0
O1220 O 0.03527 0.48349 0.55404 0.0
C1221 C 0.99393 0.52219 0.52104 0.0
O1222 O 0.03121 0.4619 0.52284 0.0
H1223 H 0.05947 0.4998 0.45967 0.0
H1224 H 0.01663 0.523 0.57943 0.0
H1225 H 0.00172 0.45881 0.48835 0.0
O1226 O 0.00729 0.53025 0.53733 0.0
O1227 O 0.00296 0.50772 0.50662 0.0
H1228 H 0.08695 0.54631 0.56068 0.0
O1229 O 0.04719 0.53224 0.4893 0.0
O1230 O 0.05286 0.55302 0.52081 0.0
O1231 O 0.07545 0.48547 0.50503 0.0
O1232 O 0.08077 0.50572 0.53689 0.0
C1233 C 0.0519 0.55313 0.49964 0.0
H1234 H 0.02804 0.52914 0.61878 0.0
H1235 H 0.10049 0.55122 0.59966 0.0
H1236 H 0.04115 0.49312 0.42237 0.0
H1237 H 0.98298 0.44974 0.45162 0.0
C1238 C 0.80282 0.72735 0.25135 0.0
N1239 N 0.76499 0.75058 0.30659 0.0
C1240 C 0.75472 0.72682 0.30454 0.0
C1241 C 0.74822 0.71324 0.32335 0.0
C1242 C 0.75171 0.72448 0.34451 0.0
C1243 C 0.76047 0.74992 0.34586 0.0
C1244 C 0.76744 0.76248 0.32668 0.0
Zn1245 Zn 0.77949 0.76717 0.27949 0.0
C1246 C 0.83279 0.77929 0.2888 0.0
N1247 N 0.81104 0.79947 0.22232 0.0
C1248 C 0.80542 0.78812 0.20239 0.0
C1249 C 0.82317 0.82234 0.22357 0.0
C1250 C 0.82912 0.83527 0.20416 0.0
C1251 C 0.82254 0.8245 0.18332 0.0
C1252 C 0.81106 0.8003 0.18263 0.0
Zn1253 Zn 0.79714 0.78319 0.24997 0.0
O1254 O 0.7902 0.73097 0.26828 0.0
C1255 C 0.74311 0.77064 0.24192 0.0
O1256 O 0.80845 0.74637 0.23941 0.0
H1257 H 0.82741 0.83103 0.2396 0.0
H1258 H 0.75256 0.71783 0.28838 0.0
H1259 H 0.79555 0.77007 0.20176 0.0
O1260 O 0.74551 0.76378 0.26209 0.0
O1261 O 0.76183 0.7789 0.23214 0.0
H1262 H 0.77563 0.78139 0.328 0.0
O1263 O 0.78597 0.82003 0.26102 0.0
O1264 O 0.76949 0.80345 0.29043 0.0
O1265 O 0.83194 0.78695 0.26865 0.0
O1266 O 0.8134 0.7707 0.29709 0.0
C1267 C 0.77457 0.82291 0.27883 0.0
H1268 H 0.74179 0.69367 0.32126 0.0
H1269 H 0.76279 0.75981 0.36163 0.0
H1270 H 0.83823 0.85375 0.20545 0.0
H1271 H 0.80531 0.79142 0.167 0.0
C1272 C 0.82932 0.26459 0.76006 0.0
N1273 N 0.7621 0.23735 0.73532 0.0
C1274 C 0.76757 0.25208 0.71755 0.0
C1275 C 0.7649 0.24224 0.69609 0.0
C1276 C 0.75637 0.21698 0.69276 0.0
C1277 C 0.74907 0.20289 0.7113 0.0
C1278 C 0.75219 0.21348 0.73259 0.0
Zn1279 Zn 0.77549 0.24965 0.76556 0.0
C1280 C 0.80069 0.20713 0.79036 0.0
N1281 N 0.80847 0.27562 0.82653 0.0
C1282 C 0.81961 0.29898 0.82831 0.0
C1283 C 0.80181 0.26248 0.84485 0.0
C1284 C 0.80434 0.27371 0.86585 0.0
C1285 C 0.81387 0.29873 0.86803 0.0
C1286 C 0.82258 0.31093 0.84905 0.0
Zn1287 Zn 0.795 0.26283 0.79645 0.0
O1288 O 0.80933 0.25767 0.75039 0.0
C1289 C 0.76946 0.30539 0.77196 0.0
O1290 O 0.82967 0.26875 0.78094 0.0
H1291 H 0.79278 0.24402 0.84304 0.0
H1292 H 0.77571 0.27088 0.72008 0.0
H1293 H 0.82469 0.30911 0.81351 0.0
O1294 O 0.7628 0.28724 0.75893 0.0
O1295 O 0.78389 0.30065 0.78841 0.0
H1296 H 0.74808 0.20208 0.74698 0.0
O1297 O 0.7602 0.2568 0.81135 0.0
O1298 O 0.74178 0.24179 0.78105 0.0
O1299 O 0.80566 0.22499 0.80424 0.0
O1300 O 0.7883 0.21212 0.77267 0.0
C1301 C 0.74096 0.24802 0.80147 0.0
H1302 H 0.77111 0.25378 0.68246 0.0
H1303 H 0.74199 0.18351 0.70949 0.0
H1304 H 0.79717 0.26363 0.87991 0.0
H1305 H 0.83047 0.33003 0.85003 0.0
C1306 C 0.7475 0.71846 0.75351 0.0
N1307 N 0.81087 0.73683 0.71955 0.0
C1308 C 0.81315 0.71089 0.71952 0.0
C1309 C 0.82394 0.69853 0.70196 0.0
C1310 C 0.83305 0.71302 0.68439 0.0
C1311 C 0.83217 0.73997 0.68582 0.0
C1312 C 0.82062 0.75152 0.70346 0.0
Zn1313 Zn 0.79134 0.75283 0.74387 0.0
C1314 C 0.75048 0.7839 0.72676 0.0
N1315 N 0.75061 0.78211 0.79653 0.0
C1316 C 0.74991 0.77068 0.8168 0.0
C1317 C 0.74712 0.80779 0.79421 0.0
C1318 C 0.74608 0.82347 0.81285 0.0
C1319 C 0.74875 0.81262 0.8341 0.0
C1320 C 0.74904 0.78574 0.83599 0.0
Zn1321 Zn 0.76824 0.76498 0.7713 0.0
O1322 O 0.76632 0.7213 0.74202 0.0
C1323 C 0.809 0.73376 0.78818 0.0
O1324 O 0.74305 0.73479 0.76849 0.0
H1325 H 0.74826 0.81671 0.77811 0.0
H1326 H 0.80571 0.69958 0.73272 0.0
H1327 H 0.75265 0.75023 0.81831 0.0
O1328 O 0.81381 0.73397 0.76774 0.0
O1329 O 0.7897 0.74439 0.79436 0.0
H1330 H 0.81882 0.77216 0.70395 0.0
O1331 O 0.79393 0.79491 0.77455 0.0
O1332 O 0.81569 0.78463 0.74614 0.0
O1333 O 0.74696 0.78514 0.74747 0.0
O1334 O 0.7688 0.77175 0.72007 0.0
C1335 C 0.81202 0.79911 0.76263 0.0
H1336 H 0.82377 0.67777 0.70168 0.0
H1337 H 0.83948 0.75206 0.67304 0.0
H1338 H 0.746 0.84406 0.8105 0.0
H1339 H 0.75057 0.77658 0.8521 0.0
C1340 C 0.52718 0.50649 0.4918 0.0
N1341 N 0.49897 0.54 0.54699 0.0
C1342 C 0.50444 0.56233 0.5365 0.0
C1343 C 0.48757 0.58214 0.53527 0.0
C1344 C 0.46471 0.57853 0.54446 0.0
C1345 C 0.46116 0.55691 0.55804 0.0
C1346 C 0.47859 0.53762 0.55889 0.0
Zn1347 Zn 0.51903 0.50853 0.54036 0.0
C1348 C 0.48942 0.46293 0.52647 0.0
N1349 N 0.56469 0.44475 0.52423 0.0
C1350 C 0.57252 0.44385 0.50305 0.0
C1351 C 0.5798 0.43713 0.54141 0.0
C1352 C 0.60488 0.43689 0.53877 0.0
C1353 C 0.6138 0.44379 0.51811 0.0
C1354 C 0.5975 0.44362 0.49955 0.0
Zn1355 Zn 0.54196 0.47517 0.53144 0.0
O1356 O 0.51738 0.51911 0.507 0.0
C1357 C 0.57159 0.52096 0.5448 0.0
O1358 O 0.54008 0.48715 0.49711 0.0
H1359 H 0.57335 0.43563 0.55801 0.0
H1360 H 0.52099 0.56397 0.52741 0.0
H1361 H 0.5601 0.44761 0.48913 0.0
O1362 O 0.55044 0.53018 0.54611 0.0
O1363 O 0.57406 0.49783 0.53874 0.0
H1364 H 0.47475 0.51977 0.56725 0.0
O1365 O 0.54228 0.46489 0.56523 0.0
O1366 O 0.52063 0.49805 0.57452 0.0
O1367 O 0.51049 0.45325 0.52499 0.0
O1368 O 0.48719 0.48588 0.53339 0.0
C1369 C 0.53282 0.47834 0.58017 0.0
H1370 H 0.49118 0.59864 0.52496 0.0
H1371 H 0.44384 0.55316 0.56547 0.0
H1372 H 0.61682 0.43579 0.55347 0.0
H1373 H 0.60381 0.4476 0.48306 0.0
C1374 C 0.0158 0.51945 0.06748 0.0
N1375 N 0.05035 0.45351 0.04548 0.0
C1376 C 0.05778 0.45232 0.06726 0.0
C1377 C 0.05637 0.42914 0.0787 0.0
C1378 C 0.04762 0.40708 0.06742 0.0
C1379 C 0.04326 0.40832 0.04433 0.0
C1380 C 0.04444 0.43191 0.03367 0.0
Zn1381 Zn 0.03846 0.48726 0.03247 0.0
C1382 C 0.98411 0.48112 0.02156 0.0
N1383 N 0.00738 0.55477 0.00582 0.0
C1384 C 0.0151 0.57659 0.01638 0.0
C1385 C 0.99525 0.55547 0.9857 0.0
C1386 C 0.9916 0.57888 0.97489 0.0
C1387 C 0.00055 0.60158 0.98497 0.0
C1388 C 0.01193 0.60025 0.00622 0.0
Zn1389 Zn 0.01967 0.52144 0.0189 0.0
O1390 O 0.02804 0.49923 0.06456 0.0
C1391 C 0.07414 0.52764 0.02994 0.0
O1392 O 0.01033 0.53355 0.05094 0.0
H1393 H 0.98942 0.5378 0.97759 0.0
H1394 H 0.06255 0.46971 0.07631 0.0
H1395 H 0.02503 0.57555 0.03221 0.0
O1396 O 0.07302 0.50474 0.03706 0.0
O1397 O 0.05484 0.53833 0.02241 0.0
H1398 H 0.0383 0.43322 0.01645 0.0
O1399 O 0.02867 0.50913 0.98678 0.0
O1400 O 0.04881 0.47624 0.00035 0.0
O1401 O 0.98509 0.50447 0.01571 0.0
O1402 O 0.00354 0.46973 0.0278 0.0
C1403 C 0.04205 0.48977 0.98377 0.0
H1404 H 0.06007 0.42909 0.09649 0.0
H1405 H 0.03724 0.3916 0.03483 0.0
H1406 H 0.98246 0.57914 0.95863 0.0
H1407 H 0.01953 0.61715 0.01448 0.0
H1408 H 0.07644 0.18435 0.11291 0.0
H1409 H 0.09163 0.03856 0.08107 0.0
H1410 H 0.06291 0.12049 0.15613 0.0
H1411 H 0.08188 0.10014 0.03415 0.0
H1412 H 0.09984 0.07 0.11063 0.0
H1413 H 0.09533 0.15529 0.08681 0.0
C1414 C 0.07757 0.16411 0.11686 0.0
C1415 C 0.06721 0.15439 0.13603 0.0
C1416 C 0.09706 0.07664 0.09369 0.0
C1417 C 0.0893 0.1213 0.10673 0.0
C1418 C 0.0928 0.05871 0.07674 0.0
C1419 C 0.08577 0.06699 0.05534 0.0
C1420 C 0.09448 0.10283 0.08892 0.0
C1421 C 0.08709 0.09316 0.05056 0.0
C1422 C 0.08861 0.14765 0.10215 0.0
C1423 C 0.07007 0.1284 0.14108 0.0
N1424 N 0.09083 0.1103 0.06738 0.0
N1425 N 0.08042 0.11254 0.12621 0.0
H1426 H 0.09 0.74151 0.33473 0.0
H1427 H 0.23535 0.76077 0.3447 0.0
H1428 H 0.12803 0.7671 0.39488 0.0
H1429 H 0.19672 0.73355 0.28537 0.0
H1430 H 0.19678 0.76164 0.3638 0.0
H1431 H 0.12905 0.73708 0.31704 0.0
C1432 C 0.10658 0.74612 0.34431 0.0
C1433 C 0.10559 0.75476 0.3664 0.0
C1434 C 0.19673 0.75533 0.34665 0.0
C1435 C 0.15075 0.74978 0.346 0.0
C1436 C 0.21881 0.75477 0.33569 0.0
C1437 C 0.21943 0.74708 0.31329 0.0
C1438 C 0.17489 0.74823 0.3352 0.0
C1439 C 0.19727 0.73959 0.3026 0.0
C1440 C 0.12895 0.74358 0.33413 0.0
C1441 C 0.12782 0.76038 0.37785 0.0
N1442 N 0.17599 0.74046 0.31359 0.0
N1443 N 0.14941 0.75789 0.36752 0.0
H1444 H 0.55397 0.77164 0.65101 0.0
H1445 H 0.51558 0.86684 0.5532 0.0
H1446 H 0.51465 0.74556 0.59146 0.0
H1447 H 0.57795 0.87979 0.59796 0.0
H1448 H 0.50944 0.82498 0.57015 0.0
H1449 H 0.55599 0.81452 0.6354 0.0
C1450 C 0.54542 0.77493 0.63477 0.0
C1451 C 0.5343 0.75476 0.62244 0.0
C1452 C 0.52447 0.83702 0.57618 0.0
C1453 C 0.53675 0.80403 0.6045 0.0
C1454 C 0.5282 0.86085 0.5664 0.0
C1455 C 0.54757 0.87689 0.57394 0.0
C1456 C 0.5399 0.82929 0.59391 0.0
C1457 C 0.56269 0.86829 0.59167 0.0
C1458 C 0.54677 0.79944 0.62584 0.0
C1459 C 0.5235 0.76042 0.60152 0.0
N1460 N 0.55849 0.84509 0.60108 0.0
N1461 N 0.5251 0.78457 0.59314 0.0
H1462 H 0.48523 0.27541 0.83784 0.0
H1463 H 0.33916 0.27104 0.82661 0.0
H1464 H 0.43766 0.26574 0.89272 0.0
H1465 H 0.38335 0.29021 0.77116 0.0
H1466 H 0.37574 0.26792 0.8503 0.0
H1467 H 0.44918 0.27915 0.8126 0.0
C1468 C 0.46729 0.27384 0.84461 0.0
C1469 C 0.46464 0.27016 0.86757 0.0
C1470 C 0.37761 0.27291 0.833 0.0
C1471 C 0.42322 0.27464 0.83866 0.0
C1472 C 0.3566 0.27473 0.81936 0.0
C1473 C 0.35803 0.28091 0.79672 0.0
C1474 C 0.40059 0.27711 0.82415 0.0
C1475 C 0.38131 0.28551 0.78849 0.0
C1476 C 0.4467 0.27614 0.83016 0.0
C1477 C 0.44081 0.26852 0.87525 0.0
N1478 N 0.40169 0.28339 0.80217 0.0
N1479 N 0.4212 0.27075 0.8609 0.0
H1480 H 0.05772 0.81667 0.44894 0.0
H1481 H 0.01372 0.96186 0.45722 0.0
H1482 H 0.01527 0.85199 0.39594 0.0
H1483 H 0.02668 0.914 0.5147 0.0
H1484 H 0.01944 0.92447 0.43316 0.0
H1485 H 0.05361 0.85555 0.47147 0.0
C1486 C 0.04753 0.8327 0.44207 0.0
C1487 C 0.03597 0.83084 0.42096 0.0
C1488 C 0.02089 0.92214 0.45103 0.0
C1489 C 0.03151 0.8755 0.44645 0.0
C1490 C 0.01755 0.94342 0.46478 0.0
C1491 C 0.01951 0.941 0.48804 0.0
C1492 C 0.02694 0.89838 0.46054 0.0
C1493 C 0.02469 0.91669 0.4969 0.0
C1494 C 0.0452 0.85485 0.45492 0.0
C1495 C 0.02392 0.8525 0.4124 0.0
N1496 N 0.02853 0.89642 0.48315 0.0
N1497 N 0.02172 0.87388 0.42529 0.0
H1498 H 0.51587 0.69825 0.71056 0.0
H1499 H 0.37389 0.67097 0.72597 0.0
H1500 H 0.47024 0.65648 0.66269 0.0
H1501 H 0.41354 0.73409 0.75745 0.0
H1502 H 0.41122 0.65807 0.70829 0.0
H1503 H 0.4806 0.70348 0.7338 0.0
C1504 C 0.49856 0.68977 0.70511 0.0
C1505 C 0.49595 0.67713 0.68452 0.0
C1506 C 0.41172 0.6746 0.71925 0.0
C1507 C 0.45559 0.68309 0.71103 0.0
C1508 C 0.39037 0.68211 0.72927 0.0
C1509 C 0.39032 0.70392 0.74307 0.0
C1510 C 0.4333 0.68877 0.72321 0.0
C1511 C 0.41256 0.71704 0.74715 0.0
C1512 C 0.47842 0.69292 0.71832 0.0
C1513 C 0.47302 0.66663 0.67831 0.0
N1514 N 0.43307 0.70934 0.73718 0.0
N1515 N 0.4537 0.66995 0.69145 0.0
H1516 H 0.51563 0.21087 0.96212 0.0
H1517 H 0.55266 0.06596 0.95687 0.0
H1518 H 0.55082 0.18353 0.90367 0.0
H1519 H 0.55748 0.11019 0.01757 0.0
H1520 H 0.54852 0.10603 0.93562 0.0
H1521 H 0.52583 0.17127 0.98094 0.0
C1522 C 0.52539 0.19652 0.95303 0.0
C1523 C 0.53237 0.20086 0.93107 0.0
C1524 C 0.55089 0.10691 0.95355 0.0
C1525 C 0.54407 0.15476 0.95305 0.0
C1526 C 0.55323 0.0841 0.96572 0.0
C1527 C 0.55537 0.08469 0.9891 0.0
C1528 C 0.55004 0.13042 0.96487 0.0
C1529 C 0.55596 0.10874 -0.00037 0.0
C1530 C 0.53138 0.17387 0.96402 0.0
C1531 C 0.54503 0.18115 0.92053 0.0
N1532 N 0.55289 0.13055 0.98748 0.0
N1533 N 0.55031 0.15881 0.93156 0.0
H1534 H 0.08115 0.26194 0.21991 0.0
H1535 H 0.21768 0.29146 0.19699 0.0
H1536 H 0.11164 0.25397 0.15525 0.0
H1537 H 0.18329 0.31447 0.25712 0.0
H1538 H 0.17752 0.28644 0.17875 0.0
H1539 H 0.11635 0.28826 0.23179 0.0
C1540 C 0.09515 0.26593 0.20817 0.0
C1541 C 0.0938 0.25528 0.18676 0.0
C1542 C 0.17874 0.29323 0.19577 0.0
C1543 C 0.13408 0.28532 0.20016 0.0
C1544 C 0.20173 0.29626 0.20617 0.0
C1545 C 0.20379 0.30249 0.22884 0.0
C1546 C 0.15782 0.29612 0.20828 0.0
C1547 C 0.18252 0.30889 0.23977 0.0
C1548 C 0.11516 0.28111 0.21488 0.0
C1549 C 0.11219 0.26142 0.17206 0.0
N1550 N 0.16035 0.30481 0.22958 0.0
N1551 N 0.13179 0.27567 0.17916 0.0
H1552 H 0.14324 0.9871 0.18187 0.0
H1553 H 0.02147 0.01497 0.11581 0.0
H1554 H 0.07668 0.9956 0.21691 0.0
H1555 H 0.07657 0.96625 0.0891 0.0
H1556 H 0.04071 0.00961 0.15296 0.0
H1557 H 0.11916 0.98115 0.14719 0.0
C1558 C 0.12353 0.98738 0.18226 0.0
C1559 C 0.11188 0.99185 0.20217 0.0
C1560 C 0.04821 -0.00028 0.13897 0.0
C1561 C 0.08429 0.98566 0.16264 0.0
C1562 C 0.03726 0.00275 0.11779 0.0
C1563 C 0.04754 0.99125 0.09928 0.0
C1564 C 0.06978 0.98553 0.14146 0.0
C1565 C 0.06808 0.97565 0.10283 0.0
C1566 C 0.1098 0.98392 0.16253 0.0
C1567 C 0.0863 0.99206 0.20184 0.0
N1568 N 0.07878 0.97365 0.12342 0.0
N1569 N 0.07329 0.9895 0.18226 0.0
H1570 H 0.27805 0.91724 0.46492 0.0
H1571 H 0.32016 0.7863 0.40946 0.0
H1572 H 0.28752 0.84664 0.50155 0.0
H1573 H 0.29705 0.85273 0.37172 0.0
H1574 H 0.31017 0.80869 0.44363 0.0
H1575 H 0.28575 0.89416 0.43067 0.0
C1576 C 0.28141 0.8968 0.46575 0.0
C1577 C 0.28218 0.8839 0.48621 0.0
C1578 C 0.30736 0.81836 0.42785 0.0
C1579 C 0.29148 0.85743 0.447 0.0
C1580 C 0.3131 0.80561 0.40834 0.0
C1581 C 0.3095 0.81762 0.38762 0.0
C1582 C 0.29802 0.84334 0.42669 0.0
C1583 C 0.30057 0.84281 0.38727 0.0
C1584 C 0.28591 0.88365 0.44617 0.0
C1585 C 0.28663 0.85739 0.48619 0.0
N1586 N 0.29511 0.85479 0.40648 0.0
N1587 N 0.29136 0.84508 0.46691 0.0
H1588 H 0.47971 0.02077 0.7087 0.0
H1589 H 0.47897 0.04788 0.5788 0.0
H1590 H 0.41298 0.02651 0.66882 0.0
H1591 H 0.53339 3e-05 0.61111 0.0
H1592 H 0.45812 0.05108 0.61392 0.0
H1593 H 0.50296 0.02365 0.6748 0.0
C1594 C 0.46997 0.02291 0.69283 0.0
C1595 C 0.4444 0.02328 0.69147 0.0
C1596 C 0.47478 0.04015 0.61331 0.0
C1597 C 0.47083 0.02697 0.65292 0.0
C1598 C 0.48681 0.03848 0.59338 0.0
C1599 C 0.50791 0.0236 0.59207 0.0
C1600 C 0.48421 0.02732 0.63213 0.0
C1601 C 0.51712 0.01161 0.61142 0.0
C1602 C 0.48324 0.02444 0.67356 0.0
C1603 C 0.43267 0.02597 0.67052 0.0
N1604 N 0.5052 0.01374 0.63072 0.0
N1605 N 0.44601 0.02783 0.65202 0.0
H1606 H 0.30885 0.14742 0.96085 0.0
H1607 H 0.24762 0.16749 0.84406 0.0
H1608 H 0.28884 0.08162 0.92023 0.0
H1609 H 0.30748 0.21643 0.86706 0.0
H1610 H 0.25897 0.13675 0.87323 0.0
H1611 H 0.30619 0.17442 0.92782 0.0
C1612 C 0.30417 0.1386 0.94492 0.0
C1613 C 0.2984 0.11237 0.94335 0.0
C1614 C 0.26961 0.15421 0.87167 0.0
C1615 C 0.29474 0.14321 0.90575 0.0
C1616 C 0.26314 0.17182 0.8551 0.0
C1617 C 0.27636 0.19488 0.85318 0.0
C1618 C 0.2891 0.15994 0.88664 0.0
C1619 C 0.29617 0.19942 0.86824 0.0
C1620 C 0.30267 0.154 0.92612 0.0
C1621 C 0.29282 0.10184 0.92227 0.0
N1622 N 0.30174 0.18226 0.88448 0.0
N1623 N 0.29049 0.11746 0.90428 0.0
H1624 H 0.17483 0.02509 0.34637 0.0
H1625 H 0.04913 0.05644 0.40257 0.0
H1626 H 0.10464 0.02077 0.31148 0.0
H1627 H 0.11436 0.03615 0.44069 0.0
H1628 H 0.07081 0.04937 0.36844 0.0
H1629 H 0.15419 0.0338 0.38085 0.0
C1630 C 0.1551 0.02569 0.34598 0.0
C1631 C 0.14147 0.02211 0.32597 0.0
C1632 C 0.08038 0.04662 0.38431 0.0
C1633 C 0.11785 0.03261 0.36524 0.0
C1634 C 0.06804 0.05069 0.40379 0.0
C1635 C 0.07984 0.04669 0.42458 0.0
C1636 C 0.10476 0.03868 0.38558 0.0
C1637 C 0.10455 0.03974 0.4251 0.0
C1638 C 0.14336 0.03076 0.36564 0.0
C1639 C 0.11593 0.02323 0.32648 0.0
N1640 N 0.11616 0.03584 0.40588 0.0
N1641 N 0.10498 0.02858 0.34576 0.0
H1642 H 0.30331 0.88289 0.62972 0.0
H1643 H 0.23013 0.7963 0.71005 0.0
H1644 H 0.24249 0.83903 0.60181 0.0
H1645 H 0.30863 0.79293 0.70971 0.0
H1646 H 0.23012 0.81889 0.67411 0.0
H1647 H 0.30127 0.85784 0.66401 0.0
C1648 C 0.28934 0.8682 0.63093 0.0
C1649 C 0.27306 0.86294 0.61297 0.0
C1650 C 0.24724 0.8129 0.68191 0.0
C1651 C 0.27049 0.83461 0.65208 0.0
C1652 C 0.24728 0.80008 0.7023 0.0
C1653 C 0.26941 0.79263 0.71273 0.0
C1654 C 0.2695 0.81903 0.67244 0.0
C1655 C 0.29117 0.7981 0.70212 0.0
C1656 C 0.28832 0.85385 0.65038 0.0
C1657 C 0.25542 0.84355 0.61532 0.0
N1658 N 0.2907 0.81136 0.68273 0.0
N1659 N 0.25442 0.83016 0.63466 0.0
H1660 H 0.45558 0.01195 0.80215 0.0
H1661 H 0.44866 0.00287 0.93393 0.0
H1662 H 0.38782 0.01672 0.83613 0.0
H1663 H 0.5104 0.97747 0.89754 0.0
H1664 H 0.42667 0.01124 0.89877 0.0
H1665 H 0.47697 0.00439 0.83768 0.0
C1666 C 0.4452 0.01177 0.81708 0.0
C1667 C 0.41978 0.01489 0.81607 0.0
C1668 C 0.44497 0.00369 0.89851 0.0
C1669 C 0.44426 0.0059 0.85684 0.0
C1670 C 0.45749 -0.00139 0.91858 0.0
C1671 C 0.48149 0.98941 0.91877 0.0
C1672 C 0.45659 -0.0002 0.87844 0.0
C1673 C 0.4921 0.9849 0.89827 0.0
C1674 C 0.45744 0.0072 0.83736 0.0
C1675 C 0.40739 0.01436 0.83606 0.0
N1676 N 0.47964 0.99029 0.87896 0.0
N1677 N 0.41975 0.00985 0.85563 0.0
H1678 H 0.27119 0.17554 0.04862 0.0
H1679 H 0.31621 0.1811 0.17531 0.0
H1680 H 0.28521 0.10697 0.08688 0.0
H1681 H 0.26911 0.23879 0.14581 0.0
H1682 H 0.31124 0.15573 0.14123 0.0
H1683 H 0.27606 0.2011 0.08267 0.0
C1684 C 0.27514 0.16587 0.06424 0.0
C1685 C 0.27772 0.13913 0.06503 0.0
C1686 C 0.3021 0.174 0.1423 0.0
C1687 C 0.28383 0.16825 0.10381 0.0
C1688 C 0.30488 0.18853 0.16174 0.0
C1689 C 0.29293 0.21216 0.16365 0.0
C1690 C 0.28764 0.18333 0.12446 0.0
C1691 C 0.27901 0.22097 0.14515 0.0
C1692 C 0.27792 0.18045 0.08361 0.0
C1693 C 0.28288 0.12754 0.08564 0.0
N1694 N 0.27677 0.20656 0.12635 0.0
N1695 N 0.28603 0.14222 0.10425 0.0
H1696 H 0.21318 0.07834 0.96525 0.0
H1697 H 0.11427 0.99441 0.96044 0.0
H1698 H 0.23563 0.03216 0.02146 0.0
H1699 H 0.15817 0.9455 0.00322 0.0
H1700 H 0.14901 0.02212 0.95579 0.0
H1701 H 0.18223 0.04597 0.95481 0.0
C1702 C 0.21122 0.06145 0.97551 0.0
C1703 C 0.2271 0.05732 0.99382 0.0
C1704 C 0.15158 0.00492 0.96555 0.0
C1705 C 0.19171 0.02056 0.98254 0.0
C1706 C 0.13161 0.98866 0.96796 0.0
C1707 C 0.13305 0.96815 0.98306 0.0
C1708 C 0.17308 0.00039 0.97823 0.0
C1709 C 0.15609 0.96165 0.99205 0.0
C1710 C 0.19361 0.04291 0.96958 0.0
C1711 C 0.22397 0.03552 0.00686 0.0
N1712 N 0.17504 0.97828 0.99017 0.0
N1713 N 0.20671 0.01785 0.00089 0.0
H1714 H 0.70423 0.40984 0.06529 0.0
H1715 H 0.61546 0.51891 0.01715 0.0
H1716 H 0.7276 0.47598 0.02825 0.0
H1717 H 0.59175 0.46122 0.06312 0.0
H1718 H 0.65674 0.50248 0.02099 0.0
H1719 H 0.66274 0.42719 0.06449 0.0
C1720 C 0.7007 0.42793 0.05701 0.0
C1721 C 0.71948 0.44136 0.04673 0.0
C1722 C 0.64258 0.49345 0.03037 0.0
C1723 C 0.67224 0.46124 0.04581 0.0
C1724 C 0.61898 0.50286 0.02818 0.0
C1725 C 0.60013 0.49139 0.0398 0.0
C1726 C 0.64744 0.47223 0.04414 0.0
C1727 C 0.60578 0.47065 0.05389 0.0
C1728 C 0.67706 0.43785 0.05663 0.0
C1729 C 0.71383 0.4648 0.03635 0.0
N1730 N 0.62895 0.46158 0.05556 0.0
N1731 N 0.69079 0.47388 0.03611 0.0
H1732 H 0.90583 0.432 0.27155 0.0
H1733 H 0.77446 0.36661 0.26935 0.0
H1734 H 0.84559 0.45828 0.22995 0.0
H1735 H 0.83856 0.32812 0.29547 0.0
H1736 H 0.80041 0.40078 0.25537 0.0
H1737 H 0.8823 0.39332 0.28023 0.0
C1738 C 0.8877 0.42937 0.26409 0.0
C1739 C 0.87701 0.44861 0.2509 0.0
C1740 C 0.80879 0.38514 0.26453 0.0
C1741 C 0.85023 0.40474 0.26048 0.0
C1742 C 0.79396 0.36585 0.27279 0.0
C1743 C 0.80443 0.34489 0.28395 0.0
C1744 C 0.83419 0.38387 0.26812 0.0
C1745 C 0.82985 0.34426 0.28724 0.0
C1746 C 0.87431 0.40738 0.269 0.0
C1747 C 0.8539 0.44421 0.24099 0.0
N1748 N 0.8439 0.36363 0.27954 0.0
N1749 N 0.84103 0.42287 0.24628 0.0
H1750 H 0.8466 0.53876 0.47053 0.0
H1751 H 0.97018 0.56067 0.54257 0.0
H1752 H 0.85736 0.60125 0.5173 0.0
H1753 H 0.96038 0.50368 0.49068 0.0
H1754 H 0.92912 0.57658 0.53336 0.0
H1755 H 0.88927 0.52741 0.4763 0.0
C1756 C 0.85803 0.55038 0.48172 0.0
C1757 C 0.8483 0.5708 0.49362 0.0
C1758 C 0.93604 0.56061 0.52401 0.0
C1759 C 0.89708 0.55758 0.50068 0.0
C1760 C 0.95933 0.55139 0.52941 0.0
C1761 C 0.96864 0.53081 0.51743 0.0
C1762 C 0.92206 0.54903 0.50662 0.0
C1763 C 0.95395 0.51961 0.50038 0.0
C1764 C 0.88239 0.5438 0.48511 0.0
C1765 C 0.86405 0.58528 0.50781 0.0
N1766 N 0.93142 0.52886 0.49551 0.0
N1767 N 0.88762 0.57815 0.5112 0.0
H1768 H 0.13807 0.09595 0.27953 0.0
H1769 H 0.23407 0.19644 0.23335 0.0
H1770 H 0.18876 0.07974 0.22858 0.0
H1771 H 0.19467 0.20983 0.29301 0.0
H1772 H 0.21129 0.15693 0.22716 0.0
H1773 H 0.15179 0.14105 0.27992 0.0
C1774 C 0.15195 0.10207 0.26832 0.0
C1775 C 0.16327 0.08425 0.25475 0.0
C1776 C 0.20743 0.16853 0.24154 0.0
C1777 C 0.17844 0.13528 0.25462 0.0
C1778 C 0.22053 0.19113 0.24519 0.0
C1779 C 0.2165 0.20637 0.26394 0.0
C1780 C 0.19013 0.16087 0.25675 0.0
C1781 C 0.19851 0.19853 0.27847 0.0
C1782 C 0.15971 0.12767 0.2685 0.0
C1783 C 0.18044 0.09291 0.23992 0.0
N1784 N 0.18607 0.17612 0.27466 0.0
N1785 N 0.18774 0.11782 0.24042 0.0
H1786 H 0.34534 0.9513 0.57293 0.0
H1787 H 0.4742 0.93247 0.51976 0.0
H1788 H 0.3575 0.88829 0.52836 0.0
H1789 H 0.44317 0.00693 0.53132 0.0
H1790 H 0.43523 0.91242 0.52913 0.0
H1791 H 0.38642 0.96778 0.56604 0.0
C1792 C 0.35674 0.94104 0.56166 0.0
C1793 C 0.34791 0.91928 0.55026 0.0
C1794 C 0.43702 0.93314 0.52944 0.0
C1795 C 0.39458 0.93742 0.54275 0.0
C1796 C 0.45908 0.94456 0.52397 0.0
C1797 C 0.46172 0.97137 0.52455 0.0
C1798 C 0.4179 0.94865 0.53616 0.0
C1799 C 0.44175 0.98621 0.53036 0.0
C1800 C 0.38008 0.95031 0.55782 0.0
C1801 C 0.36361 0.9057 0.53679 0.0
N1802 N 0.42075 0.97462 0.53624 0.0
N1803 N 0.38621 0.91522 0.53309 0.0
H1804 H 0.88972 0.59217 0.22151 0.0
H1805 H 0.79115 0.68301 0.27205 0.0
H1806 H 0.86427 0.58693 0.28829 0.0
H1807 H 0.83942 0.71373 0.22353 0.0
H1808 H 0.81394 0.64332 0.27242 0.0
H1809 H 0.86994 0.63442 0.21777 0.0
C1810 C 0.8806 0.60021 0.23553 0.0
C1811 C 0.87833 0.58602 0.25515 0.0
C1812 C 0.81953 0.65869 0.2616 0.0
C1813 C 0.85531 0.63331 0.25074 0.0
C1814 C 0.80637 0.6813 0.26122 0.0
C1815 C 0.81359 0.70185 0.24796 0.0
C1816 C 0.84005 0.65641 0.24857 0.0
C1817 C 0.83334 0.69834 0.23407 0.0
C1818 C 0.86915 0.62409 0.2333 0.0
C1819 C 0.86614 0.59709 0.27276 0.0
N1820 N 0.84609 0.67601 0.23483 0.0
N1821 N 0.85481 0.61985 0.27002 0.0
H1822 H 0.66969 0.43121 0.74627 0.0
H1823 H 0.78223 0.34905 0.79488 0.0
H1824 H 0.72684 0.46112 0.79062 0.0
H1825 H 0.73143 0.32021 0.74408 0.0
H1826 H 0.76126 0.39005 0.79384 0.0
H1827 H 0.69056 0.38971 0.74624 0.0
C1828 C 0.68645 0.42902 0.75614 0.0
C1829 C 0.69652 0.44974 0.76842 0.0
C1830 C 0.75474 0.37484 0.7828 0.0
C1831 C 0.72053 0.40252 0.7683 0.0
C1832 C 0.76679 0.35142 0.78333 0.0
C1833 C 0.75859 0.33115 0.76954 0.0
C1834 C 0.73418 0.37806 0.76849 0.0
C1835 C 0.73843 0.33535 0.75495 0.0
C1836 C 0.69844 0.40541 0.75599 0.0
C1837 C 0.7184 0.44582 0.78079 0.0
N1838 N 0.7268 0.35831 0.7549 0.0
N1839 N 0.72962 0.42276 0.78038 0.0
H1840 H 0.93639 0.89468 0.91253 0.0
H1841 H 0.99263 0.93046 0.03238 0.0
H1842 H 0.00069 0.86297 0.94487 0.0
H1843 H 0.96091 0.99049 0.99197 0.0
H1844 H 0.9814 0.89958 0.00358 0.0
H1845 H 0.93406 0.92615 0.94344 0.0
C1846 C 0.95006 0.89461 0.92596 0.0
C1847 C 0.96845 0.87609 0.92663 0.0
C1848 C 0.97573 0.91925 0.00136 0.0
C1849 C 0.9656 0.9108 0.96158 0.0
C1850 C 0.9819 0.93682 0.01797 0.0
C1851 C 0.97777 0.96288 0.01439 0.0
C1852 C 0.96511 0.92777 0.98115 0.0
C1853 C 0.96422 0.97037 0.99525 0.0
C1854 C 0.94863 0.91227 0.94354 0.0
C1855 C 0.98592 0.87665 0.94411 0.0
N1856 N 0.95881 0.95288 0.9789 0.0
N1857 N 0.9839 0.89347 0.96098 0.0
H1858 H 0.97838 0.26278 0.71147 0.0
H1859 H 0.83209 0.2621 0.71502 0.0
H1860 H 0.92897 0.25302 0.6545 0.0
H1861 H 0.87787 0.26996 0.77455 0.0
H1862 H 0.86823 0.26085 0.69304 0.0
H1863 H 0.94298 0.26702 0.73512 0.0
C1864 C 0.9602 0.26156 0.70388 0.0
C1865 C 0.95686 0.2575 0.68082 0.0
C1866 C 0.87055 0.26295 0.71089 0.0
C1867 C 0.9162 0.26242 0.70788 0.0
C1868 C 0.84979 0.26373 0.72354 0.0
C1869 C 0.85178 0.2661 0.7468 0.0
C1870 C 0.89384 0.26443 0.72136 0.0
C1871 C 0.87538 0.26818 0.7567 0.0
C1872 C 0.93998 0.264 0.71743 0.0
C1873 C 0.93273 0.2561 0.67208 0.0
N1874 N 0.89549 0.26717 0.74395 0.0
N1875 N 0.91354 0.25854 0.68554 0.0
H1876 H 0.52104 0.26373 0.45435 0.0
H1877 H 0.5189 0.11103 0.44455 0.0
H1878 H 0.50877 0.2238 0.39194 0.0
H1879 H 0.5072 0.15339 0.50495 0.0
H1880 H 0.52397 0.15163 0.42494 0.0
H1881 H 0.52722 0.22261 0.47284 0.0
C1882 C 0.52023 0.24635 0.44443 0.0
C1883 C 0.51387 0.24711 0.42166 0.0
C1884 C 0.52039 0.15194 0.4425 0.0
C1885 C 0.52052 0.20008 0.44278 0.0
C1886 C 0.51718 0.12881 0.45367 0.0
C1887 C 0.51238 0.12875 0.47644 0.0
C1888 C 0.51903 0.17513 0.45422 0.0
C1889 C 0.51109 0.15242 0.48748 0.0
C1890 C 0.52355 0.22288 0.45504 0.0
C1891 C 0.51335 0.22403 0.40959 0.0
N1892 N 0.51437 0.17464 0.47626 0.0
N1893 N 0.5162 0.20133 0.42038 0.0
H1894 H 0.61653 0.76821 0.14896 0.0
H1895 H 0.6993 0.76273 0.26094 0.0
H1896 H 0.58841 0.77743 0.2144 0.0
H1897 H 0.7302 0.7784 0.1975 0.0
H1898 H 0.65862 0.76416 0.24335 0.0
H1899 H 0.65817 0.76886 0.16553 0.0
C1900 C 0.61909 0.77058 0.16678 0.0
C1901 C 0.59886 0.7728 0.18029 0.0
C1902 C 0.67425 0.7673 0.23322 0.0
C1903 C 0.6465 0.77309 0.19938 0.0
C1904 C 0.6976 0.76634 0.24324 0.0
C1905 C 0.71837 0.77042 0.23072 0.0
C1906 C 0.67138 0.77209 0.21034 0.0
C1907 C 0.71478 0.77514 0.20783 0.0
C1908 C 0.64287 0.77093 0.17621 0.0
C1909 C 0.60336 0.77574 0.20328 0.0
N1910 N 0.69176 0.77573 0.19836 0.0
N1911 N 0.62659 0.77557 0.21207 0.0
H1912 H 0.05011 0.20732 0.60623 0.0
H1913 H 0.01825 0.05741 0.59535 0.0
H1914 H 0.0125 0.16528 0.65619 0.0
H1915 H 0.04665 0.10288 0.54221 0.0
H1916 H 0.01965 0.09535 0.6193 0.0
H1917 H 0.05347 0.16786 0.58456 0.0
C1918 C 0.04254 0.18965 0.6126 0.0
C1919 C 0.03027 0.18959 0.63258 0.0
C1920 C 0.02569 0.09701 0.60244 0.0
C1921 C 0.03425 0.14424 0.60804 0.0
C1922 C 0.02492 0.07534 0.58871 0.0
C1923 C 0.03234 0.0769 0.56664 0.0
C1924 C 0.03408 0.1205 0.59419 0.0
C1925 C 0.04073 0.10072 0.55905 0.0
C1926 C 0.04452 0.16713 0.60027 0.0
C1927 C 0.0216 0.16614 0.64057 0.0
N1928 N 0.04135 0.12154 0.57278 0.0
N1929 N 0.02345 0.1444 0.62811 0.0
H1930 H 0.54787 0.34525 0.39668 0.0
H1931 H 0.66017 0.36612 0.34709 0.0
H1932 H 0.51794 0.35178 0.3296 0.0
H1933 H 0.62465 0.3164 0.29785 0.0
H1934 H 0.62037 0.37434 0.36252 0.0
H1935 H 0.58891 0.34998 0.38249 0.0
C1936 C 0.54988 0.3482 0.37904 0.0
C1937 C 0.52941 0.34782 0.36429 0.0
C1938 C 0.62149 0.36182 0.34822 0.0
C1939 C 0.57625 0.35288 0.34801 0.0
C1940 C 0.64422 0.35692 0.33941 0.0
C1941 C 0.6462 0.3402 0.32114 0.0
C1942 C 0.60049 0.35037 0.33845 0.0
C1943 C 0.62445 0.32971 0.31164 0.0
C1944 C 0.57329 0.35102 0.37099 0.0
C1945 C 0.53314 0.35176 0.34159 0.0
N1946 N 0.60261 0.33501 0.32037 0.0
N1947 N 0.55614 0.35343 0.33408 0.0
H1948 H 0.4873 0.82145 0.09222 0.0
H1949 H 0.54849 0.9611 0.09061 0.0
H1950 H 0.54394 0.8444 0.14019 0.0
H1951 H 0.5076 0.92707 0.03524 0.0
H1952 H 0.54331 0.92129 0.11165 0.0
H1953 H 0.49051 0.86285 0.07437 0.0
C1954 C 0.50039 0.83521 0.09918 0.0
C1955 C 0.51555 0.82911 0.11777 0.0
C1956 C 0.53544 0.9226 0.09492 0.0
C1957 C 0.51927 0.87713 0.097 0.0
C1958 C 0.53828 0.94534 0.08291 0.0
C1959 C 0.52848 0.94745 0.06105 0.0
C1960 C 0.52243 0.90192 0.08514 0.0
C1961 C 0.51554 0.92635 0.05196 0.0
C1962 C 0.50222 0.85895 0.08883 0.0
C1963 C 0.53192 0.84813 0.12591 0.0
N1964 N 0.51287 0.90456 0.06404 0.0
N1965 N 0.53342 0.87128 0.11542 0.0
H1966 H 0.89389 0.77445 0.90224 0.0
H1967 H 0.85677 0.72308 0.78112 0.0
H1968 H 0.93795 0.78304 0.84473 0.0
H1969 H 0.80585 0.7327 0.83339 0.0
H1970 H 0.89026 0.73177 0.8079 0.0
H1971 H 0.86485 0.74848 0.88005 0.0
C1972 C 0.89747 0.77089 0.88494 0.0
C1973 C 0.91821 0.78125 0.87522 0.0
C1974 C 0.87178 0.73136 0.81359 0.0
C1975 C 0.88526 0.75117 0.84992 0.0
C1976 C 0.85264 0.7261 0.79838 0.0
C1977 C 0.82845 0.72809 0.80491 0.0
C1978 C 0.86658 0.73847 0.83538 0.0
C1979 C 0.82423 0.73165 0.82754 0.0
C1980 C 0.88096 0.75592 0.87236 0.0
C1981 C 0.92199 0.77582 0.85279 0.0
N1982 N 0.84313 0.73738 0.84191 0.0
N1983 N 0.90559 0.76121 0.84086 0.0
H1984 H 0.91024 0.02268 0.89302 0.0
H1985 H 0.04005 0.01236 0.95228 0.0
H1986 H 0.97325 0.00302 0.85592 0.0
H1987 H 0.98324 0.06047 0.97683 0.0
H1988 H 0.01711 0.00874 0.91668 0.0
H1989 H 0.93716 0.03536 0.92435 0.0
C1990 C 0.92976 0.02103 0.89145 0.0
C1991 C 0.9395 0.01164 0.87184 0.0
C1992 C 0.00998 0.02052 0.92974 0.0
C1993 C 0.97048 0.02614 0.90776 0.0
C1994 C 0.02312 0.02273 0.95003 0.0
C1995 C 0.01345 0.0365 0.9677 0.0
C1996 C 0.98691 0.03184 0.92729 0.0
C1997 C 0.99136 0.04946 0.96379 0.0
C1998 C 0.94514 0.02849 0.90929 0.0
C1999 C 0.96498 0.01017 0.87073 0.0
N2000 N 0.97863 0.04639 0.94418 0.0
N2001 N 0.97962 0.01704 0.88856 0.0
H2002 H 0.78164 0.19547 0.55382 0.0
H2003 H 0.76883 0.16743 0.68275 0.0
H2004 H 0.77504 0.11851 0.57942 0.0
H2005 H 0.74754 0.23891 0.65176 0.0
H2006 H 0.77558 0.14943 0.64603 0.0
H2007 H 0.77549 0.21236 0.59106 0.0
C2008 C 0.77927 0.18211 0.56734 0.0
C2009 C 0.77877 0.15555 0.56353 0.0
C2010 C 0.76929 0.169 0.64733 0.0
C2011 C 0.77149 0.17476 0.60607 0.0
C2012 C 0.76516 0.17925 0.66827 0.0
C2013 C 0.75764 0.20483 0.67046 0.0
C2014 C 0.76622 0.18452 0.62845 0.0
C2015 C 0.75376 0.21929 0.651 0.0
C2016 C 0.77552 0.19178 0.58853 0.0
C2017 C 0.77549 0.13914 0.58165 0.0
N2018 N 0.7583 0.20901 0.63085 0.0
N2019 N 0.77194 0.14902 0.60217 0.0
H2020 H 0.59662 0.01546 0.35408 0.0
H2021 H 0.58232 0.96012 0.47641 0.0
H2022 H 0.65722 0.99302 0.39736 0.0
H2023 H 0.53152 0.01369 0.4462 0.0
H2024 H 0.60551 0.9608 0.44256 0.0
H2025 H 0.56868 0.00426 0.38344 0.0
C2026 C 0.60402 0.00788 0.36963 0.0
C2027 C 0.62928 0.00537 0.3734 0.0
C2028 C 0.58904 0.97204 0.44325 0.0
C2029 C 0.5975 0.99227 0.40671 0.0
C2030 C 0.57569 0.97154 0.46247 0.0
C2031 C 0.55514 0.98715 0.4642 0.0
C2032 C 0.58161 0.98799 0.42559 0.0
C2033 C 0.54742 0.00158 0.44562 0.0
C2034 C 0.58808 0.00156 0.38633 0.0
C2035 C 0.63789 0.99552 0.39386 0.0
N2036 N 0.5608 0.00184 0.4271 0.0
N2037 N 0.62202 0.98934 0.40978 0.0
H2038 H 0.80979 0.93928 0.08017 0.0
H2039 H 0.83647 0.8065 0.14283 0.0
H2040 H 0.82487 0.86834 0.04639 0.0
H2041 H 0.81513 0.8758 0.17608 0.0
H2042 H 0.83639 0.82993 0.10773 0.0
H2043 H 0.81547 0.91735 0.1158 0.0
C2044 C 0.81436 0.9191 0.08024 0.0
C2045 C 0.81672 0.90558 0.06027 0.0
C2046 C 0.83191 0.84006 0.12274 0.0
C2047 C 0.82331 0.88036 0.101 0.0
C2048 C 0.83191 0.82668 0.14278 0.0
C2049 C 0.82562 0.83913 0.16244 0.0
C2050 C 0.82554 0.8661 0.12228 0.0
C2051 C 0.8203 0.86543 0.16142 0.0
C2052 C 0.81762 0.90659 0.1006 0.0
C2053 C 0.82275 0.87948 0.06138 0.0
N2054 N 0.82019 0.87797 0.14166 0.0
N2055 N 0.82576 0.86771 0.08139 0.0
H2056 H 0.96732 0.02367 0.74958 0.0
H2057 H 0.94982 0.95329 0.63191 0.0
H2058 H 0.90284 0.97985 0.73018 0.0
H2059 H 0.00307 0.01346 0.64516 0.0
H2060 H 0.93347 0.9609 0.6686 0.0
H2061 H 0.98192 0.01862 0.71189 0.0
C2062 C 0.95613 0.01323 0.73734 0.0
C2063 C 0.93385 0.00217 0.74303 0.0
C2064 C 0.94876 0.97239 0.66342 0.0
C2065 C 0.95059 0.99594 0.70006 0.0
C2066 C 0.95809 0.96807 0.64246 0.0
C2067 C 0.97808 0.9825 0.63544 0.0
C2068 C 0.95955 0.99118 0.67751 0.0
C2069 C 0.9881 0.00132 0.64999 0.0
C2070 C 0.96448 0.0103 0.71586 0.0
C2071 C 0.92012 0.98875 0.72652 0.0
N2072 N 0.97881 0.00502 0.6703 0.0
N2073 N 0.9288 0.98582 0.70586 0.0
H2074 H 0.73735 0.14649 0.41824 0.0
H2075 H 0.8095 0.24692 0.35112 0.0
H2076 H 0.80147 0.18097 0.44988 0.0
H2077 H 0.73131 0.25228 0.35417 0.0
H2078 H 0.80985 0.21861 0.38379 0.0
H2079 H 0.73718 0.18055 0.39025 0.0
C2080 C 0.7515 0.16106 0.41919 0.0
C2081 C 0.76941 0.161 0.43643 0.0
C2082 C 0.79273 0.22642 0.37747 0.0
C2083 C 0.76979 0.19927 0.40404 0.0
C2084 C 0.79251 0.24256 0.35894 0.0
C2085 C 0.77036 0.25207 0.35007 0.0
C2086 C 0.77059 0.2191 0.38659 0.0
C2087 C 0.7488 0.24561 0.36065 0.0
C2088 C 0.75134 0.18047 0.40327 0.0
C2089 C 0.78731 0.18044 0.43686 0.0
N2090 N 0.74939 0.22907 0.37808 0.0
N2091 N 0.78731 0.19864 0.42067 0.0
H2092 H 0.67055 0.04359 0.23692 0.0
H2093 H 0.56991 0.00533 0.14325 0.0
H2094 H 0.60689 0.9973 0.24924 0.0
H2095 H 0.62346 0.06535 0.13468 0.0
H2096 H 0.58633 0.99833 0.18078 0.0
H2097 H 0.65687 0.04739 0.198 0.0
C2098 C 0.65381 0.03399 0.23139 0.0
C2099 C 0.63974 0.02019 0.24634 0.0
C2100 C 0.59447 0.01308 0.17074 0.0
C2101 C 0.624 0.02459 0.2019 0.0
C2102 C 0.58498 0.01728 0.14934 0.0
C2103 C 0.595 0.03636 0.13591 0.0
C2104 C 0.61431 0.0279 0.17884 0.0
C2105 C 0.61513 0.0505 0.14446 0.0
C2106 C 0.64598 0.0363 0.2092 0.0
C2107 C 0.61823 0.00819 0.23828 0.0
N2108 N 0.62408 0.04605 0.16546 0.0
N2109 N 0.61097 0.01074 0.2166 0.0
H2110 H 0.77986 0.9475 0.91262 0.0
H2111 H 0.78316 0.80382 0.86725 0.0
H2112 H 0.81408 0.886 0.95 0.0
H2113 H 0.73091 0.86022 0.84413 0.0
H2114 H 0.79898 0.83446 0.89506 0.0
H2115 H 0.76823 0.91696 0.88333 0.0
C2116 C 0.78529 0.92767 0.91457 0.0
C2117 C 0.79756 0.91925 0.93408 0.0
C2118 C 0.78394 0.84001 0.88398 0.0
C2119 C 0.78394 0.88417 0.90066 0.0
C2120 C 0.77462 0.82242 0.8683 0.0
C2121 C 0.75555 0.82939 0.85334 0.0
C2122 C 0.77431 0.86482 0.88457 0.0
C2123 C 0.74576 0.85407 0.85515 0.0
C2124 C 0.77842 0.91022 0.8979 0.0
C2125 C 0.80433 0.89333 0.93543 0.0
N2126 N 0.75536 0.87095 0.87037 0.0
N2127 N 0.79719 0.87663 0.91903 0.0
H2128 H 0.81698 0.01221 0.02675 0.0
H2129 H 0.93844 0.08861 0.00529 0.0
H2130 H 0.86998 0.99341 0.97842 0.0
H2131 H 0.90584 0.08454 0.06933 0.0
H2132 H 0.90137 0.07081 0.98815 0.0
H2133 H 0.83922 0.05226 0.0353 0.0
C2134 C 0.8331 0.01686 0.01767 0.0
C2135 C 0.8417 -0.00013 0.00173 0.0
C2136 C 0.902 0.07473 0.00585 0.0
C2137 C 0.86694 0.04529 0.01132 0.0
C2138 C 0.92309 0.08531 0.01574 0.0
C2139 C 0.92573 0.08679 0.03905 0.0
C2140 C 0.88354 0.06589 0.01937 0.0
C2141 C 0.9049 0.08262 0.05141 0.0
C2142 C 0.84564 0.03965 0.02248 0.0
C2143 C 0.86284 0.00623 0.99072 0.0
N2144 N 0.88487 0.07137 0.04152 0.0
N2145 N 0.87482 0.02852 0.99575 0.0
H2146 H 0.33831 0.56994 0.95805 0.0
H2147 H 0.44384 0.53149 0.04485 0.0
H2148 H 0.34035 0.59641 0.02611 0.0
H2149 H 0.45885 0.54451 0.97591 0.0
H2150 H 0.40251 0.54764 0.03789 0.0
H2151 H 0.37984 0.55338 0.96392 0.0
C2152 C 0.3475 0.57231 0.97418 0.0
C2153 C 0.33595 0.58467 0.9916 0.0
C2154 C 0.41488 0.54689 0.0243 0.0
C2155 C 0.38294 0.56538 0.99847 0.0
C2156 C 0.43836 0.53755 0.02821 0.0
C2157 C 0.45476 0.53676 0.01093 0.0
C2158 C 0.40759 0.55498 0.00288 0.0
C2159 C 0.44676 0.54496 0.9897 0.0
C2160 C 0.37114 0.56294 0.97747 0.0
C2161 C 0.34866 0.58723 0.01217 0.0
N2162 N 0.42363 0.55361 0.98622 0.0
N2163 N 0.37139 0.57743 0.0151 0.0
H2164 H 0.14984 0.61124 0.8244 0.0
H2165 H 0.26461 0.67445 0.76669 0.0
H2166 H 0.20371 0.56824 0.79012 0.0
H2167 H 0.20309 0.71855 0.78734 0.0
H2168 H 0.24313 0.63522 0.77664 0.0
H2169 H 0.1701 0.65127 0.81313 0.0
C2170 C 0.16608 0.61033 0.81475 0.0
C2171 C 0.17571 0.58666 0.80876 0.0
C2172 C 0.23421 0.65347 0.77875 0.0
C2173 C 0.19839 0.63172 0.79539 0.0
C2174 C 0.24642 0.67586 0.77294 0.0
C2175 C 0.23565 0.69979 0.77619 0.0
C2176 C 0.21113 0.65505 0.78798 0.0
C2177 C 0.21209 0.70048 0.78453 0.0
C2178 C 0.17752 0.63302 0.80823 0.0
C2179 C 0.19632 0.58622 0.79575 0.0
N2180 N 0.20068 0.67842 0.79032 0.0
N2181 N 0.20705 0.6084 0.78959 0.0
H2182 H 0.24185 0.48791 0.54742 0.0
H2183 H 0.11133 0.45772 0.49456 0.0
H2184 H 0.22877 0.43321 0.49448 0.0
H2185 H 0.12399 0.50394 0.55361 0.0
H2186 H 0.15347 0.44332 0.49766 0.0
H2187 H 0.19832 0.48769 0.55447 0.0
C2188 C 0.22977 0.47515 0.53785 0.0
C2189 C 0.23854 0.46051 0.52045 0.0
C2190 C 0.14696 0.45639 0.51008 0.0
C2191 C 0.18891 0.46099 0.52755 0.0
C2192 C 0.12297 0.46481 0.5082 0.0
C2193 C 0.11433 0.48246 0.52359 0.0
C2194 C 0.16246 0.46591 0.52734 0.0
C2195 C 0.13003 0.49063 0.54117 0.0
C2196 C 0.20495 0.47515 0.54171 0.0
C2197 C 0.22244 0.44457 0.50817 0.0
N2198 N 0.15345 0.48252 0.5424 0.0
N2199 N 0.19818 0.44562 0.51165 0.0
H2200 H 0.86715 0.94916 0.78113 0.0
H2201 H 0.82859 0.80994 0.80441 0.0
H2202 H 0.91366 0.90633 0.82659 0.0
H2203 H 0.83405 0.83461 0.73644 0.0
H2204 H 0.85409 0.84664 0.81662 0.0
H2205 H 0.84788 0.90907 0.76824 0.0
C2206 C 0.87311 0.93122 0.78851 0.0
C2207 C 0.89167 0.93081 0.80512 0.0
C2208 C 0.84997 0.84372 0.79905 0.0
C2209 C 0.86993 0.88527 0.79041 0.0
C2210 C 0.83538 0.82303 0.79208 0.0
C2211 C 0.82925 0.81954 0.76942 0.0
C2212 C 0.85773 0.86133 0.78327 0.0
C2213 C 0.83849 0.83677 0.75403 0.0
C2214 C 0.86234 0.90848 0.78099 0.0
C2215 C 0.89918 0.90721 0.8139 0.0
N2216 N 0.85193 0.85737 0.7613 0.0
N2217 N 0.88793 0.88517 0.80667 0.0
H2218 H 0.72895 0.06708 0.5167 0.0
H2219 H 0.58472 0.07668 0.52502 0.0
H2220 H 0.6863 0.12929 0.48939 0.0
H2221 H 0.62357 0.00616 0.53757 0.0
H2222 H 0.62276 0.09749 0.51573 0.0
H2223 H 0.6914 0.0451 0.52681 0.0
C2224 C 0.71157 0.07577 0.51233 0.0
C2225 C 0.71052 0.09951 0.50144 0.0
C2226 C 0.62305 0.0775 0.52061 0.0
C2227 C 0.6677 0.0753 0.5141 0.0
C2228 C 0.60134 0.0656 0.5261 0.0
C2229 C 0.60092 0.03955 0.532 0.0
C2230 C 0.64466 0.06335 0.52106 0.0
C2231 C 0.62307 0.02628 0.53318 0.0
C2232 C 0.69021 0.0634 0.51837 0.0
C2233 C 0.68774 0.11071 0.49732 0.0
N2234 N 0.64409 0.03832 0.52762 0.0
N2235 N 0.66719 0.09849 0.50365 0.0
H2236 H 0.21492 0.45155 0.84439 0.0
H2237 H 0.26364 0.36291 0.74934 0.0
H2238 H 0.18499 0.45403 0.77709 0.0
H2239 H 0.2598 0.33529 0.81667 0.0
H2240 H 0.24117 0.40116 0.75982 0.0
H2241 H 0.23705 0.41252 0.83507 0.0
C2242 C 0.21286 0.44374 0.82772 0.0
C2243 C 0.19808 0.45591 0.81148 0.0
C2244 C 0.24536 0.38673 0.77227 0.0
C2245 C 0.22371 0.41196 0.80068 0.0
C2246 C 0.25837 0.36508 0.7664 0.0
C2247 C 0.26354 0.34596 0.78219 0.0
C2248 C 0.23792 0.38948 0.79417 0.0
C2249 C 0.25609 0.3496 0.804 0.0
C2250 C 0.22546 0.42155 0.82246 0.0
C2251 C 0.19603 0.44507 0.79014 0.0
N2252 N 0.24371 0.37105 0.80941 0.0
N2253 N 0.20899 0.42385 0.78525 0.0
H2254 H 0.3349 0.55035 0.31385 0.0
H2255 H 0.34791 0.70065 0.31235 0.0
H2256 H 0.40557 0.58557 0.3063 0.0
H2257 H 0.28762 0.66243 0.27765 0.0
H2258 H 0.36802 0.65907 0.31734 0.0
H2259 H 0.31584 0.59194 0.30755 0.0
C2260 C 0.34645 0.56683 0.31089 0.0
C2261 C 0.37191 0.56446 0.31053 0.0
C2262 C 0.3504 0.65989 0.30866 0.0
C2263 C 0.35009 0.61218 0.30376 0.0
C2264 C 0.33881 0.68348 0.30598 0.0
C2265 C 0.31601 0.68488 0.29467 0.0
C2266 C 0.33879 0.63755 0.30049 0.0
C2267 C 0.30517 0.66213 0.28649 0.0
C2268 C 0.3355 0.59051 0.30722 0.0
C2269 C 0.38589 0.58655 0.3066 0.0
N2270 N 0.31655 0.6393 0.28978 0.0
N2271 N 0.3748 0.60964 0.30361 0.0
H2272 H 0.5749 0.60276 0.65582 0.0
H2273 H 0.59553 0.50739 0.58282 0.0
H2274 H 0.59489 0.65605 0.60499 0.0
H2275 H 0.59027 0.56758 0.53413 0.0
H2276 H 0.60705 0.53914 0.61125 0.0
H2277 H 0.58855 0.56737 0.63277 0.0
C2278 C 0.58253 0.60689 0.63988 0.0
C2279 C 0.58292 0.63199 0.63175 0.0
C2280 C 0.60396 0.54547 0.5943 0.0
C2281 C 0.59977 0.59203 0.60564 0.0
C2282 C 0.59813 0.5272 0.5779 0.0
C2283 C 0.59141 0.53513 0.55631 0.0
C2284 C 0.60295 0.57166 0.58881 0.0
C2285 C 0.59498 0.56087 0.55074 0.0
C2286 C 0.59073 0.58676 0.62679 0.0
C2287 C 0.59347 0.63669 0.61135 0.0
N2288 N 0.59995 0.57839 0.56704 0.0
N2289 N 0.60109 0.61687 0.59881 0.0
H2290 H 0.62678 0.27035 0.89651 0.0
H2291 H 0.69541 0.23305 0.78526 0.0
H2292 H 0.58997 0.24403 0.83599 0.0
H2293 H 0.733 0.26098 0.84488 0.0
H2294 H 0.65691 0.23466 0.80443 0.0
H2295 H 0.66604 0.26495 0.87882 0.0
C2296 C 0.62692 0.2633 0.87958 0.0
C2297 C 0.60495 0.25771 0.86775 0.0
C2298 C 0.67359 0.24032 0.81339 0.0
C2299 C 0.6499 0.25153 0.84732 0.0
C2300 C 0.69564 0.23933 0.80243 0.0
C2301 C 0.71759 0.24692 0.81338 0.0
C2302 C 0.67331 0.24901 0.83553 0.0
C2303 C 0.71659 0.25495 0.83569 0.0
C2304 C 0.64936 0.26026 0.86946 0.0
C2305 C 0.60635 0.24867 0.8458 0.0
N2306 N 0.69489 0.25588 0.84595 0.0
N2307 N 0.62832 0.24595 0.83634 0.0
H2308 H 0.98777 0.26097 0.1028 0.0
H2309 H 0.06974 0.38569 0.10472 0.0
H2310 H 0.02959 0.2859 0.16134 0.0
H2311 H 0.00764 0.37643 0.05901 0.0
H2312 H 0.05556 0.34857 0.12549 0.0
H2313 H 0.9938 0.3033 0.08651 0.0
C2314 C 0.99771 0.27548 0.11246 0.0
C2315 C 0.00855 0.26967 0.1333 0.0
C2316 C 0.04502 0.3548 0.11096 0.0
C2317 C 0.016 0.3178 0.11454 0.0
C2318 C 0.05315 0.37593 0.09905 0.0
C2319 C 0.04012 0.384 0.07986 0.0
C2320 C 0.02386 0.34153 0.10349 0.0
C2321 C 0.01875 0.37047 0.07327 0.0
C2322 C 0.00124 0.29961 0.1031 0.0
C2323 C 0.02111 0.28934 0.1451 0.0
N2324 N 0.01141 0.34978 0.08496 0.0
N2325 N 0.02494 0.31236 0.13535 0.0
H2326 H 0.98433 0.77115 0.33976 0.0
H2327 H 0.83793 0.77077 0.33336 0.0
H2328 H 0.9389 0.76234 0.39625 0.0
H2329 H 0.88055 0.78639 0.2761 0.0
H2330 H 0.87529 0.76694 0.35602 0.0
H2331 H 0.94741 0.7754 0.3157 0.0
C2332 C 0.96667 0.76988 0.34713 0.0
C2333 C 0.96491 0.7663 0.3702 0.0
C2334 C 0.87662 0.77129 0.33853 0.0
C2335 C 0.92246 0.77138 0.34264 0.0
C2336 C 0.85518 0.77354 0.32549 0.0
C2337 C 0.85594 0.77894 0.30267 0.0
C2338 C 0.89935 0.7743 0.32885 0.0
C2339 C 0.87901 0.78232 0.29361 0.0
C2340 C 0.94558 0.77246 0.33336 0.0
C2341 C 0.94139 0.76503 0.37867 0.0
N2342 N 0.89978 0.77983 0.30669 0.0
N2343 N 0.92127 0.76757 0.36496 0.0
H2344 H 0.51539 0.35686 0.89386 0.0
H2345 H 0.53211 0.41972 0.01499 0.0
H2346 H 0.55544 0.32108 0.94812 0.0
H2347 H 0.51384 0.46481 0.95688 0.0
H2348 H 0.53784 0.38238 0.991 0.0
H2349 H 0.51235 0.39611 0.91649 0.0
C2350 C 0.52368 0.35739 0.91047 0.0
C2351 C 0.5349 0.33552 0.9195 0.0
C2352 C 0.53223 0.40034 0.9835 0.0
C2353 C 0.53165 0.38008 0.94537 0.0
C2354 C 0.52879 0.42161 0.99722 0.0
C2355 C 0.5223 0.44534 0.98794 0.0
C2356 C 0.52844 0.40255 0.96034 0.0
C2357 C 0.51874 0.44681 0.96472 0.0
C2358 C 0.52192 0.37971 0.92339 0.0
C2359 C 0.54585 0.33729 0.94089 0.0
N2360 N 0.52165 0.42569 0.95174 0.0
N2361 N 0.54366 0.359 0.95321 0.0
H2362 H 0.94817 0.16783 0.16196 0.0
H2363 H 0.88876 0.2063 0.27619 0.0
H2364 H 0.99091 0.19529 0.21904 0.0
H2365 H 0.85093 0.20616 0.21187 0.0
H2366 H 0.9255 0.19153 0.2584 0.0
H2367 H 0.91171 0.16972 0.18367 0.0
C2368 C 0.94999 0.17392 0.17917 0.0
C2369 C 0.97262 0.182 0.18852 0.0
C2370 C 0.90898 0.19444 0.24835 0.0
C2371 C 0.93079 0.18423 0.21344 0.0
C2372 C 0.88802 0.20306 0.25841 0.0
C2373 C 0.86659 0.20784 0.24555 0.0
C2374 C 0.90843 0.19023 0.22532 0.0
C2375 C 0.86673 0.20253 0.22266 0.0
C2376 C 0.92912 0.17503 0.19153 0.0
C2377 C 0.97382 0.1892 0.21105 0.0
N2378 N 0.88731 0.19417 0.21331 0.0
N2379 N 0.9531 0.19051 0.22269 0.0
H2380 H 0.05179 0.67876 0.4016 0.0
H2381 H 0.05346 0.60192 0.51654 0.0
H2382 H 0.01807 0.70426 0.46139 0.0
H2383 H 0.05308 0.56065 0.45428 0.0
H2384 H 0.05005 0.64211 0.49601 0.0
H2385 H 0.06029 0.63716 0.41999 0.0
C2386 C 0.04611 0.67571 0.41842 0.0
C2387 C 0.0341 0.69523 0.4298 0.0
C2388 C 0.05091 0.62427 0.48681 0.0
C2389 C 0.04436 0.64818 0.45101 0.0
C2390 C 0.05302 0.60128 0.49855 0.0
C2391 C 0.05337 0.57775 0.48719 0.0
C2392 C 0.04934 0.62398 0.46345 0.0
C2393 C 0.05273 0.57831 0.46376 0.0
C2394 C 0.051 0.65202 0.42889 0.0
C2395 C 0.02728 0.69006 0.45169 0.0
N2396 N 0.05065 0.60105 0.45263 0.0
N2397 N 0.03266 0.66732 0.4615 0.0
H2398 H 0.60707 0.75269 0.7029 0.0
H2399 H 0.74541 0.77161 0.68251 0.0
H2400 H 0.64049 0.72823 0.64276 0.0
H2401 H 0.70836 0.80901 0.73547 0.0
H2402 H 0.70624 0.76453 0.66298 0.0
H2403 H 0.64236 0.78024 0.71145 0.0
C2404 C 0.62182 0.75321 0.69145 0.0
C2405 C 0.62116 0.73773 0.67238 0.0
C2406 C 0.7067 0.77495 0.67857 0.0
C2407 C 0.6616 0.76923 0.68198 0.0
C2408 C 0.72915 0.77922 0.68967 0.0
C2409 C 0.73002 0.78994 0.7111 0.0
C2410 C 0.68516 0.78125 0.68916 0.0
C2411 C 0.70843 0.79985 0.71931 0.0
C2412 C 0.64187 0.76914 0.6962 0.0
C2413 C 0.64049 0.73955 0.65785 0.0
N2414 N 0.68675 0.79453 0.70866 0.0
N2415 N 0.66014 0.75467 0.66315 0.0
H2416 H 0.57387 0.49556 0.72038 0.0
H2417 H 0.56431 0.44223 0.59665 0.0
H2418 H 0.63678 0.47596 0.68322 0.0
H2419 H 0.51919 0.50479 0.61731 0.0
H2420 H 0.58434 0.44195 0.63346 0.0
H2421 H 0.54769 0.48701 0.6871 0.0
C2422 C 0.5821 0.48897 0.70534 0.0
C2423 C 0.60749 0.4865 0.70442 0.0
C2424 C 0.56973 0.45538 0.62999 0.0
C2425 C 0.57777 0.47636 0.66677 0.0
C2426 C 0.55815 0.45552 0.60903 0.0
C2427 C 0.54025 0.47386 0.60371 0.0
C2428 C 0.56306 0.47333 0.64593 0.0
C2429 C 0.533 0.49044 0.62062 0.0
C2430 C 0.56719 0.48426 0.68644 0.0
C2431 C 0.61729 0.47818 0.68453 0.0
N2432 N 0.5446 0.48993 0.641 0.0
N2433 N 0.60238 0.47332 0.66646 0.0
H2434 H 0.78367 0.41351 0.96678 0.0
H2435 H 0.82067 0.28081 0.91082 0.0
H2436 H 0.79176 0.34283 0.00354 0.0
H2437 H 0.80148 0.34899 0.87372 0.0
H2438 H 0.81228 0.30359 0.94524 0.0
H2439 H 0.79139 0.39029 0.93266 0.0
C2440 C 0.78681 0.39304 0.96768 0.0
C2441 C 0.78707 0.38013 0.98813 0.0
C2442 C 0.81003 0.31356 0.92955 0.0
C2443 C 0.7963 0.35344 0.949 0.0
C2444 C 0.81484 0.30059 0.90989 0.0
C2445 C 0.81182 0.31297 0.88928 0.0
C2446 C 0.80218 0.33913 0.92862 0.0
C2447 C 0.80449 0.33873 0.88917 0.0
C2448 C 0.79131 0.3798 0.94815 0.0
C2449 C 0.79126 0.35357 0.98817 0.0
N2450 N 0.79987 0.35089 0.9085 0.0
N2451 N 0.79589 0.34113 0.96893 0.0
H2452 H 0.97913 0.5179 0.20585 0.0
H2453 H 0.9754 0.54748 0.07604 0.0
H2454 H 0.91151 0.52758 0.16796 0.0
H2455 H 0.03172 0.50198 0.10824 0.0
H2456 H 0.95473 0.55008 0.11134 0.0
H2457 H 0.00137 0.52154 0.1716 0.0
C2458 C 0.96896 0.52099 0.19033 0.0
C2459 C 0.94341 0.5223 0.1897 0.0
C2460 C 0.97175 0.5398 0.11067 0.0
C2461 C 0.96882 0.52675 0.15056 0.0
C2462 C 0.98368 0.53849 0.09063 0.0
C2463 C 0.0053 0.52447 0.08925 0.0
C2464 C 0.98177 0.52741 0.12949 0.0
C2465 C 0.01506 0.51293 0.1086 0.0
C2466 C 0.98168 0.52299 0.17082 0.0
C2467 C 0.93119 0.52629 0.16913 0.0
N2468 N 0.00322 0.51467 0.12795 0.0
N2469 N 0.94403 0.52844 0.15031 0.0
H2470 H 0.7458 0.5927 0.42894 0.0
H2471 H 0.77759 0.72863 0.38433 0.0
H2472 H 0.76661 0.65537 0.47302 0.0
H2473 H 0.71972 0.68411 0.35157 0.0
H2474 H 0.77589 0.70045 0.41611 0.0
H2475 H 0.73833 0.62387 0.39895 0.0
C2476 C 0.74863 0.61295 0.43235 0.0
C2477 C 0.75706 0.62143 0.45344 0.0
C2478 C 0.76337 0.69707 0.40204 0.0
C2479 C 0.74878 0.65683 0.4194 0.0
C2480 C 0.76412 0.71335 0.38385 0.0
C2481 C 0.74878 0.70893 0.36497 0.0
C2482 C 0.74765 0.67575 0.40129 0.0
C2483 C 0.73234 0.68805 0.36542 0.0
C2484 C 0.74421 0.63066 0.41532 0.0
C2485 C 0.76022 0.64791 0.45702 0.0
N2486 N 0.73248 0.67195 0.38316 0.0
N2487 N 0.75642 0.66462 0.44009 0.0
H2488 H 0.67551 0.53299 0.84365 0.0
H2489 H 0.54961 0.56211 0.90082 0.0
H2490 H 0.60498 0.52701 0.80956 0.0
H2491 H 0.61584 0.544 0.93837 0.0
H2492 H 0.57125 0.55631 0.86649 0.0
H2493 H 0.6552 0.54307 0.87806 0.0
C2494 C 0.65579 0.53365 0.8434 0.0
C2495 C 0.64195 0.52896 0.82368 0.0
C2496 C 0.58106 0.55381 0.88228 0.0
C2497 C 0.6187 0.54095 0.86286 0.0
C2498 C 0.56873 0.55712 0.90188 0.0
C2499 C 0.58082 0.5533 0.92257 0.0
C2500 C 0.60571 0.54679 0.88332 0.0
C2501 C 0.60578 0.54739 0.92287 0.0
C2502 C 0.64423 0.53947 0.86303 0.0
C2503 C 0.61643 0.53024 0.82436 0.0
N2504 N 0.61736 0.54416 0.90353 0.0
N2505 N 0.60566 0.53621 0.84359 0.0
H2506 H 0.7651 0.32318 0.09991 0.0
H2507 H 0.73106 0.33834 0.22691 0.0
H2508 H 0.76349 0.39665 0.13301 0.0
H2509 H 0.76791 0.27169 0.20254 0.0
H2510 H 0.73319 0.35783 0.19003 0.0
H2511 H 0.75681 0.30209 0.13523 0.0
C2512 C 0.76277 0.33488 0.11456 0.0
C2513 C 0.76512 0.36169 0.1136 0.0
C2514 C 0.74055 0.33882 0.19275 0.0
C2515 C 0.75535 0.33773 0.15384 0.0
C2516 C 0.73917 0.3276 0.2137 0.0
C2517 C 0.74939 0.30338 0.21779 0.0
C2518 C 0.7518 0.32555 0.17567 0.0
C2519 C 0.7599 0.29044 0.2001 0.0
C2520 C 0.75814 0.32283 0.13467 0.0
C2521 C 0.762 0.37592 0.13308 0.0
N2522 N 0.76084 0.30169 0.17979 0.0
N2523 N 0.75719 0.36377 0.15242 0.0
H2524 H 0.96158 0.50169 0.29802 0.0
H2525 H 0.9611 0.47934 0.42911 0.0
H2526 H 0.89716 0.50494 0.33698 0.0
H2527 H 0.02533 0.4695 0.39077 0.0
H2528 H 0.93756 0.48799 0.39515 0.0
H2529 H 0.98559 0.49069 0.33161 0.0
C2530 C 0.95249 0.50034 0.31363 0.0
C2531 C 0.92726 0.50429 0.31463 0.0
C2532 C 0.95675 0.48374 0.39407 0.0
C2533 C 0.95463 0.49141 0.35304 0.0
C2534 C 0.97022 0.47842 0.4135 0.0
C2535 C 0.9953 0.47346 0.41287 0.0
C2536 C 0.96837 0.48436 0.37374 0.0
C2537 C 0.00611 0.47341 0.39209 0.0
C2538 C 0.96621 0.49388 0.33277 0.0
C2539 C 0.91652 0.5021 0.33533 0.0
N2540 N 0.99259 0.47892 0.37333 0.0
N2541 N 0.93025 0.49578 0.35367 0.0
H2542 H 0.81913 0.66566 0.54974 0.0
H2543 H 0.85414 0.66534 0.67913 0.0
H2544 H 0.81651 0.59738 0.59007 0.0
H2545 H 0.82735 0.73061 0.64158 0.0
H2546 H 0.85457 0.6406 0.64455 0.0
H2547 H 0.83693 0.68923 0.58135 0.0
C2548 C 0.82248 0.65554 0.56524 0.0
C2549 C 0.81569 0.62971 0.56753 0.0
C2550 C 0.84914 0.66053 0.644 0.0
C2551 C 0.83612 0.65665 0.60373 0.0
C2552 C 0.8487 0.67467 0.6637 0.0
C2553 C 0.83991 0.69998 0.66354 0.0
C2554 C 0.84123 0.67197 0.62401 0.0
C2555 C 0.83419 0.71126 0.64284 0.0
C2556 C 0.83275 0.66901 0.58323 0.0
C2557 C 0.82107 0.61742 0.58779 0.0
N2558 N 0.83465 0.69706 0.624 0.0
N2559 N 0.83064 0.63117 0.60534 0.0
H2560 H 0.70064 0.58014 0.51482 0.0
H2561 H 0.65871 0.43582 0.53924 0.0
H2562 H 0.75035 0.5235 0.54138 0.0
H2563 H 0.6185 0.48997 0.49824 0.0
H2564 H 0.69096 0.46844 0.54535 0.0
H2565 H 0.66737 0.54869 0.51623 0.0
C2566 C 0.70438 0.56107 0.52115 0.0
C2567 C 0.72815 0.55372 0.52697 0.0
C2568 C 0.67508 0.47296 0.53492 0.0
C2569 C 0.69063 0.5179 0.52876 0.0
C2570 C 0.65691 0.4543 0.53117 0.0
C2571 C 0.63608 0.45997 0.51788 0.0
C2572 C 0.67207 0.49746 0.52559 0.0
C2573 C 0.63446 0.48436 0.5081 0.0
C2574 C 0.68551 0.54313 0.52191 0.0
C2575 C 0.73222 0.52926 0.53583 0.0
N2576 N 0.65208 0.50219 0.51229 0.0
N2577 N 0.71363 0.51192 0.53615 0.0
H2578 H 0.2272 0.98181 0.53553 0.0
H2579 H 0.08833 0.95462 0.564 0.0
H2580 H 0.20373 0.9102 0.56416 0.0
H2581 H 0.11276 0.01612 0.52216 0.0
H2582 H 0.13074 0.9404 0.56899 0.0
H2583 H 0.18564 0.99701 0.53563 0.0
C2584 C 0.21332 0.9692 0.54188 0.0
C2585 C 0.21903 0.94447 0.54958 0.0
C2586 C 0.12674 0.95706 0.55882 0.0
C2587 C 0.17102 0.96201 0.54973 0.0
C2588 C 0.10261 0.96524 0.55603 0.0
C2589 C 0.09702 0.98651 0.54255 0.0
C2590 C 0.14531 0.97045 0.54823 0.0
C2591 C 0.11618 -0.00046 0.53258 0.0
C2592 C 0.1895 0.97797 0.54192 0.0
C2593 C 0.20016 0.92931 0.55791 0.0
N2594 N 0.13941 0.99128 0.53561 0.0
N2595 N 0.17691 0.93828 0.55766 0.0
H2596 H 0.35384 0.95171 0.72783 0.0
H2597 H 0.35512 0.81786 0.79142 0.0
H2598 H 0.41065 0.93391 0.77653 0.0
H2599 H 0.2895 0.85681 0.76937 0.0
H2600 H 0.37913 0.85558 0.7806 0.0
H2601 H 0.3341 0.91042 0.73541 0.0
C2602 C 0.3621 0.93897 0.74009 0.0
C2603 C 0.38309 0.94641 0.7524 0.0
C2604 C 0.35947 0.85579 0.77829 0.0
C2605 C 0.3611 0.89946 0.76091 0.0
C2606 C 0.34579 0.83448 0.78461 0.0
C2607 C 0.32031 0.83444 0.78154 0.0
C2608 C 0.34755 0.87668 0.76824 0.0
C2609 C 0.30907 0.85621 0.77236 0.0
C2610 C 0.35097 0.91549 0.74435 0.0
C2611 C 0.39396 0.92894 0.76729 0.0
N2612 N 0.32281 0.87632 0.76576 0.0
N2613 N 0.38257 0.9063 0.77148 0.0
H2614 H 0.3459 0.03032 0.0328 0.0
H2615 H 0.48217 0.08301 0.04514 0.0
H2616 H 0.36348 0.1102 0.0227 0.0
H2617 H 0.45967 0.00441 0.03397 0.0
H2618 H 0.43893 0.09497 0.04796 0.0
H2619 H 0.38739 0.02285 0.04587 0.0
C2620 C 0.35849 0.0464 0.03354 0.0
C2621 C 0.35146 0.07078 0.02621 0.0
C2622 C 0.44363 0.07509 0.0453 0.0
C2623 C 0.39938 0.06216 0.0405 0.0
C2624 C 0.46813 0.06831 0.04374 0.0
C2625 C 0.47411 0.04283 0.03898 0.0
C2626 C 0.4255 0.05604 0.04255 0.0
C2627 C 0.4556 0.02433 0.03728 0.0
C2628 C 0.38224 0.04211 0.04101 0.0
C2629 C 0.36844 0.09103 0.02794 0.0
N2630 N 0.43212 0.03133 0.03898 0.0
N2631 N 0.39197 0.08615 0.03446 0.0
H2632 H 0.64144 0.59821 0.76747 0.0
H2633 H 0.75133 0.68113 0.72195 0.0
H2634 H 0.69301 0.57022 0.72123 0.0
H2635 H 0.70548 0.70612 0.77443 0.0
H2636 H 0.7246 0.64407 0.71559 0.0
H2637 H 0.65847 0.64161 0.76362 0.0
C2638 C 0.6562 0.60139 0.75633 0.0
C2639 C 0.66683 0.58077 0.74551 0.0
C2640 C 0.72022 0.6578 0.72833 0.0
C2641 C 0.68596 0.62989 0.74066 0.0
C2642 C 0.73557 0.6789 0.73208 0.0
C2643 C 0.73085 0.69652 0.74901 0.0
C2644 C 0.70008 0.65417 0.74169 0.0
C2645 C 0.70999 0.69281 0.76141 0.0
C2646 C 0.66586 0.62605 0.75408 0.0
C2647 C 0.68521 0.58568 0.73061 0.0
N2648 N 0.69549 0.67188 0.75764 0.0
N2649 N 0.69452 0.60975 0.72886 0.0
H2650 H 0.84557 0.44937 0.07684 0.0
H2651 H 0.97307 0.42986 0.02017 0.0
H2652 H 0.85809 0.38467 0.03423 0.0
H2653 H 0.94226 0.50406 0.03317 0.0
H2654 H 0.9352 0.40948 0.03215 0.0
H2655 H 0.88677 0.46547 0.06982 0.0
C2656 C 0.8571 0.43862 0.06603 0.0
C2657 C 0.84832 0.4165 0.05515 0.0
C2658 C 0.93681 0.43021 0.03226 0.0
C2659 C 0.89509 0.43426 0.04742 0.0
C2660 C 0.9582 0.44181 0.02525 0.0
C2661 C 0.96051 0.46865 0.02531 0.0
C2662 C 0.91808 0.44559 0.04002 0.0
C2663 C 0.941 0.48333 0.03243 0.0
C2664 C 0.88052 0.44767 0.06213 0.0
C2665 C 0.86415 0.40235 0.04224 0.0
N2666 N 0.92069 0.47158 0.03977 0.0
N2667 N 0.88676 0.41172 0.03837 0.0
H2668 H 0.39978 0.09863 0.73505 0.0
H2669 H 0.28156 0.18578 0.74337 0.0
H2670 H 0.32769 0.07179 0.75053 0.0
H2671 H 0.35115 0.21737 0.72612 0.0
H2672 H 0.29803 0.14285 0.74064 0.0
H2673 H 0.38268 0.14143 0.72743 0.0
C2674 C 0.38044 0.10166 0.73676 0.0
C2675 C 0.36527 0.08167 0.74383 0.0
C2676 C 0.30977 0.15903 0.73715 0.0
C2677 C 0.34567 0.13015 0.73488 0.0
C2678 C 0.30027 0.18354 0.73861 0.0
C2679 C 0.31509 0.20499 0.73507 0.0
C2680 C 0.3345 0.15586 0.73264 0.0
C2681 C 0.33919 0.20116 0.72889 0.0
C2682 C 0.37071 0.12601 0.73234 0.0
C2683 C 0.3403 0.0866 0.74556 0.0
N2684 N 0.34837 0.17696 0.72826 0.0
N2685 N 0.33141 0.11024 0.74122 0.0
H2686 H 0.17032 0.9332 0.24591 0.0
H2687 H 0.28467 0.85114 0.28988 0.0
H2688 H 0.23254 0.96442 0.28328 0.0
H2689 H 0.2298 0.82041 0.24366 0.0
H2690 H 0.2651 0.89278 0.28751 0.0
H2691 H 0.1908 0.89152 0.24508 0.0
C2692 C 0.1882 0.93134 0.25396 0.0
C2693 C 0.19963 0.95241 0.26476 0.0
C2694 C 0.25736 0.87703 0.27773 0.0
C2695 C 0.22311 0.90489 0.26379 0.0
C2696 C 0.26858 0.85321 0.27907 0.0
C2697 C 0.25883 0.83224 0.26699 0.0
C2698 C 0.23603 0.87999 0.26437 0.0
C2699 C 0.23795 0.8361 0.25322 0.0
C2700 C 0.19991 0.90758 0.25339 0.0
C2701 C 0.22289 0.94884 0.27478 0.0
N2702 N 0.22709 0.8595 0.25242 0.0
N2703 N 0.23375 0.92561 0.2741 0.0
H2704 H 0.43627 0.34104 0.44916 0.0
H2705 H 0.45954 0.48263 0.49418 0.0
H2706 H 0.45025 0.40589 0.40697 0.0
H2707 H 0.47511 0.41317 0.53049 0.0
H2708 H 0.43863 0.45708 0.46482 0.0
H2709 H 0.43266 0.37009 0.48062 0.0
C2710 C 0.43817 0.3615 0.44645 0.0
C2711 C 0.44429 0.37109 0.42561 0.0
C2712 C 0.44576 0.44759 0.47964 0.0
C2713 C 0.44022 0.40435 0.46159 0.0
C2714 C 0.45738 0.46213 0.49652 0.0
C2715 C 0.46903 0.44983 0.51466 0.0
C2716 C 0.44559 0.42074 0.48126 0.0
C2717 C 0.46632 0.42326 0.51672 0.0
C2718 C 0.436 0.37803 0.4644 0.0
C2719 C 0.44587 0.39775 0.42287 0.0
N2720 N 0.45514 0.40952 0.50003 0.0
N2721 N 0.44441 0.41352 0.44085 0.0
H2722 H 0.42928 0.75488 0.15154 0.0
H2723 H 0.37814 0.77719 0.27337 0.0
H2724 H 0.47713 0.7693 0.20888 0.0
H2725 H 0.33362 0.76126 0.21424 0.0
H2726 H 0.41461 0.77622 0.25075 0.0
H2727 H 0.39439 0.7586 0.17485 0.0
C2728 C 0.43257 0.75887 0.16907 0.0
C2729 C 0.45644 0.76176 0.17812 0.0
C2730 C 0.39682 0.77307 0.24277 0.0
C2731 C 0.41588 0.76608 0.20529 0.0
C2732 C 0.37596 0.77374 0.25566 0.0
C2733 C 0.35266 0.76928 0.24578 0.0
C2734 C 0.39437 0.76796 0.21981 0.0
C2735 C 0.35109 0.76475 0.22273 0.0
C2736 C 0.41246 0.761 0.18245 0.0
C2737 C 0.45916 0.76688 0.20108 0.0
N2738 N 0.37152 0.76416 0.21067 0.0
N2739 N 0.43917 0.76886 0.21386 0.0
H2740 H 0.98943 0.72999 0.89364 0.0
H2741 H 0.99156 0.64874 0.00241 0.0
H2742 H 0.01414 0.75967 0.95758 0.0
H2743 H 0.0076 0.61111 0.9407 0.0
H2744 H 0.99532 0.69002 0.98422 0.0
H2745 H 0.99438 0.68607 0.90811 0.0
C2746 C 0.99679 0.72721 0.9104 0.0
C2747 C 0.00112 0.74823 0.92462 0.0
C2748 C 0.99814 0.67273 0.97466 0.0
C2749 C 0.00597 0.69883 0.94124 0.0
C2750 C 0.99591 0.64915 0.98502 0.0
C2751 C 0.99963 0.62643 0.97316 0.0
C2752 C 0.0037 0.67374 0.95214 0.0
C2753 C 0.00447 0.62817 0.95043 0.0
C2754 C 0.99936 0.70227 0.91868 0.0
C2755 C 0.0103 0.74384 0.94626 0.0
N2756 N 0.00634 0.65153 0.94056 0.0
N2757 N 0.01197 0.71961 0.95406 0.0
H2758 H 0.11561 0.26445 0.64685 0.0
H2759 H 0.20236 0.26171 0.75616 0.0
H2760 H 0.09 0.27444 0.71313 0.0
H2761 H 0.23089 0.27934 0.69211 0.0
H2762 H 0.16123 0.26218 0.73965 0.0
H2763 H 0.15784 0.2666 0.662 0.0
C2764 C 0.11883 0.26729 0.66455 0.0
C2765 C 0.09914 0.26927 0.67873 0.0
C2766 C 0.17642 0.26598 0.72914 0.0
C2767 C 0.14745 0.27129 0.69618 0.0
C2768 C 0.20005 0.26556 0.73854 0.0
C2769 C 0.22031 0.27045 0.72554 0.0
C2770 C 0.17271 0.271 0.70639 0.0
C2771 C 0.21588 0.27546 0.70279 0.0
C2772 C 0.14296 0.26852 0.67316 0.0
C2773 C 0.1045 0.27289 0.70152 0.0
N2774 N 0.19258 0.27546 0.6939 0.0
N2775 N 0.12804 0.27353 0.70951 0.0
H2776 H 0.51244 0.6712 0.15506 0.0
H2777 H 0.54827 0.60832 0.03917 0.0
H2778 H 0.55044 0.71199 0.10461 0.0
H2779 H 0.52175 0.56396 0.09381 0.0
H2780 H 0.54891 0.64657 0.0629 0.0
H2781 H 0.51588 0.63142 0.13328 0.0
C2782 C 0.52157 0.67168 0.13944 0.0
C2783 C 0.53038 0.69492 0.13114 0.0
C2784 C 0.5431 0.62842 0.06974 0.0
C2785 C 0.53473 0.64975 0.10633 0.0
C2786 C 0.5427 0.60657 0.05616 0.0
C2787 C 0.53496 0.58283 0.06445 0.0
C2788 C 0.53555 0.62664 0.09177 0.0
C2789 C 0.52789 0.58181 0.08666 0.0
C2790 C 0.52356 0.64906 0.12701 0.0
C2791 C 0.54264 0.69454 0.11113 0.0
N2792 N 0.52823 0.60338 0.09947 0.0
N2793 N 0.54422 0.67242 0.09929 0.0
H2794 H 0.06839 0.83352 0.89816 0.0
H2795 H 0.1438 0.82962 0.78692 0.0
H2796 H 0.03509 0.82408 0.83253 0.0
H2797 H 0.17625 0.81625 0.85231 0.0
H2798 H 0.10431 0.8352 0.80359 0.0
H2799 H 0.10856 0.83477 0.88171 0.0
C2800 C 0.06951 0.83192 0.88029 0.0
C2801 C 0.04838 0.82852 0.8667 0.0
C2802 C 0.12014 0.83123 0.81428 0.0
C2803 C 0.0942 0.83006 0.8478 0.0
C2804 C 0.14271 0.82794 0.80477 0.0
C2805 C 0.16348 0.82217 0.81815 0.0
C2806 C 0.11824 0.82892 0.83738 0.0
C2807 C 0.16091 0.8209 0.84128 0.0
C2808 C 0.09243 0.83256 0.87093 0.0
C2809 C 0.05091 0.82654 0.84364 0.0
N2810 N 0.1387 0.82409 0.85012 0.0
N2811 N 0.07338 0.82731 0.83493 0.0
H2812 H 0.03886 0.34014 0.64242 0.0
H2813 H 0.0137 0.41592 0.52867 0.0
H2814 H 0.9919 0.31222 0.58823 0.0
H2815 H 0.03976 0.45453 0.58859 0.0
H2816 H 0.0087 0.37652 0.55001 0.0
H2817 H 0.04222 0.38143 0.62292 0.0
C2818 C 0.02914 0.34266 0.6266 0.0
C2819 C 0.01512 0.3225 0.61704 0.0
C2820 C 0.01541 0.39364 0.55854 0.0
C2821 C 0.01917 0.36946 0.59456 0.0
C2822 C 0.01831 0.41613 0.54632 0.0
C2823 C 0.02709 0.43859 0.55683 0.0
C2824 C 0.02165 0.3934 0.58142 0.0
C2825 C 0.0328 0.43768 0.57981 0.0
C2826 C 0.03107 0.36622 0.61548 0.0
C2827 C 0.00297 0.32699 0.59641 0.0
N2828 N 0.03014 0.41542 0.59131 0.0
N2829 N 0.00544 0.34978 0.58588 0.0
H2830 H 0.39481 0.28257 0.39957 0.0
H2831 H 0.34264 0.2366 0.28181 0.0
H2832 H 0.4398 0.26645 0.34427 0.0
H2833 H 0.2986 0.24543 0.33923 0.0
H2834 H 0.37919 0.23913 0.30605 0.0
H2835 H 0.36016 0.262 0.37954 0.0
C2836 C 0.39726 0.27465 0.38316 0.0
C2837 C 0.41956 0.27726 0.37292 0.0
C2838 C 0.36152 0.23989 0.31342 0.0
C2839 C 0.3806 0.2532 0.35021 0.0
C2840 C 0.34061 0.23829 0.29958 0.0
C2841 C 0.31756 0.24142 0.30846 0.0
C2842 C 0.35927 0.24489 0.33619 0.0
C2843 C 0.31605 0.24342 0.33162 0.0
C2844 C 0.37763 0.26275 0.3718 0.0
C2845 C 0.42238 0.26586 0.35212 0.0
N2846 N 0.33665 0.2457 0.34464 0.0
N2847 N 0.40297 0.25466 0.34123 0.0
H2848 H 0.4766 0.48939 0.35394 0.0
H2849 H 0.49894 0.54578 0.47629 0.0
H2850 H 0.42129 0.52702 0.39095 0.0
H2851 H 0.53649 0.47839 0.45419 0.0
H2852 H 0.47754 0.54815 0.44019 0.0
H2853 H 0.50495 0.4936 0.38635 0.0
C2854 C 0.47054 0.49886 0.36876 0.0
C2855 C 0.44653 0.50784 0.36982 0.0
C2856 C 0.49076 0.5331 0.44314 0.0
C2857 C 0.47889 0.51296 0.4066 0.0
C2858 C 0.50316 0.53178 0.46369 0.0
C2859 C 0.51934 0.51159 0.46843 0.0
C2860 C 0.49471 0.5143 0.42703 0.0
C2861 C 0.5241 0.49418 0.45131 0.0
C2862 C 0.48667 0.50113 0.38721 0.0
C2863 C 0.43956 0.51971 0.38948 0.0
N2864 N 0.51161 0.49577 0.43137 0.0
N2865 N 0.45569 0.522 0.40707 0.0
H2866 H 0.25797 0.61712 0.07618 0.0
H2867 H 0.29382 0.73047 0.16074 0.0
H2868 H 0.29679 0.68542 0.05689 0.0
H2869 H 0.23601 0.67585 0.17223 0.0
H2870 H 0.29916 0.71129 0.12439 0.0
H2871 H 0.25465 0.63501 0.11349 0.0
C2872 C 0.26607 0.63575 0.07986 0.0
C2873 C 0.27764 0.64986 0.06339 0.0
C2874 C 0.28525 0.70357 0.13483 0.0
C2875 C 0.27375 0.67043 0.106 0.0
C2876 C 0.28198 0.71466 0.15557 0.0
C2877 C 0.26414 0.70505 0.16959 0.0
C2878 C 0.27085 0.68243 0.12806 0.0
C2879 C 0.25006 0.68387 0.16212 0.0
C2880 C 0.26399 0.646 0.10112 0.0
C2881 C 0.28768 0.67393 0.06908 0.0
N2882 N 0.25373 0.67325 0.14188 0.0
N2883 N 0.28549 0.68348 0.08993 0.0
H2884 H 0.15737 0.49713 0.89527 0.0
H2885 H 0.02691 0.50938 0.94352 0.0
H2886 H 0.0942 0.51297 0.8527 0.0
H2887 H 0.08306 0.46293 0.97489 0.0
H2888 H 0.05066 0.51127 0.90997 0.0
H2889 H 0.13043 0.48591 0.92514 0.0
C2890 C 0.13783 0.49818 0.89217 0.0
C2891 C 0.12803 0.50611 0.87146 0.0
C2892 C 0.05752 0.50025 0.92406 0.0
C2893 C 0.09712 0.49331 0.90562 0.0
C2894 C 0.04397 0.49911 0.94317 0.0
C2895 C 0.05312 0.48612 0.96206 0.0
C2896 C 0.08057 0.4888 0.92405 0.0
C2897 C 0.07532 0.47317 0.96072 0.0
C2898 C 0.12247 0.49157 0.90918 0.0
C2899 C 0.10255 0.50695 0.86839 0.0
N2900 N 0.08854 0.47525 0.94218 0.0
N2901 N 0.08796 0.50091 0.88538 0.0
H2902 H 0.32514 0.45669 0.58475 0.0
H2903 H 0.34189 0.31847 0.64076 0.0
H2904 H 0.33826 0.38721 0.54807 0.0
H2905 H 0.32055 0.38598 0.67663 0.0
H2906 H 0.34611 0.34463 0.60752 0.0
H2907 H 0.32904 0.43239 0.61942 0.0
C2908 C 0.3291 0.43639 0.584 0.0
C2909 C 0.33117 0.4239 0.56349 0.0
C2910 C 0.34069 0.35377 0.62271 0.0
C2911 C 0.33556 0.39598 0.60304 0.0
C2912 C 0.33818 0.33882 0.64168 0.0
C2913 C 0.33061 0.34997 0.66149 0.0
C2914 C 0.33554 0.38011 0.62347 0.0
C2915 C 0.32657 0.37655 0.66179 0.0
C2916 C 0.33126 0.42251 0.60379 0.0
C2917 C 0.33634 0.39758 0.5635 0.0
N2918 N 0.32888 0.39067 0.64302 0.0
N2919 N 0.3382 0.38447 0.58295 0.0
H2920 H 0.47001 0.52766 0.24846 0.0
H2921 H 0.45447 0.45706 0.13108 0.0
H2922 H 0.40543 0.48429 0.22858 0.0
H2923 H 0.5058 0.5191 0.14411 0.0
H2924 H 0.43746 0.46466 0.16752 0.0
H2925 H 0.4847 0.52304 0.21081 0.0
C2926 C 0.4588 0.51743 0.23611 0.0
C2927 C 0.43649 0.50635 0.24164 0.0
C2928 C 0.45246 0.47656 0.16233 0.0
C2929 C 0.45335 0.50054 0.19872 0.0
C2930 C 0.46218 0.47224 0.14152 0.0
C2931 C 0.48185 0.4872 0.13453 0.0
C2932 C 0.46257 0.49586 0.17627 0.0
C2933 C 0.49114 0.50653 0.14893 0.0
C2934 C 0.4672 0.51475 0.21464 0.0
C2935 C 0.42272 0.49322 0.225 0.0
N2936 N 0.48151 0.5102 0.1691 0.0
N2937 N 0.43149 0.49044 0.20434 0.0
H2938 H 0.30321 0.6781 0.95259 0.0
H2939 H 0.24506 0.74415 0.84731 0.0
H2940 H 0.2475 0.63859 0.91281 0.0
H2941 H 0.32281 0.73225 0.84803 0.0
H2942 H 0.24256 0.71697 0.88028 0.0
H2943 H 0.30786 0.70906 0.92212 0.0
C2944 C 0.29188 0.67605 0.93755 0.0
C2945 C 0.27488 0.65583 0.93522 0.0
C2946 C 0.26017 0.72078 0.87339 0.0
C2947 C 0.27969 0.69128 0.90098 0.0
C2948 C 0.2617 0.73642 0.85476 0.0
C2949 C 0.28422 0.74047 0.84498 0.0
C2950 C 0.28136 0.70973 0.88265 0.0
C2951 C 0.30514 0.72958 0.85512 0.0
C2952 C 0.29463 0.69359 0.92027 0.0
C2953 C 0.26078 0.65388 0.91533 0.0
N2954 N 0.30324 0.71469 0.87354 0.0
N2955 N 0.26326 0.67162 0.89907 0.0
H2956 H 0.15786 0.541 0.73196 0.0
H2957 H 0.05175 0.50449 0.64352 0.0
H2958 H 0.09471 0.49636 0.7491 0.0
H2959 H 0.1006 0.56901 0.63548 0.0
H2960 H 0.06908 0.49818 0.68089 0.0
H2961 H 0.13976 0.54721 0.69472 0.0
C2962 C 0.1403 0.53224 0.72781 0.0
C2963 C 0.12775 0.51813 0.74366 0.0
C2964 C 0.07587 0.51382 0.67098 0.0
C2965 C 0.10689 0.52536 0.7011 0.0
C2966 C 0.06581 0.51767 0.64966 0.0
C2967 C 0.07458 0.53746 0.63618 0.0
C2968 C 0.09513 0.52959 0.67889 0.0
C2969 C 0.09342 0.5533 0.64503 0.0
C2970 C 0.1299 0.536 0.70661 0.0
C2971 C 0.10499 0.50737 0.73738 0.0
N2972 N 0.10315 0.54891 0.66576 0.0
N2973 N 0.09528 0.51119 0.71655 0.0
H2974 H 0.31836 0.40854 0.45156 0.0
H2975 H 0.21408 0.36731 0.36169 0.0
H2976 H 0.25876 0.45763 0.43075 0.0
H2977 H 0.27716 0.32122 0.3781 0.0
H2978 H 0.2292 0.39982 0.38825 0.0
H2979 H 0.30342 0.37616 0.42495 0.0
C2980 C 0.30228 0.41265 0.44125 0.0
C2981 C 0.28973 0.43584 0.44352 0.0
C2982 C 0.23964 0.3825 0.38616 0.0
C2983 C 0.27229 0.39859 0.41326 0.0
C2984 C 0.23095 0.36389 0.3711 0.0
C2985 C 0.24434 0.34149 0.36769 0.0
C2986 C 0.26191 0.37872 0.3979 0.0
C2987 C 0.26603 0.33798 0.38042 0.0
C2988 C 0.29368 0.39408 0.42612 0.0
C2989 C 0.26905 0.44007 0.42961 0.0
N2990 N 0.2742 0.35648 0.39485 0.0
N2991 N 0.26086 0.42153 0.41521 0.0
H2992 H 0.37228 0.51094 0.47147 0.0
H2993 H 0.42305 0.59531 0.56419 0.0
H2994 H 0.33132 0.53284 0.528 0.0
H2995 H 0.4558 0.58915 0.50047 0.0
H2996 H 0.38324 0.58759 0.54612 0.0
H2997 H 0.39717 0.54995 0.47639 0.0
C2998 C 0.36834 0.52429 0.48465 0.0
C2999 C 0.34992 0.51895 0.49935 0.0
C3000 C 0.39901 0.58885 0.53589 0.0
C3001 C 0.37841 0.56304 0.50557 0.0
C3002 C 0.42178 0.59357 0.54625 0.0
C3003 C 0.4429 0.59091 0.53408 0.0
C3004 C 0.39781 0.58114 0.51345 0.0
C3005 C 0.4401 0.58991 0.51078 0.0
C3006 C 0.3823 0.54667 0.48738 0.0
C3007 C 0.3454 0.53656 0.51627 0.0
N3008 N 0.41805 0.58372 0.50128 0.0
N3009 N 0.35979 0.55765 0.51915 0.0
H3010 H 0.84238 0.10461 0.52513 0.0
H3011 H 0.95833 0.03987 0.47533 0.0
H3012 H 0.83975 0.0744 0.45823 0.0
H3013 H 0.94084 0.03153 0.54422 0.0
H3014 H 0.91816 0.05902 0.46776 0.0
H3015 H 0.88248 0.08532 0.53138 0.0
C3016 C 0.85038 0.09427 0.51162 0.0
C3017 C 0.8377 0.09115 0.49108 0.0
C3018 C 0.92313 0.05283 0.48447 0.0
C3019 C 0.88354 0.06904 0.49824 0.0
C3020 C 0.94598 0.04196 0.48882 0.0
C3021 C 0.95283 0.03406 0.51042 0.0
C3022 C 0.90736 0.05644 0.50197 0.0
C3023 C 0.93618 0.0372 0.52731 0.0
C3024 C 0.87314 0.08306 0.51531 0.0
C3025 C 0.84889 0.07724 0.47431 0.0
N3026 N 0.9143 0.04844 0.52278 0.0
N3027 N 0.87127 0.06678 0.47821 0.0
H3028 H 0.70721 0.0773 0.30137 0.0
H3029 H 0.68821 0.22884 0.30259 0.0
H3030 H 0.64443 0.11159 0.32997 0.0
H3031 H 0.74291 0.18946 0.26606 0.0
H3032 H 0.6715 0.18714 0.31358 0.0
H3033 H 0.72176 0.1195 0.29113 0.0
C3034 C 0.69686 0.09392 0.30609 0.0
C3035 C 0.6751 0.09119 0.31723 0.0
C3036 C 0.68696 0.18772 0.30293 0.0
C3037 C 0.69077 0.13961 0.30422 0.0
C3038 C 0.69633 0.21146 0.29646 0.0
C3039 C 0.71706 0.21255 0.28351 0.0
C3040 C 0.69851 0.16514 0.2964 0.0
C3041 C 0.72703 0.18951 0.2762 0.0
C3042 C 0.7049 0.11801 0.29983 0.0
C3043 C 0.66162 0.11316 0.32181 0.0
N3044 N 0.71779 0.16679 0.28292 0.0
N3045 N 0.6697 0.13662 0.31528 0.0
H3046 H 0.73252 0.93713 0.03501 0.0
H3047 H 0.60138 0.96703 0.98023 0.0
H3048 H 0.71653 0.93979 0.96442 0.0
H3049 H 0.6253 0.9896 0.04668 0.0
H3050 H 0.6397 0.94418 0.97634 0.0
H3051 H 0.6889 0.94186 0.04147 0.0
C3052 C 0.71965 0.9376 0.02091 0.0
C3053 C 0.72783 0.93834 0.9992 0.0
C3054 C 0.63641 0.95397 0.99182 0.0
C3055 C 0.67856 0.94423 0.00634 0.0
C3056 C 0.61467 0.96715 0.99401 0.0
C3057 C 0.61043 0.98066 0.01364 0.0
C3058 C 0.6539 0.9542 0.00944 0.0
C3059 C 0.62808 0.97985 0.03109 0.0
C3060 C 0.6949 0.94062 0.02457 0.0
C3061 C 0.71071 0.93935 0.98141 0.0
N3062 N 0.64916 0.96696 0.02852 0.0
N3063 N 0.68681 0.94266 0.98536 0.0
H3064 H 0.41055 0.40892 0.32658 0.0
H3065 H 0.30874 0.32751 0.30985 0.0
H3066 H 0.36942 0.45291 0.27783 0.0
H3067 H 0.31843 0.34403 0.24051 0.0
H3068 H 0.33981 0.35975 0.31986 0.0
H3069 H 0.38491 0.37106 0.31669 0.0
C3070 C 0.39625 0.41044 0.31376 0.0
C3071 C 0.39152 0.43389 0.30328 0.0
C3072 C 0.33527 0.3561 0.30251 0.0
C3073 C 0.36319 0.39122 0.2915 0.0
C3074 C 0.31734 0.33805 0.29673 0.0
C3075 C 0.3109 0.33338 0.27429 0.0
C3076 C 0.34644 0.36994 0.28579 0.0
C3077 C 0.32289 0.34721 0.25798 0.0
C3078 C 0.38174 0.38903 0.30815 0.0
C3079 C 0.37316 0.4351 0.28651 0.0
N3080 N 0.33984 0.36534 0.26408 0.0
N3081 N 0.35966 0.414 0.28104 0.0
H3082 H 0.18607 0.62949 0.98346 0.0
H3083 H 0.12009 0.50866 0.03822 0.0
H3084 H 0.22477 0.56729 0.01542 0.0
H3085 H 0.08206 0.57632 0.0151 0.0
H3086 H 0.15867 0.52899 0.02878 0.0
H3087 H 0.14736 0.609 0.9929 0.0
C3088 C 0.18631 0.61132 0.99216 0.0
C3089 C 0.20841 0.59955 0.99806 0.0
C3090 C 0.14187 0.53945 0.02596 0.0
C3091 C 0.16463 0.57645 0.00949 0.0
C3092 C 0.11987 0.52792 0.03149 0.0
C3093 C 0.09782 0.54079 0.02747 0.0
C3094 C 0.14178 0.56398 0.01629 0.0
C3095 C 0.09862 0.56564 0.01849 0.0
C3096 C 0.16433 0.5997 0.99766 0.0
C3097 C 0.20798 0.57641 0.00986 0.0
N3098 N 0.12021 0.57635 0.0131 0.0
N3099 N 0.18643 0.56555 0.01514 0.0
H3100 H 0.72331 0.9567 0.34849 0.0
H3101 H 0.76617 0.86454 0.25232 0.0
H3102 H 0.69333 0.96026 0.28122 0.0
H3103 H 0.76279 0.83877 0.32022 0.0
H3104 H 0.74747 0.90506 0.26303 0.0
H3105 H 0.74538 0.91776 0.3386 0.0
C3106 C 0.72135 0.94926 0.33169 0.0
C3107 C 0.70633 0.96153 0.31569 0.0
C3108 C 0.75101 0.89054 0.27556 0.0
C3109 C 0.73184 0.91771 0.30425 0.0
C3110 C 0.7618 0.86757 0.26952 0.0
C3111 C 0.76583 0.84831 0.28541 0.0
C3112 C 0.74469 0.89436 0.29768 0.0
C3113 C 0.75976 0.85311 0.30746 0.0
C3114 C 0.7339 0.92714 0.32609 0.0
C3115 C 0.70447 0.95119 0.29414 0.0
N3116 N 0.74949 0.87574 0.31299 0.0
N3117 N 0.71723 0.92996 0.28899 0.0
H3118 H 0.85201 0.0629 0.84451 0.0
H3119 H 0.80856 0.17027 0.75923 0.0
H3120 H 0.87945 0.06716 0.77838 0.0
H3121 H 0.81596 0.18538 0.8297 0.0
H3122 H 0.82797 0.12856 0.76529 0.0
H3123 H 0.83245 0.10454 0.83872 0.0
C3124 C 0.85393 0.07263 0.82878 0.0
C3125 C 0.86741 0.06165 0.8119 0.0
C3126 C 0.82526 0.14103 0.77939 0.0
C3127 C 0.84477 0.10888 0.8051 0.0
C3128 C 0.81404 0.16469 0.776 0.0
C3129 C 0.81069 0.18125 0.79402 0.0
C3130 C 0.83269 0.13371 0.80098 0.0
C3131 C 0.81829 0.17318 0.81537 0.0
C3132 C 0.84284 0.09636 0.82554 0.0
C3133 C 0.86938 0.07508 0.79187 0.0
N3134 N 0.82883 0.14987 0.81829 0.0
N3135 N 0.85795 0.09793 0.78893 0.0
loop_
_geom_bond_atom_site_label_1
_geom_bond_atom_site_label_2
_geom_bond_distance
_geom_bond_site_symmetry_2
_ccdc_geom_bond_type
Mn0 O5 2.095 . S
Mn0 O15 2.162 . S
Mn0 O16 2.297 . S
Mn0 O24 2.385 . S
Mn0 O25 2.209 . S
Mn0 O26 2.094 . S
Mn1 O6 2.121 . S
Mn1 N8 2.257 . S
Mn1 N17 2.282 . S
Mn1 O25 2.215 . S
Mn1 O27 2.117 . S
C2 O24 1.234 . S
C2 O25 1.283 . S
C3 O15 1.281 . S
C3 O16 1.236 . S
C4 O26 1.240 . S
C4 O27 1.264 . S
O5 Mn0 2.095 . S
O5 C14 1.250 . S
O6 Mn1 2.121 . S
O6 C14 1.258 . S
C7 N8 1.326 . S
C7 C11 1.460 . S
C7 H13 0.929 . S
N8 Mn1 2.257 . S
N8 C7 1.326 . S
N8 C12 1.362 . S
C9 C10 1.258 . S
C9 C12 1.431 . S
C9 C29 1.449 . S
C10 C9 1.258 . S
C10 C11 1.477 . S
C10 H30 0.931 . S
C11 C7 1.460 . S
C11 C10 1.477 . S
C11 H31 0.930 . S
C12 N8 1.362 . S
C12 C9 1.431 . S
C12 C22 1.476 . S
H13 C7 0.929 . S
C14 O5 1.250 . S
C14 O6 1.258 . S
O15 Mn0 2.162 . S
O15 C3 1.281 . S
O16 Mn0 2.297 . S
O16 C3 1.236 . S
N17 Mn1 2.282 . S
N17 C18 1.328 1_455 S
N17 C22 1.318 . S
C18 N17 1.328 1_655 S
C18 C19 1.457 . S
C18 H23 0.929 . S
C19 C18 1.457 . S
C19 C20 1.291 . S
C19 H32 0.931 . S
C20 C19 1.291 . S
C20 C21 1.373 . S
C20 H33 0.929 . S
C21 C20 1.373 . S
C21 C22 1.396 1_655 S
C21 C28 1.403 . S
C22 C12 1.476 . S
C22 N17 1.318 . S
C22 C21 1.396 1_455 S
H23 C18 0.929 . S
O24 Mn0 2.385 . S
O24 C2 1.234 . S
O25 Mn0 2.209 . S
O25 Mn1 2.215 . S
O25 C2 1.283 . S
O26 Mn0 2.094 . S
O26 C4 1.240 . S
O27 Mn1 2.117 . S
O27 C4 1.264 . S
C28 C21 1.403 . S
C28 C29 1.399 1_655 S
C28 H34 0.929 . S
C29 C9 1.449 . S
C29 C28 1.399 1_455 S
C29 H35 0.930 . S
H30 C10 0.931 . S
H31 C11 0.930 . S
H32 C19 0.931 . S
H33 C20 0.929 . S
H34 C28 0.929 . S
H35 C29 0.930 . S
Mn36 O41 2.095 . S
Mn36 O51 2.162 . S
Mn36 O52 2.297 . S
Mn36 O60 2.385 . S
Mn36 O61 2.209 . S
Mn36 O62 2.094 . S
Mn37 O42 2.121 1_655 S
Mn37 N44 2.255 1_655 S
Mn37 N53 2.282 . S
Mn37 O61 2.215 1_655 S
Mn37 O63 2.117 . S
C38 O60 1.234 . S
C38 O61 1.283 . S
C39 O51 1.281 . S
C39 O52 1.236 . S
C40 O62 1.240 1_655 S
C40 O63 1.264 . S
O41 Mn36 2.095 . S
O41 C50 1.250 . S
O42 Mn37 2.121 1_455 S
O42 C50 1.258 . S
C43 N44 1.334 . S
C43 C47 1.460 . S
C43 H49 0.929 . S
N44 Mn37 2.255 1_455 S
N44 C43 1.334 . S
N44 C48 1.355 1_455 S
C45 C46 1.258 1_655 S
C45 C48 1.431 . S
C45 C65 1.449 . S
C46 C45 1.258 1_455 S
C46 C47 1.477 . S
C46 H66 0.931 . S
C47 C43 1.460 . S
C47 C46 1.477 . S
C47 H67 0.930 . S
C48 N44 1.355 1_655 S
C48 C45 1.431 . S
C48 C58 1.476 . S
H49 C43 0.929 . S
C50 O41 1.250 . S
C50 O42 1.258 . S
O51 Mn36 2.162 . S
O51 C39 1.281 . S
O52 Mn36 2.297 . S
O52 C39 1.236 . S
N53 Mn37 2.282 . S
N53 C54 1.328 . S
N53 C58 1.318 . S
C54 N53 1.328 . S
C54 C55 1.457 . S
C54 H59 0.929 . S
C55 C54 1.457 . S
C55 C56 1.291 . S
C55 H68 0.931 . S
C56 C55 1.291 . S
C56 C57 1.373 . S
C56 H69 0.929 . S
C57 C56 1.373 . S
C57 C58 1.396 . S
C57 C64 1.403 . S
C58 C48 1.476 . S
C58 N53 1.318 . S
C58 C57 1.396 . S
H59 C54 0.929 . S
O60 Mn36 2.385 . S
O60 C38 1.234 . S
O61 Mn36 2.209 . S
O61 Mn37 2.215 1_455 S
O61 C38 1.283 . S
O62 Mn36 2.094 . S
O62 C40 1.240 1_455 S
O63 Mn37 2.117 . S
O63 C40 1.264 . S
C64 C57 1.403 . S
C64 C65 1.399 . S
C64 H70 0.929 . S
C65 C45 1.449 . S
C65 C64 1.399 . S
C65 H71 0.930 . S
H66 C46 0.931 . S
H67 C47 0.930 . S
H68 C55 0.931 . S
H69 C56 0.929 . S
H70 C64 0.929 . S
H71 C65 0.930 . S
Mn72 O77 2.095 . S
Mn72 O87 2.162 . S
Mn72 O88 2.297 . S
Mn72 O96 2.385 . S
Mn72 O97 2.209 . S
Mn72 O98 2.094 . S
Mn73 O78 2.121 . S
Mn73 N80 2.257 . S
Mn73 N89 2.282 . S
Mn73 O97 2.215 . S
Mn73 O99 2.117 . S
C74 O96 1.234 . S
C74 O97 1.283 . S
C75 O87 1.281 . S
C75 O88 1.236 . S
C76 O98 1.240 . S
C76 O99 1.264 . S
O77 Mn72 2.095 . S
O77 C86 1.250 . S
O78 Mn73 2.121 . S
O78 C86 1.258 . S
C79 N80 1.326 . S
C79 C83 1.460 . S
C79 H85 0.929 . S
N80 Mn73 2.257 . S
N80 C79 1.326 . S
N80 C84 1.362 . S
C81 C82 1.258 . S
C81 C84 1.431 . S
C81 C101 1.449 . S
C82 C81 1.258 . S
C82 C83 1.477 . S
C82 H102 0.931 . S
C83 C79 1.460 . S
C83 C82 1.477 . S
C83 H103 0.930 . S
C84 N80 1.362 . S
C84 C81 1.431 . S
C84 C94 1.476 . S
H85 C79 0.929 . S
C86 O77 1.250 . S
C86 O78 1.258 . S
O87 Mn72 2.162 . S
O87 C75 1.281 . S
O88 Mn72 2.297 . S
O88 C75 1.236 . S
N89 Mn73 2.282 . S
N89 C90 1.328 . S
N89 C94 1.318 . S
C90 N89 1.328 . S
C90 C91 1.457 . S
C90 H95 0.929 . S
C91 C90 1.457 . S
C91 C92 1.291 . S
C91 H104 0.931 . S
C92 C91 1.291 . S
C92 C93 1.373 . S
C92 H105 0.929 . S
C93 C92 1.373 . S
C93 C94 1.396 . S
C93 C100 1.403 . S
C94 C84 1.476 . S
C94 N89 1.318 . S
C94 C93 1.396 . S
H95 C90 0.929 . S
O96 Mn72 2.385 . S
O96 C74 1.234 . S
O97 Mn72 2.209 . S
O97 Mn73 2.215 . S
O97 C74 1.283 . S
O98 Mn72 2.094 . S
O98 C76 1.240 . S
O99 Mn73 2.117 . S
O99 C76 1.264 . S
C100 C93 1.403 . S
C100 C101 1.399 . S
C100 H106 0.929 . S
C101 C81 1.449 . S
C101 C100 1.399 . S
C101 H107 0.930 . S
H102 C82 0.931 . S
H103 C83 0.930 . S
H104 C91 0.931 . S
H105 C92 0.929 . S
H106 C100 0.929 . S
H107 C101 0.930 . S
Mn108 O113 2.095 . S
Mn108 O123 2.162 . S
Mn108 O124 2.297 . S
Mn108 O132 2.385 . S
Mn108 O133 2.209 . S
Mn108 O134 2.094 . S
Mn109 O114 2.121 . S
Mn109 N116 2.257 . S
Mn109 N125 2.282 . S
Mn109 O133 2.215 . S
Mn109 O135 2.117 . S
C110 O132 1.234 . S
C110 O133 1.283 . S
C111 O123 1.281 . S
C111 O124 1.236 . S
C112 O134 1.240 . S
C112 O135 1.264 . S
O113 Mn108 2.095 . S
O113 C122 1.250 . S
O114 Mn109 2.121 . S
O114 C122 1.258 . S
C115 N116 1.326 . S
C115 C119 1.460 1_556 S
C115 H121 0.929 . S
N116 Mn109 2.257 . S
N116 C115 1.326 . S
N116 C120 1.362 . S
C117 C118 1.258 1_556 S
C117 C120 1.431 . S
C117 C137 1.449 1_556 S
C118 C117 1.258 1_554 S
C118 C119 1.477 . S
C118 H138 0.931 . S
C119 C115 1.460 1_554 S
C119 C118 1.477 . S
C119 H139 0.930 . S
C120 N116 1.362 . S
C120 C117 1.431 . S
C120 C130 1.476 . S
H121 C115 0.929 . S
C122 O113 1.250 . S
C122 O114 1.258 . S
O123 Mn108 2.162 . S
O123 C111 1.281 . S
O124 Mn108 2.297 . S
O124 C111 1.236 . S
N125 Mn109 2.282 . S
N125 C126 1.328 . S
N125 C130 1.318 . S
C126 N125 1.328 . S
C126 C127 1.457 . S
C126 H131 0.929 . S
C127 C126 1.457 . S
C127 C128 1.291 . S
C127 H140 0.931 . S
C128 C127 1.291 . S
C128 C129 1.373 . S
C128 H141 0.929 . S
C129 C128 1.373 . S
C129 C130 1.396 . S
C129 C136 1.403 . S
C130 C120 1.476 . S
C130 N125 1.318 . S
C130 C129 1.396 . S
H131 C126 0.929 . S
O132 Mn108 2.385 . S
O132 C110 1.234 . S
O133 Mn108 2.209 . S
O133 Mn109 2.215 . S
O133 C110 1.283 . S
O134 Mn108 2.094 . S
O134 C112 1.240 . S
O135 Mn109 2.117 . S
O135 C112 1.264 . S
C136 C129 1.403 . S
C136 C137 1.399 1_556 S
C136 H142 0.929 . S
C137 C117 1.449 1_554 S
C137 C136 1.399 1_554 S
C137 H143 0.930 . S
H138 C118 0.931 . S
H139 C119 0.930 . S
H140 C127 0.931 . S
H141 C128 0.929 . S
H142 C136 0.929 . S
H143 C137 0.930 . S
Mn144 O149 2.095 1_545 S
Mn144 O159 2.162 . S
Mn144 O160 2.297 . S
Mn144 O168 2.385 . S
Mn144 O169 2.209 . S
Mn144 O170 2.094 . S
Mn145 O150 2.121 1_545 S
Mn145 N152 2.257 . S
Mn145 N161 2.282 . S
Mn145 O169 2.215 . S
Mn145 O171 2.117 . S
C146 O168 1.234 . S
C146 O169 1.283 . S
C147 O159 1.281 . S
C147 O160 1.236 . S
C148 O170 1.240 . S
C148 O171 1.264 . S
O149 Mn144 2.095 1_565 S
O149 C158 1.250 . S
O150 Mn145 2.121 1_565 S
O150 C158 1.258 . S
C151 N152 1.326 . S
C151 C155 1.460 . S
C151 H157 0.929 . S
N152 Mn145 2.257 . S
N152 C151 1.326 . S
N152 C156 1.362 . S
C153 C154 1.258 . S
C153 C156 1.431 . S
C153 C173 1.449 . S
C154 C153 1.258 . S
C154 C155 1.477 . S
C154 H174 0.931 . S
C155 C151 1.460 . S
C155 C154 1.477 . S
C155 H175 0.930 . S
C156 N152 1.362 . S
C156 C153 1.431 . S
C156 C166 1.476 . S
H157 C151 0.929 . S
C158 O149 1.250 . S
C158 O150 1.258 . S
O159 Mn144 2.162 . S
O159 C147 1.281 . S
O160 Mn144 2.297 . S
O160 C147 1.236 . S
N161 Mn145 2.282 . S
N161 C162 1.328 . S
N161 C166 1.318 . S
C162 N161 1.328 . S
C162 C163 1.457 . S
C162 H167 0.929 . S
C163 C162 1.457 . S
C163 C164 1.291 . S
C163 H176 0.931 . S
C164 C163 1.291 . S
C164 C165 1.373 . S
C164 H177 0.929 . S
C165 C164 1.373 . S
C165 C166 1.396 . S
C165 C172 1.403 . S
C166 C156 1.476 . S
C166 N161 1.318 . S
C166 C165 1.396 . S
H167 C162 0.929 . S
O168 Mn144 2.385 . S
O168 C146 1.234 . S
O169 Mn144 2.209 . S
O169 Mn145 2.215 . S
O169 C146 1.283 . S
O170 Mn144 2.094 . S
O170 C148 1.240 . S
O171 Mn145 2.117 . S
O171 C148 1.264 . S
C172 C165 1.403 . S
C172 C173 1.399 . S
C172 H178 0.929 . S
C173 C153 1.449 . S
C173 C172 1.399 . S
C173 H179 0.930 . S
H174 C154 0.931 . S
H175 C155 0.930 . S
H176 C163 0.931 . S
H177 C164 0.929 . S
H178 C172 0.929 . S
H179 C173 0.930 . S
Mn180 O185 2.095 . S
Mn180 O195 2.162 . S
Mn180 O196 2.297 . S
Mn180 O204 2.385 . S
Mn180 O205 2.209 . S
Mn180 O206 2.094 . S
Mn181 O186 2.121 . S
Mn181 N188 2.257 . S
Mn181 N197 2.282 . S
Mn181 O205 2.215 . S
Mn181 O207 2.117 . S
C182 O204 1.234 . S
C182 O205 1.283 . S
C183 O195 1.281 . S
C183 O196 1.236 . S
C184 O206 1.240 . S
C184 O207 1.264 . S
O185 Mn180 2.095 . S
O185 C194 1.250 . S
O186 Mn181 2.121 . S
O186 C194 1.258 . S
C187 N188 1.326 1_545 S
C187 C191 1.460 . S
C187 H193 0.929 1_545 S
N188 Mn181 2.257 . S
N188 C187 1.326 1_565 S
N188 C192 1.362 . S
C189 C190 1.258 . S
C189 C192 1.431 1_545 S
C189 C209 1.449 . S
C190 C189 1.258 . S
C190 C191 1.477 . S
C190 H210 0.931 . S
C191 C187 1.460 . S
C191 C190 1.477 . S
C191 H211 0.930 . S
C192 N188 1.362 . S
C192 C189 1.431 1_565 S
C192 C202 1.476 . S
H193 C187 0.929 1_565 S
C194 O185 1.250 . S
C194 O186 1.258 . S
O195 Mn180 2.162 . S
O195 C183 1.281 . S
O196 Mn180 2.297 . S
O196 C183 1.236 . S
N197 Mn181 2.282 . S
N197 C198 1.328 . S
N197 C202 1.318 . S
C198 N197 1.328 . S
C198 C199 1.457 . S
C198 H203 0.929 . S
C199 C198 1.457 . S
C199 C200 1.291 . S
C199 H212 0.931 . S
C200 C199 1.291 . S
C200 C201 1.373 . S
C200 H213 0.929 . S
C201 C200 1.373 . S
C201 C202 1.396 . S
C201 C208 1.403 1_565 S
C202 C192 1.476 . S
C202 N197 1.318 . S
C202 C201 1.396 . S
H203 C198 0.929 . S
O204 Mn180 2.385 . S
O204 C182 1.234 . S
O205 Mn180 2.209 . S
O205 Mn181 2.215 . S
O205 C182 1.283 . S
O206 Mn180 2.094 . S
O206 C184 1.240 . S
O207 Mn181 2.117 . S
O207 C184 1.264 . S
C208 C201 1.403 1_545 S
C208 C209 1.399 . S
C208 H214 0.929 . S
C209 C189 1.449 . S
C209 C208 1.399 . S
C209 H215 0.930 . S
H210 C190 0.931 . S
H211 C191 0.930 . S
H212 C199 0.931 . S
H213 C200 0.929 . S
H214 C208 0.929 . S
H215 C209 0.930 . S
Mn216 O221 2.095 . S
Mn216 O231 2.162 . S
Mn216 O232 2.297 . S
Mn216 O240 2.385 1_545 S
Mn216 O241 2.209 1_545 S
Mn216 O242 2.094 . S
Mn217 O222 2.121 . S
Mn217 N224 2.250 1_545 S
Mn217 N233 2.282 1_545 S
Mn217 O241 2.215 1_545 S
Mn217 O243 2.117 . S
C218 O240 1.234 . S
C218 O241 1.283 . S
C219 O231 1.281 . S
C219 O232 1.236 . S
C220 O242 1.240 . S
C220 O243 1.264 . S
O221 Mn216 2.095 . S
O221 C230 1.250 . S
O222 Mn217 2.121 . S
O222 C230 1.258 . S
C223 N224 1.310 1_545 S
C223 C227 1.460 . S
C223 H229 0.929 . S
N224 Mn217 2.250 1_565 S
N224 C223 1.310 1_565 S
N224 C228 1.386 . S
C225 C226 1.258 . S
C225 C228 1.431 . S
C225 C245 1.449 . S
C226 C225 1.258 . S
C226 C227 1.477 1_565 S
C226 H246 0.931 . S
C227 C223 1.460 . S
C227 C226 1.477 1_545 S
C227 H247 0.930 . S
C228 N224 1.386 . S
C228 C225 1.431 . S
C228 C238 1.476 . S
H229 C223 0.929 . S
C230 O221 1.250 . S
C230 O222 1.258 . S
O231 Mn216 2.162 . S
O231 C219 1.281 . S
O232 Mn216 2.297 . S
O232 C219 1.236 . S
N233 Mn217 2.282 1_565 S
N233 C234 1.328 . S
N233 C238 1.318 . S
C234 N233 1.328 . S
C234 C235 1.457 . S
C234 H239 0.929 . S
C235 C234 1.457 . S
C235 C236 1.291 . S
C235 H248 0.931 . S
C236 C235 1.291 . S
C236 C237 1.373 . S
C236 H249 0.929 . S
C237 C236 1.373 . S
C237 C238 1.396 . S
C237 C244 1.403 . S
C238 C228 1.476 . S
C238 N233 1.318 . S
C238 C237 1.396 . S
H239 C234 0.929 . S
O240 Mn216 2.385 1_565 S
O240 C218 1.234 . S
O241 Mn216 2.209 1_565 S
O241 Mn217 2.215 1_565 S
O241 C218 1.283 . S
O242 Mn216 2.094 . S
O242 C220 1.240 . S
O243 Mn217 2.117 . S
O243 C220 1.264 . S
C244 C237 1.403 . S
C244 C245 1.399 . S
C244 H250 0.929 . S
C245 C225 1.449 . S
C245 C244 1.399 . S
C245 H251 0.930 . S
H246 C226 0.931 . S
H247 C227 0.930 . S
H248 C235 0.931 . S
H249 C236 0.929 . S
H250 C244 0.929 . S
H251 C245 0.930 . S
Mn252 O257 2.095 . S
Mn252 O267 2.162 . S
Mn252 O268 2.297 . S
Mn252 O276 2.385 . S
Mn252 O277 2.209 . S
Mn252 O278 2.094 1_554 S
Mn253 O258 2.121 1_556 S
Mn253 N260 2.257 . S
Mn253 N269 2.282 . S
Mn253 O277 2.215 1_556 S
Mn253 O279 2.117 . S
C254 O276 1.234 . S
C254 O277 1.283 . S
C255 O267 1.281 . S
C255 O268 1.236 . S
C256 O278 1.240 . S
C256 O279 1.264 . S
O257 Mn252 2.095 . S
O257 C266 1.250 . S
O258 Mn253 2.121 1_554 S
O258 C266 1.258 . S
C259 N260 1.326 1_554 S
C259 C263 1.460 1_545 S
C259 H265 0.929 . S
N260 Mn253 2.257 . S
N260 C259 1.326 1_556 S
N260 C264 1.362 . S
C261 C262 1.258 1_545 S
C261 C264 1.431 . S
C261 C281 1.449 1_545 S
C262 C261 1.258 1_565 S
C262 C263 1.477 1_556 S
C262 H282 0.931 . S
C263 C259 1.460 1_565 S
C263 C262 1.477 1_554 S
C263 H283 0.930 . S
C264 N260 1.362 . S
C264 C261 1.431 . S
C264 C274 1.476 . S
H265 C259 0.929 . S
C266 O257 1.250 . S
C266 O258 1.258 . S
O267 Mn252 2.162 . S
O267 C255 1.281 . S
O268 Mn252 2.297 . S
O268 C255 1.236 . S
N269 Mn253 2.282 . S
N269 C270 1.328 . S
N269 C274 1.318 . S
C270 N269 1.328 . S
C270 C271 1.457 . S
C270 H275 0.929 . S
C271 C270 1.457 . S
C271 C272 1.291 . S
C271 H284 0.931 . S
C272 C271 1.291 . S
C272 C273 1.373 . S
C272 H285 0.929 . S
C273 C272 1.373 . S
C273 C274 1.396 . S
C273 C280 1.403 . S
C274 C264 1.476 . S
C274 N269 1.318 . S
C274 C273 1.396 . S
H275 C270 0.929 . S
O276 Mn252 2.385 . S
O276 C254 1.234 . S
O277 Mn252 2.209 . S
O277 Mn253 2.215 1_554 S
O277 C254 1.283 . S
O278 Mn252 2.094 1_556 S
O278 C256 1.240 . S
O279 Mn253 2.117 . S
O279 C256 1.264 . S
C280 C273 1.403 . S
C280 C281 1.399 1_545 S
C280 H286 0.929 . S
C281 C261 1.449 1_565 S
C281 C280 1.399 1_565 S
C281 H287 0.930 . S
H282 C262 0.931 . S
H283 C263 0.930 . S
H284 C271 0.931 . S
H285 C272 0.929 . S
H286 C280 0.929 . S
H287 C281 0.930 . S
Mn288 O293 2.095 . S
Mn288 O303 2.162 . S
Mn288 O304 2.297 . S
Mn288 O312 2.385 . S
Mn288 O313 2.209 . S
Mn288 O314 2.094 . S
Mn289 O294 2.121 . S
Mn289 N296 2.257 . S
Mn289 N305 2.270 1_554 S
Mn289 O313 2.215 . S
Mn289 O315 2.117 . S
C290 O312 1.234 . S
C290 O313 1.283 . S
C291 O303 1.281 . S
C291 O304 1.236 . S
C292 O314 1.240 . S
C292 O315 1.264 . S
O293 Mn288 2.095 . S
O293 C302 1.250 . S
O294 Mn289 2.121 . S
O294 C302 1.258 . S
C295 N296 1.326 . S
C295 C299 1.460 . S
C295 H301 0.929 . S
N296 Mn289 2.257 . S
N296 C295 1.326 . S
N296 C300 1.362 . S
C297 C298 1.258 . S
C297 C300 1.431 . S
C297 C317 1.449 . S
C298 C297 1.258 . S
C298 C299 1.477 . S
C298 H318 0.931 . S
C299 C295 1.460 . S
C299 C298 1.477 . S
C299 H319 0.930 . S
C300 N296 1.362 . S
C300 C297 1.431 . S
C300 C310 1.491 . S
H301 C295 0.929 . S
C302 O293 1.250 . S
C302 O294 1.258 . S
O303 Mn288 2.162 . S
O303 C291 1.281 . S
O304 Mn288 2.297 . S
O304 C291 1.236 . S
N305 Mn289 2.270 1_556 S
N305 C306 1.339 . S
N305 C310 1.317 1_556 S
C306 N305 1.339 . S
C306 C307 1.457 . S
C306 H311 0.929 . S
C307 C306 1.457 . S
C307 C308 1.291 . S
C307 H320 0.931 . S
C308 C307 1.291 . S
C308 C309 1.373 . S
C308 H321 0.929 . S
C309 C308 1.373 . S
C309 C310 1.383 1_556 S
C309 C316 1.403 . S
C310 C300 1.491 . S
C310 N305 1.317 1_554 S
C310 C309 1.383 1_554 S
H311 C306 0.929 . S
O312 Mn288 2.385 . S
O312 C290 1.234 . S
O313 Mn288 2.209 . S
O313 Mn289 2.215 . S
O313 C290 1.283 . S
O314 Mn288 2.094 . S
O314 C292 1.240 . S
O315 Mn289 2.117 . S
O315 C292 1.264 . S
C316 C309 1.403 . S
C316 C317 1.399 1_556 S
C316 H322 0.929 . S
C317 C297 1.449 . S
C317 C316 1.399 1_554 S
C317 H323 0.930 . S
H318 C298 0.931 . S
H319 C299 0.930 . S
H320 C307 0.931 . S
H321 C308 0.929 . S
H322 C316 0.929 . S
H323 C317 0.930 . S
Mn324 O329 2.095 . S
Mn324 O339 2.162 . S
Mn324 O340 2.297 . S
Mn324 O348 2.385 . S
Mn324 O349 2.209 . S
Mn324 O350 2.094 . S
Mn325 O330 2.121 . S
Mn325 N332 2.257 . S
Mn325 N341 2.282 . S
Mn325 O349 2.215 . S
Mn325 O351 2.117 . S
C326 O348 1.234 . S
C326 O349 1.283 . S
C327 O339 1.281 . S
C327 O340 1.236 . S
C328 O350 1.240 . S
C328 O351 1.264 . S
O329 Mn324 2.095 . S
O329 C338 1.250 . S
O330 Mn325 2.121 . S
O330 C338 1.258 . S
C331 N332 1.326 . S
C331 C335 1.460 . S
C331 H337 0.929 . S
N332 Mn325 2.257 . S
N332 C331 1.326 . S
N332 C336 1.362 . S
C333 C334 1.258 . S
C333 C336 1.431 . S
C333 C353 1.449 . S
C334 C333 1.258 . S
C334 C335 1.477 . S
C334 H354 0.931 . S
C335 C331 1.460 . S
C335 C334 1.477 . S
C335 H355 0.930 . S
C336 N332 1.362 . S
C336 C333 1.431 . S
C336 C346 1.476 . S
H337 C331 0.929 . S
C338 O329 1.250 . S
C338 O330 1.258 . S
O339 Mn324 2.162 . S
O339 C327 1.281 . S
O340 Mn324 2.297 . S
O340 C327 1.236 . S
N341 Mn325 2.282 . S
N341 C342 1.328 . S
N341 C346 1.318 . S
C342 N341 1.328 . S
C342 C343 1.457 . S
C342 H347 0.929 . S
C343 C342 1.457 . S
C343 C344 1.291 . S
C343 H356 0.931 . S
C344 C343 1.291 . S
C344 C345 1.373 . S
C344 H357 0.929 . S
C345 C344 1.373 . S
C345 C346 1.396 . S
C345 C352 1.403 . S
C346 C336 1.476 . S
C346 N341 1.318 . S
C346 C345 1.396 . S
H347 C342 0.929 . S
O348 Mn324 2.385 . S
O348 C326 1.234 . S
O349 Mn324 2.209 . S
O349 Mn325 2.215 . S
O349 C326 1.283 . S
O350 Mn324 2.094 . S
O350 C328 1.240 . S
O351 Mn325 2.117 . S
O351 C328 1.264 . S
C352 C345 1.403 . S
C352 C353 1.399 . S
C352 H358 0.929 . S
C353 C333 1.449 . S
C353 C352 1.399 . S
C353 H359 0.930 . S
H354 C334 0.931 . S
H355 C335 0.930 . S
H356 C343 0.931 . S
H357 C344 0.929 . S
H358 C352 0.929 . S
H359 C353 0.930 . S
Mn360 O365 2.095 . S
Mn360 O375 2.162 . S
Mn360 O376 2.297 . S
Mn360 O384 2.385 . S
Mn360 O385 2.209 . S
Mn360 O386 2.094 . S
Mn361 O366 2.121 . S
Mn361 N368 2.257 . S
Mn361 N377 2.282 . S
Mn361 O385 2.215 . S
Mn361 O387 2.117 . S
C362 O384 1.234 . S
C362 O385 1.283 . S
C363 O375 1.281 . S
C363 O376 1.236 . S
C364 O386 1.240 . S
C364 O387 1.264 . S
O365 Mn360 2.095 . S
O365 C374 1.250 . S
O366 Mn361 2.121 . S
O366 C374 1.258 . S
C367 N368 1.326 . S
C367 C371 1.460 . S
C367 H373 0.929 . S
N368 Mn361 2.257 . S
N368 C367 1.326 . S
N368 C372 1.362 . S
C369 C370 1.258 . S
C369 C372 1.431 . S
C369 C389 1.449 . S
C370 C369 1.258 . S
C370 C371 1.477 . S
C370 H390 0.931 . S
C371 C367 1.460 . S
C371 C370 1.477 . S
C371 H391 0.930 . S
C372 N368 1.362 . S
C372 C369 1.431 . S
C372 C382 1.476 . S
H373 C367 0.929 . S
C374 O365 1.250 . S
C374 O366 1.258 . S
O375 Mn360 2.162 . S
O375 C363 1.281 . S
O376 Mn360 2.297 . S
O376 C363 1.236 . S
N377 Mn361 2.282 . S
N377 C378 1.328 . S
N377 C382 1.318 . S
C378 N377 1.328 . S
C378 C379 1.457 . S
C378 H383 0.929 . S
C379 C378 1.457 . S
C379 C380 1.291 . S
C379 H392 0.931 . S
C380 C379 1.291 . S
C380 C381 1.373 . S
C380 H393 0.929 . S
C381 C380 1.373 . S
C381 C382 1.396 . S
C381 C388 1.403 . S
C382 C372 1.476 . S
C382 N377 1.318 . S
C382 C381 1.396 . S
H383 C378 0.929 . S
O384 Mn360 2.385 . S
O384 C362 1.234 . S
O385 Mn360 2.209 . S
O385 Mn361 2.215 . S
O385 C362 1.283 . S
O386 Mn360 2.094 . S
O386 C364 1.240 . S
O387 Mn361 2.117 . S
O387 C364 1.264 . S
C388 C381 1.403 . S
C388 C389 1.399 . S
C388 H394 0.929 . S
C389 C369 1.449 . S
C389 C388 1.399 . S
C389 H395 0.930 . S
H390 C370 0.931 . S
H391 C371 0.930 . S
H392 C379 0.931 . S
H393 C380 0.929 . S
H394 C388 0.929 . S
H395 C389 0.930 . S
Mn396 O401 2.095 . S
Mn396 O411 2.162 . S
Mn396 O412 2.297 . S
Mn396 O420 2.385 . S
Mn396 O421 2.209 . S
Mn396 O422 2.094 . S
Mn397 O402 2.121 . S
Mn397 N404 2.257 . S
Mn397 N413 2.282 . S
Mn397 O421 2.215 . S
Mn397 O423 2.117 . S
C398 O420 1.234 . S
C398 O421 1.283 . S
C399 O411 1.281 . S
C399 O412 1.236 . S
C400 O422 1.240 . S
C400 O423 1.264 . S
O401 Mn396 2.095 . S
O401 C410 1.250 . S
O402 Mn397 2.121 . S
O402 C410 1.258 . S
C403 N404 1.326 . S
C403 C407 1.460 . S
C403 H409 0.929 . S
N404 Mn397 2.257 . S
N404 C403 1.326 . S
N404 C408 1.362 . S
C405 C406 1.258 . S
C405 C408 1.431 . S
C405 C425 1.449 . S
C406 C405 1.258 . S
C406 C407 1.477 . S
C406 H426 0.931 . S
C407 C403 1.460 . S
C407 C406 1.477 . S
C407 H427 0.930 . S
C408 N404 1.362 . S
C408 C405 1.431 . S
C408 C418 1.476 . S
H409 C403 0.929 . S
C410 O401 1.250 . S
C410 O402 1.258 . S
O411 Mn396 2.162 . S
O411 C399 1.281 . S
O412 Mn396 2.297 . S
O412 C399 1.236 . S
N413 Mn397 2.282 . S
N413 C414 1.328 . S
N413 C418 1.318 . S
C414 N413 1.328 . S
C414 C415 1.457 . S
C414 H419 0.929 . S
C415 C414 1.457 . S
C415 C416 1.291 . S
C415 H428 0.931 . S
C416 C415 1.291 . S
C416 C417 1.373 . S
C416 H429 0.929 . S
C417 C416 1.373 . S
C417 C418 1.396 . S
C417 C424 1.403 . S
C418 C408 1.476 . S
C418 N413 1.318 . S
C418 C417 1.396 . S
H419 C414 0.929 . S
O420 Mn396 2.385 . S
O420 C398 1.234 . S
O421 Mn396 2.209 . S
O421 Mn397 2.215 . S
O421 C398 1.283 . S
O422 Mn396 2.094 . S
O422 C400 1.240 . S
O423 Mn397 2.117 . S
O423 C400 1.264 . S
C424 C417 1.403 . S
C424 C425 1.399 . S
C424 H430 0.929 . S
C425 C405 1.449 . S
C425 C424 1.399 . S
C425 H431 0.930 . S
H426 C406 0.931 . S
H427 C407 0.930 . S
H428 C415 0.931 . S
H429 C416 0.929 . S
H430 C424 0.929 . S
H431 C425 0.930 . S
Mn432 O437 2.095 1_455 S
Mn432 O447 2.162 . S
Mn432 O448 2.297 . S
Mn432 O456 2.385 . S
Mn432 O457 2.209 1_455 S
Mn432 O458 2.094 1_455 S
Mn433 O438 2.121 . S
Mn433 N440 2.257 . S
Mn433 N449 2.282 . S
Mn433 O457 2.215 . S
Mn433 O459 2.117 . S
C434 O456 1.234 . S
C434 O457 1.283 1_455 S
C435 O447 1.281 . S
C435 O448 1.236 . S
C436 O458 1.240 . S
C436 O459 1.264 . S
O437 Mn432 2.095 1_655 S
O437 C446 1.250 . S
O438 Mn433 2.121 . S
O438 C446 1.258 . S
C439 N440 1.326 . S
C439 C443 1.459 1_556 S
C439 H445 0.929 . S
N440 Mn433 2.257 . S
N440 C439 1.326 . S
N440 C444 1.362 . S
C441 C442 1.258 1_556 S
C441 C444 1.431 . S
C441 C461 1.449 . S
C442 C441 1.258 1_554 S
C442 C443 1.477 . S
C442 H462 0.931 . S
C443 C439 1.459 1_554 S
C443 C442 1.477 . S
C443 H463 0.931 . S
C444 N440 1.362 . S
C444 C441 1.431 . S
C444 C454 1.476 . S
H445 C439 0.929 . S
C446 O437 1.250 . S
C446 O438 1.258 . S
O447 Mn432 2.162 . S
O447 C435 1.281 . S
O448 Mn432 2.297 . S
O448 C435 1.236 . S
N449 Mn433 2.282 . S
N449 C450 1.328 . S
N449 C454 1.318 . S
C450 N449 1.328 . S
C450 C451 1.457 . S
C450 H455 0.929 . S
C451 C450 1.457 . S
C451 C452 1.291 . S
C451 H464 0.931 . S
C452 C451 1.291 . S
C452 C453 1.373 . S
C452 H465 0.929 . S
C453 C452 1.373 . S
C453 C454 1.396 . S
C453 C460 1.403 . S
C454 C444 1.476 . S
C454 N449 1.318 . S
C454 C453 1.396 . S
H455 C450 0.929 . S
O456 Mn432 2.385 . S
O456 C434 1.234 . S
O457 Mn432 2.209 1_655 S
O457 Mn433 2.215 . S
O457 C434 1.283 1_655 S
O458 Mn432 2.094 1_655 S
O458 C436 1.240 . S
O459 Mn433 2.117 . S
O459 C436 1.264 . S
C460 C453 1.403 . S
C460 C461 1.399 . S
C460 H466 0.929 . S
C461 C441 1.449 . S
C461 C460 1.399 . S
C461 H467 0.930 1_556 S
H462 C442 0.931 . S
H463 C443 0.931 . S
H464 C451 0.931 . S
H465 C452 0.929 . S
H466 C460 0.929 . S
H467 C461 0.930 1_554 S
Mn468 O473 2.095 . S
Mn468 O483 2.162 . S
Mn468 O484 2.297 . S
Mn468 O492 2.385 . S
Mn468 O493 2.209 . S
Mn468 O494 2.094 . S
Mn469 O474 2.121 1_655 S
Mn469 N476 2.257 . S
Mn469 N485 2.282 . S
Mn469 O493 2.215 1_655 S
Mn469 O495 2.117 . S
C470 O492 1.234 . S
C470 O493 1.283 . S
C471 O483 1.281 . S
C471 O484 1.236 . S
C472 O494 1.240 1_655 S
C472 O495 1.264 . S
O473 Mn468 2.095 . S
O473 C482 1.250 . S
O474 Mn469 2.121 1_455 S
O474 C482 1.258 . S
C475 N476 1.326 1_455 S
C475 C479 1.460 . S
C475 H481 0.929 . S
N476 Mn469 2.257 . S
N476 C475 1.326 1_655 S
N476 C480 1.362 . S
C477 C478 1.258 . S
C477 C480 1.431 . S
C477 C497 1.449 . S
C478 C477 1.258 . S
C478 C479 1.477 1_655 S
C478 H498 0.931 . S
C479 C475 1.460 . S
C479 C478 1.477 1_455 S
C479 H499 0.930 . S
C480 N476 1.362 . S
C480 C477 1.431 . S
C480 C490 1.476 . S
H481 C475 0.929 . S
C482 O473 1.250 . S
C482 O474 1.258 . S
O483 Mn468 2.162 . S
O483 C471 1.281 . S
O484 Mn468 2.297 . S
O484 C471 1.236 . S
N485 Mn469 2.282 . S
N485 C486 1.328 . S
N485 C490 1.318 . S
C486 N485 1.328 . S
C486 C487 1.457 . S
C486 H491 0.929 . S
C487 C486 1.457 . S
C487 C488 1.291 . S
C487 H500 0.931 . S
C488 C487 1.291 . S
C488 C489 1.373 . S
C488 H501 0.929 . S
C489 C488 1.373 . S
C489 C490 1.396 . S
C489 C496 1.403 . S
C490 C480 1.476 . S
C490 N485 1.318 . S
C490 C489 1.396 . S
H491 C486 0.929 . S
O492 Mn468 2.385 . S
O492 C470 1.234 . S
O493 Mn468 2.209 . S
O493 Mn469 2.215 1_455 S
O493 C470 1.283 . S
O494 Mn468 2.094 . S
O494 C472 1.240 1_455 S
O495 Mn469 2.117 . S
O495 C472 1.264 . S
C496 C489 1.403 . S
C496 C497 1.399 . S
C496 H502 0.929 . S
C497 C477 1.449 . S
C497 C496 1.399 . S
C497 H503 0.930 . S
H498 C478 0.931 . S
H499 C479 0.930 . S
H500 C487 0.931 . S
H501 C488 0.929 . S
H502 C496 0.929 . S
H503 C497 0.930 . S
Mn504 O509 2.095 . S
Mn504 O519 2.162 . S
Mn504 O520 2.297 . S
Mn504 O528 2.385 . S
Mn504 O529 2.209 . S
Mn504 O530 2.094 . S
Mn505 O510 2.121 . S
Mn505 N512 2.257 . S
Mn505 N521 2.282 . S
Mn505 O529 2.215 . S
Mn505 O531 2.117 . S
C506 O528 1.234 . S
C506 O529 1.283 . S
C507 O519 1.281 . S
C507 O520 1.236 . S
C508 O530 1.240 . S
C508 O531 1.264 . S
O509 Mn504 2.095 . S
O509 C518 1.250 . S
O510 Mn505 2.121 . S
O510 C518 1.258 . S
C511 N512 1.326 . S
C511 C515 1.460 . S
C511 H517 0.929 . S
N512 Mn505 2.257 . S
N512 C511 1.326 . S
N512 C516 1.362 . S
C513 C514 1.258 . S
C513 C516 1.431 . S
C513 C533 1.449 . S
C514 C513 1.258 . S
C514 C515 1.477 . S
C514 H534 0.931 . S
C515 C511 1.460 . S
C515 C514 1.477 . S
C515 H535 0.930 . S
C516 N512 1.362 . S
C516 C513 1.431 . S
C516 C526 1.476 . S
H517 C511 0.929 . S
C518 O509 1.250 . S
C518 O510 1.258 . S
O519 Mn504 2.162 . S
O519 C507 1.281 . S
O520 Mn504 2.297 . S
O520 C507 1.236 . S
N521 Mn505 2.282 . S
N521 C522 1.328 . S
N521 C526 1.318 . S
C522 N521 1.328 . S
C522 C523 1.457 . S
C522 H527 0.929 . S
C523 C522 1.457 . S
C523 C524 1.291 . S
C523 H536 0.931 . S
C524 C523 1.291 . S
C524 C525 1.373 . S
C524 H537 0.929 . S
C525 C524 1.373 . S
C525 C526 1.396 . S
C525 C532 1.403 . S
C526 C516 1.476 . S
C526 N521 1.318 . S
C526 C525 1.396 . S
H527 C522 0.929 . S
O528 Mn504 2.385 . S
O528 C506 1.234 . S
O529 Mn504 2.209 . S
O529 Mn505 2.215 . S
O529 C506 1.283 . S
O530 Mn504 2.094 . S
O530 C508 1.240 . S
O531 Mn505 2.117 . S
O531 C508 1.264 . S
C532 C525 1.403 . S
C532 C533 1.399 . S
C532 H538 0.929 . S
C533 C513 1.449 . S
C533 C532 1.399 . S
C533 H539 0.930 . S
H534 C514 0.931 . S
H535 C515 0.930 . S
H536 C523 0.931 . S
H537 C524 0.929 . S
H538 C532 0.929 . S
H539 C533 0.930 . S
Mn540 O545 2.095 . S
Mn540 O555 2.162 . S
Mn540 O556 2.297 . S
Mn540 O564 2.385 . S
Mn540 O565 2.209 . S
Mn540 O566 2.094 . S
Mn541 O546 2.121 . S
Mn541 N548 2.257 . S
Mn541 N557 2.282 . S
Mn541 O565 2.215 . S
Mn541 O567 2.117 . S
C542 O564 1.234 . S
C542 O565 1.283 . S
C543 O555 1.281 . S
C543 O556 1.236 . S
C544 O566 1.240 . S
C544 O567 1.264 . S
O545 Mn540 2.095 . S
O545 C554 1.250 . S
O546 Mn541 2.121 . S
O546 C554 1.258 . S
C547 N548 1.326 . S
C547 C551 1.460 . S
C547 H553 0.929 . S
N548 Mn541 2.257 . S
N548 C547 1.326 . S
N548 C552 1.362 . S
C549 C550 1.258 . S
C549 C552 1.431 . S
C549 C569 1.449 . S
C550 C549 1.258 . S
C550 C551 1.477 . S
C550 H570 0.931 . S
C551 C547 1.460 . S
C551 C550 1.477 . S
C551 H571 0.930 . S
C552 N548 1.362 . S
C552 C549 1.431 . S
C552 C562 1.476 . S
H553 C547 0.929 . S
C554 O545 1.250 . S
C554 O546 1.258 . S
O555 Mn540 2.162 . S
O555 C543 1.281 . S
O556 Mn540 2.297 . S
O556 C543 1.236 . S
N557 Mn541 2.282 . S
N557 C558 1.328 . S
N557 C562 1.318 . S
C558 N557 1.328 . S
C558 C559 1.457 . S
C558 H563 0.929 . S
C559 C558 1.457 . S
C559 C560 1.291 . S
C559 H572 0.931 . S
C560 C559 1.291 . S
C560 C561 1.373 . S
C560 H573 0.929 . S
C561 C560 1.373 . S
C561 C562 1.396 . S
C561 C568 1.403 . S
C562 C552 1.476 . S
C562 N557 1.318 . S
C562 C561 1.396 . S
H563 C558 0.929 . S
O564 Mn540 2.385 . S
O564 C542 1.234 . S
O565 Mn540 2.209 . S
O565 Mn541 2.215 . S
O565 C542 1.283 . S
O566 Mn540 2.094 . S
O566 C544 1.240 . S
O567 Mn541 2.117 . S
O567 C544 1.264 . S
C568 C561 1.403 . S
C568 C569 1.399 . S
C568 H574 0.929 . S
C569 C549 1.449 . S
C569 C568 1.399 . S
C569 H575 0.930 . S
H570 C550 0.931 . S
H571 C551 0.930 . S
H572 C559 0.931 . S
H573 C560 0.929 . S
H574 C568 0.929 . S
H575 C569 0.930 . S
Mn576 O581 2.095 . S
Mn576 O591 2.162 . S
Mn576 O592 2.297 . S
Mn576 O600 2.385 1_545 S
Mn576 O601 2.209 1_545 S
Mn576 O602 2.094 . S
Mn577 O582 2.121 . S
Mn577 N584 2.257 1_545 S
Mn577 N593 2.282 1_545 S
Mn577 O601 2.215 1_545 S
Mn577 O603 2.117 . S
C578 O600 1.234 . S
C578 O601 1.283 . S
C579 O591 1.281 . S
C579 O592 1.236 . S
C580 O602 1.240 . S
C580 O603 1.264 . S
O581 Mn576 2.095 . S
O581 C590 1.250 . S
O582 Mn577 2.121 . S
O582 C590 1.258 . S
C583 N584 1.326 1_545 S
C583 C587 1.460 . S
C583 H589 0.929 . S
N584 Mn577 2.257 1_565 S
N584 C583 1.326 1_565 S
N584 C588 1.362 . S
C585 C586 1.258 . S
C585 C588 1.431 . S
C585 C605 1.449 . S
C586 C585 1.258 . S
C586 C587 1.477 1_565 S
C586 H606 0.931 . S
C587 C583 1.460 . S
C587 C586 1.477 1_545 S
C587 H607 0.930 . S
C588 N584 1.362 . S
C588 C585 1.431 . S
C588 C598 1.476 . S
H589 C583 0.929 . S
C590 O581 1.250 . S
C590 O582 1.258 . S
O591 Mn576 2.162 . S
O591 C579 1.281 . S
O592 Mn576 2.297 . S
O592 C579 1.236 . S
N593 Mn577 2.282 1_565 S
N593 C594 1.328 . S
N593 C598 1.318 . S
C594 N593 1.328 . S
C594 C595 1.457 . S
C594 H599 0.929 . S
C595 C594 1.457 . S
C595 C596 1.291 . S
C595 H608 0.931 . S
C596 C595 1.291 . S
C596 C597 1.373 . S
C596 H609 0.929 . S
C597 C596 1.373 . S
C597 C598 1.396 . S
C597 C604 1.403 . S
C598 C588 1.476 . S
C598 N593 1.318 . S
C598 C597 1.396 . S
H599 C594 0.929 . S
O600 Mn576 2.385 1_565 S
O600 C578 1.234 . S
O601 Mn576 2.209 1_565 S
O601 Mn577 2.215 1_565 S
O601 C578 1.283 . S
O602 Mn576 2.094 . S
O602 C580 1.240 . S
O603 Mn577 2.117 . S
O603 C580 1.264 . S
C604 C597 1.403 . S
C604 C605 1.399 . S
C604 H610 0.929 . S
C605 C585 1.449 . S
C605 C604 1.399 . S
C605 H611 0.930 . S
H606 C586 0.931 . S
H607 C587 0.930 . S
H608 C595 0.931 . S
H609 C596 0.929 . S
H610 C604 0.929 . S
H611 C605 0.930 . S
Mn612 O617 2.095 . S
Mn612 O627 2.162 . S
Mn612 O628 2.297 . S
Mn612 O636 2.385 . S
Mn612 O637 2.209 . S
Mn612 O638 2.094 . S
Mn613 O618 2.121 . S
Mn613 N620 2.257 . S
Mn613 N629 2.282 . S
Mn613 O637 2.215 . S
Mn613 O639 2.117 . S
C614 O636 1.234 . S
C614 O637 1.283 . S
C615 O627 1.281 . S
C615 O628 1.236 . S
C616 O638 1.240 . S
C616 O639 1.264 . S
O617 Mn612 2.095 . S
O617 C626 1.250 . S
O618 Mn613 2.121 . S
O618 C626 1.258 . S
C619 N620 1.326 . S
C619 C623 1.460 1_545 S
C619 H625 0.929 . S
N620 Mn613 2.257 . S
N620 C619 1.326 . S
N620 C624 1.362 . S
C621 C622 1.258 1_545 S
C621 C624 1.431 . S
C621 C641 1.449 . S
C622 C621 1.258 1_565 S
C622 C623 1.477 . S
C622 H642 0.931 . S
C623 C619 1.460 1_565 S
C623 C622 1.477 . S
C623 H643 0.930 . S
C624 N620 1.362 . S
C624 C621 1.431 . S
C624 C634 1.476 . S
H625 C619 0.929 . S
C626 O617 1.250 . S
C626 O618 1.258 . S
O627 Mn612 2.162 . S
O627 C615 1.281 . S
O628 Mn612 2.297 . S
O628 C615 1.236 . S
N629 Mn613 2.282 . S
N629 C630 1.328 . S
N629 C634 1.318 . S
C630 N629 1.328 . S
C630 C631 1.457 . S
C630 H635 0.929 . S
C631 C630 1.457 . S
C631 C632 1.291 . S
C631 H644 0.931 . S
C632 C631 1.291 . S
C632 C633 1.373 . S
C632 H645 0.929 . S
C633 C632 1.373 . S
C633 C634 1.396 . S
C633 C640 1.403 . S
C634 C624 1.476 . S
C634 N629 1.318 . S
C634 C633 1.396 . S
H635 C630 0.929 . S
O636 Mn612 2.385 . S
O636 C614 1.234 . S
O637 Mn612 2.209 . S
O637 Mn613 2.215 . S
O637 C614 1.283 . S
O638 Mn612 2.094 . S
O638 C616 1.240 . S
O639 Mn613 2.117 . S
O639 C616 1.264 . S
C640 C633 1.403 . S
C640 C641 1.399 . S
C640 H646 0.929 . S
C641 C621 1.449 . S
C641 C640 1.399 . S
C641 H647 0.930 1_545 S
H642 C622 0.931 . S
H643 C623 0.930 . S
H644 C631 0.931 . S
H645 C632 0.929 . S
H646 C640 0.929 . S
H647 C641 0.930 1_565 S
Mn648 O653 2.095 1_545 S
Mn648 O663 2.162 . S
Mn648 O664 2.297 . S
Mn648 O672 2.385 . S
Mn648 O673 2.209 . S
Mn648 O674 2.094 . S
Mn649 O654 2.121 1_545 S
Mn649 N656 2.257 . S
Mn649 N665 2.282 . S
Mn649 O673 2.215 . S
Mn649 O675 2.117 . S
C650 O672 1.234 . S
C650 O673 1.283 . S
C651 O663 1.281 . S
C651 O664 1.236 . S
C652 O674 1.240 . S
C652 O675 1.264 . S
O653 Mn648 2.095 1_565 S
O653 C662 1.250 . S
O654 Mn649 2.121 1_565 S
O654 C662 1.258 . S
C655 N656 1.326 . S
C655 C659 1.460 . S
C655 H661 0.929 1_545 S
N656 Mn649 2.257 . S
N656 C655 1.326 . S
N656 C660 1.362 . S
C657 C658 1.258 . S
C657 C660 1.431 . S
C657 C677 1.449 . S
C658 C657 1.258 . S
C658 C659 1.477 . S
C658 H678 0.931 . S
C659 C655 1.460 . S
C659 C658 1.477 . S
C659 H679 0.930 . S
C660 N656 1.362 . S
C660 C657 1.431 . S
C660 C670 1.476 . S
H661 C655 0.929 1_565 S
C662 O653 1.250 . S
C662 O654 1.258 . S
O663 Mn648 2.162 . S
O663 C651 1.281 . S
O664 Mn648 2.297 . S
O664 C651 1.236 . S
N665 Mn649 2.282 . S
N665 C666 1.328 . S
N665 C670 1.318 . S
C666 N665 1.328 . S
C666 C667 1.457 . S
C666 H671 0.929 . S
C667 C666 1.457 . S
C667 C668 1.291 . S
C667 H680 0.931 . S
C668 C667 1.291 . S
C668 C669 1.373 . S
C668 H681 0.929 . S
C669 C668 1.373 . S
C669 C670 1.396 . S
C669 C676 1.403 . S
C670 C660 1.476 . S
C670 N665 1.318 . S
C670 C669 1.396 . S
H671 C666 0.929 . S
O672 Mn648 2.385 . S
O672 C650 1.234 . S
O673 Mn648 2.209 . S
O673 Mn649 2.215 . S
O673 C650 1.283 . S
O674 Mn648 2.094 . S
O674 C652 1.240 . S
O675 Mn649 2.117 . S
O675 C652 1.264 . S
C676 C669 1.403 . S
C676 C677 1.399 . S
C676 H682 0.929 . S
C677 C657 1.449 . S
C677 C676 1.399 . S
C677 H683 0.930 . S
H678 C658 0.931 . S
H679 C659 0.930 . S
H680 C667 0.931 . S
H681 C668 0.929 . S
H682 C676 0.929 . S
H683 C677 0.930 . S
Mn684 O689 2.095 . S
Mn684 O699 2.162 . S
Mn684 O700 2.297 . S
Mn684 O708 2.385 . S
Mn684 O709 2.209 . S
Mn684 O710 2.094 1_554 S
Mn685 O690 2.121 1_556 S
Mn685 N692 2.257 . S
Mn685 N701 2.282 . S
Mn685 O709 2.215 1_556 S
Mn685 O711 2.117 . S
C686 O708 1.234 . S
C686 O709 1.283 . S
C687 O699 1.281 . S
C687 O700 1.236 . S
C688 O710 1.240 . S
C688 O711 1.264 . S
O689 Mn684 2.095 . S
O689 C698 1.250 . S
O690 Mn685 2.121 1_554 S
O690 C698 1.258 . S
C691 N692 1.326 1_544 S
C691 C695 1.460 . S
C691 H697 0.929 . S
N692 Mn685 2.257 . S
N692 C691 1.326 1_566 S
N692 C696 1.366 . S
C693 C694 1.258 . S
C693 C696 1.420 1_545 S
C693 C713 1.449 . S
C694 C693 1.258 . S
C694 C695 1.477 1_556 S
C694 H714 0.931 . S
C695 C691 1.460 . S
C695 C694 1.477 1_554 S
C695 H715 0.930 . S
C696 N692 1.366 . S
C696 C693 1.420 1_565 S
C696 C706 1.484 . S
H697 C691 0.929 . S
C698 O689 1.250 . S
C698 O690 1.258 . S
O699 Mn684 2.162 . S
O699 C687 1.281 . S
O700 Mn684 2.297 . S
O700 C687 1.236 . S
N701 Mn685 2.282 . S
N701 C702 1.328 . S
N701 C706 1.318 . S
C702 N701 1.328 . S
C702 C703 1.457 . S
C702 H707 0.929 . S
C703 C702 1.457 . S
C703 C704 1.291 . S
C703 H716 0.931 . S
C704 C703 1.291 . S
C704 C705 1.373 . S
C704 H717 0.929 . S
C705 C704 1.373 . S
C705 C706 1.396 . S
C705 C712 1.403 1_565 S
C706 C696 1.484 . S
C706 N701 1.318 . S
C706 C705 1.396 . S
H707 C702 0.929 . S
O708 Mn684 2.385 . S
O708 C686 1.234 . S
O709 Mn684 2.209 . S
O709 Mn685 2.215 1_554 S
O709 C686 1.283 . S
O710 Mn684 2.094 1_556 S
O710 C688 1.240 . S
O711 Mn685 2.117 . S
O711 C688 1.264 . S
C712 C705 1.403 1_545 S
C712 C713 1.399 . S
C712 H718 0.929 . S
C713 C693 1.449 . S
C713 C712 1.399 . S
C713 H719 0.930 . S
H714 C694 0.931 . S
H715 C695 0.930 . S
H716 C703 0.931 . S
H717 C704 0.929 . S
H718 C712 0.929 . S
H719 C713 0.930 . S
Mn720 O725 2.095 1_554 S
Mn720 O735 2.162 . S
Mn720 O736 2.297 . S
Mn720 O744 2.385 . S
Mn720 O745 2.209 1_554 S
Mn720 O746 2.094 1_554 S
Mn721 O726 2.121 . S
Mn721 N728 2.257 . S
Mn721 N737 2.282 . S
Mn721 O745 2.215 . S
Mn721 O747 2.117 . S
C722 O744 1.237 . S
C722 O745 1.280 1_554 S
C723 O735 1.281 . S
C723 O736 1.236 . S
C724 O746 1.240 . S
C724 O747 1.264 . S
O725 Mn720 2.095 1_556 S
O725 C734 1.250 . S
O726 Mn721 2.121 . S
O726 C734 1.258 . S
C727 N728 1.326 . S
C727 C731 1.460 . S
C727 H733 0.929 . S
N728 Mn721 2.257 . S
N728 C727 1.326 . S
N728 C732 1.362 . S
C729 C730 1.258 . S
C729 C732 1.431 . S
C729 C749 1.449 . S
C730 C729 1.258 . S
C730 C731 1.477 . S
C730 H750 0.931 . S
C731 C727 1.460 . S
C731 C730 1.477 . S
C731 H751 0.930 . S
C732 N728 1.362 . S
C732 C729 1.431 . S
C732 C742 1.476 . S
H733 C727 0.929 . S
C734 O725 1.250 . S
C734 O726 1.258 . S
O735 Mn720 2.162 . S
O735 C723 1.281 . S
O736 Mn720 2.297 . S
O736 C723 1.236 . S
N737 Mn721 2.282 . S
N737 C738 1.328 . S
N737 C742 1.318 . S
C738 N737 1.328 . S
C738 C739 1.457 . S
C738 H743 0.929 . S
C739 C738 1.457 . S
C739 C740 1.291 . S
C739 H752 0.931 . S
C740 C739 1.291 . S
C740 C741 1.373 . S
C740 H753 0.929 . S
C741 C740 1.373 . S
C741 C742 1.396 . S
C741 C748 1.403 . S
C742 C732 1.476 . S
C742 N737 1.318 . S
C742 C741 1.396 . S
H743 C738 0.929 . S
O744 Mn720 2.385 . S
O744 C722 1.237 . S
O745 Mn720 2.209 1_556 S
O745 Mn721 2.215 . S
O745 C722 1.280 1_556 S
O746 Mn720 2.094 1_556 S
O746 C724 1.240 . S
O747 Mn721 2.117 . S
O747 C724 1.264 . S
C748 C741 1.403 . S
C748 C749 1.399 . S
C748 H754 0.929 . S
C749 C729 1.449 . S
C749 C748 1.399 . S
C749 H755 0.930 . S
H750 C730 0.931 . S
H751 C731 0.930 . S
H752 C739 0.931 . S
H753 C740 0.929 . S
H754 C748 0.929 . S
H755 C749 0.930 . S
Mn756 O761 2.095 . S
Mn756 O771 2.162 . S
Mn756 O772 2.297 . S
Mn756 O780 2.385 . S
Mn756 O781 2.209 . S
Mn756 O782 2.094 . S
Mn757 O762 2.121 . S
Mn757 N764 2.257 . S
Mn757 N773 2.282 . S
Mn757 O781 2.215 . S
Mn757 O783 2.117 . S
C758 O780 1.234 . S
C758 O781 1.283 . S
C759 O771 1.281 . S
C759 O772 1.236 . S
C760 O782 1.240 . S
C760 O783 1.264 . S
O761 Mn756 2.095 . S
O761 C770 1.250 . S
O762 Mn757 2.121 . S
O762 C770 1.258 . S
C763 N764 1.326 . S
C763 C767 1.460 . S
C763 H769 0.929 . S
N764 Mn757 2.257 . S
N764 C763 1.326 . S
N764 C768 1.362 . S
C765 C766 1.258 . S
C765 C768 1.431 . S
C765 C785 1.449 . S
C766 C765 1.258 . S
C766 C767 1.477 . S
C766 H786 0.931 . S
C767 C763 1.460 . S
C767 C766 1.477 . S
C767 H787 0.930 . S
C768 N764 1.362 . S
C768 C765 1.431 . S
C768 C778 1.476 . S
H769 C763 0.929 . S
C770 O761 1.250 . S
C770 O762 1.258 . S
O771 Mn756 2.162 . S
O771 C759 1.281 . S
O772 Mn756 2.297 . S
O772 C759 1.236 . S
N773 Mn757 2.282 . S
N773 C774 1.328 . S
N773 C778 1.318 . S
C774 N773 1.328 . S
C774 C775 1.457 . S
C774 H779 0.929 . S
C775 C774 1.457 . S
C775 C776 1.291 . S
C775 H788 0.931 . S
C776 C775 1.291 . S
C776 C777 1.373 . S
C776 H789 0.929 . S
C777 C776 1.373 . S
C777 C778 1.396 . S
C777 C784 1.403 . S
C778 C768 1.476 . S
C778 N773 1.318 . S
C778 C777 1.396 . S
H779 C774 0.929 . S
O780 Mn756 2.385 . S
O780 C758 1.234 . S
O781 Mn756 2.209 . S
O781 Mn757 2.215 . S
O781 C758 1.283 . S
O782 Mn756 2.094 . S
O782 C760 1.240 . S
O783 Mn757 2.117 . S
O783 C760 1.264 . S
C784 C777 1.403 . S
C784 C785 1.399 . S
C784 H790 0.929 . S
C785 C765 1.449 . S
C785 C784 1.399 . S
C785 H791 0.930 . S
H786 C766 0.931 . S
H787 C767 0.930 . S
H788 C775 0.931 . S
H789 C776 0.929 . S
H790 C784 0.929 . S
H791 C785 0.930 . S
Mn792 O797 2.095 . S
Mn792 O807 2.162 . S
Mn792 O808 2.297 . S
Mn792 O816 2.385 . S
Mn792 O817 2.209 . S
Mn792 O818 2.094 . S
Mn793 O798 2.121 . S
Mn793 N800 2.257 . S
Mn793 N809 2.282 . S
Mn793 O817 2.215 . S
Mn793 O819 2.117 . S
C794 O816 1.234 . S
C794 O817 1.283 . S
C795 O807 1.281 . S
C795 O808 1.236 . S
C796 O818 1.240 . S
C796 O819 1.264 . S
O797 Mn792 2.095 . S
O797 C806 1.250 . S
O798 Mn793 2.121 . S
O798 C806 1.258 . S
C799 N800 1.326 . S
C799 C803 1.460 . S
C799 H805 0.929 . S
N800 Mn793 2.257 . S
N800 C799 1.326 . S
N800 C804 1.362 . S
C801 C802 1.258 . S
C801 C804 1.431 . S
C801 C821 1.449 . S
C802 C801 1.258 . S
C802 C803 1.477 . S
C802 H822 0.931 . S
C803 C799 1.460 . S
C803 C802 1.477 . S
C803 H823 0.930 . S
C804 N800 1.362 . S
C804 C801 1.431 . S
C804 C814 1.476 . S
H805 C799 0.929 . S
C806 O797 1.250 . S
C806 O798 1.258 . S
O807 Mn792 2.162 . S
O807 C795 1.281 . S
O808 Mn792 2.297 . S
O808 C795 1.236 . S
N809 Mn793 2.282 . S
N809 C810 1.328 . S
N809 C814 1.318 . S
C810 N809 1.328 . S
C810 C811 1.457 . S
C810 H815 0.929 . S
C811 C810 1.457 . S
C811 C812 1.291 . S
C811 H824 0.931 . S
C812 C811 1.291 . S
C812 C813 1.373 . S
C812 H825 0.929 . S
C813 C812 1.373 . S
C813 C814 1.396 . S
C813 C820 1.403 . S
C814 C804 1.476 . S
C814 N809 1.318 . S
C814 C813 1.396 . S
H815 C810 0.929 . S
O816 Mn792 2.385 . S
O816 C794 1.234 . S
O817 Mn792 2.209 . S
O817 Mn793 2.215 . S
O817 C794 1.283 . S
O818 Mn792 2.094 . S
O818 C796 1.240 . S
O819 Mn793 2.117 . S
O819 C796 1.264 . S
C820 C813 1.403 . S
C820 C821 1.399 . S
C820 H826 0.929 . S
C821 C801 1.449 . S
C821 C820 1.399 . S
C821 H827 0.930 . S
H822 C802 0.931 . S
H823 C803 0.930 . S
H824 C811 0.931 . S
H825 C812 0.929 . S
H826 C820 0.929 . S
H827 C821 0.930 . S
Mn828 O833 2.095 . S
Mn828 O843 2.162 . S
Mn828 O844 2.297 . S
Mn828 O852 2.385 . S
Mn828 O853 2.209 . S
Mn828 O854 2.094 . S
Mn829 O834 2.121 . S
Mn829 N836 2.257 . S
Mn829 N845 2.282 . S
Mn829 O853 2.215 . S
Mn829 O855 2.117 . S
C830 O852 1.234 . S
C830 O853 1.283 . S
C831 O843 1.281 . S
C831 O844 1.236 . S
C832 O854 1.240 . S
C832 O855 1.264 . S
O833 Mn828 2.095 . S
O833 C842 1.250 . S
O834 Mn829 2.121 . S
O834 C842 1.258 . S
C835 N836 1.326 . S
C835 C839 1.460 . S
C835 H841 0.929 . S
N836 Mn829 2.257 . S
N836 C835 1.326 . S
N836 C840 1.362 . S
C837 C838 1.258 . S
C837 C840 1.431 . S
C837 C857 1.449 . S
C838 C837 1.258 . S
C838 C839 1.477 . S
C838 H858 0.931 . S
C839 C835 1.460 . S
C839 C838 1.477 . S
C839 H859 0.930 . S
C840 N836 1.362 . S
C840 C837 1.431 . S
C840 C850 1.476 . S
H841 C835 0.929 . S
C842 O833 1.250 . S
C842 O834 1.258 . S
O843 Mn828 2.162 . S
O843 C831 1.281 . S
O844 Mn828 2.297 . S
O844 C831 1.236 . S
N845 Mn829 2.282 . S
N845 C846 1.328 . S
N845 C850 1.318 . S
C846 N845 1.328 . S
C846 C847 1.457 . S
C846 H851 0.929 . S
C847 C846 1.457 . S
C847 C848 1.291 . S
C847 H860 0.931 . S
C848 C847 1.291 . S
C848 C849 1.373 . S
C848 H861 0.929 . S
C849 C848 1.373 . S
C849 C850 1.396 . S
C849 C856 1.403 . S
C850 C840 1.476 . S
C850 N845 1.318 . S
C850 C849 1.396 . S
H851 C846 0.929 . S
O852 Mn828 2.385 . S
O852 C830 1.234 . S
O853 Mn828 2.209 . S
O853 Mn829 2.215 . S
O853 C830 1.283 . S
O854 Mn828 2.094 . S
O854 C832 1.240 . S
O855 Mn829 2.117 . S
O855 C832 1.264 . S
C856 C849 1.403 . S
C856 C857 1.399 . S
C856 H862 0.929 . S
C857 C837 1.449 . S
C857 C856 1.399 . S
C857 H863 0.930 . S
H858 C838 0.931 . S
H859 C839 0.930 . S
H860 C847 0.931 . S
H861 C848 0.929 . S
H862 C856 0.929 . S
H863 C857 0.930 . S
C864 O880 1.263 1_556 S
C864 O882 1.254 . S
N865 C866 1.333 1_565 S
N865 C870 1.307 . S
N865 Zn871 2.020 1_665 S
C866 N865 1.333 1_545 S
C866 C867 1.379 . S
C866 H884 0.952 . S
C867 C866 1.379 . S
C867 C868 1.390 1_545 S
C867 H894 0.949 . S
C868 C867 1.390 1_565 S
C868 C869 1.357 . S
C869 C868 1.357 . S
C869 C870 1.370 . S
C869 H895 0.950 . S
C870 N865 1.307 . S
C870 C869 1.370 . S
C870 H888 0.948 . S
Zn871 N865 2.020 1_445 S
Zn871 O880 2.042 . S
Zn871 O886 2.034 . S
Zn871 O890 2.025 1_545 S
Zn871 O892 2.024 1_545 S
C872 O891 1.246 . S
C872 O892 1.249 . S
N873 C874 1.307 1_554 S
N873 C875 1.333 . S
N873 Zn879 2.020 . S
C874 N873 1.307 1_556 S
C874 C878 1.370 . S
C874 H885 0.948 . S
C875 N873 1.333 . S
C875 C876 1.379 . S
C875 H883 0.952 . S
C876 C875 1.379 . S
C876 C877 1.390 . S
C876 H896 0.949 . S
C877 C876 1.390 . S
C877 C878 1.357 1_554 S
C878 C874 1.370 . S
C878 C877 1.357 1_556 S
C878 H897 0.950 . S
Zn879 N873 2.020 . S
Zn879 O882 2.025 1_554 S
Zn879 O887 2.024 . S
Zn879 O889 2.039 . S
Zn879 O891 2.034 1_545 S
O880 C864 1.263 1_554 S
O880 Zn871 2.042 . S
C881 O886 1.246 . S
C881 O887 1.249 . S
O882 C864 1.254 . S
O882 Zn879 2.025 1_556 S
H883 C875 0.952 . S
H884 C866 0.952 . S
H885 C874 0.948 . S
O886 Zn871 2.034 . S
O886 C881 1.246 . S
O887 Zn879 2.024 . S
O887 C881 1.249 . S
H888 C870 0.948 . S
O889 Zn879 2.039 . S
O889 C893 1.251 . S
O890 Zn871 2.025 1_565 S
O890 C893 1.254 1_565 S
O891 C872 1.246 . S
O891 Zn879 2.034 1_565 S
O892 Zn871 2.024 1_565 S
O892 C872 1.249 . S
C893 O889 1.251 . S
C893 O890 1.254 1_545 S
H894 C867 0.949 . S
H895 C869 0.950 . S
H896 C876 0.949 . S
H897 C878 0.950 . S
C898 O914 1.251 . S
C898 O916 1.254 . S
N899 C900 1.333 . S
N899 C904 1.307 . S
N899 Zn905 2.020 . S
C900 N899 1.333 . S
C900 C901 1.379 . S
C900 H918 0.952 . S
C901 C900 1.379 . S
C901 C902 1.390 . S
C901 H928 0.949 . S
C902 C901 1.390 . S
C902 C903 1.357 . S
C903 C902 1.357 . S
C903 C904 1.370 . S
C903 H929 0.950 . S
C904 N899 1.307 . S
C904 C903 1.370 . S
C904 H922 0.948 . S
Zn905 N899 2.020 . S
Zn905 O914 2.039 . S
Zn905 O920 2.034 . S
Zn905 O924 2.025 . S
Zn905 O926 2.024 . S
C906 O925 1.246 . S
C906 O926 1.249 . S
N907 C908 1.307 . S
N907 C909 1.333 . S
N907 Zn913 2.020 . S
C908 N907 1.307 . S
C908 C912 1.370 . S
C908 H919 0.948 . S
C909 N907 1.333 . S
C909 C910 1.379 . S
C909 H917 0.952 . S
C910 C909 1.379 . S
C910 C911 1.390 . S
C910 H930 0.949 . S
C911 C910 1.390 . S
C911 C912 1.357 . S
C912 C908 1.370 . S
C912 C911 1.357 . S
C912 H931 0.950 . S
Zn913 N907 2.020 . S
Zn913 O916 2.025 . S
Zn913 O921 2.024 . S
Zn913 O923 2.039 . S
Zn913 O925 2.034 . S
O914 C898 1.251 . S
O914 Zn905 2.039 . S
C915 O920 1.246 . S
C915 O921 1.249 . S
O916 C898 1.254 . S
O916 Zn913 2.025 . S
H917 C909 0.952 . S
H918 C900 0.952 . S
H919 C908 0.948 . S
O920 Zn905 2.034 . S
O920 C915 1.246 . S
O921 Zn913 2.024 . S
O921 C915 1.249 . S
H922 C904 0.948 . S
O923 Zn913 2.039 . S
O923 C927 1.251 . S
O924 Zn905 2.025 . S
O924 C927 1.254 . S
O925 C906 1.246 . S
O925 Zn913 2.034 . S
O926 Zn905 2.024 . S
O926 C906 1.249 . S
C927 O923 1.251 . S
C927 O924 1.254 . S
H928 C901 0.949 . S
H929 C903 0.950 . S
H930 C910 0.949 . S
H931 C912 0.950 . S
C932 O948 1.230 1_545 S
C932 O950 1.254 . S
N933 C934 1.333 . S
N933 C938 1.307 . S
N933 Zn939 2.020 . S
C934 N933 1.333 . S
C934 C935 1.379 . S
C934 H952 0.952 . S
C935 C934 1.379 . S
C935 C936 1.390 . S
C935 H962 0.949 . S
C936 C935 1.390 . S
C936 C937 1.357 . S
C937 C936 1.357 . S
C937 C938 1.370 . S
C937 H963 0.950 . S
C938 N933 1.307 . S
C938 C937 1.370 . S
C938 H956 0.948 . S
Zn939 N933 2.020 . S
Zn939 O948 2.048 . S
Zn939 O954 2.034 1_565 S
Zn939 O958 2.025 . S
Zn939 O960 2.024 . S
C940 O959 1.246 1_565 S
C940 O960 1.249 . S
N941 C942 1.307 . S
N941 C943 1.333 . S
N941 Zn947 2.020 . S
C942 N941 1.307 . S
C942 C946 1.370 . S
C942 H953 0.948 . S
C943 N941 1.333 . S
C943 C944 1.379 . S
C943 H951 0.952 . S
C944 C943 1.379 . S
C944 C945 1.390 . S
C944 H964 0.949 . S
C945 C944 1.390 . S
C945 C946 1.357 . S
C946 C942 1.370 . S
C946 C945 1.357 . S
C946 H965 0.950 . S
Zn947 N941 2.020 . S
Zn947 O950 2.025 . S
Zn947 O955 2.024 . S
Zn947 O957 2.039 . S
Zn947 O959 2.034 . S
O948 C932 1.230 1_565 S
O948 Zn939 2.048 . S
C949 O954 1.246 . S
C949 O955 1.249 . S
O950 C932 1.254 . S
O950 Zn947 2.025 . S
H951 C943 0.952 . S
H952 C934 0.952 . S
H953 C942 0.948 . S
O954 Zn939 2.034 1_545 S
O954 C949 1.246 . S
O955 Zn947 2.024 . S
O955 C949 1.249 . S
H956 C938 0.948 . S
O957 Zn947 2.039 . S
O957 C961 1.229 1_545 S
O958 Zn939 2.025 . S
O958 C961 1.272 . S
O959 C940 1.246 1_545 S
O959 Zn947 2.034 . S
O960 Zn939 2.024 . S
O960 C940 1.249 . S
C961 O957 1.229 1_565 S
C961 O958 1.272 . S
H962 C935 0.949 . S
H963 C937 0.950 . S
H964 C944 0.949 . S
H965 C946 0.950 . S
C966 O982 1.251 . S
C966 O984 1.254 . S
N967 C968 1.333 . S
N967 C972 1.307 . S
N967 Zn973 2.020 . S
C968 N967 1.333 . S
C968 C969 1.379 . S
C968 H986 0.952 . S
C969 C968 1.379 . S
C969 C970 1.390 . S
C969 H996 0.949 . S
C970 C969 1.390 . S
C970 C971 1.357 . S
C971 C970 1.357 . S
C971 C972 1.370 . S
C971 H997 0.950 . S
C972 N967 1.307 . S
C972 C971 1.370 . S
C972 H990 0.948 . S
Zn973 N967 2.020 . S
Zn973 O982 2.039 . S
Zn973 O988 2.034 . S
Zn973 O992 2.025 . S
Zn973 O994 2.024 . S
C974 O993 1.246 . S
C974 O994 1.249 . S
N975 C976 1.307 . S
N975 C977 1.333 . S
N975 Zn981 2.020 . S
C976 N975 1.307 . S
C976 C980 1.370 . S
C976 H987 0.948 . S
C977 N975 1.333 . S
C977 C978 1.379 . S
C977 H985 0.952 . S
C978 C977 1.379 . S
C978 C979 1.390 . S
C978 H998 0.949 . S
C979 C978 1.390 . S
C979 C980 1.357 . S
C980 C976 1.370 . S
C980 C979 1.357 . S
C980 H999 0.950 . S
Zn981 N975 2.020 . S
Zn981 O984 2.025 . S
Zn981 O989 2.024 . S
Zn981 O991 2.039 . S
Zn981 O993 2.034 . S
O982 C966 1.251 . S
O982 Zn973 2.039 . S
C983 O988 1.246 . S
C983 O989 1.249 . S
O984 C966 1.254 . S
O984 Zn981 2.025 . S
H985 C977 0.952 . S
H986 C968 0.952 . S
H987 C976 0.948 . S
O988 Zn973 2.034 . S
O988 C983 1.246 . S
O989 Zn981 2.024 . S
O989 C983 1.249 . S
H990 C972 0.948 . S
O991 Zn981 2.039 . S
O991 C995 1.251 . S
O992 Zn973 2.025 . S
O992 C995 1.254 . S
O993 C974 1.246 . S
O993 Zn981 2.034 . S
O994 Zn973 2.024 . S
O994 C974 1.249 . S
C995 O991 1.251 . S
C995 O992 1.254 . S
H996 C969 0.949 . S
H997 C971 0.950 . S
H998 C978 0.949 . S
H999 C980 0.950 . S
C1000 O1016 1.251 1_565 S
C1000 O1018 1.254 . S
N1001 C1002 1.333 . S
N1001 C1006 1.307 . S
N1001 Zn1007 2.020 . S
C1002 N1001 1.333 . S
C1002 C1003 1.379 . S
C1002 H1020 0.952 . S
C1003 C1002 1.379 . S
C1003 C1004 1.390 . S
C1003 H1030 0.949 . S
C1004 C1003 1.390 . S
C1004 C1005 1.357 . S
C1005 C1004 1.357 . S
C1005 C1006 1.370 . S
C1005 H1031 0.950 . S
C1006 N1001 1.307 . S
C1006 C1005 1.370 . S
C1006 H1024 0.948 . S
Zn1007 N1001 2.020 . S
Zn1007 O1016 2.039 . S
Zn1007 O1022 2.034 . S
Zn1007 O1026 2.025 . S
Zn1007 O1028 2.024 1_545 S
C1008 O1027 1.246 . S
C1008 O1028 1.249 . S
N1009 C1010 1.307 . S
N1009 C1011 1.333 1_455 S
N1009 Zn1015 2.020 1_565 S
C1010 N1009 1.307 . S
C1010 C1014 1.370 . S
C1010 H1021 0.938 1_565 S
C1011 N1009 1.333 1_655 S
C1011 C1012 1.379 . S
C1011 H1019 0.952 . S
C1012 C1011 1.379 . S
C1012 C1013 1.390 . S
C1012 H1032 0.949 . S
C1013 C1012 1.390 . S
C1013 C1014 1.357 1_655 S
C1014 C1010 1.370 . S
C1014 C1013 1.357 1_455 S
C1014 H1033 0.950 . S
Zn1015 N1009 2.020 1_545 S
Zn1015 O1018 2.025 1_545 S
Zn1015 O1023 2.024 . S
Zn1015 O1025 2.039 1_455 S
Zn1015 O1027 2.034 1_545 S
O1016 C1000 1.251 1_545 S
O1016 Zn1007 2.039 . S
C1017 O1022 1.246 . S
C1017 O1023 1.249 . S
O1018 C1000 1.254 . S
O1018 Zn1015 2.025 1_565 S
H1019 C1011 0.952 . S
H1020 C1002 0.952 . S
H1021 C1010 0.938 1_545 S
O1022 Zn1007 2.034 . S
O1022 C1017 1.246 . S
O1023 Zn1015 2.024 . S
O1023 C1017 1.249 . S
H1024 C1006 0.948 . S
O1025 Zn1015 2.039 1_655 S
O1025 C1029 1.251 . S
O1026 Zn1007 2.025 . S
O1026 C1029 1.254 1_455 S
O1027 C1008 1.246 . S
O1027 Zn1015 2.034 1_565 S
O1028 Zn1007 2.024 1_565 S
O1028 C1008 1.249 . S
C1029 O1025 1.251 . S
C1029 O1026 1.254 1_655 S
H1030 C1003 0.949 . S
H1031 C1005 0.950 . S
H1032 C1012 0.949 . S
H1033 C1014 0.950 . S
C1034 O1050 1.251 . S
C1034 O1052 1.254 . S
N1035 C1036 1.333 . S
N1035 C1040 1.307 . S
N1035 Zn1041 2.020 . S
C1036 N1035 1.333 . S
C1036 C1037 1.379 . S
C1036 H1054 0.952 . S
C1037 C1036 1.379 . S
C1037 C1038 1.390 . S
C1037 H1064 0.949 . S
C1038 C1037 1.390 . S
C1038 C1039 1.357 . S
C1039 C1038 1.357 . S
C1039 C1040 1.370 . S
C1039 H1065 0.950 . S
C1040 N1035 1.307 . S
C1040 C1039 1.370 . S
C1040 H1058 0.948 . S
Zn1041 N1035 2.020 . S
Zn1041 O1050 2.039 . S
Zn1041 O1056 2.034 . S
Zn1041 O1060 2.025 . S
Zn1041 O1062 2.024 . S
C1042 O1061 1.246 . S
C1042 O1062 1.249 . S
N1043 C1044 1.307 . S
N1043 C1045 1.333 . S
N1043 Zn1049 2.020 . S
C1044 N1043 1.307 . S
C1044 C1048 1.370 . S
C1044 H1055 0.948 . S
C1045 N1043 1.333 . S
C1045 C1046 1.379 . S
C1045 H1053 0.952 . S
C1046 C1045 1.379 . S
C1046 C1047 1.390 . S
C1046 H1066 0.949 . S
C1047 C1046 1.390 . S
C1047 C1048 1.357 . S
C1048 C1044 1.370 . S
C1048 C1047 1.357 . S
C1048 H1067 0.950 . S
Zn1049 N1043 2.020 . S
Zn1049 O1052 2.025 . S
Zn1049 O1057 2.024 . S
Zn1049 O1059 2.039 . S
Zn1049 O1061 2.034 . S
O1050 C1034 1.251 . S
O1050 Zn1041 2.039 . S
C1051 O1056 1.246 . S
C1051 O1057 1.249 . S
O1052 C1034 1.254 . S
O1052 Zn1049 2.025 . S
H1053 C1045 0.952 . S
H1054 C1036 0.952 . S
H1055 C1044 0.948 . S
O1056 Zn1041 2.034 . S
O1056 C1051 1.246 . S
O1057 Zn1049 2.024 . S
O1057 C1051 1.249 . S
H1058 C1040 0.948 . S
O1059 Zn1049 2.039 . S
O1059 C1063 1.251 . S
O1060 Zn1041 2.025 . S
O1060 C1063 1.254 . S
O1061 C1042 1.246 . S
O1061 Zn1049 2.034 . S
O1062 Zn1041 2.024 . S
O1062 C1042 1.249 . S
C1063 O1059 1.251 . S
C1063 O1060 1.254 . S
H1064 C1037 0.949 . S
H1065 C1039 0.950 . S
H1066 C1046 0.949 . S
H1067 C1048 0.950 . S
C1068 O1084 1.251 . S
C1068 O1086 1.254 . S
N1069 C1070 1.333 . S
N1069 C1074 1.307 . S
N1069 Zn1075 2.020 . S
C1070 N1069 1.333 . S
C1070 C1071 1.379 . S
C1070 H1088 0.952 . S
C1071 C1070 1.379 . S
C1071 C1072 1.390 . S
C1071 H1098 0.949 . S
C1072 C1071 1.390 . S
C1072 C1073 1.357 . S
C1073 C1072 1.357 . S
C1073 C1074 1.370 . S
C1073 H1099 0.950 . S
C1074 N1069 1.307 . S
C1074 C1073 1.370 . S
C1074 H1092 0.948 . S
Zn1075 N1069 2.020 . S
Zn1075 O1084 2.039 1_545 S
Zn1075 O1090 2.034 . S
Zn1075 O1094 2.025 . S
Zn1075 O1096 2.024 . S
C1076 O1095 1.283 . S
C1076 O1096 1.249 1_565 S
N1077 C1078 1.307 . S
N1077 C1079 1.333 1_565 S
N1077 Zn1083 2.020 1_566 S
C1078 N1077 1.307 . S
C1078 C1082 1.370 . S
C1078 H1089 0.948 . S
C1079 N1077 1.333 1_545 S
C1079 C1080 1.379 . S
C1079 H1087 0.952 . S
C1080 C1079 1.379 . S
C1080 C1081 1.390 1_545 S
C1080 H1100 0.949 . S
C1081 C1080 1.390 1_565 S
C1081 C1082 1.357 . S
C1082 C1078 1.370 . S
C1082 C1081 1.357 . S
C1082 H1101 0.950 . S
Zn1083 N1077 2.020 1_544 S
Zn1083 O1086 2.025 1_545 S
Zn1083 O1091 2.024 . S
Zn1083 O1093 2.039 1_554 S
Zn1083 O1095 2.039 1_545 S
O1084 C1068 1.251 . S
O1084 Zn1075 2.039 1_565 S
C1085 O1090 1.246 . S
C1085 O1091 1.249 . S
O1086 C1068 1.254 . S
O1086 Zn1083 2.025 1_565 S
H1087 C1079 0.952 . S
H1088 C1070 0.952 . S
H1089 C1078 0.948 . S
O1090 Zn1075 2.034 . S
O1090 C1085 1.246 . S
O1091 Zn1083 2.024 . S
O1091 C1085 1.249 . S
H1092 C1074 0.948 . S
O1093 Zn1083 2.039 1_556 S
O1093 C1097 1.251 1_556 S
O1094 Zn1075 2.025 . S
O1094 C1097 1.254 . S
O1095 C1076 1.283 . S
O1095 Zn1083 2.039 1_565 S
O1096 Zn1075 2.024 . S
O1096 C1076 1.249 1_545 S
C1097 O1093 1.251 1_554 S
C1097 O1094 1.254 . S
H1098 C1071 0.949 . S
H1099 C1073 0.950 . S
H1100 C1080 0.949 . S
H1101 C1082 0.950 . S
C1102 O1118 1.251 . S
C1102 O1120 1.254 . S
N1103 C1104 1.333 . S
N1103 C1108 1.307 . S
N1103 Zn1109 2.020 . S
C1104 N1103 1.333 . S
C1104 C1105 1.379 . S
C1104 H1122 0.952 . S
C1105 C1104 1.379 . S
C1105 C1106 1.390 . S
C1105 H1132 0.949 . S
C1106 C1105 1.390 . S
C1106 C1107 1.357 . S
C1107 C1106 1.357 . S
C1107 C1108 1.370 . S
C1107 H1133 0.950 . S
C1108 N1103 1.307 . S
C1108 C1107 1.370 . S
C1108 H1126 0.948 . S
Zn1109 N1103 2.020 . S
Zn1109 O1118 2.039 . S
Zn1109 O1124 2.034 . S
Zn1109 O1128 2.025 . S
Zn1109 O1130 2.024 . S
C1110 O1129 1.246 . S
C1110 O1130 1.249 . S
N1111 C1112 1.307 . S
N1111 C1113 1.333 . S
N1111 Zn1117 2.020 . S
C1112 N1111 1.307 . S
C1112 C1116 1.370 . S
C1112 H1123 0.948 . S
C1113 N1111 1.333 . S
C1113 C1114 1.379 . S
C1113 H1121 0.952 . S
C1114 C1113 1.379 . S
C1114 C1115 1.390 . S
C1114 H1134 0.949 . S
C1115 C1114 1.390 . S
C1115 C1116 1.357 . S
C1116 C1112 1.370 . S
C1116 C1115 1.357 . S
C1116 H1135 0.950 . S
Zn1117 N1111 2.020 . S
Zn1117 O1120 2.025 . S
Zn1117 O1125 2.024 . S
Zn1117 O1127 2.039 . S
Zn1117 O1129 2.034 . S
O1118 C1102 1.251 . S
O1118 Zn1109 2.039 . S
C1119 O1124 1.246 . S
C1119 O1125 1.249 . S
O1120 C1102 1.254 . S
O1120 Zn1117 2.025 . S
H1121 C1113 0.952 . S
H1122 C1104 0.952 . S
H1123 C1112 0.948 . S
O1124 Zn1109 2.034 . S
O1124 C1119 1.246 . S
O1125 Zn1117 2.024 . S
O1125 C1119 1.249 . S
H1126 C1108 0.948 . S
O1127 Zn1117 2.039 . S
O1127 C1131 1.251 . S
O1128 Zn1109 2.025 . S
O1128 C1131 1.254 . S
O1129 C1110 1.246 . S
O1129 Zn1117 2.034 . S
O1130 Zn1109 2.024 . S
O1130 C1110 1.249 . S
C1131 O1127 1.251 . S
C1131 O1128 1.254 . S
H1132 C1105 0.949 . S
H1133 C1107 0.950 . S
H1134 C1114 0.949 . S
H1135 C1116 0.950 . S
C1136 O1152 1.251 . S
C1136 O1154 1.254 . S
N1137 C1138 1.333 . S
N1137 C1142 1.307 . S
N1137 Zn1143 2.020 1_556 S
C1138 N1137 1.333 . S
C1138 C1139 1.379 . S
C1138 H1156 0.952 . S
C1139 C1138 1.379 . S
C1139 C1140 1.390 . S
C1139 H1166 0.949 . S
C1140 C1139 1.390 . S
C1140 C1141 1.357 . S
C1141 C1140 1.357 . S
C1141 C1142 1.370 . S
C1141 H1167 0.950 . S
C1142 N1137 1.307 . S
C1142 C1141 1.370 . S
C1142 H1160 0.948 . S
Zn1143 N1137 2.020 1_554 S
Zn1143 O1152 2.039 . S
Zn1143 O1158 2.034 . S
Zn1143 O1162 2.025 1_554 S
Zn1143 O1164 2.024 1_554 S
C1144 O1163 1.246 . S
C1144 O1164 1.249 1_554 S
N1145 C1146 1.307 . S
N1145 C1147 1.333 . S
N1145 Zn1151 2.020 . S
C1146 N1145 1.307 . S
C1146 C1150 1.370 . S
C1146 H1157 0.948 . S
C1147 N1145 1.333 . S
C1147 C1148 1.379 . S
C1147 H1155 0.952 . S
C1148 C1147 1.379 . S
C1148 C1149 1.390 . S
C1148 H1168 0.949 . S
C1149 C1148 1.390 . S
C1149 C1150 1.357 . S
C1150 C1146 1.370 . S
C1150 C1149 1.357 . S
C1150 H1169 0.950 . S
Zn1151 N1145 2.020 . S
Zn1151 O1154 2.025 . S
Zn1151 O1159 2.024 . S
Zn1151 O1161 2.039 . S
Zn1151 O1163 2.034 . S
O1152 C1136 1.251 . S
O1152 Zn1143 2.039 . S
C1153 O1158 1.246 . S
C1153 O1159 1.249 . S
O1154 C1136 1.254 . S
O1154 Zn1151 2.025 . S
H1155 C1147 0.952 . S
H1156 C1138 0.952 . S
H1157 C1146 0.948 . S
O1158 Zn1143 2.034 . S
O1158 C1153 1.246 . S
O1159 Zn1151 2.024 . S
O1159 C1153 1.249 . S
H1160 C1142 0.948 . S
O1161 Zn1151 2.039 . S
O1161 C1165 1.251 . S
O1162 Zn1143 2.025 1_556 S
O1162 C1165 1.255 1_556 S
O1163 C1144 1.246 . S
O1163 Zn1151 2.034 . S
O1164 Zn1143 2.024 1_556 S
O1164 C1144 1.249 1_556 S
C1165 O1161 1.251 . S
C1165 O1162 1.255 1_554 S
H1166 C1139 0.949 . S
H1167 C1141 0.950 . S
H1168 C1148 0.949 . S
H1169 C1150 0.950 . S
C1170 O1186 1.251 . S
C1170 O1188 1.254 . S
N1171 C1172 1.333 . S
N1171 C1176 1.307 . S
N1171 Zn1177 2.020 . S
C1172 N1171 1.333 . S
C1172 C1173 1.379 . S
C1172 H1190 0.952 . S
C1173 C1172 1.379 . S
C1173 C1174 1.390 . S
C1173 H1200 0.949 . S
C1174 C1173 1.390 . S
C1174 C1175 1.357 . S
C1175 C1174 1.357 . S
C1175 C1176 1.370 . S
C1175 H1201 0.950 . S
C1176 N1171 1.307 . S
C1176 C1175 1.370 . S
C1176 H1194 0.948 . S
Zn1177 N1171 2.020 . S
Zn1177 O1186 2.039 . S
Zn1177 O1192 2.034 . S
Zn1177 O1196 2.025 . S
Zn1177 O1198 2.024 . S
C1178 O1197 1.246 . S
C1178 O1198 1.249 . S
N1179 C1180 1.307 . S
N1179 C1181 1.333 . S
N1179 Zn1185 2.020 . S
C1180 N1179 1.307 . S
C1180 C1184 1.370 . S
C1180 H1191 0.948 . S
C1181 N1179 1.333 . S
C1181 C1182 1.379 . S
C1181 H1189 0.952 . S
C1182 C1181 1.379 . S
C1182 C1183 1.390 . S
C1182 H1202 0.949 . S
C1183 C1182 1.390 . S
C1183 C1184 1.357 . S
C1184 C1180 1.370 . S
C1184 C1183 1.357 . S
C1184 H1203 0.950 . S
Zn1185 N1179 2.020 . S
Zn1185 O1188 2.025 . S
Zn1185 O1193 2.024 . S
Zn1185 O1195 2.039 . S
Zn1185 O1197 2.034 . S
O1186 C1170 1.251 . S
O1186 Zn1177 2.039 . S
C1187 O1192 1.246 . S
C1187 O1193 1.249 . S
O1188 C1170 1.254 . S
O1188 Zn1185 2.025 . S
H1189 C1181 0.952 . S
H1190 C1172 0.952 . S
H1191 C1180 0.948 . S
O1192 Zn1177 2.034 . S
O1192 C1187 1.246 . S
O1193 Zn1185 2.024 . S
O1193 C1187 1.249 . S
H1194 C1176 0.948 . S
O1195 Zn1185 2.039 . S
O1195 C1199 1.251 . S
O1196 Zn1177 2.025 . S
O1196 C1199 1.254 . S
O1197 C1178 1.246 . S
O1197 Zn1185 2.034 . S
O1198 Zn1177 2.024 . S
O1198 C1178 1.249 . S
C1199 O1195 1.251 . S
C1199 O1196 1.254 . S
H1200 C1173 0.949 . S
H1201 C1175 0.950 . S
H1202 C1182 0.949 . S
H1203 C1184 0.950 . S
C1204 O1220 1.251 . S
C1204 O1222 1.254 . S
N1205 C1206 1.333 . S
N1205 C1210 1.307 . S
N1205 Zn1211 2.020 . S
C1206 N1205 1.333 . S
C1206 C1207 1.379 . S
C1206 H1224 0.952 . S
C1207 C1206 1.379 . S
C1207 C1208 1.390 . S
C1207 H1234 0.949 . S
C1208 C1207 1.390 . S
C1208 C1209 1.357 . S
C1209 C1208 1.357 . S
C1209 C1210 1.370 . S
C1209 H1235 0.950 . S
C1210 N1205 1.307 . S
C1210 C1209 1.370 . S
C1210 H1228 0.948 . S
Zn1211 N1205 2.020 . S
Zn1211 O1220 2.039 . S
Zn1211 O1226 2.034 . S
Zn1211 O1230 2.025 . S
Zn1211 O1232 2.024 . S
C1212 O1231 1.246 . S
C1212 O1232 1.249 . S
N1213 C1214 1.307 1_455 S
N1213 C1215 1.333 . S
N1213 Zn1219 2.020 . S
C1214 N1213 1.307 1_655 S
C1214 C1218 1.370 . S
C1214 H1225 0.948 . S
C1215 N1213 1.333 . S
C1215 C1216 1.379 . S
C1215 H1223 0.952 . S
C1216 C1215 1.379 . S
C1216 C1217 1.390 1_455 S
C1216 H1236 0.949 . S
C1217 C1216 1.390 1_655 S
C1217 C1218 1.357 . S
C1218 C1214 1.370 . S
C1218 C1217 1.357 . S
C1218 H1237 0.950 . S
Zn1219 N1213 2.020 . S
Zn1219 O1222 2.025 . S
Zn1219 O1227 2.024 1_455 S
Zn1219 O1229 2.039 . S
Zn1219 O1231 2.034 . S
O1220 C1204 1.251 . S
O1220 Zn1211 2.039 . S
C1221 O1226 1.246 1_655 S
C1221 O1227 1.249 . S
O1222 C1204 1.254 . S
O1222 Zn1219 2.025 . S
H1223 C1215 0.952 . S
H1224 C1206 0.952 . S
H1225 C1214 0.948 . S
O1226 Zn1211 2.034 . S
O1226 C1221 1.246 1_455 S
O1227 Zn1219 2.024 1_655 S
O1227 C1221 1.249 . S
H1228 C1210 0.948 . S
O1229 Zn1219 2.039 . S
O1229 C1233 1.251 . S
O1230 Zn1211 2.025 . S
O1230 C1233 1.254 . S
O1231 C1212 1.246 . S
O1231 Zn1219 2.034 . S
O1232 Zn1211 2.024 . S
O1232 C1212 1.249 . S
C1233 O1229 1.251 . S
C1233 O1230 1.254 . S
H1234 C1207 0.949 . S
H1235 C1209 0.950 . S
H1236 C1216 0.949 . S
H1237 C1218 0.950 . S
C1238 O1254 1.251 . S
C1238 O1256 1.254 . S
N1239 C1240 1.333 . S
N1239 C1244 1.307 . S
N1239 Zn1245 2.020 . S
C1240 N1239 1.333 . S
C1240 C1241 1.379 . S
C1240 H1258 0.952 . S
C1241 C1240 1.379 . S
C1241 C1242 1.390 . S
C1241 H1268 0.949 . S
C1242 C1241 1.390 . S
C1242 C1243 1.357 . S
C1243 C1242 1.357 . S
C1243 C1244 1.370 . S
C1243 H1269 0.950 . S
C1244 N1239 1.307 . S
C1244 C1243 1.370 . S
C1244 H1262 0.948 . S
Zn1245 N1239 2.020 . S
Zn1245 O1254 2.039 . S
Zn1245 O1260 2.034 . S
Zn1245 O1264 2.025 . S
Zn1245 O1266 2.024 . S
C1246 O1265 1.246 . S
C1246 O1266 1.249 . S
N1247 C1248 1.307 . S
N1247 C1249 1.333 . S
N1247 Zn1253 2.020 . S
C1248 N1247 1.307 . S
C1248 C1252 1.370 . S
C1248 H1259 0.948 . S
C1249 N1247 1.333 . S
C1249 C1250 1.379 . S
C1249 H1257 0.952 . S
C1250 C1249 1.379 . S
C1250 C1251 1.390 . S
C1250 H1270 0.949 . S
C1251 C1250 1.390 . S
C1251 C1252 1.357 . S
C1252 C1248 1.370 . S
C1252 C1251 1.357 . S
C1252 H1271 0.950 . S
Zn1253 N1247 2.020 . S
Zn1253 O1256 2.025 . S
Zn1253 O1261 2.024 . S
Zn1253 O1263 2.039 . S
Zn1253 O1265 2.034 . S
O1254 C1238 1.251 . S
O1254 Zn1245 2.039 . S
C1255 O1260 1.246 . S
C1255 O1261 1.249 . S
O1256 C1238 1.254 . S
O1256 Zn1253 2.025 . S
H1257 C1249 0.952 . S
H1258 C1240 0.952 . S
H1259 C1248 0.948 . S
O1260 Zn1245 2.034 . S
O1260 C1255 1.246 . S
O1261 Zn1253 2.024 . S
O1261 C1255 1.249 . S
H1262 C1244 0.948 . S
O1263 Zn1253 2.039 . S
O1263 C1267 1.251 . S
O1264 Zn1245 2.025 . S
O1264 C1267 1.254 . S
O1265 C1246 1.246 . S
O1265 Zn1253 2.034 . S
O1266 Zn1245 2.024 . S
O1266 C1246 1.249 . S
C1267 O1263 1.251 . S
C1267 O1264 1.254 . S
H1268 C1241 0.949 . S
H1269 C1243 0.950 . S
H1270 C1250 0.949 . S
H1271 C1252 0.950 . S
C1272 O1288 1.251 . S
C1272 O1290 1.254 . S
N1273 C1274 1.333 . S
N1273 C1278 1.307 . S
N1273 Zn1279 2.020 . S
C1274 N1273 1.333 . S
C1274 C1275 1.379 . S
C1274 H1292 0.952 . S
C1275 C1274 1.379 . S
C1275 C1276 1.390 . S
C1275 H1302 0.949 . S
C1276 C1275 1.390 . S
C1276 C1277 1.357 . S
C1277 C1276 1.357 . S
C1277 C1278 1.370 . S
C1277 H1303 0.950 . S
C1278 N1273 1.307 . S
C1278 C1277 1.370 . S
C1278 H1296 0.948 . S
Zn1279 N1273 2.020 . S
Zn1279 O1288 2.039 . S
Zn1279 O1294 2.034 . S
Zn1279 O1298 2.025 . S
Zn1279 O1300 2.024 . S
C1280 O1299 1.246 . S
C1280 O1300 1.249 . S
N1281 C1282 1.307 . S
N1281 C1283 1.333 . S
N1281 Zn1287 2.020 . S
C1282 N1281 1.307 . S
C1282 C1286 1.370 . S
C1282 H1293 0.948 . S
C1283 N1281 1.333 . S
C1283 C1284 1.379 . S
C1283 H1291 0.952 . S
C1284 C1283 1.379 . S
C1284 C1285 1.390 . S
C1284 H1304 0.949 . S
C1285 C1284 1.390 . S
C1285 C1286 1.357 . S
C1286 C1282 1.370 . S
C1286 C1285 1.357 . S
C1286 H1305 0.950 . S
Zn1287 N1281 2.020 . S
Zn1287 O1290 2.025 . S
Zn1287 O1295 2.024 . S
Zn1287 O1297 2.039 . S
Zn1287 O1299 2.034 . S
O1288 C1272 1.251 . S
O1288 Zn1279 2.039 . S
C1289 O1294 1.246 . S
C1289 O1295 1.249 . S
O1290 C1272 1.254 . S
O1290 Zn1287 2.025 . S
H1291 C1283 0.952 . S
H1292 C1274 0.952 . S
H1293 C1282 0.948 . S
O1294 Zn1279 2.034 . S
O1294 C1289 1.246 . S
O1295 Zn1287 2.024 . S
O1295 C1289 1.249 . S
H1296 C1278 0.948 . S
O1297 Zn1287 2.039 . S
O1297 C1301 1.251 . S
O1298 Zn1279 2.025 . S
O1298 C1301 1.254 . S
O1299 C1280 1.246 . S
O1299 Zn1287 2.034 . S
O1300 Zn1279 2.024 . S
O1300 C1280 1.249 . S
C1301 O1297 1.251 . S
C1301 O1298 1.254 . S
H1302 C1275 0.949 . S
H1303 C1277 0.950 . S
H1304 C1284 0.949 . S
H1305 C1286 0.950 . S
C1306 O1322 1.251 . S
C1306 O1324 1.254 . S
N1307 C1308 1.333 . S
N1307 C1312 1.307 . S
N1307 Zn1313 2.020 . S
C1308 N1307 1.333 . S
C1308 C1309 1.379 . S
C1308 H1326 0.952 . S
C1309 C1308 1.379 . S
C1309 C1310 1.390 . S
C1309 H1336 0.949 . S
C1310 C1309 1.390 . S
C1310 C1311 1.357 . S
C1311 C1310 1.357 . S
C1311 C1312 1.370 . S
C1311 H1337 0.950 . S
C1312 N1307 1.307 . S
C1312 C1311 1.370 . S
C1312 H1330 0.948 . S
Zn1313 N1307 2.020 . S
Zn1313 O1322 2.039 . S
Zn1313 O1328 2.034 . S
Zn1313 O1332 2.025 . S
Zn1313 O1334 2.024 . S
C1314 O1333 1.246 . S
C1314 O1334 1.249 . S
N1315 C1316 1.307 . S
N1315 C1317 1.333 . S
N1315 Zn1321 2.020 . S
C1316 N1315 1.307 . S
C1316 C1320 1.370 . S
C1316 H1327 0.948 . S
C1317 N1315 1.333 . S
C1317 C1318 1.379 . S
C1317 H1325 0.952 . S
C1318 C1317 1.379 . S
C1318 C1319 1.390 . S
C1318 H1338 0.949 . S
C1319 C1318 1.390 . S
C1319 C1320 1.357 . S
C1320 C1316 1.370 . S
C1320 C1319 1.357 . S
C1320 H1339 0.950 . S
Zn1321 N1315 2.020 . S
Zn1321 O1324 2.025 . S
Zn1321 O1329 2.024 . S
Zn1321 O1331 2.039 . S
Zn1321 O1333 2.034 . S
O1322 C1306 1.251 . S
O1322 Zn1313 2.039 . S
C1323 O1328 1.246 . S
C1323 O1329 1.249 . S
O1324 C1306 1.254 . S
O1324 Zn1321 2.025 . S
H1325 C1317 0.952 . S
H1326 C1308 0.952 . S
H1327 C1316 0.948 . S
O1328 Zn1313 2.034 . S
O1328 C1323 1.246 . S
O1329 Zn1321 2.024 . S
O1329 C1323 1.249 . S
H1330 C1312 0.948 . S
O1331 Zn1321 2.039 . S
O1331 C1335 1.251 . S
O1332 Zn1313 2.025 . S
O1332 C1335 1.254 . S
O1333 C1314 1.246 . S
O1333 Zn1321 2.034 . S
O1334 Zn1313 2.024 . S
O1334 C1314 1.249 . S
C1335 O1331 1.251 . S
C1335 O1332 1.254 . S
H1336 C1309 0.949 . S
H1337 C1311 0.950 . S
H1338 C1318 0.949 . S
H1339 C1320 0.950 . S
C1340 O1356 1.251 . S
C1340 O1358 1.254 . S
N1341 C1342 1.333 . S
N1341 C1346 1.307 . S
N1341 Zn1347 2.020 . S
C1342 N1341 1.333 . S
C1342 C1343 1.379 . S
C1342 H1360 0.952 . S
C1343 C1342 1.379 . S
C1343 C1344 1.390 . S
C1343 H1370 0.949 . S
C1344 C1343 1.390 . S
C1344 C1345 1.357 . S
C1345 C1344 1.357 . S
C1345 C1346 1.370 . S
C1345 H1371 0.950 . S
C1346 N1341 1.307 . S
C1346 C1345 1.370 . S
C1346 H1364 0.948 . S
Zn1347 N1341 2.020 . S
Zn1347 O1356 2.039 . S
Zn1347 O1362 2.034 . S
Zn1347 O1366 2.025 . S
Zn1347 O1368 2.024 . S
C1348 O1367 1.246 . S
C1348 O1368 1.249 . S
N1349 C1350 1.307 . S
N1349 C1351 1.333 . S
N1349 Zn1355 2.020 . S
C1350 N1349 1.307 . S
C1350 C1354 1.370 . S
C1350 H1361 0.948 . S
C1351 N1349 1.333 . S
C1351 C1352 1.379 . S
C1351 H1359 0.952 . S
C1352 C1351 1.379 . S
C1352 C1353 1.390 . S
C1352 H1372 0.949 . S
C1353 C1352 1.390 . S
C1353 C1354 1.357 . S
C1354 C1350 1.370 . S
C1354 C1353 1.357 . S
C1354 H1373 0.950 . S
Zn1355 N1349 2.020 . S
Zn1355 O1358 2.025 . S
Zn1355 O1363 2.024 . S
Zn1355 O1365 2.039 . S
Zn1355 O1367 2.034 . S
O1356 C1340 1.251 . S
O1356 Zn1347 2.039 . S
C1357 O1362 1.246 . S
C1357 O1363 1.249 . S
O1358 C1340 1.254 . S
O1358 Zn1355 2.025 . S
H1359 C1351 0.952 . S
H1360 C1342 0.952 . S
H1361 C1350 0.948 . S
O1362 Zn1347 2.034 . S
O1362 C1357 1.246 . S
O1363 Zn1355 2.024 . S
O1363 C1357 1.249 . S
H1364 C1346 0.948 . S
O1365 Zn1355 2.039 . S
O1365 C1369 1.251 . S
O1366 Zn1347 2.025 . S
O1366 C1369 1.254 . S
O1367 C1348 1.246 . S
O1367 Zn1355 2.034 . S
O1368 Zn1347 2.024 . S
O1368 C1348 1.249 . S
C1369 O1365 1.251 . S
C1369 O1366 1.254 . S
H1370 C1343 0.949 . S
H1371 C1345 0.950 . S
H1372 C1352 0.949 . S
H1373 C1354 0.950 . S
C1374 O1390 1.251 . S
C1374 O1392 1.254 . S
N1375 C1376 1.333 . S
N1375 C1380 1.307 . S
N1375 Zn1381 2.020 . S
C1376 N1375 1.333 . S
C1376 C1377 1.379 . S
C1376 H1394 0.952 . S
C1377 C1376 1.379 . S
C1377 C1378 1.390 . S
C1377 H1404 0.949 . S
C1378 C1377 1.390 . S
C1378 C1379 1.357 . S
C1379 C1378 1.357 . S
C1379 C1380 1.370 . S
C1379 H1405 0.950 . S
C1380 N1375 1.307 . S
C1380 C1379 1.370 . S
C1380 H1398 0.948 . S
Zn1381 N1375 2.020 . S
Zn1381 O1390 2.039 . S
Zn1381 O1396 2.034 . S
Zn1381 O1400 2.025 . S
Zn1381 O1402 2.024 . S
C1382 O1401 1.246 . S
C1382 O1402 1.249 1_655 S
N1383 C1384 1.307 . S
N1383 C1385 1.333 1_554 S
N1383 Zn1389 2.020 . S
C1384 N1383 1.307 . S
C1384 C1388 1.370 . S
C1384 H1395 0.948 . S
C1385 N1383 1.333 1_556 S
C1385 C1386 1.373 1_455 S
C1385 H1393 0.952 . S
C1386 C1385 1.373 1_655 S
C1386 C1387 1.392 . S
C1386 H1406 0.953 . S
C1387 C1386 1.392 . S
C1387 C1388 1.357 1_656 S
C1388 C1384 1.370 . S
C1388 C1387 1.357 1_454 S
C1388 H1407 0.950 . S
Zn1389 N1383 2.020 . S
Zn1389 O1392 2.025 . S
Zn1389 O1397 2.024 . S
Zn1389 O1399 2.039 1_554 S
Zn1389 O1401 2.034 1_455 S
O1390 C1374 1.251 . S
O1390 Zn1381 2.039 . S
C1391 O1396 1.246 . S
C1391 O1397 1.249 . S
O1392 C1374 1.254 . S
O1392 Zn1389 2.025 . S
H1393 C1385 0.952 . S
H1394 C1376 0.952 . S
H1395 C1384 0.948 . S
O1396 Zn1381 2.034 . S
O1396 C1391 1.246 . S
O1397 Zn1389 2.024 . S
O1397 C1391 1.249 . S
H1398 C1380 0.948 . S
O1399 Zn1389 2.039 1_556 S
O1399 C1403 1.251 . S
O1400 Zn1381 2.025 . S
O1400 C1403 1.254 1_554 S
O1401 C1382 1.246 . S
O1401 Zn1389 2.034 1_655 S
O1402 Zn1381 2.024 . S
O1402 C1382 1.249 1_455 S
C1403 O1399 1.251 . S
C1403 O1400 1.254 1_556 S
H1404 C1377 0.949 . S
H1405 C1379 0.950 . S
H1406 C1386 0.953 . S
H1407 C1388 0.950 . S
H1408 C1414 0.930 . S
H1409 C1418 0.930 1_655 S
H1410 C1423 0.929 . S
H1411 C1421 0.929 . S
H1412 C1416 0.929 . S
H1413 C1422 0.929 . S
C1414 H1408 0.930 . S
C1414 C1415 1.367 . S
C1414 C1422 1.378 . S
C1415 C1414 1.367 . S
C1415 C1423 1.433 . S
C1416 H1412 0.929 . S
C1416 C1418 1.378 . S
C1416 C1420 1.350 . S
C1417 C1420 1.463 . S
C1417 C1422 1.350 . S
C1417 N1425 1.427 . S
C1418 H1409 0.930 1_455 S
C1418 C1416 1.378 . S
C1418 C1419 1.367 . S
C1419 C1418 1.367 . S
C1419 C1421 1.433 . S
C1420 C1416 1.350 . S
C1420 C1417 1.463 . S
C1420 N1424 1.427 . S
C1421 H1411 0.929 . S
C1421 C1419 1.433 . S
C1421 N1424 1.384 . S
C1422 H1413 0.929 . S
C1422 C1414 1.378 . S
C1422 C1417 1.350 . S
C1423 H1410 0.929 . S
C1423 C1415 1.433 . S
C1423 N1425 1.384 . S
N1424 C1420 1.427 . S
N1424 C1421 1.384 . S
N1425 C1417 1.427 . S
N1425 C1423 1.384 . S
H1426 C1432 0.930 . S
H1427 C1436 0.930 . S
H1428 C1441 0.929 . S
H1429 C1439 0.929 . S
H1430 C1434 0.929 . S
H1431 C1440 0.929 . S
C1432 H1426 0.930 . S
C1432 C1433 1.367 . S
C1432 C1440 1.378 . S
C1433 C1432 1.367 . S
C1433 C1441 1.433 . S
C1434 H1430 0.929 . S
C1434 C1436 1.378 . S
C1434 C1438 1.350 . S
C1435 C1438 1.463 . S
C1435 C1440 1.350 . S
C1435 N1443 1.427 . S
C1436 H1427 0.930 . S
C1436 C1434 1.378 . S
C1436 C1437 1.367 . S
C1437 C1436 1.367 . S
C1437 C1439 1.433 . S
C1438 C1434 1.350 . S
C1438 C1435 1.463 . S
C1438 N1442 1.427 . S
C1439 H1429 0.929 . S
C1439 C1437 1.433 . S
C1439 N1442 1.384 . S
C1440 H1431 0.929 . S
C1440 C1432 1.378 . S
C1440 C1435 1.350 . S
C1441 H1428 0.929 . S
C1441 C1433 1.433 . S
C1441 N1443 1.384 . S
N1442 C1438 1.427 . S
N1442 C1439 1.384 . S
N1443 C1435 1.427 . S
N1443 C1441 1.384 . S
H1444 C1450 0.930 . S
H1445 C1454 0.930 . S
H1446 C1459 0.929 . S
H1447 C1457 0.929 . S
H1448 C1452 0.929 . S
H1449 C1458 0.929 . S
C1450 H1444 0.930 . S
C1450 C1451 1.367 . S
C1450 C1458 1.378 . S
C1451 C1450 1.367 . S
C1451 C1459 1.433 . S
C1452 H1448 0.929 . S
C1452 C1454 1.378 . S
C1452 C1456 1.350 . S
C1453 C1456 1.463 . S
C1453 C1458 1.350 . S
C1453 N1461 1.427 . S
C1454 H1445 0.930 . S
C1454 C1452 1.378 . S
C1454 C1455 1.367 . S
C1455 C1454 1.367 . S
C1455 C1457 1.433 . S
C1456 C1452 1.350 . S
C1456 C1453 1.463 . S
C1456 N1460 1.427 . S
C1457 H1447 0.929 . S
C1457 C1455 1.433 . S
C1457 N1460 1.384 . S
C1458 H1449 0.929 . S
C1458 C1450 1.378 . S
C1458 C1453 1.350 . S
C1459 H1446 0.929 . S
C1459 C1451 1.433 . S
C1459 N1461 1.384 . S
N1460 C1456 1.427 . S
N1460 C1457 1.384 . S
N1461 C1453 1.427 . S
N1461 C1459 1.384 . S
H1462 C1468 0.930 . S
H1463 C1472 0.930 . S
H1464 C1477 0.929 . S
H1465 C1475 0.929 . S
H1466 C1470 0.929 . S
H1467 C1476 0.929 . S
C1468 H1462 0.930 . S
C1468 C1469 1.367 . S
C1468 C1476 1.378 . S
C1469 C1468 1.367 . S
C1469 C1477 1.433 . S
C1470 H1466 0.929 . S
C1470 C1472 1.378 . S
C1470 C1474 1.350 . S
C1471 C1474 1.463 . S
C1471 C1476 1.350 . S
C1471 N1479 1.427 . S
C1472 H1463 0.930 . S
C1472 C1470 1.378 . S
C1472 C1473 1.367 . S
C1473 C1472 1.367 . S
C1473 C1475 1.433 . S
C1474 C1470 1.350 . S
C1474 C1471 1.463 . S
C1474 N1478 1.427 . S
C1475 H1465 0.929 . S
C1475 C1473 1.433 . S
C1475 N1478 1.384 . S
C1476 H1467 0.929 . S
C1476 C1468 1.378 . S
C1476 C1471 1.350 . S
C1477 H1464 0.929 . S
C1477 C1469 1.433 . S
C1477 N1479 1.384 . S
N1478 C1474 1.427 . S
N1478 C1475 1.384 . S
N1479 C1471 1.427 . S
N1479 C1477 1.384 . S
H1480 C1486 0.930 . S
H1481 C1490 0.930 . S
H1482 C1495 0.929 . S
H1483 C1493 0.929 . S
H1484 C1488 0.929 . S
H1485 C1494 0.929 . S
C1486 H1480 0.930 . S
C1486 C1487 1.367 . S
C1486 C1494 1.378 . S
C1487 C1486 1.367 . S
C1487 C1495 1.433 . S
C1488 H1484 0.929 . S
C1488 C1490 1.378 . S
C1488 C1492 1.350 . S
C1489 C1492 1.463 . S
C1489 C1494 1.350 . S
C1489 N1497 1.427 . S
C1490 H1481 0.930 . S
C1490 C1488 1.378 . S
C1490 C1491 1.367 . S
C1491 C1490 1.367 . S
C1491 C1493 1.433 . S
C1492 C1488 1.350 . S
C1492 C1489 1.463 . S
C1492 N1496 1.427 . S
C1493 H1483 0.929 . S
C1493 C1491 1.433 . S
C1493 N1496 1.384 . S
C1494 H1485 0.929 . S
C1494 C1486 1.378 . S
C1494 C1489 1.350 . S
C1495 H1482 0.929 . S
C1495 C1487 1.433 . S
C1495 N1497 1.384 . S
N1496 C1492 1.427 . S
N1496 C1493 1.384 . S
N1497 C1489 1.427 . S
N1497 C1495 1.384 . S
H1498 C1504 0.930 . S
H1499 C1508 0.930 . S
H1500 C1513 0.929 . S
H1501 C1511 0.929 . S
H1502 C1506 0.929 . S
H1503 C1512 0.929 . S
C1504 H1498 0.930 . S
C1504 C1505 1.367 . S
C1504 C1512 1.378 . S
C1505 C1504 1.367 . S
C1505 C1513 1.433 . S
C1506 H1502 0.929 . S
C1506 C1508 1.378 . S
C1506 C1510 1.350 . S
C1507 C1510 1.463 . S
C1507 C1512 1.350 . S
C1507 N1515 1.427 . S
C1508 H1499 0.930 . S
C1508 C1506 1.378 . S
C1508 C1509 1.367 . S
C1509 C1508 1.367 . S
C1509 C1511 1.433 . S
C1510 C1506 1.350 . S
C1510 C1507 1.463 . S
C1510 N1514 1.427 . S
C1511 H1501 0.929 . S
C1511 C1509 1.433 . S
C1511 N1514 1.384 . S
C1512 H1503 0.929 . S
C1512 C1504 1.378 . S
C1512 C1507 1.350 . S
C1513 H1500 0.929 . S
C1513 C1505 1.433 . S
C1513 N1515 1.384 . S
N1514 C1510 1.427 . S
N1514 C1511 1.384 . S
N1515 C1507 1.427 . S
N1515 C1513 1.384 . S
H1516 C1522 0.930 . S
H1517 C1526 0.930 . S
H1518 C1531 0.929 . S
H1519 C1529 0.929 . S
H1520 C1524 0.929 . S
H1521 C1530 0.929 . S
C1522 H1516 0.930 . S
C1522 C1523 1.367 . S
C1522 C1530 1.378 . S
C1523 C1522 1.367 . S
C1523 C1531 1.433 . S
C1524 H1520 0.929 . S
C1524 C1526 1.378 . S
C1524 C1528 1.350 . S
C1525 C1528 1.463 . S
C1525 C1530 1.350 . S
C1525 N1533 1.427 . S
C1526 H1517 0.930 . S
C1526 C1524 1.378 . S
C1526 C1527 1.367 . S
C1527 C1526 1.367 . S
C1527 C1529 1.433 1_556 S
C1528 C1524 1.350 . S
C1528 C1525 1.463 . S
C1528 N1532 1.427 . S
C1529 H1519 0.929 . S
C1529 C1527 1.433 1_554 S
C1529 N1532 1.384 1_554 S
C1530 H1521 0.929 . S
C1530 C1522 1.378 . S
C1530 C1525 1.350 . S
C1531 H1518 0.929 . S
C1531 C1523 1.433 . S
C1531 N1533 1.384 . S
N1532 C1528 1.427 . S
N1532 C1529 1.384 1_556 S
N1533 C1525 1.427 . S
N1533 C1531 1.384 . S
H1534 C1540 0.930 . S
H1535 C1544 0.930 . S
H1536 C1549 0.929 . S
H1537 C1547 0.929 . S
H1538 C1542 0.929 . S
H1539 C1548 0.929 . S
C1540 H1534 0.930 . S
C1540 C1541 1.367 . S
C1540 C1548 1.378 . S
C1541 C1540 1.367 . S
C1541 C1549 1.433 . S
C1542 H1538 0.929 . S
C1542 C1544 1.378 . S
C1542 C1546 1.350 . S
C1543 C1546 1.463 . S
C1543 C1548 1.350 . S
C1543 N1551 1.427 . S
C1544 H1535 0.930 . S
C1544 C1542 1.378 . S
C1544 C1545 1.367 . S
C1545 C1544 1.367 . S
C1545 C1547 1.433 . S
C1546 C1542 1.350 . S
C1546 C1543 1.463 . S
C1546 N1550 1.427 . S
C1547 H1537 0.929 . S
C1547 C1545 1.433 . S
C1547 N1550 1.384 . S
C1548 H1539 0.929 . S
C1548 C1540 1.378 . S
C1548 C1543 1.350 . S
C1549 H1536 0.929 . S
C1549 C1541 1.433 . S
C1549 N1551 1.384 . S
N1550 C1546 1.427 . S
N1550 C1547 1.384 . S
N1551 C1543 1.427 . S
N1551 C1549 1.384 . S
H1552 C1558 0.930 . S
H1553 C1562 0.930 . S
H1554 C1567 0.929 . S
H1555 C1565 0.929 . S
H1556 C1560 0.929 . S
H1557 C1566 0.929 . S
C1558 H1552 0.930 . S
C1558 C1559 1.367 . S
C1558 C1566 1.378 . S
C1559 C1558 1.367 . S
C1559 C1567 1.433 1_545 S
C1560 H1556 0.929 . S
C1560 C1562 1.378 . S
C1560 C1564 1.350 1_565 S
C1561 C1564 1.463 . S
C1561 C1566 1.350 . S
C1561 N1569 1.427 1_545 S
C1562 H1553 0.930 . S
C1562 C1560 1.378 . S
C1562 C1563 1.363 1_565 S
C1563 C1562 1.363 1_545 S
C1563 C1565 1.438 . S
C1564 C1560 1.350 1_545 S
C1564 C1561 1.463 . S
C1564 N1568 1.427 . S
C1565 H1555 0.929 . S
C1565 C1563 1.438 . S
C1565 N1568 1.384 . S
C1566 H1557 0.929 . S
C1566 C1558 1.378 . S
C1566 C1561 1.350 . S
C1567 H1554 0.929 . S
C1567 C1559 1.433 1_565 S
C1567 N1569 1.384 . S
N1568 C1564 1.427 . S
N1568 C1565 1.384 . S
N1569 C1561 1.427 1_565 S
N1569 C1567 1.384 . S
H1570 C1576 0.930 . S
H1571 C1580 0.930 . S
H1572 C1585 0.929 . S
H1573 C1583 0.929 . S
H1574 C1578 0.929 . S
H1575 C1584 0.929 . S
C1576 H1570 0.930 . S
C1576 C1577 1.367 . S
C1576 C1584 1.378 . S
C1577 C1576 1.367 . S
C1577 C1585 1.433 . S
C1578 H1574 0.929 . S
C1578 C1580 1.378 . S
C1578 C1582 1.350 . S
C1579 C1582 1.463 . S
C1579 C1584 1.350 . S
C1579 N1587 1.427 . S
C1580 H1571 0.930 . S
C1580 C1578 1.378 . S
C1580 C1581 1.367 . S
C1581 C1580 1.367 . S
C1581 C1583 1.433 . S
C1582 C1578 1.350 . S
C1582 C1579 1.463 . S
C1582 N1586 1.427 . S
C1583 H1573 0.929 . S
C1583 C1581 1.433 . S
C1583 N1586 1.384 . S
C1584 H1575 0.929 . S
C1584 C1576 1.378 . S
C1584 C1579 1.350 . S
C1585 H1572 0.929 . S
C1585 C1577 1.433 . S
C1585 N1587 1.384 . S
N1586 C1582 1.427 . S
N1586 C1583 1.384 . S
N1587 C1579 1.427 . S
N1587 C1585 1.384 . S
H1588 C1594 0.930 . S
H1589 C1598 0.930 . S
H1590 C1603 0.929 . S
H1591 C1601 0.929 1_565 S
H1592 C1596 0.929 . S
H1593 C1602 0.947 . S
C1594 H1588 0.930 . S
C1594 C1595 1.367 1_565 S
C1594 C1602 1.381 . S
C1595 C1594 1.367 1_545 S
C1595 C1603 1.433 . S
C1596 H1592 0.929 . S
C1596 C1598 1.378 . S
C1596 C1600 1.350 . S
C1597 C1600 1.463 . S
C1597 C1602 1.329 1_545 S
C1597 N1605 1.427 . S
C1598 H1589 0.930 . S
C1598 C1596 1.378 . S
C1598 C1599 1.367 . S
C1599 C1598 1.367 . S
C1599 C1601 1.433 . S
C1600 C1596 1.350 . S
C1600 C1597 1.463 . S
C1600 N1604 1.427 . S
C1601 H1591 0.929 1_545 S
C1601 C1599 1.433 . S
C1601 N1604 1.384 . S
C1602 H1593 0.947 . S
C1602 C1594 1.381 . S
C1602 C1597 1.329 1_565 S
C1603 H1590 0.929 . S
C1603 C1595 1.433 . S
C1603 N1605 1.384 . S
N1604 C1600 1.427 . S
N1604 C1601 1.384 . S
N1605 C1597 1.427 . S
N1605 C1603 1.384 . S
H1606 C1612 0.930 . S
H1607 C1616 0.930 . S
H1608 C1621 0.929 . S
H1609 C1619 0.929 . S
H1610 C1614 0.929 . S
H1611 C1620 0.929 . S
C1612 H1606 0.930 . S
C1612 C1613 1.367 . S
C1612 C1620 1.378 . S
C1613 C1612 1.367 . S
C1613 C1621 1.433 . S
C1614 H1610 0.929 . S
C1614 C1616 1.378 . S
C1614 C1618 1.350 . S
C1615 C1618 1.463 . S
C1615 C1620 1.350 . S
C1615 N1623 1.427 . S
C1616 H1607 0.930 . S
C1616 C1614 1.378 . S
C1616 C1617 1.367 . S
C1617 C1616 1.367 . S
C1617 C1619 1.433 . S
C1618 C1614 1.350 . S
C1618 C1615 1.463 . S
C1618 N1622 1.427 . S
C1619 H1609 0.929 . S
C1619 C1617 1.433 . S
C1619 N1622 1.384 . S
C1620 H1611 0.929 . S
C1620 C1612 1.378 . S
C1620 C1615 1.350 . S
C1621 H1608 0.929 . S
C1621 C1613 1.433 . S
C1621 N1623 1.384 . S
N1622 C1618 1.427 . S
N1622 C1619 1.384 . S
N1623 C1615 1.427 . S
N1623 C1621 1.384 . S
H1624 C1630 0.930 1_565 S
H1625 C1634 0.930 . S
H1626 C1639 0.929 . S
H1627 C1637 0.929 . S
H1628 C1632 0.929 . S
H1629 C1638 0.899 1_565 S
C1630 H1624 0.930 1_545 S
C1630 C1631 1.367 . S
C1630 C1638 1.378 . S
C1631 C1630 1.367 . S
C1631 C1639 1.433 . S
C1632 H1628 0.929 . S
C1632 C1634 1.378 . S
C1632 C1636 1.350 . S
C1633 C1636 1.463 . S
C1633 C1638 1.350 . S
C1633 N1641 1.427 . S
C1634 H1625 0.930 . S
C1634 C1632 1.378 . S
C1634 C1635 1.367 . S
C1635 C1634 1.367 . S
C1635 C1637 1.433 . S
C1636 C1632 1.350 . S
C1636 C1633 1.463 . S
C1636 N1640 1.427 . S
C1637 H1627 0.929 . S
C1637 C1635 1.433 . S
C1637 N1640 1.384 . S
C1638 H1629 0.899 1_545 S
C1638 C1630 1.378 . S
C1638 C1633 1.350 . S
C1639 H1626 0.929 . S
C1639 C1631 1.433 . S
C1639 N1641 1.384 . S
N1640 C1636 1.427 . S
N1640 C1637 1.384 . S
N1641 C1633 1.427 . S
N1641 C1639 1.384 . S
H1642 C1648 0.930 . S
H1643 C1652 0.930 . S
H1644 C1657 0.929 . S
H1645 C1655 0.929 . S
H1646 C1650 0.929 . S
H1647 C1656 0.929 . S
C1648 H1642 0.930 . S
C1648 C1649 1.367 . S
C1648 C1656 1.378 . S
C1649 C1648 1.367 . S
C1649 C1657 1.433 . S
C1650 H1646 0.929 . S
C1650 C1652 1.378 . S
C1650 C1654 1.350 . S
C1651 C1654 1.463 . S
C1651 C1656 1.350 . S
C1651 N1659 1.427 . S
C1652 H1643 0.930 . S
C1652 C1650 1.378 . S
C1652 C1653 1.367 . S
C1653 C1652 1.367 . S
C1653 C1655 1.433 . S
C1654 C1650 1.350 . S
C1654 C1651 1.463 . S
C1654 N1658 1.427 . S
C1655 H1645 0.929 . S
C1655 C1653 1.433 . S
C1655 N1658 1.384 . S
C1656 H1647 0.929 . S
C1656 C1648 1.378 . S
C1656 C1651 1.350 . S
C1657 H1644 0.929 . S
C1657 C1649 1.433 . S
C1657 N1659 1.384 . S
N1658 C1654 1.427 . S
N1658 C1655 1.384 . S
N1659 C1651 1.427 . S
N1659 C1657 1.384 . S
H1660 C1666 0.930 . S
H1661 C1670 0.930 . S
H1662 C1675 0.929 . S
H1663 C1673 0.929 . S
H1664 C1668 0.929 . S
H1665 C1674 0.929 . S
C1666 H1660 0.930 . S
C1666 C1667 1.367 1_565 S
C1666 C1674 1.378 . S
C1667 C1666 1.367 1_545 S
C1667 C1675 1.433 . S
C1668 H1664 0.929 . S
C1668 C1670 1.378 . S
C1668 C1672 1.350 1_545 S
C1669 C1672 1.467 . S
C1669 C1674 1.365 . S
C1669 N1677 1.407 1_565 S
C1670 H1661 0.930 . S
C1670 C1668 1.378 . S
C1670 C1671 1.367 1_545 S
C1671 C1670 1.367 1_565 S
C1671 C1673 1.433 . S
C1672 C1668 1.350 1_565 S
C1672 C1669 1.467 . S
C1672 N1676 1.427 . S
C1673 H1663 0.929 . S
C1673 C1671 1.433 . S
C1673 N1676 1.384 . S
C1674 H1665 0.929 . S
C1674 C1666 1.378 . S
C1674 C1669 1.365 . S
C1675 H1662 0.929 . S
C1675 C1667 1.433 . S
C1675 N1677 1.384 . S
N1676 C1672 1.427 . S
N1676 C1673 1.384 . S
N1677 C1669 1.407 1_545 S
N1677 C1675 1.384 . S
H1678 C1684 0.930 . S
H1679 C1688 0.930 . S
H1680 C1693 0.929 . S
H1681 C1691 0.929 . S
H1682 C1686 0.929 . S
H1683 C1692 0.929 . S
C1684 H1678 0.930 . S
C1684 C1685 1.367 . S
C1684 C1692 1.378 . S
C1685 C1684 1.367 . S
C1685 C1693 1.433 . S
C1686 H1682 0.929 . S
C1686 C1688 1.378 . S
C1686 C1690 1.350 . S
C1687 C1690 1.463 . S
C1687 C1692 1.350 . S
C1687 N1695 1.427 . S
C1688 H1679 0.930 . S
C1688 C1686 1.378 . S
C1688 C1689 1.367 . S
C1689 C1688 1.367 . S
C1689 C1691 1.433 . S
C1690 C1686 1.350 . S
C1690 C1687 1.463 . S
C1690 N1694 1.427 . S
C1691 H1681 0.929 . S
C1691 C1689 1.433 . S
C1691 N1694 1.384 . S
C1692 H1683 0.929 . S
C1692 C1684 1.378 . S
C1692 C1687 1.350 . S
C1693 H1680 0.929 . S
C1693 C1685 1.433 . S
C1693 N1695 1.384 . S
N1694 C1690 1.427 . S
N1694 C1691 1.384 . S
N1695 C1687 1.427 . S
N1695 C1693 1.384 . S
H1696 C1702 0.930 1_556 S
H1697 C1706 0.930 . S
H1698 C1711 0.929 . S
H1699 C1709 0.929 . S
H1700 C1704 0.929 . S
H1701 C1710 0.929 . S
C1702 H1696 0.930 1_554 S
C1702 C1703 1.367 . S
C1702 C1710 1.378 1_554 S
C1703 C1702 1.367 . S
C1703 C1711 1.433 . S
C1704 H1700 0.929 . S
C1704 C1706 1.378 . S
C1704 C1708 1.350 . S
C1705 C1708 1.463 . S
C1705 C1710 1.350 1_554 S
C1705 N1713 1.427 . S
C1706 H1697 0.930 . S
C1706 C1704 1.378 . S
C1706 C1707 1.367 . S
C1707 C1706 1.367 . S
C1707 C1709 1.433 1_554 S
C1708 C1704 1.350 . S
C1708 C1705 1.463 . S
C1708 N1712 1.427 1_554 S
C1709 H1699 0.929 . S
C1709 C1707 1.433 1_556 S
C1709 N1712 1.384 . S
C1710 H1701 0.929 . S
C1710 C1702 1.378 1_556 S
C1710 C1705 1.350 1_556 S
C1711 H1698 0.929 . S
C1711 C1703 1.433 . S
C1711 N1713 1.384 . S
N1712 C1708 1.427 1_556 S
N1712 C1709 1.384 . S
N1713 C1705 1.427 . S
N1713 C1711 1.384 . S
H1714 C1720 0.930 . S
H1715 C1724 0.930 . S
H1716 C1729 0.929 . S
H1717 C1727 0.929 . S
H1718 C1722 0.929 . S
H1719 C1728 0.929 . S
C1720 H1714 0.930 . S
C1720 C1721 1.367 . S
C1720 C1728 1.378 . S
C1721 C1720 1.367 . S
C1721 C1729 1.433 . S
C1722 H1718 0.929 . S
C1722 C1724 1.378 . S
C1722 C1726 1.350 . S
C1723 C1726 1.463 . S
C1723 C1728 1.350 . S
C1723 N1731 1.427 . S
C1724 H1715 0.930 . S
C1724 C1722 1.378 . S
C1724 C1725 1.367 . S
C1725 C1724 1.367 . S
C1725 C1727 1.433 . S
C1726 C1722 1.350 . S
C1726 C1723 1.463 . S
C1726 N1730 1.427 . S
C1727 H1717 0.929 . S
C1727 C1725 1.433 . S
C1727 N1730 1.384 . S
C1728 H1719 0.929 . S
C1728 C1720 1.378 . S
C1728 C1723 1.350 . S
C1729 H1716 0.929 . S
C1729 C1721 1.433 . S
C1729 N1731 1.384 . S
N1730 C1726 1.427 . S
N1730 C1727 1.384 . S
N1731 C1723 1.427 . S
N1731 C1729 1.384 . S
H1732 C1738 0.930 . S
H1733 C1742 0.930 . S
H1734 C1747 0.929 . S
H1735 C1745 0.929 . S
H1736 C1740 0.929 . S
H1737 C1746 0.929 . S
C1738 H1732 0.930 . S
C1738 C1739 1.367 . S
C1738 C1746 1.378 . S
C1739 C1738 1.367 . S
C1739 C1747 1.433 . S
C1740 H1736 0.929 . S
C1740 C1742 1.378 . S
C1740 C1744 1.350 . S
C1741 C1744 1.463 . S
C1741 C1746 1.350 . S
C1741 N1749 1.427 . S
C1742 H1733 0.930 . S
C1742 C1740 1.378 . S
C1742 C1743 1.367 . S
C1743 C1742 1.367 . S
C1743 C1745 1.433 . S
C1744 C1740 1.350 . S
C1744 C1741 1.463 . S
C1744 N1748 1.427 . S
C1745 H1735 0.929 . S
C1745 C1743 1.433 . S
C1745 N1748 1.384 . S
C1746 H1737 0.929 . S
C1746 C1738 1.378 . S
C1746 C1741 1.350 . S
C1747 H1734 0.929 . S
C1747 C1739 1.433 . S
C1747 N1749 1.384 . S
N1748 C1744 1.427 . S
N1748 C1745 1.384 . S
N1749 C1741 1.427 . S
N1749 C1747 1.384 . S
H1750 C1756 0.930 . S
H1751 C1760 0.930 . S
H1752 C1765 0.929 . S
H1753 C1763 0.929 . S
H1754 C1758 0.929 . S
H1755 C1764 0.929 . S
C1756 H1750 0.930 . S
C1756 C1757 1.367 . S
C1756 C1764 1.378 . S
C1757 C1756 1.367 . S
C1757 C1765 1.433 . S
C1758 H1754 0.929 . S
C1758 C1760 1.378 . S
C1758 C1762 1.350 . S
C1759 C1762 1.463 . S
C1759 C1764 1.350 . S
C1759 N1767 1.427 . S
C1760 H1751 0.930 . S
C1760 C1758 1.378 . S
C1760 C1761 1.367 . S
C1761 C1760 1.367 . S
C1761 C1763 1.433 . S
C1762 C1758 1.350 . S
C1762 C1759 1.463 . S
C1762 N1766 1.427 . S
C1763 H1753 0.929 . S
C1763 C1761 1.433 . S
C1763 N1766 1.384 . S
C1764 H1755 0.929 . S
C1764 C1756 1.378 . S
C1764 C1759 1.350 . S
C1765 H1752 0.929 . S
C1765 C1757 1.433 . S
C1765 N1767 1.384 . S
N1766 C1762 1.427 . S
N1766 C1763 1.384 . S
N1767 C1759 1.427 . S
N1767 C1765 1.384 . S
H1768 C1774 0.930 . S
H1769 C1778 0.930 . S
H1770 C1783 0.929 . S
H1771 C1781 0.929 . S
H1772 C1776 0.929 . S
H1773 C1782 0.929 . S
C1774 H1768 0.930 . S
C1774 C1775 1.367 . S
C1774 C1782 1.378 . S
C1775 C1774 1.367 . S
C1775 C1783 1.433 . S
C1776 H1772 0.929 . S
C1776 C1778 1.378 . S
C1776 C1780 1.350 . S
C1777 C1780 1.463 . S
C1777 C1782 1.350 . S
C1777 N1785 1.427 . S
C1778 H1769 0.930 . S
C1778 C1776 1.378 . S
C1778 C1779 1.367 . S
C1779 C1778 1.367 . S
C1779 C1781 1.433 . S
C1780 C1776 1.350 . S
C1780 C1777 1.463 . S
C1780 N1784 1.427 . S
C1781 H1771 0.929 . S
C1781 C1779 1.433 . S
C1781 N1784 1.384 . S
C1782 H1773 0.929 . S
C1782 C1774 1.378 . S
C1782 C1777 1.350 . S
C1783 H1770 0.929 . S
C1783 C1775 1.433 . S
C1783 N1785 1.384 . S
N1784 C1780 1.427 . S
N1784 C1781 1.384 . S
N1785 C1777 1.427 . S
N1785 C1783 1.384 . S
H1786 C1792 0.930 . S
H1787 C1796 0.930 . S
H1788 C1801 0.929 . S
H1789 C1799 0.929 1_545 S
H1790 C1794 0.929 . S
H1791 C1800 0.929 . S
C1792 H1786 0.930 . S
C1792 C1793 1.367 . S
C1792 C1800 1.378 . S
C1793 C1792 1.367 . S
C1793 C1801 1.433 . S
C1794 H1790 0.929 . S
C1794 C1796 1.378 . S
C1794 C1798 1.350 . S
C1795 C1798 1.463 . S
C1795 C1800 1.350 . S
C1795 N1803 1.427 . S
C1796 H1787 0.930 . S
C1796 C1794 1.378 . S
C1796 C1797 1.367 . S
C1797 C1796 1.367 . S
C1797 C1799 1.433 . S
C1798 C1794 1.350 . S
C1798 C1795 1.463 . S
C1798 N1802 1.427 . S
C1799 H1789 0.929 1_565 S
C1799 C1797 1.433 . S
C1799 N1802 1.384 . S
C1800 H1791 0.929 . S
C1800 C1792 1.378 . S
C1800 C1795 1.350 . S
C1801 H1788 0.929 . S
C1801 C1793 1.433 . S
C1801 N1803 1.384 . S
N1802 C1798 1.427 . S
N1802 C1799 1.384 . S
N1803 C1795 1.427 . S
N1803 C1801 1.384 . S
H1804 C1810 0.930 . S
H1805 C1814 0.930 . S
H1806 C1819 0.929 . S
H1807 C1817 0.929 . S
H1808 C1812 0.929 . S
H1809 C1818 0.929 . S
C1810 H1804 0.930 . S
C1810 C1811 1.367 . S
C1810 C1818 1.378 . S
C1811 C1810 1.367 . S
C1811 C1819 1.433 . S
C1812 H1808 0.929 . S
C1812 C1814 1.378 . S
C1812 C1816 1.350 . S
C1813 C1816 1.463 . S
C1813 C1818 1.350 . S
C1813 N1821 1.427 . S
C1814 H1805 0.930 . S
C1814 C1812 1.378 . S
C1814 C1815 1.367 . S
C1815 C1814 1.367 . S
C1815 C1817 1.433 . S
C1816 C1812 1.350 . S
C1816 C1813 1.463 . S
C1816 N1820 1.427 . S
C1817 H1807 0.929 . S
C1817 C1815 1.433 . S
C1817 N1820 1.384 . S
C1818 H1809 0.929 . S
C1818 C1810 1.378 . S
C1818 C1813 1.350 . S
C1819 H1806 0.929 . S
C1819 C1811 1.433 . S
C1819 N1821 1.384 . S
N1820 C1816 1.427 . S
N1820 C1817 1.384 . S
N1821 C1813 1.427 . S
N1821 C1819 1.384 . S
H1822 C1828 0.930 . S
H1823 C1832 0.930 . S
H1824 C1837 0.929 . S
H1825 C1835 0.929 . S
H1826 C1830 0.929 . S
H1827 C1836 0.929 . S
C1828 H1822 0.930 . S
C1828 C1829 1.367 . S
C1828 C1836 1.378 . S
C1829 C1828 1.367 . S
C1829 C1837 1.433 . S
C1830 H1826 0.929 . S
C1830 C1832 1.378 . S
C1830 C1834 1.350 . S
C1831 C1834 1.463 . S
C1831 C1836 1.350 . S
C1831 N1839 1.427 . S
C1832 H1823 0.930 . S
C1832 C1830 1.378 . S
C1832 C1833 1.367 . S
C1833 C1832 1.367 . S
C1833 C1835 1.433 . S
C1834 C1830 1.350 . S
C1834 C1831 1.463 . S
C1834 N1838 1.427 . S
C1835 H1825 0.929 . S
C1835 C1833 1.433 . S
C1835 N1838 1.384 . S
C1836 H1827 0.929 . S
C1836 C1828 1.378 . S
C1836 C1831 1.350 . S
C1837 H1824 0.929 . S
C1837 C1829 1.433 . S
C1837 N1839 1.384 . S
N1838 C1834 1.427 . S
N1838 C1835 1.384 . S
N1839 C1831 1.427 . S
N1839 C1837 1.384 . S
H1840 C1846 0.930 . S
H1841 C1850 0.934 1_554 S
H1842 C1855 0.929 . S
H1843 C1853 0.929 . S
H1844 C1848 0.929 . S
H1845 C1854 0.930 1_655 S
C1846 H1840 0.930 . S
C1846 C1847 1.367 1_655 S
C1846 C1854 1.379 1_655 S
C1847 C1846 1.367 1_455 S
C1847 C1855 1.433 . S
C1848 H1844 0.929 . S
C1848 C1850 1.374 . S
C1848 C1852 1.350 . S
C1849 C1852 1.463 . S
C1849 C1854 1.348 . S
C1849 N1857 1.427 . S
C1850 H1841 0.934 1_556 S
C1850 C1848 1.374 . S
C1850 C1851 1.366 . S
C1851 C1850 1.366 . S
C1851 C1853 1.465 . S
C1852 C1848 1.350 . S
C1852 C1849 1.463 . S
C1852 N1856 1.427 . S
C1853 H1843 0.929 . S
C1853 C1851 1.465 . S
C1853 N1856 1.384 . S
C1854 H1845 0.930 1_455 S
C1854 C1846 1.379 1_455 S
C1854 C1849 1.348 . S
C1855 H1842 0.929 . S
C1855 C1847 1.433 . S
C1855 N1857 1.384 . S
N1856 C1852 1.427 . S
N1856 C1853 1.384 . S
N1857 C1849 1.427 . S
N1857 C1855 1.384 . S
H1858 C1864 0.930 . S
H1859 C1868 0.930 . S
H1860 C1873 0.929 . S
H1861 C1871 0.929 . S
H1862 C1866 0.929 . S
H1863 C1872 0.929 . S
C1864 H1858 0.930 . S
C1864 C1865 1.367 . S
C1864 C1872 1.378 . S
C1865 C1864 1.367 . S
C1865 C1873 1.433 . S
C1866 H1862 0.929 . S
C1866 C1868 1.378 . S
C1866 C1870 1.350 . S
C1867 C1870 1.463 . S
C1867 C1872 1.350 . S
C1867 N1875 1.427 . S
C1868 H1859 0.930 . S
C1868 C1866 1.378 . S
C1868 C1869 1.367 . S
C1869 C1868 1.367 . S
C1869 C1871 1.433 . S
C1870 C1866 1.350 . S
C1870 C1867 1.463 . S
C1870 N1874 1.427 . S
C1871 H1861 0.929 . S
C1871 C1869 1.433 . S
C1871 N1874 1.384 . S
C1872 H1863 0.929 . S
C1872 C1864 1.378 . S
C1872 C1867 1.350 . S
C1873 H1860 0.929 . S
C1873 C1865 1.433 . S
C1873 N1875 1.384 . S
N1874 C1870 1.427 . S
N1874 C1871 1.384 . S
N1875 C1867 1.427 . S
N1875 C1873 1.384 . S
H1876 C1882 0.930 . S
H1877 C1886 0.930 . S
H1878 C1891 0.929 . S
H1879 C1889 0.929 . S
H1880 C1884 0.929 . S
H1881 C1890 0.929 . S
C1882 H1876 0.930 . S
C1882 C1883 1.367 . S
C1882 C1890 1.378 . S
C1883 C1882 1.367 . S
C1883 C1891 1.433 . S
C1884 H1880 0.929 . S
C1884 C1886 1.378 . S
C1884 C1888 1.350 . S
C1885 C1888 1.463 . S
C1885 C1890 1.350 . S
C1885 N1893 1.427 . S
C1886 H1877 0.930 . S
C1886 C1884 1.378 . S
C1886 C1887 1.367 . S
C1887 C1886 1.367 . S
C1887 C1889 1.433 . S
C1888 C1884 1.350 . S
C1888 C1885 1.463 . S
C1888 N1892 1.427 . S
C1889 H1879 0.929 . S
C1889 C1887 1.433 . S
C1889 N1892 1.384 . S
C1890 H1881 0.929 . S
C1890 C1882 1.378 . S
C1890 C1885 1.350 . S
C1891 H1878 0.929 . S
C1891 C1883 1.433 . S
C1891 N1893 1.384 . S
N1892 C1888 1.427 . S
N1892 C1889 1.384 . S
N1893 C1885 1.427 . S
N1893 C1891 1.384 . S
H1894 C1900 0.930 . S
H1895 C1904 0.930 . S
H1896 C1909 0.929 . S
H1897 C1907 0.929 . S
H1898 C1902 0.929 . S
H1899 C1908 0.929 . S
C1900 H1894 0.930 . S
C1900 C1901 1.367 . S
C1900 C1908 1.378 . S
C1901 C1900 1.367 . S
C1901 C1909 1.433 . S
C1902 H1898 0.929 . S
C1902 C1904 1.378 . S
C1902 C1906 1.350 . S
C1903 C1906 1.463 . S
C1903 C1908 1.350 . S
C1903 N1911 1.427 . S
C1904 H1895 0.930 . S
C1904 C1902 1.378 . S
C1904 C1905 1.367 . S
C1905 C1904 1.367 . S
C1905 C1907 1.433 . S
C1906 C1902 1.350 . S
C1906 C1903 1.463 . S
C1906 N1910 1.427 . S
C1907 H1897 0.929 . S
C1907 C1905 1.433 . S
C1907 N1910 1.384 . S
C1908 H1899 0.929 . S
C1908 C1900 1.378 . S
C1908 C1903 1.350 . S
C1909 H1896 0.929 . S
C1909 C1901 1.433 . S
C1909 N1911 1.384 . S
N1910 C1906 1.427 . S
N1910 C1907 1.384 . S
N1911 C1903 1.427 . S
N1911 C1909 1.384 . S
H1912 C1918 0.930 . S
H1913 C1922 0.930 . S
H1914 C1927 0.929 1_655 S
H1915 C1925 0.929 . S
H1916 C1920 0.929 . S
H1917 C1926 0.929 . S
C1918 H1912 0.930 . S
C1918 C1919 1.367 . S
C1918 C1926 1.378 . S
C1919 C1918 1.367 . S
C1919 C1927 1.433 . S
C1920 H1916 0.929 . S
C1920 C1922 1.378 . S
C1920 C1924 1.350 . S
C1921 C1924 1.463 . S
C1921 C1926 1.350 . S
C1921 N1929 1.427 . S
C1922 H1913 0.930 . S
C1922 C1920 1.378 . S
C1922 C1923 1.367 . S
C1923 C1922 1.367 . S
C1923 C1925 1.433 . S
C1924 C1920 1.350 . S
C1924 C1921 1.463 . S
C1924 N1928 1.427 . S
C1925 H1915 0.929 . S
C1925 C1923 1.433 . S
C1925 N1928 1.384 . S
C1926 H1917 0.929 . S
C1926 C1918 1.378 . S
C1926 C1921 1.350 . S
C1927 H1914 0.929 1_455 S
C1927 C1919 1.433 . S
C1927 N1929 1.384 . S
N1928 C1924 1.427 . S
N1928 C1925 1.384 . S
N1929 C1921 1.427 . S
N1929 C1927 1.384 . S
H1930 C1936 0.930 . S
H1931 C1940 0.930 . S
H1932 C1945 0.929 . S
H1933 C1943 0.929 . S
H1934 C1938 0.929 . S
H1935 C1944 0.929 . S
C1936 H1930 0.930 . S
C1936 C1937 1.367 . S
C1936 C1944 1.378 . S
C1937 C1936 1.367 . S
C1937 C1945 1.433 . S
C1938 H1934 0.929 . S
C1938 C1940 1.378 . S
C1938 C1942 1.350 . S
C1939 C1942 1.463 . S
C1939 C1944 1.350 . S
C1939 N1947 1.427 . S
C1940 H1931 0.930 . S
C1940 C1938 1.378 . S
C1940 C1941 1.367 . S
C1941 C1940 1.367 . S
C1941 C1943 1.433 . S
C1942 C1938 1.350 . S
C1942 C1939 1.463 . S
C1942 N1946 1.427 . S
C1943 H1933 0.929 . S
C1943 C1941 1.433 . S
C1943 N1946 1.384 . S
C1944 H1935 0.929 . S
C1944 C1936 1.378 . S
C1944 C1939 1.350 . S
C1945 H1932 0.929 . S
C1945 C1937 1.433 . S
C1945 N1947 1.384 . S
N1946 C1942 1.427 . S
N1946 C1943 1.384 . S
N1947 C1939 1.427 . S
N1947 C1945 1.384 . S
H1948 C1954 0.930 . S
H1949 C1958 0.930 . S
H1950 C1963 0.929 . S
H1951 C1961 0.929 . S
H1952 C1956 0.929 . S
H1953 C1962 0.929 . S
C1954 H1948 0.930 . S
C1954 C1955 1.367 . S
C1954 C1962 1.378 . S
C1955 C1954 1.367 . S
C1955 C1963 1.433 . S
C1956 H1952 0.929 . S
C1956 C1958 1.378 . S
C1956 C1960 1.350 . S
C1957 C1960 1.463 . S
C1957 C1962 1.350 . S
C1957 N1965 1.427 . S
C1958 H1949 0.930 . S
C1958 C1956 1.378 . S
C1958 C1959 1.367 . S
C1959 C1958 1.367 . S
C1959 C1961 1.433 . S
C1960 C1956 1.350 . S
C1960 C1957 1.463 . S
C1960 N1964 1.427 . S
C1961 H1951 0.929 . S
C1961 C1959 1.433 . S
C1961 N1964 1.384 . S
C1962 H1953 0.929 . S
C1962 C1954 1.378 . S
C1962 C1957 1.350 . S
C1963 H1950 0.929 . S
C1963 C1955 1.433 . S
C1963 N1965 1.384 . S
N1964 C1960 1.427 . S
N1964 C1961 1.384 . S
N1965 C1957 1.427 . S
N1965 C1963 1.384 . S
H1966 C1972 0.930 . S
H1967 C1976 0.930 . S
H1968 C1981 0.929 . S
H1969 C1979 0.929 . S
H1970 C1974 0.929 . S
H1971 C1980 0.929 . S
C1972 H1966 0.930 . S
C1972 C1973 1.367 . S
C1972 C1980 1.378 . S
C1973 C1972 1.367 . S
C1973 C1981 1.433 . S
C1974 H1970 0.929 . S
C1974 C1976 1.378 . S
C1974 C1978 1.350 . S
C1975 C1978 1.463 . S
C1975 C1980 1.350 . S
C1975 N1983 1.427 . S
C1976 H1967 0.930 . S
C1976 C1974 1.378 . S
C1976 C1977 1.367 . S
C1977 C1976 1.367 . S
C1977 C1979 1.433 . S
C1978 C1974 1.350 . S
C1978 C1975 1.463 . S
C1978 N1982 1.427 . S
C1979 H1969 0.929 . S
C1979 C1977 1.433 . S
C1979 N1982 1.384 . S
C1980 H1971 0.929 . S
C1980 C1972 1.378 . S
C1980 C1975 1.350 . S
C1981 H1968 0.929 . S
C1981 C1973 1.433 . S
C1981 N1983 1.384 . S
N1982 C1978 1.427 . S
N1982 C1979 1.384 . S
N1983 C1975 1.427 . S
N1983 C1981 1.384 . S
H1984 C1990 0.930 . S
H1985 C1994 0.930 1_455 S
H1986 C1999 0.929 . S
H1987 C1997 0.929 1_565 S
H1988 C1992 0.929 . S
H1989 C1998 0.929 . S
C1990 H1984 0.930 . S
C1990 C1991 1.367 1_565 S
C1990 C1998 1.378 . S
C1991 C1990 1.367 1_545 S
C1991 C1999 1.433 . S
C1992 H1988 0.929 . S
C1992 C1994 1.379 . S
C1992 C1996 1.350 . S
C1993 C1996 1.463 . S
C1993 C1998 1.350 1_545 S
C1993 N2001 1.427 . S
C1994 H1985 0.930 1_655 S
C1994 C1992 1.379 . S
C1994 C1995 1.366 1_655 S
C1995 C1994 1.366 1_455 S
C1995 C1997 1.433 1_455 S
C1996 C1992 1.350 . S
C1996 C1993 1.463 . S
C1996 N2000 1.427 . S
C1997 H1987 0.929 1_545 S
C1997 C1995 1.433 1_655 S
C1997 N2000 1.384 . S
C1998 H1989 0.929 . S
C1998 C1990 1.378 . S
C1998 C1993 1.350 1_565 S
C1999 H1986 0.929 . S
C1999 C1991 1.433 . S
C1999 N2001 1.384 . S
N2000 C1996 1.427 . S
N2000 C1997 1.384 . S
N2001 C1993 1.427 . S
N2001 C1999 1.384 . S
H2002 C2008 0.930 . S
H2003 C2012 0.930 . S
H2004 C2017 0.929 . S
H2005 C2015 0.929 . S
H2006 C2010 0.929 . S
H2007 C2016 0.929 . S
C2008 H2002 0.930 . S
C2008 C2009 1.367 . S
C2008 C2016 1.378 . S
C2009 C2008 1.367 . S
C2009 C2017 1.433 . S
C2010 H2006 0.929 . S
C2010 C2012 1.378 . S
C2010 C2014 1.350 . S
C2011 C2014 1.463 . S
C2011 C2016 1.350 . S
C2011 N2019 1.427 . S
C2012 H2003 0.930 . S
C2012 C2010 1.378 . S
C2012 C2013 1.367 . S
C2013 C2012 1.367 . S
C2013 C2015 1.433 . S
C2014 C2010 1.350 . S
C2014 C2011 1.463 . S
C2014 N2018 1.427 . S
C2015 H2005 0.929 . S
C2015 C2013 1.433 . S
C2015 N2018 1.384 . S
C2016 H2007 0.929 . S
C2016 C2008 1.378 . S
C2016 C2011 1.350 . S
C2017 H2004 0.929 . S
C2017 C2009 1.433 . S
C2017 N2019 1.384 . S
N2018 C2014 1.427 . S
N2018 C2015 1.384 . S
N2019 C2011 1.427 . S
N2019 C2017 1.384 . S
H2020 C2026 0.930 . S
H2021 C2030 0.930 . S
H2022 C2035 0.929 . S
H2023 C2033 0.929 . S
H2024 C2028 0.929 . S
H2025 C2034 0.929 . S
C2026 H2020 0.930 . S
C2026 C2027 1.367 . S
C2026 C2034 1.378 . S
C2027 C2026 1.367 . S
C2027 C2035 1.433 1_545 S
C2028 H2024 0.929 . S
C2028 C2030 1.378 . S
C2028 C2032 1.350 1_565 S
C2029 C2032 1.463 . S
C2029 C2034 1.350 . S
C2029 N2037 1.427 1_545 S
C2030 H2021 0.930 . S
C2030 C2028 1.378 . S
C2030 C2031 1.367 . S
C2031 C2030 1.367 . S
C2031 C2033 1.433 1_565 S
C2032 C2028 1.350 1_545 S
C2032 C2029 1.463 . S
C2032 N2036 1.427 . S
C2033 H2023 0.929 . S
C2033 C2031 1.433 1_545 S
C2033 N2036 1.384 . S
C2034 H2025 0.929 . S
C2034 C2026 1.378 . S
C2034 C2029 1.350 . S
C2035 H2022 0.929 . S
C2035 C2027 1.433 1_565 S
C2035 N2037 1.384 . S
N2036 C2032 1.427 . S
N2036 C2033 1.384 . S
N2037 C2029 1.427 1_565 S
N2037 C2035 1.384 . S
H2038 C2044 0.930 . S
H2039 C2048 0.930 . S
H2040 C2053 0.929 . S
H2041 C2051 0.929 . S
H2042 C2046 0.929 . S
H2043 C2052 0.929 . S
C2044 H2038 0.930 . S
C2044 C2045 1.367 . S
C2044 C2052 1.378 . S
C2045 C2044 1.367 . S
C2045 C2053 1.433 . S
C2046 H2042 0.929 . S
C2046 C2048 1.378 . S
C2046 C2050 1.350 . S
C2047 C2050 1.463 . S
C2047 C2052 1.350 . S
C2047 N2055 1.427 . S
C2048 H2039 0.930 . S
C2048 C2046 1.378 . S
C2048 C2049 1.367 . S
C2049 C2048 1.367 . S
C2049 C2051 1.433 . S
C2050 C2046 1.350 . S
C2050 C2047 1.463 . S
C2050 N2054 1.427 . S
C2051 H2041 0.929 . S
C2051 C2049 1.433 . S
C2051 N2054 1.384 . S
C2052 H2043 0.929 . S
C2052 C2044 1.378 . S
C2052 C2047 1.350 . S
C2053 H2040 0.929 . S
C2053 C2045 1.433 . S
C2053 N2055 1.384 . S
N2054 C2050 1.427 . S
N2054 C2051 1.384 . S
N2055 C2047 1.427 . S
N2055 C2053 1.384 . S
H2056 C2062 0.930 . S
H2057 C2066 0.930 . S
H2058 C2071 0.929 . S
H2059 C2069 0.929 . S
H2060 C2064 0.929 . S
H2061 C2070 0.929 . S
C2062 H2056 0.930 . S
C2062 C2063 1.367 . S
C2062 C2070 1.378 . S
C2063 C2062 1.367 . S
C2063 C2071 1.433 1_545 S
C2064 H2060 0.929 . S
C2064 C2066 1.378 . S
C2064 C2068 1.350 . S
C2065 C2068 1.463 . S
C2065 C2070 1.350 1_565 S
C2065 N2073 1.427 . S
C2066 H2057 0.930 . S
C2066 C2064 1.378 . S
C2066 C2067 1.367 . S
C2067 C2066 1.367 . S
C2067 C2069 1.433 1_565 S
C2068 C2064 1.350 . S
C2068 C2065 1.463 . S
C2068 N2072 1.427 1_565 S
C2069 H2059 0.929 . S
C2069 C2067 1.433 1_545 S
C2069 N2072 1.384 . S
C2070 H2061 0.929 . S
C2070 C2062 1.378 . S
C2070 C2065 1.350 1_545 S
C2071 H2058 0.929 . S
C2071 C2063 1.433 1_565 S
C2071 N2073 1.384 . S
N2072 C2068 1.427 1_545 S
N2072 C2069 1.384 . S
N2073 C2065 1.427 . S
N2073 C2071 1.384 . S
H2074 C2080 0.930 . S
H2075 C2084 0.930 . S
H2076 C2089 0.929 . S
H2077 C2087 0.929 . S
H2078 C2082 0.929 . S
H2079 C2088 0.929 . S
C2080 H2074 0.930 . S
C2080 C2081 1.367 . S
C2080 C2088 1.378 . S
C2081 C2080 1.367 . S
C2081 C2089 1.433 . S
C2082 H2078 0.929 . S
C2082 C2084 1.378 . S
C2082 C2086 1.350 . S
C2083 C2086 1.463 . S
C2083 C2088 1.350 . S
C2083 N2091 1.427 . S
C2084 H2075 0.930 . S
C2084 C2082 1.378 . S
C2084 C2085 1.367 . S
C2085 C2084 1.367 . S
C2085 C2087 1.433 . S
C2086 C2082 1.350 . S
C2086 C2083 1.463 . S
C2086 N2090 1.427 . S
C2087 H2077 0.929 . S
C2087 C2085 1.433 . S
C2087 N2090 1.384 . S
C2088 H2079 0.929 . S
C2088 C2080 1.378 . S
C2088 C2083 1.350 . S
C2089 H2076 0.929 . S
C2089 C2081 1.433 . S
C2089 N2091 1.384 . S
N2090 C2086 1.427 . S
N2090 C2087 1.384 . S
N2091 C2083 1.427 . S
N2091 C2089 1.384 . S
H2092 C2098 0.930 . S
H2093 C2102 0.930 . S
H2094 C2107 0.929 1_565 S
H2095 C2105 0.929 . S
H2096 C2100 0.929 . S
H2097 C2106 0.929 . S
C2098 H2092 0.930 . S
C2098 C2099 1.367 . S
C2098 C2106 1.378 . S
C2099 C2098 1.367 . S
C2099 C2107 1.433 . S
C2100 H2096 0.929 . S
C2100 C2102 1.378 . S
C2100 C2104 1.350 . S
C2101 C2104 1.463 . S
C2101 C2106 1.350 . S
C2101 N2109 1.427 . S
C2102 H2093 0.930 . S
C2102 C2100 1.378 . S
C2102 C2103 1.367 . S
C2103 C2102 1.367 . S
C2103 C2105 1.433 . S
C2104 C2100 1.350 . S
C2104 C2101 1.463 . S
C2104 N2108 1.427 . S
C2105 H2095 0.929 . S
C2105 C2103 1.433 . S
C2105 N2108 1.384 . S
C2106 H2097 0.929 . S
C2106 C2098 1.378 . S
C2106 C2101 1.350 . S
C2107 H2094 0.929 1_545 S
C2107 C2099 1.433 . S
C2107 N2109 1.384 . S
N2108 C2104 1.427 . S
N2108 C2105 1.384 . S
N2109 C2101 1.427 . S
N2109 C2107 1.384 . S
H2110 C2116 0.930 . S
H2111 C2120 0.930 . S
H2112 C2125 0.929 . S
H2113 C2123 0.929 . S
H2114 C2118 0.929 . S
H2115 C2124 0.929 . S
C2116 H2110 0.930 . S
C2116 C2117 1.367 . S
C2116 C2124 1.378 . S
C2117 C2116 1.367 . S
C2117 C2125 1.433 . S
C2118 H2114 0.929 . S
C2118 C2120 1.378 . S
C2118 C2122 1.350 . S
C2119 C2122 1.463 . S
C2119 C2124 1.350 . S
C2119 N2127 1.427 . S
C2120 H2111 0.930 . S
C2120 C2118 1.378 . S
C2120 C2121 1.367 . S
C2121 C2120 1.367 . S
C2121 C2123 1.433 . S
C2122 C2118 1.350 . S
C2122 C2119 1.463 . S
C2122 N2126 1.427 . S
C2123 H2113 0.929 . S
C2123 C2121 1.433 . S
C2123 N2126 1.384 . S
C2124 H2115 0.929 . S
C2124 C2116 1.378 . S
C2124 C2119 1.350 . S
C2125 H2112 0.929 . S
C2125 C2117 1.433 . S
C2125 N2127 1.384 . S
N2126 C2122 1.427 . S
N2126 C2123 1.384 . S
N2127 C2119 1.427 . S
N2127 C2125 1.384 . S
H2128 C2134 0.930 . S
H2129 C2138 0.930 1_545 S
H2130 C2143 0.929 1_556 S
H2131 C2141 0.929 . S
H2132 C2136 0.929 . S
H2133 C2142 0.929 . S
C2134 H2128 0.930 . S
C2134 C2135 1.367 . S
C2134 C2142 1.378 . S
C2135 C2134 1.367 . S
C2135 C2143 1.433 . S
C2136 H2132 0.929 . S
C2136 C2138 1.378 . S
C2136 C2140 1.350 . S
C2137 C2140 1.463 . S
C2137 C2142 1.350 . S
C2137 N2145 1.427 . S
C2138 H2129 0.930 1_565 S
C2138 C2136 1.378 . S
C2138 C2139 1.367 . S
C2139 C2138 1.367 . S
C2139 C2141 1.433 . S
C2140 C2136 1.350 . S
C2140 C2137 1.463 . S
C2140 N2144 1.427 . S
C2141 H2131 0.929 . S
C2141 C2139 1.433 . S
C2141 N2144 1.384 . S
C2142 H2133 0.929 . S
C2142 C2134 1.378 . S
C2142 C2137 1.350 . S
C2143 H2130 0.929 1_554 S
C2143 C2135 1.433 . S
C2143 N2145 1.384 . S
N2144 C2140 1.427 . S
N2144 C2141 1.384 . S
N2145 C2137 1.427 . S
N2145 C2143 1.384 . S
H2146 C2152 0.930 . S
H2147 C2156 0.930 . S
H2148 C2161 0.929 . S
H2149 C2159 0.929 . S
H2150 C2154 0.929 . S
H2151 C2160 0.929 . S
C2152 H2146 0.930 . S
C2152 C2153 1.367 1_556 S
C2152 C2160 1.378 . S
C2153 C2152 1.367 1_554 S
C2153 C2161 1.433 . S
C2154 H2150 0.929 . S
C2154 C2156 1.378 . S
C2154 C2158 1.350 . S
C2155 C2158 1.463 . S
C2155 C2160 1.350 1_554 S
C2155 N2163 1.427 . S
C2156 H2147 0.930 . S
C2156 C2154 1.378 . S
C2156 C2157 1.367 . S
C2157 C2156 1.367 . S
C2157 C2159 1.433 1_554 S
C2158 C2154 1.350 . S
C2158 C2155 1.463 . S
C2158 N2162 1.427 1_554 S
C2159 H2149 0.929 . S
C2159 C2157 1.433 1_556 S
C2159 N2162 1.384 . S
C2160 H2151 0.929 . S
C2160 C2152 1.378 . S
C2160 C2155 1.350 1_556 S
C2161 H2148 0.929 . S
C2161 C2153 1.433 . S
C2161 N2163 1.384 . S
N2162 C2158 1.427 1_556 S
N2162 C2159 1.384 . S
N2163 C2155 1.427 . S
N2163 C2161 1.384 . S
H2164 C2170 0.930 . S
H2165 C2174 0.930 . S
H2166 C2179 0.929 . S
H2167 C2177 0.929 . S
H2168 C2172 0.929 . S
H2169 C2178 0.929 . S
C2170 H2164 0.930 . S
C2170 C2171 1.367 . S
C2170 C2178 1.378 . S
C2171 C2170 1.367 . S
C2171 C2179 1.433 . S
C2172 H2168 0.929 . S
C2172 C2174 1.378 . S
C2172 C2176 1.350 . S
C2173 C2176 1.463 . S
C2173 C2178 1.350 . S
C2173 N2181 1.427 . S
C2174 H2165 0.930 . S
C2174 C2172 1.378 . S
C2174 C2175 1.367 . S
C2175 C2174 1.367 . S
C2175 C2177 1.433 . S
C2176 C2172 1.350 . S
C2176 C2173 1.463 . S
C2176 N2180 1.427 . S
C2177 H2167 0.929 . S
C2177 C2175 1.433 . S
C2177 N2180 1.384 . S
C2178 H2169 0.929 . S
C2178 C2170 1.378 . S
C2178 C2173 1.350 . S
C2179 H2166 0.929 . S
C2179 C2171 1.433 . S
C2179 N2181 1.384 . S
N2180 C2176 1.427 . S
N2180 C2177 1.384 . S
N2181 C2173 1.427 . S
N2181 C2179 1.384 . S
H2182 C2188 0.930 . S
H2183 C2192 0.930 . S
H2184 C2197 0.929 . S
H2185 C2195 0.929 . S
H2186 C2190 0.929 . S
H2187 C2196 0.929 . S
C2188 H2182 0.930 . S
C2188 C2189 1.367 . S
C2188 C2196 1.378 . S
C2189 C2188 1.367 . S
C2189 C2197 1.433 . S
C2190 H2186 0.929 . S
C2190 C2192 1.378 . S
C2190 C2194 1.350 . S
C2191 C2194 1.463 . S
C2191 C2196 1.350 . S
C2191 N2199 1.427 . S
C2192 H2183 0.930 . S
C2192 C2190 1.378 . S
C2192 C2193 1.367 . S
C2193 C2192 1.367 . S
C2193 C2195 1.433 . S
C2194 C2190 1.350 . S
C2194 C2191 1.463 . S
C2194 N2198 1.427 . S
C2195 H2185 0.929 . S
C2195 C2193 1.433 . S
C2195 N2198 1.384 . S
C2196 H2187 0.929 . S
C2196 C2188 1.378 . S
C2196 C2191 1.350 . S
C2197 H2184 0.929 . S
C2197 C2189 1.433 . S
C2197 N2199 1.384 . S
N2198 C2194 1.427 . S
N2198 C2195 1.384 . S
N2199 C2191 1.427 . S
N2199 C2197 1.384 . S
H2200 C2206 0.930 . S
H2201 C2210 0.930 . S
H2202 C2215 0.929 . S
H2203 C2213 0.929 . S
H2204 C2208 0.929 . S
H2205 C2214 0.929 . S
C2206 H2200 0.930 . S
C2206 C2207 1.367 . S
C2206 C2214 1.378 . S
C2207 C2206 1.367 . S
C2207 C2215 1.433 . S
C2208 H2204 0.929 . S
C2208 C2210 1.378 . S
C2208 C2212 1.350 . S
C2209 C2212 1.463 . S
C2209 C2214 1.350 . S
C2209 N2217 1.427 . S
C2210 H2201 0.930 . S
C2210 C2208 1.378 . S
C2210 C2211 1.367 . S
C2211 C2210 1.367 . S
C2211 C2213 1.433 . S
C2212 C2208 1.350 . S
C2212 C2209 1.463 . S
C2212 N2216 1.427 . S
C2213 H2203 0.929 . S
C2213 C2211 1.433 . S
C2213 N2216 1.384 . S
C2214 H2205 0.929 . S
C2214 C2206 1.378 . S
C2214 C2209 1.350 . S
C2215 H2202 0.929 . S
C2215 C2207 1.433 . S
C2215 N2217 1.384 . S
N2216 C2212 1.427 . S
N2216 C2213 1.384 . S
N2217 C2209 1.427 . S
N2217 C2215 1.384 . S
H2218 C2224 0.930 . S
H2219 C2228 0.930 . S
H2220 C2233 0.929 . S
H2221 C2231 0.929 . S
H2222 C2226 0.929 . S
H2223 C2232 0.929 . S
C2224 H2218 0.930 . S
C2224 C2225 1.367 . S
C2224 C2232 1.378 . S
C2225 C2224 1.367 . S
C2225 C2233 1.433 . S
C2226 H2222 0.929 . S
C2226 C2228 1.378 . S
C2226 C2230 1.350 . S
C2227 C2230 1.463 . S
C2227 C2232 1.350 . S
C2227 N2235 1.427 . S
C2228 H2219 0.930 . S
C2228 C2226 1.378 . S
C2228 C2229 1.367 . S
C2229 C2228 1.367 . S
C2229 C2231 1.433 . S
C2230 C2226 1.350 . S
C2230 C2227 1.463 . S
C2230 N2234 1.427 . S
C2231 H2221 0.929 . S
C2231 C2229 1.433 . S
C2231 N2234 1.384 . S
C2232 H2223 0.929 . S
C2232 C2224 1.378 . S
C2232 C2227 1.350 . S
C2233 H2220 0.929 . S
C2233 C2225 1.433 . S
C2233 N2235 1.384 . S
N2234 C2230 1.427 . S
N2234 C2231 1.384 . S
N2235 C2227 1.427 . S
N2235 C2233 1.384 . S
H2236 C2242 0.930 . S
H2237 C2246 0.930 . S
H2238 C2251 0.929 . S
H2239 C2249 0.929 . S
H2240 C2244 0.929 . S
H2241 C2250 0.929 . S
C2242 H2236 0.930 . S
C2242 C2243 1.367 . S
C2242 C2250 1.378 . S
C2243 C2242 1.367 . S
C2243 C2251 1.433 . S
C2244 H2240 0.929 . S
C2244 C2246 1.378 . S
C2244 C2248 1.350 . S
C2245 C2248 1.463 . S
C2245 C2250 1.350 . S
C2245 N2253 1.427 . S
C2246 H2237 0.930 . S
C2246 C2244 1.378 . S
C2246 C2247 1.367 . S
C2247 C2246 1.367 . S
C2247 C2249 1.433 . S
C2248 C2244 1.350 . S
C2248 C2245 1.463 . S
C2248 N2252 1.427 . S
C2249 H2239 0.929 . S
C2249 C2247 1.433 . S
C2249 N2252 1.384 . S
C2250 H2241 0.929 . S
C2250 C2242 1.378 . S
C2250 C2245 1.350 . S
C2251 H2238 0.929 . S
C2251 C2243 1.433 . S
C2251 N2253 1.384 . S
N2252 C2248 1.427 . S
N2252 C2249 1.384 . S
N2253 C2245 1.427 . S
N2253 C2251 1.384 . S
H2254 C2260 0.930 . S
H2255 C2264 0.930 . S
H2256 C2269 0.929 . S
H2257 C2267 0.929 . S
H2258 C2262 0.929 . S
H2259 C2268 0.929 . S
C2260 H2254 0.930 . S
C2260 C2261 1.367 . S
C2260 C2268 1.378 . S
C2261 C2260 1.367 . S
C2261 C2269 1.433 . S
C2262 H2258 0.929 . S
C2262 C2264 1.378 . S
C2262 C2266 1.350 . S
C2263 C2266 1.463 . S
C2263 C2268 1.350 . S
C2263 N2271 1.427 . S
C2264 H2255 0.930 . S
C2264 C2262 1.378 . S
C2264 C2265 1.367 . S
C2265 C2264 1.367 . S
C2265 C2267 1.433 . S
C2266 C2262 1.350 . S
C2266 C2263 1.463 . S
C2266 N2270 1.427 . S
C2267 H2257 0.929 . S
C2267 C2265 1.433 . S
C2267 N2270 1.384 . S
C2268 H2259 0.929 . S
C2268 C2260 1.378 . S
C2268 C2263 1.350 . S
C2269 H2256 0.929 . S
C2269 C2261 1.433 . S
C2269 N2271 1.384 . S
N2270 C2266 1.427 . S
N2270 C2267 1.384 . S
N2271 C2263 1.427 . S
N2271 C2269 1.384 . S
H2272 C2278 0.930 . S
H2273 C2282 0.930 . S
H2274 C2287 0.929 . S
H2275 C2285 0.929 . S
H2276 C2280 0.929 . S
H2277 C2286 0.929 . S
C2278 H2272 0.930 . S
C2278 C2279 1.367 . S
C2278 C2286 1.378 . S
C2279 C2278 1.367 . S
C2279 C2287 1.433 . S
C2280 H2276 0.929 . S
C2280 C2282 1.378 . S
C2280 C2284 1.350 . S
C2281 C2284 1.463 . S
C2281 C2286 1.350 . S
C2281 N2289 1.427 . S
C2282 H2273 0.930 . S
C2282 C2280 1.378 . S
C2282 C2283 1.367 . S
C2283 C2282 1.367 . S
C2283 C2285 1.433 . S
C2284 C2280 1.350 . S
C2284 C2281 1.463 . S
C2284 N2288 1.427 . S
C2285 H2275 0.929 . S
C2285 C2283 1.433 . S
C2285 N2288 1.384 . S
C2286 H2277 0.929 . S
C2286 C2278 1.378 . S
C2286 C2281 1.350 . S
C2287 H2274 0.929 . S
C2287 C2279 1.433 . S
C2287 N2289 1.384 . S
N2288 C2284 1.427 . S
N2288 C2285 1.384 . S
N2289 C2281 1.427 . S
N2289 C2287 1.384 . S
H2290 C2296 0.930 . S
H2291 C2300 0.930 . S
H2292 C2305 0.929 . S
H2293 C2303 0.929 . S
H2294 C2298 0.929 . S
H2295 C2304 0.929 . S
C2296 H2290 0.930 . S
C2296 C2297 1.367 . S
C2296 C2304 1.378 . S
C2297 C2296 1.367 . S
C2297 C2305 1.433 . S
C2298 H2294 0.929 . S
C2298 C2300 1.378 . S
C2298 C2302 1.350 . S
C2299 C2302 1.463 . S
C2299 C2304 1.350 . S
C2299 N2307 1.427 . S
C2300 H2291 0.930 . S
C2300 C2298 1.378 . S
C2300 C2301 1.367 . S
C2301 C2300 1.367 . S
C2301 C2303 1.433 . S
C2302 C2298 1.350 . S
C2302 C2299 1.463 . S
C2302 N2306 1.427 . S
C2303 H2293 0.929 . S
C2303 C2301 1.433 . S
C2303 N2306 1.384 . S
C2304 H2295 0.929 . S
C2304 C2296 1.378 . S
C2304 C2299 1.350 . S
C2305 H2292 0.929 . S
C2305 C2297 1.433 . S
C2305 N2307 1.384 . S
N2306 C2302 1.427 . S
N2306 C2303 1.384 . S
N2307 C2299 1.427 . S
N2307 C2305 1.384 . S
H2308 C2314 0.930 . S
H2309 C2318 0.930 . S
H2310 C2323 0.929 . S
H2311 C2321 0.929 . S
H2312 C2316 0.929 . S
H2313 C2322 0.929 . S
C2314 H2308 0.930 . S
C2314 C2315 1.367 . S
C2314 C2322 1.378 . S
C2315 C2314 1.367 . S
C2315 C2323 1.433 . S
C2316 H2312 0.929 . S
C2316 C2318 1.378 . S
C2316 C2320 1.350 . S
C2317 C2320 1.463 . S
C2317 C2322 1.350 . S
C2317 N2325 1.427 . S
C2318 H2309 0.930 . S
C2318 C2316 1.378 . S
C2318 C2319 1.367 . S
C2319 C2318 1.367 . S
C2319 C2321 1.433 . S
C2320 C2316 1.350 . S
C2320 C2317 1.463 . S
C2320 N2324 1.427 . S
C2321 H2311 0.929 . S
C2321 C2319 1.433 . S
C2321 N2324 1.384 . S
C2322 H2313 0.929 . S
C2322 C2314 1.378 . S
C2322 C2317 1.350 . S
C2323 H2310 0.929 . S
C2323 C2315 1.433 . S
C2323 N2325 1.384 . S
N2324 C2320 1.427 . S
N2324 C2321 1.384 . S
N2325 C2317 1.427 . S
N2325 C2323 1.384 . S
H2326 C2332 0.930 . S
H2327 C2336 0.930 . S
H2328 C2341 0.929 . S
H2329 C2339 0.929 . S
H2330 C2334 0.929 . S
H2331 C2340 0.929 . S
C2332 H2326 0.930 . S
C2332 C2333 1.367 . S
C2332 C2340 1.378 . S
C2333 C2332 1.367 . S
C2333 C2341 1.433 . S
C2334 H2330 0.929 . S
C2334 C2336 1.378 . S
C2334 C2338 1.350 . S
C2335 C2338 1.463 . S
C2335 C2340 1.350 . S
C2335 N2343 1.427 . S
C2336 H2327 0.930 . S
C2336 C2334 1.378 . S
C2336 C2337 1.367 . S
C2337 C2336 1.367 . S
C2337 C2339 1.433 . S
C2338 C2334 1.350 . S
C2338 C2335 1.463 . S
C2338 N2342 1.427 . S
C2339 H2329 0.929 . S
C2339 C2337 1.433 . S
C2339 N2342 1.384 . S
C2340 H2331 0.929 . S
C2340 C2332 1.378 . S
C2340 C2335 1.350 . S
C2341 H2328 0.929 . S
C2341 C2333 1.433 . S
C2341 N2343 1.384 . S
N2342 C2338 1.427 . S
N2342 C2339 1.384 . S
N2343 C2335 1.427 . S
N2343 C2341 1.384 . S
H2344 C2350 0.930 . S
H2345 C2354 0.930 . S
H2346 C2359 0.929 . S
H2347 C2357 0.929 . S
H2348 C2352 0.929 . S
H2349 C2358 0.929 . S
C2350 H2344 0.930 . S
C2350 C2351 1.367 . S
C2350 C2358 1.378 . S
C2351 C2350 1.367 . S
C2351 C2359 1.433 . S
C2352 H2348 0.929 . S
C2352 C2354 1.378 1_556 S
C2352 C2356 1.350 . S
C2353 C2356 1.463 . S
C2353 C2358 1.350 . S
C2353 N2361 1.427 . S
C2354 H2345 0.930 . S
C2354 C2352 1.378 1_554 S
C2354 C2355 1.367 1_554 S
C2355 C2354 1.367 1_556 S
C2355 C2357 1.433 . S
C2356 C2352 1.350 . S
C2356 C2353 1.463 . S
C2356 N2360 1.427 . S
C2357 H2347 0.929 . S
C2357 C2355 1.433 . S
C2357 N2360 1.384 . S
C2358 H2349 0.929 . S
C2358 C2350 1.378 . S
C2358 C2353 1.350 . S
C2359 H2346 0.929 . S
C2359 C2351 1.433 . S
C2359 N2361 1.384 . S
N2360 C2356 1.427 . S
N2360 C2357 1.384 . S
N2361 C2353 1.427 . S
N2361 C2359 1.384 . S
H2362 C2368 0.930 . S
H2363 C2372 0.930 . S
H2364 C2377 0.929 . S
H2365 C2375 0.929 . S
H2366 C2370 0.929 . S
H2367 C2376 0.929 . S
C2368 H2362 0.930 . S
C2368 C2369 1.367 1_655 S
C2368 C2376 1.378 . S
C2369 C2368 1.367 1_455 S
C2369 C2377 1.433 . S
C2370 H2366 0.929 . S
C2370 C2372 1.378 . S
C2370 C2374 1.350 . S
C2371 C2374 1.463 . S
C2371 C2376 1.350 . S
C2371 N2379 1.427 . S
C2372 H2363 0.930 . S
C2372 C2370 1.378 . S
C2372 C2373 1.367 . S
C2373 C2372 1.367 . S
C2373 C2375 1.433 . S
C2374 C2370 1.350 . S
C2374 C2371 1.463 . S
C2374 N2378 1.427 . S
C2375 H2365 0.929 . S
C2375 C2373 1.433 . S
C2375 N2378 1.384 . S
C2376 H2367 0.929 . S
C2376 C2368 1.378 . S
C2376 C2371 1.350 . S
C2377 H2364 0.929 . S
C2377 C2369 1.433 . S
C2377 N2379 1.384 1_455 S
N2378 C2374 1.427 . S
N2378 C2375 1.384 . S
N2379 C2371 1.427 . S
N2379 C2377 1.384 1_655 S
H2380 C2386 0.930 . S
H2381 C2390 0.930 . S
H2382 C2395 0.929 . S
H2383 C2393 0.929 . S
H2384 C2388 0.929 . S
H2385 C2394 0.929 . S
C2386 H2380 0.930 . S
C2386 C2387 1.367 . S
C2386 C2394 1.378 . S
C2387 C2386 1.367 . S
C2387 C2395 1.433 . S
C2388 H2384 0.929 . S
C2388 C2390 1.378 . S
C2388 C2392 1.350 . S
C2389 C2392 1.463 . S
C2389 C2394 1.350 . S
C2389 N2397 1.427 . S
C2390 H2381 0.930 . S
C2390 C2388 1.378 . S
C2390 C2391 1.367 . S
C2391 C2390 1.367 . S
C2391 C2393 1.433 . S
C2392 C2388 1.350 . S
C2392 C2389 1.463 . S
C2392 N2396 1.427 . S
C2393 H2383 0.929 . S
C2393 C2391 1.433 . S
C2393 N2396 1.384 . S
C2394 H2385 0.929 . S
C2394 C2386 1.378 . S
C2394 C2389 1.350 . S
C2395 H2382 0.929 . S
C2395 C2387 1.433 . S
C2395 N2397 1.384 . S
N2396 C2392 1.427 . S
N2396 C2393 1.384 . S
N2397 C2389 1.427 . S
N2397 C2395 1.384 . S
H2398 C2404 0.930 . S
H2399 C2408 0.930 . S
H2400 C2413 0.929 . S
H2401 C2411 0.929 . S
H2402 C2406 0.929 . S
H2403 C2412 0.929 . S
C2404 H2398 0.930 . S
C2404 C2405 1.367 . S
C2404 C2412 1.378 . S
C2405 C2404 1.367 . S
C2405 C2413 1.433 . S
C2406 H2402 0.929 . S
C2406 C2408 1.378 . S
C2406 C2410 1.350 . S
C2407 C2410 1.463 . S
C2407 C2412 1.350 . S
C2407 N2415 1.427 . S
C2408 H2399 0.930 . S
C2408 C2406 1.378 . S
C2408 C2409 1.367 . S
C2409 C2408 1.367 . S
C2409 C2411 1.433 . S
C2410 C2406 1.350 . S
C2410 C2407 1.463 . S
C2410 N2414 1.427 . S
C2411 H2401 0.929 . S
C2411 C2409 1.433 . S
C2411 N2414 1.384 . S
C2412 H2403 0.929 . S
C2412 C2404 1.378 . S
C2412 C2407 1.350 . S
C2413 H2400 0.929 . S
C2413 C2405 1.433 . S
C2413 N2415 1.384 . S
N2414 C2410 1.427 . S
N2414 C2411 1.384 . S
N2415 C2407 1.427 . S
N2415 C2413 1.384 . S
H2416 C2422 0.930 . S
H2417 C2426 0.930 . S
H2418 C2431 0.929 . S
H2419 C2429 0.929 . S
H2420 C2424 0.929 . S
H2421 C2430 0.929 . S
C2422 H2416 0.930 . S
C2422 C2423 1.367 . S
C2422 C2430 1.378 . S
C2423 C2422 1.367 . S
C2423 C2431 1.433 . S
C2424 H2420 0.929 . S
C2424 C2426 1.378 . S
C2424 C2428 1.350 . S
C2425 C2428 1.463 . S
C2425 C2430 1.350 . S
C2425 N2433 1.427 . S
C2426 H2417 0.930 . S
C2426 C2424 1.378 . S
C2426 C2427 1.367 . S
C2427 C2426 1.367 . S
C2427 C2429 1.433 . S
C2428 C2424 1.350 . S
C2428 C2425 1.463 . S
C2428 N2432 1.427 . S
C2429 H2419 0.929 . S
C2429 C2427 1.433 . S
C2429 N2432 1.384 . S
C2430 H2421 0.929 . S
C2430 C2422 1.378 . S
C2430 C2425 1.350 . S
C2431 H2418 0.929 . S
C2431 C2423 1.433 . S
C2431 N2433 1.384 . S
N2432 C2428 1.427 . S
N2432 C2429 1.384 . S
N2433 C2425 1.427 . S
N2433 C2431 1.384 . S
H2434 C2440 0.930 . S
H2435 C2444 0.930 . S
H2436 C2449 0.929 . S
H2437 C2447 0.929 . S
H2438 C2442 0.929 . S
H2439 C2448 0.929 . S
C2440 H2434 0.930 . S
C2440 C2441 1.367 . S
C2440 C2448 1.378 . S
C2441 C2440 1.367 . S
C2441 C2449 1.433 . S
C2442 H2438 0.929 . S
C2442 C2444 1.378 . S
C2442 C2446 1.350 . S
C2443 C2446 1.463 . S
C2443 C2448 1.350 . S
C2443 N2451 1.427 . S
C2444 H2435 0.930 . S
C2444 C2442 1.378 . S
C2444 C2445 1.367 . S
C2445 C2444 1.367 . S
C2445 C2447 1.433 . S
C2446 C2442 1.350 . S
C2446 C2443 1.463 . S
C2446 N2450 1.427 . S
C2447 H2437 0.929 . S
C2447 C2445 1.433 . S
C2447 N2450 1.384 . S
C2448 H2439 0.929 . S
C2448 C2440 1.378 . S
C2448 C2443 1.350 . S
C2449 H2436 0.929 . S
C2449 C2441 1.433 . S
C2449 N2451 1.384 . S
N2450 C2446 1.427 . S
N2450 C2447 1.384 . S
N2451 C2443 1.427 . S
N2451 C2449 1.384 . S
H2452 C2458 0.930 . S
H2453 C2462 0.930 . S
H2454 C2467 0.929 . S
H2455 C2465 0.929 . S
H2456 C2460 0.929 . S
H2457 C2466 0.929 . S
C2458 H2452 0.930 . S
C2458 C2459 1.367 . S
C2458 C2466 1.378 . S
C2459 C2458 1.367 . S
C2459 C2467 1.433 . S
C2460 H2456 0.929 . S
C2460 C2462 1.378 . S
C2460 C2464 1.350 . S
C2461 C2464 1.463 . S
C2461 C2466 1.350 . S
C2461 N2469 1.427 . S
C2462 H2453 0.930 . S
C2462 C2460 1.378 . S
C2462 C2463 1.367 1_655 S
C2463 C2462 1.367 1_455 S
C2463 C2465 1.433 . S
C2464 C2460 1.350 . S
C2464 C2461 1.463 . S
C2464 N2468 1.427 . S
C2465 H2455 0.929 . S
C2465 C2463 1.433 . S
C2465 N2468 1.384 1_455 S
C2466 H2457 0.929 . S
C2466 C2458 1.378 . S
C2466 C2461 1.350 . S
C2467 H2454 0.929 . S
C2467 C2459 1.433 . S
C2467 N2469 1.384 . S
N2468 C2464 1.427 . S
N2468 C2465 1.384 1_655 S
N2469 C2461 1.427 . S
N2469 C2467 1.384 . S
H2470 C2476 0.930 . S
H2471 C2480 0.930 . S
H2472 C2485 0.929 . S
H2473 C2483 0.929 . S
H2474 C2478 0.929 . S
H2475 C2484 0.929 . S
C2476 H2470 0.930 . S
C2476 C2477 1.367 . S
C2476 C2484 1.378 . S
C2477 C2476 1.367 . S
C2477 C2485 1.433 . S
C2478 H2474 0.929 . S
C2478 C2480 1.378 . S
C2478 C2482 1.350 . S
C2479 C2482 1.463 . S
C2479 C2484 1.350 . S
C2479 N2487 1.427 . S
C2480 H2471 0.930 . S
C2480 C2478 1.378 . S
C2480 C2481 1.367 . S
C2481 C2480 1.367 . S
C2481 C2483 1.433 . S
C2482 C2478 1.350 . S
C2482 C2479 1.463 . S
C2482 N2486 1.427 . S
C2483 H2473 0.929 . S
C2483 C2481 1.433 . S
C2483 N2486 1.384 . S
C2484 H2475 0.929 . S
C2484 C2476 1.378 . S
C2484 C2479 1.350 . S
C2485 H2472 0.929 . S
C2485 C2477 1.433 . S
C2485 N2487 1.384 . S
N2486 C2482 1.427 . S
N2486 C2483 1.384 . S
N2487 C2479 1.427 . S
N2487 C2485 1.384 . S
H2488 C2494 0.930 . S
H2489 C2498 0.930 . S
H2490 C2503 0.929 . S
H2491 C2501 0.929 . S
H2492 C2496 0.929 . S
H2493 C2502 0.929 . S
C2494 H2488 0.930 . S
C2494 C2495 1.367 . S
C2494 C2502 1.378 . S
C2495 C2494 1.367 . S
C2495 C2503 1.433 . S
C2496 H2492 0.929 . S
C2496 C2498 1.378 . S
C2496 C2500 1.350 . S
C2497 C2500 1.463 . S
C2497 C2502 1.350 . S
C2497 N2505 1.427 . S
C2498 H2489 0.930 . S
C2498 C2496 1.378 . S
C2498 C2499 1.367 . S
C2499 C2498 1.367 . S
C2499 C2501 1.433 . S
C2500 C2496 1.350 . S
C2500 C2497 1.463 . S
C2500 N2504 1.427 . S
C2501 H2491 0.929 . S
C2501 C2499 1.433 . S
C2501 N2504 1.384 . S
C2502 H2493 0.929 . S
C2502 C2494 1.378 . S
C2502 C2497 1.350 . S
C2503 H2490 0.929 . S
C2503 C2495 1.433 . S
C2503 N2505 1.384 . S
N2504 C2500 1.427 . S
N2504 C2501 1.384 . S
N2505 C2497 1.427 . S
N2505 C2503 1.384 . S
H2506 C2512 0.930 . S
H2507 C2516 0.930 . S
H2508 C2521 0.929 . S
H2509 C2519 0.929 . S
H2510 C2514 0.929 . S
H2511 C2520 0.929 . S
C2512 H2506 0.930 . S
C2512 C2513 1.367 . S
C2512 C2520 1.378 . S
C2513 C2512 1.367 . S
C2513 C2521 1.433 . S
C2514 H2510 0.929 . S
C2514 C2516 1.378 . S
C2514 C2518 1.350 . S
C2515 C2518 1.463 . S
C2515 C2520 1.350 . S
C2515 N2523 1.427 . S
C2516 H2507 0.930 . S
C2516 C2514 1.378 . S
C2516 C2517 1.367 . S
C2517 C2516 1.367 . S
C2517 C2519 1.433 . S
C2518 C2514 1.350 . S
C2518 C2515 1.463 . S
C2518 N2522 1.427 . S
C2519 H2509 0.929 . S
C2519 C2517 1.433 . S
C2519 N2522 1.384 . S
C2520 H2511 0.929 . S
C2520 C2512 1.378 . S
C2520 C2515 1.350 . S
C2521 H2508 0.929 . S
C2521 C2513 1.433 . S
C2521 N2523 1.384 . S
N2522 C2518 1.427 . S
N2522 C2519 1.384 . S
N2523 C2515 1.427 . S
N2523 C2521 1.384 . S
H2524 C2530 0.930 . S
H2525 C2534 0.930 . S
H2526 C2539 0.929 . S
H2527 C2537 0.929 1_455 S
H2528 C2532 0.929 . S
H2529 C2538 0.929 . S
C2530 H2524 0.930 . S
C2530 C2531 1.367 . S
C2530 C2538 1.378 . S
C2531 C2530 1.367 . S
C2531 C2539 1.433 . S
C2532 H2528 0.929 . S
C2532 C2534 1.378 . S
C2532 C2536 1.350 . S
C2533 C2536 1.463 . S
C2533 C2538 1.350 . S
C2533 N2541 1.427 . S
C2534 H2525 0.930 . S
C2534 C2532 1.378 . S
C2534 C2535 1.367 . S
C2535 C2534 1.367 . S
C2535 C2537 1.433 . S
C2536 C2532 1.350 . S
C2536 C2533 1.463 . S
C2536 N2540 1.427 . S
C2537 H2527 0.929 1_655 S
C2537 C2535 1.433 . S
C2537 N2540 1.384 . S
C2538 H2529 0.929 . S
C2538 C2530 1.378 . S
C2538 C2533 1.350 . S
C2539 H2526 0.929 . S
C2539 C2531 1.433 . S
C2539 N2541 1.384 . S
N2540 C2536 1.427 . S
N2540 C2537 1.384 . S
N2541 C2533 1.427 . S
N2541 C2539 1.384 . S
H2542 C2548 0.930 . S
H2543 C2552 0.930 . S
H2544 C2557 0.929 . S
H2545 C2555 0.929 . S
H2546 C2550 0.929 . S
H2547 C2556 0.929 . S
C2548 H2542 0.930 . S
C2548 C2549 1.367 . S
C2548 C2556 1.378 . S
C2549 C2548 1.367 . S
C2549 C2557 1.433 . S
C2550 H2546 0.929 . S
C2550 C2552 1.378 . S
C2550 C2554 1.350 . S
C2551 C2554 1.463 . S
C2551 C2556 1.350 . S
C2551 N2559 1.427 . S
C2552 H2543 0.930 . S
C2552 C2550 1.378 . S
C2552 C2553 1.367 . S
C2553 C2552 1.367 . S
C2553 C2555 1.433 . S
C2554 C2550 1.350 . S
C2554 C2551 1.463 . S
C2554 N2558 1.427 . S
C2555 H2545 0.929 . S
C2555 C2553 1.433 . S
C2555 N2558 1.384 . S
C2556 H2547 0.929 . S
C2556 C2548 1.378 . S
C2556 C2551 1.350 . S
C2557 H2544 0.929 . S
C2557 C2549 1.433 . S
C2557 N2559 1.384 . S
N2558 C2554 1.427 . S
N2558 C2555 1.384 . S
N2559 C2551 1.427 . S
N2559 C2557 1.384 . S
H2560 C2566 0.930 . S
H2561 C2570 0.930 . S
H2562 C2575 0.929 . S
H2563 C2573 0.929 . S
H2564 C2568 0.929 . S
H2565 C2574 0.929 . S
C2566 H2560 0.930 . S
C2566 C2567 1.367 . S
C2566 C2574 1.378 . S
C2567 C2566 1.367 . S
C2567 C2575 1.433 . S
C2568 H2564 0.929 . S
C2568 C2570 1.378 . S
C2568 C2572 1.350 . S
C2569 C2572 1.463 . S
C2569 C2574 1.350 . S
C2569 N2577 1.427 . S
C2570 H2561 0.930 . S
C2570 C2568 1.378 . S
C2570 C2571 1.367 . S
C2571 C2570 1.367 . S
C2571 C2573 1.433 . S
C2572 C2568 1.350 . S
C2572 C2569 1.463 . S
C2572 N2576 1.427 . S
C2573 H2563 0.929 . S
C2573 C2571 1.433 . S
C2573 N2576 1.384 . S
C2574 H2565 0.929 . S
C2574 C2566 1.378 . S
C2574 C2569 1.350 . S
C2575 H2562 0.929 . S
C2575 C2567 1.433 . S
C2575 N2577 1.384 . S
N2576 C2572 1.427 . S
N2576 C2573 1.384 . S
N2577 C2569 1.427 . S
N2577 C2575 1.384 . S
H2578 C2584 0.930 . S
H2579 C2588 0.930 1_545 S
H2580 C2593 0.929 . S
H2581 C2591 0.929 . S
H2582 C2586 0.929 . S
H2583 C2592 0.929 . S
C2584 H2578 0.930 . S
C2584 C2585 1.367 . S
C2584 C2592 1.378 . S
C2585 C2584 1.367 . S
C2585 C2593 1.433 . S
C2586 H2582 0.929 . S
C2586 C2588 1.378 . S
C2586 C2590 1.350 . S
C2587 C2590 1.463 . S
C2587 C2592 1.350 . S
C2587 N2595 1.427 . S
C2588 H2579 0.930 1_565 S
C2588 C2586 1.378 . S
C2588 C2589 1.367 . S
C2589 C2588 1.367 . S
C2589 C2591 1.433 . S
C2590 C2586 1.350 . S
C2590 C2587 1.463 . S
C2590 N2594 1.427 . S
C2591 H2581 0.929 . S
C2591 C2589 1.433 . S
C2591 N2594 1.384 . S
C2592 H2583 0.929 . S
C2592 C2584 1.378 . S
C2592 C2587 1.350 . S
C2593 H2580 0.929 . S
C2593 C2585 1.433 . S
C2593 N2595 1.384 . S
N2594 C2590 1.427 . S
N2594 C2591 1.384 . S
N2595 C2587 1.427 . S
N2595 C2593 1.384 . S
H2596 C2602 0.930 . S
H2597 C2606 0.930 . S
H2598 C2611 0.929 . S
H2599 C2609 0.929 . S
H2600 C2604 0.929 . S
H2601 C2610 0.929 . S
C2602 H2596 0.930 . S
C2602 C2603 1.367 . S
C2602 C2610 1.378 . S
C2603 C2602 1.367 . S
C2603 C2611 1.433 . S
C2604 H2600 0.929 . S
C2604 C2606 1.378 . S
C2604 C2608 1.350 . S
C2605 C2608 1.463 . S
C2605 C2610 1.350 . S
C2605 N2613 1.427 . S
C2606 H2597 0.930 . S
C2606 C2604 1.378 . S
C2606 C2607 1.367 . S
C2607 C2606 1.367 . S
C2607 C2609 1.433 . S
C2608 C2604 1.350 . S
C2608 C2605 1.463 . S
C2608 N2612 1.427 . S
C2609 H2599 0.929 . S
C2609 C2607 1.433 . S
C2609 N2612 1.384 . S
C2610 H2601 0.929 . S
C2610 C2602 1.378 . S
C2610 C2605 1.350 . S
C2611 H2598 0.929 . S
C2611 C2603 1.433 . S
C2611 N2613 1.384 . S
N2612 C2608 1.427 . S
N2612 C2609 1.384 . S
N2613 C2605 1.427 . S
N2613 C2611 1.384 . S
H2614 C2620 0.930 . S
H2615 C2624 0.930 . S
H2616 C2629 0.929 . S
H2617 C2627 0.929 . S
H2618 C2622 0.929 . S
H2619 C2628 0.929 . S
C2620 H2614 0.930 . S
C2620 C2621 1.367 . S
C2620 C2628 1.378 . S
C2621 C2620 1.367 . S
C2621 C2629 1.433 . S
C2622 H2618 0.929 . S
C2622 C2624 1.378 . S
C2622 C2626 1.350 . S
C2623 C2626 1.463 . S
C2623 C2628 1.350 . S
C2623 N2631 1.427 . S
C2624 H2615 0.930 . S
C2624 C2622 1.378 . S
C2624 C2625 1.367 . S
C2625 C2624 1.367 . S
C2625 C2627 1.433 . S
C2626 C2622 1.350 . S
C2626 C2623 1.463 . S
C2626 N2630 1.427 . S
C2627 H2617 0.929 . S
C2627 C2625 1.433 . S
C2627 N2630 1.384 . S
C2628 H2619 0.929 . S
C2628 C2620 1.378 . S
C2628 C2623 1.350 . S
C2629 H2616 0.929 . S
C2629 C2621 1.433 . S
C2629 N2631 1.384 . S
N2630 C2626 1.427 . S
N2630 C2627 1.384 . S
N2631 C2623 1.427 . S
N2631 C2629 1.384 . S
H2632 C2638 0.930 . S
H2633 C2642 0.930 . S
H2634 C2647 0.929 . S
H2635 C2645 0.929 . S
H2636 C2640 0.929 . S
H2637 C2646 0.929 . S
C2638 H2632 0.930 . S
C2638 C2639 1.367 . S
C2638 C2646 1.378 . S
C2639 C2638 1.367 . S
C2639 C2647 1.433 . S
C2640 H2636 0.929 . S
C2640 C2642 1.378 . S
C2640 C2644 1.350 . S
C2641 C2644 1.463 . S
C2641 C2646 1.350 . S
C2641 N2649 1.427 . S
C2642 H2633 0.930 . S
C2642 C2640 1.378 . S
C2642 C2643 1.367 . S
C2643 C2642 1.367 . S
C2643 C2645 1.433 . S
C2644 C2640 1.350 . S
C2644 C2641 1.463 . S
C2644 N2648 1.427 . S
C2645 H2635 0.929 . S
C2645 C2643 1.433 . S
C2645 N2648 1.384 . S
C2646 H2637 0.929 . S
C2646 C2638 1.378 . S
C2646 C2641 1.350 . S
C2647 H2634 0.929 . S
C2647 C2639 1.433 . S
C2647 N2649 1.384 . S
N2648 C2644 1.427 . S
N2648 C2645 1.384 . S
N2649 C2641 1.427 . S
N2649 C2647 1.384 . S
H2650 C2656 0.930 . S
H2651 C2660 0.930 . S
H2652 C2665 0.929 . S
H2653 C2663 0.929 . S
H2654 C2658 0.929 . S
H2655 C2664 0.929 . S
C2656 H2650 0.930 . S
C2656 C2657 1.367 . S
C2656 C2664 1.378 . S
C2657 C2656 1.367 . S
C2657 C2665 1.433 . S
C2658 H2654 0.929 . S
C2658 C2660 1.378 . S
C2658 C2662 1.350 . S
C2659 C2662 1.463 . S
C2659 C2664 1.350 . S
C2659 N2667 1.427 . S
C2660 H2651 0.930 . S
C2660 C2658 1.378 . S
C2660 C2661 1.367 . S
C2661 C2660 1.367 . S
C2661 C2663 1.433 . S
C2662 C2658 1.350 . S
C2662 C2659 1.463 . S
C2662 N2666 1.427 . S
C2663 H2653 0.929 . S
C2663 C2661 1.433 . S
C2663 N2666 1.384 . S
C2664 H2655 0.929 . S
C2664 C2656 1.378 . S
C2664 C2659 1.350 . S
C2665 H2652 0.929 . S
C2665 C2657 1.433 . S
C2665 N2667 1.384 . S
N2666 C2662 1.427 . S
N2666 C2663 1.384 . S
N2667 C2659 1.427 . S
N2667 C2665 1.384 . S
H2668 C2674 0.930 . S
H2669 C2678 0.930 . S
H2670 C2683 0.929 . S
H2671 C2681 0.929 . S
H2672 C2676 0.929 . S
H2673 C2682 0.929 . S
C2674 H2668 0.930 . S
C2674 C2675 1.367 . S
C2674 C2682 1.378 . S
C2675 C2674 1.367 . S
C2675 C2683 1.433 . S
C2676 H2672 0.929 . S
C2676 C2678 1.378 . S
C2676 C2680 1.350 . S
C2677 C2680 1.463 . S
C2677 C2682 1.350 . S
C2677 N2685 1.427 . S
C2678 H2669 0.930 . S
C2678 C2676 1.378 . S
C2678 C2679 1.367 . S
C2679 C2678 1.367 . S
C2679 C2681 1.433 . S
C2680 C2676 1.350 . S
C2680 C2677 1.463 . S
C2680 N2684 1.427 . S
C2681 H2671 0.929 . S
C2681 C2679 1.433 . S
C2681 N2684 1.384 . S
C2682 H2673 0.929 . S
C2682 C2674 1.378 . S
C2682 C2677 1.350 . S
C2683 H2670 0.929 . S
C2683 C2675 1.433 . S
C2683 N2685 1.384 . S
N2684 C2680 1.427 . S
N2684 C2681 1.384 . S
N2685 C2677 1.427 . S
N2685 C2683 1.384 . S
H2686 C2692 0.930 . S
H2687 C2696 0.930 . S
H2688 C2701 0.929 . S
H2689 C2699 0.929 . S
H2690 C2694 0.929 . S
H2691 C2700 0.929 . S
C2692 H2686 0.930 . S
C2692 C2693 1.367 . S
C2692 C2700 1.378 . S
C2693 C2692 1.367 . S
C2693 C2701 1.433 . S
C2694 H2690 0.929 . S
C2694 C2696 1.378 . S
C2694 C2698 1.350 . S
C2695 C2698 1.463 . S
C2695 C2700 1.350 . S
C2695 N2703 1.427 . S
C2696 H2687 0.930 . S
C2696 C2694 1.378 . S
C2696 C2697 1.367 . S
C2697 C2696 1.367 . S
C2697 C2699 1.433 . S
C2698 C2694 1.350 . S
C2698 C2695 1.463 . S
C2698 N2702 1.427 . S
C2699 H2689 0.929 . S
C2699 C2697 1.433 . S
C2699 N2702 1.384 . S
C2700 H2691 0.929 . S
C2700 C2692 1.378 . S
C2700 C2695 1.350 . S
C2701 H2688 0.929 . S
C2701 C2693 1.433 . S
C2701 N2703 1.384 . S
N2702 C2698 1.427 . S
N2702 C2699 1.384 . S
N2703 C2695 1.427 . S
N2703 C2701 1.384 . S
H2704 C2710 0.930 . S
H2705 C2714 0.930 . S
H2706 C2719 0.929 . S
H2707 C2717 0.929 . S
H2708 C2712 0.929 . S
H2709 C2718 0.929 . S
C2710 H2704 0.930 . S
C2710 C2711 1.367 . S
C2710 C2718 1.378 . S
C2711 C2710 1.367 . S
C2711 C2719 1.433 . S
C2712 H2708 0.929 . S
C2712 C2714 1.378 . S
C2712 C2716 1.350 . S
C2713 C2716 1.463 . S
C2713 C2718 1.350 . S
C2713 N2721 1.427 . S
C2714 H2705 0.930 . S
C2714 C2712 1.378 . S
C2714 C2715 1.367 . S
C2715 C2714 1.367 . S
C2715 C2717 1.433 . S
C2716 C2712 1.350 . S
C2716 C2713 1.463 . S
C2716 N2720 1.427 . S
C2717 H2707 0.929 . S
C2717 C2715 1.433 . S
C2717 N2720 1.384 . S
C2718 H2709 0.929 . S
C2718 C2710 1.378 . S
C2718 C2713 1.350 . S
C2719 H2706 0.929 . S
C2719 C2711 1.433 . S
C2719 N2721 1.384 . S
N2720 C2716 1.427 . S
N2720 C2717 1.384 . S
N2721 C2713 1.427 . S
N2721 C2719 1.384 . S
H2722 C2728 0.930 . S
H2723 C2732 0.930 . S
H2724 C2737 0.929 . S
H2725 C2735 0.929 . S
H2726 C2730 0.929 . S
H2727 C2736 0.929 . S
C2728 H2722 0.930 . S
C2728 C2729 1.367 . S
C2728 C2736 1.378 . S
C2729 C2728 1.367 . S
C2729 C2737 1.433 . S
C2730 H2726 0.929 . S
C2730 C2732 1.378 . S
C2730 C2734 1.350 . S
C2731 C2734 1.463 . S
C2731 C2736 1.350 . S
C2731 N2739 1.427 . S
C2732 H2723 0.930 . S
C2732 C2730 1.378 . S
C2732 C2733 1.367 . S
C2733 C2732 1.367 . S
C2733 C2735 1.433 . S
C2734 C2730 1.350 . S
C2734 C2731 1.463 . S
C2734 N2738 1.427 . S
C2735 H2725 0.929 . S
C2735 C2733 1.433 . S
C2735 N2738 1.384 . S
C2736 H2727 0.929 . S
C2736 C2728 1.378 . S
C2736 C2731 1.350 . S
C2737 H2724 0.929 . S
C2737 C2729 1.433 . S
C2737 N2739 1.384 . S
N2738 C2734 1.427 . S
N2738 C2735 1.384 . S
N2739 C2731 1.427 . S
N2739 C2737 1.384 . S
H2740 C2746 0.933 . S
H2741 C2750 0.930 1_554 S
H2742 C2755 0.929 . S
H2743 C2753 0.929 . S
H2744 C2748 0.929 . S
H2745 C2754 0.929 . S
C2746 H2740 0.933 . S
C2746 C2747 1.367 . S
C2746 C2754 1.378 . S
C2747 C2746 1.367 . S
C2747 C2755 1.432 . S
C2748 H2744 0.929 . S
C2748 C2750 1.378 . S
C2748 C2752 1.350 . S
C2749 C2752 1.463 . S
C2749 C2754 1.350 . S
C2749 N2757 1.427 . S
C2750 H2741 0.930 1_556 S
C2750 C2748 1.378 . S
C2750 C2751 1.367 . S
C2751 C2750 1.367 . S
C2751 C2753 1.433 . S
C2752 C2748 1.350 . S
C2752 C2749 1.463 . S
C2752 N2756 1.427 . S
C2753 H2743 0.929 . S
C2753 C2751 1.433 . S
C2753 N2756 1.384 . S
C2754 H2745 0.929 . S
C2754 C2746 1.378 . S
C2754 C2749 1.350 . S
C2755 H2742 0.929 . S
C2755 C2747 1.432 . S
C2755 N2757 1.387 . S
N2756 C2752 1.427 . S
N2756 C2753 1.384 . S
N2757 C2749 1.427 . S
N2757 C2755 1.387 . S
H2758 C2764 0.930 . S
H2759 C2768 0.930 . S
H2760 C2773 0.929 . S
H2761 C2771 0.929 . S
H2762 C2766 0.929 . S
H2763 C2772 0.929 . S
C2764 H2758 0.930 . S
C2764 C2765 1.367 . S
C2764 C2772 1.378 . S
C2765 C2764 1.367 . S
C2765 C2773 1.433 . S
C2766 H2762 0.929 . S
C2766 C2768 1.378 . S
C2766 C2770 1.350 . S
C2767 C2770 1.463 . S
C2767 C2772 1.350 . S
C2767 N2775 1.427 . S
C2768 H2759 0.930 . S
C2768 C2766 1.378 . S
C2768 C2769 1.367 . S
C2769 C2768 1.367 . S
C2769 C2771 1.433 . S
C2770 C2766 1.350 . S
C2770 C2767 1.463 . S
C2770 N2774 1.427 . S
C2771 H2761 0.929 . S
C2771 C2769 1.433 . S
C2771 N2774 1.384 . S
C2772 H2763 0.929 . S
C2772 C2764 1.378 . S
C2772 C2767 1.350 . S
C2773 H2760 0.929 . S
C2773 C2765 1.433 . S
C2773 N2775 1.384 . S
N2774 C2770 1.427 . S
N2774 C2771 1.384 . S
N2775 C2767 1.427 . S
N2775 C2773 1.384 . S
H2776 C2782 0.930 . S
H2777 C2786 0.930 . S
H2778 C2791 0.929 . S
H2779 C2789 0.929 . S
H2780 C2784 0.929 . S
H2781 C2790 0.929 . S
C2782 H2776 0.930 . S
C2782 C2783 1.367 . S
C2782 C2790 1.378 . S
C2783 C2782 1.367 . S
C2783 C2791 1.433 . S
C2784 H2780 0.929 . S
C2784 C2786 1.378 . S
C2784 C2788 1.350 . S
C2785 C2788 1.463 . S
C2785 C2790 1.350 . S
C2785 N2793 1.427 . S
C2786 H2777 0.930 . S
C2786 C2784 1.378 . S
C2786 C2787 1.367 . S
C2787 C2786 1.367 . S
C2787 C2789 1.433 . S
C2788 C2784 1.350 . S
C2788 C2785 1.463 . S
C2788 N2792 1.427 . S
C2789 H2779 0.929 . S
C2789 C2787 1.433 . S
C2789 N2792 1.384 . S
C2790 H2781 0.929 . S
C2790 C2782 1.378 . S
C2790 C2785 1.350 . S
C2791 H2778 0.929 . S
C2791 C2783 1.433 . S
C2791 N2793 1.384 . S
N2792 C2788 1.427 . S
N2792 C2789 1.384 . S
N2793 C2785 1.427 . S
N2793 C2791 1.384 . S
H2794 C2800 0.930 . S
H2795 C2804 0.930 . S
H2796 C2809 0.929 . S
H2797 C2807 0.929 . S
H2798 C2802 0.929 . S
H2799 C2808 0.929 . S
C2800 H2794 0.930 . S
C2800 C2801 1.367 . S
C2800 C2808 1.378 . S
C2801 C2800 1.367 . S
C2801 C2809 1.433 . S
C2802 H2798 0.929 . S
C2802 C2804 1.378 . S
C2802 C2806 1.350 . S
C2803 C2806 1.463 . S
C2803 C2808 1.350 . S
C2803 N2811 1.427 . S
C2804 H2795 0.930 . S
C2804 C2802 1.378 . S
C2804 C2805 1.367 . S
C2805 C2804 1.367 . S
C2805 C2807 1.433 . S
C2806 C2802 1.350 . S
C2806 C2803 1.463 . S
C2806 N2810 1.427 . S
C2807 H2797 0.929 . S
C2807 C2805 1.433 . S
C2807 N2810 1.384 . S
C2808 H2799 0.929 . S
C2808 C2800 1.378 . S
C2808 C2803 1.350 . S
C2809 H2796 0.929 . S
C2809 C2801 1.433 . S
C2809 N2811 1.384 . S
N2810 C2806 1.427 . S
N2810 C2807 1.384 . S
N2811 C2803 1.427 . S
N2811 C2809 1.384 . S
H2812 C2818 0.930 . S
H2813 C2822 0.930 1_655 S
H2814 C2827 0.929 1_655 S
H2815 C2825 0.929 . S
H2816 C2820 0.929 1_655 S
H2817 C2826 0.929 . S
C2818 H2812 0.930 . S
C2818 C2819 1.367 . S
C2818 C2826 1.378 . S
C2819 C2818 1.367 . S
C2819 C2827 1.433 . S
C2820 H2816 0.929 1_455 S
C2820 C2822 1.378 . S
C2820 C2824 1.350 . S
C2821 C2824 1.463 . S
C2821 C2826 1.350 . S
C2821 N2829 1.427 . S
C2822 H2813 0.930 1_455 S
C2822 C2820 1.378 . S
C2822 C2823 1.367 . S
C2823 C2822 1.367 . S
C2823 C2825 1.433 . S
C2824 C2820 1.350 . S
C2824 C2821 1.463 . S
C2824 N2828 1.427 . S
C2825 H2815 0.929 . S
C2825 C2823 1.433 . S
C2825 N2828 1.384 . S
C2826 H2817 0.929 . S
C2826 C2818 1.378 . S
C2826 C2821 1.350 . S
C2827 H2814 0.929 1_455 S
C2827 C2819 1.433 . S
C2827 N2829 1.384 . S
N2828 C2824 1.427 . S
N2828 C2825 1.384 . S
N2829 C2821 1.427 . S
N2829 C2827 1.384 . S
H2830 C2836 0.930 . S
H2831 C2840 0.930 . S
H2832 C2845 0.929 . S
H2833 C2843 0.929 . S
H2834 C2838 0.929 . S
H2835 C2844 0.929 . S
C2836 H2830 0.930 . S
C2836 C2837 1.367 . S
C2836 C2844 1.378 . S
C2837 C2836 1.367 . S
C2837 C2845 1.433 . S
C2838 H2834 0.929 . S
C2838 C2840 1.378 . S
C2838 C2842 1.350 . S
C2839 C2842 1.463 . S
C2839 C2844 1.350 . S
C2839 N2847 1.427 . S
C2840 H2831 0.930 . S
C2840 C2838 1.378 . S
C2840 C2841 1.367 . S
C2841 C2840 1.367 . S
C2841 C2843 1.433 . S
C2842 C2838 1.350 . S
C2842 C2839 1.463 . S
C2842 N2846 1.427 . S
C2843 H2833 0.929 . S
C2843 C2841 1.433 . S
C2843 N2846 1.384 . S
C2844 H2835 0.929 . S
C2844 C2836 1.378 . S
C2844 C2839 1.350 . S
C2845 H2832 0.929 . S
C2845 C2837 1.433 . S
C2845 N2847 1.384 . S
N2846 C2842 1.427 . S
N2846 C2843 1.384 . S
N2847 C2839 1.427 . S
N2847 C2845 1.384 . S
H2848 C2854 0.930 . S
H2849 C2858 0.930 . S
H2850 C2863 0.929 . S
H2851 C2861 0.929 . S
H2852 C2856 0.929 . S
H2853 C2862 0.929 . S
C2854 H2848 0.930 . S
C2854 C2855 1.367 . S
C2854 C2862 1.378 . S
C2855 C2854 1.367 . S
C2855 C2863 1.433 . S
C2856 H2852 0.929 . S
C2856 C2858 1.378 . S
C2856 C2860 1.350 . S
C2857 C2860 1.463 . S
C2857 C2862 1.350 . S
C2857 N2865 1.427 . S
C2858 H2849 0.930 . S
C2858 C2856 1.378 . S
C2858 C2859 1.367 . S
C2859 C2858 1.367 . S
C2859 C2861 1.433 . S
C2860 C2856 1.350 . S
C2860 C2857 1.463 . S
C2860 N2864 1.427 . S
C2861 H2851 0.929 . S
C2861 C2859 1.433 . S
C2861 N2864 1.384 . S
C2862 H2853 0.929 . S
C2862 C2854 1.378 . S
C2862 C2857 1.350 . S
C2863 H2850 0.929 . S
C2863 C2855 1.433 . S
C2863 N2865 1.384 . S
N2864 C2860 1.427 . S
N2864 C2861 1.384 . S
N2865 C2857 1.427 . S
N2865 C2863 1.384 . S
H2866 C2872 0.930 . S
H2867 C2876 0.930 . S
H2868 C2881 0.929 . S
H2869 C2879 0.929 . S
H2870 C2874 0.929 . S
H2871 C2880 0.929 . S
C2872 H2866 0.930 . S
C2872 C2873 1.367 . S
C2872 C2880 1.378 . S
C2873 C2872 1.367 . S
C2873 C2881 1.433 . S
C2874 H2870 0.929 . S
C2874 C2876 1.378 . S
C2874 C2878 1.350 . S
C2875 C2878 1.463 . S
C2875 C2880 1.350 . S
C2875 N2883 1.427 . S
C2876 H2867 0.930 . S
C2876 C2874 1.378 . S
C2876 C2877 1.367 . S
C2877 C2876 1.367 . S
C2877 C2879 1.433 . S
C2878 C2874 1.350 . S
C2878 C2875 1.463 . S
C2878 N2882 1.427 . S
C2879 H2869 0.929 . S
C2879 C2877 1.433 . S
C2879 N2882 1.384 . S
C2880 H2871 0.929 . S
C2880 C2872 1.378 . S
C2880 C2875 1.350 . S
C2881 H2868 0.929 . S
C2881 C2873 1.433 . S
C2881 N2883 1.384 . S
N2882 C2878 1.427 . S
N2882 C2879 1.384 . S
N2883 C2875 1.427 . S
N2883 C2881 1.384 . S
H2884 C2890 0.930 . S
H2885 C2894 0.930 . S
H2886 C2899 0.929 . S
H2887 C2897 0.929 . S
H2888 C2892 0.929 . S
H2889 C2898 0.929 . S
C2890 H2884 0.930 . S
C2890 C2891 1.367 . S
C2890 C2898 1.378 . S
C2891 C2890 1.367 . S
C2891 C2899 1.433 . S
C2892 H2888 0.929 . S
C2892 C2894 1.378 . S
C2892 C2896 1.350 . S
C2893 C2896 1.463 . S
C2893 C2898 1.350 . S
C2893 N2901 1.427 . S
C2894 H2885 0.930 . S
C2894 C2892 1.378 . S
C2894 C2895 1.367 . S
C2895 C2894 1.367 . S
C2895 C2897 1.433 . S
C2896 C2892 1.350 . S
C2896 C2893 1.463 . S
C2896 N2900 1.427 . S
C2897 H2887 0.929 . S
C2897 C2895 1.433 . S
C2897 N2900 1.384 . S
C2898 H2889 0.929 . S
C2898 C2890 1.378 . S
C2898 C2893 1.350 . S
C2899 H2886 0.929 . S
C2899 C2891 1.433 . S
C2899 N2901 1.384 . S
N2900 C2896 1.427 . S
N2900 C2897 1.384 . S
N2901 C2893 1.427 . S
N2901 C2899 1.384 . S
H2902 C2908 0.930 . S
H2903 C2912 0.930 . S
H2904 C2917 0.929 . S
H2905 C2915 0.929 . S
H2906 C2910 0.929 . S
H2907 C2916 0.929 . S
C2908 H2902 0.930 . S
C2908 C2909 1.367 . S
C2908 C2916 1.378 . S
C2909 C2908 1.367 . S
C2909 C2917 1.433 . S
C2910 H2906 0.929 . S
C2910 C2912 1.378 . S
C2910 C2914 1.350 . S
C2911 C2914 1.463 . S
C2911 C2916 1.350 . S
C2911 N2919 1.427 . S
C2912 H2903 0.930 . S
C2912 C2910 1.378 . S
C2912 C2913 1.367 . S
C2913 C2912 1.367 . S
C2913 C2915 1.433 . S
C2914 C2910 1.350 . S
C2914 C2911 1.463 . S
C2914 N2918 1.427 . S
C2915 H2905 0.929 . S
C2915 C2913 1.433 . S
C2915 N2918 1.384 . S
C2916 H2907 0.929 . S
C2916 C2908 1.378 . S
C2916 C2911 1.350 . S
C2917 H2904 0.929 . S
C2917 C2909 1.433 . S
C2917 N2919 1.384 . S
N2918 C2914 1.427 . S
N2918 C2915 1.384 . S
N2919 C2911 1.427 . S
N2919 C2917 1.384 . S
H2920 C2926 0.930 . S
H2921 C2930 0.930 . S
H2922 C2935 0.929 . S
H2923 C2933 0.929 . S
H2924 C2928 0.929 . S
H2925 C2934 0.929 . S
C2926 H2920 0.930 . S
C2926 C2927 1.367 . S
C2926 C2934 1.378 . S
C2927 C2926 1.367 . S
C2927 C2935 1.433 . S
C2928 H2924 0.929 . S
C2928 C2930 1.378 . S
C2928 C2932 1.350 . S
C2929 C2932 1.463 . S
C2929 C2934 1.350 . S
C2929 N2937 1.427 . S
C2930 H2921 0.930 . S
C2930 C2928 1.378 . S
C2930 C2931 1.367 . S
C2931 C2930 1.367 . S
C2931 C2933 1.433 . S
C2932 C2928 1.350 . S
C2932 C2929 1.463 . S
C2932 N2936 1.427 . S
C2933 H2923 0.929 . S
C2933 C2931 1.433 . S
C2933 N2936 1.384 . S
C2934 H2925 0.929 . S
C2934 C2926 1.378 . S
C2934 C2929 1.350 . S
C2935 H2922 0.929 . S
C2935 C2927 1.433 . S
C2935 N2937 1.384 . S
N2936 C2932 1.427 . S
N2936 C2933 1.384 . S
N2937 C2929 1.427 . S
N2937 C2935 1.384 . S
H2938 C2944 0.930 . S
H2939 C2948 0.930 . S
H2940 C2953 0.929 . S
H2941 C2951 0.929 . S
H2942 C2946 0.929 . S
H2943 C2952 0.929 . S
C2944 H2938 0.930 . S
C2944 C2945 1.367 . S
C2944 C2952 1.378 . S
C2945 C2944 1.367 . S
C2945 C2953 1.433 . S
C2946 H2942 0.929 . S
C2946 C2948 1.378 . S
C2946 C2950 1.350 . S
C2947 C2950 1.463 . S
C2947 C2952 1.350 . S
C2947 N2955 1.427 . S
C2948 H2939 0.930 . S
C2948 C2946 1.378 . S
C2948 C2949 1.367 . S
C2949 C2948 1.367 . S
C2949 C2951 1.433 . S
C2950 C2946 1.350 . S
C2950 C2947 1.463 . S
C2950 N2954 1.427 . S
C2951 H2941 0.929 . S
C2951 C2949 1.433 . S
C2951 N2954 1.384 . S
C2952 H2943 0.929 . S
C2952 C2944 1.378 . S
C2952 C2947 1.350 . S
C2953 H2940 0.929 . S
C2953 C2945 1.433 . S
C2953 N2955 1.384 . S
N2954 C2950 1.427 . S
N2954 C2951 1.384 . S
N2955 C2947 1.427 . S
N2955 C2953 1.384 . S
H2956 C2962 0.930 . S
H2957 C2966 0.930 . S
H2958 C2971 0.929 . S
H2959 C2969 0.929 . S
H2960 C2964 0.929 . S
H2961 C2970 0.929 . S
C2962 H2956 0.930 . S
C2962 C2963 1.367 . S
C2962 C2970 1.378 . S
C2963 C2962 1.367 . S
C2963 C2971 1.433 . S
C2964 H2960 0.929 . S
C2964 C2966 1.378 . S
C2964 C2968 1.350 . S
C2965 C2968 1.463 . S
C2965 C2970 1.350 . S
C2965 N2973 1.427 . S
C2966 H2957 0.930 . S
C2966 C2964 1.378 . S
C2966 C2967 1.367 . S
C2967 C2966 1.367 . S
C2967 C2969 1.433 . S
C2968 C2964 1.350 . S
C2968 C2965 1.463 . S
C2968 N2972 1.427 . S
C2969 H2959 0.929 . S
C2969 C2967 1.433 . S
C2969 N2972 1.384 . S
C2970 H2961 0.929 . S
C2970 C2962 1.378 . S
C2970 C2965 1.350 . S
C2971 H2958 0.929 . S
C2971 C2963 1.433 . S
C2971 N2973 1.384 . S
N2972 C2968 1.427 . S
N2972 C2969 1.384 . S
N2973 C2965 1.427 . S
N2973 C2971 1.384 . S
H2974 C2980 0.930 . S
H2975 C2984 0.930 . S
H2976 C2989 0.929 . S
H2977 C2987 0.929 . S
H2978 C2982 0.929 . S
H2979 C2988 0.929 . S
C2980 H2974 0.930 . S
C2980 C2981 1.367 . S
C2980 C2988 1.378 . S
C2981 C2980 1.367 . S
C2981 C2989 1.433 . S
C2982 H2978 0.929 . S
C2982 C2984 1.378 . S
C2982 C2986 1.350 . S
C2983 C2986 1.463 . S
C2983 C2988 1.350 . S
C2983 N2991 1.427 . S
C2984 H2975 0.930 . S
C2984 C2982 1.378 . S
C2984 C2985 1.367 . S
C2985 C2984 1.367 . S
C2985 C2987 1.433 . S
C2986 C2982 1.350 . S
C2986 C2983 1.463 . S
C2986 N2990 1.427 . S
C2987 H2977 0.929 . S
C2987 C2985 1.433 . S
C2987 N2990 1.384 . S
C2988 H2979 0.929 . S
C2988 C2980 1.378 . S
C2988 C2983 1.350 . S
C2989 H2976 0.929 . S
C2989 C2981 1.433 . S
C2989 N2991 1.384 . S
N2990 C2986 1.427 . S
N2990 C2987 1.384 . S
N2991 C2983 1.427 . S
N2991 C2989 1.384 . S
H2992 C2998 0.930 . S
H2993 C3002 0.930 . S
H2994 C3007 0.929 . S
H2995 C3005 0.929 . S
H2996 C3000 0.929 . S
H2997 C3006 0.929 . S
C2998 H2992 0.930 . S
C2998 C2999 1.367 . S
C2998 C3006 1.378 . S
C2999 C2998 1.367 . S
C2999 C3007 1.433 . S
C3000 H2996 0.929 . S
C3000 C3002 1.378 . S
C3000 C3004 1.350 . S
C3001 C3004 1.463 . S
C3001 C3006 1.350 . S
C3001 N3009 1.427 . S
C3002 H2993 0.930 . S
C3002 C3000 1.378 . S
C3002 C3003 1.367 . S
C3003 C3002 1.367 . S
C3003 C3005 1.433 . S
C3004 C3000 1.350 . S
C3004 C3001 1.463 . S
C3004 N3008 1.427 . S
C3005 H2995 0.929 . S
C3005 C3003 1.433 . S
C3005 N3008 1.384 . S
C3006 H2997 0.929 . S
C3006 C2998 1.378 . S
C3006 C3001 1.350 . S
C3007 H2994 0.929 . S
C3007 C2999 1.433 . S
C3007 N3009 1.384 . S
N3008 C3004 1.427 . S
N3008 C3005 1.384 . S
N3009 C3001 1.427 . S
N3009 C3007 1.384 . S
H3010 C3016 0.930 . S
H3011 C3020 0.930 . S
H3012 C3025 0.929 . S
H3013 C3023 0.929 . S
H3014 C3018 0.929 . S
H3015 C3024 0.929 . S
C3016 H3010 0.930 . S
C3016 C3017 1.367 . S
C3016 C3024 1.378 . S
C3017 C3016 1.367 . S
C3017 C3025 1.433 . S
C3018 H3014 0.929 . S
C3018 C3020 1.378 . S
C3018 C3022 1.350 . S
C3019 C3022 1.463 . S
C3019 C3024 1.350 . S
C3019 N3027 1.427 . S
C3020 H3011 0.930 . S
C3020 C3018 1.378 . S
C3020 C3021 1.367 . S
C3021 C3020 1.367 . S
C3021 C3023 1.433 . S
C3022 C3018 1.350 . S
C3022 C3019 1.463 . S
C3022 N3026 1.427 . S
C3023 H3013 0.929 . S
C3023 C3021 1.433 . S
C3023 N3026 1.384 . S
C3024 H3015 0.929 . S
C3024 C3016 1.378 . S
C3024 C3019 1.350 . S
C3025 H3012 0.929 . S
C3025 C3017 1.433 . S
C3025 N3027 1.384 . S
N3026 C3022 1.427 . S
N3026 C3023 1.384 . S
N3027 C3019 1.427 . S
N3027 C3025 1.384 . S
H3028 C3034 0.930 . S
H3029 C3038 0.930 . S
H3030 C3043 0.929 . S
H3031 C3041 0.929 . S
H3032 C3036 0.929 . S
H3033 C3042 0.929 . S
C3034 H3028 0.930 . S
C3034 C3035 1.367 . S
C3034 C3042 1.378 . S
C3035 C3034 1.367 . S
C3035 C3043 1.433 . S
C3036 H3032 0.929 . S
C3036 C3038 1.378 . S
C3036 C3040 1.350 . S
C3037 C3040 1.463 . S
C3037 C3042 1.350 . S
C3037 N3045 1.427 . S
C3038 H3029 0.930 . S
C3038 C3036 1.378 . S
C3038 C3039 1.367 . S
C3039 C3038 1.367 . S
C3039 C3041 1.433 . S
C3040 C3036 1.350 . S
C3040 C3037 1.463 . S
C3040 N3044 1.427 . S
C3041 H3031 0.929 . S
C3041 C3039 1.433 . S
C3041 N3044 1.384 . S
C3042 H3033 0.929 . S
C3042 C3034 1.378 . S
C3042 C3037 1.350 . S
C3043 H3030 0.929 . S
C3043 C3035 1.433 . S
C3043 N3045 1.384 . S
N3044 C3040 1.427 . S
N3044 C3041 1.384 . S
N3045 C3037 1.427 . S
N3045 C3043 1.384 . S
H3046 C3052 0.930 . S
H3047 C3056 0.930 . S
H3048 C3061 0.929 . S
H3049 C3059 0.929 . S
H3050 C3054 0.929 . S
H3051 C3060 0.929 . S
C3052 H3046 0.930 . S
C3052 C3053 1.367 . S
C3052 C3060 1.378 . S
C3053 C3052 1.367 . S
C3053 C3061 1.433 . S
C3054 H3050 0.929 . S
C3054 C3056 1.378 . S
C3054 C3058 1.350 . S
C3055 C3058 1.463 . S
C3055 C3060 1.350 . S
C3055 N3063 1.427 . S
C3056 H3047 0.930 . S
C3056 C3054 1.378 . S
C3056 C3057 1.367 . S
C3057 C3056 1.367 . S
C3057 C3059 1.433 1_565 S
C3058 C3054 1.350 . S
C3058 C3055 1.463 . S
C3058 N3062 1.427 . S
C3059 H3049 0.929 . S
C3059 C3057 1.433 1_545 S
C3059 N3062 1.384 1_545 S
C3060 H3051 0.929 . S
C3060 C3052 1.378 . S
C3060 C3055 1.350 . S
C3061 H3048 0.929 . S
C3061 C3053 1.433 . S
C3061 N3063 1.384 . S
N3062 C3058 1.427 . S
N3062 C3059 1.384 1_565 S
N3063 C3055 1.427 . S
N3063 C3061 1.384 . S
H3064 C3070 0.930 . S
H3065 C3074 0.930 . S
H3066 C3079 0.929 . S
H3067 C3077 0.929 . S
H3068 C3072 0.929 . S
H3069 C3078 0.929 . S
C3070 H3064 0.930 . S
C3070 C3071 1.367 . S
C3070 C3078 1.378 . S
C3071 C3070 1.367 . S
C3071 C3079 1.433 . S
C3072 H3068 0.929 . S
C3072 C3074 1.378 . S
C3072 C3076 1.350 . S
C3073 C3076 1.463 . S
C3073 C3078 1.350 . S
C3073 N3081 1.427 . S
C3074 H3065 0.930 . S
C3074 C3072 1.378 . S
C3074 C3075 1.367 . S
C3075 C3074 1.367 . S
C3075 C3077 1.433 . S
C3076 C3072 1.350 . S
C3076 C3073 1.463 . S
C3076 N3080 1.427 . S
C3077 H3067 0.929 . S
C3077 C3075 1.433 . S
C3077 N3080 1.384 . S
C3078 H3069 0.929 . S
C3078 C3070 1.378 . S
C3078 C3073 1.350 . S
C3079 H3066 0.929 . S
C3079 C3071 1.433 . S
C3079 N3081 1.384 . S
N3080 C3076 1.427 . S
N3080 C3077 1.384 . S
N3081 C3073 1.427 . S
N3081 C3079 1.384 . S
H3082 C3088 0.930 . S
H3083 C3092 0.930 . S
H3084 C3097 0.929 . S
H3085 C3095 0.913 1_556 S
H3086 C3090 0.929 . S
H3087 C3096 0.929 . S
C3088 H3082 0.930 . S
C3088 C3089 1.367 1_556 S
C3088 C3096 1.378 . S
C3089 C3088 1.367 1_554 S
C3089 C3097 1.433 . S
C3090 H3086 0.929 . S
C3090 C3092 1.378 . S
C3090 C3094 1.350 . S
C3091 C3094 1.463 . S
C3091 C3096 1.350 1_554 S
C3091 N3099 1.427 . S
C3092 H3083 0.930 . S
C3092 C3090 1.378 . S
C3092 C3093 1.367 . S
C3093 C3092 1.367 . S
C3093 C3095 1.433 . S
C3094 C3090 1.350 . S
C3094 C3091 1.463 . S
C3094 N3098 1.427 . S
C3095 H3085 0.913 1_554 S
C3095 C3093 1.433 . S
C3095 N3098 1.384 . S
C3096 H3087 0.929 . S
C3096 C3088 1.378 . S
C3096 C3091 1.350 1_556 S
C3097 H3084 0.929 . S
C3097 C3089 1.433 . S
C3097 N3099 1.384 . S
N3098 C3094 1.427 . S
N3098 C3095 1.384 . S
N3099 C3091 1.427 . S
N3099 C3097 1.384 . S
H3100 C3106 0.930 . S
H3101 C3110 0.930 . S
H3102 C3115 0.929 . S
H3103 C3113 0.929 . S
H3104 C3108 0.929 . S
H3105 C3114 0.929 . S
C3106 H3100 0.930 . S
C3106 C3107 1.367 . S
C3106 C3114 1.378 . S
C3107 C3106 1.367 . S
C3107 C3115 1.433 . S
C3108 H3104 0.929 . S
C3108 C3110 1.378 . S
C3108 C3112 1.350 . S
C3109 C3112 1.463 . S
C3109 C3114 1.350 . S
C3109 N3117 1.427 . S
C3110 H3101 0.930 . S
C3110 C3108 1.378 . S
C3110 C3111 1.367 . S
C3111 C3110 1.367 . S
C3111 C3113 1.433 . S
C3112 C3108 1.350 . S
C3112 C3109 1.463 . S
C3112 N3116 1.427 . S
C3113 H3103 0.929 . S
C3113 C3111 1.433 . S
C3113 N3116 1.384 . S
C3114 H3105 0.929 . S
C3114 C3106 1.378 . S
C3114 C3109 1.350 . S
C3115 H3102 0.929 . S
C3115 C3107 1.433 . S
C3115 N3117 1.384 . S
N3116 C3112 1.427 . S
N3116 C3113 1.384 . S
N3117 C3109 1.427 . S
N3117 C3115 1.384 . S
H3118 C3124 0.930 . S
H3119 C3128 0.930 . S
H3120 C3133 0.929 . S
H3121 C3131 0.929 . S
H3122 C3126 0.929 . S
H3123 C3132 0.929 . S
C3124 H3118 0.930 . S
C3124 C3125 1.367 . S
C3124 C3132 1.378 . S
C3125 C3124 1.367 . S
C3125 C3133 1.433 . S
C3126 H3122 0.929 . S
C3126 C3128 1.378 . S
C3126 C3130 1.350 . S
C3127 C3130 1.463 . S
C3127 C3132 1.350 . S
C3127 N3135 1.427 . S
C3128 H3119 0.930 . S
C3128 C3126 1.378 . S
C3128 C3129 1.367 . S
C3129 C3128 1.367 . S
C3129 C3131 1.433 . S
C3130 C3126 1.350 . S
C3130 C3127 1.463 . S
C3130 N3134 1.427 . S
C3131 H3121 0.929 . S
C3131 C3129 1.433 . S
C3131 N3134 1.384 . S
C3132 H3123 0.929 . S
C3132 C3124 1.378 . S
C3132 C3127 1.350 . S
C3133 H3120 0.929 . S
C3133 C3125 1.433 . S
C3133 N3135 1.384 . S
N3134 C3130 1.427 . S
N3134 C3131 1.384 . S
N3135 C3127 1.427 . S
N3135 C3133 1.384 . S
C1419 C881 1.030 . S
C1415 C2 1.042 . S
C1433 C39 1.779 . S
C1437 C927 1.772 . S
C1451 C86 0.836 . S
C1455 C936 0.843 . S
C1473 C974 1.536 . S
C1469 C112 1.570 . S
C1487 C38 1.635 . S
C1491 C1008 1.604 . S
C1509 C1038 0.753 . S
C1505 C76 0.747 . S
C1527 C1097 1.567 1_556 S
C1523 C122 1.530 . S
C1541 C3 0.952 . S
C1545 C1110 0.952 . S
C1559 C147 1.381 . S
C1563 C893 1.366 . S
C1577 C184 1.142 . S
C1581 C911 1.142 . S
C1599 C932 1.641 . S
C1595 C219 1.653 . S
C1617 C970 0.797 . S
C1613 C256 0.801 . S
C1631 C148 1.255 . S
C1635 C1004 1.247 . S
C1653 C1034 1.583 . S
C1649 C183 1.593 . S
C1671 C1081 1.191 . S
C1667 C220 1.205 . S
C1689 C1106 0.668 . S
C1685 C255 0.656 . S
C1707 C877 0.681 . S
C1703 C254 0.689 . S
C1725 C1136 1.592 . S
C1721 C302 1.540 . S
C1739 C326 1.399 . S
C1743 C1178 1.406 . S
C1761 C1221 0.550 . S
C1757 C374 0.551 . S
C1775 C146 1.345 . S
C1779 C1102 1.326 . S
C1797 C940 1.479 . S
C1793 C182 1.471 . S
C1811 C338 1.281 . S
C1815 C1238 1.327 . S
C1833 C1289 1.566 . S
C1829 C410 1.513 . S
C1847 C434 1.075 . S
C1851 C872 1.037 1_556 S
C1869 C1272 1.815 . S
C1865 C472 1.836 . S
C1883 C507 0.857 . S
C1887 C945 0.852 . S
C1901 C543 1.624 . S
C1905 C1255 1.595 . S
C1923 C1017 1.640 . S
C1919 C470 1.671 . S
C1941 C1183 0.838 . S
C1937 C518 0.828 . S
C1959 C1068 1.598 . S
C1955 C554 1.542 . S
C1977 C1323 0.910 . S
C1973 C436 0.926 . S
C1995 C864 1.416 . S
C1991 C580 1.437 . S
C2009 C615 1.180 . S
C2013 C1276 1.163 . S
C2031 C961 1.663 . S
C2027 C652 1.689 . S
C2045 C687 0.810 . S
C2049 C1251 0.800 . S
C2063 C579 1.302 . S
C2067 C1013 1.279 . S
C2081 C616 1.660 . S
C2085 C1199 1.641 . S
C2103 C1072 1.217 . S
C2099 C651 1.240 . S
C2117 C688 0.661 . S
C2121 C1319 0.667 . S
C2135 C686 0.707 . S
C2139 C868 0.708 . S
C2153 C734 1.604 1_554 S
C2157 C1165 1.636 . S
C2171 C758 1.421 . S
C2175 C1051 1.423 . S
C2189 C806 0.612 . S
C2193 C1212 0.600 . S
C2211 C1335 1.344 . S
C2207 C578 1.365 . S
C2229 C949 1.536 . S
C2225 C614 1.537 . S
C2247 C995 1.364 . S
C2243 C770 1.343 . S
C2265 C906 1.569 . S
C2261 C842 1.534 . S
C2279 C74 0.955 . S
C2283 C1357 0.946 . S
C2301 C1301 1.774 . S
C2297 C111 1.781 . S
C2319 C1378 0.894 . S
C2315 C14 0.869 . S
C2333 C40 1.570 . S
C2337 C1246 1.538 . S
C2351 C110 1.631 . S
C2355 C1144 1.610 1_556 S
C2373 C1174 0.802 . S
C2369 C4 0.799 . S
C2391 C1233 1.568 . S
C2387 C50 1.541 . S
C2409 C1314 0.886 . S
C2405 C75 0.887 . S
C2427 C1369 1.362 . S
C2423 C399 1.376 . S
C2441 C292 1.133 1_556 S
C2445 C1285 1.133 . S
C2459 C327 1.649 . S
C2463 C1374 1.637 . S
C2481 C1242 0.779 . S
C2477 C364 0.780 . S
C2499 C1140 1.239 . S
C2495 C400 1.248 . S
C2513 C291 1.586 . S
C2517 C1170 1.575 . S
C2535 C1217 1.193 . S
C2531 C328 1.209 . S
C2549 C363 0.643 . S
C2553 C1310 0.655 . S
C2571 C1353 0.690 . S
C2567 C362 0.682 . S
C2589 C1000 1.601 . S
C2585 C194 1.545 . S
C2607 C1042 1.372 . S
C2603 C218 1.375 . S
C2621 C266 0.539 . S
C2625 C1085 0.518 . S
C2643 C1306 1.317 . S
C2639 C398 1.325 . S
C2657 C290 1.494 . S
C2661 C1382 1.501 . S
C2679 C966 1.341 . S
C2675 C230 1.296 . S
C2697 C915 1.541 . S
C2693 C158 1.499 . S
C2711 C508 1.013 . S
C2715 C1348 0.995 . S
C2733 C898 1.823 . S
C2729 C544 1.840 . S
C2751 C1387 0.911 . S
C2747 C446 0.906 . S
C2765 C471 1.627 . S
C2769 C983 1.597 . S
C2783 C542 1.665 . S
C2787 C1153 1.640 . S
C2801 C435 0.775 . S
C2805 C1047 0.776 . S
C2819 C482 1.545 . S
C2823 C1204 1.596 . S
C2837 C506 1.009 . S
C2841 C1119 1.004 . S
C2859 C1340 1.386 . S
C2855 C832 1.413 . S
C2873 C723 1.167 . S
C2877 C902 1.149 . S
C2895 C1403 1.678 . S
C2891 C760 1.707 . S
C2909 C795 0.819 . S
C2913 C979 0.813 . S
C2927 C831 1.298 . S
C2931 C1149 1.275 . S
C2949 C1063 1.609 . S
C2945 C724 1.639 . S
C2963 C759 1.250 . S
C2967 C1208 1.227 . S
C2985 C1115 0.684 . S
C2981 C796 0.682 . S
C3003 C1344 0.720 . S
C2999 C794 0.721 . S
C3021 C1029 1.653 . S
C3017 C626 1.628 . S
C3035 C650 1.420 . S
C3039 C1187 1.413 . S
C3057 C1076 0.579 . S
C3053 C698 0.595 . S
C3075 C1131 1.359 . S
C3071 C830 1.368 . S
C3089 C722 1.531 . S
C3093 C1391 1.535 . S
C3111 C1267 1.351 . S
C3107 C662 1.329 . S
C3129 C1280 1.584 . S
C3125 C590 1.552 . S
