# Generated by pormake.
# Topology myd, (4,6)-cn, num edge types: 1
# Building blocks:
#     Node 0, Type 0, BuildingBlock: NAWXER_clean_sbu_0, # of connection points: 4
#     Node 1, Type 0, BuildingBlock: NAWXER_clean_sbu_0, # of connection points: 4
#     Node 2, Type 0, BuildingBlock: NAWXER_clean_sbu_0, # of connection points: 4
#     Node 3, Type 0, BuildingBlock: NAWXER_clean_sbu_0, # of connection points: 4
#     Node 4, Type 0, BuildingBlock: NAWXER_clean_sbu_0, # of connection points: 4
#     Node 5, Type 0, BuildingBlock: NAWXER_clean_sbu_0, # of connection points: 4
#     Node 6, Type 0, BuildingBlock: NAWXER_clean_sbu_0, # of connection points: 4
#     Node 7, Type 0, BuildingBlock: NAWXER_clean_sbu_0, # of connection points: 4
#     Node 8, Type 0, BuildingBlock: NAWXER_clean_sbu_0, # of connection points: 4
#     Node 9, Type 0, BuildingBlock: NAWXER_clean_sbu_0, # of connection points: 4
#     Node 10, Type 0, BuildingBlock: NAWXER_clean_sbu_0, # of connection points: 4
#     Node 11, Type 0, BuildingBlock: NAWXER_clean_sbu_0, # of connection points: 4
#     Node 12, Type 1, BuildingBlock: MIDCAF_clean_sbu_0, # of connection points: 6
#     Node 13, Type 1, BuildingBlock: MIDCAF_clean_sbu_0, # of connection points: 6
#     Node 14, Type 1, BuildingBlock: MIDCAF_clean_sbu_0, # of connection points: 6
#     Node 15, Type 1, BuildingBlock: MIDCAF_clean_sbu_0, # of connection points: 6
#     Node 16, Type 1, BuildingBlock: MIDCAF_clean_sbu_0, # of connection points: 6
#     Node 17, Type 1, BuildingBlock: MIDCAF_clean_sbu_0, # of connection points: 6
#     Node 18, Type 1, BuildingBlock: MIDCAF_clean_sbu_0, # of connection points: 6
#     Node 19, Type 1, BuildingBlock: MIDCAF_clean_sbu_0, # of connection points: 6
#     Edge 20, Type (0, 1), None
#     Edge 21, Type (0, 1), None
#     Edge 22, Type (0, 1), None
#     Edge 23, Type (0, 1), None
#     Edge 24, Type (0, 1), None
#     Edge 25, Type (0, 1), None
#     Edge 26, Type (0, 1), None
#     Edge 27, Type (0, 1), None
#     Edge 28, Type (0, 1), None
#     Edge 29, Type (0, 1), None
#     Edge 30, Type (0, 1), None
#     Edge 31, Type (0, 1), None
#     Edge 32, Type (0, 1), None
#     Edge 33, Type (0, 1), None
#     Edge 34, Type (0, 1), None
#     Edge 35, Type (0, 1), None
#     Edge 36, Type (0, 1), None
#     Edge 37, Type (0, 1), None
#     Edge 38, Type (0, 1), None
#     Edge 39, Type (0, 1), None
#     Edge 40, Type (0, 1), None
#     Edge 41, Type (0, 1), None
#     Edge 42, Type (0, 1), None
#     Edge 43, Type (0, 1), None
#     Edge 44, Type (0, 1), None
#     Edge 45, Type (0, 1), None
#     Edge 46, Type (0, 1), None
#     Edge 47, Type (0, 1), None
#     Edge 48, Type (0, 1), None
#     Edge 49, Type (0, 1), None
#     Edge 50, Type (0, 1), None
#     Edge 51, Type (0, 1), None
#     Edge 52, Type (0, 1), None
#     Edge 53, Type (0, 1), None
#     Edge 54, Type (0, 1), None
#     Edge 55, Type (0, 1), None
#     Edge 56, Type (0, 1), None
#     Edge 57, Type (0, 1), None
#     Edge 58, Type (0, 1), None
#     Edge 59, Type (0, 1), None
#     Edge 60, Type (0, 1), None
#     Edge 61, Type (0, 1), None
#     Edge 62, Type (0, 1), None
#     Edge 63, Type (0, 1), None
#     Edge 64, Type (0, 1), None
#     Edge 65, Type (0, 1), None
#     Edge 66, Type (0, 1), None
#     Edge 67, Type (0, 1), None
# Relax obj value: 0.163
# Max RMSD: 0.104
# Mean RMSD: 0.094
data_MOF--net-myd--node1-NAWXER_clean_sbu_0--node2-MIDCAF_clean_sbu_0--edge1-none
_symmetry_space_group_name_H-M    P1
_symmetry_Int_Tables_number       1
_symmetry_cell_setting            triclinic
loop_
_symmetry_equiv_pos_as_xyz
'x, y, z'
_cell_length_a     20.240573
_cell_length_b     20.245306
_cell_length_c     20.219412
_cell_angle_alpha  90.003866
_cell_angle_beta   90.014526
_cell_angle_gamma 90.016723
loop_
_atom_site_label
_atom_site_type_symbol
_atom_site_fract_x
_atom_site_fract_y
_atom_site_fract_z
_atom_type_partial_charge
C0 C 0.97673 0.17598 0.21789 0.0
C1 C 0.96458 0.34405 0.40085 0.0
O2 O 0.02706 0.19802 0.24763 0.0
Zn3 Zn 0.06573 0.26157 0.31286 0.0
O4 O 0.91905 0.1937 0.23739 0.0
Zn5 Zn 0.94759 0.25597 0.31285 0.0
O6 O 0.98623 0.31951 0.24763 0.0
O7 O 0.09424 0.32384 0.2374 0.0
O8 O 0.90994 0.32289 0.37676 0.0
O9 O 0.0192 0.32308 0.37798 0.0
O10 O 0.10341 0.19465 0.37675 0.0
O11 O 0.99416 0.19448 0.37796 0.0
C12 C 0.03655 0.34155 0.2179 0.0
C13 C 0.04878 0.1735 0.40083 0.0
C14 C 0.97665 0.84154 0.29713 0.0
C15 C 0.96452 0.67348 0.1142 0.0
O16 O 0.02699 0.81956 0.2674 0.0
Zn17 Zn 0.06566 0.75605 0.2022 0.0
O18 O 0.91897 0.82377 0.27762 0.0
Zn19 Zn 0.94752 0.76154 0.20216 0.0
O20 O 0.98619 0.69803 0.26738 0.0
O21 O 0.0942 0.69379 0.27767 0.0
O22 O 0.90988 0.69458 0.13826 0.0
O23 O 0.01913 0.69451 0.13708 0.0
O24 O 0.10329 0.823 0.1383 0.0
O25 O 0.99403 0.82308 0.13706 0.0
C26 C 0.03652 0.67601 0.29713 0.0
C27 C 0.04864 0.8441 0.11421 0.0
C28 C 0.39965 0.05113 0.1723 0.0
C29 C 0.21679 0.03857 0.34034 0.0
O30 O 0.37675 0.99648 0.19314 0.0
Zn31 Zn 0.31166 0.9498 0.25457 0.0
O32 O 0.37557 0.10571 0.19354 0.0
Zn33 Zn 0.31168 0.06786 0.26039 0.0
O34 O 0.37679 0.0212 0.32182 0.0
O35 O 0.37558 0.91197 0.32141 0.0
O36 O 0.23635 0.09628 0.32279 0.0
O37 O 0.2465 0.98828 0.31827 0.0
O38 O 0.23631 0.92135 0.19215 0.0
O39 O 0.24649 0.02935 0.19669 0.0
C40 C 0.39969 0.96655 0.34265 0.0
C41 C 0.21676 0.97904 0.1746 0.0
C42 C 0.79647 0.53853 0.1746 0.0
C43 C 0.61363 0.55096 0.34269 0.0
O44 O 0.76675 0.48822 0.19667 0.0
Zn45 Zn 0.70159 0.44968 0.26036 0.0
O46 O 0.77698 0.5962 0.19228 0.0
Zn47 Zn 0.70163 0.56772 0.25464 0.0
O48 O 0.76677 0.52918 0.31835 0.0
O49 O 0.77692 0.42118 0.32272 0.0
O50 O 0.63774 0.60555 0.32147 0.0
O51 O 0.6365 0.49632 0.32183 0.0
O52 O 0.63768 0.41184 0.19351 0.0
O53 O 0.63652 0.52107 0.19316 0.0
C54 C 0.79646 0.47885 0.34041 0.0
C55 C 0.61361 0.46643 0.17229 0.0
C56 C 0.17143 0.40178 0.04971 0.0
C57 C 0.33938 0.21901 0.0373 0.0
O58 O 0.19233 0.37891 0.99502 0.0
Zn59 Zn 0.25374 0.31388 0.94834 0.0
O60 O 0.19261 0.37772 0.10439 0.0
Zn61 Zn 0.25948 0.31386 0.06662 0.0
O62 O 0.3209 0.37892 0.01996 0.0
O63 O 0.32062 0.37776 0.91059 0.0
O64 O 0.32185 0.23855 0.09508 0.0
O65 O 0.31729 0.2487 0.98694 0.0
O66 O 0.19134 0.23858 0.91983 0.0
O67 O 0.19589 0.24871 0.02797 0.0
C68 C 0.34181 0.40181 0.96528 0.0
C69 C 0.17379 0.21903 0.9776 0.0
C70 C 0.17383 0.79855 0.53736 0.0
C71 C 0.34187 0.61583 0.54961 0.0
O72 O 0.19589 0.76886 0.48699 0.0
Zn73 Zn 0.25942 0.70372 0.44831 0.0
O74 O 0.19154 0.77908 0.59511 0.0
Zn75 Zn 0.25385 0.70375 0.56658 0.0
O76 O 0.31741 0.76887 0.52788 0.0
O77 O 0.32174 0.77903 0.41975 0.0
O78 O 0.32075 0.63989 0.6043 0.0
O79 O 0.3209 0.63869 0.49493 0.0
O80 O 0.19251 0.63985 0.4106 0.0
O81 O 0.19236 0.63869 0.51997 0.0
C82 C 0.33946 0.79854 0.47749 0.0
C83 C 0.17139 0.6158 0.4653 0.0
C84 C 0.67143 0.90177 0.54972 0.0
C85 C 0.8394 0.71901 0.53731 0.0
O86 O 0.69234 0.8789 0.49503 0.0
Zn87 Zn 0.75375 0.81388 0.44835 0.0
O88 O 0.69261 0.87771 0.6044 0.0
Zn89 Zn 0.75949 0.81386 0.56663 0.0
O90 O 0.82091 0.87892 0.51997 0.0
O91 O 0.82063 0.87776 0.41061 0.0
O92 O 0.82186 0.73854 0.59509 0.0
O93 O 0.81731 0.7487 0.48695 0.0
O94 O 0.69136 0.73857 0.41985 0.0
O95 O 0.69591 0.7487 0.52799 0.0
C96 C 0.84182 0.90181 0.46529 0.0
C97 C 0.67381 0.71901 0.47762 0.0
C98 C 0.53652 0.84154 0.71789 0.0
C99 C 0.54876 0.67351 0.90085 0.0
O100 O 0.4862 0.8195 0.74763 0.0
Zn101 Zn 0.44757 0.75597 0.81286 0.0
O102 O 0.59421 0.82384 0.73739 0.0
Zn103 Zn 0.56571 0.76158 0.81287 0.0
O104 O 0.52705 0.69802 0.74765 0.0
O105 O 0.41904 0.69368 0.73739 0.0
O106 O 0.60339 0.69466 0.87677 0.0
O107 O 0.49414 0.69448 0.87797 0.0
O108 O 0.40993 0.8229 0.87676 0.0
O109 O 0.51918 0.82308 0.87799 0.0
C110 C 0.47672 0.67597 0.71791 0.0
C111 C 0.46457 0.84406 0.90085 0.0
C112 C 0.53649 0.17603 0.79711 0.0
C113 C 0.54863 0.34409 0.61418 0.0
O114 O 0.48617 0.19804 0.76736 0.0
Zn115 Zn 0.4475 0.26154 0.70214 0.0
O116 O 0.59418 0.19379 0.77764 0.0
Zn117 Zn 0.56564 0.25604 0.70217 0.0
O118 O 0.52696 0.31956 0.76737 0.0
O119 O 0.41895 0.32379 0.77758 0.0
O120 O 0.60328 0.32298 0.63828 0.0
O121 O 0.49402 0.32307 0.63703 0.0
O122 O 0.40985 0.19458 0.63824 0.0
O123 O 0.51911 0.1945 0.63706 0.0
C124 C 0.47663 0.34156 0.79709 0.0
C125 C 0.4645 0.17347 0.61418 0.0
C126 C 0.71678 0.47898 0.67457 0.0
C127 C 0.89967 0.46658 0.84269 0.0
O128 O 0.7465 0.52929 0.69665 0.0
Zn129 Zn 0.81166 0.56785 0.76036 0.0
O130 O 0.73629 0.4213 0.69225 0.0
Zn131 Zn 0.81164 0.44981 0.75463 0.0
O132 O 0.7465 0.48833 0.81833 0.0
O133 O 0.73632 0.59632 0.8227 0.0
O134 O 0.87556 0.41199 0.82146 0.0
O135 O 0.87677 0.52122 0.82183 0.0
O136 O 0.87555 0.60568 0.69351 0.0
O137 O 0.87673 0.49645 0.69316 0.0
C138 C 0.7168 0.53864 0.84039 0.0
C139 C 0.89962 0.5511 0.67229 0.0
C140 C 0.29645 0.03851 0.6746 0.0
C141 C 0.11361 0.05096 0.8427 0.0
O142 O 0.26673 0.98821 0.69669 0.0
Zn143 Zn 0.20157 0.94968 0.76038 0.0
O144 O 0.27697 0.0962 0.69227 0.0
Zn145 Zn 0.20162 0.06773 0.75465 0.0
O146 O 0.26676 0.02919 0.81836 0.0
O147 O 0.27691 0.92119 0.82273 0.0
O148 O 0.13772 0.10555 0.82148 0.0
O149 O 0.13649 0.99632 0.82184 0.0
O150 O 0.13767 0.91184 0.69353 0.0
O151 O 0.13651 0.02108 0.69318 0.0
C152 C 0.29645 0.97886 0.84042 0.0
C153 C 0.1136 0.96643 0.67231 0.0
C154 C 0.67141 0.11581 0.96526 0.0
C155 C 0.83944 0.29858 0.97754 0.0
O156 O 0.69237 0.13871 0.01993 0.0
Zn157 Zn 0.75382 0.20376 0.06658 0.0
O158 O 0.69255 0.13986 0.91057 0.0
Zn159 Zn 0.75947 0.20372 0.94829 0.0
O160 O 0.82091 0.1387 0.99494 0.0
O161 O 0.82072 0.13989 0.10431 0.0
O162 O 0.82184 0.27903 0.91978 0.0
O163 O 0.81739 0.2689 0.02792 0.0
O164 O 0.69147 0.27908 0.09505 0.0
O165 O 0.69596 0.2689 0.98692 0.0
C166 C 0.84185 0.11582 0.04962 0.0
C167 C 0.67389 0.2986 0.03727 0.0
Zn168 Zn 0.10562 0.10794 0.10662 0.0
Zn169 Zn 0.96758 0.97005 0.96843 0.0
Zn170 Zn 0.04437 0.04676 0.0453 0.0
C171 C 0.0617 0.04449 0.8933 0.0
C172 C 0.04207 0.89485 0.06245 0.0
O173 O 0.98417 0.09315 0.13091 0.0
O174 O 0.04244 0.18274 0.12454 0.0
C175 C 0.15049 0.15197 0.9952 0.0
O176 O 0.06046 0.0824 0.94394 0.0
O177 O 0.03135 0.98985 0.89523 0.0
O178 O 0.98737 0.89683 0.03214 0.0
O179 O 0.07996 0.94546 0.06133 0.0
O180 O 0.18042 0.12579 0.04334 0.0
O181 O 0.09081 0.13224 0.98503 0.0
O182 O 0.12984 0.98649 0.09168 0.0
O183 O 0.12347 0.04466 0.18143 0.0
C184 C 0.14966 0.99664 0.1514 0.0
O185 O 0.94312 0.06284 0.08099 0.0
O186 O 0.89444 0.03376 0.98831 0.0
C187 C 0.99436 0.15279 0.15073 0.0
C188 C 0.89251 0.06404 0.04305 0.0
Zn189 Zn 0.04566 0.54754 0.9685 0.0
Zn190 Zn 0.9076 0.40962 0.10662 0.0
Zn191 Zn 0.96888 0.4708 0.04534 0.0
C192 C 0.86358 0.5209 0.15144 0.0
C193 C 0.86274 0.36563 0.99514 0.0
O194 O 0.07015 0.45471 0.08106 0.0
O195 O 0.11883 0.48388 0.98844 0.0
C196 C 0.97111 0.62272 0.06246 0.0
O197 O 0.8834 0.53105 0.09173 0.0
O198 O 0.88974 0.47286 0.18147 0.0
O199 O 0.83282 0.39183 0.04326 0.0
O200 O 0.92244 0.38534 0.98502 0.0
O201 O 0.0258 0.62077 0.03216 0.0
O202 O 0.93327 0.57207 0.06138 0.0
O203 O 0.9528 0.43517 0.94396 0.0
O204 O 0.98194 0.5277 0.89524 0.0
C205 C 0.95158 0.47306 0.89331 0.0
O206 O 0.0291 0.42439 0.13093 0.0
O207 O 0.97079 0.33483 0.12454 0.0
C208 C 0.12077 0.45356 0.04316 0.0
C209 C 0.01889 0.36475 0.15074 0.0
Zn210 Zn 0.96769 0.0475 0.54656 0.0
Zn211 Zn 0.10565 0.90964 0.40832 0.0
Zn212 Zn 0.04444 0.97081 0.46964 0.0
C213 C 0.15058 0.86559 0.51969 0.0
C214 C 0.99426 0.86476 0.3643 0.0
O215 O 0.08006 0.07211 0.45363 0.0
O216 O 0.98757 0.12078 0.48295 0.0
C217 C 0.06171 0.97292 0.62168 0.0
O218 O 0.09091 0.88533 0.52989 0.0
O219 O 0.1805 0.89179 0.47157 0.0
O220 O 0.04237 0.83485 0.39047 0.0
O221 O 0.98415 0.92442 0.38408 0.0
O222 O 0.03137 0.02755 0.6198 0.0
O223 O 0.06054 0.9351 0.57097 0.0
O224 O 0.94313 0.95475 0.43397 0.0
O225 O 0.89445 0.9839 0.5266 0.0
C226 C 0.8925 0.9536 0.47186 0.0
O227 O 0.1299 0.0311 0.42326 0.0
O228 O 0.12347 0.97293 0.3335 0.0
C229 C 0.04222 0.12274 0.45258 0.0
C230 C 0.14968 0.02096 0.36353 0.0
Zn231 Zn 0.90755 0.60785 0.40831 0.0
Zn232 Zn 0.04561 0.47011 0.5466 0.0
Zn233 Zn 0.96882 0.54675 0.46967 0.0
C234 C 0.97115 0.39481 0.45261 0.0
C235 C 0.12071 0.56403 0.47189 0.0
O236 O 0.92235 0.63225 0.52989 0.0
O237 O 0.83275 0.62573 0.47155 0.0
C238 C 0.86359 0.49644 0.36356 0.0
O239 O 0.93327 0.44541 0.45369 0.0
O240 O 0.02582 0.39681 0.48297 0.0
O241 O 0.11878 0.53379 0.52665 0.0
O242 O 0.07008 0.56284 0.43398 0.0
O243 O 0.88975 0.54448 0.33352 0.0
O244 O 0.88339 0.48639 0.4233 0.0
O245 O 0.02905 0.59315 0.38408 0.0
O246 O 0.97075 0.68268 0.39044 0.0
C247 C 0.01885 0.65279 0.36427 0.0
O248 O 0.95271 0.58247 0.571 0.0
O249 O 0.98188 0.48999 0.61979 0.0
C250 C 0.86268 0.65197 0.51967 0.0
C251 C 0.95151 0.54462 0.62168 0.0
Zn252 Zn 0.40756 0.90959 0.60659 0.0
Zn253 Zn 0.54565 0.04751 0.4685 0.0
Zn254 Zn 0.46885 0.97078 0.54533 0.0
C255 C 0.45159 0.97302 0.39328 0.0
C256 C 0.47108 0.1227 0.56245 0.0
O257 O 0.52907 0.92437 0.63092 0.0
O258 O 0.47076 0.8348 0.62453 0.0
C259 C 0.36271 0.86561 0.49511 0.0
O260 O 0.45278 0.93515 0.44395 0.0
O261 O 0.48197 0.02766 0.39521 0.0
O262 O 0.52577 0.12075 0.53214 0.0
O263 O 0.43324 0.07205 0.56137 0.0
O264 O 0.33277 0.89178 0.54323 0.0
O265 O 0.42241 0.88534 0.48501 0.0
O266 O 0.38338 0.03104 0.59173 0.0
O267 O 0.38971 0.97282 0.68144 0.0
C268 C 0.36355 0.02088 0.65143 0.0
O269 O 0.57013 0.95469 0.58105 0.0
O270 O 0.61884 0.98387 0.48845 0.0
C271 C 0.51886 0.86473 0.65073 0.0
C272 C 0.62076 0.95355 0.54316 0.0
Zn273 Zn 0.46759 0.47005 0.46841 0.0
Zn274 Zn 0.60564 0.60791 0.60665 0.0
Zn275 Zn 0.54438 0.54675 0.54531 0.0
C276 C 0.64966 0.49659 0.65142 0.0
C277 C 0.65051 0.65196 0.49522 0.0
O278 O 0.44313 0.56284 0.58098 0.0
O279 O 0.39446 0.53377 0.48829 0.0
C280 C 0.54207 0.39484 0.56243 0.0
O281 O 0.62984 0.48647 0.59169 0.0
O282 O 0.6235 0.54461 0.68146 0.0
O283 O 0.68043 0.62578 0.54337 0.0
O284 O 0.59083 0.63223 0.48504 0.0
O285 O 0.48737 0.39683 0.53211 0.0
O286 O 0.57995 0.44546 0.56132 0.0
O287 O 0.56049 0.5824 0.44394 0.0
O288 O 0.53136 0.48985 0.39522 0.0
C289 C 0.56172 0.54449 0.3933 0.0
O290 O 0.48416 0.59313 0.63091 0.0
O291 O 0.54247 0.6827 0.62457 0.0
C292 C 0.39253 0.56405 0.54303 0.0
C293 C 0.49437 0.65277 0.65075 0.0
Zn294 Zn 0.46768 0.5475 0.04656 0.0
Zn295 Zn 0.60564 0.4097 0.90825 0.0
Zn296 Zn 0.54442 0.47081 0.96962 0.0
C297 C 0.65058 0.36562 0.01963 0.0
C298 C 0.49426 0.36478 0.86425 0.0
O299 O 0.58003 0.57212 0.95363 0.0
O300 O 0.48755 0.62079 0.98296 0.0
C301 C 0.56171 0.47291 0.12166 0.0
O302 O 0.5909 0.38533 0.02985 0.0
O303 O 0.68047 0.39185 0.9715 0.0
O304 O 0.54239 0.33489 0.89041 0.0
O305 O 0.48412 0.42443 0.88405 0.0
O306 O 0.53137 0.52755 0.11978 0.0
O307 O 0.56054 0.43509 0.07095 0.0
O308 O 0.44311 0.45475 0.93395 0.0
O309 O 0.39445 0.48389 0.02659 0.0
C310 C 0.39249 0.45359 0.97185 0.0
O311 O 0.62987 0.53112 0.92324 0.0
O312 O 0.62346 0.47302 0.83344 0.0
C313 C 0.5422 0.62275 0.95259 0.0
C314 C 0.64967 0.52103 0.86351 0.0
Zn315 Zn 0.54562 0.97014 0.04658 0.0
Zn316 Zn 0.40754 0.10785 0.90831 0.0
Zn317 Zn 0.46882 0.04677 0.96966 0.0
C318 C 0.51883 0.15281 0.86425 0.0
C319 C 0.36359 0.99645 0.86356 0.0
O320 O 0.45271 0.0825 0.07099 0.0
O321 O 0.48192 0.99004 0.1198 0.0
C322 C 0.62073 0.06404 0.97185 0.0
O323 O 0.52904 0.09317 0.88407 0.0
O324 O 0.47072 0.18269 0.89042 0.0
O325 O 0.38974 0.04449 0.83351 0.0
O326 O 0.38339 0.98641 0.92331 0.0
O327 O 0.61881 0.03379 0.0266 0.0
O328 O 0.57008 0.06287 0.93396 0.0
O329 O 0.43327 0.94543 0.95369 0.0
O330 O 0.52581 0.89682 0.98297 0.0
C331 C 0.47114 0.89482 0.95261 0.0
O332 O 0.42235 0.13226 0.02988 0.0
O333 O 0.33274 0.12573 0.97155 0.0
C334 C 0.45154 0.04466 0.12168 0.0
C335 C 0.36267 0.15197 0.01966 0.0
loop_
_geom_bond_atom_site_label_1
_geom_bond_atom_site_label_2
_geom_bond_distance
_geom_bond_site_symmetry_2
_ccdc_geom_bond_type
C0 O2 1.247 . S
C0 O4 1.258 1_455 S
C1 O8 1.247 . S
C1 O9 1.258 1_655 S
O2 C0 1.247 . S
O2 Zn3 2.028 . S
Zn3 O2 2.028 . S
Zn3 O7 2.035 . S
Zn3 O9 2.035 . S
Zn3 O10 2.028 . S
O4 C0 1.258 1_655 S
O4 Zn5 2.035 . S
Zn5 O4 2.035 . S
Zn5 O6 2.028 . S
Zn5 O8 2.028 . S
Zn5 O11 2.035 . S
O6 Zn5 2.028 . S
O6 C12 1.247 . S
O7 Zn3 2.035 . S
O7 C12 1.258 1_455 S
O8 C1 1.247 . S
O8 Zn5 2.028 . S
O9 C1 1.258 1_455 S
O9 Zn3 2.035 . S
O10 Zn3 2.028 . S
O10 C13 1.247 . S
O11 Zn5 2.035 . S
O11 C13 1.258 1_655 S
C12 O6 1.247 . S
C12 O7 1.258 1_655 S
C13 O10 1.247 . S
C13 O11 1.258 1_455 S
C14 O16 1.247 . S
C14 O18 1.258 1_455 S
C15 O22 1.247 . S
C15 O23 1.258 1_655 S
O16 C14 1.247 . S
O16 Zn17 2.028 . S
Zn17 O16 2.028 . S
Zn17 O21 2.035 . S
Zn17 O23 2.035 . S
Zn17 O24 2.028 . S
O18 C14 1.258 1_655 S
O18 Zn19 2.035 . S
Zn19 O18 2.035 . S
Zn19 O20 2.028 . S
Zn19 O22 2.028 . S
Zn19 O25 2.035 . S
O20 Zn19 2.028 . S
O20 C26 1.247 . S
O21 Zn17 2.035 . S
O21 C26 1.258 1_455 S
O22 C15 1.247 . S
O22 Zn19 2.028 . S
O23 C15 1.258 1_455 S
O23 Zn17 2.035 . S
O24 Zn17 2.028 . S
O24 C27 1.247 . S
O25 Zn19 2.035 . S
O25 C27 1.258 1_655 S
C26 O20 1.247 . S
C26 O21 1.258 1_655 S
C27 O24 1.247 . S
C27 O25 1.258 1_455 S
C28 O30 1.247 1_545 S
C28 O32 1.258 . S
C29 O36 1.247 1_565 S
C29 O37 1.258 . S
O30 C28 1.247 1_565 S
O30 Zn31 2.028 . S
Zn31 O30 2.028 . S
Zn31 O35 2.035 . S
Zn31 O37 2.035 . S
Zn31 O38 2.028 . S
O32 C28 1.258 . S
O32 Zn33 2.035 . S
Zn33 O32 2.035 . S
Zn33 O34 2.028 . S
Zn33 O36 2.028 . S
Zn33 O39 2.035 . S
O34 Zn33 2.028 . S
O34 C40 1.247 1_545 S
O35 Zn31 2.035 . S
O35 C40 1.258 . S
O36 C29 1.247 1_545 S
O36 Zn33 2.028 . S
O37 C29 1.258 . S
O37 Zn31 2.035 . S
O38 Zn31 2.028 . S
O38 C41 1.247 1_565 S
O39 Zn33 2.035 . S
O39 C41 1.258 . S
C40 O34 1.247 1_565 S
C40 O35 1.258 . S
C41 O38 1.247 1_545 S
C41 O39 1.258 . S
C42 O44 1.247 . S
C42 O46 1.258 . S
C43 O50 1.247 . S
C43 O51 1.258 . S
O44 C42 1.247 . S
O44 Zn45 2.028 . S
Zn45 O44 2.028 . S
Zn45 O49 2.035 . S
Zn45 O51 2.035 . S
Zn45 O52 2.028 . S
O46 C42 1.258 . S
O46 Zn47 2.035 . S
Zn47 O46 2.035 . S
Zn47 O48 2.028 . S
Zn47 O50 2.028 . S
Zn47 O53 2.035 . S
O48 Zn47 2.028 . S
O48 C54 1.247 . S
O49 Zn45 2.035 . S
O49 C54 1.258 . S
O50 C43 1.247 . S
O50 Zn47 2.028 . S
O51 C43 1.258 . S
O51 Zn45 2.035 . S
O52 Zn45 2.028 . S
O52 C55 1.247 . S
O53 Zn47 2.035 . S
O53 C55 1.258 . S
C54 O48 1.247 . S
C54 O49 1.258 . S
C55 O52 1.247 . S
C55 O53 1.258 . S
C56 O58 1.247 1_554 S
C56 O60 1.258 . S
C57 O64 1.247 1_556 S
C57 O65 1.258 . S
O58 C56 1.247 1_556 S
O58 Zn59 2.028 . S
Zn59 O58 2.028 . S
Zn59 O63 2.035 . S
Zn59 O65 2.035 . S
Zn59 O66 2.028 . S
O60 C56 1.258 . S
O60 Zn61 2.035 . S
Zn61 O60 2.035 . S
Zn61 O62 2.028 . S
Zn61 O64 2.028 . S
Zn61 O67 2.035 . S
O62 Zn61 2.028 . S
O62 C68 1.247 1_554 S
O63 Zn59 2.035 . S
O63 C68 1.258 . S
O64 C57 1.247 1_554 S
O64 Zn61 2.028 . S
O65 C57 1.258 . S
O65 Zn59 2.035 . S
O66 Zn59 2.028 . S
O66 C69 1.247 1_556 S
O67 Zn61 2.035 . S
O67 C69 1.258 . S
C68 O62 1.247 1_556 S
C68 O63 1.258 . S
C69 O66 1.247 1_554 S
C69 O67 1.258 . S
C70 O72 1.247 . S
C70 O74 1.258 . S
C71 O78 1.247 . S
C71 O79 1.258 . S
O72 C70 1.247 . S
O72 Zn73 2.028 . S
Zn73 O72 2.028 . S
Zn73 O77 2.035 . S
Zn73 O79 2.035 . S
Zn73 O80 2.028 . S
O74 C70 1.258 . S
O74 Zn75 2.035 . S
Zn75 O74 2.035 . S
Zn75 O76 2.028 . S
Zn75 O78 2.028 . S
Zn75 O81 2.035 . S
O76 Zn75 2.028 . S
O76 C82 1.247 . S
O77 Zn73 2.035 . S
O77 C82 1.258 . S
O78 C71 1.247 . S
O78 Zn75 2.028 . S
O79 C71 1.258 . S
O79 Zn73 2.035 . S
O80 Zn73 2.028 . S
O80 C83 1.247 . S
O81 Zn75 2.035 . S
O81 C83 1.258 . S
C82 O76 1.247 . S
C82 O77 1.258 . S
C83 O80 1.247 . S
C83 O81 1.258 . S
C84 O86 1.247 . S
C84 O88 1.258 . S
C85 O92 1.247 . S
C85 O93 1.258 . S
O86 C84 1.247 . S
O86 Zn87 2.028 . S
Zn87 O86 2.028 . S
Zn87 O91 2.035 . S
Zn87 O93 2.035 . S
Zn87 O94 2.028 . S
O88 C84 1.258 . S
O88 Zn89 2.035 . S
Zn89 O88 2.035 . S
Zn89 O90 2.028 . S
Zn89 O92 2.028 . S
Zn89 O95 2.035 . S
O90 Zn89 2.028 . S
O90 C96 1.247 . S
O91 Zn87 2.035 . S
O91 C96 1.258 . S
O92 C85 1.247 . S
O92 Zn89 2.028 . S
O93 C85 1.258 . S
O93 Zn87 2.035 . S
O94 Zn87 2.028 . S
O94 C97 1.247 . S
O95 Zn89 2.035 . S
O95 C97 1.258 . S
C96 O90 1.247 . S
C96 O91 1.258 . S
C97 O94 1.247 . S
C97 O95 1.258 . S
C98 O100 1.247 . S
C98 O102 1.258 . S
C99 O106 1.247 . S
C99 O107 1.258 . S
O100 C98 1.247 . S
O100 Zn101 2.028 . S
Zn101 O100 2.028 . S
Zn101 O105 2.035 . S
Zn101 O107 2.035 . S
Zn101 O108 2.028 . S
O102 C98 1.258 . S
O102 Zn103 2.035 . S
Zn103 O102 2.035 . S
Zn103 O104 2.028 . S
Zn103 O106 2.028 . S
Zn103 O109 2.035 . S
O104 Zn103 2.028 . S
O104 C110 1.247 . S
O105 Zn101 2.035 . S
O105 C110 1.258 . S
O106 C99 1.247 . S
O106 Zn103 2.028 . S
O107 C99 1.258 . S
O107 Zn101 2.035 . S
O108 Zn101 2.028 . S
O108 C111 1.247 . S
O109 Zn103 2.035 . S
O109 C111 1.258 . S
C110 O104 1.247 . S
C110 O105 1.258 . S
C111 O108 1.247 . S
C111 O109 1.258 . S
C112 O114 1.247 . S
C112 O116 1.258 . S
C113 O120 1.247 . S
C113 O121 1.258 . S
O114 C112 1.247 . S
O114 Zn115 2.028 . S
Zn115 O114 2.028 . S
Zn115 O119 2.035 . S
Zn115 O121 2.035 . S
Zn115 O122 2.028 . S
O116 C112 1.258 . S
O116 Zn117 2.035 . S
Zn117 O116 2.035 . S
Zn117 O118 2.028 . S
Zn117 O120 2.028 . S
Zn117 O123 2.035 . S
O118 Zn117 2.028 . S
O118 C124 1.247 . S
O119 Zn115 2.035 . S
O119 C124 1.258 . S
O120 C113 1.247 . S
O120 Zn117 2.028 . S
O121 C113 1.258 . S
O121 Zn115 2.035 . S
O122 Zn115 2.028 . S
O122 C125 1.247 . S
O123 Zn117 2.035 . S
O123 C125 1.258 . S
C124 O118 1.247 . S
C124 O119 1.258 . S
C125 O122 1.247 . S
C125 O123 1.258 . S
C126 O128 1.247 . S
C126 O130 1.258 . S
C127 O134 1.247 . S
C127 O135 1.258 . S
O128 C126 1.247 . S
O128 Zn129 2.028 . S
Zn129 O128 2.028 . S
Zn129 O133 2.035 . S
Zn129 O135 2.035 . S
Zn129 O136 2.028 . S
O130 C126 1.258 . S
O130 Zn131 2.035 . S
Zn131 O130 2.035 . S
Zn131 O132 2.028 . S
Zn131 O134 2.028 . S
Zn131 O137 2.035 . S
O132 Zn131 2.028 . S
O132 C138 1.247 . S
O133 Zn129 2.035 . S
O133 C138 1.258 . S
O134 C127 1.247 . S
O134 Zn131 2.028 . S
O135 C127 1.258 . S
O135 Zn129 2.035 . S
O136 Zn129 2.028 . S
O136 C139 1.247 . S
O137 Zn131 2.035 . S
O137 C139 1.258 . S
C138 O132 1.247 . S
C138 O133 1.258 . S
C139 O136 1.247 . S
C139 O137 1.258 . S
C140 O142 1.247 . S
C140 O144 1.258 1_565 S
C141 O148 1.247 . S
C141 O149 1.258 1_545 S
O142 C140 1.247 . S
O142 Zn143 2.028 . S
Zn143 O142 2.028 . S
Zn143 O147 2.035 . S
Zn143 O149 2.035 . S
Zn143 O150 2.028 . S
O144 C140 1.258 1_545 S
O144 Zn145 2.035 . S
Zn145 O144 2.035 . S
Zn145 O146 2.028 . S
Zn145 O148 2.028 . S
Zn145 O151 2.035 . S
O146 Zn145 2.028 . S
O146 C152 1.247 . S
O147 Zn143 2.035 . S
O147 C152 1.258 1_565 S
O148 C141 1.247 . S
O148 Zn145 2.028 . S
O149 C141 1.258 1_565 S
O149 Zn143 2.035 . S
O150 Zn143 2.028 . S
O150 C153 1.247 . S
O151 Zn145 2.035 . S
O151 C153 1.258 1_545 S
C152 O146 1.247 . S
C152 O147 1.258 1_545 S
C153 O150 1.247 . S
C153 O151 1.258 1_565 S
C154 O156 1.247 1_556 S
C154 O158 1.258 . S
C155 O162 1.247 1_554 S
C155 O163 1.258 . S
O156 C154 1.247 1_554 S
O156 Zn157 2.028 . S
Zn157 O156 2.028 . S
Zn157 O161 2.035 . S
Zn157 O163 2.035 . S
Zn157 O164 2.028 . S
O158 C154 1.258 . S
O158 Zn159 2.035 . S
Zn159 O158 2.035 . S
Zn159 O160 2.028 . S
Zn159 O162 2.028 . S
Zn159 O165 2.035 . S
O160 Zn159 2.028 . S
O160 C166 1.247 1_556 S
O161 Zn157 2.035 . S
O161 C166 1.258 . S
O162 C155 1.247 1_556 S
O162 Zn159 2.028 . S
O163 C155 1.258 . S
O163 Zn157 2.035 . S
O164 Zn157 2.028 . S
O164 C167 1.247 1_554 S
O165 Zn159 2.035 . S
O165 C167 1.258 . S
C166 O160 1.247 1_554 S
C166 O161 1.258 . S
C167 O164 1.247 1_556 S
C167 O165 1.258 . S
Zn168 O174 1.920 . S
Zn168 O180 1.898 . S
Zn168 O183 1.905 . S
Zn169 O177 1.905 1_655 S
Zn169 O178 1.898 1_556 S
Zn169 O186 1.920 1_565 S
Zn170 O173 2.080 . S
Zn170 O176 2.114 1_554 S
Zn170 O179 2.120 1_545 S
Zn170 O181 2.120 . S
Zn170 O182 2.114 . S
Zn170 O185 2.080 1_455 S
C171 O176 1.166 1_565 S
C171 O177 1.182 . S
C172 O178 1.167 . S
C172 O179 1.299 1_655 S
O173 Zn170 2.080 . S
O173 C187 1.305 . S
O174 Zn168 1.920 . S
O174 C187 1.234 . S
C175 O180 1.167 . S
C175 O181 1.299 . S
O176 Zn170 2.114 1_556 S
O176 C171 1.166 1_545 S
O177 Zn169 1.905 1_455 S
O177 C171 1.182 . S
O178 Zn169 1.898 1_554 S
O178 C172 1.167 . S
O179 Zn170 2.120 1_565 S
O179 C172 1.299 1_455 S
O180 Zn168 1.898 . S
O180 C175 1.167 . S
O181 Zn170 2.120 . S
O181 C175 1.299 . S
O182 Zn170 2.114 . S
O182 C184 1.166 . S
O183 Zn168 1.905 . S
O183 C184 1.182 . S
C184 O182 1.166 . S
C184 O183 1.182 . S
O185 Zn170 2.080 1_655 S
O185 C188 1.305 1_554 S
O186 Zn169 1.920 1_545 S
O186 C188 1.234 . S
C187 O173 1.305 . S
C187 O174 1.234 . S
C188 O185 1.305 1_556 S
C188 O186 1.234 . S
Zn189 O195 1.920 . S
Zn189 O201 1.898 1_556 S
Zn189 O204 1.905 1_455 S
Zn190 O198 1.905 . S
Zn190 O199 1.898 . S
Zn190 O207 1.920 . S
Zn191 O194 2.080 1_655 S
Zn191 O197 2.114 . S
Zn191 O200 2.120 . S
Zn191 O202 2.120 1_655 S
Zn191 O203 2.114 1_554 S
Zn191 O206 2.080 . S
C192 O197 1.166 . S
C192 O198 1.182 . S
C193 O199 1.167 . S
C193 O200 1.299 . S
O194 Zn191 2.080 1_455 S
O194 C208 1.305 1_554 S
O195 Zn189 1.920 . S
O195 C208 1.234 . S
C196 O201 1.167 . S
C196 O202 1.299 . S
O197 Zn191 2.114 . S
O197 C192 1.166 . S
O198 Zn190 1.905 . S
O198 C192 1.182 . S
O199 Zn190 1.898 . S
O199 C193 1.167 . S
O200 Zn191 2.120 . S
O200 C193 1.299 . S
O201 Zn189 1.898 1_554 S
O201 C196 1.167 . S
O202 Zn191 2.120 1_455 S
O202 C196 1.299 . S
O203 Zn191 2.114 1_556 S
O203 C205 1.166 . S
O204 Zn189 1.905 1_655 S
O204 C205 1.182 . S
C205 O203 1.166 . S
C205 O204 1.182 . S
O206 Zn191 2.080 . S
O206 C209 1.305 . S
O207 Zn190 1.920 . S
O207 C209 1.234 . S
C208 O194 1.305 1_556 S
C208 O195 1.234 . S
C209 O206 1.305 . S
C209 O207 1.234 . S
Zn210 O216 1.920 . S
Zn210 O222 1.898 1_655 S
Zn210 O225 1.905 1_545 S
Zn211 O219 1.905 . S
Zn211 O220 1.898 . S
Zn211 O228 1.920 . S
Zn212 O215 2.083 1_565 S
Zn212 O218 2.114 . S
Zn212 O221 2.120 . S
Zn212 O223 2.120 1_565 S
Zn212 O224 2.114 1_455 S
Zn212 O227 2.080 . S
C213 O218 1.166 . S
C213 O219 1.182 . S
C214 O220 1.167 . S
C214 O221 1.299 . S
O215 Zn212 2.083 1_545 S
O215 C229 1.304 1_455 S
O216 Zn210 1.920 . S
O216 C229 1.234 . S
C217 O222 1.167 . S
C217 O223 1.299 . S
O218 Zn212 2.114 . S
O218 C213 1.166 . S
O219 Zn211 1.905 . S
O219 C213 1.182 . S
O220 Zn211 1.898 . S
O220 C214 1.167 . S
O221 Zn212 2.120 . S
O221 C214 1.299 . S
O222 Zn210 1.898 1_455 S
O222 C217 1.167 . S
O223 Zn212 2.120 1_545 S
O223 C217 1.299 . S
O224 Zn212 2.114 1_655 S
O224 C226 1.166 . S
O225 Zn210 1.905 1_565 S
O225 C226 1.182 . S
C226 O224 1.166 . S
C226 O225 1.182 . S
O227 Zn212 2.080 . S
O227 C230 1.305 . S
O228 Zn211 1.920 . S
O228 C230 1.234 . S
C229 O215 1.304 1_655 S
C229 O216 1.234 . S
C230 O227 1.305 . S
C230 O228 1.234 . S
Zn231 O237 1.920 . S
Zn231 O243 1.898 . S
Zn231 O246 1.905 . S
Zn232 O240 1.905 . S
Zn232 O241 1.898 . S
Zn232 O249 1.920 1_455 S
Zn233 O236 2.080 . S
Zn233 O239 2.114 1_655 S
Zn233 O242 2.120 1_655 S
Zn233 O244 2.120 . S
Zn233 O245 2.114 . S
Zn233 O248 2.080 . S
C234 O239 1.166 . S
C234 O240 1.182 . S
C235 O241 1.167 . S
C235 O242 1.299 . S
O236 Zn233 2.080 . S
O236 C250 1.305 . S
O237 Zn231 1.920 . S
O237 C250 1.234 . S
C238 O243 1.167 . S
C238 O244 1.299 . S
O239 Zn233 2.114 1_455 S
O239 C234 1.166 . S
O240 Zn232 1.905 . S
O240 C234 1.182 . S
O241 Zn232 1.898 . S
O241 C235 1.167 . S
O242 Zn233 2.120 1_455 S
O242 C235 1.299 . S
O243 Zn231 1.898 . S
O243 C238 1.167 . S
O244 Zn233 2.120 . S
O244 C238 1.299 . S
O245 Zn233 2.114 . S
O245 C247 1.166 . S
O246 Zn231 1.905 . S
O246 C247 1.182 . S
C247 O245 1.166 . S
C247 O246 1.182 . S
O248 Zn233 2.080 . S
O248 C251 1.305 . S
O249 Zn232 1.920 1_655 S
O249 C251 1.234 . S
C250 O236 1.305 . S
C250 O237 1.234 . S
C251 O248 1.305 . S
C251 O249 1.234 . S
Zn252 O258 1.920 . S
Zn252 O264 1.898 . S
Zn252 O267 1.905 . S
Zn253 O261 1.905 . S
Zn253 O262 1.898 . S
Zn253 O270 1.920 1_545 S
Zn254 O257 2.080 . S
Zn254 O260 2.114 1_565 S
Zn254 O263 2.120 1_565 S
Zn254 O265 2.120 . S
Zn254 O266 2.114 . S
Zn254 O269 2.080 . S
C255 O260 1.166 . S
C255 O261 1.182 . S
C256 O262 1.167 . S
C256 O263 1.299 . S
O257 Zn254 2.080 . S
O257 C271 1.305 . S
O258 Zn252 1.920 . S
O258 C271 1.234 . S
C259 O264 1.167 . S
C259 O265 1.299 . S
O260 Zn254 2.114 1_545 S
O260 C255 1.166 . S
O261 Zn253 1.905 . S
O261 C255 1.182 . S
O262 Zn253 1.898 . S
O262 C256 1.167 . S
O263 Zn254 2.120 1_545 S
O263 C256 1.299 . S
O264 Zn252 1.898 . S
O264 C259 1.167 . S
O265 Zn254 2.120 . S
O265 C259 1.299 . S
O266 Zn254 2.114 . S
O266 C268 1.166 . S
O267 Zn252 1.905 . S
O267 C268 1.182 . S
C268 O266 1.166 . S
C268 O267 1.182 . S
O269 Zn254 2.080 . S
O269 C272 1.305 . S
O270 Zn253 1.920 1_565 S
O270 C272 1.234 . S
C271 O257 1.305 . S
C271 O258 1.234 . S
C272 O269 1.305 . S
C272 O270 1.234 . S
Zn273 O279 1.920 . S
Zn273 O285 1.898 . S
Zn273 O288 1.905 . S
Zn274 O282 1.905 . S
Zn274 O283 1.898 . S
Zn274 O291 1.920 . S
Zn275 O278 2.080 . S
Zn275 O281 2.114 . S
Zn275 O284 2.120 . S
Zn275 O286 2.120 . S
Zn275 O287 2.114 . S
Zn275 O290 2.080 . S
C276 O281 1.166 . S
C276 O282 1.182 . S
C277 O283 1.167 . S
C277 O284 1.299 . S
O278 Zn275 2.080 . S
O278 C292 1.305 . S
O279 Zn273 1.920 . S
O279 C292 1.234 . S
C280 O285 1.167 . S
C280 O286 1.299 . S
O281 Zn275 2.114 . S
O281 C276 1.166 . S
O282 Zn274 1.905 . S
O282 C276 1.182 . S
O283 Zn274 1.898 . S
O283 C277 1.167 . S
O284 Zn275 2.120 . S
O284 C277 1.299 . S
O285 Zn273 1.898 . S
O285 C280 1.167 . S
O286 Zn275 2.120 . S
O286 C280 1.299 . S
O287 Zn275 2.114 . S
O287 C289 1.166 . S
O288 Zn273 1.905 . S
O288 C289 1.182 . S
C289 O287 1.166 . S
C289 O288 1.182 . S
O290 Zn275 2.080 . S
O290 C293 1.305 . S
O291 Zn274 1.920 . S
O291 C293 1.234 . S
C292 O278 1.305 . S
C292 O279 1.234 . S
C293 O290 1.305 . S
C293 O291 1.234 . S
Zn294 O300 1.920 1_554 S
Zn294 O306 1.898 . S
Zn294 O309 1.905 . S
Zn295 O303 1.905 . S
Zn295 O304 1.898 . S
Zn295 O312 1.920 . S
Zn296 O299 2.080 . S
Zn296 O302 2.114 . S
Zn296 O305 2.120 . S
Zn296 O307 2.120 1_556 S
Zn296 O308 2.114 1_556 S
Zn296 O311 2.080 . S
C297 O302 1.166 . S
C297 O303 1.182 . S
C298 O304 1.167 . S
C298 O305 1.299 . S
O299 Zn296 2.080 . S
O299 C313 1.305 . S
O300 Zn294 1.920 1_556 S
O300 C313 1.234 . S
C301 O306 1.167 . S
C301 O307 1.299 . S
O302 Zn296 2.114 . S
O302 C297 1.166 . S
O303 Zn295 1.905 . S
O303 C297 1.182 . S
O304 Zn295 1.898 . S
O304 C298 1.167 . S
O305 Zn296 2.120 . S
O305 C298 1.299 . S
O306 Zn294 1.898 . S
O306 C301 1.167 . S
O307 Zn296 2.120 1_554 S
O307 C301 1.299 . S
O308 Zn296 2.114 1_554 S
O308 C310 1.166 . S
O309 Zn294 1.905 . S
O309 C310 1.182 . S
C310 O308 1.166 . S
C310 O309 1.182 . S
O311 Zn296 2.080 . S
O311 C314 1.305 . S
O312 Zn295 1.920 . S
O312 C314 1.234 . S
C313 O299 1.305 . S
C313 O300 1.234 . S
C314 O311 1.305 . S
C314 O312 1.234 . S
Zn315 O321 1.920 . S
Zn315 O327 1.898 1_565 S
Zn315 O330 1.905 1_554 S
Zn316 O324 1.905 . S
Zn316 O325 1.898 . S
Zn316 O333 1.920 . S
Zn317 O320 2.080 1_556 S
Zn317 O323 2.114 . S
Zn317 O326 2.120 . S
Zn317 O328 2.120 1_556 S
Zn317 O329 2.114 1_545 S
Zn317 O332 2.080 . S
C318 O323 1.166 . S
C318 O324 1.182 . S
C319 O325 1.167 . S
C319 O326 1.299 . S
O320 Zn317 2.080 1_554 S
O320 C334 1.305 1_545 S
O321 Zn315 1.920 . S
O321 C334 1.234 . S
C322 O327 1.167 . S
C322 O328 1.299 . S
O323 Zn317 2.114 . S
O323 C318 1.166 . S
O324 Zn316 1.905 . S
O324 C318 1.182 . S
O325 Zn316 1.898 . S
O325 C319 1.167 . S
O326 Zn317 2.120 . S
O326 C319 1.299 . S
O327 Zn315 1.898 1_545 S
O327 C322 1.167 . S
O328 Zn317 2.120 1_554 S
O328 C322 1.299 . S
O329 Zn317 2.114 1_565 S
O329 C331 1.166 . S
O330 Zn315 1.905 1_556 S
O330 C331 1.182 . S
C331 O329 1.166 . S
C331 O330 1.182 . S
O332 Zn317 2.080 . S
O332 C335 1.305 . S
O333 Zn316 1.920 . S
O333 C335 1.234 . S
C334 O320 1.305 1_565 S
C334 O321 1.234 . S
C335 O332 1.305 . S
C335 O333 1.234 . S
C13 C229 1.786 1_455 S
C234 C1 1.804 1_455 S
C172 C27 1.754 1_655 S
C15 C196 1.726 1_655 S
C28 C334 1.780 1_545 S
C55 C301 1.756 . S
C255 C40 1.788 1_545 S
C43 C289 1.791 . S
C208 C56 1.802 1_556 S
C235 C83 1.750 . S
C96 C226 1.784 . S
C71 C292 1.765 . S
C313 C99 1.786 . S
C331 C111 1.803 . S
C113 C280 1.753 . S
C256 C125 1.727 . S
C139 C251 1.785 . S
C153 C217 1.756 1_565 S
C205 C127 1.792 . S
C141 C171 1.791 1_545 S
C272 C84 1.802 . S
C322 C154 1.746 1_554 S
C68 C310 1.784 1_556 S
C166 C188 1.762 1_554 S
C187 C0 1.032 . S
C12 C209 1.030 . S
C214 C14 1.022 . S
C247 C26 1.071 . S
C41 C184 1.073 . S
C42 C192 1.080 . S
C230 C29 1.027 . S
C54 C238 1.023 . S
C69 C175 1.029 . S
C213 C70 1.073 . S
C85 C250 1.029 . S
C82 C259 1.018 . S
C293 C110 1.032 . S
C98 C271 1.030 . S
C124 C298 1.022 . S
C112 C318 1.070 . S
C126 C276 1.074 . S
C268 C140 1.080 . S
C138 C314 1.027 . S
C319 C152 1.023 . S
C277 C97 1.029 . S
C297 C167 1.072 . S
C335 C57 1.029 . S
C155 C193 1.018 . S
