# Generated by pormake.
# Topology gar, (4,6)-cn, num edge types: 1
# Building blocks:
#     Node 0, Type 0, BuildingBlock: GALJAG_clean_sbu_0, # of connection points: 4
#     Node 1, Type 0, BuildingBlock: GALJAG_clean_sbu_0, # of connection points: 4
#     Node 2, Type 0, BuildingBlock: GALJAG_clean_sbu_0, # of connection points: 4
#     Node 3, Type 0, BuildingBlock: GALJAG_clean_sbu_0, # of connection points: 4
#     Node 4, Type 0, BuildingBlock: GALJAG_clean_sbu_0, # of connection points: 4
#     Node 5, Type 0, BuildingBlock: GALJAG_clean_sbu_0, # of connection points: 4
#     Node 6, Type 0, BuildingBlock: GALJAG_clean_sbu_0, # of connection points: 4
#     Node 7, Type 0, BuildingBlock: GALJAG_clean_sbu_0, # of connection points: 4
#     Node 8, Type 0, BuildingBlock: GALJAG_clean_sbu_0, # of connection points: 4
#     Node 9, Type 0, BuildingBlock: GALJAG_clean_sbu_0, # of connection points: 4
#     Node 10, Type 0, BuildingBlock: GALJAG_clean_sbu_0, # of connection points: 4
#     Node 11, Type 0, BuildingBlock: GALJAG_clean_sbu_0, # of connection points: 4
#     Node 12, Type 0, BuildingBlock: GALJAG_clean_sbu_0, # of connection points: 4
#     Node 13, Type 0, BuildingBlock: GALJAG_clean_sbu_0, # of connection points: 4
#     Node 14, Type 0, BuildingBlock: GALJAG_clean_sbu_0, # of connection points: 4
#     Node 15, Type 0, BuildingBlock: GALJAG_clean_sbu_0, # of connection points: 4
#     Node 16, Type 0, BuildingBlock: GALJAG_clean_sbu_0, # of connection points: 4
#     Node 17, Type 0, BuildingBlock: GALJAG_clean_sbu_0, # of connection points: 4
#     Node 18, Type 0, BuildingBlock: GALJAG_clean_sbu_0, # of connection points: 4
#     Node 19, Type 0, BuildingBlock: GALJAG_clean_sbu_0, # of connection points: 4
#     Node 20, Type 0, BuildingBlock: GALJAG_clean_sbu_0, # of connection points: 4
#     Node 21, Type 0, BuildingBlock: GALJAG_clean_sbu_0, # of connection points: 4
#     Node 22, Type 0, BuildingBlock: GALJAG_clean_sbu_0, # of connection points: 4
#     Node 23, Type 0, BuildingBlock: GALJAG_clean_sbu_0, # of connection points: 4
#     Node 24, Type 1, BuildingBlock: MIFKUJ_clean_sbu_0, # of connection points: 6
#     Node 25, Type 1, BuildingBlock: MIFKUJ_clean_sbu_0, # of connection points: 6
#     Node 26, Type 1, BuildingBlock: MIFKUJ_clean_sbu_0, # of connection points: 6
#     Node 27, Type 1, BuildingBlock: MIFKUJ_clean_sbu_0, # of connection points: 6
#     Node 28, Type 1, BuildingBlock: MIFKUJ_clean_sbu_0, # of connection points: 6
#     Node 29, Type 1, BuildingBlock: MIFKUJ_clean_sbu_0, # of connection points: 6
#     Node 30, Type 1, BuildingBlock: MIFKUJ_clean_sbu_0, # of connection points: 6
#     Node 31, Type 1, BuildingBlock: MIFKUJ_clean_sbu_0, # of connection points: 6
#     Node 32, Type 1, BuildingBlock: MIFKUJ_clean_sbu_0, # of connection points: 6
#     Node 33, Type 1, BuildingBlock: MIFKUJ_clean_sbu_0, # of connection points: 6
#     Node 34, Type 1, BuildingBlock: MIFKUJ_clean_sbu_0, # of connection points: 6
#     Node 35, Type 1, BuildingBlock: MIFKUJ_clean_sbu_0, # of connection points: 6
#     Node 36, Type 1, BuildingBlock: MIFKUJ_clean_sbu_0, # of connection points: 6
#     Node 37, Type 1, BuildingBlock: MIFKUJ_clean_sbu_0, # of connection points: 6
#     Node 38, Type 1, BuildingBlock: MIFKUJ_clean_sbu_0, # of connection points: 6
#     Node 39, Type 1, BuildingBlock: MIFKUJ_clean_sbu_0, # of connection points: 6
#     Edge 40, Type (0, 1), BuildingBlock: AJUNOK_clean_linker_0, # of connection points: 2
#     Edge 41, Type (0, 1), BuildingBlock: AJUNOK_clean_linker_0, # of connection points: 2
#     Edge 42, Type (0, 1), BuildingBlock: AJUNOK_clean_linker_0, # of connection points: 2
#     Edge 43, Type (0, 1), BuildingBlock: AJUNOK_clean_linker_0, # of connection points: 2
#     Edge 44, Type (0, 1), BuildingBlock: AJUNOK_clean_linker_0, # of connection points: 2
#     Edge 45, Type (0, 1), BuildingBlock: AJUNOK_clean_linker_0, # of connection points: 2
#     Edge 46, Type (0, 1), BuildingBlock: AJUNOK_clean_linker_0, # of connection points: 2
#     Edge 47, Type (0, 1), BuildingBlock: AJUNOK_clean_linker_0, # of connection points: 2
#     Edge 48, Type (0, 1), BuildingBlock: AJUNOK_clean_linker_0, # of connection points: 2
#     Edge 49, Type (0, 1), BuildingBlock: AJUNOK_clean_linker_0, # of connection points: 2
#     Edge 50, Type (0, 1), BuildingBlock: AJUNOK_clean_linker_0, # of connection points: 2
#     Edge 51, Type (0, 1), BuildingBlock: AJUNOK_clean_linker_0, # of connection points: 2
#     Edge 52, Type (0, 1), BuildingBlock: AJUNOK_clean_linker_0, # of connection points: 2
#     Edge 53, Type (0, 1), BuildingBlock: AJUNOK_clean_linker_0, # of connection points: 2
#     Edge 54, Type (0, 1), BuildingBlock: AJUNOK_clean_linker_0, # of connection points: 2
#     Edge 55, Type (0, 1), BuildingBlock: AJUNOK_clean_linker_0, # of connection points: 2
#     Edge 56, Type (0, 1), BuildingBlock: AJUNOK_clean_linker_0, # of connection points: 2
#     Edge 57, Type (0, 1), BuildingBlock: AJUNOK_clean_linker_0, # of connection points: 2
#     Edge 58, Type (0, 1), BuildingBlock: AJUNOK_clean_linker_0, # of connection points: 2
#     Edge 59, Type (0, 1), BuildingBlock: AJUNOK_clean_linker_0, # of connection points: 2
#     Edge 60, Type (0, 1), BuildingBlock: AJUNOK_clean_linker_0, # of connection points: 2
#     Edge 61, Type (0, 1), BuildingBlock: AJUNOK_clean_linker_0, # of connection points: 2
#     Edge 62, Type (0, 1), BuildingBlock: AJUNOK_clean_linker_0, # of connection points: 2
#     Edge 63, Type (0, 1), BuildingBlock: AJUNOK_clean_linker_0, # of connection points: 2
#     Edge 64, Type (0, 1), BuildingBlock: AJUNOK_clean_linker_0, # of connection points: 2
#     Edge 65, Type (0, 1), BuildingBlock: AJUNOK_clean_linker_0, # of connection points: 2
#     Edge 66, Type (0, 1), BuildingBlock: AJUNOK_clean_linker_0, # of connection points: 2
#     Edge 67, Type (0, 1), BuildingBlock: AJUNOK_clean_linker_0, # of connection points: 2
#     Edge 68, Type (0, 1), BuildingBlock: AJUNOK_clean_linker_0, # of connection points: 2
#     Edge 69, Type (0, 1), BuildingBlock: AJUNOK_clean_linker_0, # of connection points: 2
#     Edge 70, Type (0, 1), BuildingBlock: AJUNOK_clean_linker_0, # of connection points: 2
#     Edge 71, Type (0, 1), BuildingBlock: AJUNOK_clean_linker_0, # of connection points: 2
#     Edge 72, Type (0, 1), BuildingBlock: AJUNOK_clean_linker_0, # of connection points: 2
#     Edge 73, Type (0, 1), BuildingBlock: AJUNOK_clean_linker_0, # of connection points: 2
#     Edge 74, Type (0, 1), BuildingBlock: AJUNOK_clean_linker_0, # of connection points: 2
#     Edge 75, Type (0, 1), BuildingBlock: AJUNOK_clean_linker_0, # of connection points: 2
#     Edge 76, Type (0, 1), BuildingBlock: AJUNOK_clean_linker_0, # of connection points: 2
#     Edge 77, Type (0, 1), BuildingBlock: AJUNOK_clean_linker_0, # of connection points: 2
#     Edge 78, Type (0, 1), BuildingBlock: AJUNOK_clean_linker_0, # of connection points: 2
#     Edge 79, Type (0, 1), BuildingBlock: AJUNOK_clean_linker_0, # of connection points: 2
#     Edge 80, Type (0, 1), BuildingBlock: AJUNOK_clean_linker_0, # of connection points: 2
#     Edge 81, Type (0, 1), BuildingBlock: AJUNOK_clean_linker_0, # of connection points: 2
#     Edge 82, Type (0, 1), BuildingBlock: AJUNOK_clean_linker_0, # of connection points: 2
#     Edge 83, Type (0, 1), BuildingBlock: AJUNOK_clean_linker_0, # of connection points: 2
#     Edge 84, Type (0, 1), BuildingBlock: AJUNOK_clean_linker_0, # of connection points: 2
#     Edge 85, Type (0, 1), BuildingBlock: AJUNOK_clean_linker_0, # of connection points: 2
#     Edge 86, Type (0, 1), BuildingBlock: AJUNOK_clean_linker_0, # of connection points: 2
#     Edge 87, Type (0, 1), BuildingBlock: AJUNOK_clean_linker_0, # of connection points: 2
#     Edge 88, Type (0, 1), BuildingBlock: AJUNOK_clean_linker_0, # of connection points: 2
#     Edge 89, Type (0, 1), BuildingBlock: AJUNOK_clean_linker_0, # of connection points: 2
#     Edge 90, Type (0, 1), BuildingBlock: AJUNOK_clean_linker_0, # of connection points: 2
#     Edge 91, Type (0, 1), BuildingBlock: AJUNOK_clean_linker_0, # of connection points: 2
#     Edge 92, Type (0, 1), BuildingBlock: AJUNOK_clean_linker_0, # of connection points: 2
#     Edge 93, Type (0, 1), BuildingBlock: AJUNOK_clean_linker_0, # of connection points: 2
#     Edge 94, Type (0, 1), BuildingBlock: AJUNOK_clean_linker_0, # of connection points: 2
#     Edge 95, Type (0, 1), BuildingBlock: AJUNOK_clean_linker_0, # of connection points: 2
#     Edge 96, Type (0, 1), BuildingBlock: AJUNOK_clean_linker_0, # of connection points: 2
#     Edge 97, Type (0, 1), BuildingBlock: AJUNOK_clean_linker_0, # of connection points: 2
#     Edge 98, Type (0, 1), BuildingBlock: AJUNOK_clean_linker_0, # of connection points: 2
#     Edge 99, Type (0, 1), BuildingBlock: AJUNOK_clean_linker_0, # of connection points: 2
#     Edge 100, Type (0, 1), BuildingBlock: AJUNOK_clean_linker_0, # of connection points: 2
#     Edge 101, Type (0, 1), BuildingBlock: AJUNOK_clean_linker_0, # of connection points: 2
#     Edge 102, Type (0, 1), BuildingBlock: AJUNOK_clean_linker_0, # of connection points: 2
#     Edge 103, Type (0, 1), BuildingBlock: AJUNOK_clean_linker_0, # of connection points: 2
#     Edge 104, Type (0, 1), BuildingBlock: AJUNOK_clean_linker_0, # of connection points: 2
#     Edge 105, Type (0, 1), BuildingBlock: AJUNOK_clean_linker_0, # of connection points: 2
#     Edge 106, Type (0, 1), BuildingBlock: AJUNOK_clean_linker_0, # of connection points: 2
#     Edge 107, Type (0, 1), BuildingBlock: AJUNOK_clean_linker_0, # of connection points: 2
#     Edge 108, Type (0, 1), BuildingBlock: AJUNOK_clean_linker_0, # of connection points: 2
#     Edge 109, Type (0, 1), BuildingBlock: AJUNOK_clean_linker_0, # of connection points: 2
#     Edge 110, Type (0, 1), BuildingBlock: AJUNOK_clean_linker_0, # of connection points: 2
#     Edge 111, Type (0, 1), BuildingBlock: AJUNOK_clean_linker_0, # of connection points: 2
#     Edge 112, Type (0, 1), BuildingBlock: AJUNOK_clean_linker_0, # of connection points: 2
#     Edge 113, Type (0, 1), BuildingBlock: AJUNOK_clean_linker_0, # of connection points: 2
#     Edge 114, Type (0, 1), BuildingBlock: AJUNOK_clean_linker_0, # of connection points: 2
#     Edge 115, Type (0, 1), BuildingBlock: AJUNOK_clean_linker_0, # of connection points: 2
#     Edge 116, Type (0, 1), BuildingBlock: AJUNOK_clean_linker_0, # of connection points: 2
#     Edge 117, Type (0, 1), BuildingBlock: AJUNOK_clean_linker_0, # of connection points: 2
#     Edge 118, Type (0, 1), BuildingBlock: AJUNOK_clean_linker_0, # of connection points: 2
#     Edge 119, Type (0, 1), BuildingBlock: AJUNOK_clean_linker_0, # of connection points: 2
#     Edge 120, Type (0, 1), BuildingBlock: AJUNOK_clean_linker_0, # of connection points: 2
#     Edge 121, Type (0, 1), BuildingBlock: AJUNOK_clean_linker_0, # of connection points: 2
#     Edge 122, Type (0, 1), BuildingBlock: AJUNOK_clean_linker_0, # of connection points: 2
#     Edge 123, Type (0, 1), BuildingBlock: AJUNOK_clean_linker_0, # of connection points: 2
#     Edge 124, Type (0, 1), BuildingBlock: AJUNOK_clean_linker_0, # of connection points: 2
#     Edge 125, Type (0, 1), BuildingBlock: AJUNOK_clean_linker_0, # of connection points: 2
#     Edge 126, Type (0, 1), BuildingBlock: AJUNOK_clean_linker_0, # of connection points: 2
#     Edge 127, Type (0, 1), BuildingBlock: AJUNOK_clean_linker_0, # of connection points: 2
#     Edge 128, Type (0, 1), BuildingBlock: AJUNOK_clean_linker_0, # of connection points: 2
#     Edge 129, Type (0, 1), BuildingBlock: AJUNOK_clean_linker_0, # of connection points: 2
#     Edge 130, Type (0, 1), BuildingBlock: AJUNOK_clean_linker_0, # of connection points: 2
#     Edge 131, Type (0, 1), BuildingBlock: AJUNOK_clean_linker_0, # of connection points: 2
#     Edge 132, Type (0, 1), BuildingBlock: AJUNOK_clean_linker_0, # of connection points: 2
#     Edge 133, Type (0, 1), BuildingBlock: AJUNOK_clean_linker_0, # of connection points: 2
#     Edge 134, Type (0, 1), BuildingBlock: AJUNOK_clean_linker_0, # of connection points: 2
#     Edge 135, Type (0, 1), BuildingBlock: AJUNOK_clean_linker_0, # of connection points: 2
# Relax obj value: 0.126
# Max RMSD: 0.302
# Mean RMSD: 0.156
data_MOF--net-gar--node1-GALJAG_clean_sbu_0--node2-MIFKUJ_clean_sbu_0--edge1-AJUNOK_clean_linker_0
_symmetry_space_group_name_H-M    P1
_symmetry_Int_Tables_number       1
_symmetry_cell_setting            triclinic
loop_
_symmetry_equiv_pos_as_xyz
'x, y, z'
_cell_length_a     42.598604
_cell_length_b     42.606083
_cell_length_c     40.475006
_cell_angle_alpha  94.868368
_cell_angle_beta   94.798519
_cell_angle_gamma 99.520998
loop_
_atom_site_label
_atom_site_type_symbol
_atom_site_fract_x
_atom_site_fract_y
_atom_site_fract_z
_atom_type_partial_charge
In0 In 0.03807 0.28536 0.41145 0.0
O1 O 0.05294 0.25726 0.36649 0.0
O2 O 0.08818 0.2932 0.39404 0.0
C3 C 0.98121 0.29055 0.38008 0.0
C4 C 0.03313 0.23378 0.44653 0.0
C5 C 0.05065 0.34443 0.44535 0.0
O6 O 0.00504 0.2876 0.36425 0.0
O7 O 0.98627 0.29048 0.41118 0.0
O8 O 0.04453 0.31925 0.45968 0.0
O9 O 0.05222 0.33955 0.41442 0.0
C10 C 0.0816 0.27154 0.36995 0.0
O11 O 0.05898 0.25318 0.44681 0.0
O12 O 0.00976 0.24055 0.42914 0.0
In13 In 0.00759 0.75193 0.64477 0.0
O14 O 0.00364 0.7823 0.6014 0.0
O15 O 0.02696 0.80504 0.64786 0.0
C16 C 0.9977 0.6934 0.61051 0.0
C17 C 0.06745 0.75408 0.67205 0.0
C18 C 0.95564 0.75811 0.67711 0.0
O19 O 0.99938 0.71877 0.59635 0.0
O20 O 0.99934 0.69756 0.64188 0.0
O21 O 0.98022 0.75029 0.69146 0.0
O22 O 0.95707 0.76148 0.64662 0.0
C23 C 0.01828 0.8078 0.61784 0.0
O24 O 0.04472 0.75696 0.68961 0.0
O25 O 0.05965 0.74976 0.64106 0.0
In26 In 0.5275 0.781 0.91485 0.0
O27 O 0.54966 0.76865 0.86728 0.0
O28 O 0.58102 0.78598 0.91114 0.0
C29 C 0.4729 0.78416 0.8775 0.0
C30 C 0.52533 0.72548 0.94232 0.0
C31 C 0.53546 0.83663 0.95438 0.0
O32 O 0.4997 0.79927 0.87209 0.0
O33 O 0.47372 0.76777 0.90193 0.0
O34 O 0.51512 0.81255 0.95856 0.0
O35 O 0.55228 0.83236 0.93073 0.0
C36 C 0.57809 0.77577 0.88061 0.0
O37 O 0.52991 0.7519 0.96017 0.0
O38 O 0.52136 0.72733 0.91147 0.0
In39 In 0.51355 0.24883 0.14627 0.0
O40 O 0.49869 0.21677 0.09696 0.0
O41 O 0.51511 0.19605 0.13973 0.0
C42 C 0.52739 0.3021 0.1153 0.0
C43 C 0.45993 0.25027 0.17765 0.0
C44 C 0.57131 0.25298 0.18049 0.0
O45 O 0.51297 0.27599 0.09995 0.0
O46 O 0.5347 0.30106 0.14597 0.0
O47 O 0.54875 0.26414 0.19302 0.0
O48 O 0.56462 0.24009 0.15099 0.0
C49 C 0.50582 0.19224 0.10905 0.0
O50 O 0.48102 0.23452 0.18697 0.0
O51 O 0.4658 0.26484 0.15252 0.0
In52 In 0.04189 0.78085 0.16289 0.0
O53 O 0.0252 0.74473 0.11707 0.0
O54 O 0.05634 0.7323 0.1558 0.0
C55 C 0.03579 0.83301 0.13079 0.0
C56 C 0.98993 0.76886 0.19628 0.0
C57 C 0.09993 0.79101 0.19791 0.0
O58 O 0.0482 0.81046 0.1183 0.0
O59 O 0.02652 0.82904 0.15908 0.0
O60 O 0.07452 0.78318 0.21135 0.0
O61 O 0.09581 0.79526 0.16751 0.0
C62 C 0.04061 0.72408 0.12774 0.0
O63 O 0.01301 0.79119 0.20621 0.0
O64 O 0.99317 0.75262 0.16967 0.0
In65 In 0.5073 0.75573 0.4014 0.0
O66 O 0.53682 0.73572 0.3628 0.0
O67 O 0.55561 0.78124 0.38846 0.0
C68 C 0.45159 0.74678 0.36227 0.0
C69 C 0.51615 0.70908 0.44052 0.0
C70 C 0.50033 0.81122 0.43507 0.0
O71 O 0.47799 0.75887 0.3529 0.0
O72 O 0.45323 0.73745 0.39108 0.0
O73 O 0.50586 0.78763 0.45002 0.0
O74 O 0.4989 0.80674 0.40385 0.0
C75 C 0.55929 0.75943 0.36686 0.0
O76 O 0.5324 0.73692 0.44567 0.0
O77 O 0.49515 0.70497 0.41585 0.0
In78 In 0.53892 0.27547 0.661 0.0
O79 O 0.51983 0.2389 0.61576 0.0
O80 O 0.55825 0.23005 0.64835 0.0
C81 C 0.53529 0.32674 0.62676 0.0
C82 C 0.48752 0.26824 0.69587 0.0
C83 C 0.5924 0.2841 0.7038 0.0
O84 O 0.55369 0.30727 0.61979 0.0
O85 O 0.51904 0.3201 0.65058 0.0
O86 O 0.56729 0.26497 0.70739 0.0
O87 O 0.59031 0.30004 0.67903 0.0
C88 C 0.53895 0.22023 0.62291 0.0
O89 O 0.51167 0.28982 0.70399 0.0
O90 O 0.48941 0.24991 0.67021 0.0
In91 In 0.00605 0.2528 0.89416 0.0
O92 O 0.03395 0.23474 0.93724 0.0
O93 O 0.99319 0.20362 0.91235 0.0
C94 C 0.00575 0.31065 0.92623 0.0
C95 C 0.0565 0.25521 0.85773 0.0
C96 C 0.9468 0.2451 0.86152 0.0
O97 O 0.00727 0.28639 0.94177 0.0
O98 O 0.00492 0.30552 0.89502 0.0
O99 O 0.97139 0.24548 0.84606 0.0
O100 O 0.9522 0.2463 0.89273 0.0
C101 C 0.01605 0.2078 0.93512 0.0
O102 O 0.03535 0.23049 0.8566 0.0
O103 O 0.05165 0.27869 0.87648 0.0
In104 In 0.40187 0.02962 0.29512 0.0
O105 O 0.44755 0.03542 0.26836 0.0
O106 O 0.40296 0.01902 0.23963 0.0
C107 C 0.43316 0.03951 0.35652 0.0
C108 C 0.36627 0.07505 0.2837 0.0
C109 C 0.37142 0.96993 0.29907 0.0
O110 O 0.44754 0.04337 0.33074 0.0
O111 O 0.40304 0.03308 0.3512 0.0
O112 O 0.35706 0.99344 0.29862 0.0
O113 O 0.40124 0.97643 0.2979 0.0
C114 C 0.43281 0.02623 0.24001 0.0
O115 O 0.35774 0.04607 0.27316 0.0
O116 O 0.39332 0.08165 0.30048 0.0
In117 In 0.26207 0.13873 0.50618 0.0
O118 O 0.27361 0.183 0.54582 0.0
O119 O 0.27042 0.13676 0.56197 0.0
C120 C 0.26243 0.17361 0.45226 0.0
C121 C 0.31315 0.1079 0.50801 0.0
C122 C 0.2008 0.10622 0.50273 0.0
O123 O 0.25507 0.18374 0.48031 0.0
O124 O 0.26962 0.14598 0.45133 0.0
O125 O 0.22187 0.09547 0.48715 0.0
O126 O 0.21043 0.13332 0.51846 0.0
C127 C 0.27511 0.16642 0.57019 0.0
O128 O 0.28553 0.09458 0.51327 0.0
O129 O 0.31492 0.13635 0.5007 0.0
In130 In 0.15119 0.03166 0.80491 0.0
O131 O 0.10759 0.02156 0.76541 0.0
O132 O 0.15396 0.02896 0.74883 0.0
C133 C 0.11646 0.03004 0.85908 0.0
C134 C 0.17896 0.97851 0.80042 0.0
C135 C 0.18478 0.09232 0.8079 0.0
O136 O 0.10599 0.03718 0.83117 0.0
O137 O 0.14443 0.02387 0.85981 0.0
O138 O 0.19614 0.07041 0.82133 0.0
O139 O 0.15657 0.08385 0.79448 0.0
C140 C 0.12413 0.02338 0.74089 0.0
O141 O 0.19501 0.00618 0.80859 0.0
O142 O 0.14917 0.97777 0.79558 0.0
In143 In 0.26505 0.88939 0.01721 0.0
O144 O 0.24093 0.85976 0.05436 0.0
O145 O 0.29194 0.87096 0.06017 0.0
C146 C 0.25797 0.8446 0.96475 0.0
C147 C 0.22142 0.92727 0.02813 0.0
C148 C 0.32035 0.92961 0.01671 0.0
O149 O 0.27749 0.84543 0.98994 0.0
O150 O 0.2409 0.86614 0.96617 0.0
O151 O 0.30318 0.91785 0.99019 0.0
O152 O 0.30891 0.92178 0.04319 0.0
C153 C 0.2667 0.85772 0.07113 0.0
O154 O 0.24483 0.93553 0.01178 0.0
O155 O 0.21937 0.89962 0.03732 0.0
In156 In 0.27966 0.39186 0.05743 0.0
O157 O 0.2727 0.34377 0.08032 0.0
O158 O 0.28045 0.3858 0.11377 0.0
C159 C 0.27652 0.36821 0.99216 0.0
C160 C 0.22562 0.41837 0.05827 0.0
C161 C 0.34066 0.42523 0.06179 0.0
O162 O 0.27607 0.35036 0.01554 0.0
O163 O 0.27801 0.39735 0.00183 0.0
O164 O 0.31645 0.43874 0.06109 0.0
O165 O 0.3341 0.39527 0.06192 0.0
C166 C 0.27531 0.35557 0.11028 0.0
O167 O 0.253 0.43405 0.06852 0.0
O168 O 0.22557 0.38946 0.04843 0.0
In169 In 0.77959 0.14772 0.04446 0.0
O170 O 0.80621 0.10533 0.047 0.0
O171 O 0.83258 0.15127 0.04196 0.0
C172 C 0.72089 0.11147 0.03527 0.0
C173 C 0.78959 0.18851 0.09972 0.0
C174 C 0.77564 0.17865 0.99039 0.0
O175 O 0.74017 0.11321 0.01341 0.0
O176 O 0.73199 0.12611 0.06325 0.0
O177 O 0.7651 0.18815 0.01698 0.0
O178 O 0.78832 0.154 0.99155 0.0
C179 C 0.83297 0.12199 0.04369 0.0
O180 O 0.7852 0.19749 0.07108 0.0
O181 O 0.78892 0.15877 0.10041 0.0
In182 In 0.1413 0.51025 0.26064 0.0
O183 O 0.17444 0.47744 0.24151 0.0
O184 O 0.15747 0.47053 0.28853 0.0
C185 C 0.16919 0.5723 0.26491 0.0
C186 C 0.10521 0.49543 0.20194 0.0
C187 C 0.10705 0.51497 0.31261 0.0
O188 O 0.1855 0.55049 0.26912 0.0
O189 O 0.1398 0.56244 0.25724 0.0
O190 O 0.09417 0.50477 0.28359 0.0
O191 O 0.13719 0.52201 0.31529 0.0
C192 C 0.17363 0.46131 0.2662 0.0
O193 O 0.0956 0.48616 0.22874 0.0
O194 O 0.13327 0.51126 0.20486 0.0
In195 In 0.77799 0.8926 0.55432 0.0
O196 O 0.78476 0.84835 0.58124 0.0
O197 O 0.76517 0.88413 0.60764 0.0
C198 C 0.77101 0.85865 0.49363 0.0
C199 C 0.72472 0.92049 0.54805 0.0
C200 C 0.83866 0.92739 0.5568 0.0
O201 O 0.77051 0.84561 0.52044 0.0
O202 O 0.77365 0.8887 0.49742 0.0
O203 O 0.81762 0.93732 0.57315 0.0
O204 O 0.82951 0.89993 0.54185 0.0
C205 C 0.77252 0.85659 0.60714 0.0
O206 O 0.75267 0.93637 0.5493 0.0
O207 O 0.72382 0.89098 0.54996 0.0
In208 In 0.90121 0.01332 0.25578 0.0
O209 O 0.94887 0.0218 0.23257 0.0
O210 O 0.90656 0.0143 0.19946 0.0
C211 C 0.93243 0.0102 0.31663 0.0
C212 C 0.87857 0.06977 0.25916 0.0
C213 C 0.86149 0.95509 0.24985 0.0
O214 O 0.9441 0.00388 0.28975 0.0
O215 O 0.90523 0.01804 0.31273 0.0
O216 O 0.85414 0.98019 0.26351 0.0
O217 O 0.88827 0.95957 0.2383 0.0
C218 C 0.93684 0.01964 0.20275 0.0
O219 O 0.86123 0.04357 0.24746 0.0
O220 O 0.90704 0.06742 0.26826 0.0
In221 In 0.28667 0.65366 0.55079 0.0
O222 O 0.31305 0.6111 0.54892 0.0
O223 O 0.33692 0.65508 0.53526 0.0
C224 C 0.22606 0.62308 0.55147 0.0
C225 C 0.29986 0.68496 0.61223 0.0
C226 C 0.27517 0.68379 0.49689 0.0
O227 O 0.24806 0.60869 0.54252 0.0
O228 O 0.235 0.65242 0.56078 0.0
O229 O 0.28693 0.69869 0.52456 0.0
O230 O 0.26984 0.65375 0.49645 0.0
C231 C 0.33781 0.62614 0.53867 0.0
O232 O 0.30142 0.6992 0.58623 0.0
O233 O 0.29335 0.65485 0.60704 0.0
In234 In 0.40116 0.51006 0.7545 0.0
O235 O 0.35672 0.53518 0.75419 0.0
O236 O 0.40253 0.56395 0.75787 0.0
C237 C 0.35902 0.45476 0.75701 0.0
C238 C 0.43744 0.51226 0.70162 0.0
C239 C 0.43789 0.51016 0.81259 0.0
O240 O 0.36738 0.47591 0.78124 0.0
O241 O 0.37071 0.46194 0.73037 0.0
O242 O 0.43134 0.4862 0.79108 0.0
O243 O 0.42715 0.53451 0.80416 0.0
C244 C 0.37279 0.56311 0.75697 0.0
O245 O 0.44892 0.51167 0.73123 0.0
O246 O 0.40745 0.51061 0.69842 0.0
In247 In 0.64982 0.01037 0.76573 0.0
O248 O 0.68374 0.9768 0.74891 0.0
O249 O 0.67749 0.9825 0.80021 0.0
C250 C 0.67655 0.07251 0.77222 0.0
C251 C 0.61379 0.00143 0.70652 0.0
C252 C 0.61036 0.00917 0.81399 0.0
O253 O 0.69359 0.05096 0.76919 0.0
O254 O 0.64693 0.06247 0.77084 0.0
O255 O 0.60744 0.98663 0.79093 0.0
O256 O 0.6335 0.03155 0.81303 0.0
C257 C 0.69064 0.96898 0.77766 0.0
O258 O 0.6065 0.98493 0.73005 0.0
O259 O 0.64002 0.02049 0.71223 0.0
In260 In 0.75916 0.64035 0.99867 0.0
O261 O 0.7854 0.59745 0.00352 0.0
O262 O 0.8129 0.64214 0.9968 0.0
C263 C 0.69826 0.60778 0.9952 0.0
C264 C 0.76583 0.66711 0.06282 0.0
C265 C 0.75988 0.67199 0.94243 0.0
O266 O 0.72091 0.59518 0.98486 0.0
O267 O 0.70608 0.63705 0.00562 0.0
O268 O 0.76472 0.68635 0.9715 0.0
O269 O 0.75425 0.64188 0.94185 0.0
C270 C 0.81276 0.61318 0.00112 0.0
O271 O 0.76788 0.68388 0.03852 0.0
O272 O 0.76063 0.63741 0.05459 0.0
In273 In 0.90785 0.52757 0.79714 0.0
O274 O 0.86205 0.54602 0.78338 0.0
O275 O 0.90498 0.58008 0.79228 0.0
C276 C 0.87413 0.46953 0.8028 0.0
C277 C 0.93412 0.52234 0.73945 0.0
C278 C 0.94282 0.53682 0.857 0.0
O279 O 0.86423 0.49507 0.81103 0.0
O280 O 0.90141 0.47335 0.79229 0.0
O281 O 0.95447 0.52945 0.83041 0.0
O282 O 0.91426 0.54122 0.85308 0.0
C283 C 0.87514 0.5748 0.7841 0.0
O284 O 0.95045 0.53476 0.76623 0.0
O285 O 0.90488 0.51285 0.74195 0.0
In286 In 0.76315 0.38912 0.5092 0.0
O287 O 0.77745 0.34929 0.53906 0.0
O288 O 0.75221 0.38245 0.56209 0.0
C289 C 0.74597 0.35439 0.44975 0.0
C290 C 0.72167 0.42864 0.52261 0.0
C291 C 0.82377 0.41846 0.50586 0.0
O292 O 0.74143 0.34272 0.47689 0.0
O293 O 0.75669 0.38403 0.45275 0.0
O294 O 0.80055 0.43329 0.50435 0.0
O295 O 0.81641 0.38909 0.50892 0.0
C296 C 0.76544 0.35841 0.56477 0.0
O297 O 0.75145 0.43616 0.53026 0.0
O298 O 0.71261 0.4011 0.50702 0.0
In299 In 0.65406 0.53322 0.30487 0.0
O300 O 0.6977 0.50755 0.30421 0.0
O301 O 0.65139 0.47923 0.29783 0.0
C302 C 0.68696 0.59403 0.30937 0.0
C303 C 0.62635 0.52668 0.24122 0.0
C304 C 0.62117 0.5315 0.3601 0.0
O305 O 0.7001 0.57093 0.31752 0.0
O306 O 0.65733 0.58655 0.30077 0.0
O307 O 0.60943 0.53733 0.33211 0.0
O308 O 0.64975 0.52703 0.3605 0.0
C309 C 0.68116 0.47981 0.29912 0.0
O310 O 0.61096 0.51801 0.2652 0.0
O311 O 0.65536 0.53847 0.24946 0.0
Zn312 Zn 0.06119 0.01211 0.05331 0.0
Zn313 Zn 1.00024 0.04488 0.01963 0.0
C314 C 0.0422 0.95803 0.08547 0.0
O315 O 0.05322 0.97977 0.11051 0.0
C316 C 0.04299 0.10593 0.0138 0.0
O317 O 0.06429 0.09044 0.00167 0.0
O318 O 0.10744 0.01081 0.06675 0.0
O319 O 0.06203 0.02048 0.00439 0.0
O320 O 0.01714 0.02822 0.9777 0.0
C321 C 0.11577 0.99051 0.04582 0.0
O322 O 0.09472 0.975 0.02202 0.0
O323 O 0.0412 0.96613 0.05596 0.0
C324 C 0.94784 0.06798 0.03541 0.0
O325 O 0.96921 0.07703 0.06119 0.0
O326 O 0.95472 0.05088 0.01061 0.0
O327 O 0.99591 0.01828 0.05873 0.0
O328 O 0.04108 0.03829 0.08816 0.0
O329 O 0.02191 0.09149 0.03031 0.0
C330 C 0.04592 0.02385 0.97743 0.0
C331 C 0.011 0.02903 0.08681 0.0
Zn332 Zn 0.26445 0.76436 0.31551 0.0
Zn333 Zn 0.28477 0.7771 0.25306 0.0
C334 C 0.22249 0.70665 0.29998 0.0
O335 O 0.20582 0.72491 0.31643 0.0
C336 C 0.32024 0.8369 0.27558 0.0
O337 O 0.33902 0.82441 0.25606 0.0
O338 O 0.25692 0.76133 0.36323 0.0
O339 O 0.31293 0.7769 0.31804 0.0
O340 O 0.31711 0.75105 0.26978 0.0
C341 C 0.27089 0.73933 0.3734 0.0
O342 O 0.28764 0.72459 0.35331 0.0
O343 O 0.25098 0.71834 0.29513 0.0
C344 C 0.27282 0.8084 0.19946 0.0
O345 O 0.25618 0.81909 0.22244 0.0
O346 O 0.29038 0.78799 0.20648 0.0
O347 O 0.2385 0.75795 0.24947 0.0
O348 O 0.23274 0.78919 0.29323 0.0
O349 O 0.29341 0.82061 0.27979 0.0
C350 C 0.32881 0.7615 0.29929 0.0
C351 C 0.22163 0.77519 0.26461 0.0
Zn352 Zn 0.48376 0.02749 0.54469 0.0
Zn353 Zn 0.55174 0.99964 0.52123 0.0
C354 C 0.51307 0.0865 0.57745 0.0
O355 O 0.50355 0.07075 0.60235 0.0
C356 C 0.52246 0.9421 0.48696 0.0
O357 O 0.53421 0.95874 0.46359 0.0
O358 O 0.43722 0.03528 0.5448 0.0
O359 O 0.48771 0.00323 0.50129 0.0
O360 O 0.53347 0.02242 0.48359 0.0
C361 C 0.43053 0.0544 0.52359 0.0
O362 O 0.45277 0.06532 0.50482 0.0
O363 O 0.50874 0.07233 0.54813 0.0
C364 C 0.60552 0.97227 0.5399 0.0
O365 O 0.58396 0.96067 0.55911 0.0
O366 O 0.59824 0.99213 0.51983 0.0
O367 O 0.54903 0.02287 0.56569 0.0
O368 O 0.50208 0.00565 0.58295 0.0
O369 O 0.52624 0.95483 0.51687 0.0
C370 C 0.50298 0.01731 0.47963 0.0
C371 C 0.53255 0.01009 0.58731 0.0
Zn372 Zn 0.3064 0.25965 0.76901 0.0
Zn373 Zn 0.24157 0.282 0.79087 0.0
C374 C 0.2938 0.21785 0.71071 0.0
O375 O 0.30607 0.20157 0.73313 0.0
C376 C 0.25855 0.32079 0.85095 0.0
O377 O 0.24585 0.33886 0.83074 0.0
O378 O 0.35193 0.25312 0.76712 0.0
O379 O 0.31006 0.30771 0.78167 0.0
O380 O 0.26223 0.31653 0.76373 0.0
C381 C 0.36809 0.27331 0.751 0.0
O382 O 0.35506 0.29664 0.73968 0.0
O383 O 0.28873 0.24572 0.72029 0.0
C384 C 0.18095 0.26147 0.80931 0.0
O385 O 0.19747 0.24037 0.82022 0.0
O386 O 0.19496 0.28434 0.79464 0.0
O387 O 0.23982 0.23591 0.77267 0.0
O388 O 0.28451 0.22813 0.79862 0.0
O389 O 0.26101 0.29258 0.83947 0.0
C390 C 0.29215 0.32626 0.77039 0.0
C391 C 0.2552 0.2181 0.78879 0.0
Zn392 Zn 0.03251 0.98786 0.54136 0.0
Zn393 Zn 0.00766 0.05075 0.5198 0.0
C394 C 0.07411 0.00432 0.60045 0.0
O395 O 0.092 0.99168 0.57992 0.0
C396 C 0.0056 0.02199 0.44676 0.0
O397 O 0.03691 0.02558 0.44796 0.0
O398 O 0.03804 0.94228 0.54441 0.0
O399 O 0.98488 0.98346 0.52898 0.0
O400 O 0.97405 0.02989 0.54852 0.0
C401 C 0.02363 0.93073 0.56807 0.0
O402 O 0.00739 0.94837 0.58583 0.0
O403 O 0.0462 0.00785 0.58919 0.0
C404 C 0.02467 0.10755 0.493 0.0
O405 O 0.04335 0.08836 0.4818 0.0
O406 O 0.00482 0.09725 0.5132 0.0
O407 O 0.05513 0.05379 0.53479 0.0
O408 O 0.06374 0.00829 0.51114 0.0
O409 O 0.99264 0.02944 0.47284 0.0
C410 C 0.96524 0.9999 0.54064 0.0
C411 C 0.07337 0.03786 0.51984 0.0
Zn412 Zn 0.25482 0.80495 0.76932 0.0
Zn413 Zn 0.29259 0.73476 0.79125 0.0
C414 C 0.20097 0.78453 0.72215 0.0
O415 O 0.22099 0.79706 0.70187 0.0
C416 C 0.35908 0.78431 0.78774 0.0
O417 O 0.3604 0.80379 0.76422 0.0
O418 O 0.25308 0.85308 0.77311 0.0
O419 O 0.26083 0.79041 0.81514 0.0
O420 O 0.27796 0.74843 0.8347 0.0
C421 C 0.22835 0.85901 0.78655 0.0
O422 O 0.20928 0.83533 0.79718 0.0
O423 O 0.21063 0.78432 0.75255 0.0
C424 C 0.32444 0.68364 0.7703 0.0
O425 O 0.34012 0.70757 0.75662 0.0
O426 O 0.30138 0.6887 0.787 0.0
O427 O 0.26217 0.74325 0.75451 0.0
O428 O 0.28145 0.78781 0.73499 0.0
O429 O 0.33333 0.76501 0.78923 0.0
C430 C 0.26693 0.7743 0.83922 0.0
C431 C 0.27678 0.75737 0.73247 0.0
Zn432 Zn 0.52629 0.02529 0.99254 0.0
Zn433 Zn 0.51633 0.00932 0.05919 0.0
C434 C 0.58547 0.06548 0.00325 0.0
O435 O 0.56867 0.08166 0.98447 0.0
C436 C 0.45069 0.99463 0.01312 0.0
O437 O 0.46051 0.00446 0.98524 0.0
O438 O 0.52873 0.0299 0.94362 0.0
O439 O 0.51438 0.97717 0.99513 0.0
O440 O 0.54199 0.9766 0.04337 0.0
C441 C 0.54651 0.0111 0.93259 0.0
O442 O 0.55938 0.99353 0.95307 0.0
O443 O 0.57214 0.03893 0.01183 0.0
C444 C 0.49005 0.02487 0.11557 0.0
O445 O 0.47861 0.04155 0.09303 0.0
O446 O 0.51021 0.00728 0.10765 0.0
O447 O 0.53362 0.05541 0.05712 0.0
O448 O 0.50183 0.05831 0.01267 0.0
O449 O 0.4704 0.99618 0.03881 0.0
C450 C 0.53058 0.96289 0.01487 0.0
C451 C 0.51725 0.07151 0.03984 0.0
Zn452 Zn 0.28205 0.22921 0.25871 0.0
Zn453 Zn 0.23907 0.28733 0.2899 0.0
C454 C 0.33627 0.24565 0.22648 0.0
O455 O 0.31408 0.2355 0.20168 0.0
C456 C 0.18124 0.24044 0.28987 0.0
O457 O 0.19808 0.22066 0.30303 0.0
O458 O 0.28296 0.18332 0.24343 0.0
O459 O 0.27375 0.2304 0.30803 0.0
O460 O 0.25389 0.27009 0.33231 0.0
C461 C 0.27763 0.16225 0.26356 0.0
O462 O 0.26172 0.16809 0.2891 0.0
O463 O 0.32854 0.24701 0.25617 0.0
C464 C 0.2158 0.33946 0.2726 0.0
O465 O 0.20984 0.31857 0.24611 0.0
O466 O 0.22883 0.33133 0.29929 0.0
O467 O 0.26967 0.29584 0.25437 0.0
O468 O 0.2572 0.25021 0.22347 0.0
O469 O 0.19515 0.2619 0.27347 0.0
C470 C 0.26502 0.24429 0.33395 0.0
C471 C 0.26356 0.28058 0.22564 0.0
Zn472 Zn 0.53707 0.48252 0.04129 0.0
Zn473 Zn 0.51008 0.54434 0.01595 0.0
C474 C 0.57896 0.50777 0.10076 0.0
O475 O 0.60076 0.50297 0.0807 0.0
C476 C 0.47876 0.51093 0.95227 0.0
O477 O 0.45377 0.50474 0.96903 0.0
O478 O 0.54654 0.43792 0.04299 0.0
O479 O 0.48882 0.47427 0.03206 0.0
O480 O 0.47468 0.52156 0.04096 0.0
C481 C 0.53524 0.4257 0.06798 0.0
O482 O 0.51999 0.44237 0.08789 0.0
O483 O 0.54969 0.50297 0.08911 0.0
C484 C 0.52498 0.60127 0.99074 0.0
O485 O 0.54516 0.58342 0.98022 0.0
O486 O 0.50474 0.58985 0.00998 0.0
O487 O 0.55625 0.5499 0.0358 0.0
O488 O 0.56577 0.50579 0.01024 0.0
O489 O 0.5053 0.52516 0.96744 0.0
C490 C 0.46819 0.4912 0.04013 0.0
C491 C 0.57459 0.53542 0.01933 0.0
Zn492 Zn 0.76184 0.30861 0.26616 0.0
Zn493 Zn 0.79524 0.24064 0.28808 0.0
C494 C 0.70372 0.28471 0.23044 0.0
O495 O 0.71885 0.30248 0.20979 0.0
C496 C 0.84985 0.27105 0.32683 0.0
O497 O 0.83213 0.25694 0.34818 0.0
O498 O 0.75433 0.35514 0.26826 0.0
O499 O 0.78443 0.30116 0.30925 0.0
O500 O 0.76888 0.25364 0.32484 0.0
C501 C 0.72983 0.3598 0.28287 0.0
O502 O 0.71328 0.33569 0.2955 0.0
O503 O 0.71785 0.28189 0.25861 0.0
C504 C 0.83129 0.1911 0.27412 0.0
O505 O 0.8478 0.21573 0.2623 0.0
O506 O 0.80545 0.19468 0.28681 0.0
O507 O 0.77254 0.24594 0.24404 0.0
O508 O 0.78529 0.29407 0.22793 0.0
O509 O 0.83837 0.26942 0.29663 0.0
C510 C 0.76951 0.28373 0.32882 0.0
C511 C 0.78474 0.26401 0.22336 0.0
Zn512 Zn 0.03393 0.5335 0.49443 0.0
Zn513 Zn 0.01484 0.50831 0.55602 0.0
C514 C 0.09114 0.57366 0.521 0.0
O515 O 0.07488 0.59457 0.50908 0.0
C516 C 0.95818 0.4691 0.5259 0.0
O517 O 0.97427 0.44758 0.53662 0.0
O518 O 0.04318 0.54603 0.4498 0.0
O519 O 0.02246 0.48558 0.48775 0.0
O520 O 0.04227 0.47775 0.53769 0.0
C521 C 0.03123 0.52875 0.42326 0.0
O522 O 0.00619 0.50633 0.42403 0.0
O523 O 0.07784 0.54453 0.5193 0.0
C524 C 0.98287 0.51552 0.61067 0.0
O525 O 0.96996 0.53199 0.5889 0.0
O526 O 0.00498 0.50053 0.60249 0.0
O527 O 0.03087 0.55554 0.56152 0.0
O528 O 0.00511 0.56174 0.51425 0.0
O529 O 0.97144 0.49831 0.52943 0.0
C530 C 0.03625 0.46865 0.50672 0.0
C531 C 0.01493 0.57208 0.54429 0.0
Zn532 Zn 0.80569 0.75829 0.26255 0.0
Zn533 Zn 0.74135 0.78533 0.29126 0.0
C534 C 0.78394 0.71351 0.20396 0.0
O535 O 0.79095 0.69281 0.22447 0.0
C536 C 0.75976 0.78397 0.36436 0.0
O537 O 0.74475 0.75425 0.36218 0.0
O538 O 0.85115 0.75106 0.26274 0.0
O539 O 0.81016 0.80676 0.26773 0.0
O540 O 0.762 0.82047 0.26497 0.0
C541 C 0.86437 0.76162 0.23799 0.0
O542 O 0.84789 0.77454 0.21569 0.0
O543 O 0.78613 0.74268 0.21518 0.0
C544 C 0.67924 0.7649 0.30867 0.0
O545 O 0.69323 0.74043 0.31416 0.0
O546 O 0.69514 0.78923 0.29775 0.0
O547 O 0.7386 0.73875 0.27293 0.0
O548 O 0.78441 0.73 0.29512 0.0
O549 O 0.76313 0.7978 0.33796 0.0
C550 C 0.79209 0.82738 0.26333 0.0
C551 C 0.75464 0.72059 0.28773 0.0
Zn552 Zn 0.76348 0.2672 0.81374 0.0
Zn553 Zn 0.78154 0.27845 0.74793 0.0
C554 C 0.72521 0.20829 0.80256 0.0
O555 O 0.71097 0.22565 0.82296 0.0
C556 C 0.78823 0.34822 0.77985 0.0
O557 O 0.75732 0.348 0.77878 0.0
O558 O 0.761 0.26149 0.86196 0.0
O559 O 0.80988 0.28415 0.81211 0.0
O560 O 0.81333 0.25229 0.76795 0.0
C561 C 0.7764 0.2394 0.86886 0.0
O562 O 0.79208 0.22704 0.84591 0.0
O563 O 0.75067 0.22168 0.79163 0.0
C564 C 0.76872 0.30347 0.69085 0.0
O565 O 0.75145 0.31484 0.71281 0.0
O566 O 0.78612 0.28341 0.69949 0.0
O567 O 0.73328 0.26535 0.74907 0.0
O568 O 0.72966 0.29134 0.7975 0.0
O569 O 0.79862 0.32356 0.76873 0.0
C570 C 0.82556 0.26604 0.7964 0.0
C571 C 0.71725 0.27982 0.76853 0.0
Zn572 Zn 0.77826 0.72879 0.75174 0.0
Zn573 Zn 0.75338 0.79465 0.79312 0.0
C574 C 0.83384 0.75011 0.72738 0.0
O575 O 0.81492 0.73241 0.70312 0.0
C576 C 0.68549 0.76237 0.80414 0.0
O577 O 0.68509 0.73716 0.78293 0.0
O578 O 0.78727 0.68388 0.74252 0.0
O579 O 0.75579 0.72551 0.79389 0.0
O580 O 0.77893 0.76985 0.82366 0.0
C581 C 0.80793 0.67962 0.76556 0.0
O582 O 0.81778 0.70239 0.78992 0.0
O583 O 0.82345 0.75452 0.75574 0.0
C584 C 0.74029 0.85368 0.78787 0.0
O585 O 0.71782 0.83358 0.76922 0.0
O586 O 0.76227 0.84286 0.80436 0.0
O587 O 0.75243 0.78976 0.74219 0.0
O588 O 0.75589 0.74497 0.7122 0.0
O589 O 0.70964 0.7846 0.80828 0.0
C590 C 0.76774 0.74005 0.82193 0.0
C591 C 0.75193 0.77398 0.71395 0.0
Zn592 Zn 0.56345 0.50661 0.55347 0.0
Zn593 Zn 0.50436 0.54526 0.51957 0.0
C594 C 0.54143 0.45167 0.58187 0.0
O595 O 0.55146 0.47253 0.60788 0.0
C596 C 0.54689 0.60575 0.51493 0.0
O597 O 0.56618 0.58941 0.50019 0.0
O598 O 0.60784 0.50133 0.57003 0.0
O599 O 0.56706 0.51653 0.50538 0.0
O600 O 0.52333 0.52801 0.47933 0.0
C601 C 0.63192 0.51212 0.55532 0.0
O602 O 0.62962 0.53438 0.53519 0.0
O603 O 0.54212 0.46083 0.55283 0.0
C604 C 0.45048 0.56933 0.52984 0.0
O605 O 0.46912 0.57787 0.55773 0.0
O606 O 0.45987 0.55263 0.50629 0.0
O607 O 0.4966 0.51867 0.55812 0.0
O608 O 0.54268 0.53232 0.58833 0.0
O609 O 0.52649 0.59138 0.53222 0.0
C610 C 0.55147 0.52179 0.4788 0.0
C611 C 0.51228 0.52583 0.58655 0.0
Zn612 Zn 0.9809 0.53277 0.0466 0.0
Zn613 Zn 0.05319 0.49578 0.02596 0.0
C614 C 0.01086 0.59108 0.08132 0.0
O615 O 0.99859 0.57608 0.10551 0.0
C616 C 0.0344 0.43957 0.98808 0.0
O617 O 0.0537 0.45751 0.97085 0.0
O618 O 0.93475 0.54105 0.04057 0.0
O619 O 0.99248 0.50633 0.00616 0.0
O620 O 0.03864 0.51657 0.9854 0.0
C621 C 0.93187 0.56317 0.02172 0.0
O622 O 0.95712 0.57561 0.0077 0.0
O623 O 0.0076 0.57693 0.05206 0.0
C624 C 0.10557 0.46793 0.04974 0.0
O625 O 0.08104 0.45006 0.06037 0.0
O626 O 0.10079 0.49209 0.03459 0.0
O627 O 0.03575 0.52033 0.06167 0.0
O628 O 0.99367 0.51137 0.08807 0.0
O629 O 0.02919 0.45063 0.01684 0.0
C630 C 0.00871 0.51765 0.98348 0.0
C631 C 0.02261 0.50828 0.08561 0.0
C632 C 0.05212 0.18454 0.97491 0.0
C633 C 0.02192 0.18281 0.95702 0.0
C634 C 0.05874 0.15995 0.99405 0.0
C635 C 0.03514 0.13329 0.99661 0.0
H636 H 0.07107 0.20457 0.97336 0.0
H637 H 0.08252 0.16162 0.00662 0.0
S638 S 0.95241 0.11721 0.95456 0.0
N639 N 0.9683 0.15219 0.94326 0.0
N640 N 0.98074 0.10627 0.97907 0.0
C641 C 0.00478 0.13157 0.97926 0.0
C642 C 0.99816 0.15629 0.95953 0.0
C643 C 0.13821 0.79572 0.24941 0.0
C644 C 0.13176 0.78968 0.21458 0.0
C645 C 0.16761 0.79168 0.26555 0.0
C646 C 0.19103 0.78044 0.24745 0.0
H647 H 0.12037 0.80347 0.26427 0.0
H648 H 0.17169 0.79662 0.2924 0.0
S649 S 0.18485 0.75995 0.1556 0.0
N650 N 0.15096 0.77206 0.1625 0.0
N651 N 0.20515 0.76276 0.19256 0.0
C652 C 0.18454 0.77408 0.21253 0.0
C653 C 0.15519 0.77918 0.19616 0.0
C654 C 0.51538 0.85266 0.4839 0.0
C655 C 0.49894 0.84285 0.45212 0.0
C656 C 0.52052 0.88493 0.49692 0.0
C657 C 0.50934 0.90802 0.47842 0.0
H658 H 0.52633 0.83588 0.49766 0.0
H659 H 0.53544 0.89215 0.52023 0.0
S660 S 0.45878 0.89324 0.39778 0.0
N661 N 0.46681 0.85777 0.40535 0.0
N662 N 0.47686 0.9183 0.42967 0.0
C663 C 0.49024 0.89793 0.44829 0.0
C664 C 0.4849 0.86528 0.43515 0.0
C665 C 0.45386 0.29403 0.73341 0.0
C666 C 0.45825 0.26688 0.71317 0.0
C667 C 0.42489 0.29532 0.74689 0.0
C668 C 0.39969 0.26917 0.74146 0.0
H669 H 0.47239 0.31508 0.73764 0.0
H670 H 0.42186 0.31723 0.76096 0.0
S671 S 0.39917 0.19196 0.6917 0.0
N672 N 0.43506 0.21283 0.68911 0.0
N673 N 0.3808 0.21509 0.71549 0.0
C674 C 0.40407 0.24134 0.72258 0.0
C675 C 0.43336 0.24023 0.70816 0.0
C676 C 0.00799 0.84171 0.57207 0.0
C677 C 0.02341 0.83879 0.60356 0.0
C678 C 0.00974 0.87154 0.55949 0.0
C679 C 0.02701 0.8992 0.57802 0.0
H680 H 0.99345 0.82104 0.55758 0.0
H681 H 0.99631 0.8732 0.53594 0.0
S682 S 0.07468 0.90439 0.65965 0.0
N683 N 0.059 0.86608 0.65144 0.0
N684 N 0.0617 0.92209 0.62773 0.0
C685 C 0.04376 0.89655 0.60862 0.0
C686 C 0.04217 0.86629 0.62142 0.0
C687 C 0.44404 0.80389 0.82946 0.0
C688 C 0.44319 0.78473 0.8561 0.0
C689 C 0.41663 0.80387 0.80781 0.0
C690 C 0.38732 0.78457 0.81184 0.0
H691 H 0.46613 0.81886 0.82503 0.0
H692 H 0.41865 0.81884 0.78749 0.0
S693 S 0.37224 0.73058 0.87844 0.0
N694 N 0.41047 0.74651 0.88595 0.0
N695 N 0.35897 0.74624 0.84521 0.0
C696 C 0.38602 0.7656 0.83876 0.0
C697 C 0.41394 0.76575 0.8609 0.0
C698 C 0.48434 0.14657 0.06534 0.0
C699 C 0.5093 0.16325 0.08837 0.0
C700 C 0.48739 0.11733 0.04797 0.0
C701 C 0.51561 0.10446 0.05304 0.0
H702 H 0.46201 0.15544 0.06183 0.0
H703 H 0.46715 0.1041 0.03177 0.0
S704 S 0.5897 0.14247 0.10597 0.0
N705 N 0.56415 0.16705 0.11222 0.0
N706 N 0.57024 0.11287 0.07923 0.0
C707 C 0.54136 0.12228 0.07425 0.0
C708 C 0.5381 0.15152 0.09206 0.0
C709 C 0.13513 0.28435 0.34868 0.0
C710 C 0.10582 0.26337 0.34793 0.0
C711 C 0.15889 0.27706 0.32887 0.0
C712 C 0.15444 0.24833 0.30787 0.0
H713 H 0.13987 0.30658 0.36482 0.0
H714 H 0.1813 0.29367 0.33069 0.0
S715 S 0.08247 0.18506 0.2967 0.0
N716 N 0.07368 0.21258 0.324 0.0
N717 N 0.11897 0.1987 0.28744 0.0
C718 C 0.12545 0.22706 0.30682 0.0
C719 C 0.10093 0.23467 0.32662 0.0
C720 C 0.94166 0.02006 0.1413 0.0
C721 C 0.95663 0.02283 0.17397 0.0
C722 C 0.95954 0.02235 0.11369 0.0
C723 C 0.99332 0.02789 0.11732 0.0
H724 H 0.91581 0.01583 0.13687 0.0
H725 H 0.94654 0.01968 0.08916 0.0
S726 S 0.04441 0.03671 0.19766 0.0
N727 N 0.00751 0.03108 0.20843 0.0
N728 N 0.041 0.03603 0.15665 0.0
C729 C 0.00868 0.03102 0.14992 0.0
C730 C 0.9904 0.02833 0.17813 0.0
C731 C 0.25769 0.681 0.43665 0.0
C732 C 0.26972 0.69981 0.46667 0.0
C733 C 0.25627 0.69464 0.4066 0.0
C734 C 0.26629 0.72755 0.40567 0.0
H735 H 0.2506 0.65532 0.43605 0.0
H736 H 0.24844 0.67916 0.38373 0.0
S737 S 0.29669 0.78782 0.47724 0.0
N738 N 0.28965 0.75354 0.49384 0.0
N739 N 0.28645 0.77914 0.43681 0.0
C740 C 0.27635 0.74706 0.43549 0.0
C741 C 0.27819 0.73315 0.46623 0.0
C742 C 0.59443 0.03069 0.66093 0.0
C743 C 0.59157 0.00241 0.67679 0.0
C744 C 0.5738 0.0334 0.63311 0.0
C745 C 0.54947 0.00794 0.61996 0.0
H746 H 0.6128 0.05105 0.67007 0.0
H747 H 0.57735 0.05547 0.62134 0.0
S748 S 0.53211 0.9285 0.65157 0.0
N749 N 0.56241 0.94832 0.67737 0.0
N750 N 0.52369 0.95342 0.6243 0.0
C751 C 0.54582 0.97967 0.63574 0.0
C752 C 0.5669 0.97689 0.66435 0.0
C753 C 0.26976 0.32317 0.94588 0.0
C754 C 0.27477 0.35623 0.95621 0.0
C755 C 0.26602 0.31167 0.9118 0.0
C756 C 0.26693 0.3328 0.88681 0.0
H757 H 0.26796 0.30601 0.96419 0.0
H758 H 0.26118 0.28606 0.90502 0.0
S759 S 0.2831 0.42156 0.90063 0.0
N760 N 0.28328 0.40987 0.93845 0.0
N761 N 0.27581 0.38841 0.87498 0.0
C762 C 0.27326 0.36587 0.89692 0.0
C763 C 0.27729 0.37753 0.93142 0.0
C764 C 0.98243 0.00744 0.353 0.0
C765 C 0.94981 0.00997 0.35 0.0
C766 C 1.00001 0.00998 0.38438 0.0
C767 C 0.98562 0.01495 0.41406 0.0
H768 H 0.99481 0.00445 0.33094 0.0
H769 H 0.02529 0.00894 0.38526 0.0
S770 S 0.89978 0.01973 0.41974 0.0
N771 N 0.90319 0.01533 0.37938 0.0
N772 N 0.93582 0.01967 0.43815 0.0
C773 C 0.95254 0.01587 0.41133 0.0
C774 C 0.93477 0.01354 0.37939 0.0
C775 C 0.30918 0.73573 0.65038 0.0
C776 C 0.29944 0.7023 0.64535 0.0
C777 C 0.30318 0.75338 0.67937 0.0
C778 C 0.28682 0.73825 0.7041 0.0
H779 H 0.32046 0.7485 0.63125 0.0
H780 H 0.31031 0.77914 0.68176 0.0
S781 S 0.25726 0.65088 0.70303 0.0
N782 N 0.27433 0.65457 0.66819 0.0
N783 N 0.26172 0.68748 0.7217 0.0
C784 C 0.27802 0.70462 0.69976 0.0
C785 C 0.28474 0.68671 0.67066 0.0
C786 C 0.58626 0.03856 0.85829 0.0
C787 C 0.58931 0.00929 0.84094 0.0
C788 C 0.56958 0.03927 0.88667 0.0
C789 C 0.55608 0.01071 0.89872 0.0
H790 H 0.5977 0.06102 0.85053 0.0
H791 H 0.56917 0.06212 0.90046 0.0
S792 S 0.55581 0.92817 0.8615 0.0
N793 N 0.5757 0.95129 0.83672 0.0
N794 N 0.54521 0.95268 0.89069 0.0
C795 C 0.55776 0.98145 0.88084 0.0
C796 C 0.57416 0.9807 0.85169 0.0
C797 C 0.2727 0.35038 0.17155 0.0
C798 C 0.27217 0.33566 0.13899 0.0
C799 C 0.2698 0.33234 0.19903 0.0
C800 C 0.26594 0.29862 0.19536 0.0
H801 H 0.27536 0.37616 0.17597 0.0
H802 H 0.27052 0.34515 0.22344 0.0
S803 S 0.26331 0.24822 0.11529 0.0
N804 N 0.26793 0.28515 0.10468 0.0
N805 N 0.26179 0.25132 0.15604 0.0
C806 C 0.26516 0.28354 0.16285 0.0
C807 C 0.26844 0.30199 0.13483 0.0
C808 C 0.17793 0.9403 0.06138 0.0
C809 C 0.19806 0.94795 0.03626 0.0
C810 C 0.15301 0.95706 0.06724 0.0
C811 C 0.14754 0.98194 0.04821 0.0
H812 H 0.18057 0.92038 0.07571 0.0
H813 H 0.13654 0.94898 0.08502 0.0
S814 S 0.19431 0.01275 0.98118 0.0
N815 N 0.21201 0.98356 0.99381 0.0
N816 N 0.16459 0.01461 0.0046 0.0
C817 C 0.16839 0.99099 0.02436 0.0
C818 C 0.19392 0.97413 0.01848 0.0
C819 C 0.64554 0.60273 0.01897 0.0
C820 C 0.66606 0.58923 0.99863 0.0
C821 C 0.6162 0.58516 0.02532 0.0
C822 C 0.60587 0.55325 0.01151 0.0
H823 H 0.65249 0.62695 0.03083 0.0
H824 H 0.60166 0.59674 0.04156 0.0
S825 S 0.64956 0.50744 0.95425 0.0
N826 N 0.67329 0.54246 0.96323 0.0
N827 N 0.61799 0.50946 0.97488 0.0
C828 C 0.62578 0.53966 0.99036 0.0
C829 C 0.65584 0.55761 0.98399 0.0
C830 C 0.67473 0.42033 0.29409 0.0
C831 C 0.69492 0.45005 0.29458 0.0
C832 C 0.68641 0.39159 0.28988 0.0
C833 C 0.71878 0.39113 0.28553 0.0
H834 H 0.64957 0.41914 0.29728 0.0
H835 H 0.66973 0.36946 0.28997 0.0
S836 S 0.78174 0.4623 0.28411 0.0
N837 N 0.74904 0.47733 0.28995 0.0
N838 N 0.77094 0.42302 0.28157 0.0
C839 C 0.73928 0.4206 0.28539 0.0
C840 C 0.7274 0.45009 0.2901 0.0
C841 C 0.87973 0.41637 0.49447 0.0
C842 C 0.85724 0.43417 0.50619 0.0
C843 C 0.91245 0.42887 0.49896 0.0
C844 C 0.92376 0.45958 0.5153 0.0
H845 H 0.87206 0.39217 0.48274 0.0
H846 H 0.92911 0.41389 0.49076 0.0
S847 S 0.87447 0.51597 0.55018 0.0
N848 N 0.84825 0.48427 0.53402 0.0
N849 N 0.90991 0.5079 0.54243 0.0
C850 C 0.90141 0.47827 0.52568 0.0
C851 C 0.86803 0.46549 0.52113 0.0
C852 C 0.31757 0.08965 0.25458 0.0
C853 C 0.3452 0.09859 0.27742 0.0
C854 C 0.29578 0.1105 0.24956 0.0
C855 C 0.30096 0.14082 0.26731 0.0
H856 H 0.31248 0.06618 0.24074 0.0
H857 H 0.27461 0.10271 0.23217 0.0
S858 S 0.3697 0.1765 0.32876 0.0
N859 N 0.37668 0.14039 0.31713 0.0
N860 N 0.33587 0.17965 0.30726 0.0
C861 C 0.32875 0.15046 0.28945 0.0
C862 C 0.35091 0.12931 0.29461 0.0
C863 C 0.3635 0.09433 0.48761 0.0
C864 C 0.34157 0.09208 0.51164 0.0
C865 C 0.39144 0.081 0.49133 0.0
C866 C 0.39903 0.06538 0.51962 0.0
H867 H 0.35903 0.10653 0.46571 0.0
H868 H 0.40749 0.08343 0.47195 0.0
S869 S 0.34996 0.05488 0.59074 0.0
N870 N 0.32923 0.07368 0.56498 0.0
N871 N 0.38218 0.04931 0.57253 0.0
C872 C 0.3771 0.06289 0.54384 0.0
C873 C 0.34832 0.07611 0.53973 0.0
C874 C 0.68991 0.64737 0.28766 0.0
C875 C 0.70491 0.62651 0.30613 0.0
C876 C 0.70637 0.67728 0.28167 0.0
C877 C 0.7385 0.68818 0.29442 0.0
H878 H 0.66531 0.64032 0.27698 0.0
H879 H 0.69361 0.6919 0.26666 0.0
S880 S 0.78866 0.64307 0.34534 0.0
N881 N 0.75382 0.61882 0.33745 0.0
N882 N 0.78462 0.67557 0.32702 0.0
C883 C 0.7538 0.6677 0.31331 0.0
C884 C 0.73705 0.63685 0.31903 0.0
C885 C 0.82093 0.43585 0.80542 0.0
C886 C 0.85376 0.4379 0.80188 0.0
C887 C 0.80004 0.4065 0.79963 0.0
C888 C 0.81125 0.37813 0.79027 0.0
H889 H 0.81099 0.45723 0.81128 0.0
H890 H 0.77478 0.40633 0.80139 0.0
S891 S 0.89611 0.37019 0.78273 0.0
N892 N 0.89715 0.40884 0.79197 0.0
N893 N 0.85815 0.35355 0.78154 0.0
C894 C 0.84447 0.37962 0.78894 0.0
C895 C 0.86566 0.40955 0.79461 0.0
C896 C 0.01732 0.88538 0.12984 0.0
C897 C 0.03397 0.86283 0.11507 0.0
C898 C 0.01858 0.91569 0.11869 0.0
C899 C 0.03598 0.92431 0.09197 0.0
H900 H 0.0042 0.88009 0.15108 0.0
H901 H 0.00673 0.93291 0.13178 0.0
S902 S 0.08303 0.87411 0.04402 0.0
N903 N 0.06781 0.8511 0.07164 0.0
N904 N 0.06961 0.90811 0.05038 0.0
C905 C 0.05147 0.90164 0.07585 0.0
C906 C 0.05057 0.87082 0.08747 0.0
C907 C 0.90705 0.24019 0.81071 0.0
C908 C 0.91507 0.24814 0.84523 0.0
C909 C 0.87786 0.24546 0.79495 0.0
C910 C 0.85612 0.2597 0.81301 0.0
H911 H 0.92348 0.22995 0.79576 0.0
H912 H 0.8726 0.23893 0.76837 0.0
S913 S 0.86641 0.28553 0.90413 0.0
N914 N 0.89879 0.27062 0.89699 0.0
N915 N 0.84521 0.28193 0.86762 0.0
C916 C 0.86416 0.2679 0.8476 0.0
C917 C 0.89325 0.26173 0.86364 0.0
C918 C 0.55271 0.16576 0.62202 0.0
C919 C 0.53625 0.18745 0.6064 0.0
C920 C 0.54643 0.13313 0.6111 0.0
C921 C 0.5242 0.12115 0.58361 0.0
H922 H 0.56924 0.17366 0.64411 0.0
H923 H 0.55812 0.11697 0.62508 0.0
S924 S 0.47694 0.16787 0.5319 0.0
N925 N 0.49819 0.19473 0.56055 0.0
N926 N 0.48717 0.13324 0.53948 0.0
C927 C 0.50919 0.14266 0.56625 0.0
C928 C 0.51504 0.17592 0.57779 0.0
C929 C 0.60975 0.79023 0.35002 0.0
C930 C 0.58817 0.76115 0.3487 0.0
C931 C 0.63846 0.79194 0.33503 0.0
C932 C 0.64671 0.7645 0.31869 0.0
H933 H 0.60476 0.81173 0.36333 0.0
H934 H 0.65497 0.81447 0.33772 0.0
S935 S 0.59778 0.68308 0.30624 0.0
N936 N 0.57636 0.70475 0.32786 0.0
N937 N 0.63045 0.70789 0.30031 0.0
C938 C 0.62489 0.73558 0.31618 0.0
C939 C 0.59556 0.73391 0.33101 0.0
C940 C 0.01282 0.19363 0.48499 0.0
C941 C 0.03185 0.20242 0.45942 0.0
C942 C 0.01062 0.16294 0.49602 0.0
C943 C 0.02695 0.13999 0.48136 0.0
H944 H 0.99972 0.21059 0.49657 0.0
H945 H 0.99602 0.15719 0.51606 0.0
S946 S 0.07704 0.15107 0.41067 0.0
N947 N 0.06558 0.18588 0.41837 0.0
N948 N 0.06115 0.12819 0.43803 0.0
C949 C 0.04544 0.14863 0.45507 0.0
C950 C 0.04793 0.17986 0.44434 0.0
C951 C 0.61497 0.28355 0.22153 0.0
C952 C 0.60399 0.25739 0.19743 0.0
C953 C 0.64736 0.29121 0.23382 0.0
C954 C 0.66949 0.27272 0.22264 0.0
H955 H 0.59887 0.29922 0.22955 0.0
H956 H 0.6554 0.31259 0.25087 0.0
S957 S 0.65234 0.19959 0.16349 0.0
N958 N 0.61737 0.21122 0.16552 0.0
N959 N 0.67826 0.22594 0.18869 0.0
C960 C 0.65862 0.24558 0.20016 0.0
C961 C 0.62576 0.23777 0.18757 0.0
C962 C 0.51185 0.87379 0.99218 0.0
C963 C 0.53716 0.86816 0.97349 0.0
C964 C 0.51065 0.90446 0.00703 0.0
C965 C 0.53512 0.93025 0.00443 0.0
H966 H 0.49203 0.85473 0.99409 0.0
H967 H 0.48995 0.90825 0.01967 0.0
S968 S 0.60812 0.92793 0.96122 0.0
N969 N 0.58808 0.89094 0.95467 0.0
N970 N 0.58656 0.94809 0.98437 0.0
C971 C 0.56143 0.92472 0.98756 0.0
C972 C 0.56231 0.89374 0.97165 0.0
C973 C 0.92143 0.74888 0.72423 0.0
C974 C 0.92683 0.76204 0.69399 0.0
C975 C 0.89193 0.74828 0.73764 0.0
C976 C 0.86719 0.76091 0.72119 0.0
H977 H 0.93931 0.7373 0.73654 0.0
H978 H 0.88766 0.7358 0.75948 0.0
S979 S 0.87134 0.80331 0.64512 0.0
N980 N 0.90651 0.7921 0.65089 0.0
N981 N 0.85132 0.79053 0.67597 0.0
C982 C 0.87335 0.7765 0.69272 0.0
C983 C 0.90315 0.77718 0.67911 0.0
C984 C 0.10824 0.01434 0.91653 0.0
C985 C 0.09747 0.02841 0.88846 0.0
C986 C 0.09104 0.01243 0.94463 0.0
C987 C 0.0622 0.02445 0.94608 0.0
H988 H 0.13022 0.00466 0.91689 0.0
H989 H 0.10067 0.00149 0.96548 0.0
S990 S 0.02451 0.06544 0.87997 0.0
N991 N 0.05654 0.05561 0.86429 0.0
N992 N 0.02438 0.05219 0.91714 0.0
C993 C 0.05118 0.03874 0.91822 0.0
C994 C 0.06875 0.04068 0.88949 0.0
C995 C 0.75246 0.35553 0.62291 0.0
C996 C 0.76684 0.34302 0.59599 0.0
C997 C 0.75327 0.34229 0.65315 0.0
C998 C 0.7686 0.31597 0.65794 0.0
H999 H 0.74043 0.37588 0.62078 0.0
H1000 H 0.74186 0.35315 0.67302 0.0
S1001 S 0.80988 0.27406 0.59515 0.0
N1002 N 0.79685 0.30268 0.5757 0.0
N1003 N 0.79847 0.27763 0.63311 0.0
C1004 C 0.78318 0.30309 0.63127 0.0
C1005 C 0.78225 0.31664 0.60015 0.0
C1006 C 0.48372 0.04633 0.39497 0.0
C1007 C 0.45025 0.03709 0.38933 0.0
C1008 C 0.50072 0.04023 0.42433 0.0
C1009 C 0.4849 0.02423 0.44886 0.0
H1010 H 0.49696 0.05787 0.3763 0.0
H1011 H 0.52644 0.04772 0.42757 0.0
S1012 S 0.39723 0.99474 0.44573 0.0
N1013 N 0.40185 0.01172 0.41095 0.0
N1014 N 0.43351 0.99894 0.46508 0.0
C1015 C 0.45131 0.015 0.44344 0.0
C1016 C 0.43407 0.02185 0.41402 0.0
C1017 C 0.76 0.66015 0.12281 0.0
C1018 C 0.76908 0.68051 0.09831 0.0
C1019 C 0.76407 0.67129 0.15677 0.0
C1020 C 0.77715 0.70334 0.1677 0.0
H1021 H 0.74993 0.63518 0.11579 0.0
H1022 H 0.75714 0.65453 0.17464 0.0
S1023 S 0.80565 0.76638 0.11389 0.0
N1024 N 0.79221 0.7343 0.08749 0.0
N1025 N 0.79962 0.75533 0.1513 0.0
C1026 C 0.78589 0.72416 0.14348 0.0
C1027 C 0.78192 0.71273 0.10882 0.0
C1028 C 0.1306 0.01756 0.68001 0.0
C1029 C 0.11025 0.01937 0.70549 0.0
C1030 C 0.11866 0.01344 0.64631 0.0
C1031 C 0.08582 0.01126 0.63646 0.0
H1032 H 0.15609 0.01895 0.68606 0.0
H1033 H 0.13543 0.01176 0.62782 0.0
S1034 S 0.02221 0.01497 0.69328 0.0
N1035 N 0.05547 0.01892 0.71852 0.0
N1036 N 0.03302 0.0114 0.65508 0.0
C1037 C 0.06514 0.01349 0.66162 0.0
C1038 C 0.07733 0.01742 0.69611 0.0
C1039 C 0.75239 0.34989 0.38934 0.0
C1040 C 0.74519 0.33452 0.41778 0.0
C1041 C 0.75918 0.3329 0.3606 0.0
C1042 C 0.75845 0.29962 0.35863 0.0
H1043 H 0.75454 0.37563 0.38977 0.0
H1044 H 0.76637 0.34641 0.34022 0.0
S1045 S 0.7381 0.2474 0.42531 0.0
N1046 N 0.73577 0.28367 0.44176 0.0
N1047 N 0.74779 0.25149 0.38706 0.0
C1048 C 0.74938 0.28351 0.38618 0.0
C1049 C 0.7428 0.301 0.41584 0.0
C1050 C 0.43219 0.03271 0.18 0.0
C1051 C 0.44856 0.02559 0.20917 0.0
C1052 C 0.44618 0.03268 0.1501 0.0
C1053 C 0.47673 0.02465 0.14799 0.0
H1054 H 0.40851 0.03884 0.18037 0.0
H1055 H 0.43262 0.03859 0.12833 0.0
S1056 S 0.52893 0.00291 0.21726 0.0
N1057 N 0.49666 0.01002 0.2345 0.0
N1058 N 0.52275 0.00877 0.17757 0.0
C1059 C 0.4932 0.01691 0.17689 0.0
C1060 C 0.47918 0.01774 0.20771 0.0
C1061 C 0.77191 0.72236 0.91352 0.0
C1062 C 0.76143 0.689 0.91155 0.0
C1063 C 0.77416 0.73869 0.88466 0.0
C1064 C 0.76586 0.72242 0.8525 0.0
H1065 H 0.77865 0.73603 0.9376 0.0
H1066 H 0.78233 0.76432 0.88766 0.0
S1067 S 0.73668 0.63487 0.83357 0.0
N1068 N 0.74251 0.64033 0.87461 0.0
N1069 N 0.74658 0.67058 0.82076 0.0
C1070 C 0.75525 0.68899 0.85027 0.0
C1071 C 0.75308 0.67244 0.8796 0.0
C1072 C 0.8607 0.07514 0.03407 0.0
C1073 C 0.86238 0.10841 0.04062 0.0
C1074 C 0.88847 0.06195 0.03064 0.0
C1075 C 0.91858 0.08168 0.03421 0.0
H1076 H 0.83784 0.05919 0.0316 0.0
H1077 H 0.8865 0.03622 0.02633 0.0
S1078 S 0.9361 0.17003 0.04982 0.0
N1079 N 0.89683 0.16073 0.04901 0.0
N1080 N 0.94882 0.13569 0.04344 0.0
C1081 C 0.92061 0.11485 0.04022 0.0
C1082 C 0.89251 0.12832 0.04319 0.0
C1083 C 0.37903 0.47489 0.05269 0.0
C1084 C 0.37369 0.44254 0.05925 0.0
C1085 C 0.40962 0.4907 0.04709 0.0
C1086 C 0.43608 0.47474 0.04756 0.0
H1087 H 0.35929 0.48795 0.05111 0.0
H1088 H 0.41233 0.51539 0.04159 0.0
S1089 S 0.43535 0.39055 0.06611 0.0
N1090 N 0.39799 0.39577 0.06792 0.0
N1091 N 0.45488 0.42493 0.05687 0.0
C1092 C 0.4311 0.44258 0.0549 0.0
C1093 C 0.40013 0.42667 0.0609 0.0
C1094 C 0.37856 0.62233 0.75753 0.0
C1095 C 0.35874 0.59286 0.75973 0.0
C1096 C 0.36698 0.6512 0.76091 0.0
C1097 C 0.33514 0.65211 0.76717 0.0
H1098 H 0.40341 0.62324 0.75311 0.0
H1099 H 0.38343 0.67311 0.75901 0.0
S1100 S 0.27293 0.58166 0.77457 0.0
N1101 N 0.30523 0.56624 0.76782 0.0
N1102 N 0.28362 0.6208 0.775 0.0
C1103 C 0.31488 0.62287 0.76949 0.0
C1104 C 0.32661 0.59321 0.76549 0.0
C1105 C 0.1688 0.62744 0.55413 0.0
C1106 C 0.19188 0.60812 0.54792 0.0
C1107 C 0.13615 0.61559 0.5466 0.0
C1108 C 0.12524 0.58383 0.53308 0.0
H1109 H 0.17598 0.65236 0.56367 0.0
H1110 H 0.11934 0.63171 0.55066 0.0
S1111 S 0.17549 0.52256 0.51431 0.0
N1112 N 0.20138 0.55503 0.52899 0.0
N1113 N 0.13975 0.53261 0.51538 0.0
C1114 C 0.14783 0.56367 0.52837 0.0
C1115 C 0.18124 0.57586 0.53564 0.0
C1116 C 0.7253 0.93077 0.75783 0.0
C1117 C 0.70982 0.94362 0.78382 0.0
C1118 C 0.73883 0.90321 0.76095 0.0
C1119 C 0.73748 0.88762 0.79013 0.0
H1120 H 0.7255 0.94102 0.73424 0.0
H1121 H 0.7486 0.89281 0.73958 0.0
S1122 S 0.70198 0.91254 0.86633 0.0
N1123 N 0.69612 0.93974 0.84079 0.0
N1124 N 0.72126 0.88762 0.84607 0.0
C1125 C 0.72405 0.90125 0.81706 0.0
C1126 C 0.71028 0.92938 0.81405 0.0
C1127 C 0.66685 0.91831 0.55579 0.0
C1128 C 0.69512 0.93488 0.54545 0.0
C1129 C 0.63837 0.93081 0.5539 0.0
C1130 C 0.63656 0.96024 0.54097 0.0
H1131 H 0.66673 0.89551 0.56583 0.0
H1132 H 0.61745 0.91697 0.56242 0.0
S1133 S 0.70373 0.01304 0.51001 0.0
N1134 N 0.71964 0.98244 0.52181 0.0
N1135 N 0.6658 0.00563 0.5175 0.0
C1136 C 0.66458 0.97701 0.53021 0.0
C1137 C 0.69389 0.96447 0.53271 0.0
C1138 C 0.32159 0.40393 0.73351 0.0
C1139 C 0.33987 0.42294 0.76092 0.0
C1140 C 0.30476 0.37313 0.73697 0.0
C1141 C 0.30644 0.36 0.7677 0.0
H1142 H 0.32041 0.41283 0.70924 0.0
H1143 H 0.29136 0.35906 0.71522 0.0
S1144 S 0.35097 0.39955 0.84691 0.0
N1145 N 0.35789 0.42628 0.81998 0.0
N1146 N 0.32763 0.3682 0.82585 0.0
C1147 C 0.32448 0.37874 0.79517 0.0
C1148 C 0.34082 0.41026 0.79195 0.0
C1149 C 0.21558 0.6179 0.27297 0.0
C1150 C 0.18246 0.60681 0.27153 0.0
C1151 C 0.22838 0.65047 0.28116 0.0
C1152 C 0.20853 0.6729 0.28873 0.0
H1153 H 0.23172 0.6013 0.26801 0.0
H1154 H 0.25407 0.65793 0.28244 0.0
S1155 S 0.12008 0.65604 0.28794 0.0
N1156 N 0.13004 0.62094 0.27777 0.0
N1157 N 0.154 0.68177 0.29329 0.0
C1158 C 0.17534 0.66211 0.28685 0.0
C1159 C 0.16233 0.62916 0.27821 0.0
C1160 C 0.54829 0.6883 0.486 0.0
C1161 C 0.52238 0.683 0.46089 0.0
C1162 C 0.55596 0.66341 0.50413 0.0
C1163 C 0.53773 0.63258 0.49797 0.0
H1164 H 0.56318 0.71169 0.49127 0.0
H1165 H 0.57642 0.66819 0.52273 0.0
S1166 S 0.46776 0.60585 0.43528 0.0
N1167 N 0.47847 0.64428 0.43128 0.0
N1168 N 0.49317 0.59775 0.46511 0.0
C1169 C 0.5117 0.62699 0.47329 0.0
C1170 C 0.50389 0.65217 0.45485 0.0
C1171 C 0.64823 0.31056 0.72507 0.0
C1172 C 0.62287 0.28466 0.72439 0.0
C1173 C 0.67847 0.30968 0.7413 0.0
C1174 C 0.68435 0.28271 0.75691 0.0
H1175 H 0.64491 0.33129 0.71231 0.0
H1176 H 0.69765 0.32965 0.74048 0.0
S1177 S 0.62632 0.20877 0.76229 0.0
N1178 N 0.60565 0.23163 0.74159 0.0
N1179 N 0.66272 0.22977 0.77086 0.0
C1180 C 0.65917 0.25703 0.75698 0.0
C1181 C 0.62829 0.25809 0.74107 0.0
C1182 C 0.01562 0.34941 0.97767 0.0
C1183 C 0.00734 0.3431 0.94302 0.0
C1184 C 0.02214 0.38092 0.99302 0.0
C1185 C 0.02069 0.40684 0.97404 0.0
H1186 H 0.01865 0.33009 0.99274 0.0
H1187 H 0.0303 0.38509 0.01936 0.0
S1188 S 0.99433 0.40295 0.88402 0.0
N1189 N 0.99355 0.3653 0.89131 0.0
N1190 N 0.00634 0.42429 0.92016 0.0
C1191 C 0.01007 0.40072 0.94004 0.0
C1192 C 0.00321 0.36885 0.92449 0.0
C1193 C 0.95113 0.79075 0.2304 0.0
C1194 C 0.95988 0.76448 0.21221 0.0
C1195 C 0.92041 0.78895 0.24079 0.0
C1196 C 0.89793 0.76062 0.23405 0.0
H1197 H 0.96737 0.81344 0.23485 0.0
H1198 H 0.9137 0.81026 0.25275 0.0
S1199 S 0.90986 0.68424 0.19053 0.0
N1200 N 0.94428 0.70859 0.19008 0.0
N1201 N 0.88664 0.70528 0.21035 0.0
C1202 C 0.90688 0.73366 0.21778 0.0
C1203 C 0.93794 0.73556 0.2067 0.0
C1204 C 0.55131 0.35966 0.1186 0.0
C1205 C 0.5334 0.33233 0.0997 0.0
C1206 C 0.55366 0.38976 0.10687 0.0
C1207 C 0.53876 0.39349 0.0756 0.0
H1208 H 0.56245 0.3581 0.14333 0.0
H1209 H 0.56608 0.4105 0.12298 0.0
S1210 S 0.4905 0.32982 0.01557 0.0
N1211 N 0.50157 0.31091 0.04738 0.0
N1212 N 0.50657 0.36787 0.02527 0.0
C1213 C 0.52226 0.36637 0.05558 0.0
C1214 C 0.51949 0.33562 0.06765 0.0
C1215 C 0.92499 0.29738 0.38435 0.0
C1216 C 0.94905 0.29167 0.36402 0.0
C1217 C 0.89305 0.29316 0.37131 0.0
C1218 C 0.88393 0.28331 0.3374 0.0
H1219 H 0.93057 0.30365 0.41094 0.0
H1220 H 0.87515 0.29606 0.38831 0.0
S1221 S 0.93823 0.27003 0.27253 0.0
N1222 N 0.96214 0.27923 0.30752 0.0
N1223 N 0.90179 0.27167 0.28284 0.0
C1224 C 0.90798 0.28032 0.31614 0.0
C1225 C 0.94068 0.28437 0.32952 0.0
C1226 C 0.00414 0.63642 0.61068 0.0
C1227 C 0.99834 0.66185 0.59242 0.0
C1228 C 0.0091 0.6075 0.59473 0.0
C1229 C 0.00794 0.60256 0.5598 0.0
H1230 H 0.00596 0.63915 0.63767 0.0
H1231 H 0.0142 0.58897 0.61007 0.0
S1232 S 0.99232 0.66104 0.50029 0.0
N1233 N 0.99092 0.67999 0.53732 0.0
N1234 N 0.99966 0.62518 0.50727 0.0
C1235 C 0.00112 0.62735 0.54107 0.0
C1236 C 0.99646 0.65709 0.55739 0.0
C1237 C 0.6021 0.75024 0.83321 0.0
C1238 C 0.60574 0.77224 0.86184 0.0
C1239 C 0.62809 0.74661 0.81493 0.0
C1240 C 0.65846 0.76528 0.82435 0.0
H1241 H 0.57904 0.73557 0.82497 0.0
H1242 H 0.6242 0.72947 0.79302 0.0
S1243 S 0.68033 0.82621 0.89772 0.0
N1244 N 0.64192 0.81261 0.899 0.0
N1245 N 0.69066 0.80628 0.86478 0.0
C1246 C 0.66234 0.78727 0.85315 0.0
C1247 C 0.63601 0.79061 0.87187 0.0
C1248 C 0.44278 0.51613 0.64072 0.0
C1249 C 0.45746 0.51576 0.67308 0.0
C1250 C 0.46082 0.51974 0.61336 0.0
C1251 C 0.49453 0.52341 0.61695 0.0
H1252 H 0.417 0.51354 0.63633 0.0
H1253 H 0.448 0.51963 0.58907 0.0
S1254 S 0.54493 0.52484 0.69671 0.0
N1255 N 0.50797 0.51972 0.70732 0.0
N1256 N 0.54187 0.52704 0.65606 0.0
C1257 C 0.50963 0.52356 0.64932 0.0
C1258 C 0.49115 0.51957 0.67725 0.0
C1259 C 0.7797 0.17857 0.9301 0.0
C1260 C 0.77355 0.19467 0.9599 0.0
C1261 C 0.78005 0.19335 0.90083 0.0
C1262 C 0.77424 0.2248 0.90022 0.0
H1263 H 0.78457 0.15436 0.92931 0.0
H1264 H 0.78503 0.1799 0.87851 0.0
S1265 S 0.75554 0.27691 0.97134 0.0
N1266 N 0.76037 0.24332 0.98713 0.0
N1267 N 0.76103 0.27137 0.93148 0.0
C1268 C 0.76704 0.24097 0.92955 0.0
C1269 C 0.76671 0.22581 0.9596 0.0
C1270 C 0.09645 0.50572 0.14282 0.0
C1271 C 0.08411 0.49226 0.17051 0.0
C1272 C 0.07634 0.50906 0.11484 0.0
C1273 C 0.043 0.49892 0.11319 0.0
H1274 H 0.12171 0.51532 0.14331 0.0
H1275 H 0.08706 0.52132 0.0951 0.0
S1276 S 0.9993 0.45706 0.17668 0.0
N1277 N 0.03695 0.46498 0.19303 0.0
N1278 N 0.99898 0.4713 0.13996 0.0
C1279 C 0.03055 0.48324 0.13961 0.0
C1280 C 0.05116 0.47978 0.16833 0.0
C1281 C 0.76436 0.80653 0.45785 0.0
C1282 C 0.76987 0.8402 0.46062 0.0
C1283 C 0.76251 0.78851 0.42683 0.0
C1284 C 0.76638 0.80342 0.39733 0.0
H1285 H 0.76087 0.7939 0.47974 0.0
H1286 H 0.75734 0.76268 0.42595 0.0
S1287 S 0.78378 0.89118 0.3915 0.0
N1288 N 0.78088 0.8878 0.43148 0.0
N1289 N 0.77779 0.85423 0.37338 0.0
C1290 C 0.77318 0.83717 0.4 0.0
C1291 C 0.77476 0.85546 0.43155 0.0
C1292 C 0.46825 0.53722 0.86585 0.0
C1293 C 0.45317 0.50883 0.8466 0.0
C1294 C 0.47874 0.53722 0.89968 0.0
C1295 C 0.47371 0.50899 0.91561 0.0
H1296 H 0.47112 0.55976 0.85494 0.0
H1297 H 0.48915 0.55979 0.91392 0.0
S1298 S 0.4374 0.42813 0.87619 0.0
N1299 N 0.43593 0.45135 0.84561 0.0
N1300 N 0.45429 0.45183 0.90957 0.0
C1301 C 0.45971 0.48035 0.89652 0.0
C1302 C 0.44985 0.48013 0.86187 0.0
C1303 C 0.79974 0.19901 0.16107 0.0
C1304 C 0.79295 0.21059 0.13036 0.0
C1305 C 0.79862 0.21746 0.19088 0.0
C1306 C 0.79113 0.24841 0.19132 0.0
H1307 H 0.80466 0.17495 0.16223 0.0
H1308 H 0.80224 0.2067 0.2138 0.0
S1309 S 0.77389 0.29093 0.11752 0.0
N1310 N 0.78036 0.25577 0.10184 0.0
N1311 N 0.77862 0.29071 0.15842 0.0
C1312 C 0.78615 0.26116 0.16083 0.0
C1313 C 0.787 0.24216 0.1302 0.0
C1314 C 0.05463 0.51517 0.33582 0.0
C1315 C 0.08821 0.51922 0.34106 0.0
C1316 C 0.0362 0.51907 0.36247 0.0
C1317 C 0.0508 0.52762 0.39508 0.0
H1318 H 0.04244 0.50879 0.31099 0.0
H1319 H 0.01039 0.51526 0.35755 0.0
S1320 S 0.13776 0.53914 0.4224 0.0
N1321 N 0.13521 0.53098 0.38158 0.0
N1322 N 0.10068 0.53866 0.43151 0.0
C1323 C 0.08438 0.5318 0.40067 0.0
C1324 C 0.10307 0.52749 0.37367 0.0
C1325 C 0.78018 0.80752 0.63527 0.0
C1326 C 0.76536 0.83463 0.63339 0.0
C1327 C 0.77385 0.78649 0.65988 0.0
C1328 C 0.75254 0.79177 0.68372 0.0
H1329 H 0.79734 0.80282 0.618 0.0
H1330 H 0.78677 0.76674 0.66105 0.0
S1331 S 0.70177 0.85464 0.68461 0.0
N1332 N 0.72458 0.86254 0.65429 0.0
N1333 N 0.71262 0.82298 0.7001 0.0
C1334 C 0.73589 0.81743 0.68055 0.0
C1335 C 0.74235 0.83888 0.6556 0.0
C1336 C 0.66651 0.44173 0.52087 0.0
C1337 C 0.69919 0.45007 0.53225 0.0
C1338 C 0.64487 0.4618 0.52929 0.0
C1339 C 0.65512 0.49088 0.54934 0.0
H1340 H 0.65759 0.41972 0.50504 0.0
H1341 H 0.61998 0.45484 0.51948 0.0
S1342 S 0.73723 0.52283 0.58775 0.0
N1343 N 0.74027 0.48882 0.56643 0.0
N1344 N 0.69926 0.52657 0.58164 0.0
C1345 C 0.68738 0.49934 0.56145 0.0
C1346 C 0.70951 0.47887 0.5531 0.0
C1347 C 0.14968 0.09951 0.52925 0.0
C1348 C 0.16821 0.08807 0.50523 0.0
C1349 C 0.11937 0.08293 0.53374 0.0
C1350 C 0.10605 0.05401 0.51447 0.0
H1351 H 0.15877 0.12143 0.54517 0.0
H1352 H 0.10639 0.09288 0.55279 0.0
S1353 S 0.1437 0.01445 0.44672 0.0
N1354 N 0.17048 0.04642 0.46095 0.0
N1355 N 0.11327 0.01517 0.46937 0.0
C1356 C 0.12409 0.04229 0.49007 0.0
C1357 C 0.15516 0.05932 0.48544 0.0
C1358 C 0.17381 0.92031 0.78198 0.0
C1359 C 0.19342 0.94911 0.79573 0.0
C1360 C 0.1859 0.89174 0.77806 0.0
C1361 C 0.21823 0.89068 0.78732 0.0
H1362 H 0.14867 0.91963 0.77449 0.0
H1363 H 0.1696 0.8701 0.76802 0.0
S1364 S 0.27997 0.9591 0.82435 0.0
N1365 N 0.24716 0.97472 0.81848 0.0
N1366 N 0.26988 0.92077 0.81064 0.0
C1367 C 0.23846 0.91929 0.80028 0.0
C1368 C 0.22605 0.94854 0.80462 0.0
C1369 C 0.36404 0.95721 0.98651 0.0
C1370 C 0.35256 0.94872 0.0167 0.0
C1371 C 0.39558 0.97278 0.98559 0.0
C1372 C 0.41682 0.98022 0.0148 0.0
H1373 H 0.34877 0.95125 0.96329 0.0
H1374 H 0.40352 0.97831 0.96168 0.0
S1375 S 0.39787 0.96421 0.10054 0.0
N1376 N 0.36441 0.94992 0.07668 0.0
N1377 N 0.42352 0.97891 0.07509 0.0
C1378 C 0.40527 0.97254 0.0453 0.0
C1379 C 0.37318 0.95688 0.04622 0.0
C1380 C 0.87358 0.63119 0.7735 0.0
C1381 C 0.85697 0.60027 0.77598 0.0
C1382 C 0.85716 0.65635 0.76805 0.0
C1383 C 0.82359 0.65148 0.76441 0.0
H1384 H 0.89948 0.63624 0.77663 0.0
H1385 H 0.87087 0.68007 0.76768 0.0
S1386 S 0.76862 0.57513 0.76755 0.0
N1387 N 0.80475 0.56598 0.77336 0.0
N1388 N 0.77408 0.61368 0.7626 0.0
C1389 C 0.80654 0.62059 0.76537 0.0
C1390 C 0.82322 0.59485 0.7713 0.0
C1391 C 0.84428 0.57296 0.02289 0.0
C1392 C 0.84254 0.5994 0.00456 0.0
C1393 C 0.8731 0.56116 0.02829 0.0
C1394 C 0.90114 0.57512 0.01518 0.0
H1395 H 0.82345 0.56179 0.03386 0.0
H1396 H 0.87342 0.54114 0.04302 0.0
S1397 S 0.90825 0.64352 0.96322 0.0
N1398 N 0.87076 0.63823 0.97209 0.0
N1399 N 0.9245 0.61613 0.98154 0.0
C1400 C 0.89928 0.60107 0.996 0.0
C1401 C 0.87013 0.61319 0.99088 0.0
C1402 C 0.19296 0.14229 0.77966 0.0
C1403 C 0.20348 0.12442 0.80473 0.0
C1404 C 0.21016 0.17214 0.77463 0.0
C1405 C 0.23869 0.18569 0.79452 0.0
H1406 H 0.17136 0.13298 0.76333 0.0
H1407 H 0.20094 0.18467 0.75479 0.0
S1408 S 0.27543 0.14979 0.86527 0.0
N1409 N 0.24361 0.12296 0.85069 0.0
N1410 N 0.27592 0.17947 0.84145 0.0
C1411 C 0.2494 0.1683 0.82 0.0
C1412 C 0.23181 0.13762 0.82507 0.0
C1413 C 0.36728 0.91489 0.31593 0.0
C1414 C 0.35441 0.93699 0.29743 0.0
C1415 C 0.3541 0.88232 0.31086 0.0
C1416 C 0.3281 0.87103 0.28683 0.0
H1417 H 0.38823 0.92272 0.33363 0.0
H1418 H 0.36509 0.86581 0.32486 0.0
S1419 S 0.28566 0.91934 0.23234 0.0
N1420 N 0.31361 0.9457 0.25516 0.0
N1421 N 0.28943 0.88421 0.24506 0.0
C1422 C 0.31416 0.89303 0.26927 0.0
C1423 C 0.32724 0.92621 0.27473 0.0
C1424 C 0.51305 0.37665 0.6208 0.0
C1425 C 0.53411 0.35636 0.61043 0.0
C1426 C 0.51412 0.40692 0.60959 0.0
C1427 C 0.53569 0.41766 0.587 0.0
H1428 H 0.49651 0.36975 0.63889 0.0
H1429 H 0.49882 0.42255 0.61964 0.0
S1430 S 0.59513 0.37387 0.55114 0.0
N1431 N 0.57665 0.34908 0.57541 0.0
N1432 N 0.57803 0.40595 0.55386 0.0
C1433 C 0.55578 0.39722 0.57506 0.0
C1434 C 0.55511 0.3665 0.58687 0.0
C1435 C 0.39493 0.72401 0.33984 0.0
C1436 C 0.42104 0.7494 0.34374 0.0
C1437 C 0.3653 0.72755 0.32379 0.0
C1438 C 0.36088 0.75678 0.31199 0.0
H1439 H 0.39739 0.70145 0.34938 0.0
H1440 H 0.34549 0.7077 0.32154 0.0
S1441 S 0.42125 0.83089 0.3181 0.0
N1442 N 0.44039 0.80474 0.33521 0.0
N1443 N 0.38461 0.81157 0.30627 0.0
C1444 C 0.38674 0.78225 0.31604 0.0
C1445 C 0.41692 0.7785 0.33159 0.0
C1446 C 0.01233 0.67972 0.08593 0.0
C1447 C 0.03746 0.69136 0.11105 0.0
C1448 C 0.00529 0.64714 0.07427 0.0
C1449 C 0.02314 0.6254 0.08749 0.0
H1450 H 0.99686 0.69545 0.07659 0.0
H1451 H 0.98455 0.63861 0.05646 0.0
S1452 S 0.09429 0.64427 0.14929 0.0
N1453 N 0.08277 0.67903 0.14533 0.0
N1454 N 0.06872 0.6177 0.12394 0.0
C1455 C 0.04951 0.63693 0.11079 0.0
C1456 C 0.05696 0.67003 0.12239 0.0
C1457 C 0.10549 0.28584 0.83817 0.0
C1458 C 0.08613 0.25618 0.84098 0.0
C1459 C 0.13553 0.28751 0.826 0.0
C1460 C 0.14746 0.25955 0.81686 0.0
H1461 H 0.09774 0.30798 0.84623 0.0
H1462 H 0.15013 0.31078 0.82534 0.0
S1463 S 0.10548 0.17603 0.81725 0.0
N1464 N 0.08032 0.19826 0.83157 0.0
N1465 N 0.13704 0.20141 0.8094 0.0
C1466 C 0.12793 0.22978 0.8184 0.0
C1467 C 0.09716 0.22808 0.83024 0.0
C1468 C 0.51205 0.687 0.98468 0.0
C1469 C 0.52637 0.69462 0.95568 0.0
C1470 C 0.51129 0.65657 0.9959 0.0
C1471 C 0.5255 0.63323 0.97885 0.0
H1472 H 0.5007 0.70434 0.99823 0.0
H1473 H 0.49969 0.65137 0.01811 0.0
S1474 S 0.56764 0.6427 0.90247 0.0
N1475 N 0.55586 0.67725 0.91078 0.0
N1476 N 0.55508 0.62052 0.93184 0.0
C1477 C 0.54052 0.64109 0.95017 0.0
C1478 C 0.54079 0.6717 0.9386 0.0
C1479 C 0.12522 0.75988 0.6641 0.0
C1480 C 0.10114 0.75836 0.68597 0.0
C1481 C 0.15753 0.76751 0.6761 0.0
C1482 C 0.16695 0.77356 0.71043 0.0
H1483 H 0.11914 0.75615 0.63736 0.0
H1484 H 0.17519 0.76921 0.65827 0.0
S1485 S 0.11332 0.77029 0.77832 0.0
N1486 N 0.08889 0.76181 0.74367 0.0
N1487 N 0.14976 0.77589 0.76638 0.0
C1488 C 0.14318 0.77074 0.73271 0.0
C1489 C 0.11021 0.76321 0.72044 0.0
C1490 C 0.04208 0.38048 0.4949 0.0
C1491 C 0.05145 0.37688 0.46239 0.0
C1492 C 0.03839 0.4105 0.50981 0.0
C1493 C 0.0436 0.43787 0.49256 0.0
H1494 H 0.03643 0.3598 0.50854 0.0
H1495 H 0.03012 0.41204 0.5344 0.0
S1496 S 0.0721 0.44231 0.40869 0.0
N1497 N 0.06865 0.4041 0.41477 0.0
N1498 N 0.06127 0.46018 0.44264 0.0
C1499 C 0.05427 0.43489 0.46071 0.0
C1500 C 0.05834 0.4045 0.44568 0.0
C1501 C 0.4098 0.27221 0.18397 0.0
C1502 C 0.43018 0.2511 0.19385 0.0
C1503 C 0.37999 0.27159 0.19629 0.0
C1504 C 0.36982 0.25033 0.21939 0.0
H1505 H 0.41644 0.2887 0.16576 0.0
H1506 H 0.36436 0.28717 0.18691 0.0
S1507 S 0.41363 0.18999 0.25312 0.0
N1508 N 0.43787 0.20829 0.22825 0.0
N1509 N 0.38184 0.20757 0.25164 0.0
C1510 C 0.39021 0.22982 0.23037 0.0
C1511 C 0.42047 0.23014 0.21757 0.0
C1512 C 0.61462 0.51592 0.41797 0.0
C1513 C 0.60268 0.5291 0.38978 0.0
C1514 C 0.59757 0.513 0.44613 0.0
C1515 C 0.56779 0.52322 0.44749 0.0
H1516 H 0.63735 0.50764 0.4183 0.0
H1517 H 0.60802 0.50275 0.46711 0.0
S1518 S 0.52655 0.56069 0.38067 0.0
N1519 N 0.55947 0.55309 0.36522 0.0
N1520 N 0.52758 0.54789 0.41804 0.0
C1521 C 0.5556 0.53652 0.41943 0.0
C1522 C 0.57298 0.5394 0.39068 0.0
C1523 C 0.29255 0.82861 0.11348 0.0
C1524 C 0.26709 0.84368 0.10289 0.0
C1525 C 0.29393 0.81649 0.14455 0.0
C1526 C 0.27034 0.81989 0.16623 0.0
H1527 H 0.31146 0.82616 0.09763 0.0
H1528 H 0.31396 0.80504 0.1519 0.0
S1529 S 0.19916 0.85852 0.15004 0.0
N1530 N 0.21787 0.86151 0.11606 0.0
N1531 N 0.22081 0.8398 0.17487 0.0
C1532 C 0.2448 0.83513 0.15582 0.0
C1533 C 0.24306 0.84674 0.12398 0.0
C1534 C 0.99302 0.53963 0.89498 0.0
C1535 C 0.95944 0.53528 0.89019 0.0
C1536 C 0.00887 0.53479 0.9255 0.0
C1537 C 0.99166 0.52463 0.95205 0.0
H1538 H 0.00714 0.54649 0.87487 0.0
H1539 H 0.03476 0.53837 0.928 0.0
S1540 S 0.90291 0.50733 0.95068 0.0
N1541 N 0.90942 0.51983 0.91402 0.0
N1542 N 0.93869 0.50854 0.97028 0.0
C1543 C 0.95791 0.51983 0.9472 0.0
C1544 C 0.94195 0.52575 0.91659 0.0
C1545 C 0.27563 0.21095 0.61574 0.0
C1546 C 0.28086 0.17991 0.60576 0.0
C1547 C 0.27932 0.22299 0.64966 0.0
C1548 C 0.28862 0.20452 0.6749 0.0
H1549 H 0.26817 0.2259 0.59727 0.0
H1550 H 0.27499 0.24699 0.6561 0.0
S1551 S 0.30673 0.12211 0.66148 0.0
N1552 N 0.2968 0.13137 0.62373 0.0
N1553 N 0.30371 0.15359 0.6869 0.0
C1554 C 0.29427 0.17353 0.665 0.0
C1555 C 0.29042 0.16135 0.63064 0.0
C1556 C 0.62907 0.53924 0.18222 0.0
C1557 C 0.61215 0.52314 0.20604 0.0
C1558 C 0.61754 0.53496 0.14837 0.0
C1559 C 0.58843 0.51478 0.13703 0.0
H1560 H 0.65173 0.55494 0.18966 0.0
H1561 H 0.63176 0.54726 0.13085 0.0
S1562 S 0.53537 0.46622 0.18883 0.0
N1563 N 0.56501 0.4856 0.21565 0.0
N1564 N 0.5431 0.4781 0.15212 0.0
C1565 C 0.5709 0.49901 0.16058 0.0
C1566 C 0.58281 0.50307 0.19507 0.0
C1567 C 0.23459 0.82135 0.90764 0.0
C1568 C 0.25784 0.82246 0.93466 0.0
C1569 C 0.23672 0.80406 0.87719 0.0
C1570 C 0.26201 0.78715 0.87284 0.0
H1571 H 0.21527 0.83484 0.90961 0.0
H1572 H 0.21899 0.80477 0.85656 0.0
S1573 S 0.32859 0.78176 0.93585 0.0
N1574 N 0.30652 0.80433 0.95531 0.0
N1575 N 0.31023 0.77184 0.89795 0.0
C1576 C 0.28457 0.78683 0.89999 0.0
C1577 C 0.28256 0.80453 0.93097 0.0
C1578 C 0.92717 0.51838 0.67781 0.0
C1579 C 0.94754 0.51974 0.70722 0.0
C1580 C 0.93893 0.51648 0.64668 0.0
C1581 C 0.97132 0.51511 0.64381 0.0
H1582 H 0.90202 0.51944 0.67882 0.0
H1583 H 0.92249 0.51611 0.62466 0.0
S1584 S 0.03442 0.51735 0.71319 0.0
N1585 N 0.00161 0.5195 0.73171 0.0
N1586 N 0.02364 0.51508 0.67276 0.0
C1587 C 0.9919 0.51585 0.67292 0.0
C1588 C 0.98003 0.51847 0.70479 0.0
C1589 C 0.28339 0.18726 0.39808 0.0
C1590 C 0.26317 0.19268 0.42296 0.0
C1591 C 0.28449 0.20473 0.37011 0.0
C1592 C 0.26527 0.22826 0.36549 0.0
H1593 H 0.29867 0.16944 0.40029 0.0
H1594 H 0.30045 0.19957 0.3518 0.0
S1595 S 0.20599 0.24963 0.42196 0.0
N1596 N 0.22233 0.22231 0.44044 0.0
N1597 N 0.22396 0.25466 0.38771 0.0
C1598 C 0.24469 0.23372 0.3901 0.0
C1599 C 0.24374 0.21606 0.41878 0.0
C1600 C 0.36467 0.57824 0.53448 0.0
C1601 C 0.36594 0.61123 0.53212 0.0
C1602 C 0.39183 0.56402 0.53125 0.0
C1603 C 0.42096 0.58239 0.52555 0.0
H1604 H 0.34283 0.56344 0.53985 0.0
H1605 H 0.39043 0.53893 0.53483 0.0
S1606 S 0.43687 0.66888 0.51525 0.0
N1607 N 0.39868 0.66131 0.52164 0.0
N1608 N 0.4497 0.63446 0.51644 0.0
C1609 C 0.42239 0.61496 0.52192 0.0
C1610 C 0.39481 0.62944 0.5249 0.0
C1611 C 0.88323 0.97538 0.57277 0.0
C1612 C 0.87055 0.94667 0.55259 0.0
C1613 C 0.91342 0.9933 0.56837 0.0
C1614 C 0.932 0.98316 0.5436 0.0
H1615 H 0.86995 0.98386 0.59236 0.0
H1616 H 0.9226 0.01473 0.58499 0.0
S1617 S 0.90806 0.91182 0.48163 0.0
N1618 N 0.87822 0.91056 0.5052 0.0
N1619 N 0.93404 0.94391 0.49691 0.0
C1620 C 0.91898 0.95513 0.52261 0.0
C1621 C 0.88857 0.937 0.52711 0.0
C1622 C 0.83358 0.10144 0.26291 0.0
C1623 C 0.86658 0.10071 0.26295 0.0
C1624 C 0.82213 0.13059 0.26761 0.0
C1625 C 0.84324 0.1601 0.27189 0.0
H1626 H 0.81647 0.07931 0.25952 0.0
H1627 H 0.79658 0.13004 0.26711 0.0
S1628 S 0.93184 0.1714 0.27434 0.0
N1629 N 0.92011 0.13228 0.26818 0.0
N1630 N 0.89879 0.18662 0.27649 0.0
C1631 C 0.87625 0.15961 0.27205 0.0
C1632 C 0.88786 0.13008 0.26772 0.0
C1633 C 0.66778 0.0856 0.05099 0.0
C1634 C 0.68674 0.09816 0.02679 0.0
C1635 C 0.63487 0.07442 0.04316 0.0
C1636 C 0.61996 0.07655 0.01128 0.0
H1637 H 0.67845 0.08433 0.07599 0.0
H1638 H 0.62089 0.06474 0.06229 0.0
S1639 S 0.65879 0.10838 0.93957 0.0
N1640 N 0.68812 0.11222 0.96977 0.0
N1641 N 0.6263 0.09219 0.95559 0.0
C1642 C 0.63859 0.08936 0.9871 0.0
C1643 C 0.67203 0.09991 0.99472 0.0
C1644 C 0.19422 0.42025 0.2983 0.0
C1645 C 0.18746 0.43192 0.26747 0.0
C1646 C 0.20433 0.39069 0.29992 0.0
C1647 C 0.20738 0.37157 0.27071 0.0
H1648 H 0.19125 0.43386 0.32134 0.0
H1649 H 0.20885 0.38239 0.32415 0.0
S1650 S 0.19311 0.39177 0.18375 0.0
N1651 N 0.18528 0.42261 0.20718 0.0
N1652 N 0.20374 0.36694 0.20999 0.0
C1653 C 0.20123 0.38331 0.23972 0.0
C1654 C 0.19144 0.41356 0.23815 0.0
C1655 C 0.16601 0.41185 0.05086 0.0
C1656 C 0.19577 0.43239 0.05702 0.0
C1657 C 0.13728 0.42383 0.04871 0.0
C1658 C 0.13693 0.45692 0.05198 0.0
H1659 H 0.16479 0.38616 0.04775 0.0
H1660 H 0.11505 0.40688 0.04396 0.0
S1661 S 0.20804 0.52114 0.06917 0.0
N1662 N 0.22305 0.48773 0.06724 0.0
N1663 N 0.1688 0.51017 0.06239 0.0
C1664 C 0.16639 0.47787 0.05811 0.0
C1665 C 0.19584 0.46563 0.0609 0.0
C1666 C 0.8148 0.91833 0.26828 0.0
C1667 C 0.84171 0.92272 0.24993 0.0
C1668 C 0.79779 0.88754 0.27138 0.0
C1669 C 0.8072 0.85997 0.25645 0.0
H1670 H 0.80737 0.93876 0.28121 0.0
H1671 H 0.77802 0.88525 0.2867 0.0
S1672 S 0.8734 0.85835 0.20256 0.0
N1673 N 0.875 0.89668 0.2143 0.0
N1674 N 0.84328 0.83934 0.22023 0.0
C1675 C 0.83311 0.86418 0.2369 0.0
C1676 C 0.85027 0.89536 0.2336 0.0
C1677 C 0.71688 0.12138 0.76662 0.0
C1678 C 0.68957 0.10676 0.78025 0.0
C1679 C 0.72816 0.15441 0.77353 0.0
C1680 C 0.7127 0.17366 0.79463 0.0
H1681 H 0.7292 0.10735 0.75012 0.0
H1682 H 0.74913 0.16488 0.76231 0.0
S1683 S 0.64173 0.14554 0.83882 0.0
N1684 N 0.64839 0.11323 0.81706 0.0
N1685 N 0.66949 0.1748 0.83042 0.0
C1686 C 0.68572 0.15888 0.80893 0.0
C1687 C 0.6742 0.12554 0.80165 0.0
loop_
_geom_bond_atom_site_label_1
_geom_bond_atom_site_label_2
_geom_bond_distance
_geom_bond_site_symmetry_2
_ccdc_geom_bond_type
In0 O1 2.294 . S
In0 O2 2.326 . S
In0 O6 2.266 1_455 S
In0 O7 2.326 1_455 S
In0 O8 2.266 . S
In0 O9 2.326 . S
In0 O11 2.294 . S
In0 O12 2.326 . S
O1 In0 2.294 . S
O1 C10 1.240 . S
O2 In0 2.326 . S
O2 C10 1.252 . S
C3 O6 1.252 . S
C3 O7 1.260 . S
C4 O11 1.240 . S
C4 O12 1.252 . S
C5 O8 1.252 . S
C5 O9 1.260 . S
O6 In0 2.266 1_655 S
O6 C3 1.252 . S
O7 In0 2.326 1_655 S
O7 C3 1.260 . S
O8 In0 2.266 . S
O8 C5 1.252 . S
O9 In0 2.326 . S
O9 C5 1.260 . S
C10 O1 1.240 . S
C10 O2 1.252 . S
O11 In0 2.294 . S
O11 C4 1.240 . S
O12 In0 2.326 . S
O12 C4 1.252 . S
In13 O14 2.294 . S
In13 O15 2.326 . S
In13 O19 2.266 1_455 S
In13 O20 2.326 . S
In13 O21 2.266 1_455 S
In13 O22 2.326 1_455 S
In13 O24 2.294 . S
In13 O25 2.326 . S
O14 In13 2.294 . S
O14 C23 1.240 . S
O15 In13 2.326 . S
O15 C23 1.252 . S
C16 O19 1.253 . S
C16 O20 1.259 1_655 S
C17 O24 1.240 . S
C17 O25 1.252 . S
C18 O21 1.252 . S
C18 O22 1.260 . S
O19 In13 2.266 1_655 S
O19 C16 1.253 . S
O20 In13 2.326 . S
O20 C16 1.259 1_455 S
O21 In13 2.266 1_655 S
O21 C18 1.252 . S
O22 In13 2.326 1_655 S
O22 C18 1.260 . S
C23 O14 1.240 . S
C23 O15 1.252 . S
O24 In13 2.294 . S
O24 C17 1.240 . S
O25 In13 2.326 . S
O25 C17 1.252 . S
In26 O27 2.294 . S
In26 O28 2.326 . S
In26 O32 2.266 . S
In26 O33 2.326 . S
In26 O34 2.266 . S
In26 O35 2.326 . S
In26 O37 2.294 . S
In26 O38 2.326 . S
O27 In26 2.294 . S
O27 C36 1.240 . S
O28 In26 2.326 . S
O28 C36 1.252 . S
C29 O32 1.252 . S
C29 O33 1.260 . S
C30 O37 1.240 . S
C30 O38 1.252 . S
C31 O34 1.252 . S
C31 O35 1.260 . S
O32 In26 2.266 . S
O32 C29 1.252 . S
O33 In26 2.326 . S
O33 C29 1.260 . S
O34 In26 2.266 . S
O34 C31 1.252 . S
O35 In26 2.326 . S
O35 C31 1.260 . S
C36 O27 1.240 . S
C36 O28 1.252 . S
O37 In26 2.294 . S
O37 C30 1.240 . S
O38 In26 2.326 . S
O38 C30 1.252 . S
In39 O40 2.294 . S
In39 O41 2.326 . S
In39 O45 2.266 . S
In39 O46 2.326 . S
In39 O47 2.266 . S
In39 O48 2.326 . S
In39 O50 2.294 . S
In39 O51 2.326 . S
O40 In39 2.294 . S
O40 C49 1.240 . S
O41 In39 2.326 . S
O41 C49 1.252 . S
C42 O45 1.252 . S
C42 O46 1.260 . S
C43 O50 1.240 . S
C43 O51 1.252 . S
C44 O47 1.252 . S
C44 O48 1.260 . S
O45 In39 2.266 . S
O45 C42 1.252 . S
O46 In39 2.326 . S
O46 C42 1.260 . S
O47 In39 2.266 . S
O47 C44 1.252 . S
O48 In39 2.326 . S
O48 C44 1.260 . S
C49 O40 1.240 . S
C49 O41 1.252 . S
O50 In39 2.294 . S
O50 C43 1.240 . S
O51 In39 2.326 . S
O51 C43 1.252 . S
In52 O53 2.294 . S
In52 O54 2.326 . S
In52 O58 2.266 . S
In52 O59 2.326 . S
In52 O60 2.266 . S
In52 O61 2.326 . S
In52 O63 2.294 . S
In52 O64 2.326 1_455 S
O53 In52 2.294 . S
O53 C62 1.240 . S
O54 In52 2.326 . S
O54 C62 1.252 . S
C55 O58 1.252 . S
C55 O59 1.260 . S
C56 O63 1.240 1_655 S
C56 O64 1.252 . S
C57 O60 1.252 . S
C57 O61 1.260 . S
O58 In52 2.266 . S
O58 C55 1.252 . S
O59 In52 2.326 . S
O59 C55 1.260 . S
O60 In52 2.266 . S
O60 C57 1.252 . S
O61 In52 2.326 . S
O61 C57 1.260 . S
C62 O53 1.240 . S
C62 O54 1.252 . S
O63 In52 2.294 . S
O63 C56 1.240 1_455 S
O64 In52 2.326 1_655 S
O64 C56 1.252 . S
In65 O66 2.294 . S
In65 O67 2.326 . S
In65 O71 2.266 . S
In65 O72 2.326 . S
In65 O73 2.266 . S
In65 O74 2.326 . S
In65 O76 2.294 . S
In65 O77 2.326 . S
O66 In65 2.294 . S
O66 C75 1.240 . S
O67 In65 2.326 . S
O67 C75 1.252 . S
C68 O71 1.252 . S
C68 O72 1.260 . S
C69 O76 1.240 . S
C69 O77 1.252 . S
C70 O73 1.252 . S
C70 O74 1.260 . S
O71 In65 2.266 . S
O71 C68 1.252 . S
O72 In65 2.326 . S
O72 C68 1.260 . S
O73 In65 2.266 . S
O73 C70 1.252 . S
O74 In65 2.326 . S
O74 C70 1.260 . S
C75 O66 1.240 . S
C75 O67 1.252 . S
O76 In65 2.294 . S
O76 C69 1.240 . S
O77 In65 2.326 . S
O77 C69 1.252 . S
In78 O79 2.294 . S
In78 O80 2.326 . S
In78 O84 2.266 . S
In78 O85 2.326 . S
In78 O86 2.266 . S
In78 O87 2.326 . S
In78 O89 2.294 . S
In78 O90 2.326 . S
O79 In78 2.294 . S
O79 C88 1.240 . S
O80 In78 2.326 . S
O80 C88 1.252 . S
C81 O84 1.252 . S
C81 O85 1.260 . S
C82 O89 1.240 . S
C82 O90 1.252 . S
C83 O86 1.252 . S
C83 O87 1.260 . S
O84 In78 2.266 . S
O84 C81 1.252 . S
O85 In78 2.326 . S
O85 C81 1.260 . S
O86 In78 2.266 . S
O86 C83 1.252 . S
O87 In78 2.326 . S
O87 C83 1.260 . S
C88 O79 1.240 . S
C88 O80 1.252 . S
O89 In78 2.294 . S
O89 C82 1.240 . S
O90 In78 2.326 . S
O90 C82 1.252 . S
In91 O92 2.294 . S
In91 O93 2.326 . S
In91 O97 2.266 . S
In91 O98 2.326 . S
In91 O99 2.266 1_455 S
In91 O100 2.326 1_455 S
In91 O102 2.294 . S
In91 O103 2.326 . S
O92 In91 2.294 . S
O92 C101 1.240 . S
O93 In91 2.326 . S
O93 C101 1.252 . S
C94 O97 1.252 . S
C94 O98 1.260 . S
C95 O102 1.240 . S
C95 O103 1.252 . S
C96 O99 1.252 . S
C96 O100 1.260 . S
O97 In91 2.266 . S
O97 C94 1.252 . S
O98 In91 2.326 . S
O98 C94 1.260 . S
O99 In91 2.266 1_655 S
O99 C96 1.252 . S
O100 In91 2.326 1_655 S
O100 C96 1.260 . S
C101 O92 1.240 . S
C101 O93 1.252 . S
O102 In91 2.294 . S
O102 C95 1.240 . S
O103 In91 2.326 . S
O103 C95 1.252 . S
In104 O105 2.294 . S
In104 O106 2.326 . S
In104 O110 2.266 . S
In104 O111 2.326 . S
In104 O112 2.266 1_545 S
In104 O113 2.326 1_545 S
In104 O115 2.294 . S
In104 O116 2.326 . S
O105 In104 2.294 . S
O105 C114 1.240 . S
O106 In104 2.326 . S
O106 C114 1.252 . S
C107 O110 1.252 . S
C107 O111 1.260 . S
C108 O115 1.240 . S
C108 O116 1.252 . S
C109 O112 1.252 . S
C109 O113 1.260 . S
O110 In104 2.266 . S
O110 C107 1.252 . S
O111 In104 2.326 . S
O111 C107 1.260 . S
O112 In104 2.266 1_565 S
O112 C109 1.252 . S
O113 In104 2.326 1_565 S
O113 C109 1.260 . S
C114 O105 1.240 . S
C114 O106 1.252 . S
O115 In104 2.294 . S
O115 C108 1.240 . S
O116 In104 2.326 . S
O116 C108 1.252 . S
In117 O118 2.294 . S
In117 O119 2.326 . S
In117 O123 2.266 . S
In117 O124 2.326 . S
In117 O125 2.266 . S
In117 O126 2.326 . S
In117 O128 2.294 . S
In117 O129 2.326 . S
O118 In117 2.294 . S
O118 C127 1.240 . S
O119 In117 2.326 . S
O119 C127 1.252 . S
C120 O123 1.252 . S
C120 O124 1.260 . S
C121 O128 1.240 . S
C121 O129 1.252 . S
C122 O125 1.252 . S
C122 O126 1.260 . S
O123 In117 2.266 . S
O123 C120 1.252 . S
O124 In117 2.326 . S
O124 C120 1.260 . S
O125 In117 2.266 . S
O125 C122 1.252 . S
O126 In117 2.326 . S
O126 C122 1.260 . S
C127 O118 1.240 . S
C127 O119 1.252 . S
O128 In117 2.294 . S
O128 C121 1.240 . S
O129 In117 2.326 . S
O129 C121 1.252 . S
In130 O131 2.294 . S
In130 O132 2.326 . S
In130 O136 2.266 . S
In130 O137 2.326 . S
In130 O138 2.266 . S
In130 O139 2.326 . S
In130 O141 2.294 1_545 S
In130 O142 2.326 1_545 S
O131 In130 2.294 . S
O131 C140 1.240 . S
O132 In130 2.326 . S
O132 C140 1.252 . S
C133 O136 1.252 . S
C133 O137 1.260 . S
C134 O141 1.240 . S
C134 O142 1.252 . S
C135 O138 1.252 . S
C135 O139 1.260 . S
O136 In130 2.266 . S
O136 C133 1.252 . S
O137 In130 2.326 . S
O137 C133 1.260 . S
O138 In130 2.266 . S
O138 C135 1.252 . S
O139 In130 2.326 . S
O139 C135 1.260 . S
C140 O131 1.240 . S
C140 O132 1.252 . S
O141 In130 2.294 1_565 S
O141 C134 1.240 . S
O142 In130 2.326 1_565 S
O142 C134 1.252 . S
In143 O144 2.294 . S
In143 O145 2.326 . S
In143 O149 2.266 1_554 S
In143 O150 2.326 1_554 S
In143 O151 2.266 . S
In143 O152 2.326 . S
In143 O154 2.294 . S
In143 O155 2.326 . S
O144 In143 2.294 . S
O144 C153 1.240 . S
O145 In143 2.326 . S
O145 C153 1.252 . S
C146 O149 1.252 . S
C146 O150 1.260 . S
C147 O154 1.240 . S
C147 O155 1.252 . S
C148 O151 1.252 . S
C148 O152 1.260 . S
O149 In143 2.266 1_556 S
O149 C146 1.252 . S
O150 In143 2.326 1_556 S
O150 C146 1.260 . S
O151 In143 2.266 . S
O151 C148 1.252 . S
O152 In143 2.326 . S
O152 C148 1.260 . S
C153 O144 1.240 . S
C153 O145 1.252 . S
O154 In143 2.294 . S
O154 C147 1.240 . S
O155 In143 2.326 . S
O155 C147 1.252 . S
In156 O157 2.294 . S
In156 O158 2.326 . S
In156 O162 2.266 . S
In156 O163 2.323 . S
In156 O164 2.266 . S
In156 O165 2.326 . S
In156 O167 2.294 . S
In156 O168 2.326 . S
O157 In156 2.294 . S
O157 C166 1.240 . S
O158 In156 2.326 . S
O158 C166 1.252 . S
C159 O162 1.252 1_556 S
C159 O163 1.260 1_556 S
C160 O167 1.240 . S
C160 O168 1.252 . S
C161 O164 1.252 . S
C161 O165 1.260 . S
O162 In156 2.266 . S
O162 C159 1.252 1_554 S
O163 In156 2.323 . S
O163 C159 1.260 1_554 S
O164 In156 2.266 . S
O164 C161 1.252 . S
O165 In156 2.326 . S
O165 C161 1.260 . S
C166 O157 1.240 . S
C166 O158 1.252 . S
O167 In156 2.294 . S
O167 C160 1.240 . S
O168 In156 2.326 . S
O168 C160 1.252 . S
In169 O170 2.294 . S
In169 O171 2.326 . S
In169 O175 2.266 . S
In169 O176 2.326 . S
In169 O177 2.266 . S
In169 O178 2.326 1_554 S
In169 O180 2.294 . S
In169 O181 2.326 . S
O170 In169 2.294 . S
O170 C179 1.240 . S
O171 In169 2.326 . S
O171 C179 1.252 . S
C172 O175 1.252 . S
C172 O176 1.260 . S
C173 O180 1.240 . S
C173 O181 1.252 . S
C174 O177 1.252 1_556 S
C174 O178 1.260 . S
O175 In169 2.266 . S
O175 C172 1.252 . S
O176 In169 2.326 . S
O176 C172 1.260 . S
O177 In169 2.266 . S
O177 C174 1.252 1_554 S
O178 In169 2.326 1_556 S
O178 C174 1.260 . S
C179 O170 1.240 . S
C179 O171 1.252 . S
O180 In169 2.294 . S
O180 C173 1.240 . S
O181 In169 2.326 . S
O181 C173 1.252 . S
In182 O183 2.294 . S
In182 O184 2.326 . S
In182 O188 2.266 . S
In182 O189 2.326 . S
In182 O190 2.266 . S
In182 O191 2.326 . S
In182 O193 2.294 . S
In182 O194 2.326 . S
O183 In182 2.294 . S
O183 C192 1.240 . S
O184 In182 2.326 . S
O184 C192 1.252 . S
C185 O188 1.252 . S
C185 O189 1.260 . S
C186 O193 1.240 . S
C186 O194 1.252 . S
C187 O190 1.252 . S
C187 O191 1.260 . S
O188 In182 2.266 . S
O188 C185 1.252 . S
O189 In182 2.326 . S
O189 C185 1.260 . S
O190 In182 2.266 . S
O190 C187 1.252 . S
O191 In182 2.326 . S
O191 C187 1.260 . S
C192 O183 1.240 . S
C192 O184 1.252 . S
O193 In182 2.294 . S
O193 C186 1.240 . S
O194 In182 2.326 . S
O194 C186 1.252 . S
In195 O196 2.294 . S
In195 O197 2.326 . S
In195 O201 2.266 . S
In195 O202 2.326 . S
In195 O203 2.266 . S
In195 O204 2.326 . S
In195 O206 2.294 . S
In195 O207 2.326 . S
O196 In195 2.294 . S
O196 C205 1.240 . S
O197 In195 2.326 . S
O197 C205 1.252 . S
C198 O201 1.252 . S
C198 O202 1.260 . S
C199 O206 1.240 . S
C199 O207 1.252 . S
C200 O203 1.252 . S
C200 O204 1.260 . S
O201 In195 2.266 . S
O201 C198 1.252 . S
O202 In195 2.326 . S
O202 C198 1.260 . S
O203 In195 2.266 . S
O203 C200 1.252 . S
O204 In195 2.326 . S
O204 C200 1.260 . S
C205 O196 1.240 . S
C205 O197 1.252 . S
O206 In195 2.294 . S
O206 C199 1.240 . S
O207 In195 2.326 . S
O207 C199 1.252 . S
In208 O209 2.294 . S
In208 O210 2.326 . S
In208 O214 2.266 . S
In208 O215 2.326 . S
In208 O216 2.266 1_545 S
In208 O217 2.326 1_545 S
In208 O219 2.294 . S
In208 O220 2.326 . S
O209 In208 2.294 . S
O209 C218 1.240 . S
O210 In208 2.326 . S
O210 C218 1.252 . S
C211 O214 1.252 . S
C211 O215 1.260 . S
C212 O219 1.240 . S
C212 O220 1.252 . S
C213 O216 1.252 . S
C213 O217 1.260 . S
O214 In208 2.266 . S
O214 C211 1.252 . S
O215 In208 2.326 . S
O215 C211 1.260 . S
O216 In208 2.266 1_565 S
O216 C213 1.252 . S
O217 In208 2.326 1_565 S
O217 C213 1.260 . S
C218 O209 1.240 . S
C218 O210 1.252 . S
O219 In208 2.294 . S
O219 C212 1.240 . S
O220 In208 2.326 . S
O220 C212 1.252 . S
In221 O222 2.294 . S
In221 O223 2.326 . S
In221 O227 2.266 . S
In221 O228 2.326 . S
In221 O229 2.266 . S
In221 O230 2.326 . S
In221 O232 2.294 . S
In221 O233 2.326 . S
O222 In221 2.294 . S
O222 C231 1.240 . S
O223 In221 2.326 . S
O223 C231 1.252 . S
C224 O227 1.252 . S
C224 O228 1.260 . S
C225 O232 1.240 . S
C225 O233 1.252 . S
C226 O229 1.252 . S
C226 O230 1.260 . S
O227 In221 2.266 . S
O227 C224 1.252 . S
O228 In221 2.326 . S
O228 C224 1.260 . S
O229 In221 2.266 . S
O229 C226 1.252 . S
O230 In221 2.326 . S
O230 C226 1.260 . S
C231 O222 1.240 . S
C231 O223 1.252 . S
O232 In221 2.294 . S
O232 C225 1.240 . S
O233 In221 2.326 . S
O233 C225 1.252 . S
In234 O235 2.294 . S
In234 O236 2.326 . S
In234 O240 2.266 . S
In234 O241 2.326 . S
In234 O242 2.266 . S
In234 O243 2.326 . S
In234 O245 2.294 . S
In234 O246 2.326 . S
O235 In234 2.294 . S
O235 C244 1.240 . S
O236 In234 2.326 . S
O236 C244 1.252 . S
C237 O240 1.252 . S
C237 O241 1.260 . S
C238 O245 1.240 . S
C238 O246 1.252 . S
C239 O242 1.252 . S
C239 O243 1.260 . S
O240 In234 2.266 . S
O240 C237 1.252 . S
O241 In234 2.326 . S
O241 C237 1.260 . S
O242 In234 2.266 . S
O242 C239 1.252 . S
O243 In234 2.326 . S
O243 C239 1.260 . S
C244 O235 1.240 . S
C244 O236 1.252 . S
O245 In234 2.294 . S
O245 C238 1.240 . S
O246 In234 2.326 . S
O246 C238 1.252 . S
In247 O248 2.294 1_545 S
In247 O249 2.326 1_545 S
In247 O253 2.266 . S
In247 O254 2.326 . S
In247 O255 2.266 . S
In247 O256 2.326 . S
In247 O258 2.294 1_545 S
In247 O259 2.326 1_545 S
O248 In247 2.294 1_565 S
O248 C257 1.240 . S
O249 In247 2.326 1_565 S
O249 C257 1.252 . S
C250 O253 1.252 . S
C250 O254 1.260 . S
C251 O258 1.240 . S
C251 O259 1.252 . S
C252 O255 1.252 . S
C252 O256 1.260 . S
O253 In247 2.266 . S
O253 C250 1.252 . S
O254 In247 2.326 . S
O254 C250 1.260 . S
O255 In247 2.266 . S
O255 C252 1.252 . S
O256 In247 2.326 . S
O256 C252 1.260 . S
C257 O248 1.240 . S
C257 O249 1.252 . S
O258 In247 2.294 1_565 S
O258 C251 1.240 . S
O259 In247 2.326 1_565 S
O259 C251 1.252 . S
In260 O261 2.294 . S
In260 O262 2.326 . S
In260 O266 2.266 1_554 S
In260 O267 2.325 1_554 S
In260 O268 2.264 1_554 S
In260 O269 2.322 1_554 S
In260 O271 2.296 . S
In260 O272 2.330 . S
O261 In260 2.294 . S
O261 C270 1.240 . S
O262 In260 2.326 . S
O262 C270 1.252 . S
C263 O266 1.252 . S
C263 O267 1.260 . S
C264 O271 1.240 . S
C264 O272 1.252 . S
C265 O268 1.252 . S
C265 O269 1.260 . S
O266 In260 2.266 1_556 S
O266 C263 1.252 . S
O267 In260 2.325 1_556 S
O267 C263 1.260 . S
O268 In260 2.264 1_556 S
O268 C265 1.252 . S
O269 In260 2.322 1_556 S
O269 C265 1.260 . S
C270 O261 1.240 . S
C270 O262 1.252 . S
O271 In260 2.296 . S
O271 C264 1.240 . S
O272 In260 2.330 . S
O272 C264 1.252 . S
In273 O274 2.294 . S
In273 O275 2.326 . S
In273 O279 2.266 . S
In273 O280 2.326 . S
In273 O281 2.266 . S
In273 O282 2.326 . S
In273 O284 2.294 . S
In273 O285 2.326 . S
O274 In273 2.294 . S
O274 C283 1.240 . S
O275 In273 2.326 . S
O275 C283 1.252 . S
C276 O279 1.252 . S
C276 O280 1.260 . S
C277 O284 1.240 . S
C277 O285 1.252 . S
C278 O281 1.252 . S
C278 O282 1.260 . S
O279 In273 2.266 . S
O279 C276 1.252 . S
O280 In273 2.326 . S
O280 C276 1.260 . S
O281 In273 2.266 . S
O281 C278 1.252 . S
O282 In273 2.326 . S
O282 C278 1.260 . S
C283 O274 1.240 . S
C283 O275 1.252 . S
O284 In273 2.294 . S
O284 C277 1.240 . S
O285 In273 2.326 . S
O285 C277 1.252 . S
In286 O287 2.294 . S
In286 O288 2.326 . S
In286 O292 2.266 . S
In286 O293 2.326 . S
In286 O294 2.266 . S
In286 O295 2.326 . S
In286 O297 2.294 . S
In286 O298 2.326 . S
O287 In286 2.294 . S
O287 C296 1.240 . S
O288 In286 2.326 . S
O288 C296 1.252 . S
C289 O292 1.252 . S
C289 O293 1.260 . S
C290 O297 1.240 . S
C290 O298 1.252 . S
C291 O294 1.252 . S
C291 O295 1.260 . S
O292 In286 2.266 . S
O292 C289 1.252 . S
O293 In286 2.326 . S
O293 C289 1.260 . S
O294 In286 2.266 . S
O294 C291 1.252 . S
O295 In286 2.326 . S
O295 C291 1.260 . S
C296 O287 1.240 . S
C296 O288 1.252 . S
O297 In286 2.294 . S
O297 C290 1.240 . S
O298 In286 2.326 . S
O298 C290 1.252 . S
In299 O300 2.294 . S
In299 O301 2.326 . S
In299 O305 2.266 . S
In299 O306 2.326 . S
In299 O307 2.266 . S
In299 O308 2.326 . S
In299 O310 2.294 . S
In299 O311 2.326 . S
O300 In299 2.294 . S
O300 C309 1.240 . S
O301 In299 2.326 . S
O301 C309 1.252 . S
C302 O305 1.252 . S
C302 O306 1.260 . S
C303 O310 1.240 . S
C303 O311 1.252 . S
C304 O307 1.252 . S
C304 O308 1.260 . S
O305 In299 2.266 . S
O305 C302 1.252 . S
O306 In299 2.326 . S
O306 C302 1.260 . S
O307 In299 2.266 . S
O307 C304 1.252 . S
O308 In299 2.326 . S
O308 C304 1.260 . S
C309 O300 1.240 . S
C309 O301 1.252 . S
O310 In299 2.294 . S
O310 C303 1.240 . S
O311 In299 2.326 . S
O311 C303 1.252 . S
Zn312 O318 1.971 . S
Zn312 O319 1.979 . S
Zn312 O323 2.007 1_545 S
Zn312 O328 1.979 . S
Zn313 O320 1.969 1_554 S
Zn313 O326 1.969 1_455 S
Zn313 O327 1.965 . S
Zn313 O329 2.024 . S
C314 O315 1.229 . S
C314 O323 1.058 . S
O315 C314 1.229 . S
C316 O317 1.229 1_554 S
C316 O329 1.058 . S
O317 C316 1.229 1_556 S
O318 Zn312 1.971 . S
O318 C321 1.267 1_545 S
O319 Zn312 1.979 . S
O319 C330 1.260 1_554 S
O320 Zn313 1.969 1_556 S
O320 C330 1.258 . S
C321 O318 1.267 1_565 S
C321 O322 1.228 . S
O322 C321 1.228 . S
O323 Zn312 2.007 1_565 S
O323 C314 1.058 . S
C324 O325 1.228 . S
C324 O326 1.267 . S
O325 C324 1.228 . S
O326 Zn313 1.969 1_655 S
O326 C324 1.267 . S
O327 Zn313 1.965 . S
O327 C331 1.260 . S
O328 Zn312 1.979 . S
O328 C331 1.258 . S
O329 Zn313 2.024 . S
O329 C316 1.058 . S
C330 O319 1.260 1_556 S
C330 O320 1.258 . S
C331 O327 1.260 . S
C331 O328 1.258 . S
Zn332 O338 1.969 . S
Zn332 O339 1.965 . S
Zn332 O343 2.024 . S
Zn332 O348 1.969 . S
Zn333 O340 1.969 . S
Zn333 O346 1.969 . S
Zn333 O347 1.965 . S
Zn333 O349 2.024 . S
C334 O335 1.229 . S
C334 O343 1.058 . S
O335 C334 1.229 . S
C336 O337 1.229 . S
C336 O349 1.058 . S
O337 C336 1.229 . S
O338 Zn332 1.969 . S
O338 C341 1.267 . S
O339 Zn332 1.965 . S
O339 C350 1.260 . S
O340 Zn333 1.969 . S
O340 C350 1.258 . S
C341 O338 1.267 . S
C341 O342 1.228 . S
O342 C341 1.228 . S
O343 Zn332 2.024 . S
O343 C334 1.058 . S
C344 O345 1.228 . S
C344 O346 1.267 . S
O345 C344 1.228 . S
O346 Zn333 1.969 . S
O346 C344 1.267 . S
O347 Zn333 1.965 . S
O347 C351 1.260 . S
O348 Zn332 1.969 . S
O348 C351 1.258 . S
O349 Zn333 2.024 . S
O349 C336 1.058 . S
C350 O339 1.260 . S
C350 O340 1.258 . S
C351 O347 1.260 . S
C351 O348 1.258 . S
Zn352 O358 1.969 . S
Zn352 O359 1.965 . S
Zn352 O363 2.024 . S
Zn352 O368 1.969 . S
Zn353 O360 1.969 . S
Zn353 O366 1.969 . S
Zn353 O367 1.949 1_565 S
Zn353 O369 2.024 . S
C354 O355 1.229 . S
C354 O363 1.058 . S
O355 C354 1.229 . S
C356 O357 1.229 . S
C356 O369 1.058 . S
O357 C356 1.229 . S
O358 Zn352 1.969 . S
O358 C361 1.267 . S
O359 Zn352 1.965 . S
O359 C370 1.260 . S
O360 Zn353 1.969 . S
O360 C370 1.258 1_565 S
C361 O358 1.267 . S
C361 O362 1.228 . S
O362 C361 1.228 . S
O363 Zn352 2.024 . S
O363 C354 1.058 . S
C364 O365 1.228 . S
C364 O366 1.267 . S
O365 C364 1.228 . S
O366 Zn353 1.969 . S
O366 C364 1.267 . S
O367 Zn353 1.949 1_545 S
O367 C371 1.265 . S
O368 Zn352 1.969 . S
O368 C371 1.258 . S
O369 Zn353 2.024 . S
O369 C356 1.058 . S
C370 O359 1.260 . S
C370 O360 1.258 1_545 S
C371 O367 1.265 . S
C371 O368 1.258 . S
Zn372 O378 1.969 . S
Zn372 O379 1.965 . S
Zn372 O383 2.024 . S
Zn372 O388 1.969 . S
Zn373 O380 1.969 . S
Zn373 O386 1.969 . S
Zn373 O387 1.965 . S
Zn373 O389 2.024 . S
C374 O375 1.229 . S
C374 O383 1.058 . S
O375 C374 1.229 . S
C376 O377 1.229 . S
C376 O389 1.058 . S
O377 C376 1.229 . S
O378 Zn372 1.969 . S
O378 C381 1.267 . S
O379 Zn372 1.965 . S
O379 C390 1.260 . S
O380 Zn373 1.969 . S
O380 C390 1.258 . S
C381 O378 1.267 . S
C381 O382 1.228 . S
O382 C381 1.228 . S
O383 Zn372 2.024 . S
O383 C374 1.058 . S
C384 O385 1.228 . S
C384 O386 1.267 . S
O385 C384 1.228 . S
O386 Zn373 1.969 . S
O386 C384 1.267 . S
O387 Zn373 1.965 . S
O387 C391 1.260 . S
O388 Zn372 1.969 . S
O388 C391 1.258 . S
O389 Zn373 2.024 . S
O389 C376 1.058 . S
C390 O379 1.260 . S
C390 O380 1.258 . S
C391 O387 1.260 . S
C391 O388 1.258 . S
Zn392 O398 1.969 . S
Zn392 O399 1.965 . S
Zn392 O403 2.024 1_565 S
Zn392 O408 1.969 1_565 S
Zn393 O400 1.969 1_455 S
Zn393 O406 1.969 . S
Zn393 O407 1.965 . S
Zn393 O409 2.024 . S
C394 O395 1.229 1_545 S
C394 O403 1.058 . S
O395 C394 1.229 1_565 S
C396 O397 1.229 . S
C396 O409 1.058 1_655 S
O397 C396 1.229 . S
O398 Zn392 1.969 . S
O398 C401 1.267 . S
O399 Zn392 1.965 . S
O399 C410 1.260 1_455 S
O400 Zn393 1.969 1_655 S
O400 C410 1.258 1_545 S
C401 O398 1.267 . S
C401 O402 1.228 . S
O402 C401 1.228 . S
O403 Zn392 2.024 1_545 S
O403 C394 1.058 . S
C404 O405 1.228 . S
C404 O406 1.267 . S
O405 C404 1.228 . S
O406 Zn393 1.969 . S
O406 C404 1.267 . S
O407 Zn393 1.965 . S
O407 C411 1.260 . S
O408 Zn392 1.969 1_545 S
O408 C411 1.258 . S
O409 Zn393 2.024 . S
O409 C396 1.058 1_455 S
C410 O399 1.260 1_655 S
C410 O400 1.258 1_565 S
C411 O407 1.260 . S
C411 O408 1.258 . S
Zn412 O418 1.969 . S
Zn412 O419 1.965 . S
Zn412 O423 2.024 . S
Zn412 O428 1.969 . S
Zn413 O420 1.969 . S
Zn413 O426 1.969 . S
Zn413 O427 1.965 . S
Zn413 O429 2.024 . S
C414 O415 1.229 . S
C414 O423 1.058 . S
O415 C414 1.229 . S
C416 O417 1.229 . S
C416 O429 1.058 . S
O417 C416 1.229 . S
O418 Zn412 1.969 . S
O418 C421 1.267 . S
O419 Zn412 1.965 . S
O419 C430 1.260 . S
O420 Zn413 1.969 . S
O420 C430 1.258 . S
C421 O418 1.267 . S
C421 O422 1.228 . S
O422 C421 1.228 . S
O423 Zn412 2.024 . S
O423 C414 1.058 . S
C424 O425 1.228 . S
C424 O426 1.267 . S
O425 C424 1.228 . S
O426 Zn413 1.969 . S
O426 C424 1.267 . S
O427 Zn413 1.965 . S
O427 C431 1.260 . S
O428 Zn412 1.969 . S
O428 C431 1.258 . S
O429 Zn413 2.024 . S
O429 C416 1.058 . S
C430 O419 1.260 . S
C430 O420 1.258 . S
C431 O427 1.260 . S
C431 O428 1.258 . S
Zn432 O438 1.969 . S
Zn432 O439 1.965 . S
Zn432 O443 2.024 1_556 S
Zn432 O448 1.969 1_556 S
Zn433 O440 1.969 1_545 S
Zn433 O446 1.969 1_545 S
Zn433 O447 1.965 . S
Zn433 O449 2.024 . S
C434 O435 1.229 1_554 S
C434 O443 1.058 . S
O435 C434 1.229 1_556 S
C436 O437 1.229 . S
C436 O449 1.058 1_565 S
O437 C436 1.229 . S
O438 Zn432 1.969 . S
O438 C441 1.267 . S
O439 Zn432 1.965 . S
O439 C450 1.260 1_546 S
O440 Zn433 1.969 1_565 S
O440 C450 1.258 . S
C441 O438 1.267 . S
C441 O442 1.228 . S
O442 C441 1.228 . S
O443 Zn432 2.024 1_554 S
O443 C434 1.058 . S
C444 O445 1.228 . S
C444 O446 1.267 1_545 S
O445 C444 1.228 . S
O446 Zn433 1.969 1_565 S
O446 C444 1.267 1_565 S
O447 Zn433 1.965 . S
O447 C451 1.260 . S
O448 Zn432 1.969 1_554 S
O448 C451 1.258 . S
O449 Zn433 2.024 . S
O449 C436 1.058 1_545 S
C450 O439 1.260 1_564 S
C450 O440 1.258 . S
C451 O447 1.260 . S
C451 O448 1.258 . S
Zn452 O458 1.969 . S
Zn452 O459 1.965 . S
Zn452 O463 2.024 . S
Zn452 O468 1.969 . S
Zn453 O460 1.969 . S
Zn453 O466 1.969 . S
Zn453 O467 1.965 . S
Zn453 O469 2.024 . S
C454 O455 1.229 . S
C454 O463 1.058 . S
O455 C454 1.229 . S
C456 O457 1.229 . S
C456 O469 1.058 . S
O457 C456 1.229 . S
O458 Zn452 1.969 . S
O458 C461 1.267 . S
O459 Zn452 1.965 . S
O459 C470 1.260 . S
O460 Zn453 1.969 . S
O460 C470 1.258 . S
C461 O458 1.267 . S
C461 O462 1.228 . S
O462 C461 1.228 . S
O463 Zn452 2.024 . S
O463 C454 1.058 . S
C464 O465 1.228 . S
C464 O466 1.267 . S
O465 C464 1.228 . S
O466 Zn453 1.969 . S
O466 C464 1.267 . S
O467 Zn453 1.965 . S
O467 C471 1.260 . S
O468 Zn452 1.969 . S
O468 C471 1.258 . S
O469 Zn453 2.024 . S
O469 C456 1.058 . S
C470 O459 1.260 . S
C470 O460 1.258 . S
C471 O467 1.260 . S
C471 O468 1.258 . S
Zn472 O478 1.969 . S
Zn472 O479 1.965 . S
Zn472 O483 2.024 . S
Zn472 O488 1.969 . S
Zn473 O480 1.969 1_556 S
Zn473 O486 1.969 . S
Zn473 O487 1.965 1_556 S
Zn473 O489 2.024 . S
C474 O475 1.229 . S
C474 O483 1.058 . S
O475 C474 1.229 . S
C476 O477 1.229 . S
C476 O489 1.058 . S
O477 C476 1.229 . S
O478 Zn472 1.969 . S
O478 C481 1.267 . S
O479 Zn472 1.965 . S
O479 C490 1.260 . S
O480 Zn473 1.969 1_554 S
O480 C490 1.258 . S
C481 O478 1.267 . S
C481 O482 1.228 . S
O482 C481 1.228 . S
O483 Zn472 2.024 . S
O483 C474 1.058 . S
C484 O485 1.228 . S
C484 O486 1.267 . S
O485 C484 1.228 . S
O486 Zn473 1.969 . S
O486 C484 1.267 . S
O487 Zn473 1.965 1_554 S
O487 C491 1.260 . S
O488 Zn472 1.969 . S
O488 C491 1.258 . S
O489 Zn473 2.024 . S
O489 C476 1.058 . S
C490 O479 1.260 . S
C490 O480 1.258 . S
C491 O487 1.260 . S
C491 O488 1.258 . S
Zn492 O498 1.969 . S
Zn492 O499 1.965 . S
Zn492 O503 2.024 . S
Zn492 O508 1.969 . S
Zn493 O500 1.969 . S
Zn493 O506 1.969 . S
Zn493 O507 1.965 . S
Zn493 O509 2.024 . S
C494 O495 1.229 . S
C494 O503 1.058 . S
O495 C494 1.229 . S
C496 O497 1.229 . S
C496 O509 1.058 . S
O497 C496 1.229 . S
O498 Zn492 1.969 . S
O498 C501 1.267 . S
O499 Zn492 1.965 . S
O499 C510 1.260 . S
O500 Zn493 1.969 . S
O500 C510 1.258 . S
C501 O498 1.267 . S
C501 O502 1.228 . S
O502 C501 1.228 . S
O503 Zn492 2.024 . S
O503 C494 1.058 . S
C504 O505 1.228 . S
C504 O506 1.267 . S
O505 C504 1.228 . S
O506 Zn493 1.969 . S
O506 C504 1.267 . S
O507 Zn493 1.965 . S
O507 C511 1.260 . S
O508 Zn492 1.969 . S
O508 C511 1.258 . S
O509 Zn493 2.024 . S
O509 C496 1.058 . S
C510 O499 1.260 . S
C510 O500 1.258 . S
C511 O507 1.260 . S
C511 O508 1.258 . S
Zn512 O518 1.969 . S
Zn512 O519 1.965 . S
Zn512 O523 2.024 . S
Zn512 O528 1.969 . S
Zn513 O520 1.969 . S
Zn513 O526 1.969 . S
Zn513 O527 1.965 1_655 S
Zn513 O529 2.024 . S
C514 O515 1.229 . S
C514 O523 1.058 . S
O515 C514 1.229 . S
C516 O517 1.229 . S
C516 O529 1.058 . S
O517 C516 1.229 . S
O518 Zn512 1.969 . S
O518 C521 1.267 . S
O519 Zn512 1.965 . S
O519 C530 1.260 . S
O520 Zn513 1.969 . S
O520 C530 1.258 1_655 S
C521 O518 1.267 . S
C521 O522 1.228 . S
O522 C521 1.228 . S
O523 Zn512 2.024 . S
O523 C514 1.058 . S
C524 O525 1.228 . S
C524 O526 1.267 . S
O525 C524 1.228 . S
O526 Zn513 1.969 . S
O526 C524 1.267 . S
O527 Zn513 1.965 1_455 S
O527 C531 1.260 . S
O528 Zn512 1.969 . S
O528 C531 1.258 . S
O529 Zn513 2.024 . S
O529 C516 1.058 . S
C530 O519 1.260 . S
C530 O520 1.258 1_455 S
C531 O527 1.260 . S
C531 O528 1.258 . S
Zn532 O538 1.969 . S
Zn532 O539 1.965 . S
Zn532 O543 2.024 . S
Zn532 O548 1.969 . S
Zn533 O540 1.969 . S
Zn533 O546 1.969 . S
Zn533 O547 1.965 . S
Zn533 O549 2.024 . S
C534 O535 1.229 . S
C534 O543 1.058 . S
O535 C534 1.229 . S
C536 O537 1.229 . S
C536 O549 1.058 . S
O537 C536 1.229 . S
O538 Zn532 1.969 . S
O538 C541 1.267 . S
O539 Zn532 1.965 . S
O539 C550 1.260 . S
O540 Zn533 1.969 . S
O540 C550 1.258 . S
C541 O538 1.267 . S
C541 O542 1.228 . S
O542 C541 1.228 . S
O543 Zn532 2.024 . S
O543 C534 1.058 . S
C544 O545 1.228 . S
C544 O546 1.267 . S
O545 C544 1.228 . S
O546 Zn533 1.969 . S
O546 C544 1.267 . S
O547 Zn533 1.965 . S
O547 C551 1.260 . S
O548 Zn532 1.969 . S
O548 C551 1.258 . S
O549 Zn533 2.024 . S
O549 C536 1.058 . S
C550 O539 1.260 . S
C550 O540 1.258 . S
C551 O547 1.260 . S
C551 O548 1.258 . S
Zn552 O558 1.969 . S
Zn552 O559 1.965 . S
Zn552 O563 2.024 . S
Zn552 O568 1.969 . S
Zn553 O560 1.969 . S
Zn553 O566 1.969 . S
Zn553 O567 1.965 . S
Zn553 O569 2.024 . S
C554 O555 1.229 . S
C554 O563 1.058 . S
O555 C554 1.229 . S
C556 O557 1.229 . S
C556 O569 1.058 . S
O557 C556 1.229 . S
O558 Zn552 1.969 . S
O558 C561 1.267 . S
O559 Zn552 1.965 . S
O559 C570 1.260 . S
O560 Zn553 1.969 . S
O560 C570 1.258 . S
C561 O558 1.267 . S
C561 O562 1.228 . S
O562 C561 1.228 . S
O563 Zn552 2.024 . S
O563 C554 1.058 . S
C564 O565 1.228 . S
C564 O566 1.267 . S
O565 C564 1.228 . S
O566 Zn553 1.969 . S
O566 C564 1.267 . S
O567 Zn553 1.965 . S
O567 C571 1.260 . S
O568 Zn552 1.969 . S
O568 C571 1.258 . S
O569 Zn553 2.024 . S
O569 C556 1.058 . S
C570 O559 1.260 . S
C570 O560 1.258 . S
C571 O567 1.260 . S
C571 O568 1.258 . S
Zn572 O578 1.969 . S
Zn572 O579 1.965 . S
Zn572 O583 2.024 . S
Zn572 O588 1.969 . S
Zn573 O580 1.969 . S
Zn573 O586 1.969 . S
Zn573 O587 1.965 . S
Zn573 O589 2.024 . S
C574 O575 1.229 . S
C574 O583 1.058 . S
O575 C574 1.229 . S
C576 O577 1.229 . S
C576 O589 1.058 . S
O577 C576 1.229 . S
O578 Zn572 1.969 . S
O578 C581 1.267 . S
O579 Zn572 1.965 . S
O579 C590 1.260 . S
O580 Zn573 1.969 . S
O580 C590 1.258 . S
C581 O578 1.267 . S
C581 O582 1.228 . S
O582 C581 1.228 . S
O583 Zn572 2.024 . S
O583 C574 1.058 . S
C584 O585 1.228 . S
C584 O586 1.267 . S
O585 C584 1.228 . S
O586 Zn573 1.969 . S
O586 C584 1.267 . S
O587 Zn573 1.965 . S
O587 C591 1.260 . S
O588 Zn572 1.969 . S
O588 C591 1.258 . S
O589 Zn573 2.024 . S
O589 C576 1.058 . S
C590 O579 1.260 . S
C590 O580 1.258 . S
C591 O587 1.260 . S
C591 O588 1.258 . S
Zn592 O598 1.969 . S
Zn592 O599 1.965 . S
Zn592 O603 2.024 . S
Zn592 O608 1.969 . S
Zn593 O600 1.969 . S
Zn593 O606 1.969 . S
Zn593 O607 1.965 . S
Zn593 O609 2.024 . S
C594 O595 1.229 . S
C594 O603 1.058 . S
O595 C594 1.229 . S
C596 O597 1.229 . S
C596 O609 1.058 . S
O597 C596 1.229 . S
O598 Zn592 1.969 . S
O598 C601 1.267 . S
O599 Zn592 1.965 . S
O599 C610 1.260 . S
O600 Zn593 1.969 . S
O600 C610 1.258 . S
C601 O598 1.267 . S
C601 O602 1.228 . S
O602 C601 1.228 . S
O603 Zn592 2.024 . S
O603 C594 1.058 . S
C604 O605 1.228 . S
C604 O606 1.267 . S
O605 C604 1.228 . S
O606 Zn593 1.969 . S
O606 C604 1.267 . S
O607 Zn593 1.965 . S
O607 C611 1.260 . S
O608 Zn592 1.969 . S
O608 C611 1.258 . S
O609 Zn593 2.024 . S
O609 C596 1.058 . S
C610 O599 1.260 . S
C610 O600 1.258 . S
C611 O607 1.260 . S
C611 O608 1.258 . S
Zn612 O618 1.969 . S
Zn612 O619 1.965 . S
Zn612 O623 2.024 1_655 S
Zn612 O628 1.969 1_655 S
Zn613 O620 1.969 1_554 S
Zn613 O626 1.969 . S
Zn613 O627 1.965 . S
Zn613 O629 2.024 . S
C614 O615 1.229 1_455 S
C614 O623 1.058 . S
O615 C614 1.229 1_655 S
C616 O617 1.229 1_554 S
C616 O629 1.058 . S
O617 C616 1.229 1_556 S
O618 Zn612 1.969 . S
O618 C621 1.267 . S
O619 Zn612 1.965 . S
O619 C630 1.260 1_554 S
O620 Zn613 1.969 1_556 S
O620 C630 1.258 1_455 S
C621 O618 1.267 . S
C621 O622 1.228 . S
O622 C621 1.228 . S
O623 Zn612 2.024 1_455 S
O623 C614 1.058 . S
C624 O625 1.228 . S
C624 O626 1.267 . S
O625 C624 1.228 . S
O626 Zn613 1.969 . S
O626 C624 1.267 . S
O627 Zn613 1.965 . S
O627 C631 1.260 . S
O628 Zn612 1.969 1_455 S
O628 C631 1.258 . S
O629 Zn613 2.024 . S
O629 C616 1.058 . S
C630 O619 1.260 1_556 S
C630 O620 1.258 1_655 S
C631 O627 1.260 . S
C631 O628 1.258 . S
C632 C633 1.369 . S
C632 C634 1.419 . S
C632 H636 0.930 . S
C633 C632 1.369 . S
C633 C642 1.429 1_455 S
C634 C632 1.419 . S
C634 C635 1.363 1_556 S
C634 H637 0.929 . S
C635 C634 1.363 1_554 S
C635 C641 1.427 1_554 S
H636 C632 0.930 . S
H637 C634 0.929 . S
S638 N639 1.613 . S
S638 N640 1.610 1_556 S
N639 S638 1.613 . S
N639 C642 1.350 . S
N640 S638 1.610 1_554 S
N640 C641 1.347 1_654 S
C641 C635 1.427 1_556 S
C641 N640 1.347 1_456 S
C641 C642 1.440 1_455 S
C642 C633 1.429 1_655 S
C642 N639 1.350 . S
C642 C641 1.440 1_655 S
C643 C644 1.369 . S
C643 C645 1.419 . S
C643 H647 0.930 . S
C644 C643 1.369 . S
C644 C653 1.429 . S
C645 C643 1.419 . S
C645 C646 1.363 . S
C645 H648 0.929 . S
C646 C645 1.363 . S
C646 C652 1.428 . S
H647 C643 0.930 . S
H648 C645 0.929 . S
S649 N650 1.613 . S
S649 N651 1.610 . S
N650 S649 1.613 . S
N650 C653 1.350 . S
N651 S649 1.610 . S
N651 C652 1.351 . S
C652 C646 1.428 . S
C652 N651 1.351 . S
C652 C653 1.434 . S
C653 C644 1.429 . S
C653 N650 1.350 . S
C653 C652 1.434 . S
C654 C655 1.369 . S
C654 C656 1.419 . S
C654 H658 0.930 . S
C655 C654 1.369 . S
C655 C664 1.429 . S
C656 C654 1.419 . S
C656 C657 1.363 . S
C656 H659 0.929 . S
C657 C656 1.363 . S
C657 C663 1.428 . S
H658 C654 0.930 . S
H659 C656 0.929 . S
S660 N661 1.613 . S
S660 N662 1.610 . S
N661 S660 1.613 . S
N661 C664 1.350 . S
N662 S660 1.610 . S
N662 C663 1.351 . S
C663 C657 1.428 . S
C663 N662 1.351 . S
C663 C664 1.434 . S
C664 C655 1.429 . S
C664 N661 1.350 . S
C664 C663 1.434 . S
C665 C666 1.369 . S
C665 C667 1.419 . S
C665 H669 0.930 . S
C666 C665 1.369 . S
C666 C675 1.429 . S
C667 C665 1.419 . S
C667 C668 1.363 . S
C667 H670 0.929 . S
C668 C667 1.363 . S
C668 C674 1.428 . S
H669 C665 0.930 . S
H670 C667 0.929 . S
S671 N672 1.613 . S
S671 N673 1.610 . S
N672 S671 1.613 . S
N672 C675 1.350 . S
N673 S671 1.610 . S
N673 C674 1.351 . S
C674 C668 1.428 . S
C674 N673 1.351 . S
C674 C675 1.434 . S
C675 C666 1.429 . S
C675 N672 1.350 . S
C675 C674 1.434 . S
C676 C677 1.369 . S
C676 C678 1.419 . S
C676 H680 0.930 1_455 S
C677 C676 1.369 . S
C677 C686 1.429 . S
C678 C676 1.419 . S
C678 C679 1.363 . S
C678 H681 0.929 . S
C679 C678 1.363 . S
C679 C685 1.428 . S
H680 C676 0.930 1_655 S
H681 C678 0.929 . S
S682 N683 1.613 . S
S682 N684 1.610 . S
N683 S682 1.613 . S
N683 C686 1.350 . S
N684 S682 1.610 . S
N684 C685 1.351 . S
C685 C679 1.428 . S
C685 N684 1.351 . S
C685 C686 1.434 . S
C686 C677 1.429 . S
C686 N683 1.350 . S
C686 C685 1.434 . S
C687 C688 1.369 . S
C687 C689 1.419 . S
C687 H691 0.930 . S
C688 C687 1.369 . S
C688 C697 1.429 . S
C689 C687 1.419 . S
C689 C690 1.363 . S
C689 H692 0.929 . S
C690 C689 1.363 . S
C690 C696 1.428 . S
H691 C687 0.930 . S
H692 C689 0.929 . S
S693 N694 1.613 . S
S693 N695 1.610 . S
N694 S693 1.613 . S
N694 C697 1.350 . S
N695 S693 1.610 . S
N695 C696 1.351 . S
C696 C690 1.428 . S
C696 N695 1.351 . S
C696 C697 1.434 . S
C697 C688 1.429 . S
C697 N694 1.350 . S
C697 C696 1.434 . S
C698 C699 1.369 . S
C698 C700 1.419 . S
C698 H702 0.930 . S
C699 C698 1.369 . S
C699 C708 1.429 . S
C700 C698 1.419 . S
C700 C701 1.363 . S
C700 H703 0.929 . S
C701 C700 1.363 . S
C701 C707 1.428 . S
H702 C698 0.930 . S
H703 C700 0.929 . S
S704 N705 1.613 . S
S704 N706 1.610 . S
N705 S704 1.613 . S
N705 C708 1.350 . S
N706 S704 1.610 . S
N706 C707 1.351 . S
C707 C701 1.428 . S
C707 N706 1.351 . S
C707 C708 1.434 . S
C708 C699 1.429 . S
C708 N705 1.350 . S
C708 C707 1.434 . S
C709 C710 1.369 . S
C709 C711 1.419 . S
C709 H713 0.930 . S
C710 C709 1.369 . S
C710 C719 1.429 . S
C711 C709 1.419 . S
C711 C712 1.363 . S
C711 H714 0.929 . S
C712 C711 1.363 . S
C712 C718 1.428 . S
H713 C709 0.930 . S
H714 C711 0.929 . S
S715 N716 1.613 . S
S715 N717 1.610 . S
N716 S715 1.613 . S
N716 C719 1.350 . S
N717 S715 1.610 . S
N717 C718 1.351 . S
C718 C712 1.428 . S
C718 N717 1.351 . S
C718 C719 1.434 . S
C719 C710 1.429 . S
C719 N716 1.350 . S
C719 C718 1.434 . S
C720 C721 1.369 . S
C720 C722 1.419 . S
C720 H724 0.930 . S
C721 C720 1.369 . S
C721 C730 1.429 . S
C722 C720 1.419 . S
C722 C723 1.363 1_655 S
C722 H725 0.929 . S
C723 C722 1.363 1_455 S
C723 C729 1.428 . S
H724 C720 0.930 . S
H725 C722 0.929 . S
S726 N727 1.613 1_455 S
S726 N728 1.610 . S
N727 S726 1.613 1_655 S
N727 C730 1.350 . S
N728 S726 1.610 . S
N728 C729 1.351 . S
C729 C723 1.428 . S
C729 N728 1.351 . S
C729 C730 1.434 1_455 S
C730 C721 1.429 . S
C730 N727 1.350 . S
C730 C729 1.434 1_655 S
C731 C732 1.369 . S
C731 C733 1.419 . S
C731 H735 0.930 . S
C732 C731 1.369 . S
C732 C741 1.429 . S
C733 C731 1.419 . S
C733 C734 1.363 . S
C733 H736 0.929 . S
C734 C733 1.363 . S
C734 C740 1.428 . S
H735 C731 0.930 . S
H736 C733 0.929 . S
S737 N738 1.613 . S
S737 N739 1.610 . S
N738 S737 1.613 . S
N738 C741 1.350 . S
N739 S737 1.610 . S
N739 C740 1.351 . S
C740 C734 1.428 . S
C740 N739 1.351 . S
C740 C741 1.434 . S
C741 C732 1.429 . S
C741 N738 1.350 . S
C741 C740 1.434 . S
C742 C743 1.369 1_545 S
C742 C744 1.419 . S
C742 H746 0.930 . S
C743 C742 1.369 1_565 S
C743 C752 1.429 . S
C744 C742 1.419 . S
C744 C745 1.363 1_545 S
C744 H747 0.929 . S
C745 C744 1.363 1_565 S
C745 C751 1.428 . S
H746 C742 0.930 . S
H747 C744 0.929 . S
S748 N749 1.613 . S
S748 N750 1.610 . S
N749 S748 1.613 . S
N749 C752 1.350 . S
N750 S748 1.610 . S
N750 C751 1.351 . S
C751 C745 1.428 . S
C751 N750 1.351 . S
C751 C752 1.434 . S
C752 C743 1.429 . S
C752 N749 1.350 . S
C752 C751 1.434 . S
C753 C754 1.369 . S
C753 C755 1.419 . S
C753 H757 0.930 . S
C754 C753 1.369 . S
C754 C763 1.429 . S
C755 C753 1.419 . S
C755 C756 1.363 . S
C755 H758 0.929 . S
C756 C755 1.363 . S
C756 C762 1.428 . S
H757 C753 0.930 . S
H758 C755 0.929 . S
S759 N760 1.613 . S
S759 N761 1.610 . S
N760 S759 1.613 . S
N760 C763 1.350 . S
N761 S759 1.610 . S
N761 C762 1.351 . S
C762 C756 1.428 . S
C762 N761 1.351 . S
C762 C763 1.434 . S
C763 C754 1.429 . S
C763 N760 1.350 . S
C763 C762 1.434 . S
C764 C765 1.359 1_565 S
C764 C766 1.423 . S
C764 H768 0.936 . S
C765 C764 1.359 1_545 S
C765 C774 1.429 . S
C766 C764 1.423 . S
C766 C767 1.363 1_565 S
C766 H769 0.929 1_655 S
C767 C766 1.363 1_545 S
C767 C773 1.428 . S
H768 C764 0.936 . S
H769 C766 0.929 1_455 S
S770 N771 1.613 . S
S770 N772 1.610 . S
N771 S770 1.613 . S
N771 C774 1.350 . S
N772 S770 1.610 . S
N772 C773 1.351 . S
C773 C767 1.428 . S
C773 N772 1.351 . S
C773 C774 1.434 . S
C774 C765 1.429 . S
C774 N771 1.350 . S
C774 C773 1.434 . S
C775 C776 1.369 . S
C775 C777 1.419 . S
C775 H779 0.930 . S
C776 C775 1.369 . S
C776 C785 1.429 . S
C777 C775 1.419 . S
C777 C778 1.363 . S
C777 H780 0.929 . S
C778 C777 1.363 . S
C778 C784 1.428 . S
H779 C775 0.930 . S
H780 C777 0.929 . S
S781 N782 1.613 . S
S781 N783 1.610 . S
N782 S781 1.613 . S
N782 C785 1.350 . S
N783 S781 1.610 . S
N783 C784 1.351 . S
C784 C778 1.428 . S
C784 N783 1.351 . S
C784 C785 1.434 . S
C785 C776 1.429 . S
C785 N782 1.350 . S
C785 C784 1.434 . S
C786 C787 1.369 . S
C786 C788 1.419 . S
C786 H790 0.930 . S
C787 C786 1.369 . S
C787 C796 1.429 1_545 S
C788 C786 1.419 . S
C788 C789 1.363 . S
C788 H791 0.929 . S
C789 C788 1.363 . S
C789 C795 1.428 . S
H790 C786 0.930 . S
H791 C788 0.929 . S
S792 N793 1.613 . S
S792 N794 1.610 . S
N793 S792 1.613 . S
N793 C796 1.350 . S
N794 S792 1.610 . S
N794 C795 1.351 1_565 S
C795 C789 1.428 . S
C795 N794 1.351 1_545 S
C795 C796 1.434 1_545 S
C796 C787 1.429 1_565 S
C796 N793 1.350 . S
C796 C795 1.434 1_565 S
C797 C798 1.369 . S
C797 C799 1.419 . S
C797 H801 0.930 . S
C798 C797 1.369 . S
C798 C807 1.429 . S
C799 C797 1.419 . S
C799 C800 1.363 . S
C799 H802 0.929 . S
C800 C799 1.363 . S
C800 C806 1.428 . S
H801 C797 0.930 . S
H802 C799 0.929 . S
S803 N804 1.613 . S
S803 N805 1.610 . S
N804 S803 1.613 . S
N804 C807 1.350 . S
N805 S803 1.610 . S
N805 C806 1.351 . S
C806 C800 1.428 . S
C806 N805 1.351 . S
C806 C807 1.434 . S
C807 C798 1.429 . S
C807 N804 1.350 . S
C807 C806 1.434 . S
C808 C809 1.369 . S
C808 C810 1.419 . S
C808 H812 0.930 . S
C809 C808 1.369 . S
C809 C818 1.429 . S
C810 C808 1.419 . S
C810 C811 1.363 . S
C810 H813 0.929 . S
C811 C810 1.363 . S
C811 C817 1.428 . S
H812 C808 0.930 . S
H813 C810 0.929 . S
S814 N815 1.613 . S
S814 N816 1.610 1_566 S
N815 S814 1.613 . S
N815 C818 1.350 1_556 S
N816 S814 1.610 1_544 S
N816 C817 1.351 1_545 S
C817 C811 1.428 . S
C817 N816 1.351 1_565 S
C817 C818 1.434 . S
C818 C809 1.429 . S
C818 N815 1.350 1_554 S
C818 C817 1.434 . S
C819 C820 1.369 1_554 S
C819 C821 1.419 . S
C819 H823 0.930 . S
C820 C819 1.369 1_556 S
C820 C829 1.429 . S
C821 C819 1.419 . S
C821 C822 1.363 . S
C821 H824 0.929 . S
C822 C821 1.363 . S
C822 C828 1.428 1_554 S
H823 C819 0.930 . S
H824 C821 0.929 . S
S825 N826 1.613 . S
S825 N827 1.610 . S
N826 S825 1.613 . S
N826 C829 1.350 . S
N827 S825 1.610 . S
N827 C828 1.351 . S
C828 C822 1.428 1_556 S
C828 N827 1.351 . S
C828 C829 1.434 . S
C829 C820 1.429 . S
C829 N826 1.350 . S
C829 C828 1.434 . S
C830 C831 1.369 . S
C830 C832 1.419 . S
C830 H834 0.930 . S
C831 C830 1.369 . S
C831 C840 1.429 . S
C832 C830 1.419 . S
C832 C833 1.363 . S
C832 H835 0.929 . S
C833 C832 1.363 . S
C833 C839 1.428 . S
H834 C830 0.930 . S
H835 C832 0.929 . S
S836 N837 1.613 . S
S836 N838 1.610 . S
N837 S836 1.613 . S
N837 C840 1.350 . S
N838 S836 1.610 . S
N838 C839 1.351 . S
C839 C833 1.428 . S
C839 N838 1.351 . S
C839 C840 1.434 . S
C840 C831 1.429 . S
C840 N837 1.350 . S
C840 C839 1.434 . S
C841 C842 1.369 . S
C841 C843 1.419 . S
C841 H845 0.930 . S
C842 C841 1.369 . S
C842 C851 1.429 . S
C843 C841 1.419 . S
C843 C844 1.363 . S
C843 H846 0.929 . S
C844 C843 1.363 . S
C844 C850 1.428 . S
H845 C841 0.930 . S
H846 C843 0.929 . S
S847 N848 1.613 . S
S847 N849 1.610 . S
N848 S847 1.613 . S
N848 C851 1.350 . S
N849 S847 1.610 . S
N849 C850 1.351 . S
C850 C844 1.428 . S
C850 N849 1.351 . S
C850 C851 1.434 . S
C851 C842 1.429 . S
C851 N848 1.350 . S
C851 C850 1.434 . S
C852 C853 1.369 . S
C852 C854 1.419 . S
C852 H856 0.930 . S
C853 C852 1.369 . S
C853 C862 1.429 . S
C854 C852 1.419 . S
C854 C855 1.363 . S
C854 H857 0.929 . S
C855 C854 1.363 . S
C855 C861 1.428 . S
H856 C852 0.930 . S
H857 C854 0.929 . S
S858 N859 1.613 . S
S858 N860 1.610 . S
N859 S858 1.613 . S
N859 C862 1.350 . S
N860 S858 1.610 . S
N860 C861 1.351 . S
C861 C855 1.428 . S
C861 N860 1.351 . S
C861 C862 1.434 . S
C862 C853 1.429 . S
C862 N859 1.350 . S
C862 C861 1.434 . S
C863 C864 1.369 . S
C863 C865 1.419 . S
C863 H867 0.930 . S
C864 C863 1.369 . S
C864 C873 1.429 . S
C865 C863 1.419 . S
C865 C866 1.363 . S
C865 H868 0.929 . S
C866 C865 1.363 . S
C866 C872 1.428 . S
H867 C863 0.930 . S
H868 C865 0.929 . S
S869 N870 1.613 . S
S869 N871 1.610 . S
N870 S869 1.613 . S
N870 C873 1.350 . S
N871 S869 1.610 . S
N871 C872 1.351 . S
C872 C866 1.428 . S
C872 N871 1.351 . S
C872 C873 1.434 . S
C873 C864 1.429 . S
C873 N870 1.350 . S
C873 C872 1.434 . S
C874 C875 1.369 . S
C874 C876 1.419 . S
C874 H878 0.930 . S
C875 C874 1.369 . S
C875 C884 1.429 . S
C876 C874 1.419 . S
C876 C877 1.363 . S
C876 H879 0.929 . S
C877 C876 1.363 . S
C877 C883 1.428 . S
H878 C874 0.930 . S
H879 C876 0.929 . S
S880 N881 1.613 . S
S880 N882 1.610 . S
N881 S880 1.613 . S
N881 C884 1.350 . S
N882 S880 1.610 . S
N882 C883 1.351 . S
C883 C877 1.428 . S
C883 N882 1.351 . S
C883 C884 1.434 . S
C884 C875 1.429 . S
C884 N881 1.350 . S
C884 C883 1.434 . S
C885 C886 1.369 . S
C885 C887 1.419 . S
C885 H889 0.930 . S
C886 C885 1.369 . S
C886 C895 1.429 . S
C887 C885 1.419 . S
C887 C888 1.363 . S
C887 H890 0.929 . S
C888 C887 1.363 . S
C888 C894 1.428 . S
H889 C885 0.930 . S
H890 C887 0.929 . S
S891 N892 1.613 . S
S891 N893 1.610 . S
N892 S891 1.613 . S
N892 C895 1.350 . S
N893 S891 1.610 . S
N893 C894 1.351 . S
C894 C888 1.428 . S
C894 N893 1.351 . S
C894 C895 1.434 . S
C895 C886 1.429 . S
C895 N892 1.350 . S
C895 C894 1.434 . S
C896 C897 1.369 . S
C896 C898 1.419 . S
C896 H900 0.930 . S
C897 C896 1.369 . S
C897 C906 1.429 . S
C898 C896 1.419 . S
C898 C899 1.363 . S
C898 H901 0.929 . S
C899 C898 1.363 . S
C899 C905 1.428 . S
H900 C896 0.930 . S
H901 C898 0.929 . S
S902 N903 1.613 . S
S902 N904 1.610 . S
N903 S902 1.613 . S
N903 C906 1.350 . S
N904 S902 1.610 . S
N904 C905 1.351 . S
C905 C899 1.428 . S
C905 N904 1.351 . S
C905 C906 1.434 . S
C906 C897 1.429 . S
C906 N903 1.350 . S
C906 C905 1.434 . S
C907 C908 1.369 . S
C907 C909 1.419 . S
C907 H911 0.930 . S
C908 C907 1.369 . S
C908 C917 1.429 . S
C909 C907 1.419 . S
C909 C910 1.363 . S
C909 H912 0.929 . S
C910 C909 1.363 . S
C910 C916 1.428 . S
H911 C907 0.930 . S
H912 C909 0.929 . S
S913 N914 1.613 . S
S913 N915 1.610 . S
N914 S913 1.613 . S
N914 C917 1.350 . S
N915 S913 1.610 . S
N915 C916 1.351 . S
C916 C910 1.428 . S
C916 N915 1.351 . S
C916 C917 1.434 . S
C917 C908 1.429 . S
C917 N914 1.350 . S
C917 C916 1.434 . S
C918 C919 1.369 . S
C918 C920 1.419 . S
C918 H922 0.930 . S
C919 C918 1.369 . S
C919 C928 1.429 . S
C920 C918 1.419 . S
C920 C921 1.363 . S
C920 H923 0.929 . S
C921 C920 1.363 . S
C921 C927 1.428 . S
H922 C918 0.930 . S
H923 C920 0.929 . S
S924 N925 1.613 . S
S924 N926 1.610 . S
N925 S924 1.613 . S
N925 C928 1.350 . S
N926 S924 1.610 . S
N926 C927 1.351 . S
C927 C921 1.428 . S
C927 N926 1.351 . S
C927 C928 1.434 . S
C928 C919 1.429 . S
C928 N925 1.350 . S
C928 C927 1.434 . S
C929 C930 1.369 . S
C929 C931 1.419 . S
C929 H933 0.930 . S
C930 C929 1.369 . S
C930 C939 1.429 . S
C931 C929 1.419 . S
C931 C932 1.363 . S
C931 H934 0.929 . S
C932 C931 1.363 . S
C932 C938 1.428 . S
H933 C929 0.930 . S
H934 C931 0.929 . S
S935 N936 1.613 . S
S935 N937 1.610 . S
N936 S935 1.613 . S
N936 C939 1.350 . S
N937 S935 1.610 . S
N937 C938 1.351 . S
C938 C932 1.428 . S
C938 N937 1.351 . S
C938 C939 1.434 . S
C939 C930 1.429 . S
C939 N936 1.350 . S
C939 C938 1.434 . S
C940 C941 1.369 . S
C940 C942 1.419 . S
C940 H944 0.932 1_455 S
C941 C940 1.369 . S
C941 C950 1.429 . S
C942 C940 1.419 . S
C942 C943 1.363 . S
C942 H945 0.929 1_455 S
C943 C942 1.363 . S
C943 C949 1.428 . S
H944 C940 0.932 1_655 S
H945 C942 0.929 1_655 S
S946 N947 1.613 . S
S946 N948 1.610 . S
N947 S946 1.613 . S
N947 C950 1.350 . S
N948 S946 1.610 . S
N948 C949 1.351 . S
C949 C943 1.428 . S
C949 N948 1.351 . S
C949 C950 1.434 . S
C950 C941 1.429 . S
C950 N947 1.350 . S
C950 C949 1.434 . S
C951 C952 1.369 . S
C951 C953 1.419 . S
C951 H955 0.930 . S
C952 C951 1.369 . S
C952 C961 1.429 . S
C953 C951 1.419 . S
C953 C954 1.363 . S
C953 H956 0.929 . S
C954 C953 1.363 . S
C954 C960 1.428 . S
H955 C951 0.930 . S
H956 C953 0.929 . S
S957 N958 1.613 . S
S957 N959 1.610 . S
N958 S957 1.613 . S
N958 C961 1.350 . S
N959 S957 1.610 . S
N959 C960 1.351 . S
C960 C954 1.428 . S
C960 N959 1.351 . S
C960 C961 1.434 . S
C961 C952 1.429 . S
C961 N958 1.350 . S
C961 C960 1.434 . S
C962 C963 1.369 . S
C962 C964 1.419 . S
C962 H966 0.930 . S
C963 C962 1.369 . S
C963 C972 1.429 . S
C964 C962 1.419 . S
C964 C965 1.363 . S
C964 H967 0.929 . S
C965 C964 1.363 . S
C965 C971 1.428 . S
H966 C962 0.930 . S
H967 C964 0.929 . S
S968 N969 1.613 . S
S968 N970 1.610 . S
N969 S968 1.613 . S
N969 C972 1.350 . S
N970 S968 1.610 . S
N970 C971 1.351 . S
C971 C965 1.428 . S
C971 N970 1.351 . S
C971 C972 1.434 . S
C972 C963 1.429 . S
C972 N969 1.350 . S
C972 C971 1.434 . S
C973 C974 1.369 . S
C973 C975 1.419 . S
C973 H977 0.930 . S
C974 C973 1.369 . S
C974 C983 1.429 . S
C975 C973 1.419 . S
C975 C976 1.363 . S
C975 H978 0.929 . S
C976 C975 1.363 . S
C976 C982 1.428 . S
H977 C973 0.930 . S
H978 C975 0.929 . S
S979 N980 1.613 . S
S979 N981 1.610 . S
N980 S979 1.613 . S
N980 C983 1.350 . S
N981 S979 1.610 . S
N981 C982 1.351 . S
C982 C976 1.428 . S
C982 N981 1.351 . S
C982 C983 1.434 . S
C983 C974 1.429 . S
C983 N980 1.350 . S
C983 C982 1.434 . S
C984 C985 1.369 . S
C984 C986 1.419 . S
C984 H988 0.930 . S
C985 C984 1.369 . S
C985 C994 1.429 . S
C986 C984 1.419 . S
C986 C987 1.363 . S
C986 H989 0.920 1_545 S
C987 C986 1.363 . S
C987 C993 1.428 . S
H988 C984 0.930 . S
H989 C986 0.920 1_565 S
S990 N991 1.613 . S
S990 N992 1.610 . S
N991 S990 1.613 . S
N991 C994 1.350 . S
N992 S990 1.610 . S
N992 C993 1.351 . S
C993 C987 1.428 . S
C993 N992 1.351 . S
C993 C994 1.434 . S
C994 C985 1.429 . S
C994 N991 1.350 . S
C994 C993 1.434 . S
C995 C996 1.369 . S
C995 C997 1.419 . S
C995 H999 0.930 . S
C996 C995 1.369 . S
C996 C1005 1.429 . S
C997 C995 1.419 . S
C997 C998 1.363 . S
C997 H1000 0.929 . S
C998 C997 1.363 . S
C998 C1004 1.428 . S
H999 C995 0.930 . S
H1000 C997 0.929 . S
S1001 N1002 1.613 . S
S1001 N1003 1.610 . S
N1002 S1001 1.613 . S
N1002 C1005 1.350 . S
N1003 S1001 1.610 . S
N1003 C1004 1.351 . S
C1004 C998 1.428 . S
C1004 N1003 1.351 . S
C1004 C1005 1.434 . S
C1005 C996 1.429 . S
C1005 N1002 1.350 . S
C1005 C1004 1.434 . S
C1006 C1007 1.369 . S
C1006 C1008 1.419 . S
C1006 H1010 0.930 . S
C1007 C1006 1.369 . S
C1007 C1016 1.429 . S
C1008 C1006 1.419 . S
C1008 C1009 1.363 . S
C1008 H1011 0.929 . S
C1009 C1008 1.363 . S
C1009 C1015 1.428 . S
H1010 C1006 0.930 . S
H1011 C1008 0.929 . S
S1012 N1013 1.617 . S
S1012 N1014 1.610 . S
N1013 S1012 1.617 . S
N1013 C1016 1.348 1_565 S
N1014 S1012 1.610 . S
N1014 C1015 1.351 1_565 S
C1015 C1009 1.428 . S
C1015 N1014 1.351 1_545 S
C1015 C1016 1.434 . S
C1016 C1007 1.429 . S
C1016 N1013 1.348 1_545 S
C1016 C1015 1.434 . S
C1017 C1018 1.369 . S
C1017 C1019 1.419 . S
C1017 H1021 0.930 . S
C1018 C1017 1.369 . S
C1018 C1027 1.429 . S
C1019 C1017 1.419 . S
C1019 C1020 1.363 . S
C1019 H1022 0.929 . S
C1020 C1019 1.363 . S
C1020 C1026 1.428 . S
H1021 C1017 0.930 . S
H1022 C1019 0.929 . S
S1023 N1024 1.613 . S
S1023 N1025 1.610 . S
N1024 S1023 1.613 . S
N1024 C1027 1.350 . S
N1025 S1023 1.610 . S
N1025 C1026 1.351 . S
C1026 C1020 1.428 . S
C1026 N1025 1.351 . S
C1026 C1027 1.434 . S
C1027 C1018 1.429 . S
C1027 N1024 1.350 . S
C1027 C1026 1.434 . S
C1028 C1029 1.369 . S
C1028 C1030 1.419 . S
C1028 H1032 0.930 . S
C1029 C1028 1.369 . S
C1029 C1038 1.429 . S
C1030 C1028 1.419 . S
C1030 C1031 1.363 . S
C1030 H1033 0.929 . S
C1031 C1030 1.363 . S
C1031 C1037 1.428 . S
H1032 C1028 0.930 . S
H1033 C1030 0.929 . S
S1034 N1035 1.613 . S
S1034 N1036 1.610 . S
N1035 S1034 1.613 . S
N1035 C1038 1.350 . S
N1036 S1034 1.610 . S
N1036 C1037 1.351 . S
C1037 C1031 1.428 . S
C1037 N1036 1.351 . S
C1037 C1038 1.434 . S
C1038 C1029 1.429 . S
C1038 N1035 1.350 . S
C1038 C1037 1.434 . S
C1039 C1040 1.369 . S
C1039 C1041 1.419 . S
C1039 H1043 0.930 . S
C1040 C1039 1.369 . S
C1040 C1049 1.429 . S
C1041 C1039 1.419 . S
C1041 C1042 1.363 . S
C1041 H1044 0.929 . S
C1042 C1041 1.363 . S
C1042 C1048 1.428 . S
H1043 C1039 0.930 . S
H1044 C1041 0.929 . S
S1045 N1046 1.613 . S
S1045 N1047 1.610 . S
N1046 S1045 1.613 . S
N1046 C1049 1.350 . S
N1047 S1045 1.610 . S
N1047 C1048 1.351 . S
C1048 C1042 1.428 . S
C1048 N1047 1.351 . S
C1048 C1049 1.434 . S
C1049 C1040 1.429 . S
C1049 N1046 1.350 . S
C1049 C1048 1.434 . S
C1050 C1051 1.369 . S
C1050 C1052 1.419 . S
C1050 H1054 0.930 . S
C1051 C1050 1.369 . S
C1051 C1060 1.429 . S
C1052 C1050 1.419 . S
C1052 C1053 1.363 . S
C1052 H1055 0.929 . S
C1053 C1052 1.363 . S
C1053 C1059 1.428 . S
H1054 C1050 0.930 . S
H1055 C1052 0.929 . S
S1056 N1057 1.613 1_565 S
S1056 N1058 1.610 . S
N1057 S1056 1.613 1_545 S
N1057 C1060 1.350 . S
N1058 S1056 1.610 . S
N1058 C1059 1.351 1_565 S
C1059 C1053 1.428 . S
C1059 N1058 1.351 1_545 S
C1059 C1060 1.434 . S
C1060 C1051 1.429 . S
C1060 N1057 1.350 . S
C1060 C1059 1.434 . S
C1061 C1062 1.369 . S
C1061 C1063 1.419 . S
C1061 H1065 0.930 . S
C1062 C1061 1.369 . S
C1062 C1071 1.429 . S
C1063 C1061 1.419 . S
C1063 C1064 1.363 . S
C1063 H1066 0.929 . S
C1064 C1063 1.363 . S
C1064 C1070 1.428 . S
H1065 C1061 0.930 . S
H1066 C1063 0.929 . S
S1067 N1068 1.613 . S
S1067 N1069 1.610 . S
N1068 S1067 1.613 . S
N1068 C1071 1.350 . S
N1069 S1067 1.610 . S
N1069 C1070 1.351 . S
C1070 C1064 1.428 . S
C1070 N1069 1.351 . S
C1070 C1071 1.434 . S
C1071 C1062 1.429 . S
C1071 N1068 1.350 . S
C1071 C1070 1.434 . S
C1072 C1073 1.369 . S
C1072 C1074 1.419 . S
C1072 H1076 0.930 . S
C1073 C1072 1.369 . S
C1073 C1082 1.429 . S
C1074 C1072 1.419 . S
C1074 C1075 1.363 . S
C1074 H1077 0.929 . S
C1075 C1074 1.363 . S
C1075 C1081 1.428 . S
H1076 C1072 0.930 . S
H1077 C1074 0.929 . S
S1078 N1079 1.613 . S
S1078 N1080 1.610 . S
N1079 S1078 1.613 . S
N1079 C1082 1.350 . S
N1080 S1078 1.610 . S
N1080 C1081 1.351 . S
C1081 C1075 1.428 . S
C1081 N1080 1.351 . S
C1081 C1082 1.434 . S
C1082 C1073 1.429 . S
C1082 N1079 1.350 . S
C1082 C1081 1.434 . S
C1083 C1084 1.369 . S
C1083 C1085 1.419 . S
C1083 H1087 0.930 . S
C1084 C1083 1.369 . S
C1084 C1093 1.429 . S
C1085 C1083 1.419 . S
C1085 C1086 1.363 . S
C1085 H1088 0.929 . S
C1086 C1085 1.363 . S
C1086 C1092 1.428 . S
H1087 C1083 0.930 . S
H1088 C1085 0.929 . S
S1089 N1090 1.613 . S
S1089 N1091 1.610 . S
N1090 S1089 1.613 . S
N1090 C1093 1.350 . S
N1091 S1089 1.610 . S
N1091 C1092 1.351 . S
C1092 C1086 1.428 . S
C1092 N1091 1.351 . S
C1092 C1093 1.434 . S
C1093 C1084 1.429 . S
C1093 N1090 1.350 . S
C1093 C1092 1.434 . S
C1094 C1095 1.369 . S
C1094 C1096 1.419 . S
C1094 H1098 0.930 . S
C1095 C1094 1.369 . S
C1095 C1104 1.429 . S
C1096 C1094 1.419 . S
C1096 C1097 1.363 . S
C1096 H1099 0.929 . S
C1097 C1096 1.363 . S
C1097 C1103 1.428 . S
H1098 C1094 0.930 . S
H1099 C1096 0.929 . S
S1100 N1101 1.613 . S
S1100 N1102 1.610 . S
N1101 S1100 1.613 . S
N1101 C1104 1.350 . S
N1102 S1100 1.610 . S
N1102 C1103 1.351 . S
C1103 C1097 1.428 . S
C1103 N1102 1.351 . S
C1103 C1104 1.434 . S
C1104 C1095 1.429 . S
C1104 N1101 1.350 . S
C1104 C1103 1.434 . S
C1105 C1106 1.369 . S
C1105 C1107 1.419 . S
C1105 H1109 0.930 . S
C1106 C1105 1.369 . S
C1106 C1115 1.429 . S
C1107 C1105 1.419 . S
C1107 C1108 1.363 . S
C1107 H1110 0.929 . S
C1108 C1107 1.363 . S
C1108 C1114 1.428 . S
H1109 C1105 0.930 . S
H1110 C1107 0.929 . S
S1111 N1112 1.613 . S
S1111 N1113 1.610 . S
N1112 S1111 1.613 . S
N1112 C1115 1.350 . S
N1113 S1111 1.610 . S
N1113 C1114 1.351 . S
C1114 C1108 1.428 . S
C1114 N1113 1.351 . S
C1114 C1115 1.434 . S
C1115 C1106 1.429 . S
C1115 N1112 1.350 . S
C1115 C1114 1.434 . S
C1116 C1117 1.369 . S
C1116 C1118 1.419 . S
C1116 H1120 0.930 . S
C1117 C1116 1.369 . S
C1117 C1126 1.429 . S
C1118 C1116 1.419 . S
C1118 C1119 1.363 . S
C1118 H1121 0.929 . S
C1119 C1118 1.363 . S
C1119 C1125 1.428 . S
H1120 C1116 0.930 . S
H1121 C1118 0.929 . S
S1122 N1123 1.613 . S
S1122 N1124 1.610 . S
N1123 S1122 1.613 . S
N1123 C1126 1.350 . S
N1124 S1122 1.610 . S
N1124 C1125 1.351 . S
C1125 C1119 1.428 . S
C1125 N1124 1.351 . S
C1125 C1126 1.434 . S
C1126 C1117 1.429 . S
C1126 N1123 1.350 . S
C1126 C1125 1.434 . S
C1127 C1128 1.369 . S
C1127 C1129 1.419 . S
C1127 H1131 0.930 . S
C1128 C1127 1.369 . S
C1128 C1137 1.429 . S
C1129 C1127 1.419 . S
C1129 C1130 1.363 . S
C1129 H1132 0.929 . S
C1130 C1129 1.363 . S
C1130 C1136 1.428 . S
H1131 C1127 0.930 . S
H1132 C1129 0.929 . S
S1133 N1134 1.613 . S
S1133 N1135 1.610 . S
N1134 S1133 1.613 . S
N1134 C1137 1.350 . S
N1135 S1133 1.610 . S
N1135 C1136 1.351 . S
C1136 C1130 1.428 . S
C1136 N1135 1.351 . S
C1136 C1137 1.434 . S
C1137 C1128 1.429 . S
C1137 N1134 1.350 . S
C1137 C1136 1.434 . S
C1138 C1139 1.369 . S
C1138 C1140 1.419 . S
C1138 H1142 0.930 . S
C1139 C1138 1.369 . S
C1139 C1148 1.429 . S
C1140 C1138 1.419 . S
C1140 C1141 1.363 . S
C1140 H1143 0.929 . S
C1141 C1140 1.363 . S
C1141 C1147 1.428 . S
H1142 C1138 0.930 . S
H1143 C1140 0.929 . S
S1144 N1145 1.613 . S
S1144 N1146 1.610 . S
N1145 S1144 1.613 . S
N1145 C1148 1.350 . S
N1146 S1144 1.610 . S
N1146 C1147 1.351 . S
C1147 C1141 1.428 . S
C1147 N1146 1.351 . S
C1147 C1148 1.434 . S
C1148 C1139 1.429 . S
C1148 N1145 1.350 . S
C1148 C1147 1.434 . S
C1149 C1150 1.369 . S
C1149 C1151 1.419 . S
C1149 H1153 0.930 . S
C1150 C1149 1.369 . S
C1150 C1159 1.429 . S
C1151 C1149 1.419 . S
C1151 C1152 1.363 . S
C1151 H1154 0.929 . S
C1152 C1151 1.363 . S
C1152 C1158 1.428 . S
H1153 C1149 0.930 . S
H1154 C1151 0.929 . S
S1155 N1156 1.613 . S
S1155 N1157 1.610 . S
N1156 S1155 1.613 . S
N1156 C1159 1.350 . S
N1157 S1155 1.610 . S
N1157 C1158 1.351 . S
C1158 C1152 1.428 . S
C1158 N1157 1.351 . S
C1158 C1159 1.434 . S
C1159 C1150 1.429 . S
C1159 N1156 1.350 . S
C1159 C1158 1.434 . S
C1160 C1161 1.369 . S
C1160 C1162 1.419 . S
C1160 H1164 0.930 . S
C1161 C1160 1.369 . S
C1161 C1170 1.429 . S
C1162 C1160 1.419 . S
C1162 C1163 1.363 . S
C1162 H1165 0.929 . S
C1163 C1162 1.363 . S
C1163 C1169 1.428 . S
H1164 C1160 0.930 . S
H1165 C1162 0.929 . S
S1166 N1167 1.613 . S
S1166 N1168 1.610 . S
N1167 S1166 1.613 . S
N1167 C1170 1.350 . S
N1168 S1166 1.610 . S
N1168 C1169 1.351 . S
C1169 C1163 1.428 . S
C1169 N1168 1.351 . S
C1169 C1170 1.434 . S
C1170 C1161 1.429 . S
C1170 N1167 1.350 . S
C1170 C1169 1.434 . S
C1171 C1172 1.369 . S
C1171 C1173 1.419 . S
C1171 H1175 0.930 . S
C1172 C1171 1.369 . S
C1172 C1181 1.429 . S
C1173 C1171 1.419 . S
C1173 C1174 1.363 . S
C1173 H1176 0.929 . S
C1174 C1173 1.363 . S
C1174 C1180 1.428 . S
H1175 C1171 0.930 . S
H1176 C1173 0.929 . S
S1177 N1178 1.613 . S
S1177 N1179 1.610 . S
N1178 S1177 1.613 . S
N1178 C1181 1.350 . S
N1179 S1177 1.610 . S
N1179 C1180 1.351 . S
C1180 C1174 1.428 . S
C1180 N1179 1.351 . S
C1180 C1181 1.434 . S
C1181 C1172 1.429 . S
C1181 N1178 1.350 . S
C1181 C1180 1.434 . S
C1182 C1183 1.369 1_655 S
C1182 C1184 1.425 . S
C1182 H1186 0.930 . S
C1183 C1182 1.369 1_455 S
C1183 C1192 1.429 . S
C1184 C1182 1.425 . S
C1184 C1185 1.365 1_655 S
C1184 H1187 0.921 1_556 S
C1185 C1184 1.365 1_455 S
C1185 C1191 1.429 . S
H1186 C1182 0.930 . S
H1187 C1184 0.921 1_554 S
S1188 N1189 1.613 . S
S1188 N1190 1.610 . S
N1189 S1188 1.613 . S
N1189 C1192 1.350 . S
N1190 S1188 1.610 . S
N1190 C1191 1.351 . S
C1191 C1185 1.429 . S
C1191 N1190 1.351 . S
C1191 C1192 1.434 . S
C1192 C1183 1.429 . S
C1192 N1189 1.350 . S
C1192 C1191 1.434 . S
C1193 C1194 1.369 . S
C1193 C1195 1.419 . S
C1193 H1197 0.930 . S
C1194 C1193 1.369 . S
C1194 C1203 1.429 . S
C1195 C1193 1.419 . S
C1195 C1196 1.363 . S
C1195 H1198 0.929 . S
C1196 C1195 1.363 . S
C1196 C1202 1.428 . S
H1197 C1193 0.930 . S
H1198 C1195 0.929 . S
S1199 N1200 1.613 . S
S1199 N1201 1.610 . S
N1200 S1199 1.613 . S
N1200 C1203 1.350 . S
N1201 S1199 1.610 . S
N1201 C1202 1.351 . S
C1202 C1196 1.428 . S
C1202 N1201 1.351 . S
C1202 C1203 1.434 . S
C1203 C1194 1.429 . S
C1203 N1200 1.350 . S
C1203 C1202 1.434 . S
C1204 C1205 1.369 . S
C1204 C1206 1.419 . S
C1204 H1208 0.930 . S
C1205 C1204 1.369 . S
C1205 C1214 1.429 . S
C1206 C1204 1.419 . S
C1206 C1207 1.363 . S
C1206 H1209 0.929 . S
C1207 C1206 1.363 . S
C1207 C1213 1.428 . S
H1208 C1204 0.930 . S
H1209 C1206 0.929 . S
S1210 N1211 1.613 . S
S1210 N1212 1.610 . S
N1211 S1210 1.613 . S
N1211 C1214 1.350 . S
N1212 S1210 1.610 . S
N1212 C1213 1.351 . S
C1213 C1207 1.428 . S
C1213 N1212 1.351 . S
C1213 C1214 1.434 . S
C1214 C1205 1.429 . S
C1214 N1211 1.350 . S
C1214 C1213 1.434 . S
C1215 C1216 1.369 . S
C1215 C1217 1.419 . S
C1215 H1219 0.930 . S
C1216 C1215 1.369 . S
C1216 C1225 1.429 . S
C1217 C1215 1.419 . S
C1217 C1218 1.363 . S
C1217 H1220 0.929 . S
C1218 C1217 1.363 . S
C1218 C1224 1.428 . S
H1219 C1215 0.930 . S
H1220 C1217 0.929 . S
S1221 N1222 1.613 . S
S1221 N1223 1.610 . S
N1222 S1221 1.613 . S
N1222 C1225 1.350 . S
N1223 S1221 1.610 . S
N1223 C1224 1.351 . S
C1224 C1218 1.428 . S
C1224 N1223 1.351 . S
C1224 C1225 1.434 . S
C1225 C1216 1.429 . S
C1225 N1222 1.350 . S
C1225 C1224 1.434 . S
C1226 C1227 1.369 . S
C1226 C1228 1.419 . S
C1226 H1230 0.930 . S
C1227 C1226 1.369 . S
C1227 C1236 1.428 1_655 S
C1228 C1226 1.419 . S
C1228 C1229 1.363 1_655 S
C1228 H1231 0.929 . S
C1229 C1228 1.363 1_455 S
C1229 C1235 1.428 . S
H1230 C1226 0.930 . S
H1231 C1228 0.929 . S
S1232 N1233 1.613 1_455 S
S1232 N1234 1.610 . S
N1233 S1232 1.613 1_655 S
N1233 C1236 1.349 1_655 S
N1234 S1232 1.610 . S
N1234 C1235 1.351 . S
C1235 C1229 1.428 . S
C1235 N1234 1.351 . S
C1235 C1236 1.436 . S
C1236 C1227 1.428 1_455 S
C1236 N1233 1.349 1_455 S
C1236 C1235 1.436 . S
C1237 C1238 1.369 . S
C1237 C1239 1.419 . S
C1237 H1241 0.930 . S
C1238 C1237 1.369 . S
C1238 C1247 1.429 . S
C1239 C1237 1.419 . S
C1239 C1240 1.363 . S
C1239 H1242 0.929 . S
C1240 C1239 1.363 . S
C1240 C1246 1.428 . S
H1241 C1237 0.930 . S
H1242 C1239 0.929 . S
S1243 N1244 1.613 . S
S1243 N1245 1.610 . S
N1244 S1243 1.613 . S
N1244 C1247 1.350 . S
N1245 S1243 1.610 . S
N1245 C1246 1.351 . S
C1246 C1240 1.428 . S
C1246 N1245 1.351 . S
C1246 C1247 1.434 . S
C1247 C1238 1.429 . S
C1247 N1244 1.350 . S
C1247 C1246 1.434 . S
C1248 C1249 1.369 . S
C1248 C1250 1.419 . S
C1248 H1252 0.930 . S
C1249 C1248 1.369 . S
C1249 C1258 1.429 . S
C1250 C1248 1.419 . S
C1250 C1251 1.363 . S
C1250 H1253 0.929 . S
C1251 C1250 1.363 . S
C1251 C1257 1.428 . S
H1252 C1248 0.930 . S
H1253 C1250 0.929 . S
S1254 N1255 1.613 . S
S1254 N1256 1.610 . S
N1255 S1254 1.613 . S
N1255 C1258 1.350 . S
N1256 S1254 1.610 . S
N1256 C1257 1.351 . S
C1257 C1251 1.428 . S
C1257 N1256 1.351 . S
C1257 C1258 1.434 . S
C1258 C1249 1.429 . S
C1258 N1255 1.350 . S
C1258 C1257 1.434 . S
C1259 C1260 1.369 . S
C1259 C1261 1.419 . S
C1259 H1263 0.930 . S
C1260 C1259 1.369 . S
C1260 C1269 1.429 . S
C1261 C1259 1.419 . S
C1261 C1262 1.363 . S
C1261 H1264 0.929 . S
C1262 C1261 1.363 . S
C1262 C1268 1.428 . S
H1263 C1259 0.930 . S
H1264 C1261 0.929 . S
S1265 N1266 1.613 . S
S1265 N1267 1.610 1_554 S
N1266 S1265 1.613 . S
N1266 C1269 1.350 1_554 S
N1267 S1265 1.610 1_556 S
N1267 C1268 1.351 . S
C1268 C1262 1.428 . S
C1268 N1267 1.351 . S
C1268 C1269 1.434 . S
C1269 C1260 1.429 . S
C1269 N1266 1.350 1_556 S
C1269 C1268 1.434 . S
C1270 C1271 1.369 . S
C1270 C1272 1.419 . S
C1270 H1274 0.930 . S
C1271 C1270 1.369 . S
C1271 C1280 1.429 . S
C1272 C1270 1.419 . S
C1272 C1273 1.363 . S
C1272 H1275 0.929 . S
C1273 C1272 1.363 . S
C1273 C1279 1.428 . S
H1274 C1270 0.930 . S
H1275 C1272 0.929 . S
S1276 N1277 1.613 . S
S1276 N1278 1.610 . S
N1277 S1276 1.613 . S
N1277 C1280 1.350 . S
N1278 S1276 1.610 . S
N1278 C1279 1.351 . S
C1279 C1273 1.428 . S
C1279 N1278 1.351 . S
C1279 C1280 1.434 . S
C1280 C1271 1.429 . S
C1280 N1277 1.350 . S
C1280 C1279 1.434 . S
C1281 C1282 1.369 . S
C1281 C1283 1.419 . S
C1281 H1285 0.930 . S
C1282 C1281 1.369 . S
C1282 C1291 1.429 . S
C1283 C1281 1.419 . S
C1283 C1284 1.363 . S
C1283 H1286 0.929 . S
C1284 C1283 1.363 . S
C1284 C1290 1.428 . S
H1285 C1281 0.930 . S
H1286 C1283 0.929 . S
S1287 N1288 1.613 . S
S1287 N1289 1.610 . S
N1288 S1287 1.613 . S
N1288 C1291 1.350 . S
N1289 S1287 1.610 . S
N1289 C1290 1.351 . S
C1290 C1284 1.428 . S
C1290 N1289 1.351 . S
C1290 C1291 1.434 . S
C1291 C1282 1.429 . S
C1291 N1288 1.350 . S
C1291 C1290 1.434 . S
C1292 C1293 1.369 . S
C1292 C1294 1.419 . S
C1292 H1296 0.930 . S
C1293 C1292 1.369 . S
C1293 C1302 1.429 . S
C1294 C1292 1.419 . S
C1294 C1295 1.363 . S
C1294 H1297 0.929 . S
C1295 C1294 1.363 . S
C1295 C1301 1.428 . S
H1296 C1292 0.930 . S
H1297 C1294 0.929 . S
S1298 N1299 1.613 . S
S1298 N1300 1.610 . S
N1299 S1298 1.613 . S
N1299 C1302 1.350 . S
N1300 S1298 1.610 . S
N1300 C1301 1.351 . S
C1301 C1295 1.428 . S
C1301 N1300 1.351 . S
C1301 C1302 1.434 . S
C1302 C1293 1.429 . S
C1302 N1299 1.350 . S
C1302 C1301 1.434 . S
C1303 C1304 1.369 . S
C1303 C1305 1.419 . S
C1303 H1307 0.930 . S
C1304 C1303 1.369 . S
C1304 C1313 1.429 . S
C1305 C1303 1.419 . S
C1305 C1306 1.363 . S
C1305 H1308 0.929 . S
C1306 C1305 1.363 . S
C1306 C1312 1.428 . S
H1307 C1303 0.930 . S
H1308 C1305 0.929 . S
S1309 N1310 1.613 . S
S1309 N1311 1.610 . S
N1310 S1309 1.613 . S
N1310 C1313 1.350 . S
N1311 S1309 1.610 . S
N1311 C1312 1.351 . S
C1312 C1306 1.428 . S
C1312 N1311 1.351 . S
C1312 C1313 1.434 . S
C1313 C1304 1.429 . S
C1313 N1310 1.350 . S
C1313 C1312 1.434 . S
C1314 C1315 1.369 . S
C1314 C1316 1.419 . S
C1314 H1318 0.930 . S
C1315 C1314 1.369 . S
C1315 C1324 1.429 . S
C1316 C1314 1.419 . S
C1316 C1317 1.363 . S
C1316 H1319 0.929 . S
C1317 C1316 1.363 . S
C1317 C1323 1.428 . S
H1318 C1314 0.930 . S
H1319 C1316 0.929 . S
S1320 N1321 1.613 . S
S1320 N1322 1.610 . S
N1321 S1320 1.613 . S
N1321 C1324 1.350 . S
N1322 S1320 1.610 . S
N1322 C1323 1.351 . S
C1323 C1317 1.428 . S
C1323 N1322 1.351 . S
C1323 C1324 1.434 . S
C1324 C1315 1.429 . S
C1324 N1321 1.350 . S
C1324 C1323 1.434 . S
C1325 C1326 1.369 . S
C1325 C1327 1.419 . S
C1325 H1329 0.930 . S
C1326 C1325 1.369 . S
C1326 C1335 1.429 . S
C1327 C1325 1.419 . S
C1327 C1328 1.363 . S
C1327 H1330 0.929 . S
C1328 C1327 1.363 . S
C1328 C1334 1.428 . S
H1329 C1325 0.930 . S
H1330 C1327 0.929 . S
S1331 N1332 1.613 . S
S1331 N1333 1.610 . S
N1332 S1331 1.613 . S
N1332 C1335 1.350 . S
N1333 S1331 1.610 . S
N1333 C1334 1.351 . S
C1334 C1328 1.428 . S
C1334 N1333 1.351 . S
C1334 C1335 1.434 . S
C1335 C1326 1.429 . S
C1335 N1332 1.350 . S
C1335 C1334 1.434 . S
C1336 C1337 1.369 . S
C1336 C1338 1.419 . S
C1336 H1340 0.930 . S
C1337 C1336 1.369 . S
C1337 C1346 1.429 . S
C1338 C1336 1.419 . S
C1338 C1339 1.363 . S
C1338 H1341 0.929 . S
C1339 C1338 1.363 . S
C1339 C1345 1.428 . S
H1340 C1336 0.930 . S
H1341 C1338 0.929 . S
S1342 N1343 1.613 . S
S1342 N1344 1.610 . S
N1343 S1342 1.613 . S
N1343 C1346 1.350 . S
N1344 S1342 1.610 . S
N1344 C1345 1.351 . S
C1345 C1339 1.428 . S
C1345 N1344 1.351 . S
C1345 C1346 1.434 . S
C1346 C1337 1.429 . S
C1346 N1343 1.350 . S
C1346 C1345 1.434 . S
C1347 C1348 1.369 . S
C1347 C1349 1.419 . S
C1347 H1351 0.930 . S
C1348 C1347 1.369 . S
C1348 C1357 1.429 . S
C1349 C1347 1.419 . S
C1349 C1350 1.363 . S
C1349 H1352 0.929 . S
C1350 C1349 1.363 . S
C1350 C1356 1.428 . S
H1351 C1347 0.930 . S
H1352 C1349 0.929 . S
S1353 N1354 1.613 . S
S1353 N1355 1.610 . S
N1354 S1353 1.613 . S
N1354 C1357 1.350 . S
N1355 S1353 1.610 . S
N1355 C1356 1.351 . S
C1356 C1350 1.428 . S
C1356 N1355 1.351 . S
C1356 C1357 1.434 . S
C1357 C1348 1.429 . S
C1357 N1354 1.350 . S
C1357 C1356 1.434 . S
C1358 C1359 1.369 . S
C1358 C1360 1.419 . S
C1358 H1362 0.930 . S
C1359 C1358 1.369 . S
C1359 C1368 1.429 . S
C1360 C1358 1.419 . S
C1360 C1361 1.363 . S
C1360 H1363 0.929 . S
C1361 C1360 1.363 . S
C1361 C1367 1.428 . S
H1362 C1358 0.930 . S
H1363 C1360 0.929 . S
S1364 N1365 1.613 . S
S1364 N1366 1.610 . S
N1365 S1364 1.613 . S
N1365 C1368 1.350 . S
N1366 S1364 1.610 . S
N1366 C1367 1.351 . S
C1367 C1361 1.428 . S
C1367 N1366 1.351 . S
C1367 C1368 1.434 . S
C1368 C1359 1.429 . S
C1368 N1365 1.350 . S
C1368 C1367 1.434 . S
C1369 C1370 1.369 1_556 S
C1369 C1371 1.419 . S
C1369 H1373 0.930 . S
C1370 C1369 1.369 1_554 S
C1370 C1379 1.429 . S
C1371 C1369 1.419 . S
C1371 C1372 1.363 1_556 S
C1371 H1374 0.929 . S
C1372 C1371 1.363 1_554 S
C1372 C1378 1.428 . S
H1373 C1369 0.930 . S
H1374 C1371 0.929 . S
S1375 N1376 1.613 . S
S1375 N1377 1.610 . S
N1376 S1375 1.613 . S
N1376 C1379 1.350 . S
N1377 S1375 1.610 . S
N1377 C1378 1.351 . S
C1378 C1372 1.428 . S
C1378 N1377 1.351 . S
C1378 C1379 1.434 . S
C1379 C1370 1.429 . S
C1379 N1376 1.350 . S
C1379 C1378 1.434 . S
C1380 C1381 1.369 . S
C1380 C1382 1.419 . S
C1380 H1384 0.930 . S
C1381 C1380 1.369 . S
C1381 C1390 1.429 . S
C1382 C1380 1.419 . S
C1382 C1383 1.363 . S
C1382 H1385 0.929 . S
C1383 C1382 1.363 . S
C1383 C1389 1.428 . S
H1384 C1380 0.930 . S
H1385 C1382 0.929 . S
S1386 N1387 1.613 . S
S1386 N1388 1.610 . S
N1387 S1386 1.613 . S
N1387 C1390 1.350 . S
N1388 S1386 1.610 . S
N1388 C1389 1.351 . S
C1389 C1383 1.428 . S
C1389 N1388 1.351 . S
C1389 C1390 1.434 . S
C1390 C1381 1.429 . S
C1390 N1387 1.350 . S
C1390 C1389 1.434 . S
C1391 C1392 1.369 . S
C1391 C1393 1.419 . S
C1391 H1395 0.930 . S
C1392 C1391 1.369 . S
C1392 C1401 1.429 . S
C1393 C1391 1.419 . S
C1393 C1394 1.363 . S
C1393 H1396 0.929 . S
C1394 C1393 1.363 . S
C1394 C1400 1.428 . S
H1395 C1391 0.930 . S
H1396 C1393 0.929 . S
S1397 N1398 1.613 . S
S1397 N1399 1.610 1_556 S
N1398 S1397 1.613 . S
N1398 C1401 1.350 1_556 S
N1399 S1397 1.610 1_554 S
N1399 C1400 1.351 . S
C1400 C1394 1.428 . S
C1400 N1399 1.351 . S
C1400 C1401 1.434 . S
C1401 C1392 1.429 . S
C1401 N1398 1.350 1_554 S
C1401 C1400 1.434 . S
C1402 C1403 1.369 . S
C1402 C1404 1.419 . S
C1402 H1406 0.930 . S
C1403 C1402 1.369 . S
C1403 C1412 1.429 . S
C1404 C1402 1.419 . S
C1404 C1405 1.363 . S
C1404 H1407 0.929 . S
C1405 C1404 1.363 . S
C1405 C1411 1.428 . S
H1406 C1402 0.930 . S
H1407 C1404 0.929 . S
S1408 N1409 1.613 . S
S1408 N1410 1.610 . S
N1409 S1408 1.613 . S
N1409 C1412 1.350 . S
N1410 S1408 1.610 . S
N1410 C1411 1.351 . S
C1411 C1405 1.428 . S
C1411 N1410 1.351 . S
C1411 C1412 1.434 . S
C1412 C1403 1.429 . S
C1412 N1409 1.350 . S
C1412 C1411 1.434 . S
C1413 C1414 1.369 . S
C1413 C1415 1.419 . S
C1413 H1417 0.930 . S
C1414 C1413 1.369 . S
C1414 C1423 1.429 . S
C1415 C1413 1.419 . S
C1415 C1416 1.363 . S
C1415 H1418 0.929 . S
C1416 C1415 1.363 . S
C1416 C1422 1.428 . S
H1417 C1413 0.930 . S
H1418 C1415 0.929 . S
S1419 N1420 1.613 . S
S1419 N1421 1.610 . S
N1420 S1419 1.613 . S
N1420 C1423 1.350 . S
N1421 S1419 1.610 . S
N1421 C1422 1.351 . S
C1422 C1416 1.428 . S
C1422 N1421 1.351 . S
C1422 C1423 1.434 . S
C1423 C1414 1.429 . S
C1423 N1420 1.350 . S
C1423 C1422 1.434 . S
C1424 C1425 1.369 . S
C1424 C1426 1.419 . S
C1424 H1428 0.930 . S
C1425 C1424 1.369 . S
C1425 C1434 1.429 . S
C1426 C1424 1.419 . S
C1426 C1427 1.363 . S
C1426 H1429 0.929 . S
C1427 C1426 1.363 . S
C1427 C1433 1.428 . S
H1428 C1424 0.930 . S
H1429 C1426 0.929 . S
S1430 N1431 1.613 . S
S1430 N1432 1.610 . S
N1431 S1430 1.613 . S
N1431 C1434 1.350 . S
N1432 S1430 1.610 . S
N1432 C1433 1.351 . S
C1433 C1427 1.428 . S
C1433 N1432 1.351 . S
C1433 C1434 1.434 . S
C1434 C1425 1.429 . S
C1434 N1431 1.350 . S
C1434 C1433 1.434 . S
C1435 C1436 1.369 . S
C1435 C1437 1.419 . S
C1435 H1439 0.930 . S
C1436 C1435 1.369 . S
C1436 C1445 1.429 . S
C1437 C1435 1.419 . S
C1437 C1438 1.363 . S
C1437 H1440 0.929 . S
C1438 C1437 1.363 . S
C1438 C1444 1.428 . S
H1439 C1435 0.930 . S
H1440 C1437 0.929 . S
S1441 N1442 1.613 . S
S1441 N1443 1.610 . S
N1442 S1441 1.613 . S
N1442 C1445 1.350 . S
N1443 S1441 1.610 . S
N1443 C1444 1.351 . S
C1444 C1438 1.428 . S
C1444 N1443 1.351 . S
C1444 C1445 1.434 . S
C1445 C1436 1.429 . S
C1445 N1442 1.350 . S
C1445 C1444 1.434 . S
C1446 C1447 1.366 1_655 S
C1446 C1448 1.418 . S
C1446 H1450 0.935 . S
C1447 C1446 1.366 1_455 S
C1447 C1456 1.429 . S
C1448 C1446 1.418 . S
C1448 C1449 1.363 1_655 S
C1448 H1451 0.929 . S
C1449 C1448 1.363 1_455 S
C1449 C1455 1.428 . S
H1450 C1446 0.935 . S
H1451 C1448 0.929 . S
S1452 N1453 1.613 . S
S1452 N1454 1.610 . S
N1453 S1452 1.613 . S
N1453 C1456 1.350 . S
N1454 S1452 1.610 . S
N1454 C1455 1.351 . S
C1455 C1449 1.428 . S
C1455 N1454 1.351 . S
C1455 C1456 1.434 . S
C1456 C1447 1.429 . S
C1456 N1453 1.350 . S
C1456 C1455 1.434 . S
C1457 C1458 1.369 . S
C1457 C1459 1.419 . S
C1457 H1461 0.930 . S
C1458 C1457 1.369 . S
C1458 C1467 1.429 . S
C1459 C1457 1.419 . S
C1459 C1460 1.363 . S
C1459 H1462 0.929 . S
C1460 C1459 1.363 . S
C1460 C1466 1.428 . S
H1461 C1457 0.930 . S
H1462 C1459 0.929 . S
S1463 N1464 1.613 . S
S1463 N1465 1.610 . S
N1464 S1463 1.613 . S
N1464 C1467 1.350 . S
N1465 S1463 1.610 . S
N1465 C1466 1.351 . S
C1466 C1460 1.428 . S
C1466 N1465 1.351 . S
C1466 C1467 1.434 . S
C1467 C1458 1.429 . S
C1467 N1464 1.350 . S
C1467 C1466 1.434 . S
C1468 C1469 1.369 . S
C1468 C1470 1.419 . S
C1468 H1472 0.930 . S
C1469 C1468 1.369 . S
C1469 C1478 1.429 . S
C1470 C1468 1.419 . S
C1470 C1471 1.363 . S
C1470 H1473 0.929 . S
C1471 C1470 1.363 . S
C1471 C1477 1.428 . S
H1472 C1468 0.930 . S
H1473 C1470 0.929 . S
S1474 N1475 1.613 . S
S1474 N1476 1.610 . S
N1475 S1474 1.613 . S
N1475 C1478 1.350 . S
N1476 S1474 1.610 . S
N1476 C1477 1.351 . S
C1477 C1471 1.428 . S
C1477 N1476 1.351 . S
C1477 C1478 1.434 . S
C1478 C1469 1.429 . S
C1478 N1475 1.350 . S
C1478 C1477 1.434 . S
C1479 C1480 1.369 . S
C1479 C1481 1.419 . S
C1479 H1483 0.930 . S
C1480 C1479 1.369 . S
C1480 C1489 1.429 . S
C1481 C1479 1.419 . S
C1481 C1482 1.363 . S
C1481 H1484 0.929 . S
C1482 C1481 1.363 . S
C1482 C1488 1.428 . S
H1483 C1479 0.930 . S
H1484 C1481 0.929 . S
S1485 N1486 1.613 . S
S1485 N1487 1.610 . S
N1486 S1485 1.613 . S
N1486 C1489 1.350 . S
N1487 S1485 1.610 . S
N1487 C1488 1.351 . S
C1488 C1482 1.428 . S
C1488 N1487 1.351 . S
C1488 C1489 1.434 . S
C1489 C1480 1.429 . S
C1489 N1486 1.350 . S
C1489 C1488 1.434 . S
C1490 C1491 1.369 . S
C1490 C1492 1.419 . S
C1490 H1494 0.930 . S
C1491 C1490 1.369 . S
C1491 C1500 1.429 . S
C1492 C1490 1.419 . S
C1492 C1493 1.363 . S
C1492 H1495 0.929 1_455 S
C1493 C1492 1.363 . S
C1493 C1499 1.428 . S
H1494 C1490 0.930 . S
H1495 C1492 0.929 1_655 S
S1496 N1497 1.613 . S
S1496 N1498 1.610 . S
N1497 S1496 1.613 . S
N1497 C1500 1.350 . S
N1498 S1496 1.610 . S
N1498 C1499 1.351 . S
C1499 C1493 1.428 . S
C1499 N1498 1.351 . S
C1499 C1500 1.434 . S
C1500 C1491 1.429 . S
C1500 N1497 1.350 . S
C1500 C1499 1.434 . S
C1501 C1502 1.369 . S
C1501 C1503 1.419 . S
C1501 H1505 0.930 . S
C1502 C1501 1.369 . S
C1502 C1511 1.429 . S
C1503 C1501 1.419 . S
C1503 C1504 1.363 . S
C1503 H1506 0.929 . S
C1504 C1503 1.363 . S
C1504 C1510 1.428 . S
H1505 C1501 0.930 . S
H1506 C1503 0.929 . S
S1507 N1508 1.613 . S
S1507 N1509 1.610 . S
N1508 S1507 1.613 . S
N1508 C1511 1.350 . S
N1509 S1507 1.610 . S
N1509 C1510 1.351 . S
C1510 C1504 1.428 . S
C1510 N1509 1.351 . S
C1510 C1511 1.434 . S
C1511 C1502 1.429 . S
C1511 N1508 1.350 . S
C1511 C1510 1.434 . S
C1512 C1513 1.369 . S
C1512 C1514 1.419 . S
C1512 H1516 0.930 . S
C1513 C1512 1.369 . S
C1513 C1522 1.429 . S
C1514 C1512 1.419 . S
C1514 C1515 1.363 . S
C1514 H1517 0.929 . S
C1515 C1514 1.363 . S
C1515 C1521 1.428 . S
H1516 C1512 0.930 . S
H1517 C1514 0.929 . S
S1518 N1519 1.613 . S
S1518 N1520 1.610 . S
N1519 S1518 1.613 . S
N1519 C1522 1.350 . S
N1520 S1518 1.610 . S
N1520 C1521 1.351 . S
C1521 C1515 1.428 . S
C1521 N1520 1.351 . S
C1521 C1522 1.434 . S
C1522 C1513 1.429 . S
C1522 N1519 1.350 . S
C1522 C1521 1.434 . S
C1523 C1524 1.369 . S
C1523 C1525 1.419 . S
C1523 H1527 0.930 . S
C1524 C1523 1.369 . S
C1524 C1533 1.429 . S
C1525 C1523 1.419 . S
C1525 C1526 1.363 . S
C1525 H1528 0.929 . S
C1526 C1525 1.363 . S
C1526 C1532 1.428 . S
H1527 C1523 0.930 . S
H1528 C1525 0.929 . S
S1529 N1530 1.613 . S
S1529 N1531 1.610 . S
N1530 S1529 1.613 . S
N1530 C1533 1.350 . S
N1531 S1529 1.610 . S
N1531 C1532 1.351 . S
C1532 C1526 1.428 . S
C1532 N1531 1.351 . S
C1532 C1533 1.434 . S
C1533 C1524 1.429 . S
C1533 N1530 1.350 . S
C1533 C1532 1.434 . S
C1534 C1535 1.369 . S
C1534 C1536 1.419 . S
C1534 H1538 0.930 . S
C1535 C1534 1.369 . S
C1535 C1544 1.429 . S
C1536 C1534 1.419 . S
C1536 C1537 1.363 . S
C1536 H1539 0.929 1_655 S
C1537 C1536 1.363 . S
C1537 C1543 1.428 . S
H1538 C1534 0.930 . S
H1539 C1536 0.929 1_455 S
S1540 N1541 1.613 . S
S1540 N1542 1.610 . S
N1541 S1540 1.613 . S
N1541 C1544 1.350 . S
N1542 S1540 1.610 . S
N1542 C1543 1.351 . S
C1543 C1537 1.428 . S
C1543 N1542 1.351 . S
C1543 C1544 1.434 . S
C1544 C1535 1.429 . S
C1544 N1541 1.350 . S
C1544 C1543 1.434 . S
C1545 C1546 1.369 . S
C1545 C1547 1.419 . S
C1545 H1549 0.930 . S
C1546 C1545 1.369 . S
C1546 C1555 1.429 . S
C1547 C1545 1.419 . S
C1547 C1548 1.363 . S
C1547 H1550 0.929 . S
C1548 C1547 1.363 . S
C1548 C1554 1.428 . S
H1549 C1545 0.930 . S
H1550 C1547 0.929 . S
S1551 N1552 1.613 . S
S1551 N1553 1.610 . S
N1552 S1551 1.613 . S
N1552 C1555 1.350 . S
N1553 S1551 1.610 . S
N1553 C1554 1.351 . S
C1554 C1548 1.428 . S
C1554 N1553 1.351 . S
C1554 C1555 1.434 . S
C1555 C1546 1.429 . S
C1555 N1552 1.350 . S
C1555 C1554 1.434 . S
C1556 C1557 1.369 . S
C1556 C1558 1.419 . S
C1556 H1560 0.930 . S
C1557 C1556 1.369 . S
C1557 C1566 1.429 . S
C1558 C1556 1.419 . S
C1558 C1559 1.363 . S
C1558 H1561 0.929 . S
C1559 C1558 1.363 . S
C1559 C1565 1.428 . S
H1560 C1556 0.930 . S
H1561 C1558 0.929 . S
S1562 N1563 1.613 . S
S1562 N1564 1.610 . S
N1563 S1562 1.613 . S
N1563 C1566 1.350 . S
N1564 S1562 1.610 . S
N1564 C1565 1.351 . S
C1565 C1559 1.428 . S
C1565 N1564 1.351 . S
C1565 C1566 1.434 . S
C1566 C1557 1.429 . S
C1566 N1563 1.350 . S
C1566 C1565 1.434 . S
C1567 C1568 1.369 . S
C1567 C1569 1.419 . S
C1567 H1571 0.930 . S
C1568 C1567 1.369 . S
C1568 C1577 1.429 . S
C1569 C1567 1.419 . S
C1569 C1570 1.363 . S
C1569 H1572 0.929 . S
C1570 C1569 1.363 . S
C1570 C1576 1.428 . S
H1571 C1567 0.930 . S
H1572 C1569 0.929 . S
S1573 N1574 1.613 . S
S1573 N1575 1.610 . S
N1574 S1573 1.613 . S
N1574 C1577 1.350 . S
N1575 S1573 1.610 . S
N1575 C1576 1.351 . S
C1576 C1570 1.428 . S
C1576 N1575 1.351 . S
C1576 C1577 1.434 . S
C1577 C1568 1.429 . S
C1577 N1574 1.350 . S
C1577 C1576 1.434 . S
C1578 C1579 1.369 . S
C1578 C1580 1.419 . S
C1578 H1582 0.930 . S
C1579 C1578 1.369 . S
C1579 C1588 1.429 . S
C1580 C1578 1.419 . S
C1580 C1581 1.363 . S
C1580 H1583 0.929 . S
C1581 C1580 1.363 . S
C1581 C1587 1.428 . S
H1582 C1578 0.930 . S
H1583 C1580 0.929 . S
S1584 N1585 1.613 1_455 S
S1584 N1586 1.610 . S
N1585 S1584 1.613 1_655 S
N1585 C1588 1.350 . S
N1586 S1584 1.610 . S
N1586 C1587 1.351 1_455 S
C1587 C1581 1.428 . S
C1587 N1586 1.351 1_655 S
C1587 C1588 1.434 . S
C1588 C1579 1.429 . S
C1588 N1585 1.350 . S
C1588 C1587 1.434 . S
C1589 C1590 1.369 . S
C1589 C1591 1.419 . S
C1589 H1593 0.930 . S
C1590 C1589 1.369 . S
C1590 C1599 1.429 . S
C1591 C1589 1.419 . S
C1591 C1592 1.363 . S
C1591 H1594 0.929 . S
C1592 C1591 1.363 . S
C1592 C1598 1.428 . S
H1593 C1589 0.930 . S
H1594 C1591 0.929 . S
S1595 N1596 1.613 . S
S1595 N1597 1.610 . S
N1596 S1595 1.613 . S
N1596 C1599 1.350 . S
N1597 S1595 1.610 . S
N1597 C1598 1.351 . S
C1598 C1592 1.428 . S
C1598 N1597 1.351 . S
C1598 C1599 1.434 . S
C1599 C1590 1.429 . S
C1599 N1596 1.350 . S
C1599 C1598 1.434 . S
C1600 C1601 1.369 . S
C1600 C1602 1.419 . S
C1600 H1604 0.930 . S
C1601 C1600 1.369 . S
C1601 C1610 1.429 . S
C1602 C1600 1.419 . S
C1602 C1603 1.363 . S
C1602 H1605 0.929 . S
C1603 C1602 1.363 . S
C1603 C1609 1.428 . S
H1604 C1600 0.930 . S
H1605 C1602 0.929 . S
S1606 N1607 1.613 . S
S1606 N1608 1.610 . S
N1607 S1606 1.613 . S
N1607 C1610 1.350 . S
N1608 S1606 1.610 . S
N1608 C1609 1.351 . S
C1609 C1603 1.428 . S
C1609 N1608 1.351 . S
C1609 C1610 1.434 . S
C1610 C1601 1.429 . S
C1610 N1607 1.350 . S
C1610 C1609 1.434 . S
C1611 C1612 1.369 . S
C1611 C1613 1.419 . S
C1611 H1615 0.930 . S
C1612 C1611 1.369 . S
C1612 C1621 1.429 . S
C1613 C1611 1.419 . S
C1613 C1614 1.363 . S
C1613 H1616 0.929 . S
C1614 C1613 1.363 . S
C1614 C1620 1.428 . S
H1615 C1611 0.930 . S
H1616 C1613 0.929 . S
S1617 N1618 1.613 . S
S1617 N1619 1.610 . S
N1618 S1617 1.613 . S
N1618 C1621 1.350 . S
N1619 S1617 1.610 . S
N1619 C1620 1.351 . S
C1620 C1614 1.428 . S
C1620 N1619 1.351 . S
C1620 C1621 1.434 . S
C1621 C1612 1.429 . S
C1621 N1618 1.350 . S
C1621 C1620 1.434 . S
C1622 C1623 1.369 . S
C1622 C1624 1.419 . S
C1622 H1626 0.930 . S
C1623 C1622 1.369 . S
C1623 C1632 1.429 . S
C1624 C1622 1.419 . S
C1624 C1625 1.363 . S
C1624 H1627 0.929 . S
C1625 C1624 1.363 . S
C1625 C1631 1.428 . S
H1626 C1622 0.930 . S
H1627 C1624 0.929 . S
S1628 N1629 1.613 . S
S1628 N1630 1.610 . S
N1629 S1628 1.613 . S
N1629 C1632 1.350 . S
N1630 S1628 1.610 . S
N1630 C1631 1.351 . S
C1631 C1625 1.428 . S
C1631 N1630 1.351 . S
C1631 C1632 1.434 . S
C1632 C1623 1.429 . S
C1632 N1629 1.350 . S
C1632 C1631 1.434 . S
C1633 C1634 1.369 . S
C1633 C1635 1.419 . S
C1633 H1637 0.930 . S
C1634 C1633 1.369 . S
C1634 C1643 1.429 1_554 S
C1635 C1633 1.419 . S
C1635 C1636 1.363 . S
C1635 H1638 0.929 . S
C1636 C1635 1.363 . S
C1636 C1642 1.428 1_554 S
H1637 C1633 0.930 . S
H1638 C1635 0.929 . S
S1639 N1640 1.613 . S
S1639 N1641 1.610 . S
N1640 S1639 1.613 . S
N1640 C1643 1.350 . S
N1641 S1639 1.610 . S
N1641 C1642 1.351 . S
C1642 C1636 1.428 1_556 S
C1642 N1641 1.351 . S
C1642 C1643 1.434 . S
C1643 C1634 1.429 1_556 S
C1643 N1640 1.350 . S
C1643 C1642 1.434 . S
C1644 C1645 1.369 . S
C1644 C1646 1.419 . S
C1644 H1648 0.930 . S
C1645 C1644 1.369 . S
C1645 C1654 1.429 . S
C1646 C1644 1.419 . S
C1646 C1647 1.363 . S
C1646 H1649 0.929 . S
C1647 C1646 1.363 . S
C1647 C1653 1.428 . S
H1648 C1644 0.930 . S
H1649 C1646 0.929 . S
S1650 N1651 1.613 . S
S1650 N1652 1.610 . S
N1651 S1650 1.613 . S
N1651 C1654 1.350 . S
N1652 S1650 1.610 . S
N1652 C1653 1.351 . S
C1653 C1647 1.428 . S
C1653 N1652 1.351 . S
C1653 C1654 1.434 . S
C1654 C1645 1.429 . S
C1654 N1651 1.350 . S
C1654 C1653 1.434 . S
C1655 C1656 1.369 . S
C1655 C1657 1.419 . S
C1655 H1659 0.930 . S
C1656 C1655 1.369 . S
C1656 C1665 1.429 . S
C1657 C1655 1.419 . S
C1657 C1658 1.363 . S
C1657 H1660 0.929 . S
C1658 C1657 1.363 . S
C1658 C1664 1.428 . S
H1659 C1655 0.930 . S
H1660 C1657 0.929 . S
S1661 N1662 1.613 . S
S1661 N1663 1.610 . S
N1662 S1661 1.613 . S
N1662 C1665 1.350 . S
N1663 S1661 1.610 . S
N1663 C1664 1.351 . S
C1664 C1658 1.428 . S
C1664 N1663 1.351 . S
C1664 C1665 1.434 . S
C1665 C1656 1.429 . S
C1665 N1662 1.350 . S
C1665 C1664 1.434 . S
C1666 C1667 1.369 . S
C1666 C1668 1.419 . S
C1666 H1670 0.930 . S
C1667 C1666 1.369 . S
C1667 C1676 1.429 . S
C1668 C1666 1.419 . S
C1668 C1669 1.363 . S
C1668 H1671 0.929 . S
C1669 C1668 1.363 . S
C1669 C1675 1.428 . S
H1670 C1666 0.930 . S
H1671 C1668 0.929 . S
S1672 N1673 1.613 . S
S1672 N1674 1.610 . S
N1673 S1672 1.613 . S
N1673 C1676 1.350 . S
N1674 S1672 1.610 . S
N1674 C1675 1.351 . S
C1675 C1669 1.428 . S
C1675 N1674 1.351 . S
C1675 C1676 1.434 . S
C1676 C1667 1.429 . S
C1676 N1673 1.350 . S
C1676 C1675 1.434 . S
C1677 C1678 1.369 . S
C1677 C1679 1.419 . S
C1677 H1681 0.930 . S
C1678 C1677 1.369 . S
C1678 C1687 1.429 . S
C1679 C1677 1.419 . S
C1679 C1680 1.363 . S
C1679 H1682 0.929 . S
C1680 C1679 1.363 . S
C1680 C1686 1.428 . S
H1681 C1677 0.930 . S
H1682 C1679 0.929 . S
S1683 N1684 1.613 . S
S1683 N1685 1.610 . S
N1684 S1683 1.613 . S
N1684 C1687 1.350 . S
N1685 S1683 1.610 . S
N1685 C1686 1.351 . S
C1686 C1680 1.428 . S
C1686 N1685 1.351 . S
C1686 C1687 1.434 . S
C1687 C1678 1.429 . S
C1687 N1684 1.350 . S
C1687 C1686 1.434 . S
C633 C101 1.645 . S
C635 C316 1.324 . S
C644 C57 1.547 . S
C646 C351 1.505 . S
C655 C70 1.211 . S
C657 C356 1.059 . S
C668 C381 1.332 . S
C666 C82 1.451 . S
C677 C23 1.452 . S
C679 C401 1.330 . S
C690 C416 1.054 . S
C688 C29 1.210 . S
C701 C451 1.497 . S
C699 C49 1.535 . S
C710 C10 1.640 . S
C712 C456 1.334 . S
C723 C331 1.649 . S
C721 C218 1.754 . S
C732 C226 1.153 . S
C734 C341 1.045 . S
C745 C371 1.450 1_565 S
C743 C251 1.491 . S
C756 C376 1.136 . S
C754 C159 1.281 . S
C765 C211 1.279 . S
C767 C396 1.134 . S
C778 C431 1.445 . S
C776 C225 1.491 . S
C789 C441 1.034 . S
C787 C252 1.157 . S
C800 C471 1.646 . S
C798 C166 1.753 . S
C811 C321 1.412 . S
C809 C147 1.676 . S
C820 C263 1.746 . S
C822 C491 1.737 . S
C833 C501 1.468 . S
C831 C309 1.627 . S
C844 C516 1.051 . S
C842 C291 1.178 . S
C853 C108 1.682 . S
C855 C461 1.403 . S
C864 C121 1.630 . S
C866 C361 1.466 . S
C875 C302 1.747 . S
C877 C551 1.740 . S
C888 C556 1.043 . S
C886 C276 1.184 . S
C899 C314 1.376 . S
C897 C55 1.588 . S
C910 C570 1.670 . S
C908 C96 1.701 . S
C919 C88 1.329 . S
C921 C354 1.212 . S
C930 C75 1.608 . S
C932 C544 1.522 . S
C943 C404 1.520 . S
C941 C4 1.607 . S
C952 C44 1.334 . S
C954 C494 1.227 . S
C965 C450 1.672 1_556 S
C963 C31 1.701 . S
C976 C574 1.380 . S
C974 C18 1.586 . S
C987 C330 1.738 . S
C985 C133 1.819 . S
C998 C564 1.229 . S
C996 C296 1.291 . S
C1007 C107 1.607 . S
C1009 C370 1.573 . S
C1018 C264 1.442 . S
C1020 C534 1.318 . S
C1029 C140 1.441 . S
C1031 C394 1.326 . S
C1042 C510 1.576 . S
C1040 C289 1.607 . S
C1051 C114 1.295 . S
C1053 C444 1.231 . S
C1062 C265 1.821 . S
C1064 C590 1.742 . S
C1073 C179 1.606 . S
C1075 C324 1.444 . S
C1084 C161 1.915 . S
C1086 C490 1.891 . S
C1095 C244 1.735 . S
C1097 C424 1.626 . S
C1106 C224 1.293 . S
C1108 C514 1.197 . S
C1119 C584 1.450 . S
C1117 C257 1.603 . S
C1128 C199 1.733 . S
C1130 C364 1.627 . S
C1141 C390 1.887 . S
C1139 C237 1.912 . S
C1152 C334 1.193 . S
C1150 C185 1.294 . S
C1161 C69 1.648 . S
C1163 C596 1.321 . S
C1174 C571 1.507 . S
C1172 C83 1.541 . S
C1183 C94 1.211 . S
C1185 C616 1.055 1_556 S
C1194 C56 1.451 . S
C1196 C541 1.333 . S
C1205 C42 1.458 . S
C1207 C481 1.343 . S
C1218 C496 1.069 . S
C1216 C3 1.204 . S
C1229 C531 1.510 . S
C1227 C16 1.541 . S
C1240 C576 1.322 . S
C1238 C36 1.647 . S
C1251 C611 1.648 . S
C1249 C238 1.754 . S
C1260 C174 1.150 . S
C1262 C561 1.046 . S
C1273 C631 1.451 . S
C1271 C186 1.488 . S
C1284 C536 1.134 . S
C1282 C198 1.279 . S
C1295 C476 1.146 . S
C1293 C239 1.279 . S
C1304 C173 1.486 . S
C1306 C511 1.450 . S
C1317 C521 1.030 . S
C1315 C187 1.161 . S
C1326 C205 1.761 . S
C1328 C591 1.643 . S
C1339 C601 1.415 . S
C1337 C290 1.672 . S
C1348 C122 1.747 . S
C1350 C411 1.739 . S
C1361 C421 1.468 . S
C1359 C134 1.631 . S
C1372 C436 1.045 . S
C1370 C148 1.181 . S
C1383 C581 1.414 . S
C1381 C283 1.671 . S
C1392 C270 1.634 . S
C1394 C621 1.458 . S
C1405 C391 1.738 . S
C1403 C135 1.747 . S
C1416 C336 1.050 . S
C1414 C109 1.177 . S
C1425 C81 1.589 . S
C1427 C594 1.375 . S
C1438 C350 1.668 . S
C1436 C68 1.699 . S
C1447 C62 1.328 . S
C1449 C614 1.220 . S
C1458 C95 1.607 . S
C1460 C384 1.521 . S
C1469 C30 1.607 . S
C1471 C484 1.520 . S
C1482 C414 1.218 . S
C1480 C17 1.328 . S
C1491 C5 1.702 . S
C1493 C530 1.672 . S
C1502 C43 1.584 . S
C1504 C454 1.369 . S
C1515 C610 1.738 . S
C1513 C304 1.818 . S
C1524 C153 1.294 . S
C1526 C344 1.218 . S
C1537 C630 1.575 . S
C1535 C278 1.608 . S
C1546 C127 1.442 . S
C1548 C374 1.319 . S
C1557 C303 1.439 . S
C1559 C474 1.317 . S
C1570 C430 1.572 . S
C1568 C146 1.605 . S
C1579 C277 1.293 . S
C1581 C524 1.226 . S
C1592 C470 1.736 . S
C1590 C120 1.819 . S
C1603 C604 1.444 . S
C1601 C231 1.607 . S
C1614 C410 1.887 . S
C1612 C200 1.912 . S
C1623 C212 1.736 . S
C1625 C504 1.622 . S
C1636 C434 1.191 . S
C1634 C172 1.295 . S
C1645 C192 1.608 . S
C1647 C464 1.439 . S
C1656 C160 1.735 . S
C1658 C624 1.625 . S
C1669 C550 1.891 . S
C1667 C213 1.915 . S
C1680 C554 1.192 . S
C1678 C250 1.295 . S
