# Generated by pormake.
# Topology gar, (4,6)-cn, num edge types: 1
# Building blocks:
#     Node 0, Type 0, BuildingBlock: NAHDIM_clean_sbu_0, # of connection points: 4
#     Node 1, Type 0, BuildingBlock: NAHDIM_clean_sbu_0, # of connection points: 4
#     Node 2, Type 0, BuildingBlock: NAHDIM_clean_sbu_0, # of connection points: 4
#     Node 3, Type 0, BuildingBlock: NAHDIM_clean_sbu_0, # of connection points: 4
#     Node 4, Type 0, BuildingBlock: NAHDIM_clean_sbu_0, # of connection points: 4
#     Node 5, Type 0, BuildingBlock: NAHDIM_clean_sbu_0, # of connection points: 4
#     Node 6, Type 0, BuildingBlock: NAHDIM_clean_sbu_0, # of connection points: 4
#     Node 7, Type 0, BuildingBlock: NAHDIM_clean_sbu_0, # of connection points: 4
#     Node 8, Type 0, BuildingBlock: NAHDIM_clean_sbu_0, # of connection points: 4
#     Node 9, Type 0, BuildingBlock: NAHDIM_clean_sbu_0, # of connection points: 4
#     Node 10, Type 0, BuildingBlock: NAHDIM_clean_sbu_0, # of connection points: 4
#     Node 11, Type 0, BuildingBlock: NAHDIM_clean_sbu_0, # of connection points: 4
#     Node 12, Type 0, BuildingBlock: NAHDIM_clean_sbu_0, # of connection points: 4
#     Node 13, Type 0, BuildingBlock: NAHDIM_clean_sbu_0, # of connection points: 4
#     Node 14, Type 0, BuildingBlock: NAHDIM_clean_sbu_0, # of connection points: 4
#     Node 15, Type 0, BuildingBlock: NAHDIM_clean_sbu_0, # of connection points: 4
#     Node 16, Type 0, BuildingBlock: NAHDIM_clean_sbu_0, # of connection points: 4
#     Node 17, Type 0, BuildingBlock: NAHDIM_clean_sbu_0, # of connection points: 4
#     Node 18, Type 0, BuildingBlock: NAHDIM_clean_sbu_0, # of connection points: 4
#     Node 19, Type 0, BuildingBlock: NAHDIM_clean_sbu_0, # of connection points: 4
#     Node 20, Type 0, BuildingBlock: NAHDIM_clean_sbu_0, # of connection points: 4
#     Node 21, Type 0, BuildingBlock: NAHDIM_clean_sbu_0, # of connection points: 4
#     Node 22, Type 0, BuildingBlock: NAHDIM_clean_sbu_0, # of connection points: 4
#     Node 23, Type 0, BuildingBlock: NAHDIM_clean_sbu_0, # of connection points: 4
#     Node 24, Type 1, BuildingBlock: BETDIP_clean_sbu_0, # of connection points: 6
#     Node 25, Type 1, BuildingBlock: BETDIP_clean_sbu_0, # of connection points: 6
#     Node 26, Type 1, BuildingBlock: BETDIP_clean_sbu_0, # of connection points: 6
#     Node 27, Type 1, BuildingBlock: BETDIP_clean_sbu_0, # of connection points: 6
#     Node 28, Type 1, BuildingBlock: BETDIP_clean_sbu_0, # of connection points: 6
#     Node 29, Type 1, BuildingBlock: BETDIP_clean_sbu_0, # of connection points: 6
#     Node 30, Type 1, BuildingBlock: BETDIP_clean_sbu_0, # of connection points: 6
#     Node 31, Type 1, BuildingBlock: BETDIP_clean_sbu_0, # of connection points: 6
#     Node 32, Type 1, BuildingBlock: BETDIP_clean_sbu_0, # of connection points: 6
#     Node 33, Type 1, BuildingBlock: BETDIP_clean_sbu_0, # of connection points: 6
#     Node 34, Type 1, BuildingBlock: BETDIP_clean_sbu_0, # of connection points: 6
#     Node 35, Type 1, BuildingBlock: BETDIP_clean_sbu_0, # of connection points: 6
#     Node 36, Type 1, BuildingBlock: BETDIP_clean_sbu_0, # of connection points: 6
#     Node 37, Type 1, BuildingBlock: BETDIP_clean_sbu_0, # of connection points: 6
#     Node 38, Type 1, BuildingBlock: BETDIP_clean_sbu_0, # of connection points: 6
#     Node 39, Type 1, BuildingBlock: BETDIP_clean_sbu_0, # of connection points: 6
#     Edge 40, Type (0, 1), BuildingBlock: ZUJKAS_clean_linker_0, # of connection points: 2
#     Edge 41, Type (0, 1), BuildingBlock: ZUJKAS_clean_linker_0, # of connection points: 2
#     Edge 42, Type (0, 1), BuildingBlock: ZUJKAS_clean_linker_0, # of connection points: 2
#     Edge 43, Type (0, 1), BuildingBlock: ZUJKAS_clean_linker_0, # of connection points: 2
#     Edge 44, Type (0, 1), BuildingBlock: ZUJKAS_clean_linker_0, # of connection points: 2
#     Edge 45, Type (0, 1), BuildingBlock: ZUJKAS_clean_linker_0, # of connection points: 2
#     Edge 46, Type (0, 1), BuildingBlock: ZUJKAS_clean_linker_0, # of connection points: 2
#     Edge 47, Type (0, 1), BuildingBlock: ZUJKAS_clean_linker_0, # of connection points: 2
#     Edge 48, Type (0, 1), BuildingBlock: ZUJKAS_clean_linker_0, # of connection points: 2
#     Edge 49, Type (0, 1), BuildingBlock: ZUJKAS_clean_linker_0, # of connection points: 2
#     Edge 50, Type (0, 1), BuildingBlock: ZUJKAS_clean_linker_0, # of connection points: 2
#     Edge 51, Type (0, 1), BuildingBlock: ZUJKAS_clean_linker_0, # of connection points: 2
#     Edge 52, Type (0, 1), BuildingBlock: ZUJKAS_clean_linker_0, # of connection points: 2
#     Edge 53, Type (0, 1), BuildingBlock: ZUJKAS_clean_linker_0, # of connection points: 2
#     Edge 54, Type (0, 1), BuildingBlock: ZUJKAS_clean_linker_0, # of connection points: 2
#     Edge 55, Type (0, 1), BuildingBlock: ZUJKAS_clean_linker_0, # of connection points: 2
#     Edge 56, Type (0, 1), BuildingBlock: ZUJKAS_clean_linker_0, # of connection points: 2
#     Edge 57, Type (0, 1), BuildingBlock: ZUJKAS_clean_linker_0, # of connection points: 2
#     Edge 58, Type (0, 1), BuildingBlock: ZUJKAS_clean_linker_0, # of connection points: 2
#     Edge 59, Type (0, 1), BuildingBlock: ZUJKAS_clean_linker_0, # of connection points: 2
#     Edge 60, Type (0, 1), BuildingBlock: ZUJKAS_clean_linker_0, # of connection points: 2
#     Edge 61, Type (0, 1), BuildingBlock: ZUJKAS_clean_linker_0, # of connection points: 2
#     Edge 62, Type (0, 1), BuildingBlock: ZUJKAS_clean_linker_0, # of connection points: 2
#     Edge 63, Type (0, 1), BuildingBlock: ZUJKAS_clean_linker_0, # of connection points: 2
#     Edge 64, Type (0, 1), BuildingBlock: ZUJKAS_clean_linker_0, # of connection points: 2
#     Edge 65, Type (0, 1), BuildingBlock: ZUJKAS_clean_linker_0, # of connection points: 2
#     Edge 66, Type (0, 1), BuildingBlock: ZUJKAS_clean_linker_0, # of connection points: 2
#     Edge 67, Type (0, 1), BuildingBlock: ZUJKAS_clean_linker_0, # of connection points: 2
#     Edge 68, Type (0, 1), BuildingBlock: ZUJKAS_clean_linker_0, # of connection points: 2
#     Edge 69, Type (0, 1), BuildingBlock: ZUJKAS_clean_linker_0, # of connection points: 2
#     Edge 70, Type (0, 1), BuildingBlock: ZUJKAS_clean_linker_0, # of connection points: 2
#     Edge 71, Type (0, 1), BuildingBlock: ZUJKAS_clean_linker_0, # of connection points: 2
#     Edge 72, Type (0, 1), BuildingBlock: ZUJKAS_clean_linker_0, # of connection points: 2
#     Edge 73, Type (0, 1), BuildingBlock: ZUJKAS_clean_linker_0, # of connection points: 2
#     Edge 74, Type (0, 1), BuildingBlock: ZUJKAS_clean_linker_0, # of connection points: 2
#     Edge 75, Type (0, 1), BuildingBlock: ZUJKAS_clean_linker_0, # of connection points: 2
#     Edge 76, Type (0, 1), BuildingBlock: ZUJKAS_clean_linker_0, # of connection points: 2
#     Edge 77, Type (0, 1), BuildingBlock: ZUJKAS_clean_linker_0, # of connection points: 2
#     Edge 78, Type (0, 1), BuildingBlock: ZUJKAS_clean_linker_0, # of connection points: 2
#     Edge 79, Type (0, 1), BuildingBlock: ZUJKAS_clean_linker_0, # of connection points: 2
#     Edge 80, Type (0, 1), BuildingBlock: ZUJKAS_clean_linker_0, # of connection points: 2
#     Edge 81, Type (0, 1), BuildingBlock: ZUJKAS_clean_linker_0, # of connection points: 2
#     Edge 82, Type (0, 1), BuildingBlock: ZUJKAS_clean_linker_0, # of connection points: 2
#     Edge 83, Type (0, 1), BuildingBlock: ZUJKAS_clean_linker_0, # of connection points: 2
#     Edge 84, Type (0, 1), BuildingBlock: ZUJKAS_clean_linker_0, # of connection points: 2
#     Edge 85, Type (0, 1), BuildingBlock: ZUJKAS_clean_linker_0, # of connection points: 2
#     Edge 86, Type (0, 1), BuildingBlock: ZUJKAS_clean_linker_0, # of connection points: 2
#     Edge 87, Type (0, 1), BuildingBlock: ZUJKAS_clean_linker_0, # of connection points: 2
#     Edge 88, Type (0, 1), BuildingBlock: ZUJKAS_clean_linker_0, # of connection points: 2
#     Edge 89, Type (0, 1), BuildingBlock: ZUJKAS_clean_linker_0, # of connection points: 2
#     Edge 90, Type (0, 1), BuildingBlock: ZUJKAS_clean_linker_0, # of connection points: 2
#     Edge 91, Type (0, 1), BuildingBlock: ZUJKAS_clean_linker_0, # of connection points: 2
#     Edge 92, Type (0, 1), BuildingBlock: ZUJKAS_clean_linker_0, # of connection points: 2
#     Edge 93, Type (0, 1), BuildingBlock: ZUJKAS_clean_linker_0, # of connection points: 2
#     Edge 94, Type (0, 1), BuildingBlock: ZUJKAS_clean_linker_0, # of connection points: 2
#     Edge 95, Type (0, 1), BuildingBlock: ZUJKAS_clean_linker_0, # of connection points: 2
#     Edge 96, Type (0, 1), BuildingBlock: ZUJKAS_clean_linker_0, # of connection points: 2
#     Edge 97, Type (0, 1), BuildingBlock: ZUJKAS_clean_linker_0, # of connection points: 2
#     Edge 98, Type (0, 1), BuildingBlock: ZUJKAS_clean_linker_0, # of connection points: 2
#     Edge 99, Type (0, 1), BuildingBlock: ZUJKAS_clean_linker_0, # of connection points: 2
#     Edge 100, Type (0, 1), BuildingBlock: ZUJKAS_clean_linker_0, # of connection points: 2
#     Edge 101, Type (0, 1), BuildingBlock: ZUJKAS_clean_linker_0, # of connection points: 2
#     Edge 102, Type (0, 1), BuildingBlock: ZUJKAS_clean_linker_0, # of connection points: 2
#     Edge 103, Type (0, 1), BuildingBlock: ZUJKAS_clean_linker_0, # of connection points: 2
#     Edge 104, Type (0, 1), BuildingBlock: ZUJKAS_clean_linker_0, # of connection points: 2
#     Edge 105, Type (0, 1), BuildingBlock: ZUJKAS_clean_linker_0, # of connection points: 2
#     Edge 106, Type (0, 1), BuildingBlock: ZUJKAS_clean_linker_0, # of connection points: 2
#     Edge 107, Type (0, 1), BuildingBlock: ZUJKAS_clean_linker_0, # of connection points: 2
#     Edge 108, Type (0, 1), BuildingBlock: ZUJKAS_clean_linker_0, # of connection points: 2
#     Edge 109, Type (0, 1), BuildingBlock: ZUJKAS_clean_linker_0, # of connection points: 2
#     Edge 110, Type (0, 1), BuildingBlock: ZUJKAS_clean_linker_0, # of connection points: 2
#     Edge 111, Type (0, 1), BuildingBlock: ZUJKAS_clean_linker_0, # of connection points: 2
#     Edge 112, Type (0, 1), BuildingBlock: ZUJKAS_clean_linker_0, # of connection points: 2
#     Edge 113, Type (0, 1), BuildingBlock: ZUJKAS_clean_linker_0, # of connection points: 2
#     Edge 114, Type (0, 1), BuildingBlock: ZUJKAS_clean_linker_0, # of connection points: 2
#     Edge 115, Type (0, 1), BuildingBlock: ZUJKAS_clean_linker_0, # of connection points: 2
#     Edge 116, Type (0, 1), BuildingBlock: ZUJKAS_clean_linker_0, # of connection points: 2
#     Edge 117, Type (0, 1), BuildingBlock: ZUJKAS_clean_linker_0, # of connection points: 2
#     Edge 118, Type (0, 1), BuildingBlock: ZUJKAS_clean_linker_0, # of connection points: 2
#     Edge 119, Type (0, 1), BuildingBlock: ZUJKAS_clean_linker_0, # of connection points: 2
#     Edge 120, Type (0, 1), BuildingBlock: ZUJKAS_clean_linker_0, # of connection points: 2
#     Edge 121, Type (0, 1), BuildingBlock: ZUJKAS_clean_linker_0, # of connection points: 2
#     Edge 122, Type (0, 1), BuildingBlock: ZUJKAS_clean_linker_0, # of connection points: 2
#     Edge 123, Type (0, 1), BuildingBlock: ZUJKAS_clean_linker_0, # of connection points: 2
#     Edge 124, Type (0, 1), BuildingBlock: ZUJKAS_clean_linker_0, # of connection points: 2
#     Edge 125, Type (0, 1), BuildingBlock: ZUJKAS_clean_linker_0, # of connection points: 2
#     Edge 126, Type (0, 1), BuildingBlock: ZUJKAS_clean_linker_0, # of connection points: 2
#     Edge 127, Type (0, 1), BuildingBlock: ZUJKAS_clean_linker_0, # of connection points: 2
#     Edge 128, Type (0, 1), BuildingBlock: ZUJKAS_clean_linker_0, # of connection points: 2
#     Edge 129, Type (0, 1), BuildingBlock: ZUJKAS_clean_linker_0, # of connection points: 2
#     Edge 130, Type (0, 1), BuildingBlock: ZUJKAS_clean_linker_0, # of connection points: 2
#     Edge 131, Type (0, 1), BuildingBlock: ZUJKAS_clean_linker_0, # of connection points: 2
#     Edge 132, Type (0, 1), BuildingBlock: ZUJKAS_clean_linker_0, # of connection points: 2
#     Edge 133, Type (0, 1), BuildingBlock: ZUJKAS_clean_linker_0, # of connection points: 2
#     Edge 134, Type (0, 1), BuildingBlock: ZUJKAS_clean_linker_0, # of connection points: 2
#     Edge 135, Type (0, 1), BuildingBlock: ZUJKAS_clean_linker_0, # of connection points: 2
# Relax obj value: 0.164
# Max RMSD: 0.270
# Mean RMSD: 0.163
data_MOF--net-gar--node1-NAHDIM_clean_sbu_0--node2-BETDIP_clean_sbu_0--edge1-ZUJKAS_clean_linker_0
_symmetry_space_group_name_H-M    P1
_symmetry_Int_Tables_number       1
_symmetry_cell_setting            triclinic
loop_
_symmetry_equiv_pos_as_xyz
'x, y, z'
_cell_length_a     80.800454
_cell_length_b     73.205287
_cell_length_c     69.553793
_cell_angle_alpha  96.967721
_cell_angle_beta   98.357256
_cell_angle_gamma 100.80835
loop_
_atom_site_label
_atom_site_type_symbol
_atom_site_fract_x
_atom_site_fract_y
_atom_site_fract_z
_atom_type_partial_charge
C0 C 0.05873 0.31983 0.34875 0.0
O1 O 0.05547 0.33595 0.35599 0.0
O2 O 0.03268 0.27711 0.38024 0.0
Zn3 Zn 0.03285 0.30148 0.36998 0.0
O4 O 0.03686 0.32218 0.39293 0.0
C5 C 1.00467 0.28893 0.33801 0.0
O6 O 0.01403 0.2771 0.33236 0.0
O7 O 0.05088 0.30461 0.35314 0.0
C8 C 0.02772 0.31906 0.40607 0.0
O9 O 0.01683 0.30288 0.40388 0.0
C10 C 0.04656 0.27485 0.38988 0.0
O11 O 0.06026 0.28839 0.39248 0.0
O12 O 0.01022 0.30062 0.3537 0.0
C13 C 0.01419 0.73206 0.70654 0.0
O14 O 0.02619 0.72326 0.71283 0.0
O15 O 0.03297 0.72204 0.65606 0.0
Zn16 Zn 0.03596 0.74353 0.67821 0.0
O17 O 0.03777 0.76754 0.66662 0.0
C18 C 0.06562 0.73177 0.69746 0.0
O19 O 0.05879 0.71557 0.68622 0.0
O20 O 0.01576 0.74099 0.69212 0.0
C21 C 0.05204 0.77856 0.66703 0.0
O22 O 0.06618 0.77441 0.67553 0.0
C23 C 0.04257 0.72381 0.64315 0.0
O24 O 0.05402 0.73947 0.64471 0.0
O25 O 0.0577 0.74519 0.69707 0.0
C26 C 0.55351 0.81596 0.84455 0.0
O27 O 0.55376 0.83113 0.85689 0.0
O28 O 0.52879 0.77452 0.87569 0.0
Zn29 Zn 0.52617 0.79744 0.86346 0.0
O30 O 0.53019 0.81931 0.88526 0.0
C31 C 0.49309 0.77763 0.84171 0.0
O32 O 0.49972 0.76266 0.84294 0.0
O33 O 0.54286 0.80088 0.84486 0.0
C34 C 0.52272 0.83292 0.88318 0.0
O35 O 0.51337 0.83317 0.86614 0.0
C36 C 0.52147 0.77106 0.8902 0.0
O37 O 0.51219 0.78258 0.89681 0.0
O38 O 0.50218 0.79376 0.84901 0.0
C39 C 0.51802 0.25421 0.19866 0.0
O40 O 0.51726 0.26011 0.18151 0.0
O41 O 0.55201 0.23124 0.17415 0.0
Zn42 Zn 0.55233 0.25447 0.19307 0.0
O43 O 0.55204 0.27624 0.17817 0.0
C44 C 0.58224 0.24824 0.2173 0.0
O45 O 0.57602 0.2306 0.2094 0.0
O46 O 0.53194 0.25057 0.20669 0.0
C47 C 0.56503 0.28288 0.17093 0.0
O48 O 0.57866 0.27549 0.1736 0.0
C49 C 0.54596 0.22961 0.15596 0.0
O50 O 0.53935 0.24321 0.14937 0.0
O51 O 0.574 0.26073 0.21287 0.0
C52 C 0.02708 0.78445 0.15511 0.0
O53 O 0.02413 0.77857 0.13608 0.0
O54 O 0.05625 0.76542 0.12852 0.0
Zn55 Zn 0.06169 0.79056 0.14713 0.0
O56 O 0.06286 0.8137 0.13266 0.0
C57 C 0.08828 0.77959 0.17426 0.0
O58 O 0.07582 0.76524 0.17443 0.0
O59 O 0.04255 0.79034 0.16378 0.0
C60 C 0.05287 0.81453 0.11695 0.0
O61 O 0.04133 0.79947 0.10857 0.0
C62 C 0.06799 0.75818 0.12222 0.0
O63 O 0.08383 0.76785 0.12649 0.0
O64 O 0.08515 0.79243 0.16428 0.0
C65 C 0.54621 0.75731 0.40517 0.0
O66 O 0.5485 0.75579 0.42396 0.0
O67 O 0.51177 0.7319 0.42591 0.0
Zn68 Zn 0.51179 0.75575 0.41278 0.0
O69 O 0.5167 0.78022 0.43249 0.0
C70 C 0.47447 0.74509 0.3971 0.0
O71 O 0.47424 0.73432 0.41089 0.0
O72 O 0.53123 0.75763 0.39659 0.0
C73 C 0.50465 0.78718 0.43836 0.0
O74 O 0.48886 0.77755 0.433 0.0
C75 C 0.50656 0.72858 0.44184 0.0
O76 O 0.50011 0.74129 0.45156 0.0
O77 O 0.48878 0.75466 0.39486 0.0
C78 C 0.52683 0.28501 0.65328 0.0
O79 O 0.52398 0.2771 0.63478 0.0
O80 O 0.55636 0.26482 0.62929 0.0
Zn81 Zn 0.56123 0.29152 0.64482 0.0
O82 O 0.56054 0.31214 0.627 0.0
C83 C 0.59767 0.29234 0.6545 0.0
O84 O 0.59556 0.2886 0.63524 0.0
O85 O 0.5422 0.29247 0.66145 0.0
C86 C 0.57048 0.32834 0.63152 0.0
O87 O 0.58214 0.33163 0.6475 0.0
C88 C 0.55951 0.25989 0.61222 0.0
O89 O 0.56598 0.27291 0.60238 0.0
O90 O 0.58484 0.29498 0.66241 0.0
C91 C 0.04569 0.26185 0.90505 0.0
O92 O 0.04868 0.2677 0.92409 0.0
O93 O 0.01314 0.23431 0.93046 0.0
Zn94 Zn 0.01153 0.25552 0.91368 0.0
O95 O 0.01657 0.28126 0.9312 0.0
C96 C 0.98258 0.26586 0.8904 0.0
O97 O 0.99348 0.2821 0.8936 0.0
O98 O 0.03021 0.25578 0.89647 0.0
C99 C 1.0054 0.28737 0.93987 0.0
O100 O 0.99028 0.27637 0.93846 0.0
C101 C 1.00386 0.21779 0.92546 0.0
O102 O 0.99227 0.21434 0.9094 0.0
O103 O 0.98743 0.25184 0.89698 0.0
C104 C 0.395 0.08266 0.27143 0.0
O105 O 0.41161 0.08855 0.27686 0.0
O106 O 0.41695 0.04012 0.24088 0.0
Zn107 Zn 0.40447 0.04193 0.26714 0.0
O108 O 0.42193 0.04613 0.2949 0.0
C109 C 0.38944 0.99888 0.2582 0.0
O110 O 0.4011 0.99898 0.24684 0.0
O111 O 0.38928 0.06464 0.26688 0.0
C112 C 0.42872 0.03298 0.30135 0.0
O113 O 0.42582 0.01673 0.28978 0.0
C114 C 0.43273 0.03985 0.23973 0.0
O115 O 0.44335 0.04102 0.25625 0.0
O116 O 0.38808 0.0148 0.2673 0.0
C117 C 0.29207 0.12403 0.52061 0.0
O118 O 0.28876 0.1309 0.53763 0.0
O119 O 0.27004 0.16005 0.532 0.0
Zn120 Zn 0.2649 0.14295 0.50552 0.0
O121 O 0.26691 0.15936 0.48362 0.0
C122 C 0.23558 0.11935 0.51681 0.0
O123 O 0.24674 0.12078 0.53296 0.0
O124 O 0.28318 0.12673 0.50489 0.0
C125 C 0.2545 0.16056 0.47056 0.0
O126 O 0.23914 0.15086 0.47087 0.0
C127 C 0.25881 0.16815 0.5383 0.0
O128 O 0.2438 0.16594 0.52708 0.0
O129 O 0.24047 0.12707 0.50254 0.0
C130 C 0.162 0.01023 0.78757 0.0
O131 O 0.15362 0.01224 0.77058 0.0
O132 O 0.13384 0.03983 0.7759 0.0
Zn133 Zn 0.14805 0.04191 0.80277 0.0
O134 O 0.13324 0.03911 0.8237 0.0
C135 C 0.16027 0.08132 0.80202 0.0
O136 O 0.14478 0.07958 0.79211 0.0
O137 O 0.16154 0.02133 0.80295 0.0
C138 C 0.13851 0.04809 0.84101 0.0
O139 O 0.15338 0.05992 0.84488 0.0
C140 C 0.11956 0.02855 0.76959 0.0
O141 O 0.1129 0.01743 0.7812 0.0
O142 O 0.16458 0.06706 0.80847 0.0
C143 C 0.21802 0.89386 0.99095 0.0
O144 O 0.22195 0.90119 0.97545 0.0
O145 O 0.26188 0.86664 0.00606 0.0
Zn146 Zn 0.24717 0.87768 0.98679 0.0
O147 O 0.24029 0.85981 0.9615 0.0
C148 C 0.2681 0.91401 0.99777 0.0
O149 O 0.26411 0.91079 0.01489 0.0
O150 O 0.22686 0.88292 0.99811 0.0
C151 C 0.23364 0.8426 0.96125 0.0
O152 O 0.23046 0.83678 0.97774 0.0
C153 C 0.25571 0.85847 0.0193 0.0
O154 O 0.23936 0.85686 0.02004 0.0
O155 O 0.26163 0.90178 0.98268 0.0
C156 C 0.26996 0.40474 0.04653 0.0
O157 O 0.26699 0.38644 0.04104 0.0
O158 O 0.30536 0.38513 0.07651 0.0
Zn159 Zn 0.3046 0.39881 0.05241 0.0
O160 O 0.29944 0.38042 0.02673 0.0
C161 C 0.34166 0.41428 0.06262 0.0
O162 O 0.34114 0.40092 0.07367 0.0
O163 O 0.2854 0.41361 0.05226 0.0
C164 C 0.31119 0.374 0.01955 0.0
O165 O 0.32687 0.37855 0.02951 0.0
C166 C 0.29991 0.36749 0.07557 0.0
O167 O 0.29365 0.35725 0.05828 0.0
O168 O 0.32773 0.41642 0.05283 0.0
C169 C 0.84611 0.15072 0.03058 0.0
O170 O 0.83879 0.1635 0.02318 0.0
O171 O 0.82456 0.16712 0.07793 0.0
Zn172 Zn 0.81897 0.14793 0.0534 0.0
O173 O 0.80507 0.15762 0.03225 0.0
C174 C 0.79981 0.12131 0.07401 0.0
O175 O 0.80514 0.13466 0.08928 0.0
O176 O 0.8401 0.14271 0.04405 0.0
C177 C 0.7905 0.16122 0.03382 0.0
O178 O 0.78404 0.15823 0.04972 0.0
C179 C 0.8249 0.18435 0.07668 0.0
O180 O 0.82271 0.18962 0.05926 0.0
O181 O 0.8046 0.12384 0.05776 0.0
C182 C 0.17146 0.45946 0.28682 0.0
O183 O 0.15491 0.45335 0.28106 0.0
O184 O 0.14722 0.49826 0.26113 0.0
Zn185 Zn 0.16179 0.5003 0.29048 0.0
O186 O 0.14529 0.50035 0.31322 0.0
C187 C 0.17315 0.54245 0.29028 0.0
O188 O 0.1566 0.54046 0.28456 0.0
O189 O 0.17696 0.47752 0.2914 0.0
C190 C 0.15034 0.50686 0.3317 0.0
O191 O 0.16677 0.5138 0.33758 0.0
C192 C 0.13255 0.50258 0.25668 0.0
O193 O 0.12476 0.5076 0.27116 0.0
O194 O 0.17872 0.52772 0.29429 0.0
C195 C 0.76964 0.90949 0.55105 0.0
O196 O 0.76633 0.89107 0.5498 0.0
O197 O 0.80468 0.8892 0.57762 0.0
Zn198 Zn 0.80407 0.9028 0.55335 0.0
O199 O 0.79855 0.88424 0.52775 0.0
C200 C 0.84136 0.91767 0.56309 0.0
O201 O 0.84079 0.90442 0.57428 0.0
O202 O 0.78518 0.91811 0.55294 0.0
C203 C 0.81019 0.8775 0.52067 0.0
O204 O 0.82584 0.8818 0.53068 0.0
C205 C 0.79952 0.8715 0.57663 0.0
O206 O 0.79364 0.86122 0.55929 0.0
O207 O 0.82741 0.91997 0.55346 0.0
C208 C 0.9192 0.04775 0.25518 0.0
O209 O 0.93599 0.05158 0.25792 0.0
O210 O 0.93572 0.00882 0.22991 0.0
Zn211 Zn 0.9247 0.01024 0.25415 0.0
O212 O 0.94206 0.01667 0.27924 0.0
C213 C 0.90695 0.97083 0.2427 0.0
O214 O 0.9163 0.97092 0.22875 0.0
O215 O 0.91131 0.03071 0.2532 0.0
C216 C 0.94791 1.00398 0.28728 0.0
O217 O 0.94315 0.98642 0.27853 0.0
C218 C 0.95124 0.01636 0.22998 0.0
O219 O 0.96095 0.02489 0.24665 0.0
O220 O 0.90846 0.9858 0.25478 0.0
C221 C 0.35045 0.64995 0.53243 0.0
O222 O 0.34351 0.66319 0.52551 0.0
O223 O 0.33457 0.6681 0.58405 0.0
Zn224 Zn 0.32586 0.6505 0.55863 0.0
O225 O 0.31285 0.66391 0.54011 0.0
C226 C 0.30071 0.6286 0.57649 0.0
O227 O 0.30372 0.64422 0.58909 0.0
O228 O 0.34512 0.64276 0.54673 0.0
C229 C 0.30159 0.67262 0.5452 0.0
O230 O 0.298 0.67261 0.56302 0.0
C231 C 0.33928 0.68559 0.58363 0.0
O232 O 0.3399 0.69147 0.56659 0.0
O233 O 0.30929 0.6277 0.5626 0.0
C234 C 0.40136 0.53125 0.76302 0.0
O235 O 0.39986 0.52171 0.77773 0.0
O236 O 0.4367 0.50522 0.73078 0.0
Zn237 Zn 0.42432 0.50686 0.75385 0.0
O238 O 0.4407 0.51379 0.77966 0.0
C239 C 0.40732 0.46733 0.74229 0.0
O240 O 0.41786 0.46744 0.72958 0.0
O241 O 0.41106 0.52725 0.75102 0.0
C242 C 0.44654 0.50131 0.78811 0.0
O243 O 0.44228 0.48372 0.77944 0.0
C244 C 0.45035 0.51703 0.73057 0.0
O245 O 0.4569 0.52978 0.74614 0.0
O246 O 0.40786 0.48238 0.75384 0.0
C247 C 0.67383 0.96165 0.79029 0.0
O248 O 0.65718 0.95545 0.78589 0.0
O249 O 0.64858 0.99946 0.76471 0.0
Zn250 Zn 0.66398 1.00226 0.79374 0.0
O251 O 0.64858 1.00163 0.81766 0.0
C252 C 0.67546 0.04411 0.79104 0.0
O253 O 0.6592 0.04168 0.78349 0.0
O254 O 0.67937 0.97974 0.79403 0.0
C255 C 0.64829 0.01574 0.83067 0.0
O256 O 0.65781 0.03208 0.82952 0.0
C257 C 0.63455 1.00515 0.7603 0.0
O258 O 0.62781 0.01226 0.77483 0.0
O259 O 0.68075 0.02986 0.79697 0.0
C260 C 0.79694 0.63847 0.01457 0.0
O261 O 0.80018 0.65661 0.02111 0.0
O262 O 0.76621 0.66131 0.03402 0.0
Zn263 Zn 0.76279 0.64576 0.00685 0.0
O264 O 0.76509 0.6628 0.98544 0.0
C265 C 0.72634 0.63572 0.00681 0.0
O266 O 0.72893 0.65404 0.01192 0.0
O267 O 0.78154 0.63024 0.00733 0.0
C268 C 0.75408 0.66113 0.96986 0.0
O269 O 0.74011 0.64795 0.96713 0.0
C270 C 0.7718 0.679 0.0385 0.0
O271 O 0.77604 0.68885 0.02473 0.0
O272 O 0.73894 0.62854 1.003 0.0
C273 C 0.88997 0.57958 0.75664 0.0
O274 O 0.89729 0.57836 0.74099 0.0
O275 O 0.91911 0.54405 0.73996 0.0
Zn276 Zn 0.90555 0.54354 0.76538 0.0
O277 O 0.92347 0.5455 0.79244 0.0
C278 C 0.89427 0.50171 0.76733 0.0
O279 O 0.91084 0.50383 0.77305 0.0
O280 O 0.89152 0.56714 0.76818 0.0
C281 C 0.91893 0.53906 0.80775 0.0
O282 O 0.90264 0.53178 0.8069 0.0
C283 C 0.9213 0.52954 0.72882 0.0
O284 O 0.91483 0.51287 0.7328 0.0
O285 O 0.88862 0.51624 0.76283 0.0
C286 C 0.74433 0.42091 0.49607 0.0
O287 O 0.73741 0.40942 0.47967 0.0
O288 O 0.72896 0.37342 0.49657 0.0
Zn289 Zn 0.75327 0.38733 0.50825 0.0
O290 O 0.7681 0.37987 0.48903 0.0
C291 C 0.77458 0.38496 0.54793 0.0
O292 O 0.77444 0.37902 0.565 0.0
O293 O 0.75243 0.41471 0.51003 0.0
C294 C 0.77845 0.36887 0.49124 0.0
O295 O 0.78102 0.36224 0.50789 0.0
C296 C 0.72013 0.35937 0.50209 0.0
O297 O 0.704 0.35333 0.49391 0.0
O298 O 0.76045 0.38205 0.53601 0.0
C299 C 0.6559 0.50749 0.30512 0.0
O300 O 0.63916 0.5026 0.30291 0.0
O301 O 0.6352 0.54037 0.27655 0.0
Zn302 Zn 0.64845 0.54424 0.30416 0.0
O303 O 0.63315 0.54184 0.32455 0.0
C304 C 0.66022 0.58335 0.3013 0.0
O305 O 0.64545 0.58061 0.28949 0.0
O306 O 0.66285 0.52471 0.30599 0.0
C307 C 0.64058 0.54476 0.34238 0.0
O308 O 0.65736 0.54964 0.3463 0.0
C309 C 0.61999 0.53102 0.2708 0.0
O310 O 0.61162 0.52306 0.28349 0.0
O311 O 0.66417 0.56985 0.30961 0.0
Tb312 Tb 0.02049 0.01188 0.01737 0.0
Tb313 Tb 0.05429 0.03278 0.04029 0.0
C314 C 0.98908 1.00306 1.00391 0.0
C315 C 0.97711 0.01503 0.99803 0.0
C316 C 0.97923 0.03326 0.00833 0.0
C317 C 0.96927 0.0455 1.00159 0.0
C318 C 0.95679 0.03965 0.98462 0.0
C319 C 0.95417 0.02122 0.97463 0.0
C320 C 0.96444 0.00901 0.98119 0.0
C321 C 0.04638 0.01143 0.99854 0.0
C322 C 0.03256 0.05674 0.0179 0.0
C323 C 0.0856 0.04232 0.05423 0.0
C324 C 0.09805 0.03158 0.06197 0.0
C325 C 0.11325 0.03245 0.05439 0.0
C326 C 0.1236 0.01962 0.0583 0.0
C327 C 0.11894 1.00571 0.06995 0.0
C328 C 0.10434 1.00576 0.07871 0.0
C329 C 0.09393 0.01855 0.0747 0.0
C330 C 0.02821 0.03342 0.05881 0.0
C331 C 0.04232 0.98773 0.03935 0.0
O332 O 0.99536 1.00551 0.02272 0.0
O333 O 1.00084 1.00211 0.99297 0.0
O334 O 0.04398 0.02506 0.00991 0.0
O335 O 0.03338 0.99748 0.99656 0.0
O336 O 0.01992 0.04168 0.01511 0.0
O337 O 0.04823 0.05617 0.02615 0.0
O338 O 0.0796 0.03757 0.0354 0.0
O339 O 0.07361 0.04464 0.06451 0.0
O340 O 0.03079 0.01968 0.04776 0.0
O341 O 0.04113 0.04742 0.06062 0.0
O342 O 0.05488 1.00298 0.04305 0.0
O343 O 0.02681 0.98818 0.0305 0.0
H344 H 0.98878 0.03823 0.02147 0.0
H345 H 0.97123 0.05953 0.00976 0.0
H346 H 0.94441 0.01642 0.96163 0.0
H347 H 0.96267 0.99502 0.97302 0.0
H348 H 0.1166 0.04232 0.04446 0.0
H349 H 0.13464 0.01986 0.05109 0.0
H350 H 0.10054 0.99538 0.08795 0.0
H351 H 0.08222 0.01755 0.08074 0.0
Tb352 Tb 0.28662 0.7634 0.26057 0.0
Tb353 Tb 0.28523 0.77744 0.30362 0.0
C354 C 0.28413 0.75742 0.22385 0.0
C355 C 0.29311 0.76505 0.20875 0.0
C356 C 0.29906 0.78447 0.20968 0.0
C357 C 0.30623 0.79142 0.19426 0.0
C358 C 0.30756 0.77906 0.17768 0.0
C359 C 0.30248 0.75956 0.17737 0.0
C360 C 0.29528 0.75263 0.19278 0.0
C361 C 0.31224 0.75944 0.28697 0.0
C362 C 0.30135 0.80766 0.27797 0.0
C363 C 0.29278 0.7839 0.3403 0.0
C364 C 0.28482 0.77796 0.35696 0.0
C365 C 0.28318 0.75938 0.36083 0.0
C366 C 0.27675 0.75427 0.37739 0.0
C367 C 0.27169 0.76756 0.39044 0.0
C368 C 0.2728 0.786 0.38619 0.0
C369 C 0.27938 0.79117 0.36966 0.0
C370 C 0.25508 0.77592 0.2812 0.0
C371 C 0.26843 0.73426 0.28495 0.0
O372 O 0.27565 0.76829 0.23301 0.0
O373 O 0.29267 0.74859 0.23572 0.0
O374 O 0.3049 0.77322 0.28716 0.0
O375 O 0.30581 0.74777 0.27097 0.0
O376 O 0.29833 0.79385 0.26266 0.0
O377 O 0.29762 0.80426 0.2954 0.0
O378 O 0.29805 0.77097 0.32937 0.0
O379 O 0.28526 0.79481 0.32992 0.0
O380 O 0.26844 0.7717 0.27637 0.0
O381 O 0.25852 0.78139 0.30004 0.0
O382 O 0.27582 0.74647 0.30114 0.0
O383 O 0.26889 0.73919 0.26721 0.0
H384 H 0.29761 0.79429 0.22196 0.0
H385 H 0.30982 0.80652 0.19483 0.0
H386 H 0.30351 0.7497 0.16489 0.0
H387 H 0.29093 0.73758 0.19195 0.0
H388 H 0.28724 0.74882 0.35136 0.0
H389 H 0.27646 0.74004 0.38036 0.0
H390 H 0.26886 0.79655 0.3958 0.0
H391 H 0.28051 0.80559 0.36699 0.0
Tb392 Tb 0.55118 0.02433 0.52572 0.0
Tb393 Tb 0.5172 0.0205 0.53514 0.0
C394 C 0.58319 0.03047 0.52671 0.0
C395 C 0.59737 0.02023 0.52923 0.0
C396 C 0.61314 0.02956 0.54062 0.0
C397 C 0.62704 0.02061 0.54269 0.0
C398 C 0.62556 1.00206 0.53333 0.0
C399 C 0.60959 0.99261 0.52215 0.0
C400 C 0.59565 1.00157 0.52015 0.0
C401 C 0.5271 0.02351 0.49435 0.0
C402 C 0.5304 0.98359 0.5202 0.0
C403 C 0.48522 0.01429 0.53454 0.0
C404 C 0.47098 0.02452 0.53293 0.0
C405 C 0.46941 0.03732 0.51957 0.0
C406 C 0.45527 0.04601 0.51776 0.0
C407 C 0.44244 0.04217 0.52932 0.0
C408 C 0.44423 0.02951 0.54282 0.0
C409 C 0.4583 0.0208 0.54456 0.0
C410 C 0.54136 0.02132 0.5665 0.0
C411 C 0.53797 0.06131 0.54048 0.0
O412 O 0.57604 0.0339 0.54208 0.0
O413 O 0.57191 0.02542 0.51054 0.0
O414 O 0.52804 0.032 0.51164 0.0
O415 O 0.54033 0.01593 0.4943 0.0
O416 O 0.54601 0.99399 0.52407 0.0
O417 O 0.51707 0.99136 0.52214 0.0
O418 O 0.49231 0.01147 0.51899 0.0
O419 O 0.49656 0.01888 0.55066 0.0
O420 O 0.54034 0.01281 0.5492 0.0
O421 O 0.52813 0.02891 0.56655 0.0
O422 O 0.52237 0.05087 0.53689 0.0
O423 O 0.55128 0.05355 0.53841 0.0
H424 H 0.61476 0.0439 0.54786 0.0
H425 H 0.63894 0.02827 0.55175 0.0
H426 H 0.60794 0.9784 0.51458 0.0
H427 H 0.5836 0.99398 0.51133 0.0
H428 H 0.47902 0.04052 0.51044 0.0
H429 H 0.45445 0.05583 0.50738 0.0
H430 H 0.43455 0.02596 0.55178 0.0
H431 H 0.45915 0.01091 0.55487 0.0
Tb432 Tb 0.26656 0.27506 0.77462 0.0
Tb433 Tb 0.30484 0.2737 0.78151 0.0
C434 C 0.23488 0.27082 0.77514 0.0
C435 C 0.22182 0.26915 0.78823 0.0
C436 C 0.20935 0.25244 0.78559 0.0
C437 C 0.19551 0.2512 0.79572 0.0
C438 C 0.19368 0.26669 0.80875 0.0
C439 C 0.20651 0.28323 0.81193 0.0
C440 C 0.22038 0.28448 0.80175 0.0
C441 C 0.28762 0.30386 0.76636 0.0
C442 C 0.28918 0.28686 0.81793 0.0
C443 C 0.33654 0.27866 0.78082 0.0
C444 C 0.34944 0.27996 0.7675 0.0
C445 C 0.35997 0.29748 0.76703 0.0
C446 C 0.3738 0.29875 0.75686 0.0
C447 C 0.37756 0.2825 0.7469 0.0
C448 C 0.36666 0.26503 0.74681 0.0
C449 C 0.35283 0.26376 0.75703 0.0
C450 C 0.28383 0.24482 0.78973 0.0
C451 C 0.28199 0.26118 0.73827 0.0
O452 O 0.24272 0.25683 0.77253 0.0
O453 O 0.24511 0.2872 0.77614 0.0
O454 O 0.29025 0.29494 0.78044 0.0
O455 O 0.27215 0.29753 0.75684 0.0
O456 O 0.27381 0.28066 0.80687 0.0
O457 O 0.30347 0.28736 0.81058 0.0
O458 O 0.32826 0.29236 0.78266 0.0
O459 O 0.32674 0.26221 0.78081 0.0
O460 O 0.28117 0.25384 0.77574 0.0
O461 O 0.29938 0.25101 0.7991 0.0
O462 O 0.29743 0.26724 0.74924 0.0
O463 O 0.26777 0.26112 0.74565 0.0
H464 H 0.21004 0.24042 0.7752 0.0
H465 H 0.1861 0.23812 0.79314 0.0
H466 H 0.20551 0.2955 0.82173 0.0
H467 H 0.22968 0.29762 0.80407 0.0
H468 H 0.35782 0.31022 0.77505 0.0
H469 H 0.3817 0.31248 0.75701 0.0
H470 H 0.36921 0.25218 0.73949 0.0
H471 H 0.34514 0.24999 0.75722 0.0
Tb472 Tb 0.03392 0.04417 0.53374 0.0
Tb473 Tb 0.03286 1.00123 0.52317 0.0
C474 C 0.0379 0.07924 0.53658 0.0
C475 C 0.0405 0.09349 0.52367 0.0
C476 C 0.04489 0.08923 0.5051 0.0
C477 C 0.046 0.10271 0.49246 0.0
C478 C 0.04269 0.12057 0.49824 0.0
C479 C 0.03869 0.12483 0.51706 0.0
C480 C 0.03757 0.11138 0.52964 0.0
C481 C 1.007 0.02065 0.54033 0.0
C482 C 0.02384 0.02394 0.48907 0.0
C483 C 0.02264 0.96633 0.51941 0.0
C484 C 0.02885 0.95137 0.52855 0.0
C485 C 0.01994 0.93272 0.52291 0.0
C486 C 0.02467 0.91863 0.53301 0.0
C487 C 0.03835 0.92306 0.54898 0.0
C488 C 0.04765 0.94173 0.55408 0.0
C489 C 0.04293 0.95578 0.54392 0.0
C490 C 0.06379 0.02168 0.52237 0.0
C491 C 0.0475 0.02255 0.56684 0.0
O492 O 0.05051 0.07061 0.54071 0.0
O493 O 0.02291 0.06774 0.53249 0.0
O494 O 0.01468 0.01875 0.52592 0.0
O495 O 0.01398 0.03662 0.55129 0.0
O496 O 0.02966 0.0399 0.50149 0.0
O497 O 0.02215 1.00722 0.49483 0.0
O498 O 0.01737 0.97838 0.53144 0.0
O499 O 0.03219 0.97453 0.50788 0.0
O500 O 0.05051 0.02688 0.52606 0.0
O501 O 0.05991 1.00341 0.5192 0.0
O502 O 0.0406 1.00636 0.55516 0.0
O503 O 0.04812 0.03912 0.56081 0.0
H504 H 0.04716 0.07542 0.50027 0.0
H505 H 0.04902 0.099 0.478 0.0
H506 H 0.03637 0.13858 0.52206 0.0
H507 H 0.03417 0.11485 0.54395 0.0
H508 H 0.00905 0.92914 0.51104 0.0
H509 H 0.01743 0.90433 0.52855 0.0
H510 H 0.05811 0.94563 0.56644 0.0
H511 H 0.04991 0.97019 0.54846 0.0
Tb512 Tb 0.27742 0.74942 0.75523 0.0
Tb513 Tb 0.28323 0.7878 0.78016 0.0
C514 C 0.2796 0.72131 0.73175 0.0
C515 C 0.29053 0.70742 0.73234 0.0
C516 C 0.30429 0.70951 0.74783 0.0
C517 C 0.31397 0.69565 0.74903 0.0
C518 C 0.3099 0.67933 0.7349 0.0
C519 C 0.29625 0.67742 0.71924 0.0
C520 C 0.28667 0.69141 0.71794 0.0
C521 C 0.27016 0.74936 0.79095 0.0
C522 C 0.31414 0.76854 0.78112 0.0
C523 C 0.28093 0.81587 0.8035 0.0
C524 C 0.27038 0.83015 0.80252 0.0
C525 C 0.26657 0.83902 0.81984 0.0
C526 C 0.25682 0.8529 0.8191 0.0
C527 C 0.25079 0.85819 0.801 0.0
C528 C 0.25445 0.84898 0.78364 0.0
C529 C 0.26407 0.83501 0.78439 0.0
C530 C 0.29055 0.78768 0.74437 0.0
C531 C 0.24639 0.76841 0.75444 0.0
O532 O 0.28724 0.73856 0.731 0.0
O533 O 0.26914 0.72065 0.74445 0.0
O534 O 0.28239 0.7599 0.78595 0.0
O535 O 0.26206 0.73723 0.77589 0.0
O536 O 0.30521 0.75673 0.76552 0.0
O537 O 0.30693 0.78006 0.79173 0.0
O538 O 0.27272 0.79874 0.80381 0.0
O539 O 0.29208 0.81633 0.79159 0.0
O540 O 0.27828 0.77736 0.74952 0.0
O541 O 0.29874 0.7997 0.75948 0.0
O542 O 0.25539 0.78066 0.76971 0.0
O543 O 0.25356 0.75678 0.74396 0.0
H544 H 0.3073 0.72163 0.75926 0.0
H545 H 0.32428 0.6974 0.76139 0.0
H546 H 0.29292 0.66505 0.70806 0.0
H547 H 0.27606 0.68957 0.70591 0.0
H548 H 0.27118 0.83527 0.83394 0.0
H549 H 0.25398 0.85943 0.83271 0.0
H550 H 0.25021 0.85281 0.76947 0.0
H551 H 0.26676 0.82818 0.77082 0.0
Tb552 Tb 0.51869 0.02246 0.0163 0.0
Tb553 Tb 0.55022 0.02319 0.04511 0.0
C554 C 0.4896 0.01257 0.99515 0.0
C555 C 0.47167 0.01177 0.99723 0.0
C556 C 0.46622 0.00958 0.01521 0.0
C557 C 0.44889 1.00738 0.01651 0.0
C558 C 0.43672 1.00722 0.9998 0.0
C559 C 0.44235 0.01007 0.98197 0.0
C560 C 0.45969 0.01233 0.98072 0.0
C561 C 0.53623 0.05631 0.032 0.0
C562 C 0.51597 0.02305 0.06291 0.0
C563 C 0.57909 0.03269 0.06667 0.0
C564 C 0.59693 0.03146 0.06608 0.0
C565 C 0.60394 0.03285 0.04888 0.0
C566 C 0.62129 0.03296 0.0492 0.0
C567 C 0.63186 0.03167 0.06673 0.0
C568 C 0.62458 0.02956 0.08371 0.0
C569 C 0.60727 0.02948 0.08337 0.0
C570 C 0.53284 0.98928 0.02891 0.0
C571 C 0.55306 0.02285 0.99852 0.0
O572 O 0.49735 1.00109 1.00435 0.0
O573 O 0.49924 0.02938 0.99683 0.0
O574 O 0.53368 0.04204 0.0404 0.0
O575 O 0.52756 0.05219 0.01426 0.0
O576 O 0.50787 0.01997 0.04424 0.0
O577 O 0.53297 0.02647 0.06669 0.0
O578 O 0.57257 0.04368 0.05548 0.0
O579 O 0.56844 0.0168 0.06651 0.0
O580 O 0.53535 1.00378 0.02094 0.0
O581 O 0.54164 0.99318 0.04657 0.0
O582 O 0.56114 0.02554 0.01721 0.0
O583 O 0.53604 0.01981 0.99467 0.0
H584 H 0.47527 0.00907 0.0281 0.0
H585 H 0.445 1.00544 0.03051 0.0
H586 H 0.43329 0.00976 0.96876 0.0
H587 H 0.4637 0.01397 0.96671 0.0
H588 H 0.59613 0.03434 0.03537 0.0
H589 H 0.62655 0.0348 0.03593 0.0
H590 H 0.63235 0.02828 0.09735 0.0
H591 H 0.60201 0.02826 0.09674 0.0
Tb592 Tb 0.26777 0.25866 0.2708 0.0
Tb593 Tb 0.30036 0.2847 0.28785 0.0
C594 C 0.23719 0.24177 0.26664 0.0
C595 C 0.22175 0.24934 0.26859 0.0
C596 C 0.22204 0.26349 0.28429 0.0
C597 C 0.20813 0.27207 0.28514 0.0
C598 C 0.1936 0.26669 0.27035 0.0
C599 C 0.19305 0.25216 0.25492 0.0
C600 C 0.2071 0.24361 0.254 0.0
C601 C 0.28432 0.27337 0.24459 0.0
C602 C 0.26802 0.30349 0.28425 0.0
C603 C 0.33064 0.3028 0.29222 0.0
C604 C 0.3473 0.29753 0.29224 0.0
C605 C 0.35947 0.30808 0.28332 0.0
C606 C 0.37456 0.30212 0.28094 0.0
C607 C 0.3778 0.28548 0.28752 0.0
C608 C 0.36576 0.27522 0.29702 0.0
C609 C 0.3506 0.28116 0.2993 0.0
C610 C 0.28375 0.26957 0.31398 0.0
C611 C 0.30016 0.2399 0.27429 0.0
O612 O 0.24822 0.24358 0.28289 0.0
O613 O 0.24461 0.2462 0.25184 0.0
O614 O 0.28294 0.28166 0.2611 0.0
O615 O 0.27555 0.25619 0.24197 0.0
O616 O 0.25917 0.28574 0.27929 0.0
O617 O 0.28501 0.30678 0.28724 0.0
O618 O 0.32031 0.29833 0.27527 0.0
O619 O 0.32281 0.29905 0.30693 0.0
O620 O 0.28524 0.26164 0.2974 0.0
O621 O 0.29262 0.2867 0.31687 0.0
O622 O 0.30907 0.25763 0.27963 0.0
O623 O 0.28314 0.23661 0.271 0.0
H624 H 0.23315 0.26824 0.29579 0.0
H625 H 0.20877 0.28297 0.2974 0.0
H626 H 0.18196 0.24774 0.24336 0.0
H627 H 0.20666 0.2328 0.24172 0.0
H628 H 0.35703 0.32061 0.27757 0.0
H629 H 0.38335 0.31019 0.27322 0.0
H630 H 0.36792 0.26245 0.30243 0.0
H631 H 0.34128 0.27271 0.30611 0.0
Tb632 Tb 0.53301 0.54406 0.03466 0.0
Tb633 Tb 0.53262 0.50119 0.02411 0.0
C634 C 0.53622 0.57906 0.03743 0.0
C635 C 0.53894 0.5935 0.02473 0.0
C636 C 0.54349 0.58947 0.00621 0.0
C637 C 0.54475 0.60315 0.99379 0.0
C638 C 0.54151 0.62103 0.99979 0.0
C639 C 0.53727 0.62499 0.01854 0.0
C640 C 0.536 0.61133 0.03088 0.0
C641 C 0.50657 0.52004 0.04158 0.0
C642 C 0.5229 0.52365 0.99006 0.0
C643 C 0.52282 0.46624 0.0207 0.0
C644 C 0.52926 0.45134 0.02973 0.0
C645 C 0.51912 0.43316 0.02644 0.0
C646 C 0.52425 0.4193 0.03663 0.0
C647 C 0.5396 0.42348 0.05029 0.0
C648 C 0.55 0.44161 0.05305 0.0
C649 C 0.54483 0.45547 0.04289 0.0
C650 C 0.56309 0.52228 0.02263 0.0
C651 C 0.54761 0.52284 0.0676 0.0
O652 O 0.54901 0.57082 0.04207 0.0
O653 O 0.52144 0.56718 0.03279 0.0
O654 O 0.51417 0.51832 0.02709 0.0
O655 O 0.51332 0.53611 0.05244 0.0
O656 O 0.52877 0.53966 1.00239 0.0
O657 O 0.52135 0.50696 0.99591 0.0
O658 O 0.51764 0.47823 0.03285 0.0
O659 O 0.5321 0.47449 0.00894 0.0
O660 O 0.54976 0.52711 0.02668 0.0
O661 O 0.55957 0.50401 0.01947 0.0
O662 O 0.54083 0.50655 0.05604 0.0
O663 O 0.54778 0.53934 0.06153 0.0
H664 H 0.54581 0.57572 1.00126 0.0
H665 H 0.54818 0.59973 0.9795 0.0
H666 H 0.5344 0.63848 0.02347 0.0
H667 H 0.53235 0.61458 0.0451 0.0
H668 H 0.50703 0.42981 0.01638 0.0
H669 H 0.51609 0.4054 0.03404 0.0
H670 H 0.56179 0.44529 0.06364 0.0
H671 H 0.55271 0.46955 0.04571 0.0
Tb672 Tb 0.79125 0.26492 0.2695 0.0
Tb673 Tb 0.79972 0.30697 0.28459 0.0
C674 C 0.78909 0.23263 0.25092 0.0
C675 C 0.80054 0.21936 0.2497 0.0
C676 C 0.7958 0.20319 0.23552 0.0
C677 C 0.80624 0.19001 0.23477 0.0
C678 C 0.8216 0.19281 0.24825 0.0
C679 C 0.8265 0.20934 0.26215 0.0
C680 C 0.81604 0.22252 0.26286 0.0
C681 C 0.79513 0.27473 0.30784 0.0
C682 C 0.83021 0.28771 0.27893 0.0
C683 C 0.80153 0.3387 0.30409 0.0
C684 C 0.78915 0.35078 0.30645 0.0
C685 C 0.79263 0.36559 0.32218 0.0
C686 C 0.78106 0.37741 0.32422 0.0
C687 C 0.76579 0.37453 0.31057 0.0
C688 C 0.76225 0.35942 0.295 0.0
C689 C 0.77385 0.34768 0.29295 0.0
C690 C 0.79739 0.29761 0.24646 0.0
C691 C 0.7607 0.28398 0.27392 0.0
O692 O 0.7936 0.24817 0.24377 0.0
O693 O 0.78407 0.23569 0.26785 0.0
O694 O 0.80363 0.28246 0.2963 0.0
O695 O 0.78428 0.26004 0.29821 0.0
O696 O 0.81884 0.27266 0.26949 0.0
O697 O 0.82559 0.30203 0.2888 0.0
O698 O 0.79862 0.32296 0.31137 0.0
O699 O 0.80561 0.33628 0.28655 0.0
O700 O 0.78821 0.28958 0.2574 0.0
O701 O 0.8075 0.31255 0.25674 0.0
O702 O 0.77187 0.29901 0.28383 0.0
O703 O 0.76563 0.26991 0.26414 0.0
H704 H 0.78393 0.20066 0.22515 0.0
H705 H 0.80226 0.1776 0.22368 0.0
H706 H 0.83815 0.21185 0.27285 0.0
H707 H 0.81989 0.23498 0.2739 0.0
H708 H 0.80435 0.36809 0.3328 0.0
H709 H 0.78404 0.38878 0.33651 0.0
H710 H 0.75072 0.35695 0.28411 0.0
H711 H 0.77098 0.33632 0.28066 0.0
Tb712 Tb 0.01424 0.51556 0.51156 0.0
Tb713 Tb 0.04709 0.5231 0.54033 0.0
C714 C 0.98494 0.50048 0.49263 0.0
C715 C 0.96828 0.49256 0.49769 0.0
C716 C 0.96727 0.48324 0.51412 0.0
C717 C 0.95138 0.47496 0.51817 0.0
C718 C 0.9362 0.47594 0.50595 0.0
C719 C 0.93725 0.48566 0.48978 0.0
C720 C 0.95318 0.49385 0.48566 0.0
C721 C 0.02899 0.55115 0.52229 0.0
C722 C 0.01326 0.5201 0.55871 0.0
C723 C 0.07628 0.53746 0.55976 0.0
C724 C 0.09424 0.53811 0.55766 0.0
C725 C 0.10034 0.54265 0.54056 0.0
C726 C 0.11766 0.54415 0.53944 0.0
C727 C 0.12913 0.54105 0.55536 0.0
C728 C 0.12287 0.53599 0.57221 0.0
C729 C 0.10558 0.53459 0.57336 0.0
C730 C 0.03262 0.48732 0.52916 0.0
C731 C 0.0483 0.5189 0.49299 0.0
O732 O 0.99708 0.49126 0.49672 0.0
O733 O 0.99036 0.51871 0.49729 0.0
O734 O 0.02805 0.53848 0.533 0.0
O735 O 0.02034 0.54428 0.50484 0.0
O736 O 1.00502 0.51318 0.54041 0.0
O737 O 0.03002 0.52695 0.56184 0.0
O738 O 0.06751 0.54635 0.54807 0.0
O739 O 0.06748 0.5211 0.56182 0.0
O740 O 0.0334 0.50025 0.51884 0.0
O741 O 0.04153 0.49406 0.54646 0.0
O742 O 0.05672 0.52348 0.51155 0.0
O743 O 0.03126 0.51428 0.48941 0.0
H744 H 0.97877 0.48216 0.52371 0.0
H745 H 0.95096 0.4678 0.5309 0.0
H746 H 0.92578 0.48654 0.48004 0.0
H747 H 0.9537 0.50097 0.47292 0.0
H748 H 0.09182 0.54533 0.52819 0.0
H749 H 0.12212 0.5479 0.52621 0.0
H750 H 0.13144 0.53376 0.5848 0.0
H751 H 0.10112 0.53109 0.58668 0.0
Tb752 Tb 0.76789 0.77691 0.2759 0.0
Tb753 Tb 0.8061 0.77598 0.284 0.0
C754 C 0.73607 0.77235 0.27561 0.0
C755 C 0.72291 0.77264 0.28847 0.0
C756 C 0.72063 0.76012 0.30218 0.0
C757 C 0.70675 0.75923 0.31234 0.0
C758 C 0.69479 0.77075 0.30896 0.0
C759 C 0.69745 0.78361 0.29566 0.0
C760 C 0.71128 0.78449 0.28554 0.0
C761 C 0.78904 0.80608 0.26854 0.0
C762 C 0.78969 0.78959 0.31959 0.0
C763 C 0.83799 0.78089 0.28467 0.0
C764 C 0.85143 0.77947 0.27246 0.0
C765 C 0.85124 0.78642 0.25446 0.0
C766 C 0.86517 0.78658 0.24444 0.0
C767 C 0.8796 0.7799 0.25227 0.0
C768 C 0.87943 0.77248 0.27 0.0
C769 C 0.86555 0.7723 0.27994 0.0
C770 C 0.78487 0.74672 0.29118 0.0
C771 C 0.78426 0.76305 0.24026 0.0
O772 O 0.74448 0.7587 0.27572 0.0
O773 O 0.74583 0.78845 0.27436 0.0
O774 O 0.79143 0.79715 0.28269 0.0
O775 O 0.77381 0.7995 0.25846 0.0
O776 O 0.77448 0.78312 0.30823 0.0
O777 O 0.80414 0.7903 0.31255 0.0
O778 O 0.82915 0.79399 0.28233 0.0
O779 O 0.82857 0.76519 0.28757 0.0
O780 O 0.7826 0.75581 0.27718 0.0
O781 O 0.80011 0.75316 0.30128 0.0
O782 O 0.79949 0.76908 0.2517 0.0
O783 O 0.76979 0.76283 0.24719 0.0
H784 H 0.72928 0.75066 0.30469 0.0
H785 H 0.70508 0.74905 0.32234 0.0
H786 H 0.68873 0.79294 0.2929 0.0
H787 H 0.71264 0.79419 0.275 0.0
H788 H 0.84053 0.79211 0.24835 0.0
H789 H 0.86486 0.79248 0.23088 0.0
H790 H 0.89012 0.76687 0.27632 0.0
H791 H 0.86603 0.76689 0.2938 0.0
Tb792 Tb 0.78823 0.26549 0.75985 0.0
Tb793 Tb 0.78345 0.2802 0.79875 0.0
C794 C 0.78847 0.25882 0.72354 0.0
C795 C 0.7875 0.26943 0.70702 0.0
C796 C 0.78275 0.28694 0.70898 0.0
C797 C 0.78047 0.29618 0.69269 0.0
C798 C 0.78281 0.288 0.67417 0.0
C799 C 0.78808 0.27071 0.67247 0.0
C800 C 0.7904 0.2615 0.6888 0.0
C801 C 0.81218 0.26136 0.78831 0.0
C802 C 0.80155 0.30989 0.77604 0.0
C803 C 0.78233 0.28651 0.8348 0.0
C804 C 0.7747 0.27588 0.84915 0.0
C805 C 0.77849 0.25842 0.85234 0.0
C806 C 0.77169 0.249 0.86661 0.0
C807 C 0.76081 0.25671 0.87787 0.0
C808 C 0.75659 0.27389 0.87414 0.0
C809 C 0.76355 0.28341 0.85999 0.0
C810 C 0.75979 0.28465 0.77014 0.0
C811 C 0.76988 0.23552 0.78276 0.0
O812 O 0.77464 0.2558 0.73138 0.0
O813 O 0.80235 0.26399 0.73681 0.0
O814 O 0.8056 0.27561 0.78717 0.0
O815 O 0.80574 0.24908 0.77274 0.0
O816 O 0.79539 0.29665 0.76041 0.0
O817 O 0.80033 0.30568 0.79382 0.0
O818 O 0.79504 0.28086 0.82785 0.0
O819 O 0.77152 0.2909 0.82117 0.0
O820 O 0.76614 0.27026 0.77136 0.0
O821 O 0.76629 0.2969 0.78569 0.0
O822 O 0.77356 0.24943 0.79794 0.0
O823 O 0.77355 0.23887 0.76542 0.0
H824 H 0.78039 0.29323 0.72296 0.0
H825 H 0.77662 0.3096 0.69453 0.0
H826 H 0.78979 0.26393 0.65837 0.0
H827 H 0.79401 0.24794 0.68707 0.0
H828 H 0.78695 0.25218 0.84408 0.0
H829 H 0.77549 0.23599 0.86926 0.0
H830 H 0.74807 0.2801 0.8823 0.0
H831 H 0.76035 0.29679 0.85763 0.0
Tb832 Tb 0.76902 0.76031 0.77104 0.0
Tb833 Tb 0.80165 0.78607 0.78802 0.0
C834 C 0.73842 0.74339 0.76684 0.0
C835 C 0.72289 0.75065 0.76915 0.0
C836 C 0.72308 0.76448 0.78512 0.0
C837 C 0.70888 0.77248 0.7865 0.0
C838 C 0.69415 0.76683 0.77199 0.0
C839 C 0.69379 0.7527 0.75622 0.0
C840 C 0.70811 0.74472 0.75478 0.0
C841 C 0.78538 0.77536 0.74478 0.0
C842 C 0.7695 0.80506 0.78487 0.0
C843 C 0.8322 0.80334 0.79256 0.0
C844 C 0.84847 0.79697 0.79389 0.0
C845 C 0.86144 0.80597 0.78486 0.0
C846 C 0.87599 0.79854 0.78346 0.0
C847 C 0.87786 0.78194 0.7911 0.0
C848 C 0.86509 0.77336 0.80082 0.0
C849 C 0.85049 0.78077 0.80214 0.0
C850 C 0.78522 0.77071 0.81419 0.0
C851 C 0.8012 0.74127 0.77401 0.0
O852 O 0.74953 0.74493 0.78297 0.0
O853 O 0.74574 0.74829 0.75213 0.0
O854 O 0.78414 0.78347 0.76143 0.0
O855 O 0.77663 0.75818 0.74208 0.0
O856 O 0.76063 0.78729 0.78039 0.0
O857 O 0.78647 0.80831 0.78713 0.0
O858 O 0.82223 0.79823 0.7754 0.0
O859 O 0.82381 0.80113 0.80715 0.0
O860 O 0.78659 0.76289 0.79751 0.0
O861 O 0.79409 0.78784 0.81714 0.0
O862 O 0.81017 0.75893 0.7796 0.0
O863 O 0.7842 0.73808 0.77072 0.0
H864 H 0.73429 0.76937 0.79645 0.0
H865 H 0.70942 0.78308 0.79901 0.0
H866 H 0.68259 0.74809 0.74483 0.0
H867 H 0.70773 0.73415 0.7423 0.0
H868 H 0.85999 0.81834 0.7782 0.0
H869 H 0.88541 0.80535 0.77558 0.0
H870 H 0.86619 0.76069 0.80704 0.0
H871 H 0.84054 0.77348 0.80903 0.0
Tb872 Tb 0.52039 0.51327 0.51899 0.0
Tb873 Tb 0.55431 0.53508 0.54047 0.0
C874 C 0.48896 0.50249 0.50637 0.0
C875 C 0.47671 0.5115 0.49527 0.0
C876 C 0.46062 0.51102 0.50063 0.0
C877 C 0.45005 0.52234 0.4929 0.0
C878 C 0.45536 0.53432 0.47956 0.0
C879 C 0.47108 0.53385 0.47329 0.0
C880 C 0.48172 0.52265 0.48119 0.0
C881 C 0.54561 0.51337 0.49886 0.0
C882 C 0.53063 0.55808 0.51872 0.0
C883 C 0.58569 0.5479 0.55271 0.0
C884 C 0.60134 0.54055 0.55289 0.0
C885 C 0.60114 0.52339 0.54137 0.0
C886 C 0.61636 0.51726 0.54026 0.0
C887 C 0.63203 0.52821 0.55065 0.0
C888 C 0.63208 0.54521 0.56252 0.0
C889 C 0.61683 0.55133 0.56362 0.0
C890 C 0.52893 0.53519 0.56034 0.0
C891 C 0.54408 0.49051 0.54 0.0
O892 O 0.49528 0.51113 0.52427 0.0
O893 O 0.50068 0.49721 0.49712 0.0
O894 O 0.54325 0.5269 0.51036 0.0
O895 O 0.53287 0.49926 0.49734 0.0
O896 O 0.51859 0.54242 0.5149 0.0
O897 O 0.54623 0.55832 0.52778 0.0
O898 O 0.57783 0.54907 0.53523 0.0
O899 O 0.57512 0.54095 0.56383 0.0
O900 O 0.53145 0.52155 0.54914 0.0
O901 O 0.54161 0.54932 0.56168 0.0
O902 O 0.5566 0.50533 0.54049 0.0
O903 O 0.52793 0.49129 0.53433 0.0
H904 H 0.45664 0.50266 0.51163 0.0
H905 H 0.4382 0.52254 0.49837 0.0
H906 H 0.47548 0.54271 0.46289 0.0
H907 H 0.49418 0.52338 0.47695 0.0
H908 H 0.58928 0.51499 0.53283 0.0
H909 H 0.6159 0.50425 0.53076 0.0
H910 H 0.64392 0.55382 0.57086 0.0
H911 H 0.61716 0.56464 0.57254 0.0
Tb912 Tb 0.05256 0.52568 0.02333 0.0
Tb913 Tb 0.01526 0.52026 0.03127 0.0
C914 C 0.08344 0.52452 0.02229 0.0
C915 C 0.09631 0.51271 0.02638 0.0
C916 C 0.10797 0.51686 0.04421 0.0
C917 C 0.12157 0.50754 0.04717 0.0
C918 C 0.12394 0.49386 0.03235 0.0
C919 C 0.11197 0.48931 0.01473 0.0
C920 C 0.09838 0.49866 0.01176 0.0
C921 C 0.02931 0.53168 0.99436 0.0
C922 C 0.02946 0.48431 0.01849 0.0
C923 C 0.9837 0.51999 0.02447 0.0
C924 C 0.97017 0.52995 0.02963 0.0
C925 C 0.97183 0.54942 0.02952 0.0
C926 C 0.95774 0.55791 0.03068 0.0
C927 C 0.94164 0.54717 0.03199 0.0
C928 C 0.9403 0.52786 0.03309 0.0
C929 C 0.95437 0.51938 0.03185 0.0
C930 C 0.03707 0.51922 0.06445 0.0
C931 C 0.03985 0.56104 0.04144 0.0
O932 O 0.07822 0.53285 0.03737 0.0
O933 O 0.07102 0.51833 0.00722 0.0
O934 O 0.02729 0.51926 0.00556 0.0
O935 O 0.04517 0.54058 0.99882 0.0
O936 O 0.04504 0.49511 0.0218 0.0
O937 O 0.01559 0.49135 0.01953 0.0
O938 O 0.99501 0.52883 0.01522 0.0
O939 O 0.99043 0.51032 0.03711 0.0
O940 O 0.04008 0.52151 0.04746 0.0
O941 O 0.02061 0.51772 0.06309 0.0
O942 O 0.02401 0.55085 0.03784 0.0
O943 O 0.05326 0.55371 0.03858 0.0
H944 H 0.10688 0.52772 0.05573 0.0
H945 H 0.13035 0.51123 0.06103 0.0
H946 H 0.11346 0.47902 1.00289 0.0
H947 H 0.08982 0.49525 0.99773 0.0
H948 H 0.98381 0.55798 0.02771 0.0
H949 H 0.95932 0.57275 0.02963 0.0
H950 H 0.92826 0.51917 0.03452 0.0
H951 H 0.9527 0.50434 0.03186 0.0
H952 H 0.98423 0.18222 0.92042 0.0
H953 H 0.98905 0.1562 0.93791 0.0
H954 H 0.03464 0.1916 0.97334 0.0
H955 H 0.02965 0.21791 0.95618 0.0
H956 H 0.01502 0.13834 0.9395 0.0
H957 H 0.01197 0.16923 0.01538 0.0
H958 H 1.00522 0.17974 0.99421 0.0
H959 H 0.02757 0.18333 1.00441 0.0
C960 C 0.99521 0.18459 0.93207 0.0
C961 C 1.00651 0.20227 0.9369 0.0
C962 C 0.99797 0.16962 0.94207 0.0
C963 C 0.01209 0.17187 0.95719 0.0
C964 C 0.02341 0.18953 0.9621 0.0
H965 H 0.05372 0.09183 0.02424 0.0
H966 H 0.04876 0.11977 0.00995 0.0
C967 C 0.02059 0.20458 0.95217 0.0
C968 C 0.01529 0.15546 0.96705 0.0
H969 H 0.02142 0.14031 0.01177 0.0
C970 C 0.01633 0.1388 0.9553 0.0
C971 C 0.01706 0.15592 0.98771 0.0
C972 C 0.01524 0.17294 1.00117 0.0
C973 C 0.01922 0.1228 0.96355 0.0
C974 C 0.02099 0.12327 0.98417 0.0
C975 C 0.02009 0.13993 0.99598 0.0
C976 C 0.02363 0.10653 0.99363 0.0
C977 C 0.02066 0.10556 0.95013 0.0
C978 C 0.01104 0.08985 0.98955 0.0
C979 C 0.0138 0.07386 0.99774 0.0
C980 C 0.02924 0.07415 0.01025 0.0
C981 C 0.04169 0.09103 0.01465 0.0
C982 C 0.03887 0.10706 0.00651 0.0
H983 H 0.02308 0.10887 0.93548 0.0
H984 H 0.0311 0.09913 0.95672 0.0
H985 H 0.00849 0.09498 0.9479 0.0
H986 H 0.99909 0.08914 0.97986 0.0
H987 H 1.00396 0.06115 0.99385 0.0
H988 H 0.09822 0.75643 0.19974 0.0
H989 H 0.12709 0.75642 0.21613 0.0
H990 H 0.14736 0.80306 0.18809 0.0
H991 H 0.11839 0.80349 0.17203 0.0
H992 H 0.1549 0.75045 0.20189 0.0
H993 H 0.16934 0.82245 0.24422 0.0
H994 H 0.14813 0.81112 0.23157 0.0
H995 H 0.16382 0.82187 0.21819 0.0
C996 C 0.10878 0.76681 0.19716 0.0
C997 C 0.1059 0.78007 0.18466 0.0
C998 C 0.12534 0.76674 0.20652 0.0
C999 C 0.13949 0.77989 0.20364 0.0
C1000 C 0.13668 0.79304 0.191 0.0
H1001 H 0.24551 0.76568 0.24088 0.0
H1002 H 0.21819 0.7668 0.22074 0.0
C1003 C 0.12007 0.79323 0.18173 0.0
C1004 C 0.1571 0.77955 0.21371 0.0
H1005 H 0.19209 0.80622 0.24525 0.0
C1006 C 0.16304 0.76267 0.21136 0.0
C1007 C 0.16774 0.7954 0.22625 0.0
C1008 C 0.1619 0.81368 0.2304 0.0
C1009 C 0.17913 0.76115 0.22125 0.0
C1010 C 0.18987 0.77709 0.23354 0.0
C1011 C 0.18399 0.79401 0.23573 0.0
C1012 C 0.20669 0.7763 0.24537 0.0
C1013 C 0.18415 0.74227 0.21898 0.0
C1014 C 0.20962 0.78164 0.26586 0.0
C1015 C 0.2253 0.78133 0.27725 0.0
C1016 C 0.23853 0.77567 0.26851 0.0
C1017 C 0.23565 0.7702 0.24803 0.0
C1018 C 0.21992 0.77066 0.23653 0.0
H1019 H 0.17289 0.7306 0.21334 0.0
H1020 H 0.1931 0.74212 0.2083 0.0
H1021 H 0.19069 0.73953 0.23319 0.0
H1022 H 0.19971 0.78602 0.27312 0.0
H1023 H 0.22706 0.7856 0.293 0.0
H1024 H 0.48143 0.80596 0.45196 0.0
H1025 H 0.48618 0.83874 0.46735 0.0
H1026 H 0.53994 0.84574 0.46479 0.0
H1027 H 0.53533 0.81276 0.44943 0.0
H1028 H 0.5326 0.86238 0.50121 0.0
H1029 H 0.49543 0.88351 0.43712 0.0
H1030 H 0.48411 0.86394 0.44651 0.0
H1031 H 0.50264 0.86158 0.4357 0.0
C1032 C 0.49431 0.81438 0.45475 0.0
C1033 C 0.50798 0.80669 0.44929 0.0
C1034 C 0.49698 0.8332 0.46346 0.0
C1035 C 0.51335 0.84484 0.46689 0.0
C1036 C 0.52716 0.83707 0.46216 0.0
H1037 H 0.55487 0.9633 0.51389 0.0
H1038 H 0.55083 0.92977 0.50179 0.0
C1039 C 0.5245 0.8182 0.45339 0.0
C1040 C 0.51594 0.86515 0.47511 0.0
H1041 H 0.50424 0.90621 0.46588 0.0
C1042 C 0.52647 0.872 0.49346 0.0
C1043 C 0.5079 0.87771 0.46503 0.0
C1044 C 0.497 0.87141 0.44492 0.0
C1045 C 0.52888 0.89093 0.50216 0.0
C1046 C 0.52085 0.9035 0.49206 0.0
C1047 C 0.51035 0.89662 0.47369 0.0
C1048 C 0.52334 0.92388 0.50006 0.0
C1049 C 0.53969 0.89716 0.52232 0.0
C1050 C 0.50922 0.93198 0.50275 0.0
C1051 C 0.51147 0.95128 0.50955 0.0
C1052 C 0.52791 0.96295 0.51372 0.0
C1053 C 0.54203 0.95478 0.51101 0.0
C1054 C 0.53976 0.93552 0.50419 0.0
H1055 H 0.54067 0.88506 0.53033 0.0
H1056 H 0.55282 0.90395 0.52078 0.0
H1057 H 0.53439 0.9075 0.53132 0.0
H1058 H 0.49641 0.92335 0.49955 0.0
H1059 H 0.50031 0.95706 0.51136 0.0
H1060 H 0.52675 0.30315 0.69049 0.0
H1061 H 0.50213 0.30317 0.70756 0.0
H1062 H 0.4692 0.26726 0.65752 0.0
H1063 H 0.49351 0.26712 0.64047 0.0
H1064 H 0.47045 0.31474 0.69468 0.0
H1065 H 0.45916 0.23953 0.70422 0.0
H1066 H 0.47905 0.2518 0.69868 0.0
H1067 H 0.46071 0.24358 0.67952 0.0
C1068 C 0.51428 0.29518 0.68317 0.0
C1069 C 0.51218 0.28508 0.6641 0.0
C1070 C 0.50021 0.29524 0.69293 0.0
C1071 C 0.48382 0.28501 0.68394 0.0
C1072 C 0.48172 0.275 0.66492 0.0
H1073 H 0.38108 0.26308 0.71175 0.0
H1074 H 0.40692 0.26441 0.69696 0.0
C1075 C 0.49569 0.27503 0.65514 0.0
C1076 C 0.46877 0.28501 0.69411 0.0
H1077 H 0.43738 0.25597 0.71069 0.0
C1078 C 0.4633 0.30193 0.69835 0.0
C1079 C 0.45935 0.26827 0.6988 0.0
C1080 C 0.46491 0.24977 0.69525 0.0
C1081 C 0.44843 0.30249 0.70661 0.0
C1082 C 0.43893 0.28571 0.71119 0.0
C1083 C 0.44455 0.26883 0.70714 0.0
C1084 C 0.42312 0.28529 0.72012 0.0
C1085 C 0.44272 0.32095 0.70968 0.0
C1086 C 0.42353 0.29644 0.73819 0.0
C1087 C 0.40875 0.29572 0.74667 0.0
C1088 C 0.39317 0.28368 0.73743 0.0
C1089 C 0.39283 0.27242 0.71939 0.0
C1090 C 0.40761 0.27321 0.71087 0.0
H1091 H 0.44834 0.33094 0.70039 0.0
H1092 H 0.42857 0.31882 0.70631 0.0
H1093 H 0.44702 0.32754 0.72528 0.0
H1094 H 0.43538 0.30548 0.74595 0.0
H1095 H 0.40965 0.30429 0.76077 0.0
H1096 H 0.0805 0.80286 0.66148 0.0
H1097 H 0.08147 0.82975 0.64355 0.0
H1098 H 0.02634 0.8187 0.63176 0.0
H1099 H 0.0252 0.79194 0.64967 0.0
H1100 H 0.06658 0.82837 0.6034 0.0
H1101 H 0.04033 0.87533 0.65412 0.0
H1102 H 0.04893 0.85571 0.66155 0.0
H1103 H 0.0276 0.85186 0.64784 0.0
C1104 C 0.06858 0.80627 0.65523 0.0
C1105 C 0.05276 0.7953 0.65703 0.0
C1106 C 0.06917 0.8216 0.64499 0.0
C1107 C 0.05398 0.8263 0.63659 0.0
C1108 C 0.0382 0.81547 0.63847 0.0
H1109 H 0.0154 0.89656 0.56114 0.0
H1110 H 0.02131 0.87362 0.58247 0.0
C1111 C 0.03758 0.80013 0.64862 0.0
C1112 C 0.05445 0.84194 0.625 0.0
H1113 H 0.04017 0.88256 0.62146 0.0
C1114 C 0.06107 0.8404 0.60744 0.0
C1115 C 0.0473 0.85758 0.63043 0.0
C1116 C 0.04078 0.86037 0.64961 0.0
C1117 C 0.05985 0.85364 0.59459 0.0
C1118 C 0.05203 0.86885 0.59965 0.0
C1119 C 0.04606 0.87078 0.6176 0.0
C1120 C 0.04883 0.88226 0.58601 0.0
C1121 C 0.06619 0.85081 0.5753 0.0
C1122 C 0.06239 0.89463 0.58089 0.0
C1123 C 0.05905 0.90768 0.56851 0.0
C1124 C 0.0421 0.90855 0.56114 0.0
C1125 C 0.02859 0.89601 0.56624 0.0
C1126 C 0.03194 0.88302 0.57858 0.0
H1127 H 0.0691 0.83662 0.57211 0.0
H1128 H 0.05655 0.85272 0.56301 0.0
H1129 H 0.07806 0.86146 0.57585 0.0
H1130 H 0.07552 0.89439 0.5867 0.0
H1131 H 0.06972 0.91711 0.56477 0.0
H1132 H 0.47594 0.80587 0.83627 0.0
H1133 H 0.4454 0.80285 0.82461 0.0
H1134 H 0.43844 0.74239 0.8164 0.0
H1135 H 0.46902 0.74521 0.82819 0.0
H1136 H 0.42453 0.78369 0.78816 0.0
H1137 H 0.40474 0.75473 0.85362 0.0
H1138 H 0.42646 0.76635 0.85328 0.0
H1139 H 0.41842 0.74261 0.84105 0.0
C1140 C 0.46795 0.79191 0.8319 0.0
C1141 C 0.47487 0.77576 0.83329 0.0
C1142 C 0.45052 0.79023 0.82522 0.0
C1143 C 0.4397 0.77242 0.81992 0.0
C1144 C 0.4466 0.75626 0.82072 0.0
H1145 H 0.33372 0.7492 0.76106 0.0
H1146 H 0.36415 0.74964 0.7702 0.0
C1147 C 0.46407 0.75791 0.82736 0.0
C1148 C 0.42113 0.77087 0.81397 0.0
H1149 H 0.38268 0.75713 0.82836 0.0
C1150 C 0.41534 0.77782 0.79687 0.0
C1151 C 0.40929 0.76343 0.82557 0.0
C1152 C 0.41497 0.75648 0.8445 0.0
C1153 C 0.39791 0.77745 0.79099 0.0
C1154 C 0.38605 0.76977 0.80244 0.0
C1155 C 0.39185 0.76288 0.81958 0.0
C1156 C 0.36757 0.76916 0.79713 0.0
C1157 C 0.39236 0.78567 0.77284 0.0
C1158 C 0.35939 0.77967 0.80951 0.0
C1159 C 0.34196 0.77939 0.80442 0.0
C1160 C 0.33244 0.76846 0.78691 0.0
C1161 C 0.34066 0.75773 0.77468 0.0
C1162 C 0.35808 0.75805 0.77979 0.0
H1163 H 0.40332 0.79463 0.7682 0.0
H1164 H 0.38645 0.77407 0.76057 0.0
H1165 H 0.38267 0.79422 0.7754 0.0
H1166 H 0.36654 0.78827 0.82301 0.0
H1167 H 0.33601 0.78779 0.81415 0.0
H1168 H 0.55736 0.19832 0.16508 0.0
H1169 H 0.558 0.17019 0.14255 0.0
H1170 H 0.53647 0.19428 0.09365 0.0
H1171 H 0.53583 0.22254 0.11603 0.0
H1172 H 0.52874 0.14659 0.11714 0.0
H1173 H 0.57863 0.17666 0.0758 0.0
H1174 H 0.57618 0.18817 0.0994 0.0
H1175 H 0.5616 0.18912 0.07763 0.0
C1176 C 0.55284 0.1977 0.14952 0.0
C1177 C 0.54653 0.21267 0.14234 0.0
C1178 C 0.55324 0.18164 0.13668 0.0
C1179 C 0.5475 0.18031 0.11645 0.0
C1180 C 0.54124 0.19521 0.10919 0.0
H1181 H 0.53224 0.0892 0.01884 0.0
H1182 H 0.53611 0.1201 0.03905 0.0
C1183 C 0.54078 0.21128 0.12203 0.0
C1184 C 0.54719 0.16286 0.10313 0.0
H1185 H 0.56419 0.14503 0.0646 0.0
C1186 C 0.53653 0.14621 0.1057 0.0
C1187 C 0.55727 0.16253 0.08813 0.0
C1188 C 0.56919 0.18002 0.08508 0.0
C1189 C 0.53557 0.12917 0.09357 0.0
C1190 C 0.54588 0.12873 0.07879 0.0
C1191 C 0.55641 0.14543 0.07604 0.0
C1192 C 0.54579 0.11094 0.06613 0.0
C1193 C 0.52328 0.11187 0.09647 0.0
C1194 C 0.55067 0.09588 0.07454 0.0
C1195 C 0.54839 0.07829 0.06312 0.0
C1196 C 0.54136 0.07554 0.04303 0.0
C1197 C 0.53762 0.09095 0.03431 0.0
C1198 C 0.53981 0.10857 0.04582 0.0
H1199 H 0.51324 0.11556 0.10466 0.0
H1200 H 0.51695 0.10322 0.08213 0.0
H1201 H 0.53042 0.10314 0.10509 0.0
H1202 H 0.55565 0.09757 0.09012 0.0
H1203 H 0.55147 0.06667 0.07019 0.0
H1204 H 0.06493 0.28862 0.32808 0.0
H1205 H 0.08762 0.2866 0.30895 0.0
H1206 H 0.10463 0.34695 0.32085 0.0
H1207 H 0.08184 0.34917 0.34033 0.0
H1208 H 0.09651 0.30427 0.27557 0.0
H1209 H 0.14644 0.32535 0.34314 0.0
H1210 H 0.12407 0.31809 0.34441 0.0
H1211 H 0.13196 0.34076 0.33806 0.0
C1212 C 0.0734 0.30153 0.32658 0.0
C1213 C 0.07173 0.31906 0.33594 0.0
C1214 C 0.08629 0.30033 0.31552 0.0
C1215 C 0.09783 0.31659 0.31363 0.0
C1216 C 0.09588 0.33423 0.3223 0.0
H1217 H 0.19487 0.30434 0.27807 0.0
H1218 H 0.17152 0.31987 0.28455 0.0
C1219 C 0.08287 0.33547 0.33339 0.0
C1220 C 0.11254 0.31452 0.30382 0.0
H1221 H 0.15485 0.31352 0.31425 0.0
C1222 C 0.10937 0.30664 0.28388 0.0
C1223 C 0.12926 0.3177 0.31473 0.0
C1224 C 0.13325 0.32585 0.33629 0.0
C1225 C 0.12237 0.301 0.27477 0.0
C1226 C 0.13881 0.30298 0.28605 0.0
C1227 C 0.14221 0.31197 0.30565 0.0
C1228 C 0.15218 0.29413 0.27871 0.0
C1229 C 0.11827 0.2926 0.2533 0.0
C1230 C 0.14899 0.27454 0.27292 0.0
C1231 C 0.16231 0.26567 0.26917 0.0
C1232 C 0.17907 0.27621 0.27145 0.0
C1233 C 0.18209 0.29589 0.27641 0.0
C1234 C 0.16876 0.30477 0.28002 0.0
H1235 H 0.1078 0.29818 0.24537 0.0
H1236 H 0.12965 0.29551 0.24605 0.0
H1237 H 0.11387 0.27713 0.25195 0.0
H1238 H 0.1364 0.26598 0.27234 0.0
H1239 H 0.15968 0.25047 0.26558 0.0
H1240 H 0.9337 1.00314 0.19264 0.0
H1241 H 0.94465 1.00456 0.16172 0.0
H1242 H 0.99474 0.03145 0.19393 0.0
H1243 H 0.98397 0.03008 0.22494 0.0
H1244 H 0.96064 0.03783 0.14788 0.0
H1245 H 1.00304 0.98671 0.15638 0.0
H1246 H 0.98615 0.98804 0.17057 0.0
H1247 H 1.00605 1.00495 0.17711 0.0
C1248 C 0.94709 0.00924 0.19318 0.0
C1249 C 0.95799 0.01646 0.21128 0.0
C1250 C 0.95329 0.01007 0.17549 0.0
C1251 C 0.97052 0.01795 0.17557 0.0
C1252 C 0.98145 0.02507 0.19358 0.0
H1253 H 0.02409 0.06072 0.08692 0.0
H1254 H 0.00801 0.05652 0.11388 0.0
C1255 C 0.97525 0.02433 0.21128 0.0
C1256 C 0.97699 0.01918 0.15681 0.0
H1257 H 1.00606 1.00493 0.13056 0.0
C1258 C 0.97048 0.03055 0.14399 0.0
C1259 C 0.98967 0.00948 0.15171 0.0
C1260 C 0.99656 0.99646 0.16455 0.0
C1261 C 0.97673 0.03292 0.12644 0.0
C1262 C 0.98989 0.0238 0.12172 0.0
C1263 C 0.99602 0.01199 0.13427 0.0
C1264 C 0.99796 0.02675 0.10422 0.0
C1265 C 0.9692 0.04513 0.11307 0.0
C1266 C 0.99755 0.01142 0.0898 0.0
C1267 C 1.00673 0.01379 0.0744 0.0
C1268 C 0.01662 0.03148 0.07333 0.0
C1269 C 0.01654 0.04694 0.08739 0.0
C1270 C 0.0073 0.04458 0.10274 0.0
H1271 H 0.95643 0.04699 0.11603 0.0
H1272 H 0.97779 0.05924 0.11555 0.0
H1273 H 0.96798 0.03903 0.09738 0.0
H1274 H 0.99047 0.99754 0.09073 0.0
H1275 H 1.00662 1.00161 0.0638 0.0
H1276 H 0.3054 0.67429 0.50717 0.0
H1277 H 0.29477 0.69504 0.48571 0.0
H1278 H 0.26975 0.71763 0.53101 0.0
H1279 H 0.28028 0.69671 0.55273 0.0
H1280 H 0.24993 0.70968 0.4906 0.0
H1281 H 0.31508 0.75289 0.49702 0.0
H1282 H 0.31427 0.72816 0.49084 0.0
H1283 H 0.30942 0.73709 0.51417 0.0
C1284 C 0.29754 0.68354 0.51258 0.0
C1285 C 0.29383 0.684 0.53173 0.0
C1286 C 0.2915 0.6954 0.5003 0.0
C1287 C 0.28174 0.70802 0.50695 0.0
C1288 C 0.27736 0.70802 0.52572 0.0
H1289 H 0.27991 0.78931 0.42683 0.0
H1290 H 0.27756 0.77873 0.45838 0.0
C1291 C 0.2834 0.69609 0.53807 0.0
C1292 C 0.27688 0.72163 0.49432 0.0
H1293 H 0.29479 0.75466 0.46884 0.0
C1294 C 0.25964 0.71984 0.48609 0.0
C1295 C 0.28952 0.73521 0.48894 0.0
C1296 C 0.30809 0.73863 0.49836 0.0
C1297 C 0.25489 0.73026 0.47129 0.0
C1298 C 0.26779 0.74239 0.4644 0.0
C1299 C 0.28485 0.74527 0.47391 0.0
C1300 C 0.26456 0.75024 0.44586 0.0
C1301 C 0.23619 0.72781 0.4629 0.0
C1302 C 0.25724 0.73803 0.42827 0.0
C1303 C 0.25821 0.74416 0.41017 0.0
C1304 C 0.26694 0.76248 0.40927 0.0
C1305 C 0.27303 0.77512 0.42689 0.0
C1306 C 0.27179 0.76906 0.44501 0.0
H1307 H 0.22819 0.72513 0.47439 0.0
H1308 H 0.23343 0.74037 0.4566 0.0
H1309 H 0.23237 0.71538 0.45115 0.0
H1310 H 0.25189 0.72335 0.42843 0.0
H1311 H 0.25302 0.73418 0.39688 0.0
H1312 H 0.64379 0.99233 0.72441 0.0
H1313 H 0.62994 0.99412 0.6908 0.0
H1314 H 0.59216 0.01994 0.71469 0.0
H1315 H 0.60576 0.01826 0.74787 0.0
H1316 H 0.59619 0.97965 0.66891 0.0
H1317 H 0.60899 0.05738 0.6795 0.0
H1318 H 0.61955 0.04454 0.69631 0.0
H1319 H 0.59821 0.04768 0.69793 0.0
C1320 C 0.63252 0.99836 0.72254 0.0
C1321 C 0.6261 1.00521 0.73923 0.0
C1322 C 0.62454 0.99939 0.70318 0.0
C1323 C 0.61001 1.00752 0.69984 0.0
C1324 C 0.60348 0.01398 0.71649 0.0
H1325 H 0.53985 0.03473 0.60452 0.0
H1326 H 0.5568 0.03062 0.63514 0.0
C1327 C 0.61132 0.01288 0.73569 0.0
C1328 C 0.60157 0.00939 0.67925 0.0
H1329 H 0.58873 0.04158 0.65135 0.0
C1330 C 0.59475 0.99324 0.66505 0.0
C1331 C 0.59947 0.02703 0.67379 0.0
C1332 C 0.60707 0.04517 0.68759 0.0
C1333 C 0.58545 0.99416 0.64625 0.0
C1334 C 0.58307 0.01181 0.64094 0.0
C1335 C 0.59027 0.02796 0.65504 0.0
C1336 C 0.57259 0.01393 0.62145 0.0
C1337 C 0.5776 0.97598 0.63263 0.0
C1338 C 0.57556 1.00621 0.60288 0.0
C1339 C 0.56563 0.00849 0.58506 0.0
C1340 C 0.55247 0.01874 0.58514 0.0
C1341 C 0.54975 0.02668 0.60365 0.0
C1342 C 0.55956 0.02434 0.62136 0.0
H1343 H 0.57634 0.96373 0.6407 0.0
H1344 H 0.56475 0.97641 0.6247 0.0
H1345 H 0.58594 0.9737 0.62162 0.0
H1346 H 0.58574 0.99857 0.60209 0.0
H1347 H 0.56831 1.00229 0.5712 0.0
H1348 H 0.28034 0.36194 0.9946 0.0
H1349 H 0.275 0.34472 0.96106 0.0
H1350 H 0.32863 0.34385 0.96561 0.0
H1351 H 0.33402 0.36066 0.99914 0.0
H1352 H 0.28784 0.35569 0.92923 0.0
H1353 H 0.30717 0.28945 0.94427 0.0
H1354 H 0.30347 0.3064 0.96343 0.0
H1355 H 0.32352 0.30986 0.95458 0.0
C1356 C 0.29096 0.35788 0.98855 0.0
C1357 C 0.3076 0.36263 0.99963 0.0
C1358 C 0.28789 0.34805 0.96935 0.0
C1359 C 0.30136 0.3427 0.96088 0.0
C1360 C 0.31795 0.34737 0.97195 0.0
H1361 H 0.31806 0.29886 0.84601 0.0
H1362 H 0.31999 0.31176 0.88058 0.0
C1363 C 0.32102 0.35712 0.99113 0.0
C1364 C 0.2983 0.3332 0.94012 0.0
H1365 H 0.30451 0.29492 0.91082 0.0
C1366 C 0.2913 0.3423 0.92523 0.0
C1367 C 0.30282 0.31571 0.93486 0.0
C1368 C 0.3095 0.30469 0.95014 0.0
C1369 C 0.28923 0.33471 0.90525 0.0
C1370 C 0.29411 0.31745 0.9 0.0
C1371 C 0.30085 0.30819 0.91487 0.0
C1372 C 0.29271 0.30904 0.87913 0.0
C1373 C 0.28235 0.34553 0.88987 0.0
C1374 C 0.27669 0.30291 0.86689 0.0
C1375 C 0.27551 0.29547 0.8471 0.0
C1376 C 0.29035 0.294 0.83914 0.0
C1377 C 0.30636 0.29984 0.85158 0.0
C1378 C 0.30751 0.3072 0.87137 0.0
H1379 H 0.28259 0.3603 0.89612 0.0
H1380 H 0.28985 0.34562 0.8777 0.0
H1381 H 0.2689 0.3386 0.88358 0.0
H1382 H 0.26508 0.30392 0.87265 0.0
H1383 H 0.26296 0.29106 0.83802 0.0
H1384 H 0.9602 0.9798 0.30989 0.0
H1385 H 0.97592 0.98722 0.34359 0.0
H1386 H 0.97605 0.0461 0.34315 0.0
H1387 H 0.96005 0.03879 0.3095 0.0
H1388 H 0.00751 0.01088 0.36012 0.0
H1389 H 0.95416 0.03497 0.39109 0.0
H1390 H 0.95128 0.0223 0.36651 0.0
H1391 H 0.96131 0.04685 0.37173 0.0
C1392 C 0.96364 0.99435 0.31689 0.0
C1393 C 0.95872 0.00868 0.30705 0.0
C1394 C 0.97264 0.99857 0.33616 0.0
C1395 C 0.97689 0.01717 0.34598 0.0
C1396 C 0.97258 0.0316 0.33597 0.0
H1397 H 0.02103 0.05498 0.47111 0.0
H1398 H 0.01148 0.05551 0.43608 0.0
C1399 C 0.96352 0.0274 0.3167 0.0
C1400 C 0.98544 0.02122 0.36685 0.0
H1401 H 0.97932 0.03594 0.41333 0.0
C1402 C 1.00141 0.01649 0.37175 0.0
C1403 C 0.97747 0.02861 0.38199 0.0
C1404 C 0.96005 0.03336 0.37768 0.0
C1405 C 0.00949 0.01862 0.3914 0.0
C1406 C 1.00126 0.0254 0.40655 0.0
C1407 C 0.9856 0.03078 0.40165 0.0
C1408 C 0.00792 0.02542 0.42756 0.0
C1409 C 0.0267 0.01341 0.39581 0.0
C1410 C 0.00892 0.00833 0.43435 0.0
C1411 C 0.01426 0.00795 0.45426 0.0
C1412 C 0.01868 0.02467 0.46788 0.0
C1413 C 0.01778 0.04185 0.46102 0.0
C1414 C 0.01233 0.04219 0.44103 0.0
H1415 H 0.03344 0.01386 0.38299 0.0
H1416 H 0.03495 0.02299 0.40865 0.0
H1417 H 0.02486 0.99886 0.39933 0.0
H1418 H 1.00526 0.9952 0.42426 0.0
H1419 H 0.01478 0.99447 0.45896 0.0
H1420 H 0.3461 0.68019 0.62189 0.0
H1421 H 0.34258 0.70069 0.65091 0.0
H1422 H 0.32984 0.74135 0.61432 0.0
H1423 H 0.33419 0.72143 0.58552 0.0
H1424 H 0.34725 0.75869 0.64916 0.0
H1425 H 0.29501 0.70171 0.65991 0.0
H1426 H 0.3154 0.69516 0.66176 0.0
H1427 H 0.30536 0.70019 0.63869 0.0
C1428 C 0.34291 0.6937 0.62015 0.0
C1429 C 0.34022 0.69914 0.60146 0.0
C1430 C 0.34076 0.70531 0.63668 0.0
C1431 C 0.33538 0.72224 0.63466 0.0
C1432 C 0.33386 0.72827 0.61621 0.0
H1433 H 0.27357 0.77124 0.70823 0.0
H1434 H 0.28567 0.75736 0.68108 0.0
C1435 C 0.33636 0.71687 0.59975 0.0
C1436 C 0.33003 0.733 0.65129 0.0
H1437 H 0.30175 0.72924 0.68328 0.0
C1438 C 0.33731 0.75227 0.65665 0.0
C1439 C 0.31684 0.72465 0.66081 0.0
C1440 C 0.30757 0.70435 0.65489 0.0
C1441 C 0.33167 0.76347 0.67117 0.0
C1442 C 0.31874 0.75501 0.68093 0.0
C1443 C 0.31166 0.7357 0.67576 0.0
C1444 C 0.31192 0.7658 0.69625 0.0
C1445 C 0.33922 0.78431 0.67545 0.0
C1446 C 0.32271 0.77555 0.71356 0.0
C1447 C 0.31582 0.78384 0.72886 0.0
C1448 C 0.29805 0.78206 0.7272 0.0
C1449 C 0.28732 0.77283 0.70971 0.0
C1450 C 0.29422 0.76486 0.6943 0.0
H1451 H 0.34513 0.78932 0.66307 0.0
H1452 H 0.32935 0.7925 0.67837 0.0
H1453 H 0.34936 0.78727 0.68868 0.0
H1454 H 0.33633 0.77605 0.7156 0.0
H1455 H 0.32429 0.79064 0.7424 0.0
H1456 H 0.62766 0.98458 0.84224 0.0
H1457 H 0.61135 0.98448 0.86972 0.0
H1458 H 0.62893 0.04447 0.88493 0.0
H1459 H 0.64485 0.0447 0.85783 0.0
H1460 H 0.61975 0.99452 0.91038 0.0
H1461 H 0.57865 0.04151 0.88331 0.0
H1462 H 0.59174 0.03102 0.86815 0.0
H1463 H 0.60093 0.0519 0.88576 0.0
C1464 C 0.62799 0.99779 0.85133 0.0
C1465 C 0.6377 0.01466 0.8473 0.0
C1466 C 0.61862 0.99773 0.86725 0.0
C1467 C 0.61838 0.01455 0.87963 0.0
C1468 C 0.62825 0.03126 0.87567 0.0
H1469 H 0.58819 0.0259 0.99895 0.0
H1470 H 0.60364 0.02353 0.97115 0.0
C1471 C 0.63758 0.03132 0.85997 0.0
C1472 C 0.60817 0.01492 0.89668 0.0
H1473 H 0.57896 0.03683 0.91666 0.0
C1474 C 0.61079 1.00375 0.9116 0.0
C1475 C 0.59613 0.02669 0.8987 0.0
C1476 C 0.59153 0.03832 0.88304 0.0
C1477 C 0.60228 1.00436 0.92824 0.0
C1478 C 0.59075 0.01671 0.93064 0.0
C1479 C 0.58783 0.02749 0.91544 0.0
C1480 C 0.58128 0.01834 0.9483 0.0
C1481 C 0.6055 0.9913 0.94288 0.0
C1482 C 0.56338 0.01693 0.94551 0.0
C1483 C 0.55446 0.01847 0.96158 0.0
C1484 C 0.56298 0.02169 0.98134 0.0
C1485 C 0.58094 0.02337 0.98419 0.0
C1486 C 0.58987 0.02179 0.96806 0.0
H1487 H 0.61016 0.97906 0.93624 0.0
H1488 H 0.6155 0.99903 0.95535 0.0
H1489 H 0.59374 0.98599 0.94873 0.0
H1490 H 0.55612 0.01438 0.93072 0.0
H1491 H 0.54072 0.01706 0.95841 0.0
H1492 H 0.29026 0.33011 0.07827 0.0
H1493 H 0.28985 0.31541 0.10798 0.0
H1494 H 0.30979 0.36961 0.14378 0.0
H1495 H 0.31015 0.38452 0.11408 0.0
H1496 H 0.3169 0.31544 0.1389 0.0
H1497 H 0.26671 0.349 0.16604 0.0
H1498 H 0.27075 0.34878 0.14117 0.0
H1499 H 0.28477 0.36493 0.16096 0.0
C1500 C 0.29457 0.33896 0.09244 0.0
C1501 C 0.30015 0.35856 0.09373 0.0
C1502 C 0.29434 0.3305 0.10944 0.0
C1503 C 0.29956 0.3414 0.12815 0.0
C1504 C 0.30541 0.36092 0.12952 0.0
H1505 H 0.29684 0.311 0.24588 0.0
H1506 H 0.30222 0.32776 0.21821 0.0
C1507 C 0.30569 0.36942 0.1125 0.0
C1508 C 0.29885 0.33225 0.14612 0.0
H1509 H 0.27927 0.33001 0.18644 0.0
C1510 C 0.30869 0.31864 0.14931 0.0
C1511 C 0.28818 0.33645 0.15977 0.0
C1512 C 0.27687 0.35047 0.15682 0.0
C1513 C 0.30822 0.30921 0.16577 0.0
C1514 C 0.29731 0.31316 0.17924 0.0
C1515 C 0.28765 0.32696 0.17617 0.0
C1516 C 0.29529 0.30277 0.19624 0.0
C1517 C 0.31965 0.29531 0.16871 0.0
C1518 C 0.28967 0.28311 0.19321 0.0
C1519 C 0.2867 0.27349 0.20903 0.0
C1520 C 0.2891 0.28334 0.22821 0.0
C1521 C 0.29496 0.30299 0.23129 0.0
C1522 C 0.29797 0.3126 0.21547 0.0
H1523 H 0.33077 0.29819 0.16102 0.0
H1524 H 0.32446 0.29562 0.18456 0.0
H1525 H 0.31225 0.28092 0.16254 0.0
H1526 H 0.2871 0.27521 0.17852 0.0
H1527 H 0.28207 0.25838 0.20614 0.0
H1528 H 0.20704 0.88152 0.02344 0.0
H1529 H 0.18651 0.89314 0.0418 0.0
H1530 H 0.17858 0.93117 1.00022 0.0
H1531 H 0.19877 0.91945 0.98162 0.0
H1532 H 0.18949 0.92852 0.06001 0.0
H1533 H 0.13005 0.9091 0.0053 0.0
H1534 H 0.14844 0.89892 1.00256 0.0
H1535 H 0.14711 0.92133 0.99488 0.0
C1536 C 0.2007 0.89214 0.01803 0.0
C1537 C 0.20452 0.89958 1.00106 0.0
C1538 C 0.18899 0.89875 0.02854 0.0
C1539 C 0.18083 0.9128 0.02221 0.0
C1540 C 0.18439 0.91997 0.00509 0.0
H1541 H 0.15341 1.00743 0.07355 0.0
H1542 H 0.16738 0.98125 0.06665 0.0
C1543 C 0.19604 0.91335 0.99454 0.0
C1544 C 0.16976 0.92129 0.03426 0.0
H1545 H 0.13225 0.93642 0.02997 0.0
C1546 C 0.1768 0.9299 0.05363 0.0
C1547 C 0.15302 0.92262 0.02619 0.0
C1548 C 0.14416 0.91229 0.00616 0.0
C1549 C 0.16812 0.94122 0.06447 0.0
C1550 C 0.15224 0.94434 0.05549 0.0
C1551 C 0.14456 0.93433 0.03681 0.0
C1552 C 0.14444 0.95962 0.06378 0.0
C1553 C 0.1763 0.95014 0.0852 0.0
C1554 C 0.12691 0.95625 0.06468 0.0
C1555 C 0.11879 0.97127 0.06813 0.0
C1556 C 0.12809 0.98995 0.07075 0.0
C1557 C 0.14586 0.99322 0.07134 0.0
C1558 C 0.15393 0.97821 0.0677 0.0
H1559 H 0.18382 0.94084 0.09241 0.0
H1560 H 0.1853 0.9635 0.0848 0.0
H1561 H 0.16663 0.95322 0.09425 0.0
H1562 H 0.11933 0.94203 0.06156 0.0
H1563 H 0.10504 0.96823 0.06735 0.0
H1564 H 0.71699 0.59703 1.00205 0.0
H1565 H 0.68901 0.57787 1.00386 0.0
H1566 H 0.66904 0.6282 0.01359 0.0
H1567 H 0.69679 0.64736 0.01172 0.0
H1568 H 0.67102 0.57962 0.03605 0.0
H1569 H 0.63291 0.595 0.96918 0.0
H1570 H 0.656 0.5996 0.9734 0.0
H1571 H 0.64503 0.61549 0.98565 0.0
C1572 C 0.7066 0.60401 1.00435 0.0
C1573 C 0.70919 0.62377 0.00667 0.0
C1574 C 0.69061 0.59304 0.00544 0.0
C1575 C 0.67681 0.60155 0.00862 0.0
C1576 C 0.67935 0.62124 0.01076 0.0
H1577 H 0.57084 0.56059 0.02285 0.0
H1578 H 0.59851 0.58007 0.02037 0.0
C1579 C 0.6953 0.6322 0.00978 0.0
C1580 C 0.66 0.59 0.01058 0.0
H1581 H 0.61739 0.57896 0.99079 0.0
C1582 C 0.65931 0.57938 0.02607 0.0
C1583 C 0.64467 0.58981 0.99771 0.0
C1584 C 0.64463 0.60045 0.98043 0.0
C1585 C 0.64373 0.56886 0.02923 0.0
C1586 C 0.62839 0.56853 0.01625 0.0
C1587 C 0.62909 0.5792 1.00078 0.0
C1588 C 0.6116 0.55685 0.01819 0.0
C1589 C 0.64384 0.55859 0.04678 0.0
C1590 C 0.60957 0.53729 0.01753 0.0
C1591 C 0.59385 0.52625 0.01919 0.0
C1592 C 0.5797 0.53445 0.0214 0.0
C1593 C 0.58159 0.55396 0.02171 0.0
C1594 C 0.59738 0.56506 0.0201 0.0
H1595 H 0.6552 0.56479 0.05832 0.0
H1596 H 0.63213 0.55884 0.05334 0.0
H1597 H 0.64433 0.5437 0.04204 0.0
H1598 H 0.62013 0.53048 0.01551 0.0
H1599 H 0.59275 0.51121 0.01863 0.0
H1600 H 0.69081 0.51318 0.31165 0.0
H1601 H 0.70834 0.48942 0.3137 0.0
H1602 H 0.66278 0.44571 0.30416 0.0
H1603 H 0.64508 0.46935 0.30196 0.0
H1604 H 0.70848 0.46219 0.34026 0.0
H1605 H 0.69039 0.42908 0.26178 0.0
H1606 H 0.68672 0.45203 0.27038 0.0
H1607 H 0.67292 0.4312 0.27464 0.0
C1608 C 0.68449 0.49851 0.30994 0.0
C1609 C 0.66654 0.49315 0.30654 0.0
C1610 C 0.69454 0.48497 0.31116 0.0
C1611 C 0.68684 0.46583 0.30886 0.0
C1612 C 0.66894 0.46041 0.30567 0.0
H1613 H 0.73077 0.36566 0.30504 0.0
H1614 H 0.71115 0.38739 0.30591 0.0
C1615 C 0.65887 0.47395 0.30451 0.0
C1616 C 0.6976 0.45159 0.30993 0.0
H1617 H 0.70836 0.41505 0.28259 0.0
C1618 C 0.70847 0.45186 0.32768 0.0
C1619 C 0.69745 0.43811 0.2935 0.0
C1620 C 0.68636 0.43758 0.27392 0.0
C1621 C 0.71922 0.43894 0.32946 0.0
C1622 C 0.71931 0.42567 0.31291 0.0
C1623 C 0.70825 0.42524 0.29525 0.0
C1624 C 0.73119 0.41252 0.31338 0.0
C1625 C 0.73021 0.43946 0.34909 0.0
C1626 C 0.74894 0.41947 0.31719 0.0
C1627 C 0.76016 0.40711 0.31667 0.0
C1628 C 0.75384 0.38756 0.31214 0.0
C1629 C 0.73603 0.38064 0.30841 0.0
C1630 C 0.72482 0.39302 0.30898 0.0
H1631 H 0.72508 0.44643 0.36134 0.0
H1632 H 0.7312 0.42505 0.35189 0.0
H1633 H 0.74327 0.44759 0.34913 0.0
H1634 H 0.75412 0.43448 0.32013 0.0
H1635 H 0.77378 0.4129 0.31924 0.0
H1636 H 0.78013 0.40748 0.51958 0.0
H1637 H 0.8074 0.42221 0.5116 0.0
H1638 H 0.83401 0.39905 0.55795 0.0
H1639 H 0.80664 0.38388 0.56571 0.0
H1640 H 0.84523 0.4399 0.55677 0.0
H1641 H 0.84169 0.39382 0.48581 0.0
H1642 H 0.82306 0.40319 0.48916 0.0
H1643 H 0.82933 0.38667 0.50431 0.0
C1644 C 0.79166 0.40526 0.52788 0.0
C1645 C 0.79107 0.39424 0.54303 0.0
C1646 C 0.8073 0.41374 0.52334 0.0
C1647 C 0.82267 0.4115 0.53405 0.0
C1648 C 0.82223 0.40083 0.54945 0.0
H1649 H 0.92729 0.4406 0.51511 0.0
H1650 H 0.89954 0.42509 0.52179 0.0
C1651 C 0.80657 0.39222 0.55387 0.0
C1652 C 0.83924 0.42073 0.52951 0.0
H1653 H 0.86501 0.41996 0.49476 0.0
C1654 C 0.84959 0.43557 0.54323 0.0
C1655 C 0.84482 0.41491 0.51186 0.0
C1656 C 0.83426 0.39869 0.49693 0.0
C1657 C 0.86539 0.44495 0.53965 0.0
C1658 C 0.8709 0.43929 0.52191 0.0
C1659 C 0.86064 0.4243 0.50828 0.0
C1660 C 0.88748 0.44862 0.5175 0.0
C1661 C 0.87622 0.4607 0.5549 0.0
C1662 C 0.88976 0.46691 0.51276 0.0
C1663 C 0.90556 0.47579 0.50891 0.0
C1664 C 0.91936 0.46654 0.50987 0.0
C1665 C 0.91696 0.44816 0.51452 0.0
C1666 C 0.90112 0.43924 0.5182 0.0
H1667 H 0.87131 0.46152 0.56903 0.0
H1668 H 0.88964 0.45883 0.55768 0.0
H1669 H 0.87631 0.4743 0.54933 0.0
H1670 H 0.87931 0.4743 0.51209 0.0
H1671 H 0.90707 0.48998 0.50548 0.0
H1672 H 0.35895 0.07903 0.2616 0.0
H1673 H 0.34242 0.10427 0.26114 0.0
H1674 H 0.38909 0.14586 0.28022 0.0
H1675 H 0.40541 0.12116 0.28043 0.0
H1676 H 0.33697 0.13211 0.28816 0.0
H1677 H 0.37002 0.16905 0.23553 0.0
H1678 H 0.37278 0.14599 0.24006 0.0
H1679 H 0.38479 0.16669 0.25648 0.0
C1680 C 0.36575 0.09353 0.26559 0.0
C1681 C 0.38381 0.09761 0.27088 0.0
C1682 C 0.35619 0.10816 0.26537 0.0
C1683 C 0.36425 0.12752 0.27019 0.0
C1684 C 0.3822 0.13143 0.27577 0.0
H1685 H 0.33523 0.24 0.28066 0.0
H1686 H 0.34973 0.21334 0.27974 0.0
C1687 C 0.39167 0.11697 0.27603 0.0
C1688 C 0.35423 0.14361 0.26983 0.0
H1689 H 0.35322 0.18613 0.25328 0.0
C1690 C 0.3405 0.14377 0.28032 0.0
C1691 C 0.35849 0.15932 0.25982 0.0
C1692 C 0.3722 0.16022 0.24718 0.0
C1693 C 0.33159 0.15893 0.28157 0.0
C1694 C 0.33595 0.17471 0.27167 0.0
C1695 C 0.34959 0.17445 0.26106 0.0
C1696 C 0.32672 0.19148 0.27214 0.0
C1697 C 0.31797 0.1581 0.29431 0.0
C1698 C 0.30868 0.18892 0.26783 0.0
C1699 C 0.30027 0.20437 0.2684 0.0
C1700 C 0.30941 0.22329 0.27311 0.0
C1701 C 0.32747 0.2259 0.27703 0.0
C1702 C 0.33589 0.21042 0.27648 0.0
H1703 H 0.3199 0.14888 0.30564 0.0
H1704 H 0.31778 0.17231 0.30185 0.0
H1705 H 0.30529 0.15215 0.28499 0.0
H1706 H 0.30092 0.17485 0.26376 0.0
H1707 H 0.28643 0.20139 0.2651 0.0
H1708 H 0.30475 0.11031 0.48829 0.0
H1709 H 0.32959 0.09546 0.48798 0.0
H1710 H 0.3376 0.10135 0.55125 0.0
H1711 H 0.31284 0.11592 0.55169 0.0
H1712 H 0.36376 0.11007 0.50549 0.0
H1713 H 0.33833 0.0461 0.53587 0.0
H1714 H 0.32483 0.06118 0.52644 0.0
H1715 H 0.33727 0.06748 0.55081 0.0
C1716 C 0.31169 0.10827 0.50212 0.0
C1717 C 0.30667 0.11424 0.52001 0.0
C1718 C 0.32594 0.09983 0.50193 0.0
C1719 C 0.33536 0.097 0.51958 0.0
C1720 C 0.33036 0.10297 0.5374 0.0
H1721 H 0.42632 0.05575 0.55846 0.0
H1722 H 0.40063 0.06901 0.55498 0.0
C1723 C 0.31619 0.11141 0.53762 0.0
C1724 C 0.35074 0.0884 0.51956 0.0
H1725 H 0.36828 0.05263 0.53533 0.0
C1726 C 0.36468 0.0974 0.51182 0.0
C1727 C 0.35202 0.07187 0.52785 0.0
C1728 C 0.33726 0.06098 0.53554 0.0
C1729 C 0.38002 0.09073 0.51279 0.0
C1730 C 0.38139 0.07437 0.52141 0.0
C1731 C 0.36733 0.0652 0.52881 0.0
C1732 C 0.39736 0.06672 0.5233 0.0
C1733 C 0.39482 0.10165 0.5052 0.0
C1734 C 0.40416 0.06088 0.50665 0.0
C1735 C 0.4189 0.05323 0.5086 0.0
C1736 C 0.42712 0.05106 0.52723 0.0
C1737 C 0.42027 0.05696 0.54386 0.0
C1738 C 0.40558 0.06463 0.5419 0.0
H1739 H 0.39331 0.11625 0.50384 0.0
H1740 H 0.40712 0.1023 0.51501 0.0
H1741 H 0.39549 0.09454 0.4904 0.0
H1742 H 0.39788 0.0619 0.49209 0.0
H1743 H 0.4236 0.04857 0.49543 0.0
H1744 H 0.69058 0.59486 0.32695 0.0
H1745 H 0.71173 0.62414 0.32961 0.0
H1746 H 0.67936 0.64172 0.2835 0.0
H1747 H 0.658 0.6128 0.28112 0.0
H1748 H 0.72917 0.63571 0.30195 0.0
H1749 H 0.69207 0.6889 0.32318 0.0
H1750 H 0.68492 0.66422 0.32427 0.0
H1751 H 0.68125 0.67313 0.30134 0.0
C1752 C 0.68786 0.60508 0.31757 0.0
C1753 C 0.67259 0.60151 0.30385 0.0
C1754 C 0.69996 0.62181 0.31911 0.0
C1755 C 0.69702 0.63528 0.30698 0.0
C1756 C 0.68172 0.6318 0.2934 0.0
H1757 H 0.75584 0.72772 0.26665 0.0
H1758 H 0.73485 0.70118 0.27267 0.0
C1759 C 0.66956 0.61516 0.29195 0.0
C1760 C 0.71046 0.65227 0.30744 0.0
H1761 H 0.71741 0.70008 0.31002 0.0
C1762 C 0.72668 0.6498 0.30405 0.0
C1763 C 0.70722 0.67068 0.31021 0.0
C1764 C 0.69047 0.67442 0.31516 0.0
C1765 C 0.73949 0.66516 0.30254 0.0
C1766 C 0.73598 0.6834 0.30451 0.0
C1767 C 0.71997 0.686 0.30843 0.0
C1768 C 0.74848 0.69981 0.30143 0.0
C1769 C 0.75651 0.66178 0.29815 0.0
C1770 C 0.76301 0.70779 0.3157 0.0
C1771 C 0.77492 0.72312 0.3124 0.0
C1772 C 0.77241 0.7306 0.29479 0.0
C1773 C 0.75789 0.72247 0.28052 0.0
C1774 C 0.74595 0.70729 0.28388 0.0
H1775 H 0.75668 0.64656 0.29532 0.0
H1776 H 0.7596 0.66827 0.28513 0.0
H1777 H 0.76671 0.66857 0.31082 0.0
H1778 H 0.76512 0.70216 0.32934 0.0
H1779 H 0.78603 0.72913 0.32361 0.0
H1780 H 0.85857 0.48941 0.75683 0.0
H1781 H 0.84135 0.45772 0.75649 0.0
H1782 H 0.88718 0.43854 0.77656 0.0
H1783 H 0.90425 0.46964 0.77656 0.0
H1784 H 0.86791 0.41239 0.74913 0.0
H1785 H 0.82603 0.43249 0.80084 0.0
H1786 H 0.8249 0.44403 0.77949 0.0
H1787 H 0.84452 0.44875 0.79692 0.0
C1788 C 0.86499 0.47846 0.76119 0.0
C1789 C 0.88296 0.48245 0.76676 0.0
C1790 C 0.85506 0.46023 0.76116 0.0
C1791 C 0.86274 0.44537 0.76681 0.0
C1792 C 0.88067 0.44941 0.77214 0.0
H1793 H 0.81628 0.34018 0.80506 0.0
H1794 H 0.83021 0.37208 0.80181 0.0
C1795 C 0.89052 0.46747 0.77217 0.0
C1796 C 0.85254 0.4256 0.767 0.0
H1797 H 0.82013 0.40052 0.78631 0.0
C1798 C 0.85742 0.40992 0.75723 0.0
C1799 C 0.83889 0.42188 0.77773 0.0
C1800 C 0.83333 0.43763 0.7895 0.0
C1801 C 0.84929 0.39108 0.75789 0.0
C1802 C 0.83544 0.38735 0.76833 0.0
C1803 C 0.83055 0.40303 0.77811 0.0
C1804 C 0.82644 0.36745 0.77002 0.0
C1805 C 0.85616 0.37533 0.74792 0.0
C1806 C 0.81922 0.35371 0.75333 0.0
C1807 C 0.8112 0.3352 0.75517 0.0
C1808 C 0.80996 0.32973 0.77378 0.0
C1809 C 0.81692 0.34359 0.79043 0.0
C1810 C 0.82494 0.36204 0.78858 0.0
H1811 H 0.86947 0.38025 0.74555 0.0
H1812 H 0.85597 0.36362 0.75669 0.0
H1813 H 0.84807 0.3698 0.73332 0.0
H1814 H 0.81963 0.35731 0.73874 0.0
H1815 H 0.80594 0.32517 0.74193 0.0
H1816 H 0.07542 0.84859 0.12972 0.0
H1817 H 0.07531 0.87833 0.11676 0.0
H1818 H 0.03173 0.85102 0.07258 0.0
H1819 H 0.0317 0.82137 0.08536 0.0
H1820 H 0.07727 0.88732 0.07739 0.0
H1821 H 0.01615 0.89639 0.10078 0.0
H1822 H 0.02848 0.88035 0.11047 0.0
H1823 H 0.01524 0.8739 0.08659 0.0
C1824 C 0.06584 0.84888 0.1172 0.0
C1825 C 0.05351 0.83253 0.10869 0.0
C1826 C 0.06581 0.86592 0.10979 0.0
C1827 C 0.05336 0.86703 0.09385 0.0
C1828 C 0.0413 0.85064 0.08508 0.0
H1829 H 0.02135 0.9527 0.03037 0.0
H1830 H 0.02533 0.92401 0.04334 0.0
C1831 C 0.04136 0.83363 0.09239 0.0
C1832 C 0.05274 0.88527 0.08647 0.0
H1833 H 0.0271 0.91701 0.07977 0.0
C1834 C 0.06636 0.8939 0.078 0.0
C1835 C 0.03852 0.8939 0.08728 0.0
C1836 C 0.02382 0.88579 0.09692 0.0
C1837 C 0.06588 0.91052 0.06973 0.0
C1838 C 0.05152 0.91903 0.07031 0.0
C1839 C 0.03807 0.91052 0.07914 0.0
C1840 C 0.04988 0.93649 0.06158 0.0
C1841 C 0.08053 0.91841 0.05991 0.0
C1842 C 0.06235 0.95325 0.06733 0.0
C1843 C 0.06018 0.96971 0.0597 0.0
C1844 C 0.04535 0.96995 0.04639 0.0
C1845 C 0.03294 0.95314 0.04059 0.0
C1846 C 0.03519 0.93666 0.04805 0.0
H1847 H 0.08785 0.90758 0.05567 0.0
H1848 H 0.07593 0.92418 0.04656 0.0
H1849 H 0.08946 0.92996 0.07033 0.0
H1850 H 0.0736 0.95377 0.07811 0.0
H1851 H 0.06991 0.98238 0.06465 0.0
H1852 H 0.95705 0.23412 0.87705 0.0
H1853 H 0.9278 0.23256 0.86011 0.0
H1854 H 0.93826 0.29303 0.86464 0.0
H1855 H 0.96742 0.29463 0.88088 0.0
H1856 H 0.90141 0.24634 0.87098 0.0
H1857 H 0.91944 0.27897 0.8073 0.0
H1858 H 0.93475 0.27142 0.82448 0.0
H1859 H 0.92901 0.29385 0.83012 0.0
C1860 C 0.95314 0.24706 0.87429 0.0
C1861 C 0.96472 0.26447 0.88014 0.0
C1862 C 0.93639 0.24616 0.86462 0.0
C1863 C 0.93083 0.26265 0.86062 0.0
C1864 C 0.94229 0.28004 0.86691 0.0
H1865 H 0.83421 0.29087 0.81296 0.0
H1866 H 0.86259 0.29081 0.83138 0.0
C1867 C 0.95901 0.28093 0.87635 0.0
C1868 C 0.91304 0.26184 0.85025 0.0
H1869 H 0.89039 0.27671 0.81174 0.0
C1870 C 0.89904 0.25286 0.85794 0.0
C1871 C 0.9098 0.27027 0.83313 0.0
C1872 C 0.92404 0.27899 0.82316 0.0
C1873 C 0.88204 0.25249 0.84931 0.0
C1874 C 0.87889 0.26133 0.83255 0.0
C1875 C 0.89282 0.27015 0.82475 0.0
C1876 C 0.86122 0.26112 0.82252 0.0
C1877 C 0.86751 0.24293 0.85832 0.0
C1878 C 0.85098 0.24446 0.81149 0.0
C1879 C 0.83486 0.24451 0.80083 0.0
C1880 C 0.82859 0.26119 0.80106 0.0
C1881 C 0.83865 0.27778 0.81254 0.0
C1882 C 0.85488 0.27777 0.82303 0.0
H1883 H 0.87204 0.23935 0.87298 0.0
H1884 H 0.85812 0.25209 0.85985 0.0
H1885 H 0.86076 0.22974 0.84849 0.0
H1886 H 0.85564 0.23149 0.81072 0.0
H1887 H 0.82742 0.23151 0.79212 0.0
H1888 H 0.54626 0.22924 0.62856 0.0
H1889 H 0.54293 0.19592 0.61561 0.0
H1890 H 0.56359 0.21098 0.56458 0.0
H1891 H 0.56673 0.24436 0.57727 0.0
H1892 H 0.53539 0.18214 0.55478 0.0
H1893 H 0.58098 0.16667 0.61518 0.0
H1894 H 0.56423 0.17677 0.62358 0.0
H1895 H 0.57949 0.19037 0.61167 0.0
C1896 C 0.55009 0.2255 0.61456 0.0
C1897 C 0.55686 0.23956 0.60403 0.0
C1898 C 0.54829 0.2064 0.60724 0.0
C1899 C 0.55332 0.20087 0.58928 0.0
C1900 C 0.55972 0.21485 0.57852 0.0
H1901 H 0.5681 0.08779 0.54919 0.0
H1902 H 0.57198 0.12168 0.56004 0.0
C1903 C 0.56151 0.23397 0.58582 0.0
C1904 C 0.55174 0.18055 0.58161 0.0
H1905 H 0.56401 0.14032 0.59294 0.0
C1906 C 0.54171 0.17302 0.5631 0.0
C1907 C 0.56019 0.16865 0.59227 0.0
C1908 C 0.57197 0.17603 0.61169 0.0
C1909 C 0.53957 0.15391 0.55521 0.0
C1910 C 0.54746 0.14185 0.56624 0.0
C1911 C 0.55782 0.14947 0.58454 0.0
C1912 C 0.54503 0.12127 0.55915 0.0
C1913 C 0.52908 0.14691 0.53498 0.0
C1914 C 0.52861 0.10965 0.55517 0.0
C1915 C 0.52635 0.09029 0.54891 0.0
C1916 C 0.54047 0.082 0.54661 0.0
C1917 C 0.55692 0.09366 0.5507 0.0
C1918 C 0.55917 0.11306 0.55696 0.0
H1919 H 0.5282 0.1586 0.52633 0.0
H1920 H 0.5346 0.13629 0.52667 0.0
H1921 H 0.5159 0.14022 0.53642 0.0
H1922 H 0.51752 0.11551 0.55718 0.0
H1923 H 0.51349 0.08179 0.54606 0.0
H1924 H 0.57926 0.75632 0.41978 0.0
H1925 H 0.60372 0.75853 0.40268 0.0
H1926 H 0.57145 0.76307 0.34913 0.0
H1927 H 0.54681 0.76107 0.36626 0.0
H1928 H 0.60867 0.73531 0.37042 0.0
H1929 H 0.61121 0.80801 0.35388 0.0
H1930 H 0.59879 0.79845 0.37128 0.0
H1931 H 0.5909 0.79217 0.34533 0.0
C1932 C 0.5773 0.75786 0.40437 0.0
C1933 C 0.56101 0.7586 0.39445 0.0
C1934 C 0.59135 0.75909 0.39459 0.0
C1935 C 0.58955 0.76123 0.37466 0.0
C1936 C 0.57328 0.76181 0.36461 0.0
H1937 H 0.66197 0.77202 0.29291 0.0
H1938 H 0.6367 0.76935 0.3087 0.0
C1939 C 0.55916 0.76055 0.3744 0.0
C1940 C 0.6047 0.7625 0.36448 0.0
H1941 H 0.63023 0.79121 0.34041 0.0
C1942 C 0.61339 0.74756 0.36389 0.0
C1943 C 0.61091 0.77845 0.35592 0.0
C1944 C 0.60259 0.79528 0.35673 0.0
C1945 C 0.62792 0.74802 0.3548 0.0
C1946 C 0.63422 0.76404 0.34638 0.0
C1947 C 0.62546 0.77893 0.34686 0.0
C1948 C 0.64979 0.76562 0.3369 0.0
C1949 C 0.63615 0.73112 0.35393 0.0
C1950 C 0.66573 0.76463 0.34749 0.0
C1951 C 0.68029 0.76621 0.33849 0.0
C1952 C 0.67931 0.76902 0.31871 0.0
C1953 C 0.66334 0.77015 0.30822 0.0
C1954 C 0.6488 0.76852 0.31721 0.0
H1955 H 0.6272 0.71827 0.35596 0.0
H1956 H 0.64058 0.72838 0.33968 0.0
H1957 H 0.6474 0.73382 0.36589 0.0
H1958 H 0.66697 0.76286 0.36283 0.0
H1959 H 0.69239 0.76556 0.34714 0.0
H1960 H 0.02067 0.24412 0.38687 0.0
H1961 H 0.0211 0.21655 0.40344 0.0
H1962 H 0.07389 0.23897 0.4296 0.0
H1963 H 0.07361 0.26666 0.41319 0.0
H1964 H 0.0438 0.18976 0.40273 0.0
H1965 H 0.0477 0.23105 0.4765 0.0
H1966 H 0.04139 0.23975 0.45394 0.0
H1967 H 0.06352 0.24002 0.46241 0.0
C1968 C 0.03241 0.24316 0.39606 0.0
C1969 C 0.04707 0.25765 0.39887 0.0
C1970 C 0.03264 0.22737 0.40545 0.0
C1971 C 0.04747 0.22589 0.41785 0.0
C1972 C 0.06227 0.24002 0.42023 0.0
H1973 H 0.06628 0.12997 0.47458 0.0
H1974 H 0.0675 0.15471 0.45368 0.0
C1975 C 0.06208 0.2558 0.41082 0.0
C1976 C 0.04721 0.20994 0.42896 0.0
H1977 H 0.04896 0.19902 0.47539 0.0
C1978 C 0.04497 0.19172 0.41862 0.0
C1979 C 0.04855 0.21265 0.44964 0.0
C1980 C 0.05029 0.23188 0.46134 0.0
C1981 C 0.04412 0.17604 0.42851 0.0
C1982 C 0.04567 0.1788 0.44921 0.0
C1983 C 0.04788 0.19702 0.45951 0.0
C1984 C 0.04442 0.16296 0.46056 0.0
C1985 C 0.04117 0.15664 0.41677 0.0
C1986 C 0.03108 0.15951 0.4713 0.0
C1987 C 0.03036 0.14548 0.48321 0.0
C1988 C 0.04305 0.13471 0.48469 0.0
C1989 C 0.05624 0.13794 0.47358 0.0
C1990 C 0.05695 0.15202 0.46165 0.0
H1991 H 0.03681 0.15661 0.40086 0.0
H1992 H 0.0533 0.15151 0.41846 0.0
H1993 H 0.0315 0.14661 0.42224 0.0
H1994 H 0.02128 0.16781 0.47061 0.0
H1995 H 0.01988 0.1431 0.49132 0.0
H1996 H 0.59794 0.28296 0.23777 0.0
H1997 H 0.62768 0.293 0.2545 0.0
H1998 H 0.63546 0.23656 0.24031 0.0
H1999 H 0.60568 0.22629 0.224 0.0
H2000 H 0.65139 0.25365 0.27806 0.0
H2001 H 0.66621 0.3004 0.22259 0.0
H2002 H 0.64964 0.30508 0.23592 0.0
H2003 H 0.64637 0.28337 0.21938 0.0
C2004 C 0.60593 0.27263 0.23841 0.0
C2005 C 0.59953 0.25387 0.22935 0.0
C2006 C 0.62293 0.27842 0.2479 0.0
C2007 C 0.63383 0.26561 0.24826 0.0
C2008 C 0.62725 0.24669 0.24011 0.0
H2009 H 0.73502 0.25332 0.26071 0.0
H2010 H 0.70438 0.2514 0.25847 0.0
C2011 C 0.61023 0.24085 0.23076 0.0
C2012 C 0.65235 0.27193 0.25602 0.0
H2013 H 0.68912 0.29776 0.24622 0.0
C2014 C 0.65963 0.26349 0.27129 0.0
C2015 C 0.66304 0.28484 0.24718 0.0
C2016 C 0.65601 0.29388 0.23027 0.0
C2017 C 0.67739 0.26705 0.27744 0.0
C2018 C 0.68809 0.27922 0.26795 0.0
C2019 C 0.6808 0.28848 0.25347 0.0
C2020 C 0.70675 0.28052 0.27087 0.0
C2021 C 0.68464 0.25733 0.29361 0.0
C2022 C 0.71822 0.29766 0.27835 0.0
C2023 C 0.73585 0.29884 0.27969 0.0
C2024 C 0.74219 0.28296 0.27318 0.0
C2025 C 0.73059 0.26585 0.26576 0.0
C2026 C 0.71307 0.26465 0.26463 0.0
H2027 H 0.67509 0.25302 0.30307 0.0
H2028 H 0.68836 0.24446 0.28697 0.0
H2029 H 0.69621 0.26659 0.30294 0.0
H2030 H 0.71351 0.3101 0.28303 0.0
H2031 H 0.74446 0.31221 0.28549 0.0
H2032 H 0.53762 0.83423 0.92142 0.0
H2033 H 0.5372 0.85741 0.94974 0.0
H2034 H 0.50916 0.88768 0.91171 0.0
H2035 H 0.50923 0.86445 0.8834 0.0
H2036 H 0.55018 0.89529 0.95682 0.0
H2037 H 0.48014 0.88153 0.95443 0.0
H2038 H 0.49047 0.86571 0.94081 0.0
H2039 H 0.4859 0.88639 0.93133 0.0
C2040 C 0.53136 0.84583 0.91908 0.0
C2041 C 0.52337 0.84745 0.90017 0.0
C2042 C 0.53109 0.85901 0.93529 0.0
C2043 C 0.5228 0.874 0.93288 0.0
C2044 C 0.5152 0.87591 0.91397 0.0
H2045 H 0.51833 0.97989 0.99047 0.0
H2046 H 0.51453 0.94954 0.96971 0.0
C2047 C 0.5154 0.86271 0.89778 0.0
C2048 C 0.52268 0.88814 0.94997 0.0
H2049 H 0.49621 0.91089 0.97326 0.0
C2050 C 0.53839 0.89848 0.96068 0.0
C2051 C 0.50726 0.89215 0.95504 0.0
C2052 C 0.48999 0.88072 0.94493 0.0
C2053 C 0.53911 0.91349 0.97558 0.0
C2054 C 0.5237 0.9181 0.97994 0.0
C2055 C 0.50798 0.90728 0.96983 0.0
C2056 C 0.52379 0.9354 0.99333 0.0
C2057 C 0.55632 0.92497 0.98586 0.0
C2058 C 0.5297 0.93725 0.01361 0.0
C2059 C 0.53174 0.9546 0.0256 0.0
C2060 C 0.52798 0.97026 0.01736 0.0
C2061 C 0.52124 0.96804 0.99723 0.0
C2062 C 0.5191 0.95073 0.98534 0.0
H2063 H 0.56702 0.92083 0.97919 0.0
H2064 H 0.55683 0.94017 0.98537 0.0
H2065 H 0.55828 0.92302 1.00154 0.0
H2066 H 0.53326 0.92547 0.02001 0.0
H2067 H 0.53696 0.95595 0.04108 0.0
H2068 H 1.00679 0.7153 0.73839 0.0
H2069 H 0.98278 0.71756 0.75583 0.0
H2070 H 0.96459 0.75266 0.7155 0.0
H2071 H 0.98817 0.75023 0.69786 0.0
H2072 H 0.97523 0.7491 0.77478 0.0
H2073 H 0.92142 0.71436 0.71548 0.0
H2074 H 0.94322 0.7124 0.71435 0.0
H2075 H 0.93553 0.7326 0.70726 0.0
C2076 C 0.99754 0.72331 0.73311 0.0
C2077 C 0.99936 0.73252 0.71669 0.0
C2078 C 0.98386 0.72459 0.7431 0.0
C2079 C 0.97173 0.73499 0.73674 0.0
C2080 C 0.97353 0.74414 0.72035 0.0
H2081 H 0.91124 0.79923 0.79239 0.0
H2082 H 0.93405 0.78496 0.78198 0.0
C2083 C 0.98712 0.74284 0.71036 0.0
C2084 C 0.95773 0.73739 0.74778 0.0
H2085 H 0.91485 0.73597 0.74104 0.0
C2086 C 0.96197 0.7459 0.76754 0.0
C2087 C 0.9404 0.73283 0.73848 0.0
C2088 C 0.93486 0.72234 0.71779 0.0
C2089 C 0.94946 0.75117 0.77782 0.0
C2090 C 0.93238 0.74821 0.76791 0.0
C2091 C 0.92798 0.7385 0.74859 0.0
C2092 C 0.91916 0.75641 0.77653 0.0
C2093 C 0.95475 0.76011 0.79909 0.0
C2094 C 0.90309 0.74518 0.77675 0.0
C2095 C 0.88987 0.75338 0.78227 0.0
C2096 C 0.89245 0.773 0.78764 0.0
C2097 C 0.90876 0.78411 0.78813 0.0
C2098 C 0.92192 0.77592 0.78248 0.0
H2099 H 0.9659 0.75506 0.80626 0.0
H2100 H 0.95867 0.77558 0.79989 0.0
H2101 H 0.94413 0.75708 0.80748 0.0
H2102 H 0.90062 0.73011 0.77205 0.0
H2103 H 0.87741 0.74441 0.78144 0.0
H2104 H 0.14424 0.06756 0.87825 0.0
H2105 H 0.12879 0.06045 0.90512 0.0
H2106 H 0.09523 0.01304 0.867 0.0
H2107 H 0.11049 0.02009 0.83993 0.0
H2108 H 0.08957 0.05513 0.90292 0.0
H2109 H 0.11787 0.99365 0.91886 0.0
H2110 H 0.12848 0.01205 0.90702 0.0
H2111 H 0.11019 0.99521 0.89358 0.0
C2112 C 0.13353 0.05566 0.87553 0.0
C2113 C 0.12862 0.04436 0.85696 0.0
C2114 C 0.12474 0.05163 0.8909 0.0
C2115 C 0.11102 0.03614 0.88804 0.0
C2116 C 0.1059 0.02497 0.86949 0.0
H2117 H 0.0473 0.98632 0.96649 0.0
H2118 H 0.06335 0.99217 0.93976 0.0
C2119 C 0.11459 0.02908 0.85404 0.0
C2120 C 0.10203 0.03172 0.90448 0.0
H2121 H 0.0973 1.00112 0.9376 0.0
C2122 C 0.09124 0.04335 0.91056 0.0
C2123 C 0.10421 0.01626 0.91422 0.0
C2124 C 0.11586 1.00355 0.90825 0.0
C2125 C 0.08237 0.03982 0.92608 0.0
C2126 C 0.08481 0.02458 0.93617 0.0
C2127 C 0.09554 0.01286 0.92995 0.0
C2128 C 0.0762 0.02051 0.95308 0.0
C2129 C 0.07017 0.05221 0.9312 0.0
C2130 C 0.07857 0.03423 0.96975 0.0
C2131 C 0.06933 0.03098 0.98491 0.0
C2132 C 0.05775 0.01382 0.98383 0.0
C2133 C 0.05611 0.99969 0.96768 0.0
C2134 C 0.06525 1.00302 0.9524 0.0
H2135 H 0.06606 0.05944 0.91874 0.0
H2136 H 0.05861 0.04393 0.93537 0.0
H2137 H 0.07666 0.06319 0.94384 0.0
H2138 H 0.08731 0.04763 0.97084 0.0
H2139 H 0.07087 0.04212 0.99719 0.0
H2140 H 0.74865 0.34477 0.50506 0.0
H2141 H 0.76194 0.33261 0.5336 0.0
H2142 H 0.72047 0.34187 0.56374 0.0
H2143 H 0.7075 0.3544 0.53542 0.0
H2144 H 0.75305 0.35713 0.58592 0.0
H2145 H 0.7473 0.28247 0.55334 0.0
H2146 H 0.75738 0.29978 0.54012 0.0
H2147 H 0.73519 0.29784 0.5419 0.0
C2148 C 0.7425 0.34416 0.51785 0.0
C2149 C 0.72737 0.35081 0.51842 0.0
C2150 C 0.74992 0.33705 0.53398 0.0
C2151 C 0.74213 0.3363 0.55072 0.0
C2152 C 0.72668 0.3424 0.55096 0.0
H2153 H 0.75562 0.30425 0.66464 0.0
H2154 H 0.74783 0.31724 0.63475 0.0
C2155 C 0.71928 0.34948 0.53484 0.0
C2156 C 0.75037 0.33003 0.56842 0.0
H2157 H 0.76178 0.29186 0.58609 0.0
C2158 C 0.75506 0.34289 0.58594 0.0
C2159 C 0.75305 0.31149 0.56832 0.0
C2160 C 0.74787 0.29701 0.54998 0.0
C2161 C 0.76218 0.33764 0.60348 0.0
C2162 C 0.7643 0.31892 0.60356 0.0
C2163 C 0.76011 0.3062 0.58593 0.0
C2164 C 0.76968 0.31192 0.62203 0.0
C2165 C 0.76734 0.35217 0.62179 0.0
C2166 C 0.78444 0.30439 0.62463 0.0
C2167 C 0.78897 0.29696 0.64176 0.0
C2168 C 0.77872 0.29686 0.65648 0.0
C2169 C 0.76399 0.3045 0.6538 0.0
C2170 C 0.7595 0.31191 0.63671 0.0
H2171 H 0.76979 0.36669 0.61814 0.0
H2172 H 0.75681 0.35089 0.63048 0.0
H2173 H 0.77899 0.35006 0.63113 0.0
H2174 H 0.79241 0.3042 0.61338 0.0
H2175 H 0.80045 0.29128 0.64346 0.0
H2176 H 0.43216 0.06011 0.33475 0.0
H2177 H 0.4482 0.06095 0.36805 0.0
H2178 H 0.46503 0.01073 0.34776 0.0
H2179 H 0.4492 0.00978 0.3149 0.0
H2180 H 0.44566 0.03301 0.39475 0.0
H2181 H 0.51023 0.0461 0.37484 0.0
H2182 H 0.4917 0.04991 0.35919 0.0
H2183 H 0.4956 0.02653 0.35941 0.0
C2184 C 0.43942 0.04936 0.3373 0.0
C2185 C 0.43932 0.03495 0.32177 0.0
C2186 C 0.44857 0.04977 0.3565 0.0
C2187 C 0.45816 0.036 0.36073 0.0
C2188 C 0.45809 0.02175 0.34517 0.0
H2189 H 0.5251 1.00556 0.45701 0.0
H2190 H 0.50811 0.00936 0.42626 0.0
C2191 C 0.44888 0.02121 0.32619 0.0
C2192 C 0.46808 0.03611 0.38118 0.0
H2193 H 0.50822 0.03633 0.4059 0.0
C2194 C 0.45938 0.03396 0.39721 0.0
C2195 C 0.48603 0.03719 0.38475 0.0
C2196 C 0.49651 0.04023 0.36871 0.0
C2197 C 0.46785 0.03214 0.41612 0.0
C2198 C 0.48583 0.03297 0.41963 0.0
C2199 C 0.49452 0.03555 0.40364 0.0
C2200 C 0.49582 0.03045 0.43927 0.0
C2201 C 0.4572 0.02844 0.43187 0.0
C2202 C 0.49496 0.04091 0.45749 0.0
C2203 C 0.5047 0.03855 0.4754 0.0
C2204 C 0.51586 0.02585 0.47572 0.0
C2205 C 0.51673 0.01549 0.45755 0.0
C2206 C 0.50695 0.01772 0.43977 0.0
H2207 H 0.44352 0.02265 0.42548 0.0
H2208 H 0.46188 0.01843 0.44101 0.0
H2209 H 0.45794 0.04188 0.44156 0.0
H2210 H 0.487 0.05126 0.45791 0.0
H2211 H 0.50373 0.04696 0.48896 0.0
H2212 H 0.7844 0.71624 0.0536 0.0
H2213 H 0.78756 0.73139 0.08769 0.0
H2214 H 0.76615 0.6782 0.10412 0.0
H2215 H 0.76318 0.66289 0.07021 0.0
H2216 H 0.76327 0.73443 0.11109 0.0
H2217 H 0.81001 0.69565 0.14422 0.0
H2218 H 0.80497 0.6954 0.11803 0.0
H2219 H 0.79093 0.68047 0.1302 0.0
C2220 C 0.78042 0.70773 0.06447 0.0
C2221 C 0.77363 0.68831 0.05914 0.0
C2222 C 0.78223 0.71643 0.08396 0.0
C2223 C 0.77736 0.70589 0.09856 0.0
C2224 C 0.77037 0.68656 0.09323 0.0
H2225 H 0.75577 0.74664 0.2128 0.0
H2226 H 0.7545 0.73366 0.17845 0.0
C2227 C 0.76858 0.67784 0.07378 0.0
C2228 C 0.77924 0.71517 0.11925 0.0
H2229 H 0.79723 0.71363 0.16649 0.0
C2230 C 0.77077 0.72995 0.12319 0.0
C2231 C 0.78923 0.70954 0.13504 0.0
C2232 C 0.79945 0.69452 0.13169 0.0
C2233 C 0.77168 0.73891 0.1425 0.0
C2234 C 0.78107 0.73271 0.15836 0.0
C2235 C 0.78988 0.71826 0.15437 0.0
C2236 C 0.78184 0.74093 0.17922 0.0
C2237 C 0.76275 0.75509 0.14568 0.0
C2238 C 0.79766 0.74898 0.19129 0.0
C2239 C 0.79846 0.7563 0.21105 0.0
C2240 C 0.78343 0.75565 0.21919 0.0
C2241 C 0.7676 0.74754 0.20704 0.0
C2242 C 0.76683 0.74018 0.18732 0.0
H2243 H 0.76051 0.76155 0.13213 0.0
H2244 H 0.75012 0.74983 0.14972 0.0
H2245 H 0.77028 0.76615 0.15775 0.0
H2246 H 0.80943 0.74963 0.18541 0.0
H2247 H 0.81088 0.76241 0.21993 0.0
H2248 H 0.13117 0.04805 0.74145 0.0
H2249 H 0.11771 0.04554 0.70719 0.0
H2250 H 0.07551 1.00383 0.71649 0.0
H2251 H 0.08886 1.00626 0.75094 0.0
H2252 H 0.10843 0.01212 0.67835 0.0
H2253 H 0.05283 0.04387 0.69123 0.0
H2254 H 0.07167 0.04685 0.70977 0.0
H2255 H 0.05625 0.02501 0.70467 0.0
C2256 C 0.11898 0.03839 0.73629 0.0
C2257 C 0.11107 0.02738 0.74897 0.0
C2258 C 0.11134 0.03696 0.71668 0.0
C2259 C 0.09558 0.02462 0.70937 0.0
C2260 C 0.08758 0.01362 0.72194 0.0
H2261 H 0.05099 0.99169 0.58465 0.0
H2262 H 0.06232 0.99123 0.61915 0.0
C2263 C 0.09526 0.01499 0.7416 0.0
C2264 C 0.08778 0.0231 0.68846 0.0
H2265 H 0.05409 0.03246 0.65835 0.0
C2266 C 0.09651 0.01646 0.67394 0.0
C2267 C 0.0723 0.02894 0.68283 0.0
C2268 C 0.06272 0.03671 0.69788 0.0
C2269 C 0.09019 0.01558 0.65388 0.0
C2270 C 0.07469 0.02136 0.64824 0.0
C2271 C 0.06592 0.02793 0.66276 0.0
C2272 C 0.06775 0.02149 0.62736 0.0
C2273 C 0.10036 0.00896 0.63886 0.0
C2274 C 0.06686 0.03863 0.62065 0.0
C2275 C 0.06042 0.03898 0.60097 0.0
C2276 C 0.05459 0.02213 0.58764 0.0
C2277 C 0.0554 1.00493 0.59447 0.0
C2278 C 0.06192 1.00463 0.61417 0.0
H2279 H 0.11355 0.00846 0.64569 0.0
H2280 H 0.09387 0.9946 0.63142 0.0
H2281 H 0.10113 0.01835 0.62747 0.0
H2282 H 0.07127 0.05179 0.63064 0.0
H2283 H 0.05993 0.05247 0.59628 0.0
H2284 H 0.80251 0.34704 0.49064 0.0
H2285 H 0.81123 0.33172 0.46155 0.0
H2286 H 0.77827 0.35801 0.42434 0.0
H2287 H 0.77 0.37375 0.45314 0.0
H2288 H 0.79117 0.30647 0.43321 0.0
H2289 H 0.81991 0.36637 0.39949 0.0
H2290 H 0.81579 0.36927 0.42437 0.0
H2291 H 0.79907 0.3687 0.40393 0.0
C2292 C 0.79742 0.34984 0.47626 0.0
C2293 C 0.78553 0.36155 0.47418 0.0
C2294 C 0.80239 0.34107 0.45967 0.0
C2295 C 0.79556 0.34389 0.44077 0.0
C2296 C 0.78408 0.35601 0.43876 0.0
H2297 H 0.77109 0.26909 0.33148 0.0
H2298 H 0.77312 0.28482 0.36518 0.0
C2299 C 0.77926 0.36491 0.45529 0.0
C2300 C 0.79901 0.33289 0.42301 0.0
H2301 H 0.8083 0.3371 0.37729 0.0
C2302 C 0.79525 0.31316 0.42111 0.0
C2303 C 0.8046 0.34158 0.40734 0.0
C2304 C 0.81025 0.36265 0.40899 0.0
C2305 C 0.79604 0.3019 0.40358 0.0
C2306 C 0.8002 0.31063 0.38734 0.0
C2307 C 0.80483 0.33035 0.38961 0.0
C2308 C 0.79937 0.29976 0.36767 0.0
C2309 C 0.79239 0.28081 0.4027 0.0
C2310 C 0.8133 0.30315 0.35773 0.0
C2311 C 0.81198 0.29456 0.3384 0.0
C2312 C 0.79677 0.28228 0.32872 0.0
C2313 C 0.783 0.27835 0.33878 0.0
C2314 C 0.78421 0.28724 0.35805 0.0
H2315 H 0.79548 0.27683 0.41752 0.0
H2316 H 0.77856 0.2751 0.39721 0.0
H2317 H 0.79981 0.27407 0.39272 0.0
H2318 H 0.82509 0.31278 0.3648 0.0
H2319 H 0.82278 0.29776 0.3309 0.0
H2320 H 0.41581 0.03487 0.20031 0.0
H2321 H 0.42816 0.03139 0.1699 0.0
H2322 H 0.47812 0.03791 0.20463 0.0
H2323 H 0.46599 0.04098 0.2346 0.0
H2324 H 0.4517 0.05298 0.1531 0.0
H2325 H 0.47852 0.9914 0.16888 0.0
H2326 H 0.46387 1.00005 0.1831 0.0
H2327 H 0.48632 0.01086 0.18837 0.0
C2328 C 0.42942 0.0355 0.20152 0.0
C2329 C 0.43969 0.03808 0.22034 0.0
C2330 C 0.43657 0.03351 0.18396 0.0
C2331 C 0.45424 0.03385 0.18446 0.0
C2332 C 0.46445 0.03689 0.20328 0.0
H2333 H 0.52832 0.02776 0.10292 0.0
H2334 H 0.51303 0.03028 0.13073 0.0
C2335 C 0.45738 0.03883 0.22068 0.0
C2336 C 0.46218 0.03134 0.16572 0.0
H2337 H 0.48896 1.00719 0.14362 0.0
C2338 C 0.45968 0.04279 0.15103 0.0
C2339 C 0.47278 0.01812 0.16246 0.0
C2340 C 0.4754 1.00428 0.17642 0.0
C2341 C 0.46775 0.04191 0.13406 0.0
C2342 C 0.4786 0.02892 0.13102 0.0
C2343 C 0.48088 0.0173 0.14557 0.0
C2344 C 0.48796 0.02736 0.11329 0.0
C2345 C 0.46504 0.05555 0.11991 0.0
C2346 C 0.47935 0.02454 0.09358 0.0
C2347 C 0.48821 0.02303 0.0774 0.0
C2348 C 0.5061 0.02417 0.08013 0.0
C2349 C 0.51463 0.02679 0.09984 0.0
C2350 C 0.50578 0.02823 0.11598 0.0
H2351 H 0.46075 0.06791 0.12689 0.0
H2352 H 0.47694 0.06065 0.11422 0.0
H2353 H 0.45497 0.04836 0.10727 0.0
H2354 H 0.46563 0.02327 0.09059 0.0
H2355 H 0.48096 0.02104 0.06268 0.0
H2356 H 0.73225 0.66234 0.93624 0.0
H2357 H 0.73733 0.68176 0.91059 0.0
H2358 H 0.78761 0.70746 0.94304 0.0
H2359 H 0.78267 0.68799 0.9688 0.0
H2360 H 0.74534 0.72133 0.91275 0.0
H2361 H 0.79683 0.68849 0.88808 0.0
H2362 H 0.78279 0.67792 0.90347 0.0
H2363 H 0.80022 0.6973 0.91392 0.0
C2364 C 0.74441 0.67211 0.93798 0.0
C2365 C 0.75709 0.67348 0.9546 0.0
C2366 C 0.74728 0.68325 0.92328 0.0
C2367 C 0.76293 0.69592 0.9247 0.0
C2368 C 0.77553 0.69757 0.94142 0.0
H2369 H 0.78553 0.78483 0.85258 0.0
H2370 H 0.77962 0.76712 0.87948 0.0
C2371 C 0.77265 0.68648 0.95621 0.0
C2372 C 0.766 0.70729 0.90864 0.0
H2373 H 0.791 0.71464 0.87345 0.0
C2374 C 0.75535 0.7199 0.90419 0.0
C2375 C 0.77891 0.70527 0.89726 0.0
C2376 C 0.79027 0.69141 0.90074 0.0
C2377 C 0.75737 0.73063 0.88886 0.0
C2378 C 0.77048 0.72885 0.87771 0.0
C2379 C 0.78102 0.71612 0.88205 0.0
C2380 C 0.77331 0.73978 0.86127 0.0
C2381 C 0.74522 0.74349 0.88443 0.0
C2382 C 0.77185 0.73038 0.84205 0.0
C2383 C 0.7752 0.74047 0.82667 0.0
C2384 C 0.78028 0.76021 0.83019 0.0
C2385 C 0.78156 0.76965 0.84937 0.0
C2386 C 0.77813 0.75953 0.86476 0.0
H2387 H 0.73352 0.73996 0.89104 0.0
H2388 H 0.7517 0.75821 0.8906 0.0
H2389 H 0.74135 0.74274 0.86831 0.0
H2390 H 0.7682 0.71516 0.83897 0.0
H2391 H 0.77418 0.73276 0.81208 0.0
H2392 H 0.85945 0.16119 0.99849 0.0
H2393 H 0.88098 0.14812 0.983 0.0
H2394 H 0.88555 0.11252 0.02773 0.0
H2395 H 0.86436 0.12554 0.04337 0.0
H2396 H 0.91711 0.13102 0.01888 0.0
H2397 H 0.87075 0.09371 0.95211 0.0
H2398 H 0.87258 0.11864 0.95871 0.0
H2399 H 0.86376 0.10282 0.97414 0.0
C2400 C 0.86518 0.15071 0.00512 0.0
C2401 C 0.86012 0.14429 0.02208 0.0
C2402 C 0.87738 0.14321 0.99618 0.0
C2403 C 0.88464 0.12921 1.00411 0.0
C2404 C 0.88004 0.12329 0.02138 0.0
H2405 H 0.9223 0.03448 0.98089 0.0
H2406 H 0.90566 0.05914 0.97985 0.0
C2407 C 0.8679 0.13073 0.03028 0.0
C2408 C 0.89669 0.12003 0.99443 0.0
H2409 H 0.89766 0.08573 0.95698 0.0
C2410 C 0.91308 0.12143 0.0051 0.0
C2411 C 0.89124 0.10756 0.97649 0.0
C2412 C 0.87361 0.10542 0.96464 0.0
C2413 C 0.92375 0.10961 0.99914 0.0
C2414 C 0.91796 0.09638 0.9817 0.0
C2415 C 0.90204 0.09595 0.97027 0.0
C2416 C 0.92695 0.081 0.97708 0.0
C2417 C 0.94047 0.11036 0.01248 0.0
C2418 C 0.94413 0.08488 0.97466 0.0
C2419 C 0.95368 0.07088 0.97559 0.0
C2420 C 0.94602 0.05276 0.97843 0.0
C2421 C 0.92841 0.04836 0.97863 0.0
C2422 C 0.91894 0.06244 0.97804 0.0
H2423 H 0.94157 0.11916 0.02697 0.0
H2424 H 0.94188 0.09601 0.01505 0.0
H2425 H 0.95126 0.11649 0.00544 0.0
H2426 H 0.95043 0.09901 0.97343 0.0
H2427 H 0.96725 0.07446 0.97526 0.0
H2428 H 0.3732 0.41485 0.08357 0.0
H2429 H 0.40095 0.43267 0.07968 0.0
H2430 H 0.37624 0.45691 0.03283 0.0
H2431 H 0.34833 0.43942 0.03695 0.0
H2432 H 0.41748 0.43148 0.04875 0.0
H2433 H 0.40594 0.50337 0.06686 0.0
H2434 H 0.39183 0.48272 0.07135 0.0
H2435 H 0.39044 0.48906 0.04705 0.0
C2436 C 0.37361 0.42409 0.07254 0.0
C2437 C 0.35846 0.42577 0.06067 0.0
C2438 C 0.38954 0.43425 0.07029 0.0
C2439 C 0.39076 0.44637 0.05613 0.0
C2440 C 0.37567 0.44802 0.04418 0.0
H2441 H 0.48635 0.49048 0.01532 0.0
H2442 H 0.45843 0.47207 0.01841 0.0
C2443 C 0.35969 0.43793 0.04649 0.0
C2444 C 0.40788 0.45687 0.05369 0.0
H2445 H 0.43138 0.50103 0.05436 0.0
C2446 C 0.42052 0.4467 0.05 0.0
C2447 C 0.41198 0.47676 0.05555 0.0
C2448 C 0.3994 0.48866 0.06061 0.0
C2449 C 0.43703 0.4558 0.04804 0.0
C2450 C 0.44098 0.47565 0.04938 0.0
C2451 C 0.42836 0.48582 0.05316 0.0
C2452 C 0.45824 0.48627 0.04755 0.0
C2453 C 0.45021 0.44407 0.04509 0.0
C2454 C 0.4674 0.5006 0.06271 0.0
C2455 C 0.48325 0.51123 0.06087 0.0
C2456 C 0.49033 0.5078 0.04383 0.0
C2457 C 0.4813 0.49332 0.02872 0.0
C2458 C 0.46536 0.48273 0.03051 0.0
H2459 H 0.44674 0.43011 0.04988 0.0
H2460 H 0.45103 0.44162 0.02923 0.0
H2461 H 0.46304 0.45134 0.05333 0.0
H2462 H 0.46224 0.50365 0.07599 0.0
H2463 H 0.4899 0.52231 0.07275 0.0
H2464 H 0.37844 0.54249 0.78486 0.0
H2465 H 0.36248 0.56735 0.7799 0.0
H2466 H 0.38713 0.57947 0.73054 0.0
H2467 H 0.40289 0.55451 0.73515 0.0
H2468 H 0.37426 0.60536 0.78056 0.0
H2469 H 0.33662 0.57224 0.70743 0.0
H2470 H 0.34839 0.55952 0.72324 0.0
H2471 H 0.35929 0.57477 0.70855 0.0
C2472 C 0.38042 0.5504 0.7729 0.0
C2473 C 0.39184 0.54642 0.76031 0.0
C2474 C 0.37131 0.5646 0.77011 0.0
C2475 C 0.37341 0.57502 0.75465 0.0
C2476 C 0.38502 0.57131 0.74228 0.0
H2477 H 0.34451 0.68238 0.7435 0.0
H2478 H 0.35997 0.65709 0.7484 0.0
C2479 C 0.39409 0.55709 0.74501 0.0
C2480 C 0.36368 0.58999 0.75163 0.0
H2481 H 0.33571 0.60418 0.71781 0.0
C2482 C 0.36576 0.60508 0.76688 0.0
C2483 C 0.35243 0.58944 0.73387 0.0
C2484 C 0.34888 0.57303 0.7174 0.0
C2485 C 0.35712 0.61984 0.76473 0.0
C2486 C 0.3464 0.61968 0.74667 0.0
C2487 C 0.34409 0.6044 0.73155 0.0
C2488 C 0.33717 0.635 0.74326 0.0
C2489 C 0.35931 0.63528 0.78196 0.0
C2490 C 0.31928 0.63089 0.73801 0.0
C2491 C 0.31046 0.64525 0.73493 0.0
C2492 C 0.31937 0.66401 0.73708 0.0
C2493 C 0.33731 0.66807 0.742 0.0
C2494 C 0.34614 0.65366 0.7449 0.0
H2495 H 0.36382 0.63064 0.79608 0.0
H2496 H 0.36903 0.64751 0.78006 0.0
H2497 H 0.34714 0.63999 0.78297 0.0
H2498 H 0.31211 0.61657 0.73658 0.0
H2499 H 0.29662 0.64173 0.73134 0.0
H2500 H 0.27557 0.62955 0.59857 0.0
H2501 H 0.24868 0.60689 0.59482 0.0
H2502 H 0.26506 0.57061 0.55101 0.0
H2503 H 0.29189 0.59363 0.5542 0.0
H2504 H 0.23497 0.57645 0.53759 0.0
H2505 H 0.23283 0.55733 0.61147 0.0
H2506 H 0.23738 0.58242 0.61313 0.0
H2507 H 0.25235 0.56917 0.60471 0.0
C2508 C 0.27365 0.61657 0.58844 0.0
C2509 C 0.28582 0.61344 0.57659 0.0
C2510 C 0.25829 0.60351 0.58644 0.0
C2511 C 0.25492 0.58689 0.57284 0.0
C2512 C 0.26742 0.5833 0.56166 0.0
H2513 H 0.15167 0.51926 0.56717 0.0
H2514 H 0.18283 0.52643 0.56919 0.0
C2515 C 0.28274 0.59646 0.56351 0.0
C2516 C 0.23757 0.57467 0.56859 0.0
H2517 H 0.20509 0.5555 0.59102 0.0
C2518 C 0.22857 0.57148 0.54922 0.0
C2519 C 0.22925 0.56778 0.5836 0.0
C2520 C 0.23856 0.56918 0.60433 0.0
C2521 C 0.21116 0.5629 0.54476 0.0
C2522 C 0.20242 0.55788 0.56017 0.0
C2523 C 0.21171 0.5597 0.57925 0.0
C2524 C 0.18352 0.55245 0.55721 0.0
C2525 C 0.20224 0.55971 0.52364 0.0
C2526 C 0.17359 0.56468 0.54982 0.0
C2527 C 0.15587 0.56059 0.54857 0.0
C2528 C 0.14773 0.54432 0.55499 0.0
C2529 C 0.15764 0.53194 0.5622 0.0
C2530 C 0.1754 0.53599 0.56331 0.0
H2531 H 0.21128 0.55752 0.51339 0.0
H2532 H 0.19141 0.54735 0.52059 0.0
H2533 H 0.19724 0.57236 0.52052 0.0
H2534 H 0.17961 0.57777 0.54563 0.0
H2535 H 0.14863 0.57058 0.54333 0.0
H2536 H 0.66386 0.92301 0.78379 0.0
H2537 H 0.68067 0.89871 0.78359 0.0
H2538 H 0.72704 0.94131 0.79645 0.0
H2539 H 0.71003 0.96601 0.79707 0.0
H2540 H 0.70087 0.8869 0.76204 0.0
H2541 H 0.74139 0.9096 0.83536 0.0
H2542 H 0.72349 0.92002 0.82759 0.0
H2543 H 0.74363 0.9273 0.81966 0.0
C2544 C 0.67766 0.92749 0.78673 0.0
C2545 C 0.68529 0.94696 0.79056 0.0
C2546 C 0.68742 0.91328 0.78655 0.0
C2547 C 0.70547 0.91756 0.79029 0.0
C2548 C 0.71325 0.93705 0.79401 0.0
H2549 H 0.78297 0.84378 0.79266 0.0
H2550 H 0.76806 0.87011 0.79367 0.0
C2551 C 0.7034 0.95141 0.79421 0.0
C2552 C 0.71565 0.90156 0.78969 0.0
H2553 H 0.74796 0.88441 0.8152 0.0
C2554 C 0.71111 0.88649 0.77381 0.0
C2555 C 0.72927 0.9004 0.80477 0.0
C2556 C 0.73467 0.91507 0.82291 0.0
C2557 C 0.71958 0.87101 0.77245 0.0
C2558 C 0.73307 0.86973 0.78762 0.0
C2559 C 0.73775 0.88488 0.80342 0.0
C2560 C 0.7424 0.85304 0.78732 0.0
C2561 C 0.71416 0.85642 0.75423 0.0
C2562 C 0.73346 0.83401 0.78379 0.0
C2563 C 0.74209 0.81873 0.78312 0.0
C2564 C 0.76016 0.8216 0.78621 0.0
C2565 C 0.76912 0.84061 0.79016 0.0
C2566 C 0.76048 0.8559 0.79078 0.0
H2567 H 0.70814 0.86225 0.74161 0.0
H2568 H 0.72519 0.85085 0.74994 0.0
H2569 H 0.70454 0.84457 0.7571 0.0
H2570 H 0.71964 0.83083 0.78166 0.0
H2571 H 0.73448 0.80456 0.78007 0.0
H2572 H 0.77113 0.94745 0.55105 0.0
H2573 H 0.74718 0.96382 0.54868 0.0
H2574 H 0.71181 0.91115 0.54569 0.0
H2575 H 0.73553 0.89477 0.54819 0.0
H2576 H 0.71829 0.95793 0.51855 0.0
H2577 H 0.69844 0.94498 0.58958 0.0
H2578 H 0.71891 0.94186 0.58382 0.0
H2579 H 0.69996 0.92407 0.57413 0.0
C2580 C 0.75826 0.93937 0.55001 0.0
C2581 C 0.75532 0.91977 0.54992 0.0
C2582 C 0.74457 0.94875 0.54862 0.0
C2583 C 0.72767 0.93879 0.54731 0.0
C2584 C 0.72472 0.91924 0.5471 0.0
H2585 H 0.62621 0.96499 0.5365 0.0
H2586 H 0.65095 0.95005 0.53916 0.0
C2587 C 0.73835 0.90986 0.54843 0.0
C2588 C 0.71304 0.94864 0.54564 0.0
H2589 H 0.67935 0.95699 0.56755 0.0
C2590 C 0.70985 0.95786 0.52934 0.0
C2591 C 0.70194 0.94847 0.55965 0.0
C2592 C 0.70503 0.93947 0.57788 0.0
C2593 C 0.69567 0.96647 0.52641 0.0
C2594 C 0.68453 0.96625 0.5404 0.0
C2595 C 0.68781 0.95714 0.55677 0.0
C2596 C 0.66942 0.97539 0.53837 0.0
C2597 C 0.69249 0.9752 0.50801 0.0
C2598 C 0.67146 0.99469 0.5372 0.0
C2599 C 0.65729 1.00325 0.53545 0.0
C2600 C 0.64067 0.99279 0.53506 0.0
C2601 C 0.6387 0.97348 0.53643 0.0
C2602 C 0.65289 0.96492 0.53812 0.0
H2603 H 0.69899 0.96948 0.49634 0.0
H2604 H 0.6786 0.97279 0.50213 0.0
H2605 H 0.69762 0.9906 0.51151 0.0
H2606 H 0.68407 1.00322 0.53779 0.0
H2607 H 0.65939 0.01808 0.53423 0.0
H2608 H 0.4017 0.43323 0.71867 0.0
H2609 H 0.38105 0.40455 0.72014 0.0
H2610 H 0.36465 0.43308 0.76965 0.0
H2611 H 0.38501 0.46187 0.76811 0.0
H2612 H 0.37835 0.38339 0.75014 0.0
H2613 H 0.31965 0.4112 0.73241 0.0
H2614 H 0.34035 0.42318 0.72877 0.0
H2615 H 0.33452 0.42542 0.75282 0.0
C2616 C 0.39365 0.43344 0.72982 0.0
C2617 C 0.39493 0.44989 0.74319 0.0
C2618 C 0.38187 0.41702 0.73064 0.0
C2619 C 0.37111 0.41677 0.74478 0.0
C2620 C 0.37254 0.43308 0.75832 0.0
H2621 H 0.31648 0.32392 0.79043 0.0
H2622 H 0.33708 0.35026 0.7835 0.0
C2623 C 0.38427 0.4495 0.75749 0.0
C2624 C 0.35865 0.39937 0.7457 0.0
H2625 H 0.31628 0.38222 0.74538 0.0
C2626 C 0.36476 0.38307 0.74893 0.0
C2627 C 0.34089 0.39887 0.74377 0.0
C2628 C 0.33342 0.41555 0.73904 0.0
C2629 C 0.35364 0.36648 0.75101 0.0
C2630 C 0.33601 0.36635 0.75018 0.0
C2631 C 0.32983 0.38242 0.74623 0.0
C2632 C 0.32384 0.34991 0.75402 0.0
C2633 C 0.36087 0.34926 0.75401 0.0
C2634 C 0.30931 0.34126 0.73995 0.0
C2635 C 0.29749 0.32622 0.74392 0.0
C2636 C 0.30002 0.31965 0.76204 0.0
C2637 C 0.31445 0.32844 0.77617 0.0
C2638 C 0.32624 0.34346 0.77221 0.0
H2639 H 0.37311 0.34982 0.74836 0.0
H2640 H 0.3635 0.34851 0.76998 0.0
H2641 H 0.35172 0.33618 0.7466 0.0
H2642 H 0.30714 0.34615 0.72588 0.0
H2643 H 0.28642 0.3197 0.73283 0.0
H2644 H 0.16332 0.57524 0.28337 0.0
H2645 H 0.18059 0.60632 0.28368 0.0
H2646 H 0.22641 0.58575 0.30004 0.0
H2647 H 0.20898 0.55411 0.29941 0.0
H2648 H 0.2012 0.63168 0.31102 0.0
H2649 H 0.23999 0.61199 0.2555 0.0
H2650 H 0.22165 0.59588 0.25999 0.0
H2651 H 0.24181 0.59976 0.27632 0.0
C2652 C 0.17709 0.57711 0.28703 0.0
C2653 C 0.18457 0.56175 0.29129 0.0
C2654 C 0.18705 0.59516 0.28723 0.0
C2655 C 0.20504 0.5988 0.29159 0.0
C2656 C 0.21265 0.58357 0.29614 0.0
H2657 H 0.26471 0.71769 0.31843 0.0
H2658 H 0.25038 0.68559 0.32078 0.0
C2659 C 0.2026 0.56536 0.29595 0.0
C2660 C 0.21539 0.61854 0.29152 0.0
H2661 H 0.24697 0.6437 0.27105 0.0
C2662 C 0.21126 0.63419 0.3023 0.0
C2663 C 0.22846 0.62232 0.27998 0.0
C2664 C 0.23318 0.60666 0.26713 0.0
C2665 C 0.21959 0.65302 0.30193 0.0
C2666 C 0.23287 0.65679 0.2907 0.0
C2667 C 0.237 0.64116 0.27986 0.0
C2668 C 0.24215 0.67671 0.28943 0.0
C2669 C 0.21354 0.66876 0.31311 0.0
C2670 C 0.24303 0.68285 0.27107 0.0
C2671 C 0.25139 0.70132 0.26968 0.0
C2672 C 0.25936 0.71447 0.28661 0.0
C2673 C 0.25868 0.70826 0.30499 0.0
C2674 C 0.2503 0.68975 0.30637 0.0
H2675 H 0.2004 0.66404 0.31611 0.0
H2676 H 0.22219 0.67368 0.32746 0.0
H2677 H 0.21363 0.68086 0.30488 0.0
H2678 H 0.23703 0.67336 0.25766 0.0
H2679 H 0.25158 0.70528 0.2552 0.0
H2680 H 0.52194 0.70052 0.42757 0.0
H2681 H 0.52454 0.67143 0.44066 0.0
H2682 H 0.49656 0.68652 0.48633 0.0
H2683 H 0.49426 0.71583 0.4736 0.0
H2684 H 0.52381 0.67408 0.50131 0.0
H2685 H 0.48947 0.62345 0.43573 0.0
H2686 H 0.50702 0.63985 0.43034 0.0
H2687 H 0.4891 0.64819 0.43813 0.0
C2688 C 0.51624 0.69762 0.44033 0.0
C2689 C 0.50783 0.71057 0.44946 0.0
C2690 C 0.51763 0.68086 0.44774 0.0
C2691 C 0.51047 0.67648 0.46432 0.0
C2692 C 0.50213 0.68944 0.47348 0.0
H2693 H 0.49965 0.56496 0.50216 0.0
H2694 H 0.49416 0.59371 0.48992 0.0
C2695 C 0.50081 0.70624 0.46615 0.0
C2696 C 0.51224 0.65883 0.47259 0.0
H2697 H 0.50539 0.61091 0.46074 0.0
C2698 C 0.51968 0.66027 0.49243 0.0
C2699 C 0.5066 0.64068 0.46121 0.0
C2700 C 0.49744 0.63788 0.44023 0.0
C2701 C 0.52204 0.64427 0.50101 0.0
C2702 C 0.51721 0.62622 0.48937 0.0
C2703 C 0.50933 0.6247 0.46967 0.0
C2704 C 0.52049 0.60882 0.49723 0.0
C2705 C 0.52944 0.64691 0.52261 0.0
C2706 C 0.53713 0.60758 0.50535 0.0
C2707 C 0.5403 0.59128 0.51256 0.0
C2708 C 0.52693 0.57559 0.51158 0.0
C2709 C 0.51027 0.57673 0.50323 0.0
C2710 C 0.5071 0.59316 0.49615 0.0
H2711 H 0.52727 0.66012 0.53058 0.0
H2712 H 0.52379 0.63493 0.52962 0.0
H2713 H 0.54346 0.64786 0.52435 0.0
H2714 H 0.5478 0.61918 0.50591 0.0
H2715 H 0.55334 0.59091 0.51863 0.0
H2716 H 0.62695 0.28713 0.64131 0.0
H2717 H 0.65432 0.28563 0.66048 0.0
H2718 H 0.63452 0.29632 0.71412 0.0
H2719 H 0.60685 0.29757 0.69494 0.0
H2720 H 0.67716 0.31167 0.68766 0.0
H2721 H 0.65337 0.24936 0.72172 0.0
H2722 H 0.64069 0.25637 0.70143 0.0
H2723 H 0.64254 0.26837 0.72603 0.0
C2724 C 0.62834 0.28917 0.6572 0.0
C2725 C 0.61457 0.29239 0.66654 0.0
C2726 C 0.64407 0.28832 0.66816 0.0
C2727 C 0.6465 0.29054 0.68878 0.0
C2728 C 0.63291 0.29413 0.69822 0.0
H2729 H 0.74412 0.31433 0.76839 0.0
H2730 H 0.71711 0.31554 0.74804 0.0
C2731 C 0.6171 0.29499 0.68723 0.0
C2732 C 0.66333 0.2893 0.70021 0.0
H2733 H 0.68223 0.26516 0.7333 0.0
C2734 C 0.67824 0.30148 0.69762 0.0
C2735 C 0.66488 0.27579 0.71298 0.0
C2736 C 0.64956 0.26159 0.71561 0.0
C2737 C 0.6945 0.30077 0.70766 0.0
C2738 C 0.69598 0.2877 0.72093 0.0
C2739 C 0.68113 0.27528 0.72325 0.0
C2740 C 0.71275 0.28701 0.73285 0.0
C2741 C 0.71001 0.31385 0.70371 0.0
C2742 C 0.71931 0.27049 0.73136 0.0
C2743 C 0.73483 0.26976 0.74306 0.0
C2744 C 0.74397 0.28548 0.75666 0.0
C2745 C 0.73743 0.302 0.75802 0.0
C2746 C 0.722 0.30274 0.74631 0.0
H2747 H 0.70737 0.31905 0.68945 0.0
H2748 H 0.71374 0.32623 0.71551 0.0
H2749 H 0.72101 0.30677 0.70356 0.0
H2750 H 0.7124 0.25813 0.72115 0.0
H2751 H 0.7395 0.2568 0.74172 0.0
H2752 H 0.03534 0.31402 0.94635 0.0
H2753 H 0.04027 0.34695 0.96176 0.0
H2754 H 0.98793 0.33866 0.97101 0.0
H2755 H 0.98302 0.30574 0.9561 0.0
H2756 H 0.02529 0.37477 0.95026 0.0
H2757 H 0.01251 0.36444 0.0247 0.0
H2758 H 0.01546 0.34553 0.00718 0.0
H2759 H 0.99511 0.35241 0.00567 0.0
C2760 C 0.02493 0.31914 0.95188 0.0
C2761 C 0.0088 0.30714 0.95007 0.0
C2762 C 0.02776 0.338 0.96066 0.0
C2763 C 0.01457 0.34529 0.96789 0.0
C2764 C 0.99847 0.33333 0.96607 0.0
H2765 H 1.00013 0.45671 0.01171 0.0
H2766 H 0.99698 0.42311 0.99987 0.0
C2767 C 0.99565 0.31447 0.9574 0.0
C2768 C 0.01736 0.36559 0.97639 0.0
H2769 H 0.01376 0.39545 0.01672 0.0
C2770 C 0.02292 0.37926 0.96487 0.0
C2771 C 0.01424 0.37155 0.99545 0.0
C2772 C 0.00917 0.35772 0.00905 0.0
C2773 C 0.02505 0.3986 0.97166 0.0
C2774 C 0.02171 0.40452 0.9906 0.0
C2775 C 0.01625 0.39091 1.00218 0.0
C2776 C 0.0238 0.42481 0.99857 0.0
C2777 C 0.03045 0.41257 0.95833 0.0
C2778 C 0.03997 0.43688 1.00217 0.0
C2779 C 0.04184 0.45608 0.00902 0.0
C2780 C 0.02756 0.46368 0.01242 0.0
C2781 C 0.01141 0.45143 0.00921 0.0
C2782 C 0.00958 0.43219 1.00245 0.0
H2783 H 0.02882 0.40573 0.94281 0.0
H2784 H 0.02299 0.42385 0.95891 0.0
H2785 H 0.04417 0.41925 0.96329 0.0
H2786 H 0.05117 0.43146 0.99959 0.0
H2787 H 0.05449 0.465 0.01135 0.0
H2788 H 0.02768 0.79404 0.19491 0.0
H2789 H 1.00308 0.79321 0.21207 0.0
H2790 H 0.96872 0.77409 0.1568 0.0
H2791 H 0.99303 0.77456 0.1397 0.0
H2792 H 0.97648 0.81212 0.20806 0.0
H2793 H 0.95054 0.73537 0.18952 0.0
H2794 H 0.97172 0.74604 0.18611 0.0
H2795 H 0.95333 0.74643 0.16824 0.0
C2796 C 0.01488 0.78957 0.18644 0.0
C2797 C 0.0124 0.78422 0.16591 0.0
C2798 C 1.00082 0.78912 0.19626 0.0
C2799 C 0.98398 0.78322 0.18581 0.0
C2800 C 0.98152 0.77821 0.16531 0.0
H2801 H 0.88076 0.77284 0.2127 0.0
H2802 H 0.90613 0.77439 0.19691 0.0
C2803 C 0.99551 0.7786 0.15552 0.0
C2804 C 0.96894 0.78268 0.19612 0.0
H2805 H 0.93225 0.75384 0.20259 0.0
C2806 C 0.96689 0.79933 0.207 0.0
C2807 C 0.95634 0.76602 0.19473 0.0
C2808 C 0.95814 0.74741 0.18418 0.0
C2809 C 0.95245 0.79989 0.21606 0.0
C2810 C 0.93977 0.78328 0.21446 0.0
C2811 C 0.94187 0.7666 0.20371 0.0
C2812 C 0.92434 0.78282 0.22406 0.0
C2813 C 0.95067 0.8184 0.22685 0.0
C2814 C 0.92606 0.78691 0.24459 0.0
C2815 C 0.91159 0.78608 0.25364 0.0
C2816 C 0.89499 0.78104 0.24241 0.0
C2817 C 0.8933 0.77696 0.22182 0.0
C2818 C 0.90781 0.77774 0.21277 0.0
H2819 H 0.95895 0.83054 0.22243 0.0
H2820 H 0.93721 0.82013 0.22413 0.0
H2821 H 0.95456 0.81874 0.24288 0.0
H2822 H 0.93863 0.79057 0.25368 0.0
H2823 H 0.91345 0.78952 0.2695 0.0
H2824 H 0.53814 0.29947 0.16079 0.0
H2825 H 0.53705 0.32435 0.14053 0.0
H2826 H 0.58965 0.3263 0.13424 0.0
H2827 H 0.59081 0.30114 0.15429 0.0
H2828 H 0.5571 0.36076 0.14699 0.0
H2829 H 0.56491 0.31987 0.07723 0.0
H2830 H 0.5597 0.30882 0.09803 0.0
H2831 H 0.58122 0.32092 0.09811 0.0
C2832 C 0.5495 0.30516 0.1551 0.0
C2833 C 0.56455 0.29827 0.15908 0.0
C2834 C 0.54884 0.31938 0.14354 0.0
C2835 C 0.56319 0.32696 0.13569 0.0
C2836 C 0.57834 0.32036 0.13986 0.0
H2837 H 0.57096 0.4145 0.05956 0.0
H2838 H 0.57844 0.39186 0.08094 0.0
C2839 C 0.579 0.30607 0.1514 0.0
C2840 C 0.56218 0.34192 0.12332 0.0
H2841 H 0.56253 0.35141 0.07649 0.0
C2842 C 0.55838 0.35877 0.13161 0.0
C2843 C 0.56395 0.33927 0.10329 0.0
C2844 C 0.56754 0.32121 0.09352 0.0
C2845 C 0.55598 0.37293 0.12028 0.0
C2846 C 0.55723 0.37004 0.10013 0.0
C2847 C 0.5616 0.3535 0.09197 0.0
C2848 C 0.55285 0.3835 0.08705 0.0
C2849 C 0.55197 0.39082 0.12988 0.0
C2850 C 0.53596 0.38596 0.08324 0.0
C2851 C 0.53166 0.39876 0.07109 0.0
C2852 C 0.54419 0.40933 0.06248 0.0
C2853 C 0.56109 0.40666 0.06613 0.0
C2854 C 0.56536 0.39372 0.07824 0.0
H2855 H 0.55569 0.39286 0.14614 0.0
H2856 H 0.55863 0.40326 0.12428 0.0
H2857 H 0.538 0.39012 0.12635 0.0
H2858 H 0.5261 0.378 0.08976 0.0
H2859 H 0.51858 0.40067 0.06875 0.0
H2860 H 0.98333 0.31278 0.34488 0.0
H2861 H 0.95438 0.31081 0.32771 0.0
H2862 H 0.95821 0.26202 0.28848 0.0
H2863 H 0.98732 0.26376 0.30572 0.0
H2864 H 0.94187 0.3105 0.28625 0.0
H2865 H 0.9156 0.24485 0.31442 0.0
H2866 H 0.93623 0.25945 0.32521 0.0
H2867 H 0.93356 0.24481 0.30188 0.0
C2868 C 0.9781 0.30166 0.33255 0.0
C2869 C 0.98756 0.2883 0.32677 0.0
C2870 C 0.96157 0.30062 0.32272 0.0
C2871 C 0.95418 0.28619 0.30699 0.0
C2872 C 0.9637 0.27314 0.30075 0.0
H2873 H 0.84444 0.26112 0.26013 0.0
H2874 H 0.87477 0.26031 0.26286 0.0
C2875 C 0.98031 0.27418 0.31058 0.0
C2876 C 0.93618 0.28454 0.29793 0.0
H2877 H 0.89599 0.25936 0.29707 0.0
C2878 C 0.93182 0.29918 0.28832 0.0
C2879 C 0.92319 0.2697 0.30062 0.0
C2880 C 0.92725 0.25381 0.31117 0.0
C2881 C 0.91467 0.29973 0.28194 0.0
C2882 C 0.90165 0.28546 0.28565 0.0
C2883 C 0.90604 0.2703 0.29432 0.0
C2884 C 0.88347 0.28682 0.28241 0.0
C2885 C 0.91066 0.31574 0.27159 0.0
C2886 C 0.87836 0.30199 0.29255 0.0
C2887 C 0.86105 0.3025 0.29108 0.0
C2888 C 0.84856 0.28774 0.2796 0.0
C2889 C 0.85374 0.27269 0.26918 0.0
C2890 C 0.87106 0.27221 0.27065 0.0
H2891 H 0.92132 0.32161 0.26419 0.0
H2892 H 0.89877 0.31117 0.26048 0.0
H2893 H 0.90885 0.3272 0.28257 0.0
H2894 H 0.88772 0.31317 0.30209 0.0
H2895 H 0.85749 0.31426 0.29932 0.0
H2896 H 0.06039 0.72387 0.61264 0.0
H2897 H 0.05921 0.69783 0.58655 0.0
H2898 H 0.02134 0.66255 0.61119 0.0
H2899 H 0.02221 0.68857 0.63712 0.0
H2900 H 0.06715 0.664 0.59073 0.0
H2901 H 1.00008 0.65344 0.5534 0.0
H2902 H 0.01065 0.6744 0.57044 0.0
H2903 H 1.00152 0.65334 0.57937 0.0
C2904 C 0.05167 0.71062 0.6124 0.0
C2905 C 0.04136 0.70829 0.62694 0.0
C2906 C 0.05102 0.69577 0.59746 0.0
C2907 C 0.03999 0.67836 0.59674 0.0
C2908 C 0.02962 0.67602 0.61118 0.0
H2909 H 0.04365 0.56653 0.55968 0.0
H2910 H 0.04842 0.59932 0.57462 0.0
C2911 C 0.03023 0.69087 0.62609 0.0
C2912 C 0.04014 0.66221 0.58176 0.0
H2913 H 0.01384 0.62713 0.54814 0.0
C2914 C 0.05555 0.65612 0.58116 0.0
C2915 C 0.0251 0.65218 0.56897 0.0
C2916 C 0.00845 0.6588 0.5679 0.0
C2917 C 0.05608 0.63954 0.56904 0.0
C2918 C 0.04074 0.62864 0.55754 0.0
C2919 C 0.02556 0.6354 0.55714 0.0
C2920 C 0.03973 0.60929 0.54764 0.0
C2921 C 0.07299 0.63363 0.56903 0.0
C2922 C 0.03317 0.60394 0.52748 0.0
C2923 C 0.03037 0.58507 0.51886 0.0
C2924 C 0.03391 0.57133 0.53038 0.0
C2925 C 0.04093 0.57683 0.5504 0.0
C2926 C 0.04375 0.59561 0.55895 0.0
H2927 H 0.08382 0.64602 0.57269 0.0
H2928 H 0.0747 0.6244 0.58038 0.0
H2929 H 0.07355 0.62574 0.55454 0.0
H2930 H 0.02984 0.61429 0.51855 0.0
H2931 H 0.02489 0.58116 0.50341 0.0
H2932 H 0.58106 0.84389 0.84345 0.0
H2933 H 0.6046 0.84146 0.82536 0.0
H2934 H 0.57942 0.78469 0.79944 0.0
H2935 H 0.55584 0.78707 0.81709 0.0
H2936 H 0.62475 0.81621 0.83122 0.0
H2937 H 0.5959 0.80517 0.75258 0.0
H2938 H 0.58551 0.81444 0.77177 0.0
H2939 H 0.58391 0.78945 0.76586 0.0
C2940 C 0.58036 0.83105 0.83355 0.0
C2941 C 0.56664 0.81563 0.83182 0.0
C2942 C 0.5938 0.8297 0.82321 0.0
C2943 C 0.59365 0.81299 0.81085 0.0
C2944 C 0.57962 0.79788 0.8085 0.0
H2945 H 0.66055 0.74917 0.76692 0.0
H2946 H 0.63649 0.76322 0.77415 0.0
C2947 C 0.56622 0.79921 0.8188 0.0
C2948 C 0.60901 0.81025 0.80252 0.0
H2949 H 0.62191 0.79358 0.76039 0.0
C2950 C 0.62427 0.81169 0.81567 0.0
C2951 C 0.6083 0.80427 0.78224 0.0
C2952 C 0.59255 0.80342 0.76729 0.0
C2953 C 0.63853 0.80622 0.80929 0.0
C2954 C 0.63755 0.79942 0.78914 0.0
C2955 C 0.62256 0.79874 0.77583 0.0
C2956 C 0.65154 0.79162 0.78205 0.0
C2957 C 0.65418 0.80676 0.82432 0.0
C2958 C 0.66779 0.80307 0.78346 0.0
C2959 C 0.68153 0.79508 0.77942 0.0
C2960 C 0.6792 0.77553 0.77376 0.0
C2961 C 0.66269 0.76427 0.77119 0.0
C2962 C 0.64897 0.77227 0.77533 0.0
H2963 H 0.65165 0.80902 0.83962 0.0
H2964 H 0.65883 0.79345 0.822 0.0
H2965 H 0.66456 0.81847 0.82273 0.0
H2966 H 0.66994 0.81808 0.7883 0.0
H2967 H 0.69406 0.80413 0.78115 0.0
H2968 H 0.48077 0.53827 0.72599 0.0
H2969 H 0.49245 0.54023 0.69555 0.0
H2970 H 0.44883 0.49891 0.66375 0.0
H2971 H 0.43706 0.49672 0.6941 0.0
H2972 H 0.49864 0.5077 0.66795 0.0
H2973 H 0.45238 0.54783 0.63525 0.0
H2974 H 0.45705 0.54749 0.6614 0.0
H2975 H 0.44391 0.52729 0.64544 0.0
C2976 C 0.47369 0.52952 0.71256 0.0
C2977 C 0.45796 0.51738 0.71246 0.0
C2978 C 0.48038 0.53066 0.6952 0.0
C2979 C 0.47138 0.51986 0.67745 0.0
C2980 C 0.45585 0.50748 0.67732 0.0
H2981 H 0.5083 0.50307 0.56625 0.0
H2982 H 0.49302 0.49888 0.59391 0.0
C2983 C 0.4492 0.5062 0.69469 0.0
C2984 C 0.47825 0.52165 0.65904 0.0
H2985 H 0.47241 0.53956 0.61602 0.0
C2986 C 0.49289 0.51457 0.65654 0.0
C2987 C 0.47073 0.53075 0.64432 0.0
C2988 C 0.4552 0.53891 0.64664 0.0
C2989 C 0.50022 0.51634 0.63958 0.0
C2990 C 0.49266 0.52538 0.62482 0.0
C2991 C 0.47805 0.53251 0.62734 0.0
C2992 C 0.50028 0.52818 0.60704 0.0
C2993 C 0.51618 0.50887 0.63769 0.0
C2994 C 0.50891 0.54616 0.60501 0.0
C2995 C 0.51768 0.54859 0.5893 0.0
C2996 C 0.51784 0.53308 0.57534 0.0
C2997 C 0.50844 0.51526 0.57685 0.0
C2998 C 0.49976 0.51282 0.59264 0.0
H2999 H 0.52187 0.50483 0.65167 0.0
H3000 H 0.51301 0.49625 0.62618 0.0
H3001 H 0.5259 0.51956 0.63311 0.0
H3002 H 0.50937 0.55817 0.61598 0.0
H3003 H 0.52477 0.56248 0.58841 0.0
H3004 H 0.80014 0.16782 0.99901 0.0
H3005 H 0.7876 0.18539 0.97524 0.0
H3006 H 0.74883 0.193 0.01022 0.0
H3007 H 0.7613 0.17523 0.03429 0.0
H3008 H 0.73766 0.18287 0.96606 0.0
H3009 H 0.79187 0.24393 0.99052 0.0
H3010 H 0.79846 0.22192 0.9859 0.0
H3011 H 0.78662 0.22584 0.00546 0.0
C3012 C 0.78886 0.17306 1.00164 0.0
C3013 C 0.78181 0.17031 0.01865 0.0
C3014 C 0.78173 0.1831 0.98804 0.0
C3015 C 0.76748 0.19065 0.99119 0.0
C3016 C 0.75989 0.1873 0.00766 0.0
H3017 H 0.75758 0.27376 0.91406 0.0
H3018 H 0.75317 0.25889 0.9429 0.0
C3019 C 0.76704 0.17719 0.02136 0.0
C3020 C 0.76129 0.20278 0.97754 0.0
H3021 H 0.77578 0.24209 0.95835 0.0
C3022 C 0.74575 0.19605 0.96456 0.0
C3023 C 0.77168 0.22014 0.976 0.0
C3024 C 0.78802 0.22852 0.99034 0.0
C3025 C 0.741 0.20561 0.94899 0.0
C3026 C 0.75229 0.22201 0.94626 0.0
C3027 C 0.76714 0.22945 0.96027 0.0
C3028 C 0.75032 0.23048 0.92797 0.0
C3029 C 0.72417 0.19779 0.9354 0.0
C3030 C 0.74949 0.21942 0.90976 0.0
C3031 C 0.75166 0.22786 0.8931 0.0
C3032 C 0.75511 0.24758 0.89442 0.0
C3033 C 0.75483 0.25854 0.9124 0.0
C3034 C 0.75239 0.25006 0.92898 0.0
H3035 H 0.71451 0.19073 0.94345 0.0
H3036 H 0.71908 0.20896 0.92848 0.0
H3037 H 0.72599 0.18705 0.92364 0.0
H3038 H 0.7483 0.20433 0.90863 0.0
H3039 H 0.75144 0.21896 0.8794 0.0
H3040 H 0.14586 0.4996 0.22154 0.0
H3041 H 0.13211 0.50278 0.18835 0.0
H3042 H 0.08633 0.50947 0.21082 0.0
H3043 H 0.09996 0.50678 0.24366 0.0
H3044 H 0.10426 0.48413 0.16162 0.0
H3045 H 0.09257 0.55477 0.18421 0.0
H3046 H 0.10595 0.54379 0.20023 0.0
H3047 H 0.08302 0.53819 0.19843 0.0
C3048 C 0.13286 0.50172 0.21943 0.0
C3049 C 0.12423 0.50308 0.23567 0.0
C3050 C 0.12493 0.50358 0.20031 0.0
C3051 C 0.10814 0.50693 0.19675 0.0
C3052 C 0.0994 0.50758 0.21286 0.0
H3053 H 0.02968 0.51869 0.10136 0.0
H3054 H 0.04777 0.51589 0.13176 0.0
C3055 C 0.10728 0.50584 0.23184 0.0
C3056 C 0.0996 0.50972 0.17649 0.0
H3057 H 0.07683 0.53845 0.15314 0.0
C3058 C 0.09846 0.49616 0.15981 0.0
C3059 C 0.09196 0.52542 0.17358 0.0
C3060 C 0.09358 0.54146 0.19002 0.0
C3061 C 0.08943 0.4974 0.14097 0.0
C3062 C 0.0813 0.51278 0.13829 0.0
C3063 C 0.08282 0.52654 0.15486 0.0
C3064 C 0.0704 0.51445 0.11894 0.0
C3065 C 0.08811 0.48177 0.12423 0.0
C3066 C 0.0768 0.51488 0.10105 0.0
C3067 C 0.06632 0.51664 0.08336 0.0
C3068 C 0.04908 0.51801 0.08297 0.0
C3069 C 0.04283 0.51769 0.10088 0.0
C3070 C 0.05325 0.51608 0.11845 0.0
H3071 H 0.09151 0.469 0.12951 0.0
H3072 H 0.07496 0.4779 0.11553 0.0
H3073 H 0.09705 0.4866 0.11432 0.0
H3074 H 0.09 0.51404 0.10074 0.0
H3075 H 0.07169 0.51676 0.06998 0.0
H3076 H 0.77935 0.86578 0.49558 0.0
H3077 H 0.77397 0.84839 0.4621 0.0
H3078 H 0.82745 0.8467 0.467 0.0
H3079 H 0.83288 0.86364 0.50045 0.0
H3080 H 0.78696 0.85884 0.43025 0.0
H3081 H 0.80559 0.79244 0.44587 0.0
H3082 H 0.80203 0.80961 0.46491 0.0
H3083 H 0.82212 0.81269 0.45614 0.0
C3084 C 0.78993 0.86149 0.48962 0.0
C3085 C 0.80654 0.86605 0.50078 0.0
C3086 C 0.78683 0.85157 0.47046 0.0
C3087 C 0.80024 0.84594 0.4621 0.0
C3088 C 0.8168 0.85043 0.47325 0.0
H3089 H 0.81819 0.8021 0.34808 0.0
H3090 H 0.81957 0.81508 0.3825 0.0
C3091 C 0.8199 0.86026 0.49239 0.0
C3092 C 0.79719 0.83631 0.44138 0.0
H3093 H 0.80346 0.79787 0.41239 0.0
C3094 C 0.79036 0.84539 0.42637 0.0
C3095 C 0.80163 0.81875 0.43627 0.0
C3096 C 0.80808 0.80771 0.45166 0.0
C3097 C 0.78843 0.83774 0.40643 0.0
C3098 C 0.7933 0.82044 0.40134 0.0
C3099 C 0.79982 0.81118 0.41632 0.0
C3100 C 0.79221 0.81205 0.38052 0.0
C3101 C 0.78174 0.84852 0.39091 0.0
C3102 C 0.77633 0.80575 0.36802 0.0
C3103 C 0.77547 0.79825 0.3483 0.0
C3104 C 0.7905 0.79692 0.34068 0.0
C3105 C 0.80636 0.80297 0.35337 0.0
C3106 C 0.80719 0.81038 0.37309 0.0
H3107 H 0.78177 0.86325 0.3971 0.0
H3108 H 0.78952 0.84874 0.37899 0.0
H3109 H 0.76839 0.84147 0.38428 0.0
H3110 H 0.7646 0.80664 0.37353 0.0
H3111 H 0.76303 0.79366 0.33902 0.0
H3112 H 0.45898 0.47766 0.81129 0.0
H3113 H 0.47453 0.48561 0.84506 0.0
H3114 H 0.47362 0.54418 0.84388 0.0
H3115 H 0.45779 0.53633 0.81016 0.0
H3116 H 0.50587 0.50986 0.86117 0.0
H3117 H 0.45225 0.53325 0.8922 0.0
H3118 H 0.44938 0.52036 0.86772 0.0
H3119 H 0.4591 0.545 0.87261 0.0
C3120 C 0.46213 0.49225 0.81816 0.0
C3121 C 0.457 0.50633 0.80807 0.0
C3122 C 0.47104 0.49677 0.83746 0.0
C3123 C 0.47498 0.51544 0.84708 0.0
C3124 C 0.47039 0.52963 0.83687 0.0
H3125 H 0.51968 0.55452 0.97197 0.0
H3126 H 0.50984 0.55482 0.93694 0.0
C3127 C 0.46142 0.52512 0.81756 0.0
C3128 C 0.48362 0.51982 0.86791 0.0
H3129 H 0.47759 0.53474 0.91437 0.0
C3130 C 0.49975 0.51543 0.87279 0.0
C3131 C 0.47564 0.52719 0.88305 0.0
C3132 C 0.45808 0.53161 0.87875 0.0
C3133 C 0.50794 0.51784 0.89242 0.0
C3134 C 0.49969 0.52456 0.90757 0.0
C3135 C 0.48388 0.52963 0.90269 0.0
C3136 C 0.50646 0.52474 0.92858 0.0
C3137 C 0.52529 0.51296 0.89682 0.0
C3138 C 0.50766 0.50773 0.93544 0.0
C3139 C 0.51315 0.50748 0.95535 0.0
C3140 C 0.51755 0.52426 0.96888 0.0
C3141 C 0.51645 0.54135 0.96195 0.0
C3142 C 0.51083 0.54156 0.94196 0.0
H3143 H 0.53196 0.51342 0.88394 0.0
H3144 H 0.5335 0.52272 0.90956 0.0
H3145 H 0.52369 0.49846 0.90048 0.0
H3146 H 0.50403 0.49455 0.92542 0.0
H3147 H 0.51383 0.49404 0.96011 0.0
H3148 H 0.81341 0.21702 0.07877 0.0
H3149 H 0.81131 0.23746 0.10829 0.0
H3150 H 0.8359 0.20284 0.14433 0.0
H3151 H 0.8372 0.18171 0.11472 0.0
H3152 H 0.80946 0.20945 0.15806 0.0
H3153 H 0.84497 0.27748 0.14473 0.0
H3154 H 0.82799 0.26761 0.12449 0.0
H3155 H 0.84522 0.25553 0.12998 0.0
C3156 C 0.81863 0.21393 0.09297 0.0
C3157 C 0.82552 0.19782 0.09447 0.0
C3158 C 0.81753 0.22572 0.10986 0.0
C3159 C 0.82376 0.22194 0.12856 0.0
C3160 C 0.83107 0.20609 0.13006 0.0
H3161 H 0.8281 0.30087 0.23446 0.0
H3162 H 0.83507 0.28225 0.2063 0.0
C3163 C 0.83184 0.19406 0.11316 0.0
C3164 C 0.8214 0.23367 0.1465 0.0
H3165 H 0.8257 0.27913 0.16803 0.0
C3166 C 0.81321 0.22468 0.16035 0.0
C3167 C 0.82658 0.25353 0.14974 0.0
C3168 C 0.83685 0.26405 0.13654 0.0
C3169 C 0.80958 0.235 0.17697 0.0
C3170 C 0.81357 0.25489 0.17936 0.0
C3171 C 0.82228 0.26388 0.16592 0.0
C3172 C 0.8091 0.26664 0.19591 0.0
C3173 C 0.8018 0.22447 0.19197 0.0
C3174 C 0.79211 0.26441 0.19912 0.0
C3175 C 0.78814 0.27489 0.21534 0.0
C3176 C 0.80106 0.28799 0.2283 0.0
C3177 C 0.8179 0.29089 0.22457 0.0
C3178 C 0.8219 0.28022 0.20855 0.0
H3179 H 0.80455 0.21011 0.19122 0.0
H3180 H 0.8067 0.23208 0.20713 0.0
H3181 H 0.78771 0.22296 0.18898 0.0
H3182 H 0.78195 0.2544 0.18922 0.0
H3183 H 0.77507 0.27255 0.21795 0.0
H3184 H 0.11424 0.49683 0.32746 0.0
H3185 H 0.09634 0.49883 0.35331 0.0
H3186 H 0.14171 0.5191 0.39705 0.0
H3187 H 0.15936 0.51753 0.37167 0.0
H3188 H 0.09217 0.48289 0.38607 0.0
H3189 H 0.11661 0.55863 0.41249 0.0
H3190 H 0.12135 0.54721 0.3901 0.0
H3191 H 0.13365 0.54606 0.41356 0.0
C3192 C 0.12044 0.50179 0.34256 0.0
C3193 C 0.13849 0.50717 0.34707 0.0
C3194 C 0.11011 0.50294 0.35751 0.0
C3195 C 0.11737 0.50965 0.37754 0.0
C3196 C 0.13539 0.5145 0.38196 0.0
H3197 H 0.08353 0.52715 0.49339 0.0
H3198 H 0.09924 0.52464 0.46582 0.0
C3199 C 0.14562 0.51341 0.36717 0.0
C3200 C 0.10649 0.51138 0.39387 0.0
H3201 H 0.10114 0.54149 0.43364 0.0
C3202 C 0.09409 0.49583 0.39629 0.0
C3203 C 0.10865 0.52813 0.40765 0.0
C3204 C 0.12065 0.546 0.40573 0.0
C3205 C 0.08449 0.49632 0.41198 0.0
C3206 C 0.08685 0.51299 0.42592 0.0
C3207 C 0.09913 0.52858 0.42337 0.0
C3208 C 0.0769 0.51457 0.44313 0.0
C3209 C 0.07229 0.47858 0.41384 0.0
C3210 C 0.05882 0.51016 0.44022 0.0
C3211 C 0.04971 0.51168 0.45615 0.0
C3212 C 0.05821 0.51777 0.47581 0.0
C3213 C 0.0763 0.52241 0.4787 0.0
C3214 C 0.0854 0.52096 0.46274 0.0
H3215 H 0.07559 0.46588 0.40615 0.0
H3216 H 0.07225 0.47693 0.4295 0.0
H3217 H 0.05917 0.47923 0.40702 0.0
H3218 H 0.05159 0.50569 0.42549 0.0
H3219 H 0.03588 0.50801 0.45297 0.0
H3220 H 0.79022 0.83405 0.57913 0.0
H3221 H 0.78993 0.81911 0.60869 0.0
H3222 H 0.80923 0.87323 0.64485 0.0
H3223 H 0.80943 0.88837 0.61527 0.0
H3224 H 0.81675 0.81894 0.63922 0.0
H3225 H 0.76675 0.852 0.66747 0.0
H3226 H 0.77071 0.85228 0.64262 0.0
H3227 H 0.78476 0.86817 0.66261 0.0
C3228 C 0.79439 0.84284 0.59335 0.0
C3229 C 0.79976 0.86247 0.59476 0.0
C3230 C 0.79424 0.83423 0.61027 0.0
C3231 C 0.79933 0.84503 0.62905 0.0
C3232 C 0.80494 0.86461 0.63055 0.0
H3233 H 0.79791 0.81305 0.74644 0.0
H3234 H 0.80287 0.83022 0.71894 0.0
C3235 C 0.80513 0.87325 0.6136 0.0
C3236 C 0.79878 0.83567 0.64694 0.0
H3237 H 0.77956 0.83288 0.68749 0.0
C3238 C 0.80863 0.82201 0.64979 0.0
C3239 C 0.78823 0.83968 0.6608 0.0
C3240 C 0.77688 0.85371 0.65822 0.0
C3241 C 0.80829 0.81234 0.66609 0.0
C3242 C 0.79751 0.8161 0.67977 0.0
C3243 C 0.78784 0.82996 0.67706 0.0
C3244 C 0.79564 0.80547 0.69665 0.0
C3245 C 0.81971 0.79838 0.66864 0.0
C3246 C 0.78998 0.7858 0.6934 0.0
C3247 C 0.78723 0.77596 0.70912 0.0
C3248 C 0.78991 0.78557 0.72844 0.0
C3249 C 0.79581 0.80522 0.73174 0.0
C3250 C 0.79858 0.81506 0.71601 0.0
H3251 H 0.83073 0.80133 0.66079 0.0
H3252 H 0.82468 0.79853 0.68442 0.0
H3253 H 0.81225 0.78403 0.66239 0.0
H3254 H 0.78723 0.77808 0.67861 0.0
H3255 H 0.78257 0.76085 0.70606 0.0
H3256 H 0.71854 0.43364 0.47559 0.0
H3257 H 0.70678 0.46053 0.48661 0.0
H3258 H 0.74797 0.47718 0.53632 0.0
H3259 H 0.75948 0.44976 0.52573 0.0
H3260 H 0.71902 0.47316 0.5484 0.0
H3261 H 0.7145 0.51597 0.48888 0.0
H3262 H 0.70543 0.49186 0.47889 0.0
H3263 H 0.72784 0.49875 0.4895 0.0
C3264 C 0.72541 0.44333 0.48853 0.0
C3265 C 0.73979 0.43946 0.49995 0.0
C3266 C 0.71874 0.45885 0.49474 0.0
C3267 C 0.72655 0.47101 0.51224 0.0
C3268 C 0.74174 0.468 0.52277 0.0
H3269 H 0.66234 0.54996 0.54626 0.0
H3270 H 0.68845 0.53944 0.5403 0.0
C3271 C 0.74829 0.45233 0.51671 0.0
C3272 C 0.71721 0.48453 0.52112 0.0
H3273 H 0.69193 0.51532 0.50922 0.0
C3274 C 0.71349 0.48277 0.54001 0.0
C3275 C 0.7102 0.49736 0.51044 0.0
C3276 C 0.71489 0.50123 0.4909 0.0
C3277 C 0.70184 0.49224 0.54776 0.0
C3278 C 0.69336 0.50335 0.53611 0.0
C3279 C 0.69817 0.50645 0.51798 0.0
C3280 C 0.67827 0.51015 0.54147 0.0
C3281 C 0.69833 0.48974 0.56811 0.0
C3282 C 0.66394 0.49717 0.54412 0.0
C3283 C 0.64913 0.50312 0.54769 0.0
C3284 C 0.64825 0.52217 0.54844 0.0
C3285 C 0.66271 0.53522 0.54604 0.0
C3286 C 0.67758 0.52924 0.54251 0.0
H3287 H 0.70973 0.48705 0.57746 0.0
H3288 H 0.69459 0.50231 0.57545 0.0
H3289 H 0.68775 0.47736 0.56703 0.0
H3290 H 0.66405 0.4823 0.54291 0.0
H3291 H 0.63827 0.49276 0.54963 0.0
H3292 H 0.20795 0.11638 0.48733 0.0
H3293 H 0.17791 0.10201 0.48718 0.0
H3294 H 0.19201 0.08636 0.54414 0.0
H3295 H 0.22184 0.10086 0.54454 0.0
H3296 H 0.16224 0.06597 0.48892 0.0
H3297 H 0.15358 0.11281 0.55365 0.0
H3298 H 0.17181 0.11794 0.54149 0.0
H3299 H 0.17137 0.10173 0.559 0.0
C3300 C 0.20466 0.10988 0.49983 0.0
C3301 C 0.21738 0.10991 0.51599 0.0
C3302 C 0.18745 0.10168 0.49974 0.0
C3303 C 0.18256 0.09343 0.51585 0.0
C3304 C 0.19531 0.09307 0.53177 0.0
H3305 H 0.09343 0.00977 0.52124 0.0
H3306 H 0.12144 0.02805 0.51886 0.0
C3307 C 0.21245 0.10127 0.53189 0.0
C3308 C 0.16427 0.08472 0.5159 0.0
H3309 H 0.13222 0.08444 0.54321 0.0
C3310 C 0.15565 0.07015 0.50071 0.0
C3311 C 0.15544 0.09033 0.53106 0.0
C3312 C 0.16345 0.10669 0.54711 0.0
C3313 C 0.13881 0.06056 0.50069 0.0
C3314 C 0.13037 0.0654 0.51648 0.0
C3315 C 0.13871 0.0805 0.53123 0.0
C3316 C 0.11321 0.05449 0.51831 0.0
C3317 C 0.1302 0.04534 0.48367 0.0
C3318 C 0.09924 0.06329 0.51949 0.0
C3319 C 0.08314 0.05281 0.52104 0.0
C3320 C 0.08076 0.03338 0.52163 0.0
C3321 C 0.09481 0.02471 0.52076 0.0
C3322 C 0.11084 0.03513 0.51925 0.0
H3323 H 0.13593 0.04735 0.47029 0.0
H3324 H 0.13188 0.03148 0.48761 0.0
H3325 H 0.11628 0.04501 0.48013 0.0
H3326 H 0.10072 0.07821 0.51888 0.0
H3327 H 0.07251 0.05981 0.52133 0.0
H3328 H 0.18276 1.00382 0.81969 0.0
H3329 H 0.1982 0.97822 0.82185 0.0
H3330 H 0.1778 0.95607 0.76093 0.0
H3331 H 0.16265 0.98183 0.75849 0.0
H3332 H 0.18555 0.94042 0.81625 0.0
H3333 H 0.22837 0.95795 0.76264 0.0
H3334 H 0.2162 0.97411 0.77235 0.0
H3335 H 0.20614 0.95527 0.75266 0.0
C3336 C 0.18166 0.99358 0.80671 0.0
C3337 C 0.17155 0.99492 0.78888 0.0
C3338 C 0.19047 0.97895 0.80798 0.0
C3339 C 0.18937 0.96541 0.79147 0.0
C3340 C 0.17918 0.96662 0.77372 0.0
H3341 H 0.22343 0.8602 0.77342 0.0
H3342 H 0.20845 0.8862 0.77141 0.0
C3343 C 0.17044 0.9813 0.77239 0.0
C3344 C 0.19844 0.94969 0.79303 0.0
H3345 H 0.2275 0.92813 0.77336 0.0
C3346 C 0.1948 0.93781 0.80696 0.0
C3347 C 0.21053 0.94634 0.78091 0.0
C3348 C 0.21569 0.95919 0.76643 0.0
C3349 C 0.20273 0.92248 0.80886 0.0
C3350 C 0.21458 0.919 0.79655 0.0
C3351 C 0.21829 0.93085 0.78267 0.0
C3352 C 0.22344 0.90321 0.79804 0.0
C3353 C 0.19829 0.9099 0.82381 0.0
C3354 C 0.23683 0.9043 0.81367 0.0
C3355 C 0.24559 0.88962 0.81474 0.0
C3356 C 0.24106 0.87353 0.80022 0.0
C3357 C 0.22745 0.87247 0.78469 0.0
C3358 C 0.2188 0.88724 0.78356 0.0
H3359 H 0.1873 0.91311 0.83054 0.0
H3360 H 0.19516 0.89491 0.81686 0.0
H3361 H 0.20952 0.91177 0.83568 0.0
H3362 H 0.24065 0.91665 0.82487 0.0
H3363 H 0.25617 0.89109 0.82671 0.0
H3364 H 0.28956 0.93789 0.02824 0.0
H3365 H 0.31575 0.95992 0.02647 0.0
H3366 H 0.30438 0.94831 0.96311 0.0
H3367 H 0.27833 0.92581 0.96475 0.0
H3368 H 0.33482 0.94203 0.97685 0.0
H3369 H 0.33012 0.0119 0.0131 0.0
H3370 H 0.3252 0.99409 0.02818 0.0
H3371 H 0.31165 0.99293 0.0049 0.0
C3372 C 0.29239 0.94036 0.0139 0.0
C3373 C 0.28199 0.92993 0.99663 0.0
C3374 C 0.30732 0.95312 0.01292 0.0
C3375 C 0.31197 0.9559 0.99466 0.0
C3376 C 0.30101 0.94641 0.97736 0.0
H3377 H 0.41122 0.02305 0.98249 0.0
H3378 H 0.38027 0.01233 0.98052 0.0
C3379 C 0.28615 0.93353 0.97833 0.0
C3380 C 0.32938 0.96623 0.99373 0.0
H3381 H 0.35883 1.00686 0.01199 0.0
C3382 C 0.33994 0.95634 0.98422 0.0
C3383 C 0.33606 0.98493 1.00327 0.0
C3384 C 0.32509 0.99663 0.01276 0.0
C3385 C 0.35719 0.96427 0.98478 0.0
C3386 C 0.36414 0.98246 0.99541 0.0
C3387 C 0.35346 0.99279 1.0041 0.0
C3388 C 0.38267 0.9904 0.99831 0.0
C3389 C 0.36796 0.95297 0.97432 0.0
C3390 C 0.39413 0.9819 0.00939 0.0
C3391 C 0.4117 0.98786 0.01045 0.0
C3392 C 0.41815 1.00251 1.00048 0.0
C3393 C 0.40662 0.01157 0.9901 0.0
C3394 C 0.38898 1.00558 0.98907 0.0
H3395 H 0.35995 0.94151 0.96295 0.0
H3396 H 0.37705 0.96211 0.96721 0.0
H3397 H 0.37551 0.94646 0.98518 0.0
H3398 H 0.38943 0.97023 0.01672 0.0
H3399 H 0.42019 0.98043 0.01838 0.0
H3400 H 0.87403 0.59123 0.78854 0.0
H3401 H 0.85902 0.61762 0.79243 0.0
H3402 H 0.86914 0.63141 0.7363 0.0
H3403 H 0.88378 0.60539 0.73229 0.0
H3404 H 0.8679 0.65647 0.79446 0.0
H3405 H 0.81886 0.63043 0.72797 0.0
H3406 H 0.83271 0.61594 0.73788 0.0
H3407 H 0.8401 0.63277 0.72253 0.0
C3408 C 0.87299 0.59976 0.77693 0.0
C3409 C 0.88025 0.59563 0.75997 0.0
C3410 C 0.86436 0.61508 0.7792 0.0
C3411 C 0.86237 0.62679 0.76452 0.0
C3412 C 0.86981 0.62271 0.74779 0.0
H3413 H 0.83622 0.74135 0.77913 0.0
H3414 H 0.8507 0.71473 0.77735 0.0
C3415 C 0.87843 0.60761 0.74557 0.0
C3416 C 0.85286 0.64323 0.76646 0.0
H3417 H 0.8214 0.66234 0.74213 0.0
C3418 C 0.85769 0.65759 0.78298 0.0
C3419 C 0.83923 0.64518 0.75183 0.0
C3420 C 0.83228 0.63018 0.73415 0.0
C3421 C 0.84982 0.67355 0.78498 0.0
C3422 C 0.83662 0.67585 0.76997 0.0
C3423 C 0.83153 0.66122 0.75371 0.0
C3424 C 0.82767 0.69283 0.77096 0.0
C3425 C 0.85559 0.6876 0.80359 0.0
C3426 C 0.80962 0.69027 0.76731 0.0
C3427 C 0.80122 0.70572 0.76815 0.0
C3428 C 0.81039 0.72463 0.77255 0.0
C3429 C 0.82846 0.72724 0.77589 0.0
C3430 C 0.83687 0.71177 0.77504 0.0
H3431 H 0.86149 0.68121 0.81585 0.0
H3432 H 0.86538 0.69943 0.80101 0.0
H3433 H 0.84475 0.69332 0.80821 0.0
H3434 H 0.80186 0.67615 0.764 0.0
H3435 H 0.78737 0.70275 0.76544 0.0
H3436 H 0.83043 0.65217 0.03126 0.0
H3437 H 0.85387 0.63539 0.03402 0.0
H3438 H 0.81935 0.58427 1.00437 0.0
H3439 H 0.7957 0.60105 1.00141 0.0
H3440 H 0.85679 0.60382 0.05281 0.0
H3441 H 0.8592 0.5886 0.97314 0.0
H3442 H 0.84803 0.60581 0.9829 0.0
H3443 H 0.83863 0.58116 0.9799 0.0
C3444 C 0.82776 0.63737 0.02522 0.0
C3445 C 0.81112 0.628 0.01602 0.0
C3446 C 0.84122 0.62777 0.02687 0.0
C3447 C 0.83847 0.60861 0.01923 0.0
C3448 C 0.82188 0.59913 0.0101 0.0
H3449 H 0.90874 0.53146 0.0133 0.0
H3450 H 0.88364 0.54569 0.01122 0.0
C3451 C 0.80833 0.60873 0.0085 0.0
C3452 C 0.853 0.59863 0.0212 0.0
H3453 H 0.87778 0.576 0.9948 0.0
C3454 C 0.86138 0.59773 0.04012 0.0
C3455 C 0.85898 0.59062 0.00466 0.0
C3456 C 0.85088 0.59167 0.98398 0.0
C3457 C 0.87544 0.58894 0.04297 0.0
C3458 C 0.88163 0.58121 0.02644 0.0
C3459 C 0.87311 0.58194 0.0075 0.0
C3460 C 0.89694 0.5724 0.02841 0.0
C3461 C 0.88331 0.58773 0.0637 0.0
C3462 C 0.9129 0.58263 0.03871 0.0
C3463 C 0.92731 0.57442 0.04016 0.0
C3464 C 0.92616 0.5558 0.03118 0.0
C3465 C 0.91014 0.54566 0.02078 0.0
C3466 C 0.89575 0.55386 0.0194 0.0
H3467 H 0.87419 0.58905 0.07406 0.0
H3468 H 0.88755 0.57422 0.06451 0.0
H3469 H 0.89463 0.59942 0.0687 0.0
H3470 H 0.91431 0.59709 0.04544 0.0
H3471 H 0.93934 0.58269 0.04837 0.0
H3472 H 0.19221 0.09093 0.82465 0.0
H3473 H 0.21353 0.12007 0.82718 0.0
H3474 H 0.17843 0.14109 0.78696 0.0
H3475 H 0.15694 0.11231 0.78478 0.0
H3476 H 0.22851 0.13328 0.79849 0.0
H3477 H 0.19475 0.18615 0.82906 0.0
H3478 H 0.18745 0.16125 0.82882 0.0
H3479 H 0.18221 0.17174 0.8072 0.0
C3480 C 0.18895 0.10187 0.81655 0.0
C3481 C 0.17286 0.09932 0.80454 0.0
C3482 C 0.20115 0.11852 0.81802 0.0
C3483 C 0.19749 0.13292 0.80752 0.0
C3484 C 0.18139 0.13043 0.79564 0.0
H3485 H 0.25424 0.22592 0.76616 0.0
H3486 H 0.23371 0.19926 0.77273 0.0
C3487 C 0.16915 0.11388 0.79429 0.0
C3488 C 0.2109 0.1499 0.80777 0.0
H3489 H 0.21856 0.19794 0.8136 0.0
C3490 C 0.22644 0.14742 0.80213 0.0
C3491 C 0.20822 0.16836 0.81257 0.0
C3492 C 0.19232 0.17205 0.81995 0.0
C3493 C 0.23904 0.16286 0.80036 0.0
C3494 C 0.23601 0.1812 0.80432 0.0
C3495 C 0.22074 0.18379 0.8105 0.0
C3496 C 0.24818 0.19775 0.80098 0.0
C3497 C 0.2553 0.15956 0.79362 0.0
C3498 C 0.26303 0.2057 0.81479 0.0
C3499 C 0.27467 0.2211 0.81119 0.0
C3500 C 0.27158 0.2287 0.79373 0.0
C3501 C 0.25673 0.22062 0.77993 0.0
C3502 C 0.24506 0.20535 0.78359 0.0
H3503 H 0.25542 0.14436 0.79036 0.0
H3504 H 0.25691 0.16607 0.78021 0.0
H3505 H 0.26644 0.16642 0.8052 0.0
H3506 H 0.26561 0.19993 0.82828 0.0
H3507 H 0.28606 0.22707 0.82202 0.0
H3508 H 0.38608 0.96453 0.23563 0.0
H3509 H 0.37053 0.93364 0.23944 0.0
H3510 H 0.35361 0.95852 0.29047 0.0
H3511 H 0.36881 0.98982 0.28624 0.0
H3512 H 0.37373 0.91188 0.26509 0.0
H3513 H 0.30904 0.92643 0.26533 0.0
H3514 H 0.32613 0.94312 0.25918 0.0
H3515 H 0.32469 0.94135 0.28452 0.0
C3516 C 0.37891 0.96362 0.2476 0.0
C3517 C 0.37876 0.98004 0.2605 0.0
C3518 C 0.36997 0.9457 0.24983 0.0
C3519 C 0.36044 0.94324 0.26511 0.0
C3520 C 0.36028 0.95965 0.27813 0.0
H3521 H 0.3059 0.84069 0.30405 0.0
H3522 H 0.31986 0.87273 0.301 0.0
C3523 C 0.36914 0.97773 0.27578 0.0
C3524 C 0.3514 0.9235 0.26752 0.0
H3525 H 0.31308 0.8968 0.27355 0.0
C3526 C 0.36042 0.90872 0.26681 0.0
C3527 C 0.33394 0.91881 0.26985 0.0
C3528 C 0.32282 0.9332 0.26957 0.0
C3529 C 0.35279 0.88997 0.26851 0.0
C3530 C 0.33539 0.88532 0.27085 0.0
C3531 C 0.32638 0.90006 0.27177 0.0
C3532 C 0.32645 0.86538 0.27244 0.0
C3533 C 0.36366 0.87532 0.26821 0.0
C3534 C 0.32504 0.8501 0.25737 0.0
C3535 C 0.31689 0.83159 0.25903 0.0
C3536 C 0.30984 0.82757 0.27587 0.0
C3537 C 0.31114 0.84293 0.29085 0.0
C3538 C 0.31915 0.86145 0.2891 0.0
H3539 H 0.37753 0.88182 0.27152 0.0
H3540 H 0.36074 0.8657 0.279 0.0
H3541 H 0.36092 0.86681 0.25335 0.0
H3542 H 0.33017 0.85248 0.24414 0.0
H3543 H 0.31625 0.82038 0.2471 0.0
H3544 H 0.59187 0.36276 0.63504 0.0
H3545 H 0.58775 0.3891 0.61765 0.0
H3546 H 0.54029 0.35584 0.58425 0.0
H3547 H 0.54432 0.32929 0.60161 0.0
H3548 H 0.58273 0.39127 0.57573 0.0
H3549 H 0.52733 0.40447 0.6102 0.0
H3550 H 0.54178 0.39051 0.62006 0.0
H3551 H 0.52584 0.38073 0.59866 0.0
C3552 C 0.58057 0.36095 0.62393 0.0
C3553 C 0.56839 0.34385 0.61984 0.0
C3554 C 0.57826 0.37607 0.61396 0.0
C3555 C 0.56362 0.3746 0.59979 0.0
C3556 C 0.55159 0.35743 0.59531 0.0
H3557 H 0.52241 0.45625 0.53621 0.0
H3558 H 0.52782 0.42818 0.54953 0.0
C3559 C 0.55396 0.34221 0.60518 0.0
C3560 C 0.56085 0.39118 0.59006 0.0
H3561 H 0.53509 0.42316 0.58636 0.0
C3562 C 0.57231 0.39825 0.57803 0.0
C3563 C 0.54728 0.40032 0.59305 0.0
C3564 C 0.53489 0.39378 0.6063 0.0
C3565 C 0.57038 0.41396 0.56865 0.0
C3566 C 0.55688 0.42327 0.5718 0.0
C3567 C 0.54544 0.41613 0.58386 0.0
C3568 C 0.55417 0.44026 0.56266 0.0
C3569 C 0.58257 0.42007 0.55503 0.0
C3570 C 0.56717 0.4566 0.56539 0.0
C3571 C 0.56415 0.47273 0.55753 0.0
C3572 C 0.54796 0.47302 0.54702 0.0
C3573 C 0.53504 0.45662 0.54421 0.0
C3574 C 0.53811 0.4405 0.55189 0.0
H3575 H 0.58853 0.40841 0.54954 0.0
H3576 H 0.57599 0.42515 0.54221 0.0
H3577 H 0.59299 0.43171 0.56317 0.0
H3578 H 0.57956 0.45708 0.57404 0.0
H3579 H 0.57436 0.48513 0.56018 0.0
H3580 H 0.46949 0.76928 0.37043 0.0
H3581 H 0.44224 0.7735 0.35276 0.0
H3582 H 0.41508 0.72954 0.37939 0.0
H3583 H 0.44213 0.72549 0.39734 0.0
H3584 H 0.41744 0.74989 0.32604 0.0
H3585 H 0.38991 0.77108 0.3915 0.0
H3586 H 0.41215 0.76987 0.39298 0.0
H3587 H 0.39615 0.74885 0.39188 0.0
C3588 C 0.45772 0.7605 0.37253 0.0
C3589 C 0.45806 0.74711 0.38543 0.0
C3590 C 0.44212 0.76295 0.36243 0.0
C3591 C 0.42649 0.75214 0.36503 0.0
C3592 C 0.42686 0.73845 0.37752 0.0
H3593 H 0.32897 0.73056 0.28663 0.0
H3594 H 0.35659 0.7297 0.30582 0.0
C3595 C 0.44241 0.73604 0.38767 0.0
C3596 C 0.40987 0.75478 0.35432 0.0
H3597 H 0.37051 0.76287 0.36087 0.0
C3598 C 0.40724 0.75286 0.3337 0.0
C3599 C 0.39657 0.759 0.36423 0.0
C3600 C 0.39887 0.76252 0.38637 0.0
C3601 C 0.39162 0.75441 0.32274 0.0
C3602 C 0.378 0.7576 0.3326 0.0
C3603 C 0.3808 0.76016 0.35325 0.0
C3604 C 0.36072 0.75794 0.32168 0.0
C3605 C 0.38993 0.7528 0.30068 0.0
C3606 C 0.35334 0.77378 0.32477 0.0
C3607 C 0.33736 0.77422 0.3139 0.0
C3608 C 0.32845 0.75879 0.29979 0.0
C3609 C 0.33559 0.74275 0.29724 0.0
C3610 C 0.35147 0.74229 0.30811 0.0
H3611 H 0.40262 0.75619 0.29608 0.0
H3612 H 0.38378 0.73812 0.29392 0.0
H3613 H 0.38191 0.76232 0.29481 0.0
H3614 H 0.36012 0.78597 0.33528 0.0
H3615 H 0.33217 0.78676 0.31623 0.0
H3616 H 0.09055 0.73838 0.1086 0.0
H3617 H 0.085 0.70534 0.09376 0.0
H3618 H 0.03164 0.69982 0.09797 0.0
H3619 H 0.03705 0.733 0.11273 0.0
H3620 H 0.07218 0.67427 0.11075 0.0
H3621 H 0.0298 0.6762 0.04096 0.0
H3622 H 0.04281 0.69721 0.05612 0.0
H3623 H 0.02315 0.686 0.06279 0.0
C3624 C 0.07757 0.73025 0.10618 0.0
C3625 C 0.06424 0.73843 0.11184 0.0
C3626 C 0.07444 0.7113 0.09772 0.0
C3627 C 0.05788 0.70009 0.09454 0.0
C3628 C 0.04447 0.70825 0.09993 0.0
H3629 H 0.01584 0.58118 0.05054 0.0
H3630 H 0.02035 0.61461 0.06355 0.0
C3631 C 0.0476 0.72723 0.10844 0.0
C3632 C 0.05491 0.67968 0.08651 0.0
H3633 H 0.03301 0.64609 0.04815 0.0
C3634 C 0.06366 0.66812 0.09702 0.0
C3635 C 0.04374 0.67161 0.06864 0.0
C3636 C 0.03442 0.68339 0.05634 0.0
C3637 C 0.06139 0.64875 0.09032 0.0
C3638 C 0.05033 0.64069 0.07236 0.0
C3639 C 0.04151 0.65223 0.06189 0.0
C3640 C 0.0477 0.62032 0.06424 0.0
C3641 C 0.07056 0.63701 0.10284 0.0
C3642 C 0.06152 0.61234 0.05998 0.0
C3643 C 0.05901 0.59315 0.05259 0.0
C3644 C 0.04257 0.5815 0.04911 0.0
C3645 C 0.0287 0.58963 0.05307 0.0
C3646 C 0.03124 0.6088 0.0605 0.0
H3647 H 0.07452 0.644 0.11837 0.0
H3648 H 0.06236 0.62296 0.10256 0.0
H3649 H 0.08227 0.63495 0.09704 0.0
H3650 H 0.07429 0.62098 0.06228 0.0
H3651 H 0.06998 0.58748 0.04959 0.0
H3652 H 0.0452 0.24822 0.8661 0.0
H3653 H 0.0698 0.24815 0.84908 0.0
H3654 H 0.1038 0.27649 0.90226 0.0
H3655 H 0.07952 0.27633 0.91935 0.0
H3656 H 0.09436 0.27725 0.84224 0.0
H3657 H 0.12545 0.23228 0.88812 0.0
H3658 H 0.10372 0.23482 0.88858 0.0
H3659 H 0.12135 0.25254 0.90239 0.0
C3660 C 0.05792 0.25439 0.87417 0.0
C3661 C 0.06033 0.26213 0.89417 0.0
C3662 C 0.07199 0.25435 0.86442 0.0
C3663 C 0.08875 0.26195 0.87447 0.0
C3664 C 0.0911 0.27006 0.89428 0.0
H3665 H 0.19167 0.28106 0.84665 0.0
H3666 H 0.16604 0.27998 0.86187 0.0
C3667 C 0.07712 0.27006 0.90402 0.0
C3668 C 0.10382 0.26177 0.86431 0.0
H3669 H 0.14235 0.24828 0.86743 0.0
C3670 C 0.10477 0.27077 0.84765 0.0
C3671 C 0.11748 0.25333 0.87133 0.0
C3672 C 0.11692 0.24254 0.88846 0.0
C3673 C 0.11916 0.27203 0.83821 0.0
C3674 C 0.13292 0.26383 0.84543 0.0
C3675 C 0.13189 0.25467 0.86195 0.0
C3676 C 0.14848 0.26457 0.83604 0.0
C3677 C 0.11972 0.28259 0.82091 0.0
C3678 C 0.14723 0.25608 0.81652 0.0
C3679 C 0.16185 0.25671 0.80777 0.0
C3680 C 0.17815 0.26579 0.81833 0.0
C3681 C 0.17936 0.27415 0.83796 0.0
C3682 C 0.16471 0.27345 0.84673 0.0
H3683 H 0.11038 0.29196 0.82031 0.0
H3684 H 0.13271 0.2912 0.8215 0.0
H3685 H 0.11649 0.27235 0.8071 0.0
H3686 H 0.13492 0.24886 0.80804 0.0
H3687 H 0.16033 0.25028 0.79258 0.0
H3688 H 0.51006 0.76144 0.92343 0.0
H3689 H 0.5146 0.73464 0.93983 0.0
H3690 H 0.54205 0.7163 0.8949 0.0
H3691 H 0.53787 0.74325 0.87857 0.0
H3692 H 0.50478 0.69653 0.92603 0.0
H3693 H 0.57552 0.71861 0.94556 0.0
H3694 H 0.56214 0.73424 0.93723 0.0
H3695 H 0.56717 0.71673 0.91986 0.0
C3696 C 0.51708 0.75172 0.91703 0.0
C3697 C 0.52372 0.75455 0.89979 0.0
C3698 C 0.51964 0.73641 0.92641 0.0
C3699 C 0.52889 0.72368 0.91873 0.0
C3700 C 0.53521 0.72621 0.90129 0.0
H3701 H 0.52886 0.61547 0.96032 0.0
H3702 H 0.52676 0.63951 0.93902 0.0
C3703 C 0.53272 0.74156 0.89194 0.0
C3704 C 0.53178 0.70772 0.92901 0.0
H3705 H 0.56302 0.68889 0.95281 0.0
C3706 C 0.5175 0.6948 0.93184 0.0
C3707 C 0.54841 0.70565 0.9367 0.0
C3708 C 0.5642 0.71962 0.93487 0.0
C3709 C 0.51938 0.6799 0.94232 0.0
C3710 C 0.53601 0.67769 0.9498 0.0
C3711 C 0.5503 0.69053 0.94684 0.0
C3712 C 0.53879 0.66293 0.96192 0.0
C3713 C 0.50353 0.66708 0.94589 0.0
C3714 C 0.54698 0.66811 0.98157 0.0
C3715 C 0.54844 0.65443 0.99367 0.0
C3716 C 0.54172 0.63529 0.98634 0.0
C3717 C 0.53422 0.63008 0.96639 0.0
C3718 C 0.53283 0.6438 0.95426 0.0
H3719 H 0.49201 0.67324 0.94309 0.0
H3720 H 0.50123 0.65354 0.93584 0.0
H3721 H 0.50514 0.66406 0.96123 0.0
H3722 H 0.5518 0.6828 0.9877 0.0
H3723 H 0.55457 0.65886 0.00888 0.0
H3724 H 0.08849 0.70872 0.6958 0.0
H3725 H 0.11889 0.71653 0.70976 0.0
H3726 H 0.1134 0.77063 0.73729 0.0
H3727 H 0.08301 0.76311 0.72299 0.0
H3728 H 0.13902 0.77381 0.71634 0.0
H3729 H 0.14542 0.71954 0.76418 0.0
H3730 H 0.13487 0.70935 0.73969 0.0
H3731 H 0.12495 0.72442 0.7547 0.0
C3732 C 0.09365 0.72213 0.70515 0.0
C3733 C 0.08335 0.73532 0.70823 0.0
C3734 C 0.11104 0.72654 0.71322 0.0
C3735 C 0.11837 0.74408 0.72477 0.0
C3736 C 0.10798 0.75699 0.72848 0.0
H3737 H 0.22713 0.79098 0.77107 0.0
H3738 H 0.19589 0.78671 0.76486 0.0
C3739 C 0.09061 0.75265 0.72032 0.0
C3740 C 0.13712 0.74957 0.73131 0.0
H3741 H 0.17134 0.73485 0.75448 0.0
C3742 C 0.14607 0.76549 0.72498 0.0
C3743 C 0.14628 0.73871 0.74261 0.0
C3744 C 0.13736 0.72217 0.75086 0.0
C3745 C 0.164 0.77032 0.7289 0.0
C3746 C 0.17311 0.75896 0.7394 0.0
C3747 C 0.16421 0.74342 0.74629 0.0
C3748 C 0.19193 0.76234 0.74247 0.0
C3749 C 0.17316 0.78707 0.72118 0.0
C3750 C 0.1999 0.75015 0.73175 0.0
C3751 C 0.21767 0.75259 0.73513 0.0
C3752 C 0.22777 0.76718 0.74945 0.0
C3753 C 0.21972 0.77963 0.75991 0.0
C3754 C 0.20191 0.77722 0.75642 0.0
H3755 H 0.16421 0.7935 0.71179 0.0
H3756 H 0.1802 0.7979 0.73372 0.0
H3757 H 0.18269 0.78283 0.7125 0.0
H3758 H 0.19233 0.7386 0.72092 0.0
H3759 H 0.22343 0.7427 0.72687 0.0
H3760 H 0.0475 0.35467 0.41412 0.0
H3761 H 0.04714 0.37948 0.44083 0.0
H3762 H 0.00951 0.34149 0.46304 0.0
H3763 H 0.0096 0.31663 0.43622 0.0
H3764 H 1.0003 0.37503 0.45869 0.0
H3765 H 0.06649 0.38766 0.4994 0.0
H3766 H 0.06592 0.38823 0.4736 0.0
H3767 H 0.05702 0.36671 0.48184 0.0
C3768 C 0.0393 0.35151 0.42482 0.0
C3769 C 0.02855 0.3337 0.42302 0.0
C3770 C 0.03921 0.36566 0.44017 0.0
C3771 C 0.02849 0.36222 0.45408 0.0
C3772 C 0.01796 0.34437 0.45253 0.0
H3773 H 0.03591 0.45715 0.54804 0.0
H3774 H 0.03264 0.42432 0.53267 0.0
C3775 C 0.01803 0.3302 0.43718 0.0
C3776 C 0.02723 0.37777 0.46916 0.0
H3777 H 0.05148 0.41301 0.50423 0.0
C3778 C 0.01142 0.38312 0.46892 0.0
C3779 C 0.04166 0.3881 0.48275 0.0
C3780 C 0.05869 0.38226 0.48459 0.0
C3781 C 0.00992 0.39932 0.48097 0.0
C3782 C 0.02467 0.41053 0.49333 0.0
C3783 C 0.04021 0.40446 0.49459 0.0
C3784 C 0.02475 0.42963 0.50314 0.0
C3785 C 0.99268 0.4046 0.47993 0.0
C3786 C 0.02134 0.44337 0.49161 0.0
C3787 C 0.02327 0.46199 0.50027 0.0
C3788 C 0.02866 0.46725 0.52065 0.0
C3789 C 0.03163 0.45342 0.53231 0.0
C3790 C 0.02979 0.43472 0.52357 0.0
H3791 H 0.98213 0.392 0.47523 0.0
H3792 H 0.99118 0.41185 0.49436 0.0
H3793 H 0.9914 0.41426 0.46894 0.0
H3794 H 0.01787 0.43984 0.47577 0.0
H3795 H 0.02123 0.47238 0.49086 0.0
H3796 H 0.51354 0.23812 0.2316 0.0
H3797 H 0.48932 0.2371 0.2492 0.0
H3798 H 0.46524 0.2669 0.20708 0.0
H3799 H 0.48902 0.26743 0.18912 0.0
H3800 H 0.47855 0.26519 0.26738 0.0
H3801 H 0.42583 0.22556 0.20931 0.0
H3802 H 0.448 0.22676 0.2072 0.0
H3803 H 0.43745 0.24529 0.20056 0.0
C3804 C 0.50297 0.24424 0.22596 0.0
C3805 C 0.50315 0.25279 0.20892 0.0
C3806 C 0.48915 0.24364 0.23603 0.0
C3807 C 0.4753 0.25159 0.22925 0.0
C3808 C 0.4755 0.26014 0.21225 0.0
H3809 H 0.41012 0.30592 0.28877 0.0
H3810 H 0.43401 0.29488 0.27709 0.0
C3811 C 0.48919 0.26057 0.20208 0.0
C3812 C 0.46119 0.25224 0.2406 0.0
H3813 H 0.41777 0.24581 0.23504 0.0
C3814 C 0.46525 0.26062 0.26042 0.0
C3815 C 0.44382 0.24585 0.23173 0.0
C3816 C 0.43854 0.23517 0.2111 0.0
C3817 C 0.45242 0.26393 0.27118 0.0
C3818 C 0.43513 0.25925 0.26168 0.0
C3819 C 0.43103 0.24971 0.24228 0.0
C3820 C 0.42126 0.26548 0.27084 0.0
C3821 C 0.45759 0.27261 0.29254 0.0
C3822 C 0.40598 0.2527 0.27099 0.0
C3823 C 0.39207 0.25908 0.27716 0.0
C3824 C 0.39318 0.27838 0.2833 0.0
C3825 C 0.40874 0.29101 0.28389 0.0
C3826 C 0.42255 0.28466 0.27752 0.0
H3827 H 0.46944 0.26855 0.29929 0.0
H3828 H 0.46033 0.28817 0.29365 0.0
H3829 H 0.44734 0.26831 0.30113 0.0
H3830 H 0.40465 0.23786 0.26576 0.0
H3831 H 0.38022 0.24897 0.27625 0.0
H3832 H 0.65283 0.55065 0.38181 0.0
H3833 H 0.6368 0.54474 0.4084 0.0
H3834 H 0.59005 0.5263 0.36625 0.0
H3835 H 0.60598 0.53237 0.33947 0.0
H3836 H 0.58723 0.55094 0.39937 0.0
H3837 H 0.61712 0.49245 0.42096 0.0
H3838 H 0.63217 0.51367 0.4202 0.0
H3839 H 0.61866 0.50106 0.3979 0.0
C3840 C 0.63914 0.54534 0.37815 0.0
C3841 C 0.63069 0.54186 0.35849 0.0
C3842 C 0.63002 0.54187 0.39338 0.0
C3843 C 0.61231 0.53475 0.38925 0.0
C3844 C 0.60375 0.53167 0.36971 0.0
H3845 H 0.5484 0.48705 0.46885 0.0
H3846 H 0.5648 0.49206 0.44222 0.0
C3847 C 0.61287 0.53515 0.35444 0.0
C3848 C 0.60272 0.5307 0.4054 0.0
H3849 H 0.59994 0.50426 0.44249 0.0
C3850 C 0.58995 0.54069 0.40876 0.0
C3851 C 0.60617 0.51714 0.41745 0.0
C3852 C 0.61916 0.50532 0.41388 0.0
C3853 C 0.58075 0.53778 0.42415 0.0
C3854 C 0.58464 0.52472 0.43666 0.0
C3855 C 0.59715 0.51442 0.43302 0.0
C3856 C 0.57567 0.52141 0.45344 0.0
C3857 C 0.5668 0.54852 0.42673 0.0
C3858 C 0.57679 0.53609 0.46886 0.0
C3859 C 0.56745 0.53327 0.48403 0.0
C3860 C 0.55692 0.51568 0.4841 0.0
C3861 C 0.55638 0.50076 0.46912 0.0
C3862 C 0.56572 0.50361 0.45391 0.0
H3863 H 0.56252 0.55419 0.41317 0.0
H3864 H 0.55557 0.53945 0.43072 0.0
H3865 H 0.57174 0.56058 0.43877 0.0
H3866 H 0.58468 0.54982 0.46898 0.0
H3867 H 0.56811 0.54502 0.49538 0.0
H3868 H 0.29038 0.86107 0.02314 0.0
H3869 H 0.3089 0.85038 0.0487 0.0
H3870 H 0.26495 0.82942 0.07431 0.0
H3871 H 0.24642 0.84011 0.04908 0.0
H3872 H 0.29423 0.85393 0.10085 0.0
H3873 H 0.31096 0.79426 0.05518 0.0
H3874 H 0.31333 0.81696 0.04714 0.0
H3875 H 0.29237 0.80355 0.04716 0.0
C3876 C 0.28466 0.85409 0.03416 0.0
C3877 C 0.26692 0.85144 0.03412 0.0
C3878 C 0.29525 0.84797 0.04869 0.0
C3879 C 0.28823 0.83908 0.06327 0.0
C3880 C 0.27056 0.83629 0.06314 0.0
H3881 H 0.29136 0.76645 0.14009 0.0
H3882 H 0.29364 0.78262 0.11182 0.0
C3883 C 0.25999 0.84238 0.04869 0.0
C3884 C 0.29904 0.83296 0.07917 0.0
H3885 H 0.31756 0.79629 0.08947 0.0
C3886 C 0.29977 0.84162 0.09845 0.0
C3887 C 0.30628 0.81699 0.07578 0.0
C3888 C 0.30574 0.80727 0.05523 0.0
C3889 C 0.30615 0.83374 0.1146 0.0
C3890 C 0.31228 0.81693 0.11125 0.0
C3891 C 0.31292 0.80921 0.09194 0.0
C3892 C 0.31439 0.80524 0.12698 0.0
C3893 C 0.30476 0.84252 0.13496 0.0
C3894 C 0.32594 0.81207 0.14462 0.0
C3895 C 0.32457 0.80286 0.16099 0.0
C3896 C 0.31181 0.78658 0.15977 0.0
C3897 C 0.30142 0.77886 0.14152 0.0
C3898 C 0.30269 0.78812 0.1253 0.0
H3899 H 0.29772 0.85417 0.13464 0.0
H3900 H 0.29809 0.83179 0.14278 0.0
H3901 H 0.31776 0.8483 0.14357 0.0
H3902 H 0.3353 0.82507 0.14607 0.0
H3903 H 0.33294 0.80893 0.17481 0.0
H3904 H 0.95359 0.55678 0.81969 0.0
H3905 H 0.97261 0.55586 0.85064 0.0
H3906 H 0.93135 0.51974 0.86915 0.0
H3907 H 0.91251 0.52064 0.83874 0.0
H3908 H 0.96923 0.56644 0.89139 0.0
H3909 H 0.96988 0.49054 0.87709 0.0
H3910 H 0.96295 0.50332 0.85786 0.0
H3911 H 0.94883 0.49558 0.87433 0.0
C3912 C 0.94857 0.54858 0.8303 0.0
C3913 C 0.93134 0.53877 0.82637 0.0
C3914 C 0.9595 0.54807 0.84813 0.0
C3915 C 0.95367 0.53748 0.86245 0.0
C3916 C 0.93649 0.52776 0.85847 0.0
H3917 H 0.9968 0.5102 0.97803 0.0
H3918 H 0.97868 0.51217 0.94694 0.0
C3919 C 0.9256 0.52842 0.8409 0.0
C3920 C 0.96515 0.5367 0.88165 0.0
H3921 H 0.98124 0.5062 0.90956 0.0
C3922 C 0.97196 0.55326 0.89522 0.0
C3923 C 0.9687 0.51956 0.88716 0.0
C3924 C 0.96236 0.50124 0.87331 0.0
C3925 C 0.98169 0.55312 0.91396 0.0
C3926 C 0.98539 0.53597 0.91944 0.0
C3927 C 0.97859 0.51942 0.90578 0.0
C3928 C 0.99641 0.53493 0.93897 0.0
C3929 C 0.98727 0.5714 0.92798 0.0
C3930 C 0.0127 0.54678 0.94528 0.0
C3931 C 0.02298 0.54581 0.96323 0.0
C3932 C 0.01759 0.53274 0.97556 0.0
C3933 C 1.00141 0.52062 0.9692 0.0
C3934 C 0.99103 0.5217 0.95123 0.0
H3935 H 0.97876 0.58131 0.92466 0.0
H3936 H 0.98736 0.56909 0.94347 0.0
H3937 H 1.00038 0.57824 0.92642 0.0
H3938 H 0.01772 0.55671 0.93616 0.0
H3939 H 0.03538 0.55525 0.96733 0.0
H3940 H 0.28873 0.17672 0.56509 0.0
H3941 H 0.29364 0.1935 0.59883 0.0
H3942 H 0.24152 0.20084 0.59088 0.0
H3943 H 0.23647 0.18417 0.55723 0.0
H3944 H 0.28854 0.23144 0.61271 0.0
H3945 H 0.24748 0.17444 0.64072 0.0
H3946 H 0.25565 0.17053 0.61808 0.0
H3947 H 0.23777 0.18176 0.61882 0.0
C3948 C 0.27832 0.18196 0.57049 0.0
C3949 C 0.26218 0.17901 0.55845 0.0
C3950 C 0.28117 0.19156 0.58977 0.0
C3951 C 0.26789 0.19821 0.59742 0.0
C3952 C 0.25188 0.19561 0.58534 0.0
H3953 H 0.25306 0.25061 0.71022 0.0
H3954 H 0.25049 0.23636 0.67602 0.0
C3955 C 0.24905 0.18612 0.56607 0.0
C3956 C 0.27064 0.20769 0.6181 0.0
H3957 H 0.25776 0.20324 0.66225 0.0
C3958 C 0.2819 0.22527 0.62361 0.0
C3959 C 0.26194 0.19961 0.63225 0.0
C3960 C 0.25012 0.18048 0.6273 0.0
C3961 C 0.28434 0.23523 0.64277 0.0
C3962 C 0.27556 0.22716 0.65694 0.0
C3963 C 0.26445 0.20947 0.65142 0.0
C3964 C 0.2775 0.23683 0.67751 0.0
C3965 C 0.29586 0.25453 0.64748 0.0
C3966 C 0.29357 0.24189 0.68982 0.0
C3967 C 0.29511 0.2502 0.70942 0.0
C3968 C 0.28058 0.25339 0.7172 0.0
C3969 C 0.26454 0.24837 0.70478 0.0
C3970 C 0.26303 0.24019 0.68519 0.0
H3971 H 0.29766 0.26078 0.63395 0.0
H3972 H 0.29062 0.26424 0.65734 0.0
H3973 H 0.30862 0.25341 0.65505 0.0
H3974 H 0.30488 0.23905 0.68442 0.0
H3975 H 0.30766 0.25373 0.71856 0.0
H3976 H 0.63405 0.54564 0.24112 0.0
H3977 H 0.62084 0.54271 0.2067 0.0
H3978 H 0.57469 0.50902 0.21851 0.0
H3979 H 0.58775 0.51201 0.25312 0.0
H3980 H 0.6076 0.50984 0.1791 0.0
H3981 H 0.55788 0.55102 0.19167 0.0
H3982 H 0.57614 0.55155 0.21024 0.0
H3983 H 0.55837 0.53182 0.20544 0.0
C3984 C 0.62107 0.53763 0.23646 0.0
C3985 C 0.61192 0.52913 0.24992 0.0
C3986 C 0.61356 0.53595 0.21676 0.0
C3987 C 0.59674 0.52583 0.21011 0.0
C3988 C 0.5876 0.51715 0.22342 0.0
H3989 H 0.54986 0.49213 0.08613 0.0
H3990 H 0.56152 0.49199 0.12058 0.0
C3991 C 0.59511 0.51882 0.24317 0.0
C3992 C 0.58891 0.52436 0.1892 0.0
H3993 H 0.55709 0.53698 0.15904 0.0
C3994 C 0.59651 0.5157 0.17468 0.0
C3995 C 0.57456 0.5322 0.18353 0.0
C3996 C 0.5663 0.54232 0.19848 0.0
C3997 C 0.59018 0.5147 0.1546 0.0
C3998 C 0.57573 0.52238 0.14893 0.0
C3999 C 0.5681 0.531 0.16345 0.0
C4000 C 0.56873 0.52231 0.128 0.0
C4001 C 0.59928 0.50592 0.13962 0.0
C4002 C 0.56868 0.5394 0.12084 0.0
C4003 C 0.56197 0.53956 0.1012 0.0
C4004 C 0.55507 0.5226 0.08832 0.0
C4005 C 0.55512 0.50547 0.09558 0.0
C4006 C 0.56185 0.50534 0.11526 0.0
H4007 H 0.61228 0.50459 0.14628 0.0
H4008 H 0.59179 0.49162 0.13323 0.0
H4009 H 0.60044 0.51436 0.12746 0.0
H4010 H 0.5739 0.55266 0.13046 0.0
H4011 H 0.56213 0.55302 0.09617 0.0
H4012 H 0.23854 0.85025 0.92485 0.0
H4013 H 0.23883 0.82784 0.89608 0.0
H4014 H 0.22444 0.78175 0.9276 0.0
H4015 H 0.22434 0.80418 0.95672 0.0
H4016 H 0.25285 0.77954 0.91125 0.0
H4017 H 0.20206 0.79238 0.85545 0.0
H4018 H 0.21629 0.81398 0.86708 0.0
H4019 H 0.20351 0.8001 0.88143 0.0
C4020 C 0.23513 0.83535 0.9256 0.0
C4021 C 0.2315 0.829 0.94311 0.0
C4022 C 0.23515 0.82254 0.90906 0.0
C4023 C 0.23142 0.80313 0.90962 0.0
C4024 C 0.22722 0.79669 0.92685 0.0
H4025 H 0.23878 0.73526 0.79929 0.0
H4026 H 0.22766 0.74401 0.82934 0.0
C4027 C 0.22716 0.80952 0.94344 0.0
C4028 C 0.23388 0.78991 0.89296 0.0
H4029 H 0.22483 0.77978 0.84294 0.0
C4030 C 0.24644 0.77923 0.89635 0.0
C4031 C 0.22533 0.78927 0.87358 0.0
C4032 C 0.21092 0.7994 0.86919 0.0
C4033 C 0.2516 0.76907 0.88069 0.0
C4034 C 0.24416 0.76988 0.86121 0.0
C4035 C 0.23069 0.77937 0.8579 0.0
C4036 C 0.25129 0.76273 0.84409 0.0
C4037 C 0.2653 0.75801 0.88515 0.0
C4038 C 0.26827 0.77026 0.84254 0.0
C4039 C 0.27461 0.76526 0.8255 0.0
C4040 C 0.26402 0.75285 0.80965 0.0
C4041 C 0.2472 0.74484 0.81138 0.0
C4042 C 0.24083 0.74984 0.82847 0.0
H4043 H 0.26533 0.75346 0.89982 0.0
H4044 H 0.26357 0.74538 0.87387 0.0
H4045 H 0.278 0.76707 0.88534 0.0
H4046 H 0.27643 0.78057 0.85423 0.0
H4047 H 0.28763 0.77161 0.82448 0.0
H4048 H 0.93607 0.56066 0.71202 0.0
H4049 H 0.95139 0.56052 0.68376 0.0
H4050 H 0.9438 0.50016 0.67759 0.0
H4051 H 0.92887 0.50023 0.70554 0.0
H4052 H 0.97529 0.51321 0.67305 0.0
H4053 H 0.93424 0.54829 0.62545 0.0
H4054 H 0.94341 0.56202 0.64907 0.0
H4055 H 0.92826 0.54025 0.64748 0.0
C4056 C 0.93761 0.54734 0.70464 0.0
C4057 C 0.93098 0.53048 0.71143 0.0
C4058 C 0.94633 0.54722 0.6882 0.0
C4059 C 0.94877 0.53025 0.67787 0.0
C4060 C 0.94229 0.51354 0.68487 0.0
H4061 H 0.97816 0.50992 0.55923 0.0
H4062 H 0.96301 0.51256 0.58739 0.0
C4063 C 0.93359 0.51364 0.70109 0.0
C4064 C 0.95828 0.52952 0.66025 0.0
H4065 H 0.9591 0.54185 0.61398 0.0
C4066 C 0.97168 0.51958 0.66022 0.0
C4067 C 0.95373 0.53742 0.64298 0.0
C4068 C 0.93903 0.54744 0.64105 0.0
C4069 C 0.98051 0.51752 0.64405 0.0
C4070 C 0.97625 0.52579 0.62698 0.0
C4071 C 0.96271 0.53554 0.62685 0.0
C4072 C 0.98562 0.52437 0.6093 0.0
C4073 C 0.99409 0.50589 0.64529 0.0
C4074 C 1.00357 0.53026 0.61154 0.0
C4075 C 0.01231 0.52874 0.59535 0.0
C4076 C 1.00356 0.52131 0.57603 0.0
C4077 C 0.98556 0.5156 0.5737 0.0
C4078 C 0.97679 0.5172 0.58995 0.0
H4079 H 0.99235 0.49604 0.65614 0.0
H4080 H 0.99399 0.49761 0.63079 0.0
H4081 H 1.00683 0.51539 0.65012 0.0
H4082 H 0.01094 0.53629 0.62592 0.0
H4083 H 0.02607 0.53352 0.59805 0.0
H4084 H 0.23091 0.16515 0.43997 0.0
H4085 H 0.23552 0.18405 0.41381 0.0
H4086 H 0.28888 0.20223 0.43952 0.0
H4087 H 0.28443 0.18309 0.4656 0.0
H4088 H 0.24677 0.22196 0.41503 0.0
H4089 H 0.29137 0.18299 0.38293 0.0
H4090 H 0.27887 0.17417 0.4006 0.0
H4091 H 0.2981 0.19195 0.40863 0.0
C4092 C 0.24366 0.17312 0.44008 0.0
C4093 C 0.25732 0.17245 0.45488 0.0
C4094 C 0.24626 0.18397 0.42509 0.0
C4095 C 0.2626 0.19437 0.42445 0.0
C4096 C 0.27622 0.19402 0.4394 0.0
H4097 H 0.28553 0.28351 0.35277 0.0
H4098 H 0.27987 0.26568 0.37962 0.0
C4099 C 0.27363 0.18313 0.4544 0.0
C4100 C 0.26528 0.20562 0.40819 0.0
H4101 H 0.28774 0.21099 0.37046 0.0
C4102 C 0.25573 0.21955 0.40528 0.0
C4103 C 0.27678 0.20234 0.39524 0.0
C4104 C 0.28676 0.18694 0.39683 0.0
C4105 C 0.25749 0.23038 0.39 0.0
C4106 C 0.26934 0.22745 0.37739 0.0
C4107 C 0.27876 0.21338 0.38018 0.0
C4108 C 0.27201 0.23854 0.36102 0.0
C4109 C 0.24635 0.24458 0.38722 0.0
C4110 C 0.26968 0.2293 0.34159 0.0
C4111 C 0.273 0.23946 0.32626 0.0
C4112 C 0.27882 0.25911 0.33 0.0
C4113 C 0.28094 0.26841 0.34939 0.0
C4114 C 0.27763 0.25822 0.36475 0.0
H4115 H 0.23492 0.24155 0.39438 0.0
H4116 H 0.25381 0.25879 0.39398 0.0
H4117 H 0.24203 0.24483 0.37137 0.0
H4118 H 0.26542 0.21415 0.3383 0.0
H4119 H 0.27136 0.23185 0.31152 0.0
H4120 H 0.36844 0.6242 0.54446 0.0
H4121 H 0.38912 0.61084 0.52814 0.0
H4122 H 0.38316 0.6456 0.48283 0.0
H4123 H 0.36222 0.65906 0.49906 0.0
H4124 H 0.38087 0.60745 0.46833 0.0
H4125 H 0.4385 0.63487 0.52498 0.0
H4126 H 0.42082 0.62419 0.53555 0.0
H4127 H 0.41961 0.64482 0.52413 0.0
C4128 C 0.37161 0.62917 0.53113 0.0
C4129 C 0.3637 0.64271 0.52307 0.0
C4130 C 0.38352 0.6216 0.52189 0.0
C4131 C 0.38785 0.62747 0.50447 0.0
C4132 C 0.38007 0.64103 0.49637 0.0
H4133 H 0.46804 0.57083 0.47571 0.0
H4134 H 0.4525 0.59624 0.47468 0.0
C4135 C 0.36815 0.6487 0.50567 0.0
C4136 C 0.39977 0.61842 0.49439 0.0
H4137 H 0.43814 0.60569 0.50415 0.0
C4138 C 0.39358 0.60739 0.47588 0.0
C4139 C 0.4165 0.61877 0.504 0.0
C4140 C 0.42431 0.63148 0.52317 0.0
C4141 C 0.40312 0.59529 0.46761 0.0
C4142 C 0.41902 0.59401 0.47836 0.0
C4143 C 0.42585 0.60641 0.49596 0.0
C4144 C 0.42767 0.57835 0.47341 0.0
C4145 C 0.3958 0.58359 0.44777 0.0
C4146 C 0.41881 0.55968 0.47213 0.0
C4147 C 0.42764 0.54504 0.47239 0.0
C4148 C 0.44557 0.54883 0.47438 0.0
C4149 C 0.45425 0.56734 0.4741 0.0
C4150 C 0.44538 0.58195 0.4736 0.0
H4151 H 0.38816 0.59134 0.43836 0.0
H4152 H 0.40599 0.57961 0.44003 0.0
H4153 H 0.38708 0.57057 0.44973 0.0
H4154 H 0.40521 0.55653 0.47237 0.0
H4155 H 0.42052 0.53091 0.47219 0.0
H4156 H 0.87299 0.91779 0.58354 0.0
H4157 H 0.90079 0.93508 0.57912 0.0
H4158 H 0.876 0.95949 0.53247 0.0
H4159 H 0.84806 0.94254 0.53712 0.0
H4160 H 0.91695 0.93342 0.54791 0.0
H4161 H 0.90647 1.00578 0.56595 0.0
H4162 H 0.89222 0.98537 0.57072 0.0
H4163 H 0.89071 0.99155 0.54635 0.0
C4164 C 0.8734 0.92696 0.57244 0.0
C4165 C 0.85821 0.92884 0.56079 0.0
C4166 C 0.88935 0.93681 0.56988 0.0
C4167 C 0.89058 0.94883 0.55563 0.0
C4168 C 0.87545 0.95067 0.54389 0.0
H4169 H 0.9864 0.9913 0.51405 0.0
H4170 H 0.95829 0.97333 0.51716 0.0
C4171 C 0.85944 0.94089 0.54651 0.0
C4172 C 0.90773 0.95905 0.55291 0.0
H4173 H 0.9317 1.00291 0.55324 0.0
C4174 C 0.92017 0.94863 0.54909 0.0
C4175 C 0.91208 0.97892 0.55467 0.0
C4176 C 0.89974 0.9911 0.55984 0.0
C4177 C 0.93672 0.95745 0.54694 0.0
C4178 C 0.94092 0.97729 0.54821 0.0
C4179 C 0.9285 0.98771 0.55208 0.0
C4180 C 0.95827 0.98765 0.54631 0.0
C4181 C 0.94967 0.94545 0.54388 0.0
C4182 C 0.96761 1.00191 0.56145 0.0
C4183 C 0.98357 0.01228 0.55959 0.0
C4184 C 0.9906 0.00867 0.54254 0.0
C4185 C 0.98139 0.99428 0.52744 0.0
C4186 C 0.96534 0.98394 0.52926 0.0
H4187 H 0.94604 0.93152 0.54866 0.0
H4188 H 0.95041 0.94298 0.528 0.0
H4189 H 0.96258 0.95253 0.55206 0.0
H4190 H 0.9625 1.00509 0.57474 0.0
H4191 H 0.99034 0.02329 0.57147 0.0
H4192 H 0.88449 0.04457 0.24923 0.0
H4193 H 0.8687 0.06992 0.24772 0.0
H4194 H 0.91622 0.11083 0.25805 0.0
H4195 H 0.93216 0.08558 0.25935 0.0
H4196 H 0.87043 0.10062 0.27696 0.0
H4197 H 0.88933 0.12425 0.20883 0.0
H4198 H 0.89218 0.10196 0.21589 0.0
H4199 H 0.90683 0.12333 0.22759 0.0
C4200 C 0.89161 0.05895 0.25111 0.0
C4201 C 0.90959 0.06305 0.25433 0.0
C4202 C 0.88255 0.0734 0.25025 0.0
C4203 C 0.8913 0.0922 0.25249 0.0
C4204 C 0.90924 0.09637 0.25589 0.0
H4205 H 0.85655 0.19788 0.25324 0.0
H4206 H 0.87373 0.17368 0.25484 0.0
C4207 C 0.91831 0.08193 0.25674 0.0
C4208 C 0.8816 0.10743 0.25178 0.0
H4209 H 0.87356 0.14272 0.22622 0.0
C4210 C 0.87107 0.1098 0.26585 0.0
C4211 C 0.88254 0.11942 0.2373 0.0
C4212 C 0.89321 0.11708 0.22142 0.0
C4213 C 0.86153 0.12396 0.26594 0.0
C4214 C 0.86234 0.13582 0.25134 0.0
C4215 C 0.87299 0.13358 0.23738 0.0
C4216 C 0.85195 0.15041 0.25012 0.0
C4217 C 0.85088 0.12628 0.28184 0.0
C4218 C 0.83404 0.14528 0.24661 0.0
C4219 C 0.82421 0.15903 0.24579 0.0
C4220 C 0.83211 0.1782 0.24835 0.0
C4221 C 0.85009 0.18327 0.25148 0.0
C4222 C 0.85991 0.16947 0.25229 0.0
H4223 H 0.85516 0.11962 0.29468 0.0
H4224 H 0.85144 0.14139 0.28696 0.0
H4225 H 0.83735 0.11943 0.27587 0.0
H4226 H 0.82765 0.13061 0.24455 0.0
H4227 H 0.81041 0.15466 0.24355 0.0
H4228 H 0.78164 0.11501 0.10363 0.0
H4229 H 0.75573 0.09117 0.10188 0.0
H4230 H 0.76126 0.06664 0.04418 0.0
H4231 H 0.78704 0.09067 0.04563 0.0
H4232 H 0.73103 0.07686 0.04441 0.0
H4233 H 0.74215 0.03562 0.10474 0.0
H4234 H 0.74832 0.06045 0.11326 0.0
H4235 H 0.75946 0.04971 0.09586 0.0
C4236 C 0.77762 0.10425 0.09078 0.0
C4237 C 0.78626 0.10487 0.07466 0.0
C4238 C 0.76287 0.09051 0.08987 0.0
C4239 C 0.75665 0.07702 0.07296 0.0
C4240 C 0.7659 0.07688 0.05739 0.0
H4241 H 0.64916 0.01641 0.03985 0.0
H4242 H 0.68013 0.02331 0.04024 0.0
C4243 C 0.7806 0.09066 0.05824 0.0
C4244 C 0.73922 0.06526 0.07031 0.0
H4245 H 0.71259 0.03666 0.09311 0.0
C4246 C 0.72706 0.06768 0.05477 0.0
C4247 C 0.7341 0.05338 0.08388 0.0
C4248 C 0.74675 0.04948 0.10025 0.0
C4249 C 0.70969 0.05955 0.05316 0.0
C4250 C 0.70443 0.04842 0.06731 0.0
C4251 C 0.71669 0.04521 0.08229 0.0
C4252 C 0.68611 0.04197 0.06806 0.0
C4253 C 0.697 0.06397 0.0371 0.0
C4254 C 0.67938 0.04963 0.0839 0.0
C4255 C 0.66179 0.04574 0.08373 0.0
C4256 C 0.65061 0.03404 0.06771 0.0
C4257 C 0.65746 0.02569 0.05225 0.0
C4258 C 0.67511 0.02956 0.05247 0.0
H4259 H 0.7029 0.07539 0.02953 0.0
H4260 H 0.69187 0.0512 0.02597 0.0
H4261 H 0.68609 0.06823 0.04319 0.0
H4262 H 0.68767 0.05931 0.09602 0.0
H4263 H 0.65692 0.05257 0.09575 0.0
H4264 H 0.20762 0.46359 0.29624 0.0
H4265 H 0.22454 0.43868 0.29606 0.0
H4266 H 0.17808 0.39647 0.27923 0.0
H4267 H 0.16142 0.42087 0.27904 0.0
H4268 H 0.22761 0.409 0.31567 0.0
H4269 H 0.20271 0.37724 0.23846 0.0
H4270 H 0.19871 0.39953 0.2486 0.0
H4271 H 0.18574 0.3778 0.25233 0.0
C4272 C 0.20096 0.44903 0.2924 0.0
C4273 C 0.18287 0.4447 0.28747 0.0
C4274 C 0.21074 0.43459 0.29231 0.0
C4275 C 0.20293 0.41517 0.28711 0.0
C4276 C 0.18488 0.41099 0.28267 0.0
H4277 H 0.23307 0.30338 0.27539 0.0
H4278 H 0.21843 0.32994 0.2766 0.0
C4279 C 0.1752 0.42526 0.28275 0.0
C4280 C 0.21323 0.3993 0.28653 0.0
H4281 H 0.21742 0.3588 0.2581 0.0
C4282 C 0.22541 0.39819 0.30293 0.0
C4283 C 0.21072 0.38469 0.27013 0.0
C4284 C 0.1989 0.38493 0.25132 0.0
C4285 C 0.23443 0.38312 0.30362 0.0
C4286 C 0.23179 0.36841 0.28727 0.0
C4287 C 0.21971 0.36964 0.27084 0.0
C4288 C 0.24117 0.35174 0.28687 0.0
C4289 C 0.24625 0.38282 0.32241 0.0
C4290 C 0.25919 0.35437 0.29186 0.0
C4291 C 0.2677 0.33897 0.2912 0.0
C4292 C 0.2587 0.32007 0.28543 0.0
C4293 C 0.2407 0.31744 0.28021 0.0
C4294 C 0.2322 0.33286 0.28082 0.0
H4295 H 0.24284 0.39104 0.33522 0.0
H4296 H 0.24594 0.36822 0.3254 0.0
H4297 H 0.25951 0.38931 0.32111 0.0
H4298 H 0.26689 0.36847 0.29597 0.0
H4299 H 0.2815 0.34199 0.29513 0.0
H4300 H 0.27071 0.44226 0.05845 0.0
H4301 H 0.24636 0.45798 0.05747 0.0
H4302 H 0.21204 0.40543 0.0317 0.0
H4303 H 0.2361 0.38963 0.03294 0.0
H4304 H 0.22289 0.46196 0.02617 0.0
H4305 H 0.18931 0.42209 0.07694 0.0
H4306 H 0.21113 0.42154 0.07444 0.0
H4307 H 0.19369 0.40711 0.05674 0.0
C4308 C 0.25796 0.43404 0.05266 0.0
C4309 C 0.2554 0.41462 0.04592 0.0
C4310 C 0.24404 0.44305 0.0521 0.0
C4311 C 0.22727 0.43284 0.04488 0.0
C4312 C 0.22475 0.41355 0.03784 0.0
H4313 H 0.12561 0.45697 0.02103 0.0
H4314 H 0.1509 0.44288 0.0242 0.0
C4315 C 0.2386 0.40454 0.03844 0.0
C4316 C 0.21242 0.44234 0.04417 0.0
H4317 H 0.17338 0.44034 0.05837 0.0
C4318 C 0.21214 0.45734 0.03337 0.0
C4319 C 0.19833 0.43634 0.05353 0.0
C4320 C 0.19816 0.42102 0.06623 0.0
C4321 C 0.19801 0.4661 0.03121 0.0
C4322 C 0.18383 0.4599 0.04032 0.0
C4323 C 0.18418 0.44504 0.05129 0.0
C4324 C 0.16847 0.46855 0.03857 0.0
C4325 C 0.19818 0.48157 0.01869 0.0
C4326 C 0.16984 0.48762 0.04585 0.0
C4327 C 0.1554 0.49574 0.04401 0.0
C4328 C 0.13921 0.48496 0.0349 0.0
C4329 C 0.13786 0.46577 0.02789 0.0
C4330 C 0.15231 0.45766 0.02979 0.0
H4331 H 0.20788 0.48148 0.0089 0.0
H4332 H 0.18544 0.48023 0.00951 0.0
H4333 H 0.20136 0.49539 0.02839 0.0
H4334 H 0.18209 0.49626 0.05299 0.0
H4335 H 0.15702 0.51058 0.04942 0.0
H4336 H 0.887 0.96554 0.27093 0.0
H4337 H 0.86726 0.93684 0.27414 0.0
H4338 H 0.87949 0.90823 0.22178 0.0
H4339 H 0.89949 0.93682 0.21859 0.0
H4340 H 0.83862 0.91682 0.24814 0.0
H4341 H 0.88667 0.87256 0.26169 0.0
H4342 H 0.89255 0.89779 0.26315 0.0
H4343 H 0.88708 0.88296 0.23962 0.0
C4344 C 0.88555 0.95314 0.26011 0.0
C4345 C 0.89489 0.95346 0.24454 0.0
C4346 C 0.87425 0.93675 0.26196 0.0
C4347 C 0.87208 0.92033 0.24835 0.0
C4348 C 0.88122 0.92063 0.23267 0.0
H4349 H 0.78767 0.82314 0.23584 0.0
H4350 H 0.80781 0.85063 0.23005 0.0
C4351 C 0.89258 0.93702 0.23082 0.0
C4352 C 0.86 0.90306 0.25046 0.0
H4353 H 0.85752 0.85737 0.2577 0.0
C4354 C 0.84273 0.90381 0.2502 0.0
C4355 C 0.86545 0.88617 0.25336 0.0
C4356 C 0.88397 0.88478 0.25466 0.0
C4357 C 0.83075 0.88812 0.25274 0.0
C4358 C 0.83614 0.87113 0.25526 0.0
C4359 C 0.85341 0.87038 0.25557 0.0
C4360 C 0.82418 0.85418 0.25837 0.0
C4361 C 0.81253 0.89001 0.2532 0.0
C4362 C 0.82694 0.84682 0.276 0.0
C4363 C 0.81552 0.83112 0.27928 0.0
C4364 C 0.80122 0.82244 0.26491 0.0
C4365 C 0.79856 0.82966 0.24718 0.0
C4366 C 0.81001 0.84537 0.24389 0.0
H4367 H 0.81143 0.90498 0.2558 0.0
H4368 H 0.80446 0.88338 0.23885 0.0
H4369 H 0.80734 0.88277 0.26486 0.0
H4370 H 0.8378 0.85341 0.28735 0.0
H4371 H 0.81777 0.82593 0.29316 0.0
H4372 H 0.66627 0.07534 0.77834 0.0
H4373 H 0.68351 0.10639 0.77862 0.0
H4374 H 0.72801 0.089 0.80629 0.0
H4375 H 0.71065 0.05732 0.80565 0.0
H4376 H 0.70004 0.13367 0.80609 0.0
H4377 H 0.74822 0.11269 0.76377 0.0
H4378 H 0.72918 0.09631 0.766 0.0
H4379 H 0.74723 0.10226 0.78574 0.0
C4380 C 0.67975 0.07789 0.78448 0.0
C4381 C 0.68689 0.06339 0.79191 0.0
C4382 C 0.68969 0.09593 0.78466 0.0
C4383 C 0.70734 0.10046 0.7922 0.0
C4384 C 0.71459 0.0861 0.79988 0.0
H4385 H 0.76127 0.22175 0.81637 0.0
H4386 H 0.74722 0.18981 0.81969 0.0
C4387 C 0.70456 0.06787 0.79967 0.0
C4388 C 0.71765 0.12024 0.79213 0.0
H4389 H 0.75255 0.145 0.77655 0.0
C4390 C 0.71156 0.13603 0.79966 0.0
C4391 C 0.73266 0.12381 0.78354 0.0
C4392 C 0.73966 0.10791 0.77413 0.0
C4393 C 0.71977 0.1548 0.79885 0.0
C4394 C 0.73496 0.1584 0.7906 0.0
C4395 C 0.74108 0.14262 0.78307 0.0
C4396 C 0.74422 0.17822 0.78891 0.0
C4397 C 0.71158 0.17058 0.8062 0.0
C4398 C 0.74804 0.1828 0.77069 0.0
C4399 C 0.75631 0.20116 0.7688 0.0
C4400 C 0.7612 0.21577 0.78506 0.0
C4401 C 0.75764 0.21113 0.80338 0.0
C4402 C 0.74941 0.19272 0.80528 0.0
H4403 H 0.69779 0.16548 0.80657 0.0
H4404 H 0.71801 0.17676 0.82142 0.0
H4405 H 0.71277 0.18184 0.79684 0.0
H4406 H 0.74439 0.17218 0.75772 0.0
H4407 H 0.75877 0.2039 0.75441 0.0
loop_
_geom_bond_atom_site_label_1
_geom_bond_atom_site_label_2
_geom_bond_distance
_geom_bond_site_symmetry_2
_ccdc_geom_bond_type
C0 O1 1.160 . S
C0 O7 1.185 . S
O1 C0 1.160 . S
O2 Zn3 1.899 . S
O2 C10 1.305 . S
Zn3 O2 1.899 . S
Zn3 O4 2.032 . S
Zn3 O7 2.086 . S
Zn3 O12 1.977 1_455 S
O4 Zn3 2.032 . S
O4 C8 1.278 . S
C5 O6 1.203 . S
C5 O12 1.267 . S
O6 C5 1.203 . S
O7 C0 1.185 . S
O7 Zn3 2.086 . S
C8 O4 1.278 . S
C8 O9 1.211 1_455 S
O9 C8 1.211 1_655 S
C10 O2 1.305 . S
C10 O11 1.244 1_455 S
O11 C10 1.244 1_655 S
O12 Zn3 1.977 1_655 S
O12 C5 1.267 . S
C13 O14 1.160 . S
C13 O20 1.185 . S
O14 C13 1.160 . S
O15 Zn16 1.899 . S
O15 C23 1.284 . S
Zn16 O15 1.899 . S
Zn16 O17 2.032 . S
Zn16 O20 2.086 . S
Zn16 O25 1.977 . S
O17 Zn16 2.032 . S
O17 C21 1.278 . S
C18 O19 1.203 . S
C18 O25 1.267 . S
O19 C18 1.203 . S
O20 C13 1.185 . S
O20 Zn16 2.086 . S
C21 O17 1.278 . S
C21 O22 1.211 . S
O22 C21 1.211 . S
C23 O15 1.284 . S
C23 O24 1.273 . S
O24 C23 1.273 . S
O25 Zn16 1.977 . S
O25 C18 1.267 . S
C26 O27 1.160 . S
C26 O33 1.185 . S
O27 C26 1.160 . S
O28 Zn29 1.899 . S
O28 C36 1.284 . S
Zn29 O28 1.899 . S
Zn29 O30 2.032 . S
Zn29 O33 2.086 . S
Zn29 O38 1.977 . S
O30 Zn29 2.032 . S
O30 C34 1.278 . S
C31 O32 1.203 . S
C31 O38 1.267 . S
O32 C31 1.203 . S
O33 C26 1.185 . S
O33 Zn29 2.086 . S
C34 O30 1.278 . S
C34 O35 1.211 . S
O35 C34 1.211 . S
C36 O28 1.284 . S
C36 O37 1.273 . S
O37 C36 1.273 . S
O38 Zn29 1.977 . S
O38 C31 1.267 . S
C39 O40 1.160 . S
C39 O46 1.185 . S
O40 C39 1.160 . S
O41 Zn42 1.899 . S
O41 C49 1.284 . S
Zn42 O41 1.899 . S
Zn42 O43 2.032 . S
Zn42 O46 2.086 . S
Zn42 O51 1.977 . S
O43 Zn42 2.032 . S
O43 C47 1.278 . S
C44 O45 1.203 . S
C44 O51 1.267 . S
O45 C44 1.203 . S
O46 C39 1.185 . S
O46 Zn42 2.086 . S
C47 O43 1.278 . S
C47 O48 1.211 . S
O48 C47 1.211 . S
C49 O41 1.284 . S
C49 O50 1.273 . S
O50 C49 1.273 . S
O51 Zn42 1.977 . S
O51 C44 1.267 . S
C52 O53 1.160 . S
C52 O59 1.185 . S
O53 C52 1.160 . S
O54 Zn55 1.899 . S
O54 C62 1.284 . S
Zn55 O54 1.899 . S
Zn55 O56 2.032 . S
Zn55 O59 2.086 . S
Zn55 O64 1.977 . S
O56 Zn55 2.032 . S
O56 C60 1.278 . S
C57 O58 1.203 . S
C57 O64 1.267 . S
O58 C57 1.203 . S
O59 C52 1.185 . S
O59 Zn55 2.086 . S
C60 O56 1.278 . S
C60 O61 1.211 . S
O61 C60 1.211 . S
C62 O54 1.284 . S
C62 O63 1.273 . S
O63 C62 1.273 . S
O64 Zn55 1.977 . S
O64 C57 1.267 . S
C65 O66 1.160 . S
C65 O72 1.185 . S
O66 C65 1.160 . S
O67 Zn68 1.899 . S
O67 C75 1.284 . S
Zn68 O67 1.899 . S
Zn68 O69 2.032 . S
Zn68 O72 2.086 . S
Zn68 O77 1.977 . S
O69 Zn68 2.032 . S
O69 C73 1.278 . S
C70 O71 1.203 . S
C70 O77 1.267 . S
O71 C70 1.203 . S
O72 C65 1.185 . S
O72 Zn68 2.086 . S
C73 O69 1.278 . S
C73 O74 1.211 . S
O74 C73 1.211 . S
C75 O67 1.284 . S
C75 O76 1.273 . S
O76 C75 1.273 . S
O77 Zn68 1.977 . S
O77 C70 1.267 . S
C78 O79 1.160 . S
C78 O85 1.185 . S
O79 C78 1.160 . S
O80 Zn81 1.899 . S
O80 C88 1.284 . S
Zn81 O80 1.899 . S
Zn81 O82 2.032 . S
Zn81 O85 2.086 . S
Zn81 O90 1.977 . S
O82 Zn81 2.032 . S
O82 C86 1.278 . S
C83 O84 1.203 . S
C83 O90 1.267 . S
O84 C83 1.203 . S
O85 C78 1.185 . S
O85 Zn81 2.086 . S
C86 O82 1.278 . S
C86 O87 1.211 . S
O87 C86 1.211 . S
C88 O80 1.284 . S
C88 O89 1.273 . S
O89 C88 1.273 . S
O90 Zn81 1.977 . S
O90 C83 1.267 . S
C91 O92 1.160 . S
C91 O98 1.185 . S
O92 C91 1.160 . S
O93 Zn94 1.899 . S
O93 C101 1.284 . S
Zn94 O93 1.899 . S
Zn94 O95 2.032 . S
Zn94 O98 2.086 . S
Zn94 O103 1.977 1_455 S
O95 Zn94 2.032 . S
O95 C99 1.278 . S
C96 O97 1.203 . S
C96 O103 1.267 . S
O97 C96 1.203 . S
O98 C91 1.185 . S
O98 Zn94 2.086 . S
C99 O95 1.278 . S
C99 O100 1.204 1_455 S
O100 C99 1.204 1_655 S
C101 O93 1.284 . S
C101 O102 1.273 . S
O102 C101 1.273 . S
O103 Zn94 1.977 1_655 S
O103 C96 1.267 . S
C104 O105 1.160 . S
C104 O111 1.185 . S
O105 C104 1.160 . S
O106 Zn107 1.899 . S
O106 C114 1.284 . S
Zn107 O106 1.899 . S
Zn107 O108 2.032 . S
Zn107 O111 2.086 . S
Zn107 O116 1.977 1_545 S
O108 Zn107 2.032 . S
O108 C112 1.278 . S
C109 O110 1.203 . S
C109 O116 1.267 . S
O110 C109 1.203 . S
O111 C104 1.185 . S
O111 Zn107 2.086 . S
C112 O108 1.278 . S
C112 O113 1.211 . S
O113 C112 1.211 . S
C114 O106 1.284 . S
C114 O115 1.273 . S
O115 C114 1.273 . S
O116 Zn107 1.977 1_565 S
O116 C109 1.267 . S
C117 O118 1.160 . S
C117 O124 1.185 . S
O118 C117 1.160 . S
O119 Zn120 1.899 . S
O119 C127 1.284 . S
Zn120 O119 1.899 . S
Zn120 O121 2.032 . S
Zn120 O124 2.086 . S
Zn120 O129 1.977 . S
O121 Zn120 2.032 . S
O121 C125 1.278 . S
C122 O123 1.203 . S
C122 O129 1.267 . S
O123 C122 1.203 . S
O124 C117 1.185 . S
O124 Zn120 2.086 . S
C125 O121 1.278 . S
C125 O126 1.211 . S
O126 C125 1.211 . S
C127 O119 1.284 . S
C127 O128 1.273 . S
O128 C127 1.273 . S
O129 Zn120 1.977 . S
O129 C122 1.267 . S
C130 O131 1.160 . S
C130 O137 1.185 1_565 S
O131 C130 1.160 . S
O132 Zn133 1.899 . S
O132 C140 1.284 . S
Zn133 O132 1.899 . S
Zn133 O134 2.032 . S
Zn133 O137 2.086 . S
Zn133 O142 1.977 . S
O134 Zn133 2.032 . S
O134 C138 1.278 . S
C135 O136 1.203 . S
C135 O142 1.267 . S
O136 C135 1.203 . S
O137 C130 1.185 1_545 S
O137 Zn133 2.086 . S
C138 O134 1.278 . S
C138 O139 1.211 . S
O139 C138 1.211 . S
C140 O132 1.284 . S
C140 O141 1.273 . S
O141 C140 1.273 . S
O142 Zn133 1.977 . S
O142 C135 1.267 . S
C143 O144 1.160 . S
C143 O150 1.185 1_554 S
O144 C143 1.160 . S
O145 Zn146 1.899 . S
O145 C153 1.284 . S
Zn146 O145 1.899 . S
Zn146 O147 2.032 1_554 S
Zn146 O150 2.086 1_554 S
Zn146 O155 1.977 . S
O147 Zn146 2.032 1_556 S
O147 C151 1.278 . S
C148 O149 1.203 . S
C148 O155 1.267 . S
O149 C148 1.203 . S
O150 C143 1.185 1_556 S
O150 Zn146 2.086 1_556 S
C151 O147 1.278 . S
C151 O152 1.211 . S
O152 C151 1.211 . S
C153 O145 1.284 . S
C153 O154 1.273 . S
O154 C153 1.273 . S
O155 Zn146 1.977 . S
O155 C148 1.267 . S
C156 O157 1.160 . S
C156 O163 1.185 . S
O157 C156 1.160 . S
O158 Zn159 1.899 . S
O158 C166 1.284 . S
Zn159 O158 1.899 . S
Zn159 O160 2.032 . S
Zn159 O163 2.086 . S
Zn159 O168 1.977 . S
O160 Zn159 2.032 . S
O160 C164 1.278 1_554 S
C161 O162 1.203 . S
C161 O168 1.267 . S
O162 C161 1.203 . S
O163 C156 1.185 . S
O163 Zn159 2.086 . S
C164 O160 1.278 1_556 S
C164 O165 1.211 . S
O165 C164 1.211 . S
C166 O158 1.284 . S
C166 O167 1.273 . S
O167 C166 1.273 . S
O168 Zn159 1.977 . S
O168 C161 1.267 . S
C169 O170 1.160 . S
C169 O176 1.185 . S
O170 C169 1.160 . S
O171 Zn172 1.899 . S
O171 C179 1.284 . S
Zn172 O171 1.899 . S
Zn172 O173 2.032 . S
Zn172 O176 2.086 . S
Zn172 O181 1.977 . S
O173 Zn172 2.032 . S
O173 C177 1.278 . S
C174 O175 1.203 . S
C174 O181 1.267 . S
O175 C174 1.203 . S
O176 C169 1.185 . S
O176 Zn172 2.086 . S
C177 O173 1.278 . S
C177 O178 1.211 . S
O178 C177 1.211 . S
C179 O171 1.284 . S
C179 O180 1.273 . S
O180 C179 1.273 . S
O181 Zn172 1.977 . S
O181 C174 1.267 . S
C182 O183 1.160 . S
C182 O189 1.185 . S
O183 C182 1.160 . S
O184 Zn185 1.899 . S
O184 C192 1.284 . S
Zn185 O184 1.899 . S
Zn185 O186 2.032 . S
Zn185 O189 2.086 . S
Zn185 O194 1.977 . S
O186 Zn185 2.032 . S
O186 C190 1.278 . S
C187 O188 1.203 . S
C187 O194 1.267 . S
O188 C187 1.203 . S
O189 C182 1.185 . S
O189 Zn185 2.086 . S
C190 O186 1.278 . S
C190 O191 1.211 . S
O191 C190 1.211 . S
C192 O184 1.284 . S
C192 O193 1.273 . S
O193 C192 1.273 . S
O194 Zn185 1.977 . S
O194 C187 1.267 . S
C195 O196 1.160 . S
C195 O202 1.185 . S
O196 C195 1.160 . S
O197 Zn198 1.899 . S
O197 C205 1.284 . S
Zn198 O197 1.899 . S
Zn198 O199 2.032 . S
Zn198 O202 2.086 . S
Zn198 O207 1.977 . S
O199 Zn198 2.032 . S
O199 C203 1.278 . S
C200 O201 1.203 . S
C200 O207 1.267 . S
O201 C200 1.203 . S
O202 C195 1.185 . S
O202 Zn198 2.086 . S
C203 O199 1.278 . S
C203 O204 1.211 . S
O204 C203 1.211 . S
C205 O197 1.284 . S
C205 O206 1.273 . S
O206 C205 1.273 . S
O207 Zn198 1.977 . S
O207 C200 1.267 . S
C208 O209 1.160 . S
C208 O215 1.185 . S
O209 C208 1.160 . S
O210 Zn211 1.899 . S
O210 C218 1.284 . S
Zn211 O210 1.899 . S
Zn211 O212 2.032 . S
Zn211 O215 2.086 . S
Zn211 O220 1.977 1_545 S
O212 Zn211 2.032 . S
O212 C216 1.278 . S
C213 O214 1.203 . S
C213 O220 1.267 . S
O214 C213 1.203 . S
O215 C208 1.185 . S
O215 Zn211 2.086 . S
C216 O212 1.278 . S
C216 O217 1.211 1_545 S
O217 C216 1.211 1_565 S
C218 O210 1.284 . S
C218 O219 1.273 . S
O219 C218 1.273 . S
O220 Zn211 1.977 1_565 S
O220 C213 1.267 . S
C221 O222 1.160 . S
C221 O228 1.185 . S
O222 C221 1.160 . S
O223 Zn224 1.899 . S
O223 C231 1.284 . S
Zn224 O223 1.899 . S
Zn224 O225 2.032 . S
Zn224 O228 2.086 . S
Zn224 O233 1.977 . S
O225 Zn224 2.032 . S
O225 C229 1.278 . S
C226 O227 1.203 . S
C226 O233 1.267 . S
O227 C226 1.203 . S
O228 C221 1.185 . S
O228 Zn224 2.086 . S
C229 O225 1.278 . S
C229 O230 1.211 . S
O230 C229 1.211 . S
C231 O223 1.284 . S
C231 O232 1.273 . S
O232 C231 1.273 . S
O233 Zn224 1.977 . S
O233 C226 1.267 . S
C234 O235 1.160 . S
C234 O241 1.185 . S
O235 C234 1.160 . S
O236 Zn237 1.899 . S
O236 C244 1.284 . S
Zn237 O236 1.899 . S
Zn237 O238 2.032 . S
Zn237 O241 2.086 . S
Zn237 O246 1.977 . S
O238 Zn237 2.032 . S
O238 C242 1.278 . S
C239 O240 1.203 . S
C239 O246 1.267 . S
O240 C239 1.203 . S
O241 C234 1.185 . S
O241 Zn237 2.086 . S
C242 O238 1.278 . S
C242 O243 1.211 . S
O243 C242 1.211 . S
C244 O236 1.284 . S
C244 O245 1.273 . S
O245 C244 1.273 . S
O246 Zn237 1.977 . S
O246 C239 1.267 . S
C247 O248 1.160 . S
C247 O254 1.185 . S
O248 C247 1.160 . S
O249 Zn250 1.899 . S
O249 C257 1.284 . S
Zn250 O249 1.899 . S
Zn250 O251 2.032 . S
Zn250 O254 2.086 1_545 S
Zn250 O259 1.977 . S
O251 Zn250 2.032 . S
O251 C255 1.278 . S
C252 O253 1.203 . S
C252 O259 1.267 . S
O253 C252 1.203 . S
O254 C247 1.185 . S
O254 Zn250 2.086 1_565 S
C255 O251 1.278 . S
C255 O256 1.211 . S
O256 C255 1.211 . S
C257 O249 1.284 . S
C257 O258 1.273 . S
O258 C257 1.273 . S
O259 Zn250 1.977 . S
O259 C252 1.267 . S
C260 O261 1.160 . S
C260 O267 1.185 . S
O261 C260 1.160 . S
O262 Zn263 1.899 . S
O262 C270 1.284 . S
Zn263 O262 1.899 . S
Zn263 O264 2.032 . S
Zn263 O267 2.086 . S
Zn263 O272 1.977 . S
O264 Zn263 2.032 . S
O264 C268 1.278 1_554 S
C265 O266 1.203 . S
C265 O272 1.267 . S
O266 C265 1.203 . S
O267 C260 1.185 . S
O267 Zn263 2.086 . S
C268 O264 1.278 1_556 S
C268 O269 1.211 . S
O269 C268 1.211 . S
C270 O262 1.284 . S
C270 O271 1.273 . S
O271 C270 1.273 . S
O272 Zn263 1.977 . S
O272 C265 1.267 . S
C273 O274 1.160 . S
C273 O280 1.185 . S
O274 C273 1.160 . S
O275 Zn276 1.899 . S
O275 C283 1.284 . S
Zn276 O275 1.899 . S
Zn276 O277 2.032 . S
Zn276 O280 2.086 . S
Zn276 O285 1.977 . S
O277 Zn276 2.032 . S
O277 C281 1.278 . S
C278 O279 1.203 . S
C278 O285 1.267 . S
O279 C278 1.203 . S
O280 C273 1.185 . S
O280 Zn276 2.086 . S
C281 O277 1.278 . S
C281 O282 1.211 . S
O282 C281 1.211 . S
C283 O275 1.284 . S
C283 O284 1.273 . S
O284 C283 1.273 . S
O285 Zn276 1.977 . S
O285 C278 1.267 . S
C286 O287 1.160 . S
C286 O293 1.185 . S
O287 C286 1.160 . S
O288 Zn289 1.899 . S
O288 C296 1.284 . S
Zn289 O288 1.899 . S
Zn289 O290 2.032 . S
Zn289 O293 2.086 . S
Zn289 O298 1.977 . S
O290 Zn289 2.032 . S
O290 C294 1.278 . S
C291 O292 1.203 . S
C291 O298 1.267 . S
O292 C291 1.203 . S
O293 C286 1.185 . S
O293 Zn289 2.086 . S
C294 O290 1.278 . S
C294 O295 1.211 . S
O295 C294 1.211 . S
C296 O288 1.284 . S
C296 O297 1.273 . S
O297 C296 1.273 . S
O298 Zn289 1.977 . S
O298 C291 1.267 . S
C299 O300 1.160 . S
C299 O306 1.185 . S
O300 C299 1.160 . S
O301 Zn302 1.899 . S
O301 C309 1.284 . S
Zn302 O301 1.899 . S
Zn302 O303 2.032 . S
Zn302 O306 2.086 . S
Zn302 O311 1.977 . S
O303 Zn302 2.032 . S
O303 C307 1.278 . S
C304 O305 1.203 . S
C304 O311 1.267 . S
O305 C304 1.203 . S
O306 C299 1.185 . S
O306 Zn302 2.086 . S
C307 O303 1.278 . S
C307 O308 1.211 . S
O308 C307 1.211 . S
C309 O301 1.284 . S
C309 O310 1.273 . S
O310 C309 1.273 . S
O311 Zn302 1.977 . S
O311 C304 1.267 . S
Tb312 C314 2.776 1_455 S
Tb312 O332 2.455 1_455 S
Tb312 O333 2.412 1_454 S
Tb312 O334 2.698 . S
Tb312 O335 2.429 1_554 S
Tb312 O336 2.389 . S
Tb312 O340 2.341 . S
Tb312 O343 2.361 1_545 S
Tb313 C323 2.809 1_545 S
Tb313 O334 2.325 . S
Tb313 O337 2.341 . S
Tb313 O338 2.484 1_545 S
Tb313 O339 2.440 . S
Tb313 O340 2.658 . S
Tb313 O341 2.409 . S
Tb313 O342 2.378 1_545 S
C314 Tb312 2.776 1_655 S
C314 C315 1.514 1_554 S
C314 O332 1.248 . S
C314 O333 1.266 1_554 S
C315 C314 1.514 1_556 S
C315 C316 1.359 1_556 S
C315 C320 1.348 . S
C316 C315 1.359 1_554 S
C316 C317 1.380 . S
C316 H344 0.929 . S
C317 C316 1.380 . S
C317 C318 1.347 1_554 S
C317 H345 0.931 . S
C318 C317 1.347 1_556 S
C318 C319 1.369 . S
C319 C318 1.369 . S
C319 C320 1.408 . S
C319 H346 0.930 . S
C320 C315 1.348 . S
C320 C319 1.408 . S
C320 H347 0.930 . S
C321 O334 1.281 1_556 S
C321 O335 1.254 . S
C322 O336 1.236 . S
C322 O337 1.266 . S
C323 Tb313 2.809 1_565 S
C323 C324 1.514 . S
C323 O338 1.248 . S
C323 O339 1.266 1_565 S
C324 C323 1.514 . S
C324 C325 1.359 . S
C324 C329 1.348 . S
C325 C324 1.359 . S
C325 C326 1.380 . S
C325 H348 0.929 . S
C326 C325 1.380 . S
C326 C327 1.347 . S
C326 H349 0.931 . S
C327 C326 1.347 . S
C327 C328 1.369 . S
C328 C327 1.369 . S
C328 C329 1.408 . S
C328 H350 0.930 . S
C329 C324 1.348 . S
C329 C328 1.408 . S
C329 H351 0.930 . S
C330 O340 1.281 . S
C330 O341 1.254 . S
C331 O342 1.236 . S
C331 O343 1.266 . S
O332 Tb312 2.455 1_655 S
O332 C314 1.248 . S
O333 Tb312 2.412 1_656 S
O333 C314 1.266 1_556 S
O334 Tb312 2.698 . S
O334 Tb313 2.325 . S
O334 C321 1.281 1_554 S
O335 Tb312 2.429 1_556 S
O335 C321 1.254 . S
O336 Tb312 2.389 . S
O336 C322 1.236 . S
O337 Tb313 2.341 . S
O337 C322 1.266 . S
O338 Tb313 2.484 1_565 S
O338 C323 1.248 . S
O339 Tb313 2.440 . S
O339 C323 1.266 1_545 S
O340 Tb312 2.341 . S
O340 Tb313 2.658 . S
O340 C330 1.281 . S
O341 Tb313 2.409 . S
O341 C330 1.254 . S
O342 Tb313 2.378 1_565 S
O342 C331 1.236 . S
O343 Tb312 2.361 1_565 S
O343 C331 1.266 . S
H344 C316 0.929 . S
H345 C317 0.931 . S
H346 C319 0.930 . S
H347 C320 0.930 . S
H348 C325 0.929 . S
H349 C326 0.931 . S
H350 C328 0.930 . S
H351 C329 0.930 . S
Tb352 C354 2.809 . S
Tb352 O372 2.484 . S
Tb352 O373 2.440 . S
Tb352 O374 2.658 . S
Tb352 O375 2.409 . S
Tb352 O376 2.378 . S
Tb352 O380 2.325 . S
Tb352 O383 2.341 . S
Tb353 C363 2.809 . S
Tb353 O374 2.325 . S
Tb353 O377 2.341 . S
Tb353 O378 2.484 . S
Tb353 O379 2.440 . S
Tb353 O380 2.658 . S
Tb353 O381 2.409 . S
Tb353 O382 2.378 . S
C354 Tb352 2.809 . S
C354 C355 1.514 . S
C354 O372 1.248 . S
C354 O373 1.266 . S
C355 C354 1.514 . S
C355 C356 1.359 . S
C355 C360 1.348 . S
C356 C355 1.359 . S
C356 C357 1.380 . S
C356 H384 0.929 . S
C357 C356 1.380 . S
C357 C358 1.347 . S
C357 H385 0.931 . S
C358 C357 1.347 . S
C358 C359 1.369 . S
C359 C358 1.369 . S
C359 C360 1.408 . S
C359 H386 0.930 . S
C360 C355 1.348 . S
C360 C359 1.408 . S
C360 H387 0.930 . S
C361 O374 1.281 . S
C361 O375 1.254 . S
C362 O376 1.236 . S
C362 O377 1.266 . S
C363 Tb353 2.809 . S
C363 C364 1.514 . S
C363 O378 1.248 . S
C363 O379 1.266 . S
C364 C363 1.514 . S
C364 C365 1.359 . S
C364 C369 1.348 . S
C365 C364 1.359 . S
C365 C366 1.380 . S
C365 H388 0.929 . S
C366 C365 1.380 . S
C366 C367 1.347 . S
C366 H389 0.931 . S
C367 C366 1.347 . S
C367 C368 1.369 . S
C368 C367 1.369 . S
C368 C369 1.408 . S
C368 H390 0.930 . S
C369 C364 1.348 . S
C369 C368 1.408 . S
C369 H391 0.930 . S
C370 O380 1.281 . S
C370 O381 1.254 . S
C371 O382 1.236 . S
C371 O383 1.266 . S
O372 Tb352 2.484 . S
O372 C354 1.248 . S
O373 Tb352 2.440 . S
O373 C354 1.266 . S
O374 Tb352 2.658 . S
O374 Tb353 2.325 . S
O374 C361 1.281 . S
O375 Tb352 2.409 . S
O375 C361 1.254 . S
O376 Tb352 2.378 . S
O376 C362 1.236 . S
O377 Tb353 2.341 . S
O377 C362 1.266 . S
O378 Tb353 2.484 . S
O378 C363 1.248 . S
O379 Tb353 2.440 . S
O379 C363 1.266 . S
O380 Tb352 2.325 . S
O380 Tb353 2.658 . S
O380 C370 1.281 . S
O381 Tb353 2.409 . S
O381 C370 1.254 . S
O382 Tb353 2.378 . S
O382 C371 1.236 . S
O383 Tb352 2.341 . S
O383 C371 1.266 . S
H384 C356 0.929 . S
H385 C357 0.931 . S
H386 C359 0.930 . S
H387 C360 0.930 . S
H388 C365 0.929 . S
H389 C366 0.931 . S
H390 C368 0.930 . S
H391 C369 0.930 . S
Tb392 C394 2.830 . S
Tb392 O412 2.484 . S
Tb392 O413 2.440 . S
Tb392 O414 2.658 . S
Tb392 O415 2.409 . S
Tb392 O416 2.378 1_545 S
Tb392 O420 2.325 . S
Tb392 O423 2.341 . S
Tb393 C403 2.809 . S
Tb393 O414 2.325 . S
Tb393 O417 2.341 1_545 S
Tb393 O418 2.484 . S
Tb393 O419 2.440 . S
Tb393 O420 2.658 . S
Tb393 O421 2.409 . S
Tb393 O422 2.378 . S
C394 Tb392 2.830 . S
C394 C395 1.493 1_545 S
C394 O412 1.248 . S
C394 O413 1.286 . S
C395 C394 1.493 1_565 S
C395 C396 1.359 . S
C395 C400 1.348 . S
C396 C395 1.359 . S
C396 C397 1.380 . S
C396 H424 0.929 . S
C397 C396 1.380 . S
C397 C398 1.347 . S
C397 H425 0.931 . S
C398 C397 1.347 . S
C398 C399 1.369 . S
C399 C398 1.369 . S
C399 C400 1.408 . S
C399 H426 0.930 . S
C400 C395 1.348 . S
C400 C399 1.408 . S
C400 H427 0.930 . S
C401 O414 1.281 . S
C401 O415 1.254 . S
C402 O416 1.236 . S
C402 O417 1.266 . S
C403 Tb393 2.809 . S
C403 C404 1.514 . S
C403 O418 1.248 . S
C403 O419 1.266 . S
C404 C403 1.514 . S
C404 C405 1.359 . S
C404 C409 1.348 . S
C405 C404 1.359 . S
C405 C406 1.380 . S
C405 H428 0.929 . S
C406 C405 1.380 . S
C406 C407 1.347 . S
C406 H429 0.931 . S
C407 C406 1.347 . S
C407 C408 1.369 . S
C408 C407 1.369 . S
C408 C409 1.408 . S
C408 H430 0.930 . S
C409 C404 1.348 . S
C409 C408 1.408 . S
C409 H431 0.930 . S
C410 O420 1.281 . S
C410 O421 1.254 . S
C411 O422 1.236 . S
C411 O423 1.266 . S
O412 Tb392 2.484 . S
O412 C394 1.248 . S
O413 Tb392 2.440 . S
O413 C394 1.286 . S
O414 Tb392 2.658 . S
O414 Tb393 2.325 . S
O414 C401 1.281 . S
O415 Tb392 2.409 . S
O415 C401 1.254 . S
O416 Tb392 2.378 1_565 S
O416 C402 1.236 . S
O417 Tb393 2.341 1_565 S
O417 C402 1.266 . S
O418 Tb393 2.484 . S
O418 C403 1.248 . S
O419 Tb393 2.440 . S
O419 C403 1.266 . S
O420 Tb392 2.325 . S
O420 Tb393 2.658 . S
O420 C410 1.281 . S
O421 Tb393 2.409 . S
O421 C410 1.254 . S
O422 Tb393 2.378 . S
O422 C411 1.236 . S
O423 Tb392 2.341 . S
O423 C411 1.266 . S
H424 C396 0.929 . S
H425 C397 0.931 . S
H426 C399 0.930 . S
H427 C400 0.930 . S
H428 C405 0.929 . S
H429 C406 0.931 . S
H430 C408 0.930 . S
H431 C409 0.930 . S
Tb432 C434 2.809 . S
Tb432 O452 2.484 . S
Tb432 O453 2.440 . S
Tb432 O454 2.658 . S
Tb432 O455 2.409 . S
Tb432 O456 2.378 . S
Tb432 O460 2.325 . S
Tb432 O463 2.341 . S
Tb433 C443 2.809 . S
Tb433 O454 2.325 . S
Tb433 O457 2.341 . S
Tb433 O458 2.484 . S
Tb433 O459 2.440 . S
Tb433 O460 2.658 . S
Tb433 O461 2.409 . S
Tb433 O462 2.378 . S
C434 Tb432 2.809 . S
C434 C435 1.514 . S
C434 O452 1.248 . S
C434 O453 1.266 . S
C435 C434 1.514 . S
C435 C436 1.359 . S
C435 C440 1.348 . S
C436 C435 1.359 . S
C436 C437 1.380 . S
C436 H464 0.929 . S
C437 C436 1.380 . S
C437 C438 1.347 . S
C437 H465 0.931 . S
C438 C437 1.347 . S
C438 C439 1.369 . S
C439 C438 1.369 . S
C439 C440 1.408 . S
C439 H466 0.930 . S
C440 C435 1.348 . S
C440 C439 1.408 . S
C440 H467 0.930 . S
C441 O454 1.281 . S
C441 O455 1.254 . S
C442 O456 1.236 . S
C442 O457 1.266 . S
C443 Tb433 2.809 . S
C443 C444 1.514 . S
C443 O458 1.248 . S
C443 O459 1.266 . S
C444 C443 1.514 . S
C444 C445 1.359 . S
C444 C449 1.348 . S
C445 C444 1.359 . S
C445 C446 1.380 . S
C445 H468 0.929 . S
C446 C445 1.380 . S
C446 C447 1.347 . S
C446 H469 0.931 . S
C447 C446 1.347 . S
C447 C448 1.369 . S
C448 C447 1.369 . S
C448 C449 1.408 . S
C448 H470 0.930 . S
C449 C444 1.348 . S
C449 C448 1.408 . S
C449 H471 0.930 . S
C450 O460 1.281 . S
C450 O461 1.254 . S
C451 O462 1.236 . S
C451 O463 1.266 . S
O452 Tb432 2.484 . S
O452 C434 1.248 . S
O453 Tb432 2.440 . S
O453 C434 1.266 . S
O454 Tb432 2.658 . S
O454 Tb433 2.325 . S
O454 C441 1.281 . S
O455 Tb432 2.409 . S
O455 C441 1.254 . S
O456 Tb432 2.378 . S
O456 C442 1.236 . S
O457 Tb433 2.341 . S
O457 C442 1.266 . S
O458 Tb433 2.484 . S
O458 C443 1.248 . S
O459 Tb433 2.440 . S
O459 C443 1.266 . S
O460 Tb432 2.325 . S
O460 Tb433 2.658 . S
O460 C450 1.281 . S
O461 Tb433 2.409 . S
O461 C450 1.254 . S
O462 Tb433 2.378 . S
O462 C451 1.236 . S
O463 Tb432 2.341 . S
O463 C451 1.266 . S
H464 C436 0.929 . S
H465 C437 0.931 . S
H466 C439 0.930 . S
H467 C440 0.930 . S
H468 C445 0.929 . S
H469 C446 0.931 . S
H470 C448 0.930 . S
H471 C449 0.930 . S
Tb472 C474 2.809 . S
Tb472 O492 2.484 . S
Tb472 O493 2.440 . S
Tb472 O494 2.658 . S
Tb472 O495 2.409 1_455 S
Tb472 O496 2.378 . S
Tb472 O500 2.325 . S
Tb472 O503 2.341 . S
Tb473 C483 2.809 . S
Tb473 O494 2.325 1_565 S
Tb473 O497 2.341 1_565 S
Tb473 O498 2.484 . S
Tb473 O499 2.440 . S
Tb473 O500 2.658 1_565 S
Tb473 O501 2.409 1_565 S
Tb473 O502 2.378 1_565 S
C474 Tb472 2.809 . S
C474 C475 1.514 . S
C474 O492 1.248 . S
C474 O493 1.266 . S
C475 C474 1.514 . S
C475 C476 1.359 . S
C475 C480 1.348 1_455 S
C476 C475 1.359 . S
C476 C477 1.380 . S
C476 H504 0.929 . S
C477 C476 1.380 . S
C477 C478 1.347 . S
C477 H505 0.931 . S
C478 C477 1.347 . S
C478 C479 1.369 1_455 S
C479 C478 1.369 1_655 S
C479 C480 1.408 . S
C479 H506 0.930 . S
C480 C475 1.348 1_655 S
C480 C479 1.408 . S
C480 H507 0.930 . S
C481 O494 1.281 1_655 S
C481 O495 1.254 . S
C482 O496 1.236 . S
C482 O497 1.266 . S
C483 Tb473 2.809 . S
C483 C484 1.514 . S
C483 O498 1.248 . S
C483 O499 1.266 . S
C484 C483 1.514 . S
C484 C485 1.359 . S
C484 C489 1.348 . S
C485 C484 1.359 . S
C485 C486 1.380 . S
C485 H508 0.929 . S
C486 C485 1.380 . S
C486 C487 1.347 . S
C486 H509 0.931 . S
C487 C486 1.347 . S
C487 C488 1.369 . S
C488 C487 1.369 . S
C488 C489 1.408 . S
C488 H510 0.930 . S
C489 C484 1.348 . S
C489 C488 1.408 . S
C489 H511 0.930 . S
C490 O500 1.281 . S
C490 O501 1.254 . S
C491 O502 1.236 . S
C491 O503 1.266 . S
O492 Tb472 2.484 . S
O492 C474 1.248 . S
O493 Tb472 2.440 . S
O493 C474 1.266 . S
O494 Tb472 2.658 . S
O494 Tb473 2.325 1_545 S
O494 C481 1.281 1_455 S
O495 Tb472 2.409 1_655 S
O495 C481 1.254 . S
O496 Tb472 2.378 . S
O496 C482 1.236 . S
O497 Tb473 2.341 1_545 S
O497 C482 1.266 . S
O498 Tb473 2.484 . S
O498 C483 1.248 . S
O499 Tb473 2.440 . S
O499 C483 1.266 . S
O500 Tb472 2.325 . S
O500 Tb473 2.658 1_545 S
O500 C490 1.281 . S
O501 Tb473 2.409 1_545 S
O501 C490 1.254 . S
O502 Tb473 2.378 1_545 S
O502 C491 1.236 . S
O503 Tb472 2.341 . S
O503 C491 1.266 . S
H504 C476 0.929 . S
H505 C477 0.931 . S
H506 C479 0.930 . S
H507 C480 0.930 . S
H508 C485 0.929 . S
H509 C486 0.931 . S
H510 C488 0.930 . S
H511 C489 0.930 . S
Tb512 C514 2.809 . S
Tb512 O532 2.484 . S
Tb512 O533 2.440 . S
Tb512 O534 2.658 . S
Tb512 O535 2.409 . S
Tb512 O536 2.378 . S
Tb512 O540 2.325 . S
Tb512 O543 2.341 . S
Tb513 C523 2.809 . S
Tb513 O534 2.325 . S
Tb513 O537 2.341 . S
Tb513 O538 2.484 . S
Tb513 O539 2.440 . S
Tb513 O540 2.658 . S
Tb513 O541 2.409 . S
Tb513 O542 2.378 . S
C514 Tb512 2.809 . S
C514 C515 1.514 . S
C514 O532 1.248 . S
C514 O533 1.266 . S
C515 C514 1.514 . S
C515 C516 1.359 . S
C515 C520 1.348 . S
C516 C515 1.359 . S
C516 C517 1.380 . S
C516 H544 0.929 . S
C517 C516 1.380 . S
C517 C518 1.347 . S
C517 H545 0.931 . S
C518 C517 1.347 . S
C518 C519 1.369 . S
C519 C518 1.369 . S
C519 C520 1.408 . S
C519 H546 0.930 . S
C520 C515 1.348 . S
C520 C519 1.408 . S
C520 H547 0.930 . S
C521 O534 1.281 . S
C521 O535 1.254 . S
C522 O536 1.236 . S
C522 O537 1.266 . S
C523 Tb513 2.809 . S
C523 C524 1.514 . S
C523 O538 1.248 . S
C523 O539 1.266 . S
C524 C523 1.514 . S
C524 C525 1.359 . S
C524 C529 1.348 . S
C525 C524 1.359 . S
C525 C526 1.380 . S
C525 H548 0.929 . S
C526 C525 1.380 . S
C526 C527 1.347 . S
C526 H549 0.931 . S
C527 C526 1.347 . S
C527 C528 1.369 . S
C528 C527 1.369 . S
C528 C529 1.408 . S
C528 H550 0.930 . S
C529 C524 1.348 . S
C529 C528 1.408 . S
C529 H551 0.930 . S
C530 O540 1.281 . S
C530 O541 1.254 . S
C531 O542 1.236 . S
C531 O543 1.266 . S
O532 Tb512 2.484 . S
O532 C514 1.248 . S
O533 Tb512 2.440 . S
O533 C514 1.266 . S
O534 Tb512 2.658 . S
O534 Tb513 2.325 . S
O534 C521 1.281 . S
O535 Tb512 2.409 . S
O535 C521 1.254 . S
O536 Tb512 2.378 . S
O536 C522 1.236 . S
O537 Tb513 2.341 . S
O537 C522 1.266 . S
O538 Tb513 2.484 . S
O538 C523 1.248 . S
O539 Tb513 2.440 . S
O539 C523 1.266 . S
O540 Tb512 2.325 . S
O540 Tb513 2.658 . S
O540 C530 1.281 . S
O541 Tb513 2.409 . S
O541 C530 1.254 . S
O542 Tb513 2.378 . S
O542 C531 1.236 . S
O543 Tb512 2.341 . S
O543 C531 1.266 . S
H544 C516 0.929 . S
H545 C517 0.931 . S
H546 C519 0.930 . S
H547 C520 0.930 . S
H548 C525 0.929 . S
H549 C526 0.931 . S
H550 C528 0.930 . S
H551 C529 0.930 . S
Tb552 C554 2.809 1_545 S
Tb552 O572 2.484 1_545 S
Tb552 O573 2.440 . S
Tb552 O574 2.658 . S
Tb552 O575 2.409 . S
Tb552 O576 2.378 . S
Tb552 O580 2.325 1_545 S
Tb552 O583 2.341 1_554 S
Tb553 C563 2.809 . S
Tb553 O574 2.325 . S
Tb553 O577 2.341 . S
Tb553 O578 2.484 . S
Tb553 O579 2.440 . S
Tb553 O580 2.658 1_545 S
Tb553 O581 2.409 1_545 S
Tb553 O582 2.378 . S
C554 Tb552 2.809 1_565 S
C554 C555 1.514 . S
C554 O572 1.248 . S
C554 O573 1.266 1_565 S
C555 C554 1.514 . S
C555 C556 1.359 . S
C555 C560 1.348 1_565 S
C556 C555 1.359 . S
C556 C557 1.380 . S
C556 H584 0.929 . S
C557 C556 1.380 . S
C557 C558 1.347 . S
C557 H585 0.931 . S
C558 C557 1.347 . S
C558 C559 1.369 . S
C559 C558 1.369 . S
C559 C560 1.408 1_565 S
C559 H586 0.930 1_565 S
C560 C555 1.348 1_545 S
C560 C559 1.408 1_545 S
C560 H587 0.930 . S
C561 O574 1.281 . S
C561 O575 1.254 . S
C562 O576 1.236 . S
C562 O577 1.266 . S
C563 Tb553 2.809 . S
C563 C564 1.514 . S
C563 O578 1.248 . S
C563 O579 1.266 . S
C564 C563 1.514 . S
C564 C565 1.359 . S
C564 C569 1.348 . S
C565 C564 1.359 . S
C565 C566 1.380 . S
C565 H588 0.929 . S
C566 C565 1.380 . S
C566 C567 1.347 . S
C566 H589 0.931 . S
C567 C566 1.347 . S
C567 C568 1.369 . S
C568 C567 1.369 . S
C568 C569 1.408 . S
C568 H590 0.930 . S
C569 C564 1.348 . S
C569 C568 1.408 . S
C569 H591 0.930 . S
C570 O580 1.281 . S
C570 O581 1.254 . S
C571 O582 1.236 1_556 S
C571 O583 1.266 . S
O572 Tb552 2.484 1_565 S
O572 C554 1.248 . S
O573 Tb552 2.440 . S
O573 C554 1.266 1_545 S
O574 Tb552 2.658 . S
O574 Tb553 2.325 . S
O574 C561 1.281 . S
O575 Tb552 2.409 . S
O575 C561 1.254 . S
O576 Tb552 2.378 . S
O576 C562 1.236 . S
O577 Tb553 2.341 . S
O577 C562 1.266 . S
O578 Tb553 2.484 . S
O578 C563 1.248 . S
O579 Tb553 2.440 . S
O579 C563 1.266 . S
O580 Tb552 2.325 1_565 S
O580 Tb553 2.658 1_565 S
O580 C570 1.281 . S
O581 Tb553 2.409 1_565 S
O581 C570 1.254 . S
O582 Tb553 2.378 . S
O582 C571 1.236 1_554 S
O583 Tb552 2.341 1_556 S
O583 C571 1.266 . S
H584 C556 0.929 . S
H585 C557 0.931 . S
H586 C559 0.930 1_545 S
H587 C560 0.930 . S
H588 C565 0.929 . S
H589 C566 0.931 . S
H590 C568 0.930 . S
H591 C569 0.930 . S
Tb592 C594 2.809 . S
Tb592 O612 2.484 . S
Tb592 O613 2.440 . S
Tb592 O614 2.658 . S
Tb592 O615 2.409 . S
Tb592 O616 2.378 . S
Tb592 O620 2.325 . S
Tb592 O623 2.341 . S
Tb593 C603 2.809 . S
Tb593 O614 2.325 . S
Tb593 O617 2.341 . S
Tb593 O618 2.484 . S
Tb593 O619 2.440 . S
Tb593 O620 2.658 . S
Tb593 O621 2.409 . S
Tb593 O622 2.378 . S
C594 Tb592 2.809 . S
C594 C595 1.514 . S
C594 O612 1.248 . S
C594 O613 1.266 . S
C595 C594 1.514 . S
C595 C596 1.359 . S
C595 C600 1.348 . S
C596 C595 1.359 . S
C596 C597 1.380 . S
C596 H624 0.929 . S
C597 C596 1.380 . S
C597 C598 1.347 . S
C597 H625 0.931 . S
C598 C597 1.347 . S
C598 C599 1.369 . S
C599 C598 1.369 . S
C599 C600 1.408 . S
C599 H626 0.930 . S
C600 C595 1.348 . S
C600 C599 1.408 . S
C600 H627 0.930 . S
C601 O614 1.281 . S
C601 O615 1.254 . S
C602 O616 1.236 . S
C602 O617 1.266 . S
C603 Tb593 2.809 . S
C603 C604 1.514 . S
C603 O618 1.248 . S
C603 O619 1.266 . S
C604 C603 1.514 . S
C604 C605 1.359 . S
C604 C609 1.348 . S
C605 C604 1.359 . S
C605 C606 1.380 . S
C605 H628 0.929 . S
C606 C605 1.380 . S
C606 C607 1.347 . S
C606 H629 0.931 . S
C607 C606 1.347 . S
C607 C608 1.369 . S
C608 C607 1.369 . S
C608 C609 1.408 . S
C608 H630 0.930 . S
C609 C604 1.348 . S
C609 C608 1.408 . S
C609 H631 0.930 . S
C610 O620 1.281 . S
C610 O621 1.254 . S
C611 O622 1.236 . S
C611 O623 1.266 . S
O612 Tb592 2.484 . S
O612 C594 1.248 . S
O613 Tb592 2.440 . S
O613 C594 1.266 . S
O614 Tb592 2.658 . S
O614 Tb593 2.325 . S
O614 C601 1.281 . S
O615 Tb592 2.409 . S
O615 C601 1.254 . S
O616 Tb592 2.378 . S
O616 C602 1.236 . S
O617 Tb593 2.341 . S
O617 C602 1.266 . S
O618 Tb593 2.484 . S
O618 C603 1.248 . S
O619 Tb593 2.440 . S
O619 C603 1.266 . S
O620 Tb592 2.325 . S
O620 Tb593 2.658 . S
O620 C610 1.281 . S
O621 Tb593 2.409 . S
O621 C610 1.254 . S
O622 Tb593 2.378 . S
O622 C611 1.236 . S
O623 Tb592 2.341 . S
O623 C611 1.266 . S
H624 C596 0.929 . S
H625 C597 0.931 . S
H626 C599 0.930 . S
H627 C600 0.930 . S
H628 C605 0.929 . S
H629 C606 0.931 . S
H630 C608 0.930 . S
H631 C609 0.930 . S
Tb632 C634 2.809 . S
Tb632 O652 2.484 . S
Tb632 O653 2.440 . S
Tb632 O654 2.658 . S
Tb632 O655 2.409 . S
Tb632 O656 2.338 1_554 S
Tb632 O660 2.325 . S
Tb632 O663 2.341 . S
Tb633 C643 2.809 . S
Tb633 O654 2.325 . S
Tb633 O657 2.341 1_554 S
Tb633 O658 2.484 . S
Tb633 O659 2.440 . S
Tb633 O660 2.658 . S
Tb633 O661 2.409 . S
Tb633 O662 2.378 . S
C634 Tb632 2.809 . S
C634 C635 1.514 1_554 S
C634 O652 1.248 . S
C634 O653 1.266 . S
C635 C634 1.514 1_556 S
C635 C636 1.359 . S
C635 C640 1.348 . S
C636 C635 1.359 . S
C636 C637 1.380 . S
C636 H664 0.929 . S
C637 C636 1.380 . S
C637 C638 1.347 . S
C637 H665 0.931 . S
C638 C637 1.347 . S
C638 C639 1.369 . S
C639 C638 1.369 . S
C639 C640 1.408 . S
C639 H666 0.930 . S
C640 C635 1.348 . S
C640 C639 1.408 . S
C640 H667 0.906 1_556 S
C641 O654 1.281 . S
C641 O655 1.254 . S
C642 O656 1.267 . S
C642 O657 1.266 . S
C643 Tb633 2.809 . S
C643 C644 1.514 . S
C643 O658 1.248 . S
C643 O659 1.266 . S
C644 C643 1.514 . S
C644 C645 1.359 . S
C644 C649 1.348 . S
C645 C644 1.359 . S
C645 C646 1.380 . S
C645 H668 0.929 . S
C646 C645 1.380 . S
C646 C647 1.347 . S
C646 H669 0.931 . S
C647 C646 1.347 . S
C647 C648 1.369 . S
C648 C647 1.369 . S
C648 C649 1.408 . S
C648 H670 0.930 . S
C649 C644 1.348 . S
C649 C648 1.408 . S
C649 H671 0.930 . S
C650 O660 1.281 . S
C650 O661 1.254 . S
C651 O662 1.236 . S
C651 O663 1.266 . S
O652 Tb632 2.484 . S
O652 C634 1.248 . S
O653 Tb632 2.440 . S
O653 C634 1.266 . S
O654 Tb632 2.658 . S
O654 Tb633 2.325 . S
O654 C641 1.281 . S
O655 Tb632 2.409 . S
O655 C641 1.254 . S
O656 Tb632 2.338 1_556 S
O656 C642 1.267 . S
O657 Tb633 2.341 1_556 S
O657 C642 1.266 . S
O658 Tb633 2.484 . S
O658 C643 1.248 . S
O659 Tb633 2.440 . S
O659 C643 1.266 . S
O660 Tb632 2.325 . S
O660 Tb633 2.658 . S
O660 C650 1.281 . S
O661 Tb633 2.409 . S
O661 C650 1.254 . S
O662 Tb633 2.378 . S
O662 C651 1.236 . S
O663 Tb632 2.341 . S
O663 C651 1.266 . S
H664 C636 0.929 . S
H665 C637 0.931 . S
H666 C639 0.930 . S
H667 C640 0.906 1_554 S
H668 C645 0.929 . S
H669 C646 0.931 . S
H670 C648 0.930 . S
H671 C649 0.930 . S
Tb672 C674 2.809 . S
Tb672 O692 2.484 . S
Tb672 O693 2.440 . S
Tb672 O694 2.658 . S
Tb672 O695 2.409 . S
Tb672 O696 2.378 . S
Tb672 O700 2.325 . S
Tb672 O703 2.341 . S
Tb673 C683 2.809 . S
Tb673 O694 2.325 . S
Tb673 O697 2.341 . S
Tb673 O698 2.484 . S
Tb673 O699 2.440 . S
Tb673 O700 2.658 . S
Tb673 O701 2.409 . S
Tb673 O702 2.378 . S
C674 Tb672 2.809 . S
C674 C675 1.514 . S
C674 O692 1.248 . S
C674 O693 1.266 . S
C675 C674 1.514 . S
C675 C676 1.359 . S
C675 C680 1.348 . S
C676 C675 1.359 . S
C676 C677 1.380 . S
C676 H704 0.929 . S
C677 C676 1.380 . S
C677 C678 1.347 . S
C677 H705 0.931 . S
C678 C677 1.347 . S
C678 C679 1.369 . S
C679 C678 1.369 . S
C679 C680 1.408 . S
C679 H706 0.930 . S
C680 C675 1.348 . S
C680 C679 1.408 . S
C680 H707 0.930 . S
C681 O694 1.281 . S
C681 O695 1.254 . S
C682 O696 1.236 . S
C682 O697 1.266 . S
C683 Tb673 2.809 . S
C683 C684 1.514 . S
C683 O698 1.248 . S
C683 O699 1.266 . S
C684 C683 1.514 . S
C684 C685 1.359 . S
C684 C689 1.348 . S
C685 C684 1.359 . S
C685 C686 1.380 . S
C685 H708 0.929 . S
C686 C685 1.380 . S
C686 C687 1.347 . S
C686 H709 0.931 . S
C687 C686 1.347 . S
C687 C688 1.369 . S
C688 C687 1.369 . S
C688 C689 1.408 . S
C688 H710 0.930 . S
C689 C684 1.348 . S
C689 C688 1.408 . S
C689 H711 0.930 . S
C690 O700 1.281 . S
C690 O701 1.254 . S
C691 O702 1.236 . S
C691 O703 1.266 . S
O692 Tb672 2.484 . S
O692 C674 1.248 . S
O693 Tb672 2.440 . S
O693 C674 1.266 . S
O694 Tb672 2.658 . S
O694 Tb673 2.325 . S
O694 C681 1.281 . S
O695 Tb672 2.409 . S
O695 C681 1.254 . S
O696 Tb672 2.378 . S
O696 C682 1.236 . S
O697 Tb673 2.341 . S
O697 C682 1.266 . S
O698 Tb673 2.484 . S
O698 C683 1.248 . S
O699 Tb673 2.440 . S
O699 C683 1.266 . S
O700 Tb672 2.325 . S
O700 Tb673 2.658 . S
O700 C690 1.281 . S
O701 Tb673 2.409 . S
O701 C690 1.254 . S
O702 Tb673 2.378 . S
O702 C691 1.236 . S
O703 Tb672 2.341 . S
O703 C691 1.266 . S
H704 C676 0.929 . S
H705 C677 0.931 . S
H706 C679 0.930 . S
H707 C680 0.930 . S
H708 C685 0.929 . S
H709 C686 0.931 . S
H710 C688 0.930 . S
H711 C689 0.930 . S
Tb712 C714 2.809 1_455 S
Tb712 O732 2.484 1_455 S
Tb712 O733 2.440 1_455 S
Tb712 O734 2.658 . S
Tb712 O735 2.409 . S
Tb712 O736 2.378 . S
Tb712 O740 2.325 . S
Tb712 O743 2.341 . S
Tb713 C723 2.809 . S
Tb713 O734 2.325 . S
Tb713 O737 2.341 . S
Tb713 O738 2.484 . S
Tb713 O739 2.440 . S
Tb713 O740 2.658 . S
Tb713 O741 2.409 . S
Tb713 O742 2.378 . S
C714 Tb712 2.809 1_655 S
C714 C715 1.514 . S
C714 O732 1.248 . S
C714 O733 1.266 . S
C715 C714 1.514 . S
C715 C716 1.359 . S
C715 C720 1.348 . S
C716 C715 1.359 . S
C716 C717 1.380 . S
C716 H744 0.929 . S
C717 C716 1.380 . S
C717 C718 1.347 . S
C717 H745 0.931 . S
C718 C717 1.347 . S
C718 C719 1.369 . S
C719 C718 1.369 . S
C719 C720 1.408 . S
C719 H746 0.930 . S
C720 C715 1.348 . S
C720 C719 1.408 . S
C720 H747 0.930 . S
C721 O734 1.281 . S
C721 O735 1.254 . S
C722 O736 1.236 . S
C722 O737 1.266 . S
C723 Tb713 2.809 . S
C723 C724 1.514 . S
C723 O738 1.248 . S
C723 O739 1.266 . S
C724 C723 1.514 . S
C724 C725 1.359 . S
C724 C729 1.348 . S
C725 C724 1.359 . S
C725 C726 1.380 . S
C725 H748 0.929 . S
C726 C725 1.380 . S
C726 C727 1.347 . S
C726 H749 0.931 . S
C727 C726 1.347 . S
C727 C728 1.369 . S
C728 C727 1.369 . S
C728 C729 1.408 . S
C728 H750 0.930 . S
C729 C724 1.348 . S
C729 C728 1.408 . S
C729 H751 0.930 . S
C730 O740 1.281 . S
C730 O741 1.254 . S
C731 O742 1.236 . S
C731 O743 1.266 . S
O732 Tb712 2.484 1_655 S
O732 C714 1.248 . S
O733 Tb712 2.440 1_655 S
O733 C714 1.266 . S
O734 Tb712 2.658 . S
O734 Tb713 2.325 . S
O734 C721 1.281 . S
O735 Tb712 2.409 . S
O735 C721 1.254 . S
O736 Tb712 2.378 . S
O736 C722 1.236 . S
O737 Tb713 2.341 . S
O737 C722 1.266 . S
O738 Tb713 2.484 . S
O738 C723 1.248 . S
O739 Tb713 2.440 . S
O739 C723 1.266 . S
O740 Tb712 2.325 . S
O740 Tb713 2.658 . S
O740 C730 1.281 . S
O741 Tb713 2.409 . S
O741 C730 1.254 . S
O742 Tb713 2.378 . S
O742 C731 1.236 . S
O743 Tb712 2.341 . S
O743 C731 1.266 . S
H744 C716 0.929 . S
H745 C717 0.931 . S
H746 C719 0.930 . S
H747 C720 0.930 . S
H748 C725 0.929 . S
H749 C726 0.931 . S
H750 C728 0.930 . S
H751 C729 0.930 . S
Tb752 C754 2.809 . S
Tb752 O772 2.484 . S
Tb752 O773 2.440 . S
Tb752 O774 2.658 . S
Tb752 O775 2.409 . S
Tb752 O776 2.378 . S
Tb752 O780 2.325 . S
Tb752 O783 2.341 . S
Tb753 C763 2.809 . S
Tb753 O774 2.325 . S
Tb753 O777 2.341 . S
Tb753 O778 2.484 . S
Tb753 O779 2.440 . S
Tb753 O780 2.658 . S
Tb753 O781 2.409 . S
Tb753 O782 2.378 . S
C754 Tb752 2.809 . S
C754 C755 1.514 . S
C754 O772 1.248 . S
C754 O773 1.266 . S
C755 C754 1.514 . S
C755 C756 1.359 . S
C755 C760 1.348 . S
C756 C755 1.359 . S
C756 C757 1.380 . S
C756 H784 0.929 . S
C757 C756 1.380 . S
C757 C758 1.347 . S
C757 H785 0.931 . S
C758 C757 1.347 . S
C758 C759 1.369 . S
C759 C758 1.369 . S
C759 C760 1.408 . S
C759 H786 0.930 . S
C760 C755 1.348 . S
C760 C759 1.408 . S
C760 H787 0.930 . S
C761 O774 1.281 . S
C761 O775 1.254 . S
C762 O776 1.236 . S
C762 O777 1.266 . S
C763 Tb753 2.809 . S
C763 C764 1.514 . S
C763 O778 1.248 . S
C763 O779 1.266 . S
C764 C763 1.514 . S
C764 C765 1.359 . S
C764 C769 1.348 . S
C765 C764 1.359 . S
C765 C766 1.380 . S
C765 H788 0.929 . S
C766 C765 1.380 . S
C766 C767 1.347 . S
C766 H789 0.931 . S
C767 C766 1.347 . S
C767 C768 1.369 . S
C768 C767 1.369 . S
C768 C769 1.408 . S
C768 H790 0.930 . S
C769 C764 1.348 . S
C769 C768 1.408 . S
C769 H791 0.930 . S
C770 O780 1.281 . S
C770 O781 1.254 . S
C771 O782 1.236 . S
C771 O783 1.266 . S
O772 Tb752 2.484 . S
O772 C754 1.248 . S
O773 Tb752 2.440 . S
O773 C754 1.266 . S
O774 Tb752 2.658 . S
O774 Tb753 2.325 . S
O774 C761 1.281 . S
O775 Tb752 2.409 . S
O775 C761 1.254 . S
O776 Tb752 2.378 . S
O776 C762 1.236 . S
O777 Tb753 2.341 . S
O777 C762 1.266 . S
O778 Tb753 2.484 . S
O778 C763 1.248 . S
O779 Tb753 2.440 . S
O779 C763 1.266 . S
O780 Tb752 2.325 . S
O780 Tb753 2.658 . S
O780 C770 1.281 . S
O781 Tb753 2.409 . S
O781 C770 1.254 . S
O782 Tb753 2.378 . S
O782 C771 1.236 . S
O783 Tb752 2.341 . S
O783 C771 1.266 . S
H784 C756 0.929 . S
H785 C757 0.931 . S
H786 C759 0.930 . S
H787 C760 0.930 . S
H788 C765 0.929 . S
H789 C766 0.931 . S
H790 C768 0.930 . S
H791 C769 0.930 . S
Tb792 C794 2.809 . S
Tb792 O812 2.484 . S
Tb792 O813 2.440 . S
Tb792 O814 2.658 . S
Tb792 O815 2.409 . S
Tb792 O816 2.378 . S
Tb792 O820 2.325 . S
Tb792 O823 2.341 . S
Tb793 C803 2.809 . S
Tb793 O814 2.325 . S
Tb793 O817 2.341 . S
Tb793 O818 2.484 . S
Tb793 O819 2.440 . S
Tb793 O820 2.658 . S
Tb793 O821 2.409 . S
Tb793 O822 2.378 . S
C794 Tb792 2.809 . S
C794 C795 1.514 . S
C794 O812 1.248 . S
C794 O813 1.266 . S
C795 C794 1.514 . S
C795 C796 1.359 . S
C795 C800 1.348 . S
C796 C795 1.359 . S
C796 C797 1.380 . S
C796 H824 0.929 . S
C797 C796 1.380 . S
C797 C798 1.347 . S
C797 H825 0.931 . S
C798 C797 1.347 . S
C798 C799 1.369 . S
C799 C798 1.369 . S
C799 C800 1.408 . S
C799 H826 0.930 . S
C800 C795 1.348 . S
C800 C799 1.408 . S
C800 H827 0.930 . S
C801 O814 1.281 . S
C801 O815 1.254 . S
C802 O816 1.236 . S
C802 O817 1.266 . S
C803 Tb793 2.809 . S
C803 C804 1.514 . S
C803 O818 1.248 . S
C803 O819 1.266 . S
C804 C803 1.514 . S
C804 C805 1.359 . S
C804 C809 1.348 . S
C805 C804 1.359 . S
C805 C806 1.380 . S
C805 H828 0.929 . S
C806 C805 1.380 . S
C806 C807 1.347 . S
C806 H829 0.931 . S
C807 C806 1.347 . S
C807 C808 1.369 . S
C808 C807 1.369 . S
C808 C809 1.408 . S
C808 H830 0.930 . S
C809 C804 1.348 . S
C809 C808 1.408 . S
C809 H831 0.930 . S
C810 O820 1.281 . S
C810 O821 1.254 . S
C811 O822 1.236 . S
C811 O823 1.266 . S
O812 Tb792 2.484 . S
O812 C794 1.248 . S
O813 Tb792 2.440 . S
O813 C794 1.266 . S
O814 Tb792 2.658 . S
O814 Tb793 2.325 . S
O814 C801 1.281 . S
O815 Tb792 2.409 . S
O815 C801 1.254 . S
O816 Tb792 2.378 . S
O816 C802 1.236 . S
O817 Tb793 2.341 . S
O817 C802 1.266 . S
O818 Tb793 2.484 . S
O818 C803 1.248 . S
O819 Tb793 2.440 . S
O819 C803 1.266 . S
O820 Tb792 2.325 . S
O820 Tb793 2.658 . S
O820 C810 1.281 . S
O821 Tb793 2.409 . S
O821 C810 1.254 . S
O822 Tb793 2.378 . S
O822 C811 1.236 . S
O823 Tb792 2.341 . S
O823 C811 1.266 . S
H824 C796 0.929 . S
H825 C797 0.931 . S
H826 C799 0.930 . S
H827 C800 0.930 . S
H828 C805 0.929 . S
H829 C806 0.931 . S
H830 C808 0.930 . S
H831 C809 0.930 . S
Tb832 C834 2.809 . S
Tb832 O852 2.484 . S
Tb832 O853 2.440 . S
Tb832 O854 2.658 . S
Tb832 O855 2.409 . S
Tb832 O856 2.378 . S
Tb832 O860 2.325 . S
Tb832 O863 2.341 . S
Tb833 C843 2.809 . S
Tb833 O854 2.325 . S
Tb833 O857 2.341 . S
Tb833 O858 2.484 . S
Tb833 O859 2.440 . S
Tb833 O860 2.658 . S
Tb833 O861 2.409 . S
Tb833 O862 2.378 . S
C834 Tb832 2.809 . S
C834 C835 1.514 . S
C834 O852 1.248 . S
C834 O853 1.266 . S
C835 C834 1.514 . S
C835 C836 1.359 . S
C835 C840 1.348 . S
C836 C835 1.359 . S
C836 C837 1.380 . S
C836 H864 0.929 . S
C837 C836 1.380 . S
C837 C838 1.347 . S
C837 H865 0.931 . S
C838 C837 1.347 . S
C838 C839 1.369 . S
C839 C838 1.369 . S
C839 C840 1.408 . S
C839 H866 0.930 . S
C840 C835 1.348 . S
C840 C839 1.408 . S
C840 H867 0.930 . S
C841 O854 1.281 . S
C841 O855 1.254 . S
C842 O856 1.236 . S
C842 O857 1.266 . S
C843 Tb833 2.809 . S
C843 C844 1.514 . S
C843 O858 1.248 . S
C843 O859 1.266 . S
C844 C843 1.514 . S
C844 C845 1.359 . S
C844 C849 1.348 . S
C845 C844 1.359 . S
C845 C846 1.380 . S
C845 H868 0.929 . S
C846 C845 1.380 . S
C846 C847 1.347 . S
C846 H869 0.931 . S
C847 C846 1.347 . S
C847 C848 1.369 . S
C848 C847 1.369 . S
C848 C849 1.408 . S
C848 H870 0.930 . S
C849 C844 1.348 . S
C849 C848 1.408 . S
C849 H871 0.930 . S
C850 O860 1.281 . S
C850 O861 1.254 . S
C851 O862 1.236 . S
C851 O863 1.266 . S
O852 Tb832 2.484 . S
O852 C834 1.248 . S
O853 Tb832 2.440 . S
O853 C834 1.266 . S
O854 Tb832 2.658 . S
O854 Tb833 2.325 . S
O854 C841 1.281 . S
O855 Tb832 2.409 . S
O855 C841 1.254 . S
O856 Tb832 2.378 . S
O856 C842 1.236 . S
O857 Tb833 2.341 . S
O857 C842 1.266 . S
O858 Tb833 2.484 . S
O858 C843 1.248 . S
O859 Tb833 2.440 . S
O859 C843 1.266 . S
O860 Tb832 2.325 . S
O860 Tb833 2.658 . S
O860 C850 1.281 . S
O861 Tb833 2.409 . S
O861 C850 1.254 . S
O862 Tb833 2.378 . S
O862 C851 1.236 . S
O863 Tb832 2.341 . S
O863 C851 1.266 . S
H864 C836 0.929 . S
H865 C837 0.931 . S
H866 C839 0.930 . S
H867 C840 0.930 . S
H868 C845 0.929 . S
H869 C846 0.931 . S
H870 C848 0.930 . S
H871 C849 0.930 . S
Tb872 C874 2.809 . S
Tb872 O892 2.484 . S
Tb872 O893 2.440 . S
Tb872 O894 2.658 . S
Tb872 O895 2.409 . S
Tb872 O896 2.378 . S
Tb872 O900 2.325 . S
Tb872 O903 2.341 . S
Tb873 C883 2.809 . S
Tb873 O894 2.325 . S
Tb873 O897 2.341 . S
Tb873 O898 2.484 . S
Tb873 O899 2.440 . S
Tb873 O900 2.658 . S
Tb873 O901 2.409 . S
Tb873 O902 2.378 . S
C874 Tb872 2.809 . S
C874 C875 1.514 . S
C874 O892 1.248 . S
C874 O893 1.266 . S
C875 C874 1.514 . S
C875 C876 1.359 . S
C875 C880 1.348 . S
C876 C875 1.359 . S
C876 C877 1.380 . S
C876 H904 0.929 . S
C877 C876 1.380 . S
C877 C878 1.347 . S
C877 H905 0.931 . S
C878 C877 1.347 . S
C878 C879 1.369 . S
C879 C878 1.369 . S
C879 C880 1.408 . S
C879 H906 0.930 . S
C880 C875 1.348 . S
C880 C879 1.408 . S
C880 H907 0.930 . S
C881 O894 1.281 . S
C881 O895 1.254 . S
C882 O896 1.236 . S
C882 O897 1.266 . S
C883 Tb873 2.809 . S
C883 C884 1.514 . S
C883 O898 1.248 . S
C883 O899 1.266 . S
C884 C883 1.514 . S
C884 C885 1.359 . S
C884 C889 1.348 . S
C885 C884 1.359 . S
C885 C886 1.380 . S
C885 H908 0.929 . S
C886 C885 1.380 . S
C886 C887 1.347 . S
C886 H909 0.931 . S
C887 C886 1.347 . S
C887 C888 1.369 . S
C888 C887 1.369 . S
C888 C889 1.408 . S
C888 H910 0.930 . S
C889 C884 1.348 . S
C889 C888 1.408 . S
C889 H911 0.930 . S
C890 O900 1.281 . S
C890 O901 1.254 . S
C891 O902 1.236 . S
C891 O903 1.266 . S
O892 Tb872 2.484 . S
O892 C874 1.248 . S
O893 Tb872 2.440 . S
O893 C874 1.266 . S
O894 Tb872 2.658 . S
O894 Tb873 2.325 . S
O894 C881 1.281 . S
O895 Tb872 2.409 . S
O895 C881 1.254 . S
O896 Tb872 2.378 . S
O896 C882 1.236 . S
O897 Tb873 2.341 . S
O897 C882 1.266 . S
O898 Tb873 2.484 . S
O898 C883 1.248 . S
O899 Tb873 2.440 . S
O899 C883 1.266 . S
O900 Tb872 2.325 . S
O900 Tb873 2.658 . S
O900 C890 1.281 . S
O901 Tb873 2.409 . S
O901 C890 1.254 . S
O902 Tb873 2.378 . S
O902 C891 1.236 . S
O903 Tb872 2.341 . S
O903 C891 1.266 . S
H904 C876 0.929 . S
H905 C877 0.931 . S
H906 C879 0.930 . S
H907 C880 0.930 . S
H908 C885 0.929 . S
H909 C886 0.931 . S
H910 C888 0.930 . S
H911 C889 0.930 . S
Tb912 C914 2.809 . S
Tb912 O932 2.484 . S
Tb912 O933 2.440 1_554 S
Tb912 O934 2.658 . S
Tb912 O935 2.409 1_554 S
Tb912 O936 2.378 . S
Tb912 O940 2.325 . S
Tb912 O943 2.341 . S
Tb913 C923 2.809 1_455 S
Tb913 O934 2.325 . S
Tb913 O937 2.341 . S
Tb913 O938 2.484 1_455 S
Tb913 O939 2.440 1_455 S
Tb913 O940 2.658 . S
Tb913 O941 2.409 . S
Tb913 O942 2.378 . S
C914 Tb912 2.809 . S
C914 C915 1.514 . S
C914 O932 1.248 . S
C914 O933 1.266 1_554 S
C915 C914 1.514 . S
C915 C916 1.359 . S
C915 C920 1.348 1_554 S
C916 C915 1.359 . S
C916 C917 1.380 . S
C916 H944 0.929 . S
C917 C916 1.380 . S
C917 C918 1.347 1_554 S
C917 H945 0.931 . S
C918 C917 1.347 1_556 S
C918 C919 1.369 . S
C919 C918 1.369 . S
C919 C920 1.408 . S
C919 H946 0.930 . S
C920 C915 1.348 1_556 S
C920 C919 1.408 . S
C920 H947 0.930 . S
C921 O934 1.281 1_556 S
C921 O935 1.254 . S
C922 O936 1.236 . S
C922 O937 1.266 . S
C923 Tb913 2.809 1_655 S
C923 C924 1.514 . S
C923 O938 1.248 . S
C923 O939 1.266 . S
C924 C923 1.514 . S
C924 C925 1.359 . S
C924 C929 1.348 . S
C925 C924 1.359 . S
C925 C926 1.380 . S
C925 H948 0.929 . S
C926 C925 1.380 . S
C926 C927 1.347 . S
C926 H949 0.931 . S
C927 C926 1.347 . S
C927 C928 1.369 . S
C928 C927 1.369 . S
C928 C929 1.408 . S
C928 H950 0.930 . S
C929 C924 1.348 . S
C929 C928 1.408 . S
C929 H951 0.930 . S
C930 O940 1.281 . S
C930 O941 1.254 . S
C931 O942 1.236 . S
C931 O943 1.266 . S
O932 Tb912 2.484 . S
O932 C914 1.248 . S
O933 Tb912 2.440 1_556 S
O933 C914 1.266 1_556 S
O934 Tb912 2.658 . S
O934 Tb913 2.325 . S
O934 C921 1.281 1_554 S
O935 Tb912 2.409 1_556 S
O935 C921 1.254 . S
O936 Tb912 2.378 . S
O936 C922 1.236 . S
O937 Tb913 2.341 . S
O937 C922 1.266 . S
O938 Tb913 2.484 1_655 S
O938 C923 1.248 . S
O939 Tb913 2.440 1_655 S
O939 C923 1.266 . S
O940 Tb912 2.325 . S
O940 Tb913 2.658 . S
O940 C930 1.281 . S
O941 Tb913 2.409 . S
O941 C930 1.254 . S
O942 Tb913 2.378 . S
O942 C931 1.236 . S
O943 Tb912 2.341 . S
O943 C931 1.266 . S
H944 C916 0.929 . S
H945 C917 0.931 . S
H946 C919 0.930 . S
H947 C920 0.930 . S
H948 C925 0.929 . S
H949 C926 0.931 . S
H950 C928 0.930 . S
H951 C929 0.930 . S
H952 C960 0.929 . S
H953 C962 0.930 . S
H954 C964 0.930 . S
H955 C967 0.929 . S
H956 C970 0.930 . S
H957 C972 0.960 . S
H958 C972 0.960 . S
H959 C972 0.960 . S
C960 H952 0.929 . S
C960 C961 1.377 1_655 S
C960 C962 1.384 . S
C961 C960 1.377 1_455 S
C961 C967 1.390 . S
C962 H953 0.930 . S
C962 C960 1.384 . S
C962 C963 1.372 1_655 S
C963 C962 1.372 1_455 S
C963 C964 1.400 . S
C963 C968 1.490 . S
C964 H954 0.930 . S
C964 C963 1.400 . S
C964 C967 1.386 . S
H965 C981 0.930 . S
H966 C982 0.931 . S
C967 H955 0.929 . S
C967 C961 1.390 . S
C967 C964 1.386 . S
C968 C963 1.490 . S
C968 C970 1.395 . S
C968 C971 1.403 . S
H969 C975 0.884 1_554 S
C970 H956 0.930 . S
C970 C968 1.395 . S
C970 C973 1.403 . S
C971 C968 1.403 . S
C971 C972 1.524 1_556 S
C971 C975 1.419 . S
C972 H957 0.960 . S
C972 H958 0.960 . S
C972 H959 0.960 . S
C972 C971 1.524 1_554 S
C973 C970 1.403 . S
C973 C974 1.392 . S
C973 C977 1.494 1_455 S
C974 C973 1.392 . S
C974 C975 1.412 . S
C974 C976 1.478 . S
C975 H969 0.884 1_556 S
C975 C971 1.419 . S
C975 C974 1.412 . S
C976 C974 1.478 . S
C976 C978 1.381 . S
C976 C982 1.383 . S
C977 C973 1.494 1_655 S
C977 H983 0.961 . S
C977 H984 0.957 1_655 S
C977 H985 0.963 . S
C978 C976 1.381 . S
C978 C979 1.394 1_556 S
C978 H986 0.930 1_455 S
C979 C978 1.394 1_554 S
C979 C980 1.383 . S
C979 H987 0.929 1_455 S
C980 C979 1.383 . S
C980 C981 1.377 . S
C981 H965 0.930 . S
C981 C980 1.377 . S
C981 C982 1.379 1_554 S
C982 H966 0.931 . S
C982 C976 1.383 . S
C982 C981 1.379 1_556 S
H983 C977 0.961 . S
H984 C977 0.957 1_455 S
H985 C977 0.963 . S
H986 C978 0.930 1_655 S
H987 C979 0.929 1_655 S
H988 C996 0.929 . S
H989 C998 0.930 . S
H990 C1000 0.930 . S
H991 C1003 0.929 . S
H992 C1006 0.930 . S
H993 C1008 0.960 . S
H994 C1008 0.960 . S
H995 C1008 0.960 . S
C996 H988 0.929 . S
C996 C997 1.377 . S
C996 C998 1.384 . S
C997 C996 1.377 . S
C997 C1003 1.390 . S
C998 H989 0.930 . S
C998 C996 1.384 . S
C998 C999 1.372 . S
C999 C998 1.372 . S
C999 C1000 1.400 . S
C999 C1004 1.490 . S
C1000 H990 0.930 . S
C1000 C999 1.400 . S
C1000 C1003 1.386 . S
H1001 C1017 0.930 . S
H1002 C1018 0.931 . S
C1003 H991 0.929 . S
C1003 C997 1.390 . S
C1003 C1000 1.386 . S
C1004 C999 1.490 . S
C1004 C1006 1.395 . S
C1004 C1007 1.403 . S
H1005 C1011 0.930 . S
C1006 H992 0.930 . S
C1006 C1004 1.395 . S
C1006 C1009 1.403 . S
C1007 C1004 1.403 . S
C1007 C1008 1.524 . S
C1007 C1011 1.400 . S
C1008 H993 0.960 . S
C1008 H994 0.960 . S
C1008 H995 0.960 . S
C1008 C1007 1.524 . S
C1009 C1006 1.403 . S
C1009 C1010 1.392 . S
C1009 C1013 1.495 . S
C1010 C1009 1.392 . S
C1010 C1011 1.385 . S
C1010 C1012 1.478 . S
C1011 H1005 0.930 . S
C1011 C1007 1.400 . S
C1011 C1010 1.385 . S
C1012 C1010 1.478 . S
C1012 C1014 1.381 . S
C1012 C1018 1.383 . S
C1013 C1009 1.495 . S
C1013 H1019 0.959 . S
C1013 H1020 0.961 . S
C1013 H1021 0.960 . S
C1014 C1012 1.381 . S
C1014 C1015 1.394 . S
C1014 H1022 0.930 . S
C1015 C1014 1.394 . S
C1015 C1016 1.383 . S
C1015 H1023 0.929 . S
C1016 C1015 1.383 . S
C1016 C1017 1.377 . S
C1017 H1001 0.930 . S
C1017 C1016 1.377 . S
C1017 C1018 1.379 . S
C1018 H1002 0.931 . S
C1018 C1012 1.383 . S
C1018 C1017 1.379 . S
H1019 C1013 0.959 . S
H1020 C1013 0.961 . S
H1021 C1013 0.960 . S
H1022 C1014 0.930 . S
H1023 C1015 0.929 . S
H1024 C1032 0.929 . S
H1025 C1034 0.930 . S
H1026 C1036 0.930 . S
H1027 C1039 0.929 . S
H1028 C1042 0.930 . S
H1029 C1044 0.960 . S
H1030 C1044 0.960 . S
H1031 C1044 0.960 . S
C1032 H1024 0.929 . S
C1032 C1033 1.377 . S
C1032 C1034 1.384 . S
C1033 C1032 1.377 . S
C1033 C1039 1.390 . S
C1034 H1025 0.930 . S
C1034 C1032 1.384 . S
C1034 C1035 1.372 . S
C1035 C1034 1.372 . S
C1035 C1036 1.400 . S
C1035 C1040 1.490 . S
C1036 H1026 0.930 . S
C1036 C1035 1.400 . S
C1036 C1039 1.386 . S
H1037 C1053 0.930 . S
H1038 C1054 0.931 . S
C1039 H1027 0.929 . S
C1039 C1033 1.390 . S
C1039 C1036 1.386 . S
C1040 C1035 1.490 . S
C1040 C1042 1.395 . S
C1040 C1043 1.403 . S
H1041 C1047 0.930 . S
C1042 H1028 0.930 . S
C1042 C1040 1.395 . S
C1042 C1045 1.403 . S
C1043 C1040 1.403 . S
C1043 C1044 1.524 . S
C1043 C1047 1.400 . S
C1044 H1029 0.960 . S
C1044 H1030 0.960 . S
C1044 H1031 0.960 . S
C1044 C1043 1.524 . S
C1045 C1042 1.403 . S
C1045 C1046 1.392 . S
C1045 C1049 1.495 . S
C1046 C1045 1.392 . S
C1046 C1047 1.385 . S
C1046 C1048 1.478 . S
C1047 H1041 0.930 . S
C1047 C1043 1.400 . S
C1047 C1046 1.385 . S
C1048 C1046 1.478 . S
C1048 C1050 1.381 . S
C1048 C1054 1.383 . S
C1049 C1045 1.495 . S
C1049 H1055 0.959 . S
C1049 H1056 0.961 . S
C1049 H1057 0.960 . S
C1050 C1048 1.381 . S
C1050 C1051 1.394 . S
C1050 H1058 0.930 . S
C1051 C1050 1.394 . S
C1051 C1052 1.383 . S
C1051 H1059 0.929 . S
C1052 C1051 1.383 . S
C1052 C1053 1.377 . S
C1053 H1037 0.930 . S
C1053 C1052 1.377 . S
C1053 C1054 1.379 . S
C1054 H1038 0.931 . S
C1054 C1048 1.383 . S
C1054 C1053 1.379 . S
H1055 C1049 0.959 . S
H1056 C1049 0.961 . S
H1057 C1049 0.960 . S
H1058 C1050 0.930 . S
H1059 C1051 0.929 . S
H1060 C1068 0.929 . S
H1061 C1070 0.930 . S
H1062 C1072 0.930 . S
H1063 C1075 0.929 . S
H1064 C1078 0.930 . S
H1065 C1080 0.960 . S
H1066 C1080 0.960 . S
H1067 C1080 0.960 . S
C1068 H1060 0.929 . S
C1068 C1069 1.377 . S
C1068 C1070 1.384 . S
C1069 C1068 1.377 . S
C1069 C1075 1.390 . S
C1070 H1061 0.930 . S
C1070 C1068 1.384 . S
C1070 C1071 1.372 . S
C1071 C1070 1.372 . S
C1071 C1072 1.400 . S
C1071 C1076 1.490 . S
C1072 H1062 0.930 . S
C1072 C1071 1.400 . S
C1072 C1075 1.386 . S
H1073 C1089 0.930 . S
H1074 C1090 0.931 . S
C1075 H1063 0.929 . S
C1075 C1069 1.390 . S
C1075 C1072 1.386 . S
C1076 C1071 1.490 . S
C1076 C1078 1.395 . S
C1076 C1079 1.403 . S
H1077 C1083 0.930 . S
C1078 H1064 0.930 . S
C1078 C1076 1.395 . S
C1078 C1081 1.403 . S
C1079 C1076 1.403 . S
C1079 C1080 1.524 . S
C1079 C1083 1.400 . S
C1080 H1065 0.960 . S
C1080 H1066 0.960 . S
C1080 H1067 0.960 . S
C1080 C1079 1.524 . S
C1081 C1078 1.403 . S
C1081 C1082 1.392 . S
C1081 C1085 1.495 . S
C1082 C1081 1.392 . S
C1082 C1083 1.385 . S
C1082 C1084 1.478 . S
C1083 H1077 0.930 . S
C1083 C1079 1.400 . S
C1083 C1082 1.385 . S
C1084 C1082 1.478 . S
C1084 C1086 1.381 . S
C1084 C1090 1.383 . S
C1085 C1081 1.495 . S
C1085 H1091 0.959 . S
C1085 H1092 0.961 . S
C1085 H1093 0.960 . S
C1086 C1084 1.381 . S
C1086 C1087 1.394 . S
C1086 H1094 0.930 . S
C1087 C1086 1.394 . S
C1087 C1088 1.383 . S
C1087 H1095 0.929 . S
C1088 C1087 1.383 . S
C1088 C1089 1.377 . S
C1089 H1073 0.930 . S
C1089 C1088 1.377 . S
C1089 C1090 1.379 . S
C1090 H1074 0.931 . S
C1090 C1084 1.383 . S
C1090 C1089 1.379 . S
H1091 C1085 0.959 . S
H1092 C1085 0.961 . S
H1093 C1085 0.960 . S
H1094 C1086 0.930 . S
H1095 C1087 0.929 . S
H1096 C1104 0.929 . S
H1097 C1106 0.930 . S
H1098 C1108 0.930 . S
H1099 C1111 0.929 . S
H1100 C1114 0.930 . S
H1101 C1116 0.960 . S
H1102 C1116 0.960 . S
H1103 C1116 0.960 . S
C1104 H1096 0.929 . S
C1104 C1105 1.377 . S
C1104 C1106 1.384 . S
C1105 C1104 1.377 . S
C1105 C1111 1.390 . S
C1106 H1097 0.930 . S
C1106 C1104 1.384 . S
C1106 C1107 1.372 . S
C1107 C1106 1.372 . S
C1107 C1108 1.400 . S
C1107 C1112 1.490 . S
C1108 H1098 0.930 . S
C1108 C1107 1.400 . S
C1108 C1111 1.386 . S
H1109 C1125 0.930 . S
H1110 C1126 0.931 . S
C1111 H1099 0.929 . S
C1111 C1105 1.390 . S
C1111 C1108 1.386 . S
C1112 C1107 1.490 . S
C1112 C1114 1.395 . S
C1112 C1115 1.403 . S
H1113 C1119 0.930 . S
C1114 H1100 0.930 . S
C1114 C1112 1.395 . S
C1114 C1117 1.403 . S
C1115 C1112 1.403 . S
C1115 C1116 1.524 . S
C1115 C1119 1.400 . S
C1116 H1101 0.960 . S
C1116 H1102 0.960 . S
C1116 H1103 0.960 . S
C1116 C1115 1.524 . S
C1117 C1114 1.403 . S
C1117 C1118 1.392 . S
C1117 C1121 1.495 . S
C1118 C1117 1.392 . S
C1118 C1119 1.385 . S
C1118 C1120 1.478 . S
C1119 H1113 0.930 . S
C1119 C1115 1.400 . S
C1119 C1118 1.385 . S
C1120 C1118 1.478 . S
C1120 C1122 1.381 . S
C1120 C1126 1.383 . S
C1121 C1117 1.495 . S
C1121 H1127 0.959 . S
C1121 H1128 0.961 . S
C1121 H1129 0.960 . S
C1122 C1120 1.381 . S
C1122 C1123 1.394 . S
C1122 H1130 0.930 . S
C1123 C1122 1.394 . S
C1123 C1124 1.383 . S
C1123 H1131 0.929 . S
C1124 C1123 1.383 . S
C1124 C1125 1.377 . S
C1125 H1109 0.930 . S
C1125 C1124 1.377 . S
C1125 C1126 1.379 . S
C1126 H1110 0.931 . S
C1126 C1120 1.383 . S
C1126 C1125 1.379 . S
H1127 C1121 0.959 . S
H1128 C1121 0.961 . S
H1129 C1121 0.960 . S
H1130 C1122 0.930 . S
H1131 C1123 0.929 . S
H1132 C1140 0.929 . S
H1133 C1142 0.930 . S
H1134 C1144 0.930 . S
H1135 C1147 0.929 . S
H1136 C1150 0.930 . S
H1137 C1152 0.960 . S
H1138 C1152 0.960 . S
H1139 C1152 0.960 . S
C1140 H1132 0.929 . S
C1140 C1141 1.377 . S
C1140 C1142 1.384 . S
C1141 C1140 1.377 . S
C1141 C1147 1.390 . S
C1142 H1133 0.930 . S
C1142 C1140 1.384 . S
C1142 C1143 1.372 . S
C1143 C1142 1.372 . S
C1143 C1144 1.400 . S
C1143 C1148 1.490 . S
C1144 H1134 0.930 . S
C1144 C1143 1.400 . S
C1144 C1147 1.386 . S
H1145 C1161 0.930 . S
H1146 C1162 0.931 . S
C1147 H1135 0.929 . S
C1147 C1141 1.390 . S
C1147 C1144 1.386 . S
C1148 C1143 1.490 . S
C1148 C1150 1.395 . S
C1148 C1151 1.403 . S
H1149 C1155 0.930 . S
C1150 H1136 0.930 . S
C1150 C1148 1.395 . S
C1150 C1153 1.403 . S
C1151 C1148 1.403 . S
C1151 C1152 1.524 . S
C1151 C1155 1.400 . S
C1152 H1137 0.960 . S
C1152 H1138 0.960 . S
C1152 H1139 0.960 . S
C1152 C1151 1.524 . S
C1153 C1150 1.403 . S
C1153 C1154 1.392 . S
C1153 C1157 1.495 . S
C1154 C1153 1.392 . S
C1154 C1155 1.385 . S
C1154 C1156 1.478 . S
C1155 H1149 0.930 . S
C1155 C1151 1.400 . S
C1155 C1154 1.385 . S
C1156 C1154 1.478 . S
C1156 C1158 1.381 . S
C1156 C1162 1.383 . S
C1157 C1153 1.495 . S
C1157 H1163 0.959 . S
C1157 H1164 0.961 . S
C1157 H1165 0.960 . S
C1158 C1156 1.381 . S
C1158 C1159 1.394 . S
C1158 H1166 0.930 . S
C1159 C1158 1.394 . S
C1159 C1160 1.383 . S
C1159 H1167 0.929 . S
C1160 C1159 1.383 . S
C1160 C1161 1.377 . S
C1161 H1145 0.930 . S
C1161 C1160 1.377 . S
C1161 C1162 1.379 . S
C1162 H1146 0.931 . S
C1162 C1156 1.383 . S
C1162 C1161 1.379 . S
H1163 C1157 0.959 . S
H1164 C1157 0.961 . S
H1165 C1157 0.960 . S
H1166 C1158 0.930 . S
H1167 C1159 0.929 . S
H1168 C1176 0.929 . S
H1169 C1178 0.930 . S
H1170 C1180 0.930 . S
H1171 C1183 0.929 . S
H1172 C1186 0.930 . S
H1173 C1188 0.960 . S
H1174 C1188 0.960 . S
H1175 C1188 0.960 . S
C1176 H1168 0.929 . S
C1176 C1177 1.377 . S
C1176 C1178 1.384 . S
C1177 C1176 1.377 . S
C1177 C1183 1.390 . S
C1178 H1169 0.930 . S
C1178 C1176 1.384 . S
C1178 C1179 1.372 . S
C1179 C1178 1.372 . S
C1179 C1180 1.400 . S
C1179 C1184 1.490 . S
C1180 H1170 0.930 . S
C1180 C1179 1.400 . S
C1180 C1183 1.386 . S
H1181 C1197 0.930 . S
H1182 C1198 0.931 . S
C1183 H1171 0.929 . S
C1183 C1177 1.390 . S
C1183 C1180 1.386 . S
C1184 C1179 1.490 . S
C1184 C1186 1.395 . S
C1184 C1187 1.403 . S
H1185 C1191 0.930 . S
C1186 H1172 0.930 . S
C1186 C1184 1.395 . S
C1186 C1189 1.403 . S
C1187 C1184 1.403 . S
C1187 C1188 1.524 . S
C1187 C1191 1.400 . S
C1188 H1173 0.960 . S
C1188 H1174 0.960 . S
C1188 H1175 0.960 . S
C1188 C1187 1.524 . S
C1189 C1186 1.403 . S
C1189 C1190 1.392 . S
C1189 C1193 1.495 . S
C1190 C1189 1.392 . S
C1190 C1191 1.385 . S
C1190 C1192 1.478 . S
C1191 H1185 0.930 . S
C1191 C1187 1.400 . S
C1191 C1190 1.385 . S
C1192 C1190 1.478 . S
C1192 C1194 1.381 . S
C1192 C1198 1.383 . S
C1193 C1189 1.495 . S
C1193 H1199 0.959 . S
C1193 H1200 0.961 . S
C1193 H1201 0.960 . S
C1194 C1192 1.381 . S
C1194 C1195 1.394 . S
C1194 H1202 0.930 . S
C1195 C1194 1.394 . S
C1195 C1196 1.383 . S
C1195 H1203 0.929 . S
C1196 C1195 1.383 . S
C1196 C1197 1.377 . S
C1197 H1181 0.930 . S
C1197 C1196 1.377 . S
C1197 C1198 1.379 . S
C1198 H1182 0.931 . S
C1198 C1192 1.383 . S
C1198 C1197 1.379 . S
H1199 C1193 0.959 . S
H1200 C1193 0.961 . S
H1201 C1193 0.960 . S
H1202 C1194 0.930 . S
H1203 C1195 0.929 . S
H1204 C1212 0.929 . S
H1205 C1214 0.930 . S
H1206 C1216 0.930 . S
H1207 C1219 0.929 . S
H1208 C1222 0.930 . S
H1209 C1224 0.960 . S
H1210 C1224 0.960 . S
H1211 C1224 0.960 . S
C1212 H1204 0.929 . S
C1212 C1213 1.377 . S
C1212 C1214 1.384 . S
C1213 C1212 1.377 . S
C1213 C1219 1.390 . S
C1214 H1205 0.930 . S
C1214 C1212 1.384 . S
C1214 C1215 1.372 . S
C1215 C1214 1.372 . S
C1215 C1216 1.400 . S
C1215 C1220 1.490 . S
C1216 H1206 0.930 . S
C1216 C1215 1.400 . S
C1216 C1219 1.386 . S
H1217 C1233 0.930 . S
H1218 C1234 0.931 . S
C1219 H1207 0.929 . S
C1219 C1213 1.390 . S
C1219 C1216 1.386 . S
C1220 C1215 1.490 . S
C1220 C1222 1.395 . S
C1220 C1223 1.403 . S
H1221 C1227 0.930 . S
C1222 H1208 0.930 . S
C1222 C1220 1.395 . S
C1222 C1225 1.403 . S
C1223 C1220 1.403 . S
C1223 C1224 1.524 . S
C1223 C1227 1.400 . S
C1224 H1209 0.960 . S
C1224 H1210 0.960 . S
C1224 H1211 0.960 . S
C1224 C1223 1.524 . S
C1225 C1222 1.403 . S
C1225 C1226 1.392 . S
C1225 C1229 1.495 . S
C1226 C1225 1.392 . S
C1226 C1227 1.385 . S
C1226 C1228 1.478 . S
C1227 H1221 0.930 . S
C1227 C1223 1.400 . S
C1227 C1226 1.385 . S
C1228 C1226 1.478 . S
C1228 C1230 1.381 . S
C1228 C1234 1.383 . S
C1229 C1225 1.495 . S
C1229 H1235 0.959 . S
C1229 H1236 0.961 . S
C1229 H1237 0.960 . S
C1230 C1228 1.381 . S
C1230 C1231 1.394 . S
C1230 H1238 0.930 . S
C1231 C1230 1.394 . S
C1231 C1232 1.383 . S
C1231 H1239 0.929 . S
C1232 C1231 1.383 . S
C1232 C1233 1.377 . S
C1233 H1217 0.930 . S
C1233 C1232 1.377 . S
C1233 C1234 1.379 . S
C1234 H1218 0.931 . S
C1234 C1228 1.383 . S
C1234 C1233 1.379 . S
H1235 C1229 0.959 . S
H1236 C1229 0.961 . S
H1237 C1229 0.960 . S
H1238 C1230 0.930 . S
H1239 C1231 0.929 . S
H1240 C1248 0.929 . S
H1241 C1250 0.930 . S
H1242 C1252 0.930 . S
H1243 C1255 0.929 . S
H1244 C1258 0.930 . S
H1245 C1260 0.960 . S
H1246 C1260 0.960 1_655 S
H1247 C1260 0.960 1_545 S
C1248 H1240 0.929 . S
C1248 C1249 1.377 1_565 S
C1248 C1250 1.384 . S
C1249 C1248 1.377 1_545 S
C1249 C1255 1.390 . S
C1250 H1241 0.930 . S
C1250 C1248 1.384 . S
C1250 C1251 1.372 1_565 S
C1251 C1250 1.372 1_545 S
C1251 C1252 1.400 . S
C1251 C1256 1.490 . S
C1252 H1242 0.930 . S
C1252 C1251 1.400 . S
C1252 C1255 1.386 . S
H1253 C1269 0.930 . S
H1254 C1270 0.931 . S
C1255 H1243 0.929 . S
C1255 C1249 1.390 . S
C1255 C1252 1.386 . S
C1256 C1251 1.490 . S
C1256 C1258 1.395 . S
C1256 C1259 1.403 . S
H1257 C1263 0.930 1_455 S
C1258 H1244 0.930 . S
C1258 C1256 1.395 . S
C1258 C1261 1.403 . S
C1259 C1256 1.403 . S
C1259 C1260 1.524 1_645 S
C1259 C1263 1.400 . S
C1260 H1245 0.960 . S
C1260 H1246 0.960 1_455 S
C1260 H1247 0.960 1_565 S
C1260 C1259 1.524 1_465 S
C1261 C1258 1.403 . S
C1261 C1262 1.392 . S
C1261 C1265 1.495 . S
C1262 C1261 1.392 . S
C1262 C1263 1.385 . S
C1262 C1264 1.478 . S
C1263 H1257 0.930 1_655 S
C1263 C1259 1.400 . S
C1263 C1262 1.385 . S
C1264 C1262 1.478 . S
C1264 C1266 1.381 . S
C1264 C1270 1.383 1_655 S
C1265 C1261 1.495 . S
C1265 H1271 0.959 . S
C1265 H1272 0.961 . S
C1265 H1273 0.960 . S
C1266 C1264 1.381 . S
C1266 C1267 1.394 . S
C1266 H1274 0.930 1_545 S
C1267 C1266 1.394 . S
C1267 C1268 1.383 1_655 S
C1267 H1275 0.929 1_545 S
C1268 C1267 1.383 1_455 S
C1268 C1269 1.377 . S
C1269 H1253 0.930 . S
C1269 C1268 1.377 . S
C1269 C1270 1.379 . S
C1270 H1254 0.931 . S
C1270 C1264 1.383 1_455 S
C1270 C1269 1.379 . S
H1271 C1265 0.959 . S
H1272 C1265 0.961 . S
H1273 C1265 0.960 . S
H1274 C1266 0.930 1_565 S
H1275 C1267 0.929 1_565 S
H1276 C1284 0.929 . S
H1277 C1286 0.930 . S
H1278 C1288 0.930 . S
H1279 C1291 0.929 . S
H1280 C1294 0.930 . S
H1281 C1296 0.960 . S
H1282 C1296 0.960 . S
H1283 C1296 0.960 . S
C1284 H1276 0.929 . S
C1284 C1285 1.377 . S
C1284 C1286 1.384 . S
C1285 C1284 1.377 . S
C1285 C1291 1.390 . S
C1286 H1277 0.930 . S
C1286 C1284 1.384 . S
C1286 C1287 1.372 . S
C1287 C1286 1.372 . S
C1287 C1288 1.400 . S
C1287 C1292 1.490 . S
C1288 H1278 0.930 . S
C1288 C1287 1.400 . S
C1288 C1291 1.386 . S
H1289 C1305 0.930 . S
H1290 C1306 0.931 . S
C1291 H1279 0.929 . S
C1291 C1285 1.390 . S
C1291 C1288 1.386 . S
C1292 C1287 1.490 . S
C1292 C1294 1.395 . S
C1292 C1295 1.403 . S
H1293 C1299 0.930 . S
C1294 H1280 0.930 . S
C1294 C1292 1.395 . S
C1294 C1297 1.403 . S
C1295 C1292 1.403 . S
C1295 C1296 1.524 . S
C1295 C1299 1.400 . S
C1296 H1281 0.960 . S
C1296 H1282 0.960 . S
C1296 H1283 0.960 . S
C1296 C1295 1.524 . S
C1297 C1294 1.403 . S
C1297 C1298 1.392 . S
C1297 C1301 1.495 . S
C1298 C1297 1.392 . S
C1298 C1299 1.385 . S
C1298 C1300 1.478 . S
C1299 H1293 0.930 . S
C1299 C1295 1.400 . S
C1299 C1298 1.385 . S
C1300 C1298 1.478 . S
C1300 C1302 1.381 . S
C1300 C1306 1.383 . S
C1301 C1297 1.495 . S
C1301 H1307 0.959 . S
C1301 H1308 0.961 . S
C1301 H1309 0.960 . S
C1302 C1300 1.381 . S
C1302 C1303 1.394 . S
C1302 H1310 0.930 . S
C1303 C1302 1.394 . S
C1303 C1304 1.383 . S
C1303 H1311 0.929 . S
C1304 C1303 1.383 . S
C1304 C1305 1.377 . S
C1305 H1289 0.930 . S
C1305 C1304 1.377 . S
C1305 C1306 1.379 . S
C1306 H1290 0.931 . S
C1306 C1300 1.383 . S
C1306 C1305 1.379 . S
H1307 C1301 0.959 . S
H1308 C1301 0.961 . S
H1309 C1301 0.960 . S
H1310 C1302 0.930 . S
H1311 C1303 0.929 . S
H1312 C1320 0.926 . S
H1313 C1322 0.924 1_565 S
H1314 C1324 0.930 . S
H1315 C1327 0.929 . S
H1316 C1330 0.930 . S
H1317 C1332 0.960 . S
H1318 C1332 0.960 . S
H1319 C1332 0.960 . S
C1320 H1312 0.926 . S
C1320 C1321 1.380 1_565 S
C1320 C1322 1.382 1_565 S
C1321 C1320 1.380 1_545 S
C1321 C1327 1.390 . S
C1322 H1313 0.924 1_545 S
C1322 C1320 1.382 1_545 S
C1322 C1323 1.382 . S
C1323 C1322 1.382 . S
C1323 C1324 1.400 . S
C1323 C1328 1.490 . S
C1324 H1314 0.930 . S
C1324 C1323 1.400 . S
C1324 C1327 1.386 . S
H1325 C1341 0.930 . S
H1326 C1342 0.931 . S
C1327 H1315 0.929 . S
C1327 C1321 1.390 . S
C1327 C1324 1.386 . S
C1328 C1323 1.490 . S
C1328 C1330 1.395 1_545 S
C1328 C1331 1.403 . S
H1329 C1335 0.930 . S
C1330 H1316 0.930 . S
C1330 C1328 1.395 1_565 S
C1330 C1333 1.403 . S
C1331 C1328 1.403 . S
C1331 C1332 1.524 . S
C1331 C1335 1.400 . S
C1332 H1317 0.960 . S
C1332 H1318 0.960 . S
C1332 H1319 0.960 . S
C1332 C1331 1.524 . S
C1333 C1330 1.403 . S
C1333 C1334 1.392 1_565 S
C1333 C1337 1.495 . S
C1334 C1333 1.392 1_545 S
C1334 C1335 1.385 . S
C1334 C1336 1.478 . S
C1335 H1329 0.930 . S
C1335 C1331 1.400 . S
C1335 C1334 1.385 . S
C1336 C1334 1.478 . S
C1336 C1338 1.381 . S
C1336 C1342 1.383 . S
C1337 C1333 1.495 . S
C1337 H1343 0.959 . S
C1337 H1344 0.961 . S
C1337 H1345 0.960 . S
C1338 C1336 1.381 . S
C1338 C1339 1.394 . S
C1338 H1346 0.930 1_545 S
C1339 C1338 1.394 . S
C1339 C1340 1.383 . S
C1339 H1347 0.927 . S
C1340 C1339 1.383 . S
C1340 C1341 1.377 . S
C1341 H1325 0.930 . S
C1341 C1340 1.377 . S
C1341 C1342 1.379 . S
C1342 H1326 0.931 . S
C1342 C1336 1.383 . S
C1342 C1341 1.379 . S
H1343 C1337 0.959 . S
H1344 C1337 0.961 . S
H1345 C1337 0.960 . S
H1346 C1338 0.930 1_565 S
H1347 C1339 0.927 . S
H1348 C1356 0.929 . S
H1349 C1358 0.930 . S
H1350 C1360 0.930 . S
H1351 C1363 0.929 . S
H1352 C1366 0.930 . S
H1353 C1368 0.960 . S
H1354 C1368 0.960 . S
H1355 C1368 0.960 . S
C1356 H1348 0.929 . S
C1356 C1357 1.377 . S
C1356 C1358 1.384 . S
C1357 C1356 1.377 . S
C1357 C1363 1.390 . S
C1358 H1349 0.930 . S
C1358 C1356 1.384 . S
C1358 C1359 1.372 . S
C1359 C1358 1.372 . S
C1359 C1360 1.400 . S
C1359 C1364 1.490 . S
C1360 H1350 0.930 . S
C1360 C1359 1.400 . S
C1360 C1363 1.386 . S
H1361 C1377 0.930 . S
H1362 C1378 0.931 . S
C1363 H1351 0.929 . S
C1363 C1357 1.390 . S
C1363 C1360 1.386 . S
C1364 C1359 1.490 . S
C1364 C1366 1.395 . S
C1364 C1367 1.403 . S
H1365 C1371 0.930 . S
C1366 H1352 0.930 . S
C1366 C1364 1.395 . S
C1366 C1369 1.403 . S
C1367 C1364 1.403 . S
C1367 C1368 1.524 . S
C1367 C1371 1.400 . S
C1368 H1353 0.960 . S
C1368 H1354 0.960 . S
C1368 H1355 0.960 . S
C1368 C1367 1.524 . S
C1369 C1366 1.403 . S
C1369 C1370 1.392 . S
C1369 C1373 1.495 . S
C1370 C1369 1.392 . S
C1370 C1371 1.385 . S
C1370 C1372 1.478 . S
C1371 H1365 0.930 . S
C1371 C1367 1.400 . S
C1371 C1370 1.385 . S
C1372 C1370 1.478 . S
C1372 C1374 1.381 . S
C1372 C1378 1.383 . S
C1373 C1369 1.495 . S
C1373 H1379 0.959 . S
C1373 H1380 0.961 . S
C1373 H1381 0.960 . S
C1374 C1372 1.381 . S
C1374 C1375 1.394 . S
C1374 H1382 0.930 . S
C1375 C1374 1.394 . S
C1375 C1376 1.383 . S
C1375 H1383 0.929 . S
C1376 C1375 1.383 . S
C1376 C1377 1.377 . S
C1377 H1361 0.930 . S
C1377 C1376 1.377 . S
C1377 C1378 1.379 . S
C1378 H1362 0.931 . S
C1378 C1372 1.383 . S
C1378 C1377 1.379 . S
H1379 C1373 0.959 . S
H1380 C1373 0.961 . S
H1381 C1373 0.960 . S
H1382 C1374 0.930 . S
H1383 C1375 0.929 . S
H1384 C1392 0.910 1_565 S
H1385 C1394 0.901 1_565 S
H1386 C1396 0.930 . S
H1387 C1399 0.929 . S
H1388 C1402 0.930 . S
H1389 C1404 0.960 . S
H1390 C1404 0.960 . S
H1391 C1404 0.960 . S
C1392 H1384 0.910 1_545 S
C1392 C1393 1.405 . S
C1392 C1394 1.384 . S
C1393 C1392 1.405 . S
C1393 C1399 1.390 . S
C1394 H1385 0.901 1_545 S
C1394 C1392 1.384 . S
C1394 C1395 1.393 . S
C1395 C1394 1.393 . S
C1395 C1396 1.400 . S
C1395 C1400 1.490 . S
C1396 H1386 0.930 . S
C1396 C1395 1.400 . S
C1396 C1399 1.386 . S
H1397 C1413 0.930 . S
H1398 C1414 0.931 . S
C1399 H1387 0.929 . S
C1399 C1393 1.390 . S
C1399 C1396 1.386 . S
C1400 C1395 1.490 . S
C1400 C1402 1.395 1_545 S
C1400 C1403 1.403 . S
H1401 C1407 0.930 . S
C1402 H1388 0.930 . S
C1402 C1400 1.395 1_565 S
C1402 C1405 1.403 . S
C1403 C1400 1.403 . S
C1403 C1404 1.524 . S
C1403 C1407 1.400 . S
C1404 H1389 0.960 . S
C1404 H1390 0.960 . S
C1404 H1391 0.960 . S
C1404 C1403 1.524 . S
C1405 C1402 1.403 . S
C1405 C1406 1.392 1_565 S
C1405 C1409 1.495 . S
C1406 C1405 1.392 1_545 S
C1406 C1407 1.385 . S
C1406 C1408 1.478 . S
C1407 H1401 0.930 . S
C1407 C1403 1.400 . S
C1407 C1406 1.385 . S
C1408 C1406 1.478 . S
C1408 C1410 1.381 . S
C1408 C1414 1.383 1_655 S
C1409 C1405 1.495 . S
C1409 H1415 0.959 . S
C1409 H1416 0.961 1_655 S
C1409 H1417 0.960 . S
C1410 C1408 1.381 . S
C1410 C1411 1.394 . S
C1410 H1418 0.930 1_545 S
C1411 C1410 1.394 . S
C1411 C1412 1.383 1_655 S
C1411 H1419 0.929 1_545 S
C1412 C1411 1.383 1_455 S
C1412 C1413 1.377 . S
C1413 H1397 0.930 . S
C1413 C1412 1.377 . S
C1413 C1414 1.379 . S
C1414 H1398 0.931 . S
C1414 C1408 1.383 1_455 S
C1414 C1413 1.379 . S
H1415 C1409 0.959 . S
H1416 C1409 0.961 1_455 S
H1417 C1409 0.960 . S
H1418 C1410 0.930 1_565 S
H1419 C1411 0.929 1_565 S
H1420 C1428 0.929 . S
H1421 C1430 0.930 . S
H1422 C1432 0.930 . S
H1423 C1435 0.929 . S
H1424 C1438 0.930 . S
H1425 C1440 0.960 . S
H1426 C1440 0.960 . S
H1427 C1440 0.960 . S
C1428 H1420 0.929 . S
C1428 C1429 1.377 . S
C1428 C1430 1.384 . S
C1429 C1428 1.377 . S
C1429 C1435 1.390 . S
C1430 H1421 0.930 . S
C1430 C1428 1.384 . S
C1430 C1431 1.372 . S
C1431 C1430 1.372 . S
C1431 C1432 1.400 . S
C1431 C1436 1.490 . S
C1432 H1422 0.930 . S
C1432 C1431 1.400 . S
C1432 C1435 1.386 . S
H1433 C1449 0.930 . S
H1434 C1450 0.931 . S
C1435 H1423 0.929 . S
C1435 C1429 1.390 . S
C1435 C1432 1.386 . S
C1436 C1431 1.490 . S
C1436 C1438 1.395 . S
C1436 C1439 1.403 . S
H1437 C1443 0.930 . S
C1438 H1424 0.930 . S
C1438 C1436 1.395 . S
C1438 C1441 1.403 . S
C1439 C1436 1.403 . S
C1439 C1440 1.524 . S
C1439 C1443 1.400 . S
C1440 H1425 0.960 . S
C1440 H1426 0.960 . S
C1440 H1427 0.960 . S
C1440 C1439 1.524 . S
C1441 C1438 1.403 . S
C1441 C1442 1.392 . S
C1441 C1445 1.495 . S
C1442 C1441 1.392 . S
C1442 C1443 1.385 . S
C1442 C1444 1.478 . S
C1443 H1437 0.930 . S
C1443 C1439 1.400 . S
C1443 C1442 1.385 . S
C1444 C1442 1.478 . S
C1444 C1446 1.381 . S
C1444 C1450 1.383 . S
C1445 C1441 1.495 . S
C1445 H1451 0.959 . S
C1445 H1452 0.961 . S
C1445 H1453 0.960 . S
C1446 C1444 1.381 . S
C1446 C1447 1.394 . S
C1446 H1454 0.930 . S
C1447 C1446 1.394 . S
C1447 C1448 1.383 . S
C1447 H1455 0.929 . S
C1448 C1447 1.383 . S
C1448 C1449 1.377 . S
C1449 H1433 0.930 . S
C1449 C1448 1.377 . S
C1449 C1450 1.379 . S
C1450 H1434 0.931 . S
C1450 C1444 1.383 . S
C1450 C1449 1.379 . S
H1451 C1445 0.959 . S
H1452 C1445 0.961 . S
H1453 C1445 0.960 . S
H1454 C1446 0.930 . S
H1455 C1447 0.929 . S
H1456 C1464 0.929 . S
H1457 C1466 0.930 . S
H1458 C1468 0.930 . S
H1459 C1471 0.929 . S
H1460 C1474 0.930 . S
H1461 C1476 0.960 . S
H1462 C1476 0.960 . S
H1463 C1476 0.960 . S
C1464 H1456 0.929 . S
C1464 C1465 1.377 1_565 S
C1464 C1466 1.384 . S
C1465 C1464 1.377 1_545 S
C1465 C1471 1.390 . S
C1466 H1457 0.930 . S
C1466 C1464 1.384 . S
C1466 C1467 1.372 1_565 S
C1467 C1466 1.372 1_545 S
C1467 C1468 1.400 . S
C1467 C1472 1.490 . S
C1468 H1458 0.930 . S
C1468 C1467 1.400 . S
C1468 C1471 1.386 . S
H1469 C1485 0.930 . S
H1470 C1486 0.931 . S
C1471 H1459 0.929 . S
C1471 C1465 1.390 . S
C1471 C1468 1.386 . S
C1472 C1467 1.490 . S
C1472 C1474 1.395 . S
C1472 C1475 1.403 . S
H1473 C1479 0.930 . S
C1474 H1460 0.930 . S
C1474 C1472 1.395 . S
C1474 C1477 1.403 . S
C1475 C1472 1.403 . S
C1475 C1476 1.524 . S
C1475 C1479 1.400 . S
C1476 H1461 0.960 . S
C1476 H1462 0.960 . S
C1476 H1463 0.960 . S
C1476 C1475 1.524 . S
C1477 C1474 1.403 . S
C1477 C1478 1.392 . S
C1477 C1481 1.495 . S
C1478 C1477 1.392 . S
C1478 C1479 1.385 . S
C1478 C1480 1.478 . S
C1479 H1473 0.930 . S
C1479 C1475 1.400 . S
C1479 C1478 1.385 . S
C1480 C1478 1.478 . S
C1480 C1482 1.381 . S
C1480 C1486 1.383 . S
C1481 C1477 1.495 . S
C1481 H1487 0.959 1_545 S
C1481 H1488 0.961 . S
C1481 H1489 0.960 1_545 S
C1482 C1480 1.381 . S
C1482 C1483 1.394 . S
C1482 H1490 0.930 1_545 S
C1483 C1482 1.394 . S
C1483 C1484 1.383 . S
C1483 H1491 0.929 1_545 S
C1484 C1483 1.383 . S
C1484 C1485 1.377 . S
C1485 H1469 0.930 . S
C1485 C1484 1.377 . S
C1485 C1486 1.379 . S
C1486 H1470 0.931 . S
C1486 C1480 1.383 . S
C1486 C1485 1.379 . S
H1487 C1481 0.959 1_565 S
H1488 C1481 0.961 . S
H1489 C1481 0.960 1_565 S
H1490 C1482 0.930 1_565 S
H1491 C1483 0.929 1_565 S
H1492 C1500 0.929 . S
H1493 C1502 0.930 . S
H1494 C1504 0.930 . S
H1495 C1507 0.929 . S
H1496 C1510 0.930 . S
H1497 C1512 0.960 . S
H1498 C1512 0.960 . S
H1499 C1512 0.960 . S
C1500 H1492 0.929 . S
C1500 C1501 1.377 . S
C1500 C1502 1.384 . S
C1501 C1500 1.377 . S
C1501 C1507 1.390 . S
C1502 H1493 0.930 . S
C1502 C1500 1.384 . S
C1502 C1503 1.372 . S
C1503 C1502 1.372 . S
C1503 C1504 1.400 . S
C1503 C1508 1.490 . S
C1504 H1494 0.930 . S
C1504 C1503 1.400 . S
C1504 C1507 1.386 . S
H1505 C1521 0.930 . S
H1506 C1522 0.931 . S
C1507 H1495 0.929 . S
C1507 C1501 1.390 . S
C1507 C1504 1.386 . S
C1508 C1503 1.490 . S
C1508 C1510 1.395 . S
C1508 C1511 1.403 . S
H1509 C1515 0.930 . S
C1510 H1496 0.930 . S
C1510 C1508 1.395 . S
C1510 C1513 1.403 . S
C1511 C1508 1.403 . S
C1511 C1512 1.524 . S
C1511 C1515 1.400 . S
C1512 H1497 0.960 . S
C1512 H1498 0.960 . S
C1512 H1499 0.960 . S
C1512 C1511 1.524 . S
C1513 C1510 1.403 . S
C1513 C1514 1.392 . S
C1513 C1517 1.495 . S
C1514 C1513 1.392 . S
C1514 C1515 1.385 . S
C1514 C1516 1.478 . S
C1515 H1509 0.930 . S
C1515 C1511 1.400 . S
C1515 C1514 1.385 . S
C1516 C1514 1.478 . S
C1516 C1518 1.381 . S
C1516 C1522 1.383 . S
C1517 C1513 1.495 . S
C1517 H1523 0.959 . S
C1517 H1524 0.961 . S
C1517 H1525 0.960 . S
C1518 C1516 1.381 . S
C1518 C1519 1.394 . S
C1518 H1526 0.930 . S
C1519 C1518 1.394 . S
C1519 C1520 1.383 . S
C1519 H1527 0.929 . S
C1520 C1519 1.383 . S
C1520 C1521 1.377 . S
C1521 H1505 0.930 . S
C1521 C1520 1.377 . S
C1521 C1522 1.379 . S
C1522 H1506 0.931 . S
C1522 C1516 1.383 . S
C1522 C1521 1.379 . S
H1523 C1517 0.959 . S
H1524 C1517 0.961 . S
H1525 C1517 0.960 . S
H1526 C1518 0.930 . S
H1527 C1519 0.929 . S
H1528 C1536 0.929 . S
H1529 C1538 0.930 . S
H1530 C1540 0.930 . S
H1531 C1543 0.929 . S
H1532 C1546 0.930 . S
H1533 C1548 0.960 . S
H1534 C1548 0.960 . S
H1535 C1548 0.960 1_556 S
C1536 H1528 0.929 . S
C1536 C1537 1.377 1_554 S
C1536 C1538 1.384 . S
C1537 C1536 1.377 1_556 S
C1537 C1543 1.390 . S
C1538 H1529 0.930 . S
C1538 C1536 1.384 . S
C1538 C1539 1.372 . S
C1539 C1538 1.372 . S
C1539 C1540 1.400 1_554 S
C1539 C1544 1.490 . S
C1540 H1530 0.930 . S
C1540 C1539 1.400 1_556 S
C1540 C1543 1.386 . S
H1541 C1557 0.930 . S
H1542 C1558 0.931 . S
C1543 H1531 0.929 . S
C1543 C1537 1.390 . S
C1543 C1540 1.386 . S
C1544 C1539 1.490 . S
C1544 C1546 1.395 . S
C1544 C1547 1.403 . S
H1545 C1551 0.930 . S
C1546 H1532 0.930 . S
C1546 C1544 1.395 . S
C1546 C1549 1.403 . S
C1547 C1544 1.403 . S
C1547 C1548 1.524 . S
C1547 C1551 1.400 . S
C1548 H1533 0.960 . S
C1548 H1534 0.960 . S
C1548 H1535 0.960 1_554 S
C1548 C1547 1.524 . S
C1549 C1546 1.403 . S
C1549 C1550 1.392 . S
C1549 C1553 1.495 . S
C1550 C1549 1.392 . S
C1550 C1551 1.385 . S
C1550 C1552 1.478 . S
C1551 H1545 0.930 . S
C1551 C1547 1.400 . S
C1551 C1550 1.385 . S
C1552 C1550 1.478 . S
C1552 C1554 1.381 . S
C1552 C1558 1.383 . S
C1553 C1549 1.495 . S
C1553 H1559 0.959 . S
C1553 H1560 0.961 . S
C1553 H1561 0.960 . S
C1554 C1552 1.381 . S
C1554 C1555 1.394 . S
C1554 H1562 0.930 . S
C1555 C1554 1.394 . S
C1555 C1556 1.383 . S
C1555 H1563 0.929 . S
C1556 C1555 1.383 . S
C1556 C1557 1.377 . S
C1557 H1541 0.930 . S
C1557 C1556 1.377 . S
C1557 C1558 1.379 . S
C1558 H1542 0.931 . S
C1558 C1552 1.383 . S
C1558 C1557 1.379 . S
H1559 C1553 0.959 . S
H1560 C1553 0.961 . S
H1561 C1553 0.960 . S
H1562 C1554 0.930 . S
H1563 C1555 0.929 . S
H1564 C1572 0.929 1_556 S
H1565 C1574 0.930 1_556 S
H1566 C1576 0.930 . S
H1567 C1579 0.929 . S
H1568 C1582 0.930 . S
H1569 C1584 0.960 . S
H1570 C1584 0.960 1_556 S
H1571 C1584 0.960 . S
C1572 H1564 0.929 1_554 S
C1572 C1573 1.377 . S
C1572 C1574 1.384 . S
C1573 C1572 1.377 . S
C1573 C1579 1.390 . S
C1574 H1565 0.930 1_554 S
C1574 C1572 1.384 . S
C1574 C1575 1.372 . S
C1575 C1574 1.372 . S
C1575 C1576 1.400 . S
C1575 C1580 1.490 . S
C1576 H1566 0.930 . S
C1576 C1575 1.400 . S
C1576 C1579 1.386 . S
H1577 C1593 0.930 . S
H1578 C1594 0.931 . S
C1579 H1567 0.929 . S
C1579 C1573 1.390 . S
C1579 C1576 1.386 . S
C1580 C1575 1.490 . S
C1580 C1582 1.395 . S
C1580 C1583 1.403 . S
H1581 C1587 0.930 . S
C1582 H1568 0.930 . S
C1582 C1580 1.395 . S
C1582 C1585 1.403 . S
C1583 C1580 1.403 . S
C1583 C1584 1.524 . S
C1583 C1587 1.400 . S
C1584 H1569 0.960 . S
C1584 H1570 0.960 1_554 S
C1584 H1571 0.960 . S
C1584 C1583 1.524 . S
C1585 C1582 1.403 . S
C1585 C1586 1.392 . S
C1585 C1589 1.495 . S
C1586 C1585 1.392 . S
C1586 C1587 1.385 . S
C1586 C1588 1.478 . S
C1587 H1581 0.930 . S
C1587 C1583 1.400 . S
C1587 C1586 1.385 . S
C1588 C1586 1.478 . S
C1588 C1590 1.381 . S
C1588 C1594 1.383 . S
C1589 C1585 1.495 . S
C1589 H1595 0.959 . S
C1589 H1596 0.961 . S
C1589 H1597 0.960 . S
C1590 C1588 1.381 . S
C1590 C1591 1.394 . S
C1590 H1598 0.930 1_554 S
C1591 C1590 1.394 . S
C1591 C1592 1.383 . S
C1591 H1599 0.929 1_554 S
C1592 C1591 1.383 . S
C1592 C1593 1.377 . S
C1593 H1577 0.930 . S
C1593 C1592 1.377 . S
C1593 C1594 1.379 . S
C1594 H1578 0.931 . S
C1594 C1588 1.383 . S
C1594 C1593 1.379 . S
H1595 C1589 0.959 . S
H1596 C1589 0.961 . S
H1597 C1589 0.960 . S
H1598 C1590 0.930 1_556 S
H1599 C1591 0.929 1_556 S
H1600 C1608 0.929 . S
H1601 C1610 0.930 . S
H1602 C1612 0.930 . S
H1603 C1615 0.929 . S
H1604 C1618 0.930 . S
H1605 C1620 0.960 . S
H1606 C1620 0.960 . S
H1607 C1620 0.960 . S
C1608 H1600 0.929 . S
C1608 C1609 1.377 . S
C1608 C1610 1.384 . S
C1609 C1608 1.377 . S
C1609 C1615 1.390 . S
C1610 H1601 0.930 . S
C1610 C1608 1.384 . S
C1610 C1611 1.372 . S
C1611 C1610 1.372 . S
C1611 C1612 1.400 . S
C1611 C1616 1.490 . S
C1612 H1602 0.930 . S
C1612 C1611 1.400 . S
C1612 C1615 1.386 . S
H1613 C1629 0.930 . S
H1614 C1630 0.931 . S
C1615 H1603 0.929 . S
C1615 C1609 1.390 . S
C1615 C1612 1.386 . S
C1616 C1611 1.490 . S
C1616 C1618 1.395 . S
C1616 C1619 1.403 . S
H1617 C1623 0.930 . S
C1618 H1604 0.930 . S
C1618 C1616 1.395 . S
C1618 C1621 1.403 . S
C1619 C1616 1.403 . S
C1619 C1620 1.524 . S
C1619 C1623 1.400 . S
C1620 H1605 0.960 . S
C1620 H1606 0.960 . S
C1620 H1607 0.960 . S
C1620 C1619 1.524 . S
C1621 C1618 1.403 . S
C1621 C1622 1.392 . S
C1621 C1625 1.495 . S
C1622 C1621 1.392 . S
C1622 C1623 1.385 . S
C1622 C1624 1.478 . S
C1623 H1617 0.930 . S
C1623 C1619 1.400 . S
C1623 C1622 1.385 . S
C1624 C1622 1.478 . S
C1624 C1626 1.381 . S
C1624 C1630 1.383 . S
C1625 C1621 1.495 . S
C1625 H1631 0.959 . S
C1625 H1632 0.961 . S
C1625 H1633 0.960 . S
C1626 C1624 1.381 . S
C1626 C1627 1.394 . S
C1626 H1634 0.930 . S
C1627 C1626 1.394 . S
C1627 C1628 1.383 . S
C1627 H1635 0.929 . S
C1628 C1627 1.383 . S
C1628 C1629 1.377 . S
C1629 H1613 0.930 . S
C1629 C1628 1.377 . S
C1629 C1630 1.379 . S
C1630 H1614 0.931 . S
C1630 C1624 1.383 . S
C1630 C1629 1.379 . S
H1631 C1625 0.959 . S
H1632 C1625 0.961 . S
H1633 C1625 0.960 . S
H1634 C1626 0.930 . S
H1635 C1627 0.929 . S
H1636 C1644 0.929 . S
H1637 C1646 0.930 . S
H1638 C1648 0.930 . S
H1639 C1651 0.929 . S
H1640 C1654 0.930 . S
H1641 C1656 0.960 . S
H1642 C1656 0.960 . S
H1643 C1656 0.960 . S
C1644 H1636 0.929 . S
C1644 C1645 1.377 . S
C1644 C1646 1.384 . S
C1645 C1644 1.377 . S
C1645 C1651 1.390 . S
C1646 H1637 0.930 . S
C1646 C1644 1.384 . S
C1646 C1647 1.372 . S
C1647 C1646 1.372 . S
C1647 C1648 1.400 . S
C1647 C1652 1.490 . S
C1648 H1638 0.930 . S
C1648 C1647 1.400 . S
C1648 C1651 1.386 . S
H1649 C1665 0.930 . S
H1650 C1666 0.931 . S
C1651 H1639 0.929 . S
C1651 C1645 1.390 . S
C1651 C1648 1.386 . S
C1652 C1647 1.490 . S
C1652 C1654 1.395 . S
C1652 C1655 1.403 . S
H1653 C1659 0.930 . S
C1654 H1640 0.930 . S
C1654 C1652 1.395 . S
C1654 C1657 1.403 . S
C1655 C1652 1.403 . S
C1655 C1656 1.524 . S
C1655 C1659 1.400 . S
C1656 H1641 0.960 . S
C1656 H1642 0.960 . S
C1656 H1643 0.960 . S
C1656 C1655 1.524 . S
C1657 C1654 1.403 . S
C1657 C1658 1.392 . S
C1657 C1661 1.495 . S
C1658 C1657 1.392 . S
C1658 C1659 1.385 . S
C1658 C1660 1.478 . S
C1659 H1653 0.930 . S
C1659 C1655 1.400 . S
C1659 C1658 1.385 . S
C1660 C1658 1.478 . S
C1660 C1662 1.381 . S
C1660 C1666 1.383 . S
C1661 C1657 1.495 . S
C1661 H1667 0.959 . S
C1661 H1668 0.961 . S
C1661 H1669 0.960 . S
C1662 C1660 1.381 . S
C1662 C1663 1.394 . S
C1662 H1670 0.930 . S
C1663 C1662 1.394 . S
C1663 C1664 1.383 . S
C1663 H1671 0.929 . S
C1664 C1663 1.383 . S
C1664 C1665 1.377 . S
C1665 H1649 0.930 . S
C1665 C1664 1.377 . S
C1665 C1666 1.379 . S
C1666 H1650 0.931 . S
C1666 C1660 1.383 . S
C1666 C1665 1.379 . S
H1667 C1661 0.959 . S
H1668 C1661 0.961 . S
H1669 C1661 0.960 . S
H1670 C1662 0.930 . S
H1671 C1663 0.929 . S
H1672 C1680 0.929 . S
H1673 C1682 0.930 . S
H1674 C1684 0.930 . S
H1675 C1687 0.929 . S
H1676 C1690 0.930 . S
H1677 C1692 0.960 . S
H1678 C1692 0.960 . S
H1679 C1692 0.960 . S
C1680 H1672 0.929 . S
C1680 C1681 1.377 . S
C1680 C1682 1.384 . S
C1681 C1680 1.377 . S
C1681 C1687 1.390 . S
C1682 H1673 0.930 . S
C1682 C1680 1.384 . S
C1682 C1683 1.372 . S
C1683 C1682 1.372 . S
C1683 C1684 1.400 . S
C1683 C1688 1.490 . S
C1684 H1674 0.930 . S
C1684 C1683 1.400 . S
C1684 C1687 1.386 . S
H1685 C1701 0.930 . S
H1686 C1702 0.931 . S
C1687 H1675 0.929 . S
C1687 C1681 1.390 . S
C1687 C1684 1.386 . S
C1688 C1683 1.490 . S
C1688 C1690 1.395 . S
C1688 C1691 1.403 . S
H1689 C1695 0.930 . S
C1690 H1676 0.930 . S
C1690 C1688 1.395 . S
C1690 C1693 1.403 . S
C1691 C1688 1.403 . S
C1691 C1692 1.524 . S
C1691 C1695 1.400 . S
C1692 H1677 0.960 . S
C1692 H1678 0.960 . S
C1692 H1679 0.960 . S
C1692 C1691 1.524 . S
C1693 C1690 1.403 . S
C1693 C1694 1.392 . S
C1693 C1697 1.495 . S
C1694 C1693 1.392 . S
C1694 C1695 1.385 . S
C1694 C1696 1.478 . S
C1695 H1689 0.930 . S
C1695 C1691 1.400 . S
C1695 C1694 1.385 . S
C1696 C1694 1.478 . S
C1696 C1698 1.381 . S
C1696 C1702 1.383 . S
C1697 C1693 1.495 . S
C1697 H1703 0.959 . S
C1697 H1704 0.961 . S
C1697 H1705 0.960 . S
C1698 C1696 1.381 . S
C1698 C1699 1.394 . S
C1698 H1706 0.930 . S
C1699 C1698 1.394 . S
C1699 C1700 1.383 . S
C1699 H1707 0.929 . S
C1700 C1699 1.383 . S
C1700 C1701 1.377 . S
C1701 H1685 0.930 . S
C1701 C1700 1.377 . S
C1701 C1702 1.379 . S
C1702 H1686 0.931 . S
C1702 C1696 1.383 . S
C1702 C1701 1.379 . S
H1703 C1697 0.959 . S
H1704 C1697 0.961 . S
H1705 C1697 0.960 . S
H1706 C1698 0.930 . S
H1707 C1699 0.929 . S
H1708 C1716 0.929 . S
H1709 C1718 0.930 . S
H1710 C1720 0.930 . S
H1711 C1723 0.929 . S
H1712 C1726 0.930 . S
H1713 C1728 0.960 . S
H1714 C1728 0.960 . S
H1715 C1728 0.960 . S
C1716 H1708 0.929 . S
C1716 C1717 1.377 . S
C1716 C1718 1.384 . S
C1717 C1716 1.377 . S
C1717 C1723 1.390 . S
C1718 H1709 0.930 . S
C1718 C1716 1.384 . S
C1718 C1719 1.372 . S
C1719 C1718 1.372 . S
C1719 C1720 1.400 . S
C1719 C1724 1.490 . S
C1720 H1710 0.930 . S
C1720 C1719 1.400 . S
C1720 C1723 1.386 . S
H1721 C1737 0.930 . S
H1722 C1738 0.931 . S
C1723 H1711 0.929 . S
C1723 C1717 1.390 . S
C1723 C1720 1.386 . S
C1724 C1719 1.490 . S
C1724 C1726 1.395 . S
C1724 C1727 1.403 . S
H1725 C1731 0.930 . S
C1726 H1712 0.930 . S
C1726 C1724 1.395 . S
C1726 C1729 1.403 . S
C1727 C1724 1.403 . S
C1727 C1728 1.524 . S
C1727 C1731 1.400 . S
C1728 H1713 0.960 . S
C1728 H1714 0.960 . S
C1728 H1715 0.960 . S
C1728 C1727 1.524 . S
C1729 C1726 1.403 . S
C1729 C1730 1.392 . S
C1729 C1733 1.495 . S
C1730 C1729 1.392 . S
C1730 C1731 1.385 . S
C1730 C1732 1.478 . S
C1731 H1725 0.930 . S
C1731 C1727 1.400 . S
C1731 C1730 1.385 . S
C1732 C1730 1.478 . S
C1732 C1734 1.381 . S
C1732 C1738 1.383 . S
C1733 C1729 1.495 . S
C1733 H1739 0.959 . S
C1733 H1740 0.961 . S
C1733 H1741 0.960 . S
C1734 C1732 1.381 . S
C1734 C1735 1.394 . S
C1734 H1742 0.930 . S
C1735 C1734 1.394 . S
C1735 C1736 1.383 . S
C1735 H1743 0.929 . S
C1736 C1735 1.383 . S
C1736 C1737 1.377 . S
C1737 H1721 0.930 . S
C1737 C1736 1.377 . S
C1737 C1738 1.379 . S
C1738 H1722 0.931 . S
C1738 C1732 1.383 . S
C1738 C1737 1.379 . S
H1739 C1733 0.959 . S
H1740 C1733 0.961 . S
H1741 C1733 0.960 . S
H1742 C1734 0.930 . S
H1743 C1735 0.929 . S
H1744 C1752 0.929 . S
H1745 C1754 0.930 . S
H1746 C1756 0.930 . S
H1747 C1759 0.929 . S
H1748 C1762 0.930 . S
H1749 C1764 0.960 . S
H1750 C1764 0.960 . S
H1751 C1764 0.960 . S
C1752 H1744 0.929 . S
C1752 C1753 1.377 . S
C1752 C1754 1.384 . S
C1753 C1752 1.377 . S
C1753 C1759 1.390 . S
C1754 H1745 0.930 . S
C1754 C1752 1.384 . S
C1754 C1755 1.372 . S
C1755 C1754 1.372 . S
C1755 C1756 1.400 . S
C1755 C1760 1.490 . S
C1756 H1746 0.930 . S
C1756 C1755 1.400 . S
C1756 C1759 1.386 . S
H1757 C1773 0.930 . S
H1758 C1774 0.931 . S
C1759 H1747 0.929 . S
C1759 C1753 1.390 . S
C1759 C1756 1.386 . S
C1760 C1755 1.490 . S
C1760 C1762 1.395 . S
C1760 C1763 1.403 . S
H1761 C1767 0.930 . S
C1762 H1748 0.930 . S
C1762 C1760 1.395 . S
C1762 C1765 1.403 . S
C1763 C1760 1.403 . S
C1763 C1764 1.524 . S
C1763 C1767 1.400 . S
C1764 H1749 0.960 . S
C1764 H1750 0.960 . S
C1764 H1751 0.960 . S
C1764 C1763 1.524 . S
C1765 C1762 1.403 . S
C1765 C1766 1.392 . S
C1765 C1769 1.495 . S
C1766 C1765 1.392 . S
C1766 C1767 1.385 . S
C1766 C1768 1.478 . S
C1767 H1761 0.930 . S
C1767 C1763 1.400 . S
C1767 C1766 1.385 . S
C1768 C1766 1.478 . S
C1768 C1770 1.381 . S
C1768 C1774 1.383 . S
C1769 C1765 1.495 . S
C1769 H1775 0.959 . S
C1769 H1776 0.961 . S
C1769 H1777 0.960 . S
C1770 C1768 1.381 . S
C1770 C1771 1.394 . S
C1770 H1778 0.930 . S
C1771 C1770 1.394 . S
C1771 C1772 1.383 . S
C1771 H1779 0.929 . S
C1772 C1771 1.383 . S
C1772 C1773 1.377 . S
C1773 H1757 0.930 . S
C1773 C1772 1.377 . S
C1773 C1774 1.379 . S
C1774 H1758 0.931 . S
C1774 C1768 1.383 . S
C1774 C1773 1.379 . S
H1775 C1769 0.959 . S
H1776 C1769 0.961 . S
H1777 C1769 0.960 . S
H1778 C1770 0.930 . S
H1779 C1771 0.929 . S
H1780 C1788 0.929 . S
H1781 C1790 0.930 . S
H1782 C1792 0.930 . S
H1783 C1795 0.929 . S
H1784 C1798 0.930 . S
H1785 C1800 0.960 . S
H1786 C1800 0.960 . S
H1787 C1800 0.960 . S
C1788 H1780 0.929 . S
C1788 C1789 1.377 . S
C1788 C1790 1.384 . S
C1789 C1788 1.377 . S
C1789 C1795 1.390 . S
C1790 H1781 0.930 . S
C1790 C1788 1.384 . S
C1790 C1791 1.372 . S
C1791 C1790 1.372 . S
C1791 C1792 1.400 . S
C1791 C1796 1.490 . S
C1792 H1782 0.930 . S
C1792 C1791 1.400 . S
C1792 C1795 1.386 . S
H1793 C1809 0.930 . S
H1794 C1810 0.931 . S
C1795 H1783 0.929 . S
C1795 C1789 1.390 . S
C1795 C1792 1.386 . S
C1796 C1791 1.490 . S
C1796 C1798 1.395 . S
C1796 C1799 1.403 . S
H1797 C1803 0.930 . S
C1798 H1784 0.930 . S
C1798 C1796 1.395 . S
C1798 C1801 1.403 . S
C1799 C1796 1.403 . S
C1799 C1800 1.524 . S
C1799 C1803 1.400 . S
C1800 H1785 0.960 . S
C1800 H1786 0.960 . S
C1800 H1787 0.960 . S
C1800 C1799 1.524 . S
C1801 C1798 1.403 . S
C1801 C1802 1.392 . S
C1801 C1805 1.495 . S
C1802 C1801 1.392 . S
C1802 C1803 1.385 . S
C1802 C1804 1.478 . S
C1803 H1797 0.930 . S
C1803 C1799 1.400 . S
C1803 C1802 1.385 . S
C1804 C1802 1.478 . S
C1804 C1806 1.381 . S
C1804 C1810 1.383 . S
C1805 C1801 1.495 . S
C1805 H1811 0.959 . S
C1805 H1812 0.961 . S
C1805 H1813 0.960 . S
C1806 C1804 1.381 . S
C1806 C1807 1.394 . S
C1806 H1814 0.930 . S
C1807 C1806 1.394 . S
C1807 C1808 1.383 . S
C1807 H1815 0.929 . S
C1808 C1807 1.383 . S
C1808 C1809 1.377 . S
C1809 H1793 0.930 . S
C1809 C1808 1.377 . S
C1809 C1810 1.379 . S
C1810 H1794 0.931 . S
C1810 C1804 1.383 . S
C1810 C1809 1.379 . S
H1811 C1805 0.959 . S
H1812 C1805 0.961 . S
H1813 C1805 0.960 . S
H1814 C1806 0.930 . S
H1815 C1807 0.929 . S
H1816 C1824 0.929 . S
H1817 C1826 0.930 . S
H1818 C1828 0.930 . S
H1819 C1831 0.929 . S
H1820 C1834 0.930 . S
H1821 C1836 1.003 . S
H1822 C1836 0.960 . S
H1823 C1836 0.960 . S
C1824 H1816 0.929 . S
C1824 C1825 1.377 . S
C1824 C1826 1.384 . S
C1825 C1824 1.377 . S
C1825 C1831 1.390 . S
C1826 H1817 0.930 . S
C1826 C1824 1.384 . S
C1826 C1827 1.372 . S
C1827 C1826 1.372 . S
C1827 C1828 1.400 . S
C1827 C1832 1.490 . S
C1828 H1818 0.930 . S
C1828 C1827 1.400 . S
C1828 C1831 1.386 . S
H1829 C1845 0.930 . S
H1830 C1846 0.931 . S
C1831 H1819 0.929 . S
C1831 C1825 1.390 . S
C1831 C1828 1.386 . S
C1832 C1827 1.490 . S
C1832 C1834 1.395 . S
C1832 C1835 1.403 . S
H1833 C1839 0.930 . S
C1834 H1820 0.930 . S
C1834 C1832 1.395 . S
C1834 C1837 1.403 . S
C1835 C1832 1.403 . S
C1835 C1836 1.524 . S
C1835 C1839 1.400 . S
C1836 H1821 1.003 . S
C1836 H1822 0.960 . S
C1836 H1823 0.960 . S
C1836 C1835 1.524 . S
C1837 C1834 1.403 . S
C1837 C1838 1.392 . S
C1837 C1841 1.495 . S
C1838 C1837 1.392 . S
C1838 C1839 1.385 . S
C1838 C1840 1.478 . S
C1839 H1833 0.930 . S
C1839 C1835 1.400 . S
C1839 C1838 1.385 . S
C1840 C1838 1.478 . S
C1840 C1842 1.381 . S
C1840 C1846 1.383 . S
C1841 C1837 1.495 . S
C1841 H1847 0.959 . S
C1841 H1848 0.961 . S
C1841 H1849 0.960 . S
C1842 C1840 1.381 . S
C1842 C1843 1.394 . S
C1842 H1850 0.930 . S
C1843 C1842 1.394 . S
C1843 C1844 1.383 . S
C1843 H1851 0.929 . S
C1844 C1843 1.383 . S
C1844 C1845 1.377 . S
C1845 H1829 0.930 . S
C1845 C1844 1.377 . S
C1845 C1846 1.379 . S
C1846 H1830 0.931 . S
C1846 C1840 1.383 . S
C1846 C1845 1.379 . S
H1847 C1841 0.959 . S
H1848 C1841 0.961 . S
H1849 C1841 0.960 . S
H1850 C1842 0.930 . S
H1851 C1843 0.929 . S
H1852 C1860 0.929 . S
H1853 C1862 0.930 . S
H1854 C1864 0.930 . S
H1855 C1867 0.929 . S
H1856 C1870 0.930 . S
H1857 C1872 0.960 . S
H1858 C1872 0.960 . S
H1859 C1872 0.960 . S
C1860 H1852 0.929 . S
C1860 C1861 1.377 . S
C1860 C1862 1.384 . S
C1861 C1860 1.377 . S
C1861 C1867 1.390 . S
C1862 H1853 0.930 . S
C1862 C1860 1.384 . S
C1862 C1863 1.372 . S
C1863 C1862 1.372 . S
C1863 C1864 1.400 . S
C1863 C1868 1.490 . S
C1864 H1854 0.930 . S
C1864 C1863 1.400 . S
C1864 C1867 1.386 . S
H1865 C1881 0.930 . S
H1866 C1882 0.931 . S
C1867 H1855 0.929 . S
C1867 C1861 1.390 . S
C1867 C1864 1.386 . S
C1868 C1863 1.490 . S
C1868 C1870 1.395 . S
C1868 C1871 1.403 . S
H1869 C1875 0.930 . S
C1870 H1856 0.930 . S
C1870 C1868 1.395 . S
C1870 C1873 1.403 . S
C1871 C1868 1.403 . S
C1871 C1872 1.524 . S
C1871 C1875 1.400 . S
C1872 H1857 0.960 . S
C1872 H1858 0.960 . S
C1872 H1859 0.960 . S
C1872 C1871 1.524 . S
C1873 C1870 1.403 . S
C1873 C1874 1.392 . S
C1873 C1877 1.495 . S
C1874 C1873 1.392 . S
C1874 C1875 1.385 . S
C1874 C1876 1.478 . S
C1875 H1869 0.930 . S
C1875 C1871 1.400 . S
C1875 C1874 1.385 . S
C1876 C1874 1.478 . S
C1876 C1878 1.381 . S
C1876 C1882 1.383 . S
C1877 C1873 1.495 . S
C1877 H1883 0.959 . S
C1877 H1884 0.961 . S
C1877 H1885 0.960 . S
C1878 C1876 1.381 . S
C1878 C1879 1.394 . S
C1878 H1886 0.930 . S
C1879 C1878 1.394 . S
C1879 C1880 1.383 . S
C1879 H1887 0.929 . S
C1880 C1879 1.383 . S
C1880 C1881 1.377 . S
C1881 H1865 0.930 . S
C1881 C1880 1.377 . S
C1881 C1882 1.379 . S
C1882 H1866 0.931 . S
C1882 C1876 1.383 . S
C1882 C1881 1.379 . S
H1883 C1877 0.959 . S
H1884 C1877 0.961 . S
H1885 C1877 0.960 . S
H1886 C1878 0.930 . S
H1887 C1879 0.929 . S
H1888 C1896 0.929 . S
H1889 C1898 0.930 . S
H1890 C1900 0.930 . S
H1891 C1903 0.929 . S
H1892 C1906 0.930 . S
H1893 C1908 0.960 . S
H1894 C1908 0.960 . S
H1895 C1908 0.960 . S
C1896 H1888 0.929 . S
C1896 C1897 1.377 . S
C1896 C1898 1.384 . S
C1897 C1896 1.377 . S
C1897 C1903 1.390 . S
C1898 H1889 0.930 . S
C1898 C1896 1.384 . S
C1898 C1899 1.372 . S
C1899 C1898 1.372 . S
C1899 C1900 1.400 . S
C1899 C1904 1.490 . S
C1900 H1890 0.930 . S
C1900 C1899 1.400 . S
C1900 C1903 1.386 . S
H1901 C1917 0.930 . S
H1902 C1918 0.931 . S
C1903 H1891 0.929 . S
C1903 C1897 1.390 . S
C1903 C1900 1.386 . S
C1904 C1899 1.490 . S
C1904 C1906 1.395 . S
C1904 C1907 1.403 . S
H1905 C1911 0.930 . S
C1906 H1892 0.930 . S
C1906 C1904 1.395 . S
C1906 C1909 1.403 . S
C1907 C1904 1.403 . S
C1907 C1908 1.524 . S
C1907 C1911 1.400 . S
C1908 H1893 0.960 . S
C1908 H1894 0.960 . S
C1908 H1895 0.960 . S
C1908 C1907 1.524 . S
C1909 C1906 1.403 . S
C1909 C1910 1.392 . S
C1909 C1913 1.495 . S
C1910 C1909 1.392 . S
C1910 C1911 1.385 . S
C1910 C1912 1.478 . S
C1911 H1905 0.930 . S
C1911 C1907 1.400 . S
C1911 C1910 1.385 . S
C1912 C1910 1.478 . S
C1912 C1914 1.381 . S
C1912 C1918 1.383 . S
C1913 C1909 1.495 . S
C1913 H1919 0.959 . S
C1913 H1920 0.961 . S
C1913 H1921 0.960 . S
C1914 C1912 1.381 . S
C1914 C1915 1.394 . S
C1914 H1922 0.930 . S
C1915 C1914 1.394 . S
C1915 C1916 1.383 . S
C1915 H1923 0.929 . S
C1916 C1915 1.383 . S
C1916 C1917 1.377 . S
C1917 H1901 0.930 . S
C1917 C1916 1.377 . S
C1917 C1918 1.379 . S
C1918 H1902 0.931 . S
C1918 C1912 1.383 . S
C1918 C1917 1.379 . S
H1919 C1913 0.959 . S
H1920 C1913 0.961 . S
H1921 C1913 0.960 . S
H1922 C1914 0.930 . S
H1923 C1915 0.929 . S
H1924 C1932 0.929 . S
H1925 C1934 0.930 . S
H1926 C1936 0.930 . S
H1927 C1939 0.929 . S
H1928 C1942 0.930 . S
H1929 C1944 0.960 . S
H1930 C1944 0.960 . S
H1931 C1944 0.960 . S
C1932 H1924 0.929 . S
C1932 C1933 1.377 . S
C1932 C1934 1.384 . S
C1933 C1932 1.377 . S
C1933 C1939 1.390 . S
C1934 H1925 0.930 . S
C1934 C1932 1.384 . S
C1934 C1935 1.372 . S
C1935 C1934 1.372 . S
C1935 C1936 1.400 . S
C1935 C1940 1.490 . S
C1936 H1926 0.930 . S
C1936 C1935 1.400 . S
C1936 C1939 1.386 . S
H1937 C1953 0.930 . S
H1938 C1954 0.931 . S
C1939 H1927 0.929 . S
C1939 C1933 1.390 . S
C1939 C1936 1.386 . S
C1940 C1935 1.490 . S
C1940 C1942 1.395 . S
C1940 C1943 1.403 . S
H1941 C1947 0.930 . S
C1942 H1928 0.930 . S
C1942 C1940 1.395 . S
C1942 C1945 1.403 . S
C1943 C1940 1.403 . S
C1943 C1944 1.524 . S
C1943 C1947 1.400 . S
C1944 H1929 0.960 . S
C1944 H1930 0.960 . S
C1944 H1931 0.960 . S
C1944 C1943 1.524 . S
C1945 C1942 1.403 . S
C1945 C1946 1.392 . S
C1945 C1949 1.495 . S
C1946 C1945 1.392 . S
C1946 C1947 1.385 . S
C1946 C1948 1.478 . S
C1947 H1941 0.930 . S
C1947 C1943 1.400 . S
C1947 C1946 1.385 . S
C1948 C1946 1.478 . S
C1948 C1950 1.381 . S
C1948 C1954 1.383 . S
C1949 C1945 1.495 . S
C1949 H1955 0.959 . S
C1949 H1956 0.961 . S
C1949 H1957 0.960 . S
C1950 C1948 1.381 . S
C1950 C1951 1.394 . S
C1950 H1958 0.930 . S
C1951 C1950 1.394 . S
C1951 C1952 1.383 . S
C1951 H1959 0.929 . S
C1952 C1951 1.383 . S
C1952 C1953 1.377 . S
C1953 H1937 0.930 . S
C1953 C1952 1.377 . S
C1953 C1954 1.379 . S
C1954 H1938 0.931 . S
C1954 C1948 1.383 . S
C1954 C1953 1.379 . S
H1955 C1949 0.959 . S
H1956 C1949 0.961 . S
H1957 C1949 0.960 . S
H1958 C1950 0.930 . S
H1959 C1951 0.929 . S
H1960 C1968 0.929 . S
H1961 C1970 0.930 . S
H1962 C1972 0.930 . S
H1963 C1975 0.929 . S
H1964 C1978 0.930 . S
H1965 C1980 0.960 . S
H1966 C1980 0.960 . S
H1967 C1980 0.960 . S
C1968 H1960 0.929 . S
C1968 C1969 1.378 . S
C1968 C1970 1.384 . S
C1969 C1968 1.378 . S
C1969 C1975 1.388 1_655 S
C1970 H1961 0.930 . S
C1970 C1968 1.384 . S
C1970 C1971 1.386 . S
C1971 C1970 1.386 . S
C1971 C1972 1.390 1_655 S
C1971 C1976 1.487 . S
C1972 H1962 0.930 . S
C1972 C1971 1.390 1_455 S
C1972 C1975 1.386 . S
H1973 C1989 0.930 . S
H1974 C1990 0.931 . S
C1975 H1963 0.929 . S
C1975 C1969 1.388 1_455 S
C1975 C1972 1.386 . S
C1976 C1971 1.487 . S
C1976 C1978 1.387 1_655 S
C1976 C1979 1.409 . S
H1977 C1983 0.930 . S
C1978 H1964 0.930 . S
C1978 C1976 1.387 1_455 S
C1978 C1981 1.403 . S
C1979 C1976 1.409 . S
C1979 C1980 1.524 . S
C1979 C1983 1.400 . S
C1980 H1965 0.960 . S
C1980 H1966 0.960 . S
C1980 H1967 0.960 . S
C1980 C1979 1.524 . S
C1981 C1978 1.403 . S
C1981 C1982 1.392 . S
C1981 C1985 1.495 . S
C1982 C1981 1.392 . S
C1982 C1983 1.385 1_455 S
C1982 C1984 1.478 . S
C1983 H1977 0.930 . S
C1983 C1979 1.400 . S
C1983 C1982 1.385 1_655 S
C1984 C1982 1.478 . S
C1984 C1986 1.381 1_455 S
C1984 C1990 1.383 . S
C1985 C1981 1.495 . S
C1985 H1991 0.959 . S
C1985 H1992 0.961 . S
C1985 H1993 0.960 . S
C1986 C1984 1.381 1_655 S
C1986 C1987 1.394 . S
C1986 H1994 0.930 . S
C1987 C1986 1.394 . S
C1987 C1988 1.353 1_655 S
C1987 H1995 0.929 . S
C1988 C1987 1.353 1_455 S
C1988 C1989 1.405 . S
C1989 H1973 0.930 . S
C1989 C1988 1.405 . S
C1989 C1990 1.379 . S
C1990 H1974 0.931 . S
C1990 C1984 1.383 . S
C1990 C1989 1.379 . S
H1991 C1985 0.959 . S
H1992 C1985 0.961 . S
H1993 C1985 0.960 . S
H1994 C1986 0.930 . S
H1995 C1987 0.929 . S
H1996 C2004 0.929 . S
H1997 C2006 0.930 . S
H1998 C2008 0.930 . S
H1999 C2011 0.929 . S
H2000 C2014 0.930 . S
H2001 C2016 0.960 . S
H2002 C2016 0.960 . S
H2003 C2016 0.960 . S
C2004 H1996 0.929 . S
C2004 C2005 1.377 . S
C2004 C2006 1.384 . S
C2005 C2004 1.377 . S
C2005 C2011 1.390 . S
C2006 H1997 0.930 . S
C2006 C2004 1.384 . S
C2006 C2007 1.372 . S
C2007 C2006 1.372 . S
C2007 C2008 1.400 . S
C2007 C2012 1.490 . S
C2008 H1998 0.930 . S
C2008 C2007 1.400 . S
C2008 C2011 1.386 . S
H2009 C2025 0.930 . S
H2010 C2026 0.931 . S
C2011 H1999 0.929 . S
C2011 C2005 1.390 . S
C2011 C2008 1.386 . S
C2012 C2007 1.490 . S
C2012 C2014 1.395 . S
C2012 C2015 1.403 . S
H2013 C2019 0.930 . S
C2014 H2000 0.930 . S
C2014 C2012 1.395 . S
C2014 C2017 1.403 . S
C2015 C2012 1.403 . S
C2015 C2016 1.524 . S
C2015 C2019 1.400 . S
C2016 H2001 0.960 . S
C2016 H2002 0.960 . S
C2016 H2003 0.960 . S
C2016 C2015 1.524 . S
C2017 C2014 1.403 . S
C2017 C2018 1.392 . S
C2017 C2021 1.495 . S
C2018 C2017 1.392 . S
C2018 C2019 1.385 . S
C2018 C2020 1.478 . S
C2019 H2013 0.930 . S
C2019 C2015 1.400 . S
C2019 C2018 1.385 . S
C2020 C2018 1.478 . S
C2020 C2022 1.381 . S
C2020 C2026 1.383 . S
C2021 C2017 1.495 . S
C2021 H2027 0.959 . S
C2021 H2028 0.961 . S
C2021 H2029 0.960 . S
C2022 C2020 1.381 . S
C2022 C2023 1.394 . S
C2022 H2030 0.930 . S
C2023 C2022 1.394 . S
C2023 C2024 1.383 . S
C2023 H2031 0.929 . S
C2024 C2023 1.383 . S
C2024 C2025 1.377 . S
C2025 H2009 0.930 . S
C2025 C2024 1.377 . S
C2025 C2026 1.379 . S
C2026 H2010 0.931 . S
C2026 C2020 1.383 . S
C2026 C2025 1.379 . S
H2027 C2021 0.959 . S
H2028 C2021 0.961 . S
H2029 C2021 0.960 . S
H2030 C2022 0.930 . S
H2031 C2023 0.929 . S
H2032 C2040 0.929 . S
H2033 C2042 0.930 . S
H2034 C2044 0.930 . S
H2035 C2047 0.929 . S
H2036 C2050 0.930 . S
H2037 C2052 0.960 . S
H2038 C2052 0.960 . S
H2039 C2052 0.960 . S
C2040 H2032 0.929 . S
C2040 C2041 1.377 . S
C2040 C2042 1.384 . S
C2041 C2040 1.377 . S
C2041 C2047 1.390 . S
C2042 H2033 0.930 . S
C2042 C2040 1.384 . S
C2042 C2043 1.372 . S
C2043 C2042 1.372 . S
C2043 C2044 1.400 . S
C2043 C2048 1.490 . S
C2044 H2034 0.930 . S
C2044 C2043 1.400 . S
C2044 C2047 1.386 . S
H2045 C2061 0.930 . S
H2046 C2062 0.931 . S
C2047 H2035 0.929 . S
C2047 C2041 1.390 . S
C2047 C2044 1.386 . S
C2048 C2043 1.490 . S
C2048 C2050 1.395 . S
C2048 C2051 1.403 . S
H2049 C2055 0.930 . S
C2050 H2036 0.930 . S
C2050 C2048 1.395 . S
C2050 C2053 1.403 . S
C2051 C2048 1.403 . S
C2051 C2052 1.524 . S
C2051 C2055 1.400 . S
C2052 H2037 0.960 . S
C2052 H2038 0.960 . S
C2052 H2039 0.960 . S
C2052 C2051 1.524 . S
C2053 C2050 1.403 . S
C2053 C2054 1.392 . S
C2053 C2057 1.495 . S
C2054 C2053 1.392 . S
C2054 C2055 1.385 . S
C2054 C2056 1.478 . S
C2055 H2049 0.930 . S
C2055 C2051 1.400 . S
C2055 C2054 1.385 . S
C2056 C2054 1.478 . S
C2056 C2058 1.381 1_556 S
C2056 C2062 1.383 . S
C2057 C2053 1.495 . S
C2057 H2063 0.959 . S
C2057 H2064 0.961 . S
C2057 H2065 0.960 . S
C2058 C2056 1.381 1_554 S
C2058 C2059 1.394 . S
C2058 H2066 0.930 . S
C2059 C2058 1.394 . S
C2059 C2060 1.383 . S
C2059 H2067 0.929 . S
C2060 C2059 1.383 . S
C2060 C2061 1.377 1_554 S
C2061 H2045 0.930 . S
C2061 C2060 1.377 1_556 S
C2061 C2062 1.379 . S
C2062 H2046 0.931 . S
C2062 C2056 1.383 . S
C2062 C2061 1.379 . S
H2063 C2057 0.959 . S
H2064 C2057 0.961 . S
H2065 C2057 0.960 . S
H2066 C2058 0.930 . S
H2067 C2059 0.929 . S
H2068 C2076 0.929 . S
H2069 C2078 0.930 . S
H2070 C2080 0.930 . S
H2071 C2083 0.929 . S
H2072 C2086 0.930 . S
H2073 C2088 0.960 . S
H2074 C2088 0.960 . S
H2075 C2088 0.960 . S
C2076 H2068 0.929 . S
C2076 C2077 1.377 . S
C2076 C2078 1.384 1_455 S
C2077 C2076 1.377 . S
C2077 C2083 1.390 . S
C2078 H2069 0.930 . S
C2078 C2076 1.384 1_655 S
C2078 C2079 1.372 . S
C2079 C2078 1.372 . S
C2079 C2080 1.400 . S
C2079 C2084 1.490 . S
C2080 H2070 0.930 . S
C2080 C2079 1.400 . S
C2080 C2083 1.386 1_655 S
H2081 C2097 0.930 . S
H2082 C2098 0.931 . S
C2083 H2071 0.929 . S
C2083 C2077 1.390 . S
C2083 C2080 1.386 1_455 S
C2084 C2079 1.490 . S
C2084 C2086 1.395 . S
C2084 C2087 1.403 . S
H2085 C2091 0.930 . S
C2086 H2072 0.930 . S
C2086 C2084 1.395 . S
C2086 C2089 1.403 . S
C2087 C2084 1.403 . S
C2087 C2088 1.524 . S
C2087 C2091 1.400 . S
C2088 H2073 0.960 . S
C2088 H2074 0.960 . S
C2088 H2075 0.960 . S
C2088 C2087 1.524 . S
C2089 C2086 1.403 . S
C2089 C2090 1.392 . S
C2089 C2093 1.495 . S
C2090 C2089 1.392 . S
C2090 C2091 1.385 . S
C2090 C2092 1.478 . S
C2091 H2085 0.930 . S
C2091 C2087 1.400 . S
C2091 C2090 1.385 . S
C2092 C2090 1.478 . S
C2092 C2094 1.381 . S
C2092 C2098 1.383 . S
C2093 C2089 1.495 . S
C2093 H2099 0.959 . S
C2093 H2100 0.961 . S
C2093 H2101 0.960 . S
C2094 C2092 1.381 . S
C2094 C2095 1.394 . S
C2094 H2102 0.930 . S
C2095 C2094 1.394 . S
C2095 C2096 1.383 . S
C2095 H2103 0.929 . S
C2096 C2095 1.383 . S
C2096 C2097 1.377 . S
C2097 H2081 0.930 . S
C2097 C2096 1.377 . S
C2097 C2098 1.379 . S
C2098 H2082 0.931 . S
C2098 C2092 1.383 . S
C2098 C2097 1.379 . S
H2099 C2093 0.959 . S
H2100 C2093 0.961 . S
H2101 C2093 0.960 . S
H2102 C2094 0.930 . S
H2103 C2095 0.929 . S
H2104 C2112 0.929 . S
H2105 C2114 0.930 . S
H2106 C2116 0.930 1_565 S
H2107 C2119 0.929 1_565 S
H2108 C2122 0.930 . S
H2109 C2124 0.960 . S
H2110 C2124 0.953 1_545 S
H2111 C2124 0.960 . S
C2112 H2104 0.929 . S
C2112 C2113 1.377 . S
C2112 C2114 1.384 . S
C2113 C2112 1.377 . S
C2113 C2119 1.390 . S
C2114 H2105 0.930 . S
C2114 C2112 1.384 . S
C2114 C2115 1.372 . S
C2115 C2114 1.372 . S
C2115 C2116 1.400 . S
C2115 C2120 1.490 . S
C2116 H2106 0.930 1_545 S
C2116 C2115 1.400 . S
C2116 C2119 1.386 . S
H2117 C2133 0.930 . S
H2118 C2134 0.931 . S
C2119 H2107 0.929 1_545 S
C2119 C2113 1.390 . S
C2119 C2116 1.386 . S
C2120 C2115 1.490 . S
C2120 C2122 1.395 . S
C2120 C2123 1.403 . S
H2121 C2127 0.930 1_565 S
C2122 H2108 0.930 . S
C2122 C2120 1.395 . S
C2122 C2125 1.403 . S
C2123 C2120 1.403 . S
C2123 C2124 1.524 1_545 S
C2123 C2127 1.400 . S
C2124 H2109 0.960 . S
C2124 H2110 0.953 1_565 S
C2124 H2111 0.960 . S
C2124 C2123 1.524 1_565 S
C2125 C2122 1.403 . S
C2125 C2126 1.392 . S
C2125 C2129 1.495 . S
C2126 C2125 1.392 . S
C2126 C2127 1.385 . S
C2126 C2128 1.478 . S
C2127 H2121 0.930 1_545 S
C2127 C2123 1.400 . S
C2127 C2126 1.385 . S
C2128 C2126 1.478 . S
C2128 C2130 1.381 . S
C2128 C2134 1.383 1_545 S
C2129 C2125 1.495 . S
C2129 H2135 0.959 . S
C2129 H2136 0.961 . S
C2129 H2137 0.960 . S
C2130 C2128 1.381 . S
C2130 C2131 1.394 . S
C2130 H2138 0.930 . S
C2131 C2130 1.394 . S
C2131 C2132 1.383 . S
C2131 H2139 0.929 . S
C2132 C2131 1.383 . S
C2132 C2133 1.377 1_545 S
C2133 H2117 0.930 . S
C2133 C2132 1.377 1_565 S
C2133 C2134 1.379 . S
C2134 H2118 0.931 . S
C2134 C2128 1.383 1_565 S
C2134 C2133 1.379 . S
H2135 C2129 0.959 . S
H2136 C2129 0.961 . S
H2137 C2129 0.960 . S
H2138 C2130 0.930 . S
H2139 C2131 0.929 . S
H2140 C2148 0.929 . S
H2141 C2150 0.930 . S
H2142 C2152 0.930 . S
H2143 C2155 0.929 . S
H2144 C2158 0.930 . S
H2145 C2160 0.960 . S
H2146 C2160 0.960 . S
H2147 C2160 0.960 . S
C2148 H2140 0.929 . S
C2148 C2149 1.377 . S
C2148 C2150 1.384 . S
C2149 C2148 1.377 . S
C2149 C2155 1.390 . S
C2150 H2141 0.930 . S
C2150 C2148 1.384 . S
C2150 C2151 1.372 . S
C2151 C2150 1.372 . S
C2151 C2152 1.400 . S
C2151 C2156 1.490 . S
C2152 H2142 0.930 . S
C2152 C2151 1.400 . S
C2152 C2155 1.386 . S
H2153 C2169 0.930 . S
H2154 C2170 0.931 . S
C2155 H2143 0.929 . S
C2155 C2149 1.390 . S
C2155 C2152 1.386 . S
C2156 C2151 1.490 . S
C2156 C2158 1.395 . S
C2156 C2159 1.403 . S
H2157 C2163 0.930 . S
C2158 H2144 0.930 . S
C2158 C2156 1.395 . S
C2158 C2161 1.403 . S
C2159 C2156 1.403 . S
C2159 C2160 1.524 . S
C2159 C2163 1.400 . S
C2160 H2145 0.960 . S
C2160 H2146 0.960 . S
C2160 H2147 0.960 . S
C2160 C2159 1.524 . S
C2161 C2158 1.403 . S
C2161 C2162 1.392 . S
C2161 C2165 1.495 . S
C2162 C2161 1.392 . S
C2162 C2163 1.385 . S
C2162 C2164 1.478 . S
C2163 H2157 0.930 . S
C2163 C2159 1.400 . S
C2163 C2162 1.385 . S
C2164 C2162 1.478 . S
C2164 C2166 1.381 . S
C2164 C2170 1.383 . S
C2165 C2161 1.495 . S
C2165 H2171 0.959 . S
C2165 H2172 0.961 . S
C2165 H2173 0.960 . S
C2166 C2164 1.381 . S
C2166 C2167 1.394 . S
C2166 H2174 0.930 . S
C2167 C2166 1.394 . S
C2167 C2168 1.383 . S
C2167 H2175 0.929 . S
C2168 C2167 1.383 . S
C2168 C2169 1.377 . S
C2169 H2153 0.930 . S
C2169 C2168 1.377 . S
C2169 C2170 1.379 . S
C2170 H2154 0.931 . S
C2170 C2164 1.383 . S
C2170 C2169 1.379 . S
H2171 C2165 0.959 . S
H2172 C2165 0.961 . S
H2173 C2165 0.960 . S
H2174 C2166 0.930 . S
H2175 C2167 0.929 . S
H2176 C2184 0.929 . S
H2177 C2186 0.930 . S
H2178 C2188 0.930 1_565 S
H2179 C2191 0.929 1_565 S
H2180 C2194 0.930 . S
H2181 C2196 0.960 . S
H2182 C2196 0.960 . S
H2183 C2196 0.960 . S
C2184 H2176 0.929 . S
C2184 C2185 1.377 . S
C2184 C2186 1.384 . S
C2185 C2184 1.377 . S
C2185 C2191 1.390 . S
C2186 H2177 0.930 . S
C2186 C2184 1.384 . S
C2186 C2187 1.372 . S
C2187 C2186 1.372 . S
C2187 C2188 1.400 . S
C2187 C2192 1.490 . S
C2188 H2178 0.930 1_545 S
C2188 C2187 1.400 . S
C2188 C2191 1.386 . S
H2189 C2205 0.930 1_565 S
H2190 C2206 0.931 1_565 S
C2191 H2179 0.929 1_545 S
C2191 C2185 1.390 . S
C2191 C2188 1.386 . S
C2192 C2187 1.490 . S
C2192 C2194 1.395 . S
C2192 C2195 1.403 . S
H2193 C2199 0.930 . S
C2194 H2180 0.930 . S
C2194 C2192 1.395 . S
C2194 C2197 1.403 . S
C2195 C2192 1.403 . S
C2195 C2196 1.524 . S
C2195 C2199 1.400 . S
C2196 H2181 0.960 . S
C2196 H2182 0.960 . S
C2196 H2183 0.960 . S
C2196 C2195 1.524 . S
C2197 C2194 1.403 . S
C2197 C2198 1.392 . S
C2197 C2201 1.495 . S
C2198 C2197 1.392 . S
C2198 C2199 1.385 . S
C2198 C2200 1.478 . S
C2199 H2193 0.930 . S
C2199 C2195 1.400 . S
C2199 C2198 1.385 . S
C2200 C2198 1.478 . S
C2200 C2202 1.381 . S
C2200 C2206 1.383 . S
C2201 C2197 1.495 . S
C2201 H2207 0.959 . S
C2201 H2208 0.961 . S
C2201 H2209 0.960 . S
C2202 C2200 1.381 . S
C2202 C2203 1.394 . S
C2202 H2210 0.930 . S
C2203 C2202 1.394 . S
C2203 C2204 1.383 . S
C2203 H2211 0.929 . S
C2204 C2203 1.383 . S
C2204 C2205 1.377 . S
C2205 H2189 0.930 1_545 S
C2205 C2204 1.377 . S
C2205 C2206 1.379 . S
C2206 H2190 0.931 1_545 S
C2206 C2200 1.383 . S
C2206 C2205 1.379 . S
H2207 C2201 0.959 . S
H2208 C2201 0.961 . S
H2209 C2201 0.960 . S
H2210 C2202 0.930 . S
H2211 C2203 0.929 . S
H2212 C2220 0.929 . S
H2213 C2222 0.930 . S
H2214 C2224 0.930 . S
H2215 C2227 0.929 . S
H2216 C2230 0.930 . S
H2217 C2232 0.960 . S
H2218 C2232 0.960 . S
H2219 C2232 0.960 . S
C2220 H2212 0.929 . S
C2220 C2221 1.377 . S
C2220 C2222 1.384 . S
C2221 C2220 1.377 . S
C2221 C2227 1.390 . S
C2222 H2213 0.930 . S
C2222 C2220 1.384 . S
C2222 C2223 1.372 . S
C2223 C2222 1.372 . S
C2223 C2224 1.400 . S
C2223 C2228 1.490 . S
C2224 H2214 0.930 . S
C2224 C2223 1.400 . S
C2224 C2227 1.386 . S
H2225 C2241 0.930 . S
H2226 C2242 0.931 . S
C2227 H2215 0.929 . S
C2227 C2221 1.390 . S
C2227 C2224 1.386 . S
C2228 C2223 1.490 . S
C2228 C2230 1.395 . S
C2228 C2231 1.403 . S
H2229 C2235 0.930 . S
C2230 H2216 0.930 . S
C2230 C2228 1.395 . S
C2230 C2233 1.403 . S
C2231 C2228 1.403 . S
C2231 C2232 1.524 . S
C2231 C2235 1.400 . S
C2232 H2217 0.960 . S
C2232 H2218 0.960 . S
C2232 H2219 0.960 . S
C2232 C2231 1.524 . S
C2233 C2230 1.403 . S
C2233 C2234 1.392 . S
C2233 C2237 1.495 . S
C2234 C2233 1.392 . S
C2234 C2235 1.385 . S
C2234 C2236 1.478 . S
C2235 H2229 0.930 . S
C2235 C2231 1.400 . S
C2235 C2234 1.385 . S
C2236 C2234 1.478 . S
C2236 C2238 1.381 . S
C2236 C2242 1.383 . S
C2237 C2233 1.495 . S
C2237 H2243 0.959 . S
C2237 H2244 0.961 . S
C2237 H2245 0.960 . S
C2238 C2236 1.381 . S
C2238 C2239 1.394 . S
C2238 H2246 0.930 . S
C2239 C2238 1.394 . S
C2239 C2240 1.383 . S
C2239 H2247 0.929 . S
C2240 C2239 1.383 . S
C2240 C2241 1.377 . S
C2241 H2225 0.930 . S
C2241 C2240 1.377 . S
C2241 C2242 1.379 . S
C2242 H2226 0.931 . S
C2242 C2236 1.383 . S
C2242 C2241 1.379 . S
H2243 C2237 0.959 . S
H2244 C2237 0.961 . S
H2245 C2237 0.960 . S
H2246 C2238 0.930 . S
H2247 C2239 0.929 . S
H2248 C2256 0.929 . S
H2249 C2258 0.930 . S
H2250 C2260 0.930 1_565 S
H2251 C2263 0.929 1_565 S
H2252 C2266 0.930 . S
H2253 C2268 0.960 . S
H2254 C2268 0.960 . S
H2255 C2268 0.960 . S
C2256 H2248 0.929 . S
C2256 C2257 1.377 . S
C2256 C2258 1.384 . S
C2257 C2256 1.377 . S
C2257 C2263 1.390 . S
C2258 H2249 0.930 . S
C2258 C2256 1.384 . S
C2258 C2259 1.372 . S
C2259 C2258 1.372 . S
C2259 C2260 1.400 . S
C2259 C2264 1.490 . S
C2260 H2250 0.930 1_545 S
C2260 C2259 1.400 . S
C2260 C2263 1.386 . S
H2261 C2277 0.930 1_565 S
H2262 C2278 0.931 1_565 S
C2263 H2251 0.929 1_545 S
C2263 C2257 1.390 . S
C2263 C2260 1.386 . S
C2264 C2259 1.490 . S
C2264 C2266 1.395 . S
C2264 C2267 1.403 . S
H2265 C2271 0.930 . S
C2266 H2252 0.930 . S
C2266 C2264 1.395 . S
C2266 C2269 1.403 . S
C2267 C2264 1.403 . S
C2267 C2268 1.524 . S
C2267 C2271 1.400 . S
C2268 H2253 0.960 . S
C2268 H2254 0.960 . S
C2268 H2255 0.960 . S
C2268 C2267 1.524 . S
C2269 C2266 1.403 . S
C2269 C2270 1.392 . S
C2269 C2273 1.495 . S
C2270 C2269 1.392 . S
C2270 C2271 1.385 . S
C2270 C2272 1.478 . S
C2271 H2265 0.930 . S
C2271 C2267 1.400 . S
C2271 C2270 1.385 . S
C2272 C2270 1.478 . S
C2272 C2274 1.381 . S
C2272 C2278 1.383 . S
C2273 C2269 1.495 . S
C2273 H2279 0.959 . S
C2273 H2280 0.961 . S
C2273 H2281 0.960 . S
C2274 C2272 1.381 . S
C2274 C2275 1.394 . S
C2274 H2282 0.930 . S
C2275 C2274 1.394 . S
C2275 C2276 1.383 . S
C2275 H2283 0.929 . S
C2276 C2275 1.383 . S
C2276 C2277 1.377 . S
C2277 H2261 0.930 1_545 S
C2277 C2276 1.377 . S
C2277 C2278 1.379 . S
C2278 H2262 0.931 1_545 S
C2278 C2272 1.383 . S
C2278 C2277 1.379 . S
H2279 C2273 0.959 . S
H2280 C2273 0.961 . S
H2281 C2273 0.960 . S
H2282 C2274 0.930 . S
H2283 C2275 0.929 . S
H2284 C2292 0.929 . S
H2285 C2294 0.930 . S
H2286 C2296 0.930 . S
H2287 C2299 0.929 . S
H2288 C2302 0.930 . S
H2289 C2304 0.960 . S
H2290 C2304 0.960 . S
H2291 C2304 0.960 . S
C2292 H2284 0.929 . S
C2292 C2293 1.377 . S
C2292 C2294 1.384 . S
C2293 C2292 1.377 . S
C2293 C2299 1.390 . S
C2294 H2285 0.930 . S
C2294 C2292 1.384 . S
C2294 C2295 1.372 . S
C2295 C2294 1.372 . S
C2295 C2296 1.400 . S
C2295 C2300 1.490 . S
C2296 H2286 0.930 . S
C2296 C2295 1.400 . S
C2296 C2299 1.386 . S
H2297 C2313 0.930 . S
H2298 C2314 0.931 . S
C2299 H2287 0.929 . S
C2299 C2293 1.390 . S
C2299 C2296 1.386 . S
C2300 C2295 1.490 . S
C2300 C2302 1.395 . S
C2300 C2303 1.403 . S
H2301 C2307 0.930 . S
C2302 H2288 0.930 . S
C2302 C2300 1.395 . S
C2302 C2305 1.403 . S
C2303 C2300 1.403 . S
C2303 C2304 1.524 . S
C2303 C2307 1.400 . S
C2304 H2289 0.960 . S
C2304 H2290 0.960 . S
C2304 H2291 0.960 . S
C2304 C2303 1.524 . S
C2305 C2302 1.403 . S
C2305 C2306 1.392 . S
C2305 C2309 1.495 . S
C2306 C2305 1.392 . S
C2306 C2307 1.385 . S
C2306 C2308 1.478 . S
C2307 H2301 0.930 . S
C2307 C2303 1.400 . S
C2307 C2306 1.385 . S
C2308 C2306 1.478 . S
C2308 C2310 1.381 . S
C2308 C2314 1.383 . S
C2309 C2305 1.495 . S
C2309 H2315 0.959 . S
C2309 H2316 0.961 . S
C2309 H2317 0.960 . S
C2310 C2308 1.381 . S
C2310 C2311 1.394 . S
C2310 H2318 0.930 . S
C2311 C2310 1.394 . S
C2311 C2312 1.383 . S
C2311 H2319 0.929 . S
C2312 C2311 1.383 . S
C2312 C2313 1.377 . S
C2313 H2297 0.930 . S
C2313 C2312 1.377 . S
C2313 C2314 1.379 . S
C2314 H2298 0.931 . S
C2314 C2308 1.383 . S
C2314 C2313 1.379 . S
H2315 C2309 0.959 . S
H2316 C2309 0.961 . S
H2317 C2309 0.960 . S
H2318 C2310 0.930 . S
H2319 C2311 0.929 . S
H2320 C2328 0.929 1_565 S
H2321 C2330 0.904 1_565 S
H2322 C2332 0.930 . S
H2323 C2335 0.929 . S
H2324 C2338 0.930 . S
H2325 C2340 0.960 . S
H2326 C2340 0.960 . S
H2327 C2340 0.960 1_545 S
C2328 H2320 0.929 1_545 S
C2328 C2329 1.377 . S
C2328 C2330 1.391 . S
C2329 C2328 1.377 . S
C2329 C2335 1.390 . S
C2330 H2321 0.904 1_545 S
C2330 C2328 1.391 . S
C2330 C2331 1.393 . S
C2331 C2330 1.393 . S
C2331 C2332 1.400 . S
C2331 C2336 1.490 . S
C2332 H2322 0.930 . S
C2332 C2331 1.400 . S
C2332 C2335 1.386 . S
H2333 C2349 0.930 . S
H2334 C2350 0.931 . S
C2335 H2323 0.929 . S
C2335 C2329 1.390 . S
C2335 C2332 1.386 . S
C2336 C2331 1.490 . S
C2336 C2338 1.395 . S
C2336 C2339 1.403 . S
H2337 C2343 0.920 1_565 S
C2338 H2324 0.930 . S
C2338 C2336 1.395 . S
C2338 C2341 1.403 . S
C2339 C2336 1.403 . S
C2339 C2340 1.524 1_545 S
C2339 C2343 1.400 . S
C2340 H2325 0.960 . S
C2340 H2326 0.960 . S
C2340 H2327 0.960 1_565 S
C2340 C2339 1.524 1_565 S
C2341 C2338 1.403 . S
C2341 C2342 1.392 . S
C2341 C2345 1.495 . S
C2342 C2341 1.392 . S
C2342 C2343 1.385 . S
C2342 C2344 1.478 . S
C2343 H2337 0.920 1_545 S
C2343 C2339 1.400 . S
C2343 C2342 1.385 . S
C2344 C2342 1.478 . S
C2344 C2346 1.381 1_545 S
C2344 C2350 1.383 . S
C2345 C2341 1.495 . S
C2345 H2351 0.959 . S
C2345 H2352 0.961 . S
C2345 H2353 0.960 . S
C2346 C2344 1.381 1_565 S
C2346 C2347 1.394 . S
C2346 H2354 0.930 . S
C2347 C2346 1.394 . S
C2347 C2348 1.383 1_565 S
C2347 H2355 0.929 . S
C2348 C2347 1.383 1_545 S
C2348 C2349 1.377 . S
C2349 H2333 0.930 . S
C2349 C2348 1.377 . S
C2349 C2350 1.379 . S
C2350 H2334 0.931 . S
C2350 C2344 1.383 . S
C2350 C2349 1.379 . S
H2351 C2345 0.959 . S
H2352 C2345 0.961 . S
H2353 C2345 0.960 . S
H2354 C2346 0.930 . S
H2355 C2347 0.929 . S
H2356 C2364 0.929 . S
H2357 C2366 0.930 . S
H2358 C2368 0.930 . S
H2359 C2371 0.929 . S
H2360 C2374 0.930 . S
H2361 C2376 0.960 . S
H2362 C2376 0.960 . S
H2363 C2376 0.960 . S
C2364 H2356 0.929 . S
C2364 C2365 1.377 . S
C2364 C2366 1.384 . S
C2365 C2364 1.377 . S
C2365 C2371 1.390 . S
C2366 H2357 0.930 . S
C2366 C2364 1.384 . S
C2366 C2367 1.372 . S
C2367 C2366 1.372 . S
C2367 C2368 1.400 . S
C2367 C2372 1.490 . S
C2368 H2358 0.930 . S
C2368 C2367 1.400 . S
C2368 C2371 1.386 . S
H2369 C2385 0.930 . S
H2370 C2386 0.931 . S
C2371 H2359 0.929 . S
C2371 C2365 1.390 . S
C2371 C2368 1.386 . S
C2372 C2367 1.490 . S
C2372 C2374 1.395 . S
C2372 C2375 1.403 . S
H2373 C2379 0.930 . S
C2374 H2360 0.930 . S
C2374 C2372 1.395 . S
C2374 C2377 1.403 . S
C2375 C2372 1.403 . S
C2375 C2376 1.524 . S
C2375 C2379 1.400 . S
C2376 H2361 0.960 . S
C2376 H2362 0.960 . S
C2376 H2363 0.960 . S
C2376 C2375 1.524 . S
C2377 C2374 1.403 . S
C2377 C2378 1.392 . S
C2377 C2381 1.495 . S
C2378 C2377 1.392 . S
C2378 C2379 1.385 . S
C2378 C2380 1.478 . S
C2379 H2373 0.930 . S
C2379 C2375 1.400 . S
C2379 C2378 1.385 . S
C2380 C2378 1.478 . S
C2380 C2382 1.381 . S
C2380 C2386 1.383 . S
C2381 C2377 1.495 . S
C2381 H2387 0.959 . S
C2381 H2388 0.961 . S
C2381 H2389 0.960 . S
C2382 C2380 1.381 . S
C2382 C2383 1.394 . S
C2382 H2390 0.930 . S
C2383 C2382 1.394 . S
C2383 C2384 1.383 . S
C2383 H2391 0.929 . S
C2384 C2383 1.383 . S
C2384 C2385 1.377 . S
C2385 H2369 0.930 . S
C2385 C2384 1.377 . S
C2385 C2386 1.379 . S
C2386 H2370 0.931 . S
C2386 C2380 1.383 . S
C2386 C2385 1.379 . S
H2387 C2381 0.959 . S
H2388 C2381 0.961 . S
H2389 C2381 0.960 . S
H2390 C2382 0.930 . S
H2391 C2383 0.929 . S
H2392 C2400 0.929 . S
H2393 C2402 0.930 . S
H2394 C2404 0.930 . S
H2395 C2407 0.929 . S
H2396 C2410 0.930 . S
H2397 C2412 0.967 . S
H2398 C2412 0.966 . S
H2399 C2412 0.951 1_554 S
C2400 H2392 0.929 . S
C2400 C2401 1.377 . S
C2400 C2402 1.384 . S
C2401 C2400 1.377 . S
C2401 C2407 1.390 . S
C2402 H2393 0.930 . S
C2402 C2400 1.384 . S
C2402 C2403 1.372 . S
C2403 C2402 1.372 . S
C2403 C2404 1.400 . S
C2403 C2408 1.490 . S
C2404 H2394 0.930 . S
C2404 C2403 1.400 . S
C2404 C2407 1.386 . S
H2405 C2421 0.930 . S
H2406 C2422 0.931 . S
C2407 H2395 0.929 . S
C2407 C2401 1.390 . S
C2407 C2404 1.386 . S
C2408 C2403 1.490 . S
C2408 C2410 1.395 . S
C2408 C2411 1.403 . S
H2409 C2415 0.930 1_556 S
C2410 H2396 0.930 . S
C2410 C2408 1.395 . S
C2410 C2413 1.403 . S
C2411 C2408 1.403 . S
C2411 C2412 1.520 1_554 S
C2411 C2415 1.400 . S
C2412 H2397 0.967 . S
C2412 H2398 0.966 . S
C2412 H2399 0.951 1_556 S
C2412 C2411 1.520 1_556 S
C2413 C2410 1.403 . S
C2413 C2414 1.392 . S
C2413 C2417 1.495 . S
C2414 C2413 1.392 . S
C2414 C2415 1.385 . S
C2414 C2416 1.478 . S
C2415 H2409 0.930 1_554 S
C2415 C2411 1.400 . S
C2415 C2414 1.385 . S
C2416 C2414 1.478 . S
C2416 C2418 1.381 1_554 S
C2416 C2422 1.383 . S
C2417 C2413 1.495 . S
C2417 H2423 0.959 . S
C2417 H2424 0.961 . S
C2417 H2425 0.960 . S
C2418 C2416 1.381 1_556 S
C2418 C2419 1.394 . S
C2418 H2426 0.930 . S
C2419 C2418 1.394 . S
C2419 C2420 1.383 . S
C2419 H2427 0.929 . S
C2420 C2419 1.383 . S
C2420 C2421 1.377 1_556 S
C2421 H2405 0.930 . S
C2421 C2420 1.377 1_554 S
C2421 C2422 1.379 . S
C2422 H2406 0.931 . S
C2422 C2416 1.383 . S
C2422 C2421 1.379 . S
H2423 C2417 0.959 . S
H2424 C2417 0.961 . S
H2425 C2417 0.960 . S
H2426 C2418 0.930 . S
H2427 C2419 0.929 . S
H2428 C2436 0.929 . S
H2429 C2438 0.930 . S
H2430 C2440 0.930 . S
H2431 C2443 0.929 . S
H2432 C2446 0.930 . S
H2433 C2448 0.960 . S
H2434 C2448 0.960 . S
H2435 C2448 0.960 . S
C2436 H2428 0.929 . S
C2436 C2437 1.377 . S
C2436 C2438 1.384 . S
C2437 C2436 1.377 . S
C2437 C2443 1.390 . S
C2438 H2429 0.930 . S
C2438 C2436 1.384 . S
C2438 C2439 1.372 . S
C2439 C2438 1.372 . S
C2439 C2440 1.400 . S
C2439 C2444 1.490 . S
C2440 H2430 0.930 . S
C2440 C2439 1.400 . S
C2440 C2443 1.386 . S
H2441 C2457 0.930 . S
H2442 C2458 0.931 . S
C2443 H2431 0.929 . S
C2443 C2437 1.390 . S
C2443 C2440 1.386 . S
C2444 C2439 1.490 . S
C2444 C2446 1.395 . S
C2444 C2447 1.403 . S
H2445 C2451 0.930 . S
C2446 H2432 0.930 . S
C2446 C2444 1.395 . S
C2446 C2449 1.403 . S
C2447 C2444 1.403 . S
C2447 C2448 1.524 . S
C2447 C2451 1.400 . S
C2448 H2433 0.960 . S
C2448 H2434 0.960 . S
C2448 H2435 0.960 . S
C2448 C2447 1.524 . S
C2449 C2446 1.403 . S
C2449 C2450 1.392 . S
C2449 C2453 1.495 . S
C2450 C2449 1.392 . S
C2450 C2451 1.385 . S
C2450 C2452 1.478 . S
C2451 H2445 0.930 . S
C2451 C2447 1.400 . S
C2451 C2450 1.385 . S
C2452 C2450 1.478 . S
C2452 C2454 1.381 . S
C2452 C2458 1.383 . S
C2453 C2449 1.495 . S
C2453 H2459 0.959 . S
C2453 H2460 0.961 . S
C2453 H2461 0.960 . S
C2454 C2452 1.381 . S
C2454 C2455 1.394 . S
C2454 H2462 0.930 . S
C2455 C2454 1.394 . S
C2455 C2456 1.383 . S
C2455 H2463 0.929 . S
C2456 C2455 1.383 . S
C2456 C2457 1.377 . S
C2457 H2441 0.930 . S
C2457 C2456 1.377 . S
C2457 C2458 1.379 . S
C2458 H2442 0.931 . S
C2458 C2452 1.383 . S
C2458 C2457 1.379 . S
H2459 C2453 0.959 . S
H2460 C2453 0.961 . S
H2461 C2453 0.960 . S
H2462 C2454 0.930 . S
H2463 C2455 0.929 . S
H2464 C2472 0.929 . S
H2465 C2474 0.930 . S
H2466 C2476 0.930 . S
H2467 C2479 0.929 . S
H2468 C2482 0.930 . S
H2469 C2484 0.960 . S
H2470 C2484 0.960 . S
H2471 C2484 0.960 . S
C2472 H2464 0.929 . S
C2472 C2473 1.377 . S
C2472 C2474 1.384 . S
C2473 C2472 1.377 . S
C2473 C2479 1.390 . S
C2474 H2465 0.930 . S
C2474 C2472 1.384 . S
C2474 C2475 1.372 . S
C2475 C2474 1.372 . S
C2475 C2476 1.400 . S
C2475 C2480 1.490 . S
C2476 H2466 0.930 . S
C2476 C2475 1.400 . S
C2476 C2479 1.386 . S
H2477 C2493 0.930 . S
H2478 C2494 0.931 . S
C2479 H2467 0.929 . S
C2479 C2473 1.390 . S
C2479 C2476 1.386 . S
C2480 C2475 1.490 . S
C2480 C2482 1.395 . S
C2480 C2483 1.403 . S
H2481 C2487 0.930 . S
C2482 H2468 0.930 . S
C2482 C2480 1.395 . S
C2482 C2485 1.403 . S
C2483 C2480 1.403 . S
C2483 C2484 1.524 . S
C2483 C2487 1.400 . S
C2484 H2469 0.960 . S
C2484 H2470 0.960 . S
C2484 H2471 0.960 . S
C2484 C2483 1.524 . S
C2485 C2482 1.403 . S
C2485 C2486 1.392 . S
C2485 C2489 1.495 . S
C2486 C2485 1.392 . S
C2486 C2487 1.385 . S
C2486 C2488 1.478 . S
C2487 H2481 0.930 . S
C2487 C2483 1.400 . S
C2487 C2486 1.385 . S
C2488 C2486 1.478 . S
C2488 C2490 1.381 . S
C2488 C2494 1.383 . S
C2489 C2485 1.495 . S
C2489 H2495 0.959 . S
C2489 H2496 0.961 . S
C2489 H2497 0.960 . S
C2490 C2488 1.381 . S
C2490 C2491 1.394 . S
C2490 H2498 0.930 . S
C2491 C2490 1.394 . S
C2491 C2492 1.383 . S
C2491 H2499 0.929 . S
C2492 C2491 1.383 . S
C2492 C2493 1.377 . S
C2493 H2477 0.930 . S
C2493 C2492 1.377 . S
C2493 C2494 1.379 . S
C2494 H2478 0.931 . S
C2494 C2488 1.383 . S
C2494 C2493 1.379 . S
H2495 C2489 0.959 . S
H2496 C2489 0.961 . S
H2497 C2489 0.960 . S
H2498 C2490 0.930 . S
H2499 C2491 0.929 . S
H2500 C2508 0.929 . S
H2501 C2510 0.930 . S
H2502 C2512 0.930 . S
H2503 C2515 0.929 . S
H2504 C2518 0.930 . S
H2505 C2520 0.960 . S
H2506 C2520 0.960 . S
H2507 C2520 0.960 . S
C2508 H2500 0.929 . S
C2508 C2509 1.377 . S
C2508 C2510 1.384 . S
C2509 C2508 1.377 . S
C2509 C2515 1.390 . S
C2510 H2501 0.930 . S
C2510 C2508 1.384 . S
C2510 C2511 1.372 . S
C2511 C2510 1.372 . S
C2511 C2512 1.400 . S
C2511 C2516 1.490 . S
C2512 H2502 0.930 . S
C2512 C2511 1.400 . S
C2512 C2515 1.386 . S
H2513 C2529 0.930 . S
H2514 C2530 0.931 . S
C2515 H2503 0.929 . S
C2515 C2509 1.390 . S
C2515 C2512 1.386 . S
C2516 C2511 1.490 . S
C2516 C2518 1.395 . S
C2516 C2519 1.403 . S
H2517 C2523 0.930 . S
C2518 H2504 0.930 . S
C2518 C2516 1.395 . S
C2518 C2521 1.403 . S
C2519 C2516 1.403 . S
C2519 C2520 1.524 . S
C2519 C2523 1.400 . S
C2520 H2505 0.960 . S
C2520 H2506 0.960 . S
C2520 H2507 0.960 . S
C2520 C2519 1.524 . S
C2521 C2518 1.403 . S
C2521 C2522 1.392 . S
C2521 C2525 1.495 . S
C2522 C2521 1.392 . S
C2522 C2523 1.385 . S
C2522 C2524 1.478 . S
C2523 H2517 0.930 . S
C2523 C2519 1.400 . S
C2523 C2522 1.385 . S
C2524 C2522 1.478 . S
C2524 C2526 1.381 . S
C2524 C2530 1.383 . S
C2525 C2521 1.495 . S
C2525 H2531 0.959 . S
C2525 H2532 0.961 . S
C2525 H2533 0.960 . S
C2526 C2524 1.381 . S
C2526 C2527 1.394 . S
C2526 H2534 0.930 . S
C2527 C2526 1.394 . S
C2527 C2528 1.383 . S
C2527 H2535 0.929 . S
C2528 C2527 1.383 . S
C2528 C2529 1.377 . S
C2529 H2513 0.930 . S
C2529 C2528 1.377 . S
C2529 C2530 1.379 . S
C2530 H2514 0.931 . S
C2530 C2524 1.383 . S
C2530 C2529 1.379 . S
H2531 C2525 0.959 . S
H2532 C2525 0.961 . S
H2533 C2525 0.960 . S
H2534 C2526 0.930 . S
H2535 C2527 0.929 . S
H2536 C2544 0.929 . S
H2537 C2546 0.930 . S
H2538 C2548 0.930 . S
H2539 C2551 0.929 . S
H2540 C2554 0.930 . S
H2541 C2556 0.960 . S
H2542 C2556 0.960 . S
H2543 C2556 0.960 . S
C2544 H2536 0.929 . S
C2544 C2545 1.377 . S
C2544 C2546 1.384 . S
C2545 C2544 1.377 . S
C2545 C2551 1.390 . S
C2546 H2537 0.930 . S
C2546 C2544 1.384 . S
C2546 C2547 1.372 . S
C2547 C2546 1.372 . S
C2547 C2548 1.400 . S
C2547 C2552 1.490 . S
C2548 H2538 0.930 . S
C2548 C2547 1.400 . S
C2548 C2551 1.386 . S
H2549 C2565 0.930 . S
H2550 C2566 0.931 . S
C2551 H2539 0.929 . S
C2551 C2545 1.390 . S
C2551 C2548 1.386 . S
C2552 C2547 1.490 . S
C2552 C2554 1.395 . S
C2552 C2555 1.403 . S
H2553 C2559 0.930 . S
C2554 H2540 0.930 . S
C2554 C2552 1.395 . S
C2554 C2557 1.403 . S
C2555 C2552 1.403 . S
C2555 C2556 1.524 . S
C2555 C2559 1.400 . S
C2556 H2541 0.960 . S
C2556 H2542 0.960 . S
C2556 H2543 0.960 . S
C2556 C2555 1.524 . S
C2557 C2554 1.403 . S
C2557 C2558 1.392 . S
C2557 C2561 1.495 . S
C2558 C2557 1.392 . S
C2558 C2559 1.385 . S
C2558 C2560 1.478 . S
C2559 H2553 0.930 . S
C2559 C2555 1.400 . S
C2559 C2558 1.385 . S
C2560 C2558 1.478 . S
C2560 C2562 1.381 . S
C2560 C2566 1.383 . S
C2561 C2557 1.495 . S
C2561 H2567 0.959 . S
C2561 H2568 0.961 . S
C2561 H2569 0.960 . S
C2562 C2560 1.381 . S
C2562 C2563 1.394 . S
C2562 H2570 0.930 . S
C2563 C2562 1.394 . S
C2563 C2564 1.383 . S
C2563 H2571 0.929 . S
C2564 C2563 1.383 . S
C2564 C2565 1.377 . S
C2565 H2549 0.930 . S
C2565 C2564 1.377 . S
C2565 C2566 1.379 . S
C2566 H2550 0.931 . S
C2566 C2560 1.383 . S
C2566 C2565 1.379 . S
H2567 C2561 0.959 . S
H2568 C2561 0.961 . S
H2569 C2561 0.960 . S
H2570 C2562 0.930 . S
H2571 C2563 0.929 . S
H2572 C2580 0.929 . S
H2573 C2582 0.930 . S
H2574 C2584 0.930 . S
H2575 C2587 0.929 . S
H2576 C2590 0.930 . S
H2577 C2592 0.960 . S
H2578 C2592 0.960 . S
H2579 C2592 0.960 . S
C2580 H2572 0.929 . S
C2580 C2581 1.377 . S
C2580 C2582 1.384 . S
C2581 C2580 1.377 . S
C2581 C2587 1.390 . S
C2582 H2573 0.930 . S
C2582 C2580 1.384 . S
C2582 C2583 1.372 . S
C2583 C2582 1.372 . S
C2583 C2584 1.400 . S
C2583 C2588 1.490 . S
C2584 H2574 0.930 . S
C2584 C2583 1.400 . S
C2584 C2587 1.386 . S
H2585 C2601 0.930 . S
H2586 C2602 0.931 . S
C2587 H2575 0.929 . S
C2587 C2581 1.390 . S
C2587 C2584 1.386 . S
C2588 C2583 1.490 . S
C2588 C2590 1.395 . S
C2588 C2591 1.403 . S
H2589 C2595 0.930 . S
C2590 H2576 0.930 . S
C2590 C2588 1.395 . S
C2590 C2593 1.403 . S
C2591 C2588 1.403 . S
C2591 C2592 1.524 . S
C2591 C2595 1.400 . S
C2592 H2577 0.960 . S
C2592 H2578 0.960 . S
C2592 H2579 0.960 . S
C2592 C2591 1.524 . S
C2593 C2590 1.403 . S
C2593 C2594 1.392 . S
C2593 C2597 1.495 . S
C2594 C2593 1.392 . S
C2594 C2595 1.385 . S
C2594 C2596 1.478 . S
C2595 H2589 0.930 . S
C2595 C2591 1.400 . S
C2595 C2594 1.385 . S
C2596 C2594 1.478 . S
C2596 C2598 1.381 . S
C2596 C2602 1.383 . S
C2597 C2593 1.495 . S
C2597 H2603 0.959 . S
C2597 H2604 0.961 . S
C2597 H2605 0.960 . S
C2598 C2596 1.381 . S
C2598 C2599 1.394 . S
C2598 H2606 0.930 . S
C2599 C2598 1.394 . S
C2599 C2600 1.383 . S
C2599 H2607 0.929 . S
C2600 C2599 1.383 . S
C2600 C2601 1.377 . S
C2601 H2585 0.930 . S
C2601 C2600 1.377 . S
C2601 C2602 1.379 . S
C2602 H2586 0.931 . S
C2602 C2596 1.383 . S
C2602 C2601 1.379 . S
H2603 C2597 0.959 . S
H2604 C2597 0.961 . S
H2605 C2597 0.960 . S
H2606 C2598 0.930 . S
H2607 C2599 0.929 . S
H2608 C2616 0.929 . S
H2609 C2618 0.930 . S
H2610 C2620 0.930 . S
H2611 C2623 0.929 . S
H2612 C2626 0.930 . S
H2613 C2628 0.960 . S
H2614 C2628 0.960 . S
H2615 C2628 0.960 . S
C2616 H2608 0.929 . S
C2616 C2617 1.377 . S
C2616 C2618 1.384 . S
C2617 C2616 1.377 . S
C2617 C2623 1.390 . S
C2618 H2609 0.930 . S
C2618 C2616 1.384 . S
C2618 C2619 1.372 . S
C2619 C2618 1.372 . S
C2619 C2620 1.400 . S
C2619 C2624 1.490 . S
C2620 H2610 0.930 . S
C2620 C2619 1.400 . S
C2620 C2623 1.386 . S
H2621 C2637 0.930 . S
H2622 C2638 0.931 . S
C2623 H2611 0.929 . S
C2623 C2617 1.390 . S
C2623 C2620 1.386 . S
C2624 C2619 1.490 . S
C2624 C2626 1.395 . S
C2624 C2627 1.403 . S
H2625 C2631 0.930 . S
C2626 H2612 0.930 . S
C2626 C2624 1.395 . S
C2626 C2629 1.403 . S
C2627 C2624 1.403 . S
C2627 C2628 1.524 . S
C2627 C2631 1.400 . S
C2628 H2613 0.960 . S
C2628 H2614 0.960 . S
C2628 H2615 0.960 . S
C2628 C2627 1.524 . S
C2629 C2626 1.403 . S
C2629 C2630 1.392 . S
C2629 C2633 1.495 . S
C2630 C2629 1.392 . S
C2630 C2631 1.385 . S
C2630 C2632 1.478 . S
C2631 H2625 0.930 . S
C2631 C2627 1.400 . S
C2631 C2630 1.385 . S
C2632 C2630 1.478 . S
C2632 C2634 1.381 . S
C2632 C2638 1.383 . S
C2633 C2629 1.495 . S
C2633 H2639 0.959 . S
C2633 H2640 0.961 . S
C2633 H2641 0.960 . S
C2634 C2632 1.381 . S
C2634 C2635 1.394 . S
C2634 H2642 0.930 . S
C2635 C2634 1.394 . S
C2635 C2636 1.383 . S
C2635 H2643 0.929 . S
C2636 C2635 1.383 . S
C2636 C2637 1.377 . S
C2637 H2621 0.930 . S
C2637 C2636 1.377 . S
C2637 C2638 1.379 . S
C2638 H2622 0.931 . S
C2638 C2632 1.383 . S
C2638 C2637 1.379 . S
H2639 C2633 0.959 . S
H2640 C2633 0.961 . S
H2641 C2633 0.960 . S
H2642 C2634 0.930 . S
H2643 C2635 0.929 . S
H2644 C2652 0.929 . S
H2645 C2654 0.930 . S
H2646 C2656 0.930 . S
H2647 C2659 0.929 . S
H2648 C2662 0.930 . S
H2649 C2664 0.960 . S
H2650 C2664 0.960 . S
H2651 C2664 0.960 . S
C2652 H2644 0.929 . S
C2652 C2653 1.377 . S
C2652 C2654 1.384 . S
C2653 C2652 1.377 . S
C2653 C2659 1.390 . S
C2654 H2645 0.930 . S
C2654 C2652 1.384 . S
C2654 C2655 1.372 . S
C2655 C2654 1.372 . S
C2655 C2656 1.400 . S
C2655 C2660 1.490 . S
C2656 H2646 0.930 . S
C2656 C2655 1.400 . S
C2656 C2659 1.386 . S
H2657 C2673 0.930 . S
H2658 C2674 0.931 . S
C2659 H2647 0.929 . S
C2659 C2653 1.390 . S
C2659 C2656 1.386 . S
C2660 C2655 1.490 . S
C2660 C2662 1.395 . S
C2660 C2663 1.403 . S
H2661 C2667 0.930 . S
C2662 H2648 0.930 . S
C2662 C2660 1.395 . S
C2662 C2665 1.403 . S
C2663 C2660 1.403 . S
C2663 C2664 1.524 . S
C2663 C2667 1.400 . S
C2664 H2649 0.960 . S
C2664 H2650 0.960 . S
C2664 H2651 0.960 . S
C2664 C2663 1.524 . S
C2665 C2662 1.403 . S
C2665 C2666 1.392 . S
C2665 C2669 1.495 . S
C2666 C2665 1.392 . S
C2666 C2667 1.385 . S
C2666 C2668 1.478 . S
C2667 H2661 0.930 . S
C2667 C2663 1.400 . S
C2667 C2666 1.385 . S
C2668 C2666 1.478 . S
C2668 C2670 1.381 . S
C2668 C2674 1.383 . S
C2669 C2665 1.495 . S
C2669 H2675 0.959 . S
C2669 H2676 0.961 . S
C2669 H2677 0.960 . S
C2670 C2668 1.381 . S
C2670 C2671 1.394 . S
C2670 H2678 0.930 . S
C2671 C2670 1.394 . S
C2671 C2672 1.383 . S
C2671 H2679 0.929 . S
C2672 C2671 1.383 . S
C2672 C2673 1.377 . S
C2673 H2657 0.930 . S
C2673 C2672 1.377 . S
C2673 C2674 1.379 . S
C2674 H2658 0.931 . S
C2674 C2668 1.383 . S
C2674 C2673 1.379 . S
H2675 C2669 0.959 . S
H2676 C2669 0.961 . S
H2677 C2669 0.960 . S
H2678 C2670 0.930 . S
H2679 C2671 0.929 . S
H2680 C2688 0.929 . S
H2681 C2690 0.930 . S
H2682 C2692 0.930 . S
H2683 C2695 0.929 . S
H2684 C2698 0.930 . S
H2685 C2700 0.960 . S
H2686 C2700 0.960 . S
H2687 C2700 0.960 . S
C2688 H2680 0.929 . S
C2688 C2689 1.377 . S
C2688 C2690 1.384 . S
C2689 C2688 1.377 . S
C2689 C2695 1.390 . S
C2690 H2681 0.930 . S
C2690 C2688 1.384 . S
C2690 C2691 1.372 . S
C2691 C2690 1.372 . S
C2691 C2692 1.400 . S
C2691 C2696 1.490 . S
C2692 H2682 0.930 . S
C2692 C2691 1.400 . S
C2692 C2695 1.386 . S
H2693 C2709 0.930 . S
H2694 C2710 0.931 . S
C2695 H2683 0.929 . S
C2695 C2689 1.390 . S
C2695 C2692 1.386 . S
C2696 C2691 1.490 . S
C2696 C2698 1.395 . S
C2696 C2699 1.403 . S
H2697 C2703 0.930 . S
C2698 H2684 0.930 . S
C2698 C2696 1.395 . S
C2698 C2701 1.403 . S
C2699 C2696 1.403 . S
C2699 C2700 1.524 . S
C2699 C2703 1.400 . S
C2700 H2685 0.960 . S
C2700 H2686 0.960 . S
C2700 H2687 0.960 . S
C2700 C2699 1.524 . S
C2701 C2698 1.403 . S
C2701 C2702 1.392 . S
C2701 C2705 1.495 . S
C2702 C2701 1.392 . S
C2702 C2703 1.385 . S
C2702 C2704 1.478 . S
C2703 H2697 0.930 . S
C2703 C2699 1.400 . S
C2703 C2702 1.385 . S
C2704 C2702 1.478 . S
C2704 C2706 1.381 . S
C2704 C2710 1.383 . S
C2705 C2701 1.495 . S
C2705 H2711 0.959 . S
C2705 H2712 0.961 . S
C2705 H2713 0.960 . S
C2706 C2704 1.381 . S
C2706 C2707 1.394 . S
C2706 H2714 0.930 . S
C2707 C2706 1.394 . S
C2707 C2708 1.383 . S
C2707 H2715 0.929 . S
C2708 C2707 1.383 . S
C2708 C2709 1.377 . S
C2709 H2693 0.930 . S
C2709 C2708 1.377 . S
C2709 C2710 1.379 . S
C2710 H2694 0.931 . S
C2710 C2704 1.383 . S
C2710 C2709 1.379 . S
H2711 C2705 0.959 . S
H2712 C2705 0.961 . S
H2713 C2705 0.960 . S
H2714 C2706 0.930 . S
H2715 C2707 0.929 . S
H2716 C2724 0.929 . S
H2717 C2726 0.930 . S
H2718 C2728 0.930 . S
H2719 C2731 0.929 . S
H2720 C2734 0.930 . S
H2721 C2736 0.960 . S
H2722 C2736 0.960 . S
H2723 C2736 0.960 . S
C2724 H2716 0.929 . S
C2724 C2725 1.377 . S
C2724 C2726 1.384 . S
C2725 C2724 1.377 . S
C2725 C2731 1.390 . S
C2726 H2717 0.930 . S
C2726 C2724 1.384 . S
C2726 C2727 1.372 . S
C2727 C2726 1.372 . S
C2727 C2728 1.400 . S
C2727 C2732 1.490 . S
C2728 H2718 0.930 . S
C2728 C2727 1.400 . S
C2728 C2731 1.386 . S
H2729 C2745 0.930 . S
H2730 C2746 0.931 . S
C2731 H2719 0.929 . S
C2731 C2725 1.390 . S
C2731 C2728 1.386 . S
C2732 C2727 1.490 . S
C2732 C2734 1.395 . S
C2732 C2735 1.403 . S
H2733 C2739 0.930 . S
C2734 H2720 0.930 . S
C2734 C2732 1.395 . S
C2734 C2737 1.403 . S
C2735 C2732 1.403 . S
C2735 C2736 1.524 . S
C2735 C2739 1.400 . S
C2736 H2721 0.960 . S
C2736 H2722 0.960 . S
C2736 H2723 0.960 . S
C2736 C2735 1.524 . S
C2737 C2734 1.403 . S
C2737 C2738 1.392 . S
C2737 C2741 1.495 . S
C2738 C2737 1.392 . S
C2738 C2739 1.385 . S
C2738 C2740 1.478 . S
C2739 H2733 0.930 . S
C2739 C2735 1.400 . S
C2739 C2738 1.385 . S
C2740 C2738 1.478 . S
C2740 C2742 1.381 . S
C2740 C2746 1.383 . S
C2741 C2737 1.495 . S
C2741 H2747 0.959 . S
C2741 H2748 0.961 . S
C2741 H2749 0.960 . S
C2742 C2740 1.381 . S
C2742 C2743 1.394 . S
C2742 H2750 0.930 . S
C2743 C2742 1.394 . S
C2743 C2744 1.383 . S
C2743 H2751 0.929 . S
C2744 C2743 1.383 . S
C2744 C2745 1.377 . S
C2745 H2729 0.930 . S
C2745 C2744 1.377 . S
C2745 C2746 1.379 . S
C2746 H2730 0.931 . S
C2746 C2740 1.383 . S
C2746 C2745 1.379 . S
H2747 C2741 0.959 . S
H2748 C2741 0.961 . S
H2749 C2741 0.960 . S
H2750 C2742 0.930 . S
H2751 C2743 0.929 . S
H2752 C2760 0.929 . S
H2753 C2762 0.930 . S
H2754 C2764 0.930 1_655 S
H2755 C2767 0.929 1_655 S
H2756 C2770 0.930 . S
H2757 C2772 0.964 1_654 S
H2758 C2772 0.957 1_554 S
H2759 C2772 0.963 1_655 S
C2760 H2752 0.929 . S
C2760 C2761 1.377 . S
C2760 C2762 1.384 . S
C2761 C2760 1.377 . S
C2761 C2767 1.390 . S
C2762 H2753 0.930 . S
C2762 C2760 1.384 . S
C2762 C2763 1.372 . S
C2763 C2762 1.372 . S
C2763 C2764 1.400 . S
C2763 C2768 1.490 . S
C2764 H2754 0.930 1_455 S
C2764 C2763 1.400 . S
C2764 C2767 1.386 . S
H2765 C2781 0.930 . S
H2766 C2782 0.931 . S
C2767 H2755 0.929 1_455 S
C2767 C2761 1.390 . S
C2767 C2764 1.386 . S
C2768 C2763 1.490 . S
C2768 C2770 1.395 . S
C2768 C2771 1.403 . S
H2769 C2775 0.930 . S
C2770 H2756 0.930 . S
C2770 C2768 1.395 . S
C2770 C2773 1.403 . S
C2771 C2768 1.403 . S
C2771 C2772 1.520 . S
C2771 C2775 1.400 . S
C2772 H2757 0.964 1_456 S
C2772 H2758 0.957 1_556 S
C2772 H2759 0.963 1_455 S
C2772 C2771 1.520 . S
C2773 C2770 1.403 . S
C2773 C2774 1.392 . S
C2773 C2777 1.495 . S
C2774 C2773 1.392 . S
C2774 C2775 1.385 . S
C2774 C2776 1.478 . S
C2775 H2769 0.930 . S
C2775 C2771 1.400 . S
C2775 C2774 1.385 . S
C2776 C2774 1.478 . S
C2776 C2778 1.381 1_556 S
C2776 C2782 1.383 . S
C2777 C2773 1.495 . S
C2777 H2783 0.959 . S
C2777 H2784 0.961 . S
C2777 H2785 0.960 . S
C2778 C2776 1.381 1_554 S
C2778 C2779 1.394 . S
C2778 H2786 0.930 . S
C2779 C2778 1.394 . S
C2779 C2780 1.383 . S
C2779 H2787 0.929 . S
C2780 C2779 1.383 . S
C2780 C2781 1.377 1_554 S
C2781 H2765 0.930 . S
C2781 C2780 1.377 1_556 S
C2781 C2782 1.379 . S
C2782 H2766 0.931 . S
C2782 C2776 1.383 . S
C2782 C2781 1.379 . S
H2783 C2777 0.959 . S
H2784 C2777 0.961 . S
H2785 C2777 0.960 . S
H2786 C2778 0.930 . S
H2787 C2779 0.929 . S
H2788 C2796 0.929 1_455 S
H2789 C2798 0.930 . S
H2790 C2800 0.930 . S
H2791 C2803 0.929 . S
H2792 C2806 0.930 . S
H2793 C2808 0.960 . S
H2794 C2808 0.960 . S
H2795 C2808 0.960 . S
C2796 H2788 0.929 1_655 S
C2796 C2797 1.377 . S
C2796 C2798 1.384 . S
C2797 C2796 1.377 . S
C2797 C2803 1.390 . S
C2798 H2789 0.930 . S
C2798 C2796 1.384 . S
C2798 C2799 1.372 . S
C2799 C2798 1.372 . S
C2799 C2800 1.400 . S
C2799 C2804 1.490 . S
C2800 H2790 0.930 . S
C2800 C2799 1.400 . S
C2800 C2803 1.386 . S
H2801 C2817 0.930 . S
H2802 C2818 0.931 . S
C2803 H2791 0.929 . S
C2803 C2797 1.390 . S
C2803 C2800 1.386 . S
C2804 C2799 1.490 . S
C2804 C2806 1.395 . S
C2804 C2807 1.403 . S
H2805 C2811 0.930 . S
C2806 H2792 0.930 . S
C2806 C2804 1.395 . S
C2806 C2809 1.403 . S
C2807 C2804 1.403 . S
C2807 C2808 1.524 . S
C2807 C2811 1.400 . S
C2808 H2793 0.960 . S
C2808 H2794 0.960 . S
C2808 H2795 0.960 . S
C2808 C2807 1.524 . S
C2809 C2806 1.403 . S
C2809 C2810 1.392 . S
C2809 C2813 1.495 . S
C2810 C2809 1.392 . S
C2810 C2811 1.385 . S
C2810 C2812 1.478 . S
C2811 H2805 0.930 . S
C2811 C2807 1.400 . S
C2811 C2810 1.385 . S
C2812 C2810 1.478 . S
C2812 C2814 1.381 . S
C2812 C2818 1.383 . S
C2813 C2809 1.495 . S
C2813 H2819 0.959 . S
C2813 H2820 0.961 . S
C2813 H2821 0.960 . S
C2814 C2812 1.381 . S
C2814 C2815 1.394 . S
C2814 H2822 0.930 . S
C2815 C2814 1.394 . S
C2815 C2816 1.383 . S
C2815 H2823 0.929 . S
C2816 C2815 1.383 . S
C2816 C2817 1.377 . S
C2817 H2801 0.930 . S
C2817 C2816 1.377 . S
C2817 C2818 1.379 . S
C2818 H2802 0.931 . S
C2818 C2812 1.383 . S
C2818 C2817 1.379 . S
H2819 C2813 0.959 . S
H2820 C2813 0.961 . S
H2821 C2813 0.960 . S
H2822 C2814 0.930 . S
H2823 C2815 0.929 . S
H2824 C2832 0.929 . S
H2825 C2834 0.930 . S
H2826 C2836 0.930 . S
H2827 C2839 0.929 . S
H2828 C2842 0.930 . S
H2829 C2844 0.960 . S
H2830 C2844 0.960 . S
H2831 C2844 0.960 . S
C2832 H2824 0.929 . S
C2832 C2833 1.377 . S
C2832 C2834 1.384 . S
C2833 C2832 1.377 . S
C2833 C2839 1.390 . S
C2834 H2825 0.930 . S
C2834 C2832 1.384 . S
C2834 C2835 1.372 . S
C2835 C2834 1.372 . S
C2835 C2836 1.400 . S
C2835 C2840 1.490 . S
C2836 H2826 0.930 . S
C2836 C2835 1.400 . S
C2836 C2839 1.386 . S
H2837 C2853 0.930 . S
H2838 C2854 0.931 . S
C2839 H2827 0.929 . S
C2839 C2833 1.390 . S
C2839 C2836 1.386 . S
C2840 C2835 1.490 . S
C2840 C2842 1.395 . S
C2840 C2843 1.403 . S
H2841 C2847 0.930 . S
C2842 H2828 0.930 . S
C2842 C2840 1.395 . S
C2842 C2845 1.403 . S
C2843 C2840 1.403 . S
C2843 C2844 1.524 . S
C2843 C2847 1.400 . S
C2844 H2829 0.960 . S
C2844 H2830 0.960 . S
C2844 H2831 0.960 . S
C2844 C2843 1.524 . S
C2845 C2842 1.403 . S
C2845 C2846 1.392 . S
C2845 C2849 1.495 . S
C2846 C2845 1.392 . S
C2846 C2847 1.385 . S
C2846 C2848 1.478 . S
C2847 H2841 0.930 . S
C2847 C2843 1.400 . S
C2847 C2846 1.385 . S
C2848 C2846 1.478 . S
C2848 C2850 1.381 . S
C2848 C2854 1.383 . S
C2849 C2845 1.495 . S
C2849 H2855 0.959 . S
C2849 H2856 0.961 . S
C2849 H2857 0.960 . S
C2850 C2848 1.381 . S
C2850 C2851 1.394 . S
C2850 H2858 0.930 . S
C2851 C2850 1.394 . S
C2851 C2852 1.383 . S
C2851 H2859 0.929 . S
C2852 C2851 1.383 . S
C2852 C2853 1.377 . S
C2853 H2837 0.930 . S
C2853 C2852 1.377 . S
C2853 C2854 1.379 . S
C2854 H2838 0.931 . S
C2854 C2848 1.383 . S
C2854 C2853 1.379 . S
H2855 C2849 0.959 . S
H2856 C2849 0.961 . S
H2857 C2849 0.960 . S
H2858 C2850 0.930 . S
H2859 C2851 0.929 . S
H2860 C2868 0.929 . S
H2861 C2870 0.930 . S
H2862 C2872 0.930 . S
H2863 C2875 0.929 . S
H2864 C2878 0.930 . S
H2865 C2880 0.960 . S
H2866 C2880 0.960 . S
H2867 C2880 0.960 . S
C2868 H2860 0.929 . S
C2868 C2869 1.377 . S
C2868 C2870 1.384 . S
C2869 C2868 1.377 . S
C2869 C2875 1.390 . S
C2870 H2861 0.930 . S
C2870 C2868 1.384 . S
C2870 C2871 1.372 . S
C2871 C2870 1.372 . S
C2871 C2872 1.400 . S
C2871 C2876 1.490 . S
C2872 H2862 0.930 . S
C2872 C2871 1.400 . S
C2872 C2875 1.386 . S
H2873 C2889 0.930 . S
H2874 C2890 0.931 . S
C2875 H2863 0.929 . S
C2875 C2869 1.390 . S
C2875 C2872 1.386 . S
C2876 C2871 1.490 . S
C2876 C2878 1.395 . S
C2876 C2879 1.403 . S
H2877 C2883 0.930 . S
C2878 H2864 0.930 . S
C2878 C2876 1.395 . S
C2878 C2881 1.403 . S
C2879 C2876 1.403 . S
C2879 C2880 1.524 . S
C2879 C2883 1.400 . S
C2880 H2865 0.960 . S
C2880 H2866 0.960 . S
C2880 H2867 0.960 . S
C2880 C2879 1.524 . S
C2881 C2878 1.403 . S
C2881 C2882 1.392 . S
C2881 C2885 1.495 . S
C2882 C2881 1.392 . S
C2882 C2883 1.385 . S
C2882 C2884 1.478 . S
C2883 H2877 0.930 . S
C2883 C2879 1.400 . S
C2883 C2882 1.385 . S
C2884 C2882 1.478 . S
C2884 C2886 1.381 . S
C2884 C2890 1.383 . S
C2885 C2881 1.495 . S
C2885 H2891 0.959 . S
C2885 H2892 0.961 . S
C2885 H2893 0.960 . S
C2886 C2884 1.381 . S
C2886 C2887 1.394 . S
C2886 H2894 0.930 . S
C2887 C2886 1.394 . S
C2887 C2888 1.383 . S
C2887 H2895 0.929 . S
C2888 C2887 1.383 . S
C2888 C2889 1.377 . S
C2889 H2873 0.930 . S
C2889 C2888 1.377 . S
C2889 C2890 1.379 . S
C2890 H2874 0.931 . S
C2890 C2884 1.383 . S
C2890 C2889 1.379 . S
H2891 C2885 0.959 . S
H2892 C2885 0.961 . S
H2893 C2885 0.960 . S
H2894 C2886 0.930 . S
H2895 C2887 0.929 . S
H2896 C2904 0.929 . S
H2897 C2906 0.930 . S
H2898 C2908 0.930 . S
H2899 C2911 0.929 . S
H2900 C2914 0.930 . S
H2901 C2916 0.960 . S
H2902 C2916 0.960 . S
H2903 C2916 0.960 . S
C2904 H2896 0.929 . S
C2904 C2905 1.377 . S
C2904 C2906 1.384 . S
C2905 C2904 1.377 . S
C2905 C2911 1.390 . S
C2906 H2897 0.930 . S
C2906 C2904 1.384 . S
C2906 C2907 1.372 . S
C2907 C2906 1.372 . S
C2907 C2908 1.400 . S
C2907 C2912 1.490 . S
C2908 H2898 0.930 . S
C2908 C2907 1.400 . S
C2908 C2911 1.386 . S
H2909 C2925 0.930 . S
H2910 C2926 0.931 . S
C2911 H2899 0.929 . S
C2911 C2905 1.390 . S
C2911 C2908 1.386 . S
C2912 C2907 1.490 . S
C2912 C2914 1.395 . S
C2912 C2915 1.403 . S
H2913 C2919 0.930 . S
C2914 H2900 0.930 . S
C2914 C2912 1.395 . S
C2914 C2917 1.403 . S
C2915 C2912 1.403 . S
C2915 C2916 1.524 . S
C2915 C2919 1.400 . S
C2916 H2901 0.960 . S
C2916 H2902 0.960 . S
C2916 H2903 0.960 . S
C2916 C2915 1.524 . S
C2917 C2914 1.403 . S
C2917 C2918 1.392 . S
C2917 C2921 1.495 . S
C2918 C2917 1.392 . S
C2918 C2919 1.385 . S
C2918 C2920 1.478 . S
C2919 H2913 0.930 . S
C2919 C2915 1.400 . S
C2919 C2918 1.385 . S
C2920 C2918 1.478 . S
C2920 C2922 1.381 . S
C2920 C2926 1.383 . S
C2921 C2917 1.495 . S
C2921 H2927 0.959 . S
C2921 H2928 0.961 . S
C2921 H2929 0.960 . S
C2922 C2920 1.381 . S
C2922 C2923 1.394 . S
C2922 H2930 0.930 . S
C2923 C2922 1.394 . S
C2923 C2924 1.383 . S
C2923 H2931 0.929 . S
C2924 C2923 1.383 . S
C2924 C2925 1.377 . S
C2925 H2909 0.930 . S
C2925 C2924 1.377 . S
C2925 C2926 1.379 . S
C2926 H2910 0.931 . S
C2926 C2920 1.383 . S
C2926 C2925 1.379 . S
H2927 C2921 0.959 . S
H2928 C2921 0.961 . S
H2929 C2921 0.960 . S
H2930 C2922 0.930 . S
H2931 C2923 0.929 . S
H2932 C2940 0.929 . S
H2933 C2942 0.930 . S
H2934 C2944 0.930 . S
H2935 C2947 0.929 . S
H2936 C2950 0.930 . S
H2937 C2952 0.960 . S
H2938 C2952 0.960 . S
H2939 C2952 0.960 . S
C2940 H2932 0.929 . S
C2940 C2941 1.377 . S
C2940 C2942 1.384 . S
C2941 C2940 1.377 . S
C2941 C2947 1.390 . S
C2942 H2933 0.930 . S
C2942 C2940 1.384 . S
C2942 C2943 1.372 . S
C2943 C2942 1.372 . S
C2943 C2944 1.400 . S
C2943 C2948 1.490 . S
C2944 H2934 0.930 . S
C2944 C2943 1.400 . S
C2944 C2947 1.386 . S
H2945 C2961 0.930 . S
H2946 C2962 0.931 . S
C2947 H2935 0.929 . S
C2947 C2941 1.390 . S
C2947 C2944 1.386 . S
C2948 C2943 1.490 . S
C2948 C2950 1.395 . S
C2948 C2951 1.403 . S
H2949 C2955 0.930 . S
C2950 H2936 0.930 . S
C2950 C2948 1.395 . S
C2950 C2953 1.403 . S
C2951 C2948 1.403 . S
C2951 C2952 1.524 . S
C2951 C2955 1.400 . S
C2952 H2937 0.960 . S
C2952 H2938 0.960 . S
C2952 H2939 0.960 . S
C2952 C2951 1.524 . S
C2953 C2950 1.403 . S
C2953 C2954 1.392 . S
C2953 C2957 1.495 . S
C2954 C2953 1.392 . S
C2954 C2955 1.385 . S
C2954 C2956 1.478 . S
C2955 H2949 0.930 . S
C2955 C2951 1.400 . S
C2955 C2954 1.385 . S
C2956 C2954 1.478 . S
C2956 C2958 1.381 . S
C2956 C2962 1.383 . S
C2957 C2953 1.495 . S
C2957 H2963 0.959 . S
C2957 H2964 0.961 . S
C2957 H2965 0.960 . S
C2958 C2956 1.381 . S
C2958 C2959 1.394 . S
C2958 H2966 0.930 . S
C2959 C2958 1.394 . S
C2959 C2960 1.383 . S
C2959 H2967 0.929 . S
C2960 C2959 1.383 . S
C2960 C2961 1.377 . S
C2961 H2945 0.930 . S
C2961 C2960 1.377 . S
C2961 C2962 1.379 . S
C2962 H2946 0.931 . S
C2962 C2956 1.383 . S
C2962 C2961 1.379 . S
H2963 C2957 0.959 . S
H2964 C2957 0.961 . S
H2965 C2957 0.960 . S
H2966 C2958 0.930 . S
H2967 C2959 0.929 . S
H2968 C2976 0.929 . S
H2969 C2978 0.930 . S
H2970 C2980 0.930 . S
H2971 C2983 0.929 . S
H2972 C2986 0.930 . S
H2973 C2988 0.960 . S
H2974 C2988 0.960 . S
H2975 C2988 0.960 . S
C2976 H2968 0.929 . S
C2976 C2977 1.377 . S
C2976 C2978 1.384 . S
C2977 C2976 1.377 . S
C2977 C2983 1.390 . S
C2978 H2969 0.930 . S
C2978 C2976 1.384 . S
C2978 C2979 1.372 . S
C2979 C2978 1.372 . S
C2979 C2980 1.400 . S
C2979 C2984 1.490 . S
C2980 H2970 0.930 . S
C2980 C2979 1.400 . S
C2980 C2983 1.386 . S
H2981 C2997 0.930 . S
H2982 C2998 0.931 . S
C2983 H2971 0.929 . S
C2983 C2977 1.390 . S
C2983 C2980 1.386 . S
C2984 C2979 1.490 . S
C2984 C2986 1.395 . S
C2984 C2987 1.403 . S
H2985 C2991 0.930 . S
C2986 H2972 0.930 . S
C2986 C2984 1.395 . S
C2986 C2989 1.403 . S
C2987 C2984 1.403 . S
C2987 C2988 1.524 . S
C2987 C2991 1.400 . S
C2988 H2973 0.960 . S
C2988 H2974 0.960 . S
C2988 H2975 0.960 . S
C2988 C2987 1.524 . S
C2989 C2986 1.403 . S
C2989 C2990 1.392 . S
C2989 C2993 1.495 . S
C2990 C2989 1.392 . S
C2990 C2991 1.385 . S
C2990 C2992 1.478 . S
C2991 H2985 0.930 . S
C2991 C2987 1.400 . S
C2991 C2990 1.385 . S
C2992 C2990 1.478 . S
C2992 C2994 1.381 . S
C2992 C2998 1.383 . S
C2993 C2989 1.495 . S
C2993 H2999 0.959 . S
C2993 H3000 0.961 . S
C2993 H3001 0.960 . S
C2994 C2992 1.381 . S
C2994 C2995 1.394 . S
C2994 H3002 0.930 . S
C2995 C2994 1.394 . S
C2995 C2996 1.383 . S
C2995 H3003 0.929 . S
C2996 C2995 1.383 . S
C2996 C2997 1.377 . S
C2997 H2981 0.930 . S
C2997 C2996 1.377 . S
C2997 C2998 1.379 . S
C2998 H2982 0.931 . S
C2998 C2992 1.383 . S
C2998 C2997 1.379 . S
H2999 C2993 0.959 . S
H3000 C2993 0.961 . S
H3001 C2993 0.960 . S
H3002 C2994 0.930 . S
H3003 C2995 0.929 . S
H3004 C3012 0.929 . S
H3005 C3014 0.930 . S
H3006 C3016 0.934 . S
H3007 C3019 0.929 . S
H3008 C3022 0.930 . S
H3009 C3024 0.960 . S
H3010 C3024 0.960 . S
H3011 C3024 0.960 . S
C3012 H3004 0.929 . S
C3012 C3013 1.377 . S
C3012 C3014 1.384 1_554 S
C3013 C3012 1.377 . S
C3013 C3019 1.390 . S
C3014 H3005 0.930 . S
C3014 C3012 1.384 1_556 S
C3014 C3015 1.372 . S
C3015 C3014 1.372 . S
C3015 C3016 1.402 . S
C3015 C3020 1.490 . S
C3016 H3006 0.934 . S
C3016 C3015 1.402 . S
C3016 C3019 1.379 1_556 S
H3017 C3033 0.930 . S
H3018 C3034 0.931 . S
C3019 H3007 0.929 . S
C3019 C3013 1.390 . S
C3019 C3016 1.379 1_554 S
C3020 C3015 1.490 . S
C3020 C3022 1.395 . S
C3020 C3023 1.403 . S
H3021 C3027 0.930 . S
C3022 H3008 0.930 . S
C3022 C3020 1.395 . S
C3022 C3025 1.403 . S
C3023 C3020 1.403 . S
C3023 C3024 1.524 . S
C3023 C3027 1.400 . S
C3024 H3009 0.960 . S
C3024 H3010 0.960 . S
C3024 H3011 0.960 . S
C3024 C3023 1.524 . S
C3025 C3022 1.403 . S
C3025 C3026 1.392 . S
C3025 C3029 1.495 . S
C3026 C3025 1.392 . S
C3026 C3027 1.385 . S
C3026 C3028 1.478 . S
C3027 H3021 0.930 . S
C3027 C3023 1.400 . S
C3027 C3026 1.385 . S
C3028 C3026 1.478 . S
C3028 C3030 1.381 . S
C3028 C3034 1.383 . S
C3029 C3025 1.495 . S
C3029 H3035 0.959 . S
C3029 H3036 0.961 . S
C3029 H3037 0.960 . S
C3030 C3028 1.381 . S
C3030 C3031 1.394 . S
C3030 H3038 0.930 . S
C3031 C3030 1.394 . S
C3031 C3032 1.383 . S
C3031 H3039 0.929 . S
C3032 C3031 1.383 . S
C3032 C3033 1.377 . S
C3033 H3017 0.930 . S
C3033 C3032 1.377 . S
C3033 C3034 1.379 . S
C3034 H3018 0.931 . S
C3034 C3028 1.383 . S
C3034 C3033 1.379 . S
H3035 C3029 0.959 . S
H3036 C3029 0.961 . S
H3037 C3029 0.960 . S
H3038 C3030 0.930 . S
H3039 C3031 0.929 . S
H3040 C3048 0.929 . S
H3041 C3050 0.930 . S
H3042 C3052 0.930 . S
H3043 C3055 0.929 . S
H3044 C3058 0.930 . S
H3045 C3060 0.960 . S
H3046 C3060 0.960 . S
H3047 C3060 0.960 . S
C3048 H3040 0.929 . S
C3048 C3049 1.377 . S
C3048 C3050 1.384 . S
C3049 C3048 1.377 . S
C3049 C3055 1.390 . S
C3050 H3041 0.930 . S
C3050 C3048 1.384 . S
C3050 C3051 1.372 . S
C3051 C3050 1.372 . S
C3051 C3052 1.400 . S
C3051 C3056 1.490 . S
C3052 H3042 0.930 . S
C3052 C3051 1.400 . S
C3052 C3055 1.386 . S
H3053 C3069 0.930 . S
H3054 C3070 0.931 . S
C3055 H3043 0.929 . S
C3055 C3049 1.390 . S
C3055 C3052 1.386 . S
C3056 C3051 1.490 . S
C3056 C3058 1.395 . S
C3056 C3059 1.403 . S
H3057 C3063 0.930 . S
C3058 H3044 0.930 . S
C3058 C3056 1.395 . S
C3058 C3061 1.403 . S
C3059 C3056 1.403 . S
C3059 C3060 1.524 . S
C3059 C3063 1.400 . S
C3060 H3045 0.960 . S
C3060 H3046 0.960 . S
C3060 H3047 0.960 . S
C3060 C3059 1.524 . S
C3061 C3058 1.403 . S
C3061 C3062 1.392 . S
C3061 C3065 1.495 . S
C3062 C3061 1.392 . S
C3062 C3063 1.385 . S
C3062 C3064 1.478 . S
C3063 H3057 0.930 . S
C3063 C3059 1.400 . S
C3063 C3062 1.385 . S
C3064 C3062 1.478 . S
C3064 C3066 1.381 . S
C3064 C3070 1.383 . S
C3065 C3061 1.495 . S
C3065 H3071 0.959 . S
C3065 H3072 0.961 . S
C3065 H3073 0.960 . S
C3066 C3064 1.381 . S
C3066 C3067 1.394 . S
C3066 H3074 0.930 . S
C3067 C3066 1.394 . S
C3067 C3068 1.383 . S
C3067 H3075 0.929 . S
C3068 C3067 1.383 . S
C3068 C3069 1.377 . S
C3069 H3053 0.930 . S
C3069 C3068 1.377 . S
C3069 C3070 1.379 . S
C3070 H3054 0.931 . S
C3070 C3064 1.383 . S
C3070 C3069 1.379 . S
H3071 C3065 0.959 . S
H3072 C3065 0.961 . S
H3073 C3065 0.960 . S
H3074 C3066 0.930 . S
H3075 C3067 0.929 . S
H3076 C3084 0.929 . S
H3077 C3086 0.930 . S
H3078 C3088 0.930 . S
H3079 C3091 0.929 . S
H3080 C3094 0.930 . S
H3081 C3096 0.960 . S
H3082 C3096 0.960 . S
H3083 C3096 0.960 . S
C3084 H3076 0.929 . S
C3084 C3085 1.377 . S
C3084 C3086 1.384 . S
C3085 C3084 1.377 . S
C3085 C3091 1.390 . S
C3086 H3077 0.930 . S
C3086 C3084 1.384 . S
C3086 C3087 1.372 . S
C3087 C3086 1.372 . S
C3087 C3088 1.400 . S
C3087 C3092 1.490 . S
C3088 H3078 0.930 . S
C3088 C3087 1.400 . S
C3088 C3091 1.386 . S
H3089 C3105 0.930 . S
H3090 C3106 0.931 . S
C3091 H3079 0.929 . S
C3091 C3085 1.390 . S
C3091 C3088 1.386 . S
C3092 C3087 1.490 . S
C3092 C3094 1.395 . S
C3092 C3095 1.403 . S
H3093 C3099 0.930 . S
C3094 H3080 0.930 . S
C3094 C3092 1.395 . S
C3094 C3097 1.403 . S
C3095 C3092 1.403 . S
C3095 C3096 1.524 . S
C3095 C3099 1.400 . S
C3096 H3081 0.960 . S
C3096 H3082 0.960 . S
C3096 H3083 0.960 . S
C3096 C3095 1.524 . S
C3097 C3094 1.403 . S
C3097 C3098 1.392 . S
C3097 C3101 1.495 . S
C3098 C3097 1.392 . S
C3098 C3099 1.385 . S
C3098 C3100 1.478 . S
C3099 H3093 0.930 . S
C3099 C3095 1.400 . S
C3099 C3098 1.385 . S
C3100 C3098 1.478 . S
C3100 C3102 1.381 . S
C3100 C3106 1.383 . S
C3101 C3097 1.495 . S
C3101 H3107 0.959 . S
C3101 H3108 0.961 . S
C3101 H3109 0.960 . S
C3102 C3100 1.381 . S
C3102 C3103 1.394 . S
C3102 H3110 0.930 . S
C3103 C3102 1.394 . S
C3103 C3104 1.383 . S
C3103 H3111 0.929 . S
C3104 C3103 1.383 . S
C3104 C3105 1.377 . S
C3105 H3089 0.930 . S
C3105 C3104 1.377 . S
C3105 C3106 1.379 . S
C3106 H3090 0.931 . S
C3106 C3100 1.383 . S
C3106 C3105 1.379 . S
H3107 C3101 0.959 . S
H3108 C3101 0.961 . S
H3109 C3101 0.960 . S
H3110 C3102 0.930 . S
H3111 C3103 0.929 . S
H3112 C3120 0.929 . S
H3113 C3122 0.930 . S
H3114 C3124 0.930 . S
H3115 C3127 0.929 . S
H3116 C3130 0.930 . S
H3117 C3132 0.960 . S
H3118 C3132 0.960 . S
H3119 C3132 0.960 . S
C3120 H3112 0.929 . S
C3120 C3121 1.377 . S
C3120 C3122 1.384 . S
C3121 C3120 1.377 . S
C3121 C3127 1.390 . S
C3122 H3113 0.930 . S
C3122 C3120 1.384 . S
C3122 C3123 1.372 . S
C3123 C3122 1.372 . S
C3123 C3124 1.400 . S
C3123 C3128 1.490 . S
C3124 H3114 0.930 . S
C3124 C3123 1.400 . S
C3124 C3127 1.386 . S
H3125 C3141 0.930 . S
H3126 C3142 0.931 . S
C3127 H3115 0.929 . S
C3127 C3121 1.390 . S
C3127 C3124 1.386 . S
C3128 C3123 1.490 . S
C3128 C3130 1.395 . S
C3128 C3131 1.403 . S
H3129 C3135 0.930 . S
C3130 H3116 0.930 . S
C3130 C3128 1.395 . S
C3130 C3133 1.403 . S
C3131 C3128 1.403 . S
C3131 C3132 1.524 . S
C3131 C3135 1.400 . S
C3132 H3117 0.960 . S
C3132 H3118 0.960 . S
C3132 H3119 0.960 . S
C3132 C3131 1.524 . S
C3133 C3130 1.403 . S
C3133 C3134 1.392 . S
C3133 C3137 1.495 . S
C3134 C3133 1.392 . S
C3134 C3135 1.385 . S
C3134 C3136 1.478 . S
C3135 H3129 0.930 . S
C3135 C3131 1.400 . S
C3135 C3134 1.385 . S
C3136 C3134 1.478 . S
C3136 C3138 1.381 . S
C3136 C3142 1.383 . S
C3137 C3133 1.495 . S
C3137 H3143 0.959 . S
C3137 H3144 0.961 . S
C3137 H3145 0.960 . S
C3138 C3136 1.381 . S
C3138 C3139 1.394 . S
C3138 H3146 0.930 . S
C3139 C3138 1.394 . S
C3139 C3140 1.383 . S
C3139 H3147 0.929 . S
C3140 C3139 1.383 . S
C3140 C3141 1.377 . S
C3141 H3125 0.930 . S
C3141 C3140 1.377 . S
C3141 C3142 1.379 . S
C3142 H3126 0.931 . S
C3142 C3136 1.383 . S
C3142 C3141 1.379 . S
H3143 C3137 0.959 . S
H3144 C3137 0.961 . S
H3145 C3137 0.960 . S
H3146 C3138 0.930 . S
H3147 C3139 0.929 . S
H3148 C3156 0.929 . S
H3149 C3158 0.930 . S
H3150 C3160 0.930 . S
H3151 C3163 0.929 . S
H3152 C3166 0.930 . S
H3153 C3168 0.960 . S
H3154 C3168 0.960 . S
H3155 C3168 0.960 . S
C3156 H3148 0.929 . S
C3156 C3157 1.377 . S
C3156 C3158 1.384 . S
C3157 C3156 1.377 . S
C3157 C3163 1.390 . S
C3158 H3149 0.930 . S
C3158 C3156 1.384 . S
C3158 C3159 1.372 . S
C3159 C3158 1.372 . S
C3159 C3160 1.400 . S
C3159 C3164 1.490 . S
C3160 H3150 0.930 . S
C3160 C3159 1.400 . S
C3160 C3163 1.386 . S
H3161 C3177 0.930 . S
H3162 C3178 0.931 . S
C3163 H3151 0.929 . S
C3163 C3157 1.390 . S
C3163 C3160 1.386 . S
C3164 C3159 1.490 . S
C3164 C3166 1.395 . S
C3164 C3167 1.403 . S
H3165 C3171 0.930 . S
C3166 H3152 0.930 . S
C3166 C3164 1.395 . S
C3166 C3169 1.403 . S
C3167 C3164 1.403 . S
C3167 C3168 1.524 . S
C3167 C3171 1.400 . S
C3168 H3153 0.960 . S
C3168 H3154 0.960 . S
C3168 H3155 0.960 . S
C3168 C3167 1.524 . S
C3169 C3166 1.403 . S
C3169 C3170 1.392 . S
C3169 C3173 1.495 . S
C3170 C3169 1.392 . S
C3170 C3171 1.385 . S
C3170 C3172 1.478 . S
C3171 H3165 0.930 . S
C3171 C3167 1.400 . S
C3171 C3170 1.385 . S
C3172 C3170 1.478 . S
C3172 C3174 1.381 . S
C3172 C3178 1.383 . S
C3173 C3169 1.495 . S
C3173 H3179 0.959 . S
C3173 H3180 0.961 . S
C3173 H3181 0.960 . S
C3174 C3172 1.381 . S
C3174 C3175 1.394 . S
C3174 H3182 0.930 . S
C3175 C3174 1.394 . S
C3175 C3176 1.383 . S
C3175 H3183 0.929 . S
C3176 C3175 1.383 . S
C3176 C3177 1.377 . S
C3177 H3161 0.930 . S
C3177 C3176 1.377 . S
C3177 C3178 1.379 . S
C3178 H3162 0.931 . S
C3178 C3172 1.383 . S
C3178 C3177 1.379 . S
H3179 C3173 0.959 . S
H3180 C3173 0.961 . S
H3181 C3173 0.960 . S
H3182 C3174 0.930 . S
H3183 C3175 0.929 . S
H3184 C3192 0.929 . S
H3185 C3194 0.930 . S
H3186 C3196 0.930 . S
H3187 C3199 0.929 . S
H3188 C3202 0.930 . S
H3189 C3204 0.960 . S
H3190 C3204 0.960 . S
H3191 C3204 0.960 . S
C3192 H3184 0.929 . S
C3192 C3193 1.377 . S
C3192 C3194 1.384 . S
C3193 C3192 1.377 . S
C3193 C3199 1.390 . S
C3194 H3185 0.930 . S
C3194 C3192 1.384 . S
C3194 C3195 1.372 . S
C3195 C3194 1.372 . S
C3195 C3196 1.400 . S
C3195 C3200 1.490 . S
C3196 H3186 0.930 . S
C3196 C3195 1.400 . S
C3196 C3199 1.386 . S
H3197 C3213 0.930 . S
H3198 C3214 0.931 . S
C3199 H3187 0.929 . S
C3199 C3193 1.390 . S
C3199 C3196 1.386 . S
C3200 C3195 1.490 . S
C3200 C3202 1.395 . S
C3200 C3203 1.403 . S
H3201 C3207 0.930 . S
C3202 H3188 0.930 . S
C3202 C3200 1.395 . S
C3202 C3205 1.403 . S
C3203 C3200 1.403 . S
C3203 C3204 1.524 . S
C3203 C3207 1.400 . S
C3204 H3189 0.960 . S
C3204 H3190 0.960 . S
C3204 H3191 0.960 . S
C3204 C3203 1.524 . S
C3205 C3202 1.403 . S
C3205 C3206 1.392 . S
C3205 C3209 1.495 . S
C3206 C3205 1.392 . S
C3206 C3207 1.385 . S
C3206 C3208 1.478 . S
C3207 H3201 0.930 . S
C3207 C3203 1.400 . S
C3207 C3206 1.385 . S
C3208 C3206 1.478 . S
C3208 C3210 1.381 . S
C3208 C3214 1.383 . S
C3209 C3205 1.495 . S
C3209 H3215 0.959 . S
C3209 H3216 0.961 . S
C3209 H3217 0.960 . S
C3210 C3208 1.381 . S
C3210 C3211 1.394 . S
C3210 H3218 0.930 . S
C3211 C3210 1.394 . S
C3211 C3212 1.383 . S
C3211 H3219 0.929 . S
C3212 C3211 1.383 . S
C3212 C3213 1.377 . S
C3213 H3197 0.930 . S
C3213 C3212 1.377 . S
C3213 C3214 1.379 . S
C3214 H3198 0.931 . S
C3214 C3208 1.383 . S
C3214 C3213 1.379 . S
H3215 C3209 0.959 . S
H3216 C3209 0.961 . S
H3217 C3209 0.960 . S
H3218 C3210 0.930 . S
H3219 C3211 0.929 . S
H3220 C3228 0.929 . S
H3221 C3230 0.930 . S
H3222 C3232 0.930 . S
H3223 C3235 0.929 . S
H3224 C3238 0.930 . S
H3225 C3240 0.960 . S
H3226 C3240 0.960 . S
H3227 C3240 0.960 . S
C3228 H3220 0.929 . S
C3228 C3229 1.377 . S
C3228 C3230 1.384 . S
C3229 C3228 1.377 . S
C3229 C3235 1.390 . S
C3230 H3221 0.930 . S
C3230 C3228 1.384 . S
C3230 C3231 1.372 . S
C3231 C3230 1.372 . S
C3231 C3232 1.400 . S
C3231 C3236 1.490 . S
C3232 H3222 0.930 . S
C3232 C3231 1.400 . S
C3232 C3235 1.386 . S
H3233 C3249 0.930 . S
H3234 C3250 0.931 . S
C3235 H3223 0.929 . S
C3235 C3229 1.390 . S
C3235 C3232 1.386 . S
C3236 C3231 1.490 . S
C3236 C3238 1.395 . S
C3236 C3239 1.403 . S
H3237 C3243 0.930 . S
C3238 H3224 0.930 . S
C3238 C3236 1.395 . S
C3238 C3241 1.403 . S
C3239 C3236 1.403 . S
C3239 C3240 1.524 . S
C3239 C3243 1.400 . S
C3240 H3225 0.960 . S
C3240 H3226 0.960 . S
C3240 H3227 0.960 . S
C3240 C3239 1.524 . S
C3241 C3238 1.403 . S
C3241 C3242 1.392 . S
C3241 C3245 1.495 . S
C3242 C3241 1.392 . S
C3242 C3243 1.385 . S
C3242 C3244 1.478 . S
C3243 H3237 0.930 . S
C3243 C3239 1.400 . S
C3243 C3242 1.385 . S
C3244 C3242 1.478 . S
C3244 C3246 1.381 . S
C3244 C3250 1.383 . S
C3245 C3241 1.495 . S
C3245 H3251 0.959 . S
C3245 H3252 0.961 . S
C3245 H3253 0.960 . S
C3246 C3244 1.381 . S
C3246 C3247 1.394 . S
C3246 H3254 0.930 . S
C3247 C3246 1.394 . S
C3247 C3248 1.383 . S
C3247 H3255 0.929 . S
C3248 C3247 1.383 . S
C3248 C3249 1.377 . S
C3249 H3233 0.930 . S
C3249 C3248 1.377 . S
C3249 C3250 1.379 . S
C3250 H3234 0.931 . S
C3250 C3244 1.383 . S
C3250 C3249 1.379 . S
H3251 C3245 0.959 . S
H3252 C3245 0.961 . S
H3253 C3245 0.960 . S
H3254 C3246 0.930 . S
H3255 C3247 0.929 . S
H3256 C3264 0.929 . S
H3257 C3266 0.930 . S
H3258 C3268 0.930 . S
H3259 C3271 0.929 . S
H3260 C3274 0.930 . S
H3261 C3276 0.960 . S
H3262 C3276 0.960 . S
H3263 C3276 0.960 . S
C3264 H3256 0.929 . S
C3264 C3265 1.377 . S
C3264 C3266 1.384 . S
C3265 C3264 1.377 . S
C3265 C3271 1.390 . S
C3266 H3257 0.930 . S
C3266 C3264 1.384 . S
C3266 C3267 1.372 . S
C3267 C3266 1.372 . S
C3267 C3268 1.400 . S
C3267 C3272 1.490 . S
C3268 H3258 0.930 . S
C3268 C3267 1.400 . S
C3268 C3271 1.386 . S
H3269 C3285 0.930 . S
H3270 C3286 0.931 . S
C3271 H3259 0.929 . S
C3271 C3265 1.390 . S
C3271 C3268 1.386 . S
C3272 C3267 1.490 . S
C3272 C3274 1.395 . S
C3272 C3275 1.403 . S
H3273 C3279 0.930 . S
C3274 H3260 0.930 . S
C3274 C3272 1.395 . S
C3274 C3277 1.403 . S
C3275 C3272 1.403 . S
C3275 C3276 1.524 . S
C3275 C3279 1.400 . S
C3276 H3261 0.960 . S
C3276 H3262 0.960 . S
C3276 H3263 0.960 . S
C3276 C3275 1.524 . S
C3277 C3274 1.403 . S
C3277 C3278 1.392 . S
C3277 C3281 1.495 . S
C3278 C3277 1.392 . S
C3278 C3279 1.385 . S
C3278 C3280 1.478 . S
C3279 H3273 0.930 . S
C3279 C3275 1.400 . S
C3279 C3278 1.385 . S
C3280 C3278 1.478 . S
C3280 C3282 1.381 . S
C3280 C3286 1.383 . S
C3281 C3277 1.495 . S
C3281 H3287 0.959 . S
C3281 H3288 0.961 . S
C3281 H3289 0.960 . S
C3282 C3280 1.381 . S
C3282 C3283 1.394 . S
C3282 H3290 0.930 . S
C3283 C3282 1.394 . S
C3283 C3284 1.383 . S
C3283 H3291 0.929 . S
C3284 C3283 1.383 . S
C3284 C3285 1.377 . S
C3285 H3269 0.930 . S
C3285 C3284 1.377 . S
C3285 C3286 1.379 . S
C3286 H3270 0.931 . S
C3286 C3280 1.383 . S
C3286 C3285 1.379 . S
H3287 C3281 0.959 . S
H3288 C3281 0.961 . S
H3289 C3281 0.960 . S
H3290 C3282 0.930 . S
H3291 C3283 0.929 . S
H3292 C3300 0.929 . S
H3293 C3302 0.930 . S
H3294 C3304 0.930 . S
H3295 C3307 0.929 . S
H3296 C3310 0.930 . S
H3297 C3312 0.960 . S
H3298 C3312 0.960 . S
H3299 C3312 0.960 . S
C3300 H3292 0.929 . S
C3300 C3301 1.377 . S
C3300 C3302 1.384 . S
C3301 C3300 1.377 . S
C3301 C3307 1.390 . S
C3302 H3293 0.930 . S
C3302 C3300 1.384 . S
C3302 C3303 1.372 . S
C3303 C3302 1.372 . S
C3303 C3304 1.400 . S
C3303 C3308 1.490 . S
C3304 H3294 0.930 . S
C3304 C3303 1.400 . S
C3304 C3307 1.386 . S
H3305 C3321 0.930 . S
H3306 C3322 0.931 . S
C3307 H3295 0.929 . S
C3307 C3301 1.390 . S
C3307 C3304 1.386 . S
C3308 C3303 1.490 . S
C3308 C3310 1.395 . S
C3308 C3311 1.403 . S
H3309 C3315 0.930 . S
C3310 H3296 0.930 . S
C3310 C3308 1.395 . S
C3310 C3313 1.403 . S
C3311 C3308 1.403 . S
C3311 C3312 1.524 . S
C3311 C3315 1.400 . S
C3312 H3297 0.960 . S
C3312 H3298 0.960 . S
C3312 H3299 0.960 . S
C3312 C3311 1.524 . S
C3313 C3310 1.403 . S
C3313 C3314 1.392 . S
C3313 C3317 1.495 . S
C3314 C3313 1.392 . S
C3314 C3315 1.385 . S
C3314 C3316 1.478 . S
C3315 H3309 0.930 . S
C3315 C3311 1.400 . S
C3315 C3314 1.385 . S
C3316 C3314 1.478 . S
C3316 C3318 1.381 . S
C3316 C3322 1.383 . S
C3317 C3313 1.495 . S
C3317 H3323 0.959 . S
C3317 H3324 0.961 . S
C3317 H3325 0.960 . S
C3318 C3316 1.381 . S
C3318 C3319 1.394 . S
C3318 H3326 0.930 . S
C3319 C3318 1.394 . S
C3319 C3320 1.383 . S
C3319 H3327 0.929 . S
C3320 C3319 1.383 . S
C3320 C3321 1.377 . S
C3321 H3305 0.930 . S
C3321 C3320 1.377 . S
C3321 C3322 1.379 . S
C3322 H3306 0.931 . S
C3322 C3316 1.383 . S
C3322 C3321 1.379 . S
H3323 C3317 0.959 . S
H3324 C3317 0.961 . S
H3325 C3317 0.960 . S
H3326 C3318 0.930 . S
H3327 C3319 0.929 . S
H3328 C3336 0.929 . S
H3329 C3338 0.930 . S
H3330 C3340 0.930 . S
H3331 C3343 0.929 . S
H3332 C3346 0.930 . S
H3333 C3348 0.960 . S
H3334 C3348 0.960 . S
H3335 C3348 0.960 . S
C3336 H3328 0.929 . S
C3336 C3337 1.377 . S
C3336 C3338 1.384 . S
C3337 C3336 1.377 . S
C3337 C3343 1.390 . S
C3338 H3329 0.930 . S
C3338 C3336 1.384 . S
C3338 C3339 1.372 . S
C3339 C3338 1.372 . S
C3339 C3340 1.400 . S
C3339 C3344 1.490 . S
C3340 H3330 0.930 . S
C3340 C3339 1.400 . S
C3340 C3343 1.386 . S
H3341 C3357 0.930 . S
H3342 C3358 0.931 . S
C3343 H3331 0.929 . S
C3343 C3337 1.390 . S
C3343 C3340 1.386 . S
C3344 C3339 1.490 . S
C3344 C3346 1.395 . S
C3344 C3347 1.403 . S
H3345 C3351 0.930 . S
C3346 H3332 0.930 . S
C3346 C3344 1.395 . S
C3346 C3349 1.403 . S
C3347 C3344 1.403 . S
C3347 C3348 1.524 . S
C3347 C3351 1.400 . S
C3348 H3333 0.960 . S
C3348 H3334 0.960 . S
C3348 H3335 0.960 . S
C3348 C3347 1.524 . S
C3349 C3346 1.403 . S
C3349 C3350 1.392 . S
C3349 C3353 1.495 . S
C3350 C3349 1.392 . S
C3350 C3351 1.385 . S
C3350 C3352 1.478 . S
C3351 H3345 0.930 . S
C3351 C3347 1.400 . S
C3351 C3350 1.385 . S
C3352 C3350 1.478 . S
C3352 C3354 1.381 . S
C3352 C3358 1.383 . S
C3353 C3349 1.495 . S
C3353 H3359 0.959 . S
C3353 H3360 0.961 . S
C3353 H3361 0.960 . S
C3354 C3352 1.381 . S
C3354 C3355 1.394 . S
C3354 H3362 0.930 . S
C3355 C3354 1.394 . S
C3355 C3356 1.383 . S
C3355 H3363 0.929 . S
C3356 C3355 1.383 . S
C3356 C3357 1.377 . S
C3357 H3341 0.930 . S
C3357 C3356 1.377 . S
C3357 C3358 1.379 . S
C3358 H3342 0.931 . S
C3358 C3352 1.383 . S
C3358 C3357 1.379 . S
H3359 C3353 0.959 . S
H3360 C3353 0.961 . S
H3361 C3353 0.960 . S
H3362 C3354 0.930 . S
H3363 C3355 0.929 . S
H3364 C3372 0.940 . S
H3365 C3374 0.921 1_556 S
H3366 C3376 0.930 . S
H3367 C3379 0.929 . S
H3368 C3382 0.930 . S
H3369 C3384 0.960 . S
H3370 C3384 0.960 . S
H3371 C3384 0.960 . S
C3372 H3364 0.940 . S
C3372 C3373 1.362 1_556 S
C3372 C3374 1.394 1_556 S
C3373 C3372 1.362 1_554 S
C3373 C3379 1.390 . S
C3374 H3365 0.921 1_554 S
C3374 C3372 1.394 1_554 S
C3374 C3375 1.378 . S
C3375 C3374 1.378 . S
C3375 C3376 1.400 . S
C3375 C3380 1.490 . S
C3376 H3366 0.930 . S
C3376 C3375 1.400 . S
C3376 C3379 1.386 . S
H3377 C3393 0.930 . S
H3378 C3394 0.931 . S
C3379 H3367 0.929 . S
C3379 C3373 1.390 . S
C3379 C3376 1.386 . S
C3380 C3375 1.490 . S
C3380 C3382 1.395 1_554 S
C3380 C3383 1.403 . S
H3381 C3387 0.930 . S
C3382 H3368 0.930 . S
C3382 C3380 1.395 1_556 S
C3382 C3385 1.403 . S
C3383 C3380 1.403 . S
C3383 C3384 1.524 . S
C3383 C3387 1.400 . S
C3384 H3369 0.960 . S
C3384 H3370 0.960 . S
C3384 H3371 0.960 . S
C3384 C3383 1.524 . S
C3385 C3382 1.403 . S
C3385 C3386 1.392 1_556 S
C3385 C3389 1.495 . S
C3386 C3385 1.392 1_554 S
C3386 C3387 1.385 . S
C3386 C3388 1.478 . S
C3387 H3381 0.930 . S
C3387 C3383 1.400 . S
C3387 C3386 1.385 . S
C3388 C3386 1.478 . S
C3388 C3390 1.381 . S
C3388 C3394 1.383 . S
C3389 C3385 1.495 . S
C3389 H3395 0.959 . S
C3389 H3396 0.961 . S
C3389 H3397 0.960 . S
C3390 C3388 1.381 . S
C3390 C3391 1.394 . S
C3390 H3398 0.934 . S
C3391 C3390 1.394 . S
C3391 C3392 1.383 . S
C3391 H3399 0.929 . S
C3392 C3391 1.383 . S
C3392 C3393 1.377 . S
C3393 H3377 0.930 . S
C3393 C3392 1.377 . S
C3393 C3394 1.379 . S
C3394 H3378 0.931 . S
C3394 C3388 1.383 . S
C3394 C3393 1.379 . S
H3395 C3389 0.959 . S
H3396 C3389 0.961 . S
H3397 C3389 0.960 . S
H3398 C3390 0.934 . S
H3399 C3391 0.929 . S
H3400 C3408 0.929 . S
H3401 C3410 0.930 . S
H3402 C3412 0.930 . S
H3403 C3415 0.929 . S
H3404 C3418 0.930 . S
H3405 C3420 0.960 . S
H3406 C3420 0.960 . S
H3407 C3420 0.960 . S
C3408 H3400 0.929 . S
C3408 C3409 1.377 . S
C3408 C3410 1.384 . S
C3409 C3408 1.377 . S
C3409 C3415 1.390 . S
C3410 H3401 0.930 . S
C3410 C3408 1.384 . S
C3410 C3411 1.372 . S
C3411 C3410 1.372 . S
C3411 C3412 1.400 . S
C3411 C3416 1.490 . S
C3412 H3402 0.930 . S
C3412 C3411 1.400 . S
C3412 C3415 1.386 . S
H3413 C3429 0.930 . S
H3414 C3430 0.931 . S
C3415 H3403 0.929 . S
C3415 C3409 1.390 . S
C3415 C3412 1.386 . S
C3416 C3411 1.490 . S
C3416 C3418 1.395 . S
C3416 C3419 1.403 . S
H3417 C3423 0.930 . S
C3418 H3404 0.930 . S
C3418 C3416 1.395 . S
C3418 C3421 1.403 . S
C3419 C3416 1.403 . S
C3419 C3420 1.524 . S
C3419 C3423 1.400 . S
C3420 H3405 0.960 . S
C3420 H3406 0.960 . S
C3420 H3407 0.960 . S
C3420 C3419 1.524 . S
C3421 C3418 1.403 . S
C3421 C3422 1.392 . S
C3421 C3425 1.495 . S
C3422 C3421 1.392 . S
C3422 C3423 1.385 . S
C3422 C3424 1.478 . S
C3423 H3417 0.930 . S
C3423 C3419 1.400 . S
C3423 C3422 1.385 . S
C3424 C3422 1.478 . S
C3424 C3426 1.381 . S
C3424 C3430 1.383 . S
C3425 C3421 1.495 . S
C3425 H3431 0.959 . S
C3425 H3432 0.961 . S
C3425 H3433 0.960 . S
C3426 C3424 1.381 . S
C3426 C3427 1.394 . S
C3426 H3434 0.930 . S
C3427 C3426 1.394 . S
C3427 C3428 1.383 . S
C3427 H3435 0.929 . S
C3428 C3427 1.383 . S
C3428 C3429 1.377 . S
C3429 H3413 0.930 . S
C3429 C3428 1.377 . S
C3429 C3430 1.379 . S
C3430 H3414 0.931 . S
C3430 C3424 1.383 . S
C3430 C3429 1.379 . S
H3431 C3425 0.959 . S
H3432 C3425 0.961 . S
H3433 C3425 0.960 . S
H3434 C3426 0.930 . S
H3435 C3427 0.929 . S
H3436 C3444 0.916 1_556 S
H3437 C3446 0.930 . S
H3438 C3448 0.930 . S
H3439 C3451 0.929 . S
H3440 C3454 0.930 . S
H3441 C3456 0.960 . S
H3442 C3456 0.960 . S
H3443 C3456 0.960 . S
C3444 H3436 0.916 1_554 S
C3444 C3445 1.377 . S
C3444 C3446 1.384 . S
C3445 C3444 1.377 . S
C3445 C3451 1.390 . S
C3446 H3437 0.930 . S
C3446 C3444 1.384 . S
C3446 C3447 1.372 . S
C3447 C3446 1.372 . S
C3447 C3448 1.400 . S
C3447 C3452 1.490 . S
C3448 H3438 0.930 . S
C3448 C3447 1.400 . S
C3448 C3451 1.386 . S
H3449 C3465 0.930 . S
H3450 C3466 0.931 . S
C3451 H3439 0.929 . S
C3451 C3445 1.390 . S
C3451 C3448 1.386 . S
C3452 C3447 1.490 . S
C3452 C3454 1.395 . S
C3452 C3455 1.403 . S
H3453 C3459 0.930 . S
C3454 H3440 0.930 . S
C3454 C3452 1.395 . S
C3454 C3457 1.403 . S
C3455 C3452 1.403 . S
C3455 C3456 1.524 . S
C3455 C3459 1.400 . S
C3456 H3441 0.960 . S
C3456 H3442 0.960 . S
C3456 H3443 0.960 . S
C3456 C3455 1.524 . S
C3457 C3454 1.403 . S
C3457 C3458 1.392 . S
C3457 C3461 1.495 . S
C3458 C3457 1.392 . S
C3458 C3459 1.385 . S
C3458 C3460 1.478 . S
C3459 H3453 0.930 . S
C3459 C3455 1.400 . S
C3459 C3458 1.385 . S
C3460 C3458 1.478 . S
C3460 C3462 1.381 . S
C3460 C3466 1.383 . S
C3461 C3457 1.495 . S
C3461 H3467 0.959 . S
C3461 H3468 0.961 . S
C3461 H3469 0.960 . S
C3462 C3460 1.381 . S
C3462 C3463 1.394 . S
C3462 H3470 0.930 . S
C3463 C3462 1.394 . S
C3463 C3464 1.383 . S
C3463 H3471 0.929 . S
C3464 C3463 1.383 . S
C3464 C3465 1.377 . S
C3465 H3449 0.930 . S
C3465 C3464 1.377 . S
C3465 C3466 1.379 . S
C3466 H3450 0.931 . S
C3466 C3460 1.383 . S
C3466 C3465 1.379 . S
H3467 C3461 0.959 . S
H3468 C3461 0.961 . S
H3469 C3461 0.960 . S
H3470 C3462 0.930 . S
H3471 C3463 0.929 . S
H3472 C3480 0.929 . S
H3473 C3482 0.930 . S
H3474 C3484 0.930 . S
H3475 C3487 0.929 . S
H3476 C3490 0.930 . S
H3477 C3492 0.960 . S
H3478 C3492 0.960 . S
H3479 C3492 0.960 . S
C3480 H3472 0.929 . S
C3480 C3481 1.377 . S
C3480 C3482 1.384 . S
C3481 C3480 1.377 . S
C3481 C3487 1.390 . S
C3482 H3473 0.930 . S
C3482 C3480 1.384 . S
C3482 C3483 1.372 . S
C3483 C3482 1.372 . S
C3483 C3484 1.400 . S
C3483 C3488 1.490 . S
C3484 H3474 0.930 . S
C3484 C3483 1.400 . S
C3484 C3487 1.386 . S
H3485 C3501 0.930 . S
H3486 C3502 0.931 . S
C3487 H3475 0.929 . S
C3487 C3481 1.390 . S
C3487 C3484 1.386 . S
C3488 C3483 1.490 . S
C3488 C3490 1.395 . S
C3488 C3491 1.403 . S
H3489 C3495 0.930 . S
C3490 H3476 0.930 . S
C3490 C3488 1.395 . S
C3490 C3493 1.403 . S
C3491 C3488 1.403 . S
C3491 C3492 1.524 . S
C3491 C3495 1.400 . S
C3492 H3477 0.960 . S
C3492 H3478 0.960 . S
C3492 H3479 0.960 . S
C3492 C3491 1.524 . S
C3493 C3490 1.403 . S
C3493 C3494 1.392 . S
C3493 C3497 1.495 . S
C3494 C3493 1.392 . S
C3494 C3495 1.385 . S
C3494 C3496 1.478 . S
C3495 H3489 0.930 . S
C3495 C3491 1.400 . S
C3495 C3494 1.385 . S
C3496 C3494 1.478 . S
C3496 C3498 1.381 . S
C3496 C3502 1.383 . S
C3497 C3493 1.495 . S
C3497 H3503 0.959 . S
C3497 H3504 0.961 . S
C3497 H3505 0.960 . S
C3498 C3496 1.381 . S
C3498 C3499 1.394 . S
C3498 H3506 0.930 . S
C3499 C3498 1.394 . S
C3499 C3500 1.383 . S
C3499 H3507 0.929 . S
C3500 C3499 1.383 . S
C3500 C3501 1.377 . S
C3501 H3485 0.930 . S
C3501 C3500 1.377 . S
C3501 C3502 1.379 . S
C3502 H3486 0.931 . S
C3502 C3496 1.383 . S
C3502 C3501 1.379 . S
H3503 C3497 0.959 . S
H3504 C3497 0.961 . S
H3505 C3497 0.960 . S
H3506 C3498 0.930 . S
H3507 C3499 0.929 . S
H3508 C3516 0.929 . S
H3509 C3518 0.930 . S
H3510 C3520 0.930 . S
H3511 C3523 0.929 . S
H3512 C3526 0.930 . S
H3513 C3528 0.960 . S
H3514 C3528 0.960 . S
H3515 C3528 0.960 . S
C3516 H3508 0.929 . S
C3516 C3517 1.377 . S
C3516 C3518 1.384 . S
C3517 C3516 1.377 . S
C3517 C3523 1.390 . S
C3518 H3509 0.930 . S
C3518 C3516 1.384 . S
C3518 C3519 1.372 . S
C3519 C3518 1.372 . S
C3519 C3520 1.400 . S
C3519 C3524 1.490 . S
C3520 H3510 0.930 . S
C3520 C3519 1.400 . S
C3520 C3523 1.386 . S
H3521 C3537 0.930 . S
H3522 C3538 0.931 . S
C3523 H3511 0.929 . S
C3523 C3517 1.390 . S
C3523 C3520 1.386 . S
C3524 C3519 1.490 . S
C3524 C3526 1.395 . S
C3524 C3527 1.403 . S
H3525 C3531 0.930 . S
C3526 H3512 0.930 . S
C3526 C3524 1.395 . S
C3526 C3529 1.403 . S
C3527 C3524 1.403 . S
C3527 C3528 1.524 . S
C3527 C3531 1.400 . S
C3528 H3513 0.960 . S
C3528 H3514 0.960 . S
C3528 H3515 0.960 . S
C3528 C3527 1.524 . S
C3529 C3526 1.403 . S
C3529 C3530 1.392 . S
C3529 C3533 1.495 . S
C3530 C3529 1.392 . S
C3530 C3531 1.385 . S
C3530 C3532 1.478 . S
C3531 H3525 0.930 . S
C3531 C3527 1.400 . S
C3531 C3530 1.385 . S
C3532 C3530 1.478 . S
C3532 C3534 1.381 . S
C3532 C3538 1.383 . S
C3533 C3529 1.495 . S
C3533 H3539 0.959 . S
C3533 H3540 0.961 . S
C3533 H3541 0.960 . S
C3534 C3532 1.381 . S
C3534 C3535 1.394 . S
C3534 H3542 0.930 . S
C3535 C3534 1.394 . S
C3535 C3536 1.383 . S
C3535 H3543 0.929 . S
C3536 C3535 1.383 . S
C3536 C3537 1.377 . S
C3537 H3521 0.930 . S
C3537 C3536 1.377 . S
C3537 C3538 1.379 . S
C3538 H3522 0.931 . S
C3538 C3532 1.383 . S
C3538 C3537 1.379 . S
H3539 C3533 0.959 . S
H3540 C3533 0.961 . S
H3541 C3533 0.960 . S
H3542 C3534 0.930 . S
H3543 C3535 0.929 . S
H3544 C3552 0.929 . S
H3545 C3554 0.930 . S
H3546 C3556 0.930 . S
H3547 C3559 0.929 . S
H3548 C3562 0.930 . S
H3549 C3564 0.960 . S
H3550 C3564 0.960 . S
H3551 C3564 0.960 . S
C3552 H3544 0.929 . S
C3552 C3553 1.377 . S
C3552 C3554 1.384 . S
C3553 C3552 1.377 . S
C3553 C3559 1.390 . S
C3554 H3545 0.930 . S
C3554 C3552 1.384 . S
C3554 C3555 1.372 . S
C3555 C3554 1.372 . S
C3555 C3556 1.400 . S
C3555 C3560 1.490 . S
C3556 H3546 0.930 . S
C3556 C3555 1.400 . S
C3556 C3559 1.386 . S
H3557 C3573 0.930 . S
H3558 C3574 0.931 . S
C3559 H3547 0.929 . S
C3559 C3553 1.390 . S
C3559 C3556 1.386 . S
C3560 C3555 1.490 . S
C3560 C3562 1.395 . S
C3560 C3563 1.403 . S
H3561 C3567 0.930 . S
C3562 H3548 0.930 . S
C3562 C3560 1.395 . S
C3562 C3565 1.403 . S
C3563 C3560 1.403 . S
C3563 C3564 1.524 . S
C3563 C3567 1.400 . S
C3564 H3549 0.960 . S
C3564 H3550 0.960 . S
C3564 H3551 0.960 . S
C3564 C3563 1.524 . S
C3565 C3562 1.403 . S
C3565 C3566 1.392 . S
C3565 C3569 1.495 . S
C3566 C3565 1.392 . S
C3566 C3567 1.385 . S
C3566 C3568 1.478 . S
C3567 H3561 0.930 . S
C3567 C3563 1.400 . S
C3567 C3566 1.385 . S
C3568 C3566 1.478 . S
C3568 C3570 1.381 . S
C3568 C3574 1.383 . S
C3569 C3565 1.495 . S
C3569 H3575 0.959 . S
C3569 H3576 0.961 . S
C3569 H3577 0.960 . S
C3570 C3568 1.381 . S
C3570 C3571 1.394 . S
C3570 H3578 0.930 . S
C3571 C3570 1.394 . S
C3571 C3572 1.383 . S
C3571 H3579 0.929 . S
C3572 C3571 1.383 . S
C3572 C3573 1.377 . S
C3573 H3557 0.930 . S
C3573 C3572 1.377 . S
C3573 C3574 1.379 . S
C3574 H3558 0.931 . S
C3574 C3568 1.383 . S
C3574 C3573 1.379 . S
H3575 C3569 0.959 . S
H3576 C3569 0.961 . S
H3577 C3569 0.960 . S
H3578 C3570 0.930 . S
H3579 C3571 0.929 . S
H3580 C3588 0.929 . S
H3581 C3590 0.930 . S
H3582 C3592 0.930 . S
H3583 C3595 0.929 . S
H3584 C3598 0.930 . S
H3585 C3600 0.960 . S
H3586 C3600 0.960 . S
H3587 C3600 0.960 . S
C3588 H3580 0.929 . S
C3588 C3589 1.377 . S
C3588 C3590 1.384 . S
C3589 C3588 1.377 . S
C3589 C3595 1.390 . S
C3590 H3581 0.930 . S
C3590 C3588 1.384 . S
C3590 C3591 1.372 . S
C3591 C3590 1.372 . S
C3591 C3592 1.400 . S
C3591 C3596 1.490 . S
C3592 H3582 0.930 . S
C3592 C3591 1.400 . S
C3592 C3595 1.386 . S
H3593 C3609 0.930 . S
H3594 C3610 0.931 . S
C3595 H3583 0.929 . S
C3595 C3589 1.390 . S
C3595 C3592 1.386 . S
C3596 C3591 1.490 . S
C3596 C3598 1.395 . S
C3596 C3599 1.403 . S
H3597 C3603 0.930 . S
C3598 H3584 0.930 . S
C3598 C3596 1.395 . S
C3598 C3601 1.403 . S
C3599 C3596 1.403 . S
C3599 C3600 1.524 . S
C3599 C3603 1.400 . S
C3600 H3585 0.960 . S
C3600 H3586 0.960 . S
C3600 H3587 0.960 . S
C3600 C3599 1.524 . S
C3601 C3598 1.403 . S
C3601 C3602 1.392 . S
C3601 C3605 1.495 . S
C3602 C3601 1.392 . S
C3602 C3603 1.385 . S
C3602 C3604 1.478 . S
C3603 H3597 0.930 . S
C3603 C3599 1.400 . S
C3603 C3602 1.385 . S
C3604 C3602 1.478 . S
C3604 C3606 1.381 . S
C3604 C3610 1.383 . S
C3605 C3601 1.495 . S
C3605 H3611 0.959 . S
C3605 H3612 0.961 . S
C3605 H3613 0.960 . S
C3606 C3604 1.381 . S
C3606 C3607 1.394 . S
C3606 H3614 0.930 . S
C3607 C3606 1.394 . S
C3607 C3608 1.383 . S
C3607 H3615 0.929 . S
C3608 C3607 1.383 . S
C3608 C3609 1.377 . S
C3609 H3593 0.930 . S
C3609 C3608 1.377 . S
C3609 C3610 1.379 . S
C3610 H3594 0.931 . S
C3610 C3604 1.383 . S
C3610 C3609 1.379 . S
H3611 C3605 0.959 . S
H3612 C3605 0.961 . S
H3613 C3605 0.960 . S
H3614 C3606 0.930 . S
H3615 C3607 0.929 . S
H3616 C3624 0.929 . S
H3617 C3626 0.930 . S
H3618 C3628 0.930 . S
H3619 C3631 0.929 . S
H3620 C3634 0.930 . S
H3621 C3636 0.960 1_655 S
H3622 C3636 0.960 . S
H3623 C3636 0.960 . S
C3624 H3616 0.929 . S
C3624 C3625 1.377 . S
C3624 C3626 1.384 . S
C3625 C3624 1.377 . S
C3625 C3631 1.390 . S
C3626 H3617 0.930 . S
C3626 C3624 1.384 . S
C3626 C3627 1.372 . S
C3627 C3626 1.372 . S
C3627 C3628 1.400 . S
C3627 C3632 1.490 . S
C3628 H3618 0.930 . S
C3628 C3627 1.400 . S
C3628 C3631 1.386 . S
H3629 C3645 0.930 . S
H3630 C3646 0.931 . S
C3631 H3619 0.929 . S
C3631 C3625 1.390 . S
C3631 C3628 1.386 . S
C3632 C3627 1.490 . S
C3632 C3634 1.395 . S
C3632 C3635 1.403 . S
H3633 C3639 0.930 . S
C3634 H3620 0.930 . S
C3634 C3632 1.395 . S
C3634 C3637 1.403 . S
C3635 C3632 1.403 . S
C3635 C3636 1.524 . S
C3635 C3639 1.400 . S
C3636 H3621 0.960 1_455 S
C3636 H3622 0.960 . S
C3636 H3623 0.960 . S
C3636 C3635 1.524 . S
C3637 C3634 1.403 . S
C3637 C3638 1.392 . S
C3637 C3641 1.495 . S
C3638 C3637 1.392 . S
C3638 C3639 1.385 . S
C3638 C3640 1.478 . S
C3639 H3633 0.930 . S
C3639 C3635 1.400 . S
C3639 C3638 1.385 . S
C3640 C3638 1.478 . S
C3640 C3642 1.381 . S
C3640 C3646 1.383 . S
C3641 C3637 1.495 . S
C3641 H3647 0.959 . S
C3641 H3648 0.961 . S
C3641 H3649 0.960 . S
C3642 C3640 1.381 . S
C3642 C3643 1.394 . S
C3642 H3650 0.930 . S
C3643 C3642 1.394 . S
C3643 C3644 1.383 . S
C3643 H3651 0.929 . S
C3644 C3643 1.383 . S
C3644 C3645 1.377 . S
C3645 H3629 0.930 . S
C3645 C3644 1.377 . S
C3645 C3646 1.379 . S
C3646 H3630 0.931 . S
C3646 C3640 1.383 . S
C3646 C3645 1.379 . S
H3647 C3641 0.959 . S
H3648 C3641 0.961 . S
H3649 C3641 0.960 . S
H3650 C3642 0.930 . S
H3651 C3643 0.929 . S
H3652 C3660 0.929 . S
H3653 C3662 0.930 . S
H3654 C3664 0.930 . S
H3655 C3667 0.929 . S
H3656 C3670 0.930 . S
H3657 C3672 0.960 . S
H3658 C3672 0.960 . S
H3659 C3672 0.960 . S
C3660 H3652 0.929 . S
C3660 C3661 1.377 . S
C3660 C3662 1.384 . S
C3661 C3660 1.377 . S
C3661 C3667 1.390 . S
C3662 H3653 0.930 . S
C3662 C3660 1.384 . S
C3662 C3663 1.372 . S
C3663 C3662 1.372 . S
C3663 C3664 1.400 . S
C3663 C3668 1.490 . S
C3664 H3654 0.930 . S
C3664 C3663 1.400 . S
C3664 C3667 1.386 . S
H3665 C3681 0.930 . S
H3666 C3682 0.931 . S
C3667 H3655 0.929 . S
C3667 C3661 1.390 . S
C3667 C3664 1.386 . S
C3668 C3663 1.490 . S
C3668 C3670 1.395 . S
C3668 C3671 1.403 . S
H3669 C3675 0.930 . S
C3670 H3656 0.930 . S
C3670 C3668 1.395 . S
C3670 C3673 1.403 . S
C3671 C3668 1.403 . S
C3671 C3672 1.524 . S
C3671 C3675 1.400 . S
C3672 H3657 0.960 . S
C3672 H3658 0.960 . S
C3672 H3659 0.960 . S
C3672 C3671 1.524 . S
C3673 C3670 1.403 . S
C3673 C3674 1.392 . S
C3673 C3677 1.495 . S
C3674 C3673 1.392 . S
C3674 C3675 1.385 . S
C3674 C3676 1.478 . S
C3675 H3669 0.930 . S
C3675 C3671 1.400 . S
C3675 C3674 1.385 . S
C3676 C3674 1.478 . S
C3676 C3678 1.381 . S
C3676 C3682 1.383 . S
C3677 C3673 1.495 . S
C3677 H3683 0.959 . S
C3677 H3684 0.961 . S
C3677 H3685 0.960 . S
C3678 C3676 1.381 . S
C3678 C3679 1.394 . S
C3678 H3686 0.930 . S
C3679 C3678 1.394 . S
C3679 C3680 1.383 . S
C3679 H3687 0.929 . S
C3680 C3679 1.383 . S
C3680 C3681 1.377 . S
C3681 H3665 0.930 . S
C3681 C3680 1.377 . S
C3681 C3682 1.379 . S
C3682 H3666 0.931 . S
C3682 C3676 1.383 . S
C3682 C3681 1.379 . S
H3683 C3677 0.959 . S
H3684 C3677 0.961 . S
H3685 C3677 0.960 . S
H3686 C3678 0.930 . S
H3687 C3679 0.929 . S
H3688 C3696 0.929 . S
H3689 C3698 0.930 . S
H3690 C3700 0.930 . S
H3691 C3703 0.929 . S
H3692 C3706 0.930 . S
H3693 C3708 0.960 . S
H3694 C3708 0.960 . S
H3695 C3708 0.960 . S
C3696 H3688 0.929 . S
C3696 C3697 1.377 . S
C3696 C3698 1.384 . S
C3697 C3696 1.377 . S
C3697 C3703 1.390 . S
C3698 H3689 0.930 . S
C3698 C3696 1.384 . S
C3698 C3699 1.372 . S
C3699 C3698 1.372 . S
C3699 C3700 1.400 . S
C3699 C3704 1.490 . S
C3700 H3690 0.930 . S
C3700 C3699 1.400 . S
C3700 C3703 1.386 . S
H3701 C3717 0.930 . S
H3702 C3718 0.931 . S
C3703 H3691 0.929 . S
C3703 C3697 1.390 . S
C3703 C3700 1.386 . S
C3704 C3699 1.490 . S
C3704 C3706 1.395 . S
C3704 C3707 1.403 . S
H3705 C3711 0.930 . S
C3706 H3692 0.930 . S
C3706 C3704 1.395 . S
C3706 C3709 1.403 . S
C3707 C3704 1.403 . S
C3707 C3708 1.524 . S
C3707 C3711 1.400 . S
C3708 H3693 0.960 . S
C3708 H3694 0.960 . S
C3708 H3695 0.960 . S
C3708 C3707 1.524 . S
C3709 C3706 1.403 . S
C3709 C3710 1.392 . S
C3709 C3713 1.495 . S
C3710 C3709 1.392 . S
C3710 C3711 1.385 . S
C3710 C3712 1.478 . S
C3711 H3705 0.930 . S
C3711 C3707 1.400 . S
C3711 C3710 1.385 . S
C3712 C3710 1.478 . S
C3712 C3714 1.381 . S
C3712 C3718 1.383 . S
C3713 C3709 1.495 . S
C3713 H3719 0.959 . S
C3713 H3720 0.961 . S
C3713 H3721 0.960 . S
C3714 C3712 1.381 . S
C3714 C3715 1.394 . S
C3714 H3722 0.930 . S
C3715 C3714 1.394 . S
C3715 C3716 1.383 . S
C3715 H3723 0.929 . S
C3716 C3715 1.383 . S
C3716 C3717 1.377 . S
C3717 H3701 0.930 . S
C3717 C3716 1.377 . S
C3717 C3718 1.379 . S
C3718 H3702 0.931 . S
C3718 C3712 1.383 . S
C3718 C3717 1.379 . S
H3719 C3713 0.959 . S
H3720 C3713 0.961 . S
H3721 C3713 0.960 . S
H3722 C3714 0.930 . S
H3723 C3715 0.929 . S
H3724 C3732 0.929 . S
H3725 C3734 0.930 . S
H3726 C3736 0.930 . S
H3727 C3739 0.929 . S
H3728 C3742 0.930 . S
H3729 C3744 0.960 . S
H3730 C3744 0.960 . S
H3731 C3744 0.960 . S
C3732 H3724 0.929 . S
C3732 C3733 1.377 . S
C3732 C3734 1.384 . S
C3733 C3732 1.377 . S
C3733 C3739 1.390 . S
C3734 H3725 0.930 . S
C3734 C3732 1.384 . S
C3734 C3735 1.372 . S
C3735 C3734 1.372 . S
C3735 C3736 1.400 . S
C3735 C3740 1.490 . S
C3736 H3726 0.930 . S
C3736 C3735 1.400 . S
C3736 C3739 1.386 . S
H3737 C3753 0.930 . S
H3738 C3754 0.931 . S
C3739 H3727 0.929 . S
C3739 C3733 1.390 . S
C3739 C3736 1.386 . S
C3740 C3735 1.490 . S
C3740 C3742 1.395 . S
C3740 C3743 1.403 . S
H3741 C3747 0.930 . S
C3742 H3728 0.930 . S
C3742 C3740 1.395 . S
C3742 C3745 1.403 . S
C3743 C3740 1.403 . S
C3743 C3744 1.524 . S
C3743 C3747 1.400 . S
C3744 H3729 0.960 . S
C3744 H3730 0.960 . S
C3744 H3731 0.960 . S
C3744 C3743 1.524 . S
C3745 C3742 1.403 . S
C3745 C3746 1.392 . S
C3745 C3749 1.495 . S
C3746 C3745 1.392 . S
C3746 C3747 1.385 . S
C3746 C3748 1.478 . S
C3747 H3741 0.930 . S
C3747 C3743 1.400 . S
C3747 C3746 1.385 . S
C3748 C3746 1.478 . S
C3748 C3750 1.381 . S
C3748 C3754 1.383 . S
C3749 C3745 1.495 . S
C3749 H3755 0.959 . S
C3749 H3756 0.961 . S
C3749 H3757 0.960 . S
C3750 C3748 1.381 . S
C3750 C3751 1.394 . S
C3750 H3758 0.930 . S
C3751 C3750 1.394 . S
C3751 C3752 1.383 . S
C3751 H3759 0.929 . S
C3752 C3751 1.383 . S
C3752 C3753 1.377 . S
C3753 H3737 0.930 . S
C3753 C3752 1.377 . S
C3753 C3754 1.379 . S
C3754 H3738 0.931 . S
C3754 C3748 1.383 . S
C3754 C3753 1.379 . S
H3755 C3749 0.959 . S
H3756 C3749 0.961 . S
H3757 C3749 0.960 . S
H3758 C3750 0.930 . S
H3759 C3751 0.929 . S
H3760 C3768 0.929 . S
H3761 C3770 0.930 . S
H3762 C3772 0.930 . S
H3763 C3775 0.929 . S
H3764 C3778 0.898 1_655 S
H3765 C3780 0.960 . S
H3766 C3780 0.960 . S
H3767 C3780 0.960 . S
C3768 H3760 0.929 . S
C3768 C3769 1.377 . S
C3768 C3770 1.384 . S
C3769 C3768 1.377 . S
C3769 C3775 1.390 . S
C3770 H3761 0.930 . S
C3770 C3768 1.384 . S
C3770 C3771 1.372 . S
C3771 C3770 1.372 . S
C3771 C3772 1.400 . S
C3771 C3776 1.490 . S
C3772 H3762 0.930 . S
C3772 C3771 1.400 . S
C3772 C3775 1.386 . S
H3773 C3789 0.930 . S
H3774 C3790 0.931 . S
C3775 H3763 0.929 . S
C3775 C3769 1.390 . S
C3775 C3772 1.386 . S
C3776 C3771 1.490 . S
C3776 C3778 1.395 . S
C3776 C3779 1.403 . S
H3777 C3783 0.930 . S
C3778 H3764 0.898 1_455 S
C3778 C3776 1.395 . S
C3778 C3781 1.403 . S
C3779 C3776 1.403 . S
C3779 C3780 1.524 . S
C3779 C3783 1.400 . S
C3780 H3765 0.960 . S
C3780 H3766 0.960 . S
C3780 H3767 0.960 . S
C3780 C3779 1.524 . S
C3781 C3778 1.403 . S
C3781 C3782 1.392 . S
C3781 C3785 1.495 1_455 S
C3782 C3781 1.392 . S
C3782 C3783 1.385 . S
C3782 C3784 1.478 . S
C3783 H3777 0.930 . S
C3783 C3779 1.400 . S
C3783 C3782 1.385 . S
C3784 C3782 1.478 . S
C3784 C3786 1.381 . S
C3784 C3790 1.383 . S
C3785 C3781 1.495 1_655 S
C3785 H3791 0.959 . S
C3785 H3792 0.961 . S
C3785 H3793 0.960 1_655 S
C3786 C3784 1.381 . S
C3786 C3787 1.394 . S
C3786 H3794 0.930 . S
C3787 C3786 1.394 . S
C3787 C3788 1.383 . S
C3787 H3795 0.929 . S
C3788 C3787 1.383 . S
C3788 C3789 1.377 . S
C3789 H3773 0.930 . S
C3789 C3788 1.377 . S
C3789 C3790 1.379 . S
C3790 H3774 0.931 . S
C3790 C3784 1.383 . S
C3790 C3789 1.379 . S
H3791 C3785 0.959 . S
H3792 C3785 0.961 . S
H3793 C3785 0.960 1_455 S
H3794 C3786 0.930 . S
H3795 C3787 0.929 . S
H3796 C3804 0.929 . S
H3797 C3806 0.930 . S
H3798 C3808 0.930 . S
H3799 C3811 0.929 . S
H3800 C3814 0.930 . S
H3801 C3816 0.960 . S
H3802 C3816 0.960 . S
H3803 C3816 0.960 . S
C3804 H3796 0.929 . S
C3804 C3805 1.377 . S
C3804 C3806 1.384 . S
C3805 C3804 1.377 . S
C3805 C3811 1.390 . S
C3806 H3797 0.930 . S
C3806 C3804 1.384 . S
C3806 C3807 1.372 . S
C3807 C3806 1.372 . S
C3807 C3808 1.400 . S
C3807 C3812 1.490 . S
C3808 H3798 0.930 . S
C3808 C3807 1.400 . S
C3808 C3811 1.386 . S
H3809 C3825 0.930 . S
H3810 C3826 0.931 . S
C3811 H3799 0.929 . S
C3811 C3805 1.390 . S
C3811 C3808 1.386 . S
C3812 C3807 1.490 . S
C3812 C3814 1.395 . S
C3812 C3815 1.403 . S
H3813 C3819 0.930 . S
C3814 H3800 0.930 . S
C3814 C3812 1.395 . S
C3814 C3817 1.403 . S
C3815 C3812 1.403 . S
C3815 C3816 1.524 . S
C3815 C3819 1.400 . S
C3816 H3801 0.960 . S
C3816 H3802 0.960 . S
C3816 H3803 0.960 . S
C3816 C3815 1.524 . S
C3817 C3814 1.403 . S
C3817 C3818 1.392 . S
C3817 C3821 1.495 . S
C3818 C3817 1.392 . S
C3818 C3819 1.385 . S
C3818 C3820 1.478 . S
C3819 H3813 0.930 . S
C3819 C3815 1.400 . S
C3819 C3818 1.385 . S
C3820 C3818 1.478 . S
C3820 C3822 1.381 . S
C3820 C3826 1.383 . S
C3821 C3817 1.495 . S
C3821 H3827 0.959 . S
C3821 H3828 0.961 . S
C3821 H3829 0.960 . S
C3822 C3820 1.381 . S
C3822 C3823 1.394 . S
C3822 H3830 0.930 . S
C3823 C3822 1.394 . S
C3823 C3824 1.383 . S
C3823 H3831 0.929 . S
C3824 C3823 1.383 . S
C3824 C3825 1.377 . S
C3825 H3809 0.930 . S
C3825 C3824 1.377 . S
C3825 C3826 1.379 . S
C3826 H3810 0.931 . S
C3826 C3820 1.383 . S
C3826 C3825 1.379 . S
H3827 C3821 0.959 . S
H3828 C3821 0.961 . S
H3829 C3821 0.960 . S
H3830 C3822 0.930 . S
H3831 C3823 0.929 . S
H3832 C3840 0.929 . S
H3833 C3842 0.930 . S
H3834 C3844 0.930 . S
H3835 C3847 0.929 . S
H3836 C3850 0.930 . S
H3837 C3852 0.960 . S
H3838 C3852 0.960 . S
H3839 C3852 0.960 . S
C3840 H3832 0.929 . S
C3840 C3841 1.377 . S
C3840 C3842 1.384 . S
C3841 C3840 1.377 . S
C3841 C3847 1.390 . S
C3842 H3833 0.930 . S
C3842 C3840 1.384 . S
C3842 C3843 1.372 . S
C3843 C3842 1.372 . S
C3843 C3844 1.400 . S
C3843 C3848 1.490 . S
C3844 H3834 0.930 . S
C3844 C3843 1.400 . S
C3844 C3847 1.386 . S
H3845 C3861 0.930 . S
H3846 C3862 0.931 . S
C3847 H3835 0.929 . S
C3847 C3841 1.390 . S
C3847 C3844 1.386 . S
C3848 C3843 1.490 . S
C3848 C3850 1.395 . S
C3848 C3851 1.403 . S
H3849 C3855 0.930 . S
C3850 H3836 0.930 . S
C3850 C3848 1.395 . S
C3850 C3853 1.403 . S
C3851 C3848 1.403 . S
C3851 C3852 1.524 . S
C3851 C3855 1.400 . S
C3852 H3837 0.960 . S
C3852 H3838 0.960 . S
C3852 H3839 0.960 . S
C3852 C3851 1.524 . S
C3853 C3850 1.403 . S
C3853 C3854 1.392 . S
C3853 C3857 1.495 . S
C3854 C3853 1.392 . S
C3854 C3855 1.385 . S
C3854 C3856 1.478 . S
C3855 H3849 0.930 . S
C3855 C3851 1.400 . S
C3855 C3854 1.385 . S
C3856 C3854 1.478 . S
C3856 C3858 1.381 . S
C3856 C3862 1.383 . S
C3857 C3853 1.495 . S
C3857 H3863 0.959 . S
C3857 H3864 0.961 . S
C3857 H3865 0.960 . S
C3858 C3856 1.381 . S
C3858 C3859 1.394 . S
C3858 H3866 0.930 . S
C3859 C3858 1.394 . S
C3859 C3860 1.383 . S
C3859 H3867 0.929 . S
C3860 C3859 1.383 . S
C3860 C3861 1.377 . S
C3861 H3845 0.930 . S
C3861 C3860 1.377 . S
C3861 C3862 1.379 . S
C3862 H3846 0.931 . S
C3862 C3856 1.383 . S
C3862 C3861 1.379 . S
H3863 C3857 0.959 . S
H3864 C3857 0.961 . S
H3865 C3857 0.960 . S
H3866 C3858 0.930 . S
H3867 C3859 0.929 . S
H3868 C3876 0.929 . S
H3869 C3878 0.930 . S
H3870 C3880 0.930 . S
H3871 C3883 0.929 . S
H3872 C3886 0.930 . S
H3873 C3888 0.960 . S
H3874 C3888 0.960 . S
H3875 C3888 0.960 . S
C3876 H3868 0.929 . S
C3876 C3877 1.377 . S
C3876 C3878 1.384 . S
C3877 C3876 1.377 . S
C3877 C3883 1.390 . S
C3878 H3869 0.930 . S
C3878 C3876 1.384 . S
C3878 C3879 1.372 . S
C3879 C3878 1.372 . S
C3879 C3880 1.400 . S
C3879 C3884 1.490 . S
C3880 H3870 0.930 . S
C3880 C3879 1.400 . S
C3880 C3883 1.386 . S
H3881 C3897 0.930 . S
H3882 C3898 0.931 . S
C3883 H3871 0.929 . S
C3883 C3877 1.390 . S
C3883 C3880 1.386 . S
C3884 C3879 1.490 . S
C3884 C3886 1.395 . S
C3884 C3887 1.403 . S
H3885 C3891 0.930 . S
C3886 H3872 0.930 . S
C3886 C3884 1.395 . S
C3886 C3889 1.403 . S
C3887 C3884 1.403 . S
C3887 C3888 1.524 . S
C3887 C3891 1.400 . S
C3888 H3873 0.960 . S
C3888 H3874 0.960 . S
C3888 H3875 0.960 . S
C3888 C3887 1.524 . S
C3889 C3886 1.403 . S
C3889 C3890 1.392 . S
C3889 C3893 1.495 . S
C3890 C3889 1.392 . S
C3890 C3891 1.385 . S
C3890 C3892 1.478 . S
C3891 H3885 0.930 . S
C3891 C3887 1.400 . S
C3891 C3890 1.385 . S
C3892 C3890 1.478 . S
C3892 C3894 1.381 . S
C3892 C3898 1.383 . S
C3893 C3889 1.495 . S
C3893 H3899 0.959 . S
C3893 H3900 0.961 . S
C3893 H3901 0.960 . S
C3894 C3892 1.381 . S
C3894 C3895 1.394 . S
C3894 H3902 0.930 . S
C3895 C3894 1.394 . S
C3895 C3896 1.383 . S
C3895 H3903 0.929 . S
C3896 C3895 1.383 . S
C3896 C3897 1.377 . S
C3897 H3881 0.930 . S
C3897 C3896 1.377 . S
C3897 C3898 1.379 . S
C3898 H3882 0.931 . S
C3898 C3892 1.383 . S
C3898 C3897 1.379 . S
H3899 C3893 0.959 . S
H3900 C3893 0.961 . S
H3901 C3893 0.960 . S
H3902 C3894 0.930 . S
H3903 C3895 0.929 . S
H3904 C3912 0.929 . S
H3905 C3914 0.930 . S
H3906 C3916 0.930 . S
H3907 C3919 0.929 . S
H3908 C3922 0.930 . S
H3909 C3924 0.960 . S
H3910 C3924 0.960 . S
H3911 C3924 0.960 . S
C3912 H3904 0.929 . S
C3912 C3913 1.377 . S
C3912 C3914 1.384 . S
C3913 C3912 1.377 . S
C3913 C3919 1.390 . S
C3914 H3905 0.930 . S
C3914 C3912 1.384 . S
C3914 C3915 1.372 . S
C3915 C3914 1.372 . S
C3915 C3916 1.400 . S
C3915 C3920 1.490 . S
C3916 H3906 0.930 . S
C3916 C3915 1.400 . S
C3916 C3919 1.386 . S
H3917 C3933 0.930 . S
H3918 C3934 0.931 . S
C3919 H3907 0.929 . S
C3919 C3913 1.390 . S
C3919 C3916 1.386 . S
C3920 C3915 1.490 . S
C3920 C3922 1.395 . S
C3920 C3923 1.403 . S
H3921 C3927 0.930 . S
C3922 H3908 0.930 . S
C3922 C3920 1.395 . S
C3922 C3925 1.403 . S
C3923 C3920 1.403 . S
C3923 C3924 1.524 . S
C3923 C3927 1.400 . S
C3924 H3909 0.960 . S
C3924 H3910 0.960 . S
C3924 H3911 0.960 . S
C3924 C3923 1.524 . S
C3925 C3922 1.403 . S
C3925 C3926 1.392 . S
C3925 C3929 1.495 . S
C3926 C3925 1.392 . S
C3926 C3927 1.385 . S
C3926 C3928 1.478 . S
C3927 H3921 0.930 . S
C3927 C3923 1.400 . S
C3927 C3926 1.385 . S
C3928 C3926 1.478 . S
C3928 C3930 1.381 . S
C3928 C3934 1.383 . S
C3929 C3925 1.495 . S
C3929 H3935 0.959 . S
C3929 H3936 0.961 . S
C3929 H3937 0.960 . S
C3930 C3928 1.381 . S
C3930 C3931 1.394 1_655 S
C3930 H3938 0.930 . S
C3931 C3930 1.394 1_455 S
C3931 C3932 1.383 . S
C3931 H3939 0.929 . S
C3932 C3931 1.383 . S
C3932 C3933 1.377 1_455 S
C3933 H3917 0.930 . S
C3933 C3932 1.377 1_655 S
C3933 C3934 1.379 . S
C3934 H3918 0.931 . S
C3934 C3928 1.383 . S
C3934 C3933 1.379 . S
H3935 C3929 0.959 . S
H3936 C3929 0.961 . S
H3937 C3929 0.960 . S
H3938 C3930 0.930 . S
H3939 C3931 0.929 . S
H3940 C3948 0.929 . S
H3941 C3950 0.930 . S
H3942 C3952 0.930 . S
H3943 C3955 0.929 . S
H3944 C3958 0.930 . S
H3945 C3960 0.960 . S
H3946 C3960 0.960 . S
H3947 C3960 0.960 . S
C3948 H3940 0.929 . S
C3948 C3949 1.377 . S
C3948 C3950 1.384 . S
C3949 C3948 1.377 . S
C3949 C3955 1.390 . S
C3950 H3941 0.930 . S
C3950 C3948 1.384 . S
C3950 C3951 1.372 . S
C3951 C3950 1.372 . S
C3951 C3952 1.400 . S
C3951 C3956 1.490 . S
C3952 H3942 0.930 . S
C3952 C3951 1.400 . S
C3952 C3955 1.386 . S
H3953 C3969 0.930 . S
H3954 C3970 0.931 . S
C3955 H3943 0.929 . S
C3955 C3949 1.390 . S
C3955 C3952 1.386 . S
C3956 C3951 1.490 . S
C3956 C3958 1.395 . S
C3956 C3959 1.403 . S
H3957 C3963 0.930 . S
C3958 H3944 0.930 . S
C3958 C3956 1.395 . S
C3958 C3961 1.403 . S
C3959 C3956 1.403 . S
C3959 C3960 1.524 . S
C3959 C3963 1.400 . S
C3960 H3945 0.960 . S
C3960 H3946 0.960 . S
C3960 H3947 0.960 . S
C3960 C3959 1.524 . S
C3961 C3958 1.403 . S
C3961 C3962 1.392 . S
C3961 C3965 1.495 . S
C3962 C3961 1.392 . S
C3962 C3963 1.385 . S
C3962 C3964 1.478 . S
C3963 H3957 0.930 . S
C3963 C3959 1.400 . S
C3963 C3962 1.385 . S
C3964 C3962 1.478 . S
C3964 C3966 1.381 . S
C3964 C3970 1.383 . S
C3965 C3961 1.495 . S
C3965 H3971 0.959 . S
C3965 H3972 0.961 . S
C3965 H3973 0.960 . S
C3966 C3964 1.381 . S
C3966 C3967 1.394 . S
C3966 H3974 0.930 . S
C3967 C3966 1.394 . S
C3967 C3968 1.383 . S
C3967 H3975 0.929 . S
C3968 C3967 1.383 . S
C3968 C3969 1.377 . S
C3969 H3953 0.930 . S
C3969 C3968 1.377 . S
C3969 C3970 1.379 . S
C3970 H3954 0.931 . S
C3970 C3964 1.383 . S
C3970 C3969 1.379 . S
H3971 C3965 0.959 . S
H3972 C3965 0.961 . S
H3973 C3965 0.960 . S
H3974 C3966 0.930 . S
H3975 C3967 0.929 . S
H3976 C3984 0.929 . S
H3977 C3986 0.930 . S
H3978 C3988 0.930 . S
H3979 C3991 0.929 . S
H3980 C3994 0.930 . S
H3981 C3996 0.960 . S
H3982 C3996 0.960 . S
H3983 C3996 0.960 . S
C3984 H3976 0.929 . S
C3984 C3985 1.377 . S
C3984 C3986 1.384 . S
C3985 C3984 1.377 . S
C3985 C3991 1.390 . S
C3986 H3977 0.930 . S
C3986 C3984 1.384 . S
C3986 C3987 1.372 . S
C3987 C3986 1.372 . S
C3987 C3988 1.400 . S
C3987 C3992 1.490 . S
C3988 H3978 0.930 . S
C3988 C3987 1.400 . S
C3988 C3991 1.386 . S
H3989 C4005 0.930 . S
H3990 C4006 0.931 . S
C3991 H3979 0.929 . S
C3991 C3985 1.390 . S
C3991 C3988 1.386 . S
C3992 C3987 1.490 . S
C3992 C3994 1.395 . S
C3992 C3995 1.403 . S
H3993 C3999 0.930 . S
C3994 H3980 0.930 . S
C3994 C3992 1.395 . S
C3994 C3997 1.403 . S
C3995 C3992 1.403 . S
C3995 C3996 1.524 . S
C3995 C3999 1.400 . S
C3996 H3981 0.960 . S
C3996 H3982 0.960 . S
C3996 H3983 0.960 . S
C3996 C3995 1.524 . S
C3997 C3994 1.403 . S
C3997 C3998 1.392 . S
C3997 C4001 1.495 . S
C3998 C3997 1.392 . S
C3998 C3999 1.385 . S
C3998 C4000 1.478 . S
C3999 H3993 0.930 . S
C3999 C3995 1.400 . S
C3999 C3998 1.385 . S
C4000 C3998 1.478 . S
C4000 C4002 1.381 . S
C4000 C4006 1.383 . S
C4001 C3997 1.495 . S
C4001 H4007 0.959 . S
C4001 H4008 0.961 . S
C4001 H4009 0.960 . S
C4002 C4000 1.381 . S
C4002 C4003 1.394 . S
C4002 H4010 0.930 . S
C4003 C4002 1.394 . S
C4003 C4004 1.383 . S
C4003 H4011 0.929 . S
C4004 C4003 1.383 . S
C4004 C4005 1.377 . S
C4005 H3989 0.930 . S
C4005 C4004 1.377 . S
C4005 C4006 1.379 . S
C4006 H3990 0.931 . S
C4006 C4000 1.383 . S
C4006 C4005 1.379 . S
H4007 C4001 0.959 . S
H4008 C4001 0.961 . S
H4009 C4001 0.960 . S
H4010 C4002 0.930 . S
H4011 C4003 0.929 . S
H4012 C4020 0.929 . S
H4013 C4022 0.930 . S
H4014 C4024 0.930 . S
H4015 C4027 0.929 . S
H4016 C4030 0.930 . S
H4017 C4032 0.960 . S
H4018 C4032 0.960 . S
H4019 C4032 0.960 . S
C4020 H4012 0.929 . S
C4020 C4021 1.377 . S
C4020 C4022 1.384 . S
C4021 C4020 1.377 . S
C4021 C4027 1.390 . S
C4022 H4013 0.930 . S
C4022 C4020 1.384 . S
C4022 C4023 1.372 . S
C4023 C4022 1.372 . S
C4023 C4024 1.400 . S
C4023 C4028 1.490 . S
C4024 H4014 0.930 . S
C4024 C4023 1.400 . S
C4024 C4027 1.386 . S
H4025 C4041 0.930 . S
H4026 C4042 0.931 . S
C4027 H4015 0.929 . S
C4027 C4021 1.390 . S
C4027 C4024 1.386 . S
C4028 C4023 1.490 . S
C4028 C4030 1.395 . S
C4028 C4031 1.403 . S
H4029 C4035 0.930 . S
C4030 H4016 0.930 . S
C4030 C4028 1.395 . S
C4030 C4033 1.403 . S
C4031 C4028 1.403 . S
C4031 C4032 1.524 . S
C4031 C4035 1.400 . S
C4032 H4017 0.960 . S
C4032 H4018 0.960 . S
C4032 H4019 0.960 . S
C4032 C4031 1.524 . S
C4033 C4030 1.403 . S
C4033 C4034 1.392 . S
C4033 C4037 1.495 . S
C4034 C4033 1.392 . S
C4034 C4035 1.385 . S
C4034 C4036 1.478 . S
C4035 H4029 0.930 . S
C4035 C4031 1.400 . S
C4035 C4034 1.385 . S
C4036 C4034 1.478 . S
C4036 C4038 1.381 . S
C4036 C4042 1.383 . S
C4037 C4033 1.495 . S
C4037 H4043 0.959 . S
C4037 H4044 0.961 . S
C4037 H4045 0.960 . S
C4038 C4036 1.381 . S
C4038 C4039 1.394 . S
C4038 H4046 0.930 . S
C4039 C4038 1.394 . S
C4039 C4040 1.383 . S
C4039 H4047 0.929 . S
C4040 C4039 1.383 . S
C4040 C4041 1.377 . S
C4041 H4025 0.930 . S
C4041 C4040 1.377 . S
C4041 C4042 1.379 . S
C4042 H4026 0.931 . S
C4042 C4036 1.383 . S
C4042 C4041 1.379 . S
H4043 C4037 0.959 . S
H4044 C4037 0.961 . S
H4045 C4037 0.960 . S
H4046 C4038 0.930 . S
H4047 C4039 0.929 . S
H4048 C4056 0.929 . S
H4049 C4058 0.930 . S
H4050 C4060 0.930 . S
H4051 C4063 0.929 . S
H4052 C4066 0.930 . S
H4053 C4068 0.960 . S
H4054 C4068 0.960 . S
H4055 C4068 0.960 . S
C4056 H4048 0.929 . S
C4056 C4057 1.377 . S
C4056 C4058 1.384 . S
C4057 C4056 1.377 . S
C4057 C4063 1.390 . S
C4058 H4049 0.930 . S
C4058 C4056 1.384 . S
C4058 C4059 1.372 . S
C4059 C4058 1.372 . S
C4059 C4060 1.400 . S
C4059 C4064 1.490 . S
C4060 H4050 0.930 . S
C4060 C4059 1.400 . S
C4060 C4063 1.386 . S
H4061 C4077 0.930 . S
H4062 C4078 0.931 . S
C4063 H4051 0.929 . S
C4063 C4057 1.390 . S
C4063 C4060 1.386 . S
C4064 C4059 1.490 . S
C4064 C4066 1.395 . S
C4064 C4067 1.403 . S
H4065 C4071 0.930 . S
C4066 H4052 0.930 . S
C4066 C4064 1.395 . S
C4066 C4069 1.403 . S
C4067 C4064 1.403 . S
C4067 C4068 1.524 . S
C4067 C4071 1.400 . S
C4068 H4053 0.960 . S
C4068 H4054 0.960 . S
C4068 H4055 0.960 . S
C4068 C4067 1.524 . S
C4069 C4066 1.403 . S
C4069 C4070 1.392 . S
C4069 C4073 1.495 1_655 S
C4070 C4069 1.392 . S
C4070 C4071 1.385 . S
C4070 C4072 1.478 . S
C4071 H4065 0.930 . S
C4071 C4067 1.400 . S
C4071 C4070 1.385 . S
C4072 C4070 1.478 . S
C4072 C4074 1.398 . S
C4072 C4078 1.383 . S
C4073 C4069 1.495 1_455 S
C4073 H4079 0.959 . S
C4073 H4080 0.961 . S
C4073 H4081 0.960 . S
C4074 C4072 1.398 . S
C4074 C4075 1.377 1_655 S
C4074 H4082 0.932 1_655 S
C4075 C4074 1.377 1_455 S
C4075 C4076 1.383 . S
C4075 H4083 0.929 . S
C4076 C4075 1.383 . S
C4076 C4077 1.377 1_455 S
C4077 H4061 0.930 . S
C4077 C4076 1.377 1_655 S
C4077 C4078 1.379 . S
C4078 H4062 0.931 . S
C4078 C4072 1.383 . S
C4078 C4077 1.379 . S
H4079 C4073 0.959 . S
H4080 C4073 0.961 . S
H4081 C4073 0.960 . S
H4082 C4074 0.932 1_455 S
H4083 C4075 0.929 . S
H4084 C4092 0.929 . S
H4085 C4094 0.930 . S
H4086 C4096 0.930 . S
H4087 C4099 0.929 . S
H4088 C4102 0.930 . S
H4089 C4104 0.960 . S
H4090 C4104 0.960 . S
H4091 C4104 0.960 . S
C4092 H4084 0.929 . S
C4092 C4093 1.377 . S
C4092 C4094 1.384 . S
C4093 C4092 1.377 . S
C4093 C4099 1.390 . S
C4094 H4085 0.930 . S
C4094 C4092 1.384 . S
C4094 C4095 1.372 . S
C4095 C4094 1.372 . S
C4095 C4096 1.400 . S
C4095 C4100 1.490 . S
C4096 H4086 0.930 . S
C4096 C4095 1.400 . S
C4096 C4099 1.386 . S
H4097 C4113 0.930 . S
H4098 C4114 0.931 . S
C4099 H4087 0.929 . S
C4099 C4093 1.390 . S
C4099 C4096 1.386 . S
C4100 C4095 1.490 . S
C4100 C4102 1.395 . S
C4100 C4103 1.403 . S
H4101 C4107 0.930 . S
C4102 H4088 0.930 . S
C4102 C4100 1.395 . S
C4102 C4105 1.403 . S
C4103 C4100 1.403 . S
C4103 C4104 1.524 . S
C4103 C4107 1.400 . S
C4104 H4089 0.960 . S
C4104 H4090 0.960 . S
C4104 H4091 0.960 . S
C4104 C4103 1.524 . S
C4105 C4102 1.403 . S
C4105 C4106 1.392 . S
C4105 C4109 1.495 . S
C4106 C4105 1.392 . S
C4106 C4107 1.385 . S
C4106 C4108 1.478 . S
C4107 H4101 0.930 . S
C4107 C4103 1.400 . S
C4107 C4106 1.385 . S
C4108 C4106 1.478 . S
C4108 C4110 1.381 . S
C4108 C4114 1.383 . S
C4109 C4105 1.495 . S
C4109 H4115 0.959 . S
C4109 H4116 0.961 . S
C4109 H4117 0.960 . S
C4110 C4108 1.381 . S
C4110 C4111 1.394 . S
C4110 H4118 0.930 . S
C4111 C4110 1.394 . S
C4111 C4112 1.383 . S
C4111 H4119 0.929 . S
C4112 C4111 1.383 . S
C4112 C4113 1.377 . S
C4113 H4097 0.930 . S
C4113 C4112 1.377 . S
C4113 C4114 1.379 . S
C4114 H4098 0.931 . S
C4114 C4108 1.383 . S
C4114 C4113 1.379 . S
H4115 C4109 0.959 . S
H4116 C4109 0.961 . S
H4117 C4109 0.960 . S
H4118 C4110 0.930 . S
H4119 C4111 0.929 . S
H4120 C4128 0.929 . S
H4121 C4130 0.930 . S
H4122 C4132 0.930 . S
H4123 C4135 0.929 . S
H4124 C4138 0.930 . S
H4125 C4140 0.960 . S
H4126 C4140 0.960 . S
H4127 C4140 0.960 . S
C4128 H4120 0.929 . S
C4128 C4129 1.377 . S
C4128 C4130 1.384 . S
C4129 C4128 1.377 . S
C4129 C4135 1.390 . S
C4130 H4121 0.930 . S
C4130 C4128 1.384 . S
C4130 C4131 1.372 . S
C4131 C4130 1.372 . S
C4131 C4132 1.400 . S
C4131 C4136 1.490 . S
C4132 H4122 0.930 . S
C4132 C4131 1.400 . S
C4132 C4135 1.386 . S
H4133 C4149 0.930 . S
H4134 C4150 0.931 . S
C4135 H4123 0.929 . S
C4135 C4129 1.390 . S
C4135 C4132 1.386 . S
C4136 C4131 1.490 . S
C4136 C4138 1.395 . S
C4136 C4139 1.403 . S
H4137 C4143 0.930 . S
C4138 H4124 0.930 . S
C4138 C4136 1.395 . S
C4138 C4141 1.403 . S
C4139 C4136 1.403 . S
C4139 C4140 1.524 . S
C4139 C4143 1.400 . S
C4140 H4125 0.960 . S
C4140 H4126 0.960 . S
C4140 H4127 0.960 . S
C4140 C4139 1.524 . S
C4141 C4138 1.403 . S
C4141 C4142 1.392 . S
C4141 C4145 1.495 . S
C4142 C4141 1.392 . S
C4142 C4143 1.385 . S
C4142 C4144 1.478 . S
C4143 H4137 0.930 . S
C4143 C4139 1.400 . S
C4143 C4142 1.385 . S
C4144 C4142 1.478 . S
C4144 C4146 1.381 . S
C4144 C4150 1.383 . S
C4145 C4141 1.495 . S
C4145 H4151 0.959 . S
C4145 H4152 0.961 . S
C4145 H4153 0.960 . S
C4146 C4144 1.381 . S
C4146 C4147 1.394 . S
C4146 H4154 0.930 . S
C4147 C4146 1.394 . S
C4147 C4148 1.383 . S
C4147 H4155 0.929 . S
C4148 C4147 1.383 . S
C4148 C4149 1.377 . S
C4149 H4133 0.930 . S
C4149 C4148 1.377 . S
C4149 C4150 1.379 . S
C4150 H4134 0.931 . S
C4150 C4144 1.383 . S
C4150 C4149 1.379 . S
H4151 C4145 0.959 . S
H4152 C4145 0.961 . S
H4153 C4145 0.960 . S
H4154 C4146 0.930 . S
H4155 C4147 0.929 . S
H4156 C4164 0.929 . S
H4157 C4166 0.930 . S
H4158 C4168 0.930 . S
H4159 C4171 0.929 . S
H4160 C4174 0.930 . S
H4161 C4176 0.960 . S
H4162 C4176 0.960 . S
H4163 C4176 0.960 . S
C4164 H4156 0.929 . S
C4164 C4165 1.377 . S
C4164 C4166 1.384 . S
C4165 C4164 1.377 . S
C4165 C4171 1.390 . S
C4166 H4157 0.930 . S
C4166 C4164 1.384 . S
C4166 C4167 1.372 . S
C4167 C4166 1.372 . S
C4167 C4168 1.400 . S
C4167 C4172 1.490 . S
C4168 H4158 0.930 . S
C4168 C4167 1.400 . S
C4168 C4171 1.386 . S
H4169 C4185 0.930 . S
H4170 C4186 0.931 . S
C4171 H4159 0.929 . S
C4171 C4165 1.390 . S
C4171 C4168 1.386 . S
C4172 C4167 1.490 . S
C4172 C4174 1.395 . S
C4172 C4175 1.403 . S
H4173 C4179 0.930 . S
C4174 H4160 0.930 . S
C4174 C4172 1.395 . S
C4174 C4177 1.403 . S
C4175 C4172 1.403 . S
C4175 C4176 1.524 . S
C4175 C4179 1.400 . S
C4176 H4161 0.960 . S
C4176 H4162 0.960 . S
C4176 H4163 0.960 . S
C4176 C4175 1.524 . S
C4177 C4174 1.403 . S
C4177 C4178 1.392 . S
C4177 C4181 1.495 . S
C4178 C4177 1.392 . S
C4178 C4179 1.385 . S
C4178 C4180 1.478 . S
C4179 H4173 0.930 . S
C4179 C4175 1.400 . S
C4179 C4178 1.385 . S
C4180 C4178 1.478 . S
C4180 C4182 1.381 . S
C4180 C4186 1.383 . S
C4181 C4177 1.495 . S
C4181 H4187 0.959 . S
C4181 H4188 0.961 . S
C4181 H4189 0.960 . S
C4182 C4180 1.381 . S
C4182 C4183 1.394 . S
C4182 H4190 0.930 . S
C4183 C4182 1.394 . S
C4183 C4184 1.383 . S
C4183 H4191 0.929 . S
C4184 C4183 1.383 . S
C4184 C4185 1.377 . S
C4185 H4169 0.930 . S
C4185 C4184 1.377 . S
C4185 C4186 1.379 . S
C4186 H4170 0.931 . S
C4186 C4180 1.383 . S
C4186 C4185 1.379 . S
H4187 C4181 0.959 . S
H4188 C4181 0.961 . S
H4189 C4181 0.960 . S
H4190 C4182 0.930 . S
H4191 C4183 0.929 . S
H4192 C4200 0.929 . S
H4193 C4202 0.930 . S
H4194 C4204 0.930 . S
H4195 C4207 0.929 . S
H4196 C4210 0.930 . S
H4197 C4212 0.960 . S
H4198 C4212 0.960 . S
H4199 C4212 0.960 . S
C4200 H4192 0.929 . S
C4200 C4201 1.377 . S
C4200 C4202 1.384 . S
C4201 C4200 1.377 . S
C4201 C4207 1.390 . S
C4202 H4193 0.930 . S
C4202 C4200 1.384 . S
C4202 C4203 1.372 . S
C4203 C4202 1.372 . S
C4203 C4204 1.400 . S
C4203 C4208 1.490 . S
C4204 H4194 0.930 . S
C4204 C4203 1.400 . S
C4204 C4207 1.386 . S
H4205 C4221 0.930 . S
H4206 C4222 0.931 . S
C4207 H4195 0.929 . S
C4207 C4201 1.390 . S
C4207 C4204 1.386 . S
C4208 C4203 1.490 . S
C4208 C4210 1.395 . S
C4208 C4211 1.403 . S
H4209 C4215 0.930 . S
C4210 H4196 0.930 . S
C4210 C4208 1.395 . S
C4210 C4213 1.403 . S
C4211 C4208 1.403 . S
C4211 C4212 1.524 . S
C4211 C4215 1.400 . S
C4212 H4197 0.960 . S
C4212 H4198 0.960 . S
C4212 H4199 0.960 . S
C4212 C4211 1.524 . S
C4213 C4210 1.403 . S
C4213 C4214 1.392 . S
C4213 C4217 1.495 . S
C4214 C4213 1.392 . S
C4214 C4215 1.385 . S
C4214 C4216 1.478 . S
C4215 H4209 0.930 . S
C4215 C4211 1.400 . S
C4215 C4214 1.385 . S
C4216 C4214 1.478 . S
C4216 C4218 1.381 . S
C4216 C4222 1.383 . S
C4217 C4213 1.495 . S
C4217 H4223 0.959 . S
C4217 H4224 0.961 . S
C4217 H4225 0.960 . S
C4218 C4216 1.381 . S
C4218 C4219 1.394 . S
C4218 H4226 0.930 . S
C4219 C4218 1.394 . S
C4219 C4220 1.383 . S
C4219 H4227 0.929 . S
C4220 C4219 1.383 . S
C4220 C4221 1.377 . S
C4221 H4205 0.930 . S
C4221 C4220 1.377 . S
C4221 C4222 1.379 . S
C4222 H4206 0.931 . S
C4222 C4216 1.383 . S
C4222 C4221 1.379 . S
H4223 C4217 0.959 . S
H4224 C4217 0.961 . S
H4225 C4217 0.960 . S
H4226 C4218 0.930 . S
H4227 C4219 0.929 . S
H4228 C4236 0.929 . S
H4229 C4238 0.930 . S
H4230 C4240 0.930 . S
H4231 C4243 0.929 . S
H4232 C4246 0.930 . S
H4233 C4248 0.960 . S
H4234 C4248 0.960 . S
H4235 C4248 0.960 . S
C4236 H4228 0.929 . S
C4236 C4237 1.377 . S
C4236 C4238 1.384 . S
C4237 C4236 1.377 . S
C4237 C4243 1.390 . S
C4238 H4229 0.930 . S
C4238 C4236 1.384 . S
C4238 C4239 1.372 . S
C4239 C4238 1.372 . S
C4239 C4240 1.400 . S
C4239 C4244 1.490 . S
C4240 H4230 0.930 . S
C4240 C4239 1.400 . S
C4240 C4243 1.386 . S
H4241 C4257 0.930 . S
H4242 C4258 0.931 . S
C4243 H4231 0.929 . S
C4243 C4237 1.390 . S
C4243 C4240 1.386 . S
C4244 C4239 1.490 . S
C4244 C4246 1.395 . S
C4244 C4247 1.403 . S
H4245 C4251 0.930 . S
C4246 H4232 0.930 . S
C4246 C4244 1.395 . S
C4246 C4249 1.403 . S
C4247 C4244 1.403 . S
C4247 C4248 1.524 . S
C4247 C4251 1.400 . S
C4248 H4233 0.960 . S
C4248 H4234 0.960 . S
C4248 H4235 0.960 . S
C4248 C4247 1.524 . S
C4249 C4246 1.403 . S
C4249 C4250 1.392 . S
C4249 C4253 1.495 . S
C4250 C4249 1.392 . S
C4250 C4251 1.385 . S
C4250 C4252 1.478 . S
C4251 H4245 0.930 . S
C4251 C4247 1.400 . S
C4251 C4250 1.385 . S
C4252 C4250 1.478 . S
C4252 C4254 1.381 . S
C4252 C4258 1.383 . S
C4253 C4249 1.495 . S
C4253 H4259 0.959 . S
C4253 H4260 0.961 . S
C4253 H4261 0.960 . S
C4254 C4252 1.381 . S
C4254 C4255 1.394 . S
C4254 H4262 0.930 . S
C4255 C4254 1.394 . S
C4255 C4256 1.383 . S
C4255 H4263 0.929 . S
C4256 C4255 1.383 . S
C4256 C4257 1.377 . S
C4257 H4241 0.930 . S
C4257 C4256 1.377 . S
C4257 C4258 1.379 . S
C4258 H4242 0.931 . S
C4258 C4252 1.383 . S
C4258 C4257 1.379 . S
H4259 C4253 0.959 . S
H4260 C4253 0.961 . S
H4261 C4253 0.960 . S
H4262 C4254 0.930 . S
H4263 C4255 0.929 . S
H4264 C4272 0.929 . S
H4265 C4274 0.930 . S
H4266 C4276 0.930 . S
H4267 C4279 0.929 . S
H4268 C4282 0.930 . S
H4269 C4284 0.960 . S
H4270 C4284 0.960 . S
H4271 C4284 0.960 . S
C4272 H4264 0.929 . S
C4272 C4273 1.377 . S
C4272 C4274 1.384 . S
C4273 C4272 1.377 . S
C4273 C4279 1.390 . S
C4274 H4265 0.930 . S
C4274 C4272 1.384 . S
C4274 C4275 1.372 . S
C4275 C4274 1.372 . S
C4275 C4276 1.400 . S
C4275 C4280 1.490 . S
C4276 H4266 0.930 . S
C4276 C4275 1.400 . S
C4276 C4279 1.386 . S
H4277 C4293 0.930 . S
H4278 C4294 0.931 . S
C4279 H4267 0.929 . S
C4279 C4273 1.390 . S
C4279 C4276 1.386 . S
C4280 C4275 1.490 . S
C4280 C4282 1.395 . S
C4280 C4283 1.403 . S
H4281 C4287 0.930 . S
C4282 H4268 0.930 . S
C4282 C4280 1.395 . S
C4282 C4285 1.403 . S
C4283 C4280 1.403 . S
C4283 C4284 1.524 . S
C4283 C4287 1.400 . S
C4284 H4269 0.960 . S
C4284 H4270 0.960 . S
C4284 H4271 0.960 . S
C4284 C4283 1.524 . S
C4285 C4282 1.403 . S
C4285 C4286 1.392 . S
C4285 C4289 1.495 . S
C4286 C4285 1.392 . S
C4286 C4287 1.385 . S
C4286 C4288 1.478 . S
C4287 H4281 0.930 . S
C4287 C4283 1.400 . S
C4287 C4286 1.385 . S
C4288 C4286 1.478 . S
C4288 C4290 1.381 . S
C4288 C4294 1.383 . S
C4289 C4285 1.495 . S
C4289 H4295 0.959 . S
C4289 H4296 0.961 . S
C4289 H4297 0.960 . S
C4290 C4288 1.381 . S
C4290 C4291 1.394 . S
C4290 H4298 0.930 . S
C4291 C4290 1.394 . S
C4291 C4292 1.383 . S
C4291 H4299 0.929 . S
C4292 C4291 1.383 . S
C4292 C4293 1.377 . S
C4293 H4277 0.930 . S
C4293 C4292 1.377 . S
C4293 C4294 1.379 . S
C4294 H4278 0.931 . S
C4294 C4288 1.383 . S
C4294 C4293 1.379 . S
H4295 C4289 0.959 . S
H4296 C4289 0.961 . S
H4297 C4289 0.960 . S
H4298 C4290 0.930 . S
H4299 C4291 0.929 . S
H4300 C4308 0.929 . S
H4301 C4310 0.930 . S
H4302 C4312 0.930 1_556 S
H4303 C4315 0.929 1_556 S
H4304 C4318 0.930 . S
H4305 C4320 0.968 . S
H4306 C4320 0.960 . S
H4307 C4320 0.960 1_556 S
C4308 H4300 0.929 . S
C4308 C4309 1.377 . S
C4308 C4310 1.384 . S
C4309 C4308 1.377 . S
C4309 C4315 1.390 . S
C4310 H4301 0.930 . S
C4310 C4308 1.384 . S
C4310 C4311 1.372 . S
C4311 C4310 1.372 . S
C4311 C4312 1.400 . S
C4311 C4316 1.490 . S
C4312 H4302 0.930 1_554 S
C4312 C4311 1.400 . S
C4312 C4315 1.386 . S
H4313 C4329 0.930 . S
H4314 C4330 0.931 . S
C4315 H4303 0.929 1_554 S
C4315 C4309 1.390 . S
C4315 C4312 1.386 . S
C4316 C4311 1.490 . S
C4316 C4318 1.395 . S
C4316 C4319 1.403 . S
H4317 C4323 0.935 . S
C4318 H4304 0.930 . S
C4318 C4316 1.395 . S
C4318 C4321 1.403 . S
C4319 C4316 1.403 . S
C4319 C4320 1.524 . S
C4319 C4323 1.400 . S
C4320 H4305 0.968 . S
C4320 H4306 0.960 . S
C4320 H4307 0.960 1_554 S
C4320 C4319 1.524 . S
C4321 C4318 1.403 . S
C4321 C4322 1.392 . S
C4321 C4325 1.495 . S
C4322 C4321 1.392 . S
C4322 C4323 1.385 . S
C4322 C4324 1.478 . S
C4323 H4317 0.935 . S
C4323 C4319 1.400 . S
C4323 C4322 1.385 . S
C4324 C4322 1.478 . S
C4324 C4326 1.381 . S
C4324 C4330 1.383 1_554 S
C4325 C4321 1.495 . S
C4325 H4331 0.959 . S
C4325 H4332 0.961 . S
C4325 H4333 0.960 . S
C4326 C4324 1.381 . S
C4326 C4327 1.394 . S
C4326 H4334 0.930 . S
C4327 C4326 1.394 . S
C4327 C4328 1.383 1_554 S
C4327 H4335 0.929 . S
C4328 C4327 1.383 1_556 S
C4328 C4329 1.377 . S
C4329 H4313 0.930 . S
C4329 C4328 1.377 . S
C4329 C4330 1.379 . S
C4330 H4314 0.931 . S
C4330 C4324 1.383 1_556 S
C4330 C4329 1.379 . S
H4331 C4325 0.959 . S
H4332 C4325 0.961 . S
H4333 C4325 0.960 . S
H4334 C4326 0.930 . S
H4335 C4327 0.929 . S
H4336 C4344 0.929 . S
H4337 C4346 0.930 . S
H4338 C4348 0.930 . S
H4339 C4351 0.929 . S
H4340 C4354 0.930 . S
H4341 C4356 0.960 . S
H4342 C4356 0.960 . S
H4343 C4356 0.960 . S
C4344 H4336 0.929 . S
C4344 C4345 1.377 . S
C4344 C4346 1.384 . S
C4345 C4344 1.377 . S
C4345 C4351 1.390 . S
C4346 H4337 0.930 . S
C4346 C4344 1.384 . S
C4346 C4347 1.372 . S
C4347 C4346 1.372 . S
C4347 C4348 1.400 . S
C4347 C4352 1.490 . S
C4348 H4338 0.930 . S
C4348 C4347 1.400 . S
C4348 C4351 1.386 . S
H4349 C4365 0.930 . S
H4350 C4366 0.931 . S
C4351 H4339 0.929 . S
C4351 C4345 1.390 . S
C4351 C4348 1.386 . S
C4352 C4347 1.490 . S
C4352 C4354 1.395 . S
C4352 C4355 1.403 . S
H4353 C4359 0.930 . S
C4354 H4340 0.930 . S
C4354 C4352 1.395 . S
C4354 C4357 1.403 . S
C4355 C4352 1.403 . S
C4355 C4356 1.524 . S
C4355 C4359 1.400 . S
C4356 H4341 0.960 . S
C4356 H4342 0.960 . S
C4356 H4343 0.960 . S
C4356 C4355 1.524 . S
C4357 C4354 1.403 . S
C4357 C4358 1.392 . S
C4357 C4361 1.495 . S
C4358 C4357 1.392 . S
C4358 C4359 1.385 . S
C4358 C4360 1.478 . S
C4359 H4353 0.930 . S
C4359 C4355 1.400 . S
C4359 C4358 1.385 . S
C4360 C4358 1.478 . S
C4360 C4362 1.381 . S
C4360 C4366 1.383 . S
C4361 C4357 1.495 . S
C4361 H4367 0.959 . S
C4361 H4368 0.961 . S
C4361 H4369 0.960 . S
C4362 C4360 1.381 . S
C4362 C4363 1.394 . S
C4362 H4370 0.930 . S
C4363 C4362 1.394 . S
C4363 C4364 1.383 . S
C4363 H4371 0.929 . S
C4364 C4363 1.383 . S
C4364 C4365 1.377 . S
C4365 H4349 0.930 . S
C4365 C4364 1.377 . S
C4365 C4366 1.379 . S
C4366 H4350 0.931 . S
C4366 C4360 1.383 . S
C4366 C4365 1.379 . S
H4367 C4361 0.959 . S
H4368 C4361 0.961 . S
H4369 C4361 0.960 . S
H4370 C4362 0.930 . S
H4371 C4363 0.929 . S
H4372 C4380 0.929 . S
H4373 C4382 0.930 . S
H4374 C4384 0.930 . S
H4375 C4387 0.929 . S
H4376 C4390 0.930 . S
H4377 C4392 0.960 . S
H4378 C4392 0.960 . S
H4379 C4392 0.960 . S
C4380 H4372 0.929 . S
C4380 C4381 1.377 . S
C4380 C4382 1.384 . S
C4381 C4380 1.377 . S
C4381 C4387 1.390 . S
C4382 H4373 0.930 . S
C4382 C4380 1.384 . S
C4382 C4383 1.372 . S
C4383 C4382 1.372 . S
C4383 C4384 1.400 . S
C4383 C4388 1.490 . S
C4384 H4374 0.930 . S
C4384 C4383 1.400 . S
C4384 C4387 1.386 . S
H4385 C4401 0.930 . S
H4386 C4402 0.931 . S
C4387 H4375 0.929 . S
C4387 C4381 1.390 . S
C4387 C4384 1.386 . S
C4388 C4383 1.490 . S
C4388 C4390 1.395 . S
C4388 C4391 1.403 . S
H4389 C4395 0.930 . S
C4390 H4376 0.930 . S
C4390 C4388 1.395 . S
C4390 C4393 1.403 . S
C4391 C4388 1.403 . S
C4391 C4392 1.524 . S
C4391 C4395 1.400 . S
C4392 H4377 0.960 . S
C4392 H4378 0.960 . S
C4392 H4379 0.960 . S
C4392 C4391 1.524 . S
C4393 C4390 1.403 . S
C4393 C4394 1.392 . S
C4393 C4397 1.495 . S
C4394 C4393 1.392 . S
C4394 C4395 1.385 . S
C4394 C4396 1.478 . S
C4395 H4389 0.930 . S
C4395 C4391 1.400 . S
C4395 C4394 1.385 . S
C4396 C4394 1.478 . S
C4396 C4398 1.381 . S
C4396 C4402 1.383 . S
C4397 C4393 1.495 . S
C4397 H4403 0.959 . S
C4397 H4404 0.961 . S
C4397 H4405 0.960 . S
C4398 C4396 1.381 . S
C4398 C4399 1.394 . S
C4398 H4406 0.930 . S
C4399 C4398 1.394 . S
C4399 C4400 1.383 . S
C4399 H4407 0.929 . S
C4400 C4399 1.383 . S
C4400 C4401 1.377 . S
C4401 H4385 0.930 . S
C4401 C4400 1.377 . S
C4401 C4402 1.379 . S
C4402 H4386 0.931 . S
C4402 C4396 1.383 . S
C4402 C4401 1.379 . S
H4403 C4397 0.959 . S
H4404 C4397 0.961 . S
H4405 C4397 0.960 . S
H4406 C4398 0.930 . S
H4407 C4399 0.929 . S
C961 C101 2.294 . S
C980 C322 2.226 . S
C997 C57 2.035 . S
C1016 C370 2.069 . S
C1033 C73 1.157 . S
C1052 C402 1.211 . S
C1088 C447 1.516 . S
C1069 C78 1.506 . S
C1105 C21 0.947 . S
C1124 C487 0.951 . S
C1160 C522 0.885 . S
C1141 C31 0.848 . S
C1196 C561 1.168 . S
C1177 C49 1.189 . S
C1213 C0 1.086 . S
C1232 C598 1.150 . S
C1268 C330 1.970 . S
C1249 C218 1.979 . S
C1285 C229 0.669 . S
C1304 C367 0.534 . S
C1340 C410 2.441 . S
C1321 C257 2.480 . S
C1376 C442 0.956 . S
C1357 C164 0.963 . S
C1393 C216 1.066 . S
C1412 C482 1.097 . S
C1448 C530 0.452 . S
C1429 C231 0.487 . S
C1484 C571 1.823 . S
C1465 C255 1.864 . S
C1520 C601 1.895 . S
C1501 C166 1.921 . S
C1556 C327 1.020 . S
C1537 C143 0.978 1_556 S
C1573 C265 2.174 . S
C1592 C650 2.176 . S
C1628 C687 1.069 . S
C1609 C299 1.068 . S
C1664 C718 0.316 . S
C1645 C291 0.258 . S
C1681 C104 2.712 . S
C1700 C611 2.687 . S
C1717 C117 1.351 . S
C1736 C407 1.375 . S
C1753 C304 1.703 . S
C1772 C770 1.702 . S
C1808 C802 1.689 . S
C1789 C278 1.681 . S
C1844 C331 2.201 . S
C1825 C60 2.246 . S
C1880 C801 1.924 . S
C1861 C96 1.928 . S
C1897 C88 1.089 . S
C1916 C411 1.096 . S
C1933 C65 1.472 . S
C1952 C758 1.445 . S
C1988 C478 0.872 . S
C1969 C10 0.872 1_655 S
C2005 C44 0.736 . S
C2024 C691 0.719 . S
C2060 C570 1.115 . S
C2041 C34 1.129 . S
C2096 C847 1.091 . S
C2077 C13 1.064 . S
C2132 C321 1.875 . S
C2113 C138 1.875 . S
C2168 C798 0.584 . S
C2149 C296 0.406 . S
C2185 C112 2.313 . S
C2204 C401 2.369 . S
C2221 C270 0.866 . S
C2240 C771 0.871 . S
C2257 C140 0.971 . S
C2276 C491 0.941 . S
C2312 C681 0.338 . S
C2293 C294 0.497 . S
C2329 C114 1.774 . S
C2348 C562 1.704 . S
C2365 C268 1.853 . S
C2384 C850 1.861 . S
C2401 C169 1.064 . S
C2420 C318 1.001 . S
C2437 C161 2.080 . S
C2456 C641 2.081 . S
C2473 C234 1.064 . S
C2492 C518 1.056 . S
C2509 C226 0.222 . S
C2528 C727 0.279 . S
C2564 C842 2.601 . S
C2545 C247 2.615 . S
C2581 C195 1.308 . S
C2600 C398 1.317 . S
C2636 C441 1.616 . S
C2617 C239 1.623 . S
C2672 C371 1.564 . S
C2653 C187 1.541 . S
C2689 C75 2.293 . S
C2708 C882 2.246 . S
C2744 C810 2.062 . S
C2725 C83 2.030 . S
C2761 C99 1.164 . S
C2780 C922 1.195 . S
C2797 C52 1.500 1_655 S
C2816 C767 1.514 . S
C2833 C47 0.959 . S
C2852 C647 0.971 . S
C2888 C682 0.872 . S
C2869 C5 0.841 . S
C2924 C721 1.198 . S
C2905 C23 1.186 . S
C2960 C838 1.124 . S
C2941 C26 1.101 . S
C2996 C890 1.957 . S
C2977 C244 1.978 . S
C3013 C177 0.671 . S
C3032 C807 0.539 . S
C3068 C930 2.438 . S
C3049 C192 2.480 . S
C3104 C762 0.963 . S
C3085 C203 0.963 . S
C3140 C642 1.118 . S
C3121 C242 1.062 . S
C3157 C179 0.480 . S
C3176 C690 0.574 . S
C3212 C731 1.810 . S
C3193 C190 1.860 . S
C3229 C205 1.921 . S
C3248 C841 1.900 . S
C3284 C887 1.035 . S
C3265 C286 0.994 . S
C3301 C122 2.171 . S
C3320 C490 2.175 . S
C3356 C527 1.076 . S
C3337 C130 1.071 . S
C3392 C558 0.288 . S
C3373 C148 0.226 . S
C3428 C851 2.684 . S
C3409 C273 2.715 . S
C3445 C260 1.351 . S
C3464 C927 1.380 . S
C3500 C450 1.707 . S
C3481 C135 1.704 . S
C3536 C362 1.671 . S
C3517 C109 1.679 . S
C3553 C86 2.243 . S
C3572 C891 2.225 . S
C3608 C361 1.919 . S
C3589 C70 1.924 . S
C3625 C62 1.090 . S
C3644 C931 1.064 . S
C3661 C91 1.468 . S
C3680 C438 1.468 . S
C3697 C36 0.863 . S
C3716 C638 0.881 . S
C3752 C531 0.713 . S
C3733 C18 0.714 . S
C3769 C8 1.133 . S
C3788 C730 1.152 . S
C3805 C39 1.064 . S
C3824 C607 1.092 . S
C3860 C881 1.876 . S
C3841 C307 1.876 . S
C3877 C153 0.413 . S
C3896 C358 0.503 . S
C3932 C921 2.367 . S
C3913 C281 2.313 . S
C3949 C127 0.864 . S
C3968 C451 0.875 . S
C3985 C309 0.971 . S
C4004 C651 0.955 . S
C4040 C521 0.437 . S
C4021 C151 0.523 . S
C4057 C283 1.777 . S
C4076 C722 1.719 . S
C4112 C610 1.867 . S
C4093 C125 1.853 . S
C4148 C878 1.059 . S
C4129 C221 1.064 . S
C4184 C481 2.083 1_565 S
C4165 C200 2.080 . S
C4201 C208 1.058 . S
C4220 C678 1.061 . S
C4256 C567 0.218 . S
C4237 C174 0.228 . S
C4273 C182 2.612 . S
C4292 C602 2.622 . S
C4309 C156 1.306 . S
C4328 C918 1.303 . S
C4364 C761 1.604 . S
C4345 C213 1.620 . S
C4400 C811 1.565 . S
C4381 C252 1.541 . S
