# Generated by pormake.
# Topology cor, (4,6)-cn, num edge types: 1
# Building blocks:
#     Node 0, Type 0, BuildingBlock: QUQFOY_clean_sbu_3, # of connection points: 4
#     Node 1, Type 0, BuildingBlock: QUQFOY_clean_sbu_3, # of connection points: 4
#     Node 2, Type 0, BuildingBlock: QUQFOY_clean_sbu_3, # of connection points: 4
#     Node 3, Type 0, BuildingBlock: QUQFOY_clean_sbu_3, # of connection points: 4
#     Node 4, Type 0, BuildingBlock: QUQFOY_clean_sbu_3, # of connection points: 4
#     Node 5, Type 0, BuildingBlock: QUQFOY_clean_sbu_3, # of connection points: 4
#     Node 6, Type 0, BuildingBlock: QUQFOY_clean_sbu_3, # of connection points: 4
#     Node 7, Type 0, BuildingBlock: QUQFOY_clean_sbu_3, # of connection points: 4
#     Node 8, Type 0, BuildingBlock: QUQFOY_clean_sbu_3, # of connection points: 4
#     Node 9, Type 0, BuildingBlock: QUQFOY_clean_sbu_3, # of connection points: 4
#     Node 10, Type 0, BuildingBlock: QUQFOY_clean_sbu_3, # of connection points: 4
#     Node 11, Type 0, BuildingBlock: QUQFOY_clean_sbu_3, # of connection points: 4
#     Node 12, Type 0, BuildingBlock: QUQFOY_clean_sbu_3, # of connection points: 4
#     Node 13, Type 0, BuildingBlock: QUQFOY_clean_sbu_3, # of connection points: 4
#     Node 14, Type 0, BuildingBlock: QUQFOY_clean_sbu_3, # of connection points: 4
#     Node 15, Type 0, BuildingBlock: QUQFOY_clean_sbu_3, # of connection points: 4
#     Node 16, Type 0, BuildingBlock: QUQFOY_clean_sbu_3, # of connection points: 4
#     Node 17, Type 0, BuildingBlock: QUQFOY_clean_sbu_3, # of connection points: 4
#     Node 18, Type 1, BuildingBlock: MIDCAF_clean_sbu_0, # of connection points: 6
#     Node 19, Type 1, BuildingBlock: MIDCAF_clean_sbu_0, # of connection points: 6
#     Node 20, Type 1, BuildingBlock: MIDCAF_clean_sbu_0, # of connection points: 6
#     Node 21, Type 1, BuildingBlock: MIDCAF_clean_sbu_0, # of connection points: 6
#     Node 22, Type 1, BuildingBlock: MIDCAF_clean_sbu_0, # of connection points: 6
#     Node 23, Type 1, BuildingBlock: MIDCAF_clean_sbu_0, # of connection points: 6
#     Node 24, Type 1, BuildingBlock: MIDCAF_clean_sbu_0, # of connection points: 6
#     Node 25, Type 1, BuildingBlock: MIDCAF_clean_sbu_0, # of connection points: 6
#     Node 26, Type 1, BuildingBlock: MIDCAF_clean_sbu_0, # of connection points: 6
#     Node 27, Type 1, BuildingBlock: MIDCAF_clean_sbu_0, # of connection points: 6
#     Node 28, Type 1, BuildingBlock: MIDCAF_clean_sbu_0, # of connection points: 6
#     Node 29, Type 1, BuildingBlock: MIDCAF_clean_sbu_0, # of connection points: 6
#     Edge 30, Type (0, 1), BuildingBlock: XIVTED_clean_linker_0, # of connection points: 2
#     Edge 31, Type (0, 1), BuildingBlock: XIVTED_clean_linker_0, # of connection points: 2
#     Edge 32, Type (0, 1), BuildingBlock: XIVTED_clean_linker_0, # of connection points: 2
#     Edge 33, Type (0, 1), BuildingBlock: XIVTED_clean_linker_0, # of connection points: 2
#     Edge 34, Type (0, 1), BuildingBlock: XIVTED_clean_linker_0, # of connection points: 2
#     Edge 35, Type (0, 1), BuildingBlock: XIVTED_clean_linker_0, # of connection points: 2
#     Edge 36, Type (0, 1), BuildingBlock: XIVTED_clean_linker_0, # of connection points: 2
#     Edge 37, Type (0, 1), BuildingBlock: XIVTED_clean_linker_0, # of connection points: 2
#     Edge 38, Type (0, 1), BuildingBlock: XIVTED_clean_linker_0, # of connection points: 2
#     Edge 39, Type (0, 1), BuildingBlock: XIVTED_clean_linker_0, # of connection points: 2
#     Edge 40, Type (0, 1), BuildingBlock: XIVTED_clean_linker_0, # of connection points: 2
#     Edge 41, Type (0, 1), BuildingBlock: XIVTED_clean_linker_0, # of connection points: 2
#     Edge 42, Type (0, 1), BuildingBlock: XIVTED_clean_linker_0, # of connection points: 2
#     Edge 43, Type (0, 1), BuildingBlock: XIVTED_clean_linker_0, # of connection points: 2
#     Edge 44, Type (0, 1), BuildingBlock: XIVTED_clean_linker_0, # of connection points: 2
#     Edge 45, Type (0, 1), BuildingBlock: XIVTED_clean_linker_0, # of connection points: 2
#     Edge 46, Type (0, 1), BuildingBlock: XIVTED_clean_linker_0, # of connection points: 2
#     Edge 47, Type (0, 1), BuildingBlock: XIVTED_clean_linker_0, # of connection points: 2
#     Edge 48, Type (0, 1), BuildingBlock: XIVTED_clean_linker_0, # of connection points: 2
#     Edge 49, Type (0, 1), BuildingBlock: XIVTED_clean_linker_0, # of connection points: 2
#     Edge 50, Type (0, 1), BuildingBlock: XIVTED_clean_linker_0, # of connection points: 2
#     Edge 51, Type (0, 1), BuildingBlock: XIVTED_clean_linker_0, # of connection points: 2
#     Edge 52, Type (0, 1), BuildingBlock: XIVTED_clean_linker_0, # of connection points: 2
#     Edge 53, Type (0, 1), BuildingBlock: XIVTED_clean_linker_0, # of connection points: 2
#     Edge 54, Type (0, 1), BuildingBlock: XIVTED_clean_linker_0, # of connection points: 2
#     Edge 55, Type (0, 1), BuildingBlock: XIVTED_clean_linker_0, # of connection points: 2
#     Edge 56, Type (0, 1), BuildingBlock: XIVTED_clean_linker_0, # of connection points: 2
#     Edge 57, Type (0, 1), BuildingBlock: XIVTED_clean_linker_0, # of connection points: 2
#     Edge 58, Type (0, 1), BuildingBlock: XIVTED_clean_linker_0, # of connection points: 2
#     Edge 59, Type (0, 1), BuildingBlock: XIVTED_clean_linker_0, # of connection points: 2
#     Edge 60, Type (0, 1), BuildingBlock: XIVTED_clean_linker_0, # of connection points: 2
#     Edge 61, Type (0, 1), BuildingBlock: XIVTED_clean_linker_0, # of connection points: 2
#     Edge 62, Type (0, 1), BuildingBlock: XIVTED_clean_linker_0, # of connection points: 2
#     Edge 63, Type (0, 1), BuildingBlock: XIVTED_clean_linker_0, # of connection points: 2
#     Edge 64, Type (0, 1), BuildingBlock: XIVTED_clean_linker_0, # of connection points: 2
#     Edge 65, Type (0, 1), BuildingBlock: XIVTED_clean_linker_0, # of connection points: 2
#     Edge 66, Type (0, 1), BuildingBlock: XIVTED_clean_linker_0, # of connection points: 2
#     Edge 67, Type (0, 1), BuildingBlock: XIVTED_clean_linker_0, # of connection points: 2
#     Edge 68, Type (0, 1), BuildingBlock: XIVTED_clean_linker_0, # of connection points: 2
#     Edge 69, Type (0, 1), BuildingBlock: XIVTED_clean_linker_0, # of connection points: 2
#     Edge 70, Type (0, 1), BuildingBlock: XIVTED_clean_linker_0, # of connection points: 2
#     Edge 71, Type (0, 1), BuildingBlock: XIVTED_clean_linker_0, # of connection points: 2
#     Edge 72, Type (0, 1), BuildingBlock: XIVTED_clean_linker_0, # of connection points: 2
#     Edge 73, Type (0, 1), BuildingBlock: XIVTED_clean_linker_0, # of connection points: 2
#     Edge 74, Type (0, 1), BuildingBlock: XIVTED_clean_linker_0, # of connection points: 2
#     Edge 75, Type (0, 1), BuildingBlock: XIVTED_clean_linker_0, # of connection points: 2
#     Edge 76, Type (0, 1), BuildingBlock: XIVTED_clean_linker_0, # of connection points: 2
#     Edge 77, Type (0, 1), BuildingBlock: XIVTED_clean_linker_0, # of connection points: 2
#     Edge 78, Type (0, 1), BuildingBlock: XIVTED_clean_linker_0, # of connection points: 2
#     Edge 79, Type (0, 1), BuildingBlock: XIVTED_clean_linker_0, # of connection points: 2
#     Edge 80, Type (0, 1), BuildingBlock: XIVTED_clean_linker_0, # of connection points: 2
#     Edge 81, Type (0, 1), BuildingBlock: XIVTED_clean_linker_0, # of connection points: 2
#     Edge 82, Type (0, 1), BuildingBlock: XIVTED_clean_linker_0, # of connection points: 2
#     Edge 83, Type (0, 1), BuildingBlock: XIVTED_clean_linker_0, # of connection points: 2
#     Edge 84, Type (0, 1), BuildingBlock: XIVTED_clean_linker_0, # of connection points: 2
#     Edge 85, Type (0, 1), BuildingBlock: XIVTED_clean_linker_0, # of connection points: 2
#     Edge 86, Type (0, 1), BuildingBlock: XIVTED_clean_linker_0, # of connection points: 2
#     Edge 87, Type (0, 1), BuildingBlock: XIVTED_clean_linker_0, # of connection points: 2
#     Edge 88, Type (0, 1), BuildingBlock: XIVTED_clean_linker_0, # of connection points: 2
#     Edge 89, Type (0, 1), BuildingBlock: XIVTED_clean_linker_0, # of connection points: 2
#     Edge 90, Type (0, 1), BuildingBlock: XIVTED_clean_linker_0, # of connection points: 2
#     Edge 91, Type (0, 1), BuildingBlock: XIVTED_clean_linker_0, # of connection points: 2
#     Edge 92, Type (0, 1), BuildingBlock: XIVTED_clean_linker_0, # of connection points: 2
#     Edge 93, Type (0, 1), BuildingBlock: XIVTED_clean_linker_0, # of connection points: 2
#     Edge 94, Type (0, 1), BuildingBlock: XIVTED_clean_linker_0, # of connection points: 2
#     Edge 95, Type (0, 1), BuildingBlock: XIVTED_clean_linker_0, # of connection points: 2
#     Edge 96, Type (0, 1), BuildingBlock: XIVTED_clean_linker_0, # of connection points: 2
#     Edge 97, Type (0, 1), BuildingBlock: XIVTED_clean_linker_0, # of connection points: 2
#     Edge 98, Type (0, 1), BuildingBlock: XIVTED_clean_linker_0, # of connection points: 2
#     Edge 99, Type (0, 1), BuildingBlock: XIVTED_clean_linker_0, # of connection points: 2
#     Edge 100, Type (0, 1), BuildingBlock: XIVTED_clean_linker_0, # of connection points: 2
#     Edge 101, Type (0, 1), BuildingBlock: XIVTED_clean_linker_0, # of connection points: 2
# Relax obj value: 0.108
# Max RMSD: 0.161
# Mean RMSD: 0.108
data_MOF--net-cor--node1-QUQFOY_clean_sbu_3--node2-MIDCAF_clean_sbu_0--edge1-XIVTED_clean_linker_0
_symmetry_space_group_name_H-M    P1
_symmetry_Int_Tables_number       1
_symmetry_cell_setting            triclinic
loop_
_symmetry_equiv_pos_as_xyz
'x, y, z'
_cell_length_a     39.61029
_cell_length_b     39.548774
_cell_length_c     101.12207
_cell_angle_alpha  89.906252
_cell_angle_beta   89.965294
_cell_angle_gamma 120.42949
loop_
_atom_site_label
_atom_site_type_symbol
_atom_site_fract_x
_atom_site_fract_y
_atom_site_fract_z
_atom_type_partial_charge
C0 C 0.66159 0.90378 0.26235 0.0
O1 O 0.67378 0.88439 0.25597 0.0
Cd2 Cd 0.7358 0.91394 0.24543 0.0
O3 O 0.67999 0.94116 0.26186 0.0
Cd4 Cd 0.73951 -0.00483 0.25115 0.0
C5 C 0.78188 0.96548 0.27381 0.0
O6 O 0.73997 0.96276 0.23065 0.0
O7 O 0.79447 0.01433 0.23618 0.0
O8 O 0.70371 0.02548 0.24236 0.0
C9 C 0.77451 0.9888 0.22749 0.0
O10 O 0.77385 0.93804 0.2656 0.0
C11 C 0.7276 0.05983 0.24647 0.0
O12 O 0.77295 -0.00838 0.2713 0.0
O13 O 0.75572 0.06371 0.25365 0.0
C14 C 0.90859 0.6773 0.2483 0.0
O15 O 0.89794 0.70049 0.25267 0.0
Cd16 Cd 0.94381 0.76755 0.257 0.0
O17 O 0.94495 0.68841 0.24752 0.0
Cd18 Cd 0.00803 0.74958 0.25408 0.0
C19 C -0.00349 0.79538 0.22799 0.0
O20 O -0.01156 0.77153 0.27394 0.0
O21 O 0.04205 0.81451 0.26448 0.0
O22 O 0.03226 0.71339 0.2668 0.0
C23 C 0.02012 0.80425 0.2746 0.0
O24 O 0.97003 0.79529 0.23515 0.0
C25 C 0.06465 0.72781 0.26069 0.0
O26 O 0.01614 0.78025 0.23223 0.0
O27 O 0.06935 0.74994 0.2509 0.0
C28 C 0.24729 0.35936 0.25145 0.0
O29 O 0.21289 0.34362 0.24675 0.0
Cd30 Cd 0.177 0.28067 0.23709 0.0
O31 O 0.26721 0.34218 0.25071 0.0
Cd32 Cd 0.25535 0.27753 0.24208 0.0
C33 C 0.18236 0.23552 0.26543 0.0
O34 O 0.22166 0.27829 0.22191 0.0
O35 O 0.21854 0.22349 0.22634 0.0
O36 O 0.32261 0.30841 0.23346 0.0
C37 C 0.21252 0.24421 0.21816 0.0
O38 O 0.16196 0.24221 0.25727 0.0
C39 C 0.33006 0.2831 0.23817 0.0
O40 O 0.21774 0.24571 0.26269 0.0
O41 O 0.30374 0.25653 0.24543 0.0
C42 C 0.34091 0.11294 0.7579 0.0
O43 O 0.32132 0.1236 0.76489 0.0
Cd44 Cd 0.25416 0.08095 0.76987 0.0
O45 O 0.32667 0.07683 0.75495 0.0
Cd46 Cd 0.26507 0.01296 0.76032 0.0
C47 C 0.22464 0.04542 0.73813 0.0
O48 O 0.24711 0.02607 0.78214 0.0
O49 O 0.20033 0.97944 0.771 0.0
O50 O 0.30086 0.98314 0.76952 0.0
C51 C 0.21247 -0.00304 0.78198 0.0
O52 O 0.22615 0.06714 0.74767 0.0
C53 C 0.28407 0.95219 0.76258 0.0
O54 O 0.23722 0.02167 0.73961 0.0
O55 O 0.26035 0.95059 0.75379 0.0
C56 C 0.89851 0.23477 0.75822 0.0
O57 O 0.88586 0.20373 0.76506 0.0
Cd58 Cd 0.92621 0.17616 0.76838 0.0
O59 O 0.93471 0.25504 0.75517 0.0
Cd60 Cd -0.00327 0.25482 0.75983 0.0
C61 C 0.9595 0.18731 0.73602 0.0
O62 O 0.98202 0.22107 0.78115 0.0
O63 O 0.02757 0.22022 0.76968 0.0
O64 O 0.02656 0.3203 0.76921 0.0
C65 C 0.01017 0.21447 0.78072 0.0
O66 O 0.937 0.16581 0.74528 0.0
C67 C 0.05825 0.33434 0.76268 0.0
O68 O -0.01407 0.22264 0.7383 0.0
O69 O 0.06046 0.31205 0.75411 0.0
C70 C 0.67251 0.7762 0.76097 0.0
O71 O 0.68938 0.80797 0.75442 0.0
Cd72 Cd 0.75222 0.83342 0.74442 0.0
O73 O 0.68755 0.75435 0.76156 0.0
Cd74 Cd 0.7484 0.75847 0.75248 0.0
C75 C 0.7992 0.8355 0.77293 0.0
O76 O 0.75345 0.78558 0.73013 0.0
O77 O 0.80584 0.78945 0.73813 0.0
O78 O 0.71195 0.69081 0.74497 0.0
C79 C 0.78735 0.7907 0.72808 0.0
O80 O 0.79484 0.85485 0.76369 0.0
C81 C 0.73541 0.68101 0.74973 0.0
O82 O 0.78391 0.79845 0.77196 0.0
O83 O 0.76282 0.70607 0.75702 0.0
C84 C 0.33721 0.24748 0.59465 0.0
O85 O 0.35296 0.23139 0.5883 0.0
Cd86 Cd 0.41954 0.26914 0.58122 0.0
O87 O 0.35501 0.28463 0.59591 0.0
Cd88 Cd 0.41802 0.34246 0.58896 0.0
C89 C 0.45533 0.30904 0.6118 0.0
O90 O 0.43054 0.32326 0.56729 0.0
O91 O 0.48035 0.36988 0.57751 0.0
O92 O 0.38393 0.37332 0.57962 0.0
C93 C 0.46561 0.35169 0.56679 0.0
O94 O 0.45155 0.28513 0.60271 0.0
C95 C 0.40467 0.40615 0.58528 0.0
O96 O 0.44489 0.33426 0.60983 0.0
O97 O 0.4298 0.4085 0.59361 0.0
C98 C 0.55901 0.00528 0.59468 0.0
O99 O 0.54755 0.02413 0.6017 0.0
Cd100 Cd 0.59019 0.092 0.60606 0.0
O101 O 0.59513 0.02057 0.59166 0.0
Cd102 Cd 0.65802 0.08247 0.5968 0.0
C103 C 0.62426 0.12013 0.57408 0.0
O104 O 0.64542 0.10107 0.61865 0.0
O105 O 0.69224 0.14713 0.6072 0.0
O106 O 0.68563 0.0449 0.6061 0.0
C107 C 0.67528 0.13531 0.61831 0.0
O108 O 0.60258 0.11864 0.58364 0.0
C109 C 0.71767 0.06254 0.59975 0.0
O110 O 0.64875 0.10857 0.5757 0.0
O111 O 0.72078 0.08737 0.5911 0.0
C112 C 0.90993 0.67923 0.587 0.0
O113 O 0.87668 0.66005 0.58151 0.0
Cd114 Cd 0.84821 0.59248 0.5761 0.0
O115 O 0.93102 0.66367 0.58875 0.0
Cd116 Cd 0.92537 0.5989 0.58412 0.0
C117 C 0.85508 0.56382 0.60762 0.0
O118 O 0.89214 0.58205 0.56263 0.0
O119 O 0.89048 0.53453 0.57375 0.0
O120 O -0.00934 0.6318 0.5744 0.0
C121 C 0.88619 0.54735 0.56275 0.0
O122 O 0.83405 0.56487 0.5983 0.0
C123 C 0.00241 0.61147 0.58042 0.0
O124 O 0.89107 0.57518 0.60561 0.0
O125 O 0.97965 0.58773 0.58917 0.0
C126 C 0.01144 0.45162 0.09212 0.0
O127 O -0.00806 0.46133 0.09956 0.0
Cd128 Cd 0.92574 0.41418 0.10498 0.0
O129 O -0.00159 0.41564 0.08935 0.0
Cd130 Cd 0.94196 0.34946 0.09507 0.0
C131 C 0.89706 0.37793 0.07316 0.0
O132 O 0.92343 0.36084 0.11709 0.0
O133 O 0.87939 0.30971 0.10674 0.0
O134 O -0.01291 0.32965 0.1035 0.0
C135 C 0.89062 0.32911 0.11743 0.0
O136 O 0.89782 0.39911 0.08276 0.0
C137 C 0.97431 0.29906 0.09646 0.0
O138 O 0.91109 0.35536 0.07452 0.0
O139 O 0.94742 0.29259 0.08822 0.0
C140 C 0.55602 0.56093 0.09265 0.0
O141 O 0.54508 0.53135 0.10012 0.0
Cd142 Cd 0.59228 0.51302 0.10534 0.0
O143 O 0.59228 0.58392 0.09026 0.0
Cd144 Cd 0.65762 0.59489 0.09674 0.0
C145 C 0.63176 0.52625 0.0736 0.0
O146 O 0.64352 0.56309 0.11854 0.0
O147 O 0.69486 0.57041 0.10842 0.0
O148 O 0.6708 0.65969 0.1036 0.0
C149 C 0.67512 0.56224 0.11903 0.0
O150 O 0.60946 0.50445 0.08285 0.0
C151 C 0.70638 0.67761 0.09999 0.0
O152 O 0.65487 0.56277 0.07555 0.0
O153 O 0.7187 0.65758 0.09407 0.0
C154 C 0.31281 0.0708 0.0901 0.0
O155 O 0.32686 0.10555 0.08583 0.0
Cd156 Cd 0.39356 0.1449 0.07893 0.0
O157 O 0.33373 0.05481 0.09041 0.0
Cd158 Cd 0.40264 0.07618 0.08471 0.0
C159 C 0.43316 0.14473 0.10874 0.0
O160 O 0.41275 0.11109 0.06349 0.0
O161 O 0.4642 0.11885 0.07371 0.0
O162 O 0.37739 0.01349 0.07407 0.0
C163 C 0.44884 0.12159 0.06306 0.0
O164 O 0.42721 0.16432 0.10001 0.0
C165 C 0.40085 0.00467 0.07944 0.0
O166 O 0.42546 0.10993 0.10627 0.0
O167 O 0.42366 0.02792 0.08825 0.0
C168 C 0.00841 0.57278 0.92402 0.0
O169 O 0.02648 0.56066 0.9169 0.0
Cd170 Cd 0.09334 0.60232 0.91132 0.0
O171 O 0.02368 0.60928 0.92651 0.0
Cd172 Cd 0.08474 0.67164 0.92017 0.0
C173 C 0.12321 0.63939 0.94284 0.0
O174 O 0.10012 0.65622 0.89845 0.0
O175 O 0.14874 0.70264 0.90908 0.0
O176 O 0.04833 0.70085 0.9112 0.0
C177 C 0.135 0.68489 0.89822 0.0
O178 O 0.12142 0.61693 0.93352 0.0
C179 C 0.06736 0.73302 0.9174 0.0
O180 O 0.11155 0.66371 0.94102 0.0
O181 O 0.09247 0.73549 0.92577 0.0
C182 C 0.25353 0.35336 0.92169 0.0
O183 O 0.24211 0.37283 0.92838 0.0
Cd184 Cd 0.28335 0.43926 0.93463 0.0
O185 O 0.28987 0.3678 0.91911 0.0
Cd186 Cd 0.35191 0.43056 0.92509 0.0
C187 C 0.3223 0.47568 0.90369 0.0
O188 O 0.33615 0.4439 0.94729 0.0
O189 O 0.38357 0.49294 0.9371 0.0
O190 O 0.38037 0.39333 0.93399 0.0
C191 C 0.36549 0.47834 0.94787 0.0
O192 O 0.30046 0.47279 0.91339 0.0
C193 C 0.41372 0.41393 0.92863 0.0
O194 O 0.34492 0.46156 0.90459 0.0
O195 O 0.41716 0.43974 0.92035 0.0
C196 C 0.57314 0.0163 0.92005 0.0
O197 O 0.54249 -0.00298 0.91313 0.0
Cd198 Cd 0.51661 0.92925 0.90869 0.0
O199 O 0.5945 0.00164 0.92287 0.0
Cd200 Cd 0.59497 0.93985 0.91733 0.0
C201 C 0.52451 0.90158 0.94045 0.0
O202 O 0.56164 0.91938 0.89583 0.0
O203 O 0.56169 0.87413 0.90779 0.0
O204 O 0.66045 0.97437 0.90753 0.0
C205 C 0.55601 0.88485 0.89658 0.0
O206 O 0.50337 0.90236 0.9311 0.0
C207 C 0.67371 0.95647 0.91424 0.0
O208 O 0.56076 0.91402 0.93854 0.0
O209 O 0.65148 0.93337 0.92323 0.0
C210 C 0.68805 0.78273 0.42505 0.0
O211 O 0.66912 0.79735 0.43021 0.0
Cd212 Cd 0.60353 0.75765 0.43823 0.0
O213 O 0.6735 0.74564 0.42492 0.0
Cd214 Cd 0.6104 0.68724 0.43244 0.0
C215 C 0.56402 0.71057 0.40927 0.0
O216 O 0.5951 0.70726 0.4538 0.0
O217 O 0.54781 0.65802 0.44364 0.0
O218 O 0.64228 0.6542 0.44247 0.0
C219 C 0.56084 0.67732 0.45426 0.0
O220 O 0.56682 0.73584 0.41765 0.0
C221 C 0.62222 0.62221 0.43625 0.0
O222 O 0.5785 0.68892 0.41177 0.0
O223 O 0.59901 0.6216 0.42746 0.0
C224 C 0.23018 0.90788 0.42458 0.0
O225 O 0.21376 0.8751 0.43054 0.0
Cd226 Cd 0.25236 0.8474 0.4373 0.0
O227 O 0.2674 0.92861 0.42411 0.0
Cd228 Cd 0.32445 0.92476 0.43241 0.0
C229 C 0.29892 0.86074 0.40752 0.0
O230 O 0.30215 0.88773 0.45325 0.0
O231 O 0.35096 0.88858 0.4433 0.0
O232 O 0.35482 0.98915 0.44285 0.0
C233 C 0.33124 0.8825 0.45384 0.0
O234 O 0.2728 0.83712 0.41556 0.0
C235 C 0.3879 0.00186 0.43732 0.0
O236 O 0.32282 0.89589 0.41095 0.0
O237 O 0.39044 0.97977 0.42875 0.0
C238 C 0.00019 0.44008 0.42345 0.0
O239 O 0.01968 0.47175 0.41698 0.0
Cd240 Cd 0.08527 0.49705 0.41038 0.0
O241 O 0.0141 0.41761 0.42555 0.0
Cd242 Cd 0.07552 0.41768 0.41906 0.0
C243 C 0.11905 0.49081 0.44128 0.0
O244 O 0.08349 0.44615 0.39726 0.0
O245 O 0.13504 0.44804 0.40507 0.0
O246 O 0.0371 0.35057 0.41101 0.0
C247 C 0.11693 0.4505 0.39511 0.0
O248 O 0.11653 0.5113 0.43203 0.0
C249 C 0.05937 0.33926 0.41579 0.0
O250 O 0.1063 0.45439 0.43957 0.0
O251 O 0.08655 0.36304 0.42342 0.0
Zn252 Zn -0.01201 -0.00631 0.10994 0.0
Zn253 Zn 0.00442 0.01364 0.15658 0.0
Zn254 Zn -0.00442 0.00442 0.13511 0.0
C255 C 0.00987 0.95154 0.1542 0.0
C256 C 0.06115 0.07917 0.14771 0.0
O257 O 0.01585 0.0635 0.12669 0.0
O258 O -0.00102 0.04762 0.10582 0.0
C259 C 0.91456 0.94365 0.12159 0.0
O260 O 0.02243 0.97055 0.14322 0.0
O261 O -0.00908 0.96043 0.16207 0.0
O262 O 0.0606 0.05398 0.15549 0.0
O263 O 0.03268 0.06842 0.13948 0.0
O264 O 0.93243 0.95063 0.11067 0.0
O265 O 0.93267 0.96278 0.13204 0.0
O266 O 0.03335 0.98083 0.13003 0.0
O267 O 0.0309 0.98129 0.10818 0.0
C268 C 0.04545 0.97661 0.11867 0.0
O269 O 0.93745 0.98151 0.14438 0.0
O270 O 0.96471 0.02989 0.15861 0.0
C271 C 0.01171 0.07312 0.11487 0.0
C272 C 0.93419 0.00341 0.15308 0.0
Zn273 Zn 0.0084 0.01922 0.34102 0.0
Zn274 Zn 0.02561 0.02271 0.38774 0.0
Zn275 Zn 0.01449 0.02072 0.3636 0.0
C276 C 0.04757 0.09829 0.38124 0.0
C277 C 0.94614 0.97068 0.38395 0.0
O278 O 0.04064 0.98753 0.35431 0.0
O279 O 0.05226 0.01363 0.33443 0.0
C280 C 0.03909 0.09425 0.3443 0.0
O281 O 0.04335 0.0834 0.36962 0.0
O282 O 0.03901 0.07669 0.39133 0.0
O283 O 0.97275 0.97891 0.39234 0.0
O284 O 0.95503 0.98713 0.37247 0.0
O285 O 0.01252 0.06988 0.33681 0.0
O286 O 0.04635 0.08196 0.35517 0.0
O287 O 0.95095 -0.00862 0.35839 0.0
O288 O 0.95618 0.97268 0.33842 0.0
C289 C 0.9348 0.9725 0.34767 0.0
O290 O 0.04871 -0.00865 0.36822 0.0
O291 O 0.06847 0.01191 0.3886 0.0
C292 C 0.0551 -0.00886 0.3426 0.0
C293 C 0.06959 -0.00567 0.3784 0.0
Zn294 Zn 0.00502 0.00697 0.8988 0.0
Zn295 Zn 0.01398 0.00714 0.82854 0.0
Zn296 Zn 0.00725 0.00708 0.8744 0.0
C297 C 0.04069 0.06634 0.85317 0.0
C298 C 0.95162 0.9787 0.85224 0.0
O299 O 0.03182 0.97012 0.88062 0.0
O300 O 0.02777 0.97326 0.90231 0.0
C301 C 0.05217 0.08571 0.89122 0.0
O302 O 0.03898 0.06697 0.8658 0.0
O303 O 0.0264 0.03255 0.84786 0.0
O304 O -0.01367 -0.00409 0.84753 0.0
O305 O 0.94853 0.97795 0.86486 0.0
O306 O 0.03848 0.06443 0.9014 0.0
O307 O 0.04369 0.06999 0.87966 0.0
O308 O 0.94412 0.98177 0.87873 0.0
O309 O 0.94748 0.98356 0.90053 0.0
C310 C 0.92736 0.97583 0.8901 0.0
O311 O 0.03733 0.97629 0.86684 0.0
O312 O 0.02193 -0.00736 0.84826 0.0
C313 C 0.03667 0.96029 0.89231 0.0
C314 C 0.03859 0.97645 0.85419 0.0
Zn315 Zn -0.01566 -0.00195 0.66804 0.0
Zn316 Zn 0.00524 0.01973 0.61978 0.0
Zn317 Zn -0.00614 0.0073 0.64385 0.0
C318 C 0.98238 0.94192 0.62351 0.0
C319 C 0.07546 0.06906 0.63073 0.0
O320 O 0.96373 0.03924 0.6505 0.0
O321 O 0.95254 0.0219 0.67154 0.0
C322 C 0.94772 0.92336 0.65872 0.0
O323 O 0.97122 0.94938 0.63454 0.0
O324 O 0.00269 0.96942 0.61552 0.0
O325 O 0.05676 0.06775 0.62049 0.0
O326 O 0.05793 0.04494 0.64034 0.0
O327 O 0.95808 0.94141 0.66955 0.0
O328 O 0.95758 0.94255 0.64772 0.0
O329 O 0.05304 0.03301 0.65361 0.0
O330 O 0.03765 0.02631 0.67484 0.0
C331 C 0.06323 0.03759 0.6659 0.0
O332 O 0.95931 0.03422 0.63668 0.0
O333 O 0.96093 0.02663 0.61511 0.0
C334 C 0.94993 0.04067 0.66191 0.0
C335 C 0.94754 0.03579 0.62491 0.0
Zn336 Zn 0.6684 0.34179 0.50084 0.0
Zn337 Zn 0.65873 0.33494 0.45235 0.0
Zn338 Zn 0.66453 0.33799 0.47803 0.0
C339 C 0.73839 0.37228 0.4584 0.0
C340 C 0.61862 0.25778 0.46142 0.0
O341 O 0.63498 0.36907 0.48583 0.0
O342 O 0.66578 0.38938 0.5048 0.0
C343 C 0.74186 0.36612 0.49524 0.0
O344 O 0.72475 0.36565 0.47027 0.0
O345 O 0.7155 0.36233 0.44864 0.0
O346 O 0.62854 0.27732 0.4508 0.0
O347 O 0.6294 0.27534 0.47265 0.0
O348 O 0.71912 0.34527 0.50436 0.0
O349 O 0.72714 0.36959 0.48431 0.0
O350 O 0.63536 0.27747 0.48682 0.0
O351 O 0.62209 0.29202 0.50638 0.0
C352 C 0.61925 0.26648 0.49832 0.0
O353 O 0.63718 0.37245 0.47156 0.0
O354 O 0.63182 0.36515 0.44988 0.0
C355 C 0.64146 0.38872 0.49662 0.0
C356 C 0.62739 0.38009 0.46028 0.0
Zn357 Zn 0.67852 0.35585 0.7299 0.0
Zn358 Zn 0.6775 0.35039 0.68205 0.0
Zn359 Zn 0.67771 0.35275 0.70461 0.0
C360 C 0.60284 0.3044 0.68634 0.0
C361 C 0.70663 0.42544 0.68491 0.0
O362 O 0.70697 0.32094 0.71162 0.0
O363 O 0.70214 0.32331 0.73333 0.0
C364 C 0.60015 0.31737 0.72286 0.0
O365 O 0.61638 0.32428 0.69708 0.0
O366 O 0.62633 0.30316 0.67823 0.0
O367 O 0.68191 0.40075 0.67701 0.0
O368 O 0.7121 0.41345 0.69614 0.0
O369 O 0.62159 0.33125 0.73294 0.0
O370 O 0.61578 0.32246 0.71132 0.0
O371 O 0.70893 0.41554 0.71044 0.0
O372 O 0.71113 0.41304 0.73222 0.0
C373 C 0.71901 0.43294 0.72172 0.0
O374 O 0.70479 0.31826 0.69746 0.0
O375 O 0.72397 0.34598 0.67796 0.0
C376 C 0.71307 0.31234 0.72332 0.0
C377 C 0.72306 0.32225 0.68648 0.0
Zn378 Zn 0.6601 0.32819 0.22735 0.0
Zn379 Zn 0.66796 0.33234 0.17758 0.0
Zn380 Zn 0.66428 0.33006 0.20127 0.0
C381 C 0.71117 0.40825 0.18335 0.0
C382 C 0.59092 0.29935 0.18139 0.0
O383 O 0.69081 0.29542 0.20831 0.0
O384 O 0.68479 0.29589 0.23005 0.0
C385 C 0.70574 0.40706 0.2201 0.0
O386 O 0.6946 0.39247 0.19446 0.0
O387 O 0.70955 0.38665 0.17394 0.0
O388 O 0.61499 0.31949 0.17247 0.0
O389 O 0.60346 0.29781 0.19302 0.0
O390 O 0.69234 0.38563 0.23025 0.0
O391 O 0.69769 0.39156 0.20848 0.0
O392 O 0.60134 0.30272 0.207 0.0
O393 O 0.60231 0.30323 0.22886 0.0
C394 C 0.58332 0.29578 0.21819 0.0
O395 O 0.69815 0.30174 0.19432 0.0
O396 O 0.68094 0.29186 0.17335 0.0
C397 C 0.69545 0.28499 0.21994 0.0
C398 C 0.69923 0.28799 0.18285 0.0
Zn399 Zn 0.66776 0.3394 1.00212 0.0
Zn400 Zn 0.67457 0.35083 0.95389 0.0
Zn401 Zn 0.6717 0.34524 0.97908 0.0
C402 C 0.63151 0.27146 0.95895 0.0
C403 C 0.75139 0.38302 0.96217 0.0
O404 O 0.64626 0.38035 0.9871 0.0
O405 O 0.62622 0.35109 0.00641 0.0
C406 C 0.63358 0.26484 0.99572 0.0
O407 O 0.63979 0.28471 0.97086 0.0
O408 O 0.64201 0.29496 0.94932 0.0
O409 O 0.73134 0.37442 0.95173 0.0
O410 O 0.73451 0.37485 0.97357 0.0
O411 O 0.65469 0.28492 1.00523 0.0
O412 O 0.63394 0.28226 0.98489 0.0
O413 O 0.73232 0.36936 0.98756 0.0
O414 O 0.72029 0.37941 0.00798 0.0
C415 C 0.74454 0.38256 0.99932 0.0
O416 O 0.64246 0.37847 0.97279 0.0
O417 O 0.65145 0.38407 0.95117 0.0
C418 C 0.62835 0.37605 0.99818 0.0
C419 C 0.63745 0.39032 0.96146 0.0
Zn420 Zn 0.30586 0.64889 0.84642 0.0
Zn421 Zn 0.34527 0.67298 0.7818 0.0
Zn422 Zn 0.32989 0.66848 0.80665 0.0
C423 C 0.41508 0.6993 0.79726 0.0
C424 C 0.2899 0.59484 0.78631 0.0
O425 O 0.30079 0.70201 0.81142 0.0
O426 O 0.30387 0.67312 0.82889 0.0
C427 C 0.38937 0.69166 0.83385 0.0
O428 O 0.39271 0.69396 0.80717 0.0
O429 O 0.40147 0.6915 0.78565 0.0
O430 O 0.30898 0.61721 0.77682 0.0
O431 O 0.29529 0.60862 0.79816 0.0
O432 O 0.36516 0.6763 0.8435 0.0
O433 O 0.37892 0.69036 0.82157 0.0
O434 O 0.29663 0.60562 0.812 0.0
O435 O 0.27961 0.62688 0.82876 0.0
C436 C 0.28263 0.5994 0.82371 0.0
O437 O 0.31169 0.70897 0.79818 0.0
O438 O 0.32968 0.71246 0.77729 0.0
C439 C 0.29585 0.69741 0.82385 0.0
C440 C 0.31532 0.72314 0.78642 0.0
Zn441 Zn 0.34503 0.68395 0.06073 0.0
Zn442 Zn 0.34206 0.67699 0.01308 0.0
Zn443 Zn 0.34328 0.67979 0.03555 0.0
C444 C 0.26785 0.63154 0.01761 0.0
C445 C 0.37148 0.75193 0.01579 0.0
O446 O 0.37003 0.64578 0.04262 0.0
O447 O 0.36331 0.6468 0.06428 0.0
C448 C 0.26685 0.65001 0.05392 0.0
O449 O 0.2819 0.65226 0.02816 0.0
O450 O 0.29094 0.62914 0.00961 0.0
O451 O 0.34591 0.72723 0.00809 0.0
O452 O 0.37795 0.74003 0.02687 0.0
O453 O 0.28886 0.66472 0.06383 0.0
O454 O 0.28181 0.65213 0.04242 0.0
O455 O 0.37687 0.74237 0.04119 0.0
O456 O 0.38224 0.74063 0.06287 0.0
C457 C 0.3895 0.76018 0.05231 0.0
O458 O 0.3703 0.64526 0.02854 0.0
O459 O 0.38913 0.67354 0.0091 0.0
C460 C 0.37397 0.63539 0.05432 0.0
C461 C 0.38921 0.65034 0.01764 0.0
Zn462 Zn 0.32686 0.66286 0.56506 0.0
Zn463 Zn 0.34065 0.67312 0.51661 0.0
Zn464 Zn 0.33297 0.66786 0.53949 0.0
C465 C 0.37989 0.74758 0.52266 0.0
C466 C 0.2635 0.63861 0.51844 0.0
O467 O 0.36328 0.63705 0.54666 0.0
O468 O 0.35685 0.63638 0.56838 0.0
C469 C 0.36549 0.74237 0.55913 0.0
O470 O 0.35987 0.73037 0.53313 0.0
O471 O 0.38423 0.72739 0.51394 0.0
O472 O 0.28909 0.66318 0.51068 0.0
O473 O 0.27385 0.63349 0.53002 0.0
O474 O 0.35231 0.71946 0.56893 0.0
O475 O 0.36071 0.72845 0.54733 0.0
O476 O 0.26953 0.63513 0.5442 0.0
O477 O 0.26916 0.63166 0.56602 0.0
C478 C 0.25071 0.62451 0.55525 0.0
O479 O 0.37105 0.64426 0.53273 0.0
O480 O 0.35219 0.63171 0.51199 0.0
C481 C 0.36916 0.62741 0.55824 0.0
C482 C 0.37232 0.63021 0.52135 0.0
Zn483 Zn 0.35128 0.69278 0.29187 0.0
Zn484 Zn 0.31605 0.66361 0.33534 0.0
Zn485 Zn 0.33322 0.67731 0.31435 0.0
C486 C 0.38656 0.67325 0.33566 0.0
C487 C 0.26334 0.60026 0.32409 0.0
O488 O 0.29879 0.70369 0.30696 0.0
O489 O 0.30504 0.69493 0.28578 0.0
C490 C 0.41565 0.74385 0.30598 0.0
O491 O 0.38673 0.69576 0.32639 0.0
O492 O 0.35412 0.64653 0.34011 0.0
O493 O 0.26034 0.62359 0.33181 0.0
O494 O 0.29456 0.61322 0.31705 0.0
O495 O 0.39934 0.74367 0.29526 0.0
O496 O 0.39715 0.71622 0.31446 0.0
O497 O 0.31432 0.62109 0.30467 0.0
O498 O 0.35469 0.64504 0.28772 0.0
C499 C 0.3308 0.61584 0.29456 0.0
O500 O 0.30571 0.71184 0.32026 0.0
O501 O 0.32921 0.71724 0.34033 0.0
C502 C 0.2887 0.7035 0.29483 0.0
C503 C 0.31516 0.72921 0.33155 0.0
H504 H 0.17607 0.27148 0.20189 0.0
H505 H 0.04803 0.13769 0.15507 0.0
H506 H 0.2092 0.18323 0.20453 0.0
H507 H 0.1394 0.11099 0.14846 0.0
H508 H 0.09098 0.18963 0.17039 0.0
H509 H 0.14531 0.24451 0.1804 0.0
C510 C 0.17694 0.2465 0.19793 0.0
C511 C 0.19461 0.22908 0.20508 0.0
C512 C 0.10244 0.17382 0.16509 0.0
C513 C 0.16007 0.19858 0.18055 0.0
C514 C 0.07804 0.14451 0.15617 0.0
C515 C 0.09035 0.12022 0.15049 0.0
C516 C 0.13896 0.17818 0.16837 0.0
C517 C 0.12899 0.12926 0.15265 0.0
C518 C 0.15934 0.23115 0.1857 0.0
C519 C 0.19531 0.1971 0.19946 0.0
N520 N 0.15149 0.15665 0.16174 0.0
N521 N 0.17834 0.18295 0.18752 0.0
H522 H 0.83398 0.05143 0.215 0.0
H523 H 0.87112 0.93354 0.16094 0.0
H524 H 0.75189 0.92789 0.21006 0.0
H525 H 0.91362 0.0574 0.15794 0.0
H526 H 0.82291 0.92792 0.17748 0.0
H527 H 0.86205 0.05266 0.19345 0.0
C528 C 0.82188 0.02454 0.20935 0.0
C529 C 0.79088 0.98947 0.21434 0.0
C530 C 0.8419 0.95604 0.17284 0.0
C531 C 0.82289 -0.0095 0.18963 0.0
C532 C 0.86903 0.95913 0.16331 0.0
C533 C 0.89645 -0.00393 0.15826 0.0
C534 C 0.84289 0.99023 0.17729 0.0
C535 C 0.8931 0.02849 0.16175 0.0
C536 C 0.83762 0.02528 0.19698 0.0
C537 C 0.77594 0.95551 0.20654 0.0
N538 N 0.86745 0.025 0.17127 0.0
N539 N 0.79253 0.95669 0.19462 0.0
H540 H 0.0656 0.83562 0.21402 0.0
H541 H 0.95791 0.87415 0.15408 0.0
H542 H 0.94168 0.79229 0.21122 0.0
H543 H 0.07586 0.95897 0.16535 0.0
H544 H 0.9581 0.82795 0.17014 0.0
H545 H 0.07467 0.86691 0.19213 0.0
C546 C 0.04033 0.83224 0.20872 0.0
C547 C 0.0029 0.81187 0.21447 0.0
C548 C -0.01551 0.85615 0.16877 0.0
C549 C 0.01287 0.84626 0.18948 0.0
C550 C -0.01539 0.88221 0.15945 0.0
C551 C 0.01702 0.92015 0.15835 0.0
C552 C 0.01688 0.86833 0.17715 0.0
C553 C 0.05052 0.9297 0.16582 0.0
C554 C 0.04552 0.85 0.19628 0.0
C555 C 0.97109 0.80825 0.20723 0.0
N556 N 0.04938 0.9042 0.17514 0.0
N557 N 0.9768 0.82525 0.19513 0.0
H558 H 0.21483 0.21655 0.28641 0.0
H559 H 0.02338 0.14435 0.33101 0.0
H560 H 0.11134 0.21954 0.27499 0.0
H561 H 0.11811 0.12673 0.3424 0.0
H562 H 0.06331 0.18626 0.31286 0.0
H563 H 0.18609 0.19372 0.30852 0.0
C564 C 0.18611 0.21232 0.2885 0.0
C565 C 0.16538 0.21961 0.27871 0.0
C566 C 0.07592 0.17412 0.3195 0.0
C567 C 0.13282 0.19447 0.30406 0.0
C568 C 0.05333 0.15082 0.33004 0.0
C569 C 0.06746 0.13208 0.33821 0.0
C570 C 0.11271 0.17818 0.31695 0.0
C571 C 0.10626 0.14093 0.33638 0.0
C572 C 0.16988 0.19959 0.30115 0.0
C573 C 0.12843 0.214 0.28208 0.0
N574 N 0.12725 0.16255 0.32572 0.0
N575 N 0.11348 0.20181 0.2944 0.0
H576 H 0.78945 0.90554 0.28362 0.0
H577 H 0.90039 0.01674 0.34883 0.0
H578 H 0.80779 0.01934 0.29429 0.0
H579 H 0.88018 0.90354 0.33688 0.0
H580 H 0.85323 0.0119 0.33218 0.0
H581 H 0.81188 0.89976 0.3053 0.0
C582 C 0.79848 0.92959 0.29049 0.0
C583 C 0.79736 0.96338 0.28696 0.0
C584 C 0.858 0.98747 0.33352 0.0
C585 C 0.8231 0.95666 0.31213 0.0
C586 C 0.88429 0.98983 0.34323 0.0
C587 C 0.89438 0.96062 0.34409 0.0
C588 C 0.84181 0.95555 0.32475 0.0
C589 C 0.87327 0.92675 0.33646 0.0
C590 C 0.81097 0.92603 0.30299 0.0
C591 C 0.8087 -0.00698 0.29649 0.0
N592 N 0.84869 0.92553 0.32689 0.0
N593 N 0.82155 0.98918 0.30861 0.0
H594 H 0.98129 0.78806 0.29834 0.0
H595 H 0.1114 0.00505 0.32448 0.0
H596 H 0.08461 0.8769 0.27825 0.0
H597 H 0.01974 0.91278 0.34772 0.0
H598 H 0.10933 0.95601 0.30937 0.0
H599 H -0.00049 0.83062 0.31776 0.0
C600 C 0.00786 0.81647 0.29802 0.0
C601 C 0.03114 0.82918 0.28657 0.0
C602 C 0.09033 0.94624 0.31795 0.0
C603 C 0.05236 0.87795 0.30881 0.0
C604 C 0.0919 0.97427 0.32668 0.0
C605 C 0.06548 0.96292 0.33728 0.0
C606 C 0.0615 0.90665 0.31968 0.0
C607 C 0.04063 0.92272 0.33965 0.0
C608 C 0.01842 0.84064 0.30916 0.0
C609 C 0.06551 0.86607 0.28679 0.0
N610 N 0.03845 0.89601 0.3307 0.0
N611 N 0.07484 0.88926 0.29767 0.0
H612 H 0.83938 0.91444 0.77718 0.0
H613 H 0.89094 0.90239 0.85307 0.0
H614 H 0.80418 0.80449 0.79687 0.0
H615 H 0.94019 0.00853 0.82996 0.0
H616 H 0.84963 0.86582 0.83404 0.0
H617 H 0.86877 0.94892 0.79763 0.0
C618 C 0.83797 0.89745 0.78579 0.0
C619 C 0.81946 0.85641 0.78522 0.0
C620 C 0.86888 0.89725 0.83326 0.0
C621 C 0.85302 0.89607 0.80891 0.0
C622 C 0.89189 0.91814 0.84417 0.0
C623 C 0.91858 0.95847 0.84304 0.0
C624 C 0.87269 0.91711 0.82128 0.0
C625 C 0.91968 0.97746 0.83122 0.0
C626 C 0.85469 0.91725 0.79753 0.0
C627 C 0.81848 0.83617 0.79681 0.0
N628 N 0.89734 0.95664 0.82079 0.0
N629 N 0.83506 0.85621 0.80819 0.0
H630 H 0.13464 0.94163 0.78367 0.0
H631 H 0.11319 -0.00818 0.85886 0.0
H632 H 0.23171 0.02617 0.80718 0.0
H633 H 0.0176 0.93644 0.83125 0.0
H634 H 0.15703 0.98963 0.84203 0.0
H635 H 0.0918 0.92584 0.80292 0.0
C636 C 0.14701 0.95673 0.7929 0.0
C637 C 0.18669 0.98571 0.79376 0.0
C638 C 0.12623 0.97707 0.8398 0.0
C639 C 0.13784 0.96748 0.81588 0.0
C640 C 0.10119 0.97782 0.84945 0.0
C641 C 0.0619 0.96428 0.84636 0.0
C642 C 0.11152 0.96232 0.82712 0.0
C643 C 0.0478 0.94715 0.83396 0.0
C644 C 0.12255 0.94763 0.80389 0.0
C645 C 0.20116 0.00401 0.80603 0.0
N646 N 0.07263 0.94699 0.82475 0.0
N647 N 0.1767 -0.00522 0.81659 0.0
H648 H 0.98301 0.20645 0.80611 0.0
H649 H 0.07817 0.08283 0.82968 0.0
H650 H 0.06308 0.18939 0.782 0.0
H651 H 0.024 0.12494 0.85687 0.0
H652 H 0.0779 0.12647 0.81266 0.0
H653 H 0.00039 0.18011 0.82515 0.0
C654 C 0.00433 0.19726 0.80483 0.0
C655 C 0.02127 0.19967 0.7924 0.0
C656 C 0.06686 0.12697 0.82242 0.0
C657 C 0.0414 0.16964 0.81417 0.0
C658 C 0.06729 0.10226 0.83216 0.0
C659 C 0.05112 0.10043 0.84465 0.0
C660 C 0.04919 0.14932 0.82508 0.0
C661 C 0.03702 0.12582 0.84736 0.0
C662 C 0.01445 0.1825 0.81573 0.0
C663 C 0.04904 0.18774 0.79136 0.0
N664 N 0.03559 0.14869 0.83754 0.0
N665 N 0.05791 0.17288 0.80206 0.0
H666 H 0.75891 0.8029 0.70487 0.0
H667 H 0.95783 0.86495 0.66814 0.0
H668 H 0.85418 0.79194 0.7206 0.0
H669 H 0.87056 0.88901 0.65312 0.0
H670 H 0.90937 0.81641 0.6832 0.0
H671 H 0.79002 0.8167 0.68301 0.0
C672 C 0.78621 0.80314 0.70371 0.0
C673 C 0.80446 0.79719 0.71464 0.0
C674 C 0.90024 0.83118 0.67629 0.0
C675 C 0.83981 0.81224 0.68964 0.0
C676 C 0.92774 0.85823 0.66744 0.0
C677 C 0.91831 0.88158 0.65963 0.0
C678 C 0.86335 0.82798 0.67735 0.0
C679 C 0.87903 0.87186 0.65914 0.0
C680 C 0.8038 0.81073 0.69121 0.0
C681 C 0.83948 0.7972 0.71252 0.0
N682 N 0.85324 0.84691 0.66831 0.0
N683 N 0.85616 0.80501 0.70032 0.0
H684 H 0.21161 0.10388 0.73046 0.0
H685 H 0.10473 0.00045 0.66347 0.0
H686 H 0.20495 -0.002 0.71602 0.0
H687 H 0.10996 0.10359 0.67963 0.0
H688 H 0.15427 0.00728 0.67953 0.0
H689 H 0.18571 0.11093 0.70955 0.0
C690 C 0.20465 0.08198 0.72288 0.0
C691 C 0.20983 0.04985 0.72514 0.0
C692 C 0.14562 0.02922 0.67927 0.0
C693 C 0.17997 0.0579 0.70094 0.0
C694 C 0.11792 0.02576 0.66993 0.0
C695 C 0.10355 0.05167 0.67023 0.0
C696 C 0.15867 0.05873 0.68893 0.0
C697 C 0.1206 0.08324 0.67904 0.0
C698 C 0.19006 0.08621 0.71086 0.0
C699 C 0.20099 0.02297 0.71479 0.0
N700 N 0.14673 0.0855 0.68819 0.0
N701 N 0.18599 0.02731 0.70319 0.0
H702 H 0.89456 0.12242 0.72672 0.0
H703 H -0.00548 0.11958 0.65957 0.0
H704 H 0.00773 0.21646 0.71415 0.0
H705 H 0.88202 0.0274 0.67301 0.0
H706 H -0.00801 0.16369 0.67598 0.0
H707 H 0.88323 0.09478 0.70463 0.0
C708 C 0.91716 0.13728 0.71931 0.0
C709 C 0.95259 0.17136 0.72241 0.0
C710 C 0.96713 0.13428 0.67502 0.0
C711 C 0.93964 0.13969 0.69689 0.0
C712 C 0.9682 0.10933 0.66544 0.0
C713 C 0.93863 0.06975 0.66511 0.0
C714 C 0.9362 0.11923 0.68421 0.0
C715 C 0.9055 0.05772 0.67306 0.0
C716 C 0.91048 0.12163 0.70661 0.0
C717 C 0.98026 0.18979 0.71226 0.0
N718 N 0.90561 0.08203 0.68254 0.0
N719 N 0.97348 0.17337 0.7 0.0
H720 H 0.87983 0.47575 0.55975 0.0
H721 H 0.78533 0.4434 0.48854 0.0
H722 H 0.87049 0.56467 0.53802 0.0
H723 H 0.78896 0.3535 0.51154 0.0
H724 H 0.83364 0.493 0.50342 0.0
H725 H 0.86117 0.43544 0.53987 0.0
C726 C 0.87388 0.48683 0.55078 0.0
C727 C 0.87592 0.52329 0.55062 0.0
C728 C 0.82486 0.46253 0.50497 0.0
C729 C 0.85474 0.47728 0.52773 0.0
C730 C 0.79779 0.43423 0.49632 0.0
C731 C 0.78249 0.3943 0.49906 0.0
C732 C 0.83656 0.45051 0.51631 0.0
C733 C 0.79957 0.38403 0.50927 0.0
C734 C 0.86352 0.46391 0.53939 0.0
C735 C 0.86865 0.53646 0.53864 0.0
N736 N 0.82491 0.41187 0.51776 0.0
N737 N 0.85788 0.51324 0.52772 0.0
H738 H 0.44307 0.31791 0.54225 0.0
H739 H 0.65664 0.44894 0.5132 0.0
H740 H 0.53877 0.4146 0.56272 0.0
H741 H 0.56302 0.35281 0.49196 0.0
H742 H 0.6089 0.44789 0.52867 0.0
H743 H 0.48192 0.33847 0.52187 0.0
C744 C 0.47218 0.34353 0.54245 0.0
C745 C 0.48802 0.3641 0.55427 0.0
C746 C 0.59853 0.42765 0.52044 0.0
C747 C 0.53238 0.3881 0.53097 0.0
C748 C 0.62579 0.42865 0.51149 0.0
C749 C 0.61377 0.40034 0.5015 0.0
C750 C 0.55916 0.39765 0.5195 0.0
C751 C 0.5735 0.37487 0.49965 0.0
C752 C 0.49423 0.35543 0.53079 0.0
C753 C 0.52563 0.39742 0.55391 0.0
N754 N 0.54764 0.37324 0.50884 0.0
N755 N 0.54661 0.40812 0.54249 0.0
H756 H 0.56472 0.13141 0.5665 0.0
H757 H 0.65787 0.22596 0.49677 0.0
H758 H 0.66961 0.13736 0.55145 0.0
H759 H 0.55567 0.22125 0.5136 0.0
H760 H 0.65471 0.1806 0.51398 0.0
H761 H 0.55477 0.15328 0.54521 0.0
C762 C 0.58584 0.13743 0.55872 0.0
C763 C 0.6185 0.13315 0.5609 0.0
C764 C 0.63222 0.18847 0.51366 0.0
C765 C 0.60704 0.15834 0.53622 0.0
C766 C 0.63357 0.21376 0.50368 0.0
C767 C 0.60707 0.22745 0.50384 0.0
C768 C 0.60408 0.17688 0.52377 0.0
C769 C 0.57668 0.21143 0.51316 0.0
C770 C 0.57993 0.14969 0.54647 0.0
C771 C 0.64429 0.14069 0.55027 0.0
N772 N 0.57646 0.18762 0.52289 0.0
N773 N 0.63827 0.15339 0.53843 0.0
H774 H 0.78624 0.55593 0.61609 0.0
H775 H 0.78618 0.46177 0.68548 0.0
H776 H 0.88416 0.54628 0.62987 0.0
H777 H 0.69102 0.47362 0.6704 0.0
H778 H 0.82852 0.50545 0.66787 0.0
H779 H 0.75648 0.53653 0.63781 0.0
C780 C 0.80153 0.54957 0.62368 0.0
C781 C 0.83753 0.55208 0.62103 0.0
C782 C 0.79876 0.49956 0.66867 0.0
C783 C 0.80327 0.52974 0.64619 0.0
C784 C 0.77478 0.47523 0.67888 0.0
C785 C 0.73501 0.46394 0.6793 0.0
C786 C 0.78264 0.51258 0.65892 0.0
C787 C 0.72151 0.48154 0.67037 0.0
C788 C 0.78456 0.53876 0.63618 0.0
C789 C 0.85616 0.54426 0.63142 0.0
N790 N 0.74502 0.50432 0.6604 0.0
N791 N 0.83856 0.53294 0.64352 0.0
H792 H 0.47245 0.35646 0.63376 0.0
H793 H 0.55326 0.23789 0.67309 0.0
H794 H 0.46825 0.25098 0.62012 0.0
H795 H 0.56564 0.34627 0.68723 0.0
H796 H 0.50646 0.23386 0.65661 0.0
H797 H 0.49477 0.34736 0.65543 0.0
C798 C 0.47615 0.33142 0.6353 0.0
C799 C 0.46912 0.30485 0.625 0.0
C800 C 0.51853 0.25808 0.66352 0.0
C801 C 0.49377 0.29383 0.6498 0.0
C802 C 0.54474 0.25997 0.67308 0.0
C803 C 0.56352 0.29263 0.68139 0.0
C804 C 0.51181 0.28956 0.6621 0.0
C805 C 0.55172 0.32061 0.68095 0.0
C806 C 0.48859 0.32608 0.6477 0.0
C807 C 0.47391 0.27265 0.62764 0.0
N808 N 0.52744 0.31911 0.67116 0.0
N809 N 0.48608 0.26822 0.63971 0.0
H810 H 0.7416 0.2071 0.62079 0.0
H811 H 0.68474 0.24412 0.69248 0.0
H812 H 0.64286 0.11984 0.64318 0.0
H813 H 0.77954 0.33202 0.66897 0.0
H814 H 0.67964 0.19368 0.67726 0.0
H815 H 0.7643 0.24881 0.64035 0.0
C816 C 0.7247 0.19666 0.62984 0.0
C817 C 0.68988 0.16021 0.63027 0.0
C818 C 0.70235 0.22387 0.67564 0.0
C819 C 0.71589 0.20785 0.65281 0.0
C820 C 0.70572 0.25263 0.68448 0.0
C821 C 0.73207 0.29237 0.6818 0.0
C822 C 0.72562 0.23514 0.66415 0.0
C823 C 0.7584 0.30172 0.67126 0.0
C824 C 0.73784 0.22041 0.64105 0.0
C825 C 0.66958 0.14797 0.64234 0.0
N826 N 0.7539 0.27346 0.66263 0.0
N827 N 0.68263 0.17192 0.65309 0.0
H828 H 0.4551 0.11595 0.12994 0.0
H829 H 0.54148 0.31698 0.16878 0.0
H830 H 0.44292 0.21399 0.11785 0.0
H831 H 0.55192 0.21995 0.18289 0.0
H832 H 0.49207 0.27351 0.15296 0.0
H833 H 0.48039 0.14811 0.15136 0.0
C834 C 0.45756 0.14408 0.13179 0.0
C835 C 0.44752 0.16257 0.12196 0.0
C836 C 0.50421 0.26124 0.15975 0.0
C837 C 0.47583 0.19921 0.14648 0.0
C838 C 0.53193 0.28601 0.16894 0.0
C839 C 0.55068 0.27195 0.1771 0.0
C840 C 0.49606 0.22241 0.15847 0.0
C841 C 0.53783 0.23176 0.1768 0.0
C842 C 0.47174 0.1623 0.14405 0.0
C843 C 0.45088 0.19881 0.12499 0.0
N844 N 0.51208 0.20852 0.16734 0.0
N845 N 0.46496 0.21596 0.13689 0.0
H846 H 0.90648 0.36537 0.14162 0.0
H847 H 0.68956 0.22783 0.1673 0.0
H848 H 0.81887 0.26297 0.12094 0.0
H849 H 0.77669 0.32733 0.18911 0.0
H850 H 0.74092 0.23105 0.15309 0.0
H851 H 0.86369 0.34523 0.16106 0.0
C852 C 0.87835 0.33851 0.14119 0.0
C853 C 0.866 0.31617 0.12954 0.0
C854 C 0.74914 0.25154 0.16121 0.0
C855 C 0.81691 0.29275 0.15183 0.0
C856 C 0.71982 0.24922 0.16949 0.0
C857 C 0.7289 0.27754 0.17932 0.0
C858 C 0.78772 0.28287 0.16263 0.0
C859 C 0.76848 0.3049 0.18164 0.0
C860 C 0.854 0.32691 0.15233 0.0
C861 C 0.82943 0.28141 0.12963 0.0
N862 N 0.79639 0.30766 0.1731 0.0
N863 N 0.80608 0.27103 0.14053 0.0
H864 H 0.63801 0.54092 0.14313 0.0
H865 H 0.77198 0.45929 0.16788 0.0
H866 H 0.74152 0.55858 0.12277 0.0
H867 H 0.67396 0.44765 0.19019 0.0
H868 H 0.771 0.50983 0.15432 0.0
H869 H 0.65774 0.51827 0.1626 0.0
C870 C 0.66502 0.5403 0.14278 0.0
C871 C 0.68775 0.55092 0.13121 0.0
C872 C 0.75034 0.49715 0.16241 0.0
C873 C 0.71068 0.52532 0.15349 0.0
C874 C 0.75132 0.46868 0.17028 0.0
C875 C 0.72261 0.44891 0.18 0.0
C876 C 0.71988 0.5052 0.16411 0.0
C877 C 0.69646 0.46208 0.18272 0.0
C878 C 0.67641 0.5276 0.15394 0.0
C879 C 0.72273 0.55005 0.13139 0.0
N880 N 0.69487 0.48856 0.17453 0.0
N881 N 0.73285 0.53703 0.14228 0.0
H882 H 0.42801 0.13793 0.03893 0.0
H883 H 0.63931 0.20865 0.00925 0.0
H884 H 0.52059 0.13025 0.05859 0.0
H885 H 0.55593 0.23262 0.99057 0.0
H886 H 0.58763 0.16124 0.02371 0.0
H887 H 0.46727 0.1579 0.01855 0.0
C888 C 0.45648 0.1403 0.03895 0.0
C889 C 0.47139 0.13318 0.05055 0.0
C890 C 0.58022 0.17596 0.01621 0.0
C891 C 0.51593 0.15507 0.02726 0.0
C892 C 0.60962 0.20249 0.00779 0.0
C893 C 0.60191 0.22492 0.99889 0.0
C894 C 0.54311 0.17248 0.01587 0.0
C895 C 0.56303 0.21598 0.99739 0.0
C896 C 0.47872 0.15141 0.0273 0.0
C897 C 0.50819 0.13616 0.04997 0.0
N898 N 0.53521 0.19133 1.00612 0.0
N899 N 0.5292 0.14707 0.03857 0.0
H900 H 0.8844 0.43665 0.06564 0.0
H901 H 0.78022 0.33924 0.99775 0.0
H902 H 0.87754 0.33107 0.05081 0.0
H903 H 0.79485 0.44729 0.01313 0.0
H904 H 0.82643 0.34155 0.01441 0.0
H905 H 0.86039 0.44537 0.04463 0.0
C906 C 0.87768 0.41507 0.05797 0.0
C907 C 0.88243 0.38264 0.06014 0.0
C908 C 0.82058 0.36546 0.01386 0.0
C909 C 0.85469 0.39266 0.03574 0.0
C910 C 0.7948 0.36454 1.00417 0.0
C911 C 0.78379 0.39316 1.00409 0.0
C912 C 0.83525 0.39522 0.02347 0.0
C913 C 0.80269 0.42473 0.01285 0.0
C914 C 0.86421 0.4203 0.04586 0.0
C915 C 0.87393 0.35626 0.04964 0.0
N916 N 0.82687 0.42454 0.02232 0.0
N917 N 0.85998 0.36157 0.03794 0.0
H918 H 0.57138 0.4572 0.06472 0.0
H919 H 0.67458 0.45558 0.99773 0.0
H920 H 0.68144 0.55574 0.05194 0.0
H921 H 0.56265 0.36213 0.01117 0.0
H922 H 0.67211 0.49864 0.01468 0.0
H923 H 0.56349 0.42733 0.04319 0.0
C924 C 0.59411 0.47258 0.05739 0.0
C925 C 0.62756 0.50878 0.06028 0.0
C926 C 0.64747 0.46913 0.01364 0.0
C927 C 0.61853 0.47438 0.03532 0.0
C928 C 0.64854 0.44476 1.00379 0.0
C929 C 0.61884 0.40522 1.00315 0.0
C930 C 0.61645 0.45361 0.0228 0.0
C931 C 0.58617 0.39242 0.0114 0.0
C932 C 0.58937 0.45557 0.04499 0.0
C933 C 0.65544 0.52758 0.0502 0.0
N934 N 0.5862 0.41627 0.02104 0.0
N935 N 0.65058 0.50989 0.03821 0.0
H936 H 0.54414 0.81062 0.89536 0.0
H937 H 0.43794 0.7667 0.82549 0.0
H938 H 0.53686 0.89761 0.8717 0.0
H939 H 0.43175 0.67841 0.85204 0.0
H940 H 0.49041 0.81734 0.83907 0.0
H941 H 0.51757 0.76478 0.87692 0.0
C942 C 0.5371 0.82016 0.88626 0.0
C943 C 0.542 0.85776 0.88516 0.0
C944 C 0.47842 0.7868 0.84169 0.0
C945 C 0.51168 0.80537 0.86393 0.0
C946 C 0.44893 0.75786 0.83381 0.0
C947 C 0.43023 0.71847 0.8378 0.0
C948 C 0.48911 0.77599 0.85354 0.0
C949 C 0.44525 0.70858 0.84874 0.0
C950 C 0.52211 0.79401 0.87569 0.0
C951 C 0.53299 0.86869 0.87304 0.0
N952 N 0.47324 0.73719 0.85639 0.0
N953 N 0.51781 0.84245 0.86294 0.0
H954 H 0.11087 0.65806 0.87309 0.0
H955 H 0.32416 0.73792 0.84641 0.0
H956 H 0.2136 0.73672 0.89559 0.0
H957 H 0.22425 0.6904 0.82053 0.0
H958 H 0.28523 0.74457 0.86382 0.0
H959 H 0.15159 0.67378 0.85327 0.0
C960 C 0.14199 0.67878 0.87385 0.0
C961 C 0.159 0.69564 0.88605 0.0
C962 C 0.27196 0.73375 0.85424 0.0
C963 C 0.20572 0.71386 0.86341 0.0
C964 C 0.29432 0.73035 0.84427 0.0
C965 C 0.27731 0.71394 0.83206 0.0
C966 C 0.23194 0.71938 0.8521 0.0
C967 C 0.2384 0.70367 0.8298 0.0
C968 C 0.16516 0.68799 0.86251 0.0
C969 C 0.19934 0.7227 0.88642 0.0
N970 N 0.21663 0.70569 0.83986 0.0
N971 N 0.2214 0.73056 0.8753 0.0
H972 H 0.27328 0.50355 0.89897 0.0
H973 H 0.33889 0.57755 0.82505 0.0
H974 H 0.36081 0.48658 0.87962 0.0
H975 H 0.23357 0.56066 0.84369 0.0
H976 H 0.34939 0.54465 0.84407 0.0
H977 H 0.26195 0.52746 0.87846 0.0
C978 C 0.29038 0.50496 0.89041 0.0
C979 C 0.31808 0.49285 0.89112 0.0
C980 C 0.32358 0.54745 0.84382 0.0
C981 C 0.30483 0.52044 0.8672 0.0
C982 C 0.31736 0.56577 0.83292 0.0
C983 C 0.28517 0.57158 0.83282 0.0
C984 C 0.29753 0.5353 0.85461 0.0
C985 C 0.25868 0.55669 0.84338 0.0
C986 C 0.28363 0.51848 0.87859 0.0
C987 C 0.33918 0.49561 0.87955 0.0
N988 N 0.26563 0.53966 0.85385 0.0
N989 N 0.33221 0.50925 0.86805 0.0
H990 H 0.55566 0.88652 0.96262 0.0
H991 H 0.35385 0.79933 1.00172 0.0
H992 H 0.45275 0.88674 0.94869 0.0
H993 H 0.45119 0.79003 0.01607 0.0
H994 H 0.39643 0.84622 0.98505 0.0
H995 H 0.52364 0.86279 0.98421 0.0
C996 C 0.52648 0.88175 0.96409 0.0
C997 C 0.50664 0.88799 0.95372 0.0
C998 C 0.40891 0.83478 0.99202 0.0
C999 C 0.47021 0.86159 0.97843 0.0
C1000 C 0.38468 0.80847 1.00168 0.0
C1001 C 0.39904 0.79071 0.01019 0.0
C1002 C 0.44757 0.84266 0.99067 0.0
C1003 C 0.4391 0.80324 0.00968 0.0
C1004 C 0.50832 0.86842 0.97644 0.0
C1005 C 0.46903 0.88173 0.95627 0.0
N1006 N 0.46183 0.8277 0.99981 0.0
N1007 N 0.45208 0.86874 0.96829 0.0
H1008 H 0.13844 0.68542 0.96507 0.0
H1009 H 0.21761 0.56525 1.00436 0.0
H1010 H 0.1361 0.5812 0.95102 0.0
H1011 H 0.23157 0.67436 0.01842 0.0
H1012 H 0.17116 0.56186 0.98786 0.0
H1013 H 0.15981 0.67548 0.9868 0.0
C1014 C 0.14233 0.66047 0.96654 0.0
C1015 C 0.13616 0.63454 0.95611 0.0
C1016 C 0.18351 0.58612 0.99475 0.0
C1017 C 0.1597 0.62256 0.98097 0.0
C1018 C 0.20953 0.58765 1.00432 0.0
C1019 C 0.2287 0.62034 0.01261 0.0
C1020 C 0.17734 0.61794 0.9933 0.0
C1021 C 0.2174 0.64869 0.01215 0.0
C1022 C 0.15423 0.65466 0.97896 0.0
C1023 C 0.14115 0.60242 0.95865 0.0
N1024 N 0.19328 0.6475 1.00235 0.0
N1025 N 0.15276 0.59751 0.97075 0.0
H1026 H 0.42985 0.5504 0.95231 0.0
H1027 H 0.35395 0.57183 0.02265 0.0
H1028 H 0.32866 0.4571 0.97198 0.0
H1029 H 0.45048 0.66602 1.00159 0.0
H1030 H 0.35578 0.52488 0.00733 0.0
H1031 H 0.44726 0.5886 0.97267 0.0
C1032 C 0.41134 0.53789 0.96093 0.0
C1033 C 0.37731 0.50084 0.96036 0.0
C1034 C 0.37737 0.55572 0.0063 0.0
C1035 C 0.39717 0.5444 0.98378 0.0
C1036 C 0.37674 0.58247 0.01519 0.0
C1037 C 0.40158 0.62284 0.01317 0.0
C1038 C 0.40308 0.5697 0.99542 0.0
C1039 C 0.43041 0.6351 1.00333 0.0
C1040 C 0.42144 0.55962 0.9726 0.0
C1041 C 0.35484 0.48581 0.97192 0.0
N1042 N 0.42978 0.60873 0.99462 0.0
N1043 N 0.36488 0.50786 0.98311 0.0
H1044 H 0.13486 0.56324 0.44913 0.0
H1045 H 0.2257 0.55877 0.51866 0.0
H1046 H 0.13533 0.46065 0.46354 0.0
H1047 H 0.2175 0.65635 0.50369 0.0
H1048 H 0.18205 0.5176 0.5009 0.0
H1049 H 0.15697 0.59373 0.47059 0.0
C1050 C 0.13981 0.54708 0.45679 0.0
C1051 C 0.13371 0.50941 0.4544 0.0
C1052 C 0.18877 0.54767 0.50175 0.0
C1053 C 0.1591 0.54451 0.4793 0.0
C1054 C 0.21308 0.57097 0.51205 0.0
C1055 C 0.22525 0.61101 0.51257 0.0
C1056 C 0.17676 0.56476 0.49201 0.0
C1057 C 0.2088 0.6256 0.5036 0.0
C1058 C 0.15217 0.56449 0.46915 0.0
C1059 C 0.14005 0.48988 0.46488 0.0
N1060 N 0.18604 0.60273 0.49355 0.0
N1061 N 0.1528 0.50782 0.47685 0.0
H1062 H 0.49309 0.60835 0.45849 0.0
H1063 H 0.44966 0.67424 0.52749 0.0
H1064 H 0.57508 0.71584 0.47815 0.0
H1065 H 0.36697 0.57187 0.50578 0.0
H1066 H 0.502 0.68081 0.51285 0.0
H1067 H 0.45259 0.58734 0.47829 0.0
C1068 C 0.50263 0.62761 0.46699 0.0
C1069 C 0.5372 0.66429 0.46655 0.0
C1070 C 0.47265 0.65613 0.51156 0.0
C1071 C 0.4907 0.64021 0.48942 0.0
C1072 C 0.44288 0.65193 0.52009 0.0
C1073 C 0.40393 0.62273 0.5177 0.0
C1074 C 0.46314 0.63077 0.50069 0.0
C1075 C 0.39664 0.59496 0.50786 0.0
C1076 C 0.47955 0.61542 0.47836 0.0
C1077 C 0.54838 0.68756 0.478 0.0
N1078 N 0.42578 0.60015 0.49953 0.0
N1079 N 0.52492 0.67536 0.48892 0.0
H1080 H 0.29357 0.86369 0.47791 0.0
H1081 H 0.44004 0.80209 0.50769 0.0
H1082 H 0.39716 0.87878 0.45831 0.0
H1083 H 0.33398 0.77932 0.52735 0.0
H1084 H 0.43387 0.84691 0.49265 0.0
H1085 H 0.31449 0.84573 0.49826 0.0
C1086 C 0.32073 0.86334 0.47789 0.0
C1087 C 0.34328 0.87203 0.46632 0.0
C1088 C 0.41243 0.833 0.50047 0.0
C1089 C 0.36771 0.85223 0.48959 0.0
C1090 C 0.41635 0.80789 0.5092 0.0
C1091 C 0.38707 0.78644 0.51858 0.0
C1092 C 0.37864 0.83609 0.50102 0.0
C1093 C 0.35702 0.79507 0.52015 0.0
C1094 C 0.3328 0.85337 0.48953 0.0
C1095 C 0.37848 0.87165 0.46692 0.0
N1096 N 0.35283 0.81832 0.51116 0.0
N1097 N 0.38941 0.86165 0.4783 0.0
H1098 H 0.08249 0.45433 0.37227 0.0
H1099 H 0.28218 0.54704 0.33262 0.0
H1100 H 0.18942 0.46477 0.38721 0.0
H1101 H 0.18426 0.56069 0.3224 0.0
H1102 H 0.24017 0.49442 0.348 0.0
H1103 H 0.11198 0.47269 0.35034 0.0
C1104 C 0.11216 0.46031 0.37093 0.0
C1105 C 0.13394 0.45907 0.38167 0.0
C1106 C 0.22745 0.50782 0.342 0.0
C1107 C 0.16773 0.47977 0.35651 0.0
C1108 C 0.25123 0.53731 0.33303 0.0
C1109 C 0.2366 0.55842 0.32646 0.0
C1110 C 0.18899 0.49962 0.34423 0.0
C1111 C 0.19654 0.54517 0.32742 0.0
C1112 C 0.12885 0.47049 0.35837 0.0
C1113 C 0.1719 0.46621 0.37926 0.0
N1114 N 0.17427 0.51723 0.33644 0.0
N1115 N 0.18784 0.47684 0.36696 0.0
H1116 H 0.5493 0.76434 0.39778 0.0
H1117 H 0.40202 0.61865 0.34535 0.0
H1118 H 0.53496 0.64988 0.39144 0.0
H1119 H 0.45138 0.74362 0.3419 0.0
H1120 H 0.45264 0.62961 0.36138 0.0
H1121 H 0.51485 0.75787 0.37708 0.0
C1122 C 0.53897 0.73784 0.39202 0.0
C1123 C 0.54457 0.70735 0.39645 0.0
C1124 C 0.45303 0.65472 0.35693 0.0
C1125 C 0.50509 0.69983 0.3727 0.0
C1126 C 0.42422 0.64848 0.34775 0.0
C1127 C 0.42251 0.68031 0.3424 0.0
C1128 C 0.47967 0.69305 0.36105 0.0
C1129 C 0.45182 0.71835 0.34581 0.0
C1130 C 0.51963 0.73435 0.38013 0.0
C1131 C 0.53105 0.67398 0.38846 0.0
N1132 N 0.47876 0.72369 0.35519 0.0
N1133 N 0.51143 0.67086 0.37706 0.0
H1134 H 0.35546 0.89794 0.38841 0.0
H1135 H 0.24477 0.72042 0.33788 0.0
H1136 H 0.24249 0.79473 0.39521 0.0
H1137 H 0.36782 0.80561 0.33562 0.0
H1138 H 0.23722 0.76041 0.35479 0.0
H1139 H 0.35483 0.87526 0.36581 0.0
C1140 C 0.33051 0.8706 0.38516 0.0
C1141 C 0.29935 0.84781 0.39382 0.0
C1142 C 0.26564 0.77111 0.35026 0.0
C1143 C 0.29806 0.82225 0.36791 0.0
C1144 C 0.26974 0.74869 0.34041 0.0
C1145 C 0.30692 0.75993 0.33541 0.0
C1146 C 0.29907 0.80472 0.35508 0.0
C1147 C 0.33863 0.79622 0.33924 0.0
C1148 C 0.33006 0.85784 0.37224 0.0
C1149 C 0.26753 0.8129 0.38899 0.0
N1150 N 0.3342 0.81699 0.34908 0.0
N1151 N 0.26781 0.80112 0.37641 0.0
H1152 H 0.27967 0.10279 0.10511 0.0
H1153 H 0.06602 0.94329 0.09895 0.0
H1154 H 0.25684 -0.00728 0.08857 0.0
H1155 H 0.10739 0.00721 0.13554 0.0
H1156 H 0.13302 0.95899 0.09387 0.0
H1157 H 0.21424 0.06948 0.11497 0.0
C1158 C 0.26074 0.07158 0.10353 0.0
C1159 C 0.2733 0.05044 0.09592 0.0
C1160 C 0.1271 0.96847 0.10319 0.0
C1161 C 0.19864 0.01236 0.10709 0.0
C1162 C 0.08898 0.95949 0.10611 0.0
C1163 C 0.08135 0.97433 0.11761 0.0
C1164 C 0.15767 -0.00657 0.11164 0.0
C1165 C 0.11206 -0.00474 0.12656 0.0
C1166 C 0.22371 0.05256 0.10929 0.0
C1167 C 0.24796 0.00995 0.09433 0.0
N1168 N 0.1492 0.00529 0.12319 0.0
N1169 N 0.21131 -0.00778 0.09966 0.0
H1170 H 0.01637 0.29524 0.11729 0.0
H1171 H 0.01173 0.10296 0.09056 0.0
H1172 H 0.96308 0.23836 0.08045 0.0
H1173 H 0.02374 0.13263 0.13202 0.0
H1174 H 0.00921 0.16185 0.08557 0.0
H1175 H 0.03333 0.2446 0.12158 0.0
C1176 C 0.00869 0.27241 0.11002 0.0
C1177 C -0.01191 0.27091 0.09851 0.0
C1178 C 0.01282 0.15573 0.09575 0.0
C1179 C 0.00766 0.21316 0.10335 0.0
C1180 C 0.01445 0.12214 0.09863 0.0
C1181 C 0.01753 0.11246 0.11179 0.0
C1182 C 0.01449 0.18019 0.10605 0.0
C1183 C 0.02132 0.13883 0.12176 0.0
C1184 C 0.01825 0.24347 0.11252 0.0
C1185 C 0.97877 0.24057 0.08947 0.0
N1186 N 0.01935 0.17138 0.1187 0.0
N1187 N -0.0114 0.2129 0.09209 0.0
H1188 H 0.69055 0.73734 0.10194 0.0
H1189 H 0.88897 0.88228 0.13853 0.0
H1190 H 0.78235 0.71035 0.10743 0.0
H1191 H 0.85255 0.92522 0.10552 0.0
H1192 H 0.83293 0.8162 0.13453 0.0
H1193 H 0.73552 0.80466 0.10979 0.0
C1194 C 0.72013 0.74564 0.10478 0.0
C1195 C 0.73314 0.71866 0.10386 0.0
C1196 C 0.83663 0.84047 0.12848 0.0
C1197 C 0.78332 0.79408 0.11341 0.0
C1198 C 0.86814 0.87811 0.13085 0.0
C1199 C 0.87511 0.90898 0.12233 0.0
C1200 C 0.81163 0.83418 0.11776 0.0
C1201 C 0.8479 0.902 0.1123 0.0
C1202 C 0.74548 0.78374 0.10931 0.0
C1203 C 0.7715 0.73055 0.10778 0.0
N1204 N 0.81733 0.86516 0.11021 0.0
N1205 N 0.79518 0.76733 0.11251 0.0
H1206 H 0.10255 0.30693 0.42421 0.0
H1207 H 0.02404 0.14273 0.36748 0.0
H1208 H 0.01365 0.29022 0.39601 0.0
H1209 H 0.09426 0.14614 0.40057 0.0
H1210 H 0.02825 0.20342 0.37556 0.0
H1211 H 0.1057 0.25253 0.41409 0.0
C1212 C 0.08331 0.29149 0.416 0.0
C1213 C 0.05757 0.30297 0.41104 0.0
C1214 C 0.04326 0.19118 0.38092 0.0
C1215 C 0.06171 0.24122 0.39915 0.0
C1216 C 0.04137 0.15696 0.37619 0.0
C1217 C 0.05877 0.13952 0.38341 0.0
C1218 C 0.06291 0.20793 0.39286 0.0
C1219 C 0.08032 0.15868 0.39476 0.0
C1220 C 0.08535 0.26063 0.41014 0.0
C1221 C 0.03367 0.28214 0.40026 0.0
N1222 N 0.08152 0.19162 0.39918 0.0
N1223 N 0.03642 0.25239 0.39464 0.0
H1224 H 0.74614 0.76744 0.41828 0.0
H1225 H 0.87639 0.96767 0.37828 0.0
H1226 H 0.71489 0.85716 0.41583 0.0
H1227 H 0.92463 0.90477 0.39795 0.0
H1228 H 0.81135 0.91991 0.38737 0.0
H1229 H 0.80707 0.81089 0.40637 0.0
C1230 C 0.75208 0.79624 0.41526 0.0
C1231 C 0.72562 0.80886 0.41821 0.0
C1232 C 0.83626 0.91655 0.38955 0.0
C1233 C 0.79469 0.85824 0.40431 0.0
C1234 C 0.87313 0.94352 0.38431 0.0
C1235 C 0.9058 0.94027 0.38751 0.0
C1236 C 0.83223 0.88583 0.39772 0.0
C1237 C 0.90019 0.90854 0.39538 0.0
C1238 C 0.78676 0.82095 0.40844 0.0
C1239 C 0.73473 0.84644 0.41394 0.0
N1240 N 0.8642 0.88259 0.4002 0.0
N1241 N 0.76843 0.86976 0.40716 0.0
H1242 H 0.15084 0.86634 0.42058 0.0
H1243 H 0.14828 0.03164 0.37641 0.0
H1244 H 0.25499 0.97508 0.41007 0.0
H1245 H 0.04642 0.91837 0.38338 0.0
H1246 H 0.18927 0.00839 0.38624 0.0
H1247 H 0.11286 0.88301 0.40575 0.0
C1248 C 0.16571 0.89391 0.41525 0.0
C1249 C 0.20619 0.9195 0.41668 0.0
C1250 C 0.15811 0.98816 0.38531 0.0
C1251 C 0.16284 0.93846 0.39947 0.0
C1252 C 0.13487 0.00127 0.37949 0.0
C1253 C 0.09419 0.97659 0.37894 0.0
C1254 C 0.14026 0.95042 0.39089 0.0
C1255 C 0.07785 0.93793 0.38344 0.0
C1256 C 0.14403 0.9032 0.40666 0.0
C1257 C 0.22384 0.95458 0.40938 0.0
N1258 N 0.10088 0.92617 0.38946 0.0
N1259 N 0.20204 0.96306 0.40113 0.0
H1260 H 0.71031 0.92294 0.92709 0.0
H1261 H 0.88182 -0.00933 0.87324 0.0
H1262 H 0.72185 -0.00558 0.89316 0.0
H1263 H 0.87895 0.93648 0.9106 0.0
H1264 H 0.81835 0.9844 0.87869 0.0
H1265 H 0.7687 0.92195 0.91995 0.0
C1266 C 0.72534 0.93875 0.9182 0.0
C1267 C 0.7113 0.95904 0.91078 0.0
C1268 C 0.83145 0.97345 0.8856 0.0
C1269 C 0.77791 0.95743 0.90237 0.0
C1270 C 0.86738 0.97657 0.88241 0.0
C1271 C 0.88572 0.96429 0.89152 0.0
C1272 C 0.81382 0.95768 0.89791 0.0
C1273 C 0.86596 0.94662 0.90334 0.0
C1274 C 0.75858 0.93798 0.91407 0.0
C1275 C 0.73182 0.97868 0.89926 0.0
N1276 N 0.83132 0.94411 0.90622 0.0
N1277 N 0.76403 0.97732 0.89539 0.0
H1278 H 0.09964 0.80389 0.93003 0.0
H1279 H 0.02865 0.90194 0.87557 0.0
H1280 H 0.02733 0.74054 0.89667 0.0
H1281 H 0.07138 0.95153 0.91417 0.0
H1282 H 0.03796 0.84688 0.8814 0.0
H1283 H 0.09747 0.86195 0.92295 0.0
C1284 C 0.08304 0.80209 0.92128 0.0
C1285 C 0.06338 0.76723 0.914 0.0
C1286 C 0.04564 0.87007 0.88852 0.0
C1287 C 0.06147 0.83377 0.90567 0.0
C1288 C 0.04074 0.90167 0.88515 0.0
C1289 C 0.04897 0.93113 0.89444 0.0
C1290 C 0.05924 0.86832 0.90121 0.0
C1291 C 0.06431 0.92921 0.90676 0.0
C1292 C 0.08197 0.83528 0.9172 0.0
C1293 C 0.04261 0.7667 0.90266 0.0
N1294 N 0.06876 0.89827 0.9098 0.0
N1295 N 0.04233 0.79951 0.89881 0.0
H1296 H 0.17638 0.31106 0.92835 0.0
H1297 H 0.11779 0.1364 0.87681 0.0
H1298 H 0.26198 0.30755 0.90283 0.0
H1299 H 0.04816 0.13085 0.91044 0.0
H1300 H 0.16769 0.20368 0.8833 0.0
H1301 H 0.12623 0.2491 0.91919 0.0
C1302 C 0.18475 0.29721 0.92083 0.0
C1303 C 0.22365 0.31454 0.91644 0.0
C1304 C 0.14123 0.18775 0.88913 0.0
C1305 C 0.16577 0.24314 0.90576 0.0
C1306 C 0.11266 0.14966 0.88536 0.0
C1307 C 0.079 0.12813 0.89315 0.0
C1308 C 0.13553 0.20427 0.90063 0.0
C1309 C 0.07383 0.14636 0.90421 0.0
C1310 C 0.15596 0.26174 0.91557 0.0
C1311 C 0.23245 0.29506 0.9066 0.0
N1312 N 0.10177 0.1832 0.90762 0.0
N1313 N 0.20369 0.26033 0.90157 0.0
H1314 H -0.01577 0.73826 0.59304 0.0
H1315 H 0.91559 0.87228 0.62941 0.0
H1316 H 0.86324 0.70833 0.59418 0.0
H1317 H 0.02682 0.92078 0.60937 0.0
H1318 H 0.89832 0.80688 0.62117 0.0
H1319 H 0.00277 0.80147 0.60338 0.0
C1320 C 0.96164 0.74502 0.59543 0.0
C1321 C 0.92223 0.71826 0.59261 0.0
C1322 C 0.92659 0.83193 0.61869 0.0
C1323 C 0.94303 0.78965 0.60473 0.0
C1324 C 0.93651 0.86902 0.62346 0.0
C1325 C 0.97249 0.90181 0.61996 0.0
C1326 C 0.95326 0.82776 0.61067 0.0
C1327 C -0.00143 0.89621 0.61216 0.0
C1328 C 0.9722 0.78095 0.60134 0.0
C1329 C 0.89405 0.72836 0.59601 0.0
N1330 N -0.01151 0.85988 0.60779 0.0
N1331 N 0.90496 0.76316 0.60197 0.0
H1332 H 0.28974 0.27051 0.60636 0.0
H1333 H 0.13642 0.0559 0.63349 0.0
H1334 H 0.30041 0.16856 0.59953 0.0
H1335 H 0.1088 0.14708 0.62749 0.0
H1336 H 0.20435 0.10194 0.62666 0.0
H1337 H 0.22979 0.22962 0.61899 0.0
C1338 C 0.27944 0.23954 0.60748 0.0
C1339 C 0.29983 0.22284 0.60172 0.0
C1340 C 0.18358 0.11206 0.62715 0.0
C1341 C 0.23181 0.17615 0.61639 0.0
C1342 C 0.14513 0.08603 0.63122 0.0
C1343 C 0.1174 0.098 0.631 0.0
C1344 C 0.19396 0.1501 0.623 0.0
C1345 C 0.12962 0.13699 0.62776 0.0
C1346 C 0.24537 0.21629 0.61474 0.0
C1347 C 0.28531 0.18257 0.60362 0.0
N1348 N 0.16695 0.16161 0.62377 0.0
N1349 N 0.25216 0.16058 0.61079 0.0
H1350 H 0.72281 0.02066 0.62043 0.0
H1351 H 0.93994 0.07132 0.60313 0.0
H1352 H 0.78923 0.09399 0.58754 0.0
H1353 H 0.88525 0.02252 0.64073 0.0
H1354 H 0.88448 0.07876 0.59714 0.0
H1355 H 0.78047 0.01806 0.62755 0.0
C1356 C 0.74939 0.03589 0.61462 0.0
C1357 C 0.75111 0.05744 0.60332 0.0
C1358 C 0.88468 0.06683 0.60676 0.0
C1359 C 0.81736 0.0549 0.61152 0.0
C1360 C 0.9164 0.06266 0.61022 0.0
C1361 C 0.91716 0.04624 0.62245 0.0
C1362 C 0.85297 0.05391 0.61551 0.0
C1363 C 0.88595 0.0356 0.63125 0.0
C1364 C 0.7824 0.03467 0.61877 0.0
C1365 C 0.78648 0.07688 0.59626 0.0
N1366 N 0.8548 0.03915 0.62753 0.0
N1367 N 0.81814 0.07507 0.60047 0.0
H1368 H 0.95744 0.47422 0.41727 0.0
H1369 H 0.79163 0.36054 0.472 0.0
H1370 H 0.9569 0.38652 0.44292 0.0
H1371 H 0.77984 0.42091 0.43835 0.0
H1372 H 0.85786 0.37904 0.46436 0.0
H1373 H 0.89713 0.46291 0.42753 0.0
C1374 C 0.94454 0.4524 0.42504 0.0
C1375 C 0.96215 0.43107 0.42917 0.0
C1376 C 0.84085 0.38858 0.45878 0.0
C1377 C 0.89296 0.41824 0.44109 0.0
C1378 C 0.80338 0.37849 0.46321 0.0
C1379 C 0.78041 0.38918 0.45574 0.0
C1380 C 0.85523 0.40984 0.44694 0.0
C1381 C 0.7966 0.4119 0.44433 0.0
C1382 C 0.91009 0.44604 0.43092 0.0
C1383 C 0.94407 0.4033 0.43933 0.0
N1384 N 0.83291 0.42133 0.44026 0.0
N1385 N 0.91037 0.39768 0.44499 0.0
H1386 H 0.66194 0.6125 0.45668 0.0
H1387 H 0.58341 0.38683 0.44091 0.0
H1388 H 0.58268 0.54967 0.4247 0.0
H1389 H 0.65025 0.445 0.47578 0.0
H1390 H 0.58004 0.4452 0.43548 0.0
H1391 H 0.65755 0.5514 0.46399 0.0
C1392 C 0.6439 0.58594 0.45112 0.0
C1393 C 0.62284 0.58629 0.44 0.0
C1394 C 0.59491 0.44505 0.44444 0.0
C1395 C 0.61724 0.51606 0.44844 0.0
C1396 C 0.5966 0.4116 0.4476 0.0
C1397 C 0.61706 0.41098 0.45884 0.0
C1398 C 0.61434 0.47848 0.45246 0.0
C1399 C 0.63374 0.44397 0.46712 0.0
C1400 C 0.64113 0.55098 0.45537 0.0
C1401 C 0.59961 0.55087 0.43327 0.0
N1402 N 0.6325 0.47661 0.46366 0.0
N1403 N 0.5975 0.51726 0.43758 0.0
H1404 H 0.39377 0.04999 0.45773 0.0
H1405 H 0.61632 0.20821 0.44254 0.0
H1406 H 0.46163 0.03725 0.4268 0.0
H1407 H 0.55631 0.21192 0.4776 0.0
H1408 H 0.56121 0.14333 0.43751 0.0
H1409 H 0.45303 0.10845 0.46554 0.0
C1410 C 0.42107 0.05965 0.45252 0.0
C1411 C 0.4227 0.0389 0.44152 0.0
C1412 C 0.56023 0.1579 0.44644 0.0
C1413 C 0.49066 0.1054 0.45052 0.0
C1414 C 0.59183 0.19483 0.44935 0.0
C1415 C 0.59072 0.21537 0.46047 0.0
C1416 C 0.52688 0.14166 0.45456 0.0
C1417 C 0.55835 0.19686 0.46898 0.0
C1418 C 0.45494 0.09279 0.45707 0.0
C1419 C 0.45894 0.05248 0.43525 0.0
N1420 N 0.52729 0.16124 0.46572 0.0
N1421 N 0.49141 0.08492 0.43981 0.0
H1422 H 0.68836 0.62897 0.7309 0.0
H1423 H 0.76827 0.48252 0.74045 0.0
H1424 H 0.78037 0.65078 0.75846 0.0
H1425 H 0.69971 0.47832 0.70673 0.0
H1426 H 0.77539 0.54539 0.74676 0.0
H1427 H 0.69154 0.57312 0.72215 0.0
C1428 C 0.70894 0.62175 0.73523 0.0
C1429 C 0.73395 0.64445 0.74551 0.0
C1430 C 0.75945 0.53119 0.73783 0.0
C1431 C 0.73814 0.58081 0.73537 0.0
C1432 C 0.75567 0.49547 0.73416 0.0
C1433 C 0.73331 0.47521 0.72307 0.0
C1434 C 0.74006 0.54641 0.7305 0.0
C1435 C 0.71741 0.49312 0.7153 0.0
C1436 C 0.71105 0.59012 0.73011 0.0
C1437 C 0.76035 0.63395 0.7506 0.0
N1438 N 0.72044 0.52739 0.71931 0.0
N1439 N 0.76165 0.60281 0.74551 0.0
H1440 H 0.38292 0.1902 0.76468 0.0
H1441 H 0.54919 0.25002 0.70954 0.0
H1442 H 0.38471 0.10599 0.738 0.0
H1443 H 0.5555 0.3246 0.74166 0.0
H1444 H 0.48376 0.19971 0.71727 0.0
H1445 H 0.44207 0.24177 0.75428 0.0
C1446 C 0.39589 0.18244 0.75668 0.0
C1447 C 0.37885 0.14354 0.75229 0.0
C1448 C 0.49929 0.22737 0.72247 0.0
C1449 C 0.44678 0.20298 0.74014 0.0
C1450 C 0.53632 0.25626 0.71796 0.0
C1451 C 0.55771 0.29141 0.72501 0.0
C1452 C 0.48369 0.23404 0.73402 0.0
C1453 C 0.54002 0.29779 0.73598 0.0
C1454 C 0.42967 0.21204 0.75069 0.0
C1455 C 0.39704 0.13548 0.7418 0.0
N1456 N 0.50425 0.26933 0.74019 0.0
N1457 N 0.43004 0.16499 0.73606 0.0
H1458 H 0.82153 0.20346 0.76487 0.0
H1459 H 0.77702 0.32112 0.70968 0.0
H1460 H 0.9104 0.28791 0.73861 0.0
H1461 H 0.70094 0.26006 0.74262 0.0
H1462 H 0.82209 0.29955 0.71735 0.0
H1463 H 0.7736 0.21611 0.75445 0.0
C1464 C 0.83107 0.22489 0.75697 0.0
C1465 C 0.87017 0.24491 0.7527 0.0
C1466 C 0.79521 0.29044 0.72276 0.0
C1467 C 0.81511 0.25911 0.74055 0.0
C1468 C 0.76932 0.30228 0.71829 0.0
C1469 C 0.73547 0.29246 0.7256 0.0
C1470 C 0.78672 0.2684 0.73449 0.0
C1471 C 0.72696 0.26847 0.73678 0.0
C1472 C 0.8036 0.23197 0.75097 0.0
C1473 C 0.88066 0.27214 0.74232 0.0
N1474 N 0.75253 0.25749 0.74093 0.0
N1475 N 0.85325 0.27843 0.73658 0.0
H1476 H 0.38484 0.32773 0.21944 0.0
H1477 H 0.53093 0.25192 0.23734 0.0
H1478 H 0.35781 0.23771 0.2486 0.0
H1479 H 0.54139 0.31557 0.20146 0.0
H1480 H 0.46728 0.24574 0.24153 0.0
H1481 H 0.44297 0.32494 0.213 0.0
C1482 C 0.39123 0.30753 0.22455 0.0
C1483 C 0.36649 0.2831 0.23466 0.0
C1484 C 0.4831 0.26049 0.23261 0.0
C1485 C 0.43298 0.27959 0.22724 0.0
C1486 C 0.51938 0.26385 0.23018 0.0
C1487 C 0.54146 0.28418 0.21901 0.0
C1488 C 0.46902 0.27833 0.22397 0.0
C1489 C 0.52517 0.29926 0.21011 0.0
C1490 C 0.42427 0.30572 0.22078 0.0
C1491 C 0.3761 0.25722 0.24081 0.0
N1492 N 0.49021 0.2966 0.21289 0.0
N1493 N 0.40866 0.25633 0.23707 0.0
H1494 H 0.68039 0.0623 0.22723 0.0
H1495 H 0.73879 0.28308 0.24039 0.0
H1496 H 0.76866 0.13554 0.25559 0.0
H1497 H 0.68239 0.22261 0.20439 0.0
H1498 H 0.74986 0.22954 0.24625 0.0
H1499 H 0.67857 0.11978 0.21924 0.0
C1500 C 0.6992 0.09042 0.23185 0.0
C1501 C 0.72453 0.09404 0.24218 0.0
C1502 C 0.73564 0.22819 0.23696 0.0
C1503 C 0.72275 0.16004 0.23298 0.0
C1504 C 0.72944 0.25881 0.23359 0.0
C1505 C 0.70964 0.25723 0.22189 0.0
C1506 C 0.72115 0.19521 0.22874 0.0
C1507 C 0.69805 0.2251 0.21345 0.0
C1508 C 0.69841 0.12328 0.22718 0.0
C1509 C 0.74854 0.13133 0.24766 0.0
N1510 N 0.70337 0.19497 0.21715 0.0
N1511 N 0.74688 0.16281 0.24306 0.0
H1512 H 0.83064 0.63846 0.25411 0.0
H1513 H 0.77107 0.45729 0.2056 0.0
H1514 H 0.91685 0.62677 0.23164 0.0
H1515 H 0.7025 0.4528 0.23941 0.0
H1516 H 0.82095 0.52475 0.21171 0.0
H1517 H 0.77989 0.57509 0.24575 0.0
C1518 C 0.83896 0.62253 0.24743 0.0
C1519 C 0.87818 0.63789 0.24365 0.0
C1520 C 0.79474 0.50903 0.21768 0.0
C1521 C 0.81983 0.56533 0.23385 0.0
C1522 C 0.76611 0.47082 0.21411 0.0
C1523 C 0.73267 0.44955 0.22202 0.0
C1524 C 0.78939 0.52606 0.22909 0.0
C1525 C 0.72793 0.46815 0.23307 0.0
C1526 C 0.8099 0.58634 0.24264 0.0
C1527 C 0.88706 0.61585 0.23491 0.0
N1528 N 0.75594 0.50525 0.23627 0.0
N1529 N 0.85806 0.58069 0.23026 0.0
H1530 H 0.54042 0.06034 0.9134 0.0
H1531 H 0.64253 0.21654 0.9718 0.0
H1532 H 0.62289 0.05723 0.94054 0.0
H1533 H 0.58265 0.23162 0.93874 0.0
H1534 H 0.62652 0.1522 0.96293 0.0
H1535 H 0.54859 0.11854 0.92455 0.0
C1536 C 0.56052 0.07207 0.92165 0.0
C1537 C 0.58122 0.05396 0.92596 0.0
C1538 C 0.61642 0.1694 0.95775 0.0
C1539 C 0.59024 0.12053 0.93897 0.0
C1540 C 0.62504 0.20579 0.96291 0.0
C1541 C 0.61396 0.22936 0.95595 0.0
C1542 C 0.59631 0.1566 0.94566 0.0
C1543 C 0.59189 0.21439 0.94436 0.0
C1544 C 0.56503 0.10526 0.92807 0.0
C1545 C 0.60668 0.07047 0.93678 0.0
N1546 N 0.58404 0.17916 0.93955 0.0
N1547 N 0.6104 0.10279 0.94295 0.0
H1548 H 0.96615 0.4939 0.91967 0.0
H1549 H 0.80392 0.45068 0.9748 0.0
H1550 H 0.96723 0.58483 0.94358 0.0
H1551 H 0.79485 0.36772 0.94541 0.0
H1552 H 0.87025 0.49737 0.96668 0.0
H1553 H 0.90857 0.44523 0.93162 0.0
C1554 C 0.95414 0.50373 0.92738 0.0
C1555 C 0.97143 0.54365 0.93053 0.0
C1556 C 0.85401 0.46861 0.96222 0.0
C1557 C 0.90542 0.48767 0.94443 0.0
C1558 C 0.81651 0.44184 0.96698 0.0
C1559 C 0.79415 0.40554 0.9607 0.0
C1560 C 0.8689 0.45858 0.95122 0.0
C1561 C 0.8113 0.39555 0.95046 0.0
C1562 C 0.92131 0.47581 0.93427 0.0
C1563 C 0.95461 0.55444 0.94072 0.0
N1564 N 0.84747 0.42205 0.94596 0.0
N1565 N 0.92246 0.52658 0.94731 0.0
H1566 H 0.48955 0.45495 0.9196 0.0
H1567 H 0.57123 0.37139 0.97576 0.0
H1568 H 0.41636 0.36902 0.94876 0.0
H1569 H 0.63952 0.43974 0.94234 0.0
H1570 H 0.51693 0.37958 0.96822 0.0
H1571 H 0.54679 0.45624 0.92933 0.0
C1572 C 0.48543 0.43602 0.92794 0.0
C1573 C 0.448 0.41158 0.93328 0.0
C1574 C 0.54407 0.39335 0.96267 0.0
C1575 C 0.51356 0.41364 0.94469 0.0
C1576 C 0.5753 0.38922 0.9671 0.0
C1577 C 0.60985 0.40476 0.95963 0.0
C1578 C 0.54762 0.4133 0.95074 0.0
C1579 C 0.61326 0.42707 0.94835 0.0
C1580 C 0.51817 0.43701 0.93357 0.0
C1581 C 0.44457 0.38805 0.94422 0.0
N1582 N 0.58243 0.43032 0.94418 0.0
N1583 N 0.47688 0.38975 0.94958 0.0
H1584 H 0.64008 0.82202 0.76488 0.0
H1585 H 0.45063 0.65721 0.80182 0.0
H1586 H 0.62422 0.70874 0.775 0.0
H1587 H 0.47368 0.77421 0.79439 0.0
H1588 H 0.51808 0.67795 0.79533 0.0
H1589 H 0.58256 0.80693 0.77793 0.0
C1590 C 0.62442 0.79383 0.76981 0.0
C1591 C 0.63682 0.7664 0.76868 0.0
C1592 C 0.50883 0.69944 0.7955 0.0
C1593 C 0.57063 0.74897 0.78382 0.0
C1594 C 0.47057 0.68773 0.7994 0.0
C1595 C 0.45706 0.71428 0.79877 0.0
C1596 C 0.53325 0.73775 0.79072 0.0
C1597 C 0.48338 0.75313 0.79516 0.0
C1598 C 0.59165 0.78536 0.77738 0.0
C1599 C 0.61553 0.73062 0.77548 0.0
N1600 N 0.52007 0.76358 0.79107 0.0
N1601 N 0.58326 0.72279 0.78267 0.0
H1602 H 0.26114 0.88609 0.74766 0.0
H1603 H 0.31096 0.77469 0.80362 0.0
H1604 H 0.31726 0.94045 0.78448 0.0
H1605 H 0.29812 0.74215 0.76243 0.0
H1606 H 0.3026 0.83028 0.79777 0.0
H1607 H 0.26538 0.82829 0.75375 0.0
C1608 C 0.27459 0.88599 0.75697 0.0
C1609 C 0.28913 0.91828 0.76552 0.0
C1610 C 0.30139 0.81077 0.79004 0.0
C1611 C 0.29321 0.85195 0.77269 0.0
C1612 C 0.30579 0.77885 0.79339 0.0
C1613 C 0.3054 0.75383 0.78349 0.0
C1614 C 0.29596 0.81731 0.77674 0.0
C1615 C 0.2989 0.76086 0.77037 0.0
C1616 C 0.27689 0.85298 0.76046 0.0
C1617 C 0.306 0.91639 0.77752 0.0
N1618 N 0.29443 0.79188 0.76738 0.0
N1619 N 0.30734 0.88372 0.78079 0.0
H1620 H 0.065 0.38289 0.78296 0.0
H1621 H 0.28096 0.55225 0.76398 0.0
H1622 H 0.1289 0.37433 0.74979 0.0
H1623 H 0.2275 0.54485 0.8019 0.0
H1624 H 0.22496 0.48851 0.75811 0.0
H1625 H 0.12293 0.44461 0.78925 0.0
C1626 C 0.09112 0.39416 0.77692 0.0
C1627 C 0.09207 0.37343 0.76581 0.0
C1628 C 0.22567 0.50065 0.76776 0.0
C1629 C 0.15867 0.44401 0.77304 0.0
C1630 C 0.25767 0.53702 0.77114 0.0
C1631 C 0.25896 0.55399 0.78346 0.0
C1632 C 0.1944 0.4813 0.77668 0.0
C1633 C 0.22793 0.53286 0.79234 0.0
C1634 C 0.12429 0.42926 0.78059 0.0
C1635 C 0.12684 0.38937 0.75842 0.0
N1636 N 0.19674 0.49781 0.78872 0.0
N1637 N 0.15875 0.42376 0.76215 0.0
H1638 H 0.36323 0.95787 0.05837 0.0
H1639 H 0.43788 0.80915 0.07145 0.0
H1640 H 0.44555 0.97528 0.08931 0.0
H1641 H 0.37508 0.80731 0.03637 0.0
H1642 H 0.44675 0.87317 0.07712 0.0
H1643 H 0.37027 0.90444 0.04966 0.0
C1644 C 0.38265 0.95029 0.0634 0.0
C1645 C 0.40352 0.9708 0.07469 0.0
C1646 C 0.43184 0.85922 0.06802 0.0
C1647 C 0.41204 0.90971 0.06464 0.0
C1648 C 0.427 0.8228 0.06473 0.0
C1649 C 0.40548 0.80279 0.05346 0.0
C1650 C 0.41446 0.87538 0.06009 0.0
C1651 C 0.39204 0.82174 0.04509 0.0
C1652 C 0.38697 0.91999 0.05832 0.0
C1653 C 0.42864 0.95999 0.08066 0.0
N1654 N 0.39606 0.85666 0.04872 0.0
N1655 N 0.43199 0.92994 0.07561 0.0
H1656 H 0.05128 0.53038 0.09732 0.0
H1657 H 0.21331 0.58289 0.04116 0.0
H1658 H 0.05375 0.44364 0.0721 0.0
H1659 H 0.22452 0.66125 0.07268 0.0
H1660 H 0.14778 0.53505 0.0494 0.0
H1661 H 0.10902 0.58144 0.08589 0.0
C1662 C 0.06403 0.52201 0.08942 0.0
C1663 C 0.04781 0.48256 0.08577 0.0
C1664 C 0.16437 0.56302 0.05436 0.0
C1665 C 0.1137 0.5411 0.07248 0.0
C1666 C 0.20149 0.59052 0.04955 0.0
C1667 C 0.22435 0.62592 0.05631 0.0
C1668 C 0.15013 0.57129 0.06592 0.0
C1669 C 0.2079 0.63413 0.06725 0.0
C1670 C 0.09692 0.55123 0.08285 0.0
C1671 C 0.06551 0.4736 0.07536 0.0
N1672 N 0.17197 0.60689 0.07178 0.0
N1673 N 0.09751 0.50264 0.06908 0.0
H1674 H 0.47701 0.52351 0.09727 0.0
H1675 H 0.43721 0.64173 0.04104 0.0
H1676 H 0.56761 0.61178 0.07242 0.0
H1677 H 0.3582 0.58123 0.07339 0.0
H1678 H 0.48 0.61783 0.04897 0.0
H1679 H 0.42862 0.5332 0.08554 0.0
C1680 C 0.48675 0.54497 0.08937 0.0
C1681 C 0.5265 0.56725 0.08595 0.0
C1682 C 0.4529 0.60922 0.05417 0.0
C1683 C 0.47119 0.57795 0.07234 0.0
C1684 C 0.42829 0.6224 0.04954 0.0
C1685 C 0.39442 0.6136 0.05665 0.0
C1686 C 0.44316 0.58692 0.06587 0.0
C1687 C 0.38435 0.58893 0.06772 0.0
C1688 C 0.4591 0.55034 0.08264 0.0
C1689 C 0.53736 0.59435 0.07552 0.0
N1690 N 0.40881 0.57674 0.07207 0.0
N1691 N 0.50986 0.599 0.0691 0.0
H1692 H 0.05181 0.65302 0.56008 0.0
H1693 H 0.19883 0.57504 0.57352 0.0
H1694 H 0.03461 0.5702 0.59092 0.0
H1695 H 0.20743 0.64453 0.53941 0.0
H1696 H 0.13579 0.56852 0.57897 0.0
H1697 H 0.10765 0.64877 0.55195 0.0
C1698 C 0.06 0.63422 0.56523 0.0
C1699 C 0.03865 0.61217 0.57628 0.0
C1700 C 0.151 0.58459 0.57014 0.0
C1701 C 0.10227 0.60669 0.56687 0.0
C1702 C 0.18684 0.58799 0.56696 0.0
C1703 C 0.20841 0.61046 0.55602 0.0
C1704 C 0.13686 0.60436 0.56246 0.0
C1705 C 0.19163 0.62674 0.54788 0.0
C1706 C 0.09166 0.6315 0.56049 0.0
C1707 C 0.05037 0.58796 0.58245 0.0
N1708 N 0.15714 0.62401 0.55141 0.0
N1709 N 0.08142 0.58596 0.57767 0.0
H1710 H 0.44123 0.47936 0.59648 0.0
H1711 H 0.36274 0.56954 0.54174 0.0
H1712 H 0.3639 0.41229 0.56458 0.0
H1713 H 0.41069 0.62502 0.57923 0.0
H1714 H 0.3757 0.51707 0.54771 0.0
H1715 H 0.44043 0.53746 0.58846 0.0
C1716 C 0.4239 0.47679 0.58785 0.0
C1717 C 0.40227 0.44084 0.58128 0.0
C1718 C 0.38396 0.5411 0.55453 0.0
C1719 C 0.40197 0.50727 0.57188 0.0
C1720 C 0.37711 0.57133 0.55104 0.0
C1721 C 0.38553 0.60151 0.56003 0.0
C1722 C 0.39953 0.54136 0.56705 0.0
C1723 C 0.4035 0.60205 0.57206 0.0
C1724 C 0.42364 0.50998 0.58324 0.0
C1725 C 0.38066 0.4393 0.57005 0.0
N1726 N 0.4096 0.57223 0.57527 0.0
N1727 N 0.38113 0.47204 0.5657 0.0
H1728 H 0.48185 0.96032 0.60148 0.0
H1729 H 0.43072 0.79765 0.54576 0.0
H1730 H 0.56855 0.96342 0.57481 0.0
H1731 H 0.35613 0.78275 0.57901 0.0
H1732 H 0.47775 0.86395 0.55366 0.0
H1733 H 0.43237 0.89966 0.59114 0.0
C1734 C 0.49058 0.94814 0.59349 0.0
C1735 C 0.52955 0.96689 0.58909 0.0
C1736 C 0.45079 0.8463 0.55909 0.0
C1737 C 0.47268 0.89752 0.57704 0.0
C1738 C 0.42375 0.80874 0.55449 0.0
C1739 C 0.38961 0.78477 0.56177 0.0
C1740 C 0.44326 0.85985 0.57096 0.0
C1741 C 0.38226 0.80026 0.57315 0.0
C1742 C 0.46223 0.91354 0.58755 0.0
C1743 C 0.53896 0.94976 0.57862 0.0
N1744 N 0.40893 0.83667 0.57743 0.0
N1745 N 0.5107 0.91605 0.57293 0.0
H1746 H 0.32392 0.41528 0.25672 0.0
H1747 H 0.26478 0.54587 0.30034 0.0
H1748 H 0.20471 0.38718 0.26324 0.0
H1749 H 0.3745 0.59572 0.27922 0.0
H1750 H 0.24646 0.4815 0.29122 0.0
H1751 H 0.34676 0.47669 0.26908 0.0
C1752 C 0.30264 0.42197 0.26077 0.0
C1753 C 0.26244 0.39645 0.25881 0.0
C1754 C 0.27469 0.50654 0.2887 0.0
C1755 C 0.28813 0.46558 0.27311 0.0
C1756 C 0.28524 0.54317 0.29396 0.0
C1757 C 0.321 0.57617 0.29041 0.0
C1758 C 0.30032 0.50291 0.27998 0.0
C1759 C 0.34639 0.57103 0.28205 0.0
C1760 C 0.31564 0.45686 0.26779 0.0
C1761 C 0.23602 0.40632 0.26432 0.0
N1762 N 0.33552 0.53507 0.27707 0.0
N1763 N 0.24932 0.44002 0.27125 0.0
H1764 H 0.62887 0.82815 0.27089 0.0
H1765 H 0.44845 0.82231 0.30417 0.0
H1766 H 0.62032 0.93213 0.27544 0.0
H1767 H 0.47622 0.73112 0.30968 0.0
H1768 H 0.51547 0.86672 0.29684 0.0
H1769 H 0.57623 0.79442 0.2869 0.0
C1770 C 0.61575 0.84387 0.2752 0.0
C1771 C 0.62851 0.88284 0.27162 0.0
C1772 C 0.50745 0.83745 0.30005 0.0
C1773 C 0.56845 0.84439 0.29015 0.0
C1774 C 0.46934 0.81228 0.30437 0.0
C1775 C 0.4571 0.77317 0.30739 0.0
C1776 C 0.53288 0.82281 0.2984 0.0
C1777 C 0.48481 0.7612 0.30741 0.0
C1778 C 0.58606 0.82472 0.28451 0.0
C1779 C 0.61101 0.90192 0.27777 0.0
N1780 N 0.5213 0.78567 0.30256 0.0
N1781 N 0.58148 0.88233 0.28662 0.0
H1782 H 0.13432 0.74992 0.24851 0.0
H1783 H 0.22711 0.69633 0.30985 0.0
H1784 H 0.06899 0.69495 0.28408 0.0
H1785 H 0.27922 0.72884 0.271 0.0
H1786 H 0.17154 0.70206 0.30174 0.0
H1787 H 0.18992 0.74716 0.25753 0.0
C1788 C 0.13154 0.73692 0.25818 0.0
C1789 C 0.09689 0.72246 0.26551 0.0
C1790 C 0.19533 0.70812 0.29505 0.0
C1791 C 0.1608 0.71977 0.27605 0.0
C1792 C 0.22713 0.70521 0.2997 0.0
C1793 C 0.25762 0.71185 0.29105 0.0
C1794 C 0.19449 0.71813 0.28174 0.0
C1795 C 0.25615 0.72306 0.27799 0.0
C1796 C 0.16338 0.73549 0.26337 0.0
C1797 C 0.09508 0.70616 0.27804 0.0
N1798 N 0.22516 0.72573 0.27374 0.0
N1799 N 0.12668 0.7054 0.28296 0.0
loop_
_geom_bond_atom_site_label_1
_geom_bond_atom_site_label_2
_geom_bond_distance
_geom_bond_site_symmetry_2
_ccdc_geom_bond_type
C0 O1 1.306 . S
C0 O3 1.160 . S
O1 C0 1.306 . S
O1 Cd2 2.228 . S
Cd2 O1 2.228 . S
Cd2 O6 2.273 . S
Cd2 O10 2.277 . S
O3 C0 1.160 . S
O3 Cd4 2.203 1_565 S
Cd4 O3 2.203 1_545 S
Cd4 O6 2.411 1_545 S
Cd4 O7 2.333 . S
Cd4 O8 2.352 . S
Cd4 O12 2.277 . S
Cd4 O13 2.356 . S
C5 O10 1.209 1_545 S
C5 O12 1.226 . S
O6 Cd2 2.273 . S
O6 Cd4 2.411 1_565 S
O6 C9 1.320 1_565 S
O7 Cd4 2.333 . S
O7 C9 1.214 . S
O8 Cd4 2.352 . S
O8 C11 1.258 . S
C9 O6 1.320 1_545 S
C9 O7 1.214 . S
O10 Cd2 2.277 . S
O10 C5 1.209 1_565 S
C11 O8 1.258 . S
C11 O13 1.282 . S
O12 Cd4 2.277 . S
O12 C5 1.226 . S
O13 Cd4 2.356 . S
O13 C11 1.282 . S
C14 O15 1.306 . S
C14 O17 1.160 . S
O15 C14 1.306 . S
O15 Cd16 2.228 . S
Cd16 O15 2.228 . S
Cd16 O20 2.273 . S
Cd16 O24 2.277 . S
O17 C14 1.160 . S
O17 Cd18 2.203 1_655 S
Cd18 O17 2.203 1_455 S
Cd18 O20 2.411 1_455 S
Cd18 O21 2.333 . S
Cd18 O22 2.352 . S
Cd18 O26 2.277 . S
Cd18 O27 2.356 . S
C19 O24 1.209 1_455 S
C19 O26 1.226 . S
O20 Cd16 2.273 . S
O20 Cd18 2.411 1_655 S
O20 C23 1.320 1_655 S
O21 Cd18 2.333 . S
O21 C23 1.214 . S
O22 Cd18 2.352 . S
O22 C25 1.258 . S
C23 O20 1.320 1_455 S
C23 O21 1.214 . S
O24 Cd16 2.277 . S
O24 C19 1.209 1_655 S
C25 O22 1.258 . S
C25 O27 1.282 . S
O26 Cd18 2.277 . S
O26 C19 1.226 . S
O27 Cd18 2.356 . S
O27 C25 1.282 . S
C28 O29 1.306 . S
C28 O31 1.160 . S
O29 C28 1.306 . S
O29 Cd30 2.228 . S
Cd30 O29 2.228 . S
Cd30 O34 2.273 . S
Cd30 O38 2.277 . S
O31 C28 1.160 . S
O31 Cd32 2.203 . S
Cd32 O31 2.203 . S
Cd32 O34 2.411 . S
Cd32 O35 2.333 . S
Cd32 O36 2.352 . S
Cd32 O40 2.277 . S
Cd32 O41 2.356 . S
C33 O38 1.209 . S
C33 O40 1.226 . S
O34 Cd30 2.273 . S
O34 Cd32 2.411 . S
O34 C37 1.320 . S
O35 Cd32 2.333 . S
O35 C37 1.214 . S
O36 Cd32 2.352 . S
O36 C39 1.258 . S
C37 O34 1.320 . S
C37 O35 1.214 . S
O38 Cd30 2.277 . S
O38 C33 1.209 . S
C39 O36 1.258 . S
C39 O41 1.282 . S
O40 Cd32 2.277 . S
O40 C33 1.226 . S
O41 Cd32 2.356 . S
O41 C39 1.282 . S
C42 O43 1.306 . S
C42 O45 1.160 . S
O43 C42 1.306 . S
O43 Cd44 2.228 . S
Cd44 O43 2.228 . S
Cd44 O48 2.273 . S
Cd44 O52 2.277 . S
O45 C42 1.160 . S
O45 Cd46 2.203 . S
Cd46 O45 2.203 . S
Cd46 O48 2.411 . S
Cd46 O49 2.333 1_545 S
Cd46 O50 2.352 1_545 S
Cd46 O54 2.277 1_545 S
Cd46 O55 2.356 1_545 S
C47 O52 1.209 . S
C47 O54 1.226 1_545 S
O48 Cd44 2.273 . S
O48 Cd46 2.411 . S
O48 C51 1.320 . S
O49 Cd46 2.333 1_565 S
O49 C51 1.214 1_565 S
O50 Cd46 2.352 1_565 S
O50 C53 1.258 . S
C51 O48 1.320 . S
C51 O49 1.214 1_545 S
O52 Cd44 2.277 . S
O52 C47 1.209 . S
C53 O50 1.258 . S
C53 O55 1.282 . S
O54 Cd46 2.277 1_565 S
O54 C47 1.226 1_565 S
O55 Cd46 2.356 1_565 S
O55 C53 1.282 . S
C56 O57 1.306 . S
C56 O59 1.160 . S
O57 C56 1.306 . S
O57 Cd58 2.228 . S
Cd58 O57 2.228 . S
Cd58 O62 2.273 . S
Cd58 O66 2.277 . S
O59 C56 1.160 . S
O59 Cd60 2.203 1_655 S
Cd60 O59 2.203 1_455 S
Cd60 O62 2.411 1_455 S
Cd60 O63 2.333 . S
Cd60 O64 2.352 . S
Cd60 O68 2.277 . S
Cd60 O69 2.356 . S
C61 O66 1.209 1_455 S
C61 O68 1.226 . S
O62 Cd58 2.273 . S
O62 Cd60 2.411 1_655 S
O62 C65 1.320 1_655 S
O63 Cd60 2.333 . S
O63 C65 1.214 . S
O64 Cd60 2.352 . S
O64 C67 1.258 . S
C65 O62 1.320 1_455 S
C65 O63 1.214 . S
O66 Cd58 2.277 . S
O66 C61 1.209 1_655 S
C67 O64 1.258 . S
C67 O69 1.282 . S
O68 Cd60 2.277 . S
O68 C61 1.226 . S
O69 Cd60 2.356 . S
O69 C67 1.282 . S
C70 O71 1.306 . S
C70 O73 1.160 . S
O71 C70 1.306 . S
O71 Cd72 2.228 . S
Cd72 O71 2.228 . S
Cd72 O76 2.273 . S
Cd72 O80 2.277 . S
O73 C70 1.160 . S
O73 Cd74 2.203 . S
Cd74 O73 2.203 . S
Cd74 O76 2.411 . S
Cd74 O77 2.333 . S
Cd74 O78 2.352 . S
Cd74 O82 2.277 . S
Cd74 O83 2.356 . S
C75 O80 1.209 . S
C75 O82 1.226 . S
O76 Cd72 2.273 . S
O76 Cd74 2.411 . S
O76 C79 1.320 . S
O77 Cd74 2.333 . S
O77 C79 1.214 . S
O78 Cd74 2.352 . S
O78 C81 1.258 . S
C79 O76 1.320 . S
C79 O77 1.214 . S
O80 Cd72 2.277 . S
O80 C75 1.209 . S
C81 O78 1.258 . S
C81 O83 1.282 . S
O82 Cd74 2.277 . S
O82 C75 1.226 . S
O83 Cd74 2.356 . S
O83 C81 1.282 . S
C84 O85 1.306 . S
C84 O87 1.160 . S
O85 C84 1.306 . S
O85 Cd86 2.228 . S
Cd86 O85 2.228 . S
Cd86 O90 2.273 . S
Cd86 O94 2.277 . S
O87 C84 1.160 . S
O87 Cd88 2.203 . S
Cd88 O87 2.203 . S
Cd88 O90 2.411 . S
Cd88 O91 2.333 . S
Cd88 O92 2.352 . S
Cd88 O96 2.277 . S
Cd88 O97 2.356 . S
C89 O94 1.209 . S
C89 O96 1.226 . S
O90 Cd86 2.273 . S
O90 Cd88 2.411 . S
O90 C93 1.320 . S
O91 Cd88 2.333 . S
O91 C93 1.214 . S
O92 Cd88 2.352 . S
O92 C95 1.258 . S
C93 O90 1.320 . S
C93 O91 1.214 . S
O94 Cd86 2.277 . S
O94 C89 1.209 . S
C95 O92 1.258 . S
C95 O97 1.282 . S
O96 Cd88 2.277 . S
O96 C89 1.226 . S
O97 Cd88 2.356 . S
O97 C95 1.282 . S
C98 O99 1.306 . S
C98 O101 1.160 . S
O99 C98 1.306 . S
O99 Cd100 2.228 . S
Cd100 O99 2.228 . S
Cd100 O104 2.273 . S
Cd100 O108 2.277 . S
O101 C98 1.160 . S
O101 Cd102 2.203 . S
Cd102 O101 2.203 . S
Cd102 O104 2.411 . S
Cd102 O105 2.333 . S
Cd102 O106 2.352 . S
Cd102 O110 2.277 . S
Cd102 O111 2.356 . S
C103 O108 1.209 . S
C103 O110 1.226 . S
O104 Cd100 2.273 . S
O104 Cd102 2.411 . S
O104 C107 1.320 . S
O105 Cd102 2.333 . S
O105 C107 1.214 . S
O106 Cd102 2.352 . S
O106 C109 1.258 . S
C107 O104 1.320 . S
C107 O105 1.214 . S
O108 Cd100 2.277 . S
O108 C103 1.209 . S
C109 O106 1.258 . S
C109 O111 1.282 . S
O110 Cd102 2.277 . S
O110 C103 1.226 . S
O111 Cd102 2.356 . S
O111 C109 1.282 . S
C112 O113 1.306 . S
C112 O115 1.160 . S
O113 C112 1.306 . S
O113 Cd114 2.228 . S
Cd114 O113 2.228 . S
Cd114 O118 2.273 . S
Cd114 O122 2.277 . S
O115 C112 1.160 . S
O115 Cd116 2.203 . S
Cd116 O115 2.203 . S
Cd116 O118 2.411 . S
Cd116 O119 2.333 . S
Cd116 O120 2.352 1_655 S
Cd116 O124 2.277 . S
Cd116 O125 2.356 1_655 S
C117 O122 1.209 . S
C117 O124 1.226 . S
O118 Cd114 2.273 . S
O118 Cd116 2.411 . S
O118 C121 1.320 . S
O119 Cd116 2.333 . S
O119 C121 1.214 . S
O120 Cd116 2.352 1_455 S
O120 C123 1.258 . S
C121 O118 1.320 . S
C121 O119 1.214 . S
O122 Cd114 2.277 . S
O122 C117 1.209 . S
C123 O120 1.258 . S
C123 O125 1.282 . S
O124 Cd116 2.277 . S
O124 C117 1.226 . S
O125 Cd116 2.356 1_455 S
O125 C123 1.282 . S
C126 O127 1.306 . S
C126 O129 1.160 . S
O127 C126 1.306 . S
O127 Cd128 2.228 1_455 S
Cd128 O127 2.228 1_655 S
Cd128 O132 2.273 . S
Cd128 O136 2.277 . S
O129 C126 1.160 . S
O129 Cd130 2.203 1_455 S
Cd130 O129 2.203 1_655 S
Cd130 O132 2.411 . S
Cd130 O133 2.333 . S
Cd130 O134 2.352 . S
Cd130 O138 2.277 . S
Cd130 O139 2.356 . S
C131 O136 1.209 . S
C131 O138 1.226 . S
O132 Cd128 2.273 . S
O132 Cd130 2.411 . S
O132 C135 1.320 . S
O133 Cd130 2.333 . S
O133 C135 1.214 . S
O134 Cd130 2.352 . S
O134 C137 1.258 . S
C135 O132 1.320 . S
C135 O133 1.214 . S
O136 Cd128 2.277 . S
O136 C131 1.209 . S
C137 O134 1.258 . S
C137 O139 1.282 . S
O138 Cd130 2.277 . S
O138 C131 1.226 . S
O139 Cd130 2.356 . S
O139 C137 1.282 . S
C140 O141 1.306 . S
C140 O143 1.160 . S
O141 C140 1.306 . S
O141 Cd142 2.228 . S
Cd142 O141 2.228 . S
Cd142 O146 2.273 . S
Cd142 O150 2.277 . S
O143 C140 1.160 . S
O143 Cd144 2.203 . S
Cd144 O143 2.203 . S
Cd144 O146 2.411 . S
Cd144 O147 2.333 . S
Cd144 O148 2.352 . S
Cd144 O152 2.277 . S
Cd144 O153 2.356 . S
C145 O150 1.209 . S
C145 O152 1.226 . S
O146 Cd142 2.273 . S
O146 Cd144 2.411 . S
O146 C149 1.320 . S
O147 Cd144 2.333 . S
O147 C149 1.214 . S
O148 Cd144 2.352 . S
O148 C151 1.258 . S
C149 O146 1.320 . S
C149 O147 1.214 . S
O150 Cd142 2.277 . S
O150 C145 1.209 . S
C151 O148 1.258 . S
C151 O153 1.282 . S
O152 Cd144 2.277 . S
O152 C145 1.226 . S
O153 Cd144 2.356 . S
O153 C151 1.282 . S
C154 O155 1.306 . S
C154 O157 1.160 . S
O155 C154 1.306 . S
O155 Cd156 2.228 . S
Cd156 O155 2.228 . S
Cd156 O160 2.273 . S
Cd156 O164 2.277 . S
O157 C154 1.160 . S
O157 Cd158 2.203 . S
Cd158 O157 2.203 . S
Cd158 O160 2.411 . S
Cd158 O161 2.333 . S
Cd158 O162 2.352 . S
Cd158 O166 2.277 . S
Cd158 O167 2.356 . S
C159 O164 1.209 . S
C159 O166 1.226 . S
O160 Cd156 2.273 . S
O160 Cd158 2.411 . S
O160 C163 1.320 . S
O161 Cd158 2.333 . S
O161 C163 1.214 . S
O162 Cd158 2.352 . S
O162 C165 1.258 1_545 S
C163 O160 1.320 . S
C163 O161 1.214 . S
O164 Cd156 2.277 . S
O164 C159 1.209 . S
C165 O162 1.258 1_565 S
C165 O167 1.282 1_565 S
O166 Cd158 2.277 . S
O166 C159 1.226 . S
O167 Cd158 2.356 . S
O167 C165 1.282 1_545 S
C168 O169 1.294 1_655 S
C168 O171 1.160 1_655 S
O169 C168 1.294 1_455 S
O169 Cd170 2.228 . S
Cd170 O169 2.228 . S
Cd170 O174 2.273 . S
Cd170 O178 2.277 . S
O171 C168 1.160 1_455 S
O171 Cd172 2.203 . S
Cd172 O171 2.203 . S
Cd172 O174 2.411 . S
Cd172 O175 2.333 . S
Cd172 O176 2.352 . S
Cd172 O180 2.277 . S
Cd172 O181 2.356 . S
C173 O178 1.209 . S
C173 O180 1.226 . S
O174 Cd170 2.273 . S
O174 Cd172 2.411 . S
O174 C177 1.320 . S
O175 Cd172 2.333 . S
O175 C177 1.214 . S
O176 Cd172 2.352 . S
O176 C179 1.258 . S
C177 O174 1.320 . S
C177 O175 1.214 . S
O178 Cd170 2.277 . S
O178 C173 1.209 . S
C179 O176 1.258 . S
C179 O181 1.282 . S
O180 Cd172 2.277 . S
O180 C173 1.226 . S
O181 Cd172 2.356 . S
O181 C179 1.282 . S
C182 O183 1.306 . S
C182 O185 1.160 . S
O183 C182 1.306 . S
O183 Cd184 2.228 . S
Cd184 O183 2.228 . S
Cd184 O188 2.273 . S
Cd184 O192 2.277 . S
O185 C182 1.160 . S
O185 Cd186 2.203 . S
Cd186 O185 2.203 . S
Cd186 O188 2.411 . S
Cd186 O189 2.333 . S
Cd186 O190 2.352 . S
Cd186 O194 2.277 . S
Cd186 O195 2.356 . S
C187 O192 1.209 . S
C187 O194 1.226 . S
O188 Cd184 2.273 . S
O188 Cd186 2.411 . S
O188 C191 1.320 . S
O189 Cd186 2.333 . S
O189 C191 1.214 . S
O190 Cd186 2.352 . S
O190 C193 1.258 . S
C191 O188 1.320 . S
C191 O189 1.214 . S
O192 Cd184 2.277 . S
O192 C187 1.209 . S
C193 O190 1.258 . S
C193 O195 1.282 . S
O194 Cd186 2.277 . S
O194 C187 1.226 . S
O195 Cd186 2.356 . S
O195 C193 1.282 . S
C196 O197 1.306 . S
C196 O199 1.160 . S
O197 C196 1.306 . S
O197 Cd198 2.228 1_545 S
Cd198 O197 2.228 1_565 S
Cd198 O202 2.273 . S
Cd198 O206 2.277 . S
O199 C196 1.160 . S
O199 Cd200 2.203 1_545 S
Cd200 O199 2.203 1_565 S
Cd200 O202 2.411 . S
Cd200 O203 2.333 . S
Cd200 O204 2.352 1_565 S
Cd200 O208 2.277 . S
Cd200 O209 2.356 . S
C201 O206 1.209 . S
C201 O208 1.226 . S
O202 Cd198 2.273 . S
O202 Cd200 2.411 . S
O202 C205 1.320 . S
O203 Cd200 2.333 . S
O203 C205 1.214 . S
O204 Cd200 2.352 1_545 S
O204 C207 1.258 1_545 S
C205 O202 1.320 . S
C205 O203 1.214 . S
O206 Cd198 2.277 . S
O206 C201 1.209 . S
C207 O204 1.258 1_565 S
C207 O209 1.282 . S
O208 Cd200 2.277 . S
O208 C201 1.226 . S
O209 Cd200 2.356 . S
O209 C207 1.282 . S
C210 O211 1.306 . S
C210 O213 1.160 . S
O211 C210 1.306 . S
O211 Cd212 2.228 . S
Cd212 O211 2.228 . S
Cd212 O216 2.273 . S
Cd212 O220 2.277 . S
O213 C210 1.160 . S
O213 Cd214 2.203 . S
Cd214 O213 2.203 . S
Cd214 O216 2.411 . S
Cd214 O217 2.333 . S
Cd214 O218 2.352 . S
Cd214 O222 2.277 . S
Cd214 O223 2.356 . S
C215 O220 1.209 . S
C215 O222 1.226 . S
O216 Cd212 2.273 . S
O216 Cd214 2.411 . S
O216 C219 1.320 . S
O217 Cd214 2.333 . S
O217 C219 1.214 . S
O218 Cd214 2.352 . S
O218 C221 1.258 . S
C219 O216 1.320 . S
C219 O217 1.214 . S
O220 Cd212 2.277 . S
O220 C215 1.209 . S
C221 O218 1.258 . S
C221 O223 1.282 . S
O222 Cd214 2.277 . S
O222 C215 1.226 . S
O223 Cd214 2.356 . S
O223 C221 1.282 . S
C224 O225 1.306 . S
C224 O227 1.160 . S
O225 C224 1.306 . S
O225 Cd226 2.228 . S
Cd226 O225 2.228 . S
Cd226 O230 2.273 . S
Cd226 O234 2.277 . S
O227 C224 1.160 . S
O227 Cd228 2.203 . S
Cd228 O227 2.203 . S
Cd228 O230 2.411 . S
Cd228 O231 2.333 . S
Cd228 O232 2.352 1_565 S
Cd228 O236 2.277 . S
Cd228 O237 2.356 1_565 S
C229 O234 1.209 . S
C229 O236 1.226 . S
O230 Cd226 2.273 . S
O230 Cd228 2.411 . S
O230 C233 1.320 . S
O231 Cd228 2.333 . S
O231 C233 1.214 . S
O232 Cd228 2.352 1_545 S
O232 C235 1.258 . S
C233 O230 1.320 . S
C233 O231 1.214 . S
O234 Cd226 2.277 . S
O234 C229 1.209 . S
C235 O232 1.258 . S
C235 O237 1.282 . S
O236 Cd228 2.277 . S
O236 C229 1.226 . S
O237 Cd228 2.356 1_545 S
O237 C235 1.282 . S
C238 O239 1.306 1_655 S
C238 O241 1.160 1_655 S
O239 C238 1.306 1_455 S
O239 Cd240 2.228 . S
Cd240 O239 2.228 . S
Cd240 O244 2.273 . S
Cd240 O248 2.277 . S
O241 C238 1.160 1_455 S
O241 Cd242 2.203 . S
Cd242 O241 2.203 . S
Cd242 O244 2.411 . S
Cd242 O245 2.333 . S
Cd242 O246 2.352 . S
Cd242 O250 2.277 . S
Cd242 O251 2.356 . S
C243 O248 1.209 . S
C243 O250 1.226 . S
O244 Cd240 2.273 . S
O244 Cd242 2.411 . S
O244 C247 1.320 . S
O245 Cd242 2.333 . S
O245 C247 1.214 . S
O246 Cd242 2.352 . S
O246 C249 1.258 . S
C247 O244 1.320 . S
C247 O245 1.214 . S
O248 Cd240 2.277 . S
O248 C243 1.209 . S
C249 O246 1.258 . S
C249 O251 1.282 . S
O250 Cd242 2.277 . S
O250 C243 1.226 . S
O251 Cd242 2.356 . S
O251 C249 1.282 . S
Zn252 O258 1.920 1_455 S
Zn252 O264 1.898 1_445 S
Zn252 O267 1.905 . S
Zn253 O261 1.905 1_545 S
Zn253 O262 1.898 . S
Zn253 O270 1.920 1_455 S
Zn254 O257 2.080 . S
Zn254 O260 2.114 1_545 S
Zn254 O263 2.120 . S
Zn254 O265 2.120 1_445 S
Zn254 O266 2.114 . S
Zn254 O269 2.080 1_455 S
C255 O260 1.166 . S
C255 O261 1.182 . S
C256 O262 1.167 . S
C256 O263 1.299 . S
O257 Zn254 2.080 . S
O257 C271 1.300 1_455 S
O258 Zn252 1.920 1_655 S
O258 C271 1.234 . S
C259 O264 1.167 . S
C259 O265 1.299 . S
O260 Zn254 2.114 1_565 S
O260 C255 1.166 . S
O261 Zn253 1.905 1_565 S
O261 C255 1.182 . S
O262 Zn253 1.898 . S
O262 C256 1.167 . S
O263 Zn254 2.120 . S
O263 C256 1.299 . S
O264 Zn252 1.898 1_665 S
O264 C259 1.167 . S
O265 Zn254 2.120 1_665 S
O265 C259 1.299 . S
O266 Zn254 2.114 . S
O266 C268 1.166 . S
O267 Zn252 1.905 . S
O267 C268 1.182 . S
C268 O266 1.166 . S
C268 O267 1.182 . S
O269 Zn254 2.080 1_655 S
O269 C272 1.305 . S
O270 Zn253 1.920 1_655 S
O270 C272 1.234 . S
C271 O257 1.300 1_655 S
C271 O258 1.234 . S
C272 O269 1.305 . S
C272 O270 1.234 . S
Zn273 O279 1.920 1_545 S
Zn273 O285 1.898 . S
Zn273 O288 1.905 1_445 S
Zn274 O282 1.905 . S
Zn274 O283 1.898 1_445 S
Zn274 O291 1.920 1_545 S
Zn275 O278 2.080 1_545 S
Zn275 O281 2.114 . S
Zn275 O284 2.120 1_445 S
Zn275 O286 2.120 . S
Zn275 O287 2.114 1_455 S
Zn275 O290 2.080 . S
C276 O281 1.166 . S
C276 O282 1.182 . S
C277 O283 1.167 . S
C277 O284 1.299 . S
O278 Zn275 2.080 1_565 S
O278 C292 1.305 . S
O279 Zn273 1.920 1_565 S
O279 C292 1.234 . S
C280 O285 1.167 . S
C280 O286 1.299 . S
O281 Zn275 2.114 . S
O281 C276 1.166 . S
O282 Zn274 1.905 . S
O282 C276 1.182 . S
O283 Zn274 1.898 1_665 S
O283 C277 1.167 . S
O284 Zn275 2.120 1_665 S
O284 C277 1.299 . S
O285 Zn273 1.898 . S
O285 C280 1.167 . S
O286 Zn275 2.120 . S
O286 C280 1.299 . S
O287 Zn275 2.114 1_655 S
O287 C289 1.166 . S
O288 Zn273 1.905 1_665 S
O288 C289 1.182 1_565 S
C289 O287 1.166 . S
C289 O288 1.182 1_545 S
O290 Zn275 2.080 . S
O290 C293 1.305 1_545 S
O291 Zn274 1.920 1_565 S
O291 C293 1.234 . S
C292 O278 1.305 . S
C292 O279 1.234 . S
C293 O290 1.305 1_565 S
C293 O291 1.234 . S
Zn294 O300 1.920 1_545 S
Zn294 O306 1.898 . S
Zn294 O309 1.905 1_455 S
Zn295 O303 1.905 . S
Zn295 O304 1.898 1_445 S
Zn295 O312 1.920 . S
Zn296 O299 2.080 1_545 S
Zn296 O302 2.114 . S
Zn296 O305 2.120 1_445 S
Zn296 O307 2.120 . S
Zn296 O308 2.114 1_455 S
Zn296 O311 2.080 . S
C297 O302 1.166 . S
C297 O303 1.182 . S
C298 O304 1.167 . S
C298 O305 1.299 . S
O299 Zn296 2.080 1_565 S
O299 C313 1.305 . S
O300 Zn294 1.920 1_565 S
O300 C313 1.234 . S
C301 O306 1.167 . S
C301 O307 1.299 . S
O302 Zn296 2.114 . S
O302 C297 1.166 . S
O303 Zn295 1.905 . S
O303 C297 1.182 . S
O304 Zn295 1.898 1_665 S
O304 C298 1.167 . S
O305 Zn296 2.120 1_665 S
O305 C298 1.299 . S
O306 Zn294 1.898 . S
O306 C301 1.167 . S
O307 Zn296 2.120 . S
O307 C301 1.299 . S
O308 Zn296 2.114 1_655 S
O308 C310 1.166 . S
O309 Zn294 1.905 1_655 S
O309 C310 1.183 . S
C310 O308 1.166 . S
C310 O309 1.183 . S
O311 Zn296 2.080 . S
O311 C314 1.305 . S
O312 Zn295 1.920 . S
O312 C314 1.234 . S
C313 O299 1.305 . S
C313 O300 1.234 . S
C314 O311 1.305 . S
C314 O312 1.234 . S
Zn315 O321 1.920 1_455 S
Zn315 O327 1.898 1_445 S
Zn315 O330 1.905 . S
Zn316 O324 1.905 1_445 S
Zn316 O325 1.898 . S
Zn316 O333 1.920 1_455 S
Zn317 O320 2.080 . S
Zn317 O323 2.114 1_545 S
Zn317 O326 2.120 . S
Zn317 O328 2.120 1_445 S
Zn317 O329 2.114 . S
Zn317 O332 2.080 1_455 S
C318 O323 1.166 1_655 S
C318 O324 1.182 . S
C319 O325 1.167 . S
C319 O326 1.299 . S
O320 Zn317 2.080 . S
O320 C334 1.305 . S
O321 Zn315 1.920 1_655 S
O321 C334 1.234 1_655 S
C322 O327 1.167 . S
C322 O328 1.299 . S
O323 Zn317 2.114 1_565 S
O323 C318 1.166 1_455 S
O324 Zn316 1.905 1_665 S
O324 C318 1.182 . S
O325 Zn316 1.898 . S
O325 C319 1.167 . S
O326 Zn317 2.120 . S
O326 C319 1.299 . S
O327 Zn315 1.898 1_665 S
O327 C322 1.167 . S
O328 Zn317 2.120 1_665 S
O328 C322 1.299 . S
O329 Zn317 2.114 . S
O329 C331 1.166 . S
O330 Zn315 1.905 . S
O330 C331 1.182 . S
C331 O329 1.166 . S
C331 O330 1.182 . S
O332 Zn317 2.080 1_655 S
O332 C335 1.305 . S
O333 Zn316 1.920 1_655 S
O333 C335 1.234 . S
C334 O320 1.305 . S
C334 O321 1.234 1_455 S
C335 O332 1.305 . S
C335 O333 1.234 . S
Zn336 O342 1.920 . S
Zn336 O348 1.898 . S
Zn336 O351 1.905 . S
Zn337 O345 1.905 . S
Zn337 O346 1.898 . S
Zn337 O354 1.920 . S
Zn338 O341 2.080 . S
Zn338 O344 2.114 . S
Zn338 O347 2.120 . S
Zn338 O349 2.120 . S
Zn338 O350 2.114 . S
Zn338 O353 2.080 . S
C339 O344 1.166 . S
C339 O345 1.182 . S
C340 O346 1.167 . S
C340 O347 1.299 . S
O341 Zn338 2.080 . S
O341 C355 1.305 . S
O342 Zn336 1.920 . S
O342 C355 1.234 . S
C343 O348 1.167 . S
C343 O349 1.299 . S
O344 Zn338 2.114 . S
O344 C339 1.166 . S
O345 Zn337 1.905 . S
O345 C339 1.182 . S
O346 Zn337 1.898 . S
O346 C340 1.167 . S
O347 Zn338 2.120 . S
O347 C340 1.299 . S
O348 Zn336 1.898 . S
O348 C343 1.167 . S
O349 Zn338 2.120 . S
O349 C343 1.299 . S
O350 Zn338 2.114 . S
O350 C352 1.166 . S
O351 Zn336 1.905 . S
O351 C352 1.182 . S
C352 O350 1.166 . S
C352 O351 1.182 . S
O353 Zn338 2.080 . S
O353 C356 1.305 . S
O354 Zn337 1.920 . S
O354 C356 1.234 . S
C355 O341 1.305 . S
C355 O342 1.234 . S
C356 O353 1.305 . S
C356 O354 1.234 . S
Zn357 O363 1.920 . S
Zn357 O369 1.898 . S
Zn357 O372 1.905 . S
Zn358 O366 1.905 . S
Zn358 O367 1.898 . S
Zn358 O375 1.920 . S
Zn359 O362 2.080 . S
Zn359 O365 2.114 . S
Zn359 O368 2.120 . S
Zn359 O370 2.120 . S
Zn359 O371 2.114 . S
Zn359 O374 2.080 . S
C360 O365 1.166 . S
C360 O366 1.182 . S
C361 O367 1.167 . S
C361 O368 1.299 . S
O362 Zn359 2.080 . S
O362 C376 1.305 . S
O363 Zn357 1.920 . S
O363 C376 1.234 . S
C364 O369 1.167 . S
C364 O370 1.299 . S
O365 Zn359 2.114 . S
O365 C360 1.166 . S
O366 Zn358 1.905 . S
O366 C360 1.182 . S
O367 Zn358 1.898 . S
O367 C361 1.167 . S
O368 Zn359 2.120 . S
O368 C361 1.299 . S
O369 Zn357 1.898 . S
O369 C364 1.167 . S
O370 Zn359 2.120 . S
O370 C364 1.299 . S
O371 Zn359 2.114 . S
O371 C373 1.166 . S
O372 Zn357 1.905 . S
O372 C373 1.182 . S
C373 O371 1.166 . S
C373 O372 1.182 . S
O374 Zn359 2.080 . S
O374 C377 1.305 . S
O375 Zn358 1.920 . S
O375 C377 1.234 . S
C376 O362 1.305 . S
C376 O363 1.234 . S
C377 O374 1.305 . S
C377 O375 1.234 . S
Zn378 O384 1.920 . S
Zn378 O390 1.898 . S
Zn378 O393 1.905 . S
Zn379 O387 1.905 . S
Zn379 O388 1.898 . S
Zn379 O396 1.920 . S
Zn380 O383 2.080 . S
Zn380 O386 2.114 . S
Zn380 O389 2.120 . S
Zn380 O391 2.120 . S
Zn380 O392 2.114 . S
Zn380 O395 2.080 . S
C381 O386 1.166 . S
C381 O387 1.182 . S
C382 O388 1.167 . S
C382 O389 1.299 . S
O383 Zn380 2.080 . S
O383 C397 1.305 . S
O384 Zn378 1.920 . S
O384 C397 1.234 . S
C385 O390 1.167 . S
C385 O391 1.299 . S
O386 Zn380 2.114 . S
O386 C381 1.166 . S
O387 Zn379 1.905 . S
O387 C381 1.182 . S
O388 Zn379 1.898 . S
O388 C382 1.167 . S
O389 Zn380 2.120 . S
O389 C382 1.299 . S
O390 Zn378 1.898 . S
O390 C385 1.167 . S
O391 Zn380 2.120 . S
O391 C385 1.299 . S
O392 Zn380 2.114 . S
O392 C394 1.166 . S
O393 Zn378 1.905 . S
O393 C394 1.182 . S
C394 O392 1.166 . S
C394 O393 1.182 . S
O395 Zn380 2.080 . S
O395 C398 1.305 . S
O396 Zn379 1.920 . S
O396 C398 1.234 . S
C397 O383 1.305 . S
C397 O384 1.234 . S
C398 O395 1.305 . S
C398 O396 1.234 . S
Zn399 O405 1.920 . S
Zn399 O411 1.898 . S
Zn399 O414 1.905 . S
Zn400 O408 1.905 . S
Zn400 O409 1.898 . S
Zn400 O417 1.920 . S
Zn401 O404 2.080 . S
Zn401 O407 2.114 . S
Zn401 O410 2.120 . S
Zn401 O412 2.120 . S
Zn401 O413 2.114 . S
Zn401 O416 2.080 . S
C402 O407 1.166 . S
C402 O408 1.182 . S
C403 O409 1.167 . S
C403 O410 1.299 . S
O404 Zn401 2.080 . S
O404 C418 1.305 1_556 S
O405 Zn399 1.920 . S
O405 C418 1.234 . S
C406 O411 1.167 . S
C406 O412 1.299 1_554 S
O407 Zn401 2.114 . S
O407 C402 1.166 . S
O408 Zn400 1.905 . S
O408 C402 1.182 . S
O409 Zn400 1.898 . S
O409 C403 1.167 . S
O410 Zn401 2.120 . S
O410 C403 1.299 . S
O411 Zn399 1.898 . S
O411 C406 1.167 . S
O412 Zn401 2.120 . S
O412 C406 1.299 1_556 S
O413 Zn401 2.114 . S
O413 C415 1.166 1_556 S
O414 Zn399 1.905 . S
O414 C415 1.182 . S
C415 O413 1.166 1_554 S
C415 O414 1.182 . S
O416 Zn401 2.080 . S
O416 C419 1.305 . S
O417 Zn400 1.920 . S
O417 C419 1.234 . S
C418 O404 1.305 1_554 S
C418 O405 1.234 . S
C419 O416 1.305 . S
C419 O417 1.234 . S
Zn420 O426 1.920 . S
Zn420 O432 1.898 . S
Zn420 O435 1.905 . S
Zn421 O429 1.905 . S
Zn421 O430 1.898 . S
Zn421 O438 1.920 . S
Zn422 O425 2.080 . S
Zn422 O428 2.114 . S
Zn422 O431 2.120 . S
Zn422 O433 2.120 . S
Zn422 O434 2.114 . S
Zn422 O437 2.080 . S
C423 O428 1.166 . S
C423 O429 1.182 . S
C424 O430 1.167 . S
C424 O431 1.299 . S
O425 Zn422 2.080 . S
O425 C439 1.305 . S
O426 Zn420 1.920 . S
O426 C439 1.234 . S
C427 O432 1.167 . S
C427 O433 1.299 . S
O428 Zn422 2.114 . S
O428 C423 1.166 . S
O429 Zn421 1.905 . S
O429 C423 1.182 . S
O430 Zn421 1.898 . S
O430 C424 1.167 . S
O431 Zn422 2.120 . S
O431 C424 1.299 . S
O432 Zn420 1.898 . S
O432 C427 1.167 . S
O433 Zn422 2.120 . S
O433 C427 1.299 . S
O434 Zn422 2.114 . S
O434 C436 1.166 . S
O435 Zn420 1.905 . S
O435 C436 1.182 . S
C436 O434 1.166 . S
C436 O435 1.182 . S
O437 Zn422 2.080 . S
O437 C440 1.305 . S
O438 Zn421 1.920 . S
O438 C440 1.234 . S
C439 O425 1.305 . S
C439 O426 1.234 . S
C440 O437 1.305 . S
C440 O438 1.234 . S
Zn441 O447 1.920 . S
Zn441 O453 1.898 . S
Zn441 O456 1.905 . S
Zn442 O450 1.905 . S
Zn442 O451 1.898 . S
Zn442 O459 1.920 . S
Zn443 O446 2.080 . S
Zn443 O449 2.114 . S
Zn443 O452 2.120 . S
Zn443 O454 2.120 . S
Zn443 O455 2.114 . S
Zn443 O458 2.080 . S
C444 O449 1.166 1_556 S
C444 O450 1.182 . S
C445 O451 1.167 . S
C445 O452 1.299 1_556 S
O446 Zn443 2.080 . S
O446 C460 1.305 . S
O447 Zn441 1.920 . S
O447 C460 1.234 . S
C448 O453 1.167 . S
C448 O454 1.299 . S
O449 Zn443 2.114 . S
O449 C444 1.166 1_554 S
O450 Zn442 1.905 . S
O450 C444 1.182 . S
O451 Zn442 1.898 . S
O451 C445 1.167 . S
O452 Zn443 2.120 . S
O452 C445 1.299 1_554 S
O453 Zn441 1.898 . S
O453 C448 1.167 . S
O454 Zn443 2.120 . S
O454 C448 1.299 . S
O455 Zn443 2.114 . S
O455 C457 1.166 . S
O456 Zn441 1.905 . S
O456 C457 1.182 . S
C457 O455 1.166 . S
C457 O456 1.182 . S
O458 Zn443 2.080 . S
O458 C461 1.305 1_554 S
O459 Zn442 1.920 . S
O459 C461 1.234 . S
C460 O446 1.305 . S
C460 O447 1.234 . S
C461 O458 1.305 1_556 S
C461 O459 1.234 . S
Zn462 O468 1.920 . S
Zn462 O474 1.898 . S
Zn462 O477 1.905 . S
Zn463 O471 1.905 . S
Zn463 O472 1.898 . S
Zn463 O480 1.920 . S
Zn464 O467 2.080 . S
Zn464 O470 2.114 . S
Zn464 O473 2.120 . S
Zn464 O475 2.120 . S
Zn464 O476 2.114 . S
Zn464 O479 2.080 . S
C465 O470 1.166 . S
C465 O471 1.182 . S
C466 O472 1.167 . S
C466 O473 1.299 . S
O467 Zn464 2.080 . S
O467 C481 1.305 . S
O468 Zn462 1.920 . S
O468 C481 1.234 . S
C469 O474 1.167 . S
C469 O475 1.299 . S
O470 Zn464 2.114 . S
O470 C465 1.166 . S
O471 Zn463 1.905 . S
O471 C465 1.182 . S
O472 Zn463 1.898 . S
O472 C466 1.167 . S
O473 Zn464 2.120 . S
O473 C466 1.299 . S
O474 Zn462 1.898 . S
O474 C469 1.167 . S
O475 Zn464 2.120 . S
O475 C469 1.299 . S
O476 Zn464 2.114 . S
O476 C478 1.166 . S
O477 Zn462 1.905 . S
O477 C478 1.182 . S
C478 O476 1.166 . S
C478 O477 1.182 . S
O479 Zn464 2.080 . S
O479 C482 1.305 . S
O480 Zn463 1.920 . S
O480 C482 1.234 . S
C481 O467 1.305 . S
C481 O468 1.234 . S
C482 O479 1.305 . S
C482 O480 1.234 . S
Zn483 O489 1.920 . S
Zn483 O495 1.898 . S
Zn483 O498 1.905 . S
Zn484 O492 1.905 . S
Zn484 O493 1.898 . S
Zn484 O501 1.920 . S
Zn485 O488 2.080 . S
Zn485 O491 2.114 . S
Zn485 O494 2.120 . S
Zn485 O496 2.120 . S
Zn485 O497 2.114 . S
Zn485 O500 2.080 . S
C486 O491 1.166 . S
C486 O492 1.182 . S
C487 O493 1.167 . S
C487 O494 1.299 . S
O488 Zn485 2.080 . S
O488 C502 1.305 . S
O489 Zn483 1.920 . S
O489 C502 1.234 . S
C490 O495 1.167 . S
C490 O496 1.299 . S
O491 Zn485 2.114 . S
O491 C486 1.166 . S
O492 Zn484 1.905 . S
O492 C486 1.182 . S
O493 Zn484 1.898 . S
O493 C487 1.167 . S
O494 Zn485 2.120 . S
O494 C487 1.299 . S
O495 Zn483 1.898 . S
O495 C490 1.167 . S
O496 Zn485 2.120 . S
O496 C490 1.299 . S
O497 Zn485 2.114 . S
O497 C499 1.166 . S
O498 Zn483 1.905 . S
O498 C499 1.182 . S
C499 O497 1.166 . S
C499 O498 1.182 . S
O500 Zn485 2.080 . S
O500 C503 1.305 . S
O501 Zn484 1.920 . S
O501 C503 1.234 . S
C502 O488 1.305 . S
C502 O489 1.234 . S
C503 O500 1.305 . S
C503 O501 1.234 . S
H504 C510 0.930 . S
H505 C514 0.930 . S
H506 C519 0.929 . S
H507 C517 0.929 . S
H508 C512 0.929 . S
H509 C518 0.929 . S
C510 H504 0.930 . S
C510 C511 1.367 . S
C510 C518 1.378 . S
C511 C510 1.367 . S
C511 C519 1.433 . S
C512 H508 0.929 . S
C512 C514 1.378 . S
C512 C516 1.350 . S
C513 C516 1.463 . S
C513 C518 1.350 . S
C513 N521 1.427 . S
C514 H505 0.930 . S
C514 C512 1.378 . S
C514 C515 1.367 . S
C515 C514 1.367 . S
C515 C517 1.433 . S
C516 C512 1.350 . S
C516 C513 1.463 . S
C516 N520 1.427 . S
C517 H507 0.929 . S
C517 C515 1.433 . S
C517 N520 1.384 . S
C518 H509 0.929 . S
C518 C510 1.378 . S
C518 C513 1.350 . S
C519 H506 0.929 . S
C519 C511 1.433 . S
C519 N521 1.384 . S
N520 C516 1.427 . S
N520 C517 1.384 . S
N521 C513 1.427 . S
N521 C519 1.384 . S
H522 C528 0.930 . S
H523 C532 0.920 1_565 S
H524 C537 0.929 . S
H525 C535 0.929 . S
H526 C530 0.929 . S
H527 C536 0.929 . S
C528 H522 0.930 . S
C528 C529 1.367 . S
C528 C536 1.378 . S
C529 C528 1.367 . S
C529 C537 1.433 1_545 S
C530 H526 0.929 . S
C530 C532 1.382 1_565 S
C530 C534 1.350 1_565 S
C531 C534 1.463 . S
C531 C536 1.350 . S
C531 N539 1.427 1_545 S
C532 H523 0.920 1_545 S
C532 C530 1.382 1_545 S
C532 C533 1.373 . S
C533 C532 1.373 . S
C533 C535 1.433 . S
C534 C530 1.350 1_545 S
C534 C531 1.463 . S
C534 N538 1.427 . S
C535 H525 0.929 . S
C535 C533 1.433 . S
C535 N538 1.384 . S
C536 H527 0.929 . S
C536 C528 1.378 . S
C536 C531 1.350 . S
C537 H524 0.929 . S
C537 C529 1.433 1_565 S
C537 N539 1.384 . S
N538 C534 1.427 . S
N538 C535 1.384 . S
N539 C531 1.427 1_565 S
N539 C537 1.384 . S
H540 C546 0.930 . S
H541 C550 0.930 . S
H542 C555 0.929 . S
H543 C553 0.929 . S
H544 C548 0.929 . S
H545 C554 0.929 . S
C546 H540 0.930 . S
C546 C547 1.367 . S
C546 C554 1.378 . S
C547 C546 1.367 . S
C547 C555 1.433 1_455 S
C548 H544 0.929 . S
C548 C550 1.378 . S
C548 C552 1.350 1_655 S
C549 C552 1.463 . S
C549 C554 1.350 . S
C549 N557 1.427 1_455 S
C550 H541 0.930 . S
C550 C548 1.378 . S
C550 C551 1.367 1_655 S
C551 C550 1.367 1_455 S
C551 C553 1.433 . S
C552 C548 1.350 1_455 S
C552 C549 1.463 . S
C552 N556 1.427 . S
C553 H543 0.929 . S
C553 C551 1.433 . S
C553 N556 1.384 . S
C554 H545 0.929 . S
C554 C546 1.378 . S
C554 C549 1.350 . S
C555 H542 0.929 . S
C555 C547 1.433 1_655 S
C555 N557 1.384 . S
N556 C552 1.427 . S
N556 C553 1.384 . S
N557 C549 1.427 1_655 S
N557 C555 1.384 . S
H558 C564 0.930 . S
H559 C568 0.930 . S
H560 C573 0.929 . S
H561 C571 0.929 . S
H562 C566 0.929 . S
H563 C572 0.929 . S
C564 H558 0.930 . S
C564 C565 1.367 . S
C564 C572 1.378 . S
C565 C564 1.367 . S
C565 C573 1.433 . S
C566 H562 0.929 . S
C566 C568 1.378 . S
C566 C570 1.350 . S
C567 C570 1.463 . S
C567 C572 1.350 . S
C567 N575 1.427 . S
C568 H559 0.930 . S
C568 C566 1.378 . S
C568 C569 1.367 . S
C569 C568 1.367 . S
C569 C571 1.433 . S
C570 C566 1.350 . S
C570 C567 1.463 . S
C570 N574 1.427 . S
C571 H561 0.929 . S
C571 C569 1.433 . S
C571 N574 1.384 . S
C572 H563 0.929 . S
C572 C564 1.378 . S
C572 C567 1.350 . S
C573 H560 0.929 . S
C573 C565 1.433 . S
C573 N575 1.384 . S
N574 C570 1.427 . S
N574 C571 1.384 . S
N575 C567 1.427 . S
N575 C573 1.384 . S
H576 C582 0.930 . S
H577 C586 0.930 . S
H578 C591 0.929 . S
H579 C589 0.929 . S
H580 C584 0.929 . S
H581 C590 0.929 . S
C582 H576 0.930 . S
C582 C583 1.367 1_565 S
C582 C590 1.378 . S
C583 C582 1.367 1_545 S
C583 C591 1.433 . S
C584 H580 0.929 . S
C584 C586 1.378 . S
C584 C588 1.350 . S
C585 C588 1.463 . S
C585 C590 1.350 1_545 S
C585 N593 1.427 . S
C586 H577 0.930 . S
C586 C584 1.378 . S
C586 C587 1.380 . S
C587 C586 1.380 . S
C587 C589 1.427 1_545 S
C588 C584 1.350 . S
C588 C585 1.463 . S
C588 N592 1.427 1_545 S
C589 H579 0.929 . S
C589 C587 1.427 1_565 S
C589 N592 1.384 . S
C590 H581 0.929 . S
C590 C582 1.378 . S
C590 C585 1.350 1_565 S
C591 H578 0.929 . S
C591 C583 1.433 . S
C591 N593 1.384 . S
N592 C588 1.427 1_565 S
N592 C589 1.384 . S
N593 C585 1.427 . S
N593 C591 1.384 . S
H594 C600 0.930 . S
H595 C604 0.930 . S
H596 C609 0.929 . S
H597 C607 0.929 . S
H598 C602 0.929 . S
H599 C608 0.929 . S
C600 H594 0.930 . S
C600 C601 1.367 1_655 S
C600 C608 1.378 . S
C601 C600 1.367 1_455 S
C601 C609 1.433 . S
C602 H598 0.929 . S
C602 C604 1.378 . S
C602 C606 1.350 . S
C603 C606 1.463 . S
C603 C608 1.350 1_455 S
C603 N611 1.427 . S
C604 H595 0.930 . S
C604 C602 1.378 . S
C604 C605 1.367 . S
C605 C604 1.367 . S
C605 C607 1.433 1_455 S
C606 C602 1.350 . S
C606 C603 1.463 . S
C606 N610 1.427 1_455 S
C607 H597 0.929 . S
C607 C605 1.433 1_655 S
C607 N610 1.384 . S
C608 H599 0.929 . S
C608 C600 1.378 . S
C608 C603 1.350 1_655 S
C609 H596 0.929 . S
C609 C601 1.433 . S
C609 N611 1.384 . S
N610 C606 1.427 1_655 S
N610 C607 1.384 . S
N611 C603 1.427 . S
N611 C609 1.384 . S
H612 C618 0.930 . S
H613 C622 0.930 . S
H614 C627 0.929 . S
H615 C625 0.929 . S
H616 C620 0.929 . S
H617 C626 0.929 . S
C618 H612 0.930 . S
C618 C619 1.367 . S
C618 C626 1.378 . S
C619 C618 1.367 . S
C619 C627 1.433 . S
C620 H616 0.929 . S
C620 C622 1.378 . S
C620 C624 1.350 . S
C621 C624 1.463 . S
C621 C626 1.350 . S
C621 N629 1.427 . S
C622 H613 0.930 . S
C622 C620 1.378 . S
C622 C623 1.367 . S
C623 C622 1.367 . S
C623 C625 1.433 . S
C624 C620 1.350 . S
C624 C621 1.463 . S
C624 N628 1.427 . S
C625 H615 0.929 . S
C625 C623 1.433 . S
C625 N628 1.384 . S
C626 H617 0.929 . S
C626 C618 1.378 . S
C626 C621 1.350 . S
C627 H614 0.929 . S
C627 C619 1.433 . S
C627 N629 1.384 . S
N628 C624 1.427 . S
N628 C625 1.384 . S
N629 C621 1.427 . S
N629 C627 1.384 . S
H630 C636 0.930 . S
H631 C640 0.930 . S
H632 C645 0.929 . S
H633 C643 0.929 . S
H634 C638 0.929 . S
H635 C644 0.929 . S
C636 H630 0.930 . S
C636 C637 1.367 1_565 S
C636 C644 1.378 . S
C637 C636 1.367 1_545 S
C637 C645 1.433 . S
C638 H634 0.929 . S
C638 C640 1.378 . S
C638 C642 1.350 . S
C639 C642 1.463 . S
C639 C644 1.350 1_545 S
C639 N647 1.427 . S
C640 H631 0.930 . S
C640 C638 1.378 . S
C640 C641 1.367 . S
C641 C640 1.367 . S
C641 C643 1.433 1_545 S
C642 C638 1.350 . S
C642 C639 1.463 . S
C642 N646 1.427 1_545 S
C643 H633 0.929 . S
C643 C641 1.433 1_565 S
C643 N646 1.384 . S
C644 H635 0.929 . S
C644 C636 1.378 . S
C644 C639 1.350 1_565 S
C645 H632 0.929 . S
C645 C637 1.433 . S
C645 N647 1.384 . S
N646 C642 1.427 1_565 S
N646 C643 1.384 . S
N647 C639 1.427 . S
N647 C645 1.384 . S
H648 C654 0.930 1_655 S
H649 C658 0.930 . S
H650 C663 0.929 . S
H651 C661 0.929 . S
H652 C656 0.929 . S
H653 C662 0.929 . S
C654 H648 0.930 1_455 S
C654 C655 1.367 . S
C654 C662 1.378 . S
C655 C654 1.367 . S
C655 C663 1.433 . S
C656 H652 0.929 . S
C656 C658 1.378 . S
C656 C660 1.350 . S
C657 C660 1.463 . S
C657 C662 1.350 . S
C657 N665 1.427 . S
C658 H649 0.930 . S
C658 C656 1.378 . S
C658 C659 1.367 . S
C659 C658 1.367 . S
C659 C661 1.433 . S
C660 C656 1.350 . S
C660 C657 1.463 . S
C660 N664 1.427 . S
C661 H651 0.929 . S
C661 C659 1.433 . S
C661 N664 1.384 . S
C662 H653 0.929 . S
C662 C654 1.378 . S
C662 C657 1.350 . S
C663 H650 0.929 . S
C663 C655 1.433 . S
C663 N665 1.384 . S
N664 C660 1.427 . S
N664 C661 1.384 . S
N665 C657 1.427 . S
N665 C663 1.384 . S
H666 C672 0.930 . S
H667 C676 0.930 . S
H668 C681 0.929 . S
H669 C679 0.929 . S
H670 C674 0.929 . S
H671 C680 0.929 . S
C672 H666 0.930 . S
C672 C673 1.367 . S
C672 C680 1.378 . S
C673 C672 1.367 . S
C673 C681 1.433 . S
C674 H670 0.929 . S
C674 C676 1.378 . S
C674 C678 1.350 . S
C675 C678 1.463 . S
C675 C680 1.350 . S
C675 N683 1.427 . S
C676 H667 0.930 . S
C676 C674 1.378 . S
C676 C677 1.367 . S
C677 C676 1.367 . S
C677 C679 1.433 . S
C678 C674 1.350 . S
C678 C675 1.463 . S
C678 N682 1.427 . S
C679 H669 0.929 . S
C679 C677 1.433 . S
C679 N682 1.384 . S
C680 H671 0.929 . S
C680 C672 1.378 . S
C680 C675 1.350 . S
C681 H668 0.929 . S
C681 C673 1.433 . S
C681 N683 1.384 . S
N682 C678 1.427 . S
N682 C679 1.384 . S
N683 C675 1.427 . S
N683 C681 1.384 . S
H684 C690 0.930 . S
H685 C694 0.930 . S
H686 C699 0.929 . S
H687 C697 0.929 . S
H688 C692 0.929 . S
H689 C698 0.929 . S
C690 H684 0.930 . S
C690 C691 1.367 . S
C690 C698 1.378 . S
C691 C690 1.367 . S
C691 C699 1.433 1_545 S
C692 H688 0.929 . S
C692 C694 1.378 . S
C692 C696 1.350 1_565 S
C693 C696 1.463 . S
C693 C698 1.350 . S
C693 N701 1.427 1_545 S
C694 H685 0.930 . S
C694 C692 1.378 . S
C694 C695 1.367 1_565 S
C695 C694 1.367 1_545 S
C695 C697 1.433 . S
C696 C692 1.350 1_545 S
C696 C693 1.463 . S
C696 N700 1.427 . S
C697 H687 0.929 . S
C697 C695 1.433 . S
C697 N700 1.384 . S
C698 H689 0.929 . S
C698 C690 1.378 . S
C698 C693 1.350 . S
C699 H686 0.929 . S
C699 C691 1.433 1_565 S
C699 N701 1.384 . S
N700 C696 1.427 . S
N700 C697 1.384 . S
N701 C693 1.427 1_565 S
N701 C699 1.384 . S
H702 C708 0.930 . S
H703 C712 0.930 . S
H704 C717 0.929 . S
H705 C715 0.929 . S
H706 C710 0.929 . S
H707 C716 0.929 . S
C708 H702 0.930 . S
C708 C709 1.367 1_655 S
C708 C716 1.378 . S
C709 C708 1.367 1_455 S
C709 C717 1.433 . S
C710 H706 0.929 . S
C710 C712 1.378 . S
C710 C714 1.350 . S
C711 C714 1.463 . S
C711 C716 1.350 1_455 S
C711 N719 1.427 . S
C712 H703 0.930 . S
C712 C710 1.378 . S
C712 C713 1.367 . S
C713 C712 1.367 . S
C713 C715 1.433 1_455 S
C714 C710 1.350 . S
C714 C711 1.463 . S
C714 N718 1.427 1_455 S
C715 H705 0.929 . S
C715 C713 1.433 1_655 S
C715 N718 1.384 . S
C716 H707 0.929 . S
C716 C708 1.378 . S
C716 C711 1.350 1_655 S
C717 H704 0.929 . S
C717 C709 1.433 . S
C717 N719 1.384 . S
N718 C714 1.427 1_655 S
N718 C715 1.384 . S
N719 C711 1.427 . S
N719 C717 1.384 . S
H720 C726 0.930 . S
H721 C730 0.930 . S
H722 C735 0.929 . S
H723 C733 0.929 . S
H724 C728 0.929 . S
H725 C734 0.929 . S
C726 H720 0.930 . S
C726 C727 1.367 . S
C726 C734 1.378 . S
C727 C726 1.367 . S
C727 C735 1.433 . S
C728 H724 0.929 . S
C728 C730 1.378 . S
C728 C732 1.350 . S
C729 C732 1.463 . S
C729 C734 1.350 . S
C729 N737 1.427 . S
C730 H721 0.930 . S
C730 C728 1.378 . S
C730 C731 1.367 . S
C731 C730 1.367 . S
C731 C733 1.433 . S
C732 C728 1.350 . S
C732 C729 1.463 . S
C732 N736 1.427 . S
C733 H723 0.929 . S
C733 C731 1.433 . S
C733 N736 1.384 . S
C734 H725 0.929 . S
C734 C726 1.378 . S
C734 C729 1.350 . S
C735 H722 0.929 . S
C735 C727 1.433 . S
C735 N737 1.384 . S
N736 C732 1.427 . S
N736 C733 1.384 . S
N737 C729 1.427 . S
N737 C735 1.384 . S
H738 C744 0.930 . S
H739 C748 0.930 . S
H740 C753 0.929 . S
H741 C751 0.929 . S
H742 C746 0.929 . S
H743 C752 0.929 . S
C744 H738 0.930 . S
C744 C745 1.367 . S
C744 C752 1.378 . S
C745 C744 1.367 . S
C745 C753 1.433 . S
C746 H742 0.929 . S
C746 C748 1.378 . S
C746 C750 1.350 . S
C747 C750 1.463 . S
C747 C752 1.350 . S
C747 N755 1.427 . S
C748 H739 0.930 . S
C748 C746 1.378 . S
C748 C749 1.367 . S
C749 C748 1.367 . S
C749 C751 1.433 . S
C750 C746 1.350 . S
C750 C747 1.463 . S
C750 N754 1.427 . S
C751 H741 0.929 . S
C751 C749 1.433 . S
C751 N754 1.384 . S
C752 H743 0.929 . S
C752 C744 1.378 . S
C752 C747 1.350 . S
C753 H740 0.929 . S
C753 C745 1.433 . S
C753 N755 1.384 . S
N754 C750 1.427 . S
N754 C751 1.384 . S
N755 C747 1.427 . S
N755 C753 1.384 . S
H756 C762 0.930 . S
H757 C766 0.930 . S
H758 C771 0.929 . S
H759 C769 0.929 . S
H760 C764 0.929 . S
H761 C770 0.929 . S
C762 H756 0.930 . S
C762 C763 1.367 . S
C762 C770 1.378 . S
C763 C762 1.367 . S
C763 C771 1.433 . S
C764 H760 0.929 . S
C764 C766 1.378 . S
C764 C768 1.350 . S
C765 C768 1.463 . S
C765 C770 1.350 . S
C765 N773 1.427 . S
C766 H757 0.930 . S
C766 C764 1.378 . S
C766 C767 1.367 . S
C767 C766 1.367 . S
C767 C769 1.433 . S
C768 C764 1.350 . S
C768 C765 1.463 . S
C768 N772 1.427 . S
C769 H759 0.929 . S
C769 C767 1.433 . S
C769 N772 1.384 . S
C770 H761 0.929 . S
C770 C762 1.378 . S
C770 C765 1.350 . S
C771 H758 0.929 . S
C771 C763 1.433 . S
C771 N773 1.384 . S
N772 C768 1.427 . S
N772 C769 1.384 . S
N773 C765 1.427 . S
N773 C771 1.384 . S
H774 C780 0.930 . S
H775 C784 0.930 . S
H776 C789 0.929 . S
H777 C787 0.929 . S
H778 C782 0.929 . S
H779 C788 0.929 . S
C780 H774 0.930 . S
C780 C781 1.367 . S
C780 C788 1.378 . S
C781 C780 1.367 . S
C781 C789 1.433 . S
C782 H778 0.929 . S
C782 C784 1.378 . S
C782 C786 1.350 . S
C783 C786 1.463 . S
C783 C788 1.350 . S
C783 N791 1.427 . S
C784 H775 0.930 . S
C784 C782 1.378 . S
C784 C785 1.367 . S
C785 C784 1.367 . S
C785 C787 1.433 . S
C786 C782 1.350 . S
C786 C783 1.463 . S
C786 N790 1.427 . S
C787 H777 0.929 . S
C787 C785 1.433 . S
C787 N790 1.384 . S
C788 H779 0.929 . S
C788 C780 1.378 . S
C788 C783 1.350 . S
C789 H776 0.929 . S
C789 C781 1.433 . S
C789 N791 1.384 . S
N790 C786 1.427 . S
N790 C787 1.384 . S
N791 C783 1.427 . S
N791 C789 1.384 . S
H792 C798 0.930 . S
H793 C802 0.930 . S
H794 C807 0.929 . S
H795 C805 0.929 . S
H796 C800 0.929 . S
H797 C806 0.929 . S
C798 H792 0.930 . S
C798 C799 1.367 . S
C798 C806 1.378 . S
C799 C798 1.367 . S
C799 C807 1.433 . S
C800 H796 0.929 . S
C800 C802 1.378 . S
C800 C804 1.350 . S
C801 C804 1.463 . S
C801 C806 1.350 . S
C801 N809 1.427 . S
C802 H793 0.930 . S
C802 C800 1.378 . S
C802 C803 1.367 . S
C803 C802 1.367 . S
C803 C805 1.433 . S
C804 C800 1.350 . S
C804 C801 1.463 . S
C804 N808 1.427 . S
C805 H795 0.929 . S
C805 C803 1.433 . S
C805 N808 1.384 . S
C806 H797 0.929 . S
C806 C798 1.378 . S
C806 C801 1.350 . S
C807 H794 0.929 . S
C807 C799 1.433 . S
C807 N809 1.384 . S
N808 C804 1.427 . S
N808 C805 1.384 . S
N809 C801 1.427 . S
N809 C807 1.384 . S
H810 C816 0.930 . S
H811 C820 0.930 . S
H812 C825 0.929 . S
H813 C823 0.929 . S
H814 C818 0.929 . S
H815 C824 0.929 . S
C816 H810 0.930 . S
C816 C817 1.367 . S
C816 C824 1.378 . S
C817 C816 1.367 . S
C817 C825 1.433 . S
C818 H814 0.929 . S
C818 C820 1.378 . S
C818 C822 1.350 . S
C819 C822 1.463 . S
C819 C824 1.350 . S
C819 N827 1.427 . S
C820 H811 0.930 . S
C820 C818 1.378 . S
C820 C821 1.367 . S
C821 C820 1.367 . S
C821 C823 1.433 . S
C822 C818 1.350 . S
C822 C819 1.463 . S
C822 N826 1.427 . S
C823 H813 0.929 . S
C823 C821 1.433 . S
C823 N826 1.384 . S
C824 H815 0.929 . S
C824 C816 1.378 . S
C824 C819 1.350 . S
C825 H812 0.929 . S
C825 C817 1.433 . S
C825 N827 1.384 . S
N826 C822 1.427 . S
N826 C823 1.384 . S
N827 C819 1.427 . S
N827 C825 1.384 . S
H828 C834 0.930 . S
H829 C838 0.930 . S
H830 C843 0.929 . S
H831 C841 0.929 . S
H832 C836 0.929 . S
H833 C842 0.929 . S
C834 H828 0.930 . S
C834 C835 1.367 . S
C834 C842 1.378 . S
C835 C834 1.367 . S
C835 C843 1.433 . S
C836 H832 0.929 . S
C836 C838 1.378 . S
C836 C840 1.350 . S
C837 C840 1.463 . S
C837 C842 1.350 . S
C837 N845 1.427 . S
C838 H829 0.930 . S
C838 C836 1.378 . S
C838 C839 1.367 . S
C839 C838 1.367 . S
C839 C841 1.433 . S
C840 C836 1.350 . S
C840 C837 1.463 . S
C840 N844 1.427 . S
C841 H831 0.929 . S
C841 C839 1.433 . S
C841 N844 1.384 . S
C842 H833 0.929 . S
C842 C834 1.378 . S
C842 C837 1.350 . S
C843 H830 0.929 . S
C843 C835 1.433 . S
C843 N845 1.384 . S
N844 C840 1.427 . S
N844 C841 1.384 . S
N845 C837 1.427 . S
N845 C843 1.384 . S
H846 C852 0.930 . S
H847 C856 0.930 . S
H848 C861 0.929 . S
H849 C859 0.929 . S
H850 C854 0.929 . S
H851 C860 0.929 . S
C852 H846 0.930 . S
C852 C853 1.367 . S
C852 C860 1.378 . S
C853 C852 1.367 . S
C853 C861 1.433 . S
C854 H850 0.929 . S
C854 C856 1.378 . S
C854 C858 1.350 . S
C855 C858 1.463 . S
C855 C860 1.350 . S
C855 N863 1.427 . S
C856 H847 0.930 . S
C856 C854 1.378 . S
C856 C857 1.367 . S
C857 C856 1.367 . S
C857 C859 1.433 . S
C858 C854 1.350 . S
C858 C855 1.463 . S
C858 N862 1.427 . S
C859 H849 0.929 . S
C859 C857 1.433 . S
C859 N862 1.384 . S
C860 H851 0.929 . S
C860 C852 1.378 . S
C860 C855 1.350 . S
C861 H848 0.929 . S
C861 C853 1.433 . S
C861 N863 1.384 . S
N862 C858 1.427 . S
N862 C859 1.384 . S
N863 C855 1.427 . S
N863 C861 1.384 . S
H864 C870 0.930 . S
H865 C874 0.930 . S
H866 C879 0.929 . S
H867 C877 0.929 . S
H868 C872 0.929 . S
H869 C878 0.929 . S
C870 H864 0.930 . S
C870 C871 1.367 . S
C870 C878 1.378 . S
C871 C870 1.367 . S
C871 C879 1.433 . S
C872 H868 0.929 . S
C872 C874 1.378 . S
C872 C876 1.350 . S
C873 C876 1.463 . S
C873 C878 1.350 . S
C873 N881 1.427 . S
C874 H865 0.930 . S
C874 C872 1.378 . S
C874 C875 1.367 . S
C875 C874 1.367 . S
C875 C877 1.433 . S
C876 C872 1.350 . S
C876 C873 1.463 . S
C876 N880 1.427 . S
C877 H867 0.929 . S
C877 C875 1.433 . S
C877 N880 1.384 . S
C878 H869 0.929 . S
C878 C870 1.378 . S
C878 C873 1.350 . S
C879 H866 0.929 . S
C879 C871 1.433 . S
C879 N881 1.384 . S
N880 C876 1.427 . S
N880 C877 1.384 . S
N881 C873 1.427 . S
N881 C879 1.384 . S
H882 C888 0.930 . S
H883 C892 0.930 . S
H884 C897 0.929 . S
H885 C895 0.929 1_556 S
H886 C890 0.929 . S
H887 C896 0.929 . S
C888 H882 0.930 . S
C888 C889 1.367 . S
C888 C896 1.378 . S
C889 C888 1.367 . S
C889 C897 1.433 . S
C890 H886 0.929 . S
C890 C892 1.378 . S
C890 C894 1.350 . S
C891 C894 1.463 . S
C891 C896 1.350 . S
C891 N899 1.427 . S
C892 H883 0.930 . S
C892 C890 1.378 . S
C892 C893 1.367 . S
C893 C892 1.367 . S
C893 C895 1.433 . S
C894 C890 1.350 . S
C894 C891 1.463 . S
C894 N898 1.427 . S
C895 H885 0.929 1_554 S
C895 C893 1.433 . S
C895 N898 1.384 . S
C896 H887 0.929 . S
C896 C888 1.378 . S
C896 C891 1.350 . S
C897 H884 0.929 . S
C897 C889 1.433 . S
C897 N899 1.384 . S
N898 C894 1.427 . S
N898 C895 1.384 . S
N899 C891 1.427 . S
N899 C897 1.384 . S
H900 C906 0.930 . S
H901 C910 0.930 . S
H902 C915 0.929 . S
H903 C913 0.929 . S
H904 C908 0.929 . S
H905 C914 0.929 . S
C906 H900 0.930 . S
C906 C907 1.367 . S
C906 C914 1.378 . S
C907 C906 1.367 . S
C907 C915 1.433 . S
C908 H904 0.929 . S
C908 C910 1.378 . S
C908 C912 1.350 . S
C909 C912 1.463 . S
C909 C914 1.350 . S
C909 N917 1.427 . S
C910 H901 0.930 . S
C910 C908 1.378 . S
C910 C911 1.367 . S
C911 C910 1.367 . S
C911 C913 1.433 . S
C912 C908 1.350 . S
C912 C909 1.463 . S
C912 N916 1.427 . S
C913 H903 0.929 . S
C913 C911 1.433 . S
C913 N916 1.384 . S
C914 H905 0.929 . S
C914 C906 1.378 . S
C914 C909 1.350 . S
C915 H902 0.929 . S
C915 C907 1.433 . S
C915 N917 1.384 . S
N916 C912 1.427 . S
N916 C913 1.384 . S
N917 C909 1.427 . S
N917 C915 1.384 . S
H918 C924 0.930 . S
H919 C928 0.930 1_556 S
H920 C933 0.929 . S
H921 C931 0.929 . S
H922 C926 0.929 . S
H923 C932 0.929 . S
C924 H918 0.930 . S
C924 C925 1.367 . S
C924 C932 1.378 . S
C925 C924 1.367 . S
C925 C933 1.433 . S
C926 H922 0.929 . S
C926 C928 1.378 . S
C926 C930 1.350 . S
C927 C930 1.463 . S
C927 C932 1.350 . S
C927 N935 1.427 . S
C928 H919 0.930 1_554 S
C928 C926 1.378 . S
C928 C929 1.367 . S
C929 C928 1.367 . S
C929 C931 1.433 . S
C930 C926 1.350 . S
C930 C927 1.463 . S
C930 N934 1.427 . S
C931 H921 0.929 . S
C931 C929 1.433 . S
C931 N934 1.384 . S
C932 H923 0.929 . S
C932 C924 1.378 . S
C932 C927 1.350 . S
C933 H920 0.929 . S
C933 C925 1.433 . S
C933 N935 1.384 . S
N934 C930 1.427 . S
N934 C931 1.384 . S
N935 C927 1.427 . S
N935 C933 1.384 . S
H936 C942 0.930 . S
H937 C946 0.930 . S
H938 C951 0.929 . S
H939 C949 0.929 . S
H940 C944 0.929 . S
H941 C950 0.929 . S
C942 H936 0.930 . S
C942 C943 1.367 . S
C942 C950 1.378 . S
C943 C942 1.367 . S
C943 C951 1.433 . S
C944 H940 0.929 . S
C944 C946 1.378 . S
C944 C948 1.350 . S
C945 C948 1.463 . S
C945 C950 1.350 . S
C945 N953 1.427 . S
C946 H937 0.930 . S
C946 C944 1.378 . S
C946 C947 1.367 . S
C947 C946 1.367 . S
C947 C949 1.433 . S
C948 C944 1.350 . S
C948 C945 1.463 . S
C948 N952 1.427 . S
C949 H939 0.929 . S
C949 C947 1.433 . S
C949 N952 1.384 . S
C950 H941 0.929 . S
C950 C942 1.378 . S
C950 C945 1.350 . S
C951 H938 0.929 . S
C951 C943 1.433 . S
C951 N953 1.384 . S
N952 C948 1.427 . S
N952 C949 1.384 . S
N953 C945 1.427 . S
N953 C951 1.384 . S
H954 C960 0.930 . S
H955 C964 0.930 . S
H956 C969 0.929 . S
H957 C967 0.929 . S
H958 C962 0.929 . S
H959 C968 0.929 . S
C960 H954 0.930 . S
C960 C961 1.367 . S
C960 C968 1.378 . S
C961 C960 1.367 . S
C961 C969 1.433 . S
C962 H958 0.929 . S
C962 C964 1.378 . S
C962 C966 1.350 . S
C963 C966 1.463 . S
C963 C968 1.350 . S
C963 N971 1.427 . S
C964 H955 0.930 . S
C964 C962 1.378 . S
C964 C965 1.367 . S
C965 C964 1.367 . S
C965 C967 1.433 . S
C966 C962 1.350 . S
C966 C963 1.463 . S
C966 N970 1.427 . S
C967 H957 0.929 . S
C967 C965 1.433 . S
C967 N970 1.384 . S
C968 H959 0.929 . S
C968 C960 1.378 . S
C968 C963 1.350 . S
C969 H956 0.929 . S
C969 C961 1.433 . S
C969 N971 1.384 . S
N970 C966 1.427 . S
N970 C967 1.384 . S
N971 C963 1.427 . S
N971 C969 1.384 . S
H972 C978 0.930 . S
H973 C982 0.930 . S
H974 C987 0.929 . S
H975 C985 0.929 . S
H976 C980 0.929 . S
H977 C986 0.929 . S
C978 H972 0.930 . S
C978 C979 1.367 . S
C978 C986 1.378 . S
C979 C978 1.367 . S
C979 C987 1.433 . S
C980 H976 0.929 . S
C980 C982 1.378 . S
C980 C984 1.350 . S
C981 C984 1.463 . S
C981 C986 1.350 . S
C981 N989 1.427 . S
C982 H973 0.930 . S
C982 C980 1.378 . S
C982 C983 1.367 . S
C983 C982 1.367 . S
C983 C985 1.433 . S
C984 C980 1.350 . S
C984 C981 1.463 . S
C984 N988 1.427 . S
C985 H975 0.929 . S
C985 C983 1.433 . S
C985 N988 1.384 . S
C986 H977 0.929 . S
C986 C978 1.378 . S
C986 C981 1.350 . S
C987 H974 0.929 . S
C987 C979 1.433 . S
C987 N989 1.384 . S
N988 C984 1.427 . S
N988 C985 1.384 . S
N989 C981 1.427 . S
N989 C987 1.384 . S
H990 C996 0.930 . S
H991 C1000 0.930 . S
H992 C1005 0.929 . S
H993 C1003 0.929 1_554 S
H994 C998 0.929 . S
H995 C1004 0.929 . S
C996 H990 0.930 . S
C996 C997 1.367 . S
C996 C1004 1.378 . S
C997 C996 1.367 . S
C997 C1005 1.433 . S
C998 H994 0.929 . S
C998 C1000 1.378 . S
C998 C1002 1.350 . S
C999 C1002 1.463 . S
C999 C1004 1.350 . S
C999 N1007 1.427 . S
C1000 H991 0.930 . S
C1000 C998 1.378 . S
C1000 C1001 1.367 . S
C1001 C1000 1.367 . S
C1001 C1003 1.433 . S
C1002 C998 1.350 . S
C1002 C999 1.463 . S
C1002 N1006 1.427 . S
C1003 H993 0.929 1_556 S
C1003 C1001 1.433 . S
C1003 N1006 1.384 . S
C1004 H995 0.929 . S
C1004 C996 1.378 . S
C1004 C999 1.350 . S
C1005 H992 0.929 . S
C1005 C997 1.433 . S
C1005 N1007 1.384 . S
N1006 C1002 1.427 . S
N1006 C1003 1.384 . S
N1007 C999 1.427 . S
N1007 C1005 1.384 . S
H1008 C1014 0.930 . S
H1009 C1018 0.930 . S
H1010 C1023 0.929 . S
H1011 C1021 0.929 1_554 S
H1012 C1016 0.929 . S
H1013 C1022 0.929 . S
C1014 H1008 0.930 . S
C1014 C1015 1.367 . S
C1014 C1022 1.378 . S
C1015 C1014 1.367 . S
C1015 C1023 1.433 . S
C1016 H1012 0.929 . S
C1016 C1018 1.378 . S
C1016 C1020 1.350 . S
C1017 C1020 1.463 . S
C1017 C1022 1.350 . S
C1017 N1025 1.427 . S
C1018 H1009 0.930 . S
C1018 C1016 1.378 . S
C1018 C1019 1.367 . S
C1019 C1018 1.367 . S
C1019 C1021 1.433 . S
C1020 C1016 1.350 . S
C1020 C1017 1.463 . S
C1020 N1024 1.427 . S
C1021 H1011 0.929 1_556 S
C1021 C1019 1.433 . S
C1021 N1024 1.384 . S
C1022 H1013 0.929 . S
C1022 C1014 1.378 . S
C1022 C1017 1.350 . S
C1023 H1010 0.929 . S
C1023 C1015 1.433 . S
C1023 N1025 1.384 . S
N1024 C1020 1.427 . S
N1024 C1021 1.384 . S
N1025 C1017 1.427 . S
N1025 C1023 1.384 . S
H1026 C1032 0.930 . S
H1027 C1036 0.930 1_554 S
H1028 C1041 0.929 . S
H1029 C1039 0.929 . S
H1030 C1034 0.929 . S
H1031 C1040 0.929 . S
C1032 H1026 0.930 . S
C1032 C1033 1.367 . S
C1032 C1040 1.378 . S
C1033 C1032 1.367 . S
C1033 C1041 1.433 . S
C1034 H1030 0.929 . S
C1034 C1036 1.378 . S
C1034 C1038 1.350 . S
C1035 C1038 1.463 . S
C1035 C1040 1.350 . S
C1035 N1043 1.427 . S
C1036 H1027 0.930 1_556 S
C1036 C1034 1.378 . S
C1036 C1037 1.367 . S
C1037 C1036 1.367 . S
C1037 C1039 1.433 . S
C1038 C1034 1.350 . S
C1038 C1035 1.463 . S
C1038 N1042 1.427 . S
C1039 H1029 0.929 . S
C1039 C1037 1.433 . S
C1039 N1042 1.384 . S
C1040 H1031 0.929 . S
C1040 C1032 1.378 . S
C1040 C1035 1.350 . S
C1041 H1028 0.929 . S
C1041 C1033 1.433 . S
C1041 N1043 1.384 . S
N1042 C1038 1.427 . S
N1042 C1039 1.384 . S
N1043 C1035 1.427 . S
N1043 C1041 1.384 . S
H1044 C1050 0.930 . S
H1045 C1054 0.930 . S
H1046 C1059 0.929 . S
H1047 C1057 0.929 . S
H1048 C1052 0.929 . S
H1049 C1058 0.929 . S
C1050 H1044 0.930 . S
C1050 C1051 1.367 . S
C1050 C1058 1.378 . S
C1051 C1050 1.367 . S
C1051 C1059 1.433 . S
C1052 H1048 0.929 . S
C1052 C1054 1.378 . S
C1052 C1056 1.350 . S
C1053 C1056 1.463 . S
C1053 C1058 1.350 . S
C1053 N1061 1.427 . S
C1054 H1045 0.930 . S
C1054 C1052 1.378 . S
C1054 C1055 1.367 . S
C1055 C1054 1.367 . S
C1055 C1057 1.433 . S
C1056 C1052 1.350 . S
C1056 C1053 1.463 . S
C1056 N1060 1.427 . S
C1057 H1047 0.929 . S
C1057 C1055 1.433 . S
C1057 N1060 1.384 . S
C1058 H1049 0.929 . S
C1058 C1050 1.378 . S
C1058 C1053 1.350 . S
C1059 H1046 0.929 . S
C1059 C1051 1.433 . S
C1059 N1061 1.384 . S
N1060 C1056 1.427 . S
N1060 C1057 1.384 . S
N1061 C1053 1.427 . S
N1061 C1059 1.384 . S
H1062 C1068 0.930 . S
H1063 C1072 0.930 . S
H1064 C1077 0.929 . S
H1065 C1075 0.929 . S
H1066 C1070 0.929 . S
H1067 C1076 0.929 . S
C1068 H1062 0.930 . S
C1068 C1069 1.367 . S
C1068 C1076 1.378 . S
C1069 C1068 1.367 . S
C1069 C1077 1.433 . S
C1070 H1066 0.929 . S
C1070 C1072 1.378 . S
C1070 C1074 1.350 . S
C1071 C1074 1.463 . S
C1071 C1076 1.350 . S
C1071 N1079 1.427 . S
C1072 H1063 0.930 . S
C1072 C1070 1.378 . S
C1072 C1073 1.367 . S
C1073 C1072 1.367 . S
C1073 C1075 1.433 . S
C1074 C1070 1.350 . S
C1074 C1071 1.463 . S
C1074 N1078 1.427 . S
C1075 H1065 0.929 . S
C1075 C1073 1.433 . S
C1075 N1078 1.384 . S
C1076 H1067 0.929 . S
C1076 C1068 1.378 . S
C1076 C1071 1.350 . S
C1077 H1064 0.929 . S
C1077 C1069 1.433 . S
C1077 N1079 1.384 . S
N1078 C1074 1.427 . S
N1078 C1075 1.384 . S
N1079 C1071 1.427 . S
N1079 C1077 1.384 . S
H1080 C1086 0.930 . S
H1081 C1090 0.930 . S
H1082 C1095 0.929 . S
H1083 C1093 0.929 . S
H1084 C1088 0.929 . S
H1085 C1094 0.929 . S
C1086 H1080 0.930 . S
C1086 C1087 1.367 . S
C1086 C1094 1.378 . S
C1087 C1086 1.367 . S
C1087 C1095 1.433 . S
C1088 H1084 0.929 . S
C1088 C1090 1.378 . S
C1088 C1092 1.350 . S
C1089 C1092 1.463 . S
C1089 C1094 1.350 . S
C1089 N1097 1.427 . S
C1090 H1081 0.930 . S
C1090 C1088 1.378 . S
C1090 C1091 1.367 . S
C1091 C1090 1.367 . S
C1091 C1093 1.433 . S
C1092 C1088 1.350 . S
C1092 C1089 1.463 . S
C1092 N1096 1.427 . S
C1093 H1083 0.929 . S
C1093 C1091 1.433 . S
C1093 N1096 1.384 . S
C1094 H1085 0.929 . S
C1094 C1086 1.378 . S
C1094 C1089 1.350 . S
C1095 H1082 0.929 . S
C1095 C1087 1.433 . S
C1095 N1097 1.384 . S
N1096 C1092 1.427 . S
N1096 C1093 1.384 . S
N1097 C1089 1.427 . S
N1097 C1095 1.384 . S
H1098 C1104 0.930 . S
H1099 C1108 0.930 . S
H1100 C1113 0.929 . S
H1101 C1111 0.929 . S
H1102 C1106 0.929 . S
H1103 C1112 0.929 . S
C1104 H1098 0.930 . S
C1104 C1105 1.367 . S
C1104 C1112 1.378 . S
C1105 C1104 1.367 . S
C1105 C1113 1.433 . S
C1106 H1102 0.929 . S
C1106 C1108 1.378 . S
C1106 C1110 1.350 . S
C1107 C1110 1.463 . S
C1107 C1112 1.350 . S
C1107 N1115 1.427 . S
C1108 H1099 0.930 . S
C1108 C1106 1.378 . S
C1108 C1109 1.367 . S
C1109 C1108 1.367 . S
C1109 C1111 1.433 . S
C1110 C1106 1.350 . S
C1110 C1107 1.463 . S
C1110 N1114 1.427 . S
C1111 H1101 0.929 . S
C1111 C1109 1.433 . S
C1111 N1114 1.384 . S
C1112 H1103 0.929 . S
C1112 C1104 1.378 . S
C1112 C1107 1.350 . S
C1113 H1100 0.929 . S
C1113 C1105 1.433 . S
C1113 N1115 1.384 . S
N1114 C1110 1.427 . S
N1114 C1111 1.384 . S
N1115 C1107 1.427 . S
N1115 C1113 1.384 . S
H1116 C1122 0.930 . S
H1117 C1126 0.930 . S
H1118 C1131 0.929 . S
H1119 C1129 0.929 . S
H1120 C1124 0.929 . S
H1121 C1130 0.929 . S
C1122 H1116 0.930 . S
C1122 C1123 1.367 . S
C1122 C1130 1.378 . S
C1123 C1122 1.367 . S
C1123 C1131 1.433 . S
C1124 H1120 0.929 . S
C1124 C1126 1.378 . S
C1124 C1128 1.350 . S
C1125 C1128 1.463 . S
C1125 C1130 1.350 . S
C1125 N1133 1.427 . S
C1126 H1117 0.930 . S
C1126 C1124 1.378 . S
C1126 C1127 1.367 . S
C1127 C1126 1.367 . S
C1127 C1129 1.433 . S
C1128 C1124 1.350 . S
C1128 C1125 1.463 . S
C1128 N1132 1.427 . S
C1129 H1119 0.929 . S
C1129 C1127 1.433 . S
C1129 N1132 1.384 . S
C1130 H1121 0.929 . S
C1130 C1122 1.378 . S
C1130 C1125 1.350 . S
C1131 H1118 0.929 . S
C1131 C1123 1.433 . S
C1131 N1133 1.384 . S
N1132 C1128 1.427 . S
N1132 C1129 1.384 . S
N1133 C1125 1.427 . S
N1133 C1131 1.384 . S
H1134 C1140 0.930 . S
H1135 C1144 0.930 . S
H1136 C1149 0.929 . S
H1137 C1147 0.929 . S
H1138 C1142 0.929 . S
H1139 C1148 0.929 . S
C1140 H1134 0.930 . S
C1140 C1141 1.367 . S
C1140 C1148 1.378 . S
C1141 C1140 1.367 . S
C1141 C1149 1.433 . S
C1142 H1138 0.929 . S
C1142 C1144 1.378 . S
C1142 C1146 1.350 . S
C1143 C1146 1.463 . S
C1143 C1148 1.350 . S
C1143 N1151 1.427 . S
C1144 H1135 0.930 . S
C1144 C1142 1.378 . S
C1144 C1145 1.367 . S
C1145 C1144 1.367 . S
C1145 C1147 1.433 . S
C1146 C1142 1.350 . S
C1146 C1143 1.463 . S
C1146 N1150 1.427 . S
C1147 H1137 0.929 . S
C1147 C1145 1.433 . S
C1147 N1150 1.384 . S
C1148 H1139 0.929 . S
C1148 C1140 1.378 . S
C1148 C1143 1.350 . S
C1149 H1136 0.929 . S
C1149 C1141 1.433 . S
C1149 N1151 1.384 . S
N1150 C1146 1.427 . S
N1150 C1147 1.384 . S
N1151 C1143 1.427 . S
N1151 C1149 1.384 . S
H1152 C1158 0.930 . S
H1153 C1162 0.930 . S
H1154 C1167 0.929 . S
H1155 C1165 0.929 . S
H1156 C1160 0.929 . S
H1157 C1166 0.929 . S
C1158 H1152 0.930 . S
C1158 C1159 1.367 . S
C1158 C1166 1.378 . S
C1159 C1158 1.367 . S
C1159 C1167 1.433 . S
C1160 H1156 0.929 . S
C1160 C1162 1.378 . S
C1160 C1164 1.350 . S
C1161 C1164 1.463 . S
C1161 C1166 1.350 . S
C1161 N1169 1.427 . S
C1162 H1153 0.930 . S
C1162 C1160 1.378 . S
C1162 C1163 1.367 . S
C1163 C1162 1.367 . S
C1163 C1165 1.433 . S
C1164 C1160 1.350 . S
C1164 C1161 1.463 . S
C1164 N1168 1.427 . S
C1165 H1155 0.929 . S
C1165 C1163 1.433 . S
C1165 N1168 1.384 . S
C1166 H1157 0.929 . S
C1166 C1158 1.378 . S
C1166 C1161 1.350 . S
C1167 H1154 0.929 . S
C1167 C1159 1.433 . S
C1167 N1169 1.384 . S
N1168 C1164 1.427 . S
N1168 C1165 1.384 . S
N1169 C1161 1.427 . S
N1169 C1167 1.384 . S
H1170 C1176 0.930 1_455 S
H1171 C1180 0.930 . S
H1172 C1185 0.929 . S
H1173 C1183 0.929 . S
H1174 C1178 0.929 . S
H1175 C1184 0.929 1_455 S
C1176 H1170 0.930 1_655 S
C1176 C1177 1.367 . S
C1176 C1184 1.378 . S
C1177 C1176 1.367 . S
C1177 C1185 1.433 . S
C1178 H1174 0.929 . S
C1178 C1180 1.378 . S
C1178 C1182 1.350 . S
C1179 C1182 1.463 . S
C1179 C1184 1.350 . S
C1179 N1187 1.427 . S
C1180 H1171 0.930 . S
C1180 C1178 1.378 . S
C1180 C1181 1.367 . S
C1181 C1180 1.367 . S
C1181 C1183 1.433 1_655 S
C1182 C1178 1.350 . S
C1182 C1179 1.463 . S
C1182 N1186 1.427 1_655 S
C1183 H1173 0.929 . S
C1183 C1181 1.433 1_455 S
C1183 N1186 1.384 . S
C1184 H1175 0.929 1_655 S
C1184 C1176 1.378 . S
C1184 C1179 1.350 . S
C1185 H1172 0.929 . S
C1185 C1177 1.433 . S
C1185 N1187 1.384 . S
N1186 C1182 1.427 1_455 S
N1186 C1183 1.384 . S
N1187 C1179 1.427 . S
N1187 C1185 1.384 . S
H1188 C1194 0.930 . S
H1189 C1198 0.930 . S
H1190 C1203 0.929 . S
H1191 C1201 0.929 . S
H1192 C1196 0.929 . S
H1193 C1202 0.929 . S
C1194 H1188 0.930 . S
C1194 C1195 1.367 . S
C1194 C1202 1.378 . S
C1195 C1194 1.367 . S
C1195 C1203 1.433 . S
C1196 H1192 0.929 . S
C1196 C1198 1.378 . S
C1196 C1200 1.350 . S
C1197 C1200 1.463 . S
C1197 C1202 1.350 . S
C1197 N1205 1.427 . S
C1198 H1189 0.930 . S
C1198 C1196 1.378 . S
C1198 C1199 1.367 . S
C1199 C1198 1.367 . S
C1199 C1201 1.433 . S
C1200 C1196 1.350 . S
C1200 C1197 1.463 . S
C1200 N1204 1.427 . S
C1201 H1191 0.929 . S
C1201 C1199 1.433 . S
C1201 N1204 1.384 . S
C1202 H1193 0.929 . S
C1202 C1194 1.378 . S
C1202 C1197 1.350 . S
C1203 H1190 0.929 . S
C1203 C1195 1.433 . S
C1203 N1205 1.384 . S
N1204 C1200 1.427 . S
N1204 C1201 1.384 . S
N1205 C1197 1.427 . S
N1205 C1203 1.384 . S
H1206 C1212 0.930 . S
H1207 C1216 0.930 . S
H1208 C1221 0.929 . S
H1209 C1219 0.929 . S
H1210 C1214 0.929 . S
H1211 C1220 0.929 . S
C1212 H1206 0.930 . S
C1212 C1213 1.367 . S
C1212 C1220 1.378 . S
C1213 C1212 1.367 . S
C1213 C1221 1.433 . S
C1214 H1210 0.929 . S
C1214 C1216 1.378 . S
C1214 C1218 1.350 . S
C1215 C1218 1.463 . S
C1215 C1220 1.350 . S
C1215 N1223 1.427 . S
C1216 H1207 0.930 . S
C1216 C1214 1.378 . S
C1216 C1217 1.367 . S
C1217 C1216 1.367 . S
C1217 C1219 1.433 . S
C1218 C1214 1.350 . S
C1218 C1215 1.463 . S
C1218 N1222 1.427 . S
C1219 H1209 0.929 . S
C1219 C1217 1.433 . S
C1219 N1222 1.384 . S
C1220 H1211 0.929 . S
C1220 C1212 1.378 . S
C1220 C1215 1.350 . S
C1221 H1208 0.929 . S
C1221 C1213 1.433 . S
C1221 N1223 1.384 . S
N1222 C1218 1.427 . S
N1222 C1219 1.384 . S
N1223 C1215 1.427 . S
N1223 C1221 1.384 . S
H1224 C1230 0.930 . S
H1225 C1234 0.930 . S
H1226 C1239 0.929 . S
H1227 C1237 0.929 . S
H1228 C1232 0.929 . S
H1229 C1238 0.929 . S
C1230 H1224 0.930 . S
C1230 C1231 1.367 . S
C1230 C1238 1.378 . S
C1231 C1230 1.367 . S
C1231 C1239 1.433 . S
C1232 H1228 0.929 . S
C1232 C1234 1.378 . S
C1232 C1236 1.350 . S
C1233 C1236 1.463 . S
C1233 C1238 1.350 . S
C1233 N1241 1.427 . S
C1234 H1225 0.930 . S
C1234 C1232 1.378 . S
C1234 C1235 1.367 . S
C1235 C1234 1.367 . S
C1235 C1237 1.433 . S
C1236 C1232 1.350 . S
C1236 C1233 1.463 . S
C1236 N1240 1.427 . S
C1237 H1227 0.929 . S
C1237 C1235 1.433 . S
C1237 N1240 1.384 . S
C1238 H1229 0.929 . S
C1238 C1230 1.378 . S
C1238 C1233 1.350 . S
C1239 H1226 0.929 . S
C1239 C1231 1.433 . S
C1239 N1241 1.384 . S
N1240 C1236 1.427 . S
N1240 C1237 1.384 . S
N1241 C1233 1.427 . S
N1241 C1239 1.384 . S
H1242 C1248 0.930 . S
H1243 C1252 0.930 . S
H1244 C1257 0.929 . S
H1245 C1255 0.929 . S
H1246 C1250 0.929 . S
H1247 C1256 0.929 . S
C1248 H1242 0.930 . S
C1248 C1249 1.367 . S
C1248 C1256 1.378 . S
C1249 C1248 1.367 . S
C1249 C1257 1.433 1_565 S
C1250 H1246 0.929 . S
C1250 C1252 1.378 . S
C1250 C1254 1.350 1_545 S
C1251 C1254 1.463 . S
C1251 C1256 1.350 . S
C1251 N1259 1.427 1_565 S
C1252 H1243 0.930 . S
C1252 C1250 1.378 . S
C1252 C1253 1.367 1_545 S
C1253 C1252 1.367 1_565 S
C1253 C1255 1.433 . S
C1254 C1250 1.350 1_565 S
C1254 C1251 1.463 . S
C1254 N1258 1.427 . S
C1255 H1245 0.929 . S
C1255 C1253 1.433 . S
C1255 N1258 1.384 . S
C1256 H1247 0.929 . S
C1256 C1248 1.378 . S
C1256 C1251 1.350 . S
C1257 H1244 0.929 . S
C1257 C1249 1.433 1_545 S
C1257 N1259 1.384 . S
N1258 C1254 1.427 . S
N1258 C1255 1.384 . S
N1259 C1251 1.427 1_545 S
N1259 C1257 1.384 . S
H1260 C1266 0.930 . S
H1261 C1270 0.930 . S
H1262 C1275 0.929 . S
H1263 C1273 0.929 . S
H1264 C1268 0.929 . S
H1265 C1274 0.929 . S
C1266 H1260 0.930 . S
C1266 C1267 1.367 . S
C1266 C1274 1.378 . S
C1267 C1266 1.367 . S
C1267 C1275 1.433 1_565 S
C1268 H1264 0.929 . S
C1268 C1270 1.378 . S
C1268 C1272 1.350 1_545 S
C1269 C1272 1.463 . S
C1269 C1274 1.350 . S
C1269 N1277 1.427 1_565 S
C1270 H1261 0.930 . S
C1270 C1268 1.378 . S
C1270 C1271 1.367 1_545 S
C1271 C1270 1.367 1_565 S
C1271 C1273 1.433 . S
C1272 C1268 1.350 1_565 S
C1272 C1269 1.463 . S
C1272 N1276 1.427 . S
C1273 H1263 0.929 . S
C1273 C1271 1.433 . S
C1273 N1276 1.384 . S
C1274 H1265 0.929 . S
C1274 C1266 1.378 . S
C1274 C1269 1.350 . S
C1275 H1262 0.929 . S
C1275 C1267 1.433 1_545 S
C1275 N1277 1.384 . S
N1276 C1272 1.427 . S
N1276 C1273 1.384 . S
N1277 C1269 1.427 1_545 S
N1277 C1275 1.384 . S
H1278 C1284 0.930 . S
H1279 C1288 0.930 . S
H1280 C1293 0.929 . S
H1281 C1291 0.929 . S
H1282 C1286 0.929 . S
H1283 C1292 0.929 . S
C1284 H1278 0.930 . S
C1284 C1285 1.367 . S
C1284 C1292 1.378 . S
C1285 C1284 1.367 . S
C1285 C1293 1.433 . S
C1286 H1282 0.929 . S
C1286 C1288 1.378 . S
C1286 C1290 1.350 . S
C1287 C1290 1.463 . S
C1287 C1292 1.350 . S
C1287 N1295 1.427 . S
C1288 H1279 0.930 . S
C1288 C1286 1.378 . S
C1288 C1289 1.367 . S
C1289 C1288 1.367 . S
C1289 C1291 1.433 . S
C1290 C1286 1.350 . S
C1290 C1287 1.463 . S
C1290 N1294 1.427 . S
C1291 H1281 0.929 . S
C1291 C1289 1.433 . S
C1291 N1294 1.384 . S
C1292 H1283 0.929 . S
C1292 C1284 1.378 . S
C1292 C1287 1.350 . S
C1293 H1280 0.929 . S
C1293 C1285 1.433 . S
C1293 N1295 1.384 . S
N1294 C1290 1.427 . S
N1294 C1291 1.384 . S
N1295 C1287 1.427 . S
N1295 C1293 1.384 . S
H1296 C1302 0.930 . S
H1297 C1306 0.930 . S
H1298 C1311 0.929 . S
H1299 C1309 0.929 . S
H1300 C1304 0.929 . S
H1301 C1310 0.929 . S
C1302 H1296 0.930 . S
C1302 C1303 1.367 . S
C1302 C1310 1.378 . S
C1303 C1302 1.367 . S
C1303 C1311 1.433 . S
C1304 H1300 0.929 . S
C1304 C1306 1.378 . S
C1304 C1308 1.350 . S
C1305 C1308 1.463 . S
C1305 C1310 1.350 . S
C1305 N1313 1.427 . S
C1306 H1297 0.930 . S
C1306 C1304 1.378 . S
C1306 C1307 1.367 . S
C1307 C1306 1.367 . S
C1307 C1309 1.433 . S
C1308 C1304 1.350 . S
C1308 C1305 1.463 . S
C1308 N1312 1.427 . S
C1309 H1299 0.929 . S
C1309 C1307 1.433 . S
C1309 N1312 1.384 . S
C1310 H1301 0.929 . S
C1310 C1302 1.378 . S
C1310 C1305 1.350 . S
C1311 H1298 0.929 . S
C1311 C1303 1.433 . S
C1311 N1313 1.384 . S
N1312 C1308 1.427 . S
N1312 C1309 1.384 . S
N1313 C1305 1.427 . S
N1313 C1311 1.384 . S
H1314 C1320 0.930 . S
H1315 C1324 0.930 . S
H1316 C1329 0.929 . S
H1317 C1327 0.929 . S
H1318 C1322 0.929 . S
H1319 C1328 0.929 . S
C1320 H1314 0.930 . S
C1320 C1321 1.367 1_455 S
C1320 C1328 1.378 . S
C1321 C1320 1.367 1_655 S
C1321 C1329 1.433 . S
C1322 H1318 0.929 . S
C1322 C1324 1.378 . S
C1322 C1326 1.350 . S
C1323 C1326 1.463 . S
C1323 C1328 1.350 1_655 S
C1323 N1331 1.427 . S
C1324 H1315 0.930 . S
C1324 C1322 1.378 . S
C1324 C1325 1.367 . S
C1325 C1324 1.367 . S
C1325 C1327 1.433 1_655 S
C1326 C1322 1.350 . S
C1326 C1323 1.463 . S
C1326 N1330 1.427 1_655 S
C1327 H1317 0.929 . S
C1327 C1325 1.433 1_455 S
C1327 N1330 1.384 . S
C1328 H1319 0.929 . S
C1328 C1320 1.378 . S
C1328 C1323 1.350 1_455 S
C1329 H1316 0.929 . S
C1329 C1321 1.433 . S
C1329 N1331 1.384 . S
N1330 C1326 1.427 1_455 S
N1330 C1327 1.384 . S
N1331 C1323 1.427 . S
N1331 C1329 1.384 . S
H1332 C1338 0.930 . S
H1333 C1342 0.930 . S
H1334 C1347 0.929 . S
H1335 C1345 0.929 . S
H1336 C1340 0.929 . S
H1337 C1346 0.929 . S
C1338 H1332 0.930 . S
C1338 C1339 1.367 . S
C1338 C1346 1.378 . S
C1339 C1338 1.367 . S
C1339 C1347 1.433 . S
C1340 H1336 0.929 . S
C1340 C1342 1.378 . S
C1340 C1344 1.350 . S
C1341 C1344 1.463 . S
C1341 C1346 1.350 . S
C1341 N1349 1.427 . S
C1342 H1333 0.930 . S
C1342 C1340 1.378 . S
C1342 C1343 1.367 . S
C1343 C1342 1.367 . S
C1343 C1345 1.433 . S
C1344 C1340 1.350 . S
C1344 C1341 1.463 . S
C1344 N1348 1.427 . S
C1345 H1335 0.929 . S
C1345 C1343 1.433 . S
C1345 N1348 1.384 . S
C1346 H1337 0.929 . S
C1346 C1338 1.378 . S
C1346 C1341 1.350 . S
C1347 H1334 0.929 . S
C1347 C1339 1.433 . S
C1347 N1349 1.384 . S
N1348 C1344 1.427 . S
N1348 C1345 1.384 . S
N1349 C1341 1.427 . S
N1349 C1347 1.384 . S
H1350 C1356 0.930 . S
H1351 C1360 0.930 . S
H1352 C1365 0.929 . S
H1353 C1363 0.929 . S
H1354 C1358 0.929 . S
H1355 C1364 0.929 . S
C1356 H1350 0.930 . S
C1356 C1357 1.367 . S
C1356 C1364 1.378 . S
C1357 C1356 1.367 . S
C1357 C1365 1.433 . S
C1358 H1354 0.929 . S
C1358 C1360 1.378 . S
C1358 C1362 1.350 . S
C1359 C1362 1.463 . S
C1359 C1364 1.350 . S
C1359 N1367 1.427 . S
C1360 H1351 0.930 . S
C1360 C1358 1.378 . S
C1360 C1361 1.367 . S
C1361 C1360 1.367 . S
C1361 C1363 1.433 . S
C1362 C1358 1.350 . S
C1362 C1359 1.463 . S
C1362 N1366 1.427 . S
C1363 H1353 0.929 . S
C1363 C1361 1.433 . S
C1363 N1366 1.384 . S
C1364 H1355 0.929 . S
C1364 C1356 1.378 . S
C1364 C1359 1.350 . S
C1365 H1352 0.929 . S
C1365 C1357 1.433 . S
C1365 N1367 1.384 . S
N1366 C1362 1.427 . S
N1366 C1363 1.384 . S
N1367 C1359 1.427 . S
N1367 C1365 1.384 . S
H1368 C1374 0.930 . S
H1369 C1378 0.930 . S
H1370 C1383 0.929 . S
H1371 C1381 0.929 . S
H1372 C1376 0.929 . S
H1373 C1382 0.929 . S
C1374 H1368 0.930 . S
C1374 C1375 1.367 . S
C1374 C1382 1.378 . S
C1375 C1374 1.367 . S
C1375 C1383 1.433 . S
C1376 H1372 0.929 . S
C1376 C1378 1.378 . S
C1376 C1380 1.350 . S
C1377 C1380 1.463 . S
C1377 C1382 1.350 . S
C1377 N1385 1.427 . S
C1378 H1369 0.930 . S
C1378 C1376 1.378 . S
C1378 C1379 1.367 . S
C1379 C1378 1.367 . S
C1379 C1381 1.433 . S
C1380 C1376 1.350 . S
C1380 C1377 1.463 . S
C1380 N1384 1.427 . S
C1381 H1371 0.929 . S
C1381 C1379 1.433 . S
C1381 N1384 1.384 . S
C1382 H1373 0.929 . S
C1382 C1374 1.378 . S
C1382 C1377 1.350 . S
C1383 H1370 0.929 . S
C1383 C1375 1.433 . S
C1383 N1385 1.384 . S
N1384 C1380 1.427 . S
N1384 C1381 1.384 . S
N1385 C1377 1.427 . S
N1385 C1383 1.384 . S
H1386 C1392 0.930 . S
H1387 C1396 0.930 . S
H1388 C1401 0.929 . S
H1389 C1399 0.929 . S
H1390 C1394 0.929 . S
H1391 C1400 0.929 . S
C1392 H1386 0.930 . S
C1392 C1393 1.367 . S
C1392 C1400 1.378 . S
C1393 C1392 1.367 . S
C1393 C1401 1.433 . S
C1394 H1390 0.929 . S
C1394 C1396 1.378 . S
C1394 C1398 1.350 . S
C1395 C1398 1.463 . S
C1395 C1400 1.350 . S
C1395 N1403 1.427 . S
C1396 H1387 0.930 . S
C1396 C1394 1.378 . S
C1396 C1397 1.367 . S
C1397 C1396 1.367 . S
C1397 C1399 1.433 . S
C1398 C1394 1.350 . S
C1398 C1395 1.463 . S
C1398 N1402 1.427 . S
C1399 H1389 0.929 . S
C1399 C1397 1.433 . S
C1399 N1402 1.384 . S
C1400 H1391 0.929 . S
C1400 C1392 1.378 . S
C1400 C1395 1.350 . S
C1401 H1388 0.929 . S
C1401 C1393 1.433 . S
C1401 N1403 1.384 . S
N1402 C1398 1.427 . S
N1402 C1399 1.384 . S
N1403 C1395 1.427 . S
N1403 C1401 1.384 . S
H1404 C1410 0.930 . S
H1405 C1414 0.930 . S
H1406 C1419 0.929 . S
H1407 C1417 0.929 . S
H1408 C1412 0.929 . S
H1409 C1418 0.929 . S
C1410 H1404 0.930 . S
C1410 C1411 1.367 . S
C1410 C1418 1.378 . S
C1411 C1410 1.367 . S
C1411 C1419 1.433 . S
C1412 H1408 0.929 . S
C1412 C1414 1.378 . S
C1412 C1416 1.350 . S
C1413 C1416 1.463 . S
C1413 C1418 1.350 . S
C1413 N1421 1.427 . S
C1414 H1405 0.930 . S
C1414 C1412 1.378 . S
C1414 C1415 1.367 . S
C1415 C1414 1.367 . S
C1415 C1417 1.433 . S
C1416 C1412 1.350 . S
C1416 C1413 1.463 . S
C1416 N1420 1.427 . S
C1417 H1407 0.929 . S
C1417 C1415 1.433 . S
C1417 N1420 1.384 . S
C1418 H1409 0.929 . S
C1418 C1410 1.378 . S
C1418 C1413 1.350 . S
C1419 H1406 0.929 . S
C1419 C1411 1.433 . S
C1419 N1421 1.384 . S
N1420 C1416 1.427 . S
N1420 C1417 1.384 . S
N1421 C1413 1.427 . S
N1421 C1419 1.384 . S
H1422 C1428 0.930 . S
H1423 C1432 0.930 . S
H1424 C1437 0.929 . S
H1425 C1435 0.929 . S
H1426 C1430 0.929 . S
H1427 C1436 0.929 . S
C1428 H1422 0.930 . S
C1428 C1429 1.367 . S
C1428 C1436 1.378 . S
C1429 C1428 1.367 . S
C1429 C1437 1.433 . S
C1430 H1426 0.929 . S
C1430 C1432 1.378 . S
C1430 C1434 1.350 . S
C1431 C1434 1.463 . S
C1431 C1436 1.350 . S
C1431 N1439 1.427 . S
C1432 H1423 0.930 . S
C1432 C1430 1.378 . S
C1432 C1433 1.367 . S
C1433 C1432 1.367 . S
C1433 C1435 1.433 . S
C1434 C1430 1.350 . S
C1434 C1431 1.463 . S
C1434 N1438 1.427 . S
C1435 H1425 0.929 . S
C1435 C1433 1.433 . S
C1435 N1438 1.384 . S
C1436 H1427 0.929 . S
C1436 C1428 1.378 . S
C1436 C1431 1.350 . S
C1437 H1424 0.929 . S
C1437 C1429 1.433 . S
C1437 N1439 1.384 . S
N1438 C1434 1.427 . S
N1438 C1435 1.384 . S
N1439 C1431 1.427 . S
N1439 C1437 1.384 . S
H1440 C1446 0.930 . S
H1441 C1450 0.930 . S
H1442 C1455 0.929 . S
H1443 C1453 0.929 . S
H1444 C1448 0.929 . S
H1445 C1454 0.929 . S
C1446 H1440 0.930 . S
C1446 C1447 1.367 . S
C1446 C1454 1.378 . S
C1447 C1446 1.367 . S
C1447 C1455 1.433 . S
C1448 H1444 0.929 . S
C1448 C1450 1.378 . S
C1448 C1452 1.350 . S
C1449 C1452 1.463 . S
C1449 C1454 1.350 . S
C1449 N1457 1.427 . S
C1450 H1441 0.930 . S
C1450 C1448 1.378 . S
C1450 C1451 1.367 . S
C1451 C1450 1.367 . S
C1451 C1453 1.433 . S
C1452 C1448 1.350 . S
C1452 C1449 1.463 . S
C1452 N1456 1.427 . S
C1453 H1443 0.929 . S
C1453 C1451 1.433 . S
C1453 N1456 1.384 . S
C1454 H1445 0.929 . S
C1454 C1446 1.378 . S
C1454 C1449 1.350 . S
C1455 H1442 0.929 . S
C1455 C1447 1.433 . S
C1455 N1457 1.384 . S
N1456 C1452 1.427 . S
N1456 C1453 1.384 . S
N1457 C1449 1.427 . S
N1457 C1455 1.384 . S
H1458 C1464 0.930 . S
H1459 C1468 0.930 . S
H1460 C1473 0.929 . S
H1461 C1471 0.929 . S
H1462 C1466 0.929 . S
H1463 C1472 0.929 . S
C1464 H1458 0.930 . S
C1464 C1465 1.367 . S
C1464 C1472 1.378 . S
C1465 C1464 1.367 . S
C1465 C1473 1.433 . S
C1466 H1462 0.929 . S
C1466 C1468 1.378 . S
C1466 C1470 1.350 . S
C1467 C1470 1.463 . S
C1467 C1472 1.350 . S
C1467 N1475 1.427 . S
C1468 H1459 0.930 . S
C1468 C1466 1.378 . S
C1468 C1469 1.367 . S
C1469 C1468 1.367 . S
C1469 C1471 1.433 . S
C1470 C1466 1.350 . S
C1470 C1467 1.463 . S
C1470 N1474 1.427 . S
C1471 H1461 0.929 . S
C1471 C1469 1.433 . S
C1471 N1474 1.384 . S
C1472 H1463 0.929 . S
C1472 C1464 1.378 . S
C1472 C1467 1.350 . S
C1473 H1460 0.929 . S
C1473 C1465 1.433 . S
C1473 N1475 1.384 . S
N1474 C1470 1.427 . S
N1474 C1471 1.384 . S
N1475 C1467 1.427 . S
N1475 C1473 1.384 . S
H1476 C1482 0.930 . S
H1477 C1486 0.930 . S
H1478 C1491 0.929 . S
H1479 C1489 0.929 . S
H1480 C1484 0.929 . S
H1481 C1490 0.929 . S
C1482 H1476 0.930 . S
C1482 C1483 1.367 . S
C1482 C1490 1.378 . S
C1483 C1482 1.367 . S
C1483 C1491 1.433 . S
C1484 H1480 0.929 . S
C1484 C1486 1.378 . S
C1484 C1488 1.350 . S
C1485 C1488 1.463 . S
C1485 C1490 1.350 . S
C1485 N1493 1.427 . S
C1486 H1477 0.930 . S
C1486 C1484 1.378 . S
C1486 C1487 1.367 . S
C1487 C1486 1.367 . S
C1487 C1489 1.433 . S
C1488 C1484 1.350 . S
C1488 C1485 1.463 . S
C1488 N1492 1.427 . S
C1489 H1479 0.929 . S
C1489 C1487 1.433 . S
C1489 N1492 1.384 . S
C1490 H1481 0.929 . S
C1490 C1482 1.378 . S
C1490 C1485 1.350 . S
C1491 H1478 0.929 . S
C1491 C1483 1.433 . S
C1491 N1493 1.384 . S
N1492 C1488 1.427 . S
N1492 C1489 1.384 . S
N1493 C1485 1.427 . S
N1493 C1491 1.384 . S
H1494 C1500 0.930 . S
H1495 C1504 0.930 . S
H1496 C1509 0.929 . S
H1497 C1507 0.929 . S
H1498 C1502 0.929 . S
H1499 C1508 0.929 . S
C1500 H1494 0.930 . S
C1500 C1501 1.367 . S
C1500 C1508 1.378 . S
C1501 C1500 1.367 . S
C1501 C1509 1.433 . S
C1502 H1498 0.929 . S
C1502 C1504 1.378 . S
C1502 C1506 1.350 . S
C1503 C1506 1.463 . S
C1503 C1508 1.350 . S
C1503 N1511 1.427 . S
C1504 H1495 0.930 . S
C1504 C1502 1.378 . S
C1504 C1505 1.367 . S
C1505 C1504 1.367 . S
C1505 C1507 1.433 . S
C1506 C1502 1.350 . S
C1506 C1503 1.463 . S
C1506 N1510 1.427 . S
C1507 H1497 0.929 . S
C1507 C1505 1.433 . S
C1507 N1510 1.384 . S
C1508 H1499 0.929 . S
C1508 C1500 1.378 . S
C1508 C1503 1.350 . S
C1509 H1496 0.929 . S
C1509 C1501 1.433 . S
C1509 N1511 1.384 . S
N1510 C1506 1.427 . S
N1510 C1507 1.384 . S
N1511 C1503 1.427 . S
N1511 C1509 1.384 . S
H1512 C1518 0.930 . S
H1513 C1522 0.930 . S
H1514 C1527 0.929 . S
H1515 C1525 0.929 . S
H1516 C1520 0.929 . S
H1517 C1526 0.929 . S
C1518 H1512 0.930 . S
C1518 C1519 1.367 . S
C1518 C1526 1.378 . S
C1519 C1518 1.367 . S
C1519 C1527 1.433 . S
C1520 H1516 0.929 . S
C1520 C1522 1.378 . S
C1520 C1524 1.350 . S
C1521 C1524 1.463 . S
C1521 C1526 1.350 . S
C1521 N1529 1.427 . S
C1522 H1513 0.930 . S
C1522 C1520 1.378 . S
C1522 C1523 1.367 . S
C1523 C1522 1.367 . S
C1523 C1525 1.433 . S
C1524 C1520 1.350 . S
C1524 C1521 1.463 . S
C1524 N1528 1.427 . S
C1525 H1515 0.929 . S
C1525 C1523 1.433 . S
C1525 N1528 1.384 . S
C1526 H1517 0.929 . S
C1526 C1518 1.378 . S
C1526 C1521 1.350 . S
C1527 H1514 0.929 . S
C1527 C1519 1.433 . S
C1527 N1529 1.384 . S
N1528 C1524 1.427 . S
N1528 C1525 1.384 . S
N1529 C1521 1.427 . S
N1529 C1527 1.384 . S
H1530 C1536 0.930 . S
H1531 C1540 0.930 . S
H1532 C1545 0.929 . S
H1533 C1543 0.929 . S
H1534 C1538 0.929 . S
H1535 C1544 0.929 . S
C1536 H1530 0.930 . S
C1536 C1537 1.367 . S
C1536 C1544 1.378 . S
C1537 C1536 1.367 . S
C1537 C1545 1.433 . S
C1538 H1534 0.929 . S
C1538 C1540 1.378 . S
C1538 C1542 1.350 . S
C1539 C1542 1.463 . S
C1539 C1544 1.350 . S
C1539 N1547 1.427 . S
C1540 H1531 0.930 . S
C1540 C1538 1.378 . S
C1540 C1541 1.367 . S
C1541 C1540 1.367 . S
C1541 C1543 1.433 . S
C1542 C1538 1.350 . S
C1542 C1539 1.463 . S
C1542 N1546 1.427 . S
C1543 H1533 0.929 . S
C1543 C1541 1.433 . S
C1543 N1546 1.384 . S
C1544 H1535 0.929 . S
C1544 C1536 1.378 . S
C1544 C1539 1.350 . S
C1545 H1532 0.929 . S
C1545 C1537 1.433 . S
C1545 N1547 1.384 . S
N1546 C1542 1.427 . S
N1546 C1543 1.384 . S
N1547 C1539 1.427 . S
N1547 C1545 1.384 . S
H1548 C1554 0.930 . S
H1549 C1558 0.930 . S
H1550 C1563 0.929 . S
H1551 C1561 0.929 . S
H1552 C1556 0.929 . S
H1553 C1562 0.929 . S
C1554 H1548 0.930 . S
C1554 C1555 1.367 . S
C1554 C1562 1.378 . S
C1555 C1554 1.367 . S
C1555 C1563 1.433 . S
C1556 H1552 0.929 . S
C1556 C1558 1.378 . S
C1556 C1560 1.350 . S
C1557 C1560 1.463 . S
C1557 C1562 1.350 . S
C1557 N1565 1.427 . S
C1558 H1549 0.930 . S
C1558 C1556 1.378 . S
C1558 C1559 1.367 . S
C1559 C1558 1.367 . S
C1559 C1561 1.433 . S
C1560 C1556 1.350 . S
C1560 C1557 1.463 . S
C1560 N1564 1.427 . S
C1561 H1551 0.929 . S
C1561 C1559 1.433 . S
C1561 N1564 1.384 . S
C1562 H1553 0.929 . S
C1562 C1554 1.378 . S
C1562 C1557 1.350 . S
C1563 H1550 0.929 . S
C1563 C1555 1.433 . S
C1563 N1565 1.384 . S
N1564 C1560 1.427 . S
N1564 C1561 1.384 . S
N1565 C1557 1.427 . S
N1565 C1563 1.384 . S
H1566 C1572 0.930 . S
H1567 C1576 0.930 . S
H1568 C1581 0.929 . S
H1569 C1579 0.929 . S
H1570 C1574 0.929 . S
H1571 C1580 0.929 . S
C1572 H1566 0.930 . S
C1572 C1573 1.367 . S
C1572 C1580 1.378 . S
C1573 C1572 1.367 . S
C1573 C1581 1.433 . S
C1574 H1570 0.929 . S
C1574 C1576 1.378 . S
C1574 C1578 1.350 . S
C1575 C1578 1.463 . S
C1575 C1580 1.350 . S
C1575 N1583 1.427 . S
C1576 H1567 0.930 . S
C1576 C1574 1.378 . S
C1576 C1577 1.367 . S
C1577 C1576 1.367 . S
C1577 C1579 1.433 . S
C1578 C1574 1.350 . S
C1578 C1575 1.463 . S
C1578 N1582 1.427 . S
C1579 H1569 0.929 . S
C1579 C1577 1.433 . S
C1579 N1582 1.384 . S
C1580 H1571 0.929 . S
C1580 C1572 1.378 . S
C1580 C1575 1.350 . S
C1581 H1568 0.929 . S
C1581 C1573 1.433 . S
C1581 N1583 1.384 . S
N1582 C1578 1.427 . S
N1582 C1579 1.384 . S
N1583 C1575 1.427 . S
N1583 C1581 1.384 . S
H1584 C1590 0.930 . S
H1585 C1594 0.930 . S
H1586 C1599 0.929 . S
H1587 C1597 0.929 . S
H1588 C1592 0.929 . S
H1589 C1598 0.929 . S
C1590 H1584 0.930 . S
C1590 C1591 1.367 . S
C1590 C1598 1.378 . S
C1591 C1590 1.367 . S
C1591 C1599 1.433 . S
C1592 H1588 0.929 . S
C1592 C1594 1.378 . S
C1592 C1596 1.350 . S
C1593 C1596 1.463 . S
C1593 C1598 1.350 . S
C1593 N1601 1.427 . S
C1594 H1585 0.930 . S
C1594 C1592 1.378 . S
C1594 C1595 1.367 . S
C1595 C1594 1.367 . S
C1595 C1597 1.433 . S
C1596 C1592 1.350 . S
C1596 C1593 1.463 . S
C1596 N1600 1.427 . S
C1597 H1587 0.929 . S
C1597 C1595 1.433 . S
C1597 N1600 1.384 . S
C1598 H1589 0.929 . S
C1598 C1590 1.378 . S
C1598 C1593 1.350 . S
C1599 H1586 0.929 . S
C1599 C1591 1.433 . S
C1599 N1601 1.384 . S
N1600 C1596 1.427 . S
N1600 C1597 1.384 . S
N1601 C1593 1.427 . S
N1601 C1599 1.384 . S
H1602 C1608 0.930 . S
H1603 C1612 0.930 . S
H1604 C1617 0.929 . S
H1605 C1615 0.929 . S
H1606 C1610 0.929 . S
H1607 C1616 0.929 . S
C1608 H1602 0.930 . S
C1608 C1609 1.367 . S
C1608 C1616 1.378 . S
C1609 C1608 1.367 . S
C1609 C1617 1.433 . S
C1610 H1606 0.929 . S
C1610 C1612 1.378 . S
C1610 C1614 1.350 . S
C1611 C1614 1.463 . S
C1611 C1616 1.350 . S
C1611 N1619 1.427 . S
C1612 H1603 0.930 . S
C1612 C1610 1.378 . S
C1612 C1613 1.367 . S
C1613 C1612 1.367 . S
C1613 C1615 1.433 . S
C1614 C1610 1.350 . S
C1614 C1611 1.463 . S
C1614 N1618 1.427 . S
C1615 H1605 0.929 . S
C1615 C1613 1.433 . S
C1615 N1618 1.384 . S
C1616 H1607 0.929 . S
C1616 C1608 1.378 . S
C1616 C1611 1.350 . S
C1617 H1604 0.929 . S
C1617 C1609 1.433 . S
C1617 N1619 1.384 . S
N1618 C1614 1.427 . S
N1618 C1615 1.384 . S
N1619 C1611 1.427 . S
N1619 C1617 1.384 . S
H1620 C1626 0.930 . S
H1621 C1630 0.930 . S
H1622 C1635 0.929 . S
H1623 C1633 0.929 . S
H1624 C1628 0.929 . S
H1625 C1634 0.929 . S
C1626 H1620 0.930 . S
C1626 C1627 1.367 . S
C1626 C1634 1.378 . S
C1627 C1626 1.367 . S
C1627 C1635 1.433 . S
C1628 H1624 0.929 . S
C1628 C1630 1.378 . S
C1628 C1632 1.350 . S
C1629 C1632 1.463 . S
C1629 C1634 1.350 . S
C1629 N1637 1.427 . S
C1630 H1621 0.930 . S
C1630 C1628 1.378 . S
C1630 C1631 1.367 . S
C1631 C1630 1.367 . S
C1631 C1633 1.433 . S
C1632 C1628 1.350 . S
C1632 C1629 1.463 . S
C1632 N1636 1.427 . S
C1633 H1623 0.929 . S
C1633 C1631 1.433 . S
C1633 N1636 1.384 . S
C1634 H1625 0.929 . S
C1634 C1626 1.378 . S
C1634 C1629 1.350 . S
C1635 H1622 0.929 . S
C1635 C1627 1.433 . S
C1635 N1637 1.384 . S
N1636 C1632 1.427 . S
N1636 C1633 1.384 . S
N1637 C1629 1.427 . S
N1637 C1635 1.384 . S
H1638 C1644 0.930 . S
H1639 C1648 0.930 . S
H1640 C1653 0.929 . S
H1641 C1651 0.929 . S
H1642 C1646 0.929 . S
H1643 C1652 0.929 . S
C1644 H1638 0.930 . S
C1644 C1645 1.367 . S
C1644 C1652 1.378 . S
C1645 C1644 1.367 . S
C1645 C1653 1.433 . S
C1646 H1642 0.929 . S
C1646 C1648 1.378 . S
C1646 C1650 1.350 . S
C1647 C1650 1.463 . S
C1647 C1652 1.350 . S
C1647 N1655 1.427 . S
C1648 H1639 0.930 . S
C1648 C1646 1.378 . S
C1648 C1649 1.367 . S
C1649 C1648 1.367 . S
C1649 C1651 1.433 . S
C1650 C1646 1.350 . S
C1650 C1647 1.463 . S
C1650 N1654 1.427 . S
C1651 H1641 0.929 . S
C1651 C1649 1.433 . S
C1651 N1654 1.384 . S
C1652 H1643 0.929 . S
C1652 C1644 1.378 . S
C1652 C1647 1.350 . S
C1653 H1640 0.929 . S
C1653 C1645 1.433 . S
C1653 N1655 1.384 . S
N1654 C1650 1.427 . S
N1654 C1651 1.384 . S
N1655 C1647 1.427 . S
N1655 C1653 1.384 . S
H1656 C1662 0.930 . S
H1657 C1666 0.930 . S
H1658 C1671 0.929 . S
H1659 C1669 0.929 . S
H1660 C1664 0.929 . S
H1661 C1670 0.929 . S
C1662 H1656 0.930 . S
C1662 C1663 1.367 . S
C1662 C1670 1.378 . S
C1663 C1662 1.367 . S
C1663 C1671 1.433 . S
C1664 H1660 0.929 . S
C1664 C1666 1.378 . S
C1664 C1668 1.350 . S
C1665 C1668 1.463 . S
C1665 C1670 1.350 . S
C1665 N1673 1.427 . S
C1666 H1657 0.930 . S
C1666 C1664 1.378 . S
C1666 C1667 1.367 . S
C1667 C1666 1.367 . S
C1667 C1669 1.433 . S
C1668 C1664 1.350 . S
C1668 C1665 1.463 . S
C1668 N1672 1.427 . S
C1669 H1659 0.929 . S
C1669 C1667 1.433 . S
C1669 N1672 1.384 . S
C1670 H1661 0.929 . S
C1670 C1662 1.378 . S
C1670 C1665 1.350 . S
C1671 H1658 0.929 . S
C1671 C1663 1.433 . S
C1671 N1673 1.384 . S
N1672 C1668 1.427 . S
N1672 C1669 1.384 . S
N1673 C1665 1.427 . S
N1673 C1671 1.384 . S
H1674 C1680 0.930 . S
H1675 C1684 0.930 . S
H1676 C1689 0.929 . S
H1677 C1687 0.929 . S
H1678 C1682 0.929 . S
H1679 C1688 0.929 . S
C1680 H1674 0.930 . S
C1680 C1681 1.367 . S
C1680 C1688 1.378 . S
C1681 C1680 1.367 . S
C1681 C1689 1.433 . S
C1682 H1678 0.929 . S
C1682 C1684 1.378 . S
C1682 C1686 1.350 . S
C1683 C1686 1.463 . S
C1683 C1688 1.350 . S
C1683 N1691 1.427 . S
C1684 H1675 0.930 . S
C1684 C1682 1.378 . S
C1684 C1685 1.367 . S
C1685 C1684 1.367 . S
C1685 C1687 1.433 . S
C1686 C1682 1.350 . S
C1686 C1683 1.463 . S
C1686 N1690 1.427 . S
C1687 H1677 0.929 . S
C1687 C1685 1.433 . S
C1687 N1690 1.384 . S
C1688 H1679 0.929 . S
C1688 C1680 1.378 . S
C1688 C1683 1.350 . S
C1689 H1676 0.929 . S
C1689 C1681 1.433 . S
C1689 N1691 1.384 . S
N1690 C1686 1.427 . S
N1690 C1687 1.384 . S
N1691 C1683 1.427 . S
N1691 C1689 1.384 . S
H1692 C1698 0.930 . S
H1693 C1702 0.930 . S
H1694 C1707 0.929 . S
H1695 C1705 0.929 . S
H1696 C1700 0.929 . S
H1697 C1706 0.929 . S
C1698 H1692 0.930 . S
C1698 C1699 1.367 . S
C1698 C1706 1.378 . S
C1699 C1698 1.367 . S
C1699 C1707 1.433 . S
C1700 H1696 0.929 . S
C1700 C1702 1.378 . S
C1700 C1704 1.350 . S
C1701 C1704 1.463 . S
C1701 C1706 1.350 . S
C1701 N1709 1.427 . S
C1702 H1693 0.930 . S
C1702 C1700 1.378 . S
C1702 C1703 1.367 . S
C1703 C1702 1.367 . S
C1703 C1705 1.433 . S
C1704 C1700 1.350 . S
C1704 C1701 1.463 . S
C1704 N1708 1.427 . S
C1705 H1695 0.929 . S
C1705 C1703 1.433 . S
C1705 N1708 1.384 . S
C1706 H1697 0.929 . S
C1706 C1698 1.378 . S
C1706 C1701 1.350 . S
C1707 H1694 0.929 . S
C1707 C1699 1.433 . S
C1707 N1709 1.384 . S
N1708 C1704 1.427 . S
N1708 C1705 1.384 . S
N1709 C1701 1.427 . S
N1709 C1707 1.384 . S
H1710 C1716 0.930 . S
H1711 C1720 0.930 . S
H1712 C1725 0.929 . S
H1713 C1723 0.929 . S
H1714 C1718 0.929 . S
H1715 C1724 0.929 . S
C1716 H1710 0.930 . S
C1716 C1717 1.367 . S
C1716 C1724 1.378 . S
C1717 C1716 1.367 . S
C1717 C1725 1.433 . S
C1718 H1714 0.929 . S
C1718 C1720 1.378 . S
C1718 C1722 1.350 . S
C1719 C1722 1.463 . S
C1719 C1724 1.350 . S
C1719 N1727 1.427 . S
C1720 H1711 0.930 . S
C1720 C1718 1.378 . S
C1720 C1721 1.367 . S
C1721 C1720 1.367 . S
C1721 C1723 1.433 . S
C1722 C1718 1.350 . S
C1722 C1719 1.463 . S
C1722 N1726 1.427 . S
C1723 H1713 0.929 . S
C1723 C1721 1.433 . S
C1723 N1726 1.384 . S
C1724 H1715 0.929 . S
C1724 C1716 1.378 . S
C1724 C1719 1.350 . S
C1725 H1712 0.929 . S
C1725 C1717 1.433 . S
C1725 N1727 1.384 . S
N1726 C1722 1.427 . S
N1726 C1723 1.384 . S
N1727 C1719 1.427 . S
N1727 C1725 1.384 . S
H1728 C1734 0.930 . S
H1729 C1738 0.930 . S
H1730 C1743 0.929 . S
H1731 C1741 0.929 . S
H1732 C1736 0.929 . S
H1733 C1742 0.929 . S
C1734 H1728 0.930 . S
C1734 C1735 1.367 . S
C1734 C1742 1.378 . S
C1735 C1734 1.367 . S
C1735 C1743 1.433 . S
C1736 H1732 0.929 . S
C1736 C1738 1.378 . S
C1736 C1740 1.350 . S
C1737 C1740 1.463 . S
C1737 C1742 1.350 . S
C1737 N1745 1.427 . S
C1738 H1729 0.930 . S
C1738 C1736 1.378 . S
C1738 C1739 1.367 . S
C1739 C1738 1.367 . S
C1739 C1741 1.433 . S
C1740 C1736 1.350 . S
C1740 C1737 1.463 . S
C1740 N1744 1.427 . S
C1741 H1731 0.929 . S
C1741 C1739 1.433 . S
C1741 N1744 1.384 . S
C1742 H1733 0.929 . S
C1742 C1734 1.378 . S
C1742 C1737 1.350 . S
C1743 H1730 0.929 . S
C1743 C1735 1.433 . S
C1743 N1745 1.384 . S
N1744 C1740 1.427 . S
N1744 C1741 1.384 . S
N1745 C1737 1.427 . S
N1745 C1743 1.384 . S
H1746 C1752 0.930 . S
H1747 C1756 0.930 . S
H1748 C1761 0.929 . S
H1749 C1759 0.929 . S
H1750 C1754 0.929 . S
H1751 C1760 0.929 . S
C1752 H1746 0.930 . S
C1752 C1753 1.367 . S
C1752 C1760 1.378 . S
C1753 C1752 1.367 . S
C1753 C1761 1.433 . S
C1754 H1750 0.929 . S
C1754 C1756 1.378 . S
C1754 C1758 1.350 . S
C1755 C1758 1.463 . S
C1755 C1760 1.350 . S
C1755 N1763 1.427 . S
C1756 H1747 0.930 . S
C1756 C1754 1.378 . S
C1756 C1757 1.367 . S
C1757 C1756 1.367 . S
C1757 C1759 1.433 . S
C1758 C1754 1.350 . S
C1758 C1755 1.463 . S
C1758 N1762 1.427 . S
C1759 H1749 0.929 . S
C1759 C1757 1.433 . S
C1759 N1762 1.384 . S
C1760 H1751 0.929 . S
C1760 C1752 1.378 . S
C1760 C1755 1.350 . S
C1761 H1748 0.929 . S
C1761 C1753 1.433 . S
C1761 N1763 1.384 . S
N1762 C1758 1.427 . S
N1762 C1759 1.384 . S
N1763 C1755 1.427 . S
N1763 C1761 1.384 . S
H1764 C1770 0.930 . S
H1765 C1774 0.930 . S
H1766 C1779 0.929 . S
H1767 C1777 0.929 . S
H1768 C1772 0.929 . S
H1769 C1778 0.929 . S
C1770 H1764 0.930 . S
C1770 C1771 1.367 . S
C1770 C1778 1.378 . S
C1771 C1770 1.367 . S
C1771 C1779 1.433 . S
C1772 H1768 0.929 . S
C1772 C1774 1.378 . S
C1772 C1776 1.350 . S
C1773 C1776 1.463 . S
C1773 C1778 1.350 . S
C1773 N1781 1.427 . S
C1774 H1765 0.930 . S
C1774 C1772 1.378 . S
C1774 C1775 1.367 . S
C1775 C1774 1.367 . S
C1775 C1777 1.433 . S
C1776 C1772 1.350 . S
C1776 C1773 1.463 . S
C1776 N1780 1.427 . S
C1777 H1767 0.929 . S
C1777 C1775 1.433 . S
C1777 N1780 1.384 . S
C1778 H1769 0.929 . S
C1778 C1770 1.378 . S
C1778 C1773 1.350 . S
C1779 H1766 0.929 . S
C1779 C1771 1.433 . S
C1779 N1781 1.384 . S
N1780 C1776 1.427 . S
N1780 C1777 1.384 . S
N1781 C1773 1.427 . S
N1781 C1779 1.384 . S
H1782 C1788 0.930 . S
H1783 C1792 0.930 . S
H1784 C1797 0.929 . S
H1785 C1795 0.929 . S
H1786 C1790 0.929 . S
H1787 C1796 0.929 . S
C1788 H1782 0.930 . S
C1788 C1789 1.367 . S
C1788 C1796 1.378 . S
C1789 C1788 1.367 . S
C1789 C1797 1.433 . S
C1790 H1786 0.929 . S
C1790 C1792 1.378 . S
C1790 C1794 1.350 . S
C1791 C1794 1.463 . S
C1791 C1796 1.350 . S
C1791 N1799 1.427 . S
C1792 H1783 0.930 . S
C1792 C1790 1.378 . S
C1792 C1793 1.367 . S
C1793 C1792 1.367 . S
C1793 C1795 1.433 . S
C1794 C1790 1.350 . S
C1794 C1791 1.463 . S
C1794 N1798 1.427 . S
C1795 H1785 0.929 . S
C1795 C1793 1.433 . S
C1795 N1798 1.384 . S
C1796 H1787 0.929 . S
C1796 C1788 1.378 . S
C1796 C1791 1.350 . S
C1797 H1784 0.929 . S
C1797 C1789 1.433 . S
C1797 N1799 1.384 . S
N1798 C1794 1.427 . S
N1798 C1795 1.384 . S
N1799 C1791 1.427 . S
N1799 C1797 1.384 . S
C511 C37 1.291 . S
C515 C256 1.104 . S
C529 C9 1.267 . S
C533 C272 1.117 . S
C551 C255 1.139 . S
C547 C19 1.297 . S
C569 C280 1.098 . S
C565 C33 1.287 . S
C583 C5 1.314 . S
C587 C289 1.132 . S
C605 C292 1.121 . S
C601 C23 1.292 . S
C619 C75 1.283 . S
C623 C298 1.094 . S
C641 C314 1.111 . S
C637 C51 1.257 . S
C659 C297 1.137 . S
C655 C65 1.316 . S
C673 C79 1.312 . S
C677 C322 1.134 . S
C695 C331 1.132 . S
C691 C47 1.304 . S
C713 C334 1.117 . S
C709 C61 1.273 . S
C731 C343 1.137 . S
C727 C121 1.291 . S
C749 C355 1.112 . S
C745 C93 1.277 . S
C767 C352 1.145 . S
C763 C103 1.291 . S
C781 C117 1.284 . S
C785 C361 1.131 . S
C803 C360 1.140 . S
C799 C89 1.319 . S
C817 C107 1.288 . S
C821 C377 1.139 . S
C839 C382 1.096 . S
C835 C159 1.284 . S
C857 C398 1.102 . S
C853 C135 1.266 . S
C871 C149 1.313 . S
C875 C381 1.135 . S
C893 C406 1.115 . S
C889 C163 1.306 . S
C911 C415 1.127 . S
C907 C131 1.305 . S
C925 C145 1.274 . S
C929 C418 1.122 . S
C943 C205 1.286 . S
C947 C427 1.116 . S
C965 C439 1.100 . S
C961 C177 1.274 . S
C983 C436 1.131 . S
C979 C187 1.291 . S
C997 C201 1.288 . S
C1001 C445 1.099 . S
C1019 C444 1.139 . S
C1015 C173 1.319 . S
C1033 C191 1.288 . S
C1037 C461 1.139 . S
C1055 C466 1.095 . S
C1051 C243 1.282 . S
C1073 C482 1.103 . S
C1069 C219 1.257 . S
C1087 C233 1.318 . S
C1091 C465 1.143 . S
C1109 C487 1.143 . S
C1105 C247 1.311 . S
C1127 C486 1.130 . S
C1123 C215 1.304 . S
C1145 C503 1.126 . S
C1141 C229 1.277 . S
C1163 C268 1.541 . S
C1159 C154 1.624 . S
C1177 C137 1.529 . S
C1181 C271 1.433 . S
C1199 C259 1.448 . S
C1195 C151 1.543 . S
C1213 C249 1.585 . S
C1217 C276 1.505 . S
C1231 C210 1.525 . S
C1235 C277 1.440 . S
C1253 C293 1.554 . S
C1249 C224 1.641 . S
C1271 C310 1.421 1_565 S
C1267 C207 1.511 . S
C1289 C313 1.516 . S
C1285 C179 1.606 . S
C1303 C182 1.565 . S
C1307 C301 1.470 . S
C1325 C318 1.538 . S
C1321 C112 1.618 . S
C1339 C84 1.608 . S
C1343 C319 1.518 . S
C1357 C109 1.532 . S
C1361 C335 1.434 . S
C1375 C238 1.625 . S
C1379 C339 1.543 . S
C1393 C221 1.527 . S
C1397 C356 1.426 . S
C1415 C340 1.429 . S
C1411 C235 1.539 . S
C1433 C373 1.487 . S
C1429 C81 1.582 . S
C1451 C364 1.424 . S
C1447 C42 1.517 . S
C1465 C56 1.643 . S
C1469 C376 1.559 . S
C1487 C394 1.428 . S
C1483 C39 1.520 . S
C1505 C397 1.505 . S
C1501 C11 1.609 . S
C1519 C14 1.568 . S
C1523 C385 1.477 . S
C1541 C402 1.534 . S
C1537 C196 1.613 . S
C1559 C403 1.510 . S
C1555 C168 1.610 . S
C1577 C419 1.437 . S
C1573 C193 1.530 . S
C1595 C423 1.546 . S
C1591 C70 1.628 . S
C1613 C440 1.445 . S
C1609 C53 1.531 . S
C1627 C67 1.544 . S
C1631 C424 1.445 . S
C1645 C165 1.582 . S
C1649 C457 1.487 . S
C1663 C126 1.523 . S
C1667 C448 1.440 . S
C1685 C460 1.548 . S
C1681 C140 1.640 . S
C1699 C123 1.520 . S
C1703 C478 1.433 . S
C1717 C95 1.611 . S
C1721 C481 1.521 . S
C1739 C469 1.479 . S
C1735 C98 1.570 1_565 S
C1757 C499 1.534 . S
C1753 C28 1.619 . S
C1775 C490 1.507 . S
C1771 C0 1.600 . S
C1789 C25 1.529 . S
C1793 C502 1.439 . S
