# Generated by pormake.
# Topology zzz, (3,6)-cn, num edge types: 1
# Building blocks:
#     Node 0, Type 0, BuildingBlock: WUSLED_clean_sbu_0, # of connection points: 3
#     Node 1, Type 0, BuildingBlock: WUSLED_clean_sbu_0, # of connection points: 3
#     Node 2, Type 0, BuildingBlock: WUSLED_clean_sbu_0, # of connection points: 3
#     Node 3, Type 0, BuildingBlock: WUSLED_clean_sbu_0, # of connection points: 3
#     Node 4, Type 0, BuildingBlock: WUSLED_clean_sbu_0, # of connection points: 3
#     Node 5, Type 0, BuildingBlock: WUSLED_clean_sbu_0, # of connection points: 3
#     Node 6, Type 0, BuildingBlock: WUSLED_clean_sbu_0, # of connection points: 3
#     Node 7, Type 0, BuildingBlock: WUSLED_clean_sbu_0, # of connection points: 3
#     Node 8, Type 1, BuildingBlock: BETDEL_clean_sbu_0, # of connection points: 6
#     Node 9, Type 1, BuildingBlock: BETDEL_clean_sbu_0, # of connection points: 6
#     Node 10, Type 1, BuildingBlock: BETDEL_clean_sbu_0, # of connection points: 6
#     Node 11, Type 1, BuildingBlock: BETDEL_clean_sbu_0, # of connection points: 6
#     Edge 12, Type (0, 1), BuildingBlock: XUDNAN_clean_linker_2, # of connection points: 2
#     Edge 13, Type (0, 1), BuildingBlock: XUDNAN_clean_linker_2, # of connection points: 2
#     Edge 14, Type (0, 1), BuildingBlock: XUDNAN_clean_linker_2, # of connection points: 2
#     Edge 15, Type (0, 1), BuildingBlock: XUDNAN_clean_linker_2, # of connection points: 2
#     Edge 16, Type (0, 1), BuildingBlock: XUDNAN_clean_linker_2, # of connection points: 2
#     Edge 17, Type (0, 1), BuildingBlock: XUDNAN_clean_linker_2, # of connection points: 2
#     Edge 18, Type (0, 1), BuildingBlock: XUDNAN_clean_linker_2, # of connection points: 2
#     Edge 19, Type (0, 1), BuildingBlock: XUDNAN_clean_linker_2, # of connection points: 2
#     Edge 20, Type (0, 1), BuildingBlock: XUDNAN_clean_linker_2, # of connection points: 2
#     Edge 21, Type (0, 1), BuildingBlock: XUDNAN_clean_linker_2, # of connection points: 2
#     Edge 22, Type (0, 1), BuildingBlock: XUDNAN_clean_linker_2, # of connection points: 2
#     Edge 23, Type (0, 1), BuildingBlock: XUDNAN_clean_linker_2, # of connection points: 2
#     Edge 24, Type (0, 1), BuildingBlock: XUDNAN_clean_linker_2, # of connection points: 2
#     Edge 25, Type (0, 1), BuildingBlock: XUDNAN_clean_linker_2, # of connection points: 2
#     Edge 26, Type (0, 1), BuildingBlock: XUDNAN_clean_linker_2, # of connection points: 2
#     Edge 27, Type (0, 1), BuildingBlock: XUDNAN_clean_linker_2, # of connection points: 2
#     Edge 28, Type (0, 1), BuildingBlock: XUDNAN_clean_linker_2, # of connection points: 2
#     Edge 29, Type (0, 1), BuildingBlock: XUDNAN_clean_linker_2, # of connection points: 2
#     Edge 30, Type (0, 1), BuildingBlock: XUDNAN_clean_linker_2, # of connection points: 2
#     Edge 31, Type (0, 1), BuildingBlock: XUDNAN_clean_linker_2, # of connection points: 2
#     Edge 32, Type (0, 1), BuildingBlock: XUDNAN_clean_linker_2, # of connection points: 2
#     Edge 33, Type (0, 1), BuildingBlock: XUDNAN_clean_linker_2, # of connection points: 2
#     Edge 34, Type (0, 1), BuildingBlock: XUDNAN_clean_linker_2, # of connection points: 2
#     Edge 35, Type (0, 1), BuildingBlock: XUDNAN_clean_linker_2, # of connection points: 2
# Relax obj value: 0.314
# Max RMSD: 0.219
# Mean RMSD: 0.203
data_MOF--net-zzz--node1-WUSLED_clean_sbu_0--node2-BETDEL_clean_sbu_0--edge1-XUDNAN_clean_linker_2
_symmetry_space_group_name_H-M    P1
_symmetry_Int_Tables_number       1
_symmetry_cell_setting            triclinic
loop_
_symmetry_equiv_pos_as_xyz
'x, y, z'
_cell_length_a     60.86489
_cell_length_b     60.374522
_cell_length_c     21.271224
_cell_angle_alpha  90.829496
_cell_angle_beta   90.041144
_cell_angle_gamma 95.422409
loop_
_atom_site_label
_atom_site_type_symbol
_atom_site_fract_x
_atom_site_fract_y
_atom_site_fract_z
_atom_type_partial_charge
C0 C 0.79284 0.45069 0.1999 0.0
C1 C 0.81125 0.44401 0.16767 0.0
C2 C 0.83548 0.45671 0.25611 0.0
C3 C 0.83231 0.4469 0.19558 0.0
C4 C 0.81676 0.46244 0.28907 0.0
C5 C 0.79576 0.45949 0.26121 0.0
U6 U 0.74707 0.44423 0.06628 0.0
O7 O 0.72077 0.46665 0.06076 0.0
O8 O 0.71212 0.43105 0.07491 0.0
C9 C 0.70489 0.45038 0.06251 0.0
C10 C 0.7706 0.44997 0.17076 0.0
C11 C 0.68849 0.45055 0.01133 0.0
C12 C 0.65123 0.45607 0.97682 0.0
C13 C 0.66665 0.45448 0.0252 0.0
C14 C 0.67935 0.44976 0.8999 0.0
C15 C 0.65735 0.45374 0.91346 0.0
C16 C 0.69472 0.44816 0.94827 0.0
C17 C 0.78681 0.43182 0.93188 0.0
C18 C 0.81254 0.43944 0.84634 0.0
C19 C 0.82528 0.42634 0.94609 0.0
C20 C 0.80382 0.42511 0.96934 0.0
C21 C 0.82992 0.4345 0.88549 0.0
C22 C 0.79107 0.43813 0.86959 0.0
C23 C 0.76516 0.43483 0.95838 0.0
O24 O 0.76726 0.4661 0.13213 0.0
O25 O 0.76092 0.43056 0.15217 0.0
O26 O 0.75678 0.41949 0.99711 0.0
O27 O 0.76278 0.4552 0.97788 0.0
H28 H 0.80946 0.43709 0.12055 0.0
H29 H 0.84622 0.44187 0.16903 0.0
H30 H 0.81843 0.47019 0.33526 0.0
H31 H 0.78178 0.46475 0.28706 0.0
H32 H 0.63444 0.45885 0.98911 0.0
H33 H 0.66156 0.45648 0.07357 0.0
H34 H 0.68481 0.44818 0.85173 0.0
H35 H 0.71156 0.44535 0.93643 0.0
H36 H 0.81574 0.44585 0.79958 0.0
H37 H 0.83845 0.42211 0.97668 0.0
H38 H 0.80072 0.41999 0.01733 0.0
H39 H 0.77799 0.44329 0.84014 0.0
C40 C 0.95136 0.78669 0.21563 0.0
C41 C 0.95095 0.8071 0.18479 0.0
C42 C 0.95547 0.82736 0.28543 0.0
C43 C 0.95298 0.82727 0.21942 0.0
C44 C 0.95593 0.80674 0.31543 0.0
C45 C 0.9538 0.78676 0.28104 0.0
U46 U 0.94475 0.74817 0.06724 0.0
O47 O 0.96467 0.72064 0.0444 0.0
O48 O 0.92886 0.71379 0.05711 0.0
C49 C 0.94756 0.70565 0.04302 0.0
C50 C 0.95032 0.76508 0.18159 0.0
C51 C 0.94734 0.68812 0.99353 0.0
C52 C 0.94737 0.64852 0.97149 0.0
C53 C 0.94384 0.66599 0.01277 0.0
C54 C 0.95652 0.6748 0.88857 0.0
C55 C 0.95455 0.65266 0.90959 0.0
C56 C 0.95308 0.69248 0.93045 0.0
C57 C 0.93498 0.78972 0.92492 0.0
C58 C 0.93918 0.79765 0.8143 0.0
C59 C 0.93644 0.82767 0.89016 0.0
C60 C 0.93373 0.81228 0.93824 0.0
C61 C 0.94032 0.8206 0.82805 0.0
C62 C 0.93683 0.7823 0.86274 0.0
C63 C 0.93849 0.7748 0.9761 0.0
O64 O 0.93099 0.75708 0.15918 0.0
O65 O 0.96666 0.76232 0.14287 0.0
O66 O 0.95839 0.77051 0.99304 0.0
O67 O 0.9219 0.76488 0.0077 0.0
H68 H 0.94916 0.80743 0.13414 0.0
H69 H 0.95236 0.84272 0.19458 0.0
H70 H 0.95832 0.80595 0.36575 0.0
H71 H 0.95436 0.77124 0.30572 0.0
H72 H 0.94543 0.63168 0.98899 0.0
H73 H 0.93944 0.66222 0.06107 0.0
H74 H 0.96201 0.67852 0.84113 0.0
H75 H 0.95585 0.70946 0.91445 0.0
H76 H 0.94175 0.79166 0.76688 0.0
H77 H 0.93756 0.84515 0.90305 0.0
H78 H 0.9325 0.81816 0.98639 0.0
H79 H 0.93789 0.76482 0.85218 0.0
C80 C 0.73328 0.01224 0.25039 0.0
C81 C 0.71317 0.00941 0.21727 0.0
C82 C 0.69284 0.01204 0.31531 0.0
C83 C 0.69307 0.00922 0.24963 0.0
C84 C 0.71294 0.01482 0.34816 0.0
C85 C 0.73299 0.01479 0.31597 0.0
U86 U 0.76621 0.00965 0.09891 0.0
O87 O 0.79668 0.02894 0.06681 0.0
O88 O 0.79611 0.99278 0.07989 0.0
C89 C 0.80781 0.0113 0.06428 0.0
C90 C 0.75466 0.0127 0.21744 0.0
C91 C 0.8248 0.00981 0.01509 0.0
C92 C 0.86233 1.00174 0.99131 0.0
C93 C 0.84522 1.00331 0.03426 0.0
C94 C 0.83912 0.0136 0.90817 0.0
C95 C 0.85953 1.00665 0.92764 0.0
C96 C 0.82179 0.01509 0.95164 0.0
C97 C 0.72359 1.00222 0.95714 0.0
C98 C 0.71389 0.02044 0.86175 0.0
C99 C 0.69107 0.98805 0.89838 0.0
C100 C 0.70543 0.98637 0.94857 0.0
C101 C 0.69483 1.00561 0.85646 0.0
C102 C 0.72836 0.0187 0.9119 0.0
C103 C 0.73327 1.00433 0.02004 0.0
O104 O 0.75884 0.99392 0.19012 0.0
O105 O 0.75975 0.03013 0.18217 0.0
O106 O 0.74257 0.02397 0.03791 0.0
O107 O 0.74236 0.98738 0.04372 0.0
H108 H 0.71304 0.0075 0.16654 0.0
H109 H 0.67772 0.00735 0.22337 0.0
H110 H 0.7131 0.01713 0.39876 0.0
H111 H 0.74831 0.01695 0.34227 0.0
H112 H 0.87788 0.99672 0.00815 0.0
H113 H 0.84801 0.99942 0.08304 0.0
H114 H 0.83644 0.01741 0.85932 0.0
H115 H 0.80617 0.02025 0.93578 0.0
H116 H 0.71674 0.03418 0.82962 0.0
H117 H 0.67617 0.97675 0.89514 0.0
H118 H 0.70126 0.97383 0.98369 0.0
H119 H 0.74219 0.03122 0.91794 0.0
C120 C 0.58597 0.72415 0.21975 0.0
C121 C 0.58216 0.70325 0.1897 0.0
C122 C 0.58173 0.68434 0.29152 0.0
C123 C 0.5802 0.68357 0.22513 0.0
C124 C 0.58579 0.70548 0.32073 0.0
C125 C 0.58802 0.72495 0.2854 0.0
U126 U 0.59151 0.76806 0.08105 0.0
O127 O 0.56858 0.79378 0.07052 0.0
O128 O 0.60361 0.80369 0.08906 0.0
C129 C 0.58417 0.81027 0.07582 0.0
C130 C 0.58574 0.74558 0.18626 0.0
C131 C 0.58331 0.8284 0.02997 0.0
C132 C 0.57565 0.86653 0.01204 0.0
C133 C 0.5784 0.84915 0.0529 0.0
C134 C 0.58326 0.843 0.92324 0.0
C135 C 0.57821 0.86397 0.94648 0.0
C136 C 0.58571 0.82532 0.96465 0.0
C137 C 0.606 0.72723 0.94844 0.0
C138 C 0.60982 0.70666 0.85128 0.0
C139 C 0.59604 0.68747 0.9448 0.0
C140 C 0.59871 0.70748 0.97897 0.0
C141 C 0.60044 0.68724 0.87992 0.0
C142 C 0.61261 0.72656 0.88549 0.0
C143 C 0.60258 0.74889 0.97608 0.0
O144 O 0.60471 0.75631 0.17043 0.0
O145 O 0.57003 0.74731 0.14466 0.0
O146 O 0.58209 0.75126 0.99217 0.0
O147 O 0.61726 0.75759 0.01697 0.0
H148 H 0.58035 0.70213 0.13909 0.0
H149 H 0.57744 0.66778 0.2003 0.0
H150 H 0.58658 0.70725 0.37138 0.0
H151 H 0.59067 0.74086 0.30988 0.0
H152 H 0.57099 0.88192 0.03244 0.0
H153 H 0.57616 0.85182 0.10289 0.0
H154 H 0.58545 0.84025 0.87333 0.0
H155 H 0.5893 0.8093 0.94576 0.0
H156 H 0.61339 0.70678 0.80138 0.0
H157 H 0.5886 0.6727 0.96771 0.0
H158 H 0.59341 0.70784 0.02754 0.0
H159 H 0.61819 0.74175 0.86135 0.0
C160 C 0.23483 0.55388 0.93177 0.0
C161 C 0.21619 0.54692 0.96757 0.0
C162 C 0.19201 0.54907 0.87565 0.0
C163 C 0.19517 0.54437 0.93987 0.0
C164 C 0.21082 0.5563 0.84017 0.0
C165 C 0.23193 0.5586 0.8679 0.0
U166 U 0.28067 0.56008 0.06307 0.0
O167 O 0.30717 0.53792 0.07255 0.0
O168 O 0.31559 0.5734 0.05577 0.0
C169 C 0.32293 0.55429 0.07012 0.0
C170 C 0.25752 0.5542 0.95798 0.0
C171 C 0.33963 0.55472 0.12103 0.0
C172 C 0.37472 0.54355 0.15873 0.0
C173 C 0.35887 0.54407 0.11108 0.0
C174 C 0.35247 0.5646 0.22739 0.0
C175 C 0.37179 0.55386 0.21738 0.0
C176 C 0.33645 0.56487 0.17984 0.0
C177 C 0.24252 0.5746 0.20387 0.0
C178 C 0.22611 0.57985 0.30579 0.0
C179 C 0.20275 0.57259 0.21385 0.0
C180 C 0.22152 0.57189 0.17612 0.0
C181 C 0.20501 0.57576 0.27927 0.0
C182 C 0.24472 0.57927 0.26829 0.0
C183 C 0.26249 0.57032 0.16977 0.0
O184 O 0.26757 0.57354 0.97568 0.0
O185 O 0.26107 0.53809 0.99657 0.0
O186 O 0.26383 0.54973 0.15035 0.0
O187 O 0.27063 0.58541 0.13005 0.0
H188 H 0.21791 0.54289 0.01668 0.0
H189 H 0.18146 0.53814 0.969 0.0
H190 H 0.20933 0.5603 0.79101 0.0
H191 H 0.2461 0.56377 0.83903 0.0
H192 H 0.3895 0.53539 0.1493 0.0
H193 H 0.36163 0.53607 0.06623 0.0
H194 H 0.34967 0.57257 0.27225 0.0
H195 H 0.3216 0.57296 0.18899 0.0
H196 H 0.22819 0.58235 0.35609 0.0
H197 H 0.18657 0.56919 0.19266 0.0
H198 H 0.21966 0.5682 0.1263 0.0
H199 H 0.26087 0.58133 0.29026 0.0
C200 C 0.08795 0.2247 0.93901 0.0
C201 C 0.10156 0.2082 0.95547 0.0
C202 C 0.08357 0.18274 0.87607 0.0
C203 C 0.09944 0.18747 0.92416 0.0
C204 C 0.07053 0.19965 0.85855 0.0
C205 C 0.07272 0.22034 0.88966 0.0
U206 U 0.09389 0.26961 0.07703 0.0
O207 O 0.10888 0.30433 0.07331 0.0
O208 O 0.07293 0.29719 0.08036 0.0
C209 C 0.08975 0.31246 0.08109 0.0
C210 C 0.08931 0.24686 0.97034 0.0
C211 C 0.08845 0.33027 0.12871 0.0
C212 C 0.07898 0.36763 0.15084 0.0
C213 C 0.08262 0.35072 0.10804 0.0
C214 C 0.08762 0.34419 0.23703 0.0
C215 C 0.08163 0.3649 0.2161 0.0
C216 C 0.09088 0.32693 0.19362 0.0
C217 C 0.10082 0.231 0.22107 0.0
C218 C 0.09924 0.21494 0.32461 0.0
C219 C 0.09143 0.19146 0.23215 0.0
C220 C 0.0956 0.20993 0.19366 0.0
C221 C 0.09217 0.19415 0.29795 0.0
C222 C 0.10361 0.23326 0.28625 0.0
C223 C 0.09952 0.25132 0.18584 0.0
O224 O 0.07269 0.25091 0.00675 0.0
O225 O 0.10855 0.25545 0.99227 0.0
O226 O 0.1161 0.25796 0.14898 0.0
O227 O 0.08003 0.25412 0.16226 0.0
H228 H 0.11364 0.21122 0.99276 0.0
H229 H 0.11008 0.17503 0.93821 0.0
H230 H 0.05803 0.19668 0.82237 0.0
H231 H 0.06222 0.23295 0.87566 0.0
H232 H 0.07348 0.38272 0.13205 0.0
H233 H 0.08023 0.35347 0.05836 0.0
H234 H 0.08984 0.34127 0.28662 0.0
H235 H 0.09503 0.31101 0.21063 0.0
H236 H 0.0999 0.21729 0.37521 0.0
H237 H 0.0858 0.17552 0.21079 0.0
H238 H 0.09325 0.20805 0.14329 0.0
H239 H 0.10753 0.24952 0.3079 0.0
C240 C 0.29703 0.00931 0.89051 0.0
C241 C 0.31751 0.0078 0.92016 0.0
C242 C 0.33615 0.01051 0.81857 0.0
C243 C 0.33694 0.00829 0.88434 0.0
C244 C 0.31553 0.01165 0.7895 0.0
C245 C 0.29624 0.01107 0.82508 0.0
U246 U 0.26487 0.01341 0.04444 0.0
O247 O 0.23477 0.02991 0.06492 0.0
O248 O 0.23448 0.99357 0.07355 0.0
C249 C 0.22314 0.01102 0.07749 0.0
C250 C 0.27626 0.00921 0.92615 0.0
C251 C 0.20581 0.011 0.12587 0.0
C252 C 0.16652 1.00564 0.1479 0.0
C253 C 0.1839 0.00748 0.10508 0.0
C254 C 0.19259 0.01166 0.23397 0.0
C255 C 0.17065 0.00748 0.21264 0.0
C256 C 0.21017 0.01332 0.19069 0.0
C257 C 0.31055 0.02139 0.18066 0.0
C258 C 0.31813 0.00882 0.28522 0.0
C259 C 0.34727 0.02848 0.22399 0.0
C260 C 0.33237 0.03083 0.17564 0.0
C261 C 0.34031 0.01695 0.27802 0.0
C262 C 0.30321 0.01093 0.23626 0.0
C263 C 0.29767 0.01906 0.12298 0.0
O264 O 0.27163 0.99219 0.96318 0.0
O265 O 0.27222 0.0283 0.95203 0.0
O266 O 0.28867 0.03606 0.09926 0.0
O267 O 0.28794 0.99933 0.10782 0.0
H268 H 0.31846 1.00648 0.97082 0.0
H269 H 0.3526 0.0076 0.90812 0.0
H270 H 0.31433 0.01314 0.73896 0.0
H271 H 0.28062 0.01216 0.8014 0.0
H272 H 0.14979 1.00228 0.13045 0.0
H273 H 0.1802 1.00561 0.05532 0.0
H274 H 0.19611 0.01285 0.28389 0.0
H275 H 0.22701 0.01594 0.20767 0.0
H276 H 0.31275 0.99966 0.32676 0.0
H277 H 0.36446 0.03455 0.21782 0.0
H278 H 0.3383 0.0386 0.13245 0.0
H279 H 0.28643 1.00332 0.24025 0.0
C280 C 0.43842 0.28855 0.92379 0.0
C281 C 0.44084 0.30937 0.95485 0.0
C282 C 0.44273 0.32868 0.85361 0.0
C283 C 0.4429 0.32923 0.92011 0.0
C284 C 0.44003 0.30765 0.82339 0.0
C285 C 0.43781 0.288 0.85791 0.0
U286 U 0.43219 0.244 0.06083 0.0
O287 O 0.42037 0.20831 0.05164 0.0
O288 O 0.45524 0.21845 0.07193 0.0
C289 C 0.43975 0.20188 0.06644 0.0
C290 C 0.43854 0.26699 0.95672 0.0
C291 C 0.44025 0.18409 0.11359 0.0
C292 C 0.44418 0.14516 0.13333 0.0
C293 C 0.44132 0.16231 0.09169 0.0
C294 C 0.44404 0.17104 0.2211 0.0
C295 C 0.44555 0.14906 0.1989 0.0
C296 C 0.44152 0.18842 0.17881 0.0
C297 C 0.41739 0.28414 0.19426 0.0
C298 C 0.42071 0.30639 0.28946 0.0
C299 C 0.41948 0.32427 0.18828 0.0
C300 C 0.41738 0.3034 0.15838 0.0
C301 C 0.42221 0.32599 0.25408 0.0
C302 C 0.41812 0.28571 0.25975 0.0
C303 C 0.42066 0.26263 0.166 0.0
O304 O 0.45399 0.26517 0.99903 0.0
O305 O 0.41951 0.25609 0.97122 0.0
O306 O 0.40616 0.25427 0.12408 0.0
O307 O 0.44121 0.26029 0.15065 0.0
H308 H 0.44147 0.31029 0.00571 0.0
H309 H 0.44466 0.34498 0.94541 0.0
H310 H 0.44028 0.30619 0.77263 0.0
H311 H 0.43624 0.27219 0.83274 0.0
H312 H 0.44598 0.12889 0.11315 0.0
H313 H 0.44064 0.15861 0.04168 0.0
H314 H 0.44482 0.17489 0.27095 0.0
H315 H 0.44086 0.20521 0.1969 0.0
H316 H 0.42317 0.30677 0.33985 0.0
H317 H 0.42003 0.33898 0.1596 0.0
H318 H 0.41692 0.30234 0.1075 0.0
H319 H 0.41836 0.27089 0.28787 0.0
Dy320 Dy 0.02562 0.98952 0.62657 0.0
C321 C 0.01467 0.05689 0.43871 0.0
C322 C 0.02356 0.95519 0.70664 0.0
Dy323 Dy 0.00887 0.0232 0.52058 0.0
O324 O 0.03722 0.95805 0.66013 0.0
O325 O 0.01257 0.97255 0.71329 0.0
O326 O 0.05796 0.98454 0.57743 0.0
O327 O 0.03712 1.00637 0.54385 0.0
C328 C 0.05484 0.99809 0.53205 0.0
C329 C 0.97863 0.01361 0.61157 0.0
O330 O 0.9988 0.99015 0.47253 0.0
O331 O 1.00246 0.96866 0.56254 0.0
O332 O 0.99755 0.05301 0.47473 0.0
O333 O 0.02756 0.04101 0.44333 0.0
O334 O 0.97526 0.0266 0.5648 0.0
O335 O 0.99745 0.0069 0.60422 0.0
O336 O 0.03534 0.02151 0.6757 0.0
O337 O 0.0279 0.04554 0.59375 0.0
C338 C 0.99607 0.97095 0.50334 0.0
C339 C 0.03554 0.04169 0.65121 0.0
Dy340 Dy 0.5023 0.98798 0.53878 0.0
C341 C 0.56248 0.05017 0.65961 0.0
C342 C 0.4661 0.96444 0.48816 0.0
Dy343 Dy 0.52671 0.02719 0.60526 0.0
O344 O 0.48256 0.97385 0.45642 0.0
O345 O 0.47162 0.96509 0.54715 0.0
O346 O 0.53395 0.97657 0.4996 0.0
O347 O 0.53089 0.01051 0.516 0.0
C348 C 0.54416 0.99655 0.50089 0.0
C349 C 0.48472 0.02152 0.63813 0.0
O350 O 0.51383 0.04695 0.52748 0.0
O351 O 0.4887 0.01771 0.4954 0.0
O352 O 0.54585 0.04036 0.68967 0.0
O353 O 0.55735 0.05027 0.60042 0.0
O354 O 0.49619 0.04084 0.63884 0.0
O355 O 0.49685 1.00592 0.62706 0.0
O356 O 0.51531 0.9677 0.61425 0.0
O357 O 0.53967 0.99707 0.64921 0.0
C358 C 0.49691 0.03884 0.49226 0.0
C359 C 0.5317 0.97584 0.65094 0.0
Dy360 Dy 0.51123 0.52009 0.63574 0.0
C361 C 0.49927 0.46479 0.40993 0.0
C362 C 0.52504 0.54777 0.73161 0.0
Dy363 Dy 0.51537 0.49174 0.50596 0.0
O364 O 0.50446 0.5422 0.71702 0.0
O365 O 0.53774 0.53658 0.69691 0.0
O366 O 0.48137 0.53725 0.60351 0.0
O367 O 0.49418 0.51374 0.54842 0.0
C368 C 0.47962 0.52714 0.54912 0.0
C369 C 0.5478 0.48446 0.58851 0.0
O370 O 0.52889 0.52555 0.47186 0.0
O371 O 0.53251 0.54272 0.5715 0.0
O372 O 0.51991 0.46769 0.42659 0.0
O373 O 0.48825 0.47817 0.44282 0.0
O374 O 0.54626 0.47615 0.53171 0.0
O375 O 0.53246 0.49701 0.59506 0.0
O376 O 0.4976 0.48667 0.67128 0.0
O377 O 0.49462 0.46896 0.57221 0.0
C378 C 0.53548 0.54282 0.50935 0.0
C379 C 0.49118 0.46923 0.63433 0.0
Dy380 Dy 1.0027 0.48996 0.61024 0.0
C381 C 0.0598 0.53398 0.44516 0.0
C382 C 0.97385 0.47319 0.69722 0.0
Dy383 Dy 0.02437 0.52145 0.51662 0.0
O384 O 0.97796 0.46315 0.64486 0.0
O385 O 0.98588 0.49197 0.70273 0.0
O386 O 0.02376 0.46284 0.58229 0.0
O387 O 0.01467 0.48579 0.51543 0.0
C388 C 0.02619 0.46978 0.52474 0.0
C389 C 1.00107 0.54134 0.60435 0.0
O390 O 0.9944 0.5102 0.45972 0.0
O391 O 0.97431 0.496 0.545 0.0
O392 O 0.0447 0.54719 0.45945 0.0
O393 O 0.05431 0.51428 0.46598 0.0
O394 O 1.00345 0.54873 0.54713 0.0
O395 O 0.01271 0.52535 0.61133 0.0
O396 O 0.03393 0.4987 0.66528 0.0
O397 O 0.05195 0.5197 0.58741 0.0
C398 C 0.97553 0.50162 0.48479 0.0
C399 C 0.05174 0.51048 0.64348 0.0
H400 H 0.15101 0.03664 0.29129 0.0
H401 H 0.14769 0.96763 0.23003 0.0
H402 H 0.11486 0.95889 0.29674 0.0
H403 H 0.13471 0.02921 0.45065 0.0
H404 H 0.11744 0.05191 0.4525 0.0
H405 H 0.1404 0.0525 0.39913 0.0
H406 H 0.11331 0.059 0.31123 0.0
H407 H 0.08864 0.05443 0.35842 0.0
H408 H 0.09188 0.03751 0.28994 0.0
H409 H 0.08397 0.95706 0.3732 0.0
H410 H 0.05789 0.96177 0.46004 0.0
H411 H 0.07942 0.03221 0.47101 0.0
C412 C 0.14345 0.01968 0.2928 0.0
C413 C 0.152 1.00265 0.25659 0.0
C414 C 0.14145 0.98077 0.25814 0.0
C415 C 0.12275 0.9757 0.2955 0.0
C416 C 0.11457 0.9928 0.3304 0.0
C417 C 0.1245 0.01435 0.32949 0.0
C418 C 0.11194 0.02955 0.37084 0.0
C419 C 0.12702 0.04148 0.4213 0.0
C420 C 0.10087 0.04616 0.33018 0.0
C421 C 0.09466 0.01283 0.39939 0.0
C422 C 0.0961 0.99187 0.37358 0.0
C423 C 0.08253 0.97343 0.39331 0.0
C424 C 0.06772 0.97627 0.44244 0.0
C425 C 0.06648 0.99735 0.47134 0.0
C426 C 0.0797 0.01603 0.44853 0.0
H427 H 0.46712 0.14981 0.31607 0.0
H428 H 0.43101 0.10478 0.18231 0.0
H429 H 0.44065 0.07302 0.2427 0.0
H430 H 0.51046 0.11907 0.35305 0.0
H431 H 0.51046 0.12378 0.43696 0.0
H432 H 0.5002 0.14387 0.38548 0.0
H433 H 0.46288 0.14084 0.44449 0.0
H434 H 0.47321 0.12099 0.4969 0.0
H435 H 0.44791 0.1139 0.45411 0.0
H436 H 0.45552 0.04586 0.31118 0.0
H437 H 0.47284 0.02417 0.39048 0.0
H438 H 0.49802 0.08524 0.48738 0.0
C439 C 0.46085 0.13335 0.29987 0.0
C440 C 0.44893 0.13013 0.24226 0.0
C441 C 0.44105 0.10807 0.22399 0.0
C442 C 0.44617 0.08973 0.25863 0.0
C443 C 0.45853 0.09347 0.3133 0.0
C444 C 0.4653 0.11465 0.33513 0.0
C445 C 0.47788 0.11357 0.39693 0.0
C446 C 0.50114 0.12579 0.39279 0.0
C447 C 0.4647 0.12289 0.45133 0.0
C448 C 0.47857 0.08853 0.40314 0.0
C449 C 0.46678 0.07741 0.35486 0.0
C450 C 0.46462 0.05433 0.34962 0.0
C451 C 0.47457 0.04215 0.39516 0.0
C452 C 0.48683 0.05292 0.44544 0.0
C453 C 0.4889 0.07651 0.44934 0.0
H454 H 0.39257 0.51838 0.26156 0.0
H455 H 0.39024 0.58957 0.28559 0.0
H456 H 0.41946 0.59031 0.36655 0.0
H457 H 0.39965 0.50745 0.42571 0.0
H458 H 0.41764 0.48578 0.41242 0.0
H459 H 0.39749 0.49115 0.35391 0.0
H460 H 0.42848 0.49665 0.27077 0.0
H461 H 0.44876 0.49149 0.32924 0.0
H462 H 0.4517 0.51689 0.2852 0.0
H463 H 0.44803 0.5835 0.44591 0.0
H464 H 0.47248 0.56938 0.52522 0.0
H465 H 0.45622 0.50212 0.45453 0.0
C466 C 0.39838 0.53413 0.2836 0.0
C467 C 0.38917 0.55397 0.26704 0.0
C468 C 0.39693 0.57418 0.29768 0.0
C469 C 0.41364 0.57477 0.3434 0.0
C470 C 0.42238 0.55497 0.35857 0.0
C471 C 0.41489 0.53496 0.33018 0.0
C472 C 0.42622 0.51592 0.35817 0.0
C473 C 0.40924 0.49908 0.38942 0.0
C474 C 0.43959 0.50457 0.30785 0.0
C475 C 0.44126 0.52838 0.40683 0.0
C476 C 0.4388 0.55093 0.40556 0.0
C477 C 0.45014 0.56592 0.44716 0.0
C478 C 0.46399 0.55771 0.49217 0.0
C479 C 0.46658 0.53471 0.49564 0.0
C480 C 0.45521 0.51984 0.45179 0.0
H481 H 0.06619 0.36348 0.34071 0.0
H482 H 0.08891 0.40972 0.19418 0.0
H483 H 0.0763 0.44044 0.25601 0.0
H484 H 0.01965 0.38868 0.39175 0.0
H485 H 0.02391 0.38563 0.47491 0.0
H486 H 0.03439 0.36625 0.41999 0.0
H487 H 0.07379 0.37497 0.46534 0.0
H488 H 0.06336 0.3941 0.52122 0.0
H489 H 0.08577 0.40343 0.46984 0.0
H490 H 0.05483 0.46464 0.32247 0.0
H491 H 0.03583 0.48389 0.40585 0.0
H492 H 0.03589 0.42594 0.52373 0.0
C493 C 0.06897 0.38007 0.32193 0.0
C494 C 0.07759 0.38371 0.26038 0.0
C495 C 0.08114 0.40595 0.23897 0.0
C496 C 0.07425 0.42372 0.27416 0.0
C497 C 0.0648 0.4194 0.33257 0.0
C498 C 0.06304 0.39838 0.35789 0.0
C499 C 0.05338 0.39895 0.42388 0.0
C500 C 0.03154 0.38399 0.42782 0.0
C501 C 0.07008 0.39248 0.47297 0.0
C502 C 0.04953 0.42342 0.43034 0.0
C503 C 0.05572 0.43465 0.37617 0.0
C504 C 0.05109 0.45648 0.36668 0.0
C505 C 0.04058 0.46745 0.41481 0.0
C506 C 0.03603 0.45716 0.4733 0.0
C507 C 0.04025 0.43465 0.48072 0.0
H508 H 0.87706 0.03554 0.83643 0.0
H509 H 0.88375 0.97105 0.91781 0.0
H510 H 0.91554 0.96621 0.84874 0.0
H511 H 0.89095 0.02131 0.67746 0.0
H512 H 0.90651 0.0476 0.66245 0.0
H513 H 0.8843 0.04613 0.71857 0.0
H514 H 0.91111 0.06394 0.80382 0.0
H515 H 0.93345 0.06534 0.74804 0.0
H516 H 0.93598 0.0512 0.82135 0.0
H517 H 0.94639 0.96793 0.76921 0.0
H518 H 0.97332 0.97607 0.68333 0.0
H519 H 0.94767 0.0397 0.65548 0.0
C520 C 0.8851 0.02033 0.83917 0.0
C521 C 0.87786 1.00365 0.88258 0.0
C522 C 0.88906 0.98412 0.88529 0.0
C523 C 0.90715 0.9812 0.8462 0.0
C524 C 0.91405 0.99801 0.80453 0.0
C525 C 0.90341 0.01722 0.80072 0.0
C526 C 0.91436 0.03276 0.75209 0.0
C527 C 0.89806 0.0372 0.69953 0.0
C528 C 0.92431 0.0546 0.78319 0.0
C529 C 0.93234 0.01902 0.72806 0.0
C530 C 0.93204 0.99913 0.75939 0.0
C531 C 0.94692 0.98357 0.74479 0.0
C532 C 0.9624 0.98843 0.69666 0.0
C533 C 0.96299 0.0087 0.66403 0.0
C534 C 0.94769 0.02411 0.68 0.0
H535 H 0.56208 0.86412 0.82252 0.0
H536 H 0.58872 0.90832 0.97311 0.0
H537 H 0.57959 0.94044 0.91334 0.0
H538 H 0.5845 0.90418 0.69656 0.0
H539 H 0.56164 0.89631 0.6445 0.0
H540 H 0.57118 0.87623 0.69759 0.0
H541 H 0.53169 0.86924 0.74256 0.0
H542 H 0.52216 0.88954 0.69046 0.0
H543 H 0.5182 0.8923 0.77413 0.0
H544 H 0.56606 0.96784 0.84323 0.0
H545 H 0.55066 0.9899 0.76097 0.0
H546 H 0.53368 0.92975 0.64986 0.0
C547 C 0.56638 0.88053 0.84257 0.0
C548 C 0.57543 0.88333 0.90426 0.0
C549 C 0.58088 0.90532 0.92772 0.0
C550 C 0.57602 0.92386 0.89365 0.0
C551 C 0.5664 0.92049 0.83466 0.0
C552 C 0.56212 0.89952 0.80821 0.0
C553 C 0.55215 0.90108 0.74275 0.0
C554 C 0.56832 0.89402 0.69237 0.0
C555 C 0.5297 0.88722 0.73722 0.0
C556 C 0.54987 0.92598 0.7394 0.0
C557 C 0.55882 0.93675 0.79253 0.0
C558 C 0.55919 0.95966 0.80105 0.0
C559 C 0.5504 0.97207 0.75386 0.0
C560 C 0.54099 0.96164 0.6988 0.0
C561 C 0.54064 0.93819 0.69159 0.0
H562 H 0.62408 0.48217 0.90166 0.0
H563 H 0.65308 0.42758 0.80769 0.0
H564 H 0.6275 0.42975 0.71924 0.0
H565 H 0.56684 0.46522 0.84932 0.0
H566 H 0.56019 0.49344 0.83962 0.0
H567 H 0.58029 0.48727 0.89755 0.0
H568 H 0.60892 0.51614 0.84754 0.0
H569 H 0.58897 0.52228 0.78926 0.0
H570 H 0.61532 0.51372 0.76514 0.0
H571 H 0.60098 0.43801 0.64021 0.0
H572 H 0.5735 0.45158 0.57085 0.0
H573 H 0.55882 0.50081 0.71206 0.0
C574 C 0.62484 0.47051 0.86278 0.0
C575 C 0.6409 0.45483 0.86159 0.0
C576 C 0.64139 0.44002 0.80946 0.0
C577 C 0.62676 0.44099 0.75909 0.0
C578 C 0.61148 0.45675 0.76129 0.0
C579 C 0.61019 0.4712 0.81163 0.0
C580 C 0.59218 0.48672 0.80043 0.0
C581 C 0.57378 0.48294 0.84965 0.0
C582 C 0.60193 0.51117 0.80058 0.0
C583 C 0.58403 0.47899 0.73505 0.0
C584 C 0.5955 0.46156 0.7144 0.0
C585 C 0.59181 0.45158 0.65578 0.0
C586 C 0.57611 0.45957 0.61652 0.0
C587 C 0.56396 0.47744 0.63528 0.0
C588 C 0.56783 0.48721 0.69601 0.0
H589 H 0.94528 0.64027 0.78443 0.0
H590 H 0.98238 0.62321 0.94833 0.0
H591 H 0.99608 0.59198 0.8897 0.0
H592 H 0.93099 0.5815 0.73286 0.0
H593 H 0.93309 0.58774 0.6504 0.0
H594 H 0.92484 0.60835 0.70553 0.0
H595 H 0.95669 0.63638 0.66701 0.0
H596 H 0.96499 0.61589 0.61181 0.0
H597 H 0.9846 0.62866 0.66812 0.0
H598 H 1.00627 0.56294 0.81522 0.0
H599 H 0.0145 0.53893 0.72552 0.0
H600 H 0.97242 0.57445 0.60568 0.0
C601 C 0.95628 0.62992 0.80775 0.0
C602 C 0.96257 0.6341 0.87139 0.0
C603 C 0.97699 0.62014 0.90019 0.0
C604 C 0.98491 0.60234 0.86722 0.0
C605 C 0.97828 0.59848 0.80515 0.0
C606 C 0.9643 0.61177 0.77538 0.0
C607 C 0.96013 0.60379 0.70777 0.0
C608 C 0.93582 0.59483 0.6986 0.0
C609 C 0.96703 0.62229 0.66092 0.0
C610 C 0.97503 0.58495 0.70346 0.0
C611 C 0.98475 0.58182 0.76095 0.0
C612 C 0.99879 0.56523 0.76989 0.0
C613 C 1.00333 0.55163 0.71855 0.0
C614 C 0.99424 0.55491 0.65841 0.0
C615 C 0.97973 0.57169 0.65098 0.0
H616 H 0.10036 0.15046 0.30133 0.0
H617 H 0.05939 0.19858 0.38163 0.0
H618 H 0.03613 0.16837 0.43247 0.0
H619 H 0.06174 0.10958 0.26121 0.0
H620 H 0.07564 0.08621 0.28677 0.0
H621 H 0.09146 0.11163 0.2655 0.0
H622 H 0.11064 0.11351 0.37328 0.0
H623 H 0.09484 0.0887 0.39978 0.0
H624 H 0.09451 0.11406 0.44422 0.0
H625 H 0.01347 0.13329 0.45528 0.0
H626 H 0.99607 0.095 0.46619 0.0
H627 H 0.05268 0.06945 0.37623 0.0
C628 C 0.08685 0.15456 0.33109 0.0
C629 C 0.08156 0.17664 0.33782 0.0
C630 C 0.06378 0.18167 0.37678 0.0
C631 C 0.05044 0.16466 0.40551 0.0
C632 C 0.05545 0.14291 0.39563 0.0
C633 C 0.07359 0.13783 0.36105 0.0
C634 C 0.07503 0.11303 0.3571 0.0
C635 C 0.07602 0.10464 0.28857 0.0
C636 C 0.09492 0.10694 0.39575 0.0
C637 C 0.05348 0.10496 0.3881 0.0
C638 C 0.04271 0.12248 0.41131 0.0
C639 C 0.02187 0.11937 0.43834 0.0
C640 C 0.01195 0.09763 0.44316 0.0
C641 C 0.02295 0.07943 0.42101 0.0
C642 C 0.04388 0.08317 0.39279 0.0
H643 H 0.36701 0.98444 0.25991 0.0
H644 H 0.35092 0.03571 0.39217 0.0
H645 H 0.38041 0.02548 0.46385 0.0
H646 H 0.37982 0.94387 0.37769 0.0
H647 H 0.40196 0.93406 0.33204 0.0
H648 H 0.37887 0.9446 0.29305 0.0
H649 H 0.40571 0.97302 0.23394 0.0
H650 H 0.42884 0.96263 0.27276 0.0
H651 H 0.42486 0.99181 0.27828 0.0
H652 H 0.41057 0.00981 0.5194 0.0
H653 H 0.44284 0.99193 0.55428 0.0
H654 H 0.44136 0.95214 0.38281 0.0
C655 C 0.36968 0.99327 0.30439 0.0
C656 C 0.35688 0.01059 0.32184 0.0
C657 C 0.3606 0.02218 0.37937 0.0
C658 C 0.37719 0.01649 0.41992 0.0
C659 C 0.38952 0.99916 0.40165 0.0
C660 C 0.38608 0.98777 0.34524 0.0
C661 C 0.40215 0.97034 0.33612 0.0
C662 C 0.38997 0.94683 0.33462 0.0
C663 C 0.41623 0.97474 0.27678 0.0
C664 C 0.41566 0.9742 0.39549 0.0
C665 C 0.40764 0.99052 0.43308 0.0
C666 C 0.4169 0.99688 0.49079 0.0
C667 C 0.43506 0.98643 0.51045 0.0
C668 C 0.4441 0.97025 0.47192 0.0
C669 C 0.43432 0.96402 0.41365 0.0
H670 H 0.44838 0.36139 0.2051 0.0
H671 H 0.41293 0.33973 0.37447 0.0
H672 H 0.4318 0.37137 0.43285 0.0
H673 H 0.49858 0.38188 0.27251 0.0
H674 H 0.50283 0.40635 0.22486 0.0
H675 H 0.48693 0.38183 0.19454 0.0
H676 H 0.45358 0.40456 0.17363 0.0
H677 H 0.46965 0.42927 0.20213 0.0
H678 H 0.4432 0.42089 0.2367 0.0
H679 H 0.45719 0.40222 0.47504 0.0
H680 H 0.48061 0.43717 0.49412 0.0
H681 H 0.49519 0.44252 0.29561 0.0
C682 C 0.44396 0.36351 0.25392 0.0
C683 C 0.42954 0.34755 0.28537 0.0
C684 C 0.42452 0.35115 0.34963 0.0
C685 C 0.43509 0.36912 0.38328 0.0
C686 C 0.44997 0.38378 0.35142 0.0
C687 C 0.45377 0.38176 0.28781 0.0
C688 C 0.46963 0.40072 0.26448 0.0
C689 C 0.49074 0.39217 0.23751 0.0
C690 C 0.45834 0.41469 0.21638 0.0
C691 C 0.47432 0.41352 0.32524 0.0
C692 C 0.46315 0.40305 0.3749 0.0
C693 C 0.46547 0.41093 0.43631 0.0
C694 C 0.47866 0.43074 0.44668 0.0
C695 C 0.4888 0.44262 0.39601 0.0
C696 C 0.48724 0.43373 0.33469 0.0
H697 H 0.16487 0.59315 0.27428 0.0
H698 H 0.20211 0.54728 0.37598 0.0
H699 H 0.16945 0.5358 0.43946 0.0
H700 H 0.12933 0.60693 0.41638 0.0
H701 H 0.10559 0.60902 0.36693 0.0
H702 H 0.13294 0.6169 0.33725 0.0
H703 H 0.12522 0.58935 0.24326 0.0
H704 H 0.09808 0.58119 0.27313 0.0
H705 H 0.11699 0.56044 0.25853 0.0
H706 H 0.13303 0.52437 0.47669 0.0
H707 H 0.09366 0.51472 0.49313 0.0
H708 H 0.07822 0.56882 0.37312 0.0
C709 C 0.16614 0.58114 0.31112 0.0
C710 C 0.18593 0.57124 0.32099 0.0
C711 C 0.18716 0.55535 0.36877 0.0
C712 C 0.16874 0.54874 0.40504 0.0
C713 C 0.14937 0.55847 0.39355 0.0
C714 C 0.1479 0.57459 0.3487 0.0
C715 C 0.12445 0.58094 0.34321 0.0
C716 C 0.12299 0.60487 0.36737 0.0
C717 C 0.11568 0.57777 0.27551 0.0
C718 C 0.11275 0.56432 0.38739 0.0
C719 C 0.1277 0.55199 0.41689 0.0
C720 C 0.12117 0.53421 0.45519 0.0
C721 C 0.09873 0.52874 0.4635 0.0
C722 C 0.08303 0.54105 0.43392 0.0
C723 C 0.09002 0.55936 0.3964 0.0
H724 H 0.93027 0.86354 0.8111 0.0
H725 H 0.97381 0.81508 0.74555 0.0
H726 H 0.99788 0.8448 0.69744 0.0
H727 H 0.94281 0.90521 0.67709 0.0
H728 H 0.94178 0.92822 0.73153 0.0
H729 H 0.92419 0.90288 0.74307 0.0
H730 H 0.93989 0.90054 0.85582 0.0
H731 H 0.95796 0.92542 0.84421 0.0
H732 H 0.96924 0.90012 0.86666 0.0
H733 H 0.02184 0.87904 0.68147 0.0
H734 H 0.04137 0.91668 0.68092 0.0
H735 H 0.98383 0.94348 0.76202 0.0
C736 C 0.94442 0.85911 0.78456 0.0
C737 C 0.95011 0.83696 0.78243 0.0
C738 C 0.96874 0.83179 0.74708 0.0
C739 C 0.98272 0.84864 0.71992 0.0
C740 C 0.97777 0.87048 0.72823 0.0
C741 C 0.95877 0.8758 0.75816 0.0
C742 C 0.95881 0.9007 0.76793 0.0
C743 C 0.94084 0.90979 0.72748 0.0
C744 C 0.95634 0.90703 0.8378 0.0
C745 C 0.98161 0.90822 0.74393 0.0
C746 C 0.99202 0.89058 0.71995 0.0
C747 C 0.01373 0.89309 0.69889 0.0
C748 C 0.02483 0.91441 0.70004 0.0
C749 C 0.01419 0.93281 0.72236 0.0
C750 C 0.99246 0.92961 0.74563 0.0
H751 H 0.66583 0.03573 0.87857 0.0
H752 H 0.68349 0.98581 0.74417 0.0
H753 H 0.65175 0.99332 0.67706 0.0
H754 H 0.60719 0.02198 0.86524 0.0
H755 H 0.60054 0.05031 0.87442 0.0
H756 H 0.62505 0.04171 0.91061 0.0
H757 H 0.64886 0.07314 0.85332 0.0
H758 H 0.6244 0.08183 0.81704 0.0
H759 H 0.64719 0.07487 0.7689 0.0
H760 H 0.61883 1.00566 0.62707 0.0
H761 H 0.58471 0.02103 0.59652 0.0
H762 H 0.58739 0.06283 0.76412 0.0
C763 C 0.66306 0.02669 0.83445 0.0
C764 C 0.67703 0.01061 0.81489 0.0
C765 C 0.67294 0.99845 0.75842 0.0
C766 C 0.65505 1.00257 0.72053 0.0
C767 C 0.64157 0.01867 0.74085 0.0
C768 C 0.64517 0.03042 0.79664 0.0
C769 C 0.62759 0.0461 0.80867 0.0
C770 C 0.61431 0.03963 0.86826 0.0
C771 C 0.63762 0.07043 0.81218 0.0
C772 C 0.61377 0.04166 0.75014 0.0
C773 C 0.62224 0.02578 0.71189 0.0
C774 C 0.61232 0.01845 0.65581 0.0
C775 C 0.59321 0.02766 0.63818 0.0
C776 C 0.58433 0.04412 0.67606 0.0
C777 C 0.59449 0.05099 0.73327 0.0
H778 H 0.60508 0.64286 0.89471 0.0
H779 H 0.57356 0.68945 0.77938 0.0
H780 H 0.55143 0.6583 0.72674 0.0
H781 H 0.60531 0.59844 0.76724 0.0
H782 H 0.60052 0.57648 0.82349 0.0
H783 H 0.61606 0.60229 0.84603 0.0
H784 H 0.58903 0.60662 0.9388 0.0
H785 H 0.57311 0.58116 0.91575 0.0
H786 H 0.55993 0.60659 0.92279 0.0
H787 H 0.52828 0.6234 0.70144 0.0
H788 H 0.51027 0.58523 0.68838 0.0
H789 H 0.55852 0.56058 0.81303 0.0
C790 C 0.594 0.64635 0.85702 0.0
C791 C 0.59104 0.66841 0.8407 0.0
C792 C 0.57627 0.67257 0.79172 0.0
C793 C 0.56353 0.65504 0.7619 0.0
C794 C 0.56612 0.63351 0.78093 0.0
C795 C 0.58146 0.62899 0.82581 0.0
C796 C 0.58044 0.60433 0.83863 0.0
C797 C 0.60185 0.59482 0.81758 0.0
C798 C 0.57532 0.59941 0.90813 0.0
C799 C 0.56128 0.59594 0.79685 0.0
C800 C 0.55324 0.61308 0.76412 0.0
C801 C 0.53459 0.60977 0.72608 0.0
C802 C 0.52424 0.58819 0.72003 0.0
C803 C 0.53278 0.57032 0.75133 0.0
C804 C 0.55153 0.57418 0.78992 0.0
H805 H 0.85033 0.4268 0.77256 0.0
H806 H 0.86075 0.45817 0.95665 0.0
H807 H 0.8989 0.47086 0.92787 0.0
H808 H 0.90339 0.40727 0.75585 0.0
H809 H 0.90639 0.41352 0.6735 0.0
H810 H 0.8793 0.40729 0.70641 0.0
H811 H 0.86757 0.44469 0.6659 0.0
H812 H 0.89458 0.45091 0.63242 0.0
H813 H 0.88379 0.47026 0.68689 0.0
H814 H 0.93498 0.48056 0.88142 0.0
H815 H 0.96876 0.4865 0.81741 0.0
H816 H 0.93617 0.44793 0.66448 0.0
C817 C 0.86073 0.43629 0.80663 0.0
C818 C 0.85287 0.44112 0.8673 0.0
C819 C 0.86675 0.45376 0.91063 0.0
C820 C 0.88831 0.46124 0.89457 0.0
C821 C 0.89569 0.45597 0.83501 0.0
C822 C 0.88245 0.44388 0.79139 0.0
C823 C 0.89485 0.44051 0.73077 0.0
C824 C 0.89605 0.41566 0.71581 0.0
C825 C 0.88458 0.4523 0.67578 0.0
C826 C 0.91724 0.45194 0.74855 0.0
C827 C 0.91714 0.46107 0.80843 0.0
C828 C 0.93548 0.4733 0.8347 0.0
C829 C 0.95454 0.47646 0.79839 0.0
C830 C 0.95501 0.46713 0.73728 0.0
C831 C 0.93628 0.45457 0.71209 0.0
H832 H 0.07261 0.16944 0.7524 0.0
H833 H 0.08366 0.14369 0.93844 0.0
H834 H 0.07442 0.1057 0.89844 0.0
H835 H 0.02586 0.13175 0.7131 0.0
H836 H 0.0331 0.12787 0.63178 0.0
H837 H 0.04225 0.15347 0.67237 0.0
H838 H 0.08269 0.14806 0.64355 0.0
H839 H 0.07358 0.12245 0.60272 0.0
H840 H 0.09401 0.12259 0.66416 0.0
H841 H 0.06231 0.07102 0.84323 0.0
H842 H 0.04807 0.04032 0.77386 0.0
H843 H 0.04355 0.08666 0.62066 0.0
C844 C 0.07322 0.15578 0.78459 0.0
C845 C 0.07923 0.15973 0.84878 0.0
C846 C 0.07976 0.14129 0.88901 0.0
C847 C 0.07435 0.11956 0.8668 0.0
C848 C 0.0684 0.11627 0.80397 0.0
C849 C 0.06787 0.13374 0.763 0.0
C850 C 0.06028 0.12516 0.6979 0.0
C851 C 0.03911 0.13516 0.67764 0.0
C852 C 0.07874 0.12984 0.64921 0.0
C853 C 0.05596 0.10029 0.7099 0.0
C854 C 0.06107 0.09573 0.77134 0.0
C855 C 0.05837 0.0743 0.79483 0.0
C856 C 0.05022 0.05691 0.75473 0.0
C857 C 0.04463 0.06086 0.6914 0.0
C858 C 0.04763 0.08297 0.66871 0.0
H859 H 0.37253 0.98602 0.82197 0.0
H860 H 0.3462 0.04131 0.7287 0.0
H861 H 0.3798 0.04678 0.66444 0.0
H862 H 0.42759 0.00898 0.83283 0.0
H863 H 0.43992 0.98357 0.81573 0.0
H864 H 0.41293 0.98246 0.85074 0.0
H865 H 0.39711 0.95678 0.7596 0.0
H866 H 0.42411 0.95786 0.72426 0.0
H867 H 0.40099 0.96571 0.67954 0.0
H868 H 0.41687 0.04919 0.61871 0.0
H869 H 0.45617 0.04828 0.59253 0.0
H870 H 0.45953 0.99055 0.70988 0.0
C871 C 0.37385 0.99917 0.78772 0.0
C872 C 0.35664 0.01317 0.78009 0.0
C873 C 0.35897 0.03018 0.73475 0.0
C874 C 0.37801 0.03343 0.69799 0.0
C875 C 0.3946 0.0194 0.70646 0.0
C876 C 0.39277 1.0025 0.74977 0.0
C877 C 0.41361 0.99042 0.7505 0.0
C878 C 0.42413 0.99143 0.81636 0.0
C879 C 0.40866 0.96625 0.72709 0.0
C880 C 0.42783 1.00405 0.70358 0.0
C881 C 0.41625 0.02044 0.6782 0.0
C882 C 0.42602 0.03624 0.63738 0.0
C883 C 0.44835 0.03563 0.62295 0.0
C884 C 0.4607 0.01926 0.64871 0.0
C885 C 0.45024 1.00292 0.68854 0.0
H886 H 0.46853 0.36861 0.87929 0.0
H887 H 0.42356 0.33659 0.73962 0.0
H888 H 0.4303 0.36913 0.67183 0.0
H889 H 0.45203 0.4251 0.85523 0.0
H890 H 0.47958 0.43825 0.86715 0.0
H891 H 0.47092 0.41256 0.90605 0.0
H892 H 0.50401 0.39443 0.85743 0.0
H893 H 0.51276 0.42003 0.81838 0.0
H894 H 0.50768 0.39454 0.77332 0.0
H895 H 0.44227 0.40487 0.61719 0.0
H896 H 0.45892 0.44102 0.57959 0.0
H897 H 0.49645 0.45092 0.75269 0.0
C898 C 0.45978 0.36852 0.83499 0.0
C899 C 0.44564 0.34959 0.81514 0.0
C900 C 0.43484 0.3504 0.75604 0.0
C901 C 0.43841 0.369 0.71711 0.0
C902 C 0.45262 0.3871 0.73772 0.0
C903 C 0.46304 0.38713 0.7954 0.0
C904 C 0.47777 0.40875 0.80559 0.0
C905 C 0.46959 0.42195 0.86186 0.0
C906 C 0.50199 0.40416 0.81418 0.0
C907 C 0.47439 0.42062 0.74407 0.0
C908 C 0.45963 0.40782 0.70595 0.0
C909 C 0.45393 0.41494 0.64661 0.0
C910 C 0.46373 0.43545 0.62522 0.0
C911 C 0.47946 0.44871 0.66217 0.0
C912 C 0.48448 0.44128 0.72314 0.0
H913 H 0.17889 0.53759 0.75129 0.0
H914 H 0.15271 0.5553 0.93362 0.0
H915 H 0.11516 0.547 0.89337 0.0
H916 H 0.13504 0.56358 0.66221 0.0
H917 H 0.13395 0.54296 0.59991 0.0
H918 H 0.15944 0.55036 0.6416 0.0
H919 H 0.16178 0.50909 0.66868 0.0
H920 H 0.13627 0.50157 0.62735 0.0
H921 H 0.13902 0.49394 0.7084 0.0
H922 H 0.08057 0.5329 0.83958 0.0
H923 H 0.04999 0.51974 0.76824 0.0
H924 H 0.0965 0.51572 0.61493 0.0
C925 C 0.16534 0.54009 0.78269 0.0
C926 C 0.16919 0.54636 0.847 0.0
C927 C 0.15064 0.54951 0.88544 0.0
C928 C 0.12906 0.54508 0.86274 0.0
C929 C 0.12591 0.53815 0.80051 0.0
C930 C 0.14342 0.53631 0.76016 0.0
C931 C 0.13496 0.52923 0.69455 0.0
C932 C 0.14122 0.54763 0.64675 0.0
C933 C 0.14352 0.50714 0.67356 0.0
C934 C 0.11009 0.52645 0.70574 0.0
C935 C 0.10541 0.53161 0.76745 0.0
C936 C 0.08395 0.52911 0.79086 0.0
C937 C 0.06669 0.52139 0.75014 0.0
C938 C 0.07079 0.51657 0.68621 0.0
C939 C 0.09285 0.5193 0.66363 0.0
H940 H 0.97691 0.86882 0.25594 0.0
H941 H 0.93824 0.83421 0.40246 0.0
H942 H 0.94313 0.86768 0.46973 0.0
H943 H 0.0158 0.8998 0.35629 0.0
H944 H 0.01726 0.92491 0.31105 0.0
H945 H 0.01044 0.89833 0.27288 0.0
H946 H 0.97438 0.91211 0.22986 0.0
H947 H 0.98108 0.93875 0.26811 0.0
H948 H 0.95509 0.92295 0.28381 0.0
H949 H 0.95316 0.90377 0.52353 0.0
H950 H 0.96796 0.9408 0.56155 0.0
H951 H 0.99926 0.9541 0.38095 0.0
C952 C 0.96917 0.86836 0.30174 0.0
C953 C 0.95736 0.84855 0.32374 0.0
C954 C 0.94777 0.8488 0.38454 0.0
C955 C 0.95028 0.86788 0.42314 0.0
C956 C 0.96214 0.88691 0.40034 0.0
C957 C 0.97136 0.88745 0.34106 0.0
C958 C 0.98361 0.91019 0.32901 0.0
C959 C 1.00824 0.90818 0.31659 0.0
C960 C 0.9729 0.92168 0.27444 0.0
C961 C 0.98015 0.92214 0.39124 0.0
C962 C 0.96758 0.90828 0.43134 0.0
C963 C 0.96277 0.91486 0.49231 0.0
C964 C 0.97127 0.936 0.51343 0.0
C965 C 0.98453 0.95054 0.47404 0.0
C966 C 0.98872 0.94362 0.41159 0.0
H967 H 0.66074 0.97831 0.34158 0.0
H968 H 0.67792 0.0492 0.3658 0.0
H969 H 0.64216 0.05278 0.41879 0.0
H970 H 0.60391 0.97957 0.31064 0.0
H971 H 0.59483 0.9553 0.35545 0.0
H972 H 0.62205 0.95798 0.3216 0.0
H973 H 0.63932 0.95311 0.43145 0.0
H974 H 0.61211 0.95017 0.46548 0.0
H975 H 0.63265 0.9711 0.49568 0.0
H976 H 0.60285 0.04928 0.45548 0.0
H977 H 0.56465 0.03836 0.48882 0.0
H978 H 0.5743 0.96897 0.45499 0.0
C979 C 0.65691 0.9945 0.35849 0.0
C980 C 0.67181 0.01358 0.34923 0.0
C981 C 0.66654 0.0345 0.37229 0.0
C982 C 0.64633 0.03665 0.40237 0.0
C983 C 0.63178 0.01762 0.41004 0.0
C984 C 0.63698 0.99686 0.39005 0.0
C985 C 0.61842 0.97909 0.40494 0.0
C986 C 0.60927 0.96729 0.34455 0.0
C987 C 0.62609 0.96238 0.4522 0.0
C988 C 0.60171 0.99319 0.43441 0.0
C989 C 0.60973 0.01539 0.43635 0.0
C990 C 0.59667 0.03188 0.45609 0.0
C991 C 0.57499 0.0255 0.47524 0.0
C992 C 0.56679 1.00277 0.4772 0.0
C993 C 0.58032 0.98643 0.45582 0.0
H994 H 0.55593 0.64424 0.26693 0.0
H995 H 0.60096 0.67662 0.40613 0.0
H996 H 0.59428 0.64425 0.47423 0.0
H997 H 0.51728 0.61735 0.37389 0.0
H998 H 0.51261 0.592 0.32802 0.0
H999 H 0.52064 0.61792 0.2897 0.0
H1000 H 0.55402 0.60081 0.23929 0.0
H1001 H 0.5461 0.57482 0.27748 0.0
H1002 H 0.57344 0.58854 0.289 0.0
H1003 H 0.58147 0.60906 0.5306 0.0
H1004 H 0.56503 0.57285 0.56839 0.0
H1005 H 0.53049 0.56098 0.39076 0.0
C1006 C 0.56474 0.64451 0.31116 0.0
C1007 C 0.57878 0.66356 0.33073 0.0
C1008 C 0.58961 0.66286 0.38988 0.0
C1009 C 0.5861 0.64432 0.42905 0.0
C1010 C 0.57203 0.62611 0.40854 0.0
C1011 C 0.5617 0.6259 0.35072 0.0
C1012 C 0.54747 0.60401 0.34007 0.0
C1013 C 0.52305 0.60807 0.33246 0.0
C1014 C 0.55575 0.59129 0.28307 0.0
C1015 C 0.55129 0.59202 0.40108 0.0
C1016 C 0.56543 0.60523 0.43999 0.0
C1017 C 0.57064 0.59847 0.50011 0.0
C1018 C 0.56116 0.5778 0.52121 0.0
C1019 C 0.54666 0.56375 0.48244 0.0
C1020 C 0.54187 0.571 0.42113 0.0
H1021 H 0.85127 0.45509 0.37994 0.0
H1022 H 0.87148 0.47361 0.19044 0.0
H1023 H 0.90853 0.4863 0.2294 0.0
H1024 H 0.88166 0.50097 0.46132 0.0
H1025 H 0.88989 0.48484 0.52647 0.0
H1026 H 0.86469 0.47635 0.4846 0.0
H1027 H 0.87825 0.43767 0.4637 0.0
H1028 H 0.90354 0.44611 0.50528 0.0
H1029 H 0.90445 0.43563 0.42563 0.0
H1030 H 0.94255 0.49885 0.28642 0.0
H1031 H 0.97335 0.50877 0.35895 0.0
H1032 H 0.93327 0.48216 0.5145 0.0
C1033 C 0.86352 0.46176 0.34665 0.0
C1034 C 0.85829 0.46307 0.28155 0.0
C1035 C 0.87496 0.47187 0.23994 0.0
C1036 C 0.89611 0.47936 0.26178 0.0
C1037 C 0.90065 0.47799 0.32564 0.0
C1038 C 0.88502 0.46925 0.36776 0.0
C1039 C 0.89477 0.46963 0.43406 0.0
C1040 C 0.88198 0.4838 0.47925 0.0
C1041 C 0.89529 0.44585 0.4586 0.0
C1042 C 0.91805 0.48053 0.42227 0.0
C1043 C 0.92089 0.48509 0.35921 0.0
C1044 C 0.94061 0.49532 0.33593 0.0
C1045 C 0.95805 0.501 0.37782 0.0
C1046 C 0.95592 0.49647 0.44281 0.0
C1047 C 0.93551 0.48604 0.46524 0.0
loop_
_geom_bond_atom_site_label_1
_geom_bond_atom_site_label_2
_geom_bond_distance
_geom_bond_site_symmetry_2
_ccdc_geom_bond_type
C0 C1 1.264 . S
C0 C5 1.479 . S
C0 C10 1.465 . S
C1 C0 1.264 . S
C1 C3 1.339 . S
C1 H28 0.931 . S
C2 C3 1.395 . S
C2 C4 1.320 . S
C3 C1 1.339 . S
C3 C2 1.395 . S
C3 H29 0.929 . S
C4 C2 1.320 . S
C4 C5 1.405 . S
C4 H30 0.930 . S
C5 C0 1.479 . S
C5 C4 1.405 . S
C5 H31 0.931 . S
U6 O7 2.454 . S
U6 O8 2.458 1_554 S
U6 C9 2.984 1_554 S
U6 C10 2.847 . S
U6 C23 2.882 1_554 S
U6 O24 2.441 . S
U6 O25 2.420 . S
U6 O26 2.455 1_554 S
U6 O27 2.449 1_554 S
O7 U6 2.454 . S
O7 C9 1.353 1_554 S
O8 U6 2.458 1_556 S
O8 C9 1.286 . S
C9 U6 2.984 1_556 S
C9 O7 1.353 1_556 S
C9 O8 1.286 . S
C9 C11 1.363 . S
C10 C0 1.465 . S
C10 U6 2.847 . S
C10 O24 1.249 . S
C10 O25 1.202 . S
C11 C9 1.363 . S
C11 C13 1.408 1_556 S
C11 C16 1.342 . S
C12 C13 1.310 . S
C12 C15 1.461 1_554 S
C12 H32 0.932 . S
C13 C11 1.408 1_554 S
C13 C12 1.310 . S
C13 H33 0.930 . S
C14 C15 1.474 . S
C14 C16 1.285 . S
C14 H34 0.929 . S
C15 C12 1.461 1_556 S
C15 C14 1.474 . S
C16 C11 1.342 . S
C16 C14 1.285 . S
C16 H35 0.930 . S
C17 C20 1.424 . S
C17 C22 1.245 . S
C17 C23 1.428 . S
C18 C21 1.260 . S
C18 C22 1.477 . S
C18 H36 0.932 . S
C19 C20 1.384 . S
C19 C21 1.479 . S
C19 H37 0.929 . S
C20 C17 1.424 . S
C20 C19 1.384 . S
C20 H38 0.928 . S
C21 C18 1.260 . S
C21 C19 1.479 . S
C22 C17 1.245 . S
C22 C18 1.477 . S
C22 H39 0.932 . S
C23 U6 2.882 1_556 S
C23 C17 1.428 . S
C23 O26 1.301 . S
C23 O27 1.282 . S
O24 U6 2.441 . S
O24 C10 1.249 . S
O25 U6 2.420 . S
O25 C10 1.202 . S
O26 U6 2.455 1_556 S
O26 C23 1.301 . S
O27 U6 2.449 1_556 S
O27 C23 1.282 . S
H28 C1 0.931 . S
H29 C3 0.929 . S
H30 C4 0.930 . S
H31 C5 0.931 . S
H32 C12 0.932 . S
H33 C13 0.930 . S
H34 C14 0.929 . S
H35 C16 0.930 . S
H36 C18 0.932 . S
H37 C19 0.929 . S
H38 C20 0.928 . S
H39 C22 0.932 . S
C40 C41 1.264 . S
C40 C45 1.479 . S
C40 C50 1.465 . S
C41 C40 1.264 . S
C41 C43 1.339 . S
C41 H68 0.931 . S
C42 C43 1.395 . S
C42 C44 1.320 . S
C43 C41 1.339 . S
C43 C42 1.395 . S
C43 H69 0.929 . S
C44 C42 1.320 . S
C44 C45 1.405 . S
C44 H70 0.930 . S
C45 C40 1.479 . S
C45 C44 1.405 . S
C45 H71 0.931 . S
U46 O47 2.454 . S
U46 O48 2.458 1_554 S
U46 C49 2.984 1_554 S
U46 C50 2.847 . S
U46 C63 2.882 1_554 S
U46 O64 2.441 . S
U46 O65 2.420 . S
U46 O66 2.455 1_554 S
U46 O67 2.449 1_554 S
O47 U46 2.454 . S
O47 C49 1.353 1_554 S
O48 U46 2.458 1_556 S
O48 C49 1.286 . S
C49 U46 2.984 1_556 S
C49 O47 1.353 1_556 S
C49 O48 1.286 . S
C49 C51 1.363 . S
C50 C40 1.465 . S
C50 U46 2.847 . S
C50 O64 1.249 . S
C50 O65 1.202 . S
C51 C49 1.363 . S
C51 C53 1.408 1_556 S
C51 C56 1.342 . S
C52 C53 1.310 1_556 S
C52 C55 1.461 . S
C52 H72 0.932 1_556 S
C53 C51 1.408 1_554 S
C53 C52 1.310 1_554 S
C53 H73 0.930 . S
C54 C55 1.474 . S
C54 C56 1.285 . S
C54 H74 0.929 . S
C55 C52 1.461 . S
C55 C54 1.474 . S
C56 C51 1.342 . S
C56 C54 1.285 . S
C56 H75 0.930 . S
C57 C60 1.424 . S
C57 C62 1.245 . S
C57 C63 1.428 . S
C58 C61 1.260 . S
C58 C62 1.477 . S
C58 H76 0.932 . S
C59 C60 1.384 . S
C59 C61 1.479 . S
C59 H77 0.929 . S
C60 C57 1.424 . S
C60 C59 1.384 . S
C60 H78 0.928 . S
C61 C58 1.260 . S
C61 C59 1.479 . S
C62 C57 1.245 . S
C62 C58 1.477 . S
C62 H79 0.932 . S
C63 U46 2.882 1_556 S
C63 C57 1.428 . S
C63 O66 1.301 . S
C63 O67 1.282 . S
O64 U46 2.441 . S
O64 C50 1.249 . S
O65 U46 2.420 . S
O65 C50 1.202 . S
O66 U46 2.455 1_556 S
O66 C63 1.301 . S
O67 U46 2.449 1_556 S
O67 C63 1.282 . S
H68 C41 0.931 . S
H69 C43 0.929 . S
H70 C44 0.930 . S
H71 C45 0.931 . S
H72 C52 0.932 1_554 S
H73 C53 0.930 . S
H74 C54 0.929 . S
H75 C56 0.930 . S
H76 C58 0.932 . S
H77 C59 0.929 . S
H78 C60 0.928 . S
H79 C62 0.932 . S
C80 C81 1.264 . S
C80 C85 1.479 . S
C80 C90 1.465 . S
C81 C80 1.264 . S
C81 C83 1.339 . S
C81 H108 0.931 . S
C82 C83 1.395 . S
C82 C84 1.320 . S
C83 C81 1.339 . S
C83 C82 1.395 . S
C83 H109 0.929 . S
C84 C82 1.320 . S
C84 C85 1.405 . S
C84 H110 0.917 1_545 S
C85 C80 1.479 . S
C85 C84 1.405 . S
C85 H111 0.931 . S
U86 O87 2.454 . S
U86 O88 2.458 1_554 S
U86 C89 2.984 . S
U86 C90 2.847 . S
U86 C103 2.882 1_554 S
U86 O104 2.441 . S
U86 O105 2.420 . S
U86 O106 2.455 1_554 S
U86 O107 2.446 1_554 S
O87 U86 2.454 . S
O87 C89 1.353 . S
O88 U86 2.458 1_556 S
O88 C89 1.286 1_556 S
C89 U86 2.984 . S
C89 O87 1.353 . S
C89 O88 1.286 1_554 S
C89 C91 1.363 1_554 S
C90 C80 1.465 . S
C90 U86 2.847 . S
C90 O104 1.249 . S
C90 O105 1.202 . S
C91 C89 1.363 1_556 S
C91 C93 1.408 1_556 S
C91 C96 1.342 . S
C92 C93 1.310 . S
C92 C95 1.461 1_554 S
C92 H112 0.932 . S
C93 C91 1.408 1_554 S
C93 C92 1.310 . S
C93 H113 0.930 . S
C94 C95 1.475 1_565 S
C94 C96 1.284 1_565 S
C94 H114 0.930 . S
C95 C92 1.461 1_556 S
C95 C94 1.475 1_545 S
C96 C91 1.342 . S
C96 C94 1.284 1_545 S
C96 H115 0.929 . S
C97 C100 1.424 . S
C97 C102 1.245 . S
C97 C103 1.428 . S
C98 C101 1.260 . S
C98 C102 1.477 . S
C98 H116 0.932 . S
C99 C100 1.384 . S
C99 C101 1.479 . S
C99 H117 0.929 . S
C100 C97 1.424 . S
C100 C99 1.384 . S
C100 H118 0.928 . S
C101 C98 1.260 . S
C101 C99 1.479 . S
C102 C97 1.245 . S
C102 C98 1.477 . S
C102 H119 0.932 . S
C103 U86 2.882 1_556 S
C103 C97 1.428 . S
C103 O106 1.301 . S
C103 O107 1.291 . S
O104 U86 2.441 . S
O104 C90 1.249 . S
O105 U86 2.420 . S
O105 C90 1.202 . S
O106 U86 2.455 1_556 S
O106 C103 1.301 . S
O107 U86 2.446 1_556 S
O107 C103 1.291 . S
H108 C81 0.931 . S
H109 C83 0.929 . S
H110 C84 0.917 1_565 S
H111 C85 0.931 . S
H112 C92 0.932 . S
H113 C93 0.930 . S
H114 C94 0.930 . S
H115 C96 0.929 . S
H116 C98 0.932 . S
H117 C99 0.929 . S
H118 C100 0.928 . S
H119 C102 0.932 . S
C120 C121 1.264 . S
C120 C125 1.479 . S
C120 C130 1.465 . S
C121 C120 1.264 . S
C121 C123 1.339 . S
C121 H148 0.931 . S
C122 C123 1.395 . S
C122 C124 1.320 . S
C123 C121 1.339 . S
C123 C122 1.395 . S
C123 H149 0.929 . S
C124 C122 1.320 . S
C124 C125 1.405 . S
C124 H150 0.930 . S
C125 C120 1.479 . S
C125 C124 1.405 . S
C125 H151 0.931 . S
U126 O127 2.454 . S
U126 O128 2.458 1_554 S
U126 C129 2.984 . S
U126 C130 2.847 . S
U126 C143 2.882 1_554 S
U126 O144 2.441 . S
U126 O145 2.420 . S
U126 O146 2.455 1_554 S
U126 O147 2.449 . S
O127 U126 2.454 . S
O127 C129 1.353 . S
O128 U126 2.458 1_556 S
O128 C129 1.286 1_556 S
C129 U126 2.984 . S
C129 O127 1.353 . S
C129 O128 1.286 1_554 S
C129 C131 1.363 . S
C130 C120 1.465 . S
C130 U126 2.847 . S
C130 O144 1.249 . S
C130 O145 1.202 . S
C131 C129 1.363 . S
C131 C133 1.408 . S
C131 C136 1.342 1_554 S
C132 C133 1.310 . S
C132 C135 1.461 1_554 S
C132 H152 0.932 . S
C133 C131 1.408 . S
C133 C132 1.310 . S
C133 H153 0.930 . S
C134 C135 1.474 . S
C134 C136 1.285 . S
C134 H154 0.929 . S
C135 C132 1.461 1_556 S
C135 C134 1.474 . S
C136 C131 1.342 1_556 S
C136 C134 1.285 . S
C136 H155 0.930 . S
C137 C140 1.424 . S
C137 C142 1.245 . S
C137 C143 1.428 . S
C138 C141 1.260 . S
C138 C142 1.477 . S
C138 H156 0.932 . S
C139 C140 1.384 . S
C139 C141 1.479 . S
C139 H157 0.929 . S
C140 C137 1.424 . S
C140 C139 1.384 . S
C140 H158 0.928 . S
C141 C138 1.260 . S
C141 C139 1.479 . S
C142 C137 1.245 . S
C142 C138 1.477 . S
C142 H159 0.932 . S
C143 U126 2.882 1_556 S
C143 C137 1.428 . S
C143 O146 1.301 . S
C143 O147 1.282 1_556 S
O144 U126 2.441 . S
O144 C130 1.249 . S
O145 U126 2.420 . S
O145 C130 1.202 . S
O146 U126 2.455 1_556 S
O146 C143 1.301 . S
O147 U126 2.449 . S
O147 C143 1.282 1_554 S
H148 C121 0.931 . S
H149 C123 0.929 . S
H150 C124 0.930 . S
H151 C125 0.931 . S
H152 C132 0.932 . S
H153 C133 0.930 . S
H154 C134 0.929 . S
H155 C136 0.930 . S
H156 C138 0.932 . S
H157 C139 0.929 . S
H158 C140 0.928 . S
H159 C142 0.932 . S
C160 C161 1.264 . S
C160 C165 1.479 . S
C160 C170 1.465 . S
C161 C160 1.264 . S
C161 C163 1.339 . S
C161 H188 0.931 . S
C162 C163 1.395 . S
C162 C164 1.320 . S
C163 C161 1.339 . S
C163 C162 1.395 . S
C163 H189 0.929 . S
C164 C162 1.320 . S
C164 C165 1.405 . S
C164 H190 0.930 . S
C165 C160 1.479 . S
C165 C164 1.405 . S
C165 H191 0.931 . S
U166 O167 2.454 . S
U166 O168 2.458 . S
U166 C169 2.984 . S
U166 C170 2.847 1_554 S
U166 C183 2.882 . S
U166 O184 2.441 1_554 S
U166 O185 2.420 . S
U166 O186 2.455 . S
U166 O187 2.449 . S
O167 U166 2.454 . S
O167 C169 1.353 . S
O168 U166 2.458 . S
O168 C169 1.286 . S
C169 U166 2.984 . S
C169 O167 1.353 . S
C169 O168 1.286 . S
C169 C171 1.363 . S
C170 C160 1.465 . S
C170 U166 2.847 1_556 S
C170 O184 1.249 . S
C170 O185 1.202 1_556 S
C171 C169 1.363 . S
C171 C173 1.408 . S
C171 C176 1.342 . S
C172 C173 1.310 . S
C172 C175 1.461 . S
C172 H192 0.932 . S
C173 C171 1.408 . S
C173 C172 1.310 . S
C173 H193 0.930 . S
C174 C175 1.474 . S
C174 C176 1.285 . S
C174 H194 0.929 . S
C175 C172 1.461 . S
C175 C174 1.474 . S
C176 C171 1.342 . S
C176 C174 1.285 . S
C176 H195 0.930 . S
C177 C180 1.424 . S
C177 C182 1.245 . S
C177 C183 1.428 . S
C178 C181 1.260 . S
C178 C182 1.477 . S
C178 H196 0.932 . S
C179 C180 1.384 . S
C179 C181 1.479 . S
C179 H197 0.929 . S
C180 C177 1.424 . S
C180 C179 1.384 . S
C180 H198 0.928 . S
C181 C178 1.260 . S
C181 C179 1.479 . S
C182 C177 1.245 . S
C182 C178 1.477 . S
C182 H199 0.932 . S
C183 U166 2.882 . S
C183 C177 1.428 . S
C183 O186 1.301 . S
C183 O187 1.282 . S
O184 U166 2.441 1_556 S
O184 C170 1.249 . S
O185 U166 2.420 . S
O185 C170 1.202 1_554 S
O186 U166 2.455 . S
O186 C183 1.301 . S
O187 U166 2.449 . S
O187 C183 1.282 . S
H188 C161 0.931 . S
H189 C163 0.929 . S
H190 C164 0.930 . S
H191 C165 0.931 . S
H192 C172 0.932 . S
H193 C173 0.930 . S
H194 C174 0.929 . S
H195 C176 0.930 . S
H196 C178 0.932 . S
H197 C179 0.929 . S
H198 C180 0.928 . S
H199 C182 0.932 . S
C200 C201 1.264 . S
C200 C205 1.479 . S
C200 C210 1.465 . S
C201 C200 1.264 . S
C201 C203 1.339 . S
C201 H228 0.931 . S
C202 C203 1.395 . S
C202 C204 1.320 . S
C203 C201 1.339 . S
C203 C202 1.395 . S
C203 H229 0.929 . S
C204 C202 1.320 . S
C204 C205 1.405 . S
C204 H230 0.930 . S
C205 C200 1.479 . S
C205 C204 1.405 . S
C205 H231 0.931 . S
U206 O207 2.454 . S
U206 O208 2.458 . S
U206 C209 2.984 . S
U206 C210 2.847 1_554 S
U206 C223 2.882 . S
U206 O224 2.441 . S
U206 O225 2.420 . S
U206 O226 2.455 . S
U206 O227 2.449 . S
O207 U206 2.454 . S
O207 C209 1.353 . S
O208 U206 2.458 . S
O208 C209 1.286 . S
C209 U206 2.984 . S
C209 O207 1.353 . S
C209 O208 1.286 . S
C209 C211 1.363 . S
C210 C200 1.465 . S
C210 U206 2.847 1_556 S
C210 O224 1.249 1_556 S
C210 O225 1.202 1_556 S
C211 C209 1.363 . S
C211 C213 1.408 . S
C211 C216 1.342 . S
C212 C213 1.310 . S
C212 C215 1.461 . S
C212 H232 0.932 . S
C213 C211 1.408 . S
C213 C212 1.310 . S
C213 H233 0.930 . S
C214 C215 1.474 . S
C214 C216 1.285 . S
C214 H234 0.929 . S
C215 C212 1.461 . S
C215 C214 1.474 . S
C216 C211 1.342 . S
C216 C214 1.285 . S
C216 H235 0.930 . S
C217 C220 1.424 . S
C217 C222 1.245 . S
C217 C223 1.428 . S
C218 C221 1.260 . S
C218 C222 1.477 . S
C218 H236 0.932 . S
C219 C220 1.384 . S
C219 C221 1.479 . S
C219 H237 0.929 . S
C220 C217 1.424 . S
C220 C219 1.384 . S
C220 H238 0.928 . S
C221 C218 1.260 . S
C221 C219 1.479 . S
C222 C217 1.245 . S
C222 C218 1.477 . S
C222 H239 0.932 . S
C223 U206 2.882 . S
C223 C217 1.428 . S
C223 O226 1.301 . S
C223 O227 1.282 . S
O224 U206 2.441 . S
O224 C210 1.249 1_554 S
O225 U206 2.420 . S
O225 C210 1.202 1_554 S
O226 U206 2.455 . S
O226 C223 1.301 . S
O227 U206 2.449 . S
O227 C223 1.282 . S
H228 C201 0.931 . S
H229 C203 0.929 . S
H230 C204 0.930 . S
H231 C205 0.931 . S
H232 C212 0.932 . S
H233 C213 0.930 . S
H234 C214 0.929 . S
H235 C216 0.930 . S
H236 C218 0.932 . S
H237 C219 0.929 . S
H238 C220 0.928 . S
H239 C222 0.932 . S
C240 C241 1.264 . S
C240 C245 1.479 . S
C240 C250 1.465 . S
C241 C240 1.264 . S
C241 C243 1.339 . S
C241 H268 0.931 . S
C242 C243 1.395 . S
C242 C244 1.320 . S
C243 C241 1.339 . S
C243 C242 1.395 . S
C243 H269 0.929 . S
C244 C242 1.320 . S
C244 C245 1.405 . S
C244 H270 0.926 1_545 S
C245 C240 1.479 . S
C245 C244 1.405 . S
C245 H271 0.931 . S
U246 O247 2.454 . S
U246 O248 2.458 . S
U246 C249 2.984 . S
U246 C250 2.847 1_554 S
U246 C263 2.882 . S
U246 O264 2.441 1_554 S
U246 O265 2.420 . S
U246 O266 2.455 . S
U246 O267 2.449 . S
O247 U246 2.454 . S
O247 C249 1.353 . S
O248 U246 2.458 . S
O248 C249 1.286 . S
C249 U246 2.984 . S
C249 O247 1.353 . S
C249 O248 1.286 . S
C249 C251 1.363 . S
C250 C240 1.465 . S
C250 U246 2.847 1_556 S
C250 O264 1.249 . S
C250 O265 1.202 1_556 S
C251 C249 1.363 . S
C251 C253 1.408 . S
C251 C256 1.342 . S
C252 C253 1.310 . S
C252 C255 1.462 . S
C252 H272 0.932 . S
C253 C251 1.408 . S
C253 C252 1.310 . S
C253 H273 0.930 . S
C254 C255 1.473 1_565 S
C254 C256 1.285 1_565 S
C254 H274 0.929 . S
C255 C252 1.462 . S
C255 C254 1.473 1_545 S
C256 C251 1.342 . S
C256 C254 1.285 1_545 S
C256 H275 0.938 . S
C257 C260 1.424 . S
C257 C262 1.245 . S
C257 C263 1.428 . S
C258 C261 1.260 . S
C258 C262 1.477 . S
C258 H276 0.932 . S
C259 C260 1.384 . S
C259 C261 1.479 . S
C259 H277 0.929 . S
C260 C257 1.424 . S
C260 C259 1.384 . S
C260 H278 0.928 . S
C261 C258 1.260 . S
C261 C259 1.479 . S
C262 C257 1.245 . S
C262 C258 1.477 . S
C262 H279 0.932 . S
C263 U246 2.882 . S
C263 C257 1.428 . S
C263 O266 1.301 . S
C263 O267 1.282 . S
O264 U246 2.441 1_556 S
O264 C250 1.249 . S
O265 U246 2.420 . S
O265 C250 1.202 1_554 S
O266 U246 2.455 . S
O266 C263 1.301 . S
O267 U246 2.449 . S
O267 C263 1.282 . S
H268 C241 0.931 . S
H269 C243 0.929 . S
H270 C244 0.926 1_565 S
H271 C245 0.931 . S
H272 C252 0.932 . S
H273 C253 0.930 . S
H274 C254 0.929 . S
H275 C256 0.938 . S
H276 C258 0.932 . S
H277 C259 0.929 . S
H278 C260 0.928 . S
H279 C262 0.932 . S
C280 C281 1.264 . S
C280 C285 1.479 . S
C280 C290 1.465 . S
C281 C280 1.264 . S
C281 C283 1.339 . S
C281 H308 0.931 . S
C282 C283 1.395 . S
C282 C284 1.320 . S
C283 C281 1.339 . S
C283 C282 1.395 . S
C283 H309 0.929 . S
C284 C282 1.320 . S
C284 C285 1.405 . S
C284 H310 0.930 . S
C285 C280 1.479 . S
C285 C284 1.405 . S
C285 H311 0.931 . S
U286 O287 2.454 . S
U286 O288 2.458 . S
U286 C289 2.984 . S
U286 C290 2.847 1_554 S
U286 C303 2.882 . S
U286 O304 2.441 1_554 S
U286 O305 2.420 1_554 S
U286 O306 2.455 . S
U286 O307 2.449 . S
O287 U286 2.454 . S
O287 C289 1.353 . S
O288 U286 2.458 . S
O288 C289 1.286 . S
C289 U286 2.984 . S
C289 O287 1.353 . S
C289 O288 1.286 . S
C289 C291 1.363 . S
C290 C280 1.465 . S
C290 U286 2.847 1_556 S
C290 O304 1.249 . S
C290 O305 1.202 . S
C291 C289 1.363 . S
C291 C293 1.408 . S
C291 C296 1.342 . S
C292 C293 1.310 . S
C292 C295 1.461 . S
C292 H312 0.932 . S
C293 C291 1.408 . S
C293 C292 1.310 . S
C293 H313 0.930 . S
C294 C295 1.474 . S
C294 C296 1.285 . S
C294 H314 0.929 . S
C295 C292 1.461 . S
C295 C294 1.474 . S
C296 C291 1.342 . S
C296 C294 1.285 . S
C296 H315 0.930 . S
C297 C300 1.424 . S
C297 C302 1.245 . S
C297 C303 1.428 . S
C298 C301 1.260 . S
C298 C302 1.477 . S
C298 H316 0.932 . S
C299 C300 1.384 . S
C299 C301 1.479 . S
C299 H317 0.929 . S
C300 C297 1.424 . S
C300 C299 1.384 . S
C300 H318 0.928 . S
C301 C298 1.260 . S
C301 C299 1.479 . S
C302 C297 1.245 . S
C302 C298 1.477 . S
C302 H319 0.932 . S
C303 U286 2.882 . S
C303 C297 1.428 . S
C303 O306 1.301 . S
C303 O307 1.282 . S
O304 U286 2.441 1_556 S
O304 C290 1.249 . S
O305 U286 2.420 1_556 S
O305 C290 1.202 . S
O306 U286 2.455 . S
O306 C303 1.301 . S
O307 U286 2.449 . S
O307 C303 1.282 . S
H308 C281 0.931 . S
H309 C283 0.929 . S
H310 C284 0.930 . S
H311 C285 0.931 . S
H312 C292 0.932 . S
H313 C293 0.930 . S
H314 C294 0.929 . S
H315 C296 0.930 . S
H316 C298 0.932 . S
H317 C299 0.929 . S
H318 C300 0.928 . S
H319 C302 0.932 . S
Dy320 O324 2.398 . S
Dy320 O325 2.491 1_455 S
Dy320 O326 2.403 . S
Dy320 O327 2.664 1_565 S
Dy320 O331 2.326 . S
Dy320 O335 2.310 1_455 S
Dy320 O336 2.351 1_565 S
C321 O332 1.185 1_455 S
C321 O333 1.355 . S
C322 O324 1.185 . S
C322 O325 1.355 1_455 S
Dy323 O327 2.310 1_655 S
Dy323 O330 2.351 1_545 S
Dy323 O332 2.398 . S
Dy323 O333 2.491 1_655 S
Dy323 O334 2.403 . S
Dy323 O335 2.664 1_545 S
Dy323 O337 2.326 1_655 S
O324 Dy320 2.398 . S
O324 C322 1.185 . S
O325 Dy320 2.491 1_655 S
O325 C322 1.355 1_655 S
O326 Dy320 2.403 . S
O326 C328 1.254 . S
O327 Dy320 2.664 1_545 S
O327 Dy323 2.310 1_455 S
O327 C328 1.268 1_545 S
C328 O326 1.254 . S
C328 O327 1.268 1_565 S
C329 O334 1.254 . S
C329 O335 1.268 1_545 S
O330 Dy323 2.351 1_565 S
O330 C338 1.249 . S
O331 Dy320 2.326 . S
O331 C338 1.267 1_455 S
O332 C321 1.185 1_655 S
O332 Dy323 2.398 . S
O333 C321 1.355 . S
O333 Dy323 2.491 1_455 S
O334 Dy323 2.403 . S
O334 C329 1.254 . S
O335 Dy320 2.310 1_655 S
O335 Dy323 2.664 1_565 S
O335 C329 1.268 1_565 S
O336 Dy320 2.351 1_545 S
O336 C339 1.249 . S
O337 Dy323 2.326 1_455 S
O337 C339 1.267 . S
C338 O330 1.249 . S
C338 O331 1.267 1_655 S
C339 O336 1.249 . S
C339 O337 1.267 . S
Dy340 O344 2.398 . S
Dy340 O345 2.491 . S
Dy340 O346 2.403 . S
Dy340 O347 2.664 . S
Dy340 O351 2.326 1_565 S
Dy340 O355 2.310 1_565 S
Dy340 O356 2.351 . S
C341 O352 1.185 . S
C341 O353 1.355 . S
C342 O344 1.185 . S
C342 O345 1.355 . S
Dy343 O347 2.310 1_545 S
Dy343 O350 2.351 . S
Dy343 O352 2.398 . S
Dy343 O353 2.491 . S
Dy343 O354 2.403 . S
Dy343 O355 2.664 . S
Dy343 O357 2.326 1_545 S
O344 Dy340 2.398 . S
O344 C342 1.185 . S
O345 Dy340 2.491 . S
O345 C342 1.355 . S
O346 Dy340 2.403 . S
O346 C348 1.254 . S
O347 Dy340 2.664 . S
O347 Dy343 2.310 1_565 S
O347 C348 1.268 . S
C348 O346 1.254 . S
C348 O347 1.268 . S
C349 O354 1.254 . S
C349 O355 1.268 . S
O350 Dy343 2.351 . S
O350 C358 1.249 . S
O351 Dy340 2.326 1_545 S
O351 C358 1.267 . S
O352 C341 1.185 . S
O352 Dy343 2.398 . S
O353 C341 1.355 . S
O353 Dy343 2.491 . S
O354 Dy343 2.403 . S
O354 C349 1.254 . S
O355 Dy340 2.310 1_545 S
O355 Dy343 2.664 . S
O355 C349 1.268 . S
O356 Dy340 2.351 . S
O356 C359 1.249 . S
O357 Dy343 2.326 1_565 S
O357 C359 1.267 . S
C358 O350 1.249 . S
C358 O351 1.267 . S
C359 O356 1.249 . S
C359 O357 1.267 . S
Dy360 O364 2.398 . S
Dy360 O365 2.491 . S
Dy360 O366 2.403 . S
Dy360 O367 2.664 . S
Dy360 O371 2.326 . S
Dy360 O375 2.310 . S
Dy360 O376 2.351 . S
C361 O372 1.185 . S
C361 O373 1.355 . S
C362 O364 1.185 . S
C362 O365 1.355 . S
Dy363 O367 2.310 . S
Dy363 O370 2.351 . S
Dy363 O372 2.398 . S
Dy363 O373 2.491 . S
Dy363 O374 2.403 . S
Dy363 O375 2.664 . S
Dy363 O377 2.326 . S
O364 Dy360 2.398 . S
O364 C362 1.185 . S
O365 Dy360 2.491 . S
O365 C362 1.355 . S
O366 Dy360 2.403 . S
O366 C368 1.254 . S
O367 Dy360 2.664 . S
O367 Dy363 2.310 . S
O367 C368 1.268 . S
C368 O366 1.254 . S
C368 O367 1.268 . S
C369 O374 1.254 . S
C369 O375 1.268 . S
O370 Dy363 2.351 . S
O370 C378 1.249 . S
O371 Dy360 2.326 . S
O371 C378 1.267 . S
O372 C361 1.185 . S
O372 Dy363 2.398 . S
O373 C361 1.355 . S
O373 Dy363 2.491 . S
O374 Dy363 2.403 . S
O374 C369 1.254 . S
O375 Dy360 2.310 . S
O375 Dy363 2.664 . S
O375 C369 1.268 . S
O376 Dy360 2.351 . S
O376 C379 1.249 . S
O377 Dy363 2.326 . S
O377 C379 1.267 . S
C378 O370 1.249 . S
C378 O371 1.267 . S
C379 O376 1.249 . S
C379 O377 1.267 . S
Dy380 O384 2.398 . S
Dy380 O385 2.491 . S
Dy380 O386 2.403 1_655 S
Dy380 O387 2.664 1_655 S
Dy380 O391 2.326 . S
Dy380 O395 2.310 . S
Dy380 O396 2.351 1_655 S
C381 O392 1.185 . S
C381 O393 1.355 . S
C382 O384 1.185 . S
C382 O385 1.355 . S
Dy383 O387 2.310 . S
Dy383 O390 2.351 1_455 S
Dy383 O392 2.398 . S
Dy383 O393 2.491 . S
Dy383 O394 2.403 . S
Dy383 O395 2.664 1_455 S
Dy383 O397 2.326 . S
O384 Dy380 2.398 . S
O384 C382 1.185 . S
O385 Dy380 2.491 . S
O385 C382 1.355 . S
O386 Dy380 2.403 1_455 S
O386 C388 1.254 . S
O387 Dy380 2.664 1_455 S
O387 Dy383 2.310 . S
O387 C388 1.268 . S
C388 O386 1.254 . S
C388 O387 1.268 . S
C389 O394 1.254 1_655 S
C389 O395 1.268 . S
O390 Dy383 2.351 1_655 S
O390 C398 1.249 . S
O391 Dy380 2.326 . S
O391 C398 1.267 . S
O392 C381 1.185 . S
O392 Dy383 2.398 . S
O393 C381 1.355 . S
O393 Dy383 2.491 . S
O394 Dy383 2.403 . S
O394 C389 1.254 1_455 S
O395 Dy380 2.310 . S
O395 Dy383 2.664 1_655 S
O395 C389 1.268 . S
O396 Dy380 2.351 1_455 S
O396 C399 1.249 . S
O397 Dy383 2.326 . S
O397 C399 1.267 . S
C398 O390 1.249 . S
C398 O391 1.267 . S
C399 O396 1.249 . S
C399 O397 1.267 . S
H400 C412 0.930 . S
H401 C414 0.930 . S
H402 C415 0.930 . S
H403 C419 0.959 . S
H404 C419 0.959 . S
H405 C419 0.961 . S
H406 C420 0.960 . S
H407 C420 0.961 . S
H408 C420 0.959 . S
H409 C423 0.929 . S
H410 C424 0.931 . S
H411 C426 0.930 . S
C412 H400 0.930 . S
C412 C413 1.399 1_545 S
C412 C417 1.399 . S
C413 C412 1.399 1_565 S
C413 C414 1.376 . S
C414 H401 0.930 . S
C414 C413 1.376 . S
C414 C415 1.388 . S
C415 H402 0.930 . S
C415 C414 1.388 . S
C415 C416 1.390 . S
C416 C415 1.390 . S
C416 C417 1.394 1_565 S
C416 C422 1.465 . S
C417 C412 1.399 . S
C417 C416 1.394 1_545 S
C417 C418 1.516 . S
C418 C417 1.516 . S
C418 C419 1.502 . S
C418 C420 1.561 . S
C418 C421 1.526 . S
C419 H403 0.959 . S
C419 H404 0.959 . S
C419 H405 0.961 . S
C419 C418 1.502 . S
C420 H406 0.960 . S
C420 H407 0.961 . S
C420 H408 0.959 . S
C420 C418 1.561 . S
C421 C418 1.526 . S
C421 C422 1.396 1_545 S
C421 C426 1.390 . S
C422 C416 1.465 . S
C422 C421 1.396 1_565 S
C422 C423 1.399 . S
C423 H409 0.929 . S
C423 C422 1.399 . S
C423 C424 1.385 . S
C424 H410 0.931 . S
C424 C423 1.385 . S
C424 C425 1.389 . S
C425 C424 1.389 . S
C425 C426 1.387 1_565 S
C426 H411 0.930 . S
C426 C421 1.390 . S
C426 C425 1.387 1_545 S
H427 C439 0.930 . S
H428 C441 0.930 . S
H429 C442 0.930 . S
H430 C446 0.959 . S
H431 C446 0.959 . S
H432 C446 0.961 . S
H433 C447 0.960 . S
H434 C447 0.961 . S
H435 C447 0.959 . S
H436 C450 0.929 . S
H437 C451 0.931 . S
H438 C453 0.930 . S
C439 H427 0.930 . S
C439 C440 1.399 . S
C439 C444 1.399 . S
C440 C439 1.399 . S
C440 C441 1.376 . S
C441 H428 0.930 . S
C441 C440 1.376 . S
C441 C442 1.388 . S
C442 H429 0.930 . S
C442 C441 1.388 . S
C442 C443 1.390 . S
C443 C442 1.390 . S
C443 C444 1.394 . S
C443 C449 1.465 . S
C444 C439 1.399 . S
C444 C443 1.394 . S
C444 C445 1.516 . S
C445 C444 1.516 . S
C445 C446 1.502 . S
C445 C447 1.561 . S
C445 C448 1.526 . S
C446 H430 0.959 . S
C446 H431 0.959 . S
C446 H432 0.961 . S
C446 C445 1.502 . S
C447 H433 0.960 . S
C447 H434 0.961 . S
C447 H435 0.959 . S
C447 C445 1.561 . S
C448 C445 1.526 . S
C448 C449 1.396 . S
C448 C453 1.390 . S
C449 C443 1.465 . S
C449 C448 1.396 . S
C449 C450 1.399 . S
C450 H436 0.929 . S
C450 C449 1.399 . S
C450 C451 1.385 . S
C451 H437 0.931 . S
C451 C450 1.385 . S
C451 C452 1.389 . S
C452 C451 1.389 . S
C452 C453 1.387 . S
C453 H438 0.930 . S
C453 C448 1.390 . S
C453 C452 1.387 . S
H454 C466 0.930 . S
H455 C468 0.930 . S
H456 C469 0.930 . S
H457 C473 0.959 . S
H458 C473 0.959 . S
H459 C473 0.961 . S
H460 C474 0.960 . S
H461 C474 0.961 . S
H462 C474 0.959 . S
H463 C477 0.929 . S
H464 C478 0.931 . S
H465 C480 0.930 . S
C466 H454 0.930 . S
C466 C467 1.399 . S
C466 C471 1.399 . S
C467 C466 1.399 . S
C467 C468 1.376 . S
C468 H455 0.930 . S
C468 C467 1.376 . S
C468 C469 1.388 . S
C469 H456 0.930 . S
C469 C468 1.388 . S
C469 C470 1.390 . S
C470 C469 1.390 . S
C470 C471 1.394 . S
C470 C476 1.465 . S
C471 C466 1.399 . S
C471 C470 1.394 . S
C471 C472 1.516 . S
C472 C471 1.516 . S
C472 C473 1.502 . S
C472 C474 1.561 . S
C472 C475 1.526 . S
C473 H457 0.959 . S
C473 H458 0.959 . S
C473 H459 0.961 . S
C473 C472 1.502 . S
C474 H460 0.960 . S
C474 H461 0.961 . S
C474 H462 0.959 . S
C474 C472 1.561 . S
C475 C472 1.526 . S
C475 C476 1.396 . S
C475 C480 1.390 . S
C476 C470 1.465 . S
C476 C475 1.396 . S
C476 C477 1.399 . S
C477 H463 0.929 . S
C477 C476 1.399 . S
C477 C478 1.385 . S
C478 H464 0.931 . S
C478 C477 1.385 . S
C478 C479 1.389 . S
C479 C478 1.389 . S
C479 C480 1.387 . S
C480 H465 0.930 . S
C480 C475 1.390 . S
C480 C479 1.387 . S
H481 C493 0.930 . S
H482 C495 0.930 . S
H483 C496 0.930 . S
H484 C500 0.959 . S
H485 C500 0.959 . S
H486 C500 0.961 . S
H487 C501 0.960 . S
H488 C501 0.961 . S
H489 C501 0.959 . S
H490 C504 0.929 . S
H491 C505 0.931 . S
H492 C507 0.930 . S
C493 H481 0.930 . S
C493 C494 1.399 . S
C493 C498 1.399 . S
C494 C493 1.399 . S
C494 C495 1.376 . S
C495 H482 0.930 . S
C495 C494 1.376 . S
C495 C496 1.388 . S
C496 H483 0.930 . S
C496 C495 1.388 . S
C496 C497 1.390 . S
C497 C496 1.390 . S
C497 C498 1.394 . S
C497 C503 1.465 . S
C498 C493 1.399 . S
C498 C497 1.394 . S
C498 C499 1.516 . S
C499 C498 1.516 . S
C499 C500 1.502 . S
C499 C501 1.561 . S
C499 C502 1.526 . S
C500 H484 0.959 . S
C500 H485 0.959 . S
C500 H486 0.961 . S
C500 C499 1.502 . S
C501 H487 0.960 . S
C501 H488 0.961 . S
C501 H489 0.959 . S
C501 C499 1.561 . S
C502 C499 1.526 . S
C502 C503 1.396 . S
C502 C507 1.390 . S
C503 C497 1.465 . S
C503 C502 1.396 . S
C503 C504 1.399 . S
C504 H490 0.929 . S
C504 C503 1.399 . S
C504 C505 1.385 . S
C505 H491 0.931 . S
C505 C504 1.385 . S
C505 C506 1.389 . S
C506 C505 1.389 . S
C506 C507 1.387 . S
C507 H492 0.930 . S
C507 C502 1.390 . S
C507 C506 1.387 . S
H508 C520 0.930 . S
H509 C522 0.930 . S
H510 C523 0.930 . S
H511 C527 0.959 . S
H512 C527 0.959 . S
H513 C527 0.961 . S
H514 C528 0.960 . S
H515 C528 0.961 . S
H516 C528 0.959 . S
H517 C531 0.929 . S
H518 C532 0.931 . S
H519 C534 0.930 . S
C520 H508 0.930 . S
C520 C521 1.367 1_545 S
C520 C525 1.399 . S
C521 C520 1.367 1_565 S
C521 C522 1.418 . S
C522 H509 0.930 . S
C522 C521 1.418 . S
C522 C523 1.388 . S
C523 H510 0.930 . S
C523 C522 1.388 . S
C523 C524 1.390 . S
C524 C523 1.390 . S
C524 C525 1.394 1_565 S
C524 C530 1.465 . S
C525 C520 1.399 . S
C525 C524 1.394 1_545 S
C525 C526 1.516 . S
C526 C525 1.516 . S
C526 C527 1.502 . S
C526 C528 1.561 . S
C526 C529 1.526 . S
C527 H511 0.959 . S
C527 H512 0.959 . S
C527 H513 0.961 . S
C527 C526 1.502 . S
C528 H514 0.960 . S
C528 H515 0.961 . S
C528 H516 0.959 . S
C528 C526 1.561 . S
C529 C526 1.526 . S
C529 C530 1.396 1_545 S
C529 C534 1.390 . S
C530 C524 1.465 . S
C530 C529 1.396 1_565 S
C530 C531 1.399 . S
C531 H517 0.929 . S
C531 C530 1.399 . S
C531 C532 1.385 . S
C532 H518 0.931 . S
C532 C531 1.385 . S
C532 C533 1.389 1_565 S
C533 C532 1.389 1_545 S
C533 C534 1.387 . S
C534 H519 0.930 . S
C534 C529 1.390 . S
C534 C533 1.387 . S
H535 C547 0.930 . S
H536 C549 0.930 . S
H537 C550 0.930 . S
H538 C554 0.959 . S
H539 C554 0.959 . S
H540 C554 0.961 . S
H541 C555 0.960 . S
H542 C555 0.961 . S
H543 C555 0.959 . S
H544 C558 0.929 . S
H545 C559 0.931 . S
H546 C561 0.930 . S
C547 H535 0.930 . S
C547 C548 1.399 . S
C547 C552 1.399 . S
C548 C547 1.399 . S
C548 C549 1.376 . S
C549 H536 0.930 . S
C549 C548 1.376 . S
C549 C550 1.388 . S
C550 H537 0.930 . S
C550 C549 1.388 . S
C550 C551 1.390 . S
C551 C550 1.390 . S
C551 C552 1.394 . S
C551 C557 1.465 . S
C552 C547 1.399 . S
C552 C551 1.394 . S
C552 C553 1.516 . S
C553 C552 1.516 . S
C553 C554 1.502 . S
C553 C555 1.561 . S
C553 C556 1.526 . S
C554 H538 0.959 . S
C554 H539 0.959 . S
C554 H540 0.961 . S
C554 C553 1.502 . S
C555 H541 0.960 . S
C555 H542 0.961 . S
C555 H543 0.959 . S
C555 C553 1.561 . S
C556 C553 1.526 . S
C556 C557 1.396 . S
C556 C561 1.390 . S
C557 C551 1.465 . S
C557 C556 1.396 . S
C557 C558 1.399 . S
C558 H544 0.929 . S
C558 C557 1.399 . S
C558 C559 1.385 . S
C559 H545 0.931 . S
C559 C558 1.385 . S
C559 C560 1.389 . S
C560 C559 1.389 . S
C560 C561 1.387 . S
C561 H546 0.930 . S
C561 C556 1.390 . S
C561 C560 1.387 . S
H562 C574 0.930 . S
H563 C576 0.930 . S
H564 C577 0.930 . S
H565 C581 0.959 . S
H566 C581 0.959 . S
H567 C581 0.961 . S
H568 C582 0.960 . S
H569 C582 0.961 . S
H570 C582 0.959 . S
H571 C585 0.929 . S
H572 C586 0.931 . S
H573 C588 0.930 . S
C574 H562 0.930 . S
C574 C575 1.399 . S
C574 C579 1.399 . S
C575 C574 1.399 . S
C575 C576 1.376 . S
C576 H563 0.930 . S
C576 C575 1.376 . S
C576 C577 1.388 . S
C577 H564 0.930 . S
C577 C576 1.388 . S
C577 C578 1.390 . S
C578 C577 1.390 . S
C578 C579 1.394 . S
C578 C584 1.465 . S
C579 C574 1.399 . S
C579 C578 1.394 . S
C579 C580 1.516 . S
C580 C579 1.516 . S
C580 C581 1.502 . S
C580 C582 1.561 . S
C580 C583 1.526 . S
C581 H565 0.959 . S
C581 H566 0.959 . S
C581 H567 0.961 . S
C581 C580 1.502 . S
C582 H568 0.960 . S
C582 H569 0.961 . S
C582 H570 0.959 . S
C582 C580 1.561 . S
C583 C580 1.526 . S
C583 C584 1.396 . S
C583 C588 1.390 . S
C584 C578 1.465 . S
C584 C583 1.396 . S
C584 C585 1.399 . S
C585 H571 0.929 . S
C585 C584 1.399 . S
C585 C586 1.385 . S
C586 H572 0.931 . S
C586 C585 1.385 . S
C586 C587 1.389 . S
C587 C586 1.389 . S
C587 C588 1.387 . S
C588 H573 0.930 . S
C588 C583 1.390 . S
C588 C587 1.387 . S
H589 C601 0.930 . S
H590 C603 0.930 . S
H591 C604 0.930 . S
H592 C608 0.959 . S
H593 C608 0.959 . S
H594 C608 0.961 . S
H595 C609 0.960 . S
H596 C609 0.961 . S
H597 C609 0.959 . S
H598 C612 0.929 . S
H599 C613 0.931 1_455 S
H600 C615 0.930 . S
C601 H589 0.930 . S
C601 C602 1.399 . S
C601 C606 1.399 . S
C602 C601 1.399 . S
C602 C603 1.376 . S
C603 H590 0.930 . S
C603 C602 1.376 . S
C603 C604 1.388 . S
C604 H591 0.930 . S
C604 C603 1.388 . S
C604 C605 1.390 . S
C605 C604 1.390 . S
C605 C606 1.394 . S
C605 C611 1.465 . S
C606 C601 1.399 . S
C606 C605 1.394 . S
C606 C607 1.516 . S
C607 C606 1.516 . S
C607 C608 1.502 . S
C607 C609 1.561 . S
C607 C610 1.526 . S
C608 H592 0.959 . S
C608 H593 0.959 . S
C608 H594 0.961 . S
C608 C607 1.502 . S
C609 H595 0.960 . S
C609 H596 0.961 . S
C609 H597 0.959 . S
C609 C607 1.561 . S
C610 C607 1.526 . S
C610 C611 1.396 . S
C610 C615 1.390 . S
C611 C605 1.465 . S
C611 C610 1.396 . S
C611 C612 1.399 . S
C612 H598 0.929 . S
C612 C611 1.399 . S
C612 C613 1.385 . S
C613 H599 0.931 1_655 S
C613 C612 1.385 . S
C613 C614 1.389 . S
C614 C613 1.389 . S
C614 C615 1.387 . S
C615 H600 0.930 . S
C615 C610 1.390 . S
C615 C614 1.387 . S
H616 C628 0.930 . S
H617 C630 0.930 . S
H618 C631 0.930 . S
H619 C635 0.959 . S
H620 C635 0.959 . S
H621 C635 0.961 . S
H622 C636 0.960 . S
H623 C636 0.961 . S
H624 C636 0.959 . S
H625 C639 0.929 . S
H626 C640 0.931 . S
H627 C642 0.930 . S
C628 H616 0.930 . S
C628 C629 1.399 . S
C628 C633 1.399 . S
C629 C628 1.399 . S
C629 C630 1.376 . S
C630 H617 0.930 . S
C630 C629 1.376 . S
C630 C631 1.388 . S
C631 H618 0.930 . S
C631 C630 1.388 . S
C631 C632 1.390 . S
C632 C631 1.390 . S
C632 C633 1.394 . S
C632 C638 1.465 . S
C633 C628 1.399 . S
C633 C632 1.394 . S
C633 C634 1.516 . S
C634 C633 1.516 . S
C634 C635 1.502 . S
C634 C636 1.561 . S
C634 C637 1.526 . S
C635 H619 0.959 . S
C635 H620 0.959 . S
C635 H621 0.961 . S
C635 C634 1.502 . S
C636 H622 0.960 . S
C636 H623 0.961 . S
C636 H624 0.959 . S
C636 C634 1.561 . S
C637 C634 1.526 . S
C637 C638 1.396 . S
C637 C642 1.390 . S
C638 C632 1.465 . S
C638 C637 1.396 . S
C638 C639 1.399 . S
C639 H625 0.929 . S
C639 C638 1.399 . S
C639 C640 1.385 . S
C640 H626 0.931 . S
C640 C639 1.385 . S
C640 C641 1.389 . S
C641 C640 1.389 . S
C641 C642 1.387 . S
C642 H627 0.930 . S
C642 C637 1.390 . S
C642 C641 1.387 . S
H643 C655 0.930 . S
H644 C657 0.930 . S
H645 C658 0.930 . S
H646 C662 0.959 . S
H647 C662 0.959 . S
H648 C662 0.961 . S
H649 C663 0.960 . S
H650 C663 0.961 . S
H651 C663 0.959 . S
H652 C666 0.929 . S
H653 C667 0.931 . S
H654 C669 0.930 . S
C655 H643 0.930 . S
C655 C656 1.399 1_565 S
C655 C660 1.399 . S
C656 C655 1.399 1_545 S
C656 C657 1.376 . S
C657 H644 0.930 . S
C657 C656 1.376 . S
C657 C658 1.388 . S
C658 H645 0.930 . S
C658 C657 1.388 . S
C658 C659 1.390 . S
C659 C658 1.390 . S
C659 C660 1.394 1_545 S
C659 C665 1.465 . S
C660 C655 1.399 . S
C660 C659 1.394 1_565 S
C660 C661 1.516 . S
C661 C660 1.516 . S
C661 C662 1.502 . S
C661 C663 1.561 . S
C661 C664 1.526 . S
C662 H646 0.959 . S
C662 H647 0.959 . S
C662 H648 0.961 . S
C662 C661 1.502 . S
C663 H649 0.960 . S
C663 H650 0.961 . S
C663 H651 0.959 . S
C663 C661 1.561 . S
C664 C661 1.526 . S
C664 C665 1.396 1_565 S
C664 C669 1.390 . S
C665 C659 1.465 . S
C665 C664 1.396 1_545 S
C665 C666 1.399 . S
C666 H652 0.929 . S
C666 C665 1.399 . S
C666 C667 1.385 . S
C667 H653 0.931 . S
C667 C666 1.385 . S
C667 C668 1.389 1_545 S
C668 C667 1.389 1_565 S
C668 C669 1.387 . S
C669 H654 0.930 . S
C669 C664 1.390 . S
C669 C668 1.387 . S
H670 C682 0.930 . S
H671 C684 0.930 . S
H672 C685 0.930 . S
H673 C689 0.959 . S
H674 C689 0.959 . S
H675 C689 0.961 . S
H676 C690 0.960 . S
H677 C690 0.961 . S
H678 C690 0.959 . S
H679 C693 0.929 . S
H680 C694 0.931 . S
H681 C696 0.930 . S
C682 H670 0.930 . S
C682 C683 1.399 . S
C682 C687 1.399 . S
C683 C682 1.399 . S
C683 C684 1.376 . S
C684 H671 0.930 . S
C684 C683 1.376 . S
C684 C685 1.388 . S
C685 H672 0.930 . S
C685 C684 1.388 . S
C685 C686 1.390 . S
C686 C685 1.390 . S
C686 C687 1.394 . S
C686 C692 1.465 . S
C687 C682 1.399 . S
C687 C686 1.394 . S
C687 C688 1.516 . S
C688 C687 1.516 . S
C688 C689 1.502 . S
C688 C690 1.561 . S
C688 C691 1.526 . S
C689 H673 0.959 . S
C689 H674 0.959 . S
C689 H675 0.961 . S
C689 C688 1.502 . S
C690 H676 0.960 . S
C690 H677 0.961 . S
C690 H678 0.959 . S
C690 C688 1.561 . S
C691 C688 1.526 . S
C691 C692 1.396 . S
C691 C696 1.390 . S
C692 C686 1.465 . S
C692 C691 1.396 . S
C692 C693 1.399 . S
C693 H679 0.929 . S
C693 C692 1.399 . S
C693 C694 1.385 . S
C694 H680 0.931 . S
C694 C693 1.385 . S
C694 C695 1.389 . S
C695 C694 1.389 . S
C695 C696 1.387 . S
C696 H681 0.930 . S
C696 C691 1.390 . S
C696 C695 1.387 . S
H697 C709 0.930 . S
H698 C711 0.930 . S
H699 C712 0.930 . S
H700 C716 0.959 . S
H701 C716 0.959 . S
H702 C716 0.961 . S
H703 C717 0.960 . S
H704 C717 0.961 . S
H705 C717 0.959 . S
H706 C720 0.929 . S
H707 C721 0.931 . S
H708 C723 0.930 . S
C709 H697 0.930 . S
C709 C710 1.399 . S
C709 C714 1.399 . S
C710 C709 1.399 . S
C710 C711 1.376 . S
C711 H698 0.930 . S
C711 C710 1.376 . S
C711 C712 1.388 . S
C712 H699 0.930 . S
C712 C711 1.388 . S
C712 C713 1.390 . S
C713 C712 1.390 . S
C713 C714 1.394 . S
C713 C719 1.465 . S
C714 C709 1.399 . S
C714 C713 1.394 . S
C714 C715 1.516 . S
C715 C714 1.516 . S
C715 C716 1.502 . S
C715 C717 1.561 . S
C715 C718 1.526 . S
C716 H700 0.959 . S
C716 H701 0.959 . S
C716 H702 0.961 . S
C716 C715 1.502 . S
C717 H703 0.960 . S
C717 H704 0.961 . S
C717 H705 0.959 . S
C717 C715 1.561 . S
C718 C715 1.526 . S
C718 C719 1.396 . S
C718 C723 1.390 . S
C719 C713 1.465 . S
C719 C718 1.396 . S
C719 C720 1.399 . S
C720 H706 0.929 . S
C720 C719 1.399 . S
C720 C721 1.385 . S
C721 H707 0.931 . S
C721 C720 1.385 . S
C721 C722 1.389 . S
C722 C721 1.389 . S
C722 C723 1.387 . S
C723 H708 0.930 . S
C723 C718 1.390 . S
C723 C722 1.387 . S
H724 C736 0.930 . S
H725 C738 0.930 . S
H726 C739 0.930 . S
H727 C743 0.959 . S
H728 C743 0.959 . S
H729 C743 0.961 . S
H730 C744 0.960 . S
H731 C744 0.961 . S
H732 C744 0.959 . S
H733 C747 0.929 1_455 S
H734 C748 0.931 . S
H735 C750 0.930 . S
C736 H724 0.930 . S
C736 C737 1.399 . S
C736 C741 1.399 . S
C737 C736 1.399 . S
C737 C738 1.376 . S
C738 H725 0.930 . S
C738 C737 1.376 . S
C738 C739 1.388 . S
C739 H726 0.930 . S
C739 C738 1.388 . S
C739 C740 1.390 . S
C740 C739 1.390 . S
C740 C741 1.394 . S
C740 C746 1.465 . S
C741 C736 1.399 . S
C741 C740 1.394 . S
C741 C742 1.516 . S
C742 C741 1.516 . S
C742 C743 1.502 . S
C742 C744 1.561 . S
C742 C745 1.526 . S
C743 H727 0.959 . S
C743 H728 0.959 . S
C743 H729 0.961 . S
C743 C742 1.502 . S
C744 H730 0.960 . S
C744 H731 0.961 . S
C744 H732 0.959 . S
C744 C742 1.561 . S
C745 C742 1.526 . S
C745 C746 1.396 . S
C745 C750 1.390 . S
C746 C740 1.465 . S
C746 C745 1.396 . S
C746 C747 1.399 . S
C747 H733 0.929 1_655 S
C747 C746 1.399 . S
C747 C748 1.385 1_655 S
C748 H734 0.931 . S
C748 C747 1.385 1_455 S
C748 C749 1.389 1_455 S
C749 C748 1.389 1_655 S
C749 C750 1.387 . S
C750 H735 0.930 . S
C750 C745 1.390 . S
C750 C749 1.387 . S
H751 C763 0.930 . S
H752 C765 0.930 . S
H753 C766 0.930 . S
H754 C770 0.959 . S
H755 C770 0.959 . S
H756 C770 0.961 . S
H757 C771 0.960 . S
H758 C771 0.961 . S
H759 C771 0.959 . S
H760 C774 0.929 . S
H761 C775 0.931 . S
H762 C777 0.930 . S
C763 H751 0.930 . S
C763 C764 1.399 1_545 S
C763 C768 1.399 . S
C764 C763 1.399 1_565 S
C764 C765 1.376 . S
C765 H752 0.930 . S
C765 C764 1.376 . S
C765 C766 1.388 . S
C766 H753 0.930 . S
C766 C765 1.388 . S
C766 C767 1.390 . S
C767 C766 1.390 . S
C767 C768 1.394 1_565 S
C767 C773 1.459 1_565 S
C768 C763 1.399 . S
C768 C767 1.394 1_545 S
C768 C769 1.516 . S
C769 C768 1.516 . S
C769 C770 1.502 . S
C769 C771 1.561 . S
C769 C772 1.526 . S
C770 H754 0.959 . S
C770 H755 0.959 . S
C770 H756 0.961 . S
C770 C769 1.502 . S
C771 H757 0.960 . S
C771 H758 0.961 . S
C771 H759 0.959 . S
C771 C769 1.561 . S
C772 C769 1.526 . S
C772 C773 1.417 . S
C772 C777 1.390 . S
C773 C767 1.459 1_545 S
C773 C772 1.417 . S
C773 C774 1.389 1_545 S
C774 H760 0.929 . S
C774 C773 1.389 1_565 S
C774 C775 1.385 . S
C775 H761 0.931 . S
C775 C774 1.385 . S
C775 C776 1.389 1_565 S
C776 C775 1.389 1_545 S
C776 C777 1.387 . S
C777 H762 0.930 . S
C777 C772 1.390 . S
C777 C776 1.387 . S
H778 C790 0.930 . S
H779 C792 0.930 . S
H780 C793 0.930 . S
H781 C797 0.959 . S
H782 C797 0.959 . S
H783 C797 0.961 . S
H784 C798 0.960 . S
H785 C798 0.961 . S
H786 C798 0.959 . S
H787 C801 0.929 . S
H788 C802 0.931 . S
H789 C804 0.930 . S
C790 H778 0.930 . S
C790 C791 1.399 . S
C790 C795 1.399 . S
C791 C790 1.399 . S
C791 C792 1.376 . S
C792 H779 0.930 . S
C792 C791 1.376 . S
C792 C793 1.388 . S
C793 H780 0.930 . S
C793 C792 1.388 . S
C793 C794 1.390 . S
C794 C793 1.390 . S
C794 C795 1.394 . S
C794 C800 1.465 . S
C795 C790 1.399 . S
C795 C794 1.394 . S
C795 C796 1.516 . S
C796 C795 1.516 . S
C796 C797 1.502 . S
C796 C798 1.561 . S
C796 C799 1.526 . S
C797 H781 0.959 . S
C797 H782 0.959 . S
C797 H783 0.961 . S
C797 C796 1.502 . S
C798 H784 0.960 . S
C798 H785 0.961 . S
C798 H786 0.959 . S
C798 C796 1.561 . S
C799 C796 1.526 . S
C799 C800 1.396 . S
C799 C804 1.390 . S
C800 C794 1.465 . S
C800 C799 1.396 . S
C800 C801 1.399 . S
C801 H787 0.929 . S
C801 C800 1.399 . S
C801 C802 1.385 . S
C802 H788 0.931 . S
C802 C801 1.385 . S
C802 C803 1.389 . S
C803 C802 1.389 . S
C803 C804 1.387 . S
C804 H789 0.930 . S
C804 C799 1.390 . S
C804 C803 1.387 . S
H805 C817 0.930 . S
H806 C819 0.930 . S
H807 C820 0.930 . S
H808 C824 0.959 . S
H809 C824 0.959 . S
H810 C824 0.961 . S
H811 C825 0.960 . S
H812 C825 0.961 . S
H813 C825 0.959 . S
H814 C828 0.929 . S
H815 C829 0.931 . S
H816 C831 0.930 . S
C817 H805 0.930 . S
C817 C818 1.399 . S
C817 C822 1.399 . S
C818 C817 1.399 . S
C818 C819 1.376 . S
C819 H806 0.930 . S
C819 C818 1.376 . S
C819 C820 1.388 . S
C820 H807 0.930 . S
C820 C819 1.388 . S
C820 C821 1.390 . S
C821 C820 1.390 . S
C821 C822 1.394 . S
C821 C827 1.465 . S
C822 C817 1.399 . S
C822 C821 1.394 . S
C822 C823 1.516 . S
C823 C822 1.516 . S
C823 C824 1.502 . S
C823 C825 1.561 . S
C823 C826 1.526 . S
C824 H808 0.959 . S
C824 H809 0.959 . S
C824 H810 0.961 . S
C824 C823 1.502 . S
C825 H811 0.960 . S
C825 H812 0.961 . S
C825 H813 0.959 . S
C825 C823 1.561 . S
C826 C823 1.526 . S
C826 C827 1.396 . S
C826 C831 1.390 . S
C827 C821 1.465 . S
C827 C826 1.396 . S
C827 C828 1.399 . S
C828 H814 0.929 . S
C828 C827 1.399 . S
C828 C829 1.385 . S
C829 H815 0.931 . S
C829 C828 1.385 . S
C829 C830 1.389 . S
C830 C829 1.389 . S
C830 C831 1.387 . S
C831 H816 0.930 . S
C831 C826 1.390 . S
C831 C830 1.387 . S
H832 C844 0.930 . S
H833 C846 0.930 . S
H834 C847 0.930 . S
H835 C851 0.959 . S
H836 C851 0.959 . S
H837 C851 0.961 . S
H838 C852 0.960 . S
H839 C852 0.961 . S
H840 C852 0.959 . S
H841 C855 0.929 . S
H842 C856 0.931 . S
H843 C858 0.930 . S
C844 H832 0.930 . S
C844 C845 1.399 . S
C844 C849 1.399 . S
C845 C844 1.399 . S
C845 C846 1.376 . S
C846 H833 0.930 . S
C846 C845 1.376 . S
C846 C847 1.388 . S
C847 H834 0.930 . S
C847 C846 1.388 . S
C847 C848 1.390 . S
C848 C847 1.390 . S
C848 C849 1.394 . S
C848 C854 1.465 . S
C849 C844 1.399 . S
C849 C848 1.394 . S
C849 C850 1.516 . S
C850 C849 1.516 . S
C850 C851 1.502 . S
C850 C852 1.561 . S
C850 C853 1.526 . S
C851 H835 0.959 . S
C851 H836 0.959 . S
C851 H837 0.961 . S
C851 C850 1.502 . S
C852 H838 0.960 . S
C852 H839 0.961 . S
C852 H840 0.959 . S
C852 C850 1.561 . S
C853 C850 1.526 . S
C853 C854 1.396 . S
C853 C858 1.390 . S
C854 C848 1.465 . S
C854 C853 1.396 . S
C854 C855 1.399 . S
C855 H841 0.929 . S
C855 C854 1.399 . S
C855 C856 1.385 . S
C856 H842 0.931 . S
C856 C855 1.385 . S
C856 C857 1.389 . S
C857 C856 1.389 . S
C857 C858 1.387 . S
C858 H843 0.930 . S
C858 C853 1.390 . S
C858 C857 1.387 . S
H859 C871 0.930 . S
H860 C873 0.930 . S
H861 C874 0.930 . S
H862 C878 0.959 . S
H863 C878 0.959 . S
H864 C878 0.961 . S
H865 C879 0.960 . S
H866 C879 0.961 . S
H867 C879 0.959 . S
H868 C882 0.929 . S
H869 C883 0.931 . S
H870 C885 0.930 . S
C871 H859 0.930 . S
C871 C872 1.399 1_565 S
C871 C876 1.399 . S
C872 C871 1.399 1_545 S
C872 C873 1.376 . S
C873 H860 0.930 . S
C873 C872 1.376 . S
C873 C874 1.388 . S
C874 H861 0.930 . S
C874 C873 1.388 . S
C874 C875 1.390 . S
C875 C874 1.390 . S
C875 C876 1.394 1_545 S
C875 C881 1.465 . S
C876 C871 1.399 . S
C876 C875 1.394 1_565 S
C876 C877 1.516 . S
C877 C876 1.516 . S
C877 C878 1.502 . S
C877 C879 1.561 . S
C877 C880 1.526 . S
C878 H862 0.959 . S
C878 H863 0.959 . S
C878 H864 0.961 . S
C878 C877 1.502 . S
C879 H865 0.960 . S
C879 H866 0.961 . S
C879 H867 0.959 . S
C879 C877 1.561 . S
C880 C877 1.526 . S
C880 C881 1.396 1_565 S
C880 C885 1.390 . S
C881 C875 1.465 . S
C881 C880 1.396 1_545 S
C881 C882 1.399 . S
C882 H868 0.929 . S
C882 C881 1.399 . S
C882 C883 1.385 . S
C883 H869 0.931 . S
C883 C882 1.385 . S
C883 C884 1.389 . S
C884 C883 1.389 . S
C884 C885 1.387 1_545 S
C885 H870 0.930 . S
C885 C880 1.390 . S
C885 C884 1.387 1_565 S
H886 C898 0.930 . S
H887 C900 0.930 . S
H888 C901 0.930 . S
H889 C905 0.959 . S
H890 C905 0.959 . S
H891 C905 0.961 . S
H892 C906 0.960 . S
H893 C906 0.961 . S
H894 C906 0.959 . S
H895 C909 0.929 . S
H896 C910 0.931 . S
H897 C912 0.930 . S
C898 H886 0.930 . S
C898 C899 1.399 . S
C898 C903 1.399 . S
C899 C898 1.399 . S
C899 C900 1.376 . S
C900 H887 0.930 . S
C900 C899 1.376 . S
C900 C901 1.388 . S
C901 H888 0.930 . S
C901 C900 1.388 . S
C901 C902 1.390 . S
C902 C901 1.390 . S
C902 C903 1.394 . S
C902 C908 1.465 . S
C903 C898 1.399 . S
C903 C902 1.394 . S
C903 C904 1.516 . S
C904 C903 1.516 . S
C904 C905 1.502 . S
C904 C906 1.561 . S
C904 C907 1.526 . S
C905 H889 0.959 . S
C905 H890 0.959 . S
C905 H891 0.961 . S
C905 C904 1.502 . S
C906 H892 0.960 . S
C906 H893 0.961 . S
C906 H894 0.959 . S
C906 C904 1.561 . S
C907 C904 1.526 . S
C907 C908 1.396 . S
C907 C912 1.390 . S
C908 C902 1.465 . S
C908 C907 1.396 . S
C908 C909 1.399 . S
C909 H895 0.929 . S
C909 C908 1.399 . S
C909 C910 1.385 . S
C910 H896 0.931 . S
C910 C909 1.385 . S
C910 C911 1.389 . S
C911 C910 1.389 . S
C911 C912 1.387 . S
C912 H897 0.930 . S
C912 C907 1.390 . S
C912 C911 1.387 . S
H913 C925 0.930 . S
H914 C927 0.930 . S
H915 C928 0.930 . S
H916 C932 0.959 . S
H917 C932 0.959 . S
H918 C932 0.961 . S
H919 C933 0.960 . S
H920 C933 0.961 . S
H921 C933 0.959 . S
H922 C936 0.929 . S
H923 C937 0.931 . S
H924 C939 0.930 . S
C925 H913 0.930 . S
C925 C926 1.399 . S
C925 C930 1.399 . S
C926 C925 1.399 . S
C926 C927 1.376 . S
C927 H914 0.930 . S
C927 C926 1.376 . S
C927 C928 1.388 . S
C928 H915 0.930 . S
C928 C927 1.388 . S
C928 C929 1.390 . S
C929 C928 1.390 . S
C929 C930 1.394 . S
C929 C935 1.465 . S
C930 C925 1.399 . S
C930 C929 1.394 . S
C930 C931 1.516 . S
C931 C930 1.516 . S
C931 C932 1.502 . S
C931 C933 1.561 . S
C931 C934 1.526 . S
C932 H916 0.959 . S
C932 H917 0.959 . S
C932 H918 0.961 . S
C932 C931 1.502 . S
C933 H919 0.960 . S
C933 H920 0.961 . S
C933 H921 0.959 . S
C933 C931 1.561 . S
C934 C931 1.526 . S
C934 C935 1.396 . S
C934 C939 1.390 . S
C935 C929 1.465 . S
C935 C934 1.396 . S
C935 C936 1.399 . S
C936 H922 0.929 . S
C936 C935 1.399 . S
C936 C937 1.385 . S
C937 H923 0.931 . S
C937 C936 1.385 . S
C937 C938 1.389 . S
C938 C937 1.389 . S
C938 C939 1.387 . S
C939 H924 0.930 . S
C939 C934 1.390 . S
C939 C938 1.387 . S
H940 C952 0.930 . S
H941 C954 0.930 . S
H942 C955 0.930 . S
H943 C959 0.959 . S
H944 C959 0.959 . S
H945 C959 0.961 . S
H946 C960 0.960 . S
H947 C960 0.961 . S
H948 C960 0.959 . S
H949 C963 0.929 . S
H950 C964 0.931 . S
H951 C966 0.930 . S
C952 H940 0.930 . S
C952 C953 1.399 . S
C952 C957 1.399 . S
C953 C952 1.399 . S
C953 C954 1.376 . S
C954 H941 0.930 . S
C954 C953 1.376 . S
C954 C955 1.388 . S
C955 H942 0.930 . S
C955 C954 1.388 . S
C955 C956 1.390 . S
C956 C955 1.390 . S
C956 C957 1.394 . S
C956 C962 1.465 . S
C957 C952 1.399 . S
C957 C956 1.394 . S
C957 C958 1.516 . S
C958 C957 1.516 . S
C958 C959 1.502 . S
C958 C960 1.561 . S
C958 C961 1.526 . S
C959 H943 0.959 . S
C959 H944 0.959 . S
C959 H945 0.961 . S
C959 C958 1.502 . S
C960 H946 0.960 . S
C960 H947 0.961 . S
C960 H948 0.959 . S
C960 C958 1.561 . S
C961 C958 1.526 . S
C961 C962 1.396 . S
C961 C966 1.390 . S
C962 C956 1.465 . S
C962 C961 1.396 . S
C962 C963 1.399 . S
C963 H949 0.929 . S
C963 C962 1.399 . S
C963 C964 1.385 . S
C964 H950 0.931 . S
C964 C963 1.385 . S
C964 C965 1.389 . S
C965 C964 1.389 . S
C965 C966 1.387 . S
C966 H951 0.930 . S
C966 C961 1.390 . S
C966 C965 1.387 . S
H967 C979 0.930 . S
H968 C981 0.930 . S
H969 C982 0.930 . S
H970 C986 0.959 . S
H971 C986 0.959 . S
H972 C986 0.961 . S
H973 C987 0.960 . S
H974 C987 0.961 . S
H975 C987 0.959 . S
H976 C990 0.929 . S
H977 C991 0.931 . S
H978 C993 0.930 . S
C979 H967 0.930 . S
C979 C980 1.399 1_565 S
C979 C984 1.399 . S
C980 C979 1.399 1_545 S
C980 C981 1.376 . S
C981 H968 0.930 . S
C981 C980 1.376 . S
C981 C982 1.388 . S
C982 H969 0.930 . S
C982 C981 1.388 . S
C982 C983 1.390 . S
C983 C982 1.390 . S
C983 C984 1.394 1_545 S
C983 C989 1.465 . S
C984 C979 1.399 . S
C984 C983 1.394 1_565 S
C984 C985 1.516 . S
C985 C984 1.516 . S
C985 C986 1.502 . S
C985 C987 1.561 . S
C985 C988 1.526 . S
C986 H970 0.959 . S
C986 H971 0.959 . S
C986 H972 0.961 . S
C986 C985 1.502 . S
C987 H973 0.960 . S
C987 H974 0.961 . S
C987 H975 0.959 . S
C987 C985 1.561 . S
C988 C985 1.526 . S
C988 C989 1.396 1_565 S
C988 C993 1.390 . S
C989 C983 1.465 . S
C989 C988 1.396 1_545 S
C989 C990 1.399 . S
C990 H976 0.929 . S
C990 C989 1.399 . S
C990 C991 1.385 . S
C991 H977 0.931 . S
C991 C990 1.385 . S
C991 C992 1.389 1_545 S
C992 C991 1.389 1_565 S
C992 C993 1.387 . S
C993 H978 0.930 . S
C993 C988 1.390 . S
C993 C992 1.387 . S
H994 C1006 0.930 . S
H995 C1008 0.930 . S
H996 C1009 0.930 . S
H997 C1013 0.959 . S
H998 C1013 0.959 . S
H999 C1013 0.961 . S
H1000 C1014 0.960 . S
H1001 C1014 0.961 . S
H1002 C1014 0.959 . S
H1003 C1017 0.929 . S
H1004 C1018 0.931 . S
H1005 C1020 0.930 . S
C1006 H994 0.930 . S
C1006 C1007 1.399 . S
C1006 C1011 1.399 . S
C1007 C1006 1.399 . S
C1007 C1008 1.376 . S
C1008 H995 0.930 . S
C1008 C1007 1.376 . S
C1008 C1009 1.388 . S
C1009 H996 0.930 . S
C1009 C1008 1.388 . S
C1009 C1010 1.390 . S
C1010 C1009 1.390 . S
C1010 C1011 1.394 . S
C1010 C1016 1.465 . S
C1011 C1006 1.399 . S
C1011 C1010 1.394 . S
C1011 C1012 1.516 . S
C1012 C1011 1.516 . S
C1012 C1013 1.502 . S
C1012 C1014 1.561 . S
C1012 C1015 1.526 . S
C1013 H997 0.959 . S
C1013 H998 0.959 . S
C1013 H999 0.961 . S
C1013 C1012 1.502 . S
C1014 H1000 0.960 . S
C1014 H1001 0.961 . S
C1014 H1002 0.959 . S
C1014 C1012 1.561 . S
C1015 C1012 1.526 . S
C1015 C1016 1.396 . S
C1015 C1020 1.390 . S
C1016 C1010 1.465 . S
C1016 C1015 1.396 . S
C1016 C1017 1.399 . S
C1017 H1003 0.929 . S
C1017 C1016 1.399 . S
C1017 C1018 1.385 . S
C1018 H1004 0.931 . S
C1018 C1017 1.385 . S
C1018 C1019 1.389 . S
C1019 C1018 1.389 . S
C1019 C1020 1.387 . S
C1020 H1005 0.930 . S
C1020 C1015 1.390 . S
C1020 C1019 1.387 . S
H1021 C1033 0.930 . S
H1022 C1035 0.930 . S
H1023 C1036 0.930 . S
H1024 C1040 0.959 . S
H1025 C1040 0.959 . S
H1026 C1040 0.961 . S
H1027 C1041 0.960 . S
H1028 C1041 0.961 . S
H1029 C1041 0.959 . S
H1030 C1044 0.929 . S
H1031 C1045 0.931 . S
H1032 C1047 0.930 . S
C1033 H1021 0.930 . S
C1033 C1034 1.399 . S
C1033 C1038 1.399 . S
C1034 C1033 1.399 . S
C1034 C1035 1.376 . S
C1035 H1022 0.930 . S
C1035 C1034 1.376 . S
C1035 C1036 1.388 . S
C1036 H1023 0.930 . S
C1036 C1035 1.388 . S
C1036 C1037 1.390 . S
C1037 C1036 1.390 . S
C1037 C1038 1.394 . S
C1037 C1043 1.465 . S
C1038 C1033 1.399 . S
C1038 C1037 1.394 . S
C1038 C1039 1.516 . S
C1039 C1038 1.516 . S
C1039 C1040 1.502 . S
C1039 C1041 1.561 . S
C1039 C1042 1.526 . S
C1040 H1024 0.959 . S
C1040 H1025 0.959 . S
C1040 H1026 0.961 . S
C1040 C1039 1.502 . S
C1041 H1027 0.960 . S
C1041 H1028 0.961 . S
C1041 H1029 0.959 . S
C1041 C1039 1.561 . S
C1042 C1039 1.526 . S
C1042 C1043 1.396 . S
C1042 C1047 1.390 . S
C1043 C1037 1.465 . S
C1043 C1042 1.396 . S
C1043 C1044 1.399 . S
C1044 H1030 0.929 . S
C1044 C1043 1.399 . S
C1044 C1045 1.385 . S
C1045 H1031 0.931 . S
C1045 C1044 1.385 . S
C1045 C1046 1.389 . S
C1046 C1045 1.389 . S
C1046 C1047 1.387 . S
C1047 H1032 0.930 . S
C1047 C1042 1.390 . S
C1047 C1046 1.387 . S
C413 C255 1.773 1_565 S
C425 C328 1.821 . S
C452 C358 2.546 . S
C440 C295 2.472 . S
C479 C368 1.926 . S
C467 C175 1.893 . S
C506 C388 1.862 . S
C494 C215 1.775 . S
C533 C329 1.836 . S
C521 C95 1.774 1_565 S
C548 C135 2.451 . S
C560 C359 2.546 . S
C575 C15 1.838 . S
C587 C369 1.943 . S
C602 C55 1.710 . S
C614 C389 1.868 . S
C641 C321 0.919 . S
C629 C221 0.928 . S
C668 C342 0.343 . S
C656 C261 0.452 . S
C695 C361 1.200 . S
C683 C301 1.227 . S
C710 C181 0.589 . S
C722 C381 0.604 . S
C737 C61 0.756 . S
C749 C322 0.941 1_655 S
C776 C341 0.257 . S
C764 C101 0.639 1_565 S
C803 C362 1.236 . S
C791 C141 1.028 . S
C818 C21 0.540 . S
C830 C382 0.569 . S
C845 C202 2.509 . S
C857 C339 2.691 . S
C872 C242 2.011 . S
C884 C349 2.165 . S
C911 C379 2.933 . S
C899 C282 2.787 . S
C938 C399 2.760 . S
C926 C162 2.487 . S
C953 C42 2.479 . S
C965 C338 2.691 . S
C992 C348 2.185 . S
C980 C82 2.003 . S
C1019 C378 2.941 . S
C1007 C122 2.674 . S
C1034 C2 2.592 . S
C1046 C398 2.761 . S
