# Generated by pormake.
# Topology pyr, (3,6)-cn, num edge types: 1
# Building blocks:
#     Node 0, Type 0, BuildingBlock: OLANEW_clean_sbu_2, # of connection points: 3
#     Node 1, Type 0, BuildingBlock: OLANEW_clean_sbu_2, # of connection points: 3
#     Node 2, Type 0, BuildingBlock: OLANEW_clean_sbu_2, # of connection points: 3
#     Node 3, Type 0, BuildingBlock: OLANEW_clean_sbu_2, # of connection points: 3
#     Node 4, Type 0, BuildingBlock: OLANEW_clean_sbu_2, # of connection points: 3
#     Node 5, Type 0, BuildingBlock: OLANEW_clean_sbu_2, # of connection points: 3
#     Node 6, Type 0, BuildingBlock: OLANEW_clean_sbu_2, # of connection points: 3
#     Node 7, Type 0, BuildingBlock: OLANEW_clean_sbu_2, # of connection points: 3
#     Node 8, Type 1, BuildingBlock: PAMTUU_clean_sbu_0, # of connection points: 6
#     Node 9, Type 1, BuildingBlock: PAMTUU_clean_sbu_0, # of connection points: 6
#     Node 10, Type 1, BuildingBlock: PAMTUU_clean_sbu_0, # of connection points: 6
#     Node 11, Type 1, BuildingBlock: PAMTUU_clean_sbu_0, # of connection points: 6
#     Edge 12, Type (0, 1), BuildingBlock: KIFKEQ_clean_linker_1, # of connection points: 2
#     Edge 13, Type (0, 1), BuildingBlock: KIFKEQ_clean_linker_1, # of connection points: 2
#     Edge 14, Type (0, 1), BuildingBlock: KIFKEQ_clean_linker_1, # of connection points: 2
#     Edge 15, Type (0, 1), BuildingBlock: KIFKEQ_clean_linker_1, # of connection points: 2
#     Edge 16, Type (0, 1), BuildingBlock: KIFKEQ_clean_linker_1, # of connection points: 2
#     Edge 17, Type (0, 1), BuildingBlock: KIFKEQ_clean_linker_1, # of connection points: 2
#     Edge 18, Type (0, 1), BuildingBlock: KIFKEQ_clean_linker_1, # of connection points: 2
#     Edge 19, Type (0, 1), BuildingBlock: KIFKEQ_clean_linker_1, # of connection points: 2
#     Edge 20, Type (0, 1), BuildingBlock: KIFKEQ_clean_linker_1, # of connection points: 2
#     Edge 21, Type (0, 1), BuildingBlock: KIFKEQ_clean_linker_1, # of connection points: 2
#     Edge 22, Type (0, 1), BuildingBlock: KIFKEQ_clean_linker_1, # of connection points: 2
#     Edge 23, Type (0, 1), BuildingBlock: KIFKEQ_clean_linker_1, # of connection points: 2
#     Edge 24, Type (0, 1), BuildingBlock: KIFKEQ_clean_linker_1, # of connection points: 2
#     Edge 25, Type (0, 1), BuildingBlock: KIFKEQ_clean_linker_1, # of connection points: 2
#     Edge 26, Type (0, 1), BuildingBlock: KIFKEQ_clean_linker_1, # of connection points: 2
#     Edge 27, Type (0, 1), BuildingBlock: KIFKEQ_clean_linker_1, # of connection points: 2
#     Edge 28, Type (0, 1), BuildingBlock: KIFKEQ_clean_linker_1, # of connection points: 2
#     Edge 29, Type (0, 1), BuildingBlock: KIFKEQ_clean_linker_1, # of connection points: 2
#     Edge 30, Type (0, 1), BuildingBlock: KIFKEQ_clean_linker_1, # of connection points: 2
#     Edge 31, Type (0, 1), BuildingBlock: KIFKEQ_clean_linker_1, # of connection points: 2
#     Edge 32, Type (0, 1), BuildingBlock: KIFKEQ_clean_linker_1, # of connection points: 2
#     Edge 33, Type (0, 1), BuildingBlock: KIFKEQ_clean_linker_1, # of connection points: 2
#     Edge 34, Type (0, 1), BuildingBlock: KIFKEQ_clean_linker_1, # of connection points: 2
#     Edge 35, Type (0, 1), BuildingBlock: KIFKEQ_clean_linker_1, # of connection points: 2
# Relax obj value: 0.122
# Max RMSD: 0.184
# Mean RMSD: 0.122
data_MOF--net-pyr--node1-OLANEW_clean_sbu_2--node2-PAMTUU_clean_sbu_0--edge1-KIFKEQ_clean_linker_1
_symmetry_space_group_name_H-M    P1
_symmetry_Int_Tables_number       1
_symmetry_cell_setting            triclinic
loop_
_symmetry_equiv_pos_as_xyz
'x, y, z'
_cell_length_a     41.439562
_cell_length_b     43.721586
_cell_length_c     41.481913
_cell_angle_alpha  94.423558
_cell_angle_beta   88.347806
_cell_angle_gamma 104.07002
loop_
_atom_site_label
_atom_site_type_symbol
_atom_site_fract_x
_atom_site_fract_y
_atom_site_fract_z
_atom_type_partial_charge
O0 O 0.37827 0.27092 0.12718 0.0
Cd1 Cd 0.36488 0.32287 0.12718 0.0
O2 O 0.36555 0.26898 0.17873 0.0
Cd3 Cd 0.35573 0.24477 0.2234 0.0
O4 O 0.33201 0.21546 0.26175 0.0
C5 C 0.32643 0.22764 0.28953 0.0
O6 O 0.33628 0.25842 0.2955 0.0
C7 C 0.37674 0.257 0.15319 0.0
C8 C 0.29935 0.32721 0.11821 0.0
O9 O 0.31036 0.326 0.14654 0.0
O10 O 0.31878 0.32485 0.094 0.0
O11 O 0.22562 0.81357 0.7785 0.0
Cd12 Cd 0.20077 0.79352 0.72614 0.0
O13 O 0.18039 0.80256 0.80868 0.0
Cd14 Cd 0.14998 0.7951 0.76544 0.0
O15 O 0.12645 0.81464 0.72822 0.0
C16 C 0.10426 0.82916 0.73721 0.0
O17 O 0.09512 0.82987 0.76781 0.0
C18 C 0.21181 0.81226 0.80628 0.0
C19 C 0.24643 0.76396 0.69451 0.0
O20 O 0.24745 0.79302 0.69084 0.0
O21 O 0.22283 0.74855 0.71187 0.0
O22 O 0.71144 0.40979 0.87083 0.0
Cd23 Cd 0.65761 0.39686 0.84099 0.0
O24 O 0.69334 0.37218 0.90375 0.0
Cd25 Cd 0.68571 0.33687 0.94092 0.0
O26 O 0.65863 0.29589 0.96796 0.0
C27 C 0.66558 0.26897 0.96426 0.0
O28 O 0.69027 0.26571 0.94476 0.0
C29 C 0.71661 0.39515 0.895 0.0
C30 C 0.64611 0.42888 0.78695 0.0
O31 O 0.64362 0.44049 0.81601 0.0
O32 O 0.65569 0.40305 0.78318 0.0
O33 O 0.9195 0.74421 0.3647 0.0
Cd34 Cd 0.89665 0.68866 0.34396 0.0
O35 O 0.88748 0.73466 0.40793 0.0
Cd36 Cd 0.86099 0.6855 0.39833 0.0
O37 O 0.81724 0.65551 0.42017 0.0
C38 C 0.78984 0.66288 0.41638 0.0
O39 O 0.78926 0.68578 0.39783 0.0
C40 C 0.90909 0.75365 0.39202 0.0
C41 C 0.91627 0.66538 0.28322 0.0
O42 O 0.89105 0.67758 0.28605 0.0
O43 O 0.93308 0.66552 0.30874 0.0
O44 O 0.70399 0.76656 0.79245 0.0
Cd45 Cd 0.67114 0.72729 0.82672 0.0
O46 O 0.69408 0.80401 0.82634 0.0
Cd47 Cd 0.69446 0.84988 0.85195 0.0
O48 O 0.67528 0.87916 0.88952 0.0
C49 C 0.64615 0.8672 0.90002 0.0
O50 O 0.63015 0.83928 0.88753 0.0
C51 C 0.70845 0.79587 0.80069 0.0
C52 C 0.71494 0.70107 0.85871 0.0
O53 O 0.70255 0.68865 0.83143 0.0
O54 O 0.70588 0.72542 0.87127 0.0
O55 O 0.89304 0.23973 0.30664 0.0
Cd56 Cd 0.94322 0.26484 0.33706 0.0
O57 O 0.86675 0.27289 0.33113 0.0
Cd58 Cd 0.82358 0.29128 0.34646 0.0
O59 O 0.783 0.31322 0.36172 0.0
C60 C 0.76264 0.30187 0.38376 0.0
O61 O 0.76613 0.27654 0.39701 0.0
C62 C 0.86643 0.24906 0.31136 0.0
C63 C 0.95905 0.22059 0.37488 0.0
O64 O 0.97297 0.22579 0.34719 0.0
O65 O 0.93822 0.23669 0.38485 0.0
O66 O 0.41303 0.75152 0.25107 0.0
Cd67 Cd 0.39179 0.6998 0.27604 0.0
O68 O 0.37062 0.73522 0.21885 0.0
Cd69 Cd 0.33107 0.72683 0.1822 0.0
O70 O 0.2845 0.70258 0.15683 0.0
C71 C 0.28118 0.67482 0.14332 0.0
O72 O 0.30629 0.66141 0.14372 0.0
C73 C 0.3962 0.75682 0.22766 0.0
C74 C 0.42018 0.67766 0.32836 0.0
O75 O 0.42833 0.67135 0.29897 0.0
O76 O 0.40034 0.69601 0.33322 0.0
O77 O 0.15044 0.42668 0.75722 0.0
Cd78 Cd 0.16891 0.40258 0.70683 0.0
O79 O 0.13408 0.38101 0.77915 0.0
Cd80 Cd 0.14342 0.34989 0.73765 0.0
O81 O 0.13616 0.3055 0.70695 0.0
C82 C 0.10717 0.28714 0.70713 0.0
O83 O 0.08377 0.29614 0.7247 0.0
C84 C 0.13808 0.41091 0.78106 0.0
C85 C 0.2318 0.43378 0.68418 0.0
O86 O 0.20547 0.44164 0.67605 0.0
O87 O 0.22845 0.41162 0.70343 0.0
Tb88 Tb 0.05872 0.02002 0.53396 0.0
Tb89 Tb 0.98632 0.01408 0.5714 0.0
C90 C 0.99759 0.9644 0.51552 0.0
C91 C 0.13725 0.04785 0.48687 0.0
C92 C 0.18147 0.0898 0.44824 0.0
C93 C 0.19283 0.0681 0.46558 0.0
C94 C 0.17087 0.04728 0.48465 0.0
C95 C 0.12584 0.06993 0.47035 0.0
C96 C 0.14776 0.09069 0.45111 0.0
C97 C 0.11442 0.02477 0.5059 0.0
O98 O 0.02859 0.03992 0.50301 0.0
O99 O 0.9921 0.05338 0.54119 0.0
O100 O 0.02417 0.0492 0.59873 0.0
O101 O 0.06088 0.0663 0.55802 0.0
O102 O 0.93412 1.00643 0.57089 0.0
O103 O 0.96133 0.01885 0.6154 0.0
O104 O 0.00541 0.97596 0.58739 0.0
O105 O 0.06086 0.99829 0.57915 0.0
O106 O 0.0296 0.97256 0.52132 0.0
O107 O 0.97724 0.98092 0.52853 0.0
C108 C 0.00666 0.05606 0.51265 0.0
O109 O 0.11093 0.03334 0.53635 0.0
O110 O 0.08599 1.0109 0.49256 0.0
C111 C 0.04805 0.07103 0.58667 0.0
C112 C 0.90703 0.98744 0.61905 0.0
C113 C 0.86188 0.94536 0.65698 0.0
C114 C 0.85891 0.97653 0.65492 0.0
C115 C 0.88129 0.99733 0.63613 0.0
C116 C 0.90986 0.95625 0.62038 0.0
C117 C 0.8874 0.93534 0.63913 0.0
C118 C 0.93207 1.01075 0.60225 0.0
C119 C 0.03687 0.97752 0.59258 0.0
H120 H 0.21871 0.06716 0.46439 0.0
H121 H 0.18009 0.03051 0.49746 0.0
H122 H 0.09991 0.07076 0.47191 0.0
H123 H 0.1381 0.10685 0.43785 0.0
H124 H 0.83995 0.98523 0.66864 0.0
H125 H 0.87899 0.02145 0.63561 0.0
H126 H 0.92975 0.94829 0.60744 0.0
H127 H 0.89014 0.91139 0.63978 0.0
Tb128 Tb 0.53013 0.03068 0.12936 0.0
Tb129 Tb 0.46952 0.01856 0.07756 0.0
C130 C 0.53045 0.9878 0.06409 0.0
C131 C 0.60049 0.06689 0.18623 0.0
C132 C 0.65382 0.1129 0.21486 0.0
C133 C 0.64929 0.11035 0.18117 0.0
C134 C 0.62281 0.0876 0.16698 0.0
C135 C 0.60416 0.07021 0.21988 0.0
C136 C 0.63045 0.09306 0.23408 0.0
C137 C 0.57458 0.04048 0.17187 0.0
O138 O 0.54989 0.06215 0.0916 0.0
O139 O 0.50076 0.06576 0.06944 0.0
O140 O 0.4557 0.04008 0.12297 0.0
O141 O 0.50631 0.07012 0.1373 0.0
O142 O 0.4506 0.0205 0.03149 0.0
O143 O 0.41778 1.00748 0.07214 0.0
O144 O 0.46511 0.97289 0.09762 0.0
O145 O 0.4896 0.99291 0.14593 0.0
O146 O 0.53919 0.99338 0.09468 0.0
O147 O 0.50673 0.99859 0.05212 0.0
C148 C 0.53326 0.07591 0.07306 0.0
O149 O 0.54376 0.04119 0.17821 0.0
O150 O 0.57888 0.03118 0.14178 0.0
C151 C 0.474 0.06632 0.13636 0.0
C152 C 0.39854 0.9854 0.02083 0.0
C153 C 0.35537 0.93757 0.98264 0.0
C154 C 0.35346 0.96925 0.98259 0.0
C155 C 0.37483 0.99291 1.00156 0.0
C156 C 0.40088 0.95394 0.02093 0.0
C157 C 0.37944 0.93014 1.0019 0.0
C158 C 0.41988 1.01073 0.04116 0.0
C159 C 0.47128 0.96937 0.12787 0.0
H160 H 0.66692 0.12506 0.16561 0.0
H161 H 0.6204 0.08565 0.14092 0.0
H162 H 0.5871 0.0546 0.23516 0.0
H163 H 0.63278 0.09481 0.26014 0.0
H164 H 0.33571 0.97588 0.96753 0.0
H165 H 0.37281 0.01714 1.0012 0.0
H166 H 0.4191 0.94781 0.03584 0.0
H167 H 0.38141 0.90595 1.00254 0.0
Tb168 Tb 0.5145 0.51126 0.53708 0.0
Tb169 Tb 0.52164 0.57683 0.58326 0.0
C170 C 0.49093 0.56891 0.51326 0.0
C171 C 0.53688 0.444 0.49011 0.0
C172 C 0.58533 0.41247 0.46601 0.0
C173 C 0.55195 0.40169 0.45632 0.0
C174 C 0.52794 0.41736 0.46829 0.0
C175 C 0.57006 0.45489 0.4999 0.0
C176 C 0.59408 0.43924 0.488 0.0
C177 C 0.51168 0.46062 0.50222 0.0
O178 O 0.55749 0.54483 0.51964 0.0
O179 O 0.57194 0.57812 0.56528 0.0
O180 O 0.53236 0.54184 0.61325 0.0
O181 O 0.55099 0.51047 0.574 0.0
O182 O 0.53664 0.62633 0.5906 0.0
O183 O 0.51268 0.59795 0.62873 0.0
O184 O 0.46878 0.55389 0.58146 0.0
O185 O 0.47334 0.50298 0.57143 0.0
O186 O 0.48422 0.53787 0.5138 0.0
O187 O 0.50945 0.58758 0.53548 0.0
C188 C 0.57895 0.56707 0.53618 0.0
O189 O 0.50683 0.46183 0.53341 0.0
O190 O 0.5138 0.48794 0.4908 0.0
C191 C 0.54885 0.52036 0.60458 0.0
C192 C 0.49721 0.64514 0.62331 0.0
C193 C 0.44465 0.67517 0.63501 0.0
C194 C 0.46999 0.6788 0.65789 0.0
C195 C 0.49607 0.66388 0.65206 0.0
C196 C 0.47241 0.64203 0.60009 0.0
C197 C 0.44645 0.65704 0.60581 0.0
C198 C 0.52217 0.62636 0.61892 0.0
C199 C 0.45634 0.52336 0.58234 0.0
H200 H 0.54446 0.38142 0.43911 0.0
H201 H 0.50244 0.40878 0.46037 0.0
H202 H 0.57737 0.47549 0.51676 0.0
H203 H 0.61943 0.44792 0.4963 0.0
H204 H 0.4694 0.69286 0.68047 0.0
H205 H 0.51486 0.66629 0.67034 0.0
H206 H 0.47259 0.62721 0.57793 0.0
H207 H 0.4271 0.65345 0.58792 0.0
Tb208 Tb 0.99736 0.55386 1.00724 0.0
Tb209 Tb 1.0011 0.49113 0.04482 0.0
C210 C 0.03176 0.50329 0.97551 0.0
C211 C 0.96197 0.61094 0.96837 0.0
C212 C 0.90576 0.63002 0.94892 0.0
C213 C 0.938 0.64646 0.94005 0.0
C214 C 0.96589 0.63695 0.9497 0.0
C215 C 0.92996 0.59459 0.97754 0.0
C216 C 0.90207 0.60403 0.96788 0.0
C217 C 0.99115 0.60035 0.97755 0.0
O218 O 0.95608 0.51568 0.98989 0.0
O219 O 0.94867 0.48278 0.03154 0.0
O220 O 0.98806 0.52485 0.08121 0.0
O221 O 0.96437 0.55352 0.04902 0.0
O222 O 0.99869 0.44227 0.04249 0.0
O223 O 0.00908 0.47084 0.08724 0.0
O224 O 0.05163 0.52152 0.04574 0.0
O225 O 0.0396 0.56931 0.03928 0.0
O226 O 0.03472 0.53374 0.9814 0.0
O227 O 0.01326 0.48284 0.99407 0.0
C228 C 0.93771 0.49248 1.00556 0.0
O229 O 0.99652 0.60177 1.00849 0.0
O230 O 0.994 0.57353 0.96326 0.0
C231 C 0.97027 0.54546 0.07771 0.0
C232 C 0.03709 0.42987 0.07722 0.0
C233 C 0.09164 0.40334 0.08665 0.0
C234 C 0.09589 0.43634 0.08798 0.0
C235 C 0.06894 0.44945 0.08319 0.0
C236 C 0.03274 0.39696 0.07571 0.0
C237 C 0.05976 0.38379 0.08029 0.0
C238 C 0.00841 0.44345 0.07219 0.0
C239 C 0.05989 0.55269 0.04812 0.0
H240 H 0.94166 0.66629 0.9251 0.0
H241 H 0.99046 0.64969 0.94231 0.0
H242 H 0.92656 0.57443 0.99202 0.0
H243 H 0.87764 0.59111 0.97543 0.0
H244 H 0.12017 0.45207 0.09232 0.0
H245 H 0.07303 0.47492 0.08416 0.0
H246 H 0.00841 0.38142 0.07104 0.0
H247 H 0.05559 0.35831 0.07934 0.0
H248 H 0.31162 0.24548 0.35183 0.0
H249 H 0.29781 0.1643 0.28272 0.0
H250 H 0.27833 0.21255 0.3915 0.0
H251 H 0.26389 0.13168 0.32195 0.0
H252 H 0.22986 0.07482 0.40825 0.0
H253 H 0.26701 0.10851 0.37195 0.0
H254 H 0.22116 0.18524 0.40118 0.0
H255 H 0.18508 0.15197 0.4388 0.0
C256 C 0.3015 0.22063 0.34509 0.0
C257 C 0.30736 0.20753 0.3141 0.0
C258 C 0.28225 0.20179 0.36776 0.0
C259 C 0.26837 0.16948 0.3599 0.0
C260 C 0.27458 0.15637 0.32901 0.0
C261 C 0.29391 0.17514 0.30642 0.0
C262 C 0.22805 0.09903 0.40737 0.0
C263 C 0.20448 0.11068 0.4265 0.0
C264 C 0.24908 0.11824 0.38622 0.0
C265 C 0.24698 0.14955 0.38351 0.0
C266 C 0.22368 0.16134 0.4029 0.0
C267 C 0.20269 0.14214 0.42416 0.0
H268 H 0.27927 0.83345 0.80889 0.0
H269 H 0.19097 0.81733 0.86946 0.0
H270 H 0.31275 0.85812 0.85517 0.0
H271 H 0.22484 0.84147 0.91622 0.0
H272 H 0.28902 0.93077 0.97287 0.0
H273 H 0.25381 0.89501 0.9332 0.0
H274 H 0.33486 0.85154 0.90659 0.0
H275 H 0.37061 0.8884 0.94537 0.0
C276 C 0.26704 0.8347 0.83221 0.0
C277 C 0.23235 0.82377 0.83537 0.0
C278 C 0.28634 0.84862 0.85888 0.0
C279 C 0.27148 0.8519 0.88941 0.0
C280 C 0.23697 0.83967 0.89291 0.0
C281 C 0.21759 0.82573 0.86616 0.0
C282 C 0.2993 0.91351 0.95862 0.0
C283 C 0.33277 0.91278 0.96186 0.0
C284 C 0.27896 0.89269 0.93618 0.0
C285 C 0.29159 0.87056 0.91652 0.0
C286 C 0.32453 0.86864 0.92105 0.0
C287 C 0.34493 0.88954 0.94348 0.0
H288 H 0.63383 0.48762 0.78585 0.0
H289 H 0.63508 0.40369 0.72437 0.0
H290 H 0.61329 0.51038 0.74124 0.0
H291 H 0.61308 0.42575 0.67998 0.0
H292 H 0.59414 0.48316 0.59768 0.0
H293 H 0.62064 0.46267 0.64039 0.0
H294 H 0.56515 0.50628 0.71232 0.0
H295 H 0.54 0.5276 0.66997 0.0
C296 C 0.62974 0.47399 0.76277 0.0
C297 C 0.63608 0.44376 0.75884 0.0
C298 C 0.61759 0.48694 0.73711 0.0
C299 C 0.6109 0.46987 0.70678 0.0
C300 C 0.61813 0.43991 0.70267 0.0
C301 C 0.63067 0.42712 0.72827 0.0
C302 C 0.58772 0.48843 0.62264 0.0
C303 C 0.56499 0.50721 0.63024 0.0
C304 C 0.60282 0.47652 0.64725 0.0
C305 C 0.59538 0.48283 0.68016 0.0
C306 C 0.57236 0.50141 0.68753 0.0
C307 C 0.5576 0.51351 0.66305 0.0
H308 H 0.88171 0.65558 0.22641 0.0
H309 H 0.9694 0.63959 0.26923 0.0
H310 H 0.89286 0.62613 0.17663 0.0
H311 H 0.98105 0.61093 0.2193 0.0
H312 H 0.97369 0.5321 0.1407 0.0
H313 H 0.96022 0.56158 0.18924 0.0
H314 H 0.92933 0.62649 0.1304 0.0
H315 H 0.94205 0.59643 0.08167 0.0
C316 C 0.90361 0.64614 0.22509 0.0
C317 C 0.92459 0.64989 0.25193 0.0
C318 C 0.91007 0.62929 0.19645 0.0
C319 C 0.9377 0.61581 0.1939 0.0
C320 C 0.95912 0.62033 0.22052 0.0
C321 C 0.95262 0.63706 0.24914 0.0
C322 C 0.96374 0.55249 0.13802 0.0
C323 C 0.95904 0.56185 0.10716 0.0
C324 C 0.9563 0.56963 0.16596 0.0
C325 C 0.94407 0.59676 0.16391 0.0
C326 C 0.93848 0.60564 0.13302 0.0
C327 C 0.94583 0.58839 0.105 0.0
H328 H 0.41005 0.23903 0.20141 0.0
H329 H 0.37191 0.2098 0.1053 0.0
H330 H 0.4326 0.19218 0.20096 0.0
H331 H 0.39452 0.16299 0.10479 0.0
H332 H 0.40916 0.06736 0.12854 0.0
H333 H 0.38467 0.11272 0.13481 0.0
H334 H 0.47838 0.17173 0.1689 0.0
H335 H 0.50334 0.12618 0.16233 0.0
C336 C 0.40586 0.22223 0.18048 0.0
C337 C 0.38858 0.22769 0.15365 0.0
C338 C 0.41919 0.19568 0.18006 0.0
C339 C 0.41519 0.17385 0.15292 0.0
C340 C 0.39765 0.1792 0.12621 0.0
C341 C 0.38479 0.206 0.12644 0.0
C342 C 0.42459 0.08986 0.13779 0.0
C343 C 0.45835 0.0931 0.14481 0.0
C344 C 0.41051 0.1159 0.14116 0.0
C345 C 0.42966 0.14582 0.15202 0.0
C346 C 0.46299 0.1489 0.16055 0.0
C347 C 0.47727 0.12283 0.15679 0.0
H348 H 0.056 0.86167 0.74857 0.0
H349 H 0.12381 0.83913 0.67452 0.0
H350 H 0.03865 0.8964 0.71296 0.0
H351 H 0.10613 0.87365 0.63882 0.0
H352 H 0.0987 0.96913 0.60394 0.0
H353 H 0.11302 0.93132 0.63772 0.0
H354 H 0.00919 0.89621 0.6619 0.0
H355 H 0.99475 0.93428 0.62837 0.0
C356 C 0.06694 0.86383 0.72457 0.0
C357 C 0.09144 0.84777 0.71446 0.0
C358 C 0.05688 0.88365 0.70412 0.0
C359 C 0.0712 0.88794 0.67318 0.0
C360 C 0.09501 0.87118 0.66272 0.0
C361 C 0.10496 0.85123 0.6831 0.0
C362 C 0.07888 0.95341 0.61648 0.0
C363 C 0.04558 0.95481 0.61348 0.0
C364 C 0.08709 0.93155 0.63563 0.0
C365 C 0.06222 0.91068 0.65235 0.0
C366 C 0.02893 0.91214 0.64949 0.0
C367 C 0.02067 0.9339 0.63018 0.0
H368 H 0.77484 0.42997 0.87167 0.0
H369 H 0.73232 0.38459 0.95709 0.0
H370 H 0.82706 0.45119 0.89945 0.0
H371 H 0.78481 0.4068 0.9856 0.0
H372 H 0.89671 0.43396 0.0172 0.0
H373 H 0.84341 0.40812 0.99141 0.0
H374 H 0.84898 0.49115 0.93938 0.0
H375 H 0.90198 0.51614 0.96402 0.0
C376 C 0.7766 0.42449 0.89649 0.0
C377 C 0.74915 0.4056 0.91208 0.0
C378 C 0.80664 0.43694 0.91262 0.0
C379 C 0.81027 0.43137 0.94516 0.0
C380 C 0.78315 0.41158 0.96056 0.0
C381 C 0.75296 0.39881 0.94419 0.0
C382 C 0.88639 0.44665 1.00034 0.0
C383 C 0.90399 0.47701 0.99244 0.0
C384 C 0.85575 0.43187 0.98557 0.0
C385 C 0.84192 0.44718 0.96269 0.0
C386 C 0.85908 0.47803 0.95597 0.0
C387 C 0.88959 0.49256 0.97039 0.0
H388 H 0.78535 0.6281 0.46928 0.0
H389 H 0.72598 0.66421 0.40455 0.0
H390 H 0.73507 0.60535 0.50023 0.0
H391 H 0.676 0.64123 0.43522 0.0
H392 H 0.59394 0.5607 0.4723 0.0
H393 H 0.64554 0.5835 0.44461 0.0
H394 H 0.68894 0.62691 0.53531 0.0
H395 H 0.6366 0.60413 0.56355 0.0
C396 C 0.76159 0.631 0.46155 0.0
C397 C 0.75956 0.64779 0.43437 0.0
C398 C 0.73295 0.61825 0.47943 0.0
C399 C 0.70178 0.62162 0.47008 0.0
C400 C 0.69976 0.6382 0.44282 0.0
C401 C 0.72836 0.65133 0.42529 0.0
C402 C 0.6144 0.57497 0.48657 0.0
C403 C 0.6111 0.58065 0.52021 0.0
C404 C 0.64392 0.58814 0.47058 0.0
C405 C 0.67108 0.60702 0.48781 0.0
C406 C 0.66828 0.6123 0.52154 0.0
C407 C 0.63836 0.59943 0.53762 0.0
H408 H 0.2548 0.33833 0.16497 0.0
H409 H 0.26899 0.33094 0.06133 0.0
H410 H 0.20301 0.35406 0.15782 0.0
H411 H 0.21738 0.34701 0.05424 0.0
H412 H 0.10852 0.353 0.05272 0.0
H413 H 0.15642 0.33114 0.06089 0.0
H414 H 0.18804 0.40108 0.14026 0.0
H415 H 0.13986 0.42239 0.13257 0.0
C416 C 0.24674 0.33976 0.14064 0.0
C417 C 0.26617 0.33349 0.11373 0.0
C418 C 0.21715 0.349 0.13656 0.0
C419 C 0.20616 0.35207 0.10547 0.0
C420 C 0.22496 0.34466 0.07852 0.0
C421 C 0.25464 0.33555 0.0826 0.0
C422 C 0.12552 0.36346 0.07213 0.0
C423 C 0.12039 0.3895 0.09194 0.0
C424 C 0.15312 0.35111 0.07664 0.0
C425 C 0.17609 0.36433 0.10124 0.0
C426 C 0.17067 0.39008 0.12131 0.0
C427 C 0.14324 0.40255 0.11667 0.0
H428 H 0.67823 0.21058 0.96574 0.0
H429 H 0.60772 0.26421 1.00014 0.0
H430 H 0.64572 0.16467 0.99156 0.0
H431 H 0.57514 0.21805 0.0263 0.0
H432 H 0.50843 0.11693 0.03918 0.0
H433 H 0.53974 0.16388 0.01344 0.0
H434 H 0.6316 0.147 0.04566 0.0
H435 H 0.60063 0.10025 0.07102 0.0
C436 C 0.65583 0.21267 0.97891 0.0
C437 C 0.64573 0.24126 0.98086 0.0
C438 C 0.63721 0.18629 0.99389 0.0
C439 C 0.60777 0.18756 0.01115 0.0
C440 C 0.5975 0.21609 0.01299 0.0
C441 C 0.61633 0.24265 0.99818 0.0
C442 C 0.53531 0.1232 0.04072 0.0
C443 C 0.5519 0.10457 0.05713 0.0
C444 C 0.55327 0.15028 0.02614 0.0
C445 C 0.58828 0.15926 0.02732 0.0
C446 C 0.60475 0.14065 0.04382 0.0
C447 C 0.58686 0.11381 0.05855 0.0
H448 H 0.88342 0.78167 0.444 0.0
H449 H 0.96278 0.80013 0.3729 0.0
H450 H 0.90444 0.83367 0.47057 0.0
H451 H 0.98376 0.8531 0.39962 0.0
H452 H 0.03244 0.9251 0.48405 0.0
H453 H 0.01077 0.87637 0.45092 0.0
H454 H 0.91115 0.88942 0.46468 0.0
H455 H 0.93272 0.93795 0.49841 0.0
C456 C 0.90529 0.79694 0.4338 0.0
C457 C 0.92153 0.78653 0.40633 0.0
C458 C 0.91718 0.827 0.44898 0.0
C459 C 0.94573 0.84768 0.43725 0.0
C460 C 0.9618 0.83762 0.40943 0.0
C461 C 0.94972 0.80737 0.39401 0.0
C462 C 0.00589 0.9177 0.47998 0.0
C463 C 0.98429 0.93537 0.49425 0.0
C464 C 0.99352 0.88985 0.46067 0.0
C465 C 0.95922 0.87888 0.45516 0.0
C466 C 0.93769 0.89696 0.46877 0.0
C467 C 0.95006 0.92485 0.48807 0.0
H468 H 0.2998 0.79039 0.65696 0.0
H469 H 0.25394 0.70473 0.70277 0.0
H470 H 0.34731 0.76862 0.64098 0.0
H471 H 0.30126 0.68293 0.68651 0.0
H472 H 0.40909 0.67448 0.6914 0.0
H473 H 0.36009 0.69512 0.70308 0.0
H474 H 0.36434 0.72607 0.60631 0.0
H475 H 0.41398 0.706 0.59483 0.0
C476 C 0.29962 0.76675 0.66321 0.0
C477 C 0.27319 0.74937 0.68132 0.0
C478 C 0.3268 0.75426 0.65397 0.0
C479 C 0.32816 0.72421 0.6628 0.0
C480 C 0.30116 0.70638 0.67984 0.0
C481 C 0.27393 0.71879 0.68894 0.0
C482 C 0.39982 0.68601 0.67274 0.0
C483 C 0.41548 0.68873 0.64224 0.0
C484 C 0.37148 0.69746 0.67928 0.0
C485 C 0.35822 0.712 0.65553 0.0
C486 C 0.37407 0.71507 0.62512 0.0
C487 C 0.40234 0.70342 0.6185 0.0
H488 H 0.7102 0.85892 0.79605 0.0
H489 H 0.75729 0.78498 0.7599 0.0
H490 H 0.74769 0.89599 0.76232 0.0
H491 H 0.79399 0.82159 0.72593 0.0
H492 H 0.87753 0.90335 0.6959 0.0
H493 H 0.84069 0.86861 0.73169 0.0
H494 H 0.75809 0.90441 0.70358 0.0
H495 H 0.79485 0.93896 0.66734 0.0
C496 C 0.72872 0.85067 0.78127 0.0
C497 C 0.73099 0.8191 0.78098 0.0
C498 C 0.74992 0.87178 0.76164 0.0
C499 C 0.77392 0.86175 0.74157 0.0
C500 C 0.77613 0.83021 0.74143 0.0
C501 C 0.75489 0.80916 0.76076 0.0
C502 C 0.85145 0.90358 0.69699 0.0
C503 C 0.83917 0.92385 0.67853 0.0
C504 C 0.83035 0.88375 0.71764 0.0
C505 C 0.79646 0.88376 0.72047 0.0
C506 C 0.78417 0.90418 0.70227 0.0
C507 C 0.80526 0.92394 0.68147 0.0
H508 H 0.81289 0.27021 0.29272 0.0
H509 H 0.85036 0.18636 0.29352 0.0
H510 H 0.76039 0.23827 0.27057 0.0
H511 H 0.79882 0.15476 0.26981 0.0
H512 H 0.69148 0.10147 0.26337 0.0
H513 H 0.74181 0.13571 0.28654 0.0
H514 H 0.73616 0.20713 0.22195 0.0
H515 H 0.6846 0.17331 0.1997 0.0
C516 C 0.80977 0.24495 0.28858 0.0
C517 C 0.83533 0.23065 0.29587 0.0
C518 C 0.77993 0.22672 0.27529 0.0
C519 C 0.77521 0.19388 0.26885 0.0
C520 C 0.8013 0.17986 0.27518 0.0
C521 C 0.83098 0.19803 0.28847 0.0
C522 C 0.70053 0.12469 0.25447 0.0
C523 C 0.68389 0.13463 0.22969 0.0
C524 C 0.72973 0.14416 0.26745 0.0
C525 C 0.74323 0.17403 0.25588 0.0
C526 C 0.72632 0.18431 0.23152 0.0
C527 C 0.69697 0.1648 0.21854 0.0
H528 H 0.40965 0.68851 0.3934 0.0
H529 H 0.45581 0.63207 0.32528 0.0
H530 H 0.42497 0.66148 0.43778 0.0
H531 H 0.47139 0.60518 0.36976 0.0
H532 H 0.46388 0.54133 0.45485 0.0
H533 H 0.44686 0.56755 0.41036 0.0
H534 H 0.47349 0.65701 0.4668 0.0
H535 H 0.49004 0.631 0.51106 0.0
C536 C 0.42332 0.67052 0.38786 0.0
C537 C 0.43158 0.66264 0.35566 0.0
C538 C 0.43218 0.65501 0.41339 0.0
C539 C 0.44937 0.63098 0.40748 0.0
C540 C 0.45778 0.62322 0.37526 0.0
C541 C 0.44912 0.6389 0.34974 0.0
C542 C 0.46581 0.56653 0.45785 0.0
C543 C 0.47838 0.58394 0.48664 0.0
C544 C 0.45633 0.58165 0.43222 0.0
C545 C 0.45886 0.61451 0.43484 0.0
C546 C 0.47085 0.6317 0.4639 0.0
C547 C 0.48054 0.6167 0.48931 0.0
H548 H 0.12347 0.3873 0.84013 0.0
H549 H 0.12662 0.47035 0.78894 0.0
H550 H 0.1006 0.41113 0.88749 0.0
H551 H 0.10239 0.49385 0.83608 0.0
H552 H 0.08044 0.53689 0.93655 0.0
H553 H 0.10915 0.51621 0.89068 0.0
H554 H 0.04963 0.42203 0.90409 0.0
H555 H 0.02206 0.4424 0.95025 0.0
C556 C 0.11925 0.41069 0.83897 0.0
C557 C 0.12666 0.42679 0.81063 0.0
C558 C 0.10587 0.42431 0.86611 0.0
C559 C 0.09905 0.45427 0.86558 0.0
C560 C 0.10748 0.47085 0.83755 0.0
C561 C 0.12127 0.45732 0.81043 0.0
C562 C 0.07359 0.51176 0.92968 0.0
C563 C 0.04905 0.49131 0.94721 0.0
C564 C 0.08995 0.4999 0.90327 0.0
C565 C 0.08198 0.46734 0.8937 0.0
C566 C 0.05712 0.44709 0.91111 0.0
C567 C 0.04105 0.45886 0.93755 0.0
H568 H 0.5821 0.85051 0.9219 0.0
H569 H 0.67386 0.92214 0.93634 0.0
H570 H 0.55491 0.87837 0.96321 0.0
H571 H 0.64638 0.95014 0.97785 0.0
H572 H 0.59048 0.97329 0.07233 0.0
H573 H 0.61944 0.94352 0.03384 0.0
H574 H 0.53817 0.92953 0.96717 0.0
H575 H 0.50933 0.95896 1.00529 0.0
C576 C 0.59653 0.87218 0.93392 0.0
C577 C 0.63013 0.88418 0.92565 0.0
C578 C 0.58088 0.88819 0.95755 0.0
C579 C 0.59847 0.91649 0.97369 0.0
C580 C 0.63226 0.92824 0.96597 0.0
C581 C 0.64791 0.91233 0.94205 0.0
C582 C 0.57873 0.96364 0.04955 0.0
C583 C 0.5476 0.96851 0.0419 0.0
C584 C 0.59542 0.94683 0.02745 0.0
C585 C 0.58106 0.93419 0.99751 0.0
C586 C 0.54974 0.9387 0.99016 0.0
C587 C 0.5333 0.95574 0.01199 0.0
H588 H 0.01122 0.19234 0.36831 0.0
H589 H 0.92293 0.19372 0.42573 0.0
H590 H 0.02315 0.15263 0.40127 0.0
H591 H 0.93375 0.15301 0.45761 0.0
H592 H 0.97919 0.10539 0.53072 0.0
H593 H 0.96877 0.14508 0.49741 0.0
H594 H 0.00681 0.09929 0.41365 0.0
H595 H 0.01874 0.06028 0.4476 0.0
C596 C 0.99423 0.18396 0.38783 0.0
C597 C 0.96628 0.1963 0.39459 0.0
C598 C 1.0009 0.161 0.4066 0.0
C599 C 0.9795 0.14955 0.43226 0.0
C600 C 0.95126 0.16169 0.43859 0.0
C601 C 0.94491 0.18495 0.42017 0.0
C602 C 0.98524 0.10368 0.50516 0.0
C603 C 0.99963 0.07956 0.49177 0.0
C604 C 0.97908 0.12642 0.48595 0.0
C605 C 0.98666 0.12539 0.45267 0.0
C606 C 1.00104 0.10116 0.43924 0.0
C607 C 0.00768 0.07863 0.45864 0.0
H608 H 0.26783 0.61728 0.10884 0.0
H609 H 0.22177 0.69215 0.14426 0.0
H610 H 0.21527 0.58776 0.08519 0.0
H611 H 0.1689 0.66222 0.12147 0.0
H612 H 0.08752 0.61629 0.05007 0.0
H613 H 0.14084 0.64535 0.07189 0.0
H614 H 0.16074 0.55804 0.0982 0.0
H615 H 0.10758 0.52871 0.0753 0.0
C616 C 0.24645 0.62744 0.11169 0.0
C617 C 0.24913 0.65719 0.12842 0.0
C618 C 0.21616 0.61035 0.0983 0.0
C619 C 0.18762 0.62245 0.10137 0.0
C620 C 0.19037 0.65226 0.11811 0.0
C621 C 0.22071 0.66943 0.13136 0.0
C622 C 0.10322 0.60316 0.06042 0.0
C623 C 0.09304 0.57004 0.06096 0.0
C624 C 0.13384 0.61995 0.07321 0.0
C625 C 0.15521 0.60421 0.08712 0.0
C626 C 0.14519 0.57102 0.08739 0.0
C627 C 0.11455 0.55415 0.0744 0.0
H628 H 0.24734 0.48225 0.64389 0.0
H629 H 0.29131 0.4197 0.69416 0.0
H630 H 0.3014 0.50499 0.61948 0.0
H631 H 0.34526 0.44265 0.67009 0.0
H632 H 0.42453 0.46202 0.59082 0.0
H633 H 0.37065 0.44203 0.61608 0.0
H634 H 0.35821 0.53726 0.6325 0.0
H635 H 0.4123 0.55746 0.60679 0.0
C636 C 0.26856 0.47352 0.64994 0.0
C637 C 0.26494 0.44902 0.67086 0.0
C638 C 0.29957 0.48666 0.63606 0.0
C639 C 0.3276 0.47548 0.64265 0.0
C640 C 0.32406 0.45146 0.6641 0.0
C641 C 0.29315 0.43843 0.67806 0.0
C642 C 0.41037 0.4788 0.59968 0.0
C643 C 0.42286 0.5114 0.59677 0.0
C644 C 0.37951 0.4673 0.61441 0.0
C645 C 0.36022 0.48805 0.62656 0.0
C646 C 0.37239 0.52064 0.62322 0.0
C647 C 0.40343 0.53221 0.60858 0.0
H648 H 0.74004 0.65075 0.83739 0.0
H649 H 0.7472 0.7234 0.91547 0.0
H650 H 0.78481 0.6329 0.86098 0.0
H651 H 0.7916 0.70513 0.93938 0.0
H652 H 0.8973 0.68996 0.94675 0.0
H653 H 0.84957 0.70579 0.92656 0.0
H654 H 0.79895 0.60759 0.90713 0.0
H655 H 0.8472 0.59178 0.92621 0.0
C656 C 0.75089 0.66267 0.8598 0.0
C657 C 0.74016 0.68859 0.87447 0.0
C658 C 0.77645 0.65233 0.87341 0.0
C659 C 0.79187 0.66768 0.90198 0.0
C660 C 0.78055 0.6931 0.91709 0.0
C661 C 0.75496 0.70343 0.90349 0.0
C662 C 0.87605 0.67176 0.93801 0.0
C663 C 0.87611 0.63963 0.93796 0.0
C664 C 0.84853 0.68081 0.92681 0.0
C665 C 0.82044 0.65794 0.91526 0.0
C666 C 0.82033 0.62579 0.91559 0.0
C667 C 0.84784 0.61673 0.92683 0.0
H668 H 0.36258 0.78032 0.18227 0.0
H669 H 0.45329 0.80337 0.23714 0.0
H670 H 0.37941 0.83092 0.15801 0.0
H671 H 0.47038 0.85362 0.21258 0.0
H672 H 0.47709 0.95476 0.19015 0.0
H673 H 0.4582 0.90396 0.21324 0.0
H674 H 0.41768 0.8617 0.12098 0.0
H675 H 0.43603 0.91302 0.09794 0.0
C676 C 0.38625 0.7959 0.18898 0.0
C677 C 0.40648 0.78743 0.21177 0.0
C678 C 0.39601 0.82508 0.17493 0.0
C679 C 0.42628 0.84673 0.1833 0.0
C680 C 0.44661 0.83803 0.20585 0.0
C681 C 0.43686 0.80896 0.21987 0.0
C682 C 0.46403 0.93474 0.17469 0.0
C683 C 0.45822 0.93821 0.14205 0.0
C684 C 0.45337 0.90537 0.18796 0.0
C685 C 0.43659 0.87834 0.16905 0.0
C686 C 0.43024 0.88189 0.13649 0.0
C687 C 0.44091 0.91139 0.12318 0.0
H688 H 0.15016 0.25894 0.67107 0.0
H689 H 0.04738 0.24405 0.7019 0.0
H690 H 0.13769 0.20634 0.64269 0.0
H691 H 0.03484 0.19207 0.67314 0.0
H692 H 0.02898 0.08864 0.6476 0.0
H693 H 0.04483 0.14048 0.67664 0.0
H694 H 0.10781 0.17617 0.59633 0.0
H695 H 0.09252 0.12403 0.56748 0.0
C696 C 0.12489 0.24455 0.67165 0.0
C697 C 0.09981 0.25571 0.68887 0.0
C698 C 0.11771 0.21445 0.65528 0.0
C699 C 0.08529 0.19483 0.65579 0.0
C700 C 0.06021 0.20622 0.67273 0.0
C701 C 0.06738 0.23621 0.68906 0.0
C702 C 0.04639 0.10744 0.63617 0.0
C703 C 0.05937 0.10212 0.60512 0.0
C704 C 0.05532 0.13728 0.65276 0.0
C705 C 0.07738 0.16264 0.63873 0.0
C706 C 0.09099 0.15714 0.608 0.0
C707 C 0.0821 0.12723 0.59139 0.0
H708 H 0.74836 0.35423 0.36117 0.0
H709 H 0.71637 0.28484 0.43158 0.0
H710 H 0.70495 0.38036 0.38013 0.0
H711 H 0.67343 0.31138 0.45097 0.0
H712 H 0.57946 0.34866 0.45614 0.0
H713 H 0.62141 0.32161 0.43496 0.0
H714 H 0.69154 0.41177 0.42699 0.0
H715 H 0.64919 0.43882 0.44687 0.0
C716 C 0.73212 0.34456 0.38073 0.0
C717 C 0.73589 0.31745 0.39488 0.0
C718 C 0.70734 0.35967 0.39173 0.0
C719 C 0.68576 0.34803 0.41715 0.0
C720 C 0.68936 0.32075 0.4311 0.0
C721 C 0.71412 0.30563 0.42009 0.0
C722 C 0.60371 0.36272 0.44952 0.0
C723 C 0.61094 0.39592 0.45321 0.0
C724 C 0.62788 0.3472 0.43773 0.0
C725 C 0.65987 0.3645 0.42932 0.0
C726 C 0.66705 0.39771 0.4329 0.0
C727 C 0.64289 0.41322 0.44469 0.0
loop_
_geom_bond_atom_site_label_1
_geom_bond_atom_site_label_2
_geom_bond_distance
_geom_bond_site_symmetry_2
_ccdc_geom_bond_type
O0 Cd1 2.300 . S
O0 C7 1.275 . S
Cd1 O0 2.300 . S
Cd1 O9 2.381 . S
Cd1 O10 2.378 . S
O2 Cd3 2.385 . S
O2 C7 1.255 . S
Cd3 O2 2.385 . S
Cd3 O4 2.317 . S
O4 Cd3 2.317 . S
O4 C5 1.232 . S
C5 O4 1.232 . S
C5 O6 1.218 . S
O6 C5 1.218 . S
C7 O0 1.275 . S
C7 O2 1.255 . S
C8 O9 1.258 . S
C8 O10 1.256 . S
O9 Cd1 2.381 . S
O9 C8 1.258 . S
O10 Cd1 2.378 . S
O10 C8 1.256 . S
O11 Cd12 2.300 . S
O11 C18 1.275 . S
Cd12 O11 2.300 . S
Cd12 O20 2.381 . S
Cd12 O21 2.378 . S
O13 Cd14 2.385 . S
O13 C18 1.255 . S
Cd14 O13 2.385 . S
Cd14 O15 2.317 . S
O15 Cd14 2.317 . S
O15 C16 1.232 . S
C16 O15 1.232 . S
C16 O17 1.218 . S
O17 C16 1.218 . S
C18 O11 1.275 . S
C18 O13 1.255 . S
C19 O20 1.258 . S
C19 O21 1.256 . S
O20 Cd12 2.381 . S
O20 C19 1.258 . S
O21 Cd12 2.378 . S
O21 C19 1.256 . S
O22 Cd23 2.300 . S
O22 C29 1.275 . S
Cd23 O22 2.300 . S
Cd23 O31 2.381 . S
Cd23 O32 2.378 . S
O24 Cd25 2.385 . S
O24 C29 1.255 . S
Cd25 O24 2.385 . S
Cd25 O26 2.317 . S
O26 Cd25 2.317 . S
O26 C27 1.232 . S
C27 O26 1.232 . S
C27 O28 1.218 . S
O28 C27 1.218 . S
C29 O22 1.275 . S
C29 O24 1.255 . S
C30 O31 1.258 . S
C30 O32 1.256 . S
O31 Cd23 2.381 . S
O31 C30 1.258 . S
O32 Cd23 2.378 . S
O32 C30 1.256 . S
O33 Cd34 2.300 . S
O33 C40 1.275 . S
Cd34 O33 2.300 . S
Cd34 O42 2.381 . S
Cd34 O43 2.378 . S
O35 Cd36 2.385 . S
O35 C40 1.255 . S
Cd36 O35 2.385 . S
Cd36 O37 2.317 . S
O37 Cd36 2.317 . S
O37 C38 1.232 . S
C38 O37 1.232 . S
C38 O39 1.218 . S
O39 C38 1.218 . S
C40 O33 1.275 . S
C40 O35 1.255 . S
C41 O42 1.258 . S
C41 O43 1.256 . S
O42 Cd34 2.381 . S
O42 C41 1.258 . S
O43 Cd34 2.378 . S
O43 C41 1.256 . S
O44 Cd45 2.300 . S
O44 C51 1.275 . S
Cd45 O44 2.300 . S
Cd45 O53 2.381 . S
Cd45 O54 2.378 . S
O46 Cd47 2.385 . S
O46 C51 1.255 . S
Cd47 O46 2.385 . S
Cd47 O48 2.317 . S
O48 Cd47 2.317 . S
O48 C49 1.232 . S
C49 O48 1.232 . S
C49 O50 1.218 . S
O50 C49 1.218 . S
C51 O44 1.275 . S
C51 O46 1.255 . S
C52 O53 1.258 . S
C52 O54 1.256 . S
O53 Cd45 2.381 . S
O53 C52 1.258 . S
O54 Cd45 2.378 . S
O54 C52 1.256 . S
O55 Cd56 2.300 . S
O55 C62 1.275 . S
Cd56 O55 2.300 . S
Cd56 O64 2.381 . S
Cd56 O65 2.378 . S
O57 Cd58 2.385 . S
O57 C62 1.255 . S
Cd58 O57 2.385 . S
Cd58 O59 2.317 . S
O59 Cd58 2.317 . S
O59 C60 1.232 . S
C60 O59 1.232 . S
C60 O61 1.218 . S
O61 C60 1.218 . S
C62 O55 1.275 . S
C62 O57 1.255 . S
C63 O64 1.258 . S
C63 O65 1.256 . S
O64 Cd56 2.381 . S
O64 C63 1.258 . S
O65 Cd56 2.378 . S
O65 C63 1.256 . S
O66 Cd67 2.300 . S
O66 C73 1.275 . S
Cd67 O66 2.300 . S
Cd67 O75 2.381 . S
Cd67 O76 2.378 . S
O68 Cd69 2.385 . S
O68 C73 1.255 . S
Cd69 O68 2.385 . S
Cd69 O70 2.317 . S
O70 Cd69 2.317 . S
O70 C71 1.232 . S
C71 O70 1.232 . S
C71 O72 1.218 . S
O72 C71 1.218 . S
C73 O66 1.275 . S
C73 O68 1.255 . S
C74 O75 1.258 . S
C74 O76 1.256 . S
O75 Cd67 2.381 . S
O75 C74 1.258 . S
O76 Cd67 2.378 . S
O76 C74 1.256 . S
O77 Cd78 2.300 . S
O77 C84 1.275 . S
Cd78 O77 2.300 . S
Cd78 O86 2.381 . S
Cd78 O87 2.378 . S
O79 Cd80 2.385 . S
O79 C84 1.255 . S
Cd80 O79 2.385 . S
Cd80 O81 2.317 . S
O81 Cd80 2.317 . S
O81 C82 1.232 . S
C82 O81 1.232 . S
C82 O83 1.218 . S
O83 C82 1.218 . S
C84 O77 1.275 . S
C84 O79 1.255 . S
C85 O86 1.258 . S
C85 O87 1.256 . S
O86 Cd78 2.381 . S
O86 C85 1.258 . S
O87 Cd78 2.378 . S
O87 C85 1.256 . S
Tb88 C97 2.764 . S
Tb88 O98 2.325 1_455 S
Tb88 O101 2.303 . S
Tb88 O105 2.322 1_545 S
Tb88 O106 2.349 1_545 S
Tb88 O109 2.415 . S
Tb88 O110 2.399 . S
Tb89 O99 2.322 . S
Tb89 O100 2.349 . S
Tb89 O102 2.415 1_545 S
Tb89 O103 2.399 1_545 S
Tb89 O104 2.325 1_645 S
Tb89 O107 2.303 1_545 S
Tb89 C118 2.764 1_545 S
C90 O106 1.261 1_655 S
C90 O107 1.257 . S
C91 C94 1.358 . S
C91 C95 1.332 . S
C91 C97 1.504 . S
C92 C93 1.373 . S
C92 C96 1.308 . S
C93 C92 1.373 . S
C93 C94 1.429 . S
C93 H120 0.932 . S
C94 C91 1.358 . S
C94 C93 1.429 . S
C94 H121 0.930 . S
C95 C91 1.332 . S
C95 C96 1.394 . S
C95 H122 0.932 . S
C96 C92 1.308 . S
C96 C95 1.394 . S
C96 H123 0.929 . S
C97 Tb88 2.764 . S
C97 C91 1.504 . S
C97 O109 1.239 . S
C97 O110 1.263 . S
O98 Tb88 2.325 1_655 S
O98 C108 1.236 . S
O99 Tb89 2.322 . S
O99 C108 1.257 . S
O100 Tb89 2.349 . S
O100 C111 1.261 1_655 S
O101 Tb88 2.303 . S
O101 C111 1.257 . S
O102 Tb89 2.415 1_565 S
O102 C118 1.239 . S
O103 Tb89 2.399 1_565 S
O103 C118 1.263 . S
O104 Tb89 2.325 1_465 S
O104 C119 1.236 . S
O105 Tb88 2.322 1_565 S
O105 C119 1.257 . S
O106 Tb88 2.349 1_565 S
O106 C90 1.261 1_455 S
O107 Tb89 2.303 1_565 S
O107 C90 1.257 . S
C108 O98 1.236 . S
C108 O99 1.257 . S
O109 Tb88 2.415 . S
O109 C97 1.239 . S
O110 Tb88 2.399 . S
O110 C97 1.263 . S
C111 O100 1.261 1_455 S
C111 O101 1.257 . S
C112 C115 1.358 . S
C112 C116 1.332 . S
C112 C118 1.504 . S
C113 C114 1.373 . S
C113 C117 1.308 . S
C114 C113 1.373 . S
C114 C115 1.429 . S
C114 H124 0.932 . S
C115 C112 1.358 . S
C115 C114 1.429 . S
C115 H125 0.930 . S
C116 C112 1.332 . S
C116 C117 1.394 . S
C116 H126 0.932 . S
C117 C113 1.308 . S
C117 C116 1.394 . S
C117 H127 0.929 . S
C118 Tb89 2.764 1_565 S
C118 O102 1.239 . S
C118 O103 1.263 . S
C118 C112 1.504 . S
C119 O104 1.236 . S
C119 O105 1.257 . S
H120 C93 0.932 . S
H121 C94 0.930 . S
H122 C95 0.932 . S
H123 C96 0.929 . S
H124 C114 0.932 . S
H125 C115 0.930 . S
H126 C116 0.932 . S
H127 C117 0.929 . S
Tb128 C137 2.764 . S
Tb128 O138 2.325 . S
Tb128 O141 2.303 . S
Tb128 O145 2.322 1_545 S
Tb128 O146 2.349 . S
Tb128 O149 2.415 . S
Tb128 O150 2.399 . S
Tb129 O139 2.322 . S
Tb129 O140 2.349 . S
Tb129 O142 2.415 1_544 S
Tb129 O143 2.399 1_545 S
Tb129 O144 2.325 1_545 S
Tb129 O147 2.303 . S
Tb129 C158 2.764 1_544 S
C130 O146 1.261 1_565 S
C130 O147 1.257 1_565 S
C131 C134 1.358 . S
C131 C135 1.332 . S
C131 C137 1.504 . S
C132 C133 1.373 . S
C132 C136 1.308 . S
C133 C132 1.373 . S
C133 C134 1.429 . S
C133 H160 0.932 . S
C134 C131 1.358 . S
C134 C133 1.429 . S
C134 H161 0.930 . S
C135 C131 1.332 . S
C135 C136 1.394 . S
C135 H162 0.932 . S
C136 C132 1.308 . S
C136 C135 1.394 . S
C136 H163 0.929 . S
C137 Tb128 2.764 . S
C137 C131 1.504 . S
C137 O149 1.239 . S
C137 O150 1.263 . S
O138 Tb128 2.325 . S
O138 C148 1.236 . S
O139 Tb129 2.322 . S
O139 C148 1.257 . S
O140 Tb129 2.349 . S
O140 C151 1.261 . S
O141 Tb128 2.303 . S
O141 C151 1.257 . S
O142 Tb129 2.415 1_566 S
O142 C158 1.239 . S
O143 Tb129 2.399 1_565 S
O143 C158 1.263 1_554 S
O144 Tb129 2.325 1_565 S
O144 C159 1.236 . S
O145 Tb128 2.322 1_565 S
O145 C159 1.257 . S
O146 Tb128 2.349 . S
O146 C130 1.261 1_545 S
O147 Tb129 2.303 . S
O147 C130 1.257 1_545 S
C148 O138 1.236 . S
C148 O139 1.257 . S
O149 Tb128 2.415 . S
O149 C137 1.239 . S
O150 Tb128 2.399 . S
O150 C137 1.263 . S
C151 O140 1.261 . S
C151 O141 1.257 . S
C152 C155 1.358 . S
C152 C156 1.332 . S
C152 C158 1.504 . S
C153 C154 1.373 . S
C153 C157 1.308 . S
C154 C153 1.373 . S
C154 C155 1.429 . S
C154 H164 0.932 . S
C155 C152 1.358 . S
C155 C154 1.429 . S
C155 H165 0.930 . S
C156 C152 1.332 . S
C156 C157 1.394 . S
C156 H166 0.932 . S
C157 C153 1.308 . S
C157 C156 1.394 . S
C157 H167 0.929 . S
C158 Tb129 2.764 1_566 S
C158 O142 1.239 . S
C158 O143 1.263 1_556 S
C158 C152 1.504 . S
C159 O144 1.236 . S
C159 O145 1.257 . S
H160 C133 0.932 . S
H161 C134 0.930 . S
H162 C135 0.932 . S
H163 C136 0.929 . S
H164 C154 0.932 . S
H165 C155 0.930 . S
H166 C156 0.932 . S
H167 C157 0.929 . S
Tb168 C177 2.764 . S
Tb168 O178 2.325 . S
Tb168 O181 2.303 . S
Tb168 O185 2.322 . S
Tb168 O186 2.349 . S
Tb168 O189 2.415 . S
Tb168 O190 2.399 . S
Tb169 O179 2.322 . S
Tb169 O180 2.349 . S
Tb169 O182 2.415 . S
Tb169 O183 2.399 . S
Tb169 O184 2.325 . S
Tb169 O187 2.303 . S
Tb169 C198 2.764 . S
C170 O186 1.261 . S
C170 O187 1.257 . S
C171 C174 1.358 . S
C171 C175 1.332 . S
C171 C177 1.504 . S
C172 C173 1.373 . S
C172 C176 1.308 . S
C173 C172 1.373 . S
C173 C174 1.429 . S
C173 H200 0.932 . S
C174 C171 1.358 . S
C174 C173 1.429 . S
C174 H201 0.930 . S
C175 C171 1.332 . S
C175 C176 1.394 . S
C175 H202 0.932 . S
C176 C172 1.308 . S
C176 C175 1.394 . S
C176 H203 0.929 . S
C177 Tb168 2.764 . S
C177 C171 1.504 . S
C177 O189 1.239 . S
C177 O190 1.263 . S
O178 Tb168 2.325 . S
O178 C188 1.236 . S
O179 Tb169 2.322 . S
O179 C188 1.257 . S
O180 Tb169 2.349 . S
O180 C191 1.261 . S
O181 Tb168 2.303 . S
O181 C191 1.257 . S
O182 Tb169 2.415 . S
O182 C198 1.239 . S
O183 Tb169 2.399 . S
O183 C198 1.263 . S
O184 Tb169 2.325 . S
O184 C199 1.236 . S
O185 Tb168 2.322 . S
O185 C199 1.257 . S
O186 Tb168 2.349 . S
O186 C170 1.261 . S
O187 Tb169 2.303 . S
O187 C170 1.257 . S
C188 O178 1.236 . S
C188 O179 1.257 . S
O189 Tb168 2.415 . S
O189 C177 1.239 . S
O190 Tb168 2.399 . S
O190 C177 1.263 . S
C191 O180 1.261 . S
C191 O181 1.257 . S
C192 C195 1.358 . S
C192 C196 1.332 . S
C192 C198 1.504 . S
C193 C194 1.373 . S
C193 C197 1.308 . S
C194 C193 1.373 . S
C194 C195 1.429 . S
C194 H204 0.932 . S
C195 C192 1.358 . S
C195 C194 1.429 . S
C195 H205 0.930 . S
C196 C192 1.332 . S
C196 C197 1.394 . S
C196 H206 0.932 . S
C197 C193 1.308 . S
C197 C196 1.394 . S
C197 H207 0.929 . S
C198 Tb169 2.764 . S
C198 O182 1.239 . S
C198 O183 1.263 . S
C198 C192 1.504 . S
C199 O184 1.236 . S
C199 O185 1.257 . S
H200 C173 0.932 . S
H201 C174 0.930 . S
H202 C175 0.932 . S
H203 C176 0.929 . S
H204 C194 0.932 . S
H205 C195 0.930 . S
H206 C196 0.932 . S
H207 C197 0.929 . S
Tb208 C217 2.764 1_455 S
Tb208 O218 2.325 1_455 S
Tb208 O221 2.303 1_556 S
Tb208 O225 2.322 1_556 S
Tb208 O226 2.349 . S
Tb208 O229 2.415 1_455 S
Tb208 O230 2.399 1_455 S
Tb209 O219 2.322 1_455 S
Tb209 O220 2.349 1_455 S
Tb209 O222 2.415 . S
Tb209 O223 2.399 . S
Tb209 O224 2.325 . S
Tb209 O227 2.303 1_554 S
Tb209 C238 2.764 . S
C210 O226 1.261 . S
C210 O227 1.257 . S
C211 C214 1.358 . S
C211 C215 1.332 . S
C211 C217 1.504 . S
C212 C213 1.373 . S
C212 C216 1.308 . S
C213 C212 1.373 . S
C213 C214 1.429 . S
C213 H240 0.932 . S
C214 C211 1.358 . S
C214 C213 1.429 . S
C214 H241 0.930 . S
C215 C211 1.332 . S
C215 C216 1.394 . S
C215 H242 0.932 . S
C216 C212 1.308 . S
C216 C215 1.394 . S
C216 H243 0.929 . S
C217 Tb208 2.764 1_655 S
C217 C211 1.504 . S
C217 O229 1.239 . S
C217 O230 1.263 . S
O218 Tb208 2.325 1_655 S
O218 C228 1.236 . S
O219 Tb209 2.322 1_655 S
O219 C228 1.257 1_554 S
O220 Tb209 2.349 1_655 S
O220 C231 1.261 . S
O221 Tb208 2.303 1_554 S
O221 C231 1.257 1_455 S
O222 Tb209 2.415 . S
O222 C238 1.239 . S
O223 Tb209 2.399 . S
O223 C238 1.263 . S
O224 Tb209 2.325 . S
O224 C239 1.236 . S
O225 Tb208 2.322 1_554 S
O225 C239 1.257 . S
O226 Tb208 2.349 . S
O226 C210 1.261 . S
O227 Tb209 2.303 1_556 S
O227 C210 1.257 . S
C228 O218 1.236 . S
C228 O219 1.257 1_556 S
O229 Tb208 2.415 1_655 S
O229 C217 1.239 . S
O230 Tb208 2.399 1_655 S
O230 C217 1.263 . S
C231 O220 1.261 . S
C231 O221 1.257 1_655 S
C232 C235 1.358 . S
C232 C236 1.332 . S
C232 C238 1.504 . S
C233 C234 1.373 . S
C233 C237 1.308 . S
C234 C233 1.373 . S
C234 C235 1.429 . S
C234 H244 0.932 . S
C235 C232 1.358 . S
C235 C234 1.429 . S
C235 H245 0.930 . S
C236 C232 1.332 . S
C236 C237 1.394 . S
C236 H246 0.932 . S
C237 C233 1.308 . S
C237 C236 1.394 . S
C237 H247 0.929 . S
C238 Tb209 2.764 . S
C238 O222 1.239 . S
C238 O223 1.263 . S
C238 C232 1.504 . S
C239 O224 1.236 . S
C239 O225 1.257 . S
H240 C213 0.932 . S
H241 C214 0.930 . S
H242 C215 0.932 . S
H243 C216 0.929 . S
H244 C234 0.932 . S
H245 C235 0.930 . S
H246 C236 0.932 . S
H247 C237 0.929 . S
H248 C256 0.950 . S
H249 C261 0.950 . S
H250 C258 0.950 . S
H251 C260 0.950 . S
H252 C262 0.950 . S
H253 C264 0.950 . S
H254 C266 0.950 . S
H255 C267 0.950 . S
C256 H248 0.950 . S
C256 C257 1.386 . S
C256 C258 1.391 . S
C257 C256 1.386 . S
C257 C261 1.393 . S
C258 H250 0.950 . S
C258 C256 1.391 . S
C258 C259 1.400 . S
C259 C258 1.400 . S
C259 C260 1.398 . S
C259 C265 1.491 . S
C260 H251 0.950 . S
C260 C259 1.398 . S
C260 C261 1.391 . S
C261 H249 0.950 . S
C261 C257 1.393 . S
C261 C260 1.391 . S
C262 H252 0.950 . S
C262 C263 1.386 . S
C262 C264 1.391 . S
C263 C262 1.386 . S
C263 C267 1.393 . S
C264 H253 0.950 . S
C264 C262 1.391 . S
C264 C265 1.400 . S
C265 C259 1.491 . S
C265 C264 1.400 . S
C265 C266 1.398 . S
C266 H254 0.950 . S
C266 C265 1.398 . S
C266 C267 1.391 . S
C267 H255 0.950 . S
C267 C263 1.393 . S
C267 C266 1.391 . S
H268 C276 0.950 . S
H269 C281 0.950 . S
H270 C278 0.950 . S
H271 C280 0.950 . S
H272 C282 0.950 . S
H273 C284 0.950 . S
H274 C286 0.950 . S
H275 C287 0.950 . S
C276 H268 0.950 . S
C276 C277 1.386 . S
C276 C278 1.391 . S
C277 C276 1.386 . S
C277 C281 1.393 . S
C278 H270 0.950 . S
C278 C276 1.391 . S
C278 C279 1.400 . S
C279 C278 1.400 . S
C279 C280 1.398 . S
C279 C285 1.491 . S
C280 H271 0.950 . S
C280 C279 1.398 . S
C280 C281 1.391 . S
C281 H269 0.950 . S
C281 C277 1.393 . S
C281 C280 1.391 . S
C282 H272 0.950 . S
C282 C283 1.386 . S
C282 C284 1.391 . S
C283 C282 1.386 . S
C283 C287 1.393 . S
C284 H273 0.950 . S
C284 C282 1.391 . S
C284 C285 1.400 . S
C285 C279 1.491 . S
C285 C284 1.400 . S
C285 C286 1.398 . S
C286 H274 0.950 . S
C286 C285 1.398 . S
C286 C287 1.391 . S
C287 H275 0.950 . S
C287 C283 1.393 . S
C287 C286 1.391 . S
H288 C296 0.950 . S
H289 C301 0.950 . S
H290 C298 0.950 . S
H291 C300 0.950 . S
H292 C302 0.950 . S
H293 C304 0.950 . S
H294 C306 0.950 . S
H295 C307 0.950 . S
C296 H288 0.950 . S
C296 C297 1.386 . S
C296 C298 1.391 . S
C297 C296 1.386 . S
C297 C301 1.393 . S
C298 H290 0.950 . S
C298 C296 1.391 . S
C298 C299 1.400 . S
C299 C298 1.400 . S
C299 C300 1.398 . S
C299 C305 1.491 . S
C300 H291 0.950 . S
C300 C299 1.398 . S
C300 C301 1.391 . S
C301 H289 0.950 . S
C301 C297 1.393 . S
C301 C300 1.391 . S
C302 H292 0.950 . S
C302 C303 1.386 . S
C302 C304 1.391 . S
C303 C302 1.386 . S
C303 C307 1.393 . S
C304 H293 0.950 . S
C304 C302 1.391 . S
C304 C305 1.400 . S
C305 C299 1.491 . S
C305 C304 1.400 . S
C305 C306 1.398 . S
C306 H294 0.950 . S
C306 C305 1.398 . S
C306 C307 1.391 . S
C307 H295 0.950 . S
C307 C303 1.393 . S
C307 C306 1.391 . S
H308 C316 0.950 . S
H309 C321 0.950 . S
H310 C318 0.950 . S
H311 C320 0.950 . S
H312 C322 0.950 . S
H313 C324 0.950 . S
H314 C326 0.950 . S
H315 C327 0.950 . S
C316 H308 0.950 . S
C316 C317 1.386 . S
C316 C318 1.391 . S
C317 C316 1.386 . S
C317 C321 1.393 . S
C318 H310 0.950 . S
C318 C316 1.391 . S
C318 C319 1.400 . S
C319 C318 1.400 . S
C319 C320 1.398 . S
C319 C325 1.491 . S
C320 H311 0.950 . S
C320 C319 1.398 . S
C320 C321 1.391 . S
C321 H309 0.950 . S
C321 C317 1.393 . S
C321 C320 1.391 . S
C322 H312 0.950 . S
C322 C323 1.386 . S
C322 C324 1.391 . S
C323 C322 1.386 . S
C323 C327 1.393 . S
C324 H313 0.950 . S
C324 C322 1.391 . S
C324 C325 1.400 . S
C325 C319 1.491 . S
C325 C324 1.400 . S
C325 C326 1.398 . S
C326 H314 0.950 . S
C326 C325 1.398 . S
C326 C327 1.391 . S
C327 H315 0.950 . S
C327 C323 1.393 . S
C327 C326 1.391 . S
H328 C336 0.950 . S
H329 C341 0.950 . S
H330 C338 0.950 . S
H331 C340 0.950 . S
H332 C342 0.950 . S
H333 C344 0.950 . S
H334 C346 0.950 . S
H335 C347 0.950 . S
C336 H328 0.950 . S
C336 C337 1.386 . S
C336 C338 1.391 . S
C337 C336 1.386 . S
C337 C341 1.393 . S
C338 H330 0.950 . S
C338 C336 1.391 . S
C338 C339 1.400 . S
C339 C338 1.400 . S
C339 C340 1.398 . S
C339 C345 1.491 . S
C340 H331 0.950 . S
C340 C339 1.398 . S
C340 C341 1.391 . S
C341 H329 0.950 . S
C341 C337 1.393 . S
C341 C340 1.391 . S
C342 H332 0.950 . S
C342 C343 1.386 . S
C342 C344 1.391 . S
C343 C342 1.386 . S
C343 C347 1.393 . S
C344 H333 0.950 . S
C344 C342 1.391 . S
C344 C345 1.400 . S
C345 C339 1.491 . S
C345 C344 1.400 . S
C345 C346 1.398 . S
C346 H334 0.950 . S
C346 C345 1.398 . S
C346 C347 1.391 . S
C347 H335 0.950 . S
C347 C343 1.393 . S
C347 C346 1.391 . S
H348 C356 0.950 . S
H349 C361 0.950 . S
H350 C358 0.950 . S
H351 C360 0.950 . S
H352 C362 0.950 . S
H353 C364 0.950 . S
H354 C366 0.950 . S
H355 C367 0.950 . S
C356 H348 0.950 . S
C356 C357 1.386 . S
C356 C358 1.391 . S
C357 C356 1.386 . S
C357 C361 1.393 . S
C358 H350 0.950 . S
C358 C356 1.391 . S
C358 C359 1.400 . S
C359 C358 1.400 . S
C359 C360 1.398 . S
C359 C365 1.491 . S
C360 H351 0.950 . S
C360 C359 1.398 . S
C360 C361 1.391 . S
C361 H349 0.950 . S
C361 C357 1.393 . S
C361 C360 1.391 . S
C362 H352 0.950 . S
C362 C363 1.386 . S
C362 C364 1.391 . S
C363 C362 1.386 . S
C363 C367 1.393 . S
C364 H353 0.950 . S
C364 C362 1.391 . S
C364 C365 1.400 . S
C365 C359 1.491 . S
C365 C364 1.400 . S
C365 C366 1.398 . S
C366 H354 0.950 . S
C366 C365 1.398 . S
C366 C367 1.391 . S
C367 H355 0.950 . S
C367 C363 1.393 . S
C367 C366 1.391 . S
H368 C376 0.950 . S
H369 C381 0.950 . S
H370 C378 0.950 . S
H371 C380 0.950 . S
H372 C382 0.950 1_554 S
H373 C384 0.950 . S
H374 C386 0.950 . S
H375 C387 0.950 . S
C376 H368 0.950 . S
C376 C377 1.386 . S
C376 C378 1.391 . S
C377 C376 1.386 . S
C377 C381 1.393 . S
C378 H370 0.950 . S
C378 C376 1.391 . S
C378 C379 1.400 . S
C379 C378 1.400 . S
C379 C380 1.398 . S
C379 C385 1.491 . S
C380 H371 0.950 . S
C380 C379 1.398 . S
C380 C381 1.391 . S
C381 H369 0.950 . S
C381 C377 1.393 . S
C381 C380 1.391 . S
C382 H372 0.950 1_556 S
C382 C383 1.386 . S
C382 C384 1.391 . S
C383 C382 1.386 . S
C383 C387 1.393 . S
C384 H373 0.950 . S
C384 C382 1.391 . S
C384 C385 1.400 . S
C385 C379 1.491 . S
C385 C384 1.400 . S
C385 C386 1.398 . S
C386 H374 0.950 . S
C386 C385 1.398 . S
C386 C387 1.391 . S
C387 H375 0.950 . S
C387 C383 1.393 . S
C387 C386 1.391 . S
H388 C396 0.950 . S
H389 C401 0.950 . S
H390 C398 0.950 . S
H391 C400 0.950 . S
H392 C402 0.950 . S
H393 C404 0.950 . S
H394 C406 0.950 . S
H395 C407 0.950 . S
C396 H388 0.950 . S
C396 C397 1.386 . S
C396 C398 1.391 . S
C397 C396 1.386 . S
C397 C401 1.393 . S
C398 H390 0.950 . S
C398 C396 1.391 . S
C398 C399 1.400 . S
C399 C398 1.400 . S
C399 C400 1.398 . S
C399 C405 1.491 . S
C400 H391 0.950 . S
C400 C399 1.398 . S
C400 C401 1.391 . S
C401 H389 0.950 . S
C401 C397 1.393 . S
C401 C400 1.391 . S
C402 H392 0.950 . S
C402 C403 1.386 . S
C402 C404 1.391 . S
C403 C402 1.386 . S
C403 C407 1.393 . S
C404 H393 0.950 . S
C404 C402 1.391 . S
C404 C405 1.400 . S
C405 C399 1.491 . S
C405 C404 1.400 . S
C405 C406 1.398 . S
C406 H394 0.950 . S
C406 C405 1.398 . S
C406 C407 1.391 . S
C407 H395 0.950 . S
C407 C403 1.393 . S
C407 C406 1.391 . S
H408 C416 0.950 . S
H409 C421 0.950 . S
H410 C418 0.950 . S
H411 C420 0.950 . S
H412 C422 0.950 . S
H413 C424 0.950 . S
H414 C426 0.950 . S
H415 C427 0.950 . S
C416 H408 0.950 . S
C416 C417 1.386 . S
C416 C418 1.391 . S
C417 C416 1.386 . S
C417 C421 1.393 . S
C418 H410 0.950 . S
C418 C416 1.391 . S
C418 C419 1.400 . S
C419 C418 1.400 . S
C419 C420 1.398 . S
C419 C425 1.491 . S
C420 H411 0.950 . S
C420 C419 1.398 . S
C420 C421 1.391 . S
C421 H409 0.950 . S
C421 C417 1.393 . S
C421 C420 1.391 . S
C422 H412 0.950 . S
C422 C423 1.386 . S
C422 C424 1.391 . S
C423 C422 1.386 . S
C423 C427 1.393 . S
C424 H413 0.950 . S
C424 C422 1.391 . S
C424 C425 1.400 . S
C425 C419 1.491 . S
C425 C424 1.400 . S
C425 C426 1.398 . S
C426 H414 0.950 . S
C426 C425 1.398 . S
C426 C427 1.391 . S
C427 H415 0.950 . S
C427 C423 1.393 . S
C427 C426 1.391 . S
H428 C436 0.950 . S
H429 C441 0.950 . S
H430 C438 0.950 . S
H431 C440 0.950 . S
H432 C442 0.950 . S
H433 C444 0.950 . S
H434 C446 0.950 . S
H435 C447 0.950 . S
C436 H428 0.950 . S
C436 C437 1.386 . S
C436 C438 1.391 . S
C437 C436 1.386 . S
C437 C441 1.393 . S
C438 H430 0.950 . S
C438 C436 1.391 . S
C438 C439 1.400 . S
C439 C438 1.400 . S
C439 C440 1.398 . S
C439 C445 1.491 . S
C440 H431 0.950 . S
C440 C439 1.398 . S
C440 C441 1.391 . S
C441 H429 0.950 . S
C441 C437 1.393 . S
C441 C440 1.391 . S
C442 H432 0.950 . S
C442 C443 1.386 . S
C442 C444 1.391 . S
C443 C442 1.386 . S
C443 C447 1.393 1_554 S
C444 H433 0.950 . S
C444 C442 1.391 . S
C444 C445 1.400 1_554 S
C445 C439 1.491 . S
C445 C444 1.400 1_556 S
C445 C446 1.398 . S
C446 H434 0.950 . S
C446 C445 1.398 . S
C446 C447 1.391 . S
C447 H435 0.950 . S
C447 C443 1.393 1_556 S
C447 C446 1.391 . S
H448 C456 0.950 . S
H449 C461 0.950 . S
H450 C458 0.950 . S
H451 C460 0.950 . S
H452 C462 0.950 . S
H453 C464 0.950 . S
H454 C466 0.950 . S
H455 C467 0.950 . S
C456 H448 0.950 . S
C456 C457 1.386 . S
C456 C458 1.391 . S
C457 C456 1.386 . S
C457 C461 1.393 . S
C458 H450 0.950 . S
C458 C456 1.391 . S
C458 C459 1.400 . S
C459 C458 1.400 . S
C459 C460 1.398 . S
C459 C465 1.491 . S
C460 H451 0.950 . S
C460 C459 1.398 . S
C460 C461 1.391 . S
C461 H449 0.950 . S
C461 C457 1.393 . S
C461 C460 1.391 . S
C462 H452 0.950 . S
C462 C463 1.386 . S
C462 C464 1.391 . S
C463 C462 1.386 . S
C463 C467 1.393 . S
C464 H453 0.950 . S
C464 C462 1.391 . S
C464 C465 1.400 . S
C465 C459 1.491 . S
C465 C464 1.400 . S
C465 C466 1.398 . S
C466 H454 0.950 . S
C466 C465 1.398 . S
C466 C467 1.391 . S
C467 H455 0.950 . S
C467 C463 1.393 . S
C467 C466 1.391 . S
H468 C476 0.950 . S
H469 C481 0.950 . S
H470 C478 0.950 . S
H471 C480 0.950 . S
H472 C482 0.950 . S
H473 C484 0.950 . S
H474 C486 0.950 . S
H475 C487 0.950 . S
C476 H468 0.950 . S
C476 C477 1.386 . S
C476 C478 1.391 . S
C477 C476 1.386 . S
C477 C481 1.393 . S
C478 H470 0.950 . S
C478 C476 1.391 . S
C478 C479 1.400 . S
C479 C478 1.400 . S
C479 C480 1.398 . S
C479 C485 1.491 . S
C480 H471 0.950 . S
C480 C479 1.398 . S
C480 C481 1.391 . S
C481 H469 0.950 . S
C481 C477 1.393 . S
C481 C480 1.391 . S
C482 H472 0.950 . S
C482 C483 1.386 . S
C482 C484 1.391 . S
C483 C482 1.386 . S
C483 C487 1.393 . S
C484 H473 0.950 . S
C484 C482 1.391 . S
C484 C485 1.400 . S
C485 C479 1.491 . S
C485 C484 1.400 . S
C485 C486 1.398 . S
C486 H474 0.950 . S
C486 C485 1.398 . S
C486 C487 1.391 . S
C487 H475 0.950 . S
C487 C483 1.393 . S
C487 C486 1.391 . S
H488 C496 0.950 . S
H489 C501 0.950 . S
H490 C498 0.950 . S
H491 C500 0.950 . S
H492 C502 0.950 . S
H493 C504 0.950 . S
H494 C506 0.950 . S
H495 C507 0.950 . S
C496 H488 0.950 . S
C496 C497 1.386 . S
C496 C498 1.391 . S
C497 C496 1.386 . S
C497 C501 1.393 . S
C498 H490 0.950 . S
C498 C496 1.391 . S
C498 C499 1.400 . S
C499 C498 1.400 . S
C499 C500 1.398 . S
C499 C505 1.491 . S
C500 H491 0.950 . S
C500 C499 1.398 . S
C500 C501 1.391 . S
C501 H489 0.950 . S
C501 C497 1.393 . S
C501 C500 1.391 . S
C502 H492 0.950 . S
C502 C503 1.386 . S
C502 C504 1.391 . S
C503 C502 1.386 . S
C503 C507 1.393 . S
C504 H493 0.950 . S
C504 C502 1.391 . S
C504 C505 1.400 . S
C505 C499 1.491 . S
C505 C504 1.400 . S
C505 C506 1.398 . S
C506 H494 0.950 . S
C506 C505 1.398 . S
C506 C507 1.391 . S
C507 H495 0.950 . S
C507 C503 1.393 . S
C507 C506 1.391 . S
H508 C516 0.950 . S
H509 C521 0.950 . S
H510 C518 0.950 . S
H511 C520 0.950 . S
H512 C522 0.950 . S
H513 C524 0.950 . S
H514 C526 0.950 . S
H515 C527 0.950 . S
C516 H508 0.950 . S
C516 C517 1.386 . S
C516 C518 1.391 . S
C517 C516 1.386 . S
C517 C521 1.393 . S
C518 H510 0.950 . S
C518 C516 1.391 . S
C518 C519 1.400 . S
C519 C518 1.400 . S
C519 C520 1.398 . S
C519 C525 1.491 . S
C520 H511 0.950 . S
C520 C519 1.398 . S
C520 C521 1.391 . S
C521 H509 0.950 . S
C521 C517 1.393 . S
C521 C520 1.391 . S
C522 H512 0.950 . S
C522 C523 1.386 . S
C522 C524 1.391 . S
C523 C522 1.386 . S
C523 C527 1.393 . S
C524 H513 0.950 . S
C524 C522 1.391 . S
C524 C525 1.400 . S
C525 C519 1.491 . S
C525 C524 1.400 . S
C525 C526 1.398 . S
C526 H514 0.950 . S
C526 C525 1.398 . S
C526 C527 1.391 . S
C527 H515 0.950 . S
C527 C523 1.393 . S
C527 C526 1.391 . S
H528 C536 0.950 . S
H529 C541 0.950 . S
H530 C538 0.950 . S
H531 C540 0.950 . S
H532 C542 0.950 . S
H533 C544 0.950 . S
H534 C546 0.950 . S
H535 C547 0.950 . S
C536 H528 0.950 . S
C536 C537 1.386 . S
C536 C538 1.391 . S
C537 C536 1.386 . S
C537 C541 1.393 . S
C538 H530 0.950 . S
C538 C536 1.391 . S
C538 C539 1.400 . S
C539 C538 1.400 . S
C539 C540 1.398 . S
C539 C545 1.491 . S
C540 H531 0.950 . S
C540 C539 1.398 . S
C540 C541 1.391 . S
C541 H529 0.950 . S
C541 C537 1.393 . S
C541 C540 1.391 . S
C542 H532 0.950 . S
C542 C543 1.386 . S
C542 C544 1.391 . S
C543 C542 1.386 . S
C543 C547 1.393 . S
C544 H533 0.950 . S
C544 C542 1.391 . S
C544 C545 1.400 . S
C545 C539 1.491 . S
C545 C544 1.400 . S
C545 C546 1.398 . S
C546 H534 0.950 . S
C546 C545 1.398 . S
C546 C547 1.391 . S
C547 H535 0.950 . S
C547 C543 1.393 . S
C547 C546 1.391 . S
H548 C556 0.950 . S
H549 C561 0.950 . S
H550 C558 0.950 . S
H551 C560 0.950 . S
H552 C562 0.950 . S
H553 C564 0.950 . S
H554 C566 0.950 . S
H555 C567 0.950 . S
C556 H548 0.950 . S
C556 C557 1.386 . S
C556 C558 1.391 . S
C557 C556 1.386 . S
C557 C561 1.393 . S
C558 H550 0.950 . S
C558 C556 1.391 . S
C558 C559 1.400 . S
C559 C558 1.400 . S
C559 C560 1.398 . S
C559 C565 1.491 . S
C560 H551 0.950 . S
C560 C559 1.398 . S
C560 C561 1.391 . S
C561 H549 0.950 . S
C561 C557 1.393 . S
C561 C560 1.391 . S
C562 H552 0.950 . S
C562 C563 1.386 . S
C562 C564 1.391 . S
C563 C562 1.386 . S
C563 C567 1.393 . S
C564 H553 0.950 . S
C564 C562 1.391 . S
C564 C565 1.400 . S
C565 C559 1.491 . S
C565 C564 1.400 . S
C565 C566 1.398 . S
C566 H554 0.950 . S
C566 C565 1.398 . S
C566 C567 1.391 . S
C567 H555 0.950 . S
C567 C563 1.393 . S
C567 C566 1.391 . S
H568 C576 0.950 . S
H569 C581 0.950 . S
H570 C578 0.950 . S
H571 C580 0.950 . S
H572 C582 0.950 . S
H573 C584 0.950 . S
H574 C586 0.950 . S
H575 C587 0.950 . S
C576 H568 0.950 . S
C576 C577 1.386 . S
C576 C578 1.391 . S
C577 C576 1.386 . S
C577 C581 1.393 . S
C578 H570 0.950 . S
C578 C576 1.391 . S
C578 C579 1.400 . S
C579 C578 1.400 . S
C579 C580 1.398 . S
C579 C585 1.491 . S
C580 H571 0.950 . S
C580 C579 1.398 . S
C580 C581 1.391 . S
C581 H569 0.950 . S
C581 C577 1.393 . S
C581 C580 1.391 . S
C582 H572 0.950 . S
C582 C583 1.386 . S
C582 C584 1.391 . S
C583 C582 1.386 . S
C583 C587 1.393 1_554 S
C584 H573 0.950 . S
C584 C582 1.391 . S
C584 C585 1.400 1_554 S
C585 C579 1.491 . S
C585 C584 1.400 1_556 S
C585 C586 1.398 . S
C586 H574 0.950 . S
C586 C585 1.398 . S
C586 C587 1.391 . S
C587 H575 0.950 . S
C587 C583 1.393 1_556 S
C587 C586 1.391 . S
H588 C596 0.950 . S
H589 C601 0.950 . S
H590 C598 0.950 . S
H591 C600 0.950 . S
H592 C602 0.950 . S
H593 C604 0.950 . S
H594 C606 0.950 . S
H595 C607 0.950 . S
C596 H588 0.950 . S
C596 C597 1.386 . S
C596 C598 1.391 . S
C597 C596 1.386 . S
C597 C601 1.393 . S
C598 H590 0.950 . S
C598 C596 1.391 . S
C598 C599 1.400 . S
C599 C598 1.400 . S
C599 C600 1.398 . S
C599 C605 1.491 . S
C600 H591 0.950 . S
C600 C599 1.398 . S
C600 C601 1.391 . S
C601 H589 0.950 . S
C601 C597 1.393 . S
C601 C600 1.391 . S
C602 H592 0.950 . S
C602 C603 1.386 . S
C602 C604 1.391 . S
C603 C602 1.386 . S
C603 C607 1.393 . S
C604 H593 0.950 . S
C604 C602 1.391 . S
C604 C605 1.400 . S
C605 C599 1.491 . S
C605 C604 1.400 . S
C605 C606 1.398 . S
C606 H594 0.950 . S
C606 C605 1.398 . S
C606 C607 1.391 . S
C607 H595 0.950 . S
C607 C603 1.393 . S
C607 C606 1.391 . S
H608 C616 0.950 . S
H609 C621 0.950 . S
H610 C618 0.950 . S
H611 C620 0.950 . S
H612 C622 0.950 . S
H613 C624 0.950 . S
H614 C626 0.950 . S
H615 C627 0.950 . S
C616 H608 0.950 . S
C616 C617 1.386 . S
C616 C618 1.391 . S
C617 C616 1.386 . S
C617 C621 1.393 . S
C618 H610 0.950 . S
C618 C616 1.391 . S
C618 C619 1.400 . S
C619 C618 1.400 . S
C619 C620 1.398 . S
C619 C625 1.491 . S
C620 H611 0.950 . S
C620 C619 1.398 . S
C620 C621 1.391 . S
C621 H609 0.950 . S
C621 C617 1.393 . S
C621 C620 1.391 . S
C622 H612 0.950 . S
C622 C623 1.386 . S
C622 C624 1.391 . S
C623 C622 1.386 . S
C623 C627 1.393 . S
C624 H613 0.950 . S
C624 C622 1.391 . S
C624 C625 1.400 . S
C625 C619 1.491 . S
C625 C624 1.400 . S
C625 C626 1.398 . S
C626 H614 0.950 . S
C626 C625 1.398 . S
C626 C627 1.391 . S
C627 H615 0.950 . S
C627 C623 1.393 . S
C627 C626 1.391 . S
H628 C636 0.950 . S
H629 C641 0.950 . S
H630 C638 0.950 . S
H631 C640 0.950 . S
H632 C642 0.950 . S
H633 C644 0.950 . S
H634 C646 0.950 . S
H635 C647 0.950 . S
C636 H628 0.950 . S
C636 C637 1.386 . S
C636 C638 1.391 . S
C637 C636 1.386 . S
C637 C641 1.393 . S
C638 H630 0.950 . S
C638 C636 1.391 . S
C638 C639 1.400 . S
C639 C638 1.400 . S
C639 C640 1.398 . S
C639 C645 1.491 . S
C640 H631 0.950 . S
C640 C639 1.398 . S
C640 C641 1.391 . S
C641 H629 0.950 . S
C641 C637 1.393 . S
C641 C640 1.391 . S
C642 H632 0.950 . S
C642 C643 1.386 . S
C642 C644 1.391 . S
C643 C642 1.386 . S
C643 C647 1.393 . S
C644 H633 0.950 . S
C644 C642 1.391 . S
C644 C645 1.400 . S
C645 C639 1.491 . S
C645 C644 1.400 . S
C645 C646 1.398 . S
C646 H634 0.950 . S
C646 C645 1.398 . S
C646 C647 1.391 . S
C647 H635 0.950 . S
C647 C643 1.393 . S
C647 C646 1.391 . S
H648 C656 0.950 . S
H649 C661 0.950 . S
H650 C658 0.950 . S
H651 C660 0.950 . S
H652 C662 0.950 . S
H653 C664 0.950 . S
H654 C666 0.950 . S
H655 C667 0.950 . S
C656 H648 0.950 . S
C656 C657 1.386 . S
C656 C658 1.391 . S
C657 C656 1.386 . S
C657 C661 1.393 . S
C658 H650 0.950 . S
C658 C656 1.391 . S
C658 C659 1.400 . S
C659 C658 1.400 . S
C659 C660 1.398 . S
C659 C665 1.491 . S
C660 H651 0.950 . S
C660 C659 1.398 . S
C660 C661 1.391 . S
C661 H649 0.950 . S
C661 C657 1.393 . S
C661 C660 1.391 . S
C662 H652 0.950 . S
C662 C663 1.386 . S
C662 C664 1.391 . S
C663 C662 1.386 . S
C663 C667 1.393 . S
C664 H653 0.950 . S
C664 C662 1.391 . S
C664 C665 1.400 . S
C665 C659 1.491 . S
C665 C664 1.400 . S
C665 C666 1.398 . S
C666 H654 0.950 . S
C666 C665 1.398 . S
C666 C667 1.391 . S
C667 H655 0.950 . S
C667 C663 1.393 . S
C667 C666 1.391 . S
H668 C676 0.950 . S
H669 C681 0.950 . S
H670 C678 0.950 . S
H671 C680 0.950 . S
H672 C682 0.950 . S
H673 C684 0.950 . S
H674 C686 0.950 . S
H675 C687 0.950 . S
C676 H668 0.950 . S
C676 C677 1.386 . S
C676 C678 1.391 . S
C677 C676 1.386 . S
C677 C681 1.393 . S
C678 H670 0.950 . S
C678 C676 1.391 . S
C678 C679 1.400 . S
C679 C678 1.400 . S
C679 C680 1.398 . S
C679 C685 1.491 . S
C680 H671 0.950 . S
C680 C679 1.398 . S
C680 C681 1.391 . S
C681 H669 0.950 . S
C681 C677 1.393 . S
C681 C680 1.391 . S
C682 H672 0.950 . S
C682 C683 1.386 . S
C682 C684 1.391 . S
C683 C682 1.386 . S
C683 C687 1.393 . S
C684 H673 0.950 . S
C684 C682 1.391 . S
C684 C685 1.400 . S
C685 C679 1.491 . S
C685 C684 1.400 . S
C685 C686 1.398 . S
C686 H674 0.950 . S
C686 C685 1.398 . S
C686 C687 1.391 . S
C687 H675 0.950 . S
C687 C683 1.393 . S
C687 C686 1.391 . S
H688 C696 0.950 . S
H689 C701 0.950 . S
H690 C698 0.950 . S
H691 C700 0.950 . S
H692 C702 0.950 . S
H693 C704 0.950 . S
H694 C706 0.950 . S
H695 C707 0.950 . S
C696 H688 0.950 . S
C696 C697 1.386 . S
C696 C698 1.391 . S
C697 C696 1.386 . S
C697 C701 1.393 . S
C698 H690 0.950 . S
C698 C696 1.391 . S
C698 C699 1.400 . S
C699 C698 1.400 . S
C699 C700 1.398 . S
C699 C705 1.491 . S
C700 H691 0.950 . S
C700 C699 1.398 . S
C700 C701 1.391 . S
C701 H689 0.950 . S
C701 C697 1.393 . S
C701 C700 1.391 . S
C702 H692 0.950 . S
C702 C703 1.386 . S
C702 C704 1.391 . S
C703 C702 1.386 . S
C703 C707 1.393 . S
C704 H693 0.950 . S
C704 C702 1.391 . S
C704 C705 1.400 . S
C705 C699 1.491 . S
C705 C704 1.400 . S
C705 C706 1.398 . S
C706 H694 0.950 . S
C706 C705 1.398 . S
C706 C707 1.391 . S
C707 H695 0.950 . S
C707 C703 1.393 . S
C707 C706 1.391 . S
H708 C716 0.950 . S
H709 C721 0.950 . S
H710 C718 0.950 . S
H711 C720 0.950 . S
H712 C722 0.950 . S
H713 C724 0.950 . S
H714 C726 0.950 . S
H715 C727 0.950 . S
C716 H708 0.950 . S
C716 C717 1.386 . S
C716 C718 1.391 . S
C717 C716 1.386 . S
C717 C721 1.393 . S
C718 H710 0.950 . S
C718 C716 1.391 . S
C718 C719 1.400 . S
C719 C718 1.400 . S
C719 C720 1.398 . S
C719 C725 1.491 . S
C720 H711 0.950 . S
C720 C719 1.398 . S
C720 C721 1.391 . S
C721 H709 0.950 . S
C721 C717 1.393 . S
C721 C720 1.391 . S
C722 H712 0.950 . S
C722 C723 1.386 . S
C722 C724 1.391 . S
C723 C722 1.386 . S
C723 C727 1.393 . S
C724 H713 0.950 . S
C724 C722 1.391 . S
C724 C725 1.400 . S
C725 C719 1.491 . S
C725 C724 1.400 . S
C725 C726 1.398 . S
C726 H714 0.950 . S
C726 C725 1.398 . S
C726 C727 1.391 . S
C727 H715 0.950 . S
C727 C723 1.393 . S
C727 C726 1.391 . S
C257 C5 0.892 . S
C263 C92 0.989 . S
C277 C18 1.132 . S
C283 C153 1.173 . S
C303 C191 2.354 . S
C297 C30 2.382 . S
C317 C41 2.087 . S
C323 C231 2.045 . S
C343 C151 1.382 . S
C337 C7 1.289 . S
C363 C119 2.093 . S
C357 C16 2.042 . S
C383 C228 1.802 . S
C377 C29 1.736 . S
C403 C188 1.478 . S
C397 C38 1.325 . S
C417 C8 1.047 . S
C423 C233 1.084 . S
C443 C148 2.570 . S
C437 C27 2.283 . S
C457 C40 2.251 . S
C463 C90 2.233 . S
C477 C19 1.285 . S
C483 C193 1.289 . S
C503 C113 0.968 . S
C497 C51 0.872 . S
C517 C62 1.414 . S
C523 C132 1.408 . S
C537 C74 2.467 . S
C543 C170 2.447 . S
C557 C84 2.036 . S
C563 C210 2.113 . S
C577 C49 1.330 . S
C583 C130 1.663 . S
C603 C108 2.081 . S
C597 C63 2.054 . S
C623 C239 1.632 . S
C617 C71 1.399 . S
C643 C199 1.603 . S
C637 C85 1.607 . S
C657 C52 1.128 . S
C663 C212 1.158 . S
C683 C159 2.712 . S
C677 C73 2.628 . S
C703 C111 1.830 . S
C697 C82 1.592 . S
C717 C60 1.310 . S
C723 C172 1.402 . S
