# Generated by pormake.
# Topology pth, (4,4)-cn, num edge types: 1
# Building blocks:
#     Node 0, Type 0, BuildingBlock: TATPOV_clean_sbu_0, # of connection points: 4
#     Node 1, Type 0, BuildingBlock: TATPOV_clean_sbu_0, # of connection points: 4
#     Node 2, Type 0, BuildingBlock: TATPOV_clean_sbu_0, # of connection points: 4
#     Node 3, Type 1, BuildingBlock: MUDLON_clean_sbu_0, # of connection points: 4
#     Node 4, Type 1, BuildingBlock: MUDLON_clean_sbu_0, # of connection points: 4
#     Node 5, Type 1, BuildingBlock: MUDLON_clean_sbu_0, # of connection points: 4
#     Edge 6, Type (0, 1), BuildingBlock: MIFKUJ_clean_linker_0, # of connection points: 2
#     Edge 7, Type (0, 1), BuildingBlock: MIFKUJ_clean_linker_0, # of connection points: 2
#     Edge 8, Type (0, 1), BuildingBlock: MIFKUJ_clean_linker_0, # of connection points: 2
#     Edge 9, Type (0, 1), BuildingBlock: MIFKUJ_clean_linker_0, # of connection points: 2
#     Edge 10, Type (0, 1), BuildingBlock: MIFKUJ_clean_linker_0, # of connection points: 2
#     Edge 11, Type (0, 1), BuildingBlock: MIFKUJ_clean_linker_0, # of connection points: 2
#     Edge 12, Type (0, 1), BuildingBlock: MIFKUJ_clean_linker_0, # of connection points: 2
#     Edge 13, Type (0, 1), BuildingBlock: MIFKUJ_clean_linker_0, # of connection points: 2
#     Edge 14, Type (0, 1), BuildingBlock: MIFKUJ_clean_linker_0, # of connection points: 2
#     Edge 15, Type (0, 1), BuildingBlock: MIFKUJ_clean_linker_0, # of connection points: 2
#     Edge 16, Type (0, 1), BuildingBlock: MIFKUJ_clean_linker_0, # of connection points: 2
#     Edge 17, Type (0, 1), BuildingBlock: MIFKUJ_clean_linker_0, # of connection points: 2
# Relax obj value: 0.071
# Max RMSD: 0.185
# Mean RMSD: 0.119
data_MOF--net-pth--node1-TATPOV_clean_sbu_0--node2-MUDLON_clean_sbu_0--edge1-MIFKUJ_clean_linker_0
_symmetry_space_group_name_H-M    P1
_symmetry_Int_Tables_number       1
_symmetry_cell_setting            triclinic
loop_
_symmetry_equiv_pos_as_xyz
'x, y, z'
_cell_length_a     29.696752
_cell_length_b     29.367482
_cell_length_c     76.860727
_cell_angle_alpha  92.379911
_cell_angle_beta   92.13442
_cell_angle_gamma 121.1202
loop_
_atom_site_label
_atom_site_type_symbol
_atom_site_fract_x
_atom_site_fract_y
_atom_site_fract_z
_atom_type_partial_charge
Zn0 Zn 0.17921 0.06357 0.08737 0.0
Zn1 Zn 0.11639 0.09279 0.10084 0.0
O2 O 0.13879 0.06161 0.12107 0.0
O3 O 0.19365 0.04071 0.11013 0.0
O4 O 0.07868 0.12507 0.11317 0.0
O5 O 0.22878 0.13597 0.07921 0.0
O6 O 0.17292 0.15809 0.08836 0.0
C7 C 0.16884 0.04273 0.12288 0.0
C8 C 0.07037 0.00474 0.07188 0.0
O9 O 0.06248 0.03324 0.0829 0.0
O10 O 0.11578 0.01078 0.07135 0.0
C11 C 0.05369 0.10741 0.1268 0.0
O12 O 0.04816 0.06359 0.13271 0.0
C13 C 0.21451 0.16968 0.08063 0.0
Zn14 Zn 0.13212 0.09286 0.40736 0.0
Zn15 Zn 0.05366 0.07545 0.42703 0.0
O16 O 0.10809 0.07222 0.44386 0.0
O17 O 0.17221 0.08451 0.42754 0.0
O18 O 1.00034 0.07173 0.44365 0.0
O19 O 0.14588 0.16454 0.40116 0.0
O20 O 0.07589 0.1461 0.41521 0.0
C21 C 0.15218 0.07535 0.44219 0.0
C22 C 0.03121 0.99751 0.396 0.0
O23 O 0.01454 0.00841 0.4097 0.0
O24 O 0.0783 0.02795 0.3921 0.0
C25 C 0.96024 0.07419 0.43882 0.0
O26 O 0.95071 0.07638 0.42214 0.0
C27 C 0.11266 0.17665 0.40571 0.0
Zn28 Zn 0.08807 0.95542 0.77641 0.0
Zn29 Zn 0.04918 0.00291 0.75784 0.0
O30 O 0.09283 0.98686 0.74099 0.0
O31 O 0.12453 0.94626 0.75596 0.0
O32 O 0.00974 0.02381 0.74097 0.0
O33 O 0.01736 0.89793 0.78371 0.0
O34 O 0.98772 0.94324 0.7706 0.0
C35 C 0.12112 0.96587 0.74196 0.0
C36 C 0.12763 0.06769 0.78783 0.0
O37 O 0.09989 0.06758 0.7747 0.0
O38 O 0.12713 0.02554 0.79124 0.0
C39 C 0.96759 0.02256 0.7445 0.0
O40 O 0.9518 0.01339 0.7604 0.0
C41 C 0.97983 0.9053 0.78 0.0
Mg42 Mg 0.03097 0.56264 0.26436 0.0
C43 C 0.04544 0.52635 0.29873 0.0
O44 O 1.00072 0.5248 0.30005 0.0
C45 C 0.08014 0.6361 0.23554 0.0
O46 O 0.05322 0.58981 0.22652 0.0
C47 C 0.9902 0.45083 0.24763 0.0
O48 O 0.99377 0.44107 0.26399 0.0
O49 O 0.99964 0.49687 0.24418 0.0
O50 O 0.07016 0.54347 0.28502 0.0
O51 O 0.97329 0.57555 0.27694 0.0
C52 C 0.96694 0.61351 0.27286 0.0
O53 O 0.98897 0.63919 0.25909 0.0
O54 O 0.08171 0.63706 0.25213 0.0
Mg55 Mg 0.54893 0.03758 0.59214 0.0
C56 C 0.43588 0.98416 0.57732 0.0
O57 O 0.42911 0.99363 0.59357 0.0
C58 C 0.61505 0.99268 0.60483 0.0
O59 O 0.63659 0.00999 0.59004 0.0
C60 C 0.52656 0.07228 0.6266 0.0
O61 O 0.55475 0.05241 0.63218 0.0
O62 O 0.52339 0.07782 0.61034 0.0
O63 O 0.48068 0.99218 0.57353 0.0
O64 O 0.61597 0.08594 0.57658 0.0
C65 C 0.60832 0.08465 0.5601 0.0
O66 O 0.55971 0.0621 0.55326 0.0
O67 O 0.57375 0.99347 0.6081 0.0
Mg68 Mg 0.55888 0.57865 0.92588 0.0
C69 C 0.54312 0.50921 0.89341 0.0
O70 O 0.56984 0.55617 0.88705 0.0
C71 C 0.67555 0.63019 0.94192 0.0
O72 O 0.68934 0.62621 0.92614 0.0
C73 C 0.49705 0.51531 0.95228 0.0
O74 O 0.53299 0.50351 0.94876 0.0
O75 O 0.49499 0.55015 0.94349 0.0
O76 O 0.53848 0.5069 0.90979 0.0
O77 O 0.57192 0.63778 0.90718 0.0
C78 C 0.61372 0.68372 0.90872 0.0
O79 O 0.64191 0.69982 0.92371 0.0
O80 O 0.62731 0.61209 0.94441 0.0
H81 H 0.00684 0.08538 0.15784 0.0
H82 H 0.98576 0.14129 0.17591 0.0
H83 H 0.03925 0.25678 0.13698 0.0
H84 H 0.06145 0.20143 0.11894 0.0
H85 H 0.08037 0.30515 0.16796 0.0
H86 H 0.90656 0.1774 0.14452 0.0
H87 H 0.82886 0.08807 0.13669 0.0
H88 H 0.81418 0.05547 0.1908 0.0
H89 H 0.89229 0.14437 0.19895 0.0
H90 H 1.00049 0.46501 0.21263 0.0
H91 H 1.00074 0.40416 0.18994 0.0
H92 H 0.96561 0.28733 0.22761 0.0
H93 H 0.96518 0.34781 0.25037 0.0
H94 H 0.91107 0.24136 0.1954 0.0
H95 H 0.08967 0.36678 0.21809 0.0
H96 H 0.167 0.45656 0.22572 0.0
H97 H 0.17126 0.49357 0.17212 0.0
H98 H 0.09343 0.40419 0.16422 0.0
C99 C 0.01356 0.12235 0.15299 0.0
C100 C 0.03597 0.13888 0.13693 0.0
C101 C 1.00121 0.15425 0.16333 0.0
C102 C 0.01044 0.20319 0.15778 0.0
C103 C 0.03173 0.21923 0.14156 0.0
C104 C 0.04425 0.18741 0.13123 0.0
C105 C 1.00101 0.23899 0.16938 0.0
C106 C 0.04294 0.29139 0.17365 0.0
C107 C 0.95258 0.22096 0.17717 0.0
C108 C 0.9056 0.16742 0.17233 0.0
C109 C 0.88704 0.15103 0.15475 0.0
C110 C 0.84286 0.10049 0.15025 0.0
C111 C 0.81667 0.06607 0.16323 0.0
C112 C 0.83454 0.08216 0.18075 0.0
C113 C 0.87873 0.13265 0.18532 0.0
C114 C 0.99196 0.42605 0.21605 0.0
C115 C 0.98322 0.4115 0.23337 0.0
C116 C 0.99233 0.39138 0.20307 0.0
C117 C 0.98388 0.34145 0.20712 0.0
C118 C 0.97234 0.32568 0.22418 0.0
C119 C 0.97226 0.36042 0.23719 0.0
C120 C 0.99044 0.3071 0.19394 0.0
C121 C 0.94815 0.25507 0.18947 0.0
C122 C 0.03845 0.32545 0.18589 0.0
C123 C 0.08539 0.37905 0.1906 0.0
C124 C 0.10684 0.39422 0.20796 0.0
C125 C 0.1508 0.445 0.21233 0.0
C126 C 0.17393 0.48081 0.19942 0.0
C127 C 0.15324 0.46584 0.18211 0.0
C128 C 0.10923 0.41512 0.17768 0.0
H129 H 0.20797 0.52011 0.20283 0.0
H130 H 0.78247 0.02696 0.15973 0.0
H131 H 0.97869 0.08945 0.4744 0.0
H132 H 0.92488 0.09923 0.4958 0.0
H133 H 0.81116 0.07606 0.45445 0.0
H134 H 0.86565 0.06793 0.43293 0.0
H135 H 0.82718 0.15439 0.47629 0.0
H136 H 0.79113 0.97633 0.48275 0.0
H137 H 0.81367 0.90786 0.48786 0.0
H138 H 0.88694 0.98503 0.53828 0.0
H139 H 0.8654 0.05436 0.53339 0.0
H140 H 0.60399 0.08431 0.52455 0.0
H141 H 0.66996 0.09135 0.50512 0.0
H142 H 0.77702 0.1213 0.54958 0.0
H143 H 0.71052 0.11327 0.56921 0.0
H144 H 0.77015 0.04532 0.52756 0.0
H145 H 0.79957 0.21994 0.5217 0.0
H146 H 0.77498 0.28682 0.51645 0.0
H147 H 0.71215 0.21473 0.46472 0.0
H148 H 0.73572 0.14695 0.46974 0.0
C149 C 0.94208 0.08614 0.46986 0.0
C150 C 0.92641 0.07767 0.45193 0.0
C151 C 0.91121 0.0916 0.48214 0.0
C152 C 0.86347 0.08775 0.47682 0.0
C153 C 0.84778 0.07925 0.45892 0.0
C154 C 0.8789 0.07436 0.44662 0.0
C155 C 0.83008 0.09307 0.48983 0.0
C156 C 0.81425 0.13008 0.48739 0.0
C157 C 0.81432 0.06258 0.50464 0.0
C158 C 0.82714 0.02083 0.50762 0.0
C159 C 0.81239 0.97891 0.49487 0.0
C160 C 0.82492 0.93991 0.49774 0.0
C161 C 0.85186 0.94218 0.51336 0.0
C162 C 0.86616 0.98337 0.52618 0.0
C163 C 0.85376 0.0225 0.52337 0.0
C164 C 0.64189 0.09337 0.53025 0.0
C165 C 0.65182 0.09813 0.54848 0.0
C166 C 0.67976 0.09757 0.51907 0.0
C167 C 0.72872 0.10714 0.52584 0.0
C168 C 0.73955 0.11388 0.54403 0.0
C169 C 0.70159 0.10964 0.55525 0.0
C170 C 0.76678 0.10621 0.51392 0.0
C171 C 0.78345 0.06997 0.51655 0.0
C172 C 0.78309 0.13723 0.49925 0.0
C173 C 0.76908 0.17811 0.49615 0.0
C174 C 0.78017 0.21811 0.50925 0.0
C175 C 0.76647 0.25623 0.5063 0.0
C176 C 0.74193 0.25496 0.49027 0.0
C177 C 0.73114 0.21565 0.47713 0.0
C178 C 0.74473 0.17741 0.48002 0.0
H179 H 0.73134 0.28449 0.48802 0.0
H180 H 0.86153 0.91195 0.51556 0.0
H181 H 0.95347 0.82794 0.80296 0.0
H182 H 0.87704 0.78801 0.82041 0.0
H183 H 0.81502 0.87302 0.7941 0.0
H184 H 0.89225 0.91419 0.77677 0.0
H185 H 0.8113 0.88528 0.82768 0.0
H186 H 0.75471 0.73518 0.78792 0.0
H187 H 0.76123 0.66689 0.77035 0.0
H188 H 0.78753 0.60646 0.81712 0.0
H189 H 0.78192 0.67487 0.83498 0.0
H190 H 0.57458 0.65343 0.87452 0.0
H191 H 0.62203 0.69068 0.84848 0.0
H192 H 0.75523 0.81291 0.88096 0.0
H193 H 0.70789 0.77673 0.90692 0.0
H194 H 0.70736 0.69407 0.83947 0.0
H195 H 0.82844 0.92202 0.85988 0.0
H196 H 0.81589 0.98905 0.87568 0.0
H197 H 0.64859 0.89151 0.86402 0.0
H198 H 0.66016 0.82424 0.84794 0.0
C199 C 0.92319 0.83751 0.80061 0.0
C200 C 0.92927 0.87452 0.78846 0.0
C201 C 0.87925 0.8144 0.8106 0.0
C202 C 0.83991 0.82717 0.80855 0.0
C203 C 0.84482 0.86256 0.79596 0.0
C204 C 0.88894 0.88588 0.78598 0.0
C205 C 0.79602 0.80661 0.82048 0.0
C206 C 0.78828 0.8434 0.83015 0.0
C207 C 0.7649 0.75179 0.82346 0.0
C208 C 0.76819 0.71041 0.81279 0.0
C209 C 0.76224 0.70757 0.79446 0.0
C210 C 0.76572 0.66879 0.78445 0.0
C211 C 0.77487 0.63241 0.79261 0.0
C212 C 0.78045 0.63467 0.81081 0.0
C213 C 0.77704 0.67339 0.82089 0.0
C214 C 0.61345 0.68908 0.87611 0.0
C215 C 0.63744 0.71192 0.89287 0.0
C216 C 0.64069 0.71014 0.86119 0.0
C217 C 0.69229 0.75469 0.86268 0.0
C218 C 0.71523 0.77906 0.87936 0.0
C219 C 0.68804 0.75814 0.89426 0.0
C220 C 0.72407 0.77302 0.84711 0.0
C221 C 0.72972 0.73584 0.83681 0.0
C222 C 0.75243 0.8273 0.8433 0.0
C223 C 0.74519 0.8679 0.8528 0.0
C224 C 0.789 0.91499 0.8606 0.0
C225 C 0.78204 0.953 0.86963 0.0
C226 C 0.73147 0.94449 0.87089 0.0
C227 C 0.68774 0.89798 0.86308 0.0
C228 C 0.69446 0.85986 0.85403 0.0
H229 H 0.72618 0.97395 0.87789 0.0
H230 H 0.77755 0.60242 0.78484 0.0
H231 H 0.2375 0.01112 0.13239 0.0
H232 H 0.22938 0.95337 0.15551 0.0
H233 H 0.09474 0.95693 0.17285 0.0
H234 H 0.10235 0.01464 0.14959 0.0
H235 H 0.22726 0.95288 0.1912 0.0
H236 H 1.00175 0.82831 0.18071 0.0
H237 H 0.9313 0.80946 0.15834 0.0
H238 H 0.03774 0.83998 0.11799 0.0
H239 H 0.10851 0.85827 0.14011 0.0
H240 H 0.11826 0.73828 0.24962 0.0
H241 H 0.14066 0.81731 0.23373 0.0
H242 H 0.11027 0.72529 0.18488 0.0
H243 H 0.08753 0.64649 0.20055 0.0
H244 H 0.0595 0.77792 0.18436 0.0
H245 H 0.2358 0.8192 0.20072 0.0
H246 H 0.30927 0.8357 0.22129 0.0
H247 H 0.30654 0.96671 0.24708 0.0
H248 H 0.23256 0.95053 0.22679 0.0
C249 C 0.20675 1.00058 0.14132 0.0
C250 C 0.17011 0.01697 0.13897 0.0
C251 C 0.20235 0.96771 0.15461 0.0
C252 C 0.16103 0.95017 0.16576 0.0
C253 C 0.12664 0.96955 0.16427 0.0
C254 C 0.13115 0.0027 0.151 0.0
C255 C 0.1507 0.90709 0.17744 0.0
C256 C 0.19038 0.9148 0.18986 0.0
C257 C 0.10296 0.85706 0.17551 0.0
C258 C 0.0605 0.84528 0.16207 0.0
C259 C 0.01001 0.83083 0.16706 0.0
C260 C 0.97005 0.82025 0.15443 0.0
C261 C 0.9801 0.82372 0.13676 0.0
C262 C 0.03006 0.83751 0.13168 0.0
C263 C 0.07011 0.84802 0.14426 0.0
C264 C 0.11723 0.73515 0.2355 0.0
C265 C 0.10089 0.68595 0.22636 0.0
C266 C 0.12999 0.78037 0.22644 0.0
C267 C 0.12694 0.77724 0.20809 0.0
C268 C 0.1125 0.72863 0.19902 0.0
C269 C 0.09971 0.68359 0.20802 0.0
C270 C 0.13613 0.82343 0.19814 0.0
C271 C 0.0961 0.81626 0.18599 0.0
C272 C 0.18383 0.87353 0.20017 0.0
C273 C 0.22827 0.88327 0.21237 0.0
C274 C 0.25057 0.85123 0.21087 0.0
C275 C 0.29237 0.86059 0.22246 0.0
C276 C 0.31245 0.90212 0.23552 0.0
C277 C 0.29088 0.93449 0.23698 0.0
C278 C 0.24905 0.92527 0.22543 0.0
H279 H 0.34482 0.90931 0.24448 0.0
H280 H 0.94914 0.8156 0.127 0.0
H281 H 0.12079 0.05262 0.47555 0.0
H282 H 0.16192 0.02947 0.49902 0.0
H283 H 0.28379 0.05025 0.46562 0.0
H284 H 0.24302 0.07306 0.44214 0.0
H285 H 0.24462 0.95835 0.482 0.0
H286 H 0.30828 0.14347 0.49803 0.0
H287 H 0.29932 0.22089 0.50528 0.0
H288 H 0.20923 0.14343 0.54864 0.0
H289 H 0.21708 0.06521 0.5415 0.0
H290 H 0.4454 0.98372 0.54197 0.0
H291 H 0.38883 0.98991 0.51954 0.0
H292 H 0.28149 0.97589 0.5582 0.0
H293 H 0.33849 0.97078 0.5808 0.0
H294 H 0.3054 0.05831 0.54002 0.0
H295 H 0.24704 0.8759 0.52557 0.0
H296 H 0.25558 0.79816 0.51849 0.0
H297 H 0.33384 0.86856 0.47248 0.0
H298 H 0.32643 0.9471 0.47941 0.0
C299 C 0.15657 0.05267 0.47324 0.0
C300 C 0.17859 0.06483 0.45694 0.0
C301 C 0.18005 0.03943 0.48668 0.0
C302 C 0.22602 0.03819 0.48409 0.0
C303 C 0.24823 0.05071 0.4679 0.0
C304 C 0.22496 0.06407 0.45451 0.0
C305 C 0.251 0.02345 0.49812 0.0
C306 C 0.25836 0.98048 0.49465 0.0
C307 C 0.26745 0.05125 0.5148 0.0
C308 C 0.26274 0.09825 0.51911 0.0
C309 C 0.28617 0.14276 0.50902 0.0
C310 C 0.28137 0.18682 0.51313 0.0
C311 C 0.25358 0.18701 0.52738 0.0
C312 C 0.23066 0.14319 0.53758 0.0
C313 C 0.23529 0.09899 0.53352 0.0
C314 C 0.40919 0.98075 0.54567 0.0
C315 C 0.3967 0.97704 0.56324 0.0
C316 C 0.37673 0.98421 0.53279 0.0
C317 C 0.33075 0.98334 0.53714 0.0
C318 C 0.31685 0.97691 0.55452 0.0
C319 C 0.34939 0.97368 0.56742 0.0
C320 C 0.29967 0.99347 0.52387 0.0
C321 C 0.29119 0.03568 0.52746 0.0
C322 C 0.28203 0.96481 0.50733 0.0
C323 C 0.28655 0.91761 0.5031 0.0
C324 C 0.26645 0.87501 0.51402 0.0
C325 C 0.27101 0.83075 0.51002 0.0
C326 C 0.29534 0.82847 0.49507 0.0
C327 C 0.31504 0.8704 0.48406 0.0
C328 C 0.31061 0.91477 0.48801 0.0
H329 H 0.29883 0.79417 0.49199 0.0
H330 H 0.24993 0.22117 0.53054 0.0
H331 H 0.181 0.17043 0.77797 0.0
H332 H 0.25236 0.24913 0.79516 0.0
H333 H 0.22746 0.1544 0.83923 0.0
H334 H 0.15714 0.07596 0.82214 0.0
H335 H 0.24543 0.25719 0.84823 0.0
H336 H 0.31973 0.17183 0.81451 0.0
H337 H 0.33588 0.13673 0.78728 0.0
H338 H 0.40796 0.29203 0.76743 0.0
H339 H 0.39148 0.32788 0.79448 0.0
H340 H 0.47732 0.40645 0.90194 0.0
H341 H 0.40779 0.3327 0.88296 0.0
H342 H 0.45831 0.4307 0.83912 0.0
H343 H 0.52874 0.50414 0.85787 0.0
H344 H 0.42632 0.33056 0.82874 0.0
H345 H 0.35676 0.41805 0.86234 0.0
H346 H 0.34044 0.4548 0.88916 0.0
H347 H 0.25844 0.29881 0.90853 0.0
H348 H 0.27496 0.26123 0.88191 0.0
C349 C 0.19007 0.16682 0.79144 0.0
C350 C 0.16375 0.11714 0.79872 0.0
C351 C 0.23099 0.2116 0.80119 0.0
C352 C 0.24545 0.20733 0.8184 0.0
C353 C 0.21699 0.1585 0.82597 0.0
C354 C 0.17689 0.11373 0.81618 0.0
C355 C 0.29216 0.25246 0.8283 0.0
C356 C 0.28503 0.27307 0.84404 0.0
C357 C 0.34365 0.27381 0.82263 0.0
C358 C 0.35378 0.25237 0.80642 0.0
C359 C 0.33858 0.19838 0.80427 0.0
C360 C 0.34787 0.17837 0.78889 0.0
C361 C 0.37277 0.21209 0.77561 0.0
C362 C 0.38857 0.26593 0.77771 0.0
C363 C 0.37928 0.28612 0.79307 0.0
C364 C 0.4744 0.41199 0.88819 0.0
C365 C 0.50821 0.46149 0.88149 0.0
C366 C 0.43434 0.3699 0.87737 0.0
C367 C 0.42689 0.37667 0.85971 0.0
C368 C 0.46295 0.42468 0.85273 0.0
C369 C 0.50328 0.46668 0.8635 0.0
C370 C 0.37977 0.33504 0.84884 0.0
C371 C 0.38677 0.31508 0.83291 0.0
C372 C 0.32802 0.31459 0.85426 0.0
C373 C 0.31753 0.33692 0.8702 0.0
C374 C 0.33555 0.39164 0.87237 0.0
C375 C 0.32623 0.41262 0.88753 0.0
C376 C 0.29853 0.37919 0.90056 0.0
C377 C 0.27995 0.32467 0.89843 0.0
C378 C 0.28924 0.3035 0.88331 0.0
H379 H 0.29138 0.39551 0.91229 0.0
H380 H 0.37996 0.19653 0.76371 0.0
H381 H 0.98134 0.02677 0.70942 0.0
H382 H 0.91975 0.01932 0.68593 0.0
H383 H 0.81356 0.01337 0.72381 0.0
H384 H 0.87451 0.01965 0.7474 0.0
H385 H 0.76064 0.93801 0.69837 0.0
H386 H 0.8878 0.12548 0.70098 0.0
H387 H 0.9765 0.20594 0.70122 0.0
H388 H 0.99619 0.15607 0.65021 0.0
H389 H 0.90783 0.07492 0.64975 0.0
H390 H 0.59506 0.97984 0.63943 0.0
H391 H 0.653 0.98133 0.66315 0.0
H392 H 0.76085 0.9876 0.62589 0.0
H393 H 0.7037 0.9873 0.60214 0.0
H394 H 0.81234 0.06272 0.65125 0.0
H395 H 0.68423 0.87507 0.6487 0.0
H396 H 0.59517 0.79519 0.64859 0.0
H397 H 0.57672 0.8461 0.69961 0.0
H398 H 0.66543 0.92668 0.69994 0.0
C399 C 0.9452 0.02455 0.71279 0.0
C400 C 0.93298 0.02392 0.73033 0.0
C401 C 0.90998 0.02036 0.69932 0.0
C402 C 0.86205 0.01613 0.70306 0.0
C403 C 0.8502 0.01647 0.72057 0.0
C404 C 0.88528 0.02038 0.73406 0.0
C405 C 0.82361 0.00967 0.68871 0.0
C406 C 0.77176 0.96573 0.6882 0.0
C407 C 0.83829 0.04503 0.67518 0.0
C408 C 0.89139 0.09388 0.67541 0.0
C409 C 0.9112 0.13147 0.68987 0.0
C410 C 0.96139 0.17723 0.69003 0.0
C411 C 0.99201 0.18604 0.67576 0.0
C412 C 0.97245 0.14916 0.66127 0.0
C413 C 0.9223 0.10331 0.66104 0.0
C414 C 0.63056 0.98044 0.63622 0.0
C415 C 0.64479 0.98367 0.61885 0.0
C416 C 0.66371 0.98125 0.64983 0.0
C417 C 0.71141 0.98456 0.64634 0.0
C418 C 0.72445 0.98533 0.62894 0.0
C419 C 0.69152 0.98485 0.61535 0.0
C420 C 0.7494 0.99087 0.66084 0.0
C421 C 0.80119 0.03492 0.6614 0.0
C422 C 0.73459 0.95567 0.67442 0.0
C423 C 0.68129 0.90716 0.67427 0.0
C424 C 0.66102 0.86944 0.65984 0.0
C425 C 0.61064 0.824 0.65975 0.0
C426 C 0.58026 0.81564 0.67407 0.0
C427 C 0.60027 0.85266 0.68853 0.0
C428 C 0.65062 0.89819 0.68868 0.0
H429 H 0.54125 0.78044 0.67397 0.0
H430 H 0.03086 0.22149 0.67591 0.0
H431 H 0.07991 0.95228 0.04357 0.0
H432 H 0.01075 0.88711 0.02256 0.0
H433 H 0.89423 0.90054 0.05037 0.0
H434 H 0.9638 0.96663 0.07164 0.0
H435 H 0.86589 0.79305 0.04044 0.0
H436 H 0.92768 0.95943 0.01463 0.0
H437 H 0.9952 0.04617 0.00475 0.0
H438 H 0.0448 0.96706 0.96898 0.0
H439 H 0.97812 0.87984 0.97885 0.0
H440 H 0.65932 0.65975 0.97408 0.0
H441 H 0.72504 0.72049 0.9967 0.0
H442 H 0.849 0.73496 0.96547 0.0
H443 H 0.78303 0.67534 0.94231 0.0
H444 H 0.87272 0.82916 0.97779 0.0
H445 H 0.81195 0.66274 0.00342 0.0
H446 H 0.74615 0.57569 0.0136 0.0
H447 H 0.69631 0.65336 0.04987 0.0
H448 H 0.76119 0.74082 0.03971 0.0
C449 C 0.03963 0.94151 0.04532 0.0
C450 C 0.02744 0.96488 0.05931 0.0
C451 C 1.00014 0.90426 0.03323 0.0
C452 C 0.94748 0.8893 0.03484 0.0
C453 C 0.93475 0.9117 0.04891 0.0
C454 C 0.9745 0.94956 0.06099 0.0
C455 C 0.90623 0.85058 0.0216 0.0
C456 C 0.86673 0.8011 0.02677 0.0
C457 C 0.90845 0.86073 0.00372 0.0
C458 C 0.94819 0.9131 0.9976 0.0
C459 C 0.95325 0.96053 0.00475 0.0
C460 C 0.99133 0.0098 0.99914 0.0
C461 C 0.02436 0.01214 0.98628 0.0
C462 C 0.01924 0.96519 0.97896 0.0
C463 C 0.98127 0.91582 0.98455 0.0
C464 C 0.70051 0.67526 0.97203 0.0
C465 C 0.71587 0.66257 0.95633 0.0
C466 C 0.73816 0.70993 0.98508 0.0
C467 C 0.7921 0.73193 0.98295 0.0
C468 C 0.80761 0.71848 0.96744 0.0
C469 C 0.76986 0.68419 0.95424 0.0
C470 C 0.83218 0.77101 0.99653 0.0
C471 C 0.87161 0.82078 0.99143 0.0
C472 C 0.82998 0.76092 0.01446 0.0
C473 C 0.79114 0.70833 0.02068 0.0
C474 C 0.78668 0.66124 0.01347 0.0
C475 C 0.74956 0.61181 0.01925 0.0
C476 C 0.71693 0.60897 0.03233 0.0
C477 C 0.7215 0.65559 0.03971 0.0
C478 C 0.75848 0.70511 0.03396 0.0
H479 H 0.68819 0.57066 0.03677 0.0
H480 H 0.05384 0.05032 0.98197 0.0
H481 H 0.96461 0.89627 0.40562 0.0
H482 H 0.9249 0.81358 0.38646 0.0
H483 H 0.98338 0.9065 0.34175 0.0
H484 H 0.02402 0.98853 0.36077 0.0
H485 H 0.8793 0.81106 0.33553 0.0
H486 H 0.05801 0.87219 0.36008 0.0
H487 H 0.12389 0.89694 0.38473 0.0
H488 H 0.02826 0.74262 0.40428 0.0
H489 H 0.96142 0.71729 0.37984 0.0
H490 H 0.95696 0.70016 0.2696 0.0
H491 H 0.93927 0.74779 0.29234 0.0
H492 H 0.91096 0.62642 0.32758 0.0
H493 H 0.93003 0.57899 0.30489 0.0
H494 H 0.9787 0.71882 0.34261 0.0
H495 H 0.81111 0.64957 0.31366 0.0
H496 H 0.74473 0.62404 0.28915 0.0
H497 H 0.81386 0.78839 0.27825 0.0
H498 H 0.88119 0.81492 0.30253 0.0
C499 C 0.96752 0.89883 0.39165 0.0
C500 C 0.99743 0.94856 0.38463 0.0
C501 C 0.94502 0.85172 0.38074 0.0
C502 C 0.95139 0.85401 0.3627 0.0
C503 C 0.97776 0.90383 0.3556 0.0
C504 C 1.00112 0.95063 0.36648 0.0
C505 C 0.93737 0.80572 0.35139 0.0
C506 C 0.90066 0.79051 0.33705 0.0
C507 C 0.96422 0.77805 0.35371 0.0
C508 C 0.00446 0.79315 0.36831 0.0
C509 C 0.05084 0.84374 0.36973 0.0
C510 C 0.08838 0.85784 0.38363 0.0
C511 C 0.08018 0.82144 0.3961 0.0
C512 C 0.03449 0.77082 0.39464 0.0
C513 C 0.99677 0.75658 0.38078 0.0
C514 C 0.94578 0.6828 0.28204 0.0
C515 C 0.9454 0.63594 0.28543 0.0
C516 C 0.93528 0.71002 0.29506 0.0
C517 C 0.92345 0.6907 0.31173 0.0
C518 C 0.92001 0.64221 0.31484 0.0
C519 C 0.93074 0.61501 0.30182 0.0
C520 C 0.92139 0.7246 0.32629 0.0
C521 C 0.95559 0.73761 0.34124 0.0
C522 C 0.89179 0.74981 0.32456 0.0
C523 C 0.85142 0.73421 0.3099 0.0
C524 C 0.81243 0.68027 0.30596 0.0
C525 C 0.77457 0.66562 0.29212 0.0
C526 C 0.77511 0.70456 0.28214 0.0
C527 C 0.81348 0.75826 0.286 0.0
C528 C 0.85145 0.77315 0.29983 0.0
H529 H 0.74577 0.69313 0.27142 0.0
H530 H 0.10929 0.83241 0.40685 0.0
H531 H 0.12321 0.00315 0.70959 0.0
H532 H 0.19044 0.02607 0.68849 0.0
H533 H 0.267 0.96728 0.72151 0.0
H534 H 0.20002 0.94381 0.74253 0.0
H535 H 0.33488 0.07158 0.7118 0.0
H536 H 0.20286 0.89842 0.68477 0.0
H537 H 0.11448 0.83132 0.67166 0.0
H538 H 0.12913 0.93677 0.63225 0.0
H539 H 0.21737 0.00483 0.64529 0.0
H540 H 0.51962 0.0565 0.66135 0.0
H541 H 0.44997 0.04588 0.67951 0.0
H542 H 0.37962 0.08486 0.63702 0.0
H543 H 0.44881 0.09403 0.61846 0.0
H544 H 0.30662 0.99953 0.65026 0.0
H545 H 0.43939 0.16995 0.67488 0.0
H546 H 0.52687 0.24037 0.68764 0.0
H547 H 0.51044 0.14689 0.73111 0.0
H548 H 0.42314 0.07551 0.71849 0.0
C549 C 0.15376 0.99411 0.7122 0.0
C550 C 0.15616 0.97167 0.7278 0.0
C551 C 0.19221 0.00735 0.70014 0.0
C552 C 0.23392 0.99869 0.70349 0.0
C553 C 0.23533 0.97458 0.71871 0.0
C554 C 0.1967 0.96083 0.73067 0.0
C555 C 0.2777 0.0171 0.69167 0.0
C556 C 0.32888 0.05549 0.69839 0.0
C557 C 0.26945 0.99785 0.67396 0.0
C558 C 0.21644 0.95695 0.66613 0.0
C559 C 0.18703 0.90751 0.67341 0.0
C560 C 0.13701 0.86925 0.66597 0.0
C561 C 0.11612 0.87984 0.65116 0.0
C562 C 0.1453 0.92866 0.64374 0.0
C563 C 0.19533 0.96707 0.65114 0.0
C564 C 0.48999 0.06386 0.6559 0.0
C565 C 0.48989 0.07605 0.6384 0.0
C566 C 0.45011 0.05795 0.66638 0.0
C567 C 0.40949 0.06489 0.65974 0.0
C568 C 0.41043 0.07923 0.64246 0.0
C569 C 0.45029 0.08488 0.6319 0.0
C570 C 0.3644 0.05327 0.67049 0.0
C571 C 0.31284 0.01623 0.6636 0.0
C572 C 0.3722 0.07438 0.688 0.0
C573 C 0.42482 0.11716 0.69565 0.0
C574 C 0.45458 0.16419 0.68709 0.0
C575 C 0.50412 0.20433 0.69431 0.0
C576 C 0.52424 0.19806 0.71015 0.0
C577 C 0.49481 0.15167 0.71883 0.0
C578 C 0.44526 0.11138 0.71165 0.0
H579 H 0.5626 0.22919 0.71573 0.0
H580 H 0.0774 0.85017 0.64542 0.0
H581 H 0.18113 0.23779 0.07168 0.0
H582 H 0.22402 0.3121 0.05275 0.0
H583 H 0.35493 0.28771 0.04988 0.0
H584 H 0.31275 0.21411 0.06871 0.0
H585 H 0.38855 0.39285 0.05247 0.0
H586 H 0.25385 0.23277 0.0184 0.0
H587 H 0.16278 0.15845 0.01091 0.0
H588 H 0.11259 0.27003 0.00331 0.0
H589 H 0.20334 0.34501 0.01097 0.0
H590 H 0.5022 0.44739 0.97387 0.0
H591 H 0.44887 0.4052 0.998 0.0
H592 H 0.3596 0.48065 0.98802 0.0
H593 H 0.41375 0.52397 0.9634 0.0
H594 H 0.29722 0.36809 0.99434 0.0
H595 H 0.44048 0.52852 0.02213 0.0
H596 H 0.53374 0.59936 0.02808 0.0
H597 H 0.56969 0.48514 0.04671 0.0
H598 H 0.47677 0.4134 0.04065 0.0
C599 C 0.21955 0.24903 0.0673 0.0
C600 C 0.24336 0.21977 0.07162 0.0
C601 C 0.24385 0.29128 0.05639 0.0
C602 C 0.29242 0.30509 0.04971 0.0
C603 C 0.31747 0.27783 0.05484 0.0
C604 C 0.29317 0.23557 0.06559 0.0
C605 C 0.31621 0.34527 0.0365 0.0
C606 C 0.36847 0.38764 0.03981 0.0
C607 C 0.28959 0.33942 0.0201 0.0
C608 C 0.23515 0.29442 0.01549 0.0
C609 C 0.22328 0.24141 0.01528 0.0
C610 C 0.17177 0.19919 0.01097 0.0
C611 C 0.13188 0.2095 0.0067 0.0
C612 C 0.14349 0.26209 0.00667 0.0
C613 C 0.19495 0.30446 0.01099 0.0
C614 C 0.47133 0.45533 0.97668 0.0
C615 C 0.4625 0.48942 0.96669 0.0
C616 C 0.44091 0.43117 0.99059 0.0
C617 C 0.40078 0.44035 0.99499 0.0
C618 C 0.3907 0.47336 0.98489 0.0
C619 C 0.42165 0.4981 0.97087 0.0
C620 C 0.37005 0.41445 0.01017 0.0
C621 C 0.31666 0.37458 0.00722 0.0
C622 C 0.39572 0.42234 0.02688 0.0
C623 C 0.45156 0.46552 0.0309 0.0
C624 C 0.46828 0.51843 0.02743 0.0
C625 C 0.5211 0.55876 0.03082 0.0
C626 C 0.5576 0.54674 0.03776 0.0
C627 C 0.54133 0.49438 0.04136 0.0
C628 C 0.48855 0.45388 0.03798 0.0
H629 H 0.59845 0.57801 0.04036 0.0
H630 H 0.09203 0.17676 0.00336 0.0
H631 H 0.18364 0.24683 0.38422 0.0
H632 H 0.17891 0.31528 0.36889 0.0
H633 H 0.0398 0.28113 0.39503 0.0
H634 H 0.04352 0.21131 0.41019 0.0
H635 H 0.02359 0.28229 0.36126 0.0
H636 H 0.16101 0.40001 0.40397 0.0
H637 H 0.24566 0.43798 0.42137 0.0
H638 H 0.32883 0.48072 0.37459 0.0
H639 H 0.24461 0.44234 0.35688 0.0
H640 H 1.00177 0.49055 0.3295 0.0
H641 H 0.02108 0.4406 0.3499 0.0
H642 H 0.14596 0.45652 0.31896 0.0
H643 H 0.12685 0.50697 0.29829 0.0
H644 H 0.17083 0.46751 0.35574 0.0
H645 H 0.03323 0.34609 0.3132 0.0
H646 H 0.94869 0.30889 0.2958 0.0
H647 H 0.86612 0.27329 0.34273 0.0
H648 H 0.95033 0.3111 0.36044 0.0
C649 C 0.15242 0.25432 0.38696 0.0
C650 C 0.1138 0.22329 0.39842 0.0
C651 C 0.14997 0.29382 0.37822 0.0
C652 C 0.10922 0.30378 0.38086 0.0
C653 C 0.07164 0.27421 0.39277 0.0
C654 C 0.07394 0.23443 0.40149 0.0
C655 C 0.10349 0.34183 0.37014 0.0
C656 C 0.05555 0.32308 0.36036 0.0
C657 C 0.14566 0.39465 0.36847 0.0
C658 C 0.19641 0.41786 0.37908 0.0
C659 C 0.19731 0.41712 0.39738 0.0
C660 C 0.24523 0.43879 0.4073 0.0
C661 C 0.29258 0.46163 0.39908 0.0
C662 C 0.29212 0.46297 0.38093 0.0
C663 C 0.2443 0.44132 0.37095 0.0
C664 C 0.03382 0.4841 0.32707 0.0
C665 C 0.0624 0.5023 0.31213 0.0
C666 C 0.04476 0.45546 0.33878 0.0
C667 C 0.08442 0.44419 0.33582 0.0
C668 C 0.11508 0.46472 0.32145 0.0
C669 C 0.10406 0.49345 0.30965 0.0
C670 C 0.09098 0.40784 0.34708 0.0
C671 C 0.13896 0.4268 0.35683 0.0
C672 C 0.0489 0.35514 0.34877 0.0
C673 C 0.99814 0.33192 0.33815 0.0
C674 C 0.99709 0.33072 0.31982 0.0
C675 C 0.94923 0.30947 0.3099 0.0
C676 C 0.90207 0.28886 0.31816 0.0
C677 C 0.90268 0.28934 0.33635 0.0
C678 C 0.95047 0.31065 0.34634 0.0
H679 H 0.86505 0.27241 0.31045 0.0
H680 H 0.32964 0.47839 0.40679 0.0
loop_
_geom_bond_atom_site_label_1
_geom_bond_atom_site_label_2
_geom_bond_distance
_geom_bond_site_symmetry_2
_ccdc_geom_bond_type
Zn0 O3 2.031 1_545 S
Zn0 O5 2.049 . S
Zn0 O10 2.067 . S
Zn1 O2 1.962 . S
Zn1 O4 1.986 . S
Zn1 O6 1.996 . S
Zn1 O9 1.943 . S
O2 Zn1 1.962 . S
O2 C7 1.254 . S
O3 Zn0 2.031 1_565 S
O3 C7 1.269 1_565 S
O4 Zn1 1.986 . S
O4 C11 1.262 . S
O5 Zn0 2.049 . S
O5 C13 1.260 . S
O6 Zn1 1.996 . S
O6 C13 1.257 . S
C7 O2 1.254 . S
C7 O3 1.269 1_545 S
C8 O9 1.249 . S
C8 O10 1.270 . S
O9 Zn1 1.943 . S
O9 C8 1.249 . S
O10 Zn0 2.067 . S
O10 C8 1.270 . S
C11 O4 1.262 . S
C11 O12 1.232 . S
O12 C11 1.232 . S
C13 O5 1.260 . S
C13 O6 1.257 . S
Zn14 O17 2.031 . S
Zn14 O19 2.049 . S
Zn14 O24 2.067 . S
Zn15 O16 1.962 . S
Zn15 O18 1.986 1_455 S
Zn15 O20 1.996 . S
Zn15 O23 1.943 . S
O16 Zn15 1.962 . S
O16 C21 1.254 . S
O17 Zn14 2.031 . S
O17 C21 1.269 . S
O18 Zn15 1.986 1_655 S
O18 C25 1.262 . S
O19 Zn14 2.049 . S
O19 C27 1.260 . S
O20 Zn15 1.996 . S
O20 C27 1.257 . S
C21 O16 1.254 . S
C21 O17 1.269 . S
C22 O23 1.249 . S
C22 O24 1.270 . S
O23 Zn15 1.943 . S
O23 C22 1.249 . S
O24 Zn14 2.067 . S
O24 C22 1.270 . S
C25 O18 1.262 . S
C25 O26 1.232 . S
O26 C25 1.232 . S
C27 O19 1.260 . S
C27 O20 1.257 . S
Zn28 O31 2.031 1_565 S
Zn28 O33 2.049 . S
Zn28 O38 2.067 1_565 S
Zn29 O30 1.962 1_545 S
Zn29 O32 1.986 1_455 S
Zn29 O34 1.996 1_445 S
Zn29 O37 1.943 . S
O30 Zn29 1.962 1_565 S
O30 C35 1.254 1_565 S
O31 Zn28 2.031 1_545 S
O31 C35 1.269 . S
O32 Zn29 1.986 1_655 S
O32 C39 1.262 . S
O33 Zn28 2.049 . S
O33 C41 1.260 1_455 S
O34 Zn29 1.996 1_665 S
O34 C41 1.257 . S
C35 O30 1.254 1_545 S
C35 O31 1.269 . S
C36 O37 1.249 . S
C36 O38 1.270 . S
O37 Zn29 1.943 . S
O37 C36 1.249 . S
O38 Zn28 2.067 1_545 S
O38 C36 1.270 . S
C39 O32 1.262 . S
C39 O40 1.232 1_655 S
O40 C39 1.232 1_455 S
C41 O33 1.260 1_655 S
C41 O34 1.257 . S
Mg42 O49 2.141 . S
Mg42 O50 2.048 . S
Mg42 O51 2.048 . S
Mg42 O54 2.141 . S
C43 O44 1.294 1_455 S
C43 O50 1.195 . S
O44 C43 1.294 1_655 S
C45 O46 1.245 . S
C45 O54 1.289 . S
O46 C45 1.245 . S
C47 O48 1.245 . S
C47 O49 1.289 . S
O48 C47 1.245 . S
O49 Mg42 2.141 . S
O49 C47 1.289 . S
O50 Mg42 2.048 . S
O50 C43 1.195 . S
O51 Mg42 2.048 . S
O51 C52 1.195 . S
C52 O51 1.195 . S
C52 O53 1.300 1_455 S
O53 C52 1.300 1_655 S
O54 Mg42 2.141 . S
O54 C45 1.289 . S
Mg55 O62 2.141 . S
Mg55 O63 2.048 . S
Mg55 O64 2.048 . S
Mg55 O67 2.141 . S
C56 O57 1.332 . S
C56 O63 1.195 . S
O57 C56 1.332 . S
C58 O59 1.245 1_545 S
C58 O67 1.289 . S
O59 C58 1.245 1_565 S
C60 O61 1.245 1_545 S
C60 O62 1.289 . S
O61 C60 1.245 1_565 S
O62 Mg55 2.141 . S
O62 C60 1.289 . S
O63 Mg55 2.048 . S
O63 C56 1.195 . S
O64 Mg55 2.048 . S
O64 C65 1.195 . S
C65 O64 1.195 . S
C65 O66 1.326 . S
O66 C65 1.326 . S
O67 Mg55 2.141 . S
O67 C58 1.289 . S
Mg68 O75 2.141 . S
Mg68 O76 2.048 . S
Mg68 O77 2.048 . S
Mg68 O80 2.141 . S
C69 O70 1.313 . S
C69 O76 1.195 . S
O70 C69 1.313 . S
C71 O72 1.245 . S
C71 O80 1.289 . S
O72 C71 1.245 . S
C73 O74 1.245 . S
C73 O75 1.289 . S
O74 C73 1.245 . S
O75 Mg68 2.141 . S
O75 C73 1.289 . S
O76 Mg68 2.048 . S
O76 C69 1.195 . S
O77 Mg68 2.048 . S
O77 C78 1.195 . S
C78 O77 1.195 . S
C78 O79 1.313 . S
O79 C78 1.313 . S
O80 Mg68 2.141 . S
O80 C71 1.289 . S
H81 C99 0.951 . S
H82 C101 0.951 . S
H83 C103 0.950 . S
H84 C104 0.950 . S
H85 C106 0.950 . S
H86 C109 0.950 . S
H87 C110 0.950 . S
H88 C112 0.950 . S
H89 C113 0.950 . S
H90 C114 0.951 . S
H91 C116 0.951 . S
H92 C118 0.950 . S
H93 C119 0.950 . S
H94 C121 0.950 1_655 S
H95 C124 0.950 . S
H96 C125 0.950 . S
H97 C127 0.950 . S
H98 C128 0.950 . S
C99 H81 0.951 . S
C99 C100 1.366 . S
C99 C101 1.388 . S
C100 C99 1.366 . S
C100 C104 1.385 . S
C101 H82 0.951 . S
C101 C99 1.388 . S
C101 C102 1.366 . S
C102 C101 1.366 . S
C102 C103 1.414 . S
C102 C105 1.499 . S
C103 H83 0.950 . S
C103 C102 1.414 . S
C103 C104 1.374 . S
C104 H84 0.950 . S
C104 C100 1.385 . S
C104 C103 1.374 . S
C105 C102 1.499 . S
C105 C106 1.373 . S
C105 C107 1.389 . S
C106 H85 0.950 . S
C106 C105 1.373 . S
C106 C122 1.377 . S
C107 C105 1.389 . S
C107 C108 1.524 1_455 S
C107 C121 1.377 . S
C108 C107 1.524 1_655 S
C108 C109 1.397 . S
C108 C113 1.363 . S
C109 H86 0.950 . S
C109 C108 1.397 . S
C109 C110 1.334 . S
C110 H87 0.950 . S
C110 C109 1.334 . S
C110 C111 1.287 . S
C111 C110 1.287 . S
C111 C112 1.524 . S
C111 H130 0.913 . S
C112 H88 0.950 . S
C112 C111 1.524 . S
C112 C113 1.415 . S
C113 H89 0.950 . S
C113 C108 1.363 . S
C113 C112 1.415 . S
C114 H90 0.951 . S
C114 C115 1.366 . S
C114 C116 1.388 . S
C115 C114 1.366 . S
C115 C119 1.385 . S
C116 H91 0.951 . S
C116 C114 1.388 . S
C116 C117 1.366 . S
C117 C116 1.366 . S
C117 C118 1.414 . S
C117 C120 1.499 . S
C118 H92 0.950 . S
C118 C117 1.414 . S
C118 C119 1.374 . S
C119 H93 0.950 . S
C119 C115 1.385 . S
C119 C118 1.374 . S
C120 C117 1.499 . S
C120 C121 1.373 . S
C120 C122 1.389 . S
C121 H94 0.950 1_455 S
C121 C107 1.377 . S
C121 C120 1.373 . S
C122 C106 1.377 . S
C122 C120 1.389 . S
C122 C123 1.524 . S
C123 C122 1.524 . S
C123 C124 1.397 . S
C123 C128 1.363 . S
C124 H95 0.950 . S
C124 C123 1.397 . S
C124 C125 1.334 . S
C125 H96 0.950 . S
C125 C124 1.334 . S
C125 C126 1.287 . S
C126 C125 1.287 . S
C126 C127 1.524 . S
C126 H129 0.999 . S
C127 H97 0.950 . S
C127 C126 1.524 . S
C127 C128 1.415 . S
C128 H98 0.950 . S
C128 C123 1.363 . S
C128 C127 1.415 . S
H129 C126 0.999 . S
H130 C111 0.913 . S
H131 C149 0.951 . S
H132 C151 0.951 . S
H133 C153 0.950 . S
H134 C154 0.950 . S
H135 C156 0.950 . S
H136 C159 0.950 . S
H137 C160 0.950 . S
H138 C162 0.950 . S
H139 C163 0.950 . S
H140 C164 0.951 . S
H141 C166 0.951 . S
H142 C168 0.950 . S
H143 C169 0.950 . S
H144 C171 0.950 . S
H145 C174 0.950 . S
H146 C175 0.950 . S
H147 C177 0.950 . S
H148 C178 0.950 . S
C149 H131 0.951 . S
C149 C150 1.366 . S
C149 C151 1.388 . S
C150 C149 1.366 . S
C150 C154 1.385 . S
C151 H132 0.951 . S
C151 C149 1.388 . S
C151 C152 1.366 . S
C152 C151 1.366 . S
C152 C153 1.414 . S
C152 C155 1.499 . S
C153 H133 0.950 . S
C153 C152 1.414 . S
C153 C154 1.374 . S
C154 H134 0.950 . S
C154 C150 1.385 . S
C154 C153 1.374 . S
C155 C152 1.499 . S
C155 C156 1.373 . S
C155 C157 1.389 . S
C156 H135 0.950 . S
C156 C155 1.373 . S
C156 C172 1.377 . S
C157 C155 1.389 . S
C157 C158 1.524 . S
C157 C171 1.377 . S
C158 C157 1.524 . S
C158 C159 1.397 1_545 S
C158 C163 1.363 . S
C159 H136 0.950 . S
C159 C158 1.397 1_565 S
C159 C160 1.334 . S
C160 H137 0.950 . S
C160 C159 1.334 . S
C160 C161 1.287 . S
C161 C160 1.287 . S
C161 C162 1.524 1_565 S
C161 H180 0.913 . S
C162 H138 0.950 . S
C162 C161 1.524 1_545 S
C162 C163 1.415 . S
C163 H139 0.950 . S
C163 C158 1.363 . S
C163 C162 1.415 . S
C164 H140 0.951 . S
C164 C165 1.366 . S
C164 C166 1.388 . S
C165 C164 1.366 . S
C165 C169 1.385 . S
C166 H141 0.951 . S
C166 C164 1.388 . S
C166 C167 1.366 . S
C167 C166 1.366 . S
C167 C168 1.414 . S
C167 C170 1.499 . S
C168 H142 0.950 . S
C168 C167 1.414 . S
C168 C169 1.374 . S
C169 H143 0.950 . S
C169 C165 1.385 . S
C169 C168 1.374 . S
C170 C167 1.499 . S
C170 C171 1.373 . S
C170 C172 1.389 . S
C171 H144 0.950 . S
C171 C157 1.377 . S
C171 C170 1.373 . S
C172 C156 1.377 . S
C172 C170 1.389 . S
C172 C173 1.524 . S
C173 C172 1.524 . S
C173 C174 1.397 . S
C173 C178 1.363 . S
C174 H145 0.950 . S
C174 C173 1.397 . S
C174 C175 1.334 . S
C175 H146 0.950 . S
C175 C174 1.334 . S
C175 C176 1.287 . S
C176 C175 1.287 . S
C176 C177 1.524 . S
C176 H179 0.999 . S
C177 H147 0.950 . S
C177 C176 1.524 . S
C177 C178 1.415 . S
C178 H148 0.950 . S
C178 C173 1.363 . S
C178 C177 1.415 . S
H179 C176 0.999 . S
H180 C161 0.913 . S
H181 C199 0.947 1_455 S
H182 C201 0.951 . S
H183 C203 0.950 . S
H184 C204 0.950 . S
H185 C206 0.950 . S
H186 C209 0.950 . S
H187 C210 0.950 . S
H188 C212 0.950 . S
H189 C213 0.950 . S
H190 C214 0.951 . S
H191 C216 0.951 . S
H192 C218 0.950 . S
H193 C219 0.950 . S
H194 C221 0.950 . S
H195 C224 0.950 . S
H196 C225 0.950 . S
H197 C227 0.950 . S
H198 C228 0.950 . S
C199 H181 0.947 1_655 S
C199 C200 1.366 . S
C199 C201 1.388 . S
C200 C199 1.366 . S
C200 C204 1.385 . S
C201 H182 0.951 . S
C201 C199 1.388 . S
C201 C202 1.366 . S
C202 C201 1.366 . S
C202 C203 1.414 . S
C202 C205 1.499 . S
C203 H183 0.950 . S
C203 C202 1.414 . S
C203 C204 1.374 . S
C204 H184 0.950 . S
C204 C200 1.385 . S
C204 C203 1.374 . S
C205 C202 1.499 . S
C205 C206 1.373 . S
C205 C207 1.389 . S
C206 H185 0.950 . S
C206 C205 1.373 . S
C206 C222 1.377 . S
C207 C205 1.389 . S
C207 C208 1.524 . S
C207 C221 1.377 . S
C208 C207 1.524 . S
C208 C209 1.397 . S
C208 C213 1.363 . S
C209 H186 0.950 . S
C209 C208 1.397 . S
C209 C210 1.334 . S
C210 H187 0.950 . S
C210 C209 1.334 . S
C210 C211 1.287 . S
C211 C210 1.287 . S
C211 C212 1.524 . S
C211 H230 0.913 . S
C212 H188 0.950 . S
C212 C211 1.524 . S
C212 C213 1.415 . S
C213 H189 0.950 . S
C213 C208 1.363 . S
C213 C212 1.415 . S
C214 H190 0.951 . S
C214 C215 1.366 . S
C214 C216 1.388 . S
C215 C214 1.366 . S
C215 C219 1.385 . S
C216 H191 0.951 . S
C216 C214 1.388 . S
C216 C217 1.366 . S
C217 C216 1.366 . S
C217 C218 1.414 . S
C217 C220 1.499 . S
C218 H192 0.950 . S
C218 C217 1.414 . S
C218 C219 1.374 . S
C219 H193 0.950 . S
C219 C215 1.385 . S
C219 C218 1.374 . S
C220 C217 1.499 . S
C220 C221 1.373 . S
C220 C222 1.389 . S
C221 H194 0.950 . S
C221 C207 1.377 . S
C221 C220 1.373 . S
C222 C206 1.377 . S
C222 C220 1.389 . S
C222 C223 1.524 . S
C223 C222 1.524 . S
C223 C224 1.397 . S
C223 C228 1.363 . S
C224 H195 0.950 . S
C224 C223 1.397 . S
C224 C225 1.334 . S
C225 H196 0.950 . S
C225 C224 1.334 . S
C225 C226 1.287 . S
C226 C225 1.287 . S
C226 C227 1.524 . S
C226 H229 0.999 . S
C227 H197 0.950 . S
C227 C226 1.524 . S
C227 C228 1.415 . S
C228 H198 0.950 . S
C228 C223 1.363 . S
C228 C227 1.415 . S
H229 C226 0.999 . S
H230 C211 0.913 . S
H231 C249 0.951 . S
H232 C251 0.951 . S
H233 C253 0.950 . S
H234 C254 0.950 1_545 S
H235 C256 0.950 . S
H236 C259 0.950 . S
H237 C260 0.950 . S
H238 C262 0.950 . S
H239 C263 0.950 . S
H240 C264 0.951 . S
H241 C266 0.951 . S
H242 C268 0.950 . S
H243 C269 0.950 . S
H244 C271 0.950 . S
H245 C274 0.950 . S
H246 C275 0.950 . S
H247 C277 0.950 . S
H248 C278 0.950 . S
C249 H231 0.951 . S
C249 C250 1.366 . S
C249 C251 1.388 . S
C250 C249 1.366 . S
C250 C254 1.385 . S
C251 H232 0.951 . S
C251 C249 1.388 . S
C251 C252 1.366 . S
C252 C251 1.366 . S
C252 C253 1.414 . S
C252 C255 1.499 . S
C253 H233 0.950 . S
C253 C252 1.414 . S
C253 C254 1.374 . S
C254 H234 0.950 1_565 S
C254 C250 1.385 . S
C254 C253 1.374 . S
C255 C252 1.499 . S
C255 C256 1.373 . S
C255 C257 1.389 . S
C256 H235 0.950 . S
C256 C255 1.373 . S
C256 C272 1.377 . S
C257 C255 1.389 . S
C257 C258 1.524 1_455 S
C257 C271 1.377 . S
C258 C257 1.524 1_655 S
C258 C259 1.397 . S
C258 C263 1.363 . S
C259 H236 0.950 . S
C259 C258 1.397 . S
C259 C260 1.334 . S
C260 H237 0.950 . S
C260 C259 1.334 . S
C260 C261 1.287 . S
C261 C260 1.287 . S
C261 C262 1.524 . S
C261 H280 0.913 . S
C262 H238 0.950 . S
C262 C261 1.524 . S
C262 C263 1.415 . S
C263 H239 0.950 . S
C263 C258 1.363 . S
C263 C262 1.415 . S
C264 H240 0.951 . S
C264 C265 1.366 . S
C264 C266 1.388 . S
C265 C264 1.366 . S
C265 C269 1.385 . S
C266 H241 0.951 . S
C266 C264 1.388 . S
C266 C267 1.366 . S
C267 C266 1.366 . S
C267 C268 1.414 . S
C267 C270 1.499 . S
C268 H242 0.950 . S
C268 C267 1.414 . S
C268 C269 1.374 . S
C269 H243 0.950 . S
C269 C265 1.385 . S
C269 C268 1.374 . S
C270 C267 1.499 . S
C270 C271 1.373 . S
C270 C272 1.389 . S
C271 H244 0.950 . S
C271 C257 1.377 . S
C271 C270 1.373 . S
C272 C256 1.377 . S
C272 C270 1.389 . S
C272 C273 1.524 . S
C273 C272 1.524 . S
C273 C274 1.397 . S
C273 C278 1.363 . S
C274 H245 0.950 . S
C274 C273 1.397 . S
C274 C275 1.334 . S
C275 H246 0.950 . S
C275 C274 1.334 . S
C275 C276 1.287 . S
C276 C275 1.287 . S
C276 C277 1.524 . S
C276 H279 0.999 . S
C277 H247 0.950 . S
C277 C276 1.524 . S
C277 C278 1.415 . S
C278 H248 0.950 . S
C278 C273 1.363 . S
C278 C277 1.415 . S
H279 C276 0.999 . S
H280 C261 0.913 . S
H281 C299 0.951 . S
H282 C301 0.951 . S
H283 C303 0.950 . S
H284 C304 0.950 . S
H285 C306 0.950 . S
H286 C309 0.950 . S
H287 C310 0.950 . S
H288 C312 0.950 . S
H289 C313 0.950 . S
H290 C314 0.951 . S
H291 C316 0.951 . S
H292 C318 0.950 . S
H293 C319 0.950 . S
H294 C321 0.950 . S
H295 C324 0.950 . S
H296 C325 0.950 . S
H297 C327 0.950 . S
H298 C328 0.950 1_545 S
C299 H281 0.951 . S
C299 C300 1.366 . S
C299 C301 1.388 . S
C300 C299 1.366 . S
C300 C304 1.385 . S
C301 H282 0.951 . S
C301 C299 1.388 . S
C301 C302 1.366 . S
C302 C301 1.366 . S
C302 C303 1.414 . S
C302 C305 1.499 . S
C303 H283 0.950 . S
C303 C302 1.414 . S
C303 C304 1.374 . S
C304 H284 0.950 . S
C304 C300 1.385 . S
C304 C303 1.374 . S
C305 C302 1.499 . S
C305 C306 1.373 . S
C305 C307 1.389 . S
C306 H285 0.950 . S
C306 C305 1.373 . S
C306 C322 1.377 . S
C307 C305 1.389 . S
C307 C308 1.524 . S
C307 C321 1.377 . S
C308 C307 1.524 . S
C308 C309 1.397 . S
C308 C313 1.363 . S
C309 H286 0.950 . S
C309 C308 1.397 . S
C309 C310 1.334 . S
C310 H287 0.950 . S
C310 C309 1.334 . S
C310 C311 1.287 . S
C311 C310 1.287 . S
C311 C312 1.524 . S
C311 H330 0.913 . S
C312 H288 0.950 . S
C312 C311 1.524 . S
C312 C313 1.415 . S
C313 H289 0.950 . S
C313 C308 1.363 . S
C313 C312 1.415 . S
C314 H290 0.951 . S
C314 C315 1.366 . S
C314 C316 1.388 . S
C315 C314 1.366 . S
C315 C319 1.385 . S
C316 H291 0.951 . S
C316 C314 1.388 . S
C316 C317 1.366 . S
C317 C316 1.366 . S
C317 C318 1.414 . S
C317 C320 1.499 . S
C318 H292 0.950 . S
C318 C317 1.414 . S
C318 C319 1.374 . S
C319 H293 0.950 . S
C319 C315 1.385 . S
C319 C318 1.374 . S
C320 C317 1.499 . S
C320 C321 1.373 . S
C320 C322 1.389 . S
C321 H294 0.950 . S
C321 C307 1.377 . S
C321 C320 1.373 . S
C322 C306 1.377 . S
C322 C320 1.389 . S
C322 C323 1.524 1_545 S
C323 C322 1.524 1_565 S
C323 C324 1.397 . S
C323 C328 1.363 . S
C324 H295 0.950 . S
C324 C323 1.397 . S
C324 C325 1.334 . S
C325 H296 0.950 . S
C325 C324 1.334 . S
C325 C326 1.287 . S
C326 C325 1.287 . S
C326 C327 1.524 . S
C326 H329 0.999 . S
C327 H297 0.950 . S
C327 C326 1.524 . S
C327 C328 1.415 . S
C328 H298 0.950 1_565 S
C328 C323 1.363 . S
C328 C327 1.415 . S
H329 C326 0.999 . S
H330 C311 0.913 . S
H331 C349 0.951 . S
H332 C351 0.951 . S
H333 C353 0.950 . S
H334 C354 0.950 . S
H335 C356 0.950 . S
H336 C359 0.950 . S
H337 C360 0.950 . S
H338 C362 0.950 . S
H339 C363 0.950 . S
H340 C364 0.951 . S
H341 C366 0.951 . S
H342 C368 0.950 . S
H343 C369 0.950 . S
H344 C371 0.950 . S
H345 C374 0.950 . S
H346 C375 0.950 . S
H347 C377 0.950 . S
H348 C378 0.950 . S
C349 H331 0.951 . S
C349 C350 1.366 . S
C349 C351 1.388 . S
C350 C349 1.366 . S
C350 C354 1.385 . S
C351 H332 0.951 . S
C351 C349 1.388 . S
C351 C352 1.366 . S
C352 C351 1.366 . S
C352 C353 1.414 . S
C352 C355 1.499 . S
C353 H333 0.950 . S
C353 C352 1.414 . S
C353 C354 1.374 . S
C354 H334 0.950 . S
C354 C350 1.385 . S
C354 C353 1.374 . S
C355 C352 1.499 . S
C355 C356 1.373 . S
C355 C357 1.389 . S
C356 H335 0.950 . S
C356 C355 1.373 . S
C356 C372 1.377 . S
C357 C355 1.389 . S
C357 C358 1.524 . S
C357 C371 1.377 . S
C358 C357 1.524 . S
C358 C359 1.397 . S
C358 C363 1.363 . S
C359 H336 0.950 . S
C359 C358 1.397 . S
C359 C360 1.334 . S
C360 H337 0.950 . S
C360 C359 1.334 . S
C360 C361 1.287 . S
C361 C360 1.287 . S
C361 C362 1.524 . S
C361 H380 0.913 . S
C362 H338 0.950 . S
C362 C361 1.524 . S
C362 C363 1.415 . S
C363 H339 0.950 . S
C363 C358 1.363 . S
C363 C362 1.415 . S
C364 H340 0.951 . S
C364 C365 1.366 . S
C364 C366 1.388 . S
C365 C364 1.366 . S
C365 C369 1.385 . S
C366 H341 0.951 . S
C366 C364 1.388 . S
C366 C367 1.366 . S
C367 C366 1.366 . S
C367 C368 1.414 . S
C367 C370 1.499 . S
C368 H342 0.950 . S
C368 C367 1.414 . S
C368 C369 1.374 . S
C369 H343 0.950 . S
C369 C365 1.385 . S
C369 C368 1.374 . S
C370 C367 1.499 . S
C370 C371 1.373 . S
C370 C372 1.389 . S
C371 H344 0.950 . S
C371 C357 1.377 . S
C371 C370 1.373 . S
C372 C356 1.377 . S
C372 C370 1.389 . S
C372 C373 1.524 . S
C373 C372 1.524 . S
C373 C374 1.397 . S
C373 C378 1.363 . S
C374 H345 0.950 . S
C374 C373 1.397 . S
C374 C375 1.334 . S
C375 H346 0.950 . S
C375 C374 1.334 . S
C375 C376 1.287 . S
C376 C375 1.287 . S
C376 C377 1.524 . S
C376 H379 0.999 . S
C377 H347 0.950 . S
C377 C376 1.524 . S
C377 C378 1.415 . S
C378 H348 0.950 . S
C378 C373 1.363 . S
C378 C377 1.415 . S
H379 C376 0.999 . S
H380 C361 0.913 . S
H381 C399 0.950 1_565 S
H382 C401 0.951 . S
H383 C403 0.950 . S
H384 C404 0.950 . S
H385 C406 0.950 . S
H386 C409 0.950 . S
H387 C410 0.950 1_455 S
H388 C412 0.950 . S
H389 C413 0.950 . S
H390 C414 0.951 . S
H391 C416 0.951 . S
H392 C418 0.930 1_565 S
H393 C419 0.949 . S
H394 C421 0.950 . S
H395 C424 0.950 . S
H396 C425 0.950 . S
H397 C427 0.950 . S
H398 C428 0.950 . S
C399 H381 0.950 1_545 S
C399 C400 1.366 . S
C399 C401 1.388 . S
C400 C399 1.366 . S
C400 C404 1.385 . S
C401 H382 0.951 . S
C401 C399 1.388 . S
C401 C402 1.366 . S
C402 C401 1.366 . S
C402 C403 1.414 . S
C402 C405 1.499 . S
C403 H383 0.950 . S
C403 C402 1.414 . S
C403 C404 1.374 . S
C404 H384 0.950 . S
C404 C400 1.385 . S
C404 C403 1.374 . S
C405 C402 1.499 . S
C405 C406 1.373 . S
C405 C407 1.389 . S
C406 H385 0.950 . S
C406 C405 1.373 . S
C406 C422 1.377 . S
C407 C405 1.389 . S
C407 C408 1.524 . S
C407 C421 1.377 . S
C408 C407 1.524 . S
C408 C409 1.397 . S
C408 C413 1.363 . S
C409 H386 0.950 . S
C409 C408 1.397 . S
C409 C410 1.334 . S
C410 H387 0.950 1_655 S
C410 C409 1.334 . S
C410 C411 1.287 . S
C411 C410 1.287 . S
C411 C412 1.524 . S
C411 H430 0.913 1_655 S
C412 H388 0.950 . S
C412 C411 1.524 . S
C412 C413 1.415 . S
C413 H389 0.950 . S
C413 C408 1.363 . S
C413 C412 1.415 . S
C414 H390 0.951 . S
C414 C415 1.366 . S
C414 C416 1.388 . S
C415 C414 1.366 . S
C415 C419 1.385 . S
C416 H391 0.951 . S
C416 C414 1.388 . S
C416 C417 1.366 . S
C417 C416 1.366 . S
C417 C418 1.414 . S
C417 C420 1.499 . S
C418 H392 0.930 1_545 S
C418 C417 1.414 . S
C418 C419 1.374 . S
C419 H393 0.949 . S
C419 C415 1.385 . S
C419 C418 1.374 . S
C420 C417 1.499 . S
C420 C421 1.373 . S
C420 C422 1.389 . S
C421 H394 0.950 . S
C421 C407 1.377 . S
C421 C420 1.373 . S
C422 C406 1.377 . S
C422 C420 1.389 . S
C422 C423 1.524 . S
C423 C422 1.524 . S
C423 C424 1.397 1_545 S
C423 C428 1.363 . S
C424 H395 0.950 . S
C424 C423 1.397 1_565 S
C424 C425 1.334 . S
C425 H396 0.950 . S
C425 C424 1.334 . S
C425 C426 1.287 . S
C426 C425 1.287 . S
C426 C427 1.524 1_565 S
C426 H429 0.999 . S
C427 H397 0.950 . S
C427 C426 1.524 1_545 S
C427 C428 1.415 . S
C428 H398 0.950 . S
C428 C423 1.363 . S
C428 C427 1.415 . S
H429 C426 0.999 . S
H430 C411 0.913 1_455 S
H431 C449 0.968 . S
H432 C451 0.951 . S
H433 C453 0.950 . S
H434 C454 0.950 . S
H435 C456 0.950 . S
H436 C459 0.950 . S
H437 C460 0.945 1_544 S
H438 C462 0.950 1_455 S
H439 C463 0.950 . S
H440 C464 0.951 . S
H441 C466 0.951 . S
H442 C468 0.950 . S
H443 C469 0.950 . S
H444 C471 0.950 . S
H445 C474 0.950 . S
H446 C475 0.950 . S
H447 C477 0.950 . S
H448 C478 0.950 . S
C449 H431 0.968 . S
C449 C450 1.354 1_455 S
C449 C451 1.383 1_455 S
C450 C449 1.354 1_655 S
C450 C454 1.385 . S
C451 H432 0.951 . S
C451 C449 1.383 1_655 S
C451 C452 1.366 . S
C452 C451 1.366 . S
C452 C453 1.414 . S
C452 C455 1.499 . S
C453 H433 0.950 . S
C453 C452 1.414 . S
C453 C454 1.374 . S
C454 H434 0.950 . S
C454 C450 1.385 . S
C454 C453 1.374 . S
C455 C452 1.499 . S
C455 C456 1.373 . S
C455 C457 1.389 . S
C456 H435 0.950 . S
C456 C455 1.373 . S
C456 C472 1.377 . S
C457 C455 1.389 . S
C457 C458 1.523 1_554 S
C457 C471 1.377 1_554 S
C458 C457 1.523 1_556 S
C458 C459 1.396 1_556 S
C458 C463 1.365 . S
C459 H436 0.950 . S
C459 C458 1.396 1_554 S
C459 C460 1.334 1_554 S
C460 H437 0.945 1_566 S
C460 C459 1.334 1_556 S
C460 C461 1.287 . S
C461 C460 1.287 . S
C461 C462 1.524 . S
C461 H480 0.913 1_665 S
C462 H438 0.950 1_655 S
C462 C461 1.524 . S
C462 C463 1.415 . S
C463 H439 0.950 . S
C463 C458 1.365 . S
C463 C462 1.415 . S
C464 H440 0.951 . S
C464 C465 1.366 . S
C464 C466 1.388 . S
C465 C464 1.366 . S
C465 C469 1.385 . S
C466 H441 0.951 . S
C466 C464 1.388 . S
C466 C467 1.366 . S
C467 C466 1.366 . S
C467 C468 1.414 . S
C467 C470 1.499 1_556 S
C468 H442 0.950 . S
C468 C467 1.414 . S
C468 C469 1.374 . S
C469 H443 0.950 . S
C469 C465 1.385 . S
C469 C468 1.374 . S
C470 C467 1.499 1_554 S
C470 C471 1.373 1_554 S
C470 C472 1.389 . S
C471 H444 0.950 . S
C471 C457 1.377 1_556 S
C471 C470 1.373 1_556 S
C472 C456 1.377 . S
C472 C470 1.389 . S
C472 C473 1.524 . S
C473 C472 1.524 . S
C473 C474 1.397 . S
C473 C478 1.363 . S
C474 H445 0.950 . S
C474 C473 1.397 . S
C474 C475 1.334 . S
C475 H446 0.950 . S
C475 C474 1.334 . S
C475 C476 1.287 . S
C476 C475 1.287 . S
C476 C477 1.524 . S
C476 H479 0.999 . S
C477 H447 0.950 . S
C477 C476 1.524 . S
C477 C478 1.415 . S
C478 H448 0.950 . S
C478 C473 1.363 . S
C478 C477 1.415 . S
H479 C476 0.999 . S
H480 C461 0.913 1_445 S
H481 C499 0.951 . S
H482 C501 0.951 . S
H483 C503 0.950 . S
H484 C504 0.950 . S
H485 C506 0.950 . S
H486 C509 0.950 . S
H487 C510 0.950 . S
H488 C512 0.950 . S
H489 C513 0.950 . S
H490 C514 0.951 . S
H491 C516 0.951 1_655 S
H492 C518 0.950 . S
H493 C519 0.950 . S
H494 C521 0.950 . S
H495 C524 0.950 . S
H496 C525 0.950 . S
H497 C527 0.950 . S
H498 C528 0.950 . S
C499 H481 0.951 . S
C499 C500 1.366 . S
C499 C501 1.388 . S
C500 C499 1.366 . S
C500 C504 1.385 1_455 S
C501 H482 0.951 . S
C501 C499 1.388 . S
C501 C502 1.366 . S
C502 C501 1.366 . S
C502 C503 1.414 1_455 S
C502 C505 1.499 . S
C503 H483 0.950 . S
C503 C502 1.414 1_655 S
C503 C504 1.374 . S
C504 H484 0.950 . S
C504 C500 1.385 1_655 S
C504 C503 1.374 . S
C505 C502 1.499 . S
C505 C506 1.373 1_455 S
C505 C507 1.389 . S
C506 H485 0.950 . S
C506 C505 1.373 1_655 S
C506 C522 1.377 . S
C507 C505 1.389 . S
C507 C508 1.524 . S
C507 C521 1.377 . S
C508 C507 1.524 . S
C508 C509 1.397 . S
C508 C513 1.363 . S
C509 H486 0.950 . S
C509 C508 1.397 . S
C509 C510 1.334 1_565 S
C510 H487 0.950 . S
C510 C509 1.334 1_545 S
C510 C511 1.287 . S
C511 C510 1.287 . S
C511 C512 1.524 1_545 S
C511 H530 0.913 . S
C512 H488 0.950 . S
C512 C511 1.524 1_565 S
C512 C513 1.415 . S
C513 H489 0.950 . S
C513 C508 1.363 . S
C513 C512 1.415 . S
C514 H490 0.951 . S
C514 C515 1.366 . S
C514 C516 1.388 . S
C515 C514 1.366 . S
C515 C519 1.385 . S
C516 H491 0.951 1_455 S
C516 C514 1.388 . S
C516 C517 1.366 . S
C517 C516 1.366 . S
C517 C518 1.414 . S
C517 C520 1.499 . S
C518 H492 0.950 . S
C518 C517 1.414 . S
C518 C519 1.374 . S
C519 H493 0.950 . S
C519 C515 1.385 . S
C519 C518 1.374 . S
C520 C517 1.499 . S
C520 C521 1.373 . S
C520 C522 1.389 1_455 S
C521 H494 0.950 . S
C521 C507 1.377 . S
C521 C520 1.373 . S
C522 C506 1.377 . S
C522 C520 1.389 1_655 S
C522 C523 1.524 . S
C523 C522 1.524 . S
C523 C524 1.397 . S
C523 C528 1.363 . S
C524 H495 0.950 . S
C524 C523 1.397 . S
C524 C525 1.334 . S
C525 H496 0.950 . S
C525 C524 1.334 . S
C525 C526 1.287 . S
C526 C525 1.287 . S
C526 C527 1.524 . S
C526 H529 0.999 . S
C527 H497 0.950 . S
C527 C526 1.524 . S
C527 C528 1.415 . S
C528 H498 0.950 . S
C528 C523 1.363 . S
C528 C527 1.415 . S
H529 C526 0.999 . S
H530 C511 0.913 . S
H531 C549 0.951 . S
H532 C551 0.951 . S
H533 C553 0.950 . S
H534 C554 0.950 . S
H535 C556 0.950 . S
H536 C559 0.950 . S
H537 C560 0.950 . S
H538 C562 0.950 . S
H539 C563 0.950 1_545 S
H540 C564 0.951 . S
H541 C566 0.951 . S
H542 C568 0.950 . S
H543 C569 0.950 . S
H544 C571 0.950 1_565 S
H545 C574 0.950 . S
H546 C575 0.950 . S
H547 C577 0.950 . S
H548 C578 0.950 . S
C549 H531 0.951 . S
C549 C550 1.366 . S
C549 C551 1.388 . S
C550 C549 1.366 . S
C550 C554 1.385 1_545 S
C551 H532 0.951 . S
C551 C549 1.388 . S
C551 C552 1.366 . S
C552 C551 1.366 . S
C552 C553 1.414 1_545 S
C552 C555 1.499 . S
C553 H533 0.950 . S
C553 C552 1.414 1_565 S
C553 C554 1.374 . S
C554 H534 0.950 . S
C554 C550 1.385 1_565 S
C554 C553 1.374 . S
C555 C552 1.499 . S
C555 C556 1.373 . S
C555 C557 1.389 1_545 S
C556 H535 0.950 . S
C556 C555 1.373 . S
C556 C572 1.377 . S
C557 C555 1.389 1_565 S
C557 C558 1.524 . S
C557 C571 1.377 1_565 S
C558 C557 1.524 . S
C558 C559 1.397 . S
C558 C563 1.363 . S
C559 H536 0.950 . S
C559 C558 1.397 . S
C559 C560 1.334 . S
C560 H537 0.950 . S
C560 C559 1.334 . S
C560 C561 1.287 . S
C561 C560 1.287 . S
C561 C562 1.524 . S
C561 H580 0.913 . S
C562 H538 0.950 . S
C562 C561 1.524 . S
C562 C563 1.415 . S
C563 H539 0.950 1_565 S
C563 C558 1.363 . S
C563 C562 1.415 . S
C564 H540 0.951 . S
C564 C565 1.366 . S
C564 C566 1.388 . S
C565 C564 1.366 . S
C565 C569 1.385 . S
C566 H541 0.951 . S
C566 C564 1.388 . S
C566 C567 1.366 . S
C567 C566 1.366 . S
C567 C568 1.414 . S
C567 C570 1.499 . S
C568 H542 0.950 . S
C568 C567 1.414 . S
C568 C569 1.374 . S
C569 H543 0.950 . S
C569 C565 1.385 . S
C569 C568 1.374 . S
C570 C567 1.499 . S
C570 C571 1.373 . S
C570 C572 1.389 . S
C571 H544 0.950 1_545 S
C571 C557 1.377 1_545 S
C571 C570 1.373 . S
C572 C556 1.377 . S
C572 C570 1.389 . S
C572 C573 1.524 . S
C573 C572 1.524 . S
C573 C574 1.397 . S
C573 C578 1.363 . S
C574 H545 0.950 . S
C574 C573 1.397 . S
C574 C575 1.334 . S
C575 H546 0.950 . S
C575 C574 1.334 . S
C575 C576 1.287 . S
C576 C575 1.287 . S
C576 C577 1.524 . S
C576 H579 0.999 . S
C577 H547 0.950 . S
C577 C576 1.524 . S
C577 C578 1.415 . S
C578 H548 0.950 . S
C578 C573 1.363 . S
C578 C577 1.415 . S
H579 C576 0.999 . S
H580 C561 0.913 . S
H581 C599 0.951 . S
H582 C601 0.951 . S
H583 C603 0.950 . S
H584 C604 0.950 . S
H585 C606 0.950 . S
H586 C609 0.950 . S
H587 C610 0.950 . S
H588 C612 0.950 . S
H589 C613 0.950 . S
H590 C614 0.951 . S
H591 C616 0.951 . S
H592 C618 0.950 . S
H593 C619 0.950 . S
H594 C621 0.950 . S
H595 C624 0.950 . S
H596 C625 0.950 . S
H597 C627 0.950 . S
H598 C628 0.950 . S
C599 H581 0.951 . S
C599 C600 1.366 . S
C599 C601 1.388 . S
C600 C599 1.366 . S
C600 C604 1.385 . S
C601 H582 0.951 . S
C601 C599 1.388 . S
C601 C602 1.366 . S
C602 C601 1.366 . S
C602 C603 1.414 . S
C602 C605 1.499 . S
C603 H583 0.950 . S
C603 C602 1.414 . S
C603 C604 1.374 . S
C604 H584 0.950 . S
C604 C600 1.385 . S
C604 C603 1.374 . S
C605 C602 1.499 . S
C605 C606 1.373 . S
C605 C607 1.389 . S
C606 H585 0.950 . S
C606 C605 1.373 . S
C606 C622 1.377 . S
C607 C605 1.389 . S
C607 C608 1.524 . S
C607 C621 1.377 1_554 S
C608 C607 1.524 . S
C608 C609 1.397 . S
C608 C613 1.363 1_554 S
C609 H586 0.950 . S
C609 C608 1.397 . S
C609 C610 1.334 1_554 S
C610 H587 0.950 . S
C610 C609 1.334 1_556 S
C610 C611 1.287 . S
C611 C610 1.287 . S
C611 C612 1.524 . S
C611 H630 0.913 . S
C612 H588 0.950 . S
C612 C611 1.524 . S
C612 C613 1.415 . S
C613 H589 0.950 . S
C613 C608 1.363 1_556 S
C613 C612 1.415 . S
C614 H590 0.951 . S
C614 C615 1.366 . S
C614 C616 1.388 . S
C615 C614 1.366 . S
C615 C619 1.385 . S
C616 H591 0.951 . S
C616 C614 1.388 . S
C616 C617 1.366 . S
C617 C616 1.366 . S
C617 C618 1.414 . S
C617 C620 1.499 1_556 S
C618 H592 0.950 . S
C618 C617 1.414 . S
C618 C619 1.374 . S
C619 H593 0.950 . S
C619 C615 1.385 . S
C619 C618 1.374 . S
C620 C617 1.499 1_554 S
C620 C621 1.373 1_554 S
C620 C622 1.389 . S
C621 H594 0.950 . S
C621 C607 1.377 1_556 S
C621 C620 1.373 1_556 S
C622 C606 1.377 . S
C622 C620 1.389 . S
C622 C623 1.524 . S
C623 C622 1.524 . S
C623 C624 1.397 . S
C623 C628 1.363 . S
C624 H595 0.950 . S
C624 C623 1.397 . S
C624 C625 1.334 . S
C625 H596 0.950 . S
C625 C624 1.334 . S
C625 C626 1.287 . S
C626 C625 1.287 . S
C626 C627 1.524 . S
C626 H629 0.999 . S
C627 H597 0.950 . S
C627 C626 1.524 . S
C627 C628 1.415 . S
C628 H598 0.950 . S
C628 C623 1.363 . S
C628 C627 1.415 . S
H629 C626 0.999 . S
H630 C611 0.913 . S
H631 C649 0.951 . S
H632 C651 0.951 . S
H633 C653 0.950 . S
H634 C654 0.950 . S
H635 C656 0.950 1_655 S
H636 C659 0.950 . S
H637 C660 0.950 . S
H638 C662 0.950 . S
H639 C663 0.950 . S
H640 C664 0.931 1_655 S
H641 C666 0.951 1_655 S
H642 C668 0.950 . S
H643 C669 0.950 . S
H644 C671 0.950 . S
H645 C674 0.950 . S
H646 C675 0.950 . S
H647 C677 0.950 . S
H648 C678 0.950 . S
C649 H631 0.951 . S
C649 C650 1.366 . S
C649 C651 1.388 . S
C650 C649 1.366 . S
C650 C654 1.385 . S
C651 H632 0.951 . S
C651 C649 1.388 . S
C651 C652 1.366 . S
C652 C651 1.366 . S
C652 C653 1.414 . S
C652 C655 1.499 . S
C653 H633 0.950 . S
C653 C652 1.414 . S
C653 C654 1.374 . S
C654 H634 0.950 . S
C654 C650 1.385 . S
C654 C653 1.374 . S
C655 C652 1.499 . S
C655 C656 1.373 . S
C655 C657 1.389 . S
C656 H635 0.950 1_455 S
C656 C655 1.373 . S
C656 C672 1.377 . S
C657 C655 1.389 . S
C657 C658 1.524 . S
C657 C671 1.377 . S
C658 C657 1.524 . S
C658 C659 1.397 . S
C658 C663 1.363 . S
C659 H636 0.950 . S
C659 C658 1.397 . S
C659 C660 1.334 . S
C660 H637 0.950 . S
C660 C659 1.334 . S
C660 C661 1.287 . S
C661 C660 1.287 . S
C661 C662 1.524 . S
C661 H680 0.913 . S
C662 H638 0.950 . S
C662 C661 1.524 . S
C662 C663 1.415 . S
C663 H639 0.950 . S
C663 C658 1.363 . S
C663 C662 1.415 . S
C664 H640 0.931 1_455 S
C664 C665 1.366 . S
C664 C666 1.388 . S
C665 C664 1.366 . S
C665 C669 1.385 . S
C666 H641 0.951 1_455 S
C666 C664 1.388 . S
C666 C667 1.366 . S
C667 C666 1.366 . S
C667 C668 1.414 . S
C667 C670 1.499 . S
C668 H642 0.950 . S
C668 C667 1.414 . S
C668 C669 1.374 . S
C669 H643 0.950 . S
C669 C665 1.385 . S
C669 C668 1.374 . S
C670 C667 1.499 . S
C670 C671 1.373 . S
C670 C672 1.389 . S
C671 H644 0.950 . S
C671 C657 1.377 . S
C671 C670 1.373 . S
C672 C656 1.377 . S
C672 C670 1.389 . S
C672 C673 1.524 1_455 S
C673 C672 1.524 1_655 S
C673 C674 1.397 . S
C673 C678 1.363 . S
C674 H645 0.950 . S
C674 C673 1.397 . S
C674 C675 1.334 . S
C675 H646 0.950 . S
C675 C674 1.334 . S
C675 C676 1.287 . S
C676 C675 1.287 . S
C676 C677 1.524 . S
C676 H679 0.999 . S
C677 H647 0.950 . S
C677 C676 1.524 . S
C677 C678 1.415 . S
C678 H648 0.950 . S
C678 C673 1.363 . S
C678 C677 1.415 . S
H679 C676 0.999 . S
H680 C661 0.913 . S
C115 C47 1.220 . S
C100 C11 1.213 . S
C150 C25 1.355 . S
C165 C65 1.367 . S
C200 C41 1.335 . S
C215 C78 1.396 . S
C250 C7 1.283 1_565 S
C265 C45 1.278 . S
C315 C56 1.422 . S
C300 C21 1.423 . S
C350 C36 1.382 . S
C365 C69 1.447 . S
C415 C58 1.283 . S
C400 C39 1.271 . S
C450 C8 1.300 1_665 S
C465 C71 1.360 . S
C515 C52 1.493 . S
C500 C22 1.432 1_565 S
C565 C60 1.322 . S
C550 C35 1.334 . S
C615 C73 1.312 . S
C600 C13 1.255 . S
C650 C27 1.378 . S
C665 C43 1.439 . S
