# Generated by pormake.
# Topology gar, (4,6)-cn, num edge types: 1
# Building blocks:
#     Node 0, Type 0, BuildingBlock: TATPOV_clean_sbu_0, # of connection points: 4
#     Node 1, Type 0, BuildingBlock: TATPOV_clean_sbu_0, # of connection points: 4
#     Node 2, Type 0, BuildingBlock: TATPOV_clean_sbu_0, # of connection points: 4
#     Node 3, Type 0, BuildingBlock: TATPOV_clean_sbu_0, # of connection points: 4
#     Node 4, Type 0, BuildingBlock: TATPOV_clean_sbu_0, # of connection points: 4
#     Node 5, Type 0, BuildingBlock: TATPOV_clean_sbu_0, # of connection points: 4
#     Node 6, Type 0, BuildingBlock: TATPOV_clean_sbu_0, # of connection points: 4
#     Node 7, Type 0, BuildingBlock: TATPOV_clean_sbu_0, # of connection points: 4
#     Node 8, Type 0, BuildingBlock: TATPOV_clean_sbu_0, # of connection points: 4
#     Node 9, Type 0, BuildingBlock: TATPOV_clean_sbu_0, # of connection points: 4
#     Node 10, Type 0, BuildingBlock: TATPOV_clean_sbu_0, # of connection points: 4
#     Node 11, Type 0, BuildingBlock: TATPOV_clean_sbu_0, # of connection points: 4
#     Node 12, Type 0, BuildingBlock: TATPOV_clean_sbu_0, # of connection points: 4
#     Node 13, Type 0, BuildingBlock: TATPOV_clean_sbu_0, # of connection points: 4
#     Node 14, Type 0, BuildingBlock: TATPOV_clean_sbu_0, # of connection points: 4
#     Node 15, Type 0, BuildingBlock: TATPOV_clean_sbu_0, # of connection points: 4
#     Node 16, Type 0, BuildingBlock: TATPOV_clean_sbu_0, # of connection points: 4
#     Node 17, Type 0, BuildingBlock: TATPOV_clean_sbu_0, # of connection points: 4
#     Node 18, Type 0, BuildingBlock: TATPOV_clean_sbu_0, # of connection points: 4
#     Node 19, Type 0, BuildingBlock: TATPOV_clean_sbu_0, # of connection points: 4
#     Node 20, Type 0, BuildingBlock: TATPOV_clean_sbu_0, # of connection points: 4
#     Node 21, Type 0, BuildingBlock: TATPOV_clean_sbu_0, # of connection points: 4
#     Node 22, Type 0, BuildingBlock: TATPOV_clean_sbu_0, # of connection points: 4
#     Node 23, Type 0, BuildingBlock: TATPOV_clean_sbu_0, # of connection points: 4
#     Node 24, Type 1, BuildingBlock: KUMJIN_clean_sbu_1, # of connection points: 6
#     Node 25, Type 1, BuildingBlock: KUMJIN_clean_sbu_1, # of connection points: 6
#     Node 26, Type 1, BuildingBlock: KUMJIN_clean_sbu_1, # of connection points: 6
#     Node 27, Type 1, BuildingBlock: KUMJIN_clean_sbu_1, # of connection points: 6
#     Node 28, Type 1, BuildingBlock: KUMJIN_clean_sbu_1, # of connection points: 6
#     Node 29, Type 1, BuildingBlock: KUMJIN_clean_sbu_1, # of connection points: 6
#     Node 30, Type 1, BuildingBlock: KUMJIN_clean_sbu_1, # of connection points: 6
#     Node 31, Type 1, BuildingBlock: KUMJIN_clean_sbu_1, # of connection points: 6
#     Node 32, Type 1, BuildingBlock: KUMJIN_clean_sbu_1, # of connection points: 6
#     Node 33, Type 1, BuildingBlock: KUMJIN_clean_sbu_1, # of connection points: 6
#     Node 34, Type 1, BuildingBlock: KUMJIN_clean_sbu_1, # of connection points: 6
#     Node 35, Type 1, BuildingBlock: KUMJIN_clean_sbu_1, # of connection points: 6
#     Node 36, Type 1, BuildingBlock: KUMJIN_clean_sbu_1, # of connection points: 6
#     Node 37, Type 1, BuildingBlock: KUMJIN_clean_sbu_1, # of connection points: 6
#     Node 38, Type 1, BuildingBlock: KUMJIN_clean_sbu_1, # of connection points: 6
#     Node 39, Type 1, BuildingBlock: KUMJIN_clean_sbu_1, # of connection points: 6
#     Edge 40, Type (0, 1), BuildingBlock: TEMPAE_clean_linker_10, # of connection points: 2
#     Edge 41, Type (0, 1), BuildingBlock: TEMPAE_clean_linker_10, # of connection points: 2
#     Edge 42, Type (0, 1), BuildingBlock: TEMPAE_clean_linker_10, # of connection points: 2
#     Edge 43, Type (0, 1), BuildingBlock: TEMPAE_clean_linker_10, # of connection points: 2
#     Edge 44, Type (0, 1), BuildingBlock: TEMPAE_clean_linker_10, # of connection points: 2
#     Edge 45, Type (0, 1), BuildingBlock: TEMPAE_clean_linker_10, # of connection points: 2
#     Edge 46, Type (0, 1), BuildingBlock: TEMPAE_clean_linker_10, # of connection points: 2
#     Edge 47, Type (0, 1), BuildingBlock: TEMPAE_clean_linker_10, # of connection points: 2
#     Edge 48, Type (0, 1), BuildingBlock: TEMPAE_clean_linker_10, # of connection points: 2
#     Edge 49, Type (0, 1), BuildingBlock: TEMPAE_clean_linker_10, # of connection points: 2
#     Edge 50, Type (0, 1), BuildingBlock: TEMPAE_clean_linker_10, # of connection points: 2
#     Edge 51, Type (0, 1), BuildingBlock: TEMPAE_clean_linker_10, # of connection points: 2
#     Edge 52, Type (0, 1), BuildingBlock: TEMPAE_clean_linker_10, # of connection points: 2
#     Edge 53, Type (0, 1), BuildingBlock: TEMPAE_clean_linker_10, # of connection points: 2
#     Edge 54, Type (0, 1), BuildingBlock: TEMPAE_clean_linker_10, # of connection points: 2
#     Edge 55, Type (0, 1), BuildingBlock: TEMPAE_clean_linker_10, # of connection points: 2
#     Edge 56, Type (0, 1), BuildingBlock: TEMPAE_clean_linker_10, # of connection points: 2
#     Edge 57, Type (0, 1), BuildingBlock: TEMPAE_clean_linker_10, # of connection points: 2
#     Edge 58, Type (0, 1), BuildingBlock: TEMPAE_clean_linker_10, # of connection points: 2
#     Edge 59, Type (0, 1), BuildingBlock: TEMPAE_clean_linker_10, # of connection points: 2
#     Edge 60, Type (0, 1), BuildingBlock: TEMPAE_clean_linker_10, # of connection points: 2
#     Edge 61, Type (0, 1), BuildingBlock: TEMPAE_clean_linker_10, # of connection points: 2
#     Edge 62, Type (0, 1), BuildingBlock: TEMPAE_clean_linker_10, # of connection points: 2
#     Edge 63, Type (0, 1), BuildingBlock: TEMPAE_clean_linker_10, # of connection points: 2
#     Edge 64, Type (0, 1), BuildingBlock: TEMPAE_clean_linker_10, # of connection points: 2
#     Edge 65, Type (0, 1), BuildingBlock: TEMPAE_clean_linker_10, # of connection points: 2
#     Edge 66, Type (0, 1), BuildingBlock: TEMPAE_clean_linker_10, # of connection points: 2
#     Edge 67, Type (0, 1), BuildingBlock: TEMPAE_clean_linker_10, # of connection points: 2
#     Edge 68, Type (0, 1), BuildingBlock: TEMPAE_clean_linker_10, # of connection points: 2
#     Edge 69, Type (0, 1), BuildingBlock: TEMPAE_clean_linker_10, # of connection points: 2
#     Edge 70, Type (0, 1), BuildingBlock: TEMPAE_clean_linker_10, # of connection points: 2
#     Edge 71, Type (0, 1), BuildingBlock: TEMPAE_clean_linker_10, # of connection points: 2
#     Edge 72, Type (0, 1), BuildingBlock: TEMPAE_clean_linker_10, # of connection points: 2
#     Edge 73, Type (0, 1), BuildingBlock: TEMPAE_clean_linker_10, # of connection points: 2
#     Edge 74, Type (0, 1), BuildingBlock: TEMPAE_clean_linker_10, # of connection points: 2
#     Edge 75, Type (0, 1), BuildingBlock: TEMPAE_clean_linker_10, # of connection points: 2
#     Edge 76, Type (0, 1), BuildingBlock: TEMPAE_clean_linker_10, # of connection points: 2
#     Edge 77, Type (0, 1), BuildingBlock: TEMPAE_clean_linker_10, # of connection points: 2
#     Edge 78, Type (0, 1), BuildingBlock: TEMPAE_clean_linker_10, # of connection points: 2
#     Edge 79, Type (0, 1), BuildingBlock: TEMPAE_clean_linker_10, # of connection points: 2
#     Edge 80, Type (0, 1), BuildingBlock: TEMPAE_clean_linker_10, # of connection points: 2
#     Edge 81, Type (0, 1), BuildingBlock: TEMPAE_clean_linker_10, # of connection points: 2
#     Edge 82, Type (0, 1), BuildingBlock: TEMPAE_clean_linker_10, # of connection points: 2
#     Edge 83, Type (0, 1), BuildingBlock: TEMPAE_clean_linker_10, # of connection points: 2
#     Edge 84, Type (0, 1), BuildingBlock: TEMPAE_clean_linker_10, # of connection points: 2
#     Edge 85, Type (0, 1), BuildingBlock: TEMPAE_clean_linker_10, # of connection points: 2
#     Edge 86, Type (0, 1), BuildingBlock: TEMPAE_clean_linker_10, # of connection points: 2
#     Edge 87, Type (0, 1), BuildingBlock: TEMPAE_clean_linker_10, # of connection points: 2
#     Edge 88, Type (0, 1), BuildingBlock: TEMPAE_clean_linker_10, # of connection points: 2
#     Edge 89, Type (0, 1), BuildingBlock: TEMPAE_clean_linker_10, # of connection points: 2
#     Edge 90, Type (0, 1), BuildingBlock: TEMPAE_clean_linker_10, # of connection points: 2
#     Edge 91, Type (0, 1), BuildingBlock: TEMPAE_clean_linker_10, # of connection points: 2
#     Edge 92, Type (0, 1), BuildingBlock: TEMPAE_clean_linker_10, # of connection points: 2
#     Edge 93, Type (0, 1), BuildingBlock: TEMPAE_clean_linker_10, # of connection points: 2
#     Edge 94, Type (0, 1), BuildingBlock: TEMPAE_clean_linker_10, # of connection points: 2
#     Edge 95, Type (0, 1), BuildingBlock: TEMPAE_clean_linker_10, # of connection points: 2
#     Edge 96, Type (0, 1), BuildingBlock: TEMPAE_clean_linker_10, # of connection points: 2
#     Edge 97, Type (0, 1), BuildingBlock: TEMPAE_clean_linker_10, # of connection points: 2
#     Edge 98, Type (0, 1), BuildingBlock: TEMPAE_clean_linker_10, # of connection points: 2
#     Edge 99, Type (0, 1), BuildingBlock: TEMPAE_clean_linker_10, # of connection points: 2
#     Edge 100, Type (0, 1), BuildingBlock: TEMPAE_clean_linker_10, # of connection points: 2
#     Edge 101, Type (0, 1), BuildingBlock: TEMPAE_clean_linker_10, # of connection points: 2
#     Edge 102, Type (0, 1), BuildingBlock: TEMPAE_clean_linker_10, # of connection points: 2
#     Edge 103, Type (0, 1), BuildingBlock: TEMPAE_clean_linker_10, # of connection points: 2
#     Edge 104, Type (0, 1), BuildingBlock: TEMPAE_clean_linker_10, # of connection points: 2
#     Edge 105, Type (0, 1), BuildingBlock: TEMPAE_clean_linker_10, # of connection points: 2
#     Edge 106, Type (0, 1), BuildingBlock: TEMPAE_clean_linker_10, # of connection points: 2
#     Edge 107, Type (0, 1), BuildingBlock: TEMPAE_clean_linker_10, # of connection points: 2
#     Edge 108, Type (0, 1), BuildingBlock: TEMPAE_clean_linker_10, # of connection points: 2
#     Edge 109, Type (0, 1), BuildingBlock: TEMPAE_clean_linker_10, # of connection points: 2
#     Edge 110, Type (0, 1), BuildingBlock: TEMPAE_clean_linker_10, # of connection points: 2
#     Edge 111, Type (0, 1), BuildingBlock: TEMPAE_clean_linker_10, # of connection points: 2
#     Edge 112, Type (0, 1), BuildingBlock: TEMPAE_clean_linker_10, # of connection points: 2
#     Edge 113, Type (0, 1), BuildingBlock: TEMPAE_clean_linker_10, # of connection points: 2
#     Edge 114, Type (0, 1), BuildingBlock: TEMPAE_clean_linker_10, # of connection points: 2
#     Edge 115, Type (0, 1), BuildingBlock: TEMPAE_clean_linker_10, # of connection points: 2
#     Edge 116, Type (0, 1), BuildingBlock: TEMPAE_clean_linker_10, # of connection points: 2
#     Edge 117, Type (0, 1), BuildingBlock: TEMPAE_clean_linker_10, # of connection points: 2
#     Edge 118, Type (0, 1), BuildingBlock: TEMPAE_clean_linker_10, # of connection points: 2
#     Edge 119, Type (0, 1), BuildingBlock: TEMPAE_clean_linker_10, # of connection points: 2
#     Edge 120, Type (0, 1), BuildingBlock: TEMPAE_clean_linker_10, # of connection points: 2
#     Edge 121, Type (0, 1), BuildingBlock: TEMPAE_clean_linker_10, # of connection points: 2
#     Edge 122, Type (0, 1), BuildingBlock: TEMPAE_clean_linker_10, # of connection points: 2
#     Edge 123, Type (0, 1), BuildingBlock: TEMPAE_clean_linker_10, # of connection points: 2
#     Edge 124, Type (0, 1), BuildingBlock: TEMPAE_clean_linker_10, # of connection points: 2
#     Edge 125, Type (0, 1), BuildingBlock: TEMPAE_clean_linker_10, # of connection points: 2
#     Edge 126, Type (0, 1), BuildingBlock: TEMPAE_clean_linker_10, # of connection points: 2
#     Edge 127, Type (0, 1), BuildingBlock: TEMPAE_clean_linker_10, # of connection points: 2
#     Edge 128, Type (0, 1), BuildingBlock: TEMPAE_clean_linker_10, # of connection points: 2
#     Edge 129, Type (0, 1), BuildingBlock: TEMPAE_clean_linker_10, # of connection points: 2
#     Edge 130, Type (0, 1), BuildingBlock: TEMPAE_clean_linker_10, # of connection points: 2
#     Edge 131, Type (0, 1), BuildingBlock: TEMPAE_clean_linker_10, # of connection points: 2
#     Edge 132, Type (0, 1), BuildingBlock: TEMPAE_clean_linker_10, # of connection points: 2
#     Edge 133, Type (0, 1), BuildingBlock: TEMPAE_clean_linker_10, # of connection points: 2
#     Edge 134, Type (0, 1), BuildingBlock: TEMPAE_clean_linker_10, # of connection points: 2
#     Edge 135, Type (0, 1), BuildingBlock: TEMPAE_clean_linker_10, # of connection points: 2
# Relax obj value: 0.087
# Max RMSD: 0.186
# Mean RMSD: 0.129
data_MOF--net-gar--node1-TATPOV_clean_sbu_0--node2-KUMJIN_clean_sbu_1--edge1-TEMPAE_clean_linker_10
_symmetry_space_group_name_H-M    P1
_symmetry_Int_Tables_number       1
_symmetry_cell_setting            triclinic
loop_
_symmetry_equiv_pos_as_xyz
'x, y, z'
_cell_length_a     60.70734
_cell_length_b     60.750295
_cell_length_c     57.665006
_cell_angle_alpha  96.538547
_cell_angle_beta   97.027373
_cell_angle_gamma 102.84568
loop_
_atom_site_label
_atom_site_type_symbol
_atom_site_fract_x
_atom_site_fract_y
_atom_site_fract_z
_atom_type_partial_charge
Zn0 Zn 0.02577 0.30896 0.37659 0.0
Zn1 Zn 0.05262 0.31448 0.3501 0.0
O2 O 0.05958 0.34776 0.37364 0.0
O3 O 0.03017 0.33972 0.39259 0.0
O4 O 0.08033 0.31238 0.32914 0.0
O5 O 0.03369 0.28733 0.39619 0.0
O6 O 0.05369 0.28456 0.36724 0.0
C7 C 0.04736 0.35403 0.38888 0.0
C8 C 0.99886 0.30297 0.33375 0.0
O9 O 0.01887 0.31055 0.32808 0.0
O10 O 0.99755 0.29778 0.35416 0.0
C11 C 0.10171 0.32255 0.33502 0.0
O12 O 0.10741 0.33807 0.35392 0.0
C13 C 0.046 0.27698 0.38532 0.0
Zn14 Zn 0.01903 0.72105 0.71265 0.0
Zn15 Zn 0.02349 0.75423 0.68677 0.0
O16 O 0.99378 0.75714 0.70318 0.0
O17 O 0.99016 0.72982 0.72525 0.0
O18 O 0.0267 0.7799 0.66656 0.0
O19 O 0.05389 0.73258 0.72719 0.0
O20 O 0.05719 0.76094 0.7064 0.0
C21 C 0.98277 0.74606 0.71755 0.0
C22 C 0.01571 0.70408 0.6628 0.0
O23 O 0.01897 0.72535 0.66124 0.0
O24 O 0.01424 0.6974 0.68273 0.0
C25 C 0.00997 0.78697 0.65712 0.0
O26 O 0.98917 0.77754 0.6605 0.0
C27 C 0.0665 0.74978 0.72072 0.0
Zn28 Zn 0.52564 0.80754 0.8777 0.0
Zn29 Zn 0.555 0.8145 0.8537 0.0
O30 O 0.56053 0.84745 0.87654 0.0
O31 O 0.52805 0.83917 0.89037 0.0
O32 O 0.58515 0.81209 0.83688 0.0
O33 O 0.53478 0.78839 0.90026 0.0
O34 O 0.55535 0.78556 0.87178 0.0
C35 C 0.54591 0.85375 0.88873 0.0
C36 C 0.50187 0.80098 0.83349 0.0
O37 O 0.5223 0.81049 0.83005 0.0
O38 O 0.49926 0.79385 0.8529 0.0
C39 C 0.59651 0.82077 0.82126 0.0
O40 O 0.58922 0.83631 0.81048 0.0
C41 C 0.5481 0.77868 0.89028 0.0
Zn42 Zn 0.51952 0.22238 0.21423 0.0
Zn43 Zn 0.52285 0.25345 0.18598 0.0
O44 O 0.49346 0.2574 0.20265 0.0
O45 O 0.48957 0.23023 0.22485 0.0
O46 O 0.52612 0.27848 0.16463 0.0
O47 O 0.55374 0.23513 0.22997 0.0
O48 O 0.55685 0.26036 0.2054 0.0
C49 C 0.48212 0.24629 0.21679 0.0
C50 C 0.51638 0.20261 0.16503 0.0
O51 O 0.51748 0.22327 0.16164 0.0
O52 O 0.51664 0.19769 0.18585 0.0
C53 C 0.51007 0.28767 0.15747 0.0
O54 O 0.48984 0.28079 0.16367 0.0
C55 C 0.56625 0.25107 0.22159 0.0
Zn56 Zn 0.09536 0.79853 0.0778 0.0
Zn57 Zn 0.06478 0.79514 0.10648 0.0
O58 O 0.06053 0.82442 0.08919 0.0
O59 O 0.08615 0.82745 0.0654 0.0
O60 O 0.03965 0.79183 0.12736 0.0
O61 O 0.08222 0.76393 0.06242 0.0
O62 O 0.05828 0.76116 0.08815 0.0
C63 C 0.0705 0.83517 0.07392 0.0
C64 C 0.11558 0.8023 0.12799 0.0
O65 O 0.09468 0.80001 0.13096 0.0
O66 O 0.1206 0.8031 0.10727 0.0
C67 C 0.03062 0.80786 0.13463 0.0
O68 O 0.03781 0.82825 0.12885 0.0
C69 C 0.06681 0.75158 0.07162 0.0
Zn70 Zn 0.47655 0.76278 0.46666 0.0
Zn71 Zn 0.50576 0.76554 0.43725 0.0
O72 O 0.51263 0.79994 0.45612 0.0
O73 O 0.4885 0.79669 0.48165 0.0
O74 O 0.53288 0.76616 0.41903 0.0
O75 O 0.48534 0.73451 0.48049 0.0
O76 O 0.50744 0.73526 0.45322 0.0
C77 C 0.50357 0.80936 0.47239 0.0
C78 C 0.45586 0.76032 0.41647 0.0
O79 O 0.47628 0.76153 0.41227 0.0
O80 O 0.45167 0.75967 0.4375 0.0
C81 C 0.53504 0.77247 0.39896 0.0
O82 O 0.51868 0.78018 0.388 0.0
C83 C 0.49899 0.72548 0.46982 0.0
Zn84 Zn 0.59487 0.29799 0.57749 0.0
Zn85 Zn 0.56294 0.29252 0.60357 0.0
O86 O 0.56069 0.32332 0.58871 0.0
O87 O 0.58421 0.32507 0.56272 0.0
O88 O 0.53601 0.28897 0.62179 0.0
O89 O 0.58504 0.26311 0.56317 0.0
O90 O 0.55642 0.25908 0.58335 0.0
C91 C 0.56975 0.33354 0.57266 0.0
C92 C 0.61281 0.30181 0.62807 0.0
O93 O 0.59149 0.2964 0.62959 0.0
O94 O 0.61887 0.30515 0.60816 0.0
C95 C 0.53317 0.3048 0.63679 0.0
O96 O 0.5486 0.32431 0.64138 0.0
C97 C 0.56788 0.25011 0.56926 0.0
Zn98 Zn 0.97697 0.26216 0.96538 0.0
Zn99 Zn 0.0057 0.26493 0.93565 0.0
O100 O 0.01395 0.29925 0.95462 0.0
O101 O 0.98861 0.29666 0.97892 0.0
O102 O 0.03199 0.26492 0.91633 0.0
O103 O 0.98676 0.23452 0.97993 0.0
O104 O 0.0076 0.23447 0.95157 0.0
C105 C 1.00443 0.30896 0.97023 0.0
C106 C 0.95507 0.25994 0.91594 0.0
O107 O 0.9756 0.26218 0.9116 0.0
O108 O 0.95112 0.25778 0.93684 0.0
C109 C 0.0354 0.27418 0.89795 0.0
O110 O 0.02086 0.28549 0.88954 0.0
C111 C 0.99989 0.22515 0.96878 0.0
Zn112 Zn 0.39487 0.97969 0.28589 0.0
Zn113 Zn 0.38845 0.01794 0.29327 0.0
O114 O 0.41263 0.01842 0.31893 0.0
O115 O 0.40054 0.98207 0.32163 0.0
O116 O 0.38289 0.04796 0.29788 0.0
O117 O 0.42072 0.99291 0.26934 0.0
O118 O 0.39848 0.01591 0.26173 0.0
C119 C 0.41191 1.00193 0.33056 0.0
C120 C 0.35037 0.98002 0.28143 0.0
O121 O 0.35918 0.99717 0.2969 0.0
O122 O 0.36284 0.97331 0.26754 0.0
C123 C 0.37189 0.05478 0.31338 0.0
O124 O 0.36475 0.04151 0.32876 0.0
C125 C 0.41492 0.0073 0.25715 0.0
Zn126 Zn 0.24402 0.20723 0.50644 0.0
Zn127 Zn 0.2756 0.18397 0.50969 0.0
O128 O 0.28043 0.2005 0.47988 0.0
O129 O 0.25751 0.22384 0.48084 0.0
O130 O 0.30056 0.16668 0.51251 0.0
O131 O 0.25195 0.21887 0.54184 0.0
O132 O 0.28123 0.20299 0.54335 0.0
C133 C 0.27237 0.21603 0.47112 0.0
C134 C 0.22503 0.15895 0.49882 0.0
O135 O 0.24579 0.15849 0.50512 0.0
O136 O 0.21982 0.17768 0.4963 0.0
C137 C 0.3077 0.15646 0.4955 0.0
O138 O 0.29863 0.15678 0.47369 0.0
C139 C 0.26928 0.21481 0.55357 0.0
Zn140 Zn 0.10761 0.07246 0.78417 0.0
Zn141 Zn 0.13357 0.04242 0.78259 0.0
O142 O 0.11685 0.03739 0.81218 0.0
O143 O 0.09525 0.06211 0.81325 0.0
O144 O 0.15018 0.01687 0.78033 0.0
O145 O 0.09146 0.06031 0.75025 0.0
O146 O 0.11575 0.03839 0.74832 0.0
C147 C 0.10271 0.04656 0.82209 0.0
C148 C 0.15711 0.09264 0.79101 0.0
O149 O 0.15886 0.07201 0.78849 0.0
O150 O 0.13755 0.09703 0.78982 0.0
C151 C 0.17014 0.01809 0.79104 0.0
O152 O 0.18122 0.03697 0.80493 0.0
C153 C 0.09977 0.04621 0.7383 0.0
Zn154 Zn 0.3448 0.89439 -0.00697 0.0
Zn155 Zn 0.29693 0.92944 0.99097 0.0
O156 O 0.29594 0.92038 0.95647 0.0
O157 O 0.32337 0.90903 0.97439 0.0
O158 O 0.2688 0.93816 -0.00716 0.0
O159 O 0.32412 0.88138 0.01607 0.0
O160 O 0.29981 0.9044 0.01211 0.0
C161 C 0.31087 0.90915 0.95526 0.0
C162 C 0.34022 0.94702 0.0046 0.0
O163 O 0.32347 0.95621 0.00242 0.0
O164 O 0.33629 0.92565 -0.00163 0.0
C165 C 0.26626 0.95336 0.98019 0.0
O166 O 0.28288 0.96262 0.96914 0.0
C167 C 0.30664 0.88841 0.02128 0.0
Zn168 Zn 0.32979 0.35392 0.03625 0.0
Zn169 Zn 0.29974 0.37958 0.03391 0.0
O170 O 0.29481 0.36086 -0.0001 0.0
O171 O 0.31874 0.33857 0.00274 0.0
O172 O 0.27368 0.39576 0.03251 0.0
O173 O 0.31844 0.33969 0.0639 0.0
O174 O 0.29561 0.36323 0.06388 0.0
C175 C 0.30383 0.34567 0.99034 0.0
C176 C 0.35002 0.4028 0.04037 0.0
O177 O 0.32942 0.40467 0.03795 0.0
O178 O 0.35451 0.38343 0.04072 0.0
C179 C 0.27566 0.41706 0.03832 0.0
O180 O 0.2961 0.43053 0.04545 0.0
C181 C 0.30362 0.34793 0.0731 0.0
Zn182 Zn 0.74081 0.14749 0.06136 0.0
Zn183 Zn 0.77558 0.13004 0.05724 0.0
O184 O 0.77973 0.14985 0.03205 0.0
O185 O 0.74324 0.1503 0.02705 0.0
O186 O 0.80092 0.11539 0.05962 0.0
O187 O 0.75829 0.17276 0.08495 0.0
O188 O 0.77852 0.1471 0.08973 0.0
C189 C 0.76256 0.15399 0.02003 0.0
C190 C 0.73147 0.10342 0.05783 0.0
O191 O 0.7474 0.10525 0.04558 0.0
O192 O 0.73407 0.11815 0.0757 0.0
C193 C 0.80077 0.10012 0.04279 0.0
O194 O 0.78387 0.09502 0.02502 0.0
C195 C 0.77236 0.16481 0.09746 0.0
Zn196 Zn 0.17598 0.58338 0.23713 0.0
Zn197 Zn 0.18864 0.54704 0.24014 0.0
O198 O 0.16491 0.54334 0.26131 0.0
O199 O 0.17056 0.58042 0.27099 0.0
O200 O 0.19948 0.51951 0.24015 0.0
O201 O 0.15132 0.56647 0.21146 0.0
O202 O 0.17633 0.5457 0.20639 0.0
C203 C 0.16303 0.5603 0.27519 0.0
C204 C 0.22159 0.58898 0.24407 0.0
O205 O 0.21558 0.5721 0.2547 0.0
O206 O 0.20757 0.59188 0.22738 0.0
C207 C 0.21678 0.51679 0.23099 0.0
O208 O 0.22846 0.53334 0.22138 0.0
C209 C 0.15869 0.55212 0.1989 0.0
Zn210 Zn 0.83027 0.85589 0.53717 0.0
Zn211 Zn 0.80037 0.88035 0.53433 0.0
O212 O 0.7944 0.86138 0.50017 0.0
O213 O 0.8199 0.84074 0.50361 0.0
O214 O 0.77502 0.89748 0.53507 0.0
O215 O 0.82079 0.84216 0.56538 0.0
O216 O 0.79546 0.86302 0.56353 0.0
C217 C 0.80436 0.84679 0.491 0.0
C218 C 0.85162 0.90361 0.54221 0.0
O219 O 0.83099 0.90565 0.5391 0.0
O220 O 0.85552 0.88404 0.54263 0.0
C221 C 0.77432 0.91505 0.5252 0.0
O222 O 0.79063 0.92281 0.51309 0.0
C223 C 0.80478 0.84902 0.57367 0.0
Zn224 Zn 0.96497 0.99005 0.25777 0.0
Zn225 Zn 0.93456 0.01567 0.25465 0.0
O226 O 0.95199 0.02352 0.28941 0.0
O227 O 0.9801 0.00597 0.2903 0.0
O228 O 0.9144 0.03813 0.25211 0.0
O229 O 0.97756 1.00011 0.22863 0.0
O230 O 0.95239 0.02109 0.22629 0.0
C231 C 0.96952 0.01895 0.3006 0.0
C232 C 0.91647 0.96526 0.25313 0.0
O233 O 0.91205 0.98447 0.25071 0.0
O234 O 0.93704 0.96349 0.25625 0.0
C235 C 0.90884 0.04788 0.27042 0.0
O236 O 0.91547 0.04257 0.29116 0.0
C237 C 0.96866 0.01401 0.21826 0.0
Zn238 Zn 0.22774 0.66421 0.52889 0.0
Zn239 Zn 0.27792 0.63471 0.55207 0.0
O240 O 0.28084 0.63339 0.51695 0.0
O241 O 0.2502 0.6443 0.52216 0.0
O242 O 0.30628 0.62854 0.56769 0.0
O243 O 0.24213 0.6773 0.56357 0.0
O244 O 0.27577 0.66822 0.56162 0.0
C245 C 0.2658 0.64348 0.50966 0.0
C246 C 0.23314 0.61888 0.55138 0.0
O247 O 0.25008 0.61101 0.55762 0.0
O248 O 0.23731 0.63746 0.54295 0.0
C249 C 0.30535 0.60779 0.56962 0.0
O250 O 0.28526 0.59339 0.56677 0.0
C251 C 0.26171 0.67557 0.57336 0.0
Zn252 Zn 0.46318 0.48959 0.75659 0.0
Zn253 Zn 0.43425 0.51617 0.7528 0.0
O254 O 0.45159 0.52389 0.78773 0.0
O255 O 0.47945 0.506 0.78852 0.0
O256 O 0.41685 0.54093 0.75011 0.0
O257 O 0.47596 0.49721 0.72679 0.0
O258 O 0.45151 0.51894 0.72358 0.0
C259 C 0.4691 0.51917 0.79889 0.0
C260 C 0.41398 0.46672 0.75317 0.0
O261 O 0.41012 0.48597 0.74976 0.0
O262 O 0.43435 0.46436 0.75652 0.0
C263 C 0.3999 0.54199 0.76075 0.0
O264 O 0.39306 0.52626 0.7739 0.0
C265 C 0.4672 0.51073 0.71567 0.0
Zn266 Zn 0.66474 0.07799 0.74161 0.0
Zn267 Zn 0.68872 0.04669 0.74127 0.0
O268 O 0.67834 0.0448 0.77258 0.0
O269 O 0.64894 0.06001 0.76481 0.0
O270 O 0.70254 0.02112 0.736 0.0
O271 O 0.65485 0.06895 0.70694 0.0
O272 O 0.66428 0.03723 0.71436 0.0
C273 C 0.65973 0.04888 0.77741 0.0
C274 C 0.71377 0.09338 0.75008 0.0
O275 O 0.71404 0.07368 0.74074 0.0
O276 O 0.69526 0.09843 0.75378 0.0
C277 C 0.72385 0.02319 0.74027 0.0
O278 O 0.73733 0.04285 0.75034 0.0
C279 C 0.65438 0.0482 0.701 0.0
Zn280 Zn 0.74578 0.71039 0.00741 0.0
Zn281 Zn 0.77402 0.68359 0.00848 0.0
O282 O 0.77898 0.7003 0.9789 0.0
O283 O 0.75786 0.7253 0.98034 0.0
O284 O 0.79885 0.66605 0.00909 0.0
O285 O 0.75615 0.72391 0.04171 0.0
O286 O 0.78059 0.702 0.04277 0.0
C287 C 0.77184 0.71638 0.9703 0.0
C288 C 0.72295 0.66212 0.00127 0.0
O289 O 0.74328 0.6593 0.00421 0.0
O290 O 0.7198 0.68202 0.00085 0.0
C291 C 0.7972 0.64658 -0.00273 0.0
O292 O 0.77788 0.63605 0.98369 0.0
C293 C 0.77164 0.71678 0.05315 0.0
Zn294 Zn 0.90551 0.48874 0.79092 0.0
Zn295 Zn 0.8896 0.52095 0.79444 0.0
O296 O 0.90837 0.52354 0.82539 0.0
O297 O 0.90537 0.48692 0.82541 0.0
O298 O 0.8776 0.54799 0.79821 0.0
O299 O 0.93314 0.506 0.78028 0.0
O300 O 0.90803 0.52459 0.76762 0.0
C301 C 0.91001 0.507 0.83637 0.0
C302 C 0.86091 0.47647 0.77379 0.0
O303 O 0.86235 0.49377 0.78896 0.0
O304 O 0.87872 0.47342 0.76612 0.0
C305 C 0.86384 0.55001 0.81267 0.0
O306 O 0.85647 0.5332 0.82437 0.0
C307 C 0.92687 0.519 0.76658 0.0
Zn308 Zn 0.83085 0.3922 0.48316 0.0
Zn309 Zn 0.7954 0.4144 0.489 0.0
O310 O 0.79316 0.40572 0.45465 0.0
O311 O 0.83008 0.41161 0.45565 0.0
O312 O 0.77073 0.43021 0.49091 0.0
O313 O 0.82352 0.39124 0.51685 0.0
O314 O 0.78695 0.38905 0.50753 0.0
C315 C 0.81045 0.41009 0.44425 0.0
C316 C 0.84315 0.441 0.49556 0.0
O317 O 0.82447 0.4382 0.50392 0.0
O318 O 0.84707 0.42527 0.4812 0.0
C319 C 0.76921 0.44706 0.48022 0.0
O320 O 0.78521 0.45531 0.46796 0.0
C321 C 0.80341 0.38659 0.52178 0.0
Zn322 Zn 0.60751 0.57308 0.28251 0.0
Zn323 Zn 0.63243 0.54214 0.28205 0.0
O324 O 0.61585 0.53786 0.31138 0.0
O325 O 0.59568 0.56383 0.31206 0.0
O326 O 0.64885 0.51697 0.281 0.0
O327 O 0.59122 0.5595 0.24898 0.0
O328 O 0.61459 0.53654 0.24817 0.0
C329 C 0.60248 0.54811 0.32127 0.0
C330 C 0.65679 0.59196 0.28876 0.0
O331 O 0.65798 0.57122 0.28678 0.0
O332 O 0.63761 0.59713 0.28749 0.0
C333 C 0.66807 0.51835 0.29334 0.0
O334 O 0.67801 0.53707 0.30803 0.0
C335 C 0.59888 0.54437 0.23777 0.0
Eu336 Eu 0.06647 0.04397 0.03736 0.0
C337 C 0.99039 0.96361 0.98231 0.0
N338 N 1.00254 0.98342 0.97663 0.0
C339 C 0.0053 0.96421 0.93881 0.0
C340 C 0.98606 0.94303 0.96659 0.0
C341 C 0.00932 0.98414 0.95497 0.0
C342 C 0.9938 0.94352 0.94471 0.0
C343 C 0.96964 0.94351 0.01012 0.0
C344 C 0.98205 0.96394 0.00384 0.0
C345 C 0.96587 0.92293 -0.00527 0.0
C346 C 0.97389 0.92273 0.97298 0.0
Eu347 Eu 1.00496 0.01645 0.00331 0.0
N348 N 0.98536 0.98422 0.01822 0.0
C349 C 0.96081 0.94442 0.03141 0.0
C350 C 0.97526 0.98536 0.03803 0.0
C351 C 0.96342 0.96547 0.04529 0.0
H352 H 0.01704 1.00015 0.94969 0.0
H353 H 0.95583 0.96646 0.0613 0.0
H354 H 0.05753 0.05952 0.09322 0.0
H355 H 0.11594 0.0941 0.98045 0.0
H356 H 0.97557 1.00155 0.04795 0.0
H357 H 0.95128 0.92909 0.03689 0.0
H358 H 0.09374 0.05931 0.99247 0.0
H359 H 0.01071 0.96488 0.92165 0.0
H360 H 0.95633 0.90712 -0.00071 0.0
H361 H 0.97043 0.90677 0.96112 0.0
H362 H 0.06554 0.09417 0.12219 0.0
H363 H 0.99057 0.92812 0.93206 0.0
H364 H 0.12374 0.13096 0.00674 0.0
N365 N 0.07063 0.07666 0.06577 0.0
C366 C 0.08303 0.09654 0.0604 0.0
C367 C 0.07011 0.09519 0.10471 0.0
C368 C 0.0889 0.11669 0.07697 0.0
C369 C 0.06492 0.07561 0.08789 0.0
C370 C 0.08198 0.11587 0.09918 0.0
N371 N 0.08657 0.07661 0.02374 0.0
C372 C 0.09586 0.07544 0.00338 0.0
C373 C 0.10483 0.11667 0.03323 0.0
C374 C 0.09125 0.09651 0.03888 0.0
C375 C 0.11329 0.11583 0.01171 0.0
C376 C 0.10889 0.09508 -0.00322 0.0
H377 H 0.08638 0.13091 0.11245 0.0
H378 H 0.10697 0.15237 0.08386 0.0
H379 H 0.12062 0.15241 0.04548 0.0
O380 O 0.09724 0.03143 0.03345 0.0
O381 O 0.04964 0.06813 0.01678 0.0
O382 O 0.01122 0.05498 0.01705 0.0
O383 O 0.09367 0.05005 0.06716 0.0
O384 O 0.06398 0.02549 -7e-05 0.0
O385 O 0.03129 0.03329 0.98243 0.0
O386 O 0.96795 0.01001 -0.00418 0.0
O387 O 0.0288 0.99177 0.01038 0.0
O388 O 0.05041 0.00838 0.04577 0.0
O389 O 0.9884 0.02422 0.97046 0.0
O390 O 1.00469 0.03288 0.04083 0.0
O391 O 0.03979 0.03112 0.06 0.0
C392 C 0.02877 0.07154 0.01475 0.0
C393 C 0.12858 0.03784 0.06624 0.0
C394 C 0.16269 0.02421 0.06253 0.0
C395 C 0.17277 0.03605 0.08505 0.0
C396 C 0.13867 0.04968 0.08876 0.0
C397 C 0.16064 0.04857 0.09819 0.0
C398 C 0.14036 0.02466 0.05364 0.0
C399 C 0.05148 0.02935 0.98119 0.0
C400 C 0.10618 0.03972 0.05535 0.0
C401 C 0.10225 0.13681 0.07129 0.0
C402 C 0.11008 0.13682 0.04945 0.0
C403 C 0.04082 0.98987 0.03052 0.0
C404 C 0.95365 0.03476 0.97261 0.0
C405 C 0.93022 0.059 0.98767 0.0
C406 C 0.9247 0.06399 0.96477 0.0
C407 C 0.94791 0.03972 0.9498 0.0
C408 C 0.94496 0.04464 0.99156 0.0
C409 C 0.9336 0.05442 0.94596 0.0
C410 C 0.01894 0.03373 0.06023 0.0
C411 C 0.96801 0.01863 0.97616 0.0
H412 H 0.19013 0.03611 0.09223 0.0
H413 H 0.12974 0.05998 0.09892 0.0
H414 H 0.16846 0.05782 0.11546 0.0
H415 H 0.13224 0.01503 0.03657 0.0
H416 H 0.91288 0.07463 0.96127 0.0
H417 H 0.95435 0.03205 0.93496 0.0
H418 H 0.9492 0.04084 0.00924 0.0
H419 H 0.92901 0.05803 0.9283 0.0
Eu420 Eu 0.26408 0.77872 0.30606 0.0
C421 C 0.31706 0.74577 0.21531 0.0
N422 N 0.32537 0.76182 0.23474 0.0
C423 C 0.35923 0.74772 0.24086 0.0
C424 C 0.32908 0.72926 0.20867 0.0
C425 C 0.3465 0.76345 0.24704 0.0
C426 C 0.35034 0.73034 0.22182 0.0
C427 C 0.28645 0.72842 0.18283 0.0
C428 C 0.29614 0.74551 0.20234 0.0
C429 C 0.29813 0.71164 0.17652 0.0
C430 C 0.31943 0.71212 0.18934 0.0
Eu431 Eu 0.30113 0.78568 0.24582 0.0
N432 N 0.28465 0.76122 0.20974 0.0
C433 C 0.2651 0.72844 0.17054 0.0
C434 C 0.2644 0.76201 0.19706 0.0
C435 C 0.25419 0.7455 0.17749 0.0
H436 H 0.35374 0.77694 0.26161 0.0
H437 H 0.23785 0.74589 0.16786 0.0
H438 H 0.21233 0.78737 0.29247 0.0
H439 H 0.33312 0.82414 0.37802 0.0
H440 H 0.25594 0.77526 0.20192 0.0
H441 H 0.257 0.7155 0.15558 0.0
H442 H 0.31291 0.79231 0.34783 0.0
H443 H 0.37586 0.74895 0.25087 0.0
H444 H 0.29084 0.69822 0.16176 0.0
H445 H 0.32826 0.6991 0.18422 0.0
H446 H 0.19041 0.81577 0.30331 0.0
H447 H 0.36012 0.71799 0.21728 0.0
H448 H 0.31522 0.85587 0.38877 0.0
N449 N 0.24153 0.80371 0.31774 0.0
C450 C 0.25127 0.82127 0.33529 0.0
C451 C 0.20752 0.81753 0.31243 0.0
C452 C 0.23964 0.83815 0.3417 0.0
C453 C 0.21993 0.80146 0.30639 0.0
C454 C 0.21747 0.83605 0.33007 0.0
N455 N 0.28396 0.80614 0.33935 0.0
C456 C 0.30487 0.80613 0.35132 0.0
C457 C 0.28422 0.84121 0.36397 0.0
C458 C 0.27328 0.82273 0.34617 0.0
C459 C 0.3062 0.84193 0.3751 0.0
C460 C 0.31639 0.82411 0.36901 0.0
H461 H 0.20795 0.84866 0.33449 0.0
H462 H 0.24205 0.87003 0.36409 0.0
H463 H 0.28112 0.87272 0.38361 0.0
O464 O 0.2642 0.75239 0.32835 0.0
O465 O 0.26971 0.81246 0.29429 0.0
O466 O 0.30172 0.80729 0.2809 0.0
O467 O 0.23215 0.7547 0.30895 0.0
O468 O 0.30024 0.7718 0.31065 0.0
O469 O 0.3226 0.78401 0.28141 0.0
O470 O 0.30039 0.81283 0.22413 0.0
O471 O 0.28398 0.74861 0.24506 0.0
O472 O 0.27748 0.76761 0.2755 0.0
O473 O 0.33275 0.80768 0.24 0.0
O474 O 0.26442 0.79184 0.24274 0.0
O475 O 0.24182 0.77381 0.26937 0.0
C476 C 0.28737 0.82015 0.28428 0.0
C477 C 0.2327 0.74538 0.34785 0.0
C478 C 0.23547 0.73468 0.38706 0.0
C479 C 0.21966 0.74726 0.39286 0.0
C480 C 0.21708 0.7583 0.35373 0.0
C481 C 0.21053 0.7591 0.37618 0.0
C482 C 0.24173 0.73358 0.3646 0.0
C483 C 0.31992 0.77628 0.30192 0.0
C484 C 0.24202 0.74582 0.32563 0.0
C485 C 0.25061 0.85674 0.35911 0.0
C486 C 0.27287 0.8583 0.37017 0.0
C487 C 0.27454 0.74782 0.26357 0.0
C488 C 0.33333 0.82588 0.20599 0.0
C489 C 0.33094 0.83834 0.16743 0.0
C490 C 0.35495 0.84353 0.16964 0.0
C491 C 0.35729 0.83108 0.20788 0.0
C492 C 0.32021 0.82953 0.18568 0.0
C493 C 0.368 0.83978 0.18973 0.0
C494 C 0.24448 0.78377 0.25002 0.0
C495 C 0.32262 0.81927 0.22641 0.0
H496 H 0.21457 0.74803 0.41024 0.0
H497 H 0.21024 0.76801 0.34124 0.0
H498 H 0.19854 0.76906 0.38072 0.0
H499 H 0.25398 0.72376 0.36026 0.0
H500 H 0.36367 0.85087 0.15602 0.0
H501 H 0.3678 0.8289 0.22365 0.0
H502 H 0.30173 0.82575 0.18411 0.0
H503 H 0.38646 0.84399 0.19141 0.0
Eu504 Eu 0.50654 0.02731 0.53711 0.0
C505 C 0.58658 0.07733 0.48715 0.0
N506 N 0.57054 0.05763 0.47869 0.0
C507 C 0.56638 0.06874 0.44022 0.0
C508 C 0.59308 0.09367 0.47222 0.0
C509 C 0.56041 0.05304 0.45567 0.0
C510 C 0.58281 0.08911 0.4485 0.0
C511 C 0.61225 0.10208 0.52032 0.0
C512 C 0.59608 0.08151 0.51105 0.0
C513 C 0.61895 0.11824 0.50536 0.0
C514 C 0.60942 0.11404 0.48141 0.0
Eu515 Eu 0.56325 0.03204 0.50585 0.0
N516 N 0.58888 0.06582 0.52535 0.0
C517 C 0.62113 0.10586 0.54441 0.0
C518 C 0.59785 0.06911 0.54866 0.0
C519 C 0.61396 0.08928 0.5586 0.0
H520 H 0.54808 0.03709 0.44914 0.0
H521 H 0.62097 0.09194 0.57716 0.0
H522 H 0.52148 0.02465 0.59455 0.0
H523 H 0.44333 0.96757 0.46999 0.0
H524 H 0.59289 0.05616 0.55956 0.0
H525 H 0.63361 0.12146 0.55219 0.0
H526 H 0.47184 0.00336 0.48613 0.0
H527 H 0.55842 0.06506 0.42191 0.0
H528 H 0.63142 0.13412 0.51217 0.0
H529 H 0.61469 0.12675 0.47017 0.0
H530 H 0.51257 0.99756 0.62294 0.0
H531 H 0.5874 0.10123 0.43646 0.0
H532 H 0.4329 0.93819 0.49575 0.0
N533 N 0.4996 0.00272 0.56556 0.0
C534 C 0.48351 0.98284 0.55806 0.0
C535 C 0.50443 0.99313 0.60471 0.0
C536 C 0.4775 0.9671 0.57375 0.0
C537 C 0.50975 0.00827 0.58855 0.0
C538 C 0.48829 0.97243 0.59727 0.0
N539 N 0.47928 0.99354 0.5197 0.0
C540 C 0.46834 0.99027 0.49707 0.0
C541 C 0.45624 0.95769 0.52636 0.0
C542 C 0.47296 0.97817 0.53457 0.0
C543 C 0.44583 0.9537 0.50273 0.0
C544 C 0.45177 0.97017 0.48809 0.0
H545 H 0.48411 0.96079 0.60987 0.0
H546 H 0.45602 0.93441 0.5774 0.0
H547 H 0.43747 0.92618 0.53596 0.0
O548 O 0.47701 0.04204 0.52793 0.0
O549 O 0.51708 0.99317 0.52732 0.0
O550 O 0.53732 0.99724 0.49583 0.0
O551 O 0.48915 0.03973 0.56479 0.0
O552 O 0.50771 0.03964 0.50188 0.0
O553 O 0.5298 0.01946 0.48285 0.0
O554 O 0.59356 0.01857 0.51527 0.0
O555 O 0.55059 0.06527 0.514 0.0
O556 O 0.53322 0.06155 0.54722 0.0
O557 O 0.58137 0.0205 0.47833 0.0
O558 O 0.5623 0.01784 0.53962 0.0
O559 O 0.54091 0.0382 0.5589 0.0
C560 C 0.52583 0.98435 0.5095 0.0
C561 C 0.45618 0.05587 0.55836 0.0
C562 C 0.42447 0.07413 0.5513 0.0
C563 C 0.42114 0.07365 0.5749 0.0
C564 C 0.45259 0.05574 0.58199 0.0
C565 C 0.43519 0.06459 0.59016 0.0
C566 C 0.44209 0.0653 0.54301 0.0
C567 C 0.51305 0.0297 0.48275 0.0
C568 C 0.47429 0.04568 0.55005 0.0
C569 C 0.46088 0.94668 0.56557 0.0
C570 C 0.45031 0.94198 0.54196 0.0
C571 C 0.5431 0.07442 0.53258 0.0
C572 C 0.61494 0.00515 0.48522 0.0
C573 C 0.64472 0.98415 0.49137 0.0
C574 C 0.648 0.98486 0.46774 0.0
C575 C 0.61871 0.00561 0.46169 0.0
C576 C 0.62831 0.99463 0.50025 0.0
C577 C 0.63518 0.99561 0.4531 0.0
C578 C 0.55444 0.0243 0.5586 0.0
C579 C 0.59632 0.01477 0.49319 0.0
H580 H 0.40768 0.08044 0.58155 0.0
H581 H 0.46311 0.04859 0.59419 0.0
H582 H 0.43254 0.06435 0.60836 0.0
H583 H 0.44462 0.06558 0.52475 0.0
H584 H 0.66066 0.97712 0.4606 0.0
H585 H 0.6088 0.01361 0.4498 0.0
H586 H 0.62555 0.99398 0.5184 0.0
H587 H 0.6379 0.99605 0.43493 0.0
Eu588 Eu 0.31881 0.27181 0.77715 0.0
C589 C 0.23701 0.29972 0.7182 0.0
N590 N 0.25077 0.31039 0.73861 0.0
C591 C 0.25687 0.34593 0.72313 0.0
C592 C 0.23352 0.31165 0.69898 0.0
C593 C 0.25964 0.33341 0.74172 0.0
C594 C 0.24406 0.33493 0.70151 0.0
C595 C 0.21066 0.26563 0.69623 0.0
C596 C 0.22577 0.27695 0.71682 0.0
C597 C 0.20783 0.27721 0.67674 0.0
C598 C 0.21925 0.30016 0.67811 0.0
Eu599 Eu 0.25563 0.28741 0.76854 0.0
N600 N 0.22889 0.26615 0.73593 0.0
C601 C 0.19832 0.24322 0.69609 0.0
C602 C 0.21574 0.24492 0.73644 0.0
C603 C 0.20057 0.23298 0.71645 0.0
H604 H 0.26843 0.34235 0.75865 0.0
H605 H 0.19036 0.21602 0.71689 0.0
H606 H 0.31266 0.21671 0.78759 0.0
H607 H 0.37879 0.34795 0.82604 0.0
H608 H 0.21636 0.23742 0.75248 0.0
H609 H 0.18644 0.23399 0.68068 0.0
H610 H 0.3518 0.32455 0.79185 0.0
H611 H 0.26434 0.36411 0.72561 0.0
H612 H 0.19645 0.26872 0.66071 0.0
H613 H 0.21653 0.309 0.66311 0.0
H614 H 0.32155 0.19644 0.82072 0.0
H615 H 0.24181 0.34469 0.68718 0.0
H616 H 0.38708 0.331 0.86221 0.0
N617 N 0.32688 0.24989 0.80725 0.0
C618 C 0.34026 0.26198 0.82738 0.0
C619 C 0.32662 0.21489 0.82296 0.0
C620 C 0.34661 0.25087 0.84645 0.0
C621 C 0.32117 0.22655 0.80435 0.0
C622 C 0.33906 0.22712 0.84425 0.0
N623 N 0.34385 0.29548 0.80924 0.0
C624 C 0.35496 0.31733 0.80781 0.0
C625 C 0.36476 0.29788 0.84806 0.0
C626 C 0.34927 0.2853 0.82826 0.0
C627 C 0.37501 0.32082 0.84739 0.0
C628 C 0.37037 0.33047 0.82702 0.0
H629 H 0.34358 0.21798 0.8585 0.0
H630 H 0.36603 0.25533 0.88151 0.0
H631 H 0.38193 0.29644 0.88287 0.0
O632 O 0.34222 0.28165 0.75166 0.0
O633 O 0.3099 0.29535 0.80627 0.0
O634 O 0.272 0.27898 0.80288 0.0
O635 O 0.34749 0.25636 0.7737 0.0
O636 O 0.3131 0.30179 0.75921 0.0
O637 O 0.28738 0.31698 0.77804 0.0
O638 O 0.22091 0.28036 0.77842 0.0
O639 O 0.27245 0.27969 0.73604 0.0
O640 O 0.29267 0.25313 0.74555 0.0
O641 O 0.24372 0.31447 0.78778 0.0
O642 O 0.25391 0.25135 0.77644 0.0
O643 O 0.28899 0.24096 0.77581 0.0
C644 C 0.29089 0.29176 0.81537 0.0
C645 C 0.36467 0.25597 0.73903 0.0
C646 C 0.39615 0.25647 0.71632 0.0
C647 C 0.38868 0.23269 0.71014 0.0
C648 C 0.35718 0.23225 0.73227 0.0
C649 C 0.36915 0.22072 0.71785 0.0
C650 C 0.38393 0.26809 0.73059 0.0
C651 C 0.30601 0.31944 0.76798 0.0
C652 C 0.3549 0.26787 0.75744 0.0
C653 C 0.3611 0.2636 0.86668 0.0
C654 C 0.37019 0.28702 0.86745 0.0
C655 C 0.28231 0.26305 0.72984 0.0
C656 C 0.20596 0.31004 0.79932 0.0
C657 C 0.17408 0.30595 0.82214 0.0
C658 C 0.17268 0.32826 0.81904 0.0
C659 C 0.20418 0.33231 0.79681 0.0
C660 C 0.19057 0.29663 0.81177 0.0
C661 C 0.18753 0.34124 0.80644 0.0
C662 C 0.26692 0.23658 0.77744 0.0
C663 C 0.22375 0.30127 0.78846 0.0
H664 H 0.39793 0.22341 0.69925 0.0
H665 H 0.34252 0.22256 0.73871 0.0
H666 H 0.36353 0.20239 0.71299 0.0
H667 H 0.39001 0.28636 0.73601 0.0
H668 H 0.15991 0.33568 0.82637 0.0
H669 H 0.21556 0.34276 0.78709 0.0
H670 H 0.19181 0.27942 0.81388 0.0
H671 H 0.18615 0.35835 0.80417 0.0
Eu672 Eu 0.0462 1.00027 0.51427 0.0
C673 C 0.01015 0.08413 0.56643 0.0
N674 N 1.00059 0.06797 0.54742 0.0
C675 C 0.96382 0.06386 0.55986 0.0
C676 C 0.99673 0.09082 0.58299 0.0
C677 C 0.97773 0.058 0.54375 0.0
C678 C 0.97334 0.08036 0.57955 0.0
C679 C 0.044 0.11027 0.5894 0.0
C680 C 0.03356 0.09364 0.56968 0.0
C681 C 0.03058 0.11734 0.6056 0.0
C682 C 0.00704 0.10756 0.60247 0.0
Eu683 Eu 0.02544 0.06028 0.52085 0.0
N684 N 0.04632 0.08565 0.55437 0.0
C685 C 0.06775 0.11873 0.59268 0.0
C686 C 0.06952 0.09326 0.55796 0.0
C687 C 0.08058 0.11001 0.57701 0.0
H688 H 0.97007 0.04592 0.52808 0.0
H689 H 0.099 0.116 0.57974 0.0
H690 H 0.09989 0.0025 0.50403 0.0
H691 H 0.96623 0.94603 0.46497 0.0
H692 H 0.07959 0.08612 0.54655 0.0
H693 H 0.07641 0.13149 0.60761 0.0
H694 H 0.99166 0.97021 0.49957 0.0
H695 H 0.94571 0.05583 0.55695 0.0
H696 H 0.03832 0.13004 0.62087 0.0
H697 H 0.99698 0.11296 0.61532 0.0
H698 H 0.11971 0.99067 0.47155 0.0
H699 H 0.96248 0.08494 0.59195 0.0
H700 H 0.98242 0.93505 0.42925 0.0
N701 N 0.06666 0.98818 0.48486 0.0
C702 C 0.05405 0.97475 0.46513 0.0
C703 C 0.10122 0.9863 0.46937 0.0
C704 C 0.06461 0.96717 0.4463 0.0
C705 C 0.08995 0.99331 0.48757 0.0
C706 C 0.08848 0.97341 0.4485 0.0
N707 N 0.0209 0.97554 0.48264 0.0
C708 C 0.99842 0.96686 0.48359 0.0
C709 C 0.01695 0.95359 0.44411 0.0
C710 C 0.0305 0.96812 0.46404 0.0
C711 C 0.99343 0.94624 0.44419 0.0
C712 C 0.9842 0.95254 0.46423 0.0
H713 H 0.09725 0.96792 0.43444 0.0
H714 H 0.0589 0.94749 0.4114 0.0
H715 H 0.01717 0.93555 0.4095 0.0
O716 O 0.03585 0.9688 0.53062 0.0
O717 O 0.03904 0.01525 0.48007 0.0
O718 O 0.01121 0.03249 0.48984 0.0
O719 O 0.07167 0.98355 0.52862 0.0
O720 O 0.01436 1.00195 0.53173 0.0
O721 O 0.99885 0.02694 0.51193 0.0
O722 O 0.03566 0.08788 0.49931 0.0
O723 O 0.03577 0.04748 0.55552 0.0
O724 O 0.06184 0.02677 0.54638 0.0
O725 O 1.00149 0.07991 0.50935 0.0
O726 O 0.05974 0.06225 0.50822 0.0
O727 O 0.0756 0.03161 0.51642 0.0
C728 C 0.02325 0.02618 0.47415 0.0
C729 C 0.06463 0.94868 0.54575 0.0
C730 C 0.05823 0.91588 0.56712 0.0
C731 C 0.08074 0.91418 0.56593 0.0
C732 C 0.08711 0.9465 0.54476 0.0
C733 C 0.09504 0.92937 0.55476 0.0
C734 C 0.05006 0.93313 0.55692 0.0
C735 C 0.99711 0.01108 0.52566 0.0
C736 C 0.05696 0.96708 0.53473 0.0
C737 C 0.0511 0.95333 0.42611 0.0
C738 C 0.02733 0.94653 0.42503 0.0
C739 C 0.05118 0.03613 0.56181 0.0
C740 C 0.00855 0.11034 0.48556 0.0
C741 C 0.01646 0.14246 0.46337 0.0
C742 C 0.9935 0.14353 0.46197 0.0
C743 C 0.98561 0.11182 0.48381 0.0
C744 C 0.02405 0.12575 0.47514 0.0
C745 C 0.97819 0.12827 0.47209 0.0
C746 C 0.07681 0.05202 0.50986 0.0
C747 C 0.01559 0.09251 0.4982 0.0
H748 H 0.08723 0.901 0.57367 0.0
H749 H 0.09863 0.958 0.53611 0.0
H750 H 0.11236 0.92786 0.55386 0.0
H751 H 0.03269 0.9345 0.55785 0.0
H752 H 0.98742 0.15628 0.453 0.0
H753 H 0.97326 0.1002 0.49149 0.0
H754 H 0.04179 0.12491 0.47629 0.0
H755 H 0.9605 0.12923 0.47089 0.0
Eu756 Eu 0.29102 0.81284 0.75483 0.0
C757 C 0.24103 0.73274 0.80606 0.0
N758 N 0.2614 0.74831 0.81295 0.0
C759 C 0.2534 0.75355 0.85259 0.0
C760 C 0.22585 0.72728 0.82234 0.0
C761 C 0.26799 0.75834 0.8359 0.0
C762 C 0.23221 0.73803 0.84578 0.0
C763 C 0.2143 0.70601 0.77508 0.0
C764 C 0.23529 0.72217 0.7826 0.0
C765 C 0.19916 0.70062 0.79129 0.0
C766 C 0.20491 0.71122 0.81482 0.0
Eu767 Eu 0.28484 0.75397 0.78348 0.0
N768 N 0.25005 0.728 0.76707 0.0
C769 C 0.20919 0.69562 0.75147 0.0
C770 C 0.24556 0.71734 0.74434 0.0
C771 C 0.22497 0.7012 0.73609 0.0
H772 H 0.28471 0.76963 0.8415 0.0
H773 H 0.22141 0.69287 0.71796 0.0
H774 H 0.29537 0.797 0.69762 0.0
H775 H 0.34952 0.87524 0.82298 0.0
H776 H 0.25799 0.72086 0.73273 0.0
H777 H 0.19327 0.68306 0.74503 0.0
H778 H 0.314 0.8462 0.80601 0.0
H779 H 0.25862 0.76163 0.87076 0.0
H780 H 0.18297 0.68822 0.78581 0.0
H781 H 0.19306 0.7068 0.82711 0.0
H782 H 0.3231 0.80641 0.67031 0.0
H783 H 0.22102 0.73425 0.85881 0.0
H784 H 0.37916 0.88666 0.79784 0.0
N785 N 0.31628 0.81942 0.72704 0.0
C786 C 0.33589 0.83587 0.7349 0.0
C787 C 0.32698 0.81468 0.68847 0.0
C788 C 0.35197 0.84217 0.71968 0.0
C789 C 0.31143 0.8091 0.70411 0.0
C790 C 0.34735 0.83123 0.69628 0.0
N791 N 0.32474 0.83938 0.77302 0.0
C792 C 0.32747 0.85008 0.79557 0.0
C793 C 0.36026 0.86339 0.76695 0.0
C794 C 0.34008 0.84633 0.75839 0.0
C795 C 0.36386 0.87351 0.7906 0.0
C796 C 0.34728 0.86697 0.80491 0.0
H797 H 0.35928 0.83559 0.68406 0.0
H798 H 0.38459 0.8642 0.71674 0.0
H799 H 0.39179 0.8828 0.75801 0.0
O800 O 0.27748 0.84244 0.76557 0.0
O801 O 0.32477 0.80141 0.76469 0.0
O802 O 0.32008 0.77849 0.79408 0.0
O803 O 0.2825 0.83456 0.72932 0.0
O804 O 0.27854 0.81079 0.79007 0.0
O805 O 0.29837 0.78703 0.80659 0.0
O806 O 0.29786 0.72348 0.77263 0.0
O807 O 0.25134 0.76585 0.77404 0.0
O808 O 0.25539 0.78866 0.74436 0.0
O809 O 0.29691 0.7352 0.80985 0.0
O810 O 0.29799 0.75881 0.74944 0.0
O811 O 0.27787 0.7803 0.72964 0.0
C812 C 0.33324 0.79062 0.78112 0.0
C813 C 0.2544 0.85524 0.73598 0.0
C814 C 0.23234 0.88433 0.73778 0.0
C815 C 0.21776 0.87229 0.7173 0.0
C816 C 0.23933 0.84324 0.71578 0.0
C817 C 0.22113 0.85178 0.70654 0.0
C818 C 0.2506 0.87563 0.74717 0.0
C819 C 0.2867 0.80249 0.80832 0.0
C820 C 0.27522 0.84792 0.74434 0.0
C821 C 0.37208 0.85915 0.72821 0.0
C822 C 0.37618 0.86976 0.75173 0.0
C823 C 0.24252 0.77594 0.75716 0.0
C824 C 0.31138 0.70159 0.80285 0.0
C825 C 0.33291 0.67225 0.79791 0.0
C826 C 0.33116 0.66847 0.8213 0.0
C827 C 0.30989 0.69731 0.82616 0.0
C828 C 0.32268 0.6887 0.78853 0.0
C829 C 0.31965 0.68084 0.83523 0.0
C830 C 0.28613 0.76217 0.73038 0.0
C831 C 0.30211 0.72037 0.79466 0.0
H832 H 0.20358 0.87867 0.70978 0.0
H833 H 0.24183 0.8275 0.70687 0.0
H834 H 0.20972 0.84257 0.69083 0.0
H835 H 0.26222 0.88507 0.76269 0.0
H836 H 0.33859 0.65571 0.82877 0.0
H837 H 0.30125 0.70684 0.83755 0.0
H838 H 0.32409 0.69186 0.77059 0.0
H839 H 0.3184 0.67774 0.85319 0.0
Eu840 Eu 0.53108 0.05632 0.98373 0.0
C841 C 0.57203 0.00603 0.07525 0.0
N842 N 0.55487 0.99566 0.05748 0.0
C843 C 0.56857 0.96149 0.05554 0.0
C844 C 0.58868 0.99465 0.08349 0.0
C845 C 0.55271 0.97361 0.04778 0.0
C846 C 0.58679 0.97214 0.07334 0.0
C847 C 0.59032 0.03919 0.10411 0.0
C848 C 0.5727 0.02793 0.08542 0.0
C849 C 0.6074 0.02827 0.11185 0.0
C850 C 0.60652 0.00601 0.10163 0.0
Eu851 Eu 0.53008 0.01752 0.04291 0.0
N852 N 0.55585 0.03795 0.07748 0.0
C853 C 0.59006 0.06093 0.11476 0.0
C854 C 0.55477 0.05852 0.08915 0.0
C855 C 0.57198 0.07045 0.10751 0.0
H856 H 0.53856 0.96524 0.03414 0.0
H857 H 0.57112 0.08693 0.11624 0.0
H858 H 0.52427 0.10873 0.00063 0.0
H859 H 0.47507 0.98711 0.91859 0.0
H860 H 0.54062 0.06595 0.08508 0.0
H861 H 0.60332 0.07019 0.12906 0.0
H862 H 0.50559 0.0038 0.9517 0.0
H863 H 0.56676 0.944 0.04775 0.0
H864 H 0.62113 0.03676 0.12602 0.0
H865 H 0.61959 0.99764 0.10804 0.0
H866 H 0.49946 0.13375 0.98816 0.0
H867 H 0.59915 0.96277 0.07925 0.0
H868 H 0.4513 0.01104 0.90127 0.0
N869 N 0.50779 0.08114 0.97358 0.0
C870 C 0.49122 0.07332 0.95443 0.0
C871 C 0.49694 0.11678 0.97856 0.0
C872 C 0.47661 0.08703 0.9468 0.0
C873 C 0.51085 0.10251 0.98567 0.0
C874 C 0.47977 0.10903 0.95904 0.0
N875 N 0.50106 0.03759 0.95237 0.0
C876 C 0.49641 0.01486 0.94378 0.0
C877 C 0.46954 0.04182 0.92475 0.0
C878 C 0.48787 0.05099 0.94334 0.0
C879 C 0.4653 0.01872 0.91544 0.0
C880 C 0.47867 0.00516 0.92516 0.0
H881 H 0.46889 0.12007 0.95372 0.0
H882 H 0.44757 0.0885 0.92161 0.0
H883 H 0.44129 0.0489 0.90244 0.0
O884 O 0.55339 0.05578 0.95726 0.0
O885 O 0.49471 0.04191 0.98792 0.0
O886 O 0.51709 0.02947 0.01174 0.0
O887 O 0.55159 0.08827 0.97602 0.0
O888 O 0.54035 0.0211 0.97771 0.0
O889 O 0.53125 0.99714 0.00692 0.0
O890 O 0.50135 0.01453 0.06206 0.0
O891 O 0.56399 0.02639 0.03171 0.0
O892 O 0.55559 0.05694 0.01718 0.0
O893 O 0.50703 0.98415 0.04277 0.0
O894 O 0.52015 0.05225 0.04809 0.0
O895 O 0.53339 0.07655 0.02076 0.0
C896 C 0.4963 0.02901 0.00365 0.0
C897 C 0.5644 0.08854 0.93856 0.0
C898 C 0.5804 0.08634 0.90204 0.0
C899 C 0.58251 0.10992 0.90225 0.0
C900 C 0.56656 0.11205 0.93866 0.0
C901 C 0.57527 0.12259 0.92032 0.0
C902 C 0.57059 0.07576 0.91982 0.0
C903 C 0.53824 1.00128 0.98633 0.0
C904 C 0.56022 0.07797 0.95968 0.0
C905 C 0.45895 0.0782 0.92769 0.0
C906 C 0.4554 0.05566 0.91672 0.0
C907 C 0.56939 0.04326 0.01977 0.0
C908 C 0.49454 0.98206 0.07992 0.0
C909 C 0.48197 0.98425 0.11794 0.0
C910 C 0.49679 0.97104 0.1258 0.0
C911 C 0.50937 0.96865 0.08761 0.0
C912 C 0.48052 0.98932 0.09503 0.0
C913 C 0.51037 0.96309 0.11051 0.0
C914 C 0.52473 0.07252 0.04048 0.0
C915 C 0.49607 0.99233 0.05835 0.0
H916 H 0.59045 0.11873 0.88899 0.0
H917 H 0.56234 0.1224 0.95325 0.0
H918 H 0.5773 0.14078 0.92061 0.0
H919 H 0.56888 0.0576 0.91973 0.0
H920 H 0.49805 0.96722 0.14375 0.0
H921 H 0.52058 0.96303 0.07632 0.0
H922 H 0.46932 1.00001 0.08937 0.0
H923 H 0.52204 0.95311 0.11658 0.0
Eu924 Eu 0.26792 0.24426 0.2491 0.0
C925 C 0.34862 0.33126 0.30901 0.0
N926 N 0.32923 0.31875 0.31503 0.0
C927 C 0.34732 0.32378 0.35532 0.0
C928 C 0.36847 0.33989 0.32591 0.0
C929 C 0.3281 0.31556 0.33796 0.0
C930 C 0.36769 0.33576 0.34922 0.0
C931 C 0.36789 0.35021 0.27963 0.0
C932 C 0.34828 0.33655 0.28621 0.0
C933 C 0.38797 0.35796 0.29612 0.0
C934 C 0.38823 0.35291 0.31923 0.0
Eu935 Eu 0.29765 0.30546 0.28435 0.0
N936 N 0.32847 0.3292 0.27076 0.0
C937 C 0.36652 0.35625 0.25688 0.0
C938 C 0.3266 0.3366 0.24931 0.0
C939 C 0.34566 0.3497 0.24179 0.0
H940 H 0.31224 0.30677 0.34294 0.0
H941 H 0.34413 0.35511 0.22453 0.0
H942 H 0.25838 0.25691 0.19351 0.0
H943 H 0.20915 0.19061 0.29603 0.0
H944 H 0.31032 0.33307 0.23825 0.0
H945 H 0.38121 0.36666 0.25113 0.0
H946 H 0.24647 0.21067 0.28777 0.0
H947 H 0.34634 0.32101 0.37341 0.0
H948 H 0.40321 0.36839 0.29135 0.0
H949 H 0.40366 0.35954 0.33194 0.0
H950 H 0.22588 0.254 0.1626 0.0
H951 H 0.38252 0.34223 0.36274 0.0
H952 H 0.17414 0.18949 0.26866 0.0
N953 N 0.23791 0.24333 0.21837 0.0
C954 C 0.21661 0.23236 0.22173 0.0
C955 C 0.22298 0.24822 0.17929 0.0
C956 C 0.19756 0.22944 0.20397 0.0
C957 C 0.24138 0.25045 0.1972 0.0
C958 C 0.20095 0.23786 0.18276 0.0
N959 N 0.23274 0.22467 0.25872 0.0
C960 C 0.23128 0.2123 0.27706 0.0
C961 C 0.19227 0.21031 0.24565 0.0
C962 C 0.21397 0.22292 0.24246 0.0
C963 C 0.19046 0.1994 0.26567 0.0
C964 C 0.21014 0.2001 0.28125 0.0
H965 H 0.18677 0.23579 0.16867 0.0
H966 H 0.16114 0.2151 0.19403 0.0
H967 H 0.15653 0.19837 0.23046 0.0
O968 O 0.27154 0.21034 0.25373 0.0
O969 O 0.24434 0.26878 0.25519 0.0
O970 O 0.26236 0.28661 0.29145 0.0
O971 O 0.26463 0.2185 0.21836 0.0
O972 O 0.27356 0.24606 0.28945 0.0
O973 O 0.30294 0.27733 0.30551 0.0
O974 O 0.288 0.33732 0.27953 0.0
O975 O 0.32504 0.29031 0.26867 0.0
O976 O 0.30768 0.25258 0.25211 0.0
O977 O 0.2883 0.32516 0.31404 0.0
O978 O 0.27897 0.30084 0.24659 0.0
O979 O 0.28758 0.2692 0.22861 0.0
C980 C 0.24375 0.28057 0.27563 0.0
C981 C 0.28397 0.18902 0.22337 0.0
C982 C 0.30388 0.1598 0.23172 0.0
C983 C 0.30923 0.15797 0.20872 0.0
C984 C 0.28944 0.18738 0.20032 0.0
C985 C 0.30214 0.17193 0.19311 0.0
C986 C 0.29136 0.17521 0.23889 0.0
C987 C 0.28897 0.25792 0.30724 0.0
C988 C 0.26884 0.20317 0.23113 0.0
C989 C 0.1759 0.21754 0.20752 0.0
C990 C 0.17326 0.20804 0.22829 0.0
C991 C 0.32606 0.26992 0.25862 0.0
C992 C 0.2773 0.36081 0.31122 0.0
C993 C 0.26667 0.3962 0.3054 0.0
C994 C 0.26076 0.39802 0.32825 0.0
C995 C 0.27142 0.36275 0.33404 0.0
C996 C 0.27515 0.37768 0.29715 0.0
C997 C 0.26324 0.38137 0.34251 0.0
C998 C 0.28494 0.28992 0.22833 0.0
C999 C 0.28467 0.34082 0.30146 0.0
H1000 H 0.31893 0.14595 0.20299 0.0
H1001 H 0.28364 0.19768 0.18784 0.0
H1002 H 0.30626 0.17059 0.17535 0.0
H1003 H 0.28684 0.17592 0.25656 0.0
H1004 H 0.25383 0.41204 0.3349 0.0
H1005 H 0.27286 0.34978 0.34519 0.0
H1006 H 0.27996 0.37635 0.27963 0.0
H1007 H 0.25852 0.38275 0.36003 0.0
Eu1008 Eu 0.54629 0.5009 0.01334 0.0
C1009 C 0.51665 0.58366 0.07115 0.0
N1010 N 0.50526 0.56858 0.05189 0.0
C1011 C 0.47011 0.56557 0.06764 0.0
C1012 C 0.50511 0.58998 0.08969 0.0
C1013 C 0.48222 0.56008 0.04958 0.0
C1014 C 0.48164 0.58044 0.08789 0.0
C1015 C 0.55189 0.60967 0.09137 0.0
C1016 C 0.53986 0.59322 0.07209 0.0
C1017 C 0.5405 0.61577 0.10997 0.0
C1018 C 0.51721 0.60588 0.10919 0.0
Eu1019 Eu 0.5273 0.56101 0.02226 0.0
N1020 N 0.55071 0.58642 0.05423 0.0
C1021 C 0.57508 0.61941 0.09139 0.0
C1022 C 0.57281 0.59692 0.05344 0.0
C1023 C 0.58551 0.61319 0.07219 0.0
H1024 H 0.47302 0.54983 0.03347 0.0
H1025 H 0.60318 0.62126 0.0716 0.0
H1026 H 0.6004 0.51495 0.00156 0.0
H1027 H 0.46954 0.44438 0.9604 0.0
H1028 H 0.58036 0.59346 0.03795 0.0
H1029 H 0.58493 0.63207 0.10587 0.0
H1030 H 0.49175 0.47146 -0.0053 0.0
H1031 H 0.45184 0.55866 0.06573 0.0
H1032 H 0.54953 0.6282 0.12502 0.0
H1033 H 0.50864 0.61088 0.12362 0.0
H1034 H 0.62176 0.50609 0.96947 0.0
H1035 H 0.47217 0.58486 0.10176 0.0
H1036 H 0.48881 0.43261 0.92736 0.0
N1037 N 0.56849 0.49431 0.98366 0.0
C1038 C 0.55735 0.47897 0.96447 0.0
C1039 C 0.60363 0.49848 0.96777 0.0
C1040 C 0.56908 0.47297 0.94598 0.0
C1041 C 0.59137 0.50376 0.98577 0.0
C1042 C 0.59244 0.48305 0.94777 0.0
N1043 N 0.52289 0.47624 0.98075 0.0
C1044 C 0.50018 0.46712 0.98016 0.0
C1045 C 0.52208 0.45364 0.94332 0.0
C1046 C 0.53403 0.46945 0.96314 0.0
C1047 C 0.49859 0.44474 0.9423 0.0
C1048 C 0.48762 0.45145 0.96085 0.0
H1049 H 0.60203 0.4789 0.93391 0.0
H1050 H 0.56596 0.45231 0.91198 0.0
H1051 H 0.52489 0.43537 0.90969 0.0
O1052 O 0.53584 0.47036 0.03111 0.0
O1053 O 0.53656 0.51618 0.97978 0.0
O1054 O 0.51022 0.53648 0.98928 0.0
O1055 O 0.57021 0.48037 0.02194 0.0
O1056 O 0.51457 0.50251 0.0301 0.0
O1057 O 0.49803 0.5292 0.0139 0.0
O1058 O 0.53818 0.58929 0.0023 0.0
O1059 O 0.53755 0.54679 0.05611 0.0
O1060 O 0.5625 0.52457 0.0471 0.0
O1061 O 0.50612 0.58488 0.01605 0.0
O1062 O 0.55979 0.55966 0.00631 0.0
O1063 O 0.57495 0.53267 0.02347 0.0
C1064 C 0.5206 0.52701 0.97363 0.0
C1065 C 0.56303 0.44661 0.04111 0.0
C1066 C 0.55735 0.41474 0.06396 0.0
C1067 C 0.57907 0.41172 0.06067 0.0
C1068 C 0.58466 0.44299 0.03802 0.0
C1069 C 0.59255 0.42569 0.04771 0.0
C1070 C 0.5492 0.43219 0.05404 0.0
C1071 C 0.49655 0.51022 0.02334 0.0
C1072 C 0.556 0.46605 0.03141 0.0
C1073 C 0.55721 0.45715 0.92633 0.0
C1074 C 0.53382 0.44746 0.92504 0.0
C1075 C 0.55233 0.53478 0.06236 0.0
C1076 C 0.50978 0.6064 0.98422 0.0
C1077 C 0.51215 0.63731 0.96036 0.0
C1078 C 0.48899 0.62872 0.95091 0.0
C1079 C 0.48663 0.59795 0.97441 0.0
C1080 C 0.52257 0.62602 0.9769 0.0
C1081 C 0.47636 0.6091 0.95785 0.0
C1082 C 0.57715 0.55103 0.01318 0.0
C1083 C 0.51997 0.59699 0.00424 0.0
H1084 H 0.58558 0.39842 0.06816 0.0
H1085 H 0.59569 0.45366 0.02819 0.0
H1086 H 0.60926 0.42318 0.04526 0.0
H1087 H 0.53252 0.43472 0.05673 0.0
H1088 H 0.48066 0.63731 0.93826 0.0
H1089 H 0.47634 0.58303 0.97988 0.0
H1090 H 0.54028 0.63302 0.98475 0.0
H1091 H 0.45848 0.60262 0.95053 0.0
Eu1092 Eu 0.79223 0.31671 0.25978 0.0
C1093 C 0.73733 0.22314 0.30796 0.0
N1094 N 0.75761 0.2381 0.31704 0.0
C1095 C 0.74989 0.23466 0.35645 0.0
C1096 C 0.72195 0.21435 0.32303 0.0
C1097 C 0.76462 0.24283 0.34091 0.0
C1098 C 0.7283 0.22068 0.34748 0.0
C1099 C 0.71136 0.20002 0.27401 0.0
C1100 C 0.73224 0.21568 0.28362 0.0
C1101 C 0.69576 0.19195 0.28897 0.0
C1102 C 0.70105 0.19904 0.31338 0.0
Eu1103 Eu 0.78066 0.25016 0.28869 0.0
N1104 N 0.74763 0.22353 0.26936 0.0
C1105 C 0.70678 0.19284 0.24958 0.0
C1106 C 0.74322 0.21684 0.24558 0.0
C1107 C 0.72277 0.2013 0.23532 0.0
H1108 H 0.78165 0.25285 0.3481 0.0
H1109 H 0.71925 0.19597 0.21641 0.0
H1110 H 0.78104 0.31231 0.1995 0.0
H1111 H 0.86231 0.37583 0.32082 0.0
H1112 H 0.75523 0.22381 0.23451 0.0
H1113 H 0.69094 0.18082 0.24156 0.0
H1114 H 0.82552 0.34775 0.30978 0.0
H1115 H 0.75531 0.23891 0.37534 0.0
H1116 H 0.67962 0.17996 0.28186 0.0
H1117 H 0.689 0.19228 0.3247 0.0
H1118 H 0.8022 0.32366 0.16709 0.0
H1119 H 0.71697 0.21425 0.3596 0.0
H1120 H 0.88583 0.38719 0.29015 0.0
N1121 N 0.80939 0.32712 0.22654 0.0
C1122 C 0.83072 0.34137 0.23203 0.0
C1123 C 0.81047 0.32855 0.18524 0.0
C1124 C 0.84316 0.34865 0.21398 0.0
C1125 C 0.7986 0.3221 0.20363 0.0
C1126 C 0.833 0.34148 0.19042 0.0
N1127 N 0.82746 0.34353 0.27301 0.0
C1128 C 0.83514 0.353 0.29609 0.0
C1129 C 0.86126 0.36583 0.26143 0.0
C1130 C 0.83976 0.35 0.25568 0.0
C1131 C 0.86942 0.37505 0.28511 0.0
C1132 C 0.8562 0.36873 0.30247 0.0
H1133 H 0.84209 0.3466 0.17612 0.0
H1134 H 0.87481 0.36898 0.2062 0.0
H1135 H 0.89057 0.38399 0.24765 0.0
O1136 O 0.79169 0.35288 0.26406 0.0
O1137 O 0.82096 0.30745 0.28487 0.0
O1138 O 0.81638 0.26776 0.28111 0.0
O1139 O 0.76017 0.32741 0.26063 0.0
O1140 O 0.78716 0.29726 0.28977 0.0
O1141 O 0.78275 0.27812 0.3188 0.0
O1142 O 0.78832 0.21636 0.27998 0.0
O1143 O 0.74905 0.26306 0.27445 0.0
O1144 O 0.75591 0.29165 0.24912 0.0
O1145 O 0.80552 0.24011 0.31238 0.0
O1146 O 0.78769 0.26845 0.25784 0.0
O1147 O 0.7939 0.2901 0.23041 0.0
C1148 C 0.82943 0.28891 0.284 0.0
C1149 C 0.75888 0.36136 0.24496 0.0
C1150 C 0.74139 0.3931 0.23928 0.0
C1151 C 0.73666 0.38529 0.21481 0.0
C1152 C 0.75402 0.35367 0.22062 0.0
C1153 C 0.74318 0.36581 0.20557 0.0
C1154 C 0.75315 0.38126 0.25405 0.0
C1155 C 0.78416 0.29775 0.31168 0.0
C1156 C 0.76961 0.34891 0.26149 0.0
C1157 C 0.86498 0.36351 0.21987 0.0
C1158 C 0.87393 0.37214 0.24347 0.0
C1159 C 0.74211 0.27637 0.25945 0.0
C1160 C 0.81665 0.2044 0.3074 0.0
C1161 C 0.83376 0.17207 0.30007 0.0
C1162 C 0.84325 0.17551 0.32402 0.0
C1163 C 0.8264 0.20754 0.33133 0.0
C1164 C 0.82035 0.1865 0.29172 0.0
C1165 C 0.83957 0.19315 0.33954 0.0
C1166 C 0.79208 0.26991 0.23645 0.0
C1167 C 0.80336 0.22044 0.2993 0.0
H1168 H 0.72739 0.39378 0.20287 0.0
H1169 H 0.75838 0.33826 0.21335 0.0
H1170 H 0.73934 0.35982 0.18678 0.0
H1171 H 0.75762 0.38728 0.27283 0.0
H1172 H 0.85364 0.16454 0.33068 0.0
H1173 H 0.82386 0.22115 0.3438 0.0
H1174 H 0.813 0.18383 0.27327 0.0
H1175 H 0.847 0.19572 0.35798 0.0
Eu1176 Eu 0.0295 0.55475 0.48331 0.0
C1177 C 0.06906 0.50077 0.5725 0.0
N1178 N 0.05228 0.4925 0.55375 0.0
C1179 C 0.06448 0.4576 0.54828 0.0
C1180 C 0.08451 0.48771 0.57975 0.0
C1181 C 0.04976 0.47126 0.54159 0.0
C1182 C 0.08196 0.46586 0.56744 0.0
C1183 C 0.08916 0.53194 0.60305 0.0
C1184 C 0.07123 0.52258 0.58399 0.0
C1185 C 0.10451 0.51899 0.61036 0.0
C1186 C 0.10216 0.49691 0.59877 0.0
Eu1187 Eu 0.02823 0.51626 0.54242 0.0
N1188 N 0.05633 0.53487 0.57617 0.0
C1189 C 0.09136 0.55415 0.6141 0.0
C1190 C 0.05843 0.55651 0.58743 0.0
C1191 C 0.07586 0.56642 0.60629 0.0
H1192 H 0.03635 0.4648 0.52667 0.0
H1193 H 0.07729 0.58362 0.61481 0.0
H1194 H 0.0186 0.6057 0.49851 0.0
H1195 H 0.9871 0.48815 0.40858 0.0
H1196 H 0.04699 0.56666 0.58241 0.0
H1197 H 0.10493 0.56194 0.62867 0.0
H1198 H 0.01749 0.50758 0.44103 0.0
H1199 H 0.06242 0.44075 0.53859 0.0
H1200 H 0.11834 0.52597 0.62488 0.0
H1201 H 0.11421 0.48716 0.60453 0.0
H1202 H 0.98951 0.62688 0.48782 0.0
H1203 H 0.09345 0.45531 0.5725 0.0
H1204 H 0.95541 0.50598 0.39676 0.0
N1205 N 1.00327 0.57686 0.47277 0.0
C1206 C 0.98657 0.56764 0.45403 0.0
C1207 C 0.98835 0.61015 0.4783 0.0
C1208 C 0.9695 0.57908 0.44729 0.0
C1209 C 1.00468 0.59801 0.48454 0.0
C1210 C 0.97054 0.60055 0.45974 0.0
N1211 N 1.0024 0.53532 0.44967 0.0
C1212 C 1.0034 0.5152 0.4371 0.0
C1213 C 0.96847 0.53588 0.42321 0.0
C1214 C 0.98605 0.54623 0.4422 0.0
C1215 C 0.96862 0.51451 0.4114 0.0
C1216 C 0.98638 0.50432 0.41814 0.0
H1217 H 0.95778 0.60989 0.45508 0.0
H1218 H 0.9385 0.57712 0.4233 0.0
H1219 H 0.9376 0.53933 0.4022 0.0
O1220 O 0.05184 0.55556 0.45676 0.0
O1221 O 0.99314 0.54256 0.48883 0.0
O1222 O 0.01446 0.52847 0.51182 0.0
O1223 O 0.04843 0.58779 0.47569 0.0
O1224 O 0.03874 0.51934 0.47887 0.0
O1225 O 0.02309 0.49531 0.50538 0.0
O1226 O 1.0003 0.51525 0.56255 0.0
O1227 O 0.06143 0.52389 0.52919 0.0
O1228 O 0.05501 0.5561 0.51633 0.0
O1229 O 0.00541 0.48365 0.54538 0.0
O1230 O 0.02119 0.55218 0.54914 0.0
O1231 O 0.03091 0.57566 0.5199 0.0
C1232 C 0.99391 0.52992 0.50486 0.0
C1233 C 0.07302 0.59003 0.44532 0.0
C1234 C 0.09119 0.58941 0.41029 0.0
C1235 C 0.10009 0.61311 0.4156 0.0
C1236 C 0.08206 0.6137 0.45077 0.0
C1237 C 0.09565 0.62517 0.43593 0.0
C1238 C 0.07788 0.57799 0.42524 0.0
C1239 C 0.03268 0.49901 0.48613 0.0
C1240 C 0.05737 0.57777 0.45941 0.0
C1241 C 0.95185 0.56867 0.4286 0.0
C1242 C 0.95133 0.54713 0.41661 0.0
C1243 C 0.0684 0.54203 0.51935 0.0
C1244 C 0.99144 0.48336 0.58198 0.0
C1245 C 0.98281 0.48841 0.62175 0.0
C1246 C 0.98839 0.4678 0.6256 0.0
C1247 C 0.99676 0.46251 0.58565 0.0
C1248 C 0.98382 0.49583 0.59992 0.0
C1249 C 0.99507 0.45474 0.60742 0.0
C1250 C 0.02463 0.57221 0.5409 0.0
C1251 C 0.99444 0.49305 0.56014 0.0
H1252 H 0.1106 0.62219 0.40418 0.0
H1253 H 0.07845 0.6233 0.46627 0.0
H1254 H 0.1026 0.64341 0.44007 0.0
H1255 H 0.07074 0.55974 0.42074 0.0
H1256 H 0.98743 0.46183 0.64254 0.0
H1257 H 1.00245 0.45242 0.57192 0.0
H1258 H 0.97938 0.5118 0.59724 0.0
H1259 H 0.99922 0.43873 0.61029 0.0
Eu1260 Eu 0.8168 0.76913 0.27685 0.0
C1261 C 0.7353 0.80373 0.22025 0.0
N1262 N 0.74952 0.81388 0.24056 0.0
C1263 C 0.75242 0.8506 0.22812 0.0
C1264 C 0.72911 0.81682 0.20296 0.0
C1265 C 0.75809 0.83695 0.24475 0.0
C1266 C 0.73783 0.84051 0.20716 0.0
C1267 C 0.7137 0.76903 0.1949 0.0
C1268 C 0.7276 0.78007 0.21632 0.0
C1269 C 0.70707 0.78208 0.17792 0.0
C1270 C 0.71475 0.80589 0.18193 0.0
Eu1271 Eu 0.75699 0.78956 0.26807 0.0
N1272 N 0.73499 0.76781 0.23272 0.0
C1273 C 0.70736 0.74517 0.19092 0.0
C1274 C 0.72921 0.74455 0.22865 0.0
C1275 C 0.71528 0.73289 0.2078 0.0
H1276 H 0.76876 0.8449 0.26125 0.0
H1277 H 0.71085 0.71442 0.20468 0.0
H1278 H 0.81471 0.71545 0.28679 0.0
H1279 H 0.86613 0.84962 0.33018 0.0
H1280 H 0.73586 0.7349 0.24103 0.0
H1281 H 0.69674 0.73606 0.17467 0.0
H1282 H 0.84369 0.82516 0.29461 0.0
H1283 H 0.75917 0.86891 0.23157 0.0
H1284 H 0.69632 0.77388 0.16143 0.0
H1285 H 0.70975 0.81569 0.1685 0.0
H1286 H 0.82724 0.69529 0.31891 0.0
H1287 H 0.73347 0.85115 0.1943 0.0
H1288 H 0.87752 0.83245 0.36524 0.0
N1289 N 0.82881 0.74849 0.3063 0.0
C1290 C 0.84155 0.76094 0.32648 0.0
C1291 C 0.83125 0.71375 0.32135 0.0
C1292 C 0.84922 0.75013 0.34523 0.0
C1293 C 0.82402 0.72522 0.30329 0.0
C1294 C 0.84376 0.72625 0.34251 0.0
N1295 N 0.83997 0.7945 0.30966 0.0
C1296 C 0.84733 0.81745 0.30994 0.0
C1297 C 0.86082 0.79793 0.34887 0.0
C1298 C 0.84729 0.78459 0.32824 0.0
C1299 C 0.86711 0.82162 0.34974 0.0
C1300 C 0.86062 0.83138 0.33004 0.0
H1301 H 0.84938 0.71732 0.35648 0.0
H1302 H 0.86824 0.75539 0.38055 0.0
H1303 H 0.87835 0.79724 0.38377 0.0
O1304 O 0.84849 0.78005 0.26095 0.0
O1305 O 0.80032 0.77524 0.30994 0.0
O1306 O 0.7834 0.80379 0.30063 0.0
O1307 O 0.83399 0.74417 0.26274 0.0
O1308 O 0.81552 0.80111 0.25975 0.0
O1309 O 0.78982 0.81688 0.27798 0.0
O1310 O 0.72635 0.77822 0.28571 0.0
O1311 O 0.77271 0.78191 0.23494 0.0
O1312 O 0.79018 0.75387 0.24465 0.0
O1313 O 0.73701 0.81318 0.27845 0.0
O1314 O 0.75503 0.75569 0.28184 0.0
O1315 O 0.78547 0.73971 0.27351 0.0
C1316 C 0.79039 0.79169 0.31614 0.0
C1317 C 0.86892 0.75159 0.24584 0.0
C1318 C 0.90115 0.75775 0.22368 0.0
C1319 C 0.90286 0.73528 0.22507 0.0
C1320 C 0.87121 0.72918 0.24702 0.0
C1321 C 0.88805 0.72115 0.23675 0.0
C1322 C 0.8842 0.76605 0.23424 0.0
C1323 C 0.80681 0.81862 0.26567 0.0
C1324 C 0.85034 0.75904 0.25667 0.0
C1325 C 0.86228 0.76341 0.36595 0.0
C1326 C 0.86803 0.78724 0.36778 0.0
C1327 C 0.78278 0.76551 0.22889 0.0
C1328 C 0.70265 0.80547 0.29611 0.0
C1329 C 0.67165 0.80137 0.3201 0.0
C1330 C 0.66701 0.82162 0.31344 0.0
C1331 C 0.69736 0.82564 0.28984 0.0
C1332 C 0.68943 0.79304 0.31111 0.0
C1333 C 0.6797 0.83356 0.29841 0.0
C1334 C 0.76524 0.73862 0.28031 0.0
C1335 C 0.72227 0.79849 0.28689 0.0
H1336 H 0.9158 0.72867 0.21713 0.0
H1337 H 0.85993 0.71772 0.25594 0.0
H1338 H 0.88959 0.70387 0.2378 0.0
H1339 H 0.88273 0.78337 0.23311 0.0
H1340 H 0.65331 0.82819 0.31983 0.0
H1341 H 0.70694 0.83544 0.27822 0.0
H1342 H 0.69322 0.77748 0.31614 0.0
H1343 H 0.67586 0.8491 0.29342 0.0
Eu1344 Eu 0.76377 0.28272 0.80677 0.0
C1345 C 0.81304 0.2375 0.7218 0.0
N1346 N 0.82214 0.25512 0.73952 0.0
C1347 C 0.8537 0.2386 0.74985 0.0
C1348 C 0.82359 0.21924 0.71789 0.0
C1349 C 0.84242 0.25618 0.75322 0.0
C1350 C 0.84413 0.21992 0.73227 0.0
C1351 C 0.78316 0.22 0.68886 0.0
C1352 C 0.79302 0.23781 0.70765 0.0
C1353 C 0.79317 0.20138 0.68531 0.0
C1354 C 0.81336 0.20101 0.69978 0.0
Eu1355 Eu 0.80081 0.28286 0.7459 0.0
N1356 N 0.78367 0.25597 0.71176 0.0
C1357 C 0.76387 0.22175 0.67388 0.0
C1358 C 0.76622 0.25872 0.69595 0.0
C1359 C 0.75568 0.24146 0.67713 0.0
H1360 H 0.84997 0.27058 0.76677 0.0
H1361 H 0.74145 0.24349 0.66498 0.0
H1362 H 0.71155 0.29182 0.79194 0.0
H1363 H 0.83046 0.32486 0.88156 0.0
H1364 H 0.76061 0.27438 0.69748 0.0
H1365 H 0.75573 0.20844 0.65926 0.0
H1366 H 0.81189 0.29529 0.84817 0.0
H1367 H 0.86971 0.23943 0.76087 0.0
H1368 H 0.78568 0.1874 0.67115 0.0
H1369 H 0.82108 0.18669 0.69665 0.0
H1370 H 0.68951 0.31969 0.80365 0.0
H1371 H 0.85284 0.20627 0.72979 0.0
H1372 H 0.81106 0.35467 0.8949 0.0
N1373 N 0.74024 0.30685 0.81846 0.0
C1374 C 0.74924 0.32319 0.83745 0.0
C1375 C 0.70632 0.32092 0.81325 0.0
C1376 C 0.73725 0.33955 0.84465 0.0
C1377 C 0.71893 0.30524 0.80658 0.0
C1378 C 0.71558 0.33826 0.83225 0.0
N1379 N 0.78232 0.30843 0.84144 0.0
C1380 C 0.80319 0.30824 0.85325 0.0
C1381 C 0.78091 0.34123 0.86862 0.0
C1382 C 0.77083 0.32398 0.84934 0.0
C1383 C 0.80271 0.34164 0.88009 0.0
C1384 C 0.81375 0.32492 0.87254 0.0
H1385 H 0.70586 0.35053 0.83721 0.0
H1386 H 0.73846 0.36964 0.86936 0.0
H1387 H 0.77668 0.37114 0.89029 0.0
O1388 O 0.76388 0.25506 0.82751 0.0
O1389 O 0.77915 0.31908 0.80386 0.0
O1390 O 0.79032 0.29893 0.77696 0.0
O1391 O 0.73178 0.26265 0.81463 0.0
O1392 O 0.79985 0.27413 0.81026 0.0
O1393 O 0.82235 0.29069 0.78312 0.0
O1394 O 0.8019 0.30755 0.72169 0.0
O1395 O 0.78971 0.2488 0.75741 0.0
O1396 O 0.76187 0.26153 0.77211 0.0
O1397 O 0.83411 0.3033 0.74044 0.0
O1398 O 0.76417 0.28891 0.73852 0.0
O1399 O 0.7433 0.28624 0.77095 0.0
C1400 C 0.78989 0.31923 0.78609 0.0
C1401 C 0.73537 0.24959 0.85169 0.0
C1402 C 0.7403 0.23507 0.8888 0.0
C1403 C 0.72399 0.24589 0.89692 0.0
C1404 C 0.71907 0.26058 0.85983 0.0
C1405 C 0.7134 0.25864 0.88241 0.0
C1406 C 0.74583 0.2368 0.86627 0.0
C1407 C 0.81982 0.28043 0.80222 0.0
C1408 C 0.742 0.25114 0.82825 0.0
C1409 C 0.74733 0.35681 0.86373 0.0
C1410 C 0.7691 0.35766 0.87566 0.0
C1411 C 0.773 0.24579 0.76964 0.0
C1412 C 0.83639 0.33085 0.7126 0.0
C1413 C 0.83628 0.35091 0.6787 0.0
C1414 C 0.8598 0.3605 0.68519 0.0
C1415 C 0.85993 0.34036 0.71906 0.0
C1416 C 0.82459 0.33658 0.69268 0.0
C1417 C 0.87152 0.35544 0.70554 0.0
C1418 C 0.74549 0.28946 0.74863 0.0
C1419 C 0.82415 0.31358 0.72515 0.0
H1420 H 0.7194 0.24434 0.91435 0.0
H1421 H 0.71074 0.2706 0.84887 0.0
H1422 H 0.70078 0.26698 0.88864 0.0
H1423 H 0.75828 0.22809 0.86009 0.0
H1424 H 0.86909 0.37152 0.67432 0.0
H1425 H 0.86937 0.33596 0.73432 0.0
H1426 H 0.80652 0.32882 0.68712 0.0
H1427 H 0.88968 0.36274 0.71048 0.0
Eu1428 Eu 0.77137 0.74508 0.75101 0.0
C1429 C 0.85215 0.83039 0.80921 0.0
N1430 N 0.83227 0.81836 0.81474 0.0
C1431 C 0.84938 0.82304 0.85539 0.0
C1432 C 0.87169 0.83871 0.8266 0.0
C1433 C 0.83045 0.81533 0.83764 0.0
C1434 C 0.87017 0.83459 0.84981 0.0
C1435 C 0.87272 0.84903 0.78044 0.0
C1436 C 0.85264 0.83566 0.78645 0.0
C1437 C 0.8924 0.8566 0.79749 0.0
C1438 C 0.89187 0.85152 0.82052 0.0
Eu1439 Eu 0.80085 0.80705 0.78358 0.0
N1440 N 0.83319 0.82867 0.77048 0.0
C1441 C 0.87223 0.855 0.75768 0.0
C1442 C 0.83228 0.8356 0.74876 0.0
C1443 C 0.85184 0.84843 0.74183 0.0
H1444 H 0.81418 0.80724 0.84233 0.0
H1445 H 0.85109 0.85348 0.7244 0.0
H1446 H 0.75478 0.75719 0.69673 0.0
H1447 H 0.72262 0.68532 0.80142 0.0
H1448 H 0.81649 0.83124 0.73679 0.0
H1449 H 0.88731 0.8652 0.75239 0.0
H1450 H 0.7573 0.70883 0.79067 0.0
H1451 H 0.84782 0.82035 0.87341 0.0
H1452 H 0.90797 0.86687 0.79318 0.0
H1453 H 0.90702 0.85799 0.83364 0.0
H1454 H 0.71958 0.7521 0.66881 0.0
H1455 H 0.88475 0.84081 0.86367 0.0
H1456 H 0.68501 0.68179 0.7775 0.0
N1457 N 0.73834 0.74117 0.72291 0.0
C1458 C 0.71855 0.72829 0.72784 0.0
C1459 C 0.71893 0.7457 0.68554 0.0
C1460 C 0.69793 0.72442 0.71202 0.0
C1461 C 0.73889 0.7491 0.70173 0.0
C1462 C 0.69828 0.73357 0.69084 0.0
N1463 N 0.73937 0.72093 0.76254 0.0
C1464 C 0.74091 0.70845 0.78072 0.0
C1465 C 0.69886 0.70401 0.7533 0.0
C1466 C 0.71905 0.71812 0.74829 0.0
C1467 C 0.70013 0.69273 0.77307 0.0
C1468 C 0.72131 0.6947 0.78663 0.0
H1469 H 0.68286 0.73077 0.67815 0.0
H1470 H 0.66178 0.70796 0.70551 0.0
H1471 H 0.66256 0.69021 0.74169 0.0
O1472 O 0.77907 0.71218 0.75299 0.0
O1473 O 0.74639 0.76813 0.75762 0.0
O1474 O 0.76542 0.79044 0.79204 0.0
O1475 O 0.77187 0.7228 0.71822 0.0
O1476 O 0.77412 0.74868 0.79087 0.0
O1477 O 0.80491 0.77882 0.80554 0.0
O1478 O 0.79036 0.8379 0.77594 0.0
O1479 O 0.82406 0.79174 0.76124 0.0
O1480 O 0.81088 0.75364 0.76339 0.0
O1481 O 0.79603 0.83109 0.81253 0.0
O1482 O 0.77999 0.80248 0.74695 0.0
O1483 O 0.78786 0.77044 0.72896 0.0
C1484 C 0.74626 0.78176 0.77721 0.0
C1485 C 0.78025 0.68545 0.71919 0.0
C1486 C 0.79331 0.65114 0.72471 0.0
C1487 C 0.78348 0.64165 0.70133 0.0
C1488 C 0.77055 0.67598 0.69587 0.0
C1489 C 0.77239 0.65418 0.68693 0.0
C1490 C 0.79225 0.67334 0.73308 0.0
C1491 C 0.79003 0.76026 0.80813 0.0
C1492 C 0.7767 0.70707 0.73011 0.0
C1493 C 0.67775 0.71102 0.71742 0.0
C1494 C 0.6782 0.70092 0.73804 0.0
C1495 C 0.82723 0.77089 0.75972 0.0
C1496 C 0.78453 0.86588 0.80665 0.0
C1497 C 0.76769 0.89717 0.79806 0.0
C1498 C 0.77206 0.90601 0.82224 0.0
C1499 C 0.78879 0.87471 0.83078 0.0
C1500 C 0.77394 0.87711 0.79043 0.0
C1501 C 0.78256 0.89475 0.83851 0.0
C1502 C 0.78386 0.79063 0.72804 0.0
C1503 C 0.79039 0.84465 0.79826 0.0
H1504 H 0.78384 0.62443 0.69438 0.0
H1505 H 0.76114 0.68514 0.68483 0.0
H1506 H 0.76468 0.64674 0.66902 0.0
H1507 H 0.80042 0.68114 0.7508 0.0
H1508 H 0.76772 0.92177 0.82851 0.0
H1509 H 0.79692 0.86617 0.84363 0.0
H1510 H 0.77025 0.87008 0.77183 0.0
H1511 H 0.78595 0.90163 0.8571 0.0
Eu1512 Eu 0.57089 0.54675 0.53779 0.0
C1513 C 0.4869 0.46545 0.4854 0.0
N1514 N 0.50052 0.48405 0.47891 0.0
C1515 C 0.50061 0.46252 0.44136 0.0
C1516 C 0.48005 0.44446 0.47012 0.0
C1517 C 0.50709 0.48289 0.4571 0.0
C1518 C 0.48712 0.44318 0.44792 0.0
C1519 C 0.46538 0.44839 0.51445 0.0
C1520 C 0.47939 0.46744 0.50727 0.0
C1521 C 0.45891 0.42743 0.4994 0.0
C1522 C 0.4661 0.42551 0.47727 0.0
Eu1523 Eu 0.50748 0.51826 0.50573 0.0
N1524 N 0.48583 0.48794 0.52155 0.0
C1525 C 0.45816 0.45099 0.53652 0.0
C1526 C 0.47755 0.49092 0.54231 0.0
C1527 C 0.46412 0.47241 0.55043 0.0
H1528 H 0.51662 0.49773 0.45134 0.0
H1529 H 0.45797 0.47479 0.56716 0.0
H1530 H 0.56099 0.559 0.59413 0.0
H1531 H 0.61044 0.60287 0.47911 0.0
H1532 H 0.48059 0.50766 0.55227 0.0
H1533 H 0.44753 0.43673 0.54273 0.0
H1534 H 0.58926 0.56679 0.48935 0.0
H1535 H 0.50577 0.46185 0.42402 0.0
H1536 H 0.44814 0.41264 0.50463 0.0
H1537 H 0.4607 0.40929 0.46573 0.0
H1538 H 0.56977 0.59231 0.625 0.0
H1539 H 0.482 0.42745 0.43559 0.0
H1540 H 0.62181 0.63746 0.50907 0.0
N1541 N 0.57472 0.57766 0.56795 0.0
C1542 C 0.58676 0.59807 0.56335 0.0
C1543 C 0.57435 0.59422 0.60765 0.0
C1544 C 0.59291 0.61742 0.58095 0.0
C1545 C 0.56885 0.57542 0.58984 0.0
C1546 C 0.58642 0.61531 0.60321 0.0
N1547 N 0.58705 0.58086 0.52412 0.0
C1548 C 0.59323 0.5818 0.50224 0.0
C1549 C 0.60596 0.62059 0.53608 0.0
C1550 C 0.59327 0.59965 0.54102 0.0
C1551 C 0.6121 0.62169 0.51353 0.0
C1552 C 0.60561 0.60223 0.49653 0.0
H1553 H 0.59095 0.62976 0.61721 0.0
H1554 H 0.61062 0.65314 0.58939 0.0
H1555 H 0.62193 0.65593 0.55016 0.0
O1556 O 0.60583 0.54609 0.53285 0.0
O1557 O 0.54815 0.57202 0.52941 0.0
O1558 O 0.52183 0.55392 0.49689 0.0
O1559 O 0.59695 0.54932 0.56806 0.0
O1560 O 0.5684 0.52968 0.49993 0.0
O1561 O 0.53265 0.53041 0.48146 0.0
O1562 O 0.47725 0.53069 0.51149 0.0
O1563 O 0.52536 0.49139 0.5199 0.0
O1564 O 0.56283 0.50785 0.53759 0.0
O1565 O 0.48005 0.51444 0.47622 0.0
O1566 O 0.5139 0.53769 0.54307 0.0
O1567 O 0.54636 0.52922 0.56012 0.0
C1568 C 0.53282 0.57266 0.51119 0.0
C1569 C 0.62627 0.53045 0.56178 0.0
C1570 C 0.65635 0.51139 0.55389 0.0
C1571 C 0.65411 0.50128 0.57448 0.0
C1572 C 0.62414 0.52017 0.58233 0.0
C1573 C 0.63802 0.50564 0.58858 0.0
C1574 C 0.64244 0.52598 0.5477 0.0
C1575 C 0.55397 0.52942 0.48084 0.0
C1576 C 0.61265 0.54665 0.5553 0.0
C1577 C 0.60563 0.63818 0.576 0.0
C1578 C 0.61212 0.63976 0.55366 0.0
C1579 C 0.54543 0.48982 0.53067 0.0
C1580 C 0.44577 0.52783 0.48002 0.0
C1581 C 0.41405 0.5451 0.48578 0.0
C1582 C 0.40286 0.53448 0.46313 0.0
C1583 C 0.43451 0.51732 0.45742 0.0
C1584 C 0.4357 0.54202 0.49382 0.0
C1585 C 0.41317 0.52078 0.449 0.0
C1586 C 0.52579 0.53217 0.56112 0.0
C1587 C 0.46808 0.52438 0.48934 0.0
H1588 H 0.66461 0.4898 0.57949 0.0
H1589 H 0.6119 0.52343 0.59366 0.0
H1590 H 0.63633 0.49778 0.6044 0.0
H1591 H 0.64447 0.53415 0.53206 0.0
H1592 H 0.38595 0.53628 0.45657 0.0
H1593 H 0.44212 0.50638 0.44637 0.0
H1594 H 0.44473 0.55064 0.51098 0.0
H1595 H 0.40445 0.51255 0.43164 0.0
Eu1596 Eu 1.00194 0.52481 0.03519 0.0
C1597 C 0.08713 0.57759 0.98603 0.0
N1598 N 0.07098 0.55766 0.97846 0.0
C1599 C 0.06721 0.56685 0.93902 0.0
C1600 C 0.09365 0.59303 0.97015 0.0
C1601 C 0.06159 0.5518 0.95516 0.0
C1602 C 0.08319 0.58758 0.94654 0.0
C1603 C 0.11483 0.60281 0.01757 0.0
C1604 C 0.09767 0.58256 0.00967 0.0
C1605 C 0.12127 0.61801 0.00166 0.0
C1606 C 0.11063 0.61322 0.97811 0.0
Eu1607 Eu 0.06475 0.53391 0.00786 0.0
N1608 N 0.09087 0.56792 0.02507 0.0
C1609 C 0.12499 0.60724 0.04132 0.0
C1610 C 0.10134 0.57162 0.04792 0.0
C1611 C 0.11831 0.59151 0.05651 0.0
H1612 H 0.05018 0.53538 0.94857 0.0
H1613 H 0.12644 0.59453 0.07474 0.0
H1614 H 0.0177 0.52218 0.09422 0.0
H1615 H 0.93925 0.46422 0.96932 0.0
H1616 H 0.0969 0.55908 0.05936 0.0
H1617 H 0.1382 0.62261 0.04802 0.0
H1618 H 0.96597 0.50134 0.98598 0.0
H1619 H 0.05952 0.56224 0.92065 0.0
H1620 H 0.1344 0.63364 0.00745 0.0
H1621 H 0.11583 0.62519 0.96609 0.0
H1622 H 0.01211 0.49355 0.1209 0.0
H1623 H 0.08771 0.59904 0.93386 0.0
H1624 H 0.93328 0.43307 -0.00621 0.0
N1625 N 0.99853 0.49952 0.06373 0.0
C1626 C 0.98398 0.47865 0.05571 0.0
C1627 C 1.00439 0.48905 0.10253 0.0
C1628 C 0.97975 0.46199 0.07086 0.0
C1629 C 0.00792 0.50516 0.08706 0.0
C1630 C 0.99046 0.46732 0.09437 0.0
N1631 N 0.97668 0.4902 0.01793 0.0
C1632 C 0.96429 0.48735 -0.00396 0.0
C1633 C 0.95703 0.45281 0.02402 0.0
C1634 C 0.97255 0.47401 0.03243 0.0
C1635 C 0.94539 0.44911 0.00085 0.0
C1636 C 0.94881 0.46659 0.98691 0.0
H1637 H 0.98759 0.45499 0.10653 0.0
H1638 H 0.96127 0.42776 0.07374 0.0
H1639 H 0.94149 0.41973 0.03282 0.0
O1640 O 0.97263 0.53793 0.02162 0.0
O1641 O 0.01216 0.4921 0.01849 0.0
O1642 O 0.04302 0.49703 -0.0031 0.0
O1643 O 0.97713 0.53078 0.05762 0.0
O1644 O 0.01358 0.53911 0.00341 0.0
O1645 O 0.03404 0.52187 0.98048 0.0
O1646 O 0.09182 0.51915 0.02392 0.0
O1647 O 0.05516 0.56727 0.02345 0.0
O1648 O 0.02256 0.56244 0.04253 0.0
O1649 O 0.09079 0.52624 0.98787 0.0
O1650 O 0.05011 0.52001 0.03809 0.0
O1651 O 0.03244 0.53789 0.06273 0.0
C1652 C 0.02585 0.48397 0.00505 0.0
C1653 C 0.95872 0.56019 0.05073 0.0
C1654 C 0.9308 0.58358 0.04934 0.0
C1655 C 0.94318 0.59735 0.07016 0.0
C1656 C 0.97101 0.5744 0.07135 0.0
C1657 C 0.9632 0.59282 0.08098 0.0
C1658 C 0.93876 0.56503 0.03962 0.0
C1659 C 0.01467 0.52644 0.98407 0.0
C1660 C 0.96532 0.53918 0.042 0.0
C1661 C 0.96462 0.44071 0.06231 0.0
C1662 C 0.95332 0.43614 0.039 0.0
C1663 C 0.04053 0.57552 0.03549 0.0
C1664 C 0.1059 0.49526 -0.00341 0.0
C1665 C 0.13329 0.47131 -0.00353 0.0
C1666 C 0.11874 0.45621 0.97765 0.0
C1667 C 0.09141 0.47973 0.97807 0.0
C1668 C 0.12666 0.49077 0.00602 0.0
C1669 C 0.09785 0.46032 0.96869 0.0
C1670 C 0.05102 0.5322 0.05822 0.0
C1671 C 0.10061 0.51718 0.00444 0.0
H1672 H 0.93747 0.61177 0.07795 0.0
H1673 H 0.98642 0.57103 0.08029 0.0
H1674 H 0.97261 0.60352 0.09701 0.0
H1675 H 0.92906 0.55397 0.02388 0.0
H1676 H 0.12348 0.44113 0.96999 0.0
H1677 H 0.07539 0.48289 0.97044 0.0
H1678 H 0.138 0.50283 0.02014 0.0
H1679 H 0.08674 0.44859 0.95422 0.0
C1680 C 1.00024 0.18296 0.95888 0.0
C1681 C 0.00555 0.20311 0.97534 0.0
C1682 C 1.00403 0.16188 0.96518 0.0
C1683 C 0.01418 0.16052 0.98846 0.0
C1684 C 0.02026 0.18107 0.00491 0.0
C1685 C 0.01549 0.20171 -0.00162 0.0
C1686 C 0.99677 0.14083 0.94687 0.0
C1687 C 0.03199 0.1813 0.02957 0.0
C1688 C 1.00466 0.10132 0.01105 0.0
C1689 C 0.02505 0.09445 0.00846 0.0
C1690 C 1.00114 0.1226 0.00507 0.0
C1691 C 0.0181 0.13775 -0.00439 0.0
C1692 C 0.0387 0.13083 -0.00711 0.0
C1693 C 0.04192 0.10966 -0.00061 0.0
C1694 C 0.97905 0.12885 0.00891 0.0
C1695 C 0.0574 0.14567 0.98272 0.0
H1696 H 0.99242 0.1835 0.94109 0.0
H1697 H 0.01989 0.21699 0.01134 0.0
H1698 H 0.01166 0.13355 0.94429 0.0
H1699 H 0.98398 0.12762 0.9531 0.0
H1700 H 0.9892 0.1444 0.92958 0.0
H1701 H 0.03579 0.19843 0.04038 0.0
H1702 H 0.02112 0.16882 0.03858 0.0
H1703 H 0.04827 0.17601 0.02876 0.0
H1704 H 0.99136 0.09008 0.01799 0.0
H1705 H 0.0577 0.10484 -0.00311 0.0
H1706 H 0.96942 0.1302 0.99171 0.0
H1707 H 0.98264 0.14578 0.02003 0.0
H1708 H 0.96809 0.11611 0.0176 0.0
H1709 H 0.05132 0.14641 0.96394 0.0
H1710 H 0.07316 0.13916 0.98366 0.0
H1711 H 0.06176 0.16338 0.9922 0.0
C1712 C 0.1571 0.80802 0.14588 0.0
C1713 C 0.13379 0.80199 0.14818 0.0
C1714 C 0.17436 0.80582 0.16371 0.0
C1715 C 0.16842 0.79699 0.18447 0.0
C1716 C 0.14496 0.79135 0.18716 0.0
C1717 C 0.12805 0.79404 0.16917 0.0
C1718 C 0.19903 0.81251 0.16006 0.0
C1719 C 0.13765 0.78194 0.20886 0.0
C1720 C 0.21156 0.76873 0.21686 0.0
C1721 C 0.22355 0.78621 0.23498 0.0
C1722 C 0.1934 0.77185 0.2007 0.0
C1723 C 0.1867 0.79289 0.20276 0.0
C1724 C 0.19829 0.81027 0.2217 0.0
C1725 C 0.21665 0.8068 0.23736 0.0
C1726 C 0.18179 0.75279 0.18093 0.0
C1727 C 0.19185 0.83289 0.225 0.0
H1728 H 0.16193 0.81426 0.1299 0.0
H1729 H 0.1102 0.78918 0.17127 0.0
H1730 H 0.20929 0.82477 0.17536 0.0
H1731 H 0.20621 0.79721 0.15889 0.0
H1732 H 0.20105 0.82039 0.14374 0.0
H1733 H 0.11888 0.77881 0.20866 0.0
H1734 H 0.14279 0.76565 0.21018 0.0
H1735 H 0.14639 0.79399 0.22496 0.0
H1736 H 0.21689 0.75281 0.21488 0.0
H1737 H 0.22592 0.8204 0.2513 0.0
H1738 H 0.1846 0.75848 0.16368 0.0
H1739 H 0.16307 0.74839 0.18108 0.0
H1740 H 0.18829 0.73719 0.18222 0.0
H1741 H 0.19707 0.84263 0.21061 0.0
H1742 H 0.20023 0.84335 0.24219 0.0
H1743 H 0.17306 0.8303 0.22396 0.0
C1744 C 0.52782 0.85027 0.47407 0.0
C1745 C 0.50811 0.83519 0.47864 0.0
C1746 C 0.53124 0.87442 0.47926 0.0
C1747 C 0.51429 0.88418 0.48858 0.0
C1748 C 0.49422 0.86899 0.4928 0.0
C1749 C 0.49159 0.84502 0.48819 0.0
C1750 C 0.55319 0.88956 0.47492 0.0
C1751 C 0.47509 0.87806 0.50167 0.0
C1752 C 0.52782 0.94597 0.52203 0.0
C1753 C 0.52228 0.95873 0.50425 0.0
C1754 C 0.52598 0.9221 0.51707 0.0
C1755 C 0.51734 0.91008 0.49391 0.0
C1756 C 0.51101 0.9229 0.47608 0.0
C1757 C 0.51408 0.94693 0.4813 0.0
C1758 C 0.53369 0.90978 0.53666 0.0
C1759 C 0.50079 0.91122 0.45138 0.0
H1760 H 0.54073 0.8432 0.46662 0.0
H1761 H 0.47605 0.83387 0.49148 0.0
H1762 H 0.54945 0.90088 0.46196 0.0
H1763 H 0.56201 0.90069 0.49158 0.0
H1764 H 0.56496 0.87961 0.46818 0.0
H1765 H 0.4603 0.8642 0.50348 0.0
H1766 H 0.48132 0.88887 0.51909 0.0
H1767 H 0.46913 0.88902 0.48932 0.0
H1768 H 0.53432 0.95482 0.53979 0.0
H1769 H 0.5096 0.95649 0.46741 0.0
H1770 H 0.54656 0.90063 0.53119 0.0
H1771 H 0.51901 0.8968 0.54026 0.0
H1772 H 0.54128 0.92159 0.55329 0.0
H1773 H 0.51402 0.90509 0.44261 0.0
H1774 H 0.49392 0.92282 0.44046 0.0
H1775 H 0.48679 0.89611 0.45189 0.0
C1776 C 0.5113 0.31688 0.66832 0.0
C1777 C 0.51275 0.30119 0.64902 0.0
C1778 C 0.49246 0.31308 0.68062 0.0
C1779 C 0.47457 0.29318 0.67336 0.0
C1780 C 0.47556 0.27776 0.65336 0.0
C1781 C 0.49464 0.28187 0.64154 0.0
C1782 C 0.49213 0.32995 0.70184 0.0
C1783 C 0.45665 0.25655 0.64473 0.0
C1784 C 0.43798 0.26343 0.71469 0.0
C1785 C 0.41704 0.26881 0.70815 0.0
C1786 C 0.45737 0.27274 0.70479 0.0
C1787 C 0.45558 0.28728 0.68746 0.0
C1788 C 0.43474 0.29374 0.68179 0.0
C1789 C 0.41572 0.28454 0.69237 0.0
C1790 C 0.47943 0.26598 0.71193 0.0
C1791 C 0.43207 0.30922 0.66349 0.0
H1792 H 0.52515 0.33193 0.67418 0.0
H1793 H 0.49542 0.2698 0.62648 0.0
H1794 H 0.47532 0.33439 0.70099 0.0
H1795 H 0.49473 0.32213 0.71812 0.0
H1796 H 0.50572 0.3459 0.70336 0.0
H1797 H 0.45935 0.24696 0.62815 0.0
H1798 H 0.45557 0.24509 0.65844 0.0
H1799 H 0.43996 0.26117 0.64159 0.0
H1800 H 0.43902 0.25145 0.72713 0.0
H1801 H 0.39948 0.28869 0.68739 0.0
H1802 H 0.49396 0.28127 0.71595 0.0
H1803 H 0.48287 0.25458 0.69707 0.0
H1804 H 0.47884 0.25693 0.72762 0.0
H1805 H 0.44669 0.3244 0.6666 0.0
H1806 H 0.41595 0.31504 0.66342 0.0
H1807 H 0.43193 0.29994 0.64573 0.0
C1808 C 0.03454 0.81184 0.6337 0.0
C1809 C 0.01393 0.80584 0.6427 0.0
C1810 C 0.03866 0.82989 0.62035 0.0
C1811 C 0.02197 0.8426 0.61625 0.0
C1812 C 1.00103 0.83649 0.62509 0.0
C1813 C 0.99717 0.81805 0.638 0.0
C1814 C 0.06105 0.83554 0.61087 0.0
C1815 C 0.98288 0.84968 0.62124 0.0
C1816 C 0.04768 0.90231 0.60416 0.0
C1817 C 0.04402 0.8994 0.57946 0.0
C1818 C 0.03923 0.88434 0.61644 0.0
C1819 C 0.02708 0.86287 0.60364 0.0
C1820 C 0.02208 0.86037 0.57867 0.0
C1821 C 0.03071 0.8787 0.56685 0.0
C1822 C 0.04474 0.88788 0.64304 0.0
C1823 C 0.00922 0.83785 0.56429 0.0
H1824 H 0.04747 0.80235 0.63702 0.0
H1825 H 0.98119 0.81352 0.64488 0.0
H1826 H 0.05782 0.83553 0.59151 0.0
H1827 H 0.07093 0.85293 0.61898 0.0
H1828 H 0.0717 0.82327 0.6145 0.0
H1829 H 0.96758 0.84286 0.62938 0.0
H1830 H 0.98994 0.86787 0.62886 0.0
H1831 H 0.97748 0.84912 0.60205 0.0
H1832 H 0.0583 0.91826 0.61382 0.0
H1833 H 0.02828 0.87639 0.5477 0.0
H1834 H 0.05767 0.87836 0.64847 0.0
H1835 H 0.02928 0.88113 0.65091 0.0
H1836 H 0.05164 0.90618 0.65044 0.0
H1837 H 0.02061 0.82587 0.56397 0.0
H1838 H 1.00328 0.83975 0.54579 0.0
H1839 H 0.99422 0.83001 0.57231 0.0
C1840 C 0.46915 0.789 0.79894 0.0
C1841 C 0.48035 0.80375 0.8196 0.0
C1842 C 0.44575 0.78736 0.79038 0.0
C1843 C 0.43294 0.80023 0.8031 0.0
C1844 C 0.44454 0.81569 0.82346 0.0
C1845 C 0.46787 0.81733 0.83123 0.0
C1846 C 0.4344 0.77103 0.76832 0.0
C1847 C 0.43195 0.82955 0.83803 0.0
C1848 C 0.37438 0.80807 0.77579 0.0
C1849 C 0.3588 0.79278 0.78608 0.0
C1850 C 0.39831 0.81056 0.78093 0.0
C1851 C 0.4073 0.79683 0.79614 0.0
C1852 C 0.39166 0.78073 0.80592 0.0
C1853 C 0.36785 0.77909 0.80102 0.0
C1854 C 0.41404 0.82836 0.77046 0.0
C1855 C 0.40009 0.76529 0.82182 0.0
H1856 H 0.47829 0.77791 0.79016 0.0
H1857 H 0.47612 0.82832 0.84758 0.0
H1858 H 0.4213 0.75695 0.77284 0.0
H1859 H 0.42546 0.77989 0.75575 0.0
H1860 H 0.44684 0.76359 0.75939 0.0
H1861 H 0.44365 0.84197 0.85238 0.0
H1862 H 0.42244 0.83897 0.82667 0.0
H1863 H 0.41924 0.81795 0.84613 0.0
H1864 H 0.36798 0.81828 0.76373 0.0
H1865 H 0.35627 0.76685 0.80887 0.0
H1866 H 0.42678 0.82087 0.76218 0.0
H1867 H 0.42362 0.84223 0.78471 0.0
H1868 H 0.40459 0.83595 0.75703 0.0
H1869 H 0.41053 0.75535 0.81255 0.0
H1870 H 0.38586 0.75317 0.82745 0.0
H1871 H 0.41127 0.77566 0.83779 0.0
C1872 C 0.5287 0.16757 0.14985 0.0
C1873 C 0.51687 0.18445 0.14533 0.0
C1874 C 0.52991 0.15029 0.13187 0.0
C1875 C 0.51833 0.14915 0.10871 0.0
C1876 C 0.50621 0.16607 0.10401 0.0
C1877 C 0.50597 0.18372 0.12223 0.0
C1878 C 0.54379 0.13332 0.13768 0.0
C1879 C 0.49301 0.16519 0.07987 0.0
C1880 C 0.53689 0.11418 0.05808 0.0
C1881 C 0.52198 0.09259 0.05656 0.0
C1882 C 0.53571 0.13276 0.07464 0.0
C1883 C 0.51876 0.13003 0.0897 0.0
C1884 C 0.50311 0.10846 0.08756 0.0
C1885 C 0.50511 0.09002 0.07135 0.0
C1886 C 0.55323 0.15509 0.07664 0.0
C1887 C 0.48444 0.10469 0.10275 0.0
H1888 H 0.53748 0.16814 0.16753 0.0
H1889 H 0.49675 0.19661 0.11855 0.0
H1890 H 0.53252 0.11587 0.13499 0.0
H1891 H 0.55669 0.13321 0.12562 0.0
H1892 H 0.55276 0.1372 0.15619 0.0
H1893 H 0.48506 0.17991 0.07876 0.0
H1894 H 0.50438 0.16495 0.06623 0.0
H1895 H 0.47933 0.14919 0.07557 0.0
H1896 H 0.55013 0.11636 0.04693 0.0
H1897 H 0.49344 0.07347 0.0703 0.0
H1898 H 0.56357 0.15906 0.09451 0.0
H1899 H 0.54463 0.16919 0.07444 0.0
H1900 H 0.56494 0.15472 0.0633 0.0
H1901 H 0.49207 0.10527 0.12136 0.0
H1902 H 0.47198 0.08796 0.09699 0.0
H1903 H 0.47512 0.11846 0.1023 0.0
C1904 C 0.1175 0.29708 0.30503 0.0
C1905 C 0.12089 0.31623 0.32257 0.0
C1906 C 0.13618 0.29057 0.29545 0.0
C1907 C 0.15918 0.30327 0.30342 0.0
C1908 C 0.16253 0.32295 0.32054 0.0
C1909 C 0.14368 0.32907 0.32971 0.0
C1910 C 0.13129 0.26962 0.27714 0.0
C1911 C 0.18629 0.33751 0.3296 0.0
C1912 C 0.2121 0.27723 0.30126 0.0
C1913 C 0.22139 0.28522 0.28174 0.0
C1914 C 0.1915 0.28197 0.30764 0.0
C1915 C 0.17988 0.29586 0.29487 0.0
C1916 C 0.18923 0.30388 0.27501 0.0
C1917 C 0.20943 0.29817 0.26851 0.0
C1918 C 0.18228 0.27224 0.32839 0.0
C1919 C 0.17818 0.31901 0.26085 0.0
H1920 H 0.10026 0.28683 0.29912 0.0
H1921 H 0.147 0.344 0.34301 0.0
H1922 H 0.14004 0.27347 0.26175 0.0
H1923 H 0.13813 0.25609 0.28476 0.0
H1924 H 0.1127 0.26289 0.27085 0.0
H1925 H 0.18623 0.35265 0.34234 0.0
H1926 H 0.19684 0.32722 0.33845 0.0
H1927 H 0.19471 0.34345 0.31465 0.0
H1928 H 0.2209 0.26701 0.31153 0.0
H1929 H 0.21632 0.30453 0.25343 0.0
H1930 H 0.16421 0.2626 0.323 0.0
H1931 H 0.18254 0.28631 0.34257 0.0
H1932 H 0.19229 0.26069 0.3357 0.0
H1933 H 0.16037 0.30991 0.25319 0.0
H1934 H 0.18762 0.32433 0.2463 0.0
H1935 H 0.1773 0.33453 0.27253 0.0
C1936 C 0.96175 0.02659 0.17853 0.0
C1937 C 0.97672 0.02123 0.19635 0.0
C1938 C 0.96855 0.03087 0.15664 0.0
C1939 C 0.99107 0.03045 0.15273 0.0
C1940 C 0.0067 0.02662 0.1713 0.0
C1941 C 0.99923 0.02162 0.19268 0.0
C1942 C 0.95127 0.03464 0.13729 0.0
C1943 C 0.03124 0.02735 0.16845 0.0
C1944 C 1.00363 0.01231 0.09134 0.0
C1945 C 0.0102 0.03318 0.08303 0.0
C1946 C 0.99628 0.01124 0.11342 0.0
C1947 C 0.99761 0.0317 0.12862 0.0
C1948 C 0.00553 0.05298 0.1208 0.0
C1949 C 0.01088 0.05342 0.09771 0.0
C1950 C 0.98715 0.98813 0.12045 0.0
C1951 C 0.00886 0.07528 0.13682 0.0
H1952 H 0.94435 0.02635 0.18126 0.0
H1953 H 0.01102 0.01789 0.20653 0.0
H1954 H 0.95785 0.051 0.13086 0.0
H1955 H 0.94841 0.02083 0.12208 0.0
H1956 H 0.93461 0.03494 0.14325 0.0
H1957 H 0.04187 0.02685 0.18541 0.0
H1958 H 0.03199 0.01259 0.15562 0.0
H1959 H 0.03881 0.04307 0.16133 0.0
H1960 H 1.00419 0.99672 0.08049 0.0
H1961 H 0.01655 0.06963 0.09151 0.0
H1962 H 0.97033 0.98741 0.12642 0.0
H1963 H 0.99894 0.98522 0.13542 0.0
H1964 H 0.98505 0.97403 0.10567 0.0
H1965 H 0.99216 0.07973 0.13725 0.0
H1966 H 0.02053 0.08945 0.13057 0.0
H1967 H 0.01595 0.074 0.15517 0.0
C1968 C 0.26412 0.68001 0.49616 0.0
C1969 C 0.26967 0.6589 0.49221 0.0
C1970 C 0.2643 0.69389 0.47857 0.0
C1971 C 0.27009 0.68629 0.45656 0.0
C1972 C 0.27817 0.66617 0.45342 0.0
C1973 C 0.27789 0.65256 0.4715 0.0
C1974 C 0.2562 0.7156 0.48283 0.0
C1975 C 0.28536 0.65819 0.43043 0.0
C1976 C 0.23121 0.70192 0.40894 0.0
C1977 C 0.24505 0.72186 0.40399 0.0
C1978 C 0.23993 0.68908 0.42472 0.0
C1979 C 0.26292 0.69678 0.43604 0.0
C1980 C 0.2773 0.71642 0.43022 0.0
C1981 C 0.26814 0.72878 0.41403 0.0
C1982 C 0.22416 0.66797 0.43024 0.0
C1983 C 0.30185 0.72515 0.44193 0.0
H1984 H 0.25885 0.68535 0.51276 0.0
H1985 H 0.28275 0.63643 0.46891 0.0
H1986 H 0.26798 0.72996 0.47709 0.0
H1987 H 0.23907 0.71333 0.47229 0.0
H1988 H 0.25491 0.72032 0.50172 0.0
H1989 H 0.29407 0.64403 0.43198 0.0
H1990 H 0.27008 0.65213 0.41662 0.0
H1991 H 0.297 0.67252 0.42445 0.0
H1992 H 0.21351 0.69649 0.40053 0.0
H1993 H 0.2788 0.74411 0.40965 0.0
H1994 H 0.2206 0.67106 0.4486 0.0
H1995 H 0.23235 0.65336 0.42898 0.0
H1996 H 0.20761 0.6631 0.41811 0.0
H1997 H 0.30246 0.7363 0.45874 0.0
H1998 H 0.31227 0.73543 0.43061 0.0
H1999 H 0.30976 0.711 0.44614 0.0
C2000 C 0.64836 0.04196 0.65805 0.0
C2001 C 0.64157 0.03606 0.67912 0.0
C2002 C 0.63477 0.03158 0.63679 0.0
C2003 C 0.6137 0.01617 0.63743 0.0
C2004 C 0.60838 0.0081 0.65853 0.0
C2005 C 0.6227 0.01823 0.67947 0.0
C2006 C 0.64131 0.03961 0.61418 0.0
C2007 C 0.586 0.9916 0.65949 0.0
C2008 C 0.56912 0.0354 0.60061 0.0
C2009 C 0.56526 0.0194 0.58039 0.0
C2010 C 0.58391 0.03354 0.62015 0.0
C2011 C 0.59494 0.01526 0.61894 0.0
C2012 C 0.58967 0.99804 0.59923 0.0
C2013 C 0.57457 1.00026 0.58001 0.0
C2014 C 0.58927 0.05235 0.64107 0.0
C2015 C 0.60144 0.97862 0.59737 0.0
H2016 H 0.66368 0.05524 0.65828 0.0
H2017 H 0.61822 0.0135 0.69618 0.0
H2018 H 0.63562 0.02558 0.59909 0.0
H2019 H 0.63293 0.05354 0.61026 0.0
H2020 H 0.6601 0.04636 0.61574 0.0
H2021 H 0.58673 0.98337 0.67573 0.0
H2022 H 0.57227 1.00101 0.6595 0.0
H2023 H 0.58125 0.97818 0.64381 0.0
H2024 H 0.5619 0.05021 0.60058 0.0
H2025 H 0.57115 0.9878 0.56417 0.0
H2026 H 0.60669 0.06318 0.64155 0.0
H2027 H 0.58884 0.04514 0.65787 0.0
H2028 H 0.57705 0.06352 0.64016 0.0
H2029 H 0.61783 0.98436 0.59066 0.0
H2030 H 0.59087 0.96371 0.58482 0.0
H2031 H 0.60541 0.97309 0.61476 0.0
C2032 C 0.28857 0.34992 0.94872 0.0
C2033 C 0.29899 0.3378 0.96435 0.0
C2034 C 0.2865 0.34395 0.92403 0.0
C2035 C 0.29479 0.32526 0.91472 0.0
C2036 C 0.30499 0.31279 0.93043 0.0
C2037 C 0.30699 0.31921 0.95492 0.0
C2038 C 0.27589 0.35793 0.9079 0.0
C2039 C 0.31416 0.29281 0.92135 0.0
C2040 C 0.2727 0.29388 0.85219 0.0
C2041 C 0.29117 0.3015 0.84032 0.0
C2042 C 0.27334 0.30205 0.87617 0.0
C2043 C 0.29282 0.31842 0.88862 0.0
C2044 C 0.31117 0.3268 0.87647 0.0
C2045 C 0.31011 0.31824 0.85254 0.0
C2046 C 0.25349 0.29253 0.88842 0.0
C2047 C 0.33212 0.34453 0.88884 0.0
H2048 H 0.28264 0.3645 0.95576 0.0
H2049 H 0.31519 0.30977 0.96675 0.0
H2050 H 0.28816 0.36504 0.89634 0.0
H2051 H 0.2606 0.34692 0.89623 0.0
H2052 H 0.27073 0.37224 0.91785 0.0
H2053 H 0.32102 0.28448 0.93585 0.0
H2054 H 0.30045 0.27991 0.90936 0.0
H2055 H 0.32803 0.29862 0.91097 0.0
H2056 H 0.25792 0.28106 0.84291 0.0
H2057 H 0.32423 0.32465 0.84342 0.0
H2058 H 0.24708 0.3066 0.89709 0.0
H2059 H 0.25926 0.28311 0.90247 0.0
H2060 H 0.23913 0.28077 0.87605 0.0
H2061 H 0.32709 0.36006 0.89615 0.0
H2062 H 0.3448 0.34939 0.87684 0.0
H2063 H 0.34049 0.33799 0.90389 0.0
C2064 C 0.99676 0.03877 0.3368 0.0
C2065 C 0.9753 0.02509 0.3265 0.0
C2066 C 1.00397 0.04128 0.36132 0.0
C2067 C 0.98983 0.02892 0.37565 0.0
C2068 C 0.96783 0.01554 0.3653 0.0
C2069 C 0.96072 0.01408 0.34089 0.0
C2070 C 0.02715 0.05641 0.3717 0.0
C2071 C 0.95238 1.00164 0.37969 0.0
C2072 C 0.02068 0.0129 0.43063 0.0
C2073 C 0.01555 0.02735 0.44887 0.0
C2074 C 0.012 0.01292 0.40686 0.0
C2075 C 0.99875 0.02857 0.40097 0.0
C2076 C 0.9942 0.0438 0.41925 0.0
C2077 C 1.00232 0.04274 0.44294 0.0
C2078 C 0.01664 0.99584 0.38806 0.0
C2079 C 0.98096 0.06137 0.41382 0.0
H2080 H 0.0081 0.04709 0.32559 0.0
H2081 H 0.94427 0.00314 0.33278 0.0
H2082 H 0.02593 0.06764 0.38784 0.0
H2083 H 0.03901 0.04573 0.37693 0.0
H2084 H 0.03461 0.06722 0.35897 0.0
H2085 H 0.93556 0.99263 0.36915 0.0
H2086 H 0.96073 0.98877 0.38674 0.0
H2087 H 0.94941 0.01275 0.39504 0.0
H2088 H 0.03112 1.00122 0.43489 0.0
H2089 H 0.99848 0.0542 0.45686 0.0
H2090 H 0.02573 0.0048 0.375 0.0
H2091 H 1.00021 0.98489 0.37838 0.0
H2092 H 0.02708 0.98471 0.39552 0.0
H2093 H 0.98977 0.07262 0.4022 0.0
H2094 H 0.97909 0.07214 0.43004 0.0
H2095 H 0.96369 0.05287 0.40411 0.0
C2096 C 0.2894 0.69864 0.60657 0.0
C2097 C 0.26857 0.68297 0.5984 0.0
C2098 C 0.29479 0.70819 0.63028 0.0
C2099 C 0.27914 0.70113 0.64578 0.0
C2100 C 0.25946 0.68319 0.63803 0.0
C2101 C 0.25406 0.67461 0.61405 0.0
C2102 C 0.31576 0.7276 0.63805 0.0
C2103 C 0.24305 0.67462 0.65452 0.0
C2104 C 0.29597 0.72894 0.70885 0.0
C2105 C 0.28456 0.74666 0.70872 0.0
C2106 C 0.29378 0.71328 0.68861 0.0
C2107 C 0.28042 0.71601 0.66786 0.0
C2108 C 0.26882 0.73381 0.66764 0.0
C2109 C 0.27084 0.74883 0.68827 0.0
C2110 C 0.30557 0.69388 0.68946 0.0
C2111 C 0.25441 0.73714 0.64559 0.0
H2112 H 0.30062 0.70462 0.59415 0.0
H2113 H 0.23829 0.66184 0.60743 0.0
H2114 H 0.31043 0.74394 0.64046 0.0
H2115 H 0.32503 0.72575 0.65524 0.0
H2116 H 0.32771 0.72867 0.62486 0.0
H2117 H 0.23231 0.65727 0.64739 0.0
H2118 H 0.25233 0.67418 0.67221 0.0
H2119 H 0.23155 0.68631 0.65681 0.0
H2120 H 0.3064 0.72708 0.72482 0.0
H2121 H 0.26168 0.76225 0.68835 0.0
H2122 H 0.31806 0.695 0.67688 0.0
H2123 H 0.29285 0.67733 0.68395 0.0
H2124 H 0.31469 0.69388 0.70738 0.0
H2125 H 0.26475 0.73894 0.63102 0.0
H2126 H 0.24737 0.75246 0.64836 0.0
H2127 H 0.23991 0.72201 0.6398 0.0
C2128 C 0.63173 0.02729 0.7987 0.0
C2129 C 0.65202 0.04366 0.79932 0.0
C2130 C 0.62006 0.02714 0.81812 0.0
C2131 C 0.62861 0.04447 0.83773 0.0
C2132 C 0.6506 0.05919 0.83942 0.0
C2133 C 0.6622 0.05848 0.82001 0.0
C2134 C 0.59729 0.01038 0.8163 0.0
C2135 C 0.66034 0.07786 0.86014 0.0
C2136 C 0.58879 0.07753 0.86127 0.0
C2137 C 0.59011 0.07305 0.88457 0.0
C2138 C 0.60022 0.06713 0.84532 0.0
C2139 C 0.61273 0.05141 0.85278 0.0
C2140 C 0.61247 0.04523 0.87558 0.0
C2141 C 0.60156 0.05652 0.89145 0.0
C2142 C 0.60011 0.07416 0.82098 0.0
C2143 C 0.62469 0.02768 0.88362 0.0
H2144 H 0.62417 0.0158 0.78248 0.0
H2145 H 0.67799 0.07111 0.82011 0.0
H2146 H 0.59387 0.00595 0.83387 0.0
H2147 H 0.58351 0.01808 0.80897 0.0
H2148 H 0.59656 0.99448 0.80429 0.0
H2149 H 0.67861 0.08599 0.85994 0.0
H2150 H 0.65052 0.09123 0.8596 0.0
H2151 H 0.65884 0.07105 0.87705 0.0
H2152 H 0.5794 0.08973 0.85571 0.0
H2153 H 0.60288 0.053 0.90951 0.0
H2154 H 0.59428 0.05894 0.80722 0.0
H2155 H 0.61771 0.08283 0.81881 0.0
H2156 H 0.58881 0.08595 0.8178 0.0
H2157 H 0.62238 0.01313 0.86933 0.0
H2158 H 0.61848 0.02107 0.89943 0.0
H2159 H 0.64328 0.03549 0.88824 0.0
C2160 C 0.28815 0.31741 0.09643 0.0
C2161 C 0.29692 0.34057 0.09536 0.0
C2162 C 0.28425 0.30972 0.11803 0.0
C2163 C 0.29025 0.32543 0.13925 0.0
C2164 C 0.29886 0.34894 0.13816 0.0
C2165 C 0.30172 0.35627 0.11616 0.0
C2166 C 0.27427 0.28466 0.11821 0.0
C2167 C 0.30627 0.36617 0.16034 0.0
C2168 C 0.26856 0.30844 0.19579 0.0
C2169 C 0.28635 0.29975 0.20605 0.0
C2170 C 0.2694 0.31658 0.1739 0.0
C2171 C 0.28896 0.31701 0.16261 0.0
C2172 C 0.30727 0.30891 0.17345 0.0
C2173 C 0.30548 0.29989 0.19472 0.0
C2174 C 0.24914 0.32419 0.16258 0.0
C2175 C 0.32882 0.30978 0.16263 0.0
H2176 H 0.28453 0.30527 0.08034 0.0
H2177 H 0.3089 0.37414 0.11536 0.0
H2178 H 0.2873 0.27701 0.12723 0.0
H2179 H 0.25963 0.2824 0.12823 0.0
H2180 H 0.26836 0.27512 0.10009 0.0
H2181 H 0.3114 0.38393 0.15645 0.0
H2182 H 0.29231 0.36506 0.1712 0.0
H2183 H 0.32099 0.36233 0.17117 0.0
H2184 H 0.25364 0.30807 0.20447 0.0
H2185 H 0.31932 0.2934 0.20284 0.0
H2186 H 0.24265 0.31411 0.14481 0.0
H2187 H 0.25438 0.34236 0.16013 0.0
H2188 H 0.23499 0.32218 0.17328 0.0
H2189 H 0.32486 0.29851 0.14538 0.0
H2190 H 0.34208 0.30433 0.17413 0.0
H2191 H 0.33601 0.32738 0.15928 0.0
C2192 C 0.22591 0.94995 0.98317 0.0
C2193 C 0.24754 0.96389 0.98308 0.0
C2194 C 0.20942 0.95886 -0.00682 0.0
C2195 C 0.21532 0.98195 0.00372 0.0
C2196 C 0.23666 0.99642 0.0021 0.0
C2197 C 0.25252 0.98719 0.99129 0.0
C2198 C 0.18645 0.94329 -0.00601 0.0
C2199 C 0.24359 0.02101 0.01376 0.0
C2200 C 0.17324 0.0139 0.02316 0.0
C2201 C 0.17554 0.01235 0.04742 0.0
C2202 C 0.18503 0.00274 0.00836 0.0
C2203 C 0.20016 0.99064 0.01829 0.0
C2204 C 0.20248 0.98871 0.04266 0.0
C2205 C 0.18987 0.99947 0.05697 0.0
C2206 C 0.18193 0.00456 0.98228 0.0
C2207 C 0.21878 0.97596 0.0537 0.0
H2208 H 0.22244 0.93183 0.97674 0.0
H2209 H 0.26955 0.99764 0.99143 0.0
H2210 H 0.18486 0.94057 0.01247 0.0
H2211 H 0.1725 0.95125 0.98768 0.0
H2212 H 0.18399 0.92639 0.98308 0.0
H2213 H 0.26032 0.03017 0.00966 0.0
H2214 H 0.23049 0.03022 0.00807 0.0
H2215 H 0.24488 0.02166 0.03321 0.0
H2216 H 0.16249 0.02421 0.01575 0.0
H2217 H 0.19133 0.99795 0.07562 0.0
H2218 H 0.179 0.98748 0.97164 0.0
H2219 H 0.1977 0.01536 0.97787 0.0
H2220 H 0.16737 0.01214 0.97695 0.0
H2221 H 0.21464 0.95805 0.0448 0.0
H2222 H 0.21822 0.97584 0.07287 0.0
H2223 H 0.23652 0.98394 0.05134 0.0
C2224 C 0.7051 0.62099 0.00421 0.0
C2225 C 0.70274 0.64279 0.00025 0.0
C2226 C 0.68584 0.60349 0.00552 0.0
C2227 C 0.66381 0.60801 0.00301 0.0
C2228 C 0.66134 0.62981 -0.00152 0.0
C2229 C 0.68073 0.64679 -0.00301 0.0
C2230 C 0.68908 0.58031 0.0099 0.0
C2231 C 0.63825 0.63553 -0.00396 0.0
C2232 C 0.60687 0.56432 0.98836 0.0
C2233 C 0.60031 0.56339 0.01071 0.0
C2234 C 0.62851 0.57718 0.9858 0.0
C2235 C 0.64321 0.5905 0.00593 0.0
C2236 C 0.63674 0.58907 0.02862 0.0
C2237 C 0.61571 0.57477 0.03077 0.0
C2238 C 0.63529 0.57717 0.96149 0.0
C2239 C 0.6513 0.6037 0.05046 0.0
H2240 H 0.722 0.61771 0.00677 0.0
H2241 H 0.67861 0.6635 -0.00616 0.0
H2242 H 0.68383 0.57655 0.02706 0.0
H2243 H 0.67801 0.56691 -0.00398 0.0
H2244 H 0.70711 0.57914 0.01016 0.0
H2245 H 0.63929 0.65337 -0.00727 0.0
H2246 H 0.62643 0.62386 0.98127 0.0
H2247 H 0.63063 0.63312 0.01239 0.0
H2248 H 0.59507 0.55497 0.97292 0.0
H2249 H 0.61067 0.57358 0.04808 0.0
H2250 H 0.65305 0.57513 0.96194 0.0
H2251 H 0.63479 0.59373 0.95536 0.0
H2252 H 0.6237 0.56329 0.94843 0.0
H2253 H 0.66856 0.60027 0.0527 0.0
H2254 H 0.64365 0.6007 0.06672 0.0
H2255 H 0.65349 0.622 0.04855 0.0
C2256 C 0.66766 0.47856 0.27675 0.0
C2257 C 0.67979 0.49968 0.28955 0.0
C2258 C 0.67883 0.46137 0.27078 0.0
C2259 C 0.70272 0.46547 0.27768 0.0
C2260 C 0.71492 0.48631 0.29161 0.0
C2261 C 0.70327 0.50322 0.29744 0.0
C2262 C 0.66516 0.43911 0.25637 0.0
C2263 C 0.74037 0.49104 0.29961 0.0
C2264 C 0.72546 0.41236 0.27185 0.0
C2265 C 0.73303 0.41265 0.24978 0.0
C2266 C 0.71687 0.43015 0.28186 0.0
C2267 C 0.71492 0.44831 0.26909 0.0
C2268 C 0.72282 0.449 0.24701 0.0
C2269 C 0.73202 0.43128 0.23772 0.0
C2270 C 0.70905 0.42897 0.30566 0.0
C2271 C 0.72078 0.46805 0.2328 0.0
H2272 H 0.64944 0.47558 0.27094 0.0
H2273 H 0.71271 0.51947 0.30746 0.0
H2274 H 0.67119 0.43684 0.23905 0.0
H2275 H 0.66776 0.42457 0.2655 0.0
H2276 H 0.64656 0.43832 0.25321 0.0
H2277 H 0.74689 0.50706 0.31228 0.0
H2278 H 0.74468 0.4767 0.30806 0.0
H2279 H 0.74944 0.49249 0.28407 0.0
H2280 H 0.72559 0.39787 0.28117 0.0
H2281 H 0.73819 0.43193 0.2209 0.0
H2282 H 0.6901 0.42429 0.30328 0.0
H2283 H 0.71491 0.4458 0.31704 0.0
H2284 H 0.71546 0.41608 0.31501 0.0
H2285 H 0.70245 0.46742 0.22732 0.0
H2286 H 0.72909 0.46692 0.21673 0.0
H2287 H 0.7286 0.48486 0.24374 0.0
C2288 C 0.87091 0.46721 0.52698 0.0
C2289 C 0.8612 0.4616 0.50317 0.0
C2290 C 0.89273 0.48178 0.53353 0.0
C2291 C 0.90443 0.49094 0.51575 0.0
C2292 C 0.89341 0.48729 0.49204 0.0
C2293 C 0.87189 0.47235 0.486 0.0
C2294 C 0.90417 0.48528 0.55887 0.0
C2295 C 0.90529 0.49696 0.47255 0.0
C2296 C 0.95995 0.53429 0.52206 0.0
C2297 C 0.97386 0.52018 0.51478 0.0
C2298 C 0.93752 0.52485 0.52513 0.0
C2299 C 0.9292 0.5009 0.52062 0.0
C2300 C 0.94406 0.48661 0.51553 0.0
C2301 C 0.96625 0.49654 0.5122 0.0
C2302 C 0.9221 0.54054 0.53034 0.0
C2303 C 0.93584 0.46093 0.51081 0.0
H2304 H 0.86249 0.45852 0.54009 0.0
H2305 H 0.86413 0.46778 0.46759 0.0
H2306 H 0.91674 0.47456 0.56049 0.0
H2307 H 0.9137 0.5033 0.56458 0.0
H2308 H 0.89164 0.48048 0.57102 0.0
H2309 H 0.89311 0.49564 0.45614 0.0
H2310 H 0.91432 0.51513 0.47814 0.0
H2311 H 0.91823 0.48738 0.46838 0.0
H2312 H 0.96609 0.55267 0.52367 0.0
H2313 H 0.97702 0.48584 0.50589 0.0
H2314 H 0.91027 0.53377 0.54245 0.0
H2315 H 0.91156 0.54179 0.51362 0.0
H2316 H 0.93205 0.55799 0.53824 0.0
H2317 H 0.92507 0.45463 0.52401 0.0
H2318 H 0.95031 0.45246 0.51119 0.0
H2319 H 0.92524 0.45576 0.4931 0.0
C2320 C 0.3444 0.079 0.32043 0.0
C2321 C 0.36271 0.07464 0.30957 0.0
C2322 C 0.3323 0.09449 0.31232 0.0
C2323 C 0.33848 0.10505 0.29265 0.0
C2324 C 0.3578 0.10164 0.28264 0.0
C2325 C 0.37003 0.08699 0.29171 0.0
C2326 C 0.31221 0.09838 0.32384 0.0
C2327 C 0.36474 0.11223 0.26129 0.0
C2328 C 0.30179 0.12211 0.2448 0.0
C2329 C 0.31088 0.14566 0.24871 0.0
C2330 C 0.3083 0.10853 0.26112 0.0
C2331 C 0.32467 0.11895 0.28125 0.0
C2332 C 0.33229 0.14294 0.2862 0.0
C2333 C 0.32527 0.1561 0.26975 0.0
C2334 C 0.29933 0.08297 0.25567 0.0
C2335 C 0.34956 0.15451 0.30765 0.0
H2336 H 0.33881 0.06956 0.33437 0.0
H2337 H 0.38448 0.08399 0.28355 0.0
H2338 H 0.31119 0.11647 0.32484 0.0
H2339 H 0.29616 0.08771 0.31314 0.0
H2340 H 0.31319 0.09363 0.34192 0.0
H2341 H 0.38025 0.10768 0.25576 0.0
H2342 H 0.35063 0.1064 0.24616 0.0
H2343 H 0.36815 0.13109 0.26509 0.0
H2344 H 0.28991 0.11434 0.22885 0.0
H2345 H 0.33168 0.1745 0.27287 0.0
H2346 H 0.29582 0.07554 0.27192 0.0
H2347 H 0.31242 0.07531 0.24828 0.0
H2348 H 0.28341 0.07812 0.24257 0.0
H2349 H 0.34566 0.14632 0.3234 0.0
H2350 H 0.3501 0.17298 0.31151 0.0
H2351 H 0.36681 0.1528 0.30448 0.0
C2352 C 0.33497 0.13376 0.48198 0.0
C2353 C 0.32589 0.14407 0.50043 0.0
C2354 C 0.35204 0.12181 0.48664 0.0
C2355 C 0.36007 0.12 0.51029 0.0
C2356 C 0.35104 0.13046 0.52895 0.0
C2357 C 0.33415 0.14237 0.52381 0.0
C2358 C 0.36123 0.11089 0.46628 0.0
C2359 C 0.35908 0.12891 0.55444 0.0
C2360 C 0.38628 0.07254 0.52913 0.0
C2361 C 0.40926 0.08405 0.53585 0.0
C2362 C 0.3703 0.08354 0.51894 0.0
C2363 C 0.37748 0.10673 0.51588 0.0
C2364 C 0.40101 0.11793 0.5213 0.0
C2365 C 0.41667 0.1064 0.53122 0.0
C2366 C 0.34548 0.07084 0.51313 0.0
C2367 C 0.40937 0.1426 0.51828 0.0
H2368 H 0.32874 0.13498 0.46386 0.0
H2369 H 0.32727 0.15023 0.53821 0.0
H2370 H 0.38017 0.11629 0.46898 0.0
H2371 H 0.35652 0.09206 0.46543 0.0
H2372 H 0.35448 0.1153 0.44907 0.0
H2373 H 0.35052 0.1382 0.56689 0.0
H2374 H 0.35566 0.11077 0.55726 0.0
H2375 H 0.37781 0.13606 0.55883 0.0
H2376 H 0.38063 0.05527 0.5329 0.0
H2377 H 0.43446 0.11529 0.5367 0.0
H2378 H 0.33797 0.07353 0.49546 0.0
H2379 H 0.33573 0.07751 0.52623 0.0
H2380 H 0.3432 0.05221 0.51342 0.0
H2381 H 0.40234 0.14557 0.50054 0.0
H2382 H 0.42833 0.14798 0.5206 0.0
H2383 H 0.40327 0.15362 0.53152 0.0
C2384 C 0.68223 0.62786 0.31063 0.0
C2385 C 0.67759 0.61033 0.29149 0.0
C2386 C 0.69973 0.64751 0.31153 0.0
C2387 C 0.71201 0.65001 0.29226 0.0
C2388 C 0.70823 0.63168 0.27354 0.0
C2389 C 0.69121 0.61181 0.27358 0.0
C2390 C 0.70398 0.66618 0.33235 0.0
C2391 C 0.72076 0.63378 0.25254 0.0
C2392 C 0.7279 0.71047 0.27844 0.0
C2393 C 0.75178 0.71619 0.28434 0.0
C2394 C 0.71495 0.68878 0.28033 0.0
C2395 C 0.72594 0.67284 0.2899 0.0
C2396 C 0.74985 0.67893 0.29727 0.0
C2397 C 0.76248 0.70045 0.2941 0.0
C2398 C 0.68952 0.68283 0.27174 0.0
C2399 C 0.76201 0.66303 0.30899 0.0
H2400 H 0.67171 0.62648 0.32455 0.0
H2401 H 0.68744 0.59814 0.25878 0.0
H2402 H 0.72257 0.6737 0.33775 0.0
H2403 H 0.69596 0.68002 0.32735 0.0
H2404 H 0.69666 0.6598 0.34774 0.0
H2405 H 0.7174 0.61732 0.24058 0.0
H2406 H 0.71527 0.64659 0.24237 0.0
H2407 H 0.73945 0.63989 0.2584 0.0
H2408 H 0.71923 0.72276 0.27179 0.0
H2409 H 0.78061 0.70514 0.29997 0.0
H2410 H 0.68003 0.67989 0.2868 0.0
H2411 H 0.68461 0.66681 0.25898 0.0
H2412 H 0.68396 0.69651 0.26304 0.0
H2413 H 0.75653 0.66108 0.32645 0.0
H2414 H 0.7809 0.66946 0.31166 0.0
H2415 H 0.75741 0.64581 0.29836 0.0
C2416 C 0.83349 0.44264 0.7515 0.0
C2417 C 0.84317 0.45604 0.7732 0.0
C2418 C 0.82349 0.41943 0.75045 0.0
C2419 C 0.82393 0.40972 0.77157 0.0
C2420 C 0.83297 0.42342 0.79365 0.0
C2421 C 0.8421 0.44667 0.79421 0.0
C2422 C 0.81361 0.40507 0.72678 0.0
C2423 C 0.83455 0.41332 0.81642 0.0
C2424 C 0.78308 0.3551 0.77633 0.0
C2425 C 0.7975 0.34012 0.77658 0.0
C2426 C 0.79135 0.37777 0.77374 0.0
C2427 C 0.81441 0.38525 0.77082 0.0
C2428 C 0.82877 0.3698 0.76967 0.0
C2429 C 0.82007 0.34719 0.77281 0.0
C2430 C 0.776 0.39409 0.77626 0.0
C2431 C 0.85354 0.3775 0.76665 0.0
H2432 H 0.83503 0.45002 0.73534 0.0
H2433 H 0.8505 0.45705 0.81086 0.0
H2434 H 0.82343 0.39201 0.72319 0.0
H2435 H 0.79568 0.39585 0.72697 0.0
H2436 H 0.81392 0.41547 0.71212 0.0
H2437 H 0.84099 0.42661 0.83216 0.0
H2438 H 0.8176 0.40299 0.81858 0.0
H2439 H 0.84633 0.40173 0.81591 0.0
H2440 H 0.76567 0.3494 0.77972 0.0
H2441 H 0.83128 0.33563 0.77405 0.0
H2442 H 0.77644 0.40442 0.76158 0.0
H2443 H 0.78227 0.40609 0.79298 0.0
H2444 H 0.758 0.38512 0.77658 0.0
H2445 H 0.8546 0.38341 0.74922 0.0
H2446 H 0.86271 0.36367 0.76784 0.0
H2447 H 0.86252 0.39215 0.78033 0.0
C2448 C 0.07902 0.87132 0.05401 0.0
C2449 C 0.06476 0.85715 0.06674 0.0
C2450 C 0.07467 0.89223 0.04785 0.0
C2451 C 0.05526 0.89973 0.05407 0.0
C2452 C 0.04056 0.88532 0.06659 0.0
C2453 C 0.04551 0.86461 0.07286 0.0
C2454 C 0.09126 0.9066 0.03489 0.0
C2455 C 0.01941 0.89182 0.07341 0.0
C2456 C 0.05636 0.96464 0.05821 0.0
C2457 C 0.04403 0.96658 0.0364 0.0
C2458 C 0.05989 0.94336 0.06411 0.0
C2459 C 0.05085 0.92274 0.04808 0.0
C2460 C 0.03816 0.92452 0.02613 0.0
C2461 C 0.03513 0.94611 0.02057 0.0
C2462 C 0.07363 0.94303 0.08764 0.0
C2463 C 0.02785 0.90351 0.00824 0.0
H2464 H 0.09404 0.86626 0.0491 0.0
H2465 H 0.03412 0.85417 0.08257 0.0
H2466 H 0.08212 0.90989 0.01826 0.0
H2467 H 0.09905 0.9234 0.04588 0.0
H2468 H 0.10516 0.89837 0.03058 0.0
H2469 H 0.00951 0.87902 0.08288 0.0
H2470 H 0.02419 0.90862 0.08487 0.0
H2471 H 0.00822 0.89361 0.05736 0.0
H2472 H 0.06351 0.97995 0.07086 0.0
H2473 H 0.02588 0.94688 0.00356 0.0
H2474 H 0.08898 0.93659 0.08485 0.0
H2475 H 0.06335 0.93119 0.09774 0.0
H2476 H 0.07924 0.96019 0.09845 0.0
H2477 H 0.04168 0.89647 0.0017 0.0
H2478 H 0.01696 0.90715 -0.0071 0.0
H2479 H 0.01737 0.89013 0.01658 0.0
C2480 C 0.91528 0.26543 0.90452 0.0
C2481 C 0.93599 0.26229 0.89762 0.0
C2482 C 0.89759 0.26933 0.88837 0.0
C2483 C 0.90015 0.26986 0.86431 0.0
C2484 C 0.92089 0.26651 0.85708 0.0
C2485 C 0.93856 0.26301 0.87377 0.0
C2486 C 0.87602 0.2729 0.89714 0.0
C2487 C 0.92444 0.26664 0.83165 0.0
C2488 C 0.84416 0.25623 0.82074 0.0
C2489 C 0.84109 0.27787 0.81702 0.0
C2490 C 0.86339 0.25342 0.83547 0.0
C2491 C 0.88059 0.27275 0.84676 0.0
C2492 C 0.87819 0.29471 0.84222 0.0
C2493 C 0.85857 0.29698 0.82745 0.0
C2494 C 0.86504 0.22962 0.83927 0.0
C2495 C 0.89607 0.31589 0.85349 0.0
H2496 H 0.91295 0.26524 0.92283 0.0
H2497 H 0.95441 0.26082 0.86809 0.0
H2498 H 0.87257 0.28921 0.89261 0.0
H2499 H 0.86124 0.259 0.88829 0.0
H2500 H 0.87704 0.27323 0.91655 0.0
H2501 H 0.94102 0.26291 0.82854 0.0
H2502 H 0.91043 0.25382 0.81994 0.0
H2503 H 0.92389 0.28357 0.82647 0.0
H2504 H 0.83185 0.24125 0.81181 0.0
H2505 H 0.85666 0.31381 0.82447 0.0
H2506 H 0.86356 0.22746 0.85791 0.0
H2507 H 0.88192 0.22686 0.83598 0.0
H2508 H 0.85147 0.21624 0.82763 0.0
H2509 H 0.89584 0.31849 0.87281 0.0
H2510 H 0.89314 0.33136 0.84625 0.0
H2511 H 0.91336 0.31393 0.85083 0.0
C2512 C 0.54117 0.20979 0.56104 0.0
C2513 C 0.563 0.22432 0.56207 0.0
C2514 C 0.53711 0.18562 0.55521 0.0
C2515 C 0.55541 0.17516 0.55126 0.0
C2516 C 0.57748 0.18979 0.55249 0.0
C2517 C 0.58086 0.21388 0.55737 0.0
C2518 C 0.51308 0.17126 0.55335 0.0
C2519 C 0.59784 0.17995 0.54927 0.0
C2520 C 0.54922 0.11178 0.56051 0.0
C2521 C 0.54634 0.10016 0.53737 0.0
C2522 C 0.55238 0.13588 0.56521 0.0
C2523 C 0.55179 0.14911 0.54638 0.0
C2524 C 0.54844 0.13732 0.52293 0.0
C2525 C 0.54624 0.11333 0.51879 0.0
C2526 C 0.55675 0.14726 0.59054 0.0
C2527 C 0.54656 0.15 0.50204 0.0
H2528 H 0.52712 0.21733 0.56458 0.0
H2529 H 0.59789 0.22459 0.55833 0.0
H2530 H 0.5088 0.15834 0.53722 0.0
H2531 H 0.51168 0.16195 0.56877 0.0
H2532 H 0.50026 0.18178 0.55288 0.0
H2533 H 0.61406 0.19334 0.55187 0.0
H2534 H 0.59947 0.16778 0.562 0.0
H2535 H 0.5954 0.17025 0.53128 0.0
H2536 H 0.54952 0.10205 0.57512 0.0
H2537 H 0.54385 0.10474 0.5008 0.0
H2538 H 0.54259 0.1553 0.59416 0.0
H2539 H 0.5727 0.16102 0.59371 0.0
H2540 H 0.5583 0.13504 0.60323 0.0
H2541 H 0.53185 0.15805 0.50233 0.0
H2542 H 0.54415 0.13864 0.48495 0.0
H2543 H 0.56211 0.16392 0.50307 0.0
C2544 C 0.57261 0.76114 0.3984 0.0
C2545 C 0.55605 0.77156 0.38822 0.0
C2546 C 0.59289 0.76105 0.38881 0.0
C2547 C 0.59699 0.77205 0.36882 0.0
C2548 C 0.57999 0.78192 0.35806 0.0
C2549 C 0.55977 0.78143 0.36777 0.0
C2550 C 0.61017 0.74983 0.4006 0.0
C2551 C 0.58351 0.79381 0.3367 0.0
C2552 C 0.65531 0.80257 0.35757 0.0
C2553 C 0.65728 0.78982 0.33639 0.0
C2554 C 0.63674 0.79582 0.36959 0.0
C2555 C 0.61975 0.77564 0.36036 0.0
C2556 C 0.62315 0.76127 0.34059 0.0
C2557 C 0.64184 0.76862 0.32867 0.0
C2558 C 0.63414 0.81158 0.39076 0.0
C2559 C 0.60609 0.73902 0.33093 0.0
H2560 H 0.56985 0.7532 0.41405 0.0
H2561 H 0.54709 0.78937 0.35961 0.0
H2562 H 0.61833 0.741 0.38738 0.0
H2563 H 0.62385 0.76304 0.41226 0.0
H2564 H 0.60225 0.7373 0.4116 0.0
H2565 H 0.56843 0.8001 0.33004 0.0
H2566 H 0.59859 0.80855 0.34122 0.0
H2567 H 0.587 0.782 0.32224 0.0
H2568 H 0.66733 0.81891 0.36365 0.0
H2569 H 0.64332 0.75868 0.31233 0.0
H2570 H 0.62981 0.80187 0.4054 0.0
H2571 H 0.6199 0.81971 0.38591 0.0
H2572 H 0.64992 0.82524 0.39723 0.0
H2573 H 0.6016 0.7292 0.34548 0.0
H2574 H 0.61273 0.72836 0.31781 0.0
H2575 H 0.59013 0.74251 0.32226 0.0
C2576 C 0.02678 0.2401 0.39555 0.0
C2577 C 0.04718 0.25433 0.39173 0.0
C2578 C 0.02668 0.22051 0.40613 0.0
C2579 C 0.04761 0.21476 0.41314 0.0
C2580 C 0.06826 0.22831 0.4081 0.0
C2581 C 0.06783 0.24807 0.39737 0.0
C2582 C 1.00416 0.20673 0.41104 0.0
C2583 C 0.09081 0.22248 0.41498 0.0
C2584 C 0.03956 0.18182 0.46436 0.0
C2585 C 0.03185 0.15945 0.45257 0.0
C2586 C 0.04742 0.2 0.4521 0.0
C2587 C 0.04737 0.19565 0.42739 0.0
C2588 C 0.04178 0.17276 0.41595 0.0
C2589 C 0.0339 0.15489 0.42868 0.0
C2590 C 0.05311 0.22405 0.4651 0.0
C2591 C 0.04156 0.16724 0.38975 0.0
H2592 H 0.01077 0.24489 0.39108 0.0
H2593 H 0.08363 0.25916 0.39458 0.0
H2594 H 1.0016 0.18851 0.40369 0.0
H2595 H 1.00427 0.20771 0.43039 0.0
H2596 H 0.98935 0.2129 0.40338 0.0
H2597 H 0.10512 0.23382 0.40861 0.0
H2598 H 0.09465 0.224 0.43449 0.0
H2599 H 0.08985 0.20452 0.40771 0.0
H2600 H 0.03762 0.18533 0.48278 0.0
H2601 H 0.02759 0.13759 0.41951 0.0
H2602 H 0.03858 0.23195 0.46081 0.0
H2603 H 0.06838 0.23464 0.45956 0.0
H2604 H 0.0563 0.22444 0.48455 0.0
H2605 H 0.02547 0.16963 0.38014 0.0
H2606 H 0.04244 0.14928 0.38473 0.0
H2607 H 0.05603 0.17878 0.38387 0.0
C2608 C 0.60584 0.27752 0.23739 0.0
C2609 C 0.59206 0.25581 0.22768 0.0
C2610 C 0.63004 0.28139 0.24321 0.0
C2611 C 0.64123 0.26347 0.2382 0.0
C2612 C 0.6273 0.24165 0.22793 0.0
C2613 C 0.60315 0.23804 0.22334 0.0
C2614 C 0.64364 0.30469 0.25504 0.0
C2615 C 0.63794 0.22202 0.22148 0.0
C2616 C 0.70596 0.27914 0.23282 0.0
C2617 C 0.71636 0.27328 0.25368 0.0
C2618 C 0.68181 0.27591 0.22753 0.0
C2619 C 0.66729 0.26732 0.24374 0.0
C2620 C 0.6778 0.26176 0.26501 0.0
C2621 C 0.70184 0.26447 0.26949 0.0
C2622 C 0.67177 0.28133 0.20424 0.0
C2623 C 0.66367 0.25337 0.28344 0.0
H2624 H 0.59764 0.29141 0.24097 0.0
H2625 H 0.59284 0.22122 0.21571 0.0
H2626 H 0.65514 0.30316 0.27098 0.0
H2627 H 0.65457 0.31291 0.24286 0.0
H2628 H 0.63248 0.31601 0.2603 0.0
H2629 H 0.62515 0.20677 0.21166 0.0
H2630 H 0.65143 0.22721 0.21046 0.0
H2631 H 0.64623 0.21713 0.23768 0.0
H2632 H 0.71668 0.28585 0.22031 0.0
H2633 H 0.70936 0.26004 0.28582 0.0
H2634 H 0.66301 0.29534 0.20733 0.0
H2635 H 0.65875 0.2662 0.19458 0.0
H2636 H 0.68498 0.28652 0.19288 0.0
H2637 H 0.65487 0.26657 0.28972 0.0
H2638 H 0.6742 0.24941 0.29886 0.0
H2639 H 0.65026 0.2378 0.27573 0.0
C2640 C 0.52919 0.8822 0.91094 0.0
C2641 C 0.54832 0.87738 0.90157 0.0
C2642 C 0.53004 0.90318 0.9244 0.0
C2643 C 0.55054 0.92045 0.9288 0.0
C2644 C 0.56998 0.91605 0.9193 0.0
C2645 C 0.56867 0.89458 0.90577 0.0
C2646 C 0.50884 0.90671 0.93414 0.0
C2647 C 0.59228 0.93387 0.9239 0.0
C2648 C 0.54134 0.98009 0.94668 0.0
C2649 C 0.54375 0.9818 0.97143 0.0
C2650 C 0.54441 0.9607 0.93261 0.0
C2651 C 0.55108 0.94285 0.94342 0.0
C2652 C 0.55524 0.94532 0.96842 0.0
C2653 C 0.55141 0.96457 0.98197 0.0
C2654 C 0.53932 0.95875 0.90609 0.0
C2655 C 0.56276 0.92715 0.98101 0.0
H2656 H 0.51319 0.86934 0.90792 0.0
H2657 H 0.58359 0.89117 0.89888 0.0
H2658 H 0.51236 0.91 0.95371 0.0
H2659 H 0.50393 0.92187 0.92803 0.0
H2660 H 0.49407 0.89172 0.92873 0.0
H2661 H 0.60551 0.92842 0.91448 0.0
H2662 H 0.58964 0.9501 0.91832 0.0
H2663 H 0.59874 0.93742 0.94313 0.0
H2664 H 0.5363 0.99354 0.93812 0.0
H2665 H 0.55458 0.96613 0.00093 0.0
H2666 H 0.52407 0.94457 0.89933 0.0
H2667 H 0.5538 0.95464 0.89792 0.0
H2668 H 0.53593 0.97467 0.90028 0.0
H2669 H 0.54799 0.91233 0.97982 0.0
H2670 H 0.56942 0.93343 -1e-05 0.0
H2671 H 0.57619 0.921 0.97259 0.0
C2672 C 0.9392 0.73613 0.71252 0.0
C2673 C 0.96024 0.75056 0.72362 0.0
C2674 C 0.91784 0.73948 0.71814 0.0
C2675 C 0.91696 0.75749 0.73589 0.0
C2676 C 0.93826 0.77203 0.7473 0.0
C2677 C 0.9594 0.76856 0.74094 0.0
C2678 C 0.89607 0.72374 0.70482 0.0
C2679 C 0.93879 0.79105 0.76674 0.0
C2680 C 0.86156 0.77969 0.73781 0.0
C2681 C 0.85005 0.76711 0.75369 0.0
C2682 C 0.8828 0.77651 0.73167 0.0
C2683 C 0.89392 0.76104 0.74234 0.0
C2684 C 0.88262 0.74874 0.75891 0.0
C2685 C 0.86083 0.75148 0.76389 0.0
C2686 C 0.89314 0.78953 0.7133 0.0
C2687 C 0.89363 0.73267 0.77165 0.0
H2688 H 0.93941 0.72214 0.69916 0.0
H2689 H 0.97537 0.77977 0.7499 0.0
H2690 H 0.88635 0.71438 0.71722 0.0
H2691 H 0.88506 0.73384 0.69637 0.0
H2692 H 0.89936 0.71111 0.69098 0.0
H2693 H 0.95647 0.80102 0.77388 0.0
H2694 H 0.92872 0.80283 0.76017 0.0
H2695 H 0.93073 0.78383 0.78136 0.0
H2696 H 0.85362 0.79179 0.72963 0.0
H2697 H 0.85248 0.74175 0.77635 0.0
H2698 H 0.89586 0.7774 0.69862 0.0
H2699 H 0.91011 0.8007 0.72107 0.0
H2700 H 0.88218 0.80025 0.70593 0.0
H2701 H 0.89315 0.71722 0.75915 0.0
H2702 H 0.8848 0.72724 0.78657 0.0
H2703 H 0.91185 0.74085 0.77859 0.0
C2704 C 0.10736 0.05802 0.86555 0.0
C2705 C 0.09741 0.04171 0.84568 0.0
C2706 C 0.10131 0.05513 0.888 0.0
C2707 C 0.08453 0.03561 0.89064 0.0
C2708 C 0.07466 0.01889 0.8706 0.0
C2709 C 0.08133 0.02208 0.84836 0.0
C2710 C 0.11239 0.07335 0.90876 0.0
C2711 C 0.05641 0.99808 0.87248 0.0
C2712 C 0.07867 0.0214 0.95308 0.0
C2713 C 0.06043 0.03084 0.95827 0.0
C2714 C 0.08659 0.0226 0.93111 0.0
C2715 C 0.07615 0.03362 0.91394 0.0
C2716 C 0.05785 0.0433 0.91923 0.0
C2717 C 0.05024 0.04176 0.94117 0.0
C2718 C 0.10617 0.0121 0.92625 0.0
C2719 C 0.04635 0.05552 0.90175 0.0
H2720 H 0.11972 0.07328 0.86341 0.0
H2721 H 0.07343 0.00962 0.83293 0.0
H2722 H 0.09934 0.08158 0.9154 0.0
H2723 H 0.11977 0.06561 0.92345 0.0
H2724 H 0.12613 0.08675 0.90409 0.0
H2725 H 0.05161 0.9859 0.85577 0.0
H2726 H 0.06231 0.98916 0.88691 0.0
H2727 H 0.0409 0.00338 0.87697 0.0
H2728 H 0.08664 0.01291 0.96611 0.0
H2729 H 0.03627 0.04933 0.94499 0.0
H2730 H 0.1207 0.02544 0.92293 0.0
H2731 H 0.10088 0.99925 0.91009 0.0
H2732 H 0.11217 0.00375 0.94116 0.0
H2733 H 0.05889 0.07064 0.8983 0.0
H2734 H 0.03175 0.06131 0.90815 0.0
H2735 H 0.04001 0.04414 0.88466 0.0
C2736 C 0.78265 0.36383 0.54899 0.0
C2737 C 0.80001 0.38194 0.54543 0.0
C2738 C 0.78188 0.35748 0.57155 0.0
C2739 C 0.79866 0.36993 0.59055 0.0
C2740 C 0.81452 0.38982 0.58725 0.0
C2741 C 0.81521 0.39537 0.56457 0.0
C2742 C 0.7645 0.33645 0.5746 0.0
C2743 C 0.83225 0.40399 0.60723 0.0
C2744 C 0.80591 0.36399 0.65489 0.0
C2745 C 0.82429 0.35353 0.65597 0.0
C2746 C 0.7953 0.36746 0.63308 0.0
C2747 C 0.80334 0.36005 0.61225 0.0
C2748 C 0.82033 0.34739 0.61328 0.0
C2749 C 0.83082 0.34454 0.63526 0.0
C2750 C 0.77698 0.38066 0.6326 0.0
C2751 C 0.82894 0.33867 0.59136 0.0
H2752 H 0.7707 0.3538 0.53398 0.0
H2753 H 0.82819 0.40982 0.56164 0.0
H2754 H 0.77282 0.32198 0.57535 0.0
H2755 H 0.75761 0.33909 0.59138 0.0
H2756 H 0.75008 0.33161 0.55969 0.0
H2757 H 0.84117 0.42045 0.60232 0.0
H2758 H 0.82425 0.40765 0.62306 0.0
H2759 H 0.84524 0.39436 0.61213 0.0
H2760 H 0.80055 0.37031 0.67111 0.0
H2761 H 0.84451 0.3357 0.63632 0.0
H2762 H 0.76435 0.37511 0.61621 0.0
H2763 H 0.78501 0.39905 0.63324 0.0
H2764 H 0.76786 0.37876 0.6481 0.0
H2765 H 0.81448 0.33043 0.57712 0.0
H2766 H 0.83937 0.32618 0.59485 0.0
H2767 H 0.83972 0.35322 0.58479 0.0
C2768 C 0.41642 0.99558 0.37216 0.0
C2769 C 0.42506 0.00625 0.35385 0.0
C2770 C 0.42894 1.00081 0.39483 0.0
C2771 C 0.45052 0.01642 0.39849 0.0
C2772 C 0.4591 0.02739 0.38005 0.0
C2773 C 0.44605 0.02225 0.35784 0.0
C2774 C 0.41949 0.98934 0.41464 0.0
C2775 C 0.48248 0.04362 0.38347 0.0
C2776 C 0.4829 0.04166 0.45837 0.0
C2777 C 0.49779 0.02725 0.46086 0.0
C2778 C 0.46657 0.03784 0.4383 0.0
C2779 C 0.46555 0.01933 0.42073 0.0
C2780 C 0.48054 0.00473 0.42322 0.0
C2781 C 0.49666 0.00897 0.44336 0.0
C2782 C 0.45072 0.05368 0.43574 0.0
C2783 C 0.47975 0.98485 0.40452 0.0
H2784 H 0.39987 0.98351 0.36879 0.0
H2785 H 0.45251 0.03035 0.3434 0.0
H2786 H 0.42998 0.97755 0.4203 0.0
H2787 H 0.4204 0.00224 0.43021 0.0
H2788 H 0.40147 0.97947 0.40931 0.0
H2789 H 0.48572 0.05191 0.3676 0.0
H2790 H 0.48439 0.05711 0.39874 0.0
H2791 H 0.49585 0.03416 0.38736 0.0
H2792 H 0.48392 0.05576 0.47213 0.0
H2793 H 0.50799 0.99761 0.44563 0.0
H2794 H 0.43268 0.0437 0.43192 0.0
H2795 H 0.45403 0.06304 0.4206 0.0
H2796 H 0.45287 0.06634 0.45185 0.0
H2797 H 0.46256 0.97299 0.40141 0.0
H2798 H 0.49265 0.97512 0.40952 0.0
H2799 H 0.48285 0.99107 0.38757 0.0
C2800 C 0.79609 0.73708 0.09136 0.0
C2801 C 0.77577 0.72247 0.0792 0.0
C2802 C 0.79861 0.74408 0.11595 0.0
C2803 C 0.78054 0.73592 0.12862 0.0
C2804 C 0.76033 0.72052 0.11636 0.0
C2805 C 0.75812 0.71423 0.09182 0.0
C2806 C 0.82029 0.76073 0.12827 0.0
C2807 C 0.74077 0.71108 0.12907 0.0
C2808 C 0.79145 0.73941 0.19582 0.0
C2809 C 0.78285 0.75822 0.2033 0.0
C2810 C 0.79123 0.73221 0.17166 0.0
C2811 C 0.7822 0.74409 0.15446 0.0
C2812 C 0.77371 0.76323 0.16194 0.0
C2813 C 0.77426 0.7701 0.18617 0.0
C2814 C 0.80024 0.71161 0.16451 0.0
C2815 C 0.76384 0.77638 0.14431 0.0
H2816 H 0.80965 0.74359 0.08154 0.0
H2817 H 0.74239 0.70293 0.08235 0.0
H2818 H 0.81622 0.7766 0.13619 0.0
H2819 H 0.82835 0.75342 0.14291 0.0
H2820 H 0.83285 0.76524 0.11606 0.0
H2821 H 0.72694 0.69805 0.11731 0.0
H2822 H 0.747 0.70325 0.14427 0.0
H2823 H 0.73342 0.72512 0.13622 0.0
H2824 H 0.79825 0.73014 0.20884 0.0
H2825 H 0.76783 0.78482 0.19164 0.0
H2826 H 0.81386 0.71612 0.15349 0.0
H2827 H 0.78632 0.69803 0.15362 0.0
H2828 H 0.80728 0.70462 0.18 0.0
H2829 H 0.7768 0.78301 0.13323 0.0
H2830 H 0.75808 0.79095 0.15299 0.0
H2831 H 0.74902 0.76493 0.13233 0.0
C2832 C 0.06964 0.03573 0.70224 0.0
C2833 C 0.09278 0.04114 0.71222 0.0
C2834 C 0.06298 0.03295 0.67756 0.0
C2835 C 0.07984 0.03677 0.66248 0.0
C2836 C 0.10327 0.04224 0.67256 0.0
C2837 C 0.10941 0.04388 0.69721 0.0
C2838 C 0.03785 0.02625 0.66764 0.0
C2839 C 0.12187 0.04763 0.65749 0.0
C2840 C 0.06435 0.01701 0.59563 0.0
C2841 C 0.05883 0.03631 0.58745 0.0
C2842 C 0.07087 0.01671 0.61995 0.0
C2843 C 0.07295 0.03655 0.63647 0.0
C2844 C 0.06804 0.05626 0.62811 0.0
C2845 C 0.06048 0.05563 0.60393 0.0
C2846 C 0.07506 0.99501 0.628 0.0
C2847 C 0.07088 0.07817 0.64468 0.0
H2848 H 0.05674 0.03367 0.71377 0.0
H2849 H 0.12733 0.04852 0.70489 0.0
H2850 H 0.03282 0.04055 0.65974 0.0
H2851 H 0.03431 0.01147 0.65337 0.0
H2852 H 0.02699 0.02171 0.68136 0.0
H2853 H 0.13922 0.05043 0.66777 0.0
H2854 H 0.11966 0.03362 0.64266 0.0
H2855 H 0.12071 0.06327 0.64965 0.0
H2856 H 0.06292 1.00188 0.58306 0.0
H2857 H 0.05632 0.07052 0.59791 0.0
H2858 H 0.06366 0.98964 0.64103 0.0
H2859 H 0.0929 0.99799 0.637 0.0
H2860 H 0.07201 0.98085 0.6131 0.0
H2861 H 0.05811 0.0758 0.65693 0.0
H2862 H 0.0687 0.09259 0.6351 0.0
H2863 H 0.08808 0.08287 0.65556 0.0
C2864 C 0.78492 0.40294 0.4062 0.0
C2865 C 0.8071 0.40643 0.41845 0.0
C2866 C 0.77857 0.38898 0.38439 0.0
C2867 C 0.79507 0.37911 0.37491 0.0
C2868 C 0.81838 0.38629 0.38502 0.0
C2869 C 0.82424 0.40022 0.40686 0.0
C2870 C 0.75365 0.38196 0.37365 0.0
C2871 C 0.83651 0.37643 0.37483 0.0
C2872 C 0.7822 0.3169 0.35127 0.0
C2873 C 0.78319 0.31798 0.32736 0.0
C2874 C 0.78429 0.33679 0.36691 0.0
C2875 C 0.78761 0.35798 0.35815 0.0
C2876 C 0.78672 0.35882 0.33381 0.0
C2877 C 0.78421 0.33855 0.31874 0.0
C2878 C 0.78472 0.33525 0.39292 0.0
C2879 C 0.79068 0.38116 0.32401 0.0
H2880 H 0.77187 0.40858 0.4149 0.0
H2881 H 0.8416 0.4036 0.41604 0.0
H2882 H 0.75156 0.37972 0.35409 0.0
H2883 H 0.74574 0.36534 0.37892 0.0
H2884 H 0.74422 0.39466 0.37987 0.0
H2885 H 0.85401 0.38677 0.38215 0.0
H2886 H 0.83513 0.35889 0.37919 0.0
H2887 H 0.83412 0.37527 0.35532 0.0
H2888 H 0.78083 0.30075 0.35795 0.0
H2889 H 0.7851 0.33898 0.30051 0.0
H2890 H 0.77406 0.34589 0.40073 0.0
H2891 H 0.80251 0.34179 0.40225 0.0
H2892 H 0.77848 0.31742 0.3962 0.0
H2893 H 0.7816 0.39299 0.33262 0.0
H2894 H 0.78508 0.37865 0.30468 0.0
H2895 H 0.80921 0.38952 0.32755 0.0
C2896 C 0.44514 0.00484 0.23279 0.0
C2897 C 0.42528 0.01193 0.23622 0.0
C2898 C 0.45314 0.00564 0.21124 0.0
C2899 C 0.4408 0.01369 0.19289 0.0
C2900 C 0.42185 0.02265 0.19691 0.0
C2901 C 0.41426 0.02168 0.21872 0.0
C2902 C 0.47379 0.99631 0.20763 0.0
C2903 C 0.40846 0.03152 0.17779 0.0
C2904 C 0.47583 0.01641 0.14453 0.0
C2905 C 0.46852 0.99365 0.13383 0.0
C2906 C 0.46465 0.02461 0.16218 0.0
C2907 C 0.44617 0.00942 0.16898 0.0
C2908 C 0.43706 0.98736 0.15598 0.0
C2909 C 0.44862 0.97961 0.13855 0.0
C2910 C 0.47411 0.0485 0.17525 0.0
C2911 C 0.41694 0.97091 0.1624 0.0
H2912 H 0.45387 0.99773 0.24658 0.0
H2913 H 0.39895 0.02736 0.22151 0.0
H2914 H 0.46868 0.98076 0.19421 0.0
H2915 H 0.4867 0.00903 0.20099 0.0
H2916 H 0.48197 0.99179 0.22416 0.0
H2917 H 0.39885 0.04344 0.1854 0.0
H2918 H 0.41977 0.04036 0.16627 0.0
H2919 H 0.39589 0.01698 0.16657 0.0
H2920 H 0.49099 0.0273 0.14006 0.0
H2921 H 0.44284 0.96223 0.12946 0.0
H2922 H 0.48547 0.04788 0.19165 0.0
H2923 H 0.46019 0.05624 0.18046 0.0
H2924 H 0.48424 0.05968 0.16442 0.0
H2925 H 0.42283 0.96329 0.17792 0.0
H2926 H 0.40909 0.95684 0.14765 0.0
H2927 H 0.40366 0.97974 0.16721 0.0
C2928 C 0.77403 0.744 0.94095 0.0
C2929 C 0.77838 0.7237 0.94773 0.0
C2930 C 0.7779 0.75025 0.91878 0.0
C2931 C 0.78604 0.73572 0.90266 0.0
C2932 C 0.79104 0.71547 0.90958 0.0
C2933 C 0.78734 0.7098 0.93209 0.0
C2934 C 0.77255 0.7721 0.91233 0.0
C2935 C 0.79948 0.69937 0.89287 0.0
C2936 C 0.76941 0.7402 0.83777 0.0
C2937 C 0.78969 0.75314 0.83204 0.0
C2938 C 0.76829 0.73374 0.86032 0.0
C2939 C 0.78774 0.74102 0.87807 0.0
C2940 C 0.8083 0.75415 0.87249 0.0
C2941 C 0.80912 0.75975 0.84948 0.0
C2942 C 0.74607 0.71946 0.86523 0.0
C2943 C 0.8293 0.76273 0.89096 0.0
H2944 H 0.76722 0.75494 0.9529 0.0
H2945 H 0.79066 0.69403 0.93705 0.0
H2946 H 0.78728 0.78249 0.90572 0.0
H2947 H 0.75777 0.76806 0.8979 0.0
H2948 H 0.76836 0.78252 0.92754 0.0
H2949 H 0.80281 0.68444 0.90093 0.0
H2950 H 0.78663 0.69309 0.8767 0.0
H2951 H 0.81546 0.70848 0.88727 0.0
H2952 H 0.75409 0.73552 0.82478 0.0
H2953 H 0.82498 0.76942 0.8452 0.0
H2954 H 0.73904 0.7294 0.87859 0.0
H2955 H 0.74907 0.70411 0.87262 0.0
H2956 H 0.73305 0.71385 0.84909 0.0
H2957 H 0.82541 0.77378 0.90585 0.0
H2958 H 0.84397 0.77265 0.88382 0.0
H2959 H 0.83441 0.74817 0.89825 0.0
C2960 C 0.82429 0.0802 0.02009 0.0
C2961 C 0.8211 0.09116 0.04158 0.0
C2962 C 0.84517 0.07506 0.01744 0.0
C2963 C 0.86304 0.0807 0.03697 0.0
C2964 C 0.85938 0.09031 0.05921 0.0
C2965 C 0.83836 0.09558 0.06124 0.0
C2966 C 0.84843 0.06474 -0.00666 0.0
C2967 C 0.87791 0.09617 0.08046 0.0
C2968 C 0.90666 0.0506 0.01936 0.0
C2969 C 0.91843 0.06665 0.00677 0.0
C2970 C 0.8903 0.05604 0.03262 0.0
C2971 C 0.8858 0.0779 0.033 0.0
C2972 C 0.90003 0.09508 0.02327 0.0
C2973 C 0.91615 0.08915 0.01 0.0
C2974 C 0.87572 0.03754 0.04337 0.0
C2975 C 0.89613 0.11881 0.02394 0.0
H2976 H 0.81091 0.07671 0.00494 0.0
H2977 H 0.83575 0.10387 0.078 0.0
H2978 H 0.86187 0.07675 0.98652 0.0
H2979 H 0.85415 0.04875 -0.00544 0.0
H2980 H 0.83251 0.06082 0.98031 0.0
H2981 H 0.87087 0.09889 0.09718 0.0
H2982 H 0.88733 0.08254 0.08149 0.0
H2983 H 0.8904 0.11212 0.07894 0.0
H2984 H 0.90858 0.0332 0.01705 0.0
H2985 H 0.92569 0.10164 0.00065 0.0
H2986 H 0.85937 0.03023 0.03129 0.0
H2987 H 0.87153 0.04453 0.06046 0.0
H2988 H 0.88434 0.02352 0.0462 0.0
H2989 H 0.88163 0.11857 0.01008 0.0
H2990 H 0.91145 0.13118 0.02055 0.0
H2991 H 0.89167 0.12487 0.04122 0.0
C2992 C 0.37915 0.439 0.05699 0.0
C2993 C 0.36856 0.4221 0.0379 0.0
C2994 C 0.39893 0.4555 0.05504 0.0
C2995 C 0.40813 0.45483 0.03358 0.0
C2996 C 0.39673 0.43829 0.014 0.0
C2997 C 0.3771 0.4221 0.01646 0.0
C2998 C 0.4105 0.47306 0.07618 0.0
C2999 C 0.40602 0.43673 0.99088 0.0
C3000 C 0.45358 0.50314 0.019 0.0
C3001 C 0.47377 0.49664 0.02653 0.0
C3002 C 0.43219 0.49048 0.02253 0.0
C3003 C 0.43075 0.46986 0.0321 0.0
C3004 C 0.45094 0.4627 0.03886 0.0
C3005 C 0.47217 0.47645 0.0366 0.0
C3006 C 0.41112 0.49904 0.01574 0.0
C3007 C 0.45011 0.44021 0.04797 0.0
H3008 H 0.37249 0.43879 0.07359 0.0
H3009 H 0.36878 0.40886 0.00179 0.0
H3010 H 0.42709 0.46965 0.08311 0.0
H3011 H 0.41419 0.49039 0.07098 0.0
H3012 H 0.39993 0.47289 0.09061 0.0
H3013 H 0.39397 0.4243 0.9768 0.0
H3014 H 0.40971 0.45361 0.98472 0.0
H3015 H 0.42236 0.43136 -0.00654 0.0
H3016 H 0.45433 0.51798 0.01012 0.0
H3017 H 0.48753 0.47092 0.04214 0.0
H3018 H 0.40097 0.49898 0.0305 0.0
H3019 H 0.40009 0.48753 0.00035 0.0
H3020 H 0.41542 0.51659 0.01113 0.0
H3021 H 0.44294 0.44034 0.06475 0.0
H3022 H 0.46727 0.43652 0.05112 0.0
H3023 H 0.43871 0.42607 0.03511 0.0
C3024 C 0.39625 0.57861 0.74583 0.0
C3025 C 0.38901 0.56157 0.7597 0.0
C3026 C 0.38732 0.59814 0.74638 0.0
C3027 C 0.37103 0.60082 0.76141 0.0
C3028 C 0.3629 0.58316 0.77454 0.0
C3029 C 0.37191 0.56377 0.77345 0.0
C3030 C 0.39616 0.61629 0.73173 0.0
C3031 C 0.34547 0.58523 0.79075 0.0
C3032 C 0.36718 0.65697 0.79384 0.0
C3033 C 0.34536 0.65843 0.784 0.0
C3034 C 0.3768 0.63941 0.78508 0.0
C3035 C 0.36431 0.62292 0.76592 0.0
C3036 C 0.34347 0.62589 0.75418 0.0
C3037 C 0.33414 0.64365 0.76344 0.0
C3038 C 0.39924 0.6372 0.79794 0.0
C3039 C 0.33013 0.60922 0.73309 0.0
H3040 H 0.40929 0.57698 0.73492 0.0
H3041 H 0.36602 0.55064 0.78405 0.0
H3042 H 0.38223 0.62367 0.72415 0.0
H3043 H 0.4092 0.63034 0.7431 0.0
H3044 H 0.40425 0.60947 0.71712 0.0
H3045 H 0.34005 0.56951 0.7988 0.0
H3046 H 0.35276 0.59973 0.80516 0.0
H3047 H 0.3301 0.58883 0.7809 0.0
H3048 H 0.37599 0.66865 0.80956 0.0
H3049 H 0.31732 0.64486 0.75572 0.0
H3050 H 0.41082 0.63382 0.78524 0.0
H3051 H 0.39609 0.62252 0.80794 0.0
H3052 H 0.40805 0.65278 0.81056 0.0
H3053 H 0.34159 0.60577 0.72026 0.0
H3054 H 0.31608 0.6156 0.72403 0.0
H3055 H 0.3226 0.59275 0.73887 0.0
C3056 C 0.20364 0.58414 0.53625 0.0
C3057 C 0.20992 0.60573 0.54974 0.0
C3058 C 0.18066 0.57282 0.53024 0.0
C3059 C 0.16401 0.58312 0.53892 0.0
C3060 C 0.17048 0.60439 0.55381 0.0
C3061 C 0.19355 0.61584 0.55857 0.0
C3062 C 0.17415 0.55024 0.51411 0.0
C3063 C 0.15307 0.61507 0.5644 0.0
C3064 C 0.10279 0.56718 0.50895 0.0
C3065 C 0.09312 0.55105 0.52252 0.0
C3066 C 0.12626 0.57717 0.51347 0.0
C3067 C 0.13979 0.57146 0.53261 0.0
C3068 C 0.13013 0.55489 0.54607 0.0
C3069 C 0.10697 0.5445 0.54045 0.0
C3070 C 0.13646 0.59404 0.49808 0.0
C3071 C 0.14371 0.54902 0.5673 0.0
H3072 H 0.2166 0.57675 0.52926 0.0
H3073 H 0.1988 0.6327 0.56896 0.0
H3074 H 0.16511 0.53668 0.5233 0.0
H3075 H 0.16222 0.5513 0.4983 0.0
H3076 H 0.18926 0.54509 0.50821 0.0
H3077 H 0.16118 0.63103 0.57674 0.0
H3078 H 0.14118 0.61905 0.55018 0.0
H3079 H 0.14268 0.60285 0.57408 0.0
H3080 H 0.09205 0.57199 0.49495 0.0
H3081 H 0.09964 0.53193 0.55093 0.0
H3082 H 0.15157 0.58936 0.49168 0.0
H3083 H 0.14243 0.61132 0.50854 0.0
H3084 H 0.12399 0.59484 0.48258 0.0
H3085 H 0.13513 0.53246 0.57229 0.0
H3086 H 0.1454 0.56252 0.58254 0.0
H3087 H 0.16118 0.54818 0.5642 0.0
C3088 C 0.71883 0.98267 0.72383 0.0
C3089 C 0.73232 0.00255 0.73799 0.0
C3090 C 0.7236 0.96151 0.72612 0.0
C3091 C 0.74186 0.96054 0.74332 0.0
C3092 C 0.75694 0.98087 0.75573 0.0
C3093 C 0.75208 1.00178 0.75264 0.0
C3094 C 0.70784 0.94027 0.71178 0.0
C3095 C 0.77668 0.98051 0.7743 0.0
C3096 C 0.73896 0.91847 0.78547 0.0
C3097 C 0.75734 0.90928 0.78066 0.0
C3098 C 0.73159 0.93338 0.77134 0.0
C3099 C 0.74296 0.93896 0.752 0.0
C3100 C 0.75943 0.92742 0.74525 0.0
C3101 C 0.76671 0.91281 0.75991 0.0
C3102 C 0.71347 0.94503 0.77871 0.0
C3103 C 0.77091 0.93225 0.72396 0.0
H3104 H 0.70377 0.98346 0.71202 0.0
H3105 H 0.76257 0.01725 0.76336 0.0
H3106 H 0.71708 0.92676 0.70795 0.0
H3107 H 0.69402 0.93347 0.72184 0.0
H3108 H 0.69969 0.94405 0.69485 0.0
H3109 H 0.78746 0.99789 0.7812 0.0
H3110 H 0.77001 0.97276 0.78934 0.0
H3111 H 0.78766 0.97 0.76698 0.0
H3112 H 0.73117 0.91496 0.80103 0.0
H3113 H 0.78073 0.90539 0.75594 0.0
H3114 H 0.70038 0.94452 0.76335 0.0
H3115 H 0.72143 0.96323 0.78571 0.0
H3116 H 0.70479 0.937 0.7926 0.0
H3117 H 0.75822 0.93347 0.70887 0.0
H3118 H 0.77983 0.91886 0.71849 0.0
H3119 H 0.78368 0.94888 0.72815 0.0
C3120 C 0.73938 0.92066 0.54246 0.0
C3121 C 0.7549 0.92617 0.52659 0.0
C3122 C 0.72033 0.93031 0.5429 0.0
C3123 C 0.71639 0.94538 0.52668 0.0
C3124 C 0.73249 0.95162 0.51129 0.0
C3125 C 0.75156 0.9421 0.51156 0.0
C3126 C 0.70409 0.92366 0.56014 0.0
C3127 C 0.72905 0.96764 0.49369 0.0
C3128 C 0.65859 0.94948 0.49775 0.0
C3129 C 0.65877 0.97215 0.50591 0.0
C3130 C 0.67615 0.9396 0.50635 0.0
C3131 C 0.69444 0.95278 0.52349 0.0
C3132 C 0.69321 0.97473 0.53384 0.0
C3133 C 0.67537 0.98426 0.52481 0.0
C3134 C 0.67635 0.91594 0.49521 0.0
C3135 C 0.71174 0.98886 0.553 0.0
H3136 H 0.74197 0.90861 0.55441 0.0
H3137 H 0.76349 0.94661 0.49937 0.0
H3138 H 0.69717 0.9382 0.56678 0.0
H3139 H 0.68946 0.90969 0.55113 0.0
H3140 H 0.71254 0.91745 0.57543 0.0
H3141 H 0.74351 0.97138 0.48351 0.0
H3142 H 0.71312 0.96 0.48105 0.0
H3143 H 0.72709 0.98398 0.5029 0.0
H3144 H 0.64556 0.94003 0.48331 0.0
H3145 H 0.67545 1.00176 0.53125 0.0
H3146 H 0.68051 0.90552 0.50895 0.0
H3147 H 0.68976 0.91713 0.48363 0.0
H3148 H 0.65966 0.90695 0.48442 0.0
H3149 H 0.71624 0.9783 0.5665 0.0
H3150 H 0.70653 0.00372 0.56179 0.0
H3151 H 0.72738 0.99529 0.54526 0.0
C3152 C 0.39802 0.43534 0.77476 0.0
C3153 C 0.39517 0.44751 0.75583 0.0
C3154 C 0.38123 0.41622 0.77741 0.0
C3155 C 0.36134 0.40863 0.76028 0.0
C3156 C 0.35798 0.42132 0.74151 0.0
C3157 C 0.37486 0.44089 0.73969 0.0
C3158 C 0.38528 0.40357 0.79801 0.0
C3159 C 0.33706 0.41365 0.72285 0.0
C3160 C 0.3369 0.34466 0.7516 0.0
C3161 C 0.31905 0.34255 0.76518 0.0
C3162 C 0.35034 0.36607 0.74947 0.0
C3163 C 0.3456 0.38607 0.76073 0.0
C3164 C 0.32716 0.38418 0.77384 0.0
C3165 C 0.31436 0.36242 0.77628 0.0
C3166 C 0.37014 0.36722 0.73573 0.0
C3167 C 0.32137 0.40507 0.78591 0.0
H3168 H 0.41357 0.44076 0.78751 0.0
H3169 H 0.37263 0.4504 0.72512 0.0
H3170 H 0.37007 0.40049 0.80716 0.0
H3171 H 0.3881 0.38667 0.79149 0.0
H3172 H 0.40036 0.41305 0.81106 0.0
H3173 H 0.33606 0.42629 0.71051 0.0
H3174 H 0.33736 0.39719 0.71249 0.0
H3175 H 0.32134 0.41068 0.73121 0.0
H3176 H 0.34078 0.3295 0.74294 0.0
H3177 H 0.3009 0.36103 0.78714 0.0
H3178 H 0.38645 0.37502 0.74771 0.0
H3179 H 0.3687 0.37821 0.72179 0.0
H3180 H 0.37103 0.35013 0.72731 0.0
H3181 H 0.33462 0.41293 0.80141 0.0
H3182 H 0.30449 0.40091 0.79207 0.0
H3183 H 0.32119 0.41801 0.77381 0.0
C3184 C 0.22514 0.61919 0.27621 0.0
C3185 C 0.2352 0.60981 0.25811 0.0
C3186 C 0.22978 0.64271 0.28263 0.0
C3187 C 0.24602 0.65665 0.27177 0.0
C3188 C 0.2585 0.64697 0.25582 0.0
C3189 C 0.25242 0.62344 0.24862 0.0
C3190 C 0.2153 0.65258 0.29859 0.0
C3191 C 0.27657 0.66159 0.24457 0.0
C3192 C 0.24379 0.71335 0.25472 0.0
C3193 C 0.26253 0.72688 0.27021 0.0
C3194 C 0.2362 0.69039 0.25678 0.0
C3195 C 0.24814 0.68125 0.27452 0.0
C3196 C 0.26542 0.69556 0.29175 0.0
C3197 C 0.27266 0.71842 0.2892 0.0
C3198 C 0.21739 0.67554 0.23826 0.0
C3199 C 0.2782 0.68622 0.31097 0.0
H3200 H 0.21139 0.60841 0.28303 0.0
H3201 H 0.2597 0.61598 0.23428 0.0
H3202 H 0.226 0.66662 0.312 0.0
H3203 H 0.20303 0.65992 0.28788 0.0
H3204 H 0.20539 0.63945 0.30771 0.0
H3205 H 0.28625 0.65125 0.23461 0.0
H3206 H 0.26842 0.67118 0.23216 0.0
H3207 H 0.28881 0.67427 0.25824 0.0
H3208 H 0.23626 0.7203 0.24001 0.0
H3209 H 0.28756 0.72899 0.30071 0.0
H3210 H 0.20573 0.66283 0.24628 0.0
H3211 H 0.22505 0.66604 0.22509 0.0
H3212 H 0.20723 0.68581 0.22878 0.0
H3213 H 0.26613 0.6745 0.31959 0.0
H3214 H 0.289 0.70003 0.32466 0.0
H3215 H 0.28939 0.67625 0.30308 0.0
C3216 C 0.50684 0.69898 0.4998 0.0
C3217 C 0.50452 0.70337 0.47624 0.0
C3218 C 0.51174 0.67833 0.50603 0.0
C3219 C 0.51364 0.66074 0.48834 0.0
C3220 C 0.51094 0.66497 0.46447 0.0
C3221 C 0.50687 0.68613 0.45882 0.0
C3222 C 0.51512 0.67543 0.53175 0.0
C3223 C 0.51209 0.64693 0.44471 0.0
C3224 C 0.54568 0.61458 0.50529 0.0
C3225 C 0.52799 0.59539 0.506 0.0
C3226 C 0.54135 0.63557 0.49951 0.0
C3227 C 0.51856 0.63815 0.49472 0.0
C3228 C 0.50056 0.61889 0.49583 0.0
C3229 C 0.50543 0.59789 0.50099 0.0
C3230 C 0.56134 0.65498 0.49823 0.0
C3231 C 0.47598 0.62044 0.49164 0.0
H3232 H 0.50523 0.71199 0.51356 0.0
H3233 H 0.5049 0.68892 0.44053 0.0
H3234 H 0.50295 0.65981 0.53468 0.0
H3235 H 0.53262 0.67321 0.53696 0.0
H3236 H 0.51274 0.69028 0.54345 0.0
H3237 H 0.50952 0.6525 0.4271 0.0
H3238 H 0.5289 0.64251 0.44734 0.0
H3239 H 0.49879 0.63114 0.4449 0.0
H3240 H 0.56306 0.61303 0.50849 0.0
H3241 H 0.49145 0.5834 0.50147 0.0
H3242 H 0.56101 0.67018 0.51069 0.0
H3243 H 0.56005 0.65984 0.48022 0.0
H3244 H 0.57802 0.65054 0.50247 0.0
H3245 H 0.47331 0.63412 0.5047 0.0
H3246 H 0.46387 0.60417 0.49307 0.0
H3247 H 0.47187 0.62511 0.47385 0.0
C3248 C 0.65325 0.31514 0.64981 0.0
C3249 C 0.63067 0.30249 0.64885 0.0
C3250 C 0.67086 0.31422 0.66786 0.0
C3251 C 0.66617 0.29984 0.68529 0.0
C3252 C 0.64325 0.28749 0.68481 0.0
C3253 C 0.62582 0.28916 0.66684 0.0
C3254 C 0.69476 0.32817 0.66782 0.0
C3255 C 0.63728 0.27185 0.70282 0.0
C3256 C 0.71641 0.27713 0.71165 0.0
C3257 C 0.72458 0.29165 0.73315 0.0
C3258 C 0.69735 0.2794 0.69626 0.0
C3259 C 0.68556 0.29636 0.70259 0.0
C3260 C 0.69303 0.31037 0.72491 0.0
C3261 C 0.71242 0.30788 0.73985 0.0
C3262 C 0.69 0.26371 0.67301 0.0
C3263 C 0.68098 0.32845 0.7328 0.0
H3264 H 0.65726 0.32563 0.63618 0.0
H3265 H 0.60852 0.2792 0.6663 0.0
H3266 H 0.70174 0.33831 0.68547 0.0
H3267 H 0.70611 0.31662 0.66405 0.0
H3268 H 0.69535 0.33998 0.65442 0.0
H3269 H 0.61863 0.26412 0.70072 0.0
H3270 H 0.64636 0.25792 0.70111 0.0
H3271 H 0.64301 0.28136 0.72093 0.0
H3272 H 0.72467 0.26359 0.70699 0.0
H3273 H 0.71835 0.31898 0.75659 0.0
H3274 H 0.69159 0.27387 0.65822 0.0
H3275 H 0.67176 0.25461 0.6714 0.0
H3276 H 0.70038 0.25088 0.67101 0.0
H3277 H 0.68481 0.3427 0.72233 0.0
H3278 H 0.68645 0.3354 0.75183 0.0
H3279 H 0.66218 0.32153 0.72964 0.0
C3280 C 0.03064 0.34938 0.98138 0.0
C3281 C 0.00865 0.33475 0.97546 0.0
C3282 C 0.03391 0.37352 0.98661 0.0
C3283 C 0.01486 0.38372 0.98489 0.0
C3284 C 0.99271 0.36895 0.97819 0.0
C3285 C 0.98991 0.34494 0.97414 0.0
C3286 C 0.0578 0.38812 -0.00544 0.0
C3287 C 0.97183 0.37854 0.97471 0.0
C3288 C 0.01693 0.44416 0.01672 0.0
C3289 C 0.02226 0.45831 -0.00052 0.0
C3290 C 0.01516 0.42027 0.01249 0.0
C3291 C 0.01786 0.40963 0.99004 0.0
C3292 C 0.02268 0.42384 0.97238 0.0
C3293 C 0.02537 0.44784 0.97746 0.0
C3294 C 0.01088 0.40649 0.03236 0.0
C3295 C 0.02487 0.41373 0.94788 0.0
H3296 H 0.0453 0.34191 0.98255 0.0
H3297 H 0.97283 0.334 0.96925 0.0
H3298 H 0.06215 0.40063 0.98227 0.0
H3299 H 0.05878 0.39799 0.01224 0.0
H3300 H 0.0708 0.37782 -0.00445 0.0
H3301 H 0.95591 0.36501 0.96844 0.0
H3302 H 0.96986 0.38825 0.9915 0.0
H3303 H 0.97388 0.39065 0.96164 0.0
H3304 H 0.01492 0.45192 0.03396 0.0
H3305 H 0.02953 0.45842 0.96394 0.0
H3306 H 0.02443 0.39707 0.03538 0.0
H3307 H 0.99434 0.39364 0.02758 0.0
H3308 H 0.01049 0.41733 0.04911 0.0
H3309 H 0.04111 0.40818 0.94836 0.0
H3310 H 0.02484 0.42618 0.93519 0.0
H3311 H 0.01067 0.39847 0.94123 0.0
C3312 C 0.00699 0.7835 0.15931 0.0
C3313 C 0.01165 0.80343 0.14883 0.0
C3314 C 0.98872 0.77887 0.17226 0.0
C3315 C 0.97445 0.79433 0.17448 0.0
C3316 C 0.9792 0.81459 0.16414 0.0
C3317 C 0.99783 0.81898 0.15162 0.0
C3318 C 0.98451 0.75723 0.18331 0.0
C3319 C 0.96434 0.83142 0.16592 0.0
C3320 C 0.91514 0.76641 0.18622 0.0
C3321 C 0.91736 0.77172 0.2108 0.0
C3322 C 0.93313 0.77482 0.17399 0.0
C3323 C 0.95401 0.78863 0.18673 0.0
C3324 C 0.95582 0.79514 0.21144 0.0
C3325 C 0.93744 0.78656 0.2232 0.0
C3326 C 0.9303 0.76767 0.14765 0.0
C3327 C 0.97773 0.80974 0.22575 0.0
H3328 H 0.01767 0.77148 0.15743 0.0
H3329 H 1.00126 0.83442 0.14357 0.0
H3330 H 0.98404 0.76132 0.20247 0.0
H3331 H 0.96764 0.74603 0.17523 0.0
H3332 H 0.99784 0.7476 0.18103 0.0
H3333 H 0.9702 0.84629 0.15674 0.0
H3334 H 0.94642 0.82286 0.15811 0.0
H3335 H 0.96431 0.83772 0.18473 0.0
H3336 H 0.89972 0.75462 0.17672 0.0
H3337 H 0.9393 0.79027 0.24228 0.0
H3338 H 0.94104 0.75553 0.14379 0.0
H3339 H 0.93613 0.78265 0.13866 0.0
H3340 H 0.91227 0.75928 0.14001 0.0
H3341 H 0.9907 0.79947 0.2273 0.0
H3342 H 0.97526 0.81624 0.24381 0.0
H3343 H 0.98472 0.82447 0.21688 0.0
C3344 C 0.53331 0.31028 0.13112 0.0
C3345 C 0.51425 0.30651 0.14295 0.0
C3346 C 0.53757 0.32831 0.11771 0.0
C3347 C 0.52269 0.34329 0.11645 0.0
C3348 C 0.50334 0.33946 0.12823 0.0
C3349 C 0.49923 0.32101 0.14111 0.0
C3350 C 0.55816 0.3315 0.10506 0.0
C3351 C 0.48719 0.3551 0.12757 0.0
C3352 C 0.55107 0.40163 0.10243 0.0
C3353 C 0.54403 0.39929 0.07804 0.0
C3354 C 0.54314 0.38404 0.11541 0.0
C3355 C 0.52807 0.36344 0.10363 0.0
C3356 C 0.51985 0.36159 0.0792 0.0
C3357 C 0.52797 0.37956 0.06668 0.0
C3358 C 0.55209 0.38695 0.14145 0.0
C3359 C 0.50384 0.34 0.06587 0.0
H3360 H 0.54489 0.29906 0.13226 0.0
H3361 H 0.48447 0.31826 0.15021 0.0
H3362 H 0.55286 0.33192 0.08604 0.0
H3363 H 0.57025 0.34808 0.1124 0.0
H3364 H 0.56733 0.3177 0.1067 0.0
H3365 H 0.47313 0.35004 0.13798 0.0
H3366 H 0.4967 0.37288 0.13465 0.0
H3367 H 0.47961 0.35505 0.10905 0.0
H3368 H 0.56378 0.41676 0.11111 0.0
H3369 H 0.52291 0.37759 0.04771 0.0
H3370 H 0.56396 0.37572 0.14451 0.0
H3371 H 0.53785 0.38181 0.15159 0.0
H3372 H 0.56138 0.40483 0.1485 0.0
H3373 H 0.51341 0.32653 0.06353 0.0
H3374 H 0.49622 0.34255 0.04815 0.0
H3375 H 0.48984 0.33366 0.07591 0.0
C3376 C 0.96671 0.29213 0.29818 0.0
C3377 C 0.97661 0.30472 0.32041 0.0
C3378 C 0.94318 0.28978 0.28941 0.0
C3379 C 0.92909 0.29972 0.30342 0.0
C3380 C 0.9394 0.31306 0.32541 0.0
C3381 C 0.96279 0.31559 0.33333 0.0
C3382 C 0.9332 0.27608 0.2655 0.0
C3383 C 0.92542 0.32363 0.34142 0.0
C3384 C 0.87016 0.30975 0.28144 0.0
C3385 C 0.85496 0.29143 0.28819 0.0
C3386 C 0.8941 0.31197 0.28499 0.0
C3387 C 0.90348 0.29568 0.29605 0.0
C3388 C 0.88817 0.27687 0.30256 0.0
C3389 C 0.86429 0.27486 0.29832 0.0
C3390 C 0.9094 0.33209 0.27726 0.0
C3391 C 0.89704 0.25918 0.31477 0.0
H3392 H 0.97696 0.28327 0.28819 0.0
H3393 H 0.97013 0.32519 0.35063 0.0
H3394 H 0.92022 0.26066 0.26748 0.0
H3395 H 0.92436 0.2863 0.25447 0.0
H3396 H 0.94645 0.27067 0.25609 0.0
H3397 H 0.93605 0.33391 0.35778 0.0
H3398 H 0.91636 0.33477 0.33205 0.0
H3399 H 0.91224 0.30998 0.34652 0.0
H3400 H 0.86337 0.32221 0.27298 0.0
H3401 H 0.8529 0.26047 0.30353 0.0
H3402 H 0.92263 0.32655 0.26793 0.0
H3403 H 0.91838 0.34453 0.29298 0.0
H3404 H 0.89963 0.34094 0.26542 0.0
H3405 H 0.90804 0.25154 0.30388 0.0
H3406 H 0.88302 0.24528 0.31818 0.0
H3407 H 0.90776 0.26739 0.33188 0.0
C3408 C 0.99751 0.67634 0.62589 0.0
C3409 C 0.01693 0.68735 0.64228 0.0
C3410 C 0.99837 0.65875 0.60793 0.0
C3411 C 0.01909 0.65181 0.60644 0.0
C3412 C 0.03889 0.66348 0.62263 0.0
C3413 C 0.03754 0.68102 0.64029 0.0
C3414 C 0.97693 0.64719 0.5909 0.0
C3415 C 0.06139 0.65691 0.62187 0.0
C3416 C 0.0145 0.59011 0.57892 0.0
C3417 C 0.02245 0.59268 0.55721 0.0
C3418 C 0.01384 0.60911 0.59514 0.0
C3419 C 0.01976 0.63144 0.58911 0.0
C3420 C 0.02689 0.63418 0.56687 0.0
C3421 C 0.02882 0.61497 0.55164 0.0
C3422 C 0.00731 0.60527 0.61905 0.0
C3423 C 0.03231 0.6574 0.55903 0.0
H3424 H 0.98151 0.6811 0.62745 0.0
H3425 H 0.05258 0.6895 0.65299 0.0
H3426 H 0.98056 0.64627 0.57246 0.0
H3427 H 0.97077 0.62944 0.59433 0.0
H3428 H 0.96303 0.65621 0.59252 0.0
H3429 H 0.07525 0.66778 0.6355 0.0
H3430 H 0.05943 0.63883 0.62463 0.0
H3431 H 0.0667 0.65836 0.60427 0.0
H3432 H 0.00932 0.57317 0.58365 0.0
H3433 H 0.03563 0.61761 0.53546 0.0
H3434 H 0.9915 0.61103 0.62125 0.0
H3435 H 0.02101 0.61555 0.63318 0.0
H3436 H 1.00444 0.58706 0.62161 0.0
H3437 H 0.01695 0.66451 0.55837 0.0
H3438 H 0.0378 0.65678 0.54133 0.0
H3439 H 0.04599 0.66938 0.57193 0.0
C3440 C 0.62983 0.82379 0.79764 0.0
C3441 C 0.6181 0.81384 0.81501 0.0
C3442 C 0.65007 0.81811 0.79142 0.0
C3443 C 0.65946 0.80187 0.80263 0.0
C3444 C 0.64767 0.79161 0.8201 0.0
C3445 C 0.62739 0.79765 0.82604 0.0
C3446 C 0.66151 0.82971 0.77274 0.0
C3447 C 0.65663 0.77425 0.83273 0.0
C3448 C 0.70232 0.77412 0.77153 0.0
C3449 C 0.72389 0.78655 0.78366 0.0
C3450 C 0.68149 0.77851 0.77771 0.0
C3451 C 0.6817 0.79613 0.79638 0.0
C3452 C 0.70345 0.8088 0.80858 0.0
C3453 C 0.72396 0.80383 0.80226 0.0
C3454 C 0.65913 0.76423 0.76406 0.0
C3455 C 0.70513 0.82798 0.82827 0.0
H3456 H 0.6232 0.83627 0.78875 0.0
H3457 H 0.61885 0.78968 0.83945 0.0
H3458 H 0.6794 0.83879 0.78009 0.0
H3459 H 0.66219 0.81676 0.75781 0.0
H3460 H 0.65247 0.84216 0.7658 0.0
H3461 H 0.6452 0.76692 0.845 0.0
H3462 H 0.65863 0.76017 0.81972 0.0
H3463 H 0.6738 0.78232 0.84297 0.0
H3464 H 0.70161 0.76076 0.75716 0.0
H3465 H 0.74024 0.81384 0.81184 0.0
H3466 H 0.64985 0.77525 0.75473 0.0
H3467 H 0.64812 0.75633 0.77636 0.0
H3468 H 0.66158 0.7505 0.75087 0.0
H3469 H 0.69756 0.84139 0.82132 0.0
H3470 H 0.72308 0.83588 0.83656 0.0
H3471 H 0.69522 0.82159 0.84208 0.0
C3472 C 0.49825 0.52517 0.69262 0.0
C3473 C 0.47499 0.51644 0.69326 0.0
C3474 C 0.50622 0.52935 0.67124 0.0
C3475 C 0.49068 0.52369 0.6498 0.0
C3476 C 0.46709 0.51489 0.65041 0.0
C3477 C 0.45948 0.51179 0.67221 0.0
C3478 C 0.53133 0.53958 0.67158 0.0
C3479 C 0.45006 0.50779 0.62795 0.0
C3480 C 0.50764 0.54746 0.5942 0.0
C3481 C 0.51654 0.53015 0.58356 0.0
C3482 C 0.4995 0.54581 0.61596 0.0
C3483 C 0.4993 0.5259 0.62671 0.0
C3484 C 0.50774 0.50812 0.61554 0.0
C3485 C 0.51677 0.51073 0.59443 0.0
C3486 C 0.49154 0.56553 0.62764 0.0
C3487 C 0.50709 0.48623 0.62578 0.0
H3488 H 0.51023 0.5288 0.70893 0.0
H3489 H 0.44151 0.50476 0.67269 0.0
H3490 H 0.53912 0.52701 0.66218 0.0
H3491 H 0.53358 0.5547 0.66219 0.0
H3492 H 0.5408 0.54483 0.68984 0.0
H3493 H 0.43226 0.50193 0.63145 0.0
H3494 H 0.45086 0.52217 0.61759 0.0
H3495 H 0.45442 0.49372 0.61679 0.0
H3496 H 0.50769 0.56258 0.58584 0.0
H3497 H 0.52349 0.49727 0.58603 0.0
H3498 H 0.50129 0.57143 0.64569 0.0
H3499 H 0.47324 0.55998 0.62951 0.0
H3500 H 0.49369 0.58017 0.61751 0.0
H3501 H 0.51839 0.4898 0.64307 0.0
H3502 H 0.51267 0.47342 0.614 0.0
H3503 H 0.4895 0.47871 0.62892 0.0
C3504 C 0.75287 0.18167 -0.00477 0.0
C3505 C 0.76524 0.1653 -0.00078 0.0
C3506 C 0.75439 0.19263 0.9754 0.0
C3507 C 0.7682 0.18653 0.95883 0.0
C3508 C 0.78128 0.17041 0.96304 0.0
C3509 C 0.77985 0.16008 0.98355 0.0
C3510 C 0.74062 0.21024 0.9719 0.0
C3511 C 0.79631 0.16382 0.94579 0.0
C3512 C 0.73987 0.19808 0.90242 0.0
C3513 C 0.75084 0.22098 0.90338 0.0
C3514 C 0.74768 0.18515 0.91871 0.0
C3515 C 0.76664 0.19573 0.93631 0.0
C3516 C 0.77944 0.21802 0.93531 0.0
C3517 C 0.77119 0.23059 0.91882 0.0
C3518 C 0.73379 0.16128 0.91898 0.0
C3519 C 0.80013 0.22962 0.95335 0.0
H3520 H 0.74198 0.18596 0.00775 0.0
H3521 H 0.78951 0.14747 0.98694 0.0
H3522 H 0.75196 0.2266 0.96955 0.0
H3523 H 0.72771 0.20438 0.95574 0.0
H3524 H 0.73156 0.21356 0.98707 0.0
H3525 H 0.80471 0.15038 0.95134 0.0
H3526 H 0.78611 0.15756 0.92801 0.0
H3527 H 0.80973 0.17902 0.94412 0.0
H3528 H 0.72441 0.19074 0.88989 0.0
H3529 H 0.77986 0.24826 0.91888 0.0
H3530 H 0.72264 0.16167 0.93285 0.0
H3531 H 0.74504 0.14973 0.92324 0.0
H3532 H 0.72272 0.15409 0.90177 0.0
H3533 H 0.79452 0.23819 0.96884 0.0
H3534 H 0.81196 0.24283 0.94601 0.0
H3535 H 0.80955 0.21721 0.95962 0.0
C3536 C 0.15311 0.5504 0.15615 0.0
C3537 C 0.14621 0.54189 0.17619 0.0
C3538 C 0.13901 0.54311 0.13449 0.0
C3539 C 0.11784 0.52736 0.13363 0.0
C3540 C 0.11227 0.51676 0.15338 0.0
C3541 C 0.12659 0.5245 0.17483 0.0
C3542 C 0.1454 0.5543 0.11337 0.0
C3543 C 0.08999 0.49942 0.15257 0.0
C3544 C 0.07079 0.54528 0.09865 0.0
C3545 C 0.06727 0.53012 0.07782 0.0
C3546 C 0.08685 0.54394 0.1174 0.0
C3547 C 0.09951 0.52705 0.11483 0.0
C3548 C 0.09543 0.51114 0.09413 0.0
C3549 C 0.07916 0.51285 0.07572 0.0
C3550 C 0.09077 0.56108 0.13958 0.0
C3551 C 0.10873 0.49302 0.09094 0.0
H3552 H 0.16866 0.56373 0.15773 0.0
H3553 H 0.12188 0.51792 0.19071 0.0
H3554 H 0.14113 0.54158 0.09711 0.0
H3555 H 0.13549 0.56736 0.11069 0.0
H3556 H 0.16389 0.56282 0.1158 0.0
H3557 H 0.09053 0.48956 0.16763 0.0
H3558 H 0.07597 0.50836 0.15343 0.0
H3559 H 0.08584 0.48737 0.13581 0.0
H3560 H 0.06134 0.55846 0.10005 0.0
H3561 H 0.07586 0.50068 0.05968 0.0
H3562 H 0.10831 0.57218 0.142 0.0
H3563 H 0.08922 0.55218 0.15527 0.0
H3564 H 0.07844 0.57213 0.13899 0.0
H3565 H 0.12523 0.50059 0.08527 0.0
H3566 H 0.09933 0.47857 0.07716 0.0
H3567 H 0.11262 0.48626 0.10765 0.0
C3568 C 0.81906 0.83577 0.45406 0.0
C3569 C 0.80038 0.83889 0.46512 0.0
C3570 C 0.81653 0.82849 0.4297 0.0
C3571 C 0.79459 0.82343 0.41594 0.0
C3572 C 0.77557 0.82649 0.42695 0.0
C3573 C 0.77875 0.83456 0.45139 0.0
C3574 C 0.83746 0.82642 0.41866 0.0
C3575 C 0.75181 0.82075 0.413 0.0
C3576 C 0.79272 0.82271 0.34952 0.0
C3577 C 0.79104 0.7996 0.34159 0.0
C3578 C 0.79352 0.83064 0.37356 0.0
C3579 C 0.7919 0.81499 0.39007 0.0
C3580 C 0.78966 0.79152 0.38203 0.0
C3581 C 0.78966 0.78417 0.35796 0.0
C3582 C 0.79681 0.85589 0.38136 0.0
C3583 C 0.78745 0.77418 0.39891 0.0
H3584 H 0.83592 0.83948 0.46448 0.0
H3585 H 0.76428 0.83694 0.45984 0.0
H3586 H 0.83576 0.80848 0.41081 0.0
H3587 H 0.83911 0.83693 0.40414 0.0
H3588 H 0.85343 0.83197 0.43165 0.0
H3589 H 0.73896 0.82481 0.42389 0.0
H3590 H 0.75148 0.83022 0.39767 0.0
H3591 H 0.74675 0.80229 0.4059 0.0
H3592 H 0.79401 0.83477 0.33697 0.0
H3593 H 0.78823 0.76628 0.35189 0.0
H3594 H 0.81301 0.8625 0.39384 0.0
H3595 H 0.78274 0.85902 0.39088 0.0
H3596 H 0.79739 0.86577 0.36628 0.0
H3597 H 0.80364 0.77724 0.41134 0.0
H3598 H 0.7835 0.7564 0.38959 0.0
H3599 H 0.77377 0.77598 0.4096 0.0
C3600 C 0.49732 0.53687 0.83514 0.0
C3601 C 0.47506 0.52527 0.82483 0.0
C3602 C 0.50429 0.53912 0.85968 0.0
C3603 C 0.48901 0.52845 0.87407 0.0
C3604 C 0.46633 0.51709 0.8637 0.0
C3605 C 0.45952 0.51598 0.83927 0.0
C3606 C 0.52823 0.55235 0.8701 0.0
C3607 C 0.44956 0.50518 0.87822 0.0
C3608 C 0.51683 0.51168 0.93033 0.0
C3609 C 0.51283 0.52745 0.94809 0.0
C3610 C 0.5086 0.51141 0.90636 0.0
C3611 C 0.4971 0.52815 0.89966 0.0
C3612 C 0.49353 0.54455 0.91741 0.0
C3613 C 0.50116 0.54382 0.94134 0.0
C3614 C 0.5119 0.49293 0.8882 0.0
C3615 C 0.48228 0.56335 0.91124 0.0
H3616 H 0.50939 0.54383 0.82392 0.0
H3617 H 0.44244 0.5066 0.83121 0.0
H3618 H 0.52784 0.5645 0.88587 0.0
H3619 H 0.53852 0.54047 0.87595 0.0
H3620 H 0.53692 0.56202 0.85721 0.0
H3621 H 0.43254 0.49719 0.86755 0.0
H3622 H 0.45634 0.49173 0.8861 0.0
H3623 H 0.44734 0.51748 0.89299 0.0
H3624 H 0.52615 0.49931 0.93508 0.0
H3625 H 0.49834 0.55643 0.95478 0.0
H3626 H 0.52258 0.50061 0.87555 0.0
H3627 H 0.49511 0.48353 0.87793 0.0
H3628 H 0.5202 0.48054 0.89634 0.0
H3629 H 0.49515 0.57717 0.90599 0.0
H3630 H 0.47538 0.57062 0.92648 0.0
H3631 H 0.46811 0.55728 0.89624 0.0
C3632 C 0.76039 0.17561 0.13497 0.0
C3633 C 0.77804 0.1733 0.12221 0.0
C3634 C 0.76547 0.18579 0.15838 0.0
C3635 C 0.78865 0.19464 0.16828 0.0
C3636 C 0.80634 0.18969 0.15637 0.0
C3637 C 0.80073 0.17876 0.13313 0.0
C3638 C 0.74621 0.18981 0.17133 0.0
C3639 C 0.83115 0.1986 0.16698 0.0
C3640 C 0.79285 0.25383 0.19598 0.0
C3641 C 0.79456 0.25125 0.21982 0.0
C3642 C 0.79285 0.23574 0.17908 0.0
C3643 C 0.79395 0.2145 0.18641 0.0
C3644 C 0.7973 0.21224 0.21056 0.0
C3645 C 0.79827 0.23113 0.22716 0.0
C3646 C 0.78984 0.23902 0.15334 0.0
C3647 C 0.7982 0.18984 0.21906 0.0
H3648 H 0.74273 0.17026 0.12639 0.0
H3649 H 0.81409 0.17608 0.12303 0.0
H3650 H 0.75008 0.18816 0.19028 0.0
H3651 H 0.74414 0.20738 0.17022 0.0
H3652 H 0.72973 0.17764 0.16354 0.0
H3653 H 0.84235 0.18971 0.15758 0.0
H3654 H 0.83644 0.21709 0.16576 0.0
H3655 H 0.83374 0.1966 0.18594 0.0
H3656 H 0.79061 0.26973 0.19035 0.0
H3657 H 0.80099 0.22991 0.2457 0.0
H3658 H 0.77215 0.23037 0.14483 0.0
H3659 H 0.80179 0.23145 0.14377 0.0
H3660 H 0.79279 0.25734 0.15116 0.0
H3661 H 0.7816 0.18254 0.22472 0.0
H3662 H 0.8117 0.1927 0.23464 0.0
H3663 H 0.80156 0.17715 0.20537 0.0
C3664 C 0.15935 0.57204 0.31654 0.0
C3665 C 0.1516 0.55669 0.29571 0.0
C3666 C 0.14725 0.5704 0.33555 0.0
C3667 C 0.1265 0.5535 0.33312 0.0
C3668 C 0.1195 0.53691 0.31273 0.0
C3669 C 0.13237 0.5386 0.29419 0.0
C3670 C 0.15582 0.5878 0.35755 0.0
C3671 C 0.09761 0.51857 0.30956 0.0
C3672 C 0.10579 0.55793 0.39124 0.0
C3673 C 0.09576 0.57641 0.38917 0.0
C3674 C 0.11342 0.54767 0.3718 0.0
C3675 C 0.11081 0.5563 0.35015 0.0
C3676 C 0.09783 0.57276 0.34731 0.0
C3677 C 0.09073 0.58294 0.36708 0.0
C3678 C 0.12645 0.52955 0.37522 0.0
C3679 C 0.09379 0.58158 0.3241 0.0
H3680 H 0.17459 0.58567 0.31773 0.0
H3681 H 0.12662 0.52663 0.27798 0.0
H3682 H 0.14438 0.59968 0.35882 0.0
H3683 H 0.15569 0.57925 0.37355 0.0
H3684 H 0.17345 0.59801 0.35757 0.0
H3685 H 0.0983 0.50354 0.29699 0.0
H3686 H 0.09389 0.51291 0.32658 0.0
H3687 H 0.0832 0.52546 0.30223 0.0
H3688 H 0.10908 0.55254 0.40837 0.0
H3689 H 0.08214 0.59668 0.3655 0.0
H3690 H 0.14495 0.5378 0.38008 0.0
H3691 H 0.12419 0.5173 0.35882 0.0
H3692 H 0.12096 0.52 0.38968 0.0
H3693 H 0.10963 0.5937 0.32159 0.0
H3694 H 0.07977 0.59065 0.32357 0.0
H3695 H 0.0895 0.56742 0.30913 0.0
C3696 C 0.7766 0.83302 0.59958 0.0
C3697 C 0.79907 0.8427 0.59659 0.0
C3698 C 0.77188 0.82515 0.62095 0.0
C3699 C 0.78998 0.8279 0.63994 0.0
C3700 C 0.8125 0.8388 0.63724 0.0
C3701 C 0.81681 0.84563 0.61548 0.0
C3702 C 0.74777 0.813 0.62287 0.0
C3703 C 0.83224 0.84263 0.65713 0.0
C3704 C 0.77881 0.82105 0.70278 0.0
C3705 C 0.78397 0.79993 0.70518 0.0
C3706 C 0.78022 0.83028 0.68151 0.0
C3707 C 0.78604 0.81769 0.6619 0.0
C3708 C 0.79023 0.79594 0.66393 0.0
C3709 C 0.78971 0.78763 0.68561 0.0
C3710 C 0.77645 0.85389 0.68038 0.0
C3711 C 0.79583 0.78158 0.64332 0.0
H3712 H 0.76292 0.8307 0.58489 0.0
H3713 H 0.83418 0.85332 0.61319 0.0
H3714 H 0.74736 0.79535 0.62644 0.0
H3715 H 0.74177 0.8218 0.63791 0.0
H3716 H 0.73566 0.81216 0.60653 0.0
H3717 H 0.84802 0.85393 0.65324 0.0
H3718 H 0.82778 0.85033 0.67378 0.0
H3719 H 0.83598 0.82604 0.66017 0.0
H3720 H 0.77439 0.83073 0.71776 0.0
H3721 H 0.7938 0.77132 0.68716 0.0
H3722 H 0.76313 0.85355 0.66527 0.0
H3723 H 0.79246 0.86546 0.67741 0.0
H3724 H 0.77124 0.86112 0.69683 0.0
H3725 H 0.78325 0.78044 0.62729 0.0
H3726 H 0.7959 0.76401 0.64692 0.0
H3727 H 0.81294 0.78967 0.63933 0.0
C3728 C 0.75166 0.48056 0.4795 0.0
C3729 C 0.75028 0.45798 0.48336 0.0
C3730 C 0.73533 0.492 0.48652 0.0
C3731 C 0.71756 0.48046 0.49766 0.0
C3732 C 0.71508 0.45708 0.49963 0.0
C3733 C 0.73145 0.44611 0.49237 0.0
C3734 C 0.73813 0.51679 0.48362 0.0
C3735 C 0.69622 0.44407 0.51121 0.0
C3736 C 0.69552 0.50786 0.54871 0.0
C3737 C 0.67303 0.50659 0.53869 0.0
C3738 C 0.71098 0.5013 0.53488 0.0
C3739 C 0.70359 0.49312 0.51055 0.0
C3740 C 0.68138 0.49335 0.5 0.0
C3741 C 0.66627 0.50009 0.51427 0.0
C3742 C 0.73468 0.50153 0.54668 0.0
C3743 C 0.6731 0.48502 0.47404 0.0
H3744 H 0.76609 0.48967 0.47225 0.0
H3745 H 0.73006 0.42844 0.49481 0.0
H3746 H 0.72131 0.52075 0.4789 0.0
H3747 H 0.74652 0.52761 0.50058 0.0
H3748 H 0.7489 0.5215 0.46986 0.0
H3749 H 0.69569 0.42555 0.50959 0.0
H3750 H 0.69884 0.45099 0.53027 0.0
H3751 H 0.67936 0.44612 0.50325 0.0
H3752 H 0.70083 0.51342 0.56751 0.0
H3753 H 0.64885 0.49925 0.50652 0.0
H3754 H 0.74775 0.50974 0.53648 0.0
H3755 H 0.73626 0.48373 0.54719 0.0
H3756 H 0.73852 0.51069 0.56505 0.0
H3757 H 0.68617 0.49226 0.46333 0.0
H3758 H 0.65683 0.48958 0.46794 0.0
H3759 H 0.67024 0.46618 0.47067 0.0
C3760 C 0.1891 0.13264 0.47739 0.0
C3761 C 0.20641 0.13835 0.49699 0.0
C3762 C 0.16901 0.11585 0.4773 0.0
C3763 C 0.16575 0.10543 0.49778 0.0
C3764 C 0.18369 0.11043 0.51721 0.0
C3765 C 0.20403 0.12659 0.51639 0.0
C3766 C 0.15081 0.11023 0.45578 0.0
C3767 C 0.18075 0.10008 0.53956 0.0
C3768 C 0.10427 0.08947 0.5091 0.0
C3769 C 0.09933 0.06552 0.5057 0.0
C3770 C 0.12597 0.10255 0.50721 0.0
C3771 C 0.14276 0.09152 0.49998 0.0
C3772 C 0.13746 0.06744 0.49493 0.0
C3773 C 0.11598 0.0548 0.49825 0.0
C3774 C 0.13103 0.1282 0.51341 0.0
C3775 C 0.15423 0.05504 0.48556 0.0
H3776 H 0.19102 0.14178 0.46239 0.0
H3777 H 0.21736 0.13127 0.53165 0.0
H3778 H 0.14328 0.09157 0.45182 0.0
H3779 H 0.13683 0.11865 0.45914 0.0
H3780 H 0.15768 0.11617 0.43998 0.0
H3781 H 0.19674 0.10473 0.55253 0.0
H3782 H 0.16717 0.10607 0.54788 0.0
H3783 H 0.17519 0.08122 0.5355 0.0
H3784 H 0.09136 0.09819 0.51377 0.0
H3785 H 0.11212 0.03656 0.49435 0.0
H3786 H 0.1342 0.13636 0.4975 0.0
H3787 H 0.14673 0.13439 0.52668 0.0
H3788 H 0.11677 0.13395 0.52064 0.0
H3789 H 0.1572 0.05969 0.46794 0.0
H3790 H 0.148 0.0362 0.4838 0.0
H3791 H 0.17097 0.06026 0.49726 0.0
C3792 C 0.16831 0.97761 0.77473 0.0
C3793 C 0.18116 0.99877 0.78687 0.0
C3794 C 0.17866 0.95955 0.76936 0.0
C3795 C 0.20252 0.96273 0.77604 0.0
C3796 C 0.21551 0.98383 0.78892 0.0
C3797 C 0.20465 1.00156 0.79428 0.0
C3798 C 0.1641 0.93722 0.75593 0.0
C3799 C 0.241 0.98797 0.79625 0.0
C3800 C 0.22338 0.90796 0.77225 0.0
C3801 C 0.22821 0.90591 0.74907 0.0
C3802 C 0.21603 0.92696 0.78183 0.0
C3803 C 0.21384 0.94441 0.76797 0.0
C3804 C 0.22029 0.9431 0.74514 0.0
C3805 C 0.22712 0.92373 0.73586 0.0
C3806 C 0.20925 0.92762 0.80617 0.0
C3807 C 0.21882 0.96158 0.73 0.0
H3808 H 0.15011 0.97519 0.76915 0.0
H3809 H 0.21473 0.01784 0.80371 0.0
H3810 H 0.16937 0.93412 0.73832 0.0
H3811 H 0.16664 0.92289 0.76545 0.0
H3812 H 0.14561 0.93698 0.75337 0.0
H3813 H 0.24824 0.0044 0.80813 0.0
H3814 H 0.24511 0.97393 0.80536 0.0
H3815 H 0.24956 0.98826 0.78032 0.0
H3816 H 0.22419 0.89413 0.78242 0.0
H3817 H 0.23109 0.92222 0.71801 0.0
H3818 H 0.19037 0.92447 0.80461 0.0
H3819 H 0.2166 0.94468 0.81677 0.0
H3820 H 0.21486 0.91453 0.81584 0.0
H3821 H 0.2006 0.96111 0.72409 0.0
H3822 H 0.22727 0.95952 0.71413 0.0
H3823 H 0.22683 0.97866 0.74031 0.0
C3824 C 0.37865 0.95461 0.02752 0.0
C3825 C 0.36336 0.96044 0.01051 0.0
C3826 C 0.40185 0.96545 0.03071 0.0
C3827 C 0.40947 0.98141 0.0157 0.0
C3828 C 0.3939 0.98725 -0.0015 0.0
C3829 C 0.37077 0.977 -0.00346 0.0
C3830 C 0.41821 0.95954 0.04957 0.0
C3831 C 0.4017 0.00329 0.98129 0.0
C3832 C 0.46435 0.02585 0.02604 0.0
C3833 C 0.4767 0.01548 0.01118 0.0
C3834 C 0.44297 0.01386 0.02965 0.0
C3835 C 0.43383 0.99164 0.01715 0.0
C3836 C 0.44686 0.98081 0.00291 0.0
C3837 C 0.46852 0.99294 0.00034 0.0
C3838 C 0.42938 0.0256 0.04509 0.0
C3839 C 0.43717 0.95744 0.98861 0.0
H3840 H 0.37248 0.94147 0.03801 0.0
H3841 H 0.35863 0.98079 0.98304 0.0
H3842 H 0.43066 0.95155 0.04134 0.0
H3843 H 0.42817 0.97531 0.06124 0.0
H3844 H 0.40924 0.94764 0.06055 0.0
H3845 H 0.38715 0.00608 0.96924 0.0
H3846 H 0.41169 0.02006 0.99093 0.0
H3847 H 0.41306 0.99618 0.97042 0.0
H3848 H 0.47099 0.04352 0.03401 0.0
H3849 H 0.47839 0.98544 0.98857 0.0
H3850 H 0.42113 0.01389 0.05664 0.0
H3851 H 0.41558 0.03047 0.03383 0.0
H3852 H 0.44021 0.04128 0.05629 0.0
H3853 H 0.43027 0.94497 8e-05 0.0
H3854 H 0.45014 0.95109 0.9795 0.0
H3855 H 0.42278 0.95813 0.97506 0.0
C3856 C 0.86523 0.59031 0.81071 0.0
C3857 C 0.85215 0.56826 0.81079 0.0
C3858 C 0.85557 0.60618 0.80005 0.0
C3859 C 0.83259 0.59934 0.78885 0.0
C3860 C 0.81882 0.57773 0.79085 0.0
C3861 C 0.82879 0.56246 0.80224 0.0
C3862 C 0.87046 0.62941 0.79894 0.0
C3863 C 0.79435 0.56977 0.77868 0.0
C3864 C 0.80065 0.64034 0.76494 0.0
C3865 C 0.80373 0.63791 0.74108 0.0
C3866 C 0.81091 0.62871 0.78099 0.0
C3867 C 0.82365 0.61351 0.77275 0.0
C3868 C 0.82678 0.61078 0.74873 0.0
C3869 C 0.81695 0.62326 0.73319 0.0
C3870 C 0.80783 0.63241 0.80664 0.0
C3871 C 0.84023 0.59448 0.7394 0.0
H3872 H 0.8834 0.5945 0.81733 0.0
H3873 H 0.81896 0.54517 0.80205 0.0
H3874 H 0.87377 0.63063 0.78058 0.0
H3875 H 0.86162 0.64295 0.80405 0.0
H3876 H 0.88716 0.6328 0.81067 0.0
H3877 H 0.78548 0.55338 0.78376 0.0
H3878 H 0.78464 0.58277 0.78287 0.0
H3879 H 0.79407 0.56736 0.75926 0.0
H3880 H 0.79 0.65121 0.77113 0.0
H3881 H 0.81969 0.6216 0.71491 0.0
H3882 H 0.82463 0.63629 0.8182 0.0
H3883 H 0.7973 0.6166 0.81127 0.0
H3884 H 0.79939 0.64657 0.8106 0.0
H3885 H 0.85807 0.59947 0.74876 0.0
H3886 H 0.84064 0.59406 0.72014 0.0
H3887 H 0.83264 0.57697 0.74275 0.0
C3888 C 0.81315 0.61179 -0.0056 0.0
C3889 C 0.81668 0.63556 -0.00028 0.0
C3890 C 0.83116 0.60104 -0.00095 0.0
C3891 C 0.85324 0.61443 0.00893 0.0
C3892 C 0.85719 0.63853 0.01275 0.0
C3893 C 0.83884 0.64877 0.00834 0.0
C3894 C 0.8262 0.57532 -0.00524 0.0
C3895 C 0.88062 0.65347 0.02262 0.0
C3896 C 0.89303 0.59285 0.05179 0.0
C3897 C 0.90959 0.58872 0.03806 0.0
C3898 C 0.87398 0.60006 0.04209 0.0
C3899 C 0.87154 0.60349 0.01811 0.0
C3900 C 0.88769 0.59834 0.00386 0.0
C3901 C 0.90649 0.59086 0.014 0.0
C3902 C 0.85696 0.60495 0.05781 0.0
C3903 C 0.88569 0.60171 0.97823 0.0
H3904 H 0.79609 0.60148 0.98759 0.0
H3905 H 0.84179 0.66718 0.01204 0.0
H3906 H 0.83971 0.56952 0.98617 0.0
H3907 H 0.82605 0.56875 0.01193 0.0
H3908 H 0.80939 0.56764 0.98357 0.0
H3909 H 0.88139 0.67186 0.02219 0.0
H3910 H 0.8853 0.65103 0.04121 0.0
H3911 H 0.89364 0.64858 0.01251 0.0
H3912 H 0.89521 0.59082 0.07031 0.0
H3913 H 0.91931 0.58766 0.00338 0.0
H3914 H 0.83932 0.59601 0.04939 0.0
H3915 H 0.85778 0.62352 0.06033 0.0
H3916 H 0.86025 0.59961 0.07545 0.0
H3917 H 0.86844 0.59278 0.96874 0.0
H3918 H 0.89869 0.59536 0.96917 0.0
H3919 H 0.88789 0.62013 0.97693 0.0
C3920 C 0.17699 0.13336 0.80498 0.0
C3921 C 0.17764 0.11176 0.79401 0.0
C3922 C 0.19477 0.15255 0.80495 0.0
C3923 C 0.21348 0.15015 0.79327 0.0
C3924 C 0.21503 0.12813 0.78363 0.0
C3925 C 0.19711 0.1091 0.78425 0.0
C3926 C 0.19266 0.17562 0.81595 0.0
C3927 C 0.23488 0.12485 0.77134 0.0
C3928 C 0.23703 0.20084 0.76337 0.0
C3929 C 0.2555 0.21316 0.78017 0.0
C3930 C 0.22351 0.1801 0.76728 0.0
C3931 C 0.22929 0.17092 0.78807 0.0
C3932 C 0.24901 0.18253 0.80433 0.0
C3933 C 0.26168 0.20379 0.80038 0.0
C3934 C 0.20247 0.16854 0.74961 0.0
C3935 C 0.25617 0.17309 0.82638 0.0
H3936 H 0.16216 0.13541 0.81297 0.0
H3937 H 0.19775 0.0924 0.77587 0.0
H3938 H 0.20892 0.18513 0.82712 0.0
H3939 H 0.189 0.18583 0.80179 0.0
H3940 H 0.17874 0.17421 0.82694 0.0
H3941 H 0.23509 0.10657 0.76752 0.0
H3942 H 0.23374 0.13186 0.75439 0.0
H3943 H 0.2513 0.13432 0.78227 0.0
H3944 H 0.23293 0.20761 0.74728 0.0
H3945 H 0.27584 0.21347 0.81351 0.0
H3946 H 0.18698 0.1675 0.75827 0.0
H3947 H 0.20314 0.15084 0.74312 0.0
H3948 H 0.20058 0.17779 0.73422 0.0
H3949 H 0.24474 0.17574 0.83949 0.0
H3950 H 0.27404 0.18162 0.83452 0.0
H3951 H 0.25469 0.15446 0.82246 0.0
C3952 C 0.33841 0.9533 0.30794 0.0
C3953 C 0.33279 0.96224 0.28727 0.0
C3954 C 0.32991 0.9303 0.30919 0.0
C3955 C 0.31455 0.91673 0.28983 0.0
C3956 C 0.30647 0.92649 0.27036 0.0
C3957 C 0.31606 0.94932 0.26913 0.0
C3958 C 0.33948 0.92014 0.32979 0.0
C3959 C 0.28954 0.91229 0.2498 0.0
C3960 C 0.31445 0.85472 0.27689 0.0
C3961 C 0.29439 0.84477 0.28503 0.0
C3962 C 0.32134 0.87837 0.27829 0.0
C3963 C 0.30819 0.89203 0.28898 0.0
C3964 C 0.28843 0.88212 0.29803 0.0
C3965 C 0.28141 0.85852 0.29539 0.0
C3966 C 0.34258 0.88867 0.26837 0.0
C3967 C 0.27481 0.89642 0.31058 0.0
H3968 H 0.35185 0.96339 0.32169 0.0
H3969 H 0.31218 0.95641 0.25312 0.0
H3970 H 0.32583 0.90782 0.33594 0.0
H3971 H 0.35201 0.91065 0.32407 0.0
H3972 H 0.34838 0.93346 0.34488 0.0
H3973 H 0.28348 0.92296 0.23717 0.0
H3974 H 0.29767 0.90011 0.24021 0.0
H3975 H 0.27455 0.90211 0.25621 0.0
H3976 H 0.32477 0.84412 0.26954 0.0
H3977 H 0.2659 0.85095 0.30188 0.0
H3978 H 0.35542 0.89997 0.28261 0.0
H3979 H 0.33838 0.89932 0.25486 0.0
H3980 H 0.35044 0.87546 0.26013 0.0
H3981 H 0.28577 0.90724 0.32645 0.0
H3982 H 0.25957 0.88585 0.31626 0.0
H3983 H 0.26914 0.90803 0.29889 0.0
C3984 C 0.56502 0.36155 0.54335 0.0
C3985 C 0.56443 0.3558 0.56633 0.0
C3986 C 0.56101 0.38261 0.53735 0.0
C3987 C 0.55713 0.39932 0.5548 0.0
C3988 C 0.55661 0.39363 0.57808 0.0
C3989 C 0.55981 0.37205 0.58339 0.0
C3990 C 0.561 0.38702 0.51214 0.0
C3991 C 0.55302 0.41057 0.59764 0.0
C3992 C 0.57015 0.46294 0.54418 0.0
C3993 C 0.54839 0.46658 0.53666 0.0
C3994 C 0.57317 0.4415 0.55006 0.0
C3995 C 0.55404 0.42267 0.54878 0.0
C3996 C 0.53201 0.42632 0.54146 0.0
C3997 C 0.52953 0.44787 0.5355 0.0
C3998 C 0.59706 0.43906 0.55773 0.0
C3999 C 0.51087 0.40732 0.53976 0.0
H4000 H 0.56842 0.34937 0.52983 0.0
H4001 H 0.55943 0.3682 0.60125 0.0
H4002 H 0.5449 0.3916 0.50552 0.0
H4003 H 0.57531 0.4017 0.51125 0.0
H4004 H 0.56272 0.37198 0.50024 0.0
H4005 H 0.55428 0.40434 0.61502 0.0
H4006 H 0.56589 0.42699 0.59902 0.0
H4007 H 0.53592 0.41412 0.59354 0.0
H4008 H 0.58506 0.47691 0.54537 0.0
H4009 H 0.51259 0.45009 0.53019 0.0
H4010 H 0.60098 0.42558 0.54536 0.0
H4011 H 0.59831 0.43364 0.57548 0.0
H4012 H 0.61018 0.45519 0.55835 0.0
H4013 H 0.51145 0.393 0.52624 0.0
H4014 H 0.49492 0.41295 0.53498 0.0
H4015 H 0.51022 0.40061 0.55683 0.0
C4016 C 0.42316 0.77728 0.40347 0.0
C4017 C 0.43734 0.76268 0.39783 0.0
C4018 C 0.40543 0.78014 0.38671 0.0
C4019 C 0.40088 0.76738 0.36376 0.0
C4020 C 0.41529 0.75272 0.35783 0.0
C4021 C 0.4336 0.7509 0.37475 0.0
C4022 C 0.39144 0.79681 0.39369 0.0
C4023 C 0.41103 0.73859 0.33375 0.0
C4024 C 0.33899 0.75758 0.33302 0.0
C4025 C 0.34084 0.77327 0.31683 0.0
C4026 C 0.3584 0.75497 0.34764 0.0
C4027 C 0.3804 0.76868 0.3466 0.0
C4028 C 0.3824 0.78447 0.33015 0.0
C4029 C 0.36271 0.78643 0.31542 0.0
C4030 C 0.35529 0.73764 0.36449 0.0
C4031 C 0.40517 0.80006 0.32875 0.0
H4032 H 0.42617 0.78683 0.42109 0.0
H4033 H 0.44451 0.7397 0.37015 0.0
H4034 H 0.39066 0.80856 0.38038 0.0
H4035 H 0.37366 0.78743 0.39422 0.0
H4036 H 0.39856 0.80712 0.41126 0.0
H4037 H 0.42333 0.72765 0.33194 0.0
H4038 H 0.39342 0.72753 0.33039 0.0
H4039 H 0.41232 0.74988 0.31991 0.0
H4040 H 0.32228 0.74722 0.33425 0.0
H4041 H 0.36441 0.79885 0.30326 0.0
H4042 H 0.3596 0.74648 0.38296 0.0
H4043 H 0.3671 0.72626 0.36219 0.0
H4044 H 0.3375 0.72701 0.36187 0.0
H4045 H 0.41038 0.81298 0.34486 0.0
H4046 H 0.40448 0.8091 0.31308 0.0
H4047 H 0.4186 0.79037 0.32808 0.0
C4048 C 0.04687 0.71341 0.04581 0.0
C4049 C 0.0617 0.72576 0.06606 0.0
C4050 C 0.04267 0.68918 0.04063 0.0
C4051 C 0.05383 0.67664 0.05573 0.0
C4052 C 0.069 0.6892 0.07606 0.0
C4053 C 0.07255 0.7133 0.08101 0.0
C4054 C 0.02612 0.67695 0.01895 0.0
C4055 C 0.08187 0.67717 0.09252 0.0
C4056 C 0.03053 0.61145 0.05521 0.0
C4057 C 0.04406 0.60145 0.04094 0.0
C4058 C 0.03319 0.63552 0.05978 0.0
C4059 C 0.05006 0.65061 0.05022 0.0
C4060 C 0.06366 0.64066 0.03574 0.0
C4061 C 0.06032 0.61655 0.03111 0.0
C4062 C 0.01777 0.64485 0.07483 0.0
C4063 C 0.08195 0.65555 0.0251 0.0
H4064 H 0.03843 0.7227 0.03402 0.0
H4065 H 0.08422 0.72255 0.09657 0.0
H4066 H 0.03481 0.66721 0.0071 0.0
H4067 H 0.01195 0.66445 0.02415 0.0
H4068 H 0.01879 0.68888 0.00892 0.0
H4069 H 0.09304 0.68914 0.10756 0.0
H4070 H 0.06967 0.66414 0.09963 0.0
H4071 H 0.09261 0.66809 0.08266 0.0
H4072 H 0.01764 0.60043 0.06283 0.0
H4073 H 0.07033 0.60959 0.01936 0.0
H4074 H 0.00857 0.65557 0.06493 0.0
H4075 H 0.02814 0.65593 0.09085 0.0
H4076 H 1.00502 0.63111 0.08039 0.0
H4077 H 0.07437 0.66666 0.01415 0.0
H4078 H 0.09087 0.64544 0.0139 0.0
H4079 H 0.09476 0.66688 0.03936 0.0
C4080 C 0.07157 0.26058 0.89513 0.0
C4081 C 0.05606 0.27299 0.88666 0.0
C4082 C 0.09177 0.26052 0.88536 0.0
C4083 C 0.09684 0.27348 0.86691 0.0
C4084 C 0.08077 0.28524 0.85769 0.0
C4085 C 0.06065 0.28478 0.86758 0.0
C4086 C 0.10798 0.24726 0.89548 0.0
C4087 C 0.08528 0.29916 0.83792 0.0
C4088 C 0.15614 0.30415 0.85871 0.0
C4089 C 0.15806 0.29335 0.83647 0.0
C4090 C 0.13727 0.29643 0.86999 0.0
C4091 C 0.11979 0.27729 0.85884 0.0
C4092 C 0.12302 0.26465 0.83778 0.0
C4093 C 0.1421 0.27292 0.8267 0.0
C4094 C 0.13499 0.31018 0.8927 0.0
C4095 C 0.10549 0.24336 0.82609 0.0
H4096 H 0.06815 0.25117 0.9097 0.0
H4097 H 0.04877 0.29423 0.86069 0.0
H4098 H 0.1165 0.23986 0.88163 0.0
H4099 H 0.12145 0.25887 0.90891 0.0
H4100 H 0.09899 0.23327 0.90426 0.0
H4101 H 0.07081 0.30671 0.83221 0.0
H4102 H 0.10086 0.3132 0.84375 0.0
H4103 H 0.08846 0.28835 0.82245 0.0
H4104 H 0.16869 0.31972 0.86653 0.0
H4105 H 0.14361 0.26434 0.80963 0.0
H4106 H 0.13006 0.29882 0.9059 0.0
H4107 H 0.12129 0.31934 0.88925 0.0
H4108 H 0.15111 0.32294 0.90045 0.0
H4109 H 0.10024 0.23217 0.83937 0.0
H4110 H 0.11207 0.23357 0.81214 0.0
H4111 H 0.08999 0.24806 0.81791 0.0
C4112 C 0.56732 0.75612 0.91612 0.0
C4113 C 0.55055 0.75683 0.89746 0.0
C4114 C 0.56569 0.73661 0.92751 0.0
C4115 C 0.54653 0.71782 0.92035 0.0
C4116 C 0.53011 0.71828 0.90081 0.0
C4117 C 0.53242 0.73774 0.88956 0.0
C4118 C 0.5837 0.73663 0.94801 0.0
C4119 C 0.50912 0.69893 0.89289 0.0
C4120 C 0.53979 0.6583 0.93708 0.0
C4121 C 0.52476 0.65876 0.95359 0.0
C4122 C 0.54857 0.67801 0.9273 0.0
C4123 C 0.54212 0.69851 0.93431 0.0
C4124 C 0.52827 0.69934 0.95234 0.0
C4125 C 0.5196 0.67937 0.96162 0.0
C4126 C 0.56332 0.67644 0.90824 0.0
C4127 C 0.52119 0.72087 0.96059 0.0
H4128 H 0.58101 0.77119 0.92257 0.0
H4129 H 0.51913 0.73867 0.87556 0.0
H4130 H 0.57609 0.73642 0.96455 0.0
H4131 H 0.59024 0.72101 0.94538 0.0
H4132 H 0.5983 0.75182 0.95031 0.0
H4133 H 0.49878 0.70131 0.8765 0.0
H4134 H 0.51407 0.68246 0.88972 0.0
H4135 H 0.49819 0.69769 0.907 0.0
H4136 H 0.54366 0.64226 0.93089 0.0
H4137 H 0.50798 0.6796 0.97446 0.0
H4138 H 0.57811 0.69146 0.91112 0.0
H4139 H 0.55319 0.67641 0.89085 0.0
H4140 H 0.56975 0.66066 0.90746 0.0
H4141 H 0.53621 0.73567 0.96453 0.0
H4142 H 0.51279 0.71945 0.97662 0.0
H4143 H 0.50903 0.72447 0.94635 0.0
C4144 C 0.10335 0.73648 0.72408 0.0
C4145 C 0.09232 0.75449 0.72698 0.0
C4146 C 0.12752 0.74015 0.72841 0.0
C4147 C 0.14155 0.76232 0.73706 0.0
C4148 C 0.13047 0.78056 0.74051 0.0
C4149 C 0.10624 0.77656 0.7349 0.0
C4150 C 0.13809 0.7202 0.72322 0.0
C4151 C 0.14423 0.80438 0.75036 0.0
C4152 C 0.20261 0.76522 0.76871 0.0
C4153 C 0.2167 0.77241 0.75198 0.0
C4154 C 0.17852 0.7624 0.76434 0.0
C4155 C 0.16762 0.76627 0.74238 0.0
C4156 C 0.18178 0.77333 0.72534 0.0
C4157 C 0.2059 0.77654 0.7304 0.0
C4158 C 0.16472 0.75552 0.78351 0.0
C4159 C 0.17141 0.77687 0.70132 0.0
H4160 H 0.093 0.7194 0.71761 0.0
H4161 H 0.09813 0.79069 0.73721 0.0
H4162 H 0.15101 0.72438 0.71133 0.0
H4163 H 0.14708 0.71666 0.73979 0.0
H4164 H 0.12516 0.70445 0.71481 0.0
H4165 H 0.13319 0.81627 0.75417 0.0
H4166 H 0.15562 0.80411 0.76687 0.0
H4167 H 0.15529 0.81114 0.73758 0.0
H4168 H 0.21048 0.76217 0.78556 0.0
H4169 H 0.21631 0.78196 0.71714 0.0
H4170 H 0.15272 0.73863 0.77747 0.0
H4171 H 0.15431 0.76798 0.78742 0.0
H4172 H 0.17568 0.75449 0.80007 0.0
H4173 H 0.16093 0.76029 0.6916 0.0
H4174 H 0.1846 0.78395 0.69063 0.0
H4175 H 0.15986 0.78856 0.70303 0.0
C4176 C 0.05789 0.39778 0.39441 0.0
C4177 C 0.05192 0.37716 0.40352 0.0
C4178 C 0.05646 0.41874 0.40728 0.0
C4179 C 0.04869 0.41909 0.42965 0.0
C4180 C 0.04357 0.3984 0.43915 0.0
C4181 C 0.04544 0.37802 0.4262 0.0
C4182 C 0.06238 0.44039 0.39657 0.0
C4183 C 0.03494 0.39748 0.46261 0.0
C4184 C 0.05835 0.4738 0.47425 0.0
C4185 C 0.03683 0.47888 0.47142 0.0
C4186 C 0.06262 0.45481 0.46048 0.0
C4187 C 0.04508 0.44065 0.44303 0.0
C4188 C 0.02333 0.44595 0.44003 0.0
C4189 C 0.01942 0.46475 0.45442 0.0
C4190 C 0.08579 0.44958 0.46498 0.0
C4191 C 1.00401 0.43155 0.42183 0.0
H4192 H 0.06251 0.39742 0.37682 0.0
H4193 H 0.04071 0.36226 0.43352 0.0
H4194 H 0.047 0.44729 0.39338 0.0
H4195 H 0.07544 0.45352 0.40905 0.0
H4196 H 0.06899 0.43764 0.37961 0.0
H4197 H 0.03279 0.38029 0.46813 0.0
H4198 H 0.0469 0.41006 0.47658 0.0
H4199 H 0.01818 0.40206 0.4614 0.0
H4200 H 0.07181 0.48455 0.48753 0.0
H4201 H 1.00269 0.46847 0.45231 0.0
H4202 H 0.09318 0.44852 0.44833 0.0
H4203 H 0.08403 0.43273 0.47117 0.0
H4204 H 0.0979 0.46265 0.47844 0.0
H4205 H 0.00945 0.43061 0.40413 0.0
H4206 H 0.98847 0.43841 0.42096 0.0
H4207 H 0.99952 0.41387 0.42601 0.0
C4208 C 0.45558 0.27291 0.22605 0.0
C4209 C 0.45944 0.2508 0.22264 0.0
C4210 C 0.43445 0.27687 0.23199 0.0
C4211 C 0.41596 0.2583 0.23385 0.0
C4212 C 0.41965 0.23594 0.22974 0.0
C4213 C 0.44115 0.23255 0.22469 0.0
C4214 C 0.43204 0.30108 0.23661 0.0
C4215 C 0.40068 0.21536 0.2305 0.0
C4216 C 0.36746 0.26738 0.26989 0.0
C4217 C 0.349 0.26693 0.25234 0.0
C4218 C 0.38899 0.26459 0.2642 0.0
C4219 C 0.39296 0.26204 0.24027 0.0
C4220 C 0.37448 0.26227 0.22255 0.0
C4221 C 0.35288 0.26428 0.2287 0.0
C4222 C 0.40755 0.26411 0.28393 0.0
C4223 C 0.37753 0.26046 0.19689 0.0
H4224 H 0.46933 0.28728 0.22463 0.0
H4225 H 0.4435 0.21533 0.22183 0.0
H4226 H 0.41708 0.30326 0.22478 0.0
H4227 H 0.42888 0.3049 0.25503 0.0
H4228 H 0.44751 0.31369 0.23398 0.0
H4229 H 0.4059 0.19908 0.22668 0.0
H4230 H 0.39517 0.2163 0.24816 0.0
H4231 H 0.38563 0.21518 0.21738 0.0
H4232 H 0.36492 0.26952 0.28822 0.0
H4233 H 0.33901 0.26414 0.2149 0.0
H4234 H 0.423 0.27774 0.28352 0.0
H4235 H 0.41247 0.24756 0.28145 0.0
H4236 H 0.40212 0.26646 0.30157 0.0
H4237 H 0.39192 0.27441 0.19442 0.0
H4238 H 0.36191 0.26143 0.18519 0.0
H4239 H 0.38195 0.2441 0.19128 0.0
C4240 C 0.59569 0.56196 0.36145 0.0
C4241 C 0.59682 0.54364 0.34485 0.0
C4242 C 0.59074 0.55865 0.38411 0.0
C4243 C 0.58588 0.5363 0.39013 0.0
C4244 C 0.58713 0.51769 0.37348 0.0
C4245 C 0.59303 0.52165 0.35115 0.0
C4246 C 0.59041 0.57911 0.4015 0.0
C4247 C 0.58117 0.4935 0.37879 0.0
C4248 C 0.58504 0.52979 0.45521 0.0
C4249 C 0.56224 0.52973 0.45746 0.0
C4250 C 0.59306 0.5318 0.43341 0.0
C4251 C 0.57765 0.53247 0.41308 0.0
C4252 C 0.55445 0.53135 0.41504 0.0
C4253 C 0.54729 0.53091 0.43722 0.0
C4254 C 0.61819 0.53419 0.43239 0.0
C4255 C 0.53715 0.53119 0.39378 0.0
H4256 H 0.59904 0.57907 0.3568 0.0
H4257 H 0.59393 0.50748 0.33835 0.0
H4258 H 0.57259 0.57873 0.40431 0.0
H4259 H 0.60035 0.57871 0.41886 0.0
H4260 H 0.59756 0.59547 0.39524 0.0
H4261 H 0.58522 0.48125 0.36508 0.0
H4262 H 0.59042 0.49219 0.39619 0.0
H4263 H 0.56261 0.48841 0.37973 0.0
H4264 H 0.59687 0.52916 0.47066 0.0
H4265 H 0.52983 0.53163 0.43859 0.0
H4266 H 0.62556 0.551 0.4272 0.0
H4267 H 0.62066 0.52091 0.41876 0.0
H4268 H 0.62787 0.53284 0.4496 0.0
H4269 H 0.53984 0.5485 0.38858 0.0
H4270 H 0.51931 0.52602 0.39741 0.0
H4271 H 0.5392 0.51933 0.37851 0.0
C4272 C 0.31155 0.89742 0.06402 0.0
C4273 C 0.29917 0.88366 0.04344 0.0
C4274 C 0.30816 0.89113 0.08603 0.0
C4275 C 0.29233 0.87043 0.08701 0.0
C4276 C 0.27721 0.85873 0.06647 0.0
C4277 C 0.28114 0.86526 0.04453 0.0
C4278 C 0.32382 0.90482 0.10773 0.0
C4279 C 0.25884 0.83777 0.06738 0.0
C4280 C 0.32342 0.83707 0.12413 0.0
C4281 C 0.31739 0.84278 0.14623 0.0
C4282 C 0.31387 0.84458 0.10421 0.0
C4283 C 0.29744 0.85772 0.10645 0.0
C4284 C 0.28951 0.86157 0.12825 0.0
C4285 C 0.29979 0.85418 0.14809 0.0
C4286 C 0.32304 0.84016 0.08131 0.0
C4287 C 0.2715 0.8748 0.13125 0.0
H4288 H 0.32504 0.91215 0.06279 0.0
H4289 H 0.27113 0.85528 0.02836 0.0
H4290 H 0.3141 0.90679 0.12259 0.0
H4291 H 0.33711 0.89571 0.11321 0.0
H4292 H 0.33252 0.92206 0.10444 0.0
H4293 H 0.24508 0.83453 0.05193 0.0
H4294 H 0.26641 0.82274 0.06716 0.0
H4295 H 0.25127 0.83955 0.08387 0.0
H4296 H 0.33652 0.82765 0.12264 0.0
H4297 H 0.29492 0.85845 0.1652 0.0
H4298 H 0.33254 0.85652 0.07673 0.0
H4299 H 0.30881 0.83247 0.06668 0.0
H4300 H 0.3348 0.82856 0.08239 0.0
H4301 H 0.27991 0.89263 0.13931 0.0
H4302 H 0.26009 0.86736 0.14348 0.0
H4303 H 0.26092 0.87514 0.11424 0.0
C4304 C 0.94778 0.51574 0.85903 0.0
C4305 C 0.92428 0.51207 0.85887 0.0
C4306 C 0.96259 0.5217 0.88023 0.0
C4307 C 0.95328 0.52346 0.90143 0.0
C4308 C 0.92951 0.52077 0.90126 0.0
C4309 C 0.91507 0.51514 0.87963 0.0
C4310 C 0.98798 0.52491 0.87997 0.0
C4311 C 0.91941 0.52277 0.92386 0.0
C4312 C 0.98851 0.50498 0.94958 0.0
C4313 C 0.99867 0.52586 0.96349 0.0
C4314 C 0.97237 0.50392 0.93001 0.0
C4315 C 0.96806 0.5245 0.92352 0.0
C4316 C 0.97915 0.54581 0.93705 0.0
C4317 C 0.99412 0.54618 0.95746 0.0
C4318 C 0.96016 0.48086 0.91618 0.0
C4319 C 0.97602 0.56807 0.9295 0.0
H4320 H 0.9545 0.51381 0.84251 0.0
H4321 H 0.89674 0.51278 0.8789 0.0
H4322 H 0.99779 0.54023 0.89238 0.0
H4323 H 0.99351 0.50994 0.88581 0.0
H4324 H 0.99251 0.52666 0.86206 0.0
H4325 H 0.90082 0.52197 0.9205 0.0
H4326 H 0.92204 0.5087 0.93378 0.0
H4327 H 0.92821 0.53904 0.93533 0.0
H4328 H 0.99256 0.48948 0.9546 0.0
H4329 H 1.00285 0.56231 0.96824 0.0
H4330 H 0.96544 0.47921 0.89844 0.0
H4331 H 0.94141 0.47915 0.91361 0.0
H4332 H 0.96391 0.46657 0.92516 0.0
H4333 H 0.98382 0.57072 0.91329 0.0
H4334 H 0.98416 0.5829 0.94334 0.0
H4335 H 0.95762 0.56764 0.9251 0.0
C4336 C 0.2556 0.21421 0.59251 0.0
C4337 C 0.27346 0.22111 0.57965 0.0
C4338 C 0.25856 0.21999 0.61719 0.0
C4339 C 0.27966 0.23384 0.62936 0.0
C4340 C 0.29789 0.2407 0.61646 0.0
C4341 C 0.2947 0.23387 0.59178 0.0
C4342 C 0.23897 0.21148 0.63022 0.0
C4343 C 0.32052 0.25575 0.62863 0.0
C4344 C 0.27486 0.26847 0.68723 0.0
C4345 C 0.28246 0.25591 0.70422 0.0
C4346 C 0.27453 0.26185 0.66298 0.0
C4347 C 0.28198 0.2421 0.65529 0.0
C4348 C 0.29021 0.22962 0.67237 0.0
C4349 C 0.29036 0.23667 0.69657 0.0
C4350 C 0.26587 0.27588 0.64554 0.0
C4351 C 0.29804 0.20829 0.66515 0.0
H4352 H 0.23927 0.20401 0.5832 0.0
H4353 H 0.30854 0.23915 0.58186 0.0
H4354 H 0.24485 0.20311 0.64515 0.0
H4355 H 0.23261 0.22608 0.63779 0.0
H4356 H 0.2245 0.19913 0.61856 0.0
H4357 H 0.33304 0.25944 0.61622 0.0
H4358 H 0.31791 0.27215 0.63704 0.0
H4359 H 0.32792 0.24753 0.64289 0.0
H4360 H 0.26918 0.28361 0.69282 0.0
H4361 H 0.29639 0.22684 0.70946 0.0
H4362 H 0.24973 0.2657 0.63461 0.0
H4363 H 0.27845 0.2805 0.63341 0.0
H4364 H 0.26254 0.29179 0.6544 0.0
H4365 H 0.28292 0.19426 0.65751 0.0
H4366 H 0.30745 0.20282 0.68037 0.0
H4367 H 0.30923 0.21088 0.65138 0.0
C4368 C 0.60844 0.53942 0.19695 0.0
C4369 C 0.59178 0.53825 0.2119 0.0
C4370 C 0.60241 0.53717 0.17229 0.0
C4371 C 0.57907 0.53276 0.16229 0.0
C4372 C 0.56211 0.53016 0.17731 0.0
C4373 C 0.5687 0.53347 0.20197 0.0
C4374 C 0.62111 0.54097 0.15712 0.0
C4375 C 0.53702 0.52457 0.16735 0.0
C4376 C 0.56301 0.55384 0.10437 0.0
C4377 C 0.5594 0.53423 0.08781 0.0
C4378 C 0.56973 0.55365 0.1285 0.0
C4379 C 0.57249 0.53307 0.13648 0.0
C4380 C 0.56887 0.51307 0.1198 0.0
C4381 C 0.5627 0.51399 0.09562 0.0
C4382 C 0.57401 0.57557 0.14542 0.0
C4383 C 0.57135 0.49069 0.12747 0.0
H4384 H 0.62634 0.54344 0.20465 0.0
H4385 H 0.55582 0.53252 0.21353 0.0
H4386 H 0.61797 0.52668 0.14241 0.0
H4387 H 0.62116 0.55676 0.14914 0.0
H4388 H 0.63829 0.5427 0.16737 0.0
H4389 H 0.52598 0.52065 0.18108 0.0
H4390 H 0.53286 0.53923 0.15941 0.0
H4391 H 0.53286 0.50971 0.15311 0.0
H4392 H 0.56122 0.56954 0.09842 0.0
H4393 H 0.55998 0.49873 0.08284 0.0
H4394 H 0.59135 0.57926 0.1559 0.0
H4395 H 0.56153 0.5738 0.15803 0.0
H4396 H 0.57254 0.59038 0.1362 0.0
H4397 H 0.5895 0.49191 0.13442 0.0
H4398 H 0.56563 0.47627 0.11271 0.0
H4399 H 0.56129 0.48682 0.14196 0.0
C4400 C 0.30927 0.87025 0.93715 0.0
C4401 C 0.30899 0.89276 0.93455 0.0
C4402 C 0.30275 0.85326 0.9176 0.0
C4403 C 0.29693 0.85943 0.89519 0.0
C4404 C 0.29704 0.88228 0.89248 0.0
C4405 C 0.30286 0.89875 0.91243 0.0
C4406 C 0.30202 0.82879 0.92085 0.0
C4407 C 0.2914 0.88936 0.86856 0.0
C4408 C 0.31053 0.82493 0.84368 0.0
C4409 C 0.28868 0.81533 0.83127 0.0
C4410 C 0.31341 0.83954 0.86466 0.0
C4411 C 0.2938 0.84272 0.87416 0.0
C4412 C 0.27157 0.83136 0.86263 0.0
C4413 C 0.26923 0.81815 0.84065 0.0
C4414 C 0.3373 0.85256 0.87579 0.0
C4415 C 0.25049 0.83338 0.87336 0.0
H4416 H 0.31346 0.8658 0.95457 0.0
H4417 H 0.30244 0.91628 0.91085 0.0
H4418 H 0.28573 0.81737 0.91144 0.0
H4419 H 0.31611 0.82326 0.91314 0.0
H4420 H 0.30375 0.8265 0.93977 0.0
H4421 H 0.29223 0.90792 0.86975 0.0
H4422 H 0.30352 0.88513 0.85682 0.0
H4423 H 0.27399 0.87983 0.86007 0.0
H4424 H 0.3254 0.82221 0.83612 0.0
H4425 H 0.25241 0.80988 0.83094 0.0
H4426 H 0.34117 0.84875 0.89398 0.0
H4427 H 0.33858 0.87118 0.87704 0.0
H4428 H 0.35055 0.8484 0.86552 0.0
H4429 H 0.25158 0.82758 0.89094 0.0
H4430 H 0.23454 0.82307 0.86211 0.0
H4431 H 0.24941 0.85145 0.87615 0.0
C4432 C 0.94059 0.54183 0.73588 0.0
C4433 C 0.93743 0.52147 0.74551 0.0
C4434 C 0.94887 0.54306 0.71431 0.0
C4435 C 0.95288 0.52314 0.70205 0.0
C4436 C 0.94906 0.50241 0.71163 0.0
C4437 C 0.94183 0.50201 0.73352 0.0
C4438 C 0.95309 0.56542 0.70464 0.0
C4439 C 0.95233 0.48048 0.69874 0.0
C4440 C 0.95372 0.50504 0.63884 0.0
C4441 C 0.97617 0.50256 0.64056 0.0
C4442 C 0.94621 0.51535 0.6583 0.0
C4443 C 0.96178 0.52332 0.67951 0.0
C4444 C 0.98525 0.52393 0.67993 0.0
C4445 C 0.99215 0.51305 0.66043 0.0
C4446 C 0.92105 0.51445 0.6571 0.0
C4447 C 1.0024 0.53299 0.70208 0.0
H4448 H 0.93669 0.55667 0.74526 0.0
H4449 H 0.93864 0.48611 0.74083 0.0
H4450 H 0.97038 0.56946 0.69943 0.0
H4451 H 0.94054 0.56412 0.68858 0.0
H4452 H 0.95156 0.57976 0.71766 0.0
H4453 H 0.94723 0.46567 0.70823 0.0
H4454 H 0.94205 0.47651 0.68085 0.0
H4455 H 0.97054 0.48237 0.69659 0.0
H4456 H 0.94165 0.49737 0.62298 0.0
H4457 H 0.00973 0.5117 0.66115 0.0
H4458 H 0.91799 0.52881 0.66893 0.0
H4459 H 0.91239 0.4983 0.66278 0.0
H4460 H 0.91306 0.51475 0.63878 0.0
H4461 H 0.99856 0.54809 0.712 0.0
H4462 H 0.0201 0.53773 0.69797 0.0
H4463 H 1.00158 0.51957 0.71372 0.0
C4464 C 0.27063 0.24169 0.43996 0.0
C4465 C 0.27847 0.22354 0.4484 0.0
C4466 C 0.27399 0.2476 0.41751 0.0
C4467 C 0.28525 0.23492 0.40277 0.0
C4468 C 0.29371 0.21694 0.41139 0.0
C4469 C 0.29038 0.21159 0.4341 0.0
C4470 C 0.26491 0.26709 0.40934 0.0
C4471 C 0.30556 0.20279 0.39624 0.0
C4472 C 0.26951 0.23583 0.33672 0.0
C4473 C 0.2889 0.25054 0.33123 0.0
C4474 C 0.26862 0.22975 0.3595 0.0
C4475 C 0.287 0.23973 0.37796 0.0
C4476 C 0.30654 0.2549 0.37274 0.0
C4477 C 0.30752 0.25953 0.3494 0.0
C4478 C 0.24767 0.21295 0.36385 0.0
C4479 C 0.32607 0.26688 0.39198 0.0
H4480 H 0.26143 0.25113 0.45076 0.0
H4481 H 0.29643 0.19748 0.4403 0.0
H4482 H 0.27837 0.27904 0.4025 0.0
H4483 H 0.25049 0.26039 0.39467 0.0
H4484 H 0.25875 0.27674 0.42372 0.0
H4485 H 0.31092 0.18923 0.40532 0.0
H4486 H 0.29398 0.19468 0.37959 0.0
H4487 H 0.3209 0.21387 0.39133 0.0
H4488 H 0.25459 0.22955 0.3235 0.0
H4489 H 0.3228 0.27059 0.3455 0.0
H4490 H 0.23793 0.22183 0.37526 0.0
H4491 H 0.25274 0.19946 0.37324 0.0
H4492 H 0.23616 0.20469 0.34717 0.0
H4493 H 0.31973 0.27738 0.40551 0.0
H4494 H 0.34006 0.27817 0.3851 0.0
H4495 H 0.33316 0.25423 0.40097 0.0
C4496 C 0.3222 0.57659 0.55456 0.0
C4497 C 0.32545 0.59905 0.56566 0.0
C4498 C 0.33951 0.56976 0.54394 0.0
C4499 C 0.36074 0.58559 0.54525 0.0
C4500 C 0.36488 0.60757 0.55841 0.0
C4501 C 0.34702 0.61415 0.56837 0.0
C4502 C 0.33446 0.54618 0.52981 0.0
C4503 C 0.38759 0.62459 0.56064 0.0
C4504 C 0.40456 0.55574 0.52576 0.0
C4505 C 0.40276 0.55822 0.50173 0.0
C4506 C 0.39249 0.56641 0.5408 0.0
C4507 C 0.37781 0.57928 0.53139 0.0
C4508 C 0.37686 0.58297 0.50752 0.0
C4509 C 0.38951 0.57245 0.49296 0.0
C4510 C 0.39423 0.56256 0.56632 0.0
C4511 C 0.36123 0.59657 0.49687 0.0
H4512 H 0.30555 0.56484 0.55241 0.0
H4513 H 0.34955 0.6315 0.57709 0.0
H4514 H 0.33567 0.54758 0.51096 0.0
H4515 H 0.34725 0.53687 0.53615 0.0
H4516 H 0.31715 0.53585 0.53092 0.0
H4517 H 0.38904 0.63961 0.57418 0.0
H4518 H 0.40187 0.61647 0.56532 0.0
H4519 H 0.3896 0.6307 0.54344 0.0
H4520 H 0.4146 0.54459 0.53268 0.0
H4521 H 0.38851 0.57484 0.47454 0.0
H4522 H 0.37867 0.55003 0.56881 0.0
H4523 H 0.39529 0.57864 0.57812 0.0
H4524 H 0.40935 0.55587 0.57186 0.0
H4525 H 0.34326 0.58649 0.49464 0.0
H4526 H 0.36514 0.60076 0.47933 0.0
H4527 H 0.36251 0.61268 0.50869 0.0
C4528 C 0.86895 0.94486 0.53892 0.0
C4529 C 0.87152 0.92335 0.5437 0.0
C4530 C 0.88818 0.96246 0.53775 0.0
C4531 C 0.91034 0.95822 0.54093 0.0
C4532 C 0.91298 0.93681 0.54658 0.0
C4533 C 0.89367 0.91987 0.54821 0.0
C4534 C 0.88462 0.98525 0.53231 0.0
C4535 C 0.93617 0.93127 0.54973 0.0
C4536 C 0.95755 0.98844 0.51021 0.0
C4537 C 0.97405 0.99965 0.52954 0.0
C4538 C 0.93643 0.9752 0.51356 0.0
C4539 C 0.93081 0.97513 0.5367 0.0
C4540 C 0.94646 0.98878 0.55601 0.0
C4541 C 0.9683 1.00021 0.55232 0.0
C4542 C 0.92092 0.96009 0.49255 0.0
C4543 C 0.94028 0.99083 0.58058 0.0
H4544 H 0.85194 0.94777 0.53546 0.0
H4545 H 0.89598 0.90344 0.55221 0.0
H4546 H 0.89854 0.99948 0.5422 0.0
H4547 H 0.88467 0.986 0.51319 0.0
H4548 H 0.86796 0.98788 0.53663 0.0
H4549 H 0.93517 0.91356 0.55344 0.0
H4550 H 0.94411 0.93344 0.53353 0.0
H4551 H 0.9477 0.94317 0.56452 0.0
H4552 H 0.96172 0.98889 0.4925 0.0
H4553 H 0.98078 0.00979 0.56715 0.0
H4554 H 0.90393 0.96413 0.4906 0.0
H4555 H 0.91828 0.94196 0.49532 0.0
H4556 H 0.92801 0.96197 0.47581 0.0
H4557 H 0.92315 0.99457 0.58014 0.0
H4558 H 0.95294 0.00451 0.59292 0.0
H4559 H 0.93937 0.97445 0.58759 0.0
C4560 C 0.88202 0.067 0.24806 0.0
C4561 C 0.89633 0.06608 0.2688 0.0
C4562 C 0.86954 0.08394 0.24711 0.0
C4563 C 0.87195 0.10055 0.26719 0.0
C4564 C 0.88713 0.10014 0.28778 0.0
C4565 C 0.89887 0.08278 0.2884 0.0
C4566 C 0.85352 0.08383 0.2249 0.0
C4567 C 0.89064 0.11779 0.30946 0.0
C4568 C 0.85686 0.15771 0.27176 0.0
C4569 C 0.8385 0.15332 0.28443 0.0
C4570 C 0.86655 0.13997 0.26332 0.0
C4571 C 0.85765 0.11753 0.26791 0.0
C4572 C 0.83747 0.11278 0.27833 0.0
C4573 C 0.82824 0.13081 0.28666 0.0
C4574 C 0.88782 0.14575 0.25197 0.0
C4575 C 0.82718 0.08908 0.28323 0.0
H4576 H 0.88011 0.05414 0.23281 0.0
H4577 H 0.91021 0.08237 0.30433 0.0
H4578 H 0.83593 0.08269 0.22894 0.0
H4579 H 0.85882 0.10005 0.21772 0.0
H4580 H 0.85314 0.0694 0.21105 0.0
H4581 H 0.90399 0.11577 0.3235 0.0
H4582 H 0.8957 0.13521 0.30472 0.0
H4583 H 0.8744 0.11643 0.31679 0.0
H4584 H 0.86486 0.17521 0.27025 0.0
H4585 H 0.8141 0.12756 0.29662 0.0
H4586 H 0.88773 0.13222 0.2373 0.0
H4587 H 0.90304 0.14701 0.26529 0.0
H4588 H 0.8896 0.16231 0.24508 0.0
H4589 H 0.82661 0.07615 0.26781 0.0
H4590 H 0.80962 0.08746 0.28759 0.0
H4591 H 0.838 0.08516 0.29844 0.0
C4592 C 0.69306 0.10929 0.04714 0.0
C4593 C 0.70848 0.09536 0.04487 0.0
C4594 C 0.67083 0.10217 0.03537 0.0
C4595 C 0.66395 0.08039 0.02168 0.0
C4596 C 0.68006 0.06754 0.01697 0.0
C4597 C 0.70245 0.07525 0.02878 0.0
C4598 C 0.65413 0.11668 0.04003 0.0
C4599 C 0.67304 0.04462 0.00155 0.0
C4600 C 0.60922 0.0496 0.03803 0.0
C4601 C 0.59354 0.05156 0.01903 0.0
C4602 C 0.63243 0.05806 0.03845 0.0
C4603 C 0.63994 0.06863 0.01922 0.0
C4604 C 0.62426 0.06994 -0.00044 0.0
C4605 C 0.60104 0.06129 -0.00019 0.0
C4606 C 0.64867 0.05676 0.0601 0.0
C4607 C 0.63162 0.08134 0.97888 0.0
H4608 H 0.69814 0.12558 0.0586 0.0
H4609 H 0.71485 0.06515 0.02631 0.0
H4610 H 0.64211 0.11617 0.02378 0.0
H4611 H 0.64393 0.10993 0.0535 0.0
H4612 H 0.66303 0.13475 0.04677 0.0
H4613 H 0.68801 0.03926 -0.00445 0.0
H4614 H 0.66455 0.03163 0.01174 0.0
H4615 H 0.66061 0.045 0.98588 0.0
H4616 H 0.60334 0.04208 0.05299 0.0
H4617 H 0.58889 0.06202 0.985 0.0
H4618 H 0.65648 0.0742 0.06969 0.0
H4619 H 0.66268 0.04918 0.05494 0.0
H4620 H 0.63996 0.04643 0.07253 0.0
H4621 H 0.63186 0.09973 0.98246 0.0
H4622 H 0.61939 0.07395 0.96243 0.0
H4623 H 0.64898 0.07989 0.97589 0.0
C4624 C 0.24615 0.49392 0.22873 0.0
C4625 C 0.22479 0.49614 0.23409 0.0
C4626 C 0.25513 0.47592 0.23565 0.0
C4627 C 0.24254 0.46039 0.2485 0.0
C4628 C 0.22026 0.46163 0.25229 0.0
C4629 C 0.21155 0.47932 0.24471 0.0
C4630 C 0.27851 0.47424 0.23046 0.0
C4631 C 0.20633 0.44552 0.26617 0.0
C4632 C 0.25362 0.40586 0.26592 0.0
C4633 C 0.26332 0.41308 0.28972 0.0
C4634 C 0.2488 0.42155 0.2513 0.0
C4635 C 0.25335 0.4448 0.26096 0.0
C4636 C 0.26436 0.45236 0.28454 0.0
C4637 C 0.26933 0.43634 0.29863 0.0
C4638 C 0.23727 0.41302 0.22614 0.0
C4639 C 0.26922 0.47709 0.29548 0.0
H4640 H 0.25623 0.50672 0.22013 0.0
H4641 H 0.19478 0.48067 0.24841 0.0
H4642 H 0.29085 0.47853 0.2471 0.0
H4643 H 0.2781 0.45651 0.22285 0.0
H4644 H 0.28487 0.48597 0.218 0.0
H4645 H 0.18875 0.44804 0.26618 0.0
H4646 H 0.20503 0.42753 0.25883 0.0
H4647 H 0.21491 0.44829 0.28476 0.0
H4648 H 0.24886 0.38782 0.25897 0.0
H4649 H 0.27731 0.44194 0.31685 0.0
H4650 H 0.2441 0.42491 0.21406 0.0
H4651 H 0.21869 0.41202 0.22498 0.0
H4652 H 0.23947 0.39577 0.21991 0.0
H4653 H 0.2782 0.48833 0.28398 0.0
H4654 H 0.27978 0.48042 0.31323 0.0
H4655 H 0.25284 0.4819 0.29728 0.0
C4656 C 0.23313 0.41207 0.03095 0.0
C4657 C 0.2551 0.42663 0.03649 0.0
C4658 C 0.2136 0.42084 0.0277 0.0
C4659 C 0.21605 0.44474 0.02976 0.0
C4660 C 0.23805 0.45955 0.03659 0.0
C4661 C 0.25731 0.45033 0.03987 0.0
C4662 C 0.19038 0.40448 0.02117 0.0
C4663 C 0.24128 0.48513 0.03961 0.0
C4664 C 0.17034 0.46211 0.98994 0.0
C4665 C 0.1555 0.46675 0.00562 0.0
C4666 C 0.19056 0.45589 -0.00213 0.0
C4667 C 0.19596 0.45395 0.02205 0.0
C4668 C 0.18143 0.45945 0.03814 0.0
C4669 C 0.16138 0.46588 0.02971 0.0
C4670 C 0.20582 0.45072 0.98021 0.0
C4671 C 0.18628 0.45749 0.06402 0.0
H4672 H 0.23117 0.39375 0.02872 0.0
H4673 H 0.27417 0.46175 0.04448 0.0
H4674 H 0.17853 0.40921 0.03299 0.0
H4675 H 0.18306 0.40556 0.00285 0.0
H4676 H 0.19115 0.38653 0.02232 0.0
H4677 H 0.25913 0.4943 0.04714 0.0
H4678 H 0.23689 0.49052 0.02222 0.0
H4679 H 0.22959 0.4904 0.05133 0.0
H4680 H 0.16596 0.46311 0.97135 0.0
H4681 H 0.14985 0.46937 0.04184 0.0
H4682 H 0.2064 0.43249 0.97897 0.0
H4683 H 0.22355 0.46109 0.98615 0.0
H4684 H 0.19984 0.45421 0.96232 0.0
H4685 H 0.17963 0.43951 0.06653 0.0
H4686 H 0.17769 0.46834 0.07485 0.0
H4687 H 0.20488 0.46231 0.07071 0.0
C4688 C 0.90213 0.92993 0.27003 0.0
C4689 C 0.89792 0.94531 0.25466 0.0
C4690 C 0.88506 0.91083 0.27213 0.0
C4691 C 0.86341 0.90657 0.25794 0.0
C4692 C 0.85882 0.92232 0.24276 0.0
C4693 C 0.87609 0.94175 0.24154 0.0
C4694 C 0.89042 0.89492 0.28918 0.0
C4695 C 0.83591 0.91829 0.22737 0.0
C4696 C 0.83416 0.84359 0.24515 0.0
C4697 C 0.81915 0.84152 0.26182 0.0
C4698 C 0.8478 0.86491 0.24291 0.0
C4699 C 0.84646 0.88465 0.25777 0.0
C4700 C 0.83064 0.88282 0.27399 0.0
C4701 C 0.81721 0.86125 0.27586 0.0
C4702 C 0.86439 0.86614 0.22534 0.0
C4703 C 0.82879 0.90337 0.29032 0.0
H4704 H 0.91882 0.93295 0.28066 0.0
H4705 H 0.87274 0.95377 0.22983 0.0
H4706 H 0.87704 0.89172 0.30071 0.0
H4707 H 0.89054 0.87823 0.2792 0.0
H4708 H 0.90727 0.90184 0.30055 0.0
H4709 H 0.83468 0.93264 0.21733 0.0
H4710 H 0.833 0.90241 0.21465 0.0
H4711 H 0.82199 0.91586 0.23832 0.0
H4712 H 0.83565 0.82844 0.23416 0.0
H4713 H 0.80584 0.85976 0.28901 0.0
H4714 H 0.88217 0.87112 0.23489 0.0
H4715 H 0.86233 0.87939 0.21405 0.0
H4716 H 0.86204 0.84959 0.21381 0.0
H4717 H 0.84391 0.90843 0.30438 0.0
H4718 H 0.81317 0.8998 0.29885 0.0
H4719 H 0.82859 0.91811 0.28065 0.0
C4720 C 0.73567 0.11804 0.78461 0.0
C4721 C 0.73478 0.10931 0.76096 0.0
C4722 C 0.74649 0.14068 0.79279 0.0
C4723 C 0.758 0.15366 0.77722 0.0
C4724 C 0.7618 0.14302 0.75537 0.0
C4725 C 0.74939 0.12068 0.747 0.0
C4726 C 0.74111 0.15143 0.8157 0.0
C4727 C 0.77548 0.15636 0.73917 0.0
C4728 C 0.74533 0.20951 0.76683 0.0
C4729 C 0.76577 0.22426 0.77786 0.0
C4730 C 0.74183 0.18623 0.76792 0.0
C4731 C 0.75953 0.17813 0.7801 0.0
C4732 C 0.7791 0.19342 0.79324 0.0
C4733 C 0.78174 0.21655 0.79212 0.0
C4734 C 0.72026 0.17032 0.75417 0.0
C4735 C 0.79824 0.1854 0.80635 0.0
H4736 H 0.72454 0.10852 0.7953 0.0
H4737 H 0.74888 0.11343 0.7288 0.0
H4738 H 0.75467 0.1666 0.82415 0.0
H4739 H 0.72497 0.15701 0.81195 0.0
H4740 H 0.73851 0.13895 0.82836 0.0
H4741 H 0.78176 0.14492 0.72648 0.0
H4742 H 0.7645 0.16533 0.72887 0.0
H4743 H 0.79029 0.16941 0.74943 0.0
H4744 H 0.73309 0.21584 0.75571 0.0
H4745 H 0.79691 0.22855 0.80104 0.0
H4746 H 0.71337 0.15654 0.76427 0.0
H4747 H 0.72416 0.16224 0.7374 0.0
H4748 H 0.70678 0.17954 0.74968 0.0
H4749 H 0.79164 0.17056 0.81521 0.0
H4750 H 0.80934 0.19924 0.81978 0.0
H4751 H 0.80888 0.17991 0.79353 0.0
loop_
_geom_bond_atom_site_label_1
_geom_bond_atom_site_label_2
_geom_bond_distance
_geom_bond_site_symmetry_2
_ccdc_geom_bond_type
Zn0 O3 2.031 . S
Zn0 O5 2.049 . S
Zn0 O10 2.067 1_455 S
Zn1 O2 1.962 . S
Zn1 O4 1.986 . S
Zn1 O6 1.996 . S
Zn1 O9 1.943 . S
O2 Zn1 1.962 . S
O2 C7 1.254 . S
O3 Zn0 2.031 . S
O3 C7 1.269 . S
O4 Zn1 1.986 . S
O4 C11 1.262 . S
O5 Zn0 2.049 . S
O5 C13 1.260 . S
O6 Zn1 1.996 . S
O6 C13 1.257 . S
C7 O2 1.254 . S
C7 O3 1.269 . S
C8 O9 1.249 . S
C8 O10 1.270 1_455 S
O9 Zn1 1.943 . S
O9 C8 1.249 . S
O10 Zn0 2.067 1_655 S
O10 C8 1.270 1_655 S
C11 O4 1.262 . S
C11 O12 1.232 . S
O12 C11 1.232 . S
C13 O5 1.260 . S
C13 O6 1.257 . S
Zn14 O17 2.031 1_455 S
Zn14 O19 2.049 . S
Zn14 O24 2.067 . S
Zn15 O16 1.962 1_455 S
Zn15 O18 1.986 . S
Zn15 O20 1.996 . S
Zn15 O23 1.943 . S
O16 Zn15 1.962 1_655 S
O16 C21 1.254 . S
O17 Zn14 2.031 1_655 S
O17 C21 1.269 . S
O18 Zn15 1.986 . S
O18 C25 1.262 . S
O19 Zn14 2.049 . S
O19 C27 1.260 . S
O20 Zn15 1.996 . S
O20 C27 1.257 . S
C21 O16 1.254 . S
C21 O17 1.269 . S
C22 O23 1.249 . S
C22 O24 1.270 . S
O23 Zn15 1.943 . S
O23 C22 1.249 . S
O24 Zn14 2.067 . S
O24 C22 1.270 . S
C25 O18 1.262 . S
C25 O26 1.232 . S
O26 C25 1.232 . S
C27 O19 1.260 . S
C27 O20 1.257 . S
Zn28 O31 2.031 . S
Zn28 O33 2.049 . S
Zn28 O38 2.067 . S
Zn29 O30 1.962 . S
Zn29 O32 1.986 . S
Zn29 O34 1.996 . S
Zn29 O37 1.943 . S
O30 Zn29 1.962 . S
O30 C35 1.254 . S
O31 Zn28 2.031 . S
O31 C35 1.269 . S
O32 Zn29 1.986 . S
O32 C39 1.262 . S
O33 Zn28 2.049 . S
O33 C41 1.260 . S
O34 Zn29 1.996 . S
O34 C41 1.257 . S
C35 O30 1.254 . S
C35 O31 1.269 . S
C36 O37 1.249 . S
C36 O38 1.270 . S
O37 Zn29 1.943 . S
O37 C36 1.249 . S
O38 Zn28 2.067 . S
O38 C36 1.270 . S
C39 O32 1.262 . S
C39 O40 1.232 . S
O40 C39 1.232 . S
C41 O33 1.260 . S
C41 O34 1.257 . S
Zn42 O45 2.031 . S
Zn42 O47 2.049 . S
Zn42 O52 2.067 . S
Zn43 O44 1.962 . S
Zn43 O46 1.986 . S
Zn43 O48 1.996 . S
Zn43 O51 1.943 . S
O44 Zn43 1.962 . S
O44 C49 1.254 . S
O45 Zn42 2.031 . S
O45 C49 1.269 . S
O46 Zn43 1.986 . S
O46 C53 1.262 . S
O47 Zn42 2.049 . S
O47 C55 1.260 . S
O48 Zn43 1.996 . S
O48 C55 1.257 . S
C49 O44 1.254 . S
C49 O45 1.269 . S
C50 O51 1.249 . S
C50 O52 1.270 . S
O51 Zn43 1.943 . S
O51 C50 1.249 . S
O52 Zn42 2.067 . S
O52 C50 1.270 . S
C53 O46 1.262 . S
C53 O54 1.232 . S
O54 C53 1.232 . S
C55 O47 1.260 . S
C55 O48 1.257 . S
Zn56 O59 2.031 . S
Zn56 O61 2.049 . S
Zn56 O66 2.067 . S
Zn57 O58 1.962 . S
Zn57 O60 1.986 . S
Zn57 O62 1.996 . S
Zn57 O65 1.943 . S
O58 Zn57 1.962 . S
O58 C63 1.254 . S
O59 Zn56 2.031 . S
O59 C63 1.269 . S
O60 Zn57 1.986 . S
O60 C67 1.262 . S
O61 Zn56 2.049 . S
O61 C69 1.260 . S
O62 Zn57 1.996 . S
O62 C69 1.257 . S
C63 O58 1.254 . S
C63 O59 1.269 . S
C64 O65 1.249 . S
C64 O66 1.270 . S
O65 Zn57 1.943 . S
O65 C64 1.249 . S
O66 Zn56 2.067 . S
O66 C64 1.270 . S
C67 O60 1.262 . S
C67 O68 1.232 . S
O68 C67 1.232 . S
C69 O61 1.260 . S
C69 O62 1.257 . S
Zn70 O73 2.031 . S
Zn70 O75 2.049 . S
Zn70 O80 2.067 . S
Zn71 O72 1.962 . S
Zn71 O74 1.986 . S
Zn71 O76 1.996 . S
Zn71 O79 1.943 . S
O72 Zn71 1.962 . S
O72 C77 1.254 . S
O73 Zn70 2.031 . S
O73 C77 1.269 . S
O74 Zn71 1.986 . S
O74 C81 1.262 . S
O75 Zn70 2.049 . S
O75 C83 1.260 . S
O76 Zn71 1.996 . S
O76 C83 1.257 . S
C77 O72 1.254 . S
C77 O73 1.269 . S
C78 O79 1.249 . S
C78 O80 1.270 . S
O79 Zn71 1.943 . S
O79 C78 1.249 . S
O80 Zn70 2.067 . S
O80 C78 1.270 . S
C81 O74 1.262 . S
C81 O82 1.232 . S
O82 C81 1.232 . S
C83 O75 1.260 . S
C83 O76 1.257 . S
Zn84 O87 2.031 . S
Zn84 O89 2.049 . S
Zn84 O94 2.067 . S
Zn85 O86 1.962 . S
Zn85 O88 1.986 . S
Zn85 O90 1.996 . S
Zn85 O93 1.943 . S
O86 Zn85 1.962 . S
O86 C91 1.254 . S
O87 Zn84 2.031 . S
O87 C91 1.269 . S
O88 Zn85 1.986 . S
O88 C95 1.262 . S
O89 Zn84 2.049 . S
O89 C97 1.260 . S
O90 Zn85 1.996 . S
O90 C97 1.257 . S
C91 O86 1.254 . S
C91 O87 1.269 . S
C92 O93 1.249 . S
C92 O94 1.270 . S
O93 Zn85 1.943 . S
O93 C92 1.249 . S
O94 Zn84 2.067 . S
O94 C92 1.270 . S
C95 O88 1.262 . S
C95 O96 1.232 . S
O96 C95 1.232 . S
C97 O89 1.260 . S
C97 O90 1.257 . S
Zn98 O101 2.031 . S
Zn98 O103 2.049 . S
Zn98 O108 2.067 . S
Zn99 O100 1.962 . S
Zn99 O102 1.986 . S
Zn99 O104 1.996 . S
Zn99 O107 1.943 1_455 S
O100 Zn99 1.962 . S
O100 C105 1.254 . S
O101 Zn98 2.031 . S
O101 C105 1.269 1_655 S
O102 Zn99 1.986 . S
O102 C109 1.262 . S
O103 Zn98 2.049 . S
O103 C111 1.260 . S
O104 Zn99 1.996 . S
O104 C111 1.257 1_455 S
C105 O100 1.254 . S
C105 O101 1.269 1_455 S
C106 O107 1.249 . S
C106 O108 1.270 . S
O107 Zn99 1.943 1_655 S
O107 C106 1.249 . S
O108 Zn98 2.067 . S
O108 C106 1.270 . S
C109 O102 1.262 . S
C109 O110 1.232 . S
O110 C109 1.232 . S
C111 O103 1.260 . S
C111 O104 1.257 1_655 S
Zn112 O115 2.031 . S
Zn112 O117 2.049 . S
Zn112 O122 2.067 . S
Zn113 O114 1.962 . S
Zn113 O116 1.986 . S
Zn113 O118 1.996 . S
Zn113 O121 1.943 1_545 S
O114 Zn113 1.962 . S
O114 C119 1.254 . S
O115 Zn112 2.031 . S
O115 C119 1.269 1_565 S
O116 Zn113 1.986 . S
O116 C123 1.262 . S
O117 Zn112 2.049 . S
O117 C125 1.255 1_565 S
O118 Zn113 1.996 . S
O118 C125 1.259 . S
C119 O114 1.254 . S
C119 O115 1.269 1_545 S
C120 O121 1.249 . S
C120 O122 1.270 . S
O121 Zn113 1.943 1_565 S
O121 C120 1.249 . S
O122 Zn112 2.067 . S
O122 C120 1.270 . S
C123 O116 1.262 . S
C123 O124 1.232 . S
O124 C123 1.232 . S
C125 O117 1.255 1_545 S
C125 O118 1.259 . S
Zn126 O129 2.031 . S
Zn126 O131 2.049 . S
Zn126 O136 2.067 . S
Zn127 O128 1.962 . S
Zn127 O130 1.986 . S
Zn127 O132 1.996 . S
Zn127 O135 1.943 . S
O128 Zn127 1.962 . S
O128 C133 1.254 . S
O129 Zn126 2.031 . S
O129 C133 1.269 . S
O130 Zn127 1.986 . S
O130 C137 1.262 . S
O131 Zn126 2.049 . S
O131 C139 1.260 . S
O132 Zn127 1.996 . S
O132 C139 1.257 . S
C133 O128 1.254 . S
C133 O129 1.269 . S
C134 O135 1.249 . S
C134 O136 1.270 . S
O135 Zn127 1.943 . S
O135 C134 1.249 . S
O136 Zn126 2.067 . S
O136 C134 1.270 . S
C137 O130 1.262 . S
C137 O138 1.232 . S
O138 C137 1.232 . S
C139 O131 1.260 . S
C139 O132 1.257 . S
Zn140 O143 2.031 . S
Zn140 O145 2.049 . S
Zn140 O150 2.067 . S
Zn141 O142 1.962 . S
Zn141 O144 1.986 . S
Zn141 O146 1.996 . S
Zn141 O149 1.943 . S
O142 Zn141 1.962 . S
O142 C147 1.254 . S
O143 Zn140 2.031 . S
O143 C147 1.269 . S
O144 Zn141 1.986 . S
O144 C151 1.262 . S
O145 Zn140 2.049 . S
O145 C153 1.260 . S
O146 Zn141 1.996 . S
O146 C153 1.257 . S
C147 O142 1.254 . S
C147 O143 1.269 . S
C148 O149 1.249 . S
C148 O150 1.270 . S
O149 Zn141 1.943 . S
O149 C148 1.249 . S
O150 Zn140 2.067 . S
O150 C148 1.270 . S
C151 O144 1.262 . S
C151 O152 1.232 . S
O152 C151 1.232 . S
C153 O145 1.260 . S
C153 O146 1.257 . S
Zn154 O157 2.031 1_554 S
Zn154 O159 2.049 . S
Zn154 O164 2.067 . S
Zn155 O156 1.962 . S
Zn155 O158 1.986 1_556 S
Zn155 O160 1.996 1_556 S
Zn155 O163 1.943 1_556 S
O156 Zn155 1.962 . S
O156 C161 1.254 . S
O157 Zn154 2.031 1_556 S
O157 C161 1.269 . S
O158 Zn155 1.986 1_554 S
O158 C165 1.262 1_554 S
O159 Zn154 2.049 . S
O159 C167 1.260 . S
O160 Zn155 1.996 1_554 S
O160 C167 1.257 . S
C161 O156 1.254 . S
C161 O157 1.269 . S
C162 O163 1.249 . S
C162 O164 1.270 . S
O163 Zn155 1.943 1_554 S
O163 C162 1.249 . S
O164 Zn154 2.067 . S
O164 C162 1.270 . S
C165 O158 1.262 1_556 S
C165 O166 1.232 . S
O166 C165 1.232 . S
C167 O159 1.260 . S
C167 O160 1.257 . S
Zn168 O171 2.031 . S
Zn168 O173 2.049 . S
Zn168 O178 2.067 . S
Zn169 O170 1.962 . S
Zn169 O172 1.986 . S
Zn169 O174 1.996 . S
Zn169 O177 1.943 . S
O170 Zn169 1.962 . S
O170 C175 1.276 . S
O171 Zn168 2.031 . S
O171 C175 1.286 . S
O172 Zn169 1.986 . S
O172 C179 1.262 . S
O173 Zn168 2.049 . S
O173 C181 1.260 . S
O174 Zn169 1.996 . S
O174 C181 1.257 . S
C175 O170 1.276 . S
C175 O171 1.286 . S
C176 O177 1.249 . S
C176 O178 1.270 . S
O177 Zn169 1.943 . S
O177 C176 1.249 . S
O178 Zn168 2.067 . S
O178 C176 1.270 . S
C179 O172 1.262 . S
C179 O180 1.232 . S
O180 C179 1.232 . S
C181 O173 1.260 . S
C181 O174 1.257 . S
Zn182 O185 2.031 . S
Zn182 O187 2.049 . S
Zn182 O192 2.067 . S
Zn183 O184 1.962 . S
Zn183 O186 1.986 . S
Zn183 O188 1.996 . S
Zn183 O191 1.943 . S
O184 Zn183 1.962 . S
O184 C189 1.254 . S
O185 Zn182 2.031 . S
O185 C189 1.269 . S
O186 Zn183 1.986 . S
O186 C193 1.262 . S
O187 Zn182 2.049 . S
O187 C195 1.260 . S
O188 Zn183 1.996 . S
O188 C195 1.257 . S
C189 O184 1.254 . S
C189 O185 1.269 . S
C190 O191 1.249 . S
C190 O192 1.270 . S
O191 Zn183 1.943 . S
O191 C190 1.249 . S
O192 Zn182 2.067 . S
O192 C190 1.270 . S
C193 O186 1.262 . S
C193 O194 1.232 . S
O194 C193 1.232 . S
C195 O187 1.260 . S
C195 O188 1.257 . S
Zn196 O199 2.031 . S
Zn196 O201 2.049 . S
Zn196 O206 2.067 . S
Zn197 O198 1.962 . S
Zn197 O200 1.986 . S
Zn197 O202 1.996 . S
Zn197 O205 1.943 . S
O198 Zn197 1.962 . S
O198 C203 1.254 . S
O199 Zn196 2.031 . S
O199 C203 1.269 . S
O200 Zn197 1.986 . S
O200 C207 1.262 . S
O201 Zn196 2.049 . S
O201 C209 1.260 . S
O202 Zn197 1.996 . S
O202 C209 1.257 . S
C203 O198 1.254 . S
C203 O199 1.269 . S
C204 O205 1.249 . S
C204 O206 1.270 . S
O205 Zn197 1.943 . S
O205 C204 1.249 . S
O206 Zn196 2.067 . S
O206 C204 1.270 . S
C207 O200 1.262 . S
C207 O208 1.232 . S
O208 C207 1.232 . S
C209 O201 1.260 . S
C209 O202 1.257 . S
Zn210 O213 2.031 . S
Zn210 O215 2.049 . S
Zn210 O220 2.067 . S
Zn211 O212 1.962 . S
Zn211 O214 1.986 . S
Zn211 O216 1.996 . S
Zn211 O219 1.943 . S
O212 Zn211 1.962 . S
O212 C217 1.254 . S
O213 Zn210 2.031 . S
O213 C217 1.269 . S
O214 Zn211 1.986 . S
O214 C221 1.262 . S
O215 Zn210 2.049 . S
O215 C223 1.260 . S
O216 Zn211 1.996 . S
O216 C223 1.257 . S
C217 O212 1.254 . S
C217 O213 1.269 . S
C218 O219 1.249 . S
C218 O220 1.270 . S
O219 Zn211 1.943 . S
O219 C218 1.249 . S
O220 Zn210 2.067 . S
O220 C218 1.270 . S
C221 O214 1.262 . S
C221 O222 1.232 . S
O222 C221 1.232 . S
C223 O215 1.260 . S
C223 O216 1.257 . S
Zn224 O227 2.031 . S
Zn224 O229 2.049 . S
Zn224 O234 2.067 . S
Zn225 O226 1.962 . S
Zn225 O228 1.986 . S
Zn225 O230 1.996 . S
Zn225 O233 1.943 1_545 S
O226 Zn225 1.962 . S
O226 C231 1.254 . S
O227 Zn224 2.031 . S
O227 C231 1.269 1_565 S
O228 Zn225 1.986 . S
O228 C235 1.262 . S
O229 Zn224 2.049 . S
O229 C237 1.260 1_565 S
O230 Zn225 1.996 . S
O230 C237 1.257 . S
C231 O226 1.254 . S
C231 O227 1.269 1_545 S
C232 O233 1.249 . S
C232 O234 1.270 . S
O233 Zn225 1.943 1_565 S
O233 C232 1.249 . S
O234 Zn224 2.067 . S
O234 C232 1.270 . S
C235 O228 1.262 . S
C235 O236 1.232 . S
O236 C235 1.232 . S
C237 O229 1.260 1_545 S
C237 O230 1.257 . S
Zn238 O241 2.031 . S
Zn238 O243 2.049 . S
Zn238 O248 2.067 . S
Zn239 O240 1.962 . S
Zn239 O242 1.986 . S
Zn239 O244 1.996 . S
Zn239 O247 1.943 . S
O240 Zn239 1.962 . S
O240 C245 1.254 . S
O241 Zn238 2.031 . S
O241 C245 1.269 . S
O242 Zn239 1.986 . S
O242 C249 1.262 . S
O243 Zn238 2.049 . S
O243 C251 1.260 . S
O244 Zn239 1.996 . S
O244 C251 1.257 . S
C245 O240 1.254 . S
C245 O241 1.269 . S
C246 O247 1.249 . S
C246 O248 1.270 . S
O247 Zn239 1.943 . S
O247 C246 1.249 . S
O248 Zn238 2.067 . S
O248 C246 1.270 . S
C249 O242 1.262 . S
C249 O250 1.232 . S
O250 C249 1.232 . S
C251 O243 1.260 . S
C251 O244 1.257 . S
Zn252 O255 2.031 . S
Zn252 O257 2.049 . S
Zn252 O262 2.067 . S
Zn253 O254 1.962 . S
Zn253 O256 1.986 . S
Zn253 O258 1.996 . S
Zn253 O261 1.943 . S
O254 Zn253 1.962 . S
O254 C259 1.254 . S
O255 Zn252 2.031 . S
O255 C259 1.269 . S
O256 Zn253 1.986 . S
O256 C263 1.262 . S
O257 Zn252 2.049 . S
O257 C265 1.260 . S
O258 Zn253 1.996 . S
O258 C265 1.257 . S
C259 O254 1.254 . S
C259 O255 1.269 . S
C260 O261 1.249 . S
C260 O262 1.270 . S
O261 Zn253 1.943 . S
O261 C260 1.249 . S
O262 Zn252 2.067 . S
O262 C260 1.270 . S
C263 O256 1.262 . S
C263 O264 1.232 . S
O264 C263 1.232 . S
C265 O257 1.260 . S
C265 O258 1.257 . S
Zn266 O269 2.031 . S
Zn266 O271 2.049 . S
Zn266 O276 2.067 . S
Zn267 O268 1.962 . S
Zn267 O270 1.986 . S
Zn267 O272 1.996 . S
Zn267 O275 1.943 . S
O268 Zn267 1.962 . S
O268 C273 1.254 . S
O269 Zn266 2.031 . S
O269 C273 1.269 . S
O270 Zn267 1.986 . S
O270 C277 1.262 . S
O271 Zn266 2.049 . S
O271 C279 1.260 . S
O272 Zn267 1.996 . S
O272 C279 1.257 . S
C273 O268 1.254 . S
C273 O269 1.269 . S
C274 O275 1.249 . S
C274 O276 1.270 . S
O275 Zn267 1.943 . S
O275 C274 1.249 . S
O276 Zn266 2.067 . S
O276 C274 1.270 . S
C277 O270 1.262 . S
C277 O278 1.232 . S
O278 C277 1.232 . S
C279 O271 1.260 . S
C279 O272 1.257 . S
Zn280 O283 2.031 1_554 S
Zn280 O285 2.049 . S
Zn280 O290 2.067 . S
Zn281 O282 1.962 1_554 S
Zn281 O284 1.986 . S
Zn281 O286 1.996 . S
Zn281 O289 1.943 . S
O282 Zn281 1.962 1_556 S
O282 C287 1.254 . S
O283 Zn280 2.031 1_556 S
O283 C287 1.269 . S
O284 Zn281 1.986 . S
O284 C291 1.262 . S
O285 Zn280 2.049 . S
O285 C293 1.260 . S
O286 Zn281 1.996 . S
O286 C293 1.257 . S
C287 O282 1.254 . S
C287 O283 1.269 . S
C288 O289 1.249 . S
C288 O290 1.270 . S
O289 Zn281 1.943 . S
O289 C288 1.249 . S
O290 Zn280 2.067 . S
O290 C288 1.270 . S
C291 O284 1.262 . S
C291 O292 1.232 1_554 S
O292 C291 1.232 1_556 S
C293 O285 1.260 . S
C293 O286 1.257 . S
Zn294 O297 2.031 . S
Zn294 O299 2.049 . S
Zn294 O304 2.067 . S
Zn295 O296 1.962 . S
Zn295 O298 1.986 . S
Zn295 O300 1.996 . S
Zn295 O303 1.943 . S
O296 Zn295 1.962 . S
O296 C301 1.254 . S
O297 Zn294 2.031 . S
O297 C301 1.269 . S
O298 Zn295 1.986 . S
O298 C305 1.262 . S
O299 Zn294 2.049 . S
O299 C307 1.260 . S
O300 Zn295 1.996 . S
O300 C307 1.257 . S
C301 O296 1.254 . S
C301 O297 1.269 . S
C302 O303 1.249 . S
C302 O304 1.270 . S
O303 Zn295 1.943 . S
O303 C302 1.249 . S
O304 Zn294 2.067 . S
O304 C302 1.270 . S
C305 O298 1.262 . S
C305 O306 1.232 . S
O306 C305 1.232 . S
C307 O299 1.260 . S
C307 O300 1.257 . S
Zn308 O311 2.031 . S
Zn308 O313 2.049 . S
Zn308 O318 2.067 . S
Zn309 O310 1.962 . S
Zn309 O312 1.986 . S
Zn309 O314 1.996 . S
Zn309 O317 1.943 . S
O310 Zn309 1.962 . S
O310 C315 1.254 . S
O311 Zn308 2.031 . S
O311 C315 1.269 . S
O312 Zn309 1.986 . S
O312 C319 1.262 . S
O313 Zn308 2.049 . S
O313 C321 1.260 . S
O314 Zn309 1.996 . S
O314 C321 1.257 . S
C315 O310 1.254 . S
C315 O311 1.269 . S
C316 O317 1.249 . S
C316 O318 1.270 . S
O317 Zn309 1.943 . S
O317 C316 1.249 . S
O318 Zn308 2.067 . S
O318 C316 1.270 . S
C319 O312 1.262 . S
C319 O320 1.232 . S
O320 C319 1.232 . S
C321 O313 1.260 . S
C321 O314 1.257 . S
Zn322 O325 2.031 . S
Zn322 O327 2.049 . S
Zn322 O332 2.067 . S
Zn323 O324 1.962 . S
Zn323 O326 1.986 . S
Zn323 O328 1.996 . S
Zn323 O331 1.943 . S
O324 Zn323 1.962 . S
O324 C329 1.254 . S
O325 Zn322 2.031 . S
O325 C329 1.269 . S
O326 Zn323 1.986 . S
O326 C333 1.262 . S
O327 Zn322 2.049 . S
O327 C335 1.260 . S
O328 Zn323 1.996 . S
O328 C335 1.257 . S
C329 O324 1.254 . S
C329 O325 1.269 . S
C330 O331 1.249 . S
C330 O332 1.270 . S
O331 Zn323 1.943 . S
O331 C330 1.249 . S
O332 Zn322 2.067 . S
O332 C330 1.270 . S
C333 O326 1.262 . S
C333 O334 1.232 . S
O334 C333 1.232 . S
C335 O327 1.260 . S
C335 O328 1.257 . S
Eu336 N365 2.600 . S
Eu336 N371 2.562 . S
Eu336 O380 2.462 . S
Eu336 O381 2.373 . S
Eu336 O383 2.432 . S
Eu336 O384 2.291 . S
Eu336 O388 2.335 . S
Eu336 O391 2.372 . S
Eu336 C400 2.787 . S
C337 N338 1.365 . S
C337 C340 1.405 . S
C337 C344 1.448 1_556 S
N338 C337 1.365 . S
N338 C341 1.319 . S
N338 Eu347 2.605 1_566 S
C339 C341 1.397 . S
C339 C342 1.367 . S
C339 H359 0.931 . S
C340 C337 1.405 . S
C340 C342 1.403 . S
C340 C346 1.439 . S
C341 N338 1.319 . S
C341 C339 1.397 . S
C341 H352 0.930 . S
C342 C339 1.367 . S
C342 C340 1.403 . S
C342 H363 0.929 . S
C343 C344 1.430 . S
C343 C345 1.387 1_554 S
C343 C349 1.404 . S
C344 C337 1.448 1_554 S
C344 C343 1.430 . S
C344 N348 1.351 . S
C345 C343 1.387 1_556 S
C345 C346 1.374 . S
C345 H360 0.931 1_556 S
C346 C340 1.439 . S
C346 C345 1.374 . S
C346 H361 0.931 . S
Eu347 N338 2.605 1_544 S
Eu347 N348 2.579 1_545 S
Eu347 O382 2.331 1_655 S
Eu347 O385 2.348 1_654 S
Eu347 O386 2.494 . S
Eu347 O387 2.349 1_645 S
Eu347 O389 2.459 1_554 S
Eu347 O390 2.285 1_655 S
Eu347 C411 2.820 . S
N348 C344 1.351 . S
N348 Eu347 2.579 1_565 S
N348 C350 1.325 . S
C349 C343 1.404 . S
C349 C351 1.366 . S
C349 H357 0.930 . S
C350 N348 1.325 . S
C350 C351 1.416 . S
C350 H356 0.929 . S
C351 C349 1.366 . S
C351 C350 1.416 . S
C351 H353 0.930 . S
H352 C341 0.930 . S
H353 C351 0.930 . S
H354 C369 0.930 . S
H355 C376 0.930 1_556 S
H356 C350 0.929 . S
H357 C349 0.930 . S
H358 C372 0.929 . S
H359 C339 0.931 . S
H360 C345 0.931 1_554 S
H361 C346 0.931 . S
H362 C367 0.931 . S
H363 C342 0.929 . S
H364 C375 0.930 . S
N365 Eu336 2.600 . S
N365 C366 1.365 . S
N365 C369 1.319 . S
C366 N365 1.365 . S
C366 C368 1.405 . S
C366 C374 1.448 . S
C367 H362 0.931 . S
C367 C369 1.397 . S
C367 C370 1.367 . S
C368 C366 1.405 . S
C368 C370 1.403 . S
C368 C401 1.439 . S
C369 H354 0.930 . S
C369 N365 1.319 . S
C369 C367 1.397 . S
C370 C367 1.367 . S
C370 C368 1.403 . S
C370 H377 0.929 . S
N371 Eu336 2.562 . S
N371 C372 1.325 . S
N371 C374 1.351 . S
C372 H358 0.929 . S
C372 N371 1.325 . S
C372 C376 1.416 . S
C373 C374 1.430 . S
C373 C375 1.404 . S
C373 C402 1.387 . S
C374 C366 1.448 . S
C374 N371 1.351 . S
C374 C373 1.430 . S
C375 H364 0.930 . S
C375 C373 1.404 . S
C375 C376 1.366 . S
C376 H355 0.930 1_554 S
C376 C372 1.416 . S
C376 C375 1.366 . S
H377 C370 0.929 . S
H378 C401 0.931 . S
H379 C402 0.931 . S
O380 Eu336 2.462 . S
O380 C400 1.252 . S
O381 Eu336 2.373 . S
O381 C392 1.249 . S
O382 Eu347 2.331 1_455 S
O382 C392 1.264 . S
O383 Eu336 2.432 . S
O383 C400 1.268 . S
O384 Eu336 2.291 . S
O384 C399 1.255 1_554 S
O385 Eu347 2.348 1_456 S
O385 C399 1.257 . S
O386 Eu347 2.494 . S
O386 C411 1.252 . S
O387 Eu347 2.349 1_465 S
O387 C403 1.249 . S
O388 Eu336 2.335 . S
O388 C403 1.264 1_545 S
O389 Eu347 2.459 1_556 S
O389 C411 1.268 1_556 S
O390 Eu347 2.285 1_455 S
O390 C410 1.255 . S
O391 Eu336 2.372 . S
O391 C410 1.257 . S
C392 O381 1.249 . S
C392 O382 1.264 . S
C393 C396 1.382 . S
C393 C398 1.390 . S
C393 C400 1.506 . S
C394 C395 1.398 . S
C394 C398 1.392 . S
C395 C394 1.398 . S
C395 C397 1.372 . S
C395 H412 0.931 . S
C396 C393 1.382 . S
C396 C397 1.390 . S
C396 H413 0.931 . S
C397 C395 1.372 . S
C397 C396 1.390 . S
C397 H414 0.929 . S
C398 C393 1.390 . S
C398 C394 1.392 . S
C398 H415 0.930 . S
C399 O384 1.255 1_556 S
C399 O385 1.257 . S
C400 Eu336 2.787 . S
C400 O380 1.252 . S
C400 O383 1.268 . S
C400 C393 1.506 . S
C401 C368 1.439 . S
C401 H378 0.931 . S
C401 C402 1.374 . S
C402 C373 1.387 . S
C402 H379 0.931 . S
C402 C401 1.374 . S
C403 O387 1.249 . S
C403 O388 1.264 1_565 S
C404 C407 1.382 1_554 S
C404 C408 1.390 . S
C404 C411 1.506 . S
C405 C406 1.398 1_554 S
C405 C408 1.392 . S
C406 C405 1.398 1_556 S
C406 C409 1.372 . S
C406 H416 0.931 . S
C407 C404 1.382 1_556 S
C407 C409 1.390 . S
C407 H417 0.931 . S
C408 C404 1.390 . S
C408 C405 1.392 . S
C408 H418 0.930 . S
C409 C406 1.372 . S
C409 C407 1.390 . S
C409 H419 0.929 . S
C410 O390 1.255 . S
C410 O391 1.257 . S
C411 Eu347 2.820 . S
C411 O386 1.252 . S
C411 O389 1.268 1_554 S
C411 C404 1.506 . S
H412 C395 0.931 . S
H413 C396 0.931 . S
H414 C397 0.929 . S
H415 C398 0.930 . S
H416 C406 0.931 . S
H417 C407 0.931 . S
H418 C408 0.930 . S
H419 C409 0.929 . S
Eu420 N449 2.600 . S
Eu420 N455 2.562 . S
Eu420 O464 2.462 . S
Eu420 O465 2.373 . S
Eu420 O467 2.432 . S
Eu420 O468 2.291 . S
Eu420 O472 2.335 . S
Eu420 O475 2.372 . S
Eu420 C484 2.787 . S
C421 N422 1.365 . S
C421 C424 1.405 . S
C421 C428 1.448 . S
N422 C421 1.365 . S
N422 C425 1.319 . S
N422 Eu431 2.600 . S
C423 C425 1.397 . S
C423 C426 1.367 . S
C423 H443 0.931 . S
C424 C421 1.405 . S
C424 C426 1.403 . S
C424 C430 1.439 . S
C425 N422 1.319 . S
C425 C423 1.397 . S
C425 H436 0.930 . S
C426 C423 1.367 . S
C426 C424 1.403 . S
C426 H447 0.929 . S
C427 C428 1.430 . S
C427 C429 1.387 . S
C427 C433 1.404 . S
C428 C421 1.448 . S
C428 C427 1.430 . S
C428 N432 1.351 . S
C429 C427 1.387 . S
C429 C430 1.374 . S
C429 H444 0.931 . S
C430 C424 1.439 . S
C430 C429 1.374 . S
C430 H445 0.931 . S
Eu431 N422 2.600 . S
Eu431 N432 2.562 . S
Eu431 O466 2.335 . S
Eu431 O469 2.372 . S
Eu431 O470 2.462 . S
Eu431 O471 2.373 . S
Eu431 O473 2.432 . S
Eu431 O474 2.291 . S
Eu431 C495 2.787 . S
N432 C428 1.351 . S
N432 Eu431 2.562 . S
N432 C434 1.325 . S
C433 C427 1.404 . S
C433 C435 1.366 . S
C433 H441 0.930 . S
C434 N432 1.325 . S
C434 C435 1.416 . S
C434 H440 0.929 . S
C435 C433 1.366 . S
C435 C434 1.416 . S
C435 H437 0.930 . S
H436 C425 0.930 . S
H437 C435 0.930 . S
H438 C453 0.930 . S
H439 C460 0.930 . S
H440 C434 0.929 . S
H441 C433 0.930 . S
H442 C456 0.929 . S
H443 C423 0.931 . S
H444 C429 0.931 . S
H445 C430 0.931 . S
H446 C451 0.931 . S
H447 C426 0.929 . S
H448 C459 0.930 . S
N449 Eu420 2.600 . S
N449 C450 1.365 . S
N449 C453 1.319 . S
C450 N449 1.365 . S
C450 C452 1.405 . S
C450 C458 1.448 . S
C451 H446 0.931 . S
C451 C453 1.397 . S
C451 C454 1.367 . S
C452 C450 1.405 . S
C452 C454 1.403 . S
C452 C485 1.439 . S
C453 H438 0.930 . S
C453 N449 1.319 . S
C453 C451 1.397 . S
C454 C451 1.367 . S
C454 C452 1.403 . S
C454 H461 0.929 . S
N455 Eu420 2.562 . S
N455 C456 1.325 . S
N455 C458 1.351 . S
C456 H442 0.929 . S
C456 N455 1.325 . S
C456 C460 1.416 . S
C457 C458 1.430 . S
C457 C459 1.404 . S
C457 C486 1.387 . S
C458 C450 1.448 . S
C458 N455 1.351 . S
C458 C457 1.430 . S
C459 H448 0.930 . S
C459 C457 1.404 . S
C459 C460 1.366 . S
C460 H439 0.930 . S
C460 C456 1.416 . S
C460 C459 1.366 . S
H461 C454 0.929 . S
H462 C485 0.931 . S
H463 C486 0.931 . S
O464 Eu420 2.462 . S
O464 C484 1.252 . S
O465 Eu420 2.373 . S
O465 C476 1.249 . S
O466 Eu431 2.335 . S
O466 C476 1.264 . S
O467 Eu420 2.432 . S
O467 C484 1.268 . S
O468 Eu420 2.291 . S
O468 C483 1.255 . S
O469 Eu431 2.372 . S
O469 C483 1.257 . S
O470 Eu431 2.462 . S
O470 C495 1.252 . S
O471 Eu431 2.373 . S
O471 C487 1.249 . S
O472 Eu420 2.335 . S
O472 C487 1.264 . S
O473 Eu431 2.432 . S
O473 C495 1.268 . S
O474 Eu431 2.291 . S
O474 C494 1.255 . S
O475 Eu420 2.372 . S
O475 C494 1.257 . S
C476 O465 1.249 . S
C476 O466 1.264 . S
C477 C480 1.382 . S
C477 C482 1.390 . S
C477 C484 1.506 . S
C478 C479 1.398 . S
C478 C482 1.392 . S
C479 C478 1.398 . S
C479 C481 1.372 . S
C479 H496 0.931 . S
C480 C477 1.382 . S
C480 C481 1.390 . S
C480 H497 0.931 . S
C481 C479 1.372 . S
C481 C480 1.390 . S
C481 H498 0.929 . S
C482 C477 1.390 . S
C482 C478 1.392 . S
C482 H499 0.930 . S
C483 O468 1.255 . S
C483 O469 1.257 . S
C484 Eu420 2.787 . S
C484 O464 1.252 . S
C484 O467 1.268 . S
C484 C477 1.506 . S
C485 C452 1.439 . S
C485 H462 0.931 . S
C485 C486 1.374 . S
C486 C457 1.387 . S
C486 H463 0.931 . S
C486 C485 1.374 . S
C487 O471 1.249 . S
C487 O472 1.264 . S
C488 C491 1.382 . S
C488 C492 1.390 . S
C488 C495 1.506 . S
C489 C490 1.398 . S
C489 C492 1.392 . S
C490 C489 1.398 . S
C490 C493 1.372 . S
C490 H500 0.931 . S
C491 C488 1.382 . S
C491 C493 1.390 . S
C491 H501 0.931 . S
C492 C488 1.390 . S
C492 C489 1.392 . S
C492 H502 0.930 . S
C493 C490 1.372 . S
C493 C491 1.390 . S
C493 H503 0.929 . S
C494 O474 1.255 . S
C494 O475 1.257 . S
C495 Eu431 2.787 . S
C495 O470 1.252 . S
C495 O473 1.268 . S
C495 C488 1.506 . S
H496 C479 0.931 . S
H497 C480 0.931 . S
H498 C481 0.929 . S
H499 C482 0.930 . S
H500 C490 0.931 . S
H501 C491 0.931 . S
H502 C492 0.930 . S
H503 C493 0.929 . S
Eu504 N533 2.600 1_545 S
Eu504 N539 2.562 1_545 S
Eu504 O548 2.462 . S
Eu504 O549 2.373 1_545 S
Eu504 O551 2.432 . S
Eu504 O552 2.291 . S
Eu504 O556 2.335 . S
Eu504 O559 2.372 . S
Eu504 C568 2.787 . S
C505 N506 1.365 . S
C505 C508 1.405 . S
C505 C512 1.448 . S
N506 C505 1.365 . S
N506 C509 1.319 . S
N506 Eu515 2.600 . S
C507 C509 1.397 . S
C507 C510 1.367 . S
C507 H527 0.931 . S
C508 C505 1.405 . S
C508 C510 1.403 . S
C508 C514 1.439 . S
C509 N506 1.319 . S
C509 C507 1.397 . S
C509 H520 0.930 . S
C510 C507 1.367 . S
C510 C508 1.403 . S
C510 H531 0.929 . S
C511 C512 1.430 . S
C511 C513 1.387 . S
C511 C517 1.404 . S
C512 C505 1.448 . S
C512 C511 1.430 . S
C512 N516 1.351 . S
C513 C511 1.387 . S
C513 C514 1.374 . S
C513 H528 0.931 . S
C514 C508 1.439 . S
C514 C513 1.374 . S
C514 H529 0.931 . S
Eu515 N506 2.600 . S
Eu515 N516 2.562 . S
Eu515 O550 2.335 1_545 S
Eu515 O553 2.372 . S
Eu515 O554 2.462 . S
Eu515 O555 2.373 . S
Eu515 O557 2.432 . S
Eu515 O558 2.291 . S
Eu515 C579 2.787 . S
N516 C512 1.351 . S
N516 Eu515 2.562 . S
N516 C518 1.325 . S
C517 C511 1.404 . S
C517 C519 1.366 . S
C517 H525 0.930 . S
C518 N516 1.325 . S
C518 C519 1.416 . S
C518 H524 0.929 . S
C519 C517 1.366 . S
C519 C518 1.416 . S
C519 H521 0.930 . S
H520 C509 0.930 . S
H521 C519 0.930 . S
H522 C537 0.909 1_545 S
H523 C544 0.930 . S
H524 C518 0.929 . S
H525 C517 0.930 . S
H526 C540 0.929 . S
H527 C507 0.931 . S
H528 C513 0.931 . S
H529 C514 0.931 . S
H530 C535 0.931 . S
H531 C510 0.929 . S
H532 C543 0.930 . S
N533 Eu504 2.600 1_565 S
N533 C534 1.365 . S
N533 C537 1.318 . S
C534 N533 1.365 . S
C534 C536 1.405 . S
C534 C542 1.448 . S
C535 H530 0.931 . S
C535 C537 1.418 . S
C535 C538 1.367 . S
C536 C534 1.405 . S
C536 C538 1.403 . S
C536 C569 1.439 . S
C537 H522 0.909 1_565 S
C537 N533 1.318 . S
C537 C535 1.418 . S
C538 C535 1.367 . S
C538 C536 1.403 . S
C538 H545 0.929 . S
N539 Eu504 2.562 1_565 S
N539 C540 1.325 . S
N539 C542 1.351 . S
C540 H526 0.929 . S
C540 N539 1.325 . S
C540 C544 1.416 . S
C541 C542 1.430 . S
C541 C543 1.404 . S
C541 C570 1.387 . S
C542 C534 1.448 . S
C542 N539 1.351 . S
C542 C541 1.430 . S
C543 H532 0.930 . S
C543 C541 1.404 . S
C543 C544 1.366 . S
C544 H523 0.930 . S
C544 C540 1.416 . S
C544 C543 1.366 . S
H545 C538 0.929 . S
H546 C569 0.931 . S
H547 C570 0.931 . S
O548 Eu504 2.462 . S
O548 C568 1.252 . S
O549 Eu504 2.373 1_565 S
O549 C560 1.249 . S
O550 Eu515 2.335 1_565 S
O550 C560 1.264 . S
O551 Eu504 2.432 . S
O551 C568 1.268 . S
O552 Eu504 2.291 . S
O552 C567 1.255 . S
O553 Eu515 2.372 . S
O553 C567 1.257 . S
O554 Eu515 2.462 . S
O554 C579 1.252 . S
O555 Eu515 2.373 . S
O555 C571 1.249 . S
O556 Eu504 2.335 . S
O556 C571 1.264 . S
O557 Eu515 2.432 . S
O557 C579 1.268 . S
O558 Eu515 2.291 . S
O558 C578 1.255 . S
O559 Eu504 2.372 . S
O559 C578 1.257 . S
C560 O549 1.249 . S
C560 O550 1.264 . S
C561 C564 1.382 . S
C561 C566 1.390 . S
C561 C568 1.506 . S
C562 C563 1.398 . S
C562 C566 1.392 . S
C563 C562 1.398 . S
C563 C565 1.372 . S
C563 H580 0.931 . S
C564 C561 1.382 . S
C564 C565 1.390 . S
C564 H581 0.931 . S
C565 C563 1.372 . S
C565 C564 1.390 . S
C565 H582 0.929 . S
C566 C561 1.390 . S
C566 C562 1.392 . S
C566 H583 0.930 . S
C567 O552 1.255 . S
C567 O553 1.257 . S
C568 Eu504 2.787 . S
C568 O548 1.252 . S
C568 O551 1.268 . S
C568 C561 1.506 . S
C569 C536 1.439 . S
C569 H546 0.931 . S
C569 C570 1.374 . S
C570 C541 1.387 . S
C570 H547 0.931 . S
C570 C569 1.374 . S
C571 O555 1.249 . S
C571 O556 1.264 . S
C572 C575 1.382 . S
C572 C576 1.390 . S
C572 C579 1.506 1_565 S
C573 C574 1.398 . S
C573 C576 1.392 . S
C574 C573 1.398 . S
C574 C577 1.372 . S
C574 H584 0.931 . S
C575 C572 1.382 . S
C575 C577 1.390 . S
C575 H585 0.931 . S
C576 C572 1.390 . S
C576 C573 1.392 . S
C576 H586 0.930 . S
C577 C574 1.372 . S
C577 C575 1.390 . S
C577 H587 0.929 . S
C578 O558 1.255 . S
C578 O559 1.257 . S
C579 Eu515 2.787 . S
C579 O554 1.252 . S
C579 O557 1.268 . S
C579 C572 1.506 1_545 S
H580 C563 0.931 . S
H581 C564 0.931 . S
H582 C565 0.929 . S
H583 C566 0.930 . S
H584 C574 0.931 . S
H585 C575 0.931 . S
H586 C576 0.930 . S
H587 C577 0.929 . S
Eu588 N617 2.600 . S
Eu588 N623 2.562 . S
Eu588 O632 2.462 . S
Eu588 O633 2.373 . S
Eu588 O635 2.432 . S
Eu588 O636 2.291 . S
Eu588 O640 2.335 . S
Eu588 O643 2.372 . S
Eu588 C652 2.787 . S
C589 N590 1.365 . S
C589 C592 1.405 . S
C589 C596 1.448 . S
N590 C589 1.365 . S
N590 C593 1.319 . S
N590 Eu599 2.600 . S
C591 C593 1.397 . S
C591 C594 1.367 . S
C591 H611 0.931 . S
C592 C589 1.405 . S
C592 C594 1.403 . S
C592 C598 1.439 . S
C593 N590 1.319 . S
C593 C591 1.397 . S
C593 H604 0.930 . S
C594 C591 1.367 . S
C594 C592 1.403 . S
C594 H615 0.929 . S
C595 C596 1.430 . S
C595 C597 1.387 . S
C595 C601 1.404 . S
C596 C589 1.448 . S
C596 C595 1.430 . S
C596 N600 1.351 . S
C597 C595 1.387 . S
C597 C598 1.374 . S
C597 H612 0.931 . S
C598 C592 1.439 . S
C598 C597 1.374 . S
C598 H613 0.931 . S
Eu599 N590 2.600 . S
Eu599 N600 2.562 . S
Eu599 O634 2.335 . S
Eu599 O637 2.372 . S
Eu599 O638 2.462 . S
Eu599 O639 2.373 . S
Eu599 O641 2.432 . S
Eu599 O642 2.291 . S
Eu599 C663 2.787 . S
N600 C596 1.351 . S
N600 Eu599 2.562 . S
N600 C602 1.325 . S
C601 C595 1.404 . S
C601 C603 1.366 . S
C601 H609 0.930 . S
C602 N600 1.325 . S
C602 C603 1.416 . S
C602 H608 0.929 . S
C603 C601 1.366 . S
C603 C602 1.416 . S
C603 H605 0.930 . S
H604 C593 0.930 . S
H605 C603 0.930 . S
H606 C621 0.930 . S
H607 C628 0.930 . S
H608 C602 0.929 . S
H609 C601 0.930 . S
H610 C624 0.929 . S
H611 C591 0.931 . S
H612 C597 0.931 . S
H613 C598 0.931 . S
H614 C619 0.931 . S
H615 C594 0.929 . S
H616 C627 0.930 . S
N617 Eu588 2.600 . S
N617 C618 1.365 . S
N617 C621 1.319 . S
C618 N617 1.365 . S
C618 C620 1.405 . S
C618 C626 1.448 . S
C619 H614 0.931 . S
C619 C621 1.397 . S
C619 C622 1.367 . S
C620 C618 1.405 . S
C620 C622 1.403 . S
C620 C653 1.439 . S
C621 H606 0.930 . S
C621 N617 1.319 . S
C621 C619 1.397 . S
C622 C619 1.367 . S
C622 C620 1.403 . S
C622 H629 0.929 . S
N623 Eu588 2.562 . S
N623 C624 1.325 . S
N623 C626 1.351 . S
C624 H610 0.929 . S
C624 N623 1.325 . S
C624 C628 1.416 . S
C625 C626 1.430 . S
C625 C627 1.404 . S
C625 C654 1.387 . S
C626 C618 1.448 . S
C626 N623 1.351 . S
C626 C625 1.430 . S
C627 H616 0.930 . S
C627 C625 1.404 . S
C627 C628 1.366 . S
C628 H607 0.930 . S
C628 C624 1.416 . S
C628 C627 1.366 . S
H629 C622 0.929 . S
H630 C653 0.931 . S
H631 C654 0.931 . S
O632 Eu588 2.462 . S
O632 C652 1.252 . S
O633 Eu588 2.373 . S
O633 C644 1.249 . S
O634 Eu599 2.335 . S
O634 C644 1.264 . S
O635 Eu588 2.432 . S
O635 C652 1.268 . S
O636 Eu588 2.291 . S
O636 C651 1.255 . S
O637 Eu599 2.372 . S
O637 C651 1.257 . S
O638 Eu599 2.462 . S
O638 C663 1.252 . S
O639 Eu599 2.373 . S
O639 C655 1.249 . S
O640 Eu588 2.335 . S
O640 C655 1.264 . S
O641 Eu599 2.432 . S
O641 C663 1.268 . S
O642 Eu599 2.291 . S
O642 C662 1.255 . S
O643 Eu588 2.372 . S
O643 C662 1.257 . S
C644 O633 1.249 . S
C644 O634 1.264 . S
C645 C648 1.382 . S
C645 C650 1.390 . S
C645 C652 1.506 . S
C646 C647 1.398 . S
C646 C650 1.392 . S
C647 C646 1.398 . S
C647 C649 1.372 . S
C647 H664 0.931 . S
C648 C645 1.382 . S
C648 C649 1.390 . S
C648 H665 0.931 . S
C649 C647 1.372 . S
C649 C648 1.390 . S
C649 H666 0.929 . S
C650 C645 1.390 . S
C650 C646 1.392 . S
C650 H667 0.930 . S
C651 O636 1.255 . S
C651 O637 1.257 . S
C652 Eu588 2.787 . S
C652 O632 1.252 . S
C652 O635 1.268 . S
C652 C645 1.506 . S
C653 C620 1.439 . S
C653 H630 0.931 . S
C653 C654 1.374 . S
C654 C625 1.387 . S
C654 H631 0.931 . S
C654 C653 1.374 . S
C655 O639 1.249 . S
C655 O640 1.264 . S
C656 C659 1.382 . S
C656 C660 1.390 . S
C656 C663 1.506 . S
C657 C658 1.398 . S
C657 C660 1.392 . S
C658 C657 1.398 . S
C658 C661 1.372 . S
C658 H668 0.931 . S
C659 C656 1.382 . S
C659 C661 1.390 . S
C659 H669 0.931 . S
C660 C656 1.390 . S
C660 C657 1.392 . S
C660 H670 0.930 . S
C661 C658 1.372 . S
C661 C659 1.390 . S
C661 H671 0.929 . S
C662 O642 1.255 . S
C662 O643 1.257 . S
C663 Eu599 2.787 . S
C663 O638 1.252 . S
C663 O641 1.268 . S
C663 C656 1.506 . S
H664 C647 0.931 . S
H665 C648 0.931 . S
H666 C649 0.929 . S
H667 C650 0.930 . S
H668 C658 0.931 . S
H669 C659 0.931 . S
H670 C660 0.930 . S
H671 C661 0.929 . S
Eu672 N701 2.600 . S
Eu672 N707 2.562 . S
Eu672 O716 2.462 . S
Eu672 O717 2.373 1_565 S
Eu672 O719 2.432 . S
Eu672 O720 2.275 1_565 S
Eu672 O724 2.335 1_565 S
Eu672 O727 2.372 1_565 S
Eu672 C736 2.787 . S
C673 N674 1.365 1_455 S
C673 C676 1.405 1_455 S
C673 C680 1.448 . S
N674 C673 1.365 1_655 S
N674 C677 1.319 . S
N674 Eu683 2.600 1_655 S
C675 C677 1.397 . S
C675 C678 1.367 . S
C675 H695 0.931 . S
C676 C673 1.405 1_655 S
C676 C678 1.403 . S
C676 C682 1.439 1_655 S
C677 N674 1.319 . S
C677 C675 1.397 . S
C677 H688 0.930 . S
C678 C675 1.367 . S
C678 C676 1.403 . S
C678 H699 0.929 . S
C679 C680 1.430 . S
C679 C681 1.387 . S
C679 C685 1.404 . S
C680 C673 1.448 . S
C680 C679 1.430 . S
C680 N684 1.351 . S
C681 C679 1.387 . S
C681 C682 1.374 . S
C681 H696 0.931 . S
C682 C676 1.439 1_455 S
C682 C681 1.374 . S
C682 H697 0.931 . S
Eu683 N674 2.600 1_455 S
Eu683 N684 2.562 . S
Eu683 O718 2.335 . S
Eu683 O721 2.372 1_455 S
Eu683 O722 2.462 . S
Eu683 O723 2.373 . S
Eu683 O725 2.432 1_455 S
Eu683 O726 2.291 . S
Eu683 C747 2.787 . S
N684 C680 1.351 . S
N684 Eu683 2.562 . S
N684 C686 1.325 . S
C685 C679 1.404 . S
C685 C687 1.366 . S
C685 H693 0.930 . S
C686 N684 1.325 . S
C686 C687 1.416 . S
C686 H692 0.929 . S
C687 C685 1.366 . S
C687 C686 1.416 . S
C687 H689 0.930 . S
H688 C677 0.930 . S
H689 C687 0.930 . S
H690 C705 0.930 1_545 S
H691 C712 0.930 . S
H692 C686 0.929 . S
H693 C685 0.930 . S
H694 C708 0.929 . S
H695 C675 0.931 . S
H696 C681 0.931 . S
H697 C682 0.931 . S
H698 C703 0.931 . S
H699 C678 0.929 . S
H700 C711 0.930 . S
N701 Eu672 2.600 . S
N701 C702 1.365 . S
N701 C705 1.319 . S
C702 N701 1.365 . S
C702 C704 1.405 . S
C702 C710 1.448 . S
C703 H698 0.931 . S
C703 C705 1.397 . S
C703 C706 1.367 . S
C704 C702 1.405 . S
C704 C706 1.403 . S
C704 C737 1.439 . S
C705 H690 0.930 1_565 S
C705 N701 1.319 . S
C705 C703 1.397 . S
C706 C703 1.367 . S
C706 C704 1.403 . S
C706 H713 0.929 . S
N707 Eu672 2.562 . S
N707 C708 1.325 1_455 S
N707 C710 1.351 . S
C708 H694 0.929 . S
C708 N707 1.325 1_655 S
C708 C712 1.416 . S
C709 C710 1.430 . S
C709 C711 1.404 1_455 S
C709 C738 1.387 . S
C710 C702 1.448 . S
C710 N707 1.351 . S
C710 C709 1.430 . S
C711 H700 0.930 . S
C711 C709 1.404 1_655 S
C711 C712 1.366 . S
C712 H691 0.930 . S
C712 C708 1.416 . S
C712 C711 1.366 . S
H713 C706 0.929 . S
H714 C737 0.931 . S
H715 C738 0.931 . S
O716 Eu672 2.462 . S
O716 C736 1.252 . S
O717 Eu672 2.373 1_545 S
O717 C728 1.249 . S
O718 Eu683 2.335 . S
O718 C728 1.264 . S
O719 Eu672 2.432 . S
O719 C736 1.268 . S
O720 Eu672 2.275 1_545 S
O720 C735 1.283 1_455 S
O721 Eu683 2.372 1_655 S
O721 C735 1.257 . S
O722 Eu683 2.462 . S
O722 C747 1.252 . S
O723 Eu683 2.373 . S
O723 C739 1.249 . S
O724 Eu672 2.335 1_545 S
O724 C739 1.264 . S
O725 Eu683 2.432 1_655 S
O725 C747 1.268 1_655 S
O726 Eu683 2.291 . S
O726 C746 1.255 . S
O727 Eu672 2.372 1_545 S
O727 C746 1.257 . S
C728 O717 1.249 . S
C728 O718 1.264 . S
C729 C732 1.382 . S
C729 C734 1.390 . S
C729 C736 1.506 . S
C730 C731 1.398 . S
C730 C734 1.392 . S
C731 C730 1.398 . S
C731 C733 1.372 . S
C731 H748 0.931 . S
C732 C729 1.382 . S
C732 C733 1.390 . S
C732 H749 0.931 . S
C733 C731 1.372 . S
C733 C732 1.390 . S
C733 H750 0.929 . S
C734 C729 1.390 . S
C734 C730 1.392 . S
C734 H751 0.930 . S
C735 O720 1.283 1_655 S
C735 O721 1.257 . S
C736 Eu672 2.787 . S
C736 O716 1.252 . S
C736 O719 1.268 . S
C736 C729 1.506 . S
C737 C704 1.439 . S
C737 H714 0.931 . S
C737 C738 1.374 . S
C738 C709 1.387 . S
C738 H715 0.931 . S
C738 C737 1.374 . S
C739 O723 1.249 . S
C739 O724 1.264 . S
C740 C743 1.382 1_455 S
C740 C744 1.390 . S
C740 C747 1.506 . S
C741 C742 1.398 . S
C741 C744 1.392 . S
C742 C741 1.398 . S
C742 C745 1.372 1_455 S
C742 H752 0.920 1_455 S
C743 C740 1.382 1_655 S
C743 C745 1.390 . S
C743 H753 0.931 . S
C744 C740 1.390 . S
C744 C741 1.392 . S
C744 H754 0.930 . S
C745 C742 1.372 1_655 S
C745 C743 1.390 . S
C745 H755 0.929 . S
C746 O726 1.255 . S
C746 O727 1.257 . S
C747 Eu683 2.787 . S
C747 O722 1.252 . S
C747 O725 1.268 1_455 S
C747 C740 1.506 . S
H748 C731 0.931 . S
H749 C732 0.931 . S
H750 C733 0.929 . S
H751 C734 0.930 . S
H752 C742 0.920 1_655 S
H753 C743 0.931 . S
H754 C744 0.930 . S
H755 C745 0.929 . S
Eu756 N785 2.600 . S
Eu756 N791 2.562 . S
Eu756 O800 2.462 . S
Eu756 O801 2.373 . S
Eu756 O803 2.432 . S
Eu756 O804 2.291 . S
Eu756 O808 2.335 . S
Eu756 O811 2.372 . S
Eu756 C820 2.787 . S
C757 N758 1.365 . S
C757 C760 1.405 . S
C757 C764 1.448 . S
N758 C757 1.365 . S
N758 C761 1.319 . S
N758 Eu767 2.600 . S
C759 C761 1.397 . S
C759 C762 1.367 . S
C759 H779 0.931 . S
C760 C757 1.405 . S
C760 C762 1.403 . S
C760 C766 1.439 . S
C761 N758 1.319 . S
C761 C759 1.397 . S
C761 H772 0.930 . S
C762 C759 1.367 . S
C762 C760 1.403 . S
C762 H783 0.929 . S
C763 C764 1.430 . S
C763 C765 1.387 . S
C763 C769 1.404 . S
C764 C757 1.448 . S
C764 C763 1.430 . S
C764 N768 1.351 . S
C765 C763 1.387 . S
C765 C766 1.374 . S
C765 H780 0.931 . S
C766 C760 1.439 . S
C766 C765 1.374 . S
C766 H781 0.931 . S
Eu767 N758 2.600 . S
Eu767 N768 2.562 . S
Eu767 O802 2.335 . S
Eu767 O805 2.372 . S
Eu767 O806 2.462 . S
Eu767 O807 2.373 . S
Eu767 O809 2.432 . S
Eu767 O810 2.291 . S
Eu767 C831 2.787 . S
N768 C764 1.351 . S
N768 Eu767 2.562 . S
N768 C770 1.325 . S
C769 C763 1.404 . S
C769 C771 1.366 . S
C769 H777 0.930 . S
C770 N768 1.325 . S
C770 C771 1.416 . S
C770 H776 0.929 . S
C771 C769 1.366 . S
C771 C770 1.416 . S
C771 H773 0.930 . S
H772 C761 0.930 . S
H773 C771 0.930 . S
H774 C789 0.930 . S
H775 C796 0.930 . S
H776 C770 0.929 . S
H777 C769 0.930 . S
H778 C792 0.929 . S
H779 C759 0.931 . S
H780 C765 0.931 . S
H781 C766 0.931 . S
H782 C787 0.931 . S
H783 C762 0.929 . S
H784 C795 0.930 . S
N785 Eu756 2.600 . S
N785 C786 1.365 . S
N785 C789 1.319 . S
C786 N785 1.365 . S
C786 C788 1.405 . S
C786 C794 1.448 . S
C787 H782 0.931 . S
C787 C789 1.397 . S
C787 C790 1.367 . S
C788 C786 1.405 . S
C788 C790 1.403 . S
C788 C821 1.439 . S
C789 H774 0.930 . S
C789 N785 1.319 . S
C789 C787 1.397 . S
C790 C787 1.367 . S
C790 C788 1.403 . S
C790 H797 0.929 . S
N791 Eu756 2.562 . S
N791 C792 1.325 . S
N791 C794 1.351 . S
C792 H778 0.929 . S
C792 N791 1.325 . S
C792 C796 1.416 . S
C793 C794 1.430 . S
C793 C795 1.404 . S
C793 C822 1.387 . S
C794 C786 1.448 . S
C794 N791 1.351 . S
C794 C793 1.430 . S
C795 H784 0.930 . S
C795 C793 1.404 . S
C795 C796 1.366 . S
C796 H775 0.930 . S
C796 C792 1.416 . S
C796 C795 1.366 . S
H797 C790 0.929 . S
H798 C821 0.931 . S
H799 C822 0.931 . S
O800 Eu756 2.462 . S
O800 C820 1.252 . S
O801 Eu756 2.373 . S
O801 C812 1.249 . S
O802 Eu767 2.335 . S
O802 C812 1.264 . S
O803 Eu756 2.432 . S
O803 C820 1.268 . S
O804 Eu756 2.291 . S
O804 C819 1.255 . S
O805 Eu767 2.372 . S
O805 C819 1.257 . S
O806 Eu767 2.462 . S
O806 C831 1.252 . S
O807 Eu767 2.373 . S
O807 C823 1.249 . S
O808 Eu756 2.335 . S
O808 C823 1.264 . S
O809 Eu767 2.432 . S
O809 C831 1.268 . S
O810 Eu767 2.291 . S
O810 C830 1.255 . S
O811 Eu756 2.372 . S
O811 C830 1.257 . S
C812 O801 1.249 . S
C812 O802 1.264 . S
C813 C816 1.382 . S
C813 C818 1.390 . S
C813 C820 1.506 . S
C814 C815 1.398 . S
C814 C818 1.392 . S
C815 C814 1.398 . S
C815 C817 1.372 . S
C815 H832 0.931 . S
C816 C813 1.382 . S
C816 C817 1.390 . S
C816 H833 0.931 . S
C817 C815 1.372 . S
C817 C816 1.390 . S
C817 H834 0.929 . S
C818 C813 1.390 . S
C818 C814 1.392 . S
C818 H835 0.930 . S
C819 O804 1.255 . S
C819 O805 1.257 . S
C820 Eu756 2.787 . S
C820 O800 1.252 . S
C820 O803 1.268 . S
C820 C813 1.506 . S
C821 C788 1.439 . S
C821 H798 0.931 . S
C821 C822 1.374 . S
C822 C793 1.387 . S
C822 H799 0.931 . S
C822 C821 1.374 . S
C823 O807 1.249 . S
C823 O808 1.264 . S
C824 C827 1.382 . S
C824 C828 1.390 . S
C824 C831 1.506 . S
C825 C826 1.398 . S
C825 C828 1.392 . S
C826 C825 1.398 . S
C826 C829 1.372 . S
C826 H836 0.931 . S
C827 C824 1.382 . S
C827 C829 1.390 . S
C827 H837 0.931 . S
C828 C824 1.390 . S
C828 C825 1.392 . S
C828 H838 0.930 . S
C829 C826 1.372 . S
C829 C827 1.390 . S
C829 H839 0.929 . S
C830 O810 1.255 . S
C830 O811 1.257 . S
C831 Eu767 2.787 . S
C831 O806 1.252 . S
C831 O809 1.268 . S
C831 C824 1.506 . S
H832 C815 0.931 . S
H833 C816 0.931 . S
H834 C817 0.929 . S
H835 C818 0.930 . S
H836 C826 0.931 . S
H837 C827 0.931 . S
H838 C828 0.930 . S
H839 C829 0.929 . S
Eu840 N869 2.600 . S
Eu840 N875 2.562 . S
Eu840 O884 2.462 . S
Eu840 O885 2.373 1_556 S
Eu840 O887 2.432 . S
Eu840 O888 2.291 . S
Eu840 O892 2.335 1_556 S
Eu840 O895 2.372 1_556 S
Eu840 C904 2.787 . S
C841 N842 1.365 1_545 S
C841 C844 1.405 1_545 S
C841 C848 1.448 . S
N842 C841 1.365 1_565 S
N842 C845 1.319 . S
N842 Eu851 2.600 1_565 S
C843 C845 1.397 . S
C843 C846 1.367 . S
C843 H863 0.931 . S
C844 C841 1.405 1_565 S
C844 C846 1.403 . S
C844 C850 1.439 1_565 S
C845 N842 1.319 . S
C845 C843 1.397 . S
C845 H856 0.930 . S
C846 C843 1.367 . S
C846 C844 1.403 . S
C846 H867 0.929 . S
C847 C848 1.430 . S
C847 C849 1.387 . S
C847 C853 1.404 . S
C848 C841 1.448 . S
C848 C847 1.430 . S
C848 N852 1.351 . S
C849 C847 1.387 . S
C849 C850 1.374 . S
C849 H864 0.931 . S
C850 C844 1.439 1_545 S
C850 C849 1.374 . S
C850 H865 0.931 1_545 S
Eu851 N842 2.600 1_545 S
Eu851 N852 2.562 . S
Eu851 O886 2.335 . S
Eu851 O889 2.372 1_545 S
Eu851 O890 2.462 . S
Eu851 O891 2.373 . S
Eu851 O893 2.432 1_545 S
Eu851 O894 2.291 . S
Eu851 C915 2.787 . S
N852 C848 1.351 . S
N852 Eu851 2.562 . S
N852 C854 1.325 . S
C853 C847 1.404 . S
C853 C855 1.366 . S
C853 H861 0.930 . S
C854 N852 1.325 . S
C854 C855 1.416 . S
C854 H860 0.929 . S
C855 C853 1.366 . S
C855 C854 1.416 . S
C855 H857 0.930 . S
H856 C845 0.930 . S
H857 C855 0.930 . S
H858 C873 0.934 . S
H859 C880 0.930 . S
H860 C854 0.929 . S
H861 C853 0.930 . S
H862 C876 0.929 . S
H863 C843 0.931 . S
H864 C849 0.931 . S
H865 C850 0.931 1_565 S
H866 C871 0.931 . S
H867 C846 0.929 . S
H868 C879 0.943 . S
N869 Eu840 2.600 . S
N869 C870 1.365 . S
N869 C873 1.319 . S
C870 N869 1.365 . S
C870 C872 1.405 . S
C870 C878 1.448 . S
C871 H866 0.931 . S
C871 C873 1.397 . S
C871 C874 1.367 . S
C872 C870 1.405 . S
C872 C874 1.403 . S
C872 C905 1.439 . S
C873 H858 0.934 . S
C873 N869 1.319 . S
C873 C871 1.397 . S
C874 C871 1.367 . S
C874 C872 1.403 . S
C874 H881 0.929 . S
N875 Eu840 2.562 . S
N875 C876 1.325 . S
N875 C878 1.351 . S
C876 H862 0.929 . S
C876 N875 1.325 . S
C876 C880 1.416 1_545 S
C877 C878 1.430 . S
C877 C879 1.404 . S
C877 C906 1.387 . S
C878 C870 1.448 . S
C878 N875 1.351 . S
C878 C877 1.430 . S
C879 H868 0.943 . S
C879 C877 1.404 . S
C879 C880 1.366 1_545 S
C880 H859 0.930 . S
C880 C876 1.416 1_565 S
C880 C879 1.366 1_565 S
H881 C874 0.929 . S
H882 C905 0.931 . S
H883 C906 0.931 . S
O884 Eu840 2.462 . S
O884 C904 1.252 . S
O885 Eu840 2.373 1_554 S
O885 C896 1.249 . S
O886 Eu851 2.335 . S
O886 C896 1.264 . S
O887 Eu840 2.432 . S
O887 C904 1.268 . S
O888 Eu840 2.291 . S
O888 C903 1.255 1_546 S
O889 Eu851 2.372 1_565 S
O889 C903 1.257 . S
O890 Eu851 2.462 . S
O890 C915 1.252 . S
O891 Eu851 2.373 . S
O891 C907 1.249 . S
O892 Eu840 2.335 1_554 S
O892 C907 1.264 . S
O893 Eu851 2.432 1_565 S
O893 C915 1.268 1_565 S
O894 Eu851 2.291 . S
O894 C914 1.255 . S
O895 Eu840 2.372 1_554 S
O895 C914 1.257 . S
C896 O885 1.249 . S
C896 O886 1.264 . S
C897 C900 1.382 . S
C897 C902 1.390 . S
C897 C904 1.506 . S
C898 C899 1.398 . S
C898 C902 1.392 . S
C899 C898 1.398 . S
C899 C901 1.372 . S
C899 H916 0.931 . S
C900 C897 1.382 . S
C900 C901 1.390 . S
C900 H917 0.931 . S
C901 C899 1.372 . S
C901 C900 1.390 . S
C901 H918 0.929 . S
C902 C897 1.390 . S
C902 C898 1.392 . S
C902 H919 0.930 . S
C903 O888 1.255 1_564 S
C903 O889 1.257 . S
C904 Eu840 2.787 . S
C904 O884 1.252 . S
C904 O887 1.268 . S
C904 C897 1.506 . S
C905 C872 1.439 . S
C905 H882 0.931 . S
C905 C906 1.374 . S
C906 C877 1.387 . S
C906 H883 0.931 . S
C906 C905 1.374 . S
C907 O891 1.249 . S
C907 O892 1.264 . S
C908 C911 1.382 . S
C908 C912 1.390 1_565 S
C908 C915 1.506 1_565 S
C909 C910 1.398 1_545 S
C909 C912 1.392 . S
C910 C909 1.398 1_565 S
C910 C913 1.372 . S
C910 H920 0.931 . S
C911 C908 1.382 . S
C911 C913 1.390 . S
C911 H921 0.931 . S
C912 C908 1.390 1_545 S
C912 C909 1.392 . S
C912 H922 0.930 . S
C913 C910 1.372 . S
C913 C911 1.390 . S
C913 H923 0.929 . S
C914 O894 1.255 . S
C914 O895 1.257 . S
C915 Eu851 2.787 . S
C915 O890 1.252 . S
C915 O893 1.268 1_545 S
C915 C908 1.506 1_545 S
H916 C899 0.931 . S
H917 C900 0.931 . S
H918 C901 0.929 . S
H919 C902 0.930 . S
H920 C910 0.931 . S
H921 C911 0.931 . S
H922 C912 0.930 . S
H923 C913 0.929 . S
Eu924 N953 2.600 . S
Eu924 N959 2.562 . S
Eu924 O968 2.462 . S
Eu924 O969 2.373 . S
Eu924 O971 2.432 . S
Eu924 O972 2.291 . S
Eu924 O976 2.335 . S
Eu924 O979 2.372 . S
Eu924 C988 2.787 . S
C925 N926 1.365 . S
C925 C928 1.405 . S
C925 C932 1.448 . S
N926 C925 1.365 . S
N926 C929 1.319 . S
N926 Eu935 2.600 . S
C927 C929 1.397 . S
C927 C930 1.367 . S
C927 H947 0.931 . S
C928 C925 1.405 . S
C928 C930 1.403 . S
C928 C934 1.439 . S
C929 N926 1.319 . S
C929 C927 1.397 . S
C929 H940 0.930 . S
C930 C927 1.367 . S
C930 C928 1.403 . S
C930 H951 0.929 . S
C931 C932 1.430 . S
C931 C933 1.387 . S
C931 C937 1.404 . S
C932 C925 1.448 . S
C932 C931 1.430 . S
C932 N936 1.351 . S
C933 C931 1.387 . S
C933 C934 1.374 . S
C933 H948 0.931 . S
C934 C928 1.439 . S
C934 C933 1.374 . S
C934 H949 0.931 . S
Eu935 N926 2.600 . S
Eu935 N936 2.562 . S
Eu935 O970 2.335 . S
Eu935 O973 2.372 . S
Eu935 O974 2.462 . S
Eu935 O975 2.373 . S
Eu935 O977 2.432 . S
Eu935 O978 2.291 . S
Eu935 C999 2.787 . S
N936 C932 1.351 . S
N936 Eu935 2.562 . S
N936 C938 1.325 . S
C937 C931 1.404 . S
C937 C939 1.366 . S
C937 H945 0.930 . S
C938 N936 1.325 . S
C938 C939 1.416 . S
C938 H944 0.929 . S
C939 C937 1.366 . S
C939 C938 1.416 . S
C939 H941 0.930 . S
H940 C929 0.930 . S
H941 C939 0.930 . S
H942 C957 0.930 . S
H943 C964 0.930 . S
H944 C938 0.929 . S
H945 C937 0.930 . S
H946 C960 0.929 . S
H947 C927 0.931 . S
H948 C933 0.931 . S
H949 C934 0.931 . S
H950 C955 0.931 . S
H951 C930 0.929 . S
H952 C963 0.930 . S
N953 Eu924 2.600 . S
N953 C954 1.365 . S
N953 C957 1.319 . S
C954 N953 1.365 . S
C954 C956 1.405 . S
C954 C962 1.448 . S
C955 H950 0.931 . S
C955 C957 1.397 . S
C955 C958 1.367 . S
C956 C954 1.405 . S
C956 C958 1.403 . S
C956 C989 1.439 . S
C957 H942 0.930 . S
C957 N953 1.319 . S
C957 C955 1.397 . S
C958 C955 1.367 . S
C958 C956 1.403 . S
C958 H965 0.929 . S
N959 Eu924 2.562 . S
N959 C960 1.325 . S
N959 C962 1.351 . S
C960 H946 0.929 . S
C960 N959 1.325 . S
C960 C964 1.416 . S
C961 C962 1.430 . S
C961 C963 1.404 . S
C961 C990 1.387 . S
C962 C954 1.448 . S
C962 N959 1.351 . S
C962 C961 1.430 . S
C963 H952 0.930 . S
C963 C961 1.404 . S
C963 C964 1.366 . S
C964 H943 0.930 . S
C964 C960 1.416 . S
C964 C963 1.366 . S
H965 C958 0.929 . S
H966 C989 0.931 . S
H967 C990 0.931 . S
O968 Eu924 2.462 . S
O968 C988 1.252 . S
O969 Eu924 2.373 . S
O969 C980 1.249 . S
O970 Eu935 2.335 . S
O970 C980 1.264 . S
O971 Eu924 2.432 . S
O971 C988 1.268 . S
O972 Eu924 2.291 . S
O972 C987 1.255 . S
O973 Eu935 2.372 . S
O973 C987 1.257 . S
O974 Eu935 2.462 . S
O974 C999 1.252 . S
O975 Eu935 2.373 . S
O975 C991 1.249 . S
O976 Eu924 2.335 . S
O976 C991 1.264 . S
O977 Eu935 2.432 . S
O977 C999 1.268 . S
O978 Eu935 2.291 . S
O978 C998 1.255 . S
O979 Eu924 2.372 . S
O979 C998 1.257 . S
C980 O969 1.249 . S
C980 O970 1.264 . S
C981 C984 1.382 . S
C981 C986 1.390 . S
C981 C988 1.506 . S
C982 C983 1.398 . S
C982 C986 1.392 . S
C983 C982 1.398 . S
C983 C985 1.372 . S
C983 H1000 0.931 . S
C984 C981 1.382 . S
C984 C985 1.390 . S
C984 H1001 0.931 . S
C985 C983 1.372 . S
C985 C984 1.390 . S
C985 H1002 0.929 . S
C986 C981 1.390 . S
C986 C982 1.392 . S
C986 H1003 0.930 . S
C987 O972 1.255 . S
C987 O973 1.257 . S
C988 Eu924 2.787 . S
C988 O968 1.252 . S
C988 O971 1.268 . S
C988 C981 1.506 . S
C989 C956 1.439 . S
C989 H966 0.931 . S
C989 C990 1.374 . S
C990 C961 1.387 . S
C990 H967 0.931 . S
C990 C989 1.374 . S
C991 O975 1.249 . S
C991 O976 1.264 . S
C992 C995 1.382 . S
C992 C996 1.390 . S
C992 C999 1.506 . S
C993 C994 1.398 . S
C993 C996 1.392 . S
C994 C993 1.398 . S
C994 C997 1.372 . S
C994 H1004 0.931 . S
C995 C992 1.382 . S
C995 C997 1.390 . S
C995 H1005 0.931 . S
C996 C992 1.390 . S
C996 C993 1.392 . S
C996 H1006 0.930 . S
C997 C994 1.372 . S
C997 C995 1.390 . S
C997 H1007 0.929 . S
C998 O978 1.255 . S
C998 O979 1.257 . S
C999 Eu935 2.787 . S
C999 O974 1.252 . S
C999 O977 1.268 . S
C999 C992 1.506 . S
H1000 C983 0.931 . S
H1001 C984 0.931 . S
H1002 C985 0.929 . S
H1003 C986 0.930 . S
H1004 C994 0.931 . S
H1005 C995 0.931 . S
H1006 C996 0.930 . S
H1007 C997 0.929 . S
Eu1008 N1037 2.600 1_554 S
Eu1008 N1043 2.562 1_554 S
Eu1008 O1052 2.462 . S
Eu1008 O1053 2.373 1_554 S
Eu1008 O1055 2.432 . S
Eu1008 O1056 2.291 . S
Eu1008 O1060 2.335 . S
Eu1008 O1063 2.372 . S
Eu1008 C1072 2.787 . S
C1009 N1010 1.365 . S
C1009 C1012 1.405 . S
C1009 C1016 1.448 . S
N1010 C1009 1.365 . S
N1010 C1013 1.319 . S
N1010 Eu1019 2.600 . S
C1011 C1013 1.397 . S
C1011 C1014 1.367 . S
C1011 H1031 0.931 . S
C1012 C1009 1.405 . S
C1012 C1014 1.403 . S
C1012 C1018 1.439 . S
C1013 N1010 1.319 . S
C1013 C1011 1.397 . S
C1013 H1024 0.930 . S
C1014 C1011 1.367 . S
C1014 C1012 1.403 . S
C1014 H1035 0.929 . S
C1015 C1016 1.430 . S
C1015 C1017 1.387 . S
C1015 C1021 1.404 . S
C1016 C1009 1.448 . S
C1016 C1015 1.430 . S
C1016 N1020 1.351 . S
C1017 C1015 1.387 . S
C1017 C1018 1.374 . S
C1017 H1032 0.931 . S
C1018 C1012 1.439 . S
C1018 C1017 1.374 . S
C1018 H1033 0.931 . S
Eu1019 N1010 2.600 . S
Eu1019 N1020 2.562 . S
Eu1019 O1054 2.335 1_554 S
Eu1019 O1057 2.372 . S
Eu1019 O1058 2.462 . S
Eu1019 O1059 2.373 . S
Eu1019 O1061 2.432 . S
Eu1019 O1062 2.291 . S
Eu1019 C1083 2.787 . S
N1020 C1016 1.351 . S
N1020 Eu1019 2.562 . S
N1020 C1022 1.325 . S
C1021 C1015 1.404 . S
C1021 C1023 1.366 . S
C1021 H1029 0.930 . S
C1022 N1020 1.325 . S
C1022 C1023 1.416 . S
C1022 H1028 0.929 . S
C1023 C1021 1.366 . S
C1023 C1022 1.416 . S
C1023 H1025 0.930 . S
H1024 C1013 0.930 . S
H1025 C1023 0.930 . S
H1026 C1041 0.904 1_554 S
H1027 C1048 0.930 . S
H1028 C1022 0.929 . S
H1029 C1021 0.930 . S
H1030 C1044 0.929 . S
H1031 C1011 0.931 . S
H1032 C1017 0.931 . S
H1033 C1018 0.931 . S
H1034 C1039 0.931 . S
H1035 C1014 0.929 . S
H1036 C1047 0.930 . S
N1037 Eu1008 2.600 1_556 S
N1037 C1038 1.365 . S
N1037 C1041 1.319 . S
C1038 N1037 1.365 . S
C1038 C1040 1.405 . S
C1038 C1046 1.448 . S
C1039 H1034 0.931 . S
C1039 C1041 1.397 . S
C1039 C1042 1.367 . S
C1040 C1038 1.405 . S
C1040 C1042 1.403 . S
C1040 C1073 1.439 . S
C1041 H1026 0.904 1_556 S
C1041 N1037 1.319 . S
C1041 C1039 1.397 . S
C1042 C1039 1.367 . S
C1042 C1040 1.403 . S
C1042 H1049 0.929 . S
N1043 Eu1008 2.562 1_556 S
N1043 C1044 1.325 . S
N1043 C1046 1.351 . S
C1044 H1030 0.929 . S
C1044 N1043 1.325 . S
C1044 C1048 1.416 . S
C1045 C1046 1.430 . S
C1045 C1047 1.404 . S
C1045 C1074 1.387 . S
C1046 C1038 1.448 . S
C1046 N1043 1.351 . S
C1046 C1045 1.430 . S
C1047 H1036 0.930 . S
C1047 C1045 1.404 . S
C1047 C1048 1.366 . S
C1048 H1027 0.930 . S
C1048 C1044 1.416 . S
C1048 C1047 1.366 . S
H1049 C1042 0.929 . S
H1050 C1073 0.931 . S
H1051 C1074 0.931 . S
O1052 Eu1008 2.462 . S
O1052 C1072 1.252 . S
O1053 Eu1008 2.373 1_556 S
O1053 C1064 1.249 . S
O1054 Eu1019 2.335 1_556 S
O1054 C1064 1.264 . S
O1055 Eu1008 2.432 . S
O1055 C1072 1.268 . S
O1056 Eu1008 2.291 . S
O1056 C1071 1.255 . S
O1057 Eu1019 2.372 . S
O1057 C1071 1.257 . S
O1058 Eu1019 2.462 . S
O1058 C1083 1.252 . S
O1059 Eu1019 2.373 . S
O1059 C1075 1.249 . S
O1060 Eu1008 2.335 . S
O1060 C1075 1.264 . S
O1061 Eu1019 2.432 . S
O1061 C1083 1.268 . S
O1062 Eu1019 2.291 . S
O1062 C1082 1.255 . S
O1063 Eu1008 2.372 . S
O1063 C1082 1.257 . S
C1064 O1053 1.249 . S
C1064 O1054 1.264 . S
C1065 C1068 1.382 . S
C1065 C1070 1.390 . S
C1065 C1072 1.506 . S
C1066 C1067 1.398 . S
C1066 C1070 1.392 . S
C1067 C1066 1.398 . S
C1067 C1069 1.372 . S
C1067 H1084 0.931 . S
C1068 C1065 1.382 . S
C1068 C1069 1.390 . S
C1068 H1085 0.931 . S
C1069 C1067 1.372 . S
C1069 C1068 1.390 . S
C1069 H1086 0.929 . S
C1070 C1065 1.390 . S
C1070 C1066 1.392 . S
C1070 H1087 0.930 . S
C1071 O1056 1.255 . S
C1071 O1057 1.257 . S
C1072 Eu1008 2.787 . S
C1072 O1052 1.252 . S
C1072 O1055 1.268 . S
C1072 C1065 1.506 . S
C1073 C1040 1.439 . S
C1073 H1050 0.931 . S
C1073 C1074 1.374 . S
C1074 C1045 1.387 . S
C1074 H1051 0.931 . S
C1074 C1073 1.374 . S
C1075 O1059 1.249 . S
C1075 O1060 1.264 . S
C1076 C1079 1.382 . S
C1076 C1080 1.390 . S
C1076 C1083 1.506 1_556 S
C1077 C1078 1.398 . S
C1077 C1080 1.392 . S
C1078 C1077 1.398 . S
C1078 C1081 1.372 . S
C1078 H1088 0.931 . S
C1079 C1076 1.382 . S
C1079 C1081 1.390 . S
C1079 H1089 0.931 . S
C1080 C1076 1.390 . S
C1080 C1077 1.392 . S
C1080 H1090 0.930 . S
C1081 C1078 1.372 . S
C1081 C1079 1.390 . S
C1081 H1091 0.929 . S
C1082 O1062 1.255 . S
C1082 O1063 1.257 . S
C1083 Eu1019 2.787 . S
C1083 O1058 1.252 . S
C1083 O1061 1.268 . S
C1083 C1076 1.506 1_554 S
H1084 C1067 0.931 . S
H1085 C1068 0.931 . S
H1086 C1069 0.929 . S
H1087 C1070 0.930 . S
H1088 C1078 0.931 . S
H1089 C1079 0.931 . S
H1090 C1080 0.930 . S
H1091 C1081 0.929 . S
Eu1092 N1121 2.600 . S
Eu1092 N1127 2.562 . S
Eu1092 O1136 2.462 . S
Eu1092 O1137 2.373 . S
Eu1092 O1139 2.432 . S
Eu1092 O1140 2.291 . S
Eu1092 O1144 2.335 . S
Eu1092 O1147 2.372 . S
Eu1092 C1156 2.787 . S
C1093 N1094 1.365 . S
C1093 C1096 1.405 . S
C1093 C1100 1.448 . S
N1094 C1093 1.365 . S
N1094 C1097 1.319 . S
N1094 Eu1103 2.600 . S
C1095 C1097 1.397 . S
C1095 C1098 1.367 . S
C1095 H1115 0.931 . S
C1096 C1093 1.405 . S
C1096 C1098 1.403 . S
C1096 C1102 1.439 . S
C1097 N1094 1.319 . S
C1097 C1095 1.397 . S
C1097 H1108 0.930 . S
C1098 C1095 1.367 . S
C1098 C1096 1.403 . S
C1098 H1119 0.929 . S
C1099 C1100 1.430 . S
C1099 C1101 1.387 . S
C1099 C1105 1.404 . S
C1100 C1093 1.448 . S
C1100 C1099 1.430 . S
C1100 N1104 1.351 . S
C1101 C1099 1.387 . S
C1101 C1102 1.374 . S
C1101 H1116 0.931 . S
C1102 C1096 1.439 . S
C1102 C1101 1.374 . S
C1102 H1117 0.931 . S
Eu1103 N1094 2.600 . S
Eu1103 N1104 2.562 . S
Eu1103 O1138 2.335 . S
Eu1103 O1141 2.372 . S
Eu1103 O1142 2.462 . S
Eu1103 O1143 2.373 . S
Eu1103 O1145 2.432 . S
Eu1103 O1146 2.291 . S
Eu1103 C1167 2.787 . S
N1104 C1100 1.351 . S
N1104 Eu1103 2.562 . S
N1104 C1106 1.325 . S
C1105 C1099 1.404 . S
C1105 C1107 1.366 . S
C1105 H1113 0.930 . S
C1106 N1104 1.325 . S
C1106 C1107 1.416 . S
C1106 H1112 0.929 . S
C1107 C1105 1.366 . S
C1107 C1106 1.416 . S
C1107 H1109 0.930 . S
H1108 C1097 0.930 . S
H1109 C1107 0.930 . S
H1110 C1125 0.930 . S
H1111 C1132 0.930 . S
H1112 C1106 0.929 . S
H1113 C1105 0.930 . S
H1114 C1128 0.929 . S
H1115 C1095 0.931 . S
H1116 C1101 0.931 . S
H1117 C1102 0.931 . S
H1118 C1123 0.931 . S
H1119 C1098 0.929 . S
H1120 C1131 0.930 . S
N1121 Eu1092 2.600 . S
N1121 C1122 1.365 . S
N1121 C1125 1.319 . S
C1122 N1121 1.365 . S
C1122 C1124 1.405 . S
C1122 C1130 1.448 . S
C1123 H1118 0.931 . S
C1123 C1125 1.397 . S
C1123 C1126 1.367 . S
C1124 C1122 1.405 . S
C1124 C1126 1.403 . S
C1124 C1157 1.439 . S
C1125 H1110 0.930 . S
C1125 N1121 1.319 . S
C1125 C1123 1.397 . S
C1126 C1123 1.367 . S
C1126 C1124 1.403 . S
C1126 H1133 0.929 . S
N1127 Eu1092 2.562 . S
N1127 C1128 1.325 . S
N1127 C1130 1.351 . S
C1128 H1114 0.929 . S
C1128 N1127 1.325 . S
C1128 C1132 1.416 . S
C1129 C1130 1.430 . S
C1129 C1131 1.404 . S
C1129 C1158 1.387 . S
C1130 C1122 1.448 . S
C1130 N1127 1.351 . S
C1130 C1129 1.430 . S
C1131 H1120 0.930 . S
C1131 C1129 1.404 . S
C1131 C1132 1.366 . S
C1132 H1111 0.930 . S
C1132 C1128 1.416 . S
C1132 C1131 1.366 . S
H1133 C1126 0.929 . S
H1134 C1157 0.931 . S
H1135 C1158 0.931 . S
O1136 Eu1092 2.462 . S
O1136 C1156 1.252 . S
O1137 Eu1092 2.373 . S
O1137 C1148 1.249 . S
O1138 Eu1103 2.335 . S
O1138 C1148 1.264 . S
O1139 Eu1092 2.432 . S
O1139 C1156 1.268 . S
O1140 Eu1092 2.291 . S
O1140 C1155 1.255 . S
O1141 Eu1103 2.372 . S
O1141 C1155 1.257 . S
O1142 Eu1103 2.462 . S
O1142 C1167 1.252 . S
O1143 Eu1103 2.373 . S
O1143 C1159 1.249 . S
O1144 Eu1092 2.335 . S
O1144 C1159 1.264 . S
O1145 Eu1103 2.432 . S
O1145 C1167 1.268 . S
O1146 Eu1103 2.291 . S
O1146 C1166 1.255 . S
O1147 Eu1092 2.372 . S
O1147 C1166 1.257 . S
C1148 O1137 1.249 . S
C1148 O1138 1.264 . S
C1149 C1152 1.382 . S
C1149 C1154 1.390 . S
C1149 C1156 1.506 . S
C1150 C1151 1.398 . S
C1150 C1154 1.392 . S
C1151 C1150 1.398 . S
C1151 C1153 1.372 . S
C1151 H1168 0.931 . S
C1152 C1149 1.382 . S
C1152 C1153 1.390 . S
C1152 H1169 0.931 . S
C1153 C1151 1.372 . S
C1153 C1152 1.390 . S
C1153 H1170 0.929 . S
C1154 C1149 1.390 . S
C1154 C1150 1.392 . S
C1154 H1171 0.930 . S
C1155 O1140 1.255 . S
C1155 O1141 1.257 . S
C1156 Eu1092 2.787 . S
C1156 O1136 1.252 . S
C1156 O1139 1.268 . S
C1156 C1149 1.506 . S
C1157 C1124 1.439 . S
C1157 H1134 0.931 . S
C1157 C1158 1.374 . S
C1158 C1129 1.387 . S
C1158 H1135 0.931 . S
C1158 C1157 1.374 . S
C1159 O1143 1.249 . S
C1159 O1144 1.264 . S
C1160 C1163 1.382 . S
C1160 C1164 1.390 . S
C1160 C1167 1.506 . S
C1161 C1162 1.398 . S
C1161 C1164 1.392 . S
C1162 C1161 1.398 . S
C1162 C1165 1.372 . S
C1162 H1172 0.931 . S
C1163 C1160 1.382 . S
C1163 C1165 1.390 . S
C1163 H1173 0.931 . S
C1164 C1160 1.390 . S
C1164 C1161 1.392 . S
C1164 H1174 0.930 . S
C1165 C1162 1.372 . S
C1165 C1163 1.390 . S
C1165 H1175 0.929 . S
C1166 O1146 1.255 . S
C1166 O1147 1.257 . S
C1167 Eu1103 2.787 . S
C1167 O1142 1.252 . S
C1167 O1145 1.268 . S
C1167 C1160 1.506 . S
H1168 C1151 0.931 . S
H1169 C1152 0.931 . S
H1170 C1153 0.929 . S
H1171 C1154 0.930 . S
H1172 C1162 0.931 . S
H1173 C1163 0.931 . S
H1174 C1164 0.930 . S
H1175 C1165 0.929 . S
Eu1176 N1205 2.600 1_455 S
Eu1176 N1211 2.562 1_455 S
Eu1176 O1220 2.462 . S
Eu1176 O1221 2.373 1_455 S
Eu1176 O1223 2.432 . S
Eu1176 O1224 2.291 . S
Eu1176 O1228 2.335 . S
Eu1176 O1231 2.372 . S
Eu1176 C1240 2.787 . S
C1177 N1178 1.365 . S
C1177 C1180 1.405 . S
C1177 C1184 1.448 . S
N1178 C1177 1.365 . S
N1178 C1181 1.319 . S
N1178 Eu1187 2.600 . S
C1179 C1181 1.397 . S
C1179 C1182 1.367 . S
C1179 H1199 0.931 . S
C1180 C1177 1.405 . S
C1180 C1182 1.403 . S
C1180 C1186 1.439 . S
C1181 N1178 1.319 . S
C1181 C1179 1.397 . S
C1181 H1192 0.930 . S
C1182 C1179 1.367 . S
C1182 C1180 1.403 . S
C1182 H1203 0.929 . S
C1183 C1184 1.430 . S
C1183 C1185 1.387 . S
C1183 C1189 1.404 . S
C1184 C1177 1.448 . S
C1184 C1183 1.430 . S
C1184 N1188 1.351 . S
C1185 C1183 1.387 . S
C1185 C1186 1.374 . S
C1185 H1200 0.931 . S
C1186 C1180 1.439 . S
C1186 C1185 1.374 . S
C1186 H1201 0.931 . S
Eu1187 N1178 2.600 . S
Eu1187 N1188 2.562 . S
Eu1187 O1222 2.335 1_455 S
Eu1187 O1225 2.372 . S
Eu1187 O1226 2.462 . S
Eu1187 O1227 2.373 . S
Eu1187 O1229 2.432 . S
Eu1187 O1230 2.291 . S
Eu1187 C1251 2.787 . S
N1188 C1184 1.351 . S
N1188 Eu1187 2.562 . S
N1188 C1190 1.325 . S
C1189 C1183 1.404 . S
C1189 C1191 1.366 . S
C1189 H1197 0.930 . S
C1190 N1188 1.325 . S
C1190 C1191 1.416 . S
C1190 H1196 0.929 . S
C1191 C1189 1.366 . S
C1191 C1190 1.416 . S
C1191 H1193 0.930 . S
H1192 C1181 0.930 . S
H1193 C1191 0.930 . S
H1194 C1209 0.930 1_455 S
H1195 C1216 0.930 . S
H1196 C1190 0.929 . S
H1197 C1189 0.930 . S
H1198 C1212 0.929 1_455 S
H1199 C1179 0.931 . S
H1200 C1185 0.931 . S
H1201 C1186 0.931 . S
H1202 C1207 0.931 . S
H1203 C1182 0.929 . S
H1204 C1215 0.930 . S
N1205 Eu1176 2.600 1_655 S
N1205 C1206 1.365 . S
N1205 C1209 1.319 . S
C1206 N1205 1.365 . S
C1206 C1208 1.405 . S
C1206 C1214 1.448 . S
C1207 H1202 0.931 . S
C1207 C1209 1.397 . S
C1207 C1210 1.367 . S
C1208 C1206 1.405 . S
C1208 C1210 1.403 . S
C1208 C1241 1.439 . S
C1209 H1194 0.930 1_655 S
C1209 N1205 1.319 . S
C1209 C1207 1.397 . S
C1210 C1207 1.367 . S
C1210 C1208 1.403 . S
C1210 H1217 0.929 . S
N1211 Eu1176 2.562 1_655 S
N1211 C1212 1.325 . S
N1211 C1214 1.351 . S
C1212 H1198 0.929 1_655 S
C1212 N1211 1.325 . S
C1212 C1216 1.416 . S
C1213 C1214 1.430 . S
C1213 C1215 1.404 . S
C1213 C1242 1.387 . S
C1214 C1206 1.448 . S
C1214 N1211 1.351 . S
C1214 C1213 1.430 . S
C1215 H1204 0.930 . S
C1215 C1213 1.404 . S
C1215 C1216 1.366 . S
C1216 H1195 0.930 . S
C1216 C1212 1.416 . S
C1216 C1215 1.366 . S
H1217 C1210 0.929 . S
H1218 C1241 0.931 . S
H1219 C1242 0.931 . S
O1220 Eu1176 2.462 . S
O1220 C1240 1.252 . S
O1221 Eu1176 2.373 1_655 S
O1221 C1232 1.249 . S
O1222 Eu1187 2.335 1_655 S
O1222 C1232 1.264 . S
O1223 Eu1176 2.432 . S
O1223 C1240 1.268 . S
O1224 Eu1176 2.291 . S
O1224 C1239 1.255 . S
O1225 Eu1187 2.372 . S
O1225 C1239 1.257 . S
O1226 Eu1187 2.462 . S
O1226 C1251 1.252 . S
O1227 Eu1187 2.373 . S
O1227 C1243 1.249 . S
O1228 Eu1176 2.335 . S
O1228 C1243 1.264 . S
O1229 Eu1187 2.432 . S
O1229 C1251 1.268 . S
O1230 Eu1187 2.291 . S
O1230 C1250 1.255 . S
O1231 Eu1176 2.372 . S
O1231 C1250 1.257 . S
C1232 O1221 1.249 . S
C1232 O1222 1.264 . S
C1233 C1236 1.382 . S
C1233 C1238 1.390 . S
C1233 C1240 1.506 . S
C1234 C1235 1.398 . S
C1234 C1238 1.392 . S
C1235 C1234 1.398 . S
C1235 C1237 1.372 . S
C1235 H1252 0.931 . S
C1236 C1233 1.382 . S
C1236 C1237 1.390 . S
C1236 H1253 0.931 . S
C1237 C1235 1.372 . S
C1237 C1236 1.390 . S
C1237 H1254 0.929 . S
C1238 C1233 1.390 . S
C1238 C1234 1.392 . S
C1238 H1255 0.930 . S
C1239 O1224 1.255 . S
C1239 O1225 1.257 . S
C1240 Eu1176 2.787 . S
C1240 O1220 1.252 . S
C1240 O1223 1.268 . S
C1240 C1233 1.506 . S
C1241 C1208 1.439 . S
C1241 H1218 0.931 . S
C1241 C1242 1.374 . S
C1242 C1213 1.387 . S
C1242 H1219 0.931 . S
C1242 C1241 1.374 . S
C1243 O1227 1.249 . S
C1243 O1228 1.264 . S
C1244 C1247 1.382 . S
C1244 C1248 1.390 . S
C1244 C1251 1.506 1_655 S
C1245 C1246 1.398 . S
C1245 C1248 1.392 . S
C1246 C1245 1.398 . S
C1246 C1249 1.372 . S
C1246 H1256 0.931 . S
C1247 C1244 1.382 . S
C1247 C1249 1.390 . S
C1247 H1257 0.931 . S
C1248 C1244 1.390 . S
C1248 C1245 1.392 . S
C1248 H1258 0.930 . S
C1249 C1246 1.372 . S
C1249 C1247 1.390 . S
C1249 H1259 0.929 . S
C1250 O1230 1.255 . S
C1250 O1231 1.257 . S
C1251 Eu1187 2.787 . S
C1251 O1226 1.252 . S
C1251 O1229 1.268 . S
C1251 C1244 1.506 1_455 S
H1252 C1235 0.931 . S
H1253 C1236 0.931 . S
H1254 C1237 0.929 . S
H1255 C1238 0.930 . S
H1256 C1246 0.931 . S
H1257 C1247 0.931 . S
H1258 C1248 0.930 . S
H1259 C1249 0.929 . S
Eu1260 N1289 2.600 . S
Eu1260 N1295 2.562 . S
Eu1260 O1304 2.462 . S
Eu1260 O1305 2.373 . S
Eu1260 O1307 2.432 . S
Eu1260 O1308 2.291 . S
Eu1260 O1312 2.335 . S
Eu1260 O1315 2.372 . S
Eu1260 C1324 2.787 . S
C1261 N1262 1.365 . S
C1261 C1264 1.405 . S
C1261 C1268 1.448 . S
N1262 C1261 1.365 . S
N1262 C1265 1.319 . S
N1262 Eu1271 2.600 . S
C1263 C1265 1.397 . S
C1263 C1266 1.367 . S
C1263 H1283 0.931 . S
C1264 C1261 1.405 . S
C1264 C1266 1.403 . S
C1264 C1270 1.439 . S
C1265 N1262 1.319 . S
C1265 C1263 1.397 . S
C1265 H1276 0.930 . S
C1266 C1263 1.367 . S
C1266 C1264 1.403 . S
C1266 H1287 0.929 . S
C1267 C1268 1.430 . S
C1267 C1269 1.387 . S
C1267 C1273 1.404 . S
C1268 C1261 1.448 . S
C1268 C1267 1.430 . S
C1268 N1272 1.351 . S
C1269 C1267 1.387 . S
C1269 C1270 1.374 . S
C1269 H1284 0.931 . S
C1270 C1264 1.439 . S
C1270 C1269 1.374 . S
C1270 H1285 0.931 . S
Eu1271 N1262 2.600 . S
Eu1271 N1272 2.562 . S
Eu1271 O1306 2.335 . S
Eu1271 O1309 2.372 . S
Eu1271 O1310 2.462 . S
Eu1271 O1311 2.373 . S
Eu1271 O1313 2.432 . S
Eu1271 O1314 2.291 . S
Eu1271 C1335 2.787 . S
N1272 C1268 1.351 . S
N1272 Eu1271 2.562 . S
N1272 C1274 1.325 . S
C1273 C1267 1.404 . S
C1273 C1275 1.366 . S
C1273 H1281 0.930 . S
C1274 N1272 1.325 . S
C1274 C1275 1.416 . S
C1274 H1280 0.929 . S
C1275 C1273 1.366 . S
C1275 C1274 1.416 . S
C1275 H1277 0.930 . S
H1276 C1265 0.930 . S
H1277 C1275 0.930 . S
H1278 C1293 0.930 . S
H1279 C1300 0.930 . S
H1280 C1274 0.929 . S
H1281 C1273 0.930 . S
H1282 C1296 0.929 . S
H1283 C1263 0.931 . S
H1284 C1269 0.931 . S
H1285 C1270 0.931 . S
H1286 C1291 0.931 . S
H1287 C1266 0.929 . S
H1288 C1299 0.930 . S
N1289 Eu1260 2.600 . S
N1289 C1290 1.365 . S
N1289 C1293 1.319 . S
C1290 N1289 1.365 . S
C1290 C1292 1.405 . S
C1290 C1298 1.448 . S
C1291 H1286 0.931 . S
C1291 C1293 1.397 . S
C1291 C1294 1.367 . S
C1292 C1290 1.405 . S
C1292 C1294 1.403 . S
C1292 C1325 1.439 . S
C1293 H1278 0.930 . S
C1293 N1289 1.319 . S
C1293 C1291 1.397 . S
C1294 C1291 1.367 . S
C1294 C1292 1.403 . S
C1294 H1301 0.929 . S
N1295 Eu1260 2.562 . S
N1295 C1296 1.325 . S
N1295 C1298 1.351 . S
C1296 H1282 0.929 . S
C1296 N1295 1.325 . S
C1296 C1300 1.416 . S
C1297 C1298 1.430 . S
C1297 C1299 1.404 . S
C1297 C1326 1.387 . S
C1298 C1290 1.448 . S
C1298 N1295 1.351 . S
C1298 C1297 1.430 . S
C1299 H1288 0.930 . S
C1299 C1297 1.404 . S
C1299 C1300 1.366 . S
C1300 H1279 0.930 . S
C1300 C1296 1.416 . S
C1300 C1299 1.366 . S
H1301 C1294 0.929 . S
H1302 C1325 0.931 . S
H1303 C1326 0.931 . S
O1304 Eu1260 2.462 . S
O1304 C1324 1.252 . S
O1305 Eu1260 2.373 . S
O1305 C1316 1.249 . S
O1306 Eu1271 2.335 . S
O1306 C1316 1.264 . S
O1307 Eu1260 2.432 . S
O1307 C1324 1.268 . S
O1308 Eu1260 2.291 . S
O1308 C1323 1.255 . S
O1309 Eu1271 2.372 . S
O1309 C1323 1.257 . S
O1310 Eu1271 2.462 . S
O1310 C1335 1.252 . S
O1311 Eu1271 2.373 . S
O1311 C1327 1.249 . S
O1312 Eu1260 2.335 . S
O1312 C1327 1.264 . S
O1313 Eu1271 2.432 . S
O1313 C1335 1.268 . S
O1314 Eu1271 2.291 . S
O1314 C1334 1.255 . S
O1315 Eu1260 2.372 . S
O1315 C1334 1.257 . S
C1316 O1305 1.249 . S
C1316 O1306 1.264 . S
C1317 C1320 1.382 . S
C1317 C1322 1.390 . S
C1317 C1324 1.506 . S
C1318 C1319 1.398 . S
C1318 C1322 1.392 . S
C1319 C1318 1.398 . S
C1319 C1321 1.372 . S
C1319 H1336 0.931 . S
C1320 C1317 1.382 . S
C1320 C1321 1.390 . S
C1320 H1337 0.931 . S
C1321 C1319 1.372 . S
C1321 C1320 1.390 . S
C1321 H1338 0.929 . S
C1322 C1317 1.390 . S
C1322 C1318 1.392 . S
C1322 H1339 0.930 . S
C1323 O1308 1.255 . S
C1323 O1309 1.257 . S
C1324 Eu1260 2.787 . S
C1324 O1304 1.252 . S
C1324 O1307 1.268 . S
C1324 C1317 1.506 . S
C1325 C1292 1.439 . S
C1325 H1302 0.931 . S
C1325 C1326 1.374 . S
C1326 C1297 1.387 . S
C1326 H1303 0.931 . S
C1326 C1325 1.374 . S
C1327 O1311 1.249 . S
C1327 O1312 1.264 . S
C1328 C1331 1.382 . S
C1328 C1332 1.390 . S
C1328 C1335 1.506 . S
C1329 C1330 1.398 . S
C1329 C1332 1.392 . S
C1330 C1329 1.398 . S
C1330 C1333 1.372 . S
C1330 H1340 0.931 . S
C1331 C1328 1.382 . S
C1331 C1333 1.390 . S
C1331 H1341 0.931 . S
C1332 C1328 1.390 . S
C1332 C1329 1.392 . S
C1332 H1342 0.930 . S
C1333 C1330 1.372 . S
C1333 C1331 1.390 . S
C1333 H1343 0.929 . S
C1334 O1314 1.255 . S
C1334 O1315 1.257 . S
C1335 Eu1271 2.787 . S
C1335 O1310 1.252 . S
C1335 O1313 1.268 . S
C1335 C1328 1.506 . S
H1336 C1319 0.931 . S
H1337 C1320 0.931 . S
H1338 C1321 0.929 . S
H1339 C1322 0.930 . S
H1340 C1330 0.931 . S
H1341 C1331 0.931 . S
H1342 C1332 0.930 . S
H1343 C1333 0.929 . S
Eu1344 N1373 2.600 . S
Eu1344 N1379 2.562 . S
Eu1344 O1388 2.462 . S
Eu1344 O1389 2.373 . S
Eu1344 O1391 2.432 . S
Eu1344 O1392 2.291 . S
Eu1344 O1396 2.335 . S
Eu1344 O1399 2.372 . S
Eu1344 C1408 2.787 . S
C1345 N1346 1.365 . S
C1345 C1348 1.405 . S
C1345 C1352 1.448 . S
N1346 C1345 1.365 . S
N1346 C1349 1.319 . S
N1346 Eu1355 2.600 . S
C1347 C1349 1.397 . S
C1347 C1350 1.367 . S
C1347 H1367 0.931 . S
C1348 C1345 1.405 . S
C1348 C1350 1.403 . S
C1348 C1354 1.439 . S
C1349 N1346 1.319 . S
C1349 C1347 1.397 . S
C1349 H1360 0.930 . S
C1350 C1347 1.367 . S
C1350 C1348 1.403 . S
C1350 H1371 0.929 . S
C1351 C1352 1.430 . S
C1351 C1353 1.387 . S
C1351 C1357 1.404 . S
C1352 C1345 1.448 . S
C1352 C1351 1.430 . S
C1352 N1356 1.351 . S
C1353 C1351 1.387 . S
C1353 C1354 1.374 . S
C1353 H1368 0.931 . S
C1354 C1348 1.439 . S
C1354 C1353 1.374 . S
C1354 H1369 0.931 . S
Eu1355 N1346 2.600 . S
Eu1355 N1356 2.562 . S
Eu1355 O1390 2.335 . S
Eu1355 O1393 2.372 . S
Eu1355 O1394 2.462 . S
Eu1355 O1395 2.373 . S
Eu1355 O1397 2.432 . S
Eu1355 O1398 2.291 . S
Eu1355 C1419 2.787 . S
N1356 C1352 1.351 . S
N1356 Eu1355 2.562 . S
N1356 C1358 1.325 . S
C1357 C1351 1.404 . S
C1357 C1359 1.366 . S
C1357 H1365 0.930 . S
C1358 N1356 1.325 . S
C1358 C1359 1.416 . S
C1358 H1364 0.929 . S
C1359 C1357 1.366 . S
C1359 C1358 1.416 . S
C1359 H1361 0.930 . S
H1360 C1349 0.930 . S
H1361 C1359 0.930 . S
H1362 C1377 0.930 . S
H1363 C1384 0.930 . S
H1364 C1358 0.929 . S
H1365 C1357 0.930 . S
H1366 C1380 0.929 . S
H1367 C1347 0.931 . S
H1368 C1353 0.931 . S
H1369 C1354 0.931 . S
H1370 C1375 0.931 . S
H1371 C1350 0.929 . S
H1372 C1383 0.930 . S
N1373 Eu1344 2.600 . S
N1373 C1374 1.365 . S
N1373 C1377 1.319 . S
C1374 N1373 1.365 . S
C1374 C1376 1.405 . S
C1374 C1382 1.448 . S
C1375 H1370 0.931 . S
C1375 C1377 1.397 . S
C1375 C1378 1.367 . S
C1376 C1374 1.405 . S
C1376 C1378 1.403 . S
C1376 C1409 1.439 . S
C1377 H1362 0.930 . S
C1377 N1373 1.319 . S
C1377 C1375 1.397 . S
C1378 C1375 1.367 . S
C1378 C1376 1.403 . S
C1378 H1385 0.929 . S
N1379 Eu1344 2.562 . S
N1379 C1380 1.325 . S
N1379 C1382 1.351 . S
C1380 H1366 0.929 . S
C1380 N1379 1.325 . S
C1380 C1384 1.416 . S
C1381 C1382 1.430 . S
C1381 C1383 1.404 . S
C1381 C1410 1.387 . S
C1382 C1374 1.448 . S
C1382 N1379 1.351 . S
C1382 C1381 1.430 . S
C1383 H1372 0.930 . S
C1383 C1381 1.404 . S
C1383 C1384 1.366 . S
C1384 H1363 0.930 . S
C1384 C1380 1.416 . S
C1384 C1383 1.366 . S
H1385 C1378 0.929 . S
H1386 C1409 0.931 . S
H1387 C1410 0.931 . S
O1388 Eu1344 2.462 . S
O1388 C1408 1.252 . S
O1389 Eu1344 2.373 . S
O1389 C1400 1.249 . S
O1390 Eu1355 2.335 . S
O1390 C1400 1.264 . S
O1391 Eu1344 2.432 . S
O1391 C1408 1.268 . S
O1392 Eu1344 2.291 . S
O1392 C1407 1.255 . S
O1393 Eu1355 2.372 . S
O1393 C1407 1.257 . S
O1394 Eu1355 2.462 . S
O1394 C1419 1.252 . S
O1395 Eu1355 2.373 . S
O1395 C1411 1.249 . S
O1396 Eu1344 2.335 . S
O1396 C1411 1.264 . S
O1397 Eu1355 2.432 . S
O1397 C1419 1.268 . S
O1398 Eu1355 2.291 . S
O1398 C1418 1.255 . S
O1399 Eu1344 2.372 . S
O1399 C1418 1.257 . S
C1400 O1389 1.249 . S
C1400 O1390 1.264 . S
C1401 C1404 1.382 . S
C1401 C1406 1.390 . S
C1401 C1408 1.506 . S
C1402 C1403 1.398 . S
C1402 C1406 1.392 . S
C1403 C1402 1.398 . S
C1403 C1405 1.372 . S
C1403 H1420 0.931 . S
C1404 C1401 1.382 . S
C1404 C1405 1.390 . S
C1404 H1421 0.931 . S
C1405 C1403 1.372 . S
C1405 C1404 1.390 . S
C1405 H1422 0.929 . S
C1406 C1401 1.390 . S
C1406 C1402 1.392 . S
C1406 H1423 0.930 . S
C1407 O1392 1.255 . S
C1407 O1393 1.257 . S
C1408 Eu1344 2.787 . S
C1408 O1388 1.252 . S
C1408 O1391 1.268 . S
C1408 C1401 1.506 . S
C1409 C1376 1.439 . S
C1409 H1386 0.931 . S
C1409 C1410 1.374 . S
C1410 C1381 1.387 . S
C1410 H1387 0.931 . S
C1410 C1409 1.374 . S
C1411 O1395 1.249 . S
C1411 O1396 1.264 . S
C1412 C1415 1.382 . S
C1412 C1416 1.390 . S
C1412 C1419 1.506 . S
C1413 C1414 1.398 . S
C1413 C1416 1.392 . S
C1414 C1413 1.398 . S
C1414 C1417 1.372 . S
C1414 H1424 0.931 . S
C1415 C1412 1.382 . S
C1415 C1417 1.390 . S
C1415 H1425 0.931 . S
C1416 C1412 1.390 . S
C1416 C1413 1.392 . S
C1416 H1426 0.930 . S
C1417 C1414 1.372 . S
C1417 C1415 1.390 . S
C1417 H1427 0.929 . S
C1418 O1398 1.255 . S
C1418 O1399 1.257 . S
C1419 Eu1355 2.787 . S
C1419 O1394 1.252 . S
C1419 O1397 1.268 . S
C1419 C1412 1.506 . S
H1420 C1403 0.931 . S
H1421 C1404 0.931 . S
H1422 C1405 0.929 . S
H1423 C1406 0.930 . S
H1424 C1414 0.931 . S
H1425 C1415 0.931 . S
H1426 C1416 0.930 . S
H1427 C1417 0.929 . S
Eu1428 N1457 2.600 . S
Eu1428 N1463 2.562 . S
Eu1428 O1472 2.462 . S
Eu1428 O1473 2.373 . S
Eu1428 O1475 2.432 . S
Eu1428 O1476 2.291 . S
Eu1428 O1480 2.335 . S
Eu1428 O1483 2.372 . S
Eu1428 C1492 2.787 . S
C1429 N1430 1.365 . S
C1429 C1432 1.405 . S
C1429 C1436 1.448 . S
N1430 C1429 1.365 . S
N1430 C1433 1.319 . S
N1430 Eu1439 2.600 . S
C1431 C1433 1.397 . S
C1431 C1434 1.367 . S
C1431 H1451 0.931 . S
C1432 C1429 1.405 . S
C1432 C1434 1.403 . S
C1432 C1438 1.439 . S
C1433 N1430 1.319 . S
C1433 C1431 1.397 . S
C1433 H1444 0.930 . S
C1434 C1431 1.367 . S
C1434 C1432 1.403 . S
C1434 H1455 0.929 . S
C1435 C1436 1.430 . S
C1435 C1437 1.387 . S
C1435 C1441 1.404 . S
C1436 C1429 1.448 . S
C1436 C1435 1.430 . S
C1436 N1440 1.351 . S
C1437 C1435 1.387 . S
C1437 C1438 1.374 . S
C1437 H1452 0.931 . S
C1438 C1432 1.439 . S
C1438 C1437 1.374 . S
C1438 H1453 0.931 . S
Eu1439 N1430 2.600 . S
Eu1439 N1440 2.562 . S
Eu1439 O1474 2.335 . S
Eu1439 O1477 2.372 . S
Eu1439 O1478 2.462 . S
Eu1439 O1479 2.373 . S
Eu1439 O1481 2.432 . S
Eu1439 O1482 2.291 . S
Eu1439 C1503 2.787 . S
N1440 C1436 1.351 . S
N1440 Eu1439 2.562 . S
N1440 C1442 1.325 . S
C1441 C1435 1.404 . S
C1441 C1443 1.366 . S
C1441 H1449 0.930 . S
C1442 N1440 1.325 . S
C1442 C1443 1.416 . S
C1442 H1448 0.929 . S
C1443 C1441 1.366 . S
C1443 C1442 1.416 . S
C1443 H1445 0.930 . S
H1444 C1433 0.930 . S
H1445 C1443 0.930 . S
H1446 C1461 0.930 . S
H1447 C1468 0.930 . S
H1448 C1442 0.929 . S
H1449 C1441 0.930 . S
H1450 C1464 0.929 . S
H1451 C1431 0.931 . S
H1452 C1437 0.931 . S
H1453 C1438 0.931 . S
H1454 C1459 0.931 . S
H1455 C1434 0.929 . S
H1456 C1467 0.930 . S
N1457 Eu1428 2.600 . S
N1457 C1458 1.365 . S
N1457 C1461 1.319 . S
C1458 N1457 1.365 . S
C1458 C1460 1.405 . S
C1458 C1466 1.448 . S
C1459 H1454 0.931 . S
C1459 C1461 1.397 . S
C1459 C1462 1.367 . S
C1460 C1458 1.405 . S
C1460 C1462 1.403 . S
C1460 C1493 1.439 . S
C1461 H1446 0.930 . S
C1461 N1457 1.319 . S
C1461 C1459 1.397 . S
C1462 C1459 1.367 . S
C1462 C1460 1.403 . S
C1462 H1469 0.929 . S
N1463 Eu1428 2.562 . S
N1463 C1464 1.325 . S
N1463 C1466 1.351 . S
C1464 H1450 0.929 . S
C1464 N1463 1.325 . S
C1464 C1468 1.416 . S
C1465 C1466 1.430 . S
C1465 C1467 1.404 . S
C1465 C1494 1.387 . S
C1466 C1458 1.448 . S
C1466 N1463 1.351 . S
C1466 C1465 1.430 . S
C1467 H1456 0.930 . S
C1467 C1465 1.404 . S
C1467 C1468 1.366 . S
C1468 H1447 0.930 . S
C1468 C1464 1.416 . S
C1468 C1467 1.366 . S
H1469 C1462 0.929 . S
H1470 C1493 0.931 . S
H1471 C1494 0.931 . S
O1472 Eu1428 2.462 . S
O1472 C1492 1.252 . S
O1473 Eu1428 2.373 . S
O1473 C1484 1.249 . S
O1474 Eu1439 2.335 . S
O1474 C1484 1.264 . S
O1475 Eu1428 2.432 . S
O1475 C1492 1.268 . S
O1476 Eu1428 2.291 . S
O1476 C1491 1.255 . S
O1477 Eu1439 2.372 . S
O1477 C1491 1.257 . S
O1478 Eu1439 2.462 . S
O1478 C1503 1.252 . S
O1479 Eu1439 2.373 . S
O1479 C1495 1.249 . S
O1480 Eu1428 2.335 . S
O1480 C1495 1.264 . S
O1481 Eu1439 2.432 . S
O1481 C1503 1.268 . S
O1482 Eu1439 2.291 . S
O1482 C1502 1.255 . S
O1483 Eu1428 2.372 . S
O1483 C1502 1.257 . S
C1484 O1473 1.249 . S
C1484 O1474 1.264 . S
C1485 C1488 1.382 . S
C1485 C1490 1.390 . S
C1485 C1492 1.506 . S
C1486 C1487 1.398 . S
C1486 C1490 1.392 . S
C1487 C1486 1.398 . S
C1487 C1489 1.372 . S
C1487 H1504 0.931 . S
C1488 C1485 1.382 . S
C1488 C1489 1.390 . S
C1488 H1505 0.931 . S
C1489 C1487 1.372 . S
C1489 C1488 1.390 . S
C1489 H1506 0.929 . S
C1490 C1485 1.390 . S
C1490 C1486 1.392 . S
C1490 H1507 0.930 . S
C1491 O1476 1.255 . S
C1491 O1477 1.257 . S
C1492 Eu1428 2.787 . S
C1492 O1472 1.252 . S
C1492 O1475 1.268 . S
C1492 C1485 1.506 . S
C1493 C1460 1.439 . S
C1493 H1470 0.931 . S
C1493 C1494 1.374 . S
C1494 C1465 1.387 . S
C1494 H1471 0.931 . S
C1494 C1493 1.374 . S
C1495 O1479 1.249 . S
C1495 O1480 1.264 . S
C1496 C1499 1.382 . S
C1496 C1500 1.390 . S
C1496 C1503 1.506 . S
C1497 C1498 1.398 . S
C1497 C1500 1.392 . S
C1498 C1497 1.398 . S
C1498 C1501 1.372 . S
C1498 H1508 0.931 . S
C1499 C1496 1.382 . S
C1499 C1501 1.390 . S
C1499 H1509 0.931 . S
C1500 C1496 1.390 . S
C1500 C1497 1.392 . S
C1500 H1510 0.930 . S
C1501 C1498 1.372 . S
C1501 C1499 1.390 . S
C1501 H1511 0.929 . S
C1502 O1482 1.255 . S
C1502 O1483 1.257 . S
C1503 Eu1439 2.787 . S
C1503 O1478 1.252 . S
C1503 O1481 1.268 . S
C1503 C1496 1.506 . S
H1504 C1487 0.931 . S
H1505 C1488 0.931 . S
H1506 C1489 0.929 . S
H1507 C1490 0.930 . S
H1508 C1498 0.931 . S
H1509 C1499 0.931 . S
H1510 C1500 0.930 . S
H1511 C1501 0.929 . S
Eu1512 N1541 2.600 . S
Eu1512 N1547 2.562 . S
Eu1512 O1556 2.462 . S
Eu1512 O1557 2.373 . S
Eu1512 O1559 2.432 . S
Eu1512 O1560 2.291 . S
Eu1512 O1564 2.335 . S
Eu1512 O1567 2.372 . S
Eu1512 C1576 2.787 . S
C1513 N1514 1.365 . S
C1513 C1516 1.405 . S
C1513 C1520 1.448 . S
N1514 C1513 1.365 . S
N1514 C1517 1.319 . S
N1514 Eu1523 2.600 . S
C1515 C1517 1.397 . S
C1515 C1518 1.367 . S
C1515 H1535 0.931 . S
C1516 C1513 1.405 . S
C1516 C1518 1.403 . S
C1516 C1522 1.439 . S
C1517 N1514 1.319 . S
C1517 C1515 1.397 . S
C1517 H1528 0.930 . S
C1518 C1515 1.367 . S
C1518 C1516 1.403 . S
C1518 H1539 0.929 . S
C1519 C1520 1.430 . S
C1519 C1521 1.387 . S
C1519 C1525 1.404 . S
C1520 C1513 1.448 . S
C1520 C1519 1.430 . S
C1520 N1524 1.351 . S
C1521 C1519 1.387 . S
C1521 C1522 1.374 . S
C1521 H1536 0.931 . S
C1522 C1516 1.439 . S
C1522 C1521 1.374 . S
C1522 H1537 0.931 . S
Eu1523 N1514 2.600 . S
Eu1523 N1524 2.562 . S
Eu1523 O1558 2.335 . S
Eu1523 O1561 2.372 . S
Eu1523 O1562 2.462 . S
Eu1523 O1563 2.373 . S
Eu1523 O1565 2.432 . S
Eu1523 O1566 2.291 . S
Eu1523 C1587 2.787 . S
N1524 C1520 1.351 . S
N1524 Eu1523 2.562 . S
N1524 C1526 1.325 . S
C1525 C1519 1.404 . S
C1525 C1527 1.366 . S
C1525 H1533 0.930 . S
C1526 N1524 1.325 . S
C1526 C1527 1.416 . S
C1526 H1532 0.929 . S
C1527 C1525 1.366 . S
C1527 C1526 1.416 . S
C1527 H1529 0.930 . S
H1528 C1517 0.930 . S
H1529 C1527 0.930 . S
H1530 C1545 0.930 . S
H1531 C1552 0.930 . S
H1532 C1526 0.929 . S
H1533 C1525 0.930 . S
H1534 C1548 0.929 . S
H1535 C1515 0.931 . S
H1536 C1521 0.931 . S
H1537 C1522 0.931 . S
H1538 C1543 0.931 . S
H1539 C1518 0.929 . S
H1540 C1551 0.930 . S
N1541 Eu1512 2.600 . S
N1541 C1542 1.365 . S
N1541 C1545 1.319 . S
C1542 N1541 1.365 . S
C1542 C1544 1.405 . S
C1542 C1550 1.448 . S
C1543 H1538 0.931 . S
C1543 C1545 1.397 . S
C1543 C1546 1.367 . S
C1544 C1542 1.405 . S
C1544 C1546 1.403 . S
C1544 C1577 1.439 . S
C1545 H1530 0.930 . S
C1545 N1541 1.319 . S
C1545 C1543 1.397 . S
C1546 C1543 1.367 . S
C1546 C1544 1.403 . S
C1546 H1553 0.929 . S
N1547 Eu1512 2.562 . S
N1547 C1548 1.325 . S
N1547 C1550 1.351 . S
C1548 H1534 0.929 . S
C1548 N1547 1.325 . S
C1548 C1552 1.416 . S
C1549 C1550 1.430 . S
C1549 C1551 1.404 . S
C1549 C1578 1.387 . S
C1550 C1542 1.448 . S
C1550 N1547 1.351 . S
C1550 C1549 1.430 . S
C1551 H1540 0.930 . S
C1551 C1549 1.404 . S
C1551 C1552 1.366 . S
C1552 H1531 0.930 . S
C1552 C1548 1.416 . S
C1552 C1551 1.366 . S
H1553 C1546 0.929 . S
H1554 C1577 0.931 . S
H1555 C1578 0.931 . S
O1556 Eu1512 2.462 . S
O1556 C1576 1.252 . S
O1557 Eu1512 2.373 . S
O1557 C1568 1.249 . S
O1558 Eu1523 2.335 . S
O1558 C1568 1.264 . S
O1559 Eu1512 2.432 . S
O1559 C1576 1.268 . S
O1560 Eu1512 2.291 . S
O1560 C1575 1.255 . S
O1561 Eu1523 2.372 . S
O1561 C1575 1.257 . S
O1562 Eu1523 2.462 . S
O1562 C1587 1.252 . S
O1563 Eu1523 2.373 . S
O1563 C1579 1.249 . S
O1564 Eu1512 2.335 . S
O1564 C1579 1.264 . S
O1565 Eu1523 2.432 . S
O1565 C1587 1.268 . S
O1566 Eu1523 2.291 . S
O1566 C1586 1.255 . S
O1567 Eu1512 2.372 . S
O1567 C1586 1.257 . S
C1568 O1557 1.249 . S
C1568 O1558 1.264 . S
C1569 C1572 1.382 . S
C1569 C1574 1.390 . S
C1569 C1576 1.506 . S
C1570 C1571 1.398 . S
C1570 C1574 1.392 . S
C1571 C1570 1.398 . S
C1571 C1573 1.372 . S
C1571 H1588 0.931 . S
C1572 C1569 1.382 . S
C1572 C1573 1.390 . S
C1572 H1589 0.931 . S
C1573 C1571 1.372 . S
C1573 C1572 1.390 . S
C1573 H1590 0.929 . S
C1574 C1569 1.390 . S
C1574 C1570 1.392 . S
C1574 H1591 0.930 . S
C1575 O1560 1.255 . S
C1575 O1561 1.257 . S
C1576 Eu1512 2.787 . S
C1576 O1556 1.252 . S
C1576 O1559 1.268 . S
C1576 C1569 1.506 . S
C1577 C1544 1.439 . S
C1577 H1554 0.931 . S
C1577 C1578 1.374 . S
C1578 C1549 1.387 . S
C1578 H1555 0.931 . S
C1578 C1577 1.374 . S
C1579 O1563 1.249 . S
C1579 O1564 1.264 . S
C1580 C1583 1.382 . S
C1580 C1584 1.390 . S
C1580 C1587 1.506 . S
C1581 C1582 1.398 . S
C1581 C1584 1.392 . S
C1582 C1581 1.398 . S
C1582 C1585 1.372 . S
C1582 H1592 0.931 . S
C1583 C1580 1.382 . S
C1583 C1585 1.390 . S
C1583 H1593 0.931 . S
C1584 C1580 1.390 . S
C1584 C1581 1.392 . S
C1584 H1594 0.930 . S
C1585 C1582 1.372 . S
C1585 C1583 1.390 . S
C1585 H1595 0.929 . S
C1586 O1566 1.255 . S
C1586 O1567 1.257 . S
C1587 Eu1523 2.787 . S
C1587 O1562 1.252 . S
C1587 O1565 1.268 . S
C1587 C1580 1.506 . S
H1588 C1571 0.931 . S
H1589 C1572 0.931 . S
H1590 C1573 0.929 . S
H1591 C1574 0.930 . S
H1592 C1582 0.931 . S
H1593 C1583 0.931 . S
H1594 C1584 0.930 . S
H1595 C1585 0.929 . S
Eu1596 N1625 2.600 . S
Eu1596 N1631 2.562 . S
Eu1596 O1640 2.462 . S
Eu1596 O1641 2.373 1_655 S
Eu1596 O1643 2.432 . S
Eu1596 O1644 2.292 . S
Eu1596 O1648 2.335 1_655 S
Eu1596 O1651 2.372 1_655 S
Eu1596 C1660 2.787 . S
C1597 N1598 1.365 . S
C1597 C1600 1.405 . S
C1597 C1604 1.448 1_556 S
N1598 C1597 1.365 . S
N1598 C1601 1.319 . S
N1598 Eu1607 2.600 1_556 S
C1599 C1601 1.397 . S
C1599 C1602 1.367 . S
C1599 H1619 0.931 . S
C1600 C1597 1.405 . S
C1600 C1602 1.403 . S
C1600 C1606 1.439 . S
C1601 N1598 1.319 . S
C1601 C1599 1.397 . S
C1601 H1612 0.930 . S
C1602 C1599 1.367 . S
C1602 C1600 1.403 . S
C1602 H1623 0.929 . S
C1603 C1604 1.430 . S
C1603 C1605 1.387 . S
C1603 C1609 1.404 . S
C1604 C1597 1.448 1_554 S
C1604 C1603 1.430 . S
C1604 N1608 1.351 . S
C1605 C1603 1.387 . S
C1605 C1606 1.374 1_554 S
C1605 H1620 0.931 . S
C1606 C1600 1.439 . S
C1606 C1605 1.374 1_556 S
C1606 H1621 0.931 . S
Eu1607 N1598 2.600 1_554 S
Eu1607 N1608 2.562 . S
Eu1607 O1642 2.335 . S
Eu1607 O1645 2.372 1_554 S
Eu1607 O1646 2.462 . S
Eu1607 O1647 2.373 . S
Eu1607 O1649 2.432 1_554 S
Eu1607 O1650 2.291 . S
Eu1607 C1671 2.787 . S
N1608 C1604 1.351 . S
N1608 Eu1607 2.562 . S
N1608 C1610 1.325 . S
C1609 C1603 1.404 . S
C1609 C1611 1.366 . S
C1609 H1617 0.930 . S
C1610 N1608 1.325 . S
C1610 C1611 1.416 . S
C1610 H1616 0.929 . S
C1611 C1609 1.366 . S
C1611 C1610 1.416 . S
C1611 H1613 0.930 . S
H1612 C1601 0.930 . S
H1613 C1611 0.930 . S
H1614 C1629 0.930 1_455 S
H1615 C1636 0.961 . S
H1616 C1610 0.929 . S
H1617 C1609 0.930 . S
H1618 C1632 0.902 1_556 S
H1619 C1599 0.931 . S
H1620 C1605 0.931 . S
H1621 C1606 0.931 . S
H1622 C1627 0.931 . S
H1623 C1602 0.929 . S
H1624 C1635 0.930 . S
N1625 Eu1596 2.600 . S
N1625 C1626 1.365 . S
N1625 C1629 1.319 . S
C1626 N1625 1.365 . S
C1626 C1628 1.405 . S
C1626 C1634 1.448 . S
C1627 H1622 0.931 . S
C1627 C1629 1.397 . S
C1627 C1630 1.367 . S
C1628 C1626 1.405 . S
C1628 C1630 1.403 . S
C1628 C1661 1.439 . S
C1629 H1614 0.930 1_655 S
C1629 N1625 1.319 . S
C1629 C1627 1.397 . S
C1630 C1627 1.367 . S
C1630 C1628 1.403 . S
C1630 H1637 0.929 . S
N1631 Eu1596 2.562 . S
N1631 C1632 1.325 . S
N1631 C1634 1.351 . S
C1632 H1618 0.902 1_554 S
C1632 N1631 1.325 . S
C1632 C1636 1.409 1_554 S
C1633 C1634 1.430 . S
C1633 C1635 1.404 . S
C1633 C1662 1.387 . S
C1634 C1626 1.448 . S
C1634 N1631 1.351 . S
C1634 C1633 1.430 . S
C1635 H1624 0.930 . S
C1635 C1633 1.404 . S
C1635 C1636 1.341 1_554 S
C1636 H1615 0.961 . S
C1636 C1632 1.409 1_556 S
C1636 C1635 1.341 1_556 S
H1637 C1630 0.929 . S
H1638 C1661 0.931 . S
H1639 C1662 0.931 . S
O1640 Eu1596 2.462 . S
O1640 C1660 1.252 . S
O1641 Eu1596 2.373 1_455 S
O1641 C1652 1.249 . S
O1642 Eu1607 2.335 . S
O1642 C1652 1.264 . S
O1643 Eu1596 2.432 . S
O1643 C1660 1.268 . S
O1644 Eu1596 2.292 . S
O1644 C1659 1.254 1_654 S
O1645 Eu1607 2.372 1_556 S
O1645 C1659 1.257 . S
O1646 Eu1607 2.462 . S
O1646 C1671 1.252 . S
O1647 Eu1607 2.373 . S
O1647 C1663 1.249 . S
O1648 Eu1596 2.335 1_455 S
O1648 C1663 1.264 . S
O1649 Eu1607 2.432 1_556 S
O1649 C1671 1.268 1_556 S
O1650 Eu1607 2.291 . S
O1650 C1670 1.255 . S
O1651 Eu1596 2.372 1_455 S
O1651 C1670 1.257 . S
C1652 O1641 1.249 . S
C1652 O1642 1.264 . S
C1653 C1656 1.382 . S
C1653 C1658 1.390 . S
C1653 C1660 1.506 . S
C1654 C1655 1.398 . S
C1654 C1658 1.392 . S
C1655 C1654 1.398 . S
C1655 C1657 1.372 . S
C1655 H1672 0.931 . S
C1656 C1653 1.382 . S
C1656 C1657 1.390 . S
C1656 H1673 0.931 . S
C1657 C1655 1.372 . S
C1657 C1656 1.390 . S
C1657 H1674 0.929 . S
C1658 C1653 1.390 . S
C1658 C1654 1.392 . S
C1658 H1675 0.930 . S
C1659 O1644 1.254 1_456 S
C1659 O1645 1.257 . S
C1660 Eu1596 2.787 . S
C1660 O1640 1.252 . S
C1660 O1643 1.268 . S
C1660 C1653 1.506 . S
C1661 C1628 1.439 . S
C1661 H1638 0.931 . S
C1661 C1662 1.374 . S
C1662 C1633 1.387 . S
C1662 H1639 0.931 . S
C1662 C1661 1.374 . S
C1663 O1647 1.249 . S
C1663 O1648 1.264 . S
C1664 C1667 1.430 . S
C1664 C1668 1.354 1_556 S
C1664 C1671 1.496 1_556 S
C1665 C1666 1.398 1_554 S
C1665 C1668 1.392 . S
C1666 C1665 1.398 1_556 S
C1666 C1669 1.372 . S
C1666 H1676 0.931 . S
C1667 C1664 1.430 . S
C1667 C1669 1.390 . S
C1667 H1677 0.931 . S
C1668 C1664 1.354 1_554 S
C1668 C1665 1.392 . S
C1668 H1678 0.930 . S
C1669 C1666 1.372 . S
C1669 C1667 1.390 . S
C1669 H1679 0.929 . S
C1670 O1650 1.255 . S
C1670 O1651 1.257 . S
C1671 Eu1607 2.787 . S
C1671 O1646 1.252 . S
C1671 O1649 1.268 1_554 S
C1671 C1664 1.496 1_554 S
H1672 C1655 0.931 . S
H1673 C1656 0.931 . S
H1674 C1657 0.929 . S
H1675 C1658 0.930 . S
H1676 C1666 0.931 . S
H1677 C1667 0.931 . S
H1678 C1668 0.930 . S
H1679 C1669 0.929 . S
C1680 C1681 1.391 1_655 S
C1680 C1682 1.400 . S
C1680 H1696 0.931 . S
C1681 C1680 1.391 1_455 S
C1681 C1685 1.365 1_556 S
C1682 C1680 1.400 . S
C1682 C1683 1.362 1_655 S
C1682 C1686 1.532 . S
C1683 C1682 1.362 1_455 S
C1683 C1684 1.410 1_556 S
C1683 C1691 1.488 1_556 S
C1684 C1683 1.410 1_554 S
C1684 C1685 1.397 . S
C1684 C1687 1.511 . S
C1685 C1681 1.365 1_554 S
C1685 C1684 1.397 . S
C1685 H1697 0.935 . S
C1686 C1682 1.532 . S
C1686 H1698 0.960 1_655 S
C1686 H1699 0.962 . S
C1686 H1700 0.960 . S
C1687 C1684 1.511 . S
C1687 H1701 0.961 . S
C1687 H1702 0.961 . S
C1687 H1703 0.961 . S
C1688 C1689 1.370 . S
C1688 C1690 1.363 . S
C1688 H1704 0.931 1_455 S
C1689 C1688 1.370 . S
C1689 C1693 1.408 . S
C1690 C1688 1.363 . S
C1690 C1691 1.398 . S
C1690 C1694 1.524 1_455 S
C1691 C1683 1.488 1_554 S
C1691 C1690 1.398 . S
C1691 C1692 1.391 1_554 S
C1692 C1691 1.391 1_556 S
C1692 C1693 1.404 1_556 S
C1692 C1695 1.539 . S
C1693 C1689 1.408 . S
C1693 C1692 1.404 1_554 S
C1693 H1705 0.930 1_554 S
C1694 C1690 1.524 1_655 S
C1694 H1706 0.956 . S
C1694 H1707 0.961 . S
C1694 H1708 0.961 . S
C1695 C1692 1.539 . S
C1695 H1709 0.958 . S
C1695 H1710 0.961 . S
C1695 H1711 0.960 . S
H1696 C1680 0.931 . S
H1697 C1685 0.935 . S
H1698 C1686 0.960 1_455 S
H1699 C1686 0.962 . S
H1700 C1686 0.960 . S
H1701 C1687 0.961 . S
H1702 C1687 0.961 . S
H1703 C1687 0.961 . S
H1704 C1688 0.931 1_655 S
H1705 C1693 0.930 1_556 S
H1706 C1694 0.956 . S
H1707 C1694 0.961 . S
H1708 C1694 0.961 . S
H1709 C1695 0.958 . S
H1710 C1695 0.961 . S
H1711 C1695 0.960 . S
C1712 C1713 1.391 . S
C1712 C1714 1.394 . S
C1712 H1728 0.931 . S
C1713 C1712 1.391 . S
C1713 C1717 1.376 . S
C1714 C1712 1.394 . S
C1714 C1715 1.369 . S
C1714 C1718 1.531 . S
C1715 C1714 1.369 . S
C1715 C1716 1.410 . S
C1715 C1723 1.503 . S
C1716 C1715 1.410 . S
C1716 C1717 1.392 . S
C1716 C1719 1.511 . S
C1717 C1713 1.376 . S
C1717 C1716 1.392 . S
C1717 H1729 0.929 . S
C1718 C1714 1.531 . S
C1718 H1730 0.960 . S
C1718 H1731 0.962 . S
C1718 H1732 0.960 . S
C1719 C1716 1.511 . S
C1719 H1733 0.961 . S
C1719 H1734 0.961 . S
C1719 H1735 0.961 . S
C1720 C1721 1.370 . S
C1720 C1722 1.363 . S
C1720 H1736 0.931 . S
C1721 C1720 1.370 . S
C1721 C1725 1.408 . S
C1722 C1720 1.363 . S
C1722 C1723 1.370 . S
C1722 C1726 1.524 . S
C1723 C1715 1.503 . S
C1723 C1722 1.370 . S
C1723 C1724 1.403 . S
C1724 C1723 1.403 . S
C1724 C1725 1.404 . S
C1724 C1727 1.539 . S
C1725 C1721 1.408 . S
C1725 C1724 1.404 . S
C1725 H1737 0.930 . S
C1726 C1722 1.524 . S
C1726 H1738 0.956 . S
C1726 H1739 0.961 . S
C1726 H1740 0.961 . S
C1727 C1724 1.539 . S
C1727 H1741 0.958 . S
C1727 H1742 0.961 . S
C1727 H1743 0.960 . S
H1728 C1712 0.931 . S
H1729 C1717 0.929 . S
H1730 C1718 0.960 . S
H1731 C1718 0.962 . S
H1732 C1718 0.960 . S
H1733 C1719 0.961 . S
H1734 C1719 0.961 . S
H1735 C1719 0.961 . S
H1736 C1720 0.931 . S
H1737 C1725 0.930 . S
H1738 C1726 0.956 . S
H1739 C1726 0.961 . S
H1740 C1726 0.961 . S
H1741 C1727 0.958 . S
H1742 C1727 0.961 . S
H1743 C1727 0.960 . S
C1744 C1745 1.391 . S
C1744 C1746 1.394 . S
C1744 H1760 0.931 . S
C1745 C1744 1.391 . S
C1745 C1749 1.376 . S
C1746 C1744 1.394 . S
C1746 C1747 1.369 . S
C1746 C1750 1.531 . S
C1747 C1746 1.369 . S
C1747 C1748 1.410 . S
C1747 C1755 1.503 . S
C1748 C1747 1.410 . S
C1748 C1749 1.392 . S
C1748 C1751 1.511 . S
C1749 C1745 1.376 . S
C1749 C1748 1.392 . S
C1749 H1761 0.929 . S
C1750 C1746 1.531 . S
C1750 H1762 0.960 . S
C1750 H1763 0.962 . S
C1750 H1764 0.960 . S
C1751 C1748 1.511 . S
C1751 H1765 0.961 . S
C1751 H1766 0.961 . S
C1751 H1767 0.961 . S
C1752 C1753 1.370 . S
C1752 C1754 1.363 . S
C1752 H1768 0.931 . S
C1753 C1752 1.370 . S
C1753 C1757 1.408 . S
C1754 C1752 1.363 . S
C1754 C1755 1.370 . S
C1754 C1758 1.524 . S
C1755 C1747 1.503 . S
C1755 C1754 1.370 . S
C1755 C1756 1.403 . S
C1756 C1755 1.403 . S
C1756 C1757 1.404 . S
C1756 C1759 1.539 . S
C1757 C1753 1.408 . S
C1757 C1756 1.404 . S
C1757 H1769 0.930 . S
C1758 C1754 1.524 . S
C1758 H1770 0.956 . S
C1758 H1771 0.961 . S
C1758 H1772 0.961 . S
C1759 C1756 1.539 . S
C1759 H1773 0.958 . S
C1759 H1774 0.961 . S
C1759 H1775 0.960 . S
H1760 C1744 0.931 . S
H1761 C1749 0.929 . S
H1762 C1750 0.960 . S
H1763 C1750 0.962 . S
H1764 C1750 0.960 . S
H1765 C1751 0.961 . S
H1766 C1751 0.961 . S
H1767 C1751 0.961 . S
H1768 C1752 0.931 . S
H1769 C1757 0.930 . S
H1770 C1758 0.956 . S
H1771 C1758 0.961 . S
H1772 C1758 0.961 . S
H1773 C1759 0.958 . S
H1774 C1759 0.961 . S
H1775 C1759 0.960 . S
C1776 C1777 1.391 . S
C1776 C1778 1.394 . S
C1776 H1792 0.931 . S
C1777 C1776 1.391 . S
C1777 C1781 1.376 . S
C1778 C1776 1.394 . S
C1778 C1779 1.369 . S
C1778 C1782 1.531 . S
C1779 C1778 1.369 . S
C1779 C1780 1.410 . S
C1779 C1787 1.503 . S
C1780 C1779 1.410 . S
C1780 C1781 1.392 . S
C1780 C1783 1.511 . S
C1781 C1777 1.376 . S
C1781 C1780 1.392 . S
C1781 H1793 0.929 . S
C1782 C1778 1.531 . S
C1782 H1794 0.960 . S
C1782 H1795 0.962 . S
C1782 H1796 0.960 . S
C1783 C1780 1.511 . S
C1783 H1797 0.961 . S
C1783 H1798 0.961 . S
C1783 H1799 0.961 . S
C1784 C1785 1.370 . S
C1784 C1786 1.363 . S
C1784 H1800 0.931 . S
C1785 C1784 1.370 . S
C1785 C1789 1.408 . S
C1786 C1784 1.363 . S
C1786 C1787 1.370 . S
C1786 C1790 1.524 . S
C1787 C1779 1.503 . S
C1787 C1786 1.370 . S
C1787 C1788 1.403 . S
C1788 C1787 1.403 . S
C1788 C1789 1.404 . S
C1788 C1791 1.539 . S
C1789 C1785 1.408 . S
C1789 C1788 1.404 . S
C1789 H1801 0.930 . S
C1790 C1786 1.524 . S
C1790 H1802 0.956 . S
C1790 H1803 0.961 . S
C1790 H1804 0.961 . S
C1791 C1788 1.539 . S
C1791 H1805 0.958 . S
C1791 H1806 0.961 . S
C1791 H1807 0.960 . S
H1792 C1776 0.931 . S
H1793 C1781 0.929 . S
H1794 C1782 0.960 . S
H1795 C1782 0.962 . S
H1796 C1782 0.960 . S
H1797 C1783 0.961 . S
H1798 C1783 0.961 . S
H1799 C1783 0.961 . S
H1800 C1784 0.931 . S
H1801 C1789 0.930 . S
H1802 C1790 0.956 . S
H1803 C1790 0.961 . S
H1804 C1790 0.961 . S
H1805 C1791 0.958 . S
H1806 C1791 0.961 . S
H1807 C1791 0.960 . S
C1808 C1809 1.391 . S
C1808 C1810 1.394 . S
C1808 H1824 0.931 . S
C1809 C1808 1.391 . S
C1809 C1813 1.376 . S
C1810 C1808 1.394 . S
C1810 C1811 1.369 . S
C1810 C1814 1.531 . S
C1811 C1810 1.369 . S
C1811 C1812 1.410 . S
C1811 C1819 1.503 . S
C1812 C1811 1.410 . S
C1812 C1813 1.392 . S
C1812 C1815 1.511 1_455 S
C1813 C1809 1.376 . S
C1813 C1812 1.392 . S
C1813 H1825 0.929 1_455 S
C1814 C1810 1.531 . S
C1814 H1826 0.960 . S
C1814 H1827 0.962 . S
C1814 H1828 0.960 . S
C1815 C1812 1.511 1_655 S
C1815 H1829 0.961 . S
C1815 H1830 0.961 . S
C1815 H1831 0.961 . S
C1816 C1817 1.370 . S
C1816 C1818 1.363 . S
C1816 H1832 0.931 . S
C1817 C1816 1.370 . S
C1817 C1821 1.408 . S
C1818 C1816 1.363 . S
C1818 C1819 1.370 . S
C1818 C1822 1.524 . S
C1819 C1811 1.503 . S
C1819 C1818 1.370 . S
C1819 C1820 1.403 . S
C1820 C1819 1.403 . S
C1820 C1821 1.404 . S
C1820 C1823 1.539 . S
C1821 C1817 1.408 . S
C1821 C1820 1.404 . S
C1821 H1833 0.930 . S
C1822 C1818 1.524 . S
C1822 H1834 0.956 . S
C1822 H1835 0.961 . S
C1822 H1836 0.961 . S
C1823 C1820 1.539 . S
C1823 H1837 0.958 . S
C1823 H1838 0.961 1_455 S
C1823 H1839 0.960 1_455 S
H1824 C1808 0.931 . S
H1825 C1813 0.929 1_655 S
H1826 C1814 0.960 . S
H1827 C1814 0.962 . S
H1828 C1814 0.960 . S
H1829 C1815 0.961 . S
H1830 C1815 0.961 . S
H1831 C1815 0.961 . S
H1832 C1816 0.931 . S
H1833 C1821 0.930 . S
H1834 C1822 0.956 . S
H1835 C1822 0.961 . S
H1836 C1822 0.961 . S
H1837 C1823 0.958 . S
H1838 C1823 0.961 1_655 S
H1839 C1823 0.960 1_655 S
C1840 C1841 1.391 . S
C1840 C1842 1.394 . S
C1840 H1856 0.931 . S
C1841 C1840 1.391 . S
C1841 C1845 1.376 . S
C1842 C1840 1.394 . S
C1842 C1843 1.369 . S
C1842 C1846 1.531 . S
C1843 C1842 1.369 . S
C1843 C1844 1.410 . S
C1843 C1851 1.503 . S
C1844 C1843 1.410 . S
C1844 C1845 1.392 . S
C1844 C1847 1.511 . S
C1845 C1841 1.376 . S
C1845 C1844 1.392 . S
C1845 H1857 0.929 . S
C1846 C1842 1.531 . S
C1846 H1858 0.960 . S
C1846 H1859 0.962 . S
C1846 H1860 0.960 . S
C1847 C1844 1.511 . S
C1847 H1861 0.961 . S
C1847 H1862 0.961 . S
C1847 H1863 0.961 . S
C1848 C1849 1.370 . S
C1848 C1850 1.363 . S
C1848 H1864 0.931 . S
C1849 C1848 1.370 . S
C1849 C1853 1.408 . S
C1850 C1848 1.363 . S
C1850 C1851 1.370 . S
C1850 C1854 1.524 . S
C1851 C1843 1.503 . S
C1851 C1850 1.370 . S
C1851 C1852 1.403 . S
C1852 C1851 1.403 . S
C1852 C1853 1.404 . S
C1852 C1855 1.539 . S
C1853 C1849 1.408 . S
C1853 C1852 1.404 . S
C1853 H1865 0.930 . S
C1854 C1850 1.524 . S
C1854 H1866 0.956 . S
C1854 H1867 0.961 . S
C1854 H1868 0.961 . S
C1855 C1852 1.539 . S
C1855 H1869 0.958 . S
C1855 H1870 0.961 . S
C1855 H1871 0.960 . S
H1856 C1840 0.931 . S
H1857 C1845 0.929 . S
H1858 C1846 0.960 . S
H1859 C1846 0.962 . S
H1860 C1846 0.960 . S
H1861 C1847 0.961 . S
H1862 C1847 0.961 . S
H1863 C1847 0.961 . S
H1864 C1848 0.931 . S
H1865 C1853 0.930 . S
H1866 C1854 0.956 . S
H1867 C1854 0.961 . S
H1868 C1854 0.961 . S
H1869 C1855 0.958 . S
H1870 C1855 0.961 . S
H1871 C1855 0.960 . S
C1872 C1873 1.391 . S
C1872 C1874 1.394 . S
C1872 H1888 0.931 . S
C1873 C1872 1.391 . S
C1873 C1877 1.376 . S
C1874 C1872 1.394 . S
C1874 C1875 1.369 . S
C1874 C1878 1.531 . S
C1875 C1874 1.369 . S
C1875 C1876 1.410 . S
C1875 C1883 1.503 . S
C1876 C1875 1.410 . S
C1876 C1877 1.392 . S
C1876 C1879 1.511 . S
C1877 C1873 1.376 . S
C1877 C1876 1.392 . S
C1877 H1889 0.929 . S
C1878 C1874 1.531 . S
C1878 H1890 0.960 . S
C1878 H1891 0.962 . S
C1878 H1892 0.960 . S
C1879 C1876 1.511 . S
C1879 H1893 0.961 . S
C1879 H1894 0.961 . S
C1879 H1895 0.961 . S
C1880 C1881 1.370 . S
C1880 C1882 1.363 . S
C1880 H1896 0.931 . S
C1881 C1880 1.370 . S
C1881 C1885 1.408 . S
C1882 C1880 1.363 . S
C1882 C1883 1.370 . S
C1882 C1886 1.524 . S
C1883 C1875 1.503 . S
C1883 C1882 1.370 . S
C1883 C1884 1.403 . S
C1884 C1883 1.403 . S
C1884 C1885 1.404 . S
C1884 C1887 1.539 . S
C1885 C1881 1.408 . S
C1885 C1884 1.404 . S
C1885 H1897 0.930 . S
C1886 C1882 1.524 . S
C1886 H1898 0.956 . S
C1886 H1899 0.961 . S
C1886 H1900 0.961 . S
C1887 C1884 1.539 . S
C1887 H1901 0.958 . S
C1887 H1902 0.961 . S
C1887 H1903 0.960 . S
H1888 C1872 0.931 . S
H1889 C1877 0.929 . S
H1890 C1878 0.960 . S
H1891 C1878 0.962 . S
H1892 C1878 0.960 . S
H1893 C1879 0.961 . S
H1894 C1879 0.961 . S
H1895 C1879 0.961 . S
H1896 C1880 0.931 . S
H1897 C1885 0.930 . S
H1898 C1886 0.956 . S
H1899 C1886 0.961 . S
H1900 C1886 0.961 . S
H1901 C1887 0.958 . S
H1902 C1887 0.961 . S
H1903 C1887 0.960 . S
C1904 C1905 1.391 . S
C1904 C1906 1.394 . S
C1904 H1920 0.931 . S
C1905 C1904 1.391 . S
C1905 C1909 1.376 . S
C1906 C1904 1.394 . S
C1906 C1907 1.369 . S
C1906 C1910 1.531 . S
C1907 C1906 1.369 . S
C1907 C1908 1.410 . S
C1907 C1915 1.503 . S
C1908 C1907 1.410 . S
C1908 C1909 1.392 . S
C1908 C1911 1.511 . S
C1909 C1905 1.376 . S
C1909 C1908 1.392 . S
C1909 H1921 0.929 . S
C1910 C1906 1.531 . S
C1910 H1922 0.960 . S
C1910 H1923 0.962 . S
C1910 H1924 0.960 . S
C1911 C1908 1.511 . S
C1911 H1925 0.961 . S
C1911 H1926 0.961 . S
C1911 H1927 0.961 . S
C1912 C1913 1.370 . S
C1912 C1914 1.363 . S
C1912 H1928 0.931 . S
C1913 C1912 1.370 . S
C1913 C1917 1.408 . S
C1914 C1912 1.363 . S
C1914 C1915 1.370 . S
C1914 C1918 1.524 . S
C1915 C1907 1.503 . S
C1915 C1914 1.370 . S
C1915 C1916 1.403 . S
C1916 C1915 1.403 . S
C1916 C1917 1.404 . S
C1916 C1919 1.539 . S
C1917 C1913 1.408 . S
C1917 C1916 1.404 . S
C1917 H1929 0.930 . S
C1918 C1914 1.524 . S
C1918 H1930 0.956 . S
C1918 H1931 0.961 . S
C1918 H1932 0.961 . S
C1919 C1916 1.539 . S
C1919 H1933 0.958 . S
C1919 H1934 0.961 . S
C1919 H1935 0.960 . S
H1920 C1904 0.931 . S
H1921 C1909 0.929 . S
H1922 C1910 0.960 . S
H1923 C1910 0.962 . S
H1924 C1910 0.960 . S
H1925 C1911 0.961 . S
H1926 C1911 0.961 . S
H1927 C1911 0.961 . S
H1928 C1912 0.931 . S
H1929 C1917 0.930 . S
H1930 C1918 0.956 . S
H1931 C1918 0.961 . S
H1932 C1918 0.961 . S
H1933 C1919 0.958 . S
H1934 C1919 0.961 . S
H1935 C1919 0.960 . S
C1936 C1937 1.391 . S
C1936 C1938 1.394 . S
C1936 H1952 0.931 . S
C1937 C1936 1.391 . S
C1937 C1941 1.376 . S
C1938 C1936 1.394 . S
C1938 C1939 1.369 . S
C1938 C1942 1.531 . S
C1939 C1938 1.369 . S
C1939 C1940 1.410 . S
C1939 C1947 1.503 . S
C1940 C1939 1.410 . S
C1940 C1941 1.392 . S
C1940 C1943 1.511 1_655 S
C1941 C1937 1.376 . S
C1941 C1940 1.392 . S
C1941 H1953 0.929 . S
C1942 C1938 1.531 . S
C1942 H1954 0.960 . S
C1942 H1955 0.962 . S
C1942 H1956 0.960 . S
C1943 C1940 1.511 1_455 S
C1943 H1957 0.961 . S
C1943 H1958 0.961 . S
C1943 H1959 0.961 . S
C1944 C1945 1.370 1_655 S
C1944 C1946 1.363 . S
C1944 H1960 0.931 . S
C1945 C1944 1.370 1_455 S
C1945 C1949 1.408 . S
C1946 C1944 1.363 . S
C1946 C1947 1.370 . S
C1946 C1950 1.524 1_545 S
C1947 C1939 1.503 . S
C1947 C1946 1.370 . S
C1947 C1948 1.403 1_655 S
C1948 C1947 1.403 1_455 S
C1948 C1949 1.404 . S
C1948 C1951 1.539 . S
C1949 C1945 1.408 . S
C1949 C1948 1.404 . S
C1949 H1961 0.930 . S
C1950 C1946 1.524 1_565 S
C1950 H1962 0.956 . S
C1950 H1963 0.961 . S
C1950 H1964 0.961 . S
C1951 C1948 1.539 . S
C1951 H1965 0.958 1_455 S
C1951 H1966 0.961 . S
C1951 H1967 0.960 . S
H1952 C1936 0.931 . S
H1953 C1941 0.929 . S
H1954 C1942 0.960 . S
H1955 C1942 0.962 . S
H1956 C1942 0.960 . S
H1957 C1943 0.961 . S
H1958 C1943 0.961 . S
H1959 C1943 0.961 . S
H1960 C1944 0.931 . S
H1961 C1949 0.930 . S
H1962 C1950 0.956 . S
H1963 C1950 0.961 . S
H1964 C1950 0.961 . S
H1965 C1951 0.958 1_655 S
H1966 C1951 0.961 . S
H1967 C1951 0.960 . S
C1968 C1969 1.391 . S
C1968 C1970 1.394 . S
C1968 H1984 0.931 . S
C1969 C1968 1.391 . S
C1969 C1973 1.376 . S
C1970 C1968 1.394 . S
C1970 C1971 1.369 . S
C1970 C1974 1.531 . S
C1971 C1970 1.369 . S
C1971 C1972 1.410 . S
C1971 C1979 1.503 . S
C1972 C1971 1.410 . S
C1972 C1973 1.392 . S
C1972 C1975 1.511 . S
C1973 C1969 1.376 . S
C1973 C1972 1.392 . S
C1973 H1985 0.929 . S
C1974 C1970 1.531 . S
C1974 H1986 0.960 . S
C1974 H1987 0.962 . S
C1974 H1988 0.960 . S
C1975 C1972 1.511 . S
C1975 H1989 0.961 . S
C1975 H1990 0.961 . S
C1975 H1991 0.961 . S
C1976 C1977 1.370 . S
C1976 C1978 1.363 . S
C1976 H1992 0.931 . S
C1977 C1976 1.370 . S
C1977 C1981 1.408 . S
C1978 C1976 1.363 . S
C1978 C1979 1.370 . S
C1978 C1982 1.524 . S
C1979 C1971 1.503 . S
C1979 C1978 1.370 . S
C1979 C1980 1.403 . S
C1980 C1979 1.403 . S
C1980 C1981 1.404 . S
C1980 C1983 1.539 . S
C1981 C1977 1.408 . S
C1981 C1980 1.404 . S
C1981 H1993 0.930 . S
C1982 C1978 1.524 . S
C1982 H1994 0.956 . S
C1982 H1995 0.961 . S
C1982 H1996 0.961 . S
C1983 C1980 1.539 . S
C1983 H1997 0.958 . S
C1983 H1998 0.961 . S
C1983 H1999 0.960 . S
H1984 C1968 0.931 . S
H1985 C1973 0.929 . S
H1986 C1974 0.960 . S
H1987 C1974 0.962 . S
H1988 C1974 0.960 . S
H1989 C1975 0.961 . S
H1990 C1975 0.961 . S
H1991 C1975 0.961 . S
H1992 C1976 0.931 . S
H1993 C1981 0.930 . S
H1994 C1982 0.956 . S
H1995 C1982 0.961 . S
H1996 C1982 0.961 . S
H1997 C1983 0.958 . S
H1998 C1983 0.961 . S
H1999 C1983 0.960 . S
C2000 C2001 1.391 . S
C2000 C2002 1.394 . S
C2000 H2016 0.931 . S
C2001 C2000 1.391 . S
C2001 C2005 1.376 . S
C2002 C2000 1.394 . S
C2002 C2003 1.369 . S
C2002 C2006 1.531 . S
C2003 C2002 1.369 . S
C2003 C2004 1.410 . S
C2003 C2011 1.503 . S
C2004 C2003 1.410 . S
C2004 C2005 1.392 . S
C2004 C2007 1.511 . S
C2005 C2001 1.376 . S
C2005 C2004 1.392 . S
C2005 H2017 0.929 . S
C2006 C2002 1.531 . S
C2006 H2018 0.960 . S
C2006 H2019 0.962 . S
C2006 H2020 0.960 . S
C2007 C2004 1.511 . S
C2007 H2021 0.961 . S
C2007 H2022 0.961 . S
C2007 H2023 0.961 1_545 S
C2008 C2009 1.370 . S
C2008 C2010 1.363 . S
C2008 H2024 0.931 . S
C2009 C2008 1.370 . S
C2009 C2013 1.408 . S
C2010 C2008 1.363 . S
C2010 C2011 1.370 . S
C2010 C2014 1.524 . S
C2011 C2003 1.503 . S
C2011 C2010 1.370 . S
C2011 C2012 1.403 . S
C2012 C2011 1.403 . S
C2012 C2013 1.404 . S
C2012 C2015 1.539 1_545 S
C2013 C2009 1.408 . S
C2013 C2012 1.404 . S
C2013 H2025 0.930 1_545 S
C2014 C2010 1.524 . S
C2014 H2026 0.956 . S
C2014 H2027 0.961 . S
C2014 H2028 0.961 . S
C2015 C2012 1.539 1_565 S
C2015 H2029 0.958 . S
C2015 H2030 0.961 . S
C2015 H2031 0.960 . S
H2016 C2000 0.931 . S
H2017 C2005 0.929 . S
H2018 C2006 0.960 . S
H2019 C2006 0.962 . S
H2020 C2006 0.960 . S
H2021 C2007 0.961 . S
H2022 C2007 0.961 . S
H2023 C2007 0.961 1_565 S
H2024 C2008 0.931 . S
H2025 C2013 0.930 1_565 S
H2026 C2014 0.956 . S
H2027 C2014 0.961 . S
H2028 C2014 0.961 . S
H2029 C2015 0.958 . S
H2030 C2015 0.961 . S
H2031 C2015 0.960 . S
C2032 C2033 1.391 . S
C2032 C2034 1.394 . S
C2032 H2048 0.931 . S
C2033 C2032 1.391 . S
C2033 C2037 1.376 . S
C2034 C2032 1.394 . S
C2034 C2035 1.369 . S
C2034 C2038 1.531 . S
C2035 C2034 1.369 . S
C2035 C2036 1.410 . S
C2035 C2043 1.503 . S
C2036 C2035 1.410 . S
C2036 C2037 1.392 . S
C2036 C2039 1.511 . S
C2037 C2033 1.376 . S
C2037 C2036 1.392 . S
C2037 H2049 0.929 . S
C2038 C2034 1.531 . S
C2038 H2050 0.960 . S
C2038 H2051 0.962 . S
C2038 H2052 0.960 . S
C2039 C2036 1.511 . S
C2039 H2053 0.961 . S
C2039 H2054 0.961 . S
C2039 H2055 0.961 . S
C2040 C2041 1.370 . S
C2040 C2042 1.363 . S
C2040 H2056 0.931 . S
C2041 C2040 1.370 . S
C2041 C2045 1.408 . S
C2042 C2040 1.363 . S
C2042 C2043 1.370 . S
C2042 C2046 1.524 . S
C2043 C2035 1.503 . S
C2043 C2042 1.370 . S
C2043 C2044 1.403 . S
C2044 C2043 1.403 . S
C2044 C2045 1.404 . S
C2044 C2047 1.539 . S
C2045 C2041 1.408 . S
C2045 C2044 1.404 . S
C2045 H2057 0.930 . S
C2046 C2042 1.524 . S
C2046 H2058 0.956 . S
C2046 H2059 0.961 . S
C2046 H2060 0.961 . S
C2047 C2044 1.539 . S
C2047 H2061 0.958 . S
C2047 H2062 0.961 . S
C2047 H2063 0.960 . S
H2048 C2032 0.931 . S
H2049 C2037 0.929 . S
H2050 C2038 0.960 . S
H2051 C2038 0.962 . S
H2052 C2038 0.960 . S
H2053 C2039 0.961 . S
H2054 C2039 0.961 . S
H2055 C2039 0.961 . S
H2056 C2040 0.931 . S
H2057 C2045 0.930 . S
H2058 C2046 0.956 . S
H2059 C2046 0.961 . S
H2060 C2046 0.961 . S
H2061 C2047 0.958 . S
H2062 C2047 0.961 . S
H2063 C2047 0.960 . S
C2064 C2065 1.391 . S
C2064 C2066 1.394 . S
C2064 H2080 0.931 . S
C2065 C2064 1.391 . S
C2065 C2069 1.376 . S
C2066 C2064 1.394 . S
C2066 C2067 1.369 . S
C2066 C2070 1.531 1_655 S
C2067 C2066 1.369 . S
C2067 C2068 1.410 . S
C2067 C2075 1.503 . S
C2068 C2067 1.410 . S
C2068 C2069 1.392 . S
C2068 C2071 1.511 1_545 S
C2069 C2065 1.376 . S
C2069 C2068 1.392 . S
C2069 H2081 0.929 1_545 S
C2070 C2066 1.531 1_455 S
C2070 H2082 0.960 . S
C2070 H2083 0.962 . S
C2070 H2084 0.960 . S
C2071 C2068 1.511 1_565 S
C2071 H2085 0.961 . S
C2071 H2086 0.961 . S
C2071 H2087 0.961 1_565 S
C2072 C2073 1.370 . S
C2072 C2074 1.377 . S
C2072 H2088 0.931 1_545 S
C2073 C2072 1.370 . S
C2073 C2077 1.408 1_455 S
C2074 C2072 1.377 . S
C2074 C2075 1.341 1_455 S
C2074 C2078 1.541 1_545 S
C2075 C2067 1.503 . S
C2075 C2074 1.341 1_655 S
C2075 C2076 1.403 . S
C2076 C2075 1.403 . S
C2076 C2077 1.404 . S
C2076 C2079 1.539 . S
C2077 C2073 1.408 1_655 S
C2077 C2076 1.404 . S
C2077 H2089 0.930 . S
C2078 C2074 1.541 1_565 S
C2078 H2090 0.956 . S
C2078 H2091 0.961 1_455 S
C2078 H2092 0.961 . S
C2079 C2076 1.539 . S
C2079 H2093 0.958 . S
C2079 H2094 0.961 . S
C2079 H2095 0.960 . S
H2080 C2064 0.931 . S
H2081 C2069 0.929 1_565 S
H2082 C2070 0.960 . S
H2083 C2070 0.962 . S
H2084 C2070 0.960 . S
H2085 C2071 0.961 . S
H2086 C2071 0.961 . S
H2087 C2071 0.961 1_545 S
H2088 C2072 0.931 1_565 S
H2089 C2077 0.930 . S
H2090 C2078 0.956 . S
H2091 C2078 0.961 1_655 S
H2092 C2078 0.961 . S
H2093 C2079 0.958 . S
H2094 C2079 0.961 . S
H2095 C2079 0.960 . S
C2096 C2097 1.391 . S
C2096 C2098 1.394 . S
C2096 H2112 0.931 . S
C2097 C2096 1.391 . S
C2097 C2101 1.376 . S
C2098 C2096 1.394 . S
C2098 C2099 1.369 . S
C2098 C2102 1.531 . S
C2099 C2098 1.369 . S
C2099 C2100 1.410 . S
C2099 C2107 1.503 . S
C2100 C2099 1.410 . S
C2100 C2101 1.392 . S
C2100 C2103 1.511 . S
C2101 C2097 1.376 . S
C2101 C2100 1.392 . S
C2101 H2113 0.929 . S
C2102 C2098 1.531 . S
C2102 H2114 0.960 . S
C2102 H2115 0.962 . S
C2102 H2116 0.960 . S
C2103 C2100 1.511 . S
C2103 H2117 0.961 . S
C2103 H2118 0.961 . S
C2103 H2119 0.961 . S
C2104 C2105 1.370 . S
C2104 C2106 1.363 . S
C2104 H2120 0.931 . S
C2105 C2104 1.370 . S
C2105 C2109 1.408 . S
C2106 C2104 1.363 . S
C2106 C2107 1.370 . S
C2106 C2110 1.524 . S
C2107 C2099 1.503 . S
C2107 C2106 1.370 . S
C2107 C2108 1.403 . S
C2108 C2107 1.403 . S
C2108 C2109 1.404 . S
C2108 C2111 1.539 . S
C2109 C2105 1.408 . S
C2109 C2108 1.404 . S
C2109 H2121 0.930 . S
C2110 C2106 1.524 . S
C2110 H2122 0.956 . S
C2110 H2123 0.961 . S
C2110 H2124 0.961 . S
C2111 C2108 1.539 . S
C2111 H2125 0.958 . S
C2111 H2126 0.961 . S
C2111 H2127 0.960 . S
H2112 C2096 0.931 . S
H2113 C2101 0.929 . S
H2114 C2102 0.960 . S
H2115 C2102 0.962 . S
H2116 C2102 0.960 . S
H2117 C2103 0.961 . S
H2118 C2103 0.961 . S
H2119 C2103 0.961 . S
H2120 C2104 0.931 . S
H2121 C2109 0.930 . S
H2122 C2110 0.956 . S
H2123 C2110 0.961 . S
H2124 C2110 0.961 . S
H2125 C2111 0.958 . S
H2126 C2111 0.961 . S
H2127 C2111 0.960 . S
C2128 C2129 1.391 . S
C2128 C2130 1.394 . S
C2128 H2144 0.931 . S
C2129 C2128 1.391 . S
C2129 C2133 1.376 . S
C2130 C2128 1.394 . S
C2130 C2131 1.369 . S
C2130 C2134 1.531 . S
C2131 C2130 1.369 . S
C2131 C2132 1.410 . S
C2131 C2139 1.503 . S
C2132 C2131 1.410 . S
C2132 C2133 1.392 . S
C2132 C2135 1.511 . S
C2133 C2129 1.376 . S
C2133 C2132 1.392 . S
C2133 H2145 0.929 . S
C2134 C2130 1.531 . S
C2134 H2146 0.960 . S
C2134 H2147 0.962 . S
C2134 H2148 0.960 . S
C2135 C2132 1.511 . S
C2135 H2149 0.961 . S
C2135 H2150 0.961 . S
C2135 H2151 0.961 . S
C2136 C2137 1.370 . S
C2136 C2138 1.363 . S
C2136 H2152 0.931 . S
C2137 C2136 1.370 . S
C2137 C2141 1.408 . S
C2138 C2136 1.363 . S
C2138 C2139 1.370 . S
C2138 C2142 1.524 . S
C2139 C2131 1.503 . S
C2139 C2138 1.370 . S
C2139 C2140 1.403 . S
C2140 C2139 1.403 . S
C2140 C2141 1.404 . S
C2140 C2143 1.539 . S
C2141 C2137 1.408 . S
C2141 C2140 1.404 . S
C2141 H2153 0.930 . S
C2142 C2138 1.524 . S
C2142 H2154 0.956 . S
C2142 H2155 0.961 . S
C2142 H2156 0.961 . S
C2143 C2140 1.539 . S
C2143 H2157 0.958 . S
C2143 H2158 0.961 . S
C2143 H2159 0.960 . S
H2144 C2128 0.931 . S
H2145 C2133 0.929 . S
H2146 C2134 0.960 . S
H2147 C2134 0.962 . S
H2148 C2134 0.960 . S
H2149 C2135 0.961 . S
H2150 C2135 0.961 . S
H2151 C2135 0.961 . S
H2152 C2136 0.931 . S
H2153 C2141 0.930 . S
H2154 C2142 0.956 . S
H2155 C2142 0.961 . S
H2156 C2142 0.961 . S
H2157 C2143 0.958 . S
H2158 C2143 0.961 . S
H2159 C2143 0.960 . S
C2160 C2161 1.391 . S
C2160 C2162 1.394 . S
C2160 H2176 0.931 . S
C2161 C2160 1.391 . S
C2161 C2165 1.376 . S
C2162 C2160 1.394 . S
C2162 C2163 1.369 . S
C2162 C2166 1.531 . S
C2163 C2162 1.369 . S
C2163 C2164 1.410 . S
C2163 C2171 1.503 . S
C2164 C2163 1.410 . S
C2164 C2165 1.392 . S
C2164 C2167 1.511 . S
C2165 C2161 1.376 . S
C2165 C2164 1.392 . S
C2165 H2177 0.929 . S
C2166 C2162 1.531 . S
C2166 H2178 0.960 . S
C2166 H2179 0.962 . S
C2166 H2180 0.960 . S
C2167 C2164 1.511 . S
C2167 H2181 0.961 . S
C2167 H2182 0.961 . S
C2167 H2183 0.961 . S
C2168 C2169 1.370 . S
C2168 C2170 1.363 . S
C2168 H2184 0.931 . S
C2169 C2168 1.370 . S
C2169 C2173 1.408 . S
C2170 C2168 1.363 . S
C2170 C2171 1.370 . S
C2170 C2174 1.524 . S
C2171 C2163 1.503 . S
C2171 C2170 1.370 . S
C2171 C2172 1.403 . S
C2172 C2171 1.403 . S
C2172 C2173 1.404 . S
C2172 C2175 1.539 . S
C2173 C2169 1.408 . S
C2173 C2172 1.404 . S
C2173 H2185 0.930 . S
C2174 C2170 1.524 . S
C2174 H2186 0.956 . S
C2174 H2187 0.961 . S
C2174 H2188 0.961 . S
C2175 C2172 1.539 . S
C2175 H2189 0.958 . S
C2175 H2190 0.961 . S
C2175 H2191 0.960 . S
H2176 C2160 0.931 . S
H2177 C2165 0.929 . S
H2178 C2166 0.960 . S
H2179 C2166 0.962 . S
H2180 C2166 0.960 . S
H2181 C2167 0.961 . S
H2182 C2167 0.961 . S
H2183 C2167 0.961 . S
H2184 C2168 0.931 . S
H2185 C2173 0.930 . S
H2186 C2174 0.956 . S
H2187 C2174 0.961 . S
H2188 C2174 0.961 . S
H2189 C2175 0.958 . S
H2190 C2175 0.961 . S
H2191 C2175 0.960 . S
C2192 C2193 1.391 . S
C2192 C2194 1.394 . S
C2192 H2208 0.931 1_554 S
C2193 C2192 1.391 . S
C2193 C2197 1.376 . S
C2194 C2192 1.394 . S
C2194 C2195 1.369 . S
C2194 C2198 1.531 . S
C2195 C2194 1.369 . S
C2195 C2196 1.410 . S
C2195 C2203 1.503 . S
C2196 C2195 1.410 . S
C2196 C2197 1.392 . S
C2196 C2199 1.511 1_565 S
C2197 C2193 1.376 . S
C2197 C2196 1.392 . S
C2197 H2209 0.929 . S
C2198 C2194 1.531 . S
C2198 H2210 0.960 . S
C2198 H2211 0.962 1_554 S
C2198 H2212 0.960 . S
C2199 C2196 1.511 1_545 S
C2199 H2213 0.961 . S
C2199 H2214 0.961 . S
C2199 H2215 0.961 . S
C2200 C2201 1.371 . S
C2200 C2202 1.356 1_545 S
C2200 H2216 0.925 1_554 S
C2201 C2200 1.371 . S
C2201 C2205 1.408 1_545 S
C2202 C2200 1.356 1_565 S
C2202 C2203 1.370 . S
C2202 C2206 1.524 1_554 S
C2203 C2195 1.503 . S
C2203 C2202 1.370 . S
C2203 C2204 1.403 . S
C2204 C2203 1.403 . S
C2204 C2205 1.404 . S
C2204 C2207 1.539 . S
C2205 C2201 1.408 1_565 S
C2205 C2204 1.404 . S
C2205 H2217 0.933 . S
C2206 C2202 1.524 1_556 S
C2206 H2218 0.956 . S
C2206 H2219 0.961 . S
C2206 H2220 0.961 . S
C2207 C2204 1.539 . S
C2207 H2221 0.958 . S
C2207 H2222 0.961 . S
C2207 H2223 0.960 . S
H2208 C2192 0.931 1_556 S
H2209 C2197 0.929 . S
H2210 C2198 0.960 . S
H2211 C2198 0.962 1_556 S
H2212 C2198 0.960 . S
H2213 C2199 0.961 . S
H2214 C2199 0.961 . S
H2215 C2199 0.961 . S
H2216 C2200 0.925 1_556 S
H2217 C2205 0.933 . S
H2218 C2206 0.956 . S
H2219 C2206 0.961 . S
H2220 C2206 0.961 . S
H2221 C2207 0.958 . S
H2222 C2207 0.961 . S
H2223 C2207 0.960 . S
C2224 C2225 1.391 . S
C2224 C2226 1.394 . S
C2224 H2240 0.931 . S
C2225 C2224 1.391 . S
C2225 C2229 1.376 . S
C2226 C2224 1.394 . S
C2226 C2227 1.369 . S
C2226 C2230 1.531 . S
C2227 C2226 1.369 . S
C2227 C2228 1.410 . S
C2227 C2235 1.503 . S
C2228 C2227 1.410 . S
C2228 C2229 1.392 . S
C2228 C2231 1.511 . S
C2229 C2225 1.376 . S
C2229 C2228 1.392 . S
C2229 H2241 0.925 1_554 S
C2230 C2226 1.531 . S
C2230 H2242 0.960 . S
C2230 H2243 0.962 . S
C2230 H2244 0.960 . S
C2231 C2228 1.511 . S
C2231 H2245 0.961 1_554 S
C2231 H2246 0.961 1_554 S
C2231 H2247 0.961 . S
C2232 C2233 1.370 1_556 S
C2232 C2234 1.363 . S
C2232 H2248 0.931 . S
C2233 C2232 1.370 1_554 S
C2233 C2237 1.408 . S
C2234 C2232 1.363 . S
C2234 C2235 1.370 1_556 S
C2234 C2238 1.524 . S
C2235 C2227 1.503 . S
C2235 C2234 1.370 1_554 S
C2235 C2236 1.403 . S
C2236 C2235 1.403 . S
C2236 C2237 1.404 . S
C2236 C2239 1.539 . S
C2237 C2233 1.408 . S
C2237 C2236 1.404 . S
C2237 H2249 0.930 . S
C2238 C2234 1.524 . S
C2238 H2250 0.956 . S
C2238 H2251 0.961 . S
C2238 H2252 0.961 . S
C2239 C2236 1.539 . S
C2239 H2253 0.958 . S
C2239 H2254 0.961 . S
C2239 H2255 0.960 . S
H2240 C2224 0.931 . S
H2241 C2229 0.925 1_556 S
H2242 C2230 0.960 . S
H2243 C2230 0.962 . S
H2244 C2230 0.960 . S
H2245 C2231 0.961 1_556 S
H2246 C2231 0.961 1_556 S
H2247 C2231 0.961 . S
H2248 C2232 0.931 . S
H2249 C2237 0.930 . S
H2250 C2238 0.956 . S
H2251 C2238 0.961 . S
H2252 C2238 0.961 . S
H2253 C2239 0.958 . S
H2254 C2239 0.961 . S
H2255 C2239 0.960 . S
C2256 C2257 1.391 . S
C2256 C2258 1.394 . S
C2256 H2272 0.931 . S
C2257 C2256 1.391 . S
C2257 C2261 1.376 . S
C2258 C2256 1.394 . S
C2258 C2259 1.369 . S
C2258 C2262 1.531 . S
C2259 C2258 1.369 . S
C2259 C2260 1.410 . S
C2259 C2267 1.503 . S
C2260 C2259 1.410 . S
C2260 C2261 1.392 . S
C2260 C2263 1.511 . S
C2261 C2257 1.376 . S
C2261 C2260 1.392 . S
C2261 H2273 0.929 . S
C2262 C2258 1.531 . S
C2262 H2274 0.960 . S
C2262 H2275 0.962 . S
C2262 H2276 0.960 . S
C2263 C2260 1.511 . S
C2263 H2277 0.961 . S
C2263 H2278 0.961 . S
C2263 H2279 0.961 . S
C2264 C2265 1.370 . S
C2264 C2266 1.363 . S
C2264 H2280 0.931 . S
C2265 C2264 1.370 . S
C2265 C2269 1.408 . S
C2266 C2264 1.363 . S
C2266 C2267 1.370 . S
C2266 C2270 1.524 . S
C2267 C2259 1.503 . S
C2267 C2266 1.370 . S
C2267 C2268 1.403 . S
C2268 C2267 1.403 . S
C2268 C2269 1.404 . S
C2268 C2271 1.539 . S
C2269 C2265 1.408 . S
C2269 C2268 1.404 . S
C2269 H2281 0.930 . S
C2270 C2266 1.524 . S
C2270 H2282 0.956 . S
C2270 H2283 0.961 . S
C2270 H2284 0.961 . S
C2271 C2268 1.539 . S
C2271 H2285 0.958 . S
C2271 H2286 0.961 . S
C2271 H2287 0.960 . S
H2272 C2256 0.931 . S
H2273 C2261 0.929 . S
H2274 C2262 0.960 . S
H2275 C2262 0.962 . S
H2276 C2262 0.960 . S
H2277 C2263 0.961 . S
H2278 C2263 0.961 . S
H2279 C2263 0.961 . S
H2280 C2264 0.931 . S
H2281 C2269 0.930 . S
H2282 C2270 0.956 . S
H2283 C2270 0.961 . S
H2284 C2270 0.961 . S
H2285 C2271 0.958 . S
H2286 C2271 0.961 . S
H2287 C2271 0.960 . S
C2288 C2289 1.391 . S
C2288 C2290 1.394 . S
C2288 H2304 0.931 . S
C2289 C2288 1.391 . S
C2289 C2293 1.376 . S
C2290 C2288 1.394 . S
C2290 C2291 1.369 . S
C2290 C2294 1.531 . S
C2291 C2290 1.369 . S
C2291 C2292 1.410 . S
C2291 C2299 1.503 . S
C2292 C2291 1.410 . S
C2292 C2293 1.392 . S
C2292 C2295 1.511 . S
C2293 C2289 1.376 . S
C2293 C2292 1.392 . S
C2293 H2305 0.929 . S
C2294 C2290 1.531 . S
C2294 H2306 0.960 . S
C2294 H2307 0.962 . S
C2294 H2308 0.960 . S
C2295 C2292 1.511 . S
C2295 H2309 0.961 . S
C2295 H2310 0.961 . S
C2295 H2311 0.961 . S
C2296 C2297 1.370 . S
C2296 C2298 1.363 . S
C2296 H2312 0.931 . S
C2297 C2296 1.370 . S
C2297 C2301 1.408 . S
C2298 C2296 1.363 . S
C2298 C2299 1.370 . S
C2298 C2302 1.524 . S
C2299 C2291 1.503 . S
C2299 C2298 1.370 . S
C2299 C2300 1.403 . S
C2300 C2299 1.403 . S
C2300 C2301 1.404 . S
C2300 C2303 1.539 . S
C2301 C2297 1.408 . S
C2301 C2300 1.404 . S
C2301 H2313 0.930 . S
C2302 C2298 1.524 . S
C2302 H2314 0.956 . S
C2302 H2315 0.961 . S
C2302 H2316 0.961 . S
C2303 C2300 1.539 . S
C2303 H2317 0.958 . S
C2303 H2318 0.961 . S
C2303 H2319 0.960 . S
H2304 C2288 0.931 . S
H2305 C2293 0.929 . S
H2306 C2294 0.960 . S
H2307 C2294 0.962 . S
H2308 C2294 0.960 . S
H2309 C2295 0.961 . S
H2310 C2295 0.961 . S
H2311 C2295 0.961 . S
H2312 C2296 0.931 . S
H2313 C2301 0.930 . S
H2314 C2302 0.956 . S
H2315 C2302 0.961 . S
H2316 C2302 0.961 . S
H2317 C2303 0.958 . S
H2318 C2303 0.961 . S
H2319 C2303 0.960 . S
C2320 C2321 1.391 . S
C2320 C2322 1.394 . S
C2320 H2336 0.931 . S
C2321 C2320 1.391 . S
C2321 C2325 1.376 . S
C2322 C2320 1.394 . S
C2322 C2323 1.369 . S
C2322 C2326 1.531 . S
C2323 C2322 1.369 . S
C2323 C2324 1.410 . S
C2323 C2331 1.503 . S
C2324 C2323 1.410 . S
C2324 C2325 1.392 . S
C2324 C2327 1.511 . S
C2325 C2321 1.376 . S
C2325 C2324 1.392 . S
C2325 H2337 0.929 . S
C2326 C2322 1.531 . S
C2326 H2338 0.960 . S
C2326 H2339 0.962 . S
C2326 H2340 0.960 . S
C2327 C2324 1.511 . S
C2327 H2341 0.961 . S
C2327 H2342 0.961 . S
C2327 H2343 0.961 . S
C2328 C2329 1.370 . S
C2328 C2330 1.363 . S
C2328 H2344 0.931 . S
C2329 C2328 1.370 . S
C2329 C2333 1.408 . S
C2330 C2328 1.363 . S
C2330 C2331 1.370 . S
C2330 C2334 1.524 . S
C2331 C2323 1.503 . S
C2331 C2330 1.370 . S
C2331 C2332 1.403 . S
C2332 C2331 1.403 . S
C2332 C2333 1.404 . S
C2332 C2335 1.539 . S
C2333 C2329 1.408 . S
C2333 C2332 1.404 . S
C2333 H2345 0.930 . S
C2334 C2330 1.524 . S
C2334 H2346 0.956 . S
C2334 H2347 0.961 . S
C2334 H2348 0.961 . S
C2335 C2332 1.539 . S
C2335 H2349 0.958 . S
C2335 H2350 0.961 . S
C2335 H2351 0.960 . S
H2336 C2320 0.931 . S
H2337 C2325 0.929 . S
H2338 C2326 0.960 . S
H2339 C2326 0.962 . S
H2340 C2326 0.960 . S
H2341 C2327 0.961 . S
H2342 C2327 0.961 . S
H2343 C2327 0.961 . S
H2344 C2328 0.931 . S
H2345 C2333 0.930 . S
H2346 C2334 0.956 . S
H2347 C2334 0.961 . S
H2348 C2334 0.961 . S
H2349 C2335 0.958 . S
H2350 C2335 0.961 . S
H2351 C2335 0.960 . S
C2352 C2353 1.391 . S
C2352 C2354 1.394 . S
C2352 H2368 0.931 . S
C2353 C2352 1.391 . S
C2353 C2357 1.376 . S
C2354 C2352 1.394 . S
C2354 C2355 1.369 . S
C2354 C2358 1.531 . S
C2355 C2354 1.369 . S
C2355 C2356 1.410 . S
C2355 C2363 1.503 . S
C2356 C2355 1.410 . S
C2356 C2357 1.392 . S
C2356 C2359 1.511 . S
C2357 C2353 1.376 . S
C2357 C2356 1.392 . S
C2357 H2369 0.929 . S
C2358 C2354 1.531 . S
C2358 H2370 0.960 . S
C2358 H2371 0.962 . S
C2358 H2372 0.960 . S
C2359 C2356 1.511 . S
C2359 H2373 0.961 . S
C2359 H2374 0.961 . S
C2359 H2375 0.961 . S
C2360 C2361 1.370 . S
C2360 C2362 1.363 . S
C2360 H2376 0.931 . S
C2361 C2360 1.370 . S
C2361 C2365 1.408 . S
C2362 C2360 1.363 . S
C2362 C2363 1.370 . S
C2362 C2366 1.524 . S
C2363 C2355 1.503 . S
C2363 C2362 1.370 . S
C2363 C2364 1.403 . S
C2364 C2363 1.403 . S
C2364 C2365 1.404 . S
C2364 C2367 1.539 . S
C2365 C2361 1.408 . S
C2365 C2364 1.404 . S
C2365 H2377 0.930 . S
C2366 C2362 1.524 . S
C2366 H2378 0.956 . S
C2366 H2379 0.961 . S
C2366 H2380 0.961 . S
C2367 C2364 1.539 . S
C2367 H2381 0.958 . S
C2367 H2382 0.961 . S
C2367 H2383 0.960 . S
H2368 C2352 0.931 . S
H2369 C2357 0.929 . S
H2370 C2358 0.960 . S
H2371 C2358 0.962 . S
H2372 C2358 0.960 . S
H2373 C2359 0.961 . S
H2374 C2359 0.961 . S
H2375 C2359 0.961 . S
H2376 C2360 0.931 . S
H2377 C2365 0.930 . S
H2378 C2366 0.956 . S
H2379 C2366 0.961 . S
H2380 C2366 0.961 . S
H2381 C2367 0.958 . S
H2382 C2367 0.961 . S
H2383 C2367 0.960 . S
C2384 C2385 1.391 . S
C2384 C2386 1.394 . S
C2384 H2400 0.931 . S
C2385 C2384 1.391 . S
C2385 C2389 1.376 . S
C2386 C2384 1.394 . S
C2386 C2387 1.369 . S
C2386 C2390 1.531 . S
C2387 C2386 1.369 . S
C2387 C2388 1.410 . S
C2387 C2395 1.503 . S
C2388 C2387 1.410 . S
C2388 C2389 1.392 . S
C2388 C2391 1.511 . S
C2389 C2385 1.376 . S
C2389 C2388 1.392 . S
C2389 H2401 0.929 . S
C2390 C2386 1.531 . S
C2390 H2402 0.960 . S
C2390 H2403 0.962 . S
C2390 H2404 0.960 . S
C2391 C2388 1.511 . S
C2391 H2405 0.961 . S
C2391 H2406 0.961 . S
C2391 H2407 0.961 . S
C2392 C2393 1.370 . S
C2392 C2394 1.363 . S
C2392 H2408 0.931 . S
C2393 C2392 1.370 . S
C2393 C2397 1.408 . S
C2394 C2392 1.363 . S
C2394 C2395 1.370 . S
C2394 C2398 1.524 . S
C2395 C2387 1.503 . S
C2395 C2394 1.370 . S
C2395 C2396 1.403 . S
C2396 C2395 1.403 . S
C2396 C2397 1.404 . S
C2396 C2399 1.539 . S
C2397 C2393 1.408 . S
C2397 C2396 1.404 . S
C2397 H2409 0.930 . S
C2398 C2394 1.524 . S
C2398 H2410 0.956 . S
C2398 H2411 0.961 . S
C2398 H2412 0.961 . S
C2399 C2396 1.539 . S
C2399 H2413 0.958 . S
C2399 H2414 0.961 . S
C2399 H2415 0.960 . S
H2400 C2384 0.931 . S
H2401 C2389 0.929 . S
H2402 C2390 0.960 . S
H2403 C2390 0.962 . S
H2404 C2390 0.960 . S
H2405 C2391 0.961 . S
H2406 C2391 0.961 . S
H2407 C2391 0.961 . S
H2408 C2392 0.931 . S
H2409 C2397 0.930 . S
H2410 C2398 0.956 . S
H2411 C2398 0.961 . S
H2412 C2398 0.961 . S
H2413 C2399 0.958 . S
H2414 C2399 0.961 . S
H2415 C2399 0.960 . S
C2416 C2417 1.391 . S
C2416 C2418 1.394 . S
C2416 H2432 0.931 . S
C2417 C2416 1.391 . S
C2417 C2421 1.376 . S
C2418 C2416 1.394 . S
C2418 C2419 1.369 . S
C2418 C2422 1.531 . S
C2419 C2418 1.369 . S
C2419 C2420 1.410 . S
C2419 C2427 1.503 . S
C2420 C2419 1.410 . S
C2420 C2421 1.392 . S
C2420 C2423 1.511 . S
C2421 C2417 1.376 . S
C2421 C2420 1.392 . S
C2421 H2433 0.929 . S
C2422 C2418 1.531 . S
C2422 H2434 0.960 . S
C2422 H2435 0.962 . S
C2422 H2436 0.960 . S
C2423 C2420 1.511 . S
C2423 H2437 0.961 . S
C2423 H2438 0.961 . S
C2423 H2439 0.961 . S
C2424 C2425 1.370 . S
C2424 C2426 1.363 . S
C2424 H2440 0.931 . S
C2425 C2424 1.370 . S
C2425 C2429 1.408 . S
C2426 C2424 1.363 . S
C2426 C2427 1.370 . S
C2426 C2430 1.524 . S
C2427 C2419 1.503 . S
C2427 C2426 1.370 . S
C2427 C2428 1.403 . S
C2428 C2427 1.403 . S
C2428 C2429 1.404 . S
C2428 C2431 1.539 . S
C2429 C2425 1.408 . S
C2429 C2428 1.404 . S
C2429 H2441 0.930 . S
C2430 C2426 1.524 . S
C2430 H2442 0.956 . S
C2430 H2443 0.961 . S
C2430 H2444 0.961 . S
C2431 C2428 1.539 . S
C2431 H2445 0.958 . S
C2431 H2446 0.961 . S
C2431 H2447 0.960 . S
H2432 C2416 0.931 . S
H2433 C2421 0.929 . S
H2434 C2422 0.960 . S
H2435 C2422 0.962 . S
H2436 C2422 0.960 . S
H2437 C2423 0.961 . S
H2438 C2423 0.961 . S
H2439 C2423 0.961 . S
H2440 C2424 0.931 . S
H2441 C2429 0.930 . S
H2442 C2430 0.956 . S
H2443 C2430 0.961 . S
H2444 C2430 0.961 . S
H2445 C2431 0.958 . S
H2446 C2431 0.961 . S
H2447 C2431 0.960 . S
C2448 C2449 1.391 . S
C2448 C2450 1.394 . S
C2448 H2464 0.931 . S
C2449 C2448 1.391 . S
C2449 C2453 1.376 . S
C2450 C2448 1.394 . S
C2450 C2451 1.369 . S
C2450 C2454 1.531 . S
C2451 C2450 1.369 . S
C2451 C2452 1.410 . S
C2451 C2459 1.503 . S
C2452 C2451 1.410 . S
C2452 C2453 1.392 . S
C2452 C2455 1.511 . S
C2453 C2449 1.376 . S
C2453 C2452 1.392 . S
C2453 H2465 0.929 . S
C2454 C2450 1.531 . S
C2454 H2466 0.960 . S
C2454 H2467 0.962 . S
C2454 H2468 0.960 . S
C2455 C2452 1.511 . S
C2455 H2469 0.961 . S
C2455 H2470 0.961 . S
C2455 H2471 0.961 . S
C2456 C2457 1.370 . S
C2456 C2458 1.363 . S
C2456 H2472 0.931 . S
C2457 C2456 1.370 . S
C2457 C2461 1.408 . S
C2458 C2456 1.363 . S
C2458 C2459 1.370 . S
C2458 C2462 1.524 . S
C2459 C2451 1.503 . S
C2459 C2458 1.370 . S
C2459 C2460 1.403 . S
C2460 C2459 1.403 . S
C2460 C2461 1.404 . S
C2460 C2463 1.539 . S
C2461 C2457 1.408 . S
C2461 C2460 1.404 . S
C2461 H2473 0.930 . S
C2462 C2458 1.524 . S
C2462 H2474 0.956 . S
C2462 H2475 0.961 . S
C2462 H2476 0.961 . S
C2463 C2460 1.539 . S
C2463 H2477 0.958 . S
C2463 H2478 0.961 . S
C2463 H2479 0.960 . S
H2464 C2448 0.931 . S
H2465 C2453 0.929 . S
H2466 C2454 0.960 . S
H2467 C2454 0.962 . S
H2468 C2454 0.960 . S
H2469 C2455 0.961 . S
H2470 C2455 0.961 . S
H2471 C2455 0.961 . S
H2472 C2456 0.931 . S
H2473 C2461 0.930 . S
H2474 C2462 0.956 . S
H2475 C2462 0.961 . S
H2476 C2462 0.961 . S
H2477 C2463 0.958 . S
H2478 C2463 0.961 . S
H2479 C2463 0.960 . S
C2480 C2481 1.391 . S
C2480 C2482 1.394 . S
C2480 H2496 0.931 . S
C2481 C2480 1.391 . S
C2481 C2485 1.376 . S
C2482 C2480 1.394 . S
C2482 C2483 1.369 . S
C2482 C2486 1.531 . S
C2483 C2482 1.369 . S
C2483 C2484 1.410 . S
C2483 C2491 1.503 . S
C2484 C2483 1.410 . S
C2484 C2485 1.392 . S
C2484 C2487 1.511 . S
C2485 C2481 1.376 . S
C2485 C2484 1.392 . S
C2485 H2497 0.929 . S
C2486 C2482 1.531 . S
C2486 H2498 0.960 . S
C2486 H2499 0.962 . S
C2486 H2500 0.960 . S
C2487 C2484 1.511 . S
C2487 H2501 0.961 . S
C2487 H2502 0.961 . S
C2487 H2503 0.961 . S
C2488 C2489 1.370 . S
C2488 C2490 1.363 . S
C2488 H2504 0.931 . S
C2489 C2488 1.370 . S
C2489 C2493 1.408 . S
C2490 C2488 1.363 . S
C2490 C2491 1.370 . S
C2490 C2494 1.524 . S
C2491 C2483 1.503 . S
C2491 C2490 1.370 . S
C2491 C2492 1.403 . S
C2492 C2491 1.403 . S
C2492 C2493 1.404 . S
C2492 C2495 1.539 . S
C2493 C2489 1.408 . S
C2493 C2492 1.404 . S
C2493 H2505 0.930 . S
C2494 C2490 1.524 . S
C2494 H2506 0.956 . S
C2494 H2507 0.961 . S
C2494 H2508 0.961 . S
C2495 C2492 1.539 . S
C2495 H2509 0.958 . S
C2495 H2510 0.961 . S
C2495 H2511 0.960 . S
H2496 C2480 0.931 . S
H2497 C2485 0.929 . S
H2498 C2486 0.960 . S
H2499 C2486 0.962 . S
H2500 C2486 0.960 . S
H2501 C2487 0.961 . S
H2502 C2487 0.961 . S
H2503 C2487 0.961 . S
H2504 C2488 0.931 . S
H2505 C2493 0.930 . S
H2506 C2494 0.956 . S
H2507 C2494 0.961 . S
H2508 C2494 0.961 . S
H2509 C2495 0.958 . S
H2510 C2495 0.961 . S
H2511 C2495 0.960 . S
C2512 C2513 1.391 . S
C2512 C2514 1.394 . S
C2512 H2528 0.931 . S
C2513 C2512 1.391 . S
C2513 C2517 1.376 . S
C2514 C2512 1.394 . S
C2514 C2515 1.369 . S
C2514 C2518 1.531 . S
C2515 C2514 1.369 . S
C2515 C2516 1.410 . S
C2515 C2523 1.503 . S
C2516 C2515 1.410 . S
C2516 C2517 1.392 . S
C2516 C2519 1.511 . S
C2517 C2513 1.376 . S
C2517 C2516 1.392 . S
C2517 H2529 0.929 . S
C2518 C2514 1.531 . S
C2518 H2530 0.960 . S
C2518 H2531 0.962 . S
C2518 H2532 0.960 . S
C2519 C2516 1.511 . S
C2519 H2533 0.961 . S
C2519 H2534 0.961 . S
C2519 H2535 0.961 . S
C2520 C2521 1.370 . S
C2520 C2522 1.363 . S
C2520 H2536 0.931 . S
C2521 C2520 1.370 . S
C2521 C2525 1.408 . S
C2522 C2520 1.363 . S
C2522 C2523 1.370 . S
C2522 C2526 1.524 . S
C2523 C2515 1.503 . S
C2523 C2522 1.370 . S
C2523 C2524 1.403 . S
C2524 C2523 1.403 . S
C2524 C2525 1.404 . S
C2524 C2527 1.539 . S
C2525 C2521 1.408 . S
C2525 C2524 1.404 . S
C2525 H2537 0.930 . S
C2526 C2522 1.524 . S
C2526 H2538 0.956 . S
C2526 H2539 0.961 . S
C2526 H2540 0.961 . S
C2527 C2524 1.539 . S
C2527 H2541 0.958 . S
C2527 H2542 0.961 . S
C2527 H2543 0.960 . S
H2528 C2512 0.931 . S
H2529 C2517 0.929 . S
H2530 C2518 0.960 . S
H2531 C2518 0.962 . S
H2532 C2518 0.960 . S
H2533 C2519 0.961 . S
H2534 C2519 0.961 . S
H2535 C2519 0.961 . S
H2536 C2520 0.931 . S
H2537 C2525 0.930 . S
H2538 C2526 0.956 . S
H2539 C2526 0.961 . S
H2540 C2526 0.961 . S
H2541 C2527 0.958 . S
H2542 C2527 0.961 . S
H2543 C2527 0.960 . S
C2544 C2545 1.391 . S
C2544 C2546 1.394 . S
C2544 H2560 0.931 . S
C2545 C2544 1.391 . S
C2545 C2549 1.376 . S
C2546 C2544 1.394 . S
C2546 C2547 1.369 . S
C2546 C2550 1.531 . S
C2547 C2546 1.369 . S
C2547 C2548 1.410 . S
C2547 C2555 1.503 . S
C2548 C2547 1.410 . S
C2548 C2549 1.392 . S
C2548 C2551 1.511 . S
C2549 C2545 1.376 . S
C2549 C2548 1.392 . S
C2549 H2561 0.929 . S
C2550 C2546 1.531 . S
C2550 H2562 0.960 . S
C2550 H2563 0.962 . S
C2550 H2564 0.960 . S
C2551 C2548 1.511 . S
C2551 H2565 0.961 . S
C2551 H2566 0.961 . S
C2551 H2567 0.961 . S
C2552 C2553 1.370 . S
C2552 C2554 1.363 . S
C2552 H2568 0.931 . S
C2553 C2552 1.370 . S
C2553 C2557 1.408 . S
C2554 C2552 1.363 . S
C2554 C2555 1.370 . S
C2554 C2558 1.524 . S
C2555 C2547 1.503 . S
C2555 C2554 1.370 . S
C2555 C2556 1.403 . S
C2556 C2555 1.403 . S
C2556 C2557 1.404 . S
C2556 C2559 1.539 . S
C2557 C2553 1.408 . S
C2557 C2556 1.404 . S
C2557 H2569 0.930 . S
C2558 C2554 1.524 . S
C2558 H2570 0.956 . S
C2558 H2571 0.961 . S
C2558 H2572 0.961 . S
C2559 C2556 1.539 . S
C2559 H2573 0.958 . S
C2559 H2574 0.961 . S
C2559 H2575 0.960 . S
H2560 C2544 0.931 . S
H2561 C2549 0.929 . S
H2562 C2550 0.960 . S
H2563 C2550 0.962 . S
H2564 C2550 0.960 . S
H2565 C2551 0.961 . S
H2566 C2551 0.961 . S
H2567 C2551 0.961 . S
H2568 C2552 0.931 . S
H2569 C2557 0.930 . S
H2570 C2558 0.956 . S
H2571 C2558 0.961 . S
H2572 C2558 0.961 . S
H2573 C2559 0.958 . S
H2574 C2559 0.961 . S
H2575 C2559 0.960 . S
C2576 C2577 1.391 . S
C2576 C2578 1.394 . S
C2576 H2592 0.931 . S
C2577 C2576 1.391 . S
C2577 C2581 1.376 . S
C2578 C2576 1.394 . S
C2578 C2579 1.369 . S
C2578 C2582 1.531 1_455 S
C2579 C2578 1.369 . S
C2579 C2580 1.410 . S
C2579 C2587 1.503 . S
C2580 C2579 1.410 . S
C2580 C2581 1.392 . S
C2580 C2583 1.511 . S
C2581 C2577 1.376 . S
C2581 C2580 1.392 . S
C2581 H2593 0.929 . S
C2582 C2578 1.531 1_655 S
C2582 H2594 0.960 . S
C2582 H2595 0.962 . S
C2582 H2596 0.960 . S
C2583 C2580 1.511 . S
C2583 H2597 0.961 . S
C2583 H2598 0.961 . S
C2583 H2599 0.961 . S
C2584 C2585 1.370 . S
C2584 C2586 1.363 . S
C2584 H2600 0.931 . S
C2585 C2584 1.370 . S
C2585 C2589 1.408 . S
C2586 C2584 1.363 . S
C2586 C2587 1.370 . S
C2586 C2590 1.524 . S
C2587 C2579 1.503 . S
C2587 C2586 1.370 . S
C2587 C2588 1.403 . S
C2588 C2587 1.403 . S
C2588 C2589 1.404 . S
C2588 C2591 1.539 . S
C2589 C2585 1.408 . S
C2589 C2588 1.404 . S
C2589 H2601 0.930 . S
C2590 C2586 1.524 . S
C2590 H2602 0.956 . S
C2590 H2603 0.961 . S
C2590 H2604 0.961 . S
C2591 C2588 1.539 . S
C2591 H2605 0.958 . S
C2591 H2606 0.961 . S
C2591 H2607 0.960 . S
H2592 C2576 0.931 . S
H2593 C2581 0.929 . S
H2594 C2582 0.960 . S
H2595 C2582 0.962 . S
H2596 C2582 0.960 . S
H2597 C2583 0.961 . S
H2598 C2583 0.961 . S
H2599 C2583 0.961 . S
H2600 C2584 0.931 . S
H2601 C2589 0.930 . S
H2602 C2590 0.956 . S
H2603 C2590 0.961 . S
H2604 C2590 0.961 . S
H2605 C2591 0.958 . S
H2606 C2591 0.961 . S
H2607 C2591 0.960 . S
C2608 C2609 1.391 . S
C2608 C2610 1.394 . S
C2608 H2624 0.931 . S
C2609 C2608 1.391 . S
C2609 C2613 1.376 . S
C2610 C2608 1.394 . S
C2610 C2611 1.369 . S
C2610 C2614 1.531 . S
C2611 C2610 1.369 . S
C2611 C2612 1.410 . S
C2611 C2619 1.503 . S
C2612 C2611 1.410 . S
C2612 C2613 1.392 . S
C2612 C2615 1.511 . S
C2613 C2609 1.376 . S
C2613 C2612 1.392 . S
C2613 H2625 0.929 . S
C2614 C2610 1.531 . S
C2614 H2626 0.960 . S
C2614 H2627 0.962 . S
C2614 H2628 0.960 . S
C2615 C2612 1.511 . S
C2615 H2629 0.961 . S
C2615 H2630 0.961 . S
C2615 H2631 0.961 . S
C2616 C2617 1.370 . S
C2616 C2618 1.363 . S
C2616 H2632 0.931 . S
C2617 C2616 1.370 . S
C2617 C2621 1.408 . S
C2618 C2616 1.363 . S
C2618 C2619 1.370 . S
C2618 C2622 1.524 . S
C2619 C2611 1.503 . S
C2619 C2618 1.370 . S
C2619 C2620 1.403 . S
C2620 C2619 1.403 . S
C2620 C2621 1.404 . S
C2620 C2623 1.539 . S
C2621 C2617 1.408 . S
C2621 C2620 1.404 . S
C2621 H2633 0.930 . S
C2622 C2618 1.524 . S
C2622 H2634 0.956 . S
C2622 H2635 0.961 . S
C2622 H2636 0.961 . S
C2623 C2620 1.539 . S
C2623 H2637 0.958 . S
C2623 H2638 0.961 . S
C2623 H2639 0.960 . S
H2624 C2608 0.931 . S
H2625 C2613 0.929 . S
H2626 C2614 0.960 . S
H2627 C2614 0.962 . S
H2628 C2614 0.960 . S
H2629 C2615 0.961 . S
H2630 C2615 0.961 . S
H2631 C2615 0.961 . S
H2632 C2616 0.931 . S
H2633 C2621 0.930 . S
H2634 C2622 0.956 . S
H2635 C2622 0.961 . S
H2636 C2622 0.961 . S
H2637 C2623 0.958 . S
H2638 C2623 0.961 . S
H2639 C2623 0.960 . S
C2640 C2641 1.391 . S
C2640 C2642 1.394 . S
C2640 H2656 0.931 . S
C2641 C2640 1.391 . S
C2641 C2645 1.376 . S
C2642 C2640 1.394 . S
C2642 C2643 1.369 . S
C2642 C2646 1.531 . S
C2643 C2642 1.369 . S
C2643 C2644 1.410 . S
C2643 C2651 1.503 . S
C2644 C2643 1.410 . S
C2644 C2645 1.392 . S
C2644 C2647 1.511 . S
C2645 C2641 1.376 . S
C2645 C2644 1.392 . S
C2645 H2657 0.929 . S
C2646 C2642 1.531 . S
C2646 H2658 0.960 . S
C2646 H2659 0.962 . S
C2646 H2660 0.960 . S
C2647 C2644 1.511 . S
C2647 H2661 0.961 . S
C2647 H2662 0.961 . S
C2647 H2663 0.961 . S
C2648 C2649 1.370 . S
C2648 C2650 1.363 . S
C2648 H2664 0.931 . S
C2649 C2648 1.370 . S
C2649 C2653 1.408 . S
C2650 C2648 1.363 . S
C2650 C2651 1.370 . S
C2650 C2654 1.524 . S
C2651 C2643 1.503 . S
C2651 C2650 1.370 . S
C2651 C2652 1.403 . S
C2652 C2651 1.403 . S
C2652 C2653 1.404 . S
C2652 C2655 1.539 . S
C2653 C2649 1.408 . S
C2653 C2652 1.404 . S
C2653 H2665 0.930 1_556 S
C2654 C2650 1.524 . S
C2654 H2666 0.956 . S
C2654 H2667 0.961 . S
C2654 H2668 0.961 . S
C2655 C2652 1.539 . S
C2655 H2669 0.958 . S
C2655 H2670 0.961 1_556 S
C2655 H2671 0.960 . S
H2656 C2640 0.931 . S
H2657 C2645 0.929 . S
H2658 C2646 0.960 . S
H2659 C2646 0.962 . S
H2660 C2646 0.960 . S
H2661 C2647 0.961 . S
H2662 C2647 0.961 . S
H2663 C2647 0.961 . S
H2664 C2648 0.931 . S
H2665 C2653 0.930 1_554 S
H2666 C2654 0.956 . S
H2667 C2654 0.961 . S
H2668 C2654 0.961 . S
H2669 C2655 0.958 . S
H2670 C2655 0.961 1_554 S
H2671 C2655 0.960 . S
C2672 C2673 1.391 . S
C2672 C2674 1.394 . S
C2672 H2688 0.931 . S
C2673 C2672 1.391 . S
C2673 C2677 1.376 . S
C2674 C2672 1.394 . S
C2674 C2675 1.369 . S
C2674 C2678 1.531 . S
C2675 C2674 1.369 . S
C2675 C2676 1.410 . S
C2675 C2683 1.503 . S
C2676 C2675 1.410 . S
C2676 C2677 1.392 . S
C2676 C2679 1.511 . S
C2677 C2673 1.376 . S
C2677 C2676 1.392 . S
C2677 H2689 0.929 . S
C2678 C2674 1.531 . S
C2678 H2690 0.960 . S
C2678 H2691 0.962 . S
C2678 H2692 0.960 . S
C2679 C2676 1.511 . S
C2679 H2693 0.961 . S
C2679 H2694 0.961 . S
C2679 H2695 0.961 . S
C2680 C2681 1.370 . S
C2680 C2682 1.363 . S
C2680 H2696 0.931 . S
C2681 C2680 1.370 . S
C2681 C2685 1.408 . S
C2682 C2680 1.363 . S
C2682 C2683 1.370 . S
C2682 C2686 1.524 . S
C2683 C2675 1.503 . S
C2683 C2682 1.370 . S
C2683 C2684 1.403 . S
C2684 C2683 1.403 . S
C2684 C2685 1.404 . S
C2684 C2687 1.539 . S
C2685 C2681 1.408 . S
C2685 C2684 1.404 . S
C2685 H2697 0.930 . S
C2686 C2682 1.524 . S
C2686 H2698 0.956 . S
C2686 H2699 0.961 . S
C2686 H2700 0.961 . S
C2687 C2684 1.539 . S
C2687 H2701 0.958 . S
C2687 H2702 0.961 . S
C2687 H2703 0.960 . S
H2688 C2672 0.931 . S
H2689 C2677 0.929 . S
H2690 C2678 0.960 . S
H2691 C2678 0.962 . S
H2692 C2678 0.960 . S
H2693 C2679 0.961 . S
H2694 C2679 0.961 . S
H2695 C2679 0.961 . S
H2696 C2680 0.931 . S
H2697 C2685 0.930 . S
H2698 C2686 0.956 . S
H2699 C2686 0.961 . S
H2700 C2686 0.961 . S
H2701 C2687 0.958 . S
H2702 C2687 0.961 . S
H2703 C2687 0.960 . S
C2704 C2705 1.391 . S
C2704 C2706 1.394 . S
C2704 H2720 0.931 . S
C2705 C2704 1.391 . S
C2705 C2709 1.376 . S
C2706 C2704 1.394 . S
C2706 C2707 1.369 . S
C2706 C2710 1.531 . S
C2707 C2706 1.369 . S
C2707 C2708 1.410 . S
C2707 C2715 1.503 . S
C2708 C2707 1.410 . S
C2708 C2709 1.392 . S
C2708 C2711 1.511 . S
C2709 C2705 1.376 . S
C2709 C2708 1.392 . S
C2709 H2721 0.929 . S
C2710 C2706 1.531 . S
C2710 H2722 0.960 . S
C2710 H2723 0.962 . S
C2710 H2724 0.960 . S
C2711 C2708 1.511 . S
C2711 H2725 0.961 1_545 S
C2711 H2726 0.970 . S
C2711 H2727 0.961 . S
C2712 C2713 1.370 . S
C2712 C2714 1.363 . S
C2712 H2728 0.931 . S
C2713 C2712 1.370 . S
C2713 C2717 1.408 . S
C2714 C2712 1.363 . S
C2714 C2715 1.370 . S
C2714 C2718 1.524 . S
C2715 C2707 1.503 . S
C2715 C2714 1.370 . S
C2715 C2716 1.403 . S
C2716 C2715 1.403 . S
C2716 C2717 1.404 . S
C2716 C2719 1.539 . S
C2717 C2713 1.408 . S
C2717 C2716 1.404 . S
C2717 H2729 0.930 . S
C2718 C2714 1.524 . S
C2718 H2730 0.956 . S
C2718 H2731 0.961 . S
C2718 H2732 0.961 . S
C2719 C2716 1.539 . S
C2719 H2733 0.958 . S
C2719 H2734 0.961 . S
C2719 H2735 0.960 . S
H2720 C2704 0.931 . S
H2721 C2709 0.929 . S
H2722 C2710 0.960 . S
H2723 C2710 0.962 . S
H2724 C2710 0.960 . S
H2725 C2711 0.961 1_565 S
H2726 C2711 0.970 . S
H2727 C2711 0.961 . S
H2728 C2712 0.931 . S
H2729 C2717 0.930 . S
H2730 C2718 0.956 . S
H2731 C2718 0.961 . S
H2732 C2718 0.961 . S
H2733 C2719 0.958 . S
H2734 C2719 0.961 . S
H2735 C2719 0.960 . S
C2736 C2737 1.391 . S
C2736 C2738 1.394 . S
C2736 H2752 0.931 . S
C2737 C2736 1.391 . S
C2737 C2741 1.376 . S
C2738 C2736 1.394 . S
C2738 C2739 1.369 . S
C2738 C2742 1.531 . S
C2739 C2738 1.369 . S
C2739 C2740 1.410 . S
C2739 C2747 1.503 . S
C2740 C2739 1.410 . S
C2740 C2741 1.392 . S
C2740 C2743 1.511 . S
C2741 C2737 1.376 . S
C2741 C2740 1.392 . S
C2741 H2753 0.929 . S
C2742 C2738 1.531 . S
C2742 H2754 0.960 . S
C2742 H2755 0.962 . S
C2742 H2756 0.960 . S
C2743 C2740 1.511 . S
C2743 H2757 0.961 . S
C2743 H2758 0.961 . S
C2743 H2759 0.961 . S
C2744 C2745 1.370 . S
C2744 C2746 1.363 . S
C2744 H2760 0.931 . S
C2745 C2744 1.370 . S
C2745 C2749 1.408 . S
C2746 C2744 1.363 . S
C2746 C2747 1.370 . S
C2746 C2750 1.524 . S
C2747 C2739 1.503 . S
C2747 C2746 1.370 . S
C2747 C2748 1.403 . S
C2748 C2747 1.403 . S
C2748 C2749 1.404 . S
C2748 C2751 1.539 . S
C2749 C2745 1.408 . S
C2749 C2748 1.404 . S
C2749 H2761 0.930 . S
C2750 C2746 1.524 . S
C2750 H2762 0.956 . S
C2750 H2763 0.961 . S
C2750 H2764 0.961 . S
C2751 C2748 1.539 . S
C2751 H2765 0.958 . S
C2751 H2766 0.961 . S
C2751 H2767 0.960 . S
H2752 C2736 0.931 . S
H2753 C2741 0.929 . S
H2754 C2742 0.960 . S
H2755 C2742 0.962 . S
H2756 C2742 0.960 . S
H2757 C2743 0.961 . S
H2758 C2743 0.961 . S
H2759 C2743 0.961 . S
H2760 C2744 0.931 . S
H2761 C2749 0.930 . S
H2762 C2750 0.956 . S
H2763 C2750 0.961 . S
H2764 C2750 0.961 . S
H2765 C2751 0.958 . S
H2766 C2751 0.961 . S
H2767 C2751 0.960 . S
C2768 C2769 1.391 1_565 S
C2768 C2770 1.394 . S
C2768 H2784 0.931 . S
C2769 C2768 1.391 1_545 S
C2769 C2773 1.376 . S
C2770 C2768 1.394 . S
C2770 C2771 1.369 1_565 S
C2770 C2774 1.531 . S
C2771 C2770 1.369 1_545 S
C2771 C2772 1.410 . S
C2771 C2779 1.503 . S
C2772 C2771 1.410 . S
C2772 C2773 1.392 . S
C2772 C2775 1.511 . S
C2773 C2769 1.376 . S
C2773 C2772 1.392 . S
C2773 H2785 0.929 . S
C2774 C2770 1.531 . S
C2774 H2786 0.960 . S
C2774 H2787 0.962 . S
C2774 H2788 0.960 . S
C2775 C2772 1.511 . S
C2775 H2789 0.961 . S
C2775 H2790 0.961 . S
C2775 H2791 0.961 . S
C2776 C2777 1.370 . S
C2776 C2778 1.363 . S
C2776 H2792 0.931 . S
C2777 C2776 1.370 . S
C2777 C2781 1.408 . S
C2778 C2776 1.363 . S
C2778 C2779 1.370 . S
C2778 C2782 1.524 . S
C2779 C2771 1.503 . S
C2779 C2778 1.370 . S
C2779 C2780 1.435 . S
C2780 C2779 1.435 . S
C2780 C2781 1.402 . S
C2780 C2783 1.511 1_545 S
C2781 C2777 1.408 . S
C2781 C2780 1.402 . S
C2781 H2793 0.930 1_545 S
C2782 C2778 1.524 . S
C2782 H2794 0.956 . S
C2782 H2795 0.961 . S
C2782 H2796 0.961 . S
C2783 C2780 1.511 1_565 S
C2783 H2797 0.958 . S
C2783 H2798 0.961 . S
C2783 H2799 0.960 . S
H2784 C2768 0.931 . S
H2785 C2773 0.929 . S
H2786 C2774 0.960 . S
H2787 C2774 0.962 . S
H2788 C2774 0.960 . S
H2789 C2775 0.961 . S
H2790 C2775 0.961 . S
H2791 C2775 0.961 . S
H2792 C2776 0.931 . S
H2793 C2781 0.930 1_565 S
H2794 C2782 0.956 . S
H2795 C2782 0.961 . S
H2796 C2782 0.961 . S
H2797 C2783 0.958 . S
H2798 C2783 0.961 . S
H2799 C2783 0.960 . S
C2800 C2801 1.391 . S
C2800 C2802 1.394 . S
C2800 H2816 0.931 . S
C2801 C2800 1.391 . S
C2801 C2805 1.376 . S
C2802 C2800 1.394 . S
C2802 C2803 1.369 . S
C2802 C2806 1.531 . S
C2803 C2802 1.369 . S
C2803 C2804 1.410 . S
C2803 C2811 1.503 . S
C2804 C2803 1.410 . S
C2804 C2805 1.392 . S
C2804 C2807 1.511 . S
C2805 C2801 1.376 . S
C2805 C2804 1.392 . S
C2805 H2817 0.929 . S
C2806 C2802 1.531 . S
C2806 H2818 0.960 . S
C2806 H2819 0.962 . S
C2806 H2820 0.960 . S
C2807 C2804 1.511 . S
C2807 H2821 0.961 . S
C2807 H2822 0.961 . S
C2807 H2823 0.961 . S
C2808 C2809 1.370 . S
C2808 C2810 1.363 . S
C2808 H2824 0.931 . S
C2809 C2808 1.370 . S
C2809 C2813 1.408 . S
C2810 C2808 1.363 . S
C2810 C2811 1.370 . S
C2810 C2814 1.524 . S
C2811 C2803 1.503 . S
C2811 C2810 1.370 . S
C2811 C2812 1.403 . S
C2812 C2811 1.403 . S
C2812 C2813 1.404 . S
C2812 C2815 1.539 . S
C2813 C2809 1.408 . S
C2813 C2812 1.404 . S
C2813 H2825 0.930 . S
C2814 C2810 1.524 . S
C2814 H2826 0.956 . S
C2814 H2827 0.961 . S
C2814 H2828 0.961 . S
C2815 C2812 1.539 . S
C2815 H2829 0.958 . S
C2815 H2830 0.961 . S
C2815 H2831 0.960 . S
H2816 C2800 0.931 . S
H2817 C2805 0.929 . S
H2818 C2806 0.960 . S
H2819 C2806 0.962 . S
H2820 C2806 0.960 . S
H2821 C2807 0.961 . S
H2822 C2807 0.961 . S
H2823 C2807 0.961 . S
H2824 C2808 0.931 . S
H2825 C2813 0.930 . S
H2826 C2814 0.956 . S
H2827 C2814 0.961 . S
H2828 C2814 0.961 . S
H2829 C2815 0.958 . S
H2830 C2815 0.961 . S
H2831 C2815 0.960 . S
C2832 C2833 1.391 . S
C2832 C2834 1.394 . S
C2832 H2848 0.931 . S
C2833 C2832 1.391 . S
C2833 C2837 1.376 . S
C2834 C2832 1.394 . S
C2834 C2835 1.369 . S
C2834 C2838 1.531 . S
C2835 C2834 1.369 . S
C2835 C2836 1.410 . S
C2835 C2843 1.503 . S
C2836 C2835 1.410 . S
C2836 C2837 1.392 . S
C2836 C2839 1.511 . S
C2837 C2833 1.376 . S
C2837 C2836 1.392 . S
C2837 H2849 0.929 . S
C2838 C2834 1.531 . S
C2838 H2850 0.960 . S
C2838 H2851 0.962 . S
C2838 H2852 0.960 . S
C2839 C2836 1.511 . S
C2839 H2853 0.961 . S
C2839 H2854 0.961 . S
C2839 H2855 0.961 . S
C2840 C2841 1.370 . S
C2840 C2842 1.363 . S
C2840 H2856 0.931 . S
C2841 C2840 1.370 . S
C2841 C2845 1.408 . S
C2842 C2840 1.363 . S
C2842 C2843 1.370 . S
C2842 C2846 1.524 1_545 S
C2843 C2835 1.503 . S
C2843 C2842 1.370 . S
C2843 C2844 1.403 . S
C2844 C2843 1.403 . S
C2844 C2845 1.404 . S
C2844 C2847 1.539 . S
C2845 C2841 1.408 . S
C2845 C2844 1.404 . S
C2845 H2857 0.930 . S
C2846 C2842 1.524 1_565 S
C2846 H2858 0.956 . S
C2846 H2859 0.961 1_565 S
C2846 H2860 0.961 . S
C2847 C2844 1.539 . S
C2847 H2861 0.958 . S
C2847 H2862 0.961 . S
C2847 H2863 0.960 . S
H2848 C2832 0.931 . S
H2849 C2837 0.929 . S
H2850 C2838 0.960 . S
H2851 C2838 0.962 . S
H2852 C2838 0.960 . S
H2853 C2839 0.961 . S
H2854 C2839 0.961 . S
H2855 C2839 0.961 . S
H2856 C2840 0.931 . S
H2857 C2845 0.930 . S
H2858 C2846 0.956 . S
H2859 C2846 0.961 1_545 S
H2860 C2846 0.961 . S
H2861 C2847 0.958 . S
H2862 C2847 0.961 . S
H2863 C2847 0.960 . S
C2864 C2865 1.391 . S
C2864 C2866 1.394 . S
C2864 H2880 0.931 . S
C2865 C2864 1.391 . S
C2865 C2869 1.376 . S
C2866 C2864 1.394 . S
C2866 C2867 1.369 . S
C2866 C2870 1.531 . S
C2867 C2866 1.369 . S
C2867 C2868 1.410 . S
C2867 C2875 1.503 . S
C2868 C2867 1.410 . S
C2868 C2869 1.392 . S
C2868 C2871 1.511 . S
C2869 C2865 1.376 . S
C2869 C2868 1.392 . S
C2869 H2881 0.929 . S
C2870 C2866 1.531 . S
C2870 H2882 0.960 . S
C2870 H2883 0.962 . S
C2870 H2884 0.960 . S
C2871 C2868 1.511 . S
C2871 H2885 0.961 . S
C2871 H2886 0.961 . S
C2871 H2887 0.961 . S
C2872 C2873 1.370 . S
C2872 C2874 1.363 . S
C2872 H2888 0.931 . S
C2873 C2872 1.370 . S
C2873 C2877 1.408 . S
C2874 C2872 1.363 . S
C2874 C2875 1.370 . S
C2874 C2878 1.524 . S
C2875 C2867 1.503 . S
C2875 C2874 1.370 . S
C2875 C2876 1.403 . S
C2876 C2875 1.403 . S
C2876 C2877 1.404 . S
C2876 C2879 1.539 . S
C2877 C2873 1.408 . S
C2877 C2876 1.404 . S
C2877 H2889 0.930 . S
C2878 C2874 1.524 . S
C2878 H2890 0.956 . S
C2878 H2891 0.961 . S
C2878 H2892 0.961 . S
C2879 C2876 1.539 . S
C2879 H2893 0.958 . S
C2879 H2894 0.961 . S
C2879 H2895 0.960 . S
H2880 C2864 0.931 . S
H2881 C2869 0.929 . S
H2882 C2870 0.960 . S
H2883 C2870 0.962 . S
H2884 C2870 0.960 . S
H2885 C2871 0.961 . S
H2886 C2871 0.961 . S
H2887 C2871 0.961 . S
H2888 C2872 0.931 . S
H2889 C2877 0.930 . S
H2890 C2878 0.956 . S
H2891 C2878 0.961 . S
H2892 C2878 0.961 . S
H2893 C2879 0.958 . S
H2894 C2879 0.961 . S
H2895 C2879 0.960 . S
C2896 C2897 1.380 1_565 S
C2896 C2898 1.394 . S
C2896 H2912 0.943 . S
C2897 C2896 1.380 1_545 S
C2897 C2901 1.376 . S
C2898 C2896 1.394 . S
C2898 C2899 1.369 1_565 S
C2898 C2902 1.531 . S
C2899 C2898 1.369 1_545 S
C2899 C2900 1.410 . S
C2899 C2907 1.503 . S
C2900 C2899 1.410 . S
C2900 C2901 1.392 . S
C2900 C2903 1.511 . S
C2901 C2897 1.376 . S
C2901 C2900 1.392 . S
C2901 H2913 0.929 . S
C2902 C2898 1.531 . S
C2902 H2914 0.960 . S
C2902 H2915 0.962 1_565 S
C2902 H2916 0.960 . S
C2903 C2900 1.511 . S
C2903 H2917 0.961 . S
C2903 H2918 0.961 . S
C2903 H2919 0.961 1_545 S
C2904 C2905 1.370 . S
C2904 C2906 1.363 . S
C2904 H2920 0.931 . S
C2905 C2904 1.370 . S
C2905 C2909 1.408 1_545 S
C2906 C2904 1.363 . S
C2906 C2907 1.370 . S
C2906 C2910 1.524 . S
C2907 C2899 1.503 . S
C2907 C2906 1.370 . S
C2907 C2908 1.403 1_545 S
C2908 C2907 1.403 1_565 S
C2908 C2909 1.404 . S
C2908 C2911 1.539 . S
C2909 C2905 1.408 1_565 S
C2909 C2908 1.404 . S
C2909 H2921 0.930 . S
C2910 C2906 1.524 . S
C2910 H2922 0.956 . S
C2910 H2923 0.961 . S
C2910 H2924 0.961 . S
C2911 C2908 1.539 . S
C2911 H2925 0.958 . S
C2911 H2926 0.961 . S
C2911 H2927 0.960 . S
H2912 C2896 0.943 . S
H2913 C2901 0.929 . S
H2914 C2902 0.960 . S
H2915 C2902 0.962 1_545 S
H2916 C2902 0.960 . S
H2917 C2903 0.961 . S
H2918 C2903 0.961 . S
H2919 C2903 0.961 1_565 S
H2920 C2904 0.931 . S
H2921 C2909 0.930 . S
H2922 C2910 0.956 . S
H2923 C2910 0.961 . S
H2924 C2910 0.961 . S
H2925 C2911 0.958 . S
H2926 C2911 0.961 . S
H2927 C2911 0.960 . S
C2928 C2929 1.391 . S
C2928 C2930 1.394 . S
C2928 H2944 0.931 . S
C2929 C2928 1.391 . S
C2929 C2933 1.376 . S
C2930 C2928 1.394 . S
C2930 C2931 1.369 . S
C2930 C2934 1.531 . S
C2931 C2930 1.369 . S
C2931 C2932 1.410 . S
C2931 C2939 1.503 . S
C2932 C2931 1.410 . S
C2932 C2933 1.392 . S
C2932 C2935 1.511 . S
C2933 C2929 1.376 . S
C2933 C2932 1.392 . S
C2933 H2945 0.929 . S
C2934 C2930 1.531 . S
C2934 H2946 0.960 . S
C2934 H2947 0.962 . S
C2934 H2948 0.960 . S
C2935 C2932 1.511 . S
C2935 H2949 0.961 . S
C2935 H2950 0.961 . S
C2935 H2951 0.961 . S
C2936 C2937 1.370 . S
C2936 C2938 1.363 . S
C2936 H2952 0.931 . S
C2937 C2936 1.370 . S
C2937 C2941 1.408 . S
C2938 C2936 1.363 . S
C2938 C2939 1.370 . S
C2938 C2942 1.524 . S
C2939 C2931 1.503 . S
C2939 C2938 1.370 . S
C2939 C2940 1.403 . S
C2940 C2939 1.403 . S
C2940 C2941 1.404 . S
C2940 C2943 1.539 . S
C2941 C2937 1.408 . S
C2941 C2940 1.404 . S
C2941 H2953 0.930 . S
C2942 C2938 1.524 . S
C2942 H2954 0.956 . S
C2942 H2955 0.961 . S
C2942 H2956 0.961 . S
C2943 C2940 1.539 . S
C2943 H2957 0.958 . S
C2943 H2958 0.961 . S
C2943 H2959 0.960 . S
H2944 C2928 0.931 . S
H2945 C2933 0.929 . S
H2946 C2934 0.960 . S
H2947 C2934 0.962 . S
H2948 C2934 0.960 . S
H2949 C2935 0.961 . S
H2950 C2935 0.961 . S
H2951 C2935 0.961 . S
H2952 C2936 0.931 . S
H2953 C2941 0.930 . S
H2954 C2942 0.956 . S
H2955 C2942 0.961 . S
H2956 C2942 0.961 . S
H2957 C2943 0.958 . S
H2958 C2943 0.961 . S
H2959 C2943 0.960 . S
C2960 C2961 1.391 . S
C2960 C2962 1.394 . S
C2960 H2976 0.931 . S
C2961 C2960 1.391 . S
C2961 C2965 1.376 . S
C2962 C2960 1.394 . S
C2962 C2963 1.369 . S
C2962 C2966 1.531 . S
C2963 C2962 1.369 . S
C2963 C2964 1.410 . S
C2963 C2971 1.503 . S
C2964 C2963 1.410 . S
C2964 C2965 1.392 . S
C2964 C2967 1.511 . S
C2965 C2961 1.376 . S
C2965 C2964 1.392 . S
C2965 H2977 0.929 . S
C2966 C2962 1.531 . S
C2966 H2978 0.960 1_554 S
C2966 H2979 0.962 . S
C2966 H2980 0.960 1_554 S
C2967 C2964 1.511 . S
C2967 H2981 0.961 . S
C2967 H2982 0.961 . S
C2967 H2983 0.961 . S
C2968 C2969 1.370 . S
C2968 C2970 1.363 . S
C2968 H2984 0.931 . S
C2969 C2968 1.370 . S
C2969 C2973 1.408 . S
C2970 C2968 1.363 . S
C2970 C2971 1.370 . S
C2970 C2974 1.524 . S
C2971 C2963 1.503 . S
C2971 C2970 1.370 . S
C2971 C2972 1.403 . S
C2972 C2971 1.403 . S
C2972 C2973 1.404 . S
C2972 C2975 1.539 . S
C2973 C2969 1.408 . S
C2973 C2972 1.404 . S
C2973 H2985 0.930 . S
C2974 C2970 1.524 . S
C2974 H2986 0.956 . S
C2974 H2987 0.961 . S
C2974 H2988 0.961 . S
C2975 C2972 1.539 . S
C2975 H2989 0.958 . S
C2975 H2990 0.961 . S
C2975 H2991 0.960 . S
H2976 C2960 0.931 . S
H2977 C2965 0.929 . S
H2978 C2966 0.960 1_556 S
H2979 C2966 0.962 . S
H2980 C2966 0.960 1_556 S
H2981 C2967 0.961 . S
H2982 C2967 0.961 . S
H2983 C2967 0.961 . S
H2984 C2968 0.931 . S
H2985 C2973 0.930 . S
H2986 C2974 0.956 . S
H2987 C2974 0.961 . S
H2988 C2974 0.961 . S
H2989 C2975 0.958 . S
H2990 C2975 0.961 . S
H2991 C2975 0.960 . S
C2992 C2993 1.391 . S
C2992 C2994 1.394 . S
C2992 H3008 0.931 . S
C2993 C2992 1.391 . S
C2993 C2997 1.376 . S
C2994 C2992 1.394 . S
C2994 C2995 1.369 . S
C2994 C2998 1.531 . S
C2995 C2994 1.369 . S
C2995 C2996 1.410 . S
C2995 C3003 1.503 . S
C2996 C2995 1.410 . S
C2996 C2997 1.392 . S
C2996 C2999 1.511 1_554 S
C2997 C2993 1.376 . S
C2997 C2996 1.392 . S
C2997 H3009 0.929 . S
C2998 C2994 1.531 . S
C2998 H3010 0.960 . S
C2998 H3011 0.962 . S
C2998 H3012 0.960 . S
C2999 C2996 1.511 1_556 S
C2999 H3013 0.961 . S
C2999 H3014 0.961 . S
C2999 H3015 0.961 . S
C3000 C3001 1.370 . S
C3000 C3002 1.363 . S
C3000 H3016 0.931 . S
C3001 C3000 1.370 . S
C3001 C3005 1.408 . S
C3002 C3000 1.363 . S
C3002 C3003 1.370 . S
C3002 C3006 1.524 . S
C3003 C2995 1.503 . S
C3003 C3002 1.370 . S
C3003 C3004 1.403 . S
C3004 C3003 1.403 . S
C3004 C3005 1.404 . S
C3004 C3007 1.539 . S
C3005 C3001 1.408 . S
C3005 C3004 1.404 . S
C3005 H3017 0.930 . S
C3006 C3002 1.524 . S
C3006 H3018 0.956 . S
C3006 H3019 0.961 . S
C3006 H3020 0.961 . S
C3007 C3004 1.539 . S
C3007 H3021 0.958 . S
C3007 H3022 0.961 . S
C3007 H3023 0.960 . S
H3008 C2992 0.931 . S
H3009 C2997 0.929 . S
H3010 C2998 0.960 . S
H3011 C2998 0.962 . S
H3012 C2998 0.960 . S
H3013 C2999 0.961 . S
H3014 C2999 0.961 . S
H3015 C2999 0.961 . S
H3016 C3000 0.931 . S
H3017 C3005 0.930 . S
H3018 C3006 0.956 . S
H3019 C3006 0.961 . S
H3020 C3006 0.961 . S
H3021 C3007 0.958 . S
H3022 C3007 0.961 . S
H3023 C3007 0.960 . S
C3024 C3025 1.391 . S
C3024 C3026 1.394 . S
C3024 H3040 0.931 . S
C3025 C3024 1.391 . S
C3025 C3029 1.376 . S
C3026 C3024 1.394 . S
C3026 C3027 1.369 . S
C3026 C3030 1.531 . S
C3027 C3026 1.369 . S
C3027 C3028 1.410 . S
C3027 C3035 1.503 . S
C3028 C3027 1.410 . S
C3028 C3029 1.392 . S
C3028 C3031 1.511 . S
C3029 C3025 1.376 . S
C3029 C3028 1.392 . S
C3029 H3041 0.929 . S
C3030 C3026 1.531 . S
C3030 H3042 0.960 . S
C3030 H3043 0.962 . S
C3030 H3044 0.960 . S
C3031 C3028 1.511 . S
C3031 H3045 0.961 . S
C3031 H3046 0.961 . S
C3031 H3047 0.961 . S
C3032 C3033 1.370 . S
C3032 C3034 1.363 . S
C3032 H3048 0.931 . S
C3033 C3032 1.370 . S
C3033 C3037 1.408 . S
C3034 C3032 1.363 . S
C3034 C3035 1.370 . S
C3034 C3038 1.524 . S
C3035 C3027 1.503 . S
C3035 C3034 1.370 . S
C3035 C3036 1.403 . S
C3036 C3035 1.403 . S
C3036 C3037 1.404 . S
C3036 C3039 1.539 . S
C3037 C3033 1.408 . S
C3037 C3036 1.404 . S
C3037 H3049 0.930 . S
C3038 C3034 1.524 . S
C3038 H3050 0.956 . S
C3038 H3051 0.961 . S
C3038 H3052 0.961 . S
C3039 C3036 1.539 . S
C3039 H3053 0.958 . S
C3039 H3054 0.961 . S
C3039 H3055 0.960 . S
H3040 C3024 0.931 . S
H3041 C3029 0.929 . S
H3042 C3030 0.960 . S
H3043 C3030 0.962 . S
H3044 C3030 0.960 . S
H3045 C3031 0.961 . S
H3046 C3031 0.961 . S
H3047 C3031 0.961 . S
H3048 C3032 0.931 . S
H3049 C3037 0.930 . S
H3050 C3038 0.956 . S
H3051 C3038 0.961 . S
H3052 C3038 0.961 . S
H3053 C3039 0.958 . S
H3054 C3039 0.961 . S
H3055 C3039 0.960 . S
C3056 C3057 1.391 . S
C3056 C3058 1.394 . S
C3056 H3072 0.931 . S
C3057 C3056 1.391 . S
C3057 C3061 1.376 . S
C3058 C3056 1.394 . S
C3058 C3059 1.369 . S
C3058 C3062 1.531 . S
C3059 C3058 1.369 . S
C3059 C3060 1.410 . S
C3059 C3067 1.503 . S
C3060 C3059 1.410 . S
C3060 C3061 1.392 . S
C3060 C3063 1.511 . S
C3061 C3057 1.376 . S
C3061 C3060 1.392 . S
C3061 H3073 0.929 . S
C3062 C3058 1.531 . S
C3062 H3074 0.960 . S
C3062 H3075 0.962 . S
C3062 H3076 0.960 . S
C3063 C3060 1.511 . S
C3063 H3077 0.961 . S
C3063 H3078 0.961 . S
C3063 H3079 0.961 . S
C3064 C3065 1.370 . S
C3064 C3066 1.363 . S
C3064 H3080 0.931 . S
C3065 C3064 1.370 . S
C3065 C3069 1.408 . S
C3066 C3064 1.363 . S
C3066 C3067 1.370 . S
C3066 C3070 1.524 . S
C3067 C3059 1.503 . S
C3067 C3066 1.370 . S
C3067 C3068 1.403 . S
C3068 C3067 1.403 . S
C3068 C3069 1.404 . S
C3068 C3071 1.539 . S
C3069 C3065 1.408 . S
C3069 C3068 1.404 . S
C3069 H3081 0.930 . S
C3070 C3066 1.524 . S
C3070 H3082 0.956 . S
C3070 H3083 0.961 . S
C3070 H3084 0.961 . S
C3071 C3068 1.539 . S
C3071 H3085 0.958 . S
C3071 H3086 0.961 . S
C3071 H3087 0.960 . S
H3072 C3056 0.931 . S
H3073 C3061 0.929 . S
H3074 C3062 0.960 . S
H3075 C3062 0.962 . S
H3076 C3062 0.960 . S
H3077 C3063 0.961 . S
H3078 C3063 0.961 . S
H3079 C3063 0.961 . S
H3080 C3064 0.931 . S
H3081 C3069 0.930 . S
H3082 C3070 0.956 . S
H3083 C3070 0.961 . S
H3084 C3070 0.961 . S
H3085 C3071 0.958 . S
H3086 C3071 0.961 . S
H3087 C3071 0.960 . S
C3088 C3089 1.391 1_565 S
C3088 C3090 1.394 . S
C3088 H3104 0.931 . S
C3089 C3088 1.391 1_545 S
C3089 C3093 1.376 . S
C3090 C3088 1.394 . S
C3090 C3091 1.369 . S
C3090 C3094 1.531 . S
C3091 C3090 1.369 . S
C3091 C3092 1.410 . S
C3091 C3099 1.503 . S
C3092 C3091 1.410 . S
C3092 C3093 1.392 1_565 S
C3092 C3095 1.511 . S
C3093 C3089 1.376 . S
C3093 C3092 1.392 1_545 S
C3093 H3105 0.929 . S
C3094 C3090 1.531 . S
C3094 H3106 0.960 . S
C3094 H3107 0.962 . S
C3094 H3108 0.960 . S
C3095 C3092 1.511 . S
C3095 H3109 0.961 1_565 S
C3095 H3110 0.961 . S
C3095 H3111 0.961 . S
C3096 C3097 1.370 . S
C3096 C3098 1.363 . S
C3096 H3112 0.931 . S
C3097 C3096 1.370 . S
C3097 C3101 1.408 . S
C3098 C3096 1.363 . S
C3098 C3099 1.370 . S
C3098 C3102 1.524 . S
C3099 C3091 1.503 . S
C3099 C3098 1.370 . S
C3099 C3100 1.403 . S
C3100 C3099 1.403 . S
C3100 C3101 1.404 . S
C3100 C3103 1.539 . S
C3101 C3097 1.408 . S
C3101 C3100 1.404 . S
C3101 H3113 0.930 . S
C3102 C3098 1.524 . S
C3102 H3114 0.956 . S
C3102 H3115 0.961 . S
C3102 H3116 0.961 . S
C3103 C3100 1.539 . S
C3103 H3117 0.958 . S
C3103 H3118 0.961 . S
C3103 H3119 0.960 . S
H3104 C3088 0.931 . S
H3105 C3093 0.929 . S
H3106 C3094 0.960 . S
H3107 C3094 0.962 . S
H3108 C3094 0.960 . S
H3109 C3095 0.961 1_545 S
H3110 C3095 0.961 . S
H3111 C3095 0.961 . S
H3112 C3096 0.931 . S
H3113 C3101 0.930 . S
H3114 C3102 0.956 . S
H3115 C3102 0.961 . S
H3116 C3102 0.961 . S
H3117 C3103 0.958 . S
H3118 C3103 0.961 . S
H3119 C3103 0.960 . S
C3120 C3121 1.391 . S
C3120 C3122 1.394 . S
C3120 H3136 0.931 . S
C3121 C3120 1.391 . S
C3121 C3125 1.376 . S
C3122 C3120 1.394 . S
C3122 C3123 1.369 . S
C3122 C3126 1.531 . S
C3123 C3122 1.369 . S
C3123 C3124 1.410 . S
C3123 C3131 1.503 . S
C3124 C3123 1.410 . S
C3124 C3125 1.392 . S
C3124 C3127 1.511 . S
C3125 C3121 1.376 . S
C3125 C3124 1.392 . S
C3125 H3137 0.929 . S
C3126 C3122 1.531 . S
C3126 H3138 0.960 . S
C3126 H3139 0.962 . S
C3126 H3140 0.960 . S
C3127 C3124 1.511 . S
C3127 H3141 0.961 . S
C3127 H3142 0.961 . S
C3127 H3143 0.961 . S
C3128 C3129 1.370 . S
C3128 C3130 1.363 . S
C3128 H3144 0.931 . S
C3129 C3128 1.370 . S
C3129 C3133 1.408 . S
C3130 C3128 1.363 . S
C3130 C3131 1.370 . S
C3130 C3134 1.524 . S
C3131 C3123 1.503 . S
C3131 C3130 1.370 . S
C3131 C3132 1.403 . S
C3132 C3131 1.403 . S
C3132 C3133 1.404 . S
C3132 C3135 1.539 . S
C3133 C3129 1.408 . S
C3133 C3132 1.404 . S
C3133 H3145 0.930 . S
C3134 C3130 1.524 . S
C3134 H3146 0.956 . S
C3134 H3147 0.961 . S
C3134 H3148 0.961 . S
C3135 C3132 1.539 . S
C3135 H3149 0.958 . S
C3135 H3150 0.961 1_565 S
C3135 H3151 0.960 . S
H3136 C3120 0.931 . S
H3137 C3125 0.929 . S
H3138 C3126 0.960 . S
H3139 C3126 0.962 . S
H3140 C3126 0.960 . S
H3141 C3127 0.961 . S
H3142 C3127 0.961 . S
H3143 C3127 0.961 . S
H3144 C3128 0.931 . S
H3145 C3133 0.930 . S
H3146 C3134 0.956 . S
H3147 C3134 0.961 . S
H3148 C3134 0.961 . S
H3149 C3135 0.958 . S
H3150 C3135 0.961 1_545 S
H3151 C3135 0.960 . S
C3152 C3153 1.391 . S
C3152 C3154 1.394 . S
C3152 H3168 0.931 . S
C3153 C3152 1.391 . S
C3153 C3157 1.376 . S
C3154 C3152 1.394 . S
C3154 C3155 1.369 . S
C3154 C3158 1.531 . S
C3155 C3154 1.369 . S
C3155 C3156 1.410 . S
C3155 C3163 1.503 . S
C3156 C3155 1.410 . S
C3156 C3157 1.392 . S
C3156 C3159 1.511 . S
C3157 C3153 1.376 . S
C3157 C3156 1.392 . S
C3157 H3169 0.929 . S
C3158 C3154 1.531 . S
C3158 H3170 0.960 . S
C3158 H3171 0.962 . S
C3158 H3172 0.960 . S
C3159 C3156 1.511 . S
C3159 H3173 0.961 . S
C3159 H3174 0.961 . S
C3159 H3175 0.961 . S
C3160 C3161 1.370 . S
C3160 C3162 1.363 . S
C3160 H3176 0.931 . S
C3161 C3160 1.370 . S
C3161 C3165 1.408 . S
C3162 C3160 1.363 . S
C3162 C3163 1.370 . S
C3162 C3166 1.524 . S
C3163 C3155 1.503 . S
C3163 C3162 1.370 . S
C3163 C3164 1.403 . S
C3164 C3163 1.403 . S
C3164 C3165 1.404 . S
C3164 C3167 1.539 . S
C3165 C3161 1.408 . S
C3165 C3164 1.404 . S
C3165 H3177 0.930 . S
C3166 C3162 1.524 . S
C3166 H3178 0.956 . S
C3166 H3179 0.961 . S
C3166 H3180 0.961 . S
C3167 C3164 1.539 . S
C3167 H3181 0.958 . S
C3167 H3182 0.961 . S
C3167 H3183 0.960 . S
H3168 C3152 0.931 . S
H3169 C3157 0.929 . S
H3170 C3158 0.960 . S
H3171 C3158 0.962 . S
H3172 C3158 0.960 . S
H3173 C3159 0.961 . S
H3174 C3159 0.961 . S
H3175 C3159 0.961 . S
H3176 C3160 0.931 . S
H3177 C3165 0.930 . S
H3178 C3166 0.956 . S
H3179 C3166 0.961 . S
H3180 C3166 0.961 . S
H3181 C3167 0.958 . S
H3182 C3167 0.961 . S
H3183 C3167 0.960 . S
C3184 C3185 1.391 . S
C3184 C3186 1.394 . S
C3184 H3200 0.931 . S
C3185 C3184 1.391 . S
C3185 C3189 1.376 . S
C3186 C3184 1.394 . S
C3186 C3187 1.369 . S
C3186 C3190 1.531 . S
C3187 C3186 1.369 . S
C3187 C3188 1.410 . S
C3187 C3195 1.503 . S
C3188 C3187 1.410 . S
C3188 C3189 1.392 . S
C3188 C3191 1.511 . S
C3189 C3185 1.376 . S
C3189 C3188 1.392 . S
C3189 H3201 0.929 . S
C3190 C3186 1.531 . S
C3190 H3202 0.960 . S
C3190 H3203 0.962 . S
C3190 H3204 0.960 . S
C3191 C3188 1.511 . S
C3191 H3205 0.961 . S
C3191 H3206 0.961 . S
C3191 H3207 0.961 . S
C3192 C3193 1.370 . S
C3192 C3194 1.363 . S
C3192 H3208 0.931 . S
C3193 C3192 1.370 . S
C3193 C3197 1.408 . S
C3194 C3192 1.363 . S
C3194 C3195 1.370 . S
C3194 C3198 1.524 . S
C3195 C3187 1.503 . S
C3195 C3194 1.370 . S
C3195 C3196 1.403 . S
C3196 C3195 1.403 . S
C3196 C3197 1.404 . S
C3196 C3199 1.539 . S
C3197 C3193 1.408 . S
C3197 C3196 1.404 . S
C3197 H3209 0.930 . S
C3198 C3194 1.524 . S
C3198 H3210 0.956 . S
C3198 H3211 0.961 . S
C3198 H3212 0.961 . S
C3199 C3196 1.539 . S
C3199 H3213 0.958 . S
C3199 H3214 0.961 . S
C3199 H3215 0.960 . S
H3200 C3184 0.931 . S
H3201 C3189 0.929 . S
H3202 C3190 0.960 . S
H3203 C3190 0.962 . S
H3204 C3190 0.960 . S
H3205 C3191 0.961 . S
H3206 C3191 0.961 . S
H3207 C3191 0.961 . S
H3208 C3192 0.931 . S
H3209 C3197 0.930 . S
H3210 C3198 0.956 . S
H3211 C3198 0.961 . S
H3212 C3198 0.961 . S
H3213 C3199 0.958 . S
H3214 C3199 0.961 . S
H3215 C3199 0.960 . S
C3216 C3217 1.391 . S
C3216 C3218 1.394 . S
C3216 H3232 0.931 . S
C3217 C3216 1.391 . S
C3217 C3221 1.376 . S
C3218 C3216 1.394 . S
C3218 C3219 1.369 . S
C3218 C3222 1.531 . S
C3219 C3218 1.369 . S
C3219 C3220 1.410 . S
C3219 C3227 1.503 . S
C3220 C3219 1.410 . S
C3220 C3221 1.392 . S
C3220 C3223 1.511 . S
C3221 C3217 1.376 . S
C3221 C3220 1.392 . S
C3221 H3233 0.929 . S
C3222 C3218 1.531 . S
C3222 H3234 0.960 . S
C3222 H3235 0.962 . S
C3222 H3236 0.960 . S
C3223 C3220 1.511 . S
C3223 H3237 0.961 . S
C3223 H3238 0.961 . S
C3223 H3239 0.961 . S
C3224 C3225 1.370 . S
C3224 C3226 1.363 . S
C3224 H3240 0.931 . S
C3225 C3224 1.370 . S
C3225 C3229 1.408 . S
C3226 C3224 1.363 . S
C3226 C3227 1.370 . S
C3226 C3230 1.524 . S
C3227 C3219 1.503 . S
C3227 C3226 1.370 . S
C3227 C3228 1.403 . S
C3228 C3227 1.403 . S
C3228 C3229 1.404 . S
C3228 C3231 1.539 . S
C3229 C3225 1.408 . S
C3229 C3228 1.404 . S
C3229 H3241 0.930 . S
C3230 C3226 1.524 . S
C3230 H3242 0.956 . S
C3230 H3243 0.961 . S
C3230 H3244 0.961 . S
C3231 C3228 1.539 . S
C3231 H3245 0.958 . S
C3231 H3246 0.961 . S
C3231 H3247 0.960 . S
H3232 C3216 0.931 . S
H3233 C3221 0.929 . S
H3234 C3222 0.960 . S
H3235 C3222 0.962 . S
H3236 C3222 0.960 . S
H3237 C3223 0.961 . S
H3238 C3223 0.961 . S
H3239 C3223 0.961 . S
H3240 C3224 0.931 . S
H3241 C3229 0.930 . S
H3242 C3230 0.956 . S
H3243 C3230 0.961 . S
H3244 C3230 0.961 . S
H3245 C3231 0.958 . S
H3246 C3231 0.961 . S
H3247 C3231 0.960 . S
C3248 C3249 1.391 . S
C3248 C3250 1.394 . S
C3248 H3264 0.931 . S
C3249 C3248 1.391 . S
C3249 C3253 1.376 . S
C3250 C3248 1.394 . S
C3250 C3251 1.369 . S
C3250 C3254 1.531 . S
C3251 C3250 1.369 . S
C3251 C3252 1.410 . S
C3251 C3259 1.503 . S
C3252 C3251 1.410 . S
C3252 C3253 1.392 . S
C3252 C3255 1.511 . S
C3253 C3249 1.376 . S
C3253 C3252 1.392 . S
C3253 H3265 0.929 . S
C3254 C3250 1.531 . S
C3254 H3266 0.960 . S
C3254 H3267 0.962 . S
C3254 H3268 0.960 . S
C3255 C3252 1.511 . S
C3255 H3269 0.961 . S
C3255 H3270 0.961 . S
C3255 H3271 0.961 . S
C3256 C3257 1.370 . S
C3256 C3258 1.363 . S
C3256 H3272 0.931 . S
C3257 C3256 1.370 . S
C3257 C3261 1.408 . S
C3258 C3256 1.363 . S
C3258 C3259 1.370 . S
C3258 C3262 1.524 . S
C3259 C3251 1.503 . S
C3259 C3258 1.370 . S
C3259 C3260 1.403 . S
C3260 C3259 1.403 . S
C3260 C3261 1.404 . S
C3260 C3263 1.539 . S
C3261 C3257 1.408 . S
C3261 C3260 1.404 . S
C3261 H3273 0.930 . S
C3262 C3258 1.524 . S
C3262 H3274 0.956 . S
C3262 H3275 0.961 . S
C3262 H3276 0.961 . S
C3263 C3260 1.539 . S
C3263 H3277 0.958 . S
C3263 H3278 0.961 . S
C3263 H3279 0.960 . S
H3264 C3248 0.931 . S
H3265 C3253 0.929 . S
H3266 C3254 0.960 . S
H3267 C3254 0.962 . S
H3268 C3254 0.960 . S
H3269 C3255 0.961 . S
H3270 C3255 0.961 . S
H3271 C3255 0.961 . S
H3272 C3256 0.931 . S
H3273 C3261 0.930 . S
H3274 C3262 0.956 . S
H3275 C3262 0.961 . S
H3276 C3262 0.961 . S
H3277 C3263 0.958 . S
H3278 C3263 0.961 . S
H3279 C3263 0.960 . S
C3280 C3281 1.391 . S
C3280 C3282 1.394 . S
C3280 H3296 0.931 . S
C3281 C3280 1.391 . S
C3281 C3285 1.376 1_455 S
C3282 C3280 1.394 . S
C3282 C3283 1.369 . S
C3282 C3286 1.529 1_556 S
C3283 C3282 1.369 . S
C3283 C3284 1.410 1_455 S
C3283 C3291 1.503 . S
C3284 C3283 1.410 1_655 S
C3284 C3285 1.392 . S
C3284 C3287 1.511 . S
C3285 C3281 1.376 1_655 S
C3285 C3284 1.392 . S
C3285 H3297 0.929 . S
C3286 C3282 1.529 1_554 S
C3286 H3298 0.954 1_554 S
C3286 H3299 0.975 . S
C3286 H3300 0.955 1_554 S
C3287 C3284 1.511 . S
C3287 H3301 0.961 . S
C3287 H3302 0.961 . S
C3287 H3303 0.961 . S
C3288 C3289 1.370 . S
C3288 C3290 1.363 . S
C3288 H3304 0.931 . S
C3289 C3288 1.370 . S
C3289 C3293 1.408 1_554 S
C3290 C3288 1.363 . S
C3290 C3291 1.370 1_554 S
C3290 C3294 1.524 . S
C3291 C3283 1.503 . S
C3291 C3290 1.370 1_556 S
C3291 C3292 1.403 . S
C3292 C3291 1.403 . S
C3292 C3293 1.404 . S
C3292 C3295 1.539 . S
C3293 C3289 1.408 1_556 S
C3293 C3292 1.404 . S
C3293 H3305 0.930 . S
C3294 C3290 1.524 . S
C3294 H3306 0.956 . S
C3294 H3307 0.961 1_455 S
C3294 H3308 0.961 . S
C3295 C3292 1.539 . S
C3295 H3309 0.958 . S
C3295 H3310 0.961 . S
C3295 H3311 0.960 . S
H3296 C3280 0.931 . S
H3297 C3285 0.929 . S
H3298 C3286 0.954 1_556 S
H3299 C3286 0.975 . S
H3300 C3286 0.955 1_556 S
H3301 C3287 0.961 . S
H3302 C3287 0.961 . S
H3303 C3287 0.961 . S
H3304 C3288 0.931 . S
H3305 C3293 0.930 . S
H3306 C3294 0.956 . S
H3307 C3294 0.961 1_655 S
H3308 C3294 0.961 . S
H3309 C3295 0.958 . S
H3310 C3295 0.961 . S
H3311 C3295 0.960 . S
C3312 C3313 1.391 . S
C3312 C3314 1.394 1_455 S
C3312 H3328 0.931 . S
C3313 C3312 1.391 . S
C3313 C3317 1.376 1_455 S
C3314 C3312 1.394 1_655 S
C3314 C3315 1.369 . S
C3314 C3318 1.531 . S
C3315 C3314 1.369 . S
C3315 C3316 1.410 . S
C3315 C3323 1.503 . S
C3316 C3315 1.410 . S
C3316 C3317 1.392 . S
C3316 C3319 1.511 . S
C3317 C3313 1.376 1_655 S
C3317 C3316 1.392 . S
C3317 H3329 0.929 . S
C3318 C3314 1.531 . S
C3318 H3330 0.960 . S
C3318 H3331 0.962 . S
C3318 H3332 0.960 . S
C3319 C3316 1.511 . S
C3319 H3333 0.961 . S
C3319 H3334 0.961 . S
C3319 H3335 0.961 . S
C3320 C3321 1.370 . S
C3320 C3322 1.363 . S
C3320 H3336 0.931 . S
C3321 C3320 1.370 . S
C3321 C3325 1.408 . S
C3322 C3320 1.363 . S
C3322 C3323 1.370 . S
C3322 C3326 1.524 . S
C3323 C3315 1.503 . S
C3323 C3322 1.370 . S
C3323 C3324 1.403 . S
C3324 C3323 1.403 . S
C3324 C3325 1.404 . S
C3324 C3327 1.539 . S
C3325 C3321 1.408 . S
C3325 C3324 1.404 . S
C3325 H3337 0.930 . S
C3326 C3322 1.524 . S
C3326 H3338 0.956 . S
C3326 H3339 0.961 . S
C3326 H3340 0.961 . S
C3327 C3324 1.539 . S
C3327 H3341 0.958 . S
C3327 H3342 0.961 . S
C3327 H3343 0.960 . S
H3328 C3312 0.931 . S
H3329 C3317 0.929 . S
H3330 C3318 0.960 . S
H3331 C3318 0.962 . S
H3332 C3318 0.960 . S
H3333 C3319 0.961 . S
H3334 C3319 0.961 . S
H3335 C3319 0.961 . S
H3336 C3320 0.931 . S
H3337 C3325 0.930 . S
H3338 C3326 0.956 . S
H3339 C3326 0.961 . S
H3340 C3326 0.961 . S
H3341 C3327 0.958 . S
H3342 C3327 0.961 . S
H3343 C3327 0.960 . S
C3344 C3345 1.391 . S
C3344 C3346 1.394 . S
C3344 H3360 0.931 . S
C3345 C3344 1.391 . S
C3345 C3349 1.376 . S
C3346 C3344 1.394 . S
C3346 C3347 1.369 . S
C3346 C3350 1.531 . S
C3347 C3346 1.369 . S
C3347 C3348 1.410 . S
C3347 C3355 1.503 . S
C3348 C3347 1.410 . S
C3348 C3349 1.392 . S
C3348 C3351 1.511 . S
C3349 C3345 1.376 . S
C3349 C3348 1.392 . S
C3349 H3361 0.929 . S
C3350 C3346 1.531 . S
C3350 H3362 0.960 . S
C3350 H3363 0.962 . S
C3350 H3364 0.960 . S
C3351 C3348 1.511 . S
C3351 H3365 0.961 . S
C3351 H3366 0.961 . S
C3351 H3367 0.961 . S
C3352 C3353 1.370 . S
C3352 C3354 1.363 . S
C3352 H3368 0.931 . S
C3353 C3352 1.370 . S
C3353 C3357 1.408 . S
C3354 C3352 1.363 . S
C3354 C3355 1.370 . S
C3354 C3358 1.524 . S
C3355 C3347 1.503 . S
C3355 C3354 1.370 . S
C3355 C3356 1.403 . S
C3356 C3355 1.403 . S
C3356 C3357 1.404 . S
C3356 C3359 1.539 . S
C3357 C3353 1.408 . S
C3357 C3356 1.404 . S
C3357 H3369 0.930 . S
C3358 C3354 1.524 . S
C3358 H3370 0.956 . S
C3358 H3371 0.961 . S
C3358 H3372 0.961 . S
C3359 C3356 1.539 . S
C3359 H3373 0.958 . S
C3359 H3374 0.961 . S
C3359 H3375 0.960 . S
H3360 C3344 0.931 . S
H3361 C3349 0.929 . S
H3362 C3350 0.960 . S
H3363 C3350 0.962 . S
H3364 C3350 0.960 . S
H3365 C3351 0.961 . S
H3366 C3351 0.961 . S
H3367 C3351 0.961 . S
H3368 C3352 0.931 . S
H3369 C3357 0.930 . S
H3370 C3358 0.956 . S
H3371 C3358 0.961 . S
H3372 C3358 0.961 . S
H3373 C3359 0.958 . S
H3374 C3359 0.961 . S
H3375 C3359 0.960 . S
C3376 C3377 1.391 . S
C3376 C3378 1.394 . S
C3376 H3392 0.931 . S
C3377 C3376 1.391 . S
C3377 C3381 1.376 . S
C3378 C3376 1.394 . S
C3378 C3379 1.369 . S
C3378 C3382 1.531 . S
C3379 C3378 1.369 . S
C3379 C3380 1.410 . S
C3379 C3387 1.503 . S
C3380 C3379 1.410 . S
C3380 C3381 1.392 . S
C3380 C3383 1.511 . S
C3381 C3377 1.376 . S
C3381 C3380 1.392 . S
C3381 H3393 0.929 . S
C3382 C3378 1.531 . S
C3382 H3394 0.960 . S
C3382 H3395 0.962 . S
C3382 H3396 0.960 . S
C3383 C3380 1.511 . S
C3383 H3397 0.961 . S
C3383 H3398 0.961 . S
C3383 H3399 0.961 . S
C3384 C3385 1.370 . S
C3384 C3386 1.363 . S
C3384 H3400 0.931 . S
C3385 C3384 1.370 . S
C3385 C3389 1.408 . S
C3386 C3384 1.363 . S
C3386 C3387 1.370 . S
C3386 C3390 1.524 . S
C3387 C3379 1.503 . S
C3387 C3386 1.370 . S
C3387 C3388 1.403 . S
C3388 C3387 1.403 . S
C3388 C3389 1.404 . S
C3388 C3391 1.539 . S
C3389 C3385 1.408 . S
C3389 C3388 1.404 . S
C3389 H3401 0.930 . S
C3390 C3386 1.524 . S
C3390 H3402 0.956 . S
C3390 H3403 0.961 . S
C3390 H3404 0.961 . S
C3391 C3388 1.539 . S
C3391 H3405 0.958 . S
C3391 H3406 0.961 . S
C3391 H3407 0.960 . S
H3392 C3376 0.931 . S
H3393 C3381 0.929 . S
H3394 C3382 0.960 . S
H3395 C3382 0.962 . S
H3396 C3382 0.960 . S
H3397 C3383 0.961 . S
H3398 C3383 0.961 . S
H3399 C3383 0.961 . S
H3400 C3384 0.931 . S
H3401 C3389 0.930 . S
H3402 C3390 0.956 . S
H3403 C3390 0.961 . S
H3404 C3390 0.961 . S
H3405 C3391 0.958 . S
H3406 C3391 0.961 . S
H3407 C3391 0.960 . S
C3408 C3409 1.391 1_655 S
C3408 C3410 1.394 . S
C3408 H3424 0.931 . S
C3409 C3408 1.391 1_455 S
C3409 C3413 1.376 . S
C3410 C3408 1.394 . S
C3410 C3411 1.369 1_655 S
C3410 C3414 1.531 . S
C3411 C3410 1.369 1_455 S
C3411 C3412 1.410 . S
C3411 C3419 1.503 . S
C3412 C3411 1.410 . S
C3412 C3413 1.392 . S
C3412 C3415 1.511 . S
C3413 C3409 1.376 . S
C3413 C3412 1.392 . S
C3413 H3425 0.929 . S
C3414 C3410 1.531 . S
C3414 H3426 0.960 . S
C3414 H3427 0.962 . S
C3414 H3428 0.960 . S
C3415 C3412 1.511 . S
C3415 H3429 0.961 . S
C3415 H3430 0.961 . S
C3415 H3431 0.961 . S
C3416 C3417 1.370 . S
C3416 C3418 1.363 . S
C3416 H3432 0.931 . S
C3417 C3416 1.370 . S
C3417 C3421 1.408 . S
C3418 C3416 1.363 . S
C3418 C3419 1.370 . S
C3418 C3422 1.524 . S
C3419 C3411 1.503 . S
C3419 C3418 1.370 . S
C3419 C3420 1.403 . S
C3420 C3419 1.403 . S
C3420 C3421 1.404 . S
C3420 C3423 1.539 . S
C3421 C3417 1.408 . S
C3421 C3420 1.404 . S
C3421 H3433 0.930 . S
C3422 C3418 1.524 . S
C3422 H3434 0.956 1_455 S
C3422 H3435 0.961 . S
C3422 H3436 0.961 . S
C3423 C3420 1.539 . S
C3423 H3437 0.958 . S
C3423 H3438 0.961 . S
C3423 H3439 0.960 . S
H3424 C3408 0.931 . S
H3425 C3413 0.929 . S
H3426 C3414 0.960 . S
H3427 C3414 0.962 . S
H3428 C3414 0.960 . S
H3429 C3415 0.961 . S
H3430 C3415 0.961 . S
H3431 C3415 0.961 . S
H3432 C3416 0.931 . S
H3433 C3421 0.930 . S
H3434 C3422 0.956 1_655 S
H3435 C3422 0.961 . S
H3436 C3422 0.961 . S
H3437 C3423 0.958 . S
H3438 C3423 0.961 . S
H3439 C3423 0.960 . S
C3440 C3441 1.391 . S
C3440 C3442 1.394 . S
C3440 H3456 0.931 . S
C3441 C3440 1.391 . S
C3441 C3445 1.376 . S
C3442 C3440 1.394 . S
C3442 C3443 1.369 . S
C3442 C3446 1.531 . S
C3443 C3442 1.369 . S
C3443 C3444 1.410 . S
C3443 C3451 1.503 . S
C3444 C3443 1.410 . S
C3444 C3445 1.392 . S
C3444 C3447 1.511 . S
C3445 C3441 1.376 . S
C3445 C3444 1.392 . S
C3445 H3457 0.929 . S
C3446 C3442 1.531 . S
C3446 H3458 0.960 . S
C3446 H3459 0.962 . S
C3446 H3460 0.960 . S
C3447 C3444 1.511 . S
C3447 H3461 0.961 . S
C3447 H3462 0.961 . S
C3447 H3463 0.961 . S
C3448 C3449 1.370 . S
C3448 C3450 1.363 . S
C3448 H3464 0.931 . S
C3449 C3448 1.370 . S
C3449 C3453 1.408 . S
C3450 C3448 1.363 . S
C3450 C3451 1.370 . S
C3450 C3454 1.524 . S
C3451 C3443 1.503 . S
C3451 C3450 1.370 . S
C3451 C3452 1.403 . S
C3452 C3451 1.403 . S
C3452 C3453 1.404 . S
C3452 C3455 1.539 . S
C3453 C3449 1.408 . S
C3453 C3452 1.404 . S
C3453 H3465 0.930 . S
C3454 C3450 1.524 . S
C3454 H3466 0.956 . S
C3454 H3467 0.961 . S
C3454 H3468 0.961 . S
C3455 C3452 1.539 . S
C3455 H3469 0.958 . S
C3455 H3470 0.961 . S
C3455 H3471 0.960 . S
H3456 C3440 0.931 . S
H3457 C3445 0.929 . S
H3458 C3446 0.960 . S
H3459 C3446 0.962 . S
H3460 C3446 0.960 . S
H3461 C3447 0.961 . S
H3462 C3447 0.961 . S
H3463 C3447 0.961 . S
H3464 C3448 0.931 . S
H3465 C3453 0.930 . S
H3466 C3454 0.956 . S
H3467 C3454 0.961 . S
H3468 C3454 0.961 . S
H3469 C3455 0.958 . S
H3470 C3455 0.961 . S
H3471 C3455 0.960 . S
C3472 C3473 1.391 . S
C3472 C3474 1.394 . S
C3472 H3488 0.931 . S
C3473 C3472 1.391 . S
C3473 C3477 1.376 . S
C3474 C3472 1.394 . S
C3474 C3475 1.369 . S
C3474 C3478 1.531 . S
C3475 C3474 1.369 . S
C3475 C3476 1.410 . S
C3475 C3483 1.503 . S
C3476 C3475 1.410 . S
C3476 C3477 1.392 . S
C3476 C3479 1.511 . S
C3477 C3473 1.376 . S
C3477 C3476 1.392 . S
C3477 H3489 0.929 . S
C3478 C3474 1.531 . S
C3478 H3490 0.960 . S
C3478 H3491 0.962 . S
C3478 H3492 0.960 . S
C3479 C3476 1.511 . S
C3479 H3493 0.961 . S
C3479 H3494 0.961 . S
C3479 H3495 0.961 . S
C3480 C3481 1.370 . S
C3480 C3482 1.363 . S
C3480 H3496 0.931 . S
C3481 C3480 1.370 . S
C3481 C3485 1.408 . S
C3482 C3480 1.363 . S
C3482 C3483 1.370 . S
C3482 C3486 1.524 . S
C3483 C3475 1.503 . S
C3483 C3482 1.370 . S
C3483 C3484 1.403 . S
C3484 C3483 1.403 . S
C3484 C3485 1.404 . S
C3484 C3487 1.539 . S
C3485 C3481 1.408 . S
C3485 C3484 1.404 . S
C3485 H3497 0.930 . S
C3486 C3482 1.524 . S
C3486 H3498 0.956 . S
C3486 H3499 0.961 . S
C3486 H3500 0.961 . S
C3487 C3484 1.539 . S
C3487 H3501 0.958 . S
C3487 H3502 0.961 . S
C3487 H3503 0.960 . S
H3488 C3472 0.931 . S
H3489 C3477 0.929 . S
H3490 C3478 0.960 . S
H3491 C3478 0.962 . S
H3492 C3478 0.960 . S
H3493 C3479 0.961 . S
H3494 C3479 0.961 . S
H3495 C3479 0.961 . S
H3496 C3480 0.931 . S
H3497 C3485 0.930 . S
H3498 C3486 0.956 . S
H3499 C3486 0.961 . S
H3500 C3486 0.961 . S
H3501 C3487 0.958 . S
H3502 C3487 0.961 . S
H3503 C3487 0.960 . S
C3504 C3505 1.391 . S
C3504 C3506 1.394 1_554 S
C3504 H3520 0.931 . S
C3505 C3504 1.391 . S
C3505 C3509 1.376 1_554 S
C3506 C3504 1.394 1_556 S
C3506 C3507 1.369 . S
C3506 C3510 1.531 . S
C3507 C3506 1.369 . S
C3507 C3508 1.410 . S
C3507 C3515 1.503 . S
C3508 C3507 1.410 . S
C3508 C3509 1.392 . S
C3508 C3511 1.511 . S
C3509 C3505 1.376 1_556 S
C3509 C3508 1.392 . S
C3509 H3521 0.929 . S
C3510 C3506 1.531 . S
C3510 H3522 0.960 . S
C3510 H3523 0.962 . S
C3510 H3524 0.960 1_556 S
C3511 C3508 1.511 . S
C3511 H3525 0.961 . S
C3511 H3526 0.961 . S
C3511 H3527 0.961 . S
C3512 C3513 1.370 . S
C3512 C3514 1.363 . S
C3512 H3528 0.931 . S
C3513 C3512 1.370 . S
C3513 C3517 1.408 . S
C3514 C3512 1.363 . S
C3514 C3515 1.370 . S
C3514 C3518 1.524 . S
C3515 C3507 1.503 . S
C3515 C3514 1.370 . S
C3515 C3516 1.403 . S
C3516 C3515 1.403 . S
C3516 C3517 1.404 . S
C3516 C3519 1.539 . S
C3517 C3513 1.408 . S
C3517 C3516 1.404 . S
C3517 H3529 0.930 . S
C3518 C3514 1.524 . S
C3518 H3530 0.956 . S
C3518 H3531 0.961 . S
C3518 H3532 0.961 . S
C3519 C3516 1.539 . S
C3519 H3533 0.958 . S
C3519 H3534 0.961 . S
C3519 H3535 0.960 . S
H3520 C3504 0.931 . S
H3521 C3509 0.929 . S
H3522 C3510 0.960 . S
H3523 C3510 0.962 . S
H3524 C3510 0.960 1_554 S
H3525 C3511 0.961 . S
H3526 C3511 0.961 . S
H3527 C3511 0.961 . S
H3528 C3512 0.931 . S
H3529 C3517 0.930 . S
H3530 C3518 0.956 . S
H3531 C3518 0.961 . S
H3532 C3518 0.961 . S
H3533 C3519 0.958 . S
H3534 C3519 0.961 . S
H3535 C3519 0.960 . S
C3536 C3537 1.391 . S
C3536 C3538 1.394 . S
C3536 H3552 0.931 . S
C3537 C3536 1.391 . S
C3537 C3541 1.376 . S
C3538 C3536 1.394 . S
C3538 C3539 1.369 . S
C3538 C3542 1.531 . S
C3539 C3538 1.369 . S
C3539 C3540 1.410 . S
C3539 C3547 1.503 . S
C3540 C3539 1.410 . S
C3540 C3541 1.392 . S
C3540 C3543 1.511 . S
C3541 C3537 1.376 . S
C3541 C3540 1.392 . S
C3541 H3553 0.929 . S
C3542 C3538 1.531 . S
C3542 H3554 0.960 . S
C3542 H3555 0.962 . S
C3542 H3556 0.960 . S
C3543 C3540 1.511 . S
C3543 H3557 0.961 . S
C3543 H3558 0.961 . S
C3543 H3559 0.961 . S
C3544 C3545 1.370 . S
C3544 C3546 1.363 . S
C3544 H3560 0.931 . S
C3545 C3544 1.370 . S
C3545 C3549 1.408 . S
C3546 C3544 1.363 . S
C3546 C3547 1.370 . S
C3546 C3550 1.524 . S
C3547 C3539 1.503 . S
C3547 C3546 1.370 . S
C3547 C3548 1.403 . S
C3548 C3547 1.403 . S
C3548 C3549 1.404 . S
C3548 C3551 1.539 . S
C3549 C3545 1.408 . S
C3549 C3548 1.404 . S
C3549 H3561 0.930 . S
C3550 C3546 1.524 . S
C3550 H3562 0.956 . S
C3550 H3563 0.961 . S
C3550 H3564 0.961 . S
C3551 C3548 1.539 . S
C3551 H3565 0.958 . S
C3551 H3566 0.961 . S
C3551 H3567 0.960 . S
H3552 C3536 0.931 . S
H3553 C3541 0.929 . S
H3554 C3542 0.960 . S
H3555 C3542 0.962 . S
H3556 C3542 0.960 . S
H3557 C3543 0.961 . S
H3558 C3543 0.961 . S
H3559 C3543 0.961 . S
H3560 C3544 0.931 . S
H3561 C3549 0.930 . S
H3562 C3550 0.956 . S
H3563 C3550 0.961 . S
H3564 C3550 0.961 . S
H3565 C3551 0.958 . S
H3566 C3551 0.961 . S
H3567 C3551 0.960 . S
C3568 C3569 1.391 . S
C3568 C3570 1.394 . S
C3568 H3584 0.931 . S
C3569 C3568 1.391 . S
C3569 C3573 1.376 . S
C3570 C3568 1.394 . S
C3570 C3571 1.369 . S
C3570 C3574 1.531 . S
C3571 C3570 1.369 . S
C3571 C3572 1.410 . S
C3571 C3579 1.503 . S
C3572 C3571 1.410 . S
C3572 C3573 1.392 . S
C3572 C3575 1.511 . S
C3573 C3569 1.376 . S
C3573 C3572 1.392 . S
C3573 H3585 0.929 . S
C3574 C3570 1.531 . S
C3574 H3586 0.960 . S
C3574 H3587 0.962 . S
C3574 H3588 0.960 . S
C3575 C3572 1.511 . S
C3575 H3589 0.961 . S
C3575 H3590 0.961 . S
C3575 H3591 0.961 . S
C3576 C3577 1.370 . S
C3576 C3578 1.363 . S
C3576 H3592 0.931 . S
C3577 C3576 1.370 . S
C3577 C3581 1.408 . S
C3578 C3576 1.363 . S
C3578 C3579 1.370 . S
C3578 C3582 1.524 . S
C3579 C3571 1.503 . S
C3579 C3578 1.370 . S
C3579 C3580 1.403 . S
C3580 C3579 1.403 . S
C3580 C3581 1.404 . S
C3580 C3583 1.539 . S
C3581 C3577 1.408 . S
C3581 C3580 1.404 . S
C3581 H3593 0.930 . S
C3582 C3578 1.524 . S
C3582 H3594 0.956 . S
C3582 H3595 0.961 . S
C3582 H3596 0.961 . S
C3583 C3580 1.539 . S
C3583 H3597 0.958 . S
C3583 H3598 0.961 . S
C3583 H3599 0.960 . S
H3584 C3568 0.931 . S
H3585 C3573 0.929 . S
H3586 C3574 0.960 . S
H3587 C3574 0.962 . S
H3588 C3574 0.960 . S
H3589 C3575 0.961 . S
H3590 C3575 0.961 . S
H3591 C3575 0.961 . S
H3592 C3576 0.931 . S
H3593 C3581 0.930 . S
H3594 C3582 0.956 . S
H3595 C3582 0.961 . S
H3596 C3582 0.961 . S
H3597 C3583 0.958 . S
H3598 C3583 0.961 . S
H3599 C3583 0.960 . S
C3600 C3601 1.391 . S
C3600 C3602 1.394 . S
C3600 H3616 0.931 . S
C3601 C3600 1.391 . S
C3601 C3605 1.376 . S
C3602 C3600 1.394 . S
C3602 C3603 1.369 . S
C3602 C3606 1.531 . S
C3603 C3602 1.369 . S
C3603 C3604 1.410 . S
C3603 C3611 1.503 . S
C3604 C3603 1.410 . S
C3604 C3605 1.392 . S
C3604 C3607 1.511 . S
C3605 C3601 1.376 . S
C3605 C3604 1.392 . S
C3605 H3617 0.929 . S
C3606 C3602 1.531 . S
C3606 H3618 0.960 . S
C3606 H3619 0.962 . S
C3606 H3620 0.960 . S
C3607 C3604 1.511 . S
C3607 H3621 0.961 . S
C3607 H3622 0.961 . S
C3607 H3623 0.961 . S
C3608 C3609 1.370 . S
C3608 C3610 1.363 . S
C3608 H3624 0.931 . S
C3609 C3608 1.370 . S
C3609 C3613 1.408 . S
C3610 C3608 1.363 . S
C3610 C3611 1.370 . S
C3610 C3614 1.524 . S
C3611 C3603 1.503 . S
C3611 C3610 1.370 . S
C3611 C3612 1.403 . S
C3612 C3611 1.403 . S
C3612 C3613 1.404 . S
C3612 C3615 1.539 . S
C3613 C3609 1.408 . S
C3613 C3612 1.404 . S
C3613 H3625 0.930 . S
C3614 C3610 1.524 . S
C3614 H3626 0.956 . S
C3614 H3627 0.961 . S
C3614 H3628 0.961 . S
C3615 C3612 1.539 . S
C3615 H3629 0.958 . S
C3615 H3630 0.961 . S
C3615 H3631 0.960 . S
H3616 C3600 0.931 . S
H3617 C3605 0.929 . S
H3618 C3606 0.960 . S
H3619 C3606 0.962 . S
H3620 C3606 0.960 . S
H3621 C3607 0.961 . S
H3622 C3607 0.961 . S
H3623 C3607 0.961 . S
H3624 C3608 0.931 . S
H3625 C3613 0.930 . S
H3626 C3614 0.956 . S
H3627 C3614 0.961 . S
H3628 C3614 0.961 . S
H3629 C3615 0.958 . S
H3630 C3615 0.961 . S
H3631 C3615 0.960 . S
C3632 C3633 1.391 . S
C3632 C3634 1.394 . S
C3632 H3648 0.931 . S
C3633 C3632 1.391 . S
C3633 C3637 1.376 . S
C3634 C3632 1.394 . S
C3634 C3635 1.369 . S
C3634 C3638 1.531 . S
C3635 C3634 1.369 . S
C3635 C3636 1.410 . S
C3635 C3643 1.503 . S
C3636 C3635 1.410 . S
C3636 C3637 1.392 . S
C3636 C3639 1.511 . S
C3637 C3633 1.376 . S
C3637 C3636 1.392 . S
C3637 H3649 0.929 . S
C3638 C3634 1.531 . S
C3638 H3650 0.960 . S
C3638 H3651 0.962 . S
C3638 H3652 0.960 . S
C3639 C3636 1.511 . S
C3639 H3653 0.961 . S
C3639 H3654 0.961 . S
C3639 H3655 0.961 . S
C3640 C3641 1.370 . S
C3640 C3642 1.363 . S
C3640 H3656 0.931 . S
C3641 C3640 1.370 . S
C3641 C3645 1.408 . S
C3642 C3640 1.363 . S
C3642 C3643 1.370 . S
C3642 C3646 1.524 . S
C3643 C3635 1.503 . S
C3643 C3642 1.370 . S
C3643 C3644 1.403 . S
C3644 C3643 1.403 . S
C3644 C3645 1.404 . S
C3644 C3647 1.539 . S
C3645 C3641 1.408 . S
C3645 C3644 1.404 . S
C3645 H3657 0.930 . S
C3646 C3642 1.524 . S
C3646 H3658 0.956 . S
C3646 H3659 0.961 . S
C3646 H3660 0.961 . S
C3647 C3644 1.539 . S
C3647 H3661 0.958 . S
C3647 H3662 0.961 . S
C3647 H3663 0.960 . S
H3648 C3632 0.931 . S
H3649 C3637 0.929 . S
H3650 C3638 0.960 . S
H3651 C3638 0.962 . S
H3652 C3638 0.960 . S
H3653 C3639 0.961 . S
H3654 C3639 0.961 . S
H3655 C3639 0.961 . S
H3656 C3640 0.931 . S
H3657 C3645 0.930 . S
H3658 C3646 0.956 . S
H3659 C3646 0.961 . S
H3660 C3646 0.961 . S
H3661 C3647 0.958 . S
H3662 C3647 0.961 . S
H3663 C3647 0.960 . S
C3664 C3665 1.391 . S
C3664 C3666 1.394 . S
C3664 H3680 0.931 . S
C3665 C3664 1.391 . S
C3665 C3669 1.376 . S
C3666 C3664 1.394 . S
C3666 C3667 1.369 . S
C3666 C3670 1.531 . S
C3667 C3666 1.369 . S
C3667 C3668 1.410 . S
C3667 C3675 1.503 . S
C3668 C3667 1.410 . S
C3668 C3669 1.392 . S
C3668 C3671 1.511 . S
C3669 C3665 1.376 . S
C3669 C3668 1.392 . S
C3669 H3681 0.929 . S
C3670 C3666 1.531 . S
C3670 H3682 0.960 . S
C3670 H3683 0.962 . S
C3670 H3684 0.960 . S
C3671 C3668 1.511 . S
C3671 H3685 0.961 . S
C3671 H3686 0.961 . S
C3671 H3687 0.961 . S
C3672 C3673 1.370 . S
C3672 C3674 1.363 . S
C3672 H3688 0.931 . S
C3673 C3672 1.370 . S
C3673 C3677 1.408 . S
C3674 C3672 1.363 . S
C3674 C3675 1.370 . S
C3674 C3678 1.524 . S
C3675 C3667 1.503 . S
C3675 C3674 1.370 . S
C3675 C3676 1.403 . S
C3676 C3675 1.403 . S
C3676 C3677 1.404 . S
C3676 C3679 1.539 . S
C3677 C3673 1.408 . S
C3677 C3676 1.404 . S
C3677 H3689 0.930 . S
C3678 C3674 1.524 . S
C3678 H3690 0.956 . S
C3678 H3691 0.961 . S
C3678 H3692 0.961 . S
C3679 C3676 1.539 . S
C3679 H3693 0.958 . S
C3679 H3694 0.961 . S
C3679 H3695 0.960 . S
H3680 C3664 0.931 . S
H3681 C3669 0.929 . S
H3682 C3670 0.960 . S
H3683 C3670 0.962 . S
H3684 C3670 0.960 . S
H3685 C3671 0.961 . S
H3686 C3671 0.961 . S
H3687 C3671 0.961 . S
H3688 C3672 0.931 . S
H3689 C3677 0.930 . S
H3690 C3678 0.956 . S
H3691 C3678 0.961 . S
H3692 C3678 0.961 . S
H3693 C3679 0.958 . S
H3694 C3679 0.961 . S
H3695 C3679 0.960 . S
C3696 C3697 1.391 . S
C3696 C3698 1.394 . S
C3696 H3712 0.931 . S
C3697 C3696 1.391 . S
C3697 C3701 1.376 . S
C3698 C3696 1.394 . S
C3698 C3699 1.369 . S
C3698 C3702 1.531 . S
C3699 C3698 1.369 . S
C3699 C3700 1.410 . S
C3699 C3707 1.503 . S
C3700 C3699 1.410 . S
C3700 C3701 1.392 . S
C3700 C3703 1.511 . S
C3701 C3697 1.376 . S
C3701 C3700 1.392 . S
C3701 H3713 0.929 . S
C3702 C3698 1.531 . S
C3702 H3714 0.960 . S
C3702 H3715 0.962 . S
C3702 H3716 0.960 . S
C3703 C3700 1.511 . S
C3703 H3717 0.961 . S
C3703 H3718 0.961 . S
C3703 H3719 0.961 . S
C3704 C3705 1.370 . S
C3704 C3706 1.363 . S
C3704 H3720 0.931 . S
C3705 C3704 1.370 . S
C3705 C3709 1.408 . S
C3706 C3704 1.363 . S
C3706 C3707 1.370 . S
C3706 C3710 1.524 . S
C3707 C3699 1.503 . S
C3707 C3706 1.370 . S
C3707 C3708 1.403 . S
C3708 C3707 1.403 . S
C3708 C3709 1.404 . S
C3708 C3711 1.539 . S
C3709 C3705 1.408 . S
C3709 C3708 1.404 . S
C3709 H3721 0.930 . S
C3710 C3706 1.524 . S
C3710 H3722 0.956 . S
C3710 H3723 0.961 . S
C3710 H3724 0.961 . S
C3711 C3708 1.539 . S
C3711 H3725 0.958 . S
C3711 H3726 0.961 . S
C3711 H3727 0.960 . S
H3712 C3696 0.931 . S
H3713 C3701 0.929 . S
H3714 C3702 0.960 . S
H3715 C3702 0.962 . S
H3716 C3702 0.960 . S
H3717 C3703 0.961 . S
H3718 C3703 0.961 . S
H3719 C3703 0.961 . S
H3720 C3704 0.931 . S
H3721 C3709 0.930 . S
H3722 C3710 0.956 . S
H3723 C3710 0.961 . S
H3724 C3710 0.961 . S
H3725 C3711 0.958 . S
H3726 C3711 0.961 . S
H3727 C3711 0.960 . S
C3728 C3729 1.391 . S
C3728 C3730 1.394 . S
C3728 H3744 0.931 . S
C3729 C3728 1.391 . S
C3729 C3733 1.376 . S
C3730 C3728 1.394 . S
C3730 C3731 1.369 . S
C3730 C3734 1.531 . S
C3731 C3730 1.369 . S
C3731 C3732 1.410 . S
C3731 C3739 1.503 . S
C3732 C3731 1.410 . S
C3732 C3733 1.392 . S
C3732 C3735 1.511 . S
C3733 C3729 1.376 . S
C3733 C3732 1.392 . S
C3733 H3745 0.929 . S
C3734 C3730 1.531 . S
C3734 H3746 0.960 . S
C3734 H3747 0.962 . S
C3734 H3748 0.960 . S
C3735 C3732 1.511 . S
C3735 H3749 0.961 . S
C3735 H3750 0.961 . S
C3735 H3751 0.961 . S
C3736 C3737 1.370 . S
C3736 C3738 1.363 . S
C3736 H3752 0.931 . S
C3737 C3736 1.370 . S
C3737 C3741 1.408 . S
C3738 C3736 1.363 . S
C3738 C3739 1.370 . S
C3738 C3742 1.524 . S
C3739 C3731 1.503 . S
C3739 C3738 1.370 . S
C3739 C3740 1.403 . S
C3740 C3739 1.403 . S
C3740 C3741 1.404 . S
C3740 C3743 1.539 . S
C3741 C3737 1.408 . S
C3741 C3740 1.404 . S
C3741 H3753 0.930 . S
C3742 C3738 1.524 . S
C3742 H3754 0.956 . S
C3742 H3755 0.961 . S
C3742 H3756 0.961 . S
C3743 C3740 1.539 . S
C3743 H3757 0.958 . S
C3743 H3758 0.961 . S
C3743 H3759 0.960 . S
H3744 C3728 0.931 . S
H3745 C3733 0.929 . S
H3746 C3734 0.960 . S
H3747 C3734 0.962 . S
H3748 C3734 0.960 . S
H3749 C3735 0.961 . S
H3750 C3735 0.961 . S
H3751 C3735 0.961 . S
H3752 C3736 0.931 . S
H3753 C3741 0.930 . S
H3754 C3742 0.956 . S
H3755 C3742 0.961 . S
H3756 C3742 0.961 . S
H3757 C3743 0.958 . S
H3758 C3743 0.961 . S
H3759 C3743 0.960 . S
C3760 C3761 1.391 . S
C3760 C3762 1.394 . S
C3760 H3776 0.931 . S
C3761 C3760 1.391 . S
C3761 C3765 1.376 . S
C3762 C3760 1.394 . S
C3762 C3763 1.369 . S
C3762 C3766 1.531 . S
C3763 C3762 1.369 . S
C3763 C3764 1.410 . S
C3763 C3771 1.503 . S
C3764 C3763 1.410 . S
C3764 C3765 1.392 . S
C3764 C3767 1.511 . S
C3765 C3761 1.376 . S
C3765 C3764 1.392 . S
C3765 H3777 0.929 . S
C3766 C3762 1.531 . S
C3766 H3778 0.960 . S
C3766 H3779 0.962 . S
C3766 H3780 0.960 . S
C3767 C3764 1.511 . S
C3767 H3781 0.961 . S
C3767 H3782 0.961 . S
C3767 H3783 0.961 . S
C3768 C3769 1.370 . S
C3768 C3770 1.363 . S
C3768 H3784 0.931 . S
C3769 C3768 1.370 . S
C3769 C3773 1.408 . S
C3770 C3768 1.363 . S
C3770 C3771 1.370 . S
C3770 C3774 1.524 . S
C3771 C3763 1.503 . S
C3771 C3770 1.370 . S
C3771 C3772 1.403 . S
C3772 C3771 1.403 . S
C3772 C3773 1.404 . S
C3772 C3775 1.539 . S
C3773 C3769 1.408 . S
C3773 C3772 1.404 . S
C3773 H3785 0.930 . S
C3774 C3770 1.524 . S
C3774 H3786 0.956 . S
C3774 H3787 0.961 . S
C3774 H3788 0.961 . S
C3775 C3772 1.539 . S
C3775 H3789 0.958 . S
C3775 H3790 0.961 . S
C3775 H3791 0.960 . S
H3776 C3760 0.931 . S
H3777 C3765 0.929 . S
H3778 C3766 0.960 . S
H3779 C3766 0.962 . S
H3780 C3766 0.960 . S
H3781 C3767 0.961 . S
H3782 C3767 0.961 . S
H3783 C3767 0.961 . S
H3784 C3768 0.931 . S
H3785 C3773 0.930 . S
H3786 C3774 0.956 . S
H3787 C3774 0.961 . S
H3788 C3774 0.961 . S
H3789 C3775 0.958 . S
H3790 C3775 0.961 . S
H3791 C3775 0.960 . S
C3792 C3793 1.391 . S
C3792 C3794 1.394 . S
C3792 H3808 0.931 . S
C3793 C3792 1.391 . S
C3793 C3797 1.376 . S
C3794 C3792 1.394 . S
C3794 C3795 1.369 . S
C3794 C3798 1.531 . S
C3795 C3794 1.369 . S
C3795 C3796 1.410 . S
C3795 C3803 1.503 . S
C3796 C3795 1.410 . S
C3796 C3797 1.392 . S
C3796 C3799 1.511 . S
C3797 C3793 1.376 . S
C3797 C3796 1.392 . S
C3797 H3809 0.929 1_565 S
C3798 C3794 1.531 . S
C3798 H3810 0.960 . S
C3798 H3811 0.962 . S
C3798 H3812 0.960 . S
C3799 C3796 1.511 . S
C3799 H3813 0.962 1_565 S
C3799 H3814 0.961 . S
C3799 H3815 0.961 . S
C3800 C3801 1.370 . S
C3800 C3802 1.363 . S
C3800 H3816 0.931 . S
C3801 C3800 1.370 . S
C3801 C3805 1.408 . S
C3802 C3800 1.363 . S
C3802 C3803 1.370 . S
C3802 C3806 1.524 . S
C3803 C3795 1.503 . S
C3803 C3802 1.370 . S
C3803 C3804 1.403 . S
C3804 C3803 1.403 . S
C3804 C3805 1.404 . S
C3804 C3807 1.539 . S
C3805 C3801 1.408 . S
C3805 C3804 1.404 . S
C3805 H3817 0.930 . S
C3806 C3802 1.524 . S
C3806 H3818 0.956 . S
C3806 H3819 0.961 . S
C3806 H3820 0.961 . S
C3807 C3804 1.539 . S
C3807 H3821 0.958 . S
C3807 H3822 0.961 . S
C3807 H3823 0.960 . S
H3808 C3792 0.931 . S
H3809 C3797 0.929 1_545 S
H3810 C3798 0.960 . S
H3811 C3798 0.962 . S
H3812 C3798 0.960 . S
H3813 C3799 0.962 1_545 S
H3814 C3799 0.961 . S
H3815 C3799 0.961 . S
H3816 C3800 0.931 . S
H3817 C3805 0.930 . S
H3818 C3806 0.956 . S
H3819 C3806 0.961 . S
H3820 C3806 0.961 . S
H3821 C3807 0.958 . S
H3822 C3807 0.961 . S
H3823 C3807 0.960 . S
C3824 C3825 1.391 . S
C3824 C3826 1.394 . S
C3824 H3840 0.931 . S
C3825 C3824 1.391 . S
C3825 C3829 1.376 1_554 S
C3826 C3824 1.394 . S
C3826 C3827 1.369 . S
C3826 C3830 1.531 . S
C3827 C3826 1.369 . S
C3827 C3828 1.410 1_554 S
C3827 C3835 1.503 . S
C3828 C3827 1.410 1_556 S
C3828 C3829 1.392 . S
C3828 C3831 1.511 . S
C3829 C3825 1.376 1_556 S
C3829 C3828 1.392 . S
C3829 H3841 0.929 . S
C3830 C3826 1.531 . S
C3830 H3842 0.960 . S
C3830 H3843 0.962 . S
C3830 H3844 0.960 . S
C3831 C3828 1.511 . S
C3831 H3845 0.961 1_565 S
C3831 H3846 0.961 1_565 S
C3831 H3847 0.961 . S
C3832 C3833 1.370 . S
C3832 C3834 1.363 . S
C3832 H3848 0.931 . S
C3833 C3832 1.370 . S
C3833 C3837 1.396 1_544 S
C3834 C3832 1.363 . S
C3834 C3835 1.370 1_545 S
C3834 C3838 1.524 . S
C3835 C3827 1.503 . S
C3835 C3834 1.370 1_565 S
C3835 C3836 1.403 1_554 S
C3836 C3835 1.403 1_556 S
C3836 C3837 1.402 . S
C3836 C3839 1.539 . S
C3837 C3833 1.396 1_566 S
C3837 C3836 1.402 . S
C3837 H3849 0.944 . S
C3838 C3834 1.524 . S
C3838 H3850 0.956 . S
C3838 H3851 0.961 . S
C3838 H3852 0.961 . S
C3839 C3836 1.539 . S
C3839 H3853 0.958 . S
C3839 H3854 0.961 . S
C3839 H3855 0.960 . S
H3840 C3824 0.931 . S
H3841 C3829 0.929 . S
H3842 C3830 0.960 . S
H3843 C3830 0.962 . S
H3844 C3830 0.960 . S
H3845 C3831 0.961 1_545 S
H3846 C3831 0.961 1_545 S
H3847 C3831 0.961 . S
H3848 C3832 0.931 . S
H3849 C3837 0.944 . S
H3850 C3838 0.956 . S
H3851 C3838 0.961 . S
H3852 C3838 0.961 . S
H3853 C3839 0.958 . S
H3854 C3839 0.961 . S
H3855 C3839 0.960 . S
C3856 C3857 1.391 . S
C3856 C3858 1.394 . S
C3856 H3872 0.931 . S
C3857 C3856 1.391 . S
C3857 C3861 1.376 . S
C3858 C3856 1.394 . S
C3858 C3859 1.369 . S
C3858 C3862 1.531 . S
C3859 C3858 1.369 . S
C3859 C3860 1.410 . S
C3859 C3867 1.503 . S
C3860 C3859 1.410 . S
C3860 C3861 1.392 . S
C3860 C3863 1.511 . S
C3861 C3857 1.376 . S
C3861 C3860 1.392 . S
C3861 H3873 0.929 . S
C3862 C3858 1.531 . S
C3862 H3874 0.960 . S
C3862 H3875 0.962 . S
C3862 H3876 0.960 . S
C3863 C3860 1.511 . S
C3863 H3877 0.961 . S
C3863 H3878 0.961 . S
C3863 H3879 0.961 . S
C3864 C3865 1.370 . S
C3864 C3866 1.363 . S
C3864 H3880 0.931 . S
C3865 C3864 1.370 . S
C3865 C3869 1.408 . S
C3866 C3864 1.363 . S
C3866 C3867 1.370 . S
C3866 C3870 1.524 . S
C3867 C3859 1.503 . S
C3867 C3866 1.370 . S
C3867 C3868 1.403 . S
C3868 C3867 1.403 . S
C3868 C3869 1.404 . S
C3868 C3871 1.539 . S
C3869 C3865 1.408 . S
C3869 C3868 1.404 . S
C3869 H3881 0.930 . S
C3870 C3866 1.524 . S
C3870 H3882 0.956 . S
C3870 H3883 0.961 . S
C3870 H3884 0.961 . S
C3871 C3868 1.539 . S
C3871 H3885 0.958 . S
C3871 H3886 0.961 . S
C3871 H3887 0.960 . S
H3872 C3856 0.931 . S
H3873 C3861 0.929 . S
H3874 C3862 0.960 . S
H3875 C3862 0.962 . S
H3876 C3862 0.960 . S
H3877 C3863 0.961 . S
H3878 C3863 0.961 . S
H3879 C3863 0.961 . S
H3880 C3864 0.931 . S
H3881 C3869 0.930 . S
H3882 C3870 0.956 . S
H3883 C3870 0.961 . S
H3884 C3870 0.961 . S
H3885 C3871 0.958 . S
H3886 C3871 0.961 . S
H3887 C3871 0.960 . S
C3888 C3889 1.391 . S
C3888 C3890 1.394 . S
C3888 H3904 0.931 . S
C3889 C3888 1.391 . S
C3889 C3893 1.376 . S
C3890 C3888 1.394 . S
C3890 C3891 1.369 . S
C3890 C3894 1.531 . S
C3891 C3890 1.369 . S
C3891 C3892 1.410 . S
C3891 C3899 1.503 . S
C3892 C3891 1.410 . S
C3892 C3893 1.392 . S
C3892 C3895 1.511 . S
C3893 C3889 1.376 . S
C3893 C3892 1.392 . S
C3893 H3905 0.929 . S
C3894 C3890 1.531 . S
C3894 H3906 0.960 . S
C3894 H3907 0.962 . S
C3894 H3908 0.969 . S
C3895 C3892 1.511 . S
C3895 H3909 0.961 . S
C3895 H3910 0.961 . S
C3895 H3911 0.961 . S
C3896 C3897 1.370 . S
C3896 C3898 1.363 . S
C3896 H3912 0.931 . S
C3897 C3896 1.370 . S
C3897 C3901 1.408 . S
C3898 C3896 1.363 . S
C3898 C3899 1.370 . S
C3898 C3902 1.524 . S
C3899 C3891 1.503 . S
C3899 C3898 1.370 . S
C3899 C3900 1.403 . S
C3900 C3899 1.403 . S
C3900 C3901 1.404 . S
C3900 C3903 1.539 1_554 S
C3901 C3897 1.408 . S
C3901 C3900 1.404 . S
C3901 H3913 0.930 1_554 S
C3902 C3898 1.524 . S
C3902 H3914 0.956 . S
C3902 H3915 0.961 . S
C3902 H3916 0.961 . S
C3903 C3900 1.539 1_556 S
C3903 H3917 0.958 . S
C3903 H3918 0.961 . S
C3903 H3919 0.960 . S
H3904 C3888 0.931 . S
H3905 C3893 0.929 . S
H3906 C3894 0.960 . S
H3907 C3894 0.962 . S
H3908 C3894 0.969 . S
H3909 C3895 0.961 . S
H3910 C3895 0.961 . S
H3911 C3895 0.961 . S
H3912 C3896 0.931 . S
H3913 C3901 0.930 1_556 S
H3914 C3902 0.956 . S
H3915 C3902 0.961 . S
H3916 C3902 0.961 . S
H3917 C3903 0.958 . S
H3918 C3903 0.961 . S
H3919 C3903 0.960 . S
C3920 C3921 1.391 . S
C3920 C3922 1.394 . S
C3920 H3936 0.931 . S
C3921 C3920 1.391 . S
C3921 C3925 1.376 . S
C3922 C3920 1.394 . S
C3922 C3923 1.369 . S
C3922 C3926 1.531 . S
C3923 C3922 1.369 . S
C3923 C3924 1.410 . S
C3923 C3931 1.503 . S
C3924 C3923 1.410 . S
C3924 C3925 1.392 . S
C3924 C3927 1.511 . S
C3925 C3921 1.376 . S
C3925 C3924 1.392 . S
C3925 H3937 0.929 . S
C3926 C3922 1.531 . S
C3926 H3938 0.960 . S
C3926 H3939 0.962 . S
C3926 H3940 0.960 . S
C3927 C3924 1.511 . S
C3927 H3941 0.961 . S
C3927 H3942 0.961 . S
C3927 H3943 0.961 . S
C3928 C3929 1.370 . S
C3928 C3930 1.363 . S
C3928 H3944 0.931 . S
C3929 C3928 1.370 . S
C3929 C3933 1.408 . S
C3930 C3928 1.363 . S
C3930 C3931 1.370 . S
C3930 C3934 1.524 . S
C3931 C3923 1.503 . S
C3931 C3930 1.370 . S
C3931 C3932 1.403 . S
C3932 C3931 1.403 . S
C3932 C3933 1.404 . S
C3932 C3935 1.539 . S
C3933 C3929 1.408 . S
C3933 C3932 1.404 . S
C3933 H3945 0.930 . S
C3934 C3930 1.524 . S
C3934 H3946 0.956 . S
C3934 H3947 0.961 . S
C3934 H3948 0.961 . S
C3935 C3932 1.539 . S
C3935 H3949 0.958 . S
C3935 H3950 0.961 . S
C3935 H3951 0.960 . S
H3936 C3920 0.931 . S
H3937 C3925 0.929 . S
H3938 C3926 0.960 . S
H3939 C3926 0.962 . S
H3940 C3926 0.960 . S
H3941 C3927 0.961 . S
H3942 C3927 0.961 . S
H3943 C3927 0.961 . S
H3944 C3928 0.931 . S
H3945 C3933 0.930 . S
H3946 C3934 0.956 . S
H3947 C3934 0.961 . S
H3948 C3934 0.961 . S
H3949 C3935 0.958 . S
H3950 C3935 0.961 . S
H3951 C3935 0.960 . S
C3952 C3953 1.391 . S
C3952 C3954 1.394 . S
C3952 H3968 0.931 . S
C3953 C3952 1.391 . S
C3953 C3957 1.376 . S
C3954 C3952 1.394 . S
C3954 C3955 1.369 . S
C3954 C3958 1.531 . S
C3955 C3954 1.369 . S
C3955 C3956 1.410 . S
C3955 C3963 1.503 . S
C3956 C3955 1.410 . S
C3956 C3957 1.392 . S
C3956 C3959 1.511 . S
C3957 C3953 1.376 . S
C3957 C3956 1.392 . S
C3957 H3969 0.929 . S
C3958 C3954 1.531 . S
C3958 H3970 0.960 . S
C3958 H3971 0.962 . S
C3958 H3972 0.960 . S
C3959 C3956 1.511 . S
C3959 H3973 0.961 . S
C3959 H3974 0.961 . S
C3959 H3975 0.961 . S
C3960 C3961 1.370 . S
C3960 C3962 1.363 . S
C3960 H3976 0.931 . S
C3961 C3960 1.370 . S
C3961 C3965 1.408 . S
C3962 C3960 1.363 . S
C3962 C3963 1.370 . S
C3962 C3966 1.524 . S
C3963 C3955 1.503 . S
C3963 C3962 1.370 . S
C3963 C3964 1.403 . S
C3964 C3963 1.403 . S
C3964 C3965 1.404 . S
C3964 C3967 1.539 . S
C3965 C3961 1.408 . S
C3965 C3964 1.404 . S
C3965 H3977 0.930 . S
C3966 C3962 1.524 . S
C3966 H3978 0.956 . S
C3966 H3979 0.961 . S
C3966 H3980 0.961 . S
C3967 C3964 1.539 . S
C3967 H3981 0.958 . S
C3967 H3982 0.961 . S
C3967 H3983 0.960 . S
H3968 C3952 0.931 . S
H3969 C3957 0.929 . S
H3970 C3958 0.960 . S
H3971 C3958 0.962 . S
H3972 C3958 0.960 . S
H3973 C3959 0.961 . S
H3974 C3959 0.961 . S
H3975 C3959 0.961 . S
H3976 C3960 0.931 . S
H3977 C3965 0.930 . S
H3978 C3966 0.956 . S
H3979 C3966 0.961 . S
H3980 C3966 0.961 . S
H3981 C3967 0.958 . S
H3982 C3967 0.961 . S
H3983 C3967 0.960 . S
C3984 C3985 1.391 . S
C3984 C3986 1.394 . S
C3984 H4000 0.931 . S
C3985 C3984 1.391 . S
C3985 C3989 1.376 . S
C3986 C3984 1.394 . S
C3986 C3987 1.369 . S
C3986 C3990 1.531 . S
C3987 C3986 1.369 . S
C3987 C3988 1.410 . S
C3987 C3995 1.503 . S
C3988 C3987 1.410 . S
C3988 C3989 1.392 . S
C3988 C3991 1.511 . S
C3989 C3985 1.376 . S
C3989 C3988 1.392 . S
C3989 H4001 0.929 . S
C3990 C3986 1.531 . S
C3990 H4002 0.960 . S
C3990 H4003 0.962 . S
C3990 H4004 0.960 . S
C3991 C3988 1.511 . S
C3991 H4005 0.961 . S
C3991 H4006 0.961 . S
C3991 H4007 0.961 . S
C3992 C3993 1.370 . S
C3992 C3994 1.363 . S
C3992 H4008 0.931 . S
C3993 C3992 1.370 . S
C3993 C3997 1.408 . S
C3994 C3992 1.363 . S
C3994 C3995 1.370 . S
C3994 C3998 1.524 . S
C3995 C3987 1.503 . S
C3995 C3994 1.370 . S
C3995 C3996 1.403 . S
C3996 C3995 1.403 . S
C3996 C3997 1.404 . S
C3996 C3999 1.539 . S
C3997 C3993 1.408 . S
C3997 C3996 1.404 . S
C3997 H4009 0.930 . S
C3998 C3994 1.524 . S
C3998 H4010 0.956 . S
C3998 H4011 0.961 . S
C3998 H4012 0.961 . S
C3999 C3996 1.539 . S
C3999 H4013 0.958 . S
C3999 H4014 0.961 . S
C3999 H4015 0.960 . S
H4000 C3984 0.931 . S
H4001 C3989 0.929 . S
H4002 C3990 0.960 . S
H4003 C3990 0.962 . S
H4004 C3990 0.960 . S
H4005 C3991 0.961 . S
H4006 C3991 0.961 . S
H4007 C3991 0.961 . S
H4008 C3992 0.931 . S
H4009 C3997 0.930 . S
H4010 C3998 0.956 . S
H4011 C3998 0.961 . S
H4012 C3998 0.961 . S
H4013 C3999 0.958 . S
H4014 C3999 0.961 . S
H4015 C3999 0.960 . S
C4016 C4017 1.391 . S
C4016 C4018 1.394 . S
C4016 H4032 0.931 . S
C4017 C4016 1.391 . S
C4017 C4021 1.376 . S
C4018 C4016 1.394 . S
C4018 C4019 1.369 . S
C4018 C4022 1.531 . S
C4019 C4018 1.369 . S
C4019 C4020 1.410 . S
C4019 C4027 1.503 . S
C4020 C4019 1.410 . S
C4020 C4021 1.392 . S
C4020 C4023 1.511 . S
C4021 C4017 1.376 . S
C4021 C4020 1.392 . S
C4021 H4033 0.929 . S
C4022 C4018 1.531 . S
C4022 H4034 0.960 . S
C4022 H4035 0.962 . S
C4022 H4036 0.960 . S
C4023 C4020 1.511 . S
C4023 H4037 0.961 . S
C4023 H4038 0.961 . S
C4023 H4039 0.961 . S
C4024 C4025 1.370 . S
C4024 C4026 1.363 . S
C4024 H4040 0.931 . S
C4025 C4024 1.370 . S
C4025 C4029 1.408 . S
C4026 C4024 1.363 . S
C4026 C4027 1.370 . S
C4026 C4030 1.524 . S
C4027 C4019 1.503 . S
C4027 C4026 1.370 . S
C4027 C4028 1.403 . S
C4028 C4027 1.403 . S
C4028 C4029 1.404 . S
C4028 C4031 1.539 . S
C4029 C4025 1.408 . S
C4029 C4028 1.404 . S
C4029 H4041 0.930 . S
C4030 C4026 1.524 . S
C4030 H4042 0.956 . S
C4030 H4043 0.961 . S
C4030 H4044 0.961 . S
C4031 C4028 1.539 . S
C4031 H4045 0.958 . S
C4031 H4046 0.961 . S
C4031 H4047 0.960 . S
H4032 C4016 0.931 . S
H4033 C4021 0.929 . S
H4034 C4022 0.960 . S
H4035 C4022 0.962 . S
H4036 C4022 0.960 . S
H4037 C4023 0.961 . S
H4038 C4023 0.961 . S
H4039 C4023 0.961 . S
H4040 C4024 0.931 . S
H4041 C4029 0.930 . S
H4042 C4030 0.956 . S
H4043 C4030 0.961 . S
H4044 C4030 0.961 . S
H4045 C4031 0.958 . S
H4046 C4031 0.961 . S
H4047 C4031 0.960 . S
C4048 C4049 1.391 . S
C4048 C4050 1.394 . S
C4048 H4064 0.931 . S
C4049 C4048 1.391 . S
C4049 C4053 1.376 . S
C4050 C4048 1.394 . S
C4050 C4051 1.369 . S
C4050 C4054 1.531 . S
C4051 C4050 1.369 . S
C4051 C4052 1.410 . S
C4051 C4059 1.503 . S
C4052 C4051 1.410 . S
C4052 C4053 1.392 . S
C4052 C4055 1.511 . S
C4053 C4049 1.376 . S
C4053 C4052 1.392 . S
C4053 H4065 0.929 . S
C4054 C4050 1.531 . S
C4054 H4066 0.960 . S
C4054 H4067 0.962 . S
C4054 H4068 0.960 . S
C4055 C4052 1.511 . S
C4055 H4069 0.961 . S
C4055 H4070 0.961 . S
C4055 H4071 0.961 . S
C4056 C4057 1.370 . S
C4056 C4058 1.363 . S
C4056 H4072 0.931 . S
C4057 C4056 1.370 . S
C4057 C4061 1.408 . S
C4058 C4056 1.363 . S
C4058 C4059 1.370 . S
C4058 C4062 1.524 . S
C4059 C4051 1.503 . S
C4059 C4058 1.370 . S
C4059 C4060 1.403 . S
C4060 C4059 1.403 . S
C4060 C4061 1.404 . S
C4060 C4063 1.539 . S
C4061 C4057 1.408 . S
C4061 C4060 1.404 . S
C4061 H4073 0.930 . S
C4062 C4058 1.524 . S
C4062 H4074 0.956 . S
C4062 H4075 0.961 . S
C4062 H4076 0.961 . S
C4063 C4060 1.539 . S
C4063 H4077 0.958 . S
C4063 H4078 0.961 . S
C4063 H4079 0.960 . S
H4064 C4048 0.931 . S
H4065 C4053 0.929 . S
H4066 C4054 0.960 . S
H4067 C4054 0.962 . S
H4068 C4054 0.960 . S
H4069 C4055 0.961 . S
H4070 C4055 0.961 . S
H4071 C4055 0.961 . S
H4072 C4056 0.931 . S
H4073 C4061 0.930 . S
H4074 C4062 0.956 . S
H4075 C4062 0.961 . S
H4076 C4062 0.961 . S
H4077 C4063 0.958 . S
H4078 C4063 0.961 . S
H4079 C4063 0.960 . S
C4080 C4081 1.391 . S
C4080 C4082 1.394 . S
C4080 H4096 0.931 . S
C4081 C4080 1.391 . S
C4081 C4085 1.376 . S
C4082 C4080 1.394 . S
C4082 C4083 1.369 . S
C4082 C4086 1.531 . S
C4083 C4082 1.369 . S
C4083 C4084 1.410 . S
C4083 C4091 1.503 . S
C4084 C4083 1.410 . S
C4084 C4085 1.392 . S
C4084 C4087 1.511 . S
C4085 C4081 1.376 . S
C4085 C4084 1.392 . S
C4085 H4097 0.929 . S
C4086 C4082 1.531 . S
C4086 H4098 0.960 . S
C4086 H4099 0.962 . S
C4086 H4100 0.960 . S
C4087 C4084 1.511 . S
C4087 H4101 0.961 . S
C4087 H4102 0.961 . S
C4087 H4103 0.961 . S
C4088 C4089 1.370 . S
C4088 C4090 1.363 . S
C4088 H4104 0.931 . S
C4089 C4088 1.370 . S
C4089 C4093 1.408 . S
C4090 C4088 1.363 . S
C4090 C4091 1.370 . S
C4090 C4094 1.524 . S
C4091 C4083 1.503 . S
C4091 C4090 1.370 . S
C4091 C4092 1.403 . S
C4092 C4091 1.403 . S
C4092 C4093 1.404 . S
C4092 C4095 1.539 . S
C4093 C4089 1.408 . S
C4093 C4092 1.404 . S
C4093 H4105 0.930 . S
C4094 C4090 1.524 . S
C4094 H4106 0.956 . S
C4094 H4107 0.961 . S
C4094 H4108 0.961 . S
C4095 C4092 1.539 . S
C4095 H4109 0.958 . S
C4095 H4110 0.961 . S
C4095 H4111 0.960 . S
H4096 C4080 0.931 . S
H4097 C4085 0.929 . S
H4098 C4086 0.960 . S
H4099 C4086 0.962 . S
H4100 C4086 0.960 . S
H4101 C4087 0.961 . S
H4102 C4087 0.961 . S
H4103 C4087 0.961 . S
H4104 C4088 0.931 . S
H4105 C4093 0.930 . S
H4106 C4094 0.956 . S
H4107 C4094 0.961 . S
H4108 C4094 0.961 . S
H4109 C4095 0.958 . S
H4110 C4095 0.961 . S
H4111 C4095 0.960 . S
C4112 C4113 1.391 . S
C4112 C4114 1.394 . S
C4112 H4128 0.931 . S
C4113 C4112 1.391 . S
C4113 C4117 1.376 . S
C4114 C4112 1.394 . S
C4114 C4115 1.369 . S
C4114 C4118 1.531 . S
C4115 C4114 1.369 . S
C4115 C4116 1.410 . S
C4115 C4123 1.503 . S
C4116 C4115 1.410 . S
C4116 C4117 1.392 . S
C4116 C4119 1.511 . S
C4117 C4113 1.376 . S
C4117 C4116 1.392 . S
C4117 H4129 0.929 . S
C4118 C4114 1.531 . S
C4118 H4130 0.960 . S
C4118 H4131 0.962 . S
C4118 H4132 0.960 . S
C4119 C4116 1.511 . S
C4119 H4133 0.961 . S
C4119 H4134 0.961 . S
C4119 H4135 0.961 . S
C4120 C4121 1.370 . S
C4120 C4122 1.363 . S
C4120 H4136 0.931 . S
C4121 C4120 1.370 . S
C4121 C4125 1.408 . S
C4122 C4120 1.363 . S
C4122 C4123 1.370 . S
C4122 C4126 1.524 . S
C4123 C4115 1.503 . S
C4123 C4122 1.370 . S
C4123 C4124 1.403 . S
C4124 C4123 1.403 . S
C4124 C4125 1.404 . S
C4124 C4127 1.539 . S
C4125 C4121 1.408 . S
C4125 C4124 1.404 . S
C4125 H4137 0.930 . S
C4126 C4122 1.524 . S
C4126 H4138 0.956 . S
C4126 H4139 0.961 . S
C4126 H4140 0.961 . S
C4127 C4124 1.539 . S
C4127 H4141 0.958 . S
C4127 H4142 0.961 . S
C4127 H4143 0.960 . S
H4128 C4112 0.931 . S
H4129 C4117 0.929 . S
H4130 C4118 0.960 . S
H4131 C4118 0.962 . S
H4132 C4118 0.960 . S
H4133 C4119 0.961 . S
H4134 C4119 0.961 . S
H4135 C4119 0.961 . S
H4136 C4120 0.931 . S
H4137 C4125 0.930 . S
H4138 C4126 0.956 . S
H4139 C4126 0.961 . S
H4140 C4126 0.961 . S
H4141 C4127 0.958 . S
H4142 C4127 0.961 . S
H4143 C4127 0.960 . S
C4144 C4145 1.391 . S
C4144 C4146 1.394 . S
C4144 H4160 0.931 . S
C4145 C4144 1.391 . S
C4145 C4149 1.376 . S
C4146 C4144 1.394 . S
C4146 C4147 1.369 . S
C4146 C4150 1.531 . S
C4147 C4146 1.369 . S
C4147 C4148 1.410 . S
C4147 C4155 1.503 . S
C4148 C4147 1.410 . S
C4148 C4149 1.392 . S
C4148 C4151 1.511 . S
C4149 C4145 1.376 . S
C4149 C4148 1.392 . S
C4149 H4161 0.929 . S
C4150 C4146 1.531 . S
C4150 H4162 0.960 . S
C4150 H4163 0.962 . S
C4150 H4164 0.960 . S
C4151 C4148 1.511 . S
C4151 H4165 0.961 . S
C4151 H4166 0.961 . S
C4151 H4167 0.961 . S
C4152 C4153 1.370 . S
C4152 C4154 1.363 . S
C4152 H4168 0.931 . S
C4153 C4152 1.370 . S
C4153 C4157 1.408 . S
C4154 C4152 1.363 . S
C4154 C4155 1.370 . S
C4154 C4158 1.524 . S
C4155 C4147 1.503 . S
C4155 C4154 1.370 . S
C4155 C4156 1.403 . S
C4156 C4155 1.403 . S
C4156 C4157 1.404 . S
C4156 C4159 1.539 . S
C4157 C4153 1.408 . S
C4157 C4156 1.404 . S
C4157 H4169 0.930 . S
C4158 C4154 1.524 . S
C4158 H4170 0.956 . S
C4158 H4171 0.961 . S
C4158 H4172 0.961 . S
C4159 C4156 1.539 . S
C4159 H4173 0.958 . S
C4159 H4174 0.961 . S
C4159 H4175 0.960 . S
H4160 C4144 0.931 . S
H4161 C4149 0.929 . S
H4162 C4150 0.960 . S
H4163 C4150 0.962 . S
H4164 C4150 0.960 . S
H4165 C4151 0.961 . S
H4166 C4151 0.961 . S
H4167 C4151 0.961 . S
H4168 C4152 0.931 . S
H4169 C4157 0.930 . S
H4170 C4158 0.956 . S
H4171 C4158 0.961 . S
H4172 C4158 0.961 . S
H4173 C4159 0.958 . S
H4174 C4159 0.961 . S
H4175 C4159 0.960 . S
C4176 C4177 1.391 . S
C4176 C4178 1.394 . S
C4176 H4192 0.931 . S
C4177 C4176 1.391 . S
C4177 C4181 1.376 . S
C4178 C4176 1.394 . S
C4178 C4179 1.369 . S
C4178 C4182 1.531 . S
C4179 C4178 1.369 . S
C4179 C4180 1.410 . S
C4179 C4187 1.503 . S
C4180 C4179 1.410 . S
C4180 C4181 1.392 . S
C4180 C4183 1.511 . S
C4181 C4177 1.376 . S
C4181 C4180 1.392 . S
C4181 H4193 0.929 . S
C4182 C4178 1.531 . S
C4182 H4194 0.960 . S
C4182 H4195 0.962 . S
C4182 H4196 0.960 . S
C4183 C4180 1.511 . S
C4183 H4197 0.961 . S
C4183 H4198 0.961 . S
C4183 H4199 0.961 . S
C4184 C4185 1.370 . S
C4184 C4186 1.363 . S
C4184 H4200 0.931 . S
C4185 C4184 1.370 . S
C4185 C4189 1.408 . S
C4186 C4184 1.363 . S
C4186 C4187 1.370 . S
C4186 C4190 1.524 . S
C4187 C4179 1.503 . S
C4187 C4186 1.370 . S
C4187 C4188 1.403 . S
C4188 C4187 1.403 . S
C4188 C4189 1.404 . S
C4188 C4191 1.539 1_455 S
C4189 C4185 1.408 . S
C4189 C4188 1.404 . S
C4189 H4201 0.930 . S
C4190 C4186 1.524 . S
C4190 H4202 0.956 . S
C4190 H4203 0.961 . S
C4190 H4204 0.961 . S
C4191 C4188 1.539 1_655 S
C4191 H4205 0.958 . S
C4191 H4206 0.961 . S
C4191 H4207 0.960 . S
H4192 C4176 0.931 . S
H4193 C4181 0.929 . S
H4194 C4182 0.960 . S
H4195 C4182 0.962 . S
H4196 C4182 0.960 . S
H4197 C4183 0.961 . S
H4198 C4183 0.961 . S
H4199 C4183 0.961 . S
H4200 C4184 0.931 . S
H4201 C4189 0.930 . S
H4202 C4190 0.956 . S
H4203 C4190 0.961 . S
H4204 C4190 0.961 . S
H4205 C4191 0.958 . S
H4206 C4191 0.961 . S
H4207 C4191 0.960 . S
C4208 C4209 1.391 . S
C4208 C4210 1.394 . S
C4208 H4224 0.931 . S
C4209 C4208 1.391 . S
C4209 C4213 1.376 . S
C4210 C4208 1.394 . S
C4210 C4211 1.369 . S
C4210 C4214 1.531 . S
C4211 C4210 1.369 . S
C4211 C4212 1.410 . S
C4211 C4219 1.503 . S
C4212 C4211 1.410 . S
C4212 C4213 1.392 . S
C4212 C4215 1.511 . S
C4213 C4209 1.376 . S
C4213 C4212 1.392 . S
C4213 H4225 0.929 . S
C4214 C4210 1.531 . S
C4214 H4226 0.960 . S
C4214 H4227 0.962 . S
C4214 H4228 0.960 . S
C4215 C4212 1.511 . S
C4215 H4229 0.961 . S
C4215 H4230 0.961 . S
C4215 H4231 0.961 . S
C4216 C4217 1.370 . S
C4216 C4218 1.363 . S
C4216 H4232 0.931 . S
C4217 C4216 1.370 . S
C4217 C4221 1.408 . S
C4218 C4216 1.363 . S
C4218 C4219 1.370 . S
C4218 C4222 1.524 . S
C4219 C4211 1.503 . S
C4219 C4218 1.370 . S
C4219 C4220 1.403 . S
C4220 C4219 1.403 . S
C4220 C4221 1.404 . S
C4220 C4223 1.539 . S
C4221 C4217 1.408 . S
C4221 C4220 1.404 . S
C4221 H4233 0.930 . S
C4222 C4218 1.524 . S
C4222 H4234 0.956 . S
C4222 H4235 0.961 . S
C4222 H4236 0.961 . S
C4223 C4220 1.539 . S
C4223 H4237 0.958 . S
C4223 H4238 0.961 . S
C4223 H4239 0.960 . S
H4224 C4208 0.931 . S
H4225 C4213 0.929 . S
H4226 C4214 0.960 . S
H4227 C4214 0.962 . S
H4228 C4214 0.960 . S
H4229 C4215 0.961 . S
H4230 C4215 0.961 . S
H4231 C4215 0.961 . S
H4232 C4216 0.931 . S
H4233 C4221 0.930 . S
H4234 C4222 0.956 . S
H4235 C4222 0.961 . S
H4236 C4222 0.961 . S
H4237 C4223 0.958 . S
H4238 C4223 0.961 . S
H4239 C4223 0.960 . S
C4240 C4241 1.391 . S
C4240 C4242 1.394 . S
C4240 H4256 0.931 . S
C4241 C4240 1.391 . S
C4241 C4245 1.376 . S
C4242 C4240 1.394 . S
C4242 C4243 1.369 . S
C4242 C4246 1.531 . S
C4243 C4242 1.369 . S
C4243 C4244 1.410 . S
C4243 C4251 1.503 . S
C4244 C4243 1.410 . S
C4244 C4245 1.392 . S
C4244 C4247 1.511 . S
C4245 C4241 1.376 . S
C4245 C4244 1.392 . S
C4245 H4257 0.929 . S
C4246 C4242 1.531 . S
C4246 H4258 0.960 . S
C4246 H4259 0.962 . S
C4246 H4260 0.960 . S
C4247 C4244 1.511 . S
C4247 H4261 0.961 . S
C4247 H4262 0.961 . S
C4247 H4263 0.961 . S
C4248 C4249 1.370 . S
C4248 C4250 1.363 . S
C4248 H4264 0.931 . S
C4249 C4248 1.370 . S
C4249 C4253 1.408 . S
C4250 C4248 1.363 . S
C4250 C4251 1.370 . S
C4250 C4254 1.524 . S
C4251 C4243 1.503 . S
C4251 C4250 1.370 . S
C4251 C4252 1.403 . S
C4252 C4251 1.403 . S
C4252 C4253 1.404 . S
C4252 C4255 1.539 . S
C4253 C4249 1.408 . S
C4253 C4252 1.404 . S
C4253 H4265 0.930 . S
C4254 C4250 1.524 . S
C4254 H4266 0.956 . S
C4254 H4267 0.961 . S
C4254 H4268 0.961 . S
C4255 C4252 1.539 . S
C4255 H4269 0.958 . S
C4255 H4270 0.961 . S
C4255 H4271 0.960 . S
H4256 C4240 0.931 . S
H4257 C4245 0.929 . S
H4258 C4246 0.960 . S
H4259 C4246 0.962 . S
H4260 C4246 0.960 . S
H4261 C4247 0.961 . S
H4262 C4247 0.961 . S
H4263 C4247 0.961 . S
H4264 C4248 0.931 . S
H4265 C4253 0.930 . S
H4266 C4254 0.956 . S
H4267 C4254 0.961 . S
H4268 C4254 0.961 . S
H4269 C4255 0.958 . S
H4270 C4255 0.961 . S
H4271 C4255 0.960 . S
C4272 C4273 1.391 . S
C4272 C4274 1.394 . S
C4272 H4288 0.931 . S
C4273 C4272 1.391 . S
C4273 C4277 1.376 . S
C4274 C4272 1.394 . S
C4274 C4275 1.369 . S
C4274 C4278 1.531 . S
C4275 C4274 1.369 . S
C4275 C4276 1.410 . S
C4275 C4283 1.503 . S
C4276 C4275 1.410 . S
C4276 C4277 1.392 . S
C4276 C4279 1.511 . S
C4277 C4273 1.376 . S
C4277 C4276 1.392 . S
C4277 H4289 0.929 . S
C4278 C4274 1.531 . S
C4278 H4290 0.960 . S
C4278 H4291 0.962 . S
C4278 H4292 0.960 . S
C4279 C4276 1.511 . S
C4279 H4293 0.961 . S
C4279 H4294 0.961 . S
C4279 H4295 0.961 . S
C4280 C4281 1.370 . S
C4280 C4282 1.363 . S
C4280 H4296 0.931 . S
C4281 C4280 1.370 . S
C4281 C4285 1.408 . S
C4282 C4280 1.363 . S
C4282 C4283 1.370 . S
C4282 C4286 1.524 . S
C4283 C4275 1.503 . S
C4283 C4282 1.370 . S
C4283 C4284 1.403 . S
C4284 C4283 1.403 . S
C4284 C4285 1.404 . S
C4284 C4287 1.539 . S
C4285 C4281 1.408 . S
C4285 C4284 1.404 . S
C4285 H4297 0.930 . S
C4286 C4282 1.524 . S
C4286 H4298 0.956 . S
C4286 H4299 0.961 . S
C4286 H4300 0.961 . S
C4287 C4284 1.539 . S
C4287 H4301 0.958 . S
C4287 H4302 0.961 . S
C4287 H4303 0.960 . S
H4288 C4272 0.931 . S
H4289 C4277 0.929 . S
H4290 C4278 0.960 . S
H4291 C4278 0.962 . S
H4292 C4278 0.960 . S
H4293 C4279 0.961 . S
H4294 C4279 0.961 . S
H4295 C4279 0.961 . S
H4296 C4280 0.931 . S
H4297 C4285 0.930 . S
H4298 C4286 0.956 . S
H4299 C4286 0.961 . S
H4300 C4286 0.961 . S
H4301 C4287 0.958 . S
H4302 C4287 0.961 . S
H4303 C4287 0.960 . S
C4304 C4305 1.391 . S
C4304 C4306 1.394 . S
C4304 H4320 0.931 . S
C4305 C4304 1.391 . S
C4305 C4309 1.376 . S
C4306 C4304 1.394 . S
C4306 C4307 1.369 . S
C4306 C4310 1.531 . S
C4307 C4306 1.369 . S
C4307 C4308 1.410 . S
C4307 C4315 1.503 . S
C4308 C4307 1.410 . S
C4308 C4309 1.392 . S
C4308 C4311 1.511 . S
C4309 C4305 1.376 . S
C4309 C4308 1.392 . S
C4309 H4321 0.929 . S
C4310 C4306 1.531 . S
C4310 H4322 0.960 . S
C4310 H4323 0.962 . S
C4310 H4324 0.960 . S
C4311 C4308 1.511 . S
C4311 H4325 0.961 . S
C4311 H4326 0.961 . S
C4311 H4327 0.961 . S
C4312 C4313 1.370 . S
C4312 C4314 1.363 . S
C4312 H4328 0.931 . S
C4313 C4312 1.370 . S
C4313 C4317 1.408 . S
C4314 C4312 1.363 . S
C4314 C4315 1.370 . S
C4314 C4318 1.524 . S
C4315 C4307 1.503 . S
C4315 C4314 1.370 . S
C4315 C4316 1.403 . S
C4316 C4315 1.403 . S
C4316 C4317 1.404 . S
C4316 C4319 1.539 . S
C4317 C4313 1.408 . S
C4317 C4316 1.404 . S
C4317 H4329 0.930 1_655 S
C4318 C4314 1.524 . S
C4318 H4330 0.956 . S
C4318 H4331 0.961 . S
C4318 H4332 0.961 . S
C4319 C4316 1.539 . S
C4319 H4333 0.958 . S
C4319 H4334 0.961 . S
C4319 H4335 0.960 . S
H4320 C4304 0.931 . S
H4321 C4309 0.929 . S
H4322 C4310 0.960 . S
H4323 C4310 0.962 . S
H4324 C4310 0.960 . S
H4325 C4311 0.961 . S
H4326 C4311 0.961 . S
H4327 C4311 0.961 . S
H4328 C4312 0.931 . S
H4329 C4317 0.930 1_455 S
H4330 C4318 0.956 . S
H4331 C4318 0.961 . S
H4332 C4318 0.961 . S
H4333 C4319 0.958 . S
H4334 C4319 0.961 . S
H4335 C4319 0.960 . S
C4336 C4337 1.391 . S
C4336 C4338 1.394 . S
C4336 H4352 0.931 . S
C4337 C4336 1.391 . S
C4337 C4341 1.376 . S
C4338 C4336 1.394 . S
C4338 C4339 1.369 . S
C4338 C4342 1.531 . S
C4339 C4338 1.369 . S
C4339 C4340 1.410 . S
C4339 C4347 1.503 . S
C4340 C4339 1.410 . S
C4340 C4341 1.392 . S
C4340 C4343 1.511 . S
C4341 C4337 1.376 . S
C4341 C4340 1.392 . S
C4341 H4353 0.929 . S
C4342 C4338 1.531 . S
C4342 H4354 0.960 . S
C4342 H4355 0.962 . S
C4342 H4356 0.960 . S
C4343 C4340 1.511 . S
C4343 H4357 0.961 . S
C4343 H4358 0.961 . S
C4343 H4359 0.961 . S
C4344 C4345 1.370 . S
C4344 C4346 1.363 . S
C4344 H4360 0.931 . S
C4345 C4344 1.370 . S
C4345 C4349 1.408 . S
C4346 C4344 1.363 . S
C4346 C4347 1.370 . S
C4346 C4350 1.524 . S
C4347 C4339 1.503 . S
C4347 C4346 1.370 . S
C4347 C4348 1.403 . S
C4348 C4347 1.403 . S
C4348 C4349 1.404 . S
C4348 C4351 1.539 . S
C4349 C4345 1.408 . S
C4349 C4348 1.404 . S
C4349 H4361 0.930 . S
C4350 C4346 1.524 . S
C4350 H4362 0.956 . S
C4350 H4363 0.961 . S
C4350 H4364 0.961 . S
C4351 C4348 1.539 . S
C4351 H4365 0.958 . S
C4351 H4366 0.961 . S
C4351 H4367 0.960 . S
H4352 C4336 0.931 . S
H4353 C4341 0.929 . S
H4354 C4342 0.960 . S
H4355 C4342 0.962 . S
H4356 C4342 0.960 . S
H4357 C4343 0.961 . S
H4358 C4343 0.961 . S
H4359 C4343 0.961 . S
H4360 C4344 0.931 . S
H4361 C4349 0.930 . S
H4362 C4350 0.956 . S
H4363 C4350 0.961 . S
H4364 C4350 0.961 . S
H4365 C4351 0.958 . S
H4366 C4351 0.961 . S
H4367 C4351 0.960 . S
C4368 C4369 1.391 . S
C4368 C4370 1.394 . S
C4368 H4384 0.931 . S
C4369 C4368 1.391 . S
C4369 C4373 1.376 . S
C4370 C4368 1.394 . S
C4370 C4371 1.369 . S
C4370 C4374 1.531 . S
C4371 C4370 1.369 . S
C4371 C4372 1.410 . S
C4371 C4379 1.503 . S
C4372 C4371 1.410 . S
C4372 C4373 1.392 . S
C4372 C4375 1.511 . S
C4373 C4369 1.376 . S
C4373 C4372 1.392 . S
C4373 H4385 0.929 . S
C4374 C4370 1.531 . S
C4374 H4386 0.960 . S
C4374 H4387 0.962 . S
C4374 H4388 0.960 . S
C4375 C4372 1.511 . S
C4375 H4389 0.961 . S
C4375 H4390 0.961 . S
C4375 H4391 0.961 . S
C4376 C4377 1.370 . S
C4376 C4378 1.363 . S
C4376 H4392 0.931 . S
C4377 C4376 1.370 . S
C4377 C4381 1.408 . S
C4378 C4376 1.363 . S
C4378 C4379 1.370 . S
C4378 C4382 1.524 . S
C4379 C4371 1.503 . S
C4379 C4378 1.370 . S
C4379 C4380 1.403 . S
C4380 C4379 1.403 . S
C4380 C4381 1.404 . S
C4380 C4383 1.539 . S
C4381 C4377 1.408 . S
C4381 C4380 1.404 . S
C4381 H4393 0.930 . S
C4382 C4378 1.524 . S
C4382 H4394 0.956 . S
C4382 H4395 0.961 . S
C4382 H4396 0.961 . S
C4383 C4380 1.539 . S
C4383 H4397 0.958 . S
C4383 H4398 0.961 . S
C4383 H4399 0.960 . S
H4384 C4368 0.931 . S
H4385 C4373 0.929 . S
H4386 C4374 0.960 . S
H4387 C4374 0.962 . S
H4388 C4374 0.960 . S
H4389 C4375 0.961 . S
H4390 C4375 0.961 . S
H4391 C4375 0.961 . S
H4392 C4376 0.931 . S
H4393 C4381 0.930 . S
H4394 C4382 0.956 . S
H4395 C4382 0.961 . S
H4396 C4382 0.961 . S
H4397 C4383 0.958 . S
H4398 C4383 0.961 . S
H4399 C4383 0.960 . S
C4400 C4401 1.391 . S
C4400 C4402 1.394 . S
C4400 H4416 0.931 . S
C4401 C4400 1.391 . S
C4401 C4405 1.376 . S
C4402 C4400 1.394 . S
C4402 C4403 1.369 . S
C4402 C4406 1.531 . S
C4403 C4402 1.369 . S
C4403 C4404 1.410 . S
C4403 C4411 1.503 . S
C4404 C4403 1.410 . S
C4404 C4405 1.392 . S
C4404 C4407 1.511 . S
C4405 C4401 1.376 . S
C4405 C4404 1.392 . S
C4405 H4417 0.929 . S
C4406 C4402 1.531 . S
C4406 H4418 0.960 . S
C4406 H4419 0.962 . S
C4406 H4420 0.960 . S
C4407 C4404 1.511 . S
C4407 H4421 0.961 . S
C4407 H4422 0.961 . S
C4407 H4423 0.961 . S
C4408 C4409 1.370 . S
C4408 C4410 1.363 . S
C4408 H4424 0.931 . S
C4409 C4408 1.370 . S
C4409 C4413 1.408 . S
C4410 C4408 1.363 . S
C4410 C4411 1.370 . S
C4410 C4414 1.524 . S
C4411 C4403 1.503 . S
C4411 C4410 1.370 . S
C4411 C4412 1.403 . S
C4412 C4411 1.403 . S
C4412 C4413 1.404 . S
C4412 C4415 1.539 . S
C4413 C4409 1.408 . S
C4413 C4412 1.404 . S
C4413 H4425 0.930 . S
C4414 C4410 1.524 . S
C4414 H4426 0.956 . S
C4414 H4427 0.961 . S
C4414 H4428 0.961 . S
C4415 C4412 1.539 . S
C4415 H4429 0.958 . S
C4415 H4430 0.961 . S
C4415 H4431 0.960 . S
H4416 C4400 0.931 . S
H4417 C4405 0.929 . S
H4418 C4406 0.960 . S
H4419 C4406 0.962 . S
H4420 C4406 0.960 . S
H4421 C4407 0.961 . S
H4422 C4407 0.961 . S
H4423 C4407 0.961 . S
H4424 C4408 0.931 . S
H4425 C4413 0.930 . S
H4426 C4414 0.956 . S
H4427 C4414 0.961 . S
H4428 C4414 0.961 . S
H4429 C4415 0.958 . S
H4430 C4415 0.961 . S
H4431 C4415 0.960 . S
C4432 C4433 1.391 . S
C4432 C4434 1.394 . S
C4432 H4448 0.931 . S
C4433 C4432 1.391 . S
C4433 C4437 1.376 . S
C4434 C4432 1.394 . S
C4434 C4435 1.369 . S
C4434 C4438 1.531 . S
C4435 C4434 1.369 . S
C4435 C4436 1.410 . S
C4435 C4443 1.503 . S
C4436 C4435 1.410 . S
C4436 C4437 1.392 . S
C4436 C4439 1.511 . S
C4437 C4433 1.376 . S
C4437 C4436 1.392 . S
C4437 H4449 0.929 . S
C4438 C4434 1.531 . S
C4438 H4450 0.960 . S
C4438 H4451 0.962 . S
C4438 H4452 0.960 . S
C4439 C4436 1.511 . S
C4439 H4453 0.961 . S
C4439 H4454 0.961 . S
C4439 H4455 0.961 . S
C4440 C4441 1.370 . S
C4440 C4442 1.363 . S
C4440 H4456 0.931 . S
C4441 C4440 1.370 . S
C4441 C4445 1.408 . S
C4442 C4440 1.363 . S
C4442 C4443 1.370 . S
C4442 C4446 1.524 . S
C4443 C4435 1.503 . S
C4443 C4442 1.370 . S
C4443 C4444 1.403 . S
C4444 C4443 1.403 . S
C4444 C4445 1.404 . S
C4444 C4447 1.539 . S
C4445 C4441 1.408 . S
C4445 C4444 1.404 . S
C4445 H4457 0.930 . S
C4446 C4442 1.524 . S
C4446 H4458 0.956 . S
C4446 H4459 0.961 . S
C4446 H4460 0.961 . S
C4447 C4444 1.539 . S
C4447 H4461 0.958 . S
C4447 H4462 0.964 . S
C4447 H4463 0.960 . S
H4448 C4432 0.931 . S
H4449 C4437 0.929 . S
H4450 C4438 0.960 . S
H4451 C4438 0.962 . S
H4452 C4438 0.960 . S
H4453 C4439 0.961 . S
H4454 C4439 0.961 . S
H4455 C4439 0.961 . S
H4456 C4440 0.931 . S
H4457 C4445 0.930 . S
H4458 C4446 0.956 . S
H4459 C4446 0.961 . S
H4460 C4446 0.961 . S
H4461 C4447 0.958 . S
H4462 C4447 0.964 . S
H4463 C4447 0.960 . S
C4464 C4465 1.391 . S
C4464 C4466 1.394 . S
C4464 H4480 0.931 . S
C4465 C4464 1.391 . S
C4465 C4469 1.376 . S
C4466 C4464 1.394 . S
C4466 C4467 1.369 . S
C4466 C4470 1.531 . S
C4467 C4466 1.369 . S
C4467 C4468 1.410 . S
C4467 C4475 1.503 . S
C4468 C4467 1.410 . S
C4468 C4469 1.392 . S
C4468 C4471 1.511 . S
C4469 C4465 1.376 . S
C4469 C4468 1.392 . S
C4469 H4481 0.929 . S
C4470 C4466 1.531 . S
C4470 H4482 0.960 . S
C4470 H4483 0.962 . S
C4470 H4484 0.960 . S
C4471 C4468 1.511 . S
C4471 H4485 0.961 . S
C4471 H4486 0.961 . S
C4471 H4487 0.961 . S
C4472 C4473 1.370 . S
C4472 C4474 1.363 . S
C4472 H4488 0.931 . S
C4473 C4472 1.370 . S
C4473 C4477 1.408 . S
C4474 C4472 1.363 . S
C4474 C4475 1.370 . S
C4474 C4478 1.524 . S
C4475 C4467 1.503 . S
C4475 C4474 1.370 . S
C4475 C4476 1.403 . S
C4476 C4475 1.403 . S
C4476 C4477 1.404 . S
C4476 C4479 1.539 . S
C4477 C4473 1.408 . S
C4477 C4476 1.404 . S
C4477 H4489 0.930 . S
C4478 C4474 1.524 . S
C4478 H4490 0.956 . S
C4478 H4491 0.961 . S
C4478 H4492 0.961 . S
C4479 C4476 1.539 . S
C4479 H4493 0.958 . S
C4479 H4494 0.961 . S
C4479 H4495 0.960 . S
H4480 C4464 0.931 . S
H4481 C4469 0.929 . S
H4482 C4470 0.960 . S
H4483 C4470 0.962 . S
H4484 C4470 0.960 . S
H4485 C4471 0.961 . S
H4486 C4471 0.961 . S
H4487 C4471 0.961 . S
H4488 C4472 0.931 . S
H4489 C4477 0.930 . S
H4490 C4478 0.956 . S
H4491 C4478 0.961 . S
H4492 C4478 0.961 . S
H4493 C4479 0.958 . S
H4494 C4479 0.961 . S
H4495 C4479 0.960 . S
C4496 C4497 1.391 . S
C4496 C4498 1.394 . S
C4496 H4512 0.931 . S
C4497 C4496 1.391 . S
C4497 C4501 1.376 . S
C4498 C4496 1.394 . S
C4498 C4499 1.369 . S
C4498 C4502 1.531 . S
C4499 C4498 1.369 . S
C4499 C4500 1.410 . S
C4499 C4507 1.503 . S
C4500 C4499 1.410 . S
C4500 C4501 1.392 . S
C4500 C4503 1.511 . S
C4501 C4497 1.376 . S
C4501 C4500 1.392 . S
C4501 H4513 0.929 . S
C4502 C4498 1.531 . S
C4502 H4514 0.960 . S
C4502 H4515 0.962 . S
C4502 H4516 0.960 . S
C4503 C4500 1.511 . S
C4503 H4517 0.961 . S
C4503 H4518 0.961 . S
C4503 H4519 0.961 . S
C4504 C4505 1.370 . S
C4504 C4506 1.363 . S
C4504 H4520 0.931 . S
C4505 C4504 1.370 . S
C4505 C4509 1.408 . S
C4506 C4504 1.363 . S
C4506 C4507 1.370 . S
C4506 C4510 1.524 . S
C4507 C4499 1.503 . S
C4507 C4506 1.370 . S
C4507 C4508 1.403 . S
C4508 C4507 1.403 . S
C4508 C4509 1.404 . S
C4508 C4511 1.539 . S
C4509 C4505 1.408 . S
C4509 C4508 1.404 . S
C4509 H4521 0.930 . S
C4510 C4506 1.524 . S
C4510 H4522 0.956 . S
C4510 H4523 0.961 . S
C4510 H4524 0.961 . S
C4511 C4508 1.539 . S
C4511 H4525 0.958 . S
C4511 H4526 0.961 . S
C4511 H4527 0.960 . S
H4512 C4496 0.931 . S
H4513 C4501 0.929 . S
H4514 C4502 0.960 . S
H4515 C4502 0.962 . S
H4516 C4502 0.960 . S
H4517 C4503 0.961 . S
H4518 C4503 0.961 . S
H4519 C4503 0.961 . S
H4520 C4504 0.931 . S
H4521 C4509 0.930 . S
H4522 C4510 0.956 . S
H4523 C4510 0.961 . S
H4524 C4510 0.961 . S
H4525 C4511 0.958 . S
H4526 C4511 0.961 . S
H4527 C4511 0.960 . S
C4528 C4529 1.391 . S
C4528 C4530 1.394 . S
C4528 H4544 0.931 . S
C4529 C4528 1.391 . S
C4529 C4533 1.376 . S
C4530 C4528 1.394 . S
C4530 C4531 1.369 . S
C4530 C4534 1.531 . S
C4531 C4530 1.369 . S
C4531 C4532 1.410 . S
C4531 C4539 1.503 . S
C4532 C4531 1.410 . S
C4532 C4533 1.392 . S
C4532 C4535 1.511 . S
C4533 C4529 1.376 . S
C4533 C4532 1.392 . S
C4533 H4545 0.929 . S
C4534 C4530 1.531 . S
C4534 H4546 0.960 . S
C4534 H4547 0.962 . S
C4534 H4548 0.960 . S
C4535 C4532 1.511 . S
C4535 H4549 0.961 . S
C4535 H4550 0.961 . S
C4535 H4551 0.961 . S
C4536 C4537 1.370 . S
C4536 C4538 1.363 . S
C4536 H4552 0.931 . S
C4537 C4536 1.370 . S
C4537 C4541 1.408 . S
C4538 C4536 1.363 . S
C4538 C4539 1.370 . S
C4538 C4542 1.524 . S
C4539 C4531 1.503 . S
C4539 C4538 1.370 . S
C4539 C4540 1.403 . S
C4540 C4539 1.403 . S
C4540 C4541 1.404 . S
C4540 C4543 1.539 . S
C4541 C4537 1.408 . S
C4541 C4540 1.404 . S
C4541 H4553 0.930 1_565 S
C4542 C4538 1.524 . S
C4542 H4554 0.956 . S
C4542 H4555 0.961 . S
C4542 H4556 0.961 . S
C4543 C4540 1.539 . S
C4543 H4557 0.958 . S
C4543 H4558 0.961 . S
C4543 H4559 0.960 . S
H4544 C4528 0.931 . S
H4545 C4533 0.929 . S
H4546 C4534 0.960 . S
H4547 C4534 0.962 . S
H4548 C4534 0.960 . S
H4549 C4535 0.961 . S
H4550 C4535 0.961 . S
H4551 C4535 0.961 . S
H4552 C4536 0.931 . S
H4553 C4541 0.930 1_545 S
H4554 C4542 0.956 . S
H4555 C4542 0.961 . S
H4556 C4542 0.961 . S
H4557 C4543 0.958 . S
H4558 C4543 0.961 . S
H4559 C4543 0.960 . S
C4560 C4561 1.391 . S
C4560 C4562 1.394 . S
C4560 H4576 0.931 . S
C4561 C4560 1.391 . S
C4561 C4565 1.376 . S
C4562 C4560 1.394 . S
C4562 C4563 1.369 . S
C4562 C4566 1.531 . S
C4563 C4562 1.369 . S
C4563 C4564 1.410 . S
C4563 C4571 1.503 . S
C4564 C4563 1.410 . S
C4564 C4565 1.392 . S
C4564 C4567 1.511 . S
C4565 C4561 1.376 . S
C4565 C4564 1.392 . S
C4565 H4577 0.929 . S
C4566 C4562 1.531 . S
C4566 H4578 0.960 . S
C4566 H4579 0.962 . S
C4566 H4580 0.960 . S
C4567 C4564 1.511 . S
C4567 H4581 0.961 . S
C4567 H4582 0.961 . S
C4567 H4583 0.961 . S
C4568 C4569 1.370 . S
C4568 C4570 1.363 . S
C4568 H4584 0.931 . S
C4569 C4568 1.370 . S
C4569 C4573 1.408 . S
C4570 C4568 1.363 . S
C4570 C4571 1.370 . S
C4570 C4574 1.524 . S
C4571 C4563 1.503 . S
C4571 C4570 1.370 . S
C4571 C4572 1.403 . S
C4572 C4571 1.403 . S
C4572 C4573 1.404 . S
C4572 C4575 1.539 . S
C4573 C4569 1.408 . S
C4573 C4572 1.404 . S
C4573 H4585 0.930 . S
C4574 C4570 1.524 . S
C4574 H4586 0.956 . S
C4574 H4587 0.961 . S
C4574 H4588 0.961 . S
C4575 C4572 1.539 . S
C4575 H4589 0.958 . S
C4575 H4590 0.961 . S
C4575 H4591 0.960 . S
H4576 C4560 0.931 . S
H4577 C4565 0.929 . S
H4578 C4566 0.960 . S
H4579 C4566 0.962 . S
H4580 C4566 0.960 . S
H4581 C4567 0.961 . S
H4582 C4567 0.961 . S
H4583 C4567 0.961 . S
H4584 C4568 0.931 . S
H4585 C4573 0.930 . S
H4586 C4574 0.956 . S
H4587 C4574 0.961 . S
H4588 C4574 0.961 . S
H4589 C4575 0.958 . S
H4590 C4575 0.961 . S
H4591 C4575 0.960 . S
C4592 C4593 1.391 . S
C4592 C4594 1.394 . S
C4592 H4608 0.931 . S
C4593 C4592 1.391 . S
C4593 C4597 1.376 . S
C4594 C4592 1.394 . S
C4594 C4595 1.369 . S
C4594 C4598 1.531 . S
C4595 C4594 1.369 . S
C4595 C4596 1.410 . S
C4595 C4603 1.503 . S
C4596 C4595 1.410 . S
C4596 C4597 1.392 . S
C4596 C4599 1.511 . S
C4597 C4593 1.376 . S
C4597 C4596 1.392 . S
C4597 H4609 0.929 . S
C4598 C4594 1.531 . S
C4598 H4610 0.960 . S
C4598 H4611 0.962 . S
C4598 H4612 0.960 . S
C4599 C4596 1.511 . S
C4599 H4613 0.961 . S
C4599 H4614 0.961 . S
C4599 H4615 0.961 1_554 S
C4600 C4601 1.370 . S
C4600 C4602 1.363 . S
C4600 H4616 0.931 . S
C4601 C4600 1.370 . S
C4601 C4605 1.408 . S
C4602 C4600 1.363 . S
C4602 C4603 1.370 . S
C4602 C4606 1.524 . S
C4603 C4595 1.503 . S
C4603 C4602 1.370 . S
C4603 C4604 1.403 . S
C4604 C4603 1.403 . S
C4604 C4605 1.404 . S
C4604 C4607 1.539 1_554 S
C4605 C4601 1.408 . S
C4605 C4604 1.404 . S
C4605 H4617 0.910 1_554 S
C4606 C4602 1.524 . S
C4606 H4618 0.956 . S
C4606 H4619 0.961 . S
C4606 H4620 0.961 . S
C4607 C4604 1.539 1_556 S
C4607 H4621 0.958 . S
C4607 H4622 0.961 . S
C4607 H4623 0.960 . S
H4608 C4592 0.931 . S
H4609 C4597 0.929 . S
H4610 C4598 0.960 . S
H4611 C4598 0.962 . S
H4612 C4598 0.960 . S
H4613 C4599 0.961 . S
H4614 C4599 0.961 . S
H4615 C4599 0.961 1_556 S
H4616 C4600 0.931 . S
H4617 C4605 0.910 1_556 S
H4618 C4606 0.956 . S
H4619 C4606 0.961 . S
H4620 C4606 0.961 . S
H4621 C4607 0.958 . S
H4622 C4607 0.961 . S
H4623 C4607 0.960 . S
C4624 C4625 1.391 . S
C4624 C4626 1.394 . S
C4624 H4640 0.931 . S
C4625 C4624 1.391 . S
C4625 C4629 1.376 . S
C4626 C4624 1.394 . S
C4626 C4627 1.369 . S
C4626 C4630 1.531 . S
C4627 C4626 1.369 . S
C4627 C4628 1.410 . S
C4627 C4635 1.503 . S
C4628 C4627 1.410 . S
C4628 C4629 1.392 . S
C4628 C4631 1.511 . S
C4629 C4625 1.376 . S
C4629 C4628 1.392 . S
C4629 H4641 0.929 . S
C4630 C4626 1.531 . S
C4630 H4642 0.960 . S
C4630 H4643 0.962 . S
C4630 H4644 0.960 . S
C4631 C4628 1.511 . S
C4631 H4645 0.961 . S
C4631 H4646 0.961 . S
C4631 H4647 0.961 . S
C4632 C4633 1.370 . S
C4632 C4634 1.363 . S
C4632 H4648 0.931 . S
C4633 C4632 1.370 . S
C4633 C4637 1.408 . S
C4634 C4632 1.363 . S
C4634 C4635 1.370 . S
C4634 C4638 1.524 . S
C4635 C4627 1.503 . S
C4635 C4634 1.370 . S
C4635 C4636 1.403 . S
C4636 C4635 1.403 . S
C4636 C4637 1.404 . S
C4636 C4639 1.539 . S
C4637 C4633 1.408 . S
C4637 C4636 1.404 . S
C4637 H4649 0.930 . S
C4638 C4634 1.524 . S
C4638 H4650 0.956 . S
C4638 H4651 0.961 . S
C4638 H4652 0.961 . S
C4639 C4636 1.539 . S
C4639 H4653 0.958 . S
C4639 H4654 0.961 . S
C4639 H4655 0.960 . S
H4640 C4624 0.931 . S
H4641 C4629 0.929 . S
H4642 C4630 0.960 . S
H4643 C4630 0.962 . S
H4644 C4630 0.960 . S
H4645 C4631 0.961 . S
H4646 C4631 0.961 . S
H4647 C4631 0.961 . S
H4648 C4632 0.931 . S
H4649 C4637 0.930 . S
H4650 C4638 0.956 . S
H4651 C4638 0.961 . S
H4652 C4638 0.961 . S
H4653 C4639 0.958 . S
H4654 C4639 0.961 . S
H4655 C4639 0.960 . S
C4656 C4657 1.391 . S
C4656 C4658 1.394 . S
C4656 H4672 0.931 . S
C4657 C4656 1.391 . S
C4657 C4661 1.376 . S
C4658 C4656 1.394 . S
C4658 C4659 1.369 . S
C4658 C4662 1.531 . S
C4659 C4658 1.369 . S
C4659 C4660 1.410 . S
C4659 C4667 1.503 . S
C4660 C4659 1.410 . S
C4660 C4661 1.392 . S
C4660 C4663 1.511 . S
C4661 C4657 1.376 . S
C4661 C4660 1.392 . S
C4661 H4673 0.929 . S
C4662 C4658 1.531 . S
C4662 H4674 0.960 . S
C4662 H4675 0.962 . S
C4662 H4676 0.960 . S
C4663 C4660 1.511 . S
C4663 H4677 0.961 . S
C4663 H4678 0.961 . S
C4663 H4679 0.961 . S
C4664 C4665 1.370 . S
C4664 C4666 1.363 . S
C4664 H4680 0.931 1_554 S
C4665 C4664 1.370 . S
C4665 C4669 1.408 . S
C4666 C4664 1.363 . S
C4666 C4667 1.370 . S
C4666 C4670 1.524 1_554 S
C4667 C4659 1.503 . S
C4667 C4666 1.370 . S
C4667 C4668 1.403 . S
C4668 C4667 1.403 . S
C4668 C4669 1.404 . S
C4668 C4671 1.539 . S
C4669 C4665 1.408 . S
C4669 C4668 1.404 . S
C4669 H4681 0.930 . S
C4670 C4666 1.524 1_556 S
C4670 H4682 0.956 . S
C4670 H4683 0.961 . S
C4670 H4684 0.961 . S
C4671 C4668 1.539 . S
C4671 H4685 0.958 . S
C4671 H4686 0.961 . S
C4671 H4687 0.960 . S
H4672 C4656 0.931 . S
H4673 C4661 0.929 . S
H4674 C4662 0.960 . S
H4675 C4662 0.962 . S
H4676 C4662 0.960 . S
H4677 C4663 0.961 . S
H4678 C4663 0.961 . S
H4679 C4663 0.961 . S
H4680 C4664 0.931 1_556 S
H4681 C4669 0.930 . S
H4682 C4670 0.956 . S
H4683 C4670 0.961 . S
H4684 C4670 0.961 . S
H4685 C4671 0.958 . S
H4686 C4671 0.961 . S
H4687 C4671 0.960 . S
C4688 C4689 1.391 . S
C4688 C4690 1.394 . S
C4688 H4704 0.931 . S
C4689 C4688 1.391 . S
C4689 C4693 1.376 . S
C4690 C4688 1.394 . S
C4690 C4691 1.369 . S
C4690 C4694 1.531 . S
C4691 C4690 1.369 . S
C4691 C4692 1.410 . S
C4691 C4699 1.503 . S
C4692 C4691 1.410 . S
C4692 C4693 1.392 . S
C4692 C4695 1.511 . S
C4693 C4689 1.376 . S
C4693 C4692 1.392 . S
C4693 H4705 0.929 . S
C4694 C4690 1.531 . S
C4694 H4706 0.960 . S
C4694 H4707 0.962 . S
C4694 H4708 0.960 . S
C4695 C4692 1.511 . S
C4695 H4709 0.961 . S
C4695 H4710 0.961 . S
C4695 H4711 0.961 . S
C4696 C4697 1.370 . S
C4696 C4698 1.363 . S
C4696 H4712 0.931 . S
C4697 C4696 1.370 . S
C4697 C4701 1.408 . S
C4698 C4696 1.363 . S
C4698 C4699 1.370 . S
C4698 C4702 1.524 . S
C4699 C4691 1.503 . S
C4699 C4698 1.370 . S
C4699 C4700 1.403 . S
C4700 C4699 1.403 . S
C4700 C4701 1.404 . S
C4700 C4703 1.539 . S
C4701 C4697 1.408 . S
C4701 C4700 1.404 . S
C4701 H4713 0.930 . S
C4702 C4698 1.524 . S
C4702 H4714 0.956 . S
C4702 H4715 0.961 . S
C4702 H4716 0.961 . S
C4703 C4700 1.539 . S
C4703 H4717 0.958 . S
C4703 H4718 0.961 . S
C4703 H4719 0.960 . S
H4704 C4688 0.931 . S
H4705 C4693 0.929 . S
H4706 C4694 0.960 . S
H4707 C4694 0.962 . S
H4708 C4694 0.960 . S
H4709 C4695 0.961 . S
H4710 C4695 0.961 . S
H4711 C4695 0.961 . S
H4712 C4696 0.931 . S
H4713 C4701 0.930 . S
H4714 C4702 0.956 . S
H4715 C4702 0.961 . S
H4716 C4702 0.961 . S
H4717 C4703 0.958 . S
H4718 C4703 0.961 . S
H4719 C4703 0.960 . S
C4720 C4721 1.391 . S
C4720 C4722 1.394 . S
C4720 H4736 0.931 . S
C4721 C4720 1.391 . S
C4721 C4725 1.376 . S
C4722 C4720 1.394 . S
C4722 C4723 1.369 . S
C4722 C4726 1.531 . S
C4723 C4722 1.369 . S
C4723 C4724 1.410 . S
C4723 C4731 1.503 . S
C4724 C4723 1.410 . S
C4724 C4725 1.392 . S
C4724 C4727 1.511 . S
C4725 C4721 1.376 . S
C4725 C4724 1.392 . S
C4725 H4737 0.929 . S
C4726 C4722 1.531 . S
C4726 H4738 0.960 . S
C4726 H4739 0.962 . S
C4726 H4740 0.960 . S
C4727 C4724 1.511 . S
C4727 H4741 0.961 . S
C4727 H4742 0.961 . S
C4727 H4743 0.961 . S
C4728 C4729 1.370 . S
C4728 C4730 1.363 . S
C4728 H4744 0.931 . S
C4729 C4728 1.370 . S
C4729 C4733 1.408 . S
C4730 C4728 1.363 . S
C4730 C4731 1.370 . S
C4730 C4734 1.524 . S
C4731 C4723 1.503 . S
C4731 C4730 1.370 . S
C4731 C4732 1.403 . S
C4732 C4731 1.403 . S
C4732 C4733 1.404 . S
C4732 C4735 1.539 . S
C4733 C4729 1.408 . S
C4733 C4732 1.404 . S
C4733 H4745 0.930 . S
C4734 C4730 1.524 . S
C4734 H4746 0.956 . S
C4734 H4747 0.961 . S
C4734 H4748 0.961 . S
C4735 C4732 1.539 . S
C4735 H4749 0.958 . S
C4735 H4750 0.961 . S
C4735 H4751 0.960 . S
H4736 C4720 0.931 . S
H4737 C4725 0.929 . S
H4738 C4726 0.960 . S
H4739 C4726 0.962 . S
H4740 C4726 0.960 . S
H4741 C4727 0.961 . S
H4742 C4727 0.961 . S
H4743 C4727 0.961 . S
H4744 C4728 0.931 . S
H4745 C4733 0.930 . S
H4746 C4734 0.956 . S
H4747 C4734 0.961 . S
H4748 C4734 0.961 . S
H4749 C4735 0.958 . S
H4750 C4735 0.961 . S
H4751 C4735 0.960 . S
C1681 C111 2.075 1_455 S
C1689 C392 2.086 . S
C1713 C64 1.870 . S
C1721 C494 1.914 . S
C1745 C77 1.774 . S
C1753 C560 1.793 . S
C1785 C646 1.244 . S
C1777 C95 1.313 . S
C1809 C25 1.331 . S
C1817 C730 1.248 . S
C1849 C812 1.873 . S
C1841 C36 1.733 . S
C1881 C914 1.897 . S
C1873 C50 1.840 . S
C1905 C11 2.007 . S
C1913 C980 2.011 . S
C1945 C410 1.603 . S
C1937 C237 1.594 . S
C1969 C245 0.871 . S
C1977 C478 0.879 . S
C2009 C578 1.036 . S
C2001 C279 1.027 . S
C2041 C644 1.558 . S
C2033 C175 1.502 1_556 S
C2065 C231 1.519 . S
C2073 C728 1.516 . S
C2105 C830 1.014 . S
C2097 C251 0.901 . S
C2137 C898 0.899 . S
C2129 C273 0.924 . S
C2169 C998 1.589 . S
C2161 C181 1.565 . S
C2201 C394 0.878 . S
C2193 C165 0.906 1_554 S
C2225 C288 1.585 . S
C2233 C1082 1.664 . S
C2265 C1150 1.242 . S
C2257 C333 1.333 . S
C2297 C1232 0.789 . S
C2289 C316 0.729 . S
C2321 C123 0.890 . S
C2329 C982 0.890 . S
C2353 C137 1.297 . S
C2361 C562 1.225 . S
C2385 C330 1.642 . S
C2393 C1334 1.666 . S
C2425 C1400 0.797 . S
C2417 C302 0.722 . S
C2457 C403 2.217 . S
C2449 C63 2.202 . S
C2489 C1407 1.948 . S
C2481 C106 1.953 . S
C2513 C97 1.805 . S
C2521 C571 1.872 . S
C2545 C81 1.391 . S
C2553 C1329 1.295 . S
C2585 C741 1.341 . S
C2577 C13 1.397 . S
C2609 C55 1.794 . S
C2617 C1159 1.875 . S
C2649 C903 1.864 1_556 S
C2641 C35 1.839 . S
C2681 C1495 2.210 . S
C2673 C21 2.208 . S
C2713 C399 1.722 . S
C2705 C147 1.778 . S
C2745 C1413 0.835 . S
C2737 C321 0.815 . S
C2769 C119 1.067 . S
C2777 C567 1.066 . S
C2801 C293 1.551 . S
C2809 C1327 1.660 . S
C2833 C153 1.547 . S
C2841 C739 1.666 . S
C2873 C1155 1.088 . S
C2865 C315 1.113 . S
C2897 C125 0.862 . S
C2905 C909 0.845 . S
C2929 C287 1.761 . S
C2937 C1491 1.725 . S
C2961 C193 0.922 . S
C2969 C405 0.946 . S
C2993 C176 1.662 . S
C3001 C1071 1.695 . S
C3025 C263 1.315 . S
C3033 C825 1.262 . S
C3057 C246 0.926 . S
C3065 C1243 0.955 . S
C3097 C1497 0.957 . S
C3089 C277 0.995 . S
C3121 C221 1.319 . S
C3129 C573 1.258 . S
C3161 C651 1.704 . S
C3153 C260 1.720 . S
C3193 C487 0.934 . S
C3185 C204 0.957 . S
C3217 C83 2.053 . S
C3225 C1568 2.078 . S
C3257 C1418 1.912 . S
C3249 C92 1.866 . S
C3281 C105 1.776 . S
C3289 C1652 1.792 . S
C3313 C67 1.320 . S
C3321 C1318 1.243 . S
C3345 C53 1.329 . S
C3353 C1066 1.251 . S
C3385 C1148 1.873 . S
C3377 C8 1.735 1_655 S
C3417 C1250 1.889 . S
C3409 C22 1.832 . S
C3449 C1484 2.011 . S
C3441 C39 1.987 . S
C3481 C1586 1.586 . S
C3473 C265 1.561 . S
C3505 C189 0.865 . S
C3513 C1402 0.876 . S
C3545 C1670 1.036 . S
C3537 C209 1.031 . S
C3577 C1316 1.552 . S
C3569 C217 1.553 . S
C3609 C1064 1.516 . S
C3601 C259 1.519 . S
C3633 C195 1.019 . S
C3641 C1166 1.029 . S
C3673 C1234 0.857 . S
C3665 C203 0.889 . S
C3697 C223 1.562 . S
C3705 C1502 1.592 . S
C3737 C1570 0.920 . S
C3729 C319 0.925 . S
C3761 C134 1.640 . S
C3769 C746 1.665 . S
C3801 C814 1.242 . S
C3793 C151 1.333 1_565 S
C3833 C896 0.790 . S
C3825 C162 0.763 . S
C3865 C1486 0.857 . S
C3857 C305 0.884 . S
C3889 C291 1.296 . S
C3897 C1654 1.248 . S
C3929 C662 1.669 . S
C3921 C148 1.645 . S
C3961 C476 0.796 . S
C3953 C120 0.850 . S
C3985 C91 2.193 . S
C3993 C1579 2.218 . S
C4025 C483 1.947 . S
C4017 C78 1.959 . S
C4049 C69 1.786 . S
C4057 C1663 1.875 . S
C4081 C109 1.391 . S
C4089 C657 1.293 . S
C4113 C41 1.326 . S
C4121 C1077 1.320 . S
C4153 C823 1.876 . S
C4145 C27 1.822 . S
C4177 C7 1.837 . S
C4185 C1239 1.861 . S
C4209 C49 2.195 . S
C4217 C991 2.212 . S
C4249 C1575 1.728 . S
C4241 C329 1.773 . S
C4273 C167 0.932 . S
C4281 C489 0.890 . S
C4313 C1659 1.090 1_655 S
C4305 C301 1.083 . S
C4337 C139 1.606 . S
C4345 C655 1.660 . S
C4369 C335 1.612 . S
C4377 C1075 1.660 . S
C4409 C819 1.102 . S
C4401 C161 1.097 . S
C4433 C307 0.841 . S
C4441 C1245 0.863 . S
C4473 C987 1.723 . S
C4465 C133 1.762 . S
C4505 C1581 0.929 . S
C4497 C249 0.913 . S
C4537 C735 1.695 1_565 S
C4529 C218 1.680 . S
C4561 C235 1.286 . S
C4569 C1161 1.238 . S
C4601 C907 0.954 . S
C4593 C190 0.926 . S
C4625 C207 0.930 . S
C4633 C993 0.919 . S
C4657 C179 1.323 . S
C4665 C1665 1.265 . S
C4697 C1323 1.703 . S
C4689 C232 1.718 . S
C4729 C1411 0.933 . S
C4721 C274 0.964 . S
