# Generated by pormake.
# Topology ocu, (6,8)-cn, num edge types: 1
# Building blocks:
#     Node 0, Type 0, BuildingBlock: KUMJIN_clean_sbu_0, # of connection points: 6
#     Node 1, Type 0, BuildingBlock: KUMJIN_clean_sbu_0, # of connection points: 6
#     Node 2, Type 0, BuildingBlock: KUMJIN_clean_sbu_0, # of connection points: 6
#     Node 3, Type 0, BuildingBlock: KUMJIN_clean_sbu_0, # of connection points: 6
#     Node 4, Type 0, BuildingBlock: KUMJIN_clean_sbu_0, # of connection points: 6
#     Node 5, Type 0, BuildingBlock: KUMJIN_clean_sbu_0, # of connection points: 6
#     Node 6, Type 0, BuildingBlock: KUMJIN_clean_sbu_0, # of connection points: 6
#     Node 7, Type 0, BuildingBlock: KUMJIN_clean_sbu_0, # of connection points: 6
#     Node 8, Type 1, BuildingBlock: TAGTUT_clean_sbu_1, # of connection points: 8
#     Node 9, Type 1, BuildingBlock: TAGTUT_clean_sbu_1, # of connection points: 8
#     Node 10, Type 1, BuildingBlock: TAGTUT_clean_sbu_1, # of connection points: 8
#     Node 11, Type 1, BuildingBlock: TAGTUT_clean_sbu_1, # of connection points: 8
#     Node 12, Type 1, BuildingBlock: TAGTUT_clean_sbu_1, # of connection points: 8
#     Node 13, Type 1, BuildingBlock: TAGTUT_clean_sbu_1, # of connection points: 8
#     Edge 14, Type (0, 1), BuildingBlock: ZUJKAS_clean_linker_0, # of connection points: 2
#     Edge 15, Type (0, 1), BuildingBlock: ZUJKAS_clean_linker_0, # of connection points: 2
#     Edge 16, Type (0, 1), BuildingBlock: ZUJKAS_clean_linker_0, # of connection points: 2
#     Edge 17, Type (0, 1), BuildingBlock: ZUJKAS_clean_linker_0, # of connection points: 2
#     Edge 18, Type (0, 1), BuildingBlock: ZUJKAS_clean_linker_0, # of connection points: 2
#     Edge 19, Type (0, 1), BuildingBlock: ZUJKAS_clean_linker_0, # of connection points: 2
#     Edge 20, Type (0, 1), BuildingBlock: ZUJKAS_clean_linker_0, # of connection points: 2
#     Edge 21, Type (0, 1), BuildingBlock: ZUJKAS_clean_linker_0, # of connection points: 2
#     Edge 22, Type (0, 1), BuildingBlock: ZUJKAS_clean_linker_0, # of connection points: 2
#     Edge 23, Type (0, 1), BuildingBlock: ZUJKAS_clean_linker_0, # of connection points: 2
#     Edge 24, Type (0, 1), BuildingBlock: ZUJKAS_clean_linker_0, # of connection points: 2
#     Edge 25, Type (0, 1), BuildingBlock: ZUJKAS_clean_linker_0, # of connection points: 2
#     Edge 26, Type (0, 1), BuildingBlock: ZUJKAS_clean_linker_0, # of connection points: 2
#     Edge 27, Type (0, 1), BuildingBlock: ZUJKAS_clean_linker_0, # of connection points: 2
#     Edge 28, Type (0, 1), BuildingBlock: ZUJKAS_clean_linker_0, # of connection points: 2
#     Edge 29, Type (0, 1), BuildingBlock: ZUJKAS_clean_linker_0, # of connection points: 2
#     Edge 30, Type (0, 1), BuildingBlock: ZUJKAS_clean_linker_0, # of connection points: 2
#     Edge 31, Type (0, 1), BuildingBlock: ZUJKAS_clean_linker_0, # of connection points: 2
#     Edge 32, Type (0, 1), BuildingBlock: ZUJKAS_clean_linker_0, # of connection points: 2
#     Edge 33, Type (0, 1), BuildingBlock: ZUJKAS_clean_linker_0, # of connection points: 2
#     Edge 34, Type (0, 1), BuildingBlock: ZUJKAS_clean_linker_0, # of connection points: 2
#     Edge 35, Type (0, 1), BuildingBlock: ZUJKAS_clean_linker_0, # of connection points: 2
#     Edge 36, Type (0, 1), BuildingBlock: ZUJKAS_clean_linker_0, # of connection points: 2
#     Edge 37, Type (0, 1), BuildingBlock: ZUJKAS_clean_linker_0, # of connection points: 2
#     Edge 38, Type (0, 1), BuildingBlock: ZUJKAS_clean_linker_0, # of connection points: 2
#     Edge 39, Type (0, 1), BuildingBlock: ZUJKAS_clean_linker_0, # of connection points: 2
#     Edge 40, Type (0, 1), BuildingBlock: ZUJKAS_clean_linker_0, # of connection points: 2
#     Edge 41, Type (0, 1), BuildingBlock: ZUJKAS_clean_linker_0, # of connection points: 2
#     Edge 42, Type (0, 1), BuildingBlock: ZUJKAS_clean_linker_0, # of connection points: 2
#     Edge 43, Type (0, 1), BuildingBlock: ZUJKAS_clean_linker_0, # of connection points: 2
#     Edge 44, Type (0, 1), BuildingBlock: ZUJKAS_clean_linker_0, # of connection points: 2
#     Edge 45, Type (0, 1), BuildingBlock: ZUJKAS_clean_linker_0, # of connection points: 2
#     Edge 46, Type (0, 1), BuildingBlock: ZUJKAS_clean_linker_0, # of connection points: 2
#     Edge 47, Type (0, 1), BuildingBlock: ZUJKAS_clean_linker_0, # of connection points: 2
#     Edge 48, Type (0, 1), BuildingBlock: ZUJKAS_clean_linker_0, # of connection points: 2
#     Edge 49, Type (0, 1), BuildingBlock: ZUJKAS_clean_linker_0, # of connection points: 2
#     Edge 50, Type (0, 1), BuildingBlock: ZUJKAS_clean_linker_0, # of connection points: 2
#     Edge 51, Type (0, 1), BuildingBlock: ZUJKAS_clean_linker_0, # of connection points: 2
#     Edge 52, Type (0, 1), BuildingBlock: ZUJKAS_clean_linker_0, # of connection points: 2
#     Edge 53, Type (0, 1), BuildingBlock: ZUJKAS_clean_linker_0, # of connection points: 2
#     Edge 54, Type (0, 1), BuildingBlock: ZUJKAS_clean_linker_0, # of connection points: 2
#     Edge 55, Type (0, 1), BuildingBlock: ZUJKAS_clean_linker_0, # of connection points: 2
#     Edge 56, Type (0, 1), BuildingBlock: ZUJKAS_clean_linker_0, # of connection points: 2
#     Edge 57, Type (0, 1), BuildingBlock: ZUJKAS_clean_linker_0, # of connection points: 2
#     Edge 58, Type (0, 1), BuildingBlock: ZUJKAS_clean_linker_0, # of connection points: 2
#     Edge 59, Type (0, 1), BuildingBlock: ZUJKAS_clean_linker_0, # of connection points: 2
#     Edge 60, Type (0, 1), BuildingBlock: ZUJKAS_clean_linker_0, # of connection points: 2
#     Edge 61, Type (0, 1), BuildingBlock: ZUJKAS_clean_linker_0, # of connection points: 2
# Relax obj value: 0.093
# Max RMSD: 0.267
# Mean RMSD: 0.152
data_MOF--net-ocu--node1-KUMJIN_clean_sbu_0--node2-TAGTUT_clean_sbu_1--edge1-ZUJKAS_clean_linker_0
_symmetry_space_group_name_H-M    P1
_symmetry_Int_Tables_number       1
_symmetry_cell_setting            triclinic
loop_
_symmetry_equiv_pos_as_xyz
'x, y, z'
_cell_length_a     49.648484
_cell_length_b     47.042488
_cell_length_c     53.965048
_cell_angle_alpha  81.185594
_cell_angle_beta   100.55993
_cell_angle_gamma 111.16998
loop_
_atom_site_label
_atom_site_type_symbol
_atom_site_fract_x
_atom_site_fract_y
_atom_site_fract_z
_atom_type_partial_charge
Eu0 Eu 0.25829 0.23242 0.23198 0.0
C1 C 0.36316 0.31899 0.2991 0.0
C2 C 0.37213 0.28917 0.33842 0.0
C3 C 0.41192 0.33227 0.32293 0.0
C4 C 0.35311 0.29457 0.31686 0.0
C5 C 0.39261 0.33835 0.30207 0.0
C6 C 0.40166 0.3078 0.34113 0.0
C7 C 0.38123 0.36972 0.26469 0.0
N8 N 0.34381 0.32466 0.27949 0.0
C9 C 0.35217 0.35014 0.26276 0.0
C10 C 0.40161 0.36367 0.28432 0.0
Eu11 Eu 0.29514 0.28998 0.2772 0.0
N12 N 0.32445 0.27701 0.31373 0.0
C13 C 0.31307 0.25463 0.33209 0.0
C14 C 0.36071 0.26578 0.35698 0.0
C15 C 0.33104 0.24847 0.35382 0.0
H16 H 0.33661 0.35496 0.24747 0.0
H17 H 0.32195 0.23047 0.36817 0.0
H18 H 0.41663 0.3038 0.35746 0.0
H19 H 0.38788 0.38947 0.25105 0.0
H20 H 0.29016 0.24118 0.32997 0.0
H21 H 0.23493 0.29609 0.14209 0.0
H22 H 0.3745 0.26136 0.37404 0.0
H23 H 0.21572 0.16562 0.25784 0.0
H24 H 0.26569 0.28195 0.1795 0.0
H25 H 0.16405 0.13195 0.25278 0.0
H26 H 0.43465 0.34677 0.32548 0.0
H27 H 0.18158 0.26882 0.13631 0.0
H28 H 0.13835 0.22627 0.15144 0.0
H29 H 0.42406 0.37901 0.28588 0.0
H30 H 0.11905 0.18149 0.18156 0.0
N31 N 0.23025 0.24734 0.19531 0.0
C32 C 0.24252 0.26973 0.1773 0.0
C33 C 0.19503 0.26246 0.15283 0.0
C34 C 0.18279 0.23837 0.17062 0.0
C35 C 0.22511 0.27788 0.156 0.0
C36 C 0.20128 0.23108 0.19181 0.0
H37 H 0.12855 0.14583 0.21913 0.0
N38 N 0.20933 0.19852 0.2278 0.0
C39 C 0.17116 0.15273 0.24028 0.0
C40 C 0.19044 0.2059 0.20865 0.0
C41 C 0.20041 0.1718 0.24306 0.0
C42 C 0.15117 0.16071 0.22133 0.0
C43 C 0.16079 0.18731 0.20494 0.0
O44 O 0.26252 0.18947 0.22572 0.0
O45 O 0.29312 0.2455 0.26545 0.0
O46 O 0.32835 0.28903 0.25418 0.0
O47 O 0.29654 0.27229 0.21798 0.0
O48 O 0.2684 0.19988 0.26533 0.0
O49 O 0.27887 0.22998 0.20024 0.0
O50 O 0.29035 0.3327 0.28317 0.0
O51 O 0.25983 0.27657 0.24403 0.0
O52 O 0.2254 0.23085 0.25672 0.0
O53 O 0.25774 0.25023 0.29207 0.0
O54 O 0.28466 0.32219 0.24376 0.0
O55 O 0.27586 0.29266 0.3097 0.0
C56 C 0.29 0.21949 0.27772 0.0
C57 C 0.26263 0.18237 0.18329 0.0
C58 C 0.27042 0.15499 0.15168 0.0
C59 C 0.28119 0.1725 0.17265 0.0
C60 C 0.24077 0.14775 0.14152 0.0
C61 C 0.23319 0.17478 0.17288 0.0
C62 C 0.22237 0.15758 0.15209 0.0
C63 C 0.3231 0.28567 0.22974 0.0
C64 C 0.27432 0.20075 0.20507 0.0
C65 C 0.14196 0.19532 0.1846 0.0
C66 C 0.15295 0.22082 0.16745 0.0
C67 C 0.26286 0.30252 0.23167 0.0
C68 C 0.29188 0.34089 0.32566 0.0
C69 C 0.27303 0.34775 0.3384 0.0
C70 C 0.28415 0.36605 0.35885 0.0
C71 C 0.31452 0.37725 0.36633 0.0
C72 C 0.32204 0.3523 0.33344 0.0
C73 C 0.33325 0.37036 0.3537 0.0
C74 C 0.23124 0.23531 0.28104 0.0
C75 C 0.2797 0.32172 0.30441 0.0
H76 H 0.30389 0.17817 0.18092 0.0
H77 H 0.23183 0.13481 0.12516 0.0
H78 H 0.2186 0.18214 0.18079 0.0
H79 H 0.19963 0.15192 0.14407 0.0
H80 H 0.2497 0.33854 0.33251 0.0
H81 H 0.32389 0.39175 0.3817 0.0
H82 H 0.33689 0.34741 0.32383 0.0
H83 H 0.35657 0.37919 0.35956 0.0
Eu84 Eu 0.78356 0.21542 0.24478 0.0
C85 C 0.72148 0.26589 0.29352 0.0
C86 C 0.674 0.2622 0.27 0.0
C87 C 0.67927 0.25199 0.31574 0.0
C88 C 0.70401 0.26745 0.2706 0.0
C89 C 0.70933 0.25891 0.3164 0.0
C90 C 0.66162 0.25356 0.29257 0.0
C91 C 0.75774 0.26845 0.33917 0.0
N92 N 0.75046 0.27226 0.29358 0.0
C93 C 0.76877 0.27522 0.31611 0.0
C94 C 0.72783 0.25968 0.33935 0.0
Eu95 Eu 0.76701 0.28175 0.25309 0.0
N96 N 0.71662 0.2762 0.2491 0.0
C97 C 0.70113 0.28394 0.22699 0.0
C98 C 0.65754 0.26707 0.24686 0.0
C99 C 0.67134 0.27871 0.22538 0.0
H100 H 0.79204 0.28334 0.3169 0.0
H101 H 0.65916 0.28412 0.20764 0.0
H102 H 0.63858 0.24904 0.29239 0.0
H103 H 0.77243 0.2703 0.35683 0.0
H104 H 0.71163 0.2945 0.2104 0.0
H105 H 0.90212 0.26337 0.2432 0.0
H106 H 0.63449 0.26332 0.24564 0.0
H107 H 0.73391 0.17167 0.2016 0.0
H108 H 0.85786 0.24533 0.26282 0.0
H109 H 0.72825 0.16379 0.15672 0.0
H110 H 0.66958 0.24616 0.33308 0.0
H111 H 0.89947 0.26155 0.19737 0.0
H112 H 0.86931 0.24555 0.15621 0.0
H113 H 0.71934 0.25442 0.35726 0.0
H114 H 0.82168 0.22124 0.13208 0.0
N115 N 0.82875 0.23484 0.22824 0.0
C116 C 0.85552 0.24499 0.24269 0.0
C117 C 0.87952 0.25398 0.20577 0.0
C118 C 0.85233 0.24222 0.1912 0.0
C119 C 0.88111 0.25503 0.23164 0.0
C120 C 0.82689 0.23252 0.20304 0.0
H121 H 0.76914 0.1905 0.13206 0.0
N122 N 0.77582 0.20658 0.20148 0.0
C123 C 0.74819 0.17996 0.16535 0.0
C124 C 0.79973 0.21852 0.18927 0.0
C125 C 0.75131 0.18504 0.19068 0.0
C126 C 0.77129 0.19506 0.15154 0.0
C127 C 0.79782 0.21353 0.16372 0.0
O128 O 0.75964 0.16668 0.25468 0.0
O129 O 0.75267 0.23056 0.2605 0.0
O130 O 0.80667 0.27909 0.28021 0.0
O131 O 0.81519 0.23357 0.27919 0.0
O132 O 0.77249 0.20224 0.28461 0.0
O133 O 0.80262 0.18082 0.24398 0.0
O134 O 0.80204 0.32308 0.26557 0.0
O135 O 0.79891 0.26683 0.23835 0.0
O136 O 0.73968 0.21507 0.22273 0.0
O137 O 0.74257 0.26582 0.21531 0.0
O138 O 0.78117 0.29672 0.21434 0.0
O139 O 0.76044 0.32571 0.24746 0.0
C140 C 0.7534 0.21564 0.28216 0.0
C141 C 0.79173 0.14145 0.27638 0.0
C142 C 0.83028 0.1401 0.31121 0.0
C143 C 0.81719 0.15651 0.29208 0.0
C144 C 0.81587 0.10837 0.31608 0.0
C145 C 0.7776 0.10993 0.28132 0.0
C146 C 0.78944 0.09355 0.30144 0.0
C147 C 0.8209 0.25981 0.28847 0.0
C148 C 0.78184 0.1586 0.25377 0.0
C149 C 0.82286 0.22479 0.15168 0.0
C150 C 0.85004 0.23877 0.16545 0.0
C151 C 0.79978 0.28265 0.21696 0.0
C152 C 0.80183 0.36794 0.23856 0.0
C153 C 0.78584 0.38656 0.22673 0.0
C154 C 0.79638 0.40965 0.20764 0.0
C155 C 0.82407 0.41514 0.20117 0.0
C156 C 0.82978 0.3739 0.23233 0.0
C157 C 0.84089 0.39762 0.21384 0.0
C158 C 0.73198 0.23749 0.20925 0.0
C159 C 0.78749 0.34105 0.25545 0.0
H160 H 0.82756 0.18106 0.28863 0.0
H161 H 0.8254 0.0948 0.33056 0.0
H162 H 0.75784 0.09798 0.26938 0.0
H163 H 0.77866 0.06912 0.30514 0.0
H164 H 0.76402 0.38155 0.23114 0.0
H165 H 0.83237 0.43253 0.18613 0.0
H166 H 0.84271 0.35989 0.24121 0.0
H167 H 0.86221 0.40181 0.20879 0.0
Eu168 Eu 0.75302 0.74162 0.27683 0.0
C169 C 0.82721 0.85297 0.20972 0.0
C170 C 0.7946 0.86016 0.17196 0.0
C171 C 0.83538 0.90374 0.18743 0.0
C172 C 0.80279 0.84106 0.19245 0.0
C173 C 0.84406 0.88438 0.20722 0.0
C174 C 0.8107 0.89165 0.16982 0.0
C175 C 0.87783 0.87479 0.24303 0.0
N176 N 0.83512 0.83359 0.22845 0.0
C177 C 0.86051 0.8438 0.24462 0.0
C178 C 0.86944 0.89524 0.22439 0.0
Eu179 Eu 0.80388 0.78174 0.23084 0.0
N180 N 0.7878 0.81054 0.19504 0.0
C181 C 0.76566 0.79729 0.17676 0.0
C182 C 0.77091 0.84692 0.1539 0.0
C183 C 0.75663 0.81528 0.15615 0.0
H184 H 0.86702 0.82819 0.25921 0.0
H185 H 0.73857 0.80472 0.14208 0.0
H186 H 0.80458 0.90673 0.15434 0.0
H187 H 0.8976 0.8829 0.25622 0.0
H188 H 0.7543 0.77291 0.17827 0.0
H189 H 0.82022 0.72141 0.36527 0.0
H190 H 0.76386 0.86081 0.13793 0.0
H191 H 0.68968 0.69406 0.24999 0.0
H192 H 0.80338 0.75218 0.32887 0.0
H193 H 0.65966 0.63918 0.25403 0.0
H194 H 0.84792 0.92798 0.18529 0.0
H195 H 0.79581 0.66522 0.37028 0.0
H196 H 0.75539 0.61852 0.35478 0.0
H197 H 0.88295 0.91923 0.22315 0.0
H198 H 0.71165 0.59614 0.32456 0.0
N199 N 0.77018 0.71384 0.31278 0.0
C200 C 0.79242 0.72773 0.33074 0.0
C201 C 0.78829 0.67863 0.35421 0.0
C202 C 0.76445 0.66473 0.33652 0.0
C203 C 0.80208 0.71034 0.35147 0.0
C204 C 0.75565 0.68325 0.31586 0.0
H205 H 0.67559 0.60371 0.28714 0.0
N206 N 0.72252 0.68954 0.28015 0.0
C207 C 0.67975 0.64771 0.26675 0.0
C208 C 0.73108 0.67068 0.29896 0.0
C209 C 0.69674 0.67879 0.26457 0.0
C210 C 0.68885 0.62776 0.28542 0.0
C211 C 0.71459 0.63921 0.30206 0.0
O212 O 0.71222 0.74416 0.28436 0.0
O213 O 0.7622 0.77752 0.24388 0.0
O214 O 0.80394 0.81639 0.25564 0.0
O215 O 0.79078 0.78309 0.29132 0.0
O216 O 0.7193 0.75015 0.24448 0.0
O217 O 0.75239 0.7644 0.30893 0.0
O218 O 0.84435 0.77844 0.22324 0.0
O219 O 0.79441 0.74559 0.26356 0.0
O220 O 0.75182 0.70721 0.25104 0.0
O221 O 0.76576 0.74127 0.2159 0.0
O222 O 0.83731 0.77267 0.26337 0.0
O223 O 0.80411 0.75927 0.19841 0.0
C224 C 0.7366 0.77303 0.23219 0.0
C225 C 0.70892 0.74701 0.32704 0.0
C226 C 0.68755 0.75772 0.36035 0.0
C227 C 0.70209 0.76767 0.33884 0.0
C228 C 0.6801 0.72668 0.36987 0.0
C229 C 0.70136 0.71622 0.33682 0.0
C230 C 0.68701 0.70616 0.35817 0.0
C231 C 0.80193 0.81106 0.28012 0.0
C232 C 0.72426 0.7582 0.30476 0.0
C233 C 0.7239 0.62041 0.32197 0.0
C234 C 0.7488 0.63315 0.33918 0.0
C235 C 0.81983 0.7497 0.27542 0.0
C236 C 0.8477 0.77558 0.18056 0.0
C237 C 0.85483 0.75474 0.16925 0.0
C238 C 0.86977 0.76442 0.14798 0.0
C239 C 0.87726 0.79535 0.13814 0.0
C240 C 0.85527 0.80626 0.17046 0.0
C241 C 0.86998 0.81604 0.14931 0.0
C242 C 0.75406 0.71317 0.22658 0.0
C243 C 0.83213 0.76472 0.20271 0.0
H244 H 0.70777 0.79141 0.33103 0.0
H245 H 0.66926 0.71832 0.38657 0.0
H246 H 0.70654 0.70004 0.328 0.0
H247 H 0.68126 0.68237 0.36571 0.0
H248 H 0.84912 0.73108 0.17729 0.0
H249 H 0.88846 0.80348 0.12163 0.0
H250 H 0.84984 0.82257 0.1789 0.0
H251 H 0.87575 0.83974 0.14153 0.0
Eu252 Eu 0.28696 0.72319 0.26437 0.0
C253 C 0.25397 0.8226 0.18609 0.0
C254 C 0.29861 0.86623 0.18446 0.0
C255 C 0.26207 0.85617 0.14711 0.0
C256 C 0.28084 0.84 0.19775 0.0
C257 C 0.24404 0.83072 0.16075 0.0
C258 C 0.28932 0.87389 0.15895 0.0
C259 C 0.19857 0.78899 0.16475 0.0
N260 N 0.23712 0.79823 0.19981 0.0
C261 C 0.20935 0.78195 0.18986 0.0
C262 C 0.21609 0.81331 0.15005 0.0
Eu263 Eu 0.25754 0.78633 0.24156 0.0
N264 N 0.28918 0.83188 0.22237 0.0
C265 C 0.31412 0.85021 0.23536 0.0
C266 C 0.32492 0.88426 0.19735 0.0
C267 C 0.33252 0.87642 0.223 0.0
H268 H 0.19584 0.76295 0.2011 0.0
H269 H 0.35262 0.89044 0.23325 0.0
H270 H 0.30281 0.89376 0.14835 0.0
H271 H 0.1768 0.77562 0.15675 0.0
H272 H 0.3204 0.84434 0.25514 0.0
H273 H 0.19253 0.61846 0.27221 0.0
H274 H 0.33924 0.90454 0.1878 0.0
H275 H 0.34885 0.74662 0.30456 0.0
H276 H 0.2238 0.66571 0.25087 0.0
H277 H 0.36874 0.73294 0.34834 0.0
H278 H 0.25494 0.86264 0.12756 0.0
H279 H 0.2072 0.60275 0.31704 0.0
H280 H 0.24423 0.61266 0.35613 0.0
H281 H 0.20768 0.81876 0.13062 0.0
H282 H 0.29212 0.64379 0.37685 0.0
N283 N 0.25569 0.67728 0.28336 0.0
C284 C 0.23054 0.65924 0.2704 0.0
C285 C 0.22101 0.62362 0.30776 0.0
C286 C 0.24738 0.64155 0.32063 0.0
C287 C 0.2127 0.63237 0.28245 0.0
C288 C 0.2646 0.66844 0.30765 0.0
H289 H 0.33879 0.68851 0.37404 0.0
N290 N 0.30794 0.7107 0.30573 0.0
C291 C 0.34697 0.7195 0.34041 0.0
C292 C 0.29154 0.68576 0.31923 0.0
C293 C 0.33569 0.72712 0.31561 0.0
C294 C 0.32997 0.69445 0.35487 0.0
C295 C 0.30202 0.67698 0.34423 0.0
O296 O 0.32489 0.71435 0.25679 0.0
O297 O 0.29249 0.76749 0.24085 0.0
O298 O 0.25523 0.76138 0.20831 0.0
O299 O 0.25225 0.71367 0.22957 0.0
O300 O 0.33033 0.76157 0.25939 0.0
O301 O 0.28157 0.68884 0.23923 0.0
O302 O 0.21947 0.79521 0.24855 0.0
O303 O 0.2521 0.74215 0.26548 0.0
O304 O 0.29014 0.7486 0.29773 0.0
O305 O 0.29202 0.7961 0.2764 0.0
O306 O 0.21427 0.74789 0.24668 0.0
O307 O 0.26273 0.82179 0.26553 0.0
C308 C 0.31984 0.77985 0.24379 0.0
C309 C 0.31713 0.6653 0.24486 0.0
C310 C 0.33541 0.63249 0.22668 0.0
C311 C 0.32881 0.65945 0.22518 0.0
C312 C 0.33019 0.6115 0.24834 0.0
C313 C 0.31217 0.64424 0.26634 0.0
C314 C 0.31875 0.61745 0.26804 0.0
C315 C 0.24975 0.73169 0.20849 0.0
C316 C 0.30933 0.69298 0.24201 0.0
C317 C 0.28454 0.65082 0.35758 0.0
C318 C 0.25727 0.63311 0.34578 0.0
C319 C 0.22472 0.72976 0.26252 0.0
C320 C 0.22693 0.8452 0.25787 0.0
C321 C 0.21596 0.85303 0.277 0.0
C322 C 0.20833 0.87957 0.27353 0.0
C323 C 0.21185 0.89813 0.25044 0.0
C324 C 0.23036 0.86394 0.23501 0.0
C325 C 0.22281 0.8903 0.23136 0.0
C326 C 0.29555 0.77833 0.2974 0.0
C327 C 0.23492 0.81756 0.26243 0.0
H328 H 0.33219 0.67564 0.20845 0.0
H329 H 0.33526 0.59067 0.25017 0.0
H330 H 0.30309 0.64841 0.28163 0.0
H331 H 0.31489 0.6012 0.28464 0.0
H332 H 0.21305 0.83817 0.29449 0.0
H333 H 0.20649 0.91888 0.24723 0.0
H334 H 0.23887 0.85821 0.2201 0.0
H335 H 0.22554 0.90479 0.21371 0.0
Eu336 Eu 0.30248 0.74707 0.75408 0.0
C337 C 0.23562 0.80281 0.80888 0.0
C338 C 0.18757 0.76638 0.81443 0.0
C339 C 0.21315 0.80321 0.84525 0.0
C340 C 0.21164 0.77827 0.80083 0.0
C341 C 0.2366 0.81565 0.83116 0.0
C342 C 0.18865 0.77867 0.83687 0.0
C343 C 0.28369 0.85246 0.82381 0.0
N344 N 0.25812 0.81401 0.79498 0.0
C345 C 0.28172 0.83909 0.80182 0.0
C346 C 0.26114 0.84059 0.83864 0.0
Eu347 Eu 0.25363 0.78835 0.75875 0.0
N348 N 0.21143 0.7666 0.77929 0.0
C349 C 0.18696 0.74455 0.7693 0.0
C350 C 0.16286 0.74296 0.80476 0.0
C351 C 0.16238 0.73239 0.78185 0.0
H352 H 0.29965 0.84828 0.79095 0.0
H353 H 0.14319 0.71463 0.77397 0.0
H354 H 0.17049 0.76962 0.84769 0.0
H355 H 0.30272 0.87182 0.8294 0.0
H356 H 0.18643 0.73609 0.75164 0.0
H357 H 0.39193 0.84039 0.8028 0.0
H358 H 0.14388 0.7333 0.81457 0.0
H359 H 0.29875 0.73007 0.69522 0.0
H360 H 0.3417 0.80858 0.79162 0.0
H361 H 0.3308 0.73841 0.66327 0.0
H362 H 0.21362 0.81263 0.8625 0.0
H363 H 0.42957 0.84192 0.778 0.0
H364 H 0.44123 0.8278 0.73962 0.0
H365 H 0.26282 0.85094 0.85572 0.0
H366 H 0.42416 0.80193 0.70058 0.0
N367 N 0.35017 0.78559 0.76412 0.0
C368 C 0.35766 0.80575 0.78223 0.0
C369 C 0.40747 0.82622 0.77387 0.0
C370 C 0.3992 0.80893 0.75319 0.0
C371 C 0.38637 0.82527 0.78799 0.0
C372 C 0.37002 0.78884 0.74855 0.0
H373 H 0.38296 0.76983 0.67156 0.0
N374 N 0.33172 0.75813 0.7212 0.0
C375 C 0.33942 0.74899 0.68084 0.0
C376 C 0.36039 0.77488 0.72631 0.0
C377 C 0.3212 0.74474 0.69897 0.0
C378 C 0.36885 0.76653 0.68566 0.0
C379 C 0.3797 0.77974 0.70856 0.0
O380 O 0.2832 0.7037 0.73726 0.0
O381 O 0.25862 0.74268 0.76204 0.0
O382 O 0.27677 0.7798 0.79807 0.0
O383 O 0.31157 0.75708 0.79556 0.0
O384 O 0.27777 0.71313 0.78429 0.0
O385 O 0.32598 0.71475 0.76024 0.0
O386 O 0.2546 0.83083 0.73503 0.0
O387 O 0.2903 0.78756 0.74078 0.0
O388 O 0.2743 0.75397 0.71673 0.0
O389 O 0.23275 0.75146 0.73133 0.0
O390 O 0.29516 0.82921 0.75157 0.0
O391 O 0.21446 0.79245 0.73481 0.0
C392 C 0.25454 0.72055 0.77924 0.0
C393 C 0.30013 0.66211 0.75365 0.0
C394 C 0.3208 0.62119 0.76202 0.0
C395 C 0.32424 0.65243 0.7581 0.0
C396 C 0.29249 0.59948 0.76174 0.0
C397 C 0.27197 0.64024 0.75337 0.0
C398 C 0.26826 0.60905 0.75749 0.0
C399 C 0.29812 0.76908 0.80823 0.0
C400 C 0.30536 0.69488 0.74656 0.0
C401 C 0.40904 0.7981 0.71392 0.0
C402 C 0.41878 0.81268 0.7362 0.0
C403 C 0.30694 0.81489 0.74088 0.0
C404 C 0.22711 0.81658 0.69527 0.0
C405 C 0.20013 0.80141 0.68156 0.0
C406 C 0.19812 0.79533 0.65647 0.0
C407 C 0.2236 0.80485 0.64504 0.0
C408 C 0.25236 0.82634 0.68342 0.0
C409 C 0.25056 0.82035 0.65849 0.0
C410 C 0.24588 0.74846 0.71316 0.0
C411 C 0.22889 0.81791 0.7227 0.0
H412 H 0.34589 0.66955 0.75863 0.0
H413 H 0.28906 0.57521 0.76473 0.0
H414 H 0.25293 0.64716 0.74964 0.0
H415 H 0.24654 0.59221 0.75721 0.0
H416 H 0.18059 0.79443 0.69052 0.0
H417 H 0.22261 0.80056 0.62568 0.0
H418 H 0.27356 0.83799 0.69351 0.0
H419 H 0.27014 0.82763 0.64961 0.0
Eu420 Eu 0.24093 0.22989 0.77662 0.0
C421 C 0.31739 0.33799 0.70809 0.0
C422 C 0.28628 0.3429 0.66871 0.0
C423 C 0.32711 0.38721 0.68285 0.0
C424 C 0.29332 0.32515 0.69077 0.0
C425 C 0.33483 0.36907 0.70416 0.0
C426 C 0.30293 0.37412 0.6651 0.0
C427 C 0.3677 0.3613 0.7414 0.0
N428 N 0.32467 0.31967 0.72811 0.0
C429 C 0.34994 0.33054 0.74429 0.0
C430 C 0.35998 0.38074 0.72138 0.0
Eu431 Eu 0.29347 0.26792 0.73188 0.0
N432 N 0.27774 0.29491 0.69475 0.0
C433 C 0.25586 0.28058 0.67674 0.0
C434 C 0.26335 0.32851 0.65054 0.0
C435 C 0.2481 0.29719 0.65454 0.0
H436 H 0.35603 0.31565 0.75982 0.0
H437 H 0.2305 0.28579 0.64047 0.0
H438 H 0.29766 0.38816 0.64839 0.0
H439 H 0.38735 0.36996 0.75458 0.0
H440 H 0.24407 0.25634 0.67947 0.0
H441 H 0.30543 0.21004 0.86691 0.0
H442 H 0.25775 0.34122 0.6331 0.0
H443 H 0.1776 0.18271 0.74923 0.0
H444 H 0.29019 0.24055 0.82953 0.0
H445 H 0.14665 0.12824 0.75371 0.0
H446 H 0.34012 0.41117 0.67958 0.0
H447 H 0.27969 0.15413 0.87273 0.0
H448 H 0.23872 0.10771 0.85749 0.0
H449 H 0.3739 0.40451 0.71905 0.0
H450 H 0.19545 0.08547 0.82679 0.0
N451 N 0.2565 0.20237 0.81366 0.0
C452 C 0.27861 0.21626 0.83172 0.0
C453 C 0.27285 0.16745 0.85621 0.0
C454 C 0.24918 0.15361 0.83837 0.0
C455 C 0.28738 0.199 0.85302 0.0
C456 C 0.24127 0.17198 0.81713 0.0
H457 H 0.16078 0.09299 0.78821 0.0
N458 N 0.20936 0.17823 0.78045 0.0
C459 C 0.16641 0.1367 0.76682 0.0
C460 C 0.21695 0.1595 0.79997 0.0
C461 C 0.18398 0.16756 0.76436 0.0
C462 C 0.1745 0.11687 0.78628 0.0
C463 C 0.19983 0.12825 0.80337 0.0
O464 O 0.20026 0.23452 0.78213 0.0
O465 O 0.25137 0.26515 0.74323 0.0
O466 O 0.29402 0.30363 0.75606 0.0
O467 O 0.27874 0.27072 0.79137 0.0
O468 O 0.20857 0.2373 0.74258 0.0
O469 O 0.23965 0.25349 0.80797 0.0
O470 O 0.33462 0.2645 0.72635 0.0
O471 O 0.28298 0.23284 0.76509 0.0
O472 O 0.24062 0.19385 0.75329 0.0
O473 O 0.25691 0.22551 0.71744 0.0
O474 O 0.32605 0.25988 0.76549 0.0
O475 O 0.29539 0.24484 0.70043 0.0
C476 C 0.22622 0.26007 0.7305 0.0
C477 C 0.19509 0.23839 0.8241 0.0
C478 C 0.17447 0.25162 0.85667 0.0
C479 C 0.1906 0.2604 0.83614 0.0
C480 C 0.16315 0.22025 0.86501 0.0
C481 C 0.18382 0.20734 0.83279 0.0
C482 C 0.16792 0.19838 0.85319 0.0
C483 C 0.29107 0.29848 0.78038 0.0
C484 C 0.21176 0.24849 0.80262 0.0
C485 C 0.2082 0.10958 0.82395 0.0
C486 C 0.23283 0.12224 0.84142 0.0
C487 C 0.3082 0.2373 0.77755 0.0
C488 C 0.34011 0.26132 0.6843 0.0
C489 C 0.3448 0.23976 0.67188 0.0
C490 C 0.36105 0.24913 0.65142 0.0
C491 C 0.37224 0.28062 0.64349 0.0
C492 C 0.35132 0.29253 0.67605 0.0
C493 C 0.36728 0.30207 0.65568 0.0
C494 C 0.24448 0.19825 0.72926 0.0
C495 C 0.32342 0.2506 0.70577 0.0
H496 H 0.19994 0.28441 0.82958 0.0
H497 H 0.15018 0.2125 0.88042 0.0
H498 H 0.18722 0.1901 0.82379 0.0
H499 H 0.15908 0.17435 0.85976 0.0
H500 H 0.33557 0.21563 0.67813 0.0
H501 H 0.38527 0.2888 0.62813 0.0
H502 H 0.34787 0.30946 0.68538 0.0
H503 H 0.37605 0.32621 0.64945 0.0
Eu504 Eu 0.79643 0.23064 0.77002 0.0
C505 C 0.74715 0.31888 0.68918 0.0
C506 C 0.78696 0.36724 0.68671 0.0
C507 C 0.74933 0.35336 0.65051 0.0
C508 C 0.77292 0.33907 0.70013 0.0
C509 C 0.7348 0.32595 0.66437 0.0
C510 C 0.77533 0.37402 0.66169 0.0
C511 C 0.69349 0.27955 0.66957 0.0
N512 N 0.73342 0.29294 0.70324 0.0
C513 C 0.7065 0.27371 0.69416 0.0
C514 C 0.70783 0.30565 0.65451 0.0
Eu515 Eu 0.75664 0.28427 0.74461 0.0
N516 N 0.78353 0.33185 0.72433 0.0
C517 C 0.80734 0.3525 0.73669 0.0
C518 C 0.81179 0.38811 0.69908 0.0
C519 C 0.822 0.38072 0.7242 0.0
H520 H 0.69535 0.25347 0.70572 0.0
H521 H 0.84105 0.39684 0.73401 0.0
H522 H 0.78598 0.39541 0.65101 0.0
H523 H 0.67242 0.26394 0.66228 0.0
H524 H 0.8154 0.34729 0.75615 0.0
H525 H 0.7134 0.11692 0.77913 0.0
H526 H 0.82288 0.41022 0.68959 0.0
H527 H 0.85581 0.26285 0.8105 0.0
H528 H 0.73909 0.1666 0.7573 0.0
H529 H 0.87683 0.25332 0.85488 0.0
H530 H 0.74029 0.35912 0.63137 0.0
H531 H 0.72985 0.10425 0.82415 0.0
H532 H 0.76476 0.12007 0.86368 0.0
H533 H 0.69763 0.31023 0.63552 0.0
H534 H 0.80896 0.1573 0.8844 0.0
N535 N 0.76945 0.18279 0.78981 0.0
C536 C 0.74647 0.16171 0.777 0.0
C537 C 0.74104 0.1264 0.81476 0.0
C538 C 0.76497 0.14778 0.82766 0.0
C539 C 0.73177 0.13339 0.78932 0.0
C540 C 0.77916 0.176 0.81439 0.0
H541 H 0.85104 0.20689 0.88121 0.0
N542 N 0.8182 0.22274 0.81209 0.0
C543 C 0.85635 0.23724 0.847 0.0
C544 C 0.80419 0.19671 0.82594 0.0
C545 C 0.84445 0.24254 0.8219 0.0
C546 C 0.84168 0.21105 0.86182 0.0
C547 C 0.8155 0.19015 0.85123 0.0
O548 O 0.83812 0.22824 0.76473 0.0
O549 O 0.79589 0.27207 0.74389 0.0
O550 O 0.75616 0.25852 0.71223 0.0
O551 O 0.76314 0.21503 0.7354 0.0
O552 O 0.83566 0.27387 0.76414 0.0
O553 O 0.79766 0.19684 0.74719 0.0
O554 O 0.71572 0.28696 0.75173 0.0
O555 O 0.75698 0.24247 0.77007 0.0
O556 O 0.79432 0.25488 0.80217 0.0
O557 O 0.79055 0.29957 0.77914 0.0
O558 O 0.71715 0.24122 0.75044 0.0
O559 O 0.75694 0.31804 0.76828 0.0
C560 C 0.82252 0.28838 0.7469 0.0
C561 C 0.83803 0.18014 0.7566 0.0
C562 C 0.85849 0.14721 0.74117 0.0
C563 C 0.84722 0.1713 0.73686 0.0
C564 C 0.86027 0.13202 0.76569 0.0
C565 C 0.83992 0.16476 0.78089 0.0
C566 C 0.85103 0.14079 0.78536 0.0
C567 C 0.75588 0.23002 0.71387 0.0
C568 C 0.826 0.20503 0.75111 0.0
C569 C 0.80073 0.16268 0.8649 0.0
C570 C 0.77557 0.14148 0.8531 0.0
C571 C 0.73036 0.22618 0.76706 0.0
C572 C 0.71678 0.33502 0.76095 0.0
C573 C 0.70828 0.34345 0.78133 0.0
C574 C 0.69727 0.36769 0.77794 0.0
C575 C 0.69492 0.38334 0.75366 0.0
C576 C 0.71438 0.35091 0.73694 0.0
C577 C 0.70344 0.37496 0.73336 0.0
C578 C 0.79578 0.28368 0.8008 0.0
C579 C 0.72863 0.30999 0.76543 0.0
H580 H 0.84516 0.18297 0.71803 0.0
H581 H 0.86915 0.11363 0.76976 0.0
H582 H 0.8328 0.17124 0.79628 0.0
H583 H 0.85254 0.12899 0.80415 0.0
H584 H 0.70998 0.33083 0.79979 0.0
H585 H 0.68687 0.40233 0.75041 0.0
H586 H 0.721 0.34479 0.72107 0.0
H587 H 0.70167 0.38726 0.7148 0.0
Eu588 Eu 0.75399 0.72434 0.72663 0.0
C589 C 0.85332 0.8022 0.80314 0.0
C590 C 0.85755 0.766 0.83939 0.0
C591 C 0.90009 0.80974 0.82972 0.0
C592 C 0.84079 0.77565 0.818 0.0
C593 C 0.88292 0.82005 0.80923 0.0
C594 C 0.88742 0.78273 0.84476 0.0
C595 C 0.87548 0.85856 0.77624 0.0
N596 N 0.836 0.81175 0.7838 0.0
C597 C 0.84621 0.84016 0.77113 0.0
C598 C 0.89405 0.84826 0.79513 0.0
Eu599 Eu 0.78698 0.77894 0.7753 0.0
N600 N 0.81183 0.76019 0.81237 0.0
C601 C 0.79783 0.73623 0.82852 0.0
C602 C 0.8436 0.74034 0.85515 0.0
C603 C 0.81353 0.72569 0.84988 0.0
H604 H 0.83183 0.84821 0.75658 0.0
H605 H 0.80241 0.70618 0.86221 0.0
H606 H 0.90072 0.77545 0.86092 0.0
H607 H 0.88367 0.88069 0.76568 0.0
H608 H 0.77463 0.72452 0.82472 0.0
H609 H 0.73722 0.79584 0.63937 0.0
H610 H 0.8557 0.73214 0.87172 0.0
H611 H 0.70913 0.65577 0.7472 0.0
H612 H 0.76561 0.77794 0.67671 0.0
H613 H 0.6571 0.62353 0.73912 0.0
H614 H 0.92295 0.82296 0.83453 0.0
H615 H 0.68384 0.76987 0.63071 0.0
H616 H 0.63906 0.72678 0.64235 0.0
H617 H 0.91667 0.86265 0.79921 0.0
H618 H 0.61719 0.67989 0.66955 0.0
N619 N 0.72865 0.74257 0.68972 0.0
C620 C 0.74237 0.76626 0.67324 0.0
C621 C 0.69621 0.76186 0.64718 0.0
C622 C 0.68253 0.73646 0.66331 0.0
C623 C 0.72633 0.77652 0.65198 0.0
C624 C 0.69962 0.72709 0.68459 0.0
H625 H 0.62381 0.64097 0.70545 0.0
N626 N 0.70486 0.69146 0.71914 0.0
C627 C 0.66527 0.64528 0.72802 0.0
C628 C 0.6873 0.70077 0.69985 0.0
C629 C 0.69467 0.66352 0.73253 0.0
C630 C 0.64654 0.65525 0.70905 0.0
C631 C 0.65758 0.68302 0.69435 0.0
O632 O 0.75866 0.68171 0.72006 0.0
O633 O 0.78703 0.73639 0.7614 0.0
O634 O 0.82221 0.78496 0.75168 0.0
O635 O 0.79368 0.76363 0.71507 0.0
O636 O 0.76285 0.6907 0.75953 0.0
O637 O 0.77513 0.72261 0.69502 0.0
O638 O 0.78123 0.8212 0.78128 0.0
O639 O 0.75429 0.76716 0.74033 0.0
O640 O 0.71867 0.7201 0.74929 0.0
O641 O 0.74714 0.73915 0.78658 0.0
O642 O 0.77864 0.81279 0.74244 0.0
O643 O 0.76564 0.78062 0.80685 0.0
C644 C 0.78377 0.70997 0.77283 0.0
C645 C 0.75896 0.67531 0.6775 0.0
C646 C 0.76624 0.64728 0.64609 0.0
C647 C 0.77717 0.66456 0.66722 0.0
C648 C 0.73686 0.64122 0.63542 0.0
C649 C 0.72979 0.66887 0.66654 0.0
C650 C 0.71885 0.65194 0.64561 0.0
C651 C 0.81864 0.77989 0.72767 0.0
C652 C 0.77061 0.69335 0.69952 0.0
C653 C 0.64014 0.69305 0.67393 0.0
C654 C 0.65259 0.71973 0.65844 0.0
C655 C 0.75786 0.79367 0.7289 0.0
C656 C 0.78104 0.82834 0.82364 0.0
C657 C 0.76194 0.83617 0.83537 0.0
C658 C 0.77263 0.8541 0.85611 0.0
C659 C 0.80279 0.86407 0.86475 0.0
C660 C 0.81093 0.8384 0.83275 0.0
C661 C 0.8217 0.85618 0.85317 0.0
C662 C 0.72208 0.72387 0.77351 0.0
C663 C 0.76957 0.80972 0.80196 0.0
H664 H 0.79966 0.66936 0.67586 0.0
H665 H 0.72785 0.62854 0.61892 0.0
H666 H 0.71549 0.67693 0.67409 0.0
H667 H 0.69632 0.64719 0.63718 0.0
H668 H 0.73878 0.82801 0.82851 0.0
H669 H 0.8119 0.87835 0.88028 0.0
H670 H 0.82597 0.83266 0.82406 0.0
H671 H 0.84484 0.86402 0.85998 0.0
C672 C 0.97682 0.06991 0.54723 0.0
C673 C 1.01026 0.09257 0.47414 0.0
C674 C 0.96882 0.97394 0.46456 0.0
Mg675 Mg 0.03294 0.07272 0.52781 0.0
O676 O 1.01032 0.03187 0.52292 0.0
Mg677 Mg 0.97101 0.02405 0.502 0.0
Mg678 Mg 0.02544 0.00765 0.50531 0.0
O679 O 0.04066 0.9838 0.48754 0.0
Mg680 Mg 1.01818 0.94376 0.48052 0.0
Mg681 Mg 0.0799 0.99125 0.5084 0.0
C682 C 0.08256 0.04251 0.54444 0.0
C683 C 0.0769 0.05366 0.47403 0.0
O684 O 0.96161 0.05071 0.531 0.0
O685 O 1.00476 0.08089 0.54961 0.0
O686 O 0.98766 0.06849 0.47593 0.0
O687 O 0.03189 0.09855 0.4917 0.0
O688 O 0.07346 0.06498 0.54395 0.0
O689 O 0.06669 0.01771 0.53429 0.0
C690 C 0.97361 0.96168 0.53636 0.0
O691 O 0.99898 0.96687 0.53039 0.0
O692 O 0.95906 0.97967 0.52792 0.0
O693 O 0.08975 0.96561 0.47905 0.0
O694 O 0.04711 0.93659 0.45881 0.0
O695 O 0.06297 0.94519 0.53358 0.0
C696 C 0.07507 0.94725 0.46208 0.0
O697 O 1.01878 0.91694 0.51591 0.0
O698 O 0.97782 0.95169 0.46393 0.0
C699 C 0.03996 0.92119 0.53392 0.0
O700 O 0.98435 0.99754 0.47637 0.0
O701 O 0.05154 0.04818 0.48007 0.0
O702 O 0.09189 0.03613 0.4827 0.0
C703 C 0.44945 0.05703 0.02489 0.0
C704 C 0.46406 0.06068 0.94965 0.0
C705 C 0.47327 0.94286 0.98585 0.0
Mg706 Mg 0.50554 0.07002 1.00104 0.0
O707 O 0.49685 0.02812 0.00927 0.0
Mg708 Mg 0.45668 1.0008 0.99663 0.0
Mg709 Mg 0.52239 1.00504 0.00433 0.0
O710 O 0.54753 0.9816 0.99946 0.0
Mg711 Mg 0.53812 0.93949 0.00757 0.0
Mg712 Mg 0.58775 0.00854 0.01213 0.0
C713 C 0.57096 0.06734 0.0223 0.0
C714 C 0.56347 0.04404 0.96074 0.0
O715 O 0.4388 0.03099 0.01549 0.0
O716 O 0.47566 0.07511 0.0231 0.0
O717 O 0.45202 0.03265 0.95833 0.0
O718 O 0.48688 0.07841 0.96206 0.0
O719 O 0.55263 0.08145 0.01382 0.0
O720 O 0.56341 0.03789 0.02533 0.0
C721 C 0.48145 0.96539 0.04786 0.0
O722 O 0.50715 0.9748 0.04139 0.0
O723 O 0.46036 0.97215 0.0341 0.0
O724 O 0.60511 0.97772 0.99339 0.0
O725 O 0.56761 0.93417 0.98531 0.0
O726 O 0.59201 0.9767 0.05047 0.0
C727 C 0.59401 0.95183 0.98372 0.0
O728 O 0.55718 0.93092 0.04652 0.0
O729 O 0.49084 0.92791 0.99456 0.0
C730 C 0.57997 0.94862 0.05903 0.0
O731 O 0.48153 0.97232 0.98329 0.0
O732 O 0.5378 0.03535 0.96722 0.0
O733 O 0.58423 0.03677 0.97456 0.0
C734 C 0.97047 0.58177 0.02198 0.0
C735 C 0.97618 0.57389 0.94662 0.0
C736 C 0.97077 0.45335 0.98705 0.0
Mg737 Mg 1.02165 0.5823 0.99589 0.0
O738 O 1.00756 0.5408 0.00767 0.0
Mg739 Mg 0.96537 0.51794 0.99666 0.0
Mg740 Mg 0.02697 0.51149 0.00285 0.0
O741 O 0.04632 0.4823 0.9979 0.0
Mg742 Mg 0.0318 0.44085 0.00997 0.0
Mg743 Mg 0.08856 0.50502 0.00919 0.0
C744 C 0.08291 0.56963 0.01852 0.0
C745 C 0.06895 0.54517 0.95847 0.0
O746 O 0.95544 0.55498 0.0147 0.0
O747 O 0.99701 0.59574 0.018 0.0
O748 O 0.96229 0.54782 0.95763 0.0
O749 O 1.00139 0.59029 0.95681 0.0
O750 O 0.06817 0.58736 0.00873 0.0
O751 O 0.0711 0.54031 0.02245 0.0
C752 C 0.9859 0.47967 0.04814 0.0
O753 O 1.01046 0.48388 0.04084 0.0
O754 O 0.96725 0.49052 0.03459 0.0
O755 O 0.09816 0.46803 0.9907 0.0
O756 O 0.0566 0.42711 0.98836 0.0
O757 O 0.09122 0.47398 0.04792 0.0
C758 C 0.083 0.44099 0.98397 0.0
O759 O 0.05142 0.43232 0.04909 0.0
O760 O 0.98529 0.43542 0.99685 0.0
C761 C 0.07697 0.44811 0.05905 0.0
O762 O 0.98283 0.48264 0.98346 0.0
O763 O 0.04367 0.53933 0.96501 0.0
O764 O 0.08776 0.53445 0.97192 0.0
C765 C 0.46391 0.56516 0.0343 0.0
C766 C 0.48868 0.57253 0.95856 0.0
C767 C 0.46912 0.45533 0.97245 0.0
Mg768 Mg 0.52092 0.57364 0.01255 0.0
O769 O 0.50482 0.53052 0.01656 0.0
Mg770 Mg 0.46395 0.51045 0.99991 0.0
Mg771 Mg 0.52383 0.50608 0.00349 0.0
O772 O 0.54269 0.48137 0.99071 0.0
Mg773 Mg 0.52628 0.43818 0.9952 0.0
Mg774 Mg 0.58338 0.50126 0.00771 0.0
C775 C 0.57833 0.5568 0.03473 0.0
C776 C 0.56726 0.54989 0.96387 0.0
O777 O 0.45101 0.54021 0.02347 0.0
O778 O 0.49067 0.58152 0.03266 0.0
O779 O 0.47023 0.54742 0.96666 0.0
O780 O 0.51206 0.58655 0.97253 0.0
O781 O 0.56539 0.57676 0.03047 0.0
O782 O 0.56578 0.52969 0.0277 0.0
C783 C 0.48091 0.46153 0.04309 0.0
O784 O 0.50609 0.47003 0.03583 0.0
O785 O 0.46156 0.47334 0.03257 0.0
O786 O 0.59628 0.47074 0.98479 0.0
O787 O 0.55622 0.43005 0.97503 0.0
O788 O 0.57647 0.46492 0.04104 0.0
C789 C 0.58317 0.44593 0.97378 0.0
O790 O 0.53574 0.42434 0.03512 0.0
O791 O 0.48187 0.4352 0.97711 0.0
C792 C 0.55854 0.4395 0.04911 0.0
O793 O 0.48173 0.48251 0.97933 0.0
O794 O 0.54202 0.54211 0.97095 0.0
O795 O 0.58621 0.53773 0.97479 0.0
C796 C 0.94559 0.55171 0.51796 0.0
C797 C 0.96802 0.56229 0.44459 0.0
C798 C 0.97486 0.44122 0.47738 0.0
Mg799 Mg 1.00468 0.56662 0.49835 0.0
O800 O 0.9947 0.52432 0.50414 0.0
Mg801 Mg 0.95567 0.49831 0.48804 0.0
Mg802 Mg 1.02124 0.50166 0.50143 0.0
O803 O 0.04774 0.47871 0.49896 0.0
Mg804 Mg 0.03776 0.43646 0.50569 0.0
Mg805 Mg 0.08656 0.50467 0.51536 0.0
C806 C 0.06755 0.56188 0.52593 0.0
C807 C 0.06832 0.54298 0.4627 0.0
O808 O 0.93553 0.52672 0.50694 0.0
O809 O 0.9722 0.56958 0.51831 0.0
O810 O 0.95515 0.53371 0.45125 0.0
O811 O 0.98984 0.57869 0.45894 0.0
O812 O 0.05047 0.57705 0.51605 0.0
O813 O 0.05958 0.5325 0.52669 0.0
C814 C 0.97422 0.45859 0.53957 0.0
O815 O 1.00123 0.46913 0.53625 0.0
O816 O 0.95485 0.46626 0.52386 0.0
O817 O 0.10698 0.4757 0.49779 0.0
O818 O 0.07045 0.43284 0.48628 0.0
O819 O 0.08678 0.47045 0.55274 0.0
C820 C 0.09714 0.45061 0.48697 0.0
O821 O 0.05238 0.42519 0.54546 0.0
O822 O 0.99206 0.42632 0.48771 0.0
C823 C 0.07398 0.44199 0.55977 0.0
O824 O 0.98269 0.47069 0.47609 0.0
O825 O 0.04152 0.53417 0.46652 0.0
O826 O 0.08736 0.53504 0.47864 0.0
C827 C 0.46389 0.07259 0.52221 0.0
C828 C 0.47421 0.07016 0.44721 0.0
C829 C 0.46939 0.94826 0.48444 0.0
Mg830 Mg 0.51733 0.07629 0.49767 0.0
O831 O 0.50326 0.03432 0.5078 0.0
Mg832 Mg 0.46155 0.01107 0.49514 0.0
Mg833 Mg 0.52406 0.00661 0.50264 0.0
O834 O 0.54477 0.97871 0.49755 0.0
Mg835 Mg 0.53068 0.93682 0.50809 0.0
Mg836 Mg 0.5864 1.00158 0.5105 0.0
C837 C 0.57852 0.0646 0.52206 0.0
C838 C 0.56794 0.04317 0.46028 0.0
O839 O 0.4497 0.046 0.51421 0.0
O840 O 0.49054 0.08743 0.51902 0.0
O841 O 0.45993 0.04352 0.45715 0.0
O842 O 0.49905 0.08607 0.45836 0.0
O843 O 0.56363 0.08228 0.51255 0.0
O844 O 0.56705 0.03516 0.52403 0.0
C845 C 0.48095 0.97076 0.54572 0.0
O846 O 0.50655 0.97741 0.53961 0.0
O847 O 0.46182 0.98075 0.53198 0.0
O848 O 0.59818 0.96628 0.49158 0.0
O849 O 0.55702 0.92523 0.48666 0.0
O850 O 0.58802 0.96922 0.54846 0.0
C851 C 0.58376 0.93972 0.48357 0.0
O852 O 0.54888 0.92677 0.54731 0.0
O853 O 0.48435 0.93076 0.49416 0.0
C854 C 0.57376 0.94261 0.55842 0.0
O855 O 0.48083 0.97769 0.48142 0.0
O856 O 0.54211 0.03654 0.46593 0.0
O857 O 0.58639 0.03215 0.474 0.0
H858 H 0.23677 0.23525 0.33221 0.0
H859 H 0.20004 0.20876 0.35986 0.0
H860 H 0.13602 0.1772 0.29522 0.0
H861 H 0.17282 0.20426 0.267 0.0
H862 H 0.14197 0.21087 0.36112 0.0
H863 H 0.14271 0.09847 0.34048 0.0
H864 H 0.17107 0.13397 0.33257 0.0
H865 H 0.13551 0.12467 0.31431 0.0
C866 C 0.21488 0.22298 0.32367 0.0
C867 C 0.20797 0.22123 0.29734 0.0
C868 C 0.19384 0.20798 0.33958 0.0
C869 C 0.16547 0.19086 0.32959 0.0
C870 C 0.15795 0.19011 0.30326 0.0
H871 H 0.04571 0.08303 0.43948 0.0
H872 H 0.06269 0.1189 0.40298 0.0
C873 C 0.17905 0.20535 0.28721 0.0
C874 C 0.14507 0.17173 0.34729 0.0
H875 H 0.11981 0.09849 0.37468 0.0
C876 C 0.13643 0.18619 0.36377 0.0
C877 C 0.13817 0.13962 0.3507 0.0
C878 C 0.14736 0.12308 0.33373 0.0
C879 C 0.12232 0.16944 0.38444 0.0
C880 C 0.11701 0.13765 0.38862 0.0
C881 C 0.12412 0.12297 0.37133 0.0
C882 C 0.10719 0.1196 0.41221 0.0
C883 C 0.11471 0.18592 0.40253 0.0
C884 C 0.12677 0.1088 0.42967 0.0
C885 C 0.11725 0.08864 0.4506 0.0
C886 C 0.0879 0.07881 0.45438 0.0
C887 C 0.06857 0.09071 0.4374 0.0
C888 C 0.07816 0.111 0.41643 0.0
H889 H 0.12179 0.21105 0.39734 0.0
H890 H 0.09075 0.17707 0.40263 0.0
H891 H 0.1251 0.18141 0.42206 0.0
H892 H 0.14929 0.11528 0.42665 0.0
H893 H 0.13268 0.07994 0.46333 0.0
H894 H 0.87554 0.1862 0.29125 0.0
H895 H 0.92523 0.20917 0.31179 0.0
H896 H 0.90289 0.1513 0.38047 0.0
H897 H 0.85254 0.12984 0.36078 0.0
H898 H 0.94203 0.20999 0.38937 0.0
H899 H 0.97851 0.15986 0.31991 0.0
H900 H 0.96117 0.18794 0.30895 0.0
H901 H 0.94019 0.15022 0.32119 0.0
C902 C 0.88084 0.17896 0.311 0.0
C903 C 0.85994 0.15582 0.32433 0.0
C904 C 0.90945 0.19198 0.32258 0.0
C905 C 0.91787 0.1816 0.34745 0.0
C906 C 0.89682 0.15967 0.36118 0.0
H907 H 0.97463 0.0819 0.42959 0.0
H908 H 0.96907 0.11921 0.39466 0.0
C909 C 0.86811 0.14701 0.34979 0.0
C910 C 0.94885 0.19015 0.35875 0.0
H911 H 1.00444 0.16343 0.36051 0.0
C912 C 0.95647 0.20105 0.38273 0.0
C913 C 0.96816 0.17958 0.34957 0.0
C914 C 0.96179 0.16871 0.32352 0.0
C915 C 0.97965 0.19595 0.39963 0.0
C916 C 0.99536 0.17978 0.39199 0.0
C917 C 0.99174 0.17514 0.36636 0.0
C918 C 1.00463 0.15741 0.41052 0.0
C919 C 0.98402 0.20338 0.42661 0.0
C920 C 0.02727 0.16621 0.43061 0.0
C921 C 0.03029 0.14471 0.45097 0.0
C922 C 1.0106 0.11435 0.45135 0.0
C923 C 0.98968 0.10524 0.43016 0.0
C924 C 0.98674 0.12653 0.40999 0.0
H925 H 0.97146 0.21792 0.42891 0.0
H926 H 0.97688 0.18186 0.43925 0.0
H927 H 1.00746 0.2156 0.43283 0.0
H928 H 0.04151 0.18985 0.43118 0.0
H929 H 0.04698 0.15221 0.46693 0.0
H930 H 0.8211 0.87264 0.26457 0.0
H931 H 0.84079 0.9152 0.29134 0.0
H932 H 0.82807 0.8509 0.35799 0.0
H933 H 0.80815 0.80848 0.33161 0.0
H934 H 0.81125 0.90135 0.36021 0.0
H935 H 0.92231 0.93738 0.33202 0.0
H936 H 0.89246 0.93629 0.30722 0.0
H937 H 0.89465 0.90129 0.3246 0.0
C938 C 0.82256 0.86757 0.28493 0.0
C939 C 0.81342 0.83709 0.29595 0.0
C940 C 0.83376 0.89194 0.30019 0.0
C941 C 0.83614 0.8862 0.32666 0.0
C942 C 0.82635 0.85586 0.33759 0.0
H943 H 0.91798 0.92677 0.46481 0.0
H944 H 0.8791 0.91537 0.42918 0.0
C945 C 0.81511 0.83159 0.32244 0.0
C946 C 0.85026 0.91121 0.34348 0.0
H947 H 0.91749 0.95882 0.36637 0.0
C948 C 0.83437 0.91449 0.36122 0.0
C949 C 0.88032 0.92863 0.34458 0.0
C950 C 0.8986 0.92576 0.32624 0.0
C951 C 0.8482 0.93294 0.38119 0.0
C952 C 0.8787 0.94817 0.38359 0.0
C953 C 0.89407 0.94715 0.36451 0.0
C954 C 0.89603 0.95941 0.40782 0.0
C955 C 0.83028 0.93473 0.40024 0.0
C956 C 0.9178 0.98855 0.40832 0.0
C957 C 0.94 0.99521 0.42899 0.0
C958 C 0.94088 0.97253 0.44903 0.0
C959 C 0.91753 0.94467 0.44965 0.0
C960 C 0.89523 0.9382 0.42926 0.0
H961 H 0.80782 0.93291 0.39114 0.0
H962 H 0.82846 0.91526 0.4151 0.0
H963 H 0.84039 0.95643 0.40943 0.0
H964 H 0.91896 0.00514 0.39188 0.0
H965 H 0.95805 0.01669 0.42797 0.0
H966 H 0.22664 0.87567 0.32466 0.0
H967 H 0.20609 0.88715 0.35821 0.0
H968 H 0.14322 0.91351 0.30228 0.0
H969 H 0.16341 0.90179 0.26859 0.0
H970 H 0.17078 0.95483 0.33974 0.0
H971 H 0.12714 0.83462 0.38203 0.0
H972 H 0.16521 0.8482 0.37873 0.0
H973 H 0.13841 0.84428 0.35095 0.0
C974 C 0.20827 0.88365 0.31948 0.0
C975 C 0.19654 0.8876 0.29391 0.0
C976 C 0.19658 0.89023 0.33869 0.0
C977 C 0.17287 0.90076 0.33275 0.0
C978 C 0.16149 0.90534 0.30726 0.0
H979 H 0.05191 0.90698 0.42576 0.0
H980 H 0.07715 0.89618 0.39551 0.0
C981 C 0.17315 0.89876 0.28803 0.0
C982 C 0.15989 0.90704 0.35306 0.0
H983 H 0.12342 0.8729 0.40362 0.0
C984 C 0.16048 0.93697 0.35377 0.0
C985 C 0.14624 0.8836 0.37116 0.0
C986 C 0.14391 0.8508 0.37067 0.0
C987 C 0.14783 0.94411 0.37214 0.0
C988 C 0.13454 0.92075 0.39045 0.0
C989 C 0.13389 0.89081 0.38971 0.0
C990 C 0.11983 0.9266 0.40971 0.0
C991 C 0.14809 0.97641 0.3714 0.0
C992 C 0.13558 0.94684 0.4281 0.0
C993 C 0.12121 0.95311 0.44551 0.0
C994 C 0.09081 0.93918 0.44485 0.0
C995 C 0.07529 0.91827 0.42679 0.0
C996 C 0.08968 0.912 0.40947 0.0
H997 H 0.1535 0.98989 0.35307 0.0
H998 H 0.12659 0.97638 0.37454 0.0
H999 H 0.16475 0.98812 0.38672 0.0
H1000 H 0.15896 0.95795 0.42888 0.0
H1001 H 0.13389 0.96923 0.45919 0.0
H1002 H 0.17922 0.81573 0.60917 0.0
H1003 H 0.1288 0.80789 0.59162 0.0
H1004 H 0.09999 0.73865 0.65279 0.0
H1005 H 0.15099 0.74673 0.67077 0.0
H1006 H 0.07416 0.76421 0.5781 0.0
H1007 H 0.07967 0.80933 0.66947 0.0
H1008 H 0.11205 0.80678 0.66088 0.0
H1009 H 0.08298 0.77252 0.66947 0.0
C1010 C 0.16227 0.79784 0.61832 0.0
C1011 C 0.16896 0.78256 0.64174 0.0
C1012 C 0.13333 0.79332 0.60826 0.0
C1013 C 0.11067 0.77342 0.6214 0.0
C1014 C 0.1172 0.75472 0.64276 0.0
H1015 H 0.99467 0.8674 0.54128 0.0
H1016 H 0.99755 0.82133 0.56797 0.0
C1017 C 0.1463 0.75938 0.65298 0.0
C1018 C 0.08226 0.77826 0.6156 0.0
H1019 H 0.0536 0.82641 0.63369 0.0
C1020 C 0.06846 0.77662 0.59049 0.0
C1021 C 0.07457 0.794 0.63204 0.0
C1022 C 0.08797 0.79588 0.65949 0.0
C1023 C 0.05128 0.79473 0.58022 0.0
C1024 C 0.04751 0.81427 0.59578 0.0
C1025 C 0.05702 0.8117 0.62184 0.0
C1026 C 0.04224 0.84278 0.58454 0.0
C1027 C 0.04075 0.79592 0.55213 0.0
C1028 C 0.06575 0.87053 0.5864 0.0
C1029 C 0.06422 0.89688 0.57134 0.0
C1030 C 0.03916 0.89585 0.55402 0.0
C1031 C 1.01457 0.86877 0.55404 0.0
C1032 C 1.0161 0.84238 0.56925 0.0
H1033 H 0.04608 0.7796 0.54271 0.0
H1034 H 1.01674 0.79027 0.54884 0.0
H1035 H 0.0508 0.81938 0.54305 0.0
H1036 H 0.08612 0.87132 0.59822 0.0
H1037 H 0.08338 0.9174 0.57206 0.0
H1038 H 0.18944 0.1713 0.70695 0.0
H1039 H 0.17237 0.12984 0.6793 0.0
H1040 H 0.25885 0.12435 0.69096 0.0
H1041 H 0.27607 0.16684 0.71796 0.0
H1042 H 0.23973 0.12423 0.64349 0.0
H1043 H 0.15145 0.03973 0.69112 0.0
H1044 H 0.14537 0.07551 0.68697 0.0
H1045 H 0.17783 0.07192 0.70661 0.0
C1046 C 0.20455 0.16077 0.7039 0.0
C1047 C 0.23384 0.17173 0.71457 0.0
C1048 C 0.19481 0.13691 0.68833 0.0
C1049 C 0.21412 0.12327 0.68356 0.0
C1050 C 0.24346 0.13416 0.69459 0.0
H1051 H 0.10003 0.9988 0.57579 0.0
H1052 H 0.14166 0.00957 0.60981 0.0
C1053 C 0.25326 0.15833 0.70996 0.0
C1054 C 0.20404 0.10009 0.66492 0.0
H1055 H 0.14338 0.04171 0.6443 0.0
C1056 C 0.21906 0.10558 0.64402 0.0
C1057 C 0.17783 0.07477 0.6659 0.0
C1058 C 0.16248 0.06498 0.68907 0.0
C1059 C 0.20666 0.08895 0.62281 0.0
C1060 C 0.17812 0.06716 0.62213 0.0
C1061 C 0.16493 0.05896 0.64433 0.0
C1062 C 0.15923 0.05804 0.59784 0.0
C1063 C 0.22374 0.09607 0.60086 0.0
C1064 C 0.15615 0.08122 0.57897 0.0
C1065 C 0.1327 0.07505 0.55961 0.0
C1066 C 0.11157 0.04567 0.55882 0.0
C1067 C 0.11614 0.02164 0.57596 0.0
C1068 C 0.13982 0.02784 0.59548 0.0
H1069 H 0.24713 0.09983 0.6079 0.0
H1070 H 0.21537 0.07741 0.58813 0.0
H1071 H 0.22254 0.11764 0.58984 0.0
H1072 H 0.17013 0.10482 0.58049 0.0
H1073 H 0.12969 0.09395 0.54655 0.0
H1074 H 0.88917 0.18458 0.70414 0.0
H1075 H 0.90523 0.16964 0.66952 0.0
H1076 H 0.86685 0.07449 0.69601 0.0
H1077 H 0.85038 0.0892 0.7306 0.0
H1078 H 0.92366 0.09014 0.68588 0.0
H1079 H 0.85619 0.13164 0.60521 0.0
H1080 H 0.8772 0.16008 0.62653 0.0
H1081 H 0.84886 0.12655 0.63747 0.0
C1082 C 0.88375 0.16044 0.70242 0.0
C1083 C 0.86835 0.13808 0.72011 0.0
C1084 C 0.89293 0.15195 0.68258 0.0
C1085 C 0.8868 0.12094 0.67993 0.0
C1086 C 0.87167 0.09855 0.69764 0.0
H1087 H 0.91824 0.04904 0.55142 0.0
H1088 H 0.89495 0.06046 0.58316 0.0
C1089 C 0.86244 0.10702 0.71749 0.0
C1090 C 0.8974 0.11197 0.65937 0.0
H1091 H 0.89471 0.11828 0.59508 0.0
C1092 C 0.91716 0.09608 0.66603 0.0
C1093 C 0.88861 0.11942 0.63346 0.0
C1094 C 0.86633 0.1351 0.62516 0.0
C1095 C 0.9291 0.0883 0.64751 0.0
C1096 C 0.92134 0.09697 0.62167 0.0
C1097 C 0.90084 0.11195 0.61493 0.0
C1098 C 0.93498 0.09135 0.60153 0.0
C1099 C 0.94995 0.07084 0.65576 0.0
C1100 C 0.96503 0.10559 0.60094 0.0
C1101 C 0.97839 0.09921 0.58289 0.0
C1102 C 0.96195 0.07848 0.56491 0.0
C1103 C 0.9316 0.06504 0.56499 0.0
C1104 C 0.91824 0.07151 0.58311 0.0
H1105 H 0.94781 0.0592 0.6752 0.0
H1106 H 0.94622 0.05342 0.64257 0.0
H1107 H 0.97265 0.08704 0.65573 0.0
H1108 H 0.97825 0.12142 0.61469 0.0
H1109 H 1.00174 0.11022 0.58335 0.0
H1110 H 0.85003 0.84027 0.71928 0.0
H1111 H 0.88454 0.86334 0.68869 0.0
H1112 H 0.87686 0.77327 0.67292 0.0
H1113 H 0.84141 0.75025 0.70288 0.0
H1114 H 0.93625 0.86185 0.68054 0.0
H1115 H 0.84799 0.80764 0.60478 0.0
H1116 H 0.84133 0.80654 0.63667 0.0
H1117 H 0.85801 0.78133 0.62917 0.0
C1118 C 0.85641 0.8255 0.70983 0.0
C1119 C 0.84332 0.79363 0.71334 0.0
C1120 C 0.87599 0.83862 0.69227 0.0
C1121 C 0.88278 0.81999 0.67814 0.0
C1122 C 0.87135 0.78805 0.68314 0.0
H1123 H 1.00113 0.92471 0.56614 0.0
H1124 H 0.98182 0.88467 0.59949 0.0
C1125 C 0.85134 0.77495 0.70033 0.0
C1126 C 0.89943 0.83421 0.65664 0.0
H1127 H 0.8921 0.84094 0.59209 0.0
C1128 C 0.92684 0.85705 0.66119 0.0
C1129 C 0.88691 0.82793 0.63141 0.0
C1130 C 0.85687 0.80474 0.62509 0.0
C1131 C 0.94144 0.87492 0.64115 0.0
C1132 C 0.92853 0.86914 0.61594 0.0
C1133 C 0.90194 0.84513 0.61146 0.0
C1134 C 0.93974 0.89049 0.59404 0.0
C1135 C 0.96953 0.90106 0.64711 0.0
C1136 C 0.92202 0.90587 0.57911 0.0
C1137 C 0.9327 0.92808 0.55971 0.0
C1138 C 0.96144 0.93553 0.55488 0.0
C1139 C 0.97883 0.91927 0.56921 0.0
C1140 C 0.96797 0.8967 0.58852 0.0
H1141 H 0.97372 0.9057 0.6673 0.0
H1142 H 0.98801 0.8953 0.64313 0.0
H1143 H 0.96912 0.92232 0.63509 0.0
H1144 H 0.90013 0.90136 0.583 0.0
H1145 H 0.91863 0.94001 0.54899 0.0
H1146 H 0.25794 0.09927 0.13418 0.0
H1147 H 0.28896 0.08259 0.11369 0.0
H1148 H 0.35793 0.16958 0.12269 0.0
H1149 H 0.32692 0.18663 0.143 0.0
H1150 H 0.31364 0.10965 0.06938 0.0
H1151 H 0.39929 0.10765 0.15112 0.0
H1152 H 0.36437 0.10909 0.15472 0.0
H1153 H 0.39233 0.14315 0.14407 0.0
C1154 C 0.27968 0.11494 0.13177 0.0
C1155 C 0.28988 0.14435 0.14025 0.0
C1156 C 0.29744 0.10529 0.12015 0.0
C1157 C 0.32588 0.12468 0.1169 0.0
C1158 C 0.33626 0.15398 0.12545 0.0
H1159 H 0.46353 0.11097 0.04586 0.0
H1160 H 0.43314 0.12689 0.06769 0.0
C1161 C 0.31849 0.16369 0.13708 0.0
C1162 C 0.34418 0.11457 0.10371 0.0
H1163 H 0.40811 0.10027 0.11126 0.0
C1164 C 0.33424 0.10746 0.07856 0.0
C1165 C 0.37108 0.11182 0.11569 0.0
C1166 C 0.38237 0.11806 0.14296 0.0
C1167 C 0.35068 0.09816 0.06492 0.0
C1168 C 0.37755 0.09529 0.07693 0.0
C1169 C 0.3875 0.10243 0.10208 0.0
C1170 C 0.39583 0.08527 0.06363 0.0
C1171 C 0.33947 0.09224 0.03758 0.0
C1172 C 0.3851 0.05637 0.05431 0.0
C1173 C 0.40241 0.04716 0.04171 0.0
C1174 C 0.43093 0.06659 0.03833 0.0
C1175 C 0.44169 0.09538 0.04801 0.0
C1176 C 0.42435 0.10455 0.06056 0.0
H1177 H 0.32287 0.10308 0.02942 0.0
H1178 H 0.35755 0.10098 0.0259 0.0
H1179 H 0.32909 0.0672 0.03631 0.0
H1180 H 0.36337 0.04082 0.05692 0.0
H1181 H 0.39344 0.02476 0.0347 0.0
H1182 H 0.80069 0.29136 0.16645 0.0
H1183 H 0.84173 0.32232 0.14377 0.0
H1184 H 0.89799 0.33969 0.21495 0.0
H1185 H 0.85654 0.30916 0.23765 0.0
H1186 H 0.90353 0.39177 0.18461 0.0
H1187 H 0.91141 0.30746 0.12752 0.0
H1188 H 0.87457 0.30477 0.12844 0.0
H1189 H 0.89686 0.29722 0.15718 0.0
C1190 C 0.82203 0.30114 0.17718 0.0
C1191 C 0.82574 0.29696 0.20373 0.0
C1192 C 0.84556 0.3187 0.16422 0.0
C1193 C 0.87333 0.33276 0.17754 0.0
C1194 C 0.877 0.32869 0.20417 0.0
H1195 H 1.0064 0.43529 0.07655 0.0
H1196 H 0.98544 0.40043 0.11258 0.0
C1197 C 0.85341 0.31101 0.21714 0.0
C1198 C 0.89749 0.35399 0.1636 0.0
H1199 H 0.93212 0.35994 0.11278 0.0
C1200 C 0.91011 0.38464 0.16918 0.0
C1201 C 0.90693 0.3448 0.1439 0.0
C1202 C 0.89699 0.3117 0.13894 0.0
C1203 C 0.93026 0.40656 0.15456 0.0
C1204 C 0.93738 0.39792 0.13322 0.0
C1205 C 0.92637 0.36688 0.12877 0.0
C1206 C 0.95307 0.421 0.11369 0.0
C1207 C 0.94339 0.43888 0.16205 0.0
C1208 C 0.94218 0.44427 0.10241 0.0
C1209 C 0.95416 0.46411 0.08218 0.0
C1210 C 0.97718 0.46109 0.07218 0.0
C1211 C 0.98887 0.43841 0.08388 0.0
C1212 C 0.97677 0.41839 0.10438 0.0
H1213 H 0.94577 0.43905 0.18291 0.0
H1214 H 0.9651 0.45097 0.15576 0.0
H1215 H 0.92862 0.45175 0.15336 0.0
H1216 H 0.92345 0.44639 0.10852 0.0
H1217 H 0.94454 0.48129 0.07378 0.0
H1218 H 0.75791 0.83681 0.22519 0.0
H1219 H 0.73405 0.87036 0.19752 0.0
H1220 H 0.66419 0.79087 0.17069 0.0
H1221 H 0.68794 0.75762 0.19788 0.0
H1222 H 0.71378 0.87464 0.14226 0.0
H1223 H 0.62202 0.8385 0.19838 0.0
H1224 H 0.65599 0.83209 0.21037 0.0
H1225 H 0.62918 0.80739 0.1886 0.0
C1226 C 0.73779 0.82656 0.21298 0.0
C1227 C 0.72512 0.79444 0.21348 0.0
C1228 C 0.72399 0.84577 0.19727 0.0
C1229 C 0.69692 0.8333 0.18213 0.0
C1230 C 0.68473 0.80127 0.18233 0.0
H1231 H 0.56341 0.88885 0.08046 0.0
H1232 H 0.5927 0.86364 0.11064 0.0
C1233 C 0.69849 0.7822 0.19782 0.0
C1234 C 0.68076 0.85324 0.16659 0.0
H1235 H 0.61606 0.86668 0.15858 0.0
C1236 C 0.69256 0.87317 0.146 0.0
C1237 C 0.65292 0.85141 0.17121 0.0
C1238 C 0.6393 0.83142 0.19346 0.0
C1239 C 0.67695 0.89022 0.12951 0.0
C1240 C 0.64885 0.8881 0.13394 0.0
C1241 C 0.63742 0.86858 0.15489 0.0
C1242 C 0.63038 0.90461 0.11655 0.0
C1243 C 0.69028 0.90926 0.1068 0.0
C1244 C 0.64089 0.93656 0.11017 0.0
C1245 C 0.62399 0.95123 0.09272 0.0
C1246 C 0.59584 0.93449 0.08124 0.0
C1247 C 0.58483 0.90279 0.08874 0.0
C1248 C 0.60175 0.88817 0.10607 0.0
H1249 H 0.70754 0.90189 0.10219 0.0
H1250 H 0.67349 0.90786 0.08988 0.0
H1251 H 0.70047 0.93355 0.11094 0.0
H1252 H 0.66241 0.95025 0.11842 0.0
H1253 H 0.63345 0.97559 0.08759 0.0
H1254 H 0.25297 0.76162 0.16096 0.0
H1255 H 0.23879 0.7388 0.1207 0.0
H1256 H 0.21273 0.64854 0.16071 0.0
H1257 H 0.22746 0.67101 0.20102 0.0
H1258 H 0.24257 0.65296 0.11991 0.0
H1259 H 0.15311 0.70168 0.09253 0.0
H1260 H 0.18923 0.72881 0.09907 0.0
H1261 H 0.17272 0.70202 0.12414 0.0
C1262 C 0.24418 0.7369 0.1612 0.0
C1263 C 0.24092 0.71809 0.18416 0.0
C1264 C 0.23621 0.72394 0.13819 0.0
C1265 C 0.22447 0.69203 0.13779 0.0
C1266 C 0.22186 0.67323 0.16067 0.0
H1267 H 0.11572 0.54924 0.05838 0.0
H1268 H 0.16023 0.5814 0.08193 0.0
C1269 C 0.23006 0.68613 0.18367 0.0
C1270 C 0.21272 0.67796 0.11368 0.0
H1271 H 0.15581 0.66846 0.06604 0.0
C1272 C 0.22388 0.65665 0.10782 0.0
C1273 C 0.18849 0.68302 0.09793 0.0
C1274 C 0.17497 0.70492 0.10372 0.0
C1275 C 0.21052 0.63918 0.08719 0.0
C1276 C 0.18528 0.64301 0.07235 0.0
C1277 C 0.17532 0.6657 0.07732 0.0
C1278 C 0.16588 0.62103 0.05433 0.0
C1279 C 0.22308 0.6163 0.08192 0.0
C1280 C 0.15506 0.63204 0.03037 0.0
C1281 C 0.12922 0.61388 0.01717 0.0
C1282 C 0.11404 0.5844 0.02768 0.0
C1283 C 0.12696 0.57194 0.04992 0.0
C1284 C 0.15261 0.59029 0.06332 0.0
H1285 H 0.24708 0.62411 0.08767 0.0
H1286 H 0.21346 0.5942 0.09317 0.0
H1287 H 0.21825 0.61232 0.06156 0.0
H1288 H 0.16502 0.65564 0.02306 0.0
H1289 H 0.1199 0.62381 0.99979 0.0
H1290 H 0.35328 0.77891 0.83353 0.0
H1291 H 0.37185 0.7994 0.8745 0.0
H1292 H 0.2843 0.78738 0.88562 0.0
H1293 H 0.266 0.76885 0.84404 0.0
H1294 H 0.3155 0.84202 0.89179 0.0
H1295 H 0.37732 0.77201 0.94724 0.0
H1296 H 0.38997 0.78395 0.91707 0.0
H1297 H 0.35259 0.75955 0.91889 0.0
C1298 C 0.33794 0.77993 0.84496 0.0
C1299 C 0.30831 0.77296 0.83532 0.0
C1300 C 0.34852 0.79137 0.86858 0.0
C1301 C 0.32945 0.79483 0.88331 0.0
C1302 C 0.29947 0.7851 0.87462 0.0
H1303 H 0.4392 0.891 0.00987 0.0
H1304 H 0.39455 0.85371 0.99059 0.0
C1305 C 0.28905 0.77449 0.85079 0.0
C1306 C 0.34122 0.81284 0.90553 0.0
H1307 H 0.39613 0.82645 0.95496 0.0
C1308 C 0.33258 0.83809 0.90606 0.0
C1309 C 0.36285 0.80742 0.92467 0.0
C1310 C 0.37088 0.779 0.92706 0.0
C1311 C 0.34681 0.85948 0.9238 0.0
C1312 C 0.37108 0.85621 0.94073 0.0
C1313 C 0.3779 0.82948 0.9417 0.0
C1314 C 0.39213 0.88165 0.95497 0.0
C1315 C 0.33607 0.88569 0.92367 0.0
C1316 C 0.40462 0.91054 0.94198 0.0
C1317 C 0.42956 0.93219 0.9533 0.0
C1318 C 0.44288 0.92482 0.97739 0.0
C1319 C 0.42923 0.89702 0.99117 0.0
C1320 C 0.40382 0.87572 0.98014 0.0
H1321 H 0.31192 0.87801 0.91908 0.0
H1322 H 0.34252 0.89554 0.94218 0.0
H1323 H 0.34514 0.90389 0.9087 0.0
H1324 H 0.39667 0.9155 0.92234 0.0
H1325 H 0.43998 0.95339 0.94227 0.0
H1326 H 0.17312 0.25265 0.90719 0.0
H1327 H 0.16121 0.28913 0.927 0.0
H1328 H 0.15352 0.34109 0.85459 0.0
H1329 H 0.16375 0.30382 0.83435 0.0
H1330 H 0.18684 0.35057 0.93069 0.0
H1331 H 0.07554 0.325 0.87671 0.0
H1332 H 0.09761 0.30186 0.87662 0.0
H1333 H 0.10411 0.33772 0.8572 0.0
C1334 C 0.16855 0.2716 0.89537 0.0
C1335 C 0.16904 0.27495 0.86906 0.0
C1336 C 0.16206 0.29266 0.9068 0.0
C1337 C 0.15598 0.31758 0.89223 0.0
C1338 C 0.15753 0.32169 0.86615 0.0
H1339 H 0.1341 0.46422 0.96281 0.0
H1340 H 0.15394 0.43687 0.93976 0.0
C1341 C 0.16377 0.3005 0.85465 0.0
C1342 C 0.14718 0.33862 0.90432 0.0
H1343 H 0.09098 0.36439 0.90382 0.0
C1344 C 0.16593 0.35372 0.92478 0.0
C1345 C 0.11977 0.34249 0.89672 0.0
C1346 C 0.09795 0.32572 0.87578 0.0
C1347 C 0.15784 0.3722 0.93805 0.0
C1348 C 0.13049 0.37615 0.93034 0.0
C1349 C 0.11202 0.36151 0.9096 0.0
C1350 C 0.11938 0.3932 0.94466 0.0
C1351 C 0.17814 0.38633 0.9608 0.0
C1352 C 0.09317 0.37795 0.9547 0.0
C1353 C 0.08166 0.39351 0.96752 0.0
C1354 C 0.09608 0.4248 0.97072 0.0
C1355 C 0.12252 0.4401 0.96083 0.0
C1356 C 0.13397 0.42446 0.94776 0.0
H1357 H 0.19505 0.37554 0.96757 0.0
H1358 H 0.1894 0.41105 0.9556 0.0
H1359 H 0.16584 0.38422 0.97661 0.0
H1360 H 0.08153 0.35385 0.95258 0.0
H1361 H 0.06135 0.38086 0.97496 0.0
H1362 H 0.74618 0.22081 0.81868 0.0
H1363 H 0.7156 0.18924 0.85034 0.0
H1364 H 0.64699 0.14993 0.7908 0.0
H1365 H 0.67743 0.18209 0.75908 0.0
H1366 H 0.62601 0.16839 0.82542 0.0
H1367 H 0.694 0.10031 0.87562 0.0
H1368 H 0.71298 0.14092 0.87368 0.0
H1369 H 0.70016 0.12165 0.84526 0.0
C1370 C 0.72495 0.20483 0.81232 0.0
C1371 C 0.71442 0.2035 0.78635 0.0
C1372 C 0.70737 0.18675 0.83049 0.0
C1373 C 0.67896 0.16683 0.82308 0.0
C1374 C 0.66877 0.16504 0.79709 0.0
H1375 H 0.57342 0.02317 0.92091 0.0
H1376 H 0.59858 0.05397 0.88572 0.0
C1377 C 0.68624 0.18325 0.77896 0.0
C1378 C 0.65924 0.14911 0.84221 0.0
H1379 H 0.65317 0.09675 0.8942 0.0
C1380 C 0.63194 0.15265 0.84041 0.0
C1381 C 0.66679 0.12847 0.86181 0.0
C1382 C 0.69497 0.12233 0.8642 0.0
C1383 C 0.61216 0.13621 0.85757 0.0
C1384 C 0.61994 0.1159 0.87731 0.0
C1385 C 0.6472 0.1124 0.87913 0.0
C1386 C 0.60007 0.09726 0.89598 0.0
C1387 C 0.58285 0.14019 0.85412 0.0
C1388 C 0.59147 0.11115 0.91301 0.0
C1389 C 0.57659 0.09338 0.933 0.0
C1390 C 0.57016 0.06154 0.93619 0.0
C1391 C 0.57749 0.04761 0.91845 0.0
C1392 C 0.59216 0.06524 0.89851 0.0
H1393 H 0.5775 0.15077 0.83486 0.0
H1394 H 0.5653 0.11785 0.85741 0.0
H1395 H 0.58314 0.15537 0.86808 0.0
H1396 H 0.59779 0.13584 0.91181 0.0
H1397 H 0.57204 0.10471 0.94694 0.0
H1398 H 0.84423 0.73719 0.78078 0.0
H1399 H 0.87965 0.71655 0.80846 0.0
H1400 H 0.80894 0.63742 0.83213 0.0
H1401 H 0.77376 0.65809 0.80494 0.0
H1402 H 0.88562 0.69719 0.86318 0.0
H1403 H 0.86126 0.60021 0.80615 0.0
H1404 H 0.85098 0.63338 0.7941 0.0
H1405 H 0.82972 0.60395 0.8152 0.0
C1406 C 0.83626 0.71567 0.79224 0.0
C1407 C 0.80602 0.69962 0.79097 0.0
C1408 C 0.85656 0.70372 0.80797 0.0
C1409 C 0.84719 0.67508 0.82234 0.0
C1410 C 0.81699 0.65928 0.82112 0.0
H1411 H 0.91945 0.54919 0.92373 0.0
H1412 H 0.89055 0.5748 0.89348 0.0
C1413 C 0.7968 0.67124 0.80561 0.0
C1414 C 0.8686 0.66127 0.83832 0.0
H1415 H 0.88995 0.59834 0.84627 0.0
C1416 C 0.88676 0.67572 0.85933 0.0
C1417 C 0.87023 0.63313 0.83359 0.0
C1418 C 0.85223 0.61681 0.81093 0.0
C1419 C 0.90549 0.66239 0.87607 0.0
C1420 C 0.90699 0.63403 0.87146 0.0
C1421 C 0.88912 0.61994 0.85012 0.0
C1422 C 0.92582 0.61793 0.88894 0.0
C1423 C 0.92247 0.67831 0.89921 0.0
C1424 C 0.95595 0.63279 0.89615 0.0
C1425 C 0.97273 0.61806 0.91368 0.0
C1426 C 0.96007 0.58776 0.92439 0.0
C1427 C 0.93029 0.57241 0.91605 0.0
C1428 C 0.91353 0.5872 0.89868 0.0
H1429 H 0.91272 0.69436 0.90389 0.0
H1430 H 0.92346 0.66153 0.91593 0.0
H1431 H 0.94506 0.69184 0.89553 0.0
H1432 H 0.96655 0.65605 0.88847 0.0
H1433 H 0.99548 0.63084 0.91944 0.0
H1434 H 0.20197 0.2774 0.22437 0.0
H1435 H 0.1676 0.2986 0.19561 0.0
H1436 H 0.24014 0.3742 0.17013 0.0
H1437 H 0.27405 0.35257 0.1978 0.0
H1438 H 0.15656 0.35072 0.19295 0.0
H1439 H 0.19508 0.3527 0.10295 0.0
H1440 H 0.20614 0.33234 0.13175 0.0
H1441 H 0.22465 0.37288 0.12531 0.0
C1442 C 0.21051 0.29808 0.21209 0.0
C1443 C 0.24091 0.3127 0.21288 0.0
C1444 C 0.19081 0.31047 0.19578 0.0
C1445 C 0.20093 0.3379 0.17992 0.0
C1446 C 0.23133 0.35258 0.1812 0.0
H1447 H 0.13498 0.46956 0.07955 0.0
H1448 H 0.16273 0.44218 0.10938 0.0
C1449 C 0.25086 0.34021 0.19729 0.0
C1450 C 0.18023 0.3521 0.16286 0.0
H1451 H 0.16705 0.38499 0.10255 0.0
C1452 C 0.1587 0.35781 0.17311 0.0
C1453 C 0.18249 0.36153 0.13675 0.0
C1454 C 0.20312 0.35425 0.12349 0.0
C1455 C 0.14054 0.37347 0.15849 0.0
C1456 C 0.14363 0.38383 0.1327 0.0
C1457 C 0.16469 0.37756 0.12233 0.0
C1458 C 0.12567 0.40148 0.11614 0.0
C1459 C 0.11876 0.37971 0.17103 0.0
C1460 C 0.09518 0.38828 0.10994 0.0
C1461 C 0.07905 0.404 0.09265 0.0
C1462 C 0.09285 0.43355 0.08103 0.0
C1463 C 0.12324 0.44709 0.08808 0.0
C1464 C 0.13933 0.43127 0.10513 0.0
H1465 H 0.1231 0.37616 0.192 0.0
H1466 H 0.11902 0.40353 0.16549 0.0
H1467 H 0.09655 0.36393 0.16474 0.0
H1468 H 0.0839 0.36525 0.11772 0.0
H1469 H 0.05586 0.39245 0.08767 0.0
H1470 H 0.25418 0.71962 0.82949 0.0
H1471 H 0.21417 0.69225 0.85405 0.0
H1472 H 0.15905 0.65666 0.78617 0.0
H1473 H 0.19941 0.68492 0.76149 0.0
H1474 H 0.15996 0.69533 0.85155 0.0
H1475 H 0.15084 0.5791 0.8325 0.0
H1476 H 0.18084 0.61289 0.82439 0.0
H1477 H 0.14593 0.60434 0.80489 0.0
C1478 C 0.23324 0.70702 0.81968 0.0
C1479 C 0.22932 0.70609 0.79338 0.0
C1480 C 0.21041 0.69091 0.83378 0.0
C1481 C 0.1834 0.67233 0.82208 0.0
C1482 C 0.17967 0.67058 0.79578 0.0
H1483 H 0.04196 0.54765 0.90881 0.0
H1484 H 0.0645 0.58021 0.87232 0.0
C1485 C 0.20257 0.68706 0.78162 0.0
C1486 C 0.15974 0.65459 0.83781 0.0
H1487 H 0.11971 0.58182 0.85933 0.0
C1488 C 0.15089 0.67052 0.85294 0.0
C1489 C 0.14771 0.62215 0.83972 0.0
C1490 C 0.15691 0.60351 0.8247 0.0
C1491 C 0.1313 0.65501 0.87041 0.0
C1492 C 0.12035 0.6226 0.87314 0.0
C1493 C 0.12796 0.60665 0.85715 0.0
C1494 C 0.10474 0.60501 0.89484 0.0
C1495 C 0.12305 0.67347 0.88632 0.0
C1496 C 0.11966 0.60826 0.91952 0.0
C1497 C 0.10706 0.58968 0.94007 0.0
C1498 C 0.07905 0.56742 0.93659 0.0
C1499 C 0.06342 0.56486 0.91204 0.0
C1500 C 0.07635 0.58331 0.89124 0.0
H1501 H 0.12544 0.69679 0.87687 0.0
H1502 H 0.10025 0.66193 0.89034 0.0
H1503 H 0.13773 0.67599 0.90464 0.0
H1504 H 0.14169 0.62439 0.92284 0.0
H1505 H 0.11966 0.59212 0.95876 0.0
H1506 H 0.35674 0.25174 0.81201 0.0
H1507 H 0.37941 0.21782 0.83944 0.0
H1508 H 0.30777 0.1393 0.81302 0.0
H1509 H 0.2855 0.17357 0.78466 0.0
H1510 H 0.36495 0.17708 0.8782 0.0
H1511 H 0.37417 0.11578 0.80188 0.0
H1512 H 0.36353 0.1493 0.79526 0.0
H1513 H 0.3375 0.11257 0.80397 0.0
C1514 C 0.34565 0.22722 0.81214 0.0
C1515 C 0.31905 0.2155 0.79634 0.0
C1516 C 0.3587 0.20772 0.8279 0.0
C1517 C 0.34584 0.17569 0.82825 0.0
C1518 C 0.31878 0.1638 0.81285 0.0
H1519 H 0.41013 0.03398 0.92155 0.0
H1520 H 0.38076 0.05996 0.89167 0.0
C1521 C 0.30571 0.18344 0.79689 0.0
C1522 C 0.36116 0.15542 0.84475 0.0
H1523 H 0.39045 0.09963 0.8438 0.0
C1524 C 0.37042 0.16016 0.87054 0.0
C1525 C 0.36853 0.13307 0.83513 0.0
C1526 C 0.36069 0.12748 0.80752 0.0
C1527 C 0.38673 0.1437 0.88666 0.0
C1528 C 0.39452 0.1218 0.87696 0.0
C1529 C 0.38467 0.11638 0.85137 0.0
C1530 C 0.41351 0.10515 0.89306 0.0
C1531 C 0.39542 0.14984 0.91414 0.0
C1532 C 0.44231 0.1214 0.90317 0.0
C1533 C 0.45933 0.10655 0.92005 0.0
C1534 C 0.44814 0.07484 0.92753 0.0
C1535 C 0.41977 0.0583 0.91631 0.0
C1536 C 0.40278 0.07322 0.89924 0.0
H1537 H 0.38197 0.16135 0.92009 0.0
H1538 H 0.39332 0.12823 0.92655 0.0
H1539 H 0.41857 0.16505 0.91706 0.0
H1540 H 0.45147 0.14589 0.89847 0.0
H1541 H 0.48094 0.12032 0.92808 0.0
H1542 H 0.8004 0.25738 0.84947 0.0
H1543 H 0.81631 0.28321 0.88827 0.0
H1544 H 0.82587 0.37008 0.84421 0.0
H1545 H 0.80961 0.34451 0.8054 0.0
H1546 H 0.86951 0.32458 0.898 0.0
H1547 H 0.78807 0.37809 0.90189 0.0
H1548 H 0.78101 0.348 0.88187 0.0
H1549 H 0.80112 0.3871 0.87178 0.0
C1550 C 0.80562 0.28195 0.84804 0.0
C1551 C 0.8041 0.29896 0.82434 0.0
C1552 C 0.81442 0.29661 0.87024 0.0
C1553 C 0.82172 0.32848 0.86915 0.0
C1554 C 0.8195 0.34538 0.84555 0.0
H1555 H 0.9396 0.4738 0.94589 0.0
H1556 H 0.89542 0.44165 0.92158 0.0
C1557 C 0.81058 0.33074 0.82335 0.0
C1558 C 0.83584 0.34458 0.89208 0.0
H1559 H 0.83596 0.40061 0.92562 0.0
C1560 C 0.86181 0.34065 0.90446 0.0
C1561 C 0.82579 0.36568 0.90027 0.0
C1562 C 0.7973 0.36975 0.88839 0.0
C1563 C 0.87901 0.35853 0.92383 0.0
C1564 C 0.86956 0.38047 0.93146 0.0
C1565 C 0.84298 0.38363 0.9198 0.0
C1566 C 0.88895 0.40234 0.94947 0.0
C1567 C 0.90806 0.35505 0.93481 0.0
C1568 C 0.89846 0.39158 0.97397 0.0
C1569 C 0.92399 0.40964 0.98763 0.0
C1570 C 0.93984 0.43887 0.97714 0.0
C1571 C 0.92788 0.45124 0.9543 0.0
C1572 C 0.9026 0.43292 0.94041 0.0
H1573 H 0.91436 0.34124 0.92345 0.0
H1574 H 0.92559 0.37778 0.93592 0.0
H1575 H 0.90677 0.34334 0.95426 0.0
H1576 H 0.8878 0.36819 0.98142 0.0
H1577 H 0.93254 0.39984 0.00546 0.0
H1578 H 0.72544 0.87107 0.83412 0.0
H1579 H 0.6941 0.8869 0.85507 0.0
H1580 H 0.74391 0.87351 0.92743 0.0
H1581 H 0.77447 0.85642 0.90684 0.0
H1582 H 0.68591 0.85059 0.92975 0.0
H1583 H 0.71583 0.96903 0.88263 0.0
H1584 H 0.70151 0.93994 0.86101 0.0
H1585 H 0.73559 0.94396 0.88111 0.0
C1586 C 0.72954 0.87115 0.85452 0.0
C1587 C 0.7527 0.8627 0.86874 0.0
C1588 C 0.71183 0.88062 0.86644 0.0
C1589 C 0.71704 0.88206 0.89279 0.0
C1590 C 0.73964 0.8729 0.90706 0.0
H1591 H 0.65244 0.97922 0.97975 0.0
H1592 H 0.68205 0.96196 0.95793 0.0
C1593 C 0.75725 0.86335 0.89521 0.0
C1594 C 0.69887 0.89276 0.90566 0.0
H1595 H 0.67771 0.95376 0.90798 0.0
C1596 C 0.68414 0.87316 0.92499 0.0
C1597 C 0.69691 0.92241 0.89974 0.0
C1598 C 0.71351 0.9452 0.88017 0.0
C1599 C 0.66732 0.88222 0.93839 0.0
C1600 C 0.6646 0.91149 0.93193 0.0
C1601 C 0.67958 0.93124 0.91278 0.0
C1602 C 0.64649 0.9221 0.94493 0.0
C1603 C 0.65316 0.86057 0.95973 0.0
C1604 C 0.61656 0.90573 0.94457 0.0
C1605 C 0.59962 0.9154 0.95715 0.0
C1606 C 0.61215 0.94192 0.97015 0.0
C1607 C 0.64205 0.95866 0.97003 0.0
C1608 C 0.65902 0.94885 0.95752 0.0
H1609 H 0.66396 0.84335 0.9669 0.0
H1610 H 0.6538 0.87318 0.97575 0.0
H1611 H 0.63 0.84804 0.95275 0.0
H1612 H 0.60623 0.88547 0.93447 0.0
H1613 H 0.57663 0.90207 0.95656 0.0
H1614 H 0.8364 0.70545 0.13796 0.0
H1615 H 0.85011 0.66958 0.11867 0.0
H1616 H 0.93468 0.73808 0.11175 0.0
H1617 H 0.92142 0.77377 0.13138 0.0
H1618 H 0.8685 0.67743 0.07006 0.0
H1619 H 0.95353 0.66221 0.14784 0.0
H1620 H 0.92654 0.67784 0.15204 0.0
H1621 H 0.95803 0.70158 0.13743 0.0
C1622 C 0.85803 0.71275 0.13257 0.0
C1623 C 0.87786 0.74247 0.13627 0.0
C1624 C 0.86575 0.69228 0.12143 0.0
C1625 C 0.89354 0.70103 0.11409 0.0
C1626 C 0.91328 0.73069 0.11764 0.0
H1627 H 0.99516 0.63868 0.03889 0.0
H1628 H 0.97379 0.66442 0.06144 0.0
C1629 C 0.90556 0.75118 0.12863 0.0
C1630 C 0.90188 0.67959 0.10212 0.0
H1631 H 0.95318 0.64547 0.10815 0.0
C1632 C 0.88676 0.67006 0.07849 0.0
C1633 C 0.92561 0.66992 0.11324 0.0
C1634 C 0.94172 0.67814 0.13915 0.0
C1635 C 0.89571 0.65239 0.06509 0.0
C1636 C 0.92012 0.64365 0.07584 0.0
C1637 C 0.93455 0.6523 0.09988 0.0
C1638 C 0.93239 0.62741 0.06182 0.0
C1639 C 0.87981 0.6444 0.03907 0.0
C1640 C 0.91625 0.59786 0.0546 0.0
C1641 C 0.92843 0.58294 0.04155 0.0
C1642 C 0.95704 0.59728 0.03562 0.0
C1643 C 0.97308 0.62684 0.04305 0.0
C1644 C 0.96091 0.64165 0.05602 0.0
H1645 H 0.86534 0.65797 0.03149 0.0
H1646 H 0.89552 0.64834 0.0256 0.0
H1647 H 0.86614 0.61979 0.04008 0.0
H1648 H 0.89436 0.58621 0.05927 0.0
H1649 H 0.91549 0.56015 0.03626 0.0
H1650 H 0.3044 0.78956 0.19256 0.0
H1651 H 0.33544 0.82249 0.16166 0.0
H1652 H 0.40672 0.85164 0.22183 0.0
H1653 H 0.37558 0.81859 0.25286 0.0
H1654 H 0.36546 0.88508 0.15651 0.0
H1655 H 0.44216 0.82048 0.1737 0.0
H1656 H 0.40739 0.80589 0.18535 0.0
H1657 H 0.43786 0.83406 0.20156 0.0
C1658 C 0.32647 0.80341 0.19928 0.0
C1659 C 0.33738 0.802 0.22521 0.0
C1660 C 0.34431 0.82207 0.18156 0.0
C1661 C 0.37359 0.83924 0.18933 0.0
C1662 C 0.38439 0.83821 0.21529 0.0
H1663 H 0.48162 0.986 0.09198 0.0
H1664 H 0.45773 0.95553 0.12811 0.0
C1665 C 0.36654 0.81953 0.23302 0.0
C1666 C 0.39281 0.85787 0.17022 0.0
H1667 H 0.45477 0.8663 0.14621 0.0
C1668 C 0.38503 0.88104 0.15432 0.0
C1669 C 0.41812 0.85226 0.16705 0.0
C1670 C 0.42682 0.82665 0.18263 0.0
C1671 C 0.40196 0.89893 0.13555 0.0
C1672 C 0.4277 0.89387 0.13282 0.0
C1673 C 0.4353 0.87046 0.14853 0.0
C1674 C 0.44625 0.91194 0.11307 0.0
C1675 C 0.39169 0.92259 0.11838 0.0
C1676 C 0.44935 0.89748 0.09334 0.0
C1677 C 0.46346 0.91488 0.07291 0.0
C1678 C 0.47502 0.94694 0.07208 0.0
C1679 C 0.47346 0.96125 0.09251 0.0
C1680 C 0.45942 0.94389 0.11294 0.0
H1681 H 0.3683 0.91853 0.11885 0.0
H1682 H 0.40459 0.94562 0.12467 0.0
H1683 H 0.39484 0.92267 0.09851 0.0
H1684 H 0.43944 0.87288 0.09303 0.0
H1685 H 0.46374 0.90344 0.05704 0.0
H1686 H 0.74185 0.27004 0.164 0.0
H1687 H 0.71991 0.25144 0.1223 0.0
H1688 H 0.66069 0.17056 0.15813 0.0
H1689 H 0.68293 0.18877 0.19974 0.0
H1690 H 0.72059 0.19123 0.113 0.0
H1691 H 0.61004 0.19957 0.09494 0.0
H1692 H 0.63984 0.22384 0.11532 0.0
H1693 H 0.62007 0.18529 0.12681 0.0
C1694 C 0.72336 0.24891 0.16279 0.0
C1695 C 0.71377 0.23081 0.18483 0.0
C1696 C 0.71108 0.23824 0.13907 0.0
C1697 C 0.68866 0.20979 0.13727 0.0
C1698 C 0.67772 0.1928 0.15921 0.0
H1699 H 0.60791 0.05566 0.06337 0.0
H1700 H 0.64661 0.09557 0.08643 0.0
C1701 C 0.69031 0.20317 0.18289 0.0
C1702 C 0.67895 0.19562 0.11321 0.0
H1703 H 0.61723 0.16212 0.0737 0.0
C1704 C 0.69815 0.18519 0.10412 0.0
C1705 C 0.64982 0.1884 0.10143 0.0
C1706 C 0.62876 0.20008 0.10994 0.0
C1707 C 0.68819 0.16536 0.08489 0.0
C1708 C 0.65859 0.15651 0.07434 0.0
C1709 C 0.63998 0.16892 0.08204 0.0
C1710 C 0.64525 0.1322 0.05713 0.0
C1711 C 0.70886 0.15295 0.07667 0.0
C1712 C 0.63338 0.13947 0.03245 0.0
C1713 C 0.61145 0.11679 0.01929 0.0
C1714 C 0.60093 0.08674 0.03088 0.0
C1715 C 0.61567 0.07867 0.05408 0.0
C1716 C 0.63774 0.10145 0.06726 0.0
H1717 H 0.73199 0.16581 0.08361 0.0
H1718 H 0.70388 0.12858 0.08429 0.0
H1719 H 0.70593 0.15388 0.0557 0.0
H1720 H 0.63894 0.1631 0.02442 0.0
H1721 H 0.6006 0.12342 1.00121 0.0
H1722 H 0.70098 0.66412 0.79031 0.0
H1723 H 0.6623 0.63968 0.81687 0.0
H1724 H 0.64846 0.72574 0.81397 0.0
H1725 H 0.68819 0.75039 0.78811 0.0
H1726 H 0.65273 0.70301 0.85985 0.0
H1727 H 0.57597 0.60938 0.80593 0.0
H1728 H 0.61159 0.60693 0.80892 0.0
H1729 H 0.60447 0.64017 0.79179 0.0
C1730 C 0.68916 0.67751 0.79495 0.0
C1731 C 0.69706 0.70885 0.78718 0.0
C1732 C 0.66689 0.66355 0.8099 0.0
C1733 C 0.65186 0.68065 0.81692 0.0
C1734 C 0.65948 0.712 0.80857 0.0
H1735 H 0.53131 0.56286 0.92225 0.0
H1736 H 0.54604 0.59925 0.88515 0.0
C1737 C 0.68208 0.72605 0.79388 0.0
C1738 C 0.63105 0.66653 0.83556 0.0
H1739 H 0.57896 0.59912 0.85243 0.0
C1740 C 0.63605 0.68065 0.8579 0.0
C1741 C 0.60856 0.63781 0.8329 0.0
C1742 C 0.59965 0.62297 0.80841 0.0
C1743 C 0.62123 0.6655 0.87848 0.0
C1744 C 0.60174 0.63504 0.87701 0.0
C1745 C 0.59451 0.62217 0.85384 0.0
C1746 C 0.59197 0.61497 0.89998 0.0
C1747 C 0.62743 0.68196 0.9019 0.0
C1748 C 0.61293 0.61131 0.9203 0.0
C1749 C 0.60463 0.59077 0.94129 0.0
C1750 C 0.57516 0.57321 0.94238 0.0
C1751 C 0.55407 0.57677 0.92212 0.0
C1752 C 0.56246 0.59739 0.90094 0.0
H1753 H 0.63218 0.70692 0.89682 0.0
H1754 H 0.60884 0.67299 0.913 0.0
H1755 H 0.64705 0.67904 0.91404 0.0
H1756 H 0.63594 0.62368 0.91962 0.0
H1757 H 0.6214 0.58829 0.95654 0.0
H1758 H 0.3721 0.64654 0.74161 0.0
H1759 H 0.41918 0.64235 0.76113 0.0
H1760 H 0.37624 0.5706 0.81542 0.0
H1761 H 0.32951 0.57578 0.79713 0.0
H1762 H 0.43281 0.65453 0.81434 0.0
H1763 H 0.44487 0.54605 0.80063 0.0
H1764 H 0.42359 0.5646 0.77753 0.0
H1765 H 0.40827 0.54115 0.80462 0.0
C1766 C 0.37261 0.62943 0.75742 0.0
C1767 C 0.34715 0.61213 0.76834 0.0
C1768 C 0.39949 0.62685 0.76828 0.0
C1769 C 0.4011 0.60617 0.78961 0.0
C1770 C 0.37533 0.58639 0.79867 0.0
H1771 H 0.44064 0.54806 0.92514 0.0
H1772 H 0.43194 0.56272 0.88039 0.0
C1773 C 0.34855 0.58939 0.78818 0.0
C1774 C 0.429 0.60976 0.80618 0.0
H1775 H 0.46389 0.56446 0.8426 0.0
C1776 C 0.44068 0.63546 0.82004 0.0
C1777 C 0.43941 0.58509 0.81314 0.0
C1778 C 0.42858 0.55777 0.79801 0.0
C1779 C 0.45886 0.63489 0.84315 0.0
C1780 C 0.46586 0.60819 0.85198 0.0
C1781 C 0.45807 0.58473 0.83595 0.0
C1782 C 0.47301 0.60026 0.87935 0.0
C1783 C 0.46725 0.66108 0.85931 0.0
C1784 C 0.49876 0.6171 0.89393 0.0
C1785 C 0.50372 0.60897 0.92003 0.0
C1786 C 0.48312 0.58369 0.93167 0.0
C1787 C 0.4572 0.56745 0.91692 0.0
C1788 C 0.45225 0.57566 0.89116 0.0
H1789 H 0.45889 0.67958 0.84993 0.0
H1790 H 0.45858 0.6527 0.87765 0.0
H1791 H 0.49136 0.67103 0.86342 0.0
H1792 H 0.5151 0.63615 0.88514 0.0
H1793 H 0.52393 0.62188 0.9309 0.0
H1794 H 0.29368 0.29434 0.83151 0.0
H1795 H 0.31568 0.33468 0.85934 0.0
H1796 H 0.33839 0.4013 0.79525 0.0
H1797 H 0.31637 0.36036 0.76674 0.0
H1798 H 0.38388 0.40711 0.8317 0.0
H1799 H 0.29096 0.40005 0.87708 0.0
H1800 H 0.29246 0.36237 0.87851 0.0
H1801 H 0.28608 0.38281 0.84813 0.0
C1802 C 0.30299 0.31752 0.82306 0.0
C1803 C 0.30342 0.32398 0.79679 0.0
C1804 C 0.31527 0.34075 0.83912 0.0
C1805 C 0.328 0.3712 0.8294 0.0
C1806 C 0.32829 0.37799 0.80313 0.0
H1807 H 0.44802 0.49559 0.94027 0.0
H1808 H 0.4096 0.48299 0.90392 0.0
C1809 C 0.31591 0.35456 0.7869 0.0
C1810 C 0.34382 0.39467 0.84738 0.0
H1811 H 0.33888 0.41401 0.90443 0.0
C1812 C 0.37388 0.40962 0.84712 0.0
C1813 C 0.33074 0.39825 0.86739 0.0
C1814 C 0.2982 0.38524 0.86758 0.0
C1815 C 0.39162 0.42517 0.86768 0.0
C1816 C 0.3789 0.42563 0.88894 0.0
C1817 C 0.34856 0.41324 0.8882 0.0
C1818 C 0.39729 0.43403 0.91331 0.0
C1819 C 0.42417 0.43878 0.86757 0.0
C1820 C 0.40208 0.41067 0.93108 0.0
C1821 C 0.42405 0.41773 0.95171 0.0
C1822 C 0.44139 0.44832 0.95501 0.0
C1823 C 0.43482 0.47182 0.93837 0.0
C1824 C 0.413 0.4647 0.91752 0.0
H1825 H 0.43061 0.43664 0.84947 0.0
H1826 H 0.43194 0.46341 0.87067 0.0
H1827 H 0.43537 0.42717 0.88332 0.0
H1828 H 0.39011 0.38685 0.92805 0.0
H1829 H 0.42856 0.39917 0.96423 0.0
H1830 H 0.64926 0.38339 0.77812 0.0
H1831 H 0.63427 0.39756 0.81377 0.0
H1832 H 0.7093 0.38569 0.86262 0.0
H1833 H 0.72462 0.37169 0.827 0.0
H1834 H 0.65792 0.35799 0.88384 0.0
H1835 H 0.6708 0.47806 0.84673 0.0
H1836 H 0.64825 0.45074 0.82499 0.0
H1837 H 0.68622 0.45526 0.83362 0.0
C1838 C 0.66282 0.38419 0.79635 0.0
C1839 C 0.68823 0.37653 0.79963 0.0
C1840 C 0.6542 0.39229 0.81673 0.0
C1841 C 0.6709 0.39315 0.84078 0.0
C1842 C 0.69614 0.38528 0.84421 0.0
H1843 H 0.63911 0.47527 0.96271 0.0
H1844 H 0.66301 0.46176 0.93273 0.0
C1845 C 0.70478 0.37715 0.82384 0.0
C1846 C 0.66156 0.40149 0.86245 0.0
H1847 H 0.64437 0.45779 0.88193 0.0
C1848 C 0.65518 0.37991 0.88354 0.0
C1849 C 0.65846 0.43027 0.86223 0.0
C1850 C 0.66656 0.45505 0.8408 0.0
C1851 C 0.64478 0.38592 0.904 0.0
C1852 C 0.64024 0.4141 0.90317 0.0
C1853 C 0.64762 0.43609 0.88249 0.0
C1854 C 0.62678 0.42083 0.92298 0.0
C1855 C 0.63883 0.36206 0.92633 0.0
C1856 C 0.59853 0.40225 0.92758 0.0
C1857 C 0.58483 0.40984 0.94473 0.0
C1858 C 0.59898 0.43637 0.95755 0.0
C1859 C 0.62755 0.45463 0.95328 0.0
C1860 C 0.64124 0.44699 0.93609 0.0
H1861 H 0.65157 0.34659 0.92768 0.0
H1862 H 0.64415 0.37284 0.94435 0.0
H1863 H 0.61535 0.34784 0.92401 0.0
H1864 H 0.58667 0.38233 0.91731 0.0
H1865 H 0.5628 0.39526 0.9474 0.0
H1866 H 0.76489 0.43769 0.2246 0.0
H1867 H 0.71971 0.44428 0.20192 0.0
H1868 H 0.73527 0.41796 0.13419 0.0
H1869 H 0.78044 0.41137 0.15676 0.0
H1870 H 0.71026 0.46536 0.12626 0.0
H1871 H 0.65101 0.36306 0.18682 0.0
H1872 H 0.67715 0.39421 0.20338 0.0
H1873 H 0.68939 0.3739 0.18482 0.0
C1874 C 0.75913 0.43442 0.20462 0.0
C1875 C 0.7759 0.42384 0.19239 0.0
C1876 C 0.73325 0.43783 0.19182 0.0
C1877 C 0.7239 0.43068 0.1667 0.0
C1878 C 0.74211 0.42324 0.1537 0.0
H1879 H 0.56784 0.38559 0.06296 0.0
H1880 H 0.60477 0.37923 0.09817 0.0
C1881 C 0.76803 0.41984 0.16649 0.0
C1882 C 0.69418 0.42843 0.15456 0.0
H1883 H 0.62218 0.3861 0.15667 0.0
C1884 C 0.69099 0.44823 0.13298 0.0
C1885 C 0.66921 0.40558 0.16325 0.0
C1886 C 0.6717 0.38275 0.18571 0.0
C1887 C 0.66338 0.44589 0.11978 0.0
C1888 C 0.63837 0.42343 0.1287 0.0
C1889 C 0.64147 0.40351 0.15024 0.0
C1890 C 0.60914 0.41999 0.11475 0.0
C1891 C 0.66114 0.46701 0.096 0.0
C1892 C 0.59783 0.44346 0.11393 0.0
C1893 C 0.57699 0.44717 0.09386 0.0
C1894 C 0.56705 0.42719 0.07469 0.0
C1895 C 0.57496 0.40099 0.07773 0.0
C1896 C 0.59618 0.39747 0.09772 0.0
H1897 H 0.68269 0.4796 0.08951 0.0
H1898 H 0.64619 0.45392 0.08047 0.0
H1899 H 0.65207 0.48404 0.09973 0.0
H1900 H 0.60761 0.46096 0.127 0.0
H1901 H 0.57138 0.46772 0.0917 0.0
H1902 H 0.73161 0.65092 0.23973 0.0
H1903 H 0.71106 0.61031 0.21085 0.0
H1904 H 0.72896 0.67848 0.14703 0.0
H1905 H 0.74951 0.71856 0.17524 0.0
H1906 H 0.66454 0.60235 0.17528 0.0
H1907 H 0.75797 0.61727 0.1274 0.0
H1908 H 0.76235 0.63347 0.15677 0.0
H1909 H 0.75425 0.65383 0.12682 0.0
C1910 C 0.73132 0.65715 0.21954 0.0
C1911 C 0.74211 0.68804 0.20984 0.0
C1912 C 0.7198 0.63393 0.2031 0.0
C1913 C 0.71925 0.64128 0.1768 0.0
C1914 C 0.73013 0.67207 0.16725 0.0
H1915 H 0.61873 0.61309 0.04273 0.0
H1916 H 0.65784 0.62546 0.0784 0.0
C1917 C 0.74157 0.69511 0.18352 0.0
C1918 C 0.70431 0.61779 0.15872 0.0
H1919 H 0.70961 0.60118 0.10077 0.0
C1920 C 0.67461 0.6011 0.15945 0.0
C1921 C 0.71754 0.61586 0.1382 0.0
C1922 C 0.74988 0.63085 0.13745 0.0
C1923 C 0.65714 0.58544 0.13885 0.0
C1924 C 0.66979 0.58661 0.11711 0.0
C1925 C 0.69996 0.60071 0.11738 0.0
C1926 C 0.65121 0.57828 0.09281 0.0
C1927 C 0.62479 0.57003 0.1395 0.0
C1928 C 0.63562 0.54761 0.08854 0.0
C1929 C 0.61348 0.54046 0.06794 0.0
C1930 C 0.60637 0.56394 0.05171 0.0
C1931 C 0.62361 0.59456 0.05499 0.0
C1932 C 0.64598 0.60165 0.07532 0.0
H1933 H 0.61831 0.57172 0.15771 0.0
H1934 H 0.6125 0.58057 0.12384 0.0
H1935 H 0.6183 0.54545 0.13665 0.0
H1936 H 0.63932 0.52935 0.10198 0.0
H1937 H 0.60045 0.51667 0.066 0.0
H1938 H 0.37863 0.67227 0.20054 0.0
H1939 H 0.39852 0.66197 0.16589 0.0
H1940 H 0.33984 0.56845 0.17074 0.0
H1941 H 0.31963 0.57861 0.20525 0.0
H1942 H 0.42448 0.61437 0.16844 0.0
H1943 H 0.32826 0.60099 0.09401 0.0
H1944 H 0.33359 0.62066 0.12172 0.0
H1945 H 0.32125 0.5796 0.12418 0.0
C1946 C 0.36976 0.64959 0.19407 0.0
C1947 C 0.34751 0.62626 0.20563 0.0
C1948 C 0.38122 0.64372 0.17435 0.0
C1949 C 0.37042 0.61456 0.16558 0.0
C1950 C 0.34822 0.59122 0.17702 0.0
H1951 H 0.41189 0.53113 0.05154 0.0
H1952 H 0.38912 0.54399 0.08275 0.0
C1953 C 0.3369 0.59699 0.19689 0.0
C1954 C 0.38313 0.60826 0.14508 0.0
H1955 H 0.36751 0.58956 0.08407 0.0
C1956 C 0.41212 0.60909 0.14994 0.0
C1957 C 0.36683 0.60118 0.12105 0.0
C1958 C 0.3358 0.60072 0.11472 0.0
C1959 C 0.42515 0.60248 0.13157 0.0
C1960 C 0.40897 0.59568 0.10738 0.0
C1961 C 0.37993 0.59487 0.10254 0.0
C1962 C 0.42174 0.5889 0.08706 0.0
C1963 C 0.45585 0.60195 0.13854 0.0
C1964 C 0.44713 0.61025 0.07844 0.0
C1965 C 0.46032 0.60291 0.06073 0.0
C1966 C 0.44817 0.57418 0.05094 0.0
C1967 C 0.4219 0.55344 0.05865 0.0
C1968 C 0.40885 0.56073 0.07655 0.0
H1969 H 0.46195 0.59902 0.1594 0.0
H1970 H 0.45848 0.58319 0.13009 0.0
H1971 H 0.47132 0.62402 0.13129 0.0
H1972 H 0.45704 0.63247 0.08573 0.0
H1973 H 0.48034 0.6196 0.05503 0.0
H1974 H 0.38174 0.30814 0.24677 0.0
H1975 H 0.42149 0.33243 0.22112 0.0
H1976 H 0.35914 0.31746 0.15308 0.0
H1977 H 0.31955 0.29293 0.17833 0.0
H1978 H 0.40874 0.30428 0.15005 0.0
H1979 H 0.43715 0.41861 0.18506 0.0
H1980 H 0.43848 0.38713 0.20821 0.0
H1981 H 0.40405 0.38754 0.19099 0.0
C1982 C 0.37653 0.31004 0.22633 0.0
C1983 C 0.34743 0.29903 0.21458 0.0
C1984 C 0.39927 0.3239 0.21174 0.0
C1985 C 0.39318 0.32706 0.18524 0.0
C1986 C 0.36429 0.31521 0.17353 0.0
H1987 H 0.4278 0.41993 0.04986 0.0
H1988 H 0.41454 0.38381 0.08695 0.0
C1989 C 0.34164 0.30129 0.18802 0.0
C1990 C 0.41626 0.34397 0.16923 0.0
H1991 H 0.45741 0.41679 0.14977 0.0
C1992 C 0.41999 0.32877 0.15036 0.0
C1993 C 0.43106 0.37588 0.16982 0.0
C1994 C 0.4275 0.39343 0.18947 0.0
C1995 C 0.43626 0.34504 0.13087 0.0
C1996 C 0.44899 0.37718 0.13032 0.0
C1997 C 0.44756 0.39206 0.15039 0.0
C1998 C 0.4585 0.39612 0.10699 0.0
C1999 C 0.43823 0.32807 0.1101 0.0
C2000 C 0.48767 0.41483 0.10605 0.0
C2001 C 0.49534 0.43536 0.08469 0.0
C2002 C 0.47381 0.4378 0.06441 0.0
C2003 C 0.44478 0.41856 0.06529 0.0
C2004 C 0.43724 0.39779 0.08635 0.0
H2005 H 0.43463 0.30355 0.11657 0.0
H2006 H 0.42118 0.32922 0.09389 0.0
H2007 H 0.45982 0.33863 0.1033 0.0
H2008 H 0.50427 0.41406 0.122 0.0
H2009 H 0.51775 0.4503 0.08452 0.0
H2010 H 0.82332 0.677 0.63823 0.0
H2011 H 0.85319 0.6588 0.61745 0.0
H2012 H 0.78202 0.57354 0.60761 0.0
H2013 H 0.75218 0.59131 0.62857 0.0
H2014 H 0.86951 0.60533 0.62968 0.0
H2015 H 0.80218 0.60478 0.53527 0.0
H2016 H 0.79953 0.62454 0.5604 0.0
H2017 H 0.78233 0.58371 0.56082 0.0
C2018 C 0.81412 0.65424 0.63191 0.0
C2019 C 0.78521 0.63576 0.63486 0.0
C2020 C 0.83118 0.64393 0.61992 0.0
C2021 C 0.81963 0.61505 0.61054 0.0
C2022 C 0.79114 0.5962 0.61415 0.0
H2023 H 0.88854 0.51907 0.52508 0.0
H2024 H 0.8578 0.53318 0.54826 0.0
C2025 C 0.77411 0.60643 0.62614 0.0
C2026 C 0.8373 0.60464 0.59691 0.0
H2027 H 0.83997 0.58419 0.53952 0.0
C2028 C 0.86311 0.60077 0.60996 0.0
C2029 C 0.82882 0.59854 0.5712 0.0
C2030 C 0.80184 0.60332 0.55596 0.0
C2031 C 0.88052 0.59068 0.59808 0.0
C2032 C 0.87222 0.58491 0.57227 0.0
C2033 C 0.84627 0.58853 0.55929 0.0
C2034 C 0.89073 0.57624 0.55817 0.0
C2035 C 0.90741 0.58581 0.6134 0.0
C2036 C 0.91921 0.596 0.55561 0.0
C2037 C 0.93679 0.58805 0.54244 0.0
C2038 C 0.92624 0.56019 0.53128 0.0
C2039 C 0.89744 0.54065 0.53344 0.0
C2040 C 0.87983 0.54866 0.54671 0.0
H2041 H 0.90608 0.58246 0.63403 0.0
H2042 H 0.91079 0.56564 0.60794 0.0
H2043 H 0.92677 0.60632 0.6099 0.0
H2044 H 0.92786 0.61774 0.56373 0.0
H2045 H 0.95872 0.60386 0.54105 0.0
H2046 H 0.35676 0.86453 0.74862 0.0
H2047 H 0.3926 0.89077 0.71909 0.0
H2048 H 0.34171 0.82741 0.66418 0.0
H2049 H 0.30613 0.80156 0.69328 0.0
H2050 H 0.42508 0.86316 0.69054 0.0
H2051 H 0.34987 0.91713 0.63013 0.0
H2052 H 0.34628 0.90295 0.66285 0.0
H2053 H 0.33422 0.87672 0.63891 0.0
C2054 C 0.35351 0.85606 0.73035 0.0
C2055 C 0.32916 0.83033 0.72362 0.0
C2056 C 0.37399 0.87097 0.71356 0.0
C2057 C 0.36992 0.86091 0.6895 0.0
C2058 C 0.34543 0.83544 0.6827 0.0
H2059 H 0.43367 0.91976 0.54709 0.0
H2060 H 0.41043 0.89223 0.58404 0.0
C2061 C 0.32521 0.82047 0.69949 0.0
C2062 C 0.39 0.87789 0.67066 0.0
H2063 H 0.3919 0.92063 0.61345 0.0
C2064 C 0.41801 0.87592 0.67374 0.0
C2065 C 0.38076 0.89466 0.64885 0.0
C2066 C 0.35124 0.8983 0.64494 0.0
C2067 C 0.43653 0.8892 0.65498 0.0
C2068 C 0.42695 0.90536 0.63282 0.0
C2069 C 0.39926 0.90807 0.63028 0.0
C2070 C 0.44431 0.91864 0.61132 0.0
C2071 C 0.46565 0.88478 0.65857 0.0
C2072 C 0.47183 0.94195 0.61426 0.0
C2073 C 0.48551 0.95745 0.59297 0.0
C2074 C 0.47163 0.95006 0.5685 0.0
C2075 C 0.44494 0.92573 0.56578 0.0
C2076 C 0.43155 0.91011 0.5869 0.0
H2077 H 0.46678 0.86591 0.67341 0.0
H2078 H 0.47014 0.87975 0.6406 0.0
H2079 H 0.48309 0.90616 0.66447 0.0
H2080 H 0.48195 0.94939 0.6328 0.0
H2081 H 0.50579 0.97654 0.59552 0.0
H2082 H 0.17644 0.24563 0.69727 0.0
H2083 H 0.15305 0.27961 0.67069 0.0
H2084 H 0.22539 0.35809 0.69594 0.0
H2085 H 0.24885 0.32387 0.72293 0.0
H2086 H 0.13568 0.32404 0.68747 0.0
H2087 H 0.21414 0.37973 0.61823 0.0
H2088 H 0.2095 0.34179 0.63377 0.0
H2089 H 0.22868 0.37469 0.65106 0.0
C2090 C 0.18768 0.27015 0.69689 0.0
C2091 C 0.21488 0.28186 0.71195 0.0
C2092 C 0.17415 0.28964 0.68168 0.0
C2093 C 0.18732 0.32166 0.68088 0.0
C2094 C 0.21479 0.33357 0.69567 0.0
H2095 H 0.12658 0.46645 0.59015 0.0
H2096 H 0.15352 0.439 0.62108 0.0
C2097 C 0.22834 0.31394 0.71111 0.0
C2098 C 0.17136 0.34203 0.66558 0.0
H2099 H 0.17336 0.3949 0.61383 0.0
C2100 C 0.14407 0.33963 0.67145 0.0
C2101 C 0.18198 0.36258 0.64459 0.0
C2102 C 0.21013 0.365 0.63629 0.0
C2103 C 0.12738 0.35695 0.65714 0.0
C2104 C 0.13769 0.37702 0.63576 0.0
C2105 C 0.16524 0.37981 0.63016 0.0
C2106 C 0.11995 0.39439 0.61846 0.0
C2107 C 0.09895 0.35382 0.66543 0.0
C2108 C 0.09165 0.37896 0.60661 0.0
C2109 C 0.07601 0.39472 0.58897 0.0
C2110 C 0.08813 0.42654 0.58233 0.0
C2111 C 0.11613 0.44213 0.59481 0.0
C2112 C 0.13179 0.4263 0.61245 0.0
H2113 H 0.0988 0.34615 0.68594 0.0
H2114 H 0.09468 0.37579 0.66162 0.0
H2115 H 0.08086 0.33635 0.65485 0.0
H2116 H 0.08197 0.35436 0.61021 0.0
H2117 H 0.05479 0.3816 0.5797 0.0
H2118 H 0.73702 0.25012 0.66549 0.0
H2119 H 0.7173 0.22004 0.62892 0.0
H2120 H 0.73518 0.14294 0.67345 0.0
H2121 H 0.75358 0.17198 0.71017 0.0
H2122 H 0.74012 0.18628 0.60254 0.0
H2123 H 0.64656 0.11147 0.65202 0.0
H2124 H 0.67096 0.14758 0.66281 0.0
H2125 H 0.68184 0.11434 0.66924 0.0
C2126 C 0.73659 0.22672 0.66755 0.0
C2127 C 0.74608 0.21324 0.691 0.0
C2128 C 0.72567 0.20972 0.64656 0.0
C2129 C 0.72441 0.17917 0.64871 0.0
C2130 C 0.73552 0.16632 0.6716 0.0
H2131 H 0.61386 0.0374 0.5539 0.0
H2132 H 0.65786 0.06366 0.58169 0.0
C2133 C 0.74602 0.18306 0.69259 0.0
C2134 C 0.70918 0.15979 0.62784 0.0
H2135 H 0.6486 0.09862 0.61233 0.0
C2136 C 0.7202 0.16697 0.60463 0.0
C2137 C 0.6833 0.1346 0.63077 0.0
C2138 C 0.66976 0.1266 0.65495 0.0
C2139 C 0.70567 0.14967 0.58406 0.0
C2140 C 0.67942 0.12493 0.58686 0.0
C2141 C 0.66899 0.11731 0.61033 0.0
C2142 C 0.65988 0.10921 0.56522 0.0
C2143 C 0.71834 0.15819 0.55951 0.0
C2144 C 0.64745 0.12607 0.54586 0.0
C2145 C 0.62233 0.11117 0.52999 0.0
C2146 C 0.60905 0.07916 0.53343 0.0
C2147 C 0.62338 0.0621 0.55093 0.0
C2148 C 0.64858 0.07707 0.56681 0.0
H2149 H 0.74242 0.16939 0.56285 0.0
H2150 H 0.71298 0.13782 0.54907 0.0
H2151 H 0.70917 0.17473 0.54739 0.0
H2152 H 0.65548 0.15086 0.5445 0.0
H2153 H 0.61209 0.12496 0.5164 0.0
H2154 H 0.86744 0.31135 0.29175 0.0
H2155 H 0.89017 0.33586 0.33079 0.0
H2156 H 0.84329 0.25387 0.37448 0.0
H2157 H 0.82065 0.22907 0.33522 0.0
H2158 H 0.8427 0.33474 0.36321 0.0
H2159 H 0.93313 0.2944 0.41282 0.0
H2160 H 0.92525 0.29724 0.37867 0.0
H2161 H 0.90021 0.26825 0.39709 0.0
C2162 C 0.8633 0.29803 0.30979 0.0
C2163 C 0.8427 0.26833 0.31071 0.0
C2164 C 0.87598 0.31211 0.33199 0.0
C2165 C 0.86812 0.29668 0.35534 0.0
C2166 C 0.84967 0.26596 0.35656 0.0
H2167 H 0.93917 0.38542 0.4937 0.0
H2168 H 0.90446 0.34768 0.4663 0.0
C2169 C 0.8371 0.25171 0.33424 0.0
C2170 C 0.87577 0.31443 0.3774 0.0
H2171 H 0.92653 0.33467 0.42917 0.0
C2172 C 0.86076 0.3345 0.37792 0.0
C2173 C 0.89902 0.31364 0.39651 0.0
C2174 C 0.9155 0.29228 0.39648 0.0
C2175 C 0.86928 0.35488 0.39664 0.0
C2176 C 0.8937 0.35544 0.41496 0.0
C2177 C 0.90775 0.33421 0.41511 0.0
C2178 C 0.90705 0.37956 0.43263 0.0
C2179 C 0.85236 0.3759 0.39636 0.0
C2180 C 0.91846 0.41044 0.42313 0.0
C2181 C 0.93798 0.43218 0.43889 0.0
C2182 C 0.94666 0.42305 0.46414 0.0
C2183 C 0.9328 0.39292 0.47422 0.0
C2184 C 0.91312 0.37133 0.45858 0.0
H2185 H 0.82941 0.36576 0.38744 0.0
H2186 H 0.85242 0.38101 0.4158 0.0
H2187 H 0.8625 0.39778 0.38505 0.0
H2188 H 0.91444 0.41725 0.40309 0.0
H2189 H 0.94866 0.45517 0.43063 0.0
H2190 H 0.6369 0.74807 0.37888 0.0
H2191 H 0.6248 0.78341 0.39997 0.0
H2192 H 0.70883 0.85207 0.39109 0.0
H2193 H 0.7212 0.81674 0.37003 0.0
H2194 H 0.65426 0.81061 0.44436 0.0
H2195 H 0.65229 0.89872 0.36317 0.0
H2196 H 0.65139 0.86098 0.35913 0.0
H2197 H 0.68505 0.8893 0.37074 0.0
C2198 C 0.65289 0.77063 0.38149 0.0
C2199 C 0.68003 0.77954 0.37275 0.0
C2200 C 0.64588 0.79087 0.39344 0.0
C2201 C 0.66576 0.8205 0.39685 0.0
C2202 C 0.69291 0.82954 0.3882 0.0
H2203 H 0.63984 0.96178 0.47136 0.0
H2204 H 0.66315 0.93504 0.45114 0.0
C2205 C 0.69994 0.8093 0.37618 0.0
C2206 C 0.65817 0.84135 0.41021 0.0
H2207 H 0.64334 0.908 0.40213 0.0
C2208 C 0.65206 0.83199 0.43516 0.0
C2209 C 0.65555 0.86939 0.39827 0.0
C2210 C 0.66118 0.88022 0.37129 0.0
C2211 C 0.64276 0.84952 0.44828 0.0
C2212 C 0.63908 0.87695 0.43604 0.0
C2213 C 0.64623 0.88697 0.41144 0.0
C2214 C 0.62527 0.89383 0.44768 0.0
C2215 C 0.63659 0.83835 0.4751 0.0
C2216 C 0.59618 0.87974 0.45194 0.0
C2217 C 0.58284 0.89484 0.46332 0.0
C2218 C 0.59826 0.92455 0.47072 0.0
C2219 C 0.62735 0.93892 0.46601 0.0
C2220 C 0.6407 0.9237 0.45445 0.0
H2221 H 0.64796 0.8221 0.48403 0.0
H2222 H 0.64337 0.85779 0.48691 0.0
H2223 H 0.6128 0.82622 0.47495 0.0
H2224 H 0.58374 0.8569 0.44647 0.0
H2225 H 0.5604 0.88299 0.46646 0.0
H2226 H 0.24059 0.71728 0.31347 0.0
H2227 H 0.20924 0.68434 0.34421 0.0
H2228 H 0.13625 0.66188 0.2846 0.0
H2229 H 0.1679 0.69396 0.25369 0.0
H2230 H 0.16116 0.68999 0.35741 0.0
H2231 H 0.13021 0.57793 0.31907 0.0
H2232 H 0.15849 0.6115 0.30788 0.0
H2233 H 0.12084 0.60647 0.29672 0.0
C2234 C 0.2181 0.70465 0.30679 0.0
C2235 C 0.20694 0.7075 0.281 0.0
C2236 C 0.20004 0.68608 0.32445 0.0
C2237 C 0.17034 0.6702 0.31678 0.0
C2238 C 0.15916 0.67321 0.29101 0.0
H2239 H 0.0459 0.58331 0.42971 0.0
H2240 H 0.06676 0.61523 0.39229 0.0
C2241 C 0.17725 0.69164 0.27335 0.0
C2242 C 0.15094 0.65157 0.3359 0.0
H2243 H 0.10628 0.57907 0.3529 0.0
C2244 C 0.14903 0.66577 0.35632 0.0
C2245 C 0.13494 0.61993 0.33451 0.0
C2246 C 0.13635 0.60295 0.3135 0.0
C2247 C 0.13213 0.64917 0.37554 0.0
C2248 C 0.11653 0.61752 0.37431 0.0
C2249 C 0.11793 0.60344 0.35366 0.0
C2250 C 0.10231 0.5978 0.39598 0.0
C2251 C 0.13201 0.66525 0.39762 0.0
C2252 C 0.11494 0.57713 0.41009 0.0
C2253 C 0.10331 0.55926 0.43126 0.0
C2254 C 0.07845 0.56125 0.43894 0.0
C2255 C 0.06505 0.58126 0.42434 0.0
C2256 C 0.07705 0.59959 0.40308 0.0
H2257 H 0.14743 0.68924 0.39696 0.0
H2258 H 0.10974 0.66556 0.3975 0.0
H2259 H 0.13789 0.65267 0.41573 0.0
H2260 H 0.1343 0.57522 0.40499 0.0
H2261 H 0.11407 0.54386 0.44175 0.0
H2262 H 0.27904 0.16831 0.31046 0.0
H2263 H 0.31337 0.14601 0.33695 0.0
H2264 H 0.38536 0.22351 0.31315 0.0
H2265 H 0.35078 0.24571 0.28599 0.0
H2266 H 0.35819 0.13076 0.31875 0.0
H2267 H 0.40619 0.2127 0.39247 0.0
H2268 H 0.36996 0.20642 0.37546 0.0
H2269 H 0.40124 0.22777 0.35986 0.0
C2270 C 0.30219 0.18094 0.31112 0.0
C2271 C 0.31196 0.20922 0.29641 0.0
C2272 C 0.32189 0.16803 0.32628 0.0
C2273 C 0.35219 0.18294 0.32742 0.0
C2274 C 0.36218 0.21154 0.31305 0.0
H2275 H 0.49479 0.1282 0.42211 0.0
H2276 H 0.46706 0.15515 0.39156 0.0
C2277 C 0.34234 0.22441 0.29758 0.0
C2278 C 0.37281 0.16756 0.34267 0.0
H2279 H 0.42298 0.17142 0.39623 0.0
C2280 C 0.37245 0.1398 0.33562 0.0
C2281 C 0.39171 0.1791 0.3647 0.0
C2282 C 0.39246 0.20808 0.37382 0.0
C2283 C 0.39022 0.12352 0.34976 0.0
C2284 C 0.40851 0.13455 0.37232 0.0
C2285 C 0.40921 0.16264 0.37909 0.0
C2286 C 0.42628 0.11703 0.38951 0.0
C2287 C 0.38954 0.0949 0.33993 0.0
C2288 C 0.41318 0.08621 0.39871 0.0
C2289 C 0.4292 0.07052 0.416 0.0
C2290 C 0.4589 0.08514 0.42512 0.0
C2291 C 0.47217 0.11582 0.4155 0.0
C2292 C 0.45614 0.13146 0.39807 0.0
H2293 H 0.38323 0.09554 0.31906 0.0
H2294 H 0.41104 0.09168 0.34465 0.0
H2295 H 0.37301 0.07476 0.34856 0.0
H2296 H 0.39014 0.07443 0.39326 0.0
H2297 H 0.41781 0.04719 0.42308 0.0
H2298 H 0.76916 0.84536 0.69671 0.0
H2299 H 0.73505 0.86741 0.66966 0.0
H2300 H 0.66284 0.78923 0.69242 0.0
H2301 H 0.69724 0.76773 0.72049 0.0
H2302 H 0.69676 0.85177 0.62973 0.0
H2303 H 0.63555 0.85492 0.70485 0.0
H2304 H 0.66854 0.84568 0.71195 0.0
H2305 H 0.63436 0.81716 0.70135 0.0
C2306 C 0.74599 0.83274 0.69589 0.0
C2307 C 0.73609 0.80445 0.71051 0.0
C2308 C 0.72637 0.84543 0.68033 0.0
C2309 C 0.696 0.83053 0.679 0.0
C2310 C 0.68598 0.80189 0.69335 0.0
H2311 H 0.55298 0.88483 0.58399 0.0
H2312 H 0.58114 0.85728 0.61355 0.0
C2313 C 0.70573 0.78921 0.70913 0.0
C2314 C 0.67544 0.84529 0.66253 0.0
H2315 H 0.61839 0.87032 0.6629 0.0
C2316 C 0.6797 0.85578 0.63715 0.0
C2317 C 0.65286 0.85078 0.67179 0.0
C2318 C 0.64765 0.84183 0.69902 0.0
C2319 C 0.66249 0.87136 0.62111 0.0
C2320 C 0.6402 0.8771 0.63043 0.0
C2321 C 0.63541 0.8661 0.65559 0.0
C2322 C 0.62218 0.89492 0.61436 0.0
C2323 C 0.66818 0.88138 0.59407 0.0
C2324 C 0.63531 0.92581 0.60553 0.0
C2325 C 0.61914 0.94183 0.58884 0.0
C2326 C 0.58922 0.92749 0.58025 0.0
C2327 C 0.57582 0.89692 0.5901 0.0
C2328 C 0.59201 0.88098 0.607 0.0
H2329 H 0.68107 0.86927 0.58809 0.0
H2330 H 0.64738 0.87726 0.58098 0.0
H2331 H 0.6807 0.90631 0.59223 0.0
H2332 H 0.65837 0.93745 0.61111 0.0
H2333 H 0.63052 0.96519 0.58182 0.0
H2334 H 0.75622 0.19908 0.3325 0.0
H2335 H 0.71574 0.17426 0.35732 0.0
H2336 H 0.65421 0.17632 0.28994 0.0
H2337 H 0.69485 0.20113 0.26497 0.0
H2338 H 0.66884 0.19598 0.3624 0.0
H2339 H 0.62872 0.08459 0.3202 0.0
H2340 H 0.6649 0.11189 0.31773 0.0
H2341 H 0.63381 0.11911 0.29908 0.0
C2342 C 0.73404 0.19441 0.32305 0.0
C2343 C 0.72865 0.20262 0.29699 0.0
C2344 C 0.71095 0.18025 0.33721 0.0
C2345 C 0.68192 0.17331 0.32551 0.0
C2346 C 0.6764 0.18125 0.29936 0.0
H2347 H 0.53837 0.05561 0.41314 0.0
H2348 H 0.5604 0.09042 0.37729 0.0
C2349 C 0.6996 0.19566 0.28517 0.0
C2350 C 0.65779 0.15736 0.34096 0.0
H2351 H 0.60741 0.08707 0.35483 0.0
C2352 C 0.65502 0.17234 0.36043 0.0
C2353 C 0.63954 0.1266 0.33828 0.0
C2354 C 0.64179 0.10937 0.31781 0.0
C2355 C 0.63552 0.157 0.37798 0.0
C2356 C 0.61877 0.12558 0.37644 0.0
C2357 C 0.62017 0.11113 0.35601 0.0
C2358 C 0.60397 0.10636 0.39802 0.0
C2359 C 0.63376 0.17434 0.39858 0.0
C2360 C 0.62101 0.10377 0.42142 0.0
C2361 C 0.60868 0.08402 0.44152 0.0
C2362 C 0.57886 0.06607 0.43892 0.0
C2363 C 0.56136 0.06921 0.41574 0.0
C2364 C 0.57395 0.08897 0.39528 0.0
H2365 H 0.63905 0.19912 0.39223 0.0
H2366 H 0.61174 0.16526 0.40458 0.0
H2367 H 0.64993 0.1721 0.41525 0.0
H2368 H 0.64424 0.11641 0.42397 0.0
H2369 H 0.62281 0.08243 0.45915 0.0
H2370 H 0.86883 0.76284 0.30963 0.0
H2371 H 0.89101 0.72793 0.33628 0.0
H2372 H 0.81889 0.65074 0.30834 0.0
H2373 H 0.7971 0.68597 0.28088 0.0
H2374 H 0.87546 0.68601 0.37448 0.0
H2375 H 0.88493 0.6267 0.29697 0.0
H2376 H 0.87489 0.6606 0.29093 0.0
H2377 H 0.8483 0.62389 0.29873 0.0
C2378 C 0.85757 0.7384 0.30923 0.0
C2379 C 0.83089 0.72733 0.29336 0.0
C2380 C 0.87033 0.71833 0.32455 0.0
C2381 C 0.85714 0.68637 0.32431 0.0
C2382 C 0.83015 0.67515 0.30866 0.0
H2383 H 0.91573 0.53865 0.41329 0.0
H2384 H 0.8885 0.5672 0.38378 0.0
C2385 C 0.81735 0.69536 0.2932 0.0
C2386 C 0.87193 0.6654 0.34053 0.0
H2387 H 0.89977 0.60867 0.33874 0.0
C2388 C 0.88072 0.66916 0.36652 0.0
C2389 C 0.87896 0.64307 0.33054 0.0
C2390 C 0.87155 0.63841 0.30274 0.0
C2391 C 0.89616 0.65167 0.38251 0.0
C2392 C 0.90363 0.62977 0.37246 0.0
C2393 C 0.89429 0.62542 0.34662 0.0
C2394 C 0.92153 0.61176 0.38848 0.0
C2395 C 0.90406 0.65664 0.41025 0.0
C2396 C 0.94989 0.6268 0.40033 0.0
C2397 C 0.96571 0.61048 0.41705 0.0
C2398 C 0.95377 0.57842 0.42258 0.0
C2399 C 0.92595 0.56318 0.40959 0.0
C2400 C 0.91016 0.57959 0.39272 0.0
H2401 H 0.89037 0.66781 0.41627 0.0
H2402 H 0.90157 0.63462 0.42215 0.0
H2403 H 0.92717 0.67175 0.41384 0.0
H2404 H 0.95964 0.65145 0.3971 0.0
H2405 H 0.98695 0.6233 0.42647 0.0
H2406 H 0.31796 0.83931 0.30348 0.0
H2407 H 0.33534 0.86331 0.34296 0.0
H2408 H 0.31308 0.77434 0.3853 0.0
H2409 H 0.29617 0.74989 0.34567 0.0
H2410 H 0.30849 0.86054 0.3846 0.0
H2411 H 0.39928 0.81364 0.41023 0.0
H2412 H 0.37799 0.81153 0.37926 0.0
H2413 H 0.36319 0.7859 0.40558 0.0
C2414 C 0.31674 0.82474 0.32114 0.0
C2415 C 0.30606 0.79267 0.32143 0.0
C2416 C 0.3265 0.83854 0.34371 0.0
C2417 C 0.32569 0.82061 0.36701 0.0
C2418 C 0.3143 0.78857 0.36747 0.0
H2419 H 0.43257 0.89413 0.50309 0.0
H2420 H 0.38814 0.86146 0.47961 0.0
C2421 C 0.30472 0.77467 0.34483 0.0
C2422 C 0.3386 0.83587 0.3905 0.0
H2423 H 0.39765 0.84803 0.43625 0.0
C2424 C 0.32773 0.85751 0.39621 0.0
C2425 C 0.36363 0.83178 0.40558 0.0
C2426 C 0.37693 0.80966 0.39985 0.0
C2427 C 0.342 0.8761 0.41601 0.0
C2428 C 0.36783 0.87304 0.43023 0.0
C2429 C 0.37769 0.8502 0.42541 0.0
C2430 C 0.38743 0.89546 0.44782 0.0
C2431 C 0.32971 0.89928 0.42113 0.0
C2432 C 0.40062 0.92609 0.43847 0.0
C2433 C 0.42591 0.94493 0.452 0.0
C2434 C 0.43851 0.93308 0.47474 0.0
C2435 C 0.42345 0.90362 0.48538 0.0
C2436 C 0.39803 0.88497 0.47204 0.0
H2437 H 0.3057 0.89168 0.41547 0.0
H2438 H 0.33472 0.90344 0.44145 0.0
H2439 H 0.33949 0.92126 0.40979 0.0
H2440 H 0.39312 0.93454 0.41965 0.0
H2441 H 0.43713 0.96756 0.4434 0.0
H2442 H 0.28771 0.36858 0.40984 0.0
H2443 H 0.25621 0.38299 0.43162 0.0
H2444 H 0.20372 0.39456 0.36035 0.0
H2445 H 0.23577 0.38124 0.33825 0.0
H2446 H 0.21735 0.44244 0.38961 0.0
H2447 H 0.17419 0.33118 0.44634 0.0
H2448 H 0.21329 0.347 0.45025 0.0
H2449 H 0.19346 0.33556 0.41992 0.0
C2450 C 0.26956 0.37434 0.39874 0.0
C2451 C 0.26429 0.3737 0.37226 0.0
C2452 C 0.25136 0.38223 0.41129 0.0
C2453 C 0.22734 0.38942 0.39768 0.0
C2454 C 0.22202 0.3889 0.37126 0.0
H2455 H 0.0833 0.4015 0.45975 0.0
H2456 H 0.11525 0.38783 0.4381 0.0
C2457 C 0.24024 0.38103 0.35868 0.0
C2458 C 0.2082 0.39821 0.41093 0.0
H2459 H 0.16365 0.37292 0.4569 0.0
C2460 C 0.20554 0.42723 0.40428 0.0
C2461 C 0.19254 0.3782 0.42986 0.0
C2462 C 0.19322 0.34613 0.43689 0.0
C2463 C 0.18792 0.43692 0.41625 0.0
C2464 C 0.17298 0.41727 0.43575 0.0
C2465 C 0.17538 0.38811 0.44217 0.0
C2466 C 0.15388 0.42601 0.44911 0.0
C2467 C 0.18496 0.46783 0.4075 0.0
C2468 C 0.16501 0.45189 0.46281 0.0
C2469 C 0.14671 0.45993 0.4752 0.0
C2470 C 0.11695 0.44205 0.47432 0.0
C2471 C 0.10605 0.41587 0.46088 0.0
C2472 C 0.12431 0.40796 0.44846 0.0
H2473 H 0.19142 0.47641 0.38835 0.0
H2474 H 0.16221 0.46688 0.40709 0.0
H2475 H 0.19942 0.48459 0.42085 0.0
H2476 H 0.1879 0.4658 0.46405 0.0
H2477 H 0.15591 0.48011 0.48547 0.0
H2478 H 0.36288 0.24916 0.60083 0.0
H2479 H 0.37525 0.2134 0.58063 0.0
H2480 H 0.38326 0.16065 0.65262 0.0
H2481 H 0.37257 0.19728 0.67326 0.0
H2482 H 0.42836 0.17057 0.6294 0.0
H2483 H 0.32866 0.12877 0.56092 0.0
H2484 H 0.34413 0.16975 0.55746 0.0
H2485 H 0.33046 0.15037 0.58646 0.0
C2486 C 0.36736 0.23003 0.61244 0.0
C2487 C 0.36675 0.22624 0.63874 0.0
C2488 C 0.37394 0.20925 0.60074 0.0
C2489 C 0.37961 0.18392 0.61499 0.0
C2490 C 0.37867 0.17983 0.64118 0.0
H2491 H 0.41113 0.04647 0.54058 0.0
H2492 H 0.38902 0.07052 0.5646 0.0
C2493 C 0.37234 0.20074 0.65293 0.0
C2494 C 0.38884 0.16319 0.60292 0.0
H2495 H 0.37145 0.12104 0.55235 0.0
C2496 C 0.41568 0.15942 0.61276 0.0
C2497 C 0.37211 0.14808 0.58148 0.0
C2498 C 0.3421 0.14916 0.57115 0.0
C2499 C 0.42686 0.14223 0.6011 0.0
C2500 C 0.41119 0.12911 0.57855 0.0
C2501 C 0.38368 0.13153 0.5694 0.0
C2502 C 0.42388 0.11442 0.56354 0.0
C2503 C 0.45549 0.13845 0.61302 0.0
C2504 C 0.45039 0.13132 0.55446 0.0
C2505 C 0.4631 0.1177 0.54094 0.0
C2506 C 0.4494 0.08689 0.53584 0.0
C2507 C 0.42232 0.0702 0.54424 0.0
C2508 C 0.40966 0.08388 0.55797 0.0
H2509 H 0.4596 0.14077 0.63369 0.0
H2510 H 0.45603 0.11582 0.61008 0.0
H2511 H 0.47353 0.1566 0.6043 0.0
H2512 H 0.46136 0.15515 0.55789 0.0
H2513 H 0.48374 0.13146 0.53449 0.0
H2514 H 0.87805 0.32841 0.75301 0.0
H2515 H 0.90737 0.35917 0.72 0.0
H2516 H 0.83322 0.32671 0.66298 0.0
H2517 H 0.80404 0.29575 0.6958 0.0
H2518 H 0.91905 0.33574 0.67843 0.0
H2519 H 0.86277 0.42031 0.64438 0.0
H2520 H 0.86323 0.40152 0.67615 0.0
H2521 H 0.8396 0.3812 0.65034 0.0
C2522 C 0.86788 0.3283 0.73344 0.0
C2523 C 0.83853 0.31011 0.72709 0.0
C2524 C 0.88469 0.34577 0.7146 0.0
C2525 C 0.87249 0.34553 0.68899 0.0
C2526 C 0.84303 0.32775 0.68262 0.0
H2527 H 0.92089 0.41563 0.54232 0.0
H2528 H 0.89974 0.38791 0.58001 0.0
C2529 C 0.82626 0.31012 0.70145 0.0
C2530 C 0.89084 0.36259 0.66882 0.0
H2531 H 0.89647 0.41858 0.61958 0.0
C2532 C 0.91431 0.35405 0.66568 0.0
C2533 C 0.88484 0.38663 0.65231 0.0
C2534 C 0.86137 0.39825 0.65591 0.0
C2535 C 0.93106 0.36803 0.6458 0.0
C2536 C 0.92437 0.39138 0.62881 0.0
C2537 C 0.90147 0.4005 0.63247 0.0
C2538 C 0.93924 0.40539 0.60602 0.0
C2539 C 0.95506 0.35698 0.64251 0.0
C2540 C 0.96894 0.42384 0.60789 0.0
C2541 C 0.98132 0.4398 0.58609 0.0
C2542 C 0.96402 0.43775 0.56221 0.0
C2543 C 0.93478 0.418 0.56043 0.0
C2544 C 0.92259 0.4021 0.582 0.0
H2545 H 0.95424 0.33535 0.65451 0.0
H2546 H 0.95363 0.35328 0.62241 0.0
H2547 H 0.9765 0.37469 0.64787 0.0
H2548 H 0.98218 0.427 0.62625 0.0
H2549 H 1.00382 0.45499 0.5881 0.0
H2550 H 0.18822 0.71356 0.70567 0.0
H2551 H 0.16238 0.68491 0.66909 0.0
H2552 H 0.2389 0.72571 0.63144 0.0
H2553 H 0.26491 0.75414 0.66798 0.0
H2554 H 0.14996 0.70069 0.61776 0.0
H2555 H 0.22499 0.63385 0.63602 0.0
H2556 H 0.22384 0.65798 0.65848 0.0
H2557 H 0.2426 0.67462 0.63145 0.0
C2558 C 0.19937 0.71668 0.68945 0.0
C2559 C 0.22877 0.73526 0.68987 0.0
C2560 C 0.18465 0.7003 0.66863 0.0
C2561 C 0.19913 0.70251 0.648 0.0
C2562 C 0.22773 0.72298 0.64757 0.0
H2563 H 0.10275 0.61886 0.51131 0.0
H2564 H 0.14026 0.65397 0.53922 0.0
C2565 C 0.24251 0.73914 0.66842 0.0
C2566 C 0.18474 0.68223 0.62759 0.0
H2567 H 0.18909 0.62366 0.59996 0.0
C2568 C 0.15854 0.68396 0.61372 0.0
C2569 C 0.19591 0.66015 0.62277 0.0
C2570 C 0.22323 0.65624 0.63808 0.0
C2571 C 0.143 0.66402 0.59516 0.0
C2572 C 0.15446 0.64233 0.58994 0.0
C2573 C 0.18071 0.64065 0.60377 0.0
C2574 C 0.13823 0.61993 0.57136 0.0
C2575 C 0.11394 0.66565 0.58196 0.0
C2576 C 0.12683 0.58865 0.57958 0.0
C2577 C 0.10587 0.56838 0.56347 0.0
C2578 C 0.09599 0.57941 0.53917 0.0
C2579 C 0.10986 0.60997 0.53011 0.0
C2580 C 0.13107 0.63006 0.54606 0.0
H2581 H 0.10529 0.67846 0.59229 0.0
H2582 H 0.11657 0.67766 0.56272 0.0
H2583 H 0.09757 0.64236 0.58 0.0
H2584 H 0.1324 0.5804 0.59902 0.0
H2585 H 0.09542 0.54491 0.57087 0.0
loop_
_geom_bond_atom_site_label_1
_geom_bond_atom_site_label_2
_geom_bond_distance
_geom_bond_site_symmetry_2
_ccdc_geom_bond_type
Eu0 N31 2.657 . S
Eu0 N38 2.609 . S
Eu0 O44 2.558 . S
Eu0 O45 2.612 . S
Eu0 O47 2.339 . S
Eu0 O48 2.563 . S
Eu0 O49 2.419 . S
Eu0 O51 2.380 . S
Eu0 O52 2.432 . S
Eu0 C64 2.848 . S
C1 C4 1.429 . S
C1 C5 1.411 . S
C1 N8 1.377 . S
C2 C4 1.420 . S
C2 C6 1.423 . S
C2 C14 1.392 . S
C3 C5 1.420 . S
C3 C6 1.351 . S
C3 H26 0.931 . S
C4 C1 1.429 . S
C4 C2 1.420 . S
C4 N12 1.362 . S
C5 C1 1.411 . S
C5 C3 1.420 . S
C5 C10 1.395 . S
C6 C2 1.423 . S
C6 C3 1.351 . S
C6 H18 0.930 . S
C7 C9 1.400 . S
C7 C10 1.386 . S
C7 H19 0.930 . S
N8 C1 1.377 . S
N8 C9 1.321 . S
N8 Eu11 2.609 . S
C9 C7 1.400 . S
C9 N8 1.321 . S
C9 H16 0.930 . S
C10 C5 1.395 . S
C10 C7 1.386 . S
C10 H29 0.930 . S
Eu11 N8 2.609 . S
Eu11 N12 2.657 . S
Eu11 O45 2.380 . S
Eu11 O46 2.432 . S
Eu11 O50 2.558 . S
Eu11 O51 2.612 . S
Eu11 O53 2.339 . S
Eu11 O54 2.563 . S
Eu11 O55 2.419 . S
Eu11 C75 2.848 . S
N12 C4 1.362 . S
N12 Eu11 2.657 . S
N12 C13 1.334 . S
C13 N12 1.334 . S
C13 C15 1.413 . S
C13 H20 0.929 . S
C14 C2 1.392 . S
C14 C15 1.367 . S
C14 H22 0.930 . S
C15 C13 1.413 . S
C15 C14 1.367 . S
C15 H17 0.930 . S
H16 C9 0.930 . S
H17 C15 0.930 . S
H18 C6 0.930 . S
H19 C7 0.930 . S
H20 C13 0.929 . S
H21 C35 0.930 . S
H22 C14 0.930 . S
H23 C41 0.930 . S
H24 C32 0.929 . S
H25 C39 0.930 . S
H26 C3 0.931 . S
H27 C33 0.930 . S
H28 C66 0.930 . S
H29 C10 0.930 . S
H30 C65 0.931 . S
N31 Eu0 2.657 . S
N31 C32 1.334 . S
N31 C36 1.362 . S
C32 H24 0.929 . S
C32 N31 1.334 . S
C32 C35 1.413 . S
C33 H27 0.930 . S
C33 C34 1.392 . S
C33 C35 1.367 . S
C34 C33 1.392 . S
C34 C36 1.420 . S
C34 C66 1.423 . S
C35 H21 0.930 . S
C35 C32 1.413 . S
C35 C33 1.367 . S
C36 N31 1.362 . S
C36 C34 1.420 . S
C36 C40 1.429 . S
H37 C42 0.930 . S
N38 Eu0 2.609 . S
N38 C40 1.377 . S
N38 C41 1.321 . S
C39 H25 0.930 . S
C39 C41 1.400 . S
C39 C42 1.386 . S
C40 C36 1.429 . S
C40 N38 1.377 . S
C40 C43 1.411 . S
C41 H23 0.930 . S
C41 N38 1.321 . S
C41 C39 1.400 . S
C42 H37 0.930 . S
C42 C39 1.386 . S
C42 C43 1.395 . S
C43 C40 1.411 . S
C43 C42 1.395 . S
C43 C65 1.420 . S
O44 Eu0 2.558 . S
O44 C64 1.257 . S
O45 Eu0 2.612 . S
O45 Eu11 2.380 . S
O45 C56 1.276 . S
O46 Eu11 2.432 . S
O46 C63 1.264 . S
O47 Eu0 2.339 . S
O47 C63 1.254 . S
O48 Eu0 2.563 . S
O48 C56 1.235 . S
O49 Eu0 2.419 . S
O49 C64 1.249 . S
O50 Eu11 2.558 . S
O50 C75 1.257 . S
O51 Eu0 2.380 . S
O51 Eu11 2.612 . S
O51 C67 1.276 . S
O52 Eu0 2.432 . S
O52 C74 1.264 . S
O53 Eu11 2.339 . S
O53 C74 1.254 . S
O54 Eu11 2.563 . S
O54 C67 1.235 . S
O55 Eu11 2.419 . S
O55 C75 1.249 . S
C56 O45 1.276 . S
C56 O48 1.235 . S
C57 C59 1.393 . S
C57 C61 1.395 . S
C57 C64 1.492 . S
C58 C59 1.392 . S
C58 C60 1.386 . S
C59 C57 1.393 . S
C59 C58 1.392 . S
C59 H76 0.930 . S
C60 C58 1.386 . S
C60 C62 1.395 . S
C60 H77 0.930 . S
C61 C57 1.395 . S
C61 C62 1.379 . S
C61 H78 0.930 . S
C62 C60 1.395 . S
C62 C61 1.379 . S
C62 H79 0.930 . S
C63 O46 1.264 . S
C63 O47 1.254 . S
C64 Eu0 2.848 . S
C64 O44 1.257 . S
C64 O49 1.249 . S
C64 C57 1.492 . S
C65 H30 0.931 . S
C65 C43 1.420 . S
C65 C66 1.351 . S
C66 H28 0.930 . S
C66 C34 1.423 . S
C66 C65 1.351 . S
C67 O51 1.276 . S
C67 O54 1.235 . S
C68 C69 1.393 . S
C68 C72 1.395 . S
C68 C75 1.492 . S
C69 C68 1.393 . S
C69 C70 1.392 . S
C69 H80 0.930 . S
C70 C69 1.392 . S
C70 C71 1.386 . S
C71 C70 1.386 . S
C71 C73 1.395 . S
C71 H81 0.930 . S
C72 C68 1.395 . S
C72 C73 1.379 . S
C72 H82 0.930 . S
C73 C71 1.395 . S
C73 C72 1.379 . S
C73 H83 0.930 . S
C74 O52 1.264 . S
C74 O53 1.254 . S
C75 Eu11 2.848 . S
C75 O50 1.257 . S
C75 O55 1.249 . S
C75 C68 1.492 . S
H76 C59 0.930 . S
H77 C60 0.930 . S
H78 C61 0.930 . S
H79 C62 0.930 . S
H80 C69 0.930 . S
H81 C71 0.930 . S
H82 C72 0.930 . S
H83 C73 0.930 . S
Eu84 N115 2.657 . S
Eu84 N122 2.609 . S
Eu84 O128 2.558 . S
Eu84 O129 2.612 . S
Eu84 O131 2.339 . S
Eu84 O132 2.563 . S
Eu84 O133 2.419 . S
Eu84 O135 2.380 . S
Eu84 O136 2.432 . S
Eu84 C148 2.848 . S
C85 C88 1.429 . S
C85 C89 1.411 . S
C85 N92 1.377 . S
C86 C88 1.420 . S
C86 C90 1.423 . S
C86 C98 1.392 . S
C87 C89 1.420 . S
C87 C90 1.351 . S
C87 H110 0.931 . S
C88 C85 1.429 . S
C88 C86 1.420 . S
C88 N96 1.362 . S
C89 C85 1.411 . S
C89 C87 1.420 . S
C89 C94 1.395 . S
C90 C86 1.423 . S
C90 C87 1.351 . S
C90 H102 0.930 . S
C91 C93 1.400 . S
C91 C94 1.386 . S
C91 H103 0.930 . S
N92 C85 1.377 . S
N92 C93 1.321 . S
N92 Eu95 2.609 . S
C93 C91 1.400 . S
C93 N92 1.321 . S
C93 H100 0.930 . S
C94 C89 1.395 . S
C94 C91 1.386 . S
C94 H113 0.930 . S
Eu95 N92 2.609 . S
Eu95 N96 2.657 . S
Eu95 O129 2.380 . S
Eu95 O130 2.432 . S
Eu95 O134 2.558 . S
Eu95 O135 2.612 . S
Eu95 O137 2.339 . S
Eu95 O138 2.563 . S
Eu95 O139 2.419 . S
Eu95 C159 2.848 . S
N96 C88 1.362 . S
N96 Eu95 2.657 . S
N96 C97 1.334 . S
C97 N96 1.334 . S
C97 C99 1.413 . S
C97 H104 0.929 . S
C98 C86 1.392 . S
C98 C99 1.367 . S
C98 H106 0.930 . S
C99 C97 1.413 . S
C99 C98 1.367 . S
C99 H101 0.930 . S
H100 C93 0.930 . S
H101 C99 0.930 . S
H102 C90 0.930 . S
H103 C91 0.930 . S
H104 C97 0.929 . S
H105 C119 0.930 . S
H106 C98 0.930 . S
H107 C125 0.930 . S
H108 C116 0.929 . S
H109 C123 0.930 . S
H110 C87 0.931 . S
H111 C117 0.930 . S
H112 C150 0.930 . S
H113 C94 0.930 . S
H114 C149 0.931 . S
N115 Eu84 2.657 . S
N115 C116 1.334 . S
N115 C120 1.362 . S
C116 H108 0.929 . S
C116 N115 1.334 . S
C116 C119 1.413 . S
C117 H111 0.930 . S
C117 C118 1.392 . S
C117 C119 1.367 . S
C118 C117 1.392 . S
C118 C120 1.420 . S
C118 C150 1.423 . S
C119 H105 0.930 . S
C119 C116 1.413 . S
C119 C117 1.367 . S
C120 N115 1.362 . S
C120 C118 1.420 . S
C120 C124 1.429 . S
H121 C126 0.930 . S
N122 Eu84 2.609 . S
N122 C124 1.377 . S
N122 C125 1.321 . S
C123 H109 0.930 . S
C123 C125 1.400 . S
C123 C126 1.386 . S
C124 C120 1.429 . S
C124 N122 1.377 . S
C124 C127 1.411 . S
C125 H107 0.930 . S
C125 N122 1.321 . S
C125 C123 1.400 . S
C126 H121 0.930 . S
C126 C123 1.386 . S
C126 C127 1.395 . S
C127 C124 1.411 . S
C127 C126 1.395 . S
C127 C149 1.420 . S
O128 Eu84 2.558 . S
O128 C148 1.257 . S
O129 Eu84 2.612 . S
O129 Eu95 2.380 . S
O129 C140 1.276 . S
O130 Eu95 2.432 . S
O130 C147 1.264 . S
O131 Eu84 2.339 . S
O131 C147 1.254 . S
O132 Eu84 2.563 . S
O132 C140 1.235 . S
O133 Eu84 2.419 . S
O133 C148 1.249 . S
O134 Eu95 2.558 . S
O134 C159 1.257 . S
O135 Eu84 2.380 . S
O135 Eu95 2.612 . S
O135 C151 1.276 . S
O136 Eu84 2.432 . S
O136 C158 1.264 . S
O137 Eu95 2.339 . S
O137 C158 1.254 . S
O138 Eu95 2.563 . S
O138 C151 1.235 . S
O139 Eu95 2.419 . S
O139 C159 1.249 . S
C140 O129 1.276 . S
C140 O132 1.235 . S
C141 C143 1.393 . S
C141 C145 1.395 . S
C141 C148 1.492 . S
C142 C143 1.392 . S
C142 C144 1.386 . S
C143 C141 1.393 . S
C143 C142 1.392 . S
C143 H160 0.930 . S
C144 C142 1.386 . S
C144 C146 1.395 . S
C144 H161 0.930 . S
C145 C141 1.395 . S
C145 C146 1.379 . S
C145 H162 0.930 . S
C146 C144 1.395 . S
C146 C145 1.379 . S
C146 H163 0.930 . S
C147 O130 1.264 . S
C147 O131 1.254 . S
C148 Eu84 2.848 . S
C148 O128 1.257 . S
C148 O133 1.249 . S
C148 C141 1.492 . S
C149 H114 0.931 . S
C149 C127 1.420 . S
C149 C150 1.351 . S
C150 H112 0.930 . S
C150 C118 1.423 . S
C150 C149 1.351 . S
C151 O135 1.276 . S
C151 O138 1.235 . S
C152 C153 1.393 . S
C152 C156 1.395 . S
C152 C159 1.492 . S
C153 C152 1.393 . S
C153 C154 1.392 . S
C153 H164 0.930 . S
C154 C153 1.392 . S
C154 C155 1.386 . S
C155 C154 1.386 . S
C155 C157 1.395 . S
C155 H165 0.930 . S
C156 C152 1.395 . S
C156 C157 1.379 . S
C156 H166 0.930 . S
C157 C155 1.395 . S
C157 C156 1.379 . S
C157 H167 0.930 . S
C158 O136 1.264 . S
C158 O137 1.254 . S
C159 Eu95 2.848 . S
C159 O134 1.257 . S
C159 O139 1.249 . S
C159 C152 1.492 . S
H160 C143 0.930 . S
H161 C144 0.930 . S
H162 C145 0.930 . S
H163 C146 0.930 . S
H164 C153 0.930 . S
H165 C155 0.930 . S
H166 C156 0.930 . S
H167 C157 0.930 . S
Eu168 N199 2.657 . S
Eu168 N206 2.609 . S
Eu168 O212 2.558 . S
Eu168 O213 2.612 . S
Eu168 O215 2.339 . S
Eu168 O216 2.563 . S
Eu168 O217 2.419 . S
Eu168 O219 2.380 . S
Eu168 O220 2.432 . S
Eu168 C232 2.848 . S
C169 C172 1.429 . S
C169 C173 1.411 . S
C169 N176 1.377 . S
C170 C172 1.420 . S
C170 C174 1.423 . S
C170 C182 1.392 . S
C171 C173 1.420 . S
C171 C174 1.351 . S
C171 H194 0.931 . S
C172 C169 1.429 . S
C172 C170 1.420 . S
C172 N180 1.362 . S
C173 C169 1.411 . S
C173 C171 1.420 . S
C173 C178 1.395 . S
C174 C170 1.423 . S
C174 C171 1.351 . S
C174 H186 0.930 . S
C175 C177 1.400 . S
C175 C178 1.386 . S
C175 H187 0.930 . S
N176 C169 1.377 . S
N176 C177 1.321 . S
N176 Eu179 2.609 . S
C177 C175 1.400 . S
C177 N176 1.321 . S
C177 H184 0.930 . S
C178 C173 1.395 . S
C178 C175 1.386 . S
C178 H197 0.930 . S
Eu179 N176 2.609 . S
Eu179 N180 2.657 . S
Eu179 O213 2.380 . S
Eu179 O214 2.432 . S
Eu179 O218 2.558 . S
Eu179 O219 2.612 . S
Eu179 O221 2.339 . S
Eu179 O222 2.563 . S
Eu179 O223 2.419 . S
Eu179 C243 2.848 . S
N180 C172 1.362 . S
N180 Eu179 2.657 . S
N180 C181 1.334 . S
C181 N180 1.334 . S
C181 C183 1.413 . S
C181 H188 0.929 . S
C182 C170 1.392 . S
C182 C183 1.367 . S
C182 H190 0.930 . S
C183 C181 1.413 . S
C183 C182 1.367 . S
C183 H185 0.930 . S
H184 C177 0.930 . S
H185 C183 0.930 . S
H186 C174 0.930 . S
H187 C175 0.930 . S
H188 C181 0.929 . S
H189 C203 0.930 . S
H190 C182 0.930 . S
H191 C209 0.930 . S
H192 C200 0.929 . S
H193 C207 0.930 . S
H194 C171 0.931 . S
H195 C201 0.930 . S
H196 C234 0.930 . S
H197 C178 0.930 . S
H198 C233 0.931 . S
N199 Eu168 2.657 . S
N199 C200 1.334 . S
N199 C204 1.362 . S
C200 H192 0.929 . S
C200 N199 1.334 . S
C200 C203 1.413 . S
C201 H195 0.930 . S
C201 C202 1.392 . S
C201 C203 1.367 . S
C202 C201 1.392 . S
C202 C204 1.420 . S
C202 C234 1.423 . S
C203 H189 0.930 . S
C203 C200 1.413 . S
C203 C201 1.367 . S
C204 N199 1.362 . S
C204 C202 1.420 . S
C204 C208 1.429 . S
H205 C210 0.930 . S
N206 Eu168 2.609 . S
N206 C208 1.377 . S
N206 C209 1.321 . S
C207 H193 0.930 . S
C207 C209 1.400 . S
C207 C210 1.386 . S
C208 C204 1.429 . S
C208 N206 1.377 . S
C208 C211 1.411 . S
C209 H191 0.930 . S
C209 N206 1.321 . S
C209 C207 1.400 . S
C210 H205 0.930 . S
C210 C207 1.386 . S
C210 C211 1.395 . S
C211 C208 1.411 . S
C211 C210 1.395 . S
C211 C233 1.420 . S
O212 Eu168 2.558 . S
O212 C232 1.257 . S
O213 Eu168 2.612 . S
O213 Eu179 2.380 . S
O213 C224 1.276 . S
O214 Eu179 2.432 . S
O214 C231 1.264 . S
O215 Eu168 2.339 . S
O215 C231 1.254 . S
O216 Eu168 2.563 . S
O216 C224 1.235 . S
O217 Eu168 2.419 . S
O217 C232 1.249 . S
O218 Eu179 2.558 . S
O218 C243 1.257 . S
O219 Eu168 2.380 . S
O219 Eu179 2.612 . S
O219 C235 1.276 . S
O220 Eu168 2.432 . S
O220 C242 1.264 . S
O221 Eu179 2.339 . S
O221 C242 1.254 . S
O222 Eu179 2.563 . S
O222 C235 1.235 . S
O223 Eu179 2.419 . S
O223 C243 1.249 . S
C224 O213 1.276 . S
C224 O216 1.235 . S
C225 C227 1.393 . S
C225 C229 1.395 . S
C225 C232 1.492 . S
C226 C227 1.392 . S
C226 C228 1.386 . S
C227 C225 1.393 . S
C227 C226 1.392 . S
C227 H244 0.930 . S
C228 C226 1.386 . S
C228 C230 1.395 . S
C228 H245 0.930 . S
C229 C225 1.395 . S
C229 C230 1.379 . S
C229 H246 0.930 . S
C230 C228 1.395 . S
C230 C229 1.379 . S
C230 H247 0.930 . S
C231 O214 1.264 . S
C231 O215 1.254 . S
C232 Eu168 2.848 . S
C232 O212 1.257 . S
C232 O217 1.249 . S
C232 C225 1.492 . S
C233 H198 0.931 . S
C233 C211 1.420 . S
C233 C234 1.351 . S
C234 H196 0.930 . S
C234 C202 1.423 . S
C234 C233 1.351 . S
C235 O219 1.276 . S
C235 O222 1.235 . S
C236 C237 1.393 . S
C236 C240 1.395 . S
C236 C243 1.492 . S
C237 C236 1.393 . S
C237 C238 1.392 . S
C237 H248 0.930 . S
C238 C237 1.392 . S
C238 C239 1.386 . S
C239 C238 1.386 . S
C239 C241 1.395 . S
C239 H249 0.930 . S
C240 C236 1.395 . S
C240 C241 1.379 . S
C240 H250 0.930 . S
C241 C239 1.395 . S
C241 C240 1.379 . S
C241 H251 0.930 . S
C242 O220 1.264 . S
C242 O221 1.254 . S
C243 Eu179 2.848 . S
C243 O218 1.257 . S
C243 O223 1.249 . S
C243 C236 1.492 . S
H244 C227 0.930 . S
H245 C228 0.930 . S
H246 C229 0.930 . S
H247 C230 0.930 . S
H248 C237 0.930 . S
H249 C239 0.930 . S
H250 C240 0.930 . S
H251 C241 0.930 . S
Eu252 N283 2.657 . S
Eu252 N290 2.609 . S
Eu252 O296 2.558 . S
Eu252 O297 2.612 . S
Eu252 O299 2.339 . S
Eu252 O300 2.563 . S
Eu252 O301 2.419 . S
Eu252 O303 2.380 . S
Eu252 O304 2.432 . S
Eu252 C316 2.848 . S
C253 C256 1.429 . S
C253 C257 1.411 . S
C253 N260 1.377 . S
C254 C256 1.420 . S
C254 C258 1.423 . S
C254 C266 1.392 . S
C255 C257 1.420 . S
C255 C258 1.351 . S
C255 H278 0.931 . S
C256 C253 1.429 . S
C256 C254 1.420 . S
C256 N264 1.362 . S
C257 C253 1.411 . S
C257 C255 1.420 . S
C257 C262 1.395 . S
C258 C254 1.423 . S
C258 C255 1.351 . S
C258 H270 0.930 . S
C259 C261 1.400 . S
C259 C262 1.386 . S
C259 H271 0.930 . S
N260 C253 1.377 . S
N260 C261 1.321 . S
N260 Eu263 2.609 . S
C261 C259 1.400 . S
C261 N260 1.321 . S
C261 H268 0.930 . S
C262 C257 1.395 . S
C262 C259 1.386 . S
C262 H281 0.930 . S
Eu263 N260 2.609 . S
Eu263 N264 2.657 . S
Eu263 O297 2.380 . S
Eu263 O298 2.432 . S
Eu263 O302 2.558 . S
Eu263 O303 2.612 . S
Eu263 O305 2.339 . S
Eu263 O306 2.563 . S
Eu263 O307 2.419 . S
Eu263 C327 2.848 . S
N264 C256 1.362 . S
N264 Eu263 2.657 . S
N264 C265 1.334 . S
C265 N264 1.334 . S
C265 C267 1.413 . S
C265 H272 0.929 . S
C266 C254 1.392 . S
C266 C267 1.367 . S
C266 H274 0.930 . S
C267 C265 1.413 . S
C267 C266 1.367 . S
C267 H269 0.930 . S
H268 C261 0.930 . S
H269 C267 0.930 . S
H270 C258 0.930 . S
H271 C259 0.930 . S
H272 C265 0.929 . S
H273 C287 0.930 . S
H274 C266 0.930 . S
H275 C293 0.930 . S
H276 C284 0.929 . S
H277 C291 0.930 . S
H278 C255 0.931 . S
H279 C285 0.930 . S
H280 C318 0.930 . S
H281 C262 0.930 . S
H282 C317 0.931 . S
N283 Eu252 2.657 . S
N283 C284 1.334 . S
N283 C288 1.362 . S
C284 H276 0.929 . S
C284 N283 1.334 . S
C284 C287 1.413 . S
C285 H279 0.930 . S
C285 C286 1.392 . S
C285 C287 1.367 . S
C286 C285 1.392 . S
C286 C288 1.420 . S
C286 C318 1.423 . S
C287 H273 0.930 . S
C287 C284 1.413 . S
C287 C285 1.367 . S
C288 N283 1.362 . S
C288 C286 1.420 . S
C288 C292 1.429 . S
H289 C294 0.930 . S
N290 Eu252 2.609 . S
N290 C292 1.377 . S
N290 C293 1.321 . S
C291 H277 0.930 . S
C291 C293 1.400 . S
C291 C294 1.386 . S
C292 C288 1.429 . S
C292 N290 1.377 . S
C292 C295 1.411 . S
C293 H275 0.930 . S
C293 N290 1.321 . S
C293 C291 1.400 . S
C294 H289 0.930 . S
C294 C291 1.386 . S
C294 C295 1.395 . S
C295 C292 1.411 . S
C295 C294 1.395 . S
C295 C317 1.420 . S
O296 Eu252 2.558 . S
O296 C316 1.257 . S
O297 Eu252 2.612 . S
O297 Eu263 2.380 . S
O297 C308 1.276 . S
O298 Eu263 2.432 . S
O298 C315 1.264 . S
O299 Eu252 2.339 . S
O299 C315 1.254 . S
O300 Eu252 2.563 . S
O300 C308 1.235 . S
O301 Eu252 2.419 . S
O301 C316 1.249 . S
O302 Eu263 2.558 . S
O302 C327 1.257 . S
O303 Eu252 2.380 . S
O303 Eu263 2.612 . S
O303 C319 1.276 . S
O304 Eu252 2.432 . S
O304 C326 1.264 . S
O305 Eu263 2.339 . S
O305 C326 1.254 . S
O306 Eu263 2.563 . S
O306 C319 1.235 . S
O307 Eu263 2.419 . S
O307 C327 1.249 . S
C308 O297 1.276 . S
C308 O300 1.235 . S
C309 C311 1.393 . S
C309 C313 1.395 . S
C309 C316 1.492 . S
C310 C311 1.392 . S
C310 C312 1.386 . S
C311 C309 1.393 . S
C311 C310 1.392 . S
C311 H328 0.930 . S
C312 C310 1.386 . S
C312 C314 1.395 . S
C312 H329 0.930 . S
C313 C309 1.395 . S
C313 C314 1.379 . S
C313 H330 0.930 . S
C314 C312 1.395 . S
C314 C313 1.379 . S
C314 H331 0.930 . S
C315 O298 1.264 . S
C315 O299 1.254 . S
C316 Eu252 2.848 . S
C316 O296 1.257 . S
C316 O301 1.249 . S
C316 C309 1.492 . S
C317 H282 0.931 . S
C317 C295 1.420 . S
C317 C318 1.351 . S
C318 H280 0.930 . S
C318 C286 1.423 . S
C318 C317 1.351 . S
C319 O303 1.276 . S
C319 O306 1.235 . S
C320 C321 1.393 . S
C320 C324 1.395 . S
C320 C327 1.492 . S
C321 C320 1.393 . S
C321 C322 1.392 . S
C321 H332 0.930 . S
C322 C321 1.392 . S
C322 C323 1.386 . S
C323 C322 1.386 . S
C323 C325 1.395 . S
C323 H333 0.930 . S
C324 C320 1.395 . S
C324 C325 1.379 . S
C324 H334 0.930 . S
C325 C323 1.395 . S
C325 C324 1.379 . S
C325 H335 0.930 . S
C326 O304 1.264 . S
C326 O305 1.254 . S
C327 Eu263 2.848 . S
C327 O302 1.257 . S
C327 O307 1.249 . S
C327 C320 1.492 . S
H328 C311 0.930 . S
H329 C312 0.930 . S
H330 C313 0.930 . S
H331 C314 0.930 . S
H332 C321 0.930 . S
H333 C323 0.930 . S
H334 C324 0.930 . S
H335 C325 0.930 . S
Eu336 N367 2.657 . S
Eu336 N374 2.609 . S
Eu336 O380 2.558 . S
Eu336 O381 2.612 . S
Eu336 O383 2.339 . S
Eu336 O384 2.563 . S
Eu336 O385 2.419 . S
Eu336 O387 2.380 . S
Eu336 O388 2.432 . S
Eu336 C400 2.848 . S
C337 C340 1.429 . S
C337 C341 1.411 . S
C337 N344 1.377 . S
C338 C340 1.420 . S
C338 C342 1.423 . S
C338 C350 1.392 . S
C339 C341 1.420 . S
C339 C342 1.351 . S
C339 H362 0.931 . S
C340 C337 1.429 . S
C340 C338 1.420 . S
C340 N348 1.362 . S
C341 C337 1.411 . S
C341 C339 1.420 . S
C341 C346 1.395 . S
C342 C338 1.423 . S
C342 C339 1.351 . S
C342 H354 0.930 . S
C343 C345 1.400 . S
C343 C346 1.386 . S
C343 H355 0.930 . S
N344 C337 1.377 . S
N344 C345 1.321 . S
N344 Eu347 2.609 . S
C345 C343 1.400 . S
C345 N344 1.321 . S
C345 H352 0.930 . S
C346 C341 1.395 . S
C346 C343 1.386 . S
C346 H365 0.930 . S
Eu347 N344 2.609 . S
Eu347 N348 2.657 . S
Eu347 O381 2.380 . S
Eu347 O382 2.432 . S
Eu347 O386 2.558 . S
Eu347 O387 2.612 . S
Eu347 O389 2.339 . S
Eu347 O390 2.563 . S
Eu347 O391 2.419 . S
Eu347 C411 2.848 . S
N348 C340 1.362 . S
N348 Eu347 2.657 . S
N348 C349 1.334 . S
C349 N348 1.334 . S
C349 C351 1.413 . S
C349 H356 0.929 . S
C350 C338 1.392 . S
C350 C351 1.367 . S
C350 H358 0.930 . S
C351 C349 1.413 . S
C351 C350 1.367 . S
C351 H353 0.930 . S
H352 C345 0.930 . S
H353 C351 0.930 . S
H354 C342 0.930 . S
H355 C343 0.930 . S
H356 C349 0.929 . S
H357 C371 0.930 . S
H358 C350 0.930 . S
H359 C377 0.930 . S
H360 C368 0.929 . S
H361 C375 0.930 . S
H362 C339 0.931 . S
H363 C369 0.930 . S
H364 C402 0.930 . S
H365 C346 0.930 . S
H366 C401 0.931 . S
N367 Eu336 2.657 . S
N367 C368 1.334 . S
N367 C372 1.362 . S
C368 H360 0.929 . S
C368 N367 1.334 . S
C368 C371 1.413 . S
C369 H363 0.930 . S
C369 C370 1.392 . S
C369 C371 1.367 . S
C370 C369 1.392 . S
C370 C372 1.420 . S
C370 C402 1.423 . S
C371 H357 0.930 . S
C371 C368 1.413 . S
C371 C369 1.367 . S
C372 N367 1.362 . S
C372 C370 1.420 . S
C372 C376 1.429 . S
H373 C378 0.930 . S
N374 Eu336 2.609 . S
N374 C376 1.377 . S
N374 C377 1.321 . S
C375 H361 0.930 . S
C375 C377 1.400 . S
C375 C378 1.386 . S
C376 C372 1.429 . S
C376 N374 1.377 . S
C376 C379 1.411 . S
C377 H359 0.930 . S
C377 N374 1.321 . S
C377 C375 1.400 . S
C378 H373 0.930 . S
C378 C375 1.386 . S
C378 C379 1.395 . S
C379 C376 1.411 . S
C379 C378 1.395 . S
C379 C401 1.420 . S
O380 Eu336 2.558 . S
O380 C400 1.257 . S
O381 Eu336 2.612 . S
O381 Eu347 2.380 . S
O381 C392 1.276 . S
O382 Eu347 2.432 . S
O382 C399 1.264 . S
O383 Eu336 2.339 . S
O383 C399 1.254 . S
O384 Eu336 2.563 . S
O384 C392 1.235 . S
O385 Eu336 2.419 . S
O385 C400 1.249 . S
O386 Eu347 2.558 . S
O386 C411 1.257 . S
O387 Eu336 2.380 . S
O387 Eu347 2.612 . S
O387 C403 1.276 . S
O388 Eu336 2.432 . S
O388 C410 1.264 . S
O389 Eu347 2.339 . S
O389 C410 1.254 . S
O390 Eu347 2.563 . S
O390 C403 1.235 . S
O391 Eu347 2.419 . S
O391 C411 1.249 . S
C392 O381 1.276 . S
C392 O384 1.235 . S
C393 C395 1.393 . S
C393 C397 1.395 . S
C393 C400 1.492 . S
C394 C395 1.392 . S
C394 C396 1.386 . S
C395 C393 1.393 . S
C395 C394 1.392 . S
C395 H412 0.930 . S
C396 C394 1.386 . S
C396 C398 1.395 . S
C396 H413 0.930 . S
C397 C393 1.395 . S
C397 C398 1.379 . S
C397 H414 0.930 . S
C398 C396 1.395 . S
C398 C397 1.379 . S
C398 H415 0.930 . S
C399 O382 1.264 . S
C399 O383 1.254 . S
C400 Eu336 2.848 . S
C400 O380 1.257 . S
C400 O385 1.249 . S
C400 C393 1.492 . S
C401 H366 0.931 . S
C401 C379 1.420 . S
C401 C402 1.351 . S
C402 H364 0.930 . S
C402 C370 1.423 . S
C402 C401 1.351 . S
C403 O387 1.276 . S
C403 O390 1.235 . S
C404 C405 1.393 . S
C404 C408 1.395 . S
C404 C411 1.492 . S
C405 C404 1.393 . S
C405 C406 1.392 . S
C405 H416 0.930 . S
C406 C405 1.392 . S
C406 C407 1.386 . S
C407 C406 1.386 . S
C407 C409 1.395 . S
C407 H417 0.930 . S
C408 C404 1.395 . S
C408 C409 1.379 . S
C408 H418 0.930 . S
C409 C407 1.395 . S
C409 C408 1.379 . S
C409 H419 0.930 . S
C410 O388 1.264 . S
C410 O389 1.254 . S
C411 Eu347 2.848 . S
C411 O386 1.257 . S
C411 O391 1.249 . S
C411 C404 1.492 . S
H412 C395 0.930 . S
H413 C396 0.930 . S
H414 C397 0.930 . S
H415 C398 0.930 . S
H416 C405 0.930 . S
H417 C407 0.930 . S
H418 C408 0.930 . S
H419 C409 0.930 . S
Eu420 N451 2.657 . S
Eu420 N458 2.609 . S
Eu420 O464 2.558 . S
Eu420 O465 2.612 . S
Eu420 O467 2.339 . S
Eu420 O468 2.563 . S
Eu420 O469 2.419 . S
Eu420 O471 2.380 . S
Eu420 O472 2.432 . S
Eu420 C484 2.848 . S
C421 C424 1.429 . S
C421 C425 1.411 . S
C421 N428 1.377 . S
C422 C424 1.420 . S
C422 C426 1.423 . S
C422 C434 1.392 . S
C423 C425 1.420 . S
C423 C426 1.351 . S
C423 H446 0.931 . S
C424 C421 1.429 . S
C424 C422 1.420 . S
C424 N432 1.362 . S
C425 C421 1.411 . S
C425 C423 1.420 . S
C425 C430 1.395 . S
C426 C422 1.423 . S
C426 C423 1.351 . S
C426 H438 0.930 . S
C427 C429 1.400 . S
C427 C430 1.386 . S
C427 H439 0.930 . S
N428 C421 1.377 . S
N428 C429 1.321 . S
N428 Eu431 2.609 . S
C429 C427 1.400 . S
C429 N428 1.321 . S
C429 H436 0.930 . S
C430 C425 1.395 . S
C430 C427 1.386 . S
C430 H449 0.930 . S
Eu431 N428 2.609 . S
Eu431 N432 2.657 . S
Eu431 O465 2.380 . S
Eu431 O466 2.432 . S
Eu431 O470 2.558 . S
Eu431 O471 2.612 . S
Eu431 O473 2.339 . S
Eu431 O474 2.563 . S
Eu431 O475 2.419 . S
Eu431 C495 2.848 . S
N432 C424 1.362 . S
N432 Eu431 2.657 . S
N432 C433 1.334 . S
C433 N432 1.334 . S
C433 C435 1.413 . S
C433 H440 0.929 . S
C434 C422 1.392 . S
C434 C435 1.367 . S
C434 H442 0.930 . S
C435 C433 1.413 . S
C435 C434 1.367 . S
C435 H437 0.930 . S
H436 C429 0.930 . S
H437 C435 0.930 . S
H438 C426 0.930 . S
H439 C427 0.930 . S
H440 C433 0.929 . S
H441 C455 0.930 . S
H442 C434 0.930 . S
H443 C461 0.930 . S
H444 C452 0.929 . S
H445 C459 0.930 . S
H446 C423 0.931 . S
H447 C453 0.930 . S
H448 C486 0.930 . S
H449 C430 0.930 . S
H450 C485 0.931 . S
N451 Eu420 2.657 . S
N451 C452 1.334 . S
N451 C456 1.362 . S
C452 H444 0.929 . S
C452 N451 1.334 . S
C452 C455 1.413 . S
C453 H447 0.930 . S
C453 C454 1.392 . S
C453 C455 1.367 . S
C454 C453 1.392 . S
C454 C456 1.420 . S
C454 C486 1.423 . S
C455 H441 0.930 . S
C455 C452 1.413 . S
C455 C453 1.367 . S
C456 N451 1.362 . S
C456 C454 1.420 . S
C456 C460 1.429 . S
H457 C462 0.930 . S
N458 Eu420 2.609 . S
N458 C460 1.377 . S
N458 C461 1.321 . S
C459 H445 0.930 . S
C459 C461 1.400 . S
C459 C462 1.386 . S
C460 C456 1.429 . S
C460 N458 1.377 . S
C460 C463 1.411 . S
C461 H443 0.930 . S
C461 N458 1.321 . S
C461 C459 1.400 . S
C462 H457 0.930 . S
C462 C459 1.386 . S
C462 C463 1.395 . S
C463 C460 1.411 . S
C463 C462 1.395 . S
C463 C485 1.420 . S
O464 Eu420 2.558 . S
O464 C484 1.257 . S
O465 Eu420 2.612 . S
O465 Eu431 2.380 . S
O465 C476 1.276 . S
O466 Eu431 2.432 . S
O466 C483 1.264 . S
O467 Eu420 2.339 . S
O467 C483 1.254 . S
O468 Eu420 2.563 . S
O468 C476 1.235 . S
O469 Eu420 2.419 . S
O469 C484 1.249 . S
O470 Eu431 2.558 . S
O470 C495 1.257 . S
O471 Eu420 2.380 . S
O471 Eu431 2.612 . S
O471 C487 1.276 . S
O472 Eu420 2.432 . S
O472 C494 1.264 . S
O473 Eu431 2.339 . S
O473 C494 1.254 . S
O474 Eu431 2.563 . S
O474 C487 1.235 . S
O475 Eu431 2.419 . S
O475 C495 1.249 . S
C476 O465 1.276 . S
C476 O468 1.235 . S
C477 C479 1.393 . S
C477 C481 1.395 . S
C477 C484 1.492 . S
C478 C479 1.392 . S
C478 C480 1.386 . S
C479 C477 1.393 . S
C479 C478 1.392 . S
C479 H496 0.930 . S
C480 C478 1.386 . S
C480 C482 1.395 . S
C480 H497 0.930 . S
C481 C477 1.395 . S
C481 C482 1.379 . S
C481 H498 0.930 . S
C482 C480 1.395 . S
C482 C481 1.379 . S
C482 H499 0.930 . S
C483 O466 1.264 . S
C483 O467 1.254 . S
C484 Eu420 2.848 . S
C484 O464 1.257 . S
C484 O469 1.249 . S
C484 C477 1.492 . S
C485 H450 0.931 . S
C485 C463 1.420 . S
C485 C486 1.351 . S
C486 H448 0.930 . S
C486 C454 1.423 . S
C486 C485 1.351 . S
C487 O471 1.276 . S
C487 O474 1.235 . S
C488 C489 1.393 . S
C488 C492 1.395 . S
C488 C495 1.492 . S
C489 C488 1.393 . S
C489 C490 1.392 . S
C489 H500 0.930 . S
C490 C489 1.392 . S
C490 C491 1.386 . S
C491 C490 1.386 . S
C491 C493 1.395 . S
C491 H501 0.930 . S
C492 C488 1.395 . S
C492 C493 1.379 . S
C492 H502 0.930 . S
C493 C491 1.395 . S
C493 C492 1.379 . S
C493 H503 0.930 . S
C494 O472 1.264 . S
C494 O473 1.254 . S
C495 Eu431 2.848 . S
C495 O470 1.257 . S
C495 O475 1.249 . S
C495 C488 1.492 . S
H496 C479 0.930 . S
H497 C480 0.930 . S
H498 C481 0.930 . S
H499 C482 0.930 . S
H500 C489 0.930 . S
H501 C491 0.930 . S
H502 C492 0.930 . S
H503 C493 0.930 . S
Eu504 N535 2.657 . S
Eu504 N542 2.609 . S
Eu504 O548 2.558 . S
Eu504 O549 2.612 . S
Eu504 O551 2.339 . S
Eu504 O552 2.563 . S
Eu504 O553 2.419 . S
Eu504 O555 2.380 . S
Eu504 O556 2.432 . S
Eu504 C568 2.848 . S
C505 C508 1.429 . S
C505 C509 1.411 . S
C505 N512 1.377 . S
C506 C508 1.420 . S
C506 C510 1.423 . S
C506 C518 1.392 . S
C507 C509 1.420 . S
C507 C510 1.351 . S
C507 H530 0.931 . S
C508 C505 1.429 . S
C508 C506 1.420 . S
C508 N516 1.362 . S
C509 C505 1.411 . S
C509 C507 1.420 . S
C509 C514 1.395 . S
C510 C506 1.423 . S
C510 C507 1.351 . S
C510 H522 0.930 . S
C511 C513 1.400 . S
C511 C514 1.386 . S
C511 H523 0.930 . S
N512 C505 1.377 . S
N512 C513 1.321 . S
N512 Eu515 2.609 . S
C513 C511 1.400 . S
C513 N512 1.321 . S
C513 H520 0.930 . S
C514 C509 1.395 . S
C514 C511 1.386 . S
C514 H533 0.930 . S
Eu515 N512 2.609 . S
Eu515 N516 2.657 . S
Eu515 O549 2.380 . S
Eu515 O550 2.432 . S
Eu515 O554 2.558 . S
Eu515 O555 2.612 . S
Eu515 O557 2.339 . S
Eu515 O558 2.563 . S
Eu515 O559 2.419 . S
Eu515 C579 2.848 . S
N516 C508 1.362 . S
N516 Eu515 2.657 . S
N516 C517 1.334 . S
C517 N516 1.334 . S
C517 C519 1.413 . S
C517 H524 0.929 . S
C518 C506 1.392 . S
C518 C519 1.367 . S
C518 H526 0.930 . S
C519 C517 1.413 . S
C519 C518 1.367 . S
C519 H521 0.930 . S
H520 C513 0.930 . S
H521 C519 0.930 . S
H522 C510 0.930 . S
H523 C511 0.930 . S
H524 C517 0.929 . S
H525 C539 0.930 . S
H526 C518 0.930 . S
H527 C545 0.930 . S
H528 C536 0.929 . S
H529 C543 0.930 . S
H530 C507 0.931 . S
H531 C537 0.930 . S
H532 C570 0.930 . S
H533 C514 0.930 . S
H534 C569 0.931 . S
N535 Eu504 2.657 . S
N535 C536 1.334 . S
N535 C540 1.362 . S
C536 H528 0.929 . S
C536 N535 1.334 . S
C536 C539 1.413 . S
C537 H531 0.930 . S
C537 C538 1.392 . S
C537 C539 1.367 . S
C538 C537 1.392 . S
C538 C540 1.420 . S
C538 C570 1.423 . S
C539 H525 0.930 . S
C539 C536 1.413 . S
C539 C537 1.367 . S
C540 N535 1.362 . S
C540 C538 1.420 . S
C540 C544 1.429 . S
H541 C546 0.930 . S
N542 Eu504 2.609 . S
N542 C544 1.377 . S
N542 C545 1.321 . S
C543 H529 0.930 . S
C543 C545 1.400 . S
C543 C546 1.386 . S
C544 C540 1.429 . S
C544 N542 1.377 . S
C544 C547 1.411 . S
C545 H527 0.930 . S
C545 N542 1.321 . S
C545 C543 1.400 . S
C546 H541 0.930 . S
C546 C543 1.386 . S
C546 C547 1.395 . S
C547 C544 1.411 . S
C547 C546 1.395 . S
C547 C569 1.420 . S
O548 Eu504 2.558 . S
O548 C568 1.257 . S
O549 Eu504 2.612 . S
O549 Eu515 2.380 . S
O549 C560 1.276 . S
O550 Eu515 2.432 . S
O550 C567 1.264 . S
O551 Eu504 2.339 . S
O551 C567 1.254 . S
O552 Eu504 2.563 . S
O552 C560 1.235 . S
O553 Eu504 2.419 . S
O553 C568 1.249 . S
O554 Eu515 2.558 . S
O554 C579 1.257 . S
O555 Eu504 2.380 . S
O555 Eu515 2.612 . S
O555 C571 1.276 . S
O556 Eu504 2.432 . S
O556 C578 1.264 . S
O557 Eu515 2.339 . S
O557 C578 1.254 . S
O558 Eu515 2.563 . S
O558 C571 1.235 . S
O559 Eu515 2.419 . S
O559 C579 1.249 . S
C560 O549 1.276 . S
C560 O552 1.235 . S
C561 C563 1.393 . S
C561 C565 1.395 . S
C561 C568 1.492 . S
C562 C563 1.392 . S
C562 C564 1.386 . S
C563 C561 1.393 . S
C563 C562 1.392 . S
C563 H580 0.930 . S
C564 C562 1.386 . S
C564 C566 1.395 . S
C564 H581 0.930 . S
C565 C561 1.395 . S
C565 C566 1.379 . S
C565 H582 0.930 . S
C566 C564 1.395 . S
C566 C565 1.379 . S
C566 H583 0.930 . S
C567 O550 1.264 . S
C567 O551 1.254 . S
C568 Eu504 2.848 . S
C568 O548 1.257 . S
C568 O553 1.249 . S
C568 C561 1.492 . S
C569 H534 0.931 . S
C569 C547 1.420 . S
C569 C570 1.351 . S
C570 H532 0.930 . S
C570 C538 1.423 . S
C570 C569 1.351 . S
C571 O555 1.276 . S
C571 O558 1.235 . S
C572 C573 1.393 . S
C572 C576 1.395 . S
C572 C579 1.492 . S
C573 C572 1.393 . S
C573 C574 1.392 . S
C573 H584 0.930 . S
C574 C573 1.392 . S
C574 C575 1.386 . S
C575 C574 1.386 . S
C575 C577 1.395 . S
C575 H585 0.930 . S
C576 C572 1.395 . S
C576 C577 1.379 . S
C576 H586 0.930 . S
C577 C575 1.395 . S
C577 C576 1.379 . S
C577 H587 0.930 . S
C578 O556 1.264 . S
C578 O557 1.254 . S
C579 Eu515 2.848 . S
C579 O554 1.257 . S
C579 O559 1.249 . S
C579 C572 1.492 . S
H580 C563 0.930 . S
H581 C564 0.930 . S
H582 C565 0.930 . S
H583 C566 0.930 . S
H584 C573 0.930 . S
H585 C575 0.930 . S
H586 C576 0.930 . S
H587 C577 0.930 . S
Eu588 N619 2.657 . S
Eu588 N626 2.609 . S
Eu588 O632 2.558 . S
Eu588 O633 2.612 . S
Eu588 O635 2.339 . S
Eu588 O636 2.563 . S
Eu588 O637 2.419 . S
Eu588 O639 2.380 . S
Eu588 O640 2.432 . S
Eu588 C652 2.848 . S
C589 C592 1.429 . S
C589 C593 1.411 . S
C589 N596 1.377 . S
C590 C592 1.420 . S
C590 C594 1.423 . S
C590 C602 1.392 . S
C591 C593 1.420 . S
C591 C594 1.351 . S
C591 H614 0.931 . S
C592 C589 1.429 . S
C592 C590 1.420 . S
C592 N600 1.362 . S
C593 C589 1.411 . S
C593 C591 1.420 . S
C593 C598 1.395 . S
C594 C590 1.423 . S
C594 C591 1.351 . S
C594 H606 0.930 . S
C595 C597 1.400 . S
C595 C598 1.386 . S
C595 H607 0.930 . S
N596 C589 1.377 . S
N596 C597 1.321 . S
N596 Eu599 2.609 . S
C597 C595 1.400 . S
C597 N596 1.321 . S
C597 H604 0.930 . S
C598 C593 1.395 . S
C598 C595 1.386 . S
C598 H617 0.930 . S
Eu599 N596 2.609 . S
Eu599 N600 2.657 . S
Eu599 O633 2.380 . S
Eu599 O634 2.432 . S
Eu599 O638 2.558 . S
Eu599 O639 2.612 . S
Eu599 O641 2.339 . S
Eu599 O642 2.563 . S
Eu599 O643 2.419 . S
Eu599 C663 2.848 . S
N600 C592 1.362 . S
N600 Eu599 2.657 . S
N600 C601 1.334 . S
C601 N600 1.334 . S
C601 C603 1.413 . S
C601 H608 0.929 . S
C602 C590 1.392 . S
C602 C603 1.367 . S
C602 H610 0.930 . S
C603 C601 1.413 . S
C603 C602 1.367 . S
C603 H605 0.930 . S
H604 C597 0.930 . S
H605 C603 0.930 . S
H606 C594 0.930 . S
H607 C595 0.930 . S
H608 C601 0.929 . S
H609 C623 0.930 . S
H610 C602 0.930 . S
H611 C629 0.930 . S
H612 C620 0.929 . S
H613 C627 0.930 . S
H614 C591 0.931 . S
H615 C621 0.930 . S
H616 C654 0.930 . S
H617 C598 0.930 . S
H618 C653 0.931 . S
N619 Eu588 2.657 . S
N619 C620 1.334 . S
N619 C624 1.362 . S
C620 H612 0.929 . S
C620 N619 1.334 . S
C620 C623 1.413 . S
C621 H615 0.930 . S
C621 C622 1.392 . S
C621 C623 1.367 . S
C622 C621 1.392 . S
C622 C624 1.420 . S
C622 C654 1.423 . S
C623 H609 0.930 . S
C623 C620 1.413 . S
C623 C621 1.367 . S
C624 N619 1.362 . S
C624 C622 1.420 . S
C624 C628 1.429 . S
H625 C630 0.930 . S
N626 Eu588 2.609 . S
N626 C628 1.377 . S
N626 C629 1.321 . S
C627 H613 0.930 . S
C627 C629 1.400 . S
C627 C630 1.386 . S
C628 C624 1.429 . S
C628 N626 1.377 . S
C628 C631 1.411 . S
C629 H611 0.930 . S
C629 N626 1.321 . S
C629 C627 1.400 . S
C630 H625 0.930 . S
C630 C627 1.386 . S
C630 C631 1.395 . S
C631 C628 1.411 . S
C631 C630 1.395 . S
C631 C653 1.420 . S
O632 Eu588 2.558 . S
O632 C652 1.257 . S
O633 Eu588 2.612 . S
O633 Eu599 2.380 . S
O633 C644 1.276 . S
O634 Eu599 2.432 . S
O634 C651 1.264 . S
O635 Eu588 2.339 . S
O635 C651 1.254 . S
O636 Eu588 2.563 . S
O636 C644 1.235 . S
O637 Eu588 2.419 . S
O637 C652 1.249 . S
O638 Eu599 2.558 . S
O638 C663 1.257 . S
O639 Eu588 2.380 . S
O639 Eu599 2.612 . S
O639 C655 1.276 . S
O640 Eu588 2.432 . S
O640 C662 1.264 . S
O641 Eu599 2.339 . S
O641 C662 1.254 . S
O642 Eu599 2.563 . S
O642 C655 1.235 . S
O643 Eu599 2.419 . S
O643 C663 1.249 . S
C644 O633 1.276 . S
C644 O636 1.235 . S
C645 C647 1.393 . S
C645 C649 1.395 . S
C645 C652 1.492 . S
C646 C647 1.392 . S
C646 C648 1.386 . S
C647 C645 1.393 . S
C647 C646 1.392 . S
C647 H664 0.930 . S
C648 C646 1.386 . S
C648 C650 1.395 . S
C648 H665 0.930 . S
C649 C645 1.395 . S
C649 C650 1.379 . S
C649 H666 0.930 . S
C650 C648 1.395 . S
C650 C649 1.379 . S
C650 H667 0.930 . S
C651 O634 1.264 . S
C651 O635 1.254 . S
C652 Eu588 2.848 . S
C652 O632 1.257 . S
C652 O637 1.249 . S
C652 C645 1.492 . S
C653 H618 0.931 . S
C653 C631 1.420 . S
C653 C654 1.351 . S
C654 H616 0.930 . S
C654 C622 1.423 . S
C654 C653 1.351 . S
C655 O639 1.276 . S
C655 O642 1.235 . S
C656 C657 1.393 . S
C656 C660 1.395 . S
C656 C663 1.492 . S
C657 C656 1.393 . S
C657 C658 1.392 . S
C657 H668 0.930 . S
C658 C657 1.392 . S
C658 C659 1.386 . S
C659 C658 1.386 . S
C659 C661 1.395 . S
C659 H669 0.930 . S
C660 C656 1.395 . S
C660 C661 1.379 . S
C660 H670 0.930 . S
C661 C659 1.395 . S
C661 C660 1.379 . S
C661 H671 0.930 . S
C662 O640 1.264 . S
C662 O641 1.254 . S
C663 Eu599 2.848 . S
C663 O638 1.257 . S
C663 O643 1.249 . S
C663 C656 1.492 . S
H664 C647 0.930 . S
H665 C648 0.930 . S
H666 C649 0.930 . S
H667 C650 0.930 . S
H668 C657 0.930 . S
H669 C659 0.930 . S
H670 C660 0.930 . S
H671 C661 0.930 . S
C672 O684 1.241 . S
C672 O685 1.280 . S
C673 O686 1.277 . S
C673 O687 1.245 . S
C674 O698 1.247 . S
C674 O700 1.289 . S
Mg675 O676 1.926 . S
Mg675 O685 1.984 . S
Mg675 O687 1.988 . S
Mg675 O688 2.061 1_655 S
O676 Mg675 1.926 . S
O676 Mg677 1.986 1_545 S
O676 Mg678 1.909 1_655 S
Mg677 O676 1.986 1_565 S
Mg677 O684 2.042 1_565 S
Mg677 O686 2.041 1_565 S
Mg677 O692 2.038 . S
Mg677 O700 2.238 . S
Mg678 O676 1.909 1_455 S
Mg678 O679 1.925 1_545 S
Mg678 O689 2.113 . S
Mg678 O691 2.076 1_445 S
Mg678 O700 2.099 1_445 S
Mg678 O701 2.081 . S
O679 Mg678 1.925 1_565 S
O679 Mg680 1.926 . S
O679 Mg681 1.986 1_565 S
Mg680 O679 1.926 . S
Mg680 O694 1.984 . S
Mg680 O697 1.988 . S
Mg680 O698 2.061 1_455 S
Mg681 O679 1.986 1_545 S
Mg681 O689 2.238 . S
Mg681 O693 2.042 1_545 S
Mg681 O695 2.041 1_545 S
Mg681 O702 2.038 . S
C682 O688 1.247 . S
C682 O689 1.289 . S
C683 O701 1.245 . S
C683 O702 1.274 . S
O684 C672 1.241 . S
O684 Mg677 2.042 1_545 S
O685 C672 1.280 . S
O685 Mg675 1.984 . S
O686 C673 1.277 . S
O686 Mg677 2.041 1_545 S
O687 C673 1.245 . S
O687 Mg675 1.988 . S
O688 Mg675 2.061 1_455 S
O688 C682 1.247 . S
O689 Mg678 2.113 . S
O689 Mg681 2.238 . S
O689 C682 1.289 . S
C690 O691 1.245 . S
C690 O692 1.274 . S
O691 Mg678 2.076 1_665 S
O691 C690 1.245 . S
O692 Mg677 2.038 . S
O692 C690 1.274 . S
O693 Mg681 2.042 1_565 S
O693 C696 1.241 . S
O694 Mg680 1.984 . S
O694 C696 1.280 . S
O695 Mg681 2.041 1_565 S
O695 C699 1.277 . S
C696 O693 1.241 . S
C696 O694 1.280 . S
O697 Mg680 1.988 . S
O697 C699 1.245 . S
O698 C674 1.247 . S
O698 Mg680 2.061 1_655 S
C699 O695 1.277 . S
C699 O697 1.245 . S
O700 C674 1.289 . S
O700 Mg677 2.238 . S
O700 Mg678 2.099 1_665 S
O701 Mg678 2.081 . S
O701 C683 1.245 . S
O702 Mg681 2.038 . S
O702 C683 1.274 . S
C703 O715 1.241 . S
C703 O716 1.280 . S
C704 O717 1.277 . S
C704 O718 1.245 . S
C705 O729 1.247 . S
C705 O731 1.289 . S
Mg706 O707 1.926 . S
Mg706 O716 1.984 . S
Mg706 O718 1.988 1_554 S
Mg706 O719 2.061 . S
O707 Mg706 1.926 . S
O707 Mg708 1.986 1_544 S
O707 Mg709 1.917 . S
Mg708 O707 1.986 1_566 S
Mg708 O715 2.042 1_566 S
Mg708 O717 2.041 1_565 S
Mg708 O723 2.038 1_556 S
Mg708 O731 2.238 . S
Mg709 O707 1.917 . S
Mg709 O710 1.917 1_544 S
Mg709 O720 2.106 . S
Mg709 O722 2.079 1_545 S
Mg709 O731 2.106 1_544 S
Mg709 O732 2.079 1_554 S
O710 Mg709 1.917 1_566 S
O710 Mg711 1.926 . S
O710 Mg712 1.986 1_566 S
Mg711 O710 1.926 . S
Mg711 O725 1.984 . S
Mg711 O728 1.988 1_556 S
Mg711 O729 2.061 . S
Mg712 O710 1.986 1_544 S
Mg712 O720 2.238 . S
Mg712 O724 2.042 1_544 S
Mg712 O726 2.041 1_545 S
Mg712 O733 2.038 1_554 S
C713 O719 1.247 . S
C713 O720 1.289 . S
C714 O732 1.245 . S
C714 O733 1.274 . S
O715 C703 1.241 . S
O715 Mg708 2.042 1_544 S
O716 C703 1.280 . S
O716 Mg706 1.984 . S
O717 C704 1.277 . S
O717 Mg708 2.041 1_545 S
O718 C704 1.245 . S
O718 Mg706 1.988 1_556 S
O719 Mg706 2.061 . S
O719 C713 1.247 . S
O720 Mg709 2.106 . S
O720 Mg712 2.238 . S
O720 C713 1.289 . S
C721 O722 1.245 . S
C721 O723 1.274 . S
O722 Mg709 2.079 1_565 S
O722 C721 1.245 . S
O723 Mg708 2.038 1_554 S
O723 C721 1.274 . S
O724 Mg712 2.042 1_566 S
O724 C727 1.241 . S
O725 Mg711 1.984 . S
O725 C727 1.280 . S
O726 Mg712 2.041 1_565 S
O726 C730 1.277 . S
C727 O724 1.241 . S
C727 O725 1.280 . S
O728 Mg711 1.988 1_554 S
O728 C730 1.245 . S
O729 C705 1.247 . S
O729 Mg711 2.061 . S
C730 O726 1.277 . S
C730 O728 1.245 . S
O731 C705 1.289 . S
O731 Mg708 2.238 . S
O731 Mg709 2.106 1_566 S
O732 Mg709 2.079 1_556 S
O732 C714 1.245 . S
O733 Mg712 2.038 1_556 S
O733 C714 1.274 . S
C734 O746 1.241 . S
C734 O747 1.280 . S
C735 O748 1.277 . S
C735 O749 1.245 . S
C736 O760 1.247 . S
C736 O762 1.289 . S
Mg737 O738 1.926 . S
Mg737 O747 1.984 . S
Mg737 O749 1.988 1_554 S
Mg737 O750 2.061 1_655 S
O738 Mg737 1.926 . S
O738 Mg739 1.986 1_554 S
O738 Mg740 1.909 1_655 S
Mg739 O738 1.986 1_556 S
Mg739 O746 2.042 1_556 S
Mg739 O748 2.041 . S
Mg739 O754 2.038 1_556 S
Mg739 O762 2.238 . S
Mg740 O738 1.909 1_455 S
Mg740 O741 1.925 1_554 S
Mg740 O751 2.113 . S
Mg740 O753 2.076 1_455 S
Mg740 O762 2.100 1_454 S
Mg740 O763 2.081 1_554 S
O741 Mg740 1.925 1_556 S
O741 Mg742 1.926 . S
O741 Mg743 1.986 1_556 S
Mg742 O741 1.926 . S
Mg742 O756 1.984 . S
Mg742 O759 1.988 1_556 S
Mg742 O760 2.061 1_455 S
Mg743 O741 1.986 1_554 S
Mg743 O751 2.238 . S
Mg743 O755 2.042 1_554 S
Mg743 O757 2.041 . S
Mg743 O764 2.038 1_554 S
C744 O750 1.247 . S
C744 O751 1.289 . S
C745 O763 1.245 . S
C745 O764 1.274 . S
O746 C734 1.241 . S
O746 Mg739 2.042 1_554 S
O747 C734 1.280 . S
O747 Mg737 1.984 . S
O748 C735 1.277 . S
O748 Mg739 2.041 . S
O749 C735 1.245 . S
O749 Mg737 1.988 1_556 S
O750 Mg737 2.061 1_455 S
O750 C744 1.247 . S
O751 Mg740 2.113 . S
O751 Mg743 2.238 . S
O751 C744 1.289 . S
C752 O753 1.245 . S
C752 O754 1.274 . S
O753 Mg740 2.076 1_655 S
O753 C752 1.245 . S
O754 Mg739 2.038 1_554 S
O754 C752 1.274 . S
O755 Mg743 2.042 1_556 S
O755 C758 1.241 . S
O756 Mg742 1.984 . S
O756 C758 1.280 . S
O757 Mg743 2.041 . S
O757 C761 1.277 . S
C758 O755 1.241 . S
C758 O756 1.280 . S
O759 Mg742 1.988 1_554 S
O759 C761 1.245 . S
O760 C736 1.247 . S
O760 Mg742 2.061 1_655 S
C761 O757 1.277 . S
C761 O759 1.245 . S
O762 C736 1.289 . S
O762 Mg739 2.238 . S
O762 Mg740 2.100 1_656 S
O763 Mg740 2.081 1_556 S
O763 C745 1.245 . S
O764 Mg743 2.038 1_556 S
O764 C745 1.274 . S
C765 O777 1.241 . S
C765 O778 1.280 . S
C766 O779 1.277 . S
C766 O780 1.245 . S
C767 O791 1.247 . S
C767 O793 1.289 . S
Mg768 O769 1.926 . S
Mg768 O778 1.984 . S
Mg768 O780 1.988 1_554 S
Mg768 O781 2.061 . S
O769 Mg768 1.926 . S
O769 Mg770 1.986 1_554 S
O769 Mg771 1.917 . S
Mg770 O769 1.986 1_556 S
Mg770 O777 2.042 1_556 S
Mg770 O779 2.041 . S
Mg770 O785 2.038 1_556 S
Mg770 O793 2.238 . S
Mg771 O769 1.917 . S
Mg771 O772 1.917 1_554 S
Mg771 O782 2.106 . S
Mg771 O784 2.079 . S
Mg771 O793 2.106 1_554 S
Mg771 O794 2.079 1_554 S
O772 Mg771 1.917 1_556 S
O772 Mg773 1.926 . S
O772 Mg774 1.986 1_556 S
Mg773 O772 1.926 . S
Mg773 O787 1.984 . S
Mg773 O790 1.988 1_556 S
Mg773 O791 2.061 . S
Mg774 O772 1.986 1_554 S
Mg774 O782 2.238 . S
Mg774 O786 2.042 1_554 S
Mg774 O788 2.041 . S
Mg774 O795 2.038 1_554 S
C775 O781 1.247 . S
C775 O782 1.289 . S
C776 O794 1.245 . S
C776 O795 1.274 . S
O777 C765 1.241 . S
O777 Mg770 2.042 1_554 S
O778 C765 1.280 . S
O778 Mg768 1.984 . S
O779 C766 1.277 . S
O779 Mg770 2.041 . S
O780 C766 1.245 . S
O780 Mg768 1.988 1_556 S
O781 Mg768 2.061 . S
O781 C775 1.247 . S
O782 Mg771 2.106 . S
O782 Mg774 2.238 . S
O782 C775 1.289 . S
C783 O784 1.245 . S
C783 O785 1.274 . S
O784 Mg771 2.079 . S
O784 C783 1.245 . S
O785 Mg770 2.038 1_554 S
O785 C783 1.274 . S
O786 Mg774 2.042 1_556 S
O786 C789 1.241 . S
O787 Mg773 1.984 . S
O787 C789 1.280 . S
O788 Mg774 2.041 . S
O788 C792 1.277 . S
C789 O786 1.241 . S
C789 O787 1.280 . S
O790 Mg773 1.988 1_554 S
O790 C792 1.245 . S
O791 C767 1.247 . S
O791 Mg773 2.061 . S
C792 O788 1.277 . S
C792 O790 1.245 . S
O793 C767 1.289 . S
O793 Mg770 2.238 . S
O793 Mg771 2.106 1_556 S
O794 Mg771 2.079 1_556 S
O794 C776 1.245 . S
O795 Mg774 2.038 1_556 S
O795 C776 1.274 . S
C796 O808 1.241 . S
C796 O809 1.280 . S
C797 O810 1.277 . S
C797 O811 1.245 . S
C798 O822 1.247 . S
C798 O824 1.289 . S
Mg799 O800 1.926 . S
Mg799 O809 1.984 . S
Mg799 O811 1.988 . S
Mg799 O812 2.061 1_655 S
O800 Mg799 1.926 . S
O800 Mg801 1.986 . S
O800 Mg802 1.908 1_655 S
Mg801 O800 1.986 . S
Mg801 O808 2.042 . S
Mg801 O810 2.041 . S
Mg801 O816 2.038 . S
Mg801 O824 2.238 . S
Mg802 O800 1.908 1_455 S
Mg802 O803 1.926 . S
Mg802 O813 2.113 . S
Mg802 O815 2.076 1_455 S
Mg802 O824 2.100 1_455 S
Mg802 O825 2.081 . S
O803 Mg802 1.926 . S
O803 Mg804 1.926 . S
O803 Mg805 1.986 . S
Mg804 O803 1.926 . S
Mg804 O818 1.984 . S
Mg804 O821 1.988 . S
Mg804 O822 2.061 1_455 S
Mg805 O803 1.986 . S
Mg805 O813 2.238 . S
Mg805 O817 2.042 . S
Mg805 O819 2.041 . S
Mg805 O826 2.038 . S
C806 O812 1.247 . S
C806 O813 1.289 . S
C807 O825 1.245 . S
C807 O826 1.274 . S
O808 C796 1.241 . S
O808 Mg801 2.042 . S
O809 C796 1.280 . S
O809 Mg799 1.984 . S
O810 C797 1.277 . S
O810 Mg801 2.041 . S
O811 C797 1.245 . S
O811 Mg799 1.988 . S
O812 Mg799 2.061 1_455 S
O812 C806 1.247 . S
O813 Mg802 2.113 . S
O813 Mg805 2.238 . S
O813 C806 1.289 . S
C814 O815 1.245 . S
C814 O816 1.274 . S
O815 Mg802 2.076 1_655 S
O815 C814 1.245 . S
O816 Mg801 2.038 . S
O816 C814 1.274 . S
O817 Mg805 2.042 . S
O817 C820 1.241 . S
O818 Mg804 1.984 . S
O818 C820 1.280 . S
O819 Mg805 2.041 . S
O819 C823 1.277 . S
C820 O817 1.241 . S
C820 O818 1.280 . S
O821 Mg804 1.988 . S
O821 C823 1.245 . S
O822 C798 1.247 . S
O822 Mg804 2.061 1_655 S
C823 O819 1.277 . S
C823 O821 1.245 . S
O824 C798 1.289 . S
O824 Mg801 2.238 . S
O824 Mg802 2.100 1_655 S
O825 Mg802 2.081 . S
O825 C807 1.245 . S
O826 Mg805 2.038 . S
O826 C807 1.274 . S
C827 O839 1.241 . S
C827 O840 1.280 . S
C828 O841 1.277 . S
C828 O842 1.245 . S
C829 O853 1.247 . S
C829 O855 1.289 . S
Mg830 O831 1.926 . S
Mg830 O840 1.984 . S
Mg830 O842 1.988 . S
Mg830 O843 2.061 . S
O831 Mg830 1.926 . S
O831 Mg832 1.986 1_545 S
O831 Mg833 1.917 . S
Mg832 O831 1.986 1_565 S
Mg832 O839 2.042 1_565 S
Mg832 O841 2.041 1_565 S
Mg832 O847 2.038 . S
Mg832 O855 2.238 . S
Mg833 O831 1.917 . S
Mg833 O834 1.917 1_545 S
Mg833 O844 2.106 . S
Mg833 O846 2.079 1_545 S
Mg833 O855 2.106 1_545 S
Mg833 O856 2.079 . S
O834 Mg833 1.917 1_565 S
O834 Mg835 1.926 . S
O834 Mg836 1.986 1_565 S
Mg835 O834 1.926 . S
Mg835 O849 1.984 . S
Mg835 O852 1.988 . S
Mg835 O853 2.061 . S
Mg836 O834 1.986 1_545 S
Mg836 O844 2.238 . S
Mg836 O848 2.042 1_545 S
Mg836 O850 2.041 1_545 S
Mg836 O857 2.038 . S
C837 O843 1.247 . S
C837 O844 1.289 . S
C838 O856 1.245 . S
C838 O857 1.274 . S
O839 C827 1.241 . S
O839 Mg832 2.042 1_545 S
O840 C827 1.280 . S
O840 Mg830 1.984 . S
O841 C828 1.277 . S
O841 Mg832 2.041 1_545 S
O842 C828 1.245 . S
O842 Mg830 1.988 . S
O843 Mg830 2.061 . S
O843 C837 1.247 . S
O844 Mg833 2.106 . S
O844 Mg836 2.238 . S
O844 C837 1.289 . S
C845 O846 1.245 . S
C845 O847 1.274 . S
O846 Mg833 2.079 1_565 S
O846 C845 1.245 . S
O847 Mg832 2.038 . S
O847 C845 1.274 . S
O848 Mg836 2.042 1_565 S
O848 C851 1.241 . S
O849 Mg835 1.984 . S
O849 C851 1.280 . S
O850 Mg836 2.041 1_565 S
O850 C854 1.277 . S
C851 O848 1.241 . S
C851 O849 1.280 . S
O852 Mg835 1.988 . S
O852 C854 1.245 . S
O853 C829 1.247 . S
O853 Mg835 2.061 . S
C854 O850 1.277 . S
C854 O852 1.245 . S
O855 C829 1.289 . S
O855 Mg832 2.238 . S
O855 Mg833 2.106 1_565 S
O856 Mg833 2.079 . S
O856 C838 1.245 . S
O857 Mg836 2.038 . S
O857 C838 1.274 . S
H858 C866 0.929 . S
H859 C868 0.930 . S
H860 C870 0.930 . S
H861 C873 0.929 . S
H862 C876 0.930 . S
H863 C878 0.960 . S
H864 C878 0.960 . S
H865 C878 0.960 . S
C866 H858 0.929 . S
C866 C867 1.377 . S
C866 C868 1.384 . S
C867 C866 1.377 . S
C867 C873 1.390 . S
C868 H859 0.930 . S
C868 C866 1.384 . S
C868 C869 1.372 . S
C869 C868 1.372 . S
C869 C870 1.400 . S
C869 C874 1.490 . S
C870 H860 0.930 . S
C870 C869 1.400 . S
C870 C873 1.386 . S
H871 C887 0.930 . S
H872 C888 0.931 . S
C873 H861 0.929 . S
C873 C867 1.390 . S
C873 C870 1.386 . S
C874 C869 1.490 . S
C874 C876 1.395 . S
C874 C877 1.403 . S
H875 C881 0.930 . S
C876 H862 0.930 . S
C876 C874 1.395 . S
C876 C879 1.403 . S
C877 C874 1.403 . S
C877 C878 1.524 . S
C877 C881 1.400 . S
C878 H863 0.960 . S
C878 H864 0.960 . S
C878 H865 0.960 . S
C878 C877 1.524 . S
C879 C876 1.403 . S
C879 C880 1.392 . S
C879 C883 1.495 . S
C880 C879 1.392 . S
C880 C881 1.385 . S
C880 C882 1.478 . S
C881 H875 0.930 . S
C881 C877 1.400 . S
C881 C880 1.385 . S
C882 C880 1.478 . S
C882 C884 1.381 . S
C882 C888 1.383 . S
C883 C879 1.495 . S
C883 H889 0.959 . S
C883 H890 0.961 . S
C883 H891 0.960 . S
C884 C882 1.381 . S
C884 C885 1.394 . S
C884 H892 0.930 . S
C885 C884 1.394 . S
C885 C886 1.383 . S
C885 H893 0.929 . S
C886 C885 1.383 . S
C886 C887 1.377 . S
C887 H871 0.930 . S
C887 C886 1.377 . S
C887 C888 1.379 . S
C888 H872 0.931 . S
C888 C882 1.383 . S
C888 C887 1.379 . S
H889 C883 0.959 . S
H890 C883 0.961 . S
H891 C883 0.960 . S
H892 C884 0.930 . S
H893 C885 0.929 . S
H894 C902 0.929 . S
H895 C904 0.930 . S
H896 C906 0.930 . S
H897 C909 0.929 . S
H898 C912 0.930 . S
H899 C914 0.960 . S
H900 C914 0.960 . S
H901 C914 0.960 . S
C902 H894 0.929 . S
C902 C903 1.377 . S
C902 C904 1.384 . S
C903 C902 1.377 . S
C903 C909 1.390 . S
C904 H895 0.930 . S
C904 C902 1.384 . S
C904 C905 1.372 . S
C905 C904 1.372 . S
C905 C906 1.400 . S
C905 C910 1.490 . S
C906 H896 0.930 . S
C906 C905 1.400 . S
C906 C909 1.386 . S
H907 C923 0.930 . S
H908 C924 0.931 . S
C909 H897 0.929 . S
C909 C903 1.390 . S
C909 C906 1.386 . S
C910 C905 1.490 . S
C910 C912 1.395 . S
C910 C913 1.403 . S
H911 C917 0.930 . S
C912 H898 0.930 . S
C912 C910 1.395 . S
C912 C915 1.403 . S
C913 C910 1.403 . S
C913 C914 1.524 . S
C913 C917 1.400 . S
C914 H899 0.960 . S
C914 H900 0.960 . S
C914 H901 0.960 . S
C914 C913 1.524 . S
C915 C912 1.403 . S
C915 C916 1.392 . S
C915 C919 1.495 . S
C916 C915 1.392 . S
C916 C917 1.385 . S
C916 C918 1.478 . S
C917 H911 0.930 . S
C917 C913 1.400 . S
C917 C916 1.385 . S
C918 C916 1.478 . S
C918 C920 1.381 . S
C918 C924 1.383 . S
C919 C915 1.495 . S
C919 H925 0.959 . S
C919 H926 0.961 . S
C919 H927 0.960 . S
C920 C918 1.381 . S
C920 C921 1.394 . S
C920 H928 0.930 . S
C921 C920 1.394 . S
C921 C922 1.383 . S
C921 H929 0.929 . S
C922 C921 1.383 . S
C922 C923 1.377 . S
C923 H907 0.930 . S
C923 C922 1.377 . S
C923 C924 1.379 . S
C924 H908 0.931 . S
C924 C918 1.383 . S
C924 C923 1.379 . S
H925 C919 0.959 . S
H926 C919 0.961 . S
H927 C919 0.960 . S
H928 C920 0.930 . S
H929 C921 0.929 . S
H930 C938 0.929 . S
H931 C940 0.930 . S
H932 C942 0.930 . S
H933 C945 0.929 . S
H934 C948 0.930 . S
H935 C950 0.960 . S
H936 C950 0.960 . S
H937 C950 0.960 . S
C938 H930 0.929 . S
C938 C939 1.377 . S
C938 C940 1.384 . S
C939 C938 1.377 . S
C939 C945 1.390 . S
C940 H931 0.930 . S
C940 C938 1.384 . S
C940 C941 1.372 . S
C941 C940 1.372 . S
C941 C942 1.400 . S
C941 C946 1.490 . S
C942 H932 0.930 . S
C942 C941 1.400 . S
C942 C945 1.386 . S
H943 C959 0.930 . S
H944 C960 0.931 . S
C945 H933 0.929 . S
C945 C939 1.390 . S
C945 C942 1.386 . S
C946 C941 1.490 . S
C946 C948 1.395 . S
C946 C949 1.403 . S
H947 C953 0.930 . S
C948 H934 0.930 . S
C948 C946 1.395 . S
C948 C951 1.403 . S
C949 C946 1.403 . S
C949 C950 1.524 . S
C949 C953 1.400 . S
C950 H935 0.960 . S
C950 H936 0.960 . S
C950 H937 0.960 . S
C950 C949 1.524 . S
C951 C948 1.403 . S
C951 C952 1.392 . S
C951 C955 1.495 . S
C952 C951 1.392 . S
C952 C953 1.385 . S
C952 C954 1.478 . S
C953 H947 0.930 . S
C953 C949 1.400 . S
C953 C952 1.385 . S
C954 C952 1.478 . S
C954 C956 1.381 . S
C954 C960 1.383 . S
C955 C951 1.495 . S
C955 H961 0.959 . S
C955 H962 0.961 . S
C955 H963 0.960 . S
C956 C954 1.381 . S
C956 C957 1.394 . S
C956 H964 0.930 . S
C957 C956 1.394 . S
C957 C958 1.383 . S
C957 H965 0.929 . S
C958 C957 1.383 . S
C958 C959 1.377 . S
C959 H943 0.930 . S
C959 C958 1.377 . S
C959 C960 1.379 . S
C960 H944 0.931 . S
C960 C954 1.383 . S
C960 C959 1.379 . S
H961 C955 0.959 . S
H962 C955 0.961 . S
H963 C955 0.960 . S
H964 C956 0.930 . S
H965 C957 0.929 . S
H966 C974 0.929 . S
H967 C976 0.930 . S
H968 C978 0.930 . S
H969 C981 0.929 . S
H970 C984 0.930 . S
H971 C986 0.960 . S
H972 C986 0.960 . S
H973 C986 0.960 . S
C974 H966 0.929 . S
C974 C975 1.377 . S
C974 C976 1.384 . S
C975 C974 1.377 . S
C975 C981 1.390 . S
C976 H967 0.930 . S
C976 C974 1.384 . S
C976 C977 1.372 . S
C977 C976 1.372 . S
C977 C978 1.400 . S
C977 C982 1.490 . S
C978 H968 0.930 . S
C978 C977 1.400 . S
C978 C981 1.386 . S
H979 C995 0.930 . S
H980 C996 0.931 . S
C981 H969 0.929 . S
C981 C975 1.390 . S
C981 C978 1.386 . S
C982 C977 1.490 . S
C982 C984 1.395 . S
C982 C985 1.403 . S
H983 C989 0.930 . S
C984 H970 0.930 . S
C984 C982 1.395 . S
C984 C987 1.403 . S
C985 C982 1.403 . S
C985 C986 1.524 . S
C985 C989 1.400 . S
C986 H971 0.960 . S
C986 H972 0.960 . S
C986 H973 0.960 . S
C986 C985 1.524 . S
C987 C984 1.403 . S
C987 C988 1.392 . S
C987 C991 1.495 . S
C988 C987 1.392 . S
C988 C989 1.385 . S
C988 C990 1.478 . S
C989 H983 0.930 . S
C989 C985 1.400 . S
C989 C988 1.385 . S
C990 C988 1.478 . S
C990 C992 1.381 . S
C990 C996 1.383 . S
C991 C987 1.495 . S
C991 H997 0.959 . S
C991 H998 0.961 . S
C991 H999 0.960 . S
C992 C990 1.381 . S
C992 C993 1.394 . S
C992 H1000 0.930 . S
C993 C992 1.394 . S
C993 C994 1.383 . S
C993 H1001 0.929 . S
C994 C993 1.383 . S
C994 C995 1.377 . S
C995 H979 0.930 . S
C995 C994 1.377 . S
C995 C996 1.379 . S
C996 H980 0.931 . S
C996 C990 1.383 . S
C996 C995 1.379 . S
H997 C991 0.959 . S
H998 C991 0.961 . S
H999 C991 0.960 . S
H1000 C992 0.930 . S
H1001 C993 0.929 . S
H1002 C1010 0.929 . S
H1003 C1012 0.930 . S
H1004 C1014 0.930 . S
H1005 C1017 0.929 . S
H1006 C1020 0.930 . S
H1007 C1022 0.960 . S
H1008 C1022 0.960 . S
H1009 C1022 0.960 . S
C1010 H1002 0.929 . S
C1010 C1011 1.377 . S
C1010 C1012 1.384 . S
C1011 C1010 1.377 . S
C1011 C1017 1.390 . S
C1012 H1003 0.930 . S
C1012 C1010 1.384 . S
C1012 C1013 1.372 . S
C1013 C1012 1.372 . S
C1013 C1014 1.400 . S
C1013 C1018 1.490 . S
C1014 H1004 0.930 . S
C1014 C1013 1.400 . S
C1014 C1017 1.386 . S
H1015 C1031 0.930 . S
H1016 C1032 0.931 . S
C1017 H1005 0.929 . S
C1017 C1011 1.390 . S
C1017 C1014 1.386 . S
C1018 C1013 1.490 . S
C1018 C1020 1.395 . S
C1018 C1021 1.403 . S
H1019 C1025 0.930 . S
C1020 H1006 0.930 . S
C1020 C1018 1.395 . S
C1020 C1023 1.403 . S
C1021 C1018 1.403 . S
C1021 C1022 1.524 . S
C1021 C1025 1.400 . S
C1022 H1007 0.960 . S
C1022 H1008 0.960 . S
C1022 H1009 0.960 . S
C1022 C1021 1.524 . S
C1023 C1020 1.403 . S
C1023 C1024 1.392 . S
C1023 C1027 1.495 . S
C1024 C1023 1.392 . S
C1024 C1025 1.385 . S
C1024 C1026 1.478 . S
C1025 H1019 0.930 . S
C1025 C1021 1.400 . S
C1025 C1024 1.385 . S
C1026 C1024 1.478 . S
C1026 C1028 1.381 . S
C1026 C1032 1.383 . S
C1027 C1023 1.495 . S
C1027 H1033 0.959 . S
C1027 H1034 0.961 . S
C1027 H1035 0.960 . S
C1028 C1026 1.381 . S
C1028 C1029 1.394 . S
C1028 H1036 0.930 . S
C1029 C1028 1.394 . S
C1029 C1030 1.383 . S
C1029 H1037 0.929 . S
C1030 C1029 1.383 . S
C1030 C1031 1.377 . S
C1031 H1015 0.930 . S
C1031 C1030 1.377 . S
C1031 C1032 1.379 . S
C1032 H1016 0.931 . S
C1032 C1026 1.383 . S
C1032 C1031 1.379 . S
H1033 C1027 0.959 . S
H1034 C1027 0.961 . S
H1035 C1027 0.960 . S
H1036 C1028 0.930 . S
H1037 C1029 0.929 . S
H1038 C1046 0.929 . S
H1039 C1048 0.930 . S
H1040 C1050 0.930 . S
H1041 C1053 0.929 . S
H1042 C1056 0.930 . S
H1043 C1058 0.960 . S
H1044 C1058 0.960 . S
H1045 C1058 0.960 . S
C1046 H1038 0.929 . S
C1046 C1047 1.377 . S
C1046 C1048 1.384 . S
C1047 C1046 1.377 . S
C1047 C1053 1.390 . S
C1048 H1039 0.930 . S
C1048 C1046 1.384 . S
C1048 C1049 1.372 . S
C1049 C1048 1.372 . S
C1049 C1050 1.400 . S
C1049 C1054 1.490 . S
C1050 H1040 0.930 . S
C1050 C1049 1.400 . S
C1050 C1053 1.386 . S
H1051 C1067 0.930 . S
H1052 C1068 0.931 . S
C1053 H1041 0.929 . S
C1053 C1047 1.390 . S
C1053 C1050 1.386 . S
C1054 C1049 1.490 . S
C1054 C1056 1.395 . S
C1054 C1057 1.403 . S
H1055 C1061 0.930 . S
C1056 H1042 0.930 . S
C1056 C1054 1.395 . S
C1056 C1059 1.403 . S
C1057 C1054 1.403 . S
C1057 C1058 1.524 . S
C1057 C1061 1.400 . S
C1058 H1043 0.960 . S
C1058 H1044 0.960 . S
C1058 H1045 0.960 . S
C1058 C1057 1.524 . S
C1059 C1056 1.403 . S
C1059 C1060 1.392 . S
C1059 C1063 1.495 . S
C1060 C1059 1.392 . S
C1060 C1061 1.385 . S
C1060 C1062 1.478 . S
C1061 H1055 0.930 . S
C1061 C1057 1.400 . S
C1061 C1060 1.385 . S
C1062 C1060 1.478 . S
C1062 C1064 1.381 . S
C1062 C1068 1.383 . S
C1063 C1059 1.495 . S
C1063 H1069 0.959 . S
C1063 H1070 0.961 . S
C1063 H1071 0.960 . S
C1064 C1062 1.381 . S
C1064 C1065 1.394 . S
C1064 H1072 0.930 . S
C1065 C1064 1.394 . S
C1065 C1066 1.383 . S
C1065 H1073 0.929 . S
C1066 C1065 1.383 . S
C1066 C1067 1.377 . S
C1067 H1051 0.930 . S
C1067 C1066 1.377 . S
C1067 C1068 1.379 . S
C1068 H1052 0.931 . S
C1068 C1062 1.383 . S
C1068 C1067 1.379 . S
H1069 C1063 0.959 . S
H1070 C1063 0.961 . S
H1071 C1063 0.960 . S
H1072 C1064 0.930 . S
H1073 C1065 0.929 . S
H1074 C1082 0.929 . S
H1075 C1084 0.930 . S
H1076 C1086 0.930 . S
H1077 C1089 0.929 . S
H1078 C1092 0.930 . S
H1079 C1094 0.960 . S
H1080 C1094 0.960 . S
H1081 C1094 0.960 . S
C1082 H1074 0.929 . S
C1082 C1083 1.377 . S
C1082 C1084 1.384 . S
C1083 C1082 1.377 . S
C1083 C1089 1.390 . S
C1084 H1075 0.930 . S
C1084 C1082 1.384 . S
C1084 C1085 1.372 . S
C1085 C1084 1.372 . S
C1085 C1086 1.400 . S
C1085 C1090 1.490 . S
C1086 H1076 0.930 . S
C1086 C1085 1.400 . S
C1086 C1089 1.386 . S
H1087 C1103 0.930 . S
H1088 C1104 0.931 . S
C1089 H1077 0.929 . S
C1089 C1083 1.390 . S
C1089 C1086 1.386 . S
C1090 C1085 1.490 . S
C1090 C1092 1.395 . S
C1090 C1093 1.403 . S
H1091 C1097 0.930 . S
C1092 H1078 0.930 . S
C1092 C1090 1.395 . S
C1092 C1095 1.403 . S
C1093 C1090 1.403 . S
C1093 C1094 1.524 . S
C1093 C1097 1.400 . S
C1094 H1079 0.960 . S
C1094 H1080 0.960 . S
C1094 H1081 0.960 . S
C1094 C1093 1.524 . S
C1095 C1092 1.403 . S
C1095 C1096 1.392 . S
C1095 C1099 1.495 . S
C1096 C1095 1.392 . S
C1096 C1097 1.385 . S
C1096 C1098 1.478 . S
C1097 H1091 0.930 . S
C1097 C1093 1.400 . S
C1097 C1096 1.385 . S
C1098 C1096 1.478 . S
C1098 C1100 1.381 . S
C1098 C1104 1.383 . S
C1099 C1095 1.495 . S
C1099 H1105 0.959 . S
C1099 H1106 0.961 . S
C1099 H1107 0.960 . S
C1100 C1098 1.381 . S
C1100 C1101 1.394 . S
C1100 H1108 0.930 . S
C1101 C1100 1.394 . S
C1101 C1102 1.383 . S
C1101 H1109 0.929 . S
C1102 C1101 1.383 . S
C1102 C1103 1.377 . S
C1103 H1087 0.930 . S
C1103 C1102 1.377 . S
C1103 C1104 1.379 . S
C1104 H1088 0.931 . S
C1104 C1098 1.383 . S
C1104 C1103 1.379 . S
H1105 C1099 0.959 . S
H1106 C1099 0.961 . S
H1107 C1099 0.960 . S
H1108 C1100 0.930 . S
H1109 C1101 0.929 . S
H1110 C1118 0.929 . S
H1111 C1120 0.930 . S
H1112 C1122 0.930 . S
H1113 C1125 0.929 . S
H1114 C1128 0.930 . S
H1115 C1130 0.960 . S
H1116 C1130 0.960 . S
H1117 C1130 0.960 . S
C1118 H1110 0.929 . S
C1118 C1119 1.377 . S
C1118 C1120 1.384 . S
C1119 C1118 1.377 . S
C1119 C1125 1.390 . S
C1120 H1111 0.930 . S
C1120 C1118 1.384 . S
C1120 C1121 1.372 . S
C1121 C1120 1.372 . S
C1121 C1122 1.400 . S
C1121 C1126 1.490 . S
C1122 H1112 0.930 . S
C1122 C1121 1.400 . S
C1122 C1125 1.386 . S
H1123 C1139 0.930 . S
H1124 C1140 0.931 . S
C1125 H1113 0.929 . S
C1125 C1119 1.390 . S
C1125 C1122 1.386 . S
C1126 C1121 1.490 . S
C1126 C1128 1.395 . S
C1126 C1129 1.403 . S
H1127 C1133 0.930 . S
C1128 H1114 0.930 . S
C1128 C1126 1.395 . S
C1128 C1131 1.403 . S
C1129 C1126 1.403 . S
C1129 C1130 1.524 . S
C1129 C1133 1.400 . S
C1130 H1115 0.960 . S
C1130 H1116 0.960 . S
C1130 H1117 0.960 . S
C1130 C1129 1.524 . S
C1131 C1128 1.403 . S
C1131 C1132 1.392 . S
C1131 C1135 1.495 . S
C1132 C1131 1.392 . S
C1132 C1133 1.385 . S
C1132 C1134 1.478 . S
C1133 H1127 0.930 . S
C1133 C1129 1.400 . S
C1133 C1132 1.385 . S
C1134 C1132 1.478 . S
C1134 C1136 1.381 . S
C1134 C1140 1.383 . S
C1135 C1131 1.495 . S
C1135 H1141 0.959 . S
C1135 H1142 0.961 . S
C1135 H1143 0.960 . S
C1136 C1134 1.381 . S
C1136 C1137 1.394 . S
C1136 H1144 0.930 . S
C1137 C1136 1.394 . S
C1137 C1138 1.383 . S
C1137 H1145 0.929 . S
C1138 C1137 1.383 . S
C1138 C1139 1.377 . S
C1139 H1123 0.930 . S
C1139 C1138 1.377 . S
C1139 C1140 1.379 . S
C1140 H1124 0.931 . S
C1140 C1134 1.383 . S
C1140 C1139 1.379 . S
H1141 C1135 0.959 . S
H1142 C1135 0.961 . S
H1143 C1135 0.960 . S
H1144 C1136 0.930 . S
H1145 C1137 0.929 . S
H1146 C1154 0.929 . S
H1147 C1156 0.930 . S
H1148 C1158 0.930 . S
H1149 C1161 0.929 . S
H1150 C1164 0.930 . S
H1151 C1166 0.960 . S
H1152 C1166 0.960 . S
H1153 C1166 0.960 . S
C1154 H1146 0.929 . S
C1154 C1155 1.377 . S
C1154 C1156 1.384 . S
C1155 C1154 1.377 . S
C1155 C1161 1.390 . S
C1156 H1147 0.930 . S
C1156 C1154 1.384 . S
C1156 C1157 1.372 . S
C1157 C1156 1.372 . S
C1157 C1158 1.400 . S
C1157 C1162 1.490 . S
C1158 H1148 0.930 . S
C1158 C1157 1.400 . S
C1158 C1161 1.386 . S
H1159 C1175 0.930 . S
H1160 C1176 0.931 . S
C1161 H1149 0.929 . S
C1161 C1155 1.390 . S
C1161 C1158 1.386 . S
C1162 C1157 1.490 . S
C1162 C1164 1.395 . S
C1162 C1165 1.403 . S
H1163 C1169 0.930 . S
C1164 H1150 0.930 . S
C1164 C1162 1.395 . S
C1164 C1167 1.403 . S
C1165 C1162 1.403 . S
C1165 C1166 1.524 . S
C1165 C1169 1.400 . S
C1166 H1151 0.960 . S
C1166 H1152 0.960 . S
C1166 H1153 0.960 . S
C1166 C1165 1.524 . S
C1167 C1164 1.403 . S
C1167 C1168 1.392 . S
C1167 C1171 1.495 . S
C1168 C1167 1.392 . S
C1168 C1169 1.385 . S
C1168 C1170 1.478 . S
C1169 H1163 0.930 . S
C1169 C1165 1.400 . S
C1169 C1168 1.385 . S
C1170 C1168 1.478 . S
C1170 C1172 1.381 . S
C1170 C1176 1.383 . S
C1171 C1167 1.495 . S
C1171 H1177 0.959 . S
C1171 H1178 0.961 . S
C1171 H1179 0.960 . S
C1172 C1170 1.381 . S
C1172 C1173 1.394 . S
C1172 H1180 0.930 . S
C1173 C1172 1.394 . S
C1173 C1174 1.383 . S
C1173 H1181 0.929 . S
C1174 C1173 1.383 . S
C1174 C1175 1.377 . S
C1175 H1159 0.930 . S
C1175 C1174 1.377 . S
C1175 C1176 1.379 . S
C1176 H1160 0.931 . S
C1176 C1170 1.383 . S
C1176 C1175 1.379 . S
H1177 C1171 0.959 . S
H1178 C1171 0.961 . S
H1179 C1171 0.960 . S
H1180 C1172 0.930 . S
H1181 C1173 0.929 . S
H1182 C1190 0.929 . S
H1183 C1192 0.930 . S
H1184 C1194 0.930 . S
H1185 C1197 0.929 . S
H1186 C1200 0.930 . S
H1187 C1202 0.960 . S
H1188 C1202 0.960 . S
H1189 C1202 0.960 . S
C1190 H1182 0.929 . S
C1190 C1191 1.377 . S
C1190 C1192 1.384 . S
C1191 C1190 1.377 . S
C1191 C1197 1.390 . S
C1192 H1183 0.930 . S
C1192 C1190 1.384 . S
C1192 C1193 1.372 . S
C1193 C1192 1.372 . S
C1193 C1194 1.400 . S
C1193 C1198 1.490 . S
C1194 H1184 0.930 . S
C1194 C1193 1.400 . S
C1194 C1197 1.386 . S
H1195 C1211 0.930 . S
H1196 C1212 0.931 . S
C1197 H1185 0.929 . S
C1197 C1191 1.390 . S
C1197 C1194 1.386 . S
C1198 C1193 1.490 . S
C1198 C1200 1.395 . S
C1198 C1201 1.403 . S
H1199 C1205 0.930 . S
C1200 H1186 0.930 . S
C1200 C1198 1.395 . S
C1200 C1203 1.403 . S
C1201 C1198 1.403 . S
C1201 C1202 1.524 . S
C1201 C1205 1.400 . S
C1202 H1187 0.960 . S
C1202 H1188 0.960 . S
C1202 H1189 0.960 . S
C1202 C1201 1.524 . S
C1203 C1200 1.403 . S
C1203 C1204 1.392 . S
C1203 C1207 1.495 . S
C1204 C1203 1.392 . S
C1204 C1205 1.385 . S
C1204 C1206 1.478 . S
C1205 H1199 0.930 . S
C1205 C1201 1.400 . S
C1205 C1204 1.385 . S
C1206 C1204 1.478 . S
C1206 C1208 1.381 . S
C1206 C1212 1.383 . S
C1207 C1203 1.495 . S
C1207 H1213 0.959 . S
C1207 H1214 0.961 . S
C1207 H1215 0.960 . S
C1208 C1206 1.381 . S
C1208 C1209 1.394 . S
C1208 H1216 0.930 . S
C1209 C1208 1.394 . S
C1209 C1210 1.383 . S
C1209 H1217 0.929 . S
C1210 C1209 1.383 . S
C1210 C1211 1.377 . S
C1211 H1195 0.930 . S
C1211 C1210 1.377 . S
C1211 C1212 1.379 . S
C1212 H1196 0.931 . S
C1212 C1206 1.383 . S
C1212 C1211 1.379 . S
H1213 C1207 0.959 . S
H1214 C1207 0.961 . S
H1215 C1207 0.960 . S
H1216 C1208 0.930 . S
H1217 C1209 0.929 . S
H1218 C1226 0.929 . S
H1219 C1228 0.930 . S
H1220 C1230 0.930 . S
H1221 C1233 0.929 . S
H1222 C1236 0.930 . S
H1223 C1238 0.960 . S
H1224 C1238 0.960 . S
H1225 C1238 0.960 . S
C1226 H1218 0.929 . S
C1226 C1227 1.377 . S
C1226 C1228 1.384 . S
C1227 C1226 1.377 . S
C1227 C1233 1.390 . S
C1228 H1219 0.930 . S
C1228 C1226 1.384 . S
C1228 C1229 1.372 . S
C1229 C1228 1.372 . S
C1229 C1230 1.400 . S
C1229 C1234 1.490 . S
C1230 H1220 0.930 . S
C1230 C1229 1.400 . S
C1230 C1233 1.386 . S
H1231 C1247 0.930 . S
H1232 C1248 0.931 . S
C1233 H1221 0.929 . S
C1233 C1227 1.390 . S
C1233 C1230 1.386 . S
C1234 C1229 1.490 . S
C1234 C1236 1.395 . S
C1234 C1237 1.403 . S
H1235 C1241 0.930 . S
C1236 H1222 0.930 . S
C1236 C1234 1.395 . S
C1236 C1239 1.403 . S
C1237 C1234 1.403 . S
C1237 C1238 1.524 . S
C1237 C1241 1.400 . S
C1238 H1223 0.960 . S
C1238 H1224 0.960 . S
C1238 H1225 0.960 . S
C1238 C1237 1.524 . S
C1239 C1236 1.403 . S
C1239 C1240 1.392 . S
C1239 C1243 1.495 . S
C1240 C1239 1.392 . S
C1240 C1241 1.385 . S
C1240 C1242 1.478 . S
C1241 H1235 0.930 . S
C1241 C1237 1.400 . S
C1241 C1240 1.385 . S
C1242 C1240 1.478 . S
C1242 C1244 1.381 . S
C1242 C1248 1.383 . S
C1243 C1239 1.495 . S
C1243 H1249 0.959 . S
C1243 H1250 0.961 . S
C1243 H1251 0.960 . S
C1244 C1242 1.381 . S
C1244 C1245 1.394 . S
C1244 H1252 0.930 . S
C1245 C1244 1.394 . S
C1245 C1246 1.383 . S
C1245 H1253 0.929 . S
C1246 C1245 1.383 . S
C1246 C1247 1.377 . S
C1247 H1231 0.930 . S
C1247 C1246 1.377 . S
C1247 C1248 1.379 . S
C1248 H1232 0.931 . S
C1248 C1242 1.383 . S
C1248 C1247 1.379 . S
H1249 C1243 0.959 . S
H1250 C1243 0.961 . S
H1251 C1243 0.960 . S
H1252 C1244 0.930 . S
H1253 C1245 0.929 . S
H1254 C1262 0.929 . S
H1255 C1264 0.930 . S
H1256 C1266 0.930 . S
H1257 C1269 0.929 . S
H1258 C1272 0.930 . S
H1259 C1274 0.960 . S
H1260 C1274 0.960 . S
H1261 C1274 0.960 . S
C1262 H1254 0.929 . S
C1262 C1263 1.377 . S
C1262 C1264 1.384 . S
C1263 C1262 1.377 . S
C1263 C1269 1.390 . S
C1264 H1255 0.930 . S
C1264 C1262 1.384 . S
C1264 C1265 1.372 . S
C1265 C1264 1.372 . S
C1265 C1266 1.400 . S
C1265 C1270 1.490 . S
C1266 H1256 0.930 . S
C1266 C1265 1.400 . S
C1266 C1269 1.386 . S
H1267 C1283 0.930 . S
H1268 C1284 0.931 . S
C1269 H1257 0.929 . S
C1269 C1263 1.390 . S
C1269 C1266 1.386 . S
C1270 C1265 1.490 . S
C1270 C1272 1.395 . S
C1270 C1273 1.403 . S
H1271 C1277 0.930 . S
C1272 H1258 0.930 . S
C1272 C1270 1.395 . S
C1272 C1275 1.403 . S
C1273 C1270 1.403 . S
C1273 C1274 1.524 . S
C1273 C1277 1.400 . S
C1274 H1259 0.960 . S
C1274 H1260 0.960 . S
C1274 H1261 0.960 . S
C1274 C1273 1.524 . S
C1275 C1272 1.403 . S
C1275 C1276 1.392 . S
C1275 C1279 1.495 . S
C1276 C1275 1.392 . S
C1276 C1277 1.385 . S
C1276 C1278 1.478 . S
C1277 H1271 0.930 . S
C1277 C1273 1.400 . S
C1277 C1276 1.385 . S
C1278 C1276 1.478 . S
C1278 C1280 1.381 . S
C1278 C1284 1.383 . S
C1279 C1275 1.495 . S
C1279 H1285 0.959 . S
C1279 H1286 0.961 . S
C1279 H1287 0.960 . S
C1280 C1278 1.381 . S
C1280 C1281 1.394 . S
C1280 H1288 0.930 . S
C1281 C1280 1.394 . S
C1281 C1282 1.383 . S
C1281 H1289 0.929 . S
C1282 C1281 1.383 . S
C1282 C1283 1.377 . S
C1283 H1267 0.930 . S
C1283 C1282 1.377 . S
C1283 C1284 1.379 . S
C1284 H1268 0.931 . S
C1284 C1278 1.383 . S
C1284 C1283 1.379 . S
H1285 C1279 0.959 . S
H1286 C1279 0.961 . S
H1287 C1279 0.960 . S
H1288 C1280 0.930 . S
H1289 C1281 0.929 . S
H1290 C1298 0.929 . S
H1291 C1300 0.930 . S
H1292 C1302 0.930 . S
H1293 C1305 0.929 . S
H1294 C1308 0.930 . S
H1295 C1310 0.960 . S
H1296 C1310 0.960 . S
H1297 C1310 0.960 . S
C1298 H1290 0.929 . S
C1298 C1299 1.377 . S
C1298 C1300 1.384 . S
C1299 C1298 1.377 . S
C1299 C1305 1.390 . S
C1300 H1291 0.930 . S
C1300 C1298 1.384 . S
C1300 C1301 1.372 . S
C1301 C1300 1.372 . S
C1301 C1302 1.400 . S
C1301 C1306 1.490 . S
C1302 H1292 0.930 . S
C1302 C1301 1.400 . S
C1302 C1305 1.386 . S
H1303 C1319 0.930 . S
H1304 C1320 0.931 . S
C1305 H1293 0.929 . S
C1305 C1299 1.390 . S
C1305 C1302 1.386 . S
C1306 C1301 1.490 . S
C1306 C1308 1.395 . S
C1306 C1309 1.403 . S
H1307 C1313 0.930 . S
C1308 H1294 0.930 . S
C1308 C1306 1.395 . S
C1308 C1311 1.403 . S
C1309 C1306 1.403 . S
C1309 C1310 1.524 . S
C1309 C1313 1.400 . S
C1310 H1295 0.960 . S
C1310 H1296 0.960 . S
C1310 H1297 0.960 . S
C1310 C1309 1.524 . S
C1311 C1308 1.403 . S
C1311 C1312 1.392 . S
C1311 C1315 1.495 . S
C1312 C1311 1.392 . S
C1312 C1313 1.385 . S
C1312 C1314 1.478 . S
C1313 H1307 0.930 . S
C1313 C1309 1.400 . S
C1313 C1312 1.385 . S
C1314 C1312 1.478 . S
C1314 C1316 1.381 . S
C1314 C1320 1.383 . S
C1315 C1311 1.495 . S
C1315 H1321 0.959 . S
C1315 H1322 0.961 . S
C1315 H1323 0.960 . S
C1316 C1314 1.381 . S
C1316 C1317 1.394 . S
C1316 H1324 0.930 . S
C1317 C1316 1.394 . S
C1317 C1318 1.383 . S
C1317 H1325 0.929 . S
C1318 C1317 1.383 . S
C1318 C1319 1.377 . S
C1319 H1303 0.930 . S
C1319 C1318 1.377 . S
C1319 C1320 1.379 . S
C1320 H1304 0.931 . S
C1320 C1314 1.383 . S
C1320 C1319 1.379 . S
H1321 C1315 0.959 . S
H1322 C1315 0.961 . S
H1323 C1315 0.960 . S
H1324 C1316 0.930 . S
H1325 C1317 0.929 . S
H1326 C1334 0.929 . S
H1327 C1336 0.930 . S
H1328 C1338 0.930 . S
H1329 C1341 0.929 . S
H1330 C1344 0.930 . S
H1331 C1346 0.960 . S
H1332 C1346 0.960 . S
H1333 C1346 0.960 . S
C1334 H1326 0.929 . S
C1334 C1335 1.377 . S
C1334 C1336 1.384 . S
C1335 C1334 1.377 . S
C1335 C1341 1.390 . S
C1336 H1327 0.930 . S
C1336 C1334 1.384 . S
C1336 C1337 1.372 . S
C1337 C1336 1.372 . S
C1337 C1338 1.400 . S
C1337 C1342 1.490 . S
C1338 H1328 0.930 . S
C1338 C1337 1.400 . S
C1338 C1341 1.386 . S
H1339 C1355 0.930 . S
H1340 C1356 0.931 . S
C1341 H1329 0.929 . S
C1341 C1335 1.390 . S
C1341 C1338 1.386 . S
C1342 C1337 1.490 . S
C1342 C1344 1.395 . S
C1342 C1345 1.403 . S
H1343 C1349 0.930 . S
C1344 H1330 0.930 . S
C1344 C1342 1.395 . S
C1344 C1347 1.403 . S
C1345 C1342 1.403 . S
C1345 C1346 1.524 . S
C1345 C1349 1.400 . S
C1346 H1331 0.960 . S
C1346 H1332 0.960 . S
C1346 H1333 0.960 . S
C1346 C1345 1.524 . S
C1347 C1344 1.403 . S
C1347 C1348 1.392 . S
C1347 C1351 1.495 . S
C1348 C1347 1.392 . S
C1348 C1349 1.385 . S
C1348 C1350 1.478 . S
C1349 H1343 0.930 . S
C1349 C1345 1.400 . S
C1349 C1348 1.385 . S
C1350 C1348 1.478 . S
C1350 C1352 1.381 . S
C1350 C1356 1.383 . S
C1351 C1347 1.495 . S
C1351 H1357 0.959 . S
C1351 H1358 0.961 . S
C1351 H1359 0.960 . S
C1352 C1350 1.381 . S
C1352 C1353 1.394 . S
C1352 H1360 0.930 . S
C1353 C1352 1.394 . S
C1353 C1354 1.383 . S
C1353 H1361 0.929 . S
C1354 C1353 1.383 . S
C1354 C1355 1.377 . S
C1355 H1339 0.930 . S
C1355 C1354 1.377 . S
C1355 C1356 1.379 . S
C1356 H1340 0.931 . S
C1356 C1350 1.383 . S
C1356 C1355 1.379 . S
H1357 C1351 0.959 . S
H1358 C1351 0.961 . S
H1359 C1351 0.960 . S
H1360 C1352 0.930 . S
H1361 C1353 0.929 . S
H1362 C1370 0.929 . S
H1363 C1372 0.930 . S
H1364 C1374 0.930 . S
H1365 C1377 0.929 . S
H1366 C1380 0.930 . S
H1367 C1382 0.960 . S
H1368 C1382 0.960 . S
H1369 C1382 0.960 . S
C1370 H1362 0.929 . S
C1370 C1371 1.377 . S
C1370 C1372 1.384 . S
C1371 C1370 1.377 . S
C1371 C1377 1.390 . S
C1372 H1363 0.930 . S
C1372 C1370 1.384 . S
C1372 C1373 1.372 . S
C1373 C1372 1.372 . S
C1373 C1374 1.400 . S
C1373 C1378 1.490 . S
C1374 H1364 0.930 . S
C1374 C1373 1.400 . S
C1374 C1377 1.386 . S
H1375 C1391 0.930 . S
H1376 C1392 0.931 . S
C1377 H1365 0.929 . S
C1377 C1371 1.390 . S
C1377 C1374 1.386 . S
C1378 C1373 1.490 . S
C1378 C1380 1.395 . S
C1378 C1381 1.403 . S
H1379 C1385 0.930 . S
C1380 H1366 0.930 . S
C1380 C1378 1.395 . S
C1380 C1383 1.403 . S
C1381 C1378 1.403 . S
C1381 C1382 1.524 . S
C1381 C1385 1.400 . S
C1382 H1367 0.960 . S
C1382 H1368 0.960 . S
C1382 H1369 0.960 . S
C1382 C1381 1.524 . S
C1383 C1380 1.403 . S
C1383 C1384 1.392 . S
C1383 C1387 1.495 . S
C1384 C1383 1.392 . S
C1384 C1385 1.385 . S
C1384 C1386 1.478 . S
C1385 H1379 0.930 . S
C1385 C1381 1.400 . S
C1385 C1384 1.385 . S
C1386 C1384 1.478 . S
C1386 C1388 1.381 . S
C1386 C1392 1.383 . S
C1387 C1383 1.495 . S
C1387 H1393 0.959 . S
C1387 H1394 0.961 . S
C1387 H1395 0.960 . S
C1388 C1386 1.381 . S
C1388 C1389 1.394 . S
C1388 H1396 0.930 . S
C1389 C1388 1.394 . S
C1389 C1390 1.383 . S
C1389 H1397 0.929 . S
C1390 C1389 1.383 . S
C1390 C1391 1.377 . S
C1391 H1375 0.930 . S
C1391 C1390 1.377 . S
C1391 C1392 1.379 . S
C1392 H1376 0.931 . S
C1392 C1386 1.383 . S
C1392 C1391 1.379 . S
H1393 C1387 0.959 . S
H1394 C1387 0.961 . S
H1395 C1387 0.960 . S
H1396 C1388 0.930 . S
H1397 C1389 0.929 . S
H1398 C1406 0.929 . S
H1399 C1408 0.930 . S
H1400 C1410 0.930 . S
H1401 C1413 0.929 . S
H1402 C1416 0.930 . S
H1403 C1418 0.960 . S
H1404 C1418 0.960 . S
H1405 C1418 0.960 . S
C1406 H1398 0.929 . S
C1406 C1407 1.377 . S
C1406 C1408 1.384 . S
C1407 C1406 1.377 . S
C1407 C1413 1.390 . S
C1408 H1399 0.930 . S
C1408 C1406 1.384 . S
C1408 C1409 1.372 . S
C1409 C1408 1.372 . S
C1409 C1410 1.400 . S
C1409 C1414 1.490 . S
C1410 H1400 0.930 . S
C1410 C1409 1.400 . S
C1410 C1413 1.386 . S
H1411 C1427 0.930 . S
H1412 C1428 0.931 . S
C1413 H1401 0.929 . S
C1413 C1407 1.390 . S
C1413 C1410 1.386 . S
C1414 C1409 1.490 . S
C1414 C1416 1.395 . S
C1414 C1417 1.403 . S
H1415 C1421 0.930 . S
C1416 H1402 0.930 . S
C1416 C1414 1.395 . S
C1416 C1419 1.403 . S
C1417 C1414 1.403 . S
C1417 C1418 1.524 . S
C1417 C1421 1.400 . S
C1418 H1403 0.960 . S
C1418 H1404 0.960 . S
C1418 H1405 0.960 . S
C1418 C1417 1.524 . S
C1419 C1416 1.403 . S
C1419 C1420 1.392 . S
C1419 C1423 1.495 . S
C1420 C1419 1.392 . S
C1420 C1421 1.385 . S
C1420 C1422 1.478 . S
C1421 H1415 0.930 . S
C1421 C1417 1.400 . S
C1421 C1420 1.385 . S
C1422 C1420 1.478 . S
C1422 C1424 1.381 . S
C1422 C1428 1.383 . S
C1423 C1419 1.495 . S
C1423 H1429 0.959 . S
C1423 H1430 0.961 . S
C1423 H1431 0.960 . S
C1424 C1422 1.381 . S
C1424 C1425 1.394 . S
C1424 H1432 0.930 . S
C1425 C1424 1.394 . S
C1425 C1426 1.383 . S
C1425 H1433 0.929 . S
C1426 C1425 1.383 . S
C1426 C1427 1.377 . S
C1427 H1411 0.930 . S
C1427 C1426 1.377 . S
C1427 C1428 1.379 . S
C1428 H1412 0.931 . S
C1428 C1422 1.383 . S
C1428 C1427 1.379 . S
H1429 C1423 0.959 . S
H1430 C1423 0.961 . S
H1431 C1423 0.960 . S
H1432 C1424 0.930 . S
H1433 C1425 0.929 . S
H1434 C1442 0.929 . S
H1435 C1444 0.930 . S
H1436 C1446 0.930 . S
H1437 C1449 0.929 . S
H1438 C1452 0.930 . S
H1439 C1454 0.960 . S
H1440 C1454 0.960 . S
H1441 C1454 0.960 . S
C1442 H1434 0.929 . S
C1442 C1443 1.377 . S
C1442 C1444 1.384 . S
C1443 C1442 1.377 . S
C1443 C1449 1.390 . S
C1444 H1435 0.930 . S
C1444 C1442 1.384 . S
C1444 C1445 1.372 . S
C1445 C1444 1.372 . S
C1445 C1446 1.400 . S
C1445 C1450 1.490 . S
C1446 H1436 0.930 . S
C1446 C1445 1.400 . S
C1446 C1449 1.386 . S
H1447 C1463 0.930 . S
H1448 C1464 0.931 . S
C1449 H1437 0.929 . S
C1449 C1443 1.390 . S
C1449 C1446 1.386 . S
C1450 C1445 1.490 . S
C1450 C1452 1.395 . S
C1450 C1453 1.403 . S
H1451 C1457 0.930 . S
C1452 H1438 0.930 . S
C1452 C1450 1.395 . S
C1452 C1455 1.403 . S
C1453 C1450 1.403 . S
C1453 C1454 1.524 . S
C1453 C1457 1.400 . S
C1454 H1439 0.960 . S
C1454 H1440 0.960 . S
C1454 H1441 0.960 . S
C1454 C1453 1.524 . S
C1455 C1452 1.403 . S
C1455 C1456 1.392 . S
C1455 C1459 1.495 . S
C1456 C1455 1.392 . S
C1456 C1457 1.385 . S
C1456 C1458 1.478 . S
C1457 H1451 0.930 . S
C1457 C1453 1.400 . S
C1457 C1456 1.385 . S
C1458 C1456 1.478 . S
C1458 C1460 1.381 . S
C1458 C1464 1.383 . S
C1459 C1455 1.495 . S
C1459 H1465 0.959 . S
C1459 H1466 0.961 . S
C1459 H1467 0.960 . S
C1460 C1458 1.381 . S
C1460 C1461 1.394 . S
C1460 H1468 0.930 . S
C1461 C1460 1.394 . S
C1461 C1462 1.383 . S
C1461 H1469 0.929 . S
C1462 C1461 1.383 . S
C1462 C1463 1.377 . S
C1463 H1447 0.930 . S
C1463 C1462 1.377 . S
C1463 C1464 1.379 . S
C1464 H1448 0.931 . S
C1464 C1458 1.383 . S
C1464 C1463 1.379 . S
H1465 C1459 0.959 . S
H1466 C1459 0.961 . S
H1467 C1459 0.960 . S
H1468 C1460 0.930 . S
H1469 C1461 0.929 . S
H1470 C1478 0.929 . S
H1471 C1480 0.930 . S
H1472 C1482 0.930 . S
H1473 C1485 0.929 . S
H1474 C1488 0.930 . S
H1475 C1490 0.960 . S
H1476 C1490 0.960 . S
H1477 C1490 0.960 . S
C1478 H1470 0.929 . S
C1478 C1479 1.377 . S
C1478 C1480 1.384 . S
C1479 C1478 1.377 . S
C1479 C1485 1.390 . S
C1480 H1471 0.930 . S
C1480 C1478 1.384 . S
C1480 C1481 1.372 . S
C1481 C1480 1.372 . S
C1481 C1482 1.400 . S
C1481 C1486 1.490 . S
C1482 H1472 0.930 . S
C1482 C1481 1.400 . S
C1482 C1485 1.386 . S
H1483 C1499 0.930 . S
H1484 C1500 0.931 . S
C1485 H1473 0.929 . S
C1485 C1479 1.390 . S
C1485 C1482 1.386 . S
C1486 C1481 1.490 . S
C1486 C1488 1.395 . S
C1486 C1489 1.403 . S
H1487 C1493 0.930 . S
C1488 H1474 0.930 . S
C1488 C1486 1.395 . S
C1488 C1491 1.403 . S
C1489 C1486 1.403 . S
C1489 C1490 1.524 . S
C1489 C1493 1.400 . S
C1490 H1475 0.960 . S
C1490 H1476 0.960 . S
C1490 H1477 0.960 . S
C1490 C1489 1.524 . S
C1491 C1488 1.403 . S
C1491 C1492 1.392 . S
C1491 C1495 1.495 . S
C1492 C1491 1.392 . S
C1492 C1493 1.385 . S
C1492 C1494 1.478 . S
C1493 H1487 0.930 . S
C1493 C1489 1.400 . S
C1493 C1492 1.385 . S
C1494 C1492 1.478 . S
C1494 C1496 1.381 . S
C1494 C1500 1.383 . S
C1495 C1491 1.495 . S
C1495 H1501 0.959 . S
C1495 H1502 0.961 . S
C1495 H1503 0.960 . S
C1496 C1494 1.381 . S
C1496 C1497 1.394 . S
C1496 H1504 0.930 . S
C1497 C1496 1.394 . S
C1497 C1498 1.383 . S
C1497 H1505 0.929 . S
C1498 C1497 1.383 . S
C1498 C1499 1.377 . S
C1499 H1483 0.930 . S
C1499 C1498 1.377 . S
C1499 C1500 1.379 . S
C1500 H1484 0.931 . S
C1500 C1494 1.383 . S
C1500 C1499 1.379 . S
H1501 C1495 0.959 . S
H1502 C1495 0.961 . S
H1503 C1495 0.960 . S
H1504 C1496 0.930 . S
H1505 C1497 0.929 . S
H1506 C1514 0.929 . S
H1507 C1516 0.930 . S
H1508 C1518 0.930 . S
H1509 C1521 0.929 . S
H1510 C1524 0.930 . S
H1511 C1526 0.960 . S
H1512 C1526 0.960 . S
H1513 C1526 0.960 . S
C1514 H1506 0.929 . S
C1514 C1515 1.377 . S
C1514 C1516 1.384 . S
C1515 C1514 1.377 . S
C1515 C1521 1.390 . S
C1516 H1507 0.930 . S
C1516 C1514 1.384 . S
C1516 C1517 1.372 . S
C1517 C1516 1.372 . S
C1517 C1518 1.400 . S
C1517 C1522 1.490 . S
C1518 H1508 0.930 . S
C1518 C1517 1.400 . S
C1518 C1521 1.386 . S
H1519 C1535 0.930 . S
H1520 C1536 0.931 . S
C1521 H1509 0.929 . S
C1521 C1515 1.390 . S
C1521 C1518 1.386 . S
C1522 C1517 1.490 . S
C1522 C1524 1.395 . S
C1522 C1525 1.403 . S
H1523 C1529 0.930 . S
C1524 H1510 0.930 . S
C1524 C1522 1.395 . S
C1524 C1527 1.403 . S
C1525 C1522 1.403 . S
C1525 C1526 1.524 . S
C1525 C1529 1.400 . S
C1526 H1511 0.960 . S
C1526 H1512 0.960 . S
C1526 H1513 0.960 . S
C1526 C1525 1.524 . S
C1527 C1524 1.403 . S
C1527 C1528 1.392 . S
C1527 C1531 1.495 . S
C1528 C1527 1.392 . S
C1528 C1529 1.385 . S
C1528 C1530 1.478 . S
C1529 H1523 0.930 . S
C1529 C1525 1.400 . S
C1529 C1528 1.385 . S
C1530 C1528 1.478 . S
C1530 C1532 1.381 . S
C1530 C1536 1.383 . S
C1531 C1527 1.495 . S
C1531 H1537 0.959 . S
C1531 H1538 0.961 . S
C1531 H1539 0.960 . S
C1532 C1530 1.381 . S
C1532 C1533 1.394 . S
C1532 H1540 0.930 . S
C1533 C1532 1.394 . S
C1533 C1534 1.383 . S
C1533 H1541 0.929 . S
C1534 C1533 1.383 . S
C1534 C1535 1.377 . S
C1535 H1519 0.930 . S
C1535 C1534 1.377 . S
C1535 C1536 1.379 . S
C1536 H1520 0.931 . S
C1536 C1530 1.383 . S
C1536 C1535 1.379 . S
H1537 C1531 0.959 . S
H1538 C1531 0.961 . S
H1539 C1531 0.960 . S
H1540 C1532 0.930 . S
H1541 C1533 0.929 . S
H1542 C1550 0.929 . S
H1543 C1552 0.930 . S
H1544 C1554 0.930 . S
H1545 C1557 0.929 . S
H1546 C1560 0.930 . S
H1547 C1562 0.960 . S
H1548 C1562 0.960 . S
H1549 C1562 0.960 . S
C1550 H1542 0.929 . S
C1550 C1551 1.377 . S
C1550 C1552 1.384 . S
C1551 C1550 1.377 . S
C1551 C1557 1.390 . S
C1552 H1543 0.930 . S
C1552 C1550 1.384 . S
C1552 C1553 1.372 . S
C1553 C1552 1.372 . S
C1553 C1554 1.400 . S
C1553 C1558 1.490 . S
C1554 H1544 0.930 . S
C1554 C1553 1.400 . S
C1554 C1557 1.386 . S
H1555 C1571 0.930 . S
H1556 C1572 0.931 . S
C1557 H1545 0.929 . S
C1557 C1551 1.390 . S
C1557 C1554 1.386 . S
C1558 C1553 1.490 . S
C1558 C1560 1.395 . S
C1558 C1561 1.403 . S
H1559 C1565 0.930 . S
C1560 H1546 0.930 . S
C1560 C1558 1.395 . S
C1560 C1563 1.403 . S
C1561 C1558 1.403 . S
C1561 C1562 1.524 . S
C1561 C1565 1.400 . S
C1562 H1547 0.960 . S
C1562 H1548 0.960 . S
C1562 H1549 0.960 . S
C1562 C1561 1.524 . S
C1563 C1560 1.403 . S
C1563 C1564 1.392 . S
C1563 C1567 1.495 . S
C1564 C1563 1.392 . S
C1564 C1565 1.385 . S
C1564 C1566 1.478 . S
C1565 H1559 0.930 . S
C1565 C1561 1.400 . S
C1565 C1564 1.385 . S
C1566 C1564 1.478 . S
C1566 C1568 1.381 . S
C1566 C1572 1.383 . S
C1567 C1563 1.495 . S
C1567 H1573 0.959 . S
C1567 H1574 0.961 . S
C1567 H1575 0.960 . S
C1568 C1566 1.381 . S
C1568 C1569 1.394 . S
C1568 H1576 0.930 . S
C1569 C1568 1.394 . S
C1569 C1570 1.383 . S
C1569 H1577 0.929 . S
C1570 C1569 1.383 . S
C1570 C1571 1.377 . S
C1571 H1555 0.930 . S
C1571 C1570 1.377 . S
C1571 C1572 1.379 . S
C1572 H1556 0.931 . S
C1572 C1566 1.383 . S
C1572 C1571 1.379 . S
H1573 C1567 0.959 . S
H1574 C1567 0.961 . S
H1575 C1567 0.960 . S
H1576 C1568 0.930 . S
H1577 C1569 0.929 . S
H1578 C1586 0.929 . S
H1579 C1588 0.930 . S
H1580 C1590 0.930 . S
H1581 C1593 0.929 . S
H1582 C1596 0.930 . S
H1583 C1598 0.960 . S
H1584 C1598 0.960 . S
H1585 C1598 0.960 . S
C1586 H1578 0.929 . S
C1586 C1587 1.377 . S
C1586 C1588 1.384 . S
C1587 C1586 1.377 . S
C1587 C1593 1.390 . S
C1588 H1579 0.930 . S
C1588 C1586 1.384 . S
C1588 C1589 1.372 . S
C1589 C1588 1.372 . S
C1589 C1590 1.400 . S
C1589 C1594 1.490 . S
C1590 H1580 0.930 . S
C1590 C1589 1.400 . S
C1590 C1593 1.386 . S
H1591 C1607 0.930 . S
H1592 C1608 0.931 . S
C1593 H1581 0.929 . S
C1593 C1587 1.390 . S
C1593 C1590 1.386 . S
C1594 C1589 1.490 . S
C1594 C1596 1.395 . S
C1594 C1597 1.403 . S
H1595 C1601 0.930 . S
C1596 H1582 0.930 . S
C1596 C1594 1.395 . S
C1596 C1599 1.403 . S
C1597 C1594 1.403 . S
C1597 C1598 1.524 . S
C1597 C1601 1.400 . S
C1598 H1583 0.960 . S
C1598 H1584 0.960 . S
C1598 H1585 0.960 . S
C1598 C1597 1.524 . S
C1599 C1596 1.403 . S
C1599 C1600 1.392 . S
C1599 C1603 1.495 . S
C1600 C1599 1.392 . S
C1600 C1601 1.385 . S
C1600 C1602 1.478 . S
C1601 H1595 0.930 . S
C1601 C1597 1.400 . S
C1601 C1600 1.385 . S
C1602 C1600 1.478 . S
C1602 C1604 1.381 . S
C1602 C1608 1.383 . S
C1603 C1599 1.495 . S
C1603 H1609 0.959 . S
C1603 H1610 0.961 . S
C1603 H1611 0.960 . S
C1604 C1602 1.381 . S
C1604 C1605 1.394 . S
C1604 H1612 0.930 . S
C1605 C1604 1.394 . S
C1605 C1606 1.383 . S
C1605 H1613 0.929 . S
C1606 C1605 1.383 . S
C1606 C1607 1.377 . S
C1607 H1591 0.930 . S
C1607 C1606 1.377 . S
C1607 C1608 1.379 . S
C1608 H1592 0.931 . S
C1608 C1602 1.383 . S
C1608 C1607 1.379 . S
H1609 C1603 0.959 . S
H1610 C1603 0.961 . S
H1611 C1603 0.960 . S
H1612 C1604 0.930 . S
H1613 C1605 0.929 . S
H1614 C1622 0.929 . S
H1615 C1624 0.930 . S
H1616 C1626 0.930 . S
H1617 C1629 0.929 . S
H1618 C1632 0.930 . S
H1619 C1634 0.960 . S
H1620 C1634 0.960 . S
H1621 C1634 0.960 . S
C1622 H1614 0.929 . S
C1622 C1623 1.377 . S
C1622 C1624 1.384 . S
C1623 C1622 1.377 . S
C1623 C1629 1.390 . S
C1624 H1615 0.930 . S
C1624 C1622 1.384 . S
C1624 C1625 1.372 . S
C1625 C1624 1.372 . S
C1625 C1626 1.400 . S
C1625 C1630 1.490 . S
C1626 H1616 0.930 . S
C1626 C1625 1.400 . S
C1626 C1629 1.386 . S
H1627 C1643 0.930 . S
H1628 C1644 0.931 . S
C1629 H1617 0.929 . S
C1629 C1623 1.390 . S
C1629 C1626 1.386 . S
C1630 C1625 1.490 . S
C1630 C1632 1.395 . S
C1630 C1633 1.403 . S
H1631 C1637 0.930 . S
C1632 H1618 0.930 . S
C1632 C1630 1.395 . S
C1632 C1635 1.403 . S
C1633 C1630 1.403 . S
C1633 C1634 1.524 . S
C1633 C1637 1.400 . S
C1634 H1619 0.960 . S
C1634 H1620 0.960 . S
C1634 H1621 0.960 . S
C1634 C1633 1.524 . S
C1635 C1632 1.403 . S
C1635 C1636 1.392 . S
C1635 C1639 1.495 . S
C1636 C1635 1.392 . S
C1636 C1637 1.385 . S
C1636 C1638 1.478 . S
C1637 H1631 0.930 . S
C1637 C1633 1.400 . S
C1637 C1636 1.385 . S
C1638 C1636 1.478 . S
C1638 C1640 1.381 . S
C1638 C1644 1.383 . S
C1639 C1635 1.495 . S
C1639 H1645 0.959 . S
C1639 H1646 0.961 . S
C1639 H1647 0.960 . S
C1640 C1638 1.381 . S
C1640 C1641 1.394 . S
C1640 H1648 0.930 . S
C1641 C1640 1.394 . S
C1641 C1642 1.383 . S
C1641 H1649 0.929 . S
C1642 C1641 1.383 . S
C1642 C1643 1.377 . S
C1643 H1627 0.930 . S
C1643 C1642 1.377 . S
C1643 C1644 1.379 . S
C1644 H1628 0.931 . S
C1644 C1638 1.383 . S
C1644 C1643 1.379 . S
H1645 C1639 0.959 . S
H1646 C1639 0.961 . S
H1647 C1639 0.960 . S
H1648 C1640 0.930 . S
H1649 C1641 0.929 . S
H1650 C1658 0.929 . S
H1651 C1660 0.930 . S
H1652 C1662 0.930 . S
H1653 C1665 0.929 . S
H1654 C1668 0.930 . S
H1655 C1670 0.960 . S
H1656 C1670 0.960 . S
H1657 C1670 0.960 . S
C1658 H1650 0.929 . S
C1658 C1659 1.377 . S
C1658 C1660 1.384 . S
C1659 C1658 1.377 . S
C1659 C1665 1.390 . S
C1660 H1651 0.930 . S
C1660 C1658 1.384 . S
C1660 C1661 1.372 . S
C1661 C1660 1.372 . S
C1661 C1662 1.400 . S
C1661 C1666 1.490 . S
C1662 H1652 0.930 . S
C1662 C1661 1.400 . S
C1662 C1665 1.386 . S
H1663 C1679 0.930 . S
H1664 C1680 0.931 . S
C1665 H1653 0.929 . S
C1665 C1659 1.390 . S
C1665 C1662 1.386 . S
C1666 C1661 1.490 . S
C1666 C1668 1.395 . S
C1666 C1669 1.403 . S
H1667 C1673 0.930 . S
C1668 H1654 0.930 . S
C1668 C1666 1.395 . S
C1668 C1671 1.403 . S
C1669 C1666 1.403 . S
C1669 C1670 1.524 . S
C1669 C1673 1.400 . S
C1670 H1655 0.960 . S
C1670 H1656 0.960 . S
C1670 H1657 0.960 . S
C1670 C1669 1.524 . S
C1671 C1668 1.403 . S
C1671 C1672 1.392 . S
C1671 C1675 1.495 . S
C1672 C1671 1.392 . S
C1672 C1673 1.385 . S
C1672 C1674 1.478 . S
C1673 H1667 0.930 . S
C1673 C1669 1.400 . S
C1673 C1672 1.385 . S
C1674 C1672 1.478 . S
C1674 C1676 1.381 . S
C1674 C1680 1.383 . S
C1675 C1671 1.495 . S
C1675 H1681 0.959 . S
C1675 H1682 0.961 . S
C1675 H1683 0.960 . S
C1676 C1674 1.381 . S
C1676 C1677 1.394 . S
C1676 H1684 0.930 . S
C1677 C1676 1.394 . S
C1677 C1678 1.383 . S
C1677 H1685 0.929 . S
C1678 C1677 1.383 . S
C1678 C1679 1.377 . S
C1679 H1663 0.930 . S
C1679 C1678 1.377 . S
C1679 C1680 1.379 . S
C1680 H1664 0.931 . S
C1680 C1674 1.383 . S
C1680 C1679 1.379 . S
H1681 C1675 0.959 . S
H1682 C1675 0.961 . S
H1683 C1675 0.960 . S
H1684 C1676 0.930 . S
H1685 C1677 0.929 . S
H1686 C1694 0.929 . S
H1687 C1696 0.930 . S
H1688 C1698 0.930 . S
H1689 C1701 0.929 . S
H1690 C1704 0.930 . S
H1691 C1706 0.960 . S
H1692 C1706 0.960 . S
H1693 C1706 0.960 . S
C1694 H1686 0.929 . S
C1694 C1695 1.377 . S
C1694 C1696 1.384 . S
C1695 C1694 1.377 . S
C1695 C1701 1.390 . S
C1696 H1687 0.930 . S
C1696 C1694 1.384 . S
C1696 C1697 1.372 . S
C1697 C1696 1.372 . S
C1697 C1698 1.400 . S
C1697 C1702 1.490 . S
C1698 H1688 0.930 . S
C1698 C1697 1.400 . S
C1698 C1701 1.386 . S
H1699 C1715 0.930 . S
H1700 C1716 0.931 . S
C1701 H1689 0.929 . S
C1701 C1695 1.390 . S
C1701 C1698 1.386 . S
C1702 C1697 1.490 . S
C1702 C1704 1.395 . S
C1702 C1705 1.403 . S
H1703 C1709 0.930 . S
C1704 H1690 0.930 . S
C1704 C1702 1.395 . S
C1704 C1707 1.403 . S
C1705 C1702 1.403 . S
C1705 C1706 1.524 . S
C1705 C1709 1.400 . S
C1706 H1691 0.960 . S
C1706 H1692 0.960 . S
C1706 H1693 0.960 . S
C1706 C1705 1.524 . S
C1707 C1704 1.403 . S
C1707 C1708 1.392 . S
C1707 C1711 1.495 . S
C1708 C1707 1.392 . S
C1708 C1709 1.385 . S
C1708 C1710 1.478 . S
C1709 H1703 0.930 . S
C1709 C1705 1.400 . S
C1709 C1708 1.385 . S
C1710 C1708 1.478 . S
C1710 C1712 1.381 . S
C1710 C1716 1.383 . S
C1711 C1707 1.495 . S
C1711 H1717 0.959 . S
C1711 H1718 0.961 . S
C1711 H1719 0.960 . S
C1712 C1710 1.381 . S
C1712 C1713 1.394 . S
C1712 H1720 0.930 . S
C1713 C1712 1.394 . S
C1713 C1714 1.383 . S
C1713 H1721 0.929 . S
C1714 C1713 1.383 . S
C1714 C1715 1.377 . S
C1715 H1699 0.930 . S
C1715 C1714 1.377 . S
C1715 C1716 1.379 . S
C1716 H1700 0.931 . S
C1716 C1710 1.383 . S
C1716 C1715 1.379 . S
H1717 C1711 0.959 . S
H1718 C1711 0.961 . S
H1719 C1711 0.960 . S
H1720 C1712 0.930 . S
H1721 C1713 0.929 . S
H1722 C1730 0.929 . S
H1723 C1732 0.930 . S
H1724 C1734 0.930 . S
H1725 C1737 0.929 . S
H1726 C1740 0.930 . S
H1727 C1742 0.960 . S
H1728 C1742 0.960 . S
H1729 C1742 0.960 . S
C1730 H1722 0.929 . S
C1730 C1731 1.377 . S
C1730 C1732 1.384 . S
C1731 C1730 1.377 . S
C1731 C1737 1.390 . S
C1732 H1723 0.930 . S
C1732 C1730 1.384 . S
C1732 C1733 1.372 . S
C1733 C1732 1.372 . S
C1733 C1734 1.400 . S
C1733 C1738 1.490 . S
C1734 H1724 0.930 . S
C1734 C1733 1.400 . S
C1734 C1737 1.386 . S
H1735 C1751 0.930 . S
H1736 C1752 0.931 . S
C1737 H1725 0.929 . S
C1737 C1731 1.390 . S
C1737 C1734 1.386 . S
C1738 C1733 1.490 . S
C1738 C1740 1.395 . S
C1738 C1741 1.403 . S
H1739 C1745 0.930 . S
C1740 H1726 0.930 . S
C1740 C1738 1.395 . S
C1740 C1743 1.403 . S
C1741 C1738 1.403 . S
C1741 C1742 1.524 . S
C1741 C1745 1.400 . S
C1742 H1727 0.960 . S
C1742 H1728 0.960 . S
C1742 H1729 0.960 . S
C1742 C1741 1.524 . S
C1743 C1740 1.403 . S
C1743 C1744 1.392 . S
C1743 C1747 1.495 . S
C1744 C1743 1.392 . S
C1744 C1745 1.385 . S
C1744 C1746 1.478 . S
C1745 H1739 0.930 . S
C1745 C1741 1.400 . S
C1745 C1744 1.385 . S
C1746 C1744 1.478 . S
C1746 C1748 1.381 . S
C1746 C1752 1.383 . S
C1747 C1743 1.495 . S
C1747 H1753 0.959 . S
C1747 H1754 0.961 . S
C1747 H1755 0.960 . S
C1748 C1746 1.381 . S
C1748 C1749 1.394 . S
C1748 H1756 0.930 . S
C1749 C1748 1.394 . S
C1749 C1750 1.383 . S
C1749 H1757 0.929 . S
C1750 C1749 1.383 . S
C1750 C1751 1.377 . S
C1751 H1735 0.930 . S
C1751 C1750 1.377 . S
C1751 C1752 1.379 . S
C1752 H1736 0.931 . S
C1752 C1746 1.383 . S
C1752 C1751 1.379 . S
H1753 C1747 0.959 . S
H1754 C1747 0.961 . S
H1755 C1747 0.960 . S
H1756 C1748 0.930 . S
H1757 C1749 0.929 . S
H1758 C1766 0.929 . S
H1759 C1768 0.930 . S
H1760 C1770 0.930 . S
H1761 C1773 0.929 . S
H1762 C1776 0.930 . S
H1763 C1778 0.960 . S
H1764 C1778 0.960 . S
H1765 C1778 0.960 . S
C1766 H1758 0.929 . S
C1766 C1767 1.377 . S
C1766 C1768 1.384 . S
C1767 C1766 1.377 . S
C1767 C1773 1.390 . S
C1768 H1759 0.930 . S
C1768 C1766 1.384 . S
C1768 C1769 1.372 . S
C1769 C1768 1.372 . S
C1769 C1770 1.400 . S
C1769 C1774 1.490 . S
C1770 H1760 0.930 . S
C1770 C1769 1.400 . S
C1770 C1773 1.386 . S
H1771 C1787 0.930 . S
H1772 C1788 0.931 . S
C1773 H1761 0.929 . S
C1773 C1767 1.390 . S
C1773 C1770 1.386 . S
C1774 C1769 1.490 . S
C1774 C1776 1.395 . S
C1774 C1777 1.403 . S
H1775 C1781 0.930 . S
C1776 H1762 0.930 . S
C1776 C1774 1.395 . S
C1776 C1779 1.403 . S
C1777 C1774 1.403 . S
C1777 C1778 1.524 . S
C1777 C1781 1.400 . S
C1778 H1763 0.960 . S
C1778 H1764 0.960 . S
C1778 H1765 0.960 . S
C1778 C1777 1.524 . S
C1779 C1776 1.403 . S
C1779 C1780 1.392 . S
C1779 C1783 1.495 . S
C1780 C1779 1.392 . S
C1780 C1781 1.385 . S
C1780 C1782 1.478 . S
C1781 H1775 0.930 . S
C1781 C1777 1.400 . S
C1781 C1780 1.385 . S
C1782 C1780 1.478 . S
C1782 C1784 1.381 . S
C1782 C1788 1.383 . S
C1783 C1779 1.495 . S
C1783 H1789 0.959 . S
C1783 H1790 0.961 . S
C1783 H1791 0.960 . S
C1784 C1782 1.381 . S
C1784 C1785 1.394 . S
C1784 H1792 0.930 . S
C1785 C1784 1.394 . S
C1785 C1786 1.383 . S
C1785 H1793 0.929 . S
C1786 C1785 1.383 . S
C1786 C1787 1.377 . S
C1787 H1771 0.930 . S
C1787 C1786 1.377 . S
C1787 C1788 1.379 . S
C1788 H1772 0.931 . S
C1788 C1782 1.383 . S
C1788 C1787 1.379 . S
H1789 C1783 0.959 . S
H1790 C1783 0.961 . S
H1791 C1783 0.960 . S
H1792 C1784 0.930 . S
H1793 C1785 0.929 . S
H1794 C1802 0.929 . S
H1795 C1804 0.930 . S
H1796 C1806 0.930 . S
H1797 C1809 0.929 . S
H1798 C1812 0.930 . S
H1799 C1814 0.960 . S
H1800 C1814 0.960 . S
H1801 C1814 0.960 . S
C1802 H1794 0.929 . S
C1802 C1803 1.377 . S
C1802 C1804 1.384 . S
C1803 C1802 1.377 . S
C1803 C1809 1.390 . S
C1804 H1795 0.930 . S
C1804 C1802 1.384 . S
C1804 C1805 1.372 . S
C1805 C1804 1.372 . S
C1805 C1806 1.400 . S
C1805 C1810 1.490 . S
C1806 H1796 0.930 . S
C1806 C1805 1.400 . S
C1806 C1809 1.386 . S
H1807 C1823 0.930 . S
H1808 C1824 0.931 . S
C1809 H1797 0.929 . S
C1809 C1803 1.390 . S
C1809 C1806 1.386 . S
C1810 C1805 1.490 . S
C1810 C1812 1.395 . S
C1810 C1813 1.403 . S
H1811 C1817 0.930 . S
C1812 H1798 0.930 . S
C1812 C1810 1.395 . S
C1812 C1815 1.403 . S
C1813 C1810 1.403 . S
C1813 C1814 1.524 . S
C1813 C1817 1.400 . S
C1814 H1799 0.960 . S
C1814 H1800 0.960 . S
C1814 H1801 0.960 . S
C1814 C1813 1.524 . S
C1815 C1812 1.403 . S
C1815 C1816 1.392 . S
C1815 C1819 1.495 . S
C1816 C1815 1.392 . S
C1816 C1817 1.385 . S
C1816 C1818 1.478 . S
C1817 H1811 0.930 . S
C1817 C1813 1.400 . S
C1817 C1816 1.385 . S
C1818 C1816 1.478 . S
C1818 C1820 1.381 . S
C1818 C1824 1.383 . S
C1819 C1815 1.495 . S
C1819 H1825 0.959 . S
C1819 H1826 0.961 . S
C1819 H1827 0.960 . S
C1820 C1818 1.381 . S
C1820 C1821 1.394 . S
C1820 H1828 0.930 . S
C1821 C1820 1.394 . S
C1821 C1822 1.383 . S
C1821 H1829 0.929 . S
C1822 C1821 1.383 . S
C1822 C1823 1.377 . S
C1823 H1807 0.930 . S
C1823 C1822 1.377 . S
C1823 C1824 1.379 . S
C1824 H1808 0.931 . S
C1824 C1818 1.383 . S
C1824 C1823 1.379 . S
H1825 C1819 0.959 . S
H1826 C1819 0.961 . S
H1827 C1819 0.960 . S
H1828 C1820 0.930 . S
H1829 C1821 0.929 . S
H1830 C1838 0.929 . S
H1831 C1840 0.930 . S
H1832 C1842 0.930 . S
H1833 C1845 0.929 . S
H1834 C1848 0.930 . S
H1835 C1850 0.960 . S
H1836 C1850 0.960 . S
H1837 C1850 0.960 . S
C1838 H1830 0.929 . S
C1838 C1839 1.377 . S
C1838 C1840 1.384 . S
C1839 C1838 1.377 . S
C1839 C1845 1.390 . S
C1840 H1831 0.930 . S
C1840 C1838 1.384 . S
C1840 C1841 1.372 . S
C1841 C1840 1.372 . S
C1841 C1842 1.400 . S
C1841 C1846 1.490 . S
C1842 H1832 0.930 . S
C1842 C1841 1.400 . S
C1842 C1845 1.386 . S
H1843 C1859 0.930 . S
H1844 C1860 0.931 . S
C1845 H1833 0.929 . S
C1845 C1839 1.390 . S
C1845 C1842 1.386 . S
C1846 C1841 1.490 . S
C1846 C1848 1.395 . S
C1846 C1849 1.403 . S
H1847 C1853 0.930 . S
C1848 H1834 0.930 . S
C1848 C1846 1.395 . S
C1848 C1851 1.403 . S
C1849 C1846 1.403 . S
C1849 C1850 1.524 . S
C1849 C1853 1.400 . S
C1850 H1835 0.960 . S
C1850 H1836 0.960 . S
C1850 H1837 0.960 . S
C1850 C1849 1.524 . S
C1851 C1848 1.403 . S
C1851 C1852 1.392 . S
C1851 C1855 1.495 . S
C1852 C1851 1.392 . S
C1852 C1853 1.385 . S
C1852 C1854 1.478 . S
C1853 H1847 0.930 . S
C1853 C1849 1.400 . S
C1853 C1852 1.385 . S
C1854 C1852 1.478 . S
C1854 C1856 1.381 . S
C1854 C1860 1.383 . S
C1855 C1851 1.495 . S
C1855 H1861 0.959 . S
C1855 H1862 0.961 . S
C1855 H1863 0.960 . S
C1856 C1854 1.381 . S
C1856 C1857 1.394 . S
C1856 H1864 0.930 . S
C1857 C1856 1.394 . S
C1857 C1858 1.383 . S
C1857 H1865 0.929 . S
C1858 C1857 1.383 . S
C1858 C1859 1.377 . S
C1859 H1843 0.930 . S
C1859 C1858 1.377 . S
C1859 C1860 1.379 . S
C1860 H1844 0.931 . S
C1860 C1854 1.383 . S
C1860 C1859 1.379 . S
H1861 C1855 0.959 . S
H1862 C1855 0.961 . S
H1863 C1855 0.960 . S
H1864 C1856 0.930 . S
H1865 C1857 0.929 . S
H1866 C1874 0.929 . S
H1867 C1876 0.930 . S
H1868 C1878 0.930 . S
H1869 C1881 0.929 . S
H1870 C1884 0.930 . S
H1871 C1886 0.960 . S
H1872 C1886 0.960 . S
H1873 C1886 0.960 . S
C1874 H1866 0.929 . S
C1874 C1875 1.377 . S
C1874 C1876 1.384 . S
C1875 C1874 1.377 . S
C1875 C1881 1.390 . S
C1876 H1867 0.930 . S
C1876 C1874 1.384 . S
C1876 C1877 1.372 . S
C1877 C1876 1.372 . S
C1877 C1878 1.400 . S
C1877 C1882 1.490 . S
C1878 H1868 0.930 . S
C1878 C1877 1.400 . S
C1878 C1881 1.386 . S
H1879 C1895 0.930 . S
H1880 C1896 0.931 . S
C1881 H1869 0.929 . S
C1881 C1875 1.390 . S
C1881 C1878 1.386 . S
C1882 C1877 1.490 . S
C1882 C1884 1.395 . S
C1882 C1885 1.403 . S
H1883 C1889 0.930 . S
C1884 H1870 0.930 . S
C1884 C1882 1.395 . S
C1884 C1887 1.403 . S
C1885 C1882 1.403 . S
C1885 C1886 1.524 . S
C1885 C1889 1.400 . S
C1886 H1871 0.960 . S
C1886 H1872 0.960 . S
C1886 H1873 0.960 . S
C1886 C1885 1.524 . S
C1887 C1884 1.403 . S
C1887 C1888 1.392 . S
C1887 C1891 1.495 . S
C1888 C1887 1.392 . S
C1888 C1889 1.385 . S
C1888 C1890 1.478 . S
C1889 H1883 0.930 . S
C1889 C1885 1.400 . S
C1889 C1888 1.385 . S
C1890 C1888 1.478 . S
C1890 C1892 1.381 . S
C1890 C1896 1.383 . S
C1891 C1887 1.495 . S
C1891 H1897 0.959 . S
C1891 H1898 0.961 . S
C1891 H1899 0.960 . S
C1892 C1890 1.381 . S
C1892 C1893 1.394 . S
C1892 H1900 0.930 . S
C1893 C1892 1.394 . S
C1893 C1894 1.383 . S
C1893 H1901 0.929 . S
C1894 C1893 1.383 . S
C1894 C1895 1.377 . S
C1895 H1879 0.930 . S
C1895 C1894 1.377 . S
C1895 C1896 1.379 . S
C1896 H1880 0.931 . S
C1896 C1890 1.383 . S
C1896 C1895 1.379 . S
H1897 C1891 0.959 . S
H1898 C1891 0.961 . S
H1899 C1891 0.960 . S
H1900 C1892 0.930 . S
H1901 C1893 0.929 . S
H1902 C1910 0.929 . S
H1903 C1912 0.930 . S
H1904 C1914 0.930 . S
H1905 C1917 0.929 . S
H1906 C1920 0.930 . S
H1907 C1922 0.960 . S
H1908 C1922 0.960 . S
H1909 C1922 0.960 . S
C1910 H1902 0.929 . S
C1910 C1911 1.377 . S
C1910 C1912 1.384 . S
C1911 C1910 1.377 . S
C1911 C1917 1.390 . S
C1912 H1903 0.930 . S
C1912 C1910 1.384 . S
C1912 C1913 1.372 . S
C1913 C1912 1.372 . S
C1913 C1914 1.400 . S
C1913 C1918 1.490 . S
C1914 H1904 0.930 . S
C1914 C1913 1.400 . S
C1914 C1917 1.386 . S
H1915 C1931 0.930 . S
H1916 C1932 0.931 . S
C1917 H1905 0.929 . S
C1917 C1911 1.390 . S
C1917 C1914 1.386 . S
C1918 C1913 1.490 . S
C1918 C1920 1.395 . S
C1918 C1921 1.403 . S
H1919 C1925 0.930 . S
C1920 H1906 0.930 . S
C1920 C1918 1.395 . S
C1920 C1923 1.403 . S
C1921 C1918 1.403 . S
C1921 C1922 1.524 . S
C1921 C1925 1.400 . S
C1922 H1907 0.960 . S
C1922 H1908 0.960 . S
C1922 H1909 0.960 . S
C1922 C1921 1.524 . S
C1923 C1920 1.403 . S
C1923 C1924 1.392 . S
C1923 C1927 1.495 . S
C1924 C1923 1.392 . S
C1924 C1925 1.385 . S
C1924 C1926 1.478 . S
C1925 H1919 0.930 . S
C1925 C1921 1.400 . S
C1925 C1924 1.385 . S
C1926 C1924 1.478 . S
C1926 C1928 1.381 . S
C1926 C1932 1.383 . S
C1927 C1923 1.495 . S
C1927 H1933 0.959 . S
C1927 H1934 0.961 . S
C1927 H1935 0.960 . S
C1928 C1926 1.381 . S
C1928 C1929 1.394 . S
C1928 H1936 0.930 . S
C1929 C1928 1.394 . S
C1929 C1930 1.383 . S
C1929 H1937 0.929 . S
C1930 C1929 1.383 . S
C1930 C1931 1.377 . S
C1931 H1915 0.930 . S
C1931 C1930 1.377 . S
C1931 C1932 1.379 . S
C1932 H1916 0.931 . S
C1932 C1926 1.383 . S
C1932 C1931 1.379 . S
H1933 C1927 0.959 . S
H1934 C1927 0.961 . S
H1935 C1927 0.960 . S
H1936 C1928 0.930 . S
H1937 C1929 0.929 . S
H1938 C1946 0.929 . S
H1939 C1948 0.930 . S
H1940 C1950 0.930 . S
H1941 C1953 0.929 . S
H1942 C1956 0.930 . S
H1943 C1958 0.960 . S
H1944 C1958 0.960 . S
H1945 C1958 0.960 . S
C1946 H1938 0.929 . S
C1946 C1947 1.377 . S
C1946 C1948 1.384 . S
C1947 C1946 1.377 . S
C1947 C1953 1.390 . S
C1948 H1939 0.930 . S
C1948 C1946 1.384 . S
C1948 C1949 1.372 . S
C1949 C1948 1.372 . S
C1949 C1950 1.400 . S
C1949 C1954 1.490 . S
C1950 H1940 0.930 . S
C1950 C1949 1.400 . S
C1950 C1953 1.386 . S
H1951 C1967 0.930 . S
H1952 C1968 0.931 . S
C1953 H1941 0.929 . S
C1953 C1947 1.390 . S
C1953 C1950 1.386 . S
C1954 C1949 1.490 . S
C1954 C1956 1.395 . S
C1954 C1957 1.403 . S
H1955 C1961 0.930 . S
C1956 H1942 0.930 . S
C1956 C1954 1.395 . S
C1956 C1959 1.403 . S
C1957 C1954 1.403 . S
C1957 C1958 1.524 . S
C1957 C1961 1.400 . S
C1958 H1943 0.960 . S
C1958 H1944 0.960 . S
C1958 H1945 0.960 . S
C1958 C1957 1.524 . S
C1959 C1956 1.403 . S
C1959 C1960 1.392 . S
C1959 C1963 1.495 . S
C1960 C1959 1.392 . S
C1960 C1961 1.385 . S
C1960 C1962 1.478 . S
C1961 H1955 0.930 . S
C1961 C1957 1.400 . S
C1961 C1960 1.385 . S
C1962 C1960 1.478 . S
C1962 C1964 1.381 . S
C1962 C1968 1.383 . S
C1963 C1959 1.495 . S
C1963 H1969 0.959 . S
C1963 H1970 0.961 . S
C1963 H1971 0.960 . S
C1964 C1962 1.381 . S
C1964 C1965 1.394 . S
C1964 H1972 0.930 . S
C1965 C1964 1.394 . S
C1965 C1966 1.383 . S
C1965 H1973 0.929 . S
C1966 C1965 1.383 . S
C1966 C1967 1.377 . S
C1967 H1951 0.930 . S
C1967 C1966 1.377 . S
C1967 C1968 1.379 . S
C1968 H1952 0.931 . S
C1968 C1962 1.383 . S
C1968 C1967 1.379 . S
H1969 C1963 0.959 . S
H1970 C1963 0.961 . S
H1971 C1963 0.960 . S
H1972 C1964 0.930 . S
H1973 C1965 0.929 . S
H1974 C1982 0.929 . S
H1975 C1984 0.930 . S
H1976 C1986 0.930 . S
H1977 C1989 0.929 . S
H1978 C1992 0.930 . S
H1979 C1994 0.960 . S
H1980 C1994 0.960 . S
H1981 C1994 0.960 . S
C1982 H1974 0.929 . S
C1982 C1983 1.377 . S
C1982 C1984 1.384 . S
C1983 C1982 1.377 . S
C1983 C1989 1.390 . S
C1984 H1975 0.930 . S
C1984 C1982 1.384 . S
C1984 C1985 1.372 . S
C1985 C1984 1.372 . S
C1985 C1986 1.400 . S
C1985 C1990 1.490 . S
C1986 H1976 0.930 . S
C1986 C1985 1.400 . S
C1986 C1989 1.386 . S
H1987 C2003 0.930 . S
H1988 C2004 0.931 . S
C1989 H1977 0.929 . S
C1989 C1983 1.390 . S
C1989 C1986 1.386 . S
C1990 C1985 1.490 . S
C1990 C1992 1.395 . S
C1990 C1993 1.403 . S
H1991 C1997 0.930 . S
C1992 H1978 0.930 . S
C1992 C1990 1.395 . S
C1992 C1995 1.403 . S
C1993 C1990 1.403 . S
C1993 C1994 1.524 . S
C1993 C1997 1.400 . S
C1994 H1979 0.960 . S
C1994 H1980 0.960 . S
C1994 H1981 0.960 . S
C1994 C1993 1.524 . S
C1995 C1992 1.403 . S
C1995 C1996 1.392 . S
C1995 C1999 1.495 . S
C1996 C1995 1.392 . S
C1996 C1997 1.385 . S
C1996 C1998 1.478 . S
C1997 H1991 0.930 . S
C1997 C1993 1.400 . S
C1997 C1996 1.385 . S
C1998 C1996 1.478 . S
C1998 C2000 1.381 . S
C1998 C2004 1.383 . S
C1999 C1995 1.495 . S
C1999 H2005 0.959 . S
C1999 H2006 0.961 . S
C1999 H2007 0.960 . S
C2000 C1998 1.381 . S
C2000 C2001 1.394 . S
C2000 H2008 0.930 . S
C2001 C2000 1.394 . S
C2001 C2002 1.383 . S
C2001 H2009 0.929 . S
C2002 C2001 1.383 . S
C2002 C2003 1.377 . S
C2003 H1987 0.930 . S
C2003 C2002 1.377 . S
C2003 C2004 1.379 . S
C2004 H1988 0.931 . S
C2004 C1998 1.383 . S
C2004 C2003 1.379 . S
H2005 C1999 0.959 . S
H2006 C1999 0.961 . S
H2007 C1999 0.960 . S
H2008 C2000 0.930 . S
H2009 C2001 0.929 . S
H2010 C2018 0.929 . S
H2011 C2020 0.930 . S
H2012 C2022 0.930 . S
H2013 C2025 0.929 . S
H2014 C2028 0.930 . S
H2015 C2030 0.960 . S
H2016 C2030 0.960 . S
H2017 C2030 0.960 . S
C2018 H2010 0.929 . S
C2018 C2019 1.377 . S
C2018 C2020 1.384 . S
C2019 C2018 1.377 . S
C2019 C2025 1.390 . S
C2020 H2011 0.930 . S
C2020 C2018 1.384 . S
C2020 C2021 1.372 . S
C2021 C2020 1.372 . S
C2021 C2022 1.400 . S
C2021 C2026 1.490 . S
C2022 H2012 0.930 . S
C2022 C2021 1.400 . S
C2022 C2025 1.386 . S
H2023 C2039 0.930 . S
H2024 C2040 0.931 . S
C2025 H2013 0.929 . S
C2025 C2019 1.390 . S
C2025 C2022 1.386 . S
C2026 C2021 1.490 . S
C2026 C2028 1.395 . S
C2026 C2029 1.403 . S
H2027 C2033 0.930 . S
C2028 H2014 0.930 . S
C2028 C2026 1.395 . S
C2028 C2031 1.403 . S
C2029 C2026 1.403 . S
C2029 C2030 1.524 . S
C2029 C2033 1.400 . S
C2030 H2015 0.960 . S
C2030 H2016 0.960 . S
C2030 H2017 0.960 . S
C2030 C2029 1.524 . S
C2031 C2028 1.403 . S
C2031 C2032 1.392 . S
C2031 C2035 1.495 . S
C2032 C2031 1.392 . S
C2032 C2033 1.385 . S
C2032 C2034 1.478 . S
C2033 H2027 0.930 . S
C2033 C2029 1.400 . S
C2033 C2032 1.385 . S
C2034 C2032 1.478 . S
C2034 C2036 1.381 . S
C2034 C2040 1.383 . S
C2035 C2031 1.495 . S
C2035 H2041 0.959 . S
C2035 H2042 0.961 . S
C2035 H2043 0.960 . S
C2036 C2034 1.381 . S
C2036 C2037 1.394 . S
C2036 H2044 0.930 . S
C2037 C2036 1.394 . S
C2037 C2038 1.383 . S
C2037 H2045 0.929 . S
C2038 C2037 1.383 . S
C2038 C2039 1.377 . S
C2039 H2023 0.930 . S
C2039 C2038 1.377 . S
C2039 C2040 1.379 . S
C2040 H2024 0.931 . S
C2040 C2034 1.383 . S
C2040 C2039 1.379 . S
H2041 C2035 0.959 . S
H2042 C2035 0.961 . S
H2043 C2035 0.960 . S
H2044 C2036 0.930 . S
H2045 C2037 0.929 . S
H2046 C2054 0.929 . S
H2047 C2056 0.930 . S
H2048 C2058 0.930 . S
H2049 C2061 0.929 . S
H2050 C2064 0.930 . S
H2051 C2066 0.960 . S
H2052 C2066 0.960 . S
H2053 C2066 0.960 . S
C2054 H2046 0.929 . S
C2054 C2055 1.377 . S
C2054 C2056 1.384 . S
C2055 C2054 1.377 . S
C2055 C2061 1.390 . S
C2056 H2047 0.930 . S
C2056 C2054 1.384 . S
C2056 C2057 1.372 . S
C2057 C2056 1.372 . S
C2057 C2058 1.400 . S
C2057 C2062 1.490 . S
C2058 H2048 0.930 . S
C2058 C2057 1.400 . S
C2058 C2061 1.386 . S
H2059 C2075 0.930 . S
H2060 C2076 0.931 . S
C2061 H2049 0.929 . S
C2061 C2055 1.390 . S
C2061 C2058 1.386 . S
C2062 C2057 1.490 . S
C2062 C2064 1.395 . S
C2062 C2065 1.403 . S
H2063 C2069 0.930 . S
C2064 H2050 0.930 . S
C2064 C2062 1.395 . S
C2064 C2067 1.403 . S
C2065 C2062 1.403 . S
C2065 C2066 1.524 . S
C2065 C2069 1.400 . S
C2066 H2051 0.960 . S
C2066 H2052 0.960 . S
C2066 H2053 0.960 . S
C2066 C2065 1.524 . S
C2067 C2064 1.403 . S
C2067 C2068 1.392 . S
C2067 C2071 1.495 . S
C2068 C2067 1.392 . S
C2068 C2069 1.385 . S
C2068 C2070 1.478 . S
C2069 H2063 0.930 . S
C2069 C2065 1.400 . S
C2069 C2068 1.385 . S
C2070 C2068 1.478 . S
C2070 C2072 1.381 . S
C2070 C2076 1.383 . S
C2071 C2067 1.495 . S
C2071 H2077 0.959 . S
C2071 H2078 0.961 . S
C2071 H2079 0.960 . S
C2072 C2070 1.381 . S
C2072 C2073 1.394 . S
C2072 H2080 0.930 . S
C2073 C2072 1.394 . S
C2073 C2074 1.383 . S
C2073 H2081 0.929 . S
C2074 C2073 1.383 . S
C2074 C2075 1.377 . S
C2075 H2059 0.930 . S
C2075 C2074 1.377 . S
C2075 C2076 1.379 . S
C2076 H2060 0.931 . S
C2076 C2070 1.383 . S
C2076 C2075 1.379 . S
H2077 C2071 0.959 . S
H2078 C2071 0.961 . S
H2079 C2071 0.960 . S
H2080 C2072 0.930 . S
H2081 C2073 0.929 . S
H2082 C2090 0.929 . S
H2083 C2092 0.930 . S
H2084 C2094 0.930 . S
H2085 C2097 0.929 . S
H2086 C2100 0.930 . S
H2087 C2102 0.960 . S
H2088 C2102 0.960 . S
H2089 C2102 0.960 . S
C2090 H2082 0.929 . S
C2090 C2091 1.377 . S
C2090 C2092 1.384 . S
C2091 C2090 1.377 . S
C2091 C2097 1.390 . S
C2092 H2083 0.930 . S
C2092 C2090 1.384 . S
C2092 C2093 1.372 . S
C2093 C2092 1.372 . S
C2093 C2094 1.400 . S
C2093 C2098 1.490 . S
C2094 H2084 0.930 . S
C2094 C2093 1.400 . S
C2094 C2097 1.386 . S
H2095 C2111 0.930 . S
H2096 C2112 0.931 . S
C2097 H2085 0.929 . S
C2097 C2091 1.390 . S
C2097 C2094 1.386 . S
C2098 C2093 1.490 . S
C2098 C2100 1.395 . S
C2098 C2101 1.403 . S
H2099 C2105 0.930 . S
C2100 H2086 0.930 . S
C2100 C2098 1.395 . S
C2100 C2103 1.403 . S
C2101 C2098 1.403 . S
C2101 C2102 1.524 . S
C2101 C2105 1.400 . S
C2102 H2087 0.960 . S
C2102 H2088 0.960 . S
C2102 H2089 0.960 . S
C2102 C2101 1.524 . S
C2103 C2100 1.403 . S
C2103 C2104 1.392 . S
C2103 C2107 1.495 . S
C2104 C2103 1.392 . S
C2104 C2105 1.385 . S
C2104 C2106 1.478 . S
C2105 H2099 0.930 . S
C2105 C2101 1.400 . S
C2105 C2104 1.385 . S
C2106 C2104 1.478 . S
C2106 C2108 1.381 . S
C2106 C2112 1.383 . S
C2107 C2103 1.495 . S
C2107 H2113 0.959 . S
C2107 H2114 0.961 . S
C2107 H2115 0.960 . S
C2108 C2106 1.381 . S
C2108 C2109 1.394 . S
C2108 H2116 0.930 . S
C2109 C2108 1.394 . S
C2109 C2110 1.383 . S
C2109 H2117 0.929 . S
C2110 C2109 1.383 . S
C2110 C2111 1.377 . S
C2111 H2095 0.930 . S
C2111 C2110 1.377 . S
C2111 C2112 1.379 . S
C2112 H2096 0.931 . S
C2112 C2106 1.383 . S
C2112 C2111 1.379 . S
H2113 C2107 0.959 . S
H2114 C2107 0.961 . S
H2115 C2107 0.960 . S
H2116 C2108 0.930 . S
H2117 C2109 0.929 . S
H2118 C2126 0.929 . S
H2119 C2128 0.930 . S
H2120 C2130 0.930 . S
H2121 C2133 0.929 . S
H2122 C2136 0.930 . S
H2123 C2138 0.960 . S
H2124 C2138 0.960 . S
H2125 C2138 0.960 . S
C2126 H2118 0.929 . S
C2126 C2127 1.377 . S
C2126 C2128 1.384 . S
C2127 C2126 1.377 . S
C2127 C2133 1.390 . S
C2128 H2119 0.930 . S
C2128 C2126 1.384 . S
C2128 C2129 1.372 . S
C2129 C2128 1.372 . S
C2129 C2130 1.400 . S
C2129 C2134 1.490 . S
C2130 H2120 0.930 . S
C2130 C2129 1.400 . S
C2130 C2133 1.386 . S
H2131 C2147 0.930 . S
H2132 C2148 0.931 . S
C2133 H2121 0.929 . S
C2133 C2127 1.390 . S
C2133 C2130 1.386 . S
C2134 C2129 1.490 . S
C2134 C2136 1.395 . S
C2134 C2137 1.403 . S
H2135 C2141 0.930 . S
C2136 H2122 0.930 . S
C2136 C2134 1.395 . S
C2136 C2139 1.403 . S
C2137 C2134 1.403 . S
C2137 C2138 1.524 . S
C2137 C2141 1.400 . S
C2138 H2123 0.960 . S
C2138 H2124 0.960 . S
C2138 H2125 0.960 . S
C2138 C2137 1.524 . S
C2139 C2136 1.403 . S
C2139 C2140 1.392 . S
C2139 C2143 1.495 . S
C2140 C2139 1.392 . S
C2140 C2141 1.385 . S
C2140 C2142 1.478 . S
C2141 H2135 0.930 . S
C2141 C2137 1.400 . S
C2141 C2140 1.385 . S
C2142 C2140 1.478 . S
C2142 C2144 1.381 . S
C2142 C2148 1.383 . S
C2143 C2139 1.495 . S
C2143 H2149 0.959 . S
C2143 H2150 0.961 . S
C2143 H2151 0.960 . S
C2144 C2142 1.381 . S
C2144 C2145 1.394 . S
C2144 H2152 0.930 . S
C2145 C2144 1.394 . S
C2145 C2146 1.383 . S
C2145 H2153 0.929 . S
C2146 C2145 1.383 . S
C2146 C2147 1.377 . S
C2147 H2131 0.930 . S
C2147 C2146 1.377 . S
C2147 C2148 1.379 . S
C2148 H2132 0.931 . S
C2148 C2142 1.383 . S
C2148 C2147 1.379 . S
H2149 C2143 0.959 . S
H2150 C2143 0.961 . S
H2151 C2143 0.960 . S
H2152 C2144 0.930 . S
H2153 C2145 0.929 . S
H2154 C2162 0.929 . S
H2155 C2164 0.930 . S
H2156 C2166 0.930 . S
H2157 C2169 0.929 . S
H2158 C2172 0.930 . S
H2159 C2174 0.960 . S
H2160 C2174 0.960 . S
H2161 C2174 0.960 . S
C2162 H2154 0.929 . S
C2162 C2163 1.377 . S
C2162 C2164 1.384 . S
C2163 C2162 1.377 . S
C2163 C2169 1.390 . S
C2164 H2155 0.930 . S
C2164 C2162 1.384 . S
C2164 C2165 1.372 . S
C2165 C2164 1.372 . S
C2165 C2166 1.400 . S
C2165 C2170 1.490 . S
C2166 H2156 0.930 . S
C2166 C2165 1.400 . S
C2166 C2169 1.386 . S
H2167 C2183 0.930 . S
H2168 C2184 0.931 . S
C2169 H2157 0.929 . S
C2169 C2163 1.390 . S
C2169 C2166 1.386 . S
C2170 C2165 1.490 . S
C2170 C2172 1.395 . S
C2170 C2173 1.403 . S
H2171 C2177 0.930 . S
C2172 H2158 0.930 . S
C2172 C2170 1.395 . S
C2172 C2175 1.403 . S
C2173 C2170 1.403 . S
C2173 C2174 1.524 . S
C2173 C2177 1.400 . S
C2174 H2159 0.960 . S
C2174 H2160 0.960 . S
C2174 H2161 0.960 . S
C2174 C2173 1.524 . S
C2175 C2172 1.403 . S
C2175 C2176 1.392 . S
C2175 C2179 1.495 . S
C2176 C2175 1.392 . S
C2176 C2177 1.385 . S
C2176 C2178 1.478 . S
C2177 H2171 0.930 . S
C2177 C2173 1.400 . S
C2177 C2176 1.385 . S
C2178 C2176 1.478 . S
C2178 C2180 1.381 . S
C2178 C2184 1.383 . S
C2179 C2175 1.495 . S
C2179 H2185 0.959 . S
C2179 H2186 0.961 . S
C2179 H2187 0.960 . S
C2180 C2178 1.381 . S
C2180 C2181 1.394 . S
C2180 H2188 0.930 . S
C2181 C2180 1.394 . S
C2181 C2182 1.383 . S
C2181 H2189 0.929 . S
C2182 C2181 1.383 . S
C2182 C2183 1.377 . S
C2183 H2167 0.930 . S
C2183 C2182 1.377 . S
C2183 C2184 1.379 . S
C2184 H2168 0.931 . S
C2184 C2178 1.383 . S
C2184 C2183 1.379 . S
H2185 C2179 0.959 . S
H2186 C2179 0.961 . S
H2187 C2179 0.960 . S
H2188 C2180 0.930 . S
H2189 C2181 0.929 . S
H2190 C2198 0.929 . S
H2191 C2200 0.930 . S
H2192 C2202 0.930 . S
H2193 C2205 0.929 . S
H2194 C2208 0.930 . S
H2195 C2210 0.960 . S
H2196 C2210 0.960 . S
H2197 C2210 0.960 . S
C2198 H2190 0.929 . S
C2198 C2199 1.377 . S
C2198 C2200 1.384 . S
C2199 C2198 1.377 . S
C2199 C2205 1.390 . S
C2200 H2191 0.930 . S
C2200 C2198 1.384 . S
C2200 C2201 1.372 . S
C2201 C2200 1.372 . S
C2201 C2202 1.400 . S
C2201 C2206 1.490 . S
C2202 H2192 0.930 . S
C2202 C2201 1.400 . S
C2202 C2205 1.386 . S
H2203 C2219 0.930 . S
H2204 C2220 0.931 . S
C2205 H2193 0.929 . S
C2205 C2199 1.390 . S
C2205 C2202 1.386 . S
C2206 C2201 1.490 . S
C2206 C2208 1.395 . S
C2206 C2209 1.403 . S
H2207 C2213 0.930 . S
C2208 H2194 0.930 . S
C2208 C2206 1.395 . S
C2208 C2211 1.403 . S
C2209 C2206 1.403 . S
C2209 C2210 1.524 . S
C2209 C2213 1.400 . S
C2210 H2195 0.960 . S
C2210 H2196 0.960 . S
C2210 H2197 0.960 . S
C2210 C2209 1.524 . S
C2211 C2208 1.403 . S
C2211 C2212 1.392 . S
C2211 C2215 1.495 . S
C2212 C2211 1.392 . S
C2212 C2213 1.385 . S
C2212 C2214 1.478 . S
C2213 H2207 0.930 . S
C2213 C2209 1.400 . S
C2213 C2212 1.385 . S
C2214 C2212 1.478 . S
C2214 C2216 1.381 . S
C2214 C2220 1.383 . S
C2215 C2211 1.495 . S
C2215 H2221 0.959 . S
C2215 H2222 0.961 . S
C2215 H2223 0.960 . S
C2216 C2214 1.381 . S
C2216 C2217 1.394 . S
C2216 H2224 0.930 . S
C2217 C2216 1.394 . S
C2217 C2218 1.383 . S
C2217 H2225 0.929 . S
C2218 C2217 1.383 . S
C2218 C2219 1.377 . S
C2219 H2203 0.930 . S
C2219 C2218 1.377 . S
C2219 C2220 1.379 . S
C2220 H2204 0.931 . S
C2220 C2214 1.383 . S
C2220 C2219 1.379 . S
H2221 C2215 0.959 . S
H2222 C2215 0.961 . S
H2223 C2215 0.960 . S
H2224 C2216 0.930 . S
H2225 C2217 0.929 . S
H2226 C2234 0.929 . S
H2227 C2236 0.930 . S
H2228 C2238 0.930 . S
H2229 C2241 0.929 . S
H2230 C2244 0.930 . S
H2231 C2246 0.960 . S
H2232 C2246 0.960 . S
H2233 C2246 0.960 . S
C2234 H2226 0.929 . S
C2234 C2235 1.377 . S
C2234 C2236 1.384 . S
C2235 C2234 1.377 . S
C2235 C2241 1.390 . S
C2236 H2227 0.930 . S
C2236 C2234 1.384 . S
C2236 C2237 1.372 . S
C2237 C2236 1.372 . S
C2237 C2238 1.400 . S
C2237 C2242 1.490 . S
C2238 H2228 0.930 . S
C2238 C2237 1.400 . S
C2238 C2241 1.386 . S
H2239 C2255 0.930 . S
H2240 C2256 0.931 . S
C2241 H2229 0.929 . S
C2241 C2235 1.390 . S
C2241 C2238 1.386 . S
C2242 C2237 1.490 . S
C2242 C2244 1.395 . S
C2242 C2245 1.403 . S
H2243 C2249 0.930 . S
C2244 H2230 0.930 . S
C2244 C2242 1.395 . S
C2244 C2247 1.403 . S
C2245 C2242 1.403 . S
C2245 C2246 1.524 . S
C2245 C2249 1.400 . S
C2246 H2231 0.960 . S
C2246 H2232 0.960 . S
C2246 H2233 0.960 . S
C2246 C2245 1.524 . S
C2247 C2244 1.403 . S
C2247 C2248 1.392 . S
C2247 C2251 1.495 . S
C2248 C2247 1.392 . S
C2248 C2249 1.385 . S
C2248 C2250 1.478 . S
C2249 H2243 0.930 . S
C2249 C2245 1.400 . S
C2249 C2248 1.385 . S
C2250 C2248 1.478 . S
C2250 C2252 1.381 . S
C2250 C2256 1.383 . S
C2251 C2247 1.495 . S
C2251 H2257 0.959 . S
C2251 H2258 0.961 . S
C2251 H2259 0.960 . S
C2252 C2250 1.381 . S
C2252 C2253 1.394 . S
C2252 H2260 0.930 . S
C2253 C2252 1.394 . S
C2253 C2254 1.383 . S
C2253 H2261 0.929 . S
C2254 C2253 1.383 . S
C2254 C2255 1.377 . S
C2255 H2239 0.930 . S
C2255 C2254 1.377 . S
C2255 C2256 1.379 . S
C2256 H2240 0.931 . S
C2256 C2250 1.383 . S
C2256 C2255 1.379 . S
H2257 C2251 0.959 . S
H2258 C2251 0.961 . S
H2259 C2251 0.960 . S
H2260 C2252 0.930 . S
H2261 C2253 0.929 . S
H2262 C2270 0.929 . S
H2263 C2272 0.930 . S
H2264 C2274 0.930 . S
H2265 C2277 0.929 . S
H2266 C2280 0.930 . S
H2267 C2282 0.960 . S
H2268 C2282 0.960 . S
H2269 C2282 0.960 . S
C2270 H2262 0.929 . S
C2270 C2271 1.377 . S
C2270 C2272 1.384 . S
C2271 C2270 1.377 . S
C2271 C2277 1.390 . S
C2272 H2263 0.930 . S
C2272 C2270 1.384 . S
C2272 C2273 1.372 . S
C2273 C2272 1.372 . S
C2273 C2274 1.400 . S
C2273 C2278 1.490 . S
C2274 H2264 0.930 . S
C2274 C2273 1.400 . S
C2274 C2277 1.386 . S
H2275 C2291 0.930 . S
H2276 C2292 0.931 . S
C2277 H2265 0.929 . S
C2277 C2271 1.390 . S
C2277 C2274 1.386 . S
C2278 C2273 1.490 . S
C2278 C2280 1.395 . S
C2278 C2281 1.403 . S
H2279 C2285 0.930 . S
C2280 H2266 0.930 . S
C2280 C2278 1.395 . S
C2280 C2283 1.403 . S
C2281 C2278 1.403 . S
C2281 C2282 1.524 . S
C2281 C2285 1.400 . S
C2282 H2267 0.960 . S
C2282 H2268 0.960 . S
C2282 H2269 0.960 . S
C2282 C2281 1.524 . S
C2283 C2280 1.403 . S
C2283 C2284 1.392 . S
C2283 C2287 1.495 . S
C2284 C2283 1.392 . S
C2284 C2285 1.385 . S
C2284 C2286 1.478 . S
C2285 H2279 0.930 . S
C2285 C2281 1.400 . S
C2285 C2284 1.385 . S
C2286 C2284 1.478 . S
C2286 C2288 1.381 . S
C2286 C2292 1.383 . S
C2287 C2283 1.495 . S
C2287 H2293 0.959 . S
C2287 H2294 0.961 . S
C2287 H2295 0.960 . S
C2288 C2286 1.381 . S
C2288 C2289 1.394 . S
C2288 H2296 0.930 . S
C2289 C2288 1.394 . S
C2289 C2290 1.383 . S
C2289 H2297 0.929 . S
C2290 C2289 1.383 . S
C2290 C2291 1.377 . S
C2291 H2275 0.930 . S
C2291 C2290 1.377 . S
C2291 C2292 1.379 . S
C2292 H2276 0.931 . S
C2292 C2286 1.383 . S
C2292 C2291 1.379 . S
H2293 C2287 0.959 . S
H2294 C2287 0.961 . S
H2295 C2287 0.960 . S
H2296 C2288 0.930 . S
H2297 C2289 0.929 . S
H2298 C2306 0.929 . S
H2299 C2308 0.930 . S
H2300 C2310 0.930 . S
H2301 C2313 0.929 . S
H2302 C2316 0.930 . S
H2303 C2318 0.960 . S
H2304 C2318 0.960 . S
H2305 C2318 0.960 . S
C2306 H2298 0.929 . S
C2306 C2307 1.377 . S
C2306 C2308 1.384 . S
C2307 C2306 1.377 . S
C2307 C2313 1.390 . S
C2308 H2299 0.930 . S
C2308 C2306 1.384 . S
C2308 C2309 1.372 . S
C2309 C2308 1.372 . S
C2309 C2310 1.400 . S
C2309 C2314 1.490 . S
C2310 H2300 0.930 . S
C2310 C2309 1.400 . S
C2310 C2313 1.386 . S
H2311 C2327 0.930 . S
H2312 C2328 0.931 . S
C2313 H2301 0.929 . S
C2313 C2307 1.390 . S
C2313 C2310 1.386 . S
C2314 C2309 1.490 . S
C2314 C2316 1.395 . S
C2314 C2317 1.403 . S
H2315 C2321 0.930 . S
C2316 H2302 0.930 . S
C2316 C2314 1.395 . S
C2316 C2319 1.403 . S
C2317 C2314 1.403 . S
C2317 C2318 1.524 . S
C2317 C2321 1.400 . S
C2318 H2303 0.960 . S
C2318 H2304 0.960 . S
C2318 H2305 0.960 . S
C2318 C2317 1.524 . S
C2319 C2316 1.403 . S
C2319 C2320 1.392 . S
C2319 C2323 1.495 . S
C2320 C2319 1.392 . S
C2320 C2321 1.385 . S
C2320 C2322 1.478 . S
C2321 H2315 0.930 . S
C2321 C2317 1.400 . S
C2321 C2320 1.385 . S
C2322 C2320 1.478 . S
C2322 C2324 1.381 . S
C2322 C2328 1.383 . S
C2323 C2319 1.495 . S
C2323 H2329 0.959 . S
C2323 H2330 0.961 . S
C2323 H2331 0.960 . S
C2324 C2322 1.381 . S
C2324 C2325 1.394 . S
C2324 H2332 0.930 . S
C2325 C2324 1.394 . S
C2325 C2326 1.383 . S
C2325 H2333 0.929 . S
C2326 C2325 1.383 . S
C2326 C2327 1.377 . S
C2327 H2311 0.930 . S
C2327 C2326 1.377 . S
C2327 C2328 1.379 . S
C2328 H2312 0.931 . S
C2328 C2322 1.383 . S
C2328 C2327 1.379 . S
H2329 C2323 0.959 . S
H2330 C2323 0.961 . S
H2331 C2323 0.960 . S
H2332 C2324 0.930 . S
H2333 C2325 0.929 . S
H2334 C2342 0.929 . S
H2335 C2344 0.930 . S
H2336 C2346 0.930 . S
H2337 C2349 0.929 . S
H2338 C2352 0.930 . S
H2339 C2354 0.960 . S
H2340 C2354 0.960 . S
H2341 C2354 0.960 . S
C2342 H2334 0.929 . S
C2342 C2343 1.377 . S
C2342 C2344 1.384 . S
C2343 C2342 1.377 . S
C2343 C2349 1.390 . S
C2344 H2335 0.930 . S
C2344 C2342 1.384 . S
C2344 C2345 1.372 . S
C2345 C2344 1.372 . S
C2345 C2346 1.400 . S
C2345 C2350 1.490 . S
C2346 H2336 0.930 . S
C2346 C2345 1.400 . S
C2346 C2349 1.386 . S
H2347 C2363 0.930 . S
H2348 C2364 0.931 . S
C2349 H2337 0.929 . S
C2349 C2343 1.390 . S
C2349 C2346 1.386 . S
C2350 C2345 1.490 . S
C2350 C2352 1.395 . S
C2350 C2353 1.403 . S
H2351 C2357 0.930 . S
C2352 H2338 0.930 . S
C2352 C2350 1.395 . S
C2352 C2355 1.403 . S
C2353 C2350 1.403 . S
C2353 C2354 1.524 . S
C2353 C2357 1.400 . S
C2354 H2339 0.960 . S
C2354 H2340 0.960 . S
C2354 H2341 0.960 . S
C2354 C2353 1.524 . S
C2355 C2352 1.403 . S
C2355 C2356 1.392 . S
C2355 C2359 1.495 . S
C2356 C2355 1.392 . S
C2356 C2357 1.385 . S
C2356 C2358 1.478 . S
C2357 H2351 0.930 . S
C2357 C2353 1.400 . S
C2357 C2356 1.385 . S
C2358 C2356 1.478 . S
C2358 C2360 1.381 . S
C2358 C2364 1.383 . S
C2359 C2355 1.495 . S
C2359 H2365 0.959 . S
C2359 H2366 0.961 . S
C2359 H2367 0.960 . S
C2360 C2358 1.381 . S
C2360 C2361 1.394 . S
C2360 H2368 0.930 . S
C2361 C2360 1.394 . S
C2361 C2362 1.383 . S
C2361 H2369 0.929 . S
C2362 C2361 1.383 . S
C2362 C2363 1.377 . S
C2363 H2347 0.930 . S
C2363 C2362 1.377 . S
C2363 C2364 1.379 . S
C2364 H2348 0.931 . S
C2364 C2358 1.383 . S
C2364 C2363 1.379 . S
H2365 C2359 0.959 . S
H2366 C2359 0.961 . S
H2367 C2359 0.960 . S
H2368 C2360 0.930 . S
H2369 C2361 0.929 . S
H2370 C2378 0.929 . S
H2371 C2380 0.930 . S
H2372 C2382 0.930 . S
H2373 C2385 0.929 . S
H2374 C2388 0.930 . S
H2375 C2390 0.960 . S
H2376 C2390 0.960 . S
H2377 C2390 0.960 . S
C2378 H2370 0.929 . S
C2378 C2379 1.377 . S
C2378 C2380 1.384 . S
C2379 C2378 1.377 . S
C2379 C2385 1.390 . S
C2380 H2371 0.930 . S
C2380 C2378 1.384 . S
C2380 C2381 1.372 . S
C2381 C2380 1.372 . S
C2381 C2382 1.400 . S
C2381 C2386 1.490 . S
C2382 H2372 0.930 . S
C2382 C2381 1.400 . S
C2382 C2385 1.386 . S
H2383 C2399 0.930 . S
H2384 C2400 0.931 . S
C2385 H2373 0.929 . S
C2385 C2379 1.390 . S
C2385 C2382 1.386 . S
C2386 C2381 1.490 . S
C2386 C2388 1.395 . S
C2386 C2389 1.403 . S
H2387 C2393 0.930 . S
C2388 H2374 0.930 . S
C2388 C2386 1.395 . S
C2388 C2391 1.403 . S
C2389 C2386 1.403 . S
C2389 C2390 1.524 . S
C2389 C2393 1.400 . S
C2390 H2375 0.960 . S
C2390 H2376 0.960 . S
C2390 H2377 0.960 . S
C2390 C2389 1.524 . S
C2391 C2388 1.403 . S
C2391 C2392 1.392 . S
C2391 C2395 1.495 . S
C2392 C2391 1.392 . S
C2392 C2393 1.385 . S
C2392 C2394 1.478 . S
C2393 H2387 0.930 . S
C2393 C2389 1.400 . S
C2393 C2392 1.385 . S
C2394 C2392 1.478 . S
C2394 C2396 1.381 . S
C2394 C2400 1.383 . S
C2395 C2391 1.495 . S
C2395 H2401 0.959 . S
C2395 H2402 0.961 . S
C2395 H2403 0.960 . S
C2396 C2394 1.381 . S
C2396 C2397 1.394 . S
C2396 H2404 0.930 . S
C2397 C2396 1.394 . S
C2397 C2398 1.383 . S
C2397 H2405 0.929 . S
C2398 C2397 1.383 . S
C2398 C2399 1.377 . S
C2399 H2383 0.930 . S
C2399 C2398 1.377 . S
C2399 C2400 1.379 . S
C2400 H2384 0.931 . S
C2400 C2394 1.383 . S
C2400 C2399 1.379 . S
H2401 C2395 0.959 . S
H2402 C2395 0.961 . S
H2403 C2395 0.960 . S
H2404 C2396 0.930 . S
H2405 C2397 0.929 . S
H2406 C2414 0.929 . S
H2407 C2416 0.930 . S
H2408 C2418 0.930 . S
H2409 C2421 0.929 . S
H2410 C2424 0.930 . S
H2411 C2426 0.960 . S
H2412 C2426 0.960 . S
H2413 C2426 0.960 . S
C2414 H2406 0.929 . S
C2414 C2415 1.377 . S
C2414 C2416 1.384 . S
C2415 C2414 1.377 . S
C2415 C2421 1.390 . S
C2416 H2407 0.930 . S
C2416 C2414 1.384 . S
C2416 C2417 1.372 . S
C2417 C2416 1.372 . S
C2417 C2418 1.400 . S
C2417 C2422 1.490 . S
C2418 H2408 0.930 . S
C2418 C2417 1.400 . S
C2418 C2421 1.386 . S
H2419 C2435 0.930 . S
H2420 C2436 0.931 . S
C2421 H2409 0.929 . S
C2421 C2415 1.390 . S
C2421 C2418 1.386 . S
C2422 C2417 1.490 . S
C2422 C2424 1.395 . S
C2422 C2425 1.403 . S
H2423 C2429 0.930 . S
C2424 H2410 0.930 . S
C2424 C2422 1.395 . S
C2424 C2427 1.403 . S
C2425 C2422 1.403 . S
C2425 C2426 1.524 . S
C2425 C2429 1.400 . S
C2426 H2411 0.960 . S
C2426 H2412 0.960 . S
C2426 H2413 0.960 . S
C2426 C2425 1.524 . S
C2427 C2424 1.403 . S
C2427 C2428 1.392 . S
C2427 C2431 1.495 . S
C2428 C2427 1.392 . S
C2428 C2429 1.385 . S
C2428 C2430 1.478 . S
C2429 H2423 0.930 . S
C2429 C2425 1.400 . S
C2429 C2428 1.385 . S
C2430 C2428 1.478 . S
C2430 C2432 1.381 . S
C2430 C2436 1.383 . S
C2431 C2427 1.495 . S
C2431 H2437 0.959 . S
C2431 H2438 0.961 . S
C2431 H2439 0.960 . S
C2432 C2430 1.381 . S
C2432 C2433 1.394 . S
C2432 H2440 0.930 . S
C2433 C2432 1.394 . S
C2433 C2434 1.383 . S
C2433 H2441 0.929 . S
C2434 C2433 1.383 . S
C2434 C2435 1.377 . S
C2435 H2419 0.930 . S
C2435 C2434 1.377 . S
C2435 C2436 1.379 . S
C2436 H2420 0.931 . S
C2436 C2430 1.383 . S
C2436 C2435 1.379 . S
H2437 C2431 0.959 . S
H2438 C2431 0.961 . S
H2439 C2431 0.960 . S
H2440 C2432 0.930 . S
H2441 C2433 0.929 . S
H2442 C2450 0.929 . S
H2443 C2452 0.930 . S
H2444 C2454 0.930 . S
H2445 C2457 0.929 . S
H2446 C2460 0.930 . S
H2447 C2462 0.960 . S
H2448 C2462 0.960 . S
H2449 C2462 0.960 . S
C2450 H2442 0.929 . S
C2450 C2451 1.377 . S
C2450 C2452 1.384 . S
C2451 C2450 1.377 . S
C2451 C2457 1.390 . S
C2452 H2443 0.930 . S
C2452 C2450 1.384 . S
C2452 C2453 1.372 . S
C2453 C2452 1.372 . S
C2453 C2454 1.400 . S
C2453 C2458 1.490 . S
C2454 H2444 0.930 . S
C2454 C2453 1.400 . S
C2454 C2457 1.386 . S
H2455 C2471 0.930 . S
H2456 C2472 0.931 . S
C2457 H2445 0.929 . S
C2457 C2451 1.390 . S
C2457 C2454 1.386 . S
C2458 C2453 1.490 . S
C2458 C2460 1.395 . S
C2458 C2461 1.403 . S
H2459 C2465 0.930 . S
C2460 H2446 0.930 . S
C2460 C2458 1.395 . S
C2460 C2463 1.403 . S
C2461 C2458 1.403 . S
C2461 C2462 1.524 . S
C2461 C2465 1.400 . S
C2462 H2447 0.960 . S
C2462 H2448 0.960 . S
C2462 H2449 0.960 . S
C2462 C2461 1.524 . S
C2463 C2460 1.403 . S
C2463 C2464 1.392 . S
C2463 C2467 1.495 . S
C2464 C2463 1.392 . S
C2464 C2465 1.385 . S
C2464 C2466 1.478 . S
C2465 H2459 0.930 . S
C2465 C2461 1.400 . S
C2465 C2464 1.385 . S
C2466 C2464 1.478 . S
C2466 C2468 1.381 . S
C2466 C2472 1.383 . S
C2467 C2463 1.495 . S
C2467 H2473 0.959 . S
C2467 H2474 0.961 . S
C2467 H2475 0.960 . S
C2468 C2466 1.381 . S
C2468 C2469 1.394 . S
C2468 H2476 0.930 . S
C2469 C2468 1.394 . S
C2469 C2470 1.383 . S
C2469 H2477 0.929 . S
C2470 C2469 1.383 . S
C2470 C2471 1.377 . S
C2471 H2455 0.930 . S
C2471 C2470 1.377 . S
C2471 C2472 1.379 . S
C2472 H2456 0.931 . S
C2472 C2466 1.383 . S
C2472 C2471 1.379 . S
H2473 C2467 0.959 . S
H2474 C2467 0.961 . S
H2475 C2467 0.960 . S
H2476 C2468 0.930 . S
H2477 C2469 0.929 . S
H2478 C2486 0.929 . S
H2479 C2488 0.930 . S
H2480 C2490 0.930 . S
H2481 C2493 0.929 . S
H2482 C2496 0.930 . S
H2483 C2498 0.960 . S
H2484 C2498 0.960 . S
H2485 C2498 0.960 . S
C2486 H2478 0.929 . S
C2486 C2487 1.377 . S
C2486 C2488 1.384 . S
C2487 C2486 1.377 . S
C2487 C2493 1.390 . S
C2488 H2479 0.930 . S
C2488 C2486 1.384 . S
C2488 C2489 1.372 . S
C2489 C2488 1.372 . S
C2489 C2490 1.400 . S
C2489 C2494 1.490 . S
C2490 H2480 0.930 . S
C2490 C2489 1.400 . S
C2490 C2493 1.386 . S
H2491 C2507 0.930 . S
H2492 C2508 0.931 . S
C2493 H2481 0.929 . S
C2493 C2487 1.390 . S
C2493 C2490 1.386 . S
C2494 C2489 1.490 . S
C2494 C2496 1.395 . S
C2494 C2497 1.403 . S
H2495 C2501 0.930 . S
C2496 H2482 0.930 . S
C2496 C2494 1.395 . S
C2496 C2499 1.403 . S
C2497 C2494 1.403 . S
C2497 C2498 1.524 . S
C2497 C2501 1.400 . S
C2498 H2483 0.960 . S
C2498 H2484 0.960 . S
C2498 H2485 0.960 . S
C2498 C2497 1.524 . S
C2499 C2496 1.403 . S
C2499 C2500 1.392 . S
C2499 C2503 1.495 . S
C2500 C2499 1.392 . S
C2500 C2501 1.385 . S
C2500 C2502 1.478 . S
C2501 H2495 0.930 . S
C2501 C2497 1.400 . S
C2501 C2500 1.385 . S
C2502 C2500 1.478 . S
C2502 C2504 1.381 . S
C2502 C2508 1.383 . S
C2503 C2499 1.495 . S
C2503 H2509 0.959 . S
C2503 H2510 0.961 . S
C2503 H2511 0.960 . S
C2504 C2502 1.381 . S
C2504 C2505 1.394 . S
C2504 H2512 0.930 . S
C2505 C2504 1.394 . S
C2505 C2506 1.383 . S
C2505 H2513 0.929 . S
C2506 C2505 1.383 . S
C2506 C2507 1.377 . S
C2507 H2491 0.930 . S
C2507 C2506 1.377 . S
C2507 C2508 1.379 . S
C2508 H2492 0.931 . S
C2508 C2502 1.383 . S
C2508 C2507 1.379 . S
H2509 C2503 0.959 . S
H2510 C2503 0.961 . S
H2511 C2503 0.960 . S
H2512 C2504 0.930 . S
H2513 C2505 0.929 . S
H2514 C2522 0.929 . S
H2515 C2524 0.930 . S
H2516 C2526 0.930 . S
H2517 C2529 0.929 . S
H2518 C2532 0.930 . S
H2519 C2534 0.960 . S
H2520 C2534 0.960 . S
H2521 C2534 0.960 . S
C2522 H2514 0.929 . S
C2522 C2523 1.377 . S
C2522 C2524 1.384 . S
C2523 C2522 1.377 . S
C2523 C2529 1.390 . S
C2524 H2515 0.930 . S
C2524 C2522 1.384 . S
C2524 C2525 1.372 . S
C2525 C2524 1.372 . S
C2525 C2526 1.400 . S
C2525 C2530 1.490 . S
C2526 H2516 0.930 . S
C2526 C2525 1.400 . S
C2526 C2529 1.386 . S
H2527 C2543 0.930 . S
H2528 C2544 0.931 . S
C2529 H2517 0.929 . S
C2529 C2523 1.390 . S
C2529 C2526 1.386 . S
C2530 C2525 1.490 . S
C2530 C2532 1.395 . S
C2530 C2533 1.403 . S
H2531 C2537 0.930 . S
C2532 H2518 0.930 . S
C2532 C2530 1.395 . S
C2532 C2535 1.403 . S
C2533 C2530 1.403 . S
C2533 C2534 1.524 . S
C2533 C2537 1.400 . S
C2534 H2519 0.960 . S
C2534 H2520 0.960 . S
C2534 H2521 0.960 . S
C2534 C2533 1.524 . S
C2535 C2532 1.403 . S
C2535 C2536 1.392 . S
C2535 C2539 1.495 . S
C2536 C2535 1.392 . S
C2536 C2537 1.385 . S
C2536 C2538 1.478 . S
C2537 H2531 0.930 . S
C2537 C2533 1.400 . S
C2537 C2536 1.385 . S
C2538 C2536 1.478 . S
C2538 C2540 1.381 . S
C2538 C2544 1.383 . S
C2539 C2535 1.495 . S
C2539 H2545 0.959 . S
C2539 H2546 0.961 . S
C2539 H2547 0.960 . S
C2540 C2538 1.381 . S
C2540 C2541 1.394 . S
C2540 H2548 0.930 . S
C2541 C2540 1.394 . S
C2541 C2542 1.383 . S
C2541 H2549 0.929 . S
C2542 C2541 1.383 . S
C2542 C2543 1.377 . S
C2543 H2527 0.930 . S
C2543 C2542 1.377 . S
C2543 C2544 1.379 . S
C2544 H2528 0.931 . S
C2544 C2538 1.383 . S
C2544 C2543 1.379 . S
H2545 C2539 0.959 . S
H2546 C2539 0.961 . S
H2547 C2539 0.960 . S
H2548 C2540 0.930 . S
H2549 C2541 0.929 . S
H2550 C2558 0.929 . S
H2551 C2560 0.930 . S
H2552 C2562 0.930 . S
H2553 C2565 0.929 . S
H2554 C2568 0.930 . S
H2555 C2570 0.960 . S
H2556 C2570 0.960 . S
H2557 C2570 0.960 . S
C2558 H2550 0.929 . S
C2558 C2559 1.377 . S
C2558 C2560 1.384 . S
C2559 C2558 1.377 . S
C2559 C2565 1.390 . S
C2560 H2551 0.930 . S
C2560 C2558 1.384 . S
C2560 C2561 1.372 . S
C2561 C2560 1.372 . S
C2561 C2562 1.400 . S
C2561 C2566 1.490 . S
C2562 H2552 0.930 . S
C2562 C2561 1.400 . S
C2562 C2565 1.386 . S
H2563 C2579 0.930 . S
H2564 C2580 0.931 . S
C2565 H2553 0.929 . S
C2565 C2559 1.390 . S
C2565 C2562 1.386 . S
C2566 C2561 1.490 . S
C2566 C2568 1.395 . S
C2566 C2569 1.403 . S
H2567 C2573 0.930 . S
C2568 H2554 0.930 . S
C2568 C2566 1.395 . S
C2568 C2571 1.403 . S
C2569 C2566 1.403 . S
C2569 C2570 1.524 . S
C2569 C2573 1.400 . S
C2570 H2555 0.960 . S
C2570 H2556 0.960 . S
C2570 H2557 0.960 . S
C2570 C2569 1.524 . S
C2571 C2568 1.403 . S
C2571 C2572 1.392 . S
C2571 C2575 1.495 . S
C2572 C2571 1.392 . S
C2572 C2573 1.385 . S
C2572 C2574 1.478 . S
C2573 H2567 0.930 . S
C2573 C2569 1.400 . S
C2573 C2572 1.385 . S
C2574 C2572 1.478 . S
C2574 C2576 1.381 . S
C2574 C2580 1.383 . S
C2575 C2571 1.495 . S
C2575 H2581 0.959 . S
C2575 H2582 0.961 . S
C2575 H2583 0.960 . S
C2576 C2574 1.381 . S
C2576 C2577 1.394 . S
C2576 H2584 0.930 . S
C2577 C2576 1.394 . S
C2577 C2578 1.383 . S
C2577 H2585 0.929 . S
C2578 C2577 1.383 . S
C2578 C2579 1.377 . S
C2579 H2563 0.930 . S
C2579 C2578 1.377 . S
C2579 C2580 1.379 . S
C2580 H2564 0.931 . S
C2580 C2574 1.383 . S
C2580 C2579 1.379 . S
H2581 C2575 0.959 . S
H2582 C2575 0.961 . S
H2583 C2575 0.960 . S
H2584 C2576 0.930 . S
H2585 C2577 0.929 . S
C886 C683 1.398 . S
C867 C74 1.339 . S
C922 C673 0.382 . S
C903 C142 0.791 . S
C958 C674 0.966 . S
C939 C231 0.896 . S
C975 C322 1.445 . S
C994 C696 1.562 . S
C1011 C406 0.772 . S
C1030 C699 0.406 . S
C1066 C682 0.914 . S
C1047 C494 0.902 . S
C1083 C562 1.445 . S
C1102 C672 1.539 . S
C1119 C651 1.339 . S
C1138 C690 1.409 . S
C1174 C703 1.554 . S
C1155 C58 1.485 . S
C1191 C151 1.440 . S
C1210 C752 1.407 . S
C1246 C730 2.641 . S
C1227 C224 2.554 . S
C1282 C744 0.861 . S
C1263 C315 0.857 . S
C1299 C399 0.861 . S
C1318 C705 0.878 . S
C1354 C758 1.555 . S
C1335 C478 1.494 . S
C1371 C571 1.396 . S
C1390 C714 1.442 . S
C1407 C644 2.545 . S
C1426 C735 2.627 . S
C1443 C67 2.552 . S
C1462 C761 2.639 . S
C1479 C392 1.435 . S
C1498 C745 1.438 . S
C1534 C704 2.651 . S
C1515 C487 2.556 . S
C1570 C736 0.818 . S
C1551 C578 0.865 . S
C1587 C658 1.484 . S
C1606 C727 1.569 . S
C1623 C238 1.507 . S
C1642 C734 1.544 . S
C1678 C721 1.386 . S
C1659 C308 1.386 . S
C1695 C158 0.859 . S
C1714 C713 0.859 . S
C1731 C662 1.346 . S
C1750 C776 1.370 . S
C1767 C394 0.774 . S
C1786 C766 0.442 . S
C1822 C767 0.903 . S
C1803 C483 0.911 . S
C1858 C789 1.517 . S
C1839 C574 1.429 . S
C1875 C154 0.777 . S
C1894 C792 0.469 . S
C1930 C775 0.958 . S
C1911 C242 0.913 . S
C1947 C310 1.445 . S
C1966 C765 1.530 . S
C1983 C63 1.346 . S
C2002 C783 1.411 . S
C2019 C646 1.487 . S
C2038 C796 1.569 . S
C2074 C845 1.445 . S
C2055 C403 1.430 . S
C2091 C476 2.557 . S
C2110 C823 2.661 . S
C2127 C567 0.848 . S
C2146 C837 0.819 . S
C2182 C798 0.899 . S
C2163 C147 0.854 . S
C2199 C226 1.502 . S
C2218 C851 1.539 . S
C2254 C807 1.393 . S
C2235 C319 1.397 . S
C2290 C828 2.625 . S
C2271 C56 2.551 . S
C2326 C854 2.625 . S
C2307 C655 2.549 . S
C2343 C140 1.433 . S
C2362 C838 1.429 . S
C2379 C235 2.556 . S
C2398 C797 2.653 . S
C2434 C829 0.864 . S
C2415 C326 0.847 . S
C2451 C70 1.493 . S
C2470 C820 1.571 . S
C2487 C490 1.504 . S
C2506 C827 1.546 . S
C2542 C814 1.443 . S
C2523 C560 1.398 . S
C2578 C806 0.808 . S
C2559 C410 0.846 . S
