# Generated by pormake.
# Topology ibd, (4,6)-cn, num edge types: 1
# Building blocks:
#     Node 0, Type 0, BuildingBlock: TATPOV_clean_sbu_0, # of connection points: 4
#     Node 1, Type 0, BuildingBlock: TATPOV_clean_sbu_0, # of connection points: 4
#     Node 2, Type 0, BuildingBlock: TATPOV_clean_sbu_0, # of connection points: 4
#     Node 3, Type 0, BuildingBlock: TATPOV_clean_sbu_0, # of connection points: 4
#     Node 4, Type 0, BuildingBlock: TATPOV_clean_sbu_0, # of connection points: 4
#     Node 5, Type 0, BuildingBlock: TATPOV_clean_sbu_0, # of connection points: 4
#     Node 6, Type 0, BuildingBlock: TATPOV_clean_sbu_0, # of connection points: 4
#     Node 7, Type 0, BuildingBlock: TATPOV_clean_sbu_0, # of connection points: 4
#     Node 8, Type 0, BuildingBlock: TATPOV_clean_sbu_0, # of connection points: 4
#     Node 9, Type 0, BuildingBlock: TATPOV_clean_sbu_0, # of connection points: 4
#     Node 10, Type 0, BuildingBlock: TATPOV_clean_sbu_0, # of connection points: 4
#     Node 11, Type 0, BuildingBlock: TATPOV_clean_sbu_0, # of connection points: 4
#     Node 12, Type 0, BuildingBlock: TATPOV_clean_sbu_0, # of connection points: 4
#     Node 13, Type 0, BuildingBlock: TATPOV_clean_sbu_0, # of connection points: 4
#     Node 14, Type 0, BuildingBlock: TATPOV_clean_sbu_0, # of connection points: 4
#     Node 15, Type 0, BuildingBlock: TATPOV_clean_sbu_0, # of connection points: 4
#     Node 16, Type 0, BuildingBlock: TATPOV_clean_sbu_0, # of connection points: 4
#     Node 17, Type 0, BuildingBlock: TATPOV_clean_sbu_0, # of connection points: 4
#     Node 18, Type 0, BuildingBlock: TATPOV_clean_sbu_0, # of connection points: 4
#     Node 19, Type 0, BuildingBlock: TATPOV_clean_sbu_0, # of connection points: 4
#     Node 20, Type 0, BuildingBlock: TATPOV_clean_sbu_0, # of connection points: 4
#     Node 21, Type 0, BuildingBlock: TATPOV_clean_sbu_0, # of connection points: 4
#     Node 22, Type 0, BuildingBlock: TATPOV_clean_sbu_0, # of connection points: 4
#     Node 23, Type 0, BuildingBlock: TATPOV_clean_sbu_0, # of connection points: 4
#     Node 24, Type 1, BuildingBlock: OJICUG_clean_sbu_0, # of connection points: 6
#     Node 25, Type 1, BuildingBlock: OJICUG_clean_sbu_0, # of connection points: 6
#     Node 26, Type 1, BuildingBlock: OJICUG_clean_sbu_0, # of connection points: 6
#     Node 27, Type 1, BuildingBlock: OJICUG_clean_sbu_0, # of connection points: 6
#     Node 28, Type 1, BuildingBlock: OJICUG_clean_sbu_0, # of connection points: 6
#     Node 29, Type 1, BuildingBlock: OJICUG_clean_sbu_0, # of connection points: 6
#     Node 30, Type 1, BuildingBlock: OJICUG_clean_sbu_0, # of connection points: 6
#     Node 31, Type 1, BuildingBlock: OJICUG_clean_sbu_0, # of connection points: 6
#     Node 32, Type 1, BuildingBlock: OJICUG_clean_sbu_0, # of connection points: 6
#     Node 33, Type 1, BuildingBlock: OJICUG_clean_sbu_0, # of connection points: 6
#     Node 34, Type 1, BuildingBlock: OJICUG_clean_sbu_0, # of connection points: 6
#     Node 35, Type 1, BuildingBlock: OJICUG_clean_sbu_0, # of connection points: 6
#     Node 36, Type 1, BuildingBlock: OJICUG_clean_sbu_0, # of connection points: 6
#     Node 37, Type 1, BuildingBlock: OJICUG_clean_sbu_0, # of connection points: 6
#     Node 38, Type 1, BuildingBlock: OJICUG_clean_sbu_0, # of connection points: 6
#     Node 39, Type 1, BuildingBlock: OJICUG_clean_sbu_0, # of connection points: 6
#     Edge 40, Type (0, 1), None
#     Edge 41, Type (0, 1), None
#     Edge 42, Type (0, 1), None
#     Edge 43, Type (0, 1), None
#     Edge 44, Type (0, 1), None
#     Edge 45, Type (0, 1), None
#     Edge 46, Type (0, 1), None
#     Edge 47, Type (0, 1), None
#     Edge 48, Type (0, 1), None
#     Edge 49, Type (0, 1), None
#     Edge 50, Type (0, 1), None
#     Edge 51, Type (0, 1), None
#     Edge 52, Type (0, 1), None
#     Edge 53, Type (0, 1), None
#     Edge 54, Type (0, 1), None
#     Edge 55, Type (0, 1), None
#     Edge 56, Type (0, 1), None
#     Edge 57, Type (0, 1), None
#     Edge 58, Type (0, 1), None
#     Edge 59, Type (0, 1), None
#     Edge 60, Type (0, 1), None
#     Edge 61, Type (0, 1), None
#     Edge 62, Type (0, 1), None
#     Edge 63, Type (0, 1), None
#     Edge 64, Type (0, 1), None
#     Edge 65, Type (0, 1), None
#     Edge 66, Type (0, 1), None
#     Edge 67, Type (0, 1), None
#     Edge 68, Type (0, 1), None
#     Edge 69, Type (0, 1), None
#     Edge 70, Type (0, 1), None
#     Edge 71, Type (0, 1), None
#     Edge 72, Type (0, 1), None
#     Edge 73, Type (0, 1), None
#     Edge 74, Type (0, 1), None
#     Edge 75, Type (0, 1), None
#     Edge 76, Type (0, 1), None
#     Edge 77, Type (0, 1), None
#     Edge 78, Type (0, 1), None
#     Edge 79, Type (0, 1), None
#     Edge 80, Type (0, 1), None
#     Edge 81, Type (0, 1), None
#     Edge 82, Type (0, 1), None
#     Edge 83, Type (0, 1), None
#     Edge 84, Type (0, 1), None
#     Edge 85, Type (0, 1), None
#     Edge 86, Type (0, 1), None
#     Edge 87, Type (0, 1), None
#     Edge 88, Type (0, 1), None
#     Edge 89, Type (0, 1), None
#     Edge 90, Type (0, 1), None
#     Edge 91, Type (0, 1), None
#     Edge 92, Type (0, 1), None
#     Edge 93, Type (0, 1), None
#     Edge 94, Type (0, 1), None
#     Edge 95, Type (0, 1), None
#     Edge 96, Type (0, 1), None
#     Edge 97, Type (0, 1), None
#     Edge 98, Type (0, 1), None
#     Edge 99, Type (0, 1), None
#     Edge 100, Type (0, 1), None
#     Edge 101, Type (0, 1), None
#     Edge 102, Type (0, 1), None
#     Edge 103, Type (0, 1), None
#     Edge 104, Type (0, 1), None
#     Edge 105, Type (0, 1), None
#     Edge 106, Type (0, 1), None
#     Edge 107, Type (0, 1), None
#     Edge 108, Type (0, 1), None
#     Edge 109, Type (0, 1), None
#     Edge 110, Type (0, 1), None
#     Edge 111, Type (0, 1), None
#     Edge 112, Type (0, 1), None
#     Edge 113, Type (0, 1), None
#     Edge 114, Type (0, 1), None
#     Edge 115, Type (0, 1), None
#     Edge 116, Type (0, 1), None
#     Edge 117, Type (0, 1), None
#     Edge 118, Type (0, 1), None
#     Edge 119, Type (0, 1), None
#     Edge 120, Type (0, 1), None
#     Edge 121, Type (0, 1), None
#     Edge 122, Type (0, 1), None
#     Edge 123, Type (0, 1), None
#     Edge 124, Type (0, 1), None
#     Edge 125, Type (0, 1), None
#     Edge 126, Type (0, 1), None
#     Edge 127, Type (0, 1), None
#     Edge 128, Type (0, 1), None
#     Edge 129, Type (0, 1), None
#     Edge 130, Type (0, 1), None
#     Edge 131, Type (0, 1), None
#     Edge 132, Type (0, 1), None
#     Edge 133, Type (0, 1), None
#     Edge 134, Type (0, 1), None
#     Edge 135, Type (0, 1), None
# Relax obj value: 0.379
# Max RMSD: 0.291
# Mean RMSD: 0.284
data_MOF--net-ibd--node1-TATPOV_clean_sbu_0--node2-OJICUG_clean_sbu_0--edge1-none
_symmetry_space_group_name_H-M    P1
_symmetry_Int_Tables_number       1
_symmetry_cell_setting            triclinic
loop_
_symmetry_equiv_pos_as_xyz
'x, y, z'
_cell_length_a     24.505223
_cell_length_b     24.504394
_cell_length_c     24.504348
_cell_angle_alpha  87.964309
_cell_angle_beta   87.965078
_cell_angle_gamma 87.964648
loop_
_atom_site_label
_atom_site_type_symbol
_atom_site_fract_x
_atom_site_fract_y
_atom_site_fract_z
_atom_type_partial_charge
Zn0 Zn 0.92205 0.29549 0.38362 0.0
Zn1 Zn 0.00592 0.23912 0.35141 0.0
O2 O -0.02362 0.18337 0.40958 0.0
O3 O 0.89707 0.22718 0.42202 0.0
O4 O 0.06315 0.20283 0.30252 0.0
O5 O 0.89192 0.3207 0.31332 0.0
O6 O 0.95673 0.26232 0.28746 0.0
C7 C 0.92903 0.18683 0.43258 0.0
C8 C 0.01976 0.33264 0.42609 0.0
O9 O 0.04224 0.29729 0.3947 0.0
O10 O -0.03139 0.34159 0.42647 0.0
C11 C 0.04274 0.16332 0.27902 0.0
O12 O -0.00471 0.14549 0.29703 0.0
C13 C 0.91589 0.29351 0.27635 0.0
Zn14 Zn 0.89702 0.76955 0.55686 0.0
Zn15 Zn -0.01776 0.71804 0.59528 0.0
O16 O 0.02236 0.7712 0.54355 0.0
O17 O 0.94989 0.8016 0.49942 0.0
O18 O 0.03868 0.68323 0.64449 0.0
O19 O 0.87269 0.8085 0.62501 0.0
O20 O 0.93646 0.75273 0.65762 0.0
C21 C 0.00128 0.79846 0.50395 0.0
C22 C 0.90075 0.65724 0.53124 0.0
O23 O 0.9496 0.65921 0.54726 0.0
O24 O 0.86706 0.69652 0.5406 0.0
C25 C 0.02138 0.64451 0.67544 0.0
O26 O -0.02608 0.62398 0.66627 0.0
C27 C 0.89774 0.78778 0.6653 0.0
Zn28 Zn 0.42205 0.79548 0.88362 0.0
Zn29 Zn 0.50592 0.73912 0.85142 0.0
O30 O 0.47638 0.68337 0.90958 0.0
O31 O 0.39706 0.72717 0.92201 0.0
O32 O 0.56316 0.70283 0.80252 0.0
O33 O 0.39193 0.8207 0.81332 0.0
O34 O 0.45673 0.76232 0.78746 0.0
C35 C 0.42903 0.68683 0.93258 0.0
C36 C 0.51976 0.83264 0.92609 0.0
O37 O 0.54224 0.7973 0.8947 0.0
O38 O 0.4686 0.84158 0.92648 0.0
C39 C 0.54275 0.66332 0.77903 0.0
O40 O 0.4953 0.64549 0.79704 0.0
C41 C 0.41589 0.79351 0.77635 0.0
Zn42 Zn 0.39702 0.26955 0.05686 0.0
Zn43 Zn 0.48224 0.21804 0.09528 0.0
O44 O 0.52236 0.2712 0.04355 0.0
O45 O 0.44989 0.3016 -0.00058 0.0
O46 O 0.53868 0.18323 0.14449 0.0
O47 O 0.37269 0.3085 0.12501 0.0
O48 O 0.43646 0.25273 0.15762 0.0
C49 C 0.50128 0.29846 0.00395 0.0
C50 C 0.40075 0.15724 0.03124 0.0
O51 O 0.4496 0.15921 0.04727 0.0
O52 O 0.36706 0.19652 0.0406 0.0
C53 C 0.52137 0.14451 0.17544 0.0
O54 O 0.47391 0.12399 0.16628 0.0
C55 C 0.39774 0.28778 0.1653 0.0
Zn56 Zn 0.92859 0.80352 0.14002 0.0
Zn57 Zn -0.01955 0.71845 0.10134 0.0
O58 O 0.92748 0.67818 0.15295 0.0
O59 O 0.89703 0.75031 0.19755 0.0
O60 O 0.01431 0.66178 0.05202 0.0
O61 O 0.8897 0.82752 0.0716 0.0
O62 O 0.94617 0.76433 0.03904 0.0
C63 C 0.90038 0.69895 0.19279 0.0
C64 C 0.04121 0.79998 0.1652 0.0
O65 O 0.03938 0.75111 0.14917 0.0
O66 O 0.00173 0.83351 0.15607 0.0
C67 C 0.0574 0.67466 0.02517 0.0
O68 O 0.0835 0.71777 0.03876 0.0
C69 C 0.9109 0.80281 0.0313 0.0
Zn70 Zn 0.40503 0.77686 0.31137 0.0
Zn71 Zn 0.46383 0.69433 0.34479 0.0
O72 O 0.51999 0.72476 0.28762 0.0
O73 O 0.47233 0.8011 0.27057 0.0
O74 O 0.5008 0.63835 0.39477 0.0
O75 O 0.38063 0.8092 0.38101 0.0
O76 O 0.43799 0.74379 0.40763 0.0
C77 C 0.51441 0.77076 0.26223 0.0
C78 C 0.37006 0.67794 0.2703 0.0
O79 O 0.40732 0.6568 0.3003 0.0
O80 O 0.35847 0.72862 0.27106 0.0
C81 C 0.53726 0.66124 0.42064 0.0
O82 O 0.55205 0.71039 0.40457 0.0
C83 C 0.40711 0.78496 0.41833 0.0
Zn84 Zn 0.42859 0.30352 0.64002 0.0
Zn85 Zn 0.48044 0.21845 0.60134 0.0
O86 O 0.42748 0.17818 0.65295 0.0
O87 O 0.39703 0.25031 0.69756 0.0
O88 O 0.51431 0.16178 0.55202 0.0
O89 O 0.3897 0.32752 0.5716 0.0
O90 O 0.44617 0.26433 0.53904 0.0
C91 C 0.40038 0.19895 0.69279 0.0
C92 C 0.54121 0.29997 0.6652 0.0
O93 O 0.53938 0.25111 0.64917 0.0
O94 O 0.50173 0.33351 0.65607 0.0
C95 C 0.5574 0.17466 0.52518 0.0
O96 O 0.5835 0.21777 0.53876 0.0
C97 C 0.4109 0.30281 0.5313 0.0
Zn98 Zn 0.90503 0.27686 0.81137 0.0
Zn99 Zn -0.03617 0.19433 0.84478 0.0
O100 O 0.02 0.22476 0.78761 0.0
O101 O -0.02767 0.3011 0.77057 0.0
O102 O 0.0008 0.13835 0.89476 0.0
O103 O 0.88063 0.3092 0.88101 0.0
O104 O 0.93799 0.24378 0.90762 0.0
C105 C 0.01441 0.27076 0.76223 0.0
C106 C 0.87006 0.17795 0.7703 0.0
O107 O 0.90732 0.1568 0.8003 0.0
O108 O 0.85847 0.22862 0.77106 0.0
C109 C 0.03726 0.16124 0.92063 0.0
O110 O 0.05206 0.21038 0.90456 0.0
C111 C 0.90711 0.28496 0.91833 0.0
Zn112 Zn 0.3864 0.92066 0.29408 0.0
Zn113 Zn 0.3542 0.00455 0.23772 0.0
O114 O 0.41235 -0.02501 0.18197 0.0
O115 O 0.42478 0.89567 0.22577 0.0
O116 O 0.30531 0.06178 0.20142 0.0
O117 O 0.31609 0.89054 0.3193 0.0
O118 O 0.29024 0.95536 0.26094 0.0
C119 C 0.43535 0.92765 0.18543 0.0
C120 C 0.42888 0.01838 0.33123 0.0
O121 O 0.39749 0.04086 0.29589 0.0
O122 O 0.42926 -0.03278 0.34018 0.0
C123 C 0.28175 0.04132 0.16198 0.0
O124 O 0.29969 -0.00619 0.14423 0.0
C125 C 0.27913 0.91451 0.29212 0.0
Zn126 Zn 0.27094 0.05827 0.39423 0.0
Zn127 Zn 0.21943 0.09669 0.47945 0.0
O128 O 0.27258 0.04496 0.51958 0.0
O129 O 0.30298 0.00082 0.44711 0.0
O130 O 0.18462 0.14589 0.5359 0.0
O131 O 0.30989 0.12642 0.3699 0.0
O132 O 0.25412 0.15903 0.43367 0.0
C133 C 0.29984 0.00535 0.4985 0.0
C134 C 0.15863 0.03265 0.39796 0.0
O135 O 0.1606 0.04867 0.44681 0.0
O136 O 0.19791 0.042 0.36427 0.0
C137 C 0.1459 0.17685 0.51858 0.0
O138 O 0.1254 0.16769 0.47111 0.0
C139 C 0.28917 0.16671 0.39496 0.0
Zn140 Zn 0.1428 0.92721 0.80212 0.0
Zn141 Zn 0.10413 -0.02094 0.71704 0.0
O142 O 0.15573 0.92609 0.67678 0.0
O143 O 0.20034 0.89565 0.74891 0.0
O144 O 0.05481 0.01293 0.66038 0.0
O145 O 0.07438 0.88831 0.82611 0.0
O146 O 0.04182 0.94479 0.76292 0.0
C147 C 0.19557 0.899 0.69755 0.0
C148 C 0.16799 0.03983 0.79857 0.0
O149 O 0.15196 0.03799 0.74971 0.0
O150 O 0.15885 0.00035 0.83211 0.0
C151 C 0.02796 0.05601 0.67327 0.0
O152 O 0.04153 0.0821 0.71639 0.0
C153 C 0.03408 0.90952 0.8014 0.0
Zn154 Zn 0.27825 0.81276 0.90225 0.0
Zn155 Zn 0.19572 0.84617 -0.03895 0.0
O156 O 0.22615 0.789 0.01722 0.0
O157 O 0.30249 0.77196 -0.03044 0.0
O158 O 0.13973 0.89615 -0.00199 0.0
O159 O 0.31059 0.8824 0.87784 0.0
O160 O 0.24517 0.90901 0.9352 0.0
C161 C 0.27215 0.76362 0.01163 0.0
C162 C 0.17934 0.77168 0.86728 0.0
O163 O 0.15819 0.80168 0.90453 0.0
O164 O 0.23002 0.77244 0.85568 0.0
C165 C 0.16262 0.92203 0.03445 0.0
O166 O 0.21177 0.90599 0.04924 0.0
C167 C 0.28635 0.91972 0.90433 0.0
Zn168 Zn 0.29686 0.38501 0.91926 0.0
Zn169 Zn 0.24051 0.35281 0.00315 0.0
O170 O 0.18477 0.41097 -0.02639 0.0
O171 O 0.22854 0.42339 0.89428 0.0
O172 O 0.20423 0.30392 0.06039 0.0
O173 O 0.32209 0.31471 0.88915 0.0
O174 O 0.26371 0.28885 0.95396 0.0
C175 C 0.18821 0.43396 0.92625 0.0
C176 C 0.33402 0.42749 0.01697 0.0
O177 O 0.2987 0.39609 0.03946 0.0
O178 O 0.34296 0.42788 -0.03419 0.0
C179 C 0.16473 0.28041 0.03999 0.0
O180 O 0.14689 0.29842 -0.00747 0.0
C181 C 0.2949 0.27774 0.91312 0.0
Zn182 Zn 0.8049 0.14142 0.92581 0.0
Zn183 Zn 0.71983 0.10274 -0.02234 0.0
O184 O 0.67957 0.15435 0.92469 0.0
O185 O 0.75169 0.19896 0.89425 0.0
O186 O 0.66317 0.05341 0.01152 0.0
O187 O 0.8289 0.073 0.8869 0.0
O188 O 0.76571 0.04044 0.94338 0.0
C189 C 0.70034 0.19419 0.8976 0.0
C190 C 0.80136 0.16659 0.03843 0.0
O191 O 0.75249 0.15057 0.03659 0.0
O192 O 0.83489 0.15746 -0.00105 0.0
C193 C 0.67603 0.02658 0.05462 0.0
O194 O 0.71914 0.04017 0.08073 0.0
C195 C 0.80419 0.0327 0.90811 0.0
Zn196 Zn 0.05966 0.39563 0.26815 0.0
Zn197 Zn 0.09807 0.48086 0.21663 0.0
O198 O 0.04634 0.52098 0.26979 0.0
O199 O 0.00221 0.44851 0.30019 0.0
O200 O 0.14727 0.5373 0.18181 0.0
O201 O 0.1278 0.37131 0.3071 0.0
O202 O 0.16041 0.43508 0.25132 0.0
C203 C 0.00674 0.4999 0.29705 0.0
C204 C 0.03402 0.39936 0.15584 0.0
O205 O 0.05005 0.44821 0.15781 0.0
O206 O 0.04339 0.36567 0.19513 0.0
C207 C 0.17825 0.51996 0.14313 0.0
O208 O 0.16911 0.47247 0.12265 0.0
C209 C 0.1681 0.39636 0.28638 0.0
Zn210 Zn 0.79686 0.88501 0.41926 0.0
Zn211 Zn 0.74051 0.85281 0.50315 0.0
O212 O 0.68477 0.91097 0.47361 0.0
O213 O 0.72854 0.92338 0.39427 0.0
O214 O 0.70423 0.80392 0.56039 0.0
O215 O 0.82209 0.81471 0.38915 0.0
O216 O 0.76371 0.78885 0.45395 0.0
C217 C 0.68821 0.93396 0.42625 0.0
C218 C 0.83402 0.92749 0.51697 0.0
O219 O 0.7987 0.89609 0.53945 0.0
O220 O 0.84295 0.92789 0.46581 0.0
C221 C 0.66472 0.78042 0.54 0.0
O222 O 0.64688 0.79844 0.49255 0.0
C223 C 0.7949 0.77774 0.41311 0.0
Zn224 Zn 0.81416 0.90365 0.27547 0.0
Zn225 Zn 0.84756 -0.03756 0.19293 0.0
O226 O 0.79038 0.0186 0.22336 0.0
O227 O 0.77338 -0.02904 0.29973 0.0
O228 O 0.89753 -0.0006 0.13694 0.0
O229 O 0.8838 0.87923 0.30779 0.0
O230 O 0.91041 0.93661 0.24239 0.0
C231 C 0.76502 0.01303 0.26937 0.0
C232 C 0.77307 0.86867 0.17657 0.0
O233 O 0.80308 0.90591 0.15541 0.0
O234 O 0.77382 0.8571 0.22725 0.0
C235 C 0.92338 0.03589 0.15981 0.0
O236 O 0.9073 0.05071 0.20894 0.0
C237 C 0.92112 0.90573 0.28356 0.0
Zn238 Zn 0.3049 0.64142 0.4258 0.0
Zn239 Zn 0.21983 0.60274 0.47766 0.0
O240 O 0.17957 0.65435 0.42469 0.0
O241 O 0.25169 0.69896 0.39425 0.0
O242 O 0.16317 0.55342 0.51152 0.0
O243 O 0.3289 0.573 0.3869 0.0
O244 O 0.26571 0.54044 0.44338 0.0
C245 C 0.20034 0.69419 0.3976 0.0
C246 C 0.30135 0.6666 0.53843 0.0
O247 O 0.25249 0.65057 0.53659 0.0
O248 O 0.33489 0.65747 0.49895 0.0
C249 C 0.17603 0.52658 0.55462 0.0
O250 O 0.21913 0.54018 0.58073 0.0
C251 C 0.30419 0.53271 0.40811 0.0
Zn252 Zn 0.31416 0.40365 0.77547 0.0
Zn253 Zn 0.34756 0.46244 0.69293 0.0
O254 O 0.29039 0.5186 0.72336 0.0
O255 O 0.27338 0.47096 0.79972 0.0
O256 O 0.39754 0.49941 0.63694 0.0
O257 O 0.3838 0.37923 0.80779 0.0
O258 O 0.41041 0.43661 0.74239 0.0
C259 C 0.26502 0.51303 0.76937 0.0
C260 C 0.27307 0.36868 0.67656 0.0
O261 O 0.30308 0.40591 0.65541 0.0
O262 O 0.27382 0.3571 0.72725 0.0
C263 C 0.42339 0.53588 0.65982 0.0
O264 O 0.40731 0.5507 0.70895 0.0
C265 C 0.42112 0.40573 0.78356 0.0
Zn266 Zn 0.55966 0.89563 0.76815 0.0
Zn267 Zn 0.59807 -0.01915 0.71663 0.0
O268 O 0.54634 0.02098 0.76979 0.0
O269 O 0.50221 0.94851 0.80019 0.0
O270 O 0.64727 0.0373 0.68181 0.0
O271 O 0.6278 0.87131 0.8071 0.0
O272 O 0.66041 0.93508 0.75132 0.0
C273 C 0.50674 -0.00011 0.79705 0.0
C274 C 0.53402 0.89936 0.65584 0.0
O275 O 0.55005 0.94821 0.65781 0.0
O276 O 0.54339 0.86567 0.69512 0.0
C277 C 0.67824 0.01997 0.64312 0.0
O278 O 0.6691 -0.02752 0.62264 0.0
C279 C 0.66809 0.89636 0.78637 0.0
Zn280 Zn 0.77094 0.55827 0.89423 0.0
Zn281 Zn 0.71943 0.59669 -0.02055 0.0
O282 O 0.77258 0.54495 0.01958 0.0
O283 O 0.80298 0.50082 0.94711 0.0
O284 O 0.68462 0.64589 0.0359 0.0
O285 O 0.80989 0.62641 0.8699 0.0
O286 O 0.75412 0.65903 0.93367 0.0
C287 C 0.79984 0.50535 -0.00151 0.0
C288 C 0.65863 0.53265 0.89796 0.0
O289 O 0.6606 0.54867 0.94681 0.0
O290 O 0.69791 0.542 0.86427 0.0
C291 C 0.6459 0.67684 0.01859 0.0
O292 O 0.62538 0.66768 -0.02888 0.0
C293 C 0.78917 0.66671 0.89496 0.0
Zn294 Zn 0.8864 0.42065 0.79408 0.0
Zn295 Zn 0.8542 0.50455 0.73772 0.0
O296 O 0.91236 0.47499 0.68197 0.0
O297 O 0.92478 0.39567 0.72576 0.0
O298 O 0.80531 0.56178 0.70142 0.0
O299 O 0.8161 0.39054 0.8193 0.0
O300 O 0.79024 0.45536 0.76093 0.0
C301 C 0.93535 0.42764 0.68543 0.0
C302 C 0.92888 0.51837 0.83123 0.0
O303 O 0.89749 0.54085 0.7959 0.0
O304 O 0.92927 0.46721 0.84017 0.0
C305 C 0.78176 0.54133 0.66198 0.0
O306 O 0.79971 0.49384 0.6442 0.0
C307 C 0.77913 0.41451 0.79212 0.0
Zn308 Zn 0.77825 0.31276 0.40225 0.0
Zn309 Zn 0.69572 0.34617 0.46105 0.0
O310 O 0.72615 0.28901 0.51722 0.0
O311 O 0.80249 0.27197 0.46956 0.0
O312 O 0.63973 0.39615 0.49801 0.0
O313 O 0.81059 0.3824 0.37784 0.0
O314 O 0.74517 0.40902 0.4352 0.0
C315 C 0.77215 0.26363 0.51163 0.0
C316 C 0.67934 0.27169 0.36728 0.0
O317 O 0.65819 0.30169 0.40453 0.0
O318 O 0.73002 0.27244 0.35568 0.0
C319 C 0.66263 0.42204 0.53445 0.0
O320 O 0.71179 0.406 0.54923 0.0
C321 C 0.78635 0.41972 0.40432 0.0
Zn322 Zn 0.6428 0.4272 0.30211 0.0
Zn323 Zn 0.60413 0.47906 0.21704 0.0
O324 O 0.65573 0.42609 0.17678 0.0
O325 O 0.70034 0.39565 0.24891 0.0
O326 O 0.55481 0.51293 0.16037 0.0
O327 O 0.57438 0.38831 0.32611 0.0
O328 O 0.54182 0.44479 0.26292 0.0
C329 C 0.69557 0.399 0.19755 0.0
C330 C 0.66799 0.53983 0.29857 0.0
O331 O 0.65196 0.53799 0.2497 0.0
O332 O 0.65885 0.50035 0.33211 0.0
C333 C 0.52796 0.55601 0.17326 0.0
O334 O 0.54154 0.5821 0.21639 0.0
C335 C 0.53408 0.40952 0.3014 0.0
Sc336 Sc 0.04241 0.15972 0.09976 0.0
Sc337 Sc 0.10249 0.04102 0.1583 0.0
Sc338 Sc 0.1611 0.10116 0.03965 0.0
O339 O 0.10198 0.10061 0.09922 0.0
C340 C 0.05577 0.13966 -0.02651 0.0
C341 C -0.02377 0.05439 0.13823 0.0
C342 C 0.14103 -0.02512 0.05296 0.0
C343 C 0.06369 0.14538 0.22572 0.0
C344 C 0.14677 0.22713 0.06095 0.0
C345 C 0.22847 0.0623 0.14403 0.0
O346 O 0.02386 0.14582 0.0153 0.0
O347 O 0.01804 0.02247 0.14437 0.0
O348 O 0.14721 0.0167 0.02107 0.0
O349 O 0.05707 0.17764 0.18425 0.0
O350 O 0.17903 0.18565 0.05432 0.0
O351 O 0.18699 0.05564 0.17626 0.0
O352 O 0.0961 0.22324 0.07199 0.0
O353 O 0.07472 0.09469 0.22183 0.0
O354 O 0.2246 0.07338 0.09335 0.0
O355 O -0.02041 0.10519 0.12755 0.0
O356 O 0.10656 0.12895 -0.02317 0.0
O357 O 0.13028 -0.02179 0.10376 0.0
Sc358 Sc 0.143 0.86786 0.40658 0.0
Sc359 Sc 0.05752 0.79108 0.32987 0.0
Sc360 Sc 0.10006 0.91815 0.27969 0.0
O361 O 0.10017 0.85867 0.33909 0.0
C362 C 0.12134 -0.00995 0.38314 0.0
C363 C 0.03576 0.81372 0.45646 0.0
C364 C -0.02233 0.89218 0.29541 0.0
C365 C 0.16548 0.74158 0.38291 0.0
C366 C 0.22248 0.90292 0.30547 0.0
C367 C 0.07863 0.81489 0.20763 0.0
O368 O 0.1127 0.95112 0.4176 0.0
O369 O 0.0224 0.79557 0.41107 0.0
O370 O 0.01295 0.92955 0.29201 0.0
O371 O 0.17862 0.7869 0.4014 0.0
O372 O 0.18723 0.90611 0.26806 0.0
O373 O 0.08747 0.78042 0.24647 0.0
O374 O 0.21073 0.89517 0.35615 0.0
O375 O 0.12177 0.73515 0.35781 0.0
O376 O 0.08061 0.8657 0.21494 0.0
O377 O 0.07928 0.83918 0.46277 0.0
O378 O 0.11937 -0.01722 0.33232 0.0
O379 O -0.0106 0.84147 0.30315 0.0
Sc380 Sc 0.41953 0.78109 0.59728 0.0
Sc381 Sc 0.29246 0.83127 0.55474 0.0
Sc382 Sc 0.36923 0.90797 0.64022 0.0
O383 O 0.36005 0.84049 0.59739 0.0
C384 C 0.40429 0.80686 0.7197 0.0
C385 C 0.31627 0.70903 0.57585 0.0
C386 C 0.24295 0.88431 0.6627 0.0
C387 C 0.39356 0.79682 0.47488 0.0
C388 C 0.49142 0.88454 0.61856 0.0
C389 C 0.3151 0.95787 0.53298 0.0
O390 O 0.40748 0.76946 0.68445 0.0
O391 O 0.28179 0.74787 0.58468 0.0
O392 O 0.28827 0.9028 0.67584 0.0
O393 O 0.43092 0.79341 0.51017 0.0
O394 O 0.45249 0.91899 0.60992 0.0
O395 O 0.29695 0.91248 0.51962 0.0
O396 O 0.48415 0.83372 0.61659 0.0
O397 O 0.34285 0.80455 0.48661 0.0
O398 O 0.34055 -0.03583 0.5765 0.0
O399 O 0.36707 0.71634 0.57782 0.0
O400 O 0.39655 0.85755 0.70795 0.0
O401 O 0.23652 0.85921 0.61899 0.0
Sc402 Sc 0.33266 0.05613 0.78968 0.0
Sc403 Sc 0.40936 0.14162 0.86646 0.0
Sc404 Sc 0.28249 0.09866 0.91675 0.0
O405 O 0.34188 0.09878 0.85727 0.0
C406 C 0.21043 0.07724 0.81349 0.0
C407 C 0.3857 0.1641 0.74017 0.0
C408 C 0.30825 0.22109 0.90152 0.0
C409 C 0.45926 0.03438 0.81232 0.0
C410 C 0.29821 -0.02373 0.89078 0.0
C411 C 0.38593 0.11995 -0.01135 0.0
O412 O 0.24927 0.08607 0.77901 0.0
O413 O 0.40418 0.17723 0.78549 0.0
O414 O 0.27085 0.18584 0.90471 0.0
O415 O 0.41387 0.02101 0.79417 0.0
O416 O 0.29481 0.01155 0.92814 0.0
O417 O 0.42038 0.11131 0.94972 0.0
O418 O 0.30594 -0.012 0.84007 0.0
O419 O 0.46555 0.0779 0.83777 0.0
O420 O 0.33511 0.11798 -0.01863 0.0
O421 O 0.3606 0.12038 0.73374 0.0
O422 O 0.21774 0.07921 0.8643 0.0
O423 O 0.35894 0.20934 0.89377 0.0
Sc424 Sc 0.643 0.36786 0.90658 0.0
Sc425 Sc 0.55753 0.29108 0.82987 0.0
Sc426 Sc 0.60006 0.41815 0.77969 0.0
O427 O 0.60017 0.35867 0.83909 0.0
C428 C 0.62134 0.49005 0.88314 0.0
C429 C 0.53576 0.31372 0.95647 0.0
C430 C 0.47767 0.39218 0.79541 0.0
C431 C 0.66548 0.24157 0.88292 0.0
C432 C 0.72248 0.40292 0.80547 0.0
C433 C 0.57863 0.31489 0.70763 0.0
O434 O 0.6127 0.45112 0.91759 0.0
O435 O 0.5224 0.29557 0.91107 0.0
O436 O 0.51295 0.42954 0.79201 0.0
O437 O 0.67862 0.28689 0.9014 0.0
O438 O 0.68723 0.40611 0.76806 0.0
O439 O 0.58747 0.28041 0.74647 0.0
O440 O 0.71073 0.39517 0.85615 0.0
O441 O 0.62177 0.23514 0.85781 0.0
O442 O 0.58061 0.3657 0.71494 0.0
O443 O 0.57928 0.33917 -0.03723 0.0
O444 O 0.61937 0.48278 0.83232 0.0
O445 O 0.4894 0.34147 0.80315 0.0
Sc446 Sc 0.91953 0.28109 0.09728 0.0
Sc447 Sc 0.86923 0.40797 0.14022 0.0
Sc448 Sc 0.79246 0.33127 0.05474 0.0
O449 O 0.86005 0.34049 0.09738 0.0
C450 C 0.89356 0.29682 -0.02512 0.0
C451 C -0.00858 0.38454 0.11856 0.0
C452 C 0.8151 0.45787 0.03298 0.0
C453 C 0.90429 0.30686 0.2197 0.0
C454 C 0.81627 0.20903 0.07585 0.0
C455 C 0.74295 0.38431 0.1627 0.0
O456 O 0.93092 0.29341 0.01017 0.0
O457 O 0.95249 0.41899 0.10992 0.0
O458 O 0.79695 0.41248 0.01962 0.0
O459 O 0.90748 0.26946 0.18445 0.0
O460 O 0.7818 0.24787 0.08468 0.0
O461 O 0.78827 0.4028 0.17584 0.0
O462 O 0.86708 0.21634 0.07782 0.0
O463 O 0.89655 0.35755 0.20795 0.0
O464 O 0.73652 0.35921 0.11898 0.0
O465 O -0.01585 0.33372 0.11659 0.0
O466 O 0.84285 0.30455 -0.01339 0.0
O467 O 0.84055 0.46417 0.0765 0.0
Sc468 Sc 0.83266 0.55613 0.28968 0.0
Sc469 Sc 0.90936 0.64162 0.36645 0.0
Sc470 Sc 0.78249 0.59867 0.41675 0.0
O471 O 0.84188 0.59878 0.35727 0.0
C472 C 0.71043 0.57724 0.31348 0.0
C473 C 0.8857 0.6641 0.24017 0.0
C474 C 0.80825 0.72109 0.40152 0.0
C475 C 0.95926 0.53438 0.31231 0.0
C476 C 0.79821 0.47627 0.39078 0.0
C477 C 0.88593 0.61995 0.48864 0.0
O478 O 0.74927 0.58607 0.27901 0.0
O479 O 0.90419 0.67724 0.28549 0.0
O480 O 0.77085 0.68584 0.40471 0.0
O481 O 0.91387 0.52101 0.29417 0.0
O482 O 0.79481 0.51156 0.42814 0.0
O483 O 0.92038 0.61131 0.44971 0.0
O484 O 0.80594 0.488 0.34006 0.0
O485 O -0.03445 0.5779 0.33777 0.0
O486 O 0.83511 0.61798 0.48137 0.0
O487 O 0.8606 0.62038 0.23374 0.0
O488 O 0.71774 0.57921 0.36429 0.0
O489 O 0.85894 0.70934 0.39377 0.0
Sc490 Sc 0.90978 0.79 0.84831 0.0
Sc491 Sc 0.79138 0.84972 0.907 0.0
Sc492 Sc 0.8511 0.9084 0.78859 0.0
O493 O 0.85078 0.8494 0.84799 0.0
C494 C -0.02113 0.88979 0.81251 0.0
C495 C 0.89117 0.81391 -0.02392 0.0
C496 C 0.8153 -0.02251 0.88838 0.0
C497 C 0.80926 0.72178 0.88387 0.0
C498 C 0.88666 0.80788 0.72037 0.0
C499 C 0.72316 0.88528 0.80647 0.0
O500 O -0.02672 0.84804 0.84409 0.0
O501 O 0.84942 0.8455 -0.0295 0.0
O502 O 0.84688 -0.0281 0.84663 0.0
O503 O 0.85122 0.727 0.85249 0.0
O504 O 0.85528 0.84983 0.72559 0.0
O505 O 0.72838 0.8539 0.84843 0.0
O506 O 0.91264 0.78538 0.75985 0.0
O507 O 0.78677 0.76126 0.90985 0.0
O508 O 0.76264 0.91126 0.78398 0.0
O509 O 0.91379 0.7877 0.93681 0.0
O510 O 0.9396 0.91241 0.78629 0.0
O511 O 0.78909 0.93822 0.911 0.0
Sc512 Sc 0.80508 0.09628 0.53197 0.0
Sc513 Sc 0.89774 0.16574 0.60096 0.0
Sc514 Sc 0.85301 0.04181 0.65424 0.0
O515 O 0.85194 0.10108 0.59587 0.0
C516 C 0.72984 0.04605 0.62856 0.0
C517 C 0.78992 0.21915 0.54876 0.0
C518 C 0.85763 0.15057 0.72055 0.0
C519 C 0.91168 0.15027 0.47773 0.0
C520 C 0.84691 -0.02304 0.54462 0.0
C521 C -0.02459 0.06999 0.6487 0.0
O522 O 0.74157 0.05379 0.578 0.0
O523 O 0.83988 0.22 0.56064 0.0
O524 O 0.86405 0.09884 0.71885 0.0
O525 O 0.86183 0.13778 0.47739 0.0
O526 O 0.84196 -0.02215 0.59651 0.0
O527 O 0.96249 0.12042 0.64215 0.0
O528 O 0.8467 0.02032 0.51451 0.0
O529 O 0.93751 0.15098 0.52199 0.0
O530 O 0.9412 0.0324 0.64448 0.0
O531 O 0.76462 0.17456 0.54833 0.0
O532 O 0.76486 0.04968 0.66548 0.0
O533 O 0.85662 0.1813 0.67763 0.0
Sc534 Sc 0.59767 0.03336 0.3023 0.0
Sc535 Sc 0.66712 0.10234 0.39496 0.0
Sc536 Sc 0.5432 0.15563 0.35022 0.0
O537 O 0.60247 0.09726 0.34916 0.0
C538 C 0.54745 0.12995 0.22704 0.0
C539 C 0.72054 0.05014 0.28714 0.0
C540 C 0.65197 0.22193 0.35484 0.0
C541 C 0.65164 -0.02089 0.4089 0.0
C542 C 0.47835 0.04602 0.34412 0.0
C543 C 0.57138 0.15009 0.47263 0.0
O544 O 0.55518 0.07939 0.23878 0.0
O545 O 0.72138 0.06203 0.33711 0.0
O546 O 0.60024 0.22024 0.36126 0.0
O547 O 0.63916 -0.02123 0.35905 0.0
O548 O 0.47924 0.09791 0.33916 0.0
O549 O 0.6218 0.14353 0.45971 0.0
O550 O 0.5217 0.0159 0.34391 0.0
O551 O 0.65236 0.02337 0.43474 0.0
O552 O 0.53379 0.14588 0.43842 0.0
O553 O 0.67595 0.04971 0.26184 0.0
O554 O 0.55109 0.16687 0.26206 0.0
O555 O 0.6827 0.17901 0.35385 0.0
Sc556 Sc 0.65701 0.85162 0.04042 0.0
Sc557 Sc 0.53475 0.80369 0.09489 0.0
Sc558 Sc 0.60372 0.89636 0.16434 0.0
O559 O 0.59864 0.85055 0.09969 0.0
C560 C 0.72332 0.85624 0.14919 0.0
C561 C 0.63133 0.72844 0.04467 0.0
C562 C 0.55153 0.78853 0.21776 0.0
C563 C 0.54741 0.84553 -0.02443 0.0
C564 C 0.65147 -0.02597 0.0686 0.0
C565 C 0.4805 0.91029 0.14886 0.0
O566 O 0.72162 0.86266 0.09746 0.0
O567 O 0.58078 0.74018 0.0524 0.0
O568 O 0.56341 0.8385 0.21861 0.0
O569 O 0.59929 0.84057 -0.02354 0.0
O570 O 0.64491 0.96111 0.11902 0.0
O571 O 0.48016 0.86044 0.13638 0.0
O572 O 0.64726 0.93982 0.03101 0.0
O573 O 0.51729 0.84531 0.01892 0.0
O574 O 0.52476 0.93613 0.14958 0.0
O575 O 0.66826 0.76346 0.0483 0.0
O576 O 0.68039 0.85524 0.17992 0.0
O577 O 0.55111 0.76324 0.17317 0.0
Sc578 Sc 0.30508 0.59628 0.03198 0.0
Sc579 Sc 0.39774 0.66573 0.10096 0.0
Sc580 Sc 0.35301 0.54181 0.15424 0.0
O581 O 0.35194 0.60108 0.09587 0.0
C582 C 0.22984 0.54605 0.12856 0.0
C583 C 0.28992 0.71915 0.04876 0.0
C584 C 0.35763 0.65057 0.22055 0.0
C585 C 0.41168 0.65026 -0.02227 0.0
C586 C 0.34692 0.47696 0.04462 0.0
C587 C 0.47542 0.56999 0.1487 0.0
O588 O 0.24157 0.55378 0.078 0.0
O589 O 0.33988 0.72 0.06065 0.0
O590 O 0.36405 0.59884 0.21885 0.0
O591 O 0.36183 0.63778 -0.02261 0.0
O592 O 0.34196 0.47785 0.09651 0.0
O593 O 0.46249 0.62041 0.14215 0.0
O594 O 0.3467 0.52031 0.01451 0.0
O595 O 0.43751 0.65098 0.02199 0.0
O596 O 0.44121 0.5324 0.14448 0.0
O597 O 0.26462 0.67456 0.04833 0.0
O598 O 0.26486 0.54968 0.16549 0.0
O599 O 0.35662 0.6813 0.17763 0.0
Sc600 Sc 0.09768 0.53336 0.8023 0.0
Sc601 Sc 0.16712 0.60234 0.89496 0.0
Sc602 Sc 0.04321 0.65563 0.85022 0.0
O603 O 0.10248 0.59725 0.84916 0.0
C604 C 0.04746 0.62994 0.72704 0.0
C605 C 0.22054 0.55014 0.78714 0.0
C606 C 0.15197 0.72193 0.85484 0.0
C607 C 0.15165 0.47911 0.9089 0.0
C608 C -0.02164 0.54602 0.84412 0.0
C609 C 0.07138 0.65009 -0.02737 0.0
O610 O 0.05519 0.57939 0.73878 0.0
O611 O 0.22139 0.56203 0.83711 0.0
O612 O 0.10024 0.72023 0.86126 0.0
O613 O 0.13916 0.47877 0.85905 0.0
O614 O -0.02075 0.5979 0.83916 0.0
O615 O 0.1218 0.64353 0.95971 0.0
O616 O 0.0217 0.5159 0.8439 0.0
O617 O 0.15237 0.52337 0.93474 0.0
O618 O 0.03379 0.64588 0.93841 0.0
O619 O 0.17595 0.54971 0.76184 0.0
O620 O 0.05109 0.66687 0.76206 0.0
O621 O 0.1827 0.67901 0.85384 0.0
Sc622 Sc 0.15702 0.35162 0.54042 0.0
Sc623 Sc 0.03475 0.3037 0.59488 0.0
Sc624 Sc 0.10372 0.39636 0.66434 0.0
O625 O 0.09864 0.35056 0.59969 0.0
C626 C 0.22332 0.35625 0.64919 0.0
C627 C 0.13134 0.22845 0.54466 0.0
C628 C 0.05153 0.28853 0.71775 0.0
C629 C 0.04741 0.34553 0.47556 0.0
C630 C 0.15147 0.47403 0.5686 0.0
C631 C -0.0195 0.41029 0.64886 0.0
O632 O 0.22162 0.36266 0.59745 0.0
O633 O 0.08078 0.24018 0.55239 0.0
O634 O 0.06341 0.3385 0.7186 0.0
O635 O 0.0993 0.34057 0.47646 0.0
O636 O 0.14491 0.46111 0.61902 0.0
O637 O -0.01984 0.36044 0.63637 0.0
O638 O 0.14726 0.43982 0.53101 0.0
O639 O 0.0173 0.34531 0.51891 0.0
O640 O 0.02476 0.43613 0.64958 0.0
O641 O 0.16826 0.26347 0.5483 0.0
O642 O 0.18039 0.35525 0.67992 0.0
O643 O 0.05111 0.26324 0.67316 0.0
Sc644 Sc 0.54242 0.65972 0.59976 0.0
Sc645 Sc 0.60251 0.54102 0.65831 0.0
Sc646 Sc 0.6611 0.60117 0.53966 0.0
O647 O 0.60199 0.60061 0.59922 0.0
C648 C 0.55577 0.63967 0.47349 0.0
C649 C 0.47624 0.55439 0.63824 0.0
C650 C 0.64103 0.47489 0.55296 0.0
C651 C 0.5637 0.64538 0.72573 0.0
C652 C 0.64677 0.72713 0.56096 0.0
C653 C 0.72848 0.56231 0.64402 0.0
O654 O 0.52386 0.64582 0.5153 0.0
O655 O 0.51805 0.52247 0.64438 0.0
O656 O 0.64721 0.51671 0.52107 0.0
O657 O 0.55707 0.67764 0.68426 0.0
O658 O 0.67903 0.68566 0.55432 0.0
O659 O 0.687 0.55564 0.67626 0.0
O660 O 0.59609 0.72324 0.57199 0.0
O661 O 0.57473 0.59469 0.72184 0.0
O662 O 0.72461 0.57339 0.59335 0.0
O663 O 0.47959 0.60519 0.62755 0.0
O664 O 0.60656 0.62896 0.47684 0.0
O665 O 0.6303 0.47821 0.60376 0.0
Sc666 Sc 0.29138 0.34972 0.407 0.0
Sc667 Sc 0.3511 0.4084 0.28859 0.0
Sc668 Sc 0.40979 0.29 0.34831 0.0
O669 O 0.35078 0.3494 0.34799 0.0
C670 C 0.39117 0.31391 0.47608 0.0
C671 C 0.3153 0.47749 0.38838 0.0
C672 C 0.47887 0.38979 0.31251 0.0
C673 C 0.22316 0.38528 0.30647 0.0
C674 C 0.30926 0.22178 0.38387 0.0
C675 C 0.38666 0.30788 0.22037 0.0
O676 O 0.34942 0.3455 0.4705 0.0
O677 O 0.34688 0.47191 0.34663 0.0
O678 O 0.47328 0.34804 0.34409 0.0
O679 O 0.22838 0.3539 0.34843 0.0
O680 O 0.35122 0.227 0.3525 0.0
O681 O 0.35528 0.34984 0.22559 0.0
O682 O 0.28677 0.26126 0.40985 0.0
O683 O 0.26264 0.41126 0.28398 0.0
O684 O 0.41264 0.28538 0.25985 0.0
O685 O 0.28909 0.43822 0.411 0.0
O686 O 0.41379 0.2877 0.43681 0.0
O687 O 0.4396 0.41241 0.28629 0.0
loop_
_geom_bond_atom_site_label_1
_geom_bond_atom_site_label_2
_geom_bond_distance
_geom_bond_site_symmetry_2
_ccdc_geom_bond_type
Zn0 O3 2.031 . S
Zn0 O5 2.049 . S
Zn0 O10 2.067 1_655 S
Zn1 O2 1.962 1_455 S
Zn1 O4 1.986 . S
Zn1 O6 1.996 1_455 S
Zn1 O9 1.943 . S
O2 Zn1 1.962 1_655 S
O2 C7 1.254 . S
O3 Zn0 2.031 . S
O3 C7 1.269 . S
O4 Zn1 1.986 . S
O4 C11 1.262 . S
O5 Zn0 2.049 . S
O5 C13 1.260 . S
O6 Zn1 1.996 1_655 S
O6 C13 1.257 . S
C7 O2 1.254 . S
C7 O3 1.269 . S
C8 O9 1.249 . S
C8 O10 1.270 . S
O9 Zn1 1.943 . S
O9 C8 1.249 . S
O10 Zn0 2.067 1_455 S
O10 C8 1.270 . S
C11 O4 1.262 . S
C11 O12 1.232 . S
O12 C11 1.232 . S
C13 O5 1.260 . S
C13 O6 1.257 . S
Zn14 O17 2.031 1_655 S
Zn14 O19 2.049 . S
Zn14 O24 2.067 . S
Zn15 O16 1.962 . S
Zn15 O18 1.986 . S
Zn15 O20 1.996 1_455 S
Zn15 O23 1.943 1_455 S
O16 Zn15 1.962 . S
O16 C21 1.254 . S
O17 Zn14 2.031 1_455 S
O17 C21 1.269 . S
O18 Zn15 1.986 . S
O18 C25 1.262 . S
O19 Zn14 2.049 . S
O19 C27 1.260 . S
O20 Zn15 1.996 1_655 S
O20 C27 1.257 . S
C21 O16 1.254 . S
C21 O17 1.269 . S
C22 O23 1.249 . S
C22 O24 1.270 . S
O23 Zn15 1.943 1_655 S
O23 C22 1.249 . S
O24 Zn14 2.067 . S
O24 C22 1.270 . S
C25 O18 1.262 . S
C25 O26 1.232 . S
O26 C25 1.232 . S
C27 O19 1.260 . S
C27 O20 1.257 . S
Zn28 O31 2.031 . S
Zn28 O33 2.049 . S
Zn28 O38 2.067 . S
Zn29 O30 1.962 . S
Zn29 O32 1.986 . S
Zn29 O34 1.996 . S
Zn29 O37 1.943 . S
O30 Zn29 1.962 . S
O30 C35 1.254 . S
O31 Zn28 2.031 . S
O31 C35 1.269 . S
O32 Zn29 1.986 . S
O32 C39 1.262 . S
O33 Zn28 2.049 . S
O33 C41 1.260 . S
O34 Zn29 1.996 . S
O34 C41 1.257 . S
C35 O30 1.254 . S
C35 O31 1.269 . S
C36 O37 1.249 . S
C36 O38 1.270 . S
O37 Zn29 1.943 . S
O37 C36 1.249 . S
O38 Zn28 2.067 . S
O38 C36 1.270 . S
C39 O32 1.262 . S
C39 O40 1.232 . S
O40 C39 1.232 . S
C41 O33 1.260 . S
C41 O34 1.257 . S
Zn42 O45 2.031 . S
Zn42 O47 2.049 . S
Zn42 O52 2.067 . S
Zn43 O44 1.962 . S
Zn43 O46 1.986 . S
Zn43 O48 1.996 . S
Zn43 O51 1.943 . S
O44 Zn43 1.962 . S
O44 C49 1.254 . S
O45 Zn42 2.031 . S
O45 C49 1.269 . S
O46 Zn43 1.986 . S
O46 C53 1.262 . S
O47 Zn42 2.049 . S
O47 C55 1.260 . S
O48 Zn43 1.996 . S
O48 C55 1.257 . S
C49 O44 1.254 . S
C49 O45 1.269 . S
C50 O51 1.249 . S
C50 O52 1.270 . S
O51 Zn43 1.943 . S
O51 C50 1.249 . S
O52 Zn42 2.067 . S
O52 C50 1.270 . S
C53 O46 1.262 . S
C53 O54 1.232 . S
O54 C53 1.232 . S
C55 O47 1.260 . S
C55 O48 1.257 . S
Zn56 O59 2.031 . S
Zn56 O61 2.049 . S
Zn56 O66 2.067 1_655 S
Zn57 O58 1.962 1_455 S
Zn57 O60 1.986 . S
Zn57 O62 1.996 1_455 S
Zn57 O65 1.943 . S
O58 Zn57 1.962 1_655 S
O58 C63 1.254 . S
O59 Zn56 2.031 . S
O59 C63 1.269 . S
O60 Zn57 1.986 . S
O60 C67 1.262 . S
O61 Zn56 2.049 . S
O61 C69 1.260 . S
O62 Zn57 1.996 1_655 S
O62 C69 1.257 . S
C63 O58 1.254 . S
C63 O59 1.269 . S
C64 O65 1.249 . S
C64 O66 1.270 . S
O65 Zn57 1.943 . S
O65 C64 1.249 . S
O66 Zn56 2.067 1_455 S
O66 C64 1.270 . S
C67 O60 1.262 . S
C67 O68 1.232 . S
O68 C67 1.232 . S
C69 O61 1.260 . S
C69 O62 1.257 . S
Zn70 O73 2.031 . S
Zn70 O75 2.049 . S
Zn70 O80 2.067 . S
Zn71 O72 1.962 . S
Zn71 O74 1.986 . S
Zn71 O76 1.996 . S
Zn71 O79 1.943 . S
O72 Zn71 1.962 . S
O72 C77 1.254 . S
O73 Zn70 2.031 . S
O73 C77 1.269 . S
O74 Zn71 1.986 . S
O74 C81 1.262 . S
O75 Zn70 2.049 . S
O75 C83 1.260 . S
O76 Zn71 1.996 . S
O76 C83 1.257 . S
C77 O72 1.254 . S
C77 O73 1.269 . S
C78 O79 1.249 . S
C78 O80 1.270 . S
O79 Zn71 1.943 . S
O79 C78 1.249 . S
O80 Zn70 2.067 . S
O80 C78 1.270 . S
C81 O74 1.262 . S
C81 O82 1.232 . S
O82 C81 1.232 . S
C83 O75 1.260 . S
C83 O76 1.257 . S
Zn84 O87 2.031 . S
Zn84 O89 2.049 . S
Zn84 O94 2.067 . S
Zn85 O86 1.962 . S
Zn85 O88 1.986 . S
Zn85 O90 1.996 . S
Zn85 O93 1.943 . S
O86 Zn85 1.962 . S
O86 C91 1.254 . S
O87 Zn84 2.031 . S
O87 C91 1.269 . S
O88 Zn85 1.986 . S
O88 C95 1.262 . S
O89 Zn84 2.049 . S
O89 C97 1.260 . S
O90 Zn85 1.996 . S
O90 C97 1.257 . S
C91 O86 1.254 . S
C91 O87 1.269 . S
C92 O93 1.249 . S
C92 O94 1.270 . S
O93 Zn85 1.943 . S
O93 C92 1.249 . S
O94 Zn84 2.067 . S
O94 C92 1.270 . S
C95 O88 1.262 . S
C95 O96 1.232 . S
O96 C95 1.232 . S
C97 O89 1.260 . S
C97 O90 1.257 . S
Zn98 O101 2.031 1_655 S
Zn98 O103 2.049 . S
Zn98 O108 2.067 . S
Zn99 O100 1.962 . S
Zn99 O102 1.986 . S
Zn99 O104 1.996 1_455 S
Zn99 O107 1.943 1_455 S
O100 Zn99 1.962 . S
O100 C105 1.254 . S
O101 Zn98 2.031 1_455 S
O101 C105 1.269 . S
O102 Zn99 1.986 . S
O102 C109 1.262 . S
O103 Zn98 2.049 . S
O103 C111 1.260 . S
O104 Zn99 1.996 1_655 S
O104 C111 1.257 . S
C105 O100 1.254 . S
C105 O101 1.269 . S
C106 O107 1.249 . S
C106 O108 1.270 . S
O107 Zn99 1.943 1_655 S
O107 C106 1.249 . S
O108 Zn98 2.067 . S
O108 C106 1.270 . S
C109 O102 1.262 . S
C109 O110 1.232 . S
O110 C109 1.232 . S
C111 O103 1.260 . S
C111 O104 1.257 . S
Zn112 O115 2.031 . S
Zn112 O117 2.049 . S
Zn112 O122 2.067 1_565 S
Zn113 O114 1.962 1_545 S
Zn113 O116 1.986 . S
Zn113 O118 1.996 1_545 S
Zn113 O121 1.943 . S
O114 Zn113 1.962 1_565 S
O114 C119 1.254 . S
O115 Zn112 2.031 . S
O115 C119 1.269 . S
O116 Zn113 1.986 . S
O116 C123 1.262 . S
O117 Zn112 2.049 . S
O117 C125 1.260 . S
O118 Zn113 1.996 1_565 S
O118 C125 1.257 . S
C119 O114 1.254 . S
C119 O115 1.269 . S
C120 O121 1.249 . S
C120 O122 1.270 . S
O121 Zn113 1.943 . S
O121 C120 1.249 . S
O122 Zn112 2.067 1_545 S
O122 C120 1.270 . S
C123 O116 1.262 . S
C123 O124 1.232 . S
O124 C123 1.232 . S
C125 O117 1.260 . S
C125 O118 1.257 . S
Zn126 O129 2.031 . S
Zn126 O131 2.049 . S
Zn126 O136 2.067 . S
Zn127 O128 1.962 . S
Zn127 O130 1.986 . S
Zn127 O132 1.996 . S
Zn127 O135 1.943 . S
O128 Zn127 1.962 . S
O128 C133 1.254 . S
O129 Zn126 2.031 . S
O129 C133 1.269 . S
O130 Zn127 1.986 . S
O130 C137 1.262 . S
O131 Zn126 2.049 . S
O131 C139 1.260 . S
O132 Zn127 1.996 . S
O132 C139 1.257 . S
C133 O128 1.254 . S
C133 O129 1.269 . S
C134 O135 1.249 . S
C134 O136 1.270 . S
O135 Zn127 1.943 . S
O135 C134 1.249 . S
O136 Zn126 2.067 . S
O136 C134 1.270 . S
C137 O130 1.262 . S
C137 O138 1.232 . S
O138 C137 1.232 . S
C139 O131 1.260 . S
C139 O132 1.257 . S
Zn140 O143 2.031 . S
Zn140 O145 2.049 . S
Zn140 O150 2.067 1_565 S
Zn141 O142 1.962 1_545 S
Zn141 O144 1.986 . S
Zn141 O146 1.996 1_545 S
Zn141 O149 1.943 . S
O142 Zn141 1.962 1_565 S
O142 C147 1.254 . S
O143 Zn140 2.031 . S
O143 C147 1.269 . S
O144 Zn141 1.986 . S
O144 C151 1.262 . S
O145 Zn140 2.049 . S
O145 C153 1.260 . S
O146 Zn141 1.996 1_565 S
O146 C153 1.257 . S
C147 O142 1.254 . S
C147 O143 1.269 . S
C148 O149 1.249 . S
C148 O150 1.270 . S
O149 Zn141 1.943 . S
O149 C148 1.249 . S
O150 Zn140 2.067 1_545 S
O150 C148 1.270 . S
C151 O144 1.262 . S
C151 O152 1.232 . S
O152 C151 1.232 . S
C153 O145 1.260 . S
C153 O146 1.257 . S
Zn154 O157 2.031 1_556 S
Zn154 O159 2.049 . S
Zn154 O164 2.067 . S
Zn155 O156 1.962 . S
Zn155 O158 1.986 . S
Zn155 O160 1.996 1_554 S
Zn155 O163 1.943 1_554 S
O156 Zn155 1.962 . S
O156 C161 1.254 . S
O157 Zn154 2.031 1_554 S
O157 C161 1.269 . S
O158 Zn155 1.986 . S
O158 C165 1.262 . S
O159 Zn154 2.049 . S
O159 C167 1.260 . S
O160 Zn155 1.996 1_556 S
O160 C167 1.257 . S
C161 O156 1.254 . S
C161 O157 1.269 . S
C162 O163 1.249 . S
C162 O164 1.270 . S
O163 Zn155 1.943 1_556 S
O163 C162 1.249 . S
O164 Zn154 2.067 . S
O164 C162 1.270 . S
C165 O158 1.262 . S
C165 O166 1.232 . S
O166 C165 1.232 . S
C167 O159 1.260 . S
C167 O160 1.257 . S
Zn168 O171 2.031 . S
Zn168 O173 2.049 . S
Zn168 O178 2.067 1_556 S
Zn169 O170 1.962 1_554 S
Zn169 O172 1.986 . S
Zn169 O174 1.996 1_554 S
Zn169 O177 1.943 . S
O170 Zn169 1.962 1_556 S
O170 C175 1.254 . S
O171 Zn168 2.031 . S
O171 C175 1.269 . S
O172 Zn169 1.986 . S
O172 C179 1.262 . S
O173 Zn168 2.049 . S
O173 C181 1.260 . S
O174 Zn169 1.996 1_556 S
O174 C181 1.257 . S
C175 O170 1.254 . S
C175 O171 1.269 . S
C176 O177 1.249 . S
C176 O178 1.270 . S
O177 Zn169 1.943 . S
O177 C176 1.249 . S
O178 Zn168 2.067 1_554 S
O178 C176 1.270 . S
C179 O172 1.262 . S
C179 O180 1.232 . S
O180 C179 1.232 . S
C181 O173 1.260 . S
C181 O174 1.257 . S
Zn182 O185 2.031 . S
Zn182 O187 2.049 . S
Zn182 O192 2.067 1_556 S
Zn183 O184 1.962 1_554 S
Zn183 O186 1.986 . S
Zn183 O188 1.996 1_554 S
Zn183 O191 1.943 . S
O184 Zn183 1.962 1_556 S
O184 C189 1.254 . S
O185 Zn182 2.031 . S
O185 C189 1.269 . S
O186 Zn183 1.986 . S
O186 C193 1.262 . S
O187 Zn182 2.049 . S
O187 C195 1.260 . S
O188 Zn183 1.996 1_556 S
O188 C195 1.257 . S
C189 O184 1.254 . S
C189 O185 1.269 . S
C190 O191 1.249 . S
C190 O192 1.270 . S
O191 Zn183 1.943 . S
O191 C190 1.249 . S
O192 Zn182 2.067 1_554 S
O192 C190 1.270 . S
C193 O186 1.262 . S
C193 O194 1.232 . S
O194 C193 1.232 . S
C195 O187 1.260 . S
C195 O188 1.257 . S
Zn196 O199 2.031 . S
Zn196 O201 2.049 . S
Zn196 O206 2.067 . S
Zn197 O198 1.962 . S
Zn197 O200 1.986 . S
Zn197 O202 1.996 . S
Zn197 O205 1.943 . S
O198 Zn197 1.962 . S
O198 C203 1.254 . S
O199 Zn196 2.031 . S
O199 C203 1.269 . S
O200 Zn197 1.986 . S
O200 C207 1.262 . S
O201 Zn196 2.049 . S
O201 C209 1.260 . S
O202 Zn197 1.996 . S
O202 C209 1.257 . S
C203 O198 1.254 . S
C203 O199 1.269 . S
C204 O205 1.249 . S
C204 O206 1.270 . S
O205 Zn197 1.943 . S
O205 C204 1.249 . S
O206 Zn196 2.067 . S
O206 C204 1.270 . S
C207 O200 1.262 . S
C207 O208 1.232 . S
O208 C207 1.232 . S
C209 O201 1.260 . S
C209 O202 1.257 . S
Zn210 O213 2.031 . S
Zn210 O215 2.049 . S
Zn210 O220 2.067 . S
Zn211 O212 1.962 . S
Zn211 O214 1.986 . S
Zn211 O216 1.996 . S
Zn211 O219 1.943 . S
O212 Zn211 1.962 . S
O212 C217 1.254 . S
O213 Zn210 2.031 . S
O213 C217 1.269 . S
O214 Zn211 1.986 . S
O214 C221 1.262 . S
O215 Zn210 2.049 . S
O215 C223 1.260 . S
O216 Zn211 1.996 . S
O216 C223 1.257 . S
C217 O212 1.254 . S
C217 O213 1.269 . S
C218 O219 1.249 . S
C218 O220 1.270 . S
O219 Zn211 1.943 . S
O219 C218 1.249 . S
O220 Zn210 2.067 . S
O220 C218 1.270 . S
C221 O214 1.262 . S
C221 O222 1.232 . S
O222 C221 1.232 . S
C223 O215 1.260 . S
C223 O216 1.257 . S
Zn224 O227 2.031 1_565 S
Zn224 O229 2.049 . S
Zn224 O234 2.067 . S
Zn225 O226 1.962 . S
Zn225 O228 1.986 . S
Zn225 O230 1.996 1_545 S
Zn225 O233 1.943 1_545 S
O226 Zn225 1.962 . S
O226 C231 1.254 . S
O227 Zn224 2.031 1_545 S
O227 C231 1.269 . S
O228 Zn225 1.986 . S
O228 C235 1.262 . S
O229 Zn224 2.049 . S
O229 C237 1.260 . S
O230 Zn225 1.996 1_565 S
O230 C237 1.257 . S
C231 O226 1.254 . S
C231 O227 1.269 . S
C232 O233 1.249 . S
C232 O234 1.270 . S
O233 Zn225 1.943 1_565 S
O233 C232 1.249 . S
O234 Zn224 2.067 . S
O234 C232 1.270 . S
C235 O228 1.262 . S
C235 O236 1.232 . S
O236 C235 1.232 . S
C237 O229 1.260 . S
C237 O230 1.257 . S
Zn238 O241 2.031 . S
Zn238 O243 2.049 . S
Zn238 O248 2.067 . S
Zn239 O240 1.962 . S
Zn239 O242 1.986 . S
Zn239 O244 1.996 . S
Zn239 O247 1.943 . S
O240 Zn239 1.962 . S
O240 C245 1.254 . S
O241 Zn238 2.031 . S
O241 C245 1.269 . S
O242 Zn239 1.986 . S
O242 C249 1.262 . S
O243 Zn238 2.049 . S
O243 C251 1.260 . S
O244 Zn239 1.996 . S
O244 C251 1.257 . S
C245 O240 1.254 . S
C245 O241 1.269 . S
C246 O247 1.249 . S
C246 O248 1.270 . S
O247 Zn239 1.943 . S
O247 C246 1.249 . S
O248 Zn238 2.067 . S
O248 C246 1.270 . S
C249 O242 1.262 . S
C249 O250 1.232 . S
O250 C249 1.232 . S
C251 O243 1.260 . S
C251 O244 1.257 . S
Zn252 O255 2.031 . S
Zn252 O257 2.049 . S
Zn252 O262 2.067 . S
Zn253 O254 1.962 . S
Zn253 O256 1.986 . S
Zn253 O258 1.996 . S
Zn253 O261 1.943 . S
O254 Zn253 1.962 . S
O254 C259 1.254 . S
O255 Zn252 2.031 . S
O255 C259 1.269 . S
O256 Zn253 1.986 . S
O256 C263 1.262 . S
O257 Zn252 2.049 . S
O257 C265 1.260 . S
O258 Zn253 1.996 . S
O258 C265 1.257 . S
C259 O254 1.254 . S
C259 O255 1.269 . S
C260 O261 1.249 . S
C260 O262 1.270 . S
O261 Zn253 1.943 . S
O261 C260 1.249 . S
O262 Zn252 2.067 . S
O262 C260 1.270 . S
C263 O256 1.262 . S
C263 O264 1.232 . S
O264 C263 1.232 . S
C265 O257 1.260 . S
C265 O258 1.257 . S
Zn266 O269 2.031 1_565 S
Zn266 O271 2.049 . S
Zn266 O276 2.067 . S
Zn267 O268 1.962 . S
Zn267 O270 1.986 . S
Zn267 O272 1.996 1_545 S
Zn267 O275 1.943 1_545 S
O268 Zn267 1.962 . S
O268 C273 1.254 . S
O269 Zn266 2.031 1_545 S
O269 C273 1.269 . S
O270 Zn267 1.986 . S
O270 C277 1.262 . S
O271 Zn266 2.049 . S
O271 C279 1.260 . S
O272 Zn267 1.996 1_565 S
O272 C279 1.257 . S
C273 O268 1.254 . S
C273 O269 1.269 . S
C274 O275 1.249 . S
C274 O276 1.270 . S
O275 Zn267 1.943 1_565 S
O275 C274 1.249 . S
O276 Zn266 2.067 . S
O276 C274 1.270 . S
C277 O270 1.262 . S
C277 O278 1.232 . S
O278 C277 1.232 . S
C279 O271 1.260 . S
C279 O272 1.257 . S
Zn280 O283 2.031 1_556 S
Zn280 O285 2.049 . S
Zn280 O290 2.067 . S
Zn281 O282 1.962 . S
Zn281 O284 1.986 . S
Zn281 O286 1.996 1_554 S
Zn281 O289 1.943 1_554 S
O282 Zn281 1.962 . S
O282 C287 1.254 . S
O283 Zn280 2.031 1_554 S
O283 C287 1.269 . S
O284 Zn281 1.986 . S
O284 C291 1.262 . S
O285 Zn280 2.049 . S
O285 C293 1.260 . S
O286 Zn281 1.996 1_556 S
O286 C293 1.257 . S
C287 O282 1.254 . S
C287 O283 1.269 . S
C288 O289 1.249 . S
C288 O290 1.270 . S
O289 Zn281 1.943 1_556 S
O289 C288 1.249 . S
O290 Zn280 2.067 . S
O290 C288 1.270 . S
C291 O284 1.262 . S
C291 O292 1.232 . S
O292 C291 1.232 . S
C293 O285 1.260 . S
C293 O286 1.257 . S
Zn294 O297 2.031 . S
Zn294 O299 2.049 . S
Zn294 O304 2.067 . S
Zn295 O296 1.962 . S
Zn295 O298 1.986 . S
Zn295 O300 1.996 . S
Zn295 O303 1.943 . S
O296 Zn295 1.962 . S
O296 C301 1.254 . S
O297 Zn294 2.031 . S
O297 C301 1.269 . S
O298 Zn295 1.986 . S
O298 C305 1.262 . S
O299 Zn294 2.049 . S
O299 C307 1.260 . S
O300 Zn295 1.996 . S
O300 C307 1.257 . S
C301 O296 1.254 . S
C301 O297 1.269 . S
C302 O303 1.249 . S
C302 O304 1.270 . S
O303 Zn295 1.943 . S
O303 C302 1.249 . S
O304 Zn294 2.067 . S
O304 C302 1.270 . S
C305 O298 1.262 . S
C305 O306 1.232 . S
O306 C305 1.232 . S
C307 O299 1.260 . S
C307 O300 1.257 . S
Zn308 O311 2.031 . S
Zn308 O313 2.049 . S
Zn308 O318 2.067 . S
Zn309 O310 1.962 . S
Zn309 O312 1.986 . S
Zn309 O314 1.996 . S
Zn309 O317 1.943 . S
O310 Zn309 1.962 . S
O310 C315 1.254 . S
O311 Zn308 2.031 . S
O311 C315 1.269 . S
O312 Zn309 1.986 . S
O312 C319 1.262 . S
O313 Zn308 2.049 . S
O313 C321 1.260 . S
O314 Zn309 1.996 . S
O314 C321 1.257 . S
C315 O310 1.254 . S
C315 O311 1.269 . S
C316 O317 1.249 . S
C316 O318 1.270 . S
O317 Zn309 1.943 . S
O317 C316 1.249 . S
O318 Zn308 2.067 . S
O318 C316 1.270 . S
C319 O312 1.262 . S
C319 O320 1.232 . S
O320 C319 1.232 . S
C321 O313 1.260 . S
C321 O314 1.257 . S
Zn322 O325 2.031 . S
Zn322 O327 2.049 . S
Zn322 O332 2.067 . S
Zn323 O324 1.962 . S
Zn323 O326 1.986 . S
Zn323 O328 1.996 . S
Zn323 O331 1.943 . S
O324 Zn323 1.962 . S
O324 C329 1.254 . S
O325 Zn322 2.031 . S
O325 C329 1.269 . S
O326 Zn323 1.986 . S
O326 C333 1.262 . S
O327 Zn322 2.049 . S
O327 C335 1.260 . S
O328 Zn323 1.996 . S
O328 C335 1.257 . S
C329 O324 1.254 . S
C329 O325 1.269 . S
C330 O331 1.249 . S
C330 O332 1.270 . S
O331 Zn323 1.943 . S
O331 C330 1.249 . S
O332 Zn322 2.067 . S
O332 C330 1.270 . S
C333 O326 1.262 . S
C333 O334 1.232 . S
O334 C333 1.232 . S
C335 O327 1.260 . S
C335 O328 1.257 . S
Sc336 O339 2.025 . S
Sc336 O346 2.105 . S
Sc336 O349 2.105 . S
Sc336 O352 2.105 . S
Sc336 O355 2.105 . S
Sc337 O339 2.025 . S
Sc337 O347 2.105 . S
Sc337 O351 2.105 . S
Sc337 O353 2.105 . S
Sc337 O357 2.105 . S
Sc338 O339 2.025 . S
Sc338 O348 2.105 . S
Sc338 O350 2.105 . S
Sc338 O354 2.105 . S
Sc338 O356 2.105 . S
O339 Sc336 2.025 . S
O339 Sc337 2.025 . S
O339 Sc338 2.025 . S
C340 O346 1.268 . S
C340 O356 1.268 . S
C341 O347 1.268 . S
C341 O355 1.268 . S
C342 O348 1.268 . S
C342 O357 1.268 . S
C343 O349 1.268 . S
C343 O353 1.268 . S
C344 O350 1.268 . S
C344 O352 1.268 . S
C345 O351 1.268 . S
C345 O354 1.268 . S
O346 Sc336 2.105 . S
O346 C340 1.268 . S
O347 Sc337 2.105 . S
O347 C341 1.268 . S
O348 Sc338 2.105 . S
O348 C342 1.268 . S
O349 Sc336 2.105 . S
O349 C343 1.268 . S
O350 Sc338 2.105 . S
O350 C344 1.268 . S
O351 Sc337 2.105 . S
O351 C345 1.268 . S
O352 Sc336 2.105 . S
O352 C344 1.268 . S
O353 Sc337 2.105 . S
O353 C343 1.268 . S
O354 Sc338 2.105 . S
O354 C345 1.268 . S
O355 Sc336 2.105 . S
O355 C341 1.268 . S
O356 Sc338 2.105 . S
O356 C340 1.268 . S
O357 Sc337 2.105 . S
O357 C342 1.268 . S
Sc358 O361 2.025 . S
Sc358 O368 2.105 . S
Sc358 O371 2.105 . S
Sc358 O374 2.105 . S
Sc358 O377 2.105 . S
Sc359 O361 2.025 . S
Sc359 O369 2.105 . S
Sc359 O373 2.105 . S
Sc359 O375 2.105 . S
Sc359 O379 2.105 . S
Sc360 O361 2.025 . S
Sc360 O370 2.105 . S
Sc360 O372 2.105 . S
Sc360 O376 2.105 . S
Sc360 O378 2.105 1_565 S
O361 Sc358 2.025 . S
O361 Sc359 2.025 . S
O361 Sc360 2.025 . S
C362 O368 1.268 1_545 S
C362 O378 1.268 . S
C363 O369 1.268 . S
C363 O377 1.268 . S
C364 O370 1.268 . S
C364 O379 1.268 . S
C365 O371 1.268 . S
C365 O375 1.268 . S
C366 O372 1.268 . S
C366 O374 1.268 . S
C367 O373 1.268 . S
C367 O376 1.268 . S
O368 Sc358 2.105 . S
O368 C362 1.268 1_565 S
O369 Sc359 2.105 . S
O369 C363 1.268 . S
O370 Sc360 2.105 . S
O370 C364 1.268 . S
O371 Sc358 2.105 . S
O371 C365 1.268 . S
O372 Sc360 2.105 . S
O372 C366 1.268 . S
O373 Sc359 2.105 . S
O373 C367 1.268 . S
O374 Sc358 2.105 . S
O374 C366 1.268 . S
O375 Sc359 2.105 . S
O375 C365 1.268 . S
O376 Sc360 2.105 . S
O376 C367 1.268 . S
O377 Sc358 2.105 . S
O377 C363 1.268 . S
O378 Sc360 2.105 1_545 S
O378 C362 1.268 . S
O379 Sc359 2.105 . S
O379 C364 1.268 . S
Sc380 O383 2.025 . S
Sc380 O390 2.105 . S
Sc380 O393 2.105 . S
Sc380 O396 2.105 . S
Sc380 O399 2.105 . S
Sc381 O383 2.025 . S
Sc381 O391 2.105 . S
Sc381 O395 2.105 . S
Sc381 O397 2.105 . S
Sc381 O401 2.105 . S
Sc382 O383 2.025 . S
Sc382 O392 2.105 . S
Sc382 O394 2.105 . S
Sc382 O398 2.105 1_565 S
Sc382 O400 2.105 . S
O383 Sc380 2.025 . S
O383 Sc381 2.025 . S
O383 Sc382 2.025 . S
C384 O390 1.268 . S
C384 O400 1.268 . S
C385 O391 1.268 . S
C385 O399 1.268 . S
C386 O392 1.268 . S
C386 O401 1.268 . S
C387 O393 1.268 . S
C387 O397 1.268 . S
C388 O394 1.268 . S
C388 O396 1.268 . S
C389 O395 1.268 1_545 S
C389 O398 1.268 . S
O390 Sc380 2.105 . S
O390 C384 1.268 . S
O391 Sc381 2.105 . S
O391 C385 1.268 . S
O392 Sc382 2.105 . S
O392 C386 1.268 . S
O393 Sc380 2.105 . S
O393 C387 1.268 . S
O394 Sc382 2.105 . S
O394 C388 1.268 . S
O395 Sc381 2.105 . S
O395 C389 1.268 1_565 S
O396 Sc380 2.105 . S
O396 C388 1.268 . S
O397 Sc381 2.105 . S
O397 C387 1.268 . S
O398 Sc382 2.105 1_545 S
O398 C389 1.268 . S
O399 Sc380 2.105 . S
O399 C385 1.268 . S
O400 Sc382 2.105 . S
O400 C384 1.268 . S
O401 Sc381 2.105 . S
O401 C386 1.268 . S
Sc402 O405 2.025 . S
Sc402 O412 2.105 . S
Sc402 O415 2.105 . S
Sc402 O418 2.105 . S
Sc402 O421 2.105 . S
Sc403 O405 2.025 . S
Sc403 O413 2.105 . S
Sc403 O417 2.105 . S
Sc403 O419 2.105 . S
Sc403 O423 2.105 . S
Sc404 O405 2.025 . S
Sc404 O414 2.105 . S
Sc404 O416 2.105 . S
Sc404 O420 2.105 1_556 S
Sc404 O422 2.105 . S
O405 Sc402 2.025 . S
O405 Sc403 2.025 . S
O405 Sc404 2.025 . S
C406 O412 1.268 . S
C406 O422 1.268 . S
C407 O413 1.268 . S
C407 O421 1.268 . S
C408 O414 1.268 . S
C408 O423 1.268 . S
C409 O415 1.268 . S
C409 O419 1.268 . S
C410 O416 1.268 . S
C410 O418 1.268 . S
C411 O417 1.268 1_554 S
C411 O420 1.268 . S
O412 Sc402 2.105 . S
O412 C406 1.268 . S
O413 Sc403 2.105 . S
O413 C407 1.268 . S
O414 Sc404 2.105 . S
O414 C408 1.268 . S
O415 Sc402 2.105 . S
O415 C409 1.268 . S
O416 Sc404 2.105 . S
O416 C410 1.268 . S
O417 Sc403 2.105 . S
O417 C411 1.268 1_556 S
O418 Sc402 2.105 . S
O418 C410 1.268 . S
O419 Sc403 2.105 . S
O419 C409 1.268 . S
O420 Sc404 2.105 1_554 S
O420 C411 1.268 . S
O421 Sc402 2.105 . S
O421 C407 1.268 . S
O422 Sc404 2.105 . S
O422 C406 1.268 . S
O423 Sc403 2.105 . S
O423 C408 1.268 . S
Sc424 O427 2.025 . S
Sc424 O434 2.105 . S
Sc424 O437 2.105 . S
Sc424 O440 2.105 . S
Sc424 O443 2.105 1_556 S
Sc425 O427 2.025 . S
Sc425 O435 2.105 . S
Sc425 O439 2.105 . S
Sc425 O441 2.105 . S
Sc425 O445 2.105 . S
Sc426 O427 2.025 . S
Sc426 O436 2.105 . S
Sc426 O438 2.105 . S
Sc426 O442 2.105 . S
Sc426 O444 2.105 . S
O427 Sc424 2.025 . S
O427 Sc425 2.025 . S
O427 Sc426 2.025 . S
C428 O434 1.268 . S
C428 O444 1.268 . S
C429 O435 1.268 1_554 S
C429 O443 1.268 . S
C430 O436 1.268 . S
C430 O445 1.268 . S
C431 O437 1.268 . S
C431 O441 1.268 . S
C432 O438 1.268 . S
C432 O440 1.268 . S
C433 O439 1.268 . S
C433 O442 1.268 . S
O434 Sc424 2.105 . S
O434 C428 1.268 . S
O435 Sc425 2.105 . S
O435 C429 1.268 1_556 S
O436 Sc426 2.105 . S
O436 C430 1.268 . S
O437 Sc424 2.105 . S
O437 C431 1.268 . S
O438 Sc426 2.105 . S
O438 C432 1.268 . S
O439 Sc425 2.105 . S
O439 C433 1.268 . S
O440 Sc424 2.105 . S
O440 C432 1.268 . S
O441 Sc425 2.105 . S
O441 C431 1.268 . S
O442 Sc426 2.105 . S
O442 C433 1.268 . S
O443 Sc424 2.105 1_554 S
O443 C429 1.268 . S
O444 Sc426 2.105 . S
O444 C428 1.268 . S
O445 Sc425 2.105 . S
O445 C430 1.268 . S
Sc446 O449 2.025 . S
Sc446 O456 2.105 . S
Sc446 O459 2.105 . S
Sc446 O462 2.105 . S
Sc446 O465 2.105 1_655 S
Sc447 O449 2.025 . S
Sc447 O457 2.105 . S
Sc447 O461 2.105 . S
Sc447 O463 2.105 . S
Sc447 O467 2.105 . S
Sc448 O449 2.025 . S
Sc448 O458 2.105 . S
Sc448 O460 2.105 . S
Sc448 O464 2.105 . S
Sc448 O466 2.105 . S
O449 Sc446 2.025 . S
O449 Sc447 2.025 . S
O449 Sc448 2.025 . S
C450 O456 1.268 . S
C450 O466 1.268 . S
C451 O457 1.268 1_455 S
C451 O465 1.268 . S
C452 O458 1.268 . S
C452 O467 1.268 . S
C453 O459 1.268 . S
C453 O463 1.268 . S
C454 O460 1.268 . S
C454 O462 1.268 . S
C455 O461 1.268 . S
C455 O464 1.268 . S
O456 Sc446 2.105 . S
O456 C450 1.268 . S
O457 Sc447 2.105 . S
O457 C451 1.268 1_655 S
O458 Sc448 2.105 . S
O458 C452 1.268 . S
O459 Sc446 2.105 . S
O459 C453 1.268 . S
O460 Sc448 2.105 . S
O460 C454 1.268 . S
O461 Sc447 2.105 . S
O461 C455 1.268 . S
O462 Sc446 2.105 . S
O462 C454 1.268 . S
O463 Sc447 2.105 . S
O463 C453 1.268 . S
O464 Sc448 2.105 . S
O464 C455 1.268 . S
O465 Sc446 2.105 1_455 S
O465 C451 1.268 . S
O466 Sc448 2.105 . S
O466 C450 1.268 . S
O467 Sc447 2.105 . S
O467 C452 1.268 . S
Sc468 O471 2.025 . S
Sc468 O478 2.105 . S
Sc468 O481 2.105 . S
Sc468 O484 2.105 . S
Sc468 O487 2.105 . S
Sc469 O471 2.025 . S
Sc469 O479 2.105 . S
Sc469 O483 2.105 . S
Sc469 O485 2.105 1_655 S
Sc469 O489 2.105 . S
Sc470 O471 2.025 . S
Sc470 O480 2.105 . S
Sc470 O482 2.105 . S
Sc470 O486 2.105 . S
Sc470 O488 2.105 . S
O471 Sc468 2.025 . S
O471 Sc469 2.025 . S
O471 Sc470 2.025 . S
C472 O478 1.268 . S
C472 O488 1.268 . S
C473 O479 1.268 . S
C473 O487 1.268 . S
C474 O480 1.268 . S
C474 O489 1.268 . S
C475 O481 1.268 1_455 S
C475 O485 1.268 . S
C476 O482 1.268 . S
C476 O484 1.268 . S
C477 O483 1.268 . S
C477 O486 1.268 . S
O478 Sc468 2.105 . S
O478 C472 1.268 . S
O479 Sc469 2.105 . S
O479 C473 1.268 . S
O480 Sc470 2.105 . S
O480 C474 1.268 . S
O481 Sc468 2.105 . S
O481 C475 1.268 1_655 S
O482 Sc470 2.105 . S
O482 C476 1.268 . S
O483 Sc469 2.105 . S
O483 C477 1.268 . S
O484 Sc468 2.105 . S
O484 C476 1.268 . S
O485 Sc469 2.105 1_455 S
O485 C475 1.268 . S
O486 Sc470 2.105 . S
O486 C477 1.268 . S
O487 Sc468 2.105 . S
O487 C473 1.268 . S
O488 Sc470 2.105 . S
O488 C472 1.268 . S
O489 Sc469 2.105 . S
O489 C474 1.268 . S
Sc490 O493 2.025 . S
Sc490 O500 2.105 1_655 S
Sc490 O503 2.105 . S
Sc490 O506 2.105 . S
Sc490 O509 2.105 . S
Sc491 O493 2.025 . S
Sc491 O501 2.105 1_556 S
Sc491 O505 2.105 . S
Sc491 O507 2.105 . S
Sc491 O511 2.105 . S
Sc492 O493 2.025 . S
Sc492 O502 2.105 1_565 S
Sc492 O504 2.105 . S
Sc492 O508 2.105 . S
Sc492 O510 2.105 . S
O493 Sc490 2.025 . S
O493 Sc491 2.025 . S
O493 Sc492 2.025 . S
C494 O500 1.268 . S
C494 O510 1.268 1_455 S
C495 O501 1.268 . S
C495 O509 1.268 1_554 S
C496 O502 1.268 . S
C496 O511 1.268 1_545 S
C497 O503 1.268 . S
C497 O507 1.268 . S
C498 O504 1.268 . S
C498 O506 1.268 . S
C499 O505 1.268 . S
C499 O508 1.268 . S
O500 Sc490 2.105 1_455 S
O500 C494 1.268 . S
O501 Sc491 2.105 1_554 S
O501 C495 1.268 . S
O502 Sc492 2.105 1_545 S
O502 C496 1.268 . S
O503 Sc490 2.105 . S
O503 C497 1.268 . S
O504 Sc492 2.105 . S
O504 C498 1.268 . S
O505 Sc491 2.105 . S
O505 C499 1.268 . S
O506 Sc490 2.105 . S
O506 C498 1.268 . S
O507 Sc491 2.105 . S
O507 C497 1.268 . S
O508 Sc492 2.105 . S
O508 C499 1.268 . S
O509 Sc490 2.105 . S
O509 C495 1.268 1_556 S
O510 Sc492 2.105 . S
O510 C494 1.268 1_655 S
O511 Sc491 2.105 . S
O511 C496 1.268 1_565 S
Sc512 O515 2.025 . S
Sc512 O522 2.105 . S
Sc512 O525 2.105 . S
Sc512 O528 2.105 . S
Sc512 O531 2.105 . S
Sc513 O515 2.025 . S
Sc513 O523 2.105 . S
Sc513 O527 2.105 1_655 S
Sc513 O529 2.105 . S
Sc513 O533 2.105 . S
Sc514 O515 2.025 . S
Sc514 O524 2.105 . S
Sc514 O526 2.105 . S
Sc514 O530 2.105 . S
Sc514 O532 2.105 . S
O515 Sc512 2.025 . S
O515 Sc513 2.025 . S
O515 Sc514 2.025 . S
C516 O522 1.268 . S
C516 O532 1.268 . S
C517 O523 1.268 . S
C517 O531 1.268 . S
C518 O524 1.268 . S
C518 O533 1.268 . S
C519 O525 1.268 . S
C519 O529 1.268 . S
C520 O526 1.268 . S
C520 O528 1.268 . S
C521 O527 1.268 . S
C521 O530 1.268 1_455 S
O522 Sc512 2.105 . S
O522 C516 1.268 . S
O523 Sc513 2.105 . S
O523 C517 1.268 . S
O524 Sc514 2.105 . S
O524 C518 1.268 . S
O525 Sc512 2.105 . S
O525 C519 1.268 . S
O526 Sc514 2.105 . S
O526 C520 1.268 . S
O527 Sc513 2.105 1_455 S
O527 C521 1.268 . S
O528 Sc512 2.105 . S
O528 C520 1.268 . S
O529 Sc513 2.105 . S
O529 C519 1.268 . S
O530 Sc514 2.105 . S
O530 C521 1.268 1_655 S
O531 Sc512 2.105 . S
O531 C517 1.268 . S
O532 Sc514 2.105 . S
O532 C516 1.268 . S
O533 Sc513 2.105 . S
O533 C518 1.268 . S
Sc534 O537 2.025 . S
Sc534 O544 2.105 . S
Sc534 O547 2.105 1_545 S
Sc534 O550 2.105 . S
Sc534 O553 2.105 . S
Sc535 O537 2.025 . S
Sc535 O545 2.105 . S
Sc535 O549 2.105 . S
Sc535 O551 2.105 . S
Sc535 O555 2.105 . S
Sc536 O537 2.025 . S
Sc536 O546 2.105 . S
Sc536 O548 2.105 . S
Sc536 O552 2.105 . S
Sc536 O554 2.105 . S
O537 Sc534 2.025 . S
O537 Sc535 2.025 . S
O537 Sc536 2.025 . S
C538 O544 1.268 . S
C538 O554 1.268 . S
C539 O545 1.268 . S
C539 O553 1.268 . S
C540 O546 1.268 . S
C540 O555 1.268 . S
C541 O547 1.268 . S
C541 O551 1.260 1_565 S
C542 O548 1.268 . S
C542 O550 1.268 . S
C543 O549 1.268 . S
C543 O552 1.268 . S
O544 Sc534 2.105 . S
O544 C538 1.268 . S
O545 Sc535 2.105 . S
O545 C539 1.268 . S
O546 Sc536 2.105 . S
O546 C540 1.268 . S
O547 Sc534 2.105 1_565 S
O547 C541 1.268 . S
O548 Sc536 2.105 . S
O548 C542 1.268 . S
O549 Sc535 2.105 . S
O549 C543 1.268 . S
O550 Sc534 2.105 . S
O550 C542 1.268 . S
O551 Sc535 2.105 . S
O551 C541 1.260 1_545 S
O552 Sc536 2.105 . S
O552 C543 1.268 . S
O553 Sc534 2.105 . S
O553 C539 1.268 . S
O554 Sc536 2.105 . S
O554 C538 1.268 . S
O555 Sc535 2.105 . S
O555 C540 1.268 . S
Sc556 O559 2.025 . S
Sc556 O566 2.105 . S
Sc556 O569 2.105 . S
Sc556 O572 2.105 . S
Sc556 O575 2.105 . S
Sc557 O559 2.025 . S
Sc557 O567 2.105 . S
Sc557 O571 2.105 . S
Sc557 O573 2.105 . S
Sc557 O577 2.105 . S
Sc558 O559 2.025 . S
Sc558 O568 2.105 . S
Sc558 O570 2.105 1_565 S
Sc558 O574 2.105 . S
Sc558 O576 2.105 . S
O559 Sc556 2.025 . S
O559 Sc557 2.025 . S
O559 Sc558 2.025 . S
C560 O566 1.268 . S
C560 O576 1.268 . S
C561 O567 1.268 . S
C561 O575 1.268 . S
C562 O568 1.268 . S
C562 O577 1.268 . S
C563 O569 1.268 . S
C563 O573 1.268 . S
C564 O570 1.268 . S
C564 O572 1.268 1_545 S
C565 O571 1.268 . S
C565 O574 1.268 . S
O566 Sc556 2.105 . S
O566 C560 1.268 . S
O567 Sc557 2.105 . S
O567 C561 1.268 . S
O568 Sc558 2.105 . S
O568 C562 1.268 . S
O569 Sc556 2.105 . S
O569 C563 1.268 . S
O570 Sc558 2.105 1_545 S
O570 C564 1.268 . S
O571 Sc557 2.105 . S
O571 C565 1.268 . S
O572 Sc556 2.105 . S
O572 C564 1.268 1_565 S
O573 Sc557 2.105 . S
O573 C563 1.268 . S
O574 Sc558 2.105 . S
O574 C565 1.268 . S
O575 Sc556 2.105 . S
O575 C561 1.268 . S
O576 Sc558 2.105 . S
O576 C560 1.268 . S
O577 Sc557 2.105 . S
O577 C562 1.268 . S
Sc578 O581 2.025 . S
Sc578 O588 2.105 . S
Sc578 O591 2.105 1_554 S
Sc578 O594 2.105 . S
Sc578 O597 2.105 . S
Sc579 O581 2.025 . S
Sc579 O589 2.105 . S
Sc579 O593 2.105 . S
Sc579 O595 2.105 . S
Sc579 O599 2.105 . S
Sc580 O581 2.025 . S
Sc580 O590 2.105 . S
Sc580 O592 2.105 . S
Sc580 O596 2.105 . S
Sc580 O598 2.105 . S
O581 Sc578 2.025 . S
O581 Sc579 2.025 . S
O581 Sc580 2.025 . S
C582 O588 1.268 . S
C582 O598 1.268 . S
C583 O589 1.268 . S
C583 O597 1.268 . S
C584 O590 1.268 . S
C584 O599 1.268 . S
C585 O591 1.268 . S
C585 O595 1.260 1_556 S
C586 O592 1.268 . S
C586 O594 1.268 . S
C587 O593 1.268 . S
C587 O596 1.268 . S
O588 Sc578 2.105 . S
O588 C582 1.268 . S
O589 Sc579 2.105 . S
O589 C583 1.268 . S
O590 Sc580 2.105 . S
O590 C584 1.268 . S
O591 Sc578 2.105 1_556 S
O591 C585 1.268 . S
O592 Sc580 2.105 . S
O592 C586 1.268 . S
O593 Sc579 2.105 . S
O593 C587 1.268 . S
O594 Sc578 2.105 . S
O594 C586 1.268 . S
O595 Sc579 2.105 . S
O595 C585 1.260 1_554 S
O596 Sc580 2.105 . S
O596 C587 1.268 . S
O597 Sc578 2.105 . S
O597 C583 1.268 . S
O598 Sc580 2.105 . S
O598 C582 1.268 . S
O599 Sc579 2.105 . S
O599 C584 1.268 . S
Sc600 O603 2.025 . S
Sc600 O610 2.105 . S
Sc600 O613 2.105 . S
Sc600 O616 2.105 . S
Sc600 O619 2.105 . S
Sc601 O603 2.025 . S
Sc601 O611 2.105 . S
Sc601 O615 2.105 1_556 S
Sc601 O617 2.105 . S
Sc601 O621 2.105 . S
Sc602 O603 2.025 . S
Sc602 O612 2.105 . S
Sc602 O614 2.105 . S
Sc602 O618 2.105 . S
Sc602 O620 2.105 . S
O603 Sc600 2.025 . S
O603 Sc601 2.025 . S
O603 Sc602 2.025 . S
C604 O610 1.268 . S
C604 O620 1.268 . S
C605 O611 1.268 . S
C605 O619 1.268 . S
C606 O612 1.268 . S
C606 O621 1.268 . S
C607 O613 1.268 . S
C607 O617 1.268 . S
C608 O614 1.268 . S
C608 O616 1.268 . S
C609 O615 1.268 . S
C609 O618 1.268 1_554 S
O610 Sc600 2.105 . S
O610 C604 1.268 . S
O611 Sc601 2.105 . S
O611 C605 1.268 . S
O612 Sc602 2.105 . S
O612 C606 1.268 . S
O613 Sc600 2.105 . S
O613 C607 1.268 . S
O614 Sc602 2.105 . S
O614 C608 1.268 . S
O615 Sc601 2.105 1_554 S
O615 C609 1.268 . S
O616 Sc600 2.105 . S
O616 C608 1.268 . S
O617 Sc601 2.105 . S
O617 C607 1.268 . S
O618 Sc602 2.105 . S
O618 C609 1.268 1_556 S
O619 Sc600 2.105 . S
O619 C605 1.268 . S
O620 Sc602 2.105 . S
O620 C604 1.268 . S
O621 Sc601 2.105 . S
O621 C606 1.268 . S
Sc622 O625 2.025 . S
Sc622 O632 2.105 . S
Sc622 O635 2.105 . S
Sc622 O638 2.105 . S
Sc622 O641 2.105 . S
Sc623 O625 2.025 . S
Sc623 O633 2.105 . S
Sc623 O637 2.105 1_455 S
Sc623 O639 2.105 . S
Sc623 O643 2.105 . S
Sc624 O625 2.025 . S
Sc624 O634 2.105 . S
Sc624 O636 2.105 . S
Sc624 O640 2.105 . S
Sc624 O642 2.105 . S
O625 Sc622 2.025 . S
O625 Sc623 2.025 . S
O625 Sc624 2.025 . S
C626 O632 1.268 . S
C626 O642 1.268 . S
C627 O633 1.268 . S
C627 O641 1.268 . S
C628 O634 1.268 . S
C628 O643 1.268 . S
C629 O635 1.268 . S
C629 O639 1.268 . S
C630 O636 1.268 . S
C630 O638 1.268 . S
C631 O637 1.268 . S
C631 O640 1.260 1_655 S
O632 Sc622 2.105 . S
O632 C626 1.268 . S
O633 Sc623 2.105 . S
O633 C627 1.268 . S
O634 Sc624 2.105 . S
O634 C628 1.268 . S
O635 Sc622 2.105 . S
O635 C629 1.268 . S
O636 Sc624 2.105 . S
O636 C630 1.268 . S
O637 Sc623 2.105 1_655 S
O637 C631 1.268 . S
O638 Sc622 2.105 . S
O638 C630 1.268 . S
O639 Sc623 2.105 . S
O639 C629 1.268 . S
O640 Sc624 2.105 . S
O640 C631 1.260 1_455 S
O641 Sc622 2.105 . S
O641 C627 1.268 . S
O642 Sc624 2.105 . S
O642 C626 1.268 . S
O643 Sc623 2.105 . S
O643 C628 1.268 . S
Sc644 O647 2.025 . S
Sc644 O654 2.105 . S
Sc644 O657 2.105 . S
Sc644 O660 2.105 . S
Sc644 O663 2.105 . S
Sc645 O647 2.025 . S
Sc645 O655 2.105 . S
Sc645 O659 2.105 . S
Sc645 O661 2.105 . S
Sc645 O665 2.105 . S
Sc646 O647 2.025 . S
Sc646 O656 2.105 . S
Sc646 O658 2.105 . S
Sc646 O662 2.105 . S
Sc646 O664 2.105 . S
O647 Sc644 2.025 . S
O647 Sc645 2.025 . S
O647 Sc646 2.025 . S
C648 O654 1.268 . S
C648 O664 1.268 . S
C649 O655 1.268 . S
C649 O663 1.268 . S
C650 O656 1.268 . S
C650 O665 1.268 . S
C651 O657 1.268 . S
C651 O661 1.268 . S
C652 O658 1.268 . S
C652 O660 1.268 . S
C653 O659 1.268 . S
C653 O662 1.268 . S
O654 Sc644 2.105 . S
O654 C648 1.268 . S
O655 Sc645 2.105 . S
O655 C649 1.268 . S
O656 Sc646 2.105 . S
O656 C650 1.268 . S
O657 Sc644 2.105 . S
O657 C651 1.268 . S
O658 Sc646 2.105 . S
O658 C652 1.268 . S
O659 Sc645 2.105 . S
O659 C653 1.268 . S
O660 Sc644 2.105 . S
O660 C652 1.268 . S
O661 Sc645 2.105 . S
O661 C651 1.268 . S
O662 Sc646 2.105 . S
O662 C653 1.268 . S
O663 Sc644 2.105 . S
O663 C649 1.268 . S
O664 Sc646 2.105 . S
O664 C648 1.268 . S
O665 Sc645 2.105 . S
O665 C650 1.268 . S
Sc666 O669 2.025 . S
Sc666 O676 2.105 . S
Sc666 O679 2.105 . S
Sc666 O682 2.105 . S
Sc666 O685 2.105 . S
Sc667 O669 2.025 . S
Sc667 O677 2.105 . S
Sc667 O681 2.105 . S
Sc667 O683 2.105 . S
Sc667 O687 2.105 . S
Sc668 O669 2.025 . S
Sc668 O678 2.105 . S
Sc668 O680 2.105 . S
Sc668 O684 2.105 . S
Sc668 O686 2.105 . S
O669 Sc666 2.025 . S
O669 Sc667 2.025 . S
O669 Sc668 2.025 . S
C670 O676 1.268 . S
C670 O686 1.268 . S
C671 O677 1.268 . S
C671 O685 1.268 . S
C672 O678 1.268 . S
C672 O687 1.268 . S
C673 O679 1.268 . S
C673 O683 1.268 . S
C674 O680 1.268 . S
C674 O682 1.268 . S
C675 O681 1.268 . S
C675 O684 1.268 . S
O676 Sc666 2.105 . S
O676 C670 1.268 . S
O677 Sc667 2.105 . S
O677 C671 1.268 . S
O678 Sc668 2.105 . S
O678 C672 1.268 . S
O679 Sc666 2.105 . S
O679 C673 1.268 . S
O680 Sc668 2.105 . S
O680 C674 1.268 . S
O681 Sc667 2.105 . S
O681 C675 1.268 . S
O682 Sc666 2.105 . S
O682 C674 1.268 . S
O683 Sc667 2.105 . S
O683 C673 1.268 . S
O684 Sc668 2.105 . S
O684 C675 1.268 . S
O685 Sc666 2.105 . S
O685 C671 1.268 . S
O686 Sc668 2.105 . S
O686 C670 1.268 . S
O687 Sc667 2.105 . S
O687 C672 1.268 . S
C343 C11 1.151 . S
C21 C363 1.175 . S
C384 C41 1.508 . S
C411 C50 1.328 . S
C367 C64 1.328 . S
C83 C387 1.508 . S
C407 C91 1.175 . S
C109 C340 1.151 1_556 S
C123 C345 1.151 . S
C362 C134 1.328 . S
C386 C147 1.175 . S
C410 C167 1.507 1_545 S
C366 C125 1.508 . S
C389 C133 1.175 . S
C148 C406 1.328 . S
C342 C165 1.151 1_545 S
C179 C344 1.151 . S
C189 C431 1.175 . S
C451 C204 1.328 . S
C474 C223 1.508 . S
C235 C341 1.151 1_655 S
C246 C385 1.328 . S
C475 C203 1.175 . S
C430 C265 1.508 . S
C498 C27 1.463 . S
C519 C7 1.198 . S
C53 C538 1.128 . S
C36 C563 1.056 1_556 S
C106 C518 1.056 . S
C95 C543 1.128 . S
C562 C77 1.198 . S
C69 C495 1.463 . S
C279 C499 1.463 . S
C520 C218 1.056 1_545 S
C539 C231 1.196 . S
C564 C193 1.128 . S
C516 C277 1.128 . S
C541 C217 1.205 . S
C560 C232 1.056 . S
C195 C496 1.463 . S
C497 C293 1.463 . S
C161 C583 1.196 . S
C608 C302 1.056 1_455 S
C137 C627 1.128 . S
C494 C153 1.463 . S
C540 C316 1.056 . S
C631 C301 1.205 . S
C333 C587 1.128 . S
C39 C651 1.151 . S
C49 C429 1.175 . S
C453 C13 1.508 . S
C22 C477 1.328 . S
C92 C433 1.328 . S
C111 C450 1.507 1_556 S
C473 C63 1.175 . S
C648 C81 1.151 . S
C653 C305 1.151 . S
C428 C288 1.328 . S
C455 C329 1.175 . S
C321 C476 1.508 . S
C432 C307 1.508 . S
C287 C452 1.175 . S
C472 C330 1.328 . S
C319 C650 1.151 . S
C652 C221 1.151 . S
C245 C365 1.175 . S
C388 C274 1.328 . S
C181 C408 1.508 . S
C649 C263 1.151 . S
C454 C190 1.328 . S
C409 C273 1.175 . S
C364 C237 1.507 1_455 S
C55 C675 1.463 . S
C35 C585 1.205 . S
C25 C604 1.128 . S
C629 C8 1.056 . S
C584 C78 1.056 . S
C67 C609 1.128 . S
C628 C105 1.196 . S
C97 C670 1.463 . S
C673 C209 1.463 . S
C176 C586 1.056 . S
C259 C605 1.198 . S
C630 C249 1.128 . S
C582 C207 1.128 . S
C175 C607 1.198 . S
C626 C260 1.056 . S
C671 C251 1.463 . S
C674 C139 1.463 . S
C517 C315 1.198 . S
C120 C542 1.056 . S
C291 C561 1.128 . S
C672 C335 1.463 . S
C606 C162 1.056 . S
C565 C119 1.198 . S
C521 C151 1.128 . S
