# Generated by pormake.
# Topology pth, (4,4)-cn, num edge types: 1
# Building blocks:
#     Node 0, Type 0, BuildingBlock: GALJAG_clean_sbu_0, # of connection points: 4
#     Node 1, Type 0, BuildingBlock: GALJAG_clean_sbu_0, # of connection points: 4
#     Node 2, Type 0, BuildingBlock: GALJAG_clean_sbu_0, # of connection points: 4
#     Node 3, Type 1, BuildingBlock: NAWXER_clean_sbu_0, # of connection points: 4
#     Node 4, Type 1, BuildingBlock: NAWXER_clean_sbu_0, # of connection points: 4
#     Node 5, Type 1, BuildingBlock: NAWXER_clean_sbu_0, # of connection points: 4
#     Edge 6, Type (0, 1), BuildingBlock: UVAHIK_clean_linker_0, # of connection points: 2
#     Edge 7, Type (0, 1), BuildingBlock: UVAHIK_clean_linker_0, # of connection points: 2
#     Edge 8, Type (0, 1), BuildingBlock: UVAHIK_clean_linker_0, # of connection points: 2
#     Edge 9, Type (0, 1), BuildingBlock: UVAHIK_clean_linker_0, # of connection points: 2
#     Edge 10, Type (0, 1), BuildingBlock: UVAHIK_clean_linker_0, # of connection points: 2
#     Edge 11, Type (0, 1), BuildingBlock: UVAHIK_clean_linker_0, # of connection points: 2
#     Edge 12, Type (0, 1), BuildingBlock: UVAHIK_clean_linker_0, # of connection points: 2
#     Edge 13, Type (0, 1), BuildingBlock: UVAHIK_clean_linker_0, # of connection points: 2
#     Edge 14, Type (0, 1), BuildingBlock: UVAHIK_clean_linker_0, # of connection points: 2
#     Edge 15, Type (0, 1), BuildingBlock: UVAHIK_clean_linker_0, # of connection points: 2
#     Edge 16, Type (0, 1), BuildingBlock: UVAHIK_clean_linker_0, # of connection points: 2
#     Edge 17, Type (0, 1), BuildingBlock: UVAHIK_clean_linker_0, # of connection points: 2
# Relax obj value: 0.017
# Max RMSD: 0.060
# Mean RMSD: 0.053
data_MOF--net-pth--node1-GALJAG_clean_sbu_0--node2-NAWXER_clean_sbu_0--edge1-UVAHIK_clean_linker_0
_symmetry_space_group_name_H-M    P1
_symmetry_Int_Tables_number       1
_symmetry_cell_setting            triclinic
loop_
_symmetry_equiv_pos_as_xyz
'x, y, z'
_cell_length_a     30.35254
_cell_length_b     30.357378
_cell_length_c     72.704337
_cell_angle_alpha  90.143678
_cell_angle_beta   90.132669
_cell_angle_gamma 119.99238
loop_
_atom_site_label
_atom_site_type_symbol
_atom_site_fract_x
_atom_site_fract_y
_atom_site_fract_z
_atom_type_partial_charge
In0 In 0.00644 0.00441 0.0685 0.0
O1 O 0.97122 0.04796 0.08185 0.0
O2 O 0.0446 0.06324 0.09083 0.0
C3 C 0.94057 0.93531 0.04456 0.0
C4 C 0.07285 0.07336 0.04492 0.0
C5 C 0.00307 0.93524 0.09223 0.0
O6 O 0.92792 0.96091 0.05486 0.0
O7 O 0.98625 0.94581 0.04615 0.0
O8 O 0.04151 0.9611 0.08212 0.0
O9 O 0.96776 0.94552 0.09057 0.0
C10 C 0.00936 0.07368 0.09223 0.0
O11 O 0.08508 0.0474 0.05518 0.0
O12 O 0.02731 0.06335 0.04639 0.0
In13 In 0.00307 0.00596 0.4026 0.0
O14 O 0.03187 0.08405 0.38954 0.0
O15 O 0.9605 0.02323 0.38055 0.0
C16 C 0.08008 0.02512 0.42594 0.0
C17 C 0.92635 0.9863 0.42598 0.0
C18 C 0.01181 0.94228 0.37884 0.0
O19 O 0.08007 0.05951 0.4162 0.0
O20 O 0.04109 0.9818 0.4241 0.0
O21 O 0.97319 0.92835 0.38889 0.0
O22 O 0.04555 0.98841 0.38061 0.0
C23 C 0.99343 0.06972 0.37926 0.0
O24 O 0.9267 0.95197 0.41625 0.0
O25 O 0.96491 0.02984 0.42414 0.0
In26 In 0.00218 0.00032 0.73443 0.0
O27 O 0.9531 0.92227 0.74752 0.0
O28 O 0.9426 0.98309 0.75648 0.0
C29 C 0.05974 0.98106 0.7111 0.0
C30 C 0.94479 0.01993 0.71106 0.0
C31 C 0.07495 0.06407 0.75814 0.0
O32 O 0.02541 0.9467 0.72083 0.0
O33 O 0.06415 0.02441 0.71294 0.0
O34 O 0.05036 0.07806 0.74801 0.0
O35 O 0.06228 0.01784 0.75648 0.0
C36 C 0.9291 0.93661 0.75779 0.0
O37 O 0.97946 0.05423 0.72084 0.0
O38 O 0.93997 0.97643 0.71285 0.0
C39 C 0.04084 0.58028 0.25908 0.0
C40 C 0.04158 0.46551 0.21175 0.0
O41 O 0.08011 0.58262 0.25185 0.0
Zn42 Zn 0.04409 0.52393 0.23559 0.0
O43 O 0.99651 0.54545 0.25395 0.0
Zn44 Zn 0.96202 0.48341 0.23508 0.0
O45 O 0.92494 0.42516 0.25117 0.0
O46 O 0.00833 0.46222 0.25439 0.0
O47 O 0.99708 0.45624 0.21642 0.0
O48 O 0.08057 0.50146 0.21961 0.0
O49 O 0.01017 0.55104 0.21631 0.0
O50 O 0.9265 0.50565 0.21854 0.0
C51 C 0.96357 0.42755 0.25905 0.0
C52 C 0.96596 0.54168 0.21109 0.0
C53 C 0.57921 0.04153 0.59232 0.0
C54 C 0.46465 0.04242 0.54505 0.0
O55 O 0.54478 0.99692 0.58721 0.0
Zn56 Zn 0.48209 0.96227 0.56836 0.0
O57 O 0.58053 0.08034 0.58514 0.0
Zn58 Zn 0.5228 0.04371 0.56869 0.0
O59 O 0.46 0.00834 0.58727 0.0
O60 O 0.42428 0.92501 0.58453 0.0
O61 O 0.50201 0.08096 0.55253 0.0
O62 O 0.45439 0.99763 0.5498 0.0
O63 O 0.50299 0.92566 0.5519 0.0
O64 O 0.55061 0.00908 0.54982 0.0
C65 C 0.42555 0.96354 0.59203 0.0
C66 C 0.54038 0.96447 0.54471 0.0
C67 C 0.43079 0.46407 0.92568 0.0
C68 C 0.54266 0.57856 0.87794 0.0
O69 O 0.42735 0.5001 0.9182 0.0
Zn70 Zn 0.48521 0.52252 0.9018 0.0
O71 O 0.46573 0.45481 0.92056 0.0
Zn72 Zn 0.52689 0.48214 0.90143 0.0
O73 O 0.58581 0.5047 0.91752 0.0
O74 O 0.54731 0.54971 0.92059 0.0
O75 O 0.55281 0.54392 0.88263 0.0
O76 O 0.50635 0.58084 0.88573 0.0
O77 O 0.45792 0.46063 0.88288 0.0
O78 O 0.50443 0.42354 0.88514 0.0
C79 C 0.5826 0.54054 0.92535 0.0
C80 C 0.46755 0.42589 0.87779 0.0
C81 C 0.97601 0.1279 0.10532 0.0
C82 C 0.01432 0.11491 0.10445 0.0
C83 C 0.98254 0.16878 0.11625 0.0
C84 C 0.05802 0.25039 0.15538 0.0
H85 H 0.01209 0.3404 0.13693 0.0
C86 C 0.08986 0.42906 0.19575 0.0
C87 C 0.04589 0.43305 0.19749 0.0
C88 C 0.09084 0.39423 0.18328 0.0
C89 C 0.02503 0.31553 0.14228 0.0
H90 H 0.08933 0.13425 0.11445 0.0
H91 H 0.10085 0.20557 0.13329 0.0
H92 H 0.00241 0.2699 0.11784 0.0
H93 H 0.96945 0.40545 0.18697 0.0
H94 H 0.97131 0.34539 0.16539 0.0
H95 H 0.08024 0.29589 0.17989 0.0
C96 C 0.06551 0.18396 0.12576 0.0
C97 C 0.01923 0.27497 0.13139 0.0
C98 C 0.05896 0.14316 0.11488 0.0
C99 C 0.00386 0.40313 0.18606 0.0
C100 C 0.00501 0.36891 0.17355 0.0
C101 C 0.06396 0.29108 0.16625 0.0
C102 C 0.02754 0.19748 0.12651 0.0
C103 C 0.03505 0.24151 0.1379 0.0
C104 C 0.04814 0.36343 0.1722 0.0
C105 C 0.04687 0.32365 0.15992 0.0
H106 H 0.94121 0.10679 0.09744 0.0
H107 H 0.9522 0.17771 0.11674 0.0
H108 H 0.07017 0.22506 0.1609 0.0
H109 H 0.12279 0.45161 0.20439 0.0
H110 H 0.12476 0.39105 0.18242 0.0
C111 C 0.84239 0.92788 0.44088 0.0
C112 C 0.88319 0.97729 0.43786 0.0
C113 C 0.80067 0.92027 0.45149 0.0
C114 C 0.73318 0.98622 0.4661 0.0
H115 H 0.68197 0.89084 0.50661 0.0
C116 C 0.61365 0.00339 0.52306 0.0
C117 C 0.57333 0.9594 0.53085 0.0
C118 C 0.64631 0.99995 0.51046 0.0
C119 C 0.69517 0.91695 0.49513 0.0
H120 H 0.91263 0.0573 0.44374 0.0
H121 H 0.83993 0.04406 0.46203 0.0
H122 H 0.74944 0.89493 0.487 0.0
H123 H 0.53553 0.87702 0.53135 0.0
H124 H 0.59281 0.87096 0.50906 0.0
H125 H 0.67957 0.00864 0.47412 0.0
C126 C 0.83999 0.01124 0.45617 0.0
C127 C 0.73387 0.91936 0.48395 0.0
C128 C 0.88177 0.01878 0.44579 0.0
C129 C 0.56621 0.91164 0.52559 0.0
C130 C 0.59915 0.90818 0.5129 0.0
C131 C 0.69441 0.98356 0.47713 0.0
C132 C 0.79881 0.96201 0.459 0.0
C133 C 0.75414 0.95502 0.46964 0.0
C134 C 0.63959 0.9524 0.50521 0.0
C135 C 0.67591 0.94996 0.49211 0.0
H136 H 0.84252 0.89519 0.43494 0.0
H137 H 0.76938 0.88193 0.45345 0.0
H138 H 0.74736 0.01331 0.45491 0.0
H139 H 0.62052 0.04087 0.52682 0.0
H140 H 0.67762 0.03485 0.50513 0.0
C141 C 0.85913 0.91874 0.77993 0.0
C142 C 0.88713 0.90149 0.76989 0.0
C143 C 0.81818 0.88517 0.79084 0.0
C144 C 0.72753 0.74778 0.79716 0.0
H145 H 0.70764 0.78918 0.84551 0.0
C146 C 0.60573 0.605 0.85256 0.0
C147 C 0.57458 0.61575 0.86378 0.0
C148 C 0.63898 0.64073 0.84003 0.0
C149 C 0.71219 0.77735 0.83191 0.0
H150 H 0.89474 0.83579 0.7636 0.0
H151 H 0.82392 0.77737 0.78289 0.0
H152 H 0.77678 0.85017 0.82611 0.0
H153 H 0.55319 0.6722 0.87038 0.0
H154 H 0.61209 0.73534 0.84838 0.0
H155 H 0.66376 0.67463 0.80316 0.0
C156 C 0.8329 0.81661 0.78207 0.0
C157 C 0.75185 0.81224 0.8208 0.0
C158 C 0.87375 0.85015 0.77113 0.0
C159 C 0.57665 0.66281 0.86189 0.0
C160 C 0.61053 0.699 0.8494 0.0
C161 C 0.68807 0.71293 0.80828 0.0
C162 C 0.80437 0.83362 0.79197 0.0
C163 C 0.76051 0.7976 0.80341 0.0
C164 C 0.64227 0.68835 0.83844 0.0
C165 C 0.68048 0.72705 0.8259 0.0
H166 H 0.86843 0.9581 0.77919 0.0
H167 H 0.79677 0.89945 0.79813 0.0
H168 H 0.73233 0.73556 0.78368 0.0
H169 H 0.60499 0.56904 0.85362 0.0
H170 H 0.66333 0.63157 0.83197 0.0
C171 C 0.03623 0.88117 0.10554 0.0
C172 C 0.99785 0.89402 0.10441 0.0
C173 C 0.02945 0.84024 0.1164 0.0
C174 C 0.9526 0.75799 0.15488 0.0
H175 H 0.99945 0.66841 0.13665 0.0
C176 C 0.91861 0.57838 0.19462 0.0
C177 C 0.96244 0.57431 0.19677 0.0
C178 C 0.91834 0.61351 0.18219 0.0
C179 C 0.98625 0.69317 0.14194 0.0
H180 H 0.92245 0.87439 0.11386 0.0
H181 H 0.91049 0.80298 0.13257 0.0
H182 H 0.00988 0.73924 0.11775 0.0
H183 H 0.03942 0.60206 0.18702 0.0
H184 H 0.03878 0.66264 0.16549 0.0
H185 H 0.92933 0.71201 0.17914 0.0
C186 C 0.94608 0.82473 0.12531 0.0
C187 C 0.99249 0.73391 0.13116 0.0
C188 C 0.95289 0.86559 0.11451 0.0
C189 C 0.00509 0.60444 0.18578 0.0
C190 C 0.00465 0.63897 0.1733 0.0
C191 C 0.94623 0.71711 0.16564 0.0
C192 C 0.98412 0.81134 0.12632 0.0
C193 C 0.9763 0.7672 0.13759 0.0
C194 C 0.96164 0.64454 0.17156 0.0
C195 C 0.9636 0.68466 0.15939 0.0
H196 H 0.07128 0.90241 0.09792 0.0
H197 H 0.05984 0.8314 0.11709 0.0
H198 H 0.94018 0.78318 0.16035 0.0
H199 H 0.88522 0.5557 0.20292 0.0
H200 H 0.8845 0.61676 0.18102 0.0
C201 C 0.16435 0.08304 0.44103 0.0
C202 C 0.12325 0.03378 0.43785 0.0
C203 C 0.20598 0.09029 0.45171 0.0
C204 C 0.27267 0.0235 0.46618 0.0
H205 H 0.32415 0.11814 0.50721 0.0
C206 C 0.39134 0.00432 0.52318 0.0
C207 C 0.43181 0.04803 0.53123 0.0
C208 C 0.35885 0.00827 0.51059 0.0
C209 C 0.31088 0.09224 0.49559 0.0
H210 H 0.09321 0.95367 0.44351 0.0
H211 H 0.16578 0.96629 0.46191 0.0
H212 H 0.25703 0.11489 0.48747 0.0
H213 H 0.47004 0.13041 0.53221 0.0
H214 H 0.41307 0.13735 0.50991 0.0
H215 H 0.32586 0.00046 0.47418 0.0
C216 C 0.166 0.99926 0.45613 0.0
C217 C 0.27239 0.09031 0.48434 0.0
C218 C 0.1243 0.99209 0.44569 0.0
C219 C 0.43923 0.096 0.52624 0.0
C220 C 0.40648 0.09996 0.51355 0.0
C221 C 0.31125 0.02568 0.47728 0.0
C222 C 0.20746 0.04833 0.45913 0.0
C223 C 0.25201 0.05491 0.46984 0.0
C224 C 0.3659 0.05603 0.50558 0.0
C225 C 0.32983 0.059 0.49244 0.0
H226 H 0.1645 0.11587 0.43517 0.0
H227 H 0.2375 0.12851 0.45381 0.0
H228 H 0.25839 0.99659 0.45486 0.0
H229 H 0.38421 0.96669 0.52673 0.0
H230 H 0.32743 0.97357 0.50504 0.0
C231 C 0.14517 0.08278 0.78048 0.0
C232 C 0.11616 0.09925 0.77063 0.0
C233 C 0.18477 0.11635 0.79204 0.0
C234 C 0.23001 0.23558 0.81803 0.0
H235 H 0.36101 0.24216 0.81757 0.0
C236 C 0.40222 0.39945 0.85312 0.0
C237 C 0.43378 0.38828 0.86394 0.0
C238 C 0.36581 0.36288 0.84145 0.0
C239 C 0.32446 0.24032 0.81801 0.0
H240 H 0.10593 0.1637 0.7651 0.0
H241 H 0.17493 0.22225 0.78528 0.0
H242 H 0.29182 0.18018 0.798 0.0
H243 H 0.4534 0.33053 0.8704 0.0
H244 H 0.38883 0.26581 0.84998 0.0
H245 H 0.26213 0.29534 0.83797 0.0
C246 C 0.16684 0.18331 0.7842 0.0
C247 C 0.28488 0.20488 0.80681 0.0
C248 C 0.12746 0.14985 0.77258 0.0
C249 C 0.42961 0.34021 0.86221 0.0
C250 C 0.3927 0.30324 0.85053 0.0
C251 C 0.26936 0.27074 0.82922 0.0
C252 C 0.19593 0.16694 0.79407 0.0
C253 C 0.23744 0.20267 0.80652 0.0
C254 C 0.35958 0.3139 0.84037 0.0
C255 C 0.31731 0.27415 0.82914 0.0
H256 H 0.13738 0.04397 0.77922 0.0
H257 H 0.2062 0.1025 0.79959 0.0
H258 H 0.1936 0.23406 0.81843 0.0
H259 H 0.40495 0.43639 0.85389 0.0
H260 H 0.34196 0.37286 0.83344 0.0
C261 C 0.86757 0.9874 0.69121 0.0
C262 C 0.91047 0.0289 0.69919 0.0
C263 C 0.83318 0.9949 0.68084 0.0
C264 C 0.81847 0.08679 0.65312 0.0
H265 H 0.67502 0.9972 0.66286 0.0
C266 C 0.65803 0.09437 0.61147 0.0
C267 C 0.6174 0.0466 0.60618 0.0
C268 C 0.69456 0.09783 0.62416 0.0
C269 C 0.7149 0.02237 0.65988 0.0
H270 H 0.95173 0.11097 0.70219 0.0
H271 H 0.8916 0.12417 0.68367 0.0
H272 H 0.73836 0.99258 0.68208 0.0
H273 H 0.5833 0.96512 0.61015 0.0
H274 H 0.64665 0.97115 0.63184 0.0
H275 H 0.79484 0.11536 0.63048 0.0
C276 C 0.88467 0.08585 0.6856 0.0
C277 C 0.75115 0.01974 0.67092 0.0
C278 C 0.91893 0.07828 0.69621 0.0
C279 C 0.61389 0.00261 0.61394 0.0
C280 C 0.65013 0.00606 0.62653 0.0
C281 C 0.78206 0.08918 0.64194 0.0
C282 C 0.84109 0.0441 0.67804 0.0
C283 C 0.80326 0.05105 0.6674 0.0
C284 C 0.69094 0.05361 0.63182 0.0
C285 C 0.72983 0.05606 0.64493 0.0
H286 H 0.86002 0.94889 0.69323 0.0
H287 H 0.80031 0.96207 0.67494 0.0
H288 H 0.85844 0.11131 0.6501 0.0
H289 H 0.66184 0.12899 0.60573 0.0
H290 H 0.72542 0.13506 0.62803 0.0
C291 C 0.92142 0.86649 0.02172 0.0
C292 C 0.90456 0.89405 0.03226 0.0
C293 C 0.8874 0.82549 0.01085 0.0
C294 C 0.75056 0.73244 0.00556 0.0
H295 H 0.78991 0.71253 0.95688 0.0
C296 C 0.60661 0.60221 0.95122 0.0
C297 C 0.61928 0.57306 0.93965 0.0
C298 C 0.64195 0.63678 0.9637 0.0
C299 C 0.77868 0.71706 0.97057 0.0
H300 H 0.83894 0.90079 0.03945 0.0
H301 H 0.77937 0.82946 0.02017 0.0
H302 H 0.85033 0.78409 0.97572 0.0
H303 H 0.67853 0.55617 0.93249 0.0
H304 H 0.74098 0.61733 0.9544 0.0
H305 H 0.67857 0.66596 0.00023 0.0
C306 C 0.81888 0.83912 0.02056 0.0
C307 C 0.81322 0.75817 0.98135 0.0
C308 C 0.85301 0.88023 0.03148 0.0
C309 C 0.66772 0.57809 0.94124 0.0
C310 C 0.70348 0.61328 0.95367 0.0
C311 C 0.71602 0.69145 0.99476 0.0
C312 C 0.83565 0.81106 0.01021 0.0
C313 C 0.79937 0.76667 0.9989 0.0
C314 C 0.69105 0.64338 0.96487 0.0
C315 C 0.72947 0.68367 0.97705 0.0
H316 H 0.96092 0.87607 0.02208 0.0
H317 H 0.90152 0.8044 0.00324 0.0
H318 H 0.73904 0.73723 0.01916 0.0
H319 H 0.56949 0.59905 0.95043 0.0
H320 H 0.63131 0.65972 0.97196 0.0
C321 C 0.97798 0.85679 0.36412 0.0
C322 C 0.01765 0.90715 0.36631 0.0
C323 C 0.98371 0.82338 0.35244 0.0
C324 C 0.07976 0.80097 0.33019 0.0
H325 H 0.96701 0.71242 0.29838 0.0
C326 C 0.08881 0.66577 0.2748 0.0
C327 C 0.04461 0.618 0.27286 0.0
C328 C 0.08901 0.70282 0.28645 0.0
C329 C 0.9987 0.73648 0.30731 0.0
H330 H 0.09456 0.96203 0.3581 0.0
H331 H 0.10451 0.90356 0.33765 0.0
H332 H 0.96015 0.77371 0.31798 0.0
H333 H 0.96719 0.57052 0.28246 0.0
H334 H 0.96795 0.63417 0.30284 0.0
H335 H 0.11809 0.76313 0.31956 0.0
C336 C 0.06911 0.88989 0.34504 0.0
C337 C 0.99474 0.77165 0.31854 0.0
C338 C 0.06326 0.92341 0.35665 0.0
C339 C 0.00165 0.60722 0.2834 0.0
C340 C 0.00194 0.64386 0.29502 0.0
C341 C 0.08369 0.76553 0.31896 0.0
C342 C 0.02932 0.83954 0.34277 0.0
C343 C 0.03491 0.80386 0.33028 0.0
C344 C 0.04507 0.69254 0.29635 0.0
C345 C 0.04285 0.73237 0.3076 0.0
H346 H 0.94248 0.8431 0.37144 0.0
H347 H 0.95258 0.78462 0.35117 0.0
H348 H 0.11128 0.82513 0.33918 0.0
H349 H 0.12247 0.67516 0.26684 0.0
H350 H 0.12286 0.74 0.28718 0.0
C351 C 0.08586 0.92307 0.69603 0.0
C352 C 0.09412 0.97236 0.69921 0.0
C353 C 0.12012 0.91577 0.68537 0.0
C354 C 0.25347 0.98239 0.67095 0.0
H355 H 0.20984 0.8879 0.62988 0.0
C356 C 0.39067 0.00162 0.61395 0.0
C357 C 0.3873 0.95792 0.60587 0.0
C358 C 0.35441 0.99766 0.62655 0.0
C359 C 0.2226 0.91376 0.64151 0.0
H360 H 0.14425 0.05246 0.69358 0.0
H361 H 0.20399 0.03975 0.67522 0.0
H362 H 0.1462 0.8912 0.64961 0.0
H363 H 0.34307 0.87555 0.60485 0.0
H364 H 0.27945 0.86859 0.62716 0.0
H365 H 0.32961 0.00535 0.66298 0.0
C366 C 0.17125 0.0068 0.68098 0.0
C367 C 0.18617 0.91572 0.65276 0.0
C368 C 0.13685 0.01403 0.6914 0.0
C369 C 0.34677 0.90994 0.61084 0.0
C370 C 0.31022 0.90597 0.62354 0.0
C371 C 0.28974 0.98018 0.65986 0.0
C372 C 0.16353 0.9577 0.67797 0.0
C373 C 0.20136 0.95107 0.66727 0.0
C374 C 0.31372 0.9499 0.63154 0.0
C375 C 0.27483 0.94692 0.64468 0.0
H376 H 0.05318 0.89026 0.70187 0.0
H377 H 0.11333 0.87754 0.68326 0.0
H378 H 0.26623 0.00926 0.68229 0.0
H379 H 0.42117 0.03925 0.61042 0.0
H380 H 0.35778 0.03236 0.63212 0.0
C381 C 0.16015 0.12643 0.03164 0.0
C382 C 0.10914 0.11432 0.03274 0.0
C383 C 0.19454 0.16696 0.02072 0.0
C384 C 0.20059 0.24913 0.98201 0.0
H385 H 0.33773 0.33743 4e-05 0.0
C386 C 0.34691 0.42779 0.94213 0.0
C387 C 0.39457 0.43137 0.93994 0.0
C388 C 0.31149 0.39282 0.95455 0.0
C389 C 0.29957 0.31302 0.99481 0.0
H390 H 0.05404 0.13489 0.0232 0.0
H391 H 0.11392 0.20563 0.00439 0.0
H392 H 0.27706 0.26729 0.01908 0.0
H393 H 0.4433 0.40279 0.9496 0.0
H394 H 0.38202 0.34245 0.97112 0.0
H395 H 0.22335 0.2948 0.95768 0.0
C396 C 0.12738 0.18358 0.01171 0.0
C397 C 0.2649 0.27266 0.00567 0.0
C398 C 0.09309 0.14311 0.02257 0.0
C399 C 0.4068 0.40081 0.95087 0.0
C400 C 0.3718 0.36643 0.96334 0.0
C401 C 0.23525 0.28962 0.97118 0.0
C402 C 0.17859 0.1962 0.0107 0.0
C403 C 0.21515 0.23986 0.99932 0.0
C404 C 0.32348 0.36142 0.96513 0.0
C405 C 0.2853 0.32161 0.97736 0.0
H406 H 0.17358 0.10487 0.03932 0.0
H407 H 0.23357 0.17519 0.02003 0.0
H408 H 0.16276 0.22428 0.97661 0.0
H409 H 0.33643 0.45081 0.93388 0.0
H410 H 0.27462 0.39001 0.95576 0.0
C411 C 0.94108 0.08758 0.35712 0.0
C412 C 0.98642 0.10485 0.36718 0.0
C413 C 0.93353 0.12113 0.34622 0.0
C414 C 0.98 0.2585 0.33993 0.0
H415 H 0.91838 0.21711 0.29155 0.0
C416 C 1.00034 0.40127 0.28452 0.0
C417 C 0.9584 0.39043 0.27325 0.0
C418 C 0.99798 0.36557 0.29708 0.0
C419 C 0.93485 0.22894 0.30516 0.0
H420 H 0.05971 0.17061 0.37351 0.0
H421 H 0.04703 0.22902 0.35424 0.0
H422 H 0.9268 0.15616 0.31096 0.0
H423 H 0.88059 0.33385 0.26658 0.0
H424 H 0.87655 0.27078 0.28861 0.0
H425 H 0.98918 0.3316 0.33394 0.0
C426 C 0.01682 0.18976 0.35503 0.0
C427 C 0.93978 0.19407 0.31627 0.0
C428 C 0.0243 0.15622 0.36596 0.0
C429 C 0.91347 0.34331 0.27511 0.0
C430 C 0.91128 0.30716 0.28762 0.0
C431 C 0.97522 0.29333 0.32881 0.0
C432 C 0.97121 0.17271 0.34512 0.0
C433 C 0.96319 0.20871 0.33368 0.0
C434 C 0.95372 0.31789 0.29863 0.0
C435 C 0.95339 0.27921 0.31118 0.0
H436 H 0.91107 0.04819 0.35784 0.0
H437 H 0.89778 0.10683 0.33892 0.0
H438 H 0.99711 0.27071 0.35342 0.0
H439 H 0.03551 0.43727 0.28349 0.0
H440 H 0.03153 0.3748 0.30518 0.0
loop_
_geom_bond_atom_site_label_1
_geom_bond_atom_site_label_2
_geom_bond_distance
_geom_bond_site_symmetry_2
_ccdc_geom_bond_type
In0 O1 2.294 1_455 S
In0 O2 2.326 . S
In0 O6 2.266 1_445 S
In0 O7 2.326 1_445 S
In0 O8 2.266 1_545 S
In0 O9 2.326 1_445 S
In0 O11 2.294 . S
In0 O12 2.326 . S
O1 In0 2.294 1_655 S
O1 C10 1.240 1_655 S
O2 In0 2.326 . S
O2 C10 1.252 . S
C3 O6 1.252 . S
C3 O7 1.260 . S
C4 O11 1.240 . S
C4 O12 1.252 . S
C5 O8 1.250 1_655 S
C5 O9 1.264 . S
O6 In0 2.266 1_665 S
O6 C3 1.252 . S
O7 In0 2.326 1_665 S
O7 C3 1.260 . S
O8 In0 2.266 1_565 S
O8 C5 1.250 1_455 S
O9 In0 2.326 1_665 S
O9 C5 1.264 . S
C10 O1 1.240 1_455 S
C10 O2 1.252 . S
O11 In0 2.294 . S
O11 C4 1.240 . S
O12 In0 2.326 . S
O12 C4 1.252 . S
In13 O14 2.294 . S
In13 O15 2.326 1_455 S
In13 O19 2.266 . S
In13 O20 2.326 1_545 S
In13 O21 2.266 1_445 S
In13 O22 2.326 1_545 S
In13 O24 2.294 1_445 S
In13 O25 2.326 1_455 S
O14 In13 2.294 . S
O14 C23 1.240 1_455 S
O15 In13 2.326 1_655 S
O15 C23 1.252 . S
C16 O19 1.243 1_565 S
C16 O20 1.264 . S
C17 O24 1.240 1_545 S
C17 O25 1.252 . S
C18 O21 1.252 1_455 S
C18 O22 1.260 . S
O19 In13 2.266 . S
O19 C16 1.243 1_545 S
O20 In13 2.326 1_565 S
O20 C16 1.264 . S
O21 In13 2.266 1_665 S
O21 C18 1.252 1_655 S
O22 In13 2.326 1_565 S
O22 C18 1.260 . S
C23 O14 1.240 1_655 S
C23 O15 1.252 . S
O24 In13 2.294 1_665 S
O24 C17 1.240 1_565 S
O25 In13 2.326 1_655 S
O25 C17 1.252 . S
In26 O27 2.273 1_445 S
In26 O28 2.329 1_445 S
In26 O32 2.246 1_545 S
In26 O33 2.329 . S
In26 O34 2.287 . S
In26 O35 2.322 . S
In26 O37 2.315 1_455 S
In26 O38 2.324 1_445 S
O27 In26 2.273 1_665 S
O27 C36 1.240 . S
O28 In26 2.329 1_665 S
O28 C36 1.252 . S
C29 O32 1.252 1_545 S
C29 O33 1.260 . S
C30 O37 1.240 1_565 S
C30 O38 1.252 . S
C31 O34 1.252 . S
C31 O35 1.260 . S
O32 In26 2.246 1_565 S
O32 C29 1.252 1_565 S
O33 In26 2.329 . S
O33 C29 1.260 . S
O34 In26 2.287 . S
O34 C31 1.252 . S
O35 In26 2.322 . S
O35 C31 1.260 . S
C36 O27 1.240 . S
C36 O28 1.252 . S
O37 In26 2.315 1_655 S
O37 C30 1.240 1_545 S
O38 In26 2.324 1_665 S
O38 C30 1.252 . S
C39 O41 1.247 . S
C39 O43 1.258 1_455 S
C40 O47 1.247 1_455 S
C40 O48 1.258 . S
O41 C39 1.247 . S
O41 Zn42 2.028 . S
Zn42 O41 2.028 . S
Zn42 O46 2.035 . S
Zn42 O48 2.035 . S
Zn42 O49 2.028 . S
O43 C39 1.258 1_655 S
O43 Zn44 2.035 . S
Zn44 O43 2.035 . S
Zn44 O45 2.028 . S
Zn44 O47 2.028 . S
Zn44 O50 2.035 . S
O45 Zn44 2.028 . S
O45 C51 1.247 1_655 S
O46 Zn42 2.035 . S
O46 C51 1.258 . S
O47 C40 1.247 1_655 S
O47 Zn44 2.028 . S
O48 C40 1.258 . S
O48 Zn42 2.035 . S
O49 Zn42 2.028 . S
O49 C52 1.247 . S
O50 Zn44 2.035 . S
O50 C52 1.258 1_655 S
C51 O45 1.247 1_455 S
C51 O46 1.258 . S
C52 O49 1.247 . S
C52 O50 1.258 1_455 S
C53 O55 1.247 1_545 S
C53 O57 1.258 . S
C54 O61 1.247 . S
C54 O62 1.258 1_545 S
O55 C53 1.247 1_565 S
O55 Zn56 2.028 . S
Zn56 O55 2.028 . S
Zn56 O60 2.035 . S
Zn56 O62 2.035 . S
Zn56 O63 2.028 . S
O57 C53 1.258 . S
O57 Zn58 2.035 . S
Zn58 O57 2.035 . S
Zn58 O59 2.028 . S
Zn58 O61 2.028 . S
Zn58 O64 2.035 . S
O59 Zn58 2.028 . S
O59 C65 1.247 . S
O60 Zn56 2.035 . S
O60 C65 1.258 1_565 S
O61 C54 1.247 . S
O61 Zn58 2.028 . S
O62 C54 1.258 1_565 S
O62 Zn56 2.035 . S
O63 Zn56 2.028 . S
O63 C66 1.247 1_565 S
O64 Zn58 2.035 . S
O64 C66 1.258 . S
C65 O59 1.247 . S
C65 O60 1.258 1_545 S
C66 O63 1.247 1_545 S
C66 O64 1.258 . S
C67 O69 1.247 . S
C67 O71 1.258 . S
C68 O75 1.247 . S
C68 O76 1.258 . S
O69 C67 1.247 . S
O69 Zn70 2.028 . S
Zn70 O69 2.028 . S
Zn70 O74 2.035 . S
Zn70 O76 2.035 . S
Zn70 O77 2.028 . S
O71 C67 1.258 . S
O71 Zn72 2.035 . S
Zn72 O71 2.035 . S
Zn72 O73 2.028 . S
Zn72 O75 2.028 . S
Zn72 O78 2.035 . S
O73 Zn72 2.028 . S
O73 C79 1.247 . S
O74 Zn70 2.035 . S
O74 C79 1.258 . S
O75 C68 1.247 . S
O75 Zn72 2.028 . S
O76 C68 1.258 . S
O76 Zn70 2.035 . S
O77 Zn70 2.028 . S
O77 C80 1.247 . S
O78 Zn72 2.035 . S
O78 C80 1.258 . S
C79 O73 1.247 . S
C79 O74 1.258 . S
C80 O77 1.247 . S
C80 O78 1.258 . S
C81 C82 1.349 1_655 S
C81 C83 1.327 . S
C81 H106 0.950 . S
C82 C81 1.349 1_455 S
C82 C98 1.349 . S
C83 C81 1.327 . S
C83 C102 1.429 1_655 S
C83 H107 0.950 . S
C84 C101 1.574 . S
C84 C103 1.368 . S
C84 H108 0.949 . S
H85 C89 0.949 . S
C86 C87 1.349 . S
C86 C88 1.327 . S
C86 H109 0.950 . S
C87 C86 1.349 . S
C87 C99 1.349 1_455 S
C88 C86 1.327 . S
C88 C104 1.429 . S
C88 H110 0.950 . S
C89 H85 0.949 . S
C89 C97 1.574 . S
C89 C105 1.368 1_655 S
H90 C98 0.950 . S
H91 C96 0.950 . S
H92 C97 0.949 . S
H93 C99 0.950 . S
H94 C100 0.950 . S
H95 C101 0.949 . S
C96 H91 0.950 . S
C96 C98 1.327 . S
C96 C102 1.429 . S
C97 C89 1.574 . S
C97 H92 0.949 . S
C97 C103 1.368 1_655 S
C98 C82 1.349 . S
C98 H90 0.950 . S
C98 C96 1.327 . S
C99 C87 1.349 1_655 S
C99 H93 0.950 . S
C99 C100 1.327 . S
C100 H94 0.950 . S
C100 C99 1.327 . S
C100 C104 1.429 1_655 S
C101 C84 1.574 . S
C101 H95 0.949 . S
C101 C105 1.368 . S
C102 C83 1.429 1_455 S
C102 C96 1.429 . S
C102 C103 1.523 . S
C103 C84 1.368 . S
C103 C97 1.368 1_455 S
C103 C102 1.523 . S
C104 C88 1.429 . S
C104 C100 1.429 1_455 S
C104 C105 1.523 . S
C105 C89 1.368 1_455 S
C105 C101 1.368 . S
C105 C104 1.523 . S
H106 C81 0.950 . S
H107 C83 0.950 . S
H108 C84 0.949 . S
H109 C86 0.950 . S
H110 C88 0.950 . S
C111 C112 1.349 1_565 S
C111 C113 1.327 . S
C111 H136 0.950 . S
C112 C111 1.349 1_545 S
C112 C128 1.349 . S
C113 C111 1.327 . S
C113 C132 1.429 1_565 S
C113 H137 0.950 . S
C114 C131 1.574 . S
C114 C133 1.368 . S
C114 H138 0.949 . S
H115 C119 0.949 . S
C116 C117 1.349 . S
C116 C118 1.327 . S
C116 H139 0.950 . S
C117 C116 1.349 . S
C117 C129 1.349 1_545 S
C118 C116 1.327 . S
C118 C134 1.429 . S
C118 H140 0.950 . S
C119 H115 0.949 . S
C119 C127 1.574 . S
C119 C135 1.368 1_565 S
H120 C128 0.950 . S
H121 C126 0.950 . S
H122 C127 0.949 . S
H123 C129 0.950 . S
H124 C130 0.950 . S
H125 C131 0.949 . S
C126 H121 0.950 . S
C126 C128 1.327 . S
C126 C132 1.429 . S
C127 C119 1.574 . S
C127 H122 0.949 . S
C127 C133 1.368 1_565 S
C128 C112 1.349 . S
C128 H120 0.950 . S
C128 C126 1.327 . S
C129 C117 1.349 1_565 S
C129 H123 0.950 . S
C129 C130 1.327 . S
C130 H124 0.950 . S
C130 C129 1.327 . S
C130 C134 1.429 1_565 S
C131 C114 1.574 . S
C131 H125 0.949 . S
C131 C135 1.368 . S
C132 C113 1.429 1_545 S
C132 C126 1.429 . S
C132 C133 1.523 . S
C133 C114 1.368 . S
C133 C127 1.368 1_545 S
C133 C132 1.523 . S
C134 C118 1.429 . S
C134 C130 1.429 1_545 S
C134 C135 1.523 . S
C135 C119 1.368 1_545 S
C135 C131 1.368 . S
C135 C134 1.523 . S
H136 C111 0.950 . S
H137 C113 0.950 . S
H138 C114 0.949 . S
H139 C116 0.950 . S
H140 C118 0.950 . S
C141 C142 1.349 . S
C141 C143 1.327 . S
C141 H166 0.950 . S
C142 C141 1.349 . S
C142 C158 1.349 . S
C143 C141 1.327 . S
C143 C162 1.429 . S
C143 H167 0.950 . S
C144 C161 1.574 . S
C144 C163 1.368 . S
C144 H168 0.949 . S
H145 C149 0.949 . S
C146 C147 1.349 . S
C146 C148 1.327 . S
C146 H169 0.950 . S
C147 C146 1.349 . S
C147 C159 1.349 . S
C148 C146 1.327 . S
C148 C164 1.429 . S
C148 H170 0.950 . S
C149 H145 0.949 . S
C149 C157 1.574 . S
C149 C165 1.368 . S
H150 C158 0.950 . S
H151 C156 0.950 . S
H152 C157 0.949 . S
H153 C159 0.950 . S
H154 C160 0.950 . S
H155 C161 0.949 . S
C156 H151 0.950 . S
C156 C158 1.327 . S
C156 C162 1.429 . S
C157 C149 1.574 . S
C157 H152 0.949 . S
C157 C163 1.368 . S
C158 C142 1.349 . S
C158 H150 0.950 . S
C158 C156 1.327 . S
C159 C147 1.349 . S
C159 H153 0.950 . S
C159 C160 1.327 . S
C160 H154 0.950 . S
C160 C159 1.327 . S
C160 C164 1.429 . S
C161 C144 1.574 . S
C161 H155 0.949 . S
C161 C165 1.368 . S
C162 C143 1.429 . S
C162 C156 1.429 . S
C162 C163 1.523 . S
C163 C144 1.368 . S
C163 C157 1.368 . S
C163 C162 1.523 . S
C164 C148 1.429 . S
C164 C160 1.429 . S
C164 C165 1.523 . S
C165 C149 1.368 . S
C165 C161 1.368 . S
C165 C164 1.523 . S
H166 C141 0.950 . S
H167 C143 0.950 . S
H168 C144 0.949 . S
H169 C146 0.950 . S
H170 C148 0.950 . S
C171 C172 1.350 . S
C171 C173 1.327 . S
C171 H196 0.950 . S
C172 C171 1.350 . S
C172 C188 1.349 1_455 S
C173 C171 1.327 . S
C173 C192 1.435 . S
C173 H197 0.950 . S
C174 C191 1.574 . S
C174 C193 1.368 1_655 S
C174 H198 0.949 . S
H175 C179 0.949 . S
C176 C177 1.349 1_655 S
C176 C178 1.327 . S
C176 H199 0.950 . S
C177 C176 1.349 1_455 S
C177 C189 1.349 . S
C178 C176 1.327 . S
C178 C194 1.429 1_655 S
C178 H200 0.950 . S
C179 H175 0.949 . S
C179 C187 1.574 . S
C179 C195 1.368 . S
H180 C188 0.950 . S
H181 C186 0.950 . S
H182 C187 0.949 . S
H183 C189 0.950 . S
H184 C190 0.950 . S
H185 C191 0.949 . S
C186 H181 0.950 . S
C186 C188 1.327 . S
C186 C192 1.412 1_655 S
C187 C179 1.574 . S
C187 H182 0.949 . S
C187 C193 1.368 . S
C188 C172 1.349 1_655 S
C188 H180 0.950 . S
C188 C186 1.327 . S
C189 C177 1.349 . S
C189 H183 0.950 . S
C189 C190 1.327 . S
C190 H184 0.950 . S
C190 C189 1.327 . S
C190 C194 1.429 . S
C191 C174 1.574 . S
C191 H185 0.949 . S
C191 C195 1.368 1_655 S
C192 C173 1.435 . S
C192 C186 1.412 1_455 S
C192 C193 1.533 . S
C193 C174 1.368 1_455 S
C193 C187 1.368 . S
C193 C192 1.533 . S
C194 C178 1.429 1_455 S
C194 C190 1.429 . S
C194 C195 1.523 . S
C195 C179 1.368 . S
C195 C191 1.368 1_455 S
C195 C194 1.523 . S
H196 C171 0.950 . S
H197 C173 0.950 . S
H198 C174 0.949 . S
H199 C176 0.950 . S
H200 C178 0.950 . S
C201 C202 1.348 1_545 S
C201 C203 1.327 . S
C201 H226 0.950 . S
C202 C201 1.348 1_565 S
C202 C218 1.350 . S
C203 C201 1.327 . S
C203 C222 1.444 . S
C203 H227 0.950 . S
C204 C221 1.574 . S
C204 C223 1.368 1_565 S
C204 H228 0.949 . S
H205 C209 0.949 . S
C206 C207 1.349 1_565 S
C206 C208 1.327 . S
C206 H229 0.950 . S
C207 C206 1.349 1_545 S
C207 C219 1.349 . S
C208 C206 1.327 . S
C208 C224 1.429 1_565 S
C208 H230 0.950 . S
C209 H205 0.949 . S
C209 C217 1.574 . S
C209 C225 1.368 . S
H210 C218 0.950 . S
H211 C216 0.950 . S
H212 C217 0.949 . S
H213 C219 0.950 . S
H214 C220 0.950 . S
H215 C221 0.949 . S
C216 H211 0.950 . S
C216 C218 1.327 . S
C216 C222 1.420 1_565 S
C217 C209 1.574 . S
C217 H212 0.949 . S
C217 C223 1.368 . S
C218 C202 1.350 . S
C218 H210 0.950 . S
C218 C216 1.327 . S
C219 C207 1.349 . S
C219 H213 0.950 . S
C219 C220 1.327 . S
C220 H214 0.950 . S
C220 C219 1.327 . S
C220 C224 1.429 . S
C221 C204 1.574 . S
C221 H215 0.949 . S
C221 C225 1.368 1_565 S
C222 C203 1.444 . S
C222 C216 1.420 1_545 S
C222 C223 1.517 . S
C223 C204 1.368 1_545 S
C223 C217 1.368 . S
C223 C222 1.517 . S
C224 C208 1.429 1_545 S
C224 C220 1.429 . S
C224 C225 1.523 . S
C225 C209 1.368 . S
C225 C221 1.368 1_545 S
C225 C224 1.523 . S
H226 C201 0.950 . S
H227 C203 0.950 . S
H228 C204 0.949 . S
H229 C206 0.950 . S
H230 C208 0.950 . S
C231 C232 1.349 . S
C231 C233 1.327 . S
C231 H256 0.950 . S
C232 C231 1.349 . S
C232 C248 1.349 . S
C233 C231 1.327 . S
C233 C252 1.429 . S
C233 H257 0.950 . S
C234 C251 1.574 . S
C234 C253 1.368 . S
C234 H258 0.949 . S
H235 C239 0.949 . S
C236 C237 1.349 . S
C236 C238 1.327 . S
C236 H259 0.950 . S
C237 C236 1.349 . S
C237 C249 1.349 . S
C238 C236 1.327 . S
C238 C254 1.429 . S
C238 H260 0.950 . S
C239 H235 0.949 . S
C239 C247 1.574 . S
C239 C255 1.368 . S
H240 C248 0.950 . S
H241 C246 0.950 . S
H242 C247 0.949 . S
H243 C249 0.950 . S
H244 C250 0.950 . S
H245 C251 0.949 . S
C246 H241 0.950 . S
C246 C248 1.327 . S
C246 C252 1.429 . S
C247 C239 1.574 . S
C247 H242 0.949 . S
C247 C253 1.368 . S
C248 C232 1.349 . S
C248 H240 0.950 . S
C248 C246 1.327 . S
C249 C237 1.349 . S
C249 H243 0.950 . S
C249 C250 1.327 . S
C250 H244 0.950 . S
C250 C249 1.327 . S
C250 C254 1.429 . S
C251 C234 1.574 . S
C251 H245 0.949 . S
C251 C255 1.368 . S
C252 C233 1.429 . S
C252 C246 1.429 . S
C252 C253 1.523 . S
C253 C234 1.368 . S
C253 C247 1.368 . S
C253 C252 1.523 . S
C254 C238 1.429 . S
C254 C250 1.429 . S
C254 C255 1.523 . S
C255 C239 1.368 . S
C255 C251 1.368 . S
C255 C254 1.523 . S
H256 C231 0.950 . S
H257 C233 0.950 . S
H258 C234 0.949 . S
H259 C236 0.950 . S
H260 C238 0.950 . S
C261 C262 1.349 . S
C261 C263 1.327 . S
C261 H286 0.950 . S
C262 C261 1.349 . S
C262 C278 1.349 1_565 S
C263 C261 1.327 . S
C263 C282 1.429 . S
C263 H287 0.950 . S
C264 C281 1.574 . S
C264 C283 1.368 1_545 S
C264 H288 0.949 . S
H265 C269 0.949 . S
C266 C267 1.349 . S
C266 C268 1.327 . S
C266 H289 0.950 . S
C267 C266 1.349 . S
C267 C279 1.349 1_545 S
C268 C266 1.327 . S
C268 C284 1.444 . S
C268 H290 0.950 . S
C269 H265 0.949 . S
C269 C277 1.574 . S
C269 C285 1.366 1_565 S
H270 C278 0.950 . S
H271 C276 0.950 . S
H272 C277 0.949 . S
H273 C279 0.950 . S
H274 C280 0.950 . S
H275 C281 0.949 . S
C276 H271 0.950 . S
C276 C278 1.327 . S
C276 C282 1.429 1_545 S
C277 C269 1.574 . S
C277 H272 0.949 . S
C277 C283 1.368 . S
C278 C262 1.349 1_545 S
C278 H270 0.950 . S
C278 C276 1.327 . S
C279 C267 1.349 1_565 S
C279 H273 0.950 . S
C279 C280 1.327 . S
C280 H274 0.950 . S
C280 C279 1.327 . S
C280 C284 1.424 1_565 S
C281 C264 1.574 . S
C281 H275 0.949 . S
C281 C285 1.369 . S
C282 C263 1.429 . S
C282 C276 1.429 1_565 S
C282 C283 1.523 . S
C283 C264 1.368 1_565 S
C283 C277 1.368 . S
C283 C282 1.523 . S
C284 C268 1.444 . S
C284 C280 1.424 1_545 S
C284 C285 1.514 . S
C285 C269 1.366 1_545 S
C285 C281 1.369 . S
C285 C284 1.514 . S
H286 C261 0.950 . S
H287 C263 0.950 . S
H288 C264 0.949 . S
H289 C266 0.950 . S
H290 C268 0.950 . S
C291 C292 1.349 . S
C291 C293 1.327 . S
C291 H316 0.950 . S
C292 C291 1.349 . S
C292 C308 1.349 . S
C293 C291 1.327 . S
C293 C312 1.429 . S
C293 H317 0.950 1_554 S
C294 C311 1.574 1_554 S
C294 C313 1.368 1_554 S
C294 H318 0.949 . S
H295 C299 0.949 . S
C296 C297 1.349 . S
C296 C298 1.327 . S
C296 H319 0.950 . S
C297 C296 1.349 . S
C297 C309 1.349 . S
C298 C296 1.327 . S
C298 C314 1.429 . S
C298 H320 0.950 . S
C299 H295 0.949 . S
C299 C307 1.574 . S
C299 C315 1.368 . S
H300 C308 0.950 . S
H301 C306 0.950 . S
H302 C307 0.949 . S
H303 C309 0.950 . S
H304 C310 0.950 . S
H305 C311 0.949 . S
C306 H301 0.950 . S
C306 C308 1.327 . S
C306 C312 1.429 . S
C307 C299 1.574 . S
C307 H302 0.949 . S
C307 C313 1.368 . S
C308 C292 1.349 . S
C308 H300 0.950 . S
C308 C306 1.327 . S
C309 C297 1.349 . S
C309 H303 0.950 . S
C309 C310 1.327 . S
C310 H304 0.950 . S
C310 C309 1.327 . S
C310 C314 1.429 . S
C311 C294 1.574 1_556 S
C311 H305 0.949 . S
C311 C315 1.368 . S
C312 C293 1.429 . S
C312 C306 1.429 . S
C312 C313 1.523 1_554 S
C313 C294 1.368 1_556 S
C313 C307 1.368 . S
C313 C312 1.523 1_556 S
C314 C298 1.429 . S
C314 C310 1.429 . S
C314 C315 1.523 . S
C315 C299 1.368 . S
C315 C311 1.368 . S
C315 C314 1.523 . S
H316 C291 0.950 . S
H317 C293 0.950 1_556 S
H318 C294 0.949 . S
H319 C296 0.950 . S
H320 C298 0.950 . S
C321 C322 1.349 1_655 S
C321 C323 1.327 . S
C321 H346 0.950 . S
C322 C321 1.349 1_455 S
C322 C338 1.349 . S
C323 C321 1.327 . S
C323 C342 1.429 1_655 S
C323 H347 0.950 . S
C324 C341 1.574 . S
C324 C343 1.368 . S
C324 H348 0.949 . S
H325 C329 0.949 . S
C326 C327 1.349 . S
C326 C328 1.327 . S
C326 H349 0.950 . S
C327 C326 1.349 . S
C327 C339 1.349 1_455 S
C328 C326 1.327 . S
C328 C344 1.429 . S
C328 H350 0.950 . S
C329 H325 0.949 . S
C329 C337 1.574 . S
C329 C345 1.368 1_655 S
H330 C338 0.950 . S
H331 C336 0.950 . S
H332 C337 0.949 . S
H333 C339 0.950 . S
H334 C340 0.950 . S
H335 C341 0.949 . S
C336 H331 0.950 . S
C336 C338 1.327 . S
C336 C342 1.429 . S
C337 C329 1.574 . S
C337 H332 0.949 . S
C337 C343 1.368 1_655 S
C338 C322 1.349 . S
C338 H330 0.950 . S
C338 C336 1.327 . S
C339 C327 1.349 1_655 S
C339 H333 0.950 . S
C339 C340 1.327 . S
C340 H334 0.950 . S
C340 C339 1.327 . S
C340 C344 1.429 1_655 S
C341 C324 1.574 . S
C341 H335 0.949 . S
C341 C345 1.368 . S
C342 C323 1.429 1_455 S
C342 C336 1.429 . S
C342 C343 1.523 . S
C343 C324 1.368 . S
C343 C337 1.368 1_455 S
C343 C342 1.523 . S
C344 C328 1.429 . S
C344 C340 1.429 1_455 S
C344 C345 1.523 . S
C345 C329 1.368 1_455 S
C345 C341 1.368 . S
C345 C344 1.523 . S
H346 C321 0.950 . S
H347 C323 0.950 . S
H348 C324 0.949 . S
H349 C326 0.950 . S
H350 C328 0.950 . S
C351 C352 1.349 1_565 S
C351 C353 1.327 . S
C351 H376 0.950 . S
C352 C351 1.349 1_545 S
C352 C368 1.349 . S
C353 C351 1.327 . S
C353 C372 1.429 1_565 S
C353 H377 0.950 . S
C354 C371 1.574 . S
C354 C373 1.368 . S
C354 H378 0.949 . S
H355 C359 0.949 . S
C356 C357 1.349 . S
C356 C358 1.327 . S
C356 H379 0.950 . S
C357 C356 1.349 . S
C357 C369 1.349 1_545 S
C358 C356 1.327 . S
C358 C374 1.429 . S
C358 H380 0.950 . S
C359 H355 0.949 . S
C359 C367 1.574 . S
C359 C375 1.368 1_565 S
H360 C368 0.950 . S
H361 C366 0.950 . S
H362 C367 0.949 . S
H363 C369 0.950 . S
H364 C370 0.950 . S
H365 C371 0.949 . S
C366 H361 0.950 . S
C366 C368 1.327 . S
C366 C372 1.429 . S
C367 C359 1.574 . S
C367 H362 0.949 . S
C367 C373 1.368 1_565 S
C368 C352 1.349 . S
C368 H360 0.950 . S
C368 C366 1.327 . S
C369 C357 1.349 1_565 S
C369 H363 0.950 . S
C369 C370 1.327 . S
C370 H364 0.950 . S
C370 C369 1.327 . S
C370 C374 1.429 1_565 S
C371 C354 1.574 . S
C371 H365 0.949 . S
C371 C375 1.368 . S
C372 C353 1.429 1_545 S
C372 C366 1.429 . S
C372 C373 1.523 . S
C373 C354 1.368 . S
C373 C367 1.368 1_545 S
C373 C372 1.523 . S
C374 C358 1.429 . S
C374 C370 1.429 1_545 S
C374 C375 1.523 . S
C375 C359 1.368 1_545 S
C375 C371 1.368 . S
C375 C374 1.523 . S
H376 C351 0.950 . S
H377 C353 0.950 . S
H378 C354 0.949 . S
H379 C356 0.950 . S
H380 C358 0.950 . S
C381 C382 1.349 . S
C381 C383 1.327 . S
C381 H406 0.950 . S
C382 C381 1.349 . S
C382 C398 1.349 . S
C383 C381 1.327 . S
C383 C402 1.429 . S
C383 H407 0.950 . S
C384 C401 1.574 . S
C384 C403 1.368 . S
C384 H408 0.949 . S
H385 C389 0.949 . S
C386 C387 1.349 . S
C386 C388 1.327 . S
C386 H409 0.950 . S
C387 C386 1.349 . S
C387 C399 1.349 . S
C388 C386 1.327 . S
C388 C404 1.429 . S
C388 H410 0.950 . S
C389 H385 0.949 . S
C389 C397 1.574 1_556 S
C389 C405 1.368 . S
H390 C398 0.950 . S
H391 C396 0.950 1_556 S
H392 C397 0.949 . S
H393 C399 0.950 . S
H394 C400 0.950 . S
H395 C401 0.949 . S
C396 H391 0.950 1_554 S
C396 C398 1.327 . S
C396 C402 1.429 . S
C397 C389 1.574 1_554 S
C397 H392 0.949 . S
C397 C403 1.368 1_554 S
C398 C382 1.349 . S
C398 H390 0.950 . S
C398 C396 1.327 . S
C399 C387 1.349 . S
C399 H393 0.950 . S
C399 C400 1.327 . S
C400 H394 0.950 . S
C400 C399 1.327 . S
C400 C404 1.429 . S
C401 C384 1.574 . S
C401 H395 0.949 . S
C401 C405 1.368 . S
C402 C383 1.429 . S
C402 C396 1.429 . S
C402 C403 1.523 1_554 S
C403 C384 1.368 . S
C403 C397 1.368 1_556 S
C403 C402 1.523 1_556 S
C404 C388 1.429 . S
C404 C400 1.429 . S
C404 C405 1.523 . S
C405 C389 1.368 . S
C405 C401 1.368 . S
C405 C404 1.523 . S
H406 C381 0.950 . S
H407 C383 0.950 . S
H408 C384 0.949 . S
H409 C386 0.950 . S
H410 C388 0.950 . S
C411 C412 1.349 . S
C411 C413 1.327 . S
C411 H436 0.950 . S
C412 C411 1.349 . S
C412 C428 1.349 1_655 S
C413 C411 1.327 . S
C413 C432 1.429 . S
C413 H437 0.950 . S
C414 C431 1.574 . S
C414 C433 1.361 1_455 S
C414 H438 0.949 . S
H415 C419 0.949 . S
C416 C417 1.349 . S
C416 C418 1.327 . S
C416 H439 0.950 . S
C417 C416 1.349 . S
C417 C429 1.349 1_455 S
C418 C416 1.327 . S
C418 C434 1.429 . S
C418 H440 0.950 . S
C419 H415 0.949 . S
C419 C427 1.574 . S
C419 C435 1.360 1_655 S
H420 C428 0.950 . S
H421 C426 0.950 . S
H422 C427 0.949 . S
H423 C429 0.950 . S
H424 C430 0.950 . S
H425 C431 0.949 . S
C426 H421 0.950 . S
C426 C428 1.327 . S
C426 C432 1.429 1_455 S
C427 C419 1.574 . S
C427 H422 0.949 . S
C427 C433 1.380 . S
C428 C412 1.349 1_455 S
C428 H420 0.950 . S
C428 C426 1.327 . S
C429 C417 1.349 1_655 S
C429 H423 0.950 . S
C429 C430 1.327 . S
C430 H424 0.950 . S
C430 C429 1.327 . S
C430 C434 1.429 1_655 S
C431 C414 1.574 . S
C431 H425 0.949 . S
C431 C435 1.381 . S
C432 C413 1.429 . S
C432 C426 1.429 1_655 S
C432 C433 1.517 . S
C433 C414 1.361 1_655 S
C433 C427 1.380 . S
C433 C432 1.517 . S
C434 C418 1.429 . S
C434 C430 1.429 1_455 S
C434 C435 1.517 . S
C435 C419 1.360 1_455 S
C435 C431 1.381 . S
C435 C434 1.517 . S
H436 C411 0.950 . S
H437 C413 0.950 . S
H438 C414 0.949 . S
H439 C416 0.950 . S
H440 C418 0.950 . S
C87 C40 1.494 . S
C82 C10 1.495 . S
C112 C17 1.495 . S
C117 C66 1.495 . S
C142 C36 1.496 . S
C147 C68 1.495 . S
C172 C5 1.495 1_455 S
C177 C52 1.497 . S
C207 C54 1.497 . S
C202 C16 1.502 . S
C232 C31 1.497 . S
C237 C80 1.497 . S
C267 C53 1.495 . S
C262 C30 1.495 . S
C292 C3 1.496 . S
C297 C79 1.496 . S
C327 C39 1.497 . S
C322 C18 1.497 . S
C357 C65 1.497 . S
C352 C29 1.497 . S
C387 C67 1.495 . S
C382 C4 1.495 . S
C412 C23 1.495 . S
C417 C51 1.495 . S
