# Generated by pormake.
# Topology ibd, (4,6)-cn, num edge types: 1
# Building blocks:
#     Node 0, Type 0, BuildingBlock: QUQFOY_clean_sbu_3, # of connection points: 4
#     Node 1, Type 0, BuildingBlock: QUQFOY_clean_sbu_3, # of connection points: 4
#     Node 2, Type 0, BuildingBlock: QUQFOY_clean_sbu_3, # of connection points: 4
#     Node 3, Type 0, BuildingBlock: QUQFOY_clean_sbu_3, # of connection points: 4
#     Node 4, Type 0, BuildingBlock: QUQFOY_clean_sbu_3, # of connection points: 4
#     Node 5, Type 0, BuildingBlock: QUQFOY_clean_sbu_3, # of connection points: 4
#     Node 6, Type 0, BuildingBlock: QUQFOY_clean_sbu_3, # of connection points: 4
#     Node 7, Type 0, BuildingBlock: QUQFOY_clean_sbu_3, # of connection points: 4
#     Node 8, Type 0, BuildingBlock: QUQFOY_clean_sbu_3, # of connection points: 4
#     Node 9, Type 0, BuildingBlock: QUQFOY_clean_sbu_3, # of connection points: 4
#     Node 10, Type 0, BuildingBlock: QUQFOY_clean_sbu_3, # of connection points: 4
#     Node 11, Type 0, BuildingBlock: QUQFOY_clean_sbu_3, # of connection points: 4
#     Node 12, Type 0, BuildingBlock: QUQFOY_clean_sbu_3, # of connection points: 4
#     Node 13, Type 0, BuildingBlock: QUQFOY_clean_sbu_3, # of connection points: 4
#     Node 14, Type 0, BuildingBlock: QUQFOY_clean_sbu_3, # of connection points: 4
#     Node 15, Type 0, BuildingBlock: QUQFOY_clean_sbu_3, # of connection points: 4
#     Node 16, Type 0, BuildingBlock: QUQFOY_clean_sbu_3, # of connection points: 4
#     Node 17, Type 0, BuildingBlock: QUQFOY_clean_sbu_3, # of connection points: 4
#     Node 18, Type 0, BuildingBlock: QUQFOY_clean_sbu_3, # of connection points: 4
#     Node 19, Type 0, BuildingBlock: QUQFOY_clean_sbu_3, # of connection points: 4
#     Node 20, Type 0, BuildingBlock: QUQFOY_clean_sbu_3, # of connection points: 4
#     Node 21, Type 0, BuildingBlock: QUQFOY_clean_sbu_3, # of connection points: 4
#     Node 22, Type 0, BuildingBlock: QUQFOY_clean_sbu_3, # of connection points: 4
#     Node 23, Type 0, BuildingBlock: QUQFOY_clean_sbu_3, # of connection points: 4
#     Node 24, Type 1, BuildingBlock: IZENUY_clean_sbu_0, # of connection points: 6
#     Node 25, Type 1, BuildingBlock: IZENUY_clean_sbu_0, # of connection points: 6
#     Node 26, Type 1, BuildingBlock: IZENUY_clean_sbu_0, # of connection points: 6
#     Node 27, Type 1, BuildingBlock: IZENUY_clean_sbu_0, # of connection points: 6
#     Node 28, Type 1, BuildingBlock: IZENUY_clean_sbu_0, # of connection points: 6
#     Node 29, Type 1, BuildingBlock: IZENUY_clean_sbu_0, # of connection points: 6
#     Node 30, Type 1, BuildingBlock: IZENUY_clean_sbu_0, # of connection points: 6
#     Node 31, Type 1, BuildingBlock: IZENUY_clean_sbu_0, # of connection points: 6
#     Node 32, Type 1, BuildingBlock: IZENUY_clean_sbu_0, # of connection points: 6
#     Node 33, Type 1, BuildingBlock: IZENUY_clean_sbu_0, # of connection points: 6
#     Node 34, Type 1, BuildingBlock: IZENUY_clean_sbu_0, # of connection points: 6
#     Node 35, Type 1, BuildingBlock: IZENUY_clean_sbu_0, # of connection points: 6
#     Node 36, Type 1, BuildingBlock: IZENUY_clean_sbu_0, # of connection points: 6
#     Node 37, Type 1, BuildingBlock: IZENUY_clean_sbu_0, # of connection points: 6
#     Node 38, Type 1, BuildingBlock: IZENUY_clean_sbu_0, # of connection points: 6
#     Node 39, Type 1, BuildingBlock: IZENUY_clean_sbu_0, # of connection points: 6
#     Edge 40, Type (0, 1), BuildingBlock: MIFKUJ_clean_linker_0, # of connection points: 2
#     Edge 41, Type (0, 1), BuildingBlock: MIFKUJ_clean_linker_0, # of connection points: 2
#     Edge 42, Type (0, 1), BuildingBlock: MIFKUJ_clean_linker_0, # of connection points: 2
#     Edge 43, Type (0, 1), BuildingBlock: MIFKUJ_clean_linker_0, # of connection points: 2
#     Edge 44, Type (0, 1), BuildingBlock: MIFKUJ_clean_linker_0, # of connection points: 2
#     Edge 45, Type (0, 1), BuildingBlock: MIFKUJ_clean_linker_0, # of connection points: 2
#     Edge 46, Type (0, 1), BuildingBlock: MIFKUJ_clean_linker_0, # of connection points: 2
#     Edge 47, Type (0, 1), BuildingBlock: MIFKUJ_clean_linker_0, # of connection points: 2
#     Edge 48, Type (0, 1), BuildingBlock: MIFKUJ_clean_linker_0, # of connection points: 2
#     Edge 49, Type (0, 1), BuildingBlock: MIFKUJ_clean_linker_0, # of connection points: 2
#     Edge 50, Type (0, 1), BuildingBlock: MIFKUJ_clean_linker_0, # of connection points: 2
#     Edge 51, Type (0, 1), BuildingBlock: MIFKUJ_clean_linker_0, # of connection points: 2
#     Edge 52, Type (0, 1), BuildingBlock: MIFKUJ_clean_linker_0, # of connection points: 2
#     Edge 53, Type (0, 1), BuildingBlock: MIFKUJ_clean_linker_0, # of connection points: 2
#     Edge 54, Type (0, 1), BuildingBlock: MIFKUJ_clean_linker_0, # of connection points: 2
#     Edge 55, Type (0, 1), BuildingBlock: MIFKUJ_clean_linker_0, # of connection points: 2
#     Edge 56, Type (0, 1), BuildingBlock: MIFKUJ_clean_linker_0, # of connection points: 2
#     Edge 57, Type (0, 1), BuildingBlock: MIFKUJ_clean_linker_0, # of connection points: 2
#     Edge 58, Type (0, 1), BuildingBlock: MIFKUJ_clean_linker_0, # of connection points: 2
#     Edge 59, Type (0, 1), BuildingBlock: MIFKUJ_clean_linker_0, # of connection points: 2
#     Edge 60, Type (0, 1), BuildingBlock: MIFKUJ_clean_linker_0, # of connection points: 2
#     Edge 61, Type (0, 1), BuildingBlock: MIFKUJ_clean_linker_0, # of connection points: 2
#     Edge 62, Type (0, 1), BuildingBlock: MIFKUJ_clean_linker_0, # of connection points: 2
#     Edge 63, Type (0, 1), BuildingBlock: MIFKUJ_clean_linker_0, # of connection points: 2
#     Edge 64, Type (0, 1), BuildingBlock: MIFKUJ_clean_linker_0, # of connection points: 2
#     Edge 65, Type (0, 1), BuildingBlock: MIFKUJ_clean_linker_0, # of connection points: 2
#     Edge 66, Type (0, 1), BuildingBlock: MIFKUJ_clean_linker_0, # of connection points: 2
#     Edge 67, Type (0, 1), BuildingBlock: MIFKUJ_clean_linker_0, # of connection points: 2
#     Edge 68, Type (0, 1), BuildingBlock: MIFKUJ_clean_linker_0, # of connection points: 2
#     Edge 69, Type (0, 1), BuildingBlock: MIFKUJ_clean_linker_0, # of connection points: 2
#     Edge 70, Type (0, 1), BuildingBlock: MIFKUJ_clean_linker_0, # of connection points: 2
#     Edge 71, Type (0, 1), BuildingBlock: MIFKUJ_clean_linker_0, # of connection points: 2
#     Edge 72, Type (0, 1), BuildingBlock: MIFKUJ_clean_linker_0, # of connection points: 2
#     Edge 73, Type (0, 1), BuildingBlock: MIFKUJ_clean_linker_0, # of connection points: 2
#     Edge 74, Type (0, 1), BuildingBlock: MIFKUJ_clean_linker_0, # of connection points: 2
#     Edge 75, Type (0, 1), BuildingBlock: MIFKUJ_clean_linker_0, # of connection points: 2
#     Edge 76, Type (0, 1), BuildingBlock: MIFKUJ_clean_linker_0, # of connection points: 2
#     Edge 77, Type (0, 1), BuildingBlock: MIFKUJ_clean_linker_0, # of connection points: 2
#     Edge 78, Type (0, 1), BuildingBlock: MIFKUJ_clean_linker_0, # of connection points: 2
#     Edge 79, Type (0, 1), BuildingBlock: MIFKUJ_clean_linker_0, # of connection points: 2
#     Edge 80, Type (0, 1), BuildingBlock: MIFKUJ_clean_linker_0, # of connection points: 2
#     Edge 81, Type (0, 1), BuildingBlock: MIFKUJ_clean_linker_0, # of connection points: 2
#     Edge 82, Type (0, 1), BuildingBlock: MIFKUJ_clean_linker_0, # of connection points: 2
#     Edge 83, Type (0, 1), BuildingBlock: MIFKUJ_clean_linker_0, # of connection points: 2
#     Edge 84, Type (0, 1), BuildingBlock: MIFKUJ_clean_linker_0, # of connection points: 2
#     Edge 85, Type (0, 1), BuildingBlock: MIFKUJ_clean_linker_0, # of connection points: 2
#     Edge 86, Type (0, 1), BuildingBlock: MIFKUJ_clean_linker_0, # of connection points: 2
#     Edge 87, Type (0, 1), BuildingBlock: MIFKUJ_clean_linker_0, # of connection points: 2
#     Edge 88, Type (0, 1), BuildingBlock: MIFKUJ_clean_linker_0, # of connection points: 2
#     Edge 89, Type (0, 1), BuildingBlock: MIFKUJ_clean_linker_0, # of connection points: 2
#     Edge 90, Type (0, 1), BuildingBlock: MIFKUJ_clean_linker_0, # of connection points: 2
#     Edge 91, Type (0, 1), BuildingBlock: MIFKUJ_clean_linker_0, # of connection points: 2
#     Edge 92, Type (0, 1), BuildingBlock: MIFKUJ_clean_linker_0, # of connection points: 2
#     Edge 93, Type (0, 1), BuildingBlock: MIFKUJ_clean_linker_0, # of connection points: 2
#     Edge 94, Type (0, 1), BuildingBlock: MIFKUJ_clean_linker_0, # of connection points: 2
#     Edge 95, Type (0, 1), BuildingBlock: MIFKUJ_clean_linker_0, # of connection points: 2
#     Edge 96, Type (0, 1), BuildingBlock: MIFKUJ_clean_linker_0, # of connection points: 2
#     Edge 97, Type (0, 1), BuildingBlock: MIFKUJ_clean_linker_0, # of connection points: 2
#     Edge 98, Type (0, 1), BuildingBlock: MIFKUJ_clean_linker_0, # of connection points: 2
#     Edge 99, Type (0, 1), BuildingBlock: MIFKUJ_clean_linker_0, # of connection points: 2
#     Edge 100, Type (0, 1), BuildingBlock: MIFKUJ_clean_linker_0, # of connection points: 2
#     Edge 101, Type (0, 1), BuildingBlock: MIFKUJ_clean_linker_0, # of connection points: 2
#     Edge 102, Type (0, 1), BuildingBlock: MIFKUJ_clean_linker_0, # of connection points: 2
#     Edge 103, Type (0, 1), BuildingBlock: MIFKUJ_clean_linker_0, # of connection points: 2
#     Edge 104, Type (0, 1), BuildingBlock: MIFKUJ_clean_linker_0, # of connection points: 2
#     Edge 105, Type (0, 1), BuildingBlock: MIFKUJ_clean_linker_0, # of connection points: 2
#     Edge 106, Type (0, 1), BuildingBlock: MIFKUJ_clean_linker_0, # of connection points: 2
#     Edge 107, Type (0, 1), BuildingBlock: MIFKUJ_clean_linker_0, # of connection points: 2
#     Edge 108, Type (0, 1), BuildingBlock: MIFKUJ_clean_linker_0, # of connection points: 2
#     Edge 109, Type (0, 1), BuildingBlock: MIFKUJ_clean_linker_0, # of connection points: 2
#     Edge 110, Type (0, 1), BuildingBlock: MIFKUJ_clean_linker_0, # of connection points: 2
#     Edge 111, Type (0, 1), BuildingBlock: MIFKUJ_clean_linker_0, # of connection points: 2
#     Edge 112, Type (0, 1), BuildingBlock: MIFKUJ_clean_linker_0, # of connection points: 2
#     Edge 113, Type (0, 1), BuildingBlock: MIFKUJ_clean_linker_0, # of connection points: 2
#     Edge 114, Type (0, 1), BuildingBlock: MIFKUJ_clean_linker_0, # of connection points: 2
#     Edge 115, Type (0, 1), BuildingBlock: MIFKUJ_clean_linker_0, # of connection points: 2
#     Edge 116, Type (0, 1), BuildingBlock: MIFKUJ_clean_linker_0, # of connection points: 2
#     Edge 117, Type (0, 1), BuildingBlock: MIFKUJ_clean_linker_0, # of connection points: 2
#     Edge 118, Type (0, 1), BuildingBlock: MIFKUJ_clean_linker_0, # of connection points: 2
#     Edge 119, Type (0, 1), BuildingBlock: MIFKUJ_clean_linker_0, # of connection points: 2
#     Edge 120, Type (0, 1), BuildingBlock: MIFKUJ_clean_linker_0, # of connection points: 2
#     Edge 121, Type (0, 1), BuildingBlock: MIFKUJ_clean_linker_0, # of connection points: 2
#     Edge 122, Type (0, 1), BuildingBlock: MIFKUJ_clean_linker_0, # of connection points: 2
#     Edge 123, Type (0, 1), BuildingBlock: MIFKUJ_clean_linker_0, # of connection points: 2
#     Edge 124, Type (0, 1), BuildingBlock: MIFKUJ_clean_linker_0, # of connection points: 2
#     Edge 125, Type (0, 1), BuildingBlock: MIFKUJ_clean_linker_0, # of connection points: 2
#     Edge 126, Type (0, 1), BuildingBlock: MIFKUJ_clean_linker_0, # of connection points: 2
#     Edge 127, Type (0, 1), BuildingBlock: MIFKUJ_clean_linker_0, # of connection points: 2
#     Edge 128, Type (0, 1), BuildingBlock: MIFKUJ_clean_linker_0, # of connection points: 2
#     Edge 129, Type (0, 1), BuildingBlock: MIFKUJ_clean_linker_0, # of connection points: 2
#     Edge 130, Type (0, 1), BuildingBlock: MIFKUJ_clean_linker_0, # of connection points: 2
#     Edge 131, Type (0, 1), BuildingBlock: MIFKUJ_clean_linker_0, # of connection points: 2
#     Edge 132, Type (0, 1), BuildingBlock: MIFKUJ_clean_linker_0, # of connection points: 2
#     Edge 133, Type (0, 1), BuildingBlock: MIFKUJ_clean_linker_0, # of connection points: 2
#     Edge 134, Type (0, 1), BuildingBlock: MIFKUJ_clean_linker_0, # of connection points: 2
#     Edge 135, Type (0, 1), BuildingBlock: MIFKUJ_clean_linker_0, # of connection points: 2
# Relax obj value: 0.309
# Max RMSD: 0.288
# Mean RMSD: 0.261
data_MOF--net-ibd--node1-QUQFOY_clean_sbu_3--node2-IZENUY_clean_sbu_0--edge1-MIFKUJ_clean_linker_0
_symmetry_space_group_name_H-M    P1
_symmetry_Int_Tables_number       1
_symmetry_cell_setting            triclinic
loop_
_symmetry_equiv_pos_as_xyz
'x, y, z'
_cell_length_a     62.928052
_cell_length_b     62.968833
_cell_length_c     62.982066
_cell_angle_alpha  90.103877
_cell_angle_beta   90.005469
_cell_angle_gamma 91.126375
loop_
_atom_site_label
_atom_site_type_symbol
_atom_site_fract_x
_atom_site_fract_y
_atom_site_fract_z
_atom_type_partial_charge
C0 C 0.9734 0.24159 0.39797 0.0
O1 O 0.95977 0.25622 0.39743 0.0
Cd2 Cd 0.95992 0.28751 0.3762 0.0
O3 O 0.98945 0.24176 0.38557 0.0
Cd4 Cd 0.00282 0.26447 0.35578 0.0
C5 C 0.01006 0.30669 0.38895 0.0
O6 O 0.96845 0.27321 0.34286 0.0
O7 O 0.99399 0.29031 0.32754 0.0
O8 O 0.0132 0.23432 0.33411 0.0
C9 C 0.97416 0.28684 0.32926 0.0
O10 O 0.98998 0.30894 0.38949 0.0
C11 C 0.03253 0.24032 0.33243 0.0
O12 O 0.01828 0.29139 0.37882 0.0
O13 O 0.03807 0.25724 0.34212 0.0
C14 C 0.99605 0.78913 0.60564 0.0
O15 O 0.97723 0.79607 0.60602 0.0
Cd16 Cd 0.94959 0.78255 0.62887 0.0
O17 O 0.00149 0.77407 0.61784 0.0
Cd18 Cd 0.98597 0.75094 0.64546 0.0
C19 C 0.94823 0.73088 0.61206 0.0
O20 O 0.96672 0.7787 0.66234 0.0
O21 O 0.96013 0.74746 0.6749 0.0
O22 O 0.01932 0.75132 0.66513 0.0
C23 C 0.95706 0.76728 0.67586 0.0
O24 O 0.93846 0.74834 0.61363 0.0
C25 C 0.02155 0.73133 0.66438 0.0
O26 O 0.96613 0.72845 0.621 0.0
O27 O 0.00729 0.72056 0.65469 0.0
C28 C 0.45505 0.71184 0.90119 0.0
O29 O 0.44472 0.72877 0.89851 0.0
Cd30 Cd 0.45368 0.75881 0.87701 0.0
O31 O 0.4725 0.70864 0.89151 0.0
Cd32 Cd 0.49387 0.72767 0.86415 0.0
C33 C 0.50391 0.7712 0.89497 0.0
O34 O 0.46414 0.74156 0.84551 0.0
O35 O 0.49452 0.75248 0.83384 0.0
O36 O 0.50349 0.69626 0.84403 0.0
C37 C 0.47447 0.75286 0.83242 0.0
O38 O 0.48458 0.77667 0.89342 0.0
C39 C 0.52339 0.69939 0.84627 0.0
O40 O 0.51033 0.75405 0.88671 0.0
O41 O 0.5293 0.71494 0.85783 0.0
C42 C 0.50408 0.31554 0.123 0.0
O43 O 0.48609 0.32403 0.12535 0.0
Cd44 Cd 0.45659 0.30747 0.14308 0.0
O45 O 0.50809 0.2977 0.13153 0.0
Cd46 Cd 0.49114 0.2711 0.15538 0.0
C47 C 0.4559 0.25963 0.11617 0.0
O48 O 0.47101 0.29558 0.17567 0.0
O49 O 0.4617 0.26288 0.18035 0.0
O50 O 0.52318 0.26755 0.17671 0.0
C51 C 0.4591 0.28223 0.18509 0.0
O52 O 0.44687 0.27715 0.12013 0.0
C53 C 0.52474 0.24769 0.17366 0.0
O54 O 0.47259 0.25435 0.1261 0.0
O55 O 0.51077 0.23881 0.1619 0.0
C56 C 0.94879 0.74872 0.14897 0.0
O57 O 0.94256 0.76777 0.14823 0.0
Cd58 Cd 0.95682 0.79426 0.12473 0.0
O59 O 0.96321 0.74227 0.13644 0.0
Cd60 Cd 0.98542 0.75613 0.10709 0.0
C61 C 0.00913 0.79212 0.13977 0.0
O62 O 0.95761 0.7766 0.09128 0.0
O63 O 0.98861 0.78168 0.07762 0.0
O64 O 0.9828 0.7206 0.09129 0.0
C65 C 0.96897 0.78568 0.07732 0.0
O66 O 0.99228 0.80297 0.13873 0.0
C67 C 0.00243 0.72002 0.08665 0.0
O68 O 0.01014 0.77409 0.13076 0.0
O69 O 0.01391 0.73597 0.0919 0.0
C70 C 0.53839 0.79449 0.35074 0.0
O71 O 0.52191 0.80572 0.35237 0.0
Cd72 Cd 0.49231 0.80025 0.37563 0.0
O73 O 0.54052 0.77782 0.3619 0.0
Cd74 Cd 0.51903 0.75835 0.38841 0.0
C75 C 0.47517 0.75209 0.35719 0.0
O76 O 0.50797 0.78911 0.40809 0.0
O77 O 0.49305 0.7595 0.41726 0.0
O78 O 0.54948 0.74499 0.40786 0.0
C79 C 0.49508 0.77935 0.42018 0.0
O80 O 0.47089 0.77162 0.35968 0.0
C81 C 0.54459 0.72556 0.40467 0.0
O82 O 0.49208 0.74442 0.36478 0.0
O83 O 0.52815 0.72162 0.39357 0.0
C84 C 0.44859 0.23435 0.64153 0.0
O85 O 0.43932 0.25187 0.63884 0.0
Cd86 Cd 0.45681 0.28113 0.62166 0.0
O87 O 0.46672 0.23119 0.63323 0.0
Cd88 Cd 0.49349 0.24813 0.6098 0.0
C89 C 0.50325 0.28088 0.65097 0.0
O90 O 0.46987 0.26856 0.58847 0.0
O91 O 0.50304 0.2776 0.58582 0.0
O92 O 0.49447 0.21617 0.58829 0.0
C93 C 0.48405 0.28008 0.57969 0.0
O94 O 0.48543 0.28919 0.64683 0.0
C95 C 0.51435 0.21363 0.59006 0.0
O96 O 0.51007 0.26537 0.64012 0.0
O97 O 0.52458 0.22699 0.60148 0.0
C98 C 0.01609 0.27062 0.8516 0.0
O99 O 0.00271 0.28416 0.85784 0.0
Cd100 Cd 0.97571 0.27954 0.88406 0.0
O101 O 0.017 0.25225 0.86004 0.0
Cd102 Cd -0.00028 0.2327 0.88981 0.0
C103 C 0.95193 0.23394 0.86423 0.0
O104 O 0.99583 0.26365 0.91124 0.0
O105 O 0.98221 0.23521 0.92472 0.0
O106 O 0.03413 0.21817 0.89846 0.0
C107 C 0.98576 0.255 0.92635 0.0
O108 O 0.95093 0.25385 0.8676 0.0
C109 C 0.02712 0.19928 0.90099 0.0
O110 O 0.9679 0.22334 0.87016 0.0
O111 O 0.00752 0.19582 0.89726 0.0
C112 C 0.40959 0.94589 0.22628 0.0
O113 O 0.40562 0.93656 0.24377 0.0
Cd114 Cd 0.38181 0.94843 0.27093 0.0
O115 O 0.40113 0.96355 0.22182 0.0
Cd116 Cd 0.37651 0.98853 0.23842 0.0
C117 C 0.40597 0.9957 0.2835 0.0
O118 O 0.35279 0.96085 0.2506 0.0
O119 O 0.34334 0.99255 0.25881 0.0
O120 O 0.36257 -0.00203 0.20384 0.0
C121 C 0.3394 0.97275 0.25929 0.0
O122 O 0.40024 0.97725 0.28976 0.0
C123 C 0.36562 0.01784 0.2062 0.0
O124 O 0.4005 0.00254 0.26535 0.0
O125 O 0.37472 0.02395 0.2232 0.0
C126 C 0.30586 0.10268 0.49641 0.0
O127 O 0.30991 0.10232 0.47667 0.0
Cd128 Cd 0.28736 0.11781 0.45087 0.0
O129 O 0.28918 0.1115 0.50335 0.0
Cd130 Cd 0.25868 0.13086 0.48945 0.0
C131 C 0.24225 0.08854 0.46051 0.0
O132 O 0.28014 0.15176 0.46608 0.0
O133 O 0.24658 0.15464 0.46034 0.0
O134 O 0.25857 0.15234 0.52178 0.0
C135 C 0.26541 0.16109 0.45651 0.0
O136 O 0.25682 0.09312 0.44716 0.0
C137 C 0.23902 0.14885 0.52576 0.0
O138 O 0.24051 0.09907 0.4776 0.0
O139 O 0.22878 0.13708 0.5128 0.0
C140 C 0.15186 0.93144 0.76321 0.0
O141 O 0.15175 0.92691 0.78285 0.0
Cd142 Cd 0.14176 0.95221 0.80942 0.0
O143 O 0.14592 0.94954 0.75676 0.0
Cd144 Cd 0.13101 0.98268 0.77033 0.0
C145 C 0.17552 0.99424 0.79827 0.0
O146 O 0.10887 0.96528 0.79653 0.0
O147 O 0.10893 -0.00042 0.79748 0.0
O148 O 0.10815 0.98258 0.73916 0.0
C149 C 0.10148 0.9821 0.80443 0.0
O150 O 0.16996 0.9796 0.81117 0.0
C151 C 0.11256 0.00161 0.73386 0.0
O152 O 0.1647 -0.0022 0.78166 0.0
O153 O 0.12601 0.01167 0.74529 0.0
C154 C 0.27621 0.83481 0.01512 0.0
O155 O 0.28828 0.83656 -0.00099 0.0
Cd156 Cd 0.2825 0.86055 0.97022 0.0
O157 O 0.25973 0.84611 0.01684 0.0
Cd158 Cd 0.24165 0.87406 -0.00327 0.0
C159 C 0.23402 0.84217 0.95366 0.0
O160 O 0.27421 0.8928 0.9882 0.0
O161 O 0.24624 0.90591 0.97399 0.0
O162 O 0.23251 0.8894 0.03074 0.0
C163 C 0.26609 0.90741 0.97734 0.0
O164 O 0.25362 0.84474 0.94917 0.0
C165 C 0.21273 0.89051 0.02703 0.0
O166 O 0.22628 0.85024 0.97041 0.0
O167 O 0.20623 0.8836 0.00917 0.0
C168 C 0.26589 0.34911 0.0444 0.0
O169 O 0.28566 0.351 0.04822 0.0
Cd170 Cd 0.30902 0.37515 0.02994 0.0
O171 O 0.25724 0.36026 0.03006 0.0
Cd172 Cd 0.26813 0.38731 0.00388 0.0
C173 C 0.30248 0.35422 0.98045 0.0
O174 O 0.2901 0.40771 0.02763 0.0
O175 O 0.29425 0.41572 0.99459 0.0
O176 O 0.23407 0.4051 0.00661 0.0
C177 C 0.29827 0.41997 0.01388 0.0
O178 O 0.31547 0.35809 0.99554 0.0
C179 C 0.22982 0.40325 0.98697 0.0
O180 O 0.28393 0.36177 0.98068 0.0
O181 O 0.2434 0.39406 0.97545 0.0
C182 C 0.72029 0.09042 0.01859 0.0
O183 O 0.73412 0.09725 0.03178 0.0
Cd184 Cd 0.75414 0.13002 0.02929 0.0
O185 O 0.71628 0.10072 0.00173 0.0
Cd186 Cd 0.72919 0.13339 0.98442 0.0
C187 C 0.78192 0.121 0.98431 0.0
O188 O 0.72884 0.15484 0.01615 0.0
O189 O 0.74121 0.17042 0.98827 0.0
O190 O 0.69517 0.13936 0.96722 0.0
C191 C 0.73648 0.17156 0.00778 0.0
O192 O 0.78313 0.12361 0.00432 0.0
C193 C 0.70278 0.13933 0.94852 0.0
O194 O 0.76431 0.12255 0.97461 0.0
O195 O 0.72247 0.13576 0.9467 0.0
C196 C 0.15586 0.49774 0.24379 0.0
O197 O 0.15027 0.48345 0.23052 0.0
Cd198 Cd 0.12 0.45993 0.23354 0.0
O199 O 0.14505 0.50092 0.26058 0.0
Cd200 Cd 0.11198 0.48646 0.27676 0.0
C201 C 0.12958 0.43572 0.28073 0.0
O202 O 0.09257 0.48367 0.24368 0.0
O203 O 0.07551 0.47301 0.27144 0.0
O204 O 0.10392 0.52146 0.29071 0.0
C205 C 0.07553 0.47627 0.25162 0.0
O206 O 0.12871 0.4337 0.26064 0.0
C207 C 0.10113 0.51513 0.30967 0.0
O208 O 0.12515 0.45318 0.28969 0.0
O209 O 0.10446 0.49567 0.31337 0.0
C210 C 0.76425 0.83681 0.53313 0.0
O211 O 0.78402 0.84109 0.53469 0.0
Cd212 Cd 0.80321 0.86903 0.51684 0.0
O213 O 0.75239 0.84746 0.52082 0.0
Cd214 Cd 0.75613 0.87729 0.4954 0.0
C215 C 0.79413 0.85318 0.46555 0.0
O216 O 0.77915 0.89743 0.51822 0.0
O217 O 0.7744 0.91162 0.48755 0.0
O218 O 0.7214 0.8924 0.50298 0.0
C219 C 0.78288 0.91275 0.50578 0.0
O220 O 0.80746 0.85664 0.48044 0.0
C221 C 0.71468 0.89063 0.48402 0.0
O222 O 0.77469 0.85801 0.46769 0.0
O223 O 0.72683 0.88168 0.47079 0.0
C224 C 0.9144 -0.00016 0.21437 0.0
O225 O 0.91041 0.98041 0.2102 0.0
Cd226 Cd 0.88416 0.95845 0.22721 0.0
O227 O 0.90404 0.00975 0.22857 0.0
Cd228 Cd 0.87415 0.00256 0.25318 0.0
C229 C 0.90018 0.9636 0.27909 0.0
O230 O 0.85521 0.982 0.22735 0.0
O231 O 0.83973 0.98278 0.2577 0.0
O232 O 0.8621 0.03929 0.25013 0.0
C233 C 0.8395 0.97647 0.2386 0.0
O234 O 0.89741 0.95144 0.2631 0.0
C235 C 0.86062 0.04184 0.2701 0.0
O236 O 0.89422 0.98275 0.27867 0.0
O237 O 0.86622 0.0265 0.28172 0.0
C238 C 0.20748 0.60681 0.52536 0.0
O239 O 0.2175 0.61646 0.54013 0.0
Cd240 Cd 0.24495 0.64286 0.53592 0.0
O241 O 0.21014 0.61194 0.50596 0.0
Cd242 Cd 0.22937 0.63965 0.48528 0.0
C243 C 0.27599 0.6173 0.49908 0.0
O244 O 0.23073 0.66718 0.5114 0.0
O245 O 0.25163 0.67181 0.48472 0.0
O246 O 0.1981 0.64915 0.46576 0.0
C247 C 0.24496 0.67847 0.50245 0.0
O248 O 0.2737 0.62388 0.51808 0.0
C249 C 0.20602 0.64623 0.44745 0.0
O250 O 0.26195 0.62022 0.48486 0.0
O251 O 0.22479 0.63915 0.44669 0.0
C252 C 0.39145 0.51894 0.70348 0.0
O253 O 0.38619 0.50075 0.69628 0.0
Cd254 Cd 0.36793 0.47431 0.71616 0.0
O255 O 0.38601 0.52452 0.72216 0.0
Cd256 Cd 0.36454 0.50927 0.75187 0.0
C257 C 0.40115 0.47207 0.7594 0.0
O258 O 0.33782 0.49198 0.73051 0.0
O259 O 0.33959 0.48044 0.76262 0.0
O260 O 0.34767 0.54321 0.75774 0.0
C261 C 0.32971 0.48074 0.74511 0.0
O262 O 0.39415 0.46306 0.74261 0.0
C263 C 0.35044 0.54335 0.77771 0.0
O264 O 0.39369 0.48956 0.7658 0.0
O265 O 0.36063 0.52801 0.78552 0.0
C266 C 0.66062 0.01832 0.71201 0.0
O267 O 0.65381 0.00451 0.69882 0.0
Cd268 Cd 0.62394 0.9813 0.70507 0.0
O269 O 0.65109 0.02122 0.72959 0.0
Cd270 Cd 0.61844 0.007 0.74685 0.0
C271 C 0.63627 0.95688 0.75144 0.0
O272 O 0.59575 0.00437 0.71576 0.0
O273 O 0.58412 0.98861 0.74401 0.0
O274 O 0.60583 0.04085 0.75989 0.0
C275 C 0.58058 0.99494 0.72528 0.0
O276 O 0.63451 0.95462 0.73143 0.0
C277 C 0.60778 0.0362 0.77939 0.0
O278 O 0.6322 0.97443 0.76035 0.0
O279 O 0.6155 0.01827 0.78372 0.0
C280 C 0.79211 0.59337 0.97955 0.0
O281 O 0.79144 0.59584 0.95955 0.0
Cd282 Cd 0.76784 0.62015 0.9424 0.0
O283 O 0.77952 0.60334 0.99166 0.0
Cd284 Cd 0.75075 0.62896 0.98958 0.0
C285 C 0.71906 0.59996 0.95631 0.0
O286 O 0.76914 0.65128 0.96419 0.0
O287 O 0.73751 0.66108 0.97264 0.0
O288 O 0.76123 0.64553 0.02319 0.0
C289 C 0.75459 0.66478 0.96252 0.0
O290 O 0.73239 0.60376 0.94152 0.0
C291 C 0.74371 0.64138 0.03243 0.0
O292 O 0.72272 0.60625 0.97517 0.0
O293 O 0.72981 0.63101 0.02187 0.0
C294 C 0.8967 0.46 0.7116 0.0
O295 O 0.88959 0.44554 0.72387 0.0
Cd296 Cd 0.86666 0.45097 0.75339 0.0
O297 O 0.89097 0.4792 0.71373 0.0
Cd298 Cd 0.8659 0.49891 0.73651 0.0
C299 C 0.89574 0.48911 0.77991 0.0
O300 O 0.83865 0.47139 0.73869 0.0
O301 O 0.83502 0.49755 0.76027 0.0
O302 O 0.85554 0.5202 0.70626 0.0
C303 C 0.82751 0.48036 0.75266 0.0
O304 O 0.88887 0.46994 0.77976 0.0
C305 C 0.85743 0.53784 0.71598 0.0
O306 O 0.8904 0.50207 0.76552 0.0
O307 O 0.86416 0.5373 0.73496 0.0
C308 C 0.78734 0.34563 0.54439 0.0
O309 O 0.79858 0.3518 0.52875 0.0
Cd310 Cd 0.78601 0.37111 0.49894 0.0
O311 O 0.76771 0.3501 0.54559 0.0
Cd312 Cd 0.74256 0.37119 0.5243 0.0
C313 C 0.7456 0.33753 0.48307 0.0
O314 O 0.76718 0.39934 0.51486 0.0
O315 O 0.73849 0.39833 0.49627 0.0
O316 O 0.72781 0.38578 0.55652 0.0
C317 C 0.75561 0.40809 0.50117 0.0
O318 O 0.76313 0.34671 0.47815 0.0
C319 C 0.70851 0.38233 0.55148 0.0
O320 O 0.7358 0.34237 0.5 0.0
O321 O 0.70504 0.37265 0.53408 0.0
C322 C 0.62794 0.45564 0.23717 0.0
O323 O 0.62376 0.44975 0.25602 0.0
Cd324 Cd 0.60737 0.4723 0.28181 0.0
O325 O 0.6232 0.47414 0.23077 0.0
Cd326 Cd 0.60571 0.5066 0.24257 0.0
C327 C 0.64197 0.51545 0.28145 0.0
O328 O 0.57925 0.48774 0.26237 0.0
O329 O 0.57863 0.52166 0.26651 0.0
O330 O 0.58948 0.50945 0.2078 0.0
C331 C 0.57061 0.50357 0.27087 0.0
O332 O 0.63372 0.49988 0.29165 0.0
C333 C 0.59551 0.52854 0.20464 0.0
O334 O 0.63555 0.52016 0.26292 0.0
O335 O 0.60688 0.53728 0.21898 0.0
Fe336 Fe 0.1446 0.10169 0.14505 0.0
Fe337 Fe 0.12214 0.13635 0.11947 0.0
O338 O 0.14249 0.11739 0.12182 0.0
Fe339 Fe 0.16078 0.11397 0.10078 0.0
O340 O 0.15234 0.08656 0.09732 0.0
O341 O 0.15427 0.07821 0.13113 0.0
O342 O 0.11818 0.09064 0.14135 0.0
C343 C 0.10156 0.10117 0.13881 0.0
C344 C 0.18636 0.11099 0.13721 0.0
O345 O 0.10242 0.12076 0.13443 0.0
C346 C 0.15834 0.15715 0.10205 0.0
O347 O 0.13505 0.1222 0.16306 0.0
O348 O 0.13107 0.15044 0.14308 0.0
O349 O 0.1829 0.10678 0.11789 0.0
O350 O 0.1713 0.1117 0.15035 0.0
C351 C 0.12215 0.12009 0.07922 0.0
O352 O 0.13836 0.15526 0.10401 0.0
O353 O 0.17009 0.14119 0.10312 0.0
C354 C 0.13352 0.14209 0.16107 0.0
O355 O 0.11153 0.12368 0.09575 0.0
O356 O 0.1422 0.1206 0.07967 0.0
C357 C 0.15195 0.07284 0.11188 0.0
Fe358 Fe 0.09513 0.84246 0.37363 0.0
Fe359 Fe 0.11136 0.88587 0.35872 0.0
O360 O 0.1146 0.86311 0.3747 0.0
Fe361 Fe 0.13706 0.86099 0.39147 0.0
O362 O 0.1451 0.83661 0.37869 0.0
O363 O 0.11357 0.82107 0.37866 0.0
O364 O 0.10014 0.83824 0.34567 0.0
C365 C 0.09856 0.85247 0.33179 0.0
C366 C 0.1028 0.84483 0.41628 0.0
O367 O 0.09737 0.87178 0.33715 0.0
C368 C 0.12929 0.90312 0.39642 0.0
O369 O 0.07291 0.86015 0.36838 0.0
O370 O 0.08683 0.89212 0.37217 0.0
O371 O 0.12257 0.84668 0.41255 0.0
O372 O 0.0893 0.84543 0.4015 0.0
C373 C 0.15363 0.87932 0.35351 0.0
O374 O 0.12494 0.90411 0.37689 0.0
O375 O 0.13098 0.88542 0.40552 0.0
C376 C 0.07096 0.87964 0.37279 0.0
O377 O 0.13577 0.88103 0.34465 0.0
O378 O 0.15517 0.87496 0.37311 0.0
C379 C 0.13338 0.82043 0.3758 0.0
Fe380 Fe 0.35544 0.89771 0.6445 0.0
Fe381 Fe 0.33838 0.87264 0.6062 0.0
O382 O 0.35898 0.87834 0.62451 0.0
Fe383 Fe 0.38301 0.8646 0.62272 0.0
O384 O 0.37962 0.8541 0.64903 0.0
O385 O 0.37199 0.88439 0.66435 0.0
O386 O 0.33303 0.88305 0.65534 0.0
C387 C 0.31679 0.8775 0.64488 0.0
C388 C 0.39624 0.90664 0.63268 0.0
O389 O 0.3168 0.87824 0.62481 0.0
C390 C 0.37536 0.87152 0.5809 0.0
O391 O 0.33839 0.91444 0.62809 0.0
O392 O 0.33948 0.89951 0.59654 0.0
O393 O 0.39956 0.88688 0.63223 0.0
O394 O 0.37771 0.91352 0.63489 0.0
C395 C 0.35174 0.83288 0.61542 0.0
O396 O 0.3562 0.86589 0.58412 0.0
O397 O 0.3878 0.87449 0.5963 0.0
C398 C 0.33773 0.91576 0.60804 0.0
O399 O 0.33648 0.84552 0.6152 0.0
O400 O 0.37065 0.8397 0.61297 0.0
C401 C 0.37766 0.86523 0.66551 0.0
Fe402 Fe 0.41647 0.15032 0.88511 0.0
Fe403 Fe 0.40157 0.10723 0.86718 0.0
O404 O 0.39728 0.12937 0.88394 0.0
Fe405 Fe 0.3739 0.13073 0.89943 0.0
O406 O 0.36626 0.15537 0.88692 0.0
O407 O 0.39739 0.17114 0.89045 0.0
O408 O 0.4131 0.15584 0.8571 0.0
C409 C 0.41496 0.14224 0.84252 0.0
C410 C 0.40618 0.14652 0.92695 0.0
O411 O 0.41561 0.12261 0.84672 0.0
C412 C 0.38279 0.0887 0.90388 0.0
O413 O 0.43922 0.13348 0.8801 0.0
O414 O 0.42608 0.10098 0.88078 0.0
O415 O 0.38683 0.1447 0.92161 0.0
O416 O 0.42077 0.14608 0.91321 0.0
C417 C 0.35917 0.11315 0.86051 0.0
O418 O 0.38808 0.08801 0.88452 0.0
O419 O 0.37971 0.1062 0.91303 0.0
C420 C 0.44158 0.11379 0.88283 0.0
O421 O 0.37739 0.11175 0.85236 0.0
O422 O 0.35692 0.11693 0.8801 0.0
C423 C 0.37766 0.17204 0.88701 0.0
Fe424 Fe 0.59669 0.34921 0.88531 0.0
Fe425 Fe 0.62055 0.38545 0.86257 0.0
O426 O 0.61861 0.36713 0.88361 0.0
Fe427 Fe 0.63895 0.36646 0.90299 0.0
O428 O 0.64525 0.33954 0.89524 0.0
O429 O 0.61212 0.32789 0.8972 0.0
O430 O 0.6026 0.33762 0.85971 0.0
C431 C 0.60458 0.348 0.84271 0.0
C432 C 0.6016 0.36007 0.9268 0.0
O433 O 0.60781 0.3679 0.84299 0.0
C434 C 0.63332 0.40896 0.89875 0.0
O435 O 0.57757 0.36734 0.87348 0.0
O436 O 0.59558 0.39731 0.86951 0.0
O437 O 0.62136 0.35748 0.92453 0.0
O438 O 0.58933 0.35965 0.91099 0.0
C439 C 0.66194 0.37457 0.86534 0.0
O440 O 0.63349 0.40626 0.87878 0.0
O441 O 0.63337 0.39331 0.91124 0.0
C442 C 0.57813 0.38723 0.87052 0.0
O443 O 0.64555 0.37471 0.85395 0.0
O444 O 0.6604 0.37572 0.88531 0.0
C445 C 0.63175 0.32444 0.89503 0.0
Fe446 Fe 0.83477 0.37986 0.10421 0.0
Fe447 Fe 0.8516 0.40684 0.14128 0.0
O448 O 0.85238 0.38339 0.1258 0.0
Fe449 Fe 0.87068 0.36347 0.1319 0.0
O450 O 0.88299 0.36583 0.10619 0.0
O451 O 0.8532 0.36434 0.08809 0.0
O452 O 0.84568 0.40307 0.0912 0.0
C453 C 0.84687 0.42131 0.09936 0.0
C454 C 0.83335 0.34015 0.12088 0.0
O455 O 0.84375 0.42393 0.11907 0.0
C456 C 0.85878 0.37458 0.17173 0.0
O457 O 0.81309 0.3946 0.1164 0.0
O458 O 0.82444 0.40122 0.14878 0.0
O459 O 0.85335 0.34126 0.12314 0.0
O460 O 0.82306 0.35639 0.1161 0.0
C461 C 0.89425 0.40176 0.13822 0.0
O462 O 0.8595 0.39394 0.16621 0.0
O463 O 0.85945 0.36003 0.15802 0.0
C464 C 0.80946 0.39776 0.1359 0.0
O465 O 0.8788 0.41369 0.13473 0.0
O466 O 0.89128 0.38209 0.14161 0.0
C467 C 0.87326 0.36334 0.08889 0.0
Fe468 Fe 0.8498 0.62885 0.39257 0.0
Fe469 Fe 0.89508 0.64171 0.37878 0.0
O470 O 0.87277 0.6241 0.37718 0.0
Fe471 Fe 0.87346 0.60178 0.36003 0.0
O472 O 0.84498 0.60153 0.35413 0.0
O473 O 0.83313 0.63039 0.36921 0.0
O474 O 0.85242 0.65776 0.39136 0.0
C475 C 0.86246 0.66973 0.37858 0.0
C476 C 0.85398 0.58413 0.39451 0.0
O477 O 0.87963 0.66411 0.3702 0.0
C478 C 0.91511 0.60387 0.37718 0.0
O479 O 0.86465 0.62755 0.4171 0.0
O480 O 0.89132 0.64816 0.40684 0.0
O481 O 0.86953 0.58343 0.38188 0.0
O482 O 0.84314 0.60074 0.39641 0.0
C483 C 0.89207 0.63221 0.33508 0.0
O484 O 0.91214 0.6207 0.38748 0.0
O485 O 0.90214 0.59782 0.36292 0.0
C486 C 0.88121 0.6383 0.42123 0.0
O487 O 0.9029 0.63829 0.35098 0.0
O488 O 0.87713 0.61874 0.33707 0.0
C489 C 0.83093 0.61551 0.35596 0.0
Fe490 Fe 0.87181 0.88544 0.87973 0.0
Fe491 Fe 0.83579 0.91015 0.90018 0.0
O492 O 0.8527 0.90546 0.87831 0.0
Fe493 Fe 0.85071 0.92099 0.85508 0.0
O494 O 0.87779 0.93065 0.85781 0.0
O495 O 0.89129 0.8992 0.86275 0.0
O496 O 0.88473 0.89835 0.902 0.0
C497 C 0.8756 0.90272 0.91921 0.0
C498 C 0.85759 0.87953 0.83941 0.0
O499 O 0.85549 0.90287 0.92028 0.0
C500 C 0.80892 0.91383 0.86456 0.0
O501 O 0.85583 0.86801 0.89696 0.0
O502 O 0.82482 0.88339 0.89903 0.0
O503 O 0.85836 0.89952 0.83699 0.0
O504 O 0.85995 0.87147 0.85752 0.0
C505 C 0.84702 0.95045 0.88808 0.0
O506 O 0.81305 0.91823 0.88381 0.0
O507 O 0.82363 0.91217 0.85114 0.0
C508 C 0.83593 0.86696 0.8998 0.0
O509 O 0.84612 0.93694 0.90274 0.0
O510 O 0.8428 0.94515 0.86912 0.0
C511 C 0.89364 0.91884 0.85902 0.0
Fe512 Fe 0.90111 0.10122 0.64792 0.0
Fe513 Fe 0.88182 0.1255 0.61088 0.0
O514 O 0.90163 0.12317 0.63046 0.0
Fe515 Fe 0.92184 0.14296 0.63264 0.0
O516 O 0.91359 0.14917 0.65935 0.0
O517 O 0.91209 0.11617 0.67059 0.0
O518 O 0.87502 0.10788 0.65782 0.0
C519 C 0.85884 0.10965 0.64622 0.0
C520 C 0.94361 0.10479 0.63995 0.0
O521 O 0.86079 0.11229 0.62641 0.0
C522 C 0.91924 0.13908 0.58972 0.0
O523 O 0.88988 0.08253 0.62826 0.0
O524 O 0.88946 0.10087 0.5986 0.0
O525 O 0.94225 0.12474 0.64192 0.0
O526 O 0.92712 0.09313 0.63921 0.0
C527 C 0.88499 0.16639 0.62459 0.0
O528 O 0.89922 0.13905 0.5917 0.0
O529 O 0.93106 0.13794 0.60584 0.0
C530 C 0.88948 0.08331 0.60814 0.0
O531 O 0.87308 0.15026 0.62215 0.0
O532 O 0.90501 0.16477 0.6239 0.0
C533 C 0.91167 0.13594 0.67424 0.0
Fe534 Fe 0.63325 0.09459 0.35294 0.0
Fe535 Fe 0.6536 0.11234 0.39371 0.0
O536 O 0.63386 0.11361 0.37374 0.0
Fe537 Fe 0.6148 0.13389 0.3746 0.0
O538 O 0.62309 0.14386 0.34894 0.0
O539 O 0.62319 0.11291 0.33283 0.0
O540 O 0.65962 0.10236 0.34436 0.0
C541 C 0.67573 0.10326 0.35616 0.0
C542 C 0.59096 0.09758 0.36139 0.0
O543 O 0.67412 0.10189 0.37612 0.0
C544 C 0.61682 0.12356 0.41661 0.0
O545 O 0.64317 0.07279 0.36936 0.0
O546 O 0.64445 0.08615 0.40157 0.0
O547 O 0.59323 0.11754 0.36306 0.0
O548 O 0.60678 0.08571 0.36003 0.0
C549 C 0.65305 0.15498 0.38678 0.0
O550 O 0.63682 0.12282 0.41492 0.0
O551 O 0.60528 0.12523 0.40037 0.0
C552 C 0.64277 0.07037 0.38933 0.0
O553 O 0.6639 0.13841 0.38714 0.0
O554 O 0.63293 0.15394 0.38625 0.0
C555 C 0.62371 0.13301 0.33214 0.0
Fe556 Fe 0.61064 0.83264 0.11266 0.0
Fe557 Fe 0.65211 0.85241 0.09546 0.0
O558 O 0.62965 0.85375 0.11234 0.0
Fe559 Fe 0.62603 0.87601 0.1289 0.0
O560 O 0.60075 0.88165 0.11675 0.0
O561 O 0.58796 0.84922 0.1193 0.0
O562 O 0.60453 0.8372 0.08509 0.0
C563 C 0.61806 0.83733 0.07032 0.0
C564 C 0.61548 0.84112 0.15477 0.0
O565 O 0.63782 0.83781 0.07436 0.0
C566 C 0.66875 0.8706 0.13325 0.0
O567 O 0.6297 0.81201 0.10618 0.0
O568 O 0.66073 0.82829 0.10819 0.0
O569 O 0.6138 0.86065 0.15047 0.0
O570 O 0.61598 0.82726 0.14032 0.0
C571 C 0.64108 0.8939 0.09054 0.0
O572 O 0.67015 0.86696 0.11352 0.0
O573 O 0.65094 0.87192 0.14214 0.0
C574 C 0.64947 0.8116 0.10972 0.0
O575 O 0.64508 0.87647 0.0817 0.0
O576 O 0.63781 0.89511 0.11031 0.0
C577 C 0.58518 0.86884 0.11647 0.0
Fe578 Fe 0.38922 0.65379 0.14358 0.0
Fe579 Fe 0.35118 0.6286 0.12585 0.0
O580 O 0.37354 0.63018 0.14281 0.0
Fe581 Fe 0.38048 0.6083 0.15872 0.0
O582 O 0.40637 0.60691 0.1464 0.0
O583 O 0.41427 0.64074 0.14977 0.0
O584 O 0.39605 0.65082 0.11584 0.0
C585 C 0.3826 0.64867 0.10111 0.0
C586 C 0.38657 0.644 0.18554 0.0
O587 O 0.36309 0.64566 0.1053 0.0
C588 C 0.33724 0.607 0.16283 0.0
O589 O 0.3672 0.67141 0.13749 0.0
O590 O 0.33883 0.65077 0.13905 0.0
O591 O 0.39044 0.62487 0.18078 0.0
O592 O 0.38313 0.65757 0.1713 0.0
C593 C 0.36867 0.58974 0.11954 0.0
O594 O 0.33558 0.61096 0.14321 0.0
O595 O 0.35499 0.60812 0.17204 0.0
C596 C 0.34733 0.66902 0.14001 0.0
O597 O 0.36205 0.60664 0.11154 0.0
O598 O 0.37183 0.58807 0.13932 0.0
C599 C 0.41978 0.62197 0.14571 0.0
Fe600 Fe 0.12252 0.59279 0.85626 0.0
Fe601 Fe 0.13347 0.61209 0.89962 0.0
O602 O 0.11745 0.61155 0.8765 0.0
Fe603 Fe 0.09641 0.62957 0.87341 0.0
O604 O 0.10802 0.64027 0.84934 0.0
O605 O 0.11337 0.60945 0.8344 0.0
O606 O 0.14877 0.604 0.85194 0.0
C607 C 0.1628 0.60593 0.86615 0.0
C608 C 0.07934 0.59047 0.85849 0.0
O609 O 0.15791 0.60451 0.88565 0.0
C610 C 0.09201 0.619 0.91532 0.0
O611 O 0.13259 0.57244 0.87413 0.0
O612 O 0.12629 0.58488 0.90592 0.0
O613 O 0.07915 0.61061 0.85886 0.0
O614 O 0.09656 0.58067 0.85971 0.0
C615 C 0.12928 0.65457 0.89204 0.0
O616 O 0.112 0.61985 0.91745 0.0
O617 O 0.08339 0.62035 0.89734 0.0
C618 C 0.12885 0.5694 0.8936 0.0
O619 O 0.14157 0.63931 0.89503 0.0
O620 O 0.10989 0.65153 0.88741 0.0
C621 C 0.11227 0.62942 0.83315 0.0
Fe622 Fe 0.14903 0.36156 0.60333 0.0
Fe623 Fe 0.10448 0.34531 0.61535 0.0
O624 O 0.12597 0.36332 0.61926 0.0
Fe625 Fe 0.12417 0.38307 0.63904 0.0
O626 O 0.14698 0.37302 0.6527 0.0
O627 O 0.1674 0.37024 0.62453 0.0
O628 O 0.15354 0.33473 0.6121 0.0
C629 C 0.14023 0.31964 0.61041 0.0
C630 C 0.14439 0.40456 0.60507 0.0
O631 O 0.12093 0.32327 0.60648 0.0
C632 C 0.08412 0.38405 0.62313 0.0
O633 O 0.13446 0.35273 0.57934 0.0
O634 O 0.10092 0.35492 0.58877 0.0
O635 O 0.14026 0.40294 0.62467 0.0
O636 O 0.14601 0.38829 0.59359 0.0
C637 C 0.1059 0.34659 0.65835 0.0
O638 O 0.08397 0.36395 0.62338 0.0
O639 O 0.10111 0.39439 0.62651 0.0
C640 C 0.11513 0.35578 0.57472 0.0
O641 O 0.10701 0.33508 0.64201 0.0
O642 O 0.10785 0.36662 0.65702 0.0
C643 C 0.16503 0.37065 0.64453 0.0
Fe644 Fe 0.65085 0.60952 0.60301 0.0
Fe645 Fe 0.62752 0.59722 0.64388 0.0
O646 O 0.63113 0.61473 0.62226 0.0
Fe647 Fe 0.61511 0.63745 0.61995 0.0
O648 O 0.60489 0.62848 0.59449 0.0
O649 O 0.63604 0.62088 0.58093 0.0
O650 O 0.63849 0.5842 0.59618 0.0
C651 C 0.63411 0.56975 0.60938 0.0
C652 C 0.65587 0.65242 0.60769 0.0
O653 O 0.63466 0.57338 0.62912 0.0
C654 C 0.62355 0.6376 0.66242 0.0
O655 O 0.66913 0.5972 0.62169 0.0
O656 O 0.65451 0.60212 0.65286 0.0
O657 O 0.63584 0.65393 0.60736 0.0
O658 O 0.66446 0.63453 0.60868 0.0
C659 C 0.58639 0.60552 0.63398 0.0
O660 O 0.61971 0.61783 0.6625 0.0
O661 O 0.62429 0.64792 0.6453 0.0
C662 C 0.6708 0.59999 0.64151 0.0
O663 O 0.60032 0.59157 0.63613 0.0
O664 O 0.59154 0.62497 0.63216 0.0
C665 C 0.61635 0.62391 0.57875 0.0
Fe666 Fe 0.37363 0.38026 0.37466 0.0
Fe667 Fe 0.34566 0.41784 0.3637 0.0
O668 O 0.35294 0.39748 0.38143 0.0
Fe669 Fe 0.33921 0.39431 0.40576 0.0
O670 O 0.33039 0.36793 0.39854 0.0
O671 O 0.36151 0.35688 0.38755 0.0
O672 O 0.35967 0.37157 0.35115 0.0
C673 C 0.35326 0.38348 0.33665 0.0
C674 C 0.3819 0.38612 0.41671 0.0
O675 O 0.35275 0.40336 0.33935 0.0
C676 C 0.3439 0.4372 0.40381 0.0
O677 O 0.38921 0.40079 0.36043 0.0
O678 O 0.37163 0.43019 0.36567 0.0
O679 O 0.36215 0.3843 0.42033 0.0
O680 O 0.38877 0.38768 0.398 0.0
C681 C 0.30703 0.40226 0.37633 0.0
O682 O 0.33746 0.43608 0.38477 0.0
O683 O 0.34739 0.42061 0.41426 0.0
C684 C 0.3888 0.42086 0.3622 0.0
O685 O 0.31936 0.40625 0.36102 0.0
O686 O 0.3137 0.40346 0.3953 0.0
C687 C 0.34222 0.3533 0.39234 0.0
H688 H 0.02343 0.20868 0.30412 0.0
H689 H 0.04762 0.19238 0.27895 0.0
H690 H 0.09987 0.22969 0.30466 0.0
H691 H 0.07551 0.24664 0.32947 0.0
H692 H 0.10148 0.23129 0.2638 0.0
H693 H 0.09543 0.17511 0.31334 0.0
H694 H 0.07765 0.14941 0.33726 0.0
H695 H 0.04539 0.12059 0.28415 0.0
H696 H 0.06274 0.1463 0.25992 0.0
H697 H 0.14735 0.13279 0.20083 0.0
H698 H 0.13861 0.15105 0.23383 0.0
H699 H 0.10461 0.19807 0.19824 0.0
H700 H 0.11397 0.1803 0.16516 0.0
H701 H 0.10161 0.15385 0.24935 0.0
H702 H 0.0998 0.24348 0.22505 0.0
H703 H 0.12099 0.26874 0.20346 0.0
H704 H 0.17583 0.22986 0.21046 0.0
H705 H 0.15509 0.20453 0.23235 0.0
C706 C 0.04011 0.21322 0.30461 0.0
C707 C 0.04758 0.22893 0.31876 0.0
C708 C 0.05397 0.20382 0.29027 0.0
C709 C 0.07564 0.20961 0.29008 0.0
C710 C 0.08323 0.22497 0.30453 0.0
C711 C 0.06931 0.23458 0.31873 0.0
C712 C 0.08998 0.20046 0.27392 0.0
C713 C 0.10169 0.21434 0.26073 0.0
C714 C 0.09079 0.17831 0.27033 0.0
C715 C 0.08032 0.16273 0.28482 0.0
C716 C 0.08444 0.16338 0.30677 0.0
C717 C 0.07445 0.1488 0.32038 0.0
C718 C 0.06038 0.1334 0.31223 0.0
C719 C 0.0563 0.13253 0.29044 0.0
C720 C 0.06624 0.14709 0.27675 0.0
C721 C 0.13841 0.1473 0.20003 0.0
C722 C 0.13118 0.15503 0.18045 0.0
C723 C 0.13341 0.1577 0.2189 0.0
C724 C 0.12094 0.17592 0.21857 0.0
C725 C 0.11458 0.18426 0.19893 0.0
C726 C 0.11985 0.17402 0.18 0.0
C727 C 0.11248 0.18472 0.23868 0.0
C728 C 0.1018 0.17077 0.2526 0.0
C729 C 0.11316 0.20673 0.24327 0.0
C730 C 0.12581 0.22201 0.23024 0.0
C731 C 0.11641 0.24037 0.22209 0.0
C732 C 0.12834 0.25469 0.20977 0.0
C733 C 0.14973 0.25088 0.20555 0.0
C734 C 0.15925 0.23276 0.21368 0.0
C735 C 0.14739 0.21839 0.22602 0.0
H736 H 0.15893 0.26198 0.196 0.0
H737 H 0.05266 0.12212 0.3228 0.0
H738 H 0.03684 0.77655 0.59898 0.0
H739 H 0.06118 0.78851 0.57109 0.0
H740 H 0.01473 0.83293 0.54917 0.0
H741 H 0.99031 0.82122 0.57709 0.0
H742 H 0.05345 0.78419 0.52943 0.0
H743 H 0.04013 0.87528 0.52632 0.0
H744 H 0.03359 0.9048 0.55111 0.0
H745 H 0.0638 0.87057 0.6013 0.0
H746 H 0.07079 0.84098 0.57675 0.0
H747 H 0.06407 0.82899 0.42835 0.0
H748 H 0.05187 0.82111 0.46429 0.0
H749 H 0.11218 0.8429 0.48952 0.0
H750 H 0.12474 0.85069 0.45341 0.0
H751 H 0.0743 0.85839 0.51127 0.0
H752 H 0.10654 0.79388 0.48896 0.0
H753 H 0.11354 0.76445 0.46421 0.0
H754 H 0.04773 0.74524 0.46645 0.0
H755 H 0.04026 0.77478 0.49094 0.0
C756 C 0.03188 0.78909 0.58843 0.0
C757 C 0.01155 0.79782 0.59015 0.0
C758 C 0.04584 0.79589 0.57252 0.0
C759 C 0.03979 0.81165 0.55817 0.0
C760 C 0.01982 0.82095 0.5603 0.0
C761 C 0.00582 0.81413 0.57618 0.0
C762 C 0.05336 0.81687 0.5397 0.0
C763 C 0.05823 0.80039 0.5256 0.0
C764 C 0.05975 0.83798 0.53486 0.0
C765 C 0.05586 0.85584 0.54969 0.0
C766 C 0.04548 0.87409 0.54261 0.0
C767 C 0.04167 0.89083 0.55663 0.0
C768 C 0.04823 0.88954 0.57778 0.0
C769 C 0.05866 0.87152 0.58493 0.0
C770 C 0.06252 0.85475 0.57098 0.0
C771 C 0.07477 0.83215 0.4415 0.0
C772 C 0.09543 0.84032 0.43806 0.0
C773 C 0.06777 0.82762 0.462 0.0
C774 C 0.08121 0.83134 0.47942 0.0
C775 C 0.10166 0.83992 0.47618 0.0
C776 C 0.10881 0.84422 0.45559 0.0
C777 C 0.07372 0.8258 0.50091 0.0
C778 C 0.06989 0.84218 0.51542 0.0
C779 C 0.06838 0.80458 0.50626 0.0
C780 C 0.07283 0.78665 0.49169 0.0
C781 C 0.09353 0.78348 0.48405 0.0
C782 C 0.09758 0.76677 0.47008 0.0
C783 C 0.08108 0.75301 0.46373 0.0
C784 C 0.0605 0.75592 0.47137 0.0
C785 C 0.05635 0.77263 0.48532 0.0
H786 H 0.08425 0.74008 0.45291 0.0
H787 H 0.04526 0.90251 0.58861 0.0
H788 H 0.43395 0.76648 0.83608 0.0
H789 H 0.41553 0.79084 0.81264 0.0
H790 H 0.47201 0.79749 0.77413 0.0
H791 H 0.49082 0.77371 0.79806 0.0
H792 H 0.45244 0.83444 0.77683 0.0
H793 H 0.43247 0.76164 0.76124 0.0
H794 H 0.41858 0.7257 0.76952 0.0
H795 H 0.35901 0.75179 0.78867 0.0
H796 H 0.37267 0.78794 0.78074 0.0
H797 H 0.39074 0.82509 0.67274 0.0
H798 H 0.40496 0.81071 0.70529 0.0
H799 H 0.39481 0.87035 0.73727 0.0
H800 H 0.38087 0.88527 0.70423 0.0
H801 H 0.38788 0.80388 0.74227 0.0
H802 H 0.43541 0.87528 0.77564 0.0
H803 H 0.45362 0.90826 0.76378 0.0
H804 H 0.46346 0.88086 0.70217 0.0
H805 H 0.4455 0.84767 0.71373 0.0
C806 C 0.44248 0.77324 0.82268 0.0
C807 C 0.46369 0.768 0.81862 0.0
C808 C 0.43196 0.78719 0.80938 0.0
C809 C 0.44233 0.7957 0.79152 0.0
C810 C 0.46376 0.79111 0.78788 0.0
C811 C 0.47442 0.77741 0.80141 0.0
C812 C 0.43038 0.80786 0.77565 0.0
C813 C 0.4382 0.8279 0.76937 0.0
C814 C 0.41191 0.79918 0.76588 0.0
C815 C 0.40367 0.77749 0.77066 0.0
C816 C 0.41647 0.75972 0.76738 0.0
C817 C 0.40863 0.73932 0.77198 0.0
C818 C 0.38795 0.73647 0.77969 0.0
C819 C 0.37504 0.75403 0.78275 0.0
C820 C 0.38282 0.77447 0.7782 0.0
C821 C 0.39142 0.83523 0.68665 0.0
C822 C 0.38477 0.85638 0.68587 0.0
C823 C 0.39949 0.82693 0.70529 0.0
C824 C 0.40099 0.83949 0.72364 0.0
C825 C 0.39394 0.86049 0.72318 0.0
C826 C 0.3859 0.86892 0.70436 0.0
C827 C 0.4103 0.83021 0.74291 0.0
C828 C 0.40183 0.81072 0.75003 0.0
C829 C 0.42858 0.83907 0.75285 0.0
C830 C 0.43889 0.85911 0.74549 0.0
C831 C 0.44143 0.87633 0.75955 0.0
C832 C 0.45175 0.89503 0.7529 0.0
C833 C 0.45975 0.89662 0.73226 0.0
C834 C 0.45728 0.87959 0.71817 0.0
C835 C 0.44697 0.86085 0.72474 0.0
H836 H 0.46783 0.91107 0.72719 0.0
H837 H 0.38191 0.72066 0.78324 0.0
H838 H 0.42012 0.26473 0.09202 0.0
H839 H 0.40772 0.24237 0.06255 0.0
H840 H 0.4606 0.20084 0.07212 0.0
H841 H 0.47282 0.22272 0.10175 0.0
H842 H 0.42678 0.23503 0.02632 0.0
H843 H 0.44799 0.15084 0.05737 0.0
H844 H 0.44823 0.13124 0.09123 0.0
H845 H 0.40082 0.17242 0.11642 0.0
H846 H 0.40007 0.19209 0.08262 0.0
H847 H 0.44272 0.16573 0.94154 0.0
H848 H 0.44831 0.18188 0.97649 0.0
H849 H 0.38667 0.15865 -0.00328 0.0
H850 H 0.38083 0.14253 0.9618 0.0
H851 H 0.41889 0.15645 0.02854 0.0
H852 H 0.38768 0.20521 0.98035 0.0
H853 H 0.38457 0.22417 0.94631 0.0
H854 H 0.44548 0.25432 0.95655 0.0
H855 H 0.44923 0.23511 0.99043 0.0
C856 C 0.42896 0.2507 0.08801 0.0
C857 C 0.44749 0.24554 0.09922 0.0
C858 C 0.42187 0.23796 0.07116 0.0
C859 C 0.43313 0.21985 0.06527 0.0
C860 C 0.45142 0.21451 0.07664 0.0
C861 C 0.45846 0.22714 0.09351 0.0
C862 C 0.42669 0.20729 0.04638 0.0
C863 C 0.42492 0.21787 0.02688 0.0
C864 C 0.42391 0.18492 0.04714 0.0
C865 C 0.42411 0.17305 0.06749 0.0
C866 C 0.43754 0.15566 0.07009 0.0
C867 C 0.43778 0.14454 0.08929 0.0
C868 C 0.42459 0.15062 0.10598 0.0
C869 C 0.41109 0.16778 0.1035 0.0
C870 C 0.41077 0.17894 0.08433 0.0
C871 C 0.43054 0.16367 0.95355 0.0
C872 C 0.41121 0.15313 0.94887 0.0
C873 C 0.43374 0.17294 0.97346 0.0
C874 C 0.41777 0.17162 0.98897 0.0
C875 C 0.39912 0.15983 0.98488 0.0
C876 C 0.39579 0.15075 0.96491 0.0
C877 C 0.41976 0.18419 0.00865 0.0
C878 C 0.42064 0.17362 0.02817 0.0
C879 C 0.42121 0.20661 0.00801 0.0
C880 C 0.41883 0.21855 0.98785 0.0
C881 C 0.4005 0.21574 0.97528 0.0
C882 C 0.3986 0.22655 0.95601 0.0
C883 C 0.41481 0.24042 0.94927 0.0
C884 C 0.43294 0.24355 0.9618 0.0
C885 C 0.43497 0.2327 0.98103 0.0
H886 H 0.4133 0.24877 0.93435 0.0
H887 H 0.42481 0.142 0.12083 0.0
H888 H 0.01485 0.83131 0.15793 0.0
H889 H 0.04057 0.84121 0.18541 0.0
H890 H 0.06908 0.77969 0.1802 0.0
H891 H 0.04352 0.76965 0.15261 0.0
H892 H 0.0537 0.78843 0.21996 0.0
H893 H 0.09922 0.82157 0.16961 0.0
H894 H 0.1097 0.84452 0.13958 0.0
H895 H 0.08942 0.89946 0.17396 0.0
H896 H 0.07852 0.87682 0.20411 0.0
H897 H 0.11023 0.81546 0.31302 0.0
H898 H 0.10482 0.80483 0.27602 0.0
H899 H 0.07563 0.86492 0.26309 0.0
H900 H 0.08174 0.87594 0.2998 0.0
H901 H 0.09875 0.85319 0.23005 0.0
H902 H 0.04586 0.81951 0.27575 0.0
H903 H 0.03402 0.79722 0.30585 0.0
H904 H 0.06654 0.74395 0.2795 0.0
H905 H 0.07877 0.76603 0.24936 0.0
C906 C 0.0269 0.82006 0.16225 0.0
C907 C 0.02692 0.79957 0.15335 0.0
C908 C 0.04171 0.82581 0.17783 0.0
C909 C 0.0567 0.81116 0.18479 0.0
C910 C 0.05766 0.79122 0.17495 0.0
C911 C 0.04299 0.78552 0.15923 0.0
C912 C 0.06863 0.81538 0.20459 0.0
C913 C 0.06405 0.80227 0.22203 0.0
C914 C 0.08165 0.83372 0.20731 0.0
C915 C 0.08792 0.84744 0.1891 0.0
C916 C 0.0968 0.83852 0.17071 0.0
C917 C 0.10286 0.85149 0.15367 0.0
C918 C 0.10021 0.87343 0.15485 0.0
C919 C 0.09148 0.88246 0.17307 0.0
C920 C 0.08538 0.86956 0.19016 0.0
C921 C 0.10276 0.82643 0.30223 0.0
C922 C 0.09606 0.84637 0.30933 0.0
C923 C 0.09974 0.82037 0.28111 0.0
C924 C 0.0895 0.83395 0.2669 0.0
C925 C 0.08358 0.8542 0.27378 0.0
C926 C 0.08692 0.86041 0.2948 0.0
C927 C 0.08329 0.82654 0.24543 0.0
C928 C 0.08885 0.83907 0.22778 0.0
C929 C 0.07091 0.80777 0.24246 0.0
C930 C 0.06342 0.79446 0.26046 0.0
C931 C 0.05058 0.80308 0.27646 0.0
C932 C 0.04379 0.79049 0.29351 0.0
C933 C 0.04958 0.7692 0.29463 0.0
C934 C 0.06211 0.76045 0.27864 0.0
C935 C 0.06896 0.77299 0.26157 0.0
H936 H 0.04432 0.75948 0.30784 0.0
H937 H 0.10495 0.88345 0.14165 0.0
H938 H 0.45959 0.76359 0.43978 0.0
H939 H 0.43421 0.78312 0.46119 0.0
H940 H 0.47151 0.84073 0.45254 0.0
H941 H 0.49665 0.82139 0.43054 0.0
H942 H 0.44112 0.80104 0.49724 0.0
H943 H 0.43978 0.88405 0.4565 0.0
H944 H 0.44207 0.89906 0.42041 0.0
H945 H 0.41931 0.8399 0.39414 0.0
H946 H 0.41656 0.82463 0.43006 0.0
H947 H 0.417 0.87648 0.5697 0.0
H948 H 0.43304 0.86603 0.53626 0.0
H949 H 0.37095 0.85322 0.50974 0.0
H950 H 0.35452 0.86416 0.54324 0.0
H951 H 0.40815 0.86987 0.47977 0.0
H952 H 0.385 0.81247 0.52662 0.0
H953 H 0.38045 0.79537 0.56144 0.0
H954 H 0.44772 0.80017 0.57245 0.0
H955 H 0.45266 0.81733 0.53751 0.0
C956 C 0.46235 0.78043 0.44239 0.0
C957 C 0.48015 0.79097 0.43364 0.0
C958 C 0.44778 0.79158 0.45451 0.0
C959 C 0.45083 0.81341 0.45822 0.0
C960 C 0.46859 0.82399 0.44947 0.0
C961 C 0.48307 0.81288 0.43714 0.0
C962 C 0.43656 0.82459 0.47291 0.0
C963 C 0.43377 0.81595 0.49321 0.0
C964 C 0.4268 0.844 0.46767 0.0
C965 C 0.42815 0.85314 0.446 0.0
C966 C 0.43516 0.87427 0.44304 0.0
C967 C 0.43656 0.88282 0.4226 0.0
C968 C 0.4309 0.87043 0.40499 0.0
C969 C 0.42376 0.84947 0.40778 0.0
C970 C 0.42231 0.84085 0.42818 0.0
C971 C 0.40664 0.87204 0.55663 0.0
C972 C 0.3845 0.87025 0.55936 0.0
C973 C 0.41587 0.86624 0.53747 0.0
C974 C 0.40314 0.85863 0.52078 0.0
C975 C 0.38096 0.85907 0.52255 0.0
C976 C 0.37166 0.865 0.54177 0.0
C977 C 0.41317 0.84628 0.50381 0.0
C978 C 0.41531 0.85477 0.48338 0.0
C979 C 0.42199 0.82643 0.50859 0.0
C980 C 0.41916 0.8163 0.52961 0.0
C981 C 0.39879 0.81003 0.53655 0.0
C982 C 0.39615 0.80028 0.55629 0.0
C983 C 0.41376 0.79675 0.56925 0.0
C984 C 0.43409 0.80293 0.56242 0.0
C985 C 0.43683 0.81261 0.54262 0.0
H986 H 0.41169 0.78915 0.58452 0.0
H987 H 0.43201 0.87707 0.38918 0.0
H988 H 0.46375 0.19508 0.65078 0.0
H989 H 0.45475 0.17339 0.68168 0.0
H990 H 0.40567 0.21716 0.69877 0.0
H991 H 0.41431 0.23878 0.66777 0.0
H992 H 0.46055 0.18847 0.7207 0.0
H993 H 0.36892 0.19241 0.73007 0.0
H994 H 0.3369 0.19181 0.70747 0.0
H995 H 0.37036 0.15746 0.6594 0.0
H996 H 0.40249 0.15759 0.68182 0.0
H997 H 0.42603 0.18179 0.82772 0.0
H998 H 0.42965 0.19275 0.79056 0.0
H999 H 0.41218 0.12939 0.77007 0.0
H1000 H 0.40875 0.11821 0.80707 0.0
H1001 H 0.39086 0.16257 0.74818 0.0
H1002 H 0.461 0.14107 0.76766 0.0
H1003 H 0.49324 0.14079 0.78993 0.0
H1004 H 0.50339 0.20746 0.7787 0.0
H1005 H 0.47101 0.20821 0.75665 0.0
C1006 C 0.45064 0.1998 0.66078 0.0
C1007 C 0.43996 0.21883 0.65701 0.0
C1008 C 0.44556 0.1874 0.67845 0.0
C1009 C 0.42966 0.19374 0.69257 0.0
C1010 C 0.41787 0.21185 0.68796 0.0
C1011 C 0.42289 0.22424 0.67025 0.0
C1012 C 0.42735 0.18321 0.71342 0.0
C1013 C 0.44533 0.18263 0.7266 0.0
C1014 C 0.40751 0.17558 0.72109 0.0
C1015 C 0.38817 0.17515 0.70759 0.0
C1016 C 0.36942 0.18463 0.71472 0.0
C1017 C 0.35125 0.1844 0.70193 0.0
C1018 C 0.35161 0.17465 0.68199 0.0
C1019 C 0.37013 0.16507 0.67482 0.0
C1020 C 0.38833 0.16525 0.68755 0.0
C1021 C 0.42298 0.1702 0.8153 0.0
C1022 C 0.4173 0.14911 0.82027 0.0
C1023 C 0.42506 0.17647 0.79414 0.0
C1024 C 0.42123 0.16181 0.77771 0.0
C1025 C 0.41518 0.14088 0.7826 0.0
C1026 C 0.41339 0.13452 0.80372 0.0
C1027 C 0.42394 0.16826 0.75537 0.0
C1028 C 0.40607 0.16819 0.74206 0.0
C1029 C 0.4439 0.17515 0.74747 0.0
C1030 C 0.46344 0.17473 0.76067 0.0
C1031 C 0.46999 0.15571 0.7701 0.0
C1032 C 0.48831 0.15546 0.78265 0.0
C1033 C 0.50031 0.17411 0.78578 0.0
C1034 C 0.49406 0.19303 0.7763 0.0
C1035 C 0.47573 0.19338 0.76376 0.0
H1036 H 0.51447 0.17389 0.79553 0.0
H1037 H 0.33754 0.1745 0.67211 0.0
H1038 H 0.07028 0.19967 0.90529 0.0
H1039 H 0.09083 0.17737 0.9291 0.0
H1040 H 0.03397 0.14101 0.94427 0.0
H1041 H 0.01368 0.16255 0.91983 0.0
H1042 H 0.08511 0.17877 0.96881 0.0
H1043 H 0.04395 0.09464 0.96734 0.0
H1044 H 0.03011 0.06892 0.94096 0.0
H1045 H 0.07115 0.09615 0.89339 0.0
H1046 H 0.08548 0.12185 0.91954 0.0
H1047 H 0.08309 0.13513 0.06882 0.0
H1048 H 0.06925 0.14028 0.03295 0.0
H1049 H 0.12321 0.10821 0.00677 0.0
H1050 H 0.13737 0.10323 0.04258 0.0
H1051 H 0.0804 0.10161 0.98454 0.0
H1052 H 0.13242 0.15404 0.00714 0.0
H1053 H 0.14841 0.17871 0.03339 0.0
H1054 H 0.0907 0.21392 0.03525 0.0
H1055 H 0.07422 0.18917 0.00933 0.0
C1056 C 0.06236 0.18643 0.91315 0.0
C1057 C 0.04035 0.183 0.91093 0.0
C1058 C 0.07409 0.17373 0.92678 0.0
C1059 C 0.06396 0.15757 0.93861 0.0
C1060 C 0.04229 0.1531 0.93511 0.0
C1061 C 0.03063 0.16556 0.92119 0.0
C1062 C 0.07493 0.14797 0.95699 0.0
C1063 C 0.08433 0.16184 0.97194 0.0
C1064 C 0.07408 0.12585 0.96122 0.0
C1065 C 0.0657 0.11028 0.94542 0.0
C1066 C 0.05013 0.09507 0.95129 0.0
C1067 C 0.04217 0.08051 0.93636 0.0
C1068 C 0.04971 0.08093 0.9155 0.0
C1069 C 0.06527 0.09589 0.90954 0.0
C1070 C 0.07329 0.11048 0.92441 0.0
C1071 C 0.09171 0.12864 0.0555 0.0
C1072 C 0.11149 0.11915 0.05841 0.0
C1073 C 0.08376 0.13155 0.03505 0.0
C1074 C 0.09536 0.12474 0.01735 0.0
C1075 C 0.11408 0.1135 0.0203 0.0
C1076 C 0.1222 0.11084 0.04072 0.0
C1077 C 0.08977 0.13255 -0.00391 0.0
C1078 C 0.08142 0.11843 0.98089 0.0
C1079 C 0.09201 0.15436 0.99128 0.0
C1080 C 0.10203 0.16964 0.00644 0.0
C1081 C 0.12309 0.16695 0.01327 0.0
C1082 C 0.13225 0.18095 0.02807 0.0
C1083 C 0.12056 0.19785 0.03601 0.0
C1084 C 0.09972 0.20081 0.0291 0.0
C1085 C 0.09047 0.18681 0.01435 0.0
H1086 H 0.12768 0.20866 0.04749 0.0
H1087 H 0.04352 0.06964 0.90397 0.0
H1088 H 0.37266 0.06086 0.20437 0.0
H1089 H 0.34989 0.0866 0.18686 0.0
H1090 H 0.31299 0.03507 0.15916 0.0
H1091 H 0.33623 0.00953 0.17557 0.0
H1092 H 0.31092 0.06675 0.13425 0.0
H1093 H 0.30261 0.05693 0.21085 0.0
H1094 H 0.31515 0.05835 0.24797 0.0
H1095 H 0.32885 0.12513 0.2417 0.0
H1096 H 0.31658 0.12401 0.20445 0.0
H1097 H 0.20182 0.09534 0.17429 0.0
H1098 H 0.23914 0.0894 0.18268 0.0
H1099 H 0.25806 0.12253 0.12553 0.0
H1100 H 0.22064 0.12744 0.11655 0.0
H1101 H 0.27479 0.10892 0.18972 0.0
H1102 H 0.29891 0.09727 0.10271 0.0
H1103 H 0.28244 0.08981 0.06782 0.0
H1104 H 0.23078 0.05639 0.09835 0.0
H1105 H 0.24708 0.06344 0.13336 0.0
C1106 C 0.36012 0.0551 0.19394 0.0
C1107 C 0.3559 0.0332 0.19167 0.0
C1108 C 0.34707 0.06981 0.18403 0.0
C1109 C 0.32931 0.06277 0.17228 0.0
C1110 C 0.32649 0.04095 0.16826 0.0
C1111 C 0.33978 0.02629 0.17775 0.0
C1112 C 0.31189 0.07731 0.16679 0.0
C1113 C 0.30326 0.07631 0.14626 0.0
C1114 C 0.30168 0.08963 0.18251 0.0
C1115 C 0.30896 0.09033 0.20486 0.0
C1116 C 0.3084 0.07188 0.21739 0.0
C1117 C 0.31545 0.07263 0.23843 0.0
C1118 C 0.32286 0.0918 0.24717 0.0
C1119 C 0.32317 0.11028 0.23489 0.0
C1120 C 0.31618 0.1096 0.21382 0.0
C1121 C 0.21398 0.10172 0.16379 0.0
C1122 C 0.20848 0.11146 0.14462 0.0
C1123 C 0.23531 0.0984 0.16859 0.0
C1124 C 0.25139 0.10508 0.15446 0.0
C1125 C 0.24591 0.11675 0.13637 0.0
C1126 C 0.22458 0.11959 0.1313 0.0
C1127 C 0.27333 0.09751 0.15749 0.0
C1128 C 0.28286 0.1 0.17748 0.0
C1129 C 0.28384 0.08573 0.14157 0.0
C1130 C 0.27406 0.08114 0.12061 0.0
C1131 C 0.28406 0.0883 0.10194 0.0
C1132 C 0.27476 0.08414 0.08216 0.0
C1133 C 0.25553 0.07271 0.08088 0.0
C1134 C 0.24562 0.0653 0.09937 0.0
C1135 C 0.25489 0.06938 0.11917 0.0
H1136 H 0.24834 0.06954 0.06556 0.0
H1137 H 0.32831 0.09236 0.26346 0.0
H1138 H 0.21756 0.06758 0.48955 0.0
H1139 H 0.19394 0.03686 0.48347 0.0
H1140 H 0.2097 0.038 0.41685 0.0
H1141 H 0.23368 0.06857 0.42279 0.0
H1142 H 0.16385 0.03384 0.42828 0.0
H1143 H 0.23366 0.00439 0.44426 0.0
H1144 H 0.26486 0.00103 0.46765 0.0
H1145 H 0.22464 0.97786 0.51792 0.0
H1146 H 0.19313 0.98139 0.4949 0.0
H1147 H 0.14159 0.93987 0.37752 0.0
H1148 H 0.15582 0.97174 0.39387 0.0
H1149 H 0.14768 0.9438 0.45595 0.0
H1150 H 0.13396 0.91087 0.43933 0.0
H1151 H 0.18441 0.96275 0.45427 0.0
H1152 H 0.11541 0.98567 0.43772 0.0
H1153 H 0.08303 0.98998 0.41624 0.0
H1154 H 0.11857 0.02651 0.37044 0.0
H1155 H 0.15124 0.02215 0.39146 0.0
C1156 C 0.21593 0.06137 0.47357 0.0
C1157 C 0.22751 0.07044 0.45662 0.0
C1158 C 0.20246 0.04383 0.47017 0.0
C1159 C 0.20017 0.03527 0.44976 0.0
C1160 C 0.21131 0.04452 0.43272 0.0
C1161 C 0.22504 0.06187 0.43615 0.0
C1162 C 0.18665 0.01624 0.44614 0.0
C1163 C 0.16827 0.01825 0.43386 0.0
C1164 C 0.19202 -0.00381 0.4544 0.0
C1165 C 0.21103 0.99341 0.46796 0.0
C1166 C 0.23145 -0.00129 0.46034 0.0
C1167 C 0.24919 -0.00324 0.47352 0.0
C1168 C 0.24671 0.98936 0.49429 0.0
C1169 C 0.22651 0.98366 0.50185 0.0
C1170 C 0.20872 0.98562 0.48874 0.0
C1171 C 0.14247 0.94045 0.39469 0.0
C1172 C 0.13642 0.92286 0.40716 0.0
C1173 C 0.15058 0.95884 0.40406 0.0
C1174 C 0.15235 0.96046 0.42619 0.0
C1175 C 0.14625 0.94298 0.43882 0.0
C1176 C 0.13839 0.92424 0.42936 0.0
C1177 C 0.16185 0.98008 0.43555 0.0
C1178 C 0.17952 0.97831 0.44901 0.0
C1179 C 0.15553 0.00047 0.42874 0.0
C1180 C 0.13581 0.00355 0.4162 0.0
C1181 C 0.11634 0.99457 0.42304 0.0
C1182 C 0.09793 -0.00299 0.41093 0.0
C1183 C 0.09874 0.0085 0.39198 0.0
C1184 C 0.11796 0.01763 0.38514 0.0
C1185 C 0.13642 0.01522 0.39718 0.0
H1186 H 0.08448 0.01033 0.3826 0.0
H1187 H 0.26042 0.98806 0.50452 0.0
H1188 H 0.15473 0.88817 0.76675 0.0
H1189 H 0.17393 0.86441 0.74292 0.0
H1190 H 0.18909 0.91764 0.70206 0.0
H1191 H 0.16892 0.94083 0.72484 0.0
H1192 H 0.18665 0.88521 0.67875 0.0
H1193 H 0.2218 0.90052 0.74784 0.0
H1194 H 0.22389 0.89837 0.78693 0.0
H1195 H 0.21774 0.83039 0.78363 0.0
H1196 H 0.21547 0.83221 0.74451 0.0
H1197 H 0.30566 0.89058 0.68434 0.0
H1198 H 0.27156 0.88544 0.70184 0.0
H1199 H 0.24917 0.84699 0.64921 0.0
H1200 H 0.2832 0.85313 0.63103 0.0
H1201 H 0.2483 0.85543 0.71674 0.0
H1202 H 0.19631 0.85484 0.64324 0.0
H1203 H 0.19758 0.86443 0.60524 0.0
H1204 H 0.24273 0.91464 0.61892 0.0
H1205 H 0.24154 0.90544 0.657 0.0
C1206 C 0.1618 0.8946 0.75239 0.0
C1207 C 0.1607 0.91638 0.7478 0.0
C1208 C 0.17276 0.88104 0.73881 0.0
C1209 C 0.18343 0.88929 0.72095 0.0
C1210 C 0.181 0.91078 0.71568 0.0
C1211 C 0.16959 0.92413 0.72885 0.0
C1212 C 0.19955 0.87695 0.70929 0.0
C1213 C 0.19995 0.87827 0.68703 0.0
C1214 C 0.21684 0.86762 0.71997 0.0
C1215 C 0.21818 0.86652 0.74339 0.0
C1216 C 0.22081 0.88514 0.75551 0.0
C1217 C 0.22203 0.88398 0.77764 0.0
C1218 C 0.22087 0.86426 0.78776 0.0
C1219 C 0.21856 0.84566 0.77577 0.0
C1220 C 0.2173 0.84674 0.75363 0.0
C1221 C 0.29355 0.8809 0.67655 0.0
C1222 C 0.29687 0.87259 0.65619 0.0
C1223 C 0.27409 0.87779 0.68664 0.0
C1224 C 0.25767 0.86599 0.67676 0.0
C1225 C 0.26144 0.85648 0.65696 0.0
C1226 C 0.28083 0.86003 0.6466 0.0
C1227 C 0.23626 0.86583 0.68655 0.0
C1228 C 0.23466 0.86155 0.70834 0.0
C1229 C 0.21833 0.8735 0.67559 0.0
C1230 C 0.21905 0.87926 0.65283 0.0
C1231 C 0.20648 0.86792 0.6381 0.0
C1232 C 0.20719 0.87329 0.61657 0.0
C1233 C 0.2203 0.89007 0.60966 0.0
C1234 C 0.23265 0.90159 0.62428 0.0
C1235 C 0.23196 0.89631 0.64582 0.0
H1236 H 0.22085 0.89418 0.59299 0.0
H1237 H 0.22182 0.86339 0.8049 0.0
H1238 H 0.25317 0.94361 0.95741 0.0
H1239 H 0.27575 0.97333 0.94518 0.0
H1240 H 0.33148 0.94029 0.96593 0.0
H1241 H 0.30913 0.9109 0.97849 0.0
H1242 H 0.33339 0.97989 0.97885 0.0
H1243 H 0.31674 0.9435 0.91372 0.0
H1244 H 0.29448 0.92826 0.88509 0.0
H1245 H 0.26923 0.98977 0.87217 0.0
H1246 H 0.29094 0.00531 0.90105 0.0
H1247 H 0.38945 0.04832 0.89012 0.0
H1248 H 0.37348 0.01565 0.90412 0.0
H1249 H 0.34482 0.05105 0.95496 0.0
H1250 H 0.36102 0.08384 0.94129 0.0
H1251 H 0.33161 0.0087 0.90575 0.0
H1252 H 0.33678 0.01754 -0.00267 0.0
H1253 H 0.36164 0.03196 0.02427 0.0
H1254 H 0.41396 0.02329 0.98158 0.0
H1255 H 0.38949 0.00854 0.95451 0.0
C1256 C 0.27024 0.94268 0.95923 0.0
C1257 C 0.27939 0.92499 0.96894 0.0
C1258 C 0.28311 0.95961 0.95221 0.0
C1259 C 0.30529 0.95894 0.95458 0.0
C1260 C 0.3144 0.94116 0.96404 0.0
C1261 C 0.30159 0.92436 0.97115 0.0
C1262 C 0.31912 0.97694 0.9478 0.0
C1263 C 0.33297 0.98622 0.96285 0.0
C1264 C 0.31877 0.985 0.92685 0.0
C1265 C 0.30524 0.97551 0.90984 0.0
C1266 C 0.3062 0.95373 0.90501 0.0
C1267 C 0.29371 0.94504 0.88869 0.0
C1268 C 0.28036 0.95801 0.8769 0.0
C1269 C 0.27949 0.97971 0.88139 0.0
C1270 C 0.29186 0.98845 0.89776 0.0
C1271 C 0.38011 0.04913 0.90454 0.0
C1272 C 0.37631 0.06871 0.91447 0.0
C1273 C 0.37098 0.03045 0.91247 0.0
C1274 C 0.35789 0.03099 0.93046 0.0
C1275 C 0.35502 0.0503 0.94113 0.0
C1276 C 0.36426 0.06903 0.93327 0.0
C1277 C 0.34562 0.01178 0.93678 0.0
C1278 C 0.33199 0.00237 0.92171 0.0
C1279 C 0.34635 0.00347 0.95756 0.0
C1280 C 0.36125 0.01213 0.97382 0.0
C1281 C 0.3536 0.01864 0.99372 0.0
C1282 C 0.36762 0.02688 0.00901 0.0
C1283 C 0.38935 0.0286 0.00461 0.0
C1284 C 0.39712 0.02203 0.98494 0.0
C1285 C 0.38317 0.01376 0.9696 0.0
H1286 H 0.40018 0.035 0.01647 0.0
H1287 H 0.27076 0.95126 0.86422 0.0
H1288 H 0.33653 0.93519 0.27991 0.0
H1289 H 0.30509 0.91917 0.29653 0.0
H1290 H 0.26836 0.97344 0.27829 0.0
H1291 H 0.30031 0.99015 0.26291 0.0
H1292 H 0.25621 0.96184 0.31485 0.0
H1293 H 0.26722 0.92405 0.25008 0.0
H1294 H 0.28708 0.90366 0.22343 0.0
H1295 H 0.29663 0.85397 0.26885 0.0
H1296 H 0.27705 0.87419 0.29586 0.0
H1297 H 0.15582 0.90684 0.32028 0.0
H1298 H 0.18797 0.92236 0.30434 0.0
H1299 H 0.22668 0.8837 0.34474 0.0
H1300 H 0.19457 0.86841 0.36123 0.0
H1301 H 0.23691 0.88713 0.29689 0.0
H1302 H 0.22361 0.9276 0.36137 0.0
H1303 H 0.20157 0.94908 0.38527 0.0
H1304 H 0.19328 0.99509 0.33589 0.0
H1305 H 0.21488 0.97366 0.31154 0.0
C1306 C 0.32174 0.94371 0.2796 0.0
C1307 C 0.32065 0.96376 0.27004 0.0
C1308 C 0.30377 0.9345 0.28894 0.0
C1309 C 0.2842 0.94481 0.28811 0.0
C1310 C 0.28325 0.96514 0.27902 0.0
C1311 C 0.30144 0.97465 0.27022 0.0
C1312 C 0.26474 0.93427 0.29658 0.0
C1313 C 0.25189 0.9456 0.31067 0.0
C1314 C 0.25913 0.91299 0.29129 0.0
C1315 C 0.27083 0.90073 0.27505 0.0
C1316 C 0.27367 0.90883 0.25442 0.0
C1317 C 0.28486 0.8973 0.23925 0.0
C1318 C 0.29316 0.87756 0.24446 0.0
C1319 C 0.29022 0.86928 0.26485 0.0
C1320 C 0.27905 0.88076 0.28009 0.0
C1321 C 0.17117 0.90139 0.32555 0.0
C1322 C 0.17277 0.88647 0.34201 0.0
C1323 C 0.18944 0.91035 0.31652 0.0
C1324 C 0.2095 0.90423 0.32358 0.0
C1325 C 0.21122 0.88859 0.33924 0.0
C1326 C 0.19294 0.87992 0.3486 0.0
C1327 C 0.22871 0.91472 0.31505 0.0
C1328 C 0.24138 0.90337 0.30096 0.0
C1329 C 0.23384 0.93612 0.3199 0.0
C1330 C 0.22068 0.94888 0.33454 0.0
C1331 C 0.21686 0.94215 0.35551 0.0
C1332 C 0.20449 0.95434 0.36916 0.0
C1333 C 0.19602 0.97342 0.36209 0.0
C1334 C 0.19984 0.9803 0.34134 0.0
C1335 C 0.21214 0.96813 0.32761 0.0
H1336 H 0.18661 0.98295 0.37271 0.0
H1337 H 0.30182 0.86865 0.2327 0.0
H1338 H 0.30253 0.10046 0.53962 0.0
H1339 H 0.31583 0.07195 0.56186 0.0
H1340 H 0.35106 0.04753 0.50874 0.0
H1341 H 0.33799 0.07597 0.48635 0.0
H1342 H 0.31597 0.02209 0.52372 0.0
H1343 H 0.37781 0.05939 0.55033 0.0
H1344 H 0.39727 0.08909 0.56755 0.0
H1345 H 0.36104 0.07947 0.62461 0.0
H1346 H 0.34112 0.0499 0.60763 0.0
H1347 H 0.34673 0.92579 0.56715 0.0
H1348 H 0.34608 0.96066 0.55072 0.0
H1349 H 0.32338 0.9878 0.60928 0.0
H1350 H 0.32477 0.95285 0.62621 0.0
H1351 H 0.35309 0.01276 0.59244 0.0
H1352 H 0.28958 0.97878 0.56721 0.0
H1353 H 0.26724 0.9504 0.55119 0.0
H1354 H 0.30251 0.95569 0.49302 0.0
H1355 H 0.32523 0.98395 0.50877 0.0
C1356 C 0.31372 0.08948 0.53285 0.0
C1357 C 0.3187 0.09002 0.51108 0.0
C1358 C 0.32143 0.07332 0.54564 0.0
C1359 C 0.33417 0.05762 0.53678 0.0
C1360 C 0.34118 0.05958 0.51575 0.0
C1361 C 0.33361 0.07579 0.50298 0.0
C1362 C 0.33578 0.03705 0.54756 0.0
C1363 C 0.32448 0.01989 0.53852 0.0
C1364 C 0.34588 0.03472 0.56739 0.0
C1365 C 0.35782 0.05254 0.57762 0.0
C1366 C 0.37383 0.06374 0.56648 0.0
C1367 C 0.38499 0.08052 0.57621 0.0
C1368 C 0.38036 0.0862 0.59714 0.0
C1369 C 0.3646 0.07507 0.60839 0.0
C1370 C 0.35339 0.05828 0.59872 0.0
C1371 C 0.34136 0.93911 0.5765 0.0
C1372 C 0.33555 0.93659 0.59789 0.0
C1373 C 0.34103 0.95904 0.56709 0.0
C1374 C 0.33438 0.97672 0.57871 0.0
C1375 C 0.32854 0.9743 0.60007 0.0
C1376 C 0.32919 0.95435 0.60965 0.0
C1377 C 0.3336 -0.00233 0.56836 0.0
C1378 C 0.34476 0.01492 0.57754 0.0
C1379 C 0.32292 0.00033 0.54882 0.0
C1380 C 0.30926 0.98333 0.53926 0.0
C1381 C 0.29269 0.97377 0.55106 0.0
C1382 C 0.27994 0.95772 0.54202 0.0
C1383 C 0.28354 0.95116 0.52115 0.0
C1384 C 0.29981 0.96072 0.50922 0.0
C1385 C 0.3126 0.97678 0.51819 0.0
H1386 H 0.27362 0.93876 0.51416 0.0
H1387 H 0.38902 0.0992 0.60465 0.0
H1388 H 0.19799 -0.00288 0.83533 0.0
H1389 H 0.22891 0.01995 0.84284 0.0
H1390 H 0.22762 0.04357 0.77856 0.0
H1391 H 0.19631 0.02129 0.77114 0.0
H1392 H 0.26715 0.02144 0.828 0.0
H1393 H 0.24556 0.09478 0.77724 0.0
H1394 H 0.21363 0.11296 0.76446 0.0
H1395 H 0.17767 0.08785 0.81696 0.0
H1396 H 0.20943 0.06976 0.8302 0.0
H1397 H 0.35761 0.08789 0.82513 0.0
H1398 H 0.32585 0.07048 0.81015 0.0
H1399 H 0.28643 0.10525 0.85353 0.0
H1400 H 0.31802 0.12262 0.86864 0.0
H1401 H 0.26736 0.099 0.81392 0.0
H1402 H 0.30226 0.0604 0.86873 0.0
H1403 H 0.33286 0.04386 0.88598 0.0
H1404 H 0.33843 0.00047 0.83367 0.0
H1405 H 0.30824 0.01731 0.81574 0.0
C1406 C 0.20428 0.00718 0.8228 0.0
C1407 C 0.19463 0.0075 0.80269 0.0
C1408 C 0.22197 0.02019 0.8271 0.0
C1409 C 0.23041 0.03366 0.81134 0.0
C1410 C 0.2211 0.03364 0.7911 0.0
C1411 C 0.20326 0.02083 0.78686 0.0
C1412 C 0.24904 0.04759 0.81611 0.0
C1413 C 0.26719 0.03836 0.8248 0.0
C1414 C 0.24899 0.06976 0.81228 0.0
C1415 C 0.22983 0.08072 0.80456 0.0
C1416 C 0.23085 0.09319 0.78608 0.0
C1417 C 0.21278 0.10347 0.77876 0.0
C1418 C 0.19361 0.1015 0.78985 0.0
C1419 C 0.1925 0.08929 0.80834 0.0
C1420 C 0.21052 0.079 0.81574 0.0
C1421 C 0.34214 0.09227 0.83105 0.0
C1422 C 0.34027 0.10633 0.84828 0.0
C1423 C 0.32405 0.08229 0.82252 0.0
C1424 C 0.30391 0.0864 0.83099 0.0
C1425 C 0.30186 0.10187 0.84684 0.0
C1426 C 0.31992 0.11167 0.85552 0.0
C1427 C 0.2854 0.07273 0.82545 0.0
C1428 C 0.26732 0.082 0.81675 0.0
C1429 C 0.28521 0.0507 0.82989 0.0
C1430 C 0.30321 0.04036 0.84073 0.0
C1431 C 0.31017 0.04751 0.86077 0.0
C1432 C 0.32744 0.03808 0.87068 0.0
C1433 C 0.33765 0.02115 0.86089 0.0
C1434 C 0.33056 0.01363 0.84119 0.0
C1435 C 0.3134 0.02317 0.83111 0.0
H1436 H 0.351 0.01382 0.8686 0.0
H1437 H 0.17964 0.10946 0.78414 0.0
H1438 H 0.22404 0.91494 0.06083 0.0
H1439 H 0.20139 0.93758 0.08165 0.0
H1440 H 0.14611 0.91247 0.04873 0.0
H1441 H 0.16917 0.89049 0.0268 0.0
H1442 H 0.14292 0.95099 0.04794 0.0
H1443 H 0.15231 0.90777 0.10582 0.0
H1444 H 0.1689 0.88378 0.13157 0.0
H1445 H 0.21068 0.93439 0.15234 0.0
H1446 H 0.19457 0.95864 0.12655 0.0
H1447 H 0.13676 0.0407 0.13687 0.0
H1448 H 0.13344 0.00296 0.12779 0.0
H1449 H 0.16008 0.01624 0.0659 0.0
H1450 H 0.16239 0.0539 0.07453 0.0
H1451 H 0.16024 0.97533 0.12093 0.0
H1452 H 0.14521 0.98494 0.02864 0.0
H1453 H 0.1223 0.00636 0.00569 0.0
H1454 H 0.08034 0.01752 0.05811 0.0
H1455 H 0.10277 0.99589 0.08134 0.0
C1456 C 0.20702 0.91386 0.0583 0.0
C1457 C 0.1984 0.90114 0.04203 0.0
C1458 C 0.19396 0.92667 0.07046 0.0
C1459 C 0.17188 0.92664 0.06706 0.0
C1460 C 0.16307 0.91285 0.05169 0.0
C1461 C 0.17625 0.90029 0.03917 0.0
C1462 C 0.15898 0.94342 0.07716 0.0
C1463 C 0.14638 0.95608 0.06404 0.0
C1464 C 0.16218 0.94951 0.0986 0.0
C1465 C 0.17216 0.93506 0.11419 0.0
C1466 C 0.16511 0.91378 0.11579 0.0
C1467 C 0.17443 0.90013 0.13042 0.0
C1468 C 0.19083 0.90756 0.14359 0.0
C1469 C 0.19793 0.92867 0.14217 0.0
C1470 C 0.18866 0.9424 0.12758 0.0
C1471 C 0.14175 0.0355 0.12128 0.0
C1472 C 0.14993 0.05015 0.10641 0.0
C1473 C 0.13977 0.01397 0.11609 0.0
C1474 C 0.14615 0.00672 0.09603 0.0
C1475 C 0.15436 0.02144 0.08123 0.0
C1476 C 0.15594 0.04297 0.08625 0.0
C1477 C 0.14624 0.9837 0.09094 0.0
C1478 C 0.15617 0.96986 0.10509 0.0
C1479 C 0.13949 0.976 0.07088 0.0
C1480 C 0.12574 0.98875 0.05677 0.0
C1481 C 0.13099 0.99176 0.03525 0.0
C1482 C 0.11811 0.00401 0.0222 0.0
C1483 C 0.09989 0.0133 0.03044 0.0
C1484 C 0.09448 0.01034 0.05175 0.0
C1485 C 0.10729 -0.0019 0.06488 0.0
H1486 H 0.08996 0.0228 0.0203 0.0
H1487 H 0.19803 0.89697 0.1549 0.0
H1488 H 0.22261 0.34474 0.04594 0.0
H1489 H 0.20208 0.31396 0.05892 0.0
H1490 H 0.25998 0.2846 0.07915 0.0
H1491 H 0.28062 0.31533 0.06659 0.0
H1492 H 0.23293 0.26112 0.04863 0.0
H1493 H 0.23018 0.29882 0.11565 0.0
H1494 H 0.22204 0.32928 0.1387 0.0
H1495 H 0.15616 0.32401 0.1213 0.0
H1496 H 0.16398 0.29369 0.09788 0.0
H1497 H 0.20048 0.16783 0.09995 0.0
H1498 H 0.21626 0.2025 0.09167 0.0
H1499 H 0.15377 0.22854 0.08447 0.0
H1500 H 0.13773 0.1939 0.09296 0.0
H1501 H 0.18034 0.25502 0.10712 0.0
H1502 H 0.18092 0.21808 0.04151 0.0
H1503 H 0.18711 0.18832 0.01696 0.0
H1504 H 0.25422 0.1933 0.02882 0.0
H1505 H 0.24842 0.22292 0.05372 0.0
C1506 C 0.23093 0.33191 0.05354 0.0
C1507 C 0.25323 0.33234 0.05509 0.0
C1508 C 0.21918 0.31442 0.06098 0.0
C1509 C 0.22962 0.29712 0.06986 0.0
C1510 C 0.25175 0.2979 0.07231 0.0
C1511 C 0.26347 0.31548 0.06518 0.0
C1512 C 0.2178 0.27729 0.07453 0.0
C1513 C 0.22163 0.25965 0.06158 0.0
C1514 C 0.2024 0.27588 0.09079 0.0
C1515 C 0.19772 0.29415 0.10481 0.0
C1516 C 0.214 0.3043 0.11655 0.0
C1517 C 0.20943 0.3215 0.12973 0.0
C1518 C 0.18861 0.32862 0.13141 0.0
C1519 C 0.1723 0.31851 0.11995 0.0
C1520 C 0.17678 0.30131 0.10674 0.0
C1521 C 0.19006 0.1809 0.09656 0.0
C1522 C 0.16786 0.1781 0.097 0.0
C1523 C 0.19911 0.20068 0.09184 0.0
C1524 C 0.18614 0.21796 0.0873 0.0
C1525 C 0.16399 0.21536 0.08798 0.0
C1526 C 0.1549 0.19555 0.09275 0.0
C1527 C 0.19592 0.23864 0.08158 0.0
C1528 C 0.19161 0.25647 0.09414 0.0
C1529 C 0.21061 0.24041 0.06466 0.0
C1530 C 0.21422 0.22262 0.04964 0.0
C1531 C 0.19699 0.21273 0.03903 0.0
C1532 C 0.20043 0.19589 0.02503 0.0
C1533 C 0.22104 0.18889 0.02138 0.0
C1534 C 0.23826 0.19874 0.03169 0.0
C1535 C 0.23491 0.21556 0.04574 0.0
H1536 H 0.22367 0.17586 0.01052 0.0
H1537 H 0.1851 0.34193 0.14164 0.0
H1538 H 0.66174 0.15244 0.94842 0.0
H1539 H 0.6467 0.17668 0.92277 0.0
H1540 H 0.70082 0.1683 0.88174 0.0
H1541 H 0.71613 0.14411 0.90753 0.0
H1542 H 0.69957 0.20724 0.8976 0.0
H1543 H 0.65087 0.16232 0.86228 0.0
H1544 H 0.62359 0.13408 0.85862 0.0
H1545 H 0.57899 0.17192 0.89278 0.0
H1546 H 0.60627 0.20011 0.89746 0.0
H1547 H 0.66492 0.31038 0.87156 0.0
H1548 H 0.67485 0.27341 0.86554 0.0
H1549 H 0.62402 0.25233 0.90702 0.0
H1550 H 0.61338 0.28905 0.91199 0.0
H1551 H 0.62658 0.22577 0.87579 0.0
H1552 H 0.67821 0.25992 0.92367 0.0
H1553 H 0.70572 0.28672 0.93325 0.0
H1554 H 0.7436 0.26761 0.88008 0.0
H1555 H 0.71618 0.24083 0.87009 0.0
C1556 C 0.67002 0.155 0.93354 0.0
C1557 C 0.69043 0.147 0.93029 0.0
C1558 C 0.66129 0.16876 0.91873 0.0
C1559 C 0.67282 0.17454 0.90047 0.0
C1560 C 0.69176 0.16413 0.89581 0.0
C1561 C 0.70051 0.15037 0.91063 0.0
C1562 C 0.66818 0.195 0.89013 0.0
C1563 C 0.68378 0.21113 0.89206 0.0
C1564 C 0.64749 0.20013 0.88337 0.0
C1565 C 0.63073 0.18341 0.88023 0.0
C1566 C 0.6353 0.16462 0.86915 0.0
C1567 C 0.6198 0.14858 0.8669 0.0
C1568 C 0.59951 0.15122 0.87538 0.0
C1569 C 0.5947 0.16992 0.88617 0.0
C1570 C 0.61021 0.18594 0.88865 0.0
C1571 C 0.65599 0.29778 0.87941 0.0
C1572 C 0.63865 0.30245 0.89252 0.0
C1573 C 0.66156 0.27671 0.87588 0.0
C1574 C 0.65033 0.26009 0.88601 0.0
C1575 C 0.63284 0.26484 0.8989 0.0
C1576 C 0.62693 0.28582 0.90196 0.0
C1577 C 0.65756 0.23788 0.88479 0.0
C1578 C 0.64253 0.2216 0.88052 0.0
C1579 C 0.67863 0.2325 0.89003 0.0
C1580 C 0.69505 0.24863 0.89597 0.0
C1581 C 0.69234 0.26156 0.91395 0.0
C1582 C 0.70792 0.27672 0.91947 0.0
C1583 C 0.72636 0.27893 0.90723 0.0
C1584 C 0.72928 0.26593 0.8895 0.0
C1585 C 0.71373 0.25077 0.8839 0.0
H1586 H 0.7384 0.29066 0.91153 0.0
H1587 H 0.58753 0.13877 0.87365 0.0
H1588 H 0.07565 0.46882 0.20911 0.0
H1589 H 0.04571 0.45732 0.18699 0.0
H1590 H 0.0043 0.45902 0.24162 0.0
H1591 H 0.03448 0.46965 0.264 0.0
H1592 H 0.99594 0.42503 0.22023 0.0
H1593 H 0.00459 0.49847 0.20234 0.0
H1594 H 0.02382 0.531 0.19095 0.0
H1595 H 0.03839 0.50175 0.1312 0.0
H1596 H 0.01947 0.46893 0.14234 0.0
H1597 H 0.90385 0.44365 0.14556 0.0
H1598 H 0.93674 0.45804 0.16082 0.0
H1599 H 0.96511 0.39638 0.15612 0.0
H1600 H 0.93206 0.38167 0.14139 0.0
H1601 H 0.97892 0.4615 0.15265 0.0
H1602 H 0.98763 0.3854 0.20237 0.0
H1603 H 0.9648 0.35499 0.21328 0.0
H1604 H 0.91017 0.39476 0.21265 0.0
H1605 H 0.93269 0.42542 0.20207 0.0
C1606 C 0.06013 0.46683 0.21636 0.0
C1607 C 0.0573 0.47016 0.23822 0.0
C1608 C 0.04303 0.46034 0.20371 0.0
C1609 C 0.0227 0.45761 0.21259 0.0
C1610 C 0.01985 0.46101 0.23444 0.0
C1611 C 0.03705 0.46714 0.24719 0.0
C1612 C 0.0045 0.45082 0.19916 0.0
C1613 C 0.99226 0.43305 0.20549 0.0
C1614 C -0.00055 0.46144 0.18004 0.0
C1615 C 0.01077 0.48118 0.17326 0.0
C1616 C 0.01202 0.49893 0.18683 0.0
C1617 C 0.02285 0.51742 0.18041 0.0
C1618 C 0.03236 0.51842 0.16038 0.0
C1619 C 0.03103 0.50094 0.14671 0.0
C1620 C 0.02024 0.4824 0.15307 0.0
C1621 C 0.91723 0.43323 0.14733 0.0
C1622 C 0.91524 0.4114 0.14284 0.0
C1623 C 0.93604 0.44152 0.15596 0.0
C1624 C 0.95309 0.42813 0.16002 0.0
C1625 C 0.9519 0.40684 0.15346 0.0
C1626 C 0.93303 0.39847 0.1451 0.0
C1627 C 0.97078 0.43565 0.17362 0.0
C1628 C 0.9828 0.45351 0.16737 0.0
C1629 C 0.97519 0.42559 0.19316 0.0
C1630 C 0.96183 0.40763 0.2012 0.0
C1631 C 0.97078 0.38768 0.20476 0.0
C1632 C 0.95787 0.37038 0.21078 0.0
C1633 C 0.936 0.37287 0.2134 0.0
C1634 C 0.92706 0.39278 0.21042 0.0
C1635 C 0.9399 0.41013 0.20445 0.0
H1636 H 0.92602 0.35946 0.218 0.0
H1637 H 0.04074 0.53275 0.15544 0.0
H1638 H 0.76895 0.83617 0.43421 0.0
H1639 H 0.77939 0.8102 0.40754 0.0
H1640 H 0.8448 0.81728 0.42708 0.0
H1641 H 0.8346 0.84326 0.45385 0.0
H1642 H 0.83829 0.80748 0.38161 0.0
H1643 H 0.81848 0.78343 0.45298 0.0
H1644 H 0.79407 0.7815 0.48359 0.0
H1645 H 0.74498 0.75496 0.44366 0.0
H1646 H 0.76905 0.75708 0.41273 0.0
H1647 H 0.88621 0.70638 0.37898 0.0
H1648 H 0.87268 0.7424 0.38233 0.0
H1649 H 0.80852 0.71789 0.37464 0.0
H1650 H 0.82202 0.68183 0.37261 0.0
H1651 H 0.81055 0.7384 0.40873 0.0
H1652 H 0.83361 0.75442 0.33874 0.0
H1653 H 0.85804 0.75639 0.30818 0.0
H1654 H 0.90036 0.79746 0.34349 0.0
H1655 H 0.87638 0.79547 0.3744 0.0
C1656 C 0.78565 0.83271 0.43245 0.0
C1657 C 0.80089 0.84136 0.44651 0.0
C1658 C 0.79158 0.81795 0.4171 0.0
C1659 C 0.8128 0.81173 0.41557 0.0
C1660 C 0.82835 0.82196 0.42804 0.0
C1661 C 0.82244 0.83663 0.44348 0.0
C1662 C 0.81806 0.79185 0.4045 0.0
C1663 C 0.83228 0.79229 0.38736 0.0
C1664 C 0.80981 0.7722 0.4119 0.0
C1665 C 0.79545 0.77067 0.43053 0.0
C1666 C 0.80243 0.77735 0.45071 0.0
C1667 C 0.78867 0.7762 0.46812 0.0
C1668 C 0.76796 0.76818 0.46556 0.0
C1669 C 0.761 0.76122 0.4456 0.0
C1670 C 0.77469 0.7624 0.42813 0.0
C1671 C 0.86929 0.70885 0.37744 0.0
C1672 C 0.85507 0.6915 0.37582 0.0
C1673 C 0.86154 0.72944 0.37919 0.0
C1674 C 0.83953 0.73292 0.37872 0.0
C1675 C 0.82554 0.71562 0.3752 0.0
C1676 C 0.83322 0.69506 0.37405 0.0
C1677 C 0.83097 0.75365 0.38551 0.0
C1678 C 0.81622 0.75343 0.40224 0.0
C1679 C 0.83872 0.77338 0.37755 0.0
C1680 C 0.85323 0.77466 0.35898 0.0
C1681 C 0.84821 0.76373 0.34007 0.0
C1682 C 0.86197 0.76488 0.32266 0.0
C1683 C 0.88076 0.77701 0.3239 0.0
C1684 C 0.8858 0.78806 0.34255 0.0
C1685 C 0.87211 0.78695 0.36001 0.0
H1686 H 0.89139 0.77787 0.31041 0.0
H1687 H 0.75733 0.7673 0.47905 0.0
H1688 H 0.9386 0.03359 0.22758 0.0
H1689 H 0.96751 0.05129 0.20833 0.0
H1690 H 0.95628 0.00987 0.15457 0.0
H1691 H 0.92811 0.99133 0.17432 0.0
H1692 H 0.9955 0.01268 0.15975 0.0
H1693 H 0.94295 0.06439 0.15423 0.0
H1694 H 0.91437 0.08815 0.16547 0.0
H1695 H 0.95796 0.12192 0.20638 0.0
H1696 H 0.98674 0.09818 0.19563 0.0
H1697 H 0.06347 0.11295 0.1227 0.0
H1698 H 0.02882 0.09556 0.12823 0.0
H1699 H 0.05808 0.04938 0.16893 0.0
H1700 H 0.09279 0.06605 0.16261 0.0
H1701 H 0.00579 0.09098 0.16068 0.0
H1702 H 0.03373 0.00288 0.1682 0.0
H1703 H 0.06057 0.98005 0.15175 0.0
H1704 H 0.06203 0.01993 0.09654 0.0
H1705 H 0.03493 0.04279 0.11246 0.0
C1706 C 0.94225 0.02837 0.21161 0.0
C1707 C 0.93121 0.01111 0.20242 0.0
C1708 C 0.95864 0.03859 0.20054 0.0
C1709 C 0.96383 0.0322 0.17981 0.0
C1710 C 0.95258 0.0151 0.17052 0.0
C1711 C 0.93651 0.00453 0.1818 0.0
C1712 C 0.9818 0.04261 0.16845 0.0
C1713 C -0.00236 0.02981 0.15975 0.0
C1714 C 0.98424 0.065 0.16763 0.0
C1715 C 0.967 0.0794 0.17418 0.0
C1716 C 0.94642 0.0768 0.16573 0.0
C1717 C 0.93018 0.09028 0.172 0.0
C1718 C 0.93434 0.10652 0.18665 0.0
C1719 C 0.95476 0.10934 0.19503 0.0
C1720 C 0.97106 0.09589 0.18882 0.0
C1721 C 0.06246 0.099 0.13273 0.0
C1722 C 0.08074 0.0908 0.14223 0.0
C1723 C 0.04269 0.08909 0.13585 0.0
C1724 C 0.04089 0.07098 0.14872 0.0
C1725 C 0.05915 0.06297 0.15843 0.0
C1726 C 0.07895 0.07259 0.15496 0.0
C1727 C 0.01985 0.061 0.15298 0.0
C1728 C 0.00344 0.07388 0.16028 0.0
C1729 C 0.01648 0.03876 0.15158 0.0
C1730 C 0.03235 0.02464 0.14162 0.0
C1731 C 0.03962 0.00669 0.15248 0.0
C1732 C 0.05493 0.99376 0.14325 0.0
C1733 C 0.06304 -0.00143 0.12314 0.0
C1734 C 0.05578 0.01625 0.11214 0.0
C1735 C 0.04045 0.02921 0.12127 0.0
H1736 H 0.07493 0.98858 0.11606 0.0
H1737 H 0.92174 0.11694 0.19149 0.0
H1738 H 0.28687 0.68872 0.49722 0.0
H1739 H 0.30931 0.71005 0.52122 0.0
H1740 H 0.25468 0.72337 0.55997 0.0
H1741 H 0.23217 0.7015 0.53643 0.0
H1742 H 0.28836 0.75961 0.54126 0.0
H1743 H 0.27669 0.6939 0.58293 0.0
H1744 H 0.27807 0.65494 0.58634 0.0
H1745 H 0.34501 0.65709 0.57305 0.0
H1746 H 0.34391 0.69606 0.56915 0.0
H1747 H 0.31528 0.81271 0.62773 0.0
H1748 H 0.30255 0.7783 0.61486 0.0
H1749 H 0.36364 0.76702 0.58652 0.0
H1750 H 0.37681 0.80139 0.60006 0.0
H1751 H 0.33073 0.72739 0.59915 0.0
H1752 H 0.34326 0.78758 0.55029 0.0
H1753 H 0.34656 0.82626 0.54534 0.0
H1754 H 0.28322 0.83384 0.56934 0.0
H1755 H 0.27972 0.795 0.57451 0.0
C1756 C 0.27959 0.69641 0.51071 0.0
C1757 C 0.25779 0.6936 0.515 0.0
C1758 C 0.29245 0.70835 0.52445 0.0
C1759 C 0.28356 0.71784 0.54239 0.0
C1760 C 0.2617 0.71583 0.54626 0.0
C1761 C 0.24891 0.70352 0.53279 0.0
C1762 C 0.29698 0.73056 0.55679 0.0
C1763 C 0.2975 0.75255 0.55396 0.0
C1764 C 0.30949 0.72117 0.57277 0.0
C1765 C 0.31016 0.69783 0.57547 0.0
C1766 C 0.29165 0.68604 0.58049 0.0
C1767 C 0.29239 0.66396 0.58256 0.0
C1768 C 0.3116 0.65354 0.57984 0.0
C1769 C 0.33013 0.66518 0.57511 0.0
C1770 C 0.32946 0.68726 0.57297 0.0
C1771 C 0.32631 0.80254 0.61953 0.0
C1772 C 0.3467 0.81002 0.61391 0.0
C1773 C 0.3191 0.78275 0.61247 0.0
C1774 C 0.33207 0.77045 0.59943 0.0
C1775 C 0.35345 0.7764 0.59656 0.0
C1776 C 0.36082 0.79614 0.60398 0.0
C1777 C 0.32154 0.75638 0.58387 0.0
C1778 C 0.32163 0.7343 0.58636 0.0
C1779 C 0.30998 0.76549 0.56708 0.0
C1780 C 0.31128 0.78855 0.5628 0.0
C1781 C 0.33005 0.79755 0.55444 0.0
C1782 C 0.33197 0.81949 0.55165 0.0
C1783 C 0.31512 0.83258 0.55707 0.0
C1784 C 0.29626 0.82369 0.56513 0.0
C1785 C 0.29427 0.8017 0.56794 0.0
H1786 H 0.31666 0.8496 0.555 0.0
H1787 H 0.31214 0.63644 0.58145 0.0
H1788 H 0.08806 0.50393 0.34952 0.0
H1789 H 0.06064 0.52166 0.36998 0.0
H1790 H 0.06302 0.57436 0.32638 0.0
H1791 H 0.09025 0.55667 0.30565 0.0
H1792 H 0.04828 0.56168 0.38857 0.0
H1793 H 0.01399 0.57576 0.30526 0.0
H1794 H 0.01832 0.56225 0.26871 0.0
H1795 H 0.03694 0.50175 0.29309 0.0
H1796 H 0.03231 0.51478 0.32972 0.0
H1797 H 0.95264 0.62091 0.3917 0.0
H1798 H 0.98782 0.60568 0.38823 0.0
H1799 H 0.95943 0.54778 0.36344 0.0
H1800 H 0.92427 0.56331 0.36603 0.0
H1801 H 0.98789 0.56094 0.33782 0.0
H1802 H 0.98604 0.55065 0.41268 0.0
H1803 H 0.98123 0.5604 0.45028 0.0
H1804 H 0.0324 0.60627 0.44553 0.0
H1805 H 0.03733 0.59701 0.4078 0.0
C1806 C 0.08337 0.51967 0.34475 0.0
C1807 C 0.09077 0.52863 0.32561 0.0
C1808 C 0.06779 0.52984 0.35657 0.0
C1809 C 0.05954 0.54903 0.34935 0.0
C1810 C 0.0691 0.55941 0.33201 0.0
C1811 C 0.0846 0.54923 0.32014 0.0
C1812 C 0.03826 0.55542 0.35647 0.0
C1813 C 0.03502 0.56169 0.37757 0.0
C1814 C 0.0209 0.55453 0.34221 0.0
C1815 C 0.02305 0.54634 0.32021 0.0
C1816 C 0.01889 0.55955 0.30279 0.0
C1817 C 0.0214 0.55197 0.28207 0.0
C1818 C 0.02797 0.53117 0.27858 0.0
C1819 C 0.03191 0.51786 0.29581 0.0
C1820 C 0.02935 0.52534 0.31655 0.0
C1821 C 0.95386 0.60477 0.38593 0.0
C1822 C 0.93577 0.59337 0.37885 0.0
C1823 C 0.974 0.59602 0.38407 0.0
C1824 C 0.9763 0.57557 0.37557 0.0
C1825 C 0.95806 0.56365 0.36989 0.0
C1826 C 0.93798 0.57252 0.37138 0.0
C1827 C -0.00237 0.56767 0.37005 0.0
C1828 C 0.00097 0.56104 0.34905 0.0
C1829 C 0.01479 0.56767 0.38464 0.0
C1830 C 0.01193 0.57325 0.40735 0.0
C1831 C 0.99616 0.56294 0.4196 0.0
C1832 C 0.99344 0.56835 0.44095 0.0
C1833 C 0.00647 0.58398 0.45028 0.0
C1834 C 0.0223 0.59418 0.43828 0.0
C1835 C 0.02508 0.58883 0.41692 0.0
H1836 H 0.00434 0.58815 0.46681 0.0
H1837 H 0.02996 0.52535 0.26254 0.0
H1838 H 0.43383 0.44825 0.74472 0.0
H1839 H 0.46316 0.43395 0.76547 0.0
H1840 H 0.4352 0.45864 0.82286 0.0
H1841 H 0.40671 0.47402 0.80201 0.0
H1842 H 0.47429 0.46683 0.82423 0.0
H1843 H 0.43382 0.4033 0.80701 0.0
H1844 H 0.41621 0.3769 0.78358 0.0
H1845 H 0.47572 0.36493 0.75286 0.0
H1846 H 0.49361 0.39148 0.77587 0.0
H1847 H 0.53729 0.37229 0.87393 0.0
H1848 H 0.50563 0.38733 0.8579 0.0
H1849 H 0.54332 0.44035 0.83462 0.0
H1850 H 0.57485 0.42582 0.85116 0.0
H1851 H 0.49834 0.39261 0.81779 0.0
H1852 H 0.51285 0.48345 0.82769 0.0
H1853 H 0.52805 0.50885 0.85369 0.0
H1854 H 0.5166 0.46407 0.90393 0.0
H1855 H 0.50103 0.43852 0.8783 0.0
C1856 C 0.43396 0.45048 0.76178 0.0
C1857 C 0.4181 0.46222 0.77182 0.0
C1858 C 0.45064 0.44222 0.77365 0.0
C1859 C 0.45128 0.44496 0.7958 0.0
C1860 C 0.43515 0.45638 0.8058 0.0
C1861 C 0.41884 0.46511 0.7939 0.0
C1862 C 0.46905 0.43666 0.80862 0.0
C1863 C 0.47949 0.45057 0.82285 0.0
C1864 C 0.4758 0.4154 0.80697 0.0
C1865 C 0.465 0.39953 0.79304 0.0
C1866 C 0.44311 0.39516 0.79514 0.0
C1867 C 0.43308 0.38015 0.78195 0.0
C1868 C 0.44482 0.36929 0.7667 0.0
C1869 C 0.46663 0.37338 0.76464 0.0
C1870 C 0.47672 0.38839 0.77776 0.0
C1871 C 0.53874 0.38738 0.86579 0.0
C1872 C 0.55857 0.39784 0.86379 0.0
C1873 C 0.52067 0.39589 0.85655 0.0
C1874 C 0.52211 0.41496 0.8451 0.0
C1875 C 0.54175 0.4258 0.84368 0.0
C1876 C 0.55978 0.41744 0.85313 0.0
C1877 C 0.50341 0.42274 0.83344 0.0
C1878 C 0.493 0.40882 0.81926 0.0
C1879 C 0.4964 0.44384 0.83547 0.0
C1880 C 0.50592 0.45901 0.85102 0.0
C1881 C 0.51352 0.47904 0.84429 0.0
C1882 C 0.52219 0.49347 0.85897 0.0
C1883 C 0.52327 0.48808 0.88044 0.0
C1884 C 0.51577 0.46821 0.88728 0.0
C1885 C 0.50705 0.45374 0.87268 0.0
H1886 H 0.5299 0.49931 0.89178 0.0
H1887 H 0.43703 0.35767 0.75652 0.0
H1888 H 0.93774 0.74837 0.71012 0.0
H1889 H 0.91457 0.76528 0.73621 0.0
H1890 H 0.91911 0.82408 0.70124 0.0
H1891 H 0.9425 0.80752 0.67554 0.0
H1892 H 0.92776 0.83024 0.74182 0.0
H1893 H 0.87327 0.79335 0.70172 0.0
H1894 H 0.8555 0.76212 0.6854 0.0
H1895 H 0.84864 0.73312 0.74673 0.0
H1896 H 0.86664 0.76407 0.7634 0.0
H1897 H 0.85761 0.89126 0.79769 0.0
H1898 H 0.86731 0.86919 0.76747 0.0
H1899 H 0.8696 0.81431 0.80818 0.0
H1900 H 0.85973 0.83615 0.83857 0.0
H1901 H 0.85616 0.80524 0.76504 0.0
H1902 H 0.91246 0.84039 0.80461 0.0
H1903 H 0.92966 0.87155 0.82165 0.0
H1904 H 0.93348 0.90317 0.76139 0.0
H1905 H 0.9159 0.87232 0.74405 0.0
C1906 C 0.93362 0.76484 0.70796 0.0
C1907 C 0.94205 0.7767 0.69095 0.0
C1908 C 0.92031 0.77443 0.72277 0.0
C1909 C 0.91507 0.7959 0.72057 0.0
C1910 C 0.92302 0.80752 0.70324 0.0
C1911 C 0.9364 0.79803 0.6886 0.0
C1912 C 0.90268 0.80687 0.73705 0.0
C1913 C 0.91197 0.82492 0.74661 0.0
C1914 C 0.88236 0.79954 0.74377 0.0
C1915 C 0.87149 0.78094 0.73378 0.0
C1916 C 0.86814 0.78024 0.71171 0.0
C1917 C 0.85799 0.7626 0.7024 0.0
C1918 C 0.851 0.74562 0.71501 0.0
C1919 C 0.85409 0.74627 0.73697 0.0
C1920 C 0.86424 0.76387 0.74636 0.0
C1921 C 0.85961 0.87439 0.80016 0.0
C1922 C 0.85854 0.86556 0.82062 0.0
C1923 C 0.86504 0.86181 0.78285 0.0
C1924 C 0.86952 0.84029 0.78579 0.0
C1925 C 0.86626 0.83093 0.8057 0.0
C1926 C 0.8608 0.8435 0.82306 0.0
C1927 C 0.88113 0.82871 0.76925 0.0
C1928 C 0.87186 0.81053 0.75997 0.0
C1929 C 0.90158 0.83579 0.76278 0.0
C1930 C 0.91267 0.85414 0.77307 0.0
C1931 C 0.91684 0.85405 0.79501 0.0
C1932 C 0.92666 0.87165 0.80473 0.0
C1933 C 0.93261 0.88936 0.79263 0.0
C1934 C 0.92883 0.88946 0.77076 0.0
C1935 C 0.91894 0.87192 0.76097 0.0
H1936 H 0.9402 0.90297 0.80019 0.0
H1937 H 0.84314 0.73198 0.70777 0.0
H1938 H 0.00427 0.22218 0.42103 0.0
H1939 H -0.00126 0.1996 0.45236 0.0
H1940 H 0.93095 0.20059 0.44192 0.0
H1941 H 0.93639 0.22379 0.41138 0.0
H1942 H 0.93934 0.21267 0.48004 0.0
H1943 H 0.96185 0.15476 0.43592 0.0
H1944 H 0.98595 0.13562 0.41206 0.0
H1945 H 0.03438 0.13686 0.46011 0.0
H1946 H 0.01064 0.15627 0.48418 0.0
H1947 H 0.89844 0.13994 0.55195 0.0
H1948 H 0.91206 0.15261 0.51801 0.0
H1949 H 0.9744 0.16159 0.54538 0.0
H1950 H 0.96087 0.1489 0.57975 0.0
H1951 H 0.97244 0.14489 0.50071 0.0
H1952 H 0.94782 0.20198 0.54507 0.0
H1953 H 0.9222 0.2198 0.5684 0.0
H1954 H 0.87604 0.2191 0.5182 0.0
H1955 H 0.9012 0.2008 0.49471 0.0
C1956 C 0.98826 0.21712 0.42522 0.0
C1957 C 0.97072 0.22483 0.41403 0.0
C1958 C 0.98511 0.2042 0.44306 0.0
C1959 C 0.96441 0.19848 0.44955 0.0
C1960 C 0.94704 0.20498 0.43736 0.0
C1961 C 0.95015 0.21819 0.4199 0.0
C1962 C 0.96042 0.18788 0.47021 0.0
C1963 C 0.94642 0.1977 0.48435 0.0
C1964 C 0.97023 0.16876 0.47625 0.0
C1965 C 0.98455 0.15719 0.46176 0.0
C1966 C 0.97771 0.15113 0.44133 0.0
C1967 C 0.99129 0.14019 0.42778 0.0
C1968 C 0.01171 0.13509 0.43453 0.0
C1969 C 0.01857 0.14086 0.45488 0.0
C1970 C 0.00505 0.15182 0.46849 0.0
C1971 C 0.91513 0.14433 0.55078 0.0
C1972 C 0.92848 0.14385 0.56867 0.0
C1973 C 0.92288 0.15146 0.53133 0.0
C1974 C 0.94412 0.15824 0.52936 0.0
C1975 C 0.95794 0.15641 0.5467 0.0
C1976 C 0.95015 0.14927 0.5663 0.0
C1977 C 0.95093 0.16941 0.50989 0.0
C1978 C 0.96551 0.15987 0.49621 0.0
C1979 C 0.9415 0.18873 0.50406 0.0
C1980 C 0.92635 0.19982 0.51818 0.0
C1981 C 0.93213 0.20541 0.53907 0.0
C1982 C 0.9177 0.21563 0.55231 0.0
C1983 C 0.8975 0.22054 0.54479 0.0
C1984 C 0.89168 0.21525 0.52401 0.0
C1985 C 0.90602 0.20495 0.51073 0.0
H1986 H 0.88637 0.2285 0.55504 0.0
H1987 H 0.0222 0.12661 0.42402 0.0
H1988 H 0.55171 0.2609 0.2051 0.0
H1989 H 0.576 0.23928 0.22555 0.0
H1990 H 0.55985 0.18486 0.18655 0.0
H1991 H 0.53491 0.20632 0.16645 0.0
H1992 H 0.55673 0.17441 0.22577 0.0
H1993 H 0.61072 0.20903 0.18569 0.0
H1994 H 0.63051 0.23875 0.16897 0.0
H1995 H 0.64382 0.26565 0.23035 0.0
H1996 H 0.62385 0.23626 0.24745 0.0
H1997 H 0.62212 0.11494 0.29257 0.0
H1998 H 0.61398 0.13257 0.25907 0.0
H1999 H 0.61318 0.19304 0.29131 0.0
H2000 H 0.62161 0.17569 0.32477 0.0
H2001 H 0.62911 0.19598 0.2498 0.0
H2002 H 0.57013 0.16271 0.28837 0.0
H2003 H 0.55294 0.13123 0.3046 0.0
H2004 H 0.54934 0.1008 0.24361 0.0
H2005 H 0.56765 0.13166 0.22719 0.0
C2006 C 0.55357 0.24442 0.20065 0.0
C2007 C 0.5413 0.23526 0.18428 0.0
C2008 C 0.56761 0.23209 0.21226 0.0
C2009 C 0.56996 0.21046 0.20746 0.0
C2010 C 0.55832 0.20151 0.19053 0.0
C2011 C 0.54408 0.21378 0.17907 0.0
C2012 C 0.58275 0.19684 0.22156 0.0
C2013 C 0.57278 0.17886 0.23056 0.0
C2014 C 0.60362 0.20271 0.22804 0.0
C2015 C 0.61566 0.22047 0.21785 0.0
C2016 C 0.61773 0.22136 0.19563 0.0
C2017 C 0.62901 0.23814 0.18608 0.0
C2018 C 0.63839 0.25409 0.19859 0.0
C2019 C 0.63654 0.25328 0.22068 0.0
C2020 C 0.62528 0.23654 0.23031 0.0
C2021 C 0.62061 0.13205 0.29248 0.0
C2022 C 0.62196 0.14386 0.31143 0.0
C2023 C 0.61608 0.14209 0.2733 0.0
C2024 C 0.61266 0.16403 0.27284 0.0
C2025 C 0.61573 0.17607 0.29137 0.0
C2026 C 0.62033 0.16608 0.31053 0.0
C2027 C 0.60285 0.17404 0.25413 0.0
C2028 C 0.6133 0.19134 0.24445 0.0
C2029 C 0.58247 0.16747 0.24686 0.0
C2030 C 0.57053 0.14938 0.25659 0.0
C2031 C 0.56582 0.14925 0.27843 0.0
C2032 C 0.5559 0.1315 0.28768 0.0
C2033 C 0.54994 0.11406 0.27513 0.0
C2034 C 0.55397 0.11431 0.25331 0.0
C2035 C 0.56425 0.13188 0.24405 0.0
H2036 H 0.54222 0.10035 0.28231 0.0
H2037 H 0.64711 0.26707 0.19116 0.0
H2038 H 0.49558 0.80076 0.92549 0.0
H2039 H 0.52141 0.81921 0.9482 0.0
H2040 H 0.57273 0.79087 0.91334 0.0
H2041 H 0.54695 0.77179 0.89111 0.0
H2042 H 0.5777 0.78365 0.95275 0.0
H2043 H 0.5653 0.8459 0.91367 0.0
H2044 H 0.54506 0.87349 0.89529 0.0
H2045 H 0.51607 0.89134 0.95421 0.0
H2046 H 0.53589 0.86366 0.97294 0.0
H2047 H 0.64176 0.82984 0.03467 0.0
H2048 H 0.62871 0.82581 -0.00181 0.0
H2049 H 0.56487 0.8375 0.0196 0.0
H2050 H 0.57765 0.84161 0.0559 0.0
H2051 H 0.57477 0.85724 0.98065 0.0
H2052 H 0.58097 0.78796 0.01583 0.0
H2053 H 0.60148 0.76029 0.03387 0.0
H2054 H 0.64333 0.75659 0.98019 0.0
H2055 H 0.62318 0.78446 0.96196 0.0
C2056 C 0.51237 0.79878 0.92244 0.0
C2057 C 0.51927 0.78461 0.9068 0.0
C2058 C 0.52715 0.80949 0.93529 0.0
C2059 C 0.54905 0.80654 0.93237 0.0
C2060 C 0.55593 0.79335 0.9159 0.0
C2061 C 0.54118 0.7824 0.90328 0.0
C2062 C 0.56439 0.81469 0.94837 0.0
C2063 C 0.57751 0.79995 0.95837 0.0
C2064 C 0.56408 0.83589 0.95586 0.0
C2065 C 0.55205 0.8526 0.94471 0.0
C2066 C 0.5545 0.8556 0.9227 0.0
C2067 C 0.54312 0.87128 0.91222 0.0
C2068 C 0.52928 0.88415 0.92357 0.0
C2069 C 0.52681 0.88137 0.94544 0.0
C2070 C 0.53815 0.86571 0.95601 0.0
C2071 C 0.62497 0.8317 0.03155 0.0
C2072 C 0.61066 0.83566 0.04818 0.0
C2073 C 0.6176 0.82951 0.01074 0.0
C2074 C 0.59586 0.83133 0.00632 0.0
C2075 C 0.58173 0.83617 0.02273 0.0
C2076 C 0.58903 0.83824 0.04349 0.0
C2077 C 0.58721 0.82599 0.9852 0.0
C2078 C 0.5754 0.84122 0.97437 0.0
C2079 C 0.5888 0.80529 0.97677 0.0
C2080 C 0.60076 0.78845 0.98767 0.0
C2081 C 0.59464 0.78135 0.00796 0.0
C2082 C 0.60618 0.76562 0.0182 0.0
C2083 C 0.62374 0.75674 0.00822 0.0
C2084 C 0.62976 0.76352 0.98793 0.0
C2085 C 0.61829 0.77928 0.97764 0.0
H2086 H 0.63266 0.74457 0.01617 0.0
H2087 H 0.52048 0.89628 0.91542 0.0
H2088 H 0.93826 0.19282 0.86678 0.0
H2089 H 0.91954 0.17281 0.83899 0.0
H2090 H 0.91179 0.23058 0.8033 0.0
H2091 H 0.92964 0.25078 0.83151 0.0
H2092 H 0.88052 0.20125 0.79345 0.0
H2093 H 0.95732 0.20447 0.79879 0.0
H2094 H 0.99147 0.20034 0.81743 0.0
H2095 H 0.97765 0.13387 0.82618 0.0
H2096 H 0.94325 0.13771 0.80785 0.0
H2097 H 0.90655 0.17683 0.68731 0.0
H2098 H 0.90334 0.18981 0.72362 0.0
H2099 H 0.9082 0.12582 0.74723 0.0
H2100 H 0.91161 0.11261 0.71086 0.0
H2101 H 0.93599 0.1534 0.76595 0.0
H2102 H 0.86158 0.15093 0.75131 0.0
H2103 H 0.8295 0.15749 0.73004 0.0
H2104 H 0.84046 0.22479 0.73566 0.0
H2105 H 0.8728 0.21864 0.75671 0.0
C2106 C 0.93181 0.20133 0.85339 0.0
C2107 C 0.93576 0.22321 0.85097 0.0
C2108 C 0.92108 0.18992 0.83757 0.0
C2109 C 0.91489 0.20016 0.81885 0.0
C2110 C 0.91656 0.22237 0.81758 0.0
C2111 C 0.92686 0.23389 0.83366 0.0
C2112 C 0.91111 0.18765 0.79928 0.0
C2113 C 0.89254 0.1907 0.78742 0.0
C2114 C 0.92683 0.17384 0.7915 0.0
C2115 C 0.94764 0.17142 0.80221 0.0
C2116 C 0.96153 0.189 0.8048 0.0
C2117 C 0.98092 0.18672 0.81531 0.0
C2118 C 0.9867 0.16687 0.82305 0.0
C2119 C 0.97313 0.14924 0.82023 0.0
C2120 C 0.95368 0.15146 0.80979 0.0
C2121 C 0.90689 0.16547 0.70019 0.0
C2122 C 0.90958 0.14371 0.69623 0.0
C2123 C 0.90477 0.1729 0.72092 0.0
C2124 C 0.90521 0.15872 0.73803 0.0
C2125 C 0.90764 0.13696 0.73416 0.0
C2126 C 0.9097 0.12948 0.7134 0.0
C2127 C 0.90542 0.16698 0.75997 0.0
C2128 C 0.92355 0.16334 0.77221 0.0
C2129 C 0.88947 0.18049 0.76776 0.0
C2130 C 0.86971 0.18431 0.75554 0.0
C2131 C 0.85721 0.16714 0.74794 0.0
C2132 C 0.83896 0.17078 0.73592 0.0
C2133 C 0.83295 0.19155 0.73148 0.0
C2134 C 0.84513 0.20871 0.73912 0.0
C2135 C 0.8634 0.20515 0.75114 0.0
H2136 H 0.81885 0.19434 0.72212 0.0
H2137 H 0.00171 0.16513 0.83119 0.0
H2138 H 0.55558 0.20123 0.59391 0.0
H2139 H 0.57479 0.17768 0.57002 0.0
H2140 H 0.5172 0.16576 0.53438 0.0
H2141 H 0.49778 0.18861 0.55859 0.0
H2142 H 0.54086 0.1311 0.53441 0.0
H2143 H 0.55222 0.2062 0.52078 0.0
H2144 H 0.56299 0.24295 0.53002 0.0
H2145 H 0.62595 0.22233 0.54469 0.0
H2146 H 0.61545 0.18539 0.5358 0.0
H2147 H 0.57454 0.12463 0.42681 0.0
H2148 H 0.55911 0.13183 0.46163 0.0
H2149 H 0.62179 0.13406 0.48938 0.0
H2150 H 0.63739 0.12692 0.45468 0.0
H2151 H 0.59928 0.16973 0.49712 0.0
H2152 H 0.58842 0.09498 0.50314 0.0
H2153 H 0.57678 0.05922 0.49147 0.0
H2154 H 0.51214 0.07961 0.48871 0.0
H2155 H 0.52342 0.11561 0.50004 0.0
C2156 C 0.54694 0.19323 0.58124 0.0
C2157 C 0.52527 0.19703 0.57788 0.0
C2158 C 0.55792 0.1798 0.56761 0.0
C2159 C 0.54752 0.17035 0.55015 0.0
C2160 C 0.52556 0.17293 0.54771 0.0
C2161 C 0.51451 0.1861 0.5615 0.0
C2162 C 0.55975 0.15998 0.53305 0.0
C2163 C 0.55363 0.1395 0.52623 0.0
C2164 C 0.57665 0.17084 0.52259 0.0
C2165 C 0.58298 0.19303 0.5279 0.0
C2166 C 0.56831 0.20949 0.52613 0.0
C2167 C 0.57437 0.23035 0.53128 0.0
C2168 C 0.59512 0.23496 0.53801 0.0
C2169 C 0.60987 0.21872 0.53954 0.0
C2170 C 0.60388 0.19783 0.53444 0.0
C2171 C 0.58503 0.12635 0.44037 0.0
C2172 C 0.60721 0.12548 0.43792 0.0
C2173 C 0.57618 0.13029 0.46028 0.0
C2174 C 0.58934 0.13339 0.47806 0.0
C2175 C 0.61139 0.13166 0.47583 0.0
C2176 C 0.62026 0.12761 0.45597 0.0
C2177 C 0.58026 0.14094 0.49829 0.0
C2178 C 0.58689 0.16103 0.50561 0.0
C2179 C 0.56373 0.12979 0.50894 0.0
C2180 C 0.55681 0.10807 0.50232 0.0
C2181 C 0.57174 0.0919 0.4999 0.0
C2182 C 0.5652 0.07157 0.49336 0.0
C2183 C 0.54374 0.06716 0.48931 0.0
C2184 C 0.52876 0.08306 0.49185 0.0
C2185 C 0.53522 0.10343 0.49836 0.0
H2186 H 0.53871 0.05141 0.48424 0.0
H2187 H 0.59979 0.25112 0.54198 0.0
H2188 H 0.57866 0.77899 0.34666 0.0
H2189 H 0.60459 0.78759 0.31875 0.0
H2190 H 0.56009 0.83069 0.29068 0.0
H2191 H 0.53475 0.82292 0.31867 0.0
H2192 H 0.60369 0.78078 0.27891 0.0
H2193 H 0.58058 0.87034 0.26646 0.0
H2194 H 0.57369 0.90155 0.28889 0.0
H2195 H 0.60817 0.87362 0.34024 0.0
H2196 H 0.61558 0.84235 0.31804 0.0
H2197 H 0.5952 0.80748 0.17344 0.0
H2198 H 0.59475 0.79886 0.21123 0.0
H2199 H 0.63897 0.85086 0.22352 0.0
H2200 H 0.6379 0.86046 0.18599 0.0
H2201 H 0.61177 0.85374 0.25014 0.0
H2202 H 0.65198 0.79588 0.23132 0.0
H2203 H 0.66443 0.76514 0.21086 0.0
H2204 H 0.60689 0.73057 0.22579 0.0
H2205 H 0.59389 0.7612 0.24605 0.0
C2206 C 0.57461 0.79055 0.33468 0.0
C2207 C 0.5547 0.80035 0.33489 0.0
C2208 C 0.58942 0.79544 0.31878 0.0
C2209 C 0.58447 0.8101 0.30285 0.0
C2210 C 0.56461 0.81987 0.30317 0.0
C2211 C 0.55001 0.81526 0.31913 0.0
C2212 C 0.59892 0.8141 0.28469 0.0
C2213 C 0.60582 0.79673 0.2727 0.0
C2214 C 0.60287 0.83496 0.2772 0.0
C2215 C 0.59864 0.85394 0.29054 0.0
C2216 C 0.58688 0.87091 0.28246 0.0
C2217 C 0.58283 0.8886 0.29517 0.0
C2218 C 0.59048 0.88956 0.31598 0.0
C2219 C 0.60222 0.87284 0.32413 0.0
C2220 C 0.60633 0.85511 0.31149 0.0
C2221 C 0.6049 0.81689 0.18428 0.0
C2222 C 0.61637 0.83472 0.17706 0.0
C2223 C 0.60492 0.81181 0.20582 0.0
C2224 C 0.61713 0.82399 0.22031 0.0
C2225 C 0.62937 0.84126 0.21277 0.0
C2226 C 0.62873 0.84676 0.19137 0.0
C2227 C 0.61485 0.8203 0.24346 0.0
C2228 C 0.61039 0.83778 0.25648 0.0
C2229 C 0.61422 0.79962 0.25224 0.0
C2230 C 0.62194 0.78093 0.24023 0.0
C2231 C 0.64191 0.78177 0.23017 0.0
C2232 C 0.64908 0.76435 0.2186 0.0
C2233 C 0.63646 0.74591 0.21703 0.0
C2234 C 0.61666 0.74485 0.22705 0.0
C2235 C 0.60941 0.76223 0.23863 0.0
H2236 H 0.64203 0.73245 0.20804 0.0
H2237 H 0.58731 0.90327 0.32578 0.0
H2238 H 0.98849 0.80572 0.044 0.0
H2239 H 0.9737 0.83311 0.02116 0.0
H2240 H 0.91528 0.83067 0.05708 0.0
H2241 H 0.92973 0.80291 0.07954 0.0
H2242 H 0.90702 0.83001 0.01648 0.0
H2243 H 0.95139 0.87275 0.06185 0.0
H2244 H 0.98447 0.88363 0.0802 0.0
H2245 H 0.01539 0.89352 0.02016 0.0
H2246 H 0.98258 0.88241 0.00143 0.0
H2247 H 0.86147 0.90912 0.95971 0.0
H2248 H 0.87998 0.89923 0.99216 0.0
H2249 H 0.93647 0.88655 0.95591 0.0
H2250 H 0.91832 0.89676 0.92344 0.0
H2251 H 0.94424 0.89831 3e-05 0.0
H2252 H 0.90216 0.84837 0.9561 0.0
H2253 H 0.86874 0.84089 0.9367 0.0
H2254 H 0.83347 0.84602 0.99478 0.0
H2255 H 0.86669 0.8539 0.01444 0.0
C2256 C 0.97251 0.81107 0.04702 0.0
C2257 C 0.96023 0.80218 0.06348 0.0
C2258 C 0.96415 0.82683 0.03409 0.0
C2259 C 0.94351 0.83415 0.03765 0.0
C2260 C 0.93126 0.82529 0.05412 0.0
C2261 C 0.93953 0.80941 0.0669 0.0
C2262 C 0.93425 0.85023 0.0235 0.0
C2263 C 0.915 0.8451 0.01329 0.0
C2264 C 0.9448 0.86981 0.01902 0.0
C2265 C 0.96455 0.87659 0.03023 0.0
C2266 C 0.96529 0.8771 0.05255 0.0
C2267 C 0.98399 0.88333 0.06302 0.0
C2268 C 0.00203 0.88922 0.05135 0.0
C2269 C 0.0014 0.88894 0.02918 0.0
C2270 C 0.98275 0.8827 0.01862 0.0
C2271 C 0.87806 0.90496 0.95871 0.0
C2272 C 0.88819 0.90285 0.93895 0.0
C2273 C 0.88866 0.8995 0.9773 0.0
C2274 C 0.90934 0.89169 0.97623 0.0
C2275 C 0.92044 0.89243 0.95696 0.0
C2276 C 0.90992 0.89803 0.93838 0.0
C2277 C 0.91721 0.87798 0.99331 0.0
C2278 C 0.9362 0.88339 0.00376 0.0
C2279 C 0.9065 0.85861 -0.00192 0.0
C2280 C 0.88684 0.85187 0.98669 0.0
C2281 C 0.88727 0.84785 0.96472 0.0
C2282 C 0.86837 0.84368 0.95366 0.0
C2283 C 0.84898 0.84322 0.96447 0.0
C2284 C 0.84849 0.84655 0.98641 0.0
C2285 C 0.86735 0.85083 -0.00247 0.0
H2286 H 0.83436 0.84 0.95589 0.0
H2287 H 0.0165 0.89404 0.05949 0.0
H2288 H 0.66766 0.92944 0.74135 0.0
H2289 H 0.68878 0.90963 0.76676 0.0
H2290 H 0.64512 0.926 0.81681 0.0
H2291 H 0.62458 0.94663 0.79156 0.0
H2292 H 0.68173 0.94144 0.82525 0.0
H2293 H 0.65798 0.87275 0.80588 0.0
H2294 H 0.64736 0.84295 0.78251 0.0
H2295 H 0.71055 0.8412 0.75695 0.0
H2296 H 0.72151 0.87118 0.77992 0.0
H2297 H 0.77222 0.91666 0.88803 0.0
H2298 H 0.73558 0.91335 0.875 0.0
H2299 H 0.75896 0.90282 0.81151 0.0
H2300 H 0.79529 0.90567 0.82431 0.0
H2301 H 0.72558 0.87723 0.81914 0.0
H2302 H 0.74307 0.95309 0.82818 0.0
H2303 H 0.75255 0.98585 0.84787 0.0
H2304 H 0.70035 0.97461 0.89059 0.0
H2305 H 0.69055 0.94181 0.87105 0.0
C2306 C 0.66215 0.92808 0.7576 0.0
C2307 C 0.64483 0.93984 0.76467 0.0
C2308 C 0.67414 0.91661 0.77214 0.0
C2309 C 0.66863 0.91642 0.7938 0.0
C2310 C 0.64976 0.92603 0.80024 0.0
C2311 C 0.63807 0.93786 0.78583 0.0
C2312 C 0.68486 0.91099 0.80987 0.0
C2313 C 0.6908 0.92698 0.82439 0.0
C2314 C 0.69701 0.89238 0.80857 0.0
C2315 C 0.69055 0.8743 0.79465 0.0
C2316 C 0.66959 0.86612 0.79519 0.0
C2317 C 0.66352 0.84917 0.78201 0.0
C2318 C 0.67827 0.84019 0.76825 0.0
C2319 C 0.69915 0.84814 0.76765 0.0
C2320 C 0.70531 0.8651 0.78078 0.0
C2321 C 0.76952 0.91357 0.87132 0.0
C2322 C 0.78668 0.91171 0.85718 0.0
C2323 C 0.74859 0.91162 0.86392 0.0
C2324 C 0.74456 0.90792 0.84227 0.0
C2325 C 0.76168 0.90552 0.8283 0.0
C2326 C 0.78249 0.90738 0.83565 0.0
C2327 C 0.72274 0.90812 0.8335 0.0
C2328 C 0.71584 0.89119 0.82048 0.0
C2329 C 0.70969 0.92594 0.83596 0.0
C2330 C 0.7163 0.9449 0.8484 0.0
C2331 C 0.73379 0.9575 0.84192 0.0
C2332 C 0.73913 0.97613 0.85297 0.0
C2333 C 0.72706 0.98229 0.87049 0.0
C2334 C 0.70968 0.9698 0.87704 0.0
C2335 C 0.70422 0.95122 0.86598 0.0
H2336 H 0.73116 -0.00323 0.87896 0.0
H2337 H 0.67353 0.82707 0.75807 0.0
H2338 H 0.81392 0.91115 0.53543 0.0
H2339 H 0.83658 0.9404 0.54812 0.0
H2340 H 0.80775 0.98256 0.50306 0.0
H2341 H 0.78517 0.95307 0.48989 0.0
H2342 H 0.86584 0.97021 0.52729 0.0
H2343 H 0.79684 0.02709 0.5349 0.0
H2344 H 0.75769 0.02651 0.53763 0.0
H2345 H 0.75923 0.96565 0.56819 0.0
H2346 H 0.79837 0.96603 0.56587 0.0
H2347 H 0.89454 0.07694 0.56557 0.0
H2348 H 0.8808 0.04681 0.54465 0.0
H2349 H 0.85855 0.01639 0.602 0.0
H2350 H 0.87248 0.04615 0.62306 0.0
H2351 H 0.82693 0.02429 0.56857 0.0
H2352 H 0.89613 0.99439 0.58093 0.0
H2353 H 0.9353 0.99454 0.57979 0.0
H2354 H 0.93375 0.00031 0.51189 0.0
H2355 H 0.89454 0.00051 0.51266 0.0
C2356 C 0.81261 0.92658 0.52801 0.0
C2357 C 0.7977 0.93 0.51185 0.0
C2358 C 0.82568 0.94318 0.53514 0.0
C2359 C 0.82375 0.96351 0.5265 0.0
C2360 C 0.80942 0.96687 0.50982 0.0
C2361 C 0.79656 0.95011 0.50238 0.0
C2362 C 0.8351 0.98145 0.53668 0.0
C2363 C 0.85739 0.98222 0.53611 0.0
C2364 C 0.82397 -0.00315 0.54834 0.0
C2365 C 0.80047 -0.00353 0.54993 0.0
C2366 C 0.7888 0.01361 0.54221 0.0
C2367 C 0.76662 0.01332 0.54369 0.0
C2368 C 0.75597 -0.00399 0.55299 0.0
C2369 C 0.76748 0.979 0.5609 0.0
C2370 C 0.78966 0.97922 0.55946 0.0
C2371 C 0.88709 0.06363 0.57374 0.0
C2372 C 0.88442 0.06393 0.59591 0.0
C2373 C 0.8793 0.04648 0.56179 0.0
C2374 C 0.86861 0.0296 0.57188 0.0
C2375 C 0.86676 0.0294 0.59404 0.0
C2376 C 0.87481 0.04635 0.60602 0.0
C2377 C 0.85768 0.01302 0.55929 0.0
C2378 C 0.83542 0.01255 0.55941 0.0
C2379 C 0.86888 -0.00211 0.54735 0.0
C2380 C 0.89242 -0.00227 0.54688 0.0
C2381 C 0.90414 0.99592 0.56578 0.0
C2382 C 0.92635 0.99589 0.56519 0.0
C2383 C 0.93701 -0.00249 0.54579 0.0
C2384 C 0.92548 -0.0009 0.52691 0.0
C2385 C 0.90326 -0.00084 0.52741 0.0
H2386 H 0.9542 -0.00253 0.54537 0.0
H2387 H 0.73881 0.99582 0.55413 0.0
H2388 H 0.84815 0.04645 0.311 0.0
H2389 H 0.82169 0.07053 0.32408 0.0
H2390 H 0.82267 0.10387 0.2642 0.0
H2391 H 0.84836 0.07856 0.25039 0.0
H2392 H 0.81143 0.10792 0.33192 0.0
H2393 H 0.77331 0.11646 0.25081 0.0
H2394 H 0.77385 0.10058 0.21491 0.0
H2395 H 0.7894 0.04012 0.24162 0.0
H2396 H 0.78875 0.05565 0.27764 0.0
H2397 H 0.70545 0.13448 0.36118 0.0
H2398 H 0.74039 0.13712 0.34398 0.0
H2399 H 0.72822 0.07663 0.31326 0.0
H2400 H 0.69278 0.07503 0.32907 0.0
H2401 H 0.74705 0.09966 0.28702 0.0
H2402 H 0.7598 0.0854 0.3622 0.0
H2403 H 0.75807 0.09362 0.40049 0.0
H2404 H 0.79147 0.15278 0.38981 0.0
H2405 H 0.7932 0.14495 0.35142 0.0
C2406 C 0.84314 0.05917 0.30069 0.0
C2407 C 0.84978 0.06019 0.27944 0.0
C2408 C 0.82806 0.07313 0.30829 0.0
C2409 C 0.8196 0.08864 0.29491 0.0
C2410 C 0.82845 0.09158 0.27459 0.0
C2411 C 0.84319 0.07718 0.26674 0.0
C2412 C 0.79935 0.09862 0.30119 0.0
C2413 C 0.79738 0.10646 0.32198 0.0
C2414 C 0.78094 0.09675 0.2883 0.0
C2415 C 0.78128 0.08727 0.26679 0.0
C2416 C 0.77683 0.09979 0.24896 0.0
C2417 C 0.77715 0.09086 0.22863 0.0
C2418 C 0.78175 0.06938 0.22598 0.0
C2419 C 0.78592 0.05677 0.24368 0.0
C2420 C 0.78557 0.06562 0.26404 0.0
C2421 C 0.71039 0.12187 0.35066 0.0
C2422 C 0.69679 0.10446 0.34646 0.0
C2423 C 0.73031 0.12333 0.3409 0.0
C2424 C 0.73716 0.10693 0.32753 0.0
C2425 C 0.72332 0.08959 0.32336 0.0
C2426 C 0.70318 0.08852 0.33251 0.0
C2427 C 0.7589 0.10707 0.31834 0.0
C2428 C 0.76113 0.1017 0.29683 0.0
C2429 C 0.77738 0.11006 0.33094 0.0
C2430 C 0.77637 0.11474 0.35397 0.0
C2431 C 0.76665 0.10021 0.36803 0.0
C2432 C 0.76569 0.10479 0.38973 0.0
C2433 C 0.77458 0.12375 0.39757 0.0
C2434 C 0.78453 0.13813 0.38372 0.0
C2435 C 0.78551 0.13363 0.36199 0.0
H2436 H 0.77382 0.12727 0.41437 0.0
H2437 H 0.78201 0.0625 0.21022 0.0
H2438 H 0.68412 0.07537 -0.00084 0.0
H2439 H 0.66353 0.04324 0.00807 0.0
H2440 H 0.70934 0.02821 0.0565 0.0
H2441 H 0.7296 0.06049 0.04817 0.0
H2442 H 0.67104 0.00242 0.00721 0.0
H2443 H 0.68653 0.0074 0.09869 0.0
H2444 H 0.69086 0.03504 0.12622 0.0
H2445 H 0.6563 0.07877 0.08776 0.0
H2446 H 0.65149 0.05131 0.06013 0.0
H2447 H 0.6674 0.90308 0.05731 0.0
H2448 H 0.67317 0.93774 0.04074 0.0
H2449 H 0.62284 0.96359 0.07898 0.0
H2450 H 0.61796 0.92922 0.09643 0.0
H2451 H 0.65415 0.98767 0.08275 0.0
H2452 H 0.6198 0.95891 0.02271 0.0
H2453 H 0.61081 0.93302 0.99456 0.0
H2454 H 0.67379 0.93977 0.96891 0.0
H2455 H 0.68329 0.96546 -0.0029 0.0
C2456 C 0.6898 0.06519 0.0117 0.0
C2457 C 0.70837 0.07055 0.02312 0.0
C2458 C 0.67803 0.04685 0.01673 0.0
C2459 C 0.6847 0.03358 0.03319 0.0
C2460 C 0.70362 0.03853 0.04409 0.0
C2461 C 0.71524 0.05694 0.03925 0.0
C2462 C 0.67201 0.01452 0.03922 0.0
C2463 C 0.66716 -0.00082 0.02368 0.0
C2464 C 0.66614 0.01076 0.06056 0.0
C2465 C 0.66877 0.0273 0.07727 0.0
C2466 C 0.67974 0.02287 0.09615 0.0
C2467 C 0.68231 0.03852 0.11177 0.0
C2468 C 0.6739 0.05866 0.10872 0.0
C2469 C 0.66286 0.06318 0.09007 0.0
C2470 C 0.66023 0.04758 0.07442 0.0
C2471 C 0.65735 0.9161 0.06186 0.0
C2472 C 0.64244 0.91367 0.07827 0.0
C2473 C 0.66051 0.93587 0.05227 0.0
C2474 C 0.64834 0.95332 0.0585 0.0
C2475 C 0.63251 0.95044 0.074 0.0
C2476 C 0.62974 0.93084 0.08395 0.0
C2477 C 0.65399 0.97496 0.05089 0.0
C2478 C 0.65756 0.9909 0.06617 0.0
C2479 C 0.65788 0.97949 0.02921 0.0
C2480 C 0.65229 0.96406 0.01213 0.0
C2481 C 0.63179 0.95478 0.01116 0.0
C2482 C 0.62659 0.94014 0.99518 0.0
C2483 C 0.64173 0.93474 0.97997 0.0
C2484 C 0.66208 0.94398 0.9807 0.0
C2485 C 0.66737 0.95861 -0.00333 0.0
H2486 H 0.63767 0.9234 0.96761 0.0
H2487 H 0.67593 0.07076 0.12082 0.0
H2488 H 0.675 0.02932 0.67283 0.0
H2489 H 0.70776 0.04864 0.66397 0.0
H2490 H 0.72298 0.05439 0.7306 0.0
H2491 H 0.68949 0.036 0.73958 0.0
H2492 H 0.73511 0.08911 0.71142 0.0
H2493 H 0.74506 0.01534 0.69815 0.0
H2494 H 0.73708 0.97975 0.68341 0.0
H2495 H 0.74256 0.00446 0.6201 0.0
H2496 H 0.75025 0.04027 0.63446 0.0
H2497 H 0.84792 0.10282 0.68792 0.0
H2498 H 0.81311 0.09124 0.70157 0.0
H2499 H 0.78692 0.09469 0.63842 0.0
H2500 H 0.82139 0.10628 0.62465 0.0
H2501 H 0.78174 0.05501 0.65836 0.0
H2502 H 0.77244 0.12961 0.67362 0.0
H2503 H 0.7825 0.16395 0.69002 0.0
H2504 H 0.77871 0.13574 0.75195 0.0
H2505 H 0.76894 0.10113 0.7359 0.0
C2506 C 0.68527 0.03482 0.68559 0.0
C2507 C 0.67989 0.03095 0.70687 0.0
C2508 C 0.70403 0.04579 0.68052 0.0
C2509 C 0.71814 0.05246 0.6966 0.0
C2510 C 0.71241 0.04929 0.71793 0.0
C2511 C 0.69333 0.03873 0.72304 0.0
C2512 C 0.73915 0.06195 0.69099 0.0
C2513 C 0.74543 0.08152 0.70002 0.0
C2514 C 0.75265 0.05208 0.67609 0.0
C2515 C 0.74805 0.03053 0.66739 0.0
C2516 C 0.74441 0.01321 0.68108 0.0
C2517 C 0.73995 0.993 0.6728 0.0
C2518 C 0.73926 0.98986 0.65084 0.0
C2519 C 0.74307 0.00692 0.63711 0.0
C2520 C 0.74749 0.02717 0.64531 0.0
C2521 C 0.83467 0.10139 0.67699 0.0
C2522 C 0.8375 0.10517 0.65515 0.0
C2523 C 0.81481 0.09488 0.68484 0.0
C2524 C 0.79755 0.09208 0.67094 0.0
C2525 C 0.80011 0.09673 0.64934 0.0
C2526 C 0.81985 0.10335 0.64153 0.0
C2527 C 0.77736 0.08233 0.67834 0.0
C2528 C 0.77137 0.06257 0.66975 0.0
C2529 C 0.76444 0.09186 0.69389 0.0
C2530 C 0.77016 0.11272 0.70354 0.0
C2531 C 0.77393 0.13068 0.69073 0.0
C2532 C 0.77954 0.1502 0.69996 0.0
C2533 C 0.78126 0.15202 0.72201 0.0
C2534 C 0.77737 0.13431 0.73487 0.0
C2535 C 0.77177 0.11474 0.72571 0.0
H2536 H 0.78559 0.16715 0.72913 0.0
H2537 H 0.73581 0.97419 0.64446 0.0
H2538 H 0.69245 0.88383 0.44737 0.0
H2539 H 0.66822 0.90872 0.43078 0.0
H2540 H 0.67056 0.94792 0.487 0.0
H2541 H 0.69409 0.92269 0.50397 0.0
H2542 H 0.63326 0.95315 0.4658 0.0
H2543 H 0.70867 0.95374 0.44962 0.0
H2544 H 0.74192 0.93746 0.43757 0.0
H2545 H 0.71347 0.92337 0.37705 0.0
H2546 H 0.67993 0.93932 0.38889 0.0
H2547 H 0.64439 0.05936 0.43125 0.0
H2548 H 0.64603 0.02378 0.44619 0.0
H2549 H 0.64115 -0.00326 0.38334 0.0
H2550 H 0.63989 0.0324 0.36815 0.0
H2551 H 0.67396 0.98162 0.40426 0.0
H2552 H 0.60049 0.99028 0.41977 0.0
H2553 H 0.56926 0.0091 0.43328 0.0
H2554 H 0.59539 0.00862 0.49624 0.0
H2555 H 0.62693 0.99003 0.48308 0.0
C2556 C 0.68712 0.89732 0.45649 0.0
C2557 C 0.69552 0.90162 0.47675 0.0
C2558 C 0.67328 0.91153 0.447 0.0
C2559 C 0.66815 0.93049 0.45742 0.0
C2560 C 0.67444 0.93347 0.47861 0.0
C2561 C 0.68798 0.91905 0.48827 0.0
C2562 C 0.66014 0.94877 0.4452 0.0
C2563 C 0.64204 0.95938 0.45228 0.0
C2564 C 0.67154 0.95678 0.42746 0.0
C2565 C 0.69176 0.94747 0.42021 0.0
C2566 C 0.70949 0.94706 0.43378 0.0
C2567 C 0.72838 0.9379 0.427 0.0
C2568 C 0.72979 0.92933 0.40657 0.0
C2569 C 0.71233 0.92997 0.39288 0.0
C2570 C 0.69338 0.93906 0.39962 0.0
C2571 C 0.64347 0.04587 0.42058 0.0
C2572 C 0.64228 0.04874 0.39847 0.0
C2573 C 0.64416 0.0255 0.42919 0.0
C2574 C 0.64344 0.00758 0.41591 0.0
C2575 C 0.64162 0.01037 0.39388 0.0
C2576 C 0.64099 0.03076 0.38523 0.0
C2577 C 0.64711 0.98622 0.42486 0.0
C2578 C 0.66464 0.97511 0.4173 0.0
C2579 C 0.63533 0.97805 0.44229 0.0
C2580 C 0.61615 0.98882 0.45039 0.0
C2581 C 0.59964 0.99426 0.43648 0.0
C2582 C 0.58187 0.00489 0.44408 0.0
C2583 C 0.58036 0.01008 0.4656 0.0
C2584 C 0.59658 0.00457 0.47958 0.0
C2585 C 0.61438 0.99394 0.47206 0.0
H2586 H 0.56662 0.01836 0.47144 0.0
H2587 H 0.74442 0.92224 0.40134 0.0
H2588 H 0.84134 0.95372 0.20215 0.0
H2589 H 0.81366 0.93109 0.1866 0.0
H2590 H 0.77278 0.94343 0.24004 0.0
H2591 H 0.80082 0.96595 0.25608 0.0
H2592 H 0.76999 0.90137 0.22606 0.0
H2593 H 0.76643 0.97141 0.19645 0.0
H2594 H 0.78069 0.00388 0.17936 0.0
H2595 H 0.7991 0.96753 0.12487 0.0
H2596 H 0.78522 0.93477 0.14177 0.0
H2597 H 0.67088 0.88165 0.17511 0.0
H2598 H 0.70185 0.8945 0.19468 0.0
H2599 H 0.74118 0.88464 0.13955 0.0
H2600 H 0.71006 0.87203 0.11958 0.0
H2601 H 0.7455 0.92406 0.15485 0.0
H2602 H 0.74624 0.85391 0.18413 0.0
H2603 H 0.73067 0.82214 0.20141 0.0
H2604 H 0.71602 0.85909 0.25668 0.0
H2605 H 0.73124 0.89116 0.23961 0.0
C2606 C 0.82652 0.95155 0.2107 0.0
C2607 C 0.82306 0.96183 0.23018 0.0
C2608 C 0.81076 0.93857 0.20181 0.0
C2609 C 0.79112 0.93591 0.21203 0.0
C2610 C 0.78788 0.94538 0.23193 0.0
C2611 C 0.8038 0.95828 0.24099 0.0
C2612 C 0.77363 0.92446 0.20107 0.0
C2613 C 0.76443 0.90639 0.21059 0.0
C2614 C 0.76674 0.9309 0.18074 0.0
C2615 C 0.77497 0.95061 0.17046 0.0
C2616 C 0.77366 0.97032 0.18089 0.0
C2617 C 0.78165 0.98878 0.17123 0.0
C2618 C 0.79084 0.98776 0.15106 0.0
C2619 C 0.792 0.96828 0.1405 0.0
C2620 C 0.78406 0.94977 0.1501 0.0
C2621 C 0.68614 0.8819 0.16717 0.0
C2622 C 0.68797 0.87605 0.14568 0.0
C2623 C 0.70387 0.88911 0.17847 0.0
C2624 C 0.7238 0.89038 0.16859 0.0
C2625 C 0.72589 0.88373 0.14742 0.0
C2626 C 0.70811 0.87656 0.13605 0.0
C2627 C 0.7419 0.90075 0.17966 0.0
C2628 C 0.75115 0.91881 0.17021 0.0
C2629 C 0.74864 0.89433 0.20007 0.0
C2630 C 0.73976 0.87499 0.21051 0.0
C2631 C 0.73958 0.8553 0.19991 0.0
C2632 C 0.73083 0.83723 0.20968 0.0
C2633 C 0.72232 0.8386 0.23011 0.0
C2634 C 0.72261 0.85805 0.24085 0.0
C2635 C 0.73133 0.87617 0.23115 0.0
H2636 H 0.71553 0.8246 0.23764 0.0
H2637 H 0.79703 0.00207 0.14361 0.0
H2638 H 0.81612 0.09896 -0.0015 0.0
H2639 H 0.84059 0.07911 0.97617 0.0
H2640 H 0.81407 0.10791 0.92027 0.0
H2641 H 0.78941 0.12748 0.94241 0.0
H2642 H 0.80552 0.06541 0.92382 0.0
H2643 H 0.86663 0.11158 0.92834 0.0
H2644 H 0.89389 0.13372 0.94638 0.0
H2645 H 0.91607 0.07903 0.97973 0.0
H2646 H 0.88874 0.0566 0.96215 0.0
H2647 H 0.84387 0.98523 0.86234 0.0
H2648 H 0.84672 0.02249 0.87312 0.0
H2649 H 0.86382 0.00351 0.93651 0.0
H2650 H 0.86115 0.96628 0.92594 0.0
H2651 H 0.88139 0.04528 0.92345 0.0
H2652 H 0.8155 0.00551 0.93289 0.0
H2653 H 0.78923 0.9791 0.91963 0.0
H2654 H 0.7759 0.01912 0.86633 0.0
H2655 H 0.80243 0.04568 0.87918 0.0
C2656 C 0.81612 0.10169 0.98153 0.0
C2657 C 0.80053 0.11423 0.97208 0.0
C2658 C 0.83022 0.09047 0.96878 0.0
C2659 C 0.82897 0.09194 0.94657 0.0
C2660 C 0.81522 0.10655 0.93738 0.0
C2661 C 0.80103 0.11757 0.95004 0.0
C2662 C 0.83736 0.07467 0.93333 0.0
C2663 C 0.82224 0.06155 0.92311 0.0
C2664 C 0.85901 0.06899 0.93339 0.0
C2665 C 0.87553 0.08241 0.94398 0.0
C2666 C 0.8772 0.10429 0.93965 0.0
C2667 C 0.8927 0.11689 0.94977 0.0
C2668 C 0.90668 0.10779 0.96421 0.0
C2669 C 0.90523 0.08606 0.96853 0.0
C2670 C 0.88976 0.07339 0.95846 0.0
C2671 C 0.8487 0.98899 0.87844 0.0
C2672 C 0.8515 0.97287 0.89351 0.0
C2673 C 0.85066 0.01026 0.88446 0.0
C2674 C 0.85538 0.01564 0.90561 0.0
C2675 C 0.86032 -0.00036 0.92009 0.0
C2676 C 0.85832 0.97838 0.91411 0.0
C2677 C 0.84955 0.03663 0.91384 0.0
C2678 C 0.8649 0.04996 0.92343 0.0
C2679 C 0.828 0.04239 0.91395 0.0
C2680 C 0.81099 0.02742 0.90686 0.0
C2681 C 0.80692 0.00867 0.91836 0.0
C2682 C 0.79206 0.99367 0.91091 0.0
C2683 C 0.78101 -0.0026 0.89211 0.0
C2684 C 0.78456 0.01626 0.88086 0.0
C2685 C 0.79949 0.03131 0.88822 0.0
H2686 H 0.76976 0.98559 0.8863 0.0
H2687 H 0.91867 0.11758 0.97203 0.0
H2688 H 0.73336 0.702 0.96653 0.0
H2689 H 0.74419 0.73651 0.95183 0.0
H2690 H 0.79496 0.70674 0.91744 0.0
H2691 H 0.78459 0.67242 0.9325 0.0
H2692 H 0.80968 0.73743 0.94187 0.0
H2693 H 0.75295 0.72965 0.89169 0.0
H2694 H 0.71607 0.72309 0.87982 0.0
H2695 H 0.69561 0.77724 0.91536 0.0
H2696 H 0.73234 0.78396 0.92769 0.0
H2697 H 0.85101 0.828 0.89072 0.0
H2698 H 0.83478 0.79362 0.89897 0.0
H2699 H 0.78267 0.82473 0.92997 0.0
H2700 H 0.79844 0.8594 0.92078 0.0
H2701 H 0.76797 0.79345 0.90687 0.0
H2702 H 0.82356 0.79656 0.96186 0.0
H2703 H 0.86012 0.8008 0.97587 0.0
H2704 H 0.88228 0.75522 0.93069 0.0
H2705 H 0.84577 0.75007 0.91701 0.0
C2706 C 0.74652 0.7028 0.95545 0.0
C2707 C 0.75838 0.68469 0.95088 0.0
C2708 C 0.75262 0.72248 0.94698 0.0
C2709 C 0.77042 0.72415 0.9336 0.0
C2710 C 0.78127 0.70577 0.92785 0.0
C2711 C 0.77536 0.68621 0.93648 0.0
C2712 C 0.77952 0.74518 0.92794 0.0
C2713 C 0.80063 0.74955 0.93389 0.0
C2714 C 0.7675 0.76119 0.91818 0.0
C2715 C 0.74539 0.75719 0.91078 0.0
C2716 C 0.74056 0.74006 0.89713 0.0
C2717 C 0.71969 0.73633 0.89028 0.0
C2718 C 0.7035 0.74971 0.89687 0.0
C2719 C 0.70816 0.76687 0.91028 0.0
C2720 C 0.72902 0.77066 0.91719 0.0
C2721 C 0.83615 0.82753 0.8994 0.0
C2722 C 0.82604 0.84633 0.90525 0.0
C2723 C 0.82696 0.80785 0.90425 0.0
C2724 C 0.80777 0.80657 0.91556 0.0
C2725 C 0.79754 0.82535 0.92132 0.0
C2726 C 0.80655 0.84512 0.91609 0.0
C2727 C 0.79814 0.7856 0.92076 0.0
C2728 C 0.77696 0.78128 0.91481 0.0
C2729 C 0.81004 0.76952 0.93056 0.0
C2730 C 0.83205 0.77314 0.93827 0.0
C2731 C 0.83628 0.78757 0.95485 0.0
C2732 C 0.85694 0.79005 0.96278 0.0
C2733 C 0.87353 0.77854 0.95397 0.0
C2734 C 0.86944 0.76422 0.93743 0.0
C2735 C 0.84875 0.76136 0.92971 0.0
H2736 H 0.88952 0.7806 0.96007 0.0
H2737 H 0.68734 0.7468 0.89155 0.0
H2738 H 0.25225 0.82397 0.04991 0.0
H2739 H 0.26047 0.79774 0.07714 0.0
H2740 H 0.32007 0.7853 0.04607 0.0
H2741 H 0.31185 0.81109 0.01863 0.0
H2742 H 0.29994 0.74971 0.05466 0.0
H2743 H 0.31773 0.8138 0.09247 0.0
H2744 H 0.3115 0.84932 0.1075 0.0
H2745 H 0.2611 0.82364 0.14623 0.0
H2746 H 0.26685 0.78798 0.13121 0.0
H2747 H 0.35913 0.7104 0.14631 0.0
H2748 H 0.34089 0.74125 0.13239 0.0
H2749 H 0.28722 0.7013 0.11497 0.0
H2750 H 0.30531 0.67031 0.12888 0.0
H2751 H 0.30173 0.76313 0.13236 0.0
H2752 H 0.28242 0.70955 0.05999 0.0
H2753 H 0.29392 0.67588 0.04393 0.0
H2754 H 0.3552 0.68377 0.07324 0.0
H2755 H 0.34431 0.71761 0.08884 0.0
C2756 C 0.26715 0.81571 0.04893 0.0
C2757 C 0.28135 0.81952 0.03203 0.0
C2758 C 0.27186 0.80082 0.06457 0.0
C2759 C 0.29091 0.78967 0.06367 0.0
C2760 C 0.30523 0.7937 0.04701 0.0
C2761 C 0.30051 0.80845 0.03134 0.0
C2762 C 0.29561 0.77296 0.07936 0.0
C2763 C 0.30012 0.75266 0.07165 0.0
C2764 C 0.29607 0.77686 0.10152 0.0
C2765 C 0.29255 0.79827 0.11052 0.0
C2766 C 0.30518 0.81576 0.10404 0.0
C2767 C 0.30177 0.83591 0.11259 0.0
C2768 C 0.28587 0.83875 0.12776 0.0
C2769 C 0.27339 0.82142 0.13445 0.0
C2770 C 0.27673 0.80124 0.12593 0.0
C2771 C 0.34312 0.70829 0.14022 0.0
C2772 C 0.3339 0.68787 0.13809 0.0
C2773 C 0.33265 0.72598 0.13244 0.0
C2774 C 0.31295 0.7234 0.12229 0.0
C2775 C 0.30253 0.70349 0.12263 0.0
C2776 C 0.31294 0.6858 0.13053 0.0
C2777 C 0.30585 0.74002 0.10755 0.0
C2778 C 0.301 0.76021 0.11539 0.0
C2779 C 0.30564 0.73628 0.08538 0.0
C2780 C 0.31236 0.71588 0.07596 0.0
C2781 C 0.29834 0.70404 0.06299 0.0
C2782 C 0.30478 0.68494 0.05391 0.0
C2783 C 0.32522 0.67755 0.05767 0.0
C2784 C 0.33929 0.68928 0.07048 0.0
C2785 C 0.333 0.70846 0.07942 0.0
H2786 H 0.33018 0.66283 0.05051 0.0
H2787 H 0.28325 0.85436 0.13437 0.0
H2788 H 0.92323 0.46519 0.80307 0.0
H2789 H 0.95287 0.47858 0.82497 0.0
H2790 H 0.9326 0.54281 0.81468 0.0
H2791 H 0.9032 0.52965 0.79287 0.0
H2792 H 0.9837 0.50487 0.80721 0.0
H2793 H 0.94769 0.57383 0.8561 0.0
H2794 H 0.91486 0.58133 0.87586 0.0
H2795 H 0.90411 0.51459 0.88611 0.0
H2796 H 0.93703 0.50668 0.86669 0.0
H2797 H 0.04008 0.60574 0.84881 0.0
H2798 H 0.0074 0.5851 0.84228 0.0
H2799 H 0.04065 0.52713 0.85458 0.0
H2800 H 0.07342 0.54752 0.86085 0.0
H2801 H 0.98353 0.55729 0.86614 0.0
H2802 H 0.02325 0.48994 0.81919 0.0
H2803 H 0.05507 0.48436 0.79711 0.0
H2804 H 0.05635 0.55035 0.77992 0.0
H2805 H 0.02442 0.55624 0.80167 0.0
C2806 C 0.92481 0.48211 0.80597 0.0
C2807 C 0.91112 0.49642 0.7961 0.0
C2808 C 0.94172 0.48971 0.81843 0.0
C2809 C 0.94482 0.51165 0.82148 0.0
C2810 C 0.93032 0.52581 0.81276 0.0
C2811 C 0.91363 0.51828 0.80015 0.0
C2812 C 0.96467 0.52014 0.831 0.0
C2813 C 0.98377 0.51585 0.82052 0.0
C2814 C 0.96453 0.53504 0.84783 0.0
C2815 C 0.94481 0.53966 0.8598 0.0
C2816 C 0.9384 0.56075 0.86268 0.0
C2817 C 0.91975 0.56508 0.8738 0.0
C2818 C 0.90738 0.54845 0.8822 0.0
C2819 C 0.91367 0.52746 0.87953 0.0
C2820 C 0.93231 0.52304 0.86843 0.0
C2821 C 0.04042 0.5886 0.85019 0.0
C2822 C 0.05939 0.57824 0.85508 0.0
C2823 C 0.02172 0.57686 0.8466 0.0
C2824 C 0.0217 0.55462 0.84782 0.0
C2825 C 0.04043 0.54428 0.85333 0.0
C2826 C 0.05914 0.55597 0.85684 0.0
C2827 C 0.00238 0.54219 0.84214 0.0
C2828 C 0.98347 0.54586 0.85323 0.0
C2829 C 0.00255 0.52698 0.8256 0.0
C2830 C 0.02163 0.52355 0.81228 0.0
C2831 C 0.03031 0.50323 0.81066 0.0
C2832 C 0.04837 0.50002 0.7982 0.0
C2833 C 0.05778 0.517 0.78719 0.0
C2834 C 0.04911 0.53722 0.78854 0.0
C2835 C 0.03106 0.54051 0.80095 0.0
H2836 H 0.07176 0.51448 0.77757 0.0
H2837 H 0.89294 0.55184 0.89079 0.0
H2838 H 0.19897 0.1407 0.54053 0.0
H2839 H 0.17897 0.16221 0.5656 0.0
H2840 H 0.23443 0.20226 0.57597 0.0
H2841 H 0.25468 0.18054 0.5513 0.0
H2842 H 0.20892 0.1991 0.6121 0.0
H2843 H 0.20158 0.21382 0.53632 0.0
H2844 H 0.19303 0.20387 0.49934 0.0
H2845 H 0.12987 0.18496 0.51823 0.0
H2846 H 0.13818 0.19458 0.55539 0.0
H2847 H 0.18102 0.30621 0.61472 0.0
H2848 H 0.19374 0.27016 0.61071 0.0
H2849 H 0.12925 0.24695 0.60268 0.0
H2850 H 0.11636 0.28312 0.60631 0.0
H2851 H 0.1533 0.23554 0.57075 0.0
H2852 H 0.15874 0.23126 0.6453 0.0
H2853 H 0.1678 0.24308 0.68157 0.0
H2854 H 0.23415 0.24371 0.66565 0.0
H2855 H 0.2255 0.23224 0.62916 0.0
C2856 C 0.20705 0.15378 0.54854 0.0
C2857 C 0.22823 0.15928 0.54361 0.0
C2858 C 0.19563 0.16597 0.56293 0.0
C2859 C 0.20514 0.18401 0.5723 0.0
C2860 C 0.22681 0.18839 0.56887 0.0
C2861 C 0.23831 0.17607 0.55464 0.0
C2862 C 0.19191 0.20027 0.58247 0.0
C2863 C 0.19668 0.20709 0.6032 0.0
C2864 C 0.17562 0.21027 0.57095 0.0
C2865 C 0.17057 0.20465 0.54862 0.0
C2866 C 0.18592 0.20741 0.53259 0.0
C2867 C 0.18112 0.20184 0.51161 0.0
C2868 C 0.16094 0.19372 0.50645 0.0
C2869 C 0.14551 0.1912 0.52226 0.0
C2870 C 0.15025 0.19671 0.54327 0.0
C2871 C 0.16949 0.29342 0.61241 0.0
C2872 C 0.14771 0.29757 0.61042 0.0
C2873 C 0.17677 0.27276 0.61038 0.0
C2874 C 0.16242 0.25585 0.60656 0.0
C2875 C 0.14057 0.25979 0.60568 0.0
C2876 C 0.13326 0.28048 0.60764 0.0
C2877 C 0.17055 0.23487 0.60031 0.0
C2878 C 0.16494 0.2272 0.58013 0.0
C2879 C 0.18606 0.22426 0.61237 0.0
C2880 C 0.19144 0.23095 0.63441 0.0
C2881 C 0.17526 0.23404 0.64947 0.0
C2882 C 0.18033 0.24067 0.67009 0.0
C2883 C 0.20153 0.24416 0.6759 0.0
C2884 C 0.21772 0.24098 0.66112 0.0
C2885 C 0.21275 0.23438 0.64047 0.0
H2886 H 0.20542 0.2493 0.69187 0.0
H2887 H 0.15725 0.18942 0.4902 0.0
H2888 H 0.08901 0.94893 0.82895 0.0
H2889 H 0.05372 0.94293 0.84401 0.0
H2890 H 0.03599 0.00611 0.82571 0.0
H2891 H 0.07155 0.01239 0.81077 0.0
H2892 H 0.01543 0.98836 0.86521 0.0
H2893 H 0.02714 0.97318 0.7907 0.0
H2894 H 0.04725 0.95788 0.76095 0.0
H2895 H 0.03906 0.89556 0.78768 0.0
H2896 H 0.01923 0.91058 0.81781 0.0
H2897 H 0.90508 0.96045 0.85242 0.0
H2898 H 0.94097 0.97506 0.84702 0.0
H2899 H 0.96645 0.91214 0.85207 0.0
H2900 H 0.93076 0.89736 0.85714 0.0
H2901 H 0.98242 0.93305 0.81875 0.0
H2902 H 0.9704 0.94742 0.89289 0.0
H2903 H 0.95098 0.96215 0.92337 0.0
H2904 H 0.95956 0.02509 0.89826 0.0
H2905 H 0.97878 0.01069 0.86744 0.0
C2906 C 0.07784 0.9618 0.82876 0.0
C2907 C 0.08274 0.98093 0.81831 0.0
C2908 C 0.05776 0.95839 0.83745 0.0
C2909 C 0.04228 0.97396 0.83555 0.0
C2910 C 0.04782 0.99396 0.82725 0.0
C2911 C 0.06807 -0.00253 0.81867 0.0
C2912 C 0.01978 0.96776 0.83831 0.0
C2913 C 0.00803 0.9765 0.85495 0.0
C2914 C 0.01037 0.95215 0.82494 0.0
C2915 C 0.02188 0.94303 0.80659 0.0
C2916 C 0.02976 0.95624 0.79031 0.0
C2917 C 0.04109 0.94762 0.77337 0.0
C2918 C 0.04447 0.92577 0.77245 0.0
C2919 C 0.03645 0.91249 0.78843 0.0
C2920 C 0.02516 0.92104 0.80543 0.0
C2921 C 0.91833 0.94972 0.85229 0.0
C2922 C 0.9151 0.92774 0.85515 0.0
C2923 C 0.9388 0.95812 0.84938 0.0
C2924 C 0.9563 0.94469 0.84941 0.0
C2925 C 0.9531 0.92276 0.85207 0.0
C2926 C 0.9327 0.91435 0.85496 0.0
C2927 C 0.97801 0.95324 0.846 0.0
C2928 C 0.98966 0.94501 0.82904 0.0
C2929 C 0.9872 0.96925 0.85912 0.0
C2930 C 0.97583 0.97795 0.87774 0.0
C2931 C 0.968 0.96439 0.89378 0.0
C2932 C 0.95705 0.97268 0.91113 0.0
C2933 C 0.95398 0.99454 0.91272 0.0
C2934 C 0.96192 0.00816 0.89699 0.0
C2935 C 0.97286 -6e-05 0.87958 0.0
H2936 H 0.94549 0.00093 0.92616 0.0
H2937 H 0.05326 0.91912 0.75933 0.0
H2938 H 0.71829 0.30578 0.49454 0.0
H2939 H 0.70319 0.27777 0.47222 0.0
H2940 H 0.7361 0.30404 0.41781 0.0
H2941 H 0.75216 0.33167 0.44049 0.0
H2942 H 0.67762 0.27721 0.44125 0.0
H2943 H 0.74652 0.26422 0.38261 0.0
H2944 H 0.78557 0.26849 0.38091 0.0
H2945 H 0.78953 0.26122 0.44857 0.0
H2946 H 0.75056 0.25666 0.45062 0.0
H2947 H 0.639 0.19425 0.37598 0.0
H2948 H 0.65566 0.22862 0.38482 0.0
H2949 H 0.70745 0.1964 0.41511 0.0
H2950 H 0.69154 0.16225 0.40532 0.0
H2951 H 0.7226 0.22992 0.39801 0.0
H2952 H 0.66192 0.21433 0.44294 0.0
H2953 H 0.62418 0.20605 0.45045 0.0
H2954 H 0.6061 0.26403 0.4202 0.0
H2955 H 0.64376 0.27253 0.41232 0.0
C2956 C 0.72235 0.30559 0.47783 0.0
C2957 C 0.73647 0.32082 0.46925 0.0
C2958 C 0.71362 0.28963 0.46504 0.0
C2959 C 0.71855 0.28872 0.44333 0.0
C2960 C 0.73234 0.30419 0.43459 0.0
C2961 C 0.74147 0.31998 0.44752 0.0
C2962 C 0.70939 0.27122 0.43026 0.0
C2963 C 0.68745 0.26698 0.43165 0.0
C2964 C 0.7222 0.25777 0.41782 0.0
C2965 C 0.74563 0.26041 0.41677 0.0
C2966 C 0.75575 0.26352 0.3971 0.0
C2967 C 0.77786 0.26598 0.39609 0.0
C2968 C 0.79001 0.26522 0.41463 0.0
C2969 C 0.78009 0.2619 0.43423 0.0
C2970 C 0.75799 0.2594 0.43533 0.0
C2971 C 0.65409 0.19459 0.38427 0.0
C2972 C 0.66384 0.17565 0.39026 0.0
C2973 C 0.66357 0.21419 0.38933 0.0
C2974 C 0.68257 0.2151 0.40104 0.0
C2975 C 0.6928 0.19615 0.40607 0.0
C2976 C 0.68362 0.1766 0.40057 0.0
C2977 C 0.69101 0.23545 0.40974 0.0
C2978 C 0.71273 0.24038 0.4073 0.0
C2979 C 0.67821 0.24899 0.42209 0.0
C2980 C 0.65559 0.24393 0.42682 0.0
C2981 C 0.64987 0.22524 0.43778 0.0
C2982 C 0.62851 0.22051 0.44212 0.0
C2983 C 0.61275 0.23447 0.43574 0.0
C2984 C 0.61833 0.25321 0.42508 0.0
C2985 C 0.63967 0.258 0.42068 0.0
H2986 H 0.59622 0.23079 0.43912 0.0
H2987 H 0.80712 0.26714 0.41381 0.0
H2988 H 0.92563 0.48656 0.69226 0.0
H2989 H 0.95572 0.47622 0.6702 0.0
H2990 H 0.93398 0.41082 0.67263 0.0
H2991 H 0.90434 0.42094 0.69516 0.0
H2992 H 0.97348 0.41404 0.68467 0.0
H2993 H 0.93306 0.44083 0.62621 0.0
H2994 H 0.91254 0.46727 0.60645 0.0
H2995 H 0.96668 0.50984 0.60607 0.0
H2996 H 0.98745 0.48376 0.62609 0.0
H2997 H 0.04459 0.36656 0.61764 0.0
H2998 H 0.0108 0.38315 0.62529 0.0
H2999 H 0.04322 0.44308 0.63645 0.0
H3000 H 0.07733 0.42661 0.62889 0.0
H3001 H -0.0008 0.44425 0.61638 0.0
H3002 H 0.03858 0.41764 0.67662 0.0
H3003 H 0.05916 0.39042 0.69523 0.0
H3004 H 0.00583 0.34698 0.69179 0.0
H3005 H 0.98509 0.3738 0.67271 0.0
C3006 C 0.92706 0.47005 0.68774 0.0
C3007 C 0.91282 0.4545 0.69563 0.0
C3008 C 0.94421 0.46418 0.67506 0.0
C3009 C 0.94708 0.44275 0.66979 0.0
C3010 C 0.93212 0.42743 0.67663 0.0
C3011 C 0.91521 0.43323 0.68951 0.0
C3012 C 0.96679 0.43584 0.65923 0.0
C3013 C 0.97885 0.42047 0.66958 0.0
C3014 C 0.9742 0.44471 0.63989 0.0
C3015 C 0.96174 0.46042 0.62784 0.0
C3016 C 0.94054 0.4559 0.62208 0.0
C3017 C 0.92887 0.47081 0.61079 0.0
C3018 C 0.93828 0.49024 0.60506 0.0
C3019 C 0.9594 0.49479 0.61054 0.0
C3020 C 0.97114 0.47994 0.62184 0.0
C3021 C 0.04457 0.38338 0.62124 0.0
C3022 C 0.06368 0.39515 0.62326 0.0
C3023 C 0.02522 0.39285 0.62545 0.0
C3024 C 0.02468 0.41419 0.63167 0.0
C3025 C 0.04344 0.42656 0.63165 0.0
C3026 C 0.06289 0.41707 0.6275 0.0
C3027 C 0.00532 0.42228 0.64168 0.0
C3028 C 0.99357 0.4379 0.63141 0.0
C3029 C -0.00194 0.41366 0.66113 0.0
C3030 C 0.01037 0.39766 0.67301 0.0
C3031 C 0.03131 0.40222 0.67965 0.0
C3032 C 0.043 0.38687 0.6903 0.0
C3033 C 0.03383 0.36696 0.69464 0.0
C3034 C 0.01293 0.36239 0.68838 0.0
C3035 C 0.0012 0.37766 0.67764 0.0
H3036 H 0.0429 0.3551 0.70288 0.0
H3037 H 0.92923 0.50176 0.59632 0.0
H3038 H 0.6059 0.5694 0.1933 0.0
H3039 H 0.58502 0.59224 0.17027 0.0
H3040 H 0.54477 0.5386 0.1533 0.0
H3041 H 0.5659 0.51564 0.1756 0.0
H3042 H 0.54505 0.56759 0.12188 0.0
H3043 H 0.53578 0.56682 0.19933 0.0
H3044 H 0.54848 0.572 0.23609 0.0
H3045 H 0.56555 0.63683 0.222 0.0
H3046 H 0.55317 0.63191 0.18506 0.0
H3047 H 0.437 0.58372 0.13603 0.0
H3048 H 0.47452 0.57529 0.13391 0.0
H3049 H 0.49146 0.64111 0.14505 0.0
H3050 H 0.45381 0.64968 0.14756 0.0
H3051 H 0.50997 0.6161 0.17256 0.0
H3052 H 0.5048 0.61724 0.09782 0.0
H3053 H 0.48903 0.60997 0.06265 0.0
H3054 H 0.49626 0.543 0.07215 0.0
H3055 H 0.51176 0.5498 0.10751 0.0
C3056 C 0.59307 0.56234 0.18406 0.0
C3057 C 0.58711 0.54088 0.18672 0.0
C3058 C 0.58119 0.57541 0.17087 0.0
C3059 C 0.56298 0.56722 0.16059 0.0
C3060 C 0.55866 0.54529 0.16121 0.0
C3061 C 0.57068 0.53219 0.17413 0.0
C3062 C 0.54612 0.58147 0.15313 0.0
C3063 C 0.53744 0.5784 0.1328 0.0
C3064 C 0.5365 0.59593 0.16726 0.0
C3065 C 0.54385 0.59893 0.18943 0.0
C3066 C 0.54236 0.58213 0.20407 0.0
C3067 C 0.54949 0.58502 0.22492 0.0
C3068 C 0.55788 0.60471 0.23136 0.0
C3069 C 0.55911 0.62157 0.21697 0.0
C3070 C 0.55206 0.61874 0.19608 0.0
C3071 C 0.44867 0.59648 0.13777 0.0
C3072 C 0.44244 0.61731 0.14233 0.0
C3073 C 0.47014 0.59169 0.13624 0.0
C3074 C 0.4858 0.60763 0.13906 0.0
C3075 C 0.47962 0.62862 0.14268 0.0
C3076 C 0.4581 0.63344 0.14422 0.0
C3077 C 0.50827 0.60161 0.14157 0.0
C3078 C 0.51799 0.60614 0.16112 0.0
C3079 C 0.51854 0.5883 0.1268 0.0
C3080 C 0.50945 0.58406 0.10539 0.0
C3081 C 0.50294 0.60094 0.09247 0.0
C3082 C 0.49405 0.59691 0.07249 0.0
C3083 C 0.49165 0.57604 0.06517 0.0
C3084 C 0.49816 0.55916 0.07782 0.0
C3085 C 0.50705 0.56311 0.09782 0.0
H3086 H 0.48474 0.57295 0.04971 0.0
H3087 H 0.56339 0.60693 0.24751 0.0
H3088 H 0.56671 0.70218 0.84842 0.0
H3089 H 0.59169 0.68998 0.82152 0.0
H3090 H 0.54003 0.6592 0.7876 0.0
H3091 H 0.5151 0.67084 0.81463 0.0
H3092 H 0.5751 0.63727 0.7831 0.0
H3093 H 0.55497 0.71093 0.77718 0.0
H3094 H 0.55172 0.74776 0.79005 0.0
H3095 H 0.61947 0.75276 0.7976 0.0
H3096 H 0.62306 0.71584 0.78503 0.0
H3097 H 0.60202 0.67328 0.67265 0.0
H3098 H 0.59312 0.68459 0.70876 0.0
H3099 H 0.63545 0.63794 0.73427 0.0
H3100 H 0.64362 0.62603 0.69826 0.0
H3101 H 0.60989 0.69809 0.74582 0.0
H3102 H 0.60992 0.61118 0.7728 0.0
H3103 H 0.60964 0.57525 0.75704 0.0
H3104 H 0.57534 0.59808 0.703 0.0
H3105 H 0.5752 0.63407 0.71859 0.0
C3106 C 0.56077 0.69228 0.83555 0.0
C3107 C 0.5389 0.68777 0.83339 0.0
C3108 C 0.57506 0.68541 0.82016 0.0
C3109 C 0.56761 0.67418 0.80231 0.0
C3110 C 0.54609 0.66797 0.8012 0.0
C3111 C 0.53184 0.67466 0.81666 0.0
C3112 C 0.58142 0.671 0.78362 0.0
C3113 C 0.58298 0.65051 0.77514 0.0
C3114 C 0.59138 0.68837 0.77302 0.0
C3115 C 0.58925 0.71058 0.78043 0.0
C3116 C 0.56915 0.71985 0.78173 0.0
C3117 C 0.56725 0.74074 0.78895 0.0
C3118 C 0.58537 0.75257 0.7947 0.0
C3119 C 0.60544 0.74356 0.79318 0.0
C3120 C 0.60742 0.72266 0.78602 0.0
C3121 C 0.60995 0.66601 0.68598 0.0
C3122 C 0.62321 0.64865 0.68289 0.0
C3123 C 0.60489 0.67245 0.70657 0.0
C3124 C 0.61324 0.6617 0.72414 0.0
C3125 C 0.62852 0.64611 0.72091 0.0
C3126 C 0.63321 0.63937 0.7004 0.0
C3127 C 0.60345 0.66439 0.74529 0.0
C3128 C 0.60256 0.68477 0.75415 0.0
C3129 C 0.59352 0.64703 0.75592 0.0
C3130 C 0.59277 0.62532 0.74675 0.0
C3131 C 0.60222 0.60848 0.75761 0.0
C3132 C 0.60216 0.58813 0.74871 0.0
C3133 C 0.59257 0.58441 0.72899 0.0
C3134 C 0.58283 0.601 0.71823 0.0
C3135 C 0.58282 0.62137 0.7271 0.0
H3136 H 0.59271 0.56867 0.72209 0.0
H3137 H 0.58387 0.76874 0.80029 0.0
H3138 H 0.50712 0.35702 0.1105 0.0
H3139 H 0.52816 0.37126 0.08092 0.0
H3140 H 0.55552 0.30964 0.0713 0.0
H3141 H 0.53546 0.2957 0.10142 0.0
H3142 H 0.58338 0.33785 0.06105 0.0
H3143 H 0.50893 0.32618 0.04494 0.0
H3144 H 0.4704 0.33112 0.04953 0.0
H3145 H 0.47857 0.398 0.03813 0.0
H3146 H 0.51721 0.39347 0.03372 0.0
H3147 H 0.56344 0.34393 0.93994 0.0
H3148 H 0.55005 0.34213 0.97627 0.0
H3149 H 0.60561 0.37705 -0.00171 0.0
H3150 H 0.61964 0.37767 0.96202 0.0
H3151 H 0.53811 0.36764 0.00436 0.0
H3152 H 0.61821 0.36241 0.04827 0.0
H3153 H 0.65501 0.35123 0.04167 0.0
H3154 H 0.63277 0.30754 0.99378 0.0
H3155 H 0.59584 0.31829 0.00028 0.0
C3156 C 0.51804 0.34669 0.10237 0.0
C3157 C 0.51945 0.32519 0.10803 0.0
C3158 C 0.52997 0.35481 0.08544 0.0
C3159 C 0.54296 0.34137 0.07351 0.0
C3160 C 0.54556 0.32032 0.08019 0.0
C3161 C 0.53402 0.31233 0.0974 0.0
C3162 C 0.55204 0.34831 0.05288 0.0
C3163 C 0.57355 0.34457 0.04871 0.0
C3164 C 0.53914 0.35677 0.03664 0.0
C3165 C 0.51595 0.35953 0.03927 0.0
C3166 C 0.50251 0.34195 0.04355 0.0
C3167 C 0.48066 0.34468 0.04611 0.0
C3168 C 0.47205 0.36487 0.0442 0.0
C3169 C 0.48527 0.38238 0.03966 0.0
C3170 C 0.50714 0.37974 0.03713 0.0
C3171 C 0.57272 0.35128 0.95255 0.0
C3172 C 0.59265 0.36069 0.94833 0.0
C3173 C 0.56505 0.35033 0.9733 0.0
C3174 C 0.57698 0.35915 0.99012 0.0
C3175 C 0.59639 0.36961 0.9857 0.0
C3176 C 0.60434 0.37004 0.965 0.0
C3177 C 0.56931 0.35653 0.01226 0.0
C3178 C 0.54809 0.36128 0.01678 0.0
C3179 C 0.58223 0.34809 0.0285 0.0
C3180 C 0.60433 0.34136 0.02458 0.0
C3181 C 0.62119 0.35039 0.03636 0.0
C3182 C 0.64206 0.34413 0.03264 0.0
C3183 C 0.64623 0.32874 0.01726 0.0
C3184 C 0.62953 0.31951 0.00563 0.0
C3185 C 0.60863 0.3257 0.00931 0.0
H3186 H 0.6624 0.32393 0.01439 0.0
H3187 H 0.45513 0.36695 0.04617 0.0
H3188 H 0.97982 0.31213 0.29454 0.0
H3189 H 0.95318 0.33372 0.27706 0.0
H3190 H 0.90694 0.31506 0.32451 0.0
H3191 H 0.93322 0.29267 0.34137 0.0
H3192 H 0.8894 0.31112 0.28963 0.0
H3193 H 0.92607 0.36758 0.32048 0.0
H3194 H 0.95598 0.39016 0.33293 0.0
H3195 H 0.97405 0.40308 0.26843 0.0
H3196 H 0.9445 0.38032 0.25564 0.0
H3197 H 0.85821 0.40075 0.20667 0.0
H3198 H 0.8689 0.39168 0.24292 0.0
H3199 H 0.87866 0.32694 0.22304 0.0
H3200 H 0.86713 0.33551 0.18757 0.0
H3201 H 0.90513 0.3808 0.25597 0.0
H3202 H 0.87443 0.29172 0.2588 0.0
H3203 H 0.8415 0.27167 0.25032 0.0
H3204 H 0.80561 0.32873 0.25554 0.0
H3205 H 0.83827 0.34911 0.26439 0.0
C3206 C 0.964 0.31277 0.30127 0.0
C3207 C 0.95851 0.30061 0.31914 0.0
C3208 C 0.94884 0.32531 0.29145 0.0
C3209 C 0.92809 0.3263 0.29966 0.0
C3210 C 0.92281 0.31457 0.31789 0.0
C3211 C 0.93783 0.30173 0.32745 0.0
C3212 C 0.91147 0.33769 0.2878 0.0
C3213 C 0.89268 0.32651 0.28253 0.0
C3214 C 0.91511 0.3583 0.27948 0.0
C3215 C 0.93303 0.37211 0.28704 0.0
C3216 C 0.93649 0.3751 0.30893 0.0
C3217 C 0.9534 0.38796 0.31607 0.0
C3218 C 0.96693 0.39804 0.30149 0.0
C3219 C 0.96356 0.39528 0.27973 0.0
C3220 C 0.94669 0.38242 0.27252 0.0
C3221 C 0.86206 0.38446 0.21026 0.0
C3222 C 0.86187 0.36887 0.19423 0.0
C3223 C 0.86822 0.37933 0.23094 0.0
C3224 C 0.87433 0.35857 0.23583 0.0
C3225 C 0.87341 0.34292 0.21994 0.0
C3226 C 0.86697 0.34792 0.1995 0.0
C3227 C 0.88407 0.35338 0.25655 0.0
C3228 C 0.90151 0.36575 0.2636 0.0
C3229 C 0.87867 0.3343 0.26728 0.0
C3230 C 0.85887 0.32198 0.26228 0.0
C3231 C 0.85951 0.29998 0.25837 0.0
C3232 C 0.84088 0.28856 0.25342 0.0
C3233 C 0.82148 0.29892 0.25238 0.0
C3234 C 0.82066 0.32073 0.25631 0.0
C3235 C 0.83923 0.33223 0.26127 0.0
H3236 H 0.80708 0.29005 0.24853 0.0
H3237 H 0.98 0.40799 0.30705 0.0
H3238 H 0.96971 0.69775 0.59506 0.0
H3239 H 0.9576 0.6741 0.56656 0.0
H3240 H 0.89564 0.702 0.56861 0.0
H3241 H 0.90768 0.72611 0.59689 0.0
H3242 H 0.90026 0.65227 0.55966 0.0
H3243 H 0.9214 0.72519 0.53728 0.0
H3244 H 0.94703 0.75535 0.53761 0.0
H3245 H 0.99581 0.71483 0.51398 0.0
H3246 H 0.9705 0.68435 0.51387 0.0
H3247 H 0.8563 0.64167 0.45644 0.0
H3248 H 0.86807 0.65017 0.49253 0.0
H3249 H 0.9335 0.64806 0.47194 0.0
H3250 H 0.92164 0.64097 0.43564 0.0
H3251 H 0.92939 0.68138 0.49226 0.0
H3252 H 0.90895 0.61019 0.50737 0.0
H3253 H 0.88617 0.57791 0.50807 0.0
H3254 H 0.84013 0.61035 0.54582 0.0
H3255 H 0.86249 0.64295 0.54508 0.0
C3256 C 0.95333 0.69851 0.58987 0.0
C3257 C 0.93972 0.71403 0.59795 0.0
C3258 C 0.94645 0.6849 0.57367 0.0
C3259 C 0.9258 0.68641 0.56559 0.0
C3260 C 0.9116 0.70059 0.57483 0.0
C3261 C 0.91857 0.71446 0.59081 0.0
C3262 C 0.92035 0.67618 0.54523 0.0
C3263 C 0.90643 0.65856 0.54482 0.0
C3264 C 0.92911 0.68409 0.52613 0.0
C3265 C 0.94416 0.70249 0.5258 0.0
C3266 C 0.93764 0.72269 0.53233 0.0
C3267 C 0.95209 0.73984 0.53245 0.0
C3268 C 0.97306 0.73699 0.52588 0.0
C3269 C 0.97958 0.71701 0.5191 0.0
C3270 C 0.96519 0.6998 0.51901 0.0
C3271 C 0.87318 0.64279 0.45976 0.0
C3272 C 0.8881 0.64095 0.44336 0.0
C3273 C 0.87992 0.64745 0.48042 0.0
C3274 C 0.90172 0.6496 0.48507 0.0
C3275 C 0.91661 0.64663 0.46876 0.0
C3276 C 0.90986 0.6426 0.44805 0.0
C3277 C 0.90895 0.65721 0.50624 0.0
C3278 C 0.92326 0.6746 0.50691 0.0
C3279 C 0.90088 0.64866 0.52551 0.0
C3280 C 0.88734 0.62909 0.52601 0.0
C3281 C 0.89389 0.6105 0.51568 0.0
C3282 C 0.88106 0.59213 0.51611 0.0
C3283 C 0.86169 0.59209 0.52694 0.0
C3284 C 0.85513 0.61041 0.53741 0.0
C3285 C 0.86789 0.62884 0.53702 0.0
H3286 H 0.85178 0.57785 0.52726 0.0
H3287 H 0.98423 0.75029 0.52599 0.0
H3288 H 0.54586 0.27769 0.65831 0.0
H3289 H 0.56524 0.28815 0.69046 0.0
H3290 H 0.50685 0.30974 0.71848 0.0
H3291 H 0.48773 0.30042 0.68603 0.0
H3292 H 0.53532 0.33577 0.7288 0.0
H3293 H 0.53009 0.26039 0.73133 0.0
H3294 H 0.53346 0.22345 0.71888 0.0
H3295 H 0.60123 0.23191 0.71494 0.0
H3296 H 0.59823 0.26899 0.72715 0.0
H3297 H 0.58519 0.30921 0.83621 0.0
H3298 H 0.57042 0.29577 0.80277 0.0
H3299 H 0.59736 0.34991 0.76976 0.0
H3300 H 0.61189 0.36362 0.80308 0.0
H3301 H 0.5835 0.28489 0.76353 0.0
H3302 H 0.55881 0.37014 0.73808 0.0
H3303 H 0.55011 0.40411 0.75533 0.0
H3304 H 0.53254 0.37098 0.8124 0.0
H3305 H 0.5406 0.33682 0.79535 0.0
C3306 C 0.53725 0.28485 0.67129 0.0
C3307 C 0.51532 0.28826 0.66971 0.0
C3308 C 0.54829 0.29066 0.68971 0.0
C3309 C 0.53744 0.29935 0.70708 0.0
C3310 C 0.51559 0.3031 0.70531 0.0
C3311 C 0.50467 0.29776 0.68675 0.0
C3312 C 0.54875 0.30453 0.72715 0.0
C3313 C 0.54587 0.32462 0.73631 0.0
C3314 C 0.56203 0.28978 0.7374 0.0
C3315 C 0.56391 0.26753 0.72993 0.0
C3316 C 0.5457 0.25442 0.72764 0.0
C3317 C 0.54754 0.23345 0.72067 0.0
C3318 C 0.56754 0.22536 0.71606 0.0
C3319 C 0.58574 0.23821 0.71848 0.0
C3320 C 0.58398 0.2592 0.72545 0.0
C3321 C 0.58834 0.31803 0.82176 0.0
C3322 C 0.59928 0.33771 0.82231 0.0
C3323 C 0.57994 0.3103 0.80268 0.0
C3324 C 0.58244 0.32212 0.78396 0.0
C3325 C 0.59493 0.3408 0.78417 0.0
C3326 C 0.6032 0.3486 0.80321 0.0
C3327 C 0.57034 0.31615 0.76472 0.0
C3328 C 0.57303 0.29598 0.75582 0.0
C3329 C 0.55601 0.33039 0.7553 0.0
C3330 C 0.55061 0.35092 0.76549 0.0
C3331 C 0.55298 0.37009 0.75427 0.0
C3332 C 0.54814 0.38939 0.76402 0.0
C3333 C 0.54087 0.38972 0.78498 0.0
C3334 C 0.53824 0.37073 0.79619 0.0
C3335 C 0.54294 0.3514 0.78648 0.0
H3336 H 0.53718 0.40467 0.79251 0.0
H3337 H 0.56894 0.20912 0.71067 0.0
H3338 H 0.98009 0.29771 0.92604 0.0
H3339 H 0.96044 0.31867 0.95176 0.0
H3340 H 0.94835 0.26232 0.98916 0.0
H3341 H 0.96732 0.24109 0.963 0.0
H3342 H 0.91365 0.28403 0.98589 0.0
H3343 H 0.98671 0.30056 0.0032 0.0
H3344 H 0.02348 0.31278 -0.00403 0.0
H3345 H 0.00084 0.37373 0.97687 0.0
H3346 H 0.9639 0.36178 0.98374 0.0
H3347 H 0.91446 0.35103 0.08753 0.0
H3348 H 0.93308 0.33556 0.05765 0.0
H3349 H 0.8781 0.34435 0.01784 0.0
H3350 H 0.85895 0.35926 0.04804 0.0
H3351 H 0.94528 0.34815 0.02032 0.0
H3352 H 0.87451 0.30236 0.98296 0.0
H3353 H 0.83929 0.28758 0.99289 0.0
H3354 H 0.86001 0.28094 0.05745 0.0
H3355 H 0.89546 0.29536 0.04783 0.0
C3356 C 0.97336 0.28982 0.93982 0.0
C3357 C 0.97524 0.2678 0.94261 0.0
C3358 C 0.96217 0.30182 0.9545 0.0
C3359 C 0.95312 0.29207 0.97244 0.0
C3360 C 0.95517 0.27011 0.97536 0.0
C3361 C 0.96609 0.25804 0.96051 0.0
C3362 C 0.94129 0.30469 0.98811 0.0
C3363 C 0.92054 0.29808 0.9934 0.0
C3364 C 0.95033 0.32298 -0.00212 0.0
C3365 C 0.97253 0.3302 0.99377 0.0
C3366 C 0.98957 0.31652 -0.0027 0.0
C3367 C 0.01044 0.3234 0.9933 0.0
C3368 C 0.01449 0.344 0.98591 0.0
C3369 C -0.00232 0.35777 0.98256 0.0
C3370 C 0.97677 0.35096 0.98652 0.0
C3371 C 0.90632 0.34984 0.07241 0.0
C3372 C 0.88513 0.35608 0.0702 0.0
C3373 C 0.91704 0.34108 0.0553 0.0
C3374 C 0.90686 0.33856 0.03564 0.0
C3375 C 0.88608 0.34581 0.03303 0.0
C3376 C 0.8752 0.35435 0.05026 0.0
C3377 C 0.91781 0.32725 0.01841 0.0
C3378 C 0.93832 0.33421 0.01267 0.0
C3379 C 0.90877 0.30893 0.00867 0.0
C3380 C 0.88755 0.30016 0.0147 0.0
C3381 C 0.87156 0.2977 -0.00074 0.0
C3382 C 0.85157 0.28937 0.00483 0.0
C3383 C 0.84742 0.28334 0.02579 0.0
C3384 C 0.86325 0.28564 0.04123 0.0
C3385 C 0.88329 0.2939 0.03573 0.0
H3386 H 0.83196 0.27681 0.03002 0.0
H3387 H 0.03066 0.3493 0.98282 0.0
H3388 H 0.91455 0.75493 0.1748 0.0
H3389 H 0.90228 0.73236 0.204 0.0
H3390 H 0.95116 0.68744 0.18956 0.0
H3391 H 0.9632 0.70962 0.16001 0.0
H3392 H 0.91555 0.66708 0.20125 0.0
H3393 H 0.95874 0.72542 0.22749 0.0
H3394 H 0.96921 0.76301 0.23277 0.0
H3395 H 0.90946 0.77467 0.26315 0.0
H3396 H 0.89851 0.73721 0.25774 0.0
H3397 H 0.92847 0.65323 0.32373 0.0
H3398 H 0.9366 0.66995 0.28979 0.0
H3399 H 0.87621 0.64784 0.26486 0.0
H3400 H 0.86811 0.63056 0.29881 0.0
H3401 H 0.91653 0.70131 0.27227 0.0
H3402 H 0.88095 0.64265 0.21042 0.0
H3403 H 0.87442 0.60412 0.20606 0.0
H3404 H 0.92596 0.59128 0.24855 0.0
H3405 H 0.93297 0.6297 0.25293 0.0
C3406 C 0.92254 0.74013 0.17768 0.0
C3407 C 0.94003 0.73419 0.16527 0.0
C3408 C 0.91551 0.72727 0.19437 0.0
C3409 C 0.92606 0.70843 0.19913 0.0
C3410 C 0.94283 0.70194 0.18614 0.0
C3411 C 0.94974 0.71469 0.16932 0.0
C3412 C 0.9207 0.6963 0.21854 0.0
C3413 C 0.91565 0.67455 0.21679 0.0
C3414 C 0.92119 0.70601 0.23882 0.0
C3415 C 0.92771 0.72858 0.24197 0.0
C3416 C 0.94776 0.73605 0.23511 0.0
C3417 C 0.9538 0.75732 0.23816 0.0
C3418 C 0.93998 0.77124 0.24822 0.0
C3419 C 0.92012 0.7639 0.2553 0.0
C3420 C 0.91399 0.74265 0.25225 0.0
C3421 C 0.91699 0.65171 0.31098 0.0
C3422 C 0.89761 0.64066 0.31395 0.0
C3423 C 0.92165 0.66131 0.2916 0.0
C3424 C 0.90701 0.66016 0.27484 0.0
C3425 C 0.88783 0.6487 0.27753 0.0
C3426 C 0.88322 0.63889 0.29692 0.0
C3427 C 0.91147 0.67203 0.25506 0.0
C3428 C 0.91625 0.69382 0.25674 0.0
C3429 C 0.91124 0.66221 0.23485 0.0
C3430 C 0.90731 0.63906 0.23218 0.0
C3431 C 0.89092 0.63159 0.21878 0.0
C3432 C 0.88713 0.60977 0.21631 0.0
C3433 C 0.89972 0.59526 0.22708 0.0
C3434 C 0.91616 0.60254 0.24029 0.0
C3435 C 0.92003 0.62433 0.24279 0.0
H3436 H 0.89675 0.57838 0.22516 0.0
H3437 H 0.94469 0.7877 0.25058 0.0
H3438 H 0.57703 0.72929 0.43316 0.0
H3439 H 0.59164 0.70118 0.45488 0.0
H3440 H 0.55307 0.6546 0.4214 0.0
H3441 H 0.53796 0.68284 0.39988 0.0
H3442 H 0.54711 0.6502 0.46151 0.0
H3443 H 0.60792 0.65261 0.41907 0.0
H3444 H 0.63749 0.66777 0.39798 0.0
H3445 H 0.66421 0.69647 0.45409 0.0
H3446 H 0.63464 0.68177 0.47549 0.0
H3447 H 0.63212 0.60585 0.54295 0.0
H3448 H 0.62025 0.61119 0.50644 0.0
H3449 H 0.56968 0.65061 0.52925 0.0
H3450 H 0.58096 0.64462 0.56571 0.0
H3451 H 0.62174 0.64553 0.48604 0.0
H3452 H 0.52945 0.65362 0.49694 0.0
H3453 H 0.5004 0.63502 0.51598 0.0
H3454 H 0.53729 0.57846 0.51863 0.0
H3455 H 0.56646 0.59659 0.49932 0.0
C3456 C 0.57201 0.71303 0.43008 0.0
C3457 C 0.55619 0.70829 0.41501 0.0
C3458 C 0.5805 0.69691 0.44241 0.0
C3459 C 0.57353 0.67574 0.43969 0.0
C3460 C 0.55865 0.67082 0.42376 0.0
C3461 C 0.55006 0.68697 0.41149 0.0
C3462 C 0.57969 0.65955 0.45544 0.0
C3463 C 0.56346 0.64888 0.4667 0.0
C3464 C 0.60108 0.6571 0.46165 0.0
C3465 C 0.61898 0.66609 0.4489 0.0
C3466 C 0.62002 0.66227 0.42691 0.0
C3467 C 0.6368 0.67077 0.4149 0.0
C3468 C 0.65272 0.68308 0.42469 0.0
C3469 C 0.65188 0.6869 0.44653 0.0
C3470 C 0.63513 0.67844 0.45862 0.0
C3471 C 0.61821 0.61532 0.54015 0.0
C3472 C 0.60756 0.625 0.55712 0.0
C3473 C 0.61144 0.61832 0.5193 0.0
C3474 C 0.59401 0.63119 0.51506 0.0
C3475 C 0.58286 0.64019 0.53209 0.0
C3476 C 0.58942 0.63691 0.55296 0.0
C3477 C 0.589 0.63749 0.49299 0.0
C3478 C 0.60545 0.64626 0.48052 0.0
C3479 C 0.56788 0.63762 0.48532 0.0
C3480 C 0.55021 0.62652 0.4967 0.0
C3481 C 0.53132 0.63717 0.50142 0.0
C3482 C 0.51484 0.62671 0.51231 0.0
C3483 C 0.517 0.60558 0.51853 0.0
C3484 C 0.53565 0.59484 0.51385 0.0
C3485 C 0.55218 0.60521 0.50295 0.0
H3486 H 0.50423 0.59752 0.52698 0.0
H3487 H 0.6657 0.68964 0.41536 0.0
H3488 H 0.84742 0.57396 0.7373 0.0
H3489 H 0.82063 0.59903 0.72603 0.0
H3490 H 0.81967 0.57073 0.66367 0.0
H3491 H 0.84619 0.5453 0.67488 0.0
H3492 H 0.80616 0.61774 0.6679 0.0
H3493 H 0.79208 0.54341 0.69319 0.0
H3494 H 0.79852 0.51539 0.71968 0.0
H3495 H 0.77863 0.55711 0.76958 0.0
H3496 H 0.77244 0.58548 0.74335 0.0
H3497 H 0.70871 0.59389 0.62182 0.0
H3498 H 0.74402 0.59579 0.6374 0.0
H3499 H 0.71684 0.61002 0.69859 0.0
H3500 H 0.68115 0.60782 0.68311 0.0
H3501 H 0.74505 0.57973 0.70163 0.0
H3502 H 0.74505 0.64814 0.67215 0.0
H3503 H 0.73893 0.67585 0.64539 0.0
H3504 H 0.78496 0.64778 0.60421 0.0
H3505 H 0.79112 0.61962 0.63056 0.0
C3506 C 0.84229 0.57371 0.72088 0.0
C3507 C 0.84833 0.55728 0.70712 0.0
C3508 C 0.82707 0.58817 0.71445 0.0
C3509 C 0.81802 0.58642 0.69418 0.0
C3510 C 0.82654 0.57226 0.67939 0.0
C3511 C 0.84155 0.55761 0.68588 0.0
C3512 C 0.79634 0.59402 0.69057 0.0
C3513 C 0.79271 0.60969 0.67532 0.0
C3514 C 0.77895 0.58375 0.70073 0.0
C3515 C 0.78199 0.56656 0.7164 0.0
C3516 C 0.78917 0.5466 0.70983 0.0
C3517 C 0.79278 0.53067 0.72478 0.0
C3518 C 0.78902 0.53448 0.74631 0.0
C3519 C 0.78157 0.5542 0.75291 0.0
C3520 C 0.77802 0.5702 0.73802 0.0
C3521 C 0.71016 0.59744 0.6386 0.0
C3522 C 0.69211 0.60054 0.65127 0.0
C3523 C 0.73041 0.5988 0.64743 0.0
C3524 C 0.73306 0.6035 0.66905 0.0
C3525 C 0.7151 0.60658 0.68181 0.0
C3526 C 0.69476 0.60518 0.67298 0.0
C3527 C 0.75458 0.60321 0.67843 0.0
C3528 C 0.75827 0.58861 0.69471 0.0
C3529 C 0.7719 0.61467 0.66928 0.0
C3530 C 0.76851 0.63169 0.65337 0.0
C3531 C 0.75379 0.64777 0.65734 0.0
C3532 C 0.75032 0.66357 0.64224 0.0
C3533 C 0.76156 0.66357 0.62313 0.0
C3534 C 0.7763 0.64776 0.61906 0.0
C3535 C 0.77981 0.63189 0.63409 0.0
H3536 H 0.7589 0.67585 0.61151 0.0
H3537 H 0.79184 0.52214 0.75786 0.0
H3538 H 0.68829 0.58685 0.98437 0.0
H3539 H 0.66098 0.55938 0.97841 0.0
H3540 H 0.67928 0.55551 0.91255 0.0
H3541 H 0.70646 0.58304 0.91824 0.0
H3542 H 0.63524 0.54629 0.9196 0.0
H3543 H 0.70566 0.52831 0.94735 0.0
H3544 H 0.73368 0.5328 0.9743 0.0
H3545 H 0.69035 0.51123 0.02276 0.0
H3546 H 0.66176 0.50747 -0.00394 0.0
H3547 H 0.64288 0.44537 0.87723 0.0
H3548 H 0.64595 0.48121 0.89145 0.0
H3549 H 0.62919 0.45795 0.95379 0.0
H3550 H 0.62667 0.42172 0.93972 0.0
H3551 H 0.66242 0.48257 0.95624 0.0
H3552 H 0.59523 0.4894 0.92524 0.0
H3553 H 0.56748 0.48526 0.89795 0.0
H3554 H 0.60267 0.52686 0.85633 0.0
H3555 H 0.63102 0.53075 0.88313 0.0
C3556 C 0.68615 0.58057 0.96848 0.0
C3557 C 0.69995 0.58667 0.95189 0.0
C3558 C 0.67041 0.565 0.96509 0.0
C3559 C 0.66837 0.55525 0.94513 0.0
C3560 C 0.68063 0.56287 0.92807 0.0
C3561 C 0.69634 0.57844 0.93142 0.0
C3562 C 0.65711 0.53459 0.94286 0.0
C3563 C 0.64095 0.5323 0.92766 0.0
C3564 C 0.6642 0.51653 0.95394 0.0
C3565 C 0.68155 0.51788 0.9698 0.0
C3566 C 0.7021 0.52463 0.96377 0.0
C3567 C 0.71807 0.52707 0.97901 0.0
C3568 C 0.71384 0.52226 0.00028 0.0
C3569 C 0.6936 0.51499 0.0063 0.0
C3570 C 0.67747 0.51279 0.99113 0.0
C3571 C 0.6397 0.44785 0.89394 0.0
C3572 C 0.63468 0.43071 0.90739 0.0
C3573 C 0.64122 0.46842 0.90202 0.0
C3574 C 0.63736 0.47234 0.92361 0.0
C3575 C 0.63207 0.45529 0.93705 0.0
C3576 C 0.63075 0.43461 0.92901 0.0
C3577 C 0.64101 0.49396 0.93227 0.0
C3578 C 0.65589 0.49647 0.94868 0.0
C3579 C 0.63257 0.51215 0.92236 0.0
C3580 C 0.61533 0.51032 0.90625 0.0
C3581 C 0.59714 0.4976 0.91024 0.0
C3582 C 0.58128 0.49529 0.89483 0.0
C3583 C 0.58326 0.50584 0.87542 0.0
C3584 C 0.60113 0.51872 0.87139 0.0
C3585 C 0.61712 0.52099 0.8867 0.0
H3586 H 0.57097 0.50401 0.8635 0.0
H3587 H 0.72623 0.52417 0.01208 0.0
H3588 H 0.63447 0.41288 0.24134 0.0
H3589 H 0.65811 0.39112 0.21981 0.0
H3590 H 0.67216 0.44532 0.17993 0.0
H3591 H 0.64801 0.46664 0.20054 0.0
H3592 H 0.67391 0.41159 0.15686 0.0
H3593 H 0.70166 0.43291 0.2274 0.0
H3594 H 0.70107 0.43256 0.26659 0.0
H3595 H 0.70306 0.36442 0.26623 0.0
H3596 H 0.70348 0.36441 0.227 0.0
H3597 H 0.79428 0.41938 0.16972 0.0
H3598 H 0.75818 0.41843 0.18364 0.0
H3599 H 0.7393 0.37384 0.13461 0.0
H3600 H 0.77541 0.37558 0.11998 0.0
H3601 H 0.73504 0.38877 0.20035 0.0
H3602 H 0.686 0.38022 0.12491 0.0
H3603 H 0.68882 0.38627 0.08627 0.0
H3604 H 0.73305 0.43796 0.09716 0.0
H3605 H 0.73031 0.43231 0.13584 0.0
C3606 C 0.6423 0.41997 0.2277 0.0
C3607 C 0.63974 0.44157 0.22287 0.0
C3608 C 0.65575 0.40753 0.21541 0.0
C3609 C 0.66724 0.4167 0.19852 0.0
C3610 C 0.66347 0.43783 0.19284 0.0
C3611 C 0.64976 0.4501 0.2048 0.0
C3612 C 0.68535 0.40583 0.18856 0.0
C3613 C 0.68715 0.40619 0.16633 0.0
C3614 C 0.70259 0.39864 0.20086 0.0
C3615 C 0.7023 0.39864 0.22436 0.0
C3616 C 0.70186 0.41787 0.23572 0.0
C3617 C 0.70156 0.41773 0.25791 0.0
C3618 C 0.70194 0.39848 0.26889 0.0
C3619 C 0.70269 0.37932 0.2577 0.0
C3620 C 0.70295 0.37937 0.2355 0.0
C3621 C 0.78239 0.40951 0.16183 0.0
C3622 C 0.78748 0.39777 0.14367 0.0
C3623 C 0.76181 0.40881 0.16988 0.0
C3624 C 0.74602 0.39606 0.16017 0.0
C3625 C 0.75115 0.38401 0.14218 0.0
C3626 C 0.77171 0.38508 0.13381 0.0
C3627 C 0.72417 0.39628 0.16884 0.0
C3628 C 0.72157 0.39342 0.19078 0.0
C3629 C 0.7065 0.40196 0.15633 0.0
C3630 C 0.70817 0.40564 0.13318 0.0
C3631 C 0.69631 0.39287 0.11902 0.0
C3632 C 0.69789 0.39623 0.09713 0.0
C3633 C 0.71118 0.41243 0.08926 0.0
C3634 C 0.72284 0.42536 0.10327 0.0
C3635 C 0.72129 0.42208 0.12517 0.0
H3636 H 0.7124 0.41499 0.07232 0.0
H3637 H 0.70172 0.39841 0.28608 0.0
H3638 H 0.78735 0.43528 0.51266 0.0
H3639 H 0.80341 0.46381 0.49167 0.0
H3640 H 0.75954 0.44995 0.44054 0.0
H3641 H 0.74287 0.42166 0.46191 0.0
H3642 H 0.82413 0.46202 0.45593 0.0
H3643 H 0.75254 0.49684 0.41204 0.0
H3644 H 0.71376 0.50034 0.41622 0.0
H3645 H 0.72042 0.49775 0.48402 0.0
H3646 H 0.75924 0.49455 0.48025 0.0
H3647 H 0.8611 0.54277 0.38322 0.0
H3648 H 0.84399 0.51094 0.39839 0.0
H3649 H 0.81181 0.54992 0.44424 0.0
H3650 H 0.82838 0.58162 0.42897 0.0
H3651 H 0.78473 0.52278 0.42664 0.0
H3652 H 0.85532 0.5199 0.45744 0.0
H3653 H 0.89445 0.51846 0.4561 0.0
H3654 H 0.89028 0.46055 0.42008 0.0
H3655 H 0.8511 0.46181 0.421 0.0
C3656 C 0.78099 0.43843 0.49702 0.0
C3657 C 0.7639 0.4263 0.48889 0.0
C3658 C 0.79024 0.45464 0.48499 0.0
C3659 C 0.78273 0.45895 0.46452 0.0
C3660 C 0.76546 0.44701 0.45639 0.0
C3661 C 0.75595 0.4309 0.4686 0.0
C3662 C 0.79331 0.47588 0.45189 0.0
C3663 C 0.81548 0.47525 0.44942 0.0
C3664 C 0.78204 0.49308 0.44331 0.0
C3665 C 0.75874 0.49511 0.44583 0.0
C3666 C 0.74571 0.49703 0.42784 0.0
C3667 C 0.72374 0.49898 0.43013 0.0
C3668 C 0.71463 0.49916 0.45036 0.0
C3669 C 0.72749 0.4975 0.46835 0.0
C3670 C 0.74947 0.49559 0.46614 0.0
C3671 C 0.8506 0.54446 0.39673 0.0
C3672 C 0.84603 0.56464 0.40492 0.0
C3673 C 0.84082 0.52631 0.40533 0.0
C3674 C 0.82659 0.52812 0.42239 0.0
C3675 C 0.82255 0.5482 0.43092 0.0
C3676 C 0.83212 0.56628 0.42226 0.0
C3677 C 0.81558 0.50928 0.43144 0.0
C3678 C 0.79332 0.50941 0.43294 0.0
C3679 C 0.82679 0.49187 0.43957 0.0
C3680 C 0.85032 0.49108 0.43908 0.0
C3681 C 0.86276 0.50695 0.4491 0.0
C3682 C 0.88494 0.50615 0.44844 0.0
C3683 C 0.89484 0.48946 0.43795 0.0
C3684 C 0.88259 0.4735 0.42816 0.0
C3685 C 0.8604 0.47424 0.42875 0.0
H3686 H 0.91201 0.48887 0.43746 0.0
H3687 H 0.69761 0.50065 0.45211 0.0
H3688 H 0.8089 0.48898 0.79076 0.0
H3689 H 0.78203 0.46734 0.80928 0.0
H3690 H 0.77865 0.42444 0.75589 0.0
H3691 H 0.80579 0.44579 0.73735 0.0
H3692 H 0.73803 0.43706 0.7743 0.0
H3693 H 0.80611 0.4088 0.79394 0.0
H3694 H 0.84285 0.41175 0.80739 0.0
H3695 H 0.81999 0.436 0.86673 0.0
H3696 H 0.78312 0.43353 0.8535 0.0
H3697 H 0.67456 0.36174 0.82611 0.0
H3698 H 0.70555 0.37502 0.80636 0.0
H3699 H 0.72575 0.41145 0.86115 0.0
H3700 H 0.6955 0.39734 0.88123 0.0
H3701 H 0.75911 0.39996 0.84032 0.0
H3702 H 0.69304 0.43237 0.82175 0.0
H3703 H 0.65571 0.43247 0.80979 0.0
H3704 H 0.67377 0.40448 0.75041 0.0
H3705 H 0.71119 0.40394 0.76215 0.0
C3706 C 0.80227 0.47511 0.78289 0.0
C3707 C 0.80953 0.46897 0.76272 0.0
C3708 C 0.78702 0.46272 0.79348 0.0
C3709 C 0.77866 0.44423 0.78398 0.0
C3710 C 0.78507 0.43863 0.76345 0.0
C3711 C 0.80053 0.45083 0.75296 0.0
C3712 C 0.76365 0.43039 0.79574 0.0
C3713 C 0.74265 0.42864 0.78854 0.0
C3714 C 0.76973 0.41994 0.81457 0.0
C3715 C 0.79187 0.42115 0.82265 0.0
C3716 C 0.80893 0.41492 0.80979 0.0
C3717 C 0.82978 0.41648 0.81739 0.0
C3718 C 0.83376 0.4241 0.83788 0.0
C3719 C 0.81689 0.43012 0.85085 0.0
C3720 C 0.79601 0.42862 0.84332 0.0
C3721 C 0.68598 0.37211 0.83407 0.0
C3722 C 0.68256 0.37876 0.85505 0.0
C3723 C 0.70358 0.37978 0.82277 0.0
C3724 C 0.71755 0.39477 0.83208 0.0
C3725 C 0.71509 0.40003 0.8536 0.0
C3726 C 0.69779 0.39195 0.86506 0.0
C3727 C 0.7333 0.40663 0.81899 0.0
C3728 C 0.75446 0.40813 0.82595 0.0
C3729 C 0.72726 0.41726 0.80016 0.0
C3730 C 0.70485 0.41791 0.79291 0.0
C3731 C 0.68902 0.42614 0.80618 0.0
C3732 C 0.66786 0.42628 0.79945 0.0
C3733 C 0.66237 0.41843 0.77937 0.0
C3734 C 0.67805 0.41051 0.76596 0.0
C3735 C 0.69923 0.4103 0.77265 0.0
H3736 H 0.64597 0.41853 0.77419 0.0
H3737 H 0.84991 0.4253 0.84373 0.0
H3738 H 0.81696 0.56446 0.95911 0.0
H3739 H 0.8381 0.53666 0.97549 0.0
H3740 H 0.82191 0.56027 0.03763 0.0
H3741 H 0.801 0.5881 0.02152 0.0
H3742 H 0.86305 0.5453 0.03628 0.0
H3743 H 0.79101 0.52145 0.0176 0.0
H3744 H 0.76113 0.51535 0.99304 0.0
H3745 H 0.80098 0.47868 0.95222 0.0
H3746 H 0.83119 0.48448 0.97679 0.0
H3747 H 0.8427 0.46336 0.10925 0.0
H3748 H 0.84547 0.49349 0.08501 0.0
H3749 H 0.86212 0.45128 0.03384 0.0
H3750 H 0.85896 0.42102 0.05783 0.0
H3751 H 0.82978 0.47436 0.02341 0.0
H3752 H 0.89793 0.48905 0.05193 0.0
H3753 H 0.92523 0.49415 0.07964 0.0
H3754 H 0.89203 0.54792 0.10396 0.0
H3755 H 0.86433 0.54296 0.07662 0.0
C3756 C 0.81823 0.56396 0.97625 0.0
C3757 C 0.80699 0.57822 0.98903 0.0
C3758 C 0.83036 0.54813 0.98556 0.0
C3759 C 0.83139 0.54636 0.00774 0.0
C3760 C 0.82137 0.56143 0.02048 0.0
C3761 C 0.80923 0.57719 0.01122 0.0
C3762 C 0.84017 0.5273 0.01786 0.0
C3763 C 0.85597 0.52971 0.03345 0.0
C3764 C 0.83124 0.50695 0.01375 0.0
C3765 C 0.81334 0.50363 -0.00119 0.0
C3766 C 0.79342 0.51222 0.0033 0.0
C3767 C 0.77641 0.50879 0.98939 0.0
C3768 C 0.77914 0.49678 0.97095 0.0
C3769 C 0.7989 0.48805 0.96646 0.0
C3770 C 0.81596 0.49136 0.9804 0.0
C3771 C 0.84721 0.46052 0.0929 0.0
C3772 C 0.85021 0.4398 0.08535 0.0
C3773 C 0.84904 0.47779 0.07912 0.0
C3774 C 0.8542 0.47463 0.05766 0.0
C3775 C 0.85817 0.45405 0.05035 0.0
C3776 C 0.8562 0.43678 0.06405 0.0
C3777 C 0.85234 0.49229 0.04239 0.0
C3778 C 0.83767 0.48966 0.02581 0.0
C3779 C 0.86227 0.51236 0.04579 0.0
C3780 C 0.87898 0.51557 0.06222 0.0
C3781 C 0.89636 0.50189 0.06326 0.0
C3782 C 0.91192 0.50476 0.0789 0.0
C3783 C 0.91036 0.52133 0.09356 0.0
C3784 C 0.89324 0.53509 0.09258 0.0
C3785 C 0.87761 0.53228 0.07698 0.0
H3786 H 0.92242 0.52353 0.10566 0.0
H3787 H 0.76592 0.49416 0.9602 0.0
H3788 H 0.65432 0.51624 0.32313 0.0
H3789 H 0.68271 0.53803 0.3391 0.0
H3790 H 0.69707 0.56522 0.27776 0.0
H3791 H 0.66839 0.54411 0.26189 0.0
H3792 H 0.72284 0.53778 0.33345 0.0
H3793 H 0.71689 0.6144 0.28133 0.0
H3794 H 0.68896 0.63594 0.26504 0.0
H3795 H 0.64362 0.61214 0.3105 0.0
H3796 H 0.67133 0.5907 0.32727 0.0
H3797 H 0.82108 0.58659 0.32521 0.0
H3798 H 0.78569 0.5738 0.3152 0.0
H3799 H 0.7576 0.6213 0.35519 0.0
H3800 H 0.79309 0.63437 0.36533 0.0
H3801 H 0.73493 0.61435 0.31801 0.0
H3802 H 0.76185 0.5747 0.37533 0.0
H3803 H 0.78755 0.554 0.39588 0.0
H3804 H 0.78687 0.50574 0.34764 0.0
H3805 H 0.76147 0.52634 0.32658 0.0
C3806 C 0.66346 0.52696 0.31309 0.0
C3807 C 0.65911 0.52847 0.29125 0.0
C3808 C 0.67964 0.53943 0.32224 0.0
C3809 C 0.6918 0.55351 0.3097 0.0
C3810 C 0.68754 0.55491 0.28788 0.0
C3811 C 0.67124 0.54267 0.27878 0.0
C3812 C 0.70991 0.56571 0.31899 0.0
C3813 C 0.72536 0.55455 0.33021 0.0
C3814 C 0.71292 0.58777 0.31536 0.0
C3815 C 0.69619 0.60082 0.30547 0.0
C3816 C 0.701 0.61385 0.28793 0.0
C3817 C 0.68519 0.62603 0.27859 0.0
C3818 C 0.66452 0.62537 0.2867 0.0
C3819 C 0.65962 0.61258 0.30419 0.0
C3820 C 0.67537 0.60039 0.3136 0.0
C3821 C 0.80741 0.59462 0.33158 0.0
C3822 C 0.80988 0.61124 0.34636 0.0
C3823 C 0.78721 0.58724 0.3259 0.0
C3824 C 0.76914 0.59628 0.33492 0.0
C3825 C 0.77143 0.61402 0.34826 0.0
C3826 C 0.79171 0.62148 0.35398 0.0
C3827 C 0.74811 0.5861 0.33142 0.0
C3828 C 0.73217 0.59764 0.32142 0.0
C3829 C 0.74432 0.56455 0.33679 0.0
C3830 C 0.75984 0.55217 0.34928 0.0
C3831 C 0.76733 0.55978 0.36899 0.0
C3832 C 0.78183 0.54804 0.38075 0.0
C3833 C 0.78884 0.52857 0.37307 0.0
C3834 C 0.78142 0.52083 0.35357 0.0
C3835 C 0.76696 0.53253 0.34172 0.0
H3836 H 0.79996 0.51944 0.38222 0.0
H3837 H 0.6523 0.6348 0.27943 0.0
H3838 H 0.66566 0.37985 0.54354 0.0
H3839 H 0.639 0.40419 0.55714 0.0
H3840 H 0.68604 0.43237 0.59901 0.0
H3841 H 0.71224 0.40767 0.58628 0.0
H3842 H 0.64925 0.43693 0.61603 0.0
H3843 H 0.67959 0.44862 0.54485 0.0
H3844 H 0.6858 0.43858 0.50748 0.0
H3845 H 0.61843 0.43383 0.49693 0.0
H3846 H 0.61189 0.44367 0.53432 0.0
H3847 H 0.65446 0.55043 0.57683 0.0
H3848 H 0.65401 0.51255 0.56866 0.0
H3849 H 0.60585 0.50176 0.61655 0.0
H3850 H 0.60742 0.5396 0.62571 0.0
H3851 H 0.6297 0.48294 0.55551 0.0
H3852 H 0.61291 0.45444 0.63964 0.0
H3853 H 0.61385 0.46753 0.67663 0.0
H3854 H 0.66521 0.51059 0.66088 0.0
H3855 H 0.66465 0.49761 0.62387 0.0
C3856 C 0.67005 0.39073 0.55621 0.0
C3857 C 0.69117 0.39227 0.56346 0.0
C3858 C 0.65482 0.40467 0.56392 0.0
C3859 C 0.66069 0.42055 0.57859 0.0
C3860 C 0.68111 0.42038 0.58757 0.0
C3861 C 0.69619 0.40629 0.58016 0.0
C3862 C 0.64749 0.43951 0.58198 0.0
C3863 C 0.64451 0.44681 0.60281 0.0
C3864 C 0.64138 0.4525 0.56476 0.0
C3865 C 0.64527 0.44657 0.54236 0.0
C3866 C 0.66613 0.44532 0.53455 0.0
C3867 C 0.66971 0.43968 0.51339 0.0
C3868 C 0.65252 0.43549 0.49986 0.0
C3869 C 0.63172 0.43701 0.50745 0.0
C3870 C 0.62807 0.4426 0.52862 0.0
C3871 C 0.6436 0.53998 0.58539 0.0
C3872 C 0.63129 0.54771 0.60212 0.0
C3873 C 0.64324 0.51834 0.58067 0.0
C3874 C 0.6302 0.50416 0.59229 0.0
C3875 C 0.61647 0.51225 0.60777 0.0
C3876 C 0.61733 0.53383 0.61295 0.0
C3877 C 0.63291 0.48096 0.5895 0.0
C3878 C 0.63358 0.47277 0.56879 0.0
C3879 C 0.63786 0.46755 0.60679 0.0
C3880 C 0.63854 0.47526 0.62901 0.0
C3881 C 0.62441 0.46667 0.64412 0.0
C3882 C 0.62487 0.47407 0.66507 0.0
C3883 C 0.63952 0.48994 0.67108 0.0
C3884 C 0.65382 0.49836 0.65619 0.0
C3885 C 0.65344 0.49099 0.63523 0.0
H3886 H 0.63983 0.49567 0.68729 0.0
H3887 H 0.65531 0.43114 0.48348 0.0
H3888 H 0.72238 0.82482 0.53634 0.0
H3889 H 0.70743 0.7943 0.55538 0.0
H3890 H 0.77007 0.77776 0.5768 0.0
H3891 H 0.78526 0.80821 0.55769 0.0
H3892 H 0.74847 0.74403 0.5598 0.0
H3893 H 0.73568 0.79703 0.61195 0.0
H3894 H 0.72351 0.83131 0.62591 0.0
H3895 H 0.65947 0.81536 0.60743 0.0
H3896 H 0.6713 0.7811 0.59307 0.0
H3897 H 0.69857 0.65767 0.61519 0.0
H3898 H 0.7204 0.68973 0.60899 0.0
H3899 H 0.66506 0.72232 0.58655 0.0
H3900 H 0.64315 0.69082 0.59333 0.0
H3901 H 0.68815 0.74797 0.61027 0.0
H3902 H 0.70209 0.69828 0.55276 0.0
H3903 H 0.71394 0.66415 0.53808 0.0
H3904 H 0.77558 0.67431 0.56599 0.0
H3905 H 0.76401 0.70841 0.58101 0.0
C3906 C 0.73299 0.8148 0.54521 0.0
C3907 C 0.75502 0.81893 0.54545 0.0
C3908 C 0.7244 0.79745 0.5562 0.0
C3909 C 0.73764 0.78394 0.56766 0.0
C3910 C 0.7596 0.78809 0.56811 0.0
C3911 C 0.76822 0.8055 0.55719 0.0
C3912 C 0.72858 0.76476 0.57799 0.0
C3913 C 0.73558 0.74486 0.5712 0.0
C3914 C 0.71164 0.76593 0.59265 0.0
C3915 C 0.70442 0.78653 0.60131 0.0
C3916 C 0.71903 0.80089 0.61071 0.0
C3917 C 0.71218 0.82031 0.61872 0.0
C3918 C 0.69074 0.82552 0.61753 0.0
C3919 C 0.67608 0.8113 0.60835 0.0
C3920 C 0.68285 0.79186 0.60029 0.0
C3921 C 0.69109 0.67172 0.609 0.0
C3922 C 0.66919 0.67169 0.60456 0.0
C3923 C 0.70357 0.68999 0.60547 0.0
C3924 C 0.6944 0.70831 0.59706 0.0
C3925 C 0.67247 0.70839 0.5931 0.0
C3926 C 0.65997 0.69031 0.59689 0.0
C3927 C 0.70749 0.72727 0.59144 0.0
C3928 C 0.7013 0.74714 0.59918 0.0
C3929 C 0.7251 0.72609 0.57753 0.0
C3930 C 0.7321 0.70574 0.56824 0.0
C3931 C 0.71813 0.69316 0.55587 0.0
C3932 C 0.7248 0.67384 0.54747 0.0
C3933 C 0.74548 0.66703 0.55116 0.0
C3934 C 0.75956 0.67959 0.56315 0.0
C3935 C 0.75296 0.69892 0.5716 0.0
H3936 H 0.7506 0.65205 0.54467 0.0
H3937 H 0.68547 0.84056 0.62374 0.0
H3938 H 0.16774 0.66514 0.44563 0.0
H3939 H 0.15437 0.68629 0.41686 0.0
H3940 H 0.20557 0.66568 0.37653 0.0
H3941 H 0.21982 0.64515 0.4061 0.0
H3942 H 0.20617 0.70466 0.37495 0.0
H3943 H 0.15017 0.65845 0.36168 0.0
H3944 H 0.12115 0.63226 0.36748 0.0
H3945 H 0.08529 0.67908 0.4008 0.0
H3946 H 0.11417 0.70548 0.39554 0.0
H3947 H 0.11819 0.79055 0.34851 0.0
H3948 H 0.13158 0.75476 0.34289 0.0
H3949 H 0.18193 0.76793 0.38802 0.0
H3950 H 0.16947 0.80408 0.39225 0.0
H3951 H 0.13093 0.72491 0.36671 0.0
H3952 H 0.22232 0.73839 0.38635 0.0
H3953 H 0.25127 0.76268 0.37497 0.0
H3954 H 0.2167 0.7775 0.3183 0.0
H3955 H 0.18766 0.75303 0.32912 0.0
C3956 C 0.17587 0.66455 0.43049 0.0
C3957 C 0.19506 0.65381 0.42827 0.0
C3958 C 0.16801 0.67652 0.41381 0.0
C3959 C 0.17884 0.67762 0.39431 0.0
C3960 C 0.19695 0.6652 0.39141 0.0
C3961 C 0.20505 0.65342 0.40831 0.0
C3962 C 0.17343 0.6947 0.3791 0.0
C3963 C 0.18971 0.70891 0.37274 0.0
C3964 C 0.15204 0.69978 0.37482 0.0
C3965 C 0.13441 0.68403 0.37811 0.0
C3966 C 0.13614 0.66317 0.37033 0.0
C3967 C 0.1197 0.64827 0.37352 0.0
C3968 C 0.10138 0.65401 0.38447 0.0
C3969 C 0.09946 0.67467 0.39225 0.0
C3970 C 0.11585 0.68965 0.3891 0.0
C3971 C 0.13245 0.78584 0.35677 0.0
C3972 C 0.14283 0.79988 0.37086 0.0
C3973 C 0.14008 0.76542 0.35357 0.0
C3974 C 0.15792 0.75852 0.36485 0.0
C3975 C 0.1686 0.77291 0.37851 0.0
C3976 C 0.16135 0.79354 0.38117 0.0
C3977 C 0.16365 0.7357 0.3649 0.0
C3978 C 0.1474 0.72041 0.36814 0.0
C3979 C 0.18507 0.72928 0.36528 0.0
C3980 C 0.20275 0.74381 0.35857 0.0
C3981 C 0.22095 0.74663 0.37134 0.0
C3982 C 0.23737 0.7605 0.36502 0.0
C3983 C 0.23583 0.77163 0.34593 0.0
C3984 C 0.21787 0.7689 0.3331 0.0
C3985 C 0.20141 0.75504 0.33934 0.0
H3986 H 0.24855 0.78238 0.34108 0.0
H3987 H 0.08867 0.64244 0.38694 0.0
H3988 H 0.55237 0.96306 0.73451 0.0
H3989 H 0.52005 0.95334 0.71508 0.0
H3990 H 0.53049 0.00655 0.6729 0.0
H3991 H 0.56352 0.01558 0.69163 0.0
H3992 H 0.48449 0.97011 0.70819 0.0
H3993 H 0.51154 0.9952 0.62403 0.0
H3994 H 0.54466 -0.0001 0.60341 0.0
H3995 H 0.57528 0.95392 0.64263 0.0
H3996 H 0.54229 0.94878 0.6633 0.0
H3997 H 0.39604 0.94852 0.64453 0.0
H3998 H 0.42689 0.97019 0.65524 0.0
H3999 H 0.46848 0.91981 0.63653 0.0
H4000 H 0.43788 0.89816 0.62563 0.0
H4001 H 0.48697 0.95886 0.6302 0.0
H4002 H 0.4494 0.91969 0.68412 0.0
H4003 H 0.41794 0.90885 0.70504 0.0
H4004 H 0.41201 0.97269 0.72806 0.0
H4005 H 0.44317 0.98404 0.70679 0.0
C4006 C 0.54773 0.97267 0.7211 0.0
C4007 C 0.56047 0.9899 0.71437 0.0
C4008 C 0.52923 0.96718 0.71006 0.0
C4009 C 0.52298 0.97905 0.69234 0.0
C4010 C 0.53526 -0.00314 0.68619 0.0
C4011 C 0.55405 0.00204 0.69692 0.0
C4012 C 0.50396 0.97226 0.68005 0.0
C4013 C 0.48502 0.96787 0.69111 0.0
C4014 C 0.50468 0.96903 0.65779 0.0
C4015 C 0.52454 0.97182 0.64534 0.0
C4016 C 0.52534 0.98607 0.6282 0.0
C4017 C 0.54408 0.98881 0.61652 0.0
C4018 C 0.56209 0.97728 0.62176 0.0
C4019 C 0.56136 0.96291 0.63864 0.0
C4020 C 0.54265 0.96009 0.65035 0.0
C4021 C 0.41178 0.94228 0.64216 0.0
C4022 C 0.41455 0.92142 0.6348 0.0
C4023 C 0.42936 0.9547 0.64824 0.0
C4024 C 0.44984 0.94638 0.647 0.0
C4025 C 0.45276 0.92645 0.63765 0.0
C4026 C 0.43524 0.91402 0.63163 0.0
C4027 C 0.46774 0.95667 0.65839 0.0
C4028 C 0.4864 0.96166 0.64719 0.0
C4029 C 0.46707 0.95959 0.68066 0.0
C4030 C 0.44842 0.95279 0.6936 0.0
C4031 C 0.44123 0.93149 0.69342 0.0
C4032 C 0.42345 0.92524 0.70534 0.0
C4033 C 0.41294 0.94009 0.71781 0.0
C4034 C 0.42016 0.96121 0.71835 0.0
C4035 C 0.43785 0.96757 0.70633 0.0
H4036 H 0.39923 0.9352 0.72711 0.0
H4037 H 0.57659 0.97944 0.61271 0.0
H4038 H 0.34205 0.34008 0.97032 0.0
H4039 H 0.35073 0.31268 0.94431 0.0
H4040 H 0.28479 0.3075 0.92603 0.0
H4041 H 0.27595 0.33504 0.95173 0.0
H4042 H 0.3035 0.2692 0.93988 0.0
H4043 H 0.31637 0.32504 0.89024 0.0
H4044 H 0.33135 0.35922 0.87766 0.0
H4045 H 0.39455 0.33617 0.88607 0.0
H4046 H 0.37997 0.30193 0.89901 0.0
H4047 H 0.33589 0.18136 0.87937 0.0
H4048 H 0.31889 0.21556 0.88518 0.0
H4049 H 0.37965 0.24383 0.90198 0.0
H4050 H 0.39674 0.21024 0.89556 0.0
H4051 H 0.35689 0.27193 0.88193 0.0
H4052 H 0.34582 0.22213 0.93976 0.0
H4053 H 0.3334 0.18844 0.95588 0.0
H4054 H 0.2696 0.20079 0.93578 0.0
H4055 H 0.28177 0.23446 0.9193 0.0
C4056 C 0.32946 0.33338 0.96051 0.0
C4057 C 0.30831 0.33958 0.96319 0.0
C4058 C 0.33446 0.31785 0.94558 0.0
C4059 C 0.31837 0.30822 0.93326 0.0
C4060 C 0.29738 0.31489 0.93535 0.0
C4061 C 0.29241 0.3306 0.95005 0.0
C4062 C 0.32318 0.28947 0.92023 0.0
C4063 C 0.31471 0.26981 0.92678 0.0
C4064 C 0.33818 0.29039 0.90357 0.0
C4065 C 0.34705 0.31093 0.89571 0.0
C4066 C 0.33347 0.3273 0.88956 0.0
C4067 C 0.34189 0.34668 0.88233 0.0
C4068 C 0.36388 0.34987 0.88109 0.0
C4069 C 0.37751 0.33367 0.88704 0.0
C4070 C 0.36917 0.31426 0.89429 0.0
C4071 C 0.34565 0.19499 0.88388 0.0
C4072 C 0.36759 0.19301 0.88732 0.0
C4073 C 0.33593 0.21449 0.8872 0.0
C4074 C 0.34797 0.23212 0.89435 0.0
C4075 C 0.37005 0.23046 0.89642 0.0
C4076 C 0.37978 0.21114 0.89287 0.0
C4077 C 0.33767 0.2516 0.902 0.0
C4078 C 0.34514 0.27138 0.89454 0.0
C4079 C 0.32209 0.25083 0.91822 0.0
C4080 C 0.31475 0.23061 0.92805 0.0
C4081 C 0.32919 0.21755 0.93864 0.0
C4082 C 0.32219 0.19849 0.94785 0.0
C4083 C 0.30073 0.19244 0.94678 0.0
C4084 C 0.28623 0.20547 0.93653 0.0
C4085 C 0.29317 0.22454 0.92725 0.0
H4086 H 0.29533 0.17768 0.95394 0.0
H4087 H 0.37037 0.36489 0.87549 0.0
H4088 H 0.4065 0.55902 0.71311 0.0
H4089 H 0.4358 0.57815 0.69543 0.0
H4090 H 0.43893 0.52865 0.64826 0.0
H4091 H 0.40958 0.50962 0.66539 0.0
H4092 H 0.47636 0.53755 0.67827 0.0
H4093 H 0.42762 0.56909 0.62858 0.0
H4094 H 0.39646 0.59005 0.61872 0.0
H4095 H 0.42342 0.64464 0.65047 0.0
H4096 H 0.45462 0.62389 0.66081 0.0
H4097 H 0.56761 0.56782 0.62334 0.0
H4098 H 0.53077 0.55662 0.62984 0.0
H4099 H 0.51803 0.61785 0.65753 0.0
H4100 H 0.55459 0.62947 0.65004 0.0
H4101 H 0.48421 0.60424 0.6369 0.0
H4102 H 0.53076 0.57483 0.68869 0.0
H4103 H 0.56183 0.55541 0.70153 0.0
H4104 H 0.5389 0.49871 0.67048 0.0
H4105 H 0.50775 0.51787 0.65722 0.0
C4106 C 0.41303 0.5525 0.69864 0.0
C4107 C 0.40597 0.53262 0.69087 0.0
C4108 C 0.42966 0.5635 0.68853 0.0
C4109 C 0.4394 0.55469 0.67065 0.0
C4110 C 0.43145 0.53565 0.66203 0.0
C4111 C 0.41473 0.52479 0.67192 0.0
C4112 C 0.46001 0.56318 0.66323 0.0
C4113 C 0.47811 0.55196 0.66893 0.0
C4114 C 0.4621 0.58239 0.65186 0.0
C4115 C 0.44334 0.59485 0.64569 0.0
C4116 C 0.4268 0.58549 0.63368 0.0
C4117 C 0.40915 0.59735 0.62794 0.0
C4118 C 0.40793 0.61864 0.63402 0.0
C4119 C 0.42437 0.62813 0.6458 0.0
C4120 C 0.44205 0.61633 0.65159 0.0
C4121 C 0.55684 0.57893 0.6306 0.0
C4122 C 0.56391 0.59937 0.63645 0.0
C4123 C 0.53585 0.57255 0.63432 0.0
C4124 C 0.52182 0.58625 0.64463 0.0
C4125 C 0.52861 0.60702 0.64961 0.0
C4126 C 0.54949 0.61359 0.64542 0.0
C4127 C 0.50067 0.57836 0.6516 0.0
C4128 C 0.4825 0.58975 0.64609 0.0
C4129 C 0.49844 0.55949 0.66365 0.0
C4130 C 0.51703 0.54784 0.6718 0.0
C4131 C 0.5324 0.55825 0.6845 0.0
C4132 C 0.55002 0.54729 0.69186 0.0
C4133 C 0.55238 0.52586 0.68678 0.0
C4134 C 0.53706 0.51532 0.67438 0.0
C4135 C 0.51941 0.52621 0.66695 0.0
H4136 H 0.56606 0.51741 0.69249 0.0
H4137 H 0.39426 0.6278 0.62955 0.0
H4138 H 0.76359 0.20386 -0.00352 0.0
H4139 H 0.77919 0.23101 0.01974 0.0
H4140 H 0.741 0.20747 0.07189 0.0
H4141 H 0.7259 0.17975 0.04886 0.0
H4142 H 0.76547 0.26272 0.0413 0.0
H4143 H 0.76887 0.21134 0.11773 0.0
H4144 H 0.77127 0.17354 0.12755 0.0
H4145 H 0.8016 0.16015 0.06807 0.0
H4146 H 0.79966 0.1979 0.05804 0.0
H4147 H 0.79082 0.33172 0.12195 0.0
H4148 H 0.77287 0.29994 0.10805 0.0
H4149 H 0.83336 0.26993 0.09992 0.0
H4150 H 0.85152 0.30164 0.11394 0.0
H4151 H 0.79922 0.24086 0.10892 0.0
H4152 H 0.81874 0.29733 0.06207 0.0
H4153 H 0.82104 0.33445 0.0499 0.0
H4154 H 0.75298 0.33621 0.0456 0.0
H4155 H 0.75029 0.29909 0.05802 0.0
C4156 C 0.75837 0.2046 0.01285 0.0
C4157 C 0.74372 0.18959 0.02096 0.0
C4158 C 0.76729 0.22012 0.02611 0.0
C4159 C 0.76155 0.22098 0.04763 0.0
C4160 C 0.74602 0.20674 0.05545 0.0
C4161 C 0.73732 0.19103 0.04227 0.0
C4162 C 0.77228 0.23643 0.06193 0.0
C4163 C 0.77273 0.25791 0.05611 0.0
C4164 C 0.78228 0.23008 0.081 0.0
C4165 C 0.7839 0.20741 0.08706 0.0
C4166 C 0.77614 0.20034 0.1068 0.0
C4167 C 0.7774 0.17892 0.11239 0.0
C4168 C 0.78652 0.16444 0.09841 0.0
C4169 C 0.79447 0.17137 0.07885 0.0
C4170 C 0.79328 0.19277 0.0732 0.0
C4171 C 0.80027 0.31811 0.11784 0.0
C4172 C 0.82258 0.31932 0.11848 0.0
C4173 C 0.78998 0.29997 0.11 0.0
C4174 C 0.80189 0.28289 0.10261 0.0
C4175 C 0.82397 0.28304 0.10554 0.0
C4176 C 0.83431 0.3012 0.11348 0.0
C4177 C 0.79183 0.26701 0.08845 0.0
C4178 C 0.79167 0.24555 0.09422 0.0
C4179 C 0.78279 0.27323 0.0689 0.0
C4180 C 0.78431 0.29547 0.06114 0.0
C4181 C 0.80426 0.30565 0.05863 0.0
C4182 C 0.80564 0.32669 0.05168 0.0
C4183 C 0.78716 0.33771 0.04702 0.0
C4184 C 0.76728 0.32766 0.04924 0.0
C4185 C 0.76582 0.30661 0.05621 0.0
H4186 H 0.78825 0.35401 0.04166 0.0
H4187 H 0.78745 0.14786 0.10276 0.0
H4188 H 0.57799 0.06633 0.77482 0.0
H4189 H 0.55829 0.08363 0.80285 0.0
H4190 H 0.59816 0.05456 0.85001 0.0
H4191 H 0.61713 0.03601 0.82177 0.0
H4192 H 0.5608 0.04864 0.86143 0.0
H4193 H 0.59717 0.11018 0.83983 0.0
H4194 H 0.61286 0.13751 0.81633 0.0
H4195 H 0.55062 0.15455 0.79527 0.0
H4196 H 0.53452 0.12715 0.81836 0.0
H4197 H 0.47691 0.13509 0.89681 0.0
H4198 H 0.51382 0.12471 0.89205 0.0
H4199 H 0.49226 0.06468 0.86574 0.0
H4200 H 0.4555 0.07465 0.87123 0.0
H4201 H 0.5307 0.12058 0.85626 0.0
H4202 H 0.5273 0.02765 0.86653 0.0
H4203 H 0.51327 0.00176 0.89253 0.0
H4204 H 0.51365 0.04997 0.94082 0.0
H4205 H 0.52799 0.0761 0.91523 0.0
C4206 C 0.58291 0.06401 0.79112 0.0
C4207 C 0.59902 0.04979 0.79615 0.0
C4208 C 0.57171 0.07406 0.80721 0.0
C4209 C 0.57687 0.07069 0.82864 0.0
C4210 C 0.59385 0.05742 0.83362 0.0
C4211 C 0.60473 0.0469 0.8175 0.0
C4212 C 0.56278 0.07894 0.84553 0.0
C4213 C 0.55446 0.06449 0.86051 0.0
C4214 C 0.55508 0.09992 0.84502 0.0
C4215 C 0.56462 0.11657 0.831 0.0
C4216 C 0.58681 0.11968 0.83014 0.0
C4217 C 0.59578 0.13521 0.81687 0.0
C4218 C 0.58274 0.1478 0.80436 0.0
C4219 C 0.5607 0.14486 0.80506 0.0
C4220 C 0.55164 0.12935 0.8183 0.0
C4221 C 0.48011 0.11943 0.89059 0.0
C4222 C 0.46338 0.10577 0.88411 0.0
C4223 C 0.50119 0.11352 0.88789 0.0
C4224 C 0.50589 0.09394 0.87852 0.0
C4225 C 0.48914 0.0797 0.87342 0.0
C4226 C 0.46806 0.08547 0.87641 0.0
C4227 C 0.52766 0.08971 0.87078 0.0
C4228 C 0.53751 0.10496 0.85762 0.0
C4229 C 0.53708 0.06969 0.87333 0.0
C4230 C 0.52871 0.05389 0.88889 0.0
C4231 C 0.52458 0.03271 0.88273 0.0
C4232 C 0.51651 0.01799 0.8974 0.0
C4233 C 0.51255 0.02422 0.91831 0.0
C4234 C 0.51668 0.04518 0.92461 0.0
C4235 C 0.52475 0.05996 0.91001 0.0
H4236 H 0.50629 0.0128 0.92963 0.0
H4237 H 0.58973 0.15981 0.7941 0.0
H4238 H 0.91339 0.92326 0.28704 0.0
H4239 H 0.93604 0.91177 0.31609 0.0
H4240 H 0.93538 0.97482 0.34298 0.0
H4241 H 0.91274 0.98651 0.31395 0.0
H4242 H 0.97509 0.96132 0.3354 0.0
H4243 H 0.91442 0.93472 0.37148 0.0
H4244 H 0.88007 0.91579 0.376 0.0
H4245 H 0.90901 0.85694 0.35913 0.0
H4246 H 0.94349 0.87553 0.35418 0.0
H4247 H 0.05968 0.9171 0.39122 0.0
H4248 H 0.0249 0.93381 0.38937 0.0
H4249 H -0.00023 0.8792 0.35545 0.0
H4250 H 0.03394 0.86209 0.35826 0.0
H4251 H 0.96948 0.89535 0.37811 0.0
H4252 H 0.02436 0.9243 0.32968 0.0
H4253 H 0.05888 0.94217 0.32252 0.0
H4254 H 0.04033 0.99553 0.36031 0.0
H4255 H 0.00574 0.97787 0.3678 0.0
C4256 C 0.91772 0.93459 0.29932 0.0
C4257 C 0.91151 0.95585 0.29801 0.0
C4258 C 0.93049 0.92795 0.31605 0.0
C4259 C 0.93724 0.94243 0.33175 0.0
C4260 C 0.93023 0.9634 0.33106 0.0
C4261 C 0.91735 0.97004 0.31441 0.0
C4262 C 0.9541 0.93637 0.34674 0.0
C4263 C 0.97369 0.94727 0.3453 0.0
C4264 C 0.95228 0.91792 0.35942 0.0
C4265 C 0.93158 0.90658 0.36241 0.0
C4266 C 0.91345 0.91776 0.3686 0.0
C4267 C 0.89395 0.90708 0.37126 0.0
C4268 C 0.89236 0.88518 0.36785 0.0
C4269 C 0.91028 0.8739 0.36179 0.0
C4270 C 0.92982 0.88451 0.3591 0.0
C4271 C 0.04656 0.90854 0.38378 0.0
C4272 C 0.04957 0.88851 0.37449 0.0
C4273 C 0.02673 0.91807 0.38275 0.0
C4274 C 0.00989 0.90798 0.3718 0.0
C4275 C 0.01251 0.88733 0.36395 0.0
C4276 C 0.03213 0.87761 0.36542 0.0
C4277 C 0.99061 0.91964 0.36573 0.0
C4278 C 0.97062 0.90985 0.36888 0.0
C4279 C 0.99204 0.93895 0.35428 0.0
C4280 C 0.01263 0.9497 0.34948 0.0
C4281 C 0.0277 0.93982 0.33649 0.0
C4282 C 0.04726 0.9499 0.33238 0.0
C4283 C 0.05182 0.96994 0.34101 0.0
C4284 C 0.03679 0.97999 0.35368 0.0
C4285 C 0.01721 0.96997 0.35785 0.0
H4286 H 0.06699 0.97771 0.33785 0.0
H4287 H 0.87724 0.87694 0.36992 0.0
H4288 H 0.42789 0.25774 0.20398 0.0
H4289 H 0.39707 0.27032 0.224 0.0
H4290 H 0.41845 0.33512 0.21433 0.0
H4291 H 0.44882 0.32283 0.19431 0.0
H4292 H 0.39689 0.29233 0.26011 0.0
H4293 H 0.37906 0.36812 0.20953 0.0
H4294 H 0.37751 0.378 0.17173 0.0
H4295 H 0.36684 0.31265 0.15456 0.0
H4296 H 0.36798 0.30237 0.19228 0.0
H4297 H 0.36936 0.3978 0.29918 0.0
H4298 H 0.37389 0.37621 0.26723 0.0
H4299 H 0.33479 0.32635 0.29479 0.0
H4300 H 0.33123 0.34749 0.32718 0.0
H4301 H 0.35361 0.35303 0.23655 0.0
H4302 H 0.35875 0.281 0.28841 0.0
H4303 H 0.36037 0.27131 0.32631 0.0
H4304 H 0.39708 0.328 0.33957 0.0
H4305 H 0.39568 0.33798 0.30169 0.0
C4306 C 0.4259 0.27466 0.20608 0.0
C4307 C 0.44075 0.28931 0.1976 0.0
C4308 C 0.40827 0.2818 0.21739 0.0
C4309 C 0.40522 0.30365 0.22019 0.0
C4310 C 0.42013 0.31821 0.21182 0.0
C4311 C 0.43765 0.31113 0.20059 0.0
C4312 C 0.38774 0.31162 0.23352 0.0
C4313 C 0.38689 0.30512 0.25477 0.0
C4314 C 0.3747 0.3283 0.22655 0.0
C4315 C 0.37365 0.33447 0.2038 0.0
C4316 C 0.3762 0.35586 0.19773 0.0
C4317 C 0.37544 0.36153 0.17629 0.0
C4318 C 0.3721 0.34596 0.16075 0.0
C4319 C 0.36947 0.32469 0.16661 0.0
C4320 C 0.3702 0.31893 0.18802 0.0
C4321 C 0.36113 0.38257 0.29804 0.0
C4322 C 0.35032 0.37402 0.31559 0.0
C4323 C 0.36365 0.37025 0.2798 0.0
C4324 C 0.35514 0.34945 0.27892 0.0
C4325 C 0.34186 0.34216 0.29536 0.0
C4326 C 0.33981 0.35423 0.31379 0.0
C4327 C 0.36375 0.33443 0.26318 0.0
C4328 C 0.36294 0.33963 0.24157 0.0
C4329 C 0.37525 0.31646 0.26973 0.0
C4330 C 0.377 0.31025 0.29233 0.0
C4331 C 0.36729 0.29129 0.29942 0.0
C4332 C 0.36815 0.28577 0.32089 0.0
C4333 C 0.37889 0.29899 0.33535 0.0
C4334 C 0.38882 0.31775 0.32835 0.0
C4335 C 0.38799 0.32335 0.3069 0.0
H4336 H 0.37943 0.29475 0.35198 0.0
H4337 H 0.37154 0.35039 0.14417 0.0
H4338 H 0.4778 0.69017 0.93045 0.0
H4339 H 0.46345 0.67111 0.9612 0.0
H4340 H 0.39978 0.67919 0.93726 0.0
H4341 H 0.41412 0.6994 0.90727 0.0
H4342 H 0.40103 0.69342 0.97413 0.0
H4343 H 0.42369 0.62855 0.94457 0.0
H4344 H 0.4476 0.6031 0.92751 0.0
H4345 H 0.48988 0.60723 0.98093 0.0
H4346 H 0.4664 0.63296 -0.00181 0.0
H4347 H 0.35873 0.6409 0.06576 0.0
H4348 H 0.36961 0.64481 0.0287 0.0
H4349 H 0.4331 0.66226 0.04878 0.0
H4350 H 0.42222 0.65914 0.08598 0.0
H4351 H 0.42816 0.63077 0.01244 0.0
H4352 H 0.40648 0.70092 0.03754 0.0
H4353 H 0.38147 0.72625 0.05321 0.0
H4354 H 0.33484 0.70931 0.00606 0.0
H4355 H 0.35955 0.68375 0.9902 0.0
C4356 C 0.4608 0.68733 0.93154 0.0
C4357 C 0.44699 0.69638 0.91677 0.0
C4358 C 0.45258 0.67631 0.94903 0.0
C4359 C 0.43048 0.67367 0.9516 0.0
C4360 C 0.41685 0.68117 0.93574 0.0
C4361 C 0.42503 0.69267 0.91863 0.0
C4362 C 0.42154 0.66634 0.97216 0.0
C4363 C 0.40663 0.67935 0.98215 0.0
C4364 C 0.42905 0.64825 0.98296 0.0
C4365 C 0.44333 0.63285 0.97261 0.0
C4366 C 0.43817 0.62419 0.95261 0.0
C4367 C 0.45164 0.60968 0.94291 0.0
C4368 C 0.47027 0.60359 0.95311 0.0
C4369 C 0.47545 0.61197 0.97304 0.0
C4370 C 0.46205 0.6265 0.9828 0.0
C4371 C 0.37496 0.64576 0.06231 0.0
C4372 C 0.38945 0.65034 0.07878 0.0
C4373 C 0.38117 0.64775 0.04117 0.0
C4374 C 0.40208 0.65386 0.03618 0.0
C4375 C 0.41688 0.65749 0.05247 0.0
C4376 C 0.41059 0.65585 0.07366 0.0
C4377 C 0.40813 0.65801 0.01401 0.0
C4378 C 0.42241 0.64448 0.00394 0.0
C4379 C 0.39982 0.6754 0.0029 0.0
C4380 C 0.38478 0.6903 0.01281 0.0
C4381 C 0.39082 0.70245 0.03064 0.0
C4382 C 0.37676 0.71694 0.03947 0.0
C4383 C 0.35664 0.71948 0.03054 0.0
C4384 C 0.35047 0.70741 0.01288 0.0
C4385 C 0.3645 0.69293 0.00396 0.0
H4386 H 0.34577 0.73072 0.03739 0.0
H4387 H 0.48067 0.59234 0.94558 0.0
H4388 H 0.04671 0.74796 0.69564 0.0
H4389 H 0.0716 0.72898 0.71793 0.0
H4390 H 0.0613 0.6723 0.68031 0.0
H4391 H 0.03555 0.69104 0.65855 0.0
H4392 H 0.05587 0.66297 0.71894 0.0
H4393 H 0.11127 0.69985 0.68299 0.0
H4394 H 0.13078 0.73021 0.66712 0.0
H4395 H 0.13658 0.75964 0.72845 0.0
H4396 H 0.11684 0.72961 0.74467 0.0
H4397 H 0.11729 0.61049 0.79443 0.0
H4398 H 0.11215 0.62661 0.7596 0.0
H4399 H 0.10279 0.68748 0.78931 0.0
H4400 H 0.1081 0.67162 0.8242 0.0
H4401 H 0.12391 0.69012 0.74936 0.0
H4402 H 0.06108 0.65635 0.78203 0.0
H4403 H 0.04253 0.62541 0.79802 0.0
H4404 H 0.05221 0.58942 0.74097 0.0
H4405 H 0.07111 0.62009 0.72478 0.0
C4406 C 0.05008 0.73157 0.69186 0.0
C4407 C 0.03905 0.72088 0.67554 0.0
C4408 C 0.06448 0.72076 0.7045 0.0
C4409 C 0.06852 0.69921 0.70071 0.0
C4410 C 0.05843 0.68889 0.68357 0.0
C4411 C 0.04372 0.6996 0.67116 0.0
C4412 C 0.08083 0.68688 0.71636 0.0
C4413 C 0.07107 0.66863 0.72508 0.0
C4414 C 0.10053 0.69434 0.7247 0.0
C4415 C 0.11246 0.71248 0.71504 0.0
C4416 C 0.11657 0.71285 0.69309 0.0
C4417 C 0.1277 0.73 0.68403 0.0
C4418 C 0.13489 0.74685 0.69676 0.0
C4419 C 0.131 0.74657 0.7186 0.0
C4420 C 0.11988 0.72946 0.72775 0.0
C4421 C 0.11455 0.62739 0.79356 0.0
C4422 C 0.11254 0.63968 0.8121 0.0
C4423 C 0.11174 0.63657 0.77364 0.0
C4424 C 0.10682 0.65812 0.77199 0.0
C4425 C 0.10658 0.6708 0.79031 0.0
C4426 C 0.1094 0.66165 0.81024 0.0
C4427 C 0.09865 0.66676 0.75189 0.0
C4428 C 0.10907 0.68426 0.74256 0.0
C4429 C 0.07964 0.65859 0.74281 0.0
C4430 C 0.06768 0.64041 0.75229 0.0
C4431 C 0.05932 0.64181 0.77294 0.0
C4432 C 0.04875 0.62432 0.78204 0.0
C4433 C 0.04624 0.60544 0.77053 0.0
C4434 C 0.0542 0.60405 0.74987 0.0
C4435 C 0.06483 0.62147 0.74072 0.0
H4436 H 0.0381 0.59191 0.77762 0.0
H4437 H 0.1435 0.76011 0.68971 0.0
H4438 H 0.05301 0.30421 0.39478 0.0
H4439 H 0.07414 0.32233 0.42206 0.0
H4440 H 0.01985 0.35918 0.43973 0.0
H4441 H -0.00155 0.34097 0.41271 0.0
H4442 H 0.08522 0.36394 0.43711 0.0
H4443 H 0.01368 0.35223 0.49262 0.0
H4444 H 0.98064 0.33059 0.49523 0.0
H4445 H 0.00958 0.28059 0.45967 0.0
H4446 H 0.04286 0.30181 0.45716 0.0
H4447 H 0.08034 0.37639 0.56159 0.0
H4448 H 0.06604 0.37811 0.52574 0.0
H4449 H 0.12015 0.34435 0.502 0.0
H4450 H 0.13487 0.34292 0.53809 0.0
H4451 H 0.0547 0.34194 0.50651 0.0
H4452 H 0.12454 0.35604 0.44724 0.0
H4453 H 0.15795 0.37707 0.44504 0.0
H4454 H 0.13359 0.42212 0.48964 0.0
H4455 H 0.09988 0.40167 0.49178 0.0
C4456 C 0.04567 0.31654 0.4041 0.0
C4457 C 0.02388 0.32074 0.40199 0.0
C4458 C 0.05785 0.32701 0.41954 0.0
C4459 C 0.04842 0.3418 0.43305 0.0
C4460 C 0.02731 0.34763 0.42952 0.0
C4461 C 0.01508 0.33711 0.41416 0.0
C4462 C 0.0592 0.34793 0.453 0.0
C4463 C 0.07867 0.35917 0.45235 0.0
C4464 C 0.05044 0.34178 0.47277 0.0
C4465 C 0.03062 0.32873 0.47447 0.0
C4466 C 0.01298 0.3366 0.48542 0.0
C4467 C 0.99423 0.32441 0.48688 0.0
C4468 C 0.99298 0.30427 0.47755 0.0
C4469 C 0.01053 0.29623 0.46682 0.0
C4470 C 0.02933 0.30834 0.46536 0.0
C4471 C 0.08937 0.36959 0.54869 0.0
C4472 C 0.10845 0.35906 0.55261 0.0
C4473 C 0.08125 0.37073 0.52822 0.0
C4474 C 0.09197 0.36126 0.51129 0.0
C4475 C 0.11175 0.35193 0.51487 0.0
C4476 C 0.12005 0.35098 0.53546 0.0
C4477 C 0.08077 0.35824 0.49087 0.0
C4478 C 0.06121 0.34721 0.4914 0.0
C4479 C 0.08957 0.36458 0.47116 0.0
C4480 C 0.10974 0.37714 0.46984 0.0
C4481 C 0.12626 0.37049 0.45651 0.0
C4482 C 0.14526 0.38232 0.45527 0.0
C4483 C 0.14791 0.40089 0.46723 0.0
C4484 C 0.13154 0.40771 0.48042 0.0
C4485 C 0.11249 0.39598 0.48168 0.0
H4486 H 0.16263 0.41001 0.46626 0.0
H4487 H 0.97844 0.29487 0.47867 0.0
H4488 H 0.44322 0.76342 0.33028 0.0
H4489 H 0.42186 0.73986 0.30758 0.0
H4490 H 0.45246 0.68542 0.33458 0.0
H4491 H 0.47426 0.70886 0.35687 0.0
H4492 H 0.45481 0.68416 0.29358 0.0
H4493 H 0.39887 0.69442 0.34278 0.0
H4494 H 0.37471 0.7142 0.36603 0.0
H4495 H 0.34932 0.74636 0.31188 0.0
H4496 H 0.37354 0.727 0.28831 0.0
H4497 H 0.39847 0.62059 0.21996 0.0
H4498 H 0.40685 0.63385 0.25556 0.0
H4499 H 0.38871 0.6968 0.23678 0.0
H4500 H 0.38006 0.68374 0.20131 0.0
H4501 H 0.37757 0.68757 0.27847 0.0
H4502 H 0.43892 0.68258 0.23144 0.0
H4503 H 0.46333 0.66322 0.20802 0.0
H4504 H 0.47859 0.62119 0.25919 0.0
H4505 H 0.45399 0.64012 0.28282 0.0
C4506 C 0.44516 0.74642 0.3316 0.0
C4507 C 0.4606 0.738 0.34512 0.0
C4508 C 0.43281 0.73295 0.31876 0.0
C4509 C 0.43547 0.71086 0.31952 0.0
C4510 C 0.45018 0.70241 0.33375 0.0
C4511 C 0.46267 0.71584 0.3464 0.0
C4512 C 0.42487 0.69692 0.30367 0.0
C4513 C 0.43782 0.68447 0.29069 0.0
C4514 C 0.40277 0.69761 0.29967 0.0
C4515 C 0.38814 0.70932 0.31378 0.0
C4516 C 0.38825 0.70582 0.33583 0.0
C4517 C 0.37452 0.71694 0.34907 0.0
C4518 C 0.36051 0.73155 0.34044 0.0
C4519 C 0.36018 0.73504 0.31854 0.0
C4520 C 0.37389 0.72397 0.30523 0.0
C4521 C 0.39594 0.63719 0.2235 0.0
C4522 C 0.38907 0.65123 0.20769 0.0
C4523 C 0.40066 0.64469 0.24385 0.0
C4524 C 0.39864 0.66632 0.24861 0.0
C4525 C 0.39036 0.68004 0.23335 0.0
C4526 C 0.38563 0.67258 0.21303 0.0
C4527 C 0.40762 0.67531 0.26836 0.0
C4528 C 0.39444 0.68686 0.2819 0.0
C4529 C 0.42953 0.67384 0.27296 0.0
C4530 C 0.44443 0.66258 0.2588 0.0
C4531 C 0.44736 0.6691 0.23764 0.0
C4532 C 0.46124 0.65822 0.22434 0.0
C4533 C 0.47245 0.64094 0.23209 0.0
C4534 C 0.46985 0.63454 0.25319 0.0
C4535 C 0.45594 0.64534 0.26654 0.0
H4536 H 0.4832 0.63255 0.22178 0.0
H4537 H 0.34989 0.74014 0.35072 0.0
H4538 H 0.0391 0.72072 0.0642 0.0
H4539 H 0.05182 0.69389 0.03986 0.0
H4540 H -0.00072 0.65226 0.05721 0.0
H4541 H 0.98572 0.67988 0.08083 0.0
H4542 H 0.06565 0.65691 0.04065 0.0
H4543 H 0.98519 0.62181 0.01467 0.0
H4544 H 0.94721 0.63099 0.01387 0.0
H4545 H 0.96423 0.69724 0.00985 0.0
H4546 H 0.00227 0.68841 0.01042 0.0
H4547 H 0.09727 0.59769 0.95239 0.0
H4548 H 0.07815 0.60337 0.98577 0.0
H4549 H 0.03913 0.64969 0.95468 0.0
H4550 H 0.05706 0.64276 0.92115 0.0
H4551 H 0.01677 0.63285 0.98329 0.0
H4552 H 0.08906 0.66199 0.98177 0.0
H4553 H 0.12805 0.65966 0.97875 0.0
H4554 H 0.12909 0.61709 0.03193 0.0
H4555 H 0.09005 0.61902 0.03509 0.0
C4556 C 0.03034 0.70579 0.06301 0.0
C4557 C 0.01129 0.70247 0.07418 0.0
C4558 C 0.03769 0.69036 0.04914 0.0
C4559 C 0.02638 0.67109 0.04642 0.0
C4560 C 0.00803 0.66717 0.05865 0.0
C4561 C 0.00035 0.6829 0.0722 0.0
C4562 C 0.03323 0.6562 0.02958 0.0
C4563 C 0.05489 0.65141 0.02825 0.0
C4564 C 0.01927 0.64898 0.01334 0.0
C4565 C -0.0035 0.65446 0.0129 0.0
C4566 C 0.98079 0.63832 0.01361 0.0
C4567 C 0.95927 0.64346 0.01319 0.0
C4568 C 0.95332 0.66469 0.0119 0.0
C4569 C 0.96886 0.68082 0.01093 0.0
C4570 C 0.99039 0.67576 0.01132 0.0
C4571 C 0.08423 0.60868 0.95271 0.0
C4572 C 0.07872 0.62001 0.93442 0.0
C4573 C 0.07339 0.61198 0.97174 0.0
C4574 C 0.0576 0.62743 0.97294 0.0
C4575 C 0.05124 0.63771 0.95426 0.0
C4576 C 0.06156 0.63385 0.9351 0.0
C4577 C 0.04938 0.63487 0.9937 0.0
C4578 C 0.02745 0.63787 -0.00405 0.0
C4579 C 0.06324 0.64151 0.01027 0.0
C4580 C 0.08667 0.64043 0.00849 0.0
C4581 C 0.09762 0.65206 0.99274 0.0
C4582 C 0.11971 0.65081 0.99101 0.0
C4583 C 0.13103 0.63817 0.0051 0.0
C4584 C 0.12029 0.62682 0.02099 0.0
C4585 C 0.09819 0.62798 0.02276 0.0
H4586 H 0.14813 0.63722 0.00374 0.0
H4587 H 0.93666 0.66864 0.0116 0.0
H4588 H 0.02981 0.31006 0.84027 0.0
H4589 H 0.04904 0.32017 0.80814 0.0
H4590 H 0.05265 0.25424 0.78991 0.0
H4591 H 0.03395 0.24391 0.82262 0.0
H4592 H 0.08843 0.27644 0.7783 0.0
H4593 H 0.01341 0.28377 0.77074 0.0
H4594 H 0.97753 0.29541 0.78049 0.0
H4595 H -0.00176 0.36064 0.77607 0.0
H4596 H 0.03436 0.34938 0.76663 0.0
H4597 H 0.10092 0.30431 0.66771 0.0
H4598 H 0.08893 0.28877 0.70134 0.0
H4599 H 0.08512 0.35145 0.7287 0.0
H4600 H 0.09687 0.36712 0.69528 0.0
H4601 H 0.04886 0.32752 0.73409 0.0
H4602 H 0.1248 0.31905 0.74235 0.0
H4603 H 0.15983 0.30642 0.73088 0.0
H4604 H 0.13619 0.242 0.73169 0.0
H4605 H 0.10091 0.25428 0.74292 0.0
C4606 C 0.03497 0.29769 0.82958 0.0
C4607 C 0.03011 0.27624 0.8337 0.0
C4608 C 0.04594 0.30348 0.81124 0.0
C4609 C 0.05175 0.28798 0.79643 0.0
C4610 C 0.04815 0.26643 0.80112 0.0
C4611 C 0.03745 0.26057 0.81974 0.0
C4612 C 0.05988 0.29458 0.77539 0.0
C4613 C 0.0797 0.2874 0.76849 0.0
C4614 C 0.04842 0.30887 0.76262 0.0
C4615 C 0.02665 0.31571 0.76817 0.0
C4616 C 0.01036 0.30059 0.772 0.0
C4617 C 0.98997 0.30713 0.77746 0.0
C4618 C 0.98562 0.32875 0.77895 0.0
C4619 C 0.00164 0.34389 0.77494 0.0
C4620 C 0.02208 0.33744 0.76953 0.0
C4621 C 0.09764 0.31477 0.68093 0.0
C4622 C 0.09971 0.33695 0.67881 0.0
C4623 C 0.09092 0.30586 0.70013 0.0
C4624 C 0.08628 0.319 0.71745 0.0
C4625 C 0.08868 0.34108 0.71547 0.0
C4626 C 0.0954 0.34999 0.69636 0.0
C4627 C 0.0777 0.30999 0.73734 0.0
C4628 C 0.05762 0.31656 0.74391 0.0
C4629 C 0.08883 0.29502 0.74956 0.0
C4630 C 0.11016 0.2876 0.74328 0.0
C4631 C 0.12703 0.3022 0.73996 0.0
C4632 C 0.14694 0.2951 0.73352 0.0
C4633 C 0.15022 0.27342 0.73049 0.0
C4634 C 0.13362 0.25879 0.73402 0.0
C4635 C 0.11367 0.2658 0.74045 0.0
H4636 H 0.16563 0.26796 0.72545 0.0
H4637 H 0.96982 0.33378 0.78317 0.0
H4638 H 0.44441 0.29123 0.56786 0.0
H4639 H 0.43456 0.31519 0.53941 0.0
H4640 H 0.50071 0.32898 0.52657 0.0
H4641 H 0.51087 0.30489 0.55539 0.0
H4642 H 0.47103 0.36576 0.52418 0.0
H4643 H 0.48191 0.29673 0.49523 0.0
H4644 H 0.47931 0.25761 0.49448 0.0
H4645 H 0.41124 0.26049 0.49206 0.0
H4646 H 0.41341 0.29963 0.49315 0.0
H4647 H 0.42548 0.38831 0.4152 0.0
H4648 H 0.45017 0.37685 0.44286 0.0
H4649 H 0.39741 0.36429 0.48492 0.0
H4650 H 0.37267 0.37585 0.45773 0.0
H4651 H 0.42955 0.32844 0.46783 0.0
H4652 H 0.42002 0.39778 0.50288 0.0
H4653 H 0.42316 0.43688 0.50315 0.0
H4654 H 0.49032 0.43319 0.49209 0.0
H4655 H 0.48749 0.39403 0.49138 0.0
C4656 C 0.45692 0.29948 0.55917 0.0
C4657 C 0.47842 0.29597 0.56363 0.0
C4658 C 0.45125 0.31323 0.543 0.0
C4659 C 0.46694 0.32362 0.53086 0.0
C4660 C 0.48844 0.32106 0.53585 0.0
C4661 C 0.49417 0.30724 0.55218 0.0
C4662 C 0.46039 0.33539 0.51184 0.0
C4663 C 0.46237 0.35763 0.51157 0.0
C4664 C 0.44926 0.32469 0.49539 0.0
C4665 C 0.44784 0.30113 0.49436 0.0
C4666 C 0.46638 0.28902 0.49466 0.0
C4667 C 0.46498 0.26684 0.49417 0.0
C4668 C 0.44512 0.25657 0.49324 0.0
C4669 C 0.42661 0.26847 0.49277 0.0
C4670 C 0.42792 0.29065 0.49329 0.0
C4671 C 0.41917 0.38355 0.43051 0.0
C4672 C 0.39709 0.38264 0.43417 0.0
C4673 C 0.4333 0.37715 0.44627 0.0
C4674 C 0.42549 0.36986 0.46579 0.0
C4675 C 0.40363 0.37008 0.46991 0.0
C4676 C 0.38954 0.3766 0.45431 0.0
C4677 C 0.43935 0.35877 0.48069 0.0
C4678 C 0.43873 0.33655 0.48009 0.0
C4679 C 0.45182 0.36953 0.49609 0.0
C4680 C 0.45349 0.39301 0.49674 0.0
C4681 C 0.43541 0.40531 0.50023 0.0
C4682 C 0.43714 0.42748 0.50054 0.0
C4683 C 0.45691 0.43752 0.49755 0.0
C4684 C 0.475 0.4254 0.49434 0.0
C4685 C 0.47335 0.40322 0.49399 0.0
H4686 H 0.45822 0.45468 0.49779 0.0
H4687 H 0.44407 0.2394 0.49287 0.0
H4688 H 0.15969 0.40742 0.2697 0.0
H4689 H 0.18121 0.38724 0.29418 0.0
H4690 H 0.14007 0.40479 0.34598 0.0
H4691 H 0.11921 0.4261 0.32153 0.0
H4692 H 0.17654 0.41834 0.35422 0.0
H4693 H 0.15242 0.35039 0.33427 0.0
H4694 H 0.14025 0.32106 0.31104 0.0
H4695 H 0.20148 0.32007 0.28104 0.0
H4696 H 0.21396 0.3496 0.30382 0.0
H4697 H 0.27448 0.39689 0.40493 0.0
H4698 H 0.23706 0.38874 0.39697 0.0
H4699 H 0.2518 0.38642 0.33012 0.0
H4700 H 0.28899 0.39433 0.33784 0.0
H4701 H 0.22143 0.3557 0.34187 0.0
H4702 H 0.23679 0.43244 0.35213 0.0
H4703 H 0.24892 0.46291 0.37399 0.0
H4704 H 0.20268 0.44649 0.42167 0.0
H4705 H 0.19046 0.41577 0.40014 0.0
C4706 C 0.15478 0.40631 0.28615 0.0
C4707 C 0.13815 0.41863 0.29387 0.0
C4708 C 0.16699 0.39455 0.3002 0.0
C4709 C 0.16236 0.3945 0.32206 0.0
C4710 C 0.14407 0.40471 0.32924 0.0
C4711 C 0.1322 0.41691 0.3153 0.0
C4712 C 0.17914 0.38855 0.33737 0.0
C4713 C 0.1858 0.40414 0.35206 0.0
C4714 C 0.19146 0.37017 0.33462 0.0
C4715 C 0.18414 0.35227 0.32084 0.0
C4716 C 0.16328 0.34401 0.32266 0.0
C4717 C 0.15632 0.32732 0.30956 0.0
C4718 C 0.17009 0.3187 0.29459 0.0
C4719 C 0.19085 0.32673 0.29268 0.0
C4720 C 0.19789 0.34342 0.30574 0.0
C4721 C 0.26974 0.39449 0.38856 0.0
C4722 C 0.28457 0.39674 0.37197 0.0
C4723 C 0.24844 0.38965 0.38408 0.0
C4724 C 0.24174 0.38701 0.36297 0.0
C4725 C 0.2567 0.38824 0.34653 0.0
C4726 C 0.2779 0.39311 0.35096 0.0
C4727 C 0.21897 0.38602 0.35738 0.0
C4728 C 0.21136 0.36921 0.34465 0.0
C4729 C 0.20566 0.40324 0.36186 0.0
C4730 C 0.21292 0.42172 0.3747 0.0
C4731 C 0.22932 0.43528 0.36734 0.0
C4732 C 0.2362 0.45258 0.37965 0.0
C4733 C 0.22663 0.45659 0.39924 0.0
C4734 C 0.21012 0.44333 0.40652 0.0
C4735 C 0.20321 0.42598 0.39428 0.0
H4736 H 0.23197 0.47 0.40875 0.0
H4737 H 0.16466 0.30579 0.28445 0.0
H4738 H 0.33163 0.43685 0.99087 0.0
H4739 H 0.35888 0.46237 0.00371 0.0
H4740 H 0.32607 0.46604 0.06381 0.0
H4741 H 0.29981 0.44014 0.05152 0.0
H4742 H 0.35944 0.50109 0.01549 0.0
H4743 H 0.35453 0.47101 0.10449 0.0
H4744 H 0.35376 0.43653 0.12288 0.0
H4745 H 0.38079 0.40666 0.06812 0.0
H4746 H 0.38209 0.44103 0.04946 0.0
H4747 H 0.34543 0.58001 0.08471 0.0
H4748 H 0.34892 0.54963 0.06141 0.0
H4749 H 0.40236 0.52829 0.09826 0.0
H4750 H 0.39788 0.55835 0.12264 0.0
H4751 H 0.38056 0.49678 0.09123 0.0
H4752 H 0.40787 0.54457 0.04353 0.0
H4753 H 0.41392 0.57797 0.02393 0.0
H4754 H 0.35328 0.57019 0.99337 0.0
H4755 H 0.34662 0.53697 0.01305 0.0
C4756 C 0.33039 0.44317 0.00682 0.0
C4757 C 0.31382 0.43645 0.02034 0.0
C4758 C 0.34597 0.45762 0.01415 0.0
C4759 C 0.34496 0.46556 0.03498 0.0
C4760 C 0.32779 0.45946 0.04801 0.0
C4761 C 0.31261 0.44483 0.0409 0.0
C4762 C 0.36076 0.48125 0.04326 0.0
C4763 C 0.36444 0.50011 0.03192 0.0
C4764 C 0.36887 0.47938 0.06413 0.0
C4765 C 0.36847 0.4587 0.07556 0.0
C4766 C 0.36057 0.45718 0.09642 0.0
C4767 C 0.35996 0.43761 0.10688 0.0
C4768 C 0.36723 0.41942 0.09668 0.0
C4769 C 0.37515 0.42076 0.076 0.0
C4770 C 0.3758 0.44028 0.06546 0.0
C4771 C 0.358 0.5689 0.08778 0.0
C4772 C 0.37126 0.57133 0.10552 0.0
C4773 C 0.36027 0.55168 0.07421 0.0
C4774 C 0.37635 0.53689 0.07759 0.0
C4775 C 0.38994 0.53954 0.09518 0.0
C4776 C 0.38729 0.55657 0.10917 0.0
C4777 C 0.37671 0.51743 0.06428 0.0
C4778 C 0.3764 0.49768 0.07456 0.0
C4779 C 0.37289 0.51825 0.04212 0.0
C4780 C 0.37678 0.53812 0.02979 0.0
C4781 C 0.39577 0.54998 0.03268 0.0
C4782 C 0.3993 0.56892 0.02156 0.0
C4783 C 0.38401 0.57618 0.0074 0.0
C4784 C 0.36515 0.5645 0.0043 0.0
C4785 C 0.36152 0.54556 0.0154 0.0
H4786 H 0.38676 0.59088 -0.00117 0.0
H4787 H 0.36672 0.40428 0.1048 0.0
H4788 H 0.34764 0.54322 0.82099 0.0
H4789 H 0.32168 0.56226 0.84226 0.0
H4790 H 0.30228 0.59683 0.78672 0.0
H4791 H 0.32818 0.57795 0.76534 0.0
H4792 H 0.2976 0.62033 0.82483 0.0
H4793 H 0.28037 0.55075 0.79456 0.0
H4794 H 0.28585 0.51245 0.78911 0.0
H4795 H 0.27987 0.50176 0.85619 0.0
H4796 H 0.27476 0.54011 0.86205 0.0
H4797 H 0.179 0.60082 0.82637 0.0
H4798 H 0.21626 0.59837 0.81633 0.0
H4799 H 0.23525 0.611 0.88094 0.0
H4800 H 0.19775 0.61319 0.89141 0.0
H4801 H 0.24278 0.56595 0.84405 0.0
H4802 H 0.28694 0.64426 0.86117 0.0
H4803 H 0.28101 0.68287 0.86269 0.0
H4804 H 0.2302 0.67611 0.81753 0.0
H4805 H 0.23609 0.63758 0.81547 0.0
C4806 C 0.33838 0.55541 0.81344 0.0
C4807 C 0.33955 0.55874 0.7914 0.0
C4808 C 0.3236 0.5663 0.82565 0.0
C4809 C 0.30985 0.58063 0.81594 0.0
C4810 C 0.31274 0.58579 0.79447 0.0
C4811 C 0.32745 0.57487 0.78225 0.0
C4812 C 0.29005 0.58686 0.82666 0.0
C4813 C 0.28572 0.60848 0.82938 0.0
C4814 C 0.27448 0.57135 0.83229 0.0
C4815 C 0.27755 0.54831 0.82877 0.0
C4816 C 0.28046 0.54026 0.80816 0.0
C4817 C 0.28346 0.51855 0.80499 0.0
C4818 C 0.2833 0.50469 0.8223 0.0
C4819 C 0.28008 0.51252 0.8428 0.0
C4820 C 0.27716 0.53424 0.84606 0.0
C4821 C 0.19102 0.60341 0.83846 0.0
C4822 C 0.1854 0.60689 0.85977 0.0
C4823 C 0.2123 0.60211 0.83264 0.0
C4824 C 0.22835 0.6047 0.84788 0.0
C4825 C 0.22297 0.60922 0.86897 0.0
C4826 C 0.20159 0.61029 0.87491 0.0
C4827 C 0.25026 0.5994 0.84208 0.0
C4828 C 0.25492 0.57783 0.84022 0.0
C4829 C 0.26587 0.61497 0.83694 0.0
C4830 C 0.2617 0.63798 0.83849 0.0
C4831 C 0.27447 0.65102 0.85162 0.0
C4832 C 0.27119 0.67291 0.85249 0.0
C4833 C 0.25524 0.68193 0.84021 0.0
C4834 C 0.24251 0.66909 0.82707 0.0
C4835 C 0.24575 0.64721 0.82612 0.0
H4836 H 0.2527 0.69887 0.84092 0.0
H4837 H 0.28559 0.48788 0.81981 0.0
H4838 H 0.18683 0.59915 0.56255 0.0
H4839 H 0.17068 0.56552 0.57406 0.0
H4840 H 0.18314 0.53821 0.51251 0.0
H4841 H 0.19857 0.57215 0.50063 0.0
H4842 H 0.14721 0.5214 0.52904 0.0
H4843 H 0.21898 0.53345 0.55217 0.0
H4844 H 0.24858 0.55342 0.56902 0.0
H4845 H 0.21558 0.55198 0.62869 0.0
H4846 H 0.18562 0.53226 0.6121 0.0
H4847 H 0.15595 0.41402 0.56421 0.0
H4848 H 0.1626 0.44918 0.549 0.0
H4849 H 0.14812 0.47809 0.60931 0.0
H4850 H 0.1418 0.44305 0.62479 0.0
H4851 H 0.18438 0.49384 0.59251 0.0
H4852 H 0.11294 0.47859 0.56775 0.0
H4853 H 0.0856 0.4567 0.5495 0.0
H4854 H 0.12049 0.46198 0.49109 0.0
H4855 H 0.14824 0.48357 0.50909 0.0
C4856 C 0.18567 0.58612 0.55133 0.0
C4857 C 0.19423 0.58809 0.53084 0.0
C4858 C 0.17648 0.56693 0.55791 0.0
C4859 C 0.17628 0.54924 0.54431 0.0
C4860 C 0.18327 0.55165 0.52328 0.0
C4861 C 0.1921 0.57102 0.51653 0.0
C4862 C 0.17113 0.52787 0.55279 0.0
C4863 C 0.1554 0.51528 0.54282 0.0
C4864 C 0.18188 0.51991 0.57076 0.0
C4865 C 0.19997 0.53157 0.58084 0.0
C4866 C 0.21798 0.53751 0.56885 0.0
C4867 C 0.23482 0.54877 0.57836 0.0
C4868 C 0.23394 0.55401 0.59991 0.0
C4869 C 0.21623 0.54794 0.612 0.0
C4870 C 0.19931 0.53671 0.60256 0.0
C4871 C 0.15417 0.42786 0.57426 0.0
C4872 C 0.14843 0.42574 0.59575 0.0
C4873 C 0.15783 0.44793 0.56548 0.0
C4874 C 0.15559 0.4662 0.57798 0.0
C4875 C 0.14986 0.46415 0.59941 0.0
C4876 C 0.14628 0.44411 0.60822 0.0
C4877 C 0.16014 0.48749 0.56907 0.0
C4878 C 0.17599 0.50001 0.57885 0.0
C4879 C 0.14973 0.49513 0.55076 0.0
C4880 C 0.13277 0.48256 0.53982 0.0
C4881 C 0.11485 0.47498 0.55105 0.0
C4882 C 0.09928 0.46262 0.54074 0.0
C4883 C 0.10135 0.45788 0.51917 0.0
C4884 C 0.11893 0.46561 0.50782 0.0
C4885 C 0.13458 0.47792 0.51806 0.0
H4886 H 0.08931 0.44827 0.51123 0.0
H4887 H 0.247 0.56274 0.60724 0.0
H4888 H 0.17903 0.52252 0.27153 0.0
H4889 H 0.20978 0.54567 0.26318 0.0
H4890 H 0.20525 0.52729 0.19734 0.0
H4891 H 0.17494 0.50395 0.20548 0.0
H4892 H 0.24972 0.53289 0.24153 0.0
H4893 H 0.21128 0.57456 0.1696 0.0
H4894 H 0.17598 0.58661 0.15831 0.0
H4895 H 0.15697 0.59263 0.22348 0.0
H4896 H 0.19225 0.58094 0.23517 0.0
H4897 H 0.30025 0.59129 0.14617 0.0
H4898 H 0.26962 0.57682 0.16521 0.0
H4899 H 0.3004 0.59101 0.22498 0.0
H4900 H 0.33162 0.60486 0.2059 0.0
H4901 H 0.24217 0.59269 0.19107 0.0
H4902 H 0.28381 0.55435 0.26197 0.0
H4903 H 0.31879 0.54026 0.27181 0.0
H4904 H 0.33092 0.52475 0.20656 0.0
H4905 H 0.29593 0.53852 0.1964 0.0
C4906 C 0.18465 0.5234 0.25529 0.0
C4907 C 0.17462 0.5114 0.23915 0.0
C4908 C 0.20218 0.53657 0.25059 0.0
C4909 C 0.20955 0.53824 0.22965 0.0
C4910 C 0.19961 0.52628 0.21357 0.0
C4911 C 0.18238 0.51289 0.21828 0.0
C4912 C 0.22783 0.55221 0.22426 0.0
C4913 C 0.24813 0.54631 0.2309 0.0
C4914 C 0.22559 0.56942 0.21014 0.0
C4915 C 0.20438 0.57671 0.20325 0.0
C4916 C 0.19961 0.57855 0.18153 0.0
C4917 C 0.17959 0.5853 0.17506 0.0
C4918 C 0.16422 0.59033 0.19017 0.0
C4919 C 0.16886 0.58866 0.21179 0.0
C4920 C 0.18885 0.58193 0.21835 0.0
C4921 C 0.30053 0.59138 0.16337 0.0
C4922 C 0.31842 0.59904 0.17455 0.0
C4923 C 0.28295 0.58317 0.17425 0.0
C4924 C 0.28276 0.58263 0.19652 0.0
C4925 C 0.30035 0.59089 0.20778 0.0
C4926 C 0.31814 0.59883 0.19687 0.0
C4927 C 0.26425 0.57288 0.20762 0.0
C4928 C 0.24385 0.5796 0.20207 0.0
C4929 C 0.26642 0.55623 0.22251 0.0
C4930 C 0.2874 0.54772 0.22842 0.0
C4931 C 0.29394 0.54789 0.24975 0.0
C4932 C 0.31376 0.53997 0.25538 0.0
C4933 C 0.3271 0.5317 0.23981 0.0
C4934 C 0.32061 0.53125 0.21859 0.0
C4935 C 0.3008 0.53913 0.21289 0.0
H4936 H 0.34244 0.52558 0.2442 0.0
H4937 H 0.14874 0.59554 0.18513 0.0
H4938 H 0.20257 0.43094 0.00549 0.0
H4939 H 0.17554 0.45166 0.98762 0.0
H4940 H 0.18697 0.41759 0.92933 0.0
H4941 H 0.2144 0.39718 0.94699 0.0
H4942 H 0.19291 0.45832 0.924 0.0
H4943 H 0.13775 0.4155 0.95374 0.0
H4944 H 0.11776 0.39607 0.98146 0.0
H4945 H 0.10715 0.45451 0.01468 0.0
H4946 H 0.12733 0.47428 0.98733 0.0
H4947 H 0.13066 0.53219 0.87157 0.0
H4948 H 0.13806 0.49704 0.88575 0.0
H4949 H 0.13807 0.52254 0.94937 0.0
H4950 H 0.1303 0.5577 0.93539 0.0
H4951 H 0.12171 0.48121 0.94762 0.0
H4952 H 0.18322 0.52172 0.92253 0.0
H4953 H 0.20413 0.54167 0.89581 0.0
H4954 H 0.2036 0.48701 0.85493 0.0
H4955 H 0.18236 0.46685 0.88129 0.0
C4956 C 0.19895 0.42751 0.98901 0.0
C4957 C 0.21084 0.41276 0.97751 0.0
C4958 C 0.18335 0.43923 0.97885 0.0
C4959 C 0.17923 0.43614 0.95714 0.0
C4960 C 0.18995 0.42023 0.94609 0.0
C4961 C 0.20566 0.40865 0.95617 0.0
C4962 C 0.16674 0.45188 0.94532 0.0
C4963 C 0.17706 0.46285 0.92878 0.0
C4964 C 0.14632 0.45819 0.95194 0.0
C4965 C 0.13419 0.44637 0.96851 0.0
C4966 C 0.13131 0.4242 0.96704 0.0
C4967 C 0.1199 0.41313 0.98268 0.0
C4968 C 0.11121 0.42404 -0.00016 0.0
C4969 C 0.11388 0.44607 0.00138 0.0
C4970 C 0.12528 0.45723 0.98579 0.0
C4971 C 0.13192 0.53026 0.88861 0.0
C4972 C 0.13045 0.5478 0.90235 0.0
C4973 C 0.13601 0.51016 0.89666 0.0
C4974 C 0.13894 0.50735 0.91854 0.0
C4975 C 0.13587 0.52445 0.93242 0.0
C4976 C 0.13162 0.54455 0.92439 0.0
C4977 C 0.1481 0.48758 0.92668 0.0
C4978 C 0.13727 0.47609 0.94253 0.0
C4979 C 0.16817 0.48077 0.91958 0.0
C4980 C 0.18097 0.49287 0.90375 0.0
C4981 C 0.1874 0.51402 0.90776 0.0
C4982 C 0.19934 0.52536 0.89269 0.0
C4983 C 0.20514 0.51564 0.87365 0.0
C4984 C 0.19905 0.49454 0.86966 0.0
C4985 C 0.18705 0.48315 0.88465 0.0
H4986 H 0.21441 0.52443 0.86202 0.0
H4987 H 0.10239 0.41544 0.01193 0.0
H4988 H 0.2954 0.48805 0.72102 0.0
H4989 H 0.26937 0.46198 0.70794 0.0
H4990 H 0.30065 0.41268 0.74307 0.0
H4991 H 0.32606 0.43922 0.7572 0.0
H4992 H 0.27665 0.43158 0.68287 0.0
H4993 H 0.26519 0.3704 0.74995 0.0
H4994 H 0.26606 0.36855 0.78909 0.0
H4995 H 0.24923 0.4342 0.79306 0.0
H4996 H 0.248 0.43635 0.75398 0.0
H4997 H 0.20604 0.35991 0.63547 0.0
H4998 H 0.23766 0.36856 0.65672 0.0
H4999 H 0.19782 0.39462 0.70571 0.0
H5000 H 0.1664 0.38506 0.68526 0.0
H5001 H 0.23152 0.38062 0.72354 0.0
H5002 H 0.21671 0.42509 0.66233 0.0
H5003 H 0.21123 0.43185 0.62415 0.0
H5004 H 0.27344 0.40851 0.61049 0.0
H5005 H 0.27915 0.40139 0.64859 0.0
C5006 C 0.29636 0.47172 0.72631 0.0
C5007 C 0.31256 0.46553 0.74007 0.0
C5008 C 0.28163 0.45682 0.71874 0.0
C5009 C 0.28316 0.43532 0.72435 0.0
C5010 C 0.299 0.42919 0.7387 0.0
C5011 C 0.31347 0.44431 0.74677 0.0
C5012 C 0.26882 0.41951 0.71399 0.0
C5013 C 0.26691 0.42034 0.69181 0.0
C5014 C 0.25623 0.4047 0.72556 0.0
C5015 C 0.2568 0.40359 0.74906 0.0
C5016 C 0.26165 0.38442 0.75919 0.0
C5017 C 0.2622 0.38332 0.78136 0.0
C5018 C 0.25779 0.40127 0.79355 0.0
C5019 C 0.25274 0.42034 0.7836 0.0
C5020 C 0.25214 0.42151 0.76145 0.0
C5021 C 0.20407 0.36701 0.65101 0.0
C5022 C 0.18382 0.37232 0.65846 0.0
C5023 C 0.22211 0.3719 0.66314 0.0
C5024 C 0.22012 0.38277 0.68253 0.0
C5025 C 0.1998 0.38631 0.69078 0.0
C5026 C 0.1818 0.381 0.67893 0.0
C5027 C 0.23864 0.39357 0.69262 0.0
C5028 C 0.24161 0.39158 0.71464 0.0
C5029 C 0.25159 0.4081 0.68108 0.0
C5030 C 0.24825 0.41246 0.65821 0.0
C5031 C 0.22916 0.42131 0.65115 0.0
C5032 C 0.22602 0.42521 0.62954 0.0
C5033 C 0.24195 0.42055 0.61489 0.0
C5034 C 0.26109 0.41205 0.62184 0.0
C5035 C 0.26429 0.40807 0.64343 0.0
H5036 H 0.23949 0.42358 0.59817 0.0
H5037 H 0.25824 0.40039 0.81071 0.0
H5038 H 0.2999 0.62174 0.46372 0.0
H5039 H 0.32432 0.59562 0.44944 0.0
H5040 H 0.31726 0.55833 0.50651 0.0
H5041 H 0.29357 0.58507 0.52129 0.0
H5042 H 0.35643 0.55144 0.48534 0.0
H5043 H 0.28074 0.55196 0.47049 0.0
H5044 H 0.2477 0.56901 0.45903 0.0
H5045 H 0.27524 0.58185 0.39789 0.0
H5046 H 0.30859 0.56518 0.40916 0.0
H5047 H 0.34495 0.44546 0.44642 0.0
H5048 H 0.34449 0.48027 0.46358 0.0
H5049 H 0.34703 0.51063 0.40221 0.0
H5050 H 0.34688 0.4759 0.38494 0.0
H5051 H 0.31451 0.52337 0.42431 0.0
H5052 H 0.38856 0.51517 0.43826 0.0
H5053 H 0.42017 0.49643 0.45088 0.0
H5054 H 0.39503 0.49561 0.51425 0.0
H5055 H 0.36309 0.51407 0.50197 0.0
C5056 C 0.3043 0.6084 0.47353 0.0
C5057 C 0.29466 0.60502 0.49333 0.0
C5058 C 0.3183 0.59359 0.46544 0.0
C5059 C 0.32209 0.57485 0.47673 0.0
C5060 C 0.31445 0.57269 0.49757 0.0
C5061 C 0.30084 0.58786 0.50593 0.0
C5062 C 0.32928 0.55592 0.46515 0.0
C5063 C 0.34738 0.54522 0.47197 0.0
C5064 C 0.3174 0.54795 0.44769 0.0
C5065 C 0.29721 0.55756 0.44074 0.0
C5066 C 0.27978 0.55853 0.45465 0.0
C5067 C 0.261 0.56812 0.44819 0.0
C5068 C 0.2594 0.57656 0.42777 0.0
C5069 C 0.27653 0.57535 0.41373 0.0
C5070 C 0.29537 0.56584 0.42014 0.0
C5071 C 0.34566 0.45957 0.43661 0.0
C5072 C 0.34549 0.45803 0.41435 0.0
C5073 C 0.34565 0.47944 0.44644 0.0
C5074 C 0.34587 0.49801 0.43415 0.0
C5075 C 0.34684 0.49646 0.41195 0.0
C5076 C 0.34659 0.47664 0.40212 0.0
C5077 C 0.34193 0.51877 0.44419 0.0
C5078 C 0.32408 0.52974 0.43726 0.0
C5079 C 0.35395 0.52666 0.46161 0.0
C5080 C 0.37334 0.5159 0.46915 0.0
C5081 C 0.3897 0.51089 0.45487 0.0
C5082 C 0.40769 0.50033 0.46197 0.0
C5083 C 0.40959 0.49479 0.48335 0.0
C5084 C 0.39354 0.4999 0.49769 0.0
C5085 C 0.3755 0.51045 0.49067 0.0
H5086 H 0.42351 0.48657 0.4888 0.0
H5087 H 0.24486 0.584 0.4228 0.0
H5088 H 0.30123 0.18492 0.45568 0.0
H5089 H 0.31056 0.21356 0.43171 0.0
H5090 H 0.25146 0.20359 0.39783 0.0
H5091 H 0.24147 0.17519 0.42294 0.0
H5092 H 0.31837 0.21765 0.39236 0.0
H5093 H 0.23755 0.25153 0.37716 0.0
H5094 H 0.20097 0.25107 0.3914 0.0
H5095 H 0.22523 0.24285 0.45454 0.0
H5096 H 0.26193 0.24344 0.44064 0.0
H5097 H 0.34854 0.32383 0.3615 0.0
H5098 H 0.33139 0.28854 0.35862 0.0
H5099 H 0.29923 0.29934 0.41821 0.0
H5100 H 0.31536 0.33472 0.42036 0.0
H5101 H 0.27298 0.28106 0.39319 0.0
H5102 H 0.34797 0.27047 0.41137 0.0
H5103 H 0.3866 0.27185 0.40463 0.0
H5104 H 0.37757 0.2352 0.34767 0.0
H5105 H 0.33882 0.23393 0.3539 0.0
C5106 C 0.2902 0.18874 0.4431 0.0
C5107 C 0.27056 0.17801 0.44124 0.0
C5108 C 0.29565 0.20501 0.42922 0.0
C5109 C 0.28177 0.21074 0.41286 0.0
C5110 C 0.26234 0.19957 0.41046 0.0
C5111 C 0.25662 0.18345 0.42479 0.0
C5112 C 0.28746 0.2297 0.40001 0.0
C5113 C 0.30831 0.23145 0.39213 0.0
C5114 C 0.27426 0.24759 0.39932 0.0
C5115 C 0.25236 0.24721 0.40783 0.0
C5116 C 0.23503 0.24961 0.39406 0.0
C5117 C 0.2143 0.24934 0.40207 0.0
C5118 C 0.21077 0.24684 0.42385 0.0
C5119 C 0.22797 0.2447 0.43767 0.0
C5120 C 0.24873 0.24499 0.42974 0.0
C5121 C 0.3379 0.31843 0.37397 0.0
C5122 C 0.33341 0.33165 0.39131 0.0
C5123 C 0.32802 0.29842 0.37226 0.0
C5124 C 0.31404 0.29124 0.38822 0.0
C5125 C 0.30971 0.30458 0.40553 0.0
C5126 C 0.3191 0.32469 0.40693 0.0
C5127 C 0.30462 0.26951 0.38807 0.0
C5128 C 0.28286 0.26713 0.39268 0.0
C5129 C 0.31732 0.25125 0.38688 0.0
C5130 C 0.34051 0.25242 0.3829 0.0
C5131 C 0.35422 0.2629 0.39729 0.0
C5132 C 0.37612 0.26363 0.39359 0.0
C5133 C 0.38453 0.25367 0.3757 0.0
C5134 C 0.37103 0.24293 0.3615 0.0
C5135 C 0.3491 0.24226 0.36507 0.0
H5136 H 0.40149 0.25424 0.37286 0.0
H5137 H 0.19472 0.24662 0.43002 0.0
H5138 H 0.82891 0.34495 0.55585 0.0
H5139 H 0.84609 0.31864 0.57811 0.0
H5140 H 0.78512 0.2888 0.59093 0.0
H5141 H 0.76772 0.31566 0.56928 0.0
H5142 H 0.81113 0.28493 0.62468 0.0
H5143 H 0.81473 0.27281 0.54973 0.0
H5144 H 0.82269 0.2806 0.51219 0.0
H5145 H 0.88903 0.28786 0.52708 0.0
H5146 H 0.88141 0.28052 0.56481 0.0
H5147 H 0.84292 0.17606 0.62764 0.0
H5148 H 0.82719 0.21088 0.62284 0.0
H5149 H 0.88979 0.23948 0.61724 0.0
H5150 H 0.90569 0.20478 0.62193 0.0
H5151 H 0.86424 0.24558 0.58267 0.0
H5152 H 0.8592 0.25213 0.65828 0.0
H5153 H 0.8493 0.24003 0.69421 0.0
H5154 H 0.78342 0.23856 0.67644 0.0
H5155 H 0.79293 0.25029 0.64027 0.0
C5156 C 0.81913 0.33304 0.56378 0.0
C5157 C 0.79706 0.33204 0.56056 0.0
C5158 C 0.82895 0.31806 0.5765 0.0
C5159 C 0.81692 0.30148 0.5857 0.0
C5160 C 0.79469 0.30142 0.58388 0.0
C5161 C 0.78478 0.3167 0.57145 0.0
C5162 C 0.82772 0.28295 0.59482 0.0
C5163 C 0.8227 0.27625 0.61552 0.0
C5164 C 0.84286 0.27169 0.58282 0.0
C5165 C 0.84744 0.27646 0.56017 0.0
C5166 C 0.83098 0.27633 0.54506 0.0
C5167 C 0.83543 0.28062 0.52373 0.0
C5168 C 0.85634 0.28482 0.51727 0.0
C5169 C 0.87283 0.2847 0.53212 0.0
C5170 C 0.86845 0.2805 0.55348 0.0
C5171 C 0.85336 0.18981 0.62576 0.0
C5172 C 0.87554 0.18763 0.62477 0.0
C5173 C 0.84434 0.20971 0.62323 0.0
C5174 C 0.85736 0.22769 0.61976 0.0
C5175 C 0.87952 0.22574 0.61999 0.0
C5176 C 0.88855 0.2059 0.6226 0.0
C5177 C 0.84794 0.24769 0.6126 0.0
C5178 C 0.85304 0.25452 0.59205 0.0
C5179 C 0.83262 0.25863 0.62459 0.0
C5180 C 0.82681 0.25197 0.64648 0.0
C5181 C 0.84261 0.24909 0.66197 0.0
C5182 C 0.83706 0.24231 0.6824 0.0
C5183 C 0.81575 0.23849 0.6876 0.0
C5184 C 0.79993 0.24152 0.67239 0.0
C5185 C 0.80539 0.24826 0.65193 0.0
H5186 H 0.81149 0.23323 0.70341 0.0
H5187 H 0.85976 0.28809 0.50074 0.0
H5188 H 0.42811 0.03142 0.27188 0.0
H5189 H 0.455 0.05068 0.29238 0.0
H5190 H 0.44258 0.00991 0.34617 0.0
H5191 H 0.41604 0.98996 0.32541 0.0
H5192 H 0.45812 0.07303 0.32734 0.0
H5193 H 0.48943 0.00017 0.37057 0.0
H5194 H 0.48919 0.96107 0.36742 0.0
H5195 H 0.48401 0.96603 0.29962 0.0
H5196 H 0.48445 0.00514 0.30239 0.0
H5197 H 0.55363 0.11007 0.3791 0.0
H5198 H 0.51815 0.09428 0.37323 0.0
H5199 H 0.545 0.04953 0.32912 0.0
H5200 H 0.58034 0.06431 0.33605 0.0
H5201 H 0.51845 0.02958 0.35126 0.0
H5202 H 0.51522 0.0984 0.31381 0.0
H5203 H 0.51588 0.13761 0.31147 0.0
H5204 H 0.46822 0.14086 0.36 0.0
H5205 H 0.467 0.10172 0.36239 0.0
C5206 C 0.43088 0.02666 0.28815 0.0
C5207 C 0.42022 0.00892 0.29691 0.0
C5208 C 0.44619 0.0378 0.29991 0.0
C5209 C 0.45101 0.03154 0.3207 0.0
C5210 C 0.43936 0.01476 0.33002 0.0
C5211 C 0.42422 0.00338 0.31813 0.0
C5212 C 0.46965 0.04133 0.33153 0.0
C5213 C 0.47126 0.06355 0.33277 0.0
C5214 C 0.48678 0.02898 0.33862 0.0
C5215 C 0.48668 0.00551 0.33674 0.0
C5216 C 0.48826 0.99288 0.35501 0.0
C5217 C 0.48809 0.97074 0.35328 0.0
C5218 C 0.48649 0.96107 0.33334 0.0
C5219 C 0.48516 0.97354 0.31507 0.0
C5220 C 0.48535 0.99568 0.31671 0.0
C5221 C 0.55182 0.09679 0.36825 0.0
C5222 C 0.56961 0.0883 0.35806 0.0
C5223 C 0.53157 0.08787 0.36479 0.0
C5224 C 0.5288 0.07084 0.35054 0.0
C5225 C 0.54668 0.06252 0.34034 0.0
C5226 C 0.56689 0.07099 0.34425 0.0
C5227 C 0.5075 0.06139 0.34593 0.0
C5228 C 0.50523 0.03916 0.34619 0.0
C5229 C 0.49006 0.07376 0.33958 0.0
C5230 C 0.49122 0.09722 0.33846 0.0
C5231 C 0.50501 0.10751 0.32407 0.0
C5232 C 0.50546 0.12969 0.32271 0.0
C5233 C 0.49228 0.14169 0.33571 0.0
C5234 C 0.47848 0.13155 0.35 0.0
C5235 C 0.47784 0.10939 0.35131 0.0
H5236 H 0.49267 0.15885 0.33463 0.0
H5237 H 0.48634 0.94393 0.33204 0.0
H5238 H 0.71104 0.63023 0.05885 0.0
H5239 H 0.69615 0.65258 0.08665 0.0
H5240 H 0.7488 0.69692 0.07972 0.0
H5241 H 0.76414 0.67432 0.05246 0.0
H5242 H 0.73069 0.69913 0.12007 0.0
H5243 H 0.70865 0.70014 0.04572 0.0
H5244 H 0.69492 0.68337 0.01291 0.0
H5245 H 0.63819 0.66332 0.04574 0.0
H5246 H 0.65178 0.67973 0.07884 0.0
H5247 H 0.692 0.80309 0.10925 0.0
H5248 H 0.70816 0.76817 0.10974 0.0
H5249 H 0.64634 0.73858 0.11841 0.0
H5250 H 0.63 0.77338 0.11755 0.0
H5251 H 0.66538 0.72395 0.08443 0.0
H5252 H 0.6848 0.73386 0.15643 0.0
H5253 H 0.69932 0.75294 0.18756 0.0
H5254 H 0.76116 0.75494 0.15876 0.0
H5255 H 0.74697 0.73614 0.12728 0.0
C5256 C 0.71987 0.6443 0.06387 0.0
C5257 C 0.7384 0.6509 0.05311 0.0
C5258 C 0.7114 0.657 0.07982 0.0
C5259 C 0.72108 0.67667 0.08476 0.0
C5260 C 0.74102 0.68185 0.07604 0.0
C5261 C 0.7497 0.66897 0.06033 0.0
C5262 C 0.70848 0.69368 0.09454 0.0
C5263 C 0.71633 0.70456 0.11246 0.0
C5264 C 0.68961 0.70054 0.08468 0.0
C5265 C 0.68133 0.69089 0.06477 0.0
C5266 C 0.69331 0.69203 0.04595 0.0
C5267 C 0.68555 0.68261 0.02731 0.0
C5268 C 0.66572 0.67223 0.02726 0.0
C5269 C 0.65357 0.67132 0.04583 0.0
C5270 C 0.66129 0.68066 0.06453 0.0
C5271 C 0.68188 0.78918 0.11164 0.0
C5272 C 0.65968 0.79094 0.11288 0.0
C5273 C 0.69117 0.76924 0.11216 0.0
C5274 C 0.67845 0.75078 0.1142 0.0
C5275 C 0.65643 0.75263 0.11683 0.0
C5276 C 0.64712 0.77253 0.11618 0.0
C5277 C 0.68761 0.72975 0.10994 0.0
C5278 C 0.67924 0.71819 0.09274 0.0
C5279 C 0.70603 0.72255 0.12039 0.0
C5280 C 0.71477 0.73365 0.13941 0.0
C5281 C 0.70147 0.73847 0.15665 0.0
C5282 C 0.70965 0.74923 0.17438 0.0
C5283 C 0.73114 0.75518 0.17513 0.0
C5284 C 0.74452 0.75031 0.15816 0.0
C5285 C 0.73642 0.73957 0.14038 0.0
H5286 H 0.73744 0.76353 0.18886 0.0
H5287 H 0.65974 0.66494 0.01281 0.0
H5288 H 0.54692 0.53409 0.2904 0.0
H5289 H 0.51774 0.5282 0.3158 0.0
H5290 H 0.5271 0.46058 0.31199 0.0
H5291 H 0.55602 0.46627 0.28706 0.0
H5292 H 0.48122 0.50645 0.30794 0.0
H5293 H 0.51685 0.43629 0.35666 0.0
H5294 H 0.55119 0.42716 0.37269 0.0
H5295 H 0.56927 0.49321 0.3753 0.0
H5296 H 0.5349 0.50281 0.3596 0.0
H5297 H 0.4278 0.40713 0.3498 0.0
H5298 H 0.45975 0.42874 0.34336 0.0
H5299 H 0.42629 0.4851 0.36155 0.0
H5300 H 0.39412 0.46367 0.36776 0.0
H5301 H 0.48431 0.45567 0.36798 0.0
H5302 H 0.44413 0.52511 0.32822 0.0
H5303 H 0.4103 0.53396 0.31078 0.0
H5304 H 0.40295 0.46952 0.28913 0.0
H5305 H 0.43683 0.46039 0.30624 0.0
C5306 C 0.54285 0.51802 0.29523 0.0
C5307 C 0.55364 0.50062 0.28671 0.0
C5308 C 0.52628 0.51471 0.30974 0.0
C5309 C 0.52057 0.494 0.31605 0.0
C5310 C 0.5316 0.47673 0.30776 0.0
C5311 C 0.54799 0.48 0.2933 0.0
C5312 C 0.50168 0.48975 0.32938 0.0
C5313 C 0.4819 0.49594 0.32155 0.0
C5314 C 0.50263 0.47595 0.34705 0.0
C5315 C 0.52323 0.47028 0.3569 0.0
C5316 C 0.52804 0.44891 0.36082 0.0
C5317 C 0.54756 0.44364 0.36981 0.0
C5318 C 0.56241 0.4596 0.37499 0.0
C5319 C 0.55777 0.48086 0.37124 0.0
C5320 C 0.53827 0.48623 0.36227 0.0
C5321 C 0.42723 0.4241 0.35249 0.0
C5322 C 0.40834 0.43373 0.35892 0.0
C5323 C 0.44554 0.4364 0.34899 0.0
C5324 C 0.44528 0.4585 0.35187 0.0
C5325 C 0.42671 0.46809 0.35906 0.0
C5326 C 0.40834 0.45581 0.36248 0.0
C5327 C 0.46408 0.47141 0.34567 0.0
C5328 C 0.48373 0.46687 0.35494 0.0
C5329 C 0.46305 0.48673 0.32933 0.0
C5330 C 0.44282 0.49204 0.31874 0.0
C5331 C 0.43528 0.51286 0.3197 0.0
C5332 C 0.41611 0.51792 0.30988 0.0
C5333 C 0.40444 0.50229 0.29893 0.0
C5334 C 0.41196 0.48159 0.29769 0.0
C5335 C 0.43113 0.47646 0.30746 0.0
H5336 H 0.38959 0.50623 0.29136 0.0
H5337 H 0.57751 0.45548 0.38193 0.0
H5338 H 0.24263 0.82643 0.91403 0.0
H5339 H 0.22216 0.79932 0.89452 0.0
H5340 H 0.17531 0.79791 0.9446 0.0
H5341 H 0.19506 0.82544 0.96358 0.0
H5342 H 0.21596 0.76117 0.90523 0.0
H5343 H 0.12842 0.78042 0.93011 0.0
H5344 H 0.10601 0.8119 0.93353 0.0
H5345 H 0.14644 0.84613 0.89003 0.0
H5346 H 0.16894 0.81476 0.88607 0.0
H5347 H 0.15891 0.66828 0.9204 0.0
H5348 H 0.17422 0.70402 0.9238 0.0
H5349 H 0.13454 0.72538 0.87244 0.0
H5350 H 0.11824 0.68974 0.86988 0.0
H5351 H 0.13737 0.75504 0.90051 0.0
H5352 H 0.18753 0.7134 0.86475 0.0
H5353 H 0.20843 0.68122 0.85901 0.0
H5354 H 0.24312 0.69361 0.91655 0.0
H5355 H 0.22195 0.72551 0.92303 0.0
C5356 C 0.2277 0.82066 0.92061 0.0
C5357 C 0.22052 0.828 0.9404 0.0
C5358 C 0.21603 0.80517 0.90945 0.0
C5359 C 0.19708 0.79665 0.91796 0.0
C5360 C 0.18955 0.80456 0.93736 0.0
C5361 C 0.20101 0.82023 0.94833 0.0
C5362 C 0.18646 0.77781 0.90816 0.0
C5363 C 0.1988 0.75997 0.90387 0.0
C5364 C 0.1641 0.77633 0.90574 0.0
C5365 C 0.15044 0.79521 0.90786 0.0
C5366 C 0.13246 0.79459 0.92114 0.0
C5367 C 0.11976 0.81245 0.92321 0.0
C5368 C 0.12481 0.83101 0.91203 0.0
C5369 C 0.14257 0.83175 0.89872 0.0
C5370 C 0.15533 0.81395 0.89659 0.0
C5371 C 0.15338 0.68066 0.90995 0.0
C5372 C 0.13758 0.67634 0.89478 0.0
C5373 C 0.1622 0.70102 0.91179 0.0
C5374 C 0.15599 0.71722 0.89793 0.0
C5375 C 0.13969 0.71309 0.88318 0.0
C5376 C 0.13042 0.69278 0.88172 0.0
C5377 C 0.16683 0.7383 0.89886 0.0
C5378 C 0.15455 0.75648 0.90135 0.0
C5379 C 0.18929 0.74028 0.89891 0.0
C5380 C 0.20305 0.72185 0.89442 0.0
C5381 C 0.1996 0.70927 0.8762 0.0
C5382 C 0.21145 0.69102 0.87285 0.0
C5383 C 0.22706 0.68534 0.88743 0.0
C5384 C 0.23099 0.69801 0.90529 0.0
C5385 C 0.21906 0.71619 0.90881 0.0
H5386 H 0.2361 0.67112 0.8849 0.0
H5387 H 0.11496 0.84482 0.91367 0.0
H5388 H 0.42199 0.96129 0.18751 0.0
H5389 H 0.44806 0.94625 0.16332 0.0
H5390 H 0.45664 0.89371 0.20614 0.0
H5391 H 0.43081 0.9087 0.23055 0.0
H5392 H 0.49372 0.91155 0.19511 0.0
H5393 H 0.43105 0.88635 0.15942 0.0
H5394 H 0.39593 0.88901 0.1424 0.0
H5395 H 0.42241 0.93098 0.09524 0.0
H5396 H 0.45766 0.92882 0.11216 0.0
H5397 H 0.54755 0.84644 0.11535 0.0
H5398 H 0.51298 0.85919 0.12696 0.0
H5399 H 0.53926 0.92266 0.13286 0.0
H5400 H 0.57377 0.91024 0.12108 0.0
H5401 H 0.48342 0.89653 0.1183 0.0
H5402 H 0.53306 0.93162 0.18613 0.0
H5403 H 0.56821 0.92689 0.20272 0.0
H5404 H 0.56608 0.86065 0.18635 0.0
H5405 H 0.53074 0.86492 0.17011 0.0
C5406 C 0.4293 0.94645 0.19172 0.0
C5407 C 0.42445 0.93627 0.21104 0.0
C5408 C 0.44408 0.93782 0.1778 0.0
C5409 C 0.45415 0.91882 0.18291 0.0
C5410 C 0.44901 0.9084 0.20194 0.0
C5411 C 0.43426 0.917 0.21586 0.0
C5412 C 0.47124 0.91067 0.16924 0.0
C5413 C 0.49136 0.90819 0.17836 0.0
C5414 C 0.46815 0.90621 0.14739 0.0
C5415 C 0.44697 0.90757 0.13719 0.0
C5416 C 0.42936 0.8963 0.14553 0.0
C5417 C 0.40943 0.89769 0.13587 0.0
C5418 C 0.40693 0.9102 0.11778 0.0
C5419 C 0.42437 0.92131 0.10928 0.0
C5420 C 0.44433 0.91999 0.11888 0.0
C5421 C 0.54581 0.86324 0.11846 0.0
C5422 C 0.56351 0.87723 0.11791 0.0
C5423 C 0.526 0.8705 0.12488 0.0
C5424 C 0.5238 0.89174 0.13098 0.0
C5425 C 0.5408 0.90617 0.12823 0.0
C5426 C 0.56053 0.899 0.12163 0.0
C5427 C 0.50566 0.8978 0.14423 0.0
C5428 C 0.48554 0.8999 0.13507 0.0
C5429 C 0.50855 0.90157 0.16617 0.0
C5430 C 0.52939 0.89866 0.1767 0.0
C5431 C 0.54005 0.91603 0.18621 0.0
C5432 C 0.56 0.91343 0.19554 0.0
C5433 C 0.5694 0.89349 0.19552 0.0
C5434 C 0.55881 0.87609 0.1863 0.0
C5435 C 0.53883 0.8786 0.17703 0.0
H5436 H 0.58487 0.89152 0.20269 0.0
H5437 H 0.39149 0.91125 0.11033 0.0
H5438 H 0.08024 0.98513 0.7097 0.0
H5439 H 0.05746 0.00432 0.68536 0.0
H5440 H 0.0961 0.06103 0.6942 0.0
H5441 H 0.11876 0.04199 0.71898 0.0
H5442 H 0.0561 0.06847 0.7024 0.0
H5443 H 0.09258 0.03594 0.64523 0.0
H5444 H 0.10841 0.00692 0.62464 0.0
H5445 H 0.04703 0.9766 0.6182 0.0
H5446 H 0.03085 0.00528 0.63901 0.0
H5447 H 0.98258 0.12468 0.64168 0.0
H5448 H 0.01672 0.10855 0.64929 0.0
H5449 H 0.98641 0.04652 0.65016 0.0
H5450 H 0.95226 0.06242 0.64221 0.0
H5451 H 0.02657 0.04546 0.63284 0.0
H5452 H 0.99213 0.07375 0.69537 0.0
H5453 H 0.97561 0.10201 0.71651 0.0
H5454 H 0.03338 0.13933 0.71333 0.0
H5455 H 0.05013 0.11139 0.69188 0.0
C5456 C 0.08418 0.00156 0.70612 0.0
C5457 C 0.10114 0.01213 0.71644 0.0
C5458 C 0.07122 0.01248 0.69205 0.0
C5459 C 0.07513 0.0341 0.68787 0.0
C5460 C 0.09281 0.04435 0.69721 0.0
C5461 C 0.10573 0.03345 0.71136 0.0
C5462 C 0.05912 0.04655 0.67627 0.0
C5463 C 0.05009 0.06377 0.6869 0.0
C5464 C 0.05086 0.04008 0.65632 0.0
C5465 C 0.06052 0.02273 0.64381 0.0
C5466 C 0.08247 0.02301 0.63957 0.0
C5467 C 0.09151 0.00663 0.62783 0.0
C5468 C 0.07874 0.98991 0.62015 0.0
C5469 C 0.0569 0.98956 0.62416 0.0
C5470 C 0.04779 0.0059 0.63591 0.0
C5471 C 0.98321 0.10757 0.64317 0.0
C5472 C 0.96462 0.09486 0.64177 0.0
C5473 C 0.00274 0.09839 0.64747 0.0
C5474 C 0.00398 0.0764 0.65061 0.0
C5475 C 0.98576 0.06354 0.64781 0.0
C5476 C 0.96622 0.07268 0.64342 0.0
C5477 C 0.02358 0.06705 0.65915 0.0
C5478 C 0.0331 0.0504 0.64805 0.0
C5479 C 0.03228 0.07391 0.67876 0.0
C5480 C 0.02229 0.09061 0.69182 0.0
C5481 C 0.00125 0.08805 0.69906 0.0
C5482 C 0.99185 0.104 0.7111 0.0
C5483 C 0.00342 0.12248 0.71621 0.0
C5484 C 0.02442 0.12502 0.70932 0.0
C5485 C 0.03388 0.10914 0.69722 0.0
H5486 H 0.99611 0.13481 0.72554 0.0
H5487 H 0.08577 0.97725 0.61106 0.0
loop_
_geom_bond_atom_site_label_1
_geom_bond_atom_site_label_2
_geom_bond_distance
_geom_bond_site_symmetry_2
_ccdc_geom_bond_type
C0 O1 1.306 . S
C0 O3 1.210 . S
O1 C0 1.306 . S
O1 Cd2 2.228 . S
Cd2 O1 2.228 . S
Cd2 O6 2.273 . S
Cd2 O10 2.310 . S
O3 C0 1.210 . S
O3 Cd4 2.190 1_655 S
Cd4 O3 2.190 1_455 S
Cd4 O6 2.411 1_455 S
Cd4 O7 2.333 . S
Cd4 O8 2.352 . S
Cd4 O12 2.277 . S
Cd4 O13 2.356 . S
C5 O10 1.175 1_455 S
C5 O12 1.226 . S
O6 Cd2 2.273 . S
O6 Cd4 2.411 1_655 S
O6 C9 1.320 . S
O7 Cd4 2.333 . S
O7 C9 1.214 1_455 S
O8 Cd4 2.352 . S
O8 C11 1.258 . S
C9 O6 1.320 . S
C9 O7 1.214 1_655 S
O10 Cd2 2.310 . S
O10 C5 1.175 1_655 S
C11 O8 1.258 . S
C11 O13 1.282 . S
O12 Cd4 2.277 . S
O12 C5 1.226 . S
O13 Cd4 2.356 . S
O13 C11 1.282 . S
C14 O15 1.306 . S
C14 O17 1.160 . S
O15 C14 1.306 . S
O15 Cd16 2.228 1_455 S
Cd16 O15 2.228 1_655 S
Cd16 O20 2.273 . S
Cd16 O24 2.277 . S
O17 C14 1.160 . S
O17 Cd18 2.203 . S
Cd18 O17 2.203 . S
Cd18 O20 2.411 1_455 S
Cd18 O21 2.333 1_455 S
Cd18 O22 2.352 . S
Cd18 O26 2.277 1_455 S
Cd18 O27 2.356 . S
C19 O24 1.209 . S
C19 O26 1.226 . S
O20 Cd16 2.273 . S
O20 Cd18 2.411 1_655 S
O20 C23 1.320 . S
O21 Cd18 2.333 1_655 S
O21 C23 1.214 . S
O22 Cd18 2.352 . S
O22 C25 1.258 . S
C23 O20 1.320 . S
C23 O21 1.214 . S
O24 Cd16 2.277 . S
O24 C19 1.209 . S
C25 O22 1.258 . S
C25 O27 1.282 . S
O26 Cd18 2.277 1_655 S
O26 C19 1.226 . S
O27 Cd18 2.356 . S
O27 C25 1.282 . S
C28 O29 1.306 . S
C28 O31 1.160 . S
O29 C28 1.306 . S
O29 Cd30 2.228 . S
Cd30 O29 2.228 . S
Cd30 O34 2.273 . S
Cd30 O38 2.277 . S
O31 C28 1.160 . S
O31 Cd32 2.203 . S
Cd32 O31 2.203 . S
Cd32 O34 2.411 . S
Cd32 O35 2.333 . S
Cd32 O36 2.352 . S
Cd32 O40 2.277 . S
Cd32 O41 2.356 . S
C33 O38 1.209 . S
C33 O40 1.226 . S
O34 Cd30 2.273 . S
O34 Cd32 2.411 . S
O34 C37 1.320 . S
O35 Cd32 2.333 . S
O35 C37 1.214 . S
O36 Cd32 2.352 . S
O36 C39 1.258 . S
C37 O34 1.320 . S
C37 O35 1.214 . S
O38 Cd30 2.277 . S
O38 C33 1.209 . S
C39 O36 1.258 . S
C39 O41 1.282 . S
O40 Cd32 2.277 . S
O40 C33 1.226 . S
O41 Cd32 2.356 . S
O41 C39 1.282 . S
C42 O43 1.306 . S
C42 O45 1.160 . S
O43 C42 1.306 . S
O43 Cd44 2.228 . S
Cd44 O43 2.228 . S
Cd44 O48 2.273 . S
Cd44 O52 2.277 . S
O45 C42 1.160 . S
O45 Cd46 2.203 . S
Cd46 O45 2.203 . S
Cd46 O48 2.411 . S
Cd46 O49 2.333 . S
Cd46 O50 2.352 . S
Cd46 O54 2.277 . S
Cd46 O55 2.356 . S
C47 O52 1.209 . S
C47 O54 1.226 . S
O48 Cd44 2.273 . S
O48 Cd46 2.411 . S
O48 C51 1.320 . S
O49 Cd46 2.333 . S
O49 C51 1.214 . S
O50 Cd46 2.352 . S
O50 C53 1.258 . S
C51 O48 1.320 . S
C51 O49 1.214 . S
O52 Cd44 2.277 . S
O52 C47 1.209 . S
C53 O50 1.258 . S
C53 O55 1.282 . S
O54 Cd46 2.277 . S
O54 C47 1.226 . S
O55 Cd46 2.356 . S
O55 C53 1.282 . S
C56 O57 1.306 . S
C56 O59 1.160 . S
O57 C56 1.306 . S
O57 Cd58 2.228 . S
Cd58 O57 2.228 . S
Cd58 O62 2.273 . S
Cd58 O66 2.277 . S
O59 C56 1.160 . S
O59 Cd60 2.203 1_655 S
Cd60 O59 2.203 1_455 S
Cd60 O62 2.411 1_455 S
Cd60 O63 2.333 . S
Cd60 O64 2.352 . S
Cd60 O68 2.277 . S
Cd60 O69 2.356 . S
C61 O66 1.209 1_455 S
C61 O68 1.226 . S
O62 Cd58 2.273 . S
O62 Cd60 2.411 1_655 S
O62 C65 1.320 . S
O63 Cd60 2.333 . S
O63 C65 1.214 1_455 S
O64 Cd60 2.352 . S
O64 C67 1.258 . S
C65 O62 1.320 . S
C65 O63 1.214 1_655 S
O66 Cd58 2.277 . S
O66 C61 1.209 1_655 S
C67 O64 1.258 . S
C67 O69 1.282 . S
O68 Cd60 2.277 . S
O68 C61 1.226 . S
O69 Cd60 2.356 . S
O69 C67 1.282 . S
C70 O71 1.306 . S
C70 O73 1.160 . S
O71 C70 1.306 . S
O71 Cd72 2.228 . S
Cd72 O71 2.228 . S
Cd72 O76 2.273 . S
Cd72 O80 2.277 . S
O73 C70 1.160 . S
O73 Cd74 2.203 . S
Cd74 O73 2.203 . S
Cd74 O76 2.411 . S
Cd74 O77 2.333 . S
Cd74 O78 2.352 . S
Cd74 O82 2.277 . S
Cd74 O83 2.356 . S
C75 O80 1.209 . S
C75 O82 1.226 . S
O76 Cd72 2.273 . S
O76 Cd74 2.411 . S
O76 C79 1.320 . S
O77 Cd74 2.333 . S
O77 C79 1.214 . S
O78 Cd74 2.352 . S
O78 C81 1.258 . S
C79 O76 1.320 . S
C79 O77 1.214 . S
O80 Cd72 2.277 . S
O80 C75 1.209 . S
C81 O78 1.258 . S
C81 O83 1.282 . S
O82 Cd74 2.277 . S
O82 C75 1.226 . S
O83 Cd74 2.356 . S
O83 C81 1.282 . S
C84 O85 1.306 . S
C84 O87 1.160 . S
O85 C84 1.306 . S
O85 Cd86 2.228 . S
Cd86 O85 2.228 . S
Cd86 O90 2.273 . S
Cd86 O94 2.277 . S
O87 C84 1.160 . S
O87 Cd88 2.203 . S
Cd88 O87 2.203 . S
Cd88 O90 2.411 . S
Cd88 O91 2.333 . S
Cd88 O92 2.352 . S
Cd88 O96 2.277 . S
Cd88 O97 2.356 . S
C89 O94 1.209 . S
C89 O96 1.226 . S
O90 Cd86 2.273 . S
O90 Cd88 2.411 . S
O90 C93 1.320 . S
O91 Cd88 2.333 . S
O91 C93 1.214 . S
O92 Cd88 2.352 . S
O92 C95 1.258 . S
C93 O90 1.320 . S
C93 O91 1.214 . S
O94 Cd86 2.277 . S
O94 C89 1.209 . S
C95 O92 1.258 . S
C95 O97 1.282 . S
O96 Cd88 2.277 . S
O96 C89 1.226 . S
O97 Cd88 2.356 . S
O97 C95 1.282 . S
C98 O99 1.306 . S
C98 O101 1.160 . S
O99 C98 1.306 . S
O99 Cd100 2.228 1_455 S
Cd100 O99 2.228 1_655 S
Cd100 O104 2.273 . S
Cd100 O108 2.277 . S
O101 C98 1.160 . S
O101 Cd102 2.203 . S
Cd102 O101 2.203 . S
Cd102 O104 2.411 1_455 S
Cd102 O105 2.333 1_455 S
Cd102 O106 2.352 . S
Cd102 O110 2.277 1_455 S
Cd102 O111 2.356 . S
C103 O108 1.209 . S
C103 O110 1.226 . S
O104 Cd100 2.273 . S
O104 Cd102 2.411 1_655 S
O104 C107 1.320 . S
O105 Cd102 2.333 1_655 S
O105 C107 1.214 . S
O106 Cd102 2.352 . S
O106 C109 1.258 . S
C107 O104 1.320 . S
C107 O105 1.214 . S
O108 Cd100 2.277 . S
O108 C103 1.209 . S
C109 O106 1.258 . S
C109 O111 1.282 . S
O110 Cd102 2.277 1_655 S
O110 C103 1.226 . S
O111 Cd102 2.356 . S
O111 C109 1.282 . S
C112 O113 1.306 . S
C112 O115 1.160 . S
O113 C112 1.306 . S
O113 Cd114 2.228 . S
Cd114 O113 2.228 . S
Cd114 O118 2.273 . S
Cd114 O122 2.277 . S
O115 C112 1.160 . S
O115 Cd116 2.203 1_565 S
Cd116 O115 2.203 1_545 S
Cd116 O118 2.411 1_545 S
Cd116 O119 2.333 . S
Cd116 O120 2.352 . S
Cd116 O124 2.277 . S
Cd116 O125 2.356 . S
C117 O122 1.209 1_545 S
C117 O124 1.226 . S
O118 Cd114 2.273 . S
O118 Cd116 2.411 1_565 S
O118 C121 1.320 . S
O119 Cd116 2.333 . S
O119 C121 1.214 1_545 S
O120 Cd116 2.352 . S
O120 C123 1.258 . S
C121 O118 1.320 . S
C121 O119 1.214 1_565 S
O122 Cd114 2.277 . S
O122 C117 1.209 1_565 S
C123 O120 1.258 . S
C123 O125 1.282 . S
O124 Cd116 2.277 . S
O124 C117 1.226 . S
O125 Cd116 2.356 . S
O125 C123 1.282 . S
C126 O127 1.306 . S
C126 O129 1.160 . S
O127 C126 1.306 . S
O127 Cd128 2.228 . S
Cd128 O127 2.228 . S
Cd128 O132 2.273 . S
Cd128 O136 2.277 . S
O129 C126 1.160 . S
O129 Cd130 2.203 . S
Cd130 O129 2.203 . S
Cd130 O132 2.411 . S
Cd130 O133 2.333 . S
Cd130 O134 2.352 . S
Cd130 O138 2.277 . S
Cd130 O139 2.356 . S
C131 O136 1.209 . S
C131 O138 1.226 . S
O132 Cd128 2.273 . S
O132 Cd130 2.411 . S
O132 C135 1.320 . S
O133 Cd130 2.333 . S
O133 C135 1.214 . S
O134 Cd130 2.352 . S
O134 C137 1.258 . S
C135 O132 1.320 . S
C135 O133 1.214 . S
O136 Cd128 2.277 . S
O136 C131 1.209 . S
C137 O134 1.258 . S
C137 O139 1.282 . S
O138 Cd130 2.277 . S
O138 C131 1.226 . S
O139 Cd130 2.356 . S
O139 C137 1.282 . S
C140 O141 1.306 . S
C140 O143 1.160 . S
O141 C140 1.306 . S
O141 Cd142 2.228 . S
Cd142 O141 2.228 . S
Cd142 O146 2.273 . S
Cd142 O150 2.277 . S
O143 C140 1.160 . S
O143 Cd144 2.203 1_565 S
Cd144 O143 2.203 1_545 S
Cd144 O146 2.411 1_545 S
Cd144 O147 2.333 . S
Cd144 O148 2.352 . S
Cd144 O152 2.277 . S
Cd144 O153 2.356 . S
C145 O150 1.209 1_545 S
C145 O152 1.226 . S
O146 Cd142 2.273 . S
O146 Cd144 2.411 1_565 S
O146 C149 1.320 . S
O147 Cd144 2.333 . S
O147 C149 1.214 1_545 S
O148 Cd144 2.352 . S
O148 C151 1.258 . S
C149 O146 1.320 . S
C149 O147 1.214 1_565 S
O150 Cd142 2.277 . S
O150 C145 1.209 1_565 S
C151 O148 1.258 . S
C151 O153 1.282 . S
O152 Cd144 2.277 . S
O152 C145 1.226 . S
O153 Cd144 2.356 . S
O153 C151 1.282 . S
C154 O155 1.306 . S
C154 O157 1.160 . S
O155 C154 1.306 . S
O155 Cd156 2.228 1_554 S
Cd156 O155 2.228 1_556 S
Cd156 O160 2.273 . S
Cd156 O164 2.277 . S
O157 C154 1.160 . S
O157 Cd158 2.203 . S
Cd158 O157 2.203 . S
Cd158 O160 2.411 1_554 S
Cd158 O161 2.333 1_554 S
Cd158 O162 2.352 . S
Cd158 O166 2.277 1_554 S
Cd158 O167 2.356 . S
C159 O164 1.209 . S
C159 O166 1.226 . S
O160 Cd156 2.273 . S
O160 Cd158 2.411 1_556 S
O160 C163 1.320 . S
O161 Cd158 2.333 1_556 S
O161 C163 1.214 . S
O162 Cd158 2.352 . S
O162 C165 1.258 . S
C163 O160 1.320 . S
C163 O161 1.214 . S
O164 Cd156 2.277 . S
O164 C159 1.209 . S
C165 O162 1.258 . S
C165 O167 1.282 . S
O166 Cd158 2.277 1_556 S
O166 C159 1.226 . S
O167 Cd158 2.356 . S
O167 C165 1.282 . S
C168 O169 1.306 . S
C168 O171 1.160 . S
O169 C168 1.306 . S
O169 Cd170 2.228 . S
Cd170 O169 2.228 . S
Cd170 O174 2.273 . S
Cd170 O178 2.277 . S
O171 C168 1.160 . S
O171 Cd172 2.203 1_554 S
Cd172 O171 2.203 1_556 S
Cd172 O174 2.411 1_556 S
Cd172 O175 2.335 . S
Cd172 O176 2.346 1_556 S
Cd172 O180 2.277 . S
Cd172 O181 2.356 . S
C173 O178 1.209 1_556 S
C173 O180 1.226 . S
O174 Cd170 2.273 . S
O174 Cd172 2.411 1_554 S
O174 C177 1.320 . S
O175 Cd172 2.335 . S
O175 C177 1.196 1_556 S
O176 Cd172 2.346 1_554 S
O176 C179 1.216 1_554 S
C177 O174 1.320 . S
C177 O175 1.196 1_554 S
O178 Cd170 2.277 . S
O178 C173 1.209 1_554 S
C179 O176 1.216 1_556 S
C179 O181 1.282 . S
O180 Cd172 2.277 . S
O180 C173 1.226 . S
O181 Cd172 2.356 . S
O181 C179 1.282 . S
C182 O183 1.306 . S
C182 O185 1.160 . S
O183 C182 1.306 . S
O183 Cd184 2.228 . S
Cd184 O183 2.228 . S
Cd184 O188 2.273 . S
Cd184 O192 2.277 . S
O185 C182 1.160 . S
O185 Cd186 2.203 1_554 S
Cd186 O185 2.203 1_556 S
Cd186 O188 2.411 1_556 S
Cd186 O189 2.333 . S
Cd186 O190 2.360 . S
Cd186 O194 2.277 . S
Cd186 O195 2.356 . S
C187 O192 1.209 1_556 S
C187 O194 1.226 . S
O188 Cd184 2.273 . S
O188 Cd186 2.411 1_554 S
O188 C191 1.320 . S
O189 Cd186 2.333 . S
O189 C191 1.214 1_556 S
O190 Cd186 2.360 . S
O190 C193 1.312 . S
C191 O188 1.320 . S
C191 O189 1.214 1_554 S
O192 Cd184 2.277 . S
O192 C187 1.209 1_554 S
C193 O190 1.312 . S
C193 O195 1.282 . S
O194 Cd186 2.277 . S
O194 C187 1.226 . S
O195 Cd186 2.356 . S
O195 C193 1.282 . S
C196 O197 1.306 . S
C196 O199 1.160 . S
O197 C196 1.306 . S
O197 Cd198 2.228 . S
Cd198 O197 2.228 . S
Cd198 O202 2.273 . S
Cd198 O206 2.277 . S
O199 C196 1.160 . S
O199 Cd200 2.203 . S
Cd200 O199 2.203 . S
Cd200 O202 2.411 . S
Cd200 O203 2.333 . S
Cd200 O204 2.352 . S
Cd200 O208 2.277 . S
Cd200 O209 2.356 . S
C201 O206 1.209 . S
C201 O208 1.226 . S
O202 Cd198 2.273 . S
O202 Cd200 2.411 . S
O202 C205 1.320 . S
O203 Cd200 2.333 . S
O203 C205 1.214 . S
O204 Cd200 2.352 . S
O204 C207 1.258 . S
C205 O202 1.320 . S
C205 O203 1.214 . S
O206 Cd198 2.277 . S
O206 C201 1.209 . S
C207 O204 1.258 . S
C207 O209 1.282 . S
O208 Cd200 2.277 . S
O208 C201 1.226 . S
O209 Cd200 2.356 . S
O209 C207 1.282 . S
C210 O211 1.306 . S
C210 O213 1.160 . S
O211 C210 1.306 . S
O211 Cd212 2.228 . S
Cd212 O211 2.228 . S
Cd212 O216 2.273 . S
Cd212 O220 2.277 . S
O213 C210 1.160 . S
O213 Cd214 2.203 . S
Cd214 O213 2.203 . S
Cd214 O216 2.411 . S
Cd214 O217 2.333 . S
Cd214 O218 2.352 . S
Cd214 O222 2.277 . S
Cd214 O223 2.356 . S
C215 O220 1.209 . S
C215 O222 1.226 . S
O216 Cd212 2.273 . S
O216 Cd214 2.411 . S
O216 C219 1.320 . S
O217 Cd214 2.333 . S
O217 C219 1.214 . S
O218 Cd214 2.352 . S
O218 C221 1.258 . S
C219 O216 1.320 . S
C219 O217 1.214 . S
O220 Cd212 2.277 . S
O220 C215 1.209 . S
C221 O218 1.258 . S
C221 O223 1.282 . S
O222 Cd214 2.277 . S
O222 C215 1.226 . S
O223 Cd214 2.356 . S
O223 C221 1.282 . S
C224 O225 1.306 . S
C224 O227 1.160 . S
O225 C224 1.306 . S
O225 Cd226 2.228 1_545 S
Cd226 O225 2.228 1_565 S
Cd226 O230 2.273 . S
Cd226 O234 2.277 . S
O227 C224 1.160 . S
O227 Cd228 2.203 . S
Cd228 O227 2.203 . S
Cd228 O230 2.411 1_545 S
Cd228 O231 2.333 1_545 S
Cd228 O232 2.352 . S
Cd228 O236 2.277 1_545 S
Cd228 O237 2.356 . S
C229 O234 1.209 . S
C229 O236 1.226 . S
O230 Cd226 2.273 . S
O230 Cd228 2.411 1_565 S
O230 C233 1.320 . S
O231 Cd228 2.333 1_565 S
O231 C233 1.214 . S
O232 Cd228 2.352 . S
O232 C235 1.258 . S
C233 O230 1.320 . S
C233 O231 1.214 . S
O234 Cd226 2.277 . S
O234 C229 1.209 . S
C235 O232 1.258 . S
C235 O237 1.282 . S
O236 Cd228 2.277 1_565 S
O236 C229 1.226 . S
O237 Cd228 2.356 . S
O237 C235 1.282 . S
C238 O239 1.306 . S
C238 O241 1.160 . S
O239 C238 1.306 . S
O239 Cd240 2.228 . S
Cd240 O239 2.228 . S
Cd240 O244 2.273 . S
Cd240 O248 2.277 . S
O241 C238 1.160 . S
O241 Cd242 2.203 . S
Cd242 O241 2.203 . S
Cd242 O244 2.411 . S
Cd242 O245 2.333 . S
Cd242 O246 2.352 . S
Cd242 O250 2.277 . S
Cd242 O251 2.356 . S
C243 O248 1.209 . S
C243 O250 1.226 . S
O244 Cd240 2.273 . S
O244 Cd242 2.411 . S
O244 C247 1.320 . S
O245 Cd242 2.333 . S
O245 C247 1.214 . S
O246 Cd242 2.352 . S
O246 C249 1.258 . S
C247 O244 1.320 . S
C247 O245 1.214 . S
O248 Cd240 2.277 . S
O248 C243 1.209 . S
C249 O246 1.258 . S
C249 O251 1.282 . S
O250 Cd242 2.277 . S
O250 C243 1.226 . S
O251 Cd242 2.356 . S
O251 C249 1.282 . S
C252 O253 1.306 . S
C252 O255 1.160 . S
O253 C252 1.306 . S
O253 Cd254 2.228 . S
Cd254 O253 2.228 . S
Cd254 O258 2.273 . S
Cd254 O262 2.277 . S
O255 C252 1.160 . S
O255 Cd256 2.203 . S
Cd256 O255 2.203 . S
Cd256 O258 2.411 . S
Cd256 O259 2.333 . S
Cd256 O260 2.352 . S
Cd256 O264 2.277 . S
Cd256 O265 2.356 . S
C257 O262 1.209 . S
C257 O264 1.226 . S
O258 Cd254 2.273 . S
O258 Cd256 2.411 . S
O258 C261 1.320 . S
O259 Cd256 2.333 . S
O259 C261 1.214 . S
O260 Cd256 2.352 . S
O260 C263 1.258 . S
C261 O258 1.320 . S
C261 O259 1.214 . S
O262 Cd254 2.277 . S
O262 C257 1.209 . S
C263 O260 1.258 . S
C263 O265 1.282 . S
O264 Cd256 2.277 . S
O264 C257 1.226 . S
O265 Cd256 2.356 . S
O265 C263 1.282 . S
C266 O267 1.306 . S
C266 O269 1.160 . S
O267 C266 1.306 . S
O267 Cd268 2.228 1_545 S
Cd268 O267 2.228 1_565 S
Cd268 O272 2.273 . S
Cd268 O276 2.277 . S
O269 C266 1.160 . S
O269 Cd270 2.203 . S
Cd270 O269 2.203 . S
Cd270 O272 2.411 1_545 S
Cd270 O273 2.333 1_545 S
Cd270 O274 2.352 . S
Cd270 O278 2.277 1_545 S
Cd270 O279 2.356 . S
C271 O276 1.209 . S
C271 O278 1.226 . S
O272 Cd268 2.273 . S
O272 Cd270 2.411 1_565 S
O272 C275 1.320 . S
O273 Cd270 2.333 1_565 S
O273 C275 1.214 . S
O274 Cd270 2.352 . S
O274 C277 1.258 . S
C275 O272 1.320 . S
C275 O273 1.214 . S
O276 Cd268 2.277 . S
O276 C271 1.209 . S
C277 O274 1.258 . S
C277 O279 1.282 . S
O278 Cd270 2.277 1_565 S
O278 C271 1.226 . S
O279 Cd270 2.356 . S
O279 C277 1.282 . S
C280 O281 1.306 . S
C280 O283 1.160 . S
O281 C280 1.306 . S
O281 Cd282 2.228 1_554 S
Cd282 O281 2.228 1_556 S
Cd282 O286 2.273 . S
Cd282 O290 2.277 . S
O283 C280 1.160 . S
O283 Cd284 2.203 . S
Cd284 O283 2.203 . S
Cd284 O286 2.411 1_554 S
Cd284 O287 2.333 1_554 S
Cd284 O288 2.352 . S
Cd284 O292 2.277 1_554 S
Cd284 O293 2.356 . S
C285 O290 1.209 . S
C285 O292 1.226 . S
O286 Cd282 2.273 . S
O286 Cd284 2.411 1_556 S
O286 C289 1.320 . S
O287 Cd284 2.333 1_556 S
O287 C289 1.214 . S
O288 Cd284 2.352 . S
O288 C291 1.258 . S
C289 O286 1.320 . S
C289 O287 1.214 . S
O290 Cd282 2.277 . S
O290 C285 1.209 . S
C291 O288 1.258 . S
C291 O293 1.282 . S
O292 Cd284 2.277 1_556 S
O292 C285 1.226 . S
O293 Cd284 2.356 . S
O293 C291 1.282 . S
C294 O295 1.306 . S
C294 O297 1.160 . S
O295 C294 1.306 . S
O295 Cd296 2.228 . S
Cd296 O295 2.228 . S
Cd296 O300 2.273 . S
Cd296 O304 2.277 . S
O297 C294 1.160 . S
O297 Cd298 2.203 . S
Cd298 O297 2.203 . S
Cd298 O300 2.411 . S
Cd298 O301 2.333 . S
Cd298 O302 2.352 . S
Cd298 O306 2.277 . S
Cd298 O307 2.356 . S
C299 O304 1.209 . S
C299 O306 1.226 . S
O300 Cd296 2.273 . S
O300 Cd298 2.411 . S
O300 C303 1.320 . S
O301 Cd298 2.333 . S
O301 C303 1.214 . S
O302 Cd298 2.352 . S
O302 C305 1.258 . S
C303 O300 1.320 . S
C303 O301 1.214 . S
O304 Cd296 2.277 . S
O304 C299 1.209 . S
C305 O302 1.258 . S
C305 O307 1.282 . S
O306 Cd298 2.277 . S
O306 C299 1.226 . S
O307 Cd298 2.356 . S
O307 C305 1.282 . S
C308 O309 1.306 . S
C308 O311 1.160 . S
O309 C308 1.306 . S
O309 Cd310 2.228 . S
Cd310 O309 2.228 . S
Cd310 O314 2.273 . S
Cd310 O318 2.277 . S
O311 C308 1.160 . S
O311 Cd312 2.203 . S
Cd312 O311 2.203 . S
Cd312 O314 2.411 . S
Cd312 O315 2.333 . S
Cd312 O316 2.352 . S
Cd312 O320 2.277 . S
Cd312 O321 2.356 . S
C313 O318 1.209 . S
C313 O320 1.226 . S
O314 Cd310 2.273 . S
O314 Cd312 2.411 . S
O314 C317 1.320 . S
O315 Cd312 2.333 . S
O315 C317 1.214 . S
O316 Cd312 2.352 . S
O316 C319 1.258 . S
C317 O314 1.320 . S
C317 O315 1.214 . S
O318 Cd310 2.277 . S
O318 C313 1.209 . S
C319 O316 1.258 . S
C319 O321 1.282 . S
O320 Cd312 2.277 . S
O320 C313 1.226 . S
O321 Cd312 2.356 . S
O321 C319 1.282 . S
C322 O323 1.306 . S
C322 O325 1.160 . S
O323 C322 1.306 . S
O323 Cd324 2.228 . S
Cd324 O323 2.228 . S
Cd324 O328 2.273 . S
Cd324 O332 2.277 . S
O325 C322 1.160 . S
O325 Cd326 2.203 . S
Cd326 O325 2.203 . S
Cd326 O328 2.411 . S
Cd326 O329 2.333 . S
Cd326 O330 2.352 . S
Cd326 O334 2.277 . S
Cd326 O335 2.356 . S
C327 O332 1.209 . S
C327 O334 1.226 . S
O328 Cd324 2.273 . S
O328 Cd326 2.411 . S
O328 C331 1.320 . S
O329 Cd326 2.333 . S
O329 C331 1.214 . S
O330 Cd326 2.352 . S
O330 C333 1.258 . S
C331 O328 1.320 . S
C331 O329 1.214 . S
O332 Cd324 2.277 . S
O332 C327 1.209 . S
C333 O330 1.258 . S
C333 O335 1.282 . S
O334 Cd326 2.277 . S
O334 C327 1.226 . S
O335 Cd326 2.356 . S
O335 C333 1.282 . S
Fe336 O338 1.918 . S
Fe336 O341 1.997 . S
Fe336 O342 2.002 . S
Fe336 O347 1.976 . S
Fe336 O350 1.996 . S
Fe337 O338 1.918 . S
Fe337 O345 1.997 . S
Fe337 O348 1.996 . S
Fe337 O352 1.976 . S
Fe337 O355 2.002 . S
O338 Fe336 1.918 . S
O338 Fe337 1.918 . S
O338 Fe339 1.918 . S
Fe339 O338 1.918 . S
Fe339 O340 2.002 . S
Fe339 O349 1.976 . S
Fe339 O353 1.996 . S
Fe339 O356 1.997 . S
O340 Fe339 2.002 . S
O340 C357 1.295 . S
O341 Fe336 1.997 . S
O341 C357 1.235 . S
O342 Fe336 2.002 . S
O342 C343 1.295 . S
C343 O342 1.295 . S
C343 O345 1.235 . S
C344 O349 1.287 . S
C344 O350 1.255 . S
O345 Fe337 1.997 . S
O345 C343 1.235 . S
C346 O352 1.287 . S
C346 O353 1.255 . S
O347 Fe336 1.976 . S
O347 C354 1.287 . S
O348 Fe337 1.996 . S
O348 C354 1.255 . S
O349 Fe339 1.976 . S
O349 C344 1.287 . S
O350 Fe336 1.996 . S
O350 C344 1.255 . S
C351 O355 1.295 . S
C351 O356 1.235 . S
O352 Fe337 1.976 . S
O352 C346 1.287 . S
O353 Fe339 1.996 . S
O353 C346 1.255 . S
C354 O347 1.287 . S
C354 O348 1.255 . S
O355 Fe337 2.002 . S
O355 C351 1.295 . S
O356 Fe339 1.997 . S
O356 C351 1.235 . S
C357 O340 1.295 . S
C357 O341 1.235 . S
Fe358 O360 1.918 . S
Fe358 O363 1.997 . S
Fe358 O364 2.002 . S
Fe358 O369 1.976 . S
Fe358 O372 1.996 . S
Fe359 O360 1.918 . S
Fe359 O367 1.997 . S
Fe359 O370 1.996 . S
Fe359 O374 1.976 . S
Fe359 O377 2.002 . S
O360 Fe358 1.918 . S
O360 Fe359 1.918 . S
O360 Fe361 1.918 . S
Fe361 O360 1.918 . S
Fe361 O362 2.002 . S
Fe361 O371 1.976 . S
Fe361 O375 1.996 . S
Fe361 O378 1.997 . S
O362 Fe361 2.002 . S
O362 C379 1.295 . S
O363 Fe358 1.997 . S
O363 C379 1.235 . S
O364 Fe358 2.002 . S
O364 C365 1.295 . S
C365 O364 1.295 . S
C365 O367 1.235 . S
C366 O371 1.287 . S
C366 O372 1.255 . S
O367 Fe359 1.997 . S
O367 C365 1.235 . S
C368 O374 1.287 . S
C368 O375 1.255 . S
O369 Fe358 1.976 . S
O369 C376 1.287 . S
O370 Fe359 1.996 . S
O370 C376 1.255 . S
O371 Fe361 1.976 . S
O371 C366 1.287 . S
O372 Fe358 1.996 . S
O372 C366 1.255 . S
C373 O377 1.295 . S
C373 O378 1.235 . S
O374 Fe359 1.976 . S
O374 C368 1.287 . S
O375 Fe361 1.996 . S
O375 C368 1.255 . S
C376 O369 1.287 . S
C376 O370 1.255 . S
O377 Fe359 2.002 . S
O377 C373 1.295 . S
O378 Fe361 1.997 . S
O378 C373 1.235 . S
C379 O362 1.295 . S
C379 O363 1.235 . S
Fe380 O382 1.918 . S
Fe380 O385 1.997 . S
Fe380 O386 2.002 . S
Fe380 O391 1.976 . S
Fe380 O394 1.996 . S
Fe381 O382 1.918 . S
Fe381 O389 1.997 . S
Fe381 O392 1.996 . S
Fe381 O396 1.976 . S
Fe381 O399 2.002 . S
O382 Fe380 1.918 . S
O382 Fe381 1.918 . S
O382 Fe383 1.918 . S
Fe383 O382 1.918 . S
Fe383 O384 2.002 . S
Fe383 O393 1.976 . S
Fe383 O397 1.996 . S
Fe383 O400 1.997 . S
O384 Fe383 2.002 . S
O384 C401 1.295 . S
O385 Fe380 1.997 . S
O385 C401 1.235 . S
O386 Fe380 2.002 . S
O386 C387 1.295 . S
C387 O386 1.295 . S
C387 O389 1.235 . S
C388 O393 1.287 . S
C388 O394 1.255 . S
O389 Fe381 1.997 . S
O389 C387 1.235 . S
C390 O396 1.287 . S
C390 O397 1.255 . S
O391 Fe380 1.976 . S
O391 C398 1.287 . S
O392 Fe381 1.996 . S
O392 C398 1.255 . S
O393 Fe383 1.976 . S
O393 C388 1.287 . S
O394 Fe380 1.996 . S
O394 C388 1.255 . S
C395 O399 1.295 . S
C395 O400 1.235 . S
O396 Fe381 1.976 . S
O396 C390 1.287 . S
O397 Fe383 1.996 . S
O397 C390 1.255 . S
C398 O391 1.287 . S
C398 O392 1.255 . S
O399 Fe381 2.002 . S
O399 C395 1.295 . S
O400 Fe383 1.997 . S
O400 C395 1.235 . S
C401 O384 1.295 . S
C401 O385 1.235 . S
Fe402 O404 1.918 . S
Fe402 O407 1.997 . S
Fe402 O408 2.002 . S
Fe402 O413 1.976 . S
Fe402 O416 1.996 . S
Fe403 O404 1.918 . S
Fe403 O411 1.997 . S
Fe403 O414 1.996 . S
Fe403 O418 1.976 . S
Fe403 O421 2.002 . S
O404 Fe402 1.918 . S
O404 Fe403 1.918 . S
O404 Fe405 1.918 . S
Fe405 O404 1.918 . S
Fe405 O406 2.002 . S
Fe405 O415 1.976 . S
Fe405 O419 1.996 . S
Fe405 O422 1.997 . S
O406 Fe405 2.002 . S
O406 C423 1.295 . S
O407 Fe402 1.997 . S
O407 C423 1.235 . S
O408 Fe402 2.002 . S
O408 C409 1.295 . S
C409 O408 1.295 . S
C409 O411 1.235 . S
C410 O415 1.287 . S
C410 O416 1.255 . S
O411 Fe403 1.997 . S
O411 C409 1.235 . S
C412 O418 1.287 . S
C412 O419 1.255 . S
O413 Fe402 1.976 . S
O413 C420 1.287 . S
O414 Fe403 1.996 . S
O414 C420 1.255 . S
O415 Fe405 1.976 . S
O415 C410 1.287 . S
O416 Fe402 1.996 . S
O416 C410 1.255 . S
C417 O421 1.295 . S
C417 O422 1.235 . S
O418 Fe403 1.976 . S
O418 C412 1.287 . S
O419 Fe405 1.996 . S
O419 C412 1.255 . S
C420 O413 1.287 . S
C420 O414 1.255 . S
O421 Fe403 2.002 . S
O421 C417 1.295 . S
O422 Fe405 1.997 . S
O422 C417 1.235 . S
C423 O406 1.295 . S
C423 O407 1.235 . S
Fe424 O426 1.918 . S
Fe424 O429 1.997 . S
Fe424 O430 2.002 . S
Fe424 O435 1.976 . S
Fe424 O438 1.996 . S
Fe425 O426 1.918 . S
Fe425 O433 1.997 . S
Fe425 O436 1.996 . S
Fe425 O440 1.976 . S
Fe425 O443 2.002 . S
O426 Fe424 1.918 . S
O426 Fe425 1.918 . S
O426 Fe427 1.918 . S
Fe427 O426 1.918 . S
Fe427 O428 2.002 . S
Fe427 O437 1.976 . S
Fe427 O441 1.996 . S
Fe427 O444 1.997 . S
O428 Fe427 2.002 . S
O428 C445 1.295 . S
O429 Fe424 1.997 . S
O429 C445 1.235 . S
O430 Fe424 2.002 . S
O430 C431 1.295 . S
C431 O430 1.295 . S
C431 O433 1.235 . S
C432 O437 1.287 . S
C432 O438 1.255 . S
O433 Fe425 1.997 . S
O433 C431 1.235 . S
C434 O440 1.287 . S
C434 O441 1.255 . S
O435 Fe424 1.976 . S
O435 C442 1.287 . S
O436 Fe425 1.996 . S
O436 C442 1.255 . S
O437 Fe427 1.976 . S
O437 C432 1.287 . S
O438 Fe424 1.996 . S
O438 C432 1.255 . S
C439 O443 1.295 . S
C439 O444 1.235 . S
O440 Fe425 1.976 . S
O440 C434 1.287 . S
O441 Fe427 1.996 . S
O441 C434 1.255 . S
C442 O435 1.287 . S
C442 O436 1.255 . S
O443 Fe425 2.002 . S
O443 C439 1.295 . S
O444 Fe427 1.997 . S
O444 C439 1.235 . S
C445 O428 1.295 . S
C445 O429 1.235 . S
Fe446 O448 1.918 . S
Fe446 O451 1.997 . S
Fe446 O452 2.002 . S
Fe446 O457 1.976 . S
Fe446 O460 1.996 . S
Fe447 O448 1.918 . S
Fe447 O455 1.997 . S
Fe447 O458 1.996 . S
Fe447 O462 1.976 . S
Fe447 O465 2.002 . S
O448 Fe446 1.918 . S
O448 Fe447 1.918 . S
O448 Fe449 1.918 . S
Fe449 O448 1.918 . S
Fe449 O450 2.002 . S
Fe449 O459 1.976 . S
Fe449 O463 1.996 . S
Fe449 O466 1.997 . S
O450 Fe449 2.002 . S
O450 C467 1.295 . S
O451 Fe446 1.997 . S
O451 C467 1.235 . S
O452 Fe446 2.002 . S
O452 C453 1.295 . S
C453 O452 1.295 . S
C453 O455 1.235 . S
C454 O459 1.287 . S
C454 O460 1.255 . S
O455 Fe447 1.997 . S
O455 C453 1.235 . S
C456 O462 1.287 . S
C456 O463 1.255 . S
O457 Fe446 1.976 . S
O457 C464 1.287 . S
O458 Fe447 1.996 . S
O458 C464 1.255 . S
O459 Fe449 1.976 . S
O459 C454 1.287 . S
O460 Fe446 1.996 . S
O460 C454 1.255 . S
C461 O465 1.295 . S
C461 O466 1.235 . S
O462 Fe447 1.976 . S
O462 C456 1.287 . S
O463 Fe449 1.996 . S
O463 C456 1.255 . S
C464 O457 1.287 . S
C464 O458 1.255 . S
O465 Fe447 2.002 . S
O465 C461 1.295 . S
O466 Fe449 1.997 . S
O466 C461 1.235 . S
C467 O450 1.295 . S
C467 O451 1.235 . S
Fe468 O470 1.918 . S
Fe468 O473 1.997 . S
Fe468 O474 2.002 . S
Fe468 O479 1.976 . S
Fe468 O482 1.996 . S
Fe469 O470 1.918 . S
Fe469 O477 1.997 . S
Fe469 O480 1.996 . S
Fe469 O484 1.976 . S
Fe469 O487 2.002 . S
O470 Fe468 1.918 . S
O470 Fe469 1.918 . S
O470 Fe471 1.918 . S
Fe471 O470 1.918 . S
Fe471 O472 2.002 . S
Fe471 O481 1.976 . S
Fe471 O485 1.996 . S
Fe471 O488 1.997 . S
O472 Fe471 2.002 . S
O472 C489 1.295 . S
O473 Fe468 1.997 . S
O473 C489 1.235 . S
O474 Fe468 2.002 . S
O474 C475 1.295 . S
C475 O474 1.295 . S
C475 O477 1.235 . S
C476 O481 1.287 . S
C476 O482 1.255 . S
O477 Fe469 1.997 . S
O477 C475 1.235 . S
C478 O484 1.287 . S
C478 O485 1.255 . S
O479 Fe468 1.976 . S
O479 C486 1.287 . S
O480 Fe469 1.996 . S
O480 C486 1.255 . S
O481 Fe471 1.976 . S
O481 C476 1.287 . S
O482 Fe468 1.996 . S
O482 C476 1.255 . S
C483 O487 1.295 . S
C483 O488 1.235 . S
O484 Fe469 1.976 . S
O484 C478 1.287 . S
O485 Fe471 1.996 . S
O485 C478 1.255 . S
C486 O479 1.287 . S
C486 O480 1.255 . S
O487 Fe469 2.002 . S
O487 C483 1.295 . S
O488 Fe471 1.997 . S
O488 C483 1.235 . S
C489 O472 1.295 . S
C489 O473 1.235 . S
Fe490 O492 1.918 . S
Fe490 O495 1.997 . S
Fe490 O496 2.002 . S
Fe490 O501 1.976 . S
Fe490 O504 1.996 . S
Fe491 O492 1.918 . S
Fe491 O499 1.997 . S
Fe491 O502 1.996 . S
Fe491 O506 1.976 . S
Fe491 O509 2.002 . S
O492 Fe490 1.918 . S
O492 Fe491 1.918 . S
O492 Fe493 1.918 . S
Fe493 O492 1.918 . S
Fe493 O494 2.002 . S
Fe493 O503 1.976 . S
Fe493 O507 1.996 . S
Fe493 O510 1.997 . S
O494 Fe493 2.002 . S
O494 C511 1.295 . S
O495 Fe490 1.997 . S
O495 C511 1.235 . S
O496 Fe490 2.002 . S
O496 C497 1.295 . S
C497 O496 1.295 . S
C497 O499 1.235 . S
C498 O503 1.287 . S
C498 O504 1.255 . S
O499 Fe491 1.997 . S
O499 C497 1.235 . S
C500 O506 1.287 . S
C500 O507 1.255 . S
O501 Fe490 1.976 . S
O501 C508 1.287 . S
O502 Fe491 1.996 . S
O502 C508 1.255 . S
O503 Fe493 1.976 . S
O503 C498 1.287 . S
O504 Fe490 1.996 . S
O504 C498 1.255 . S
C505 O509 1.295 . S
C505 O510 1.235 . S
O506 Fe491 1.976 . S
O506 C500 1.287 . S
O507 Fe493 1.996 . S
O507 C500 1.255 . S
C508 O501 1.287 . S
C508 O502 1.255 . S
O509 Fe491 2.002 . S
O509 C505 1.295 . S
O510 Fe493 1.997 . S
O510 C505 1.235 . S
C511 O494 1.295 . S
C511 O495 1.235 . S
Fe512 O514 1.918 . S
Fe512 O517 1.997 . S
Fe512 O518 2.002 . S
Fe512 O523 1.976 . S
Fe512 O526 1.996 . S
Fe513 O514 1.918 . S
Fe513 O521 1.997 . S
Fe513 O524 1.996 . S
Fe513 O528 1.976 . S
Fe513 O531 2.002 . S
O514 Fe512 1.918 . S
O514 Fe513 1.918 . S
O514 Fe515 1.918 . S
Fe515 O514 1.918 . S
Fe515 O516 2.002 . S
Fe515 O525 1.976 . S
Fe515 O529 1.996 . S
Fe515 O532 1.997 . S
O516 Fe515 2.002 . S
O516 C533 1.295 . S
O517 Fe512 1.997 . S
O517 C533 1.235 . S
O518 Fe512 2.002 . S
O518 C519 1.295 . S
C519 O518 1.295 . S
C519 O521 1.235 . S
C520 O525 1.287 . S
C520 O526 1.255 . S
O521 Fe513 1.997 . S
O521 C519 1.235 . S
C522 O528 1.287 . S
C522 O529 1.255 . S
O523 Fe512 1.976 . S
O523 C530 1.287 . S
O524 Fe513 1.996 . S
O524 C530 1.255 . S
O525 Fe515 1.976 . S
O525 C520 1.287 . S
O526 Fe512 1.996 . S
O526 C520 1.255 . S
C527 O531 1.295 . S
C527 O532 1.235 . S
O528 Fe513 1.976 . S
O528 C522 1.287 . S
O529 Fe515 1.996 . S
O529 C522 1.255 . S
C530 O523 1.287 . S
C530 O524 1.255 . S
O531 Fe513 2.002 . S
O531 C527 1.295 . S
O532 Fe515 1.997 . S
O532 C527 1.235 . S
C533 O516 1.295 . S
C533 O517 1.235 . S
Fe534 O536 1.918 . S
Fe534 O539 1.997 . S
Fe534 O540 2.002 . S
Fe534 O545 1.976 . S
Fe534 O548 1.996 . S
Fe535 O536 1.918 . S
Fe535 O543 1.997 . S
Fe535 O546 1.996 . S
Fe535 O550 1.976 . S
Fe535 O553 2.002 . S
O536 Fe534 1.918 . S
O536 Fe535 1.918 . S
O536 Fe537 1.918 . S
Fe537 O536 1.918 . S
Fe537 O538 2.002 . S
Fe537 O547 1.976 . S
Fe537 O551 1.996 . S
Fe537 O554 1.997 . S
O538 Fe537 2.002 . S
O538 C555 1.295 . S
O539 Fe534 1.997 . S
O539 C555 1.235 . S
O540 Fe534 2.002 . S
O540 C541 1.295 . S
C541 O540 1.295 . S
C541 O543 1.235 . S
C542 O547 1.287 . S
C542 O548 1.255 . S
O543 Fe535 1.997 . S
O543 C541 1.235 . S
C544 O550 1.287 . S
C544 O551 1.255 . S
O545 Fe534 1.976 . S
O545 C552 1.287 . S
O546 Fe535 1.996 . S
O546 C552 1.255 . S
O547 Fe537 1.976 . S
O547 C542 1.287 . S
O548 Fe534 1.996 . S
O548 C542 1.255 . S
C549 O553 1.295 . S
C549 O554 1.235 . S
O550 Fe535 1.976 . S
O550 C544 1.287 . S
O551 Fe537 1.996 . S
O551 C544 1.255 . S
C552 O545 1.287 . S
C552 O546 1.255 . S
O553 Fe535 2.002 . S
O553 C549 1.295 . S
O554 Fe537 1.997 . S
O554 C549 1.235 . S
C555 O538 1.295 . S
C555 O539 1.235 . S
Fe556 O558 1.918 . S
Fe556 O561 1.997 . S
Fe556 O562 2.002 . S
Fe556 O567 1.976 . S
Fe556 O570 1.996 . S
Fe557 O558 1.918 . S
Fe557 O565 1.997 . S
Fe557 O568 1.996 . S
Fe557 O572 1.976 . S
Fe557 O575 2.002 . S
O558 Fe556 1.918 . S
O558 Fe557 1.918 . S
O558 Fe559 1.918 . S
Fe559 O558 1.918 . S
Fe559 O560 2.002 . S
Fe559 O569 1.976 . S
Fe559 O573 1.996 . S
Fe559 O576 1.997 . S
O560 Fe559 2.002 . S
O560 C577 1.295 . S
O561 Fe556 1.997 . S
O561 C577 1.235 . S
O562 Fe556 2.002 . S
O562 C563 1.295 . S
C563 O562 1.295 . S
C563 O565 1.235 . S
C564 O569 1.287 . S
C564 O570 1.255 . S
O565 Fe557 1.997 . S
O565 C563 1.235 . S
C566 O572 1.287 . S
C566 O573 1.255 . S
O567 Fe556 1.976 . S
O567 C574 1.287 . S
O568 Fe557 1.996 . S
O568 C574 1.255 . S
O569 Fe559 1.976 . S
O569 C564 1.287 . S
O570 Fe556 1.996 . S
O570 C564 1.255 . S
C571 O575 1.295 . S
C571 O576 1.235 . S
O572 Fe557 1.976 . S
O572 C566 1.287 . S
O573 Fe559 1.996 . S
O573 C566 1.255 . S
C574 O567 1.287 . S
C574 O568 1.255 . S
O575 Fe557 2.002 . S
O575 C571 1.295 . S
O576 Fe559 1.997 . S
O576 C571 1.235 . S
C577 O560 1.295 . S
C577 O561 1.235 . S
Fe578 O580 1.918 . S
Fe578 O583 1.997 . S
Fe578 O584 2.002 . S
Fe578 O589 1.976 . S
Fe578 O592 1.996 . S
Fe579 O580 1.918 . S
Fe579 O587 1.997 . S
Fe579 O590 1.996 . S
Fe579 O594 1.976 . S
Fe579 O597 2.002 . S
O580 Fe578 1.918 . S
O580 Fe579 1.918 . S
O580 Fe581 1.918 . S
Fe581 O580 1.918 . S
Fe581 O582 2.002 . S
Fe581 O591 1.976 . S
Fe581 O595 1.996 . S
Fe581 O598 1.997 . S
O582 Fe581 2.002 . S
O582 C599 1.295 . S
O583 Fe578 1.997 . S
O583 C599 1.235 . S
O584 Fe578 2.002 . S
O584 C585 1.295 . S
C585 O584 1.295 . S
C585 O587 1.235 . S
C586 O591 1.287 . S
C586 O592 1.255 . S
O587 Fe579 1.997 . S
O587 C585 1.235 . S
C588 O594 1.287 . S
C588 O595 1.255 . S
O589 Fe578 1.976 . S
O589 C596 1.287 . S
O590 Fe579 1.996 . S
O590 C596 1.255 . S
O591 Fe581 1.976 . S
O591 C586 1.287 . S
O592 Fe578 1.996 . S
O592 C586 1.255 . S
C593 O597 1.295 . S
C593 O598 1.235 . S
O594 Fe579 1.976 . S
O594 C588 1.287 . S
O595 Fe581 1.996 . S
O595 C588 1.255 . S
C596 O589 1.287 . S
C596 O590 1.255 . S
O597 Fe579 2.002 . S
O597 C593 1.295 . S
O598 Fe581 1.997 . S
O598 C593 1.235 . S
C599 O582 1.295 . S
C599 O583 1.235 . S
Fe600 O602 1.918 . S
Fe600 O605 1.997 . S
Fe600 O606 2.002 . S
Fe600 O611 1.976 . S
Fe600 O614 1.996 . S
Fe601 O602 1.918 . S
Fe601 O609 1.997 . S
Fe601 O612 1.996 . S
Fe601 O616 1.976 . S
Fe601 O619 2.002 . S
O602 Fe600 1.918 . S
O602 Fe601 1.918 . S
O602 Fe603 1.918 . S
Fe603 O602 1.918 . S
Fe603 O604 2.002 . S
Fe603 O613 1.976 . S
Fe603 O617 1.996 . S
Fe603 O620 1.997 . S
O604 Fe603 2.002 . S
O604 C621 1.295 . S
O605 Fe600 1.997 . S
O605 C621 1.235 . S
O606 Fe600 2.002 . S
O606 C607 1.295 . S
C607 O606 1.295 . S
C607 O609 1.235 . S
C608 O613 1.287 . S
C608 O614 1.255 . S
O609 Fe601 1.997 . S
O609 C607 1.235 . S
C610 O616 1.287 . S
C610 O617 1.255 . S
O611 Fe600 1.976 . S
O611 C618 1.287 . S
O612 Fe601 1.996 . S
O612 C618 1.255 . S
O613 Fe603 1.976 . S
O613 C608 1.287 . S
O614 Fe600 1.996 . S
O614 C608 1.255 . S
C615 O619 1.295 . S
C615 O620 1.235 . S
O616 Fe601 1.976 . S
O616 C610 1.287 . S
O617 Fe603 1.996 . S
O617 C610 1.255 . S
C618 O611 1.287 . S
C618 O612 1.255 . S
O619 Fe601 2.002 . S
O619 C615 1.295 . S
O620 Fe603 1.997 . S
O620 C615 1.235 . S
C621 O604 1.295 . S
C621 O605 1.235 . S
Fe622 O624 1.918 . S
Fe622 O627 1.997 . S
Fe622 O628 2.002 . S
Fe622 O633 1.976 . S
Fe622 O636 1.996 . S
Fe623 O624 1.918 . S
Fe623 O631 1.997 . S
Fe623 O634 1.996 . S
Fe623 O638 1.976 . S
Fe623 O641 2.002 . S
O624 Fe622 1.918 . S
O624 Fe623 1.918 . S
O624 Fe625 1.918 . S
Fe625 O624 1.918 . S
Fe625 O626 2.002 . S
Fe625 O635 1.976 . S
Fe625 O639 1.996 . S
Fe625 O642 1.997 . S
O626 Fe625 2.002 . S
O626 C643 1.295 . S
O627 Fe622 1.997 . S
O627 C643 1.235 . S
O628 Fe622 2.002 . S
O628 C629 1.295 . S
C629 O628 1.295 . S
C629 O631 1.235 . S
C630 O635 1.287 . S
C630 O636 1.255 . S
O631 Fe623 1.997 . S
O631 C629 1.235 . S
C632 O638 1.287 . S
C632 O639 1.255 . S
O633 Fe622 1.976 . S
O633 C640 1.287 . S
O634 Fe623 1.996 . S
O634 C640 1.255 . S
O635 Fe625 1.976 . S
O635 C630 1.287 . S
O636 Fe622 1.996 . S
O636 C630 1.255 . S
C637 O641 1.295 . S
C637 O642 1.235 . S
O638 Fe623 1.976 . S
O638 C632 1.287 . S
O639 Fe625 1.996 . S
O639 C632 1.255 . S
C640 O633 1.287 . S
C640 O634 1.255 . S
O641 Fe623 2.002 . S
O641 C637 1.295 . S
O642 Fe625 1.997 . S
O642 C637 1.235 . S
C643 O626 1.295 . S
C643 O627 1.235 . S
Fe644 O646 1.918 . S
Fe644 O649 1.997 . S
Fe644 O650 2.002 . S
Fe644 O655 1.976 . S
Fe644 O658 1.996 . S
Fe645 O646 1.918 . S
Fe645 O653 1.997 . S
Fe645 O656 1.996 . S
Fe645 O660 1.976 . S
Fe645 O663 2.002 . S
O646 Fe644 1.918 . S
O646 Fe645 1.918 . S
O646 Fe647 1.918 . S
Fe647 O646 1.918 . S
Fe647 O648 2.002 . S
Fe647 O657 1.976 . S
Fe647 O661 1.996 . S
Fe647 O664 1.997 . S
O648 Fe647 2.002 . S
O648 C665 1.295 . S
O649 Fe644 1.997 . S
O649 C665 1.235 . S
O650 Fe644 2.002 . S
O650 C651 1.295 . S
C651 O650 1.295 . S
C651 O653 1.235 . S
C652 O657 1.287 . S
C652 O658 1.255 . S
O653 Fe645 1.997 . S
O653 C651 1.235 . S
C654 O660 1.287 . S
C654 O661 1.255 . S
O655 Fe644 1.976 . S
O655 C662 1.287 . S
O656 Fe645 1.996 . S
O656 C662 1.255 . S
O657 Fe647 1.976 . S
O657 C652 1.287 . S
O658 Fe644 1.996 . S
O658 C652 1.255 . S
C659 O663 1.295 . S
C659 O664 1.235 . S
O660 Fe645 1.976 . S
O660 C654 1.287 . S
O661 Fe647 1.996 . S
O661 C654 1.255 . S
C662 O655 1.287 . S
C662 O656 1.255 . S
O663 Fe645 2.002 . S
O663 C659 1.295 . S
O664 Fe647 1.997 . S
O664 C659 1.235 . S
C665 O648 1.295 . S
C665 O649 1.235 . S
Fe666 O668 1.918 . S
Fe666 O671 1.997 . S
Fe666 O672 2.002 . S
Fe666 O677 1.976 . S
Fe666 O680 1.996 . S
Fe667 O668 1.918 . S
Fe667 O675 1.997 . S
Fe667 O678 1.996 . S
Fe667 O682 1.976 . S
Fe667 O685 2.002 . S
O668 Fe666 1.918 . S
O668 Fe667 1.918 . S
O668 Fe669 1.918 . S
Fe669 O668 1.918 . S
Fe669 O670 2.002 . S
Fe669 O679 1.976 . S
Fe669 O683 1.996 . S
Fe669 O686 1.997 . S
O670 Fe669 2.002 . S
O670 C687 1.295 . S
O671 Fe666 1.997 . S
O671 C687 1.235 . S
O672 Fe666 2.002 . S
O672 C673 1.295 . S
C673 O672 1.295 . S
C673 O675 1.235 . S
C674 O679 1.287 . S
C674 O680 1.255 . S
O675 Fe667 1.997 . S
O675 C673 1.235 . S
C676 O682 1.287 . S
C676 O683 1.255 . S
O677 Fe666 1.976 . S
O677 C684 1.287 . S
O678 Fe667 1.996 . S
O678 C684 1.255 . S
O679 Fe669 1.976 . S
O679 C674 1.287 . S
O680 Fe666 1.996 . S
O680 C674 1.255 . S
C681 O685 1.295 . S
C681 O686 1.235 . S
O682 Fe667 1.976 . S
O682 C676 1.287 . S
O683 Fe669 1.996 . S
O683 C676 1.255 . S
C684 O677 1.287 . S
C684 O678 1.255 . S
O685 Fe667 2.002 . S
O685 C681 1.295 . S
O686 Fe669 1.997 . S
O686 C681 1.235 . S
C687 O670 1.295 . S
C687 O671 1.235 . S
H688 C706 0.951 . S
H689 C708 0.951 . S
H690 C710 0.950 . S
H691 C711 0.950 . S
H692 C713 0.950 . S
H693 C716 0.950 . S
H694 C717 0.950 . S
H695 C719 0.950 . S
H696 C720 0.950 . S
H697 C721 0.951 . S
H698 C723 0.951 . S
H699 C725 0.950 . S
H700 C726 0.950 . S
H701 C728 0.950 . S
H702 C731 0.950 . S
H703 C732 0.950 . S
H704 C734 0.950 . S
H705 C735 0.950 . S
C706 H688 0.951 . S
C706 C707 1.366 . S
C706 C708 1.388 . S
C707 C706 1.366 . S
C707 C711 1.385 . S
C708 H689 0.951 . S
C708 C706 1.388 . S
C708 C709 1.366 . S
C709 C708 1.366 . S
C709 C710 1.414 . S
C709 C712 1.499 . S
C710 H690 0.950 . S
C710 C709 1.414 . S
C710 C711 1.374 . S
C711 H691 0.950 . S
C711 C707 1.385 . S
C711 C710 1.374 . S
C712 C709 1.499 . S
C712 C713 1.373 . S
C712 C714 1.389 . S
C713 H692 0.950 . S
C713 C712 1.373 . S
C713 C729 1.377 . S
C714 C712 1.389 . S
C714 C715 1.524 . S
C714 C728 1.377 . S
C715 C714 1.524 . S
C715 C716 1.397 . S
C715 C720 1.363 . S
C716 H693 0.950 . S
C716 C715 1.397 . S
C716 C717 1.334 1_455 S
C717 H694 0.950 . S
C717 C716 1.334 1_655 S
C717 C718 1.287 . S
C718 C717 1.287 . S
C718 C719 1.524 . S
C718 H737 0.913 . S
C719 H695 0.950 . S
C719 C718 1.524 . S
C719 C720 1.415 1_655 S
C720 H696 0.950 . S
C720 C715 1.363 . S
C720 C719 1.415 1_455 S
C721 H697 0.951 . S
C721 C722 1.366 . S
C721 C723 1.388 . S
C722 C721 1.366 . S
C722 C726 1.385 . S
C723 H698 0.951 . S
C723 C721 1.388 . S
C723 C724 1.366 . S
C724 C723 1.366 . S
C724 C725 1.414 . S
C724 C727 1.499 . S
C725 H699 0.950 . S
C725 C724 1.414 . S
C725 C726 1.374 . S
C726 H700 0.950 . S
C726 C722 1.385 . S
C726 C725 1.374 . S
C727 C724 1.499 . S
C727 C728 1.373 . S
C727 C729 1.389 . S
C728 H701 0.950 . S
C728 C714 1.377 . S
C728 C727 1.373 . S
C729 C713 1.377 . S
C729 C727 1.389 . S
C729 C730 1.524 . S
C730 C729 1.524 . S
C730 C731 1.397 . S
C730 C735 1.363 . S
C731 H702 0.950 . S
C731 C730 1.397 . S
C731 C732 1.334 . S
C732 H703 0.950 . S
C732 C731 1.334 . S
C732 C733 1.287 . S
C733 C732 1.287 . S
C733 C734 1.524 . S
C733 H736 0.999 . S
C734 H704 0.950 . S
C734 C733 1.524 . S
C734 C735 1.415 . S
C735 H705 0.950 . S
C735 C730 1.363 . S
C735 C734 1.415 . S
H736 C733 0.999 . S
H737 C718 0.913 . S
H738 C756 0.951 . S
H739 C758 0.951 . S
H740 C760 0.950 . S
H741 C761 0.950 . S
H742 C763 0.950 . S
H743 C766 0.950 . S
H744 C767 0.950 . S
H745 C769 0.950 . S
H746 C770 0.950 . S
H747 C771 0.951 . S
H748 C773 0.951 . S
H749 C775 0.950 . S
H750 C776 0.950 . S
H751 C778 0.950 . S
H752 C781 0.950 . S
H753 C782 0.950 . S
H754 C784 0.950 . S
H755 C785 0.950 . S
C756 H738 0.951 . S
C756 C757 1.366 . S
C756 C758 1.388 . S
C757 C756 1.366 . S
C757 C761 1.385 . S
C758 H739 0.951 . S
C758 C756 1.388 . S
C758 C759 1.366 . S
C759 C758 1.366 . S
C759 C760 1.414 . S
C759 C762 1.499 . S
C760 H740 0.950 . S
C760 C759 1.414 . S
C760 C761 1.374 . S
C761 H741 0.950 . S
C761 C757 1.385 . S
C761 C760 1.374 . S
C762 C759 1.499 . S
C762 C763 1.373 . S
C762 C764 1.389 . S
C763 H742 0.950 . S
C763 C762 1.373 . S
C763 C779 1.377 . S
C764 C762 1.389 . S
C764 C765 1.524 . S
C764 C778 1.377 . S
C765 C764 1.524 . S
C765 C766 1.397 . S
C765 C770 1.363 . S
C766 H743 0.950 . S
C766 C765 1.397 . S
C766 C767 1.334 . S
C767 H744 0.950 . S
C767 C766 1.334 . S
C767 C768 1.287 . S
C768 C767 1.287 . S
C768 C769 1.524 . S
C768 H787 0.913 . S
C769 H745 0.950 . S
C769 C768 1.524 . S
C769 C770 1.415 . S
C770 H746 0.950 . S
C770 C765 1.363 . S
C770 C769 1.415 . S
C771 H747 0.951 . S
C771 C772 1.366 . S
C771 C773 1.388 . S
C772 C771 1.366 . S
C772 C776 1.385 . S
C773 H748 0.951 . S
C773 C771 1.388 . S
C773 C774 1.366 . S
C774 C773 1.366 . S
C774 C775 1.414 . S
C774 C777 1.499 . S
C775 H749 0.950 . S
C775 C774 1.414 . S
C775 C776 1.374 . S
C776 H750 0.950 . S
C776 C772 1.385 . S
C776 C775 1.374 . S
C777 C774 1.499 . S
C777 C778 1.373 . S
C777 C779 1.389 . S
C778 H751 0.950 . S
C778 C764 1.377 . S
C778 C777 1.373 . S
C779 C763 1.377 . S
C779 C777 1.389 . S
C779 C780 1.524 . S
C780 C779 1.524 . S
C780 C781 1.397 . S
C780 C785 1.363 . S
C781 H752 0.950 . S
C781 C780 1.397 . S
C781 C782 1.334 . S
C782 H753 0.950 . S
C782 C781 1.334 . S
C782 C783 1.287 . S
C783 C782 1.287 . S
C783 C784 1.524 . S
C783 H786 0.999 . S
C784 H754 0.950 . S
C784 C783 1.524 . S
C784 C785 1.415 . S
C785 H755 0.950 . S
C785 C780 1.363 . S
C785 C784 1.415 . S
H786 C783 0.999 . S
H787 C768 0.913 . S
H788 C806 0.951 . S
H789 C808 0.951 . S
H790 C810 0.950 . S
H791 C811 0.950 . S
H792 C813 0.950 . S
H793 C816 0.950 . S
H794 C817 0.950 . S
H795 C819 0.950 . S
H796 C820 0.950 . S
H797 C821 0.951 . S
H798 C823 0.951 . S
H799 C825 0.950 . S
H800 C826 0.950 . S
H801 C828 0.950 . S
H802 C831 0.950 . S
H803 C832 0.950 . S
H804 C834 0.950 . S
H805 C835 0.950 . S
C806 H788 0.951 . S
C806 C807 1.366 . S
C806 C808 1.388 . S
C807 C806 1.366 . S
C807 C811 1.385 . S
C808 H789 0.951 . S
C808 C806 1.388 . S
C808 C809 1.366 . S
C809 C808 1.366 . S
C809 C810 1.414 . S
C809 C812 1.499 . S
C810 H790 0.950 . S
C810 C809 1.414 . S
C810 C811 1.374 . S
C811 H791 0.950 . S
C811 C807 1.385 . S
C811 C810 1.374 . S
C812 C809 1.499 . S
C812 C813 1.373 . S
C812 C814 1.389 . S
C813 H792 0.950 . S
C813 C812 1.373 . S
C813 C829 1.377 . S
C814 C812 1.389 . S
C814 C815 1.524 . S
C814 C828 1.377 . S
C815 C814 1.524 . S
C815 C816 1.397 . S
C815 C820 1.363 . S
C816 H793 0.950 . S
C816 C815 1.397 . S
C816 C817 1.334 . S
C817 H794 0.950 . S
C817 C816 1.334 . S
C817 C818 1.287 . S
C818 C817 1.287 . S
C818 C819 1.524 . S
C818 H837 0.913 . S
C819 H795 0.950 . S
C819 C818 1.524 . S
C819 C820 1.415 . S
C820 H796 0.950 . S
C820 C815 1.363 . S
C820 C819 1.415 . S
C821 H797 0.951 . S
C821 C822 1.366 . S
C821 C823 1.388 . S
C822 C821 1.366 . S
C822 C826 1.385 . S
C823 H798 0.951 . S
C823 C821 1.388 . S
C823 C824 1.366 . S
C824 C823 1.366 . S
C824 C825 1.414 . S
C824 C827 1.499 . S
C825 H799 0.950 . S
C825 C824 1.414 . S
C825 C826 1.374 . S
C826 H800 0.950 . S
C826 C822 1.385 . S
C826 C825 1.374 . S
C827 C824 1.499 . S
C827 C828 1.373 . S
C827 C829 1.389 . S
C828 H801 0.950 . S
C828 C814 1.377 . S
C828 C827 1.373 . S
C829 C813 1.377 . S
C829 C827 1.389 . S
C829 C830 1.524 . S
C830 C829 1.524 . S
C830 C831 1.397 . S
C830 C835 1.363 . S
C831 H802 0.950 . S
C831 C830 1.397 . S
C831 C832 1.334 . S
C832 H803 0.950 . S
C832 C831 1.334 . S
C832 C833 1.287 . S
C833 C832 1.287 . S
C833 C834 1.524 . S
C833 H836 0.999 . S
C834 H804 0.950 . S
C834 C833 1.524 . S
C834 C835 1.415 . S
C835 H805 0.950 . S
C835 C830 1.363 . S
C835 C834 1.415 . S
H836 C833 0.999 . S
H837 C818 0.913 . S
H838 C856 0.951 . S
H839 C858 0.951 . S
H840 C860 0.950 . S
H841 C861 0.950 . S
H842 C863 0.950 . S
H843 C866 0.950 . S
H844 C867 0.950 . S
H845 C869 0.950 . S
H846 C870 0.950 . S
H847 C871 0.951 . S
H848 C873 0.951 . S
H849 C875 0.950 . S
H850 C876 0.950 . S
H851 C878 0.950 . S
H852 C881 0.950 . S
H853 C882 0.950 . S
H854 C884 0.950 . S
H855 C885 0.950 . S
C856 H838 0.951 . S
C856 C857 1.366 . S
C856 C858 1.388 . S
C857 C856 1.366 . S
C857 C861 1.385 . S
C858 H839 0.951 . S
C858 C856 1.388 . S
C858 C859 1.366 . S
C859 C858 1.366 . S
C859 C860 1.414 . S
C859 C862 1.499 . S
C860 H840 0.950 . S
C860 C859 1.414 . S
C860 C861 1.374 . S
C861 H841 0.950 . S
C861 C857 1.385 . S
C861 C860 1.374 . S
C862 C859 1.499 . S
C862 C863 1.373 . S
C862 C864 1.389 . S
C863 H842 0.950 . S
C863 C862 1.373 . S
C863 C879 1.379 1_554 S
C864 C862 1.389 . S
C864 C865 1.524 . S
C864 C878 1.377 . S
C865 C864 1.524 . S
C865 C866 1.397 . S
C865 C870 1.363 . S
C866 H843 0.950 . S
C866 C865 1.397 . S
C866 C867 1.334 . S
C867 H844 0.950 . S
C867 C866 1.334 . S
C867 C868 1.287 . S
C868 C867 1.287 . S
C868 C869 1.524 . S
C868 H887 0.913 . S
C869 H845 0.950 . S
C869 C868 1.524 . S
C869 C870 1.415 . S
C870 H846 0.950 . S
C870 C865 1.363 . S
C870 C869 1.415 . S
C871 H847 0.951 . S
C871 C872 1.366 . S
C871 C873 1.388 . S
C872 C871 1.366 . S
C872 C876 1.385 . S
C873 H848 0.951 . S
C873 C871 1.388 . S
C873 C874 1.366 . S
C874 C873 1.366 . S
C874 C875 1.414 . S
C874 C877 1.456 1_556 S
C875 H849 0.950 . S
C875 C874 1.414 . S
C875 C876 1.374 . S
C876 H850 0.950 . S
C876 C872 1.385 . S
C876 C875 1.374 . S
C877 C874 1.456 1_554 S
C877 C878 1.420 . S
C877 C879 1.388 1_554 S
C878 H851 0.950 . S
C878 C864 1.377 . S
C878 C877 1.420 . S
C879 C863 1.379 1_556 S
C879 C877 1.388 1_556 S
C879 C880 1.522 . S
C880 C879 1.522 . S
C880 C881 1.397 . S
C880 C885 1.363 . S
C881 H852 0.950 . S
C881 C880 1.397 . S
C881 C882 1.334 . S
C882 H853 0.950 . S
C882 C881 1.334 . S
C882 C883 1.287 . S
C883 C882 1.287 . S
C883 C884 1.524 . S
C883 H886 0.999 . S
C884 H854 0.950 . S
C884 C883 1.524 . S
C884 C885 1.415 . S
C885 H855 0.950 . S
C885 C880 1.363 . S
C885 C884 1.415 . S
H886 C883 0.999 . S
H887 C868 0.913 . S
H888 C906 0.951 . S
H889 C908 0.951 . S
H890 C910 0.950 . S
H891 C911 0.950 . S
H892 C913 0.950 . S
H893 C916 0.950 . S
H894 C917 0.950 . S
H895 C919 0.950 . S
H896 C920 0.950 . S
H897 C921 0.951 . S
H898 C923 0.951 . S
H899 C925 0.950 . S
H900 C926 0.950 . S
H901 C928 0.950 . S
H902 C931 0.950 . S
H903 C932 0.950 . S
H904 C934 0.950 . S
H905 C935 0.950 . S
C906 H888 0.951 . S
C906 C907 1.366 . S
C906 C908 1.388 . S
C907 C906 1.366 . S
C907 C911 1.385 . S
C908 H889 0.951 . S
C908 C906 1.388 . S
C908 C909 1.366 . S
C909 C908 1.366 . S
C909 C910 1.414 . S
C909 C912 1.499 . S
C910 H890 0.950 . S
C910 C909 1.414 . S
C910 C911 1.374 . S
C911 H891 0.950 . S
C911 C907 1.385 . S
C911 C910 1.374 . S
C912 C909 1.499 . S
C912 C913 1.373 . S
C912 C914 1.389 . S
C913 H892 0.950 . S
C913 C912 1.373 . S
C913 C929 1.377 . S
C914 C912 1.389 . S
C914 C915 1.524 . S
C914 C928 1.377 . S
C915 C914 1.524 . S
C915 C916 1.397 . S
C915 C920 1.363 . S
C916 H893 0.950 . S
C916 C915 1.397 . S
C916 C917 1.334 . S
C917 H894 0.950 . S
C917 C916 1.334 . S
C917 C918 1.287 . S
C918 C917 1.287 . S
C918 C919 1.524 . S
C918 H937 0.913 . S
C919 H895 0.950 . S
C919 C918 1.524 . S
C919 C920 1.415 . S
C920 H896 0.950 . S
C920 C915 1.363 . S
C920 C919 1.415 . S
C921 H897 0.951 . S
C921 C922 1.366 . S
C921 C923 1.388 . S
C922 C921 1.366 . S
C922 C926 1.385 . S
C923 H898 0.951 . S
C923 C921 1.388 . S
C923 C924 1.366 . S
C924 C923 1.366 . S
C924 C925 1.414 . S
C924 C927 1.499 . S
C925 H899 0.950 . S
C925 C924 1.414 . S
C925 C926 1.374 . S
C926 H900 0.950 . S
C926 C922 1.385 . S
C926 C925 1.374 . S
C927 C924 1.499 . S
C927 C928 1.373 . S
C927 C929 1.389 . S
C928 H901 0.950 . S
C928 C914 1.377 . S
C928 C927 1.373 . S
C929 C913 1.377 . S
C929 C927 1.389 . S
C929 C930 1.524 . S
C930 C929 1.524 . S
C930 C931 1.397 . S
C930 C935 1.363 . S
C931 H902 0.950 . S
C931 C930 1.397 . S
C931 C932 1.334 . S
C932 H903 0.950 . S
C932 C931 1.334 . S
C932 C933 1.287 . S
C933 C932 1.287 . S
C933 C934 1.524 . S
C933 H936 0.999 . S
C934 H904 0.950 . S
C934 C933 1.524 . S
C934 C935 1.415 . S
C935 H905 0.950 . S
C935 C930 1.363 . S
C935 C934 1.415 . S
H936 C933 0.999 . S
H937 C918 0.913 . S
H938 C956 0.951 . S
H939 C958 0.951 . S
H940 C960 0.950 . S
H941 C961 0.950 . S
H942 C963 0.950 . S
H943 C966 0.950 . S
H944 C967 0.950 . S
H945 C969 0.950 . S
H946 C970 0.950 . S
H947 C971 0.951 . S
H948 C973 0.951 . S
H949 C975 0.950 . S
H950 C976 0.950 . S
H951 C978 0.950 . S
H952 C981 0.950 . S
H953 C982 0.950 . S
H954 C984 0.950 . S
H955 C985 0.950 . S
C956 H938 0.951 . S
C956 C957 1.366 . S
C956 C958 1.388 . S
C957 C956 1.366 . S
C957 C961 1.385 . S
C958 H939 0.951 . S
C958 C956 1.388 . S
C958 C959 1.366 . S
C959 C958 1.366 . S
C959 C960 1.414 . S
C959 C962 1.499 . S
C960 H940 0.950 . S
C960 C959 1.414 . S
C960 C961 1.374 . S
C961 H941 0.950 . S
C961 C957 1.385 . S
C961 C960 1.374 . S
C962 C959 1.499 . S
C962 C963 1.373 . S
C962 C964 1.389 . S
C963 H942 0.950 . S
C963 C962 1.373 . S
C963 C979 1.377 . S
C964 C962 1.389 . S
C964 C965 1.524 . S
C964 C978 1.377 . S
C965 C964 1.524 . S
C965 C966 1.397 . S
C965 C970 1.363 . S
C966 H943 0.950 . S
C966 C965 1.397 . S
C966 C967 1.334 . S
C967 H944 0.950 . S
C967 C966 1.334 . S
C967 C968 1.287 . S
C968 C967 1.287 . S
C968 C969 1.524 . S
C968 H987 0.913 . S
C969 H945 0.950 . S
C969 C968 1.524 . S
C969 C970 1.415 . S
C970 H946 0.950 . S
C970 C965 1.363 . S
C970 C969 1.415 . S
C971 H947 0.951 . S
C971 C972 1.366 . S
C971 C973 1.388 . S
C972 C971 1.366 . S
C972 C976 1.385 . S
C973 H948 0.951 . S
C973 C971 1.388 . S
C973 C974 1.366 . S
C974 C973 1.366 . S
C974 C975 1.414 . S
C974 C977 1.499 . S
C975 H949 0.950 . S
C975 C974 1.414 . S
C975 C976 1.374 . S
C976 H950 0.950 . S
C976 C972 1.385 . S
C976 C975 1.374 . S
C977 C974 1.499 . S
C977 C978 1.373 . S
C977 C979 1.389 . S
C978 H951 0.950 . S
C978 C964 1.377 . S
C978 C977 1.373 . S
C979 C963 1.377 . S
C979 C977 1.389 . S
C979 C980 1.524 . S
C980 C979 1.524 . S
C980 C981 1.397 . S
C980 C985 1.363 . S
C981 H952 0.950 . S
C981 C980 1.397 . S
C981 C982 1.334 . S
C982 H953 0.950 . S
C982 C981 1.334 . S
C982 C983 1.287 . S
C983 C982 1.287 . S
C983 C984 1.524 . S
C983 H986 0.999 . S
C984 H954 0.950 . S
C984 C983 1.524 . S
C984 C985 1.415 . S
C985 H955 0.950 . S
C985 C980 1.363 . S
C985 C984 1.415 . S
H986 C983 0.999 . S
H987 C968 0.913 . S
H988 C1006 0.951 . S
H989 C1008 0.951 . S
H990 C1010 0.950 . S
H991 C1011 0.950 . S
H992 C1013 0.950 . S
H993 C1016 0.950 . S
H994 C1017 0.950 . S
H995 C1019 0.950 . S
H996 C1020 0.950 . S
H997 C1021 0.951 . S
H998 C1023 0.951 . S
H999 C1025 0.950 . S
H1000 C1026 0.950 . S
H1001 C1028 0.950 . S
H1002 C1031 0.950 . S
H1003 C1032 0.950 . S
H1004 C1034 0.950 . S
H1005 C1035 0.950 . S
C1006 H988 0.951 . S
C1006 C1007 1.366 . S
C1006 C1008 1.388 . S
C1007 C1006 1.366 . S
C1007 C1011 1.385 . S
C1008 H989 0.951 . S
C1008 C1006 1.388 . S
C1008 C1009 1.366 . S
C1009 C1008 1.366 . S
C1009 C1010 1.414 . S
C1009 C1012 1.499 . S
C1010 H990 0.950 . S
C1010 C1009 1.414 . S
C1010 C1011 1.374 . S
C1011 H991 0.950 . S
C1011 C1007 1.385 . S
C1011 C1010 1.374 . S
C1012 C1009 1.499 . S
C1012 C1013 1.373 . S
C1012 C1014 1.389 . S
C1013 H992 0.950 . S
C1013 C1012 1.373 . S
C1013 C1029 1.377 . S
C1014 C1012 1.389 . S
C1014 C1015 1.524 . S
C1014 C1028 1.377 . S
C1015 C1014 1.524 . S
C1015 C1016 1.397 . S
C1015 C1020 1.363 . S
C1016 H993 0.950 . S
C1016 C1015 1.397 . S
C1016 C1017 1.334 . S
C1017 H994 0.950 . S
C1017 C1016 1.334 . S
C1017 C1018 1.287 . S
C1018 C1017 1.287 . S
C1018 C1019 1.524 . S
C1018 H1037 0.913 . S
C1019 H995 0.950 . S
C1019 C1018 1.524 . S
C1019 C1020 1.415 . S
C1020 H996 0.950 . S
C1020 C1015 1.363 . S
C1020 C1019 1.415 . S
C1021 H997 0.951 . S
C1021 C1022 1.366 . S
C1021 C1023 1.388 . S
C1022 C1021 1.366 . S
C1022 C1026 1.385 . S
C1023 H998 0.951 . S
C1023 C1021 1.388 . S
C1023 C1024 1.366 . S
C1024 C1023 1.366 . S
C1024 C1025 1.414 . S
C1024 C1027 1.499 . S
C1025 H999 0.950 . S
C1025 C1024 1.414 . S
C1025 C1026 1.374 . S
C1026 H1000 0.950 . S
C1026 C1022 1.385 . S
C1026 C1025 1.374 . S
C1027 C1024 1.499 . S
C1027 C1028 1.373 . S
C1027 C1029 1.389 . S
C1028 H1001 0.950 . S
C1028 C1014 1.377 . S
C1028 C1027 1.373 . S
C1029 C1013 1.377 . S
C1029 C1027 1.389 . S
C1029 C1030 1.524 . S
C1030 C1029 1.524 . S
C1030 C1031 1.397 . S
C1030 C1035 1.363 . S
C1031 H1002 0.950 . S
C1031 C1030 1.397 . S
C1031 C1032 1.334 . S
C1032 H1003 0.950 . S
C1032 C1031 1.334 . S
C1032 C1033 1.287 . S
C1033 C1032 1.287 . S
C1033 C1034 1.524 . S
C1033 H1036 0.999 . S
C1034 H1004 0.950 . S
C1034 C1033 1.524 . S
C1034 C1035 1.415 . S
C1035 H1005 0.950 . S
C1035 C1030 1.363 . S
C1035 C1034 1.415 . S
H1036 C1033 0.999 . S
H1037 C1018 0.913 . S
H1038 C1056 0.951 . S
H1039 C1058 0.951 . S
H1040 C1060 0.950 . S
H1041 C1061 0.950 . S
H1042 C1063 0.950 . S
H1043 C1066 0.950 . S
H1044 C1067 0.950 . S
H1045 C1069 0.950 . S
H1046 C1070 0.950 . S
H1047 C1071 0.951 . S
H1048 C1073 0.951 . S
H1049 C1075 0.950 . S
H1050 C1076 0.950 . S
H1051 C1078 0.950 . S
H1052 C1081 0.950 . S
H1053 C1082 0.950 . S
H1054 C1084 0.950 . S
H1055 C1085 0.950 . S
C1056 H1038 0.951 . S
C1056 C1057 1.366 . S
C1056 C1058 1.388 . S
C1057 C1056 1.366 . S
C1057 C1061 1.385 . S
C1058 H1039 0.951 . S
C1058 C1056 1.388 . S
C1058 C1059 1.366 . S
C1059 C1058 1.366 . S
C1059 C1060 1.414 . S
C1059 C1062 1.499 . S
C1060 H1040 0.950 . S
C1060 C1059 1.414 . S
C1060 C1061 1.374 . S
C1061 H1041 0.950 . S
C1061 C1057 1.385 . S
C1061 C1060 1.374 . S
C1062 C1059 1.499 . S
C1062 C1063 1.373 . S
C1062 C1064 1.389 . S
C1063 H1042 0.950 . S
C1063 C1062 1.373 . S
C1063 C1079 1.377 1_556 S
C1064 C1062 1.389 . S
C1064 C1065 1.524 . S
C1064 C1078 1.377 . S
C1065 C1064 1.524 . S
C1065 C1066 1.397 . S
C1065 C1070 1.363 . S
C1066 H1043 0.950 . S
C1066 C1065 1.397 . S
C1066 C1067 1.334 . S
C1067 H1044 0.950 . S
C1067 C1066 1.334 . S
C1067 C1068 1.287 . S
C1068 C1067 1.287 . S
C1068 C1069 1.524 . S
C1068 H1087 0.913 . S
C1069 H1045 0.950 . S
C1069 C1068 1.524 . S
C1069 C1070 1.415 . S
C1070 H1046 0.950 . S
C1070 C1065 1.363 . S
C1070 C1069 1.415 . S
C1071 H1047 0.951 . S
C1071 C1072 1.366 . S
C1071 C1073 1.388 . S
C1072 C1071 1.366 . S
C1072 C1076 1.385 . S
C1073 H1048 0.951 . S
C1073 C1071 1.388 . S
C1073 C1074 1.366 . S
C1074 C1073 1.366 . S
C1074 C1075 1.414 . S
C1074 C1077 1.499 . S
C1075 H1049 0.950 . S
C1075 C1074 1.414 . S
C1075 C1076 1.374 . S
C1076 H1050 0.950 . S
C1076 C1072 1.385 . S
C1076 C1075 1.374 . S
C1077 C1074 1.499 . S
C1077 C1078 1.373 1_554 S
C1077 C1079 1.389 . S
C1078 H1051 0.950 . S
C1078 C1064 1.377 . S
C1078 C1077 1.373 1_556 S
C1079 C1063 1.377 1_554 S
C1079 C1077 1.389 . S
C1079 C1080 1.524 . S
C1080 C1079 1.524 . S
C1080 C1081 1.397 . S
C1080 C1085 1.363 . S
C1081 H1052 0.950 . S
C1081 C1080 1.397 . S
C1081 C1082 1.334 . S
C1082 H1053 0.950 . S
C1082 C1081 1.334 . S
C1082 C1083 1.287 . S
C1083 C1082 1.287 . S
C1083 C1084 1.524 . S
C1083 H1086 0.999 . S
C1084 H1054 0.950 . S
C1084 C1083 1.524 . S
C1084 C1085 1.415 . S
C1085 H1055 0.950 . S
C1085 C1080 1.363 . S
C1085 C1084 1.415 . S
H1086 C1083 0.999 . S
H1087 C1068 0.913 . S
H1088 C1106 0.951 . S
H1089 C1108 0.951 . S
H1090 C1110 0.950 . S
H1091 C1111 0.950 . S
H1092 C1113 0.950 . S
H1093 C1116 0.950 . S
H1094 C1117 0.950 . S
H1095 C1119 0.950 . S
H1096 C1120 0.950 . S
H1097 C1121 0.951 . S
H1098 C1123 0.951 . S
H1099 C1125 0.950 . S
H1100 C1126 0.950 . S
H1101 C1128 0.950 . S
H1102 C1131 0.950 . S
H1103 C1132 0.950 . S
H1104 C1134 0.950 . S
H1105 C1135 0.950 . S
C1106 H1088 0.951 . S
C1106 C1107 1.366 . S
C1106 C1108 1.388 . S
C1107 C1106 1.366 . S
C1107 C1111 1.385 . S
C1108 H1089 0.951 . S
C1108 C1106 1.388 . S
C1108 C1109 1.366 . S
C1109 C1108 1.366 . S
C1109 C1110 1.414 . S
C1109 C1112 1.499 . S
C1110 H1090 0.950 . S
C1110 C1109 1.414 . S
C1110 C1111 1.374 . S
C1111 H1091 0.950 . S
C1111 C1107 1.385 . S
C1111 C1110 1.374 . S
C1112 C1109 1.499 . S
C1112 C1113 1.373 . S
C1112 C1114 1.389 . S
C1113 H1092 0.950 . S
C1113 C1112 1.373 . S
C1113 C1129 1.377 . S
C1114 C1112 1.389 . S
C1114 C1115 1.524 . S
C1114 C1128 1.377 . S
C1115 C1114 1.524 . S
C1115 C1116 1.397 . S
C1115 C1120 1.363 . S
C1116 H1093 0.950 . S
C1116 C1115 1.397 . S
C1116 C1117 1.334 . S
C1117 H1094 0.950 . S
C1117 C1116 1.334 . S
C1117 C1118 1.287 . S
C1118 C1117 1.287 . S
C1118 C1119 1.524 . S
C1118 H1137 0.913 . S
C1119 H1095 0.950 . S
C1119 C1118 1.524 . S
C1119 C1120 1.415 . S
C1120 H1096 0.950 . S
C1120 C1115 1.363 . S
C1120 C1119 1.415 . S
C1121 H1097 0.951 . S
C1121 C1122 1.366 . S
C1121 C1123 1.388 . S
C1122 C1121 1.366 . S
C1122 C1126 1.385 . S
C1123 H1098 0.951 . S
C1123 C1121 1.388 . S
C1123 C1124 1.366 . S
C1124 C1123 1.366 . S
C1124 C1125 1.414 . S
C1124 C1127 1.499 . S
C1125 H1099 0.950 . S
C1125 C1124 1.414 . S
C1125 C1126 1.374 . S
C1126 H1100 0.950 . S
C1126 C1122 1.385 . S
C1126 C1125 1.374 . S
C1127 C1124 1.499 . S
C1127 C1128 1.373 . S
C1127 C1129 1.389 . S
C1128 H1101 0.950 . S
C1128 C1114 1.377 . S
C1128 C1127 1.373 . S
C1129 C1113 1.377 . S
C1129 C1127 1.389 . S
C1129 C1130 1.524 . S
C1130 C1129 1.524 . S
C1130 C1131 1.397 . S
C1130 C1135 1.363 . S
C1131 H1102 0.950 . S
C1131 C1130 1.397 . S
C1131 C1132 1.334 . S
C1132 H1103 0.950 . S
C1132 C1131 1.334 . S
C1132 C1133 1.287 . S
C1133 C1132 1.287 . S
C1133 C1134 1.524 . S
C1133 H1136 0.999 . S
C1134 H1104 0.950 . S
C1134 C1133 1.524 . S
C1134 C1135 1.415 . S
C1135 H1105 0.950 . S
C1135 C1130 1.363 . S
C1135 C1134 1.415 . S
H1136 C1133 0.999 . S
H1137 C1118 0.913 . S
H1138 C1156 0.951 . S
H1139 C1158 0.951 . S
H1140 C1160 0.950 . S
H1141 C1161 0.950 . S
H1142 C1163 0.950 . S
H1143 C1166 0.950 . S
H1144 C1167 0.950 . S
H1145 C1169 0.950 . S
H1146 C1170 0.950 . S
H1147 C1171 0.951 . S
H1148 C1173 0.951 . S
H1149 C1175 0.950 . S
H1150 C1176 0.950 . S
H1151 C1178 0.950 1_565 S
H1152 C1181 0.950 . S
H1153 C1182 0.950 . S
H1154 C1184 0.950 . S
H1155 C1185 0.950 . S
C1156 H1138 0.951 . S
C1156 C1157 1.366 . S
C1156 C1158 1.388 . S
C1157 C1156 1.366 . S
C1157 C1161 1.385 . S
C1158 H1139 0.951 . S
C1158 C1156 1.388 . S
C1158 C1159 1.366 . S
C1159 C1158 1.366 . S
C1159 C1160 1.414 . S
C1159 C1162 1.499 . S
C1160 H1140 0.950 . S
C1160 C1159 1.414 . S
C1160 C1161 1.374 . S
C1161 H1141 0.950 . S
C1161 C1157 1.385 . S
C1161 C1160 1.374 . S
C1162 C1159 1.499 . S
C1162 C1163 1.373 . S
C1162 C1164 1.389 . S
C1163 H1142 0.950 . S
C1163 C1162 1.373 . S
C1163 C1179 1.377 . S
C1164 C1162 1.389 . S
C1164 C1165 1.524 . S
C1164 C1178 1.377 . S
C1165 C1164 1.524 . S
C1165 C1166 1.397 . S
C1165 C1170 1.363 . S
C1166 H1143 0.950 . S
C1166 C1165 1.397 . S
C1166 C1167 1.334 . S
C1167 H1144 0.950 . S
C1167 C1166 1.334 . S
C1167 C1168 1.287 . S
C1168 C1167 1.287 . S
C1168 C1169 1.524 . S
C1168 H1187 0.913 . S
C1169 H1145 0.950 . S
C1169 C1168 1.524 . S
C1169 C1170 1.415 . S
C1170 H1146 0.950 . S
C1170 C1165 1.363 . S
C1170 C1169 1.415 . S
C1171 H1147 0.951 . S
C1171 C1172 1.366 . S
C1171 C1173 1.388 . S
C1172 C1171 1.366 . S
C1172 C1176 1.385 . S
C1173 H1148 0.951 . S
C1173 C1171 1.388 . S
C1173 C1174 1.366 . S
C1174 C1173 1.366 . S
C1174 C1175 1.414 . S
C1174 C1177 1.488 1_565 S
C1175 H1149 0.950 . S
C1175 C1174 1.414 . S
C1175 C1176 1.374 . S
C1176 H1150 0.950 . S
C1176 C1172 1.385 . S
C1176 C1175 1.374 . S
C1177 C1174 1.488 1_545 S
C1177 C1178 1.374 . S
C1177 C1179 1.398 . S
C1178 H1151 0.950 1_545 S
C1178 C1164 1.377 . S
C1178 C1177 1.374 . S
C1179 C1163 1.377 . S
C1179 C1177 1.398 . S
C1179 C1180 1.524 . S
C1180 C1179 1.524 . S
C1180 C1181 1.397 . S
C1180 C1185 1.363 . S
C1181 H1152 0.950 . S
C1181 C1180 1.397 . S
C1181 C1182 1.334 . S
C1182 H1153 0.950 . S
C1182 C1181 1.334 . S
C1182 C1183 1.287 . S
C1183 C1182 1.287 . S
C1183 C1184 1.524 . S
C1183 H1186 0.999 . S
C1184 H1154 0.950 . S
C1184 C1183 1.524 . S
C1184 C1185 1.415 . S
C1185 H1155 0.950 . S
C1185 C1180 1.363 . S
C1185 C1184 1.415 . S
H1186 C1183 0.999 . S
H1187 C1168 0.913 . S
H1188 C1206 0.951 . S
H1189 C1208 0.951 . S
H1190 C1210 0.950 . S
H1191 C1211 0.950 . S
H1192 C1213 0.950 . S
H1193 C1216 0.950 . S
H1194 C1217 0.950 . S
H1195 C1219 0.950 . S
H1196 C1220 0.950 . S
H1197 C1221 0.951 . S
H1198 C1223 0.951 . S
H1199 C1225 0.950 . S
H1200 C1226 0.950 . S
H1201 C1228 0.950 . S
H1202 C1231 0.950 . S
H1203 C1232 0.950 . S
H1204 C1234 0.950 1_545 S
H1205 C1235 0.950 . S
C1206 H1188 0.951 . S
C1206 C1207 1.366 . S
C1206 C1208 1.388 . S
C1207 C1206 1.366 . S
C1207 C1211 1.385 . S
C1208 H1189 0.951 . S
C1208 C1206 1.388 . S
C1208 C1209 1.366 . S
C1209 C1208 1.366 . S
C1209 C1210 1.414 . S
C1209 C1212 1.499 . S
C1210 H1190 0.950 . S
C1210 C1209 1.414 . S
C1210 C1211 1.374 . S
C1211 H1191 0.950 . S
C1211 C1207 1.385 . S
C1211 C1210 1.374 . S
C1212 C1209 1.499 . S
C1212 C1213 1.373 . S
C1212 C1214 1.389 . S
C1213 H1192 0.950 . S
C1213 C1212 1.373 . S
C1213 C1229 1.377 . S
C1214 C1212 1.389 . S
C1214 C1215 1.524 . S
C1214 C1228 1.377 . S
C1215 C1214 1.524 . S
C1215 C1216 1.397 . S
C1215 C1220 1.363 . S
C1216 H1193 0.950 . S
C1216 C1215 1.397 . S
C1216 C1217 1.334 . S
C1217 H1194 0.950 . S
C1217 C1216 1.334 . S
C1217 C1218 1.287 . S
C1218 C1217 1.287 . S
C1218 C1219 1.524 . S
C1218 H1237 0.913 . S
C1219 H1195 0.950 . S
C1219 C1218 1.524 . S
C1219 C1220 1.415 . S
C1220 H1196 0.950 . S
C1220 C1215 1.363 . S
C1220 C1219 1.415 . S
C1221 H1197 0.951 . S
C1221 C1222 1.366 . S
C1221 C1223 1.388 . S
C1222 C1221 1.366 . S
C1222 C1226 1.385 . S
C1223 H1198 0.951 . S
C1223 C1221 1.388 . S
C1223 C1224 1.366 . S
C1224 C1223 1.366 . S
C1224 C1225 1.414 . S
C1224 C1227 1.499 . S
C1225 H1199 0.950 . S
C1225 C1224 1.414 . S
C1225 C1226 1.374 . S
C1226 H1200 0.950 . S
C1226 C1222 1.385 . S
C1226 C1225 1.374 . S
C1227 C1224 1.499 . S
C1227 C1228 1.373 . S
C1227 C1229 1.389 . S
C1228 H1201 0.950 . S
C1228 C1214 1.377 . S
C1228 C1227 1.373 . S
C1229 C1213 1.377 . S
C1229 C1227 1.389 . S
C1229 C1230 1.524 . S
C1230 C1229 1.524 . S
C1230 C1231 1.397 . S
C1230 C1235 1.363 . S
C1231 H1202 0.950 . S
C1231 C1230 1.397 . S
C1231 C1232 1.334 . S
C1232 H1203 0.950 . S
C1232 C1231 1.334 . S
C1232 C1233 1.287 . S
C1233 C1232 1.287 . S
C1233 C1234 1.524 . S
C1233 H1236 0.999 . S
C1234 H1204 0.950 1_565 S
C1234 C1233 1.524 . S
C1234 C1235 1.415 . S
C1235 H1205 0.950 . S
C1235 C1230 1.363 . S
C1235 C1234 1.415 . S
H1236 C1233 0.999 . S
H1237 C1218 0.913 . S
H1238 C1256 0.951 . S
H1239 C1258 0.951 . S
H1240 C1260 0.950 . S
H1241 C1261 0.950 . S
H1242 C1263 0.950 . S
H1243 C1266 0.950 . S
H1244 C1267 0.950 . S
H1245 C1269 0.950 . S
H1246 C1270 0.914 1_545 S
H1247 C1271 0.951 . S
H1248 C1273 0.951 . S
H1249 C1275 0.950 . S
H1250 C1276 0.950 . S
H1251 C1278 0.971 . S
H1252 C1281 0.950 . S
H1253 C1282 0.950 . S
H1254 C1284 0.931 1_565 S
H1255 C1285 0.950 . S
C1256 H1238 0.951 . S
C1256 C1257 1.366 . S
C1256 C1258 1.388 . S
C1257 C1256 1.366 . S
C1257 C1261 1.385 . S
C1258 H1239 0.951 . S
C1258 C1256 1.388 . S
C1258 C1259 1.366 . S
C1259 C1258 1.366 . S
C1259 C1260 1.414 . S
C1259 C1262 1.499 . S
C1260 H1240 0.950 . S
C1260 C1259 1.414 . S
C1260 C1261 1.374 . S
C1261 H1241 0.950 . S
C1261 C1257 1.385 . S
C1261 C1260 1.374 . S
C1262 C1259 1.499 . S
C1262 C1263 1.373 . S
C1262 C1264 1.389 . S
C1263 H1242 0.950 . S
C1263 C1262 1.373 . S
C1263 C1279 1.377 . S
C1264 C1262 1.389 . S
C1264 C1265 1.524 . S
C1264 C1278 1.342 1_565 S
C1265 C1264 1.524 . S
C1265 C1266 1.397 . S
C1265 C1270 1.363 . S
C1266 H1243 0.950 . S
C1266 C1265 1.397 . S
C1266 C1267 1.334 . S
C1267 H1244 0.950 . S
C1267 C1266 1.334 . S
C1267 C1268 1.287 . S
C1268 C1267 1.287 . S
C1268 C1269 1.524 . S
C1268 H1287 0.913 . S
C1269 H1245 0.950 . S
C1269 C1268 1.524 . S
C1269 C1270 1.415 . S
C1270 H1246 0.914 1_565 S
C1270 C1265 1.363 . S
C1270 C1269 1.415 . S
C1271 H1247 0.951 . S
C1271 C1272 1.366 . S
C1271 C1273 1.388 . S
C1272 C1271 1.366 . S
C1272 C1276 1.385 . S
C1273 H1248 0.951 . S
C1273 C1271 1.388 . S
C1273 C1274 1.366 . S
C1274 C1273 1.366 . S
C1274 C1275 1.414 . S
C1274 C1277 1.499 . S
C1275 H1249 0.950 . S
C1275 C1274 1.414 . S
C1275 C1276 1.374 . S
C1276 H1250 0.950 . S
C1276 C1272 1.385 . S
C1276 C1275 1.374 . S
C1277 C1274 1.499 . S
C1277 C1278 1.388 . S
C1277 C1279 1.389 1_545 S
C1278 H1251 0.971 . S
C1278 C1264 1.342 1_545 S
C1278 C1277 1.388 . S
C1279 C1263 1.377 . S
C1279 C1277 1.389 1_565 S
C1279 C1280 1.524 1_565 S
C1280 C1279 1.524 1_545 S
C1280 C1281 1.397 . S
C1280 C1285 1.363 1_545 S
C1281 H1252 0.950 . S
C1281 C1280 1.397 . S
C1281 C1282 1.334 . S
C1282 H1253 0.950 . S
C1282 C1281 1.334 . S
C1282 C1283 1.287 . S
C1283 C1282 1.287 . S
C1283 C1284 1.556 . S
C1283 H1286 0.999 1_556 S
C1284 H1254 0.931 1_545 S
C1284 C1283 1.556 . S
C1284 C1285 1.404 1_545 S
C1285 H1255 0.950 . S
C1285 C1280 1.363 1_565 S
C1285 C1284 1.404 1_565 S
H1286 C1283 0.999 1_554 S
H1287 C1268 0.913 . S
H1288 C1306 0.951 . S
H1289 C1308 0.951 . S
H1290 C1310 0.950 . S
H1291 C1311 0.950 . S
H1292 C1313 0.950 . S
H1293 C1316 0.950 . S
H1294 C1317 0.950 . S
H1295 C1319 0.950 . S
H1296 C1320 0.950 . S
H1297 C1321 0.951 . S
H1298 C1323 0.951 . S
H1299 C1325 0.950 . S
H1300 C1326 0.950 . S
H1301 C1328 0.950 . S
H1302 C1331 0.950 . S
H1303 C1332 0.950 . S
H1304 C1334 0.950 1_545 S
H1305 C1335 0.950 . S
C1306 H1288 0.951 . S
C1306 C1307 1.366 . S
C1306 C1308 1.388 . S
C1307 C1306 1.366 . S
C1307 C1311 1.385 . S
C1308 H1289 0.951 . S
C1308 C1306 1.388 . S
C1308 C1309 1.366 . S
C1309 C1308 1.366 . S
C1309 C1310 1.414 . S
C1309 C1312 1.499 . S
C1310 H1290 0.950 . S
C1310 C1309 1.414 . S
C1310 C1311 1.374 . S
C1311 H1291 0.950 . S
C1311 C1307 1.385 . S
C1311 C1310 1.374 . S
C1312 C1309 1.499 . S
C1312 C1313 1.373 . S
C1312 C1314 1.389 . S
C1313 H1292 0.950 . S
C1313 C1312 1.373 . S
C1313 C1329 1.377 . S
C1314 C1312 1.389 . S
C1314 C1315 1.524 . S
C1314 C1328 1.377 . S
C1315 C1314 1.524 . S
C1315 C1316 1.397 . S
C1315 C1320 1.363 . S
C1316 H1293 0.950 . S
C1316 C1315 1.397 . S
C1316 C1317 1.334 . S
C1317 H1294 0.950 . S
C1317 C1316 1.334 . S
C1317 C1318 1.287 . S
C1318 C1317 1.287 . S
C1318 C1319 1.524 . S
C1318 H1337 0.913 . S
C1319 H1295 0.950 . S
C1319 C1318 1.524 . S
C1319 C1320 1.415 . S
C1320 H1296 0.950 . S
C1320 C1315 1.363 . S
C1320 C1319 1.415 . S
C1321 H1297 0.951 . S
C1321 C1322 1.366 . S
C1321 C1323 1.388 . S
C1322 C1321 1.366 . S
C1322 C1326 1.385 . S
C1323 H1298 0.951 . S
C1323 C1321 1.388 . S
C1323 C1324 1.366 . S
C1324 C1323 1.366 . S
C1324 C1325 1.414 . S
C1324 C1327 1.499 . S
C1325 H1299 0.950 . S
C1325 C1324 1.414 . S
C1325 C1326 1.374 . S
C1326 H1300 0.950 . S
C1326 C1322 1.385 . S
C1326 C1325 1.374 . S
C1327 C1324 1.499 . S
C1327 C1328 1.373 . S
C1327 C1329 1.389 . S
C1328 H1301 0.950 . S
C1328 C1314 1.377 . S
C1328 C1327 1.373 . S
C1329 C1313 1.377 . S
C1329 C1327 1.389 . S
C1329 C1330 1.524 . S
C1330 C1329 1.524 . S
C1330 C1331 1.397 . S
C1330 C1335 1.363 . S
C1331 H1302 0.950 . S
C1331 C1330 1.397 . S
C1331 C1332 1.334 . S
C1332 H1303 0.950 . S
C1332 C1331 1.334 . S
C1332 C1333 1.287 . S
C1333 C1332 1.287 . S
C1333 C1334 1.524 . S
C1333 H1336 0.999 1_565 S
C1334 H1304 0.950 1_565 S
C1334 C1333 1.524 . S
C1334 C1335 1.415 . S
C1335 H1305 0.950 . S
C1335 C1330 1.363 . S
C1335 C1334 1.415 . S
H1336 C1333 0.999 1_545 S
H1337 C1318 0.913 . S
H1338 C1356 0.951 . S
H1339 C1358 0.951 . S
H1340 C1360 0.950 . S
H1341 C1361 0.950 . S
H1342 C1363 0.950 . S
H1343 C1366 0.950 . S
H1344 C1367 0.950 . S
H1345 C1369 0.950 . S
H1346 C1370 0.950 . S
H1347 C1371 0.951 . S
H1348 C1373 0.951 . S
H1349 C1375 0.950 . S
H1350 C1376 0.950 . S
H1351 C1378 0.950 . S
H1352 C1381 0.950 . S
H1353 C1382 0.950 . S
H1354 C1384 0.950 . S
H1355 C1385 0.950 . S
C1356 H1338 0.951 . S
C1356 C1357 1.366 . S
C1356 C1358 1.388 . S
C1357 C1356 1.366 . S
C1357 C1361 1.385 . S
C1358 H1339 0.951 . S
C1358 C1356 1.388 . S
C1358 C1359 1.366 . S
C1359 C1358 1.366 . S
C1359 C1360 1.414 . S
C1359 C1362 1.499 . S
C1360 H1340 0.950 . S
C1360 C1359 1.414 . S
C1360 C1361 1.374 . S
C1361 H1341 0.950 . S
C1361 C1357 1.385 . S
C1361 C1360 1.374 . S
C1362 C1359 1.499 . S
C1362 C1363 1.373 . S
C1362 C1364 1.389 . S
C1363 H1342 0.950 . S
C1363 C1362 1.373 . S
C1363 C1379 1.377 1_545 S
C1364 C1362 1.389 . S
C1364 C1365 1.524 . S
C1364 C1378 1.377 . S
C1365 C1364 1.524 . S
C1365 C1366 1.397 . S
C1365 C1370 1.363 . S
C1366 H1343 0.950 . S
C1366 C1365 1.397 . S
C1366 C1367 1.334 . S
C1367 H1344 0.950 . S
C1367 C1366 1.334 . S
C1367 C1368 1.287 . S
C1368 C1367 1.287 . S
C1368 C1369 1.524 . S
C1368 H1387 0.913 . S
C1369 H1345 0.950 . S
C1369 C1368 1.524 . S
C1369 C1370 1.415 . S
C1370 H1346 0.950 . S
C1370 C1365 1.363 . S
C1370 C1369 1.415 . S
C1371 H1347 0.951 . S
C1371 C1372 1.366 . S
C1371 C1373 1.388 . S
C1372 C1371 1.366 . S
C1372 C1376 1.385 . S
C1373 H1348 0.951 . S
C1373 C1371 1.388 . S
C1373 C1374 1.366 . S
C1374 C1373 1.366 . S
C1374 C1375 1.414 . S
C1374 C1377 1.499 . S
C1375 H1349 0.950 . S
C1375 C1374 1.414 . S
C1375 C1376 1.374 . S
C1376 H1350 0.950 . S
C1376 C1372 1.385 . S
C1376 C1375 1.374 . S
C1377 C1374 1.499 . S
C1377 C1378 1.373 1_565 S
C1377 C1379 1.389 . S
C1378 H1351 0.950 . S
C1378 C1364 1.377 . S
C1378 C1377 1.373 1_545 S
C1379 C1363 1.377 1_565 S
C1379 C1377 1.389 . S
C1379 C1380 1.524 . S
C1380 C1379 1.524 . S
C1380 C1381 1.397 . S
C1380 C1385 1.363 . S
C1381 H1352 0.950 . S
C1381 C1380 1.397 . S
C1381 C1382 1.334 . S
C1382 H1353 0.950 . S
C1382 C1381 1.334 . S
C1382 C1383 1.287 . S
C1383 C1382 1.287 . S
C1383 C1384 1.524 . S
C1383 H1386 0.999 . S
C1384 H1354 0.950 . S
C1384 C1383 1.524 . S
C1384 C1385 1.415 . S
C1385 H1355 0.950 . S
C1385 C1380 1.363 . S
C1385 C1384 1.415 . S
H1386 C1383 0.999 . S
H1387 C1368 0.913 . S
H1388 C1406 0.951 . S
H1389 C1408 0.951 . S
H1390 C1410 0.950 . S
H1391 C1411 0.950 . S
H1392 C1413 0.950 . S
H1393 C1416 0.950 . S
H1394 C1417 0.950 . S
H1395 C1419 0.950 . S
H1396 C1420 0.950 . S
H1397 C1421 0.951 . S
H1398 C1423 0.951 . S
H1399 C1425 0.950 . S
H1400 C1426 0.950 . S
H1401 C1428 0.950 . S
H1402 C1431 0.950 . S
H1403 C1432 0.950 . S
H1404 C1434 0.950 . S
H1405 C1435 0.950 . S
C1406 H1388 0.951 . S
C1406 C1407 1.366 . S
C1406 C1408 1.388 . S
C1407 C1406 1.366 . S
C1407 C1411 1.385 . S
C1408 H1389 0.951 . S
C1408 C1406 1.388 . S
C1408 C1409 1.366 . S
C1409 C1408 1.366 . S
C1409 C1410 1.414 . S
C1409 C1412 1.499 . S
C1410 H1390 0.950 . S
C1410 C1409 1.414 . S
C1410 C1411 1.374 . S
C1411 H1391 0.950 . S
C1411 C1407 1.385 . S
C1411 C1410 1.374 . S
C1412 C1409 1.499 . S
C1412 C1413 1.373 . S
C1412 C1414 1.389 . S
C1413 H1392 0.950 . S
C1413 C1412 1.373 . S
C1413 C1429 1.377 . S
C1414 C1412 1.389 . S
C1414 C1415 1.524 . S
C1414 C1428 1.377 . S
C1415 C1414 1.524 . S
C1415 C1416 1.397 . S
C1415 C1420 1.363 . S
C1416 H1393 0.950 . S
C1416 C1415 1.397 . S
C1416 C1417 1.334 . S
C1417 H1394 0.950 . S
C1417 C1416 1.334 . S
C1417 C1418 1.287 . S
C1418 C1417 1.287 . S
C1418 C1419 1.524 . S
C1418 H1437 0.913 . S
C1419 H1395 0.950 . S
C1419 C1418 1.524 . S
C1419 C1420 1.415 . S
C1420 H1396 0.950 . S
C1420 C1415 1.363 . S
C1420 C1419 1.415 . S
C1421 H1397 0.951 . S
C1421 C1422 1.366 . S
C1421 C1423 1.388 . S
C1422 C1421 1.366 . S
C1422 C1426 1.385 . S
C1423 H1398 0.951 . S
C1423 C1421 1.388 . S
C1423 C1424 1.366 . S
C1424 C1423 1.366 . S
C1424 C1425 1.414 . S
C1424 C1427 1.499 . S
C1425 H1399 0.950 . S
C1425 C1424 1.414 . S
C1425 C1426 1.374 . S
C1426 H1400 0.950 . S
C1426 C1422 1.385 . S
C1426 C1425 1.374 . S
C1427 C1424 1.499 . S
C1427 C1428 1.373 . S
C1427 C1429 1.389 . S
C1428 H1401 0.950 . S
C1428 C1414 1.377 . S
C1428 C1427 1.373 . S
C1429 C1413 1.377 . S
C1429 C1427 1.389 . S
C1429 C1430 1.524 . S
C1430 C1429 1.524 . S
C1430 C1431 1.397 . S
C1430 C1435 1.363 . S
C1431 H1402 0.950 . S
C1431 C1430 1.397 . S
C1431 C1432 1.334 . S
C1432 H1403 0.950 . S
C1432 C1431 1.334 . S
C1432 C1433 1.287 . S
C1433 C1432 1.287 . S
C1433 C1434 1.524 . S
C1433 H1436 0.999 . S
C1434 H1404 0.950 . S
C1434 C1433 1.524 . S
C1434 C1435 1.415 . S
C1435 H1405 0.950 . S
C1435 C1430 1.363 . S
C1435 C1434 1.415 . S
H1436 C1433 0.999 . S
H1437 C1418 0.913 . S
H1438 C1456 0.951 . S
H1439 C1458 0.951 . S
H1440 C1460 0.950 . S
H1441 C1461 0.950 . S
H1442 C1463 0.950 . S
H1443 C1466 0.950 . S
H1444 C1467 0.950 . S
H1445 C1469 0.950 . S
H1446 C1470 0.950 1_545 S
H1447 C1471 0.951 . S
H1448 C1473 0.951 . S
H1449 C1475 0.950 . S
H1450 C1476 0.950 . S
H1451 C1478 0.950 . S
H1452 C1481 0.950 . S
H1453 C1482 0.950 . S
H1454 C1484 0.950 1_565 S
H1455 C1485 0.950 . S
C1456 H1438 0.951 . S
C1456 C1457 1.366 . S
C1456 C1458 1.388 . S
C1457 C1456 1.366 . S
C1457 C1461 1.385 . S
C1458 H1439 0.951 . S
C1458 C1456 1.388 . S
C1458 C1459 1.366 . S
C1459 C1458 1.366 . S
C1459 C1460 1.414 . S
C1459 C1462 1.499 . S
C1460 H1440 0.950 . S
C1460 C1459 1.414 . S
C1460 C1461 1.374 . S
C1461 H1441 0.950 . S
C1461 C1457 1.385 . S
C1461 C1460 1.374 . S
C1462 C1459 1.499 . S
C1462 C1463 1.373 . S
C1462 C1464 1.389 . S
C1463 H1442 0.950 . S
C1463 C1462 1.373 . S
C1463 C1479 1.377 1_565 S
C1464 C1462 1.389 . S
C1464 C1465 1.524 . S
C1464 C1478 1.377 1_565 S
C1465 C1464 1.524 . S
C1465 C1466 1.397 . S
C1465 C1470 1.363 . S
C1466 H1443 0.950 . S
C1466 C1465 1.397 . S
C1466 C1467 1.334 . S
C1467 H1444 0.950 . S
C1467 C1466 1.334 . S
C1467 C1468 1.287 . S
C1468 C1467 1.287 . S
C1468 C1469 1.524 . S
C1468 H1487 0.913 . S
C1469 H1445 0.950 . S
C1469 C1468 1.524 . S
C1469 C1470 1.415 . S
C1470 H1446 0.950 1_565 S
C1470 C1465 1.363 . S
C1470 C1469 1.415 . S
C1471 H1447 0.951 . S
C1471 C1472 1.366 . S
C1471 C1473 1.388 . S
C1472 C1471 1.366 . S
C1472 C1476 1.385 . S
C1473 H1448 0.951 . S
C1473 C1471 1.388 . S
C1473 C1474 1.366 . S
C1474 C1473 1.366 . S
C1474 C1475 1.414 . S
C1474 C1477 1.499 . S
C1475 H1449 0.950 . S
C1475 C1474 1.414 . S
C1475 C1476 1.374 . S
C1476 H1450 0.950 . S
C1476 C1472 1.385 . S
C1476 C1475 1.374 . S
C1477 C1474 1.499 . S
C1477 C1478 1.373 . S
C1477 C1479 1.389 . S
C1478 H1451 0.950 . S
C1478 C1464 1.377 1_545 S
C1478 C1477 1.373 . S
C1479 C1463 1.377 1_545 S
C1479 C1477 1.389 . S
C1479 C1480 1.524 . S
C1480 C1479 1.524 . S
C1480 C1481 1.397 . S
C1480 C1485 1.363 1_545 S
C1481 H1452 0.950 . S
C1481 C1480 1.397 . S
C1481 C1482 1.334 . S
C1482 H1453 0.950 . S
C1482 C1481 1.334 . S
C1482 C1483 1.287 . S
C1483 C1482 1.287 . S
C1483 C1484 1.524 . S
C1483 H1486 0.999 . S
C1484 H1454 0.950 1_545 S
C1484 C1483 1.524 . S
C1484 C1485 1.415 1_545 S
C1485 H1455 0.950 . S
C1485 C1480 1.363 1_565 S
C1485 C1484 1.415 1_565 S
H1486 C1483 0.999 . S
H1487 C1468 0.913 . S
H1488 C1506 0.951 . S
H1489 C1508 0.951 . S
H1490 C1510 0.950 . S
H1491 C1511 0.950 . S
H1492 C1513 0.950 . S
H1493 C1516 0.950 . S
H1494 C1517 0.950 . S
H1495 C1519 0.950 . S
H1496 C1520 0.950 . S
H1497 C1521 0.951 . S
H1498 C1523 0.951 . S
H1499 C1525 0.950 . S
H1500 C1526 0.950 . S
H1501 C1528 0.950 . S
H1502 C1531 0.950 . S
H1503 C1532 0.950 . S
H1504 C1534 0.950 . S
H1505 C1535 0.950 . S
C1506 H1488 0.951 . S
C1506 C1507 1.366 . S
C1506 C1508 1.388 . S
C1507 C1506 1.366 . S
C1507 C1511 1.385 . S
C1508 H1489 0.951 . S
C1508 C1506 1.388 . S
C1508 C1509 1.366 . S
C1509 C1508 1.366 . S
C1509 C1510 1.414 . S
C1509 C1512 1.499 . S
C1510 H1490 0.950 . S
C1510 C1509 1.414 . S
C1510 C1511 1.374 . S
C1511 H1491 0.950 . S
C1511 C1507 1.385 . S
C1511 C1510 1.374 . S
C1512 C1509 1.499 . S
C1512 C1513 1.373 . S
C1512 C1514 1.389 . S
C1513 H1492 0.950 . S
C1513 C1512 1.373 . S
C1513 C1529 1.377 . S
C1514 C1512 1.389 . S
C1514 C1515 1.524 . S
C1514 C1528 1.377 . S
C1515 C1514 1.524 . S
C1515 C1516 1.397 . S
C1515 C1520 1.363 . S
C1516 H1493 0.950 . S
C1516 C1515 1.397 . S
C1516 C1517 1.334 . S
C1517 H1494 0.950 . S
C1517 C1516 1.334 . S
C1517 C1518 1.287 . S
C1518 C1517 1.287 . S
C1518 C1519 1.524 . S
C1518 H1537 0.913 . S
C1519 H1495 0.950 . S
C1519 C1518 1.524 . S
C1519 C1520 1.415 . S
C1520 H1496 0.950 . S
C1520 C1515 1.363 . S
C1520 C1519 1.415 . S
C1521 H1497 0.951 . S
C1521 C1522 1.366 . S
C1521 C1523 1.388 . S
C1522 C1521 1.366 . S
C1522 C1526 1.385 . S
C1523 H1498 0.951 . S
C1523 C1521 1.388 . S
C1523 C1524 1.366 . S
C1524 C1523 1.366 . S
C1524 C1525 1.414 . S
C1524 C1527 1.499 . S
C1525 H1499 0.950 . S
C1525 C1524 1.414 . S
C1525 C1526 1.374 . S
C1526 H1500 0.950 . S
C1526 C1522 1.385 . S
C1526 C1525 1.374 . S
C1527 C1524 1.499 . S
C1527 C1528 1.373 . S
C1527 C1529 1.389 . S
C1528 H1501 0.950 . S
C1528 C1514 1.377 . S
C1528 C1527 1.373 . S
C1529 C1513 1.377 . S
C1529 C1527 1.389 . S
C1529 C1530 1.524 . S
C1530 C1529 1.524 . S
C1530 C1531 1.397 . S
C1530 C1535 1.363 . S
C1531 H1502 0.950 . S
C1531 C1530 1.397 . S
C1531 C1532 1.334 . S
C1532 H1503 0.950 . S
C1532 C1531 1.334 . S
C1532 C1533 1.287 . S
C1533 C1532 1.287 . S
C1533 C1534 1.524 . S
C1533 H1536 0.999 . S
C1534 H1504 0.950 . S
C1534 C1533 1.524 . S
C1534 C1535 1.415 . S
C1535 H1505 0.950 . S
C1535 C1530 1.363 . S
C1535 C1534 1.415 . S
H1536 C1533 0.999 . S
H1537 C1518 0.913 . S
H1538 C1556 0.951 . S
H1539 C1558 0.951 . S
H1540 C1560 0.950 . S
H1541 C1561 0.950 . S
H1542 C1563 0.950 . S
H1543 C1566 0.950 . S
H1544 C1567 0.950 . S
H1545 C1569 0.950 . S
H1546 C1570 0.950 . S
H1547 C1571 0.951 . S
H1548 C1573 0.951 . S
H1549 C1575 0.950 . S
H1550 C1576 0.950 . S
H1551 C1578 0.950 . S
H1552 C1581 0.950 . S
H1553 C1582 0.950 . S
H1554 C1584 0.950 . S
H1555 C1585 0.950 . S
C1556 H1538 0.951 . S
C1556 C1557 1.366 . S
C1556 C1558 1.388 . S
C1557 C1556 1.366 . S
C1557 C1561 1.385 . S
C1558 H1539 0.951 . S
C1558 C1556 1.388 . S
C1558 C1559 1.366 . S
C1559 C1558 1.366 . S
C1559 C1560 1.414 . S
C1559 C1562 1.499 . S
C1560 H1540 0.950 . S
C1560 C1559 1.414 . S
C1560 C1561 1.374 . S
C1561 H1541 0.950 . S
C1561 C1557 1.385 . S
C1561 C1560 1.374 . S
C1562 C1559 1.499 . S
C1562 C1563 1.373 . S
C1562 C1564 1.389 . S
C1563 H1542 0.950 . S
C1563 C1562 1.373 . S
C1563 C1579 1.377 . S
C1564 C1562 1.389 . S
C1564 C1565 1.524 . S
C1564 C1578 1.377 . S
C1565 C1564 1.524 . S
C1565 C1566 1.397 . S
C1565 C1570 1.363 . S
C1566 H1543 0.950 . S
C1566 C1565 1.397 . S
C1566 C1567 1.334 . S
C1567 H1544 0.950 . S
C1567 C1566 1.334 . S
C1567 C1568 1.287 . S
C1568 C1567 1.287 . S
C1568 C1569 1.524 . S
C1568 H1587 0.913 . S
C1569 H1545 0.950 . S
C1569 C1568 1.524 . S
C1569 C1570 1.415 . S
C1570 H1546 0.950 . S
C1570 C1565 1.363 . S
C1570 C1569 1.415 . S
C1571 H1547 0.951 . S
C1571 C1572 1.366 . S
C1571 C1573 1.388 . S
C1572 C1571 1.366 . S
C1572 C1576 1.385 . S
C1573 H1548 0.951 . S
C1573 C1571 1.388 . S
C1573 C1574 1.366 . S
C1574 C1573 1.366 . S
C1574 C1575 1.414 . S
C1574 C1577 1.499 . S
C1575 H1549 0.950 . S
C1575 C1574 1.414 . S
C1575 C1576 1.374 . S
C1576 H1550 0.950 . S
C1576 C1572 1.385 . S
C1576 C1575 1.374 . S
C1577 C1574 1.499 . S
C1577 C1578 1.373 . S
C1577 C1579 1.389 . S
C1578 H1551 0.950 . S
C1578 C1564 1.377 . S
C1578 C1577 1.373 . S
C1579 C1563 1.377 . S
C1579 C1577 1.389 . S
C1579 C1580 1.524 . S
C1580 C1579 1.524 . S
C1580 C1581 1.397 . S
C1580 C1585 1.363 . S
C1581 H1552 0.950 . S
C1581 C1580 1.397 . S
C1581 C1582 1.334 . S
C1582 H1553 0.950 . S
C1582 C1581 1.334 . S
C1582 C1583 1.287 . S
C1583 C1582 1.287 . S
C1583 C1584 1.524 . S
C1583 H1586 0.999 . S
C1584 H1554 0.950 . S
C1584 C1583 1.524 . S
C1584 C1585 1.415 . S
C1585 H1555 0.950 . S
C1585 C1580 1.363 . S
C1585 C1584 1.415 . S
H1586 C1583 0.999 . S
H1587 C1568 0.913 . S
H1588 C1606 0.951 . S
H1589 C1608 0.951 . S
H1590 C1610 0.950 . S
H1591 C1611 0.950 . S
H1592 C1613 0.950 . S
H1593 C1616 0.950 . S
H1594 C1617 0.950 . S
H1595 C1619 0.950 . S
H1596 C1620 0.950 . S
H1597 C1621 0.951 . S
H1598 C1623 0.951 . S
H1599 C1625 0.950 . S
H1600 C1626 0.950 . S
H1601 C1628 0.950 . S
H1602 C1631 0.950 . S
H1603 C1632 0.950 . S
H1604 C1634 0.950 . S
H1605 C1635 0.950 . S
C1606 H1588 0.951 . S
C1606 C1607 1.366 . S
C1606 C1608 1.388 . S
C1607 C1606 1.366 . S
C1607 C1611 1.385 . S
C1608 H1589 0.951 . S
C1608 C1606 1.388 . S
C1608 C1609 1.366 . S
C1609 C1608 1.366 . S
C1609 C1610 1.414 . S
C1609 C1612 1.499 . S
C1610 H1590 0.950 . S
C1610 C1609 1.414 . S
C1610 C1611 1.374 . S
C1611 H1591 0.950 . S
C1611 C1607 1.385 . S
C1611 C1610 1.374 . S
C1612 C1609 1.499 . S
C1612 C1613 1.373 . S
C1612 C1614 1.389 . S
C1613 H1592 0.950 . S
C1613 C1612 1.373 . S
C1613 C1629 1.377 1_455 S
C1614 C1612 1.389 . S
C1614 C1615 1.524 . S
C1614 C1628 1.377 . S
C1615 C1614 1.524 . S
C1615 C1616 1.397 . S
C1615 C1620 1.363 . S
C1616 H1593 0.950 . S
C1616 C1615 1.397 . S
C1616 C1617 1.334 . S
C1617 H1594 0.950 . S
C1617 C1616 1.334 . S
C1617 C1618 1.287 . S
C1618 C1617 1.287 . S
C1618 C1619 1.524 . S
C1618 H1637 0.913 . S
C1619 H1595 0.950 . S
C1619 C1618 1.524 . S
C1619 C1620 1.415 . S
C1620 H1596 0.950 . S
C1620 C1615 1.363 . S
C1620 C1619 1.415 . S
C1621 H1597 0.951 . S
C1621 C1622 1.366 . S
C1621 C1623 1.388 . S
C1622 C1621 1.366 . S
C1622 C1626 1.385 . S
C1623 H1598 0.951 . S
C1623 C1621 1.388 . S
C1623 C1624 1.366 . S
C1624 C1623 1.366 . S
C1624 C1625 1.414 . S
C1624 C1627 1.499 . S
C1625 H1599 0.950 . S
C1625 C1624 1.414 . S
C1625 C1626 1.374 . S
C1626 H1600 0.950 . S
C1626 C1622 1.385 . S
C1626 C1625 1.374 . S
C1627 C1624 1.499 . S
C1627 C1628 1.373 1_655 S
C1627 C1629 1.389 . S
C1628 H1601 0.950 . S
C1628 C1614 1.377 . S
C1628 C1627 1.373 1_455 S
C1629 C1613 1.377 1_655 S
C1629 C1627 1.389 . S
C1629 C1630 1.524 . S
C1630 C1629 1.524 . S
C1630 C1631 1.397 . S
C1630 C1635 1.363 . S
C1631 H1602 0.950 . S
C1631 C1630 1.397 . S
C1631 C1632 1.334 . S
C1632 H1603 0.950 . S
C1632 C1631 1.334 . S
C1632 C1633 1.287 . S
C1633 C1632 1.287 . S
C1633 C1634 1.524 . S
C1633 H1636 0.999 . S
C1634 H1604 0.950 . S
C1634 C1633 1.524 . S
C1634 C1635 1.415 . S
C1635 H1605 0.950 . S
C1635 C1630 1.363 . S
C1635 C1634 1.415 . S
H1636 C1633 0.999 . S
H1637 C1618 0.913 . S
H1638 C1656 0.951 . S
H1639 C1658 0.951 . S
H1640 C1660 0.950 . S
H1641 C1661 0.950 . S
H1642 C1663 0.950 . S
H1643 C1666 0.950 . S
H1644 C1667 0.950 . S
H1645 C1669 0.950 . S
H1646 C1670 0.950 . S
H1647 C1671 0.951 . S
H1648 C1673 0.951 . S
H1649 C1675 0.950 . S
H1650 C1676 0.950 . S
H1651 C1678 0.950 . S
H1652 C1681 0.950 . S
H1653 C1682 0.950 . S
H1654 C1684 0.950 . S
H1655 C1685 0.950 . S
C1656 H1638 0.951 . S
C1656 C1657 1.366 . S
C1656 C1658 1.388 . S
C1657 C1656 1.366 . S
C1657 C1661 1.385 . S
C1658 H1639 0.951 . S
C1658 C1656 1.388 . S
C1658 C1659 1.366 . S
C1659 C1658 1.366 . S
C1659 C1660 1.414 . S
C1659 C1662 1.499 . S
C1660 H1640 0.950 . S
C1660 C1659 1.414 . S
C1660 C1661 1.374 . S
C1661 H1641 0.950 . S
C1661 C1657 1.385 . S
C1661 C1660 1.374 . S
C1662 C1659 1.499 . S
C1662 C1663 1.373 . S
C1662 C1664 1.389 . S
C1663 H1642 0.950 . S
C1663 C1662 1.373 . S
C1663 C1679 1.377 . S
C1664 C1662 1.389 . S
C1664 C1665 1.524 . S
C1664 C1678 1.377 . S
C1665 C1664 1.524 . S
C1665 C1666 1.397 . S
C1665 C1670 1.363 . S
C1666 H1643 0.950 . S
C1666 C1665 1.397 . S
C1666 C1667 1.334 . S
C1667 H1644 0.950 . S
C1667 C1666 1.334 . S
C1667 C1668 1.287 . S
C1668 C1667 1.287 . S
C1668 C1669 1.524 . S
C1668 H1687 0.913 . S
C1669 H1645 0.950 . S
C1669 C1668 1.524 . S
C1669 C1670 1.415 . S
C1670 H1646 0.950 . S
C1670 C1665 1.363 . S
C1670 C1669 1.415 . S
C1671 H1647 0.951 . S
C1671 C1672 1.366 . S
C1671 C1673 1.388 . S
C1672 C1671 1.366 . S
C1672 C1676 1.385 . S
C1673 H1648 0.951 . S
C1673 C1671 1.388 . S
C1673 C1674 1.366 . S
C1674 C1673 1.366 . S
C1674 C1675 1.414 . S
C1674 C1677 1.499 . S
C1675 H1649 0.950 . S
C1675 C1674 1.414 . S
C1675 C1676 1.374 . S
C1676 H1650 0.950 . S
C1676 C1672 1.385 . S
C1676 C1675 1.374 . S
C1677 C1674 1.499 . S
C1677 C1678 1.373 . S
C1677 C1679 1.389 . S
C1678 H1651 0.950 . S
C1678 C1664 1.377 . S
C1678 C1677 1.373 . S
C1679 C1663 1.377 . S
C1679 C1677 1.389 . S
C1679 C1680 1.524 . S
C1680 C1679 1.524 . S
C1680 C1681 1.397 . S
C1680 C1685 1.363 . S
C1681 H1652 0.950 . S
C1681 C1680 1.397 . S
C1681 C1682 1.334 . S
C1682 H1653 0.950 . S
C1682 C1681 1.334 . S
C1682 C1683 1.287 . S
C1683 C1682 1.287 . S
C1683 C1684 1.524 . S
C1683 H1686 0.999 . S
C1684 H1654 0.950 . S
C1684 C1683 1.524 . S
C1684 C1685 1.415 . S
C1685 H1655 0.950 . S
C1685 C1680 1.363 . S
C1685 C1684 1.415 . S
H1686 C1683 0.999 . S
H1687 C1668 0.913 . S
H1688 C1706 0.951 . S
H1689 C1708 0.951 . S
H1690 C1710 0.950 . S
H1691 C1711 0.950 . S
H1692 C1713 0.950 . S
H1693 C1716 0.950 . S
H1694 C1717 0.950 . S
H1695 C1719 0.950 . S
H1696 C1720 0.950 . S
H1697 C1721 0.951 . S
H1698 C1723 0.951 . S
H1699 C1725 0.950 . S
H1700 C1726 0.950 . S
H1701 C1728 0.949 1_455 S
H1702 C1731 0.950 . S
H1703 C1732 0.950 . S
H1704 C1734 0.950 . S
H1705 C1735 0.950 1_655 S
C1706 H1688 0.951 . S
C1706 C1707 1.366 . S
C1706 C1708 1.388 . S
C1707 C1706 1.366 . S
C1707 C1711 1.385 . S
C1708 H1689 0.951 . S
C1708 C1706 1.388 . S
C1708 C1709 1.366 . S
C1709 C1708 1.366 . S
C1709 C1710 1.414 . S
C1709 C1712 1.499 . S
C1710 H1690 0.950 . S
C1710 C1709 1.414 . S
C1710 C1711 1.374 . S
C1711 H1691 0.950 . S
C1711 C1707 1.385 . S
C1711 C1710 1.374 . S
C1712 C1709 1.499 . S
C1712 C1713 1.373 . S
C1712 C1714 1.389 . S
C1713 H1692 0.950 . S
C1713 C1712 1.373 . S
C1713 C1729 1.377 1_655 S
C1714 C1712 1.389 . S
C1714 C1715 1.524 . S
C1714 C1728 1.380 . S
C1715 C1714 1.524 . S
C1715 C1716 1.397 . S
C1715 C1720 1.363 . S
C1716 H1693 0.950 . S
C1716 C1715 1.397 . S
C1716 C1717 1.334 . S
C1717 H1694 0.950 . S
C1717 C1716 1.334 . S
C1717 C1718 1.287 . S
C1718 C1717 1.287 . S
C1718 C1719 1.524 . S
C1718 H1737 0.913 . S
C1719 H1695 0.950 . S
C1719 C1718 1.524 . S
C1719 C1720 1.415 . S
C1720 H1696 0.950 . S
C1720 C1715 1.363 . S
C1720 C1719 1.415 . S
C1721 H1697 0.951 . S
C1721 C1722 1.366 . S
C1721 C1723 1.388 . S
C1722 C1721 1.366 . S
C1722 C1726 1.385 . S
C1723 H1698 0.951 . S
C1723 C1721 1.388 . S
C1723 C1724 1.366 . S
C1724 C1723 1.366 . S
C1724 C1725 1.414 . S
C1724 C1727 1.499 . S
C1725 H1699 0.950 . S
C1725 C1724 1.414 . S
C1725 C1726 1.374 . S
C1726 H1700 0.950 . S
C1726 C1722 1.385 . S
C1726 C1725 1.374 . S
C1727 C1724 1.499 . S
C1727 C1728 1.371 1_455 S
C1727 C1729 1.389 . S
C1728 H1701 0.949 1_655 S
C1728 C1714 1.380 . S
C1728 C1727 1.371 1_655 S
C1729 C1713 1.377 1_455 S
C1729 C1727 1.389 . S
C1729 C1730 1.524 . S
C1730 C1729 1.524 . S
C1730 C1731 1.397 . S
C1730 C1735 1.363 . S
C1731 H1702 0.950 . S
C1731 C1730 1.397 . S
C1731 C1732 1.334 . S
C1732 H1703 0.950 . S
C1732 C1731 1.334 . S
C1732 C1733 1.287 . S
C1733 C1732 1.287 . S
C1733 C1734 1.524 . S
C1733 H1736 0.999 . S
C1734 H1704 0.950 . S
C1734 C1733 1.524 . S
C1734 C1735 1.415 . S
C1735 H1705 0.950 1_455 S
C1735 C1730 1.363 . S
C1735 C1734 1.415 . S
H1736 C1733 0.999 . S
H1737 C1718 0.913 . S
H1738 C1756 0.951 . S
H1739 C1758 0.951 . S
H1740 C1760 0.950 . S
H1741 C1761 0.950 . S
H1742 C1763 0.950 . S
H1743 C1766 0.950 . S
H1744 C1767 0.950 . S
H1745 C1769 0.950 . S
H1746 C1770 0.950 . S
H1747 C1771 0.951 . S
H1748 C1773 0.951 . S
H1749 C1775 0.950 . S
H1750 C1776 0.950 . S
H1751 C1778 0.950 . S
H1752 C1781 0.950 . S
H1753 C1782 0.950 . S
H1754 C1784 0.950 . S
H1755 C1785 0.950 . S
C1756 H1738 0.951 . S
C1756 C1757 1.366 . S
C1756 C1758 1.388 . S
C1757 C1756 1.366 . S
C1757 C1761 1.385 . S
C1758 H1739 0.951 . S
C1758 C1756 1.388 . S
C1758 C1759 1.366 . S
C1759 C1758 1.366 . S
C1759 C1760 1.414 . S
C1759 C1762 1.499 . S
C1760 H1740 0.950 . S
C1760 C1759 1.414 . S
C1760 C1761 1.374 . S
C1761 H1741 0.950 . S
C1761 C1757 1.385 . S
C1761 C1760 1.374 . S
C1762 C1759 1.499 . S
C1762 C1763 1.373 . S
C1762 C1764 1.389 . S
C1763 H1742 0.950 . S
C1763 C1762 1.373 . S
C1763 C1779 1.377 . S
C1764 C1762 1.389 . S
C1764 C1765 1.524 . S
C1764 C1778 1.377 . S
C1765 C1764 1.524 . S
C1765 C1766 1.397 . S
C1765 C1770 1.363 . S
C1766 H1743 0.950 . S
C1766 C1765 1.397 . S
C1766 C1767 1.334 . S
C1767 H1744 0.950 . S
C1767 C1766 1.334 . S
C1767 C1768 1.287 . S
C1768 C1767 1.287 . S
C1768 C1769 1.524 . S
C1768 H1787 0.913 . S
C1769 H1745 0.950 . S
C1769 C1768 1.524 . S
C1769 C1770 1.415 . S
C1770 H1746 0.950 . S
C1770 C1765 1.363 . S
C1770 C1769 1.415 . S
C1771 H1747 0.951 . S
C1771 C1772 1.366 . S
C1771 C1773 1.388 . S
C1772 C1771 1.366 . S
C1772 C1776 1.385 . S
C1773 H1748 0.951 . S
C1773 C1771 1.388 . S
C1773 C1774 1.366 . S
C1774 C1773 1.366 . S
C1774 C1775 1.414 . S
C1774 C1777 1.499 . S
C1775 H1749 0.950 . S
C1775 C1774 1.414 . S
C1775 C1776 1.374 . S
C1776 H1750 0.950 . S
C1776 C1772 1.385 . S
C1776 C1775 1.374 . S
C1777 C1774 1.499 . S
C1777 C1778 1.373 . S
C1777 C1779 1.389 . S
C1778 H1751 0.950 . S
C1778 C1764 1.377 . S
C1778 C1777 1.373 . S
C1779 C1763 1.377 . S
C1779 C1777 1.389 . S
C1779 C1780 1.524 . S
C1780 C1779 1.524 . S
C1780 C1781 1.397 . S
C1780 C1785 1.363 . S
C1781 H1752 0.950 . S
C1781 C1780 1.397 . S
C1781 C1782 1.334 . S
C1782 H1753 0.950 . S
C1782 C1781 1.334 . S
C1782 C1783 1.287 . S
C1783 C1782 1.287 . S
C1783 C1784 1.524 . S
C1783 H1786 0.999 . S
C1784 H1754 0.950 . S
C1784 C1783 1.524 . S
C1784 C1785 1.415 . S
C1785 H1755 0.950 . S
C1785 C1780 1.363 . S
C1785 C1784 1.415 . S
H1786 C1783 0.999 . S
H1787 C1768 0.913 . S
H1788 C1806 0.951 . S
H1789 C1808 0.951 . S
H1790 C1810 0.950 . S
H1791 C1811 0.950 . S
H1792 C1813 0.950 . S
H1793 C1816 0.950 . S
H1794 C1817 0.950 . S
H1795 C1819 0.950 . S
H1796 C1820 0.950 . S
H1797 C1821 0.951 . S
H1798 C1823 0.951 . S
H1799 C1825 0.950 . S
H1800 C1826 0.950 . S
H1801 C1828 0.950 . S
H1802 C1831 0.950 1_655 S
H1803 C1832 0.971 . S
H1804 C1834 0.950 . S
H1805 C1835 0.950 . S
C1806 H1788 0.951 . S
C1806 C1807 1.366 . S
C1806 C1808 1.388 . S
C1807 C1806 1.366 . S
C1807 C1811 1.385 . S
C1808 H1789 0.951 . S
C1808 C1806 1.388 . S
C1808 C1809 1.366 . S
C1809 C1808 1.366 . S
C1809 C1810 1.414 . S
C1809 C1812 1.499 . S
C1810 H1790 0.950 . S
C1810 C1809 1.414 . S
C1810 C1811 1.374 . S
C1811 H1791 0.950 . S
C1811 C1807 1.385 . S
C1811 C1810 1.374 . S
C1812 C1809 1.499 . S
C1812 C1813 1.373 . S
C1812 C1814 1.389 . S
C1813 H1792 0.950 . S
C1813 C1812 1.373 . S
C1813 C1829 1.377 . S
C1814 C1812 1.389 . S
C1814 C1815 1.524 . S
C1814 C1828 1.377 1_455 S
C1815 C1814 1.524 . S
C1815 C1816 1.397 . S
C1815 C1820 1.363 1_455 S
C1816 H1793 0.950 . S
C1816 C1815 1.397 . S
C1816 C1817 1.334 . S
C1817 H1794 0.950 . S
C1817 C1816 1.334 . S
C1817 C1818 1.287 1_455 S
C1818 C1817 1.287 1_655 S
C1818 C1819 1.524 . S
C1818 H1837 0.913 . S
C1819 H1795 0.950 . S
C1819 C1818 1.524 . S
C1819 C1820 1.415 . S
C1820 H1796 0.950 . S
C1820 C1815 1.363 1_655 S
C1820 C1819 1.415 . S
C1821 H1797 0.951 . S
C1821 C1822 1.366 . S
C1821 C1823 1.388 . S
C1822 C1821 1.366 . S
C1822 C1826 1.385 . S
C1823 H1798 0.951 . S
C1823 C1821 1.388 . S
C1823 C1824 1.366 . S
C1824 C1823 1.366 . S
C1824 C1825 1.414 . S
C1824 C1827 1.499 . S
C1825 H1799 0.950 . S
C1825 C1824 1.414 . S
C1825 C1826 1.374 . S
C1826 H1800 0.950 . S
C1826 C1822 1.385 . S
C1826 C1825 1.374 . S
C1827 C1824 1.499 . S
C1827 C1828 1.373 . S
C1827 C1829 1.389 1_655 S
C1828 H1801 0.950 . S
C1828 C1814 1.377 1_655 S
C1828 C1827 1.373 . S
C1829 C1813 1.377 . S
C1829 C1827 1.389 1_455 S
C1829 C1830 1.524 . S
C1830 C1829 1.524 . S
C1830 C1831 1.397 . S
C1830 C1835 1.363 . S
C1831 H1802 0.950 1_455 S
C1831 C1830 1.397 . S
C1831 C1832 1.334 . S
C1832 H1803 0.971 . S
C1832 C1831 1.334 . S
C1832 C1833 1.287 . S
C1833 C1832 1.287 . S
C1833 C1834 1.524 . S
C1833 H1836 0.999 . S
C1834 H1804 0.950 . S
C1834 C1833 1.524 . S
C1834 C1835 1.415 . S
C1835 H1805 0.950 . S
C1835 C1830 1.363 . S
C1835 C1834 1.415 . S
H1836 C1833 0.999 . S
H1837 C1818 0.913 . S
H1838 C1856 0.951 . S
H1839 C1858 0.951 . S
H1840 C1860 0.950 . S
H1841 C1861 0.950 . S
H1842 C1863 0.950 . S
H1843 C1866 0.950 . S
H1844 C1867 0.950 . S
H1845 C1869 0.950 . S
H1846 C1870 0.950 . S
H1847 C1871 0.951 . S
H1848 C1873 0.951 . S
H1849 C1875 0.950 . S
H1850 C1876 0.950 . S
H1851 C1878 0.950 . S
H1852 C1881 0.950 . S
H1853 C1882 0.950 . S
H1854 C1884 0.950 . S
H1855 C1885 0.950 . S
C1856 H1838 0.951 . S
C1856 C1857 1.366 . S
C1856 C1858 1.388 . S
C1857 C1856 1.366 . S
C1857 C1861 1.385 . S
C1858 H1839 0.951 . S
C1858 C1856 1.388 . S
C1858 C1859 1.366 . S
C1859 C1858 1.366 . S
C1859 C1860 1.414 . S
C1859 C1862 1.499 . S
C1860 H1840 0.950 . S
C1860 C1859 1.414 . S
C1860 C1861 1.374 . S
C1861 H1841 0.950 . S
C1861 C1857 1.385 . S
C1861 C1860 1.374 . S
C1862 C1859 1.499 . S
C1862 C1863 1.373 . S
C1862 C1864 1.389 . S
C1863 H1842 0.950 . S
C1863 C1862 1.373 . S
C1863 C1879 1.377 . S
C1864 C1862 1.389 . S
C1864 C1865 1.524 . S
C1864 C1878 1.377 . S
C1865 C1864 1.524 . S
C1865 C1866 1.397 . S
C1865 C1870 1.363 . S
C1866 H1843 0.950 . S
C1866 C1865 1.397 . S
C1866 C1867 1.334 . S
C1867 H1844 0.950 . S
C1867 C1866 1.334 . S
C1867 C1868 1.287 . S
C1868 C1867 1.287 . S
C1868 C1869 1.524 . S
C1868 H1887 0.913 . S
C1869 H1845 0.950 . S
C1869 C1868 1.524 . S
C1869 C1870 1.415 . S
C1870 H1846 0.950 . S
C1870 C1865 1.363 . S
C1870 C1869 1.415 . S
C1871 H1847 0.951 . S
C1871 C1872 1.366 . S
C1871 C1873 1.388 . S
C1872 C1871 1.366 . S
C1872 C1876 1.385 . S
C1873 H1848 0.951 . S
C1873 C1871 1.388 . S
C1873 C1874 1.366 . S
C1874 C1873 1.366 . S
C1874 C1875 1.414 . S
C1874 C1877 1.499 . S
C1875 H1849 0.950 . S
C1875 C1874 1.414 . S
C1875 C1876 1.374 . S
C1876 H1850 0.950 . S
C1876 C1872 1.385 . S
C1876 C1875 1.374 . S
C1877 C1874 1.499 . S
C1877 C1878 1.373 . S
C1877 C1879 1.389 . S
C1878 H1851 0.950 . S
C1878 C1864 1.377 . S
C1878 C1877 1.373 . S
C1879 C1863 1.377 . S
C1879 C1877 1.389 . S
C1879 C1880 1.524 . S
C1880 C1879 1.524 . S
C1880 C1881 1.397 . S
C1880 C1885 1.363 . S
C1881 H1852 0.950 . S
C1881 C1880 1.397 . S
C1881 C1882 1.334 . S
C1882 H1853 0.950 . S
C1882 C1881 1.334 . S
C1882 C1883 1.287 . S
C1883 C1882 1.287 . S
C1883 C1884 1.524 . S
C1883 H1886 0.999 . S
C1884 H1854 0.950 . S
C1884 C1883 1.524 . S
C1884 C1885 1.415 . S
C1885 H1855 0.950 . S
C1885 C1880 1.363 . S
C1885 C1884 1.415 . S
H1886 C1883 0.999 . S
H1887 C1868 0.913 . S
H1888 C1906 0.951 . S
H1889 C1908 0.951 . S
H1890 C1910 0.950 . S
H1891 C1911 0.950 . S
H1892 C1913 0.950 . S
H1893 C1916 0.950 . S
H1894 C1917 0.950 . S
H1895 C1919 0.950 . S
H1896 C1920 0.950 . S
H1897 C1921 0.951 . S
H1898 C1923 0.951 . S
H1899 C1925 0.950 . S
H1900 C1926 0.950 . S
H1901 C1928 0.950 . S
H1902 C1931 0.950 . S
H1903 C1932 0.950 . S
H1904 C1934 0.950 . S
H1905 C1935 0.950 . S
C1906 H1888 0.951 . S
C1906 C1907 1.366 . S
C1906 C1908 1.388 . S
C1907 C1906 1.366 . S
C1907 C1911 1.385 . S
C1908 H1889 0.951 . S
C1908 C1906 1.388 . S
C1908 C1909 1.366 . S
C1909 C1908 1.366 . S
C1909 C1910 1.414 . S
C1909 C1912 1.499 . S
C1910 H1890 0.950 . S
C1910 C1909 1.414 . S
C1910 C1911 1.374 . S
C1911 H1891 0.950 . S
C1911 C1907 1.385 . S
C1911 C1910 1.374 . S
C1912 C1909 1.499 . S
C1912 C1913 1.373 . S
C1912 C1914 1.389 . S
C1913 H1892 0.950 . S
C1913 C1912 1.373 . S
C1913 C1929 1.377 . S
C1914 C1912 1.389 . S
C1914 C1915 1.524 . S
C1914 C1928 1.377 . S
C1915 C1914 1.524 . S
C1915 C1916 1.397 . S
C1915 C1920 1.363 . S
C1916 H1893 0.950 . S
C1916 C1915 1.397 . S
C1916 C1917 1.334 . S
C1917 H1894 0.950 . S
C1917 C1916 1.334 . S
C1917 C1918 1.287 . S
C1918 C1917 1.287 . S
C1918 C1919 1.524 . S
C1918 H1937 0.913 . S
C1919 H1895 0.950 . S
C1919 C1918 1.524 . S
C1919 C1920 1.415 . S
C1920 H1896 0.950 . S
C1920 C1915 1.363 . S
C1920 C1919 1.415 . S
C1921 H1897 0.951 . S
C1921 C1922 1.366 . S
C1921 C1923 1.388 . S
C1922 C1921 1.366 . S
C1922 C1926 1.385 . S
C1923 H1898 0.951 . S
C1923 C1921 1.388 . S
C1923 C1924 1.366 . S
C1924 C1923 1.366 . S
C1924 C1925 1.414 . S
C1924 C1927 1.499 . S
C1925 H1899 0.950 . S
C1925 C1924 1.414 . S
C1925 C1926 1.374 . S
C1926 H1900 0.950 . S
C1926 C1922 1.385 . S
C1926 C1925 1.374 . S
C1927 C1924 1.499 . S
C1927 C1928 1.373 . S
C1927 C1929 1.389 . S
C1928 H1901 0.950 . S
C1928 C1914 1.377 . S
C1928 C1927 1.373 . S
C1929 C1913 1.377 . S
C1929 C1927 1.389 . S
C1929 C1930 1.524 . S
C1930 C1929 1.524 . S
C1930 C1931 1.397 . S
C1930 C1935 1.363 . S
C1931 H1902 0.950 . S
C1931 C1930 1.397 . S
C1931 C1932 1.334 . S
C1932 H1903 0.950 . S
C1932 C1931 1.334 . S
C1932 C1933 1.287 . S
C1933 C1932 1.287 . S
C1933 C1934 1.524 . S
C1933 H1936 0.999 . S
C1934 H1904 0.950 . S
C1934 C1933 1.524 . S
C1934 C1935 1.415 . S
C1935 H1905 0.950 . S
C1935 C1930 1.363 . S
C1935 C1934 1.415 . S
H1936 C1933 0.999 . S
H1937 C1918 0.913 . S
H1938 C1956 0.951 . S
H1939 C1958 0.951 . S
H1940 C1960 0.950 . S
H1941 C1961 0.950 . S
H1942 C1963 0.950 . S
H1943 C1966 0.950 . S
H1944 C1967 0.950 . S
H1945 C1969 0.950 . S
H1946 C1970 0.950 . S
H1947 C1971 0.951 . S
H1948 C1973 0.951 . S
H1949 C1975 0.950 . S
H1950 C1976 0.950 . S
H1951 C1978 0.950 . S
H1952 C1981 0.950 . S
H1953 C1982 0.950 . S
H1954 C1984 0.950 . S
H1955 C1985 0.950 . S
C1956 H1938 0.951 . S
C1956 C1957 1.366 . S
C1956 C1958 1.388 . S
C1957 C1956 1.366 . S
C1957 C1961 1.385 . S
C1958 H1939 0.951 . S
C1958 C1956 1.388 . S
C1958 C1959 1.366 . S
C1959 C1958 1.366 . S
C1959 C1960 1.414 . S
C1959 C1962 1.499 . S
C1960 H1940 0.950 . S
C1960 C1959 1.414 . S
C1960 C1961 1.374 . S
C1961 H1941 0.950 . S
C1961 C1957 1.385 . S
C1961 C1960 1.374 . S
C1962 C1959 1.499 . S
C1962 C1963 1.373 . S
C1962 C1964 1.389 . S
C1963 H1942 0.950 . S
C1963 C1962 1.373 . S
C1963 C1979 1.377 . S
C1964 C1962 1.389 . S
C1964 C1965 1.524 . S
C1964 C1978 1.377 . S
C1965 C1964 1.524 . S
C1965 C1966 1.397 . S
C1965 C1970 1.363 . S
C1966 H1943 0.950 . S
C1966 C1965 1.397 . S
C1966 C1967 1.334 1_655 S
C1967 H1944 0.950 . S
C1967 C1966 1.334 1_455 S
C1967 C1968 1.287 . S
C1968 C1967 1.287 . S
C1968 C1969 1.524 . S
C1968 H1987 0.913 . S
C1969 H1945 0.950 . S
C1969 C1968 1.524 . S
C1969 C1970 1.415 1_455 S
C1970 H1946 0.950 . S
C1970 C1965 1.363 . S
C1970 C1969 1.415 1_655 S
C1971 H1947 0.951 . S
C1971 C1972 1.366 . S
C1971 C1973 1.388 . S
C1972 C1971 1.366 . S
C1972 C1976 1.385 . S
C1973 H1948 0.951 . S
C1973 C1971 1.388 . S
C1973 C1974 1.366 . S
C1974 C1973 1.366 . S
C1974 C1975 1.414 . S
C1974 C1977 1.499 . S
C1975 H1949 0.950 . S
C1975 C1974 1.414 . S
C1975 C1976 1.374 . S
C1976 H1950 0.950 . S
C1976 C1972 1.385 . S
C1976 C1975 1.374 . S
C1977 C1974 1.499 . S
C1977 C1978 1.373 . S
C1977 C1979 1.389 . S
C1978 H1951 0.950 . S
C1978 C1964 1.377 . S
C1978 C1977 1.373 . S
C1979 C1963 1.377 . S
C1979 C1977 1.389 . S
C1979 C1980 1.524 . S
C1980 C1979 1.524 . S
C1980 C1981 1.397 . S
C1980 C1985 1.363 . S
C1981 H1952 0.950 . S
C1981 C1980 1.397 . S
C1981 C1982 1.334 . S
C1982 H1953 0.950 . S
C1982 C1981 1.334 . S
C1982 C1983 1.287 . S
C1983 C1982 1.287 . S
C1983 C1984 1.524 . S
C1983 H1986 0.999 . S
C1984 H1954 0.950 . S
C1984 C1983 1.524 . S
C1984 C1985 1.415 . S
C1985 H1955 0.950 . S
C1985 C1980 1.363 . S
C1985 C1984 1.415 . S
H1986 C1983 0.999 . S
H1987 C1968 0.913 . S
H1988 C2006 0.951 . S
H1989 C2008 0.951 . S
H1990 C2010 0.950 . S
H1991 C2011 0.950 . S
H1992 C2013 0.950 . S
H1993 C2016 0.950 . S
H1994 C2017 0.950 . S
H1995 C2019 0.950 . S
H1996 C2020 0.950 . S
H1997 C2021 0.951 . S
H1998 C2023 0.951 . S
H1999 C2025 0.950 . S
H2000 C2026 0.950 . S
H2001 C2028 0.950 . S
H2002 C2031 0.950 . S
H2003 C2032 0.950 . S
H2004 C2034 0.950 . S
H2005 C2035 0.950 . S
C2006 H1988 0.951 . S
C2006 C2007 1.366 . S
C2006 C2008 1.388 . S
C2007 C2006 1.366 . S
C2007 C2011 1.385 . S
C2008 H1989 0.951 . S
C2008 C2006 1.388 . S
C2008 C2009 1.366 . S
C2009 C2008 1.366 . S
C2009 C2010 1.414 . S
C2009 C2012 1.499 . S
C2010 H1990 0.950 . S
C2010 C2009 1.414 . S
C2010 C2011 1.374 . S
C2011 H1991 0.950 . S
C2011 C2007 1.385 . S
C2011 C2010 1.374 . S
C2012 C2009 1.499 . S
C2012 C2013 1.373 . S
C2012 C2014 1.389 . S
C2013 H1992 0.950 . S
C2013 C2012 1.373 . S
C2013 C2029 1.377 . S
C2014 C2012 1.389 . S
C2014 C2015 1.524 . S
C2014 C2028 1.377 . S
C2015 C2014 1.524 . S
C2015 C2016 1.397 . S
C2015 C2020 1.363 . S
C2016 H1993 0.950 . S
C2016 C2015 1.397 . S
C2016 C2017 1.334 . S
C2017 H1994 0.950 . S
C2017 C2016 1.334 . S
C2017 C2018 1.287 . S
C2018 C2017 1.287 . S
C2018 C2019 1.524 . S
C2018 H2037 0.913 . S
C2019 H1995 0.950 . S
C2019 C2018 1.524 . S
C2019 C2020 1.415 . S
C2020 H1996 0.950 . S
C2020 C2015 1.363 . S
C2020 C2019 1.415 . S
C2021 H1997 0.951 . S
C2021 C2022 1.366 . S
C2021 C2023 1.388 . S
C2022 C2021 1.366 . S
C2022 C2026 1.385 . S
C2023 H1998 0.951 . S
C2023 C2021 1.388 . S
C2023 C2024 1.366 . S
C2024 C2023 1.366 . S
C2024 C2025 1.414 . S
C2024 C2027 1.499 . S
C2025 H1999 0.950 . S
C2025 C2024 1.414 . S
C2025 C2026 1.374 . S
C2026 H2000 0.950 . S
C2026 C2022 1.385 . S
C2026 C2025 1.374 . S
C2027 C2024 1.499 . S
C2027 C2028 1.373 . S
C2027 C2029 1.389 . S
C2028 H2001 0.950 . S
C2028 C2014 1.377 . S
C2028 C2027 1.373 . S
C2029 C2013 1.377 . S
C2029 C2027 1.389 . S
C2029 C2030 1.524 . S
C2030 C2029 1.524 . S
C2030 C2031 1.397 . S
C2030 C2035 1.363 . S
C2031 H2002 0.950 . S
C2031 C2030 1.397 . S
C2031 C2032 1.334 . S
C2032 H2003 0.950 . S
C2032 C2031 1.334 . S
C2032 C2033 1.287 . S
C2033 C2032 1.287 . S
C2033 C2034 1.524 . S
C2033 H2036 0.999 . S
C2034 H2004 0.950 . S
C2034 C2033 1.524 . S
C2034 C2035 1.415 . S
C2035 H2005 0.950 . S
C2035 C2030 1.363 . S
C2035 C2034 1.415 . S
H2036 C2033 0.999 . S
H2037 C2018 0.913 . S
H2038 C2056 0.951 . S
H2039 C2058 0.951 . S
H2040 C2060 0.950 . S
H2041 C2061 0.950 . S
H2042 C2063 0.950 . S
H2043 C2066 0.950 . S
H2044 C2067 0.950 . S
H2045 C2069 0.950 . S
H2046 C2070 0.950 . S
H2047 C2071 0.951 . S
H2048 C2073 0.951 . S
H2049 C2075 0.950 . S
H2050 C2076 0.950 . S
H2051 C2078 0.950 . S
H2052 C2081 0.950 . S
H2053 C2082 0.950 . S
H2054 C2084 0.950 . S
H2055 C2085 0.950 . S
C2056 H2038 0.951 . S
C2056 C2057 1.366 . S
C2056 C2058 1.388 . S
C2057 C2056 1.366 . S
C2057 C2061 1.385 . S
C2058 H2039 0.951 . S
C2058 C2056 1.388 . S
C2058 C2059 1.366 . S
C2059 C2058 1.366 . S
C2059 C2060 1.414 . S
C2059 C2062 1.499 . S
C2060 H2040 0.950 . S
C2060 C2059 1.414 . S
C2060 C2061 1.374 . S
C2061 H2041 0.950 . S
C2061 C2057 1.385 . S
C2061 C2060 1.374 . S
C2062 C2059 1.499 . S
C2062 C2063 1.373 . S
C2062 C2064 1.389 . S
C2063 H2042 0.950 . S
C2063 C2062 1.373 . S
C2063 C2079 1.377 1_556 S
C2064 C2062 1.389 . S
C2064 C2065 1.524 . S
C2064 C2078 1.377 . S
C2065 C2064 1.524 . S
C2065 C2066 1.397 . S
C2065 C2070 1.363 . S
C2066 H2043 0.950 . S
C2066 C2065 1.397 . S
C2066 C2067 1.334 . S
C2067 H2044 0.950 . S
C2067 C2066 1.334 . S
C2067 C2068 1.287 . S
C2068 C2067 1.287 . S
C2068 C2069 1.524 . S
C2068 H2087 0.913 . S
C2069 H2045 0.950 . S
C2069 C2068 1.524 . S
C2069 C2070 1.415 . S
C2070 H2046 0.950 . S
C2070 C2065 1.363 . S
C2070 C2069 1.415 . S
C2071 H2047 0.951 . S
C2071 C2072 1.366 . S
C2071 C2073 1.388 . S
C2072 C2071 1.366 . S
C2072 C2076 1.385 . S
C2073 H2048 0.951 . S
C2073 C2071 1.388 . S
C2073 C2074 1.366 . S
C2074 C2073 1.366 . S
C2074 C2075 1.414 . S
C2074 C2077 1.499 . S
C2075 H2049 0.950 . S
C2075 C2074 1.414 . S
C2075 C2076 1.374 . S
C2076 H2050 0.950 . S
C2076 C2072 1.385 . S
C2076 C2075 1.374 . S
C2077 C2074 1.499 . S
C2077 C2078 1.373 1_554 S
C2077 C2079 1.389 . S
C2078 H2051 0.950 . S
C2078 C2064 1.377 . S
C2078 C2077 1.373 1_556 S
C2079 C2063 1.377 1_554 S
C2079 C2077 1.389 . S
C2079 C2080 1.524 . S
C2080 C2079 1.524 . S
C2080 C2081 1.397 . S
C2080 C2085 1.363 . S
C2081 H2052 0.950 . S
C2081 C2080 1.397 . S
C2081 C2082 1.334 . S
C2082 H2053 0.950 . S
C2082 C2081 1.334 . S
C2082 C2083 1.287 . S
C2083 C2082 1.287 . S
C2083 C2084 1.524 . S
C2083 H2086 0.999 . S
C2084 H2054 0.950 . S
C2084 C2083 1.524 . S
C2084 C2085 1.415 . S
C2085 H2055 0.950 . S
C2085 C2080 1.363 . S
C2085 C2084 1.415 . S
H2086 C2083 0.999 . S
H2087 C2068 0.913 . S
H2088 C2106 0.951 . S
H2089 C2108 0.951 . S
H2090 C2110 0.950 . S
H2091 C2111 0.950 . S
H2092 C2113 0.950 . S
H2093 C2116 0.950 . S
H2094 C2117 0.950 . S
H2095 C2119 0.941 1_455 S
H2096 C2120 0.950 . S
H2097 C2121 0.951 . S
H2098 C2123 0.951 . S
H2099 C2125 0.950 . S
H2100 C2126 0.950 . S
H2101 C2128 0.950 . S
H2102 C2131 0.950 . S
H2103 C2132 0.950 . S
H2104 C2134 0.950 . S
H2105 C2135 0.950 . S
C2106 H2088 0.951 . S
C2106 C2107 1.366 . S
C2106 C2108 1.388 . S
C2107 C2106 1.366 . S
C2107 C2111 1.385 . S
C2108 H2089 0.951 . S
C2108 C2106 1.388 . S
C2108 C2109 1.366 . S
C2109 C2108 1.366 . S
C2109 C2110 1.414 . S
C2109 C2112 1.499 . S
C2110 H2090 0.950 . S
C2110 C2109 1.414 . S
C2110 C2111 1.374 . S
C2111 H2091 0.950 . S
C2111 C2107 1.385 . S
C2111 C2110 1.374 . S
C2112 C2109 1.499 . S
C2112 C2113 1.373 . S
C2112 C2114 1.389 . S
C2113 H2092 0.950 . S
C2113 C2112 1.373 . S
C2113 C2129 1.377 . S
C2114 C2112 1.389 . S
C2114 C2115 1.524 . S
C2114 C2128 1.377 . S
C2115 C2114 1.524 . S
C2115 C2116 1.397 . S
C2115 C2120 1.363 . S
C2116 H2093 0.950 . S
C2116 C2115 1.397 . S
C2116 C2117 1.334 1_655 S
C2117 H2094 0.950 . S
C2117 C2116 1.334 1_455 S
C2117 C2118 1.287 . S
C2118 C2117 1.287 . S
C2118 C2119 1.510 1_455 S
C2118 H2137 0.913 . S
C2119 H2095 0.941 1_655 S
C2119 C2118 1.510 1_655 S
C2119 C2120 1.439 . S
C2120 H2096 0.950 . S
C2120 C2115 1.363 . S
C2120 C2119 1.439 . S
C2121 H2097 0.951 . S
C2121 C2122 1.366 . S
C2121 C2123 1.388 . S
C2122 C2121 1.366 . S
C2122 C2126 1.385 . S
C2123 H2098 0.951 . S
C2123 C2121 1.388 . S
C2123 C2124 1.366 . S
C2124 C2123 1.366 . S
C2124 C2125 1.414 . S
C2124 C2127 1.499 . S
C2125 H2099 0.950 . S
C2125 C2124 1.414 . S
C2125 C2126 1.374 . S
C2126 H2100 0.950 . S
C2126 C2122 1.385 . S
C2126 C2125 1.374 . S
C2127 C2124 1.499 . S
C2127 C2128 1.373 . S
C2127 C2129 1.389 . S
C2128 H2101 0.950 . S
C2128 C2114 1.377 . S
C2128 C2127 1.373 . S
C2129 C2113 1.377 . S
C2129 C2127 1.389 . S
C2129 C2130 1.524 . S
C2130 C2129 1.524 . S
C2130 C2131 1.397 . S
C2130 C2135 1.363 . S
C2131 H2102 0.950 . S
C2131 C2130 1.397 . S
C2131 C2132 1.334 . S
C2132 H2103 0.950 . S
C2132 C2131 1.334 . S
C2132 C2133 1.287 . S
C2133 C2132 1.287 . S
C2133 C2134 1.524 . S
C2133 H2136 0.999 . S
C2134 H2104 0.950 . S
C2134 C2133 1.524 . S
C2134 C2135 1.415 . S
C2135 H2105 0.950 . S
C2135 C2130 1.363 . S
C2135 C2134 1.415 . S
H2136 C2133 0.999 . S
H2137 C2118 0.913 . S
H2138 C2156 0.951 . S
H2139 C2158 0.951 . S
H2140 C2160 0.950 . S
H2141 C2161 0.950 . S
H2142 C2163 0.950 . S
H2143 C2166 0.950 . S
H2144 C2167 0.950 . S
H2145 C2169 0.950 . S
H2146 C2170 0.950 . S
H2147 C2171 0.951 . S
H2148 C2173 0.951 . S
H2149 C2175 0.950 . S
H2150 C2176 0.950 . S
H2151 C2178 0.950 . S
H2152 C2181 0.950 . S
H2153 C2182 0.950 . S
H2154 C2184 0.950 . S
H2155 C2185 0.950 . S
C2156 H2138 0.951 . S
C2156 C2157 1.366 . S
C2156 C2158 1.388 . S
C2157 C2156 1.366 . S
C2157 C2161 1.385 . S
C2158 H2139 0.951 . S
C2158 C2156 1.388 . S
C2158 C2159 1.366 . S
C2159 C2158 1.366 . S
C2159 C2160 1.414 . S
C2159 C2162 1.499 . S
C2160 H2140 0.950 . S
C2160 C2159 1.414 . S
C2160 C2161 1.374 . S
C2161 H2141 0.950 . S
C2161 C2157 1.385 . S
C2161 C2160 1.374 . S
C2162 C2159 1.499 . S
C2162 C2163 1.373 . S
C2162 C2164 1.389 . S
C2163 H2142 0.950 . S
C2163 C2162 1.373 . S
C2163 C2179 1.377 . S
C2164 C2162 1.389 . S
C2164 C2165 1.524 . S
C2164 C2178 1.377 . S
C2165 C2164 1.524 . S
C2165 C2166 1.397 . S
C2165 C2170 1.363 . S
C2166 H2143 0.950 . S
C2166 C2165 1.397 . S
C2166 C2167 1.334 . S
C2167 H2144 0.950 . S
C2167 C2166 1.334 . S
C2167 C2168 1.287 . S
C2168 C2167 1.287 . S
C2168 C2169 1.524 . S
C2168 H2187 0.913 . S
C2169 H2145 0.950 . S
C2169 C2168 1.524 . S
C2169 C2170 1.415 . S
C2170 H2146 0.950 . S
C2170 C2165 1.363 . S
C2170 C2169 1.415 . S
C2171 H2147 0.951 . S
C2171 C2172 1.366 . S
C2171 C2173 1.388 . S
C2172 C2171 1.366 . S
C2172 C2176 1.385 . S
C2173 H2148 0.951 . S
C2173 C2171 1.388 . S
C2173 C2174 1.366 . S
C2174 C2173 1.366 . S
C2174 C2175 1.414 . S
C2174 C2177 1.499 . S
C2175 H2149 0.950 . S
C2175 C2174 1.414 . S
C2175 C2176 1.374 . S
C2176 H2150 0.950 . S
C2176 C2172 1.385 . S
C2176 C2175 1.374 . S
C2177 C2174 1.499 . S
C2177 C2178 1.373 . S
C2177 C2179 1.389 . S
C2178 H2151 0.950 . S
C2178 C2164 1.377 . S
C2178 C2177 1.373 . S
C2179 C2163 1.377 . S
C2179 C2177 1.389 . S
C2179 C2180 1.524 . S
C2180 C2179 1.524 . S
C2180 C2181 1.397 . S
C2180 C2185 1.363 . S
C2181 H2152 0.950 . S
C2181 C2180 1.397 . S
C2181 C2182 1.334 . S
C2182 H2153 0.950 . S
C2182 C2181 1.334 . S
C2182 C2183 1.287 . S
C2183 C2182 1.287 . S
C2183 C2184 1.524 . S
C2183 H2186 0.999 . S
C2184 H2154 0.950 . S
C2184 C2183 1.524 . S
C2184 C2185 1.415 . S
C2185 H2155 0.950 . S
C2185 C2180 1.363 . S
C2185 C2184 1.415 . S
H2186 C2183 0.999 . S
H2187 C2168 0.913 . S
H2188 C2206 0.951 . S
H2189 C2208 0.951 . S
H2190 C2210 0.950 . S
H2191 C2211 0.950 . S
H2192 C2213 0.950 . S
H2193 C2216 0.950 . S
H2194 C2217 0.950 . S
H2195 C2219 0.950 . S
H2196 C2220 0.950 . S
H2197 C2221 0.951 . S
H2198 C2223 0.951 . S
H2199 C2225 0.950 . S
H2200 C2226 0.950 . S
H2201 C2228 0.950 . S
H2202 C2231 0.950 . S
H2203 C2232 0.950 . S
H2204 C2234 0.950 . S
H2205 C2235 0.950 . S
C2206 H2188 0.951 . S
C2206 C2207 1.366 . S
C2206 C2208 1.388 . S
C2207 C2206 1.366 . S
C2207 C2211 1.385 . S
C2208 H2189 0.951 . S
C2208 C2206 1.388 . S
C2208 C2209 1.366 . S
C2209 C2208 1.366 . S
C2209 C2210 1.414 . S
C2209 C2212 1.499 . S
C2210 H2190 0.950 . S
C2210 C2209 1.414 . S
C2210 C2211 1.374 . S
C2211 H2191 0.950 . S
C2211 C2207 1.385 . S
C2211 C2210 1.374 . S
C2212 C2209 1.499 . S
C2212 C2213 1.373 . S
C2212 C2214 1.389 . S
C2213 H2192 0.950 . S
C2213 C2212 1.373 . S
C2213 C2229 1.377 . S
C2214 C2212 1.389 . S
C2214 C2215 1.524 . S
C2214 C2228 1.377 . S
C2215 C2214 1.524 . S
C2215 C2216 1.397 . S
C2215 C2220 1.363 . S
C2216 H2193 0.950 . S
C2216 C2215 1.397 . S
C2216 C2217 1.334 . S
C2217 H2194 0.950 . S
C2217 C2216 1.334 . S
C2217 C2218 1.287 . S
C2218 C2217 1.287 . S
C2218 C2219 1.524 . S
C2218 H2237 0.913 . S
C2219 H2195 0.950 . S
C2219 C2218 1.524 . S
C2219 C2220 1.415 . S
C2220 H2196 0.950 . S
C2220 C2215 1.363 . S
C2220 C2219 1.415 . S
C2221 H2197 0.951 . S
C2221 C2222 1.366 . S
C2221 C2223 1.388 . S
C2222 C2221 1.366 . S
C2222 C2226 1.385 . S
C2223 H2198 0.951 . S
C2223 C2221 1.388 . S
C2223 C2224 1.366 . S
C2224 C2223 1.366 . S
C2224 C2225 1.414 . S
C2224 C2227 1.499 . S
C2225 H2199 0.950 . S
C2225 C2224 1.414 . S
C2225 C2226 1.374 . S
C2226 H2200 0.950 . S
C2226 C2222 1.385 . S
C2226 C2225 1.374 . S
C2227 C2224 1.499 . S
C2227 C2228 1.373 . S
C2227 C2229 1.389 . S
C2228 H2201 0.950 . S
C2228 C2214 1.377 . S
C2228 C2227 1.373 . S
C2229 C2213 1.377 . S
C2229 C2227 1.389 . S
C2229 C2230 1.524 . S
C2230 C2229 1.524 . S
C2230 C2231 1.397 . S
C2230 C2235 1.363 . S
C2231 H2202 0.950 . S
C2231 C2230 1.397 . S
C2231 C2232 1.334 . S
C2232 H2203 0.950 . S
C2232 C2231 1.334 . S
C2232 C2233 1.287 . S
C2233 C2232 1.287 . S
C2233 C2234 1.524 . S
C2233 H2236 0.999 . S
C2234 H2204 0.950 . S
C2234 C2233 1.524 . S
C2234 C2235 1.415 . S
C2235 H2205 0.950 . S
C2235 C2230 1.363 . S
C2235 C2234 1.415 . S
H2236 C2233 0.999 . S
H2237 C2218 0.913 . S
H2238 C2256 0.975 . S
H2239 C2258 0.951 . S
H2240 C2260 0.950 . S
H2241 C2261 0.950 . S
H2242 C2263 0.950 . S
H2243 C2266 0.950 . S
H2244 C2267 0.950 . S
H2245 C2269 0.950 . S
H2246 C2270 0.984 . S
H2247 C2271 0.951 . S
H2248 C2273 0.951 . S
H2249 C2275 0.950 . S
H2250 C2276 0.950 . S
H2251 C2278 0.950 1_556 S
H2252 C2281 0.950 . S
H2253 C2282 0.950 . S
H2254 C2284 0.950 . S
H2255 C2285 0.950 . S
C2256 H2238 0.975 . S
C2256 C2257 1.366 . S
C2256 C2258 1.388 . S
C2257 C2256 1.366 . S
C2257 C2261 1.385 . S
C2258 H2239 0.951 . S
C2258 C2256 1.388 . S
C2258 C2259 1.366 . S
C2259 C2258 1.366 . S
C2259 C2260 1.414 . S
C2259 C2262 1.499 . S
C2260 H2240 0.950 . S
C2260 C2259 1.414 . S
C2260 C2261 1.374 . S
C2261 H2241 0.950 . S
C2261 C2257 1.385 . S
C2261 C2260 1.374 . S
C2262 C2259 1.499 . S
C2262 C2263 1.373 . S
C2262 C2264 1.389 . S
C2263 H2242 0.950 . S
C2263 C2262 1.373 . S
C2263 C2279 1.377 . S
C2264 C2262 1.389 . S
C2264 C2265 1.524 . S
C2264 C2278 1.377 . S
C2265 C2264 1.524 . S
C2265 C2266 1.397 . S
C2265 C2270 1.363 . S
C2266 H2243 0.950 . S
C2266 C2265 1.397 . S
C2266 C2267 1.334 1_655 S
C2267 H2244 0.950 . S
C2267 C2266 1.334 1_455 S
C2267 C2268 1.287 . S
C2268 C2267 1.287 . S
C2268 C2269 1.524 . S
C2268 H2287 0.913 . S
C2269 H2245 0.950 . S
C2269 C2268 1.524 . S
C2269 C2270 1.415 1_455 S
C2270 H2246 0.984 . S
C2270 C2265 1.363 . S
C2270 C2269 1.415 1_655 S
C2271 H2247 0.951 . S
C2271 C2272 1.366 . S
C2271 C2273 1.388 . S
C2272 C2271 1.366 . S
C2272 C2276 1.385 . S
C2273 H2248 0.951 . S
C2273 C2271 1.388 . S
C2273 C2274 1.366 . S
C2274 C2273 1.366 . S
C2274 C2275 1.414 . S
C2274 C2277 1.499 . S
C2275 H2249 0.950 . S
C2275 C2274 1.414 . S
C2275 C2276 1.374 . S
C2276 H2250 0.950 . S
C2276 C2272 1.385 . S
C2276 C2275 1.374 . S
C2277 C2274 1.499 . S
C2277 C2278 1.373 1_556 S
C2277 C2279 1.389 1_556 S
C2278 H2251 0.950 1_554 S
C2278 C2264 1.377 . S
C2278 C2277 1.373 1_554 S
C2279 C2263 1.377 . S
C2279 C2277 1.389 1_554 S
C2279 C2280 1.524 . S
C2280 C2279 1.524 . S
C2280 C2281 1.397 1_554 S
C2280 C2285 1.363 . S
C2281 H2252 0.950 . S
C2281 C2280 1.397 1_556 S
C2281 C2282 1.334 . S
C2282 H2253 0.950 . S
C2282 C2281 1.334 . S
C2282 C2283 1.287 . S
C2283 C2282 1.287 . S
C2283 C2284 1.524 1_556 S
C2283 H2286 0.999 . S
C2284 H2254 0.950 . S
C2284 C2283 1.524 1_554 S
C2284 C2285 1.415 . S
C2285 H2255 0.950 . S
C2285 C2280 1.363 . S
C2285 C2284 1.415 . S
H2286 C2283 0.999 . S
H2287 C2268 0.913 . S
H2288 C2306 0.951 . S
H2289 C2308 0.951 . S
H2290 C2310 0.950 . S
H2291 C2311 0.950 . S
H2292 C2313 0.950 . S
H2293 C2316 0.950 . S
H2294 C2317 0.950 . S
H2295 C2319 0.950 . S
H2296 C2320 0.950 . S
H2297 C2321 0.951 . S
H2298 C2323 0.951 . S
H2299 C2325 0.950 . S
H2300 C2326 0.950 . S
H2301 C2328 0.950 . S
H2302 C2331 0.950 . S
H2303 C2332 0.950 . S
H2304 C2334 0.950 . S
H2305 C2335 0.950 . S
C2306 H2288 0.951 . S
C2306 C2307 1.366 . S
C2306 C2308 1.388 . S
C2307 C2306 1.366 . S
C2307 C2311 1.385 . S
C2308 H2289 0.951 . S
C2308 C2306 1.388 . S
C2308 C2309 1.366 . S
C2309 C2308 1.366 . S
C2309 C2310 1.414 . S
C2309 C2312 1.499 . S
C2310 H2290 0.950 . S
C2310 C2309 1.414 . S
C2310 C2311 1.374 . S
C2311 H2291 0.950 . S
C2311 C2307 1.385 . S
C2311 C2310 1.374 . S
C2312 C2309 1.499 . S
C2312 C2313 1.373 . S
C2312 C2314 1.389 . S
C2313 H2292 0.950 . S
C2313 C2312 1.373 . S
C2313 C2329 1.377 . S
C2314 C2312 1.389 . S
C2314 C2315 1.524 . S
C2314 C2328 1.377 . S
C2315 C2314 1.524 . S
C2315 C2316 1.397 . S
C2315 C2320 1.363 . S
C2316 H2293 0.950 . S
C2316 C2315 1.397 . S
C2316 C2317 1.334 . S
C2317 H2294 0.950 . S
C2317 C2316 1.334 . S
C2317 C2318 1.287 . S
C2318 C2317 1.287 . S
C2318 C2319 1.524 . S
C2318 H2337 0.913 . S
C2319 H2295 0.950 . S
C2319 C2318 1.524 . S
C2319 C2320 1.415 . S
C2320 H2296 0.950 . S
C2320 C2315 1.363 . S
C2320 C2319 1.415 . S
C2321 H2297 0.951 . S
C2321 C2322 1.366 . S
C2321 C2323 1.388 . S
C2322 C2321 1.366 . S
C2322 C2326 1.385 . S
C2323 H2298 0.951 . S
C2323 C2321 1.388 . S
C2323 C2324 1.366 . S
C2324 C2323 1.366 . S
C2324 C2325 1.414 . S
C2324 C2327 1.499 . S
C2325 H2299 0.950 . S
C2325 C2324 1.414 . S
C2325 C2326 1.374 . S
C2326 H2300 0.950 . S
C2326 C2322 1.385 . S
C2326 C2325 1.374 . S
C2327 C2324 1.499 . S
C2327 C2328 1.373 . S
C2327 C2329 1.389 . S
C2328 H2301 0.950 . S
C2328 C2314 1.377 . S
C2328 C2327 1.373 . S
C2329 C2313 1.377 . S
C2329 C2327 1.389 . S
C2329 C2330 1.524 . S
C2330 C2329 1.524 . S
C2330 C2331 1.397 . S
C2330 C2335 1.363 . S
C2331 H2302 0.950 . S
C2331 C2330 1.397 . S
C2331 C2332 1.334 . S
C2332 H2303 0.950 . S
C2332 C2331 1.334 . S
C2332 C2333 1.287 . S
C2333 C2332 1.287 . S
C2333 C2334 1.524 . S
C2333 H2336 0.999 . S
C2334 H2304 0.950 . S
C2334 C2333 1.524 . S
C2334 C2335 1.415 . S
C2335 H2305 0.950 . S
C2335 C2330 1.363 . S
C2335 C2334 1.415 . S
H2336 C2333 0.999 . S
H2337 C2318 0.913 . S
H2338 C2356 0.951 . S
H2339 C2358 0.951 . S
H2340 C2360 0.950 . S
H2341 C2361 0.950 . S
H2342 C2363 0.950 . S
H2343 C2366 0.950 . S
H2344 C2367 0.950 . S
H2345 C2369 0.941 1_545 S
H2346 C2370 0.950 . S
H2347 C2371 0.951 . S
H2348 C2373 0.951 . S
H2349 C2375 0.950 . S
H2350 C2376 0.950 . S
H2351 C2378 0.950 . S
H2352 C2381 0.950 . S
H2353 C2382 0.950 . S
H2354 C2384 0.950 . S
H2355 C2385 0.950 . S
C2356 H2338 0.951 . S
C2356 C2357 1.366 . S
C2356 C2358 1.388 . S
C2357 C2356 1.366 . S
C2357 C2361 1.385 . S
C2358 H2339 0.951 . S
C2358 C2356 1.388 . S
C2358 C2359 1.366 . S
C2359 C2358 1.366 . S
C2359 C2360 1.414 . S
C2359 C2362 1.499 . S
C2360 H2340 0.950 . S
C2360 C2359 1.414 . S
C2360 C2361 1.374 . S
C2361 H2341 0.950 . S
C2361 C2357 1.385 . S
C2361 C2360 1.374 . S
C2362 C2359 1.499 . S
C2362 C2363 1.373 . S
C2362 C2364 1.389 . S
C2363 H2342 0.950 . S
C2363 C2362 1.373 . S
C2363 C2379 1.377 . S
C2364 C2362 1.389 . S
C2364 C2365 1.524 . S
C2364 C2378 1.377 1_565 S
C2365 C2364 1.524 . S
C2365 C2366 1.397 . S
C2365 C2370 1.363 . S
C2366 H2343 0.950 . S
C2366 C2365 1.397 . S
C2366 C2367 1.334 . S
C2367 H2344 0.950 . S
C2367 C2366 1.334 . S
C2367 C2368 1.287 . S
C2368 C2367 1.287 . S
C2368 C2369 1.530 . S
C2368 H2387 0.913 . S
C2369 H2345 0.941 1_565 S
C2369 C2368 1.530 . S
C2369 C2370 1.421 . S
C2370 H2346 0.950 . S
C2370 C2365 1.363 . S
C2370 C2369 1.421 . S
C2371 H2347 0.951 . S
C2371 C2372 1.366 . S
C2371 C2373 1.388 . S
C2372 C2371 1.366 . S
C2372 C2376 1.385 . S
C2373 H2348 0.951 . S
C2373 C2371 1.388 . S
C2373 C2374 1.366 . S
C2374 C2373 1.366 . S
C2374 C2375 1.414 . S
C2374 C2377 1.499 . S
C2375 H2349 0.950 . S
C2375 C2374 1.414 . S
C2375 C2376 1.374 . S
C2376 H2350 0.950 . S
C2376 C2372 1.385 . S
C2376 C2375 1.374 . S
C2377 C2374 1.499 . S
C2377 C2378 1.373 . S
C2377 C2379 1.389 1_545 S
C2378 H2351 0.950 . S
C2378 C2364 1.377 1_545 S
C2378 C2377 1.373 . S
C2379 C2363 1.377 . S
C2379 C2377 1.389 1_565 S
C2379 C2380 1.524 . S
C2380 C2379 1.524 . S
C2380 C2381 1.397 . S
C2380 C2385 1.363 . S
C2381 H2352 0.950 . S
C2381 C2380 1.397 . S
C2381 C2382 1.334 . S
C2382 H2353 0.950 . S
C2382 C2381 1.334 . S
C2382 C2383 1.287 . S
C2383 C2382 1.287 . S
C2383 C2384 1.524 . S
C2383 H2386 0.999 . S
C2384 H2354 0.950 . S
C2384 C2383 1.524 . S
C2384 C2385 1.415 . S
C2385 H2355 0.950 . S
C2385 C2380 1.363 . S
C2385 C2384 1.415 . S
H2386 C2383 0.999 . S
H2387 C2368 0.913 . S
H2388 C2406 0.951 . S
H2389 C2408 0.951 . S
H2390 C2410 0.950 . S
H2391 C2411 0.950 . S
H2392 C2413 0.950 . S
H2393 C2416 0.950 . S
H2394 C2417 0.950 . S
H2395 C2419 0.950 . S
H2396 C2420 0.950 . S
H2397 C2421 0.951 . S
H2398 C2423 0.951 . S
H2399 C2425 0.950 . S
H2400 C2426 0.950 . S
H2401 C2428 0.950 . S
H2402 C2431 0.950 . S
H2403 C2432 0.950 . S
H2404 C2434 0.950 . S
H2405 C2435 0.950 . S
C2406 H2388 0.951 . S
C2406 C2407 1.366 . S
C2406 C2408 1.388 . S
C2407 C2406 1.366 . S
C2407 C2411 1.385 . S
C2408 H2389 0.951 . S
C2408 C2406 1.388 . S
C2408 C2409 1.366 . S
C2409 C2408 1.366 . S
C2409 C2410 1.414 . S
C2409 C2412 1.499 . S
C2410 H2390 0.950 . S
C2410 C2409 1.414 . S
C2410 C2411 1.374 . S
C2411 H2391 0.950 . S
C2411 C2407 1.385 . S
C2411 C2410 1.374 . S
C2412 C2409 1.499 . S
C2412 C2413 1.373 . S
C2412 C2414 1.389 . S
C2413 H2392 0.950 . S
C2413 C2412 1.373 . S
C2413 C2429 1.377 . S
C2414 C2412 1.389 . S
C2414 C2415 1.524 . S
C2414 C2428 1.377 . S
C2415 C2414 1.524 . S
C2415 C2416 1.397 . S
C2415 C2420 1.363 . S
C2416 H2393 0.950 . S
C2416 C2415 1.397 . S
C2416 C2417 1.334 . S
C2417 H2394 0.950 . S
C2417 C2416 1.334 . S
C2417 C2418 1.287 . S
C2418 C2417 1.287 . S
C2418 C2419 1.524 . S
C2418 H2437 0.913 . S
C2419 H2395 0.950 . S
C2419 C2418 1.524 . S
C2419 C2420 1.415 . S
C2420 H2396 0.950 . S
C2420 C2415 1.363 . S
C2420 C2419 1.415 . S
C2421 H2397 0.951 . S
C2421 C2422 1.366 . S
C2421 C2423 1.388 . S
C2422 C2421 1.366 . S
C2422 C2426 1.385 . S
C2423 H2398 0.951 . S
C2423 C2421 1.388 . S
C2423 C2424 1.366 . S
C2424 C2423 1.366 . S
C2424 C2425 1.414 . S
C2424 C2427 1.499 . S
C2425 H2399 0.950 . S
C2425 C2424 1.414 . S
C2425 C2426 1.374 . S
C2426 H2400 0.950 . S
C2426 C2422 1.385 . S
C2426 C2425 1.374 . S
C2427 C2424 1.499 . S
C2427 C2428 1.373 . S
C2427 C2429 1.389 . S
C2428 H2401 0.950 . S
C2428 C2414 1.377 . S
C2428 C2427 1.373 . S
C2429 C2413 1.377 . S
C2429 C2427 1.389 . S
C2429 C2430 1.524 . S
C2430 C2429 1.524 . S
C2430 C2431 1.397 . S
C2430 C2435 1.363 . S
C2431 H2402 0.950 . S
C2431 C2430 1.397 . S
C2431 C2432 1.334 . S
C2432 H2403 0.950 . S
C2432 C2431 1.334 . S
C2432 C2433 1.287 . S
C2433 C2432 1.287 . S
C2433 C2434 1.524 . S
C2433 H2436 0.999 . S
C2434 H2404 0.950 . S
C2434 C2433 1.524 . S
C2434 C2435 1.415 . S
C2435 H2405 0.950 . S
C2435 C2430 1.363 . S
C2435 C2434 1.415 . S
H2436 C2433 0.999 . S
H2437 C2418 0.913 . S
H2438 C2456 0.951 . S
H2439 C2458 0.951 . S
H2440 C2460 0.950 . S
H2441 C2461 0.950 . S
H2442 C2463 0.950 . S
H2443 C2466 0.950 . S
H2444 C2467 0.950 . S
H2445 C2469 0.950 . S
H2446 C2470 0.950 . S
H2447 C2471 0.951 . S
H2448 C2473 0.951 . S
H2449 C2475 0.950 . S
H2450 C2476 0.950 . S
H2451 C2478 0.950 . S
H2452 C2481 0.950 . S
H2453 C2482 0.950 . S
H2454 C2484 0.950 . S
H2455 C2485 0.950 . S
C2456 H2438 0.951 . S
C2456 C2457 1.366 . S
C2456 C2458 1.388 . S
C2457 C2456 1.366 . S
C2457 C2461 1.385 . S
C2458 H2439 0.951 . S
C2458 C2456 1.388 . S
C2458 C2459 1.366 . S
C2459 C2458 1.366 . S
C2459 C2460 1.414 . S
C2459 C2462 1.499 . S
C2460 H2440 0.950 . S
C2460 C2459 1.414 . S
C2460 C2461 1.374 . S
C2461 H2441 0.950 . S
C2461 C2457 1.385 . S
C2461 C2460 1.374 . S
C2462 C2459 1.499 . S
C2462 C2463 1.373 . S
C2462 C2464 1.389 . S
C2463 H2442 0.950 . S
C2463 C2462 1.373 . S
C2463 C2479 1.377 1_545 S
C2464 C2462 1.389 . S
C2464 C2465 1.524 . S
C2464 C2478 1.377 . S
C2465 C2464 1.524 . S
C2465 C2466 1.397 . S
C2465 C2470 1.363 . S
C2466 H2443 0.950 . S
C2466 C2465 1.397 . S
C2466 C2467 1.334 . S
C2467 H2444 0.950 . S
C2467 C2466 1.334 . S
C2467 C2468 1.287 . S
C2468 C2467 1.287 . S
C2468 C2469 1.524 . S
C2468 H2487 0.913 . S
C2469 H2445 0.950 . S
C2469 C2468 1.524 . S
C2469 C2470 1.415 . S
C2470 H2446 0.950 . S
C2470 C2465 1.363 . S
C2470 C2469 1.415 . S
C2471 H2447 0.951 . S
C2471 C2472 1.366 . S
C2471 C2473 1.388 . S
C2472 C2471 1.366 . S
C2472 C2476 1.385 . S
C2473 H2448 0.951 . S
C2473 C2471 1.388 . S
C2473 C2474 1.366 . S
C2474 C2473 1.366 . S
C2474 C2475 1.414 . S
C2474 C2477 1.499 . S
C2475 H2449 0.950 . S
C2475 C2474 1.414 . S
C2475 C2476 1.374 . S
C2476 H2450 0.950 . S
C2476 C2472 1.385 . S
C2476 C2475 1.374 . S
C2477 C2474 1.499 . S
C2477 C2478 1.373 1_565 S
C2477 C2479 1.389 . S
C2478 H2451 0.950 . S
C2478 C2464 1.377 . S
C2478 C2477 1.373 1_545 S
C2479 C2463 1.377 1_565 S
C2479 C2477 1.389 . S
C2479 C2480 1.524 . S
C2480 C2479 1.524 . S
C2480 C2481 1.397 . S
C2480 C2485 1.363 . S
C2481 H2452 0.950 . S
C2481 C2480 1.397 . S
C2481 C2482 1.334 . S
C2482 H2453 0.950 . S
C2482 C2481 1.334 . S
C2482 C2483 1.287 . S
C2483 C2482 1.287 . S
C2483 C2484 1.524 . S
C2483 H2486 0.999 . S
C2484 H2454 0.950 . S
C2484 C2483 1.524 . S
C2484 C2485 1.415 . S
C2485 H2455 0.950 . S
C2485 C2480 1.363 . S
C2485 C2484 1.415 . S
H2486 C2483 0.999 . S
H2487 C2468 0.913 . S
H2488 C2506 0.951 . S
H2489 C2508 0.951 . S
H2490 C2510 0.950 . S
H2491 C2511 0.950 . S
H2492 C2513 0.950 . S
H2493 C2516 0.950 . S
H2494 C2517 0.950 . S
H2495 C2519 0.950 . S
H2496 C2520 0.950 . S
H2497 C2521 0.951 . S
H2498 C2523 0.951 . S
H2499 C2525 0.950 . S
H2500 C2526 0.950 . S
H2501 C2528 0.950 . S
H2502 C2531 0.950 . S
H2503 C2532 0.950 . S
H2504 C2534 0.950 . S
H2505 C2535 0.950 . S
C2506 H2488 0.951 . S
C2506 C2507 1.366 . S
C2506 C2508 1.388 . S
C2507 C2506 1.366 . S
C2507 C2511 1.385 . S
C2508 H2489 0.951 . S
C2508 C2506 1.388 . S
C2508 C2509 1.366 . S
C2509 C2508 1.366 . S
C2509 C2510 1.414 . S
C2509 C2512 1.499 . S
C2510 H2490 0.950 . S
C2510 C2509 1.414 . S
C2510 C2511 1.374 . S
C2511 H2491 0.950 . S
C2511 C2507 1.385 . S
C2511 C2510 1.374 . S
C2512 C2509 1.499 . S
C2512 C2513 1.373 . S
C2512 C2514 1.389 . S
C2513 H2492 0.950 . S
C2513 C2512 1.373 . S
C2513 C2529 1.377 . S
C2514 C2512 1.389 . S
C2514 C2515 1.524 . S
C2514 C2528 1.377 . S
C2515 C2514 1.524 . S
C2515 C2516 1.397 . S
C2515 C2520 1.363 . S
C2516 H2493 0.950 . S
C2516 C2515 1.397 . S
C2516 C2517 1.334 . S
C2517 H2494 0.950 . S
C2517 C2516 1.334 . S
C2517 C2518 1.287 . S
C2518 C2517 1.287 . S
C2518 C2519 1.524 . S
C2518 H2537 0.913 . S
C2519 H2495 0.950 . S
C2519 C2518 1.524 . S
C2519 C2520 1.415 . S
C2520 H2496 0.950 . S
C2520 C2515 1.363 . S
C2520 C2519 1.415 . S
C2521 H2497 0.951 . S
C2521 C2522 1.366 . S
C2521 C2523 1.388 . S
C2522 C2521 1.366 . S
C2522 C2526 1.385 . S
C2523 H2498 0.951 . S
C2523 C2521 1.388 . S
C2523 C2524 1.366 . S
C2524 C2523 1.366 . S
C2524 C2525 1.414 . S
C2524 C2527 1.499 . S
C2525 H2499 0.950 . S
C2525 C2524 1.414 . S
C2525 C2526 1.374 . S
C2526 H2500 0.950 . S
C2526 C2522 1.385 . S
C2526 C2525 1.374 . S
C2527 C2524 1.499 . S
C2527 C2528 1.373 . S
C2527 C2529 1.389 . S
C2528 H2501 0.950 . S
C2528 C2514 1.377 . S
C2528 C2527 1.373 . S
C2529 C2513 1.377 . S
C2529 C2527 1.389 . S
C2529 C2530 1.524 . S
C2530 C2529 1.524 . S
C2530 C2531 1.397 . S
C2530 C2535 1.363 . S
C2531 H2502 0.950 . S
C2531 C2530 1.397 . S
C2531 C2532 1.334 . S
C2532 H2503 0.950 . S
C2532 C2531 1.334 . S
C2532 C2533 1.287 . S
C2533 C2532 1.287 . S
C2533 C2534 1.524 . S
C2533 H2536 0.999 . S
C2534 H2504 0.950 . S
C2534 C2533 1.524 . S
C2534 C2535 1.415 . S
C2535 H2505 0.950 . S
C2535 C2530 1.363 . S
C2535 C2534 1.415 . S
H2536 C2533 0.999 . S
H2537 C2518 0.913 . S
H2538 C2556 0.951 . S
H2539 C2558 0.951 . S
H2540 C2560 0.950 . S
H2541 C2561 0.950 . S
H2542 C2563 0.950 . S
H2543 C2566 0.950 . S
H2544 C2567 0.950 . S
H2545 C2569 0.950 . S
H2546 C2570 0.950 . S
H2547 C2571 0.951 . S
H2548 C2573 0.951 . S
H2549 C2575 0.950 . S
H2550 C2576 0.950 . S
H2551 C2578 0.950 1_545 S
H2552 C2581 0.950 . S
H2553 C2582 0.950 . S
H2554 C2584 0.950 . S
H2555 C2585 0.950 . S
C2556 H2538 0.951 . S
C2556 C2557 1.366 . S
C2556 C2558 1.388 . S
C2557 C2556 1.366 . S
C2557 C2561 1.385 . S
C2558 H2539 0.951 . S
C2558 C2556 1.388 . S
C2558 C2559 1.366 . S
C2559 C2558 1.366 . S
C2559 C2560 1.414 . S
C2559 C2562 1.499 . S
C2560 H2540 0.950 . S
C2560 C2559 1.414 . S
C2560 C2561 1.374 . S
C2561 H2541 0.950 . S
C2561 C2557 1.385 . S
C2561 C2560 1.374 . S
C2562 C2559 1.499 . S
C2562 C2563 1.373 . S
C2562 C2564 1.389 . S
C2563 H2542 0.950 . S
C2563 C2562 1.373 . S
C2563 C2579 1.377 1_565 S
C2564 C2562 1.389 . S
C2564 C2565 1.524 . S
C2564 C2578 1.377 . S
C2565 C2564 1.524 . S
C2565 C2566 1.397 . S
C2565 C2570 1.363 . S
C2566 H2543 0.950 . S
C2566 C2565 1.397 . S
C2566 C2567 1.334 . S
C2567 H2544 0.950 . S
C2567 C2566 1.334 . S
C2567 C2568 1.287 . S
C2568 C2567 1.287 . S
C2568 C2569 1.524 . S
C2568 H2587 0.913 . S
C2569 H2545 0.950 . S
C2569 C2568 1.524 . S
C2569 C2570 1.415 . S
C2570 H2546 0.950 . S
C2570 C2565 1.363 . S
C2570 C2569 1.415 . S
C2571 H2547 0.951 . S
C2571 C2572 1.366 . S
C2571 C2573 1.388 . S
C2572 C2571 1.366 . S
C2572 C2576 1.385 . S
C2573 H2548 0.951 . S
C2573 C2571 1.388 . S
C2573 C2574 1.366 . S
C2574 C2573 1.366 . S
C2574 C2575 1.414 . S
C2574 C2577 1.499 . S
C2575 H2549 0.950 . S
C2575 C2574 1.414 . S
C2575 C2576 1.374 . S
C2576 H2550 0.950 . S
C2576 C2572 1.385 . S
C2576 C2575 1.374 . S
C2577 C2574 1.499 . S
C2577 C2578 1.373 1_545 S
C2577 C2579 1.389 . S
C2578 H2551 0.950 1_565 S
C2578 C2564 1.377 . S
C2578 C2577 1.373 1_565 S
C2579 C2563 1.377 1_545 S
C2579 C2577 1.389 . S
C2579 C2580 1.524 . S
C2580 C2579 1.524 . S
C2580 C2581 1.397 . S
C2580 C2585 1.363 . S
C2581 H2552 0.950 . S
C2581 C2580 1.397 . S
C2581 C2582 1.334 . S
C2582 H2553 0.950 . S
C2582 C2581 1.334 . S
C2582 C2583 1.287 . S
C2583 C2582 1.287 . S
C2583 C2584 1.524 . S
C2583 H2586 0.999 . S
C2584 H2554 0.950 . S
C2584 C2583 1.524 . S
C2584 C2585 1.415 . S
C2585 H2555 0.950 . S
C2585 C2580 1.363 . S
C2585 C2584 1.415 . S
H2586 C2583 0.999 . S
H2587 C2568 0.913 . S
H2588 C2606 0.951 . S
H2589 C2608 0.951 . S
H2590 C2610 0.950 . S
H2591 C2611 0.950 . S
H2592 C2613 0.950 . S
H2593 C2616 0.950 . S
H2594 C2617 0.950 1_545 S
H2595 C2619 0.950 . S
H2596 C2620 0.950 . S
H2597 C2621 0.951 . S
H2598 C2623 0.951 . S
H2599 C2625 0.950 . S
H2600 C2626 0.950 . S
H2601 C2628 0.950 . S
H2602 C2631 0.950 . S
H2603 C2632 0.950 . S
H2604 C2634 0.950 . S
H2605 C2635 0.950 . S
C2606 H2588 0.951 . S
C2606 C2607 1.366 . S
C2606 C2608 1.388 . S
C2607 C2606 1.366 . S
C2607 C2611 1.385 . S
C2608 H2589 0.951 . S
C2608 C2606 1.388 . S
C2608 C2609 1.366 . S
C2609 C2608 1.366 . S
C2609 C2610 1.414 . S
C2609 C2612 1.499 . S
C2610 H2590 0.950 . S
C2610 C2609 1.414 . S
C2610 C2611 1.374 . S
C2611 H2591 0.950 . S
C2611 C2607 1.385 . S
C2611 C2610 1.374 . S
C2612 C2609 1.499 . S
C2612 C2613 1.373 . S
C2612 C2614 1.389 . S
C2613 H2592 0.950 . S
C2613 C2612 1.373 . S
C2613 C2629 1.377 . S
C2614 C2612 1.389 . S
C2614 C2615 1.524 . S
C2614 C2628 1.377 . S
C2615 C2614 1.524 . S
C2615 C2616 1.397 . S
C2615 C2620 1.363 . S
C2616 H2593 0.950 . S
C2616 C2615 1.397 . S
C2616 C2617 1.334 . S
C2617 H2594 0.950 1_565 S
C2617 C2616 1.334 . S
C2617 C2618 1.287 . S
C2618 C2617 1.287 . S
C2618 C2619 1.524 . S
C2618 H2637 0.913 . S
C2619 H2595 0.950 . S
C2619 C2618 1.524 . S
C2619 C2620 1.415 . S
C2620 H2596 0.950 . S
C2620 C2615 1.363 . S
C2620 C2619 1.415 . S
C2621 H2597 0.951 . S
C2621 C2622 1.366 . S
C2621 C2623 1.388 . S
C2622 C2621 1.366 . S
C2622 C2626 1.385 . S
C2623 H2598 0.951 . S
C2623 C2621 1.388 . S
C2623 C2624 1.366 . S
C2624 C2623 1.366 . S
C2624 C2625 1.414 . S
C2624 C2627 1.499 . S
C2625 H2599 0.950 . S
C2625 C2624 1.414 . S
C2625 C2626 1.374 . S
C2626 H2600 0.950 . S
C2626 C2622 1.385 . S
C2626 C2625 1.374 . S
C2627 C2624 1.499 . S
C2627 C2628 1.373 . S
C2627 C2629 1.389 . S
C2628 H2601 0.950 . S
C2628 C2614 1.377 . S
C2628 C2627 1.373 . S
C2629 C2613 1.377 . S
C2629 C2627 1.389 . S
C2629 C2630 1.524 . S
C2630 C2629 1.524 . S
C2630 C2631 1.397 . S
C2630 C2635 1.363 . S
C2631 H2602 0.950 . S
C2631 C2630 1.397 . S
C2631 C2632 1.334 . S
C2632 H2603 0.950 . S
C2632 C2631 1.334 . S
C2632 C2633 1.287 . S
C2633 C2632 1.287 . S
C2633 C2634 1.524 . S
C2633 H2636 0.999 . S
C2634 H2604 0.950 . S
C2634 C2633 1.524 . S
C2634 C2635 1.415 . S
C2635 H2605 0.950 . S
C2635 C2630 1.363 . S
C2635 C2634 1.415 . S
H2636 C2633 0.999 . S
H2637 C2618 0.913 . S
H2638 C2656 0.951 1_554 S
H2639 C2658 0.951 . S
H2640 C2660 0.950 . S
H2641 C2661 0.950 . S
H2642 C2663 0.950 . S
H2643 C2666 0.950 . S
H2644 C2667 0.950 . S
H2645 C2669 0.950 1_554 S
H2646 C2670 0.950 . S
H2647 C2671 0.951 . S
H2648 C2673 0.951 . S
H2649 C2675 0.950 . S
H2650 C2676 0.950 . S
H2651 C2678 0.966 . S
H2652 C2681 0.950 . S
H2653 C2682 0.950 . S
H2654 C2684 0.950 . S
H2655 C2685 0.950 1_545 S
C2656 H2638 0.951 1_556 S
C2656 C2657 1.366 . S
C2656 C2658 1.388 . S
C2657 C2656 1.366 . S
C2657 C2661 1.385 . S
C2658 H2639 0.951 . S
C2658 C2656 1.388 . S
C2658 C2659 1.366 . S
C2659 C2658 1.366 . S
C2659 C2660 1.414 . S
C2659 C2662 1.499 . S
C2660 H2640 0.950 . S
C2660 C2659 1.414 . S
C2660 C2661 1.374 . S
C2661 H2641 0.950 . S
C2661 C2657 1.385 . S
C2661 C2660 1.374 . S
C2662 C2659 1.499 . S
C2662 C2663 1.373 . S
C2662 C2664 1.389 . S
C2663 H2642 0.950 . S
C2663 C2662 1.373 . S
C2663 C2679 1.377 1_545 S
C2664 C2662 1.389 . S
C2664 C2665 1.524 . S
C2664 C2678 1.377 . S
C2665 C2664 1.524 . S
C2665 C2666 1.397 . S
C2665 C2670 1.363 . S
C2666 H2643 0.950 . S
C2666 C2665 1.397 . S
C2666 C2667 1.334 . S
C2667 H2644 0.950 . S
C2667 C2666 1.334 . S
C2667 C2668 1.287 . S
C2668 C2667 1.287 . S
C2668 C2669 1.524 . S
C2668 H2687 0.913 . S
C2669 H2645 0.950 1_556 S
C2669 C2668 1.524 . S
C2669 C2670 1.415 . S
C2670 H2646 0.950 . S
C2670 C2665 1.363 . S
C2670 C2669 1.415 . S
C2671 H2647 0.951 . S
C2671 C2672 1.366 . S
C2671 C2673 1.388 . S
C2672 C2671 1.366 . S
C2672 C2676 1.385 . S
C2673 H2648 0.951 . S
C2673 C2671 1.388 . S
C2673 C2674 1.366 . S
C2674 C2673 1.366 . S
C2674 C2675 1.414 . S
C2674 C2677 1.499 . S
C2675 H2649 0.950 . S
C2675 C2674 1.414 . S
C2675 C2676 1.374 . S
C2676 H2650 0.950 . S
C2676 C2672 1.385 . S
C2676 C2675 1.374 . S
C2677 C2674 1.499 . S
C2677 C2678 1.373 1_565 S
C2677 C2679 1.389 . S
C2678 H2651 0.966 . S
C2678 C2664 1.377 . S
C2678 C2677 1.373 1_545 S
C2679 C2663 1.377 1_565 S
C2679 C2677 1.389 . S
C2679 C2680 1.524 . S
C2680 C2679 1.524 . S
C2680 C2681 1.397 . S
C2680 C2685 1.363 . S
C2681 H2652 0.950 . S
C2681 C2680 1.397 . S
C2681 C2682 1.334 . S
C2682 H2653 0.950 . S
C2682 C2681 1.334 . S
C2682 C2683 1.287 . S
C2683 C2682 1.287 . S
C2683 C2684 1.524 . S
C2683 H2686 0.999 . S
C2684 H2654 0.950 . S
C2684 C2683 1.524 . S
C2684 C2685 1.415 . S
C2685 H2655 0.950 1_565 S
C2685 C2680 1.363 . S
C2685 C2684 1.415 . S
H2686 C2683 0.999 . S
H2687 C2668 0.913 . S
H2688 C2706 0.951 . S
H2689 C2708 0.951 . S
H2690 C2710 0.950 . S
H2691 C2711 0.950 . S
H2692 C2713 0.950 . S
H2693 C2716 0.950 . S
H2694 C2717 0.950 . S
H2695 C2719 0.950 . S
H2696 C2720 0.950 . S
H2697 C2721 0.951 . S
H2698 C2723 0.951 . S
H2699 C2725 0.950 . S
H2700 C2726 0.950 . S
H2701 C2728 0.950 . S
H2702 C2731 0.950 . S
H2703 C2732 0.950 . S
H2704 C2734 0.950 . S
H2705 C2735 0.950 . S
C2706 H2688 0.951 . S
C2706 C2707 1.366 . S
C2706 C2708 1.388 . S
C2707 C2706 1.366 . S
C2707 C2711 1.385 . S
C2708 H2689 0.951 . S
C2708 C2706 1.388 . S
C2708 C2709 1.366 . S
C2709 C2708 1.366 . S
C2709 C2710 1.414 . S
C2709 C2712 1.499 . S
C2710 H2690 0.950 . S
C2710 C2709 1.414 . S
C2710 C2711 1.374 . S
C2711 H2691 0.950 . S
C2711 C2707 1.385 . S
C2711 C2710 1.374 . S
C2712 C2709 1.499 . S
C2712 C2713 1.373 . S
C2712 C2714 1.389 . S
C2713 H2692 0.950 . S
C2713 C2712 1.373 . S
C2713 C2729 1.377 . S
C2714 C2712 1.389 . S
C2714 C2715 1.524 . S
C2714 C2728 1.377 . S
C2715 C2714 1.524 . S
C2715 C2716 1.397 . S
C2715 C2720 1.363 . S
C2716 H2693 0.950 . S
C2716 C2715 1.397 . S
C2716 C2717 1.334 . S
C2717 H2694 0.950 . S
C2717 C2716 1.334 . S
C2717 C2718 1.287 . S
C2718 C2717 1.287 . S
C2718 C2719 1.524 . S
C2718 H2737 0.913 . S
C2719 H2695 0.950 . S
C2719 C2718 1.524 . S
C2719 C2720 1.415 . S
C2720 H2696 0.950 . S
C2720 C2715 1.363 . S
C2720 C2719 1.415 . S
C2721 H2697 0.951 . S
C2721 C2722 1.366 . S
C2721 C2723 1.388 . S
C2722 C2721 1.366 . S
C2722 C2726 1.385 . S
C2723 H2698 0.951 . S
C2723 C2721 1.388 . S
C2723 C2724 1.366 . S
C2724 C2723 1.366 . S
C2724 C2725 1.414 . S
C2724 C2727 1.499 . S
C2725 H2699 0.950 . S
C2725 C2724 1.414 . S
C2725 C2726 1.374 . S
C2726 H2700 0.950 . S
C2726 C2722 1.385 . S
C2726 C2725 1.374 . S
C2727 C2724 1.499 . S
C2727 C2728 1.373 . S
C2727 C2729 1.389 . S
C2728 H2701 0.950 . S
C2728 C2714 1.377 . S
C2728 C2727 1.373 . S
C2729 C2713 1.377 . S
C2729 C2727 1.389 . S
C2729 C2730 1.524 . S
C2730 C2729 1.524 . S
C2730 C2731 1.397 . S
C2730 C2735 1.363 . S
C2731 H2702 0.950 . S
C2731 C2730 1.397 . S
C2731 C2732 1.334 . S
C2732 H2703 0.950 . S
C2732 C2731 1.334 . S
C2732 C2733 1.287 . S
C2733 C2732 1.287 . S
C2733 C2734 1.524 . S
C2733 H2736 0.999 . S
C2734 H2704 0.950 . S
C2734 C2733 1.524 . S
C2734 C2735 1.415 . S
C2735 H2705 0.950 . S
C2735 C2730 1.363 . S
C2735 C2734 1.415 . S
H2736 C2733 0.999 . S
H2737 C2718 0.913 . S
H2738 C2756 0.951 . S
H2739 C2758 0.951 . S
H2740 C2760 0.950 . S
H2741 C2761 0.950 . S
H2742 C2763 0.950 . S
H2743 C2766 0.950 . S
H2744 C2767 0.950 . S
H2745 C2769 0.950 . S
H2746 C2770 0.950 . S
H2747 C2771 0.951 . S
H2748 C2773 0.951 . S
H2749 C2775 0.950 . S
H2750 C2776 0.950 . S
H2751 C2778 0.950 . S
H2752 C2781 0.950 . S
H2753 C2782 0.950 . S
H2754 C2784 0.950 . S
H2755 C2785 0.950 . S
C2756 H2738 0.951 . S
C2756 C2757 1.366 . S
C2756 C2758 1.388 . S
C2757 C2756 1.366 . S
C2757 C2761 1.385 . S
C2758 H2739 0.951 . S
C2758 C2756 1.388 . S
C2758 C2759 1.366 . S
C2759 C2758 1.366 . S
C2759 C2760 1.414 . S
C2759 C2762 1.499 . S
C2760 H2740 0.950 . S
C2760 C2759 1.414 . S
C2760 C2761 1.374 . S
C2761 H2741 0.950 . S
C2761 C2757 1.385 . S
C2761 C2760 1.374 . S
C2762 C2759 1.499 . S
C2762 C2763 1.373 . S
C2762 C2764 1.389 . S
C2763 H2742 0.950 . S
C2763 C2762 1.373 . S
C2763 C2779 1.377 . S
C2764 C2762 1.389 . S
C2764 C2765 1.524 . S
C2764 C2778 1.377 . S
C2765 C2764 1.524 . S
C2765 C2766 1.397 . S
C2765 C2770 1.363 . S
C2766 H2743 0.950 . S
C2766 C2765 1.397 . S
C2766 C2767 1.334 . S
C2767 H2744 0.950 . S
C2767 C2766 1.334 . S
C2767 C2768 1.287 . S
C2768 C2767 1.287 . S
C2768 C2769 1.524 . S
C2768 H2787 0.913 . S
C2769 H2745 0.950 . S
C2769 C2768 1.524 . S
C2769 C2770 1.415 . S
C2770 H2746 0.950 . S
C2770 C2765 1.363 . S
C2770 C2769 1.415 . S
C2771 H2747 0.951 . S
C2771 C2772 1.366 . S
C2771 C2773 1.388 . S
C2772 C2771 1.366 . S
C2772 C2776 1.385 . S
C2773 H2748 0.951 . S
C2773 C2771 1.388 . S
C2773 C2774 1.366 . S
C2774 C2773 1.366 . S
C2774 C2775 1.414 . S
C2774 C2777 1.499 . S
C2775 H2749 0.950 . S
C2775 C2774 1.414 . S
C2775 C2776 1.374 . S
C2776 H2750 0.950 . S
C2776 C2772 1.385 . S
C2776 C2775 1.374 . S
C2777 C2774 1.499 . S
C2777 C2778 1.373 . S
C2777 C2779 1.389 . S
C2778 H2751 0.950 . S
C2778 C2764 1.377 . S
C2778 C2777 1.373 . S
C2779 C2763 1.377 . S
C2779 C2777 1.389 . S
C2779 C2780 1.524 . S
C2780 C2779 1.524 . S
C2780 C2781 1.397 . S
C2780 C2785 1.363 . S
C2781 H2752 0.950 . S
C2781 C2780 1.397 . S
C2781 C2782 1.334 . S
C2782 H2753 0.950 . S
C2782 C2781 1.334 . S
C2782 C2783 1.287 . S
C2783 C2782 1.287 . S
C2783 C2784 1.524 . S
C2783 H2786 0.999 . S
C2784 H2754 0.950 . S
C2784 C2783 1.524 . S
C2784 C2785 1.415 . S
C2785 H2755 0.950 . S
C2785 C2780 1.363 . S
C2785 C2784 1.415 . S
H2786 C2783 0.999 . S
H2787 C2768 0.913 . S
H2788 C2806 0.951 . S
H2789 C2808 0.951 . S
H2790 C2810 0.950 . S
H2791 C2811 0.950 . S
H2792 C2813 0.950 . S
H2793 C2816 0.950 . S
H2794 C2817 0.950 . S
H2795 C2819 0.950 . S
H2796 C2820 0.950 . S
H2797 C2821 0.951 . S
H2798 C2823 0.951 . S
H2799 C2825 0.950 . S
H2800 C2826 0.950 . S
H2801 C2828 0.950 . S
H2802 C2831 0.950 . S
H2803 C2832 0.950 . S
H2804 C2834 0.950 . S
H2805 C2835 0.950 . S
C2806 H2788 0.951 . S
C2806 C2807 1.366 . S
C2806 C2808 1.388 . S
C2807 C2806 1.366 . S
C2807 C2811 1.385 . S
C2808 H2789 0.951 . S
C2808 C2806 1.388 . S
C2808 C2809 1.366 . S
C2809 C2808 1.366 . S
C2809 C2810 1.414 . S
C2809 C2812 1.499 . S
C2810 H2790 0.950 . S
C2810 C2809 1.414 . S
C2810 C2811 1.374 . S
C2811 H2791 0.950 . S
C2811 C2807 1.385 . S
C2811 C2810 1.374 . S
C2812 C2809 1.499 . S
C2812 C2813 1.373 . S
C2812 C2814 1.389 . S
C2813 H2792 0.950 . S
C2813 C2812 1.373 . S
C2813 C2829 1.377 1_655 S
C2814 C2812 1.389 . S
C2814 C2815 1.524 . S
C2814 C2828 1.377 . S
C2815 C2814 1.524 . S
C2815 C2816 1.397 . S
C2815 C2820 1.363 . S
C2816 H2793 0.950 . S
C2816 C2815 1.397 . S
C2816 C2817 1.334 . S
C2817 H2794 0.950 . S
C2817 C2816 1.334 . S
C2817 C2818 1.287 . S
C2818 C2817 1.287 . S
C2818 C2819 1.524 . S
C2818 H2837 0.913 . S
C2819 H2795 0.950 . S
C2819 C2818 1.524 . S
C2819 C2820 1.415 . S
C2820 H2796 0.950 . S
C2820 C2815 1.363 . S
C2820 C2819 1.415 . S
C2821 H2797 0.951 . S
C2821 C2822 1.366 . S
C2821 C2823 1.388 . S
C2822 C2821 1.366 . S
C2822 C2826 1.385 . S
C2823 H2798 0.951 . S
C2823 C2821 1.388 . S
C2823 C2824 1.366 . S
C2824 C2823 1.366 . S
C2824 C2825 1.414 . S
C2824 C2827 1.499 . S
C2825 H2799 0.950 . S
C2825 C2824 1.414 . S
C2825 C2826 1.374 . S
C2826 H2800 0.950 . S
C2826 C2822 1.385 . S
C2826 C2825 1.374 . S
C2827 C2824 1.499 . S
C2827 C2828 1.373 1_455 S
C2827 C2829 1.389 . S
C2828 H2801 0.950 . S
C2828 C2814 1.377 . S
C2828 C2827 1.373 1_655 S
C2829 C2813 1.377 1_455 S
C2829 C2827 1.389 . S
C2829 C2830 1.524 . S
C2830 C2829 1.524 . S
C2830 C2831 1.397 . S
C2830 C2835 1.363 . S
C2831 H2802 0.950 . S
C2831 C2830 1.397 . S
C2831 C2832 1.334 . S
C2832 H2803 0.950 . S
C2832 C2831 1.334 . S
C2832 C2833 1.287 . S
C2833 C2832 1.287 . S
C2833 C2834 1.524 . S
C2833 H2836 0.999 . S
C2834 H2804 0.950 . S
C2834 C2833 1.524 . S
C2834 C2835 1.415 . S
C2835 H2805 0.950 . S
C2835 C2830 1.363 . S
C2835 C2834 1.415 . S
H2836 C2833 0.999 . S
H2837 C2818 0.913 . S
H2838 C2856 0.951 . S
H2839 C2858 0.951 . S
H2840 C2860 0.950 . S
H2841 C2861 0.950 . S
H2842 C2863 0.950 . S
H2843 C2866 0.950 . S
H2844 C2867 0.950 . S
H2845 C2869 0.950 . S
H2846 C2870 0.950 . S
H2847 C2871 0.951 . S
H2848 C2873 0.951 . S
H2849 C2875 0.950 . S
H2850 C2876 0.950 . S
H2851 C2878 0.950 . S
H2852 C2881 0.950 . S
H2853 C2882 0.950 . S
H2854 C2884 0.950 . S
H2855 C2885 0.950 . S
C2856 H2838 0.951 . S
C2856 C2857 1.366 . S
C2856 C2858 1.388 . S
C2857 C2856 1.366 . S
C2857 C2861 1.385 . S
C2858 H2839 0.951 . S
C2858 C2856 1.388 . S
C2858 C2859 1.366 . S
C2859 C2858 1.366 . S
C2859 C2860 1.414 . S
C2859 C2862 1.499 . S
C2860 H2840 0.950 . S
C2860 C2859 1.414 . S
C2860 C2861 1.374 . S
C2861 H2841 0.950 . S
C2861 C2857 1.385 . S
C2861 C2860 1.374 . S
C2862 C2859 1.499 . S
C2862 C2863 1.373 . S
C2862 C2864 1.389 . S
C2863 H2842 0.950 . S
C2863 C2862 1.373 . S
C2863 C2879 1.377 . S
C2864 C2862 1.389 . S
C2864 C2865 1.524 . S
C2864 C2878 1.377 . S
C2865 C2864 1.524 . S
C2865 C2866 1.397 . S
C2865 C2870 1.363 . S
C2866 H2843 0.950 . S
C2866 C2865 1.397 . S
C2866 C2867 1.334 . S
C2867 H2844 0.950 . S
C2867 C2866 1.334 . S
C2867 C2868 1.287 . S
C2868 C2867 1.287 . S
C2868 C2869 1.524 . S
C2868 H2887 0.913 . S
C2869 H2845 0.950 . S
C2869 C2868 1.524 . S
C2869 C2870 1.415 . S
C2870 H2846 0.950 . S
C2870 C2865 1.363 . S
C2870 C2869 1.415 . S
C2871 H2847 0.951 . S
C2871 C2872 1.366 . S
C2871 C2873 1.388 . S
C2872 C2871 1.366 . S
C2872 C2876 1.385 . S
C2873 H2848 0.951 . S
C2873 C2871 1.388 . S
C2873 C2874 1.366 . S
C2874 C2873 1.366 . S
C2874 C2875 1.414 . S
C2874 C2877 1.499 . S
C2875 H2849 0.950 . S
C2875 C2874 1.414 . S
C2875 C2876 1.374 . S
C2876 H2850 0.950 . S
C2876 C2872 1.385 . S
C2876 C2875 1.374 . S
C2877 C2874 1.499 . S
C2877 C2878 1.373 . S
C2877 C2879 1.389 . S
C2878 H2851 0.950 . S
C2878 C2864 1.377 . S
C2878 C2877 1.373 . S
C2879 C2863 1.377 . S
C2879 C2877 1.389 . S
C2879 C2880 1.524 . S
C2880 C2879 1.524 . S
C2880 C2881 1.397 . S
C2880 C2885 1.363 . S
C2881 H2852 0.950 . S
C2881 C2880 1.397 . S
C2881 C2882 1.334 . S
C2882 H2853 0.950 . S
C2882 C2881 1.334 . S
C2882 C2883 1.287 . S
C2883 C2882 1.287 . S
C2883 C2884 1.524 . S
C2883 H2886 0.999 . S
C2884 H2854 0.950 . S
C2884 C2883 1.524 . S
C2884 C2885 1.415 . S
C2885 H2855 0.950 . S
C2885 C2880 1.363 . S
C2885 C2884 1.415 . S
H2886 C2883 0.999 . S
H2887 C2868 0.913 . S
H2888 C2906 0.951 . S
H2889 C2908 0.951 . S
H2890 C2910 0.950 . S
H2891 C2911 0.950 1_545 S
H2892 C2913 0.950 . S
H2893 C2916 0.950 . S
H2894 C2917 0.950 . S
H2895 C2919 0.950 . S
H2896 C2920 0.950 . S
H2897 C2921 0.951 . S
H2898 C2923 0.951 . S
H2899 C2925 0.950 . S
H2900 C2926 0.950 . S
H2901 C2928 0.950 . S
H2902 C2931 0.957 . S
H2903 C2932 0.950 . S
H2904 C2934 0.950 1_545 S
H2905 C2935 0.950 . S
C2906 H2888 0.951 . S
C2906 C2907 1.366 . S
C2906 C2908 1.388 . S
C2907 C2906 1.366 . S
C2907 C2911 1.385 . S
C2908 H2889 0.951 . S
C2908 C2906 1.388 . S
C2908 C2909 1.366 . S
C2909 C2908 1.366 . S
C2909 C2910 1.414 . S
C2909 C2912 1.499 . S
C2910 H2890 0.950 . S
C2910 C2909 1.414 . S
C2910 C2911 1.374 . S
C2911 H2891 0.950 1_565 S
C2911 C2907 1.385 . S
C2911 C2910 1.374 . S
C2912 C2909 1.499 . S
C2912 C2913 1.373 . S
C2912 C2914 1.389 . S
C2913 H2892 0.950 . S
C2913 C2912 1.373 . S
C2913 C2929 1.377 . S
C2914 C2912 1.389 . S
C2914 C2915 1.524 . S
C2914 C2928 1.377 . S
C2915 C2914 1.524 . S
C2915 C2916 1.397 . S
C2915 C2920 1.363 . S
C2916 H2893 0.950 . S
C2916 C2915 1.397 . S
C2916 C2917 1.334 . S
C2917 H2894 0.950 . S
C2917 C2916 1.334 . S
C2917 C2918 1.287 . S
C2918 C2917 1.287 . S
C2918 C2919 1.524 . S
C2918 H2937 0.913 . S
C2919 H2895 0.950 . S
C2919 C2918 1.524 . S
C2919 C2920 1.415 . S
C2920 H2896 0.950 . S
C2920 C2915 1.363 . S
C2920 C2919 1.415 . S
C2921 H2897 0.951 . S
C2921 C2922 1.366 . S
C2921 C2923 1.388 . S
C2922 C2921 1.366 . S
C2922 C2926 1.385 . S
C2923 H2898 0.951 . S
C2923 C2921 1.388 . S
C2923 C2924 1.366 . S
C2924 C2923 1.366 . S
C2924 C2925 1.414 . S
C2924 C2927 1.499 . S
C2925 H2899 0.950 . S
C2925 C2924 1.414 . S
C2925 C2926 1.374 . S
C2926 H2900 0.950 . S
C2926 C2922 1.385 . S
C2926 C2925 1.374 . S
C2927 C2924 1.499 . S
C2927 C2928 1.373 1_655 S
C2927 C2929 1.389 1_655 S
C2928 H2901 0.950 . S
C2928 C2914 1.377 . S
C2928 C2927 1.373 1_455 S
C2929 C2913 1.377 . S
C2929 C2927 1.389 1_455 S
C2929 C2930 1.524 1_455 S
C2930 C2929 1.524 1_655 S
C2930 C2931 1.397 . S
C2930 C2935 1.363 . S
C2931 H2902 0.957 . S
C2931 C2930 1.397 . S
C2931 C2932 1.334 . S
C2932 H2903 0.950 . S
C2932 C2931 1.334 . S
C2932 C2933 1.287 . S
C2933 C2932 1.287 . S
C2933 C2934 1.524 . S
C2933 H2936 0.999 . S
C2934 H2904 0.950 1_565 S
C2934 C2933 1.524 . S
C2934 C2935 1.415 . S
C2935 H2905 0.950 . S
C2935 C2930 1.363 . S
C2935 C2934 1.415 . S
H2936 C2933 0.999 . S
H2937 C2918 0.913 . S
H2938 C2956 0.951 . S
H2939 C2958 0.951 . S
H2940 C2960 0.950 . S
H2941 C2961 0.950 . S
H2942 C2963 0.950 . S
H2943 C2966 0.950 . S
H2944 C2967 0.950 . S
H2945 C2969 0.950 . S
H2946 C2970 0.950 . S
H2947 C2971 0.951 . S
H2948 C2973 0.951 . S
H2949 C2975 0.950 . S
H2950 C2976 0.950 . S
H2951 C2978 0.950 . S
H2952 C2981 0.950 . S
H2953 C2982 0.950 . S
H2954 C2984 0.950 . S
H2955 C2985 0.950 . S
C2956 H2938 0.951 . S
C2956 C2957 1.366 . S
C2956 C2958 1.388 . S
C2957 C2956 1.366 . S
C2957 C2961 1.385 . S
C2958 H2939 0.951 . S
C2958 C2956 1.388 . S
C2958 C2959 1.366 . S
C2959 C2958 1.366 . S
C2959 C2960 1.414 . S
C2959 C2962 1.499 . S
C2960 H2940 0.950 . S
C2960 C2959 1.414 . S
C2960 C2961 1.374 . S
C2961 H2941 0.950 . S
C2961 C2957 1.385 . S
C2961 C2960 1.374 . S
C2962 C2959 1.499 . S
C2962 C2963 1.373 . S
C2962 C2964 1.389 . S
C2963 H2942 0.950 . S
C2963 C2962 1.373 . S
C2963 C2979 1.377 . S
C2964 C2962 1.389 . S
C2964 C2965 1.524 . S
C2964 C2978 1.377 . S
C2965 C2964 1.524 . S
C2965 C2966 1.397 . S
C2965 C2970 1.363 . S
C2966 H2943 0.950 . S
C2966 C2965 1.397 . S
C2966 C2967 1.334 . S
C2967 H2944 0.950 . S
C2967 C2966 1.334 . S
C2967 C2968 1.287 . S
C2968 C2967 1.287 . S
C2968 C2969 1.524 . S
C2968 H2987 0.913 . S
C2969 H2945 0.950 . S
C2969 C2968 1.524 . S
C2969 C2970 1.415 . S
C2970 H2946 0.950 . S
C2970 C2965 1.363 . S
C2970 C2969 1.415 . S
C2971 H2947 0.951 . S
C2971 C2972 1.366 . S
C2971 C2973 1.388 . S
C2972 C2971 1.366 . S
C2972 C2976 1.385 . S
C2973 H2948 0.951 . S
C2973 C2971 1.388 . S
C2973 C2974 1.366 . S
C2974 C2973 1.366 . S
C2974 C2975 1.414 . S
C2974 C2977 1.499 . S
C2975 H2949 0.950 . S
C2975 C2974 1.414 . S
C2975 C2976 1.374 . S
C2976 H2950 0.950 . S
C2976 C2972 1.385 . S
C2976 C2975 1.374 . S
C2977 C2974 1.499 . S
C2977 C2978 1.373 . S
C2977 C2979 1.389 . S
C2978 H2951 0.950 . S
C2978 C2964 1.377 . S
C2978 C2977 1.373 . S
C2979 C2963 1.377 . S
C2979 C2977 1.389 . S
C2979 C2980 1.524 . S
C2980 C2979 1.524 . S
C2980 C2981 1.397 . S
C2980 C2985 1.363 . S
C2981 H2952 0.950 . S
C2981 C2980 1.397 . S
C2981 C2982 1.334 . S
C2982 H2953 0.950 . S
C2982 C2981 1.334 . S
C2982 C2983 1.287 . S
C2983 C2982 1.287 . S
C2983 C2984 1.524 . S
C2983 H2986 0.999 . S
C2984 H2954 0.950 . S
C2984 C2983 1.524 . S
C2984 C2985 1.415 . S
C2985 H2955 0.950 . S
C2985 C2980 1.363 . S
C2985 C2984 1.415 . S
H2986 C2983 0.999 . S
H2987 C2968 0.913 . S
H2988 C3006 0.951 . S
H2989 C3008 0.951 . S
H2990 C3010 0.950 . S
H2991 C3011 0.950 . S
H2992 C3013 0.950 . S
H2993 C3016 0.950 . S
H2994 C3017 0.950 . S
H2995 C3019 0.950 . S
H2996 C3020 0.950 . S
H2997 C3021 0.951 . S
H2998 C3023 0.951 . S
H2999 C3025 0.950 . S
H3000 C3026 0.950 . S
H3001 C3028 0.950 . S
H3002 C3031 0.950 . S
H3003 C3032 0.950 . S
H3004 C3034 0.950 . S
H3005 C3035 0.950 . S
C3006 H2988 0.951 . S
C3006 C3007 1.366 . S
C3006 C3008 1.388 . S
C3007 C3006 1.366 . S
C3007 C3011 1.385 . S
C3008 H2989 0.951 . S
C3008 C3006 1.388 . S
C3008 C3009 1.366 . S
C3009 C3008 1.366 . S
C3009 C3010 1.414 . S
C3009 C3012 1.499 . S
C3010 H2990 0.950 . S
C3010 C3009 1.414 . S
C3010 C3011 1.374 . S
C3011 H2991 0.950 . S
C3011 C3007 1.385 . S
C3011 C3010 1.374 . S
C3012 C3009 1.499 . S
C3012 C3013 1.373 . S
C3012 C3014 1.389 . S
C3013 H2992 0.950 . S
C3013 C3012 1.373 . S
C3013 C3029 1.377 . S
C3014 C3012 1.389 . S
C3014 C3015 1.524 . S
C3014 C3028 1.377 1_655 S
C3015 C3014 1.524 . S
C3015 C3016 1.397 . S
C3015 C3020 1.363 1_655 S
C3016 H2993 0.950 . S
C3016 C3015 1.397 . S
C3016 C3017 1.334 . S
C3017 H2994 0.950 . S
C3017 C3016 1.334 . S
C3017 C3018 1.287 . S
C3018 C3017 1.287 . S
C3018 C3019 1.523 1_655 S
C3018 H3037 0.913 . S
C3019 H2995 0.950 . S
C3019 C3018 1.523 1_455 S
C3019 C3020 1.415 . S
C3020 H2996 0.950 . S
C3020 C3015 1.363 1_455 S
C3020 C3019 1.415 . S
C3021 H2997 0.951 . S
C3021 C3022 1.366 . S
C3021 C3023 1.388 . S
C3022 C3021 1.366 . S
C3022 C3026 1.385 . S
C3023 H2998 0.951 . S
C3023 C3021 1.388 . S
C3023 C3024 1.366 . S
C3024 C3023 1.366 . S
C3024 C3025 1.414 . S
C3024 C3027 1.499 . S
C3025 H2999 0.950 . S
C3025 C3024 1.414 . S
C3025 C3026 1.374 . S
C3026 H3000 0.950 . S
C3026 C3022 1.385 . S
C3026 C3025 1.374 . S
C3027 C3024 1.499 . S
C3027 C3028 1.373 . S
C3027 C3029 1.389 1_455 S
C3028 H3001 0.950 . S
C3028 C3014 1.377 1_455 S
C3028 C3027 1.373 . S
C3029 C3013 1.377 . S
C3029 C3027 1.389 1_655 S
C3029 C3030 1.524 . S
C3030 C3029 1.524 . S
C3030 C3031 1.397 1_655 S
C3030 C3035 1.363 . S
C3031 H3002 0.950 . S
C3031 C3030 1.397 1_455 S
C3031 C3032 1.334 . S
C3032 H3003 0.950 . S
C3032 C3031 1.334 . S
C3032 C3033 1.287 1_455 S
C3033 C3032 1.287 1_655 S
C3033 C3034 1.524 . S
C3033 H3036 1.003 . S
C3034 H3004 0.950 . S
C3034 C3033 1.524 . S
C3034 C3035 1.415 . S
C3035 H3005 0.950 . S
C3035 C3030 1.363 . S
C3035 C3034 1.415 . S
H3036 C3033 1.003 . S
H3037 C3018 0.913 . S
H3038 C3056 0.951 . S
H3039 C3058 0.951 . S
H3040 C3060 0.950 . S
H3041 C3061 0.950 . S
H3042 C3063 0.950 . S
H3043 C3066 0.950 . S
H3044 C3067 0.950 . S
H3045 C3069 0.950 . S
H3046 C3070 0.950 . S
H3047 C3071 0.951 . S
H3048 C3073 0.951 . S
H3049 C3075 0.950 . S
H3050 C3076 0.950 . S
H3051 C3078 0.950 . S
H3052 C3081 0.950 . S
H3053 C3082 0.950 . S
H3054 C3084 0.950 . S
H3055 C3085 0.950 . S
C3056 H3038 0.951 . S
C3056 C3057 1.366 . S
C3056 C3058 1.388 . S
C3057 C3056 1.366 . S
C3057 C3061 1.385 . S
C3058 H3039 0.951 . S
C3058 C3056 1.388 . S
C3058 C3059 1.366 . S
C3059 C3058 1.366 . S
C3059 C3060 1.414 . S
C3059 C3062 1.499 . S
C3060 H3040 0.950 . S
C3060 C3059 1.414 . S
C3060 C3061 1.374 . S
C3061 H3041 0.950 . S
C3061 C3057 1.385 . S
C3061 C3060 1.374 . S
C3062 C3059 1.499 . S
C3062 C3063 1.373 . S
C3062 C3064 1.389 . S
C3063 H3042 0.950 . S
C3063 C3062 1.373 . S
C3063 C3079 1.377 . S
C3064 C3062 1.389 . S
C3064 C3065 1.524 . S
C3064 C3078 1.377 . S
C3065 C3064 1.524 . S
C3065 C3066 1.397 . S
C3065 C3070 1.363 . S
C3066 H3043 0.950 . S
C3066 C3065 1.397 . S
C3066 C3067 1.334 . S
C3067 H3044 0.950 . S
C3067 C3066 1.334 . S
C3067 C3068 1.287 . S
C3068 C3067 1.287 . S
C3068 C3069 1.524 . S
C3068 H3087 0.913 . S
C3069 H3045 0.950 . S
C3069 C3068 1.524 . S
C3069 C3070 1.415 . S
C3070 H3046 0.950 . S
C3070 C3065 1.363 . S
C3070 C3069 1.415 . S
C3071 H3047 0.951 . S
C3071 C3072 1.366 . S
C3071 C3073 1.388 . S
C3072 C3071 1.366 . S
C3072 C3076 1.385 . S
C3073 H3048 0.951 . S
C3073 C3071 1.388 . S
C3073 C3074 1.366 . S
C3074 C3073 1.366 . S
C3074 C3075 1.414 . S
C3074 C3077 1.499 . S
C3075 H3049 0.950 . S
C3075 C3074 1.414 . S
C3075 C3076 1.374 . S
C3076 H3050 0.950 . S
C3076 C3072 1.385 . S
C3076 C3075 1.374 . S
C3077 C3074 1.499 . S
C3077 C3078 1.373 . S
C3077 C3079 1.389 . S
C3078 H3051 0.950 . S
C3078 C3064 1.377 . S
C3078 C3077 1.373 . S
C3079 C3063 1.377 . S
C3079 C3077 1.389 . S
C3079 C3080 1.524 . S
C3080 C3079 1.524 . S
C3080 C3081 1.397 . S
C3080 C3085 1.363 . S
C3081 H3052 0.950 . S
C3081 C3080 1.397 . S
C3081 C3082 1.334 . S
C3082 H3053 0.950 . S
C3082 C3081 1.334 . S
C3082 C3083 1.287 . S
C3083 C3082 1.287 . S
C3083 C3084 1.524 . S
C3083 H3086 0.999 . S
C3084 H3054 0.950 . S
C3084 C3083 1.524 . S
C3084 C3085 1.415 . S
C3085 H3055 0.950 . S
C3085 C3080 1.363 . S
C3085 C3084 1.415 . S
H3086 C3083 0.999 . S
H3087 C3068 0.913 . S
H3088 C3106 0.951 . S
H3089 C3108 0.951 . S
H3090 C3110 0.950 . S
H3091 C3111 0.950 . S
H3092 C3113 0.950 . S
H3093 C3116 0.950 . S
H3094 C3117 0.950 . S
H3095 C3119 0.950 . S
H3096 C3120 0.950 . S
H3097 C3121 0.951 . S
H3098 C3123 0.951 . S
H3099 C3125 0.950 . S
H3100 C3126 0.950 . S
H3101 C3128 0.950 . S
H3102 C3131 0.950 . S
H3103 C3132 0.950 . S
H3104 C3134 0.950 . S
H3105 C3135 0.950 . S
C3106 H3088 0.951 . S
C3106 C3107 1.366 . S
C3106 C3108 1.388 . S
C3107 C3106 1.366 . S
C3107 C3111 1.385 . S
C3108 H3089 0.951 . S
C3108 C3106 1.388 . S
C3108 C3109 1.366 . S
C3109 C3108 1.366 . S
C3109 C3110 1.414 . S
C3109 C3112 1.499 . S
C3110 H3090 0.950 . S
C3110 C3109 1.414 . S
C3110 C3111 1.374 . S
C3111 H3091 0.950 . S
C3111 C3107 1.385 . S
C3111 C3110 1.374 . S
C3112 C3109 1.499 . S
C3112 C3113 1.373 . S
C3112 C3114 1.389 . S
C3113 H3092 0.950 . S
C3113 C3112 1.373 . S
C3113 C3129 1.377 . S
C3114 C3112 1.389 . S
C3114 C3115 1.524 . S
C3114 C3128 1.377 . S
C3115 C3114 1.524 . S
C3115 C3116 1.397 . S
C3115 C3120 1.363 . S
C3116 H3093 0.950 . S
C3116 C3115 1.397 . S
C3116 C3117 1.334 . S
C3117 H3094 0.950 . S
C3117 C3116 1.334 . S
C3117 C3118 1.287 . S
C3118 C3117 1.287 . S
C3118 C3119 1.524 . S
C3118 H3137 0.913 . S
C3119 H3095 0.950 . S
C3119 C3118 1.524 . S
C3119 C3120 1.415 . S
C3120 H3096 0.950 . S
C3120 C3115 1.363 . S
C3120 C3119 1.415 . S
C3121 H3097 0.951 . S
C3121 C3122 1.366 . S
C3121 C3123 1.388 . S
C3122 C3121 1.366 . S
C3122 C3126 1.385 . S
C3123 H3098 0.951 . S
C3123 C3121 1.388 . S
C3123 C3124 1.366 . S
C3124 C3123 1.366 . S
C3124 C3125 1.414 . S
C3124 C3127 1.499 . S
C3125 H3099 0.950 . S
C3125 C3124 1.414 . S
C3125 C3126 1.374 . S
C3126 H3100 0.950 . S
C3126 C3122 1.385 . S
C3126 C3125 1.374 . S
C3127 C3124 1.499 . S
C3127 C3128 1.373 . S
C3127 C3129 1.389 . S
C3128 H3101 0.950 . S
C3128 C3114 1.377 . S
C3128 C3127 1.373 . S
C3129 C3113 1.377 . S
C3129 C3127 1.389 . S
C3129 C3130 1.524 . S
C3130 C3129 1.524 . S
C3130 C3131 1.397 . S
C3130 C3135 1.363 . S
C3131 H3102 0.950 . S
C3131 C3130 1.397 . S
C3131 C3132 1.334 . S
C3132 H3103 0.950 . S
C3132 C3131 1.334 . S
C3132 C3133 1.287 . S
C3133 C3132 1.287 . S
C3133 C3134 1.524 . S
C3133 H3136 0.999 . S
C3134 H3104 0.950 . S
C3134 C3133 1.524 . S
C3134 C3135 1.415 . S
C3135 H3105 0.950 . S
C3135 C3130 1.363 . S
C3135 C3134 1.415 . S
H3136 C3133 0.999 . S
H3137 C3118 0.913 . S
H3138 C3156 0.951 . S
H3139 C3158 0.951 . S
H3140 C3160 0.950 . S
H3141 C3161 0.950 . S
H3142 C3163 0.950 . S
H3143 C3166 0.950 . S
H3144 C3167 0.950 . S
H3145 C3169 0.950 . S
H3146 C3170 0.950 . S
H3147 C3171 0.951 . S
H3148 C3173 0.951 . S
H3149 C3175 0.950 . S
H3150 C3176 0.950 . S
H3151 C3178 0.950 . S
H3152 C3181 0.950 . S
H3153 C3182 0.950 . S
H3154 C3184 0.950 . S
H3155 C3185 0.950 . S
C3156 H3138 0.951 . S
C3156 C3157 1.366 . S
C3156 C3158 1.388 . S
C3157 C3156 1.366 . S
C3157 C3161 1.385 . S
C3158 H3139 0.951 . S
C3158 C3156 1.388 . S
C3158 C3159 1.366 . S
C3159 C3158 1.366 . S
C3159 C3160 1.414 . S
C3159 C3162 1.499 . S
C3160 H3140 0.950 . S
C3160 C3159 1.414 . S
C3160 C3161 1.374 . S
C3161 H3141 0.950 . S
C3161 C3157 1.385 . S
C3161 C3160 1.374 . S
C3162 C3159 1.499 . S
C3162 C3163 1.373 . S
C3162 C3164 1.389 . S
C3163 H3142 0.950 . S
C3163 C3162 1.373 . S
C3163 C3179 1.377 . S
C3164 C3162 1.389 . S
C3164 C3165 1.524 . S
C3164 C3178 1.377 . S
C3165 C3164 1.524 . S
C3165 C3166 1.397 . S
C3165 C3170 1.363 . S
C3166 H3143 0.950 . S
C3166 C3165 1.397 . S
C3166 C3167 1.334 . S
C3167 H3144 0.950 . S
C3167 C3166 1.334 . S
C3167 C3168 1.287 . S
C3168 C3167 1.287 . S
C3168 C3169 1.524 . S
C3168 H3187 0.913 . S
C3169 H3145 0.950 . S
C3169 C3168 1.524 . S
C3169 C3170 1.415 . S
C3170 H3146 0.950 . S
C3170 C3165 1.363 . S
C3170 C3169 1.415 . S
C3171 H3147 0.951 . S
C3171 C3172 1.366 . S
C3171 C3173 1.388 . S
C3172 C3171 1.366 . S
C3172 C3176 1.385 . S
C3173 H3148 0.951 . S
C3173 C3171 1.388 . S
C3173 C3174 1.366 . S
C3174 C3173 1.366 . S
C3174 C3175 1.414 . S
C3174 C3177 1.510 . S
C3175 H3149 0.950 . S
C3175 C3174 1.414 . S
C3175 C3176 1.374 . S
C3176 H3150 0.950 . S
C3176 C3172 1.385 . S
C3176 C3175 1.374 . S
C3177 C3174 1.510 . S
C3177 C3178 1.366 1_556 S
C3177 C3179 1.385 1_556 S
C3178 H3151 0.950 . S
C3178 C3164 1.377 . S
C3178 C3177 1.366 1_554 S
C3179 C3163 1.377 . S
C3179 C3177 1.385 1_554 S
C3179 C3180 1.524 1_554 S
C3180 C3179 1.524 1_556 S
C3180 C3181 1.397 . S
C3180 C3185 1.363 . S
C3181 H3152 0.950 . S
C3181 C3180 1.397 . S
C3181 C3182 1.334 . S
C3182 H3153 0.950 . S
C3182 C3181 1.334 . S
C3182 C3183 1.287 . S
C3183 C3182 1.287 . S
C3183 C3184 1.524 . S
C3183 H3186 0.999 . S
C3184 H3154 0.950 . S
C3184 C3183 1.524 . S
C3184 C3185 1.415 . S
C3185 H3155 0.950 . S
C3185 C3180 1.363 . S
C3185 C3184 1.415 . S
H3186 C3183 0.999 . S
H3187 C3168 0.913 . S
H3188 C3206 0.951 1_455 S
H3189 C3208 0.951 . S
H3190 C3210 0.950 . S
H3191 C3211 0.950 . S
H3192 C3213 0.950 . S
H3193 C3216 0.950 . S
H3194 C3217 0.950 . S
H3195 C3219 0.930 1_455 S
H3196 C3220 0.950 . S
H3197 C3221 0.951 . S
H3198 C3223 0.951 . S
H3199 C3225 0.950 . S
H3200 C3226 0.950 . S
H3201 C3228 0.950 . S
H3202 C3231 0.950 . S
H3203 C3232 0.950 . S
H3204 C3234 0.950 . S
H3205 C3235 0.950 . S
C3206 H3188 0.951 1_655 S
C3206 C3207 1.366 . S
C3206 C3208 1.388 . S
C3207 C3206 1.366 . S
C3207 C3211 1.385 . S
C3208 H3189 0.951 . S
C3208 C3206 1.388 . S
C3208 C3209 1.366 . S
C3209 C3208 1.366 . S
C3209 C3210 1.414 . S
C3209 C3212 1.499 . S
C3210 H3190 0.950 . S
C3210 C3209 1.414 . S
C3210 C3211 1.374 . S
C3211 H3191 0.950 . S
C3211 C3207 1.385 . S
C3211 C3210 1.374 . S
C3212 C3209 1.499 . S
C3212 C3213 1.373 . S
C3212 C3214 1.389 . S
C3213 H3192 0.950 . S
C3213 C3212 1.373 . S
C3213 C3229 1.377 . S
C3214 C3212 1.389 . S
C3214 C3215 1.524 . S
C3214 C3228 1.377 . S
C3215 C3214 1.524 . S
C3215 C3216 1.397 . S
C3215 C3220 1.363 . S
C3216 H3193 0.950 . S
C3216 C3215 1.397 . S
C3216 C3217 1.334 . S
C3217 H3194 0.950 . S
C3217 C3216 1.334 . S
C3217 C3218 1.287 . S
C3218 C3217 1.287 . S
C3218 C3219 1.530 . S
C3218 H3237 0.913 1_655 S
C3219 H3195 0.930 1_655 S
C3219 C3218 1.530 . S
C3219 C3220 1.431 . S
C3220 H3196 0.950 . S
C3220 C3215 1.363 . S
C3220 C3219 1.431 . S
C3221 H3197 0.951 . S
C3221 C3222 1.366 . S
C3221 C3223 1.388 . S
C3222 C3221 1.366 . S
C3222 C3226 1.385 . S
C3223 H3198 0.951 . S
C3223 C3221 1.388 . S
C3223 C3224 1.366 . S
C3224 C3223 1.366 . S
C3224 C3225 1.414 . S
C3224 C3227 1.499 . S
C3225 H3199 0.950 . S
C3225 C3224 1.414 . S
C3225 C3226 1.374 . S
C3226 H3200 0.950 . S
C3226 C3222 1.385 . S
C3226 C3225 1.374 . S
C3227 C3224 1.499 . S
C3227 C3228 1.373 . S
C3227 C3229 1.389 . S
C3228 H3201 0.950 . S
C3228 C3214 1.377 . S
C3228 C3227 1.373 . S
C3229 C3213 1.377 . S
C3229 C3227 1.389 . S
C3229 C3230 1.524 . S
C3230 C3229 1.524 . S
C3230 C3231 1.397 . S
C3230 C3235 1.363 . S
C3231 H3202 0.950 . S
C3231 C3230 1.397 . S
C3231 C3232 1.334 . S
C3232 H3203 0.950 . S
C3232 C3231 1.334 . S
C3232 C3233 1.287 . S
C3233 C3232 1.287 . S
C3233 C3234 1.524 . S
C3233 H3236 0.999 . S
C3234 H3204 0.950 . S
C3234 C3233 1.524 . S
C3234 C3235 1.415 . S
C3235 H3205 0.950 . S
C3235 C3230 1.363 . S
C3235 C3234 1.415 . S
H3236 C3233 0.999 . S
H3237 C3218 0.913 1_455 S
H3238 C3256 0.951 . S
H3239 C3258 0.951 . S
H3240 C3260 0.950 . S
H3241 C3261 0.950 . S
H3242 C3263 0.950 . S
H3243 C3266 0.950 . S
H3244 C3267 0.950 . S
H3245 C3269 0.950 . S
H3246 C3270 0.950 . S
H3247 C3271 0.951 . S
H3248 C3273 0.951 . S
H3249 C3275 0.950 . S
H3250 C3276 0.950 . S
H3251 C3278 0.950 . S
H3252 C3281 0.950 . S
H3253 C3282 0.950 . S
H3254 C3284 0.950 . S
H3255 C3285 0.950 . S
C3256 H3238 0.951 . S
C3256 C3257 1.366 . S
C3256 C3258 1.388 . S
C3257 C3256 1.366 . S
C3257 C3261 1.385 . S
C3258 H3239 0.951 . S
C3258 C3256 1.388 . S
C3258 C3259 1.366 . S
C3259 C3258 1.366 . S
C3259 C3260 1.414 . S
C3259 C3262 1.499 . S
C3260 H3240 0.950 . S
C3260 C3259 1.414 . S
C3260 C3261 1.374 . S
C3261 H3241 0.950 . S
C3261 C3257 1.385 . S
C3261 C3260 1.374 . S
C3262 C3259 1.499 . S
C3262 C3263 1.373 . S
C3262 C3264 1.389 . S
C3263 H3242 0.950 . S
C3263 C3262 1.373 . S
C3263 C3279 1.377 . S
C3264 C3262 1.389 . S
C3264 C3265 1.524 . S
C3264 C3278 1.377 . S
C3265 C3264 1.524 . S
C3265 C3266 1.397 . S
C3265 C3270 1.363 . S
C3266 H3243 0.950 . S
C3266 C3265 1.397 . S
C3266 C3267 1.334 . S
C3267 H3244 0.950 . S
C3267 C3266 1.334 . S
C3267 C3268 1.287 . S
C3268 C3267 1.287 . S
C3268 C3269 1.524 . S
C3268 H3287 0.913 . S
C3269 H3245 0.950 . S
C3269 C3268 1.524 . S
C3269 C3270 1.415 . S
C3270 H3246 0.950 . S
C3270 C3265 1.363 . S
C3270 C3269 1.415 . S
C3271 H3247 0.951 . S
C3271 C3272 1.366 . S
C3271 C3273 1.388 . S
C3272 C3271 1.366 . S
C3272 C3276 1.385 . S
C3273 H3248 0.951 . S
C3273 C3271 1.388 . S
C3273 C3274 1.366 . S
C3274 C3273 1.366 . S
C3274 C3275 1.414 . S
C3274 C3277 1.499 . S
C3275 H3249 0.950 . S
C3275 C3274 1.414 . S
C3275 C3276 1.374 . S
C3276 H3250 0.950 . S
C3276 C3272 1.385 . S
C3276 C3275 1.374 . S
C3277 C3274 1.499 . S
C3277 C3278 1.373 . S
C3277 C3279 1.389 . S
C3278 H3251 0.950 . S
C3278 C3264 1.377 . S
C3278 C3277 1.373 . S
C3279 C3263 1.377 . S
C3279 C3277 1.389 . S
C3279 C3280 1.524 . S
C3280 C3279 1.524 . S
C3280 C3281 1.397 . S
C3280 C3285 1.363 . S
C3281 H3252 0.950 . S
C3281 C3280 1.397 . S
C3281 C3282 1.334 . S
C3282 H3253 0.950 . S
C3282 C3281 1.334 . S
C3282 C3283 1.287 . S
C3283 C3282 1.287 . S
C3283 C3284 1.524 . S
C3283 H3286 0.999 . S
C3284 H3254 0.950 . S
C3284 C3283 1.524 . S
C3284 C3285 1.415 . S
C3285 H3255 0.950 . S
C3285 C3280 1.363 . S
C3285 C3284 1.415 . S
H3286 C3283 0.999 . S
H3287 C3268 0.913 . S
H3288 C3306 0.951 . S
H3289 C3308 0.951 . S
H3290 C3310 0.950 . S
H3291 C3311 0.950 . S
H3292 C3313 0.950 . S
H3293 C3316 0.950 . S
H3294 C3317 0.950 . S
H3295 C3319 0.950 . S
H3296 C3320 0.950 . S
H3297 C3321 0.951 . S
H3298 C3323 0.951 . S
H3299 C3325 0.950 . S
H3300 C3326 0.950 . S
H3301 C3328 0.950 . S
H3302 C3331 0.950 . S
H3303 C3332 0.950 . S
H3304 C3334 0.950 . S
H3305 C3335 0.950 . S
C3306 H3288 0.951 . S
C3306 C3307 1.366 . S
C3306 C3308 1.388 . S
C3307 C3306 1.366 . S
C3307 C3311 1.385 . S
C3308 H3289 0.951 . S
C3308 C3306 1.388 . S
C3308 C3309 1.366 . S
C3309 C3308 1.366 . S
C3309 C3310 1.414 . S
C3309 C3312 1.499 . S
C3310 H3290 0.950 . S
C3310 C3309 1.414 . S
C3310 C3311 1.374 . S
C3311 H3291 0.950 . S
C3311 C3307 1.385 . S
C3311 C3310 1.374 . S
C3312 C3309 1.499 . S
C3312 C3313 1.373 . S
C3312 C3314 1.389 . S
C3313 H3292 0.950 . S
C3313 C3312 1.373 . S
C3313 C3329 1.377 . S
C3314 C3312 1.389 . S
C3314 C3315 1.524 . S
C3314 C3328 1.377 . S
C3315 C3314 1.524 . S
C3315 C3316 1.397 . S
C3315 C3320 1.363 . S
C3316 H3293 0.950 . S
C3316 C3315 1.397 . S
C3316 C3317 1.334 . S
C3317 H3294 0.950 . S
C3317 C3316 1.334 . S
C3317 C3318 1.287 . S
C3318 C3317 1.287 . S
C3318 C3319 1.524 . S
C3318 H3337 0.913 . S
C3319 H3295 0.950 . S
C3319 C3318 1.524 . S
C3319 C3320 1.415 . S
C3320 H3296 0.950 . S
C3320 C3315 1.363 . S
C3320 C3319 1.415 . S
C3321 H3297 0.951 . S
C3321 C3322 1.366 . S
C3321 C3323 1.388 . S
C3322 C3321 1.366 . S
C3322 C3326 1.385 . S
C3323 H3298 0.951 . S
C3323 C3321 1.388 . S
C3323 C3324 1.366 . S
C3324 C3323 1.366 . S
C3324 C3325 1.414 . S
C3324 C3327 1.499 . S
C3325 H3299 0.950 . S
C3325 C3324 1.414 . S
C3325 C3326 1.374 . S
C3326 H3300 0.950 . S
C3326 C3322 1.385 . S
C3326 C3325 1.374 . S
C3327 C3324 1.499 . S
C3327 C3328 1.373 . S
C3327 C3329 1.389 . S
C3328 H3301 0.950 . S
C3328 C3314 1.377 . S
C3328 C3327 1.373 . S
C3329 C3313 1.377 . S
C3329 C3327 1.389 . S
C3329 C3330 1.524 . S
C3330 C3329 1.524 . S
C3330 C3331 1.397 . S
C3330 C3335 1.363 . S
C3331 H3302 0.950 . S
C3331 C3330 1.397 . S
C3331 C3332 1.334 . S
C3332 H3303 0.950 . S
C3332 C3331 1.334 . S
C3332 C3333 1.287 . S
C3333 C3332 1.287 . S
C3333 C3334 1.524 . S
C3333 H3336 0.999 . S
C3334 H3304 0.950 . S
C3334 C3333 1.524 . S
C3334 C3335 1.415 . S
C3335 H3305 0.950 . S
C3335 C3330 1.363 . S
C3335 C3334 1.415 . S
H3336 C3333 0.999 . S
H3337 C3318 0.913 . S
H3338 C3356 0.951 . S
H3339 C3358 0.951 . S
H3340 C3360 0.950 . S
H3341 C3361 0.950 . S
H3342 C3363 0.950 . S
H3343 C3366 0.950 . S
H3344 C3367 0.950 . S
H3345 C3369 0.950 . S
H3346 C3370 0.950 . S
H3347 C3371 0.951 . S
H3348 C3373 0.951 . S
H3349 C3375 0.950 . S
H3350 C3376 0.950 . S
H3351 C3378 0.950 . S
H3352 C3381 0.953 . S
H3353 C3382 0.950 . S
H3354 C3384 0.950 . S
H3355 C3385 0.950 . S
C3356 H3338 0.951 . S
C3356 C3357 1.366 . S
C3356 C3358 1.388 . S
C3357 C3356 1.366 . S
C3357 C3361 1.385 . S
C3358 H3339 0.951 . S
C3358 C3356 1.388 . S
C3358 C3359 1.366 . S
C3359 C3358 1.366 . S
C3359 C3360 1.414 . S
C3359 C3362 1.499 . S
C3360 H3340 0.950 . S
C3360 C3359 1.414 . S
C3360 C3361 1.374 . S
C3361 H3341 0.950 . S
C3361 C3357 1.385 . S
C3361 C3360 1.374 . S
C3362 C3359 1.499 . S
C3362 C3363 1.373 . S
C3362 C3364 1.389 . S
C3363 H3342 0.950 . S
C3363 C3362 1.373 . S
C3363 C3379 1.377 . S
C3364 C3362 1.389 . S
C3364 C3365 1.524 . S
C3364 C3378 1.377 1_556 S
C3365 C3364 1.524 . S
C3365 C3366 1.397 . S
C3365 C3370 1.363 . S
C3366 H3343 0.950 . S
C3366 C3365 1.397 . S
C3366 C3367 1.334 1_655 S
C3367 H3344 0.950 . S
C3367 C3366 1.334 1_455 S
C3367 C3368 1.287 . S
C3368 C3367 1.287 . S
C3368 C3369 1.524 . S
C3368 H3387 0.913 . S
C3369 H3345 0.950 . S
C3369 C3368 1.524 . S
C3369 C3370 1.415 1_455 S
C3370 H3346 0.950 . S
C3370 C3365 1.363 . S
C3370 C3369 1.415 1_655 S
C3371 H3347 0.951 . S
C3371 C3372 1.366 . S
C3371 C3373 1.388 . S
C3372 C3371 1.366 . S
C3372 C3376 1.385 . S
C3373 H3348 0.951 . S
C3373 C3371 1.388 . S
C3373 C3374 1.366 . S
C3374 C3373 1.366 . S
C3374 C3375 1.414 . S
C3374 C3377 1.499 . S
C3375 H3349 0.950 . S
C3375 C3374 1.414 . S
C3375 C3376 1.374 . S
C3376 H3350 0.950 . S
C3376 C3372 1.385 . S
C3376 C3375 1.374 . S
C3377 C3374 1.499 . S
C3377 C3378 1.373 . S
C3377 C3379 1.389 1_554 S
C3378 H3351 0.950 . S
C3378 C3364 1.377 1_554 S
C3378 C3377 1.373 . S
C3379 C3363 1.377 . S
C3379 C3377 1.389 1_556 S
C3379 C3380 1.524 1_556 S
C3380 C3379 1.524 1_554 S
C3380 C3381 1.397 . S
C3380 C3385 1.363 . S
C3381 H3352 0.953 . S
C3381 C3380 1.397 . S
C3381 C3382 1.334 . S
C3382 H3353 0.950 . S
C3382 C3381 1.334 . S
C3382 C3383 1.287 . S
C3383 C3382 1.287 . S
C3383 C3384 1.524 . S
C3383 H3386 0.999 . S
C3384 H3354 0.950 . S
C3384 C3383 1.524 . S
C3384 C3385 1.415 . S
C3385 H3355 0.950 . S
C3385 C3380 1.363 . S
C3385 C3384 1.415 . S
H3386 C3383 0.999 . S
H3387 C3368 0.913 . S
H3388 C3406 0.951 . S
H3389 C3408 0.951 . S
H3390 C3410 0.950 . S
H3391 C3411 0.950 . S
H3392 C3413 0.950 . S
H3393 C3416 0.950 . S
H3394 C3417 0.950 . S
H3395 C3419 0.950 . S
H3396 C3420 0.950 . S
H3397 C3421 0.951 . S
H3398 C3423 0.951 . S
H3399 C3425 0.950 . S
H3400 C3426 0.950 . S
H3401 C3428 0.950 . S
H3402 C3431 0.950 . S
H3403 C3432 0.950 . S
H3404 C3434 0.950 . S
H3405 C3435 0.950 . S
C3406 H3388 0.951 . S
C3406 C3407 1.366 . S
C3406 C3408 1.388 . S
C3407 C3406 1.366 . S
C3407 C3411 1.385 . S
C3408 H3389 0.951 . S
C3408 C3406 1.388 . S
C3408 C3409 1.366 . S
C3409 C3408 1.366 . S
C3409 C3410 1.414 . S
C3409 C3412 1.499 . S
C3410 H3390 0.950 . S
C3410 C3409 1.414 . S
C3410 C3411 1.374 . S
C3411 H3391 0.950 . S
C3411 C3407 1.385 . S
C3411 C3410 1.374 . S
C3412 C3409 1.499 . S
C3412 C3413 1.373 . S
C3412 C3414 1.389 . S
C3413 H3392 0.950 . S
C3413 C3412 1.373 . S
C3413 C3429 1.377 . S
C3414 C3412 1.389 . S
C3414 C3415 1.524 . S
C3414 C3428 1.377 . S
C3415 C3414 1.524 . S
C3415 C3416 1.397 . S
C3415 C3420 1.363 . S
C3416 H3393 0.950 . S
C3416 C3415 1.397 . S
C3416 C3417 1.334 . S
C3417 H3394 0.950 . S
C3417 C3416 1.334 . S
C3417 C3418 1.287 . S
C3418 C3417 1.287 . S
C3418 C3419 1.524 . S
C3418 H3437 0.913 . S
C3419 H3395 0.950 . S
C3419 C3418 1.524 . S
C3419 C3420 1.415 . S
C3420 H3396 0.950 . S
C3420 C3415 1.363 . S
C3420 C3419 1.415 . S
C3421 H3397 0.951 . S
C3421 C3422 1.366 . S
C3421 C3423 1.388 . S
C3422 C3421 1.366 . S
C3422 C3426 1.385 . S
C3423 H3398 0.951 . S
C3423 C3421 1.388 . S
C3423 C3424 1.366 . S
C3424 C3423 1.366 . S
C3424 C3425 1.414 . S
C3424 C3427 1.499 . S
C3425 H3399 0.950 . S
C3425 C3424 1.414 . S
C3425 C3426 1.374 . S
C3426 H3400 0.950 . S
C3426 C3422 1.385 . S
C3426 C3425 1.374 . S
C3427 C3424 1.499 . S
C3427 C3428 1.373 . S
C3427 C3429 1.389 . S
C3428 H3401 0.950 . S
C3428 C3414 1.377 . S
C3428 C3427 1.373 . S
C3429 C3413 1.377 . S
C3429 C3427 1.389 . S
C3429 C3430 1.524 . S
C3430 C3429 1.524 . S
C3430 C3431 1.397 . S
C3430 C3435 1.363 . S
C3431 H3402 0.950 . S
C3431 C3430 1.397 . S
C3431 C3432 1.334 . S
C3432 H3403 0.950 . S
C3432 C3431 1.334 . S
C3432 C3433 1.287 . S
C3433 C3432 1.287 . S
C3433 C3434 1.524 . S
C3433 H3436 0.999 . S
C3434 H3404 0.950 . S
C3434 C3433 1.524 . S
C3434 C3435 1.415 . S
C3435 H3405 0.950 . S
C3435 C3430 1.363 . S
C3435 C3434 1.415 . S
H3436 C3433 0.999 . S
H3437 C3418 0.913 . S
H3438 C3456 0.951 . S
H3439 C3458 0.951 . S
H3440 C3460 0.950 . S
H3441 C3461 0.950 . S
H3442 C3463 0.950 . S
H3443 C3466 0.950 . S
H3444 C3467 0.950 . S
H3445 C3469 0.950 . S
H3446 C3470 0.950 . S
H3447 C3471 0.951 . S
H3448 C3473 0.951 . S
H3449 C3475 0.950 . S
H3450 C3476 0.950 . S
H3451 C3478 0.950 . S
H3452 C3481 0.950 . S
H3453 C3482 0.950 . S
H3454 C3484 0.950 . S
H3455 C3485 0.950 . S
C3456 H3438 0.951 . S
C3456 C3457 1.366 . S
C3456 C3458 1.388 . S
C3457 C3456 1.366 . S
C3457 C3461 1.385 . S
C3458 H3439 0.951 . S
C3458 C3456 1.388 . S
C3458 C3459 1.366 . S
C3459 C3458 1.366 . S
C3459 C3460 1.414 . S
C3459 C3462 1.499 . S
C3460 H3440 0.950 . S
C3460 C3459 1.414 . S
C3460 C3461 1.374 . S
C3461 H3441 0.950 . S
C3461 C3457 1.385 . S
C3461 C3460 1.374 . S
C3462 C3459 1.499 . S
C3462 C3463 1.373 . S
C3462 C3464 1.389 . S
C3463 H3442 0.950 . S
C3463 C3462 1.373 . S
C3463 C3479 1.377 . S
C3464 C3462 1.389 . S
C3464 C3465 1.524 . S
C3464 C3478 1.377 . S
C3465 C3464 1.524 . S
C3465 C3466 1.397 . S
C3465 C3470 1.363 . S
C3466 H3443 0.950 . S
C3466 C3465 1.397 . S
C3466 C3467 1.334 . S
C3467 H3444 0.950 . S
C3467 C3466 1.334 . S
C3467 C3468 1.287 . S
C3468 C3467 1.287 . S
C3468 C3469 1.524 . S
C3468 H3487 0.913 . S
C3469 H3445 0.950 . S
C3469 C3468 1.524 . S
C3469 C3470 1.415 . S
C3470 H3446 0.950 . S
C3470 C3465 1.363 . S
C3470 C3469 1.415 . S
C3471 H3447 0.951 . S
C3471 C3472 1.366 . S
C3471 C3473 1.388 . S
C3472 C3471 1.366 . S
C3472 C3476 1.385 . S
C3473 H3448 0.951 . S
C3473 C3471 1.388 . S
C3473 C3474 1.366 . S
C3474 C3473 1.366 . S
C3474 C3475 1.414 . S
C3474 C3477 1.499 . S
C3475 H3449 0.950 . S
C3475 C3474 1.414 . S
C3475 C3476 1.374 . S
C3476 H3450 0.950 . S
C3476 C3472 1.385 . S
C3476 C3475 1.374 . S
C3477 C3474 1.499 . S
C3477 C3478 1.373 . S
C3477 C3479 1.389 . S
C3478 H3451 0.950 . S
C3478 C3464 1.377 . S
C3478 C3477 1.373 . S
C3479 C3463 1.377 . S
C3479 C3477 1.389 . S
C3479 C3480 1.524 . S
C3480 C3479 1.524 . S
C3480 C3481 1.397 . S
C3480 C3485 1.363 . S
C3481 H3452 0.950 . S
C3481 C3480 1.397 . S
C3481 C3482 1.334 . S
C3482 H3453 0.950 . S
C3482 C3481 1.334 . S
C3482 C3483 1.287 . S
C3483 C3482 1.287 . S
C3483 C3484 1.524 . S
C3483 H3486 0.999 . S
C3484 H3454 0.950 . S
C3484 C3483 1.524 . S
C3484 C3485 1.415 . S
C3485 H3455 0.950 . S
C3485 C3480 1.363 . S
C3485 C3484 1.415 . S
H3486 C3483 0.999 . S
H3487 C3468 0.913 . S
H3488 C3506 0.951 . S
H3489 C3508 0.951 . S
H3490 C3510 0.950 . S
H3491 C3511 0.950 . S
H3492 C3513 0.950 . S
H3493 C3516 0.950 . S
H3494 C3517 0.950 . S
H3495 C3519 0.950 . S
H3496 C3520 0.950 . S
H3497 C3521 0.951 . S
H3498 C3523 0.951 . S
H3499 C3525 0.950 . S
H3500 C3526 0.950 . S
H3501 C3528 0.950 . S
H3502 C3531 0.950 . S
H3503 C3532 0.950 . S
H3504 C3534 0.950 . S
H3505 C3535 0.950 . S
C3506 H3488 0.951 . S
C3506 C3507 1.366 . S
C3506 C3508 1.388 . S
C3507 C3506 1.366 . S
C3507 C3511 1.385 . S
C3508 H3489 0.951 . S
C3508 C3506 1.388 . S
C3508 C3509 1.366 . S
C3509 C3508 1.366 . S
C3509 C3510 1.414 . S
C3509 C3512 1.499 . S
C3510 H3490 0.950 . S
C3510 C3509 1.414 . S
C3510 C3511 1.374 . S
C3511 H3491 0.950 . S
C3511 C3507 1.385 . S
C3511 C3510 1.374 . S
C3512 C3509 1.499 . S
C3512 C3513 1.373 . S
C3512 C3514 1.389 . S
C3513 H3492 0.950 . S
C3513 C3512 1.373 . S
C3513 C3529 1.377 . S
C3514 C3512 1.389 . S
C3514 C3515 1.524 . S
C3514 C3528 1.377 . S
C3515 C3514 1.524 . S
C3515 C3516 1.397 . S
C3515 C3520 1.363 . S
C3516 H3493 0.950 . S
C3516 C3515 1.397 . S
C3516 C3517 1.334 . S
C3517 H3494 0.950 . S
C3517 C3516 1.334 . S
C3517 C3518 1.287 . S
C3518 C3517 1.287 . S
C3518 C3519 1.524 . S
C3518 H3537 0.913 . S
C3519 H3495 0.950 . S
C3519 C3518 1.524 . S
C3519 C3520 1.415 . S
C3520 H3496 0.950 . S
C3520 C3515 1.363 . S
C3520 C3519 1.415 . S
C3521 H3497 0.951 . S
C3521 C3522 1.366 . S
C3521 C3523 1.388 . S
C3522 C3521 1.366 . S
C3522 C3526 1.385 . S
C3523 H3498 0.951 . S
C3523 C3521 1.388 . S
C3523 C3524 1.366 . S
C3524 C3523 1.366 . S
C3524 C3525 1.414 . S
C3524 C3527 1.499 . S
C3525 H3499 0.950 . S
C3525 C3524 1.414 . S
C3525 C3526 1.374 . S
C3526 H3500 0.950 . S
C3526 C3522 1.385 . S
C3526 C3525 1.374 . S
C3527 C3524 1.499 . S
C3527 C3528 1.373 . S
C3527 C3529 1.389 . S
C3528 H3501 0.950 . S
C3528 C3514 1.377 . S
C3528 C3527 1.373 . S
C3529 C3513 1.377 . S
C3529 C3527 1.389 . S
C3529 C3530 1.524 . S
C3530 C3529 1.524 . S
C3530 C3531 1.397 . S
C3530 C3535 1.363 . S
C3531 H3502 0.950 . S
C3531 C3530 1.397 . S
C3531 C3532 1.334 . S
C3532 H3503 0.950 . S
C3532 C3531 1.334 . S
C3532 C3533 1.287 . S
C3533 C3532 1.287 . S
C3533 C3534 1.524 . S
C3533 H3536 0.999 . S
C3534 H3504 0.950 . S
C3534 C3533 1.524 . S
C3534 C3535 1.415 . S
C3535 H3505 0.950 . S
C3535 C3530 1.363 . S
C3535 C3534 1.415 . S
H3536 C3533 0.999 . S
H3537 C3518 0.913 . S
H3538 C3556 0.951 . S
H3539 C3558 0.951 . S
H3540 C3560 0.950 . S
H3541 C3561 0.950 . S
H3542 C3563 0.950 . S
H3543 C3566 0.950 . S
H3544 C3567 0.950 . S
H3545 C3569 0.950 . S
H3546 C3570 0.950 . S
H3547 C3571 0.951 . S
H3548 C3573 0.951 . S
H3549 C3575 0.950 . S
H3550 C3576 0.950 . S
H3551 C3578 0.950 . S
H3552 C3581 0.950 . S
H3553 C3582 0.950 . S
H3554 C3584 0.950 . S
H3555 C3585 0.950 . S
C3556 H3538 0.951 . S
C3556 C3557 1.366 . S
C3556 C3558 1.388 . S
C3557 C3556 1.366 . S
C3557 C3561 1.385 . S
C3558 H3539 0.951 . S
C3558 C3556 1.388 . S
C3558 C3559 1.366 . S
C3559 C3558 1.366 . S
C3559 C3560 1.414 . S
C3559 C3562 1.499 . S
C3560 H3540 0.950 . S
C3560 C3559 1.414 . S
C3560 C3561 1.374 . S
C3561 H3541 0.950 . S
C3561 C3557 1.385 . S
C3561 C3560 1.374 . S
C3562 C3559 1.499 . S
C3562 C3563 1.373 . S
C3562 C3564 1.389 . S
C3563 H3542 0.950 . S
C3563 C3562 1.373 . S
C3563 C3579 1.377 . S
C3564 C3562 1.389 . S
C3564 C3565 1.524 . S
C3564 C3578 1.377 . S
C3565 C3564 1.524 . S
C3565 C3566 1.397 . S
C3565 C3570 1.363 . S
C3566 H3543 0.950 . S
C3566 C3565 1.397 . S
C3566 C3567 1.334 1_556 S
C3567 H3544 0.950 . S
C3567 C3566 1.334 1_554 S
C3567 C3568 1.287 . S
C3568 C3567 1.287 . S
C3568 C3569 1.524 . S
C3568 H3587 0.913 . S
C3569 H3545 0.950 . S
C3569 C3568 1.524 . S
C3569 C3570 1.415 1_554 S
C3570 H3546 0.950 . S
C3570 C3565 1.363 . S
C3570 C3569 1.415 1_556 S
C3571 H3547 0.951 . S
C3571 C3572 1.366 . S
C3571 C3573 1.388 . S
C3572 C3571 1.366 . S
C3572 C3576 1.385 . S
C3573 H3548 0.951 . S
C3573 C3571 1.388 . S
C3573 C3574 1.366 . S
C3574 C3573 1.366 . S
C3574 C3575 1.414 . S
C3574 C3577 1.499 . S
C3575 H3549 0.950 . S
C3575 C3574 1.414 . S
C3575 C3576 1.374 . S
C3576 H3550 0.950 . S
C3576 C3572 1.385 . S
C3576 C3575 1.374 . S
C3577 C3574 1.499 . S
C3577 C3578 1.373 . S
C3577 C3579 1.389 . S
C3578 H3551 0.950 . S
C3578 C3564 1.377 . S
C3578 C3577 1.373 . S
C3579 C3563 1.377 . S
C3579 C3577 1.389 . S
C3579 C3580 1.524 . S
C3580 C3579 1.524 . S
C3580 C3581 1.397 . S
C3580 C3585 1.363 . S
C3581 H3552 0.950 . S
C3581 C3580 1.397 . S
C3581 C3582 1.334 . S
C3582 H3553 0.950 . S
C3582 C3581 1.334 . S
C3582 C3583 1.287 . S
C3583 C3582 1.287 . S
C3583 C3584 1.524 . S
C3583 H3586 0.999 . S
C3584 H3554 0.950 . S
C3584 C3583 1.524 . S
C3584 C3585 1.415 . S
C3585 H3555 0.950 . S
C3585 C3580 1.363 . S
C3585 C3584 1.415 . S
H3586 C3583 0.999 . S
H3587 C3568 0.913 . S
H3588 C3606 0.951 . S
H3589 C3608 0.951 . S
H3590 C3610 0.950 . S
H3591 C3611 0.950 . S
H3592 C3613 0.950 . S
H3593 C3616 0.950 . S
H3594 C3617 0.950 . S
H3595 C3619 0.950 . S
H3596 C3620 0.950 . S
H3597 C3621 0.951 . S
H3598 C3623 0.951 . S
H3599 C3625 0.950 . S
H3600 C3626 0.950 . S
H3601 C3628 0.950 . S
H3602 C3631 0.950 . S
H3603 C3632 0.950 . S
H3604 C3634 0.950 . S
H3605 C3635 0.950 . S
C3606 H3588 0.951 . S
C3606 C3607 1.366 . S
C3606 C3608 1.388 . S
C3607 C3606 1.366 . S
C3607 C3611 1.385 . S
C3608 H3589 0.951 . S
C3608 C3606 1.388 . S
C3608 C3609 1.366 . S
C3609 C3608 1.366 . S
C3609 C3610 1.414 . S
C3609 C3612 1.499 . S
C3610 H3590 0.950 . S
C3610 C3609 1.414 . S
C3610 C3611 1.374 . S
C3611 H3591 0.950 . S
C3611 C3607 1.385 . S
C3611 C3610 1.374 . S
C3612 C3609 1.499 . S
C3612 C3613 1.373 . S
C3612 C3614 1.389 . S
C3613 H3592 0.950 . S
C3613 C3612 1.373 . S
C3613 C3629 1.377 . S
C3614 C3612 1.389 . S
C3614 C3615 1.524 . S
C3614 C3628 1.377 . S
C3615 C3614 1.524 . S
C3615 C3616 1.397 . S
C3615 C3620 1.363 . S
C3616 H3593 0.950 . S
C3616 C3615 1.397 . S
C3616 C3617 1.334 . S
C3617 H3594 0.950 . S
C3617 C3616 1.334 . S
C3617 C3618 1.287 . S
C3618 C3617 1.287 . S
C3618 C3619 1.524 . S
C3618 H3637 0.913 . S
C3619 H3595 0.950 . S
C3619 C3618 1.524 . S
C3619 C3620 1.415 . S
C3620 H3596 0.950 . S
C3620 C3615 1.363 . S
C3620 C3619 1.415 . S
C3621 H3597 0.951 . S
C3621 C3622 1.366 . S
C3621 C3623 1.388 . S
C3622 C3621 1.366 . S
C3622 C3626 1.385 . S
C3623 H3598 0.951 . S
C3623 C3621 1.388 . S
C3623 C3624 1.366 . S
C3624 C3623 1.366 . S
C3624 C3625 1.414 . S
C3624 C3627 1.499 . S
C3625 H3599 0.950 . S
C3625 C3624 1.414 . S
C3625 C3626 1.374 . S
C3626 H3600 0.950 . S
C3626 C3622 1.385 . S
C3626 C3625 1.374 . S
C3627 C3624 1.499 . S
C3627 C3628 1.373 . S
C3627 C3629 1.389 . S
C3628 H3601 0.950 . S
C3628 C3614 1.377 . S
C3628 C3627 1.373 . S
C3629 C3613 1.377 . S
C3629 C3627 1.389 . S
C3629 C3630 1.524 . S
C3630 C3629 1.524 . S
C3630 C3631 1.397 . S
C3630 C3635 1.363 . S
C3631 H3602 0.950 . S
C3631 C3630 1.397 . S
C3631 C3632 1.334 . S
C3632 H3603 0.950 . S
C3632 C3631 1.334 . S
C3632 C3633 1.287 . S
C3633 C3632 1.287 . S
C3633 C3634 1.524 . S
C3633 H3636 0.999 . S
C3634 H3604 0.950 . S
C3634 C3633 1.524 . S
C3634 C3635 1.415 . S
C3635 H3605 0.950 . S
C3635 C3630 1.363 . S
C3635 C3634 1.415 . S
H3636 C3633 0.999 . S
H3637 C3618 0.913 . S
H3638 C3656 0.951 . S
H3639 C3658 0.951 . S
H3640 C3660 0.950 . S
H3641 C3661 0.950 . S
H3642 C3663 0.950 . S
H3643 C3666 0.950 . S
H3644 C3667 0.950 . S
H3645 C3669 0.950 . S
H3646 C3670 0.950 . S
H3647 C3671 0.951 . S
H3648 C3673 0.951 . S
H3649 C3675 0.950 . S
H3650 C3676 0.950 . S
H3651 C3678 0.950 . S
H3652 C3681 0.950 . S
H3653 C3682 0.950 . S
H3654 C3684 0.950 . S
H3655 C3685 0.950 . S
C3656 H3638 0.951 . S
C3656 C3657 1.366 . S
C3656 C3658 1.388 . S
C3657 C3656 1.366 . S
C3657 C3661 1.385 . S
C3658 H3639 0.951 . S
C3658 C3656 1.388 . S
C3658 C3659 1.366 . S
C3659 C3658 1.366 . S
C3659 C3660 1.414 . S
C3659 C3662 1.499 . S
C3660 H3640 0.950 . S
C3660 C3659 1.414 . S
C3660 C3661 1.374 . S
C3661 H3641 0.950 . S
C3661 C3657 1.385 . S
C3661 C3660 1.374 . S
C3662 C3659 1.499 . S
C3662 C3663 1.373 . S
C3662 C3664 1.389 . S
C3663 H3642 0.950 . S
C3663 C3662 1.373 . S
C3663 C3679 1.377 . S
C3664 C3662 1.389 . S
C3664 C3665 1.524 . S
C3664 C3678 1.377 . S
C3665 C3664 1.524 . S
C3665 C3666 1.397 . S
C3665 C3670 1.363 . S
C3666 H3643 0.950 . S
C3666 C3665 1.397 . S
C3666 C3667 1.334 . S
C3667 H3644 0.950 . S
C3667 C3666 1.334 . S
C3667 C3668 1.287 . S
C3668 C3667 1.287 . S
C3668 C3669 1.524 . S
C3668 H3687 0.913 . S
C3669 H3645 0.950 . S
C3669 C3668 1.524 . S
C3669 C3670 1.415 . S
C3670 H3646 0.950 . S
C3670 C3665 1.363 . S
C3670 C3669 1.415 . S
C3671 H3647 0.951 . S
C3671 C3672 1.366 . S
C3671 C3673 1.388 . S
C3672 C3671 1.366 . S
C3672 C3676 1.385 . S
C3673 H3648 0.951 . S
C3673 C3671 1.388 . S
C3673 C3674 1.366 . S
C3674 C3673 1.366 . S
C3674 C3675 1.414 . S
C3674 C3677 1.499 . S
C3675 H3649 0.950 . S
C3675 C3674 1.414 . S
C3675 C3676 1.374 . S
C3676 H3650 0.950 . S
C3676 C3672 1.385 . S
C3676 C3675 1.374 . S
C3677 C3674 1.499 . S
C3677 C3678 1.373 . S
C3677 C3679 1.389 . S
C3678 H3651 0.950 . S
C3678 C3664 1.377 . S
C3678 C3677 1.373 . S
C3679 C3663 1.377 . S
C3679 C3677 1.389 . S
C3679 C3680 1.524 . S
C3680 C3679 1.524 . S
C3680 C3681 1.397 . S
C3680 C3685 1.363 . S
C3681 H3652 0.950 . S
C3681 C3680 1.397 . S
C3681 C3682 1.334 . S
C3682 H3653 0.950 . S
C3682 C3681 1.334 . S
C3682 C3683 1.287 . S
C3683 C3682 1.287 . S
C3683 C3684 1.524 . S
C3683 H3686 0.999 . S
C3684 H3654 0.950 . S
C3684 C3683 1.524 . S
C3684 C3685 1.415 . S
C3685 H3655 0.950 . S
C3685 C3680 1.363 . S
C3685 C3684 1.415 . S
H3686 C3683 0.999 . S
H3687 C3668 0.913 . S
H3688 C3706 0.951 . S
H3689 C3708 0.951 . S
H3690 C3710 0.950 . S
H3691 C3711 0.950 . S
H3692 C3713 0.950 . S
H3693 C3716 0.950 . S
H3694 C3717 0.950 . S
H3695 C3719 0.950 . S
H3696 C3720 0.950 . S
H3697 C3721 0.951 . S
H3698 C3723 0.951 . S
H3699 C3725 0.950 . S
H3700 C3726 0.950 . S
H3701 C3728 0.950 . S
H3702 C3731 0.950 . S
H3703 C3732 0.950 . S
H3704 C3734 0.950 . S
H3705 C3735 0.950 . S
C3706 H3688 0.951 . S
C3706 C3707 1.366 . S
C3706 C3708 1.388 . S
C3707 C3706 1.366 . S
C3707 C3711 1.385 . S
C3708 H3689 0.951 . S
C3708 C3706 1.388 . S
C3708 C3709 1.366 . S
C3709 C3708 1.366 . S
C3709 C3710 1.414 . S
C3709 C3712 1.499 . S
C3710 H3690 0.950 . S
C3710 C3709 1.414 . S
C3710 C3711 1.374 . S
C3711 H3691 0.950 . S
C3711 C3707 1.385 . S
C3711 C3710 1.374 . S
C3712 C3709 1.499 . S
C3712 C3713 1.373 . S
C3712 C3714 1.389 . S
C3713 H3692 0.950 . S
C3713 C3712 1.373 . S
C3713 C3729 1.377 . S
C3714 C3712 1.389 . S
C3714 C3715 1.524 . S
C3714 C3728 1.377 . S
C3715 C3714 1.524 . S
C3715 C3716 1.397 . S
C3715 C3720 1.363 . S
C3716 H3693 0.950 . S
C3716 C3715 1.397 . S
C3716 C3717 1.334 . S
C3717 H3694 0.950 . S
C3717 C3716 1.334 . S
C3717 C3718 1.287 . S
C3718 C3717 1.287 . S
C3718 C3719 1.524 . S
C3718 H3737 0.913 . S
C3719 H3695 0.950 . S
C3719 C3718 1.524 . S
C3719 C3720 1.415 . S
C3720 H3696 0.950 . S
C3720 C3715 1.363 . S
C3720 C3719 1.415 . S
C3721 H3697 0.951 . S
C3721 C3722 1.366 . S
C3721 C3723 1.388 . S
C3722 C3721 1.366 . S
C3722 C3726 1.385 . S
C3723 H3698 0.951 . S
C3723 C3721 1.388 . S
C3723 C3724 1.366 . S
C3724 C3723 1.366 . S
C3724 C3725 1.414 . S
C3724 C3727 1.499 . S
C3725 H3699 0.950 . S
C3725 C3724 1.414 . S
C3725 C3726 1.374 . S
C3726 H3700 0.950 . S
C3726 C3722 1.385 . S
C3726 C3725 1.374 . S
C3727 C3724 1.499 . S
C3727 C3728 1.373 . S
C3727 C3729 1.389 . S
C3728 H3701 0.950 . S
C3728 C3714 1.377 . S
C3728 C3727 1.373 . S
C3729 C3713 1.377 . S
C3729 C3727 1.389 . S
C3729 C3730 1.524 . S
C3730 C3729 1.524 . S
C3730 C3731 1.397 . S
C3730 C3735 1.363 . S
C3731 H3702 0.950 . S
C3731 C3730 1.397 . S
C3731 C3732 1.334 . S
C3732 H3703 0.950 . S
C3732 C3731 1.334 . S
C3732 C3733 1.287 . S
C3733 C3732 1.287 . S
C3733 C3734 1.524 . S
C3733 H3736 0.999 . S
C3734 H3704 0.950 . S
C3734 C3733 1.524 . S
C3734 C3735 1.415 . S
C3735 H3705 0.950 . S
C3735 C3730 1.363 . S
C3735 C3734 1.415 . S
H3736 C3733 0.999 . S
H3737 C3718 0.913 . S
H3738 C3756 0.951 . S
H3739 C3758 0.951 . S
H3740 C3760 0.950 . S
H3741 C3761 0.950 . S
H3742 C3763 0.950 . S
H3743 C3766 0.950 . S
H3744 C3767 0.950 . S
H3745 C3769 0.950 1_556 S
H3746 C3770 0.950 . S
H3747 C3771 0.951 . S
H3748 C3773 0.951 . S
H3749 C3775 0.950 . S
H3750 C3776 0.950 . S
H3751 C3778 0.950 . S
H3752 C3781 0.950 . S
H3753 C3782 0.950 . S
H3754 C3784 0.950 . S
H3755 C3785 0.950 . S
C3756 H3738 0.951 . S
C3756 C3757 1.366 . S
C3756 C3758 1.388 . S
C3757 C3756 1.366 . S
C3757 C3761 1.385 . S
C3758 H3739 0.951 . S
C3758 C3756 1.388 . S
C3758 C3759 1.366 . S
C3759 C3758 1.366 . S
C3759 C3760 1.414 . S
C3759 C3762 1.499 . S
C3760 H3740 0.950 . S
C3760 C3759 1.414 . S
C3760 C3761 1.374 . S
C3761 H3741 0.950 . S
C3761 C3757 1.385 . S
C3761 C3760 1.374 . S
C3762 C3759 1.499 . S
C3762 C3763 1.373 . S
C3762 C3764 1.389 . S
C3763 H3742 0.950 . S
C3763 C3762 1.373 . S
C3763 C3779 1.377 . S
C3764 C3762 1.389 . S
C3764 C3765 1.524 . S
C3764 C3778 1.377 . S
C3765 C3764 1.524 . S
C3765 C3766 1.397 . S
C3765 C3770 1.363 . S
C3766 H3743 0.950 . S
C3766 C3765 1.397 . S
C3766 C3767 1.334 . S
C3767 H3744 0.950 . S
C3767 C3766 1.334 . S
C3767 C3768 1.287 . S
C3768 C3767 1.287 . S
C3768 C3769 1.524 . S
C3768 H3787 0.913 . S
C3769 H3745 0.950 1_554 S
C3769 C3768 1.524 . S
C3769 C3770 1.415 . S
C3770 H3746 0.950 . S
C3770 C3765 1.363 . S
C3770 C3769 1.415 . S
C3771 H3747 0.951 . S
C3771 C3772 1.366 . S
C3771 C3773 1.388 . S
C3772 C3771 1.366 . S
C3772 C3776 1.385 . S
C3773 H3748 0.951 . S
C3773 C3771 1.388 . S
C3773 C3774 1.366 . S
C3774 C3773 1.366 . S
C3774 C3775 1.414 . S
C3774 C3777 1.499 . S
C3775 H3749 0.950 . S
C3775 C3774 1.414 . S
C3775 C3776 1.374 . S
C3776 H3750 0.950 . S
C3776 C3772 1.385 . S
C3776 C3775 1.374 . S
C3777 C3774 1.499 . S
C3777 C3778 1.373 . S
C3777 C3779 1.389 . S
C3778 H3751 0.950 . S
C3778 C3764 1.377 . S
C3778 C3777 1.373 . S
C3779 C3763 1.377 . S
C3779 C3777 1.389 . S
C3779 C3780 1.524 . S
C3780 C3779 1.524 . S
C3780 C3781 1.397 . S
C3780 C3785 1.363 . S
C3781 H3752 0.950 . S
C3781 C3780 1.397 . S
C3781 C3782 1.334 . S
C3782 H3753 0.950 . S
C3782 C3781 1.334 . S
C3782 C3783 1.287 . S
C3783 C3782 1.287 . S
C3783 C3784 1.524 . S
C3783 H3786 0.999 . S
C3784 H3754 0.950 . S
C3784 C3783 1.524 . S
C3784 C3785 1.415 . S
C3785 H3755 0.950 . S
C3785 C3780 1.363 . S
C3785 C3784 1.415 . S
H3786 C3783 0.999 . S
H3787 C3768 0.913 . S
H3788 C3806 0.951 . S
H3789 C3808 0.951 . S
H3790 C3810 0.950 . S
H3791 C3811 0.950 . S
H3792 C3813 0.950 . S
H3793 C3816 0.950 . S
H3794 C3817 0.950 . S
H3795 C3819 0.950 . S
H3796 C3820 0.950 . S
H3797 C3821 0.951 . S
H3798 C3823 0.951 . S
H3799 C3825 0.950 . S
H3800 C3826 0.950 . S
H3801 C3828 0.950 . S
H3802 C3831 0.950 . S
H3803 C3832 0.950 . S
H3804 C3834 0.950 . S
H3805 C3835 0.950 . S
C3806 H3788 0.951 . S
C3806 C3807 1.366 . S
C3806 C3808 1.388 . S
C3807 C3806 1.366 . S
C3807 C3811 1.385 . S
C3808 H3789 0.951 . S
C3808 C3806 1.388 . S
C3808 C3809 1.366 . S
C3809 C3808 1.366 . S
C3809 C3810 1.414 . S
C3809 C3812 1.499 . S
C3810 H3790 0.950 . S
C3810 C3809 1.414 . S
C3810 C3811 1.374 . S
C3811 H3791 0.950 . S
C3811 C3807 1.385 . S
C3811 C3810 1.374 . S
C3812 C3809 1.499 . S
C3812 C3813 1.373 . S
C3812 C3814 1.389 . S
C3813 H3792 0.950 . S
C3813 C3812 1.373 . S
C3813 C3829 1.377 . S
C3814 C3812 1.389 . S
C3814 C3815 1.524 . S
C3814 C3828 1.377 . S
C3815 C3814 1.524 . S
C3815 C3816 1.397 . S
C3815 C3820 1.363 . S
C3816 H3793 0.950 . S
C3816 C3815 1.397 . S
C3816 C3817 1.334 . S
C3817 H3794 0.950 . S
C3817 C3816 1.334 . S
C3817 C3818 1.287 . S
C3818 C3817 1.287 . S
C3818 C3819 1.524 . S
C3818 H3837 0.913 . S
C3819 H3795 0.950 . S
C3819 C3818 1.524 . S
C3819 C3820 1.415 . S
C3820 H3796 0.950 . S
C3820 C3815 1.363 . S
C3820 C3819 1.415 . S
C3821 H3797 0.951 . S
C3821 C3822 1.366 . S
C3821 C3823 1.388 . S
C3822 C3821 1.366 . S
C3822 C3826 1.385 . S
C3823 H3798 0.951 . S
C3823 C3821 1.388 . S
C3823 C3824 1.366 . S
C3824 C3823 1.366 . S
C3824 C3825 1.414 . S
C3824 C3827 1.499 . S
C3825 H3799 0.950 . S
C3825 C3824 1.414 . S
C3825 C3826 1.374 . S
C3826 H3800 0.950 . S
C3826 C3822 1.385 . S
C3826 C3825 1.374 . S
C3827 C3824 1.499 . S
C3827 C3828 1.373 . S
C3827 C3829 1.389 . S
C3828 H3801 0.950 . S
C3828 C3814 1.377 . S
C3828 C3827 1.373 . S
C3829 C3813 1.377 . S
C3829 C3827 1.389 . S
C3829 C3830 1.524 . S
C3830 C3829 1.524 . S
C3830 C3831 1.397 . S
C3830 C3835 1.363 . S
C3831 H3802 0.950 . S
C3831 C3830 1.397 . S
C3831 C3832 1.334 . S
C3832 H3803 0.950 . S
C3832 C3831 1.334 . S
C3832 C3833 1.287 . S
C3833 C3832 1.287 . S
C3833 C3834 1.524 . S
C3833 H3836 0.999 . S
C3834 H3804 0.950 . S
C3834 C3833 1.524 . S
C3834 C3835 1.415 . S
C3835 H3805 0.950 . S
C3835 C3830 1.363 . S
C3835 C3834 1.415 . S
H3836 C3833 0.999 . S
H3837 C3818 0.913 . S
H3838 C3856 0.951 . S
H3839 C3858 0.951 . S
H3840 C3860 0.950 . S
H3841 C3861 0.950 . S
H3842 C3863 0.950 . S
H3843 C3866 0.950 . S
H3844 C3867 0.950 . S
H3845 C3869 0.950 . S
H3846 C3870 0.950 . S
H3847 C3871 0.951 . S
H3848 C3873 0.951 . S
H3849 C3875 0.950 . S
H3850 C3876 0.950 . S
H3851 C3878 0.950 . S
H3852 C3881 0.950 . S
H3853 C3882 0.950 . S
H3854 C3884 0.950 . S
H3855 C3885 0.950 . S
C3856 H3838 0.951 . S
C3856 C3857 1.366 . S
C3856 C3858 1.388 . S
C3857 C3856 1.366 . S
C3857 C3861 1.385 . S
C3858 H3839 0.951 . S
C3858 C3856 1.388 . S
C3858 C3859 1.366 . S
C3859 C3858 1.366 . S
C3859 C3860 1.414 . S
C3859 C3862 1.499 . S
C3860 H3840 0.950 . S
C3860 C3859 1.414 . S
C3860 C3861 1.374 . S
C3861 H3841 0.950 . S
C3861 C3857 1.385 . S
C3861 C3860 1.374 . S
C3862 C3859 1.499 . S
C3862 C3863 1.373 . S
C3862 C3864 1.389 . S
C3863 H3842 0.950 . S
C3863 C3862 1.373 . S
C3863 C3879 1.377 . S
C3864 C3862 1.389 . S
C3864 C3865 1.524 . S
C3864 C3878 1.377 . S
C3865 C3864 1.524 . S
C3865 C3866 1.397 . S
C3865 C3870 1.363 . S
C3866 H3843 0.950 . S
C3866 C3865 1.397 . S
C3866 C3867 1.334 . S
C3867 H3844 0.950 . S
C3867 C3866 1.334 . S
C3867 C3868 1.287 . S
C3868 C3867 1.287 . S
C3868 C3869 1.524 . S
C3868 H3887 0.913 . S
C3869 H3845 0.950 . S
C3869 C3868 1.524 . S
C3869 C3870 1.415 . S
C3870 H3846 0.950 . S
C3870 C3865 1.363 . S
C3870 C3869 1.415 . S
C3871 H3847 0.951 . S
C3871 C3872 1.366 . S
C3871 C3873 1.388 . S
C3872 C3871 1.366 . S
C3872 C3876 1.385 . S
C3873 H3848 0.951 . S
C3873 C3871 1.388 . S
C3873 C3874 1.366 . S
C3874 C3873 1.366 . S
C3874 C3875 1.414 . S
C3874 C3877 1.499 . S
C3875 H3849 0.950 . S
C3875 C3874 1.414 . S
C3875 C3876 1.374 . S
C3876 H3850 0.950 . S
C3876 C3872 1.385 . S
C3876 C3875 1.374 . S
C3877 C3874 1.499 . S
C3877 C3878 1.373 . S
C3877 C3879 1.389 . S
C3878 H3851 0.950 . S
C3878 C3864 1.377 . S
C3878 C3877 1.373 . S
C3879 C3863 1.377 . S
C3879 C3877 1.389 . S
C3879 C3880 1.524 . S
C3880 C3879 1.524 . S
C3880 C3881 1.397 . S
C3880 C3885 1.363 . S
C3881 H3852 0.950 . S
C3881 C3880 1.397 . S
C3881 C3882 1.334 . S
C3882 H3853 0.950 . S
C3882 C3881 1.334 . S
C3882 C3883 1.287 . S
C3883 C3882 1.287 . S
C3883 C3884 1.524 . S
C3883 H3886 0.999 . S
C3884 H3854 0.950 . S
C3884 C3883 1.524 . S
C3884 C3885 1.415 . S
C3885 H3855 0.950 . S
C3885 C3880 1.363 . S
C3885 C3884 1.415 . S
H3886 C3883 0.999 . S
H3887 C3868 0.913 . S
H3888 C3906 0.951 . S
H3889 C3908 0.951 . S
H3890 C3910 0.950 . S
H3891 C3911 0.950 . S
H3892 C3913 0.950 . S
H3893 C3916 0.950 . S
H3894 C3917 0.950 . S
H3895 C3919 0.950 . S
H3896 C3920 0.950 . S
H3897 C3921 0.951 . S
H3898 C3923 0.951 . S
H3899 C3925 0.950 . S
H3900 C3926 0.950 . S
H3901 C3928 0.950 . S
H3902 C3931 0.950 . S
H3903 C3932 0.950 . S
H3904 C3934 0.950 . S
H3905 C3935 0.950 . S
C3906 H3888 0.951 . S
C3906 C3907 1.366 . S
C3906 C3908 1.388 . S
C3907 C3906 1.366 . S
C3907 C3911 1.385 . S
C3908 H3889 0.951 . S
C3908 C3906 1.388 . S
C3908 C3909 1.366 . S
C3909 C3908 1.366 . S
C3909 C3910 1.414 . S
C3909 C3912 1.499 . S
C3910 H3890 0.950 . S
C3910 C3909 1.414 . S
C3910 C3911 1.374 . S
C3911 H3891 0.950 . S
C3911 C3907 1.385 . S
C3911 C3910 1.374 . S
C3912 C3909 1.499 . S
C3912 C3913 1.373 . S
C3912 C3914 1.389 . S
C3913 H3892 0.950 . S
C3913 C3912 1.373 . S
C3913 C3929 1.377 . S
C3914 C3912 1.389 . S
C3914 C3915 1.524 . S
C3914 C3928 1.377 . S
C3915 C3914 1.524 . S
C3915 C3916 1.397 . S
C3915 C3920 1.363 . S
C3916 H3893 0.950 . S
C3916 C3915 1.397 . S
C3916 C3917 1.334 . S
C3917 H3894 0.950 . S
C3917 C3916 1.334 . S
C3917 C3918 1.287 . S
C3918 C3917 1.287 . S
C3918 C3919 1.524 . S
C3918 H3937 0.913 . S
C3919 H3895 0.950 . S
C3919 C3918 1.524 . S
C3919 C3920 1.415 . S
C3920 H3896 0.950 . S
C3920 C3915 1.363 . S
C3920 C3919 1.415 . S
C3921 H3897 0.951 . S
C3921 C3922 1.366 . S
C3921 C3923 1.388 . S
C3922 C3921 1.366 . S
C3922 C3926 1.385 . S
C3923 H3898 0.951 . S
C3923 C3921 1.388 . S
C3923 C3924 1.366 . S
C3924 C3923 1.366 . S
C3924 C3925 1.414 . S
C3924 C3927 1.499 . S
C3925 H3899 0.950 . S
C3925 C3924 1.414 . S
C3925 C3926 1.374 . S
C3926 H3900 0.950 . S
C3926 C3922 1.385 . S
C3926 C3925 1.374 . S
C3927 C3924 1.499 . S
C3927 C3928 1.373 . S
C3927 C3929 1.389 . S
C3928 H3901 0.950 . S
C3928 C3914 1.377 . S
C3928 C3927 1.373 . S
C3929 C3913 1.377 . S
C3929 C3927 1.389 . S
C3929 C3930 1.524 . S
C3930 C3929 1.524 . S
C3930 C3931 1.397 . S
C3930 C3935 1.363 . S
C3931 H3902 0.950 . S
C3931 C3930 1.397 . S
C3931 C3932 1.334 . S
C3932 H3903 0.950 . S
C3932 C3931 1.334 . S
C3932 C3933 1.287 . S
C3933 C3932 1.287 . S
C3933 C3934 1.524 . S
C3933 H3936 0.999 . S
C3934 H3904 0.950 . S
C3934 C3933 1.524 . S
C3934 C3935 1.415 . S
C3935 H3905 0.950 . S
C3935 C3930 1.363 . S
C3935 C3934 1.415 . S
H3936 C3933 0.999 . S
H3937 C3918 0.913 . S
H3938 C3956 0.951 . S
H3939 C3958 0.951 . S
H3940 C3960 0.950 . S
H3941 C3961 0.950 . S
H3942 C3963 0.950 . S
H3943 C3966 0.950 . S
H3944 C3967 0.950 . S
H3945 C3969 0.950 . S
H3946 C3970 0.950 . S
H3947 C3971 0.951 . S
H3948 C3973 0.951 . S
H3949 C3975 0.950 . S
H3950 C3976 0.950 . S
H3951 C3978 0.950 . S
H3952 C3981 0.950 . S
H3953 C3982 0.950 . S
H3954 C3984 0.950 . S
H3955 C3985 0.950 . S
C3956 H3938 0.951 . S
C3956 C3957 1.366 . S
C3956 C3958 1.388 . S
C3957 C3956 1.366 . S
C3957 C3961 1.385 . S
C3958 H3939 0.951 . S
C3958 C3956 1.388 . S
C3958 C3959 1.366 . S
C3959 C3958 1.366 . S
C3959 C3960 1.414 . S
C3959 C3962 1.499 . S
C3960 H3940 0.950 . S
C3960 C3959 1.414 . S
C3960 C3961 1.374 . S
C3961 H3941 0.950 . S
C3961 C3957 1.385 . S
C3961 C3960 1.374 . S
C3962 C3959 1.499 . S
C3962 C3963 1.373 . S
C3962 C3964 1.389 . S
C3963 H3942 0.950 . S
C3963 C3962 1.373 . S
C3963 C3979 1.377 . S
C3964 C3962 1.389 . S
C3964 C3965 1.524 . S
C3964 C3978 1.377 . S
C3965 C3964 1.524 . S
C3965 C3966 1.397 . S
C3965 C3970 1.363 . S
C3966 H3943 0.950 . S
C3966 C3965 1.397 . S
C3966 C3967 1.334 . S
C3967 H3944 0.950 . S
C3967 C3966 1.334 . S
C3967 C3968 1.287 . S
C3968 C3967 1.287 . S
C3968 C3969 1.524 . S
C3968 H3987 0.913 . S
C3969 H3945 0.950 . S
C3969 C3968 1.524 . S
C3969 C3970 1.415 . S
C3970 H3946 0.950 . S
C3970 C3965 1.363 . S
C3970 C3969 1.415 . S
C3971 H3947 0.951 . S
C3971 C3972 1.366 . S
C3971 C3973 1.388 . S
C3972 C3971 1.366 . S
C3972 C3976 1.385 . S
C3973 H3948 0.951 . S
C3973 C3971 1.388 . S
C3973 C3974 1.366 . S
C3974 C3973 1.366 . S
C3974 C3975 1.414 . S
C3974 C3977 1.499 . S
C3975 H3949 0.950 . S
C3975 C3974 1.414 . S
C3975 C3976 1.374 . S
C3976 H3950 0.950 . S
C3976 C3972 1.385 . S
C3976 C3975 1.374 . S
C3977 C3974 1.499 . S
C3977 C3978 1.373 . S
C3977 C3979 1.389 . S
C3978 H3951 0.950 . S
C3978 C3964 1.377 . S
C3978 C3977 1.373 . S
C3979 C3963 1.377 . S
C3979 C3977 1.389 . S
C3979 C3980 1.524 . S
C3980 C3979 1.524 . S
C3980 C3981 1.397 . S
C3980 C3985 1.363 . S
C3981 H3952 0.950 . S
C3981 C3980 1.397 . S
C3981 C3982 1.334 . S
C3982 H3953 0.950 . S
C3982 C3981 1.334 . S
C3982 C3983 1.287 . S
C3983 C3982 1.287 . S
C3983 C3984 1.524 . S
C3983 H3986 0.999 . S
C3984 H3954 0.950 . S
C3984 C3983 1.524 . S
C3984 C3985 1.415 . S
C3985 H3955 0.950 . S
C3985 C3980 1.363 . S
C3985 C3984 1.415 . S
H3986 C3983 0.999 . S
H3987 C3968 0.913 . S
H3988 C4006 0.951 . S
H3989 C4008 0.951 . S
H3990 C4010 0.950 . S
H3991 C4011 0.950 . S
H3992 C4013 0.950 . S
H3993 C4016 0.950 . S
H3994 C4017 0.950 . S
H3995 C4019 0.950 . S
H3996 C4020 0.950 . S
H3997 C4021 0.951 . S
H3998 C4023 0.951 . S
H3999 C4025 0.950 . S
H4000 C4026 0.950 . S
H4001 C4028 0.950 . S
H4002 C4031 0.950 . S
H4003 C4032 0.950 . S
H4004 C4034 0.950 . S
H4005 C4035 0.950 . S
C4006 H3988 0.951 . S
C4006 C4007 1.366 . S
C4006 C4008 1.388 . S
C4007 C4006 1.366 . S
C4007 C4011 1.385 . S
C4008 H3989 0.951 . S
C4008 C4006 1.388 . S
C4008 C4009 1.366 . S
C4009 C4008 1.366 . S
C4009 C4010 1.414 . S
C4009 C4012 1.499 . S
C4010 H3990 0.950 . S
C4010 C4009 1.414 . S
C4010 C4011 1.374 . S
C4011 H3991 0.950 . S
C4011 C4007 1.385 . S
C4011 C4010 1.374 . S
C4012 C4009 1.499 . S
C4012 C4013 1.373 . S
C4012 C4014 1.389 . S
C4013 H3992 0.950 . S
C4013 C4012 1.373 . S
C4013 C4029 1.377 . S
C4014 C4012 1.389 . S
C4014 C4015 1.524 . S
C4014 C4028 1.377 . S
C4015 C4014 1.524 . S
C4015 C4016 1.397 . S
C4015 C4020 1.363 . S
C4016 H3993 0.950 . S
C4016 C4015 1.397 . S
C4016 C4017 1.334 . S
C4017 H3994 0.950 . S
C4017 C4016 1.334 . S
C4017 C4018 1.287 . S
C4018 C4017 1.287 . S
C4018 C4019 1.524 . S
C4018 H4037 0.913 . S
C4019 H3995 0.950 . S
C4019 C4018 1.524 . S
C4019 C4020 1.415 . S
C4020 H3996 0.950 . S
C4020 C4015 1.363 . S
C4020 C4019 1.415 . S
C4021 H3997 0.951 . S
C4021 C4022 1.366 . S
C4021 C4023 1.388 . S
C4022 C4021 1.366 . S
C4022 C4026 1.385 . S
C4023 H3998 0.951 . S
C4023 C4021 1.388 . S
C4023 C4024 1.366 . S
C4024 C4023 1.366 . S
C4024 C4025 1.414 . S
C4024 C4027 1.499 . S
C4025 H3999 0.950 . S
C4025 C4024 1.414 . S
C4025 C4026 1.374 . S
C4026 H4000 0.950 . S
C4026 C4022 1.385 . S
C4026 C4025 1.374 . S
C4027 C4024 1.499 . S
C4027 C4028 1.373 . S
C4027 C4029 1.389 . S
C4028 H4001 0.950 . S
C4028 C4014 1.377 . S
C4028 C4027 1.373 . S
C4029 C4013 1.377 . S
C4029 C4027 1.389 . S
C4029 C4030 1.524 . S
C4030 C4029 1.524 . S
C4030 C4031 1.397 . S
C4030 C4035 1.363 . S
C4031 H4002 0.950 . S
C4031 C4030 1.397 . S
C4031 C4032 1.334 . S
C4032 H4003 0.950 . S
C4032 C4031 1.334 . S
C4032 C4033 1.287 . S
C4033 C4032 1.287 . S
C4033 C4034 1.524 . S
C4033 H4036 0.999 . S
C4034 H4004 0.950 . S
C4034 C4033 1.524 . S
C4034 C4035 1.415 . S
C4035 H4005 0.950 . S
C4035 C4030 1.363 . S
C4035 C4034 1.415 . S
H4036 C4033 0.999 . S
H4037 C4018 0.913 . S
H4038 C4056 0.951 . S
H4039 C4058 0.951 . S
H4040 C4060 0.950 . S
H4041 C4061 0.950 . S
H4042 C4063 0.950 . S
H4043 C4066 0.950 . S
H4044 C4067 0.950 . S
H4045 C4069 0.950 . S
H4046 C4070 0.950 . S
H4047 C4071 0.951 . S
H4048 C4073 0.951 . S
H4049 C4075 0.950 . S
H4050 C4076 0.950 . S
H4051 C4078 0.950 . S
H4052 C4081 0.950 . S
H4053 C4082 0.950 . S
H4054 C4084 0.950 . S
H4055 C4085 0.950 . S
C4056 H4038 0.951 . S
C4056 C4057 1.366 . S
C4056 C4058 1.388 . S
C4057 C4056 1.366 . S
C4057 C4061 1.385 . S
C4058 H4039 0.951 . S
C4058 C4056 1.388 . S
C4058 C4059 1.366 . S
C4059 C4058 1.366 . S
C4059 C4060 1.414 . S
C4059 C4062 1.499 . S
C4060 H4040 0.950 . S
C4060 C4059 1.414 . S
C4060 C4061 1.374 . S
C4061 H4041 0.950 . S
C4061 C4057 1.385 . S
C4061 C4060 1.374 . S
C4062 C4059 1.499 . S
C4062 C4063 1.373 . S
C4062 C4064 1.389 . S
C4063 H4042 0.950 . S
C4063 C4062 1.373 . S
C4063 C4079 1.377 . S
C4064 C4062 1.389 . S
C4064 C4065 1.524 . S
C4064 C4078 1.377 . S
C4065 C4064 1.524 . S
C4065 C4066 1.397 . S
C4065 C4070 1.363 . S
C4066 H4043 0.950 . S
C4066 C4065 1.397 . S
C4066 C4067 1.334 . S
C4067 H4044 0.950 . S
C4067 C4066 1.334 . S
C4067 C4068 1.287 . S
C4068 C4067 1.287 . S
C4068 C4069 1.524 . S
C4068 H4087 0.913 . S
C4069 H4045 0.950 . S
C4069 C4068 1.524 . S
C4069 C4070 1.415 . S
C4070 H4046 0.950 . S
C4070 C4065 1.363 . S
C4070 C4069 1.415 . S
C4071 H4047 0.951 . S
C4071 C4072 1.366 . S
C4071 C4073 1.388 . S
C4072 C4071 1.366 . S
C4072 C4076 1.385 . S
C4073 H4048 0.951 . S
C4073 C4071 1.388 . S
C4073 C4074 1.366 . S
C4074 C4073 1.366 . S
C4074 C4075 1.414 . S
C4074 C4077 1.499 . S
C4075 H4049 0.950 . S
C4075 C4074 1.414 . S
C4075 C4076 1.374 . S
C4076 H4050 0.950 . S
C4076 C4072 1.385 . S
C4076 C4075 1.374 . S
C4077 C4074 1.499 . S
C4077 C4078 1.373 . S
C4077 C4079 1.389 . S
C4078 H4051 0.950 . S
C4078 C4064 1.377 . S
C4078 C4077 1.373 . S
C4079 C4063 1.377 . S
C4079 C4077 1.389 . S
C4079 C4080 1.524 . S
C4080 C4079 1.524 . S
C4080 C4081 1.397 . S
C4080 C4085 1.363 . S
C4081 H4052 0.950 . S
C4081 C4080 1.397 . S
C4081 C4082 1.334 . S
C4082 H4053 0.950 . S
C4082 C4081 1.334 . S
C4082 C4083 1.287 . S
C4083 C4082 1.287 . S
C4083 C4084 1.524 . S
C4083 H4086 0.999 . S
C4084 H4054 0.950 . S
C4084 C4083 1.524 . S
C4084 C4085 1.415 . S
C4085 H4055 0.950 . S
C4085 C4080 1.363 . S
C4085 C4084 1.415 . S
H4086 C4083 0.999 . S
H4087 C4068 0.913 . S
H4088 C4106 0.951 . S
H4089 C4108 0.951 . S
H4090 C4110 0.950 . S
H4091 C4111 0.950 . S
H4092 C4113 0.950 . S
H4093 C4116 0.950 . S
H4094 C4117 0.950 . S
H4095 C4119 0.950 . S
H4096 C4120 0.950 . S
H4097 C4121 0.951 . S
H4098 C4123 0.951 . S
H4099 C4125 0.950 . S
H4100 C4126 0.950 . S
H4101 C4128 0.950 . S
H4102 C4131 0.950 . S
H4103 C4132 0.950 . S
H4104 C4134 0.950 . S
H4105 C4135 0.950 . S
C4106 H4088 0.951 . S
C4106 C4107 1.366 . S
C4106 C4108 1.388 . S
C4107 C4106 1.366 . S
C4107 C4111 1.385 . S
C4108 H4089 0.951 . S
C4108 C4106 1.388 . S
C4108 C4109 1.366 . S
C4109 C4108 1.366 . S
C4109 C4110 1.414 . S
C4109 C4112 1.499 . S
C4110 H4090 0.950 . S
C4110 C4109 1.414 . S
C4110 C4111 1.374 . S
C4111 H4091 0.950 . S
C4111 C4107 1.385 . S
C4111 C4110 1.374 . S
C4112 C4109 1.499 . S
C4112 C4113 1.373 . S
C4112 C4114 1.389 . S
C4113 H4092 0.950 . S
C4113 C4112 1.373 . S
C4113 C4129 1.377 . S
C4114 C4112 1.389 . S
C4114 C4115 1.524 . S
C4114 C4128 1.377 . S
C4115 C4114 1.524 . S
C4115 C4116 1.397 . S
C4115 C4120 1.363 . S
C4116 H4093 0.950 . S
C4116 C4115 1.397 . S
C4116 C4117 1.334 . S
C4117 H4094 0.950 . S
C4117 C4116 1.334 . S
C4117 C4118 1.287 . S
C4118 C4117 1.287 . S
C4118 C4119 1.524 . S
C4118 H4137 0.913 . S
C4119 H4095 0.950 . S
C4119 C4118 1.524 . S
C4119 C4120 1.415 . S
C4120 H4096 0.950 . S
C4120 C4115 1.363 . S
C4120 C4119 1.415 . S
C4121 H4097 0.951 . S
C4121 C4122 1.366 . S
C4121 C4123 1.388 . S
C4122 C4121 1.366 . S
C4122 C4126 1.385 . S
C4123 H4098 0.951 . S
C4123 C4121 1.388 . S
C4123 C4124 1.366 . S
C4124 C4123 1.366 . S
C4124 C4125 1.414 . S
C4124 C4127 1.499 . S
C4125 H4099 0.950 . S
C4125 C4124 1.414 . S
C4125 C4126 1.374 . S
C4126 H4100 0.950 . S
C4126 C4122 1.385 . S
C4126 C4125 1.374 . S
C4127 C4124 1.499 . S
C4127 C4128 1.373 . S
C4127 C4129 1.389 . S
C4128 H4101 0.950 . S
C4128 C4114 1.377 . S
C4128 C4127 1.373 . S
C4129 C4113 1.377 . S
C4129 C4127 1.389 . S
C4129 C4130 1.524 . S
C4130 C4129 1.524 . S
C4130 C4131 1.397 . S
C4130 C4135 1.363 . S
C4131 H4102 0.950 . S
C4131 C4130 1.397 . S
C4131 C4132 1.334 . S
C4132 H4103 0.950 . S
C4132 C4131 1.334 . S
C4132 C4133 1.287 . S
C4133 C4132 1.287 . S
C4133 C4134 1.524 . S
C4133 H4136 0.999 . S
C4134 H4104 0.950 . S
C4134 C4133 1.524 . S
C4134 C4135 1.415 . S
C4135 H4105 0.950 . S
C4135 C4130 1.363 . S
C4135 C4134 1.415 . S
H4136 C4133 0.999 . S
H4137 C4118 0.913 . S
H4138 C4156 0.951 . S
H4139 C4158 0.951 . S
H4140 C4160 0.950 . S
H4141 C4161 0.950 . S
H4142 C4163 0.950 . S
H4143 C4166 0.950 . S
H4144 C4167 0.950 . S
H4145 C4169 0.950 . S
H4146 C4170 0.950 . S
H4147 C4171 0.951 . S
H4148 C4173 0.951 . S
H4149 C4175 0.950 . S
H4150 C4176 0.950 . S
H4151 C4178 0.950 . S
H4152 C4181 0.950 . S
H4153 C4182 0.950 . S
H4154 C4184 0.950 . S
H4155 C4185 0.950 . S
C4156 H4138 0.951 . S
C4156 C4157 1.366 . S
C4156 C4158 1.388 . S
C4157 C4156 1.366 . S
C4157 C4161 1.385 . S
C4158 H4139 0.951 . S
C4158 C4156 1.388 . S
C4158 C4159 1.366 . S
C4159 C4158 1.366 . S
C4159 C4160 1.414 . S
C4159 C4162 1.499 . S
C4160 H4140 0.950 . S
C4160 C4159 1.414 . S
C4160 C4161 1.374 . S
C4161 H4141 0.950 . S
C4161 C4157 1.385 . S
C4161 C4160 1.374 . S
C4162 C4159 1.499 . S
C4162 C4163 1.373 . S
C4162 C4164 1.389 . S
C4163 H4142 0.950 . S
C4163 C4162 1.373 . S
C4163 C4179 1.377 . S
C4164 C4162 1.389 . S
C4164 C4165 1.524 . S
C4164 C4178 1.377 . S
C4165 C4164 1.524 . S
C4165 C4166 1.397 . S
C4165 C4170 1.363 . S
C4166 H4143 0.950 . S
C4166 C4165 1.397 . S
C4166 C4167 1.334 . S
C4167 H4144 0.950 . S
C4167 C4166 1.334 . S
C4167 C4168 1.287 . S
C4168 C4167 1.287 . S
C4168 C4169 1.524 . S
C4168 H4187 0.913 . S
C4169 H4145 0.950 . S
C4169 C4168 1.524 . S
C4169 C4170 1.415 . S
C4170 H4146 0.950 . S
C4170 C4165 1.363 . S
C4170 C4169 1.415 . S
C4171 H4147 0.951 . S
C4171 C4172 1.366 . S
C4171 C4173 1.388 . S
C4172 C4171 1.366 . S
C4172 C4176 1.385 . S
C4173 H4148 0.951 . S
C4173 C4171 1.388 . S
C4173 C4174 1.366 . S
C4174 C4173 1.366 . S
C4174 C4175 1.414 . S
C4174 C4177 1.499 . S
C4175 H4149 0.950 . S
C4175 C4174 1.414 . S
C4175 C4176 1.374 . S
C4176 H4150 0.950 . S
C4176 C4172 1.385 . S
C4176 C4175 1.374 . S
C4177 C4174 1.499 . S
C4177 C4178 1.373 . S
C4177 C4179 1.389 . S
C4178 H4151 0.950 . S
C4178 C4164 1.377 . S
C4178 C4177 1.373 . S
C4179 C4163 1.377 . S
C4179 C4177 1.389 . S
C4179 C4180 1.524 . S
C4180 C4179 1.524 . S
C4180 C4181 1.397 . S
C4180 C4185 1.363 . S
C4181 H4152 0.950 . S
C4181 C4180 1.397 . S
C4181 C4182 1.334 . S
C4182 H4153 0.950 . S
C4182 C4181 1.334 . S
C4182 C4183 1.287 . S
C4183 C4182 1.287 . S
C4183 C4184 1.524 . S
C4183 H4186 0.999 . S
C4184 H4154 0.950 . S
C4184 C4183 1.524 . S
C4184 C4185 1.415 . S
C4185 H4155 0.950 . S
C4185 C4180 1.363 . S
C4185 C4184 1.415 . S
H4186 C4183 0.999 . S
H4187 C4168 0.913 . S
H4188 C4206 0.951 . S
H4189 C4208 0.951 . S
H4190 C4210 0.950 . S
H4191 C4211 0.950 . S
H4192 C4213 0.950 . S
H4193 C4216 0.950 . S
H4194 C4217 0.950 . S
H4195 C4219 0.950 . S
H4196 C4220 0.950 . S
H4197 C4221 0.951 . S
H4198 C4223 0.951 . S
H4199 C4225 0.950 . S
H4200 C4226 0.950 . S
H4201 C4228 0.950 . S
H4202 C4231 0.950 . S
H4203 C4232 0.950 . S
H4204 C4234 0.950 . S
H4205 C4235 0.950 . S
C4206 H4188 0.951 . S
C4206 C4207 1.366 . S
C4206 C4208 1.388 . S
C4207 C4206 1.366 . S
C4207 C4211 1.385 . S
C4208 H4189 0.951 . S
C4208 C4206 1.388 . S
C4208 C4209 1.366 . S
C4209 C4208 1.366 . S
C4209 C4210 1.414 . S
C4209 C4212 1.499 . S
C4210 H4190 0.950 . S
C4210 C4209 1.414 . S
C4210 C4211 1.374 . S
C4211 H4191 0.950 . S
C4211 C4207 1.385 . S
C4211 C4210 1.374 . S
C4212 C4209 1.499 . S
C4212 C4213 1.373 . S
C4212 C4214 1.389 . S
C4213 H4192 0.950 . S
C4213 C4212 1.373 . S
C4213 C4229 1.377 . S
C4214 C4212 1.389 . S
C4214 C4215 1.524 . S
C4214 C4228 1.377 . S
C4215 C4214 1.524 . S
C4215 C4216 1.397 . S
C4215 C4220 1.363 . S
C4216 H4193 0.950 . S
C4216 C4215 1.397 . S
C4216 C4217 1.334 . S
C4217 H4194 0.950 . S
C4217 C4216 1.334 . S
C4217 C4218 1.287 . S
C4218 C4217 1.287 . S
C4218 C4219 1.524 . S
C4218 H4237 0.913 . S
C4219 H4195 0.950 . S
C4219 C4218 1.524 . S
C4219 C4220 1.415 . S
C4220 H4196 0.950 . S
C4220 C4215 1.363 . S
C4220 C4219 1.415 . S
C4221 H4197 0.951 . S
C4221 C4222 1.366 . S
C4221 C4223 1.388 . S
C4222 C4221 1.366 . S
C4222 C4226 1.385 . S
C4223 H4198 0.951 . S
C4223 C4221 1.388 . S
C4223 C4224 1.366 . S
C4224 C4223 1.366 . S
C4224 C4225 1.414 . S
C4224 C4227 1.499 . S
C4225 H4199 0.950 . S
C4225 C4224 1.414 . S
C4225 C4226 1.374 . S
C4226 H4200 0.950 . S
C4226 C4222 1.385 . S
C4226 C4225 1.374 . S
C4227 C4224 1.499 . S
C4227 C4228 1.373 . S
C4227 C4229 1.389 . S
C4228 H4201 0.950 . S
C4228 C4214 1.377 . S
C4228 C4227 1.373 . S
C4229 C4213 1.377 . S
C4229 C4227 1.389 . S
C4229 C4230 1.524 . S
C4230 C4229 1.524 . S
C4230 C4231 1.397 . S
C4230 C4235 1.363 . S
C4231 H4202 0.950 . S
C4231 C4230 1.397 . S
C4231 C4232 1.334 . S
C4232 H4203 0.950 . S
C4232 C4231 1.334 . S
C4232 C4233 1.287 . S
C4233 C4232 1.287 . S
C4233 C4234 1.524 . S
C4233 H4236 0.999 . S
C4234 H4204 0.950 . S
C4234 C4233 1.524 . S
C4234 C4235 1.415 . S
C4235 H4205 0.950 . S
C4235 C4230 1.363 . S
C4235 C4234 1.415 . S
H4236 C4233 0.999 . S
H4237 C4218 0.913 . S
H4238 C4256 0.951 . S
H4239 C4258 0.951 . S
H4240 C4260 0.950 . S
H4241 C4261 0.950 . S
H4242 C4263 0.950 . S
H4243 C4266 0.950 . S
H4244 C4267 0.950 . S
H4245 C4269 0.950 . S
H4246 C4270 0.950 . S
H4247 C4271 0.951 . S
H4248 C4273 0.951 . S
H4249 C4275 0.950 . S
H4250 C4276 0.950 . S
H4251 C4278 0.950 . S
H4252 C4281 0.950 . S
H4253 C4282 0.950 . S
H4254 C4284 0.950 . S
H4255 C4285 0.950 . S
C4256 H4238 0.951 . S
C4256 C4257 1.366 . S
C4256 C4258 1.388 . S
C4257 C4256 1.366 . S
C4257 C4261 1.385 . S
C4258 H4239 0.951 . S
C4258 C4256 1.388 . S
C4258 C4259 1.366 . S
C4259 C4258 1.366 . S
C4259 C4260 1.414 . S
C4259 C4262 1.499 . S
C4260 H4240 0.950 . S
C4260 C4259 1.414 . S
C4260 C4261 1.374 . S
C4261 H4241 0.950 . S
C4261 C4257 1.385 . S
C4261 C4260 1.374 . S
C4262 C4259 1.499 . S
C4262 C4263 1.373 . S
C4262 C4264 1.389 . S
C4263 H4242 0.950 . S
C4263 C4262 1.373 . S
C4263 C4279 1.377 1_655 S
C4264 C4262 1.389 . S
C4264 C4265 1.524 . S
C4264 C4278 1.377 . S
C4265 C4264 1.524 . S
C4265 C4266 1.397 . S
C4265 C4270 1.363 . S
C4266 H4243 0.950 . S
C4266 C4265 1.397 . S
C4266 C4267 1.334 . S
C4267 H4244 0.950 . S
C4267 C4266 1.334 . S
C4267 C4268 1.287 . S
C4268 C4267 1.287 . S
C4268 C4269 1.524 . S
C4268 H4287 0.913 . S
C4269 H4245 0.950 . S
C4269 C4268 1.524 . S
C4269 C4270 1.415 . S
C4270 H4246 0.950 . S
C4270 C4265 1.363 . S
C4270 C4269 1.415 . S
C4271 H4247 0.951 . S
C4271 C4272 1.366 . S
C4271 C4273 1.388 . S
C4272 C4271 1.366 . S
C4272 C4276 1.385 . S
C4273 H4248 0.951 . S
C4273 C4271 1.388 . S
C4273 C4274 1.366 . S
C4274 C4273 1.366 . S
C4274 C4275 1.414 . S
C4274 C4277 1.499 . S
C4275 H4249 0.950 . S
C4275 C4274 1.414 . S
C4275 C4276 1.374 . S
C4276 H4250 0.950 . S
C4276 C4272 1.385 . S
C4276 C4275 1.374 . S
C4277 C4274 1.499 . S
C4277 C4278 1.373 1_455 S
C4277 C4279 1.389 . S
C4278 H4251 0.950 . S
C4278 C4264 1.377 . S
C4278 C4277 1.373 1_655 S
C4279 C4263 1.377 1_455 S
C4279 C4277 1.389 . S
C4279 C4280 1.524 . S
C4280 C4279 1.524 . S
C4280 C4281 1.397 . S
C4280 C4285 1.363 . S
C4281 H4252 0.950 . S
C4281 C4280 1.397 . S
C4281 C4282 1.334 . S
C4282 H4253 0.950 . S
C4282 C4281 1.334 . S
C4282 C4283 1.287 . S
C4283 C4282 1.287 . S
C4283 C4284 1.524 1_565 S
C4283 H4286 0.999 1_565 S
C4284 H4254 0.950 . S
C4284 C4283 1.524 1_545 S
C4284 C4285 1.415 1_545 S
C4285 H4255 0.950 . S
C4285 C4280 1.363 . S
C4285 C4284 1.415 1_565 S
H4286 C4283 0.999 1_545 S
H4287 C4268 0.913 . S
H4288 C4306 0.951 . S
H4289 C4308 0.951 . S
H4290 C4310 0.950 . S
H4291 C4311 0.950 . S
H4292 C4313 0.950 . S
H4293 C4316 0.950 . S
H4294 C4317 0.950 . S
H4295 C4319 0.950 . S
H4296 C4320 0.950 . S
H4297 C4321 0.951 . S
H4298 C4323 0.951 . S
H4299 C4325 0.950 . S
H4300 C4326 0.950 . S
H4301 C4328 0.950 . S
H4302 C4331 0.950 . S
H4303 C4332 0.950 . S
H4304 C4334 0.950 . S
H4305 C4335 0.950 . S
C4306 H4288 0.951 . S
C4306 C4307 1.366 . S
C4306 C4308 1.388 . S
C4307 C4306 1.366 . S
C4307 C4311 1.385 . S
C4308 H4289 0.951 . S
C4308 C4306 1.388 . S
C4308 C4309 1.366 . S
C4309 C4308 1.366 . S
C4309 C4310 1.414 . S
C4309 C4312 1.499 . S
C4310 H4290 0.950 . S
C4310 C4309 1.414 . S
C4310 C4311 1.374 . S
C4311 H4291 0.950 . S
C4311 C4307 1.385 . S
C4311 C4310 1.374 . S
C4312 C4309 1.499 . S
C4312 C4313 1.373 . S
C4312 C4314 1.389 . S
C4313 H4292 0.950 . S
C4313 C4312 1.373 . S
C4313 C4329 1.377 . S
C4314 C4312 1.389 . S
C4314 C4315 1.524 . S
C4314 C4328 1.377 . S
C4315 C4314 1.524 . S
C4315 C4316 1.397 . S
C4315 C4320 1.363 . S
C4316 H4293 0.950 . S
C4316 C4315 1.397 . S
C4316 C4317 1.334 . S
C4317 H4294 0.950 . S
C4317 C4316 1.334 . S
C4317 C4318 1.287 . S
C4318 C4317 1.287 . S
C4318 C4319 1.524 . S
C4318 H4337 0.913 . S
C4319 H4295 0.950 . S
C4319 C4318 1.524 . S
C4319 C4320 1.415 . S
C4320 H4296 0.950 . S
C4320 C4315 1.363 . S
C4320 C4319 1.415 . S
C4321 H4297 0.951 . S
C4321 C4322 1.366 . S
C4321 C4323 1.388 . S
C4322 C4321 1.366 . S
C4322 C4326 1.385 . S
C4323 H4298 0.951 . S
C4323 C4321 1.388 . S
C4323 C4324 1.366 . S
C4324 C4323 1.366 . S
C4324 C4325 1.414 . S
C4324 C4327 1.499 . S
C4325 H4299 0.950 . S
C4325 C4324 1.414 . S
C4325 C4326 1.374 . S
C4326 H4300 0.950 . S
C4326 C4322 1.385 . S
C4326 C4325 1.374 . S
C4327 C4324 1.499 . S
C4327 C4328 1.373 . S
C4327 C4329 1.389 . S
C4328 H4301 0.950 . S
C4328 C4314 1.377 . S
C4328 C4327 1.373 . S
C4329 C4313 1.377 . S
C4329 C4327 1.389 . S
C4329 C4330 1.524 . S
C4330 C4329 1.524 . S
C4330 C4331 1.397 . S
C4330 C4335 1.363 . S
C4331 H4302 0.950 . S
C4331 C4330 1.397 . S
C4331 C4332 1.334 . S
C4332 H4303 0.950 . S
C4332 C4331 1.334 . S
C4332 C4333 1.287 . S
C4333 C4332 1.287 . S
C4333 C4334 1.524 . S
C4333 H4336 0.999 . S
C4334 H4304 0.950 . S
C4334 C4333 1.524 . S
C4334 C4335 1.415 . S
C4335 H4305 0.950 . S
C4335 C4330 1.363 . S
C4335 C4334 1.415 . S
H4336 C4333 0.999 . S
H4337 C4318 0.913 . S
H4338 C4356 0.951 . S
H4339 C4358 0.951 . S
H4340 C4360 0.950 . S
H4341 C4361 0.950 . S
H4342 C4363 0.950 . S
H4343 C4366 0.950 . S
H4344 C4367 0.950 . S
H4345 C4369 0.950 . S
H4346 C4370 0.950 . S
H4347 C4371 0.951 . S
H4348 C4373 0.951 . S
H4349 C4375 0.950 . S
H4350 C4376 0.950 . S
H4351 C4378 0.950 . S
H4352 C4381 0.950 . S
H4353 C4382 0.950 . S
H4354 C4384 0.950 . S
H4355 C4385 0.950 1_556 S
C4356 H4338 0.951 . S
C4356 C4357 1.366 . S
C4356 C4358 1.388 . S
C4357 C4356 1.366 . S
C4357 C4361 1.385 . S
C4358 H4339 0.951 . S
C4358 C4356 1.388 . S
C4358 C4359 1.366 . S
C4359 C4358 1.366 . S
C4359 C4360 1.414 . S
C4359 C4362 1.499 . S
C4360 H4340 0.950 . S
C4360 C4359 1.414 . S
C4360 C4361 1.374 . S
C4361 H4341 0.950 . S
C4361 C4357 1.385 . S
C4361 C4360 1.374 . S
C4362 C4359 1.499 . S
C4362 C4363 1.373 . S
C4362 C4364 1.389 . S
C4363 H4342 0.950 . S
C4363 C4362 1.373 . S
C4363 C4379 1.377 1_556 S
C4364 C4362 1.389 . S
C4364 C4365 1.524 . S
C4364 C4378 1.377 1_556 S
C4365 C4364 1.524 . S
C4365 C4366 1.397 . S
C4365 C4370 1.363 . S
C4366 H4343 0.950 . S
C4366 C4365 1.397 . S
C4366 C4367 1.334 . S
C4367 H4344 0.950 . S
C4367 C4366 1.334 . S
C4367 C4368 1.287 . S
C4368 C4367 1.287 . S
C4368 C4369 1.524 . S
C4368 H4387 0.913 . S
C4369 H4345 0.950 . S
C4369 C4368 1.524 . S
C4369 C4370 1.415 . S
C4370 H4346 0.950 . S
C4370 C4365 1.363 . S
C4370 C4369 1.415 . S
C4371 H4347 0.951 . S
C4371 C4372 1.366 . S
C4371 C4373 1.388 . S
C4372 C4371 1.366 . S
C4372 C4376 1.385 . S
C4373 H4348 0.951 . S
C4373 C4371 1.388 . S
C4373 C4374 1.366 . S
C4374 C4373 1.366 . S
C4374 C4375 1.414 . S
C4374 C4377 1.499 . S
C4375 H4349 0.950 . S
C4375 C4374 1.414 . S
C4375 C4376 1.374 . S
C4376 H4350 0.950 . S
C4376 C4372 1.385 . S
C4376 C4375 1.374 . S
C4377 C4374 1.499 . S
C4377 C4378 1.373 . S
C4377 C4379 1.389 . S
C4378 H4351 0.950 . S
C4378 C4364 1.377 1_554 S
C4378 C4377 1.373 . S
C4379 C4363 1.377 1_554 S
C4379 C4377 1.389 . S
C4379 C4380 1.524 . S
C4380 C4379 1.524 . S
C4380 C4381 1.397 . S
C4380 C4385 1.363 . S
C4381 H4352 0.950 . S
C4381 C4380 1.397 . S
C4381 C4382 1.334 . S
C4382 H4353 0.950 . S
C4382 C4381 1.334 . S
C4382 C4383 1.287 . S
C4383 C4382 1.287 . S
C4383 C4384 1.524 . S
C4383 H4386 0.999 . S
C4384 H4354 0.950 . S
C4384 C4383 1.524 . S
C4384 C4385 1.415 . S
C4385 H4355 0.950 1_554 S
C4385 C4380 1.363 . S
C4385 C4384 1.415 . S
H4386 C4383 0.999 . S
H4387 C4368 0.913 . S
H4388 C4406 0.951 . S
H4389 C4408 0.951 . S
H4390 C4410 0.950 . S
H4391 C4411 0.950 . S
H4392 C4413 0.950 . S
H4393 C4416 0.950 . S
H4394 C4417 0.950 . S
H4395 C4419 0.950 . S
H4396 C4420 0.950 . S
H4397 C4421 0.951 . S
H4398 C4423 0.951 . S
H4399 C4425 0.950 . S
H4400 C4426 0.950 . S
H4401 C4428 0.950 . S
H4402 C4431 0.950 . S
H4403 C4432 0.950 . S
H4404 C4434 0.950 . S
H4405 C4435 0.950 . S
C4406 H4388 0.951 . S
C4406 C4407 1.366 . S
C4406 C4408 1.388 . S
C4407 C4406 1.366 . S
C4407 C4411 1.385 . S
C4408 H4389 0.951 . S
C4408 C4406 1.388 . S
C4408 C4409 1.366 . S
C4409 C4408 1.366 . S
C4409 C4410 1.414 . S
C4409 C4412 1.499 . S
C4410 H4390 0.950 . S
C4410 C4409 1.414 . S
C4410 C4411 1.374 . S
C4411 H4391 0.950 . S
C4411 C4407 1.385 . S
C4411 C4410 1.374 . S
C4412 C4409 1.499 . S
C4412 C4413 1.373 . S
C4412 C4414 1.389 . S
C4413 H4392 0.950 . S
C4413 C4412 1.373 . S
C4413 C4429 1.377 . S
C4414 C4412 1.389 . S
C4414 C4415 1.524 . S
C4414 C4428 1.377 . S
C4415 C4414 1.524 . S
C4415 C4416 1.397 . S
C4415 C4420 1.363 . S
C4416 H4393 0.950 . S
C4416 C4415 1.397 . S
C4416 C4417 1.334 . S
C4417 H4394 0.950 . S
C4417 C4416 1.334 . S
C4417 C4418 1.287 . S
C4418 C4417 1.287 . S
C4418 C4419 1.524 . S
C4418 H4437 0.913 . S
C4419 H4395 0.950 . S
C4419 C4418 1.524 . S
C4419 C4420 1.415 . S
C4420 H4396 0.950 . S
C4420 C4415 1.363 . S
C4420 C4419 1.415 . S
C4421 H4397 0.951 . S
C4421 C4422 1.366 . S
C4421 C4423 1.388 . S
C4422 C4421 1.366 . S
C4422 C4426 1.385 . S
C4423 H4398 0.951 . S
C4423 C4421 1.388 . S
C4423 C4424 1.366 . S
C4424 C4423 1.366 . S
C4424 C4425 1.414 . S
C4424 C4427 1.499 . S
C4425 H4399 0.950 . S
C4425 C4424 1.414 . S
C4425 C4426 1.374 . S
C4426 H4400 0.950 . S
C4426 C4422 1.385 . S
C4426 C4425 1.374 . S
C4427 C4424 1.499 . S
C4427 C4428 1.373 . S
C4427 C4429 1.389 . S
C4428 H4401 0.950 . S
C4428 C4414 1.377 . S
C4428 C4427 1.373 . S
C4429 C4413 1.377 . S
C4429 C4427 1.389 . S
C4429 C4430 1.524 . S
C4430 C4429 1.524 . S
C4430 C4431 1.397 . S
C4430 C4435 1.363 . S
C4431 H4402 0.950 . S
C4431 C4430 1.397 . S
C4431 C4432 1.334 . S
C4432 H4403 0.950 . S
C4432 C4431 1.334 . S
C4432 C4433 1.287 . S
C4433 C4432 1.287 . S
C4433 C4434 1.524 . S
C4433 H4436 0.999 . S
C4434 H4404 0.950 . S
C4434 C4433 1.524 . S
C4434 C4435 1.415 . S
C4435 H4405 0.950 . S
C4435 C4430 1.363 . S
C4435 C4434 1.415 . S
H4436 C4433 0.999 . S
H4437 C4418 0.913 . S
H4438 C4456 0.951 . S
H4439 C4458 0.951 . S
H4440 C4460 0.950 . S
H4441 C4461 0.950 . S
H4442 C4463 0.950 . S
H4443 C4466 0.950 . S
H4444 C4467 0.950 . S
H4445 C4469 0.950 . S
H4446 C4470 0.950 . S
H4447 C4471 0.951 . S
H4448 C4473 0.951 . S
H4449 C4475 0.950 . S
H4450 C4476 0.950 . S
H4451 C4478 0.950 . S
H4452 C4481 0.950 . S
H4453 C4482 0.950 . S
H4454 C4484 0.950 . S
H4455 C4485 0.950 . S
C4456 H4438 0.951 . S
C4456 C4457 1.366 . S
C4456 C4458 1.388 . S
C4457 C4456 1.366 . S
C4457 C4461 1.385 . S
C4458 H4439 0.951 . S
C4458 C4456 1.388 . S
C4458 C4459 1.366 . S
C4459 C4458 1.366 . S
C4459 C4460 1.414 . S
C4459 C4462 1.499 . S
C4460 H4440 0.950 . S
C4460 C4459 1.414 . S
C4460 C4461 1.374 . S
C4461 H4441 0.950 . S
C4461 C4457 1.385 . S
C4461 C4460 1.374 . S
C4462 C4459 1.499 . S
C4462 C4463 1.373 . S
C4462 C4464 1.389 . S
C4463 H4442 0.950 . S
C4463 C4462 1.373 . S
C4463 C4479 1.377 . S
C4464 C4462 1.389 . S
C4464 C4465 1.524 . S
C4464 C4478 1.377 . S
C4465 C4464 1.524 . S
C4465 C4466 1.397 . S
C4465 C4470 1.363 . S
C4466 H4443 0.950 . S
C4466 C4465 1.397 . S
C4466 C4467 1.334 1_455 S
C4467 H4444 0.950 . S
C4467 C4466 1.334 1_655 S
C4467 C4468 1.287 . S
C4468 C4467 1.287 . S
C4468 C4469 1.524 1_655 S
C4468 H4487 0.913 . S
C4469 H4445 0.950 . S
C4469 C4468 1.524 1_455 S
C4469 C4470 1.415 . S
C4470 H4446 0.950 . S
C4470 C4465 1.363 . S
C4470 C4469 1.415 . S
C4471 H4447 0.951 . S
C4471 C4472 1.366 . S
C4471 C4473 1.388 . S
C4472 C4471 1.366 . S
C4472 C4476 1.385 . S
C4473 H4448 0.951 . S
C4473 C4471 1.388 . S
C4473 C4474 1.366 . S
C4474 C4473 1.366 . S
C4474 C4475 1.414 . S
C4474 C4477 1.499 . S
C4475 H4449 0.950 . S
C4475 C4474 1.414 . S
C4475 C4476 1.374 . S
C4476 H4450 0.950 . S
C4476 C4472 1.385 . S
C4476 C4475 1.374 . S
C4477 C4474 1.499 . S
C4477 C4478 1.373 . S
C4477 C4479 1.389 . S
C4478 H4451 0.950 . S
C4478 C4464 1.377 . S
C4478 C4477 1.373 . S
C4479 C4463 1.377 . S
C4479 C4477 1.389 . S
C4479 C4480 1.524 . S
C4480 C4479 1.524 . S
C4480 C4481 1.397 . S
C4480 C4485 1.363 . S
C4481 H4452 0.950 . S
C4481 C4480 1.397 . S
C4481 C4482 1.334 . S
C4482 H4453 0.950 . S
C4482 C4481 1.334 . S
C4482 C4483 1.287 . S
C4483 C4482 1.287 . S
C4483 C4484 1.524 . S
C4483 H4486 0.999 . S
C4484 H4454 0.950 . S
C4484 C4483 1.524 . S
C4484 C4485 1.415 . S
C4485 H4455 0.950 . S
C4485 C4480 1.363 . S
C4485 C4484 1.415 . S
H4486 C4483 0.999 . S
H4487 C4468 0.913 . S
H4488 C4506 0.951 . S
H4489 C4508 0.951 . S
H4490 C4510 0.950 . S
H4491 C4511 0.950 . S
H4492 C4513 0.950 . S
H4493 C4516 0.950 . S
H4494 C4517 0.950 . S
H4495 C4519 0.950 . S
H4496 C4520 0.950 . S
H4497 C4521 0.951 . S
H4498 C4523 0.951 . S
H4499 C4525 0.950 . S
H4500 C4526 0.950 . S
H4501 C4528 0.950 . S
H4502 C4531 0.950 . S
H4503 C4532 0.950 . S
H4504 C4534 0.950 . S
H4505 C4535 0.950 . S
C4506 H4488 0.951 . S
C4506 C4507 1.366 . S
C4506 C4508 1.388 . S
C4507 C4506 1.366 . S
C4507 C4511 1.385 . S
C4508 H4489 0.951 . S
C4508 C4506 1.388 . S
C4508 C4509 1.366 . S
C4509 C4508 1.366 . S
C4509 C4510 1.414 . S
C4509 C4512 1.499 . S
C4510 H4490 0.950 . S
C4510 C4509 1.414 . S
C4510 C4511 1.374 . S
C4511 H4491 0.950 . S
C4511 C4507 1.385 . S
C4511 C4510 1.374 . S
C4512 C4509 1.499 . S
C4512 C4513 1.373 . S
C4512 C4514 1.389 . S
C4513 H4492 0.950 . S
C4513 C4512 1.373 . S
C4513 C4529 1.377 . S
C4514 C4512 1.389 . S
C4514 C4515 1.524 . S
C4514 C4528 1.377 . S
C4515 C4514 1.524 . S
C4515 C4516 1.397 . S
C4515 C4520 1.363 . S
C4516 H4493 0.950 . S
C4516 C4515 1.397 . S
C4516 C4517 1.334 . S
C4517 H4494 0.950 . S
C4517 C4516 1.334 . S
C4517 C4518 1.287 . S
C4518 C4517 1.287 . S
C4518 C4519 1.524 . S
C4518 H4537 0.913 . S
C4519 H4495 0.950 . S
C4519 C4518 1.524 . S
C4519 C4520 1.415 . S
C4520 H4496 0.950 . S
C4520 C4515 1.363 . S
C4520 C4519 1.415 . S
C4521 H4497 0.951 . S
C4521 C4522 1.366 . S
C4521 C4523 1.388 . S
C4522 C4521 1.366 . S
C4522 C4526 1.385 . S
C4523 H4498 0.951 . S
C4523 C4521 1.388 . S
C4523 C4524 1.366 . S
C4524 C4523 1.366 . S
C4524 C4525 1.414 . S
C4524 C4527 1.499 . S
C4525 H4499 0.950 . S
C4525 C4524 1.414 . S
C4525 C4526 1.374 . S
C4526 H4500 0.950 . S
C4526 C4522 1.385 . S
C4526 C4525 1.374 . S
C4527 C4524 1.499 . S
C4527 C4528 1.373 . S
C4527 C4529 1.389 . S
C4528 H4501 0.950 . S
C4528 C4514 1.377 . S
C4528 C4527 1.373 . S
C4529 C4513 1.377 . S
C4529 C4527 1.389 . S
C4529 C4530 1.524 . S
C4530 C4529 1.524 . S
C4530 C4531 1.397 . S
C4530 C4535 1.363 . S
C4531 H4502 0.950 . S
C4531 C4530 1.397 . S
C4531 C4532 1.334 . S
C4532 H4503 0.950 . S
C4532 C4531 1.334 . S
C4532 C4533 1.287 . S
C4533 C4532 1.287 . S
C4533 C4534 1.524 . S
C4533 H4536 0.999 . S
C4534 H4504 0.950 . S
C4534 C4533 1.524 . S
C4534 C4535 1.415 . S
C4535 H4505 0.950 . S
C4535 C4530 1.363 . S
C4535 C4534 1.415 . S
H4536 C4533 0.999 . S
H4537 C4518 0.913 . S
H4538 C4556 0.951 . S
H4539 C4558 0.951 . S
H4540 C4560 0.950 . S
H4541 C4561 0.950 . S
H4542 C4563 0.950 . S
H4543 C4566 0.950 . S
H4544 C4567 0.950 . S
H4545 C4569 0.950 1_655 S
H4546 C4570 0.950 . S
H4547 C4571 0.951 . S
H4548 C4573 0.951 . S
H4549 C4575 0.950 . S
H4550 C4576 0.950 . S
H4551 C4578 0.950 . S
H4552 C4581 0.980 . S
H4553 C4582 0.950 . S
H4554 C4584 0.950 . S
H4555 C4585 0.950 . S
C4556 H4538 0.951 . S
C4556 C4557 1.366 . S
C4556 C4558 1.388 . S
C4557 C4556 1.366 . S
C4557 C4561 1.385 . S
C4558 H4539 0.951 . S
C4558 C4556 1.388 . S
C4558 C4559 1.366 . S
C4559 C4558 1.366 . S
C4559 C4560 1.414 . S
C4559 C4562 1.499 . S
C4560 H4540 0.950 . S
C4560 C4559 1.414 . S
C4560 C4561 1.374 . S
C4561 H4541 0.950 . S
C4561 C4557 1.385 . S
C4561 C4560 1.374 . S
C4562 C4559 1.499 . S
C4562 C4563 1.373 . S
C4562 C4564 1.389 . S
C4563 H4542 0.950 . S
C4563 C4562 1.373 . S
C4563 C4579 1.377 . S
C4564 C4562 1.389 . S
C4564 C4565 1.524 . S
C4564 C4578 1.377 1_554 S
C4565 C4564 1.524 . S
C4565 C4566 1.397 . S
C4565 C4570 1.363 1_554 S
C4566 H4543 0.950 . S
C4566 C4565 1.397 . S
C4566 C4567 1.334 1_455 S
C4567 H4544 0.950 . S
C4567 C4566 1.334 1_655 S
C4567 C4568 1.287 . S
C4568 C4567 1.287 . S
C4568 C4569 1.524 1_654 S
C4568 H4587 0.913 . S
C4569 H4545 0.950 1_455 S
C4569 C4568 1.524 1_456 S
C4569 C4570 1.415 . S
C4570 H4546 0.950 . S
C4570 C4565 1.363 1_556 S
C4570 C4569 1.415 . S
C4571 H4547 0.951 . S
C4571 C4572 1.366 . S
C4571 C4573 1.388 . S
C4572 C4571 1.366 . S
C4572 C4576 1.385 . S
C4573 H4548 0.951 . S
C4573 C4571 1.388 . S
C4573 C4574 1.366 . S
C4574 C4573 1.366 . S
C4574 C4575 1.414 . S
C4574 C4577 1.499 . S
C4575 H4549 0.950 . S
C4575 C4574 1.414 . S
C4575 C4576 1.374 . S
C4576 H4550 0.950 . S
C4576 C4572 1.385 . S
C4576 C4575 1.374 . S
C4577 C4574 1.499 . S
C4577 C4578 1.373 . S
C4577 C4579 1.389 1_556 S
C4578 H4551 0.950 . S
C4578 C4564 1.377 1_556 S
C4578 C4577 1.373 . S
C4579 C4563 1.377 . S
C4579 C4577 1.389 1_554 S
C4579 C4580 1.524 . S
C4580 C4579 1.524 . S
C4580 C4581 1.397 . S
C4580 C4585 1.363 . S
C4581 H4552 0.980 . S
C4581 C4580 1.397 . S
C4581 C4582 1.334 . S
C4582 H4553 0.950 . S
C4582 C4581 1.334 . S
C4582 C4583 1.287 . S
C4583 C4582 1.287 . S
C4583 C4584 1.524 . S
C4583 H4586 0.999 . S
C4584 H4554 0.950 . S
C4584 C4583 1.524 . S
C4584 C4585 1.415 . S
C4585 H4555 0.950 . S
C4585 C4580 1.363 . S
C4585 C4584 1.415 . S
H4586 C4583 0.999 . S
H4587 C4568 0.913 . S
H4588 C4606 0.951 . S
H4589 C4608 0.951 . S
H4590 C4610 0.950 . S
H4591 C4611 0.950 . S
H4592 C4613 0.950 . S
H4593 C4616 0.950 . S
H4594 C4617 0.950 1_655 S
H4595 C4619 0.950 . S
H4596 C4620 0.950 . S
H4597 C4621 0.951 . S
H4598 C4623 0.951 . S
H4599 C4625 0.950 . S
H4600 C4626 0.950 . S
H4601 C4628 0.950 . S
H4602 C4631 0.950 . S
H4603 C4632 0.950 . S
H4604 C4634 0.950 . S
H4605 C4635 0.950 . S
C4606 H4588 0.951 . S
C4606 C4607 1.366 . S
C4606 C4608 1.388 . S
C4607 C4606 1.366 . S
C4607 C4611 1.385 . S
C4608 H4589 0.951 . S
C4608 C4606 1.388 . S
C4608 C4609 1.366 . S
C4609 C4608 1.366 . S
C4609 C4610 1.414 . S
C4609 C4612 1.499 . S
C4610 H4590 0.950 . S
C4610 C4609 1.414 . S
C4610 C4611 1.374 . S
C4611 H4591 0.950 . S
C4611 C4607 1.385 . S
C4611 C4610 1.374 . S
C4612 C4609 1.499 . S
C4612 C4613 1.373 . S
C4612 C4614 1.389 . S
C4613 H4592 0.950 . S
C4613 C4612 1.373 . S
C4613 C4629 1.377 . S
C4614 C4612 1.389 . S
C4614 C4615 1.524 . S
C4614 C4628 1.377 . S
C4615 C4614 1.524 . S
C4615 C4616 1.397 . S
C4615 C4620 1.363 . S
C4616 H4593 0.950 . S
C4616 C4615 1.397 . S
C4616 C4617 1.334 . S
C4617 H4594 0.950 1_455 S
C4617 C4616 1.334 . S
C4617 C4618 1.287 . S
C4618 C4617 1.287 . S
C4618 C4619 1.524 . S
C4618 H4637 0.913 . S
C4619 H4595 0.950 . S
C4619 C4618 1.524 . S
C4619 C4620 1.415 . S
C4620 H4596 0.950 . S
C4620 C4615 1.363 . S
C4620 C4619 1.415 . S
C4621 H4597 0.951 . S
C4621 C4622 1.366 . S
C4621 C4623 1.388 . S
C4622 C4621 1.366 . S
C4622 C4626 1.385 . S
C4623 H4598 0.951 . S
C4623 C4621 1.388 . S
C4623 C4624 1.366 . S
C4624 C4623 1.366 . S
C4624 C4625 1.414 . S
C4624 C4627 1.499 . S
C4625 H4599 0.950 . S
C4625 C4624 1.414 . S
C4625 C4626 1.374 . S
C4626 H4600 0.950 . S
C4626 C4622 1.385 . S
C4626 C4625 1.374 . S
C4627 C4624 1.499 . S
C4627 C4628 1.373 . S
C4627 C4629 1.389 . S
C4628 H4601 0.950 . S
C4628 C4614 1.377 . S
C4628 C4627 1.373 . S
C4629 C4613 1.377 . S
C4629 C4627 1.389 . S
C4629 C4630 1.524 . S
C4630 C4629 1.524 . S
C4630 C4631 1.397 . S
C4630 C4635 1.363 . S
C4631 H4602 0.950 . S
C4631 C4630 1.397 . S
C4631 C4632 1.334 . S
C4632 H4603 0.950 . S
C4632 C4631 1.334 . S
C4632 C4633 1.287 . S
C4633 C4632 1.287 . S
C4633 C4634 1.524 . S
C4633 H4636 0.999 . S
C4634 H4604 0.950 . S
C4634 C4633 1.524 . S
C4634 C4635 1.415 . S
C4635 H4605 0.950 . S
C4635 C4630 1.363 . S
C4635 C4634 1.415 . S
H4636 C4633 0.999 . S
H4637 C4618 0.913 . S
H4638 C4656 0.951 . S
H4639 C4658 0.951 . S
H4640 C4660 0.950 . S
H4641 C4661 0.950 . S
H4642 C4663 0.950 . S
H4643 C4666 0.950 . S
H4644 C4667 0.950 . S
H4645 C4669 0.950 . S
H4646 C4670 0.950 . S
H4647 C4671 0.951 . S
H4648 C4673 0.951 . S
H4649 C4675 0.950 . S
H4650 C4676 0.950 . S
H4651 C4678 0.950 . S
H4652 C4681 0.950 . S
H4653 C4682 0.950 . S
H4654 C4684 0.950 . S
H4655 C4685 0.950 . S
C4656 H4638 0.951 . S
C4656 C4657 1.366 . S
C4656 C4658 1.388 . S
C4657 C4656 1.366 . S
C4657 C4661 1.385 . S
C4658 H4639 0.951 . S
C4658 C4656 1.388 . S
C4658 C4659 1.366 . S
C4659 C4658 1.366 . S
C4659 C4660 1.414 . S
C4659 C4662 1.499 . S
C4660 H4640 0.950 . S
C4660 C4659 1.414 . S
C4660 C4661 1.374 . S
C4661 H4641 0.950 . S
C4661 C4657 1.385 . S
C4661 C4660 1.374 . S
C4662 C4659 1.499 . S
C4662 C4663 1.373 . S
C4662 C4664 1.389 . S
C4663 H4642 0.950 . S
C4663 C4662 1.373 . S
C4663 C4679 1.377 . S
C4664 C4662 1.389 . S
C4664 C4665 1.524 . S
C4664 C4678 1.377 . S
C4665 C4664 1.524 . S
C4665 C4666 1.397 . S
C4665 C4670 1.363 . S
C4666 H4643 0.950 . S
C4666 C4665 1.397 . S
C4666 C4667 1.334 . S
C4667 H4644 0.950 . S
C4667 C4666 1.334 . S
C4667 C4668 1.287 . S
C4668 C4667 1.287 . S
C4668 C4669 1.524 . S
C4668 H4687 0.913 . S
C4669 H4645 0.950 . S
C4669 C4668 1.524 . S
C4669 C4670 1.415 . S
C4670 H4646 0.950 . S
C4670 C4665 1.363 . S
C4670 C4669 1.415 . S
C4671 H4647 0.951 . S
C4671 C4672 1.366 . S
C4671 C4673 1.388 . S
C4672 C4671 1.366 . S
C4672 C4676 1.385 . S
C4673 H4648 0.951 . S
C4673 C4671 1.388 . S
C4673 C4674 1.366 . S
C4674 C4673 1.366 . S
C4674 C4675 1.414 . S
C4674 C4677 1.499 . S
C4675 H4649 0.950 . S
C4675 C4674 1.414 . S
C4675 C4676 1.374 . S
C4676 H4650 0.950 . S
C4676 C4672 1.385 . S
C4676 C4675 1.374 . S
C4677 C4674 1.499 . S
C4677 C4678 1.373 . S
C4677 C4679 1.389 . S
C4678 H4651 0.950 . S
C4678 C4664 1.377 . S
C4678 C4677 1.373 . S
C4679 C4663 1.377 . S
C4679 C4677 1.389 . S
C4679 C4680 1.524 . S
C4680 C4679 1.524 . S
C4680 C4681 1.397 . S
C4680 C4685 1.363 . S
C4681 H4652 0.950 . S
C4681 C4680 1.397 . S
C4681 C4682 1.334 . S
C4682 H4653 0.950 . S
C4682 C4681 1.334 . S
C4682 C4683 1.287 . S
C4683 C4682 1.287 . S
C4683 C4684 1.524 . S
C4683 H4686 0.999 . S
C4684 H4654 0.950 . S
C4684 C4683 1.524 . S
C4684 C4685 1.415 . S
C4685 H4655 0.950 . S
C4685 C4680 1.363 . S
C4685 C4684 1.415 . S
H4686 C4683 0.999 . S
H4687 C4668 0.913 . S
H4688 C4706 0.951 . S
H4689 C4708 0.951 . S
H4690 C4710 0.950 . S
H4691 C4711 0.950 . S
H4692 C4713 0.950 . S
H4693 C4716 0.950 . S
H4694 C4717 0.950 . S
H4695 C4719 0.950 . S
H4696 C4720 0.950 . S
H4697 C4721 0.951 . S
H4698 C4723 0.951 . S
H4699 C4725 0.950 . S
H4700 C4726 0.950 . S
H4701 C4728 0.950 . S
H4702 C4731 0.950 . S
H4703 C4732 0.950 . S
H4704 C4734 0.950 . S
H4705 C4735 0.950 . S
C4706 H4688 0.951 . S
C4706 C4707 1.366 . S
C4706 C4708 1.388 . S
C4707 C4706 1.366 . S
C4707 C4711 1.385 . S
C4708 H4689 0.951 . S
C4708 C4706 1.388 . S
C4708 C4709 1.366 . S
C4709 C4708 1.366 . S
C4709 C4710 1.414 . S
C4709 C4712 1.499 . S
C4710 H4690 0.950 . S
C4710 C4709 1.414 . S
C4710 C4711 1.374 . S
C4711 H4691 0.950 . S
C4711 C4707 1.385 . S
C4711 C4710 1.374 . S
C4712 C4709 1.499 . S
C4712 C4713 1.373 . S
C4712 C4714 1.389 . S
C4713 H4692 0.950 . S
C4713 C4712 1.373 . S
C4713 C4729 1.377 . S
C4714 C4712 1.389 . S
C4714 C4715 1.524 . S
C4714 C4728 1.377 . S
C4715 C4714 1.524 . S
C4715 C4716 1.397 . S
C4715 C4720 1.363 . S
C4716 H4693 0.950 . S
C4716 C4715 1.397 . S
C4716 C4717 1.334 . S
C4717 H4694 0.950 . S
C4717 C4716 1.334 . S
C4717 C4718 1.287 . S
C4718 C4717 1.287 . S
C4718 C4719 1.524 . S
C4718 H4737 0.913 . S
C4719 H4695 0.950 . S
C4719 C4718 1.524 . S
C4719 C4720 1.415 . S
C4720 H4696 0.950 . S
C4720 C4715 1.363 . S
C4720 C4719 1.415 . S
C4721 H4697 0.951 . S
C4721 C4722 1.366 . S
C4721 C4723 1.388 . S
C4722 C4721 1.366 . S
C4722 C4726 1.385 . S
C4723 H4698 0.951 . S
C4723 C4721 1.388 . S
C4723 C4724 1.366 . S
C4724 C4723 1.366 . S
C4724 C4725 1.414 . S
C4724 C4727 1.499 . S
C4725 H4699 0.950 . S
C4725 C4724 1.414 . S
C4725 C4726 1.374 . S
C4726 H4700 0.950 . S
C4726 C4722 1.385 . S
C4726 C4725 1.374 . S
C4727 C4724 1.499 . S
C4727 C4728 1.373 . S
C4727 C4729 1.389 . S
C4728 H4701 0.950 . S
C4728 C4714 1.377 . S
C4728 C4727 1.373 . S
C4729 C4713 1.377 . S
C4729 C4727 1.389 . S
C4729 C4730 1.524 . S
C4730 C4729 1.524 . S
C4730 C4731 1.397 . S
C4730 C4735 1.363 . S
C4731 H4702 0.950 . S
C4731 C4730 1.397 . S
C4731 C4732 1.334 . S
C4732 H4703 0.950 . S
C4732 C4731 1.334 . S
C4732 C4733 1.287 . S
C4733 C4732 1.287 . S
C4733 C4734 1.524 . S
C4733 H4736 0.999 . S
C4734 H4704 0.950 . S
C4734 C4733 1.524 . S
C4734 C4735 1.415 . S
C4735 H4705 0.950 . S
C4735 C4730 1.363 . S
C4735 C4734 1.415 . S
H4736 C4733 0.999 . S
H4737 C4718 0.913 . S
H4738 C4756 0.951 . S
H4739 C4758 0.951 . S
H4740 C4760 0.950 . S
H4741 C4761 0.950 . S
H4742 C4763 0.950 . S
H4743 C4766 0.950 . S
H4744 C4767 0.950 . S
H4745 C4769 0.950 . S
H4746 C4770 0.950 . S
H4747 C4771 0.951 . S
H4748 C4773 0.951 . S
H4749 C4775 0.950 . S
H4750 C4776 0.950 . S
H4751 C4778 0.950 . S
H4752 C4781 0.950 . S
H4753 C4782 0.950 . S
H4754 C4784 0.950 . S
H4755 C4785 0.950 . S
C4756 H4738 0.951 . S
C4756 C4757 1.366 . S
C4756 C4758 1.388 . S
C4757 C4756 1.366 . S
C4757 C4761 1.385 . S
C4758 H4739 0.951 . S
C4758 C4756 1.388 . S
C4758 C4759 1.366 . S
C4759 C4758 1.366 . S
C4759 C4760 1.414 . S
C4759 C4762 1.499 . S
C4760 H4740 0.950 . S
C4760 C4759 1.414 . S
C4760 C4761 1.374 . S
C4761 H4741 0.950 . S
C4761 C4757 1.385 . S
C4761 C4760 1.374 . S
C4762 C4759 1.499 . S
C4762 C4763 1.373 . S
C4762 C4764 1.389 . S
C4763 H4742 0.950 . S
C4763 C4762 1.373 . S
C4763 C4779 1.377 . S
C4764 C4762 1.389 . S
C4764 C4765 1.524 . S
C4764 C4778 1.377 . S
C4765 C4764 1.524 . S
C4765 C4766 1.397 . S
C4765 C4770 1.363 . S
C4766 H4743 0.950 . S
C4766 C4765 1.397 . S
C4766 C4767 1.334 . S
C4767 H4744 0.950 . S
C4767 C4766 1.334 . S
C4767 C4768 1.287 . S
C4768 C4767 1.287 . S
C4768 C4769 1.524 . S
C4768 H4787 0.913 . S
C4769 H4745 0.950 . S
C4769 C4768 1.524 . S
C4769 C4770 1.415 . S
C4770 H4746 0.950 . S
C4770 C4765 1.363 . S
C4770 C4769 1.415 . S
C4771 H4747 0.951 . S
C4771 C4772 1.366 . S
C4771 C4773 1.388 . S
C4772 C4771 1.366 . S
C4772 C4776 1.385 . S
C4773 H4748 0.951 . S
C4773 C4771 1.388 . S
C4773 C4774 1.366 . S
C4774 C4773 1.366 . S
C4774 C4775 1.414 . S
C4774 C4777 1.499 . S
C4775 H4749 0.950 . S
C4775 C4774 1.414 . S
C4775 C4776 1.374 . S
C4776 H4750 0.950 . S
C4776 C4772 1.385 . S
C4776 C4775 1.374 . S
C4777 C4774 1.499 . S
C4777 C4778 1.373 . S
C4777 C4779 1.389 . S
C4778 H4751 0.950 . S
C4778 C4764 1.377 . S
C4778 C4777 1.373 . S
C4779 C4763 1.377 . S
C4779 C4777 1.389 . S
C4779 C4780 1.524 . S
C4780 C4779 1.524 . S
C4780 C4781 1.397 . S
C4780 C4785 1.363 . S
C4781 H4752 0.950 . S
C4781 C4780 1.397 . S
C4781 C4782 1.334 . S
C4782 H4753 0.950 . S
C4782 C4781 1.334 . S
C4782 C4783 1.287 . S
C4783 C4782 1.287 . S
C4783 C4784 1.524 . S
C4783 H4786 1.025 . S
C4784 H4754 0.950 . S
C4784 C4783 1.524 . S
C4784 C4785 1.415 . S
C4785 H4755 0.950 . S
C4785 C4780 1.363 . S
C4785 C4784 1.415 . S
H4786 C4783 1.025 . S
H4787 C4768 0.913 . S
H4788 C4806 0.951 . S
H4789 C4808 0.951 . S
H4790 C4810 0.950 . S
H4791 C4811 0.950 . S
H4792 C4813 0.950 . S
H4793 C4816 0.950 . S
H4794 C4817 0.950 . S
H4795 C4819 0.950 . S
H4796 C4820 0.950 . S
H4797 C4821 0.951 . S
H4798 C4823 0.951 . S
H4799 C4825 0.950 . S
H4800 C4826 0.950 . S
H4801 C4828 0.950 . S
H4802 C4831 0.950 . S
H4803 C4832 0.950 . S
H4804 C4834 0.950 . S
H4805 C4835 0.950 . S
C4806 H4788 0.951 . S
C4806 C4807 1.366 . S
C4806 C4808 1.388 . S
C4807 C4806 1.366 . S
C4807 C4811 1.385 . S
C4808 H4789 0.951 . S
C4808 C4806 1.388 . S
C4808 C4809 1.366 . S
C4809 C4808 1.366 . S
C4809 C4810 1.414 . S
C4809 C4812 1.499 . S
C4810 H4790 0.950 . S
C4810 C4809 1.414 . S
C4810 C4811 1.374 . S
C4811 H4791 0.950 . S
C4811 C4807 1.385 . S
C4811 C4810 1.374 . S
C4812 C4809 1.499 . S
C4812 C4813 1.373 . S
C4812 C4814 1.389 . S
C4813 H4792 0.950 . S
C4813 C4812 1.373 . S
C4813 C4829 1.377 . S
C4814 C4812 1.389 . S
C4814 C4815 1.524 . S
C4814 C4828 1.377 . S
C4815 C4814 1.524 . S
C4815 C4816 1.397 . S
C4815 C4820 1.363 . S
C4816 H4793 0.950 . S
C4816 C4815 1.397 . S
C4816 C4817 1.334 . S
C4817 H4794 0.950 . S
C4817 C4816 1.334 . S
C4817 C4818 1.287 . S
C4818 C4817 1.287 . S
C4818 C4819 1.524 . S
C4818 H4837 0.913 . S
C4819 H4795 0.950 . S
C4819 C4818 1.524 . S
C4819 C4820 1.415 . S
C4820 H4796 0.950 . S
C4820 C4815 1.363 . S
C4820 C4819 1.415 . S
C4821 H4797 0.951 . S
C4821 C4822 1.366 . S
C4821 C4823 1.388 . S
C4822 C4821 1.366 . S
C4822 C4826 1.385 . S
C4823 H4798 0.951 . S
C4823 C4821 1.388 . S
C4823 C4824 1.366 . S
C4824 C4823 1.366 . S
C4824 C4825 1.414 . S
C4824 C4827 1.499 . S
C4825 H4799 0.950 . S
C4825 C4824 1.414 . S
C4825 C4826 1.374 . S
C4826 H4800 0.950 . S
C4826 C4822 1.385 . S
C4826 C4825 1.374 . S
C4827 C4824 1.499 . S
C4827 C4828 1.373 . S
C4827 C4829 1.389 . S
C4828 H4801 0.950 . S
C4828 C4814 1.377 . S
C4828 C4827 1.373 . S
C4829 C4813 1.377 . S
C4829 C4827 1.389 . S
C4829 C4830 1.524 . S
C4830 C4829 1.524 . S
C4830 C4831 1.397 . S
C4830 C4835 1.363 . S
C4831 H4802 0.950 . S
C4831 C4830 1.397 . S
C4831 C4832 1.334 . S
C4832 H4803 0.950 . S
C4832 C4831 1.334 . S
C4832 C4833 1.287 . S
C4833 C4832 1.287 . S
C4833 C4834 1.524 . S
C4833 H4836 0.999 . S
C4834 H4804 0.950 . S
C4834 C4833 1.524 . S
C4834 C4835 1.415 . S
C4835 H4805 0.950 . S
C4835 C4830 1.363 . S
C4835 C4834 1.415 . S
H4836 C4833 0.999 . S
H4837 C4818 0.913 . S
H4838 C4856 0.951 . S
H4839 C4858 0.951 . S
H4840 C4860 0.950 . S
H4841 C4861 0.950 . S
H4842 C4863 0.950 . S
H4843 C4866 0.950 . S
H4844 C4867 0.950 . S
H4845 C4869 0.950 . S
H4846 C4870 0.950 . S
H4847 C4871 0.951 . S
H4848 C4873 0.951 . S
H4849 C4875 0.950 . S
H4850 C4876 0.950 . S
H4851 C4878 0.950 . S
H4852 C4881 0.950 . S
H4853 C4882 0.950 . S
H4854 C4884 0.950 . S
H4855 C4885 0.950 . S
C4856 H4838 0.951 . S
C4856 C4857 1.366 . S
C4856 C4858 1.388 . S
C4857 C4856 1.366 . S
C4857 C4861 1.385 . S
C4858 H4839 0.951 . S
C4858 C4856 1.388 . S
C4858 C4859 1.366 . S
C4859 C4858 1.366 . S
C4859 C4860 1.414 . S
C4859 C4862 1.499 . S
C4860 H4840 0.950 . S
C4860 C4859 1.414 . S
C4860 C4861 1.374 . S
C4861 H4841 0.950 . S
C4861 C4857 1.385 . S
C4861 C4860 1.374 . S
C4862 C4859 1.499 . S
C4862 C4863 1.373 . S
C4862 C4864 1.389 . S
C4863 H4842 0.950 . S
C4863 C4862 1.373 . S
C4863 C4879 1.377 . S
C4864 C4862 1.389 . S
C4864 C4865 1.524 . S
C4864 C4878 1.377 . S
C4865 C4864 1.524 . S
C4865 C4866 1.397 . S
C4865 C4870 1.363 . S
C4866 H4843 0.950 . S
C4866 C4865 1.397 . S
C4866 C4867 1.334 . S
C4867 H4844 0.950 . S
C4867 C4866 1.334 . S
C4867 C4868 1.287 . S
C4868 C4867 1.287 . S
C4868 C4869 1.524 . S
C4868 H4887 0.913 . S
C4869 H4845 0.950 . S
C4869 C4868 1.524 . S
C4869 C4870 1.415 . S
C4870 H4846 0.950 . S
C4870 C4865 1.363 . S
C4870 C4869 1.415 . S
C4871 H4847 0.951 . S
C4871 C4872 1.366 . S
C4871 C4873 1.388 . S
C4872 C4871 1.366 . S
C4872 C4876 1.385 . S
C4873 H4848 0.951 . S
C4873 C4871 1.388 . S
C4873 C4874 1.366 . S
C4874 C4873 1.366 . S
C4874 C4875 1.414 . S
C4874 C4877 1.499 . S
C4875 H4849 0.950 . S
C4875 C4874 1.414 . S
C4875 C4876 1.374 . S
C4876 H4850 0.950 . S
C4876 C4872 1.385 . S
C4876 C4875 1.374 . S
C4877 C4874 1.499 . S
C4877 C4878 1.373 . S
C4877 C4879 1.389 . S
C4878 H4851 0.950 . S
C4878 C4864 1.377 . S
C4878 C4877 1.373 . S
C4879 C4863 1.377 . S
C4879 C4877 1.389 . S
C4879 C4880 1.524 . S
C4880 C4879 1.524 . S
C4880 C4881 1.397 . S
C4880 C4885 1.363 . S
C4881 H4852 0.950 . S
C4881 C4880 1.397 . S
C4881 C4882 1.334 . S
C4882 H4853 0.950 . S
C4882 C4881 1.334 . S
C4882 C4883 1.287 . S
C4883 C4882 1.287 . S
C4883 C4884 1.524 . S
C4883 H4886 0.999 . S
C4884 H4854 0.950 . S
C4884 C4883 1.524 . S
C4884 C4885 1.415 . S
C4885 H4855 0.950 . S
C4885 C4880 1.363 . S
C4885 C4884 1.415 . S
H4886 C4883 0.999 . S
H4887 C4868 0.913 . S
H4888 C4906 0.951 . S
H4889 C4908 0.951 . S
H4890 C4910 0.950 . S
H4891 C4911 0.950 . S
H4892 C4913 0.950 . S
H4893 C4916 0.950 . S
H4894 C4917 0.950 . S
H4895 C4919 0.950 . S
H4896 C4920 0.950 . S
H4897 C4921 0.951 . S
H4898 C4923 0.951 . S
H4899 C4925 0.950 . S
H4900 C4926 0.950 . S
H4901 C4928 0.950 . S
H4902 C4931 0.950 . S
H4903 C4932 0.950 . S
H4904 C4934 0.950 . S
H4905 C4935 0.950 . S
C4906 H4888 0.951 . S
C4906 C4907 1.366 . S
C4906 C4908 1.388 . S
C4907 C4906 1.366 . S
C4907 C4911 1.385 . S
C4908 H4889 0.951 . S
C4908 C4906 1.388 . S
C4908 C4909 1.366 . S
C4909 C4908 1.366 . S
C4909 C4910 1.414 . S
C4909 C4912 1.499 . S
C4910 H4890 0.950 . S
C4910 C4909 1.414 . S
C4910 C4911 1.374 . S
C4911 H4891 0.950 . S
C4911 C4907 1.385 . S
C4911 C4910 1.374 . S
C4912 C4909 1.499 . S
C4912 C4913 1.373 . S
C4912 C4914 1.389 . S
C4913 H4892 0.950 . S
C4913 C4912 1.373 . S
C4913 C4929 1.377 . S
C4914 C4912 1.389 . S
C4914 C4915 1.524 . S
C4914 C4928 1.377 . S
C4915 C4914 1.524 . S
C4915 C4916 1.397 . S
C4915 C4920 1.363 . S
C4916 H4893 0.950 . S
C4916 C4915 1.397 . S
C4916 C4917 1.334 . S
C4917 H4894 0.950 . S
C4917 C4916 1.334 . S
C4917 C4918 1.287 . S
C4918 C4917 1.287 . S
C4918 C4919 1.524 . S
C4918 H4937 0.913 . S
C4919 H4895 0.950 . S
C4919 C4918 1.524 . S
C4919 C4920 1.415 . S
C4920 H4896 0.950 . S
C4920 C4915 1.363 . S
C4920 C4919 1.415 . S
C4921 H4897 0.951 . S
C4921 C4922 1.366 . S
C4921 C4923 1.388 . S
C4922 C4921 1.366 . S
C4922 C4926 1.385 . S
C4923 H4898 0.951 . S
C4923 C4921 1.388 . S
C4923 C4924 1.366 . S
C4924 C4923 1.366 . S
C4924 C4925 1.414 . S
C4924 C4927 1.499 . S
C4925 H4899 0.950 . S
C4925 C4924 1.414 . S
C4925 C4926 1.374 . S
C4926 H4900 0.950 . S
C4926 C4922 1.385 . S
C4926 C4925 1.374 . S
C4927 C4924 1.499 . S
C4927 C4928 1.373 . S
C4927 C4929 1.389 . S
C4928 H4901 0.950 . S
C4928 C4914 1.377 . S
C4928 C4927 1.373 . S
C4929 C4913 1.377 . S
C4929 C4927 1.389 . S
C4929 C4930 1.524 . S
C4930 C4929 1.524 . S
C4930 C4931 1.397 . S
C4930 C4935 1.363 . S
C4931 H4902 0.950 . S
C4931 C4930 1.397 . S
C4931 C4932 1.334 . S
C4932 H4903 0.950 . S
C4932 C4931 1.334 . S
C4932 C4933 1.287 . S
C4933 C4932 1.287 . S
C4933 C4934 1.524 . S
C4933 H4936 0.999 . S
C4934 H4904 0.950 . S
C4934 C4933 1.524 . S
C4934 C4935 1.415 . S
C4935 H4905 0.950 . S
C4935 C4930 1.363 . S
C4935 C4934 1.415 . S
H4936 C4933 0.999 . S
H4937 C4918 0.913 . S
H4938 C4956 0.951 . S
H4939 C4958 0.951 . S
H4940 C4960 0.950 . S
H4941 C4961 0.950 . S
H4942 C4963 0.950 . S
H4943 C4966 0.950 . S
H4944 C4967 0.950 . S
H4945 C4969 0.950 . S
H4946 C4970 0.950 . S
H4947 C4971 0.951 . S
H4948 C4973 0.951 . S
H4949 C4975 0.950 . S
H4950 C4976 0.950 . S
H4951 C4978 0.950 . S
H4952 C4981 0.950 . S
H4953 C4982 0.950 . S
H4954 C4984 0.950 . S
H4955 C4985 0.950 . S
C4956 H4938 0.951 . S
C4956 C4957 1.366 . S
C4956 C4958 1.388 . S
C4957 C4956 1.366 . S
C4957 C4961 1.385 . S
C4958 H4939 0.951 . S
C4958 C4956 1.388 . S
C4958 C4959 1.366 . S
C4959 C4958 1.366 . S
C4959 C4960 1.414 . S
C4959 C4962 1.499 . S
C4960 H4940 0.950 . S
C4960 C4959 1.414 . S
C4960 C4961 1.374 . S
C4961 H4941 0.950 . S
C4961 C4957 1.385 . S
C4961 C4960 1.374 . S
C4962 C4959 1.499 . S
C4962 C4963 1.373 . S
C4962 C4964 1.389 . S
C4963 H4942 0.950 . S
C4963 C4962 1.373 . S
C4963 C4979 1.377 . S
C4964 C4962 1.389 . S
C4964 C4965 1.524 . S
C4964 C4978 1.377 . S
C4965 C4964 1.524 . S
C4965 C4966 1.397 . S
C4965 C4970 1.363 . S
C4966 H4943 0.950 . S
C4966 C4965 1.397 . S
C4966 C4967 1.334 1_556 S
C4967 H4944 0.950 . S
C4967 C4966 1.334 1_554 S
C4967 C4968 1.287 . S
C4968 C4967 1.287 . S
C4968 C4969 1.524 . S
C4968 H4987 0.913 . S
C4969 H4945 0.950 . S
C4969 C4968 1.524 . S
C4969 C4970 1.415 1_554 S
C4970 H4946 0.950 . S
C4970 C4965 1.363 . S
C4970 C4969 1.415 1_556 S
C4971 H4947 0.951 . S
C4971 C4972 1.366 . S
C4971 C4973 1.388 . S
C4972 C4971 1.366 . S
C4972 C4976 1.385 . S
C4973 H4948 0.951 . S
C4973 C4971 1.388 . S
C4973 C4974 1.366 . S
C4974 C4973 1.366 . S
C4974 C4975 1.414 . S
C4974 C4977 1.499 . S
C4975 H4949 0.950 . S
C4975 C4974 1.414 . S
C4975 C4976 1.374 . S
C4976 H4950 0.950 . S
C4976 C4972 1.385 . S
C4976 C4975 1.374 . S
C4977 C4974 1.499 . S
C4977 C4978 1.373 . S
C4977 C4979 1.389 . S
C4978 H4951 0.950 . S
C4978 C4964 1.377 . S
C4978 C4977 1.373 . S
C4979 C4963 1.377 . S
C4979 C4977 1.389 . S
C4979 C4980 1.524 . S
C4980 C4979 1.524 . S
C4980 C4981 1.397 . S
C4980 C4985 1.363 . S
C4981 H4952 0.950 . S
C4981 C4980 1.397 . S
C4981 C4982 1.334 . S
C4982 H4953 0.950 . S
C4982 C4981 1.334 . S
C4982 C4983 1.287 . S
C4983 C4982 1.287 . S
C4983 C4984 1.524 . S
C4983 H4986 0.999 . S
C4984 H4954 0.950 . S
C4984 C4983 1.524 . S
C4984 C4985 1.415 . S
C4985 H4955 0.950 . S
C4985 C4980 1.363 . S
C4985 C4984 1.415 . S
H4986 C4983 0.999 . S
H4987 C4968 0.913 . S
H4988 C5006 0.951 . S
H4989 C5008 0.951 . S
H4990 C5010 0.950 . S
H4991 C5011 0.950 . S
H4992 C5013 0.950 . S
H4993 C5016 0.950 . S
H4994 C5017 0.950 . S
H4995 C5019 0.950 . S
H4996 C5020 0.950 . S
H4997 C5021 0.951 . S
H4998 C5023 0.951 . S
H4999 C5025 0.950 . S
H5000 C5026 0.950 . S
H5001 C5028 0.950 . S
H5002 C5031 0.950 . S
H5003 C5032 0.950 . S
H5004 C5034 0.950 . S
H5005 C5035 0.950 . S
C5006 H4988 0.951 . S
C5006 C5007 1.366 . S
C5006 C5008 1.388 . S
C5007 C5006 1.366 . S
C5007 C5011 1.385 . S
C5008 H4989 0.951 . S
C5008 C5006 1.388 . S
C5008 C5009 1.366 . S
C5009 C5008 1.366 . S
C5009 C5010 1.414 . S
C5009 C5012 1.499 . S
C5010 H4990 0.950 . S
C5010 C5009 1.414 . S
C5010 C5011 1.374 . S
C5011 H4991 0.950 . S
C5011 C5007 1.385 . S
C5011 C5010 1.374 . S
C5012 C5009 1.499 . S
C5012 C5013 1.373 . S
C5012 C5014 1.389 . S
C5013 H4992 0.950 . S
C5013 C5012 1.373 . S
C5013 C5029 1.377 . S
C5014 C5012 1.389 . S
C5014 C5015 1.524 . S
C5014 C5028 1.377 . S
C5015 C5014 1.524 . S
C5015 C5016 1.397 . S
C5015 C5020 1.363 . S
C5016 H4993 0.950 . S
C5016 C5015 1.397 . S
C5016 C5017 1.334 . S
C5017 H4994 0.950 . S
C5017 C5016 1.334 . S
C5017 C5018 1.287 . S
C5018 C5017 1.287 . S
C5018 C5019 1.524 . S
C5018 H5037 0.913 . S
C5019 H4995 0.950 . S
C5019 C5018 1.524 . S
C5019 C5020 1.415 . S
C5020 H4996 0.950 . S
C5020 C5015 1.363 . S
C5020 C5019 1.415 . S
C5021 H4997 0.951 . S
C5021 C5022 1.366 . S
C5021 C5023 1.388 . S
C5022 C5021 1.366 . S
C5022 C5026 1.385 . S
C5023 H4998 0.951 . S
C5023 C5021 1.388 . S
C5023 C5024 1.366 . S
C5024 C5023 1.366 . S
C5024 C5025 1.414 . S
C5024 C5027 1.499 . S
C5025 H4999 0.950 . S
C5025 C5024 1.414 . S
C5025 C5026 1.374 . S
C5026 H5000 0.950 . S
C5026 C5022 1.385 . S
C5026 C5025 1.374 . S
C5027 C5024 1.499 . S
C5027 C5028 1.373 . S
C5027 C5029 1.389 . S
C5028 H5001 0.950 . S
C5028 C5014 1.377 . S
C5028 C5027 1.373 . S
C5029 C5013 1.377 . S
C5029 C5027 1.389 . S
C5029 C5030 1.524 . S
C5030 C5029 1.524 . S
C5030 C5031 1.397 . S
C5030 C5035 1.363 . S
C5031 H5002 0.950 . S
C5031 C5030 1.397 . S
C5031 C5032 1.334 . S
C5032 H5003 0.950 . S
C5032 C5031 1.334 . S
C5032 C5033 1.287 . S
C5033 C5032 1.287 . S
C5033 C5034 1.524 . S
C5033 H5036 0.999 . S
C5034 H5004 0.950 . S
C5034 C5033 1.524 . S
C5034 C5035 1.415 . S
C5035 H5005 0.950 . S
C5035 C5030 1.363 . S
C5035 C5034 1.415 . S
H5036 C5033 0.999 . S
H5037 C5018 0.913 . S
H5038 C5056 0.951 . S
H5039 C5058 0.951 . S
H5040 C5060 0.950 . S
H5041 C5061 0.950 . S
H5042 C5063 0.950 . S
H5043 C5066 0.950 . S
H5044 C5067 0.950 . S
H5045 C5069 0.950 . S
H5046 C5070 0.950 . S
H5047 C5071 0.951 . S
H5048 C5073 0.951 . S
H5049 C5075 0.950 . S
H5050 C5076 0.950 . S
H5051 C5078 0.950 . S
H5052 C5081 0.950 . S
H5053 C5082 0.950 . S
H5054 C5084 0.950 . S
H5055 C5085 0.950 . S
C5056 H5038 0.951 . S
C5056 C5057 1.366 . S
C5056 C5058 1.388 . S
C5057 C5056 1.366 . S
C5057 C5061 1.385 . S
C5058 H5039 0.951 . S
C5058 C5056 1.388 . S
C5058 C5059 1.366 . S
C5059 C5058 1.366 . S
C5059 C5060 1.414 . S
C5059 C5062 1.499 . S
C5060 H5040 0.950 . S
C5060 C5059 1.414 . S
C5060 C5061 1.374 . S
C5061 H5041 0.950 . S
C5061 C5057 1.385 . S
C5061 C5060 1.374 . S
C5062 C5059 1.499 . S
C5062 C5063 1.373 . S
C5062 C5064 1.389 . S
C5063 H5042 0.950 . S
C5063 C5062 1.373 . S
C5063 C5079 1.377 . S
C5064 C5062 1.389 . S
C5064 C5065 1.524 . S
C5064 C5078 1.377 . S
C5065 C5064 1.524 . S
C5065 C5066 1.397 . S
C5065 C5070 1.363 . S
C5066 H5043 0.950 . S
C5066 C5065 1.397 . S
C5066 C5067 1.334 . S
C5067 H5044 0.950 . S
C5067 C5066 1.334 . S
C5067 C5068 1.287 . S
C5068 C5067 1.287 . S
C5068 C5069 1.524 . S
C5068 H5087 0.913 . S
C5069 H5045 0.950 . S
C5069 C5068 1.524 . S
C5069 C5070 1.415 . S
C5070 H5046 0.950 . S
C5070 C5065 1.363 . S
C5070 C5069 1.415 . S
C5071 H5047 0.951 . S
C5071 C5072 1.366 . S
C5071 C5073 1.388 . S
C5072 C5071 1.366 . S
C5072 C5076 1.385 . S
C5073 H5048 0.951 . S
C5073 C5071 1.388 . S
C5073 C5074 1.366 . S
C5074 C5073 1.366 . S
C5074 C5075 1.414 . S
C5074 C5077 1.499 . S
C5075 H5049 0.950 . S
C5075 C5074 1.414 . S
C5075 C5076 1.374 . S
C5076 H5050 0.950 . S
C5076 C5072 1.385 . S
C5076 C5075 1.374 . S
C5077 C5074 1.499 . S
C5077 C5078 1.373 . S
C5077 C5079 1.389 . S
C5078 H5051 0.950 . S
C5078 C5064 1.377 . S
C5078 C5077 1.373 . S
C5079 C5063 1.377 . S
C5079 C5077 1.389 . S
C5079 C5080 1.524 . S
C5080 C5079 1.524 . S
C5080 C5081 1.397 . S
C5080 C5085 1.363 . S
C5081 H5052 0.950 . S
C5081 C5080 1.397 . S
C5081 C5082 1.334 . S
C5082 H5053 0.950 . S
C5082 C5081 1.334 . S
C5082 C5083 1.287 . S
C5083 C5082 1.287 . S
C5083 C5084 1.524 . S
C5083 H5086 0.999 . S
C5084 H5054 0.950 . S
C5084 C5083 1.524 . S
C5084 C5085 1.415 . S
C5085 H5055 0.950 . S
C5085 C5080 1.363 . S
C5085 C5084 1.415 . S
H5086 C5083 0.999 . S
H5087 C5068 0.913 . S
H5088 C5106 0.951 . S
H5089 C5108 0.951 . S
H5090 C5110 0.950 . S
H5091 C5111 0.950 . S
H5092 C5113 0.950 . S
H5093 C5116 0.950 . S
H5094 C5117 0.950 . S
H5095 C5119 0.950 . S
H5096 C5120 0.950 . S
H5097 C5121 0.951 . S
H5098 C5123 0.951 . S
H5099 C5125 0.950 . S
H5100 C5126 0.950 . S
H5101 C5128 0.950 . S
H5102 C5131 0.950 . S
H5103 C5132 0.950 . S
H5104 C5134 0.950 . S
H5105 C5135 0.950 . S
C5106 H5088 0.951 . S
C5106 C5107 1.366 . S
C5106 C5108 1.388 . S
C5107 C5106 1.366 . S
C5107 C5111 1.385 . S
C5108 H5089 0.951 . S
C5108 C5106 1.388 . S
C5108 C5109 1.366 . S
C5109 C5108 1.366 . S
C5109 C5110 1.414 . S
C5109 C5112 1.499 . S
C5110 H5090 0.950 . S
C5110 C5109 1.414 . S
C5110 C5111 1.374 . S
C5111 H5091 0.950 . S
C5111 C5107 1.385 . S
C5111 C5110 1.374 . S
C5112 C5109 1.499 . S
C5112 C5113 1.373 . S
C5112 C5114 1.389 . S
C5113 H5092 0.950 . S
C5113 C5112 1.373 . S
C5113 C5129 1.377 . S
C5114 C5112 1.389 . S
C5114 C5115 1.524 . S
C5114 C5128 1.377 . S
C5115 C5114 1.524 . S
C5115 C5116 1.397 . S
C5115 C5120 1.363 . S
C5116 H5093 0.950 . S
C5116 C5115 1.397 . S
C5116 C5117 1.334 . S
C5117 H5094 0.950 . S
C5117 C5116 1.334 . S
C5117 C5118 1.287 . S
C5118 C5117 1.287 . S
C5118 C5119 1.524 . S
C5118 H5137 0.913 . S
C5119 H5095 0.950 . S
C5119 C5118 1.524 . S
C5119 C5120 1.415 . S
C5120 H5096 0.950 . S
C5120 C5115 1.363 . S
C5120 C5119 1.415 . S
C5121 H5097 0.951 . S
C5121 C5122 1.366 . S
C5121 C5123 1.388 . S
C5122 C5121 1.366 . S
C5122 C5126 1.385 . S
C5123 H5098 0.951 . S
C5123 C5121 1.388 . S
C5123 C5124 1.366 . S
C5124 C5123 1.366 . S
C5124 C5125 1.414 . S
C5124 C5127 1.499 . S
C5125 H5099 0.950 . S
C5125 C5124 1.414 . S
C5125 C5126 1.374 . S
C5126 H5100 0.950 . S
C5126 C5122 1.385 . S
C5126 C5125 1.374 . S
C5127 C5124 1.499 . S
C5127 C5128 1.373 . S
C5127 C5129 1.389 . S
C5128 H5101 0.950 . S
C5128 C5114 1.377 . S
C5128 C5127 1.373 . S
C5129 C5113 1.377 . S
C5129 C5127 1.389 . S
C5129 C5130 1.524 . S
C5130 C5129 1.524 . S
C5130 C5131 1.397 . S
C5130 C5135 1.363 . S
C5131 H5102 0.950 . S
C5131 C5130 1.397 . S
C5131 C5132 1.334 . S
C5132 H5103 0.950 . S
C5132 C5131 1.334 . S
C5132 C5133 1.287 . S
C5133 C5132 1.287 . S
C5133 C5134 1.524 . S
C5133 H5136 0.999 . S
C5134 H5104 0.950 . S
C5134 C5133 1.524 . S
C5134 C5135 1.415 . S
C5135 H5105 0.950 . S
C5135 C5130 1.363 . S
C5135 C5134 1.415 . S
H5136 C5133 0.999 . S
H5137 C5118 0.913 . S
H5138 C5156 0.951 . S
H5139 C5158 0.951 . S
H5140 C5160 0.950 . S
H5141 C5161 0.950 . S
H5142 C5163 0.950 . S
H5143 C5166 0.950 . S
H5144 C5167 0.950 . S
H5145 C5169 0.950 . S
H5146 C5170 0.950 . S
H5147 C5171 0.951 . S
H5148 C5173 0.951 . S
H5149 C5175 0.950 . S
H5150 C5176 0.950 . S
H5151 C5178 0.950 . S
H5152 C5181 0.950 . S
H5153 C5182 0.950 . S
H5154 C5184 0.950 . S
H5155 C5185 0.950 . S
C5156 H5138 0.951 . S
C5156 C5157 1.366 . S
C5156 C5158 1.388 . S
C5157 C5156 1.366 . S
C5157 C5161 1.385 . S
C5158 H5139 0.951 . S
C5158 C5156 1.388 . S
C5158 C5159 1.366 . S
C5159 C5158 1.366 . S
C5159 C5160 1.414 . S
C5159 C5162 1.499 . S
C5160 H5140 0.950 . S
C5160 C5159 1.414 . S
C5160 C5161 1.374 . S
C5161 H5141 0.950 . S
C5161 C5157 1.385 . S
C5161 C5160 1.374 . S
C5162 C5159 1.499 . S
C5162 C5163 1.373 . S
C5162 C5164 1.389 . S
C5163 H5142 0.950 . S
C5163 C5162 1.373 . S
C5163 C5179 1.377 . S
C5164 C5162 1.389 . S
C5164 C5165 1.524 . S
C5164 C5178 1.377 . S
C5165 C5164 1.524 . S
C5165 C5166 1.397 . S
C5165 C5170 1.363 . S
C5166 H5143 0.950 . S
C5166 C5165 1.397 . S
C5166 C5167 1.334 . S
C5167 H5144 0.950 . S
C5167 C5166 1.334 . S
C5167 C5168 1.287 . S
C5168 C5167 1.287 . S
C5168 C5169 1.524 . S
C5168 H5187 0.913 . S
C5169 H5145 0.950 . S
C5169 C5168 1.524 . S
C5169 C5170 1.415 . S
C5170 H5146 0.950 . S
C5170 C5165 1.363 . S
C5170 C5169 1.415 . S
C5171 H5147 0.951 . S
C5171 C5172 1.366 . S
C5171 C5173 1.388 . S
C5172 C5171 1.366 . S
C5172 C5176 1.385 . S
C5173 H5148 0.951 . S
C5173 C5171 1.388 . S
C5173 C5174 1.366 . S
C5174 C5173 1.366 . S
C5174 C5175 1.414 . S
C5174 C5177 1.499 . S
C5175 H5149 0.950 . S
C5175 C5174 1.414 . S
C5175 C5176 1.374 . S
C5176 H5150 0.950 . S
C5176 C5172 1.385 . S
C5176 C5175 1.374 . S
C5177 C5174 1.499 . S
C5177 C5178 1.373 . S
C5177 C5179 1.389 . S
C5178 H5151 0.950 . S
C5178 C5164 1.377 . S
C5178 C5177 1.373 . S
C5179 C5163 1.377 . S
C5179 C5177 1.389 . S
C5179 C5180 1.524 . S
C5180 C5179 1.524 . S
C5180 C5181 1.397 . S
C5180 C5185 1.363 . S
C5181 H5152 0.950 . S
C5181 C5180 1.397 . S
C5181 C5182 1.334 . S
C5182 H5153 0.950 . S
C5182 C5181 1.334 . S
C5182 C5183 1.287 . S
C5183 C5182 1.287 . S
C5183 C5184 1.524 . S
C5183 H5186 0.999 . S
C5184 H5154 0.950 . S
C5184 C5183 1.524 . S
C5184 C5185 1.415 . S
C5185 H5155 0.950 . S
C5185 C5180 1.363 . S
C5185 C5184 1.415 . S
H5186 C5183 0.999 . S
H5187 C5168 0.913 . S
H5188 C5206 0.951 . S
H5189 C5208 0.951 . S
H5190 C5210 0.950 . S
H5191 C5211 0.950 . S
H5192 C5213 0.950 . S
H5193 C5216 0.950 . S
H5194 C5217 0.950 . S
H5195 C5219 0.950 . S
H5196 C5220 0.950 . S
H5197 C5221 0.951 . S
H5198 C5223 0.951 . S
H5199 C5225 0.950 . S
H5200 C5226 0.950 . S
H5201 C5228 0.950 . S
H5202 C5231 0.950 . S
H5203 C5232 0.950 . S
H5204 C5234 0.950 . S
H5205 C5235 0.950 . S
C5206 H5188 0.951 . S
C5206 C5207 1.366 . S
C5206 C5208 1.388 . S
C5207 C5206 1.366 . S
C5207 C5211 1.385 . S
C5208 H5189 0.951 . S
C5208 C5206 1.388 . S
C5208 C5209 1.366 . S
C5209 C5208 1.366 . S
C5209 C5210 1.414 . S
C5209 C5212 1.499 . S
C5210 H5190 0.950 . S
C5210 C5209 1.414 . S
C5210 C5211 1.374 . S
C5211 H5191 0.950 . S
C5211 C5207 1.385 . S
C5211 C5210 1.374 . S
C5212 C5209 1.499 . S
C5212 C5213 1.373 . S
C5212 C5214 1.389 . S
C5213 H5192 0.950 . S
C5213 C5212 1.373 . S
C5213 C5229 1.377 . S
C5214 C5212 1.389 . S
C5214 C5215 1.524 . S
C5214 C5228 1.377 . S
C5215 C5214 1.524 . S
C5215 C5216 1.397 . S
C5215 C5220 1.363 . S
C5216 H5193 0.950 . S
C5216 C5215 1.397 . S
C5216 C5217 1.334 1_545 S
C5217 H5194 0.950 . S
C5217 C5216 1.334 1_565 S
C5217 C5218 1.287 . S
C5218 C5217 1.287 . S
C5218 C5219 1.524 . S
C5218 H5237 0.913 . S
C5219 H5195 0.950 . S
C5219 C5218 1.524 . S
C5219 C5220 1.415 1_565 S
C5220 H5196 0.950 . S
C5220 C5215 1.363 . S
C5220 C5219 1.415 1_545 S
C5221 H5197 0.951 . S
C5221 C5222 1.366 . S
C5221 C5223 1.388 . S
C5222 C5221 1.366 . S
C5222 C5226 1.385 . S
C5223 H5198 0.951 . S
C5223 C5221 1.388 . S
C5223 C5224 1.366 . S
C5224 C5223 1.366 . S
C5224 C5225 1.414 . S
C5224 C5227 1.499 . S
C5225 H5199 0.950 . S
C5225 C5224 1.414 . S
C5225 C5226 1.374 . S
C5226 H5200 0.950 . S
C5226 C5222 1.385 . S
C5226 C5225 1.374 . S
C5227 C5224 1.499 . S
C5227 C5228 1.373 . S
C5227 C5229 1.389 . S
C5228 H5201 0.950 . S
C5228 C5214 1.377 . S
C5228 C5227 1.373 . S
C5229 C5213 1.377 . S
C5229 C5227 1.389 . S
C5229 C5230 1.524 . S
C5230 C5229 1.524 . S
C5230 C5231 1.397 . S
C5230 C5235 1.363 . S
C5231 H5202 0.950 . S
C5231 C5230 1.397 . S
C5231 C5232 1.334 . S
C5232 H5203 0.950 . S
C5232 C5231 1.334 . S
C5232 C5233 1.287 . S
C5233 C5232 1.287 . S
C5233 C5234 1.524 . S
C5233 H5236 0.999 . S
C5234 H5204 0.950 . S
C5234 C5233 1.524 . S
C5234 C5235 1.415 . S
C5235 H5205 0.950 . S
C5235 C5230 1.363 . S
C5235 C5234 1.415 . S
H5236 C5233 0.999 . S
H5237 C5218 0.913 . S
H5238 C5256 0.951 . S
H5239 C5258 0.951 . S
H5240 C5260 0.950 . S
H5241 C5261 0.950 . S
H5242 C5263 0.950 . S
H5243 C5266 0.950 . S
H5244 C5267 0.950 . S
H5245 C5269 0.950 . S
H5246 C5270 0.950 . S
H5247 C5271 0.951 . S
H5248 C5273 0.951 . S
H5249 C5275 0.950 . S
H5250 C5276 0.950 . S
H5251 C5278 0.950 . S
H5252 C5281 0.950 . S
H5253 C5282 0.950 . S
H5254 C5284 0.950 . S
H5255 C5285 0.950 . S
C5256 H5238 0.951 . S
C5256 C5257 1.366 . S
C5256 C5258 1.388 . S
C5257 C5256 1.366 . S
C5257 C5261 1.385 . S
C5258 H5239 0.951 . S
C5258 C5256 1.388 . S
C5258 C5259 1.366 . S
C5259 C5258 1.366 . S
C5259 C5260 1.414 . S
C5259 C5262 1.499 . S
C5260 H5240 0.950 . S
C5260 C5259 1.414 . S
C5260 C5261 1.374 . S
C5261 H5241 0.950 . S
C5261 C5257 1.385 . S
C5261 C5260 1.374 . S
C5262 C5259 1.499 . S
C5262 C5263 1.373 . S
C5262 C5264 1.389 . S
C5263 H5242 0.950 . S
C5263 C5262 1.373 . S
C5263 C5279 1.377 . S
C5264 C5262 1.389 . S
C5264 C5265 1.524 . S
C5264 C5278 1.377 . S
C5265 C5264 1.524 . S
C5265 C5266 1.397 . S
C5265 C5270 1.363 . S
C5266 H5243 0.950 . S
C5266 C5265 1.397 . S
C5266 C5267 1.334 . S
C5267 H5244 0.950 . S
C5267 C5266 1.334 . S
C5267 C5268 1.287 . S
C5268 C5267 1.287 . S
C5268 C5269 1.524 . S
C5268 H5287 0.913 . S
C5269 H5245 0.950 . S
C5269 C5268 1.524 . S
C5269 C5270 1.415 . S
C5270 H5246 0.950 . S
C5270 C5265 1.363 . S
C5270 C5269 1.415 . S
C5271 H5247 0.951 . S
C5271 C5272 1.366 . S
C5271 C5273 1.388 . S
C5272 C5271 1.366 . S
C5272 C5276 1.385 . S
C5273 H5248 0.951 . S
C5273 C5271 1.388 . S
C5273 C5274 1.366 . S
C5274 C5273 1.366 . S
C5274 C5275 1.414 . S
C5274 C5277 1.499 . S
C5275 H5249 0.950 . S
C5275 C5274 1.414 . S
C5275 C5276 1.374 . S
C5276 H5250 0.950 . S
C5276 C5272 1.385 . S
C5276 C5275 1.374 . S
C5277 C5274 1.499 . S
C5277 C5278 1.373 . S
C5277 C5279 1.389 . S
C5278 H5251 0.950 . S
C5278 C5264 1.377 . S
C5278 C5277 1.373 . S
C5279 C5263 1.377 . S
C5279 C5277 1.389 . S
C5279 C5280 1.524 . S
C5280 C5279 1.524 . S
C5280 C5281 1.397 . S
C5280 C5285 1.363 . S
C5281 H5252 0.950 . S
C5281 C5280 1.397 . S
C5281 C5282 1.334 . S
C5282 H5253 0.950 . S
C5282 C5281 1.334 . S
C5282 C5283 1.287 . S
C5283 C5282 1.287 . S
C5283 C5284 1.524 . S
C5283 H5286 0.999 . S
C5284 H5254 0.950 . S
C5284 C5283 1.524 . S
C5284 C5285 1.415 . S
C5285 H5255 0.950 . S
C5285 C5280 1.363 . S
C5285 C5284 1.415 . S
H5286 C5283 0.999 . S
H5287 C5268 0.913 . S
H5288 C5306 0.951 . S
H5289 C5308 0.951 . S
H5290 C5310 0.950 . S
H5291 C5311 0.950 . S
H5292 C5313 0.950 . S
H5293 C5316 0.950 . S
H5294 C5317 0.950 . S
H5295 C5319 0.950 . S
H5296 C5320 0.950 . S
H5297 C5321 0.951 . S
H5298 C5323 0.951 . S
H5299 C5325 0.950 . S
H5300 C5326 0.950 . S
H5301 C5328 0.950 . S
H5302 C5331 0.950 . S
H5303 C5332 0.950 . S
H5304 C5334 0.950 . S
H5305 C5335 0.950 . S
C5306 H5288 0.951 . S
C5306 C5307 1.366 . S
C5306 C5308 1.388 . S
C5307 C5306 1.366 . S
C5307 C5311 1.385 . S
C5308 H5289 0.951 . S
C5308 C5306 1.388 . S
C5308 C5309 1.366 . S
C5309 C5308 1.366 . S
C5309 C5310 1.414 . S
C5309 C5312 1.499 . S
C5310 H5290 0.950 . S
C5310 C5309 1.414 . S
C5310 C5311 1.374 . S
C5311 H5291 0.950 . S
C5311 C5307 1.385 . S
C5311 C5310 1.374 . S
C5312 C5309 1.499 . S
C5312 C5313 1.373 . S
C5312 C5314 1.389 . S
C5313 H5292 0.950 . S
C5313 C5312 1.373 . S
C5313 C5329 1.377 . S
C5314 C5312 1.389 . S
C5314 C5315 1.524 . S
C5314 C5328 1.377 . S
C5315 C5314 1.524 . S
C5315 C5316 1.397 . S
C5315 C5320 1.363 . S
C5316 H5293 0.950 . S
C5316 C5315 1.397 . S
C5316 C5317 1.334 . S
C5317 H5294 0.950 . S
C5317 C5316 1.334 . S
C5317 C5318 1.287 . S
C5318 C5317 1.287 . S
C5318 C5319 1.524 . S
C5318 H5337 0.913 . S
C5319 H5295 0.950 . S
C5319 C5318 1.524 . S
C5319 C5320 1.415 . S
C5320 H5296 0.950 . S
C5320 C5315 1.363 . S
C5320 C5319 1.415 . S
C5321 H5297 0.951 . S
C5321 C5322 1.366 . S
C5321 C5323 1.388 . S
C5322 C5321 1.366 . S
C5322 C5326 1.385 . S
C5323 H5298 0.951 . S
C5323 C5321 1.388 . S
C5323 C5324 1.366 . S
C5324 C5323 1.366 . S
C5324 C5325 1.414 . S
C5324 C5327 1.499 . S
C5325 H5299 0.950 . S
C5325 C5324 1.414 . S
C5325 C5326 1.374 . S
C5326 H5300 0.950 . S
C5326 C5322 1.385 . S
C5326 C5325 1.374 . S
C5327 C5324 1.499 . S
C5327 C5328 1.373 . S
C5327 C5329 1.389 . S
C5328 H5301 0.950 . S
C5328 C5314 1.377 . S
C5328 C5327 1.373 . S
C5329 C5313 1.377 . S
C5329 C5327 1.389 . S
C5329 C5330 1.524 . S
C5330 C5329 1.524 . S
C5330 C5331 1.397 . S
C5330 C5335 1.363 . S
C5331 H5302 0.950 . S
C5331 C5330 1.397 . S
C5331 C5332 1.334 . S
C5332 H5303 0.950 . S
C5332 C5331 1.334 . S
C5332 C5333 1.287 . S
C5333 C5332 1.287 . S
C5333 C5334 1.524 . S
C5333 H5336 0.999 . S
C5334 H5304 0.950 . S
C5334 C5333 1.524 . S
C5334 C5335 1.415 . S
C5335 H5305 0.950 . S
C5335 C5330 1.363 . S
C5335 C5334 1.415 . S
H5336 C5333 0.999 . S
H5337 C5318 0.913 . S
H5338 C5356 0.951 . S
H5339 C5358 0.951 . S
H5340 C5360 0.950 . S
H5341 C5361 0.950 . S
H5342 C5363 0.950 . S
H5343 C5366 0.950 . S
H5344 C5367 0.950 . S
H5345 C5369 0.950 . S
H5346 C5370 0.950 . S
H5347 C5371 0.951 . S
H5348 C5373 0.951 . S
H5349 C5375 0.950 . S
H5350 C5376 0.950 . S
H5351 C5378 0.950 . S
H5352 C5381 0.950 . S
H5353 C5382 0.950 . S
H5354 C5384 0.950 . S
H5355 C5385 0.950 . S
C5356 H5338 0.951 . S
C5356 C5357 1.366 . S
C5356 C5358 1.388 . S
C5357 C5356 1.366 . S
C5357 C5361 1.385 . S
C5358 H5339 0.951 . S
C5358 C5356 1.388 . S
C5358 C5359 1.366 . S
C5359 C5358 1.366 . S
C5359 C5360 1.414 . S
C5359 C5362 1.499 . S
C5360 H5340 0.950 . S
C5360 C5359 1.414 . S
C5360 C5361 1.374 . S
C5361 H5341 0.950 . S
C5361 C5357 1.385 . S
C5361 C5360 1.374 . S
C5362 C5359 1.499 . S
C5362 C5363 1.373 . S
C5362 C5364 1.389 . S
C5363 H5342 0.950 . S
C5363 C5362 1.373 . S
C5363 C5379 1.377 . S
C5364 C5362 1.389 . S
C5364 C5365 1.524 . S
C5364 C5378 1.377 . S
C5365 C5364 1.524 . S
C5365 C5366 1.397 . S
C5365 C5370 1.363 . S
C5366 H5343 0.950 . S
C5366 C5365 1.397 . S
C5366 C5367 1.334 . S
C5367 H5344 0.950 . S
C5367 C5366 1.334 . S
C5367 C5368 1.287 . S
C5368 C5367 1.287 . S
C5368 C5369 1.524 . S
C5368 H5387 0.913 . S
C5369 H5345 0.950 . S
C5369 C5368 1.524 . S
C5369 C5370 1.415 . S
C5370 H5346 0.950 . S
C5370 C5365 1.363 . S
C5370 C5369 1.415 . S
C5371 H5347 0.951 . S
C5371 C5372 1.366 . S
C5371 C5373 1.388 . S
C5372 C5371 1.366 . S
C5372 C5376 1.385 . S
C5373 H5348 0.951 . S
C5373 C5371 1.388 . S
C5373 C5374 1.366 . S
C5374 C5373 1.366 . S
C5374 C5375 1.414 . S
C5374 C5377 1.499 . S
C5375 H5349 0.950 . S
C5375 C5374 1.414 . S
C5375 C5376 1.374 . S
C5376 H5350 0.950 . S
C5376 C5372 1.385 . S
C5376 C5375 1.374 . S
C5377 C5374 1.499 . S
C5377 C5378 1.373 . S
C5377 C5379 1.389 . S
C5378 H5351 0.950 . S
C5378 C5364 1.377 . S
C5378 C5377 1.373 . S
C5379 C5363 1.377 . S
C5379 C5377 1.389 . S
C5379 C5380 1.524 . S
C5380 C5379 1.524 . S
C5380 C5381 1.397 . S
C5380 C5385 1.363 . S
C5381 H5352 0.950 . S
C5381 C5380 1.397 . S
C5381 C5382 1.334 . S
C5382 H5353 0.950 . S
C5382 C5381 1.334 . S
C5382 C5383 1.287 . S
C5383 C5382 1.287 . S
C5383 C5384 1.524 . S
C5383 H5386 0.999 . S
C5384 H5354 0.950 . S
C5384 C5383 1.524 . S
C5384 C5385 1.415 . S
C5385 H5355 0.950 . S
C5385 C5380 1.363 . S
C5385 C5384 1.415 . S
H5386 C5383 0.999 . S
H5387 C5368 0.913 . S
H5388 C5406 0.951 . S
H5389 C5408 0.951 . S
H5390 C5410 0.950 . S
H5391 C5411 0.950 . S
H5392 C5413 0.950 . S
H5393 C5416 0.950 . S
H5394 C5417 0.950 . S
H5395 C5419 0.950 . S
H5396 C5420 0.950 . S
H5397 C5421 0.951 . S
H5398 C5423 0.951 . S
H5399 C5425 0.950 . S
H5400 C5426 0.950 . S
H5401 C5428 0.950 . S
H5402 C5431 0.950 . S
H5403 C5432 0.950 . S
H5404 C5434 0.950 . S
H5405 C5435 0.950 . S
C5406 H5388 0.951 . S
C5406 C5407 1.366 . S
C5406 C5408 1.388 . S
C5407 C5406 1.366 . S
C5407 C5411 1.385 . S
C5408 H5389 0.951 . S
C5408 C5406 1.388 . S
C5408 C5409 1.366 . S
C5409 C5408 1.366 . S
C5409 C5410 1.414 . S
C5409 C5412 1.499 . S
C5410 H5390 0.950 . S
C5410 C5409 1.414 . S
C5410 C5411 1.374 . S
C5411 H5391 0.950 . S
C5411 C5407 1.385 . S
C5411 C5410 1.374 . S
C5412 C5409 1.499 . S
C5412 C5413 1.373 . S
C5412 C5414 1.389 . S
C5413 H5392 0.950 . S
C5413 C5412 1.373 . S
C5413 C5429 1.377 . S
C5414 C5412 1.389 . S
C5414 C5415 1.524 . S
C5414 C5428 1.377 . S
C5415 C5414 1.524 . S
C5415 C5416 1.397 . S
C5415 C5420 1.363 . S
C5416 H5393 0.950 . S
C5416 C5415 1.397 . S
C5416 C5417 1.334 . S
C5417 H5394 0.950 . S
C5417 C5416 1.334 . S
C5417 C5418 1.287 . S
C5418 C5417 1.287 . S
C5418 C5419 1.524 . S
C5418 H5437 0.913 . S
C5419 H5395 0.950 . S
C5419 C5418 1.524 . S
C5419 C5420 1.415 . S
C5420 H5396 0.950 . S
C5420 C5415 1.363 . S
C5420 C5419 1.415 . S
C5421 H5397 0.951 . S
C5421 C5422 1.366 . S
C5421 C5423 1.388 . S
C5422 C5421 1.366 . S
C5422 C5426 1.385 . S
C5423 H5398 0.951 . S
C5423 C5421 1.388 . S
C5423 C5424 1.366 . S
C5424 C5423 1.366 . S
C5424 C5425 1.414 . S
C5424 C5427 1.499 . S
C5425 H5399 0.950 . S
C5425 C5424 1.414 . S
C5425 C5426 1.374 . S
C5426 H5400 0.950 . S
C5426 C5422 1.385 . S
C5426 C5425 1.374 . S
C5427 C5424 1.499 . S
C5427 C5428 1.373 . S
C5427 C5429 1.389 . S
C5428 H5401 0.950 . S
C5428 C5414 1.377 . S
C5428 C5427 1.373 . S
C5429 C5413 1.377 . S
C5429 C5427 1.389 . S
C5429 C5430 1.524 . S
C5430 C5429 1.524 . S
C5430 C5431 1.397 . S
C5430 C5435 1.363 . S
C5431 H5402 0.950 . S
C5431 C5430 1.397 . S
C5431 C5432 1.334 . S
C5432 H5403 0.950 . S
C5432 C5431 1.334 . S
C5432 C5433 1.287 . S
C5433 C5432 1.287 . S
C5433 C5434 1.524 . S
C5433 H5436 0.999 . S
C5434 H5404 0.950 . S
C5434 C5433 1.524 . S
C5434 C5435 1.415 . S
C5435 H5405 0.950 . S
C5435 C5430 1.363 . S
C5435 C5434 1.415 . S
H5436 C5433 0.999 . S
H5437 C5418 0.913 . S
H5438 C5456 0.951 . S
H5439 C5458 0.951 . S
H5440 C5460 0.950 . S
H5441 C5461 0.950 . S
H5442 C5463 0.950 . S
H5443 C5466 0.950 . S
H5444 C5467 0.944 1_565 S
H5445 C5469 0.952 1_655 S
H5446 C5470 0.950 1_655 S
H5447 C5471 0.951 . S
H5448 C5473 0.951 . S
H5449 C5475 0.950 . S
H5450 C5476 0.950 . S
H5451 C5478 0.950 . S
H5452 C5481 0.950 . S
H5453 C5482 0.950 . S
H5454 C5484 0.950 . S
H5455 C5485 0.950 . S
C5456 H5438 0.951 . S
C5456 C5457 1.366 . S
C5456 C5458 1.388 . S
C5457 C5456 1.366 . S
C5457 C5461 1.385 . S
C5458 H5439 0.951 . S
C5458 C5456 1.388 . S
C5458 C5459 1.366 . S
C5459 C5458 1.366 . S
C5459 C5460 1.414 . S
C5459 C5462 1.499 . S
C5460 H5440 0.950 . S
C5460 C5459 1.414 . S
C5460 C5461 1.374 . S
C5461 H5441 0.950 . S
C5461 C5457 1.385 . S
C5461 C5460 1.374 . S
C5462 C5459 1.499 . S
C5462 C5463 1.373 . S
C5462 C5464 1.389 . S
C5463 H5442 0.950 . S
C5463 C5462 1.373 . S
C5463 C5479 1.377 . S
C5464 C5462 1.389 . S
C5464 C5465 1.524 . S
C5464 C5478 1.377 1_455 S
C5465 C5464 1.524 . S
C5465 C5466 1.397 . S
C5465 C5470 1.363 . S
C5466 H5443 0.950 . S
C5466 C5465 1.397 . S
C5466 C5467 1.379 . S
C5467 H5444 0.944 1_545 S
C5467 C5466 1.379 . S
C5467 C5468 1.250 1_545 S
C5468 C5467 1.250 1_565 S
C5468 C5469 1.524 . S
C5468 H5487 0.913 . S
C5469 H5445 0.952 1_455 S
C5469 C5468 1.524 . S
C5469 C5470 1.415 1_565 S
C5470 H5446 0.950 1_455 S
C5470 C5465 1.363 . S
C5470 C5469 1.415 1_545 S
C5471 H5447 0.951 . S
C5471 C5472 1.366 . S
C5471 C5473 1.388 . S
C5472 C5471 1.366 . S
C5472 C5476 1.385 . S
C5473 H5448 0.951 . S
C5473 C5471 1.388 . S
C5473 C5474 1.366 . S
C5474 C5473 1.366 . S
C5474 C5475 1.414 . S
C5474 C5477 1.499 . S
C5475 H5449 0.950 . S
C5475 C5474 1.414 . S
C5475 C5476 1.374 . S
C5476 H5450 0.950 . S
C5476 C5472 1.385 . S
C5476 C5475 1.374 . S
C5477 C5474 1.499 . S
C5477 C5478 1.373 . S
C5477 C5479 1.389 1_655 S
C5478 H5451 0.950 . S
C5478 C5464 1.377 1_655 S
C5478 C5477 1.373 . S
C5479 C5463 1.377 . S
C5479 C5477 1.389 1_455 S
C5479 C5480 1.524 . S
C5480 C5479 1.524 . S
C5480 C5481 1.397 1_455 S
C5480 C5485 1.363 . S
C5481 H5452 0.950 . S
C5481 C5480 1.397 1_655 S
C5481 C5482 1.334 . S
C5482 H5453 0.950 . S
C5482 C5481 1.334 . S
C5482 C5483 1.287 . S
C5483 C5482 1.287 . S
C5483 C5484 1.524 1_655 S
C5483 H5486 0.999 . S
C5484 H5454 0.950 . S
C5484 C5483 1.524 1_455 S
C5484 C5485 1.415 . S
C5485 H5455 0.950 . S
C5485 C5480 1.363 . S
C5485 C5484 1.415 . S
H5486 C5483 0.999 . S
H5487 C5468 0.913 . S
C722 C354 0.895 . S
C707 C11 0.894 . S
C757 C14 1.038 . S
C772 C366 1.048 . S
C822 C401 1.111 . S
C807 C37 1.117 . S
C872 C410 1.017 . S
C857 C47 1.020 . S
C922 C365 1.042 . S
C907 C61 1.055 . S
C957 C79 1.080 . S
C972 C390 1.087 . S
C1022 C409 1.061 . S
C1007 C84 1.062 . S
C1057 C109 0.954 . S
C1072 C351 0.948 . S
C1107 C123 0.936 . S
C1122 C344 0.940 . S
C1172 C368 1.024 . S
C1157 C131 1.029 . S
C1222 C387 1.134 . S
C1207 C140 1.138 . S
C1272 C412 1.031 . S
C1257 C163 1.023 . S
C1322 C373 1.029 . S
C1307 C121 1.034 . S
C1372 C398 1.107 . S
C1357 C126 1.094 . S
C1407 C145 1.028 . S
C1422 C417 1.011 . S
C1472 C357 0.931 . S
C1457 C165 0.937 . S
C1507 C168 0.967 . S
C1522 C346 0.975 . S
C1557 C193 1.011 . S
C1572 C445 1.004 . S
C1622 C461 1.050 . S
C1607 C205 1.055 . S
C1672 C475 1.058 . S
C1657 C215 1.076 . S
C1707 C224 0.987 . S
C1722 C343 0.987 . S
C1757 C247 1.080 . S
C1772 C395 1.072 . S
C1822 C478 0.999 . S
C1807 C207 0.998 . S
C1872 C442 1.096 . S
C1857 C257 1.100 . S
C1922 C498 1.047 . S
C1907 C23 1.037 . S
C1972 C522 0.973 . S
C1957 C0 0.965 . S
C2007 C53 0.923 . S
C2022 C555 0.919 . S
C2057 C33 1.104 . S
C2072 C563 1.094 . S
C2107 C103 1.099 . S
C2122 C533 1.085 . S
C2157 C95 0.906 . S
C2172 C544 0.907 . S
C2222 C564 0.993 . S
C2207 C70 0.985 . S
C2257 C65 1.089 . S
C2272 C497 1.091 . S
C2307 C271 1.068 . S
C2322 C500 1.065 . S
C2372 C530 1.031 . S
C2357 C219 1.022 . S
C2422 C541 0.937 . S
C2407 C235 0.939 . S
C2472 C571 1.009 . S
C2457 C182 1.010 . S
C2522 C519 1.007 . S
C2507 C266 1.009 . S
C2572 C552 0.902 . S
C2557 C221 0.901 . S
C2622 C566 1.034 . S
C2607 C233 1.027 . S
C2657 C187 1.131 . S
C2672 C505 1.114 . S
C2722 C508 0.981 . S
C2707 C289 0.974 . S
C2757 C154 1.050 . S
C2772 C596 1.060 . S
C2822 C608 0.993 . S
C2807 C299 0.994 . S
C2857 C137 1.021 . S
C2872 C629 1.016 . S
C2922 C511 1.052 . S
C2907 C149 1.056 . S
C2972 C549 0.979 . S
C2957 C313 0.989 . S
C3022 C632 1.005 . S
C3007 C294 0.995 . S
C3057 C333 0.996 . S
C3072 C599 0.992 . S
C3107 C39 0.918 . S
C3122 C654 0.919 . S
C3157 C42 1.039 . S
C3172 C432 1.050 . S
C3222 C456 1.063 . S
C3207 C9 1.055 . S
C3257 C19 1.032 . S
C3272 C486 1.027 . S
C3307 C89 1.038 . S
C3322 C431 1.022 . S
C3357 C107 1.112 . S
C3372 C467 1.106 . S
C3422 C483 1.083 . S
C3407 C56 1.090 . S
C3472 C665 0.924 . S
C3457 C81 0.931 . S
C3522 C662 0.917 . S
C3507 C305 0.915 . S
C3572 C434 1.013 . S
C3557 C285 1.019 . S
C3622 C464 1.129 . S
C3607 C322 1.117 . S
C3657 C317 1.055 . S
C3672 C476 1.061 . S
C3722 C439 1.024 . S
C3707 C303 1.028 . S
C3757 C280 1.091 . S
C3772 C453 1.087 . S
C3822 C489 1.013 . S
C3807 C327 1.029 . S
C3857 C319 0.960 . S
C3872 C651 0.953 . S
C3922 C652 0.982 . S
C3907 C210 0.974 . S
C3957 C249 0.998 . S
C3972 C379 0.989 . S
C4022 C388 1.024 . S
C4007 C275 1.018 . S
C4057 C173 1.065 . S
C4072 C423 1.051 . S
C4122 C659 0.978 . S
C4107 C252 0.979 . S
C4172 C454 1.060 . S
C4157 C191 1.054 . S
C4222 C420 0.989 . S
C4207 C277 0.985 . S
C4272 C376 1.076 . S
C4257 C229 1.081 . S
C4307 C51 1.078 . S
C4322 C673 1.078 . S
C4357 C28 1.000 . S
C4372 C585 1.000 . S
C4407 C25 0.924 . S
C4422 C621 0.923 . S
C4472 C640 1.045 . S
C4457 C5 1.047 . S
C4522 C586 1.053 . S
C4507 C75 1.053 . S
C4557 C67 0.912 . S
C4572 C610 0.910 . S
C4622 C637 1.019 . S
C4607 C98 1.022 . S
C4657 C93 1.067 . S
C4672 C674 1.074 . S
C4722 C681 1.110 . S
C4707 C201 1.120 . S
C4757 C177 1.034 . S
C4772 C593 1.036 . S
C4807 C263 0.934 . S
C4822 C607 0.929 . S
C4872 C630 0.982 . S
C4857 C238 0.976 . S
C4922 C588 0.987 . S
C4907 C196 0.981 . S
C4957 C179 0.897 . S
C4972 C618 0.899 . S
C5022 C643 1.051 . S
C5007 C261 1.051 . S
C5072 C676 1.111 . S
C5057 C243 1.114 . S
C5122 C687 1.004 . S
C5107 C135 1.008 . S
C5172 C527 1.102 . S
C5157 C308 1.102 . S
C5207 C117 0.991 . S
C5222 C542 0.987 . S
C5257 C291 0.995 . S
C5272 C574 1.000 . S
C5322 C684 1.032 . S
C5307 C331 1.026 . S
C5372 C615 0.970 . S
C5357 C159 0.980 . S
C5422 C577 1.051 . S
C5407 C112 1.050 . S
C5472 C520 0.976 . S
C5457 C151 0.972 . S
