# Generated by pormake.
# Topology anh, (6,3)-cn, num edge types: 1
# Building blocks:
#     Node 0, Type 0, BuildingBlock: BETDAH_clean_sbu_0, # of connection points: 6
#     Node 1, Type 0, BuildingBlock: BETDAH_clean_sbu_0, # of connection points: 6
#     Node 2, Type 0, BuildingBlock: BETDAH_clean_sbu_0, # of connection points: 6
#     Node 3, Type 1, BuildingBlock: OLANEW_clean_sbu_2, # of connection points: 3
#     Node 4, Type 1, BuildingBlock: OLANEW_clean_sbu_2, # of connection points: 3
#     Node 5, Type 1, BuildingBlock: OLANEW_clean_sbu_2, # of connection points: 3
#     Node 6, Type 1, BuildingBlock: OLANEW_clean_sbu_2, # of connection points: 3
#     Node 7, Type 1, BuildingBlock: OLANEW_clean_sbu_2, # of connection points: 3
#     Node 8, Type 1, BuildingBlock: OLANEW_clean_sbu_2, # of connection points: 3
#     Edge 9, Type (0, 1), BuildingBlock: ZUJKAS_clean_linker_0, # of connection points: 2
#     Edge 10, Type (0, 1), BuildingBlock: ZUJKAS_clean_linker_0, # of connection points: 2
#     Edge 11, Type (0, 1), BuildingBlock: ZUJKAS_clean_linker_0, # of connection points: 2
#     Edge 12, Type (0, 1), BuildingBlock: ZUJKAS_clean_linker_0, # of connection points: 2
#     Edge 13, Type (0, 1), BuildingBlock: ZUJKAS_clean_linker_0, # of connection points: 2
#     Edge 14, Type (0, 1), BuildingBlock: ZUJKAS_clean_linker_0, # of connection points: 2
#     Edge 15, Type (0, 1), BuildingBlock: ZUJKAS_clean_linker_0, # of connection points: 2
#     Edge 16, Type (0, 1), BuildingBlock: ZUJKAS_clean_linker_0, # of connection points: 2
#     Edge 17, Type (0, 1), BuildingBlock: ZUJKAS_clean_linker_0, # of connection points: 2
#     Edge 18, Type (0, 1), BuildingBlock: ZUJKAS_clean_linker_0, # of connection points: 2
#     Edge 19, Type (0, 1), BuildingBlock: ZUJKAS_clean_linker_0, # of connection points: 2
#     Edge 20, Type (0, 1), BuildingBlock: ZUJKAS_clean_linker_0, # of connection points: 2
#     Edge 21, Type (0, 1), BuildingBlock: ZUJKAS_clean_linker_0, # of connection points: 2
#     Edge 22, Type (0, 1), BuildingBlock: ZUJKAS_clean_linker_0, # of connection points: 2
#     Edge 23, Type (0, 1), BuildingBlock: ZUJKAS_clean_linker_0, # of connection points: 2
#     Edge 24, Type (0, 1), BuildingBlock: ZUJKAS_clean_linker_0, # of connection points: 2
#     Edge 25, Type (0, 1), BuildingBlock: ZUJKAS_clean_linker_0, # of connection points: 2
#     Edge 26, Type (0, 1), BuildingBlock: ZUJKAS_clean_linker_0, # of connection points: 2
# Relax obj value: 0.113
# Max RMSD: 0.157
# Mean RMSD: 0.110
data_MOF--net-anh--node1-BETDAH_clean_sbu_0--node2-OLANEW_clean_sbu_2--edge1-ZUJKAS_clean_linker_0
_symmetry_space_group_name_H-M    P1
_symmetry_Int_Tables_number       1
_symmetry_cell_setting            triclinic
loop_
_symmetry_equiv_pos_as_xyz
'x, y, z'
_cell_length_a     46.141197
_cell_length_b     50.509677
_cell_length_c     65.279258
_cell_angle_alpha  92.038765
_cell_angle_beta   89.686741
_cell_angle_gamma 128.56984
loop_
_atom_site_label
_atom_site_type_symbol
_atom_site_fract_x
_atom_site_fract_y
_atom_site_fract_z
_atom_type_partial_charge
Ho0 Ho 0.04358 0.51689 0.13708 0.0
Ho1 Ho 0.00899 0.54801 0.15515 0.0
C2 C 0.09513 0.59897 0.14655 0.0
C3 C 0.07917 0.50281 0.11486 0.0
C4 C 0.11777 0.51574 0.11453 0.0
C5 C 0.13004 0.50692 0.09799 0.0
C6 C 0.16603 0.5172 0.09821 0.0
C7 C 0.1902 0.53631 0.11505 0.0
C8 C 0.17808 0.54597 0.13134 0.0
C9 C 0.14216 0.53587 0.13103 0.0
C10 C 0.0432 0.52048 0.17835 0.0
C11 C 0.95798 0.46606 0.14668 0.0
C12 C 0.97362 0.56216 0.17761 0.0
C13 C 0.93424 0.54488 0.18104 0.0
C14 C 0.92344 0.55541 0.19743 0.0
C15 C 0.88584 0.53881 0.20076 0.0
C16 C 0.85854 0.51136 0.18775 0.0
C17 C 0.86968 0.50079 0.17142 0.0
C18 C 0.90719 0.51739 0.16812 0.0
C19 C 0.00976 0.54437 0.1138 0.0
O20 O 0.09063 0.57354 0.13615 0.0
O21 O 0.06833 0.59426 0.15766 0.0
O22 O 0.06086 0.48639 0.13114 0.0
O23 O 0.07345 0.52394 0.10945 0.0
O24 O 0.04049 0.49665 0.16797 0.0
O25 O 0.0493 0.54243 0.1665 0.0
O26 O 0.96311 0.49156 0.15733 0.0
O27 O 0.98385 0.47081 0.13461 0.0
O28 O 0.98521 0.57349 0.15924 0.0
O29 O 0.98602 0.54677 0.18438 0.0
O30 O 0.0133 0.56865 0.12417 0.0
O31 O 1.00318 0.52228 0.12571 0.0
H32 H 0.11152 0.49143 0.08513 0.0
H33 H 0.17445 0.50906 0.08556 0.0
H34 H 0.19622 0.56093 0.14441 0.0
H35 H 0.13313 0.54313 0.14387 0.0
H36 H 0.94407 0.57646 0.20762 0.0
H37 H 0.87814 0.54733 0.21358 0.0
H38 H 0.84944 0.48012 0.16092 0.0
H39 H 0.91512 0.50893 0.15538 0.0
Ho40 Ho 0.53728 0.01007 0.4985 0.0
Ho41 Ho 0.49395 0.03344 0.48399 0.0
C42 C 0.44977 0.95464 0.4854 0.0
C43 C 0.55943 0.98124 0.51741 0.0
C44 C 0.55096 0.94773 0.51688 0.0
C45 C 0.53549 0.92758 0.53407 0.0
C46 C 0.52882 0.89653 0.53425 0.0
C47 C 0.53777 0.88503 0.5173 0.0
C48 C 0.5528 0.90505 0.49998 0.0
C49 C 0.55929 0.93602 0.49976 0.0
C50 C 0.53938 0.01865 0.45781 0.0
C51 C 0.58238 0.08896 0.49525 0.0
C52 C 0.47062 0.06274 0.467 0.0
C53 C 0.47839 0.09552 0.47059 0.0
C54 C 0.45731 0.10236 0.46028 0.0
C55 C 0.46332 0.13284 0.46437 0.0
C56 C 0.49057 0.157 0.47886 0.0
C57 C 0.51201 0.15014 0.48894 0.0
C58 C 0.5059 0.11963 0.48487 0.0
C59 C 0.49341 0.02521 0.52473 0.0
O60 O 0.47747 0.96192 0.49709 0.0
O61 O 0.45252 0.97826 0.47523 0.0
O62 O 0.57608 0.99996 0.50155 0.0
O63 O 0.53359 0.98243 0.52436 0.0
O64 O 0.56615 0.02343 0.46829 0.0
O65 O 0.51162 0.00637 0.46891 0.0
O66 O 0.55355 0.0814 0.48462 0.0
O67 O 0.58064 0.06572 0.50526 0.0
O68 O 0.45329 0.04151 0.48171 0.0
O69 O 0.49805 0.06401 0.45998 0.0
O70 O 0.46538 0.01844 0.51454 0.0
O71 O 0.52058 0.03797 0.5132 0.0
H72 H 0.52885 0.93602 0.54747 0.0
H73 H 0.51671 0.88156 0.54773 0.0
H74 H 0.56052 0.89726 0.48677 0.0
H75 H 0.57135 0.95096 0.48627 0.0
H76 H 0.43594 0.08398 0.44922 0.0
H77 H 0.44666 0.1375 0.45617 0.0
H78 H 0.53286 0.16795 0.50037 0.0
H79 H 0.52225 0.11462 0.49309 0.0
Ho80 Ho 0.56698 0.55986 0.85748 0.0
Ho81 Ho 0.51384 0.48461 0.86662 0.0
C82 C 0.47834 0.52139 0.86267 0.0
C83 C 0.59994 0.61908 0.84281 0.0
C84 C 0.59108 0.64193 0.83892 0.0
C85 C 0.55594 0.62955 0.83158 0.0
C86 C 0.54837 0.65191 0.82806 0.0
C87 C 0.57576 0.68704 0.83191 0.0
C88 C 0.61078 0.69916 0.83944 0.0
C89 C 0.61834 0.67683 0.84286 0.0
C90 C 0.55824 0.54474 0.89741 0.0
C91 C 0.60339 0.52384 0.86241 0.0
C92 C 0.48239 0.42589 0.88162 0.0
C93 C 0.48875 0.40086 0.87914 0.0
C94 C 0.47065 0.37295 0.89167 0.0
C95 C 0.47585 0.34857 0.8889 0.0
C96 C 0.49929 0.35176 0.87353 0.0
C97 C 0.51789 0.38025 0.86127 0.0
C98 C 0.51271 0.40459 0.86408 0.0
C99 C 0.52153 0.49821 0.82655 0.0
O100 O 0.50964 0.54579 0.85376 0.0
O101 O 0.47535 0.49703 0.87211 0.0
O102 O 0.60254 0.61442 0.86207 0.0
O103 O 0.58256 0.5911 0.83139 0.0
O104 O 0.58983 0.56927 0.88991 0.0
O105 O 0.53343 0.5309 0.88369 0.0
O106 O 0.57071 0.49765 0.86914 0.0
O107 O 0.60804 0.55004 0.85457 0.0
O108 O 0.47004 0.43046 0.86522 0.0
O109 O 0.5089 0.45443 0.89119 0.0
O110 O 0.49091 0.47296 0.83442 0.0
O111 O 0.54715 0.51329 0.83996 0.0
H112 H 0.53438 0.60266 0.82848 0.0
H113 H 0.52124 0.64168 0.82207 0.0
H114 H 0.63232 0.72592 0.84296 0.0
H115 H 0.64554 0.68685 0.84867 0.0
H116 H 0.45231 0.36989 0.9035 0.0
H117 H 0.46154 0.32723 0.8988 0.0
H118 H 0.53574 0.38335 0.84912 0.0
H119 H 0.52701 0.4261 0.8543 0.0
O120 O 0.55277 0.06366 0.22909 0.0
Cd121 Cd 0.55372 0.06943 0.19196 0.0
O122 O 0.52778 0.00949 0.22858 0.0
Cd123 Cd 0.51039 0.99534 0.19635 0.0
O124 O 0.46372 0.94943 0.17973 0.0
C125 C 0.44077 0.92598 0.19162 0.0
O126 O 0.44738 0.93182 0.21149 0.0
C127 C 0.54232 0.03745 0.23846 0.0
C128 C 0.61846 0.1328 0.18134 0.0
O129 O 0.58922 0.12897 0.18643 0.0
O130 O 0.61703 0.10662 0.18103 0.0
O131 O 0.55122 0.51694 0.59624 0.0
Cd132 Cd 0.5487 0.51565 0.55876 0.0
O133 O 0.52103 0.53737 0.60061 0.0
Cd134 Cd 0.51828 0.5474 0.5687 0.0
O135 O 0.51479 0.57951 0.54904 0.0
C136 C 0.54265 0.6108 0.54919 0.0
O137 O 0.57258 0.62133 0.55967 0.0
C138 C 0.53671 0.52614 0.60806 0.0
C139 C 0.5392 0.45859 0.5426 0.0
O140 O 0.57166 0.48675 0.54609 0.0
O141 O 0.51124 0.45751 0.54652 0.0
O142 O 0.07694 0.528 0.89427 0.0
Cd143 Cd 0.11369 0.53781 0.86335 0.0
O144 O 0.03598 0.53337 0.88241 0.0
Cd145 Cd 0.98789 0.53402 0.88372 0.0
O146 O 0.94196 0.53728 0.88044 0.0
C147 C 0.90854 0.51302 0.88487 0.0
O148 O 0.90097 0.48528 0.89184 0.0
C149 C 0.04985 0.52849 0.89727 0.0
C150 C 0.17102 0.53218 0.86658 0.0
O151 O 0.17588 0.55893 0.87316 0.0
O152 O 0.13894 0.50767 0.85907 0.0
O153 O 0.04219 0.54282 0.40903 0.0
Cd154 Cd 0.04977 0.54555 0.44623 0.0
O155 O 0.98622 0.4937 0.40482 0.0
Cd156 Cd 0.97301 0.47929 0.43673 0.0
O157 O 0.93163 0.43826 0.45628 0.0
C158 C 0.92638 0.41042 0.45411 0.0
O159 O 0.94779 0.40884 0.44167 0.0
C160 C 0.01525 0.52 0.39734 0.0
C161 C 0.11475 0.61005 0.4575 0.0
O162 O 0.1157 0.58632 0.45113 0.0
O163 O 0.08299 0.60314 0.4591 0.0
O164 O 0.5057 0.98286 0.75182 0.0
Cd165 Cd 0.51077 0.98105 0.78893 0.0
O166 O 0.53185 0.03721 0.75191 0.0
Cd167 Cd 0.53354 0.04743 0.78487 0.0
O168 O 0.53124 0.0813 0.80541 0.0
C169 C 0.53956 0.10737 0.79679 0.0
O170 O 0.54948 0.11159 0.77753 0.0
C171 C 0.51805 0.00933 0.74215 0.0
C172 C 0.51958 0.9326 0.79779 0.0
O173 O 0.48734 0.92487 0.79713 0.0
O174 O 0.54764 0.96329 0.79454 0.0
O175 O 0.44455 0.34285 0.08525 0.0
Cd176 Cd 0.42132 0.31267 0.11709 0.0
O177 O 0.45156 0.38487 0.10203 0.0
Cd178 Cd 0.46711 0.4355 0.10562 0.0
O179 O 0.46028 0.47449 0.10662 0.0
C180 C 0.45125 0.48108 0.12332 0.0
O181 O 0.44875 0.46578 0.13988 0.0
C182 C 0.45444 0.37263 0.0855 0.0
C183 C 0.4821 0.33973 0.14308 0.0
O184 O 0.46961 0.31376 0.1312 0.0
O185 O 0.46499 0.35222 0.14315 0.0
H186 H 0.24163 0.5599 0.08497 0.0
H187 H 0.29799 0.56492 0.08572 0.0
H188 H 0.27706 0.53387 0.1483 0.0
H189 H 0.22106 0.5292 0.14774 0.0
H190 H 0.35282 0.58504 0.14068 0.0
H191 H 0.28611 0.47766 0.08289 0.0
H192 H 0.29037 0.51368 0.07514 0.0
H193 H 0.26072 0.48926 0.09594 0.0
C194 C 0.24931 0.55451 0.09894 0.0
C195 C 0.22676 0.54381 0.11622 0.0
C196 C 0.28146 0.55739 0.09935 0.0
C197 C 0.29126 0.54915 0.11694 0.0
C198 C 0.26995 0.54032 0.13457 0.0
H199 H 0.42044 0.4922 0.15491 0.0
H200 H 0.38851 0.51645 0.15299 0.0
C201 C 0.23799 0.5377 0.13423 0.0
C202 C 0.32161 0.54671 0.11652 0.0
H203 H 0.34549 0.5004 0.09494 0.0
C204 C 0.35149 0.56679 0.13056 0.0
C205 C 0.31967 0.52277 0.10334 0.0
C206 C 0.28739 0.49937 0.08858 0.0
C207 C 0.3793 0.56325 0.13191 0.0
C208 C 0.37678 0.5387 0.11908 0.0
C209 C 0.3475 0.51939 0.10466 0.0
C210 C 0.40205 0.53021 0.12135 0.0
C211 C 0.41095 0.58564 0.14712 0.0
C212 C 0.42062 0.53017 0.10426 0.0
C213 C 0.43855 0.51593 0.10524 0.0
C214 C 0.43805 0.5013 0.12331 0.0
C215 C 0.42134 0.50322 0.14076 0.0
C216 C 0.40331 0.51737 0.13975 0.0
H217 H 0.41548 0.60966 0.15073 0.0
H218 H 0.40425 0.57222 0.16162 0.0
H219 H 0.43709 0.59179 0.14127 0.0
H220 H 0.41983 0.53982 0.08989 0.0
H221 H 0.45134 0.51504 0.09155 0.0
H222 H 0.64996 0.11359 0.51168 0.0
H223 H 0.70895 0.17052 0.50881 0.0
H224 H 0.65341 0.20095 0.47644 0.0
H225 H 0.59447 0.14414 0.47899 0.0
H226 H 0.71363 0.21483 0.45616 0.0
H227 H 0.75163 0.26211 0.53729 0.0
H228 H 0.74032 0.22135 0.53237 0.0
H229 H 0.70518 0.22615 0.52916 0.0
C230 C 0.65017 0.13253 0.50423 0.0
C231 C 0.61748 0.12422 0.49549 0.0
C232 C 0.68391 0.16514 0.50271 0.0
C233 C 0.68552 0.19007 0.49259 0.0
C234 C 0.65277 0.18211 0.48438 0.0
H235 H 0.87182 0.40282 0.47716 0.0
H236 H 0.81409 0.3496 0.488 0.0
C237 C 0.61909 0.14957 0.48584 0.0
C238 C 0.72165 0.22347 0.48891 0.0
H239 H 0.79866 0.29461 0.51267 0.0
C240 C 0.73213 0.23233 0.46853 0.0
C241 C 0.74562 0.24635 0.50506 0.0
C242 C 0.73507 0.23875 0.52721 0.0
C243 C 0.76614 0.26318 0.46384 0.0
C244 C 0.79063 0.28561 0.47996 0.0
C245 C 0.77995 0.27715 0.50036 0.0
C246 C 0.82729 0.31802 0.47569 0.0
C247 C 0.77547 0.2717 0.44163 0.0
C248 C 0.85427 0.31791 0.4658 0.0
C249 C 0.8872 0.34817 0.45958 0.0
C250 C 0.89381 0.37917 0.46317 0.0
C251 C 0.86754 0.37938 0.47407 0.0
C252 C 0.83456 0.34902 0.4803 0.0
H253 H 0.75051 0.25564 0.4314 0.0
H254 H 0.78862 0.29873 0.43941 0.0
H255 H 0.79541 0.26741 0.43685 0.0
H256 H 0.84937 0.29425 0.46236 0.0
H257 H 0.90692 0.34708 0.45138 0.0
H258 H 0.62226 0.75005 0.81596 0.0
H259 H 0.61053 0.79031 0.81093 0.0
H260 H 0.49955 0.71831 0.83301 0.0
H261 H 0.51161 0.67843 0.83905 0.0
H262 H 0.55957 0.78509 0.78657 0.0
H263 H 0.53696 0.80219 0.86798 0.0
H264 H 0.55617 0.78137 0.86042 0.0
H265 H 0.507 0.75892 0.85844 0.0
C266 C 0.59551 0.7429 0.82007 0.0
C267 C 0.56803 0.71106 0.82813 0.0
C268 C 0.58876 0.76588 0.81701 0.0
C269 C 0.5544 0.7576 0.82193 0.0
C270 C 0.52657 0.72558 0.82954 0.0
H271 H 0.46637 0.86689 0.80834 0.0
H272 H 0.47407 0.82388 0.81402 0.0
C273 C 0.53336 0.70261 0.83271 0.0
C274 C 0.54771 0.78238 0.81872 0.0
H275 H 0.52516 0.82802 0.84335 0.0
C276 C 0.55213 0.79452 0.799 0.0
C277 C 0.53799 0.79469 0.83496 0.0
C278 C 0.53457 0.7839 0.85668 0.0
C279 C 0.54691 0.81845 0.79505 0.0
C280 C 0.53731 0.83077 0.81128 0.0
C281 C 0.53247 0.81842 0.83095 0.0
C282 C 0.53285 0.85697 0.80817 0.0
C283 C 0.55134 0.83017 0.7735 0.0
C284 C 0.56348 0.88993 0.80332 0.0
C285 C 0.55925 0.9146 0.80017 0.0
C286 C 0.52424 0.90673 0.80179 0.0
C287 C 0.49368 0.87375 0.80691 0.0
C288 C 0.49801 0.84915 0.81018 0.0
H289 H 0.5508 0.81305 0.76204 0.0
H290 H 0.52908 0.83169 0.76945 0.0
H291 H 0.57835 0.85588 0.77245 0.0
H292 H 0.59071 0.89656 0.80198 0.0
H293 H 0.58337 0.93974 0.7963 0.0
H294 H 0.82653 0.54097 0.19743 0.0
H295 H 0.76035 0.51353 0.19874 0.0
H296 H 0.73426 0.41659 0.18468 0.0
H297 H 0.80021 0.44356 0.18421 0.0
H298 H 0.71399 0.48115 0.16619 0.0
H299 H 0.66108 0.39218 0.22908 0.0
H300 H 0.70988 0.42649 0.22616 0.0
H301 H 0.68746 0.38723 0.21144 0.0
C302 C 0.80671 0.51368 0.19522 0.0
C303 C 0.81862 0.49445 0.19063 0.0
C304 C 0.76891 0.49807 0.19588 0.0
C305 C 0.74237 0.46297 0.19208 0.0
C306 C 0.7542 0.44359 0.18814 0.0
H307 H 0.52387 0.31875 0.14633 0.0
H308 H 0.58567 0.35027 0.16201 0.0
C309 C 0.79194 0.45913 0.18754 0.0
C310 C 0.70262 0.44714 0.1897 0.0
H311 H 0.61578 0.37924 0.20339 0.0
C312 C 0.69252 0.45932 0.17464 0.0
C313 C 0.67468 0.41864 0.20073 0.0
C314 C 0.68385 0.4056 0.2179 0.0
C315 C 0.65522 0.44262 0.16945 0.0
C316 C 0.62734 0.41321 0.17981 0.0
C317 C 0.63731 0.40178 0.19547 0.0
C318 C 0.58801 0.39241 0.17319 0.0
C319 C 0.646 0.45548 0.15215 0.0
C320 C 0.5685 0.40525 0.17492 0.0
C321 C 0.53317 0.38734 0.16593 0.0
C322 C 0.51689 0.35631 0.1551 0.0
C323 C 0.53573 0.34267 0.15445 0.0
C324 C 0.57098 0.36057 0.16345 0.0
H325 H 0.67096 0.47519 0.14356 0.0
H326 H 0.62562 0.43433 0.14124 0.0
H327 H 0.63333 0.46674 0.15849 0.0
H328 H 0.58112 0.42965 0.18259 0.0
H329 H 0.51928 0.39843 0.1668 0.0
H330 H 0.42187 0.90462 0.5126 0.0
H331 H 0.36486 0.84607 0.50905 0.0
H332 H 0.34467 0.86548 0.44902 0.0
H333 H 0.40055 0.92457 0.45306 0.0
H334 H 0.28346 0.83031 0.46809 0.0
H335 H 0.34791 0.76885 0.47804 0.0
H336 H 0.35658 0.79544 0.49994 0.0
H337 H 0.37513 0.81391 0.47547 0.0
C338 C 0.4053 0.89631 0.49862 0.0
C339 C 0.41571 0.91907 0.48306 0.0
C340 C 0.37285 0.86273 0.49652 0.0
C341 C 0.3508 0.85095 0.47854 0.0
C342 C 0.36121 0.87381 0.46301 0.0
H343 H 0.18348 0.63848 0.4429 0.0
H344 H 0.23987 0.69695 0.44818 0.0
C345 C 0.39317 0.90759 0.46531 0.0
C346 C 0.31635 0.81517 0.47607 0.0
H347 H 0.28196 0.73289 0.47921 0.0
C348 C 0.28323 0.80902 0.47039 0.0
C349 C 0.31598 0.78725 0.47876 0.0
C350 C 0.35089 0.79167 0.48316 0.0
C351 C 0.2499 0.77593 0.46736 0.0
C352 C 0.24916 0.74803 0.47103 0.0
C353 C 0.28229 0.75418 0.47666 0.0
C354 C 0.21476 0.71226 0.46831 0.0
C355 C 0.21626 0.77143 0.45957 0.0
C356 C 0.18187 0.701 0.47813 0.0
C357 C 0.14932 0.66774 0.47471 0.0
C358 C 0.14937 0.64476 0.46196 0.0
C359 C 0.18262 0.6556 0.45285 0.0
C360 C 0.21489 0.68905 0.45587 0.0
H361 H 0.22423 0.794 0.45145 0.0
H362 H 0.19905 0.74888 0.44892 0.0
H363 H 0.19913 0.76811 0.47275 0.0
H364 H 0.18126 0.71796 0.48839 0.0
H365 H 0.12419 0.65995 0.48214 0.0
H366 H 0.44531 0.2829 0.87412 0.0
H367 H 0.45124 0.23894 0.86575 0.0
H368 H 0.5677 0.31581 0.85482 0.0
H369 H 0.56237 0.35992 0.86398 0.0
H370 H 0.4711 0.22869 0.82913 0.0
H371 H 0.56908 0.25158 0.8895 0.0
H372 H 0.54535 0.26953 0.89123 0.0
H373 H 0.5862 0.28903 0.87605 0.0
C374 C 0.4724 0.29049 0.87043 0.0
C375 C 0.50337 0.325 0.86975 0.0
C376 C 0.47568 0.26531 0.86552 0.0
C377 C 0.51 0.27404 0.85992 0.0
C378 C 0.54109 0.30842 0.85952 0.0
H379 H 0.55456 0.16426 0.78173 0.0
H380 H 0.54615 0.20293 0.79843 0.0
C381 C 0.53787 0.33363 0.86448 0.0
C382 C 0.51265 0.24735 0.85287 0.0
H383 H 0.56054 0.21721 0.86011 0.0
C384 C 0.49036 0.22596 0.83606 0.0
C385 C 0.53748 0.24349 0.86206 0.0
C386 C 0.56062 0.2644 0.88084 0.0
C387 C 0.49321 0.2017 0.82773 0.0
C388 C 0.51945 0.19911 0.83621 0.0
C389 C 0.54074 0.21954 0.8535 0.0
C390 C 0.52614 0.17631 0.82671 0.0
C391 C 0.46818 0.17912 0.80982 0.0
C392 C 0.51879 0.14909 0.83734 0.0
C393 C 0.52367 0.12684 0.82782 0.0
C394 C 0.53623 0.13166 0.80757 0.0
C395 C 0.54459 0.1596 0.79727 0.0
C396 C 0.53966 0.1817 0.80675 0.0
H397 H 0.44327 0.17779 0.8088 0.0
H398 H 0.4836 0.1895 0.79539 0.0
H399 H 0.45904 0.15304 0.811 0.0
H400 H 0.50855 0.14467 0.85282 0.0
H401 H 0.51711 0.10564 0.8362 0.0
H402 H 0.51373 0.83683 0.48629 0.0
H403 H 0.50855 0.78557 0.48721 0.0
H404 H 0.5452 0.80938 0.55054 0.0
H405 H 0.55121 0.86086 0.5497 0.0
H406 H 0.56593 0.78185 0.49661 0.0
H407 H 0.44987 0.70988 0.55053 0.0
H408 H 0.46044 0.74564 0.53723 0.0
H409 H 0.48682 0.75229 0.55977 0.0
C410 C 0.52077 0.83121 0.50041 0.0
C411 C 0.53278 0.85297 0.51795 0.0
C412 C 0.5176 0.80182 0.50092 0.0
C413 C 0.52598 0.79347 0.51902 0.0
C414 C 0.53781 0.81499 0.53654 0.0
H415 H 0.59699 0.67913 0.54739 0.0
H416 H 0.59062 0.72102 0.53656 0.0
C417 C 0.54114 0.84439 0.53604 0.0
C418 C 0.52412 0.76313 0.51948 0.0
H419 H 0.48588 0.69097 0.54537 0.0
C420 C 0.54808 0.76171 0.50706 0.0
C421 C 0.50039 0.73665 0.53287 0.0
C422 C 0.47264 0.73591 0.54572 0.0
C423 C 0.5503 0.73534 0.50846 0.0
C424 C 0.52832 0.71004 0.52284 0.0
C425 C 0.50297 0.71054 0.53447 0.0
C426 C 0.53293 0.68422 0.52717 0.0
C427 C 0.57647 0.73502 0.49471 0.0
C428 C 0.50257 0.64954 0.52554 0.0
C429 C 0.50607 0.62543 0.53183 0.0
C430 C 0.53993 0.63565 0.54008 0.0
C431 C 0.57055 0.67035 0.54108 0.0
C432 C 0.56703 0.69438 0.53476 0.0
H433 H 0.58202 0.74902 0.48058 0.0
H434 H 0.60331 0.74766 0.503 0.0
H435 H 0.5652 0.70871 0.49027 0.0
H436 H 0.47594 0.64119 0.51983 0.0
H437 H 0.48192 0.59892 0.53089 0.0
H438 H 0.60419 0.47348 0.87612 0.0
H439 H 0.65709 0.4736 0.87906 0.0
H440 H 0.72824 0.57301 0.85426 0.0
H441 H 0.67559 0.57335 0.85149 0.0
H442 H 0.7035 0.47901 0.84931 0.0
H443 H 0.78485 0.58655 0.90646 0.0
H444 H 0.73662 0.56546 0.90061 0.0
H445 H 0.7719 0.59602 0.88363 0.0
C446 C 0.63107 0.49548 0.87132 0.0
C447 C 0.6355 0.52352 0.86367 0.0
C448 C 0.66137 0.49547 0.873 0.0
C449 C 0.69694 0.52355 0.86723 0.0
C450 C 0.70134 0.55134 0.85926 0.0
H451 H 0.91298 0.56593 0.87006 0.0
H452 H 0.86232 0.56877 0.86497 0.0
C453 C 0.67105 0.55137 0.85755 0.0
C454 C 0.72914 0.52341 0.86928 0.0
H455 H 0.81425 0.5649 0.89272 0.0
C456 C 0.72766 0.49777 0.85884 0.0
C457 C 0.76088 0.54796 0.88163 0.0
C458 C 0.76369 0.5754 0.89388 0.0
C459 C 0.75698 0.49614 0.86025 0.0
C460 C 0.78851 0.52041 0.87282 0.0
C461 C 0.79019 0.54629 0.88308 0.0
C462 C 0.8195 0.5188 0.87594 0.0
C463 C 0.75412 0.46871 0.84795 0.0
C464 C 0.81263 0.49005 0.88413 0.0
C465 C 0.84149 0.48834 0.88704 0.0
C466 C 0.87816 0.51546 0.88197 0.0
C467 C 0.88514 0.54451 0.87407 0.0
C468 C 0.85616 0.54618 0.87116 0.0
H469 H 0.73432 0.45889 0.83476 0.0
H470 H 0.78154 0.4781 0.84205 0.0
H471 H 0.74388 0.44721 0.8579 0.0
H472 H 0.78485 0.4689 0.88844 0.0
H473 H 0.83496 0.46565 0.89329 0.0
H474 H 0.15912 0.61843 0.12814 0.0
H475 H 0.22043 0.67421 0.13076 0.0
H476 H 0.17598 0.71203 0.16906 0.0
H477 H 0.1147 0.65679 0.16629 0.0
H478 H 0.22339 0.75693 0.13923 0.0
H479 H 0.28662 0.71087 0.18259 0.0
H480 H 0.26547 0.68949 0.15823 0.0
H481 H 0.23717 0.68585 0.17871 0.0
C482 C 0.16232 0.63867 0.13702 0.0
C483 C 0.13197 0.63302 0.14712 0.0
C484 C 0.19744 0.67049 0.13858 0.0
C485 C 0.20286 0.69713 0.15034 0.0
C486 C 0.17244 0.6918 0.15994 0.0
H487 H 0.38706 0.87271 0.21382 0.0
H488 H 0.33136 0.81791 0.20125 0.0
C489 C 0.1374 0.66011 0.15838 0.0
C490 C 0.24023 0.73041 0.15327 0.0
H491 H 0.32503 0.76894 0.17601 0.0
C492 C 0.2458 0.7596 0.14707 0.0
C493 C 0.26926 0.73377 0.16366 0.0
C494 C 0.26445 0.70343 0.17136 0.0
C495 C 0.27929 0.79214 0.15145 0.0
C496 C 0.30814 0.79549 0.16206 0.0
C497 C 0.30292 0.76625 0.16776 0.0
C498 C 0.34254 0.82903 0.16917 0.0
C499 C 0.28289 0.82267 0.14554 0.0
C500 C 0.36756 0.85354 0.15527 0.0
C501 C 0.3996 0.88518 0.16245 0.0
C502 C 0.40717 0.89269 0.18363 0.0
C503 C 0.38215 0.86788 0.19741 0.0
C504 C 0.35027 0.83643 0.19026 0.0
H505 H 0.25575 0.81586 0.14099 0.0
H506 H 0.29505 0.84188 0.15844 0.0
H507 H 0.30168 0.83447 0.13237 0.0
H508 H 0.36242 0.84814 0.13891 0.0
H509 H 0.41841 0.90367 0.15143 0.0
H510 H 0.43721 0.16463 0.48408 0.0
H511 H 0.44594 0.21662 0.49319 0.0
H512 H 0.56443 0.27293 0.49501 0.0
H513 H 0.55603 0.22123 0.48533 0.0
H514 H 0.48108 0.25799 0.5288 0.0
H515 H 0.55119 0.32975 0.45886 0.0
H516 H 0.52623 0.28462 0.45974 0.0
H517 H 0.57214 0.31374 0.47082 0.0
C518 C 0.46517 0.18817 0.48606 0.0
C519 C 0.49594 0.18879 0.48387 0.0
C520 C 0.47008 0.21781 0.4914 0.0
C521 C 0.50583 0.24869 0.49452 0.0
C522 C 0.53662 0.24947 0.49233 0.0
H523 H 0.59292 0.4524 0.53403 0.0
H524 H 0.58432 0.4013 0.52232 0.0
C525 C 0.53175 0.21983 0.48702 0.0
C526 C 0.51075 0.27977 0.50092 0.0
H527 H 0.54916 0.35989 0.48682 0.0
C528 C 0.49578 0.28022 0.51958 0.0
C529 C 0.53008 0.30875 0.48889 0.0
C530 C 0.54559 0.30925 0.46837 0.0
C531 C 0.50015 0.30909 0.52672 0.0
C532 C 0.5194 0.33807 0.51468 0.0
C533 C 0.5344 0.33763 0.49601 0.0
C534 C 0.52441 0.36913 0.52126 0.0
C535 C 0.4849 0.30859 0.54735 0.0
C536 C 0.49359 0.36814 0.52418 0.0
C537 C 0.49838 0.39726 0.53093 0.0
C538 C 0.53415 0.42803 0.53473 0.0
C539 C 0.565 0.42911 0.53132 0.0
C540 C 0.56015 0.39994 0.5246 0.0
H541 H 0.47968 0.28825 0.55686 0.0
H542 H 0.50421 0.33328 0.55592 0.0
H543 H 0.45816 0.30382 0.54505 0.0
H544 H 0.46577 0.34479 0.52128 0.0
H545 H 0.47404 0.3956 0.53326 0.0
H546 H 0.42118 0.49165 0.88955 0.0
H547 H 0.36976 0.4938 0.89044 0.0
H548 H 0.41147 0.55437 0.83692 0.0
H549 H 0.46414 0.55378 0.83668 0.0
H550 H 0.3892 0.57836 0.8616 0.0
H551 H 0.27729 0.43996 0.85738 0.0
H552 H 0.30668 0.45225 0.87943 0.0
H553 H 0.32521 0.45838 0.85409 0.0
C554 C 0.41933 0.5053 0.8779 0.0
C555 C 0.44669 0.52232 0.86294 0.0
C556 C 0.38962 0.50628 0.87831 0.0
C557 C 0.38579 0.52342 0.8634 0.0
C558 C 0.41339 0.54074 0.84856 0.0
H559 H 0.17757 0.49006 0.8433 0.0
H560 H 0.22993 0.48914 0.84217 0.0
C561 C 0.44356 0.54036 0.8484 0.0
C562 C 0.35371 0.52408 0.86359 0.0
H563 H 0.25925 0.47386 0.86682 0.0
C564 C 0.36078 0.55541 0.86259 0.0
C565 C 0.31632 0.49423 0.86448 0.0
C566 C 0.30589 0.45932 0.86367 0.0
C567 C 0.33192 0.5578 0.86272 0.0
C568 C 0.29471 0.52814 0.86482 0.0
C569 C 0.28762 0.49677 0.86554 0.0
C570 C 0.26265 0.52883 0.86573 0.0
C571 C 0.3418 0.5921 0.85994 0.0
C572 C 0.26283 0.55097 0.87957 0.0
C573 C 0.23314 0.55203 0.87989 0.0
C574 C 0.20194 0.53021 0.86686 0.0
C575 C 0.2011 0.50718 0.85358 0.0
C576 C 0.23114 0.50665 0.85293 0.0
H577 H 0.36834 0.6091 0.85178 0.0
H578 H 0.31984 0.58996 0.85117 0.0
H579 H 0.3454 0.60428 0.87521 0.0
H580 H 0.28592 0.56747 0.89019 0.0
H581 H 0.23451 0.5698 0.89048 0.0
H582 H 0.94023 0.4058 0.13232 0.0
H583 H 0.88192 0.34868 0.13648 0.0
H584 H 0.83663 0.39087 0.16893 0.0
H585 H 0.89472 0.44798 0.16499 0.0
H586 H 0.84746 0.31989 0.17651 0.0
H587 H 0.75741 0.32438 0.12296 0.0
H588 H 0.80736 0.35244 0.12135 0.0
H589 H 0.78545 0.3599 0.14091 0.0
C590 C 0.91778 0.40299 0.14019 0.0
C591 C 0.92217 0.43152 0.14828 0.0
C592 C 0.88453 0.37032 0.14258 0.0
C593 C 0.85492 0.36562 0.15284 0.0
C594 C 0.85902 0.394 0.16074 0.0
H595 H 0.63298 0.19415 0.18569 0.0
H596 H 0.69074 0.25003 0.17862 0.0
C597 C 0.89233 0.42664 0.15852 0.0
C598 C 0.82023 0.33098 0.15605 0.0
H599 H 0.72784 0.27667 0.14362 0.0
C600 C 0.8213 0.31027 0.16924 0.0
C601 C 0.78621 0.31875 0.14666 0.0
C602 C 0.78382 0.33983 0.13205 0.0
C603 C 0.789 0.27782 0.17367 0.0
C604 C 0.75488 0.26539 0.16417 0.0
C605 C 0.75395 0.28613 0.15087 0.0
C606 C 0.71971 0.23122 0.16813 0.0
C607 C 0.79161 0.2577 0.18903 0.0
C608 C 0.71648 0.20193 0.16427 0.0
C609 C 0.68359 0.16996 0.16849 0.0
C610 C 0.65302 0.16657 0.17635 0.0
C611 C 0.656 0.19585 0.17968 0.0
C612 C 0.68901 0.22783 0.17563 0.0
H613 H 0.81671 0.27428 0.1991 0.0
H614 H 0.76682 0.24345 0.19881 0.0
H615 H 0.79343 0.23924 0.18072 0.0
H616 H 0.73941 0.20377 0.15796 0.0
H617 H 0.6821 0.14789 0.16556 0.0
H618 H 1.00415 0.49539 0.09051 0.0
H619 H 1.00664 0.49168 0.05312 0.0
H620 H 0.01688 0.58223 0.04879 0.0
H621 H 0.01588 0.58676 0.08622 0.0
H622 H 0.96229 0.48452 0.02304 0.0
H623 H 0.10346 0.60654 0.01565 0.0
H624 H 0.08493 0.58777 0.04006 0.0
H625 H 0.07232 0.61121 0.02847 0.0
C626 C 0.00722 0.51463 0.08157 0.0
C627 C 0.01029 0.5416 0.09124 0.0
C628 C 0.00848 0.51242 0.06021 0.0
C629 C 0.01264 0.53702 0.04814 0.0
C630 C 0.01468 0.56346 0.05779 0.0
H631 H 0.02514 0.56048 0.91565 0.0
H632 H 0.01124 0.56035 0.952 0.0
C633 C 0.01385 0.56591 0.07916 0.0
C634 C 0.01469 0.53486 0.02547 0.0
H635 H 0.06916 0.57842 0.98472 0.0
C636 C 0.98568 0.50505 0.01468 0.0
C637 C 0.0453 0.56161 0.01454 0.0
C638 C 0.07844 0.59344 0.02527 0.0
C639 C 0.98644 0.50138 0.99329 0.0
C640 C 0.01687 0.52819 0.98245 0.0
C641 C 0.04566 0.55808 0.99313 0.0
C642 C 0.02061 0.52507 0.96015 0.0
C643 C 0.9548 0.46893 0.98233 0.0
C644 C 0.03009 0.50502 0.95275 0.0
C645 C 0.0381 0.50512 0.93207 0.0
C646 C 0.03638 0.52499 0.91837 0.0
C647 C 0.02566 0.54419 0.92569 0.0
C648 C 0.01807 0.54439 0.94647 0.0
H649 H 0.93055 0.45291 0.99234 0.0
H650 H 0.94595 0.47455 0.96846 0.0
H651 H 0.96419 0.45423 0.97724 0.0
H652 H 0.03264 0.49028 0.96314 0.0
H653 H 0.04654 0.49026 0.92687 0.0
H654 H 0.48653 0.01188 0.4339 0.0
H655 H 0.48772 0.01826 0.39679 0.0
H656 H 0.59372 0.03916 0.39437 0.0
H657 H 0.59335 0.03429 0.4315 0.0
H658 H 0.59349 0.08118 0.37126 0.0
H659 H 0.4666 0.94978 0.35342 0.0
H660 H 0.45873 0.97297 0.37075 0.0
H661 H 0.48858 0.96341 0.37849 0.0
C662 C 0.51008 0.01792 0.42541 0.0
C663 C 0.53977 0.02243 0.4355 0.0
C664 C 0.51062 0.0213 0.4042 0.0
C665 C 0.54047 0.02851 0.3927 0.0
C666 C 0.57033 0.03346 0.40288 0.0
H667 H 0.5381 0.99201 0.26238 0.0
H668 H 0.53957 0.9921 0.29975 0.0
C669 C 0.57004 0.03056 0.42409 0.0
C670 C 0.54088 0.03099 0.37008 0.0
H671 H 0.49268 0.98704 0.3259 0.0
C672 C 0.57147 0.06058 0.36133 0.0
C673 C 0.51237 0.00392 0.35711 0.0
C674 C 0.4799 0.97061 0.36538 0.0
C675 C 0.57443 0.06382 0.33999 0.0
C676 C 0.54544 0.03711 0.32705 0.0
C677 C 0.51478 0.00761 0.33582 0.0
C678 C 0.54674 0.03855 0.30434 0.0
C679 C 0.60914 0.09537 0.33155 0.0
C680 C 0.55051 0.06475 0.29442 0.0
C681 C 0.55028 0.06506 0.27299 0.0
C682 C 0.54547 0.03875 0.2611 0.0
C683 C 0.54179 0.01262 0.27108 0.0
C684 C 0.54255 0.0126 0.29246 0.0
H685 H 0.63262 0.10838 0.34284 0.0
H686 H 0.61759 0.08937 0.31729 0.0
H687 H 0.60384 0.11332 0.32793 0.0
H688 H 0.55284 0.0846 0.30322 0.0
H689 H 0.55275 0.08534 0.26576 0.0
H690 H 0.58638 0.5422 0.80638 0.0
H691 H 0.59404 0.54938 0.76922 0.0
H692 H 0.47566 0.47476 0.7599 0.0
H693 H 0.46797 0.46711 0.79682 0.0
H694 H 0.51477 0.46361 0.7342 0.0
H695 H 0.56961 0.59759 0.73288 0.0
H696 H 0.59502 0.59027 0.7492 0.0
H697 H 0.54812 0.57239 0.75515 0.0
C698 C 0.56205 0.52756 0.79636 0.0
C699 C 0.52659 0.50411 0.80441 0.0
C700 C 0.56642 0.53176 0.77518 0.0
C701 C 0.53537 0.51282 0.76182 0.0
C702 C 0.49998 0.48962 0.76993 0.0
H703 H 0.50406 0.53931 0.63719 0.0
H704 H 0.50634 0.5363 0.67429 0.0
C705 C 0.49562 0.48532 0.79102 0.0
C706 C 0.5394 0.5162 0.73931 0.0
H707 H 0.56622 0.57147 0.70124 0.0
C708 C 0.52617 0.48722 0.72697 0.0
C709 C 0.55401 0.54697 0.72996 0.0
C710 C 0.56723 0.57855 0.74242 0.0
C711 C 0.52664 0.48802 0.7055 0.0
C712 C 0.54145 0.51884 0.69613 0.0
C713 C 0.55514 0.54794 0.70848 0.0
C714 C 0.54087 0.52094 0.67356 0.0
C715 C 0.51003 0.45558 0.69305 0.0
C716 C 0.55977 0.51352 0.6608 0.0
C717 C 0.5583 0.51497 0.63949 0.0
C718 C 0.5382 0.5242 0.6306 0.0
C719 C 0.51974 0.53204 0.64349 0.0
C720 C 0.52109 0.53044 0.66473 0.0
H721 H 0.4922 0.43289 0.70244 0.0
H722 H 0.4932 0.45309 0.6799 0.0
H723 H 0.53266 0.45585 0.68688 0.0
H724 H 0.57578 0.50675 0.66733 0.0
H725 H 0.57309 0.50905 0.63003 0.0
H726 H 0.55279 0.04513 0.54841 0.0
H727 H 0.55377 0.03691 0.58502 0.0
H728 H 0.43582 0.98346 0.58701 0.0
H729 H 0.43491 0.99241 0.55043 0.0
H730 H 0.47163 0.03006 0.61767 0.0
H731 H 0.52006 0.95365 0.61469 0.0
H732 H 0.55069 0.99265 0.60183 0.0
H733 H 0.504 0.96115 0.59215 0.0
C734 C 0.52705 0.03145 0.55665 0.0
C735 C 0.49377 0.01941 0.54666 0.0
C736 C 0.52758 0.02649 0.57752 0.0
C737 C 0.49474 0.009 0.58869 0.0
C738 C 0.46143 0.99683 0.57866 0.0
H739 H 0.4811 0.95301 0.71604 0.0
H740 H 0.47361 0.95095 0.67872 0.0
C741 C 0.46094 0.00198 0.55781 0.0
C742 C 0.49561 0.00537 0.61108 0.0
H743 H 0.52422 0.97886 0.64757 0.0
C744 C 0.48279 0.01855 0.62418 0.0
C745 C 0.50963 0.98987 0.61959 0.0
C746 C 0.5215 0.97321 0.60632 0.0
C747 C 0.48475 0.01771 0.64555 0.0
C748 C 0.50084 0.00409 0.65407 0.0
C749 C 0.51242 0.98977 0.641 0.0
C750 C 0.50659 0.00526 0.67651 0.0
C751 C 0.46939 0.03132 0.65878 0.0
C752 C 0.5284 0.0365 0.68753 0.0
C753 C 0.53254 0.03776 0.70878 0.0
C754 C 0.51533 0.00779 0.71946 0.0
C755 C 0.49462 0.97655 0.70829 0.0
C756 C 0.4903 0.97532 0.68698 0.0
H757 H 0.44844 0.03106 0.65024 0.0
H758 H 0.4564 0.01637 0.67269 0.0
H759 H 0.49229 0.05798 0.6637 0.0
H760 H 0.54203 0.05998 0.67968 0.0
H761 H 0.54905 0.06229 0.71684 0.0
H762 H 0.61066 0.56055 0.92603 0.0
H763 H 0.59945 0.53362 0.95898 0.0
H764 H 0.48149 0.47178 0.94765 0.0
H765 H 0.49244 0.49815 0.9149 0.0
H766 H 0.5588 0.52858 0.9934 0.0
H767 H 0.49782 0.40222 0.95776 0.0
H768 H 0.524 0.44036 0.94343 0.0
H769 H 0.47606 0.41935 0.94885 0.0
C770 C 0.5824 0.54136 0.93071 0.0
C771 C 0.5524 0.53115 0.91791 0.0
C772 C 0.57604 0.52599 0.94944 0.0
C773 C 0.53965 0.50023 0.95549 0.0
C774 C 0.50977 0.49103 0.94303 0.0
H775 H 0.44296 0.41574 0.07129 0.0
H776 H 0.46818 0.44881 0.0405 0.0
C777 C 0.51608 0.50625 0.92439 0.0
C778 C 0.5324 0.48266 0.97478 0.0
H779 H 0.48675 0.40386 0.99351 0.0
C780 C 0.54345 0.50137 0.99347 0.0
C781 C 0.51291 0.44726 0.97478 0.0
C782 C 0.50233 0.42615 0.95513 0.0
C783 C 0.53401 0.48534 0.01225 0.0
C784 C 0.51243 0.44963 0.01223 0.0
C785 C 0.50287 0.43117 0.99351 0.0
C786 C 0.4985 0.43073 0.03139 0.0
C787 C 0.54723 0.5068 0.03189 0.0
C788 C 0.50619 0.40877 0.03619 0.0
C789 C 0.49171 0.38981 0.05378 0.0
C790 C 0.46947 0.39262 0.06692 0.0
C791 C 0.4613 0.41418 0.06193 0.0
C792 C 0.47562 0.433 0.04429 0.0
H793 H 0.57228 0.53327 0.02944 0.0
H794 H 0.52509 0.50764 0.03756 0.0
H795 H 0.55376 0.49614 0.04393 0.0
H796 H 0.52342 0.40632 0.02632 0.0
H797 H 0.49821 0.37318 0.05722 0.0
H798 H 0.05534 0.57228 0.20199 0.0
H799 H 0.05228 0.57553 0.23941 0.0
H800 H 0.02463 0.47699 0.24279 0.0
H801 H 0.0277 0.47362 0.2054 0.0
H802 H 0.99151 0.53065 0.2647 0.0
H803 H 0.11321 0.53731 0.28332 0.0
H804 H 0.10473 0.54504 0.25809 0.0
H805 H 0.07964 0.50237 0.26624 0.0
C806 C 0.04863 0.55134 0.21074 0.0
C807 C 0.04179 0.5227 0.20086 0.0
C808 C 0.04692 0.55324 0.23207 0.0
C809 C 0.0387 0.5267 0.24385 0.0
C810 C 0.03168 0.49801 0.23399 0.0
H811 H 0.96298 0.47642 0.36787 0.0
H812 H 0.96907 0.48042 0.33071 0.0
C813 C 0.0333 0.49606 0.21265 0.0
C814 C 0.03671 0.52866 0.26644 0.0
H815 H 0.07456 0.5281 0.31103 0.0
C816 C 0.00979 0.5303 0.27486 0.0
C817 C 0.06092 0.52865 0.27962 0.0
C818 C 0.09151 0.52857 0.27141 0.0
C819 C 1.00575 0.53098 0.29616 0.0
C820 C 0.029 0.52959 0.30931 0.0
C821 C 0.05659 0.5289 0.3009 0.0
C822 C 0.02474 0.52813 0.33184 0.0
C823 C 0.97681 0.53336 0.30441 0.0
C824 C 0.05421 0.55343 0.34481 0.0
C825 C 0.05092 0.55118 0.3661 0.0
C826 C 0.01814 0.5234 0.37481 0.0
C827 C 0.98856 0.49823 0.36172 0.0
C828 C 0.99189 0.50055 0.34045 0.0
H829 H 0.96847 0.54335 0.29295 0.0
H830 H 0.95176 0.5077 0.30827 0.0
H831 H 0.98708 0.54994 0.31855 0.0
H832 H 0.07987 0.57483 0.33844 0.0
H833 H 0.07426 0.57097 0.37571 0.0
loop_
_geom_bond_atom_site_label_1
_geom_bond_atom_site_label_2
_geom_bond_distance
_geom_bond_site_symmetry_2
_ccdc_geom_bond_type
Ho0 C3 2.811 . S
Ho0 O20 2.322 . S
Ho0 O22 2.378 . S
Ho0 O23 2.524 . S
Ho0 O24 2.381 . S
Ho0 O25 2.669 . S
Ho0 O27 2.346 1_455 S
Ho0 O31 2.305 . S
Ho1 C12 2.811 . S
Ho1 O21 2.346 1_655 S
Ho1 O25 2.305 1_655 S
Ho1 O26 2.322 . S
Ho1 O28 2.378 . S
Ho1 O29 2.524 . S
Ho1 O30 2.381 1_655 S
Ho1 O31 2.669 1_655 S
C2 O20 1.259 . S
C2 O21 1.268 . S
C3 Ho0 2.811 . S
C3 C4 1.488 . S
C3 O22 1.215 . S
C3 O23 1.289 . S
C4 C3 1.488 . S
C4 C5 1.348 . S
C4 C9 1.413 . S
C5 C4 1.348 . S
C5 C6 1.442 . S
C5 H32 0.930 . S
C6 C5 1.442 . S
C6 C7 1.381 . S
C6 H33 0.931 . S
C7 C6 1.381 . S
C7 C8 1.321 . S
C8 C7 1.321 . S
C8 C9 1.403 . S
C8 H34 0.934 . S
C9 C4 1.413 . S
C9 C8 1.403 . S
C9 H35 0.930 . S
C10 O24 1.275 . S
C10 O25 1.256 . S
C11 O26 1.259 . S
C11 O27 1.268 . S
C12 Ho1 2.811 . S
C12 C13 1.488 . S
C12 O28 1.215 . S
C12 O29 1.289 . S
C13 C12 1.488 . S
C13 C14 1.348 . S
C13 C18 1.413 . S
C14 C13 1.348 . S
C14 C15 1.442 . S
C14 H36 0.930 . S
C15 C14 1.442 . S
C15 C16 1.381 . S
C15 H37 0.931 . S
C16 C15 1.381 . S
C16 C17 1.321 . S
C17 C16 1.321 . S
C17 C18 1.403 . S
C17 H38 0.934 . S
C18 C13 1.413 . S
C18 C17 1.403 . S
C18 H39 0.930 . S
C19 O30 1.275 . S
C19 O31 1.256 . S
O20 Ho0 2.322 . S
O20 C2 1.259 . S
O21 Ho1 2.346 1_455 S
O21 C2 1.268 . S
O22 Ho0 2.378 . S
O22 C3 1.215 . S
O23 Ho0 2.524 . S
O23 C3 1.289 . S
O24 Ho0 2.381 . S
O24 C10 1.275 . S
O25 Ho0 2.669 . S
O25 Ho1 2.305 1_455 S
O25 C10 1.256 . S
O26 Ho1 2.322 . S
O26 C11 1.259 . S
O27 Ho0 2.346 1_655 S
O27 C11 1.268 . S
O28 Ho1 2.378 . S
O28 C12 1.215 . S
O29 Ho1 2.524 . S
O29 C12 1.289 . S
O30 Ho1 2.381 1_455 S
O30 C19 1.275 . S
O31 Ho0 2.305 . S
O31 Ho1 2.669 1_455 S
O31 C19 1.256 . S
H32 C5 0.930 . S
H33 C6 0.931 . S
H34 C8 0.934 . S
H35 C9 0.930 . S
H36 C14 0.930 . S
H37 C15 0.931 . S
H38 C17 0.934 . S
H39 C18 0.930 . S
Ho40 C43 2.811 . S
Ho40 O60 2.322 . S
Ho40 O62 2.378 . S
Ho40 O63 2.524 . S
Ho40 O64 2.381 . S
Ho40 O65 2.669 1_565 S
Ho40 O67 2.346 1_565 S
Ho40 O71 2.305 1_565 S
Ho41 C52 2.811 . S
Ho41 O61 2.346 1_545 S
Ho41 O65 2.305 . S
Ho41 O66 2.322 . S
Ho41 O68 2.378 . S
Ho41 O69 2.524 . S
Ho41 O70 2.381 . S
Ho41 O71 2.669 . S
C42 O60 1.259 . S
C42 O61 1.268 . S
C43 Ho40 2.811 . S
C43 C44 1.488 . S
C43 O62 1.215 . S
C43 O63 1.289 . S
C44 C43 1.488 . S
C44 C45 1.348 . S
C44 C49 1.413 . S
C45 C44 1.348 . S
C45 C46 1.442 . S
C45 H72 0.930 . S
C46 C45 1.442 . S
C46 C47 1.381 . S
C46 H73 0.931 . S
C47 C46 1.381 . S
C47 C48 1.321 . S
C48 C47 1.321 . S
C48 C49 1.403 . S
C48 H74 0.934 . S
C49 C44 1.413 . S
C49 C48 1.403 . S
C49 H75 0.930 . S
C50 O64 1.275 1_545 S
C50 O65 1.256 . S
C51 O66 1.259 . S
C51 O67 1.268 . S
C52 Ho41 2.811 . S
C52 C53 1.488 . S
C52 O68 1.215 . S
C52 O69 1.289 . S
C53 C52 1.488 . S
C53 C54 1.348 . S
C53 C58 1.413 . S
C54 C53 1.348 . S
C54 C55 1.442 . S
C54 H76 0.930 . S
C55 C54 1.442 . S
C55 C56 1.381 . S
C55 H77 0.931 . S
C56 C55 1.381 . S
C56 C57 1.321 . S
C57 C56 1.321 . S
C57 C58 1.403 . S
C57 H78 0.934 . S
C58 C53 1.413 . S
C58 C57 1.403 . S
C58 H79 0.930 . S
C59 O70 1.275 . S
C59 O71 1.256 . S
O60 Ho40 2.322 . S
O60 C42 1.259 . S
O61 Ho41 2.346 1_565 S
O61 C42 1.268 . S
O62 Ho40 2.378 . S
O62 C43 1.215 . S
O63 Ho40 2.524 . S
O63 C43 1.289 . S
O64 Ho40 2.381 . S
O64 C50 1.275 1_565 S
O65 Ho40 2.669 1_545 S
O65 Ho41 2.305 . S
O65 C50 1.256 . S
O66 Ho41 2.322 . S
O66 C51 1.259 . S
O67 Ho40 2.346 1_545 S
O67 C51 1.268 . S
O68 Ho41 2.378 . S
O68 C52 1.215 . S
O69 Ho41 2.524 . S
O69 C52 1.289 . S
O70 Ho41 2.381 . S
O70 C59 1.275 . S
O71 Ho40 2.305 1_545 S
O71 Ho41 2.669 . S
O71 C59 1.256 . S
H72 C45 0.930 . S
H73 C46 0.931 . S
H74 C48 0.934 . S
H75 C49 0.930 . S
H76 C54 0.930 . S
H77 C55 0.931 . S
H78 C57 0.934 . S
H79 C58 0.930 . S
Ho80 C83 2.811 . S
Ho80 O100 2.322 . S
Ho80 O102 2.378 . S
Ho80 O103 2.524 . S
Ho80 O104 2.381 . S
Ho80 O105 2.669 . S
Ho80 O107 2.346 . S
Ho80 O111 2.305 . S
Ho81 C92 2.811 . S
Ho81 O101 2.346 . S
Ho81 O105 2.305 . S
Ho81 O106 2.322 . S
Ho81 O108 2.378 . S
Ho81 O109 2.524 . S
Ho81 O110 2.381 . S
Ho81 O111 2.669 . S
C82 O100 1.259 . S
C82 O101 1.268 . S
C83 Ho80 2.811 . S
C83 C84 1.488 . S
C83 O102 1.215 . S
C83 O103 1.289 . S
C84 C83 1.488 . S
C84 C85 1.348 . S
C84 C89 1.413 . S
C85 C84 1.348 . S
C85 C86 1.442 . S
C85 H112 0.930 . S
C86 C85 1.442 . S
C86 C87 1.381 . S
C86 H113 0.931 . S
C87 C86 1.381 . S
C87 C88 1.321 . S
C88 C87 1.321 . S
C88 C89 1.403 . S
C88 H114 0.934 . S
C89 C84 1.413 . S
C89 C88 1.403 . S
C89 H115 0.930 . S
C90 O104 1.275 . S
C90 O105 1.256 . S
C91 O106 1.259 . S
C91 O107 1.268 . S
C92 Ho81 2.811 . S
C92 C93 1.488 . S
C92 O108 1.215 . S
C92 O109 1.289 . S
C93 C92 1.488 . S
C93 C94 1.348 . S
C93 C98 1.413 . S
C94 C93 1.348 . S
C94 C95 1.442 . S
C94 H116 0.930 . S
C95 C94 1.442 . S
C95 C96 1.381 . S
C95 H117 0.931 . S
C96 C95 1.381 . S
C96 C97 1.321 . S
C97 C96 1.321 . S
C97 C98 1.403 . S
C97 H118 0.934 . S
C98 C93 1.413 . S
C98 C97 1.403 . S
C98 H119 0.930 . S
C99 O110 1.275 . S
C99 O111 1.256 . S
O100 Ho80 2.322 . S
O100 C82 1.259 . S
O101 Ho81 2.346 . S
O101 C82 1.268 . S
O102 Ho80 2.378 . S
O102 C83 1.215 . S
O103 Ho80 2.524 . S
O103 C83 1.289 . S
O104 Ho80 2.381 . S
O104 C90 1.275 . S
O105 Ho80 2.669 . S
O105 Ho81 2.305 . S
O105 C90 1.256 . S
O106 Ho81 2.322 . S
O106 C91 1.259 . S
O107 Ho80 2.346 . S
O107 C91 1.268 . S
O108 Ho81 2.378 . S
O108 C92 1.215 . S
O109 Ho81 2.524 . S
O109 C92 1.289 . S
O110 Ho81 2.381 . S
O110 C99 1.275 . S
O111 Ho80 2.305 . S
O111 Ho81 2.669 . S
O111 C99 1.256 . S
H112 C85 0.930 . S
H113 C86 0.931 . S
H114 C88 0.934 . S
H115 C89 0.930 . S
H116 C94 0.930 . S
H117 C95 0.931 . S
H118 C97 0.934 . S
H119 C98 0.930 . S
O120 Cd121 2.300 . S
O120 C127 1.275 . S
Cd121 O120 2.300 . S
Cd121 O129 2.381 . S
Cd121 O130 2.378 . S
O122 Cd123 2.397 . S
O122 C127 1.244 1_565 S
Cd123 O122 2.397 . S
Cd123 O124 2.317 . S
O124 Cd123 2.317 . S
O124 C125 1.232 . S
C125 O124 1.232 . S
C125 O126 1.218 . S
O126 C125 1.218 . S
C127 O120 1.275 . S
C127 O122 1.244 1_545 S
C128 O129 1.258 . S
C128 O130 1.256 . S
O129 Cd121 2.381 . S
O129 C128 1.258 . S
O130 Cd121 2.378 . S
O130 C128 1.256 . S
O131 Cd132 2.300 . S
O131 C138 1.275 . S
Cd132 O131 2.300 . S
Cd132 O140 2.381 . S
Cd132 O141 2.378 . S
O133 Cd134 2.385 . S
O133 C138 1.255 . S
Cd134 O133 2.385 . S
Cd134 O135 2.317 . S
O135 Cd134 2.317 . S
O135 C136 1.232 . S
C136 O135 1.232 . S
C136 O137 1.218 . S
O137 C136 1.218 . S
C138 O131 1.275 . S
C138 O133 1.255 . S
C139 O140 1.258 . S
C139 O141 1.256 . S
O140 Cd132 2.381 . S
O140 C139 1.258 . S
O141 Cd132 2.378 . S
O141 C139 1.256 . S
O142 Cd143 2.300 . S
O142 C149 1.275 . S
Cd143 O142 2.300 . S
Cd143 O151 2.381 . S
Cd143 O152 2.378 . S
O144 Cd145 2.385 1_455 S
O144 C149 1.255 . S
Cd145 O144 2.385 1_655 S
Cd145 O146 2.317 . S
O146 Cd145 2.317 . S
O146 C147 1.232 . S
C147 O146 1.232 . S
C147 O148 1.218 . S
O148 C147 1.218 . S
C149 O142 1.275 . S
C149 O144 1.255 . S
C150 O151 1.258 . S
C150 O152 1.256 . S
O151 Cd143 2.381 . S
O151 C150 1.258 . S
O152 Cd143 2.378 . S
O152 C150 1.256 . S
O153 Cd154 2.300 . S
O153 C160 1.275 1_455 S
Cd154 O153 2.300 . S
Cd154 O162 2.381 . S
Cd154 O163 2.378 . S
O155 Cd156 2.385 . S
O155 C160 1.255 . S
Cd156 O155 2.385 . S
Cd156 O157 2.317 . S
O157 Cd156 2.317 . S
O157 C158 1.232 . S
C158 O157 1.232 . S
C158 O159 1.218 . S
O159 C158 1.218 . S
C160 O153 1.275 1_655 S
C160 O155 1.255 . S
C161 O162 1.258 . S
C161 O163 1.256 . S
O162 Cd154 2.381 . S
O162 C161 1.258 . S
O163 Cd154 2.378 . S
O163 C161 1.256 . S
O164 Cd165 2.300 . S
O164 C171 1.275 1_565 S
Cd165 O164 2.300 . S
Cd165 O173 2.381 . S
Cd165 O174 2.378 . S
O166 Cd167 2.385 . S
O166 C171 1.255 . S
Cd167 O166 2.385 . S
Cd167 O168 2.317 . S
O168 Cd167 2.317 . S
O168 C169 1.232 . S
C169 O168 1.232 . S
C169 O170 1.218 . S
O170 C169 1.218 . S
C171 O164 1.275 1_545 S
C171 O166 1.255 . S
C172 O173 1.258 . S
C172 O174 1.256 . S
O173 Cd165 2.381 . S
O173 C172 1.258 . S
O174 Cd165 2.378 . S
O174 C172 1.256 . S
O175 Cd176 2.300 . S
O175 C182 1.275 . S
Cd176 O175 2.300 . S
Cd176 O184 2.381 . S
Cd176 O185 2.378 . S
O177 Cd178 2.385 . S
O177 C182 1.255 . S
Cd178 O177 2.385 . S
Cd178 O179 2.317 . S
O179 Cd178 2.317 . S
O179 C180 1.232 . S
C180 O179 1.232 . S
C180 O181 1.218 . S
O181 C180 1.218 . S
C182 O175 1.275 . S
C182 O177 1.255 . S
C183 O184 1.258 . S
C183 O185 1.256 . S
O184 Cd176 2.381 . S
O184 C183 1.258 . S
O185 Cd176 2.378 . S
O185 C183 1.256 . S
H186 C194 0.929 . S
H187 C196 0.930 . S
H188 C198 0.930 . S
H189 C201 0.929 . S
H190 C204 0.930 . S
H191 C206 0.960 . S
H192 C206 0.960 . S
H193 C206 0.960 . S
C194 H186 0.929 . S
C194 C195 1.377 . S
C194 C196 1.384 . S
C195 C194 1.377 . S
C195 C201 1.390 . S
C196 H187 0.930 . S
C196 C194 1.384 . S
C196 C197 1.372 . S
C197 C196 1.372 . S
C197 C198 1.400 . S
C197 C202 1.490 . S
C198 H188 0.930 . S
C198 C197 1.400 . S
C198 C201 1.386 . S
H199 C215 0.930 . S
H200 C216 0.931 . S
C201 H189 0.929 . S
C201 C195 1.390 . S
C201 C198 1.386 . S
C202 C197 1.490 . S
C202 C204 1.395 . S
C202 C205 1.403 . S
H203 C209 0.930 . S
C204 H190 0.930 . S
C204 C202 1.395 . S
C204 C207 1.403 . S
C205 C202 1.403 . S
C205 C206 1.524 . S
C205 C209 1.400 . S
C206 H191 0.960 . S
C206 H192 0.960 . S
C206 H193 0.960 . S
C206 C205 1.524 . S
C207 C204 1.403 . S
C207 C208 1.392 . S
C207 C211 1.495 . S
C208 C207 1.392 . S
C208 C209 1.385 . S
C208 C210 1.478 . S
C209 H203 0.930 . S
C209 C205 1.400 . S
C209 C208 1.385 . S
C210 C208 1.478 . S
C210 C212 1.381 . S
C210 C216 1.383 . S
C211 C207 1.495 . S
C211 H217 0.959 . S
C211 H218 0.961 . S
C211 H219 0.960 . S
C212 C210 1.381 . S
C212 C213 1.394 . S
C212 H220 0.930 . S
C213 C212 1.394 . S
C213 C214 1.383 . S
C213 H221 0.929 . S
C214 C213 1.383 . S
C214 C215 1.377 . S
C215 H199 0.930 . S
C215 C214 1.377 . S
C215 C216 1.379 . S
C216 H200 0.931 . S
C216 C210 1.383 . S
C216 C215 1.379 . S
H217 C211 0.959 . S
H218 C211 0.961 . S
H219 C211 0.960 . S
H220 C212 0.930 . S
H221 C213 0.929 . S
H222 C230 0.929 . S
H223 C232 0.930 . S
H224 C234 0.930 . S
H225 C237 0.929 . S
H226 C240 0.930 . S
H227 C242 0.960 . S
H228 C242 0.960 . S
H229 C242 0.960 . S
C230 H222 0.929 . S
C230 C231 1.377 . S
C230 C232 1.384 . S
C231 C230 1.377 . S
C231 C237 1.390 . S
C232 H223 0.930 . S
C232 C230 1.384 . S
C232 C233 1.372 . S
C233 C232 1.372 . S
C233 C234 1.400 . S
C233 C238 1.490 . S
C234 H224 0.930 . S
C234 C233 1.400 . S
C234 C237 1.386 . S
H235 C251 0.930 . S
H236 C252 0.931 . S
C237 H225 0.929 . S
C237 C231 1.390 . S
C237 C234 1.386 . S
C238 C233 1.490 . S
C238 C240 1.395 . S
C238 C241 1.403 . S
H239 C245 0.930 . S
C240 H226 0.930 . S
C240 C238 1.395 . S
C240 C243 1.403 . S
C241 C238 1.403 . S
C241 C242 1.524 . S
C241 C245 1.400 . S
C242 H227 0.960 . S
C242 H228 0.960 . S
C242 H229 0.960 . S
C242 C241 1.524 . S
C243 C240 1.403 . S
C243 C244 1.392 . S
C243 C247 1.495 . S
C244 C243 1.392 . S
C244 C245 1.385 . S
C244 C246 1.478 . S
C245 H239 0.930 . S
C245 C241 1.400 . S
C245 C244 1.385 . S
C246 C244 1.478 . S
C246 C248 1.381 . S
C246 C252 1.383 . S
C247 C243 1.495 . S
C247 H253 0.959 . S
C247 H254 0.961 . S
C247 H255 0.960 . S
C248 C246 1.381 . S
C248 C249 1.394 . S
C248 H256 0.930 . S
C249 C248 1.394 . S
C249 C250 1.383 . S
C249 H257 0.929 . S
C250 C249 1.383 . S
C250 C251 1.377 . S
C251 H235 0.930 . S
C251 C250 1.377 . S
C251 C252 1.379 . S
C252 H236 0.931 . S
C252 C246 1.383 . S
C252 C251 1.379 . S
H253 C247 0.959 . S
H254 C247 0.961 . S
H255 C247 0.960 . S
H256 C248 0.930 . S
H257 C249 0.929 . S
H258 C266 0.929 . S
H259 C268 0.930 . S
H260 C270 0.930 . S
H261 C273 0.929 . S
H262 C276 0.930 . S
H263 C278 0.960 . S
H264 C278 0.960 . S
H265 C278 0.960 . S
C266 H258 0.929 . S
C266 C267 1.377 . S
C266 C268 1.384 . S
C267 C266 1.377 . S
C267 C273 1.390 . S
C268 H259 0.930 . S
C268 C266 1.384 . S
C268 C269 1.372 . S
C269 C268 1.372 . S
C269 C270 1.400 . S
C269 C274 1.490 . S
C270 H260 0.930 . S
C270 C269 1.400 . S
C270 C273 1.386 . S
H271 C287 0.930 . S
H272 C288 0.931 . S
C273 H261 0.929 . S
C273 C267 1.390 . S
C273 C270 1.386 . S
C274 C269 1.490 . S
C274 C276 1.395 . S
C274 C277 1.403 . S
H275 C281 0.930 . S
C276 H262 0.930 . S
C276 C274 1.395 . S
C276 C279 1.403 . S
C277 C274 1.403 . S
C277 C278 1.524 . S
C277 C281 1.400 . S
C278 H263 0.960 . S
C278 H264 0.960 . S
C278 H265 0.960 . S
C278 C277 1.524 . S
C279 C276 1.403 . S
C279 C280 1.392 . S
C279 C283 1.495 . S
C280 C279 1.392 . S
C280 C281 1.385 . S
C280 C282 1.478 . S
C281 H275 0.930 . S
C281 C277 1.400 . S
C281 C280 1.385 . S
C282 C280 1.478 . S
C282 C284 1.381 . S
C282 C288 1.383 . S
C283 C279 1.495 . S
C283 H289 0.959 . S
C283 H290 0.961 . S
C283 H291 0.960 . S
C284 C282 1.381 . S
C284 C285 1.394 . S
C284 H292 0.930 . S
C285 C284 1.394 . S
C285 C286 1.383 . S
C285 H293 0.929 . S
C286 C285 1.383 . S
C286 C287 1.377 . S
C287 H271 0.930 . S
C287 C286 1.377 . S
C287 C288 1.379 . S
C288 H272 0.931 . S
C288 C282 1.383 . S
C288 C287 1.379 . S
H289 C283 0.959 . S
H290 C283 0.961 . S
H291 C283 0.960 . S
H292 C284 0.930 . S
H293 C285 0.929 . S
H294 C302 0.929 . S
H295 C304 0.930 . S
H296 C306 0.930 . S
H297 C309 0.929 . S
H298 C312 0.930 . S
H299 C314 0.960 . S
H300 C314 0.960 . S
H301 C314 0.960 . S
C302 H294 0.929 . S
C302 C303 1.377 . S
C302 C304 1.384 . S
C303 C302 1.377 . S
C303 C309 1.390 . S
C304 H295 0.930 . S
C304 C302 1.384 . S
C304 C305 1.372 . S
C305 C304 1.372 . S
C305 C306 1.400 . S
C305 C310 1.490 . S
C306 H296 0.930 . S
C306 C305 1.400 . S
C306 C309 1.386 . S
H307 C323 0.930 . S
H308 C324 0.931 . S
C309 H297 0.929 . S
C309 C303 1.390 . S
C309 C306 1.386 . S
C310 C305 1.490 . S
C310 C312 1.395 . S
C310 C313 1.403 . S
H311 C317 0.930 . S
C312 H298 0.930 . S
C312 C310 1.395 . S
C312 C315 1.403 . S
C313 C310 1.403 . S
C313 C314 1.524 . S
C313 C317 1.400 . S
C314 H299 0.960 . S
C314 H300 0.960 . S
C314 H301 0.960 . S
C314 C313 1.524 . S
C315 C312 1.403 . S
C315 C316 1.392 . S
C315 C319 1.495 . S
C316 C315 1.392 . S
C316 C317 1.385 . S
C316 C318 1.478 . S
C317 H311 0.930 . S
C317 C313 1.400 . S
C317 C316 1.385 . S
C318 C316 1.478 . S
C318 C320 1.381 . S
C318 C324 1.383 . S
C319 C315 1.495 . S
C319 H325 0.959 . S
C319 H326 0.961 . S
C319 H327 0.960 . S
C320 C318 1.381 . S
C320 C321 1.394 . S
C320 H328 0.930 . S
C321 C320 1.394 . S
C321 C322 1.383 . S
C321 H329 0.929 . S
C322 C321 1.383 . S
C322 C323 1.377 . S
C323 H307 0.930 . S
C323 C322 1.377 . S
C323 C324 1.379 . S
C324 H308 0.931 . S
C324 C318 1.383 . S
C324 C323 1.379 . S
H325 C319 0.959 . S
H326 C319 0.961 . S
H327 C319 0.960 . S
H328 C320 0.930 . S
H329 C321 0.929 . S
H330 C338 0.929 . S
H331 C340 0.930 . S
H332 C342 0.930 . S
H333 C345 0.929 . S
H334 C348 0.930 . S
H335 C350 0.960 . S
H336 C350 0.960 . S
H337 C350 0.960 . S
C338 H330 0.929 . S
C338 C339 1.377 . S
C338 C340 1.384 . S
C339 C338 1.377 . S
C339 C345 1.390 . S
C340 H331 0.930 . S
C340 C338 1.384 . S
C340 C341 1.372 . S
C341 C340 1.372 . S
C341 C342 1.400 . S
C341 C346 1.490 . S
C342 H332 0.930 . S
C342 C341 1.400 . S
C342 C345 1.386 . S
H343 C359 0.930 . S
H344 C360 0.931 . S
C345 H333 0.929 . S
C345 C339 1.390 . S
C345 C342 1.386 . S
C346 C341 1.490 . S
C346 C348 1.395 . S
C346 C349 1.403 . S
H347 C353 0.930 . S
C348 H334 0.930 . S
C348 C346 1.395 . S
C348 C351 1.403 . S
C349 C346 1.403 . S
C349 C350 1.524 . S
C349 C353 1.400 . S
C350 H335 0.960 . S
C350 H336 0.960 . S
C350 H337 0.960 . S
C350 C349 1.524 . S
C351 C348 1.403 . S
C351 C352 1.392 . S
C351 C355 1.495 . S
C352 C351 1.392 . S
C352 C353 1.385 . S
C352 C354 1.478 . S
C353 H347 0.930 . S
C353 C349 1.400 . S
C353 C352 1.385 . S
C354 C352 1.478 . S
C354 C356 1.381 . S
C354 C360 1.383 . S
C355 C351 1.495 . S
C355 H361 0.959 . S
C355 H362 0.961 . S
C355 H363 0.960 . S
C356 C354 1.381 . S
C356 C357 1.394 . S
C356 H364 0.930 . S
C357 C356 1.394 . S
C357 C358 1.383 . S
C357 H365 0.929 . S
C358 C357 1.383 . S
C358 C359 1.377 . S
C359 H343 0.930 . S
C359 C358 1.377 . S
C359 C360 1.379 . S
C360 H344 0.931 . S
C360 C354 1.383 . S
C360 C359 1.379 . S
H361 C355 0.959 . S
H362 C355 0.961 . S
H363 C355 0.960 . S
H364 C356 0.930 . S
H365 C357 0.929 . S
H366 C374 0.929 . S
H367 C376 0.930 . S
H368 C378 0.930 . S
H369 C381 0.929 . S
H370 C384 0.930 . S
H371 C386 0.960 . S
H372 C386 0.960 . S
H373 C386 0.960 . S
C374 H366 0.929 . S
C374 C375 1.377 . S
C374 C376 1.384 . S
C375 C374 1.377 . S
C375 C381 1.390 . S
C376 H367 0.930 . S
C376 C374 1.384 . S
C376 C377 1.372 . S
C377 C376 1.372 . S
C377 C378 1.400 . S
C377 C382 1.490 . S
C378 H368 0.930 . S
C378 C377 1.400 . S
C378 C381 1.386 . S
H379 C395 0.930 . S
H380 C396 0.931 . S
C381 H369 0.929 . S
C381 C375 1.390 . S
C381 C378 1.386 . S
C382 C377 1.490 . S
C382 C384 1.395 . S
C382 C385 1.403 . S
H383 C389 0.930 . S
C384 H370 0.930 . S
C384 C382 1.395 . S
C384 C387 1.403 . S
C385 C382 1.403 . S
C385 C386 1.524 . S
C385 C389 1.400 . S
C386 H371 0.960 . S
C386 H372 0.960 . S
C386 H373 0.960 . S
C386 C385 1.524 . S
C387 C384 1.403 . S
C387 C388 1.392 . S
C387 C391 1.495 . S
C388 C387 1.392 . S
C388 C389 1.385 . S
C388 C390 1.478 . S
C389 H383 0.930 . S
C389 C385 1.400 . S
C389 C388 1.385 . S
C390 C388 1.478 . S
C390 C392 1.381 . S
C390 C396 1.383 . S
C391 C387 1.495 . S
C391 H397 0.959 . S
C391 H398 0.961 . S
C391 H399 0.960 . S
C392 C390 1.381 . S
C392 C393 1.394 . S
C392 H400 0.930 . S
C393 C392 1.394 . S
C393 C394 1.383 . S
C393 H401 0.929 . S
C394 C393 1.383 . S
C394 C395 1.377 . S
C395 H379 0.930 . S
C395 C394 1.377 . S
C395 C396 1.379 . S
C396 H380 0.931 . S
C396 C390 1.383 . S
C396 C395 1.379 . S
H397 C391 0.959 . S
H398 C391 0.961 . S
H399 C391 0.960 . S
H400 C392 0.930 . S
H401 C393 0.929 . S
H402 C410 0.929 . S
H403 C412 0.930 . S
H404 C414 0.930 . S
H405 C417 0.929 . S
H406 C420 0.930 . S
H407 C422 0.960 . S
H408 C422 0.960 . S
H409 C422 0.960 . S
C410 H402 0.929 . S
C410 C411 1.377 . S
C410 C412 1.384 . S
C411 C410 1.377 . S
C411 C417 1.390 . S
C412 H403 0.930 . S
C412 C410 1.384 . S
C412 C413 1.372 . S
C413 C412 1.372 . S
C413 C414 1.400 . S
C413 C418 1.490 . S
C414 H404 0.930 . S
C414 C413 1.400 . S
C414 C417 1.386 . S
H415 C431 0.930 . S
H416 C432 0.931 . S
C417 H405 0.929 . S
C417 C411 1.390 . S
C417 C414 1.386 . S
C418 C413 1.490 . S
C418 C420 1.395 . S
C418 C421 1.403 . S
H419 C425 0.930 . S
C420 H406 0.930 . S
C420 C418 1.395 . S
C420 C423 1.403 . S
C421 C418 1.403 . S
C421 C422 1.524 . S
C421 C425 1.400 . S
C422 H407 0.960 . S
C422 H408 0.960 . S
C422 H409 0.960 . S
C422 C421 1.524 . S
C423 C420 1.403 . S
C423 C424 1.392 . S
C423 C427 1.495 . S
C424 C423 1.392 . S
C424 C425 1.385 . S
C424 C426 1.478 . S
C425 H419 0.930 . S
C425 C421 1.400 . S
C425 C424 1.385 . S
C426 C424 1.478 . S
C426 C428 1.381 . S
C426 C432 1.383 . S
C427 C423 1.495 . S
C427 H433 0.959 . S
C427 H434 0.961 . S
C427 H435 0.960 . S
C428 C426 1.381 . S
C428 C429 1.394 . S
C428 H436 0.930 . S
C429 C428 1.394 . S
C429 C430 1.383 . S
C429 H437 0.929 . S
C430 C429 1.383 . S
C430 C431 1.377 . S
C431 H415 0.930 . S
C431 C430 1.377 . S
C431 C432 1.379 . S
C432 H416 0.931 . S
C432 C426 1.383 . S
C432 C431 1.379 . S
H433 C427 0.959 . S
H434 C427 0.961 . S
H435 C427 0.960 . S
H436 C428 0.930 . S
H437 C429 0.929 . S
H438 C446 0.929 . S
H439 C448 0.930 . S
H440 C450 0.930 . S
H441 C453 0.929 . S
H442 C456 0.930 . S
H443 C458 0.960 . S
H444 C458 0.960 . S
H445 C458 0.960 . S
C446 H438 0.929 . S
C446 C447 1.377 . S
C446 C448 1.384 . S
C447 C446 1.377 . S
C447 C453 1.390 . S
C448 H439 0.930 . S
C448 C446 1.384 . S
C448 C449 1.372 . S
C449 C448 1.372 . S
C449 C450 1.400 . S
C449 C454 1.490 . S
C450 H440 0.930 . S
C450 C449 1.400 . S
C450 C453 1.386 . S
H451 C467 0.930 . S
H452 C468 0.931 . S
C453 H441 0.929 . S
C453 C447 1.390 . S
C453 C450 1.386 . S
C454 C449 1.490 . S
C454 C456 1.395 . S
C454 C457 1.403 . S
H455 C461 0.930 . S
C456 H442 0.930 . S
C456 C454 1.395 . S
C456 C459 1.403 . S
C457 C454 1.403 . S
C457 C458 1.524 . S
C457 C461 1.400 . S
C458 H443 0.960 . S
C458 H444 0.960 . S
C458 H445 0.960 . S
C458 C457 1.524 . S
C459 C456 1.403 . S
C459 C460 1.392 . S
C459 C463 1.495 . S
C460 C459 1.392 . S
C460 C461 1.385 . S
C460 C462 1.478 . S
C461 H455 0.930 . S
C461 C457 1.400 . S
C461 C460 1.385 . S
C462 C460 1.478 . S
C462 C464 1.381 . S
C462 C468 1.383 . S
C463 C459 1.495 . S
C463 H469 0.959 . S
C463 H470 0.961 . S
C463 H471 0.960 . S
C464 C462 1.381 . S
C464 C465 1.394 . S
C464 H472 0.930 . S
C465 C464 1.394 . S
C465 C466 1.383 . S
C465 H473 0.929 . S
C466 C465 1.383 . S
C466 C467 1.377 . S
C467 H451 0.930 . S
C467 C466 1.377 . S
C467 C468 1.379 . S
C468 H452 0.931 . S
C468 C462 1.383 . S
C468 C467 1.379 . S
H469 C463 0.959 . S
H470 C463 0.961 . S
H471 C463 0.960 . S
H472 C464 0.930 . S
H473 C465 0.929 . S
H474 C482 0.929 . S
H475 C484 0.930 . S
H476 C486 0.930 . S
H477 C489 0.929 . S
H478 C492 0.930 . S
H479 C494 0.960 . S
H480 C494 0.960 . S
H481 C494 0.960 . S
C482 H474 0.929 . S
C482 C483 1.377 . S
C482 C484 1.384 . S
C483 C482 1.377 . S
C483 C489 1.390 . S
C484 H475 0.930 . S
C484 C482 1.384 . S
C484 C485 1.372 . S
C485 C484 1.372 . S
C485 C486 1.400 . S
C485 C490 1.490 . S
C486 H476 0.930 . S
C486 C485 1.400 . S
C486 C489 1.386 . S
H487 C503 0.930 . S
H488 C504 0.931 . S
C489 H477 0.929 . S
C489 C483 1.390 . S
C489 C486 1.386 . S
C490 C485 1.490 . S
C490 C492 1.395 . S
C490 C493 1.403 . S
H491 C497 0.930 . S
C492 H478 0.930 . S
C492 C490 1.395 . S
C492 C495 1.403 . S
C493 C490 1.403 . S
C493 C494 1.524 . S
C493 C497 1.400 . S
C494 H479 0.960 . S
C494 H480 0.960 . S
C494 H481 0.960 . S
C494 C493 1.524 . S
C495 C492 1.403 . S
C495 C496 1.392 . S
C495 C499 1.495 . S
C496 C495 1.392 . S
C496 C497 1.385 . S
C496 C498 1.478 . S
C497 H491 0.930 . S
C497 C493 1.400 . S
C497 C496 1.385 . S
C498 C496 1.478 . S
C498 C500 1.381 . S
C498 C504 1.383 . S
C499 C495 1.495 . S
C499 H505 0.959 . S
C499 H506 0.961 . S
C499 H507 0.960 . S
C500 C498 1.381 . S
C500 C501 1.394 . S
C500 H508 0.930 . S
C501 C500 1.394 . S
C501 C502 1.383 . S
C501 H509 0.929 . S
C502 C501 1.383 . S
C502 C503 1.377 . S
C503 H487 0.930 . S
C503 C502 1.377 . S
C503 C504 1.379 . S
C504 H488 0.931 . S
C504 C498 1.383 . S
C504 C503 1.379 . S
H505 C499 0.959 . S
H506 C499 0.961 . S
H507 C499 0.960 . S
H508 C500 0.930 . S
H509 C501 0.929 . S
H510 C518 0.929 . S
H511 C520 0.930 . S
H512 C522 0.930 . S
H513 C525 0.929 . S
H514 C528 0.930 . S
H515 C530 0.960 . S
H516 C530 0.960 . S
H517 C530 0.960 . S
C518 H510 0.929 . S
C518 C519 1.377 . S
C518 C520 1.384 . S
C519 C518 1.377 . S
C519 C525 1.390 . S
C520 H511 0.930 . S
C520 C518 1.384 . S
C520 C521 1.372 . S
C521 C520 1.372 . S
C521 C522 1.400 . S
C521 C526 1.490 . S
C522 H512 0.930 . S
C522 C521 1.400 . S
C522 C525 1.386 . S
H523 C539 0.930 . S
H524 C540 0.931 . S
C525 H513 0.929 . S
C525 C519 1.390 . S
C525 C522 1.386 . S
C526 C521 1.490 . S
C526 C528 1.395 . S
C526 C529 1.403 . S
H527 C533 0.930 . S
C528 H514 0.930 . S
C528 C526 1.395 . S
C528 C531 1.403 . S
C529 C526 1.403 . S
C529 C530 1.524 . S
C529 C533 1.400 . S
C530 H515 0.960 . S
C530 H516 0.960 . S
C530 H517 0.960 . S
C530 C529 1.524 . S
C531 C528 1.403 . S
C531 C532 1.392 . S
C531 C535 1.495 . S
C532 C531 1.392 . S
C532 C533 1.385 . S
C532 C534 1.478 . S
C533 H527 0.930 . S
C533 C529 1.400 . S
C533 C532 1.385 . S
C534 C532 1.478 . S
C534 C536 1.381 . S
C534 C540 1.383 . S
C535 C531 1.495 . S
C535 H541 0.959 . S
C535 H542 0.961 . S
C535 H543 0.960 . S
C536 C534 1.381 . S
C536 C537 1.394 . S
C536 H544 0.930 . S
C537 C536 1.394 . S
C537 C538 1.383 . S
C537 H545 0.929 . S
C538 C537 1.383 . S
C538 C539 1.377 . S
C539 H523 0.930 . S
C539 C538 1.377 . S
C539 C540 1.379 . S
C540 H524 0.931 . S
C540 C534 1.383 . S
C540 C539 1.379 . S
H541 C535 0.959 . S
H542 C535 0.961 . S
H543 C535 0.960 . S
H544 C536 0.930 . S
H545 C537 0.929 . S
H546 C554 0.929 . S
H547 C556 0.930 . S
H548 C558 0.930 . S
H549 C561 0.929 . S
H550 C564 0.930 . S
H551 C566 0.960 . S
H552 C566 0.960 . S
H553 C566 0.960 . S
C554 H546 0.929 . S
C554 C555 1.377 . S
C554 C556 1.384 . S
C555 C554 1.377 . S
C555 C561 1.390 . S
C556 H547 0.930 . S
C556 C554 1.384 . S
C556 C557 1.372 . S
C557 C556 1.372 . S
C557 C558 1.400 . S
C557 C562 1.490 . S
C558 H548 0.930 . S
C558 C557 1.400 . S
C558 C561 1.386 . S
H559 C575 0.930 . S
H560 C576 0.931 . S
C561 H549 0.929 . S
C561 C555 1.390 . S
C561 C558 1.386 . S
C562 C557 1.490 . S
C562 C564 1.395 . S
C562 C565 1.403 . S
H563 C569 0.930 . S
C564 H550 0.930 . S
C564 C562 1.395 . S
C564 C567 1.403 . S
C565 C562 1.403 . S
C565 C566 1.524 . S
C565 C569 1.400 . S
C566 H551 0.960 . S
C566 H552 0.960 . S
C566 H553 0.960 . S
C566 C565 1.524 . S
C567 C564 1.403 . S
C567 C568 1.392 . S
C567 C571 1.495 . S
C568 C567 1.392 . S
C568 C569 1.385 . S
C568 C570 1.478 . S
C569 H563 0.930 . S
C569 C565 1.400 . S
C569 C568 1.385 . S
C570 C568 1.478 . S
C570 C572 1.381 . S
C570 C576 1.383 . S
C571 C567 1.495 . S
C571 H577 0.959 . S
C571 H578 0.961 . S
C571 H579 0.960 . S
C572 C570 1.381 . S
C572 C573 1.394 . S
C572 H580 0.930 . S
C573 C572 1.394 . S
C573 C574 1.383 . S
C573 H581 0.929 . S
C574 C573 1.383 . S
C574 C575 1.377 . S
C575 H559 0.930 . S
C575 C574 1.377 . S
C575 C576 1.379 . S
C576 H560 0.931 . S
C576 C570 1.383 . S
C576 C575 1.379 . S
H577 C571 0.959 . S
H578 C571 0.961 . S
H579 C571 0.960 . S
H580 C572 0.930 . S
H581 C573 0.929 . S
H582 C590 0.929 . S
H583 C592 0.930 . S
H584 C594 0.930 . S
H585 C597 0.929 . S
H586 C600 0.930 . S
H587 C602 0.960 . S
H588 C602 0.960 . S
H589 C602 0.960 . S
C590 H582 0.929 . S
C590 C591 1.377 . S
C590 C592 1.384 . S
C591 C590 1.377 . S
C591 C597 1.390 . S
C592 H583 0.930 . S
C592 C590 1.384 . S
C592 C593 1.372 . S
C593 C592 1.372 . S
C593 C594 1.400 . S
C593 C598 1.490 . S
C594 H584 0.930 . S
C594 C593 1.400 . S
C594 C597 1.386 . S
H595 C611 0.930 . S
H596 C612 0.931 . S
C597 H585 0.929 . S
C597 C591 1.390 . S
C597 C594 1.386 . S
C598 C593 1.490 . S
C598 C600 1.395 . S
C598 C601 1.403 . S
H599 C605 0.930 . S
C600 H586 0.930 . S
C600 C598 1.395 . S
C600 C603 1.403 . S
C601 C598 1.403 . S
C601 C602 1.524 . S
C601 C605 1.400 . S
C602 H587 0.960 . S
C602 H588 0.960 . S
C602 H589 0.960 . S
C602 C601 1.524 . S
C603 C600 1.403 . S
C603 C604 1.392 . S
C603 C607 1.495 . S
C604 C603 1.392 . S
C604 C605 1.385 . S
C604 C606 1.478 . S
C605 H599 0.930 . S
C605 C601 1.400 . S
C605 C604 1.385 . S
C606 C604 1.478 . S
C606 C608 1.381 . S
C606 C612 1.383 . S
C607 C603 1.495 . S
C607 H613 0.959 . S
C607 H614 0.961 . S
C607 H615 0.960 . S
C608 C606 1.381 . S
C608 C609 1.394 . S
C608 H616 0.930 . S
C609 C608 1.394 . S
C609 C610 1.383 . S
C609 H617 0.929 . S
C610 C609 1.383 . S
C610 C611 1.377 . S
C611 H595 0.930 . S
C611 C610 1.377 . S
C611 C612 1.379 . S
C612 H596 0.931 . S
C612 C606 1.383 . S
C612 C611 1.379 . S
H613 C607 0.959 . S
H614 C607 0.961 . S
H615 C607 0.960 . S
H616 C608 0.930 . S
H617 C609 0.929 . S
H618 C626 0.929 . S
H619 C628 0.930 . S
H620 C630 0.930 . S
H621 C633 0.929 . S
H622 C636 0.930 . S
H623 C638 0.960 . S
H624 C638 0.960 1_455 S
H625 C638 0.960 . S
C626 H618 0.929 . S
C626 C627 1.377 . S
C626 C628 1.384 . S
C627 C626 1.377 . S
C627 C633 1.390 1_455 S
C628 H619 0.930 . S
C628 C626 1.384 . S
C628 C629 1.372 . S
C629 C628 1.372 . S
C629 C630 1.400 1_455 S
C629 C634 1.490 . S
C630 H620 0.930 . S
C630 C629 1.400 1_655 S
C630 C633 1.386 . S
H631 C647 0.930 1_655 S
H632 C648 0.931 1_655 S
C633 H621 0.929 . S
C633 C627 1.390 1_655 S
C633 C630 1.386 . S
C634 C629 1.490 . S
C634 C636 1.395 . S
C634 C637 1.403 . S
H635 C641 0.932 1_655 S
C636 H622 0.930 . S
C636 C634 1.395 . S
C636 C639 1.403 . S
C637 C634 1.403 . S
C637 C638 1.524 1_455 S
C637 C641 1.400 . S
C638 H623 0.960 . S
C638 H624 0.960 1_655 S
C638 H625 0.960 . S
C638 C637 1.524 1_655 S
C639 C636 1.403 . S
C639 C640 1.365 1_554 S
C639 C643 1.482 1_554 S
C640 C639 1.365 1_556 S
C640 C641 1.359 1_556 S
C640 C642 1.532 . S
C641 H635 0.932 1_455 S
C641 C637 1.400 . S
C641 C640 1.359 1_554 S
C642 C640 1.532 . S
C642 C644 1.381 . S
C642 C648 1.383 . S
C643 C639 1.482 1_556 S
C643 H649 0.938 1_556 S
C643 H650 0.980 . S
C643 H651 0.977 . S
C644 C642 1.381 . S
C644 C645 1.394 . S
C644 H652 0.930 . S
C645 C644 1.394 . S
C645 C646 1.383 . S
C645 H653 0.929 . S
C646 C645 1.383 . S
C646 C647 1.377 . S
C647 H631 0.930 1_455 S
C647 C646 1.377 . S
C647 C648 1.379 . S
C648 H632 0.931 1_455 S
C648 C642 1.383 . S
C648 C647 1.379 . S
H649 C643 0.938 1_554 S
H650 C643 0.980 . S
H651 C643 0.977 . S
H652 C644 0.930 . S
H653 C645 0.929 . S
H654 C662 0.929 . S
H655 C664 0.930 . S
H656 C666 0.930 . S
H657 C669 0.929 . S
H658 C672 0.930 . S
H659 C674 0.960 . S
H660 C674 0.960 . S
H661 C674 0.960 . S
C662 H654 0.929 . S
C662 C663 1.377 . S
C662 C664 1.384 . S
C663 C662 1.377 . S
C663 C669 1.390 . S
C664 H655 0.930 . S
C664 C662 1.384 . S
C664 C665 1.372 . S
C665 C664 1.372 . S
C665 C666 1.400 . S
C665 C670 1.490 . S
C666 H656 0.930 . S
C666 C665 1.400 . S
C666 C669 1.386 . S
H667 C683 0.930 . S
H668 C684 0.931 . S
C669 H657 0.929 . S
C669 C663 1.390 . S
C669 C666 1.386 . S
C670 C665 1.490 . S
C670 C672 1.395 . S
C670 C673 1.403 1_545 S
H671 C677 0.930 . S
C672 H658 0.930 . S
C672 C670 1.395 . S
C672 C675 1.403 . S
C673 C670 1.403 1_565 S
C673 C674 1.524 . S
C673 C677 1.400 . S
C674 H659 0.960 . S
C674 H660 0.960 . S
C674 H661 0.960 . S
C674 C673 1.524 . S
C675 C672 1.403 . S
C675 C676 1.392 . S
C675 C679 1.495 . S
C676 C675 1.392 . S
C676 C677 1.385 1_545 S
C676 C678 1.478 . S
C677 H671 0.930 . S
C677 C673 1.400 . S
C677 C676 1.385 1_565 S
C678 C676 1.478 . S
C678 C680 1.381 . S
C678 C684 1.383 . S
C679 C675 1.495 . S
C679 H685 0.959 . S
C679 H686 0.961 . S
C679 H687 0.960 . S
C680 C678 1.381 . S
C680 C681 1.394 . S
C680 H688 0.930 . S
C681 C680 1.394 . S
C681 C682 1.383 . S
C681 H689 0.929 . S
C682 C681 1.383 . S
C682 C683 1.377 . S
C683 H667 0.930 . S
C683 C682 1.377 . S
C683 C684 1.379 . S
C684 H668 0.931 . S
C684 C678 1.383 . S
C684 C683 1.379 . S
H685 C679 0.959 . S
H686 C679 0.961 . S
H687 C679 0.960 . S
H688 C680 0.930 . S
H689 C681 0.929 . S
H690 C698 0.929 . S
H691 C700 0.930 . S
H692 C702 0.930 . S
H693 C705 0.929 . S
H694 C708 0.930 . S
H695 C710 0.960 . S
H696 C710 0.960 . S
H697 C710 0.960 . S
C698 H690 0.929 . S
C698 C699 1.377 . S
C698 C700 1.384 . S
C699 C698 1.377 . S
C699 C705 1.390 . S
C700 H691 0.930 . S
C700 C698 1.384 . S
C700 C701 1.372 . S
C701 C700 1.372 . S
C701 C702 1.400 . S
C701 C706 1.490 . S
C702 H692 0.930 . S
C702 C701 1.400 . S
C702 C705 1.386 . S
H703 C719 0.930 . S
H704 C720 0.931 . S
C705 H693 0.929 . S
C705 C699 1.390 . S
C705 C702 1.386 . S
C706 C701 1.490 . S
C706 C708 1.395 . S
C706 C709 1.403 . S
H707 C713 0.930 . S
C708 H694 0.930 . S
C708 C706 1.395 . S
C708 C711 1.403 . S
C709 C706 1.403 . S
C709 C710 1.524 . S
C709 C713 1.400 . S
C710 H695 0.960 . S
C710 H696 0.960 . S
C710 H697 0.960 . S
C710 C709 1.524 . S
C711 C708 1.403 . S
C711 C712 1.392 . S
C711 C715 1.495 . S
C712 C711 1.392 . S
C712 C713 1.385 . S
C712 C714 1.478 . S
C713 H707 0.930 . S
C713 C709 1.400 . S
C713 C712 1.385 . S
C714 C712 1.478 . S
C714 C716 1.381 . S
C714 C720 1.383 . S
C715 C711 1.495 . S
C715 H721 0.959 . S
C715 H722 0.961 . S
C715 H723 0.960 . S
C716 C714 1.381 . S
C716 C717 1.394 . S
C716 H724 0.930 . S
C717 C716 1.394 . S
C717 C718 1.383 . S
C717 H725 0.929 . S
C718 C717 1.383 . S
C718 C719 1.377 . S
C719 H703 0.930 . S
C719 C718 1.377 . S
C719 C720 1.379 . S
C720 H704 0.931 . S
C720 C714 1.383 . S
C720 C719 1.379 . S
H721 C715 0.959 . S
H722 C715 0.961 . S
H723 C715 0.960 . S
H724 C716 0.930 . S
H725 C717 0.929 . S
H726 C734 0.929 . S
H727 C736 0.930 . S
H728 C738 0.930 . S
H729 C741 0.929 . S
H730 C744 0.930 . S
H731 C746 0.960 . S
H732 C746 0.960 . S
H733 C746 0.960 . S
C734 H726 0.929 . S
C734 C735 1.377 . S
C734 C736 1.384 . S
C735 C734 1.377 . S
C735 C741 1.390 1_545 S
C736 H727 0.930 . S
C736 C734 1.384 . S
C736 C737 1.372 . S
C737 C736 1.372 . S
C737 C738 1.400 1_545 S
C737 C742 1.490 . S
C738 H728 0.930 . S
C738 C737 1.400 1_565 S
C738 C741 1.386 . S
H739 C755 0.928 . S
H740 C756 0.931 . S
C741 H729 0.929 . S
C741 C735 1.390 1_565 S
C741 C738 1.386 . S
C742 C737 1.490 . S
C742 C744 1.395 . S
C742 C745 1.403 1_545 S
H743 C749 0.930 . S
C744 H730 0.930 . S
C744 C742 1.395 . S
C744 C747 1.403 . S
C745 C742 1.403 1_565 S
C745 C746 1.524 . S
C745 C749 1.400 . S
C746 H731 0.960 . S
C746 H732 0.960 . S
C746 H733 0.960 . S
C746 C745 1.524 . S
C747 C744 1.403 . S
C747 C748 1.392 . S
C747 C751 1.495 . S
C748 C747 1.392 . S
C748 C749 1.385 1_545 S
C748 C750 1.478 . S
C749 H743 0.930 . S
C749 C745 1.400 . S
C749 C748 1.385 1_565 S
C750 C748 1.478 . S
C750 C752 1.381 . S
C750 C756 1.383 . S
C751 C747 1.495 . S
C751 H757 0.959 . S
C751 H758 0.961 . S
C751 H759 0.960 . S
C752 C750 1.381 . S
C752 C753 1.394 . S
C752 H760 0.930 . S
C753 C752 1.394 . S
C753 C754 1.383 . S
C753 H761 0.929 . S
C754 C753 1.383 . S
C754 C755 1.377 . S
C755 H739 0.928 . S
C755 C754 1.377 . S
C755 C756 1.379 . S
C756 H740 0.931 . S
C756 C750 1.383 . S
C756 C755 1.379 . S
H757 C751 0.959 . S
H758 C751 0.961 . S
H759 C751 0.960 . S
H760 C752 0.930 . S
H761 C753 0.929 . S
H762 C770 0.929 . S
H763 C772 0.930 . S
H764 C774 0.930 . S
H765 C777 0.929 . S
H766 C780 0.930 . S
H767 C782 0.960 . S
H768 C782 0.960 . S
H769 C782 0.960 . S
C770 H762 0.929 . S
C770 C771 1.377 . S
C770 C772 1.384 . S
C771 C770 1.377 . S
C771 C777 1.390 . S
C772 H763 0.930 . S
C772 C770 1.384 . S
C772 C773 1.372 . S
C773 C772 1.372 . S
C773 C774 1.400 . S
C773 C778 1.490 . S
C774 H764 0.930 . S
C774 C773 1.400 . S
C774 C777 1.386 . S
H775 C791 0.930 . S
H776 C792 0.931 . S
C777 H765 0.929 . S
C777 C771 1.390 . S
C777 C774 1.386 . S
C778 C773 1.490 . S
C778 C780 1.395 . S
C778 C781 1.403 . S
H779 C785 0.930 . S
C780 H766 0.930 . S
C780 C778 1.395 . S
C780 C783 1.403 . S
C781 C778 1.403 . S
C781 C782 1.524 . S
C781 C785 1.400 . S
C782 H767 0.960 . S
C782 H768 0.960 . S
C782 H769 0.960 . S
C782 C781 1.524 . S
C783 C780 1.403 . S
C783 C784 1.392 1_556 S
C783 C787 1.495 1_556 S
C784 C783 1.392 1_554 S
C784 C785 1.385 1_554 S
C784 C786 1.478 . S
C785 H779 0.930 . S
C785 C781 1.400 . S
C785 C784 1.385 1_556 S
C786 C784 1.478 . S
C786 C788 1.381 . S
C786 C792 1.383 . S
C787 C783 1.495 1_554 S
C787 H793 0.959 1_554 S
C787 H794 0.961 . S
C787 H795 0.960 . S
C788 C786 1.381 . S
C788 C789 1.394 . S
C788 H796 0.930 . S
C789 C788 1.394 . S
C789 C790 1.383 . S
C789 H797 0.929 . S
C790 C789 1.383 . S
C790 C791 1.377 . S
C791 H775 0.930 . S
C791 C790 1.377 . S
C791 C792 1.379 . S
C792 H776 0.931 . S
C792 C786 1.383 . S
C792 C791 1.379 . S
H793 C787 0.959 1_556 S
H794 C787 0.961 . S
H795 C787 0.960 . S
H796 C788 0.930 . S
H797 C789 0.929 . S
H798 C806 0.929 . S
H799 C808 0.930 . S
H800 C810 0.930 . S
H801 C813 0.929 . S
H802 C816 0.930 . S
H803 C818 0.960 . S
H804 C818 0.960 . S
H805 C818 0.960 . S
C806 H798 0.929 . S
C806 C807 1.377 . S
C806 C808 1.384 . S
C807 C806 1.377 . S
C807 C813 1.390 . S
C808 H799 0.930 . S
C808 C806 1.384 . S
C808 C809 1.372 . S
C809 C808 1.372 . S
C809 C810 1.400 . S
C809 C814 1.490 . S
C810 H800 0.930 . S
C810 C809 1.400 . S
C810 C813 1.386 . S
H811 C827 0.930 . S
H812 C828 0.931 . S
C813 H801 0.929 . S
C813 C807 1.390 . S
C813 C810 1.386 . S
C814 C809 1.490 . S
C814 C816 1.395 1_455 S
C814 C817 1.403 . S
H815 C821 0.930 . S
C816 H802 0.930 . S
C816 C814 1.395 1_655 S
C816 C819 1.403 . S
C817 C814 1.403 . S
C817 C818 1.524 . S
C817 C821 1.400 . S
C818 H803 0.960 . S
C818 H804 0.960 . S
C818 H805 0.960 . S
C818 C817 1.524 . S
C819 C816 1.403 . S
C819 C820 1.392 . S
C819 C823 1.495 . S
C820 C819 1.392 . S
C820 C821 1.385 1_655 S
C820 C822 1.478 . S
C821 H815 0.930 . S
C821 C817 1.400 . S
C821 C820 1.385 1_455 S
C822 C820 1.478 . S
C822 C824 1.383 1_655 S
C822 C828 1.383 . S
C823 C819 1.495 . S
C823 H829 0.959 . S
C823 H830 0.961 . S
C823 H831 0.960 . S
C824 C822 1.383 1_455 S
C824 C825 1.394 1_455 S
C824 H832 0.928 . S
C825 C824 1.394 1_655 S
C825 C826 1.381 . S
C825 H833 0.932 1_655 S
C826 C825 1.381 . S
C826 C827 1.377 . S
C827 H811 0.930 . S
C827 C826 1.377 . S
C827 C828 1.379 . S
C828 H812 0.931 . S
C828 C822 1.383 . S
C828 C827 1.379 . S
H829 C823 0.959 . S
H830 C823 0.961 . S
H831 C823 0.960 . S
H832 C824 0.928 . S
H833 C825 0.932 1_455 S
C195 C7 0.587 . S
C214 C180 0.736 . S
C231 C51 2.064 . S
C250 C158 1.751 . S
C267 C87 0.982 . S
C286 C172 0.937 . S
C303 C16 0.283 . S
C322 C183 0.213 . S
C358 C161 1.750 . S
C339 C42 1.800 . S
C394 C169 1.253 . S
C375 C96 1.425 . S
C411 C47 1.367 . S
C430 C136 1.217 . S
C447 C91 3.299 . S
C466 C147 2.936 . S
C483 C2 2.151 . S
C502 C125 1.877 . S
C538 C139 0.995 . S
C519 C56 1.035 . S
C574 C150 2.749 . S
C555 C82 2.802 . S
C591 C11 1.717 . S
C610 C128 1.657 . S
C646 C149 1.609 . S
C627 C19 1.647 . S
C663 C50 1.423 . S
C682 C127 1.390 . S
C699 C99 1.515 . S
C718 C138 1.462 . S
C754 C171 1.450 . S
C735 C59 1.475 . S
C790 C182 1.188 . S
C771 C90 1.269 . S
C807 C10 1.434 . S
C826 C160 1.397 . S
