# Generated by pormake.
# Topology ctn, (3,4)-cn, num edge types: 1
# Building blocks:
#     Node 0, Type 0, BuildingBlock: WUSLED_clean_sbu_0, # of connection points: 3
#     Node 1, Type 0, BuildingBlock: WUSLED_clean_sbu_0, # of connection points: 3
#     Node 2, Type 0, BuildingBlock: WUSLED_clean_sbu_0, # of connection points: 3
#     Node 3, Type 0, BuildingBlock: WUSLED_clean_sbu_0, # of connection points: 3
#     Node 4, Type 0, BuildingBlock: WUSLED_clean_sbu_0, # of connection points: 3
#     Node 5, Type 0, BuildingBlock: WUSLED_clean_sbu_0, # of connection points: 3
#     Node 6, Type 0, BuildingBlock: WUSLED_clean_sbu_0, # of connection points: 3
#     Node 7, Type 0, BuildingBlock: WUSLED_clean_sbu_0, # of connection points: 3
#     Node 8, Type 0, BuildingBlock: WUSLED_clean_sbu_0, # of connection points: 3
#     Node 9, Type 0, BuildingBlock: WUSLED_clean_sbu_0, # of connection points: 3
#     Node 10, Type 0, BuildingBlock: WUSLED_clean_sbu_0, # of connection points: 3
#     Node 11, Type 0, BuildingBlock: WUSLED_clean_sbu_0, # of connection points: 3
#     Node 12, Type 0, BuildingBlock: WUSLED_clean_sbu_0, # of connection points: 3
#     Node 13, Type 0, BuildingBlock: WUSLED_clean_sbu_0, # of connection points: 3
#     Node 14, Type 0, BuildingBlock: WUSLED_clean_sbu_0, # of connection points: 3
#     Node 15, Type 0, BuildingBlock: WUSLED_clean_sbu_0, # of connection points: 3
#     Node 16, Type 1, BuildingBlock: UXUYUI_clean_sbu_0, # of connection points: 4
#     Node 17, Type 1, BuildingBlock: UXUYUI_clean_sbu_0, # of connection points: 4
#     Node 18, Type 1, BuildingBlock: UXUYUI_clean_sbu_0, # of connection points: 4
#     Node 19, Type 1, BuildingBlock: UXUYUI_clean_sbu_0, # of connection points: 4
#     Node 20, Type 1, BuildingBlock: UXUYUI_clean_sbu_0, # of connection points: 4
#     Node 21, Type 1, BuildingBlock: UXUYUI_clean_sbu_0, # of connection points: 4
#     Node 22, Type 1, BuildingBlock: UXUYUI_clean_sbu_0, # of connection points: 4
#     Node 23, Type 1, BuildingBlock: UXUYUI_clean_sbu_0, # of connection points: 4
#     Node 24, Type 1, BuildingBlock: UXUYUI_clean_sbu_0, # of connection points: 4
#     Node 25, Type 1, BuildingBlock: UXUYUI_clean_sbu_0, # of connection points: 4
#     Node 26, Type 1, BuildingBlock: UXUYUI_clean_sbu_0, # of connection points: 4
#     Node 27, Type 1, BuildingBlock: UXUYUI_clean_sbu_0, # of connection points: 4
#     Edge 28, Type (0, 1), BuildingBlock: TEMPAE_clean_linker_10, # of connection points: 2
#     Edge 29, Type (0, 1), BuildingBlock: TEMPAE_clean_linker_10, # of connection points: 2
#     Edge 30, Type (0, 1), BuildingBlock: TEMPAE_clean_linker_10, # of connection points: 2
#     Edge 31, Type (0, 1), BuildingBlock: TEMPAE_clean_linker_10, # of connection points: 2
#     Edge 32, Type (0, 1), BuildingBlock: TEMPAE_clean_linker_10, # of connection points: 2
#     Edge 33, Type (0, 1), BuildingBlock: TEMPAE_clean_linker_10, # of connection points: 2
#     Edge 34, Type (0, 1), BuildingBlock: TEMPAE_clean_linker_10, # of connection points: 2
#     Edge 35, Type (0, 1), BuildingBlock: TEMPAE_clean_linker_10, # of connection points: 2
#     Edge 36, Type (0, 1), BuildingBlock: TEMPAE_clean_linker_10, # of connection points: 2
#     Edge 37, Type (0, 1), BuildingBlock: TEMPAE_clean_linker_10, # of connection points: 2
#     Edge 38, Type (0, 1), BuildingBlock: TEMPAE_clean_linker_10, # of connection points: 2
#     Edge 39, Type (0, 1), BuildingBlock: TEMPAE_clean_linker_10, # of connection points: 2
#     Edge 40, Type (0, 1), BuildingBlock: TEMPAE_clean_linker_10, # of connection points: 2
#     Edge 41, Type (0, 1), BuildingBlock: TEMPAE_clean_linker_10, # of connection points: 2
#     Edge 42, Type (0, 1), BuildingBlock: TEMPAE_clean_linker_10, # of connection points: 2
#     Edge 43, Type (0, 1), BuildingBlock: TEMPAE_clean_linker_10, # of connection points: 2
#     Edge 44, Type (0, 1), BuildingBlock: TEMPAE_clean_linker_10, # of connection points: 2
#     Edge 45, Type (0, 1), BuildingBlock: TEMPAE_clean_linker_10, # of connection points: 2
#     Edge 46, Type (0, 1), BuildingBlock: TEMPAE_clean_linker_10, # of connection points: 2
#     Edge 47, Type (0, 1), BuildingBlock: TEMPAE_clean_linker_10, # of connection points: 2
#     Edge 48, Type (0, 1), BuildingBlock: TEMPAE_clean_linker_10, # of connection points: 2
#     Edge 49, Type (0, 1), BuildingBlock: TEMPAE_clean_linker_10, # of connection points: 2
#     Edge 50, Type (0, 1), BuildingBlock: TEMPAE_clean_linker_10, # of connection points: 2
#     Edge 51, Type (0, 1), BuildingBlock: TEMPAE_clean_linker_10, # of connection points: 2
#     Edge 52, Type (0, 1), BuildingBlock: TEMPAE_clean_linker_10, # of connection points: 2
#     Edge 53, Type (0, 1), BuildingBlock: TEMPAE_clean_linker_10, # of connection points: 2
#     Edge 54, Type (0, 1), BuildingBlock: TEMPAE_clean_linker_10, # of connection points: 2
#     Edge 55, Type (0, 1), BuildingBlock: TEMPAE_clean_linker_10, # of connection points: 2
#     Edge 56, Type (0, 1), BuildingBlock: TEMPAE_clean_linker_10, # of connection points: 2
#     Edge 57, Type (0, 1), BuildingBlock: TEMPAE_clean_linker_10, # of connection points: 2
#     Edge 58, Type (0, 1), BuildingBlock: TEMPAE_clean_linker_10, # of connection points: 2
#     Edge 59, Type (0, 1), BuildingBlock: TEMPAE_clean_linker_10, # of connection points: 2
#     Edge 60, Type (0, 1), BuildingBlock: TEMPAE_clean_linker_10, # of connection points: 2
#     Edge 61, Type (0, 1), BuildingBlock: TEMPAE_clean_linker_10, # of connection points: 2
#     Edge 62, Type (0, 1), BuildingBlock: TEMPAE_clean_linker_10, # of connection points: 2
#     Edge 63, Type (0, 1), BuildingBlock: TEMPAE_clean_linker_10, # of connection points: 2
#     Edge 64, Type (0, 1), BuildingBlock: TEMPAE_clean_linker_10, # of connection points: 2
#     Edge 65, Type (0, 1), BuildingBlock: TEMPAE_clean_linker_10, # of connection points: 2
#     Edge 66, Type (0, 1), BuildingBlock: TEMPAE_clean_linker_10, # of connection points: 2
#     Edge 67, Type (0, 1), BuildingBlock: TEMPAE_clean_linker_10, # of connection points: 2
#     Edge 68, Type (0, 1), BuildingBlock: TEMPAE_clean_linker_10, # of connection points: 2
#     Edge 69, Type (0, 1), BuildingBlock: TEMPAE_clean_linker_10, # of connection points: 2
#     Edge 70, Type (0, 1), BuildingBlock: TEMPAE_clean_linker_10, # of connection points: 2
#     Edge 71, Type (0, 1), BuildingBlock: TEMPAE_clean_linker_10, # of connection points: 2
#     Edge 72, Type (0, 1), BuildingBlock: TEMPAE_clean_linker_10, # of connection points: 2
#     Edge 73, Type (0, 1), BuildingBlock: TEMPAE_clean_linker_10, # of connection points: 2
#     Edge 74, Type (0, 1), BuildingBlock: TEMPAE_clean_linker_10, # of connection points: 2
#     Edge 75, Type (0, 1), BuildingBlock: TEMPAE_clean_linker_10, # of connection points: 2
# Relax obj value: 0.001
# Max RMSD: 0.015
# Mean RMSD: 0.010
data_MOF--net-ctn--node1-WUSLED_clean_sbu_0--node2-UXUYUI_clean_sbu_0--edge1-TEMPAE_clean_linker_10
_symmetry_space_group_name_H-M    P1
_symmetry_Int_Tables_number       1
_symmetry_cell_setting            triclinic
loop_
_symmetry_equiv_pos_as_xyz
'x, y, z'
_cell_length_a     84.576175
_cell_length_b     85.094296
_cell_length_c     84.837232
_cell_angle_alpha  90.604561
_cell_angle_beta   90.018631
_cell_angle_gamma 89.994692
loop_
_atom_site_label
_atom_site_type_symbol
_atom_site_fract_x
_atom_site_fract_y
_atom_site_fract_z
_atom_type_partial_charge
C0 C 0.01858 0.05533 0.08355 0.0
C1 C 0.02542 0.04625 0.09548 0.0
C2 C 1.00052 0.04644 0.11013 0.0
C3 C 0.01648 0.04188 0.10868 0.0
C4 C 0.99375 0.05542 0.09803 0.0
C5 C 1.00268 0.0598 0.08491 0.0
U6 U 0.05348 0.05234 0.05428 0.0
O7 O 0.05348 0.05572 0.02854 0.0
O8 O 0.06759 0.07127 0.04378 0.0
C9 C 0.06255 0.06823 0.02941 0.0
C10 C 0.02773 0.06054 0.06973 0.0
C11 C 0.0575 0.08188 0.02005 0.0
C12 C 0.04279 0.10628 0.01695 0.0
C13 C 0.04685 0.09314 0.02599 0.0
C14 C 0.05979 0.09689 0.99591 0.0
C15 C 0.04933 0.10839 1.00183 0.0
C16 C 0.06382 0.08382 1.00493 0.0
C17 C 0.0846 0.01942 0.05915 0.0
C18 C 0.10521 0.01257 0.04025 0.0
C19 C 0.10471 1.00015 0.06579 0.0
C20 C 0.09124 1.00884 0.06983 0.0
C21 C 0.11189 1.00186 0.05094 0.0
C22 C 0.0917 0.0213 0.04433 0.0
C23 C 0.07016 0.02808 0.06373 0.0
O24 O 0.04174 0.0666 0.07264 0.0
O25 O 0.02763 0.05103 0.05742 0.0
O26 O 0.0581 0.02689 0.054 0.0
O27 O 0.07225 0.04242 0.06922 0.0
H28 H 0.03767 0.0426 0.09463 0.0
H29 H 0.02204 0.03483 0.11767 0.0
H30 H 0.98159 0.05934 0.09883 0.0
H31 H 0.99719 0.06685 0.07586 0.0
H32 H 0.0348 0.11494 0.02193 0.0
H33 H 0.04182 0.09186 0.03765 0.0
H34 H 0.06483 0.09793 0.98424 0.0
H35 H 0.072 0.07523 1.00011 0.0
H36 H 0.11051 0.0143 0.02877 0.0
H37 H 0.10933 0.99187 0.07423 0.0
H38 H 0.08589 1.00717 0.0813 0.0
H39 H 0.08678 0.02946 0.03593 0.0
C40 C 0.28549 0.74373 0.18703 0.0
C41 C 0.29722 0.75537 0.18619 0.0
C42 C 0.28427 0.76676 0.16319 0.0
C43 C 0.29663 0.76677 0.17436 0.0
C44 C 0.27262 0.75499 0.16413 0.0
C45 C 0.27323 0.74364 0.17591 0.0
U46 U 0.30258 0.72326 0.22387 0.0
O47 O 0.28974 0.71297 0.24384 0.0
O48 O 0.30435 0.69791 0.22861 0.0
C49 C 0.29393 0.69851 0.24012 0.0
C50 C 0.28566 0.73155 0.19927 0.0
C51 C 0.28123 0.68637 0.23994 0.0
C52 C 0.27232 0.65979 0.23338 0.0
C53 C 0.28369 0.67172 0.23247 0.0
C54 C 0.25569 0.67683 0.24923 0.0
C55 C 0.25822 0.66212 0.2419 0.0
C56 C 0.26705 0.68876 0.2483 0.0
C57 C 0.34029 0.73973 0.24405 0.0
C58 C 0.35381 0.72815 0.26646 0.0
C59 C 0.36346 0.75243 0.25539 0.0
C60 C 0.35128 0.75205 0.24425 0.0
C61 C 0.36497 0.74046 0.26662 0.0
C62 C 0.34158 0.72777 0.25526 0.0
C63 C 0.32775 0.73968 0.23195 0.0
O64 O 0.29729 0.72133 0.1985 0.0
O65 O 0.28261 0.73634 0.21373 0.0
O66 O 0.31341 0.74304 0.23691 0.0
O67 O 0.32808 0.728 0.22169 0.0
H68 H 0.30678 0.75564 0.1947 0.0
H69 H 0.30573 0.77572 0.17407 0.0
H70 H 0.2631 0.75441 0.15561 0.0
H71 H 0.26411 0.73471 0.17632 0.0
H72 H 0.2748 0.64856 0.22779 0.0
H73 H 0.29458 0.66933 0.22616 0.0
H74 H 0.24491 0.67912 0.25575 0.0
H75 H 0.2648 0.6998 0.25437 0.0
H76 H 0.35467 0.71867 0.27484 0.0
H77 H 0.37163 0.76223 0.2553 0.0
H78 H 0.35044 0.76142 0.23574 0.0
H79 H 0.3332 0.71815 0.25528 0.0
C80 C 0.96832 0.44252 0.01987 0.0
C81 C 0.9815 0.43351 0.0242 0.0
C82 C 0.97668 0.41539 1.00215 0.0
C83 C 0.98566 0.42007 0.0154 0.0
C84 C 0.96353 0.42456 0.9979 0.0
C85 C 0.95941 0.43796 1.00667 0.0
U86 U 0.97268 0.47242 0.05416 0.0
O87 O 0.96957 0.49812 0.05394 0.0
O88 O 0.95407 0.48362 0.06854 0.0
C89 C 0.95716 0.49775 0.06325 0.0
C90 C 0.96355 0.45666 0.02889 0.0
C91 C 0.94339 0.50708 0.0582 0.0
C92 C 0.9215 0.51216 0.04031 0.0
C93 C 0.93453 0.503 0.04477 0.0
C94 C 0.92608 0.52951 0.06264 0.0
C95 C 0.91713 0.52558 0.04917 0.0
C96 C 0.93905 0.52037 0.06708 0.0
C97 C 1.00629 0.46753 0.08458 0.0
C98 C 0.01193 0.48581 0.10613 0.0
C99 C 0.02715 0.46183 0.1034 0.0
C100 C 0.01836 0.4577 0.09002 0.0
C101 C 0.02407 0.47593 0.11167 0.0
C102 C 1.0031 0.48163 0.09272 0.0
C103 C 0.99731 0.46279 0.07039 0.0
O104 O 0.95779 0.4542 0.04304 0.0
O105 O 0.97336 0.46862 0.02845 0.0
O106 O 0.99839 0.4722 0.05825 0.0
O107 O 0.98286 0.45769 0.0728 0.0
H108 H 0.98851 0.43683 0.03439 0.0
H109 H 0.99577 0.41322 0.0191 0.0
H110 H 0.95649 0.4215 0.98765 0.0
H111 H 0.94923 0.4448 1.00311 0.0
H112 H 0.91498 0.50885 0.0298 0.0
H113 H 0.93772 0.49277 0.03775 0.0
H114 H 0.92294 0.53958 0.06991 0.0
H115 H 0.9457 0.52367 0.07752 0.0
H116 H 1.00913 0.49667 0.11228 0.0
H117 H 0.03655 0.45406 0.10713 0.0
H118 H 0.02103 0.4468 0.08386 0.0
H119 H 0.99379 0.48936 0.08871 0.0
C120 C 0.71881 0.76857 0.19307 0.0
C121 C 0.73262 0.77214 0.18465 0.0
C122 C 0.72715 0.75076 0.16593 0.0
C123 C 0.73677 0.7633 0.17121 0.0
C124 C 0.71334 0.7473 0.17449 0.0
C125 C 0.70924 0.75611 0.18789 0.0
U126 U 0.72318 0.80262 0.22331 0.0
O127 O 0.70456 0.81671 0.23478 0.0
O128 O 0.72021 0.80209 0.24912 0.0
C129 C 0.70771 0.81126 0.24888 0.0
C130 C 0.71413 0.77751 0.20733 0.0
C131 C 0.694 0.80606 0.25827 0.0
C132 C 0.66906 0.79202 0.26098 0.0
C133 C 0.68225 0.79621 0.2519 0.0
C134 C 0.67937 0.80726 0.28294 0.0
C135 C 0.66738 0.79762 0.27659 0.0
C136 C 0.6925 0.81143 0.27387 0.0
C137 C 0.75664 0.83322 0.21841 0.0
C138 C 0.7646 0.85297 0.23783 0.0
C139 C 0.77596 0.85322 0.21165 0.0
C140 C 0.76687 0.84009 0.20747 0.0
C141 C 0.77507 0.85979 0.22692 0.0
C142 C 0.75547 0.8398 0.23362 0.0
C143 C 0.74763 0.81908 0.21367 0.0
O144 O 0.72403 0.77704 0.21926 0.0
O145 O 0.70828 0.7916 0.20498 0.0
O146 O 0.73313 0.82146 0.20867 0.0
O147 O 0.74885 0.80688 0.22297 0.0
H148 H 0.74015 0.78175 0.18846 0.0
H149 H 0.74739 0.76639 0.16484 0.0
H150 H 0.70579 0.73761 0.17097 0.0
H151 H 0.69858 0.75313 0.19427 0.0
H152 H 0.66002 0.78468 0.25566 0.0
H153 H 0.68318 0.79192 0.23986 0.0
H154 H 0.67866 0.81155 0.29498 0.0
H155 H 0.70147 0.81898 0.27903 0.0
H156 H 0.76369 0.85763 0.24973 0.0
H157 H 0.78364 0.85828 0.20284 0.0
H158 H 0.76788 0.83524 0.19565 0.0
H159 H 0.74763 0.83467 0.24224 0.0
C160 C 0.01986 0.96711 0.44226 0.0
C161 C 0.0214 0.98224 0.43598 0.0
C162 C 1.00234 0.97573 0.41522 0.0
C163 C 0.01269 0.98652 0.4226 0.0
C164 C 1.00097 0.96057 0.42158 0.0
C165 C 1.00963 0.95634 0.43493 0.0
U166 U 0.05287 0.97183 0.47348 0.0
O167 O 0.05175 0.96799 0.49907 0.0
O168 O 0.06757 0.95355 0.48443 0.0
C169 C 0.06165 0.95608 0.49855 0.0
C170 C 0.02856 0.96229 0.45651 0.0
C171 C 0.05702 0.94202 0.50749 0.0
C172 C 0.0386 0.92093 0.51359 0.0
C173 C 0.04279 0.93401 0.50453 0.0
C174 C 0.06288 0.92369 0.5285 0.0
C175 C 0.04856 0.91567 0.52579 0.0
C176 C 0.06703 0.9367 0.51946 0.0
C177 C 0.08222 1.0066 0.47103 0.0
C178 C 0.10849 1.00878 0.48267 0.0
C179 C 0.0953 0.03202 0.47302 0.0
C180 C 0.08227 0.02286 0.46856 0.0
C181 C 0.10865 0.0251 0.48003 0.0
C182 C 0.09538 0.99962 0.47826 0.0
C183 C 0.06855 0.99723 0.46546 0.0
O184 O 0.04306 0.95718 0.45425 0.0
O185 O 0.02725 0.97159 0.46891 0.0
O186 O 0.0559 0.99758 0.47445 0.0
O187 O 0.07166 0.98314 0.45973 0.0
H188 H 0.02929 0.99072 0.44144 0.0
H189 H 0.01416 0.99823 0.41795 0.0
H190 H 0.99298 0.95203 0.41639 0.0
H191 H 1.00824 0.94462 0.43962 0.0
H192 H 0.02745 0.91512 0.51124 0.0
H193 H 0.03489 0.93795 0.49532 0.0
H194 H 0.07098 0.91984 0.53756 0.0
H195 H 0.07809 0.94268 0.52189 0.0
H196 H 0.11848 1.00309 0.4882 0.0
H197 H 0.09507 0.04449 0.47061 0.0
H198 H 0.07227 0.02849 0.46296 0.0
H199 H 0.09559 0.98709 0.48037 0.0
C200 C 0.21871 0.75599 0.83456 0.0
C201 C 0.23344 0.75357 0.84178 0.0
C202 C 0.2272 0.77337 0.86194 0.0
C203 C 0.23766 0.7622 0.85534 0.0
C204 C 0.21243 0.77563 0.85463 0.0
C205 C 0.20826 0.76704 0.84111 0.0
U206 U 0.22329 0.72277 0.8035 0.0
O207 O 0.2048 0.70876 0.79168 0.0
O208 O 0.22033 0.72385 0.77772 0.0
C209 C 0.20791 0.71456 0.77772 0.0
C210 C 0.21401 0.74739 0.8201 0.0
C211 C 0.19417 0.7199 0.76845 0.0
C212 C 0.16972 0.73477 0.76576 0.0
C213 C 0.18284 0.73024 0.77479 0.0
C214 C 0.17925 0.71881 0.74395 0.0
C215 C 0.16775 0.72909 0.75021 0.0
C216 C 0.19229 0.71428 0.75298 0.0
C217 C 0.25723 0.69257 0.80776 0.0
C218 C 0.26281 0.67103 0.78945 0.0
C219 C 0.27907 0.67469 0.8127 0.0
C220 C 0.26995 0.68772 0.81711 0.0
C221 C 0.27569 0.66618 0.79878 0.0
C222 C 0.25367 0.68413 0.79389 0.0
C223 C 0.24799 0.70645 0.81278 0.0
O224 O 0.22381 0.74826 0.80812 0.0
O225 O 0.20829 0.73319 0.82211 0.0
O226 O 0.2335 0.70372 0.81765 0.0
O227 O 0.24903 0.71885 0.80373 0.0
H228 H 0.24167 0.74505 0.83692 0.0
H229 H 0.24905 0.76004 0.86073 0.0
H230 H 0.20417 0.78427 0.85921 0.0
H231 H 0.19686 0.76913 0.83568 0.0
H232 H 0.1612 0.74281 0.7709 0.0
H233 H 0.18411 0.73476 0.78671 0.0
H234 H 0.17803 0.71401 0.73214 0.0
H235 H 0.20087 0.70625 0.74789 0.0
H236 H 0.25993 0.66485 0.7786 0.0
H237 H 0.28868 0.67117 0.82032 0.0
H238 H 0.27284 0.69404 0.82788 0.0
H239 H 0.24389 0.68771 0.78651 0.0
C240 C 0.96855 0.5818 0.50992 0.0
C241 C 0.97938 0.59273 0.50394 0.0
C242 C 0.97684 0.60883 0.52786 0.0
C243 C 0.98349 0.60613 0.51284 0.0
C244 C 0.96616 0.59766 0.53381 0.0
C245 C 0.96207 0.58433 0.52493 0.0
U246 U 0.97282 0.5518 0.47567 0.0
O247 O 0.96899 0.52622 0.47583 0.0
O248 O 0.9542 0.54109 0.46088 0.0
C249 C 0.95678 0.5269 0.46628 0.0
C250 C 0.96358 0.56783 0.50072 0.0
C251 C 0.94265 0.51795 0.47106 0.0
C252 C 0.92211 0.51148 0.49003 0.0
C253 C 0.93531 0.52047 0.48571 0.0
C254 C 0.92341 0.49751 0.46505 0.0
C255 C 0.91605 0.4998 0.47978 0.0
C256 C 0.93656 0.50648 0.46076 0.0
C257 C 1.00745 0.55562 0.44621 0.0
C258 C 1.01068 0.54035 0.42198 0.0
C259 C 0.03155 0.55785 0.43075 0.0
C260 C 0.02248 0.56214 0.44389 0.0
C261 C 0.02579 0.5469 0.4196 0.0
C262 C 1.0016 0.54464 0.4352 0.0
C263 C 0.99816 0.56064 0.4601 0.0
O264 O 0.95824 0.57045 0.48643 0.0
O265 O 0.97298 0.55556 0.50142 0.0
O266 O 0.99865 0.55126 0.4723 0.0
O267 O 0.98392 0.56613 0.45728 0.0
H268 H 0.98453 0.59098 0.49236 0.0
H269 H 0.99165 0.61451 0.50782 0.0
H270 H 0.96102 0.59916 0.54542 0.0
H271 H 0.95375 0.576 0.52978 0.0
H272 H 0.91683 0.51348 0.5015 0.0
H273 H 0.93985 0.52929 0.49383 0.0
H274 H 0.91893 0.48886 0.45673 0.0
H275 H 0.94202 0.50441 0.44938 0.0
H276 H 1.00593 0.53178 0.41372 0.0
H277 H 0.04299 0.56332 0.4292 0.0
H278 H 0.02718 0.57067 0.45223 0.0
H279 H 0.99004 0.53943 0.43681 0.0
C280 C 0.78624 0.78223 0.8419 0.0
C281 C 0.79611 0.76898 0.84108 0.0
C282 C 0.78521 0.75932 0.86585 0.0
C283 C 0.79558 0.7576 0.85294 0.0
C284 C 0.77536 0.77264 0.86653 0.0
C285 C 0.77589 0.78395 0.85469 0.0
U286 U 0.80339 0.80241 0.805 0.0
O287 O 0.79073 0.81315 0.78516 0.0
O288 O 0.80587 0.82774 0.80038 0.0
C289 C 0.79563 0.82742 0.78872 0.0
C290 C 0.78641 0.79443 0.82966 0.0
C291 C 0.78352 0.83995 0.78888 0.0
C292 C 0.75706 0.84966 0.79483 0.0
C293 C 0.76842 0.83764 0.79535 0.0
C294 C 0.77585 0.86646 0.78161 0.0
C295 C 0.76063 0.86423 0.78792 0.0
C296 C 0.78714 0.85445 0.78209 0.0
C297 C 0.84078 0.78561 0.78473 0.0
C298 C 0.85219 0.79511 0.76025 0.0
C299 C 0.86573 0.77503 0.77511 0.0
C300 C 0.85367 0.77541 0.78638 0.0
C301 C 0.86519 0.78488 0.76189 0.0
C302 C 0.8401 0.79549 0.7716 0.0
C303 C 0.82826 0.7856 0.79685 0.0
O304 O 0.79817 0.8045 0.83037 0.0
O305 O 0.78322 0.7897 0.8152 0.0
O306 O 0.81386 0.78252 0.79187 0.0
O307 O 0.82878 0.79712 0.80727 0.0
H308 H 0.80423 0.76747 0.8313 0.0
H309 H 0.80343 0.74757 0.8521 0.0
H310 H 0.76705 0.77426 0.87612 0.0
H311 H 0.76813 0.79407 0.85551 0.0
H312 H 0.74553 0.8476 0.79994 0.0
H313 H 0.76539 0.82655 0.80073 0.0
H314 H 0.77897 0.87741 0.77601 0.0
H315 H 0.7987 0.85646 0.77699 0.0
H316 H 0.85145 0.80295 0.75031 0.0
H317 H 0.87539 0.76683 0.77665 0.0
H318 H 0.85438 0.76766 0.79641 0.0
H319 H 0.83026 0.80349 0.77014 0.0
C320 C 0.28453 0.28179 0.34028 0.0
C321 C 0.29749 0.27181 0.34281 0.0
C322 C 0.2831 0.25842 0.36377 0.0
C323 C 0.29679 0.26024 0.35448 0.0
C324 C 0.27016 0.26845 0.36105 0.0
C325 C 0.27089 0.27997 0.34944 0.0
U326 U 0.30193 0.30308 0.30405 0.0
O327 O 0.28926 0.31445 0.28459 0.0
O328 O 0.30443 0.32855 0.30023 0.0
C329 C 0.29426 0.32859 0.28852 0.0
C330 C 0.28495 0.29438 0.32844 0.0
C331 C 0.28223 0.34117 0.2889 0.0
C332 C 0.25633 0.35138 0.29628 0.0
C333 C 0.26766 0.33933 0.29661 0.0
C334 C 0.27409 0.36725 0.28072 0.0
C335 C 0.25939 0.3655 0.28829 0.0
C336 C 0.28535 0.35523 0.28103 0.0
C337 C 0.33915 0.2871 0.28247 0.0
C338 C 0.36601 0.29371 0.27433 0.0
C339 C 0.34924 0.27854 0.25681 0.0
C340 C 0.33703 0.27919 0.26797 0.0
C341 C 0.36395 0.28566 0.2599 0.0
C342 C 0.3538 0.29438 0.28548 0.0
C343 C 0.32671 0.28663 0.29489 0.0
O344 O 0.29683 0.30429 0.32947 0.0
O345 O 0.28166 0.29016 0.31386 0.0
O346 O 0.31219 0.28352 0.29025 0.0
O347 O 0.3273 0.29756 0.30595 0.0
H348 H 0.30813 0.273 0.33583 0.0
H349 H 0.30691 0.25265 0.35614 0.0
H350 H 0.25953 0.26759 0.3681 0.0
H351 H 0.26079 0.2876 0.34771 0.0
H352 H 0.24521 0.34969 0.30236 0.0
H353 H 0.26504 0.32857 0.30281 0.0
H354 H 0.27679 0.37783 0.27426 0.0
H355 H 0.29649 0.35685 0.27496 0.0
H356 H 0.37711 0.29948 0.27705 0.0
H357 H 0.34729 0.27204 0.24594 0.0
H358 H 0.32603 0.2732 0.26534 0.0
H359 H 0.35597 0.30041 0.29658 0.0
C360 C 0.46937 0.94235 0.51831 0.0
C361 C 0.4785 0.93038 0.52504 0.0
C362 C 0.47766 0.91533 0.50033 0.0
C363 C 0.48261 0.91699 0.51614 0.0
C364 C 0.46875 0.92754 0.49363 0.0
C365 C 0.46465 0.94086 0.50252 0.0
U366 U 0.47252 0.97237 0.55281 0.0
O367 O 0.46864 0.99799 0.55241 0.0
O368 O 0.45342 0.98307 0.56688 0.0
C369 C 0.45617 0.99728 0.56161 0.0
C370 C 0.46421 0.95629 0.52746 0.0
C371 C 0.44223 1.00638 0.55658 0.0
C372 C 0.41747 1.00896 0.54215 0.0
C373 C 0.43086 1.00011 0.54621 0.0
C374 C 0.42683 0.03046 0.55859 0.0
C375 C 0.41522 0.02422 0.54841 0.0
C376 C 0.44015 0.02163 0.56262 0.0
C377 C 0.50595 0.96932 0.58393 0.0
C378 C 0.51016 0.96858 0.61239 0.0
C379 C 0.52882 0.98228 0.59588 0.0
C380 C 0.51987 0.97824 0.58254 0.0
C381 C 0.52417 0.97739 0.61098 0.0
C382 C 0.50119 0.96457 0.59905 0.0
C383 C 0.49726 0.96398 0.56957 0.0
O384 O 0.4584 0.95366 0.54156 0.0
O385 O 0.47363 0.96856 0.52708 0.0
O386 O 0.4982 0.97303 0.55712 0.0
O387 O 0.48303 0.9581 0.57161 0.0
H388 H 0.48229 0.9313 0.53722 0.0
H389 H 0.48938 0.9078 0.52173 0.0
H390 H 0.46497 0.92685 0.48144 0.0
H391 H 0.45766 0.95 0.49708 0.0
H392 H 0.40874 1.00374 0.53437 0.0
H393 H 0.43225 0.98835 0.5414 0.0
H394 H 0.42568 0.04224 0.56339 0.0
H395 H 0.44883 0.02671 0.57058 0.0
H396 H 0.50613 0.96474 0.62384 0.0
H397 H 0.53965 0.98887 0.5943 0.0
H398 H 0.52406 0.98186 0.57108 0.0
H399 H 0.49064 0.95754 0.6006 0.0
C400 C 0.21881 0.26891 0.69214 0.0
C401 C 0.23437 0.26349 0.68991 0.0
C402 C 0.22691 0.25102 0.66492 0.0
C403 C 0.23835 0.2546 0.67647 0.0
C404 C 0.21143 0.25673 0.66707 0.0
C405 C 0.20744 0.26552 0.68053 0.0
U406 U 0.22286 0.30184 0.72373 0.0
O407 O 0.20424 0.31577 0.73544 0.0
O408 O 0.21966 0.30063 0.74946 0.0
C409 C 0.2073 0.30999 0.74942 0.0
C410 C 0.21389 0.2774 0.7067 0.0
C411 C 0.19354 0.30478 0.75869 0.0
C412 C 0.17027 0.28836 0.76236 0.0
C413 C 0.1833 0.29293 0.75323 0.0
C414 C 0.17766 0.30739 0.78246 0.0
C415 C 0.16729 0.29553 0.77714 0.0
C416 C 0.19061 0.31194 0.77335 0.0
C417 C 0.25693 0.33203 0.71991 0.0
C418 C 0.26018 0.35611 0.73536 0.0
C419 C 0.28061 0.34796 0.71704 0.0
C420 C 0.2717 0.33468 0.71295 0.0
C421 C 0.27494 0.35894 0.7282 0.0
C422 C 0.25124 0.34277 0.73124 0.0
C423 C 0.24768 0.31817 0.71483 0.0
O424 O 0.22331 0.27637 0.71899 0.0
O425 O 0.20805 0.29157 0.70483 0.0
O426 O 0.23324 0.32092 0.70981 0.0
O427 O 0.24863 0.30573 0.72383 0.0
H428 H 0.24343 0.26595 0.69861 0.0
H429 H 0.25042 0.25055 0.6751 0.0
H430 H 0.20228 0.25406 0.65852 0.0
H431 H 0.19534 0.26946 0.68201 0.0
H432 H 0.16263 0.2791 0.75795 0.0
H433 H 0.18539 0.28723 0.74195 0.0
H434 H 0.17563 0.31337 0.79362 0.0
H435 H 0.19835 0.32115 0.77774 0.0
H436 H 0.25539 0.36436 0.74391 0.0
H437 H 0.29202 0.34956 0.7115 0.0
H438 H 0.27633 0.3265 0.70424 0.0
H439 H 0.23985 0.34093 0.73675 0.0
C440 C 0.78624 0.24338 0.68864 0.0
C441 C 0.7999 0.24735 0.68011 0.0
C442 C 0.78493 0.26634 0.66469 0.0
C443 C 0.79923 0.25867 0.66823 0.0
C444 C 0.77137 0.26253 0.67347 0.0
C445 C 0.77203 0.25116 0.68526 0.0
U446 U 0.8033 0.22167 0.72474 0.0
O447 O 0.79072 0.21094 0.74465 0.0
O448 O 0.80524 0.19625 0.72895 0.0
C449 C 0.79539 0.19664 0.74093 0.0
C450 C 0.78624 0.23073 0.70054 0.0
C451 C 0.78315 0.18429 0.74113 0.0
C452 C 0.75948 0.17171 0.73058 0.0
C453 C 0.7708 0.18378 0.73008 0.0
C454 C 0.77276 0.16063 0.75319 0.0
C455 C 0.76037 0.15992 0.74212 0.0
C456 C 0.784 0.17267 0.75268 0.0
C457 C 0.84132 0.23742 0.74479 0.0
C458 C 0.85153 0.23002 0.77052 0.0
C459 C 0.86763 0.24563 0.75304 0.0
C460 C 0.85553 0.24531 0.7418 0.0
C461 C 0.8658 0.23804 0.76759 0.0
C462 C 0.83941 0.22968 0.75921 0.0
C463 C 0.82864 0.23781 0.73282 0.0
O464 O 0.79755 0.22017 0.69948 0.0
O465 O 0.78319 0.23507 0.71515 0.0
O466 O 0.81436 0.24114 0.73797 0.0
O467 O 0.8288 0.22644 0.72221 0.0
H468 H 0.81106 0.2416 0.6825 0.0
H469 H 0.80994 0.26145 0.66183 0.0
H470 H 0.76012 0.26805 0.67095 0.0
H471 H 0.76132 0.24825 0.6916 0.0
H472 H 0.75019 0.17147 0.7218 0.0
H473 H 0.76996 0.19265 0.72105 0.0
H474 H 0.77369 0.15197 0.7624 0.0
H475 H 0.79341 0.17289 0.76135 0.0
H476 H 0.84977 0.22391 0.78152 0.0
H477 H 0.87832 0.2521 0.75044 0.0
H478 H 0.85722 0.25141 0.73077 0.0
H479 H 0.82854 0.22345 0.76174 0.0
C480 C 0.51872 0.55649 0.58437 0.0
C481 C 0.52474 0.54579 0.59534 0.0
C482 C 0.50081 0.54849 0.61133 0.0
C483 C 0.51586 0.54182 0.6087 0.0
C484 C 0.49484 0.55905 0.60014 0.0
C485 C 0.5037 0.563 0.58685 0.0
U486 U 0.55276 0.5523 0.55405 0.0
O487 O 0.55182 0.55572 0.52833 0.0
O488 O 0.56695 0.57086 0.54301 0.0
C489 C 0.56099 0.56818 0.52891 0.0
C490 C 0.5278 0.56125 0.57035 0.0
C491 C 0.55561 0.58202 0.51982 0.0
C492 C 0.55032 0.61009 0.51751 0.0
C493 C 0.55432 0.59708 0.52671 0.0
C494 C 0.5485 0.59322 0.49446 0.0
C495 C 0.54752 0.60837 0.50121 0.0
C496 C 0.55255 0.58025 0.50364 0.0
C497 C 0.583 0.51828 0.55748 0.0
C498 C 0.60901 0.51621 0.54527 0.0
C499 C 0.59699 0.49329 0.55694 0.0
C500 C 0.58375 0.50227 0.56111 0.0
C501 C 0.60985 0.50014 0.54903 0.0
C502 C 0.59569 0.5252 0.54942 0.0
C503 C 0.56906 0.52746 0.56265 0.0
O504 O 0.5421 0.56674 0.57292 0.0
O505 O 0.52703 0.55172 0.55809 0.0
O506 O 0.55656 0.52665 0.55346 0.0
O507 O 0.57176 0.54172 0.56814 0.0
H508 H 0.53633 0.54062 0.59362 0.0
H509 H 0.5209 0.53374 0.61711 0.0
H510 H 0.48321 0.5642 0.60158 0.0
H511 H 0.4988 0.57122 0.57848 0.0
H512 H 0.54985 0.62157 0.52312 0.0
H513 H 0.55664 0.59888 0.53916 0.0
H514 H 0.54616 0.59135 0.48203 0.0
H515 H 0.55348 0.56879 0.498 0.0
H516 H 0.61861 0.52183 0.53904 0.0
H517 H 0.59729 0.48103 0.56023 0.0
H518 H 0.57412 0.49671 0.56738 0.0
H519 H 0.59535 0.53754 0.54642 0.0
C520 C 0.51966 0.46713 0.94227 0.0
C521 C 0.52146 0.48209 0.93568 0.0
C522 C 0.50205 0.4756 0.91526 0.0
C523 C 0.51271 0.48631 0.92231 0.0
C524 C 0.50044 0.4606 0.9219 0.0
C525 C 0.50914 0.45643 0.93524 0.0
U526 U 0.55271 0.47183 0.97347 0.0
O527 O 0.55127 0.46854 0.99919 0.0
O528 O 0.56696 0.45357 0.98494 0.0
C529 C 0.56062 0.45619 0.99888 0.0
C530 C 0.52828 0.46244 0.9566 0.0
C531 C 0.55523 0.44228 1.00788 0.0
C532 C 0.55195 0.41395 1.01071 0.0
C533 C 0.55594 0.42696 1.00151 0.0
C534 C 0.54617 0.43129 0.03273 0.0
C535 C 0.54716 0.41592 0.02651 0.0
C536 C 0.55021 0.44427 0.02355 0.0
C537 C 0.58256 0.50619 0.96998 0.0
C538 C 0.60585 0.51038 0.98638 0.0
C539 C 0.59863 0.52965 0.96685 0.0
C540 C 0.5856 0.52047 0.96249 0.0
C541 C 0.60895 0.52476 0.97886 0.0
C542 C 0.59274 0.50119 0.98199 0.0
C543 C 0.56882 0.49677 0.96482 0.0
O544 O 0.54269 0.45703 0.95446 0.0
O545 O 0.52712 0.47202 0.9688 0.0
O546 O 0.55623 0.4975 0.97388 0.0
O547 O 0.57187 0.48247 0.95964 0.0
H548 H 0.52957 0.49051 0.94091 0.0
H549 H 0.51438 0.49789 0.91742 0.0
H550 H 0.49219 0.45214 0.91697 0.0
H551 H 0.50753 0.44485 0.94018 0.0
H552 H 0.55305 0.40231 1.00555 0.0
H553 H 0.55985 0.42495 0.9895 0.0
H554 H 0.54229 0.43333 0.04474 0.0
H555 H 0.54962 0.45591 0.02882 0.0
H556 H 0.61346 0.50632 0.99576 0.0
H557 H 0.60075 0.54049 0.96062 0.0
H558 H 0.57792 0.5245 0.95314 0.0
H559 H 0.59057 0.4902 0.98794 0.0
C560 C 0.72 0.25651 0.3357 0.0
C561 C 0.73145 0.25086 0.3462 0.0
C562 C 0.72836 0.27431 0.36284 0.0
C563 C 0.73561 0.2597 0.35965 0.0
C564 C 0.71705 0.27993 0.35211 0.0
C565 C 0.71292 0.27112 0.33872 0.0
U566 U 0.72317 0.22207 0.3056 0.0
O567 O 0.70386 0.20814 0.29497 0.0
O568 O 0.71923 0.22236 0.27996 0.0
C569 C 0.70639 0.21369 0.28078 0.0
C570 C 0.71493 0.24739 0.3217 0.0
C571 C 0.69224 0.21917 0.272 0.0
C572 C 0.67917 0.23765 0.25446 0.0
C573 C 0.69227 0.23333 0.26357 0.0
C574 C 0.66561 0.21393 0.26221 0.0
C575 C 0.66571 0.22796 0.25357 0.0
C576 C 0.67873 0.20958 0.27124 0.0
C577 C 0.75659 0.19119 0.30959 0.0
C578 C 0.76409 0.17137 0.29006 0.0
C579 C 0.77599 0.17115 0.31602 0.0
C580 C 0.76701 0.18431 0.32035 0.0
C581 C 0.77478 0.16456 0.30078 0.0
C582 C 0.75508 0.18458 0.29443 0.0
C583 C 0.7478 0.20543 0.31446 0.0
O584 O 0.72444 0.2477 0.30946 0.0
O585 O 0.70909 0.23336 0.32437 0.0
O586 O 0.73346 0.2032 0.31998 0.0
O587 O 0.74878 0.21754 0.30501 0.0
H588 H 0.73705 0.23958 0.34407 0.0
H589 H 0.74428 0.25495 0.3677 0.0
H590 H 0.71142 0.29123 0.35398 0.0
H591 H 0.7041 0.27572 0.33072 0.0
H592 H 0.67958 0.24861 0.24809 0.0
H593 H 0.70248 0.24102 0.26383 0.0
H594 H 0.65555 0.20608 0.26165 0.0
H595 H 0.67842 0.19852 0.27745 0.0
H596 H 0.76293 0.16669 0.2782 0.0
H597 H 0.78384 0.16609 0.32468 0.0
H598 H 0.76829 0.18919 0.33213 0.0
H599 H 0.74709 0.18972 0.28594 0.0
C600 C 0.47063 0.08134 1.00951 0.0
C601 C 0.48103 0.09249 1.00319 0.0
C602 C 0.4795 0.10816 0.02747 0.0
C603 C 0.4854 0.10581 0.01208 0.0
C604 C 0.46915 0.09686 0.0337 0.0
C605 C 0.46477 0.08363 0.02481 0.0
U606 U 0.47438 0.05093 0.97548 0.0
O607 O 0.47067 0.02529 0.97624 0.0
O608 O 0.45562 0.03987 0.96121 0.0
C609 C 0.45818 0.02583 0.96704 0.0
C610 C 0.46554 0.06733 1.00045 0.0
C611 C 0.44416 0.01683 0.97231 0.0
C612 C 0.4163 0.01509 0.97949 0.0
C613 C 0.42957 0.02411 0.97552 0.0
C614 C 0.43206 0.99143 0.97749 0.0
C615 C 0.41732 0.99859 0.98037 0.0
C616 C 0.44528 1.00043 0.97346 0.0
C617 C 0.50872 0.05426 0.94551 0.0
C618 C 0.5112 0.04008 0.92054 0.0
C619 C 0.5333 0.05518 0.93068 0.0
C620 C 0.52432 0.05953 0.94386 0.0
C621 C 0.52688 0.04542 0.91881 0.0
C622 C 0.50221 0.04442 0.9338 0.0
C623 C 0.49951 0.05947 0.95941 0.0
O624 O 0.46004 0.06981 0.98619 0.0
O625 O 0.47492 0.05505 1.00117 0.0
O626 O 0.50018 0.05033 0.97178 0.0
O627 O 0.48523 0.06489 0.95666 0.0
H628 H 0.48574 0.0909 0.99141 0.0
H629 H 0.49351 0.11418 1.00698 0.0
H630 H 0.46418 0.09838 0.04538 0.0
H631 H 0.4567 0.07519 0.02988 0.0
H632 H 0.40514 0.02102 0.98148 0.0
H633 H 0.42832 0.03675 0.97472 0.0
H634 H 0.43342 0.97881 0.97834 0.0
H635 H 0.45639 0.99453 0.97107 0.0
H636 H 0.50593 0.03243 0.91172 0.0
H637 H 0.54522 0.05971 0.92966 0.0
H638 H 0.52954 0.06717 0.95274 0.0
H639 H 0.49019 0.04017 0.93488 0.0
Li640 Li 0.27781 0.89711 1.01128 0.0
Li641 Li 0.26557 0.87619 0.02874 0.0
Li642 Li 0.26048 0.87661 1.00048 0.0
Li643 Li 0.24856 0.89673 0.01709 0.0
C644 C 0.28757 0.86228 1.00245 0.0
N645 N 0.29887 0.83842 0.98324 0.0
C646 C 0.28486 0.8466 1.00635 0.0
C647 C 0.29609 0.86585 0.98884 0.0
C648 C 0.29065 0.83469 0.99647 0.0
C649 C 0.30169 0.85361 0.97927 0.0
C650 C 0.27106 0.90517 0.04619 0.0
C651 C 0.26483 0.91447 0.07241 0.0
N652 N 0.28051 0.91657 0.07532 0.0
C653 C 0.28709 0.90758 0.04937 0.0
C654 C 0.25981 0.90879 0.05774 0.0
C655 C 0.29164 0.91328 0.06419 0.0
C656 C 0.29327 0.92599 1.00517 0.0
N657 N 0.29574 0.91048 1.00796 0.0
C658 C 0.32375 0.91407 1.00591 0.0
C659 C 0.31061 0.90441 1.0084 0.0
C660 C 0.3216 0.93018 1.00294 0.0
C661 C 0.30606 0.93608 1.00262 0.0
H662 H 0.28132 0.93052 1.00495 0.0
H663 H 0.31226 0.89203 1.01066 0.0
C664 C 0.26035 0.84935 0.04784 0.0
N665 N 0.26913 0.86269 0.04669 0.0
C666 C 0.26247 0.83916 0.0605 0.0
C667 C 0.28299 0.85628 0.07045 0.0
C668 C 0.28045 0.86616 0.05758 0.0
C669 C 0.2739 0.84255 0.07209 0.0
H670 H 0.2517 0.84654 0.03887 0.0
H671 H 0.2877 0.87647 0.05622 0.0
C672 C 0.24885 0.90358 0.9852 0.0
N673 N 0.22677 0.91177 0.96273 0.0
C674 C 0.23512 0.89463 0.98324 0.0
C675 C 0.25137 0.91668 0.97574 0.0
C676 C 0.2241 0.89897 0.97182 0.0
C677 C 0.24006 0.92063 0.96444 0.0
C678 C 0.23196 0.87005 0.02633 0.0
C679 C 0.21943 0.86169 0.01953 0.0
C680 C 0.23097 0.87501 0.04205 0.0
C681 C 0.20606 0.85846 0.02859 0.0
C682 C 0.2174 0.87153 0.05073 0.0
N683 N 0.20533 0.86341 0.04388 0.0
C684 C 0.25049 0.84877 0.98454 0.0
C685 C 0.26176 0.86782 0.96777 0.0
C686 C 0.24797 0.83858 0.97172 0.0
N687 N 0.25726 0.86308 0.98236 0.0
C688 C 0.2594 0.85803 0.95461 0.0
C689 C 0.25239 0.84317 0.95646 0.0
H690 H 0.24706 0.84526 0.99627 0.0
H691 H 0.26724 0.87921 0.96636 0.0
C692 C 0.2334 0.92489 0.027 0.0
N693 N 0.23065 0.91038 0.02071 0.0
C694 C 0.22086 0.93528 0.02987 0.0
C695 C 0.20284 0.91569 0.01963 0.0
C696 C 0.21572 0.9057 0.01692 0.0
C697 C 0.20528 0.93073 0.02622 0.0
H698 H 0.24537 0.9284 0.02983 0.0
H699 H 0.21377 0.89424 0.0117 0.0
O700 O 0.28155 0.87408 0.01169 0.0
O701 O 0.26638 0.89976 0.03168 0.0
O702 O 0.25981 0.89963 0.99634 0.0
O703 O 0.245 0.87352 0.01752 0.0
H704 H 0.27819 0.84367 0.01681 0.0
H705 H 0.29816 0.87795 0.98561 0.0
H706 H 0.28857 0.8225 0.99928 0.0
H707 H 0.30822 0.85618 0.96864 0.0
H708 H 0.25626 0.91727 0.08148 0.0
H709 H 0.29595 0.90491 0.04055 0.0
H710 H 0.24732 0.90733 0.05538 0.0
H711 H 0.30402 0.91509 0.06685 0.0
H712 H 0.33545 0.90892 1.00608 0.0
H713 H 0.3038 0.94842 1.00059 0.0
H714 H 0.25509 0.8288 0.06126 0.0
H715 H 0.29218 0.85924 0.07886 0.0
H716 H 0.23297 0.88445 0.99045 0.0
H717 H 0.26195 0.92373 0.97713 0.0
H718 H 0.21341 0.89215 0.97018 0.0
H719 H 0.24185 0.93075 0.95703 0.0
H720 H 0.22 0.85785 1.00734 0.0
H721 H 0.2406 0.88139 0.04749 0.0
H722 H 0.19625 0.85204 0.02347 0.0
H723 H 0.21648 0.87529 0.06292 0.0
H724 H 0.24238 0.82733 0.97372 0.0
H725 H 0.26318 0.862 0.94313 0.0
H726 H 0.22333 0.94668 0.0351 0.0
H727 H 0.1911 0.91174 0.01638 0.0
Li728 Li 0.12731 0.51622 0.27935 0.0
Li729 Li 0.1474 0.49843 0.26754 0.0
Li730 Li 0.14744 0.52793 0.26236 0.0
Li731 Li 0.12728 0.51056 0.24985 0.0
C732 C 0.1524 0.51874 0.29836 0.0
N733 N 0.15511 0.5233 0.33053 0.0
C734 C 0.15623 0.50615 0.30809 0.0
C735 C 0.15014 0.53368 0.30496 0.0
C736 C 0.1575 0.50869 0.32434 0.0
C737 C 0.1515 0.53574 0.32126 0.0
C738 C 0.11962 0.48043 0.26767 0.0
C739 C 0.11674 0.45566 0.25389 0.0
N740 N 0.11099 0.44911 0.26728 0.0
C741 C 0.11351 0.47351 0.28124 0.0
C742 C 0.12111 0.47149 0.25385 0.0
C743 C 0.10928 0.45764 0.28082 0.0
C744 C 0.10341 0.5317 0.29742 0.0
N745 N 0.11395 0.51963 0.29755 0.0
C746 C 0.10538 0.51232 0.32338 0.0
C747 C 0.115 0.50993 0.31015 0.0
C748 C 0.09443 0.52477 0.32366 0.0
C749 C 0.09353 0.5345 0.31039 0.0
H750 H 0.10256 0.53911 0.2872 0.0
H751 H 0.12335 0.50031 0.30996 0.0
C752 C 0.1748 0.47973 0.26294 0.0
N753 N 0.16078 0.48034 0.27078 0.0
C754 C 0.18507 0.467 0.2649 0.0
C755 C 0.16649 0.45582 0.28323 0.0
C756 C 0.15657 0.46876 0.28089 0.0
C757 C 0.18098 0.45477 0.27515 0.0
H758 H 0.17808 0.48921 0.25521 0.0
H759 H 0.14559 0.46963 0.28732 0.0
C760 C 0.12201 0.54633 0.25769 0.0
N761 N 0.11852 0.57762 0.25002 0.0
C762 C 0.11722 0.55051 0.24253 0.0
C763 C 0.12485 0.55806 0.269 0.0
C764 C 0.11556 0.56639 0.23887 0.0
C765 C 0.12308 0.57381 0.26487 0.0
C766 C 0.15548 0.50541 0.23266 0.0
C767 C 0.16089 0.51656 0.22195 0.0
C768 C 0.1552 0.48953 0.22827 0.0
C769 C 0.1656 0.51168 0.2069 0.0
C770 C 0.16001 0.48511 0.21311 0.0
N771 N 0.16505 0.49619 0.20282 0.0
C772 C 0.17274 0.54863 0.27 0.0
C773 C 0.15931 0.55534 0.24653 0.0
C774 C 0.18311 0.5613 0.26821 0.0
N775 N 0.16108 0.5459 0.25926 0.0
C776 C 0.16936 0.56821 0.24433 0.0
C777 C 0.18152 0.57132 0.25523 0.0
H778 H 0.17406 0.54091 0.27994 0.0
H779 H 0.15018 0.55282 0.23796 0.0
C780 C 0.09993 0.49943 0.23381 0.0
N781 N 0.11391 0.50702 0.23163 0.0
C782 C 0.08979 0.49649 0.22107 0.0
C783 C 0.1084 0.50951 0.20405 0.0
C784 C 0.11817 0.51221 0.21712 0.0
C785 C 0.09398 0.5015 0.20588 0.0
H786 H 0.09664 0.49561 0.24547 0.0
H787 H 0.12905 0.51866 0.21569 0.0
O788 O 0.15088 0.51644 0.28245 0.0
O789 O 0.1239 0.49595 0.2679 0.0
O790 O 0.12384 0.53085 0.26145 0.0
O791 O 0.1508 0.51 0.24745 0.0
H792 H 0.15809 0.49453 0.30317 0.0
H793 H 0.14733 0.54358 0.29758 0.0
H794 H 0.16037 0.49903 0.33202 0.0
H795 H 0.14969 0.54723 0.32654 0.0
H796 H 0.11787 0.4486 0.24328 0.0
H797 H 0.11212 0.48028 0.292 0.0
H798 H 0.12542 0.47674 0.24314 0.0
H799 H 0.10463 0.4521 0.29126 0.0
H800 H 0.10665 0.50459 0.33336 0.0
H801 H 0.08511 0.54407 0.3099 0.0
H802 H 0.19623 0.4669 0.25865 0.0
H803 H 0.16278 0.44667 0.2912 0.0
H804 H 0.11488 0.54159 0.23367 0.0
H805 H 0.12842 0.55503 0.28081 0.0
H806 H 0.11193 0.56979 0.22717 0.0
H807 H 0.12532 0.58301 0.27348 0.0
H808 H 0.16135 0.52887 0.22519 0.0
H809 H 0.15147 0.48069 0.23652 0.0
H810 H 0.1697 0.5202 0.19846 0.0
H811 H 0.15981 0.47287 0.20956 0.0
H812 H 0.19222 0.5633 0.27698 0.0
H813 H 0.16781 0.57546 0.23403 0.0
H814 H 0.07888 0.49017 0.22307 0.0
H815 H 0.112 0.51389 0.19266 0.0
Li816 Li 0.74856 0.62708 1.00966 0.0
Li817 Li 0.76047 0.64725 0.0274 0.0
Li818 Li 0.76591 0.64704 0.99776 0.0
Li819 Li 0.77822 0.62723 0.01528 0.0
C820 C 0.72996 0.65279 1.00615 0.0
N821 N 0.69827 0.65724 0.99967 0.0
C822 C 0.71956 0.6573 0.01817 0.0
C823 C 0.72429 0.65079 0.99079 0.0
C824 C 0.70356 0.65943 0.01467 0.0
C825 C 0.70821 0.65302 0.98776 0.0
C826 C 0.75865 0.62065 0.04563 0.0
C827 C 0.76996 0.61922 0.07168 0.0
N828 N 0.75581 0.61427 0.07737 0.0
C829 C 0.74427 0.61536 0.05171 0.0
C830 C 0.77165 0.62244 0.05565 0.0
C831 C 0.74305 0.61227 0.0678 0.0
C832 C 0.73134 0.60196 0.99527 0.0
N833 N 0.73035 0.61372 1.00622 0.0
C834 C 0.70379 0.60616 0.01245 0.0
C835 C 0.71695 0.61588 0.01484 0.0
C836 C 0.7044 0.59399 1.00112 0.0
C837 C 0.71847 0.59197 0.99249 0.0
H838 H 0.74219 0.60023 0.98877 0.0
H839 H 0.71646 0.62511 0.02366 0.0
C840 C 0.76632 0.67347 0.04778 0.0
N841 N 0.757 0.66058 0.04568 0.0
C842 C 0.76406 0.68352 0.06076 0.0
C843 C 0.74251 0.66702 0.06916 0.0
C844 C 0.74518 0.6573 0.05601 0.0
C845 C 0.75201 0.68038 0.07171 0.0
H846 H 0.77549 0.67602 0.03931 0.0
H847 H 0.73762 0.64727 0.05394 0.0
C848 C 0.7698 0.62085 0.97935 0.0
N849 N 0.77608 0.61545 0.94779 0.0
C850 C 0.78487 0.61603 0.97455 0.0
C851 C 0.75788 0.62269 0.96812 0.0
C852 C 0.78782 0.61342 0.95854 0.0
C853 C 0.7613 0.61998 0.95222 0.0
C854 C 0.79606 0.65429 0.01938 0.0
C855 C 0.80642 0.65913 1.00756 0.0
C856 C 0.80142 0.6534 0.03493 0.0
C857 C 0.82208 0.66269 1.01144 0.0
C858 C 0.81716 0.65705 0.03835 0.0
N859 N 0.82709 0.66156 0.02662 0.0
C860 C 0.7589 0.67257 0.97761 0.0
C861 C 0.78125 0.65787 0.96945 0.0
C862 C 0.7607 0.68274 0.96487 0.0
N863 N 0.76905 0.66036 0.97964 0.0
C864 C 0.78348 0.66774 0.95654 0.0
C865 C 0.77313 0.68043 0.95408 0.0
H866 H 0.74947 0.67455 0.98599 0.0
H867 H 0.78938 0.6483 0.97141 0.0
C868 C 0.79461 0.60113 0.02806 0.0
N869 N 0.79647 0.614 0.01885 0.0
C870 C 0.8074 0.59116 0.03109 0.0
C871 C 0.82379 0.60758 0.01481 0.0
C872 C 0.81069 0.61725 0.01213 0.0
C873 C 0.82229 0.59433 0.02446 0.0
H874 H 0.78315 0.59854 0.03302 0.0
H875 H 0.81187 0.62728 1.00453 0.0
O876 O 0.74563 0.65048 1.00939 0.0
O877 O 0.76002 0.62388 0.02992 0.0
O878 O 0.76673 0.62358 0.99497 0.0
O879 O 0.78071 0.65067 0.01577 0.0
H880 H 0.72376 0.65903 0.03009 0.0
H881 H 0.73221 0.6476 0.98131 0.0
H882 H 0.69536 0.66281 0.02388 0.0
H883 H 0.70365 0.65144 0.97594 0.0
H884 H 0.77992 0.62062 0.07957 0.0
H885 H 0.73413 0.61375 0.04411 0.0
H886 H 0.78295 0.62616 0.0511 0.0
H887 H 0.73196 0.60828 0.07268 0.0
H888 H 0.69319 0.60828 0.01931 0.0
H889 H 0.71963 0.5826 0.98383 0.0
H890 H 0.77176 0.69359 0.06226 0.0
H891 H 0.73287 0.66426 0.07705 0.0
H892 H 0.7942 0.61441 0.98308 0.0
H893 H 0.74609 0.62613 0.97164 0.0
H894 H 0.79946 0.60978 0.95465 0.0
H895 H 0.75219 0.62143 0.94339 0.0
H896 H 0.80245 0.66003 0.9955 0.0
H897 H 0.79348 0.65006 0.04429 0.0
H898 H 0.83025 0.66634 1.00238 0.0
H899 H 0.82147 0.65635 0.05032 0.0
H900 H 0.7526 0.69251 0.96369 0.0
H901 H 0.79317 0.66539 0.94852 0.0
H902 H 0.80556 0.58094 0.03836 0.0
H903 H 0.83502 0.61057 1.0095 0.0
Li904 Li 0.8777 0.02655 0.26691 0.0
Li905 Li 0.89856 1.00972 0.27817 0.0
Li906 Li 0.89847 0.01516 0.24936 0.0
Li907 Li 0.87847 0.9976 0.26102 0.0
C908 C 0.90518 0.04169 0.27815 0.0
N909 N 0.91364 0.06427 0.30021 0.0
C910 C 0.89635 0.04357 0.29197 0.0
C911 C 0.91831 0.05128 0.27555 0.0
C912 C 0.90082 0.05505 0.30298 0.0
C913 C 0.9224 0.06264 0.28685 0.0
C914 C 0.87144 0.99774 0.29302 0.0
C915 C 0.87643 0.97309 0.30587 0.0
N916 N 0.86376 0.9757 0.31542 0.0
C917 C 0.85849 1.00019 0.30296 0.0
C918 C 0.88051 0.9841 0.29448 0.0
C919 C 0.85479 0.9889 0.31421 0.0
C920 C 0.84929 0.04186 0.27625 0.0
N921 N 0.86397 0.04433 0.27024 0.0
C922 C 0.85911 0.07204 0.26919 0.0
C923 C 0.86898 0.05905 0.26663 0.0
C924 C 0.84387 0.0699 0.27549 0.0
C925 C 0.83902 0.05451 0.27898 0.0
H926 H 0.84554 0.03003 0.27892 0.0
H927 H 0.88068 0.06072 0.2618 0.0
C928 C 0.92711 1.00121 0.29352 0.0
N929 N 0.91219 1.00661 0.29612 0.0
C930 C 0.93734 0.99851 0.30618 0.0
C931 C 0.91674 1.00705 0.324 0.0
C932 C 0.90691 1.00962 0.311 0.0
C933 C 0.93219 1.00136 0.32172 0.0
H934 H 0.93102 0.9989 0.28158 0.0
H935 H 0.89503 0.01398 0.3128 0.0
C936 C 0.86918 0.01804 0.23192 0.0
N937 N 0.857 0.02365 0.20228 0.0
C938 C 0.86723 1.00565 0.22115 0.0
C939 C 0.8647 0.03324 0.22771 0.0
C940 C 0.86112 1.00874 0.2062 0.0
C941 C 0.85864 0.03585 0.21264 0.0
C942 C 0.90633 0.98146 0.25255 0.0
C943 C 0.90286 0.97953 0.23655 0.0
C944 C 0.91432 0.9696 0.26057 0.0
C945 C 0.90734 0.96565 0.22883 0.0
C946 C 0.91859 0.95588 0.25244 0.0
N947 N 0.91504 0.9542 0.23687 0.0
C948 C 0.92605 1.01151 0.23039 0.0
C949 C 0.90736 0.0293 0.21997 0.0
C950 C 0.93615 0.01395 0.21757 0.0
N951 N 0.91186 0.01902 0.2313 0.0
C952 C 0.91707 0.03206 0.20693 0.0
C953 C 0.93172 0.02433 0.20555 0.0
H954 H 0.92958 1.00365 0.23968 0.0
H955 H 0.89627 0.03547 0.22106 0.0
C956 C 0.85031 0.98208 0.25162 0.0
N957 N 0.86511 0.97948 0.25732 0.0
C958 C 0.83999 0.9695 0.24876 0.0
C959 C 0.8602 0.95175 0.25787 0.0
C960 C 0.87012 0.96466 0.26056 0.0
C961 C 0.84487 0.95403 0.25185 0.0
H962 H 0.84649 0.99397 0.24933 0.0
H963 H 0.8818 0.9628 0.26531 0.0
O964 O 0.90111 0.03047 0.26723 0.0
O965 O 0.87518 1.00869 0.28193 0.0
O966 O 0.87498 0.01526 0.24668 0.0
O967 O 0.90196 0.9949 0.26039 0.0
H968 H 0.88617 0.03623 0.29419 0.0
H969 H 0.92528 0.04994 0.26491 0.0
H970 H 0.8941 0.05663 0.31373 0.0
H971 H 0.93253 0.07015 0.285 0.0
H972 H 0.88334 0.96248 0.30713 0.0
H973 H 0.85138 1.01071 0.30199 0.0
H974 H 0.89061 0.98204 0.28694 0.0
H975 H 0.84479 0.99064 0.32199 0.0
H976 H 0.86348 0.08366 0.26649 0.0
H977 H 0.82733 0.05221 0.28363 0.0
H978 H 0.94907 0.99395 0.30382 0.0
H979 H 0.9123 1.00962 0.33572 0.0
H980 H 0.87027 0.99375 0.22432 0.0
H981 H 0.86601 0.04294 0.23594 0.0
H982 H 0.85959 0.99927 0.19773 0.0
H983 H 0.85523 0.04757 0.20919 0.0
H984 H 0.89689 0.98868 0.23015 0.0
H985 H 0.91709 0.97094 0.27297 0.0
H986 H 0.90473 0.96399 0.21644 0.0
H987 H 0.92472 0.94657 0.25851 0.0
H988 H 0.94744 1.00795 0.21723 0.0
H989 H 0.91304 0.04008 0.19796 0.0
H990 H 0.82823 0.97191 0.24436 0.0
H991 H 0.86458 0.94007 0.26032 0.0
Li992 Li 0.25989 0.14816 0.52561 0.0
Li993 Li 0.24875 0.12745 0.50787 0.0
Li994 Li 0.27783 0.12725 0.51351 0.0
Li995 Li 0.26559 0.14705 0.497 0.0
C996 C 0.26504 0.1191 0.54241 0.0
N997 N 0.27667 0.10717 0.57025 0.0
C998 C 0.25923 0.10492 0.54818 0.0
C999 C 0.27679 0.12721 0.55075 0.0
C1000 C 0.26525 0.09909 0.5623 0.0
C1001 C 0.28252 0.12098 0.5648 0.0
C1002 C 0.22908 0.15078 0.50641 0.0
C1003 C 0.20544 0.14814 0.49072 0.0
N1004 N 0.19653 0.14971 0.50399 0.0
C1005 C 0.21971 0.15245 0.51989 0.0
C1006 C 0.22192 0.1487 0.49169 0.0
C1007 C 0.20326 0.15185 0.51841 0.0
C1008 C 0.25898 0.17691 0.54314 0.0
N1009 N 0.25572 0.16129 0.54393 0.0
C1010 C 0.24631 0.16455 0.57043 0.0
C1011 C 0.24929 0.15505 0.55717 0.0
C1012 C 0.24978 0.18072 0.57005 0.0
C1013 C 0.25614 0.18685 0.55608 0.0
H1014 H 0.26365 0.18172 0.53239 0.0
H1015 H 0.24641 0.14269 0.55748 0.0
C1016 C 0.22831 0.10665 0.49077 0.0
N1017 N 0.23058 0.11399 0.50491 0.0
C1018 C 0.21515 0.09697 0.48832 0.0
C1019 C 0.20694 0.10234 0.51509 0.0
C1020 C 0.22028 0.11192 0.51703 0.0
C1021 C 0.20418 0.09471 0.50055 0.0
H1022 H 0.23675 0.10823 0.48139 0.0
H1023 H 0.22239 0.11781 0.5282 0.0
C1024 C 0.29275 0.15885 0.5079 0.0
N1025 N 0.3161 0.17607 0.49318 0.0
C1026 C 0.30564 0.15124 0.50087 0.0
C1027 C 0.29171 0.17523 0.50734 0.0
C1028 C 0.31734 0.16015 0.49354 0.0
C1029 C 0.30363 0.18373 0.49985 0.0
C1030 C 0.27127 0.12275 0.47782 0.0
C1031 C 0.28663 0.11796 0.47403 0.0
C1032 C 0.26069 0.1265 0.46577 0.0
C1033 C 0.29117 0.11709 0.45821 0.0
C1034 C 0.2657 0.1255 0.4501 0.0
N1035 N 0.28071 0.12086 0.44668 0.0
C1036 C 0.29491 0.09848 0.51257 0.0
C1037 C 0.30796 0.11895 0.52651 0.0
C1038 C 0.30748 0.08819 0.51546 0.0
N1039 N 0.29543 0.11358 0.51795 0.0
C1040 C 0.3208 0.10908 0.52963 0.0
C1041 C 0.32073 0.09347 0.52402 0.0
H1042 H 0.28475 0.09445 0.5059 0.0
H1043 H 0.30801 0.13094 0.53087 0.0
C1044 C 0.25782 0.17212 0.47643 0.0
N1045 N 0.26884 0.16078 0.47901 0.0
C1046 C 0.25951 0.18258 0.46391 0.0
C1047 C 0.28393 0.16965 0.45687 0.0
C1048 C 0.28177 0.15946 0.46952 0.0
C1049 C 0.27271 0.18145 0.45389 0.0
H1050 H 0.24769 0.1731 0.48415 0.0
H1051 H 0.29052 0.15054 0.47177 0.0
O1052 O 0.25941 0.12488 0.52852 0.0
O1053 O 0.2452 0.15087 0.50766 0.0
O1054 O 0.28112 0.1503 0.51508 0.0
O1055 O 0.26661 0.12365 0.49324 0.0
H1056 H 0.25016 0.09849 0.54181 0.0
H1057 H 0.28147 0.13817 0.54638 0.0
H1058 H 0.26085 0.08813 0.56693 0.0
H1059 H 0.29162 0.12712 0.57138 0.0
H1060 H 0.19974 0.14644 0.47941 0.0
H1061 H 0.22507 0.15401 0.53137 0.0
H1062 H 0.22902 0.14739 0.48116 0.0
H1063 H 0.19585 0.15303 0.52875 0.0
H1064 H 0.24149 0.15922 0.58091 0.0
H1065 H 0.25867 0.19926 0.55504 0.0
H1066 H 0.21372 0.09113 0.477 0.0
H1067 H 0.19877 0.10109 0.52482 0.0
H1068 H 0.30647 0.13858 0.50075 0.0
H1069 H 0.28173 0.18135 0.51242 0.0
H1070 H 0.32733 0.15439 0.48801 0.0
H1071 H 0.30294 0.1964 0.49929 0.0
H1072 H 0.295 0.11508 0.48319 0.0
H1073 H 0.24881 0.13035 0.46848 0.0
H1074 H 0.30304 0.11346 0.45511 0.0
H1075 H 0.25767 0.12848 0.44066 0.0
H1076 H 0.30692 0.0763 0.51081 0.0
H1077 H 0.33061 0.1136 0.53651 0.0
H1078 H 0.25045 0.19135 0.46202 0.0
H1079 H 0.29442 0.16844 0.44965 0.0
Li1080 Li 0.39771 0.50977 0.77865 0.0
Li1081 Li 0.37759 0.52694 0.76627 0.0
Li1082 Li 0.37767 0.49755 0.76058 0.0
Li1083 Li 0.39783 0.51542 0.74926 0.0
C1084 C 0.36905 0.503 0.79488 0.0
N1085 N 0.35854 0.49065 0.823 0.0
C1086 C 0.36235 0.51282 0.80638 0.0
C1087 C 0.37016 0.48686 0.79759 0.0
C1088 C 0.35718 0.50636 0.82055 0.0
C1089 C 0.36484 0.48086 0.8119 0.0
C1090 C 0.40225 0.54549 0.77191 0.0
C1091 C 0.40038 0.57304 0.76581 0.0
N1092 N 0.40404 0.5767 0.78102 0.0
C1093 C 0.4061 0.54951 0.78746 0.0
C1094 C 0.39948 0.55733 0.76096 0.0
C1095 C 0.40691 0.56537 0.79184 0.0
C1096 C 0.42583 0.50054 0.79416 0.0
N1097 N 0.41108 0.50638 0.79678 0.0
C1098 C 0.41595 0.50725 0.82461 0.0
C1099 C 0.40609 0.50991 0.81164 0.0
C1100 C 0.43119 0.50103 0.82229 0.0
C1101 C 0.43609 0.49774 0.80677 0.0
H1102 H 0.42962 0.49798 0.78223 0.0
H1103 H 0.39452 0.51496 0.81348 0.0
C1104 C 0.354 0.5496 0.75836 0.0
N1105 N 0.36412 0.54498 0.76989 0.0
C1106 C 0.34407 0.56259 0.76072 0.0
C1107 C 0.35509 0.56587 0.78679 0.0
C1108 C 0.36476 0.5528 0.78395 0.0
C1109 C 0.3445 0.57095 0.77511 0.0
H1110 H 0.35352 0.54312 0.74735 0.0
H1111 H 0.37283 0.5489 0.79298 0.0
C1112 C 0.40654 0.48002 0.76039 0.0
N1113 N 0.41757 0.44944 0.76045 0.0
C1114 C 0.41286 0.47332 0.74666 0.0
C1115 C 0.40608 0.47125 0.77421 0.0
C1116 C 0.4183 0.45782 0.74691 0.0
C1117 C 0.41165 0.45579 0.77399 0.0
C1118 C 0.37311 0.51713 0.72994 0.0
C1119 C 0.369 0.50425 0.72045 0.0
C1120 C 0.3761 0.53166 0.72303 0.0
C1121 C 0.36815 0.50608 0.70412 0.0
C1122 C 0.37515 0.53301 0.70666 0.0
N1123 N 0.37124 0.5203 0.69762 0.0
C1124 C 0.3497 0.47934 0.76354 0.0
C1125 C 0.36937 0.46711 0.74781 0.0
C1126 C 0.33954 0.46653 0.76126 0.0
N1127 N 0.36437 0.47938 0.75694 0.0
C1128 C 0.35961 0.45405 0.74525 0.0
C1129 C 0.34444 0.4536 0.75203 0.0
H1130 H 0.34589 0.48929 0.77061 0.0
H1131 H 0.38085 0.46753 0.74228 0.0
C1132 C 0.42198 0.53095 0.73197 0.0
N1133 N 0.41145 0.51888 0.73132 0.0
C1134 C 0.43209 0.53385 0.71926 0.0
C1135 C 0.42043 0.51181 0.7054 0.0
C1136 C 0.4106 0.50929 0.7184 0.0
C1137 C 0.4314 0.52423 0.70569 0.0
H1138 H 0.42257 0.53835 0.74238 0.0
H1139 H 0.4023 0.49964 0.71819 0.0
O1140 O 0.37419 0.50914 0.78095 0.0
O1141 O 0.40117 0.53004 0.76746 0.0
O1142 O 0.40118 0.4952 0.76033 0.0
O1143 O 0.37423 0.51551 0.74593 0.0
H1144 H 0.36123 0.5253 0.80444 0.0
H1145 H 0.37488 0.47902 0.78868 0.0
H1146 H 0.35208 0.51385 0.82959 0.0
H1147 H 0.36566 0.46839 0.81415 0.0
H1148 H 0.39815 0.58233 0.75748 0.0
H1149 H 0.40832 0.5405 0.79607 0.0
H1150 H 0.39655 0.55441 0.74887 0.0
H1151 H 0.4098 0.56866 0.80385 0.0
H1152 H 0.41175 0.51026 0.83631 0.0
H1153 H 0.44767 0.49282 0.80438 0.0
H1154 H 0.33597 0.56589 0.75144 0.0
H1155 H 0.35604 0.57201 0.79799 0.0
H1156 H 0.41348 0.47997 0.7359 0.0
H1157 H 0.40166 0.47635 0.78506 0.0
H1158 H 0.42312 0.45246 0.73634 0.0
H1159 H 0.41132 0.44887 0.78461 0.0
H1160 H 0.3666 0.49293 0.72561 0.0
H1161 H 0.37924 0.54176 0.73021 0.0
H1162 H 0.36506 0.49619 0.69662 0.0
H1163 H 0.37754 0.54416 0.70113 0.0
H1164 H 0.32801 0.46669 0.76682 0.0
H1165 H 0.3638 0.44453 0.73778 0.0
H1166 H 0.44023 0.54365 0.71999 0.0
H1167 H 0.4196 0.50395 0.6953 0.0
Li1168 Li 0.77743 0.39783 0.51396 0.0
Li1169 Li 0.76529 0.37662 0.53121 0.0
Li1170 Li 0.76025 0.37737 0.50191 0.0
Li1171 Li 0.74928 0.39729 0.51933 0.0
C1172 C 0.79518 0.36811 0.5127 0.0
N1173 N 0.82513 0.35515 0.51179 0.0
C1174 C 0.8036 0.36579 0.52667 0.0
C1175 C 0.80192 0.36365 0.49829 0.0
C1176 C 0.81875 0.35927 0.52596 0.0
C1177 C 0.8171 0.35718 0.49807 0.0
C1178 C 0.76063 0.41104 0.54434 0.0
C1179 C 0.74354 0.41876 0.5658 0.0
N1180 N 0.74633 0.43412 0.56248 0.0
C1181 C 0.76339 0.42689 0.54117 0.0
C1182 C 0.75068 0.40691 0.55677 0.0
C1183 C 0.75603 0.43839 0.55048 0.0
C1184 C 0.79313 0.42547 0.50379 0.0
N1185 N 0.7956 0.41135 0.51078 0.0
C1186 C 0.82334 0.41682 0.51279 0.0
C1187 C 0.81035 0.40701 0.51544 0.0
C1188 C 0.8212 0.43136 0.50534 0.0
C1189 C 0.80578 0.43565 0.5009 0.0
H1190 H 0.78128 0.42887 0.50045 0.0
H1191 H 0.8121 0.39595 0.52124 0.0
C1192 C 0.76547 0.34726 0.54662 0.0
N1193 N 0.76846 0.36284 0.54873 0.0
C1194 C 0.76757 0.33676 0.55905 0.0
C1195 C 0.77584 0.35851 0.5756 0.0
C1196 C 0.7736 0.36859 0.56284 0.0
C1197 C 0.77279 0.34232 0.57384 0.0
H1198 H 0.76147 0.34298 0.53525 0.0
H1199 H 0.77596 0.38102 0.56421 0.0
C1200 C 0.7643 0.4043 0.48386 0.0
N1201 N 0.77348 0.41145 0.45353 0.0
C1202 C 0.75462 0.41359 0.4744 0.0
C1203 C 0.77863 0.39863 0.47791 0.0
C1204 C 0.75948 0.41707 0.45908 0.0
C1205 C 0.78308 0.40239 0.46255 0.0
C1206 C 0.73048 0.37035 0.51347 0.0
C1207 C 0.72379 0.3794 0.50154 0.0
C1208 C 0.72246 0.35713 0.51894 0.0
C1209 C 0.70914 0.37506 0.49527 0.0
C1210 C 0.70782 0.35318 0.51236 0.0
N1211 N 0.70153 0.36215 0.50076 0.0
C1212 C 0.76344 0.34929 0.4838 0.0
C1213 C 0.74837 0.36898 0.47123 0.0
C1214 C 0.76132 0.33907 0.47093 0.0
N1215 N 0.75705 0.36396 0.48371 0.0
C1216 C 0.74592 0.35914 0.45815 0.0
C1217 C 0.75243 0.34392 0.45782 0.0
H1218 H 0.77022 0.34552 0.49389 0.0
H1219 H 0.74321 0.38059 0.47147 0.0
C1220 C 0.73112 0.42524 0.51634 0.0
N1221 N 0.73126 0.4108 0.52304 0.0
C1222 C 0.71838 0.43547 0.51883 0.0
C1223 C 0.70609 0.41575 0.53501 0.0
C1224 C 0.71909 0.40592 0.53224 0.0
C1225 C 0.70557 0.43079 0.52827 0.0
H1226 H 0.74101 0.42888 0.50915 0.0
H1227 H 0.71949 0.39439 0.53747 0.0
O1228 O 0.78025 0.37429 0.51318 0.0
O1229 O 0.76731 0.39963 0.53505 0.0
O1230 O 0.75956 0.40063 0.49878 0.0
O1231 O 0.74486 0.37427 0.51975 0.0
H1232 H 0.79858 0.36918 0.53792 0.0
H1233 H 0.79549 0.3651 0.48737 0.0
H1234 H 0.82543 0.35751 0.53666 0.0
H1235 H 0.82248 0.35373 0.487 0.0
H1236 H 0.73572 0.41575 0.57539 0.0
H1237 H 0.771 0.43026 0.53153 0.0
H1238 H 0.74831 0.39468 0.55926 0.0
H1239 H 0.75798 0.4507 0.54812 0.0
H1240 H 0.83499 0.41293 0.51633 0.0
H1241 H 0.80346 0.44684 0.4954 0.0
H1242 H 0.76529 0.32439 0.55701 0.0
H1243 H 0.77971 0.36341 0.58679 0.0
H1244 H 0.74345 0.418 0.47882 0.0
H1245 H 0.78625 0.3915 0.48511 0.0
H1246 H 0.7521 0.42423 0.45161 0.0
H1247 H 0.79415 0.3981 0.45781 0.0
H1248 H 0.72983 0.38966 0.49715 0.0
H1249 H 0.72751 0.35 0.52816 0.0
H1250 H 0.70383 0.38195 0.48602 0.0
H1251 H 0.70148 0.34298 0.51647 0.0
H1252 H 0.76671 0.32753 0.47119 0.0
H1253 H 0.73874 0.36334 0.44849 0.0
H1254 H 0.71867 0.447 0.51357 0.0
H1255 H 0.69644 0.41151 0.5422 0.0
Li1256 Li 0.64854 0.99713 0.76694 0.0
Li1257 Li 0.62834 0.01495 0.77848 0.0
Li1258 Li 0.62842 1.00914 0.74908 0.0
Li1259 Li 0.64847 0.02658 0.76162 0.0
C1260 C 0.62028 0.97922 0.76611 0.0
N1261 N 0.61056 0.94826 0.76399 0.0
C1262 C 0.61354 0.97189 0.77916 0.0
C1263 C 0.62184 0.97087 0.75193 0.0
C1264 C 0.60877 0.95621 0.77787 0.0
C1265 C 0.61691 0.95522 0.75111 0.0
C1266 C 0.6528 0.01709 0.7978 0.0
C1267 C 0.65086 0.03344 0.82111 0.0
N1268 N 0.65408 0.02073 0.83017 0.0
C1269 C 0.65619 1.00422 0.80732 0.0
C1270 C 0.65022 0.03185 0.80472 0.0
C1271 C 0.65676 1.0063 0.82367 0.0
C1272 C 0.6766 0.97924 0.76359 0.0
N1273 N 0.662 0.97911 0.7703 0.0
C1274 C 0.66725 0.95394 0.78162 0.0
C1275 C 0.65726 0.96685 0.77931 0.0
C1276 C 0.68234 0.95364 0.77465 0.0
C1277 C 0.68696 0.96658 0.76555 0.0
H1278 H 0.68025 0.98924 0.7567 0.0
H1279 H 0.64578 0.9671 0.78486 0.0
C1280 C 0.60517 0.03112 0.79699 0.0
N1281 N 0.61488 0.01837 0.79661 0.0
C1282 C 0.59533 0.03394 0.80998 0.0
C1283 C 0.60547 1.01038 0.82195 0.0
C1284 C 0.61513 1.00803 0.80873 0.0
C1285 C 0.59538 0.0235 0.82273 0.0
H1286 H 0.60498 0.03907 0.78716 0.0
H1287 H 0.62289 0.99795 0.80818 0.0
C1288 C 0.65731 1.00333 0.73247 0.0
N1289 N 0.66842 0.99272 0.70363 0.0
C1290 C 0.66318 0.01398 0.72148 0.0
C1291 C 0.65736 0.98726 0.72888 0.0
C1292 C 0.66866 1.00839 0.70694 0.0
C1293 C 0.66296 0.98214 0.71422 0.0
C1294 C 0.62341 0.04488 0.7563 0.0
C1295 C 0.61876 0.04868 0.741 0.0
C1296 C 0.62656 0.05687 0.76723 0.0
C1297 C 0.6175 0.06448 0.73683 0.0
C1298 C 0.6252 0.07252 0.7626 0.0
N1299 N 0.62075 0.07597 0.74762 0.0
C1300 C 0.60057 0.99916 0.73322 0.0
C1301 C 0.61995 1.00956 0.71613 0.0
C1302 C 0.5904 0.99627 0.7205 0.0
N1303 N 0.61511 1.00556 0.73084 0.0
C1304 C 0.61018 1.00684 0.70306 0.0
C1305 C 0.59516 1.00006 0.70512 0.0
H1306 H 0.59688 0.99624 0.74504 0.0
H1307 H 0.63131 0.01507 0.7145 0.0
C1308 C 0.67291 0.04826 0.76958 0.0
N1309 N 0.66198 0.04462 0.75836 0.0
C1310 C 0.68305 0.06111 0.76767 0.0
C1311 C 0.67058 0.06627 0.74267 0.0
C1312 C 0.66072 0.05329 0.74504 0.0
C1313 C 0.682 0.07036 0.75406 0.0
H1314 H 0.67388 0.0411 0.77998 0.0
H1315 H 0.65205 0.05015 0.7362 0.0
O1316 O 0.62504 0.99457 0.76719 0.0
O1317 O 0.65191 0.01524 0.78179 0.0
O1318 O 0.65193 1.00862 0.74679 0.0
O1319 O 0.62486 0.02948 0.76054 0.0
H1320 H 0.61207 0.9782 0.79018 0.0
H1321 H 0.62661 0.97646 0.7416 0.0
H1322 H 0.60363 0.95036 0.78791 0.0
H1323 H 0.61808 0.94862 0.7402 0.0
H1324 H 0.64879 0.04476 0.82664 0.0
H1325 H 0.65825 0.99273 0.80215 0.0
H1326 H 0.64765 0.04194 0.79752 0.0
H1327 H 0.65929 0.99642 0.83119 0.0
H1328 H 0.66312 0.94424 0.78867 0.0
H1329 H 0.69856 0.96706 0.7602 0.0
H1330 H 0.58759 0.04407 0.80991 0.0
H1331 H 0.60608 1.00211 0.83154 0.0
H1332 H 0.66341 0.02643 0.7241 0.0
H1333 H 0.65332 0.9788 0.73738 0.0
H1334 H 0.67312 0.01652 0.69828 0.0
H1335 H 0.66302 0.96973 0.71129 0.0
H1336 H 0.6162 0.03955 0.73241 0.0
H1337 H 0.63013 0.05413 0.77913 0.0
H1338 H 0.61398 0.0676 0.72501 0.0
H1339 H 0.6277 0.08193 0.77091 0.0
H1340 H 0.579 0.99092 0.72268 0.0
H1341 H 0.61424 1.01026 0.69149 0.0
H1342 H 0.69182 0.06357 0.77667 0.0
H1343 H 0.66916 0.0731 0.73207 0.0
Li1344 Li 0.02894 0.26364 0.88047 0.0
Li1345 Li 1.01131 0.27587 0.90058 0.0
Li1346 Li 0.01706 0.24647 0.90032 0.0
Li1347 Li 0.99926 0.2581 0.88029 0.0
C1348 C 0.04737 0.26787 0.90619 0.0
N1349 N 0.07905 0.27469 0.91037 0.0
C1350 C 0.052 0.28269 0.91175 0.0
C1351 C 0.05884 0.25646 0.90295 0.0
C1352 C 0.06808 0.28592 0.91374 0.0
C1353 C 0.07479 0.26015 0.90508 0.0
C1354 C 1.00645 0.29313 0.87299 0.0
C1355 C 0.98626 0.31268 0.86883 0.0
N1356 N 0.99757 0.32313 0.86448 0.0
C1357 C 0.01785 0.30401 0.86827 0.0
C1358 C 0.99051 0.29744 0.8731 0.0
C1359 C 0.01314 0.31914 0.8641 0.0
C1360 C 0.04994 0.25687 0.85499 0.0
N1361 N 0.0471 0.26712 0.86708 0.0
C1362 C 0.0696 0.28252 0.85972 0.0
C1363 C 0.0566 0.27982 0.86952 0.0
C1364 C 0.07284 0.27217 0.84708 0.0
C1365 C 0.06277 0.25917 0.84483 0.0
H1366 H 0.04212 0.24698 0.85311 0.0
H1367 H 0.05405 0.28796 0.87904 0.0
C1368 C 0.99884 0.29245 0.92716 0.0
N1369 N 1.00774 0.29412 0.91393 0.0
C1370 C 0.99587 0.30535 0.93711 0.0
C1371 C 0.01164 0.32145 0.91993 0.0
C1372 C 0.01427 0.30824 0.9103 0.0
C1373 C 1.00226 0.32016 0.93355 0.0
H1374 H 0.994 0.28108 0.93002 0.0
H1375 H 0.02175 0.30924 0.90005 0.0
C1376 C 0.01966 0.22761 0.87491 0.0
N1377 N 0.02406 0.19559 0.87149 0.0
C1378 C 1.00684 0.21784 0.87134 0.0
C1379 C 0.03474 0.22113 0.87653 0.0
C1380 C 1.0093 0.20167 0.8697 0.0
C1381 C 0.03672 0.20491 0.87482 0.0
C1382 C 0.98093 0.25733 0.90768 0.0
C1383 C 0.97427 0.24361 0.9137 0.0
C1384 C 0.97153 0.2707 0.90592 0.0
C1385 C 0.95822 0.24341 0.91757 0.0
C1386 C 0.95553 0.27004 0.90993 0.0
N1387 N 0.94925 0.25651 0.9156 0.0
C1388 C 0.03247 0.22887 0.92427 0.0
C1389 C 1.01097 0.21556 0.91229 0.0
C1390 C 0.0353 0.2161 0.93414 0.0
N1391 N 0.02052 0.22839 0.91354 0.0
C1392 C 0.01339 0.20251 0.9219 0.0
C1393 C 0.0257 0.20263 0.93306 0.0
H1394 H 0.03981 0.23923 0.92524 0.0
H1395 H 1.00137 0.21549 0.90389 0.0
C1396 C 0.98068 0.26271 0.85292 0.0
N1397 N 0.98112 0.25479 0.86676 0.0
C1398 C 0.96793 0.26083 0.84256 0.0
C1399 C 0.95636 0.24241 0.86066 0.0
C1400 C 0.96934 0.24467 0.87069 0.0
C1401 C 0.95548 0.25058 0.84636 0.0
H1402 H 0.99031 0.27046 0.84987 0.0
H1403 H 0.97006 0.23818 0.88153 0.0
O1404 O 0.03169 0.26454 0.90401 0.0
O1405 O 1.01088 0.27827 0.87715 0.0
O1406 O 0.01744 0.24345 0.87676 0.0
O1407 O 0.99661 0.2577 0.90373 0.0
H1408 H 0.04329 0.29161 0.91444 0.0
H1409 H 0.05545 0.24489 0.8988 0.0
H1410 H 0.07184 0.29736 0.91796 0.0
H1411 H 0.08379 0.25145 0.90253 0.0
H1412 H 0.97396 0.31618 0.86891 0.0
H1413 H 0.03022 0.30085 0.86796 0.0
H1414 H 0.98148 0.28908 0.87627 0.0
H1415 H 0.02185 0.3277 0.86056 0.0
H1416 H 0.07708 0.29259 0.86211 0.0
H1417 H 0.06457 0.25099 0.83514 0.0
H1418 H 0.98848 0.30375 0.94739 0.0
H1419 H 0.01711 0.3325 0.91685 0.0
H1420 H 0.9951 0.22266 0.86998 0.0
H1421 H 0.04482 0.22855 0.87907 0.0
H1422 H 0.99947 0.19395 0.86704 0.0
H1423 H 0.04832 0.19972 0.87612 0.0
H1424 H 0.9814 0.23321 0.9153 0.0
H1425 H 0.97656 0.28152 0.90168 0.0
H1426 H 0.95289 0.23284 0.92214 0.0
H1427 H 0.94811 0.2803 0.90859 0.0
H1428 H 0.04504 0.21671 0.94242 0.0
H1429 H 1.00552 0.19252 0.92078 0.0
H1430 H 0.96797 0.26715 0.83155 0.0
H1431 H 0.94705 0.23444 0.86416 0.0
Li1432 Li 0.52892 0.76401 0.37904 0.0
Li1433 Li 0.51071 0.77522 0.39917 0.0
Li1434 Li 0.51645 0.74597 0.39861 0.0
Li1435 Li 0.49932 0.75857 0.37862 0.0
C1436 C 0.5462 0.76269 0.40815 0.0
N1437 N 0.5766 0.75989 0.41976 0.0
C1438 C 0.5534 0.77538 0.41589 0.0
C1439 C 0.5544 0.7485 0.40652 0.0
C1440 C 0.5688 0.77376 0.42161 0.0
C1441 C 0.56977 0.74733 0.41241 0.0
C1442 C 0.50944 0.79476 0.37528 0.0
C1443 C 0.49372 0.81829 0.37794 0.0
N1444 N 0.50676 0.82711 0.37492 0.0
C1445 C 0.52266 0.80405 0.37211 0.0
C1446 C 0.49482 0.80191 0.37812 0.0
C1447 C 0.52107 0.82039 0.372 0.0
C1448 C 0.54658 0.76264 0.35067 0.0
N1449 N 0.54721 0.76769 0.36593 0.0
C1450 C 0.57323 0.77803 0.36186 0.0
C1451 C 0.56016 0.77537 0.3716 0.0
C1452 C 0.57296 0.77289 0.34606 0.0
C1453 C 0.55935 0.76511 0.3405 0.0
H1454 H 0.53611 0.75666 0.34639 0.0
H1455 H 0.5603 0.77966 0.38361 0.0
C1456 C 0.4941 0.79363 0.42212 0.0
N1457 N 0.50722 0.79319 0.41285 0.0
C1458 C 0.49117 0.80658 0.432 0.0
C1459 C 0.51536 0.8184 0.42277 0.0
C1460 C 0.51783 0.8052 0.41309 0.0
C1461 C 0.50186 0.81925 0.43242 0.0
H1462 H 0.48586 0.78393 0.42183 0.0
H1463 H 0.52823 0.80457 0.40571 0.0
C1464 C 0.52329 0.73006 0.36922 0.0
N1465 N 0.5353 0.70228 0.357 0.0
C1466 C 0.51314 0.71881 0.36264 0.0
C1467 C 0.53958 0.72728 0.36933 0.0
C1468 C 0.51943 0.70481 0.3566 0.0
C1469 C 0.54542 0.71315 0.36316 0.0
C1470 C 0.48051 0.75265 0.40284 0.0
C1471 C 0.47671 0.73716 0.40665 0.0
C1472 C 0.46843 0.7634 0.39976 0.0
C1473 C 0.46084 0.73264 0.40716 0.0
C1474 C 0.4527 0.7584 0.40035 0.0
N1475 N 0.44927 0.74326 0.40401 0.0
C1476 C 0.52475 0.73045 0.42678 0.0
C1477 C 0.51718 0.71294 0.40629 0.0
C1478 C 0.5275 0.71788 0.43693 0.0
N1479 N 0.51982 0.72781 0.41172 0.0
C1480 C 0.51979 0.70001 0.41603 0.0
C1481 C 0.52508 0.70235 0.43161 0.0
H1482 H 0.52657 0.74238 0.43092 0.0
H1483 H 0.51296 0.71105 0.39442 0.0
C1484 C 0.47711 0.76707 0.35493 0.0
N1485 N 0.48131 0.75536 0.36488 0.0
C1486 C 0.46417 0.76525 0.34479 0.0
C1487 C 0.46006 0.73928 0.35521 0.0
C1488 C 0.4731 0.74161 0.36514 0.0
C1489 C 0.4554 0.75119 0.34481 0.0
H1490 H 0.4839 0.77783 0.35476 0.0
H1491 H 0.47663 0.73243 0.3731 0.0
O1492 O 0.53112 0.7641 0.40249 0.0
O1493 O 0.51083 0.77877 0.37573 0.0
O1494 O 0.51731 0.74386 0.37513 0.0
O1495 O 0.49598 0.75724 0.40209 0.0
H1496 H 0.54719 0.7864 0.41742 0.0
H1497 H 0.5489 0.73843 0.40095 0.0
H1498 H 0.57454 0.78352 0.42755 0.0
H1499 H 0.57624 0.73642 0.41121 0.0
H1500 H 0.4825 0.82398 0.38023 0.0
H1501 H 0.53406 0.79871 0.36988 0.0
H1502 H 0.48447 0.79488 0.38058 0.0
H1503 H 0.53122 0.82773 0.36965 0.0
H1504 H 0.58332 0.78434 0.3666 0.0
H1505 H 0.55864 0.76083 0.32846 0.0
H1506 H 0.48052 0.80676 0.43907 0.0
H1507 H 0.52404 0.82775 0.42282 0.0
H1508 H 0.50053 0.72081 0.36229 0.0
H1509 H 0.54768 0.736 0.37394 0.0
H1510 H 0.51169 0.69596 0.35158 0.0
H1511 H 0.55799 0.71085 0.3632 0.0
H1512 H 0.48592 0.72871 0.4091 0.0
H1513 H 0.47117 0.77542 0.39678 0.0
H1514 H 0.45773 0.72068 0.41003 0.0
H1515 H 0.44324 0.76656 0.39789 0.0
H1516 H 0.53129 0.72034 0.4489 0.0
H1517 H 0.51787 0.6883 0.41131 0.0
H1518 H 0.46123 0.77467 0.33682 0.0
H1519 H 0.4536 0.72832 0.3558 0.0
Li1520 Li 0.01591 0.77863 0.62854 0.0
Li1521 Li 0.99847 0.76647 0.64866 0.0
Li1522 Li 0.0282 0.76101 0.64847 0.0
Li1523 Li 1.01024 0.74925 0.62845 0.0
C1524 C 0.02071 0.7961 0.65656 0.0
N1525 N 0.02904 0.82622 0.6658 0.0
C1526 C 1.00914 0.80667 0.66177 0.0
C1527 C 0.03655 0.80077 0.6563 0.0
C1528 C 0.01358 0.82186 0.66633 0.0
C1529 C 0.04052 0.81606 0.66095 0.0
C1530 C 0.97992 0.77101 0.6231 0.0
C1531 C 0.95231 0.76396 0.62369 0.0
N1532 N 0.94845 0.77874 0.61909 0.0
C1533 C 0.97569 0.78609 0.61826 0.0
C1534 C 0.96815 0.75981 0.62572 0.0
C1535 C 0.95971 0.78978 0.61634 0.0
C1536 C 0.02722 0.79428 0.60135 0.0
N1537 N 0.0194 0.79664 0.61519 0.0
C1538 C 0.01646 0.82402 0.60945 0.0
C1539 C 0.0139 0.81115 0.61928 0.0
C1540 C 0.0247 0.82199 0.59517 0.0
C1541 C 0.03007 0.80682 0.59118 0.0
H1542 H 0.0312 0.7826 0.59814 0.0
H1543 H 1.00735 0.81275 0.63008 0.0
C1544 C 0.97807 0.7593 0.67416 0.0
N1545 N 0.98039 0.76969 0.66231 0.0
C1546 C 0.96529 0.76106 0.6845 0.0
C1547 C 0.95745 0.78426 0.67038 0.0
C1548 C 0.97044 0.78209 0.66035 0.0
C1549 C 0.95469 0.77366 0.6827 0.0
H1550 H 0.98626 0.74968 0.67569 0.0
H1551 H 0.97259 0.79038 0.65105 0.0
C1552 C 0.04624 0.76044 0.62089 0.0
N1553 N 0.07783 0.7603 0.6126 0.0
C1554 C 0.05318 0.74679 0.61474 0.0
C1555 C 0.0553 0.77407 0.6226 0.0
C1556 C 0.06919 0.74694 0.61068 0.0
C1557 C 0.07126 0.77376 0.6184 0.0
C1558 C 1.00743 0.73058 0.65349 0.0
C1559 C 0.01989 0.7205 0.65723 0.0
C1560 C 0.99223 0.72448 0.65138 0.0
C1561 C 0.01697 0.70441 0.65854 0.0
C1562 C 0.98979 0.70832 0.65276 0.0
N1563 N 1.00211 0.6987 0.65627 0.0
C1564 C 0.04794 0.76581 0.67535 0.0
C1565 C 0.05756 0.74663 0.65737 0.0
C1566 C 0.0609 0.76343 0.68532 0.0
N1567 N 0.04654 0.75753 0.66161 0.0
C1568 C 0.07069 0.74386 0.66698 0.0
C1569 C 0.07253 0.75229 0.68122 0.0
H1570 H 0.03889 0.77419 0.67866 0.0
H1571 H 0.05607 0.7399 0.64661 0.0
C1572 C 0.9947 0.73126 0.6045 0.0
N1573 N 1.00677 0.73103 0.61509 0.0
C1574 C 0.99181 0.71826 0.59467 0.0
C1575 C 0.01391 0.705 0.60668 0.0
C1576 C 0.01641 0.71829 0.61623 0.0
C1577 C 1.00146 0.70484 0.59569 0.0
H1578 H 0.9873 0.74156 0.60364 0.0
H1579 H 0.0261 0.71843 0.62454 0.0
O1580 O 0.01655 0.78117 0.65204 0.0
O1581 O 0.9955 0.76723 0.62514 0.0
O1582 O 0.0306 0.76047 0.62502 0.0
O1583 O 1.0101 0.74634 0.65192 0.0
H1584 H 0.99686 0.80322 0.6622 0.0
H1585 H 0.04571 0.79264 0.65271 0.0
H1586 H 1.00473 0.8302 0.67028 0.0
H1587 H 0.05273 0.81984 0.66076 0.0
H1588 H 0.94308 0.75543 0.62576 0.0
H1589 H 0.98463 0.79487 0.61607 0.0
H1590 H 0.97122 0.74805 0.6293 0.0
H1591 H 0.95627 0.80142 0.61267 0.0
H1592 H 0.01216 0.83548 0.6131 0.0
H1593 H 0.03621 0.80459 0.58019 0.0
H1594 H 0.9639 0.75275 0.69397 0.0
H1595 H 0.94958 0.79408 0.66839 0.0
H1596 H 0.04631 0.73617 0.61319 0.0
H1597 H 0.05003 0.78483 0.62697 0.0
H1598 H 0.07474 0.73643 0.606 0.0
H1599 H 0.07842 0.78423 0.6197 0.0
H1600 H 0.0317 0.72503 0.659 0.0
H1601 H 0.98242 0.73214 0.64868 0.0
H1602 H 0.02652 0.69645 0.66132 0.0
H1603 H 0.9781 0.70343 0.65107 0.0
H1604 H 0.06163 0.77003 0.69627 0.0
H1605 H 0.07937 0.73524 0.66324 0.0
H1606 H 0.98198 0.71865 0.5865 0.0
H1607 H 0.02181 0.69505 0.60773 0.0
Li1608 Li 0.51633 0.2781 0.12891 0.0
Li1609 Li 0.49894 0.26564 0.14883 0.0
Li1610 Li 0.52862 0.26018 0.14867 0.0
Li1611 Li 0.51063 0.2488 0.12846 0.0
C1612 C 0.52197 0.29468 0.15782 0.0
N1613 N 0.53199 0.32364 0.16899 0.0
C1614 C 0.51099 0.30561 0.16356 0.0
C1615 C 0.53806 0.29838 0.15803 0.0
C1616 C 0.51628 0.32022 0.16907 0.0
C1617 C 0.54289 0.3131 0.16366 0.0
C1618 C 0.48037 0.27099 0.12385 0.0
C1619 C 0.45262 0.26465 0.12531 0.0
N1620 N 0.449 0.2796 0.12108 0.0
C1621 C 0.47639 0.28626 0.11942 0.0
C1622 C 0.46841 0.26006 0.12672 0.0
C1623 C 0.46045 0.29039 0.11811 0.0
C1624 C 0.52645 0.29384 0.10137 0.0
N1625 N 0.51982 0.29626 0.11581 0.0
C1626 C 0.51815 0.32392 0.11099 0.0
C1627 C 0.51553 0.31094 0.12066 0.0
C1628 C 0.52518 0.32183 0.09608 0.0
C1629 C 0.52929 0.30648 0.09133 0.0
H1630 H 0.52951 0.28204 0.09761 0.0
H1631 H 0.50992 0.31262 0.13196 0.0
C1632 C 0.47773 0.25773 0.1735 0.0
N1633 N 0.48087 0.2688 0.16249 0.0
C1634 C 0.46487 0.25948 0.18375 0.0
C1635 C 0.45864 0.28405 0.17122 0.0
C1636 C 0.47167 0.28185 0.16127 0.0
C1637 C 0.45506 0.27279 0.18271 0.0
H1638 H 0.48531 0.24755 0.17444 0.0
H1639 H 0.47444 0.29061 0.15256 0.0
C1640 C 0.54644 0.26084 0.1204 0.0
N1641 N 0.57754 0.26256 0.1106 0.0
C1642 C 0.55368 0.24782 0.11329 0.0
C1643 C 0.55495 0.2748 0.12232 0.0
C1644 C 0.56943 0.24889 0.10847 0.0
C1645 C 0.57068 0.27542 0.11734 0.0
C1646 C 0.50852 0.22957 0.15282 0.0
C1647 C 0.52139 0.21989 0.15625 0.0
C1648 C 0.49362 0.2229 0.15027 0.0
C1649 C 0.51918 0.20364 0.15687 0.0
C1650 C 0.4919 0.20659 0.15097 0.0
N1651 N 0.50462 0.19738 0.15421 0.0
C1652 C 0.54706 0.26315 0.17654 0.0
C1653 C 0.55892 0.24721 0.15682 0.0
C1654 C 0.55986 0.26065 0.18668 0.0
N1655 N 0.54684 0.25654 0.16187 0.0
C1656 C 0.57196 0.24441 0.16655 0.0
C1657 C 0.57258 0.25114 0.18176 0.0
H1658 H 0.53721 0.27031 0.18042 0.0
H1659 H 0.55838 0.24175 0.14529 0.0
C1660 C 0.49457 0.23055 0.10501 0.0
N1661 N 0.50724 0.23074 0.11489 0.0
C1662 C 0.49173 0.21757 0.09515 0.0
C1663 C 0.51511 0.20521 0.10563 0.0
C1664 C 0.51751 0.21845 0.11527 0.0
C1665 C 0.50205 0.2046 0.09537 0.0
H1666 H 0.48668 0.24053 0.10472 0.0
H1667 H 0.52757 0.21887 0.12313 0.0
O1668 O 0.51697 0.28031 0.15241 0.0
O1669 O 0.4959 0.26678 0.12532 0.0
O1670 O 0.53103 0.25995 0.12524 0.0
O1671 O 0.5105 0.24548 0.1519 0.0
H1672 H 0.49851 0.3029 0.16364 0.0
H1673 H 0.54677 0.28993 0.15408 0.0
H1674 H 0.5079 0.32883 0.17343 0.0
H1675 H 0.55531 0.31613 0.16385 0.0
H1676 H 0.44324 0.25633 0.12759 0.0
H1677 H 0.48549 0.29485 0.11708 0.0
H1678 H 0.47129 0.24818 0.13009 0.0
H1679 H 0.45719 0.30219 0.11475 0.0
H1680 H 0.51485 0.33551 0.11525 0.0
H1681 H 0.53446 0.3042 0.07985 0.0
H1682 H 0.46282 0.25061 0.19257 0.0
H1683 H 0.45138 0.29442 0.16982 0.0
H1684 H 0.54723 0.23696 0.11157 0.0
H1685 H 0.54944 0.2851 0.12742 0.0
H1686 H 0.57521 0.23887 0.10304 0.0
H1687 H 0.5774 0.28615 0.11878 0.0
H1688 H 0.53299 0.22487 0.15829 0.0
H1689 H 0.48352 0.23023 0.14771 0.0
H1690 H 0.52906 0.196 0.15942 0.0
H1691 H 0.48046 0.20126 0.14892 0.0
H1692 H 0.55962 0.26587 0.19837 0.0
H1693 H 0.5815 0.2371 0.16215 0.0
H1694 H 0.48166 0.2178 0.08727 0.0
H1695 H 0.5233 0.19546 0.10638 0.0
C1696 C 0.24687 0.78911 0.87792 0.0
C1697 C 0.23161 0.78279 0.87625 0.0
C1698 C 0.2509 0.79861 0.891 0.0
C1699 C 0.23942 0.80191 0.90275 0.0
C1700 C 0.2241 0.79534 0.90127 0.0
C1701 C 0.2204 0.78588 0.88809 0.0
C1702 C 0.26737 0.80538 0.89211 0.0
C1703 C 0.21152 0.79846 0.91354 0.0
C1704 C 0.25227 0.81639 0.94351 0.0
C1705 C 0.24949 0.83262 0.94257 0.0
C1706 C 0.24926 0.80629 0.9306 0.0
C1707 C 0.24327 0.81253 0.91639 0.0
C1708 C 0.24057 0.82892 0.91532 0.0
C1709 C 0.24372 0.83875 0.92838 0.0
C1710 C 0.2524 0.78892 0.93223 0.0
C1711 C 0.2341 0.83607 0.90043 0.0
H1712 H 0.25558 0.78695 0.86879 0.0
H1713 H 0.20866 0.78085 0.88707 0.0
H1714 H 0.26679 0.8184 0.8918 0.0
H1715 H 0.27288 0.80214 0.90349 0.0
H1716 H 0.27511 0.80122 0.88235 0.0
H1717 H 0.20028 0.79223 0.91084 0.0
H1718 H 0.21575 0.79471 0.9253 0.0
H1719 H 0.20907 0.81126 0.91434 0.0
H1720 H 0.25693 0.81156 0.95433 0.0
H1721 H 0.24134 0.85123 0.92758 0.0
H1722 H 0.26078 0.78491 0.92296 0.0
H1723 H 0.24126 0.78224 0.93051 0.0
H1724 H 0.2574 0.78596 0.94394 0.0
H1725 H 0.24189 0.8331 0.8903 0.0
H1726 H 0.23304 0.84906 0.90134 0.0
H1727 H 0.22226 0.83108 0.89779 0.0
C1728 C 0.02857 0.54119 0.3905 0.0
C1729 C 0.03551 0.54257 0.40549 0.0
C1730 C 0.03777 0.53786 0.37705 0.0
C1731 C 0.05433 0.53583 0.37856 0.0
C1732 C 0.06136 0.53692 0.39369 0.0
C1733 C 0.0519 0.54027 0.40693 0.0
C1734 C 0.0298 0.53682 0.36115 0.0
C1735 C 0.07894 0.53474 0.39588 0.0
C1736 C 0.07729 0.51492 0.34579 0.0
C1737 C 0.08401 0.52758 0.33766 0.0
C1738 C 0.06755 0.51742 0.35903 0.0
C1739 C 0.06438 0.53295 0.36432 0.0
C1740 C 0.07105 0.54577 0.35613 0.0
C1741 C 0.08078 0.54294 0.34295 0.0
C1742 C 0.06066 0.50342 0.36739 0.0
C1743 C 0.06803 0.56252 0.36137 0.0
H1744 H 0.01597 0.5431 0.38922 0.0
H1745 H 0.05735 0.54105 0.41847 0.0
H1746 H 0.03444 0.54616 0.35337 0.0
H1747 H 0.03251 0.52537 0.35539 0.0
H1748 H 0.01675 0.53812 0.362 0.0
H1749 H 0.08254 0.53559 0.40845 0.0
H1750 H 0.08262 0.5231 0.39114 0.0
H1751 H 0.08546 0.54379 0.38916 0.0
H1752 H 0.07949 0.50302 0.3417 0.0
H1753 H 0.08607 0.5528 0.33693 0.0
H1754 H 0.04757 0.50419 0.36746 0.0
H1755 H 0.06461 0.50342 0.37987 0.0
H1756 H 0.06418 0.4921 0.36178 0.0
H1757 H 0.05513 0.56489 0.36158 0.0
H1758 H 0.0738 0.57119 0.35354 0.0
H1759 H 0.07251 0.56435 0.37355 0.0
C1760 C 0.78486 0.73117 0.87494 0.0
C1761 C 0.78451 0.74731 0.87858 0.0
C1762 C 0.78348 0.71981 0.88681 0.0
C1763 C 0.78173 0.72465 0.90275 0.0
C1764 C 0.78165 0.74091 0.90653 0.0
C1765 C 0.78304 0.752 0.89444 0.0
C1766 C 0.78363 0.70261 0.88227 0.0
C1767 C 0.77989 0.74661 0.92336 0.0
C1768 C 0.76233 0.69719 0.93225 0.0
C1769 C 0.77541 0.69134 0.94055 0.0
C1770 C 0.76424 0.70783 0.91982 0.0
C1771 C 0.77961 0.71279 0.91548 0.0
C1772 C 0.79288 0.70676 0.92362 0.0
C1773 C 0.79063 0.69615 0.93604 0.0
C1774 C 0.74976 0.71393 0.91144 0.0
C1775 C 0.80947 0.71173 0.9194 0.0
H1776 H 0.78583 0.72741 0.86273 0.0
H1777 H 0.78303 0.76441 0.89744 0.0
H1778 H 0.79303 0.69639 0.88887 0.0
H1779 H 0.77219 0.69714 0.88549 0.0
H1780 H 0.78565 0.70075 0.86944 0.0
H1781 H 0.78038 0.75962 0.92438 0.0
H1782 H 0.76844 0.74254 0.92821 0.0
H1783 H 0.78938 0.74156 0.93078 0.0
H1784 H 0.75054 0.69338 0.93543 0.0
H1785 H 0.80081 0.69189 0.94246 0.0
H1786 H 0.75064 0.71137 0.89862 0.0
H1787 H 0.74903 0.72688 0.91289 0.0
H1788 H 0.73866 0.70866 0.91597 0.0
H1789 H 0.81173 0.70941 0.9067 0.0
H1790 H 0.81857 0.70551 0.92642 0.0
H1791 H 0.81084 0.72456 0.92141 0.0
C1792 C 0.99077 0.96951 0.38853 0.0
C1793 C 0.99284 0.9802 0.40109 0.0
C1794 C 0.98127 0.97322 0.37547 0.0
C1795 C 0.97361 0.98801 0.37488 0.0
C1796 C 0.97587 0.99897 0.38737 0.0
C1797 C 0.98544 0.99495 0.4003 0.0
C1798 C 0.97928 0.96122 0.36239 0.0
C1799 C 0.96792 0.01485 0.38722 0.0
C1800 C 0.95892 1.00212 0.3349 0.0
C1801 C 0.94279 0.99823 0.33545 0.0
C1802 C 0.96904 0.99902 0.34767 0.0
C1803 C 0.96294 0.99181 0.36136 0.0
C1804 C 0.94667 0.98794 0.36204 0.0
C1805 C 0.93681 0.99119 0.34911 0.0
C1806 C 0.98629 1.00341 0.34648 0.0
C1807 C 0.93968 0.98018 0.37636 0.0
H1808 H 0.99662 0.95819 0.38888 0.0
H1809 H 0.98681 1.00323 0.40999 0.0
H1810 H 0.96664 0.95792 0.36126 0.0
H1811 H 0.98296 0.96631 0.35098 0.0
H1812 H 0.9863 0.95039 0.36445 0.0
H1813 H 0.97133 0.02228 0.39753 0.0
H1814 H 0.97102 0.02117 0.37628 0.0
H1815 H 0.95489 0.01333 0.38729 0.0
H1816 H 0.96363 1.00775 0.32451 0.0
H1817 H 0.92444 0.98793 0.3496 0.0
H1818 H 0.99374 0.99276 0.34763 0.0
H1819 H 0.98954 0.01152 0.35628 0.0
H1820 H 0.98915 1.00915 0.33513 0.0
H1821 H 0.9455 0.96867 0.37828 0.0
H1822 H 0.92674 0.97822 0.37519 0.0
H1823 H 0.94187 0.98753 0.38701 0.0
C1824 C 0.22526 0.24494 0.63585 0.0
C1825 C 0.23093 0.24107 0.65087 0.0
C1826 C 0.22852 0.23539 0.62261 0.0
C1827 C 0.23762 0.22154 0.62438 0.0
C1828 C 0.2435 0.21763 0.63949 0.0
C1829 C 0.24013 0.22744 0.65251 0.0
C1830 C 0.22216 0.24009 0.60671 0.0
C1831 C 0.25315 0.20293 0.64194 0.0
C1832 C 0.23317 0.18903 0.59339 0.0
C1833 C 0.2467 0.19113 0.58405 0.0
C1834 C 0.23012 0.19877 0.60654 0.0
C1835 C 0.2408 0.21102 0.61049 0.0
C1836 C 0.25447 0.21324 0.60113 0.0
C1837 C 0.25727 0.20327 0.58809 0.0
C1838 C 0.21541 0.19598 0.6162 0.0
C1839 C 0.26615 0.22615 0.6049 0.0
H1840 H 0.21831 0.25554 0.63442 0.0
H1841 H 0.2444 0.22424 0.66409 0.0
H1842 H 0.23202 0.24127 0.59818 0.0
H1843 H 0.21416 0.2308 0.60206 0.0
H1844 H 0.21555 0.25136 0.60723 0.0
H1845 H 0.25711 0.2017 0.65435 0.0
H1846 H 0.24606 0.19244 0.63863 0.0
H1847 H 0.26372 0.20302 0.6342 0.0
H1848 H 0.22478 0.17988 0.59028 0.0
H1849 H 0.26789 0.20489 0.58115 0.0
H1850 H 0.2078 0.2066 0.61606 0.0
H1851 H 0.21866 0.19382 0.62866 0.0
H1852 H 0.20842 0.18582 0.61174 0.0
H1853 H 0.26011 0.23772 0.60482 0.0
H1854 H 0.27612 0.22644 0.59639 0.0
H1855 H 0.27103 0.22453 0.61692 0.0
C1856 C 0.49056 0.52912 0.63122 0.0
C1857 C 0.49132 0.54459 0.62564 0.0
C1858 C 0.48121 0.5253 0.64437 0.0
C1859 C 0.47238 0.5372 0.65217 0.0
C1860 C 0.47326 0.55286 0.64673 0.0
C1861 C 0.48271 0.55635 0.6336 0.0
C1862 C 0.48063 0.50847 0.64979 0.0
C1863 C 0.4641 0.56593 0.65472 0.0
C1864 C 0.43621 0.52609 0.67648 0.0
C1865 C 0.44202 0.52716 0.69196 0.0
C1866 C 0.44599 0.52913 0.66345 0.0
C1867 C 0.46203 0.53332 0.66589 0.0
C1868 C 0.46802 0.53424 0.68147 0.0
C1869 C 0.45796 0.53119 0.69429 0.0
C1870 C 0.43908 0.5281 0.64706 0.0
C1871 C 0.48505 0.53856 0.68461 0.0
H1872 H 0.49702 0.51991 0.62509 0.0
H1873 H 0.48342 0.56838 0.6296 0.0
H1874 H 0.48409 0.50781 0.66238 0.0
H1875 H 0.46836 0.50394 0.64883 0.0
H1876 H 0.48854 0.50068 0.64278 0.0
H1877 H 0.46614 0.5775 0.64913 0.0
H1878 H 0.45126 0.56329 0.6543 0.0
H1879 H 0.46751 0.56682 0.66732 0.0
H1880 H 0.42388 0.52318 0.67454 0.0
H1881 H 0.46264 0.53182 0.70617 0.0
H1882 H 0.44601 0.51972 0.63972 0.0
H1883 H 0.4398 0.53975 0.64134 0.0
H1884 H 0.42653 0.52426 0.64711 0.0
H1885 H 0.49302 0.53028 0.67829 0.0
H1886 H 0.488 0.53839 0.69737 0.0
H1887 H 0.48751 0.55049 0.68005 0.0
C1888 C 0.77528 0.29193 0.65352 0.0
C1889 C 0.78398 0.27798 0.65164 0.0
C1890 C 0.77377 0.30269 0.64113 0.0
C1891 C 0.78106 0.29943 0.62641 0.0
C1892 C 0.79002 0.28547 0.6245 0.0
C1893 C 0.7914 0.27496 0.63712 0.0
C1894 C 0.76423 0.31749 0.64374 0.0
C1895 C 0.7979 0.28149 0.609 0.0
C1896 C 0.7642 0.31902 0.58983 0.0
C1897 C 0.77495 0.33133 0.58734 0.0
C1898 C 0.76608 0.30857 0.60243 0.0
C1899 C 0.77899 0.31045 0.61293 0.0
C1900 C 0.78987 0.32285 0.61052 0.0
C1901 C 0.78775 0.3331 0.59778 0.0
C1902 C 0.75418 0.29554 0.60456 0.0
C1903 C 0.80381 0.32527 0.62141 0.0
H1904 H 0.76968 0.29448 0.66475 0.0
H1905 H 0.79799 0.26414 0.63548 0.0
H1906 H 0.7716 0.32796 0.64123 0.0
H1907 H 0.75406 0.31769 0.63548 0.0
H1908 H 0.75966 0.31851 0.65598 0.0
H1909 H 0.80482 0.27041 0.60954 0.0
H1910 H 0.78884 0.28025 0.59962 0.0
H1911 H 0.80594 0.29115 0.60551 0.0
H1912 H 0.75414 0.31766 0.58202 0.0
H1913 H 0.79626 0.3424 0.59588 0.0
H1914 H 0.74837 0.29675 0.61623 0.0
H1915 H 0.76025 0.28398 0.6043 0.0
H1916 H 0.7449 0.29554 0.59528 0.0
H1917 H 0.79961 0.32704 0.63369 0.0
H1918 H 0.81111 0.33555 0.61805 0.0
H1919 H 0.8114 0.31464 0.62129 0.0
C1920 C 0.53687 0.9696 0.63658 0.0
C1921 C 0.53413 0.98105 0.6251 0.0
C1922 C 0.54657 0.97271 0.64971 0.0
C1923 C 0.55376 0.98766 0.65148 0.0
C1924 C 0.55094 0.99933 0.64003 0.0
C1925 C 0.5412 0.99589 0.62699 0.0
C1926 C 0.5493 0.95991 0.6616 0.0
C1927 C 0.55828 0.01545 0.6415 0.0
C1928 C 0.56825 1.00001 0.69237 0.0
C1929 C 0.58455 0.997 0.69134 0.0
C1930 C 0.55812 0.99711 0.6795 0.0
C1931 C 0.56439 0.99101 0.66521 0.0
C1932 C 0.58083 0.98798 0.66408 0.0
C1933 C 0.59068 0.99102 0.67712 0.0
C1934 C 0.54069 1.00058 0.68119 0.0
C1935 C 0.588 0.9814 0.6491 0.0
H1936 H 0.53166 0.95803 0.63514 0.0
H1937 H 0.53902 1.00488 0.6183 0.0
H1938 H 0.56208 0.95703 0.66218 0.0
H1939 H 0.54569 0.96404 0.67351 0.0
H1940 H 0.54265 0.94901 0.65868 0.0
H1941 H 0.55474 0.0233 0.63173 0.0
H1942 H 0.55477 0.02103 0.65285 0.0
H1943 H 0.57136 0.01444 0.64156 0.0
H1944 H 0.56341 1.00484 0.70321 0.0
H1945 H 0.60321 0.98846 0.67625 0.0
H1946 H 0.53374 0.9897 0.67913 0.0
H1947 H 0.53697 1.00918 0.67218 0.0
H1948 H 0.53768 1.00539 0.69304 0.0
H1949 H 0.58255 0.96987 0.64619 0.0
H1950 H 0.601 0.97982 0.65007 0.0
H1951 H 0.5855 0.98936 0.63913 0.0
C1952 C 0.89458 0.23732 0.77512 0.0
C1953 C 0.87867 0.23877 0.77966 0.0
C1954 C 0.9069 0.23877 0.78618 0.0
C1955 C 0.90329 0.24175 0.80224 0.0
C1956 C 0.88726 0.24293 0.80697 0.0
C1957 C 0.87517 0.24141 0.79565 0.0
C1958 C 0.9238 0.23734 0.78062 0.0
C1959 C 0.88289 0.2461 0.82396 0.0
C1960 C 0.9353 0.23335 0.83274 0.0
C1961 C 0.94181 0.24834 0.83538 0.0
C1962 C 0.92266 0.23105 0.82216 0.0
C1963 C 0.91633 0.24404 0.81397 0.0
C1964 C 0.92272 0.25922 0.8167 0.0
C1965 C 0.93533 0.26118 0.82735 0.0
C1966 C 0.91624 0.21467 0.81957 0.0
C1967 C 0.9163 0.2734 0.80828 0.0
H1968 H 0.89743 0.23503 0.76285 0.0
H1969 H 0.86295 0.24271 0.79927 0.0
H1970 H 0.9302 0.24849 0.783 0.0
H1971 H 0.92996 0.22797 0.78723 0.0
H1972 H 0.92462 0.23459 0.76781 0.0
H1973 H 0.8699 0.2461 0.82584 0.0
H1974 H 0.88828 0.2371 0.83165 0.0
H1975 H 0.88766 0.25768 0.82776 0.0
H1976 H 0.94031 0.22331 0.83871 0.0
H1977 H 0.94008 0.27284 0.82947 0.0
H1978 H 0.9179 0.21107 0.80708 0.0
H1979 H 0.90335 0.21448 0.82198 0.0
H1980 H 0.92211 0.2059 0.82721 0.0
H1981 H 0.91771 0.27181 0.79536 0.0
H1982 H 0.92236 0.28444 0.81192 0.0
H1983 H 0.90346 0.27467 0.81067 0.0
C1984 C 0.49651 0.89387 0.49179 0.0
C1985 C 0.48152 0.90091 0.49086 0.0
C1986 C 0.5003 0.88049 0.48264 0.0
C1987 C 0.48885 0.87394 0.47229 0.0
C1988 C 0.47367 0.8809 0.4714 0.0
C1989 C 0.4702 0.89424 0.48069 0.0
C1990 C 0.51662 0.87344 0.48394 0.0
C1991 C 0.46109 0.87428 0.46059 0.0
C1992 C 0.502 0.8485 0.4374 0.0
C1993 C 0.4989 0.83326 0.4428 0.0
C1994 C 0.499 0.86179 0.44694 0.0
C1995 C 0.49272 0.85988 0.46228 0.0
C1996 C 0.48972 0.84453 0.46787 0.0
C1997 C 0.49284 0.83144 0.45809 0.0
C1998 C 0.50232 0.87793 0.44049 0.0
C1999 C 0.48309 0.84195 0.48416 0.0
H2000 H 0.5054 0.899 0.49947 0.0
H2001 H 0.45849 0.89938 0.48007 0.0
H2002 H 0.51576 0.86091 0.48731 0.0
H2003 H 0.52263 0.87382 0.47233 0.0
H2004 H 0.52408 0.87972 0.49276 0.0
H2005 H 0.44986 0.88104 0.46128 0.0
H2006 H 0.46533 0.87435 0.44822 0.0
H2007 H 0.45861 0.86188 0.46364 0.0
H2008 H 0.50648 0.85007 0.42556 0.0
H2009 H 0.49063 0.81974 0.46248 0.0
H2010 H 0.51045 0.88443 0.44848 0.0
H2011 H 0.49117 0.88477 0.43987 0.0
H2012 H 0.50767 0.87742 0.42853 0.0
H2013 H 0.49095 0.84741 0.49314 0.0
H2014 H 0.48172 0.82928 0.48688 0.0
H2015 H 0.47137 0.84771 0.48524 0.0
C2016 C 0.15492 0.28966 0.80341 0.0
C2017 C 0.15343 0.29085 0.78698 0.0
C2018 C 0.14185 0.28609 0.81297 0.0
C2019 C 0.12684 0.28358 0.80598 0.0
C2020 C 0.1253 0.28441 0.78937 0.0
C2021 C 0.13858 0.28804 0.78008 0.0
C2022 C 0.14407 0.28526 0.83061 0.0
C2023 C 0.10953 0.28178 0.78143 0.0
C2024 C 0.09561 0.26244 0.83037 0.0
C2025 C 0.08652 0.27502 0.83627 0.0
C2026 C 0.10859 0.26502 0.82033 0.0
C2027 C 0.11271 0.28055 0.81612 0.0
C2028 C 0.10355 0.29328 0.82194 0.0
C2029 C 0.09058 0.29037 0.83186 0.0
C2030 C 0.118 0.2511 0.81437 0.0
C2031 C 0.10752 0.31003 0.81778 0.0
H2032 H 0.16637 0.29152 0.80886 0.0
H2033 H 0.13723 0.28907 0.76743 0.0
H2034 H 0.13666 0.29432 0.83652 0.0
H2035 H 0.14013 0.27366 0.83495 0.0
H2036 H 0.15657 0.28711 0.83418 0.0
H2037 H 0.11041 0.28215 0.76838 0.0
H2038 H 0.10459 0.27023 0.78486 0.0
H2039 H 0.10102 0.29093 0.78539 0.0
H2040 H 0.09276 0.25055 0.83381 0.0
H2041 H 0.08351 0.30017 0.83606 0.0
H2042 H 0.13036 0.25194 0.81869 0.0
H2043 H 0.11846 0.25114 0.8013 0.0
H2044 H 0.11293 0.23973 0.81823 0.0
H2045 H 0.11964 0.31293 0.82189 0.0
H2046 H 0.09914 0.31862 0.82311 0.0
H2047 H 0.10737 0.31144 0.80479 0.0
C2048 C 0.53417 0.63451 0.49677 0.0
C2049 C 0.54395 0.62232 0.4912 0.0
C2050 C 0.53084 0.6477 0.48745 0.0
C2051 C 0.53737 0.64875 0.47211 0.0
C2052 C 0.54722 0.6365 0.46641 0.0
C2053 C 0.55042 0.6235 0.476 0.0
C2054 C 0.5203 0.66051 0.494 0.0
C2055 C 0.55444 0.63713 0.45015 0.0
C2056 C 0.51802 0.67556 0.44193 0.0
C2057 C 0.52806 0.68871 0.4422 0.0
C2058 C 0.52083 0.66256 0.45166 0.0
C2059 C 0.53397 0.66267 0.46202 0.0
C2060 C 0.54406 0.67596 0.46249 0.0
C2061 C 0.54101 0.68876 0.45258 0.0
C2062 C 0.50977 0.64865 0.45078 0.0
C2063 C 0.55819 0.67658 0.47335 0.0
H2064 H 0.52894 0.63367 0.50839 0.0
H2065 H 0.55822 0.61433 0.47164 0.0
H2066 H 0.52671 0.67188 0.4941 0.0
H2067 H 0.50978 0.66193 0.48633 0.0
H2068 H 0.51624 0.658 0.50617 0.0
H2069 H 0.56169 0.62657 0.44737 0.0
H2070 H 0.54499 0.63813 0.44114 0.0
H2071 H 0.56204 0.6477 0.44915 0.0
H2072 H 0.50783 0.67545 0.43418 0.0
H2073 H 0.54899 0.69873 0.45276 0.0
H2074 H 0.50461 0.64641 0.46257 0.0
H2075 H 0.51644 0.63795 0.44723 0.0
H2076 H 0.49999 0.65044 0.44225 0.0
H2077 H 0.55438 0.6748 0.48572 0.0
H2078 H 0.56462 0.68794 0.47266 0.0
H2079 H 0.56652 0.66694 0.47031 0.0
C2080 C 0.87471 0.78474 0.7337 0.0
C2081 C 0.87814 0.7843 0.74989 0.0
C2082 C 0.88678 0.7835 0.72232 0.0
C2083 C 0.90271 0.78178 0.72721 0.0
C2084 C 0.90627 0.7816 0.74352 0.0
C2085 C 0.89399 0.78288 0.75462 0.0
C2086 C 0.88246 0.78376 0.70506 0.0
C2087 C 0.92307 0.77986 0.74927 0.0
C2088 C 0.93262 0.76277 0.69931 0.0
C2089 C 0.94103 0.77582 0.69373 0.0
C2090 C 0.92006 0.76456 0.71004 0.0
C2091 C 0.91564 0.77978 0.71532 0.0
C2092 C 0.92387 0.79303 0.70955 0.0
C2093 C 0.93647 0.79089 0.6989 0.0
C2094 C 0.91161 0.75011 0.71588 0.0
C2095 C 0.91954 0.80947 0.71483 0.0
H2096 H 0.86251 0.78568 0.72989 0.0
H2097 H 0.89682 0.7828 0.76708 0.0
H2098 H 0.88915 0.79315 0.69901 0.0
H2099 H 0.88579 0.77243 0.69938 0.0
H2100 H 0.86962 0.78576 0.70318 0.0
H2101 H 0.92392 0.78024 0.76233 0.0
H2102 H 0.92804 0.76852 0.74499 0.0
H2103 H 0.93056 0.78936 0.74442 0.0
H2104 H 0.93581 0.75108 0.69522 0.0
H2105 H 0.94296 0.80107 0.69487 0.0
H2106 H 0.8988 0.75094 0.71324 0.0
H2107 H 0.91286 0.74932 0.72886 0.0
H2108 H 0.91629 0.73912 0.71045 0.0
H2109 H 0.90683 0.81172 0.71252 0.0
H2110 H 0.92665 0.81858 0.70878 0.0
H2111 H 0.92139 0.81074 0.72773 0.0
C2112 C 0.03731 0.88841 0.52904 0.0
C2113 C 0.04412 0.90196 0.53576 0.0
C2114 C 0.03365 0.87526 0.5383 0.0
C2115 C 0.03684 0.87563 0.5547 0.0
C2116 C 0.04349 0.88935 0.56159 0.0
C2117 C 0.04702 0.90231 0.55207 0.0
C2118 C 0.02658 0.86088 0.53049 0.0
C2119 C 0.04701 0.8903 0.57902 0.0
C2120 C 0.01596 0.84701 0.58209 0.0
C2121 C 0.02766 0.83558 0.58452 0.0
C2122 C 0.01869 0.85997 0.57228 0.0
C2123 C 0.0335 0.8616 0.56467 0.0
C2124 C 0.04532 0.85004 0.56696 0.0
C2125 C 0.04227 0.83721 0.57683 0.0
C2126 C 1.00575 0.87198 0.57013 0.0
C2127 C 0.0613 0.85134 0.55914 0.0
H2128 H 0.03516 0.88794 0.51645 0.0
H2129 H 0.05201 0.9128 0.55745 0.0
H2130 H 0.03467 0.85072 0.53187 0.0
H2131 H 0.01525 0.85777 0.53628 0.0
H2132 H 0.02435 0.86261 0.51772 0.0
H2133 H 0.05199 0.90188 0.5826 0.0
H2134 H 0.03605 0.88822 0.58588 0.0
H2135 H 0.05557 0.88099 0.58226 0.0
H2136 H 1.00455 0.84577 0.58776 0.0
H2137 H 0.05147 0.82858 0.57877 0.0
H2138 H 1.00287 0.8731 0.55743 0.0
H2139 H 1.00985 0.88366 0.57435 0.0
H2140 H 0.99479 0.86886 0.5766 0.0
H2141 H 0.05985 0.8522 0.54618 0.0
H2142 H 0.06904 0.84114 0.56172 0.0
H2143 H 0.06732 0.86222 0.56324 0.0
C2144 C 0.15541 0.73691 0.72443 0.0
C2145 C 0.15371 0.73362 0.74054 0.0
C2146 C 0.14225 0.74043 0.71497 0.0
C2147 C 0.12693 0.7407 0.72172 0.0
C2148 C 0.12514 0.73768 0.73802 0.0
C2149 C 0.13853 0.73419 0.74722 0.0
C2150 C 0.14472 0.74366 0.69768 0.0
C2151 C 0.10904 0.73783 0.74569 0.0
C2152 C 0.09408 0.76185 0.69951 0.0
C2153 C 0.08636 0.74935 0.69178 0.0
C2154 C 0.10718 0.75922 0.70938 0.0
C2155 C 0.11277 0.7437 0.71161 0.0
C2156 C 0.10497 0.73102 0.70393 0.0
C2157 C 0.0919 0.73399 0.69414 0.0
C2158 C 0.11516 0.77307 0.71729 0.0
C2159 C 0.11048 0.71429 0.70601 0.0
H2160 H 0.16709 0.73675 0.71919 0.0
H2161 H 0.13704 0.73151 0.75959 0.0
H2162 H 0.13834 0.73475 0.69046 0.0
H2163 H 0.13975 0.75532 0.69468 0.0
H2164 H 0.15741 0.74344 0.69433 0.0
H2165 H 0.10969 0.73583 0.75859 0.0
H2166 H 0.10311 0.74926 0.74364 0.0
H2167 H 0.10151 0.72856 0.7403 0.0
H2168 H 0.09004 0.77377 0.69765 0.0
H2169 H 0.0859 0.72421 0.68846 0.0
H2170 H 0.12765 0.77383 0.71336 0.0
H2171 H 0.1153 0.77148 0.73025 0.0
H2172 H 0.10918 0.78437 0.71465 0.0
H2173 H 0.12289 0.71308 0.70192 0.0
H2174 H 0.10304 0.70573 0.69938 0.0
H2175 H 0.11026 0.7112 0.71868 0.0
C2176 C 0.96904 0.6312 0.54588 0.0
C2177 C 0.98083 0.62323 0.53731 0.0
C2178 C 0.9726 0.64452 0.55516 0.0
C2179 C 0.98835 0.65013 0.55591 0.0
C2180 C 1.00029 0.64227 0.54716 0.0
C2181 C 0.9964 0.62894 0.53798 0.0
C2182 C 0.95948 0.65256 0.56424 0.0
C2183 C 0.01723 0.64787 0.54761 0.0
C2184 C 0.99443 0.69259 0.56944 0.0
C2185 C 0.99851 0.6908 0.58537 0.0
C2186 C 0.99132 0.67948 0.55968 0.0
C2187 C 0.99228 0.66415 0.56595 0.0
C2188 C 0.99656 0.66224 0.58197 0.0
C2189 C 0.99963 0.67556 0.59146 0.0
C2190 C 0.9869 0.68206 0.54266 0.0
C2191 C 0.99764 0.64613 0.58917 0.0
H2192 H 0.95693 0.62709 0.54525 0.0
H2193 H 1.00564 0.6228 0.53156 0.0
H2194 H 0.96223 0.65256 0.57703 0.0
H2195 H 0.95851 0.66501 0.5606 0.0
H2196 H 0.94785 0.64676 0.56239 0.0
H2197 H 0.02506 0.6407 0.53987 0.0
H2198 H 0.01789 0.6603 0.54388 0.0
H2199 H 0.0218 0.64736 0.55986 0.0
H2200 H 0.99377 0.70429 0.56455 0.0
H2201 H 1.00259 0.67403 0.60378 0.0
H2202 H 0.9749 0.67729 0.54034 0.0
H2203 H 0.99521 0.67562 0.5348 0.0
H2204 H 0.98703 0.69469 0.53948 0.0
H2205 H 0.98593 0.64027 0.58862 0.0
H2206 H 1.00158 0.64659 0.60166 0.0
H2207 H 1.00604 0.6387 0.58235 0.0
C2208 C 0.80091 0.87443 0.22621 0.0
C2209 C 0.78516 0.87358 0.23137 0.0
C2210 C 0.81047 0.88749 0.22986 0.0
C2211 C 0.8042 0.90008 0.23895 0.0
C2212 C 0.78838 0.89923 0.24437 0.0
C2213 C 0.77906 0.88602 0.24053 0.0
C2214 C 0.82729 0.88785 0.22389 0.0
C2215 C 0.78123 0.91239 0.25408 0.0
C2216 C 0.83358 0.92768 0.25922 0.0
C2217 C 0.83412 0.94038 0.24878 0.0
C2218 C 0.82377 0.91461 0.25629 0.0
C2219 C 0.81419 0.91417 0.24259 0.0
C2220 C 0.81452 0.92702 0.2321 0.0
C2221 C 0.82446 0.93992 0.23531 0.0
C2222 C 0.82376 0.9012 0.2678 0.0
C2223 C 0.80454 0.92703 0.21734 0.0
H2224 H 0.80585 0.86479 0.21937 0.0
H2225 H 0.76688 0.88558 0.24445 0.0
H2226 H 0.82903 0.89819 0.21624 0.0
H2227 H 0.83561 0.88907 0.23395 0.0
H2228 H 0.83043 0.87708 0.21707 0.0
H2229 H 0.7689 0.90979 0.25773 0.0
H2230 H 0.78845 0.91456 0.2648 0.0
H2231 H 0.78125 0.92341 0.24721 0.0
H2232 H 0.84077 0.92799 0.26979 0.0
H2233 H 0.82491 0.94954 0.22705 0.0
H2234 H 0.8277 0.89024 0.26178 0.0
H2235 H 0.81159 0.89912 0.27218 0.0
H2236 H 0.83163 0.90347 0.27806 0.0
H2237 H 0.80807 0.9171 0.20953 0.0
H2238 H 0.80571 0.93814 0.21068 0.0
H2239 H 0.79191 0.92531 0.2204 0.0
C2240 C 0.77847 0.13827 0.2872 0.0
C2241 C 0.78476 0.15075 0.29616 0.0
C2242 C 0.7877 0.12502 0.28326 0.0
C2243 C 0.80363 0.12418 0.28838 0.0
C2244 C 0.8101 0.13683 0.29724 0.0
C2245 C 0.80063 0.14992 0.30099 0.0
C2246 C 0.78032 0.11179 0.27381 0.0
C2247 C 0.82704 0.13649 0.30287 0.0
C2248 C 0.82381 0.08432 0.29219 0.0
C2249 C 0.83321 0.08364 0.27855 0.0
C2250 C 0.81397 0.09729 0.29539 0.0
C2251 C 0.81349 0.11 0.28474 0.0
C2252 C 0.82282 0.10934 0.27088 0.0
C2253 C 0.83253 0.0962 0.26795 0.0
C2254 C 0.80425 0.09751 0.31032 0.0
C2255 C 0.82265 0.1226 0.2592 0.0
H2256 H 0.76621 0.1387 0.28353 0.0
H2257 H 0.80572 0.1596 0.30767 0.0
H2258 H 0.78736 0.10946 0.263 0.0
H2259 H 0.78039 0.10086 0.28081 0.0
H2260 H 0.76795 0.11442 0.27032 0.0
H2261 H 0.83036 0.14734 0.30947 0.0
H2262 H 0.8289 0.12625 0.31064 0.0
H2263 H 0.83514 0.13508 0.29267 0.0
H2264 H 0.82437 0.07482 0.30058 0.0
H2265 H 0.83953 0.09572 0.25726 0.0
H2266 H 0.79158 0.09926 0.30746 0.0
H2267 H 0.80797 0.10752 0.31795 0.0
H2268 H 0.80549 0.08648 0.3171 0.0
H2269 H 0.81041 0.12469 0.25501 0.0
H2270 H 0.83032 0.12016 0.24883 0.0
H2271 H 0.82675 0.13361 0.265 0.0
C2272 C 0.40057 0.97445 0.97604 0.0
C2273 C 0.40307 0.98882 0.98396 0.0
C2274 C 0.3873 0.96506 0.97928 0.0
C2275 C 0.37613 0.97015 0.99067 0.0
C2276 C 0.3785 0.98466 0.99865 0.0
C2277 C 0.39193 0.9938 0.99523 0.0
C2278 C 0.38524 0.94968 0.97047 0.0
C2279 C 0.36687 0.99053 1.01086 0.0
C2280 C 0.33479 0.95232 0.98844 0.0
C2281 C 0.33546 0.94069 1.00006 0.0
C2282 C 0.34783 0.9621 0.98542 0.0
C2283 C 0.36197 0.96024 0.99417 0.0
C2284 C 0.36269 0.94863 1.006 0.0
C2285 C 0.34946 0.93903 1.0088 0.0
C2286 C 0.34655 0.9743 0.97269 0.0
C2287 C 0.3775 0.94626 0.01562 0.0
H2288 H 0.4089 0.97059 0.9671 0.0
H2289 H 0.39381 1.00476 1.00157 0.0
H2290 H 0.38461 0.93985 0.97893 0.0
H2291 H 0.37395 0.94977 0.96382 0.0
H2292 H 0.39506 0.94733 0.96207 0.0
H2293 H 0.37032 1.00213 0.01592 0.0
H2294 H 0.35495 0.9916 1.00553 0.0
H2295 H 0.36595 0.98195 0.02058 0.0
H2296 H 0.32415 0.95359 0.98146 0.0
H2297 H 0.35005 0.93028 0.01797 0.0
H2298 H 0.35534 0.97182 0.96329 0.0
H2299 H 0.34928 0.98612 0.97762 0.0
H2300 H 0.33459 0.97461 0.96728 0.0
H2301 H 0.38748 0.94303 1.00775 0.0
H2302 H 0.37608 0.93693 0.02457 0.0
H2303 H 0.38078 0.95738 0.02174 0.0
C2304 C 0.23132 0.37485 0.28487 0.0
C2305 C 0.24733 0.37832 0.28757 0.0
C2306 C 0.22002 0.38689 0.28329 0.0
C2307 C 0.22481 0.40282 0.28445 0.0
C2308 C 0.24089 0.40639 0.2875 0.0
C2309 C 0.25192 0.39413 0.28902 0.0
C2310 C 0.20301 0.38256 0.28005 0.0
C2311 C 0.2465 0.42319 0.28892 0.0
C2312 C 0.20009 0.43449 0.2647 0.0
C2313 C 0.19187 0.44115 0.27751 0.0
C2314 C 0.21067 0.42193 0.26678 0.0
C2315 C 0.21314 0.41578 0.28204 0.0
C2316 C 0.20475 0.42231 0.295 0.0
C2317 C 0.19424 0.43488 0.29258 0.0
C2318 C 0.21931 0.4153 0.25262 0.0
C2319 C 0.20705 0.41615 0.31146 0.0
H2320 H 0.22766 0.3627 0.28356 0.0
H2321 H 0.2642 0.39695 0.29137 0.0
H2322 H 0.19518 0.3881 0.28901 0.0
H2323 H 0.1994 0.38712 0.26839 0.0
H2324 H 0.20107 0.36965 0.28012 0.0
H2325 H 0.2593 0.424 0.29176 0.0
H2326 H 0.24433 0.4294 0.27769 0.0
H2327 H 0.23974 0.42947 0.29825 0.0
H2328 H 0.19818 0.43905 0.25298 0.0
H2329 H 0.18812 0.44004 0.3026 0.0
H2330 H 0.21688 0.40253 0.25139 0.0
H2331 H 0.23225 0.41668 0.25428 0.0
H2332 H 0.21586 0.42117 0.2415 0.0
H2333 H 0.20459 0.40335 0.3117 0.0
H2334 H 0.19927 0.42214 0.3202 0.0
H2335 H 0.21953 0.41782 0.31514 0.0
C2336 C 0.1381 0.02949 0.48081 0.0
C2337 C 0.12276 0.03488 0.48418 0.0
C2338 C 0.15143 0.03892 0.4839 0.0
C2339 C 0.14945 0.05414 0.49057 0.0
C2340 C 0.13403 0.05952 0.49428 0.0
C2341 C 0.1209 0.04986 0.49103 0.0
C2342 C 0.16764 0.03274 0.47971 0.0
C2343 C 0.13137 0.0756 0.50151 0.0
C2344 C 0.18491 0.07423 0.51 0.0
C2345 C 0.19004 0.08441 0.49811 0.0
C2346 C 0.17174 0.06435 0.50773 0.0
C2347 C 0.16344 0.06459 0.49323 0.0
C2348 C 0.16851 0.07488 0.48121 0.0
C2349 C 0.18169 0.08464 0.4838 0.0
C2350 C 0.16676 0.05356 0.52084 0.0
C2351 C 0.15998 0.07558 0.4656 0.0
H2352 H 0.13966 0.01802 0.47535 0.0
H2353 H 0.10914 0.05405 0.49388 0.0
H2354 H 0.17308 0.04029 0.4706 0.0
H2355 H 0.17547 0.03317 0.4902 0.0
H2356 H 0.16725 0.02046 0.47514 0.0
H2357 H 0.1187 0.07786 0.50414 0.0
H2358 H 0.13824 0.07682 0.51259 0.0
H2359 H 0.13565 0.08477 0.49336 0.0
H2360 H 0.19137 0.07379 0.52102 0.0
H2361 H 0.18536 0.09262 0.47463 0.0
H2362 H 0.16733 0.04115 0.51673 0.0
H2363 H 0.15431 0.05598 0.5242 0.0
H2364 H 0.17432 0.0549 0.53148 0.0
H2365 H 0.16002 0.0638 0.45985 0.0
H2366 H 0.16545 0.08413 0.45743 0.0
H2367 H 0.14745 0.07894 0.4675 0.0
C2368 C 0.73234 0.14984 0.74045 0.0
C2369 C 0.74852 0.14689 0.74273 0.0
C2370 C 0.72106 0.13774 0.74173 0.0
C2371 C 0.72604 0.12229 0.74538 0.0
C2372 C 0.74236 0.11919 0.74742 0.0
C2373 C 0.75336 0.13149 0.74605 0.0
C2374 C 0.70379 0.14154 0.73944 0.0
C2375 C 0.74821 0.10291 0.75125 0.0
C2376 C 0.69716 0.0938 0.76444 0.0
C2377 C 0.69287 0.08401 0.7517 0.0
C2378 C 0.70774 0.10638 0.7625 0.0
C2379 C 0.7142 0.10939 0.74743 0.0
C2380 C 0.70975 0.09975 0.73446 0.0
C2381 C 0.69919 0.08719 0.73675 0.0
C2382 C 0.71215 0.11636 0.77665 0.0
C2383 C 0.71634 0.10253 0.71819 0.0
H2384 H 0.72844 0.1617 0.73803 0.0
H2385 H 0.76584 0.129 0.74756 0.0
H2386 H 0.69867 0.13382 0.73014 0.0
H2387 H 0.6972 0.13925 0.75048 0.0
H2388 H 0.70188 0.15398 0.73609 0.0
H2389 H 0.7613 0.10236 0.75219 0.0
H2390 H 0.74304 0.09903 0.76258 0.0
H2391 H 0.74431 0.09442 0.74202 0.0
H2392 H 0.69217 0.09166 0.77599 0.0
H2393 H 0.69617 0.07963 0.72684 0.0
H2394 H 0.7094 0.12888 0.77437 0.0
H2395 H 0.72506 0.11555 0.77881 0.0
H2396 H 0.70583 0.11273 0.7875 0.0
H2397 H 0.71401 0.11481 0.71459 0.0
H2398 H 0.71118 0.09444 0.70921 0.0
H2399 H 0.72936 0.1009 0.71831 0.0
C2400 C 0.39326 0.04264 0.55626 0.0
C2401 C 0.40083 0.03363 0.54453 0.0
C2402 C 0.38005 0.052 0.55278 0.0
C2403 C 0.37415 0.0524 0.53716 0.0
C2404 C 0.38156 0.04316 0.52529 0.0
C2405 C 0.39479 0.03389 0.52911 0.0
C2406 C 0.37248 0.0616 0.56581 0.0
C2407 C 0.37566 0.04324 0.5085 0.0
C2408 C 0.33195 0.06708 0.53128 0.0
C2409 C 0.33441 0.0828 0.52705 0.0
C2410 C 0.34475 0.05701 0.53441 0.0
C2411 C 0.36043 0.06274 0.53325 0.0
C2412 C 0.36299 0.07854 0.52881 0.0
C2413 C 0.34998 0.08836 0.52579 0.0
C2414 C 0.34148 0.04028 0.53918 0.0
C2415 C 0.3795 0.08513 0.52736 0.0
H2416 H 0.39763 0.04232 0.56826 0.0
H2417 H 0.40062 0.0271 0.51992 0.0
H2418 H 0.37307 0.07427 0.56294 0.0
H2419 H 0.3598 0.05847 0.56689 0.0
H2420 H 0.3783 0.05978 0.57739 0.0
H2421 H 0.38242 0.03507 0.50074 0.0
H2422 H 0.36299 0.03989 0.50812 0.0
H2423 H 0.37659 0.05528 0.50368 0.0
H2424 H 0.31998 0.06271 0.53245 0.0
H2425 H 0.35202 0.10041 0.5223 0.0
H2426 H 0.34615 0.03824 0.55121 0.0
H2427 H 0.34766 0.03199 0.5311 0.0
H2428 H 0.32865 0.03747 0.53907 0.0
H2429 H 0.38563 0.08453 0.5389 0.0
H2430 H 0.37951 0.09753 0.5234 0.0
H2431 H 0.38646 0.07796 0.51884 0.0
C2432 C 0.62248 0.47502 0.53938 0.0
C2433 C 0.62412 0.49052 0.54502 0.0
C2434 C 0.63577 0.46554 0.53628 0.0
C2435 C 0.65114 0.47165 0.53886 0.0
C2436 C 0.65291 0.48736 0.54428 0.0
C2437 C 0.6394 0.49659 0.54728 0.0
C2438 C 0.63333 0.4489 0.53042 0.0
C2439 C 0.66907 0.49433 0.54719 0.0
C2440 C 0.68446 0.44232 0.54589 0.0
C2441 C 0.69178 0.44148 0.53104 0.0
C2442 C 0.67133 0.45214 0.5486 0.0
C2443 C 0.66534 0.46146 0.53621 0.0
C2444 C 0.67274 0.46079 0.52124 0.0
C2445 C 0.68582 0.45082 0.51883 0.0
C2446 C 0.66383 0.4525 0.56475 0.0
C2447 C 0.66674 0.47051 0.5077 0.0
H2448 H 0.61076 0.47028 0.53735 0.0
H2449 H 0.64082 0.50847 0.55179 0.0
H2450 H 0.63963 0.44707 0.51908 0.0
H2451 H 0.6384 0.44052 0.53899 0.0
H2452 H 0.62063 0.44603 0.52867 0.0
H2453 H 0.66847 0.50688 0.5509 0.0
H2454 H 0.67524 0.48764 0.55651 0.0
H2455 H 0.67636 0.4934 0.53636 0.0
H2456 H 0.68909 0.43539 0.55549 0.0
H2457 H 0.6912 0.45014 0.50726 0.0
H2458 H 0.65127 0.4488 0.56388 0.0
H2459 H 0.66395 0.46466 0.56959 0.0
H2460 H 0.66998 0.44467 0.57317 0.0
H2461 H 0.65438 0.46715 0.50488 0.0
H2462 H 0.67406 0.46899 0.49692 0.0
H2463 H 0.66666 0.48314 0.51108 0.0
C2464 C 0.74812 0.28519 0.38241 0.0
C2465 C 0.73239 0.2837 0.37728 0.0
C2466 C 0.75203 0.29452 0.39566 0.0
C2467 C 0.73994 0.30257 0.40403 0.0
C2468 C 0.72404 0.30091 0.39907 0.0
C2469 C 0.72047 0.29151 0.38582 0.0
C2470 C 0.76913 0.29595 0.40056 0.0
C2471 C 0.71077 0.30921 0.40767 0.0
C2472 C 0.74691 0.31708 0.44617 0.0
C2473 C 0.7498 0.33317 0.444 0.0
C2474 C 0.74399 0.30694 0.43329 0.0
C2475 C 0.74389 0.31299 0.41779 0.0
C2476 C 0.74699 0.32917 0.41549 0.0
C2477 C 0.74993 0.33902 0.42858 0.0
C2478 C 0.74074 0.28978 0.43628 0.0
C2479 C 0.74702 0.33612 0.39919 0.0
H2480 H 0.75744 0.27934 0.37584 0.0
H2481 H 0.70825 0.29023 0.38216 0.0
H2482 H 0.773 0.30837 0.3997 0.0
H2483 H 0.77053 0.29247 0.41305 0.0
H2484 H 0.77707 0.28854 0.39316 0.0
H2485 H 0.699 0.30651 0.40249 0.0
H2486 H 0.71069 0.30577 0.42025 0.0
H2487 H 0.71264 0.32211 0.40734 0.0
H2488 H 0.74658 0.31244 0.45801 0.0
H2489 H 0.75241 0.35136 0.4267 0.0
H2490 H 0.74899 0.28233 0.4293 0.0
H2491 H 0.72858 0.2868 0.43238 0.0
H2492 H 0.74196 0.28676 0.44893 0.0
H2493 H 0.75563 0.3298 0.39157 0.0
H2494 H 0.75005 0.34882 0.39934 0.0
H2495 H 0.73518 0.33464 0.39371 0.0
C2496 C 0.52979 0.04124 0.88948 0.0
C2497 C 0.5365 0.04112 0.90462 0.0
C2498 C 0.53896 0.03798 0.87599 0.0
C2499 C 0.55526 0.03448 0.87763 0.0
C2500 C 0.56203 0.03404 0.89289 0.0
C2501 C 0.55259 0.03735 0.90616 0.0
C2502 C 0.53127 0.0386 0.85995 0.0
C2503 C 0.57931 0.03026 0.8952 0.0
C2504 C 0.5771 0.01376 0.84398 0.0
C2505 C 0.58498 0.0263 0.83673 0.0
C2506 C 0.56733 0.01625 0.85719 0.0
C2507 C 0.56534 0.03165 0.86339 0.0
C2508 C 0.5732 0.04436 0.85611 0.0
C2509 C 0.5829 0.04154 0.84291 0.0
C2510 C 0.55913 1.00238 0.86455 0.0
C2511 C 0.57148 0.06095 0.86236 0.0
H2512 H 0.51743 0.0443 0.88813 0.0
H2513 H 0.55785 0.03697 0.91781 0.0
H2514 H 0.53683 0.04798 0.85286 0.0
H2515 H 0.53315 0.02733 0.85352 0.0
H2516 H 0.51836 0.04091 0.86069 0.0
H2517 H 0.5827 0.03003 0.90785 0.0
H2518 H 0.58211 0.01866 0.8898 0.0
H2519 H 0.58671 0.03913 0.88918 0.0
H2520 H 0.57843 1.00198 0.83919 0.0
H2521 H 0.58908 0.05128 0.83757 0.0
H2522 H 0.54614 1.00423 0.86448 0.0
H2523 H 0.56281 1.00127 0.87704 0.0
H2524 H 0.5618 0.99116 0.85827 0.0
H2525 H 0.55883 0.06439 0.86249 0.0
H2526 H 0.57814 0.06958 0.8552 0.0
H2527 H 0.57581 0.06164 0.87469 0.0
C2528 C 0.29518 0.24371 0.38645 0.0
C2529 C 0.28226 0.24633 0.37641 0.0
C2530 C 0.29421 0.23292 0.39888 0.0
C2531 C 0.27998 0.22451 0.40138 0.0
C2532 C 0.267 0.22689 0.39112 0.0
C2533 C 0.2683 0.23772 0.37879 0.0
C2534 C 0.30832 0.23074 0.40954 0.0
C2535 C 0.25165 0.21813 0.39329 0.0
C2536 C 0.28051 0.18713 0.42584 0.0
C2537 C 0.2748 0.19252 0.44048 0.0
C2538 C 0.2824 0.1974 0.41309 0.0
C2539 C 0.27849 0.2135 0.41494 0.0
C2540 C 0.27282 0.21905 0.4297 0.0
C2541 C 0.27106 0.20852 0.44226 0.0
C2542 C 0.28844 0.19099 0.39756 0.0
C2543 C 0.26854 0.23612 0.43222 0.0
H2544 H 0.30595 0.25039 0.38484 0.0
H2545 H 0.25834 0.23945 0.37096 0.0
H2546 H 0.30521 0.23433 0.42176 0.0
H2547 H 0.31172 0.21815 0.40984 0.0
H2548 H 0.3187 0.23771 0.40569 0.0
H2549 H 0.2428 0.22102 0.38408 0.0
H2550 H 0.25382 0.20527 0.39297 0.0
H2551 H 0.24654 0.22103 0.40501 0.0
H2552 H 0.28326 0.17477 0.42425 0.0
H2553 H 0.26688 0.21288 0.45356 0.0
H2554 H 0.29919 0.19749 0.39393 0.0
H2555 H 0.27941 0.19271 0.38825 0.0
H2556 H 0.29135 0.17827 0.39813 0.0
H2557 H 0.2789 0.24367 0.42968 0.0
H2558 H 0.2645 0.23861 0.44445 0.0
H2559 H 0.259 0.23949 0.42394 0.0
C2560 C 0.48994 0.46917 0.88886 0.0
C2561 C 0.49244 0.48003 0.90119 0.0
C2562 C 0.48031 0.47284 0.87589 0.0
C2563 C 0.47297 0.48778 0.87515 0.0
C2564 C 0.47566 0.49891 0.8874 0.0
C2565 C 0.48535 0.49491 0.90025 0.0
C2566 C 0.47785 0.46065 0.86306 0.0
C2567 C 0.46806 0.51496 0.88708 0.0
C2568 C 0.45807 0.50146 0.83511 0.0
C2569 C 0.44187 0.49795 0.83595 0.0
C2570 C 0.46829 0.49839 0.84781 0.0
C2571 C 0.4622 0.49158 0.86172 0.0
C2572 C 0.44585 0.48811 0.86269 0.0
C2573 C 0.4359 0.49134 0.84983 0.0
C2574 C 0.48561 0.50236 0.84632 0.0
C2575 C 0.43888 0.48078 0.87725 0.0
H2576 H 0.49556 0.45773 0.88932 0.0
H2577 H 0.48705 0.50333 0.90977 0.0
H2578 H 0.46511 0.45764 0.86218 0.0
H2579 H 0.48149 0.46545 0.85151 0.0
H2580 H 0.48463 0.44971 0.86523 0.0
H2581 H 0.47179 0.52248 0.8972 0.0
H2582 H 0.47114 0.52101 0.87598 0.0
H2583 H 0.45501 0.51373 0.88736 0.0
H2584 H 0.46277 0.50677 0.82455 0.0
H2585 H 0.42346 0.48839 0.85054 0.0
H2586 H 0.49284 0.49156 0.84755 0.0
H2587 H 0.48918 0.51056 0.85593 0.0
H2588 H 0.48845 0.50783 0.83483 0.0
H2589 H 0.44446 0.46918 0.87931 0.0
H2590 H 0.42589 0.47911 0.87629 0.0
H2591 H 0.44139 0.48827 0.88774 0.0
C2592 C 0.74711 0.73652 0.14893 0.0
C2593 C 0.73142 0.74121 0.15166 0.0
C2594 C 0.75111 0.72695 0.13588 0.0
C2595 C 0.73915 0.72193 0.12526 0.0
C2596 C 0.72334 0.72685 0.1278 0.0
C2597 C 0.71969 0.73641 0.14092 0.0
C2598 C 0.7681 0.72198 0.1336 0.0
C2599 C 0.71023 0.72187 0.11675 0.0
C2600 C 0.75014 0.70744 0.08397 0.0
C2601 C 0.74918 0.69105 0.08555 0.0
C2602 C 0.74714 0.71761 0.09682 0.0
C2603 C 0.74304 0.71129 0.11165 0.0
C2604 C 0.74223 0.69477 0.11337 0.0
C2605 C 0.74531 0.68487 0.10034 0.0
C2606 C 0.7481 0.73514 0.09444 0.0
C2607 C 0.73796 0.68752 0.12898 0.0
H2608 H 0.75625 0.74001 0.15721 0.0
H2609 H 0.70758 0.74018 0.14275 0.0
H2610 H 0.76902 0.709 0.13426 0.0
H2611 H 0.77227 0.72543 0.12174 0.0
H2612 H 0.77608 0.72728 0.1426 0.0
H2613 H 0.69861 0.72694 0.12019 0.0
H2614 H 0.71301 0.72557 0.10456 0.0
H2615 H 0.70921 0.70887 0.11657 0.0
H2616 H 0.75292 0.71237 0.07258 0.0
H2617 H 0.74477 0.67224 0.10178 0.0
H2618 H 0.75649 0.74045 0.10303 0.0
H2619 H 0.73636 0.74056 0.09664 0.0
H2620 H 0.75197 0.73819 0.08234 0.0
H2621 H 0.74631 0.69158 0.13825 0.0
H2622 H 0.73818 0.67447 0.12848 0.0
H2623 H 0.72596 0.69139 0.1326 0.0
C2624 C 0.99746 0.0431 0.13947 0.0
C2625 C 0.99095 0.04212 0.12426 0.0
C2626 C 0.98831 0.03981 0.15291 0.0
C2627 C 0.97224 0.0354 0.15114 0.0
C2628 C 0.9657 0.0341 0.13581 0.0
C2629 C 0.9751 0.03746 0.1226 0.0
C2630 C 0.99576 0.04135 0.16902 0.0
C2631 C 0.94866 0.02935 0.13336 0.0
C2632 C 0.95096 0.01481 0.1848 0.0
C2633 C 0.94233 0.02718 0.19174 0.0
C2634 C 0.96085 0.01732 0.17172 0.0
C2635 C 0.96213 0.03258 0.16531 0.0
C2636 C 0.95353 0.04513 0.17229 0.0
C2637 C 0.9438 0.0423 0.18539 0.0
C2638 C 0.9698 1.00361 0.16466 0.0
C2639 C 0.95456 0.06157 0.16585 0.0
H2640 H 1.00962 0.04685 0.14093 0.0
H2641 H 0.97002 0.03641 0.11091 0.0
H2642 H 0.98964 0.05067 0.17592 0.0
H2643 H 0.9944 0.03022 0.17557 0.0
H2644 H 1.00854 0.0443 0.16839 0.0
H2645 H 0.94547 0.02847 0.12068 0.0
H2646 H 0.94639 0.01784 0.13894 0.0
H2647 H 0.94074 0.03808 0.13913 0.0
H2648 H 0.94979 1.00305 0.18943 0.0
H2649 H 0.93744 0.05202 0.19078 0.0
H2650 H 0.98266 1.00622 0.16452 0.0
H2651 H 0.96606 1.00169 0.15225 0.0
H2652 H 0.96787 0.99258 0.17127 0.0
H2653 H 0.96701 0.06567 0.16604 0.0
H2654 H 0.94723 0.07008 0.17267 0.0
H2655 H 0.95058 0.06162 0.15338 0.0
C2656 C 0.26885 0.78536 0.1462 0.0
C2657 C 0.28345 0.77882 0.15052 0.0
C2658 C 0.26768 0.7961 0.13377 0.0
C2659 C 0.28144 0.80052 0.12541 0.0
C2660 C 0.29628 0.79425 0.12992 0.0
C2661 C 0.2971 0.78349 0.1424 0.0
C2662 C 0.25163 0.80254 0.12942 0.0
C2663 C 0.31124 0.79866 0.12135 0.0
C2664 C 0.2756 0.81541 0.08359 0.0
C2665 C 0.27635 0.83178 0.08572 0.0
C2666 C 0.27744 0.80514 0.09634 0.0
C2667 C 0.28018 0.81132 0.11167 0.0
C2668 C 0.28122 0.82782 0.11388 0.0
C2669 C 0.27927 0.83783 0.10092 0.0
C2670 C 0.27628 0.78764 0.09342 0.0
C2671 C 0.28412 0.83491 0.13001 0.0
H2672 H 0.25826 0.78208 0.15256 0.0
H2673 H 0.30842 0.77842 0.14553 0.0
H2674 H 0.25181 0.81557 0.12994 0.0
H2675 H 0.24867 0.79905 0.11713 0.0
H2676 H 0.24213 0.79826 0.13734 0.0
H2677 H 0.32193 0.79332 0.12672 0.0
H2678 H 0.31048 0.79475 0.10886 0.0
H2679 H 0.31269 0.81162 0.12138 0.0
H2680 H 0.27365 0.81057 0.07188 0.0
H2681 H 0.2797 0.85044 0.10277 0.0
H2682 H 0.2663 0.78274 0.10029 0.0
H2683 H 0.28722 0.78175 0.09751 0.0
H2684 H 0.27445 0.78468 0.08077 0.0
H2685 H 0.27423 0.83188 0.13801 0.0
H2686 H 0.28527 0.84791 0.12968 0.0
H2687 H 0.29507 0.82995 0.13517 0.0
C2688 C 0.03889 0.49572 0.12837 0.0
C2689 C 0.0336 0.48024 0.12592 0.0
C2690 C 0.04841 0.49973 0.14142 0.0
C2691 C 0.05278 0.488 0.15233 0.0
C2692 C 0.04728 0.47242 0.15006 0.0
C2693 C 0.03778 0.46875 0.13693 0.0
C2694 C 0.05403 0.51648 0.14339 0.0
C2695 C 0.05157 0.45957 0.16143 0.0
C2696 C 0.08978 0.49375 0.17745 0.0
C2697 C 0.08341 0.49836 0.19207 0.0
C2698 C 0.07998 0.49052 0.16442 0.0
C2699 C 0.06335 0.49191 0.16597 0.0
C2700 C 0.05685 0.49668 0.18064 0.0
C2701 C 0.06693 0.49984 0.19349 0.0
C2702 C 0.08741 0.4854 0.14902 0.0
C2703 C 0.03921 0.49838 0.18279 0.0
H2704 H 0.03588 0.50466 0.11987 0.0
H2705 H 0.03355 0.45682 0.13531 0.0
H2706 H 0.05051 0.52114 0.15514 0.0
H2707 H 0.06713 0.51687 0.14282 0.0
H2708 H 0.04918 0.52432 0.13419 0.0
H2709 H 0.04614 0.44811 0.15815 0.0
H2710 H 0.0646 0.4581 0.16181 0.0
H2711 H 0.04766 0.46284 0.17351 0.0
H2712 H 0.10246 0.49237 0.17626 0.0
H2713 H 0.06188 0.50361 0.20464 0.0
H2714 H 0.08372 0.4934 0.13945 0.0
H2715 H 0.08325 0.47344 0.14576 0.0
H2716 H 0.10053 0.48528 0.14961 0.0
H2717 H 0.03444 0.50688 0.17418 0.0
H2718 H 0.03602 0.50244 0.19487 0.0
H2719 H 0.03331 0.48694 0.18046 0.0
C2720 C 0.37557 0.73707 0.29419 0.0
C2721 C 0.37817 0.74094 0.27835 0.0
C2722 C 0.38781 0.73814 0.30542 0.0
C2723 C 0.40305 0.7432 0.30074 0.0
C2724 C 0.40581 0.74686 0.28472 0.0
C2725 C 0.39339 0.74567 0.27376 0.0
C2726 C 0.38435 0.73411 0.32236 0.0
C2727 C 0.42188 0.75221 0.27918 0.0
C2728 C 0.43114 0.76136 0.33101 0.0
C2729 C 0.44165 0.74894 0.33393 0.0
C2730 C 0.41842 0.75957 0.32045 0.0
C2731 C 0.41606 0.74499 0.31258 0.0
C2732 C 0.42646 0.73233 0.31564 0.0
C2733 C 0.4391 0.73446 0.32624 0.0
C2734 C 0.40761 0.77337 0.31758 0.0
C2735 C 0.4244 0.7166 0.3075 0.0
H2736 H 0.36385 0.73356 0.29791 0.0
H2737 H 0.39563 0.74841 0.26152 0.0
H2738 H 0.39265 0.72491 0.32645 0.0
H2739 H 0.3862 0.74463 0.32999 0.0
H2740 H 0.37205 0.72986 0.32402 0.0
H2741 H 0.42218 0.75434 0.26629 0.0
H2742 H 0.42525 0.76324 0.28542 0.0
H2743 H 0.43094 0.74326 0.28206 0.0
H2744 H 0.43281 0.77252 0.33705 0.0
H2745 H 0.44723 0.72483 0.32824 0.0
H2746 H 0.39519 0.77006 0.32015 0.0
H2747 H 0.40815 0.77672 0.30499 0.0
H2748 H 0.41077 0.78378 0.32493 0.0
H2749 H 0.41229 0.71205 0.30956 0.0
H2750 H 0.43308 0.70775 0.31163 0.0
H2751 H 0.42582 0.71797 0.29458 0.0
C2752 C 0.96904 0.39089 0.98711 0.0
C2753 C 0.98091 0.40104 0.99273 0.0
C2754 C 0.97271 0.37764 0.97777 0.0
C2755 C 0.98868 0.37437 0.97391 0.0
C2756 C 1.00075 0.38443 0.97971 0.0
C2757 C 0.99673 0.39762 0.98904 0.0
C2758 C 0.95947 0.36719 0.97193 0.0
C2759 C 0.01791 0.3814 0.97585 0.0
C2760 C 0.99886 0.33267 0.96041 0.0
C2761 C 0.99914 0.33413 0.94393 0.0
C2762 C 0.99564 0.34567 0.9703 0.0
C2763 C 0.99266 0.36056 0.9636 0.0
C2764 C 0.9931 0.36216 0.947 0.0
C2765 C 0.9963 0.34896 0.93739 0.0
C2766 C 0.99533 0.34344 0.98793 0.0
C2767 C 0.98996 0.3778 0.93935 0.0
H2768 H 0.9568 0.39325 0.9901 0.0
H2769 H 1.00598 0.40546 0.99317 0.0
H2770 H 0.95938 0.36691 0.95885 0.0
H2771 H 0.96139 0.35497 0.97594 0.0
H2772 H 0.9477 0.37122 0.97614 0.0
H2773 H 0.02592 0.39007 0.98161 0.0
H2774 H 0.02133 0.36944 0.97965 0.0
H2775 H 0.01971 0.3819 0.96291 0.0
H2776 H 1.00128 0.32136 0.96563 0.0
H2777 H 0.99628 0.35022 0.9247 0.0
H2778 H 0.98347 0.34652 0.99262 0.0
H2779 H 1.00398 0.35145 0.99369 0.0
H2780 H 0.99814 0.33117 0.99131 0.0
H2781 H 0.97781 0.38181 0.94224 0.0
H2782 H 0.99122 0.37722 0.92633 0.0
H2783 H 0.99826 0.3868 0.94405 0.0
C2784 C 0.6467 0.77842 0.28588 0.0
C2785 C 0.65315 0.79363 0.28624 0.0
C2786 C 0.63354 0.77452 0.29522 0.0
C2787 C 0.6266 0.78609 0.30518 0.0
C2788 C 0.63295 0.80149 0.30546 0.0
C2789 C 0.64609 0.80506 0.29601 0.0
C2790 C 0.62715 0.75796 0.29457 0.0
C2791 C 0.62589 0.81421 0.31582 0.0
C2792 C 0.58431 0.78083 0.31987 0.0
C2793 C 0.5867 0.77582 0.33541 0.0
C2794 C 0.59715 0.78402 0.30985 0.0
C2795 C 0.61281 0.7821 0.31544 0.0
C2796 C 0.6153 0.77684 0.33104 0.0
C2797 C 0.60225 0.7738 0.34082 0.0
C2798 C 0.59395 0.7897 0.29336 0.0
C2799 C 0.63179 0.77454 0.33745 0.0
H2800 H 0.65214 0.76945 0.27852 0.0
H2801 H 0.65077 0.81692 0.29619 0.0
H2802 H 0.62796 0.75258 0.3064 0.0
H2803 H 0.61447 0.7581 0.29123 0.0
H2804 H 0.63366 0.75041 0.28601 0.0
H2805 H 0.6321 0.82563 0.31458 0.0
H2806 H 0.61324 0.81589 0.31283 0.0
H2807 H 0.62645 0.81065 0.32836 0.0
H2808 H 0.57236 0.7826 0.31562 0.0
H2809 H 0.60423 0.76973 0.35272 0.0
H2810 H 0.59984 0.78187 0.28462 0.0
H2811 H 0.59897 0.80163 0.29188 0.0
H2812 H 0.58111 0.79012 0.29062 0.0
H2813 H 0.63845 0.76623 0.32979 0.0
H2814 H 0.63173 0.76994 0.34966 0.0
H2815 H 0.63826 0.78588 0.33743 0.0
C2816 C 0.05733 0.13009 0.98353 0.0
C2817 C 0.04547 0.12255 0.99225 0.0
C2818 C 0.05391 0.14316 0.97412 0.0
C2819 C 0.03823 0.14896 0.97338 0.0
C2820 C 0.02623 0.14155 0.98228 0.0
C2821 C 0.02998 0.12846 0.99159 0.0
C2822 C 0.06709 0.15074 0.96491 0.0
C2823 C 1.00937 0.14735 0.98182 0.0
C2824 C 0.03263 0.19108 0.95942 0.0
C2825 C 0.02851 0.18885 0.94351 0.0
C2826 C 0.03561 0.17824 0.96931 0.0
C2827 C 0.03445 0.16272 0.9632 0.0
C2828 C 0.03013 0.16037 0.9472 0.0
C2829 C 0.02722 0.17343 0.93758 0.0
C2830 C 0.04012 0.18128 0.98629 0.0
C2831 C 0.0288 0.14405 0.94018 0.0
H2832 H 0.06939 0.12583 0.98415 0.0
H2833 H 0.0207 0.12266 0.99813 0.0
H2834 H 0.0643 0.15036 0.95214 0.0
H2835 H 0.06823 0.16329 0.9684 0.0
H2836 H 0.07866 0.14485 0.96679 0.0
H2837 H 1.00147 0.14052 0.98965 0.0
H2838 H 1.00888 0.1599 0.98544 0.0
H2839 H 1.00475 0.14653 0.9696 0.0
H2840 H 0.03341 0.2029 0.96422 0.0
H2841 H 0.02425 0.17155 0.92528 0.0
H2842 H 0.05205 0.17641 0.98862 0.0
H2843 H 0.03174 0.17522 0.99424 0.0
H2844 H 0.04019 0.19401 0.98933 0.0
H2845 H 0.04044 0.13807 0.94074 0.0
H2846 H 0.02481 0.14418 0.92771 0.0
H2847 H 0.02035 0.13694 0.94712 0.0
C2848 C 0.37447 0.28564 0.23208 0.0
C2849 C 0.37723 0.28428 0.24834 0.0
C2850 C 0.38685 0.28404 0.22109 0.0
C2851 C 0.40241 0.28098 0.22643 0.0
C2852 C 0.4053 0.27967 0.24281 0.0
C2853 C 0.39271 0.28133 0.25354 0.0
C2854 C 0.38326 0.28562 0.20374 0.0
C2855 C 0.42168 0.27633 0.24902 0.0
C2856 C 0.43204 0.26207 0.19814 0.0
C2857 C 0.44133 0.27496 0.19366 0.0
C2858 C 0.41932 0.26388 0.20869 0.0
C2859 C 0.41566 0.27896 0.2149 0.0
C2860 C 0.42485 0.29206 0.2103 0.0
C2861 C 0.43756 0.2899 0.19981 0.0
C2862 C 0.40984 0.2496 0.21326 0.0
C2863 C 0.42135 0.30834 0.21662 0.0
H2864 H 0.36261 0.2881 0.22794 0.0
H2865 H 0.39496 0.28001 0.26603 0.0
H2866 H 0.39048 0.29521 0.19867 0.0
H2867 H 0.3865 0.27462 0.1974 0.0
H2868 H 0.37058 0.28815 0.2015 0.0
H2869 H 0.42202 0.27589 0.2621 0.0
H2870 H 0.42597 0.26492 0.24423 0.0
H2871 H 0.43003 0.28551 0.24504 0.0
H2872 H 0.43463 0.25052 0.1933 0.0
H2873 H 0.44475 0.29992 0.19664 0.0
H2874 H 0.39722 0.25133 0.21018 0.0
H2875 H 0.41046 0.24795 0.22621 0.0
H2876 H 0.41413 0.2387 0.20734 0.0
H2877 H 0.40892 0.31157 0.21401 0.0
H2878 H 0.42927 0.31738 0.21152 0.0
H2879 H 0.42274 0.30857 0.22963 0.0
C2880 C 0.53555 0.3889 0.03041 0.0
C2881 C 0.5436 0.40202 0.03659 0.0
C2882 C 0.53232 0.37571 0.03976 0.0
C2883 C 0.5372 0.3756 0.05574 0.0
C2884 C 0.54527 0.38881 0.06208 0.0
C2885 C 0.5484 0.4018 0.05245 0.0
C2886 C 0.52369 0.36187 0.03254 0.0
C2887 C 0.55069 0.3892 0.07904 0.0
C2888 C 0.51707 0.34777 0.08444 0.0
C2889 C 0.52815 0.33552 0.08557 0.0
C2890 C 0.5198 0.36079 0.07473 0.0
C2891 C 0.53395 0.36165 0.06584 0.0
C2892 C 0.54513 0.3493 0.06683 0.0
C2893 C 0.54212 0.33643 0.07667 0.0
C2894 C 0.50756 0.37367 0.07402 0.0
C2895 C 0.56038 0.34974 0.05758 0.0
H2896 H 0.53159 0.38898 0.01826 0.0
H2897 H 0.55487 0.41171 0.05731 0.0
H2898 H 0.53106 0.35113 0.03343 0.0
H2899 H 0.51259 0.35966 0.03911 0.0
H2900 H 0.52073 0.36375 0.01994 0.0
H2901 H 0.55662 0.40044 0.08224 0.0
H2902 H 0.54044 0.38753 0.087 0.0
H2903 H 0.55904 0.3794 0.08118 0.0
H2904 H 0.50613 0.3471 0.09105 0.0
H2905 H 0.55087 0.32718 0.07759 0.0
H2906 H 0.5035 0.3752 0.06169 0.0
H2907 H 0.51286 0.38499 0.07792 0.0
H2908 H 0.49712 0.3712 0.08153 0.0
H2909 H 0.5578 0.35086 0.04482 0.0
H2910 H 0.56768 0.33905 0.05935 0.0
H2911 H 0.56741 0.36018 0.06118 0.0
C2912 C 0.63641 0.23008 0.24866 0.0
C2913 C 0.65199 0.23219 0.24336 0.0
C2914 C 0.62339 0.23352 0.23895 0.0
C2915 C 0.62596 0.23912 0.22349 0.0
C2916 C 0.64164 0.24142 0.21812 0.0
C2917 C 0.65444 0.23797 0.22811 0.0
C2918 C 0.60688 0.23103 0.24521 0.0
C2919 C 0.64492 0.24727 0.2017 0.0
C2920 C 0.59331 0.23315 0.193 0.0
C2921 C 0.58629 0.24809 0.19247 0.0
C2922 C 0.6062 0.23009 0.20299 0.0
C2923 C 0.61225 0.24224 0.21282 0.0
C2924 C 0.60521 0.25734 0.21241 0.0
C2925 C 0.59236 0.26009 0.20225 0.0
C2926 C 0.61333 0.21383 0.20305 0.0
C2927 C 0.61127 0.27062 0.22269 0.0
H2928 H 0.63439 0.22581 0.26048 0.0
H2929 H 0.66641 0.23944 0.22382 0.0
H2930 H 0.60005 0.24213 0.24455 0.0
H2931 H 0.60062 0.22218 0.23781 0.0
H2932 H 0.60687 0.22698 0.25761 0.0
H2933 H 0.65776 0.24882 0.19944 0.0
H2934 H 0.6401 0.23884 0.19287 0.0
H2935 H 0.63888 0.25868 0.19986 0.0
H2936 H 0.58859 0.22371 0.18573 0.0
H2937 H 0.58721 0.27173 0.20181 0.0
H2938 H 0.61249 0.20879 0.21503 0.0
H2939 H 0.62607 0.21445 0.19999 0.0
H2940 H 0.60739 0.20571 0.19459 0.0
H2941 H 0.61076 0.26722 0.23527 0.0
H2942 H 0.60438 0.28161 0.22115 0.0
H2943 H 0.62384 0.27303 0.21986 0.0
C2944 C 0.48715 0.12107 0.05319 0.0
C2945 C 0.48391 0.12236 0.03702 0.0
C2946 C 0.49056 0.13439 0.06253 0.0
C2947 C 0.49076 0.14945 0.05558 0.0
C2948 C 0.48778 0.15083 0.03921 0.0
C2949 C 0.48442 0.13729 0.03013 0.0
C2950 C 0.49378 0.13236 0.0799 0.0
C2951 C 0.48784 0.16665 0.03133 0.0
C2952 C 0.48376 0.18488 0.08257 0.0
C2953 C 0.49917 0.19055 0.08502 0.0
C2954 C 0.48086 0.17164 0.07293 0.0
C2955 C 0.49367 0.16377 0.06554 0.0
C2956 C 0.50925 0.16944 0.06791 0.0
C2957 C 0.51181 0.18274 0.07758 0.0
C2958 C 0.46407 0.16599 0.07077 0.0
C2959 C 0.52324 0.16142 0.06025 0.0
H2960 H 0.48705 0.10958 0.05858 0.0
H2961 H 0.48177 0.13845 0.0177 0.0
H2962 H 0.50549 0.13739 0.08298 0.0
H2963 H 0.48479 0.13885 0.08692 0.0
H2964 H 0.49357 0.11983 0.08343 0.0
H2965 H 0.48587 0.16569 0.01841 0.0
H2966 H 0.47843 0.17419 0.0365 0.0
H2967 H 0.49928 0.17268 0.03347 0.0
H2968 H 0.47392 0.19065 0.08841 0.0
H2969 H 0.52374 0.18712 0.07918 0.0
H2970 H 0.4629 0.15384 0.07524 0.0
H2971 H 0.46101 0.16565 0.05805 0.0
H2972 H 0.45538 0.17361 0.07702 0.0
H2973 H 0.52391 0.14901 0.06409 0.0
H2974 H 0.5346 0.16732 0.06318 0.0
H2975 H 0.52178 0.16126 0.04725 0.0
C2976 C 0.29233 0.38149 0.72024 0.0
C2977 C 0.28441 0.37329 0.73216 0.0
C2978 C 0.30175 0.39469 0.72373 0.0
C2979 C 0.30332 0.39993 0.73955 0.0
C2980 C 0.29518 0.39188 0.75163 0.0
C2981 C 0.28582 0.37868 0.7478 0.0
C2982 C 0.31013 0.40295 0.71047 0.0
C2983 C 0.29653 0.39707 0.76865 0.0
C2984 C 0.33981 0.42444 0.74946 0.0
C2985 C 0.33378 0.43982 0.74932 0.0
C2986 C 0.32999 0.41138 0.74657 0.0
C2987 C 0.31371 0.41368 0.74342 0.0
C2988 C 0.3075 0.42914 0.74344 0.0
C2989 C 0.31758 0.442 0.7464 0.0
C2990 C 0.3371 0.39511 0.74674 0.0
C2991 C 0.29024 0.43213 0.74007 0.0
H2992 H 0.29111 0.37762 0.70809 0.0
H2993 H 0.27989 0.37237 0.75711 0.0
H2994 H 0.30661 0.41551 0.71026 0.0
H2995 H 0.3231 0.40258 0.71241 0.0
H2996 H 0.3075 0.39757 0.69877 0.0
H2997 H 0.28913 0.38984 0.7766 0.0
H2998 H 0.30902 0.39626 0.77254 0.0
H2999 H 0.2929 0.40955 0.76993 0.0
H3000 H 0.35224 0.4226 0.75195 0.0
H3001 H 0.31282 0.45381 0.74607 0.0
H3002 H 0.33572 0.38945 0.73498 0.0
H3003 H 0.33076 0.38768 0.75535 0.0
H3004 H 0.34986 0.39526 0.74983 0.0
H3005 H 0.2873 0.42796 0.72798 0.0
H3006 H 0.28712 0.44479 0.74108 0.0
H3007 H 0.28274 0.42542 0.74835 0.0
C3008 C 0.30207 0.6527 0.79621 0.0
C3009 C 0.28559 0.65231 0.79417 0.0
C3010 C 0.31153 0.63955 0.79264 0.0
C3011 C 0.3044 0.62559 0.78682 0.0
C3012 C 0.28781 0.62518 0.78444 0.0
C3013 C 0.27862 0.63852 0.78814 0.0
C3014 C 0.32916 0.64054 0.7953 0.0
C3015 C 0.27974 0.61056 0.77824 0.0
C3016 C 0.33098 0.59567 0.76597 0.0
C3017 C 0.33395 0.58481 0.77797 0.0
C3018 C 0.32124 0.60885 0.7686 0.0
C3019 C 0.31429 0.61133 0.78362 0.0
C3020 C 0.31713 0.60035 0.79574 0.0
C3021 C 0.32687 0.58726 0.79277 0.0
C3022 C 0.31854 0.62025 0.75535 0.0
C3023 C 0.30995 0.60251 0.81191 0.0
H3024 H 0.30763 0.66336 0.80059 0.0
H3025 H 0.2659 0.63802 0.78666 0.0
H3026 H 0.33282 0.63169 0.80409 0.0
H3027 H 0.33554 0.63778 0.78419 0.0
H3028 H 0.33292 0.65234 0.79956 0.0
H3029 H 0.26684 0.61231 0.77648 0.0
H3030 H 0.28509 0.60687 0.76685 0.0
H3031 H 0.28149 0.60078 0.78661 0.0
H3032 H 0.33652 0.59404 0.75455 0.0
H3033 H 0.32883 0.57883 0.80206 0.0
H3034 H 0.3232 0.632 0.75872 0.0
H3035 H 0.30568 0.62162 0.75314 0.0
H3036 H 0.32434 0.6164 0.74422 0.0
H3037 H 0.31405 0.61376 0.81722 0.0
H3038 H 0.31309 0.5928 0.81999 0.0
H3039 H 0.29688 0.60316 0.81099 0.0
C3040 C 0.88911 0.49661 0.49213 0.0
C3041 C 0.90218 0.48994 0.48434 0.0
C3042 C 0.87582 0.48747 0.49604 0.0
C3043 C 0.87554 0.47125 0.49208 0.0
C3044 C 0.88876 0.46442 0.4844 0.0
C3045 C 0.90188 0.47381 0.48065 0.0
C3046 C 0.86197 0.49523 0.50422 0.0
C3047 C 0.88901 0.44717 0.48002 0.0
C3048 C 0.84716 0.44373 0.51324 0.0
C3049 C 0.83495 0.44191 0.50213 0.0
C3050 C 0.86031 0.45337 0.51022 0.0
C3051 C 0.86135 0.46143 0.49573 0.0
C3052 C 0.84901 0.45978 0.48454 0.0
C3053 C 0.836 0.45006 0.48786 0.0
C3054 C 0.87317 0.45483 0.5225 0.0
C3055 C 0.84965 0.46811 0.46893 0.0
H3056 H 0.88912 0.50907 0.4949 0.0
H3057 H 0.912 0.46845 0.47489 0.0
H3058 H 0.85128 0.49427 0.49669 0.0
H3059 H 0.85934 0.48912 0.5154 0.0
H3060 H 0.86419 0.50785 0.50688 0.0
H3061 H 0.90025 0.44361 0.47423 0.0
H3062 H 0.88736 0.43996 0.49072 0.0
H3063 H 0.87907 0.44442 0.47191 0.0
H3064 H 0.84638 0.4377 0.5244 0.0
H3065 H 0.82678 0.44859 0.4791 0.0
H3066 H 0.87484 0.46736 0.52588 0.0
H3067 H 0.88455 0.45057 0.51756 0.0
H3068 H 0.87047 0.44804 0.53328 0.0
H3069 H 0.851 0.48095 0.47089 0.0
H3070 H 0.83889 0.46601 0.4617 0.0
H3071 H 0.86012 0.46405 0.46213 0.0
C3072 C 0.73285 0.87366 0.78285 0.0
C3073 C 0.74856 0.87703 0.78702 0.0
C3074 C 0.72159 0.88572 0.78118 0.0
C3075 C 0.72611 0.90158 0.78377 0.0
C3076 C 0.74187 0.90503 0.78828 0.0
C3077 C 0.75287 0.89275 0.78984 0.0
C3078 C 0.70493 0.88152 0.77633 0.0
C3079 C 0.74718 0.92174 0.79127 0.0
C3080 C 0.70256 0.93435 0.76439 0.0
C3081 C 0.69326 0.94003 0.77693 0.0
C3082 C 0.71314 0.92178 0.76642 0.0
C3083 C 0.71451 0.91462 0.78136 0.0
C3084 C 0.70505 0.92016 0.79403 0.0
C3085 C 0.69457 0.93277 0.79167 0.0
C3086 C 0.72294 0.91622 0.75257 0.0
C3087 C 0.70616 0.9129 0.81015 0.0
H3088 H 0.72942 0.86159 0.78047 0.0
H3089 H 0.76491 0.89548 0.79331 0.0
H3090 H 0.69637 0.88635 0.78502 0.0
H3091 H 0.70218 0.88689 0.76479 0.0
H3092 H 0.70314 0.86862 0.77532 0.0
H3093 H 0.75972 0.92243 0.79512 0.0
H3094 H 0.7458 0.9287 0.78037 0.0
H3095 H 0.73966 0.92733 0.80045 0.0
H3096 H 0.70149 0.93968 0.7529 0.0
H3097 H 0.68761 0.93715 0.8015 0.0
H3098 H 0.72076 0.90355 0.75027 0.0
H3099 H 0.73569 0.91757 0.75533 0.0
H3100 H 0.72029 0.92283 0.74166 0.0
H3101 H 0.70381 0.90009 0.80933 0.0
H3102 H 0.69769 0.91824 0.81866 0.0
H3103 H 0.71831 0.91437 0.81487 0.0
C3104 C 0.63772 0.52771 0.98616 0.0
C3105 C 0.62293 0.53462 0.98329 0.0
C3106 C 0.65112 0.53698 0.98955 0.0
C3107 C 0.64975 0.55357 0.9901 0.0
C3108 C 0.6348 0.5606 0.9875 0.0
C3109 C 0.62162 0.55106 0.98416 0.0
C3110 C 0.66683 0.52901 0.99224 0.0
C3111 C 0.63276 0.57822 0.98806 0.0
C3112 C 0.68135 0.5781 1.01102 0.0
C3113 C 0.6905 0.58345 0.99834 0.0
C3114 C 0.66817 0.56827 1.00854 0.0
C3115 C 0.66398 0.56365 0.993 0.0
C3116 C 0.67321 0.56893 0.98017 0.0
C3117 C 0.68631 0.57874 0.98298 0.0
C3118 C 0.6587 0.56287 0.02256 0.0
C3119 C 0.66913 0.56434 0.96341 0.0
H3120 H 0.63893 0.51505 0.98536 0.0
H3121 H 0.61021 0.55653 0.98223 0.0
H3122 H 0.67535 0.53259 0.98301 0.0
H3123 H 0.67183 0.53275 1.00377 0.0
H3124 H 0.66582 0.51599 0.99203 0.0
H3125 H 0.6203 0.58184 0.98611 0.0
H3126 H 0.63672 0.58293 0.99965 0.0
H3127 H 0.64026 0.58372 0.97891 0.0
H3128 H 0.68459 0.58145 0.02295 0.0
H3129 H 0.69314 0.58296 0.97308 0.0
H3130 H 0.65844 0.54985 0.02286 0.0
H3131 H 0.64629 0.56694 0.02149 0.0
H3132 H 0.6636 0.56734 0.0339 0.0
H3133 H 0.66889 0.55136 0.96215 0.0
H3134 H 0.67769 0.56912 0.95476 0.0
H3135 H 0.65715 0.56871 0.96043 0.0
C3136 C 0.23899 0.64642 0.25805 0.0
C3137 C 0.24645 0.64912 0.24354 0.0
C3138 C 0.22821 0.63399 0.25991 0.0
C3139 C 0.22475 0.62393 0.24695 0.0
C3140 C 0.23212 0.62665 0.23223 0.0
C3141 C 0.24285 0.63918 0.2307 0.0
C3142 C 0.22066 0.6315 0.27581 0.0
C3143 C 0.22873 0.61625 0.2181 0.0
C3144 C 0.20886 0.583 0.25571 0.0
C3145 C 0.19259 0.5848 0.25299 0.0
C3146 C 0.21943 0.59557 0.25369 0.0
C3147 C 0.21364 0.6104 0.24889 0.0
C3148 C 0.19723 0.6123 0.2461 0.0
C3149 C 0.18693 0.59949 0.24814 0.0
C3150 C 0.23684 0.59298 0.25668 0.0
C3151 C 0.19054 0.62792 0.24109 0.0
H3152 H 0.24184 0.65385 0.26811 0.0
H3153 H 0.24837 0.64126 0.21939 0.0
H3154 H 0.20759 0.63168 0.27469 0.0
H3155 H 0.22401 0.61979 0.28038 0.0
H3156 H 0.22425 0.6406 0.28459 0.0
H3157 H 0.23528 0.62002 0.20744 0.0
H3158 H 0.23204 0.60394 0.22073 0.0
H3159 H 0.21589 0.61634 0.21544 0.0
H3160 H 0.21338 0.57165 0.25923 0.0
H3161 H 0.17437 0.60106 0.24618 0.0
H3162 H 0.24102 0.6011 0.26611 0.0
H3163 H 0.24371 0.59565 0.24589 0.0
H3164 H 0.23947 0.58073 0.26023 0.0
H3165 H 0.19314 0.63702 0.25019 0.0
H3166 H 0.17755 0.62744 0.23922 0.0
H3167 H 0.19625 0.63173 0.22999 0.0
C3168 C 0.88916 0.52852 0.03929 0.0
C3169 C 0.9033 0.53547 0.04454 0.0
C3170 C 0.87588 0.53774 0.03553 0.0
C3171 C 0.87671 0.55432 0.03704 0.0
C3172 C 0.89101 0.56141 0.04209 0.0
C3173 C 0.9041 0.55193 0.04575 0.0
C3174 C 0.86086 0.5297 0.03019 0.0
C3175 C 0.89246 0.57903 0.0438 0.0
C3176 C 0.84683 0.57997 0.01552 0.0
C3177 C 0.83612 0.58388 0.0276 0.0
C3178 C 0.85997 0.57026 0.01837 0.0
C3179 C 0.86254 0.56427 0.03368 0.0
C3180 C 0.85174 0.56809 0.04589 0.0
C3181 C 0.8387 0.57781 0.04271 0.0
C3182 C 0.87115 0.56644 1.005 0.0
C3183 C 0.85406 0.56203 0.0624 0.0
H3184 H 0.88834 0.51583 0.03847 0.0
H3185 H 0.91503 0.55744 0.04953 0.0
H3186 H 0.85123 0.53222 0.03873 0.0
H3187 H 0.85707 0.53437 0.01863 0.0
H3188 H 0.86228 0.51676 0.02909 0.0
H3189 H 0.90448 0.58274 0.0476 0.0
H3190 H 0.8897 0.58473 0.03242 0.0
H3191 H 0.88376 0.58345 0.05257 0.0
H3192 H 0.84485 0.58438 1.00375 0.0
H3193 H 0.83064 0.58091 0.05218 0.0
H3194 H 0.87192 0.55352 1.00326 0.0
H3195 H 0.88321 0.57069 1.00793 0.0
H3196 H 0.86739 0.57183 0.99373 0.0
H3197 H 0.85463 0.54901 0.06221 0.0
H3198 H 0.84441 0.56576 0.0705 0.0
H3199 H 0.86546 0.56638 0.06722 0.0
C3200 C 0.12756 0.98537 0.03162 0.0
C3201 C 0.12612 0.99229 0.04666 0.0
C3202 C 0.14052 0.9757 0.02776 0.0
C3203 C 0.15239 0.97285 0.03917 0.0
C3204 C 0.15116 0.98003 0.05426 0.0
C3205 C 0.13809 0.98965 0.0578 0.0
C3206 C 0.14137 0.96827 1.01154 0.0
C3207 C 0.16357 0.97739 0.06676 0.0
C3208 C 0.17746 0.93574 0.03556 0.0
C3209 C 0.19167 0.94153 0.02934 0.0
C3210 C 0.16459 0.94576 0.03869 0.0
C3211 C 0.16588 0.96203 0.03553 0.0
C3212 C 0.18014 0.96795 0.02916 0.0
C3213 C 0.19285 0.95766 0.02616 0.0
C3214 C 0.14965 0.93895 0.04556 0.0
C3215 C 0.182 0.98518 0.02553 0.0
H3216 H 0.11832 0.98718 0.02298 0.0
H3217 H 0.13725 0.99514 0.06936 0.0
H3218 H 0.15277 0.97124 1.00584 0.0
H3219 H 0.14088 0.95529 0.01252 0.0
H3220 H 0.13156 0.97216 1.00379 0.0
H3221 H 0.16108 0.98411 0.07778 0.0
H3222 H 0.16421 0.96472 0.06961 0.0
H3223 H 0.17536 0.98091 0.0623 0.0
H3224 H 0.17648 0.92335 0.03825 0.0
H3225 H 0.20368 0.96223 0.02116 0.0
H3226 H 0.13944 0.94158 0.03781 0.0
H3227 H 0.14721 0.94448 0.05721 0.0
H3228 H 0.15041 0.92602 0.04707 0.0
H3229 H 0.17272 0.98889 0.0171 0.0
H3230 H 0.19377 0.98791 0.02043 0.0
H3231 H 0.1804 0.9923 0.03645 0.0
loop_
_geom_bond_atom_site_label_1
_geom_bond_atom_site_label_2
_geom_bond_distance
_geom_bond_site_symmetry_2
_ccdc_geom_bond_type
C0 C1 1.264 1_655 S
C0 C5 1.479 . S
C0 C10 1.465 1_655 S
C1 C0 1.264 1_455 S
C1 C3 1.339 1_455 S
C1 H28 0.931 . S
C2 C3 1.395 . S
C2 C4 1.320 . S
C3 C1 1.339 1_655 S
C3 C2 1.395 . S
C3 H29 0.929 1_545 S
C4 C2 1.320 . S
C4 C5 1.405 . S
C4 H30 0.930 . S
C5 C0 1.479 . S
C5 C4 1.405 . S
C5 H31 0.931 . S
U6 O7 2.454 . S
U6 O8 2.458 . S
U6 C9 2.984 . S
U6 C10 2.847 . S
U6 C23 2.882 . S
U6 O24 2.441 . S
U6 O25 2.420 . S
U6 O26 2.455 . S
U6 O27 2.449 . S
O7 U6 2.454 . S
O7 C9 1.353 . S
O8 U6 2.458 . S
O8 C9 1.286 . S
C9 U6 2.984 . S
C9 O7 1.353 . S
C9 O8 1.286 . S
C9 C11 1.363 . S
C10 C0 1.465 1_455 S
C10 U6 2.847 . S
C10 O24 1.249 . S
C10 O25 1.202 . S
C11 C9 1.363 . S
C11 C13 1.408 . S
C11 C16 1.342 1_554 S
C12 C13 1.310 1_556 S
C12 C15 1.461 . S
C12 H32 0.932 . S
C13 C11 1.408 . S
C13 C12 1.310 1_554 S
C13 H33 0.930 . S
C14 C15 1.474 . S
C14 C16 1.285 . S
C14 H34 0.929 . S
C15 C12 1.461 . S
C15 C14 1.474 . S
C16 C11 1.342 1_556 S
C16 C14 1.285 . S
C16 H35 0.930 . S
C17 C20 1.424 . S
C17 C22 1.245 1_565 S
C17 C23 1.428 1_565 S
C18 C21 1.260 . S
C18 C22 1.477 1_565 S
C18 H36 0.932 . S
C19 C20 1.384 . S
C19 C21 1.479 . S
C19 H37 0.929 . S
C20 C17 1.424 . S
C20 C19 1.384 . S
C20 H38 0.928 . S
C21 C18 1.260 . S
C21 C19 1.479 . S
C22 C17 1.245 1_545 S
C22 C18 1.477 1_545 S
C22 H39 0.932 . S
C23 U6 2.882 . S
C23 C17 1.428 1_545 S
C23 O26 1.301 . S
C23 O27 1.282 . S
O24 U6 2.441 . S
O24 C10 1.249 . S
O25 U6 2.420 . S
O25 C10 1.202 . S
O26 U6 2.455 . S
O26 C23 1.301 . S
O27 U6 2.449 . S
O27 C23 1.282 . S
H28 C1 0.931 . S
H29 C3 0.929 1_565 S
H30 C4 0.930 . S
H31 C5 0.931 . S
H32 C12 0.932 . S
H33 C13 0.930 . S
H34 C14 0.929 . S
H35 C16 0.930 . S
H36 C18 0.932 . S
H37 C19 0.929 . S
H38 C20 0.928 . S
H39 C22 0.932 . S
C40 C41 1.264 . S
C40 C45 1.479 . S
C40 C50 1.465 . S
C41 C40 1.264 . S
C41 C43 1.339 . S
C41 H68 0.931 . S
C42 C43 1.395 . S
C42 C44 1.320 . S
C43 C41 1.339 . S
C43 C42 1.395 . S
C43 H69 0.929 . S
C44 C42 1.320 . S
C44 C45 1.405 . S
C44 H70 0.930 . S
C45 C40 1.479 . S
C45 C44 1.405 . S
C45 H71 0.931 . S
U46 O47 2.454 . S
U46 O48 2.458 . S
U46 C49 2.984 . S
U46 C50 2.847 . S
U46 C63 2.882 . S
U46 O64 2.441 . S
U46 O65 2.420 . S
U46 O66 2.455 . S
U46 O67 2.449 . S
O47 U46 2.454 . S
O47 C49 1.353 . S
O48 U46 2.458 . S
O48 C49 1.286 . S
C49 U46 2.984 . S
C49 O47 1.353 . S
C49 O48 1.286 . S
C49 C51 1.363 . S
C50 C40 1.465 . S
C50 U46 2.847 . S
C50 O64 1.249 . S
C50 O65 1.202 . S
C51 C49 1.363 . S
C51 C53 1.408 . S
C51 C56 1.342 . S
C52 C53 1.310 . S
C52 C55 1.461 . S
C52 H72 0.932 . S
C53 C51 1.408 . S
C53 C52 1.310 . S
C53 H73 0.930 . S
C54 C55 1.474 . S
C54 C56 1.285 . S
C54 H74 0.929 . S
C55 C52 1.461 . S
C55 C54 1.474 . S
C56 C51 1.342 . S
C56 C54 1.285 . S
C56 H75 0.930 . S
C57 C60 1.424 . S
C57 C62 1.245 . S
C57 C63 1.428 . S
C58 C61 1.260 . S
C58 C62 1.477 . S
C58 H76 0.932 . S
C59 C60 1.384 . S
C59 C61 1.479 . S
C59 H77 0.929 . S
C60 C57 1.424 . S
C60 C59 1.384 . S
C60 H78 0.928 . S
C61 C58 1.260 . S
C61 C59 1.479 . S
C62 C57 1.245 . S
C62 C58 1.477 . S
C62 H79 0.932 . S
C63 U46 2.882 . S
C63 C57 1.428 . S
C63 O66 1.301 . S
C63 O67 1.282 . S
O64 U46 2.441 . S
O64 C50 1.249 . S
O65 U46 2.420 . S
O65 C50 1.202 . S
O66 U46 2.455 . S
O66 C63 1.301 . S
O67 U46 2.449 . S
O67 C63 1.282 . S
H68 C41 0.931 . S
H69 C43 0.929 . S
H70 C44 0.930 . S
H71 C45 0.931 . S
H72 C52 0.932 . S
H73 C53 0.930 . S
H74 C54 0.929 . S
H75 C56 0.930 . S
H76 C58 0.932 . S
H77 C59 0.929 . S
H78 C60 0.928 . S
H79 C62 0.932 . S
C80 C81 1.255 1_556 S
C80 C85 1.479 . S
C80 C90 1.465 1_556 S
C81 C80 1.255 1_554 S
C81 C83 1.310 1_554 S
C81 H108 0.972 1_655 S
C82 C83 1.395 . S
C82 C84 1.320 . S
C83 C81 1.310 1_556 S
C83 C82 1.395 . S
C83 H109 0.929 1_655 S
C84 C82 1.320 . S
C84 C85 1.405 . S
C84 H110 0.930 . S
C85 C80 1.479 . S
C85 C84 1.405 . S
C85 H111 0.931 . S
U86 O87 2.454 . S
U86 O88 2.458 . S
U86 C89 2.984 . S
U86 C90 2.847 . S
U86 C103 2.882 . S
U86 O104 2.441 . S
U86 O105 2.420 . S
U86 O106 2.455 . S
U86 O107 2.449 . S
O87 U86 2.454 . S
O87 C89 1.353 . S
O88 U86 2.458 . S
O88 C89 1.286 . S
C89 U86 2.984 . S
C89 O87 1.353 . S
C89 O88 1.286 . S
C89 C91 1.363 . S
C90 C80 1.465 1_554 S
C90 U86 2.847 . S
C90 O104 1.249 . S
C90 O105 1.202 . S
C91 C89 1.363 . S
C91 C93 1.408 . S
C91 C96 1.342 . S
C92 C93 1.310 . S
C92 C95 1.461 . S
C92 H112 0.932 . S
C93 C91 1.408 . S
C93 C92 1.310 . S
C93 H113 0.930 . S
C94 C95 1.474 . S
C94 C96 1.285 . S
C94 H114 0.929 . S
C95 C92 1.461 . S
C95 C94 1.474 . S
C96 C91 1.342 . S
C96 C94 1.285 . S
C96 H115 0.930 . S
C97 C100 1.424 . S
C97 C102 1.245 . S
C97 C103 1.428 1_455 S
C98 C101 1.260 . S
C98 C102 1.477 . S
C98 H116 0.932 . S
C99 C100 1.384 . S
C99 C101 1.479 . S
C99 H117 0.929 . S
C100 C97 1.424 . S
C100 C99 1.384 . S
C100 H118 0.928 . S
C101 C98 1.260 . S
C101 C99 1.479 . S
C102 C97 1.245 . S
C102 C98 1.477 . S
C102 H119 0.932 1_455 S
C103 U86 2.882 . S
C103 C97 1.428 1_655 S
C103 O106 1.301 . S
C103 O107 1.282 . S
O104 U86 2.441 . S
O104 C90 1.249 . S
O105 U86 2.420 . S
O105 C90 1.202 . S
O106 U86 2.455 . S
O106 C103 1.301 . S
O107 U86 2.449 . S
O107 C103 1.282 . S
H108 C81 0.972 1_455 S
H109 C83 0.929 1_455 S
H110 C84 0.930 . S
H111 C85 0.931 . S
H112 C92 0.932 . S
H113 C93 0.930 . S
H114 C94 0.929 . S
H115 C96 0.930 . S
H116 C98 0.932 . S
H117 C99 0.929 . S
H118 C100 0.928 . S
H119 C102 0.932 1_655 S
C120 C121 1.264 . S
C120 C125 1.479 . S
C120 C130 1.465 . S
C121 C120 1.264 . S
C121 C123 1.339 . S
C121 H148 0.931 . S
C122 C123 1.395 . S
C122 C124 1.320 . S
C123 C121 1.339 . S
C123 C122 1.395 . S
C123 H149 0.929 . S
C124 C122 1.320 . S
C124 C125 1.405 . S
C124 H150 0.930 . S
C125 C120 1.479 . S
C125 C124 1.405 . S
C125 H151 0.931 . S
U126 O127 2.454 . S
U126 O128 2.458 . S
U126 C129 2.984 . S
U126 C130 2.847 . S
U126 C143 2.882 . S
U126 O144 2.441 . S
U126 O145 2.420 . S
U126 O146 2.455 . S
U126 O147 2.449 . S
O127 U126 2.454 . S
O127 C129 1.353 . S
O128 U126 2.458 . S
O128 C129 1.286 . S
C129 U126 2.984 . S
C129 O127 1.353 . S
C129 O128 1.286 . S
C129 C131 1.363 . S
C130 C120 1.465 . S
C130 U126 2.847 . S
C130 O144 1.249 . S
C130 O145 1.202 . S
C131 C129 1.363 . S
C131 C133 1.408 . S
C131 C136 1.342 . S
C132 C133 1.310 . S
C132 C135 1.461 . S
C132 H152 0.932 . S
C133 C131 1.408 . S
C133 C132 1.310 . S
C133 H153 0.930 . S
C134 C135 1.474 . S
C134 C136 1.285 . S
C134 H154 0.929 . S
C135 C132 1.461 . S
C135 C134 1.474 . S
C136 C131 1.342 . S
C136 C134 1.285 . S
C136 H155 0.930 . S
C137 C140 1.424 . S
C137 C142 1.245 . S
C137 C143 1.428 . S
C138 C141 1.260 . S
C138 C142 1.477 . S
C138 H156 0.932 . S
C139 C140 1.384 . S
C139 C141 1.479 . S
C139 H157 0.929 . S
C140 C137 1.424 . S
C140 C139 1.384 . S
C140 H158 0.928 . S
C141 C138 1.260 . S
C141 C139 1.479 . S
C142 C137 1.245 . S
C142 C138 1.477 . S
C142 H159 0.932 . S
C143 U126 2.882 . S
C143 C137 1.428 . S
C143 O146 1.301 . S
C143 O147 1.282 . S
O144 U126 2.441 . S
O144 C130 1.249 . S
O145 U126 2.420 . S
O145 C130 1.202 . S
O146 U126 2.455 . S
O146 C143 1.301 . S
O147 U126 2.449 . S
O147 C143 1.282 . S
H148 C121 0.931 . S
H149 C123 0.929 . S
H150 C124 0.930 . S
H151 C125 0.931 . S
H152 C132 0.932 . S
H153 C133 0.930 . S
H154 C134 0.929 . S
H155 C136 0.930 . S
H156 C138 0.932 . S
H157 C139 0.929 . S
H158 C140 0.928 . S
H159 C142 0.932 . S
C160 C161 1.264 1_655 S
C160 C165 1.479 . S
C160 C170 1.465 1_655 S
C161 C160 1.264 1_455 S
C161 C163 1.339 1_455 S
C161 H188 0.971 . S
C162 C163 1.395 . S
C162 C164 1.320 . S
C163 C161 1.339 1_655 S
C163 C162 1.395 . S
C163 H189 0.929 1_565 S
C164 C162 1.320 . S
C164 C165 1.405 . S
C164 H190 0.930 . S
C165 C160 1.479 . S
C165 C164 1.405 . S
C165 H191 0.931 . S
U166 O167 2.454 . S
U166 O168 2.458 . S
U166 C169 2.984 . S
U166 C170 2.847 . S
U166 C183 2.882 . S
U166 O184 2.441 . S
U166 O185 2.420 . S
U166 O186 2.455 . S
U166 O187 2.449 . S
O167 U166 2.454 . S
O167 C169 1.353 . S
O168 U166 2.458 . S
O168 C169 1.286 . S
C169 U166 2.984 . S
C169 O167 1.353 . S
C169 O168 1.286 . S
C169 C171 1.363 . S
C170 C160 1.465 1_455 S
C170 U166 2.847 . S
C170 O184 1.249 . S
C170 O185 1.202 . S
C171 C169 1.363 . S
C171 C173 1.408 . S
C171 C176 1.342 . S
C172 C173 1.310 . S
C172 C175 1.461 . S
C172 H192 0.932 . S
C173 C171 1.408 . S
C173 C172 1.310 . S
C173 H193 0.930 . S
C174 C175 1.474 . S
C174 C176 1.285 . S
C174 H194 0.929 . S
C175 C172 1.461 . S
C175 C174 1.474 . S
C176 C171 1.342 . S
C176 C174 1.285 . S
C176 H195 0.930 . S
C177 C180 1.424 . S
C177 C182 1.243 1_545 S
C177 C183 1.428 1_545 S
C178 C181 1.260 . S
C178 C182 1.470 1_545 S
C178 H196 0.932 . S
C179 C180 1.384 . S
C179 C181 1.479 . S
C179 H197 0.929 . S
C180 C177 1.424 . S
C180 C179 1.384 . S
C180 H198 0.928 . S
C181 C178 1.260 . S
C181 C179 1.479 . S
C182 C177 1.243 1_565 S
C182 C178 1.470 1_565 S
C182 H199 0.941 . S
C183 U166 2.882 . S
C183 C177 1.428 1_565 S
C183 O186 1.301 . S
C183 O187 1.282 . S
O184 U166 2.441 . S
O184 C170 1.249 . S
O185 U166 2.420 . S
O185 C170 1.202 . S
O186 U166 2.455 . S
O186 C183 1.301 . S
O187 U166 2.449 . S
O187 C183 1.282 . S
H188 C161 0.971 . S
H189 C163 0.929 1_545 S
H190 C164 0.930 . S
H191 C165 0.931 . S
H192 C172 0.932 . S
H193 C173 0.930 . S
H194 C174 0.929 . S
H195 C176 0.930 . S
H196 C178 0.932 . S
H197 C179 0.929 . S
H198 C180 0.928 . S
H199 C182 0.941 . S
C200 C201 1.264 . S
C200 C205 1.479 . S
C200 C210 1.465 . S
C201 C200 1.264 . S
C201 C203 1.339 . S
C201 H228 0.931 . S
C202 C203 1.395 . S
C202 C204 1.320 . S
C203 C201 1.339 . S
C203 C202 1.395 . S
C203 H229 0.929 . S
C204 C202 1.320 . S
C204 C205 1.405 . S
C204 H230 0.930 . S
C205 C200 1.479 . S
C205 C204 1.405 . S
C205 H231 0.931 . S
U206 O207 2.454 . S
U206 O208 2.458 . S
U206 C209 2.984 . S
U206 C210 2.847 . S
U206 C223 2.882 . S
U206 O224 2.441 . S
U206 O225 2.420 . S
U206 O226 2.455 . S
U206 O227 2.449 . S
O207 U206 2.454 . S
O207 C209 1.353 . S
O208 U206 2.458 . S
O208 C209 1.286 . S
C209 U206 2.984 . S
C209 O207 1.353 . S
C209 O208 1.286 . S
C209 C211 1.363 . S
C210 C200 1.465 . S
C210 U206 2.847 . S
C210 O224 1.249 . S
C210 O225 1.202 . S
C211 C209 1.363 . S
C211 C213 1.408 . S
C211 C216 1.342 . S
C212 C213 1.310 . S
C212 C215 1.461 . S
C212 H232 0.932 . S
C213 C211 1.408 . S
C213 C212 1.310 . S
C213 H233 0.930 . S
C214 C215 1.474 . S
C214 C216 1.285 . S
C214 H234 0.929 . S
C215 C212 1.461 . S
C215 C214 1.474 . S
C216 C211 1.342 . S
C216 C214 1.285 . S
C216 H235 0.930 . S
C217 C220 1.424 . S
C217 C222 1.245 . S
C217 C223 1.428 . S
C218 C221 1.260 . S
C218 C222 1.477 . S
C218 H236 0.932 . S
C219 C220 1.384 . S
C219 C221 1.479 . S
C219 H237 0.929 . S
C220 C217 1.424 . S
C220 C219 1.384 . S
C220 H238 0.928 . S
C221 C218 1.260 . S
C221 C219 1.479 . S
C222 C217 1.245 . S
C222 C218 1.477 . S
C222 H239 0.932 . S
C223 U206 2.882 . S
C223 C217 1.428 . S
C223 O226 1.301 . S
C223 O227 1.282 . S
O224 U206 2.441 . S
O224 C210 1.249 . S
O225 U206 2.420 . S
O225 C210 1.202 . S
O226 U206 2.455 . S
O226 C223 1.301 . S
O227 U206 2.449 . S
O227 C223 1.282 . S
H228 C201 0.931 . S
H229 C203 0.929 . S
H230 C204 0.930 . S
H231 C205 0.931 . S
H232 C212 0.932 . S
H233 C213 0.930 . S
H234 C214 0.929 . S
H235 C216 0.930 . S
H236 C218 0.932 . S
H237 C219 0.929 . S
H238 C220 0.928 . S
H239 C222 0.932 . S
C240 C241 1.264 . S
C240 C245 1.479 . S
C240 C250 1.465 . S
C241 C240 1.264 . S
C241 C243 1.339 . S
C241 H268 0.931 1_655 S
C242 C243 1.395 . S
C242 C244 1.320 . S
C243 C241 1.339 . S
C243 C242 1.395 . S
C243 H269 0.929 1_655 S
C244 C242 1.320 . S
C244 C245 1.405 . S
C244 H270 0.930 . S
C245 C240 1.479 . S
C245 C244 1.405 . S
C245 H271 0.931 . S
U246 O247 2.454 . S
U246 O248 2.458 . S
U246 C249 2.984 . S
U246 C250 2.847 . S
U246 C263 2.882 . S
U246 O264 2.441 . S
U246 O265 2.420 . S
U246 O266 2.455 . S
U246 O267 2.449 . S
O247 U246 2.454 . S
O247 C249 1.353 . S
O248 U246 2.458 . S
O248 C249 1.286 . S
C249 U246 2.984 . S
C249 O247 1.353 . S
C249 O248 1.286 . S
C249 C251 1.363 . S
C250 C240 1.465 . S
C250 U246 2.847 . S
C250 O264 1.249 . S
C250 O265 1.202 . S
C251 C249 1.363 . S
C251 C253 1.408 . S
C251 C256 1.342 . S
C252 C253 1.310 . S
C252 C255 1.461 . S
C252 H272 0.932 . S
C253 C251 1.408 . S
C253 C252 1.310 . S
C253 H273 0.930 . S
C254 C255 1.474 . S
C254 C256 1.285 . S
C254 H274 0.929 . S
C255 C252 1.461 . S
C255 C254 1.474 . S
C256 C251 1.342 . S
C256 C254 1.285 . S
C256 H275 0.930 . S
C257 C260 1.424 . S
C257 C262 1.245 . S
C257 C263 1.428 1_455 S
C258 C261 1.260 . S
C258 C262 1.477 . S
C258 H276 0.932 . S
C259 C260 1.384 . S
C259 C261 1.479 . S
C259 H277 0.929 . S
C260 C257 1.424 . S
C260 C259 1.384 . S
C260 H278 0.928 . S
C261 C258 1.260 . S
C261 C259 1.479 . S
C262 C257 1.245 . S
C262 C258 1.477 . S
C262 H279 0.932 1_455 S
C263 U246 2.882 . S
C263 C257 1.428 1_655 S
C263 O266 1.301 . S
C263 O267 1.282 . S
O264 U246 2.441 . S
O264 C250 1.249 . S
O265 U246 2.420 . S
O265 C250 1.202 . S
O266 U246 2.455 . S
O266 C263 1.301 . S
O267 U246 2.449 . S
O267 C263 1.282 . S
H268 C241 0.931 1_455 S
H269 C243 0.929 1_455 S
H270 C244 0.930 . S
H271 C245 0.931 . S
H272 C252 0.932 . S
H273 C253 0.930 . S
H274 C254 0.929 . S
H275 C256 0.930 . S
H276 C258 0.932 . S
H277 C259 0.929 . S
H278 C260 0.928 . S
H279 C262 0.932 1_655 S
C280 C281 1.264 . S
C280 C285 1.479 . S
C280 C290 1.465 . S
C281 C280 1.264 . S
C281 C283 1.339 . S
C281 H308 0.931 . S
C282 C283 1.395 . S
C282 C284 1.320 . S
C283 C281 1.339 . S
C283 C282 1.395 . S
C283 H309 0.929 . S
C284 C282 1.320 . S
C284 C285 1.405 . S
C284 H310 0.930 . S
C285 C280 1.479 . S
C285 C284 1.405 . S
C285 H311 0.931 . S
U286 O287 2.454 . S
U286 O288 2.458 . S
U286 C289 2.984 . S
U286 C290 2.847 . S
U286 C303 2.882 . S
U286 O304 2.441 . S
U286 O305 2.420 . S
U286 O306 2.455 . S
U286 O307 2.449 . S
O287 U286 2.454 . S
O287 C289 1.353 . S
O288 U286 2.458 . S
O288 C289 1.286 . S
C289 U286 2.984 . S
C289 O287 1.353 . S
C289 O288 1.286 . S
C289 C291 1.363 . S
C290 C280 1.465 . S
C290 U286 2.847 . S
C290 O304 1.249 . S
C290 O305 1.202 . S
C291 C289 1.363 . S
C291 C293 1.408 . S
C291 C296 1.342 . S
C292 C293 1.310 . S
C292 C295 1.461 . S
C292 H312 0.932 . S
C293 C291 1.408 . S
C293 C292 1.310 . S
C293 H313 0.930 . S
C294 C295 1.474 . S
C294 C296 1.285 . S
C294 H314 0.929 . S
C295 C292 1.461 . S
C295 C294 1.474 . S
C296 C291 1.342 . S
C296 C294 1.285 . S
C296 H315 0.930 . S
C297 C300 1.424 . S
C297 C302 1.245 . S
C297 C303 1.428 . S
C298 C301 1.260 . S
C298 C302 1.477 . S
C298 H316 0.932 . S
C299 C300 1.384 . S
C299 C301 1.479 . S
C299 H317 0.929 . S
C300 C297 1.424 . S
C300 C299 1.384 . S
C300 H318 0.928 . S
C301 C298 1.260 . S
C301 C299 1.479 . S
C302 C297 1.245 . S
C302 C298 1.477 . S
C302 H319 0.932 . S
C303 U286 2.882 . S
C303 C297 1.428 . S
C303 O306 1.301 . S
C303 O307 1.282 . S
O304 U286 2.441 . S
O304 C290 1.249 . S
O305 U286 2.420 . S
O305 C290 1.202 . S
O306 U286 2.455 . S
O306 C303 1.301 . S
O307 U286 2.449 . S
O307 C303 1.282 . S
H308 C281 0.931 . S
H309 C283 0.929 . S
H310 C284 0.930 . S
H311 C285 0.931 . S
H312 C292 0.932 . S
H313 C293 0.930 . S
H314 C294 0.929 . S
H315 C296 0.930 . S
H316 C298 0.932 . S
H317 C299 0.929 . S
H318 C300 0.928 . S
H319 C302 0.932 . S
C320 C321 1.264 . S
C320 C325 1.479 . S
C320 C330 1.465 . S
C321 C320 1.264 . S
C321 C323 1.339 . S
C321 H348 0.931 . S
C322 C323 1.395 . S
C322 C324 1.320 . S
C323 C321 1.339 . S
C323 C322 1.395 . S
C323 H349 0.929 . S
C324 C322 1.320 . S
C324 C325 1.405 . S
C324 H350 0.930 . S
C325 C320 1.479 . S
C325 C324 1.405 . S
C325 H351 0.931 . S
U326 O327 2.454 . S
U326 O328 2.458 . S
U326 C329 2.984 . S
U326 C330 2.847 . S
U326 C343 2.882 . S
U326 O344 2.441 . S
U326 O345 2.420 . S
U326 O346 2.455 . S
U326 O347 2.449 . S
O327 U326 2.454 . S
O327 C329 1.353 . S
O328 U326 2.458 . S
O328 C329 1.286 . S
C329 U326 2.984 . S
C329 O327 1.353 . S
C329 O328 1.286 . S
C329 C331 1.363 . S
C330 C320 1.465 . S
C330 U326 2.847 . S
C330 O344 1.249 . S
C330 O345 1.202 . S
C331 C329 1.363 . S
C331 C333 1.408 . S
C331 C336 1.342 . S
C332 C333 1.310 . S
C332 C335 1.461 . S
C332 H352 0.932 . S
C333 C331 1.408 . S
C333 C332 1.310 . S
C333 H353 0.930 . S
C334 C335 1.474 . S
C334 C336 1.285 . S
C334 H354 0.929 . S
C335 C332 1.461 . S
C335 C334 1.474 . S
C336 C331 1.342 . S
C336 C334 1.285 . S
C336 H355 0.930 . S
C337 C340 1.424 . S
C337 C342 1.245 . S
C337 C343 1.428 . S
C338 C341 1.260 . S
C338 C342 1.477 . S
C338 H356 0.932 . S
C339 C340 1.384 . S
C339 C341 1.479 . S
C339 H357 0.929 . S
C340 C337 1.424 . S
C340 C339 1.384 . S
C340 H358 0.928 . S
C341 C338 1.260 . S
C341 C339 1.479 . S
C342 C337 1.245 . S
C342 C338 1.477 . S
C342 H359 0.932 . S
C343 U326 2.882 . S
C343 C337 1.428 . S
C343 O346 1.301 . S
C343 O347 1.282 . S
O344 U326 2.441 . S
O344 C330 1.249 . S
O345 U326 2.420 . S
O345 C330 1.202 . S
O346 U326 2.455 . S
O346 C343 1.301 . S
O347 U326 2.449 . S
O347 C343 1.282 . S
H348 C321 0.931 . S
H349 C323 0.929 . S
H350 C324 0.930 . S
H351 C325 0.931 . S
H352 C332 0.932 . S
H353 C333 0.930 . S
H354 C334 0.929 . S
H355 C336 0.930 . S
H356 C338 0.932 . S
H357 C339 0.929 . S
H358 C340 0.928 . S
H359 C342 0.932 . S
C360 C361 1.264 . S
C360 C365 1.479 . S
C360 C370 1.465 . S
C361 C360 1.264 . S
C361 C363 1.339 . S
C361 H388 0.931 . S
C362 C363 1.395 . S
C362 C364 1.320 . S
C363 C361 1.339 . S
C363 C362 1.395 . S
C363 H389 0.929 . S
C364 C362 1.320 . S
C364 C365 1.405 . S
C364 H390 0.930 . S
C365 C360 1.479 . S
C365 C364 1.405 . S
C365 H391 0.931 . S
U366 O367 2.454 . S
U366 O368 2.458 . S
U366 C369 2.984 . S
U366 C370 2.847 . S
U366 C383 2.882 . S
U366 O384 2.441 . S
U366 O385 2.420 . S
U366 O386 2.455 . S
U366 O387 2.449 . S
O367 U366 2.454 . S
O367 C369 1.353 . S
O368 U366 2.458 . S
O368 C369 1.286 . S
C369 U366 2.984 . S
C369 O367 1.353 . S
C369 O368 1.286 . S
C369 C371 1.363 1_565 S
C370 C360 1.465 . S
C370 U366 2.847 . S
C370 O384 1.249 . S
C370 O385 1.202 . S
C371 C369 1.363 1_545 S
C371 C373 1.408 1_545 S
C371 C376 1.342 . S
C372 C373 1.313 1_545 S
C372 C375 1.461 . S
C372 H392 0.932 . S
C373 C371 1.408 1_565 S
C373 C372 1.313 1_565 S
C373 H393 0.927 . S
C374 C375 1.474 . S
C374 C376 1.285 . S
C374 H394 0.929 . S
C375 C372 1.461 . S
C375 C374 1.474 . S
C376 C371 1.342 . S
C376 C374 1.285 . S
C376 H395 0.930 . S
C377 C380 1.424 . S
C377 C382 1.245 . S
C377 C383 1.428 . S
C378 C381 1.260 . S
C378 C382 1.477 . S
C378 H396 0.891 1_565 S
C379 C380 1.384 . S
C379 C381 1.479 . S
C379 H397 0.929 . S
C380 C377 1.424 . S
C380 C379 1.384 . S
C380 H398 0.928 . S
C381 C378 1.260 . S
C381 C379 1.479 . S
C382 C377 1.245 . S
C382 C378 1.477 . S
C382 H399 0.932 . S
C383 U366 2.882 . S
C383 C377 1.428 . S
C383 O386 1.301 . S
C383 O387 1.282 . S
O384 U366 2.441 . S
O384 C370 1.249 . S
O385 U366 2.420 . S
O385 C370 1.202 . S
O386 U366 2.455 . S
O386 C383 1.301 . S
O387 U366 2.449 . S
O387 C383 1.282 . S
H388 C361 0.931 . S
H389 C363 0.929 . S
H390 C364 0.930 . S
H391 C365 0.931 . S
H392 C372 0.932 . S
H393 C373 0.927 . S
H394 C374 0.929 . S
H395 C376 0.930 . S
H396 C378 0.891 1_545 S
H397 C379 0.929 . S
H398 C380 0.928 . S
H399 C382 0.932 . S
C400 C401 1.264 . S
C400 C405 1.479 . S
C400 C410 1.465 . S
C401 C400 1.264 . S
C401 C403 1.339 . S
C401 H428 0.931 . S
C402 C403 1.395 . S
C402 C404 1.320 . S
C403 C401 1.339 . S
C403 C402 1.395 . S
C403 H429 0.929 . S
C404 C402 1.320 . S
C404 C405 1.405 . S
C404 H430 0.930 . S
C405 C400 1.479 . S
C405 C404 1.405 . S
C405 H431 0.931 . S
U406 O407 2.454 . S
U406 O408 2.458 . S
U406 C409 2.984 . S
U406 C410 2.847 . S
U406 C423 2.882 . S
U406 O424 2.441 . S
U406 O425 2.420 . S
U406 O426 2.455 . S
U406 O427 2.449 . S
O407 U406 2.454 . S
O407 C409 1.353 . S
O408 U406 2.458 . S
O408 C409 1.286 . S
C409 U406 2.984 . S
C409 O407 1.353 . S
C409 O408 1.286 . S
C409 C411 1.363 . S
C410 C400 1.465 . S
C410 U406 2.847 . S
C410 O424 1.249 . S
C410 O425 1.202 . S
C411 C409 1.363 . S
C411 C413 1.408 . S
C411 C416 1.342 . S
C412 C413 1.310 . S
C412 C415 1.461 . S
C412 H432 0.932 . S
C413 C411 1.408 . S
C413 C412 1.310 . S
C413 H433 0.930 . S
C414 C415 1.474 . S
C414 C416 1.285 . S
C414 H434 0.929 . S
C415 C412 1.461 . S
C415 C414 1.474 . S
C416 C411 1.342 . S
C416 C414 1.285 . S
C416 H435 0.930 . S
C417 C420 1.424 . S
C417 C422 1.245 . S
C417 C423 1.428 . S
C418 C421 1.260 . S
C418 C422 1.477 . S
C418 H436 0.932 . S
C419 C420 1.384 . S
C419 C421 1.479 . S
C419 H437 0.929 . S
C420 C417 1.424 . S
C420 C419 1.384 . S
C420 H438 0.928 . S
C421 C418 1.260 . S
C421 C419 1.479 . S
C422 C417 1.245 . S
C422 C418 1.477 . S
C422 H439 0.932 . S
C423 U406 2.882 . S
C423 C417 1.428 . S
C423 O426 1.301 . S
C423 O427 1.282 . S
O424 U406 2.441 . S
O424 C410 1.249 . S
O425 U406 2.420 . S
O425 C410 1.202 . S
O426 U406 2.455 . S
O426 C423 1.301 . S
O427 U406 2.449 . S
O427 C423 1.282 . S
H428 C401 0.931 . S
H429 C403 0.929 . S
H430 C404 0.930 . S
H431 C405 0.931 . S
H432 C412 0.932 . S
H433 C413 0.930 . S
H434 C414 0.929 . S
H435 C416 0.930 . S
H436 C418 0.932 . S
H437 C419 0.929 . S
H438 C420 0.928 . S
H439 C422 0.932 . S
C440 C441 1.264 . S
C440 C445 1.479 . S
C440 C450 1.465 . S
C441 C440 1.264 . S
C441 C443 1.339 . S
C441 H468 0.931 . S
C442 C443 1.395 . S
C442 C444 1.320 . S
C443 C441 1.339 . S
C443 C442 1.395 . S
C443 H469 0.929 . S
C444 C442 1.320 . S
C444 C445 1.405 . S
C444 H470 0.930 . S
C445 C440 1.479 . S
C445 C444 1.405 . S
C445 H471 0.931 . S
U446 O447 2.454 . S
U446 O448 2.458 . S
U446 C449 2.984 . S
U446 C450 2.847 . S
U446 C463 2.882 . S
U446 O464 2.441 . S
U446 O465 2.420 . S
U446 O466 2.455 . S
U446 O467 2.449 . S
O447 U446 2.454 . S
O447 C449 1.353 . S
O448 U446 2.458 . S
O448 C449 1.286 . S
C449 U446 2.984 . S
C449 O447 1.353 . S
C449 O448 1.286 . S
C449 C451 1.363 . S
C450 C440 1.465 . S
C450 U446 2.847 . S
C450 O464 1.249 . S
C450 O465 1.202 . S
C451 C449 1.363 . S
C451 C453 1.408 . S
C451 C456 1.342 . S
C452 C453 1.310 . S
C452 C455 1.461 . S
C452 H472 0.932 . S
C453 C451 1.408 . S
C453 C452 1.310 . S
C453 H473 0.930 . S
C454 C455 1.474 . S
C454 C456 1.285 . S
C454 H474 0.929 . S
C455 C452 1.461 . S
C455 C454 1.474 . S
C456 C451 1.342 . S
C456 C454 1.285 . S
C456 H475 0.930 . S
C457 C460 1.424 . S
C457 C462 1.245 . S
C457 C463 1.428 . S
C458 C461 1.260 . S
C458 C462 1.477 . S
C458 H476 0.932 . S
C459 C460 1.384 . S
C459 C461 1.479 . S
C459 H477 0.929 . S
C460 C457 1.424 . S
C460 C459 1.384 . S
C460 H478 0.928 . S
C461 C458 1.260 . S
C461 C459 1.479 . S
C462 C457 1.245 . S
C462 C458 1.477 . S
C462 H479 0.932 . S
C463 U446 2.882 . S
C463 C457 1.428 . S
C463 O466 1.301 . S
C463 O467 1.282 . S
O464 U446 2.441 . S
O464 C450 1.249 . S
O465 U446 2.420 . S
O465 C450 1.202 . S
O466 U446 2.455 . S
O466 C463 1.301 . S
O467 U446 2.449 . S
O467 C463 1.282 . S
H468 C441 0.931 . S
H469 C443 0.929 . S
H470 C444 0.930 . S
H471 C445 0.931 . S
H472 C452 0.932 . S
H473 C453 0.930 . S
H474 C454 0.929 . S
H475 C456 0.930 . S
H476 C458 0.932 . S
H477 C459 0.929 . S
H478 C460 0.928 . S
H479 C462 0.932 . S
C480 C481 1.264 . S
C480 C485 1.479 . S
C480 C490 1.465 . S
C481 C480 1.264 . S
C481 C483 1.339 . S
C481 H508 0.931 . S
C482 C483 1.395 . S
C482 C484 1.320 . S
C483 C481 1.339 . S
C483 C482 1.395 . S
C483 H509 0.929 . S
C484 C482 1.320 . S
C484 C485 1.405 . S
C484 H510 0.930 . S
C485 C480 1.479 . S
C485 C484 1.405 . S
C485 H511 0.931 . S
U486 O487 2.454 . S
U486 O488 2.458 . S
U486 C489 2.984 . S
U486 C490 2.847 . S
U486 C503 2.882 . S
U486 O504 2.441 . S
U486 O505 2.420 . S
U486 O506 2.455 . S
U486 O507 2.449 . S
O487 U486 2.454 . S
O487 C489 1.353 . S
O488 U486 2.458 . S
O488 C489 1.286 . S
C489 U486 2.984 . S
C489 O487 1.353 . S
C489 O488 1.286 . S
C489 C491 1.363 . S
C490 C480 1.465 . S
C490 U486 2.847 . S
C490 O504 1.249 . S
C490 O505 1.202 . S
C491 C489 1.363 . S
C491 C493 1.408 . S
C491 C496 1.342 . S
C492 C493 1.310 . S
C492 C495 1.461 . S
C492 H512 0.932 . S
C493 C491 1.408 . S
C493 C492 1.310 . S
C493 H513 0.930 . S
C494 C495 1.474 . S
C494 C496 1.285 . S
C494 H514 0.929 . S
C495 C492 1.461 . S
C495 C494 1.474 . S
C496 C491 1.342 . S
C496 C494 1.285 . S
C496 H515 0.930 . S
C497 C500 1.424 . S
C497 C502 1.245 . S
C497 C503 1.428 . S
C498 C501 1.260 . S
C498 C502 1.477 . S
C498 H516 0.932 . S
C499 C500 1.384 . S
C499 C501 1.479 . S
C499 H517 0.929 . S
C500 C497 1.424 . S
C500 C499 1.384 . S
C500 H518 0.928 . S
C501 C498 1.260 . S
C501 C499 1.479 . S
C502 C497 1.245 . S
C502 C498 1.477 . S
C502 H519 0.932 . S
C503 U486 2.882 . S
C503 C497 1.428 . S
C503 O506 1.301 . S
C503 O507 1.282 . S
O504 U486 2.441 . S
O504 C490 1.249 . S
O505 U486 2.420 . S
O505 C490 1.202 . S
O506 U486 2.455 . S
O506 C503 1.301 . S
O507 U486 2.449 . S
O507 C503 1.282 . S
H508 C481 0.931 . S
H509 C483 0.929 . S
H510 C484 0.930 . S
H511 C485 0.931 . S
H512 C492 0.932 . S
H513 C493 0.930 . S
H514 C494 0.929 . S
H515 C496 0.930 . S
H516 C498 0.932 . S
H517 C499 0.929 . S
H518 C500 0.928 . S
H519 C502 0.932 . S
C520 C521 1.264 . S
C520 C525 1.479 . S
C520 C530 1.465 . S
C521 C520 1.264 . S
C521 C523 1.339 . S
C521 H548 0.931 . S
C522 C523 1.395 . S
C522 C524 1.320 . S
C523 C521 1.339 . S
C523 C522 1.395 . S
C523 H549 0.929 . S
C524 C522 1.320 . S
C524 C525 1.405 . S
C524 H550 0.930 . S
C525 C520 1.479 . S
C525 C524 1.405 . S
C525 H551 0.931 . S
U526 O527 2.454 . S
U526 O528 2.458 . S
U526 C529 2.984 . S
U526 C530 2.847 . S
U526 C543 2.882 . S
U526 O544 2.441 . S
U526 O545 2.420 . S
U526 O546 2.455 . S
U526 O547 2.449 . S
O527 U526 2.454 . S
O527 C529 1.353 . S
O528 U526 2.458 . S
O528 C529 1.286 . S
C529 U526 2.984 . S
C529 O527 1.353 . S
C529 O528 1.286 . S
C529 C531 1.363 1_556 S
C530 C520 1.465 . S
C530 U526 2.847 . S
C530 O544 1.249 . S
C530 O545 1.202 . S
C531 C529 1.363 1_554 S
C531 C533 1.420 . S
C531 C536 1.342 . S
C532 C533 1.356 . S
C532 C535 1.461 . S
C532 H552 0.932 . S
C533 C531 1.420 . S
C533 C532 1.356 . S
C533 H553 0.877 1_554 S
C534 C535 1.474 . S
C534 C536 1.285 . S
C534 H554 0.929 . S
C535 C532 1.461 . S
C535 C534 1.474 . S
C536 C531 1.342 . S
C536 C534 1.285 . S
C536 H555 0.930 . S
C537 C540 1.424 . S
C537 C542 1.245 . S
C537 C543 1.428 . S
C538 C541 1.260 . S
C538 C542 1.477 . S
C538 H556 0.932 1_556 S
C539 C540 1.384 . S
C539 C541 1.479 . S
C539 H557 0.929 . S
C540 C537 1.424 . S
C540 C539 1.384 . S
C540 H558 0.928 . S
C541 C538 1.260 . S
C541 C539 1.479 . S
C542 C537 1.245 . S
C542 C538 1.477 . S
C542 H559 0.939 . S
C543 U526 2.882 . S
C543 C537 1.428 . S
C543 O546 1.301 . S
C543 O547 1.282 . S
O544 U526 2.441 . S
O544 C530 1.249 . S
O545 U526 2.420 . S
O545 C530 1.202 . S
O546 U526 2.455 . S
O546 C543 1.301 . S
O547 U526 2.449 . S
O547 C543 1.282 . S
H548 C521 0.931 . S
H549 C523 0.929 . S
H550 C524 0.930 . S
H551 C525 0.931 . S
H552 C532 0.932 . S
H553 C533 0.877 1_556 S
H554 C534 0.929 . S
H555 C536 0.930 . S
H556 C538 0.932 1_554 S
H557 C539 0.929 . S
H558 C540 0.928 . S
H559 C542 0.939 . S
C560 C561 1.264 . S
C560 C565 1.479 . S
C560 C570 1.465 . S
C561 C560 1.264 . S
C561 C563 1.339 . S
C561 H588 0.931 . S
C562 C563 1.395 . S
C562 C564 1.320 . S
C563 C561 1.339 . S
C563 C562 1.395 . S
C563 H589 0.929 . S
C564 C562 1.320 . S
C564 C565 1.405 . S
C564 H590 0.930 . S
C565 C560 1.479 . S
C565 C564 1.405 . S
C565 H591 0.931 . S
U566 O567 2.454 . S
U566 O568 2.458 . S
U566 C569 2.984 . S
U566 C570 2.847 . S
U566 C583 2.882 . S
U566 O584 2.441 . S
U566 O585 2.420 . S
U566 O586 2.455 . S
U566 O587 2.449 . S
O567 U566 2.454 . S
O567 C569 1.353 . S
O568 U566 2.458 . S
O568 C569 1.286 . S
C569 U566 2.984 . S
C569 O567 1.353 . S
C569 O568 1.286 . S
C569 C571 1.363 . S
C570 C560 1.465 . S
C570 U566 2.847 . S
C570 O584 1.249 . S
C570 O585 1.202 . S
C571 C569 1.363 . S
C571 C573 1.408 . S
C571 C576 1.342 . S
C572 C573 1.310 . S
C572 C575 1.461 . S
C572 H592 0.932 . S
C573 C571 1.408 . S
C573 C572 1.310 . S
C573 H593 0.930 . S
C574 C575 1.474 . S
C574 C576 1.285 . S
C574 H594 0.929 . S
C575 C572 1.461 . S
C575 C574 1.474 . S
C576 C571 1.342 . S
C576 C574 1.285 . S
C576 H595 0.930 . S
C577 C580 1.424 . S
C577 C582 1.245 . S
C577 C583 1.428 . S
C578 C581 1.260 . S
C578 C582 1.477 . S
C578 H596 0.932 . S
C579 C580 1.384 . S
C579 C581 1.479 . S
C579 H597 0.929 . S
C580 C577 1.424 . S
C580 C579 1.384 . S
C580 H598 0.928 . S
C581 C578 1.260 . S
C581 C579 1.479 . S
C582 C577 1.245 . S
C582 C578 1.477 . S
C582 H599 0.932 . S
C583 U566 2.882 . S
C583 C577 1.428 . S
C583 O586 1.301 . S
C583 O587 1.282 . S
O584 U566 2.441 . S
O584 C570 1.249 . S
O585 U566 2.420 . S
O585 C570 1.202 . S
O586 U566 2.455 . S
O586 C583 1.301 . S
O587 U566 2.449 . S
O587 C583 1.282 . S
H588 C561 0.931 . S
H589 C563 0.929 . S
H590 C564 0.930 . S
H591 C565 0.931 . S
H592 C572 0.932 . S
H593 C573 0.930 . S
H594 C574 0.929 . S
H595 C576 0.930 . S
H596 C578 0.932 . S
H597 C579 0.929 . S
H598 C580 0.928 . S
H599 C582 0.932 . S
C600 C601 1.264 . S
C600 C605 1.479 . S
C600 C610 1.465 1_554 S
C601 C600 1.264 . S
C601 C603 1.339 . S
C601 H628 0.931 1_554 S
C602 C603 1.395 . S
C602 C604 1.320 . S
C603 C601 1.339 . S
C603 C602 1.395 . S
C603 H629 0.929 . S
C604 C602 1.320 . S
C604 C605 1.405 . S
C604 H630 0.930 . S
C605 C600 1.479 . S
C605 C604 1.405 . S
C605 H631 0.931 . S
U606 O607 2.454 . S
U606 O608 2.458 . S
U606 C609 2.984 . S
U606 C610 2.847 . S
U606 C623 2.882 . S
U606 O624 2.462 . S
U606 O625 2.420 . S
U606 O626 2.455 . S
U606 O627 2.449 . S
O607 U606 2.454 . S
O607 C609 1.353 . S
O608 U606 2.458 . S
O608 C609 1.286 . S
C609 U606 2.984 . S
C609 O607 1.353 . S
C609 O608 1.286 . S
C609 C611 1.363 1_545 S
C610 C600 1.465 1_556 S
C610 U606 2.847 . S
C610 O624 1.252 . S
C610 O625 1.202 . S
C611 C609 1.363 1_565 S
C611 C613 1.399 1_565 S
C611 C616 1.342 . S
C612 C613 1.271 1_565 S
C612 C615 1.461 . S
C612 H632 0.932 1_556 S
C613 C611 1.399 1_545 S
C613 C612 1.271 1_545 S
C613 H633 0.954 1_556 S
C614 C615 1.474 . S
C614 C616 1.285 . S
C614 H634 0.929 . S
C615 C612 1.461 . S
C615 C614 1.474 . S
C616 C611 1.342 . S
C616 C614 1.285 . S
C616 H635 0.930 . S
C617 C620 1.424 . S
C617 C622 1.245 . S
C617 C623 1.428 . S
C618 C621 1.260 . S
C618 C622 1.477 . S
C618 H636 0.936 . S
C619 C620 1.384 . S
C619 C621 1.479 . S
C619 H637 0.929 . S
C620 C617 1.424 . S
C620 C619 1.384 . S
C620 H638 0.928 . S
C621 C618 1.260 . S
C621 C619 1.479 . S
C622 C617 1.245 . S
C622 C618 1.477 . S
C622 H639 0.932 . S
C623 U606 2.882 . S
C623 C617 1.428 . S
C623 O626 1.301 . S
C623 O627 1.282 . S
O624 U606 2.462 . S
O624 C610 1.252 . S
O625 U606 2.420 . S
O625 C610 1.202 . S
O626 U606 2.455 . S
O626 C623 1.301 . S
O627 U606 2.449 . S
O627 C623 1.282 . S
H628 C601 0.931 1_556 S
H629 C603 0.929 . S
H630 C604 0.930 . S
H631 C605 0.931 . S
H632 C612 0.932 1_554 S
H633 C613 0.954 1_554 S
H634 C614 0.929 . S
H635 C616 0.930 . S
H636 C618 0.936 . S
H637 C619 0.929 . S
H638 C620 0.928 . S
H639 C622 0.932 . S
Li640 N657 1.990 1_554 S
Li640 O700 1.956 . S
Li640 O701 1.970 . S
Li640 O702 1.961 1_554 S
Li641 N665 1.990 . S
Li641 O700 1.970 . S
Li641 O701 1.956 . S
Li641 O703 1.961 . S
Li642 N687 1.990 . S
Li642 O700 1.961 1_556 S
Li642 O702 1.956 . S
Li642 O703 1.970 1_556 S
Li643 N693 1.990 . S
Li643 O701 1.961 . S
Li643 O702 1.970 1_554 S
Li643 O703 1.956 . S
C644 C646 1.367 . S
C644 C647 1.333 1_554 S
C644 O700 1.328 . S
N645 C648 1.314 1_556 S
N645 C649 1.279 . S
C646 C644 1.367 . S
C646 C648 1.353 . S
C646 H704 0.929 . S
C647 C644 1.333 1_556 S
C647 C649 1.358 . S
C647 H705 0.930 . S
C648 N645 1.314 1_554 S
C648 C646 1.353 . S
C648 H706 0.930 . S
C649 N645 1.279 . S
C649 C647 1.358 . S
C649 H707 0.930 . S
C650 C653 1.348 . S
C650 C654 1.356 . S
C650 O701 1.325 . S
C651 N652 1.279 . S
C651 C654 1.358 . S
C651 H708 0.930 . S
N652 C651 1.279 . S
N652 C655 1.314 . S
C653 C650 1.348 . S
C653 C655 1.353 . S
C653 H709 0.929 . S
C654 C650 1.356 . S
C654 C651 1.358 . S
C654 H710 0.930 . S
C655 N652 1.314 . S
C655 C653 1.353 . S
C655 H711 0.930 . S
C656 N657 1.314 . S
C656 C661 1.353 . S
C656 H662 0.930 . S
N657 Li640 1.990 1_556 S
N657 C656 1.314 . S
N657 C659 1.280 1_556 S
C658 C659 1.359 1_556 S
C658 C660 1.356 . S
C658 H712 0.934 . S
C659 N657 1.280 1_554 S
C659 C658 1.359 1_554 S
C659 H663 0.929 . S
C660 C658 1.356 . S
C660 C661 1.348 . S
C661 C656 1.353 . S
C661 C660 1.348 . S
C661 H713 0.929 . S
H662 C656 0.930 . S
H663 C659 0.929 . S
C664 N665 1.314 . S
C664 C666 1.353 . S
C664 H670 0.930 . S
N665 Li641 1.990 . S
N665 C664 1.314 . S
N665 C668 1.279 . S
C666 C664 1.353 . S
C666 C669 1.348 . S
C666 H714 0.929 . S
C667 C668 1.358 . S
C667 C669 1.356 . S
C667 H715 0.930 . S
C668 N665 1.279 . S
C668 C667 1.358 . S
C668 H671 0.930 . S
C669 C666 1.348 . S
C669 C667 1.356 . S
H670 C664 0.930 . S
H671 C668 0.930 . S
C672 C674 1.348 . S
C672 C675 1.356 . S
C672 O702 1.325 . S
N673 C676 1.314 . S
N673 C677 1.279 . S
C674 C672 1.348 . S
C674 C676 1.353 . S
C674 H716 0.929 . S
C675 C672 1.356 . S
C675 C677 1.358 . S
C675 H717 0.930 . S
C676 N673 1.314 . S
C676 C674 1.353 . S
C676 H718 0.930 . S
C677 N673 1.279 . S
C677 C675 1.358 . S
C677 H719 0.930 . S
C678 C679 1.348 1_554 S
C678 C680 1.356 . S
C678 O703 1.325 . S
C679 C678 1.348 1_556 S
C679 C681 1.354 1_556 S
C679 H720 0.929 . S
C680 C678 1.356 . S
C680 C682 1.358 . S
C680 H721 0.930 . S
C681 C679 1.354 1_554 S
C681 N683 1.309 . S
C681 H722 0.934 1_554 S
C682 C680 1.358 . S
C682 N683 1.279 . S
C682 H723 0.930 . S
N683 C681 1.309 . S
N683 C682 1.279 . S
C684 C686 1.353 . S
C684 N687 1.314 . S
C684 H690 0.930 . S
C685 N687 1.279 . S
C685 C688 1.358 . S
C685 H691 0.930 . S
C686 C684 1.353 . S
C686 C689 1.348 . S
C686 H724 0.929 . S
N687 Li642 1.990 . S
N687 C684 1.314 . S
N687 C685 1.279 . S
C688 C685 1.358 . S
C688 C689 1.356 . S
C688 H725 0.930 . S
C689 C686 1.348 . S
C689 C688 1.356 . S
H690 C684 0.930 . S
H691 C685 0.930 . S
C692 N693 1.314 . S
C692 C694 1.353 . S
C692 H698 0.930 . S
N693 Li643 1.990 . S
N693 C692 1.314 . S
N693 C696 1.279 . S
C694 C692 1.353 . S
C694 C697 1.348 . S
C694 H726 0.929 . S
C695 C696 1.358 . S
C695 C697 1.356 . S
C695 H727 0.930 . S
C696 N693 1.279 . S
C696 C695 1.358 . S
C696 H699 0.930 . S
C697 C694 1.348 . S
C697 C695 1.356 . S
H698 C692 0.930 . S
H699 C696 0.930 . S
O700 Li640 1.956 . S
O700 Li641 1.970 . S
O700 Li642 1.961 1_554 S
O700 C644 1.328 . S
O701 Li640 1.970 . S
O701 Li641 1.956 . S
O701 Li643 1.961 . S
O701 C650 1.325 . S
O702 Li640 1.961 1_556 S
O702 Li642 1.956 . S
O702 Li643 1.970 1_556 S
O702 C672 1.325 . S
O703 Li641 1.961 . S
O703 Li642 1.970 1_554 S
O703 Li643 1.956 . S
O703 C678 1.325 . S
H704 C646 0.929 . S
H705 C647 0.930 . S
H706 C648 0.930 . S
H707 C649 0.930 . S
H708 C651 0.930 . S
H709 C653 0.929 . S
H710 C654 0.930 . S
H711 C655 0.930 . S
H712 C658 0.934 . S
H713 C661 0.929 . S
H714 C666 0.929 . S
H715 C667 0.930 . S
H716 C674 0.929 . S
H717 C675 0.930 . S
H718 C676 0.930 . S
H719 C677 0.930 . S
H720 C679 0.929 . S
H721 C680 0.930 . S
H722 C681 0.934 1_556 S
H723 C682 0.930 . S
H724 C686 0.929 . S
H725 C688 0.930 . S
H726 C694 0.929 . S
H727 C695 0.930 . S
Li728 N745 1.990 . S
Li728 O788 1.956 . S
Li728 O789 1.970 . S
Li728 O790 1.961 . S
Li729 N753 1.990 . S
Li729 O788 1.970 . S
Li729 O789 1.956 . S
Li729 O791 1.961 . S
Li730 N775 1.990 . S
Li730 O788 1.961 . S
Li730 O790 1.956 . S
Li730 O791 1.970 . S
Li731 N781 1.990 . S
Li731 O789 1.961 . S
Li731 O790 1.970 . S
Li731 O791 1.956 . S
C732 C734 1.348 . S
C732 C735 1.356 . S
C732 O788 1.325 . S
N733 C736 1.314 . S
N733 C737 1.279 . S
C734 C732 1.348 . S
C734 C736 1.353 . S
C734 H792 0.929 . S
C735 C732 1.356 . S
C735 C737 1.358 . S
C735 H793 0.930 . S
C736 N733 1.314 . S
C736 C734 1.353 . S
C736 H794 0.930 . S
C737 N733 1.279 . S
C737 C735 1.358 . S
C737 H795 0.930 . S
C738 C741 1.348 . S
C738 C742 1.356 . S
C738 O789 1.325 . S
C739 N740 1.279 . S
C739 C742 1.358 . S
C739 H796 0.930 . S
N740 C739 1.279 . S
N740 C743 1.314 . S
C741 C738 1.348 . S
C741 C743 1.353 . S
C741 H797 0.929 . S
C742 C738 1.356 . S
C742 C739 1.358 . S
C742 H798 0.930 . S
C743 N740 1.314 . S
C743 C741 1.353 . S
C743 H799 0.930 . S
C744 N745 1.314 . S
C744 C749 1.353 . S
C744 H750 0.930 . S
N745 Li728 1.990 . S
N745 C744 1.314 . S
N745 C747 1.279 . S
C746 C747 1.358 . S
C746 C748 1.356 . S
C746 H800 0.930 . S
C747 N745 1.279 . S
C747 C746 1.358 . S
C747 H751 0.930 . S
C748 C746 1.356 . S
C748 C749 1.348 . S
C749 C744 1.353 . S
C749 C748 1.348 . S
C749 H801 0.929 . S
H750 C744 0.930 . S
H751 C747 0.930 . S
C752 N753 1.314 . S
C752 C754 1.353 . S
C752 H758 0.930 . S
N753 Li729 1.990 . S
N753 C752 1.314 . S
N753 C756 1.279 . S
C754 C752 1.353 . S
C754 C757 1.348 . S
C754 H802 0.929 . S
C755 C756 1.358 . S
C755 C757 1.356 . S
C755 H803 0.930 . S
C756 N753 1.279 . S
C756 C755 1.358 . S
C756 H759 0.930 . S
C757 C754 1.348 . S
C757 C755 1.356 . S
H758 C752 0.930 . S
H759 C756 0.930 . S
C760 C762 1.348 . S
C760 C763 1.356 . S
C760 O790 1.325 . S
N761 C764 1.314 . S
N761 C765 1.279 . S
C762 C760 1.348 . S
C762 C764 1.353 . S
C762 H804 0.929 . S
C763 C760 1.356 . S
C763 C765 1.358 . S
C763 H805 0.930 . S
C764 N761 1.314 . S
C764 C762 1.353 . S
C764 H806 0.930 . S
C765 N761 1.279 . S
C765 C763 1.358 . S
C765 H807 0.930 . S
C766 C767 1.348 . S
C766 C768 1.356 . S
C766 O791 1.325 . S
C767 C766 1.348 . S
C767 C769 1.353 . S
C767 H808 0.929 . S
C768 C766 1.356 . S
C768 C770 1.358 . S
C768 H809 0.930 . S
C769 C767 1.353 . S
C769 N771 1.314 . S
C769 H810 0.930 . S
C770 C768 1.358 . S
C770 N771 1.279 . S
C770 H811 0.930 . S
N771 C769 1.314 . S
N771 C770 1.279 . S
C772 C774 1.353 . S
C772 N775 1.314 . S
C772 H778 0.930 . S
C773 N775 1.279 . S
C773 C776 1.358 . S
C773 H779 0.930 . S
C774 C772 1.353 . S
C774 C777 1.348 . S
C774 H812 0.929 . S
N775 Li730 1.990 . S
N775 C772 1.314 . S
N775 C773 1.279 . S
C776 C773 1.358 . S
C776 C777 1.356 . S
C776 H813 0.930 . S
C777 C774 1.348 . S
C777 C776 1.356 . S
H778 C772 0.930 . S
H779 C773 0.930 . S
C780 N781 1.314 . S
C780 C782 1.353 . S
C780 H786 0.930 . S
N781 Li731 1.990 . S
N781 C780 1.314 . S
N781 C784 1.279 . S
C782 C780 1.353 . S
C782 C785 1.348 . S
C782 H814 0.929 . S
C783 C784 1.358 . S
C783 C785 1.356 . S
C783 H815 0.930 . S
C784 N781 1.279 . S
C784 C783 1.358 . S
C784 H787 0.930 . S
C785 C782 1.348 . S
C785 C783 1.356 . S
H786 C780 0.930 . S
H787 C784 0.930 . S
O788 Li728 1.956 . S
O788 Li729 1.970 . S
O788 Li730 1.961 . S
O788 C732 1.325 . S
O789 Li728 1.970 . S
O789 Li729 1.956 . S
O789 Li731 1.961 . S
O789 C738 1.325 . S
O790 Li728 1.961 . S
O790 Li730 1.956 . S
O790 Li731 1.970 . S
O790 C760 1.325 . S
O791 Li729 1.961 . S
O791 Li730 1.970 . S
O791 Li731 1.956 . S
O791 C766 1.325 . S
H792 C734 0.929 . S
H793 C735 0.930 . S
H794 C736 0.930 . S
H795 C737 0.930 . S
H796 C739 0.930 . S
H797 C741 0.929 . S
H798 C742 0.930 . S
H799 C743 0.930 . S
H800 C746 0.930 . S
H801 C749 0.929 . S
H802 C754 0.929 . S
H803 C755 0.930 . S
H804 C762 0.929 . S
H805 C763 0.930 . S
H806 C764 0.930 . S
H807 C765 0.930 . S
H808 C767 0.929 . S
H809 C768 0.930 . S
H810 C769 0.930 . S
H811 C770 0.930 . S
H812 C774 0.929 . S
H813 C776 0.930 . S
H814 C782 0.929 . S
H815 C783 0.930 . S
Li816 N833 1.990 . S
Li816 O876 1.956 . S
Li816 O877 1.970 1_556 S
Li816 O878 1.961 . S
Li817 N841 1.990 . S
Li817 O876 1.970 1_554 S
Li817 O877 1.956 . S
Li817 O879 1.961 . S
Li818 N863 1.990 . S
Li818 O876 1.961 . S
Li818 O878 1.956 . S
Li818 O879 1.970 1_556 S
Li819 N869 1.990 . S
Li819 O877 1.961 . S
Li819 O878 1.970 1_554 S
Li819 O879 1.956 . S
C820 C822 1.348 1_556 S
C820 C823 1.356 . S
C820 O876 1.325 . S
N821 C824 1.314 1_556 S
N821 C825 1.279 . S
C822 C820 1.348 1_554 S
C822 C824 1.353 . S
C822 H880 0.929 . S
C823 C820 1.356 . S
C823 C825 1.358 . S
C823 H881 0.930 . S
C824 N821 1.314 1_554 S
C824 C822 1.353 . S
C824 H882 0.930 . S
C825 N821 1.279 . S
C825 C823 1.358 . S
C825 H883 0.930 . S
C826 C829 1.348 . S
C826 C830 1.356 . S
C826 O877 1.325 . S
C827 N828 1.279 . S
C827 C830 1.358 . S
C827 H884 0.930 . S
N828 C827 1.279 . S
N828 C831 1.314 . S
C829 C826 1.348 . S
C829 C831 1.353 . S
C829 H885 0.929 . S
C830 C826 1.356 . S
C830 C827 1.358 . S
C830 H886 0.930 . S
C831 N828 1.314 . S
C831 C829 1.353 . S
C831 H887 0.930 . S
C832 N833 1.314 . S
C832 C837 1.353 . S
C832 H838 0.930 . S
N833 Li816 1.990 . S
N833 C832 1.314 . S
N833 C835 1.279 . S
C834 C835 1.358 . S
C834 C836 1.356 . S
C834 H888 0.930 . S
C835 N833 1.279 . S
C835 C834 1.358 . S
C835 H839 0.930 . S
C836 C834 1.356 . S
C836 C837 1.348 . S
C837 C832 1.353 . S
C837 C836 1.348 . S
C837 H889 0.929 . S
H838 C832 0.930 . S
H839 C835 0.930 . S
C840 N841 1.314 . S
C840 C842 1.353 . S
C840 H846 0.930 . S
N841 Li817 1.990 . S
N841 C840 1.314 . S
N841 C844 1.279 . S
C842 C840 1.353 . S
C842 C845 1.348 . S
C842 H890 0.929 . S
C843 C844 1.358 . S
C843 C845 1.356 . S
C843 H891 0.930 . S
C844 N841 1.279 . S
C844 C843 1.358 . S
C844 H847 0.930 . S
C845 C842 1.348 . S
C845 C843 1.356 . S
H846 C840 0.930 . S
H847 C844 0.930 . S
C848 C850 1.348 . S
C848 C851 1.356 . S
C848 O878 1.325 . S
N849 C852 1.314 . S
N849 C853 1.279 . S
C850 C848 1.348 . S
C850 C852 1.353 . S
C850 H892 0.929 . S
C851 C848 1.356 . S
C851 C853 1.358 . S
C851 H893 0.930 . S
C852 N849 1.314 . S
C852 C850 1.353 . S
C852 H894 0.930 . S
C853 N849 1.279 . S
C853 C851 1.358 . S
C853 H895 0.930 . S
C854 C855 1.348 1_554 S
C854 C856 1.356 . S
C854 O879 1.325 . S
C855 C854 1.348 1_556 S
C855 C857 1.353 . S
C855 H896 0.929 . S
C856 C854 1.356 . S
C856 C858 1.358 . S
C856 H897 0.930 . S
C857 C855 1.353 . S
C857 N859 1.314 1_556 S
C857 H898 0.930 . S
C858 C856 1.358 . S
C858 N859 1.279 . S
C858 H899 0.930 . S
N859 C857 1.314 1_554 S
N859 C858 1.279 . S
C860 C862 1.353 . S
C860 N863 1.314 . S
C860 H866 0.930 . S
C861 N863 1.279 . S
C861 C864 1.358 . S
C861 H867 0.930 . S
C862 C860 1.353 . S
C862 C865 1.348 . S
C862 H900 0.929 . S
N863 Li818 1.990 . S
N863 C860 1.314 . S
N863 C861 1.279 . S
C864 C861 1.358 . S
C864 C865 1.356 . S
C864 H901 0.930 . S
C865 C862 1.348 . S
C865 C864 1.356 . S
H866 C860 0.930 . S
H867 C861 0.930 . S
C868 N869 1.314 . S
C868 C870 1.353 . S
C868 H874 0.930 . S
N869 Li819 1.990 . S
N869 C868 1.314 . S
N869 C872 1.279 . S
C870 C868 1.353 . S
C870 C873 1.348 . S
C870 H902 0.929 . S
C871 C872 1.358 . S
C871 C873 1.356 . S
C871 H903 0.930 . S
C872 N869 1.279 . S
C872 C871 1.358 . S
C872 H875 0.930 . S
C873 C870 1.348 . S
C873 C871 1.356 . S
H874 C868 0.930 . S
H875 C872 0.930 . S
O876 Li816 1.956 . S
O876 Li817 1.970 1_556 S
O876 Li818 1.961 . S
O876 C820 1.325 . S
O877 Li816 1.970 1_554 S
O877 Li817 1.956 . S
O877 Li819 1.961 . S
O877 C826 1.325 . S
O878 Li816 1.961 . S
O878 Li818 1.956 . S
O878 Li819 1.970 1_556 S
O878 C848 1.325 . S
O879 Li817 1.961 . S
O879 Li818 1.970 1_554 S
O879 Li819 1.956 . S
O879 C854 1.325 . S
H880 C822 0.929 . S
H881 C823 0.930 . S
H882 C824 0.930 . S
H883 C825 0.930 . S
H884 C827 0.930 . S
H885 C829 0.929 . S
H886 C830 0.930 . S
H887 C831 0.930 . S
H888 C834 0.930 . S
H889 C837 0.929 . S
H890 C842 0.929 . S
H891 C843 0.930 . S
H892 C850 0.929 . S
H893 C851 0.930 . S
H894 C852 0.930 . S
H895 C853 0.930 . S
H896 C855 0.929 . S
H897 C856 0.930 . S
H898 C857 0.930 . S
H899 C858 0.930 . S
H900 C862 0.929 . S
H901 C864 0.930 . S
H902 C870 0.929 . S
H903 C871 0.930 . S
Li904 N921 1.990 . S
Li904 O964 1.956 . S
Li904 O965 1.970 1_545 S
Li904 O966 1.961 . S
Li905 N929 1.990 . S
Li905 O964 1.970 1_565 S
Li905 O965 1.956 . S
Li905 O967 1.961 . S
Li906 N951 1.990 . S
Li906 O964 1.961 . S
Li906 O966 1.956 . S
Li906 O967 1.970 1_545 S
Li907 N957 1.990 . S
Li907 O965 1.961 . S
Li907 O966 1.970 1_565 S
Li907 O967 1.956 . S
C908 C910 1.348 . S
C908 C911 1.356 . S
C908 O964 1.325 . S
N909 C912 1.314 . S
N909 C913 1.279 . S
C910 C908 1.348 . S
C910 C912 1.353 . S
C910 H968 0.929 . S
C911 C908 1.356 . S
C911 C913 1.358 . S
C911 H969 0.930 . S
C912 N909 1.314 . S
C912 C910 1.353 . S
C912 H970 0.930 . S
C913 N909 1.279 . S
C913 C911 1.358 . S
C913 H971 0.930 . S
C914 C917 1.348 1_565 S
C914 C918 1.356 . S
C914 O965 1.325 . S
C915 N916 1.279 . S
C915 C918 1.358 . S
C915 H972 0.930 . S
N916 C915 1.279 . S
N916 C919 1.314 1_565 S
C917 C914 1.348 1_545 S
C917 C919 1.353 . S
C917 H973 0.929 . S
C918 C914 1.356 . S
C918 C915 1.358 . S
C918 H974 0.930 . S
C919 N916 1.314 1_545 S
C919 C917 1.353 . S
C919 H975 0.930 . S
C920 N921 1.314 . S
C920 C925 1.353 . S
C920 H926 0.930 . S
N921 Li904 1.990 . S
N921 C920 1.314 . S
N921 C923 1.279 . S
C922 C923 1.358 . S
C922 C924 1.356 . S
C922 H976 0.930 . S
C923 N921 1.279 . S
C923 C922 1.358 . S
C923 H927 0.930 . S
C924 C922 1.356 . S
C924 C925 1.348 . S
C925 C920 1.353 . S
C925 C924 1.348 . S
C925 H977 0.929 . S
H926 C920 0.930 . S
H927 C923 0.930 . S
C928 N929 1.314 . S
C928 C930 1.353 . S
C928 H934 0.930 . S
N929 Li905 1.990 . S
N929 C928 1.314 . S
N929 C932 1.279 . S
C930 C928 1.353 . S
C930 C933 1.348 . S
C930 H978 0.929 . S
C931 C932 1.358 . S
C931 C933 1.356 . S
C931 H979 0.930 . S
C932 N929 1.279 . S
C932 C931 1.358 . S
C932 H935 0.930 . S
C933 C930 1.348 . S
C933 C931 1.356 . S
H934 C928 0.930 . S
H935 C932 0.930 . S
C936 C938 1.348 1_545 S
C936 C939 1.356 . S
C936 O966 1.325 . S
N937 C940 1.314 1_545 S
N937 C941 1.279 . S
C938 C936 1.348 1_565 S
C938 C940 1.353 . S
C938 H980 0.929 . S
C939 C936 1.356 . S
C939 C941 1.358 . S
C939 H981 0.930 . S
C940 N937 1.314 1_565 S
C940 C938 1.353 . S
C940 H982 0.930 . S
C941 N937 1.279 . S
C941 C939 1.358 . S
C941 H983 0.930 . S
C942 C943 1.348 . S
C942 C944 1.356 . S
C942 O967 1.325 . S
C943 C942 1.348 . S
C943 C945 1.353 . S
C943 H984 0.929 . S
C944 C942 1.356 . S
C944 C946 1.358 . S
C944 H985 0.930 . S
C945 C943 1.353 . S
C945 N947 1.314 . S
C945 H986 0.930 . S
C946 C944 1.358 . S
C946 N947 1.279 . S
C946 H987 0.930 . S
N947 C945 1.314 . S
N947 C946 1.279 . S
C948 C950 1.353 . S
C948 N951 1.314 . S
C948 H954 0.930 . S
C949 N951 1.279 . S
C949 C952 1.358 . S
C949 H955 0.930 . S
C950 C948 1.353 . S
C950 C953 1.348 . S
C950 H988 0.929 . S
N951 Li906 1.990 . S
N951 C948 1.314 . S
N951 C949 1.279 . S
C952 C949 1.358 . S
C952 C953 1.356 . S
C952 H989 0.930 . S
C953 C950 1.348 . S
C953 C952 1.356 . S
H954 C948 0.930 . S
H955 C949 0.930 . S
C956 N957 1.314 . S
C956 C958 1.353 . S
C956 H962 0.930 . S
N957 Li907 1.990 . S
N957 C956 1.314 . S
N957 C960 1.279 . S
C958 C956 1.353 . S
C958 C961 1.348 . S
C958 H990 0.929 . S
C959 C960 1.358 . S
C959 C961 1.356 . S
C959 H991 0.930 . S
C960 N957 1.279 . S
C960 C959 1.358 . S
C960 H963 0.930 . S
C961 C958 1.348 . S
C961 C959 1.356 . S
H962 C956 0.930 . S
H963 C960 0.930 . S
O964 Li904 1.956 . S
O964 Li905 1.970 1_545 S
O964 Li906 1.961 . S
O964 C908 1.325 . S
O965 Li904 1.970 1_565 S
O965 Li905 1.956 . S
O965 Li907 1.961 . S
O965 C914 1.325 . S
O966 Li904 1.961 . S
O966 Li906 1.956 . S
O966 Li907 1.970 1_545 S
O966 C936 1.325 . S
O967 Li905 1.961 . S
O967 Li906 1.970 1_565 S
O967 Li907 1.956 . S
O967 C942 1.325 . S
H968 C910 0.929 . S
H969 C911 0.930 . S
H970 C912 0.930 . S
H971 C913 0.930 . S
H972 C915 0.930 . S
H973 C917 0.929 . S
H974 C918 0.930 . S
H975 C919 0.930 . S
H976 C922 0.930 . S
H977 C925 0.929 . S
H978 C930 0.929 . S
H979 C931 0.930 . S
H980 C938 0.929 . S
H981 C939 0.930 . S
H982 C940 0.930 . S
H983 C941 0.930 . S
H984 C943 0.929 . S
H985 C944 0.930 . S
H986 C945 0.930 . S
H987 C946 0.930 . S
H988 C950 0.929 . S
H989 C952 0.930 . S
H990 C958 0.929 . S
H991 C959 0.930 . S
Li992 N1009 1.990 . S
Li992 O1052 1.956 . S
Li992 O1053 1.970 . S
Li992 O1054 1.961 . S
Li993 N1017 1.990 . S
Li993 O1052 1.970 . S
Li993 O1053 1.956 . S
Li993 O1055 1.961 . S
Li994 N1039 1.990 . S
Li994 O1052 1.961 . S
Li994 O1054 1.956 . S
Li994 O1055 1.970 . S
Li995 N1045 1.990 . S
Li995 O1053 1.961 . S
Li995 O1054 1.970 . S
Li995 O1055 1.956 . S
C996 C998 1.348 . S
C996 C999 1.356 . S
C996 O1052 1.325 . S
N997 C1000 1.314 . S
N997 C1001 1.279 . S
C998 C996 1.348 . S
C998 C1000 1.353 . S
C998 H1056 0.929 . S
C999 C996 1.356 . S
C999 C1001 1.358 . S
C999 H1057 0.930 . S
C1000 N997 1.314 . S
C1000 C998 1.353 . S
C1000 H1058 0.930 . S
C1001 N997 1.279 . S
C1001 C999 1.358 . S
C1001 H1059 0.930 . S
C1002 C1005 1.348 . S
C1002 C1006 1.356 . S
C1002 O1053 1.325 . S
C1003 N1004 1.279 . S
C1003 C1006 1.358 . S
C1003 H1060 0.930 . S
N1004 C1003 1.279 . S
N1004 C1007 1.314 . S
C1005 C1002 1.348 . S
C1005 C1007 1.353 . S
C1005 H1061 0.929 . S
C1006 C1002 1.356 . S
C1006 C1003 1.358 . S
C1006 H1062 0.930 . S
C1007 N1004 1.314 . S
C1007 C1005 1.353 . S
C1007 H1063 0.930 . S
C1008 N1009 1.314 . S
C1008 C1013 1.353 . S
C1008 H1014 0.930 . S
N1009 Li992 1.990 . S
N1009 C1008 1.314 . S
N1009 C1011 1.279 . S
C1010 C1011 1.358 . S
C1010 C1012 1.356 . S
C1010 H1064 0.930 . S
C1011 N1009 1.279 . S
C1011 C1010 1.358 . S
C1011 H1015 0.930 . S
C1012 C1010 1.356 . S
C1012 C1013 1.348 . S
C1013 C1008 1.353 . S
C1013 C1012 1.348 . S
C1013 H1065 0.929 . S
H1014 C1008 0.930 . S
H1015 C1011 0.930 . S
C1016 N1017 1.314 . S
C1016 C1018 1.353 . S
C1016 H1022 0.930 . S
N1017 Li993 1.990 . S
N1017 C1016 1.314 . S
N1017 C1020 1.279 . S
C1018 C1016 1.353 . S
C1018 C1021 1.348 . S
C1018 H1066 0.929 . S
C1019 C1020 1.358 . S
C1019 C1021 1.356 . S
C1019 H1067 0.930 . S
C1020 N1017 1.279 . S
C1020 C1019 1.358 . S
C1020 H1023 0.930 . S
C1021 C1018 1.348 . S
C1021 C1019 1.356 . S
H1022 C1016 0.930 . S
H1023 C1020 0.930 . S
C1024 C1026 1.348 . S
C1024 C1027 1.356 . S
C1024 O1054 1.325 . S
N1025 C1028 1.314 . S
N1025 C1029 1.279 . S
C1026 C1024 1.348 . S
C1026 C1028 1.353 . S
C1026 H1068 0.929 . S
C1027 C1024 1.356 . S
C1027 C1029 1.358 . S
C1027 H1069 0.930 . S
C1028 N1025 1.314 . S
C1028 C1026 1.353 . S
C1028 H1070 0.930 . S
C1029 N1025 1.279 . S
C1029 C1027 1.358 . S
C1029 H1071 0.930 . S
C1030 C1031 1.348 . S
C1030 C1032 1.356 . S
C1030 O1055 1.325 . S
C1031 C1030 1.348 . S
C1031 C1033 1.353 . S
C1031 H1072 0.929 . S
C1032 C1030 1.356 . S
C1032 C1034 1.358 . S
C1032 H1073 0.930 . S
C1033 C1031 1.353 . S
C1033 N1035 1.314 . S
C1033 H1074 0.930 . S
C1034 C1032 1.358 . S
C1034 N1035 1.279 . S
C1034 H1075 0.930 . S
N1035 C1033 1.314 . S
N1035 C1034 1.279 . S
C1036 C1038 1.353 . S
C1036 N1039 1.314 . S
C1036 H1042 0.930 . S
C1037 N1039 1.279 . S
C1037 C1040 1.358 . S
C1037 H1043 0.930 . S
C1038 C1036 1.353 . S
C1038 C1041 1.348 . S
C1038 H1076 0.929 . S
N1039 Li994 1.990 . S
N1039 C1036 1.314 . S
N1039 C1037 1.279 . S
C1040 C1037 1.358 . S
C1040 C1041 1.356 . S
C1040 H1077 0.930 . S
C1041 C1038 1.348 . S
C1041 C1040 1.356 . S
H1042 C1036 0.930 . S
H1043 C1037 0.930 . S
C1044 N1045 1.314 . S
C1044 C1046 1.353 . S
C1044 H1050 0.930 . S
N1045 Li995 1.990 . S
N1045 C1044 1.314 . S
N1045 C1048 1.279 . S
C1046 C1044 1.353 . S
C1046 C1049 1.348 . S
C1046 H1078 0.929 . S
C1047 C1048 1.358 . S
C1047 C1049 1.356 . S
C1047 H1079 0.930 . S
C1048 N1045 1.279 . S
C1048 C1047 1.358 . S
C1048 H1051 0.930 . S
C1049 C1046 1.348 . S
C1049 C1047 1.356 . S
H1050 C1044 0.930 . S
H1051 C1048 0.930 . S
O1052 Li992 1.956 . S
O1052 Li993 1.970 . S
O1052 Li994 1.961 . S
O1052 C996 1.325 . S
O1053 Li992 1.970 . S
O1053 Li993 1.956 . S
O1053 Li995 1.961 . S
O1053 C1002 1.325 . S
O1054 Li992 1.961 . S
O1054 Li994 1.956 . S
O1054 Li995 1.970 . S
O1054 C1024 1.325 . S
O1055 Li993 1.961 . S
O1055 Li994 1.970 . S
O1055 Li995 1.956 . S
O1055 C1030 1.325 . S
H1056 C998 0.929 . S
H1057 C999 0.930 . S
H1058 C1000 0.930 . S
H1059 C1001 0.930 . S
H1060 C1003 0.930 . S
H1061 C1005 0.929 . S
H1062 C1006 0.930 . S
H1063 C1007 0.930 . S
H1064 C1010 0.930 . S
H1065 C1013 0.929 . S
H1066 C1018 0.929 . S
H1067 C1019 0.930 . S
H1068 C1026 0.929 . S
H1069 C1027 0.930 . S
H1070 C1028 0.930 . S
H1071 C1029 0.930 . S
H1072 C1031 0.929 . S
H1073 C1032 0.930 . S
H1074 C1033 0.930 . S
H1075 C1034 0.930 . S
H1076 C1038 0.929 . S
H1077 C1040 0.930 . S
H1078 C1046 0.929 . S
H1079 C1047 0.930 . S
Li1080 N1097 1.990 . S
Li1080 O1140 1.956 . S
Li1080 O1141 1.970 . S
Li1080 O1142 1.961 . S
Li1081 N1105 1.990 . S
Li1081 O1140 1.970 . S
Li1081 O1141 1.956 . S
Li1081 O1143 1.961 . S
Li1082 N1127 1.990 . S
Li1082 O1140 1.961 . S
Li1082 O1142 1.956 . S
Li1082 O1143 1.970 . S
Li1083 N1133 1.990 . S
Li1083 O1141 1.961 . S
Li1083 O1142 1.970 . S
Li1083 O1143 1.956 . S
C1084 C1086 1.348 . S
C1084 C1087 1.356 . S
C1084 O1140 1.325 . S
N1085 C1088 1.314 . S
N1085 C1089 1.279 . S
C1086 C1084 1.348 . S
C1086 C1088 1.353 . S
C1086 H1144 0.929 . S
C1087 C1084 1.356 . S
C1087 C1089 1.358 . S
C1087 H1145 0.930 . S
C1088 N1085 1.314 . S
C1088 C1086 1.353 . S
C1088 H1146 0.930 . S
C1089 N1085 1.279 . S
C1089 C1087 1.358 . S
C1089 H1147 0.930 . S
C1090 C1093 1.348 . S
C1090 C1094 1.356 . S
C1090 O1141 1.325 . S
C1091 N1092 1.279 . S
C1091 C1094 1.358 . S
C1091 H1148 0.930 . S
N1092 C1091 1.279 . S
N1092 C1095 1.314 . S
C1093 C1090 1.348 . S
C1093 C1095 1.353 . S
C1093 H1149 0.929 . S
C1094 C1090 1.356 . S
C1094 C1091 1.358 . S
C1094 H1150 0.930 . S
C1095 N1092 1.314 . S
C1095 C1093 1.353 . S
C1095 H1151 0.930 . S
C1096 N1097 1.314 . S
C1096 C1101 1.353 . S
C1096 H1102 0.930 . S
N1097 Li1080 1.990 . S
N1097 C1096 1.314 . S
N1097 C1099 1.279 . S
C1098 C1099 1.358 . S
C1098 C1100 1.356 . S
C1098 H1152 0.930 . S
C1099 N1097 1.279 . S
C1099 C1098 1.358 . S
C1099 H1103 0.930 . S
C1100 C1098 1.356 . S
C1100 C1101 1.348 . S
C1101 C1096 1.353 . S
C1101 C1100 1.348 . S
C1101 H1153 0.929 . S
H1102 C1096 0.930 . S
H1103 C1099 0.930 . S
C1104 N1105 1.314 . S
C1104 C1106 1.353 . S
C1104 H1110 0.930 . S
N1105 Li1081 1.990 . S
N1105 C1104 1.314 . S
N1105 C1108 1.279 . S
C1106 C1104 1.353 . S
C1106 C1109 1.348 . S
C1106 H1154 0.929 . S
C1107 C1108 1.358 . S
C1107 C1109 1.356 . S
C1107 H1155 0.930 . S
C1108 N1105 1.279 . S
C1108 C1107 1.358 . S
C1108 H1111 0.930 . S
C1109 C1106 1.348 . S
C1109 C1107 1.356 . S
H1110 C1104 0.930 . S
H1111 C1108 0.930 . S
C1112 C1114 1.348 . S
C1112 C1115 1.356 . S
C1112 O1142 1.325 . S
N1113 C1116 1.314 . S
N1113 C1117 1.279 . S
C1114 C1112 1.348 . S
C1114 C1116 1.353 . S
C1114 H1156 0.929 . S
C1115 C1112 1.356 . S
C1115 C1117 1.358 . S
C1115 H1157 0.930 . S
C1116 N1113 1.314 . S
C1116 C1114 1.353 . S
C1116 H1158 0.930 . S
C1117 N1113 1.279 . S
C1117 C1115 1.358 . S
C1117 H1159 0.930 . S
C1118 C1119 1.348 . S
C1118 C1120 1.356 . S
C1118 O1143 1.325 . S
C1119 C1118 1.348 . S
C1119 C1121 1.353 . S
C1119 H1160 0.929 . S
C1120 C1118 1.356 . S
C1120 C1122 1.358 . S
C1120 H1161 0.930 . S
C1121 C1119 1.353 . S
C1121 N1123 1.314 . S
C1121 H1162 0.930 . S
C1122 C1120 1.358 . S
C1122 N1123 1.279 . S
C1122 H1163 0.930 . S
N1123 C1121 1.314 . S
N1123 C1122 1.279 . S
C1124 C1126 1.353 . S
C1124 N1127 1.314 . S
C1124 H1130 0.930 . S
C1125 N1127 1.279 . S
C1125 C1128 1.358 . S
C1125 H1131 0.930 . S
C1126 C1124 1.353 . S
C1126 C1129 1.348 . S
C1126 H1164 0.929 . S
N1127 Li1082 1.990 . S
N1127 C1124 1.314 . S
N1127 C1125 1.279 . S
C1128 C1125 1.358 . S
C1128 C1129 1.356 . S
C1128 H1165 0.930 . S
C1129 C1126 1.348 . S
C1129 C1128 1.356 . S
H1130 C1124 0.930 . S
H1131 C1125 0.930 . S
C1132 N1133 1.314 . S
C1132 C1134 1.353 . S
C1132 H1138 0.930 . S
N1133 Li1083 1.990 . S
N1133 C1132 1.314 . S
N1133 C1136 1.279 . S
C1134 C1132 1.353 . S
C1134 C1137 1.348 . S
C1134 H1166 0.929 . S
C1135 C1136 1.358 . S
C1135 C1137 1.356 . S
C1135 H1167 0.930 . S
C1136 N1133 1.279 . S
C1136 C1135 1.358 . S
C1136 H1139 0.930 . S
C1137 C1134 1.348 . S
C1137 C1135 1.356 . S
H1138 C1132 0.930 . S
H1139 C1136 0.930 . S
O1140 Li1080 1.956 . S
O1140 Li1081 1.970 . S
O1140 Li1082 1.961 . S
O1140 C1084 1.325 . S
O1141 Li1080 1.970 . S
O1141 Li1081 1.956 . S
O1141 Li1083 1.961 . S
O1141 C1090 1.325 . S
O1142 Li1080 1.961 . S
O1142 Li1082 1.956 . S
O1142 Li1083 1.970 . S
O1142 C1112 1.325 . S
O1143 Li1081 1.961 . S
O1143 Li1082 1.970 . S
O1143 Li1083 1.956 . S
O1143 C1118 1.325 . S
H1144 C1086 0.929 . S
H1145 C1087 0.930 . S
H1146 C1088 0.930 . S
H1147 C1089 0.930 . S
H1148 C1091 0.930 . S
H1149 C1093 0.929 . S
H1150 C1094 0.930 . S
H1151 C1095 0.930 . S
H1152 C1098 0.930 . S
H1153 C1101 0.929 . S
H1154 C1106 0.929 . S
H1155 C1107 0.930 . S
H1156 C1114 0.929 . S
H1157 C1115 0.930 . S
H1158 C1116 0.930 . S
H1159 C1117 0.930 . S
H1160 C1119 0.929 . S
H1161 C1120 0.930 . S
H1162 C1121 0.930 . S
H1163 C1122 0.930 . S
H1164 C1126 0.929 . S
H1165 C1128 0.930 . S
H1166 C1134 0.929 . S
H1167 C1135 0.930 . S
Li1168 N1185 1.990 . S
Li1168 O1228 1.956 . S
Li1168 O1229 1.970 . S
Li1168 O1230 1.961 . S
Li1169 N1193 1.990 . S
Li1169 O1228 1.970 . S
Li1169 O1229 1.956 . S
Li1169 O1231 1.961 . S
Li1170 N1215 1.990 . S
Li1170 O1228 1.961 . S
Li1170 O1230 1.956 . S
Li1170 O1231 1.970 . S
Li1171 N1221 1.990 . S
Li1171 O1229 1.961 . S
Li1171 O1230 1.970 . S
Li1171 O1231 1.956 . S
C1172 C1174 1.348 . S
C1172 C1175 1.356 . S
C1172 O1228 1.325 . S
N1173 C1176 1.314 . S
N1173 C1177 1.279 . S
C1174 C1172 1.348 . S
C1174 C1176 1.353 . S
C1174 H1232 0.929 . S
C1175 C1172 1.356 . S
C1175 C1177 1.358 . S
C1175 H1233 0.930 . S
C1176 N1173 1.314 . S
C1176 C1174 1.353 . S
C1176 H1234 0.930 . S
C1177 N1173 1.279 . S
C1177 C1175 1.358 . S
C1177 H1235 0.930 . S
C1178 C1181 1.348 . S
C1178 C1182 1.356 . S
C1178 O1229 1.325 . S
C1179 N1180 1.279 . S
C1179 C1182 1.358 . S
C1179 H1236 0.930 . S
N1180 C1179 1.279 . S
N1180 C1183 1.314 . S
C1181 C1178 1.348 . S
C1181 C1183 1.353 . S
C1181 H1237 0.929 . S
C1182 C1178 1.356 . S
C1182 C1179 1.358 . S
C1182 H1238 0.930 . S
C1183 N1180 1.314 . S
C1183 C1181 1.353 . S
C1183 H1239 0.930 . S
C1184 N1185 1.314 . S
C1184 C1189 1.353 . S
C1184 H1190 0.930 . S
N1185 Li1168 1.990 . S
N1185 C1184 1.314 . S
N1185 C1187 1.279 . S
C1186 C1187 1.358 . S
C1186 C1188 1.356 . S
C1186 H1240 0.930 . S
C1187 N1185 1.279 . S
C1187 C1186 1.358 . S
C1187 H1191 0.930 . S
C1188 C1186 1.356 . S
C1188 C1189 1.348 . S
C1189 C1184 1.353 . S
C1189 C1188 1.348 . S
C1189 H1241 0.929 . S
H1190 C1184 0.930 . S
H1191 C1187 0.930 . S
C1192 N1193 1.314 . S
C1192 C1194 1.353 . S
C1192 H1198 0.930 . S
N1193 Li1169 1.990 . S
N1193 C1192 1.314 . S
N1193 C1196 1.279 . S
C1194 C1192 1.353 . S
C1194 C1197 1.348 . S
C1194 H1242 0.929 . S
C1195 C1196 1.358 . S
C1195 C1197 1.356 . S
C1195 H1243 0.930 . S
C1196 N1193 1.279 . S
C1196 C1195 1.358 . S
C1196 H1199 0.930 . S
C1197 C1194 1.348 . S
C1197 C1195 1.356 . S
H1198 C1192 0.930 . S
H1199 C1196 0.930 . S
C1200 C1202 1.348 . S
C1200 C1203 1.356 . S
C1200 O1230 1.325 . S
N1201 C1204 1.314 . S
N1201 C1205 1.279 . S
C1202 C1200 1.348 . S
C1202 C1204 1.353 . S
C1202 H1244 0.929 . S
C1203 C1200 1.356 . S
C1203 C1205 1.358 . S
C1203 H1245 0.930 . S
C1204 N1201 1.314 . S
C1204 C1202 1.353 . S
C1204 H1246 0.930 . S
C1205 N1201 1.279 . S
C1205 C1203 1.358 . S
C1205 H1247 0.930 . S
C1206 C1207 1.348 . S
C1206 C1208 1.356 . S
C1206 O1231 1.325 . S
C1207 C1206 1.348 . S
C1207 C1209 1.353 . S
C1207 H1248 0.929 . S
C1208 C1206 1.356 . S
C1208 C1210 1.358 . S
C1208 H1249 0.930 . S
C1209 C1207 1.353 . S
C1209 N1211 1.314 . S
C1209 H1250 0.930 . S
C1210 C1208 1.358 . S
C1210 N1211 1.279 . S
C1210 H1251 0.930 . S
N1211 C1209 1.314 . S
N1211 C1210 1.279 . S
C1212 C1214 1.353 . S
C1212 N1215 1.314 . S
C1212 H1218 0.930 . S
C1213 N1215 1.279 . S
C1213 C1216 1.358 . S
C1213 H1219 0.930 . S
C1214 C1212 1.353 . S
C1214 C1217 1.348 . S
C1214 H1252 0.929 . S
N1215 Li1170 1.990 . S
N1215 C1212 1.314 . S
N1215 C1213 1.279 . S
C1216 C1213 1.358 . S
C1216 C1217 1.356 . S
C1216 H1253 0.930 . S
C1217 C1214 1.348 . S
C1217 C1216 1.356 . S
H1218 C1212 0.930 . S
H1219 C1213 0.930 . S
C1220 N1221 1.314 . S
C1220 C1222 1.353 . S
C1220 H1226 0.930 . S
N1221 Li1171 1.990 . S
N1221 C1220 1.314 . S
N1221 C1224 1.279 . S
C1222 C1220 1.353 . S
C1222 C1225 1.348 . S
C1222 H1254 0.929 . S
C1223 C1224 1.358 . S
C1223 C1225 1.356 . S
C1223 H1255 0.930 . S
C1224 N1221 1.279 . S
C1224 C1223 1.358 . S
C1224 H1227 0.930 . S
C1225 C1222 1.348 . S
C1225 C1223 1.356 . S
H1226 C1220 0.930 . S
H1227 C1224 0.930 . S
O1228 Li1168 1.956 . S
O1228 Li1169 1.970 . S
O1228 Li1170 1.961 . S
O1228 C1172 1.325 . S
O1229 Li1168 1.970 . S
O1229 Li1169 1.956 . S
O1229 Li1171 1.961 . S
O1229 C1178 1.325 . S
O1230 Li1168 1.961 . S
O1230 Li1170 1.956 . S
O1230 Li1171 1.970 . S
O1230 C1200 1.325 . S
O1231 Li1169 1.961 . S
O1231 Li1170 1.970 . S
O1231 Li1171 1.956 . S
O1231 C1206 1.325 . S
H1232 C1174 0.929 . S
H1233 C1175 0.930 . S
H1234 C1176 0.930 . S
H1235 C1177 0.930 . S
H1236 C1179 0.930 . S
H1237 C1181 0.929 . S
H1238 C1182 0.930 . S
H1239 C1183 0.930 . S
H1240 C1186 0.930 . S
H1241 C1189 0.929 . S
H1242 C1194 0.929 . S
H1243 C1195 0.930 . S
H1244 C1202 0.929 . S
H1245 C1203 0.930 . S
H1246 C1204 0.930 . S
H1247 C1205 0.930 . S
H1248 C1207 0.929 . S
H1249 C1208 0.930 . S
H1250 C1209 0.930 . S
H1251 C1210 0.930 . S
H1252 C1214 0.929 . S
H1253 C1216 0.930 . S
H1254 C1222 0.929 . S
H1255 C1223 0.930 . S
Li1256 N1273 1.990 . S
Li1256 O1316 1.956 . S
Li1256 O1317 1.970 1_565 S
Li1256 O1318 1.961 . S
Li1257 N1281 1.990 . S
Li1257 O1316 1.970 1_545 S
Li1257 O1317 1.956 . S
Li1257 O1319 1.961 . S
Li1258 N1303 1.990 . S
Li1258 O1316 1.961 . S
Li1258 O1318 1.956 . S
Li1258 O1319 1.970 1_565 S
Li1259 N1309 1.990 . S
Li1259 O1317 1.961 . S
Li1259 O1318 1.970 1_545 S
Li1259 O1319 1.956 . S
C1260 C1262 1.348 . S
C1260 C1263 1.356 . S
C1260 O1316 1.325 . S
N1261 C1264 1.314 . S
N1261 C1265 1.279 . S
C1262 C1260 1.348 . S
C1262 C1264 1.353 . S
C1262 H1320 0.929 . S
C1263 C1260 1.356 . S
C1263 C1265 1.358 . S
C1263 H1321 0.930 . S
C1264 N1261 1.314 . S
C1264 C1262 1.353 . S
C1264 H1322 0.930 . S
C1265 N1261 1.279 . S
C1265 C1263 1.358 . S
C1265 H1323 0.930 . S
C1266 C1269 1.348 1_545 S
C1266 C1270 1.356 . S
C1266 O1317 1.325 . S
C1267 N1268 1.279 . S
C1267 C1270 1.358 . S
C1267 H1324 0.930 . S
N1268 C1267 1.279 . S
N1268 C1271 1.314 1_545 S
C1269 C1266 1.348 1_565 S
C1269 C1271 1.353 . S
C1269 H1325 0.929 . S
C1270 C1266 1.356 . S
C1270 C1267 1.358 . S
C1270 H1326 0.930 . S
C1271 N1268 1.314 1_565 S
C1271 C1269 1.353 . S
C1271 H1327 0.930 . S
C1272 N1273 1.314 . S
C1272 C1277 1.353 . S
C1272 H1278 0.930 . S
N1273 Li1256 1.990 . S
N1273 C1272 1.314 . S
N1273 C1275 1.279 . S
C1274 C1275 1.358 . S
C1274 C1276 1.356 . S
C1274 H1328 0.930 . S
C1275 N1273 1.279 . S
C1275 C1274 1.358 . S
C1275 H1279 0.930 . S
C1276 C1274 1.356 . S
C1276 C1277 1.348 . S
C1277 C1272 1.353 . S
C1277 C1276 1.348 . S
C1277 H1329 0.929 . S
H1278 C1272 0.930 . S
H1279 C1275 0.930 . S
C1280 N1281 1.314 . S
C1280 C1282 1.353 . S
C1280 H1286 0.930 . S
N1281 Li1257 1.990 . S
N1281 C1280 1.314 . S
N1281 C1284 1.279 . S
C1282 C1280 1.353 . S
C1282 C1285 1.348 . S
C1282 H1330 0.929 . S
C1283 C1284 1.358 . S
C1283 C1285 1.356 . S
C1283 H1331 0.930 . S
C1284 N1281 1.279 . S
C1284 C1283 1.358 . S
C1284 H1287 0.930 . S
C1285 C1282 1.348 . S
C1285 C1283 1.356 . S
H1286 C1280 0.930 . S
H1287 C1284 0.930 . S
C1288 C1290 1.348 1_565 S
C1288 C1291 1.356 . S
C1288 O1318 1.325 . S
N1289 C1292 1.314 1_565 S
N1289 C1293 1.279 . S
C1290 C1288 1.348 1_545 S
C1290 C1292 1.353 . S
C1290 H1332 0.929 . S
C1291 C1288 1.356 . S
C1291 C1293 1.358 . S
C1291 H1333 0.930 . S
C1292 N1289 1.314 1_545 S
C1292 C1290 1.353 . S
C1292 H1334 0.930 . S
C1293 N1289 1.279 . S
C1293 C1291 1.358 . S
C1293 H1335 0.930 . S
C1294 C1295 1.348 . S
C1294 C1296 1.356 . S
C1294 O1319 1.325 . S
C1295 C1294 1.348 . S
C1295 C1297 1.353 . S
C1295 H1336 0.929 . S
C1296 C1294 1.356 . S
C1296 C1298 1.358 . S
C1296 H1337 0.930 . S
C1297 C1295 1.353 . S
C1297 N1299 1.314 . S
C1297 H1338 0.930 . S
C1298 C1296 1.358 . S
C1298 N1299 1.279 . S
C1298 H1339 0.930 . S
N1299 C1297 1.314 . S
N1299 C1298 1.279 . S
C1300 C1302 1.353 . S
C1300 N1303 1.314 . S
C1300 H1306 0.930 . S
C1301 N1303 1.279 . S
C1301 C1304 1.358 . S
C1301 H1307 0.930 . S
C1302 C1300 1.353 . S
C1302 C1305 1.348 . S
C1302 H1340 0.929 . S
N1303 Li1258 1.990 . S
N1303 C1300 1.314 . S
N1303 C1301 1.279 . S
C1304 C1301 1.358 . S
C1304 C1305 1.356 . S
C1304 H1341 0.930 . S
C1305 C1302 1.348 . S
C1305 C1304 1.356 . S
H1306 C1300 0.930 . S
H1307 C1301 0.930 . S
C1308 N1309 1.314 . S
C1308 C1310 1.353 . S
C1308 H1314 0.930 . S
N1309 Li1259 1.990 . S
N1309 C1308 1.314 . S
N1309 C1312 1.279 . S
C1310 C1308 1.353 . S
C1310 C1313 1.348 . S
C1310 H1342 0.929 . S
C1311 C1312 1.358 . S
C1311 C1313 1.356 . S
C1311 H1343 0.930 . S
C1312 N1309 1.279 . S
C1312 C1311 1.358 . S
C1312 H1315 0.930 . S
C1313 C1310 1.348 . S
C1313 C1311 1.356 . S
H1314 C1308 0.930 . S
H1315 C1312 0.930 . S
O1316 Li1256 1.956 . S
O1316 Li1257 1.970 1_565 S
O1316 Li1258 1.961 . S
O1316 C1260 1.325 . S
O1317 Li1256 1.970 1_545 S
O1317 Li1257 1.956 . S
O1317 Li1259 1.961 . S
O1317 C1266 1.325 . S
O1318 Li1256 1.961 . S
O1318 Li1258 1.956 . S
O1318 Li1259 1.970 1_565 S
O1318 C1288 1.325 . S
O1319 Li1257 1.961 . S
O1319 Li1258 1.970 1_545 S
O1319 Li1259 1.956 . S
O1319 C1294 1.325 . S
H1320 C1262 0.929 . S
H1321 C1263 0.930 . S
H1322 C1264 0.930 . S
H1323 C1265 0.930 . S
H1324 C1267 0.930 . S
H1325 C1269 0.929 . S
H1326 C1270 0.930 . S
H1327 C1271 0.930 . S
H1328 C1274 0.930 . S
H1329 C1277 0.929 . S
H1330 C1282 0.929 . S
H1331 C1283 0.930 . S
H1332 C1290 0.929 . S
H1333 C1291 0.930 . S
H1334 C1292 0.930 . S
H1335 C1293 0.930 . S
H1336 C1295 0.929 . S
H1337 C1296 0.930 . S
H1338 C1297 0.930 . S
H1339 C1298 0.930 . S
H1340 C1302 0.929 . S
H1341 C1304 0.930 . S
H1342 C1310 0.929 . S
H1343 C1311 0.930 . S
Li1344 N1361 1.990 . S
Li1344 O1404 1.956 . S
Li1344 O1405 1.987 . S
Li1344 O1406 1.961 . S
Li1345 N1369 1.991 1_455 S
Li1345 O1404 1.969 . S
Li1345 O1405 1.956 . S
Li1345 O1407 1.962 1_455 S
Li1346 N1391 1.990 . S
Li1346 O1404 1.961 . S
Li1346 O1406 1.956 . S
Li1346 O1407 1.970 1_455 S
Li1347 N1397 1.990 . S
Li1347 O1405 1.948 1_655 S
Li1347 O1406 1.970 1_655 S
Li1347 O1407 1.956 . S
C1348 C1350 1.348 . S
C1348 C1351 1.356 . S
C1348 O1404 1.325 . S
N1349 C1352 1.314 . S
N1349 C1353 1.279 . S
C1350 C1348 1.348 . S
C1350 C1352 1.353 . S
C1350 H1408 0.929 . S
C1351 C1348 1.356 . S
C1351 C1353 1.358 . S
C1351 H1409 0.930 . S
C1352 N1349 1.314 . S
C1352 C1350 1.353 . S
C1352 H1410 0.930 . S
C1353 N1349 1.279 . S
C1353 C1351 1.358 . S
C1353 H1411 0.930 . S
C1354 C1357 1.348 1_655 S
C1354 C1358 1.356 . S
C1354 O1405 1.322 1_655 S
C1355 N1356 1.279 . S
C1355 C1358 1.358 . S
C1355 H1412 0.930 . S
N1356 C1355 1.279 . S
N1356 C1359 1.314 1_655 S
C1357 C1354 1.348 1_455 S
C1357 C1359 1.353 . S
C1357 H1413 0.929 . S
C1358 C1354 1.356 . S
C1358 C1355 1.358 . S
C1358 H1414 0.930 . S
C1359 N1356 1.314 1_455 S
C1359 C1357 1.353 . S
C1359 H1415 0.930 . S
C1360 N1361 1.314 . S
C1360 C1365 1.353 . S
C1360 H1366 0.930 . S
N1361 Li1344 1.990 . S
N1361 C1360 1.314 . S
N1361 C1363 1.279 . S
C1362 C1363 1.358 . S
C1362 C1364 1.356 . S
C1362 H1416 0.930 . S
C1363 N1361 1.279 . S
C1363 C1362 1.358 . S
C1363 H1367 0.930 . S
C1364 C1362 1.356 . S
C1364 C1365 1.348 . S
C1365 C1360 1.353 . S
C1365 C1364 1.348 . S
C1365 H1417 0.929 . S
H1366 C1360 0.930 . S
H1367 C1363 0.930 . S
C1368 N1369 1.314 . S
C1368 C1370 1.353 . S
C1368 H1374 0.930 . S
N1369 Li1345 1.991 1_655 S
N1369 C1368 1.314 . S
N1369 C1372 1.279 . S
C1370 C1368 1.353 . S
C1370 C1373 1.348 . S
C1370 H1418 0.929 . S
C1371 C1372 1.358 . S
C1371 C1373 1.356 . S
C1371 H1419 0.930 . S
C1372 N1369 1.279 . S
C1372 C1371 1.358 . S
C1372 H1375 0.929 1_655 S
C1373 C1370 1.348 . S
C1373 C1371 1.356 . S
H1374 C1368 0.930 . S
H1375 C1372 0.929 1_455 S
C1376 C1378 1.348 1_455 S
C1376 C1379 1.356 . S
C1376 O1406 1.325 . S
N1377 C1380 1.314 1_455 S
N1377 C1381 1.279 . S
C1378 C1376 1.348 1_655 S
C1378 C1380 1.353 . S
C1378 H1420 0.929 . S
C1379 C1376 1.356 . S
C1379 C1381 1.358 . S
C1379 H1421 0.930 . S
C1380 N1377 1.314 1_655 S
C1380 C1378 1.353 . S
C1380 H1422 0.930 . S
C1381 N1377 1.279 . S
C1381 C1379 1.358 . S
C1381 H1423 0.930 . S
C1382 C1383 1.348 . S
C1382 C1384 1.356 . S
C1382 O1407 1.325 . S
C1383 C1382 1.348 . S
C1383 C1385 1.353 . S
C1383 H1424 0.929 . S
C1384 C1382 1.356 . S
C1384 C1386 1.358 . S
C1384 H1425 0.930 . S
C1385 C1383 1.353 . S
C1385 N1387 1.314 . S
C1385 H1426 0.930 . S
C1386 C1384 1.358 . S
C1386 N1387 1.279 . S
C1386 H1427 0.930 . S
N1387 C1385 1.314 . S
N1387 C1386 1.279 . S
C1388 C1390 1.353 . S
C1388 N1391 1.314 . S
C1388 H1394 0.930 . S
C1389 N1391 1.279 . S
C1389 C1392 1.358 . S
C1389 H1395 0.930 . S
C1390 C1388 1.353 . S
C1390 C1393 1.348 . S
C1390 H1428 0.929 . S
N1391 Li1346 1.990 . S
N1391 C1388 1.314 . S
N1391 C1389 1.279 . S
C1392 C1389 1.358 . S
C1392 C1393 1.356 . S
C1392 H1429 0.930 . S
C1393 C1390 1.348 . S
C1393 C1392 1.356 . S
H1394 C1388 0.930 . S
H1395 C1389 0.930 . S
C1396 N1397 1.314 . S
C1396 C1398 1.353 . S
C1396 H1402 0.930 . S
N1397 Li1347 1.990 . S
N1397 C1396 1.314 . S
N1397 C1400 1.279 . S
C1398 C1396 1.353 . S
C1398 C1401 1.348 . S
C1398 H1430 0.929 . S
C1399 C1400 1.358 . S
C1399 C1401 1.356 . S
C1399 H1431 0.930 . S
C1400 N1397 1.279 . S
C1400 C1399 1.358 . S
C1400 H1403 0.930 . S
C1401 C1398 1.348 . S
C1401 C1399 1.356 . S
H1402 C1396 0.930 . S
H1403 C1400 0.930 . S
O1404 Li1344 1.956 . S
O1404 Li1345 1.969 . S
O1404 Li1346 1.961 . S
O1404 C1348 1.325 . S
O1405 Li1344 1.987 . S
O1405 Li1345 1.956 . S
O1405 Li1347 1.948 1_455 S
O1405 C1354 1.322 1_455 S
O1406 Li1344 1.961 . S
O1406 Li1346 1.956 . S
O1406 Li1347 1.970 1_455 S
O1406 C1376 1.325 . S
O1407 Li1345 1.962 1_655 S
O1407 Li1346 1.970 1_655 S
O1407 Li1347 1.956 . S
O1407 C1382 1.325 . S
H1408 C1350 0.929 . S
H1409 C1351 0.930 . S
H1410 C1352 0.930 . S
H1411 C1353 0.930 . S
H1412 C1355 0.930 . S
H1413 C1357 0.929 . S
H1414 C1358 0.930 . S
H1415 C1359 0.930 . S
H1416 C1362 0.930 . S
H1417 C1365 0.929 . S
H1418 C1370 0.929 . S
H1419 C1371 0.930 . S
H1420 C1378 0.929 . S
H1421 C1379 0.930 . S
H1422 C1380 0.930 . S
H1423 C1381 0.930 . S
H1424 C1383 0.929 . S
H1425 C1384 0.930 . S
H1426 C1385 0.930 . S
H1427 C1386 0.930 . S
H1428 C1390 0.929 . S
H1429 C1392 0.930 . S
H1430 C1398 0.929 . S
H1431 C1399 0.930 . S
Li1432 N1449 1.990 . S
Li1432 O1492 1.956 . S
Li1432 O1493 1.970 . S
Li1432 O1494 1.961 . S
Li1433 N1457 1.990 . S
Li1433 O1492 1.970 . S
Li1433 O1493 1.956 . S
Li1433 O1495 1.961 . S
Li1434 N1479 1.990 . S
Li1434 O1492 1.961 . S
Li1434 O1494 1.956 . S
Li1434 O1495 1.970 . S
Li1435 N1485 1.990 . S
Li1435 O1493 1.961 . S
Li1435 O1494 1.970 . S
Li1435 O1495 1.956 . S
C1436 C1438 1.348 . S
C1436 C1439 1.356 . S
C1436 O1492 1.325 . S
N1437 C1440 1.314 . S
N1437 C1441 1.279 . S
C1438 C1436 1.348 . S
C1438 C1440 1.353 . S
C1438 H1496 0.929 . S
C1439 C1436 1.356 . S
C1439 C1441 1.358 . S
C1439 H1497 0.930 . S
C1440 N1437 1.314 . S
C1440 C1438 1.353 . S
C1440 H1498 0.930 . S
C1441 N1437 1.279 . S
C1441 C1439 1.358 . S
C1441 H1499 0.930 . S
C1442 C1445 1.348 . S
C1442 C1446 1.356 . S
C1442 O1493 1.325 . S
C1443 N1444 1.279 . S
C1443 C1446 1.358 . S
C1443 H1500 0.930 . S
N1444 C1443 1.279 . S
N1444 C1447 1.314 . S
C1445 C1442 1.348 . S
C1445 C1447 1.353 . S
C1445 H1501 0.929 . S
C1446 C1442 1.356 . S
C1446 C1443 1.358 . S
C1446 H1502 0.930 . S
C1447 N1444 1.314 . S
C1447 C1445 1.353 . S
C1447 H1503 0.930 . S
C1448 N1449 1.314 . S
C1448 C1453 1.353 . S
C1448 H1454 0.930 . S
N1449 Li1432 1.990 . S
N1449 C1448 1.314 . S
N1449 C1451 1.279 . S
C1450 C1451 1.358 . S
C1450 C1452 1.356 . S
C1450 H1504 0.930 . S
C1451 N1449 1.279 . S
C1451 C1450 1.358 . S
C1451 H1455 0.930 . S
C1452 C1450 1.356 . S
C1452 C1453 1.348 . S
C1453 C1448 1.353 . S
C1453 C1452 1.348 . S
C1453 H1505 0.929 . S
H1454 C1448 0.930 . S
H1455 C1451 0.930 . S
C1456 N1457 1.314 . S
C1456 C1458 1.353 . S
C1456 H1462 0.930 . S
N1457 Li1433 1.990 . S
N1457 C1456 1.314 . S
N1457 C1460 1.279 . S
C1458 C1456 1.353 . S
C1458 C1461 1.348 . S
C1458 H1506 0.929 . S
C1459 C1460 1.358 . S
C1459 C1461 1.356 . S
C1459 H1507 0.930 . S
C1460 N1457 1.279 . S
C1460 C1459 1.358 . S
C1460 H1463 0.930 . S
C1461 C1458 1.348 . S
C1461 C1459 1.356 . S
H1462 C1456 0.930 . S
H1463 C1460 0.930 . S
C1464 C1466 1.348 . S
C1464 C1467 1.356 . S
C1464 O1494 1.325 . S
N1465 C1468 1.314 . S
N1465 C1469 1.279 . S
C1466 C1464 1.348 . S
C1466 C1468 1.353 . S
C1466 H1508 0.929 . S
C1467 C1464 1.356 . S
C1467 C1469 1.358 . S
C1467 H1509 0.930 . S
C1468 N1465 1.314 . S
C1468 C1466 1.353 . S
C1468 H1510 0.930 . S
C1469 N1465 1.279 . S
C1469 C1467 1.358 . S
C1469 H1511 0.930 . S
C1470 C1471 1.348 . S
C1470 C1472 1.356 . S
C1470 O1495 1.325 . S
C1471 C1470 1.348 . S
C1471 C1473 1.353 . S
C1471 H1512 0.929 . S
C1472 C1470 1.356 . S
C1472 C1474 1.358 . S
C1472 H1513 0.930 . S
C1473 C1471 1.353 . S
C1473 N1475 1.314 . S
C1473 H1514 0.930 . S
C1474 C1472 1.358 . S
C1474 N1475 1.279 . S
C1474 H1515 0.930 . S
N1475 C1473 1.314 . S
N1475 C1474 1.279 . S
C1476 C1478 1.353 . S
C1476 N1479 1.314 . S
C1476 H1482 0.930 . S
C1477 N1479 1.279 . S
C1477 C1480 1.358 . S
C1477 H1483 0.930 . S
C1478 C1476 1.353 . S
C1478 C1481 1.348 . S
C1478 H1516 0.929 . S
N1479 Li1434 1.990 . S
N1479 C1476 1.314 . S
N1479 C1477 1.279 . S
C1480 C1477 1.358 . S
C1480 C1481 1.356 . S
C1480 H1517 0.930 . S
C1481 C1478 1.348 . S
C1481 C1480 1.356 . S
H1482 C1476 0.930 . S
H1483 C1477 0.930 . S
C1484 N1485 1.314 . S
C1484 C1486 1.353 . S
C1484 H1490 0.930 . S
N1485 Li1435 1.990 . S
N1485 C1484 1.314 . S
N1485 C1488 1.279 . S
C1486 C1484 1.353 . S
C1486 C1489 1.348 . S
C1486 H1518 0.929 . S
C1487 C1488 1.358 . S
C1487 C1489 1.356 . S
C1487 H1519 0.930 . S
C1488 N1485 1.279 . S
C1488 C1487 1.358 . S
C1488 H1491 0.930 . S
C1489 C1486 1.348 . S
C1489 C1487 1.356 . S
H1490 C1484 0.930 . S
H1491 C1488 0.930 . S
O1492 Li1432 1.956 . S
O1492 Li1433 1.970 . S
O1492 Li1434 1.961 . S
O1492 C1436 1.325 . S
O1493 Li1432 1.970 . S
O1493 Li1433 1.956 . S
O1493 Li1435 1.961 . S
O1493 C1442 1.325 . S
O1494 Li1432 1.961 . S
O1494 Li1434 1.956 . S
O1494 Li1435 1.970 . S
O1494 C1464 1.325 . S
O1495 Li1433 1.961 . S
O1495 Li1434 1.970 . S
O1495 Li1435 1.956 . S
O1495 C1470 1.325 . S
H1496 C1438 0.929 . S
H1497 C1439 0.930 . S
H1498 C1440 0.930 . S
H1499 C1441 0.930 . S
H1500 C1443 0.930 . S
H1501 C1445 0.929 . S
H1502 C1446 0.930 . S
H1503 C1447 0.930 . S
H1504 C1450 0.930 . S
H1505 C1453 0.929 . S
H1506 C1458 0.929 . S
H1507 C1459 0.930 . S
H1508 C1466 0.929 . S
H1509 C1467 0.930 . S
H1510 C1468 0.930 . S
H1511 C1469 0.930 . S
H1512 C1471 0.929 . S
H1513 C1472 0.930 . S
H1514 C1473 0.930 . S
H1515 C1474 0.930 . S
H1516 C1478 0.929 . S
H1517 C1480 0.930 . S
H1518 C1486 0.929 . S
H1519 C1487 0.930 . S
Li1520 N1537 1.990 . S
Li1520 O1580 1.956 . S
Li1520 O1581 1.970 1_455 S
Li1520 O1582 1.961 . S
Li1521 N1545 1.990 . S
Li1521 O1580 1.970 1_655 S
Li1521 O1581 1.956 . S
Li1521 O1583 1.949 1_655 S
Li1522 N1567 1.990 . S
Li1522 O1580 1.961 . S
Li1522 O1582 1.956 . S
Li1522 O1583 1.987 . S
Li1523 N1573 1.991 1_455 S
Li1523 O1581 1.962 1_455 S
Li1523 O1582 1.969 . S
Li1523 O1583 1.956 . S
C1524 C1526 1.348 1_455 S
C1524 C1527 1.356 . S
C1524 O1580 1.325 . S
N1525 C1528 1.314 1_455 S
N1525 C1529 1.279 . S
C1526 C1524 1.348 1_655 S
C1526 C1528 1.353 . S
C1526 H1584 0.929 . S
C1527 C1524 1.356 . S
C1527 C1529 1.358 . S
C1527 H1585 0.930 . S
C1528 N1525 1.314 1_655 S
C1528 C1526 1.353 . S
C1528 H1586 0.930 . S
C1529 N1525 1.279 . S
C1529 C1527 1.358 . S
C1529 H1587 0.930 . S
C1530 C1533 1.348 . S
C1530 C1534 1.356 . S
C1530 O1581 1.325 . S
C1531 N1532 1.279 . S
C1531 C1534 1.358 . S
C1531 H1588 0.930 . S
N1532 C1531 1.279 . S
N1532 C1535 1.314 . S
C1533 C1530 1.348 . S
C1533 C1535 1.353 . S
C1533 H1589 0.929 . S
C1534 C1530 1.356 . S
C1534 C1531 1.358 . S
C1534 H1590 0.930 . S
C1535 N1532 1.314 . S
C1535 C1533 1.353 . S
C1535 H1591 0.930 . S
C1536 N1537 1.314 . S
C1536 C1541 1.353 . S
C1536 H1542 0.930 . S
N1537 Li1520 1.990 . S
N1537 C1536 1.314 . S
N1537 C1539 1.279 . S
C1538 C1539 1.358 . S
C1538 C1540 1.356 . S
C1538 H1592 0.930 . S
C1539 N1537 1.279 . S
C1539 C1538 1.358 . S
C1539 H1543 0.930 . S
C1540 C1538 1.356 . S
C1540 C1541 1.348 . S
C1541 C1536 1.353 . S
C1541 C1540 1.348 . S
C1541 H1593 0.929 . S
H1542 C1536 0.930 . S
H1543 C1539 0.930 . S
C1544 N1545 1.314 . S
C1544 C1546 1.353 . S
C1544 H1550 0.930 . S
N1545 Li1521 1.990 . S
N1545 C1544 1.314 . S
N1545 C1548 1.279 . S
C1546 C1544 1.353 . S
C1546 C1549 1.348 . S
C1546 H1594 0.929 . S
C1547 C1548 1.358 . S
C1547 C1549 1.356 . S
C1547 H1595 0.930 . S
C1548 N1545 1.279 . S
C1548 C1547 1.358 . S
C1548 H1551 0.930 . S
C1549 C1546 1.348 . S
C1549 C1547 1.356 . S
H1550 C1544 0.930 . S
H1551 C1548 0.930 . S
C1552 C1554 1.348 . S
C1552 C1555 1.356 . S
C1552 O1582 1.325 . S
N1553 C1556 1.314 . S
N1553 C1557 1.279 . S
C1554 C1552 1.348 . S
C1554 C1556 1.353 . S
C1554 H1596 0.929 . S
C1555 C1552 1.356 . S
C1555 C1557 1.358 . S
C1555 H1597 0.930 . S
C1556 N1553 1.314 . S
C1556 C1554 1.353 . S
C1556 H1598 0.930 . S
C1557 N1553 1.279 . S
C1557 C1555 1.358 . S
C1557 H1599 0.930 . S
C1558 C1559 1.348 1_655 S
C1558 C1560 1.356 . S
C1558 O1583 1.322 1_655 S
C1559 C1558 1.348 1_455 S
C1559 C1561 1.353 . S
C1559 H1600 0.929 . S
C1560 C1558 1.356 . S
C1560 C1562 1.358 . S
C1560 H1601 0.930 . S
C1561 C1559 1.353 . S
C1561 N1563 1.314 1_455 S
C1561 H1602 0.930 . S
C1562 C1560 1.358 . S
C1562 N1563 1.279 . S
C1562 H1603 0.930 . S
N1563 C1561 1.314 1_655 S
N1563 C1562 1.279 . S
C1564 C1566 1.353 . S
C1564 N1567 1.314 . S
C1564 H1570 0.930 . S
C1565 N1567 1.279 . S
C1565 C1568 1.358 . S
C1565 H1571 0.930 . S
C1566 C1564 1.353 . S
C1566 C1569 1.348 . S
C1566 H1604 0.929 . S
N1567 Li1522 1.990 . S
N1567 C1564 1.314 . S
N1567 C1565 1.279 . S
C1568 C1565 1.358 . S
C1568 C1569 1.356 . S
C1568 H1605 0.930 . S
C1569 C1566 1.348 . S
C1569 C1568 1.356 . S
H1570 C1564 0.930 . S
H1571 C1565 0.930 . S
C1572 N1573 1.314 . S
C1572 C1574 1.353 . S
C1572 H1578 0.930 . S
N1573 Li1523 1.991 1_655 S
N1573 C1572 1.314 . S
N1573 C1576 1.279 . S
C1574 C1572 1.353 . S
C1574 C1577 1.348 . S
C1574 H1606 0.929 . S
C1575 C1576 1.358 . S
C1575 C1577 1.356 . S
C1575 H1607 0.930 . S
C1576 N1573 1.279 . S
C1576 C1575 1.358 . S
C1576 H1579 0.929 1_655 S
C1577 C1574 1.348 . S
C1577 C1575 1.356 . S
H1578 C1572 0.930 . S
H1579 C1576 0.929 1_455 S
O1580 Li1520 1.956 . S
O1580 Li1521 1.970 1_455 S
O1580 Li1522 1.961 . S
O1580 C1524 1.325 . S
O1581 Li1520 1.970 1_655 S
O1581 Li1521 1.956 . S
O1581 Li1523 1.962 1_655 S
O1581 C1530 1.325 . S
O1582 Li1520 1.961 . S
O1582 Li1522 1.956 . S
O1582 Li1523 1.969 . S
O1582 C1552 1.325 . S
O1583 Li1521 1.949 1_455 S
O1583 Li1522 1.987 . S
O1583 Li1523 1.956 . S
O1583 C1558 1.322 1_455 S
H1584 C1526 0.929 . S
H1585 C1527 0.930 . S
H1586 C1528 0.930 . S
H1587 C1529 0.930 . S
H1588 C1531 0.930 . S
H1589 C1533 0.929 . S
H1590 C1534 0.930 . S
H1591 C1535 0.930 . S
H1592 C1538 0.930 . S
H1593 C1541 0.929 . S
H1594 C1546 0.929 . S
H1595 C1547 0.930 . S
H1596 C1554 0.929 . S
H1597 C1555 0.930 . S
H1598 C1556 0.930 . S
H1599 C1557 0.930 . S
H1600 C1559 0.929 . S
H1601 C1560 0.930 . S
H1602 C1561 0.930 . S
H1603 C1562 0.930 . S
H1604 C1566 0.929 . S
H1605 C1568 0.930 . S
H1606 C1574 0.929 . S
H1607 C1575 0.930 . S
Li1608 N1625 1.990 . S
Li1608 O1668 1.956 . S
Li1608 O1669 1.970 . S
Li1608 O1670 1.961 . S
Li1609 N1633 1.990 . S
Li1609 O1668 1.970 . S
Li1609 O1669 1.956 . S
Li1609 O1671 1.961 . S
Li1610 N1655 1.990 . S
Li1610 O1668 1.961 . S
Li1610 O1670 1.956 . S
Li1610 O1671 1.970 . S
Li1611 N1661 1.990 . S
Li1611 O1669 1.961 . S
Li1611 O1670 1.970 . S
Li1611 O1671 1.956 . S
C1612 C1614 1.348 . S
C1612 C1615 1.356 . S
C1612 O1668 1.325 . S
N1613 C1616 1.314 . S
N1613 C1617 1.279 . S
C1614 C1612 1.348 . S
C1614 C1616 1.353 . S
C1614 H1672 0.929 . S
C1615 C1612 1.356 . S
C1615 C1617 1.358 . S
C1615 H1673 0.930 . S
C1616 N1613 1.314 . S
C1616 C1614 1.353 . S
C1616 H1674 0.930 . S
C1617 N1613 1.279 . S
C1617 C1615 1.358 . S
C1617 H1675 0.930 . S
C1618 C1621 1.348 . S
C1618 C1622 1.356 . S
C1618 O1669 1.325 . S
C1619 N1620 1.279 . S
C1619 C1622 1.358 . S
C1619 H1676 0.930 . S
N1620 C1619 1.279 . S
N1620 C1623 1.314 . S
C1621 C1618 1.348 . S
C1621 C1623 1.353 . S
C1621 H1677 0.929 . S
C1622 C1618 1.356 . S
C1622 C1619 1.358 . S
C1622 H1678 0.930 . S
C1623 N1620 1.314 . S
C1623 C1621 1.353 . S
C1623 H1679 0.930 . S
C1624 N1625 1.314 . S
C1624 C1629 1.353 . S
C1624 H1630 0.930 . S
N1625 Li1608 1.990 . S
N1625 C1624 1.314 . S
N1625 C1627 1.279 . S
C1626 C1627 1.358 . S
C1626 C1628 1.356 . S
C1626 H1680 0.930 . S
C1627 N1625 1.279 . S
C1627 C1626 1.358 . S
C1627 H1631 0.930 . S
C1628 C1626 1.356 . S
C1628 C1629 1.348 . S
C1629 C1624 1.353 . S
C1629 C1628 1.348 . S
C1629 H1681 0.929 . S
H1630 C1624 0.930 . S
H1631 C1627 0.930 . S
C1632 N1633 1.314 . S
C1632 C1634 1.353 . S
C1632 H1638 0.930 . S
N1633 Li1609 1.990 . S
N1633 C1632 1.314 . S
N1633 C1636 1.279 . S
C1634 C1632 1.353 . S
C1634 C1637 1.348 . S
C1634 H1682 0.929 . S
C1635 C1636 1.358 . S
C1635 C1637 1.356 . S
C1635 H1683 0.930 . S
C1636 N1633 1.279 . S
C1636 C1635 1.358 . S
C1636 H1639 0.930 . S
C1637 C1634 1.348 . S
C1637 C1635 1.356 . S
H1638 C1632 0.930 . S
H1639 C1636 0.930 . S
C1640 C1642 1.348 . S
C1640 C1643 1.356 . S
C1640 O1670 1.325 . S
N1641 C1644 1.314 . S
N1641 C1645 1.279 . S
C1642 C1640 1.348 . S
C1642 C1644 1.353 . S
C1642 H1684 0.929 . S
C1643 C1640 1.356 . S
C1643 C1645 1.358 . S
C1643 H1685 0.930 . S
C1644 N1641 1.314 . S
C1644 C1642 1.353 . S
C1644 H1686 0.930 . S
C1645 N1641 1.279 . S
C1645 C1643 1.358 . S
C1645 H1687 0.930 . S
C1646 C1647 1.348 . S
C1646 C1648 1.356 . S
C1646 O1671 1.325 . S
C1647 C1646 1.348 . S
C1647 C1649 1.353 . S
C1647 H1688 0.929 . S
C1648 C1646 1.356 . S
C1648 C1650 1.358 . S
C1648 H1689 0.930 . S
C1649 C1647 1.353 . S
C1649 N1651 1.314 . S
C1649 H1690 0.930 . S
C1650 C1648 1.358 . S
C1650 N1651 1.279 . S
C1650 H1691 0.930 . S
N1651 C1649 1.314 . S
N1651 C1650 1.279 . S
C1652 C1654 1.353 . S
C1652 N1655 1.314 . S
C1652 H1658 0.930 . S
C1653 N1655 1.279 . S
C1653 C1656 1.358 . S
C1653 H1659 0.930 . S
C1654 C1652 1.353 . S
C1654 C1657 1.348 . S
C1654 H1692 0.929 . S
N1655 Li1610 1.990 . S
N1655 C1652 1.314 . S
N1655 C1653 1.279 . S
C1656 C1653 1.358 . S
C1656 C1657 1.356 . S
C1656 H1693 0.930 . S
C1657 C1654 1.348 . S
C1657 C1656 1.356 . S
H1658 C1652 0.930 . S
H1659 C1653 0.930 . S
C1660 N1661 1.314 . S
C1660 C1662 1.353 . S
C1660 H1666 0.930 . S
N1661 Li1611 1.990 . S
N1661 C1660 1.314 . S
N1661 C1664 1.279 . S
C1662 C1660 1.353 . S
C1662 C1665 1.348 . S
C1662 H1694 0.929 . S
C1663 C1664 1.358 . S
C1663 C1665 1.356 . S
C1663 H1695 0.930 . S
C1664 N1661 1.279 . S
C1664 C1663 1.358 . S
C1664 H1667 0.930 . S
C1665 C1662 1.348 . S
C1665 C1663 1.356 . S
H1666 C1660 0.930 . S
H1667 C1664 0.930 . S
O1668 Li1608 1.956 . S
O1668 Li1609 1.970 . S
O1668 Li1610 1.961 . S
O1668 C1612 1.325 . S
O1669 Li1608 1.970 . S
O1669 Li1609 1.956 . S
O1669 Li1611 1.961 . S
O1669 C1618 1.325 . S
O1670 Li1608 1.961 . S
O1670 Li1610 1.956 . S
O1670 Li1611 1.970 . S
O1670 C1640 1.325 . S
O1671 Li1609 1.961 . S
O1671 Li1610 1.970 . S
O1671 Li1611 1.956 . S
O1671 C1646 1.325 . S
H1672 C1614 0.929 . S
H1673 C1615 0.930 . S
H1674 C1616 0.930 . S
H1675 C1617 0.930 . S
H1676 C1619 0.930 . S
H1677 C1621 0.929 . S
H1678 C1622 0.930 . S
H1679 C1623 0.930 . S
H1680 C1626 0.930 . S
H1681 C1629 0.929 . S
H1682 C1634 0.929 . S
H1683 C1635 0.930 . S
H1684 C1642 0.929 . S
H1685 C1643 0.930 . S
H1686 C1644 0.930 . S
H1687 C1645 0.930 . S
H1688 C1647 0.929 . S
H1689 C1648 0.930 . S
H1690 C1649 0.930 . S
H1691 C1650 0.930 . S
H1692 C1654 0.929 . S
H1693 C1656 0.930 . S
H1694 C1662 0.929 . S
H1695 C1663 0.930 . S
C1696 C1697 1.391 . S
C1696 C1698 1.394 . S
C1696 H1712 0.931 . S
C1697 C1696 1.391 . S
C1697 C1701 1.376 . S
C1698 C1696 1.394 . S
C1698 C1699 1.369 . S
C1698 C1702 1.531 . S
C1699 C1698 1.369 . S
C1699 C1700 1.410 . S
C1699 C1707 1.503 . S
C1700 C1699 1.410 . S
C1700 C1701 1.392 . S
C1700 C1703 1.511 . S
C1701 C1697 1.376 . S
C1701 C1700 1.392 . S
C1701 H1713 0.929 . S
C1702 C1698 1.531 . S
C1702 H1714 0.960 . S
C1702 H1715 0.962 . S
C1702 H1716 0.960 . S
C1703 C1700 1.511 . S
C1703 H1717 0.961 . S
C1703 H1718 0.961 . S
C1703 H1719 0.961 . S
C1704 C1705 1.370 . S
C1704 C1706 1.363 . S
C1704 H1720 0.931 . S
C1705 C1704 1.370 . S
C1705 C1709 1.408 . S
C1706 C1704 1.363 . S
C1706 C1707 1.370 . S
C1706 C1710 1.524 . S
C1707 C1699 1.503 . S
C1707 C1706 1.370 . S
C1707 C1708 1.403 . S
C1708 C1707 1.403 . S
C1708 C1709 1.404 . S
C1708 C1711 1.539 . S
C1709 C1705 1.408 . S
C1709 C1708 1.404 . S
C1709 H1721 0.930 . S
C1710 C1706 1.524 . S
C1710 H1722 0.956 . S
C1710 H1723 0.961 . S
C1710 H1724 0.961 . S
C1711 C1708 1.539 . S
C1711 H1725 0.958 . S
C1711 H1726 0.961 . S
C1711 H1727 0.960 . S
H1712 C1696 0.931 . S
H1713 C1701 0.929 . S
H1714 C1702 0.960 . S
H1715 C1702 0.962 . S
H1716 C1702 0.960 . S
H1717 C1703 0.961 . S
H1718 C1703 0.961 . S
H1719 C1703 0.961 . S
H1720 C1704 0.931 . S
H1721 C1709 0.930 . S
H1722 C1710 0.956 . S
H1723 C1710 0.961 . S
H1724 C1710 0.961 . S
H1725 C1711 0.958 . S
H1726 C1711 0.961 . S
H1727 C1711 0.960 . S
C1728 C1729 1.391 . S
C1728 C1730 1.394 . S
C1728 H1744 0.931 . S
C1729 C1728 1.391 . S
C1729 C1733 1.376 . S
C1730 C1728 1.394 . S
C1730 C1731 1.369 . S
C1730 C1734 1.531 . S
C1731 C1730 1.369 . S
C1731 C1732 1.410 . S
C1731 C1739 1.503 . S
C1732 C1731 1.410 . S
C1732 C1733 1.392 . S
C1732 C1735 1.511 . S
C1733 C1729 1.376 . S
C1733 C1732 1.392 . S
C1733 H1745 0.929 . S
C1734 C1730 1.531 . S
C1734 H1746 0.960 . S
C1734 H1747 0.962 . S
C1734 H1748 0.960 . S
C1735 C1732 1.511 . S
C1735 H1749 0.961 . S
C1735 H1750 0.961 . S
C1735 H1751 0.961 . S
C1736 C1737 1.370 . S
C1736 C1738 1.363 . S
C1736 H1752 0.931 . S
C1737 C1736 1.370 . S
C1737 C1741 1.408 . S
C1738 C1736 1.363 . S
C1738 C1739 1.370 . S
C1738 C1742 1.524 . S
C1739 C1731 1.503 . S
C1739 C1738 1.370 . S
C1739 C1740 1.403 . S
C1740 C1739 1.403 . S
C1740 C1741 1.404 . S
C1740 C1743 1.539 . S
C1741 C1737 1.408 . S
C1741 C1740 1.404 . S
C1741 H1753 0.930 . S
C1742 C1738 1.524 . S
C1742 H1754 0.956 . S
C1742 H1755 0.961 . S
C1742 H1756 0.961 . S
C1743 C1740 1.539 . S
C1743 H1757 0.958 . S
C1743 H1758 0.961 . S
C1743 H1759 0.960 . S
H1744 C1728 0.931 . S
H1745 C1733 0.929 . S
H1746 C1734 0.960 . S
H1747 C1734 0.962 . S
H1748 C1734 0.960 . S
H1749 C1735 0.961 . S
H1750 C1735 0.961 . S
H1751 C1735 0.961 . S
H1752 C1736 0.931 . S
H1753 C1741 0.930 . S
H1754 C1742 0.956 . S
H1755 C1742 0.961 . S
H1756 C1742 0.961 . S
H1757 C1743 0.958 . S
H1758 C1743 0.961 . S
H1759 C1743 0.960 . S
C1760 C1761 1.391 . S
C1760 C1762 1.394 . S
C1760 H1776 0.931 . S
C1761 C1760 1.391 . S
C1761 C1765 1.376 . S
C1762 C1760 1.394 . S
C1762 C1763 1.369 . S
C1762 C1766 1.531 . S
C1763 C1762 1.369 . S
C1763 C1764 1.410 . S
C1763 C1771 1.503 . S
C1764 C1763 1.410 . S
C1764 C1765 1.392 . S
C1764 C1767 1.511 . S
C1765 C1761 1.376 . S
C1765 C1764 1.392 . S
C1765 H1777 0.929 . S
C1766 C1762 1.531 . S
C1766 H1778 0.960 . S
C1766 H1779 0.962 . S
C1766 H1780 0.960 . S
C1767 C1764 1.511 . S
C1767 H1781 0.961 . S
C1767 H1782 0.961 . S
C1767 H1783 0.961 . S
C1768 C1769 1.370 . S
C1768 C1770 1.363 . S
C1768 H1784 0.931 . S
C1769 C1768 1.370 . S
C1769 C1773 1.408 . S
C1770 C1768 1.363 . S
C1770 C1771 1.370 . S
C1770 C1774 1.524 . S
C1771 C1763 1.503 . S
C1771 C1770 1.370 . S
C1771 C1772 1.403 . S
C1772 C1771 1.403 . S
C1772 C1773 1.404 . S
C1772 C1775 1.539 . S
C1773 C1769 1.408 . S
C1773 C1772 1.404 . S
C1773 H1785 0.930 . S
C1774 C1770 1.524 . S
C1774 H1786 0.956 . S
C1774 H1787 0.961 . S
C1774 H1788 0.961 . S
C1775 C1772 1.539 . S
C1775 H1789 0.958 . S
C1775 H1790 0.961 . S
C1775 H1791 0.960 . S
H1776 C1760 0.931 . S
H1777 C1765 0.929 . S
H1778 C1766 0.960 . S
H1779 C1766 0.962 . S
H1780 C1766 0.960 . S
H1781 C1767 0.961 . S
H1782 C1767 0.961 . S
H1783 C1767 0.961 . S
H1784 C1768 0.931 . S
H1785 C1773 0.930 . S
H1786 C1774 0.956 . S
H1787 C1774 0.961 . S
H1788 C1774 0.961 . S
H1789 C1775 0.958 . S
H1790 C1775 0.961 . S
H1791 C1775 0.960 . S
C1792 C1793 1.391 . S
C1792 C1794 1.394 . S
C1792 H1808 0.931 . S
C1793 C1792 1.391 . S
C1793 C1797 1.376 . S
C1794 C1792 1.394 . S
C1794 C1795 1.369 . S
C1794 C1798 1.531 . S
C1795 C1794 1.369 . S
C1795 C1796 1.410 . S
C1795 C1803 1.503 . S
C1796 C1795 1.410 . S
C1796 C1797 1.392 . S
C1796 C1799 1.511 1_565 S
C1797 C1793 1.376 . S
C1797 C1796 1.392 . S
C1797 H1809 0.929 1_565 S
C1798 C1794 1.531 . S
C1798 H1810 0.960 . S
C1798 H1811 0.962 . S
C1798 H1812 0.960 . S
C1799 C1796 1.511 1_545 S
C1799 H1813 0.961 . S
C1799 H1814 0.961 . S
C1799 H1815 0.961 . S
C1800 C1801 1.370 . S
C1800 C1802 1.363 . S
C1800 H1816 0.931 1_565 S
C1801 C1800 1.370 . S
C1801 C1805 1.408 . S
C1802 C1800 1.363 . S
C1802 C1803 1.370 . S
C1802 C1806 1.524 1_565 S
C1803 C1795 1.503 . S
C1803 C1802 1.370 . S
C1803 C1804 1.403 . S
C1804 C1803 1.403 . S
C1804 C1805 1.404 . S
C1804 C1807 1.539 . S
C1805 C1801 1.408 . S
C1805 C1804 1.404 . S
C1805 H1817 0.930 . S
C1806 C1802 1.524 1_545 S
C1806 H1818 0.956 1_545 S
C1806 H1819 0.961 . S
C1806 H1820 0.961 . S
C1807 C1804 1.539 . S
C1807 H1821 0.958 . S
C1807 H1822 0.961 . S
C1807 H1823 0.960 . S
H1808 C1792 0.931 . S
H1809 C1797 0.929 1_545 S
H1810 C1798 0.960 . S
H1811 C1798 0.962 . S
H1812 C1798 0.960 . S
H1813 C1799 0.961 . S
H1814 C1799 0.961 . S
H1815 C1799 0.961 . S
H1816 C1800 0.931 1_545 S
H1817 C1805 0.930 . S
H1818 C1806 0.956 1_565 S
H1819 C1806 0.961 . S
H1820 C1806 0.961 . S
H1821 C1807 0.958 . S
H1822 C1807 0.961 . S
H1823 C1807 0.960 . S
C1824 C1825 1.391 . S
C1824 C1826 1.394 . S
C1824 H1840 0.931 . S
C1825 C1824 1.391 . S
C1825 C1829 1.376 . S
C1826 C1824 1.394 . S
C1826 C1827 1.369 . S
C1826 C1830 1.531 . S
C1827 C1826 1.369 . S
C1827 C1828 1.410 . S
C1827 C1835 1.503 . S
C1828 C1827 1.410 . S
C1828 C1829 1.392 . S
C1828 C1831 1.511 . S
C1829 C1825 1.376 . S
C1829 C1828 1.392 . S
C1829 H1841 0.929 . S
C1830 C1826 1.531 . S
C1830 H1842 0.960 . S
C1830 H1843 0.962 . S
C1830 H1844 0.960 . S
C1831 C1828 1.511 . S
C1831 H1845 0.961 . S
C1831 H1846 0.961 . S
C1831 H1847 0.961 . S
C1832 C1833 1.370 . S
C1832 C1834 1.363 . S
C1832 H1848 0.931 . S
C1833 C1832 1.370 . S
C1833 C1837 1.408 . S
C1834 C1832 1.363 . S
C1834 C1835 1.370 . S
C1834 C1838 1.524 . S
C1835 C1827 1.503 . S
C1835 C1834 1.370 . S
C1835 C1836 1.403 . S
C1836 C1835 1.403 . S
C1836 C1837 1.404 . S
C1836 C1839 1.539 . S
C1837 C1833 1.408 . S
C1837 C1836 1.404 . S
C1837 H1849 0.930 . S
C1838 C1834 1.524 . S
C1838 H1850 0.956 . S
C1838 H1851 0.961 . S
C1838 H1852 0.961 . S
C1839 C1836 1.539 . S
C1839 H1853 0.958 . S
C1839 H1854 0.961 . S
C1839 H1855 0.960 . S
H1840 C1824 0.931 . S
H1841 C1829 0.929 . S
H1842 C1830 0.960 . S
H1843 C1830 0.962 . S
H1844 C1830 0.960 . S
H1845 C1831 0.961 . S
H1846 C1831 0.961 . S
H1847 C1831 0.961 . S
H1848 C1832 0.931 . S
H1849 C1837 0.930 . S
H1850 C1838 0.956 . S
H1851 C1838 0.961 . S
H1852 C1838 0.961 . S
H1853 C1839 0.958 . S
H1854 C1839 0.961 . S
H1855 C1839 0.960 . S
C1856 C1857 1.391 . S
C1856 C1858 1.394 . S
C1856 H1872 0.931 . S
C1857 C1856 1.391 . S
C1857 C1861 1.376 . S
C1858 C1856 1.394 . S
C1858 C1859 1.369 . S
C1858 C1862 1.531 . S
C1859 C1858 1.369 . S
C1859 C1860 1.410 . S
C1859 C1867 1.503 . S
C1860 C1859 1.410 . S
C1860 C1861 1.392 . S
C1860 C1863 1.511 . S
C1861 C1857 1.376 . S
C1861 C1860 1.392 . S
C1861 H1873 0.929 . S
C1862 C1858 1.531 . S
C1862 H1874 0.960 . S
C1862 H1875 0.962 . S
C1862 H1876 0.960 . S
C1863 C1860 1.511 . S
C1863 H1877 0.961 . S
C1863 H1878 0.961 . S
C1863 H1879 0.961 . S
C1864 C1865 1.370 . S
C1864 C1866 1.363 . S
C1864 H1880 0.931 . S
C1865 C1864 1.370 . S
C1865 C1869 1.408 . S
C1866 C1864 1.363 . S
C1866 C1867 1.370 . S
C1866 C1870 1.524 . S
C1867 C1859 1.503 . S
C1867 C1866 1.370 . S
C1867 C1868 1.403 . S
C1868 C1867 1.403 . S
C1868 C1869 1.404 . S
C1868 C1871 1.539 . S
C1869 C1865 1.408 . S
C1869 C1868 1.404 . S
C1869 H1881 0.930 . S
C1870 C1866 1.524 . S
C1870 H1882 0.956 . S
C1870 H1883 0.961 . S
C1870 H1884 0.961 . S
C1871 C1868 1.539 . S
C1871 H1885 0.958 . S
C1871 H1886 0.961 . S
C1871 H1887 0.960 . S
H1872 C1856 0.931 . S
H1873 C1861 0.929 . S
H1874 C1862 0.960 . S
H1875 C1862 0.962 . S
H1876 C1862 0.960 . S
H1877 C1863 0.961 . S
H1878 C1863 0.961 . S
H1879 C1863 0.961 . S
H1880 C1864 0.931 . S
H1881 C1869 0.930 . S
H1882 C1870 0.956 . S
H1883 C1870 0.961 . S
H1884 C1870 0.961 . S
H1885 C1871 0.958 . S
H1886 C1871 0.961 . S
H1887 C1871 0.960 . S
C1888 C1889 1.391 . S
C1888 C1890 1.394 . S
C1888 H1904 0.931 . S
C1889 C1888 1.391 . S
C1889 C1893 1.376 . S
C1890 C1888 1.394 . S
C1890 C1891 1.369 . S
C1890 C1894 1.531 . S
C1891 C1890 1.369 . S
C1891 C1892 1.410 . S
C1891 C1899 1.503 . S
C1892 C1891 1.410 . S
C1892 C1893 1.392 . S
C1892 C1895 1.511 . S
C1893 C1889 1.376 . S
C1893 C1892 1.392 . S
C1893 H1905 0.929 . S
C1894 C1890 1.531 . S
C1894 H1906 0.960 . S
C1894 H1907 0.962 . S
C1894 H1908 0.960 . S
C1895 C1892 1.511 . S
C1895 H1909 0.961 . S
C1895 H1910 0.961 . S
C1895 H1911 0.961 . S
C1896 C1897 1.370 . S
C1896 C1898 1.363 . S
C1896 H1912 0.931 . S
C1897 C1896 1.370 . S
C1897 C1901 1.408 . S
C1898 C1896 1.363 . S
C1898 C1899 1.370 . S
C1898 C1902 1.524 . S
C1899 C1891 1.503 . S
C1899 C1898 1.370 . S
C1899 C1900 1.403 . S
C1900 C1899 1.403 . S
C1900 C1901 1.404 . S
C1900 C1903 1.539 . S
C1901 C1897 1.408 . S
C1901 C1900 1.404 . S
C1901 H1913 0.930 . S
C1902 C1898 1.524 . S
C1902 H1914 0.956 . S
C1902 H1915 0.961 . S
C1902 H1916 0.961 . S
C1903 C1900 1.539 . S
C1903 H1917 0.958 . S
C1903 H1918 0.961 . S
C1903 H1919 0.960 . S
H1904 C1888 0.931 . S
H1905 C1893 0.929 . S
H1906 C1894 0.960 . S
H1907 C1894 0.962 . S
H1908 C1894 0.960 . S
H1909 C1895 0.961 . S
H1910 C1895 0.961 . S
H1911 C1895 0.961 . S
H1912 C1896 0.931 . S
H1913 C1901 0.930 . S
H1914 C1902 0.956 . S
H1915 C1902 0.961 . S
H1916 C1902 0.961 . S
H1917 C1903 0.958 . S
H1918 C1903 0.961 . S
H1919 C1903 0.960 . S
C1920 C1921 1.391 . S
C1920 C1922 1.394 . S
C1920 H1936 0.931 . S
C1921 C1920 1.391 . S
C1921 C1925 1.376 . S
C1922 C1920 1.394 . S
C1922 C1923 1.369 . S
C1922 C1926 1.531 . S
C1923 C1922 1.369 . S
C1923 C1924 1.410 . S
C1923 C1931 1.503 . S
C1924 C1923 1.410 . S
C1924 C1925 1.392 . S
C1924 C1927 1.511 . S
C1925 C1921 1.376 . S
C1925 C1924 1.392 . S
C1925 H1937 0.929 . S
C1926 C1922 1.531 . S
C1926 H1938 0.960 . S
C1926 H1939 0.962 . S
C1926 H1940 0.960 . S
C1927 C1924 1.511 . S
C1927 H1941 0.961 1_565 S
C1927 H1942 0.961 1_565 S
C1927 H1943 0.961 . S
C1928 C1929 1.387 . S
C1928 C1930 1.366 . S
C1928 H1944 0.911 1_565 S
C1929 C1928 1.387 . S
C1929 C1933 1.408 . S
C1930 C1928 1.366 . S
C1930 C1931 1.370 . S
C1930 C1934 1.524 1_565 S
C1931 C1923 1.503 . S
C1931 C1930 1.370 . S
C1931 C1932 1.403 . S
C1932 C1931 1.403 . S
C1932 C1933 1.404 . S
C1932 C1935 1.539 . S
C1933 C1929 1.408 . S
C1933 C1932 1.404 . S
C1933 H1945 0.930 . S
C1934 C1930 1.524 1_545 S
C1934 H1946 0.956 . S
C1934 H1947 0.961 . S
C1934 H1948 0.961 . S
C1935 C1932 1.539 . S
C1935 H1949 0.958 . S
C1935 H1950 0.961 . S
C1935 H1951 0.960 . S
H1936 C1920 0.931 . S
H1937 C1925 0.929 . S
H1938 C1926 0.960 . S
H1939 C1926 0.962 . S
H1940 C1926 0.960 . S
H1941 C1927 0.961 1_545 S
H1942 C1927 0.961 1_545 S
H1943 C1927 0.961 . S
H1944 C1928 0.911 1_545 S
H1945 C1933 0.930 . S
H1946 C1934 0.956 . S
H1947 C1934 0.961 . S
H1948 C1934 0.961 . S
H1949 C1935 0.958 . S
H1950 C1935 0.961 . S
H1951 C1935 0.960 . S
C1952 C1953 1.391 . S
C1952 C1954 1.394 . S
C1952 H1968 0.931 . S
C1953 C1952 1.391 . S
C1953 C1957 1.376 . S
C1954 C1952 1.394 . S
C1954 C1955 1.369 . S
C1954 C1958 1.531 . S
C1955 C1954 1.369 . S
C1955 C1956 1.410 . S
C1955 C1963 1.503 . S
C1956 C1955 1.410 . S
C1956 C1957 1.392 . S
C1956 C1959 1.511 . S
C1957 C1953 1.376 . S
C1957 C1956 1.392 . S
C1957 H1969 0.929 . S
C1958 C1954 1.531 . S
C1958 H1970 0.960 . S
C1958 H1971 0.962 . S
C1958 H1972 0.960 . S
C1959 C1956 1.511 . S
C1959 H1973 0.961 . S
C1959 H1974 0.961 . S
C1959 H1975 0.961 . S
C1960 C1961 1.370 . S
C1960 C1962 1.363 . S
C1960 H1976 0.931 . S
C1961 C1960 1.370 . S
C1961 C1965 1.408 . S
C1962 C1960 1.363 . S
C1962 C1963 1.370 . S
C1962 C1966 1.524 . S
C1963 C1955 1.503 . S
C1963 C1962 1.370 . S
C1963 C1964 1.403 . S
C1964 C1963 1.403 . S
C1964 C1965 1.404 . S
C1964 C1967 1.539 . S
C1965 C1961 1.408 . S
C1965 C1964 1.404 . S
C1965 H1977 0.930 . S
C1966 C1962 1.524 . S
C1966 H1978 0.956 . S
C1966 H1979 0.961 . S
C1966 H1980 0.961 . S
C1967 C1964 1.539 . S
C1967 H1981 0.958 . S
C1967 H1982 0.961 . S
C1967 H1983 0.960 . S
H1968 C1952 0.931 . S
H1969 C1957 0.929 . S
H1970 C1958 0.960 . S
H1971 C1958 0.962 . S
H1972 C1958 0.960 . S
H1973 C1959 0.961 . S
H1974 C1959 0.961 . S
H1975 C1959 0.961 . S
H1976 C1960 0.931 . S
H1977 C1965 0.930 . S
H1978 C1966 0.956 . S
H1979 C1966 0.961 . S
H1980 C1966 0.961 . S
H1981 C1967 0.958 . S
H1982 C1967 0.961 . S
H1983 C1967 0.960 . S
C1984 C1985 1.391 . S
C1984 C1986 1.394 . S
C1984 H2000 0.931 . S
C1985 C1984 1.391 . S
C1985 C1989 1.376 . S
C1986 C1984 1.394 . S
C1986 C1987 1.369 . S
C1986 C1990 1.531 . S
C1987 C1986 1.369 . S
C1987 C1988 1.410 . S
C1987 C1995 1.503 . S
C1988 C1987 1.410 . S
C1988 C1989 1.392 . S
C1988 C1991 1.511 . S
C1989 C1985 1.376 . S
C1989 C1988 1.392 . S
C1989 H2001 0.929 . S
C1990 C1986 1.531 . S
C1990 H2002 0.960 . S
C1990 H2003 0.962 . S
C1990 H2004 0.960 . S
C1991 C1988 1.511 . S
C1991 H2005 0.961 . S
C1991 H2006 0.961 . S
C1991 H2007 0.961 . S
C1992 C1993 1.370 . S
C1992 C1994 1.363 . S
C1992 H2008 0.931 . S
C1993 C1992 1.370 . S
C1993 C1997 1.408 . S
C1994 C1992 1.363 . S
C1994 C1995 1.370 . S
C1994 C1998 1.524 . S
C1995 C1987 1.503 . S
C1995 C1994 1.370 . S
C1995 C1996 1.403 . S
C1996 C1995 1.403 . S
C1996 C1997 1.404 . S
C1996 C1999 1.539 . S
C1997 C1993 1.408 . S
C1997 C1996 1.404 . S
C1997 H2009 0.930 . S
C1998 C1994 1.524 . S
C1998 H2010 0.956 . S
C1998 H2011 0.961 . S
C1998 H2012 0.961 . S
C1999 C1996 1.539 . S
C1999 H2013 0.958 . S
C1999 H2014 0.961 . S
C1999 H2015 0.960 . S
H2000 C1984 0.931 . S
H2001 C1989 0.929 . S
H2002 C1990 0.960 . S
H2003 C1990 0.962 . S
H2004 C1990 0.960 . S
H2005 C1991 0.961 . S
H2006 C1991 0.961 . S
H2007 C1991 0.961 . S
H2008 C1992 0.931 . S
H2009 C1997 0.930 . S
H2010 C1998 0.956 . S
H2011 C1998 0.961 . S
H2012 C1998 0.961 . S
H2013 C1999 0.958 . S
H2014 C1999 0.961 . S
H2015 C1999 0.960 . S
C2016 C2017 1.391 . S
C2016 C2018 1.394 . S
C2016 H2032 0.931 . S
C2017 C2016 1.391 . S
C2017 C2021 1.376 . S
C2018 C2016 1.394 . S
C2018 C2019 1.369 . S
C2018 C2022 1.531 . S
C2019 C2018 1.369 . S
C2019 C2020 1.410 . S
C2019 C2027 1.503 . S
C2020 C2019 1.410 . S
C2020 C2021 1.392 . S
C2020 C2023 1.511 . S
C2021 C2017 1.376 . S
C2021 C2020 1.392 . S
C2021 H2033 0.929 . S
C2022 C2018 1.531 . S
C2022 H2034 0.960 . S
C2022 H2035 0.962 . S
C2022 H2036 0.960 . S
C2023 C2020 1.511 . S
C2023 H2037 0.961 . S
C2023 H2038 0.961 . S
C2023 H2039 0.961 . S
C2024 C2025 1.370 . S
C2024 C2026 1.363 . S
C2024 H2040 0.931 . S
C2025 C2024 1.370 . S
C2025 C2029 1.408 . S
C2026 C2024 1.363 . S
C2026 C2027 1.370 . S
C2026 C2030 1.524 . S
C2027 C2019 1.503 . S
C2027 C2026 1.370 . S
C2027 C2028 1.403 . S
C2028 C2027 1.403 . S
C2028 C2029 1.404 . S
C2028 C2031 1.539 . S
C2029 C2025 1.408 . S
C2029 C2028 1.404 . S
C2029 H2041 0.930 . S
C2030 C2026 1.524 . S
C2030 H2042 0.956 . S
C2030 H2043 0.961 . S
C2030 H2044 0.961 . S
C2031 C2028 1.539 . S
C2031 H2045 0.958 . S
C2031 H2046 0.961 . S
C2031 H2047 0.960 . S
H2032 C2016 0.931 . S
H2033 C2021 0.929 . S
H2034 C2022 0.960 . S
H2035 C2022 0.962 . S
H2036 C2022 0.960 . S
H2037 C2023 0.961 . S
H2038 C2023 0.961 . S
H2039 C2023 0.961 . S
H2040 C2024 0.931 . S
H2041 C2029 0.930 . S
H2042 C2030 0.956 . S
H2043 C2030 0.961 . S
H2044 C2030 0.961 . S
H2045 C2031 0.958 . S
H2046 C2031 0.961 . S
H2047 C2031 0.960 . S
C2048 C2049 1.391 . S
C2048 C2050 1.394 . S
C2048 H2064 0.931 . S
C2049 C2048 1.391 . S
C2049 C2053 1.376 . S
C2050 C2048 1.394 . S
C2050 C2051 1.369 . S
C2050 C2054 1.531 . S
C2051 C2050 1.369 . S
C2051 C2052 1.410 . S
C2051 C2059 1.503 . S
C2052 C2051 1.410 . S
C2052 C2053 1.392 . S
C2052 C2055 1.511 . S
C2053 C2049 1.376 . S
C2053 C2052 1.392 . S
C2053 H2065 0.929 . S
C2054 C2050 1.531 . S
C2054 H2066 0.960 . S
C2054 H2067 0.962 . S
C2054 H2068 0.960 . S
C2055 C2052 1.511 . S
C2055 H2069 0.961 . S
C2055 H2070 0.961 . S
C2055 H2071 0.961 . S
C2056 C2057 1.370 . S
C2056 C2058 1.363 . S
C2056 H2072 0.931 . S
C2057 C2056 1.370 . S
C2057 C2061 1.408 . S
C2058 C2056 1.363 . S
C2058 C2059 1.370 . S
C2058 C2062 1.524 . S
C2059 C2051 1.503 . S
C2059 C2058 1.370 . S
C2059 C2060 1.403 . S
C2060 C2059 1.403 . S
C2060 C2061 1.404 . S
C2060 C2063 1.539 . S
C2061 C2057 1.408 . S
C2061 C2060 1.404 . S
C2061 H2073 0.930 . S
C2062 C2058 1.524 . S
C2062 H2074 0.956 . S
C2062 H2075 0.961 . S
C2062 H2076 0.961 . S
C2063 C2060 1.539 . S
C2063 H2077 0.958 . S
C2063 H2078 0.961 . S
C2063 H2079 0.960 . S
H2064 C2048 0.931 . S
H2065 C2053 0.929 . S
H2066 C2054 0.960 . S
H2067 C2054 0.962 . S
H2068 C2054 0.960 . S
H2069 C2055 0.961 . S
H2070 C2055 0.961 . S
H2071 C2055 0.961 . S
H2072 C2056 0.931 . S
H2073 C2061 0.930 . S
H2074 C2062 0.956 . S
H2075 C2062 0.961 . S
H2076 C2062 0.961 . S
H2077 C2063 0.958 . S
H2078 C2063 0.961 . S
H2079 C2063 0.960 . S
C2080 C2081 1.391 . S
C2080 C2082 1.394 . S
C2080 H2096 0.931 . S
C2081 C2080 1.391 . S
C2081 C2085 1.376 . S
C2082 C2080 1.394 . S
C2082 C2083 1.369 . S
C2082 C2086 1.531 . S
C2083 C2082 1.369 . S
C2083 C2084 1.410 . S
C2083 C2091 1.503 . S
C2084 C2083 1.410 . S
C2084 C2085 1.392 . S
C2084 C2087 1.511 . S
C2085 C2081 1.376 . S
C2085 C2084 1.392 . S
C2085 H2097 0.929 . S
C2086 C2082 1.531 . S
C2086 H2098 0.960 . S
C2086 H2099 0.962 . S
C2086 H2100 0.960 . S
C2087 C2084 1.511 . S
C2087 H2101 0.961 . S
C2087 H2102 0.961 . S
C2087 H2103 0.961 . S
C2088 C2089 1.370 . S
C2088 C2090 1.363 . S
C2088 H2104 0.931 . S
C2089 C2088 1.370 . S
C2089 C2093 1.408 . S
C2090 C2088 1.363 . S
C2090 C2091 1.370 . S
C2090 C2094 1.524 . S
C2091 C2083 1.503 . S
C2091 C2090 1.370 . S
C2091 C2092 1.403 . S
C2092 C2091 1.403 . S
C2092 C2093 1.404 . S
C2092 C2095 1.539 . S
C2093 C2089 1.408 . S
C2093 C2092 1.404 . S
C2093 H2105 0.930 . S
C2094 C2090 1.524 . S
C2094 H2106 0.956 . S
C2094 H2107 0.961 . S
C2094 H2108 0.961 . S
C2095 C2092 1.539 . S
C2095 H2109 0.958 . S
C2095 H2110 0.961 . S
C2095 H2111 0.960 . S
H2096 C2080 0.931 . S
H2097 C2085 0.929 . S
H2098 C2086 0.960 . S
H2099 C2086 0.962 . S
H2100 C2086 0.960 . S
H2101 C2087 0.961 . S
H2102 C2087 0.961 . S
H2103 C2087 0.961 . S
H2104 C2088 0.931 . S
H2105 C2093 0.930 . S
H2106 C2094 0.956 . S
H2107 C2094 0.961 . S
H2108 C2094 0.961 . S
H2109 C2095 0.958 . S
H2110 C2095 0.961 . S
H2111 C2095 0.960 . S
C2112 C2113 1.391 . S
C2112 C2114 1.394 . S
C2112 H2128 0.931 . S
C2113 C2112 1.391 . S
C2113 C2117 1.376 . S
C2114 C2112 1.394 . S
C2114 C2115 1.369 . S
C2114 C2118 1.531 1_455 S
C2115 C2114 1.369 . S
C2115 C2116 1.410 . S
C2115 C2123 1.503 . S
C2116 C2115 1.410 . S
C2116 C2117 1.392 . S
C2116 C2119 1.511 . S
C2117 C2113 1.376 . S
C2117 C2116 1.392 . S
C2117 H2129 0.929 . S
C2118 C2114 1.531 1_655 S
C2118 H2130 0.960 1_655 S
C2118 H2131 0.962 . S
C2118 H2132 0.960 . S
C2119 C2116 1.511 . S
C2119 H2133 0.961 . S
C2119 H2134 0.961 . S
C2119 H2135 0.961 . S
C2120 C2121 1.370 . S
C2120 C2122 1.363 . S
C2120 H2136 0.931 1_455 S
C2121 C2120 1.370 . S
C2121 C2125 1.408 . S
C2122 C2120 1.363 . S
C2122 C2123 1.370 . S
C2122 C2126 1.495 1_455 S
C2123 C2115 1.503 . S
C2123 C2122 1.370 . S
C2123 C2124 1.403 . S
C2124 C2123 1.403 . S
C2124 C2125 1.404 . S
C2124 C2127 1.539 . S
C2125 C2121 1.408 . S
C2125 C2124 1.404 . S
C2125 H2137 0.930 . S
C2126 C2122 1.495 1_655 S
C2126 H2138 0.997 . S
C2126 H2139 0.922 1_655 S
C2126 H2140 0.992 . S
C2127 C2124 1.539 . S
C2127 H2141 0.958 . S
C2127 H2142 0.961 . S
C2127 H2143 0.960 . S
H2128 C2112 0.931 . S
H2129 C2117 0.929 . S
H2130 C2118 0.960 1_455 S
H2131 C2118 0.962 . S
H2132 C2118 0.960 . S
H2133 C2119 0.961 . S
H2134 C2119 0.961 . S
H2135 C2119 0.961 . S
H2136 C2120 0.931 1_655 S
H2137 C2125 0.930 . S
H2138 C2126 0.997 . S
H2139 C2126 0.922 1_455 S
H2140 C2126 0.992 . S
H2141 C2127 0.958 . S
H2142 C2127 0.961 . S
H2143 C2127 0.960 . S
C2144 C2145 1.391 . S
C2144 C2146 1.394 . S
C2144 H2160 0.931 . S
C2145 C2144 1.391 . S
C2145 C2149 1.376 . S
C2146 C2144 1.394 . S
C2146 C2147 1.369 . S
C2146 C2150 1.531 . S
C2147 C2146 1.369 . S
C2147 C2148 1.410 . S
C2147 C2155 1.503 . S
C2148 C2147 1.410 . S
C2148 C2149 1.392 . S
C2148 C2151 1.511 . S
C2149 C2145 1.376 . S
C2149 C2148 1.392 . S
C2149 H2161 0.929 . S
C2150 C2146 1.531 . S
C2150 H2162 0.960 . S
C2150 H2163 0.962 . S
C2150 H2164 0.960 . S
C2151 C2148 1.511 . S
C2151 H2165 0.961 . S
C2151 H2166 0.961 . S
C2151 H2167 0.961 . S
C2152 C2153 1.370 . S
C2152 C2154 1.363 . S
C2152 H2168 0.931 . S
C2153 C2152 1.370 . S
C2153 C2157 1.408 . S
C2154 C2152 1.363 . S
C2154 C2155 1.370 . S
C2154 C2158 1.524 . S
C2155 C2147 1.503 . S
C2155 C2154 1.370 . S
C2155 C2156 1.403 . S
C2156 C2155 1.403 . S
C2156 C2157 1.404 . S
C2156 C2159 1.539 . S
C2157 C2153 1.408 . S
C2157 C2156 1.404 . S
C2157 H2169 0.930 . S
C2158 C2154 1.524 . S
C2158 H2170 0.956 . S
C2158 H2171 0.961 . S
C2158 H2172 0.961 . S
C2159 C2156 1.539 . S
C2159 H2173 0.958 . S
C2159 H2174 0.961 . S
C2159 H2175 0.960 . S
H2160 C2144 0.931 . S
H2161 C2149 0.929 . S
H2162 C2150 0.960 . S
H2163 C2150 0.962 . S
H2164 C2150 0.960 . S
H2165 C2151 0.961 . S
H2166 C2151 0.961 . S
H2167 C2151 0.961 . S
H2168 C2152 0.931 . S
H2169 C2157 0.930 . S
H2170 C2158 0.956 . S
H2171 C2158 0.961 . S
H2172 C2158 0.961 . S
H2173 C2159 0.958 . S
H2174 C2159 0.961 . S
H2175 C2159 0.960 . S
C2176 C2177 1.391 . S
C2176 C2178 1.394 . S
C2176 H2192 0.931 . S
C2177 C2176 1.391 . S
C2177 C2181 1.310 1_655 S
C2178 C2176 1.394 . S
C2178 C2179 1.369 . S
C2178 C2182 1.531 . S
C2179 C2178 1.369 . S
C2179 C2180 1.410 1_655 S
C2179 C2187 1.503 . S
C2180 C2179 1.410 1_455 S
C2180 C2181 1.401 . S
C2180 C2183 1.511 . S
C2181 C2177 1.310 1_455 S
C2181 C2180 1.401 . S
C2181 H2193 0.991 . S
C2182 C2178 1.531 . S
C2182 H2194 0.960 . S
C2182 H2195 0.962 . S
C2182 H2196 0.960 . S
C2183 C2180 1.511 . S
C2183 H2197 0.961 . S
C2183 H2198 0.961 . S
C2183 H2199 0.961 . S
C2184 C2185 1.370 . S
C2184 C2186 1.363 . S
C2184 H2200 0.931 . S
C2185 C2184 1.370 . S
C2185 C2189 1.408 . S
C2186 C2184 1.363 . S
C2186 C2187 1.370 . S
C2186 C2190 1.524 . S
C2187 C2179 1.503 . S
C2187 C2186 1.370 . S
C2187 C2188 1.403 . S
C2188 C2187 1.403 . S
C2188 C2189 1.404 . S
C2188 C2191 1.539 . S
C2189 C2185 1.408 . S
C2189 C2188 1.404 . S
C2189 H2201 0.930 . S
C2190 C2186 1.524 . S
C2190 H2202 0.956 . S
C2190 H2203 0.961 . S
C2190 H2204 0.961 . S
C2191 C2188 1.539 . S
C2191 H2205 0.958 . S
C2191 H2206 0.961 . S
C2191 H2207 0.960 . S
H2192 C2176 0.931 . S
H2193 C2181 0.991 . S
H2194 C2182 0.960 . S
H2195 C2182 0.962 . S
H2196 C2182 0.960 . S
H2197 C2183 0.961 . S
H2198 C2183 0.961 . S
H2199 C2183 0.961 . S
H2200 C2184 0.931 . S
H2201 C2189 0.930 . S
H2202 C2190 0.956 . S
H2203 C2190 0.961 . S
H2204 C2190 0.961 . S
H2205 C2191 0.958 . S
H2206 C2191 0.961 . S
H2207 C2191 0.960 . S
C2208 C2209 1.391 . S
C2208 C2210 1.394 . S
C2208 H2224 0.931 . S
C2209 C2208 1.391 . S
C2209 C2213 1.376 . S
C2210 C2208 1.394 . S
C2210 C2211 1.369 . S
C2210 C2214 1.531 . S
C2211 C2210 1.369 . S
C2211 C2212 1.410 . S
C2211 C2219 1.503 . S
C2212 C2211 1.410 . S
C2212 C2213 1.392 . S
C2212 C2215 1.511 . S
C2213 C2209 1.376 . S
C2213 C2212 1.392 . S
C2213 H2225 0.929 . S
C2214 C2210 1.531 . S
C2214 H2226 0.960 . S
C2214 H2227 0.962 . S
C2214 H2228 0.960 . S
C2215 C2212 1.511 . S
C2215 H2229 0.961 . S
C2215 H2230 0.961 . S
C2215 H2231 0.961 . S
C2216 C2217 1.370 . S
C2216 C2218 1.363 . S
C2216 H2232 0.931 . S
C2217 C2216 1.370 . S
C2217 C2221 1.408 . S
C2218 C2216 1.363 . S
C2218 C2219 1.370 . S
C2218 C2222 1.524 . S
C2219 C2211 1.503 . S
C2219 C2218 1.370 . S
C2219 C2220 1.403 . S
C2220 C2219 1.403 . S
C2220 C2221 1.404 . S
C2220 C2223 1.539 . S
C2221 C2217 1.408 . S
C2221 C2220 1.404 . S
C2221 H2233 0.930 . S
C2222 C2218 1.524 . S
C2222 H2234 0.956 . S
C2222 H2235 0.961 . S
C2222 H2236 0.961 . S
C2223 C2220 1.539 . S
C2223 H2237 0.958 . S
C2223 H2238 0.961 . S
C2223 H2239 0.960 . S
H2224 C2208 0.931 . S
H2225 C2213 0.929 . S
H2226 C2214 0.960 . S
H2227 C2214 0.962 . S
H2228 C2214 0.960 . S
H2229 C2215 0.961 . S
H2230 C2215 0.961 . S
H2231 C2215 0.961 . S
H2232 C2216 0.931 . S
H2233 C2221 0.930 . S
H2234 C2222 0.956 . S
H2235 C2222 0.961 . S
H2236 C2222 0.961 . S
H2237 C2223 0.958 . S
H2238 C2223 0.961 . S
H2239 C2223 0.960 . S
C2240 C2241 1.391 . S
C2240 C2242 1.394 . S
C2240 H2256 0.931 . S
C2241 C2240 1.391 . S
C2241 C2245 1.376 . S
C2242 C2240 1.394 . S
C2242 C2243 1.369 . S
C2242 C2246 1.531 . S
C2243 C2242 1.369 . S
C2243 C2244 1.410 . S
C2243 C2251 1.503 . S
C2244 C2243 1.410 . S
C2244 C2245 1.392 . S
C2244 C2247 1.511 . S
C2245 C2241 1.376 . S
C2245 C2244 1.392 . S
C2245 H2257 0.929 . S
C2246 C2242 1.531 . S
C2246 H2258 0.960 . S
C2246 H2259 0.962 . S
C2246 H2260 0.960 . S
C2247 C2244 1.511 . S
C2247 H2261 0.961 . S
C2247 H2262 0.961 . S
C2247 H2263 0.961 . S
C2248 C2249 1.370 . S
C2248 C2250 1.363 . S
C2248 H2264 0.931 . S
C2249 C2248 1.370 . S
C2249 C2253 1.408 . S
C2250 C2248 1.363 . S
C2250 C2251 1.370 . S
C2250 C2254 1.524 . S
C2251 C2243 1.503 . S
C2251 C2250 1.370 . S
C2251 C2252 1.403 . S
C2252 C2251 1.403 . S
C2252 C2253 1.404 . S
C2252 C2255 1.539 . S
C2253 C2249 1.408 . S
C2253 C2252 1.404 . S
C2253 H2265 0.930 . S
C2254 C2250 1.524 . S
C2254 H2266 0.956 . S
C2254 H2267 0.961 . S
C2254 H2268 0.961 . S
C2255 C2252 1.539 . S
C2255 H2269 0.958 . S
C2255 H2270 0.961 . S
C2255 H2271 0.960 . S
H2256 C2240 0.931 . S
H2257 C2245 0.929 . S
H2258 C2246 0.960 . S
H2259 C2246 0.962 . S
H2260 C2246 0.960 . S
H2261 C2247 0.961 . S
H2262 C2247 0.961 . S
H2263 C2247 0.961 . S
H2264 C2248 0.931 . S
H2265 C2253 0.930 . S
H2266 C2254 0.956 . S
H2267 C2254 0.961 . S
H2268 C2254 0.961 . S
H2269 C2255 0.958 . S
H2270 C2255 0.961 . S
H2271 C2255 0.960 . S
C2272 C2273 1.391 . S
C2272 C2274 1.394 . S
C2272 H2288 0.931 . S
C2273 C2272 1.391 . S
C2273 C2277 1.387 . S
C2274 C2272 1.394 . S
C2274 C2275 1.369 . S
C2274 C2278 1.531 . S
C2275 C2274 1.369 . S
C2275 C2276 1.410 1_556 S
C2275 C2283 1.503 . S
C2276 C2275 1.410 1_554 S
C2276 C2277 1.390 1_554 S
C2276 C2279 1.511 . S
C2277 C2273 1.387 . S
C2277 C2276 1.390 1_556 S
C2277 H2289 0.920 1_556 S
C2278 C2274 1.531 . S
C2278 H2290 0.960 . S
C2278 H2291 0.962 . S
C2278 H2292 0.960 . S
C2279 C2276 1.511 . S
C2279 H2293 0.961 . S
C2279 H2294 0.961 . S
C2279 H2295 0.961 . S
C2280 C2281 1.370 . S
C2280 C2282 1.363 . S
C2280 H2296 0.931 . S
C2281 C2280 1.370 . S
C2281 C2285 1.411 . S
C2282 C2280 1.363 . S
C2282 C2283 1.370 . S
C2282 C2286 1.524 . S
C2283 C2275 1.503 . S
C2283 C2282 1.370 . S
C2283 C2284 1.403 . S
C2284 C2283 1.403 . S
C2284 C2285 1.405 . S
C2284 C2287 1.539 1_556 S
C2285 C2281 1.411 . S
C2285 C2284 1.405 . S
C2285 H2297 0.927 1_556 S
C2286 C2282 1.524 . S
C2286 H2298 0.956 . S
C2286 H2299 0.961 . S
C2286 H2300 0.961 . S
C2287 C2284 1.539 1_554 S
C2287 H2301 0.958 1_554 S
C2287 H2302 0.961 . S
C2287 H2303 0.960 . S
H2288 C2272 0.931 . S
H2289 C2277 0.920 1_554 S
H2290 C2278 0.960 . S
H2291 C2278 0.962 . S
H2292 C2278 0.960 . S
H2293 C2279 0.961 . S
H2294 C2279 0.961 . S
H2295 C2279 0.961 . S
H2296 C2280 0.931 . S
H2297 C2285 0.927 1_554 S
H2298 C2286 0.956 . S
H2299 C2286 0.961 . S
H2300 C2286 0.961 . S
H2301 C2287 0.958 1_556 S
H2302 C2287 0.961 . S
H2303 C2287 0.960 . S
C2304 C2305 1.391 . S
C2304 C2306 1.394 . S
C2304 H2320 0.931 . S
C2305 C2304 1.391 . S
C2305 C2309 1.376 . S
C2306 C2304 1.394 . S
C2306 C2307 1.369 . S
C2306 C2310 1.531 . S
C2307 C2306 1.369 . S
C2307 C2308 1.410 . S
C2307 C2315 1.503 . S
C2308 C2307 1.410 . S
C2308 C2309 1.392 . S
C2308 C2311 1.511 . S
C2309 C2305 1.376 . S
C2309 C2308 1.392 . S
C2309 H2321 0.929 . S
C2310 C2306 1.531 . S
C2310 H2322 0.960 . S
C2310 H2323 0.962 . S
C2310 H2324 0.960 . S
C2311 C2308 1.511 . S
C2311 H2325 0.961 . S
C2311 H2326 0.961 . S
C2311 H2327 0.961 . S
C2312 C2313 1.370 . S
C2312 C2314 1.363 . S
C2312 H2328 0.931 . S
C2313 C2312 1.370 . S
C2313 C2317 1.408 . S
C2314 C2312 1.363 . S
C2314 C2315 1.370 . S
C2314 C2318 1.524 . S
C2315 C2307 1.503 . S
C2315 C2314 1.370 . S
C2315 C2316 1.403 . S
C2316 C2315 1.403 . S
C2316 C2317 1.404 . S
C2316 C2319 1.539 . S
C2317 C2313 1.408 . S
C2317 C2316 1.404 . S
C2317 H2329 0.930 . S
C2318 C2314 1.524 . S
C2318 H2330 0.956 . S
C2318 H2331 0.961 . S
C2318 H2332 0.961 . S
C2319 C2316 1.539 . S
C2319 H2333 0.958 . S
C2319 H2334 0.961 . S
C2319 H2335 0.960 . S
H2320 C2304 0.931 . S
H2321 C2309 0.929 . S
H2322 C2310 0.960 . S
H2323 C2310 0.962 . S
H2324 C2310 0.960 . S
H2325 C2311 0.961 . S
H2326 C2311 0.961 . S
H2327 C2311 0.961 . S
H2328 C2312 0.931 . S
H2329 C2317 0.930 . S
H2330 C2318 0.956 . S
H2331 C2318 0.961 . S
H2332 C2318 0.961 . S
H2333 C2319 0.958 . S
H2334 C2319 0.961 . S
H2335 C2319 0.960 . S
C2336 C2337 1.391 . S
C2336 C2338 1.394 . S
C2336 H2352 0.931 . S
C2337 C2336 1.391 . S
C2337 C2341 1.376 . S
C2338 C2336 1.394 . S
C2338 C2339 1.369 . S
C2338 C2342 1.531 . S
C2339 C2338 1.369 . S
C2339 C2340 1.410 . S
C2339 C2347 1.503 . S
C2340 C2339 1.410 . S
C2340 C2341 1.392 . S
C2340 C2343 1.511 . S
C2341 C2337 1.376 . S
C2341 C2340 1.392 . S
C2341 H2353 0.929 . S
C2342 C2338 1.531 . S
C2342 H2354 0.960 . S
C2342 H2355 0.962 . S
C2342 H2356 0.960 . S
C2343 C2340 1.511 . S
C2343 H2357 0.961 . S
C2343 H2358 0.961 . S
C2343 H2359 0.961 . S
C2344 C2345 1.370 . S
C2344 C2346 1.363 . S
C2344 H2360 0.931 . S
C2345 C2344 1.370 . S
C2345 C2349 1.408 . S
C2346 C2344 1.363 . S
C2346 C2347 1.370 . S
C2346 C2350 1.524 . S
C2347 C2339 1.503 . S
C2347 C2346 1.370 . S
C2347 C2348 1.403 . S
C2348 C2347 1.403 . S
C2348 C2349 1.404 . S
C2348 C2351 1.539 . S
C2349 C2345 1.408 . S
C2349 C2348 1.404 . S
C2349 H2361 0.930 . S
C2350 C2346 1.524 . S
C2350 H2362 0.956 . S
C2350 H2363 0.961 . S
C2350 H2364 0.961 . S
C2351 C2348 1.539 . S
C2351 H2365 0.958 . S
C2351 H2366 0.961 . S
C2351 H2367 0.960 . S
H2352 C2336 0.931 . S
H2353 C2341 0.929 . S
H2354 C2342 0.960 . S
H2355 C2342 0.962 . S
H2356 C2342 0.960 . S
H2357 C2343 0.961 . S
H2358 C2343 0.961 . S
H2359 C2343 0.961 . S
H2360 C2344 0.931 . S
H2361 C2349 0.930 . S
H2362 C2350 0.956 . S
H2363 C2350 0.961 . S
H2364 C2350 0.961 . S
H2365 C2351 0.958 . S
H2366 C2351 0.961 . S
H2367 C2351 0.960 . S
C2368 C2369 1.391 . S
C2368 C2370 1.394 . S
C2368 H2384 0.931 . S
C2369 C2368 1.391 . S
C2369 C2373 1.376 . S
C2370 C2368 1.394 . S
C2370 C2371 1.369 . S
C2370 C2374 1.531 . S
C2371 C2370 1.369 . S
C2371 C2372 1.410 . S
C2371 C2379 1.503 . S
C2372 C2371 1.410 . S
C2372 C2373 1.392 . S
C2372 C2375 1.511 . S
C2373 C2369 1.376 . S
C2373 C2372 1.392 . S
C2373 H2385 0.929 . S
C2374 C2370 1.531 . S
C2374 H2386 0.960 . S
C2374 H2387 0.962 . S
C2374 H2388 0.960 . S
C2375 C2372 1.511 . S
C2375 H2389 0.961 . S
C2375 H2390 0.961 . S
C2375 H2391 0.961 . S
C2376 C2377 1.370 . S
C2376 C2378 1.363 . S
C2376 H2392 0.931 . S
C2377 C2376 1.370 . S
C2377 C2381 1.408 . S
C2378 C2376 1.363 . S
C2378 C2379 1.370 . S
C2378 C2382 1.524 . S
C2379 C2371 1.503 . S
C2379 C2378 1.370 . S
C2379 C2380 1.403 . S
C2380 C2379 1.403 . S
C2380 C2381 1.404 . S
C2380 C2383 1.539 . S
C2381 C2377 1.408 . S
C2381 C2380 1.404 . S
C2381 H2393 0.930 . S
C2382 C2378 1.524 . S
C2382 H2394 0.956 . S
C2382 H2395 0.961 . S
C2382 H2396 0.961 . S
C2383 C2380 1.539 . S
C2383 H2397 0.958 . S
C2383 H2398 0.961 . S
C2383 H2399 0.960 . S
H2384 C2368 0.931 . S
H2385 C2373 0.929 . S
H2386 C2374 0.960 . S
H2387 C2374 0.962 . S
H2388 C2374 0.960 . S
H2389 C2375 0.961 . S
H2390 C2375 0.961 . S
H2391 C2375 0.961 . S
H2392 C2376 0.931 . S
H2393 C2381 0.930 . S
H2394 C2382 0.956 . S
H2395 C2382 0.961 . S
H2396 C2382 0.961 . S
H2397 C2383 0.958 . S
H2398 C2383 0.961 . S
H2399 C2383 0.960 . S
C2400 C2401 1.391 . S
C2400 C2402 1.394 . S
C2400 H2416 0.931 . S
C2401 C2400 1.391 . S
C2401 C2405 1.376 . S
C2402 C2400 1.394 . S
C2402 C2403 1.369 . S
C2402 C2406 1.531 . S
C2403 C2402 1.369 . S
C2403 C2404 1.410 . S
C2403 C2411 1.503 . S
C2404 C2403 1.410 . S
C2404 C2405 1.392 . S
C2404 C2407 1.511 . S
C2405 C2401 1.376 . S
C2405 C2404 1.392 . S
C2405 H2417 0.929 . S
C2406 C2402 1.531 . S
C2406 H2418 0.960 . S
C2406 H2419 0.962 . S
C2406 H2420 0.960 . S
C2407 C2404 1.511 . S
C2407 H2421 0.961 . S
C2407 H2422 0.961 . S
C2407 H2423 0.961 . S
C2408 C2409 1.370 . S
C2408 C2410 1.363 . S
C2408 H2424 0.931 . S
C2409 C2408 1.370 . S
C2409 C2413 1.408 . S
C2410 C2408 1.363 . S
C2410 C2411 1.370 . S
C2410 C2414 1.524 . S
C2411 C2403 1.503 . S
C2411 C2410 1.370 . S
C2411 C2412 1.403 . S
C2412 C2411 1.403 . S
C2412 C2413 1.404 . S
C2412 C2415 1.539 . S
C2413 C2409 1.408 . S
C2413 C2412 1.404 . S
C2413 H2425 0.930 . S
C2414 C2410 1.524 . S
C2414 H2426 0.956 . S
C2414 H2427 0.961 . S
C2414 H2428 0.961 . S
C2415 C2412 1.539 . S
C2415 H2429 0.958 . S
C2415 H2430 0.961 . S
C2415 H2431 0.960 . S
H2416 C2400 0.931 . S
H2417 C2405 0.929 . S
H2418 C2406 0.960 . S
H2419 C2406 0.962 . S
H2420 C2406 0.960 . S
H2421 C2407 0.961 . S
H2422 C2407 0.961 . S
H2423 C2407 0.961 . S
H2424 C2408 0.931 . S
H2425 C2413 0.930 . S
H2426 C2414 0.956 . S
H2427 C2414 0.961 . S
H2428 C2414 0.961 . S
H2429 C2415 0.958 . S
H2430 C2415 0.961 . S
H2431 C2415 0.960 . S
C2432 C2433 1.391 . S
C2432 C2434 1.394 . S
C2432 H2448 0.931 . S
C2433 C2432 1.391 . S
C2433 C2437 1.376 . S
C2434 C2432 1.394 . S
C2434 C2435 1.369 . S
C2434 C2438 1.531 . S
C2435 C2434 1.369 . S
C2435 C2436 1.410 . S
C2435 C2443 1.503 . S
C2436 C2435 1.410 . S
C2436 C2437 1.392 . S
C2436 C2439 1.511 . S
C2437 C2433 1.376 . S
C2437 C2436 1.392 . S
C2437 H2449 0.929 . S
C2438 C2434 1.531 . S
C2438 H2450 0.960 . S
C2438 H2451 0.962 . S
C2438 H2452 0.960 . S
C2439 C2436 1.511 . S
C2439 H2453 0.961 . S
C2439 H2454 0.961 . S
C2439 H2455 0.961 . S
C2440 C2441 1.370 . S
C2440 C2442 1.363 . S
C2440 H2456 0.931 . S
C2441 C2440 1.370 . S
C2441 C2445 1.408 . S
C2442 C2440 1.363 . S
C2442 C2443 1.370 . S
C2442 C2446 1.524 . S
C2443 C2435 1.503 . S
C2443 C2442 1.370 . S
C2443 C2444 1.403 . S
C2444 C2443 1.403 . S
C2444 C2445 1.404 . S
C2444 C2447 1.539 . S
C2445 C2441 1.408 . S
C2445 C2444 1.404 . S
C2445 H2457 0.930 . S
C2446 C2442 1.524 . S
C2446 H2458 0.956 . S
C2446 H2459 0.961 . S
C2446 H2460 0.961 . S
C2447 C2444 1.539 . S
C2447 H2461 0.958 . S
C2447 H2462 0.961 . S
C2447 H2463 0.960 . S
H2448 C2432 0.931 . S
H2449 C2437 0.929 . S
H2450 C2438 0.960 . S
H2451 C2438 0.962 . S
H2452 C2438 0.960 . S
H2453 C2439 0.961 . S
H2454 C2439 0.961 . S
H2455 C2439 0.961 . S
H2456 C2440 0.931 . S
H2457 C2445 0.930 . S
H2458 C2446 0.956 . S
H2459 C2446 0.961 . S
H2460 C2446 0.961 . S
H2461 C2447 0.958 . S
H2462 C2447 0.961 . S
H2463 C2447 0.960 . S
C2464 C2465 1.391 . S
C2464 C2466 1.394 . S
C2464 H2480 0.931 . S
C2465 C2464 1.391 . S
C2465 C2469 1.376 . S
C2466 C2464 1.394 . S
C2466 C2467 1.369 . S
C2466 C2470 1.531 . S
C2467 C2466 1.369 . S
C2467 C2468 1.410 . S
C2467 C2475 1.503 . S
C2468 C2467 1.410 . S
C2468 C2469 1.392 . S
C2468 C2471 1.511 . S
C2469 C2465 1.376 . S
C2469 C2468 1.392 . S
C2469 H2481 0.929 . S
C2470 C2466 1.531 . S
C2470 H2482 0.960 . S
C2470 H2483 0.962 . S
C2470 H2484 0.960 . S
C2471 C2468 1.511 . S
C2471 H2485 0.961 . S
C2471 H2486 0.961 . S
C2471 H2487 0.961 . S
C2472 C2473 1.370 . S
C2472 C2474 1.363 . S
C2472 H2488 0.931 . S
C2473 C2472 1.370 . S
C2473 C2477 1.408 . S
C2474 C2472 1.363 . S
C2474 C2475 1.370 . S
C2474 C2478 1.524 . S
C2475 C2467 1.503 . S
C2475 C2474 1.370 . S
C2475 C2476 1.403 . S
C2476 C2475 1.403 . S
C2476 C2477 1.404 . S
C2476 C2479 1.539 . S
C2477 C2473 1.408 . S
C2477 C2476 1.404 . S
C2477 H2489 0.930 . S
C2478 C2474 1.524 . S
C2478 H2490 0.956 . S
C2478 H2491 0.961 . S
C2478 H2492 0.961 . S
C2479 C2476 1.539 . S
C2479 H2493 0.958 . S
C2479 H2494 0.961 . S
C2479 H2495 0.960 . S
H2480 C2464 0.931 . S
H2481 C2469 0.929 . S
H2482 C2470 0.960 . S
H2483 C2470 0.962 . S
H2484 C2470 0.960 . S
H2485 C2471 0.961 . S
H2486 C2471 0.961 . S
H2487 C2471 0.961 . S
H2488 C2472 0.931 . S
H2489 C2477 0.930 . S
H2490 C2478 0.956 . S
H2491 C2478 0.961 . S
H2492 C2478 0.961 . S
H2493 C2479 0.958 . S
H2494 C2479 0.961 . S
H2495 C2479 0.960 . S
C2496 C2497 1.391 . S
C2496 C2498 1.394 . S
C2496 H2512 0.931 . S
C2497 C2496 1.391 . S
C2497 C2501 1.376 . S
C2498 C2496 1.394 . S
C2498 C2499 1.369 . S
C2498 C2502 1.531 . S
C2499 C2498 1.369 . S
C2499 C2500 1.410 . S
C2499 C2507 1.503 . S
C2500 C2499 1.410 . S
C2500 C2501 1.392 . S
C2500 C2503 1.511 . S
C2501 C2497 1.376 . S
C2501 C2500 1.392 . S
C2501 H2513 0.929 . S
C2502 C2498 1.531 . S
C2502 H2514 0.960 . S
C2502 H2515 0.962 . S
C2502 H2516 0.960 . S
C2503 C2500 1.511 . S
C2503 H2517 0.961 . S
C2503 H2518 0.961 . S
C2503 H2519 0.961 . S
C2504 C2505 1.331 1_565 S
C2504 C2506 1.357 1_565 S
C2504 H2520 0.978 . S
C2505 C2504 1.331 1_545 S
C2505 C2509 1.408 . S
C2506 C2504 1.357 1_545 S
C2506 C2507 1.370 . S
C2506 C2510 1.524 1_545 S
C2507 C2499 1.503 . S
C2507 C2506 1.370 . S
C2507 C2508 1.403 . S
C2508 C2507 1.403 . S
C2508 C2509 1.404 . S
C2508 C2511 1.539 . S
C2509 C2505 1.408 . S
C2509 C2508 1.404 . S
C2509 H2521 0.930 . S
C2510 C2506 1.524 1_565 S
C2510 H2522 0.956 . S
C2510 H2523 0.961 . S
C2510 H2524 0.961 . S
C2511 C2508 1.539 . S
C2511 H2525 0.958 . S
C2511 H2526 0.961 . S
C2511 H2527 0.960 . S
H2512 C2496 0.931 . S
H2513 C2501 0.929 . S
H2514 C2502 0.960 . S
H2515 C2502 0.962 . S
H2516 C2502 0.960 . S
H2517 C2503 0.961 . S
H2518 C2503 0.961 . S
H2519 C2503 0.961 . S
H2520 C2504 0.978 . S
H2521 C2509 0.930 . S
H2522 C2510 0.956 . S
H2523 C2510 0.961 . S
H2524 C2510 0.961 . S
H2525 C2511 0.958 . S
H2526 C2511 0.961 . S
H2527 C2511 0.960 . S
C2528 C2529 1.391 . S
C2528 C2530 1.394 . S
C2528 H2544 0.931 . S
C2529 C2528 1.391 . S
C2529 C2533 1.376 . S
C2530 C2528 1.394 . S
C2530 C2531 1.369 . S
C2530 C2534 1.531 . S
C2531 C2530 1.369 . S
C2531 C2532 1.410 . S
C2531 C2539 1.503 . S
C2532 C2531 1.410 . S
C2532 C2533 1.392 . S
C2532 C2535 1.511 . S
C2533 C2529 1.376 . S
C2533 C2532 1.392 . S
C2533 H2545 0.929 . S
C2534 C2530 1.531 . S
C2534 H2546 0.960 . S
C2534 H2547 0.962 . S
C2534 H2548 0.960 . S
C2535 C2532 1.511 . S
C2535 H2549 0.961 . S
C2535 H2550 0.961 . S
C2535 H2551 0.961 . S
C2536 C2537 1.370 . S
C2536 C2538 1.363 . S
C2536 H2552 0.931 . S
C2537 C2536 1.370 . S
C2537 C2541 1.408 . S
C2538 C2536 1.363 . S
C2538 C2539 1.370 . S
C2538 C2542 1.524 . S
C2539 C2531 1.503 . S
C2539 C2538 1.370 . S
C2539 C2540 1.403 . S
C2540 C2539 1.403 . S
C2540 C2541 1.404 . S
C2540 C2543 1.539 . S
C2541 C2537 1.408 . S
C2541 C2540 1.404 . S
C2541 H2553 0.930 . S
C2542 C2538 1.524 . S
C2542 H2554 0.956 . S
C2542 H2555 0.961 . S
C2542 H2556 0.961 . S
C2543 C2540 1.539 . S
C2543 H2557 0.958 . S
C2543 H2558 0.961 . S
C2543 H2559 0.960 . S
H2544 C2528 0.931 . S
H2545 C2533 0.929 . S
H2546 C2534 0.960 . S
H2547 C2534 0.962 . S
H2548 C2534 0.960 . S
H2549 C2535 0.961 . S
H2550 C2535 0.961 . S
H2551 C2535 0.961 . S
H2552 C2536 0.931 . S
H2553 C2541 0.930 . S
H2554 C2542 0.956 . S
H2555 C2542 0.961 . S
H2556 C2542 0.961 . S
H2557 C2543 0.958 . S
H2558 C2543 0.961 . S
H2559 C2543 0.960 . S
C2560 C2561 1.391 . S
C2560 C2562 1.394 . S
C2560 H2576 0.931 . S
C2561 C2560 1.391 . S
C2561 C2565 1.376 . S
C2562 C2560 1.394 . S
C2562 C2563 1.369 . S
C2562 C2566 1.531 . S
C2563 C2562 1.369 . S
C2563 C2564 1.410 . S
C2563 C2571 1.503 . S
C2564 C2563 1.410 . S
C2564 C2565 1.392 . S
C2564 C2567 1.511 . S
C2565 C2561 1.376 . S
C2565 C2564 1.392 . S
C2565 H2577 0.929 . S
C2566 C2562 1.531 . S
C2566 H2578 0.960 . S
C2566 H2579 0.962 . S
C2566 H2580 0.960 . S
C2567 C2564 1.511 . S
C2567 H2581 0.961 . S
C2567 H2582 0.961 . S
C2567 H2583 0.961 . S
C2568 C2569 1.370 . S
C2568 C2570 1.363 . S
C2568 H2584 0.931 . S
C2569 C2568 1.370 . S
C2569 C2573 1.408 . S
C2570 C2568 1.363 . S
C2570 C2571 1.370 . S
C2570 C2574 1.524 . S
C2571 C2563 1.503 . S
C2571 C2570 1.370 . S
C2571 C2572 1.403 . S
C2572 C2571 1.403 . S
C2572 C2573 1.404 . S
C2572 C2575 1.539 . S
C2573 C2569 1.408 . S
C2573 C2572 1.404 . S
C2573 H2585 0.930 . S
C2574 C2570 1.524 . S
C2574 H2586 0.956 . S
C2574 H2587 0.961 . S
C2574 H2588 0.961 . S
C2575 C2572 1.539 . S
C2575 H2589 0.958 . S
C2575 H2590 0.961 . S
C2575 H2591 0.960 . S
H2576 C2560 0.931 . S
H2577 C2565 0.929 . S
H2578 C2566 0.960 . S
H2579 C2566 0.962 . S
H2580 C2566 0.960 . S
H2581 C2567 0.961 . S
H2582 C2567 0.961 . S
H2583 C2567 0.961 . S
H2584 C2568 0.931 . S
H2585 C2573 0.930 . S
H2586 C2574 0.956 . S
H2587 C2574 0.961 . S
H2588 C2574 0.961 . S
H2589 C2575 0.958 . S
H2590 C2575 0.961 . S
H2591 C2575 0.960 . S
C2592 C2593 1.391 . S
C2592 C2594 1.394 . S
C2592 H2608 0.931 . S
C2593 C2592 1.391 . S
C2593 C2597 1.376 . S
C2594 C2592 1.394 . S
C2594 C2595 1.369 . S
C2594 C2598 1.531 . S
C2595 C2594 1.369 . S
C2595 C2596 1.410 . S
C2595 C2603 1.503 . S
C2596 C2595 1.410 . S
C2596 C2597 1.392 . S
C2596 C2599 1.511 . S
C2597 C2593 1.376 . S
C2597 C2596 1.392 . S
C2597 H2609 0.929 . S
C2598 C2594 1.531 . S
C2598 H2610 0.960 . S
C2598 H2611 0.962 . S
C2598 H2612 0.960 . S
C2599 C2596 1.511 . S
C2599 H2613 0.961 . S
C2599 H2614 0.961 . S
C2599 H2615 0.961 . S
C2600 C2601 1.370 . S
C2600 C2602 1.363 . S
C2600 H2616 0.931 . S
C2601 C2600 1.370 . S
C2601 C2605 1.408 . S
C2602 C2600 1.363 . S
C2602 C2603 1.370 . S
C2602 C2606 1.524 . S
C2603 C2595 1.503 . S
C2603 C2602 1.370 . S
C2603 C2604 1.403 . S
C2604 C2603 1.403 . S
C2604 C2605 1.404 . S
C2604 C2607 1.539 . S
C2605 C2601 1.408 . S
C2605 C2604 1.404 . S
C2605 H2617 0.930 . S
C2606 C2602 1.524 . S
C2606 H2618 0.956 . S
C2606 H2619 0.961 . S
C2606 H2620 0.961 . S
C2607 C2604 1.539 . S
C2607 H2621 0.958 . S
C2607 H2622 0.961 . S
C2607 H2623 0.960 . S
H2608 C2592 0.931 . S
H2609 C2597 0.929 . S
H2610 C2598 0.960 . S
H2611 C2598 0.962 . S
H2612 C2598 0.960 . S
H2613 C2599 0.961 . S
H2614 C2599 0.961 . S
H2615 C2599 0.961 . S
H2616 C2600 0.931 . S
H2617 C2605 0.930 . S
H2618 C2606 0.956 . S
H2619 C2606 0.961 . S
H2620 C2606 0.961 . S
H2621 C2607 0.958 . S
H2622 C2607 0.961 . S
H2623 C2607 0.960 . S
C2624 C2625 1.391 . S
C2624 C2626 1.394 . S
C2624 H2640 0.931 . S
C2625 C2624 1.391 . S
C2625 C2629 1.376 . S
C2626 C2624 1.394 . S
C2626 C2627 1.369 . S
C2626 C2630 1.531 . S
C2627 C2626 1.369 . S
C2627 C2628 1.410 . S
C2627 C2635 1.503 . S
C2628 C2627 1.410 . S
C2628 C2629 1.392 . S
C2628 C2631 1.511 . S
C2629 C2625 1.376 . S
C2629 C2628 1.392 . S
C2629 H2641 0.929 . S
C2630 C2626 1.531 . S
C2630 H2642 0.960 . S
C2630 H2643 0.962 . S
C2630 H2644 0.960 . S
C2631 C2628 1.511 . S
C2631 H2645 0.961 . S
C2631 H2646 0.961 . S
C2631 H2647 0.961 . S
C2632 C2633 1.350 1_565 S
C2632 C2634 1.360 1_565 S
C2632 H2648 0.956 . S
C2633 C2632 1.350 1_545 S
C2633 C2637 1.408 . S
C2634 C2632 1.360 1_545 S
C2634 C2635 1.370 . S
C2634 C2638 1.524 1_545 S
C2635 C2627 1.503 . S
C2635 C2634 1.370 . S
C2635 C2636 1.403 . S
C2636 C2635 1.403 . S
C2636 C2637 1.404 . S
C2636 C2639 1.539 . S
C2637 C2633 1.408 . S
C2637 C2636 1.404 . S
C2637 H2649 0.930 . S
C2638 C2634 1.524 1_565 S
C2638 H2650 0.956 . S
C2638 H2651 0.961 . S
C2638 H2652 0.961 . S
C2639 C2636 1.539 . S
C2639 H2653 0.958 . S
C2639 H2654 0.961 . S
C2639 H2655 0.960 . S
H2640 C2624 0.931 . S
H2641 C2629 0.929 . S
H2642 C2630 0.960 . S
H2643 C2630 0.962 . S
H2644 C2630 0.960 . S
H2645 C2631 0.961 . S
H2646 C2631 0.961 . S
H2647 C2631 0.961 . S
H2648 C2632 0.956 . S
H2649 C2637 0.930 . S
H2650 C2638 0.956 . S
H2651 C2638 0.961 . S
H2652 C2638 0.961 . S
H2653 C2639 0.958 . S
H2654 C2639 0.961 . S
H2655 C2639 0.960 . S
C2656 C2657 1.391 . S
C2656 C2658 1.394 . S
C2656 H2672 0.931 . S
C2657 C2656 1.391 . S
C2657 C2661 1.376 . S
C2658 C2656 1.394 . S
C2658 C2659 1.369 . S
C2658 C2662 1.531 . S
C2659 C2658 1.369 . S
C2659 C2660 1.410 . S
C2659 C2667 1.503 . S
C2660 C2659 1.410 . S
C2660 C2661 1.392 . S
C2660 C2663 1.511 . S
C2661 C2657 1.376 . S
C2661 C2660 1.392 . S
C2661 H2673 0.929 . S
C2662 C2658 1.531 . S
C2662 H2674 0.960 . S
C2662 H2675 0.962 . S
C2662 H2676 0.960 . S
C2663 C2660 1.511 . S
C2663 H2677 0.961 . S
C2663 H2678 0.961 . S
C2663 H2679 0.961 . S
C2664 C2665 1.370 . S
C2664 C2666 1.363 . S
C2664 H2680 0.931 . S
C2665 C2664 1.370 . S
C2665 C2669 1.408 . S
C2666 C2664 1.363 . S
C2666 C2667 1.370 . S
C2666 C2670 1.524 . S
C2667 C2659 1.503 . S
C2667 C2666 1.370 . S
C2667 C2668 1.403 . S
C2668 C2667 1.403 . S
C2668 C2669 1.404 . S
C2668 C2671 1.539 . S
C2669 C2665 1.408 . S
C2669 C2668 1.404 . S
C2669 H2681 0.930 . S
C2670 C2666 1.524 . S
C2670 H2682 0.956 . S
C2670 H2683 0.961 . S
C2670 H2684 0.961 . S
C2671 C2668 1.539 . S
C2671 H2685 0.958 . S
C2671 H2686 0.961 . S
C2671 H2687 0.960 . S
H2672 C2656 0.931 . S
H2673 C2661 0.929 . S
H2674 C2662 0.960 . S
H2675 C2662 0.962 . S
H2676 C2662 0.960 . S
H2677 C2663 0.961 . S
H2678 C2663 0.961 . S
H2679 C2663 0.961 . S
H2680 C2664 0.931 . S
H2681 C2669 0.930 . S
H2682 C2670 0.956 . S
H2683 C2670 0.961 . S
H2684 C2670 0.961 . S
H2685 C2671 0.958 . S
H2686 C2671 0.961 . S
H2687 C2671 0.960 . S
C2688 C2689 1.391 . S
C2688 C2690 1.394 . S
C2688 H2704 0.931 . S
C2689 C2688 1.391 . S
C2689 C2693 1.376 . S
C2690 C2688 1.394 . S
C2690 C2691 1.369 . S
C2690 C2694 1.531 . S
C2691 C2690 1.369 . S
C2691 C2692 1.410 . S
C2691 C2699 1.503 . S
C2692 C2691 1.410 . S
C2692 C2693 1.392 . S
C2692 C2695 1.511 . S
C2693 C2689 1.376 . S
C2693 C2692 1.392 . S
C2693 H2705 0.929 . S
C2694 C2690 1.531 . S
C2694 H2706 0.960 . S
C2694 H2707 0.962 . S
C2694 H2708 0.960 . S
C2695 C2692 1.511 . S
C2695 H2709 0.961 . S
C2695 H2710 0.961 . S
C2695 H2711 0.961 . S
C2696 C2697 1.370 . S
C2696 C2698 1.363 . S
C2696 H2712 0.931 . S
C2697 C2696 1.370 . S
C2697 C2701 1.408 . S
C2698 C2696 1.363 . S
C2698 C2699 1.370 . S
C2698 C2702 1.524 . S
C2699 C2691 1.503 . S
C2699 C2698 1.370 . S
C2699 C2700 1.403 . S
C2700 C2699 1.403 . S
C2700 C2701 1.404 . S
C2700 C2703 1.539 . S
C2701 C2697 1.408 . S
C2701 C2700 1.404 . S
C2701 H2713 0.930 . S
C2702 C2698 1.524 . S
C2702 H2714 0.956 . S
C2702 H2715 0.961 . S
C2702 H2716 0.961 . S
C2703 C2700 1.539 . S
C2703 H2717 0.958 . S
C2703 H2718 0.961 . S
C2703 H2719 0.960 . S
H2704 C2688 0.931 . S
H2705 C2693 0.929 . S
H2706 C2694 0.960 . S
H2707 C2694 0.962 . S
H2708 C2694 0.960 . S
H2709 C2695 0.961 . S
H2710 C2695 0.961 . S
H2711 C2695 0.961 . S
H2712 C2696 0.931 . S
H2713 C2701 0.930 . S
H2714 C2702 0.956 . S
H2715 C2702 0.961 . S
H2716 C2702 0.961 . S
H2717 C2703 0.958 . S
H2718 C2703 0.961 . S
H2719 C2703 0.960 . S
C2720 C2721 1.391 . S
C2720 C2722 1.394 . S
C2720 H2736 0.931 . S
C2721 C2720 1.391 . S
C2721 C2725 1.376 . S
C2722 C2720 1.394 . S
C2722 C2723 1.369 . S
C2722 C2726 1.531 . S
C2723 C2722 1.369 . S
C2723 C2724 1.410 . S
C2723 C2731 1.503 . S
C2724 C2723 1.410 . S
C2724 C2725 1.392 . S
C2724 C2727 1.511 . S
C2725 C2721 1.376 . S
C2725 C2724 1.392 . S
C2725 H2737 0.929 . S
C2726 C2722 1.531 . S
C2726 H2738 0.960 . S
C2726 H2739 0.962 . S
C2726 H2740 0.960 . S
C2727 C2724 1.511 . S
C2727 H2741 0.961 . S
C2727 H2742 0.961 . S
C2727 H2743 0.961 . S
C2728 C2729 1.370 . S
C2728 C2730 1.363 . S
C2728 H2744 0.931 . S
C2729 C2728 1.370 . S
C2729 C2733 1.408 . S
C2730 C2728 1.363 . S
C2730 C2731 1.370 . S
C2730 C2734 1.524 . S
C2731 C2723 1.503 . S
C2731 C2730 1.370 . S
C2731 C2732 1.403 . S
C2732 C2731 1.403 . S
C2732 C2733 1.404 . S
C2732 C2735 1.539 . S
C2733 C2729 1.408 . S
C2733 C2732 1.404 . S
C2733 H2745 0.930 . S
C2734 C2730 1.524 . S
C2734 H2746 0.956 . S
C2734 H2747 0.961 . S
C2734 H2748 0.961 . S
C2735 C2732 1.539 . S
C2735 H2749 0.958 . S
C2735 H2750 0.961 . S
C2735 H2751 0.960 . S
H2736 C2720 0.931 . S
H2737 C2725 0.929 . S
H2738 C2726 0.960 . S
H2739 C2726 0.962 . S
H2740 C2726 0.960 . S
H2741 C2727 0.961 . S
H2742 C2727 0.961 . S
H2743 C2727 0.961 . S
H2744 C2728 0.931 . S
H2745 C2733 0.930 . S
H2746 C2734 0.956 . S
H2747 C2734 0.961 . S
H2748 C2734 0.961 . S
H2749 C2735 0.958 . S
H2750 C2735 0.961 . S
H2751 C2735 0.960 . S
C2752 C2753 1.391 . S
C2752 C2754 1.394 . S
C2752 H2768 0.931 . S
C2753 C2752 1.391 . S
C2753 C2757 1.370 . S
C2754 C2752 1.394 . S
C2754 C2755 1.369 . S
C2754 C2758 1.531 . S
C2755 C2754 1.369 . S
C2755 C2756 1.410 1_655 S
C2755 C2763 1.503 . S
C2756 C2755 1.410 1_455 S
C2756 C2757 1.393 1_455 S
C2756 C2759 1.511 . S
C2757 C2753 1.370 . S
C2757 C2756 1.393 1_655 S
C2757 H2769 0.934 1_655 S
C2758 C2754 1.531 . S
C2758 H2770 0.960 . S
C2758 H2771 0.962 . S
C2758 H2772 0.960 . S
C2759 C2756 1.511 . S
C2759 H2773 0.961 . S
C2759 H2774 0.961 . S
C2759 H2775 0.961 . S
C2760 C2761 1.370 . S
C2760 C2762 1.363 . S
C2760 H2776 0.931 . S
C2761 C2760 1.370 . S
C2761 C2765 1.408 . S
C2762 C2760 1.363 . S
C2762 C2763 1.370 . S
C2762 C2766 1.524 . S
C2763 C2755 1.503 . S
C2763 C2762 1.370 . S
C2763 C2764 1.403 . S
C2764 C2763 1.403 . S
C2764 C2765 1.404 . S
C2764 C2767 1.539 . S
C2765 C2761 1.408 . S
C2765 C2764 1.404 . S
C2765 H2777 0.930 . S
C2766 C2762 1.524 . S
C2766 H2778 0.956 . S
C2766 H2779 0.961 1_655 S
C2766 H2780 0.941 1_655 S
C2767 C2764 1.539 . S
C2767 H2781 0.958 . S
C2767 H2782 0.961 . S
C2767 H2783 0.960 . S
H2768 C2752 0.931 . S
H2769 C2757 0.934 1_455 S
H2770 C2758 0.960 . S
H2771 C2758 0.962 . S
H2772 C2758 0.960 . S
H2773 C2759 0.961 . S
H2774 C2759 0.961 . S
H2775 C2759 0.961 . S
H2776 C2760 0.931 . S
H2777 C2765 0.930 . S
H2778 C2766 0.956 . S
H2779 C2766 0.961 1_455 S
H2780 C2766 0.941 1_455 S
H2781 C2767 0.958 . S
H2782 C2767 0.961 . S
H2783 C2767 0.960 . S
C2784 C2785 1.391 . S
C2784 C2786 1.394 . S
C2784 H2800 0.931 . S
C2785 C2784 1.391 . S
C2785 C2789 1.376 . S
C2786 C2784 1.394 . S
C2786 C2787 1.369 . S
C2786 C2790 1.531 . S
C2787 C2786 1.369 . S
C2787 C2788 1.410 . S
C2787 C2795 1.503 . S
C2788 C2787 1.410 . S
C2788 C2789 1.392 . S
C2788 C2791 1.511 . S
C2789 C2785 1.376 . S
C2789 C2788 1.392 . S
C2789 H2801 0.929 . S
C2790 C2786 1.531 . S
C2790 H2802 0.960 . S
C2790 H2803 0.962 . S
C2790 H2804 0.960 . S
C2791 C2788 1.511 . S
C2791 H2805 0.961 . S
C2791 H2806 0.961 . S
C2791 H2807 0.961 . S
C2792 C2793 1.370 . S
C2792 C2794 1.363 . S
C2792 H2808 0.931 . S
C2793 C2792 1.370 . S
C2793 C2797 1.408 . S
C2794 C2792 1.363 . S
C2794 C2795 1.370 . S
C2794 C2798 1.524 . S
C2795 C2787 1.503 . S
C2795 C2794 1.370 . S
C2795 C2796 1.403 . S
C2796 C2795 1.403 . S
C2796 C2797 1.404 . S
C2796 C2799 1.539 . S
C2797 C2793 1.408 . S
C2797 C2796 1.404 . S
C2797 H2809 0.930 . S
C2798 C2794 1.524 . S
C2798 H2810 0.956 . S
C2798 H2811 0.961 . S
C2798 H2812 0.961 . S
C2799 C2796 1.539 . S
C2799 H2813 0.958 . S
C2799 H2814 0.961 . S
C2799 H2815 0.960 . S
H2800 C2784 0.931 . S
H2801 C2789 0.929 . S
H2802 C2790 0.960 . S
H2803 C2790 0.962 . S
H2804 C2790 0.960 . S
H2805 C2791 0.961 . S
H2806 C2791 0.961 . S
H2807 C2791 0.961 . S
H2808 C2792 0.931 . S
H2809 C2797 0.930 . S
H2810 C2798 0.956 . S
H2811 C2798 0.961 . S
H2812 C2798 0.961 . S
H2813 C2799 0.958 . S
H2814 C2799 0.961 . S
H2815 C2799 0.960 . S
C2816 C2817 1.391 . S
C2816 C2818 1.394 . S
C2816 H2832 0.931 . S
C2817 C2816 1.391 . S
C2817 C2821 1.376 . S
C2818 C2816 1.394 . S
C2818 C2819 1.369 . S
C2818 C2822 1.531 . S
C2819 C2818 1.369 . S
C2819 C2820 1.410 . S
C2819 C2827 1.503 . S
C2820 C2819 1.410 . S
C2820 C2821 1.392 . S
C2820 C2823 1.511 1_455 S
C2821 C2817 1.376 . S
C2821 C2820 1.392 . S
C2821 H2833 0.929 1_455 S
C2822 C2818 1.531 . S
C2822 H2834 0.960 . S
C2822 H2835 0.962 . S
C2822 H2836 0.960 . S
C2823 C2820 1.511 1_655 S
C2823 H2837 0.961 . S
C2823 H2838 0.961 . S
C2823 H2839 0.961 . S
C2824 C2825 1.370 . S
C2824 C2826 1.363 . S
C2824 H2840 0.931 . S
C2825 C2824 1.370 . S
C2825 C2829 1.408 . S
C2826 C2824 1.363 . S
C2826 C2827 1.370 . S
C2826 C2830 1.524 . S
C2827 C2819 1.503 . S
C2827 C2826 1.370 . S
C2827 C2828 1.403 . S
C2828 C2827 1.403 . S
C2828 C2829 1.404 . S
C2828 C2831 1.539 . S
C2829 C2825 1.408 . S
C2829 C2828 1.404 . S
C2829 H2841 0.930 . S
C2830 C2826 1.524 . S
C2830 H2842 0.956 . S
C2830 H2843 0.961 . S
C2830 H2844 0.961 . S
C2831 C2828 1.539 . S
C2831 H2845 0.958 . S
C2831 H2846 0.961 . S
C2831 H2847 0.960 . S
H2832 C2816 0.931 . S
H2833 C2821 0.929 1_655 S
H2834 C2822 0.960 . S
H2835 C2822 0.962 . S
H2836 C2822 0.960 . S
H2837 C2823 0.961 . S
H2838 C2823 0.961 . S
H2839 C2823 0.961 . S
H2840 C2824 0.931 . S
H2841 C2829 0.930 . S
H2842 C2830 0.956 . S
H2843 C2830 0.961 . S
H2844 C2830 0.961 . S
H2845 C2831 0.958 . S
H2846 C2831 0.961 . S
H2847 C2831 0.960 . S
C2848 C2849 1.391 . S
C2848 C2850 1.394 . S
C2848 H2864 0.931 . S
C2849 C2848 1.391 . S
C2849 C2853 1.376 . S
C2850 C2848 1.394 . S
C2850 C2851 1.369 . S
C2850 C2854 1.531 . S
C2851 C2850 1.369 . S
C2851 C2852 1.410 . S
C2851 C2859 1.503 . S
C2852 C2851 1.410 . S
C2852 C2853 1.392 . S
C2852 C2855 1.511 . S
C2853 C2849 1.376 . S
C2853 C2852 1.392 . S
C2853 H2865 0.929 . S
C2854 C2850 1.531 . S
C2854 H2866 0.960 . S
C2854 H2867 0.962 . S
C2854 H2868 0.960 . S
C2855 C2852 1.511 . S
C2855 H2869 0.961 . S
C2855 H2870 0.961 . S
C2855 H2871 0.961 . S
C2856 C2857 1.370 . S
C2856 C2858 1.363 . S
C2856 H2872 0.931 . S
C2857 C2856 1.370 . S
C2857 C2861 1.408 . S
C2858 C2856 1.363 . S
C2858 C2859 1.370 . S
C2858 C2862 1.524 . S
C2859 C2851 1.503 . S
C2859 C2858 1.370 . S
C2859 C2860 1.403 . S
C2860 C2859 1.403 . S
C2860 C2861 1.404 . S
C2860 C2863 1.539 . S
C2861 C2857 1.408 . S
C2861 C2860 1.404 . S
C2861 H2873 0.930 . S
C2862 C2858 1.524 . S
C2862 H2874 0.956 . S
C2862 H2875 0.961 . S
C2862 H2876 0.961 . S
C2863 C2860 1.539 . S
C2863 H2877 0.958 . S
C2863 H2878 0.961 . S
C2863 H2879 0.960 . S
H2864 C2848 0.931 . S
H2865 C2853 0.929 . S
H2866 C2854 0.960 . S
H2867 C2854 0.962 . S
H2868 C2854 0.960 . S
H2869 C2855 0.961 . S
H2870 C2855 0.961 . S
H2871 C2855 0.961 . S
H2872 C2856 0.931 . S
H2873 C2861 0.930 . S
H2874 C2862 0.956 . S
H2875 C2862 0.961 . S
H2876 C2862 0.961 . S
H2877 C2863 0.958 . S
H2878 C2863 0.961 . S
H2879 C2863 0.960 . S
C2880 C2881 1.391 . S
C2880 C2882 1.394 . S
C2880 H2896 0.931 . S
C2881 C2880 1.391 . S
C2881 C2885 1.376 . S
C2882 C2880 1.394 . S
C2882 C2883 1.369 . S
C2882 C2886 1.531 . S
C2883 C2882 1.369 . S
C2883 C2884 1.410 . S
C2883 C2891 1.503 . S
C2884 C2883 1.410 . S
C2884 C2885 1.392 . S
C2884 C2887 1.511 . S
C2885 C2881 1.376 . S
C2885 C2884 1.392 . S
C2885 H2897 0.929 . S
C2886 C2882 1.531 . S
C2886 H2898 0.960 . S
C2886 H2899 0.962 . S
C2886 H2900 0.960 . S
C2887 C2884 1.511 . S
C2887 H2901 0.961 . S
C2887 H2902 0.961 . S
C2887 H2903 0.961 . S
C2888 C2889 1.370 . S
C2888 C2890 1.363 . S
C2888 H2904 0.931 . S
C2889 C2888 1.370 . S
C2889 C2893 1.408 . S
C2890 C2888 1.363 . S
C2890 C2891 1.370 . S
C2890 C2894 1.524 . S
C2891 C2883 1.503 . S
C2891 C2890 1.370 . S
C2891 C2892 1.403 . S
C2892 C2891 1.403 . S
C2892 C2893 1.404 . S
C2892 C2895 1.539 . S
C2893 C2889 1.408 . S
C2893 C2892 1.404 . S
C2893 H2905 0.930 . S
C2894 C2890 1.524 . S
C2894 H2906 0.956 . S
C2894 H2907 0.961 . S
C2894 H2908 0.961 . S
C2895 C2892 1.539 . S
C2895 H2909 0.958 . S
C2895 H2910 0.961 . S
C2895 H2911 0.960 . S
H2896 C2880 0.931 . S
H2897 C2885 0.929 . S
H2898 C2886 0.960 . S
H2899 C2886 0.962 . S
H2900 C2886 0.960 . S
H2901 C2887 0.961 . S
H2902 C2887 0.961 . S
H2903 C2887 0.961 . S
H2904 C2888 0.931 . S
H2905 C2893 0.930 . S
H2906 C2894 0.956 . S
H2907 C2894 0.961 . S
H2908 C2894 0.961 . S
H2909 C2895 0.958 . S
H2910 C2895 0.961 . S
H2911 C2895 0.960 . S
C2912 C2913 1.391 . S
C2912 C2914 1.394 . S
C2912 H2928 0.931 . S
C2913 C2912 1.391 . S
C2913 C2917 1.376 . S
C2914 C2912 1.394 . S
C2914 C2915 1.369 . S
C2914 C2918 1.531 . S
C2915 C2914 1.369 . S
C2915 C2916 1.410 . S
C2915 C2923 1.503 . S
C2916 C2915 1.410 . S
C2916 C2917 1.392 . S
C2916 C2919 1.511 . S
C2917 C2913 1.376 . S
C2917 C2916 1.392 . S
C2917 H2929 0.929 . S
C2918 C2914 1.531 . S
C2918 H2930 0.960 . S
C2918 H2931 0.962 . S
C2918 H2932 0.960 . S
C2919 C2916 1.511 . S
C2919 H2933 0.961 . S
C2919 H2934 0.961 . S
C2919 H2935 0.961 . S
C2920 C2921 1.370 . S
C2920 C2922 1.363 . S
C2920 H2936 0.931 . S
C2921 C2920 1.370 . S
C2921 C2925 1.408 . S
C2922 C2920 1.363 . S
C2922 C2923 1.370 . S
C2922 C2926 1.524 . S
C2923 C2915 1.503 . S
C2923 C2922 1.370 . S
C2923 C2924 1.403 . S
C2924 C2923 1.403 . S
C2924 C2925 1.404 . S
C2924 C2927 1.539 . S
C2925 C2921 1.408 . S
C2925 C2924 1.404 . S
C2925 H2937 0.930 . S
C2926 C2922 1.524 . S
C2926 H2938 0.956 . S
C2926 H2939 0.961 . S
C2926 H2940 0.961 . S
C2927 C2924 1.539 . S
C2927 H2941 0.958 . S
C2927 H2942 0.961 . S
C2927 H2943 0.960 . S
H2928 C2912 0.931 . S
H2929 C2917 0.929 . S
H2930 C2918 0.960 . S
H2931 C2918 0.962 . S
H2932 C2918 0.960 . S
H2933 C2919 0.961 . S
H2934 C2919 0.961 . S
H2935 C2919 0.961 . S
H2936 C2920 0.931 . S
H2937 C2925 0.930 . S
H2938 C2926 0.956 . S
H2939 C2926 0.961 . S
H2940 C2926 0.961 . S
H2941 C2927 0.958 . S
H2942 C2927 0.961 . S
H2943 C2927 0.960 . S
C2944 C2945 1.391 . S
C2944 C2946 1.394 . S
C2944 H2960 0.931 . S
C2945 C2944 1.391 . S
C2945 C2949 1.376 . S
C2946 C2944 1.394 . S
C2946 C2947 1.369 . S
C2946 C2950 1.531 . S
C2947 C2946 1.369 . S
C2947 C2948 1.410 . S
C2947 C2955 1.503 . S
C2948 C2947 1.410 . S
C2948 C2949 1.392 . S
C2948 C2951 1.511 . S
C2949 C2945 1.376 . S
C2949 C2948 1.392 . S
C2949 H2961 0.929 . S
C2950 C2946 1.531 . S
C2950 H2962 0.960 . S
C2950 H2963 0.962 . S
C2950 H2964 0.960 . S
C2951 C2948 1.511 . S
C2951 H2965 0.961 . S
C2951 H2966 0.961 . S
C2951 H2967 0.961 . S
C2952 C2953 1.370 . S
C2952 C2954 1.363 . S
C2952 H2968 0.931 . S
C2953 C2952 1.370 . S
C2953 C2957 1.408 . S
C2954 C2952 1.363 . S
C2954 C2955 1.370 . S
C2954 C2958 1.524 . S
C2955 C2947 1.503 . S
C2955 C2954 1.370 . S
C2955 C2956 1.403 . S
C2956 C2955 1.403 . S
C2956 C2957 1.404 . S
C2956 C2959 1.539 . S
C2957 C2953 1.408 . S
C2957 C2956 1.404 . S
C2957 H2969 0.930 . S
C2958 C2954 1.524 . S
C2958 H2970 0.956 . S
C2958 H2971 0.961 . S
C2958 H2972 0.961 . S
C2959 C2956 1.539 . S
C2959 H2973 0.958 . S
C2959 H2974 0.961 . S
C2959 H2975 0.960 . S
H2960 C2944 0.931 . S
H2961 C2949 0.929 . S
H2962 C2950 0.960 . S
H2963 C2950 0.962 . S
H2964 C2950 0.960 . S
H2965 C2951 0.961 . S
H2966 C2951 0.961 . S
H2967 C2951 0.961 . S
H2968 C2952 0.931 . S
H2969 C2957 0.930 . S
H2970 C2958 0.956 . S
H2971 C2958 0.961 . S
H2972 C2958 0.961 . S
H2973 C2959 0.958 . S
H2974 C2959 0.961 . S
H2975 C2959 0.960 . S
C2976 C2977 1.391 . S
C2976 C2978 1.394 . S
C2976 H2992 0.931 . S
C2977 C2976 1.391 . S
C2977 C2981 1.376 . S
C2978 C2976 1.394 . S
C2978 C2979 1.369 . S
C2978 C2982 1.531 . S
C2979 C2978 1.369 . S
C2979 C2980 1.410 . S
C2979 C2987 1.503 . S
C2980 C2979 1.410 . S
C2980 C2981 1.392 . S
C2980 C2983 1.511 . S
C2981 C2977 1.376 . S
C2981 C2980 1.392 . S
C2981 H2993 0.929 . S
C2982 C2978 1.531 . S
C2982 H2994 0.960 . S
C2982 H2995 0.962 . S
C2982 H2996 0.960 . S
C2983 C2980 1.511 . S
C2983 H2997 0.961 . S
C2983 H2998 0.961 . S
C2983 H2999 0.961 . S
C2984 C2985 1.370 . S
C2984 C2986 1.363 . S
C2984 H3000 0.931 . S
C2985 C2984 1.370 . S
C2985 C2989 1.408 . S
C2986 C2984 1.363 . S
C2986 C2987 1.370 . S
C2986 C2990 1.524 . S
C2987 C2979 1.503 . S
C2987 C2986 1.370 . S
C2987 C2988 1.403 . S
C2988 C2987 1.403 . S
C2988 C2989 1.404 . S
C2988 C2991 1.539 . S
C2989 C2985 1.408 . S
C2989 C2988 1.404 . S
C2989 H3001 0.930 . S
C2990 C2986 1.524 . S
C2990 H3002 0.956 . S
C2990 H3003 0.961 . S
C2990 H3004 0.961 . S
C2991 C2988 1.539 . S
C2991 H3005 0.958 . S
C2991 H3006 0.961 . S
C2991 H3007 0.960 . S
H2992 C2976 0.931 . S
H2993 C2981 0.929 . S
H2994 C2982 0.960 . S
H2995 C2982 0.962 . S
H2996 C2982 0.960 . S
H2997 C2983 0.961 . S
H2998 C2983 0.961 . S
H2999 C2983 0.961 . S
H3000 C2984 0.931 . S
H3001 C2989 0.930 . S
H3002 C2990 0.956 . S
H3003 C2990 0.961 . S
H3004 C2990 0.961 . S
H3005 C2991 0.958 . S
H3006 C2991 0.961 . S
H3007 C2991 0.960 . S
C3008 C3009 1.391 . S
C3008 C3010 1.394 . S
C3008 H3024 0.931 . S
C3009 C3008 1.391 . S
C3009 C3013 1.376 . S
C3010 C3008 1.394 . S
C3010 C3011 1.369 . S
C3010 C3014 1.531 . S
C3011 C3010 1.369 . S
C3011 C3012 1.410 . S
C3011 C3019 1.503 . S
C3012 C3011 1.410 . S
C3012 C3013 1.392 . S
C3012 C3015 1.511 . S
C3013 C3009 1.376 . S
C3013 C3012 1.392 . S
C3013 H3025 0.929 . S
C3014 C3010 1.531 . S
C3014 H3026 0.960 . S
C3014 H3027 0.962 . S
C3014 H3028 0.960 . S
C3015 C3012 1.511 . S
C3015 H3029 0.961 . S
C3015 H3030 0.961 . S
C3015 H3031 0.961 . S
C3016 C3017 1.370 . S
C3016 C3018 1.363 . S
C3016 H3032 0.931 . S
C3017 C3016 1.370 . S
C3017 C3021 1.408 . S
C3018 C3016 1.363 . S
C3018 C3019 1.370 . S
C3018 C3022 1.524 . S
C3019 C3011 1.503 . S
C3019 C3018 1.370 . S
C3019 C3020 1.403 . S
C3020 C3019 1.403 . S
C3020 C3021 1.404 . S
C3020 C3023 1.539 . S
C3021 C3017 1.408 . S
C3021 C3020 1.404 . S
C3021 H3033 0.930 . S
C3022 C3018 1.524 . S
C3022 H3034 0.956 . S
C3022 H3035 0.961 . S
C3022 H3036 0.961 . S
C3023 C3020 1.539 . S
C3023 H3037 0.958 . S
C3023 H3038 0.961 . S
C3023 H3039 0.960 . S
H3024 C3008 0.931 . S
H3025 C3013 0.929 . S
H3026 C3014 0.960 . S
H3027 C3014 0.962 . S
H3028 C3014 0.960 . S
H3029 C3015 0.961 . S
H3030 C3015 0.961 . S
H3031 C3015 0.961 . S
H3032 C3016 0.931 . S
H3033 C3021 0.930 . S
H3034 C3022 0.956 . S
H3035 C3022 0.961 . S
H3036 C3022 0.961 . S
H3037 C3023 0.958 . S
H3038 C3023 0.961 . S
H3039 C3023 0.960 . S
C3040 C3041 1.391 . S
C3040 C3042 1.394 . S
C3040 H3056 0.931 . S
C3041 C3040 1.391 . S
C3041 C3045 1.376 . S
C3042 C3040 1.394 . S
C3042 C3043 1.369 . S
C3042 C3046 1.531 . S
C3043 C3042 1.369 . S
C3043 C3044 1.410 . S
C3043 C3051 1.503 . S
C3044 C3043 1.410 . S
C3044 C3045 1.392 . S
C3044 C3047 1.511 . S
C3045 C3041 1.376 . S
C3045 C3044 1.392 . S
C3045 H3057 0.929 . S
C3046 C3042 1.531 . S
C3046 H3058 0.960 . S
C3046 H3059 0.962 . S
C3046 H3060 0.960 . S
C3047 C3044 1.511 . S
C3047 H3061 0.961 . S
C3047 H3062 0.961 . S
C3047 H3063 0.961 . S
C3048 C3049 1.370 . S
C3048 C3050 1.363 . S
C3048 H3064 0.931 . S
C3049 C3048 1.370 . S
C3049 C3053 1.408 . S
C3050 C3048 1.363 . S
C3050 C3051 1.370 . S
C3050 C3054 1.524 . S
C3051 C3043 1.503 . S
C3051 C3050 1.370 . S
C3051 C3052 1.403 . S
C3052 C3051 1.403 . S
C3052 C3053 1.404 . S
C3052 C3055 1.539 . S
C3053 C3049 1.408 . S
C3053 C3052 1.404 . S
C3053 H3065 0.930 . S
C3054 C3050 1.524 . S
C3054 H3066 0.956 . S
C3054 H3067 0.961 . S
C3054 H3068 0.961 . S
C3055 C3052 1.539 . S
C3055 H3069 0.958 . S
C3055 H3070 0.961 . S
C3055 H3071 0.960 . S
H3056 C3040 0.931 . S
H3057 C3045 0.929 . S
H3058 C3046 0.960 . S
H3059 C3046 0.962 . S
H3060 C3046 0.960 . S
H3061 C3047 0.961 . S
H3062 C3047 0.961 . S
H3063 C3047 0.961 . S
H3064 C3048 0.931 . S
H3065 C3053 0.930 . S
H3066 C3054 0.956 . S
H3067 C3054 0.961 . S
H3068 C3054 0.961 . S
H3069 C3055 0.958 . S
H3070 C3055 0.961 . S
H3071 C3055 0.960 . S
C3072 C3073 1.391 . S
C3072 C3074 1.394 . S
C3072 H3088 0.931 . S
C3073 C3072 1.391 . S
C3073 C3077 1.376 . S
C3074 C3072 1.394 . S
C3074 C3075 1.369 . S
C3074 C3078 1.531 . S
C3075 C3074 1.369 . S
C3075 C3076 1.410 . S
C3075 C3083 1.503 . S
C3076 C3075 1.410 . S
C3076 C3077 1.392 . S
C3076 C3079 1.511 . S
C3077 C3073 1.376 . S
C3077 C3076 1.392 . S
C3077 H3089 0.929 . S
C3078 C3074 1.531 . S
C3078 H3090 0.960 . S
C3078 H3091 0.962 . S
C3078 H3092 0.960 . S
C3079 C3076 1.511 . S
C3079 H3093 0.961 . S
C3079 H3094 0.961 . S
C3079 H3095 0.961 . S
C3080 C3081 1.370 . S
C3080 C3082 1.363 . S
C3080 H3096 0.931 . S
C3081 C3080 1.370 . S
C3081 C3085 1.408 . S
C3082 C3080 1.363 . S
C3082 C3083 1.370 . S
C3082 C3086 1.524 . S
C3083 C3075 1.503 . S
C3083 C3082 1.370 . S
C3083 C3084 1.403 . S
C3084 C3083 1.403 . S
C3084 C3085 1.404 . S
C3084 C3087 1.539 . S
C3085 C3081 1.408 . S
C3085 C3084 1.404 . S
C3085 H3097 0.930 . S
C3086 C3082 1.524 . S
C3086 H3098 0.956 . S
C3086 H3099 0.961 . S
C3086 H3100 0.961 . S
C3087 C3084 1.539 . S
C3087 H3101 0.958 . S
C3087 H3102 0.961 . S
C3087 H3103 0.960 . S
H3088 C3072 0.931 . S
H3089 C3077 0.929 . S
H3090 C3078 0.960 . S
H3091 C3078 0.962 . S
H3092 C3078 0.960 . S
H3093 C3079 0.961 . S
H3094 C3079 0.961 . S
H3095 C3079 0.961 . S
H3096 C3080 0.931 . S
H3097 C3085 0.930 . S
H3098 C3086 0.956 . S
H3099 C3086 0.961 . S
H3100 C3086 0.961 . S
H3101 C3087 0.958 . S
H3102 C3087 0.961 . S
H3103 C3087 0.960 . S
C3104 C3105 1.391 . S
C3104 C3106 1.394 . S
C3104 H3120 0.931 . S
C3105 C3104 1.391 . S
C3105 C3109 1.376 . S
C3106 C3104 1.394 . S
C3106 C3107 1.369 . S
C3106 C3110 1.544 . S
C3107 C3106 1.369 . S
C3107 C3108 1.410 . S
C3107 C3115 1.503 . S
C3108 C3107 1.410 . S
C3108 C3109 1.392 . S
C3108 C3111 1.511 . S
C3109 C3105 1.376 . S
C3109 C3108 1.392 . S
C3109 H3121 0.929 . S
C3110 C3106 1.544 . S
C3110 H3122 0.972 . S
C3110 H3123 0.937 1_556 S
C3110 H3124 0.961 . S
C3111 C3108 1.511 . S
C3111 H3125 0.961 . S
C3111 H3126 0.961 . S
C3111 H3127 0.961 . S
C3112 C3113 1.397 . S
C3112 C3114 1.369 . S
C3112 H3128 0.899 1_556 S
C3113 C3112 1.397 . S
C3113 C3117 1.408 . S
C3114 C3112 1.369 . S
C3114 C3115 1.370 . S
C3114 C3118 1.524 1_556 S
C3115 C3107 1.503 . S
C3115 C3114 1.370 . S
C3115 C3116 1.403 . S
C3116 C3115 1.403 . S
C3116 C3117 1.404 . S
C3116 C3119 1.539 . S
C3117 C3113 1.408 . S
C3117 C3116 1.404 . S
C3117 H3129 0.930 . S
C3118 C3114 1.524 1_554 S
C3118 H3130 0.956 . S
C3118 H3131 0.961 . S
C3118 H3132 0.961 . S
C3119 C3116 1.539 . S
C3119 H3133 0.958 . S
C3119 H3134 0.961 . S
C3119 H3135 0.960 . S
H3120 C3104 0.931 . S
H3121 C3109 0.929 . S
H3122 C3110 0.972 . S
H3123 C3110 0.937 1_554 S
H3124 C3110 0.961 . S
H3125 C3111 0.961 . S
H3126 C3111 0.961 . S
H3127 C3111 0.961 . S
H3128 C3112 0.899 1_554 S
H3129 C3117 0.930 . S
H3130 C3118 0.956 . S
H3131 C3118 0.961 . S
H3132 C3118 0.961 . S
H3133 C3119 0.958 . S
H3134 C3119 0.961 . S
H3135 C3119 0.960 . S
C3136 C3137 1.391 . S
C3136 C3138 1.394 . S
C3136 H3152 0.931 . S
C3137 C3136 1.391 . S
C3137 C3141 1.376 . S
C3138 C3136 1.394 . S
C3138 C3139 1.369 . S
C3138 C3142 1.531 . S
C3139 C3138 1.369 . S
C3139 C3140 1.410 . S
C3139 C3147 1.503 . S
C3140 C3139 1.410 . S
C3140 C3141 1.392 . S
C3140 C3143 1.511 . S
C3141 C3137 1.376 . S
C3141 C3140 1.392 . S
C3141 H3153 0.929 . S
C3142 C3138 1.531 . S
C3142 H3154 0.960 . S
C3142 H3155 0.962 . S
C3142 H3156 0.960 . S
C3143 C3140 1.511 . S
C3143 H3157 0.961 . S
C3143 H3158 0.961 . S
C3143 H3159 0.961 . S
C3144 C3145 1.370 . S
C3144 C3146 1.363 . S
C3144 H3160 0.931 . S
C3145 C3144 1.370 . S
C3145 C3149 1.408 . S
C3146 C3144 1.363 . S
C3146 C3147 1.370 . S
C3146 C3150 1.524 . S
C3147 C3139 1.503 . S
C3147 C3146 1.370 . S
C3147 C3148 1.403 . S
C3148 C3147 1.403 . S
C3148 C3149 1.404 . S
C3148 C3151 1.539 . S
C3149 C3145 1.408 . S
C3149 C3148 1.404 . S
C3149 H3161 0.930 . S
C3150 C3146 1.524 . S
C3150 H3162 0.956 . S
C3150 H3163 0.961 . S
C3150 H3164 0.961 . S
C3151 C3148 1.539 . S
C3151 H3165 0.958 . S
C3151 H3166 0.961 . S
C3151 H3167 0.960 . S
H3152 C3136 0.931 . S
H3153 C3141 0.929 . S
H3154 C3142 0.960 . S
H3155 C3142 0.962 . S
H3156 C3142 0.960 . S
H3157 C3143 0.961 . S
H3158 C3143 0.961 . S
H3159 C3143 0.961 . S
H3160 C3144 0.931 . S
H3161 C3149 0.930 . S
H3162 C3150 0.956 . S
H3163 C3150 0.961 . S
H3164 C3150 0.961 . S
H3165 C3151 0.958 . S
H3166 C3151 0.961 . S
H3167 C3151 0.960 . S
C3168 C3169 1.391 . S
C3168 C3170 1.394 . S
C3168 H3184 0.931 . S
C3169 C3168 1.391 . S
C3169 C3173 1.376 . S
C3170 C3168 1.394 . S
C3170 C3171 1.369 . S
C3170 C3174 1.531 . S
C3171 C3170 1.369 . S
C3171 C3172 1.410 . S
C3171 C3179 1.503 . S
C3172 C3171 1.410 . S
C3172 C3173 1.392 . S
C3172 C3175 1.511 . S
C3173 C3169 1.376 . S
C3173 C3172 1.392 . S
C3173 H3185 0.929 . S
C3174 C3170 1.531 . S
C3174 H3186 0.960 . S
C3174 H3187 0.962 1_554 S
C3174 H3188 0.960 . S
C3175 C3172 1.511 . S
C3175 H3189 0.961 . S
C3175 H3190 0.961 . S
C3175 H3191 0.961 . S
C3176 C3177 1.381 . S
C3176 C3178 1.366 . S
C3176 H3192 0.916 1_554 S
C3177 C3176 1.381 . S
C3177 C3181 1.408 . S
C3178 C3176 1.366 . S
C3178 C3179 1.370 . S
C3178 C3182 1.524 1_554 S
C3179 C3171 1.503 . S
C3179 C3178 1.370 . S
C3179 C3180 1.403 . S
C3180 C3179 1.403 . S
C3180 C3181 1.404 . S
C3180 C3183 1.539 . S
C3181 C3177 1.408 . S
C3181 C3180 1.404 . S
C3181 H3193 0.930 . S
C3182 C3178 1.524 1_556 S
C3182 H3194 0.956 . S
C3182 H3195 0.961 . S
C3182 H3196 0.961 . S
C3183 C3180 1.539 . S
C3183 H3197 0.958 . S
C3183 H3198 0.961 . S
C3183 H3199 0.960 . S
H3184 C3168 0.931 . S
H3185 C3173 0.929 . S
H3186 C3174 0.960 . S
H3187 C3174 0.962 1_556 S
H3188 C3174 0.960 . S
H3189 C3175 0.961 . S
H3190 C3175 0.961 . S
H3191 C3175 0.961 . S
H3192 C3176 0.916 1_556 S
H3193 C3181 0.930 . S
H3194 C3182 0.956 . S
H3195 C3182 0.961 . S
H3196 C3182 0.961 . S
H3197 C3183 0.958 . S
H3198 C3183 0.961 . S
H3199 C3183 0.960 . S
C3200 C3201 1.391 . S
C3200 C3202 1.394 . S
C3200 H3216 0.931 . S
C3201 C3200 1.391 . S
C3201 C3205 1.376 . S
C3202 C3200 1.394 . S
C3202 C3203 1.369 . S
C3202 C3206 1.531 1_554 S
C3203 C3202 1.369 . S
C3203 C3204 1.410 . S
C3203 C3211 1.503 . S
C3204 C3203 1.410 . S
C3204 C3205 1.392 . S
C3204 C3207 1.511 . S
C3205 C3201 1.376 . S
C3205 C3204 1.392 . S
C3205 H3217 0.929 . S
C3206 C3202 1.531 1_556 S
C3206 H3218 0.960 . S
C3206 H3219 0.933 1_556 S
C3206 H3220 0.960 . S
C3207 C3204 1.511 . S
C3207 H3221 0.961 . S
C3207 H3222 0.961 . S
C3207 H3223 0.961 . S
C3208 C3209 1.370 . S
C3208 C3210 1.363 . S
C3208 H3224 0.931 . S
C3209 C3208 1.370 . S
C3209 C3213 1.408 . S
C3210 C3208 1.363 . S
C3210 C3211 1.370 . S
C3210 C3214 1.524 . S
C3211 C3203 1.503 . S
C3211 C3210 1.370 . S
C3211 C3212 1.403 . S
C3212 C3211 1.403 . S
C3212 C3213 1.404 . S
C3212 C3215 1.539 1_554 S
C3213 C3209 1.408 . S
C3213 C3212 1.404 . S
C3213 H3225 0.930 1_554 S
C3214 C3210 1.524 . S
C3214 H3226 0.956 . S
C3214 H3227 0.961 . S
C3214 H3228 0.961 . S
C3215 C3212 1.539 1_556 S
C3215 H3229 0.958 . S
C3215 H3230 0.961 . S
C3215 H3231 0.960 . S
H3216 C3200 0.931 . S
H3217 C3205 0.929 . S
H3218 C3206 0.960 . S
H3219 C3206 0.933 1_554 S
H3220 C3206 0.960 . S
H3221 C3207 0.961 . S
H3222 C3207 0.961 . S
H3223 C3207 0.961 . S
H3224 C3208 0.931 . S
H3225 C3213 0.930 1_556 S
H3226 C3214 0.956 . S
H3227 C3214 0.961 . S
H3228 C3214 0.961 . S
H3229 C3215 0.958 . S
H3230 C3215 0.961 . S
H3231 C3215 0.960 . S
C1705 C689 1.491 . S
C1697 C202 1.463 . S
C1737 C748 1.542 . S
C1729 C261 1.541 . S
C1761 C282 1.523 . S
C1769 C865 1.528 . S
C1801 C933 1.523 . S
C1793 C162 1.504 . S
C1833 C1012 1.492 . S
C1825 C402 1.468 . S
C1865 C1137 1.526 . S
C1857 C482 1.525 . S
C1889 C442 1.516 . S
C1897 C1197 1.520 . S
C1929 C1305 1.541 . S
C1921 C381 1.536 . S
C1953 C461 1.551 . S
C1961 C1401 1.559 . S
C1993 C1461 1.497 . S
C1985 C362 1.496 . S
C2017 C415 1.453 . S
C2025 C1364 1.462 . S
C2057 C1481 1.546 . S
C2049 C495 1.533 . S
C2081 C301 1.558 . S
C2089 C1549 1.562 . S
C2113 C175 1.534 . S
C2121 C1540 1.546 . S
C2145 C215 1.451 . S
C2153 C1569 1.462 . S
C2177 C242 1.474 . S
C2185 C1577 1.493 . S
C2209 C141 1.506 . S
C2217 C961 1.555 . S
C2241 C581 1.545 . S
C2249 C924 1.551 . S
C2281 C660 1.463 . S
C2273 C615 1.466 . S
C2313 C757 1.498 . S
C2305 C335 1.487 . S
C2337 C181 1.581 . S
C2345 C1021 1.586 . S
C2377 C1313 1.498 . S
C2369 C455 1.487 . S
C2409 C1041 1.463 . S
C2401 C375 1.465 . S
C2441 C1225 1.586 . S
C2433 C501 1.580 . S
C2473 C1217 1.490 . S
C2465 C562 1.476 . S
C2497 C621 1.541 . S
C2505 C1285 1.542 . S
C2529 C322 1.514 . S
C2537 C1049 1.523 . S
C2569 C1100 1.523 . S
C2561 C522 1.504 . S
C2593 C122 1.477 . S
C2601 C845 1.484 . S
C2633 C953 1.524 . S
C2625 C2 1.508 . S
C2665 C669 1.519 . S
C2657 C42 1.513 . S
C2697 C785 1.544 . S
C2689 C101 1.539 . S
C2721 C61 1.562 . S
C2729 C1489 1.563 . S
C2753 C82 1.473 . S
C2761 C1373 1.493 . S
C2785 C135 1.463 . S
C2793 C1452 1.459 . S
C2817 C15 1.545 . S
C2825 C1393 1.542 . S
C2857 C1637 1.561 . S
C2849 C341 1.556 . S
C2889 C1628 1.546 . S
C2881 C535 1.533 . S
C2921 C1657 1.461 . S
C2913 C575 1.452 . S
C2945 C602 1.486 . S
C2953 C1665 1.494 . S
C2977 C421 1.507 . S
C2985 C1129 1.555 . S
C3017 C1109 1.554 . S
C3009 C221 1.509 . S
C3049 C1188 1.465 . S
C3041 C255 1.454 . S
C3081 C1276 1.498 . S
C3073 C295 1.486 . S
C3105 C541 1.585 . S
C3113 C836 1.587 . S
C3145 C777 1.494 . S
C3137 C55 1.498 . S
C3169 C95 1.455 . S
C3177 C873 1.463 . S
C3209 C697 1.587 . S
C3201 C21 1.582 . S
