# Generated by pormake.
# Topology tsx, (6,3)-cn, num edge types: 1
# Building blocks:
#     Node 0, Type 0, BuildingBlock: VOLQOD_clean_sbu_1, # of connection points: 6
#     Node 1, Type 0, BuildingBlock: VOLQOD_clean_sbu_1, # of connection points: 6
#     Node 2, Type 1, BuildingBlock: WUSLED_clean_sbu_0, # of connection points: 3
#     Node 3, Type 1, BuildingBlock: WUSLED_clean_sbu_0, # of connection points: 3
#     Node 4, Type 1, BuildingBlock: WUSLED_clean_sbu_0, # of connection points: 3
#     Node 5, Type 1, BuildingBlock: WUSLED_clean_sbu_0, # of connection points: 3
#     Edge 6, Type (0, 1), BuildingBlock: TEMPAE_clean_linker_10, # of connection points: 2
#     Edge 7, Type (0, 1), BuildingBlock: TEMPAE_clean_linker_10, # of connection points: 2
#     Edge 8, Type (0, 1), BuildingBlock: TEMPAE_clean_linker_10, # of connection points: 2
#     Edge 9, Type (0, 1), BuildingBlock: TEMPAE_clean_linker_10, # of connection points: 2
#     Edge 10, Type (0, 1), BuildingBlock: TEMPAE_clean_linker_10, # of connection points: 2
#     Edge 11, Type (0, 1), BuildingBlock: TEMPAE_clean_linker_10, # of connection points: 2
#     Edge 12, Type (0, 1), BuildingBlock: TEMPAE_clean_linker_10, # of connection points: 2
#     Edge 13, Type (0, 1), BuildingBlock: TEMPAE_clean_linker_10, # of connection points: 2
#     Edge 14, Type (0, 1), BuildingBlock: TEMPAE_clean_linker_10, # of connection points: 2
#     Edge 15, Type (0, 1), BuildingBlock: TEMPAE_clean_linker_10, # of connection points: 2
#     Edge 16, Type (0, 1), BuildingBlock: TEMPAE_clean_linker_10, # of connection points: 2
#     Edge 17, Type (0, 1), BuildingBlock: TEMPAE_clean_linker_10, # of connection points: 2
# Relax obj value: 0.070
# Max RMSD: 0.104
# Mean RMSD: 0.078
data_MOF--net-tsx--node1-VOLQOD_clean_sbu_1--node2-WUSLED_clean_sbu_0--edge1-TEMPAE_clean_linker_10
_symmetry_space_group_name_H-M    P1
_symmetry_Int_Tables_number       1
_symmetry_cell_setting            triclinic
loop_
_symmetry_equiv_pos_as_xyz
'x, y, z'
_cell_length_a     26.808441
_cell_length_b     27.605993
_cell_length_c     52.103321
_cell_angle_alpha  90.931457
_cell_angle_beta   89.912802
_cell_angle_gamma 90.129786
loop_
_atom_site_label
_atom_site_type_symbol
_atom_site_fract_x
_atom_site_fract_y
_atom_site_fract_z
_atom_type_partial_charge
O0 O 0.05063 1.00352 0.07021 0.0
Zn1 Zn 0.07072 1.00322 0.03265 0.0
O2 O 0.01207 0.00981 0.01053 0.0
Zn3 Zn 0.0048 0.95153 0.98902 0.0
Zn4 Zn 0.95226 0.01839 0.03175 0.0
Zn5 Zn 0.02019 0.06596 0.98848 0.0
O6 O 0.99996 0.96841 0.9515 0.0
O7 O 0.02282 0.04577 0.95095 0.0
O8 O 0.11025 0.94241 0.02367 0.0
O9 O 0.0654 0.90915 0.99221 0.0
O10 O 0.9447 0.9118 0.99967 0.0
O11 O 0.90829 0.95927 0.0289 0.0
O12 O 0.91171 0.07677 0.02091 0.0
O13 O 0.11675 0.06053 0.02838 0.0
O14 O 0.96068 0.10999 0.99165 0.0
O15 O 0.08166 0.1049 0.99818 0.0
C16 C 0.01026 0.01493 0.08181 0.0
C17 C 0.01093 0.00655 0.93919 0.0
C18 C 0.90982 0.91989 0.01583 0.0
C19 C 0.10368 0.90924 1.00667 0.0
C20 C 0.92047 0.10988 1.0047 0.0
C21 C 0.11641 0.09797 0.01439 0.0
O22 O 0.97063 0.02438 0.06933 0.0
O23 O 0.55347 0.50232 0.57138 0.0
Zn24 Zn 0.57346 0.50351 0.53385 0.0
O25 O 0.51444 0.50944 0.51195 0.0
Zn26 Zn 0.50626 0.4501 0.49127 0.0
Zn27 Zn 0.45504 0.5196 0.5333 0.0
Zn28 Zn 0.52291 0.56465 0.48927 0.0
O29 O 0.50211 0.46558 0.45352 0.0
O30 O 0.52635 0.54253 0.45214 0.0
O31 O 0.61411 0.44348 0.52428 0.0
O32 O 0.56655 0.40713 0.4949 0.0
O33 O 0.44521 0.41173 0.50228 0.0
O34 O 0.41 0.46099 0.53107 0.0
O35 O 0.41515 0.57851 0.52225 0.0
O36 O 0.618 0.56219 0.53014 0.0
O37 O 0.46288 0.60839 0.49146 0.0
O38 O 0.58414 0.60458 0.49881 0.0
C39 C 0.51353 0.51474 0.58308 0.0
C40 C 0.51403 0.503 0.44081 0.0
C41 C 0.41058 0.42108 0.51843 0.0
C42 C 0.60626 0.40875 0.5083 0.0
C43 C 0.42331 0.6099 0.50502 0.0
C44 C 0.61796 0.59906 0.51572 0.0
O45 O 0.47417 0.52567 0.57073 0.0
C46 C 0.93828 0.08268 0.45267 0.0
C47 C 0.91319 0.10913 0.43391 0.0
C48 C 0.86858 0.15494 0.46716 0.0
C49 C 0.87868 0.14489 0.44107 0.0
C50 C 0.89401 0.12827 0.48587 0.0
C51 C 0.92852 0.09251 0.47867 0.0
U52 U 0.00862 0.01146 0.40112 0.0
O53 O 0.08649 0.98664 0.39932 0.0
O54 O 0.02541 0.93354 0.39746 0.0
C55 C 0.07389 0.9406 0.39815 0.0
C56 C 0.97435 0.04473 0.44527 0.0
C57 C 0.10299 0.9072 0.41402 0.0
C58 C 0.14267 0.88446 0.45406 0.0
C59 C 0.11269 0.91638 0.44013 0.0
C60 C 0.15279 0.83397 0.41597 0.0
C61 C 0.16324 0.84288 0.44209 0.0
C62 C 0.12299 0.8657 0.40217 0.0
C63 C 0.98474 0.04202 0.33012 0.0
C64 C 0.95825 0.00734 0.28899 0.0
C65 C 0.02796 0.0631 0.2906 0.0
C66 C 0.02245 0.0676 0.31725 0.0
C67 C 0.99575 0.03313 0.2761 0.0
C68 C 0.95269 0.01188 0.31563 0.0
C69 C 0.97665 0.04916 0.35817 0.0
O70 O 0.95532 0.00685 0.43316 0.0
O71 O 0.0159 0.06028 0.43476 0.0
O72 O 0.01412 0.06722 0.37152 0.0
O73 O 0.95309 0.01428 0.37012 0.0
H74 H 0.92014 0.10193 0.41371 0.0
H75 H 0.85934 0.16416 0.42614 0.0
H76 H 0.88765 0.13539 0.50611 0.0
H77 H 0.94763 0.07251 0.49342 0.0
H78 H 0.14964 0.89227 0.47417 0.0
H79 H 0.09751 0.94829 0.44963 0.0
H80 H 0.16868 0.803 0.40593 0.0
H81 H 0.11618 0.85817 0.38199 0.0
H82 H 0.93227 0.98456 0.2784 0.0
H83 H 0.05752 0.08315 0.28134 0.0
H84 H 0.04745 0.09161 0.32772 0.0
H85 H 0.92268 0.9923 0.3248 0.0
C86 C 0.94193 0.93502 0.56886 0.0
C87 C 0.95546 0.8858 0.56752 0.0
C88 C 0.87177 0.86327 0.55337 0.0
C89 C 0.9208 0.85041 0.55992 0.0
C90 C 0.8585 0.91254 0.55422 0.0
C91 C 0.89321 0.94798 0.56175 0.0
U92 U 0.00801 0.00678 0.62224 0.0
O93 O 0.08652 0.02865 0.62695 0.0
O94 O 0.02788 0.084 0.6258 0.0
C95 C 0.07595 0.07512 0.62717 0.0
C96 C 0.97831 0.97272 0.57745 0.0
C97 C 0.10898 0.10632 0.61202 0.0
C98 C 0.13959 0.13781 0.57155 0.0
C99 C 0.10732 0.10721 0.5851 0.0
C100 C 0.17506 0.16657 0.61175 0.0
C101 C 0.17404 0.16772 0.58477 0.0
C102 C 0.14296 0.13618 0.62516 0.0
C103 C 0.97406 0.97848 0.69183 0.0
C104 C 0.02025 0.00985 0.72866 0.0
C105 C 0.94296 0.96597 0.73502 0.0
C106 C 0.938 0.9598 0.70846 0.0
C107 C 0.98423 0.99091 0.74546 0.0
C108 C 0.01513 1.00381 0.70204 0.0
C109 C 0.96839 0.97077 0.66398 0.0
O110 O 0.95941 0.01192 0.58835 0.0
O111 O 0.01854 0.95726 0.58918 0.0
O112 O 0.00695 0.95141 0.6521 0.0
O113 O 0.94855 0.00689 0.65147 0.0
H114 H 0.99276 0.87441 0.57257 0.0
H115 H 0.93219 0.81278 0.55968 0.0
H116 H 0.8213 0.92379 0.5489 0.0
H117 H 0.88174 0.98559 0.56212 0.0
H118 H 0.138 0.13766 0.55079 0.0
H119 H 0.08125 0.08431 0.57463 0.0
H120 H 0.20029 0.18973 0.62259 0.0
H121 H 0.14456 0.13616 0.64595 0.0
H122 H 0.05218 0.02967 0.73607 0.0
H123 H 0.9149 0.95041 0.74741 0.0
H124 H 0.9061 0.9401 0.7009 0.0
H125 H 0.04324 0.01872 0.68945 0.0
C126 C 0.43351 0.58112 0.95316 0.0
C127 C 0.38191 0.5717 0.95225 0.0
C128 C 0.36393 0.65276 0.969 0.0
C129 C 0.34758 0.60711 0.96004 0.0
C130 C 0.41548 0.66197 0.97025 0.0
C131 C 0.44985 0.62649 0.96256 0.0
U132 U 0.50544 0.51206 0.90062 0.0
O133 O 0.52416 0.43469 0.89661 0.0
O134 O 0.58388 0.48914 0.89857 0.0
C135 C 0.57244 0.44276 0.89829 0.0
C136 C 0.47033 0.54387 0.94484 0.0
C137 C 0.60113 0.41099 0.91561 0.0
C138 C 0.67558 0.39514 0.94095 0.0
C139 C 0.64565 0.42713 0.92724 0.0
C140 C 0.61666 0.33043 0.93229 0.0
C141 C 0.66191 0.34616 0.94325 0.0
C142 C 0.58678 0.36238 0.91855 0.0
C143 C 0.48089 0.54534 0.83047 0.0
C144 C 0.51346 0.50041 0.7936 0.0
C145 C 0.47011 0.57627 0.78748 0.0
C146 C 0.46294 0.58083 0.81398 0.0
C147 C 0.49538 0.53599 0.77694 0.0
C148 C 0.50639 0.50513 0.82018 0.0
C149 C 0.47237 0.55102 0.85825 0.0
O150 O 0.45252 0.50545 0.93268 0.0
O151 O 0.51188 0.56014 0.9346 0.0
O152 O 0.50997 0.56886 0.87153 0.0
O153 O 0.45024 0.51448 0.86949 0.0
H154 H 0.36786 0.53706 0.94536 0.0
H155 H 0.30812 0.59899 0.95862 0.0
H156 H 0.4293 0.69652 0.97741 0.0
H157 H 0.48931 0.63465 0.96392 0.0
H158 H 0.71049 0.40837 0.94884 0.0
H159 H 0.65829 0.46414 0.9251 0.0
H160 H 0.60469 0.29311 0.93394 0.0
H161 H 0.55302 0.3486 0.90963 0.0
H162 H 0.53347 0.46921 0.78611 0.0
H163 H 0.45509 0.60394 0.7752 0.0
H164 H 0.44309 0.61206 0.82161 0.0
H165 H 0.52072 0.47745 0.83268 0.0
C166 C 0.44318 0.42908 0.07009 0.0
C167 C 0.39186 0.43698 0.07391 0.0
C168 C 0.37242 0.35769 0.05513 0.0
C169 C 0.35695 0.40175 0.06649 0.0
C170 C 0.42373 0.3501 0.05104 0.0
C171 C 0.45863 0.38546 0.05833 0.0
U172 U 0.5146 0.49971 0.12207 0.0
O173 O 0.59386 0.52031 0.1245 0.0
O174 O 0.53604 0.5765 0.12496 0.0
C175 C 0.58406 0.56695 0.12391 0.0
C176 C 0.48086 0.46577 0.07805 0.0
C177 C 0.61489 0.59649 0.10638 0.0
C178 C 0.62672 0.66901 0.08097 0.0
C179 C 0.59557 0.63818 0.09485 0.0
C180 C 0.69683 0.61649 0.08922 0.0
C181 C 0.67793 0.65903 0.0784 0.0
C182 C 0.66575 0.58575 0.10313 0.0
C183 C 0.48589 0.47336 0.19302 0.0
C184 C 0.51899 0.44537 0.2337 0.0
C185 C 0.46804 0.51758 0.23284 0.0
C186 C 0.46304 0.51228 0.20622 0.0
C187 C 0.49586 0.48405 0.24691 0.0
C188 C 0.51386 0.43996 0.2071 0.0
C189 C 0.47841 0.46557 0.16504 0.0
O190 O 0.46392 0.50563 0.08914 0.0
O191 O 0.52107 0.44889 0.0892 0.0
O192 O 0.51545 0.44508 0.15237 0.0
O193 O 0.45747 0.50102 0.15241 0.0
H194 H 0.37848 0.47034 0.08268 0.0
H195 H 0.31773 0.40925 0.06951 0.0
H196 H 0.43709 0.31644 0.0426 0.0
H197 H 0.49788 0.37849 0.05498 0.0
H198 H 0.61101 0.70174 0.07318 0.0
H199 H 0.55671 0.64795 0.09718 0.0
H200 H 0.73595 0.60736 0.08733 0.0
H201 H 0.68191 0.55419 0.11197 0.0
H202 H 0.54005 0.41851 0.24401 0.0
H203 H 0.4501 0.548 0.24242 0.0
H204 H 0.44082 0.53848 0.19607 0.0
H205 H 0.53124 0.40915 0.1976 0.0
C206 C 0.19889 0.12474 0.03233 0.0
C207 C 0.15602 0.13516 0.01801 0.0
C208 C 0.23527 0.16035 0.03728 0.0
C209 C 0.22845 0.20775 0.02795 0.0
C210 C 0.18575 0.21833 0.0131 0.0
C211 C 0.15021 0.18186 0.00818 0.0
C212 C 0.28058 0.14745 0.05292 0.0
C213 C 0.17691 0.26855 1.00301 0.0
C214 C 0.29424 0.31033 0.0639 0.0
C215 C 0.33522 0.31962 0.04789 0.0
C216 C 0.25903 0.27443 0.05749 0.0
C217 C 0.26504 0.24669 0.0346 0.0
C218 C 0.30626 0.25576 0.01834 0.0
C219 C 0.34071 0.29221 0.02512 0.0
C220 C 0.21552 0.26596 0.07533 0.0
C221 C 0.31407 0.22681 0.99384 0.0
H222 H 0.20392 0.08873 0.03987 0.0
H223 H 0.11716 0.19036 0.99719 0.0
H224 H 0.31512 0.15674 0.04231 0.0
H225 H 0.2808 0.16888 0.07112 0.0
H226 H 0.28163 0.10835 0.05762 0.0
H227 H 0.14281 0.27045 0.99099 0.0
H228 H 0.17305 0.29465 0.01932 0.0
H229 H 0.20934 0.28039 0.99143 0.0
H230 H 0.29004 0.33067 0.08173 0.0
H231 H 0.3718 0.29951 0.01243 0.0
H232 H 0.21676 0.22844 0.0826 0.0
H233 H 0.17989 0.26991 0.06478 0.0
H234 H 0.21544 0.29155 0.09201 0.0
H235 H 0.3173 0.18775 0.99822 0.0
H236 H 0.3481 0.23822 0.98333 0.0
H237 H 0.28138 0.23089 0.98103 0.0
C238 C 0.18127 0.86539 0.02028 0.0
C239 C 0.14192 0.87084 1.00282 0.0
C240 C 0.21818 0.82989 0.01627 0.0
C241 C 0.21601 0.79945 0.99414 0.0
C242 C 0.17633 0.80467 0.97651 0.0
C243 C 0.13973 0.84004 0.98112 0.0
C244 C 0.25965 0.8251 0.03562 0.0
C245 C 0.17284 0.77325 0.95257 0.0
C246 C 0.33376 0.73878 0.96861 0.0
C247 C 0.32724 0.69085 0.97656 0.0
C248 C 0.29837 0.77468 0.97464 0.0
C249 C 0.25547 0.76248 0.98909 0.0
C250 C 0.2492 0.71442 0.99764 0.0
C251 C 0.28506 0.67918 0.99122 0.0
C252 C 0.30626 0.82539 0.96496 0.0
C253 C 0.2042 0.70003 0.01325 0.0
H254 H 0.18327 0.88887 0.03712 0.0
H255 H 0.10971 0.84399 0.96741 0.0
H256 H 0.26067 0.78759 0.04292 0.0
H257 H 0.29614 0.8321 0.0263 0.0
H258 H 0.2553 0.85063 0.05217 0.0
H259 H 0.13954 0.78178 0.94082 0.0
H260 H 0.20668 0.77819 0.94059 0.0
H261 H 0.17116 0.73449 0.9578 0.0
H262 H 0.36595 0.74797 0.95704 0.0
H263 H 0.28012 0.64238 0.99773 0.0
H264 H 0.30481 0.8519 0.98117 0.0
H265 H 0.27585 0.83478 0.95151 0.0
H266 H 0.34254 0.82948 0.95488 0.0
H267 H 0.20079 0.72391 0.03049 0.0
H268 H 0.20607 0.6618 0.01951 0.0
H269 H 0.16983 0.70471 1.00173 0.0
C270 C 0.83268 0.8909 0.03812 0.0
C271 C 0.87212 0.88164 0.02097 0.0
C272 C 0.79957 0.85404 0.04526 0.0
C273 C 0.80593 0.8066 0.03507 0.0
C274 C 0.84439 0.79735 0.017 0.0
C275 C 0.877 0.83498 0.01013 0.0
C276 C 0.75889 0.86551 0.06449 0.0
C277 C 0.85232 0.74727 1.00567 0.0
C278 C 0.75834 0.70548 0.07722 0.0
C279 C 0.71202 0.69444 0.06603 0.0
C280 C 0.78976 0.74093 0.06689 0.0
C281 C 0.77454 0.76622 0.04483 0.0
C282 C 0.72838 0.75456 0.03305 0.0
C283 C 0.69765 0.71883 0.0438 0.0
C284 C 0.83863 0.75232 0.08009 0.0
C285 C 0.71097 0.78059 0.00945 0.0
H286 H 0.82827 0.92682 0.0465 0.0
H287 H 0.90724 0.82738 0.99685 0.0
H288 H 0.72216 0.85343 0.05695 0.0
H289 H 0.76577 0.84554 0.08245 0.0
H290 H 0.75679 0.90483 0.06926 0.0
H291 H 0.881 0.74691 0.99026 0.0
H292 H 0.86439 0.7224 0.02097 0.0
H293 H 0.81688 0.73275 0.99769 0.0
H294 H 0.76946 0.68746 0.09462 0.0
H295 H 0.66221 0.71013 0.03485 0.0
H296 H 0.83811 0.79011 0.08766 0.0
H297 H 0.86988 0.74953 0.06616 0.0
H298 H 0.8462 0.72764 0.09625 0.0
H299 H 0.70523 0.81953 0.01413 0.0
H300 H 0.67553 0.76538 1.00173 0.0
H301 H 0.73986 0.77843 0.99421 0.0
C302 C 0.8343 0.1446 0.01042 0.0
C303 C 0.88219 0.14743 0.99957 0.0
C304 C 0.79669 0.17754 1.00371 0.0
C305 C 0.80721 0.21421 0.98577 0.0
C306 C 0.85591 0.21831 0.97549 0.0
C307 C 0.89269 0.18497 0.98249 0.0
C308 C 0.74526 0.17206 0.01514 0.0
C309 C 0.8688 0.25699 0.95638 0.0
C310 C 0.70437 0.26531 0.94412 0.0
C311 C 0.6963 0.31105 0.95552 0.0
C312 C 0.73916 0.23292 0.95429 0.0
C313 C 0.76681 0.2465 0.9764 0.0
C314 C 0.75795 0.29204 0.98844 0.0
C315 C 0.72285 0.32379 0.97785 0.0
C316 C 0.74755 0.18478 0.94079 0.0
C317 C 0.78649 0.30776 0.01211 0.0
H318 H 0.82572 0.11583 0.02364 0.0
H319 H 0.92957 0.1878 0.97408 0.0
H320 H 0.7324 0.2071 0.02348 0.0
H321 H 0.71844 0.16147 0.99984 0.0
H322 H 0.74411 0.14425 0.03031 0.0
H323 H 0.90906 0.25705 0.95131 0.0
H324 H 0.84686 0.25112 0.93855 0.0
H325 H 0.85877 0.29328 0.96423 0.0
H326 H 0.68466 0.25536 0.92667 0.0
H327 H 0.71642 0.35878 0.98697 0.0
H328 H 0.74376 0.15478 0.95458 0.0
H329 H 0.78605 0.18334 0.93297 0.0
H330 H 0.72092 0.17844 0.92476 0.0
H331 H 0.7835 0.27981 0.0271 0.0
H332 H 0.77285 0.3428 0.02019 0.0
H333 H 0.82663 0.31166 0.00733 0.0
C334 C 0.6598 0.67695 0.50317 0.0
C335 C 0.65683 0.63713 0.51954 0.0
C336 C 0.69504 0.71409 0.50738 0.0
C337 C 0.72796 0.7116 0.52856 0.0
C338 C 0.72555 0.67128 0.54497 0.0
C339 C 0.69023 0.63456 0.54023 0.0
C340 C 0.69665 0.75631 0.48933 0.0
C341 C 0.75978 0.66729 0.56783 0.0
C342 C 0.84769 0.78624 0.52999 0.0
C343 C 0.83441 0.82531 0.54617 0.0
C344 C 0.81323 0.74945 0.52374 0.0
C345 C 0.76428 0.75157 0.53396 0.0
C346 C 0.75046 0.79119 0.55004 0.0
C347 C 0.78561 0.82755 0.55591 0.0
C348 C 0.82936 0.70802 0.50639 0.0
C349 C 0.69878 0.7947 0.56148 0.0
H350 H 0.63433 0.67935 0.48711 0.0
H351 H 0.68831 0.60412 0.55307 0.0
H352 H 0.68801 0.79036 0.50001 0.0
H353 H 0.7347 0.76026 0.48122 0.0
H354 H 0.66972 0.75208 0.47326 0.0
H355 H 0.75376 0.63325 0.5785 0.0
H356 H 0.79928 0.66871 0.5615 0.0
H357 H 0.7537 0.69844 0.58119 0.0
H358 H 0.88508 0.78454 0.5221 0.0
H359 H 0.77519 0.85724 0.56867 0.0
H360 H 0.80405 0.70498 0.48961 0.0
H361 H 0.82681 0.67342 0.51685 0.0
H362 H 0.8682 0.71249 0.49934 0.0
H363 H 0.67035 0.7934 0.54604 0.0
H364 H 0.69345 0.82852 0.573 0.0
H365 H 0.69183 0.76328 0.57402 0.0
C366 C 0.63623 0.33235 0.48657 0.0
C367 C 0.64467 0.3704 0.50429 0.0
C368 C 0.67282 0.29714 0.48145 0.0
C369 C 0.71922 0.29977 0.49434 0.0
C370 C 0.72781 0.33754 0.51255 0.0
C371 C 0.69049 0.37237 0.51731 0.0
C372 C 0.66205 0.25748 0.46191 0.0
C373 C 0.77674 0.34156 0.52674 0.0
C374 C 0.79772 0.18482 0.49495 0.0
C375 C 0.83139 0.19277 0.47477 0.0
C376 C 0.76166 0.21964 0.50184 0.0
C377 C 0.75903 0.26355 0.48823 0.0
C378 C 0.79331 0.2721 0.46808 0.0
C379 C 0.82902 0.23671 0.46162 0.0
C380 C 0.72575 0.20902 0.52339 0.0
C381 C 0.79188 0.31844 0.4531 0.0
H382 H 0.60106 0.33026 0.47638 0.0
H383 H 0.69753 0.40152 0.53102 0.0
H384 H 0.68896 0.25972 0.44577 0.0
H385 H 0.66688 0.22147 0.47071 0.0
H386 H 0.62365 0.25974 0.45405 0.0
H387 H 0.77707 0.37215 0.54086 0.0
H388 H 0.78439 0.30748 0.537 0.0
H389 H 0.80763 0.34686 0.51286 0.0
H390 H 0.79878 0.15082 0.50504 0.0
H391 H 0.85532 0.24358 0.44628 0.0
H392 H 0.68709 0.20749 0.51585 0.0
H393 H 0.72706 0.23855 0.53808 0.0
H394 H 0.73408 0.17416 0.53283 0.0
H395 H 0.7554 0.32166 0.44325 0.0
H396 H 0.822 0.32016 0.43847 0.0
H397 H 0.79557 0.35014 0.46632 0.0
C398 C 0.33644 0.39235 0.5434 0.0
C399 C 0.372 0.38378 0.52403 0.0
C400 C 0.30269 0.35615 0.55075 0.0
C401 C 0.30412 0.31012 0.53839 0.0
C402 C 0.33846 0.30175 0.51811 0.0
C403 C 0.37208 0.3386 0.51122 0.0
C404 C 0.26679 0.36664 0.57251 0.0
C405 C 0.34085 0.25334 0.50429 0.0
C406 C 0.25811 0.20627 0.57917 0.0
C407 C 0.2086 0.20067 0.57086 0.0
C408 C 0.28998 0.24059 0.56815 0.0
C409 C 0.2722 0.26998 0.54812 0.0
C410 C 0.22302 0.26305 0.53882 0.0
C411 C 0.19176 0.22853 0.55032 0.0
C412 C 0.34217 0.2466 0.57863 0.0
C413 C 0.20277 0.2934 0.51738 0.0
H414 H 0.33577 0.42706 0.55341 0.0
H415 H 0.39916 0.33156 0.49616 0.0
H416 H 0.22805 0.35804 0.56649 0.0
H417 H 0.27569 0.34325 0.589 0.0
H418 H 0.26832 0.40508 0.57911 0.0
H419 H 0.3662 0.25404 0.48741 0.0
H420 H 0.35431 0.22535 0.51764 0.0
H421 H 0.30312 0.24211 0.49776 0.0
H422 H 0.27181 0.18421 0.59465 0.0
H423 H 0.15353 0.22468 0.54385 0.0
H424 H 0.34631 0.28318 0.58752 0.0
H425 H 0.3699 0.24367 0.56287 0.0
H426 H 0.35118 0.21917 0.59328 0.0
H427 H 0.1989 0.33152 0.52414 0.0
H428 H 0.16577 0.28032 0.5106 0.0
H429 H 0.22904 0.29325 0.50091 0.0
C430 C 0.34333 0.65412 0.51539 0.0
C431 C 0.38502 0.64726 0.49939 0.0
C432 C 0.30571 0.68748 0.50916 0.0
C433 C 0.30948 0.71412 0.48622 0.0
C434 C 0.35191 0.70801 0.47028 0.0
C435 C 0.38916 0.67501 0.47712 0.0
C436 C 0.26145 0.69349 0.52685 0.0
C437 C 0.35728 0.73527 0.44551 0.0
C438 C 0.1944 0.75925 0.45155 0.0
C439 C 0.19693 0.80946 0.45617 0.0
C440 C 0.22958 0.72765 0.46207 0.0
C441 C 0.26812 0.74647 0.47791 0.0
C442 C 0.26932 0.79674 0.48384 0.0
C443 C 0.23385 0.82765 0.47283 0.0
C444 C 0.22683 0.67434 0.45521 0.0
C445 C 0.30942 0.81821 0.50087 0.0
H446 H 0.33983 0.63311 0.53269 0.0
H447 H 0.42103 0.67005 0.46453 0.0
H448 H 0.25588 0.73236 0.53178 0.0
H449 H 0.22715 0.68057 0.517 0.0
H450 H 0.2659 0.67305 0.54489 0.0
H451 H 0.39325 0.72756 0.43566 0.0
H452 H 0.32637 0.72522 0.4323 0.0
H453 H 0.35471 0.77484 0.4493 0.0
H454 H 0.16538 0.74464 0.43918 0.0
H455 H 0.2364 0.86635 0.47645 0.0
H456 H 0.2274 0.65236 0.47284 0.0
H457 H 0.25994 0.6639 0.44359 0.0
H458 H 0.19273 0.66498 0.44409 0.0
H459 H 0.31295 0.79713 0.51873 0.0
H460 H 0.30179 0.85666 0.50612 0.0
H461 H 0.34588 0.81635 0.49081 0.0
C462 C 0.96421 0.02514 0.12355 0.0
C463 C 0.00925 0.01711 0.11037 0.0
C464 C 0.96257 0.02723 0.1505 0.0
C465 C 0.00706 0.02137 0.16472 0.0
C466 C 0.05264 0.01326 0.15159 0.0
C467 C 0.05319 0.01113 0.12461 0.0
C468 C 0.91316 0.03575 0.16377 0.0
C469 C 0.1009 0.00702 0.16605 0.0
C470 C 0.00908 0.07151 0.23321 0.0
C471 C 1.00029 0.02979 0.2476 0.0
C472 C 0.01194 0.0692 0.20628 0.0
C473 C 0.00582 0.02407 0.19335 0.0
C474 C 0.99746 0.98173 0.20774 0.0
C475 C 0.9948 0.98509 0.23466 0.0
C476 C 0.0208 0.11521 0.19165 0.0
C477 C 0.99091 0.9329 0.19469 0.0
H478 H 0.92998 0.02966 0.11281 0.0
H479 H 0.08821 0.00498 0.11468 0.0
H480 H 0.90479 0.00535 0.17677 0.0
H481 H 0.91507 0.06926 0.17577 0.0
H482 H 0.88189 0.03924 0.14996 0.0
H483 H 0.13317 1.00074 0.15302 0.0
H484 H 0.10853 0.03976 0.17805 0.0
H485 H 0.09778 0.97595 0.17921 0.0
H486 H 0.01267 0.1063 0.24298 0.0
H487 H 0.98866 0.95257 0.24562 0.0
H488 H 0.98855 0.1223 0.17894 0.0
H489 H 0.05418 0.11119 0.17919 0.0
H490 H 0.02628 0.14716 0.20459 0.0
H491 H 0.95814 0.93367 0.18173 0.0
H492 H 0.98554 0.90332 0.20865 0.0
H493 H 0.02403 0.92437 0.18266 0.0
C494 C 0.99754 0.96224 0.8973 0.0
C495 C 0.00913 0.0054 0.91065 0.0
C496 C 0.99469 0.96075 0.87038 0.0
C497 C 0.00355 1.00345 0.85637 0.0
C498 C 0.01565 0.04705 0.86965 0.0
C499 C 0.01834 0.04751 0.8966 0.0
C500 C 0.98178 0.9135 0.85693 0.0
C501 C 0.0253 0.09335 0.8554 0.0
C502 C 0.03613 0.98861 0.78554 0.0
C503 C 0.98982 0.99638 0.7738 0.0
C504 C 0.04134 0.99148 0.81236 0.0
C505 C 0.99926 1.00252 0.82783 0.0
C506 C 0.95264 0.01132 0.81607 0.0
C507 C 0.94848 0.00809 0.78923 0.0
C508 C 0.09164 0.98172 0.82417 0.0
C509 C 0.90696 0.02354 0.83186 0.0
H510 H 0.99044 0.92946 0.90788 0.0
H511 H 0.02731 0.08107 0.90666 0.0
H512 H 0.94674 0.9176 0.84589 0.0
H513 H 0.01155 0.90355 0.84302 0.0
H514 H 0.97694 0.88332 0.87056 0.0
H515 H 0.03509 0.12403 0.86852 0.0
H516 H 0.05619 0.08796 0.84146 0.0
H517 H 0.99171 0.10334 0.84428 0.0
H518 H 0.06812 0.97905 0.77378 0.0
H519 H 0.91275 0.01484 0.78028 0.0
H520 H 0.08928 0.94939 0.83649 0.0
H521 H 0.10308 0.01273 0.83664 0.0
H522 H 0.12105 0.97539 0.80946 0.0
H523 H 0.898 0.99313 0.84475 0.0
H524 H 0.87383 0.03082 0.81974 0.0
H525 H 0.91432 0.05589 0.8442 0.0
C526 C 0.55582 0.5066 0.62584 0.0
C527 C 0.51262 0.51641 0.61163 0.0
C528 C 0.55535 0.50837 0.65282 0.0
C529 C 0.51061 0.52017 0.66596 0.0
C530 C 0.46684 0.52978 0.65178 0.0
C531 C 0.46837 0.52784 0.62484 0.0
C532 C 0.6028 0.49794 0.66727 0.0
C533 C 0.41836 0.54242 0.66506 0.0
C534 C 0.4937 0.48653 0.73602 0.0
C535 C 0.50209 0.5311 0.74864 0.0
C536 C 0.49726 0.48219 0.70916 0.0
C537 C 0.5096 0.52337 0.69456 0.0
C538 C 0.51922 0.56817 0.70723 0.0
C539 C 0.51533 0.57149 0.73408 0.0
C540 C 0.48661 0.43381 0.69636 0.0
C541 C 0.5328 0.61286 0.69239 0.0
H542 H 0.59021 0.4977 0.61589 0.0
H543 H 0.43472 0.53537 0.61413 0.0
H544 H 0.61353 0.52999 0.67916 0.0
H545 H 0.59673 0.46744 0.68053 0.0
H546 H 0.6343 0.48864 0.65423 0.0
H547 H 0.38743 0.54808 0.65127 0.0
H548 H 0.40753 0.51308 0.67827 0.0
H549 H 0.42313 0.57594 0.67685 0.0
H550 H 0.48298 0.45528 0.7471 0.0
H551 H 0.52263 0.60586 0.74371 0.0
H552 H 0.51837 0.4229 0.6839 0.0
H553 H 0.45331 0.43677 0.68387 0.0
H554 H 0.47979 0.40482 0.71049 0.0
H555 H 0.56597 0.60561 0.68017 0.0
H556 H 0.54095 0.64449 0.70517 0.0
H557 H 0.50169 0.62251 0.67942 0.0
C558 C 0.52187 0.54239 0.39788 0.0
C559 C 0.51293 0.50069 0.41229 0.0
C560 C 0.52002 0.54091 0.37094 0.0
C561 C 0.50911 0.49664 0.35802 0.0
C562 C 0.50046 0.45434 0.3724 0.0
C563 C 0.5024 0.45688 0.39932 0.0
C564 C 0.52936 0.58681 0.35629 0.0
C565 C 0.48884 0.40642 0.35932 0.0
C566 C 0.45737 0.49983 0.29016 0.0
C567 C 0.49967 0.4886 0.27535 0.0
C568 C 0.46001 0.50291 0.31705 0.0
C569 C 0.50609 0.49463 0.32947 0.0
C570 C 0.54904 0.48376 0.31463 0.0
C571 C 0.5453 0.48081 0.28776 0.0
C572 C 0.41333 0.51442 0.3322 0.0
C573 C 0.59889 0.47498 0.32715 0.0
H574 H 0.52997 0.57646 0.40765 0.0
H575 H 0.49555 0.4244 0.4102 0.0
H576 H 0.56087 0.58145 0.34272 0.0
H577 H 0.49602 0.59579 0.34472 0.0
H578 H 0.53809 0.61814 0.36917 0.0
H579 H 0.48367 0.37674 0.37324 0.0
H580 H 0.45436 0.4096 0.34773 0.0
H581 H 0.51947 0.39629 0.34595 0.0
H582 H 0.42185 0.50526 0.28074 0.0
H583 H 0.57825 0.47269 0.27641 0.0
H584 H 0.41942 0.54706 0.3445 0.0
H585 H 0.40437 0.48401 0.3451 0.0
H586 H 0.38066 0.52088 0.31962 0.0
H587 H 0.60979 0.50698 0.33903 0.0
H588 H 0.62886 0.4676 0.31287 0.0
H589 H 0.59615 0.44368 0.34017 0.0
loop_
_geom_bond_atom_site_label_1
_geom_bond_atom_site_label_2
_geom_bond_distance
_geom_bond_site_symmetry_2
_ccdc_geom_bond_type
O0 Zn1 1.953 . S
O0 C16 1.225 1_565 S
Zn1 O0 1.953 . S
Zn1 O2 1.949 1_565 S
Zn1 O8 1.919 . S
Zn1 O13 1.924 1_565 S
O2 Zn1 1.949 1_545 S
O2 Zn3 1.923 1_444 S
O2 Zn4 1.950 1_455 S
O2 Zn5 1.945 1_554 S
Zn3 O2 1.923 1_666 S
Zn3 O6 1.933 . S
Zn3 O9 1.941 1_655 S
Zn3 O10 1.965 . S
Zn4 O2 1.950 1_655 S
Zn4 O11 1.938 1_545 S
Zn4 O12 1.906 . S
Zn4 O22 1.953 . S
Zn5 O2 1.945 1_556 S
Zn5 O7 1.932 . S
Zn5 O14 1.977 1_455 S
Zn5 O15 1.910 . S
O6 Zn3 1.933 . S
O6 C17 1.226 1_665 S
O7 Zn5 1.932 . S
O7 C17 1.307 . S
O8 Zn1 1.919 . S
O8 C19 1.253 1_554 S
O9 Zn3 1.941 1_455 S
O9 C19 1.283 . S
O10 Zn3 1.965 . S
O10 C18 1.303 1_556 S
O11 Zn4 1.938 1_565 S
O11 C18 1.247 . S
O12 Zn4 1.906 . S
O12 C20 1.304 1_554 S
O13 Zn1 1.924 1_545 S
O13 C21 1.311 . S
O14 Zn5 1.977 1_655 S
O14 C20 1.272 . S
O15 Zn5 1.910 . S
O15 C21 1.231 1_556 S
C16 O0 1.225 1_545 S
C16 O22 1.298 1_455 S
C17 O6 1.226 1_445 S
C17 O7 1.307 . S
C18 O10 1.303 1_554 S
C18 O11 1.247 . S
C19 O8 1.253 1_556 S
C19 O9 1.283 . S
C20 O12 1.304 1_556 S
C20 O14 1.272 . S
C21 O13 1.311 . S
C21 O15 1.231 1_554 S
O22 Zn4 1.953 . S
O22 C16 1.298 1_655 S
O23 Zn24 1.953 . S
O23 C39 1.225 . S
Zn24 O23 1.953 . S
Zn24 O25 1.949 . S
Zn24 O31 1.919 . S
Zn24 O36 1.924 . S
O25 Zn24 1.949 . S
O25 Zn26 1.923 . S
O25 Zn27 1.950 . S
O25 Zn28 1.945 . S
Zn26 O25 1.923 . S
Zn26 O29 1.933 . S
Zn26 O32 1.941 . S
Zn26 O33 1.965 . S
Zn27 O25 1.950 . S
Zn27 O34 1.938 . S
Zn27 O35 1.906 . S
Zn27 O45 1.953 . S
Zn28 O25 1.945 . S
Zn28 O30 1.932 . S
Zn28 O37 1.977 . S
Zn28 O38 1.910 . S
O29 Zn26 1.933 . S
O29 C40 1.226 . S
O30 Zn28 1.932 . S
O30 C40 1.307 . S
O31 Zn24 1.919 . S
O31 C42 1.253 . S
O32 Zn26 1.941 . S
O32 C42 1.283 . S
O33 Zn26 1.965 . S
O33 C41 1.303 . S
O34 Zn27 1.938 . S
O34 C41 1.247 . S
O35 Zn27 1.906 . S
O35 C43 1.304 . S
O36 Zn24 1.924 . S
O36 C44 1.311 . S
O37 Zn28 1.977 . S
O37 C43 1.272 . S
O38 Zn28 1.910 . S
O38 C44 1.231 . S
C39 O23 1.225 . S
C39 O45 1.298 . S
C40 O29 1.226 . S
C40 O30 1.307 . S
C41 O33 1.303 . S
C41 O34 1.247 . S
C42 O31 1.253 . S
C42 O32 1.283 . S
C43 O35 1.304 . S
C43 O37 1.272 . S
C44 O36 1.311 . S
C44 O38 1.231 . S
O45 Zn27 1.953 . S
O45 C39 1.298 . S
C46 C47 1.264 . S
C46 C51 1.479 . S
C46 C56 1.465 . S
C47 C46 1.264 . S
C47 C49 1.339 . S
C47 H74 0.931 . S
C48 C49 1.395 . S
C48 C50 1.320 . S
C49 C47 1.339 . S
C49 C48 1.395 . S
C49 H75 0.929 . S
C50 C48 1.320 . S
C50 C51 1.405 . S
C50 H76 0.930 . S
C51 C46 1.479 . S
C51 C50 1.405 . S
C51 H77 0.931 . S
U52 O53 2.454 1_545 S
U52 O54 2.458 1_545 S
U52 C55 2.984 1_545 S
U52 C56 2.847 1_455 S
U52 C69 2.882 . S
U52 O70 2.441 1_455 S
U52 O71 2.420 1_455 S
U52 O72 2.455 1_545 S
U52 O73 2.449 . S
O53 U52 2.454 1_565 S
O53 C55 1.353 . S
O54 U52 2.458 1_565 S
O54 C55 1.286 . S
C55 U52 2.984 1_565 S
C55 O53 1.353 . S
C55 O54 1.286 . S
C55 C57 1.363 . S
C56 C46 1.465 . S
C56 U52 2.847 1_655 S
C56 O70 1.249 . S
C56 O71 1.202 . S
C57 C55 1.363 . S
C57 C59 1.408 . S
C57 C62 1.342 . S
C58 C59 1.310 . S
C58 C61 1.461 . S
C58 H78 0.932 . S
C59 C57 1.408 . S
C59 C58 1.310 . S
C59 H79 0.930 . S
C60 C61 1.474 . S
C60 C62 1.285 . S
C60 H80 0.929 . S
C61 C58 1.461 . S
C61 C60 1.474 . S
C62 C57 1.342 . S
C62 C60 1.285 . S
C62 H81 0.930 . S
C63 C66 1.424 1_455 S
C63 C68 1.245 1_545 S
C63 C69 1.428 . S
C64 C67 1.260 1_565 S
C64 C68 1.477 . S
C64 H82 0.932 . S
C65 C66 1.384 . S
C65 C67 1.479 1_655 S
C65 H83 0.929 . S
C66 C63 1.424 1_655 S
C66 C65 1.384 . S
C66 H84 0.928 . S
C67 C64 1.260 1_545 S
C67 C65 1.479 1_455 S
C68 C63 1.245 1_565 S
C68 C64 1.477 . S
C68 H85 0.932 . S
C69 U52 2.882 . S
C69 C63 1.428 . S
C69 O72 1.301 1_545 S
C69 O73 1.282 . S
O70 U52 2.441 1_655 S
O70 C56 1.249 . S
O71 U52 2.420 1_655 S
O71 C56 1.202 . S
O72 U52 2.455 1_565 S
O72 C69 1.301 1_565 S
O73 U52 2.449 . S
O73 C69 1.282 . S
H74 C47 0.931 . S
H75 C49 0.929 . S
H76 C50 0.930 . S
H77 C51 0.931 . S
H78 C58 0.932 . S
H79 C59 0.930 . S
H80 C60 0.929 . S
H81 C62 0.930 . S
H82 C64 0.932 . S
H83 C65 0.929 . S
H84 C66 0.928 . S
H85 C68 0.932 . S
C86 C87 1.264 . S
C86 C91 1.479 . S
C86 C96 1.465 . S
C87 C86 1.264 . S
C87 C89 1.339 . S
C87 H114 0.931 . S
C88 C89 1.395 . S
C88 C90 1.320 . S
C89 C87 1.339 . S
C89 C88 1.395 . S
C89 H115 0.929 . S
C90 C88 1.320 . S
C90 C91 1.405 . S
C90 H116 0.930 . S
C91 C86 1.479 . S
C91 C90 1.405 . S
C91 H117 0.931 . S
U92 O93 2.454 1_565 S
U92 O94 2.458 1_565 S
U92 C95 2.984 1_565 S
U92 C96 2.847 1_455 S
U92 C109 2.882 . S
U92 O110 2.441 1_455 S
U92 O111 2.420 1_455 S
U92 O112 2.455 1_565 S
U92 O113 2.449 . S
O93 U92 2.454 1_545 S
O93 C95 1.353 . S
O94 U92 2.458 1_545 S
O94 C95 1.286 . S
C95 U92 2.984 1_545 S
C95 O93 1.353 . S
C95 O94 1.286 . S
C95 C97 1.363 . S
C96 C86 1.465 . S
C96 U92 2.847 1_655 S
C96 O110 1.249 . S
C96 O111 1.202 . S
C97 C95 1.363 . S
C97 C99 1.408 . S
C97 C102 1.342 . S
C98 C99 1.310 . S
C98 C101 1.461 . S
C98 H118 0.932 . S
C99 C97 1.408 . S
C99 C98 1.310 . S
C99 H119 0.930 . S
C100 C101 1.474 . S
C100 C102 1.285 . S
C100 H120 0.929 . S
C101 C98 1.461 . S
C101 C100 1.474 . S
C102 C97 1.342 . S
C102 C100 1.285 . S
C102 H121 0.930 . S
C103 C106 1.424 1_455 S
C103 C108 1.245 1_565 S
C103 C109 1.428 . S
C104 C107 1.260 1_545 S
C104 C108 1.477 . S
C104 H122 0.932 . S
C105 C106 1.384 . S
C105 C107 1.479 1_655 S
C105 H123 0.929 . S
C106 C103 1.424 1_655 S
C106 C105 1.384 . S
C106 H124 0.928 . S
C107 C104 1.260 1_565 S
C107 C105 1.479 1_455 S
C108 C103 1.245 1_545 S
C108 C104 1.477 . S
C108 H125 0.932 . S
C109 U92 2.882 . S
C109 C103 1.428 . S
C109 O112 1.301 1_565 S
C109 O113 1.282 . S
O110 U92 2.441 1_655 S
O110 C96 1.249 . S
O111 U92 2.420 1_655 S
O111 C96 1.202 . S
O112 U92 2.455 1_545 S
O112 C109 1.301 1_545 S
O113 U92 2.449 . S
O113 C109 1.282 . S
H114 C87 0.931 . S
H115 C89 0.929 . S
H116 C90 0.930 . S
H117 C91 0.931 . S
H118 C98 0.932 . S
H119 C99 0.930 . S
H120 C100 0.929 . S
H121 C102 0.930 . S
H122 C104 0.932 . S
H123 C105 0.929 . S
H124 C106 0.928 . S
H125 C108 0.932 . S
C126 C127 1.264 . S
C126 C131 1.479 . S
C126 C136 1.465 . S
C127 C126 1.264 . S
C127 C129 1.339 . S
C127 H154 0.931 . S
C128 C129 1.395 . S
C128 C130 1.320 . S
C129 C127 1.339 . S
C129 C128 1.395 . S
C129 H155 0.929 . S
C130 C128 1.320 . S
C130 C131 1.405 . S
C130 H156 0.930 . S
C131 C126 1.479 . S
C131 C130 1.405 . S
C131 H157 0.931 . S
U132 O133 2.454 . S
U132 O134 2.458 . S
U132 C135 2.984 . S
U132 C136 2.847 . S
U132 C149 2.882 . S
U132 O150 2.441 . S
U132 O151 2.420 . S
U132 O152 2.455 . S
U132 O153 2.449 . S
O133 U132 2.454 . S
O133 C135 1.353 . S
O134 U132 2.458 . S
O134 C135 1.286 . S
C135 U132 2.984 . S
C135 O133 1.353 . S
C135 O134 1.286 . S
C135 C137 1.363 . S
C136 C126 1.465 . S
C136 U132 2.847 . S
C136 O150 1.249 . S
C136 O151 1.202 . S
C137 C135 1.363 . S
C137 C139 1.408 . S
C137 C142 1.342 . S
C138 C139 1.310 . S
C138 C141 1.461 . S
C138 H158 0.932 . S
C139 C137 1.408 . S
C139 C138 1.310 . S
C139 H159 0.930 . S
C140 C141 1.474 . S
C140 C142 1.285 . S
C140 H160 0.929 . S
C141 C138 1.461 . S
C141 C140 1.474 . S
C142 C137 1.342 . S
C142 C140 1.285 . S
C142 H161 0.930 . S
C143 C146 1.424 . S
C143 C148 1.245 . S
C143 C149 1.428 . S
C144 C147 1.260 . S
C144 C148 1.477 . S
C144 H162 0.932 . S
C145 C146 1.384 . S
C145 C147 1.479 . S
C145 H163 0.929 . S
C146 C143 1.424 . S
C146 C145 1.384 . S
C146 H164 0.928 . S
C147 C144 1.260 . S
C147 C145 1.479 . S
C148 C143 1.245 . S
C148 C144 1.477 . S
C148 H165 0.932 . S
C149 U132 2.882 . S
C149 C143 1.428 . S
C149 O152 1.301 . S
C149 O153 1.282 . S
O150 U132 2.441 . S
O150 C136 1.249 . S
O151 U132 2.420 . S
O151 C136 1.202 . S
O152 U132 2.455 . S
O152 C149 1.301 . S
O153 U132 2.449 . S
O153 C149 1.282 . S
H154 C127 0.931 . S
H155 C129 0.929 . S
H156 C130 0.930 . S
H157 C131 0.931 . S
H158 C138 0.932 . S
H159 C139 0.930 . S
H160 C140 0.929 . S
H161 C142 0.930 . S
H162 C144 0.932 . S
H163 C145 0.929 . S
H164 C146 0.928 . S
H165 C148 0.932 . S
C166 C167 1.264 . S
C166 C171 1.479 . S
C166 C176 1.465 . S
C167 C166 1.264 . S
C167 C169 1.339 . S
C167 H194 0.931 . S
C168 C169 1.395 . S
C168 C170 1.320 . S
C169 C167 1.339 . S
C169 C168 1.395 . S
C169 H195 0.929 . S
C170 C168 1.320 . S
C170 C171 1.405 . S
C170 H196 0.930 . S
C171 C166 1.479 . S
C171 C170 1.405 . S
C171 H197 0.931 . S
U172 O173 2.454 . S
U172 O174 2.458 . S
U172 C175 2.984 . S
U172 C176 2.847 . S
U172 C189 2.882 . S
U172 O190 2.441 . S
U172 O191 2.420 . S
U172 O192 2.455 . S
U172 O193 2.449 . S
O173 U172 2.454 . S
O173 C175 1.353 . S
O174 U172 2.458 . S
O174 C175 1.286 . S
C175 U172 2.984 . S
C175 O173 1.353 . S
C175 O174 1.286 . S
C175 C177 1.363 . S
C176 C166 1.465 . S
C176 U172 2.847 . S
C176 O190 1.249 . S
C176 O191 1.202 . S
C177 C175 1.363 . S
C177 C179 1.408 . S
C177 C182 1.342 . S
C178 C179 1.310 . S
C178 C181 1.461 . S
C178 H198 0.932 . S
C179 C177 1.408 . S
C179 C178 1.310 . S
C179 H199 0.930 . S
C180 C181 1.474 . S
C180 C182 1.285 . S
C180 H200 0.929 . S
C181 C178 1.461 . S
C181 C180 1.474 . S
C182 C177 1.342 . S
C182 C180 1.285 . S
C182 H201 0.930 . S
C183 C186 1.424 . S
C183 C188 1.245 . S
C183 C189 1.428 . S
C184 C187 1.260 . S
C184 C188 1.477 . S
C184 H202 0.932 . S
C185 C186 1.384 . S
C185 C187 1.479 . S
C185 H203 0.929 . S
C186 C183 1.424 . S
C186 C185 1.384 . S
C186 H204 0.928 . S
C187 C184 1.260 . S
C187 C185 1.479 . S
C188 C183 1.245 . S
C188 C184 1.477 . S
C188 H205 0.932 . S
C189 U172 2.882 . S
C189 C183 1.428 . S
C189 O192 1.301 . S
C189 O193 1.282 . S
O190 U172 2.441 . S
O190 C176 1.249 . S
O191 U172 2.420 . S
O191 C176 1.202 . S
O192 U172 2.455 . S
O192 C189 1.301 . S
O193 U172 2.449 . S
O193 C189 1.282 . S
H194 C167 0.931 . S
H195 C169 0.929 . S
H196 C170 0.930 . S
H197 C171 0.931 . S
H198 C178 0.932 . S
H199 C179 0.930 . S
H200 C180 0.929 . S
H201 C182 0.930 . S
H202 C184 0.932 . S
H203 C185 0.929 . S
H204 C186 0.928 . S
H205 C188 0.932 . S
C206 C207 1.391 . S
C206 C208 1.394 . S
C206 H222 0.931 . S
C207 C206 1.391 . S
C207 C211 1.376 . S
C208 C206 1.394 . S
C208 C209 1.369 . S
C208 C212 1.531 . S
C209 C208 1.369 . S
C209 C210 1.410 . S
C209 C217 1.503 . S
C210 C209 1.410 . S
C210 C211 1.392 . S
C210 C213 1.511 . S
C211 C207 1.376 . S
C211 C210 1.392 . S
C211 H223 0.929 . S
C212 C208 1.531 . S
C212 H224 0.960 . S
C212 H225 0.962 . S
C212 H226 0.958 . S
C213 C210 1.511 . S
C213 H227 0.961 . S
C213 H228 0.961 . S
C213 H229 0.961 . S
C214 C215 1.370 . S
C214 C216 1.363 . S
C214 H230 0.931 . S
C215 C214 1.370 . S
C215 C219 1.408 . S
C216 C214 1.363 . S
C216 C217 1.370 . S
C216 C220 1.524 . S
C217 C209 1.503 . S
C217 C216 1.370 . S
C217 C218 1.403 . S
C218 C217 1.403 . S
C218 C219 1.404 . S
C218 C221 1.539 1_554 S
C219 C215 1.408 . S
C219 C218 1.404 . S
C219 H231 0.930 . S
C220 C216 1.524 . S
C220 H232 0.956 . S
C220 H233 0.961 . S
C220 H234 0.961 . S
C221 C218 1.539 1_556 S
C221 H235 0.958 . S
C221 H236 0.961 . S
C221 H237 0.960 . S
H222 C206 0.931 . S
H223 C211 0.929 . S
H224 C212 0.960 . S
H225 C212 0.962 . S
H226 C212 0.958 . S
H227 C213 0.961 . S
H228 C213 0.961 . S
H229 C213 0.961 . S
H230 C214 0.931 . S
H231 C219 0.930 . S
H232 C220 0.956 . S
H233 C220 0.961 . S
H234 C220 0.961 . S
H235 C221 0.958 . S
H236 C221 0.961 . S
H237 C221 0.960 . S
C238 C239 1.391 1_554 S
C238 C240 1.394 1_554 S
C238 H254 0.931 . S
C239 C238 1.391 1_556 S
C239 C243 1.376 . S
C240 C238 1.394 1_556 S
C240 C241 1.369 . S
C240 C244 1.531 1_556 S
C241 C240 1.369 . S
C241 C242 1.410 . S
C241 C249 1.503 . S
C242 C241 1.410 . S
C242 C243 1.392 . S
C242 C245 1.511 . S
C243 C239 1.376 . S
C243 C242 1.392 . S
C243 H255 0.929 . S
C244 C240 1.531 1_554 S
C244 H256 0.960 . S
C244 H257 0.962 . S
C244 H258 0.960 . S
C245 C242 1.511 . S
C245 H259 0.961 . S
C245 H260 0.961 . S
C245 H261 0.961 . S
C246 C247 1.370 . S
C246 C248 1.363 . S
C246 H262 0.931 . S
C247 C246 1.370 . S
C247 C251 1.408 . S
C248 C246 1.363 . S
C248 C249 1.370 . S
C248 C252 1.524 . S
C249 C241 1.503 . S
C249 C248 1.370 . S
C249 C250 1.403 . S
C250 C249 1.403 . S
C250 C251 1.404 . S
C250 C253 1.539 . S
C251 C247 1.408 . S
C251 C250 1.404 . S
C251 H263 0.930 . S
C252 C248 1.524 . S
C252 H264 0.956 1_556 S
C252 H265 0.961 . S
C252 H266 0.961 1_556 S
C253 C250 1.539 . S
C253 H267 0.958 . S
C253 H268 0.961 . S
C253 H269 0.960 . S
H254 C238 0.931 . S
H255 C243 0.929 . S
H256 C244 0.960 . S
H257 C244 0.962 . S
H258 C244 0.960 . S
H259 C245 0.961 . S
H260 C245 0.961 . S
H261 C245 0.961 . S
H262 C246 0.931 . S
H263 C251 0.930 . S
H264 C252 0.956 1_554 S
H265 C252 0.961 . S
H266 C252 0.961 1_554 S
H267 C253 0.958 . S
H268 C253 0.961 . S
H269 C253 0.960 . S
C270 C271 1.391 . S
C270 C272 1.394 . S
C270 H286 0.931 . S
C271 C270 1.391 . S
C271 C275 1.376 . S
C272 C270 1.394 . S
C272 C273 1.369 . S
C272 C276 1.531 . S
C273 C272 1.369 . S
C273 C274 1.410 . S
C273 C281 1.503 . S
C274 C273 1.410 . S
C274 C275 1.392 . S
C274 C277 1.511 . S
C275 C271 1.376 . S
C275 C274 1.392 . S
C275 H287 0.929 . S
C276 C272 1.531 . S
C276 H288 0.960 . S
C276 H289 0.962 . S
C276 H290 0.960 . S
C277 C274 1.511 . S
C277 H291 0.961 . S
C277 H292 0.961 . S
C277 H293 0.961 . S
C278 C279 1.370 . S
C278 C280 1.363 . S
C278 H294 0.931 . S
C279 C278 1.370 . S
C279 C283 1.408 . S
C280 C278 1.363 . S
C280 C281 1.370 . S
C280 C284 1.524 . S
C281 C273 1.503 . S
C281 C280 1.370 . S
C281 C282 1.403 . S
C282 C281 1.403 . S
C282 C283 1.404 . S
C282 C285 1.539 1_554 S
C283 C279 1.408 . S
C283 C282 1.404 . S
C283 H295 0.930 . S
C284 C280 1.524 . S
C284 H296 0.956 . S
C284 H297 0.961 . S
C284 H298 0.961 . S
C285 C282 1.539 1_556 S
C285 H299 0.958 . S
C285 H300 0.961 . S
C285 H301 0.960 . S
H286 C270 0.931 . S
H287 C275 0.929 . S
H288 C276 0.960 . S
H289 C276 0.962 . S
H290 C276 0.960 . S
H291 C277 0.961 . S
H292 C277 0.961 . S
H293 C277 0.961 . S
H294 C278 0.931 . S
H295 C283 0.930 . S
H296 C284 0.956 . S
H297 C284 0.961 . S
H298 C284 0.961 . S
H299 C285 0.958 . S
H300 C285 0.961 . S
H301 C285 0.960 . S
C302 C303 1.391 . S
C302 C304 1.394 . S
C302 H318 0.931 . S
C303 C302 1.391 . S
C303 C307 1.376 . S
C304 C302 1.394 . S
C304 C305 1.369 . S
C304 C308 1.531 . S
C305 C304 1.369 . S
C305 C306 1.410 . S
C305 C313 1.503 . S
C306 C305 1.410 . S
C306 C307 1.392 . S
C306 C309 1.511 . S
C307 C303 1.376 . S
C307 C306 1.392 . S
C307 H319 0.929 . S
C308 C304 1.531 . S
C308 H320 0.960 . S
C308 H321 0.962 . S
C308 H322 0.960 . S
C309 C306 1.511 . S
C309 H323 0.961 . S
C309 H324 0.961 . S
C309 H325 0.961 1_556 S
C310 C311 1.370 . S
C310 C312 1.363 . S
C310 H326 0.931 . S
C311 C310 1.370 . S
C311 C315 1.408 . S
C312 C310 1.363 . S
C312 C313 1.370 . S
C312 C316 1.524 . S
C313 C305 1.503 . S
C313 C312 1.370 . S
C313 C314 1.436 . S
C314 C313 1.436 . S
C314 C315 1.415 . S
C314 C317 1.495 1_556 S
C315 C311 1.408 . S
C315 C314 1.415 . S
C315 H327 0.930 1_556 S
C316 C312 1.524 . S
C316 H328 0.956 . S
C316 H329 0.961 . S
C316 H330 0.961 . S
C317 C314 1.495 1_554 S
C317 H331 0.958 . S
C317 H332 0.961 . S
C317 H333 0.960 . S
H318 C302 0.931 . S
H319 C307 0.929 . S
H320 C308 0.960 . S
H321 C308 0.962 . S
H322 C308 0.960 . S
H323 C309 0.961 . S
H324 C309 0.961 . S
H325 C309 0.961 1_554 S
H326 C310 0.931 . S
H327 C315 0.930 1_554 S
H328 C316 0.956 . S
H329 C316 0.961 . S
H330 C316 0.961 . S
H331 C317 0.958 . S
H332 C317 0.961 . S
H333 C317 0.960 . S
C334 C335 1.391 . S
C334 C336 1.394 . S
C334 H350 0.931 . S
C335 C334 1.391 . S
C335 C339 1.376 . S
C336 C334 1.394 . S
C336 C337 1.369 . S
C336 C340 1.531 . S
C337 C336 1.369 . S
C337 C338 1.410 . S
C337 C345 1.503 . S
C338 C337 1.410 . S
C338 C339 1.392 . S
C338 C341 1.511 . S
C339 C335 1.376 . S
C339 C338 1.392 . S
C339 H351 0.929 . S
C340 C336 1.531 . S
C340 H352 0.960 . S
C340 H353 0.962 . S
C340 H354 0.960 . S
C341 C338 1.511 . S
C341 H355 0.961 . S
C341 H356 0.961 . S
C341 H357 0.961 . S
C342 C343 1.370 . S
C342 C344 1.363 . S
C342 H358 0.931 . S
C343 C342 1.370 . S
C343 C347 1.408 . S
C344 C342 1.363 . S
C344 C345 1.370 . S
C344 C348 1.524 . S
C345 C337 1.503 . S
C345 C344 1.370 . S
C345 C346 1.403 . S
C346 C345 1.403 . S
C346 C347 1.404 . S
C346 C349 1.539 . S
C347 C343 1.408 . S
C347 C346 1.404 . S
C347 H359 0.930 . S
C348 C344 1.524 . S
C348 H360 0.956 . S
C348 H361 0.961 . S
C348 H362 0.961 . S
C349 C346 1.539 . S
C349 H363 0.958 . S
C349 H364 0.961 . S
C349 H365 0.960 . S
H350 C334 0.931 . S
H351 C339 0.929 . S
H352 C340 0.960 . S
H353 C340 0.962 . S
H354 C340 0.960 . S
H355 C341 0.961 . S
H356 C341 0.961 . S
H357 C341 0.961 . S
H358 C342 0.931 . S
H359 C347 0.930 . S
H360 C348 0.956 . S
H361 C348 0.961 . S
H362 C348 0.961 . S
H363 C349 0.958 . S
H364 C349 0.961 . S
H365 C349 0.960 . S
C366 C367 1.391 . S
C366 C368 1.394 . S
C366 H382 0.931 . S
C367 C366 1.391 . S
C367 C371 1.376 . S
C368 C366 1.394 . S
C368 C369 1.369 . S
C368 C372 1.531 . S
C369 C368 1.369 . S
C369 C370 1.410 . S
C369 C377 1.503 . S
C370 C369 1.410 . S
C370 C371 1.392 . S
C370 C373 1.511 . S
C371 C367 1.376 . S
C371 C370 1.392 . S
C371 H383 0.929 . S
C372 C368 1.531 . S
C372 H384 0.960 . S
C372 H385 0.962 . S
C372 H386 0.960 . S
C373 C370 1.511 . S
C373 H387 0.961 . S
C373 H388 0.961 . S
C373 H389 0.961 . S
C374 C375 1.370 . S
C374 C376 1.363 . S
C374 H390 0.931 . S
C375 C374 1.370 . S
C375 C379 1.408 . S
C376 C374 1.363 . S
C376 C377 1.370 . S
C376 C380 1.524 . S
C377 C369 1.503 . S
C377 C376 1.370 . S
C377 C378 1.403 . S
C378 C377 1.403 . S
C378 C379 1.404 . S
C378 C381 1.539 . S
C379 C375 1.408 . S
C379 C378 1.404 . S
C379 H391 0.930 . S
C380 C376 1.524 . S
C380 H392 0.956 . S
C380 H393 0.961 . S
C380 H394 0.961 . S
C381 C378 1.539 . S
C381 H395 0.958 . S
C381 H396 0.961 . S
C381 H397 0.960 . S
H382 C366 0.931 . S
H383 C371 0.929 . S
H384 C372 0.960 . S
H385 C372 0.962 . S
H386 C372 0.960 . S
H387 C373 0.961 . S
H388 C373 0.961 . S
H389 C373 0.961 . S
H390 C374 0.931 . S
H391 C379 0.930 . S
H392 C380 0.956 . S
H393 C380 0.961 . S
H394 C380 0.961 . S
H395 C381 0.958 . S
H396 C381 0.961 . S
H397 C381 0.960 . S
C398 C399 1.391 . S
C398 C400 1.394 . S
C398 H414 0.931 . S
C399 C398 1.391 . S
C399 C403 1.376 . S
C400 C398 1.394 . S
C400 C401 1.369 . S
C400 C404 1.531 . S
C401 C400 1.369 . S
C401 C402 1.410 . S
C401 C409 1.503 . S
C402 C401 1.410 . S
C402 C403 1.392 . S
C402 C405 1.511 . S
C403 C399 1.376 . S
C403 C402 1.392 . S
C403 H415 0.929 . S
C404 C400 1.531 . S
C404 H416 0.960 . S
C404 H417 0.962 . S
C404 H418 0.960 . S
C405 C402 1.511 . S
C405 H419 0.961 . S
C405 H420 0.961 . S
C405 H421 0.961 . S
C406 C407 1.370 . S
C406 C408 1.363 . S
C406 H422 0.931 . S
C407 C406 1.370 . S
C407 C411 1.408 . S
C408 C406 1.363 . S
C408 C409 1.370 . S
C408 C412 1.524 . S
C409 C401 1.503 . S
C409 C408 1.370 . S
C409 C410 1.403 . S
C410 C409 1.403 . S
C410 C411 1.404 . S
C410 C413 1.539 . S
C411 C407 1.408 . S
C411 C410 1.404 . S
C411 H423 0.930 . S
C412 C408 1.524 . S
C412 H424 0.956 . S
C412 H425 0.961 . S
C412 H426 0.961 . S
C413 C410 1.539 . S
C413 H427 0.958 . S
C413 H428 0.961 . S
C413 H429 0.960 . S
H414 C398 0.931 . S
H415 C403 0.929 . S
H416 C404 0.960 . S
H417 C404 0.962 . S
H418 C404 0.960 . S
H419 C405 0.961 . S
H420 C405 0.961 . S
H421 C405 0.961 . S
H422 C406 0.931 . S
H423 C411 0.930 . S
H424 C412 0.956 . S
H425 C412 0.961 . S
H426 C412 0.961 . S
H427 C413 0.958 . S
H428 C413 0.961 . S
H429 C413 0.960 . S
C430 C431 1.391 . S
C430 C432 1.394 . S
C430 H446 0.931 . S
C431 C430 1.391 . S
C431 C435 1.376 . S
C432 C430 1.394 . S
C432 C433 1.369 . S
C432 C436 1.531 . S
C433 C432 1.369 . S
C433 C434 1.410 . S
C433 C441 1.503 . S
C434 C433 1.410 . S
C434 C435 1.392 . S
C434 C437 1.511 . S
C435 C431 1.376 . S
C435 C434 1.392 . S
C435 H447 0.929 . S
C436 C432 1.531 . S
C436 H448 0.960 . S
C436 H449 0.962 . S
C436 H450 0.960 . S
C437 C434 1.511 . S
C437 H451 0.961 . S
C437 H452 0.961 . S
C437 H453 0.961 . S
C438 C439 1.370 . S
C438 C440 1.363 . S
C438 H454 0.931 . S
C439 C438 1.370 . S
C439 C443 1.408 . S
C440 C438 1.363 . S
C440 C441 1.370 . S
C440 C444 1.524 . S
C441 C433 1.503 . S
C441 C440 1.370 . S
C441 C442 1.403 . S
C442 C441 1.403 . S
C442 C443 1.404 . S
C442 C445 1.539 . S
C443 C439 1.408 . S
C443 C442 1.404 . S
C443 H455 0.930 . S
C444 C440 1.524 . S
C444 H456 0.956 . S
C444 H457 0.961 . S
C444 H458 0.961 . S
C445 C442 1.539 . S
C445 H459 0.958 . S
C445 H460 0.961 . S
C445 H461 0.960 . S
H446 C430 0.931 . S
H447 C435 0.929 . S
H448 C436 0.960 . S
H449 C436 0.962 . S
H450 C436 0.960 . S
H451 C437 0.961 . S
H452 C437 0.961 . S
H453 C437 0.961 . S
H454 C438 0.931 . S
H455 C443 0.930 . S
H456 C444 0.956 . S
H457 C444 0.961 . S
H458 C444 0.961 . S
H459 C445 0.958 . S
H460 C445 0.961 . S
H461 C445 0.960 . S
C462 C463 1.391 1_665 S
C462 C464 1.394 . S
C462 H478 0.931 . S
C463 C462 1.391 1_445 S
C463 C467 1.376 . S
C464 C462 1.394 . S
C464 C465 1.369 1_655 S
C464 C468 1.531 . S
C465 C464 1.369 1_455 S
C465 C466 1.410 1_565 S
C465 C473 1.503 . S
C466 C465 1.410 1_545 S
C466 C467 1.392 . S
C466 C469 1.511 . S
C467 C463 1.376 . S
C467 C466 1.392 . S
C467 H479 0.929 . S
C468 C464 1.531 . S
C468 H480 0.960 . S
C468 H481 0.962 . S
C468 H482 0.960 . S
C469 C466 1.511 . S
C469 H483 0.961 . S
C469 H484 0.961 . S
C469 H485 0.961 . S
C470 C471 1.372 1_655 S
C470 C472 1.363 . S
C470 H486 0.931 . S
C471 C470 1.372 1_455 S
C471 C475 1.406 1_545 S
C472 C470 1.363 . S
C472 C473 1.370 1_645 S
C472 C476 1.524 . S
C473 C465 1.503 . S
C473 C472 1.370 1_465 S
C473 C474 1.403 . S
C474 C473 1.403 . S
C474 C475 1.404 . S
C474 C477 1.539 . S
C475 C471 1.406 1_565 S
C475 C474 1.404 . S
C475 H487 0.930 . S
C476 C472 1.524 . S
C476 H488 0.956 . S
C476 H489 0.961 . S
C476 H490 0.961 . S
C477 C474 1.539 . S
C477 H491 0.958 . S
C477 H492 0.961 . S
C477 H493 0.960 . S
H478 C462 0.931 . S
H479 C467 0.929 . S
H480 C468 0.960 . S
H481 C468 0.962 . S
H482 C468 0.960 . S
H483 C469 0.961 . S
H484 C469 0.961 . S
H485 C469 0.961 . S
H486 C470 0.931 . S
H487 C475 0.930 . S
H488 C476 0.956 . S
H489 C476 0.961 . S
H490 C476 0.961 . S
H491 C477 0.958 . S
H492 C477 0.961 . S
H493 C477 0.960 . S
C494 C495 1.391 1_665 S
C494 C496 1.394 . S
C494 H510 0.931 . S
C495 C494 1.391 1_445 S
C495 C499 1.376 . S
C496 C494 1.394 . S
C496 C497 1.366 1_665 S
C496 C500 1.531 . S
C497 C496 1.366 1_445 S
C497 C498 1.414 . S
C497 C505 1.505 . S
C498 C497 1.414 . S
C498 C499 1.392 . S
C498 C501 1.511 . S
C499 C495 1.376 . S
C499 C498 1.392 . S
C499 H511 0.929 . S
C500 C496 1.531 . S
C500 H512 0.960 . S
C500 H513 0.962 1_655 S
C500 H514 0.960 . S
C501 C498 1.511 . S
C501 H515 0.961 . S
C501 H516 0.961 . S
C501 H517 0.961 1_455 S
C502 C503 1.370 1_565 S
C502 C504 1.363 . S
C502 H518 0.931 . S
C503 C502 1.370 1_545 S
C503 C507 1.408 1_455 S
C504 C502 1.363 . S
C504 C505 1.370 1_565 S
C504 C508 1.524 . S
C505 C497 1.505 . S
C505 C504 1.370 1_545 S
C505 C506 1.403 1_455 S
C506 C505 1.403 1_655 S
C506 C507 1.404 . S
C506 C509 1.539 . S
C507 C503 1.408 1_655 S
C507 C506 1.404 . S
C507 H519 0.930 . S
C508 C504 1.524 . S
C508 H520 0.956 . S
C508 H521 0.961 1_565 S
C508 H522 0.961 . S
C509 C506 1.539 . S
C509 H523 0.958 1_545 S
C509 H524 0.961 . S
C509 H525 0.960 . S
H510 C494 0.931 . S
H511 C499 0.929 . S
H512 C500 0.960 . S
H513 C500 0.962 1_455 S
H514 C500 0.960 . S
H515 C501 0.961 . S
H516 C501 0.961 . S
H517 C501 0.961 1_655 S
H518 C502 0.931 . S
H519 C507 0.930 . S
H520 C508 0.956 . S
H521 C508 0.961 1_545 S
H522 C508 0.961 . S
H523 C509 0.958 1_565 S
H524 C509 0.961 . S
H525 C509 0.960 . S
C526 C527 1.391 . S
C526 C528 1.394 . S
C526 H542 0.931 . S
C527 C526 1.391 . S
C527 C531 1.376 . S
C528 C526 1.394 . S
C528 C529 1.369 . S
C528 C532 1.531 . S
C529 C528 1.369 . S
C529 C530 1.410 . S
C529 C537 1.503 . S
C530 C529 1.410 . S
C530 C531 1.392 . S
C530 C533 1.511 . S
C531 C527 1.376 . S
C531 C530 1.392 . S
C531 H543 0.929 . S
C532 C528 1.531 . S
C532 H544 0.960 . S
C532 H545 0.962 . S
C532 H546 0.960 . S
C533 C530 1.511 . S
C533 H547 0.961 . S
C533 H548 0.961 . S
C533 H549 0.961 . S
C534 C535 1.370 . S
C534 C536 1.363 . S
C534 H550 0.931 . S
C535 C534 1.370 . S
C535 C539 1.408 . S
C536 C534 1.363 . S
C536 C537 1.370 . S
C536 C540 1.524 . S
C537 C529 1.503 . S
C537 C536 1.370 . S
C537 C538 1.403 . S
C538 C537 1.403 . S
C538 C539 1.404 . S
C538 C541 1.539 . S
C539 C535 1.408 . S
C539 C538 1.404 . S
C539 H551 0.930 . S
C540 C536 1.524 . S
C540 H552 0.956 . S
C540 H553 0.961 . S
C540 H554 0.961 . S
C541 C538 1.539 . S
C541 H555 0.958 . S
C541 H556 0.961 . S
C541 H557 0.960 . S
H542 C526 0.931 . S
H543 C531 0.929 . S
H544 C532 0.960 . S
H545 C532 0.962 . S
H546 C532 0.960 . S
H547 C533 0.961 . S
H548 C533 0.961 . S
H549 C533 0.961 . S
H550 C534 0.931 . S
H551 C539 0.930 . S
H552 C540 0.956 . S
H553 C540 0.961 . S
H554 C540 0.961 . S
H555 C541 0.958 . S
H556 C541 0.961 . S
H557 C541 0.960 . S
C558 C559 1.391 . S
C558 C560 1.394 . S
C558 H574 0.931 . S
C559 C558 1.391 . S
C559 C563 1.376 . S
C560 C558 1.394 . S
C560 C561 1.369 . S
C560 C564 1.531 . S
C561 C560 1.369 . S
C561 C562 1.410 . S
C561 C569 1.503 . S
C562 C561 1.410 . S
C562 C563 1.392 . S
C562 C565 1.511 . S
C563 C559 1.376 . S
C563 C562 1.392 . S
C563 H575 0.929 . S
C564 C560 1.531 . S
C564 H576 0.960 . S
C564 H577 0.962 . S
C564 H578 0.960 . S
C565 C562 1.511 . S
C565 H579 0.961 . S
C565 H580 0.961 . S
C565 H581 0.961 . S
C566 C567 1.370 . S
C566 C568 1.363 . S
C566 H582 0.931 . S
C567 C566 1.370 . S
C567 C571 1.408 . S
C568 C566 1.363 . S
C568 C569 1.370 . S
C568 C572 1.524 . S
C569 C561 1.503 . S
C569 C568 1.370 . S
C569 C570 1.403 . S
C570 C569 1.403 . S
C570 C571 1.404 . S
C570 C573 1.539 . S
C571 C567 1.408 . S
C571 C570 1.404 . S
C571 H583 0.930 . S
C572 C568 1.524 . S
C572 H584 0.956 . S
C572 H585 0.961 . S
C572 H586 0.961 . S
C573 C570 1.539 . S
C573 H587 0.958 . S
C573 H588 0.961 . S
C573 H589 0.960 . S
H574 C558 0.931 . S
H575 C563 0.929 . S
H576 C564 0.960 . S
H577 C564 0.962 . S
H578 C564 0.960 . S
H579 C565 0.961 . S
H580 C565 0.961 . S
H581 C565 0.961 . S
H582 C566 0.931 . S
H583 C571 0.930 . S
H584 C572 0.956 . S
H585 C572 0.961 . S
H586 C572 0.961 . S
H587 C573 0.958 . S
H588 C573 0.961 . S
H589 C573 0.960 . S
C215 C168 1.475 . S
C207 C21 1.451 . S
C239 C19 1.453 . S
C247 C128 1.460 . S
C271 C18 1.414 . S
C279 C181 1.438 . S
C303 C20 1.437 . S
C311 C141 1.452 . S
C335 C44 1.470 . S
C343 C88 1.474 . S
C367 C42 1.473 . S
C375 C48 1.451 . S
C407 C101 1.438 . S
C399 C41 1.404 . S
C439 C61 1.440 . S
C431 C43 1.439 . S
C463 C16 1.487 . S
C471 C67 1.478 . S
C495 C17 1.447 . S
C503 C107 1.451 1_545 S
C535 C147 1.477 . S
C527 C39 1.491 . S
C559 C40 1.455 . S
C567 C187 1.446 . S
