# Generated by pormake.
# Topology ssa, (4,4)-cn, num edge types: 1
# Building blocks:
#     Node 0, Type 0, BuildingBlock: NAWXER_clean_sbu_0, # of connection points: 4
#     Node 1, Type 0, BuildingBlock: NAWXER_clean_sbu_0, # of connection points: 4
#     Node 2, Type 0, BuildingBlock: NAWXER_clean_sbu_0, # of connection points: 4
#     Node 3, Type 0, BuildingBlock: NAWXER_clean_sbu_0, # of connection points: 4
#     Node 4, Type 0, BuildingBlock: NAWXER_clean_sbu_0, # of connection points: 4
#     Node 5, Type 0, BuildingBlock: NAWXER_clean_sbu_0, # of connection points: 4
#     Node 6, Type 1, BuildingBlock: ESEHIV_clean_sbu_0, # of connection points: 4
#     Node 7, Type 1, BuildingBlock: ESEHIV_clean_sbu_0, # of connection points: 4
#     Node 8, Type 1, BuildingBlock: ESEHIV_clean_sbu_0, # of connection points: 4
#     Node 9, Type 1, BuildingBlock: ESEHIV_clean_sbu_0, # of connection points: 4
#     Node 10, Type 1, BuildingBlock: ESEHIV_clean_sbu_0, # of connection points: 4
#     Node 11, Type 1, BuildingBlock: ESEHIV_clean_sbu_0, # of connection points: 4
#     Edge 12, Type (0, 1), BuildingBlock: EZIPEK_clean_linker_0, # of connection points: 2
#     Edge 13, Type (0, 1), BuildingBlock: EZIPEK_clean_linker_0, # of connection points: 2
#     Edge 14, Type (0, 1), BuildingBlock: EZIPEK_clean_linker_0, # of connection points: 2
#     Edge 15, Type (0, 1), BuildingBlock: EZIPEK_clean_linker_0, # of connection points: 2
#     Edge 16, Type (0, 1), BuildingBlock: EZIPEK_clean_linker_0, # of connection points: 2
#     Edge 17, Type (0, 1), BuildingBlock: EZIPEK_clean_linker_0, # of connection points: 2
#     Edge 18, Type (0, 1), BuildingBlock: EZIPEK_clean_linker_0, # of connection points: 2
#     Edge 19, Type (0, 1), BuildingBlock: EZIPEK_clean_linker_0, # of connection points: 2
#     Edge 20, Type (0, 1), BuildingBlock: EZIPEK_clean_linker_0, # of connection points: 2
#     Edge 21, Type (0, 1), BuildingBlock: EZIPEK_clean_linker_0, # of connection points: 2
#     Edge 22, Type (0, 1), BuildingBlock: EZIPEK_clean_linker_0, # of connection points: 2
#     Edge 23, Type (0, 1), BuildingBlock: EZIPEK_clean_linker_0, # of connection points: 2
#     Edge 24, Type (0, 1), BuildingBlock: EZIPEK_clean_linker_0, # of connection points: 2
#     Edge 25, Type (0, 1), BuildingBlock: EZIPEK_clean_linker_0, # of connection points: 2
#     Edge 26, Type (0, 1), BuildingBlock: EZIPEK_clean_linker_0, # of connection points: 2
#     Edge 27, Type (0, 1), BuildingBlock: EZIPEK_clean_linker_0, # of connection points: 2
#     Edge 28, Type (0, 1), BuildingBlock: EZIPEK_clean_linker_0, # of connection points: 2
#     Edge 29, Type (0, 1), BuildingBlock: EZIPEK_clean_linker_0, # of connection points: 2
#     Edge 30, Type (0, 1), BuildingBlock: EZIPEK_clean_linker_0, # of connection points: 2
#     Edge 31, Type (0, 1), BuildingBlock: EZIPEK_clean_linker_0, # of connection points: 2
#     Edge 32, Type (0, 1), BuildingBlock: EZIPEK_clean_linker_0, # of connection points: 2
#     Edge 33, Type (0, 1), BuildingBlock: EZIPEK_clean_linker_0, # of connection points: 2
#     Edge 34, Type (0, 1), BuildingBlock: EZIPEK_clean_linker_0, # of connection points: 2
#     Edge 35, Type (0, 1), BuildingBlock: EZIPEK_clean_linker_0, # of connection points: 2
# Relax obj value: 0.048
# Max RMSD: 0.097
# Mean RMSD: 0.064
data_MOF--net-ssa--node1-NAWXER_clean_sbu_0--node2-ESEHIV_clean_sbu_0--edge1-EZIPEK_clean_linker_0
_symmetry_space_group_name_H-M    P1
_symmetry_Int_Tables_number       1
_symmetry_cell_setting            triclinic
loop_
_symmetry_equiv_pos_as_xyz
'x, y, z'
_cell_length_a     35.263382
_cell_length_b     35.279051
_cell_length_c     25.364194
_cell_angle_alpha  90.427344
_cell_angle_beta   89.69952
_cell_angle_gamma 120.01775
loop_
_atom_site_label
_atom_site_type_symbol
_atom_site_fract_x
_atom_site_fract_y
_atom_site_fract_z
_atom_type_partial_charge
C0 C 0.0707 0.61396 0.04075 0.0
C1 C 1.01038 0.45855 0.99638 0.0
O2 O 0.04247 0.58733 0.07376 0.0
Zn3 Zn 1.00363 0.51864 0.08679 0.0
O4 O 0.08359 0.59854 1.00371 0.0
Zn5 Zn 0.04499 0.53681 1.01919 0.0
O6 O 0.98273 0.53209 1.00513 0.0
O7 O 0.94379 0.50949 0.07796 0.0
O8 O 0.03888 0.49136 0.97049 0.0
O9 O 0.99765 0.46497 0.04115 0.0
O10 O 0.02697 0.51203 0.15432 0.0
O11 O 0.07404 0.52675 0.08961 0.0
C12 C 0.94688 0.52071 0.02972 0.0
C13 C 0.06392 0.51798 0.13854 0.0
C14 C 0.54223 0.09776 0.55158 0.0
C15 C 0.56205 0.99274 0.43314 0.0
O16 O 0.52648 0.05875 0.56878 0.0
Zn17 Zn 0.52326 0.99876 0.54746 0.0
O18 O 0.55935 0.10645 0.50557 0.0
Zn19 Zn 0.55218 0.04785 0.48626 0.0
O20 O 0.48343 1.00595 0.48024 0.0
O21 O 0.45974 0.95796 0.54506 0.0
O22 O 0.57292 0.03205 0.42123 0.0
O23 O 0.54382 0.97783 0.47802 0.0
O24 O 0.56344 1.00048 0.60276 0.0
O25 O 0.59721 0.04718 0.53903 0.0
C26 C 0.45198 0.973 0.50345 0.0
C27 C 0.59895 0.03092 0.58294 0.0
C28 C 0.50509 0.44213 0.96639 0.0
C29 C 0.513 0.56927 0.06549 0.0
O30 O 0.49015 0.46683 0.95303 0.0
Zn31 Zn 0.50435 0.50432 1.0169 0.0
O32 O 0.5207 0.44617 1.01301 0.0
Zn33 Zn 0.52942 0.48688 0.08185 0.0
O34 O 0.4895 0.44816 0.13524 0.0
O35 O 0.45639 0.46666 0.07591 0.0
O36 O 0.52463 0.54603 0.09229 0.0
O37 O 0.49846 0.55706 1.01879 0.0
O38 O 0.57484 0.53561 1.02174 0.0
O39 O 0.59121 0.51297 0.09476 0.0
C40 C 0.45538 0.44811 0.11956 0.0
C41 C 0.60348 0.53653 0.05357 0.0
C42 C 0.07621 0.58961 0.49523 0.0
C43 C 0.96192 0.46242 0.59822 0.0
O44 O 0.08746 0.5863 0.54216 0.0
Zn45 Zn 0.05976 0.54554 0.61041 0.0
O46 O 0.03696 0.56336 0.48059 0.0
Zn47 Zn 1.0152 0.5265 0.54498 0.0
O48 O 1.00753 0.56687 0.60184 0.0
O49 O 0.05791 0.58507 0.6632 0.0
O50 O 0.95743 0.47249 0.55137 0.0
O51 O 0.99792 0.48653 0.62279 0.0
O52 O 0.10032 0.52333 0.61616 0.0
O53 O 0.05855 0.50089 0.54491 0.0
C54 C 1.02512 0.58661 0.64514 0.0
C55 C 0.08904 0.5018 0.57301 0.0
C56 C 0.55364 0.96313 1.00112 0.0
C57 C 0.45846 1.01242 0.92422 0.0
O58 O 0.54975 0.99125 0.02924 0.0
Zn59 Zn 0.51999 0.03088 1.02538 0.0
O60 O 0.53425 0.95157 0.95676 0.0
Zn61 Zn 0.50424 0.985 0.96194 0.0
O62 O 0.55877 0.0483 0.94574 0.0
O63 O 0.573 0.09008 1.01604 0.0
O64 O 0.46303 0.98057 0.90861 0.0
O65 O 0.47733 0.03292 0.96677 0.0
O66 O 0.48315 1.00919 0.09017 0.0
O67 O 0.46391 0.95675 0.03102 0.0
C68 C 0.58252 0.08511 0.96879 0.0
C69 C 0.45915 0.96902 0.07711 0.0
C70 C 0.60171 0.56749 0.62317 0.0
C71 C 0.46984 0.53811 0.51708 0.0
O72 O 0.57185 0.57583 0.63723 0.0
Zn73 Zn 0.53558 0.55648 0.57224 0.0
O74 O 0.60059 0.55277 0.57648 0.0
Zn75 Zn 0.55907 0.53325 0.50794 0.0
O76 O 0.59468 0.57423 0.45348 0.0
O77 O 0.57418 0.60479 0.51519 0.0
O78 O 0.49737 0.52972 0.49427 0.0
O79 O 0.47801 0.55387 0.5638 0.0
O80 O 0.51475 0.48854 0.57223 0.0
O81 O 0.54153 0.47139 0.50278 0.0
C82 C 0.59384 0.60754 0.47151 0.0
C83 C 0.51842 0.46 0.54462 0.0
Cu84 Cu 0.24814 0.47565 0.31596 0.0
N85 N 0.25925 0.44827 0.25888 0.0
N86 N 0.30155 0.43032 0.21104 0.0
C87 C 0.2842 0.42916 0.25913 0.0
C88 C 0.28523 0.4488 0.1789 0.0
C89 C 0.25952 0.46002 0.20837 0.0
O90 O 0.30446 0.50879 0.35596 0.0
C91 C 0.18428 0.48435 0.25934 0.0
O92 O 0.17132 0.4428 0.25152 0.0
H93 H 0.29385 0.41968 0.29462 0.0
H94 H 0.24678 0.48047 0.19497 0.0
N95 N 0.20733 0.43761 0.36494 0.0
N96 N 0.16467 0.4312 0.43361 0.0
C97 C 0.205 0.45357 0.41235 0.0
C98 C 0.16765 0.40206 0.35712 0.0
C99 C 0.14109 0.39822 0.39946 0.0
C100 C 0.31404 0.48671 0.38797 0.0
O101 O 0.28604 0.4447 0.39305 0.0
H102 H 0.23003 0.48535 0.42658 0.0
H103 H 0.15699 0.38374 0.32061 0.0
O104 O 0.2194 0.50751 0.28629 0.0
H105 H 0.29528 0.45808 0.13841 0.0
H106 H 0.10605 0.37631 0.40187 0.0
Cu107 Cu 0.81285 0.23846 0.78936 0.0
N108 N 0.79651 0.18562 0.75404 0.0
N109 N 0.75442 0.12503 0.70722 0.0
C110 C 0.75773 0.16113 0.73004 0.0
C111 C 0.79305 0.12707 0.71577 0.0
C112 C 0.81902 0.16456 0.74498 0.0
O113 O 0.7662 0.22487 0.84241 0.0
C114 C 0.84154 0.32393 0.73875 0.0
O115 O 0.83653 0.33901 0.78416 0.0
H116 H 0.73284 0.17035 0.72738 0.0
H117 H 0.8525 0.17635 0.75683 0.0
N118 N 0.86388 0.25551 0.8284 0.0
N119 N 0.92075 0.29796 0.88022 0.0
C120 C 0.89046 0.29627 0.84673 0.0
C121 C 0.87783 0.23041 0.85158 0.0
C122 C 0.91308 0.25664 0.88367 0.0
C123 C 0.72552 0.21118 0.83504 0.0
O124 O 0.71191 0.21419 0.78804 0.0
H125 H 0.88561 0.32364 0.83937 0.0
H126 H 0.86153 0.19513 0.84874 0.0
O127 O 0.82846 0.28314 0.73366 0.0
H128 H 0.80247 0.10441 0.69986 0.0
H129 H 0.92926 0.24574 0.91071 0.0
Cu130 Cu 0.59143 0.80429 0.24194 0.0
N131 N 0.6215 0.84059 0.18605 0.0
N132 N 0.63019 0.88061 0.11518 0.0
C133 C 0.60293 0.85661 0.15399 0.0
C134 C 0.66761 0.87981 0.12253 0.0
C135 C 0.66206 0.85474 0.16675 0.0
O136 O 0.56755 0.8352 0.28498 0.0
C137 C 0.56786 0.73026 0.17998 0.0
O138 O 0.61076 0.75105 0.17618 0.0
H139 H 0.57004 0.85106 0.15928 0.0
H140 H 0.68569 0.84724 0.18346 0.0
N141 N 0.6286 0.79464 0.28461 0.0
N142 N 0.64615 0.7583 0.34196 0.0
C143 C 0.61783 0.75536 0.30455 0.0
C144 C 0.66549 0.82362 0.30984 0.0
C145 C 0.6763 0.80118 0.34568 0.0
C146 C 0.59243 0.87619 0.29493 0.0
O147 O 0.63236 0.89644 0.27572 0.0
H148 H 0.58754 0.72566 0.29549 0.0
H149 H 0.68153 0.85875 0.30528 0.0
O150 O 0.55002 0.74735 0.2084 0.0
H151 H 0.69666 0.89648 0.09824 0.0
H152 H 0.70212 0.81545 0.37483 0.0
Cu153 Cu 0.80589 0.59322 0.83041 0.0
N154 N 0.85469 0.62779 0.78859 0.0
N155 N 0.91597 0.64282 0.74551 0.0
C156 C 0.87687 0.61123 0.76337 0.0
C157 C 0.91868 0.68102 0.75974 0.0
C158 C 0.88059 0.67161 0.78637 0.0
O159 O 0.8224 0.55276 0.86369 0.0
C160 C 0.74838 0.5754 0.73979 0.0
O161 O 0.78303 0.58519 0.71077 0.0
H162 H 0.86591 0.57658 0.7614 0.0
H163 H 0.87362 0.69491 0.8056 0.0
N164 N 0.79995 0.62541 0.88505 0.0
N165 N 0.76629 0.6328 0.95555 0.0
C166 C 0.76187 0.61027 0.91092 0.0
C167 C 0.82966 0.6597 0.91376 0.0
C168 C 0.80881 0.6642 0.95788 0.0
C169 C 0.81514 0.5405 0.9118 0.0
O170 O 0.78417 0.54287 0.93781 0.0
H171 H 0.73218 0.58062 0.89973 0.0
H172 H 0.86446 0.67755 0.90581 0.0
O173 O 0.75071 0.57181 0.78968 0.0
H174 H 0.94696 0.71311 0.7536 0.0
H175 H 0.82412 0.68638 0.99075 0.0
Cu176 Cu 0.2608 0.78572 0.28654 0.0
N177 N 0.22325 0.7594 0.22986 0.0
N178 N 0.18036 0.73626 0.15898 0.0
C179 C 0.19884 0.76803 0.19634 0.0
C180 C 0.19375 0.7075 0.16926 0.0
C181 C 0.22008 0.72184 0.21245 0.0
O182 O 0.24052 0.73624 0.33667 0.0
C183 C 0.32582 0.84861 0.22367 0.0
O184 O 0.29482 0.85888 0.22277 0.0
H185 H 0.19502 0.79657 0.19885 0.0
H186 H 0.23656 0.70621 0.23013 0.0
N187 N 0.25854 0.82859 0.32759 0.0
N188 N 0.29103 0.88126 0.38848 0.0
C189 C 0.28506 0.84297 0.36968 0.0
C190 C 0.24567 0.85821 0.31997 0.0
C191 C 0.26604 0.89111 0.35763 0.0
C192 C 0.20011 0.72048 0.34987 0.0
O193 O 0.17833 0.73817 0.3299 0.0
H194 H 0.30454 0.82861 0.38169 0.0
H195 H 0.22725 0.85864 0.28623 0.0
O196 O 0.31954 0.81584 0.25197 0.0
H197 H 0.18483 0.67805 0.14674 0.0
H198 H 0.26673 0.92213 0.35814 0.0
Cu199 Cu 0.46331 0.23382 0.7565 0.0
N200 N 0.43449 0.25254 0.71187 0.0
N201 N 0.4315 0.29657 0.65158 0.0
C202 C 0.45542 0.28032 0.67227 0.0
C203 C 0.39345 0.27771 0.67872 0.0
C204 C 0.39526 0.25013 0.71593 0.0
O205 O 0.48912 0.27844 0.8142 0.0
C206 C 0.53277 0.22009 0.70255 0.0
O207 O 0.56338 0.24377 0.73705 0.0
H208 H 0.48952 0.29225 0.66278 0.0
H209 H 0.37145 0.23276 0.74656 0.0
N210 N 0.42397 0.18141 0.78905 0.0
N211 N 0.3991 0.11378 0.82183 0.0
C212 C 0.42766 0.14526 0.78861 0.0
C213 C 0.39301 0.17389 0.82489 0.0
C214 C 0.3782 0.13284 0.84572 0.0
C215 C 0.50787 0.32006 0.80883 0.0
O216 O 0.52203 0.33704 0.76207 0.0
H217 H 0.45392 0.14418 0.76781 0.0
H218 H 0.38445 0.1979 0.83804 0.0
O219 O 0.49498 0.21611 0.70678 0.0
H220 H 0.36827 0.28657 0.67548 0.0
H221 H 0.35665 0.12059 0.87937 0.0
C222 C 0.07978 0.47762 0.21063 0.0
C223 C 0.09508 0.51378 0.17571 0.0
C224 C 0.17122 0.5361 0.20148 0.0
C225 C 0.15548 0.50097 0.23786 0.0
N226 N 0.09424 0.44766 0.28861 0.0
N227 N 0.15518 0.58425 0.15017 0.0
C228 C 0.10956 0.47502 0.24624 0.0
C229 C 0.14079 0.54514 0.17494 0.0
N230 N 0.03758 0.44378 0.20745 0.0
N231 N 0.21488 0.55957 0.19003 0.0
H232 H 0.13397 0.59291 0.13249 0.0
H233 H 0.18747 0.6098 0.15221 0.0
H234 H 0.23813 0.5545 0.2089 0.0
H235 H 0.22759 0.58194 0.15924 0.0
H236 H 0.02629 0.41471 0.22825 0.0
H237 H 1.01511 0.44232 0.17988 0.0
H238 H 0.06135 0.43105 0.29968 0.0
H239 H 0.11506 0.44547 0.31594 0.0
C240 C 0.67318 0.09797 0.60243 0.0
C241 C 0.64171 0.05277 0.61225 0.0
C242 C 0.68869 0.05396 0.68442 0.0
C243 C 0.72045 0.09726 0.67092 0.0
N244 N 0.74965 0.15372 0.60597 0.0
N245 N 0.62836 0.98523 0.65315 0.0
C246 C 0.71502 0.11647 0.62555 0.0
C247 C 0.65201 0.02982 0.65048 0.0
N248 N 0.66282 0.12517 0.57577 0.0
N249 N 0.69291 0.03642 0.73021 0.0
H250 H 0.60388 0.96607 0.62618 0.0
H251 H 0.63675 0.96717 0.67796 0.0
H252 H 0.71983 0.05338 0.75506 0.0
H253 H 0.66838 1.00658 0.74488 0.0
H254 H 0.68445 0.15871 0.57242 0.0
H255 H 0.63158 0.11716 0.56393 0.0
H256 H 0.74841 0.16724 0.57003 0.0
H257 H 0.78077 0.16796 0.62286 0.0
C258 C 0.50055 0.60873 0.14127 0.0
C259 C 0.5179 0.61051 0.08996 0.0
C260 C 0.55222 0.69083 0.09316 0.0
C261 C 0.54256 0.68917 0.14784 0.0
N262 N 0.50792 0.64576 0.2249 0.0
N263 N 0.56296 0.6547 1.01773 0.0
C264 C 0.51617 0.64789 0.17202 0.0
C265 C 0.54382 0.65194 0.06561 0.0
N266 N 0.46826 0.56959 0.16013 0.0
N267 N 0.56933 0.72993 0.06751 0.0
H268 H 0.55838 0.6275 0.9962 0.0
H269 H 0.5864 0.68422 1.00122 0.0
H270 H 0.575 0.75859 0.08663 0.0
H271 H 0.5734 0.733 1.02677 0.0
H272 H 0.45112 0.56679 0.19476 0.0
H273 H 0.45531 0.54069 0.13808 0.0
H274 H 0.49371 0.61661 0.24603 0.0
H275 H 0.51762 0.67349 0.24831 0.0
C276 C 0.98995 0.596 0.72776 0.0
C277 C 1.00432 0.60811 0.67482 0.0
C278 C 0.96242 0.64656 0.66996 0.0
C279 C 0.94975 0.63592 0.7232 0.0
N280 N 0.96084 0.61144 0.80674 0.0
N281 N 1.01286 0.6539 0.6003 0.0
C282 C 0.96681 0.6143 0.75338 0.0
C283 C 0.99332 0.63637 0.64748 0.0
N284 N 0.99518 0.56459 0.75242 0.0
N285 N 0.9431 0.66422 0.64008 0.0
H286 H 0.03612 0.64766 0.5832 0.0
H287 H 1.00927 0.67782 0.58086 0.0
H288 H 0.92014 0.67174 0.6554 0.0
H289 H 0.94722 0.6682 0.59942 0.0
H290 H 0.98084 0.55123 0.78865 0.0
H291 H 1.01017 0.54865 0.73493 0.0
H292 H 0.97578 0.5995 0.83171 0.0
H293 H 0.94462 0.62531 0.82642 0.0
C294 C 0.38175 0.90887 0.09867 0.0
C295 C 0.42613 0.93549 0.11457 0.0
C296 C 0.4071 0.89776 0.20094 0.0
C297 C 0.36282 0.87177 0.18483 0.0
N298 N 0.31222 0.84249 0.11265 0.0
N299 N 0.48297 0.94537 0.17491 0.0
C300 C 0.35162 0.8743 0.13183 0.0
C301 C 0.4394 0.92708 0.16408 0.0
N302 N 0.36763 0.91755 0.05269 0.0
N303 N 0.41821 0.89549 0.25177 0.0
H304 H 0.50748 0.96665 0.14921 0.0
H305 H 0.49465 0.93568 0.2066 0.0
H306 H 0.39584 0.87354 0.27893 0.0
H307 H 0.4489 0.9168 0.26756 0.0
H308 H 0.33472 0.90292 0.04226 0.0
H309 H 0.38835 0.94198 1.02683 0.0
H310 H 0.30366 0.8397 0.07299 0.0
H311 H 0.29028 0.81591 0.13546 0.0
C312 C 0.46541 0.37813 0.54073 0.0
C313 C 0.49933 0.41547 0.56673 0.0
C314 C 0.48127 0.37565 0.64945 0.0
C315 C 0.45041 0.33712 0.62325 0.0
N316 N 0.4162 0.29918 0.54306 0.0
N317 N 0.54862 0.44398 0.64064 0.0
C318 C 0.44337 0.33756 0.5684 0.0
C319 C 0.51003 0.41241 0.61954 0.0
N320 N 0.4534 0.38169 0.49077 0.0
N321 N 0.48219 0.3775 0.70319 0.0
H322 H 0.5716 0.47063 0.61878 0.0
H323 H 0.55981 0.44048 0.67724 0.0
H324 H 0.45981 0.35151 0.72635 0.0
H325 H 0.50199 0.40626 0.72419 0.0
H326 H 0.42595 0.35682 0.47192 0.0
H327 H 0.46967 0.41058 0.46919 0.0
H328 H 0.41272 0.29636 0.50225 0.0
H329 H 0.39908 0.26958 0.56321 0.0
C330 C 0.56004 0.96031 0.34145 0.0
C331 C 0.56971 0.96314 0.39635 0.0
C332 C 0.58384 0.90145 0.38524 0.0
C333 C 0.57882 0.90194 0.32987 0.0
N334 N 0.56986 0.93755 0.2542 0.0
N335 N 0.60218 0.94308 0.46673 0.0
C336 C 0.56932 0.93317 0.30771 0.0
C337 C 0.58445 0.93529 0.41729 0.0
N338 N 0.53998 0.98169 0.32157 0.0
N339 N 0.58876 0.86898 0.40736 0.0
H340 H 0.60696 0.96965 0.4899 0.0
H341 H 0.61714 0.92658 0.48223 0.0
H342 H 0.58956 0.8444 0.38509 0.0
H343 H 0.58801 0.86417 0.44792 0.0
H344 H 0.5291 0.97805 0.28284 0.0
H345 H 0.53021 0.99979 0.34471 0.0
H346 H 0.5697 0.96383 0.23596 0.0
H347 H 0.57378 0.9167 0.22818 0.0
C348 C 0.66424 0.61005 1.02626 0.0
C349 C 0.65052 0.56644 0.04204 0.0
C350 C 0.72432 0.57987 1.02427 0.0
C351 C 0.73356 0.61795 0.99622 0.0
N352 N 0.71358 0.67083 0.9708 0.0
N353 N 0.66786 0.50852 0.05273 0.0
C354 C 0.70415 0.63396 0.9981 0.0
C355 C 0.68089 0.55112 0.04139 0.0
N356 N 0.63953 0.62869 0.03901 0.0
N357 N 0.75717 0.5711 0.03333 0.0
H358 H 0.63594 0.48543 0.06314 0.0
H359 H 0.688 0.49505 0.04716 0.0
H360 H 0.78929 0.59295 1.02199 0.0
H361 H 0.75349 0.54536 0.05683 0.0
H362 H 0.64965 0.66145 0.03195 0.0
H363 H 0.61125 0.6126 0.06197 0.0
H364 H 0.69118 0.68155 0.96555 0.0
H365 H 0.74339 0.68935 0.95127 0.0
C366 C 0.13731 0.66691 0.47448 0.0
C367 C 0.11038 0.62247 0.45818 0.0
C368 C 0.14904 0.64094 0.37235 0.0
C369 C 0.17659 0.68481 0.3895 0.0
N370 N 0.20349 0.73709 0.46043 0.0
N371 N 0.09906 0.56533 0.39632 0.0
C372 C 0.17286 0.69679 0.44189 0.0
C373 C 0.11865 0.60893 0.40838 0.0
N374 N 0.12746 0.68142 0.51978 0.0
N375 N 0.15118 0.63007 0.32104 0.0
H376 H 0.0782 0.54083 0.42219 0.0
H377 H 0.10679 0.55318 0.36293 0.0
H378 H 0.17466 0.65193 0.29474 0.0
H379 H 0.12848 0.60035 0.30396 0.0
H380 H 0.1426 0.71425 0.53086 0.0
H381 H 0.10129 0.66126 0.54412 0.0
H382 H 0.20552 0.74664 0.49973 0.0
H383 H 0.22965 0.75946 0.43734 0.0
C384 C 0.39941 0.03244 0.9141 0.0
C385 C 0.4345 0.02863 0.89173 0.0
C386 C 0.4272 0.06164 0.81032 0.0
C387 C 0.40031 0.07452 0.83754 0.0
N388 N 0.33816 0.04306 0.89539 0.0
N389 N 0.48254 0.04073 0.81712 0.0
C390 C 0.3795 0.0516 0.88405 0.0
C391 C 0.44792 0.0425 0.83888 0.0
N392 N 0.38554 0.01868 0.9643 0.0
N393 N 0.42983 0.06442 0.75671 0.0
H394 H 0.50027 0.02889 0.8369 0.0
H395 H 0.49606 0.05447 0.78075 0.0
H396 H 0.4107 0.07377 0.73518 0.0
H397 H 0.44602 0.05224 0.73383 0.0
H398 H 0.36366 0.02541 0.98431 0.0
H399 H 0.3979 1.0029 0.987 0.0
H400 H 0.31969 0.02351 0.92675 0.0
H401 H 0.32015 0.04971 0.86821 0.0
C402 C 0.41244 0.55619 0.48095 0.0
C403 C 0.42807 0.52628 0.48817 0.0
C404 C 0.37705 0.47893 0.41995 0.0
C405 C 0.35681 0.50505 0.41755 0.0
N406 N 0.35186 0.56599 0.45357 0.0
N407 N 0.4141 0.45255 0.47535 0.0
C408 C 0.37363 0.54317 0.45012 0.0
C409 C 0.40694 0.48569 0.46092 0.0
N410 N 0.43517 0.5974 0.50176 0.0
N411 N 0.36908 0.44842 0.38176 0.0
H412 H 0.43336 0.45497 0.50769 0.0
H413 H 0.39652 0.42107 0.45943 0.0
H414 H 0.35012 0.44476 0.34882 0.0
H415 H 0.38594 0.43118 0.3794 0.0
H416 H 0.42801 0.62195 0.49297 0.0
H417 H 0.46338 0.60814 0.52428 0.0
H418 H 0.35993 0.59111 0.48084 0.0
H419 H 0.32356 0.55754 0.43215 0.0
C420 C 0.94251 0.38415 0.9798 0.0
C421 C 0.98857 0.41347 0.97294 0.0
C422 C 0.99052 0.36252 0.90771 0.0
C423 C 0.94549 0.3335 0.91626 0.0
N424 N 0.88231 0.3097 0.9714 0.0
N425 N 0.0578 0.42255 0.9426 0.0
C426 C 0.92297 0.342 0.95636 0.0
C427 C 1.0131 0.40024 0.94053 0.0
N428 N 0.91613 0.39691 1.00466 0.0
N429 N 1.0113 0.35457 0.86728 0.0
H430 H 0.07538 0.44833 0.9689 0.0
H431 H 0.07707 0.41227 0.92282 0.0
H432 H 0.99545 0.32652 0.84372 0.0
H433 H 0.04303 0.37697 0.85523 0.0
H434 H 0.88207 0.37809 1.00424 0.0
H435 H 0.92649 0.42763 1.02076 0.0
H436 H 0.866 0.31232 1.00439 0.0
H437 H 0.86704 0.27859 0.95424 0.0
C438 C 0.89306 0.49917 0.95325 0.0
C439 C 0.91058 0.52283 1.00142 0.0
C440 C 0.8698 0.56147 0.9862 0.0
C441 C 0.84814 0.53409 0.94198 0.0
N442 N 0.83488 0.47236 0.88794 0.0
N443 N 0.91049 0.57298 0.0669 0.0
C444 C 0.85864 0.50168 0.92675 0.0
C445 C 0.89683 0.55235 1.01919 0.0
N446 N 0.90976 0.47491 0.9319 0.0
N447 N 0.86771 0.59869 0.99429 0.0
H448 H 0.93298 0.57045 0.09087 0.0
H449 H 0.897 0.59034 0.08449 0.0
H450 H 0.85134 0.60854 0.96882 0.0
H451 H 0.88645 0.62247 1.02225 0.0
H452 H 0.90204 0.46138 0.89415 0.0
H453 H 0.934 0.47102 0.94991 0.0
H454 H 0.83751 0.44491 0.87895 0.0
H455 H 0.80968 0.47333 0.86775 0.0
C456 C 0.40893 0.94193 0.4208 0.0
C457 C 0.40886 0.94962 0.47586 0.0
C458 C 0.32852 0.91463 0.47291 0.0
C459 C 0.32988 0.91117 0.41735 0.0
N460 N 0.3724 0.93239 0.33753 0.0
N461 N 0.36863 0.94974 0.55313 0.0
C462 C 0.37057 0.92895 0.39113 0.0
C463 C 0.3686 0.93781 0.50181 0.0
N464 N 0.44457 0.94338 0.39729 0.0
N465 N 0.28893 0.89478 0.49786 0.0
H466 H 0.39731 0.96719 0.57499 0.0
H467 H 0.34067 0.94543 0.57257 0.0
H468 H 0.25949 0.87902 0.47701 0.0
H469 H 0.28549 0.89197 0.53869 0.0
H470 H 0.4447 0.93433 0.35816 0.0
H471 H 0.47164 0.94769 0.41847 0.0
H472 H 0.40188 0.94956 0.31703 0.0
H473 H 0.34463 0.9223 0.31433 0.0
C474 C 0.54631 0.41742 0.90541 0.0
C475 C 0.50595 0.40974 0.92781 0.0
C476 C 0.46678 0.34316 0.87254 0.0
C477 C 0.50734 0.3491 0.85273 0.0
N478 N 0.58608 0.38873 0.85618 0.0
N479 N 0.42859 0.36118 0.9395 0.0
C480 C 0.5472 0.38544 0.87087 0.0
C481 C 0.46647 0.37137 0.91331 0.0
N482 N 0.58373 0.45615 0.91565 0.0
N483 N 0.42831 0.31211 0.85035 0.0
H484 H 0.42696 0.38115 0.96891 0.0
H485 H 0.39974 0.33128 0.93536 0.0
H486 H 0.42669 0.29108 0.82031 0.0
H487 H 0.39817 0.30964 0.85842 0.0
H488 H 0.61327 0.46629 0.8961 0.0
H489 H 0.58453 0.47996 0.94101 0.0
H490 H 0.61624 0.41167 0.8719 0.0
H491 H 0.58788 0.36594 0.83139 0.0
C492 C 0.14294 0.51184 0.50502 0.0
C493 C 0.11656 0.48639 0.54739 0.0
C494 C 0.127 0.4257 0.5187 0.0
C495 C 0.14735 0.44902 0.47195 0.0
N496 N 0.16369 0.50995 0.41493 0.0
N497 N 0.08089 0.4182 0.5942 0.0
C498 C 0.15253 0.49107 0.46358 0.0
C499 C 0.10802 0.44301 0.55446 0.0
N500 N 0.15828 0.55587 0.50414 0.0
N501 N 0.12653 0.38758 0.52903 0.0
H502 H 0.06833 0.431 0.62203 0.0
H503 H 0.06945 0.38483 0.59806 0.0
H504 H 0.14028 0.37452 0.50331 0.0
H505 H 0.11552 0.37082 0.56451 0.0
H506 H 0.18031 0.57661 0.47586 0.0
H507 H 0.15292 0.57214 0.53524 0.0
H508 H 0.16471 0.5392 0.40592 0.0
H509 H 0.16668 0.49392 0.38192 0.0
C510 C 0.62699 0.16194 0.92997 0.0
C511 C 0.62196 0.11994 0.9398 0.0
C512 C 0.6864 0.13907 0.88328 0.0
C513 C 0.69241 0.18156 0.87499 0.0
N514 N 0.67294 0.23604 0.89678 0.0
N515 N 0.65083 0.07081 0.93075 0.0
C516 C 0.664 0.19373 0.90035 0.0
C517 C 0.65285 0.10933 0.91787 0.0
N518 N 0.59501 0.17058 0.94606 0.0
N519 N 0.71125 0.12588 0.85572 0.0
H520 H 0.62498 0.04596 0.95136 0.0
H521 H 0.67614 0.0643 0.92367 0.0
H522 H 0.73823 0.14691 0.83319 0.0
H523 H 0.70375 0.09341 0.85257 0.0
H524 H 0.59392 0.19839 0.93516 0.0
H525 H 0.56741 0.14824 0.96711 0.0
H526 H 0.65656 0.24864 0.91845 0.0
H527 H 0.69943 0.25969 0.87522 0.0
C528 C 0.58185 0.66585 0.43286 0.0
C529 C 0.60969 0.64781 0.43936 0.0
C530 C 0.66396 0.7049 0.38144 0.0
C531 C 0.63744 0.72452 0.37952 0.0
N532 N 0.57825 0.73129 0.41654 0.0
N533 N 0.68131 0.6556 0.42798 0.0
C534 C 0.5988 0.7075 0.40985 0.0
C535 C 0.65207 0.66889 0.41598 0.0
N536 N 0.53828 0.64199 0.44473 0.0
N537 N 0.69953 0.71978 0.34906 0.0
H538 H 0.67411 0.63024 0.45422 0.0
H539 H 0.71388 0.6723 0.41574 0.0
H540 H 0.70895 0.74632 0.32395 0.0
H541 H 0.71766 0.70401 0.34457 0.0
H542 H 0.5162 0.65258 0.43618 0.0
H543 H 0.52313 0.60942 0.45627 0.0
H544 H 0.55175 0.72182 0.44204 0.0
H545 H 0.59085 0.76273 0.40127 0.0
C546 C 0.52937 0.16188 0.5721 0.0
C547 C 0.54347 0.13237 0.58846 0.0
C548 C 0.54933 0.15984 0.67995 0.0
C549 C 0.53917 0.19189 0.66278 0.0
N550 N 0.52702 0.22846 0.59056 0.0
N551 N 0.5771 0.11176 0.65736 0.0
C552 C 0.53148 0.1944 0.6082 0.0
C553 C 0.5565 0.13396 0.64216 0.0
N554 N 0.51155 0.15741 0.52318 0.0
N555 N 0.54972 0.15206 0.73265 0.0
H556 H 0.58337 0.09233 0.63204 0.0
H557 H 0.59208 0.11621 0.69398 0.0
H558 H 0.54316 0.16886 0.76195 0.0
H559 H 0.55221 0.12588 0.74726 0.0
H560 H 0.49633 0.17469 0.51113 0.0
H561 H 0.50816 0.13349 0.49622 0.0
H562 H 0.52584 0.2348 0.55074 0.0
H563 H 0.52868 0.25283 0.61562 0.0
C564 C 0.37439 0.40125 0.1341 0.0
C565 C 0.41609 0.43271 0.15392 0.0
C566 C 0.38129 0.45738 0.21894 0.0
C567 C 0.33954 0.42662 0.19838 0.0
N568 N 0.29523 0.36295 0.14578 0.0
N569 N 0.45829 0.48052 0.22583 0.0
C570 C 0.33587 0.39625 0.15912 0.0
C571 C 0.41913 0.45681 0.20041 0.0
N572 N 0.37188 0.37721 0.09042 0.0
N573 N 0.38549 0.48979 0.25246 0.0
H574 H 0.48721 0.48234 0.21308 0.0
H575 H 0.46126 0.49486 0.26275 0.0
H576 H 0.35942 0.49379 0.26421 0.0
H577 H 0.41548 0.51541 0.26524 0.0
H578 H 0.34296 0.35733 0.07005 0.0
H579 H 0.39949 0.37832 0.07355 0.0
H580 H 0.28976 0.33748 0.12025 0.0
H581 H 0.26689 0.35909 0.16399 0.0
C582 C 0.88834 0.42226 0.64495 0.0
C583 C 0.92659 0.4229 0.6257 0.0
C584 C 0.90842 0.35776 0.67878 0.0
C585 C 0.86896 0.35572 0.69639 0.0
N586 N 0.81722 0.38092 0.68752 0.0
N587 N 0.96733 0.38547 0.61432 0.0
C588 C 0.85769 0.38647 0.67673 0.0
C589 C 0.93463 0.38866 0.63941 0.0
N590 N 0.88229 0.45689 0.63504 0.0
N591 N 0.92278 0.33244 0.70215 0.0
H592 H 0.98692 0.40742 0.58521 0.0
H593 H 0.97214 0.35881 0.61844 0.0
H594 H 0.90586 0.3103 0.73215 0.0
H595 H 0.95369 0.33633 0.69537 0.0
H596 H 0.85807 0.46112 0.65314 0.0
H597 H 0.90342 0.4831 0.61126 0.0
H598 H 0.80522 0.39951 0.67029 0.0
H599 H 0.79398 0.35495 0.71004 0.0
C600 C 0.56401 0.89778 1.01626 0.0
C601 C 0.57911 0.94338 1.02272 0.0
C602 C 0.63405 0.9486 0.08618 0.0
C603 C 0.62034 0.90418 0.07705 0.0
N604 N 0.58159 0.83976 1.02404 0.0
N605 N 0.63693 1.01411 0.05483 0.0
C606 C 0.58879 0.88019 0.03822 0.0
C607 C 0.61691 0.96947 0.0546 0.0
N608 N 0.52408 0.87017 0.99428 0.0
N609 N 0.66144 0.97021 0.12735 0.0
H610 H 0.62587 0.03171 0.0337 0.0
H611 H 0.66718 0.0341 0.07262 0.0
H612 H 0.67514 0.95603 0.15081 0.0
H613 H 0.66794 1.00092 0.14057 0.0
H614 H 0.51042 0.83628 0.99343 0.0
H615 H 0.50188 0.87978 0.98288 0.0
H616 H 0.56143 0.82173 0.99274 0.0
H617 H 0.59973 0.82672 0.04025 0.0
C618 C 0.68212 0.60595 0.6471 0.0
C619 C 0.63823 0.5742 0.6595 0.0
C620 C 0.66563 0.5431 0.72629 0.0
C621 C 0.70963 0.57584 0.71504 0.0
N622 N 0.75708 0.64723 0.67764 0.0
N623 N 0.58833 0.52044 0.72108 0.0
C624 C 0.71711 0.6098 0.67907 0.0
C625 C 0.63005 0.54551 0.70262 0.0
N626 N 0.69064 0.63273 0.60468 0.0
N627 N 0.65755 0.50815 0.75696 0.0
H628 H 0.56148 0.52043 0.70408 0.0
H629 H 0.58088 0.50237 0.75572 0.0
H630 H 0.68233 0.5042 0.77351 0.0
H631 H 0.62644 0.48102 0.76193 0.0
H632 H 0.72206 0.65252 0.58966 0.0
H633 H 0.66605 0.63335 0.58264 0.0
H634 H 0.76325 0.67463 0.65577 0.0
H635 H 0.78251 0.65319 0.70328 0.0
C636 C 0.13372 0.69171 0.03164 0.0
C637 C 0.09184 0.66201 0.05193 0.0
C638 C 0.10537 0.70863 0.12911 0.0
C639 C 0.15045 0.72944 0.11696 0.0
N640 N 0.20673 0.75194 0.05202 0.0
N641 N 0.0311 0.6579 0.10007 0.0
C642 C 0.1639 0.72571 0.06543 0.0
C643 C 0.07526 0.67609 0.09403 0.0
N644 N 0.14395 0.68743 0.98086 0.0
N645 N 0.09231 0.71663 0.17651 0.0
H646 H 1.00934 0.63553 0.07252 0.0
H647 H 1.01666 0.66817 0.12842 0.0
H648 H 0.1142 0.74119 0.20184 0.0
H649 H 0.06045 0.69859 0.1909 0.0
H650 H 0.17378 0.70859 0.96306 0.0
H651 H 0.12039 0.66504 0.95492 0.0
H652 H 0.22083 0.749 1.01724 0.0
H653 H 0.2281 0.77691 0.07734 0.0
loop_
_geom_bond_atom_site_label_1
_geom_bond_atom_site_label_2
_geom_bond_distance
_geom_bond_site_symmetry_2
_ccdc_geom_bond_type
C0 O2 1.247 . S
C0 O4 1.258 . S
C1 O8 1.247 1_655 S
C1 O9 1.258 . S
O2 C0 1.247 . S
O2 Zn3 2.028 1_455 S
Zn3 O2 2.028 1_655 S
Zn3 O7 2.035 1_554 S
Zn3 O9 2.035 1_554 S
Zn3 O10 2.028 1_655 S
O4 C0 1.258 . S
O4 Zn5 2.035 1_554 S
Zn5 O4 2.035 1_556 S
Zn5 O6 2.028 . S
Zn5 O8 2.028 . S
Zn5 O11 2.035 1_556 S
O6 Zn5 2.028 . S
O6 C12 1.247 1_455 S
O7 Zn3 2.035 1_556 S
O7 C12 1.258 . S
O8 C1 1.247 1_455 S
O8 Zn5 2.028 . S
O9 C1 1.258 . S
O9 Zn3 2.035 1_556 S
O10 Zn3 2.028 1_455 S
O10 C13 1.247 . S
O11 Zn5 2.035 1_554 S
O11 C13 1.258 . S
C12 O6 1.247 1_655 S
C12 O7 1.258 . S
C13 O10 1.247 . S
C13 O11 1.258 . S
C14 O16 1.247 . S
C14 O18 1.258 . S
C15 O22 1.247 1_565 S
C15 O23 1.258 . S
O16 C14 1.247 . S
O16 Zn17 2.028 1_545 S
Zn17 O16 2.028 1_565 S
Zn17 O21 2.035 . S
Zn17 O23 2.035 . S
Zn17 O24 2.028 1_565 S
O18 C14 1.258 . S
O18 Zn19 2.035 . S
Zn19 O18 2.035 . S
Zn19 O20 2.028 . S
Zn19 O22 2.028 . S
Zn19 O25 2.035 . S
O20 Zn19 2.028 . S
O20 C26 1.247 1_545 S
O21 Zn17 2.035 . S
O21 C26 1.258 . S
O22 C15 1.247 1_545 S
O22 Zn19 2.028 . S
O23 C15 1.258 . S
O23 Zn17 2.035 . S
O24 Zn17 2.028 1_545 S
O24 C27 1.247 . S
O25 Zn19 2.035 . S
O25 C27 1.258 . S
C26 O20 1.247 1_565 S
C26 O21 1.258 . S
C27 O24 1.247 . S
C27 O25 1.258 . S
C28 O30 1.247 . S
C28 O32 1.258 . S
C29 O36 1.247 . S
C29 O37 1.258 . S
O30 C28 1.247 . S
O30 Zn31 2.028 . S
Zn31 O30 2.028 . S
Zn31 O35 2.035 1_556 S
Zn31 O37 2.035 1_556 S
Zn31 O38 2.028 . S
O32 C28 1.258 . S
O32 Zn33 2.035 1_556 S
Zn33 O32 2.035 1_554 S
Zn33 O34 2.028 . S
Zn33 O36 2.028 . S
Zn33 O39 2.035 1_554 S
O34 Zn33 2.028 . S
O34 C40 1.247 . S
O35 Zn31 2.035 1_554 S
O35 C40 1.258 . S
O36 C29 1.247 . S
O36 Zn33 2.028 . S
O37 C29 1.258 . S
O37 Zn31 2.035 1_554 S
O38 Zn31 2.028 . S
O38 C41 1.247 . S
O39 Zn33 2.035 1_556 S
O39 C41 1.258 . S
C40 O34 1.247 . S
C40 O35 1.258 . S
C41 O38 1.247 . S
C41 O39 1.258 . S
C42 O44 1.247 . S
C42 O46 1.258 . S
C43 O50 1.247 . S
C43 O51 1.258 . S
O44 C42 1.247 . S
O44 Zn45 2.028 . S
Zn45 O44 2.028 . S
Zn45 O49 2.035 1_455 S
Zn45 O51 2.035 1_455 S
Zn45 O52 2.028 . S
O46 C42 1.258 . S
O46 Zn47 2.035 1_455 S
Zn47 O46 2.035 1_655 S
Zn47 O48 2.028 . S
Zn47 O50 2.028 . S
Zn47 O53 2.035 1_655 S
O48 Zn47 2.028 . S
O48 C54 1.247 . S
O49 Zn45 2.035 1_655 S
O49 C54 1.258 . S
O50 C43 1.247 . S
O50 Zn47 2.028 . S
O51 C43 1.258 . S
O51 Zn45 2.035 1_655 S
O52 Zn45 2.028 . S
O52 C55 1.247 . S
O53 Zn47 2.035 1_455 S
O53 C55 1.258 . S
C54 O48 1.247 . S
C54 O49 1.258 . S
C55 O52 1.247 . S
C55 O53 1.258 . S
C56 O58 1.247 . S
C56 O60 1.258 . S
C57 O64 1.247 . S
C57 O65 1.258 . S
O58 C56 1.247 . S
O58 Zn59 2.028 1_565 S
Zn59 O58 2.028 1_545 S
Zn59 O63 2.035 1_554 S
Zn59 O65 2.035 1_554 S
Zn59 O66 2.028 1_545 S
O60 C56 1.258 . S
O60 Zn61 2.035 1_554 S
Zn61 O60 2.035 1_556 S
Zn61 O62 2.028 1_565 S
Zn61 O64 2.028 1_565 S
Zn61 O67 2.035 1_556 S
O62 Zn61 2.028 1_545 S
O62 C68 1.247 . S
O63 Zn59 2.035 1_556 S
O63 C68 1.258 . S
O64 C57 1.247 . S
O64 Zn61 2.028 1_545 S
O65 C57 1.258 . S
O65 Zn59 2.035 1_556 S
O66 Zn59 2.028 1_565 S
O66 C69 1.247 . S
O67 Zn61 2.035 1_554 S
O67 C69 1.258 . S
C68 O62 1.247 . S
C68 O63 1.258 . S
C69 O66 1.247 . S
C69 O67 1.258 . S
C70 O72 1.247 . S
C70 O74 1.258 . S
C71 O78 1.247 . S
C71 O79 1.258 . S
O72 C70 1.247 . S
O72 Zn73 2.028 . S
Zn73 O72 2.028 . S
Zn73 O77 2.035 . S
Zn73 O79 2.035 . S
Zn73 O80 2.028 . S
O74 C70 1.258 . S
O74 Zn75 2.035 . S
Zn75 O74 2.035 . S
Zn75 O76 2.028 . S
Zn75 O78 2.028 . S
Zn75 O81 2.035 . S
O76 Zn75 2.028 . S
O76 C82 1.247 . S
O77 Zn73 2.035 . S
O77 C82 1.258 . S
O78 C71 1.247 . S
O78 Zn75 2.028 . S
O79 C71 1.258 . S
O79 Zn73 2.035 . S
O80 Zn73 2.028 . S
O80 C83 1.247 . S
O81 Zn75 2.035 . S
O81 C83 1.258 . S
C82 O76 1.247 . S
C82 O77 1.258 . S
C83 O80 1.247 . S
C83 O81 1.258 . S
Cu84 N85 1.999 . S
Cu84 O90 1.974 . S
Cu84 N95 1.985 . S
Cu84 O104 1.959 . S
N85 Cu84 1.999 . S
N85 C87 1.263 . S
N85 C89 1.389 . S
N86 C87 1.358 . S
N86 C88 1.400 . S
C87 N85 1.263 . S
C87 N86 1.358 . S
C87 H93 0.930 . S
C88 N86 1.400 . S
C88 C89 1.351 . S
C88 H105 0.930 . S
C89 N85 1.389 . S
C89 C88 1.351 . S
C89 H94 0.930 . S
O90 Cu84 1.974 . S
O90 C100 1.282 . S
C91 O92 1.261 . S
C91 O104 1.251 . S
O92 C91 1.261 . S
H93 C87 0.930 . S
H94 C89 0.930 . S
N95 Cu84 1.985 . S
N95 C97 1.335 . S
N95 C98 1.390 . S
N96 C97 1.345 . S
N96 C99 1.336 . S
C97 N95 1.335 . S
C97 N96 1.345 . S
C97 H102 0.930 . S
C98 N95 1.390 . S
C98 C99 1.346 . S
C98 H103 0.930 . S
C99 N96 1.336 . S
C99 C98 1.346 . S
C99 H106 0.929 . S
C100 O90 1.282 . S
C100 O101 1.216 . S
O101 C100 1.216 . S
H102 C97 0.930 . S
H103 C98 0.930 . S
O104 Cu84 1.959 . S
O104 C91 1.251 . S
H105 C88 0.930 . S
H106 C99 0.929 . S
Cu107 N108 1.999 . S
Cu107 O113 1.974 . S
Cu107 N118 1.985 . S
Cu107 O127 1.959 . S
N108 Cu107 1.999 . S
N108 C110 1.263 . S
N108 C112 1.389 . S
N109 C110 1.358 . S
N109 C111 1.400 . S
C110 N108 1.263 . S
C110 N109 1.358 . S
C110 H116 0.930 . S
C111 N109 1.400 . S
C111 C112 1.351 . S
C111 H128 0.930 . S
C112 N108 1.389 . S
C112 C111 1.351 . S
C112 H117 0.930 . S
O113 Cu107 1.974 . S
O113 C123 1.282 . S
C114 O115 1.261 . S
C114 O127 1.251 . S
O115 C114 1.261 . S
H116 C110 0.930 . S
H117 C112 0.930 . S
N118 Cu107 1.985 . S
N118 C120 1.335 . S
N118 C121 1.390 . S
N119 C120 1.345 . S
N119 C122 1.336 . S
C120 N118 1.335 . S
C120 N119 1.345 . S
C120 H125 0.930 . S
C121 N118 1.390 . S
C121 C122 1.346 . S
C121 H126 0.930 . S
C122 N119 1.336 . S
C122 C121 1.346 . S
C122 H129 0.929 . S
C123 O113 1.282 . S
C123 O124 1.216 . S
O124 C123 1.216 . S
H125 C120 0.930 . S
H126 C121 0.930 . S
O127 Cu107 1.959 . S
O127 C114 1.251 . S
H128 C111 0.930 . S
H129 C122 0.929 . S
Cu130 N131 1.999 . S
Cu130 O136 1.974 . S
Cu130 N141 1.985 . S
Cu130 O150 1.959 . S
N131 Cu130 1.999 . S
N131 C133 1.263 . S
N131 C135 1.389 . S
N132 C133 1.358 . S
N132 C134 1.400 . S
C133 N131 1.263 . S
C133 N132 1.358 . S
C133 H139 0.930 . S
C134 N132 1.400 . S
C134 C135 1.351 . S
C134 H151 0.930 . S
C135 N131 1.389 . S
C135 C134 1.351 . S
C135 H140 0.930 . S
O136 Cu130 1.974 . S
O136 C146 1.282 . S
C137 O138 1.261 . S
C137 O150 1.251 . S
O138 C137 1.261 . S
H139 C133 0.930 . S
H140 C135 0.930 . S
N141 Cu130 1.985 . S
N141 C143 1.335 . S
N141 C144 1.390 . S
N142 C143 1.345 . S
N142 C145 1.336 . S
C143 N141 1.335 . S
C143 N142 1.345 . S
C143 H148 0.930 . S
C144 N141 1.390 . S
C144 C145 1.346 . S
C144 H149 0.930 . S
C145 N142 1.336 . S
C145 C144 1.346 . S
C145 H152 0.929 . S
C146 O136 1.282 . S
C146 O147 1.216 . S
O147 C146 1.216 . S
H148 C143 0.930 . S
H149 C144 0.930 . S
O150 Cu130 1.959 . S
O150 C137 1.251 . S
H151 C134 0.930 . S
H152 C145 0.929 . S
Cu153 N154 1.999 . S
Cu153 O159 1.974 . S
Cu153 N164 1.985 . S
Cu153 O173 1.959 . S
N154 Cu153 1.999 . S
N154 C156 1.263 . S
N154 C158 1.389 . S
N155 C156 1.358 . S
N155 C157 1.400 . S
C156 N154 1.263 . S
C156 N155 1.358 . S
C156 H162 0.930 . S
C157 N155 1.400 . S
C157 C158 1.351 . S
C157 H174 0.930 . S
C158 N154 1.389 . S
C158 C157 1.351 . S
C158 H163 0.930 . S
O159 Cu153 1.974 . S
O159 C169 1.282 . S
C160 O161 1.261 . S
C160 O173 1.251 . S
O161 C160 1.261 . S
H162 C156 0.930 . S
H163 C158 0.930 . S
N164 Cu153 1.985 . S
N164 C166 1.335 . S
N164 C167 1.390 . S
N165 C166 1.345 . S
N165 C168 1.336 . S
C166 N164 1.335 . S
C166 N165 1.345 . S
C166 H171 0.930 . S
C167 N164 1.390 . S
C167 C168 1.346 . S
C167 H172 0.930 . S
C168 N165 1.336 . S
C168 C167 1.346 . S
C168 H175 0.929 . S
C169 O159 1.282 . S
C169 O170 1.216 . S
O170 C169 1.216 . S
H171 C166 0.930 . S
H172 C167 0.930 . S
O173 Cu153 1.959 . S
O173 C160 1.251 . S
H174 C157 0.930 . S
H175 C168 0.929 . S
Cu176 N177 1.999 . S
Cu176 O182 1.974 . S
Cu176 N187 1.985 . S
Cu176 O196 1.959 . S
N177 Cu176 1.999 . S
N177 C179 1.263 . S
N177 C181 1.389 . S
N178 C179 1.358 . S
N178 C180 1.400 . S
C179 N177 1.263 . S
C179 N178 1.358 . S
C179 H185 0.930 . S
C180 N178 1.400 . S
C180 C181 1.351 . S
C180 H197 0.930 . S
C181 N177 1.389 . S
C181 C180 1.351 . S
C181 H186 0.930 . S
O182 Cu176 1.974 . S
O182 C192 1.282 . S
C183 O184 1.261 . S
C183 O196 1.251 . S
O184 C183 1.261 . S
H185 C179 0.930 . S
H186 C181 0.930 . S
N187 Cu176 1.985 . S
N187 C189 1.335 . S
N187 C190 1.390 . S
N188 C189 1.345 . S
N188 C191 1.336 . S
C189 N187 1.335 . S
C189 N188 1.345 . S
C189 H194 0.930 . S
C190 N187 1.390 . S
C190 C191 1.346 . S
C190 H195 0.930 . S
C191 N188 1.336 . S
C191 C190 1.346 . S
C191 H198 0.929 . S
C192 O182 1.282 . S
C192 O193 1.216 . S
O193 C192 1.216 . S
H194 C189 0.930 . S
H195 C190 0.930 . S
O196 Cu176 1.959 . S
O196 C183 1.251 . S
H197 C180 0.930 . S
H198 C191 0.929 . S
Cu199 N200 1.999 . S
Cu199 O205 1.974 . S
Cu199 N210 1.985 . S
Cu199 O219 1.959 . S
N200 Cu199 1.999 . S
N200 C202 1.263 . S
N200 C204 1.389 . S
N201 C202 1.358 . S
N201 C203 1.400 . S
C202 N200 1.263 . S
C202 N201 1.358 . S
C202 H208 0.930 . S
C203 N201 1.400 . S
C203 C204 1.351 . S
C203 H220 0.930 . S
C204 N200 1.389 . S
C204 C203 1.351 . S
C204 H209 0.930 . S
O205 Cu199 1.974 . S
O205 C215 1.282 . S
C206 O207 1.261 . S
C206 O219 1.251 . S
O207 C206 1.261 . S
H208 C202 0.930 . S
H209 C204 0.930 . S
N210 Cu199 1.985 . S
N210 C212 1.335 . S
N210 C213 1.390 . S
N211 C212 1.345 . S
N211 C214 1.336 . S
C212 N210 1.335 . S
C212 N211 1.345 . S
C212 H217 0.930 . S
C213 N210 1.390 . S
C213 C214 1.346 . S
C213 H218 0.930 . S
C214 N211 1.336 . S
C214 C213 1.346 . S
C214 H221 0.929 . S
C215 O205 1.282 . S
C215 O216 1.216 . S
O216 C215 1.216 . S
H217 C212 0.930 . S
H218 C213 0.930 . S
O219 Cu199 1.959 . S
O219 C206 1.251 . S
H220 C203 0.930 . S
H221 C214 0.929 . S
C222 C223 1.363 . S
C222 C228 1.379 . S
C222 N230 1.356 . S
C223 C222 1.363 . S
C223 C229 1.363 . S
C224 C225 1.363 . S
C224 C229 1.379 . S
C224 N231 1.356 . S
C225 C224 1.363 . S
C225 C228 1.363 . S
N226 C228 1.356 . S
N226 H238 0.984 . S
N226 H239 0.985 . S
N227 C229 1.356 . S
N227 H232 0.984 . S
N227 H233 0.985 . S
C228 C222 1.379 . S
C228 C225 1.363 . S
C228 N226 1.356 . S
C229 C223 1.363 . S
C229 C224 1.379 . S
C229 N227 1.356 . S
N230 C222 1.356 . S
N230 H236 0.984 1_455 S
N230 H237 0.984 . S
N231 C224 1.356 . S
N231 H234 0.984 . S
N231 H235 0.985 . S
H232 N227 0.984 . S
H233 N227 0.985 . S
H234 N231 0.984 . S
H235 N231 0.985 . S
H236 N230 0.984 1_655 S
H237 N230 0.984 . S
H238 N226 0.984 . S
H239 N226 0.985 . S
C240 C241 1.363 . S
C240 C246 1.379 . S
C240 N248 1.356 . S
C241 C240 1.363 . S
C241 C247 1.363 . S
C242 C243 1.363 . S
C242 C247 1.379 . S
C242 N249 1.356 . S
C243 C242 1.363 . S
C243 C246 1.363 . S
N244 C246 1.356 . S
N244 H256 0.984 . S
N244 H257 0.985 . S
N245 C247 1.356 . S
N245 H250 0.984 . S
N245 H251 0.985 1_545 S
C246 C240 1.379 . S
C246 C243 1.363 . S
C246 N244 1.356 . S
C247 C241 1.363 . S
C247 C242 1.379 . S
C247 N245 1.356 . S
N248 C240 1.356 . S
N248 H254 0.984 . S
N248 H255 0.984 . S
N249 C242 1.356 . S
N249 H252 0.984 . S
N249 H253 0.985 . S
H250 N245 0.984 . S
H251 N245 0.985 1_565 S
H252 N249 0.984 . S
H253 N249 0.985 . S
H254 N248 0.984 . S
H255 N248 0.984 . S
H256 N244 0.984 . S
H257 N244 0.985 . S
C258 C259 1.363 . S
C258 C264 1.379 . S
C258 N266 1.356 . S
C259 C258 1.363 . S
C259 C265 1.363 . S
C260 C261 1.363 . S
C260 C265 1.379 . S
C260 N267 1.356 . S
C261 C260 1.363 . S
C261 C264 1.363 . S
N262 C264 1.356 . S
N262 H274 0.984 . S
N262 H275 0.985 . S
N263 C265 1.356 . S
N263 H268 0.984 . S
N263 H269 0.985 . S
C264 C258 1.379 . S
C264 C261 1.363 . S
C264 N262 1.356 . S
C265 C259 1.363 . S
C265 C260 1.379 . S
C265 N263 1.356 . S
N266 C258 1.356 . S
N266 H272 0.984 . S
N266 H273 0.984 . S
N267 C260 1.356 . S
N267 H270 0.984 . S
N267 H271 0.985 . S
H268 N263 0.984 . S
H269 N263 0.985 . S
H270 N267 0.984 . S
H271 N267 0.985 . S
H272 N266 0.984 . S
H273 N266 0.984 . S
H274 N262 0.984 . S
H275 N262 0.985 . S
C276 C277 1.363 . S
C276 C282 1.379 . S
C276 N284 1.356 . S
C277 C276 1.363 . S
C277 C283 1.363 . S
C278 C279 1.363 . S
C278 C283 1.379 . S
C278 N285 1.356 . S
C279 C278 1.363 . S
C279 C282 1.363 . S
N280 C282 1.356 . S
N280 H292 0.984 . S
N280 H293 0.985 . S
N281 C283 1.356 . S
N281 H286 0.984 . S
N281 H287 0.985 . S
C282 C276 1.379 . S
C282 C279 1.363 . S
C282 N280 1.356 . S
C283 C277 1.363 . S
C283 C278 1.379 . S
C283 N281 1.356 . S
N284 C276 1.356 . S
N284 H290 0.984 1_655 S
N284 H291 0.984 . S
N285 C278 1.356 . S
N285 H288 0.984 . S
N285 H289 0.985 . S
H286 N281 0.984 . S
H287 N281 0.985 . S
H288 N285 0.984 . S
H289 N285 0.985 . S
H290 N284 0.984 1_455 S
H291 N284 0.984 . S
H292 N280 0.984 . S
H293 N280 0.985 . S
C294 C295 1.363 . S
C294 C300 1.379 . S
C294 N302 1.356 . S
C295 C294 1.363 . S
C295 C301 1.363 . S
C296 C297 1.363 . S
C296 C301 1.379 . S
C296 N303 1.356 . S
C297 C296 1.363 . S
C297 C300 1.363 . S
N298 C300 1.356 . S
N298 H310 0.984 . S
N298 H311 0.985 . S
N299 C301 1.356 . S
N299 H304 0.984 . S
N299 H305 0.985 . S
C300 C294 1.379 . S
C300 C297 1.363 . S
C300 N298 1.356 . S
C301 C295 1.363 . S
C301 C296 1.379 . S
C301 N299 1.356 . S
N302 C294 1.356 . S
N302 H308 0.984 . S
N302 H309 0.984 . S
N303 C296 1.356 . S
N303 H306 0.984 . S
N303 H307 0.985 . S
H304 N299 0.984 . S
H305 N299 0.985 . S
H306 N303 0.984 . S
H307 N303 0.985 . S
H308 N302 0.984 . S
H309 N302 0.984 . S
H310 N298 0.984 . S
H311 N298 0.985 . S
C312 C313 1.363 . S
C312 C318 1.379 . S
C312 N320 1.356 . S
C313 C312 1.363 . S
C313 C319 1.363 . S
C314 C315 1.363 . S
C314 C319 1.379 . S
C314 N321 1.356 . S
C315 C314 1.363 . S
C315 C318 1.363 . S
N316 C318 1.356 . S
N316 H328 0.984 . S
N316 H329 0.985 . S
N317 C319 1.356 . S
N317 H322 0.984 . S
N317 H323 0.985 . S
C318 C312 1.379 . S
C318 C315 1.363 . S
C318 N316 1.356 . S
C319 C313 1.363 . S
C319 C314 1.379 . S
C319 N317 1.356 . S
N320 C312 1.356 . S
N320 H326 0.984 . S
N320 H327 0.984 . S
N321 C314 1.356 . S
N321 H324 0.984 . S
N321 H325 0.985 . S
H322 N317 0.984 . S
H323 N317 0.985 . S
H324 N321 0.984 . S
H325 N321 0.985 . S
H326 N320 0.984 . S
H327 N320 0.984 . S
H328 N316 0.984 . S
H329 N316 0.985 . S
C330 C331 1.363 . S
C330 C336 1.379 . S
C330 N338 1.356 . S
C331 C330 1.363 . S
C331 C337 1.363 . S
C332 C333 1.363 . S
C332 C337 1.379 . S
C332 N339 1.356 . S
C333 C332 1.363 . S
C333 C336 1.363 . S
N334 C336 1.356 . S
N334 H346 0.984 . S
N334 H347 0.985 . S
N335 C337 1.356 . S
N335 H340 0.984 . S
N335 H341 0.985 . S
C336 C330 1.379 . S
C336 C333 1.363 . S
C336 N334 1.356 . S
C337 C331 1.363 . S
C337 C332 1.379 . S
C337 N335 1.356 . S
N338 C330 1.356 . S
N338 H344 0.984 1_565 S
N338 H345 0.984 . S
N339 C332 1.356 . S
N339 H342 0.984 . S
N339 H343 0.985 . S
H340 N335 0.984 . S
H341 N335 0.985 . S
H342 N339 0.984 . S
H343 N339 0.985 . S
H344 N338 0.984 1_545 S
H345 N338 0.984 . S
H346 N334 0.984 . S
H347 N334 0.985 . S
C348 C349 1.363 . S
C348 C354 1.379 . S
C348 N356 1.356 . S
C349 C348 1.363 . S
C349 C355 1.363 . S
C350 C351 1.363 . S
C350 C355 1.379 . S
C350 N357 1.356 . S
C351 C350 1.363 . S
C351 C354 1.363 . S
N352 C354 1.356 . S
N352 H364 0.984 . S
N352 H365 0.985 . S
N353 C355 1.356 . S
N353 H358 0.984 . S
N353 H359 0.985 . S
C354 C348 1.379 . S
C354 C351 1.363 . S
C354 N352 1.356 . S
C355 C349 1.363 . S
C355 C350 1.379 . S
C355 N353 1.356 . S
N356 C348 1.356 . S
N356 H362 0.984 . S
N356 H363 0.984 . S
N357 C350 1.356 . S
N357 H360 0.984 . S
N357 H361 0.985 . S
H358 N353 0.984 . S
H359 N353 0.985 . S
H360 N357 0.984 . S
H361 N357 0.985 . S
H362 N356 0.984 . S
H363 N356 0.984 . S
H364 N352 0.984 . S
H365 N352 0.985 . S
C366 C367 1.363 . S
C366 C372 1.379 . S
C366 N374 1.356 . S
C367 C366 1.363 . S
C367 C373 1.363 . S
C368 C369 1.363 . S
C368 C373 1.379 . S
C368 N375 1.356 . S
C369 C368 1.363 . S
C369 C372 1.363 . S
N370 C372 1.356 . S
N370 H382 0.984 . S
N370 H383 0.985 . S
N371 C373 1.356 . S
N371 H376 0.984 . S
N371 H377 0.985 . S
C372 C366 1.379 . S
C372 C369 1.363 . S
C372 N370 1.356 . S
C373 C367 1.363 . S
C373 C368 1.379 . S
C373 N371 1.356 . S
N374 C366 1.356 . S
N374 H380 0.984 . S
N374 H381 0.984 . S
N375 C368 1.356 . S
N375 H378 0.984 . S
N375 H379 0.985 . S
H376 N371 0.984 . S
H377 N371 0.985 . S
H378 N375 0.984 . S
H379 N375 0.985 . S
H380 N374 0.984 . S
H381 N374 0.984 . S
H382 N370 0.984 . S
H383 N370 0.985 . S
C384 C385 1.363 . S
C384 C390 1.379 . S
C384 N392 1.356 . S
C385 C384 1.363 . S
C385 C391 1.363 . S
C386 C387 1.363 . S
C386 C391 1.379 . S
C386 N393 1.356 . S
C387 C386 1.363 . S
C387 C390 1.363 . S
N388 C390 1.356 . S
N388 H400 0.984 . S
N388 H401 0.985 . S
N389 C391 1.356 . S
N389 H394 0.984 . S
N389 H395 0.985 . S
C390 C384 1.379 . S
C390 C387 1.363 . S
C390 N388 1.356 . S
C391 C385 1.363 . S
C391 C386 1.379 . S
C391 N389 1.356 . S
N392 C384 1.356 . S
N392 H398 0.984 1_556 S
N392 H399 0.984 . S
N393 C386 1.356 . S
N393 H396 0.984 . S
N393 H397 0.985 . S
H394 N389 0.984 . S
H395 N389 0.985 . S
H396 N393 0.984 . S
H397 N393 0.985 . S
H398 N392 0.984 1_554 S
H399 N392 0.984 . S
H400 N388 0.984 . S
H401 N388 0.985 . S
C402 C403 1.363 . S
C402 C408 1.379 . S
C402 N410 1.356 . S
C403 C402 1.363 . S
C403 C409 1.363 . S
C404 C405 1.363 . S
C404 C409 1.379 . S
C404 N411 1.356 . S
C405 C404 1.363 . S
C405 C408 1.363 . S
N406 C408 1.356 . S
N406 H418 0.984 . S
N406 H419 0.985 . S
N407 C409 1.356 . S
N407 H412 0.984 . S
N407 H413 0.985 . S
C408 C402 1.379 . S
C408 C405 1.363 . S
C408 N406 1.356 . S
C409 C403 1.363 . S
C409 C404 1.379 . S
C409 N407 1.356 . S
N410 C402 1.356 . S
N410 H416 0.984 . S
N410 H417 0.984 . S
N411 C404 1.356 . S
N411 H414 0.984 . S
N411 H415 0.985 . S
H412 N407 0.984 . S
H413 N407 0.985 . S
H414 N411 0.984 . S
H415 N411 0.985 . S
H416 N410 0.984 . S
H417 N410 0.984 . S
H418 N406 0.984 . S
H419 N406 0.985 . S
C420 C421 1.363 . S
C420 C426 1.379 . S
C420 N428 1.356 . S
C421 C420 1.363 . S
C421 C427 1.363 . S
C422 C423 1.363 . S
C422 C427 1.379 . S
C422 N429 1.356 . S
C423 C422 1.363 . S
C423 C426 1.363 . S
N424 C426 1.356 . S
N424 H436 0.984 . S
N424 H437 0.985 . S
N425 C427 1.356 . S
N425 H430 0.984 . S
N425 H431 0.985 1_556 S
C426 C420 1.379 . S
C426 C423 1.363 . S
C426 N424 1.356 . S
C427 C421 1.363 . S
C427 C422 1.379 . S
C427 N425 1.356 . S
N428 C420 1.356 . S
N428 H434 0.984 . S
N428 H435 0.984 . S
N429 C422 1.356 . S
N429 H432 0.984 . S
N429 H433 0.985 . S
H430 N425 0.984 . S
H431 N425 0.985 1_554 S
H432 N429 0.984 . S
H433 N429 0.985 . S
H434 N428 0.984 . S
H435 N428 0.984 . S
H436 N424 0.984 . S
H437 N424 0.985 . S
C438 C439 1.363 . S
C438 C444 1.379 . S
C438 N446 1.356 . S
C439 C438 1.363 . S
C439 C445 1.363 . S
C440 C441 1.363 . S
C440 C445 1.379 . S
C440 N447 1.356 . S
C441 C440 1.363 . S
C441 C444 1.363 . S
N442 C444 1.356 . S
N442 H454 0.984 . S
N442 H455 0.985 . S
N443 C445 1.356 . S
N443 H448 0.984 . S
N443 H449 0.985 . S
C444 C438 1.379 . S
C444 C441 1.363 . S
C444 N442 1.356 . S
C445 C439 1.363 . S
C445 C440 1.379 . S
C445 N443 1.356 . S
N446 C438 1.356 . S
N446 H452 0.984 . S
N446 H453 0.984 . S
N447 C440 1.356 . S
N447 H450 0.984 . S
N447 H451 0.985 . S
H448 N443 0.984 . S
H449 N443 0.985 . S
H450 N447 0.984 . S
H451 N447 0.985 . S
H452 N446 0.984 . S
H453 N446 0.984 . S
H454 N442 0.984 . S
H455 N442 0.985 . S
C456 C457 1.363 . S
C456 C462 1.379 . S
C456 N464 1.356 . S
C457 C456 1.363 . S
C457 C463 1.363 . S
C458 C459 1.363 . S
C458 C463 1.379 . S
C458 N465 1.356 . S
C459 C458 1.363 . S
C459 C462 1.363 . S
N460 C462 1.356 . S
N460 H472 0.984 . S
N460 H473 0.985 . S
N461 C463 1.356 . S
N461 H466 0.984 . S
N461 H467 0.985 . S
C462 C456 1.379 . S
C462 C459 1.363 . S
C462 N460 1.356 . S
C463 C457 1.363 . S
C463 C458 1.379 . S
C463 N461 1.356 . S
N464 C456 1.356 . S
N464 H470 0.984 1_565 S
N464 H471 0.984 . S
N465 C458 1.356 . S
N465 H468 0.984 . S
N465 H469 0.985 . S
H466 N461 0.984 . S
H467 N461 0.985 . S
H468 N465 0.984 . S
H469 N465 0.985 . S
H470 N464 0.984 1_545 S
H471 N464 0.984 . S
H472 N460 0.984 . S
H473 N460 0.985 . S
C474 C475 1.363 . S
C474 C480 1.379 . S
C474 N482 1.356 . S
C475 C474 1.363 . S
C475 C481 1.363 . S
C476 C477 1.363 . S
C476 C481 1.379 . S
C476 N483 1.356 . S
C477 C476 1.363 . S
C477 C480 1.363 . S
N478 C480 1.356 . S
N478 H490 0.984 . S
N478 H491 0.985 . S
N479 C481 1.356 . S
N479 H484 0.984 . S
N479 H485 0.985 . S
C480 C474 1.379 . S
C480 C477 1.363 . S
C480 N478 1.356 . S
C481 C475 1.363 . S
C481 C476 1.379 . S
C481 N479 1.356 . S
N482 C474 1.356 . S
N482 H488 0.984 . S
N482 H489 0.984 . S
N483 C476 1.356 . S
N483 H486 0.984 . S
N483 H487 0.985 . S
H484 N479 0.984 . S
H485 N479 0.985 . S
H486 N483 0.984 . S
H487 N483 0.985 . S
H488 N482 0.984 . S
H489 N482 0.984 . S
H490 N478 0.984 . S
H491 N478 0.985 . S
C492 C493 1.363 . S
C492 C498 1.379 . S
C492 N500 1.356 . S
C493 C492 1.363 . S
C493 C499 1.363 . S
C494 C495 1.363 . S
C494 C499 1.379 . S
C494 N501 1.356 . S
C495 C494 1.363 . S
C495 C498 1.363 . S
N496 C498 1.356 . S
N496 H508 0.984 . S
N496 H509 0.985 . S
N497 C499 1.356 . S
N497 H502 0.984 . S
N497 H503 0.985 . S
C498 C492 1.379 . S
C498 C495 1.363 . S
C498 N496 1.356 . S
C499 C493 1.363 . S
C499 C494 1.379 . S
C499 N497 1.356 . S
N500 C492 1.356 . S
N500 H506 0.984 . S
N500 H507 0.984 . S
N501 C494 1.356 . S
N501 H504 0.984 . S
N501 H505 0.985 . S
H502 N497 0.984 . S
H503 N497 0.985 . S
H504 N501 0.984 . S
H505 N501 0.985 . S
H506 N500 0.984 . S
H507 N500 0.984 . S
H508 N496 0.984 . S
H509 N496 0.985 . S
C510 C511 1.363 . S
C510 C516 1.379 . S
C510 N518 1.356 . S
C511 C510 1.363 . S
C511 C517 1.363 . S
C512 C513 1.363 . S
C512 C517 1.379 . S
C512 N519 1.356 . S
C513 C512 1.363 . S
C513 C516 1.363 . S
N514 C516 1.356 . S
N514 H526 0.984 . S
N514 H527 0.985 . S
N515 C517 1.356 . S
N515 H520 0.984 . S
N515 H521 0.985 1_545 S
C516 C510 1.379 . S
C516 C513 1.363 . S
C516 N514 1.356 . S
C517 C511 1.363 . S
C517 C512 1.379 . S
C517 N515 1.356 . S
N518 C510 1.356 . S
N518 H524 0.984 . S
N518 H525 0.984 . S
N519 C512 1.356 . S
N519 H522 0.984 . S
N519 H523 0.985 . S
H520 N515 0.984 . S
H521 N515 0.985 1_565 S
H522 N519 0.984 . S
H523 N519 0.985 . S
H524 N518 0.984 . S
H525 N518 0.984 . S
H526 N514 0.984 . S
H527 N514 0.985 . S
C528 C529 1.363 . S
C528 C534 1.379 . S
C528 N536 1.356 . S
C529 C528 1.363 . S
C529 C535 1.363 . S
C530 C531 1.363 . S
C530 C535 1.379 . S
C530 N537 1.356 . S
C531 C530 1.363 . S
C531 C534 1.363 . S
N532 C534 1.356 . S
N532 H544 0.984 . S
N532 H545 0.985 . S
N533 C535 1.356 . S
N533 H538 0.984 . S
N533 H539 0.985 . S
C534 C528 1.379 . S
C534 C531 1.363 . S
C534 N532 1.356 . S
C535 C529 1.363 . S
C535 C530 1.379 . S
C535 N533 1.356 . S
N536 C528 1.356 . S
N536 H542 0.984 . S
N536 H543 0.984 . S
N537 C530 1.356 . S
N537 H540 0.984 . S
N537 H541 0.985 . S
H538 N533 0.984 . S
H539 N533 0.985 . S
H540 N537 0.984 . S
H541 N537 0.985 . S
H542 N536 0.984 . S
H543 N536 0.984 . S
H544 N532 0.984 . S
H545 N532 0.985 . S
C546 C547 1.363 . S
C546 C552 1.379 . S
C546 N554 1.356 . S
C547 C546 1.363 . S
C547 C553 1.363 . S
C548 C549 1.363 . S
C548 C553 1.379 . S
C548 N555 1.356 . S
C549 C548 1.363 . S
C549 C552 1.363 . S
N550 C552 1.356 . S
N550 H562 0.984 . S
N550 H563 0.985 . S
N551 C553 1.356 . S
N551 H556 0.984 . S
N551 H557 0.985 . S
C552 C546 1.379 . S
C552 C549 1.363 . S
C552 N550 1.356 . S
C553 C547 1.363 . S
C553 C548 1.379 . S
C553 N551 1.356 . S
N554 C546 1.356 . S
N554 H560 0.984 . S
N554 H561 0.984 . S
N555 C548 1.356 . S
N555 H558 0.984 . S
N555 H559 0.985 . S
H556 N551 0.984 . S
H557 N551 0.985 . S
H558 N555 0.984 . S
H559 N555 0.985 . S
H560 N554 0.984 . S
H561 N554 0.984 . S
H562 N550 0.984 . S
H563 N550 0.985 . S
C564 C565 1.363 . S
C564 C570 1.379 . S
C564 N572 1.356 . S
C565 C564 1.363 . S
C565 C571 1.363 . S
C566 C567 1.363 . S
C566 C571 1.379 . S
C566 N573 1.356 . S
C567 C566 1.363 . S
C567 C570 1.363 . S
N568 C570 1.356 . S
N568 H580 0.984 . S
N568 H581 0.985 . S
N569 C571 1.356 . S
N569 H574 0.984 . S
N569 H575 0.985 . S
C570 C564 1.379 . S
C570 C567 1.363 . S
C570 N568 1.356 . S
C571 C565 1.363 . S
C571 C566 1.379 . S
C571 N569 1.356 . S
N572 C564 1.356 . S
N572 H578 0.984 1_554 S
N572 H579 0.984 . S
N573 C566 1.356 . S
N573 H576 0.984 . S
N573 H577 0.985 . S
H574 N569 0.984 . S
H575 N569 0.985 . S
H576 N573 0.984 . S
H577 N573 0.985 . S
H578 N572 0.984 1_556 S
H579 N572 0.984 . S
H580 N568 0.984 . S
H581 N568 0.985 . S
C582 C583 1.363 . S
C582 C588 1.379 . S
C582 N590 1.356 . S
C583 C582 1.363 . S
C583 C589 1.363 . S
C584 C585 1.363 . S
C584 C589 1.379 . S
C584 N591 1.356 . S
C585 C584 1.363 . S
C585 C588 1.363 . S
N586 C588 1.356 . S
N586 H598 0.984 . S
N586 H599 0.985 . S
N587 C589 1.356 . S
N587 H592 0.984 . S
N587 H593 0.985 1_655 S
C588 C582 1.379 . S
C588 C585 1.363 . S
C588 N586 1.356 . S
C589 C583 1.363 . S
C589 C584 1.379 . S
C589 N587 1.356 . S
N590 C582 1.356 . S
N590 H596 0.984 . S
N590 H597 0.984 . S
N591 C584 1.356 . S
N591 H594 0.984 . S
N591 H595 0.985 . S
H592 N587 0.984 . S
H593 N587 0.985 1_455 S
H594 N591 0.984 . S
H595 N591 0.985 . S
H596 N590 0.984 . S
H597 N590 0.984 . S
H598 N586 0.984 . S
H599 N586 0.985 . S
C600 C601 1.363 . S
C600 C606 1.379 . S
C600 N608 1.356 . S
C601 C600 1.363 . S
C601 C607 1.363 . S
C602 C603 1.363 . S
C602 C607 1.379 . S
C602 N609 1.356 . S
C603 C602 1.363 . S
C603 C606 1.363 . S
N604 C606 1.356 . S
N604 H616 0.984 . S
N604 H617 0.985 . S
N605 C607 1.356 1_545 S
N605 H610 0.984 . S
N605 H611 0.985 . S
C606 C600 1.379 . S
C606 C603 1.363 . S
C606 N604 1.356 . S
C607 C601 1.363 . S
C607 C602 1.379 . S
C607 N605 1.356 1_565 S
N608 C600 1.356 . S
N608 H614 0.984 . S
N608 H615 0.984 . S
N609 C602 1.356 . S
N609 H612 0.984 . S
N609 H613 0.985 1_565 S
H610 N605 0.984 . S
H611 N605 0.985 . S
H612 N609 0.984 . S
H613 N609 0.985 1_545 S
H614 N608 0.984 . S
H615 N608 0.984 . S
H616 N604 0.984 . S
H617 N604 0.985 . S
C618 C619 1.363 . S
C618 C624 1.379 . S
C618 N626 1.356 . S
C619 C618 1.363 . S
C619 C625 1.363 . S
C620 C621 1.363 . S
C620 C625 1.379 . S
C620 N627 1.356 . S
C621 C620 1.363 . S
C621 C624 1.363 . S
N622 C624 1.356 . S
N622 H634 0.984 . S
N622 H635 0.985 . S
N623 C625 1.356 . S
N623 H628 0.984 . S
N623 H629 0.985 . S
C624 C618 1.379 . S
C624 C621 1.363 . S
C624 N622 1.356 . S
C625 C619 1.363 . S
C625 C620 1.379 . S
C625 N623 1.356 . S
N626 C618 1.356 . S
N626 H632 0.984 . S
N626 H633 0.984 . S
N627 C620 1.356 . S
N627 H630 0.984 . S
N627 H631 0.985 . S
H628 N623 0.984 . S
H629 N623 0.985 . S
H630 N627 0.984 . S
H631 N627 0.985 . S
H632 N626 0.984 . S
H633 N626 0.984 . S
H634 N622 0.984 . S
H635 N622 0.985 . S
C636 C637 1.363 . S
C636 C642 1.379 . S
C636 N644 1.356 . S
C637 C636 1.363 . S
C637 C643 1.363 . S
C638 C639 1.363 . S
C638 C643 1.379 . S
C638 N645 1.356 . S
C639 C638 1.363 . S
C639 C642 1.363 . S
N640 C642 1.356 . S
N640 H652 0.984 . S
N640 H653 0.985 . S
N641 C643 1.356 . S
N641 H646 0.984 . S
N641 H647 0.985 1_455 S
C642 C636 1.379 . S
C642 C639 1.363 . S
C642 N640 1.356 . S
C643 C637 1.363 . S
C643 C638 1.379 . S
C643 N641 1.356 . S
N644 C636 1.356 . S
N644 H650 0.984 . S
N644 H651 0.984 . S
N645 C638 1.356 . S
N645 H648 0.984 . S
N645 H649 0.985 . S
H646 N641 0.984 . S
H647 N641 0.985 1_655 S
H648 N645 0.984 . S
H649 N645 0.985 . S
H650 N644 0.984 . S
H651 N644 0.984 . S
H652 N640 0.984 . S
H653 N640 0.985 . S
C223 C13 2.086 . S
C225 C91 2.039 . S
C241 C27 1.476 . S
C243 N109 1.477 . S
C261 C137 2.039 . S
C259 C29 2.086 . S
C279 N155 1.477 . S
C277 C54 1.476 . S
C297 C183 2.039 . S
C295 C69 2.086 . S
C315 N201 1.477 . S
C313 C83 1.476 . S
C331 C15 2.078 . S
C333 C146 2.069 . S
C349 C41 1.473 . S
C351 N165 1.368 . S
C369 C192 2.069 . S
C367 C42 2.078 . S
C387 N211 1.368 . S
C385 C57 1.473 . S
C403 C71 2.078 . S
C405 C100 2.069 . S
C423 N119 1.368 . S
C421 C1 1.473 . S
C441 C169 1.860 . S
C439 C12 1.929 . S
C457 C26 1.288 . S
C459 N188 1.260 . S
C477 C215 1.860 . S
C475 C28 1.929 . S
C493 C55 1.289 . S
C495 N96 1.260 . S
C511 C68 1.928 . S
C513 C123 1.860 . S
C529 C82 1.288 . S
C531 N142 1.260 . S
C547 C14 1.941 . S
C549 C206 1.912 . S
C567 N86 1.179 . S
C565 C40 1.290 . S
C583 C43 1.941 . S
C585 C114 1.912 . S
C601 C56 1.290 . S
C603 N132 1.179 . S
C619 C70 1.941 . S
C621 C160 1.912 . S
C637 C0 1.290 . S
C639 N178 1.179 . S
