# Generated by pormake.
# Topology anh, (6,3)-cn, num edge types: 1
# Building blocks:
#     Node 0, Type 0, BuildingBlock: VOLQOD_clean_sbu_1, # of connection points: 6
#     Node 1, Type 0, BuildingBlock: VOLQOD_clean_sbu_1, # of connection points: 6
#     Node 2, Type 0, BuildingBlock: VOLQOD_clean_sbu_1, # of connection points: 6
#     Node 3, Type 1, BuildingBlock: WUSLED_clean_sbu_0, # of connection points: 3
#     Node 4, Type 1, BuildingBlock: WUSLED_clean_sbu_0, # of connection points: 3
#     Node 5, Type 1, BuildingBlock: WUSLED_clean_sbu_0, # of connection points: 3
#     Node 6, Type 1, BuildingBlock: WUSLED_clean_sbu_0, # of connection points: 3
#     Node 7, Type 1, BuildingBlock: WUSLED_clean_sbu_0, # of connection points: 3
#     Node 8, Type 1, BuildingBlock: WUSLED_clean_sbu_0, # of connection points: 3
#     Edge 9, Type (0, 1), BuildingBlock: KIFKEQ_clean_linker_1, # of connection points: 2
#     Edge 10, Type (0, 1), BuildingBlock: KIFKEQ_clean_linker_1, # of connection points: 2
#     Edge 11, Type (0, 1), BuildingBlock: KIFKEQ_clean_linker_1, # of connection points: 2
#     Edge 12, Type (0, 1), BuildingBlock: KIFKEQ_clean_linker_1, # of connection points: 2
#     Edge 13, Type (0, 1), BuildingBlock: KIFKEQ_clean_linker_1, # of connection points: 2
#     Edge 14, Type (0, 1), BuildingBlock: KIFKEQ_clean_linker_1, # of connection points: 2
#     Edge 15, Type (0, 1), BuildingBlock: KIFKEQ_clean_linker_1, # of connection points: 2
#     Edge 16, Type (0, 1), BuildingBlock: KIFKEQ_clean_linker_1, # of connection points: 2
#     Edge 17, Type (0, 1), BuildingBlock: KIFKEQ_clean_linker_1, # of connection points: 2
#     Edge 18, Type (0, 1), BuildingBlock: KIFKEQ_clean_linker_1, # of connection points: 2
#     Edge 19, Type (0, 1), BuildingBlock: KIFKEQ_clean_linker_1, # of connection points: 2
#     Edge 20, Type (0, 1), BuildingBlock: KIFKEQ_clean_linker_1, # of connection points: 2
#     Edge 21, Type (0, 1), BuildingBlock: KIFKEQ_clean_linker_1, # of connection points: 2
#     Edge 22, Type (0, 1), BuildingBlock: KIFKEQ_clean_linker_1, # of connection points: 2
#     Edge 23, Type (0, 1), BuildingBlock: KIFKEQ_clean_linker_1, # of connection points: 2
#     Edge 24, Type (0, 1), BuildingBlock: KIFKEQ_clean_linker_1, # of connection points: 2
#     Edge 25, Type (0, 1), BuildingBlock: KIFKEQ_clean_linker_1, # of connection points: 2
#     Edge 26, Type (0, 1), BuildingBlock: KIFKEQ_clean_linker_1, # of connection points: 2
# Relax obj value: 0.164
# Max RMSD: 0.228
# Mean RMSD: 0.110
data_MOF--net-anh--node1-VOLQOD_clean_sbu_1--node2-WUSLED_clean_sbu_0--edge1-KIFKEQ_clean_linker_1
_symmetry_space_group_name_H-M    P1
_symmetry_Int_Tables_number       1
_symmetry_cell_setting            triclinic
loop_
_symmetry_equiv_pos_as_xyz
'x, y, z'
_cell_length_a     37.421747
_cell_length_b     37.282647
_cell_length_c     79.723452
_cell_angle_alpha  89.743384
_cell_angle_beta   90.043043
_cell_angle_gamma 120.30988
loop_
_atom_site_label
_atom_site_type_symbol
_atom_site_fract_x
_atom_site_fract_y
_atom_site_fract_z
_atom_type_partial_charge
O0 O 0.99002 0.52979 0.20639 0.0
Zn1 Zn 0.99547 0.54794 0.18214 0.0
O2 O 0.00508 0.51043 0.16809 0.0
Zn3 Zn 0.95877 0.47932 0.15318 0.0
Zn4 Zn 0.01196 0.47079 0.18205 0.0
Zn5 Zn 0.05374 0.54335 0.15424 0.0
O6 O 0.97595 0.48593 0.12892 0.0
O7 O 0.04003 0.53977 0.12946 0.0
O8 O 0.94362 0.54917 0.17479 0.0
O9 O 0.92001 0.50076 0.15504 0.0
O10 O 0.92563 0.41909 0.15964 0.0
O11 O 0.96189 0.41263 0.18022 0.0
O12 O 0.06431 0.46994 0.17558 0.0
O13 O 0.04574 0.60618 0.18169 0.0
O14 O 0.09239 0.52167 0.157 0.0
O15 O 0.08549 0.60279 0.16186 0.0
C16 C 1.00135 0.50735 0.21429 0.0
C17 C 0.00836 0.51322 0.12132 0.0
C18 C 0.93004 0.39711 0.1708 0.0
C19 C 0.91672 0.52751 0.1637 0.0
C20 C 0.09342 0.4932 0.16547 0.0
C21 C 0.07908 0.62308 0.17309 0.0
O22 O 0.01388 0.48586 0.20652 0.0
O23 O 0.4872 0.02732 0.46583 0.0
Zn24 Zn 0.46892 0.02001 0.49015 0.0
O25 O 0.50668 0.01067 0.50417 0.0
Zn26 Zn 0.53566 0.05593 0.51981 0.0
Zn27 Zn 0.5468 0.00577 0.49004 0.0
Zn28 Zn 0.47549 0.96077 0.51748 0.0
O29 O 0.53115 0.03626 0.54375 0.0
O30 O 0.4769 0.97248 0.54217 0.0
O31 O 0.46511 0.0701 0.49834 0.0
O32 O 0.50936 0.0909 0.51968 0.0
O33 O 0.59522 0.09257 0.513 0.0
O34 O 0.60314 0.0579 0.49212 0.0
O35 O 0.55083 0.95453 0.49626 0.0
O36 O 0.41177 0.96822 0.49036 0.0
O37 O 0.50144 0.92565 0.51562 0.0
O38 O 0.41701 0.92709 0.50922 0.0
C39 C 0.50981 0.01643 0.4579 0.0
C40 C 0.50352 1.003 0.5508 0.0
C41 C 0.61751 0.08961 0.50164 0.0
C42 C 0.48296 0.09416 0.51075 0.0
C43 C 0.53029 0.92601 0.50707 0.0
C44 C 0.39608 0.93381 0.49835 0.0
O45 O 0.53143 0.00396 0.46565 0.0
O46 O 0.47884 0.49485 0.79677 0.0
Zn47 Zn 0.46432 0.47394 0.8207 0.0
O48 O 0.50942 0.51043 0.83586 0.0
Zn49 Zn 0.49069 0.53692 0.85156 0.0
Zn50 Zn 0.55657 0.55295 0.82291 0.0
Zn51 Zn 0.52591 0.47783 0.84927 0.0
O52 O 0.50291 0.53049 0.87569 0.0
O53 O 0.51315 0.47704 0.87386 0.0
O54 O 0.40934 0.46892 0.82778 0.0
O55 O 0.42945 0.50967 0.85025 0.0
O56 O 0.51398 0.59706 0.84562 0.0
O57 O 0.56121 0.60922 0.82612 0.0
O58 O 0.61078 0.55596 0.8298 0.0
O59 O 0.45821 0.41661 0.82055 0.0
O60 O 0.5871 0.50401 0.84824 0.0
O61 O 0.50125 0.41975 0.84045 0.0
C62 C 0.51322 0.51938 0.78958 0.0
C63 C 0.50799 0.50255 0.88263 0.0
C64 C 0.54164 0.62158 0.8353 0.0
C65 C 0.40121 0.48455 0.8404 0.0
C66 C 0.61694 0.5339 0.84041 0.0
C67 C 0.47509 0.39988 0.82894 0.0
O68 O 0.54621 0.54106 0.79805 0.0
C69 C 0.58785 0.07594 0.21636 0.0
C70 C 0.60901 0.11347 0.22521 0.0
C71 C 0.66743 0.13884 0.20587 0.0
C72 C 0.64824 0.14466 0.21996 0.0
C73 C 0.64627 0.10085 0.19722 0.0
C74 C 0.60686 0.06979 0.20241 0.0
U75 U 0.50926 0.01733 0.25083 0.0
O76 O 0.44244 0.99417 0.25237 0.0
O77 O 0.46532 0.95045 0.25423 0.0
C78 C 0.43279 0.95502 0.25298 0.0
C79 C 0.54635 0.04284 0.22168 0.0
C80 C 0.39913 0.92559 0.24177 0.0
C81 C 0.34311 0.90934 0.22208 0.0
C82 C 0.37692 0.93838 0.23152 0.0
C83 C 0.35339 0.85434 0.23274 0.0
C84 C 0.33081 0.86694 0.22265 0.0
C85 C 0.387 0.88328 0.24223 0.0
C86 C 0.54299 0.05087 0.29626 0.0
C87 C 0.50271 0.01225 0.32062 0.0
C88 C 0.5667 0.07762 0.32426 0.0
C89 C 0.57201 0.0816 0.30687 0.0
C90 C 0.53222 0.04269 0.33137 0.0
C91 C 0.50807 0.01631 0.30319 0.0
C92 C 0.55043 0.05489 0.27807 0.0
O93 O 0.54543 0.01208 0.23016 0.0
O94 O 0.52209 0.05537 0.22805 0.0
O95 O 0.52894 0.06747 0.26935 0.0
O96 O 0.55227 0.02411 0.27098 0.0
H97 H 0.5951 0.11882 0.23611 0.0
H98 H 0.66318 0.17363 0.22681 0.0
H99 H 0.66025 0.09492 0.1865 0.0
H100 H 0.59121 0.04088 0.19552 0.0
H101 H 0.32658 0.9201 0.21433 0.0
H102 H 0.3852 0.97069 0.23093 0.0
H103 H 0.34438 0.82185 0.23369 0.0
H104 H 0.40306 0.87239 0.25021 0.0
H105 H 0.47601 0.98482 0.32568 0.0
H106 H 0.58963 0.10198 0.33213 0.0
H107 H 0.59906 0.10857 0.30171 0.0
H108 H 0.48534 0.99225 0.29514 0.0
C109 C 0.53136 0.59408 0.54713 0.0
C110 C 0.52907 0.62165 0.55838 0.0
C111 C 0.5463 0.67247 0.53592 0.0
C112 C 0.53629 0.66035 0.55283 0.0
C113 C 0.549 0.64479 0.52474 0.0
C114 C 0.54157 0.60592 0.53031 0.0
U115 U 0.51545 0.52005 0.5828 0.0
O116 O 0.46986 0.45375 0.58623 0.0
O117 O 0.53627 0.47483 0.58615 0.0
C118 C 0.49829 0.44296 0.58661 0.0
C119 C 0.52289 0.553 0.55292 0.0
C120 C 0.49018 0.40727 0.57616 0.0
C121 C 0.48138 0.37416 0.54904 0.0
C122 C 0.48945 0.409 0.55858 0.0
C123 C 0.47477 0.33593 0.57463 0.0
C124 C 0.47377 0.33711 0.55699 0.0
C125 C 0.48282 0.37061 0.58408 0.0
C126 C 0.52351 0.55885 0.62776 0.0
C127 C 0.52108 0.51835 0.65217 0.0
C128 C 0.52298 0.58378 0.65579 0.0
C129 C 0.52389 0.58884 0.63838 0.0
C130 C 0.52174 0.54856 0.66293 0.0
C131 C 0.52193 0.52345 0.63473 0.0
C132 C 0.52499 0.56511 0.60949 0.0
O133 O 0.55368 0.55267 0.56072 0.0
O134 O 0.4871 0.53041 0.56053 0.0
O135 O 0.48951 0.5437 0.60162 0.0
O136 O 0.55592 0.56512 0.60169 0.0
H137 H 0.52124 0.61303 0.57143 0.0
H138 H 0.53316 0.68041 0.56175 0.0
H139 H 0.55705 0.65322 0.51169 0.0
H140 H 0.54367 0.58505 0.52148 0.0
H141 H 0.4807 0.37607 0.5355 0.0
H142 H 0.49505 0.43718 0.55227 0.0
H143 H 0.47001 0.30833 0.58117 0.0
H144 H 0.48346 0.36882 0.59764 0.0
H145 H 0.52057 0.49108 0.65722 0.0
H146 H 0.52281 0.6073 0.66366 0.0
H147 H 0.52489 0.61626 0.6332 0.0
H148 H 0.5216 0.49993 0.62669 0.0
C149 C 0.95449 0.54227 0.87992 0.0
C150 C 0.92368 0.53594 0.89153 0.0
C151 C 0.8862 0.5494 0.86979 0.0
C152 C 0.88976 0.53931 0.88649 0.0
C153 C 0.91795 0.55734 0.85834 0.0
C154 C 0.9518 0.55359 0.86337 0.0
U155 U 0.01741 0.52908 0.91406 0.0
O156 O 0.03777 0.48343 0.9167 0.0
O157 O 0.08381 0.55 0.9157 0.0
C158 C 0.07719 0.51182 0.91545 0.0
C159 C 0.98842 0.53546 0.88491 0.0
C160 C 0.10204 0.50314 0.90339 0.0
C161 C 0.11436 0.45345 0.88849 0.0
C162 C 0.08943 0.46204 0.8988 0.0
C163 C 0.16481 0.52688 0.88686 0.0
C164 C 0.15262 0.48571 0.88258 0.0
C165 C 0.13991 0.53549 0.89719 0.0
C166 C 0.99028 0.53691 0.95979 0.0
C167 C 0.01749 0.51805 0.98383 0.0
C168 C 0.97491 0.54919 0.98805 0.0
C169 C 0.97118 0.55151 0.97069 0.0
C170 C 0.99779 0.53209 0.99485 0.0
C171 C 0.01376 0.52045 0.96643 0.0
C172 C 0.98472 0.5386 0.94161 0.0
O173 O 0.02002 0.567 0.89228 0.0
O174 O 0.97659 0.49978 0.89247 0.0
O175 O 0.96956 0.50304 0.93367 0.0
O176 O 0.01551 0.56968 0.93358 0.0
H177 H 0.92544 0.52754 0.9044 0.0
H178 H 0.86603 0.53359 0.89563 0.0
H179 H 0.91588 0.56501 0.84539 0.0
H180 H 0.97542 0.55868 0.85427 0.0
H181 H 0.10395 0.42143 0.88533 0.0
H182 H 0.06064 0.4363 0.90345 0.0
H183 H 0.19443 0.55241 0.88278 0.0
H184 H 0.15087 0.56744 0.90065 0.0
H185 H 0.03504 0.50439 0.98864 0.0
H186 H 0.95997 0.56098 0.99614 0.0
H187 H 0.95313 0.56453 0.96577 0.0
H188 H 0.02877 0.50907 0.95816 0.0
C189 C 0.93943 0.43331 0.45649 0.0
C190 C 0.92132 0.39876 0.44582 0.0
C191 C 0.87404 0.3564 0.46808 0.0
C192 C 0.88903 0.36058 0.45159 0.0
C193 C 0.89232 0.39118 0.47871 0.0
C194 C 0.92478 0.42928 0.47296 0.0
U195 U 0.99954 0.50705 0.42076 0.0
O196 O 0.02478 0.57428 0.41787 0.0
O197 O 0.06653 0.54897 0.41725 0.0
C198 C 0.06335 0.5825 0.41763 0.0
C199 C 0.97306 0.47376 0.45051 0.0
C200 C 0.09319 0.61646 0.42856 0.0
C201 C 0.10986 0.67 0.44953 0.0
C202 C 0.08053 0.63643 0.44006 0.0
C203 C 0.16478 0.66378 0.43639 0.0
C204 C 0.15232 0.68409 0.44776 0.0
C205 C 0.13556 0.63048 0.42686 0.0
C206 C 0.96733 0.47134 0.37568 0.0
C207 C 0.00935 0.50935 0.35158 0.0
C208 C 0.93947 0.45203 0.34755 0.0
C209 C 0.93482 0.44588 0.3649 0.0
C210 C 0.97684 0.48373 0.34068 0.0
C211 C 0.00458 0.50329 0.36895 0.0
C212 C 0.96191 0.46412 0.39388 0.0
O213 O 0.00334 0.47283 0.44255 0.0
O214 O 0.96109 0.49749 0.4431 0.0
O215 O 0.94997 0.48691 0.40197 0.0
O216 O 0.99148 0.46135 0.40161 0.0
H217 H 0.932 0.4014 0.433 0.0
H218 H 0.87524 0.33455 0.44303 0.0
H219 H 0.88171 0.38887 0.49152 0.0
H220 H 0.93838 0.45564 0.48135 0.0
H221 H 0.0993 0.68482 0.45829 0.0
H222 H 0.04808 0.62642 0.44166 0.0
H223 H 0.19728 0.67425 0.43455 0.0
H224 H 0.14616 0.61596 0.41796 0.0
H225 H 0.03833 0.53432 0.34668 0.0
H226 H 0.91402 0.43148 0.33949 0.0
H227 H 0.90586 0.42108 0.3699 0.0
H228 H 0.02994 0.52346 0.37713 0.0
C229 C 0.52016 0.94311 0.79249 0.0
C230 C 0.50889 0.90816 0.78246 0.0
C231 C 0.53624 0.88035 0.80333 0.0
C232 C 0.51661 0.87701 0.78786 0.0
C233 C 0.54791 0.91577 0.81324 0.0
C234 C 0.53987 0.94681 0.80787 0.0
U235 U 0.50376 1.00058 0.75695 0.0
O236 O 0.52599 0.0669 0.75285 0.0
O237 O 0.4592 0.02216 0.75371 0.0
C238 C 0.4884 0.06142 0.75279 0.0
C239 C 0.51217 0.97605 0.78681 0.0
C240 C 0.48193 0.09028 0.76308 0.0
C241 C 0.49248 0.12982 0.78859 0.0
C242 C 0.49771 0.10084 0.77942 0.0
C243 C 0.45479 0.13704 0.76534 0.0
C244 C 0.47119 0.14847 0.7816 0.0
C245 C 0.46017 0.10826 0.75618 0.0
C246 C 0.50848 0.96804 0.7121 0.0
C247 C 0.52476 0.01132 0.68716 0.0
C248 C 0.48662 0.93635 0.68465 0.0
C249 C 0.48849 0.93256 0.70204 0.0
C250 C 0.50501 0.97579 0.67696 0.0
C251 C 0.52628 0.00749 0.70455 0.0
C252 C 0.51056 0.96325 0.73037 0.0
O253 O 0.54291 0.00701 0.77869 0.0
O254 O 0.47601 0.96306 0.77966 0.0
O255 O 0.47556 0.94975 0.73856 0.0
O256 O 0.54251 0.99375 0.73804 0.0
H257 H 0.4939 0.90484 0.77047 0.0
H258 H 0.50653 0.84998 0.78 0.0
H259 H 0.56362 0.91974 0.82509 0.0
H260 H 0.54915 0.97378 0.81569 0.0
H261 H 0.50511 0.13767 0.80115 0.0
H262 H 0.51438 0.08702 0.78499 0.0
H263 H 0.43876 0.15119 0.75949 0.0
H264 H 0.44782 0.10047 0.74357 0.0
H265 H 0.53971 0.04218 0.68169 0.0
H266 H 0.47048 0.90831 0.67726 0.0
H267 H 0.4743 0.90185 0.70764 0.0
H268 H 0.54168 0.03539 0.71207 0.0
C269 C 0.58355 0.52761 0.12444 0.0
C270 C 0.61737 0.54741 0.11345 0.0
C271 C 0.66223 0.54223 0.1343 0.0
C272 C 0.65638 0.5549 0.11837 0.0
C273 C 0.62833 0.52314 0.14539 0.0
C274 C 0.58935 0.51595 0.14049 0.0
U275 U 0.50506 0.50347 0.08981 0.0
O276 O 0.43834 0.45776 0.08892 0.0
O277 O 0.46022 0.5242 0.0858 0.0
C278 C 0.42813 0.4867 0.08802 0.0
C279 C 0.54187 0.51733 0.11904 0.0
C280 C 0.39604 0.48291 0.09998 0.0
C281 C 0.33327 0.43981 0.11617 0.0
C282 C 0.36468 0.44359 0.1055 0.0
C283 C 0.36388 0.51457 0.116 0.0
C284 C 0.33241 0.47528 0.12149 0.0
C285 C 0.39523 0.51835 0.10536 0.0
C286 C 0.53731 0.50277 0.04427 0.0
C287 C 0.51093 0.51815 0.01901 0.0
C288 C 0.54571 0.47838 0.01716 0.0
C289 C 0.55151 0.48127 0.03453 0.0
C290 C 0.52582 0.49725 0.00913 0.0
C291 C 0.51645 0.52072 0.03641 0.0
C292 C 0.54569 0.50712 0.06245 0.0
O293 O 0.53986 0.54625 0.1103 0.0
O294 O 0.51911 0.47991 0.11277 0.0
O295 O 0.52508 0.47303 0.07146 0.0
O296 O 0.54798 0.53997 0.06956 0.0
H297 H 0.61349 0.55655 0.10096 0.0
H298 H 0.68186 0.57018 0.10959 0.0
H299 H 0.6315 0.51241 0.15764 0.0
H300 H 0.5635 0.50041 0.1491 0.0
H301 H 0.3096 0.40911 0.12022 0.0
H302 H 0.36415 0.41564 0.10143 0.0
H303 H 0.36369 0.5425 0.11951 0.0
H304 H 0.41845 0.5491 0.10117 0.0
H305 H 0.49589 0.53346 0.01329 0.0
H306 H 0.55686 0.46133 0.01003 0.0
H307 H 0.56746 0.46698 0.04036 0.0
H308 H 0.50498 0.53733 0.04365 0.0
H309 H 0.17093 0.5523 0.15656 0.0
H310 H 0.09732 0.42176 0.16881 0.0
H311 H 0.22903 0.54341 0.14941 0.0
H312 H 0.15611 0.41273 0.16147 0.0
H313 H 0.24965 0.41793 0.11894 0.0
H314 H 0.19239 0.41838 0.13339 0.0
H315 H 0.27948 0.52529 0.1619 0.0
H316 H 0.33681 0.52455 0.14769 0.0
C317 C 0.16735 0.52172 0.15791 0.0
C318 C 0.1295 0.48765 0.16313 0.0
C319 C 0.20079 0.51671 0.15394 0.0
C320 C 0.19714 0.47739 0.15491 0.0
C321 C 0.15968 0.44337 0.16059 0.0
C322 C 0.12619 0.44855 0.16486 0.0
C323 C 0.25666 0.44083 0.12862 0.0
C324 C 0.29784 0.47164 0.13196 0.0
C325 C 0.22381 0.44102 0.13691 0.0
C326 C 0.23151 0.47213 0.14863 0.0
C327 C 0.27267 0.50131 0.15273 0.0
C328 C 0.30545 0.501 0.14453 0.0
H329 H 0.66219 0.15806 0.52129 0.0
H330 H 0.66737 0.10332 0.47435 0.0
H331 H 0.72669 0.22106 0.51426 0.0
H332 H 0.73117 0.16682 0.46708 0.0
H333 H 0.86165 0.27816 0.46334 0.0
H334 H 0.80309 0.21213 0.47273 0.0
H335 H 0.748 0.27797 0.49538 0.0
H336 H 0.80677 0.34371 0.48625 0.0
C337 C 0.67723 0.15932 0.50951 0.0
C338 C 0.6594 0.12566 0.49834 0.0
C339 C 0.71409 0.19563 0.50542 0.0
C340 C 0.73393 0.19937 0.48999 0.0
C341 C 0.71702 0.16502 0.47913 0.0
C342 C 0.68028 0.12855 0.48329 0.0
C343 C 0.83697 0.27842 0.47032 0.0
C344 C 0.83887 0.31617 0.47407 0.0
C345 C 0.80337 0.24059 0.4757 0.0
C346 C 0.77076 0.2396 0.48487 0.0
C347 C 0.77289 0.27746 0.48867 0.0
C348 C 0.80656 0.31524 0.48339 0.0
H349 H 0.59903 0.68448 0.81527 0.0
H350 H 0.498 0.65438 0.84944 0.0
H351 H 0.6037 0.75077 0.80887 0.0
H352 H 0.50163 0.71957 0.84263 0.0
H353 H 0.53007 0.85026 0.83535 0.0
H354 H 0.53863 0.79277 0.84459 0.0
H355 H 0.5651 0.77459 0.79359 0.0
H356 H 0.55922 0.83372 0.78455 0.0
C357 C 0.57803 0.69209 0.82152 0.0
C358 C 0.54801 0.66392 0.83281 0.0
C359 C 0.58048 0.72999 0.81775 0.0
C360 C 0.55281 0.74051 0.8251 0.0
C361 C 0.52386 0.71295 0.83687 0.0
C362 C 0.52162 0.67529 0.84072 0.0
C363 C 0.53861 0.83462 0.82615 0.0
C364 C 0.54363 0.84658 0.80916 0.0
C365 C 0.543 0.80122 0.83142 0.0
C366 C 0.55221 0.77865 0.81983 0.0
C367 C 0.5584 0.79138 0.80293 0.0
C368 C 0.55434 0.82497 0.79768 0.0
H369 H 0.84941 0.47756 0.14484 0.0
H370 H 0.90126 0.58819 0.17536 0.0
H371 H 0.79057 0.48522 0.13835 0.0
H372 H 0.84167 0.59626 0.16847 0.0
H373 H 0.70197 0.56279 0.16486 0.0
H374 H 0.76495 0.5622 0.17265 0.0
H375 H 0.77746 0.53157 0.12163 0.0
H376 H 0.71399 0.53013 0.11406 0.0
C377 C 0.84846 0.50379 0.15012 0.0
C378 C 0.88043 0.53254 0.16051 0.0
C379 C 0.81466 0.50827 0.14629 0.0
C380 C 0.81176 0.54176 0.15263 0.0
C381 C 0.84309 0.57013 0.16339 0.0
C382 C 0.87721 0.56557 0.16729 0.0
C383 C 0.71818 0.55588 0.15533 0.0
C384 C 0.70266 0.5462 0.13885 0.0
C385 C 0.75451 0.55603 0.15975 0.0
C386 C 0.77593 0.54639 0.1478 0.0
C387 C 0.76131 0.53844 0.13121 0.0
C388 C 0.72511 0.53816 0.12681 0.0
H389 H 0.34555 0.93187 0.47295 0.0
H390 H 0.3526 0.85682 0.51287 0.0
H391 H 0.28291 0.87141 0.46253 0.0
H392 H 0.28973 0.7967 0.50257 0.0
H393 H 0.22046 0.69214 0.46381 0.0
H394 H 0.27505 0.75327 0.47779 0.0
H395 H 0.20982 0.8192 0.46788 0.0
H396 H 0.15553 0.75812 0.45346 0.0
C397 C 0.33333 0.90275 0.47972 0.0
C398 C 0.35448 0.89918 0.49364 0.0
C399 C 0.2973 0.86808 0.47376 0.0
C400 C 0.28163 0.82909 0.48159 0.0
C401 C 0.30146 0.8261 0.49606 0.0
C402 C 0.33741 0.8607 0.50202 0.0
C403 C 0.21773 0.71966 0.46463 0.0
C404 C 0.1838 0.72036 0.45743 0.0
C405 C 0.24879 0.75457 0.47281 0.0
C406 C 0.24679 0.79115 0.47398 0.0
C407 C 0.21241 0.79161 0.46709 0.0
C408 C 0.18115 0.75652 0.45897 0.0
H409 H 0.50192 0.35281 0.84503 0.0
H410 H 0.43128 0.35243 0.80203 0.0
H411 H 0.49671 0.28844 0.83545 0.0
H412 H 0.42694 0.28855 0.79227 0.0
H413 H 0.40357 0.15834 0.78398 0.0
H414 H 0.39956 0.21517 0.79719 0.0
H415 H 0.52694 0.26954 0.81296 0.0
H416 H 0.53079 0.21272 0.79988 0.0
C417 C 0.48496 0.33885 0.8336 0.0
C418 C 0.4673 0.35806 0.82423 0.0
C419 C 0.48222 0.30203 0.82805 0.0
C420 C 0.46185 0.28354 0.81298 0.0
C421 C 0.44258 0.30172 0.80401 0.0
C422 C 0.4452 0.33851 0.80958 0.0
C423 C 0.43066 0.1824 0.79032 0.0
C424 C 0.46755 0.18108 0.79082 0.0
C425 C 0.42837 0.21498 0.79788 0.0
C426 C 0.46295 0.24703 0.8061 0.0
C427 C 0.49948 0.24506 0.80698 0.0
C428 C 0.50173 0.21247 0.79946 0.0
H429 H 0.51776 0.88336 0.53608 0.0
H430 H 0.5644 0.89332 0.48569 0.0
H431 H 0.52869 0.82557 0.54177 0.0
H432 H 0.57503 0.83441 0.49144 0.0
H433 H 0.52128 0.6905 0.50619 0.0
H434 H 0.52503 0.7556 0.49807 0.0
H435 H 0.58821 0.8116 0.54432 0.0
H436 H 0.58555 0.74711 0.5523 0.0
C437 C 0.53058 0.87329 0.52621 0.0
C438 C 0.54005 0.89278 0.5104 0.0
C439 C 0.53712 0.84035 0.52953 0.0
C440 C 0.55283 0.82558 0.51707 0.0
C441 C 0.56282 0.84522 0.50126 0.0
C442 C 0.55693 0.87894 0.498 0.0
C443 C 0.5369 0.71696 0.51445 0.0
C444 C 0.55255 0.71327 0.53004 0.0
C445 C 0.53903 0.75426 0.50978 0.0
C446 C 0.55657 0.78849 0.52063 0.0
C447 C 0.57401 0.78549 0.53581 0.0
C448 C 0.5722 0.74842 0.54042 0.0
H449 H 0.68614 0.56866 0.82007 0.0
H450 H 0.64313 0.51897 0.86976 0.0
H451 H 0.75322 0.57453 0.82632 0.0
H452 H 0.70965 0.5261 0.87616 0.0
H453 H 0.80668 0.49011 0.87604 0.0
H454 H 0.74387 0.48979 0.86812 0.0
H455 H 0.81685 0.60835 0.84321 0.0
H456 H 0.8802 0.60798 0.85088 0.0
C457 C 0.69127 0.55967 0.83237 0.0
C458 C 0.65922 0.54267 0.84431 0.0
C459 C 0.72961 0.56308 0.83598 0.0
C460 C 0.73649 0.54989 0.85163 0.0
C461 C 0.70505 0.53524 0.8638 0.0
C462 C 0.66692 0.53138 0.86015 0.0
C463 C 0.80935 0.5162 0.86893 0.0
C464 C 0.84831 0.54935 0.86429 0.0
C465 C 0.77335 0.51613 0.86441 0.0
C466 C 0.77529 0.54946 0.85529 0.0
C467 C 0.81426 0.58217 0.8502 0.0
C468 C 0.85048 0.58204 0.85462 0.0
H469 H 0.08254 0.67194 0.19943 0.0
H470 H 0.15394 0.66915 0.15738 0.0
H471 H 0.14321 0.73458 0.2097 0.0
H472 H 0.21427 0.73211 0.16752 0.0
H473 H 0.32246 0.80075 0.20473 0.0
H474 H 0.2606 0.74639 0.1911 0.0
H475 H 0.19374 0.80815 0.20517 0.0
H476 H 0.2555 0.86203 0.2193 0.0
C477 C 0.11085 0.68515 0.19215 0.0
C478 C 0.11337 0.66512 0.17767 0.0
C479 C 0.14568 0.7212 0.19804 0.0
C480 C 0.18381 0.73807 0.18956 0.0
C481 C 0.18562 0.71945 0.17454 0.0
C482 C 0.15087 0.68346 0.16866 0.0
C483 C 0.29458 0.80276 0.20492 0.0
C484 C 0.2939 0.83562 0.2132 0.0
C485 C 0.2592 0.77184 0.19693 0.0
C486 C 0.22214 0.77289 0.19701 0.0
C487 C 0.22166 0.80623 0.20498 0.0
C488 C 0.25718 0.83731 0.21293 0.0
H489 H 0.46494 0.14292 0.49039 0.0
H490 H 0.47876 0.11795 0.54219 0.0
H491 H 0.45576 0.20103 0.49931 0.0
H492 H 0.46897 0.17472 0.551 0.0
H493 H 0.41752 0.25566 0.56368 0.0
H494 H 0.41237 0.19438 0.55048 0.0
H495 H 0.50628 0.2725 0.51462 0.0
H496 H 0.51226 0.33424 0.52806 0.0
C497 C 0.46524 0.14937 0.50364 0.0
C498 C 0.47268 0.12611 0.51561 0.0
C499 C 0.46025 0.18263 0.50872 0.0
C500 C 0.46149 0.1922 0.52585 0.0
C501 C 0.46738 0.16781 0.53774 0.0
C502 C 0.47323 0.13544 0.53268 0.0
C503 C 0.43694 0.25987 0.55292 0.0
C504 C 0.46596 0.29994 0.54716 0.0
C505 C 0.43374 0.22474 0.5453 0.0
C506 C 0.45919 0.22875 0.53164 0.0
C507 C 0.48609 0.26854 0.52507 0.0
C508 C 0.48952 0.30386 0.53279 0.0
H509 H 0.36671 0.47051 0.87108 0.0
H510 H 0.33992 0.47522 0.81872 0.0
H511 H 0.30028 0.4626 0.8788 0.0
H512 H 0.2728 0.46781 0.82652 0.0
H513 H 0.20082 0.52667 0.85521 0.0
H514 H 0.25522 0.51731 0.84267 0.0
H515 H 0.22343 0.41422 0.8762 0.0
H516 H 0.16982 0.42399 0.88895 0.0
C517 C 0.34616 0.46915 0.8612 0.0
C518 C 0.35836 0.47355 0.84432 0.0
C519 C 0.30801 0.46438 0.86561 0.0
C520 C 0.28135 0.46456 0.85326 0.0
C521 C 0.29287 0.46763 0.83628 0.0
C522 C 0.33099 0.47158 0.83181 0.0
C523 C 0.20514 0.5017 0.85975 0.0
C524 C 0.18129 0.47638 0.8732 0.0
C525 C 0.23593 0.49604 0.85244 0.0
C526 C 0.24365 0.46517 0.85853 0.0
C527 C 0.21827 0.4384 0.87132 0.0
C528 C 0.1874 0.44388 0.87856 0.0
H529 H 0.92502 0.34094 0.19452 0.0
H530 H 0.85545 0.35663 0.15475 0.0
H531 H 0.86417 0.27479 0.20213 0.0
H532 H 0.79464 0.29163 0.16268 0.0
H533 H 0.69507 0.16125 0.17349 0.0
H534 H 0.76132 0.21834 0.16398 0.0
H535 H 0.79907 0.25194 0.21548 0.0
H536 H 0.73388 0.19328 0.225 0.0
C537 C 0.89695 0.33013 0.18727 0.0
C538 C 0.89519 0.35433 0.17407 0.0
C539 C 0.8619 0.29234 0.19174 0.0
C540 C 0.82423 0.27791 0.18314 0.0
C541 C 0.8231 0.30133 0.16949 0.0
C542 C 0.85809 0.3389 0.16498 0.0
C543 C 0.71779 0.18021 0.18282 0.0
C544 C 0.70883 0.17265 0.20005 0.0
C545 C 0.75569 0.21338 0.17734 0.0
C546 C 0.78558 0.24012 0.18894 0.0
C547 C 0.77708 0.23187 0.20616 0.0
C548 C 0.7393 0.19852 0.21164 0.0
H549 H 0.06895 0.57021 0.10041 0.0
H550 H 0.94809 0.45925 0.09996 0.0
H551 H 0.06721 0.57401 0.06987 0.0
H552 H 0.94685 0.46257 0.06952 0.0
H553 H 0.93599 0.50921 0.01798 0.0
H554 H 0.94003 0.50471 0.04828 0.0
H555 H 0.06884 0.54009 0.04409 0.0
H556 H 0.06522 0.54632 0.01369 0.0
C557 C 0.04218 0.54643 0.09382 0.0
C558 C 0.00855 0.51459 0.10269 0.0
C559 C 0.04129 0.54849 0.07629 0.0
C560 C 0.00677 0.51875 0.06723 0.0
C561 C 0.97359 0.48644 0.0761 0.0
C562 C 0.97443 0.48442 0.09359 0.0
C563 C 0.96532 0.51646 0.0235 0.0
C564 C 1.00034 0.52835 0.01337 0.0
C565 C 0.9675 0.51333 0.04089 0.0
C566 C 0.00473 0.52188 0.04865 0.0
C567 C 0.03977 0.53364 0.03854 0.0
C568 C 0.03758 0.53676 0.0211 0.0
H569 H 0.46957 0.0427 0.43676 0.0
H570 H 0.55373 0.99518 0.4368 0.0
H571 H 0.47406 0.04814 0.40624 0.0
H572 H 0.55749 0.99987 0.40635 0.0
H573 H 0.59273 0.05959 0.35444 0.0
H574 H 0.58623 0.05294 0.38481 0.0
H575 H 0.45487 0.00626 0.38078 0.0
H576 H 0.46168 0.01446 0.35032 0.0
C577 C 0.48884 0.03319 0.43029 0.0
C578 C 0.51145 0.0187 0.43929 0.0
C579 C 0.49121 0.03608 0.41277 0.0
C580 C 0.51626 0.02459 0.40384 0.0
C581 C 0.53842 0.00961 0.41283 0.0
C582 C 0.53607 0.00672 0.43032 0.0
C583 C 0.56251 0.04831 0.36002 0.0
C584 C 0.52777 0.03776 0.34993 0.0
C585 C 0.55869 0.04399 0.37744 0.0
C586 C 0.52001 0.02894 0.38525 0.0
C587 C 0.48519 0.0183 0.37518 0.0
C588 C 0.48901 0.02257 0.35771 0.0
H589 H 0.58109 0.56581 0.76964 0.0
H590 H 0.44908 0.48079 0.76729 0.0
H591 H 0.58372 0.57165 0.73918 0.0
H592 H 0.45163 0.48745 0.73685 0.0
H593 H 0.4769 0.47739 0.68158 0.0
H594 H 0.47592 0.4695 0.71199 0.0
H595 H 0.5631 0.60087 0.71681 0.0
H596 H 0.56549 0.60839 0.68643 0.0
C597 C 0.55257 0.54846 0.76266 0.0
C598 C 0.51486 0.52286 0.77098 0.0
C599 C 0.55406 0.552 0.74516 0.0
C600 C 0.51787 0.5301 0.73552 0.0
C601 C 0.4802 0.50434 0.74383 0.0
C602 C 0.47871 0.50074 0.76133 0.0
C603 C 0.49626 0.5045 0.68911 0.0
C604 C 0.52123 0.54354 0.68151 0.0
C605 C 0.49531 0.50007 0.70658 0.0
C606 C 0.51933 0.53457 0.71689 0.0
C607 C 0.54452 0.57353 0.70928 0.0
C608 C 0.54548 0.57795 0.69183 0.0
H609 H 0.45987 0.93283 0.56985 0.0
H610 H 0.54545 0.06491 0.5737 0.0
H611 H 0.45961 0.92652 0.60032 0.0
H612 H 0.54509 0.05839 0.60421 0.0
H613 H 0.49542 0.03325 0.65884 0.0
H614 H 0.49502 0.04036 0.62842 0.0
H615 H 0.51092 0.93422 0.62254 0.0
H616 H 0.51255 0.92765 0.65291 0.0
C617 C 0.47852 0.96055 0.57718 0.0
C618 C 0.50273 0.99938 0.56933 0.0
C619 C 0.47853 0.95684 0.59463 0.0
C620 C 0.50239 0.99194 0.60462 0.0
C621 C 0.52616 0.03086 0.59682 0.0
C622 C 0.52652 0.03452 0.57935 0.0
C623 C 0.49933 0.01169 0.6511 0.0
C624 C 0.50401 0.97984 0.65839 0.0
C625 C 0.49897 0.01573 0.63366 0.0
C626 C 0.50284 0.98779 0.62312 0.0
C627 C 0.50729 0.95585 0.63036 0.0
C628 C 0.50807 0.95204 0.64778 0.0
H629 H 0.48649 0.54295 0.90556 0.0
H630 H 0.53106 0.45653 0.90176 0.0
H631 H 0.48941 0.54011 0.9361 0.0
H632 H 0.5338 0.45371 0.93228 0.0
H633 H 0.58199 0.50328 0.98558 0.0
H634 H 0.57588 0.50263 0.95516 0.0
H635 H 0.45492 0.48949 0.95987 0.0
H636 H 0.4604 0.48904 0.99038 0.0
C637 C 0.49679 0.52327 0.91122 0.0
C638 C 0.50865 0.50006 0.90119 0.0
C639 C 0.49821 0.52147 0.92872 0.0
C640 C 0.51191 0.49675 0.93657 0.0
C641 C 0.52351 0.47335 0.92657 0.0
C642 C 0.52171 0.47483 0.90908 0.0
C643 C 0.55374 0.49954 0.98019 0.0
C644 C 0.52165 0.49612 0.99051 0.0
C645 C 0.55034 0.49931 0.96273 0.0
C646 C 0.51493 0.49603 0.95514 0.0
C647 C 0.4828 0.49256 0.96538 0.0
C648 C 0.48602 0.49242 0.98286 0.0
H649 H 0.02646 0.4665 0.23562 0.0
H650 H 0.9719 0.54477 0.23518 0.0
H651 H 0.02167 0.46264 0.26613 0.0
H652 H 0.96762 0.5412 0.26571 0.0
H653 H 0.92127 0.48226 0.31797 0.0
H654 H 0.92835 0.48913 0.28753 0.0
H655 H 0.05126 0.50644 0.29116 0.0
H656 H 0.04374 0.49847 0.3216 0.0
C657 C 0.01362 0.48305 0.24201 0.0
C658 C 0.99944 0.50584 0.2329 0.0
C659 C 0.01111 0.48102 0.25952 0.0
C660 C 0.99422 0.50158 0.26834 0.0
C661 C 0.98034 0.52462 0.25926 0.0
C662 C 0.98301 0.52681 0.24176 0.0
C663 C 0.94973 0.48735 0.31226 0.0
C664 C 0.98188 0.48966 0.3222 0.0
C665 C 0.95395 0.49171 0.29484 0.0
C666 C 0.99036 0.4983 0.28692 0.0
C667 C 0.02267 0.50099 0.29687 0.0
C668 C 0.01853 0.49685 0.31431 0.0
loop_
_geom_bond_atom_site_label_1
_geom_bond_atom_site_label_2
_geom_bond_distance
_geom_bond_site_symmetry_2
_ccdc_geom_bond_type
O0 Zn1 1.953 . S
O0 C16 1.225 1_655 S
Zn1 O0 1.953 . S
Zn1 O2 1.949 1_655 S
Zn1 O8 1.919 . S
Zn1 O13 1.924 1_655 S
O2 Zn1 1.949 1_455 S
O2 Zn3 1.923 1_455 S
O2 Zn4 1.950 . S
O2 Zn5 1.945 . S
Zn3 O2 1.923 1_655 S
Zn3 O6 1.933 . S
Zn3 O9 1.941 . S
Zn3 O10 1.965 . S
Zn4 O2 1.950 . S
Zn4 O11 1.938 1_455 S
Zn4 O12 1.906 . S
Zn4 O22 1.953 . S
Zn5 O2 1.945 . S
Zn5 O7 1.932 . S
Zn5 O14 1.977 . S
Zn5 O15 1.910 . S
O6 Zn3 1.933 . S
O6 C17 1.226 1_655 S
O7 Zn5 1.932 . S
O7 C17 1.307 . S
O8 Zn1 1.919 . S
O8 C19 1.253 . S
O9 Zn3 1.941 . S
O9 C19 1.283 . S
O10 Zn3 1.965 . S
O10 C18 1.303 . S
O11 Zn4 1.938 1_655 S
O11 C18 1.247 . S
O12 Zn4 1.906 . S
O12 C20 1.304 . S
O13 Zn1 1.924 1_455 S
O13 C21 1.311 . S
O14 Zn5 1.977 . S
O14 C20 1.272 . S
O15 Zn5 1.910 . S
O15 C21 1.231 . S
C16 O0 1.225 1_455 S
C16 O22 1.298 . S
C17 O6 1.226 1_455 S
C17 O7 1.307 . S
C18 O10 1.303 . S
C18 O11 1.247 . S
C19 O8 1.253 . S
C19 O9 1.283 . S
C20 O12 1.304 . S
C20 O14 1.272 . S
C21 O13 1.311 . S
C21 O15 1.231 . S
O22 Zn4 1.953 . S
O22 C16 1.298 . S
O23 Zn24 1.953 . S
O23 C39 1.225 . S
Zn24 O23 1.953 . S
Zn24 O25 1.949 . S
Zn24 O31 1.919 . S
Zn24 O36 1.924 1_545 S
O25 Zn24 1.949 . S
O25 Zn26 1.923 . S
O25 Zn27 1.950 1_545 S
O25 Zn28 1.945 1_545 S
Zn26 O25 1.923 . S
Zn26 O29 1.933 . S
Zn26 O32 1.941 . S
Zn26 O33 1.965 . S
Zn27 O25 1.950 1_565 S
Zn27 O34 1.938 1_565 S
Zn27 O35 1.906 . S
Zn27 O45 1.953 . S
Zn28 O25 1.945 1_565 S
Zn28 O30 1.932 . S
Zn28 O37 1.977 . S
Zn28 O38 1.910 . S
O29 Zn26 1.933 . S
O29 C40 1.226 . S
O30 Zn28 1.932 . S
O30 C40 1.307 1_565 S
O31 Zn24 1.919 . S
O31 C42 1.253 . S
O32 Zn26 1.941 . S
O32 C42 1.283 . S
O33 Zn26 1.965 . S
O33 C41 1.303 . S
O34 Zn27 1.938 1_545 S
O34 C41 1.247 . S
O35 Zn27 1.906 . S
O35 C43 1.304 . S
O36 Zn24 1.924 1_565 S
O36 C44 1.311 . S
O37 Zn28 1.977 . S
O37 C43 1.272 . S
O38 Zn28 1.910 . S
O38 C44 1.231 . S
C39 O23 1.225 . S
C39 O45 1.298 1_545 S
C40 O29 1.226 . S
C40 O30 1.307 1_545 S
C41 O33 1.303 . S
C41 O34 1.247 . S
C42 O31 1.253 . S
C42 O32 1.283 . S
C43 O35 1.304 . S
C43 O37 1.272 . S
C44 O36 1.311 . S
C44 O38 1.231 . S
O45 Zn27 1.953 . S
O45 C39 1.298 1_565 S
O46 Zn47 1.953 . S
O46 C62 1.225 . S
Zn47 O46 1.953 . S
Zn47 O48 1.949 . S
Zn47 O54 1.919 . S
Zn47 O59 1.924 . S
O48 Zn47 1.949 . S
O48 Zn49 1.923 . S
O48 Zn50 1.950 . S
O48 Zn51 1.945 . S
Zn49 O48 1.923 . S
Zn49 O52 1.933 . S
Zn49 O55 1.941 . S
Zn49 O56 1.965 . S
Zn50 O48 1.950 . S
Zn50 O57 1.938 . S
Zn50 O58 1.906 . S
Zn50 O68 1.953 . S
Zn51 O48 1.945 . S
Zn51 O53 1.932 . S
Zn51 O60 1.977 . S
Zn51 O61 1.910 . S
O52 Zn49 1.933 . S
O52 C63 1.226 . S
O53 Zn51 1.932 . S
O53 C63 1.307 . S
O54 Zn47 1.919 . S
O54 C65 1.253 . S
O55 Zn49 1.941 . S
O55 C65 1.283 . S
O56 Zn49 1.965 . S
O56 C64 1.303 . S
O57 Zn50 1.938 . S
O57 C64 1.247 . S
O58 Zn50 1.906 . S
O58 C66 1.304 . S
O59 Zn47 1.924 . S
O59 C67 1.311 . S
O60 Zn51 1.977 . S
O60 C66 1.272 . S
O61 Zn51 1.910 . S
O61 C67 1.231 . S
C62 O46 1.225 . S
C62 O68 1.298 . S
C63 O52 1.226 . S
C63 O53 1.307 . S
C64 O56 1.303 . S
C64 O57 1.247 . S
C65 O54 1.253 . S
C65 O55 1.283 . S
C66 O58 1.304 . S
C66 O60 1.272 . S
C67 O59 1.311 . S
C67 O61 1.231 . S
O68 Zn50 1.953 . S
O68 C62 1.298 . S
C69 C70 1.264 . S
C69 C74 1.479 . S
C69 C79 1.465 . S
C70 C69 1.264 . S
C70 C72 1.339 . S
C70 H97 0.931 . S
C71 C72 1.395 . S
C71 C73 1.320 . S
C72 C70 1.339 . S
C72 C71 1.395 . S
C72 H98 0.929 . S
C73 C71 1.320 . S
C73 C74 1.405 . S
C73 H99 0.930 . S
C74 C69 1.479 . S
C74 C73 1.405 . S
C74 H100 0.931 . S
U75 O76 2.454 1_545 S
U75 O77 2.458 1_545 S
U75 C78 2.984 1_545 S
U75 C79 2.847 . S
U75 C92 2.882 . S
U75 O93 2.441 . S
U75 O94 2.420 . S
U75 O95 2.455 1_545 S
U75 O96 2.449 . S
O76 U75 2.454 1_565 S
O76 C78 1.353 . S
O77 U75 2.458 1_565 S
O77 C78 1.286 . S
C78 U75 2.984 1_565 S
C78 O76 1.353 . S
C78 O77 1.286 . S
C78 C80 1.363 . S
C79 C69 1.465 . S
C79 U75 2.847 . S
C79 O93 1.249 . S
C79 O94 1.202 . S
C80 C78 1.363 . S
C80 C82 1.408 . S
C80 C85 1.342 . S
C81 C82 1.310 . S
C81 C84 1.461 . S
C81 H101 0.932 . S
C82 C80 1.408 . S
C82 C81 1.310 . S
C82 H102 0.930 . S
C83 C84 1.474 . S
C83 C85 1.285 . S
C83 H103 0.929 . S
C84 C81 1.461 . S
C84 C83 1.474 . S
C85 C80 1.342 . S
C85 C83 1.285 . S
C85 H104 0.930 . S
C86 C89 1.424 . S
C86 C91 1.245 1_545 S
C86 C92 1.428 . S
C87 C90 1.260 1_565 S
C87 C91 1.477 . S
C87 H105 0.932 . S
C88 C89 1.384 . S
C88 C90 1.479 . S
C88 H106 0.929 . S
C89 C86 1.424 . S
C89 C88 1.384 . S
C89 H107 0.928 . S
C90 C87 1.260 1_545 S
C90 C88 1.479 . S
C91 C86 1.245 1_565 S
C91 C87 1.477 . S
C91 H108 0.932 . S
C92 U75 2.882 . S
C92 C86 1.428 . S
C92 O95 1.301 1_545 S
C92 O96 1.282 . S
O93 U75 2.441 . S
O93 C79 1.249 . S
O94 U75 2.420 . S
O94 C79 1.202 . S
O95 U75 2.455 1_565 S
O95 C92 1.301 1_565 S
O96 U75 2.449 . S
O96 C92 1.282 . S
H97 C70 0.931 . S
H98 C72 0.929 . S
H99 C73 0.930 . S
H100 C74 0.931 . S
H101 C81 0.932 . S
H102 C82 0.930 . S
H103 C83 0.929 . S
H104 C85 0.930 . S
H105 C87 0.932 . S
H106 C88 0.929 . S
H107 C89 0.928 . S
H108 C91 0.932 . S
C109 C110 1.264 . S
C109 C114 1.479 . S
C109 C119 1.465 . S
C110 C109 1.264 . S
C110 C112 1.339 . S
C110 H137 0.931 . S
C111 C112 1.395 . S
C111 C113 1.320 . S
C112 C110 1.339 . S
C112 C111 1.395 . S
C112 H138 0.929 . S
C113 C111 1.320 . S
C113 C114 1.405 . S
C113 H139 0.930 . S
C114 C109 1.479 . S
C114 C113 1.405 . S
C114 H140 0.931 . S
U115 O116 2.454 . S
U115 O117 2.458 . S
U115 C118 2.984 . S
U115 C119 2.847 . S
U115 C132 2.882 . S
U115 O133 2.441 . S
U115 O134 2.420 . S
U115 O135 2.455 . S
U115 O136 2.449 . S
O116 U115 2.454 . S
O116 C118 1.353 . S
O117 U115 2.458 . S
O117 C118 1.286 . S
C118 U115 2.984 . S
C118 O116 1.353 . S
C118 O117 1.286 . S
C118 C120 1.363 . S
C119 C109 1.465 . S
C119 U115 2.847 . S
C119 O133 1.249 . S
C119 O134 1.202 . S
C120 C118 1.363 . S
C120 C122 1.408 . S
C120 C125 1.342 . S
C121 C122 1.310 . S
C121 C124 1.461 . S
C121 H141 0.932 . S
C122 C120 1.408 . S
C122 C121 1.310 . S
C122 H142 0.930 . S
C123 C124 1.474 . S
C123 C125 1.285 . S
C123 H143 0.929 . S
C124 C121 1.461 . S
C124 C123 1.474 . S
C125 C120 1.342 . S
C125 C123 1.285 . S
C125 H144 0.930 . S
C126 C129 1.424 . S
C126 C131 1.245 . S
C126 C132 1.428 . S
C127 C130 1.260 . S
C127 C131 1.477 . S
C127 H145 0.932 . S
C128 C129 1.384 . S
C128 C130 1.479 . S
C128 H146 0.929 . S
C129 C126 1.424 . S
C129 C128 1.384 . S
C129 H147 0.928 . S
C130 C127 1.260 . S
C130 C128 1.479 . S
C131 C126 1.245 . S
C131 C127 1.477 . S
C131 H148 0.932 . S
C132 U115 2.882 . S
C132 C126 1.428 . S
C132 O135 1.301 . S
C132 O136 1.282 . S
O133 U115 2.441 . S
O133 C119 1.249 . S
O134 U115 2.420 . S
O134 C119 1.202 . S
O135 U115 2.455 . S
O135 C132 1.301 . S
O136 U115 2.449 . S
O136 C132 1.282 . S
H137 C110 0.931 . S
H138 C112 0.929 . S
H139 C113 0.930 . S
H140 C114 0.931 . S
H141 C121 0.932 . S
H142 C122 0.930 . S
H143 C123 0.929 . S
H144 C125 0.930 . S
H145 C127 0.932 . S
H146 C128 0.929 . S
H147 C129 0.928 . S
H148 C131 0.932 . S
C149 C150 1.264 . S
C149 C154 1.479 . S
C149 C159 1.465 . S
C150 C149 1.264 . S
C150 C152 1.339 . S
C150 H177 0.931 . S
C151 C152 1.395 . S
C151 C153 1.320 . S
C152 C150 1.339 . S
C152 C151 1.395 . S
C152 H178 0.929 . S
C153 C151 1.320 . S
C153 C154 1.405 . S
C153 H179 0.930 . S
C154 C149 1.479 . S
C154 C153 1.405 . S
C154 H180 0.931 . S
U155 O156 2.454 . S
U155 O157 2.458 . S
U155 C158 2.984 . S
U155 C159 2.847 1_455 S
U155 C172 2.882 . S
U155 O173 2.441 1_455 S
U155 O174 2.420 1_455 S
U155 O175 2.455 . S
U155 O176 2.449 1_455 S
O156 U155 2.454 . S
O156 C158 1.353 . S
O157 U155 2.458 . S
O157 C158 1.286 . S
C158 U155 2.984 . S
C158 O156 1.353 . S
C158 O157 1.286 . S
C158 C160 1.363 . S
C159 C149 1.465 . S
C159 U155 2.847 1_655 S
C159 O173 1.249 . S
C159 O174 1.202 . S
C160 C158 1.363 . S
C160 C162 1.408 . S
C160 C165 1.342 . S
C161 C162 1.310 . S
C161 C164 1.461 . S
C161 H181 0.932 . S
C162 C160 1.408 . S
C162 C161 1.310 . S
C162 H182 0.930 . S
C163 C164 1.474 . S
C163 C165 1.285 . S
C163 H183 0.929 . S
C164 C161 1.461 . S
C164 C163 1.474 . S
C165 C160 1.342 . S
C165 C163 1.285 . S
C165 H184 0.930 . S
C166 C169 1.424 1_455 S
C166 C171 1.245 . S
C166 C172 1.428 . S
C167 C170 1.260 . S
C167 C171 1.477 . S
C167 H185 0.932 . S
C168 C169 1.384 . S
C168 C170 1.479 1_655 S
C168 H186 0.929 . S
C169 C166 1.424 1_655 S
C169 C168 1.384 . S
C169 H187 0.928 . S
C170 C167 1.260 . S
C170 C168 1.479 1_455 S
C171 C166 1.245 . S
C171 C167 1.477 . S
C171 H188 0.932 . S
C172 U155 2.882 . S
C172 C166 1.428 . S
C172 O175 1.301 . S
C172 O176 1.282 1_455 S
O173 U155 2.441 1_655 S
O173 C159 1.249 . S
O174 U155 2.420 1_655 S
O174 C159 1.202 . S
O175 U155 2.455 . S
O175 C172 1.301 . S
O176 U155 2.449 1_655 S
O176 C172 1.282 1_655 S
H177 C150 0.931 . S
H178 C152 0.929 . S
H179 C153 0.930 . S
H180 C154 0.931 . S
H181 C161 0.932 . S
H182 C162 0.930 . S
H183 C163 0.929 . S
H184 C165 0.930 . S
H185 C167 0.932 . S
H186 C168 0.929 . S
H187 C169 0.928 . S
H188 C171 0.932 . S
C189 C190 1.264 . S
C189 C194 1.479 . S
C189 C199 1.465 . S
C190 C189 1.264 . S
C190 C192 1.339 . S
C190 H217 0.931 . S
C191 C192 1.395 . S
C191 C193 1.320 . S
C192 C190 1.339 . S
C192 C191 1.395 . S
C192 H218 0.929 . S
C193 C191 1.320 . S
C193 C194 1.405 . S
C193 H219 0.930 . S
C194 C189 1.479 . S
C194 C193 1.405 . S
C194 H220 0.931 . S
U195 O196 2.454 1_655 S
U195 O197 2.458 1_655 S
U195 C198 2.984 1_655 S
U195 C199 2.847 . S
U195 C212 2.882 . S
U195 O213 2.441 . S
U195 O214 2.420 . S
U195 O215 2.455 1_655 S
U195 O216 2.449 . S
O196 U195 2.454 1_455 S
O196 C198 1.353 . S
O197 U195 2.458 1_455 S
O197 C198 1.286 . S
C198 U195 2.984 1_455 S
C198 O196 1.353 . S
C198 O197 1.286 . S
C198 C200 1.363 . S
C199 C189 1.465 . S
C199 U195 2.847 . S
C199 O213 1.249 . S
C199 O214 1.202 . S
C200 C198 1.363 . S
C200 C202 1.408 . S
C200 C205 1.342 . S
C201 C202 1.310 . S
C201 C204 1.461 . S
C201 H221 0.932 . S
C202 C200 1.408 . S
C202 C201 1.310 . S
C202 H222 0.930 . S
C203 C204 1.474 . S
C203 C205 1.285 . S
C203 H223 0.929 . S
C204 C201 1.461 . S
C204 C203 1.474 . S
C205 C200 1.342 . S
C205 C203 1.285 . S
C205 H224 0.930 . S
C206 C209 1.424 . S
C206 C211 1.245 1_655 S
C206 C212 1.428 . S
C207 C210 1.260 1_455 S
C207 C211 1.477 . S
C207 H225 0.932 . S
C208 C209 1.384 . S
C208 C210 1.479 . S
C208 H226 0.929 . S
C209 C206 1.424 . S
C209 C208 1.384 . S
C209 H227 0.928 . S
C210 C207 1.260 1_655 S
C210 C208 1.479 . S
C211 C206 1.245 1_455 S
C211 C207 1.477 . S
C211 H228 0.932 . S
C212 U195 2.882 . S
C212 C206 1.428 . S
C212 O215 1.301 1_655 S
C212 O216 1.282 . S
O213 U195 2.441 . S
O213 C199 1.249 . S
O214 U195 2.420 . S
O214 C199 1.202 . S
O215 U195 2.455 1_455 S
O215 C212 1.301 1_455 S
O216 U195 2.449 . S
O216 C212 1.282 . S
H217 C190 0.931 . S
H218 C192 0.929 . S
H219 C193 0.930 . S
H220 C194 0.931 . S
H221 C201 0.932 . S
H222 C202 0.930 . S
H223 C203 0.929 . S
H224 C205 0.930 . S
H225 C207 0.932 . S
H226 C208 0.929 . S
H227 C209 0.928 . S
H228 C211 0.932 . S
C229 C230 1.264 . S
C229 C234 1.479 . S
C229 C239 1.465 . S
C230 C229 1.264 . S
C230 C232 1.339 . S
C230 H257 0.931 . S
C231 C232 1.395 . S
C231 C233 1.320 . S
C232 C230 1.339 . S
C232 C231 1.395 . S
C232 H258 0.929 . S
C233 C231 1.320 . S
C233 C234 1.405 . S
C233 H259 0.930 . S
C234 C229 1.479 . S
C234 C233 1.405 . S
C234 H260 0.931 . S
U235 O236 2.454 1_565 S
U235 O237 2.458 1_565 S
U235 C238 2.984 1_565 S
U235 C239 2.847 . S
U235 C252 2.882 . S
U235 O253 2.441 . S
U235 O254 2.420 . S
U235 O255 2.455 1_565 S
U235 O256 2.449 . S
O236 U235 2.454 1_545 S
O236 C238 1.353 . S
O237 U235 2.458 1_545 S
O237 C238 1.286 . S
C238 U235 2.984 1_545 S
C238 O236 1.353 . S
C238 O237 1.286 . S
C238 C240 1.363 . S
C239 C229 1.465 . S
C239 U235 2.847 . S
C239 O253 1.249 . S
C239 O254 1.202 . S
C240 C238 1.363 . S
C240 C242 1.408 . S
C240 C245 1.342 . S
C241 C242 1.310 . S
C241 C244 1.461 . S
C241 H261 0.932 . S
C242 C240 1.408 . S
C242 C241 1.310 . S
C242 H262 0.930 . S
C243 C244 1.474 . S
C243 C245 1.285 . S
C243 H263 0.929 . S
C244 C241 1.461 . S
C244 C243 1.474 . S
C245 C240 1.342 . S
C245 C243 1.285 . S
C245 H264 0.930 . S
C246 C249 1.424 . S
C246 C251 1.245 1_565 S
C246 C252 1.428 . S
C247 C250 1.260 1_545 S
C247 C251 1.477 . S
C247 H265 0.932 . S
C248 C249 1.384 . S
C248 C250 1.479 . S
C248 H266 0.929 . S
C249 C246 1.424 . S
C249 C248 1.384 . S
C249 H267 0.928 . S
C250 C247 1.260 1_565 S
C250 C248 1.479 . S
C251 C246 1.245 1_545 S
C251 C247 1.477 . S
C251 H268 0.932 . S
C252 U235 2.882 . S
C252 C246 1.428 . S
C252 O255 1.301 1_565 S
C252 O256 1.282 . S
O253 U235 2.441 . S
O253 C239 1.249 . S
O254 U235 2.420 . S
O254 C239 1.202 . S
O255 U235 2.455 1_545 S
O255 C252 1.301 1_545 S
O256 U235 2.449 . S
O256 C252 1.282 . S
H257 C230 0.931 . S
H258 C232 0.929 . S
H259 C233 0.930 . S
H260 C234 0.931 . S
H261 C241 0.932 . S
H262 C242 0.930 . S
H263 C243 0.929 . S
H264 C245 0.930 . S
H265 C247 0.932 . S
H266 C248 0.929 . S
H267 C249 0.928 . S
H268 C251 0.932 . S
C269 C270 1.264 . S
C269 C274 1.479 . S
C269 C279 1.465 . S
C270 C269 1.264 . S
C270 C272 1.339 . S
C270 H297 0.931 . S
C271 C272 1.395 . S
C271 C273 1.320 . S
C272 C270 1.339 . S
C272 C271 1.395 . S
C272 H298 0.929 . S
C273 C271 1.320 . S
C273 C274 1.405 . S
C273 H299 0.930 . S
C274 C269 1.479 . S
C274 C273 1.405 . S
C274 H300 0.931 . S
U275 O276 2.454 . S
U275 O277 2.458 . S
U275 C278 2.984 . S
U275 C279 2.847 . S
U275 C292 2.882 . S
U275 O293 2.441 . S
U275 O294 2.420 . S
U275 O295 2.455 . S
U275 O296 2.449 . S
O276 U275 2.454 . S
O276 C278 1.353 . S
O277 U275 2.458 . S
O277 C278 1.286 . S
C278 U275 2.984 . S
C278 O276 1.353 . S
C278 O277 1.286 . S
C278 C280 1.363 . S
C279 C269 1.465 . S
C279 U275 2.847 . S
C279 O293 1.249 . S
C279 O294 1.202 . S
C280 C278 1.363 . S
C280 C282 1.408 . S
C280 C285 1.342 . S
C281 C282 1.310 . S
C281 C284 1.461 . S
C281 H301 0.932 . S
C282 C280 1.408 . S
C282 C281 1.310 . S
C282 H302 0.930 . S
C283 C284 1.474 . S
C283 C285 1.285 . S
C283 H303 0.929 . S
C284 C281 1.461 . S
C284 C283 1.474 . S
C285 C280 1.342 . S
C285 C283 1.285 . S
C285 H304 0.930 . S
C286 C289 1.424 . S
C286 C291 1.245 . S
C286 C292 1.428 . S
C287 C290 1.260 . S
C287 C291 1.477 . S
C287 H305 0.932 . S
C288 C289 1.384 . S
C288 C290 1.479 . S
C288 H306 0.929 . S
C289 C286 1.424 . S
C289 C288 1.384 . S
C289 H307 0.928 . S
C290 C287 1.260 . S
C290 C288 1.479 . S
C291 C286 1.245 . S
C291 C287 1.477 . S
C291 H308 0.932 . S
C292 U275 2.882 . S
C292 C286 1.428 . S
C292 O295 1.301 . S
C292 O296 1.282 . S
O293 U275 2.441 . S
O293 C279 1.249 . S
O294 U275 2.420 . S
O294 C279 1.202 . S
O295 U275 2.455 . S
O295 C292 1.301 . S
O296 U275 2.449 . S
O296 C292 1.282 . S
H297 C270 0.931 . S
H298 C272 0.929 . S
H299 C273 0.930 . S
H300 C274 0.931 . S
H301 C281 0.932 . S
H302 C282 0.930 . S
H303 C283 0.929 . S
H304 C285 0.930 . S
H305 C287 0.932 . S
H306 C288 0.929 . S
H307 C289 0.928 . S
H308 C291 0.932 . S
H309 C317 0.950 . S
H310 C322 0.950 . S
H311 C319 0.950 . S
H312 C321 0.950 . S
H313 C323 0.950 . S
H314 C325 0.950 . S
H315 C327 0.950 . S
H316 C328 0.950 . S
C317 H309 0.950 . S
C317 C318 1.386 . S
C317 C319 1.391 . S
C318 C317 1.386 . S
C318 C322 1.393 . S
C319 H311 0.950 . S
C319 C317 1.391 . S
C319 C320 1.400 . S
C320 C319 1.400 . S
C320 C321 1.398 . S
C320 C326 1.491 . S
C321 H312 0.950 . S
C321 C320 1.398 . S
C321 C322 1.391 . S
C322 H310 0.950 . S
C322 C318 1.393 . S
C322 C321 1.391 . S
C323 H313 0.950 . S
C323 C324 1.386 . S
C323 C325 1.391 . S
C324 C323 1.386 . S
C324 C328 1.393 . S
C325 H314 0.950 . S
C325 C323 1.391 . S
C325 C326 1.400 . S
C326 C320 1.491 . S
C326 C325 1.400 . S
C326 C327 1.398 . S
C327 H315 0.950 . S
C327 C326 1.398 . S
C327 C328 1.391 . S
C328 H316 0.950 . S
C328 C324 1.393 . S
C328 C327 1.391 . S
H329 C337 0.950 . S
H330 C342 0.950 . S
H331 C339 0.950 . S
H332 C341 0.950 . S
H333 C343 0.950 . S
H334 C345 0.950 . S
H335 C347 0.950 . S
H336 C348 0.950 . S
C337 H329 0.950 . S
C337 C338 1.386 . S
C337 C339 1.391 . S
C338 C337 1.386 . S
C338 C342 1.393 . S
C339 H331 0.950 . S
C339 C337 1.391 . S
C339 C340 1.400 . S
C340 C339 1.400 . S
C340 C341 1.398 . S
C340 C346 1.491 . S
C341 H332 0.950 . S
C341 C340 1.398 . S
C341 C342 1.391 . S
C342 H330 0.950 . S
C342 C338 1.393 . S
C342 C341 1.391 . S
C343 H333 0.950 . S
C343 C344 1.386 . S
C343 C345 1.391 . S
C344 C343 1.386 . S
C344 C348 1.393 . S
C345 H334 0.950 . S
C345 C343 1.391 . S
C345 C346 1.400 . S
C346 C340 1.491 . S
C346 C345 1.400 . S
C346 C347 1.398 . S
C347 H335 0.950 . S
C347 C346 1.398 . S
C347 C348 1.391 . S
C348 H336 0.950 . S
C348 C344 1.393 . S
C348 C347 1.391 . S
H349 C357 0.950 . S
H350 C362 0.950 . S
H351 C359 0.950 . S
H352 C361 0.950 . S
H353 C363 0.950 . S
H354 C365 0.950 . S
H355 C367 0.950 . S
H356 C368 0.950 . S
C357 H349 0.950 . S
C357 C358 1.386 . S
C357 C359 1.391 . S
C358 C357 1.386 . S
C358 C362 1.393 . S
C359 H351 0.950 . S
C359 C357 1.391 . S
C359 C360 1.400 . S
C360 C359 1.400 . S
C360 C361 1.398 . S
C360 C366 1.491 . S
C361 H352 0.950 . S
C361 C360 1.398 . S
C361 C362 1.391 . S
C362 H350 0.950 . S
C362 C358 1.393 . S
C362 C361 1.391 . S
C363 H353 0.950 . S
C363 C364 1.386 . S
C363 C365 1.391 . S
C364 C363 1.386 . S
C364 C368 1.393 . S
C365 H354 0.950 . S
C365 C363 1.391 . S
C365 C366 1.400 . S
C366 C360 1.491 . S
C366 C365 1.400 . S
C366 C367 1.398 . S
C367 H355 0.950 . S
C367 C366 1.398 . S
C367 C368 1.391 . S
C368 H356 0.950 . S
C368 C364 1.393 . S
C368 C367 1.391 . S
H369 C377 0.950 . S
H370 C382 0.950 . S
H371 C379 0.950 . S
H372 C381 0.950 . S
H373 C383 0.950 . S
H374 C385 0.950 . S
H375 C387 0.950 . S
H376 C388 0.950 . S
C377 H369 0.950 . S
C377 C378 1.386 . S
C377 C379 1.391 . S
C378 C377 1.386 . S
C378 C382 1.393 . S
C379 H371 0.950 . S
C379 C377 1.391 . S
C379 C380 1.400 . S
C380 C379 1.400 . S
C380 C381 1.398 . S
C380 C386 1.491 . S
C381 H372 0.950 . S
C381 C380 1.398 . S
C381 C382 1.391 . S
C382 H370 0.950 . S
C382 C378 1.393 . S
C382 C381 1.391 . S
C383 H373 0.950 . S
C383 C384 1.386 . S
C383 C385 1.391 . S
C384 C383 1.386 . S
C384 C388 1.393 . S
C385 H374 0.950 . S
C385 C383 1.391 . S
C385 C386 1.400 . S
C386 C380 1.491 . S
C386 C385 1.400 . S
C386 C387 1.398 . S
C387 H375 0.950 . S
C387 C386 1.398 . S
C387 C388 1.391 . S
C388 H376 0.950 . S
C388 C384 1.393 . S
C388 C387 1.391 . S
H389 C397 0.950 . S
H390 C402 0.950 . S
H391 C399 0.950 . S
H392 C401 0.950 . S
H393 C403 0.950 . S
H394 C405 0.950 . S
H395 C407 0.950 . S
H396 C408 0.950 . S
C397 H389 0.950 . S
C397 C398 1.386 . S
C397 C399 1.391 . S
C398 C397 1.386 . S
C398 C402 1.393 . S
C399 H391 0.950 . S
C399 C397 1.391 . S
C399 C400 1.400 . S
C400 C399 1.400 . S
C400 C401 1.398 . S
C400 C406 1.491 . S
C401 H392 0.950 . S
C401 C400 1.398 . S
C401 C402 1.391 . S
C402 H390 0.950 . S
C402 C398 1.393 . S
C402 C401 1.391 . S
C403 H393 0.950 . S
C403 C404 1.386 . S
C403 C405 1.391 . S
C404 C403 1.386 . S
C404 C408 1.393 . S
C405 H394 0.950 . S
C405 C403 1.391 . S
C405 C406 1.400 . S
C406 C400 1.491 . S
C406 C405 1.400 . S
C406 C407 1.398 . S
C407 H395 0.950 . S
C407 C406 1.398 . S
C407 C408 1.391 . S
C408 H396 0.950 . S
C408 C404 1.393 . S
C408 C407 1.391 . S
H409 C417 0.950 . S
H410 C422 0.950 . S
H411 C419 0.950 . S
H412 C421 0.950 . S
H413 C423 0.950 . S
H414 C425 0.950 . S
H415 C427 0.950 . S
H416 C428 0.950 . S
C417 H409 0.950 . S
C417 C418 1.386 . S
C417 C419 1.391 . S
C418 C417 1.386 . S
C418 C422 1.393 . S
C419 H411 0.950 . S
C419 C417 1.391 . S
C419 C420 1.400 . S
C420 C419 1.400 . S
C420 C421 1.398 . S
C420 C426 1.491 . S
C421 H412 0.950 . S
C421 C420 1.398 . S
C421 C422 1.391 . S
C422 H410 0.950 . S
C422 C418 1.393 . S
C422 C421 1.391 . S
C423 H413 0.950 . S
C423 C424 1.386 . S
C423 C425 1.391 . S
C424 C423 1.386 . S
C424 C428 1.393 . S
C425 H414 0.950 . S
C425 C423 1.391 . S
C425 C426 1.400 . S
C426 C420 1.491 . S
C426 C425 1.400 . S
C426 C427 1.398 . S
C427 H415 0.950 . S
C427 C426 1.398 . S
C427 C428 1.391 . S
C428 H416 0.950 . S
C428 C424 1.393 . S
C428 C427 1.391 . S
H429 C437 0.950 . S
H430 C442 0.950 . S
H431 C439 0.950 . S
H432 C441 0.950 . S
H433 C443 0.950 . S
H434 C445 0.950 . S
H435 C447 0.950 . S
H436 C448 0.950 . S
C437 H429 0.950 . S
C437 C438 1.386 . S
C437 C439 1.391 . S
C438 C437 1.386 . S
C438 C442 1.393 . S
C439 H431 0.950 . S
C439 C437 1.391 . S
C439 C440 1.400 . S
C440 C439 1.400 . S
C440 C441 1.398 . S
C440 C446 1.491 . S
C441 H432 0.950 . S
C441 C440 1.398 . S
C441 C442 1.391 . S
C442 H430 0.950 . S
C442 C438 1.393 . S
C442 C441 1.391 . S
C443 H433 0.950 . S
C443 C444 1.386 . S
C443 C445 1.391 . S
C444 C443 1.386 . S
C444 C448 1.393 . S
C445 H434 0.950 . S
C445 C443 1.391 . S
C445 C446 1.400 . S
C446 C440 1.491 . S
C446 C445 1.400 . S
C446 C447 1.398 . S
C447 H435 0.950 . S
C447 C446 1.398 . S
C447 C448 1.391 . S
C448 H436 0.950 . S
C448 C444 1.393 . S
C448 C447 1.391 . S
H449 C457 0.950 . S
H450 C462 0.950 . S
H451 C459 0.950 . S
H452 C461 0.950 . S
H453 C463 0.950 . S
H454 C465 0.950 . S
H455 C467 0.950 . S
H456 C468 0.950 . S
C457 H449 0.950 . S
C457 C458 1.386 . S
C457 C459 1.391 . S
C458 C457 1.386 . S
C458 C462 1.393 . S
C459 H451 0.950 . S
C459 C457 1.391 . S
C459 C460 1.400 . S
C460 C459 1.400 . S
C460 C461 1.398 . S
C460 C466 1.491 . S
C461 H452 0.950 . S
C461 C460 1.398 . S
C461 C462 1.391 . S
C462 H450 0.950 . S
C462 C458 1.393 . S
C462 C461 1.391 . S
C463 H453 0.950 . S
C463 C464 1.386 . S
C463 C465 1.391 . S
C464 C463 1.386 . S
C464 C468 1.393 . S
C465 H454 0.950 . S
C465 C463 1.391 . S
C465 C466 1.400 . S
C466 C460 1.491 . S
C466 C465 1.400 . S
C466 C467 1.398 . S
C467 H455 0.950 . S
C467 C466 1.398 . S
C467 C468 1.391 . S
C468 H456 0.950 . S
C468 C464 1.393 . S
C468 C467 1.391 . S
H469 C477 0.950 . S
H470 C482 0.950 . S
H471 C479 0.950 . S
H472 C481 0.950 . S
H473 C483 0.950 . S
H474 C485 0.950 . S
H475 C487 0.950 . S
H476 C488 0.950 . S
C477 H469 0.950 . S
C477 C478 1.386 . S
C477 C479 1.391 . S
C478 C477 1.386 . S
C478 C482 1.393 . S
C479 H471 0.950 . S
C479 C477 1.391 . S
C479 C480 1.400 . S
C480 C479 1.400 . S
C480 C481 1.398 . S
C480 C486 1.491 . S
C481 H472 0.950 . S
C481 C480 1.398 . S
C481 C482 1.391 . S
C482 H470 0.950 . S
C482 C478 1.393 . S
C482 C481 1.391 . S
C483 H473 0.950 . S
C483 C484 1.386 . S
C483 C485 1.391 . S
C484 C483 1.386 . S
C484 C488 1.393 . S
C485 H474 0.950 . S
C485 C483 1.391 . S
C485 C486 1.400 . S
C486 C480 1.491 . S
C486 C485 1.400 . S
C486 C487 1.398 . S
C487 H475 0.950 . S
C487 C486 1.398 . S
C487 C488 1.391 . S
C488 H476 0.950 . S
C488 C484 1.393 . S
C488 C487 1.391 . S
H489 C497 0.950 . S
H490 C502 0.950 . S
H491 C499 0.950 . S
H492 C501 0.950 . S
H493 C503 0.950 . S
H494 C505 0.950 . S
H495 C507 0.950 . S
H496 C508 0.950 . S
C497 H489 0.950 . S
C497 C498 1.386 . S
C497 C499 1.391 . S
C498 C497 1.386 . S
C498 C502 1.393 . S
C499 H491 0.950 . S
C499 C497 1.391 . S
C499 C500 1.400 . S
C500 C499 1.400 . S
C500 C501 1.398 . S
C500 C506 1.491 . S
C501 H492 0.950 . S
C501 C500 1.398 . S
C501 C502 1.391 . S
C502 H490 0.950 . S
C502 C498 1.393 . S
C502 C501 1.391 . S
C503 H493 0.950 . S
C503 C504 1.386 . S
C503 C505 1.391 . S
C504 C503 1.386 . S
C504 C508 1.393 . S
C505 H494 0.950 . S
C505 C503 1.391 . S
C505 C506 1.400 . S
C506 C500 1.491 . S
C506 C505 1.400 . S
C506 C507 1.398 . S
C507 H495 0.950 . S
C507 C506 1.398 . S
C507 C508 1.391 . S
C508 H496 0.950 . S
C508 C504 1.393 . S
C508 C507 1.391 . S
H509 C517 0.950 . S
H510 C522 0.950 . S
H511 C519 0.950 . S
H512 C521 0.950 . S
H513 C523 0.950 . S
H514 C525 0.950 . S
H515 C527 0.950 . S
H516 C528 0.950 . S
C517 H509 0.950 . S
C517 C518 1.386 . S
C517 C519 1.391 . S
C518 C517 1.386 . S
C518 C522 1.393 . S
C519 H511 0.950 . S
C519 C517 1.391 . S
C519 C520 1.400 . S
C520 C519 1.400 . S
C520 C521 1.398 . S
C520 C526 1.491 . S
C521 H512 0.950 . S
C521 C520 1.398 . S
C521 C522 1.391 . S
C522 H510 0.950 . S
C522 C518 1.393 . S
C522 C521 1.391 . S
C523 H513 0.950 . S
C523 C524 1.386 . S
C523 C525 1.391 . S
C524 C523 1.386 . S
C524 C528 1.393 . S
C525 H514 0.950 . S
C525 C523 1.391 . S
C525 C526 1.400 . S
C526 C520 1.491 . S
C526 C525 1.400 . S
C526 C527 1.398 . S
C527 H515 0.950 . S
C527 C526 1.398 . S
C527 C528 1.391 . S
C528 H516 0.950 . S
C528 C524 1.393 . S
C528 C527 1.391 . S
H529 C537 0.950 . S
H530 C542 0.950 . S
H531 C539 0.950 . S
H532 C541 0.950 . S
H533 C543 0.950 . S
H534 C545 0.950 . S
H535 C547 0.950 . S
H536 C548 0.950 . S
C537 H529 0.950 . S
C537 C538 1.386 . S
C537 C539 1.391 . S
C538 C537 1.386 . S
C538 C542 1.393 . S
C539 H531 0.950 . S
C539 C537 1.391 . S
C539 C540 1.400 . S
C540 C539 1.400 . S
C540 C541 1.398 . S
C540 C546 1.491 . S
C541 H532 0.950 . S
C541 C540 1.398 . S
C541 C542 1.391 . S
C542 H530 0.950 . S
C542 C538 1.393 . S
C542 C541 1.391 . S
C543 H533 0.950 . S
C543 C544 1.386 . S
C543 C545 1.391 . S
C544 C543 1.386 . S
C544 C548 1.393 . S
C545 H534 0.950 . S
C545 C543 1.391 . S
C545 C546 1.400 . S
C546 C540 1.491 . S
C546 C545 1.400 . S
C546 C547 1.398 . S
C547 H535 0.950 . S
C547 C546 1.398 . S
C547 C548 1.391 . S
C548 H536 0.950 . S
C548 C544 1.393 . S
C548 C547 1.391 . S
H549 C557 0.950 . S
H550 C562 0.950 . S
H551 C559 0.950 . S
H552 C561 0.950 . S
H553 C563 0.950 . S
H554 C565 0.950 . S
H555 C567 0.950 . S
H556 C568 0.950 . S
C557 H549 0.950 . S
C557 C558 1.386 . S
C557 C559 1.391 . S
C558 C557 1.386 . S
C558 C562 1.393 1_455 S
C559 H551 0.950 . S
C559 C557 1.391 . S
C559 C560 1.400 . S
C560 C559 1.400 . S
C560 C561 1.398 1_455 S
C560 C566 1.491 . S
C561 H552 0.950 . S
C561 C560 1.398 1_655 S
C561 C562 1.391 . S
C562 H550 0.950 . S
C562 C558 1.393 1_655 S
C562 C561 1.391 . S
C563 H553 0.950 . S
C563 C564 1.386 1_655 S
C563 C565 1.391 . S
C564 C563 1.386 1_455 S
C564 C568 1.393 . S
C565 H554 0.950 . S
C565 C563 1.391 . S
C565 C566 1.400 1_655 S
C566 C560 1.491 . S
C566 C565 1.400 1_455 S
C566 C567 1.398 . S
C567 H555 0.950 . S
C567 C566 1.398 . S
C567 C568 1.391 . S
C568 H556 0.950 . S
C568 C564 1.393 . S
C568 C567 1.391 . S
H569 C577 0.945 . S
H570 C582 0.950 . S
H571 C579 0.946 . S
H572 C581 0.950 . S
H573 C583 0.950 . S
H574 C585 0.950 . S
H575 C587 0.950 . S
H576 C588 0.950 . S
C577 H569 0.945 . S
C577 C578 1.391 1_565 S
C577 C579 1.391 . S
C578 C577 1.391 1_545 S
C578 C582 1.393 . S
C579 H571 0.946 . S
C579 C577 1.391 . S
C579 C580 1.404 1_565 S
C580 C579 1.404 1_545 S
C580 C581 1.398 . S
C580 C586 1.491 . S
C581 H572 0.950 . S
C581 C580 1.398 . S
C581 C582 1.391 . S
C582 H570 0.950 . S
C582 C578 1.393 . S
C582 C581 1.391 . S
C583 H573 0.950 . S
C583 C584 1.386 . S
C583 C585 1.391 . S
C584 C583 1.386 . S
C584 C588 1.393 1_545 S
C585 H574 0.950 . S
C585 C583 1.391 . S
C585 C586 1.400 . S
C586 C580 1.491 . S
C586 C585 1.400 . S
C586 C587 1.398 1_545 S
C587 H575 0.950 . S
C587 C586 1.398 1_565 S
C587 C588 1.391 . S
C588 H576 0.950 . S
C588 C584 1.393 1_565 S
C588 C587 1.391 . S
H589 C597 0.950 . S
H590 C602 0.950 . S
H591 C599 0.950 . S
H592 C601 0.950 . S
H593 C603 0.950 . S
H594 C605 0.950 . S
H595 C607 0.950 . S
H596 C608 0.950 . S
C597 H589 0.950 . S
C597 C598 1.386 . S
C597 C599 1.391 . S
C598 C597 1.386 . S
C598 C602 1.393 . S
C599 H591 0.950 . S
C599 C597 1.391 . S
C599 C600 1.400 . S
C600 C599 1.400 . S
C600 C601 1.398 . S
C600 C606 1.491 . S
C601 H592 0.950 . S
C601 C600 1.398 . S
C601 C602 1.391 . S
C602 H590 0.950 . S
C602 C598 1.393 . S
C602 C601 1.391 . S
C603 H593 0.950 . S
C603 C604 1.386 . S
C603 C605 1.391 . S
C604 C603 1.386 . S
C604 C608 1.393 . S
C605 H594 0.950 . S
C605 C603 1.391 . S
C605 C606 1.400 . S
C606 C600 1.491 . S
C606 C605 1.400 . S
C606 C607 1.398 . S
C607 H595 0.950 . S
C607 C606 1.398 . S
C607 C608 1.391 . S
C608 H596 0.950 . S
C608 C604 1.393 . S
C608 C607 1.391 . S
H609 C617 0.950 . S
H610 C622 0.950 . S
H611 C619 0.950 . S
H612 C621 0.950 . S
H613 C623 0.950 . S
H614 C625 0.950 . S
H615 C627 0.950 . S
H616 C628 0.950 . S
C617 H609 0.950 . S
C617 C618 1.386 1_565 S
C617 C619 1.391 . S
C618 C617 1.386 1_545 S
C618 C622 1.393 . S
C619 H611 0.950 . S
C619 C617 1.391 . S
C619 C620 1.400 1_565 S
C620 C619 1.400 1_545 S
C620 C621 1.398 . S
C620 C626 1.491 . S
C621 H612 0.950 . S
C621 C620 1.398 . S
C621 C622 1.391 . S
C622 H610 0.950 . S
C622 C618 1.393 . S
C622 C621 1.391 . S
C623 H613 0.950 . S
C623 C624 1.392 . S
C623 C625 1.391 . S
C624 C623 1.392 . S
C624 C628 1.387 1_545 S
C625 H614 0.950 . S
C625 C623 1.391 . S
C625 C626 1.400 . S
C626 C620 1.491 . S
C626 C625 1.400 . S
C626 C627 1.398 1_545 S
C627 H615 0.950 . S
C627 C626 1.398 1_565 S
C627 C628 1.391 . S
C628 H616 0.950 . S
C628 C624 1.387 1_565 S
C628 C627 1.391 . S
H629 C637 0.950 . S
H630 C642 0.950 . S
H631 C639 0.950 . S
H632 C641 0.950 . S
H633 C643 0.950 . S
H634 C645 0.950 . S
H635 C647 0.950 . S
H636 C648 0.950 . S
C637 H629 0.950 . S
C637 C638 1.386 . S
C637 C639 1.391 . S
C638 C637 1.386 . S
C638 C642 1.393 . S
C639 H631 0.950 . S
C639 C637 1.391 . S
C639 C640 1.400 . S
C640 C639 1.400 . S
C640 C641 1.398 . S
C640 C646 1.491 . S
C641 H632 0.950 . S
C641 C640 1.398 . S
C641 C642 1.391 . S
C642 H630 0.950 . S
C642 C638 1.393 . S
C642 C641 1.391 . S
C643 H633 0.950 . S
C643 C644 1.386 . S
C643 C645 1.391 . S
C644 C643 1.386 . S
C644 C648 1.393 . S
C645 H634 0.950 . S
C645 C643 1.391 . S
C645 C646 1.400 . S
C646 C640 1.491 . S
C646 C645 1.400 . S
C646 C647 1.398 . S
C647 H635 0.950 . S
C647 C646 1.398 . S
C647 C648 1.391 . S
C648 H636 0.950 . S
C648 C644 1.393 . S
C648 C647 1.391 . S
H649 C657 0.950 . S
H650 C662 0.950 . S
H651 C659 0.950 . S
H652 C661 0.950 . S
H653 C663 0.950 . S
H654 C665 0.950 . S
H655 C667 0.950 . S
H656 C668 0.950 . S
C657 H649 0.950 . S
C657 C658 1.386 . S
C657 C659 1.391 . S
C658 C657 1.386 . S
C658 C662 1.393 1_455 S
C659 H651 0.950 . S
C659 C657 1.391 . S
C659 C660 1.400 . S
C660 C659 1.400 . S
C660 C661 1.398 1_455 S
C660 C666 1.491 . S
C661 H652 0.950 . S
C661 C660 1.398 1_655 S
C661 C662 1.391 . S
C662 H650 0.950 . S
C662 C658 1.393 1_655 S
C662 C661 1.391 . S
C663 H653 0.950 . S
C663 C664 1.386 1_655 S
C663 C665 1.391 . S
C664 C663 1.386 1_455 S
C664 C668 1.393 . S
C665 H654 0.950 . S
C665 C663 1.391 . S
C665 C666 1.400 1_655 S
C666 C660 1.491 . S
C666 C665 1.400 1_455 S
C666 C667 1.398 . S
C667 H655 0.950 . S
C667 C666 1.398 . S
C667 C668 1.391 . S
C668 H656 0.950 . S
C668 C664 1.393 . S
C668 C667 1.391 . S
C318 C20 1.150 . S
C324 C284 1.175 . S
C338 C41 1.215 . S
C344 C191 1.212 . S
C358 C64 1.249 . S
C364 C231 1.250 . S
C378 C19 1.190 . S
C384 C271 1.248 . S
C404 C204 1.215 . S
C398 C44 1.214 . S
C424 C244 1.207 . S
C418 C67 1.212 . S
C438 C43 1.131 . S
C444 C111 1.185 . S
C458 C66 1.161 . S
C464 C151 1.178 . S
C478 C21 1.213 . S
C484 C84 1.215 . S
C504 C124 1.235 . S
C498 C42 1.211 . S
C524 C164 1.247 . S
C518 C65 1.202 . S
C538 C18 1.220 . S
C544 C71 1.222 . S
C564 C170 1.450 1_554 S
C558 C17 1.458 . S
C578 C39 1.454 . S
C584 C90 1.450 . S
C598 C62 1.473 . S
C604 C130 1.455 . S
C624 C250 1.429 1_545 S
C618 C40 1.440 . S
C644 C290 1.459 1_556 S
C638 C63 1.461 . S
C658 C16 1.453 . S
C664 C210 1.450 1_455 S
