# Generated by pormake.
# Topology nia, (6,6)-cn, num edge types: 1
# Building blocks:
#     Node 0, Type 0, BuildingBlock: BETDAH_clean_sbu_0, # of connection points: 6
#     Node 1, Type 0, BuildingBlock: BETDAH_clean_sbu_0, # of connection points: 6
#     Node 2, Type 1, BuildingBlock: MIDCAF_clean_sbu_0, # of connection points: 6
#     Node 3, Type 1, BuildingBlock: MIDCAF_clean_sbu_0, # of connection points: 6
#     Edge 4, Type (0, 1), BuildingBlock: MIFKUJ_clean_linker_0, # of connection points: 2
#     Edge 5, Type (0, 1), BuildingBlock: MIFKUJ_clean_linker_0, # of connection points: 2
#     Edge 6, Type (0, 1), BuildingBlock: MIFKUJ_clean_linker_0, # of connection points: 2
#     Edge 7, Type (0, 1), BuildingBlock: MIFKUJ_clean_linker_0, # of connection points: 2
#     Edge 8, Type (0, 1), BuildingBlock: MIFKUJ_clean_linker_0, # of connection points: 2
#     Edge 9, Type (0, 1), BuildingBlock: MIFKUJ_clean_linker_0, # of connection points: 2
#     Edge 10, Type (0, 1), BuildingBlock: MIFKUJ_clean_linker_0, # of connection points: 2
#     Edge 11, Type (0, 1), BuildingBlock: MIFKUJ_clean_linker_0, # of connection points: 2
#     Edge 12, Type (0, 1), BuildingBlock: MIFKUJ_clean_linker_0, # of connection points: 2
#     Edge 13, Type (0, 1), BuildingBlock: MIFKUJ_clean_linker_0, # of connection points: 2
#     Edge 14, Type (0, 1), BuildingBlock: MIFKUJ_clean_linker_0, # of connection points: 2
#     Edge 15, Type (0, 1), BuildingBlock: MIFKUJ_clean_linker_0, # of connection points: 2
# Relax obj value: 0.294
# Max RMSD: 0.261
# Mean RMSD: 0.240
data_MOF--net-nia--node1-BETDAH_clean_sbu_0--node2-MIDCAF_clean_sbu_0--edge1-MIFKUJ_clean_linker_0
_symmetry_space_group_name_H-M    P1
_symmetry_Int_Tables_number       1
_symmetry_cell_setting            triclinic
loop_
_symmetry_equiv_pos_as_xyz
'x, y, z'
_cell_length_a     31.851627
_cell_length_b     34.844222
_cell_length_c     43.121482
_cell_angle_alpha  76.042022
_cell_angle_beta   99.604692
_cell_angle_gamma 127.28468
loop_
_atom_site_label
_atom_site_type_symbol
_atom_site_fract_x
_atom_site_fract_y
_atom_site_fract_z
_atom_type_partial_charge
Ho0 Ho 0.07155 0.06036 0.02015 0.0
Ho1 Ho 0.9826 0.96312 0.99401 0.0
C2 C 0.98882 0.06028 0.96778 0.0
C3 C 0.15901 0.13786 0.03591 0.0
C4 C 0.18075 0.15688 0.06579 0.0
C5 C 0.21658 0.20746 0.06449 0.0
C6 C 0.23287 0.22687 0.09244 0.0
C7 C 0.2138 0.1959 0.12228 0.0
C8 C 0.17927 0.14488 0.12355 0.0
C9 C 0.16265 0.1255 0.09545 0.0
C10 C 0.9777 0.00577 0.04977 0.0
C11 C 0.07098 0.96292 0.04328 0.0
C12 C 0.89923 0.87945 0.98397 0.0
C13 C 0.89412 0.84491 0.96678 0.0
C14 C 0.89479 0.80546 0.98393 0.0
C15 C 0.90155 0.7791 0.96808 0.0
C16 C 0.90753 0.79169 0.93483 0.0
C17 C 0.90319 0.82885 0.91749 0.0
C18 C 0.89641 0.85512 0.93327 0.0
C19 C 0.07024 0.02059 0.95638 0.0
O20 O 0.03981 0.08586 0.97584 0.0
O21 O 0.95664 0.01244 0.97816 0.0
O22 O 0.15376 0.09798 0.03487 0.0
O23 O 0.11784 0.13673 0.02402 0.0
O24 O 0.01224 0.05267 0.04824 0.0
O25 O 0.99781 0.98964 0.03919 0.0
O26 O 0.02767 0.93745 0.02572 0.0
O27 O 0.09362 0.00933 0.04498 0.0
O28 O 0.91071 0.921 0.96657 0.0
O29 O 0.92688 0.88546 0.01085 0.0
O30 O 0.0288 0.97776 0.95155 0.0
O31 O 0.06042 0.02835 0.98013 0.0
H32 H 0.23038 0.23211 0.04172 0.0
H33 H 0.25841 0.26637 0.09036 0.0
H34 H 0.16412 0.12006 0.14611 0.0
H35 H 0.13453 0.08619 0.09677 0.0
H36 H 0.8928 0.79658 0.00976 0.0
H37 H 0.90435 0.75032 0.98198 0.0
H38 H 0.90607 0.83826 0.8917 0.0
H39 H 0.89539 0.88486 0.91923 0.0
Ho40 Ho 0.99654 0.0294 0.52002 0.0
Ho41 Ho 0.0549 0.98611 0.50038 0.0
C42 C 0.95626 0.97686 0.45795 0.0
C43 C 0.97418 0.08698 0.52579 0.0
C44 C 0.96357 0.10107 0.55147 0.0
C45 C 0.98663 0.15069 0.55022 0.0
C46 C 0.97601 0.1653 0.57349 0.0
C47 C 0.94174 0.13046 0.59845 0.0
C48 C 0.91978 0.08076 0.60017 0.0
C49 C 0.93069 0.06618 0.5769 0.0
C50 C 0.95995 0.93642 0.55269 0.0
C51 C 0.09355 0.03746 0.56347 0.0
C52 C 0.08007 0.93001 0.4956 0.0
C53 C 0.10093 0.92153 0.47216 0.0
C54 C 0.09153 0.87587 0.4762 0.0
C55 C 0.11262 0.86715 0.4552 0.0
C56 C 0.14374 0.90407 0.42974 0.0
C57 C 0.15205 0.94958 0.42528 0.0
C58 C 0.13078 0.95825 0.44637 0.0
C59 C 0.09147 0.07876 0.46748 0.0
O60 O 0.96056 0.00928 0.47183 0.0
O61 O 0.98336 0.95827 0.4675 0.0
O62 O 0.02272 0.10116 0.52489 0.0
O63 O 0.93832 0.04238 0.51987 0.0
O64 O 0.94346 0.96087 0.55718 0.0
O65 O 0.99405 0.96383 0.53156 0.0
O66 O 0.09042 0.00618 0.54891 0.0
O67 O 0.06571 0.05523 0.55425 0.0
O68 O 0.03225 0.91825 0.48968 0.0
O69 O 0.11272 0.97133 0.50645 0.0
O70 O 0.1093 0.05495 0.464 0.0
O71 O 0.05659 0.05116 0.48816 0.0
H72 H 0.01254 0.17822 0.53098 0.0
H73 H 0.99439 0.20395 0.57177 0.0
H74 H 0.89291 0.05296 0.61891 0.0
H75 H 0.91279 0.02764 0.57853 0.0
H76 H 0.06823 0.84701 0.49586 0.0
H77 H 0.10453 0.83139 0.45895 0.0
H78 H 0.17603 0.97883 0.40601 0.0
H79 H 0.13823 0.99374 0.44282 0.0
Zn80 Zn 0.36299 0.68434 0.1834 0.0
Zn81 Zn 0.38364 0.66902 0.30796 0.0
Zn82 Zn 0.37606 0.68139 0.24509 0.0
C83 C 0.48625 0.7286 0.28427 0.0
C84 C 0.322 0.57507 0.29949 0.0
O85 O 0.33303 0.71592 0.22458 0.0
O86 O 0.31328 0.70266 0.17475 0.0
C87 C 0.47254 0.74515 0.19422 0.0
O88 O 0.46118 0.7248 0.25714 0.0
O89 O 0.46157 0.70644 0.31007 0.0
O90 O 0.34136 0.59761 0.3227 0.0
O91 O 0.33133 0.59962 0.27042 0.0
O92 O 0.43828 0.73538 0.17181 0.0
O93 O 0.45741 0.72716 0.22351 0.0
O94 O 0.33373 0.60651 0.23721 0.0
O95 O 0.33656 0.61565 0.18476 0.0
C96 C 0.32503 0.58871 0.21201 0.0
O97 O 0.34187 0.71459 0.25832 0.0
O98 O 0.35117 0.70162 0.31108 0.0
C99 C 0.31041 0.71862 0.19708 0.0
C100 C 0.33608 0.71833 0.2861 0.0
Zn101 Zn 0.69369 0.3373 0.83099 0.0
Zn102 Zn 0.65915 0.32916 0.70728 0.0
Zn103 Zn 0.67692 0.33406 0.76862 0.0
C104 C 0.71628 0.42879 0.70839 0.0
C105 C 0.56104 0.27222 0.73532 0.0
O106 O 0.7188 0.29905 0.79098 0.0
O107 O 0.73269 0.30782 0.84165 0.0
C108 C 0.74737 0.43382 0.79558 0.0
O109 O 0.71692 0.41168 0.73858 0.0
O110 O 0.69135 0.39944 0.68885 0.0
O111 O 0.58156 0.28262 0.70919 0.0
O112 O 0.59016 0.2895 0.76005 0.0
O113 O 0.73725 0.41016 0.82386 0.0
O114 O 0.72796 0.41162 0.77151 0.0
O115 O 0.59838 0.29395 0.79256 0.0
O116 O 0.61884 0.29655 0.84402 0.0
C117 C 0.58427 0.28286 0.82174 0.0
O118 O 0.71073 0.29888 0.758 0.0
O119 O 0.69711 0.30106 0.70572 0.0
C120 C 0.73748 0.29312 0.81934 0.0
C121 C 0.71528 0.29006 0.73185 0.0
H122 H 0.03344 0.86669 0.04953 0.0
H123 H 0.0736 0.82664 0.07903 0.0
H124 H 0.20386 0.96246 0.10852 0.0
H125 H 0.1641 0.00307 0.07883 0.0
H126 H 0.23869 0.91779 0.08956 0.0
H127 H 0.10652 0.86977 0.15919 0.0
H128 H 0.01772 0.83452 0.17588 0.0
H129 H 0.96084 0.69453 0.15716 0.0
H130 H 0.04913 0.72915 0.13979 0.0
H131 H 0.35147 0.81358 0.19798 0.0
H132 H 0.30997 0.85562 0.17721 0.0
H133 H 0.16859 0.72063 0.15309 0.0
H134 H 0.20914 0.67824 0.17581 0.0
H135 H 0.13994 0.76658 0.17062 0.0
H136 H 0.26733 0.81408 0.0975 0.0
H137 H 0.35487 0.84716 0.07976 0.0
H138 H 0.41914 0.98608 0.10402 0.0
H139 H 0.33206 0.95358 0.12233 0.0
C140 C 0.07058 0.8882 0.06232 0.0
C141 C 0.09525 0.93827 0.06179 0.0
C142 C 0.09348 0.86507 0.07934 0.0
C143 C 0.14164 0.89123 0.0964 0.0
C144 C 0.16668 0.94132 0.09566 0.0
C145 C 0.14369 0.96449 0.07873 0.0
C146 C 0.16593 0.86641 0.11475 0.0
C147 C 0.21743 0.88529 0.10778 0.0
C148 C 0.13783 0.82304 0.13787 0.0
C149 C 0.08435 0.80229 0.14771 0.0
C150 C 0.07493 0.83165 0.15817 0.0
C151 C 0.02471 0.81173 0.16788 0.0
C152 C 0.98361 0.76236 0.16746 0.0
C153 C 0.99269 0.7328 0.15739 0.0
C154 C 0.04282 0.75255 0.14761 0.0
C155 C 0.31061 0.79245 0.18983 0.0
C156 C 0.28279 0.7422 0.18983 0.0
C157 C 0.28727 0.81676 0.17707 0.0
C158 C 0.23618 0.79171 0.16291 0.0
C159 C 0.20788 0.74107 0.16381 0.0
C160 C 0.23104 0.71674 0.17689 0.0
C161 C 0.21302 0.8183 0.14589 0.0
C162 C 0.16154 0.79953 0.15284 0.0
C163 C 0.24095 0.86157 0.12258 0.0
C164 C 0.29334 0.88122 0.11162 0.0
C165 C 0.30023 0.85156 0.09928 0.0
C166 C 0.34974 0.87023 0.08909 0.0
C167 C 0.39258 0.91865 0.09086 0.0
C168 C 0.38594 0.94855 0.10274 0.0
C169 C 0.33652 0.93004 0.11301 0.0
H170 H 0.43088 0.93304 0.08294 0.0
H171 H 0.94478 0.74699 0.17504 0.0
H172 H 0.10777 0.09709 0.60178 0.0
H173 H 0.17329 0.12954 0.64492 0.0
H174 H 0.2293 0.049 0.63144 0.0
H175 H 0.16343 0.01574 0.58848 0.0
H176 H 0.22708 0.04862 0.69552 0.0
H177 H 0.28768 0.16933 0.59563 0.0
H178 H 0.28446 0.22652 0.55052 0.0
H179 H 0.28091 0.29968 0.61613 0.0
H180 H 0.28331 0.24238 0.66162 0.0
H181 H 0.49802 0.1777 0.72858 0.0
H182 H 0.40403 0.13023 0.71471 0.0
H183 H 0.40009 0.24657 0.72889 0.0
H184 H 0.49543 0.29557 0.74019 0.0
H185 H 0.36316 0.22861 0.67464 0.0
H186 H 0.32552 0.12482 0.77394 0.0
H187 H 0.33427 0.07319 0.82074 0.0
H188 H 0.29232 0.97012 0.76249 0.0
H189 H 0.28524 0.02196 0.71496 0.0
C190 C 0.13365 0.08583 0.60809 0.0
C191 C 0.13066 0.05419 0.59129 0.0
C192 C 0.17108 0.10444 0.63285 0.0
C193 C 0.20659 0.09215 0.64117 0.0
C194 C 0.20225 0.05895 0.62543 0.0
C195 C 0.16472 0.04018 0.60072 0.0
C196 C 0.25096 0.11669 0.66435 0.0
C197 C 0.25707 0.08795 0.69109 0.0
C198 C 0.28858 0.16824 0.65942 0.0
C199 C 0.28499 0.20123 0.63196 0.0
C200 C 0.28553 0.19722 0.60039 0.0
C201 C 0.28402 0.22978 0.57477 0.0
C202 C 0.28249 0.26675 0.58046 0.0
C203 C 0.28205 0.27101 0.61176 0.0
C204 C 0.28342 0.23849 0.63746 0.0
C205 C 0.47649 0.1922 0.72989 0.0
C206 C 0.50328 0.23949 0.73644 0.0
C207 C 0.4226 0.16493 0.72216 0.0
C208 C 0.39438 0.18434 0.72112 0.0
C209 C 0.42073 0.23052 0.72976 0.0
C210 C 0.47499 0.25823 0.73682 0.0
C211 C 0.34089 0.16057 0.70553 0.0
C212 C 0.33283 0.18938 0.68002 0.0
C213 C 0.30121 0.10928 0.71211 0.0
C214 C 0.30498 0.07753 0.74072 0.0
C215 C 0.31854 0.09136 0.77097 0.0
C216 C 0.3232 0.06202 0.79768 0.0
C217 C 0.31361 0.0183 0.79465 0.0
C218 C 0.2996 0.00395 0.76483 0.0
C219 C 0.29533 0.03336 0.73795 0.0
H220 H 0.31708 0.99558 0.81541 0.0
H221 H 0.28198 0.29237 0.56071 0.0
H222 H 0.14752 0.16415 0.17065 0.0
H223 H 0.16106 0.21153 0.20952 0.0
H224 H 0.31886 0.32603 0.17574 0.0
H225 H 0.30731 0.27708 0.13914 0.0
H226 H 0.31815 0.33076 0.23322 0.0
H227 H 0.19787 0.3125 0.13989 0.0
H228 H 0.11619 0.26476 0.10799 0.0
H229 H 0.02314 0.21663 0.18914 0.0
H230 H 0.10439 0.26372 0.22158 0.0
H231 H 0.3704 0.56014 0.18546 0.0
H232 H 0.34642 0.47748 0.19205 0.0
H233 H 0.21941 0.42228 0.25276 0.0
H234 H 0.24265 0.5051 0.24548 0.0
H235 H 0.18965 0.37063 0.20354 0.0
H236 H 0.31915 0.4194 0.2872 0.0
H237 H 0.40491 0.47532 0.31345 0.0
H238 H 0.48535 0.47349 0.24386 0.0
H239 H 0.40024 0.41827 0.21717 0.0
C240 C 0.18593 0.19841 0.17249 0.0
C241 C 0.22584 0.21768 0.15101 0.0
C242 C 0.19338 0.22574 0.19453 0.0
C243 C 0.24011 0.27324 0.19463 0.0
C244 C 0.28203 0.28981 0.17585 0.0
C245 C 0.27514 0.26206 0.15452 0.0
C246 C 0.24345 0.30901 0.20977 0.0
C247 C 0.28979 0.33919 0.22704 0.0
C248 C 0.20567 0.31925 0.20267 0.0
C249 C 0.15703 0.29087 0.18324 0.0
C250 C 0.15995 0.29146 0.15093 0.0
C251 C 0.11377 0.26456 0.13277 0.0
C252 C 0.06451 0.23751 0.14657 0.0
C253 C 0.06132 0.23743 0.17853 0.0
C254 C 0.10739 0.26415 0.19682 0.0
C255 C 0.33729 0.5302 0.20018 0.0
C256 C 0.30851 0.53856 0.21529 0.0
C257 C 0.32414 0.48326 0.20433 0.0
C258 C 0.28186 0.44392 0.22355 0.0
C259 C 0.25257 0.45217 0.2383 0.0
C260 C 0.26593 0.49933 0.23426 0.0
C261 C 0.2657 0.39385 0.22511 0.0
C262 C 0.21687 0.36098 0.2111 0.0
C263 C 0.30185 0.38199 0.23435 0.0
C264 C 0.35333 0.41491 0.25029 0.0
C265 C 0.35528 0.43133 0.27753 0.0
C266 C 0.40369 0.46279 0.29245 0.0
C267 C 0.45054 0.47799 0.2803 0.0
C268 C 0.44903 0.46166 0.25327 0.0
C269 C 0.40066 0.43018 0.2383 0.0
H270 H 0.48801 0.50237 0.29185 0.0
H271 H 0.0288 0.21674 0.13247 0.0
H272 H 0.92853 0.09779 0.66346 0.0
H273 H 0.89979 0.12142 0.70008 0.0
H274 H 0.89231 0.22108 0.6217 0.0
H275 H 0.9202 0.19753 0.58523 0.0
H276 H 0.93603 0.26247 0.67396 0.0
H277 H 0.7859 0.10553 0.6472 0.0
H278 H 0.73579 0.0174 0.64631 0.0
H279 H 0.73997 0.98636 0.74894 0.0
H280 H 0.7905 0.07447 0.75036 0.0
H281 H 0.68231 0.21971 0.6986 0.0
H282 H 0.7291 0.18756 0.6912 0.0
H283 H 0.8528 0.27454 0.75674 0.0
H284 H 0.80665 0.30864 0.76302 0.0
H285 H 0.76332 0.13744 0.72576 0.0
H286 H 0.96938 0.31544 0.72721 0.0
H287 H 0.01381 0.40422 0.7225 0.0
H288 H 0.88715 0.39302 0.6612 0.0
H289 H 0.84235 0.30435 0.66532 0.0
C290 C 0.92076 0.12475 0.65409 0.0
C291 C 0.92679 0.14584 0.62139 0.0
C292 C 0.90463 0.13837 0.67507 0.0
C293 C 0.89395 0.17305 0.66362 0.0
C294 C 0.90092 0.1947 0.63117 0.0
C295 C 0.91698 0.18119 0.6103 0.0
C296 C 0.87258 0.1854 0.68446 0.0
C297 C 0.89871 0.23499 0.6858 0.0
C298 C 0.8239 0.14962 0.69994 0.0
C299 C 0.79332 0.09671 0.69891 0.0
C300 C 0.77679 0.08 0.66957 0.0
C301 C 0.7481 0.03003 0.66896 0.0
C302 C 0.73507 0.99633 0.69755 0.0
C303 C 0.75042 0.01252 0.72681 0.0
C304 C 0.77916 0.06246 0.72753 0.0
C305 C 0.71915 0.23147 0.71176 0.0
C306 C 0.7408 0.26633 0.73153 0.0
C307 C 0.74565 0.21275 0.70777 0.0
C308 C 0.79461 0.22874 0.72329 0.0
C309 C 0.81521 0.26187 0.74437 0.0
C310 C 0.78868 0.28098 0.74819 0.0
C311 C 0.82571 0.21458 0.71404 0.0
C312 C 0.80161 0.16469 0.715 0.0
C313 C 0.87556 0.25008 0.6999 0.0
C314 C 0.90234 0.30334 0.69691 0.0
C315 C 0.95115 0.33203 0.7127 0.0
C316 C 0.97636 0.38228 0.71013 0.0
C317 C 0.95322 0.40421 0.69166 0.0
C318 C 0.90494 0.37597 0.67559 0.0
C319 C 0.87963 0.32574 0.67804 0.0
H320 H 0.97276 0.44309 0.68974 0.0
H321 H 0.71282 0.95764 0.69703 0.0
H322 H 0.90667 0.90504 0.06503 0.0
H323 H 0.82403 0.85803 0.09393 0.0
H324 H 0.85167 0.99305 0.10123 0.0
H325 H 0.93418 0.03971 0.0731 0.0
H326 H 0.8174 0.93331 0.15576 0.0
H327 H 0.76235 0.91912 0.0452 0.0
H328 H 0.75769 0.89744 0.99371 0.0
H329 H 0.68531 0.74743 0.03915 0.0
H330 H 0.69022 0.7684 0.09101 0.0
H331 H 0.51604 0.80981 0.13921 0.0
H332 H 0.60378 0.85139 0.11959 0.0
H333 H 0.64618 0.79148 0.20801 0.0
H334 H 0.55675 0.74789 0.22756 0.0
H335 H 0.64659 0.80833 0.10871 0.0
H336 H 0.7942 0.88767 0.2148 0.0
H337 H 0.80592 0.92166 0.26201 0.0
H338 H 0.69315 0.95096 0.22227 0.0
H339 H 0.68262 0.91938 0.17407 0.0
C340 C 0.89497 0.92456 0.07279 0.0
C341 C 0.92696 0.97612 0.06669 0.0
C342 C 0.84764 0.89768 0.0893 0.0
C343 C 0.83106 0.92181 0.09976 0.0
C344 C 0.86335 0.97332 0.09371 0.0
C345 C 0.91054 1.00005 0.07742 0.0
C346 C 0.77991 0.89409 0.11647 0.0
C347 C 0.78006 0.90555 0.14564 0.0
C348 C 0.73091 0.85819 0.10326 0.0
C349 C 0.72715 0.84542 0.07202 0.0
C350 C 0.74571 0.88157 0.04423 0.0
C351 C 0.74301 0.86941 0.01498 0.0
C352 C 0.72136 0.82111 0.01318 0.0
C353 C 0.70216 0.78484 0.04059 0.0
C354 C 0.70486 0.79683 0.06991 0.0
C355 C 0.54398 0.80566 0.15478 0.0
C356 C 0.52912 0.77567 0.18522 0.0
C357 C 0.59432 0.82948 0.1434 0.0
C358 C 0.63185 0.82458 0.16211 0.0
C359 C 0.61813 0.79617 0.19309 0.0
C360 C 0.56712 0.77169 0.20446 0.0
C361 C 0.68394 0.84766 0.14807 0.0
C362 C 0.68394 0.83529 0.11929 0.0
C363 C 0.73298 0.88319 0.16152 0.0
C364 C 0.73674 0.90006 0.19105 0.0
C365 C 0.7717 0.90117 0.21616 0.0
C366 C 0.77836 0.92028 0.24304 0.0
C367 C 0.74987 0.93796 0.24533 0.0
C368 C 0.71495 0.93694 0.22057 0.0
C369 C 0.70862 0.91842 0.19342 0.0
H370 H 0.75494 0.95256 0.26625 0.0
H371 H 0.71935 0.81178 0.99052 0.0
H372 H 0.96677 0.86922 0.53516 0.0
H373 H 0.92806 0.78407 0.56178 0.0
H374 H 0.87286 0.80527 0.63644 0.0
H375 H 0.9093 0.88917 0.60907 0.0
H376 H 0.93789 0.73636 0.61479 0.0
H377 H 0.76064 0.7041 0.66726 0.0
H378 H 0.70503 0.73343 0.65478 0.0
H379 H 0.73821 0.77 0.55515 0.0
H380 H 0.79357 0.74039 0.56699 0.0
H381 H 0.81091 0.50977 0.72747 0.0
H382 H 0.85473 0.59651 0.70257 0.0
H383 H 0.7269 0.55433 0.63271 0.0
H384 H 0.68258 0.46872 0.65826 0.0
H385 H 0.75254 0.63221 0.64917 0.0
H386 H 0.84702 0.5838 0.61689 0.0
H387 H 0.89857 0.55079 0.62354 0.0
H388 H 0.02332 0.6683 0.67135 0.0
H389 H 0.97233 0.70176 0.66533 0.0
C390 C 0.94669 0.85574 0.55732 0.0
C391 C 0.94091 0.88599 0.56981 0.0
C392 C 0.92444 0.80689 0.57263 0.0
C393 C 0.89616 0.7872 0.60096 0.0
C394 C 0.89279 0.81845 0.61418 0.0
C395 C 0.91407 0.86678 0.59858 0.0
C396 C 0.8691 0.73403 0.61629 0.0
C397 C 0.89737 0.71371 0.6223 0.0
C398 C 0.81561 0.70334 0.62553 0.0
C399 C 0.78165 0.72044 0.61807 0.0
C400 C 0.7559 0.71821 0.64268 0.0
C401 C 0.72447 0.73493 0.63572 0.0
C402 C 0.71822 0.7537 0.60421 0.0
C403 C 0.74323 0.75561 0.57956 0.0
C404 C 0.77467 0.7389 0.58638 0.0
C405 C 0.79148 0.51926 0.70751 0.0
C406 C 0.74263 0.48221 0.69542 0.0
C407 C 0.81705 0.56888 0.69278 0.0
C408 C 0.79454 0.58248 0.66538 0.0
C409 C 0.74536 0.54537 0.65374 0.0
C410 C 0.72002 0.49616 0.6684 0.0
C411 C 0.82163 0.63484 0.64837 0.0
C412 C 0.79314 0.65487 0.64178 0.0
C413 C 0.87422 0.66454 0.63766 0.0
C414 C 0.90532 0.6448 0.64117 0.0
C415 C 0.8852 0.60235 0.62913 0.0
C416 C 0.91441 0.58361 0.63271 0.0
C417 C 0.96407 0.60729 0.64801 0.0
C418 C 0.98474 0.64988 0.65963 0.0
C419 C 0.95567 0.66874 0.65614 0.0
H420 H 0.98663 0.59273 0.65075 0.0
H421 H 0.69392 0.76669 0.59888 0.0
H422 H 0.19051 0.85719 0.44734 0.0
H423 H 0.22679 0.83833 0.41301 0.0
H424 H 0.19107 0.91305 0.33001 0.0
H425 H 0.15259 0.93058 0.36439 0.0
H426 H 0.16192 0.82812 0.31924 0.0
H427 H 0.31917 0.96395 0.35606 0.0
H428 H 0.38282 0.01647 0.39465 0.0
H429 H 0.39944 0.90306 0.44299 0.0
H430 H 0.33529 0.84952 0.405 0.0
H431 H 0.35264 0.80365 0.25244 0.0
H432 H 0.31903 0.84591 0.26483 0.0
H433 H 0.23683 0.72973 0.34481 0.0
H434 H 0.26742 0.68644 0.3313 0.0
H435 H 0.33405 0.85364 0.34476 0.0
H436 H 0.1569 0.7139 0.31017 0.0
H437 H 0.09444 0.66741 0.26878 0.0
H438 H 0.12011 0.79926 0.21229 0.0
H439 H 0.18446 0.84679 0.25257 0.0
C440 C 0.19007 0.86947 0.42178 0.0
C441 C 0.16831 0.89512 0.40861 0.0
C442 C 0.21152 0.85922 0.40217 0.0
C443 C 0.21241 0.87489 0.36894 0.0
C444 C 0.1911 0.90087 0.35562 0.0
C445 C 0.16945 0.91111 0.3753 0.0
C446 C 0.23329 0.86163 0.3484 0.0
C447 C 0.20003 0.83458 0.32445 0.0
C448 C 0.2833 0.87051 0.3548 0.0
C449 C 0.32216 0.9026 0.37771 0.0
C450 C 0.33612 0.95006 0.37504 0.0
C451 C 0.37234 0.98004 0.3968 0.0
C452 C 0.39511 0.96309 0.42127 0.0
C453 C 0.38178 0.91615 0.42401 0.0
C454 C 0.34555 0.88599 0.40232 0.0
C455 C 0.32489 0.78601 0.27136 0.0
C456 C 0.3111 0.74114 0.29014 0.0
C457 C 0.30648 0.81043 0.27879 0.0
C458 C 0.27462 0.79031 0.30535 0.0
C459 C 0.26038 0.74523 0.32381 0.0
C460 C 0.27806 0.7207 0.31614 0.0
C461 C 0.26163 0.81846 0.31692 0.0
C462 C 0.29655 0.84835 0.33917 0.0
C463 C 0.21357 0.81273 0.30869 0.0
C464 C 0.17655 0.7841 0.284 0.0
C465 C 0.15039 0.7332 0.2885 0.0
C466 C 0.11441 0.70658 0.26525 0.0
C467 C 0.10361 0.73039 0.23769 0.0
C468 C 0.12884 0.78085 0.23336 0.0
C469 C 0.16526 0.80768 0.25631 0.0
H470 H 0.07544 0.70973 0.21981 0.0
H471 H 0.42314 0.98636 0.4381 0.0
H472 H 0.08929 0.00681 0.90231 0.0
H473 H 0.1732 0.05211 0.8758 0.0
H474 H 0.25124 0.14504 0.9471 0.0
H475 H 0.16646 0.10088 0.97284 0.0
H476 H 0.29261 0.19903 0.8926 0.0
H477 H 0.2574 0.04469 0.94778 0.0
H478 H 0.2045 0.9545 0.96205 0.0
H479 H 0.19836 0.94489 0.86375 0.0
H480 H 0.2504 0.03495 0.84888 0.0
H481 H 0.53527 0.20607 0.87055 0.0
H482 H 0.44643 0.16249 0.88984 0.0
H483 H 0.41709 0.24933 0.81275 0.0
H484 H 0.50767 0.29496 0.79468 0.0
H485 H 0.35087 0.10546 0.86946 0.0
H486 H 0.33309 0.26595 0.83737 0.0
H487 H 0.39066 0.35638 0.829 0.0
H488 H 0.51047 0.35436 0.8904 0.0
H489 H 0.45336 0.26397 0.89943 0.0
C490 C 0.1243 0.03709 0.91224 0.0
C491 C 0.12129 0.04999 0.93985 0.0
C492 C 0.1725 0.06286 0.89716 0.0
C493 C 0.21934 0.10157 0.90969 0.0
C494 C 0.21603 0.11531 0.93687 0.0
C495 C 0.16754 0.08992 0.95171 0.0
C496 C 0.27164 0.1269 0.8949 0.0
C497 C 0.30506 0.17842 0.88738 0.0
C498 C 0.28891 0.10057 0.8883 0.0
C499 C 0.25768 0.04647 0.89722 0.0
C500 C 0.24456 0.02328 0.92922 0.0
C501 C 0.2147 0.9722 0.93741 0.0
C502 C 0.19805 0.94398 0.91383 0.0
C503 C 0.21129 0.96678 0.882 0.0
C504 C 0.24104 0.01783 0.87369 0.0
C505 C 0.50962 0.21548 0.85749 0.0
C506 C 0.52793 0.25303 0.83045 0.0
C507 C 0.45864 0.1904 0.8685 0.0
C508 C 0.42457 0.20248 0.85301 0.0
C509 C 0.4424 0.23931 0.82543 0.0
C510 C 0.49376 0.26467 0.81454 0.0
C511 C 0.37155 0.17755 0.86667 0.0
C512 C 0.33805 0.12606 0.87411 0.0
C513 C 0.35475 0.20397 0.87377 0.0
C514 C 0.38919 0.25826 0.86875 0.0
C515 C 0.37167 0.28484 0.84914 0.0
C516 C 0.40422 0.33607 0.84427 0.0
C517 C 0.45427 0.3611 0.85906 0.0
C518 C 0.47179 0.33494 0.87885 0.0
C519 C 0.43937 0.28372 0.88383 0.0
H520 H 0.47942 0.40076 0.85524 0.0
H521 H 0.17492 0.90444 0.92021 0.0
H522 H 0.1792 0.14344 0.43217 0.0
H523 H 0.21115 0.22508 0.40197 0.0
H524 H 0.07756 0.20912 0.43115 0.0
H525 H 0.04525 0.1267 0.46168 0.0
H526 H 0.1003 0.25065 0.36513 0.0
H527 H 0.1912 0.27695 0.46579 0.0
H528 H 0.24345 0.26655 0.51108 0.0
H529 H 0.37376 0.33656 0.44979 0.0
H530 H 0.32116 0.34543 0.4036 0.0
H531 H 0.21656 0.50859 0.31077 0.0
H532 H 0.17045 0.42245 0.33677 0.0
H533 H 0.31299 0.43416 0.33596 0.0
H534 H 0.35866 0.52006 0.30973 0.0
H535 H 0.2794 0.39335 0.38998 0.0
H536 H 0.17873 0.34191 0.28878 0.0
H537 H 0.12308 0.34366 0.24183 0.0
H538 H 0.01433 0.32129 0.30328 0.0
H539 H 0.06914 0.31904 0.35052 0.0
C540 C 0.15658 0.15726 0.43229 0.0
C541 C 0.11 0.12872 0.44973 0.0
C542 C 0.17495 0.20408 0.41495 0.0
C543 C 0.14715 0.22377 0.41433 0.0
C544 C 0.0999 0.19497 0.43123 0.0
C545 C 0.08169 0.14803 0.44895 0.0
C546 C 0.16859 0.27477 0.39655 0.0
C547 C 0.13921 0.28198 0.37084 0.0
C548 C 0.21977 0.31583 0.40339 0.0
C549 C 0.25199 0.31143 0.43115 0.0
C550 C 0.23081 0.28973 0.46186 0.0
C551 C 0.26058 0.28415 0.48774 0.0
C552 C 0.31212 0.3011 0.48343 0.0
C553 C 0.33385 0.32346 0.45312 0.0
C554 C 0.30398 0.32863 0.42703 0.0
C555 C 0.23725 0.49199 0.31488 0.0
C556 C 0.29078 0.52068 0.30721 0.0
C557 C 0.2108 0.44247 0.32981 0.0
C558 C 0.2374 0.42042 0.33782 0.0
C559 C 0.29079 0.44928 0.32955 0.0
C560 C 0.31699 0.49851 0.31436 0.0
C561 C 0.21204 0.3695 0.35751 0.0
C562 C 0.24059 0.36223 0.38397 0.0
C563 C 0.16035 0.32837 0.35115 0.0
C564 C 0.12845 0.33137 0.32294 0.0
C565 C 0.14324 0.33796 0.29214 0.0
C566 C 0.11174 0.33874 0.26555 0.0
C567 C 0.06548 0.33301 0.26955 0.0
C568 C 0.05033 0.32601 0.30019 0.0
C569 C 0.08146 0.32482 0.32687 0.0
H570 H 0.04123 0.33372 0.24892 0.0
H571 H 0.33522 0.29694 0.50356 0.0
H572 H 0.89724 0.01993 0.93154 0.0
H573 H 0.85757 0.0601 0.9007 0.0
H574 H 0.98841 0.19726 0.92819 0.0
H575 H 0.02907 0.15757 0.95851 0.0
H576 H 0.884 0.16701 0.93953 0.0
H577 H 0.9834 0.19143 0.85484 0.0
H578 H 0.0126 0.16513 0.82028 0.0
H579 H 0.85282 0.06782 0.78739 0.0
H580 H 0.82255 0.09376 0.82166 0.0
H581 H 0.83061 0.32881 0.85158 0.0
H582 H 0.8746 0.28929 0.87107 0.0
H583 H 0.7534 0.16659 0.82531 0.0
H584 H 0.70963 0.20715 0.80498 0.0
H585 H 0.8492 0.18509 0.82224 0.0
H586 H 0.74864 0.16037 0.90484 0.0
H587 H 0.71674 0.1834 0.94008 0.0
H588 H 0.87366 0.27449 0.9791 0.0
H589 H 0.90668 0.25256 0.94373 0.0
C590 C 0.9179 0.05877 0.9308 0.0
C591 C 0.9664 0.0855 0.94757 0.0
C592 C 0.89521 0.08172 0.91302 0.0
C593 C 0.92001 0.13176 0.912 0.0
C594 C 0.9686 0.15865 0.92852 0.0
C595 C 0.99188 0.13593 0.94579 0.0
C596 C 0.89374 0.15527 0.89535 0.0
C597 C 0.8771 0.17161 0.91384 0.0
C598 C 0.88276 0.15951 0.86196 0.0
C599 C 0.90067 0.14415 0.84107 0.0
C600 C 0.95443 0.16423 0.84036 0.0
C601 C 0.97118 0.14957 0.82071 0.0
C602 C 0.93454 0.1149 0.8016 0.0
C603 C 0.8811 0.09492 0.80205 0.0
C604 C 0.86415 0.10967 0.82152 0.0
C605 C 0.81371 0.29372 0.84525 0.0
C606 C 0.76669 0.27107 0.82678 0.0
C607 C 0.83878 0.27099 0.85654 0.0
C608 C 0.81682 0.22429 0.8504 0.0
C609 C 0.77105 0.20244 0.83061 0.0
C610 C 0.74605 0.22559 0.81897 0.0
C611 C 0.84029 0.19777 0.86642 0.0
C612 C 0.85606 0.18052 0.84793 0.0
C613 C 0.84991 0.19198 0.89999 0.0
C614 C 0.83021 0.20515 0.92142 0.0
C615 C 0.77643 0.18559 0.92076 0.0
C616 C 0.75813 0.19841 0.94078 0.0
C617 C 0.79317 0.23048 0.96176 0.0
C618 C 0.84657 0.2497 0.96281 0.0
C619 C 0.8651 0.23706 0.9428 0.0
H620 H 0.77892 0.24035 0.97725 0.0
H621 H 0.94756 0.10349 0.78646 0.0
H622 H 0.90618 0.89032 0.4371 0.0
H623 H 0.83829 0.8598 0.39496 0.0
H624 H 0.85467 0.99584 0.37383 0.0
H625 H 0.92081 0.02549 0.41713 0.0
H626 H 0.75846 0.92822 0.37625 0.0
H627 H 0.89309 0.95822 0.32016 0.0
H628 H 0.96696 0.95828 0.30986 0.0
H629 H 0.86562 0.80104 0.32364 0.0
H630 H 0.79127 0.79995 0.33449 0.0
H631 H 0.55417 0.82568 0.25985 0.0
H632 H 0.64734 0.88031 0.27622 0.0
H633 H 0.64075 0.75533 0.33033 0.0
H634 H 0.5474 0.70115 0.31511 0.0
H635 H 0.73986 0.83109 0.30086 0.0
H636 H 0.61207 0.80826 0.36674 0.0
H637 H 0.5396 0.81242 0.37358 0.0
H638 H 0.63487 0.96645 0.33476 0.0
H639 H 0.70764 0.96296 0.3273 0.0
C640 C 0.89576 0.91395 0.42321 0.0
C641 C 0.91857 0.96016 0.43056 0.0
C642 C 0.85719 0.89664 0.39886 0.0
C643 C 0.84165 0.9257 0.38072 0.0
C644 C 0.86578 0.97259 0.38742 0.0
C645 C 0.90357 0.98951 0.41221 0.0
C646 C 0.79684 0.90527 0.35702 0.0
C647 C 0.75542 0.90831 0.35914 0.0
C648 C 0.79207 0.87876 0.33471 0.0
C649 C 0.83667 0.87902 0.32841 0.0
C650 C 0.88664 0.92362 0.32128 0.0
C651 C 0.92859 0.92384 0.31528 0.0
C652 C 0.92102 0.87969 0.31617 0.0
C653 C 0.87144 0.83522 0.32299 0.0
C654 C 0.82935 0.83478 0.32902 0.0
C655 C 0.57333 0.80999 0.27433 0.0
C656 C 0.54409 0.75954 0.28641 0.0
C657 C 0.62645 0.84109 0.28358 0.0
C658 C 0.65089 0.82181 0.30449 0.0
C659 C 0.62274 0.77089 0.31408 0.0
C660 C 0.5695 0.74004 0.30548 0.0
C661 C 0.70228 0.85402 0.32056 0.0
C662 C 0.7443 0.85251 0.31734 0.0
C663 C 0.70835 0.88306 0.34124 0.0
C664 C 0.66499 0.88526 0.34619 0.0
C665 C 0.6174 0.84293 0.35951 0.0
C666 C 0.5763 0.84517 0.36351 0.0
C667 C 0.58258 0.88965 0.35454 0.0
C668 C 0.63003 0.93201 0.34165 0.0
C669 C 0.67121 0.92993 0.33754 0.0
H670 H 0.55072 0.89132 0.35764 0.0
H671 H 0.95355 0.87994 0.31151 0.0
H672 H 0.86047 0.69367 0.94299 0.0
H673 H 0.87154 0.65186 0.91074 0.0
H674 H 0.99082 0.79131 0.85648 0.0
H675 H 0.97992 0.83344 0.88883 0.0
H676 H 0.91609 0.73456 0.81855 0.0
H677 H 0.02468 0.71714 0.89877 0.0
H678 H 0.0563 0.70128 0.95312 0.0
H679 H 0.91931 0.55134 0.96548 0.0
H680 H 0.88637 0.56639 0.91141 0.0
H681 H 0.85271 0.48435 0.79453 0.0
H682 H 0.91797 0.56929 0.80256 0.0
H683 H 0.79286 0.58574 0.79719 0.0
H684 H 0.72814 0.50126 0.78854 0.0
H685 H 0.91409 0.58737 0.85568 0.0
H686 H 0.83123 0.6961 0.78567 0.0
H687 H 0.81314 0.72406 0.7303 0.0
H688 H 0.9142 0.70194 0.69543 0.0
H689 H 0.93234 0.67311 0.7504 0.0
C690 C 0.88999 0.71543 0.92475 0.0
C691 C 0.91872 0.76666 0.91804 0.0
C692 C 0.89659 0.69158 0.90646 0.0
C693 C 0.93232 0.71857 0.88137 0.0
C694 C 0.96313 0.76989 0.87576 0.0
C695 C 0.95648 0.79379 0.89403 0.0
C696 C 0.93074 0.69261 0.85825 0.0
C697 C 0.91644 0.70275 0.82645 0.0
C698 C 0.93355 0.65253 0.86828 0.0
C699 C 0.95304 0.64297 0.90092 0.0
C700 C 1.00111 0.68083 0.91312 0.0
C701 C 0.0193 0.67197 0.94389 0.0
C702 C 0.98984 0.62533 0.96273 0.0
C703 C 0.94214 0.58744 0.95083 0.0
C704 C 0.92375 0.59609 0.92007 0.0
C705 C 0.83979 0.50708 0.79369 0.0
C706 C 0.78592 0.48697 0.79106 0.0
C707 C 0.87695 0.55548 0.79819 0.0
C708 C 0.86041 0.58392 0.80056 0.0
C709 C 0.80683 0.56494 0.79489 0.0
C710 C 0.76972 0.51659 0.79023 0.0
C711 C 0.89501 0.62698 0.81664 0.0
C712 C 0.91551 0.62007 0.84727 0.0
C713 C 0.89853 0.67037 0.80543 0.0
C714 C 0.88323 0.68254 0.77219 0.0
C715 C 0.84925 0.69678 0.76614 0.0
C716 C 0.83887 0.71265 0.73482 0.0
C717 C 0.86256 0.71479 0.70938 0.0
C718 C 0.89557 0.69988 0.71511 0.0
C719 C 0.90566 0.68346 0.74635 0.0
H720 H 0.85581 0.72858 0.68531 0.0
H721 H 1.00399 0.61856 0.98656 0.0
loop_
_geom_bond_atom_site_label_1
_geom_bond_atom_site_label_2
_geom_bond_distance
_geom_bond_site_symmetry_2
_ccdc_geom_bond_type
Ho0 C3 2.811 . S
Ho0 O20 2.322 . S
Ho0 O22 2.378 . S
Ho0 O23 2.524 . S
Ho0 O24 2.381 1_445 S
Ho0 O25 2.669 1_445 S
Ho0 O27 2.346 1_545 S
Ho0 O31 2.305 1_554 S
Ho1 C12 2.811 . S
Ho1 O21 2.346 1_565 S
Ho1 O25 2.305 1_556 S
Ho1 O26 2.322 1_656 S
Ho1 O28 2.378 . S
Ho1 O29 2.524 . S
Ho1 O30 2.381 1_665 S
Ho1 O31 2.669 1_665 S
C2 O20 1.259 1_656 S
C2 O21 1.268 . S
C3 Ho0 2.811 . S
C3 C4 1.488 . S
C3 O22 1.215 . S
C3 O23 1.289 . S
C4 C3 1.488 . S
C4 C5 1.348 . S
C4 C9 1.413 . S
C5 C4 1.348 . S
C5 C6 1.442 . S
C5 H32 0.930 . S
C6 C5 1.442 . S
C6 C7 1.381 . S
C6 H33 0.931 . S
C7 C6 1.381 . S
C7 C8 1.321 . S
C8 C7 1.321 . S
C8 C9 1.403 . S
C8 H34 0.934 . S
C9 C4 1.413 . S
C9 C8 1.403 . S
C9 H35 0.930 . S
C10 O24 1.275 . S
C10 O25 1.256 . S
C11 O26 1.259 . S
C11 O27 1.268 . S
C12 Ho1 2.811 . S
C12 C13 1.488 . S
C12 O28 1.215 . S
C12 O29 1.289 . S
C13 C12 1.488 . S
C13 C14 1.348 . S
C13 C18 1.413 . S
C14 C13 1.348 . S
C14 C15 1.442 . S
C14 H36 0.930 . S
C15 C14 1.442 . S
C15 C16 1.381 . S
C15 H37 0.931 . S
C16 C15 1.381 . S
C16 C17 1.321 . S
C17 C16 1.321 . S
C17 C18 1.403 . S
C17 H38 0.934 . S
C18 C13 1.413 . S
C18 C17 1.403 . S
C18 H39 0.930 . S
C19 O30 1.275 . S
C19 O31 1.256 . S
O20 Ho0 2.322 . S
O20 C2 1.259 1_454 S
O21 Ho1 2.346 1_545 S
O21 C2 1.268 . S
O22 Ho0 2.378 . S
O22 C3 1.215 . S
O23 Ho0 2.524 . S
O23 C3 1.289 . S
O24 Ho0 2.381 1_665 S
O24 C10 1.275 . S
O25 Ho0 2.669 1_665 S
O25 Ho1 2.305 1_554 S
O25 C10 1.256 . S
O26 Ho1 2.322 1_454 S
O26 C11 1.259 . S
O27 Ho0 2.346 1_565 S
O27 C11 1.268 . S
O28 Ho1 2.378 . S
O28 C12 1.215 . S
O29 Ho1 2.524 . S
O29 C12 1.289 . S
O30 Ho1 2.381 1_445 S
O30 C19 1.275 . S
O31 Ho0 2.305 1_556 S
O31 Ho1 2.669 1_445 S
O31 C19 1.256 . S
H32 C5 0.930 . S
H33 C6 0.931 . S
H34 C8 0.934 . S
H35 C9 0.930 . S
H36 C14 0.930 . S
H37 C15 0.931 . S
H38 C17 0.934 . S
H39 C18 0.930 . S
Ho40 C43 2.811 1_455 S
Ho40 O60 2.322 1_445 S
Ho40 O62 2.378 1_455 S
Ho40 O63 2.524 1_455 S
Ho40 O64 2.381 1_445 S
Ho40 O65 2.669 1_545 S
Ho40 O67 2.346 . S
Ho40 O71 2.305 . S
Ho41 C52 2.811 . S
Ho41 O61 2.346 1_455 S
Ho41 O65 2.305 . S
Ho41 O66 2.322 1_565 S
Ho41 O68 2.378 1_565 S
Ho41 O69 2.524 . S
Ho41 O70 2.381 1_565 S
Ho41 O71 2.669 1_565 S
C42 O60 1.259 . S
C42 O61 1.268 . S
C43 Ho40 2.811 1_655 S
C43 C44 1.488 . S
C43 O62 1.215 . S
C43 O63 1.289 . S
C44 C43 1.488 . S
C44 C45 1.348 . S
C44 C49 1.413 . S
C45 C44 1.348 . S
C45 C46 1.442 . S
C45 H72 0.930 . S
C46 C45 1.442 . S
C46 C47 1.381 . S
C46 H73 0.931 . S
C47 C46 1.381 . S
C47 C48 1.321 . S
C48 C47 1.321 . S
C48 C49 1.403 . S
C48 H74 0.934 . S
C49 C44 1.413 . S
C49 C48 1.403 . S
C49 H75 0.930 . S
C50 O64 1.275 . S
C50 O65 1.256 1_655 S
C51 O66 1.259 . S
C51 O67 1.268 . S
C52 Ho41 2.811 . S
C52 C53 1.488 . S
C52 O68 1.215 1_565 S
C52 O69 1.289 . S
C53 C52 1.488 . S
C53 C54 1.348 . S
C53 C58 1.413 . S
C54 C53 1.348 . S
C54 C55 1.442 . S
C54 H76 0.930 . S
C55 C54 1.442 . S
C55 C56 1.381 . S
C55 H77 0.931 . S
C56 C55 1.381 . S
C56 C57 1.321 . S
C57 C56 1.321 . S
C57 C58 1.403 . S
C57 H78 0.934 . S
C58 C53 1.413 . S
C58 C57 1.403 . S
C58 H79 0.930 1_565 S
C59 O70 1.275 . S
C59 O71 1.256 . S
O60 Ho40 2.322 1_665 S
O60 C42 1.259 . S
O61 Ho41 2.346 1_655 S
O61 C42 1.268 . S
O62 Ho40 2.378 1_655 S
O62 C43 1.215 . S
O63 Ho40 2.524 1_655 S
O63 C43 1.289 . S
O64 Ho40 2.381 1_665 S
O64 C50 1.275 . S
O65 Ho40 2.669 1_565 S
O65 Ho41 2.305 . S
O65 C50 1.256 1_455 S
O66 Ho41 2.322 1_545 S
O66 C51 1.259 . S
O67 Ho40 2.346 . S
O67 C51 1.268 . S
O68 Ho41 2.378 1_545 S
O68 C52 1.215 1_545 S
O69 Ho41 2.524 . S
O69 C52 1.289 . S
O70 Ho41 2.381 1_545 S
O70 C59 1.275 . S
O71 Ho40 2.305 . S
O71 Ho41 2.669 1_545 S
O71 C59 1.256 . S
H72 C45 0.930 . S
H73 C46 0.931 . S
H74 C48 0.934 . S
H75 C49 0.930 . S
H76 C54 0.930 . S
H77 C55 0.931 . S
H78 C57 0.934 . S
H79 C58 0.930 1_545 S
Zn80 O86 1.920 . S
Zn80 O92 1.898 . S
Zn80 O95 1.905 . S
Zn81 O89 1.905 . S
Zn81 O90 1.898 . S
Zn81 O98 1.920 . S
Zn82 O85 2.080 . S
Zn82 O88 2.114 . S
Zn82 O91 2.120 . S
Zn82 O93 2.120 . S
Zn82 O94 2.114 . S
Zn82 O97 2.080 . S
C83 O88 1.166 . S
C83 O89 1.182 . S
C84 O90 1.167 . S
C84 O91 1.299 . S
O85 Zn82 2.080 . S
O85 C99 1.305 . S
O86 Zn80 1.920 . S
O86 C99 1.234 . S
C87 O92 1.167 . S
C87 O93 1.299 . S
O88 Zn82 2.114 . S
O88 C83 1.166 . S
O89 Zn81 1.905 . S
O89 C83 1.182 . S
O90 Zn81 1.898 . S
O90 C84 1.167 . S
O91 Zn82 2.120 . S
O91 C84 1.299 . S
O92 Zn80 1.898 . S
O92 C87 1.167 . S
O93 Zn82 2.120 . S
O93 C87 1.299 . S
O94 Zn82 2.114 . S
O94 C96 1.166 . S
O95 Zn80 1.905 . S
O95 C96 1.182 . S
C96 O94 1.166 . S
C96 O95 1.182 . S
O97 Zn82 2.080 . S
O97 C100 1.305 . S
O98 Zn81 1.920 . S
O98 C100 1.234 . S
C99 O85 1.305 . S
C99 O86 1.234 . S
C100 O97 1.305 . S
C100 O98 1.234 . S
Zn101 O107 1.920 . S
Zn101 O113 1.898 . S
Zn101 O116 1.905 . S
Zn102 O110 1.905 . S
Zn102 O111 1.898 . S
Zn102 O119 1.920 . S
Zn103 O106 2.080 . S
Zn103 O109 2.114 . S
Zn103 O112 2.120 . S
Zn103 O114 2.120 . S
Zn103 O115 2.114 . S
Zn103 O118 2.080 . S
C104 O109 1.166 . S
C104 O110 1.182 . S
C105 O111 1.167 . S
C105 O112 1.299 . S
O106 Zn103 2.080 . S
O106 C120 1.305 . S
O107 Zn101 1.920 . S
O107 C120 1.234 . S
C108 O113 1.167 . S
C108 O114 1.299 . S
O109 Zn103 2.114 . S
O109 C104 1.166 . S
O110 Zn102 1.905 . S
O110 C104 1.182 . S
O111 Zn102 1.898 . S
O111 C105 1.167 . S
O112 Zn103 2.120 . S
O112 C105 1.299 . S
O113 Zn101 1.898 . S
O113 C108 1.167 . S
O114 Zn103 2.120 . S
O114 C108 1.299 . S
O115 Zn103 2.114 . S
O115 C117 1.166 . S
O116 Zn101 1.905 . S
O116 C117 1.182 . S
C117 O115 1.166 . S
C117 O116 1.182 . S
O118 Zn103 2.080 . S
O118 C121 1.305 . S
O119 Zn102 1.920 . S
O119 C121 1.234 . S
C120 O106 1.305 . S
C120 O107 1.234 . S
C121 O118 1.305 . S
C121 O119 1.234 . S
H122 C140 0.951 . S
H123 C142 0.951 . S
H124 C144 0.950 . S
H125 C145 0.950 . S
H126 C147 0.950 . S
H127 C150 0.950 . S
H128 C151 0.950 . S
H129 C153 0.950 . S
H130 C154 0.950 . S
H131 C155 0.951 . S
H132 C157 0.951 . S
H133 C159 0.950 . S
H134 C160 0.950 . S
H135 C162 0.950 . S
H136 C165 0.950 . S
H137 C166 0.950 . S
H138 C168 0.950 . S
H139 C169 0.950 . S
C140 H122 0.951 . S
C140 C141 1.366 . S
C140 C142 1.388 . S
C141 C140 1.366 . S
C141 C145 1.385 . S
C142 H123 0.951 . S
C142 C140 1.388 . S
C142 C143 1.366 . S
C143 C142 1.366 . S
C143 C144 1.414 . S
C143 C146 1.499 . S
C144 H124 0.950 . S
C144 C143 1.414 . S
C144 C145 1.374 . S
C145 H125 0.950 . S
C145 C141 1.385 . S
C145 C144 1.374 . S
C146 C143 1.499 . S
C146 C147 1.373 . S
C146 C148 1.389 . S
C147 H126 0.950 . S
C147 C146 1.373 . S
C147 C163 1.377 . S
C148 C146 1.389 . S
C148 C149 1.524 . S
C148 C162 1.377 . S
C149 C148 1.524 . S
C149 C150 1.397 . S
C149 C154 1.363 . S
C150 H127 0.950 . S
C150 C149 1.397 . S
C150 C151 1.334 . S
C151 H128 0.950 . S
C151 C150 1.334 . S
C151 C152 1.287 . S
C152 C151 1.287 . S
C152 C153 1.524 . S
C152 H171 0.913 . S
C153 H129 0.950 . S
C153 C152 1.524 . S
C153 C154 1.415 . S
C154 H130 0.950 . S
C154 C149 1.363 . S
C154 C153 1.415 . S
C155 H131 0.951 . S
C155 C156 1.366 . S
C155 C157 1.388 . S
C156 C155 1.366 . S
C156 C160 1.385 . S
C157 H132 0.951 . S
C157 C155 1.388 . S
C157 C158 1.366 . S
C158 C157 1.366 . S
C158 C159 1.414 . S
C158 C161 1.499 . S
C159 H133 0.950 . S
C159 C158 1.414 . S
C159 C160 1.374 . S
C160 H134 0.950 . S
C160 C156 1.385 . S
C160 C159 1.374 . S
C161 C158 1.499 . S
C161 C162 1.373 . S
C161 C163 1.389 . S
C162 H135 0.950 . S
C162 C148 1.377 . S
C162 C161 1.373 . S
C163 C147 1.377 . S
C163 C161 1.389 . S
C163 C164 1.524 . S
C164 C163 1.524 . S
C164 C165 1.397 . S
C164 C169 1.363 . S
C165 H136 0.950 . S
C165 C164 1.397 . S
C165 C166 1.334 . S
C166 H137 0.950 . S
C166 C165 1.334 . S
C166 C167 1.287 . S
C167 C166 1.287 . S
C167 C168 1.524 . S
C167 H170 0.999 . S
C168 H138 0.950 . S
C168 C167 1.524 . S
C168 C169 1.415 . S
C169 H139 0.950 . S
C169 C164 1.363 . S
C169 C168 1.415 . S
H170 C167 0.999 . S
H171 C152 0.913 . S
H172 C190 0.951 . S
H173 C192 0.951 . S
H174 C194 0.950 . S
H175 C195 0.950 . S
H176 C197 0.950 . S
H177 C200 0.950 . S
H178 C201 0.950 . S
H179 C203 0.950 . S
H180 C204 0.950 . S
H181 C205 0.951 . S
H182 C207 0.951 . S
H183 C209 0.950 . S
H184 C210 0.950 . S
H185 C212 0.950 . S
H186 C215 0.950 . S
H187 C216 0.950 . S
H188 C218 0.950 . S
H189 C219 0.950 . S
C190 H172 0.951 . S
C190 C191 1.366 . S
C190 C192 1.388 . S
C191 C190 1.366 . S
C191 C195 1.385 . S
C192 H173 0.951 . S
C192 C190 1.388 . S
C192 C193 1.366 . S
C193 C192 1.366 . S
C193 C194 1.414 . S
C193 C196 1.499 . S
C194 H174 0.950 . S
C194 C193 1.414 . S
C194 C195 1.374 . S
C195 H175 0.950 . S
C195 C191 1.385 . S
C195 C194 1.374 . S
C196 C193 1.499 . S
C196 C197 1.373 . S
C196 C198 1.389 . S
C197 H176 0.950 . S
C197 C196 1.373 . S
C197 C213 1.377 . S
C198 C196 1.389 . S
C198 C199 1.524 . S
C198 C212 1.377 . S
C199 C198 1.524 . S
C199 C200 1.397 . S
C199 C204 1.363 . S
C200 H177 0.950 . S
C200 C199 1.397 . S
C200 C201 1.334 . S
C201 H178 0.950 . S
C201 C200 1.334 . S
C201 C202 1.287 . S
C202 C201 1.287 . S
C202 C203 1.524 . S
C202 H221 0.913 . S
C203 H179 0.950 . S
C203 C202 1.524 . S
C203 C204 1.415 . S
C204 H180 0.950 . S
C204 C199 1.363 . S
C204 C203 1.415 . S
C205 H181 0.951 . S
C205 C206 1.366 . S
C205 C207 1.388 . S
C206 C205 1.366 . S
C206 C210 1.385 . S
C207 H182 0.951 . S
C207 C205 1.388 . S
C207 C208 1.366 . S
C208 C207 1.366 . S
C208 C209 1.414 . S
C208 C211 1.499 . S
C209 H183 0.950 . S
C209 C208 1.414 . S
C209 C210 1.374 . S
C210 H184 0.950 . S
C210 C206 1.385 . S
C210 C209 1.374 . S
C211 C208 1.499 . S
C211 C212 1.373 . S
C211 C213 1.389 . S
C212 H185 0.950 . S
C212 C198 1.377 . S
C212 C211 1.373 . S
C213 C197 1.377 . S
C213 C211 1.389 . S
C213 C214 1.524 . S
C214 C213 1.524 . S
C214 C215 1.397 . S
C214 C219 1.363 . S
C215 H186 0.950 . S
C215 C214 1.397 . S
C215 C216 1.334 . S
C216 H187 0.950 . S
C216 C215 1.334 . S
C216 C217 1.287 . S
C217 C216 1.287 . S
C217 C218 1.524 . S
C217 H220 0.999 . S
C218 H188 0.950 . S
C218 C217 1.524 . S
C218 C219 1.415 . S
C219 H189 0.950 . S
C219 C214 1.363 . S
C219 C218 1.415 . S
H220 C217 0.999 . S
H221 C202 0.913 . S
H222 C240 0.951 . S
H223 C242 0.951 . S
H224 C244 0.950 . S
H225 C245 0.950 . S
H226 C247 0.950 . S
H227 C250 0.950 . S
H228 C251 0.950 . S
H229 C253 0.950 . S
H230 C254 0.950 . S
H231 C255 0.951 . S
H232 C257 0.951 . S
H233 C259 0.950 . S
H234 C260 0.950 . S
H235 C262 0.950 . S
H236 C265 0.950 . S
H237 C266 0.950 . S
H238 C268 0.950 . S
H239 C269 0.950 . S
C240 H222 0.951 . S
C240 C241 1.366 . S
C240 C242 1.388 . S
C241 C240 1.366 . S
C241 C245 1.385 . S
C242 H223 0.951 . S
C242 C240 1.388 . S
C242 C243 1.366 . S
C243 C242 1.366 . S
C243 C244 1.414 . S
C243 C246 1.499 . S
C244 H224 0.950 . S
C244 C243 1.414 . S
C244 C245 1.374 . S
C245 H225 0.950 . S
C245 C241 1.385 . S
C245 C244 1.374 . S
C246 C243 1.499 . S
C246 C247 1.373 . S
C246 C248 1.389 . S
C247 H226 0.950 . S
C247 C246 1.373 . S
C247 C263 1.377 . S
C248 C246 1.389 . S
C248 C249 1.524 . S
C248 C262 1.377 . S
C249 C248 1.524 . S
C249 C250 1.397 . S
C249 C254 1.363 . S
C250 H227 0.950 . S
C250 C249 1.397 . S
C250 C251 1.334 . S
C251 H228 0.950 . S
C251 C250 1.334 . S
C251 C252 1.287 . S
C252 C251 1.287 . S
C252 C253 1.524 . S
C252 H271 0.913 . S
C253 H229 0.950 . S
C253 C252 1.524 . S
C253 C254 1.415 . S
C254 H230 0.950 . S
C254 C249 1.363 . S
C254 C253 1.415 . S
C255 H231 0.951 . S
C255 C256 1.366 . S
C255 C257 1.388 . S
C256 C255 1.366 . S
C256 C260 1.385 . S
C257 H232 0.951 . S
C257 C255 1.388 . S
C257 C258 1.366 . S
C258 C257 1.366 . S
C258 C259 1.414 . S
C258 C261 1.499 . S
C259 H233 0.950 . S
C259 C258 1.414 . S
C259 C260 1.374 . S
C260 H234 0.950 . S
C260 C256 1.385 . S
C260 C259 1.374 . S
C261 C258 1.499 . S
C261 C262 1.373 . S
C261 C263 1.389 . S
C262 H235 0.950 . S
C262 C248 1.377 . S
C262 C261 1.373 . S
C263 C247 1.377 . S
C263 C261 1.389 . S
C263 C264 1.524 . S
C264 C263 1.524 . S
C264 C265 1.397 . S
C264 C269 1.363 . S
C265 H236 0.950 . S
C265 C264 1.397 . S
C265 C266 1.334 . S
C266 H237 0.950 . S
C266 C265 1.334 . S
C266 C267 1.287 . S
C267 C266 1.287 . S
C267 C268 1.524 . S
C267 H270 0.999 . S
C268 H238 0.950 . S
C268 C267 1.524 . S
C268 C269 1.415 . S
C269 H239 0.950 . S
C269 C264 1.363 . S
C269 C268 1.415 . S
H270 C267 0.999 . S
H271 C252 0.913 . S
H272 C290 0.951 . S
H273 C292 0.951 . S
H274 C294 0.950 . S
H275 C295 0.950 . S
H276 C297 0.950 . S
H277 C300 0.950 . S
H278 C301 0.950 1_565 S
H279 C303 0.950 1_565 S
H280 C304 0.950 . S
H281 C305 0.951 . S
H282 C307 0.951 . S
H283 C309 0.950 . S
H284 C310 0.950 . S
H285 C312 0.950 . S
H286 C315 0.950 . S
H287 C316 0.950 . S
H288 C318 0.950 . S
H289 C319 0.950 . S
C290 H272 0.951 . S
C290 C291 1.366 . S
C290 C292 1.388 . S
C291 C290 1.366 . S
C291 C295 1.385 . S
C292 H273 0.951 . S
C292 C290 1.388 . S
C292 C293 1.366 . S
C293 C292 1.366 . S
C293 C294 1.414 . S
C293 C296 1.499 . S
C294 H274 0.950 . S
C294 C293 1.414 . S
C294 C295 1.374 . S
C295 H275 0.950 . S
C295 C291 1.385 . S
C295 C294 1.374 . S
C296 C293 1.499 . S
C296 C297 1.373 . S
C296 C298 1.389 . S
C297 H276 0.950 . S
C297 C296 1.373 . S
C297 C313 1.377 . S
C298 C296 1.389 . S
C298 C299 1.524 . S
C298 C312 1.377 . S
C299 C298 1.524 . S
C299 C300 1.397 . S
C299 C304 1.363 . S
C300 H277 0.950 . S
C300 C299 1.397 . S
C300 C301 1.334 . S
C301 H278 0.950 1_545 S
C301 C300 1.334 . S
C301 C302 1.287 1_545 S
C302 C301 1.287 1_565 S
C302 C303 1.524 1_565 S
C302 H321 0.913 . S
C303 H279 0.950 1_545 S
C303 C302 1.524 1_545 S
C303 C304 1.415 . S
C304 H280 0.950 . S
C304 C299 1.363 . S
C304 C303 1.415 . S
C305 H281 0.951 . S
C305 C306 1.366 . S
C305 C307 1.388 . S
C306 C305 1.366 . S
C306 C310 1.385 . S
C307 H282 0.951 . S
C307 C305 1.388 . S
C307 C308 1.366 . S
C308 C307 1.366 . S
C308 C309 1.414 . S
C308 C311 1.499 . S
C309 H283 0.950 . S
C309 C308 1.414 . S
C309 C310 1.374 . S
C310 H284 0.950 . S
C310 C306 1.385 . S
C310 C309 1.374 . S
C311 C308 1.499 . S
C311 C312 1.373 . S
C311 C313 1.389 . S
C312 H285 0.950 . S
C312 C298 1.377 . S
C312 C311 1.373 . S
C313 C297 1.377 . S
C313 C311 1.389 . S
C313 C314 1.524 . S
C314 C313 1.524 . S
C314 C315 1.397 . S
C314 C319 1.363 . S
C315 H286 0.950 . S
C315 C314 1.397 . S
C315 C316 1.334 . S
C316 H287 0.950 . S
C316 C315 1.334 . S
C316 C317 1.287 . S
C317 C316 1.287 . S
C317 C318 1.524 . S
C317 H320 0.999 . S
C318 H288 0.950 . S
C318 C317 1.524 . S
C318 C319 1.415 . S
C319 H289 0.950 . S
C319 C314 1.363 . S
C319 C318 1.415 . S
H320 C317 0.999 . S
H321 C302 0.913 . S
H322 C340 0.951 . S
H323 C342 0.951 . S
H324 C344 0.950 . S
H325 C345 0.950 . S
H326 C347 0.950 . S
H327 C350 0.950 . S
H328 C351 0.950 . S
H329 C353 0.950 . S
H330 C354 0.950 . S
H331 C355 0.951 . S
H332 C357 0.951 . S
H333 C359 0.950 . S
H334 C360 0.950 . S
H335 C362 0.950 . S
H336 C365 0.950 . S
H337 C366 0.950 . S
H338 C368 0.950 . S
H339 C369 0.950 . S
C340 H322 0.951 . S
C340 C341 1.366 . S
C340 C342 1.388 . S
C341 C340 1.366 . S
C341 C345 1.385 . S
C342 H323 0.951 . S
C342 C340 1.388 . S
C342 C343 1.366 . S
C343 C342 1.366 . S
C343 C344 1.414 . S
C343 C346 1.499 . S
C344 H324 0.950 . S
C344 C343 1.414 . S
C344 C345 1.374 . S
C345 H325 0.950 . S
C345 C341 1.385 . S
C345 C344 1.374 . S
C346 C343 1.499 . S
C346 C347 1.373 . S
C346 C348 1.389 . S
C347 H326 0.950 . S
C347 C346 1.373 . S
C347 C363 1.377 . S
C348 C346 1.389 . S
C348 C349 1.524 . S
C348 C362 1.377 . S
C349 C348 1.524 . S
C349 C350 1.397 . S
C349 C354 1.363 . S
C350 H327 0.950 . S
C350 C349 1.397 . S
C350 C351 1.334 . S
C351 H328 0.950 . S
C351 C350 1.334 . S
C351 C352 1.287 . S
C352 C351 1.287 . S
C352 C353 1.524 . S
C352 H371 0.913 . S
C353 H329 0.950 . S
C353 C352 1.524 . S
C353 C354 1.415 . S
C354 H330 0.950 . S
C354 C349 1.363 . S
C354 C353 1.415 . S
C355 H331 0.951 . S
C355 C356 1.366 . S
C355 C357 1.388 . S
C356 C355 1.366 . S
C356 C360 1.385 . S
C357 H332 0.951 . S
C357 C355 1.388 . S
C357 C358 1.366 . S
C358 C357 1.366 . S
C358 C359 1.414 . S
C358 C361 1.499 . S
C359 H333 0.950 . S
C359 C358 1.414 . S
C359 C360 1.374 . S
C360 H334 0.950 . S
C360 C356 1.385 . S
C360 C359 1.374 . S
C361 C358 1.499 . S
C361 C362 1.373 . S
C361 C363 1.389 . S
C362 H335 0.950 . S
C362 C348 1.377 . S
C362 C361 1.373 . S
C363 C347 1.377 . S
C363 C361 1.389 . S
C363 C364 1.524 . S
C364 C363 1.524 . S
C364 C365 1.397 . S
C364 C369 1.363 . S
C365 H336 0.950 . S
C365 C364 1.397 . S
C365 C366 1.334 . S
C366 H337 0.950 . S
C366 C365 1.334 . S
C366 C367 1.287 . S
C367 C366 1.287 . S
C367 C368 1.524 1_565 S
C367 H370 0.999 1_565 S
C368 H338 0.950 . S
C368 C367 1.524 1_545 S
C368 C369 1.415 1_545 S
C369 H339 0.950 . S
C369 C364 1.363 . S
C369 C368 1.415 1_565 S
H370 C367 0.999 1_545 S
H371 C352 0.913 . S
H372 C390 0.951 . S
H373 C392 0.951 . S
H374 C394 0.950 . S
H375 C395 0.950 . S
H376 C397 0.950 . S
H377 C400 0.950 . S
H378 C401 0.950 . S
H379 C403 0.950 . S
H380 C404 0.950 . S
H381 C405 0.951 . S
H382 C407 0.951 . S
H383 C409 0.950 . S
H384 C410 0.950 . S
H385 C412 0.950 . S
H386 C415 0.950 . S
H387 C416 0.950 . S
H388 C418 0.950 . S
H389 C419 0.950 . S
C390 H372 0.951 . S
C390 C391 1.366 . S
C390 C392 1.388 . S
C391 C390 1.366 . S
C391 C395 1.385 . S
C392 H373 0.951 . S
C392 C390 1.388 . S
C392 C393 1.366 . S
C393 C392 1.366 . S
C393 C394 1.414 . S
C393 C396 1.499 . S
C394 H374 0.950 . S
C394 C393 1.414 . S
C394 C395 1.374 . S
C395 H375 0.950 . S
C395 C391 1.385 . S
C395 C394 1.374 . S
C396 C393 1.499 . S
C396 C397 1.373 . S
C396 C398 1.389 . S
C397 H376 0.950 . S
C397 C396 1.373 . S
C397 C413 1.377 . S
C398 C396 1.389 . S
C398 C399 1.524 . S
C398 C412 1.377 . S
C399 C398 1.524 . S
C399 C400 1.397 . S
C399 C404 1.363 . S
C400 H377 0.950 . S
C400 C399 1.397 . S
C400 C401 1.334 . S
C401 H378 0.950 . S
C401 C400 1.334 . S
C401 C402 1.287 . S
C402 C401 1.287 . S
C402 C403 1.524 . S
C402 H421 0.913 . S
C403 H379 0.950 . S
C403 C402 1.524 . S
C403 C404 1.415 . S
C404 H380 0.950 . S
C404 C399 1.363 . S
C404 C403 1.415 . S
C405 H381 0.951 . S
C405 C406 1.366 . S
C405 C407 1.388 . S
C406 C405 1.366 . S
C406 C410 1.385 . S
C407 H382 0.951 . S
C407 C405 1.388 . S
C407 C408 1.366 . S
C408 C407 1.366 . S
C408 C409 1.414 . S
C408 C411 1.499 . S
C409 H383 0.950 . S
C409 C408 1.414 . S
C409 C410 1.374 . S
C410 H384 0.950 . S
C410 C406 1.385 . S
C410 C409 1.374 . S
C411 C408 1.499 . S
C411 C412 1.373 . S
C411 C413 1.389 . S
C412 H385 0.950 . S
C412 C398 1.377 . S
C412 C411 1.373 . S
C413 C397 1.377 . S
C413 C411 1.389 . S
C413 C414 1.524 . S
C414 C413 1.524 . S
C414 C415 1.397 . S
C414 C419 1.363 . S
C415 H386 0.950 . S
C415 C414 1.397 . S
C415 C416 1.334 . S
C416 H387 0.950 . S
C416 C415 1.334 . S
C416 C417 1.287 . S
C417 C416 1.287 . S
C417 C418 1.524 . S
C417 H420 0.999 . S
C418 H388 0.950 . S
C418 C417 1.524 . S
C418 C419 1.415 . S
C419 H389 0.950 . S
C419 C414 1.363 . S
C419 C418 1.415 . S
H420 C417 0.999 . S
H421 C402 0.913 . S
H422 C440 0.951 . S
H423 C442 0.951 . S
H424 C444 0.950 . S
H425 C445 0.950 . S
H426 C447 0.950 . S
H427 C450 0.950 . S
H428 C451 0.950 . S
H429 C453 0.950 . S
H430 C454 0.950 . S
H431 C455 0.951 . S
H432 C457 0.951 . S
H433 C459 0.950 . S
H434 C460 0.950 . S
H435 C462 0.950 . S
H436 C465 0.950 . S
H437 C466 0.950 . S
H438 C468 0.950 . S
H439 C469 0.950 . S
C440 H422 0.951 . S
C440 C441 1.366 . S
C440 C442 1.388 . S
C441 C440 1.366 . S
C441 C445 1.385 . S
C442 H423 0.951 . S
C442 C440 1.388 . S
C442 C443 1.366 . S
C443 C442 1.366 . S
C443 C444 1.414 . S
C443 C446 1.499 . S
C444 H424 0.950 . S
C444 C443 1.414 . S
C444 C445 1.374 . S
C445 H425 0.950 . S
C445 C441 1.385 . S
C445 C444 1.374 . S
C446 C443 1.499 . S
C446 C447 1.373 . S
C446 C448 1.389 . S
C447 H426 0.950 . S
C447 C446 1.373 . S
C447 C463 1.377 . S
C448 C446 1.389 . S
C448 C449 1.524 . S
C448 C462 1.377 . S
C449 C448 1.524 . S
C449 C450 1.397 . S
C449 C454 1.363 . S
C450 H427 0.950 . S
C450 C449 1.397 . S
C450 C451 1.334 1_565 S
C451 H428 0.950 . S
C451 C450 1.334 1_545 S
C451 C452 1.287 1_545 S
C452 C451 1.287 1_565 S
C452 C453 1.524 . S
C452 H471 0.913 1_565 S
C453 H429 0.950 . S
C453 C452 1.524 . S
C453 C454 1.415 . S
C454 H430 0.950 . S
C454 C449 1.363 . S
C454 C453 1.415 . S
C455 H431 0.951 . S
C455 C456 1.366 . S
C455 C457 1.388 . S
C456 C455 1.366 . S
C456 C460 1.385 . S
C457 H432 0.951 . S
C457 C455 1.388 . S
C457 C458 1.366 . S
C458 C457 1.366 . S
C458 C459 1.414 . S
C458 C461 1.499 . S
C459 H433 0.950 . S
C459 C458 1.414 . S
C459 C460 1.374 . S
C460 H434 0.950 . S
C460 C456 1.385 . S
C460 C459 1.374 . S
C461 C458 1.499 . S
C461 C462 1.373 . S
C461 C463 1.389 . S
C462 H435 0.950 . S
C462 C448 1.377 . S
C462 C461 1.373 . S
C463 C447 1.377 . S
C463 C461 1.389 . S
C463 C464 1.524 . S
C464 C463 1.524 . S
C464 C465 1.397 . S
C464 C469 1.363 . S
C465 H436 0.950 . S
C465 C464 1.397 . S
C465 C466 1.334 . S
C466 H437 0.950 . S
C466 C465 1.334 . S
C466 C467 1.287 . S
C467 C466 1.287 . S
C467 C468 1.524 . S
C467 H470 0.999 . S
C468 H438 0.950 . S
C468 C467 1.524 . S
C468 C469 1.415 . S
C469 H439 0.950 . S
C469 C464 1.363 . S
C469 C468 1.415 . S
H470 C467 0.999 . S
H471 C452 0.913 1_545 S
H472 C490 0.951 . S
H473 C492 0.951 . S
H474 C494 0.950 . S
H475 C495 0.950 . S
H476 C497 0.950 . S
H477 C500 0.950 . S
H478 C501 0.950 . S
H479 C503 0.950 1_565 S
H480 C504 0.950 . S
H481 C505 0.951 . S
H482 C507 0.951 . S
H483 C509 0.950 . S
H484 C510 0.950 . S
H485 C512 0.950 . S
H486 C515 0.950 . S
H487 C516 0.950 . S
H488 C518 0.950 . S
H489 C519 0.950 . S
C490 H472 0.951 . S
C490 C491 1.366 . S
C490 C492 1.388 . S
C491 C490 1.366 . S
C491 C495 1.385 . S
C492 H473 0.951 . S
C492 C490 1.388 . S
C492 C493 1.366 . S
C493 C492 1.366 . S
C493 C494 1.414 . S
C493 C496 1.499 . S
C494 H474 0.950 . S
C494 C493 1.414 . S
C494 C495 1.374 . S
C495 H475 0.950 . S
C495 C491 1.385 . S
C495 C494 1.374 . S
C496 C493 1.499 . S
C496 C497 1.373 . S
C496 C498 1.389 . S
C497 H476 0.950 . S
C497 C496 1.373 . S
C497 C513 1.377 . S
C498 C496 1.389 . S
C498 C499 1.524 . S
C498 C512 1.377 . S
C499 C498 1.524 . S
C499 C500 1.397 . S
C499 C504 1.363 . S
C500 H477 0.950 . S
C500 C499 1.397 . S
C500 C501 1.334 1_545 S
C501 H478 0.950 . S
C501 C500 1.334 1_565 S
C501 C502 1.287 . S
C502 C501 1.287 . S
C502 C503 1.524 1_565 S
C502 H521 0.913 . S
C503 H479 0.950 1_545 S
C503 C502 1.524 1_545 S
C503 C504 1.415 . S
C504 H480 0.950 . S
C504 C499 1.363 . S
C504 C503 1.415 . S
C505 H481 0.951 . S
C505 C506 1.366 . S
C505 C507 1.388 . S
C506 C505 1.366 . S
C506 C510 1.385 . S
C507 H482 0.951 . S
C507 C505 1.388 . S
C507 C508 1.366 . S
C508 C507 1.366 . S
C508 C509 1.414 . S
C508 C511 1.499 . S
C509 H483 0.950 . S
C509 C508 1.414 . S
C509 C510 1.374 . S
C510 H484 0.950 . S
C510 C506 1.385 . S
C510 C509 1.374 . S
C511 C508 1.499 . S
C511 C512 1.373 . S
C511 C513 1.389 . S
C512 H485 0.950 . S
C512 C498 1.377 . S
C512 C511 1.373 . S
C513 C497 1.377 . S
C513 C511 1.389 . S
C513 C514 1.524 . S
C514 C513 1.524 . S
C514 C515 1.397 . S
C514 C519 1.363 . S
C515 H486 0.950 . S
C515 C514 1.397 . S
C515 C516 1.334 . S
C516 H487 0.950 . S
C516 C515 1.334 . S
C516 C517 1.287 . S
C517 C516 1.287 . S
C517 C518 1.524 . S
C517 H520 0.999 . S
C518 H488 0.950 . S
C518 C517 1.524 . S
C518 C519 1.415 . S
C519 H489 0.950 . S
C519 C514 1.363 . S
C519 C518 1.415 . S
H520 C517 0.999 . S
H521 C502 0.913 . S
H522 C540 0.951 . S
H523 C542 0.951 . S
H524 C544 0.950 . S
H525 C545 0.950 . S
H526 C547 0.950 . S
H527 C550 0.950 . S
H528 C551 0.950 . S
H529 C553 0.950 . S
H530 C554 0.950 . S
H531 C555 0.951 . S
H532 C557 0.951 . S
H533 C559 0.950 . S
H534 C560 0.950 . S
H535 C562 0.950 . S
H536 C565 0.950 . S
H537 C566 0.950 . S
H538 C568 0.950 . S
H539 C569 0.950 . S
C540 H522 0.951 . S
C540 C541 1.366 . S
C540 C542 1.388 . S
C541 C540 1.366 . S
C541 C545 1.385 . S
C542 H523 0.951 . S
C542 C540 1.388 . S
C542 C543 1.366 . S
C543 C542 1.366 . S
C543 C544 1.414 . S
C543 C546 1.499 . S
C544 H524 0.950 . S
C544 C543 1.414 . S
C544 C545 1.374 . S
C545 H525 0.950 . S
C545 C541 1.385 . S
C545 C544 1.374 . S
C546 C543 1.499 . S
C546 C547 1.373 . S
C546 C548 1.389 . S
C547 H526 0.950 . S
C547 C546 1.373 . S
C547 C563 1.377 . S
C548 C546 1.389 . S
C548 C549 1.524 . S
C548 C562 1.377 . S
C549 C548 1.524 . S
C549 C550 1.397 . S
C549 C554 1.363 . S
C550 H527 0.950 . S
C550 C549 1.397 . S
C550 C551 1.334 . S
C551 H528 0.950 . S
C551 C550 1.334 . S
C551 C552 1.287 . S
C552 C551 1.287 . S
C552 C553 1.524 . S
C552 H571 0.913 . S
C553 H529 0.950 . S
C553 C552 1.524 . S
C553 C554 1.415 . S
C554 H530 0.950 . S
C554 C549 1.363 . S
C554 C553 1.415 . S
C555 H531 0.951 . S
C555 C556 1.366 . S
C555 C557 1.388 . S
C556 C555 1.366 . S
C556 C560 1.385 . S
C557 H532 0.951 . S
C557 C555 1.388 . S
C557 C558 1.366 . S
C558 C557 1.366 . S
C558 C559 1.414 . S
C558 C561 1.499 . S
C559 H533 0.950 . S
C559 C558 1.414 . S
C559 C560 1.374 . S
C560 H534 0.950 . S
C560 C556 1.385 . S
C560 C559 1.374 . S
C561 C558 1.499 . S
C561 C562 1.373 . S
C561 C563 1.389 . S
C562 H535 0.950 . S
C562 C548 1.377 . S
C562 C561 1.373 . S
C563 C547 1.377 . S
C563 C561 1.389 . S
C563 C564 1.524 . S
C564 C563 1.524 . S
C564 C565 1.397 . S
C564 C569 1.363 . S
C565 H536 0.950 . S
C565 C564 1.397 . S
C565 C566 1.334 . S
C566 H537 0.950 . S
C566 C565 1.334 . S
C566 C567 1.287 . S
C567 C566 1.287 . S
C567 C568 1.524 . S
C567 H570 0.999 . S
C568 H538 0.950 . S
C568 C567 1.524 . S
C568 C569 1.415 . S
C569 H539 0.950 . S
C569 C564 1.363 . S
C569 C568 1.415 . S
H570 C567 0.999 . S
H571 C552 0.913 . S
H572 C590 0.951 . S
H573 C592 0.951 . S
H574 C594 0.950 . S
H575 C595 0.950 . S
H576 C597 0.950 . S
H577 C600 0.950 . S
H578 C601 0.950 . S
H579 C603 0.950 . S
H580 C604 0.950 . S
H581 C605 0.951 . S
H582 C607 0.951 . S
H583 C609 0.950 . S
H584 C610 0.950 . S
H585 C612 0.950 . S
H586 C615 0.950 . S
H587 C616 0.950 . S
H588 C618 0.950 . S
H589 C619 0.950 . S
C590 H572 0.951 . S
C590 C591 1.366 . S
C590 C592 1.388 . S
C591 C590 1.366 . S
C591 C595 1.385 . S
C592 H573 0.951 . S
C592 C590 1.388 . S
C592 C593 1.366 . S
C593 C592 1.366 . S
C593 C594 1.414 . S
C593 C596 1.499 . S
C594 H574 0.950 . S
C594 C593 1.414 . S
C594 C595 1.374 . S
C595 H575 0.950 . S
C595 C591 1.385 . S
C595 C594 1.374 . S
C596 C593 1.499 . S
C596 C597 1.373 . S
C596 C598 1.389 . S
C597 H576 0.950 . S
C597 C596 1.373 . S
C597 C613 1.377 . S
C598 C596 1.389 . S
C598 C599 1.524 . S
C598 C612 1.377 . S
C599 C598 1.524 . S
C599 C600 1.397 . S
C599 C604 1.363 . S
C600 H577 0.950 . S
C600 C599 1.397 . S
C600 C601 1.334 1_655 S
C601 H578 0.950 . S
C601 C600 1.334 1_455 S
C601 C602 1.287 . S
C602 C601 1.287 . S
C602 C603 1.524 1_455 S
C602 H621 0.913 . S
C603 H579 0.950 . S
C603 C602 1.524 1_655 S
C603 C604 1.415 . S
C604 H580 0.950 . S
C604 C599 1.363 . S
C604 C603 1.415 . S
C605 H581 0.951 . S
C605 C606 1.366 . S
C605 C607 1.388 . S
C606 C605 1.366 . S
C606 C610 1.385 . S
C607 H582 0.951 . S
C607 C605 1.388 . S
C607 C608 1.366 . S
C608 C607 1.366 . S
C608 C609 1.414 . S
C608 C611 1.499 . S
C609 H583 0.950 . S
C609 C608 1.414 . S
C609 C610 1.374 . S
C610 H584 0.950 . S
C610 C606 1.385 . S
C610 C609 1.374 . S
C611 C608 1.499 . S
C611 C612 1.373 . S
C611 C613 1.389 . S
C612 H585 0.950 . S
C612 C598 1.377 . S
C612 C611 1.373 . S
C613 C597 1.377 . S
C613 C611 1.389 . S
C613 C614 1.524 . S
C614 C613 1.524 . S
C614 C615 1.397 . S
C614 C619 1.363 . S
C615 H586 0.950 . S
C615 C614 1.397 . S
C615 C616 1.334 . S
C616 H587 0.950 . S
C616 C615 1.334 . S
C616 C617 1.287 . S
C617 C616 1.287 . S
C617 C618 1.524 . S
C617 H620 0.999 . S
C618 H588 0.950 . S
C618 C617 1.524 . S
C618 C619 1.415 . S
C619 H589 0.950 . S
C619 C614 1.363 . S
C619 C618 1.415 . S
H620 C617 0.999 . S
H621 C602 0.913 . S
H622 C640 0.951 . S
H623 C642 0.951 . S
H624 C644 0.950 . S
H625 C645 0.950 1_545 S
H626 C647 0.950 . S
H627 C650 0.950 . S
H628 C651 0.950 . S
H629 C653 0.950 . S
H630 C654 0.950 . S
H631 C655 0.951 . S
H632 C657 0.951 . S
H633 C659 0.950 . S
H634 C660 0.950 . S
H635 C662 0.950 . S
H636 C665 0.950 . S
H637 C666 0.950 . S
H638 C668 0.950 . S
H639 C669 0.950 . S
C640 H622 0.951 . S
C640 C641 1.366 . S
C640 C642 1.388 . S
C641 C640 1.366 . S
C641 C645 1.385 . S
C642 H623 0.951 . S
C642 C640 1.388 . S
C642 C643 1.366 . S
C643 C642 1.366 . S
C643 C644 1.414 . S
C643 C646 1.499 . S
C644 H624 0.950 . S
C644 C643 1.414 . S
C644 C645 1.374 . S
C645 H625 0.950 1_565 S
C645 C641 1.385 . S
C645 C644 1.374 . S
C646 C643 1.499 . S
C646 C647 1.373 . S
C646 C648 1.389 . S
C647 H626 0.950 . S
C647 C646 1.373 . S
C647 C663 1.377 . S
C648 C646 1.389 . S
C648 C649 1.524 . S
C648 C662 1.377 . S
C649 C648 1.524 . S
C649 C650 1.397 . S
C649 C654 1.363 . S
C650 H627 0.950 . S
C650 C649 1.397 . S
C650 C651 1.334 . S
C651 H628 0.950 . S
C651 C650 1.334 . S
C651 C652 1.287 . S
C652 C651 1.287 . S
C652 C653 1.524 . S
C652 H671 0.913 . S
C653 H629 0.950 . S
C653 C652 1.524 . S
C653 C654 1.415 . S
C654 H630 0.950 . S
C654 C649 1.363 . S
C654 C653 1.415 . S
C655 H631 0.951 . S
C655 C656 1.366 . S
C655 C657 1.388 . S
C656 C655 1.366 . S
C656 C660 1.385 . S
C657 H632 0.951 . S
C657 C655 1.388 . S
C657 C658 1.366 . S
C658 C657 1.366 . S
C658 C659 1.414 . S
C658 C661 1.499 . S
C659 H633 0.950 . S
C659 C658 1.414 . S
C659 C660 1.374 . S
C660 H634 0.950 . S
C660 C656 1.385 . S
C660 C659 1.374 . S
C661 C658 1.499 . S
C661 C662 1.373 . S
C661 C663 1.389 . S
C662 H635 0.950 . S
C662 C648 1.377 . S
C662 C661 1.373 . S
C663 C647 1.377 . S
C663 C661 1.389 . S
C663 C664 1.524 . S
C664 C663 1.524 . S
C664 C665 1.397 . S
C664 C669 1.363 . S
C665 H636 0.950 . S
C665 C664 1.397 . S
C665 C666 1.334 . S
C666 H637 0.950 . S
C666 C665 1.334 . S
C666 C667 1.287 . S
C667 C666 1.287 . S
C667 C668 1.524 . S
C667 H670 0.999 . S
C668 H638 0.950 . S
C668 C667 1.524 . S
C668 C669 1.415 . S
C669 H639 0.950 . S
C669 C664 1.363 . S
C669 C668 1.415 . S
H670 C667 0.999 . S
H671 C652 0.913 . S
H672 C690 0.951 . S
H673 C692 0.951 . S
H674 C694 0.950 . S
H675 C695 0.950 . S
H676 C697 0.950 . S
H677 C700 0.950 . S
H678 C701 0.950 1_554 S
H679 C703 0.950 . S
H680 C704 0.950 . S
H681 C705 0.951 . S
H682 C707 0.951 . S
H683 C709 0.950 . S
H684 C710 0.950 . S
H685 C712 0.950 . S
H686 C715 0.950 . S
H687 C716 0.950 . S
H688 C718 0.950 . S
H689 C719 0.950 . S
C690 H672 0.951 . S
C690 C691 1.366 . S
C690 C692 1.388 . S
C691 C690 1.366 . S
C691 C695 1.385 . S
C692 H673 0.951 . S
C692 C690 1.388 . S
C692 C693 1.366 . S
C693 C692 1.366 . S
C693 C694 1.414 . S
C693 C696 1.499 . S
C694 H674 0.950 . S
C694 C693 1.414 . S
C694 C695 1.374 . S
C695 H675 0.950 . S
C695 C691 1.385 . S
C695 C694 1.374 . S
C696 C693 1.499 . S
C696 C697 1.373 . S
C696 C698 1.389 . S
C697 H676 0.950 . S
C697 C696 1.373 . S
C697 C713 1.377 . S
C698 C696 1.389 . S
C698 C699 1.524 . S
C698 C712 1.377 . S
C699 C698 1.524 . S
C699 C700 1.397 . S
C699 C704 1.363 . S
C700 H677 0.950 . S
C700 C699 1.397 . S
C700 C701 1.334 . S
C701 H678 0.950 1_556 S
C701 C700 1.334 . S
C701 C702 1.287 . S
C702 C701 1.287 . S
C702 C703 1.524 . S
C702 H721 0.913 1_556 S
C703 H679 0.950 . S
C703 C702 1.524 . S
C703 C704 1.415 . S
C704 H680 0.950 . S
C704 C699 1.363 . S
C704 C703 1.415 . S
C705 H681 0.951 . S
C705 C706 1.366 . S
C705 C707 1.388 . S
C706 C705 1.366 . S
C706 C710 1.385 . S
C707 H682 0.951 . S
C707 C705 1.388 . S
C707 C708 1.366 . S
C708 C707 1.366 . S
C708 C709 1.414 . S
C708 C711 1.499 . S
C709 H683 0.950 . S
C709 C708 1.414 . S
C709 C710 1.374 . S
C710 H684 0.950 . S
C710 C706 1.385 . S
C710 C709 1.374 . S
C711 C708 1.499 . S
C711 C712 1.373 . S
C711 C713 1.389 . S
C712 H685 0.950 . S
C712 C698 1.377 . S
C712 C711 1.373 . S
C713 C697 1.377 . S
C713 C711 1.389 . S
C713 C714 1.524 . S
C714 C713 1.524 . S
C714 C715 1.397 . S
C714 C719 1.363 . S
C715 H686 0.950 . S
C715 C714 1.397 . S
C715 C716 1.334 . S
C716 H687 0.950 . S
C716 C715 1.334 . S
C716 C717 1.287 . S
C717 C716 1.287 . S
C717 C718 1.524 . S
C717 H720 0.999 . S
C718 H688 0.950 . S
C718 C717 1.524 . S
C718 C719 1.415 . S
C719 H689 0.950 . S
C719 C714 1.363 . S
C719 C718 1.415 . S
H720 C717 0.999 . S
H721 C702 0.913 1_554 S
C141 C11 1.901 . S
C156 C99 1.828 . S
C191 C51 1.126 . S
C206 C105 1.055 . S
C241 C7 0.751 . S
C256 C96 0.750 . S
C291 C47 1.255 . S
C306 C121 1.151 . S
C341 C10 2.106 . S
C356 C87 1.986 . S
C406 C104 2.298 . S
C391 C50 2.385 . S
C441 C56 1.162 . S
C456 C100 1.085 . S
C506 C117 1.786 . S
C491 C19 1.868 . S
C556 C84 2.137 . S
C541 C59 2.246 . S
C606 C120 2.000 . S
C591 C2 2.066 . S
C656 C83 1.259 . S
C641 C42 1.331 . S
C706 C108 0.751 . S
C691 C16 0.753 . S
