# Generated by pormake.
# Topology ocu, (6,8)-cn, num edge types: 1
# Building blocks:
#     Node 0, Type 0, BuildingBlock: BETDEL_clean_sbu_0, # of connection points: 6
#     Node 1, Type 0, BuildingBlock: BETDEL_clean_sbu_0, # of connection points: 6
#     Node 2, Type 0, BuildingBlock: BETDEL_clean_sbu_0, # of connection points: 6
#     Node 3, Type 0, BuildingBlock: BETDEL_clean_sbu_0, # of connection points: 6
#     Node 4, Type 0, BuildingBlock: BETDEL_clean_sbu_0, # of connection points: 6
#     Node 5, Type 0, BuildingBlock: BETDEL_clean_sbu_0, # of connection points: 6
#     Node 6, Type 0, BuildingBlock: BETDEL_clean_sbu_0, # of connection points: 6
#     Node 7, Type 0, BuildingBlock: BETDEL_clean_sbu_0, # of connection points: 6
#     Node 8, Type 1, BuildingBlock: VETTIZ_charged_sbu_0, # of connection points: 8
#     Node 9, Type 1, BuildingBlock: VETTIZ_charged_sbu_0, # of connection points: 8
#     Node 10, Type 1, BuildingBlock: VETTIZ_charged_sbu_0, # of connection points: 8
#     Node 11, Type 1, BuildingBlock: VETTIZ_charged_sbu_0, # of connection points: 8
#     Node 12, Type 1, BuildingBlock: VETTIZ_charged_sbu_0, # of connection points: 8
#     Node 13, Type 1, BuildingBlock: VETTIZ_charged_sbu_0, # of connection points: 8
#     Edge 14, Type (0, 1), None
#     Edge 15, Type (0, 1), None
#     Edge 16, Type (0, 1), None
#     Edge 17, Type (0, 1), None
#     Edge 18, Type (0, 1), None
#     Edge 19, Type (0, 1), None
#     Edge 20, Type (0, 1), None
#     Edge 21, Type (0, 1), None
#     Edge 22, Type (0, 1), None
#     Edge 23, Type (0, 1), None
#     Edge 24, Type (0, 1), None
#     Edge 25, Type (0, 1), None
#     Edge 26, Type (0, 1), None
#     Edge 27, Type (0, 1), None
#     Edge 28, Type (0, 1), None
#     Edge 29, Type (0, 1), None
#     Edge 30, Type (0, 1), None
#     Edge 31, Type (0, 1), None
#     Edge 32, Type (0, 1), None
#     Edge 33, Type (0, 1), None
#     Edge 34, Type (0, 1), None
#     Edge 35, Type (0, 1), None
#     Edge 36, Type (0, 1), None
#     Edge 37, Type (0, 1), None
#     Edge 38, Type (0, 1), None
#     Edge 39, Type (0, 1), None
#     Edge 40, Type (0, 1), None
#     Edge 41, Type (0, 1), None
#     Edge 42, Type (0, 1), None
#     Edge 43, Type (0, 1), None
#     Edge 44, Type (0, 1), None
#     Edge 45, Type (0, 1), None
#     Edge 46, Type (0, 1), None
#     Edge 47, Type (0, 1), None
#     Edge 48, Type (0, 1), None
#     Edge 49, Type (0, 1), None
#     Edge 50, Type (0, 1), None
#     Edge 51, Type (0, 1), None
#     Edge 52, Type (0, 1), None
#     Edge 53, Type (0, 1), None
#     Edge 54, Type (0, 1), None
#     Edge 55, Type (0, 1), None
#     Edge 56, Type (0, 1), None
#     Edge 57, Type (0, 1), None
#     Edge 58, Type (0, 1), None
#     Edge 59, Type (0, 1), None
#     Edge 60, Type (0, 1), None
#     Edge 61, Type (0, 1), None
# Relax obj value: 0.114
# Max RMSD: 0.230
# Mean RMSD: 0.139
data_MOF--net-ocu--node1-BETDEL_clean_sbu_0--node2-VETTIZ_charged_sbu_0--edge1-none
_symmetry_space_group_name_H-M    P1
_symmetry_Int_Tables_number       1
_symmetry_cell_setting            triclinic
loop_
_symmetry_equiv_pos_as_xyz
'x, y, z'
_cell_length_a     18.011653
_cell_length_b     18.857702
_cell_length_c     19.084559
_cell_angle_alpha  90.494722
_cell_angle_beta   91.865251
_cell_angle_gamma 100.05404
loop_
_atom_site_label
_atom_site_type_symbol
_atom_site_fract_x
_atom_site_fract_y
_atom_site_fract_z
_atom_type_partial_charge
Dy0 Dy 0.34741 0.26461 0.30385 0.0
C1 C 0.18654 0.33638 0.11408 0.0
C2 C 0.41164 0.16035 0.3607 0.0
Dy3 Dy 0.21873 0.24278 0.20324 0.0
O4 O 0.43313 0.22908 0.37744 0.0
O5 O 0.35312 0.14972 0.31872 0.0
O6 O 0.41305 0.36688 0.26512 0.0
O7 O 0.34134 0.2916 0.19636 0.0
C8 C 0.38403 0.3539 0.20134 0.0
C9 C 0.17345 0.17973 0.32961 0.0
O10 O 0.27758 0.16324 0.14225 0.0
O11 O 0.38594 0.20045 0.20986 0.0
O12 O 0.15263 0.26837 0.10977 0.0
O13 O 0.23334 0.35146 0.16683 0.0
O14 O 0.12951 0.17408 0.27282 0.0
O15 O 0.23577 0.21351 0.31059 0.0
O16 O 0.26444 0.33944 0.3486 0.0
O17 O 0.17425 0.33258 0.25898 0.0
C18 C 0.3507 0.1617 0.15498 0.0
C19 C 0.2029 0.36274 0.31852 0.0
Dy20 Dy 0.86681 0.22858 0.25204 0.0
C21 C 0.6962 0.41145 0.14552 0.0
C22 C 0.92122 0.17674 0.36875 0.0
Dy23 Dy 0.75976 0.32852 0.2321 0.0
O24 O 0.93257 0.15354 0.3054 0.0
O25 O 0.88603 0.23025 0.36644 0.0
O26 O 0.83477 0.16187 0.15384 0.0
O27 O 0.75491 0.21384 0.2049 0.0
C28 C 0.76744 0.17928 0.15 0.0
C29 C 0.86966 0.3701 0.33183 0.0
O30 O 0.6835 0.26734 0.30654 0.0
O31 O 0.76724 0.18792 0.31712 0.0
O32 O 0.76205 0.43046 0.17584 0.0
O33 O 0.65955 0.35226 0.17082 0.0
O34 O 0.80261 0.38683 0.3344 0.0
O35 O 0.87611 0.34123 0.27316 0.0
O36 O 0.92966 0.30881 0.17773 0.0
O37 O 0.81471 0.32213 0.13196 0.0
C38 C 0.70478 0.21045 0.33465 0.0
C39 C 0.88774 0.33425 0.12859 0.0
Dy40 Dy 0.74452 0.76325 0.29218 0.0
C41 C 0.89658 0.65505 0.11651 0.0
C42 C 0.66169 0.81635 0.38504 0.0
Dy43 Dy 0.86248 0.77099 0.17849 0.0
O44 O 0.63596 0.76271 0.34321 0.0
O45 O 0.73361 0.83568 0.38029 0.0
O46 O 0.69098 0.6511 0.26205 0.0
O47 O 0.74414 0.72731 0.18913 0.0
C48 C 0.711 0.6637 0.19762 0.0
C49 C 0.90671 0.84378 0.30019 0.0
O50 O 0.78115 0.8362 0.11699 0.0
O51 O 0.69431 0.83416 0.20589 0.0
O52 O 0.92198 0.72117 0.09469 0.0
O53 O 0.85133 0.65375 0.16749 0.0
O54 O 0.95549 0.82758 0.25639 0.0
O55 O 0.8437 0.83432 0.26845 0.0
O56 O 0.83239 0.69984 0.34366 0.0
O57 O 0.91373 0.69731 0.25283 0.0
C58 C 0.71618 0.85443 0.14043 0.0
C59 C 0.89265 0.67724 0.31602 0.0
Dy60 Dy 0.33912 0.71887 0.24912 0.0
C61 C 0.19311 0.94943 0.31663 0.0
C62 C 0.39597 0.62017 0.1739 0.0
Dy63 Dy 0.24403 0.84121 0.25073 0.0
O64 O 0.43712 0.67625 0.20436 0.0
O65 O 0.32665 0.6132 0.19274 0.0
O66 O 0.39542 0.76146 0.3535 0.0
O67 O 0.35547 0.82974 0.2836 0.0
C68 C 0.38055 0.82667 0.34551 0.0
C69 C 0.19652 0.73867 0.156 0.0
O70 O 0.33189 0.89017 0.17485 0.0
O71 O 0.37728 0.78412 0.15494 0.0
O72 O 0.15018 0.89825 0.28073 0.0
O73 O 0.26331 0.94408 0.31104 0.0
O74 O 0.18321 0.80424 0.14824 0.0
O75 O 0.22586 0.7315 0.21592 0.0
O76 O 0.25841 0.66485 0.32571 0.0
O77 O 0.20489 0.76778 0.34252 0.0
C78 C 0.37633 0.85254 0.14151 0.0
C79 C 0.21223 0.70028 0.35866 0.0
Dy80 Dy 0.32549 0.70898 0.76225 0.0
C81 C 0.16434 0.85931 0.62464 0.0
C82 C 0.38779 0.62557 0.84887 0.0
Dy83 Dy 0.21871 0.8088 0.74206 0.0
O84 O 0.32278 0.60635 0.81706 0.0
O85 O 0.42465 0.68537 0.82497 0.0
O86 O 0.28352 0.65073 0.65995 0.0
O87 O 0.2093 0.6962 0.72087 0.0
C88 C 0.21637 0.66719 0.66237 0.0
C89 C 0.31799 0.85781 0.84456 0.0
O90 O 0.15521 0.72865 0.81604 0.0
O91 O 0.26986 0.71484 0.86212 0.0
O92 O 0.15205 0.88251 0.68778 0.0
O93 O 0.20105 0.8069 0.62753 0.0
O94 O 0.25068 0.8753 0.84061 0.0
O95 O 0.33047 0.82364 0.78943 0.0
O96 O 0.40184 0.76956 0.68768 0.0
O97 O 0.31854 0.84944 0.67727 0.0
C98 C 0.1968 0.70297 0.86526 0.0
C99 C 0.38075 0.82651 0.65956 0.0
Dy100 Dy 0.22161 0.26568 0.81619 0.0
C101 C 0.42218 0.2191 0.609 0.0
C102 C 0.18715 0.38137 0.87876 0.0
Dy103 Dy 0.33985 0.2723 0.70237 0.0
O104 O 0.16227 0.31515 0.90056 0.0
O105 O 0.23186 0.38287 0.82736 0.0
O106 O 0.12829 0.20933 0.7384 0.0
O107 O 0.23996 0.20192 0.72609 0.0
C108 C 0.17682 0.19285 0.69447 0.0
C109 C 0.37214 0.37285 0.79613 0.0
O110 O 0.25251 0.33607 0.65072 0.0
O111 O 0.1721 0.34053 0.742 0.0
O112 O 0.44811 0.27277 0.65077 0.0
O113 O 0.35034 0.19952 0.61435 0.0
O114 O 0.3928 0.38498 0.73181 0.0
O115 O 0.3397 0.30911 0.80484 0.0
O116 O 0.30338 0.20093 0.87805 0.0
O117 O 0.39011 0.20197 0.78918 0.0
C118 C 0.19302 0.35985 0.67861 0.0
C119 C 0.3683 0.18234 0.85482 0.0
Dy120 Dy 0.84021 0.19699 0.74367 0.0
C121 C 0.68667 0.41757 0.81909 0.0
C122 C 0.89005 0.08838 0.67758 0.0
Dy123 Dy 0.74483 0.31894 0.7449 0.0
O124 O 0.93338 0.13901 0.71387 0.0
O125 O 0.82003 0.09452 0.6828 0.0
O126 O 0.90097 0.23405 0.84608 0.0
O127 O 0.85817 0.30692 0.77849 0.0
C128 C 0.88756 0.2996 0.83837 0.0
C129 C 0.70431 0.21119 0.64835 0.0
O130 O 0.82637 0.37306 0.66875 0.0
O131 O 0.88019 0.2703 0.6521 0.0
O132 O 0.64594 0.36191 0.78757 0.0
O133 O 0.75653 0.42408 0.80203 0.0
O134 O 0.68967 0.27643 0.64001 0.0
O135 O 0.7288 0.2083 0.71049 0.0
O136 O 0.7529 0.14766 0.81969 0.0
O137 O 0.706 0.25306 0.83878 0.0
C138 C 0.87291 0.3378 0.636 0.0
C139 C 0.70783 0.18483 0.85266 0.0
Dy140 Dy 0.86997 0.79695 0.79371 0.0
C141 C 0.67698 0.87844 0.63626 0.0
C142 C 0.89604 0.70396 0.88495 0.0
Dy143 Dy 0.74474 0.77629 0.69303 0.0
O144 O 0.93491 0.77063 0.88699 0.0
O145 O 0.84573 0.69048 0.83457 0.0
O146 O 0.95806 0.83693 0.71127 0.0
O147 O 0.84806 0.85134 0.69594 0.0
C148 C 0.90938 0.8535 0.66466 0.0
C149 C 0.69211 0.68782 0.79303 0.0
O150 O 0.82622 0.70081 0.64832 0.0
O151 O 0.91713 0.7089 0.73735 0.0
O152 O 0.6672 0.81191 0.61092 0.0
O153 O 0.72505 0.88827 0.68829 0.0
O154 O 0.65481 0.68949 0.73315 0.0
O155 O 0.757 0.72859 0.79128 0.0
O156 O 0.81001 0.87377 0.856 0.0
O157 O 0.70253 0.83537 0.78773 0.0
C158 C 0.88769 0.6777 0.67834 0.0
C159 C 0.73648 0.87263 0.84357 0.0
Fe160 Fe 1.03609 0.09579 0.51448 0.0
O161 O 0.97496 1.01049 0.46407 0.0
Fe162 Fe 0.21693 0.05786 0.51671 0.0
Fe163 Fe 0.86603 0.97885 0.47814 0.0
O164 O 0.10909 0.03114 0.53182 0.0
O165 O 0.108 0.0244 0.53178 0.0
O166 O 0.97398 1.00406 0.46382 0.0
Fe167 Fe 0.04722 0.93941 0.48013 0.0
C168 C 0.91436 0.05637 0.61513 0.0
O169 O 0.95127 0.15061 0.48508 0.0
O170 O 0.86766 0.06872 0.41839 0.0
O171 O 0.09852 0.97406 0.38895 0.0
O172 O 0.21766 0.99526 0.42921 0.0
O173 O 0.20865 0.14347 0.44713 0.0
O174 O 0.08645 0.12981 0.41888 0.0
O175 O 0.87227 0.91334 0.3921 0.0
O176 O 0.9781 0.86294 0.41247 0.0
C177 C 0.15522 0.14951 0.40257 0.0
O178 O 0.13283 0.88512 0.50859 0.0
O179 O 0.21684 0.96727 0.5749 0.0
O180 O 0.98459 0.06278 0.60591 0.0
O181 O 0.86568 0.04278 0.56486 0.0
C182 C 0.91133 0.13067 0.42837 0.0
C183 C 0.92038 0.87412 0.37311 0.0
C184 C 0.92708 0.885 0.59208 0.0
O185 O 0.87309 0.89488 0.54967 0.0
O186 O 0.99593 0.90228 0.57454 0.0
C187 C 0.16872 0.98106 0.37929 0.0
O188 O 0.21078 0.12205 0.60342 0.0
O189 O 0.10575 0.17306 0.58156 0.0
C190 C 0.17359 0.9051 0.56487 0.0
C191 C 0.16286 0.16169 0.62175 0.0
Fe192 Fe 0.53055 0.85427 0.96545 0.0
O193 O 0.54435 0.95839 0.96121 0.0
Fe194 Fe 0.44761 1.01545 0.9951 0.0
Fe195 Fe 0.63775 0.0211 0.0001 0.0
O196 O 0.53007 0.9625 0.95542 0.0
O197 O 0.54109 0.07826 0.0335 0.0
O198 O 0.55519 0.07419 0.03922 0.0
Fe199 Fe 0.55445 0.18231 0.02964 0.0
C200 C 0.66087 0.8886 0.08848 0.0
O201 O 0.61499 0.86666 0.89144 0.0
O202 O 0.70638 0.95551 0.94078 0.0
O203 O 0.46235 0.18833 0.95479 0.0
O204 O 0.43162 0.08109 0.90428 0.0
O205 O 0.3663 0.93524 0.94313 0.0
O206 O 0.43816 0.85605 0.89622 0.0
O207 O 0.64177 0.08333 0.91155 0.0
O208 O 0.63272 0.19353 0.95087 0.0
C209 C 0.37739 0.88475 0.89872 0.0
O210 O 0.47099 0.16927 0.10454 0.0
O211 O 0.37936 0.08034 0.05571 0.0
O212 O 0.62198 0.84825 0.04082 0.0
O213 O 0.65288 0.9556 0.0911 0.0
C214 C 0.68413 0.90147 0.89551 0.0
C215 C 0.65871 0.15162 0.90865 0.0
C216 C 0.70801 0.152 0.09606 0.0
O217 O 0.71901 0.10111 0.05213 0.0
O218 O 0.6473 0.18077 0.09834 0.0
C219 C 0.42348 0.14807 0.90701 0.0
O220 O 0.44462 0.95347 0.08355 0.0
O221 O 0.45146 0.84322 0.04349 0.0
C222 C 0.40215 0.13373 0.10158 0.0
C223 C 0.42599 0.88536 0.08581 0.0
Fe224 Fe 1.04105 0.59981 0.007 0.0
O225 O 0.98013 0.51499 0.95541 0.0
Fe226 Fe 0.21382 0.54967 0.0325 0.0
Fe227 Fe 0.87008 0.48815 0.96215 0.0
O228 O 0.10491 0.53022 0.03845 0.0
O229 O 0.10382 0.52334 0.03896 0.0
O230 O 0.9791 0.50796 0.95578 0.0
Fe231 Fe 0.04276 0.43831 0.9879 0.0
C232 C 0.91227 0.58876 0.08812 0.0
O233 O 0.96827 0.66177 0.96939 0.0
O234 O 0.87807 0.58133 0.90551 0.0
O235 O 0.10489 0.45971 0.903 0.0
O236 O 0.21898 0.47794 0.95324 0.0
O237 O 0.21484 0.63448 0.96394 0.0
O238 O 0.0984 0.62649 0.91903 0.0
O239 O 0.87819 0.41409 0.88368 0.0
O240 O 0.97092 0.35661 0.92979 0.0
C241 C 0.16725 0.65375 0.92013 0.0
O242 O 0.11543 0.37644 0.02687 0.0
O243 O 0.20497 0.45784 0.09054 0.0
O244 O 0.97914 0.57722 0.09192 0.0
O245 O 0.86467 0.5585 0.0424 0.0
C246 C 0.91396 0.6456 0.92365 0.0
C247 C 0.91408 0.36031 0.88692 0.0
C248 C 0.91691 0.38391 0.07395 0.0
O249 O 0.86933 0.40237 0.02964 0.0
O250 O 0.98526 0.41274 0.07589 0.0
C251 C 0.17152 0.44762 0.90743 0.0
O252 O 0.20618 0.6245 0.11034 0.0
O253 O 0.11263 0.6814 0.06523 0.0
C254 C 0.1688 0.39346 0.07354 0.0
C255 C 0.16995 0.67799 0.10752 0.0
Fe256 Fe 0.53452 0.52591 0.91631 0.0
O257 O 0.60446 0.56865 0.99354 0.0
Fe258 Fe 0.36811 0.4592 0.00377 0.0
Fe259 Fe 0.71336 0.5777 0.98964 0.0
O260 O 0.47876 0.46648 0.99253 0.0
O261 O 0.4771 0.46779 2e-05 0.0
O262 O 0.60293 0.56974 0.00079 0.0
Fe263 Fe 0.54628 0.5117 0.07736 0.0
C264 C 0.66186 0.46026 0.87512 0.0
O265 O 0.60188 0.59503 0.84536 0.0
O266 O 0.70336 0.65349 0.91261 0.0
O267 O 0.48669 0.59163 0.09664 0.0
O268 O 0.37072 0.52806 0.08893 0.0
O269 O 0.36065 0.53907 0.93314 0.0
O270 O 0.47496 0.60435 0.9342 0.0
O271 O 0.71222 0.63894 0.07862 0.0
O272 O 0.62795 0.56538 0.14821 0.0
C273 C 0.40736 0.59241 0.91266 0.0
O274 O 0.47676 0.44436 0.14863 0.0
O275 O 0.37783 0.38313 0.08017 0.0
O276 O 0.59424 0.44664 0.8942 0.0
O277 O 0.7108 0.50895 0.90463 0.0
C278 C 0.66339 0.64329 0.85423 0.0
C279 C 0.68259 0.61887 0.13817 0.0
C280 C 0.67441 0.44519 0.08274 0.0
O281 O 0.72087 0.49801 0.06064 0.0
O282 O 0.6062 0.43274 0.06261 0.0
C283 C 0.41964 0.57766 0.11713 0.0
O284 O 0.3693 0.3982 0.91482 0.0
O285 O 0.45243 0.47304 0.8454 0.0
C286 C 0.41575 0.39537 0.13942 0.0
C287 C 0.3989 0.41857 0.85536 0.0
Fe288 Fe 0.05741 0.35626 0.48769 0.0
O289 O 0.0771 0.46224 0.50148 0.0
Fe290 Fe 0.04757 0.52328 0.41196 0.0
Fe291 Fe 1.03924 0.51484 0.58296 0.0
O292 O 0.08078 0.46406 0.49141 0.0
O293 O 1.00862 0.57529 0.49322 0.0
O294 O 1.00514 0.57357 0.50349 0.0
Fe295 Fe 1.02832 0.68134 0.50704 0.0
C296 C 0.92715 0.37669 0.58653 0.0
O297 O 0.13106 0.3598 0.57093 0.0
O298 O 0.09612 0.44088 0.64979 0.0
O299 O 0.11381 0.6975 0.43683 0.0
O300 O 0.15009 0.59327 0.41299 0.0
O301 O 0.10759 0.45003 0.34402 0.0
O302 O 0.14285 0.3684 0.4216 0.0
O303 O 0.14288 0.57983 0.5883 0.0
O304 O 0.10651 0.68535 0.59309 0.0
C305 C 0.15057 0.40083 0.3635 0.0
O306 O 0.95415 0.67745 0.42409 0.0
O307 O 0.99082 0.59746 0.34508 0.0
O308 O 0.97116 0.34051 0.55739 0.0
O309 O 0.93654 0.44516 0.58338 0.0
C310 C 0.13775 0.39178 0.63095 0.0
C311 C 0.1531 0.64391 0.61033 0.0
C312 C 0.93839 0.63835 0.63289 0.0
O313 O 0.98132 0.58898 0.65184 0.0
O314 O 0.94379 0.66906 0.57383 0.0
C315 C 0.15853 0.66159 0.40859 0.0
O316 O 0.94395 0.45807 0.40499 0.0
O317 O 0.97984 0.35228 0.40108 0.0
C318 C 0.94825 0.64583 0.36387 0.0
C319 C 0.93354 0.39382 0.38334 0.0
Fe320 Fe 0.52889 0.93401 0.50162 0.0
O321 O 0.50002 1.01717 0.55319 0.0
Fe322 Fe 0.56657 1.00577 0.33795 0.0
Fe323 Fe 0.51944 0.03112 0.65604 0.0
O324 O 0.57746 1.01062 0.43853 0.0
O325 O 0.58651 0.01941 0.44097 0.0
O326 O 0.50887 0.02567 0.55557 0.0
Fe327 Fe 0.55629 0.1022 0.49201 0.0
C328 C 0.43489 0.88095 0.62797 0.0
O329 O 0.62812 0.94945 0.55514 0.0
O330 O 0.59195 0.95603 0.66425 0.0
O331 O 0.60849 0.1716 0.41562 0.0
O332 O 0.65091 0.09199 0.34054 0.0
O333 O 0.63004 0.92591 0.35446 0.0
O334 O 0.56938 0.85906 0.44409 0.0
O335 O 0.60668 0.11547 0.65765 0.0
O336 O 0.65556 0.12984 0.55197 0.0
C337 C 0.61781 0.87053 0.39567 0.0
O338 O 0.45704 0.08392 0.43828 0.0
O339 O 0.4951 0.082 0.3298 0.0
O340 O 0.47614 0.86476 0.5777 0.0
O341 O 0.43555 0.94456 0.65386 0.0
C342 C 0.63174 0.93237 0.61812 0.0
C343 C 0.65528 0.14715 0.61693 0.0
C344 C 0.46624 0.16516 0.59778 0.0
O345 O 0.45493 0.11004 0.63934 0.0
O346 O 0.51418 0.17673 0.54892 0.0
C347 C 0.6508 0.15564 0.36609 0.0
O348 O 0.47865 0.92198 0.33612 0.0
O349 O 0.42944 0.90832 0.44168 0.0
C350 C 0.45401 0.10342 0.37606 0.0
C351 C 0.42972 0.89074 0.37678 0.0
loop_
_geom_bond_atom_site_label_1
_geom_bond_atom_site_label_2
_geom_bond_distance
_geom_bond_site_symmetry_2
_ccdc_geom_bond_type
Dy0 O4 2.398 . S
Dy0 O5 2.491 . S
Dy0 O6 2.403 . S
Dy0 O7 2.664 . S
Dy0 O11 2.326 . S
Dy0 O15 2.310 . S
Dy0 O16 2.351 . S
C1 O12 1.185 . S
C1 O13 1.355 . S
C2 O4 1.185 . S
C2 O5 1.355 . S
Dy3 O7 2.310 . S
Dy3 O10 2.351 . S
Dy3 O12 2.398 . S
Dy3 O13 2.491 . S
Dy3 O14 2.403 . S
Dy3 O15 2.664 . S
Dy3 O17 2.326 . S
O4 Dy0 2.398 . S
O4 C2 1.185 . S
O5 Dy0 2.491 . S
O5 C2 1.355 . S
O6 Dy0 2.403 . S
O6 C8 1.254 . S
O7 Dy0 2.664 . S
O7 Dy3 2.310 . S
O7 C8 1.268 . S
C8 O6 1.254 . S
C8 O7 1.268 . S
C9 O14 1.254 . S
C9 O15 1.268 . S
O10 Dy3 2.351 . S
O10 C18 1.249 . S
O11 Dy0 2.326 . S
O11 C18 1.267 . S
O12 C1 1.185 . S
O12 Dy3 2.398 . S
O13 C1 1.355 . S
O13 Dy3 2.491 . S
O14 Dy3 2.403 . S
O14 C9 1.254 . S
O15 Dy0 2.310 . S
O15 Dy3 2.664 . S
O15 C9 1.268 . S
O16 Dy0 2.351 . S
O16 C19 1.249 . S
O17 Dy3 2.326 . S
O17 C19 1.267 . S
C18 O10 1.249 . S
C18 O11 1.267 . S
C19 O16 1.249 . S
C19 O17 1.267 . S
Dy20 O24 2.398 . S
Dy20 O25 2.491 . S
Dy20 O26 2.403 . S
Dy20 O27 2.664 . S
Dy20 O31 2.326 . S
Dy20 O35 2.310 . S
Dy20 O36 2.351 . S
C21 O32 1.185 . S
C21 O33 1.355 . S
C22 O24 1.185 . S
C22 O25 1.355 . S
Dy23 O27 2.310 . S
Dy23 O30 2.351 . S
Dy23 O32 2.398 . S
Dy23 O33 2.491 . S
Dy23 O34 2.403 . S
Dy23 O35 2.664 . S
Dy23 O37 2.326 . S
O24 Dy20 2.398 . S
O24 C22 1.185 . S
O25 Dy20 2.491 . S
O25 C22 1.355 . S
O26 Dy20 2.403 . S
O26 C28 1.254 . S
O27 Dy20 2.664 . S
O27 Dy23 2.310 . S
O27 C28 1.268 . S
C28 O26 1.254 . S
C28 O27 1.268 . S
C29 O34 1.254 . S
C29 O35 1.268 . S
O30 Dy23 2.351 . S
O30 C38 1.249 . S
O31 Dy20 2.326 . S
O31 C38 1.267 . S
O32 C21 1.185 . S
O32 Dy23 2.398 . S
O33 C21 1.355 . S
O33 Dy23 2.491 . S
O34 Dy23 2.403 . S
O34 C29 1.254 . S
O35 Dy20 2.310 . S
O35 Dy23 2.664 . S
O35 C29 1.268 . S
O36 Dy20 2.351 . S
O36 C39 1.249 . S
O37 Dy23 2.326 . S
O37 C39 1.267 . S
C38 O30 1.249 . S
C38 O31 1.267 . S
C39 O36 1.249 . S
C39 O37 1.267 . S
Dy40 O44 2.398 . S
Dy40 O45 2.491 . S
Dy40 O46 2.403 . S
Dy40 O47 2.664 . S
Dy40 O51 2.326 . S
Dy40 O55 2.310 . S
Dy40 O56 2.351 . S
C41 O52 1.185 . S
C41 O53 1.355 . S
C42 O44 1.185 . S
C42 O45 1.355 . S
Dy43 O47 2.310 . S
Dy43 O50 2.351 . S
Dy43 O52 2.398 . S
Dy43 O53 2.491 . S
Dy43 O54 2.403 . S
Dy43 O55 2.664 . S
Dy43 O57 2.326 . S
O44 Dy40 2.398 . S
O44 C42 1.185 . S
O45 Dy40 2.491 . S
O45 C42 1.355 . S
O46 Dy40 2.403 . S
O46 C48 1.254 . S
O47 Dy40 2.664 . S
O47 Dy43 2.310 . S
O47 C48 1.268 . S
C48 O46 1.254 . S
C48 O47 1.268 . S
C49 O54 1.254 . S
C49 O55 1.268 . S
O50 Dy43 2.351 . S
O50 C58 1.249 . S
O51 Dy40 2.326 . S
O51 C58 1.267 . S
O52 C41 1.185 . S
O52 Dy43 2.398 . S
O53 C41 1.355 . S
O53 Dy43 2.491 . S
O54 Dy43 2.403 . S
O54 C49 1.254 . S
O55 Dy40 2.310 . S
O55 Dy43 2.664 . S
O55 C49 1.268 . S
O56 Dy40 2.351 . S
O56 C59 1.249 . S
O57 Dy43 2.326 . S
O57 C59 1.267 . S
C58 O50 1.249 . S
C58 O51 1.267 . S
C59 O56 1.249 . S
C59 O57 1.267 . S
Dy60 O64 2.398 . S
Dy60 O65 2.491 . S
Dy60 O66 2.403 . S
Dy60 O67 2.664 . S
Dy60 O71 2.326 . S
Dy60 O75 2.310 . S
Dy60 O76 2.351 . S
C61 O72 1.185 . S
C61 O73 1.355 . S
C62 O64 1.185 . S
C62 O65 1.355 . S
Dy63 O67 2.310 . S
Dy63 O70 2.351 . S
Dy63 O72 2.398 . S
Dy63 O73 2.491 . S
Dy63 O74 2.403 . S
Dy63 O75 2.664 . S
Dy63 O77 2.326 . S
O64 Dy60 2.398 . S
O64 C62 1.185 . S
O65 Dy60 2.491 . S
O65 C62 1.355 . S
O66 Dy60 2.403 . S
O66 C68 1.254 . S
O67 Dy60 2.664 . S
O67 Dy63 2.310 . S
O67 C68 1.268 . S
C68 O66 1.254 . S
C68 O67 1.268 . S
C69 O74 1.254 . S
C69 O75 1.268 . S
O70 Dy63 2.351 . S
O70 C78 1.249 . S
O71 Dy60 2.326 . S
O71 C78 1.267 . S
O72 C61 1.185 . S
O72 Dy63 2.398 . S
O73 C61 1.355 . S
O73 Dy63 2.491 . S
O74 Dy63 2.403 . S
O74 C69 1.254 . S
O75 Dy60 2.310 . S
O75 Dy63 2.664 . S
O75 C69 1.268 . S
O76 Dy60 2.351 . S
O76 C79 1.249 . S
O77 Dy63 2.326 . S
O77 C79 1.267 . S
C78 O70 1.249 . S
C78 O71 1.267 . S
C79 O76 1.249 . S
C79 O77 1.267 . S
Dy80 O84 2.398 . S
Dy80 O85 2.491 . S
Dy80 O86 2.403 . S
Dy80 O87 2.664 . S
Dy80 O91 2.326 . S
Dy80 O95 2.310 . S
Dy80 O96 2.351 . S
C81 O92 1.185 . S
C81 O93 1.355 . S
C82 O84 1.185 . S
C82 O85 1.355 . S
Dy83 O87 2.310 . S
Dy83 O90 2.351 . S
Dy83 O92 2.398 . S
Dy83 O93 2.491 . S
Dy83 O94 2.403 . S
Dy83 O95 2.664 . S
Dy83 O97 2.326 . S
O84 Dy80 2.398 . S
O84 C82 1.185 . S
O85 Dy80 2.491 . S
O85 C82 1.355 . S
O86 Dy80 2.403 . S
O86 C88 1.254 . S
O87 Dy80 2.664 . S
O87 Dy83 2.310 . S
O87 C88 1.268 . S
C88 O86 1.254 . S
C88 O87 1.268 . S
C89 O94 1.254 . S
C89 O95 1.268 . S
O90 Dy83 2.351 . S
O90 C98 1.249 . S
O91 Dy80 2.326 . S
O91 C98 1.267 . S
O92 C81 1.185 . S
O92 Dy83 2.398 . S
O93 C81 1.355 . S
O93 Dy83 2.491 . S
O94 Dy83 2.403 . S
O94 C89 1.254 . S
O95 Dy80 2.310 . S
O95 Dy83 2.664 . S
O95 C89 1.268 . S
O96 Dy80 2.351 . S
O96 C99 1.249 . S
O97 Dy83 2.326 . S
O97 C99 1.267 . S
C98 O90 1.249 . S
C98 O91 1.267 . S
C99 O96 1.249 . S
C99 O97 1.267 . S
Dy100 O104 2.398 . S
Dy100 O105 2.491 . S
Dy100 O106 2.403 . S
Dy100 O107 2.664 . S
Dy100 O111 2.326 . S
Dy100 O115 2.310 . S
Dy100 O116 2.351 . S
C101 O112 1.185 . S
C101 O113 1.355 . S
C102 O104 1.185 . S
C102 O105 1.355 . S
Dy103 O107 2.310 . S
Dy103 O110 2.351 . S
Dy103 O112 2.398 . S
Dy103 O113 2.491 . S
Dy103 O114 2.403 . S
Dy103 O115 2.664 . S
Dy103 O117 2.326 . S
O104 Dy100 2.398 . S
O104 C102 1.185 . S
O105 Dy100 2.491 . S
O105 C102 1.355 . S
O106 Dy100 2.403 . S
O106 C108 1.254 . S
O107 Dy100 2.664 . S
O107 Dy103 2.310 . S
O107 C108 1.268 . S
C108 O106 1.254 . S
C108 O107 1.268 . S
C109 O114 1.254 . S
C109 O115 1.268 . S
O110 Dy103 2.351 . S
O110 C118 1.249 . S
O111 Dy100 2.326 . S
O111 C118 1.267 . S
O112 C101 1.185 . S
O112 Dy103 2.398 . S
O113 C101 1.355 . S
O113 Dy103 2.491 . S
O114 Dy103 2.403 . S
O114 C109 1.254 . S
O115 Dy100 2.310 . S
O115 Dy103 2.664 . S
O115 C109 1.268 . S
O116 Dy100 2.351 . S
O116 C119 1.249 . S
O117 Dy103 2.326 . S
O117 C119 1.267 . S
C118 O110 1.249 . S
C118 O111 1.267 . S
C119 O116 1.249 . S
C119 O117 1.267 . S
Dy120 O124 2.398 . S
Dy120 O125 2.491 . S
Dy120 O126 2.403 . S
Dy120 O127 2.664 . S
Dy120 O131 2.326 . S
Dy120 O135 2.310 . S
Dy120 O136 2.351 . S
C121 O132 1.185 . S
C121 O133 1.355 . S
C122 O124 1.185 . S
C122 O125 1.355 . S
Dy123 O127 2.310 . S
Dy123 O130 2.351 . S
Dy123 O132 2.398 . S
Dy123 O133 2.491 . S
Dy123 O134 2.403 . S
Dy123 O135 2.664 . S
Dy123 O137 2.326 . S
O124 Dy120 2.398 . S
O124 C122 1.185 . S
O125 Dy120 2.491 . S
O125 C122 1.355 . S
O126 Dy120 2.403 . S
O126 C128 1.254 . S
O127 Dy120 2.664 . S
O127 Dy123 2.310 . S
O127 C128 1.268 . S
C128 O126 1.254 . S
C128 O127 1.268 . S
C129 O134 1.254 . S
C129 O135 1.268 . S
O130 Dy123 2.351 . S
O130 C138 1.249 . S
O131 Dy120 2.326 . S
O131 C138 1.267 . S
O132 C121 1.185 . S
O132 Dy123 2.398 . S
O133 C121 1.355 . S
O133 Dy123 2.491 . S
O134 Dy123 2.403 . S
O134 C129 1.254 . S
O135 Dy120 2.310 . S
O135 Dy123 2.664 . S
O135 C129 1.268 . S
O136 Dy120 2.351 . S
O136 C139 1.249 . S
O137 Dy123 2.326 . S
O137 C139 1.267 . S
C138 O130 1.249 . S
C138 O131 1.267 . S
C139 O136 1.249 . S
C139 O137 1.267 . S
Dy140 O144 2.398 . S
Dy140 O145 2.491 . S
Dy140 O146 2.403 . S
Dy140 O147 2.664 . S
Dy140 O151 2.326 . S
Dy140 O155 2.310 . S
Dy140 O156 2.351 . S
C141 O152 1.185 . S
C141 O153 1.355 . S
C142 O144 1.185 . S
C142 O145 1.355 . S
Dy143 O147 2.310 . S
Dy143 O150 2.351 . S
Dy143 O152 2.398 . S
Dy143 O153 2.491 . S
Dy143 O154 2.403 . S
Dy143 O155 2.664 . S
Dy143 O157 2.326 . S
O144 Dy140 2.398 . S
O144 C142 1.185 . S
O145 Dy140 2.491 . S
O145 C142 1.355 . S
O146 Dy140 2.403 . S
O146 C148 1.254 . S
O147 Dy140 2.664 . S
O147 Dy143 2.310 . S
O147 C148 1.268 . S
C148 O146 1.254 . S
C148 O147 1.268 . S
C149 O154 1.254 . S
C149 O155 1.268 . S
O150 Dy143 2.351 . S
O150 C158 1.249 . S
O151 Dy140 2.326 . S
O151 C158 1.267 . S
O152 C141 1.185 . S
O152 Dy143 2.398 . S
O153 C141 1.355 . S
O153 Dy143 2.491 . S
O154 Dy143 2.403 . S
O154 C149 1.254 . S
O155 Dy140 2.310 . S
O155 Dy143 2.664 . S
O155 C149 1.268 . S
O156 Dy140 2.351 . S
O156 C159 1.249 . S
O157 Dy143 2.326 . S
O157 C159 1.267 . S
C158 O150 1.249 . S
C158 O151 1.267 . S
C159 O156 1.249 . S
C159 O157 1.267 . S
Fe160 O161 1.886 1_455 S
Fe160 O164 1.715 . S
Fe160 O169 2.077 1_455 S
Fe160 O174 1.935 . S
Fe160 O180 2.077 1_455 S
Fe160 O189 1.935 . S
O161 Fe160 1.886 1_655 S
O161 Fe163 1.715 1_545 S
Fe162 O164 1.886 . S
Fe162 O165 1.715 1_545 S
Fe162 O172 1.935 1_545 S
Fe162 O173 2.077 . S
Fe162 O179 1.935 1_545 S
Fe162 O188 2.077 . S
Fe163 O161 1.715 1_565 S
Fe163 O166 1.886 . S
Fe163 O170 1.935 1_565 S
Fe163 O175 2.077 . S
Fe163 O181 1.935 1_565 S
Fe163 O185 2.077 . S
O164 Fe160 1.715 . S
O164 Fe162 1.886 . S
O165 Fe162 1.715 1_565 S
O165 Fe167 1.886 1_455 S
O166 Fe163 1.886 . S
O166 Fe167 1.715 . S
Fe167 O165 1.886 1_655 S
Fe167 O166 1.715 . S
Fe167 O171 2.077 1_655 S
Fe167 O176 1.935 . S
Fe167 O178 2.077 1_655 S
Fe167 O186 1.935 . S
C168 O180 1.381 . S
C168 O181 1.421 . S
O169 Fe160 2.077 1_655 S
O169 C182 1.381 . S
O170 Fe163 1.935 1_545 S
O170 C182 1.421 . S
O171 Fe167 2.077 1_455 S
O171 C187 1.381 . S
O172 Fe162 1.935 1_565 S
O172 C187 1.421 . S
O173 Fe162 2.077 . S
O173 C177 1.381 . S
O174 Fe160 1.935 . S
O174 C177 1.421 . S
O175 Fe163 2.077 . S
O175 C183 1.381 . S
O176 Fe167 1.935 . S
O176 C183 1.421 . S
C177 O173 1.381 . S
C177 O174 1.421 . S
O178 Fe167 2.077 1_455 S
O178 C190 1.381 . S
O179 Fe162 1.935 1_565 S
O179 C190 1.421 . S
O180 Fe160 2.077 1_655 S
O180 C168 1.381 . S
O181 Fe163 1.935 1_545 S
O181 C168 1.421 . S
C182 O169 1.381 . S
C182 O170 1.421 . S
C183 O175 1.381 . S
C183 O176 1.421 . S
C184 O185 1.381 . S
C184 O186 1.421 . S
O185 Fe163 2.077 . S
O185 C184 1.381 . S
O186 Fe167 1.935 . S
O186 C184 1.421 . S
C187 O171 1.381 . S
C187 O172 1.421 . S
O188 Fe162 2.077 . S
O188 C191 1.381 . S
O189 Fe160 1.935 . S
O189 C191 1.421 . S
C190 O178 1.381 . S
C190 O179 1.421 . S
C191 O188 1.381 . S
C191 O189 1.421 . S
Fe192 O193 1.886 1_556 S
Fe192 O196 1.715 . S
Fe192 O201 2.077 . S
Fe192 O206 1.935 . S
Fe192 O212 2.077 1_556 S
Fe192 O221 1.935 1_556 S
O193 Fe192 1.886 1_554 S
O193 Fe195 1.715 1_565 S
Fe194 O196 1.886 . S
Fe194 O197 1.715 1_565 S
Fe194 O204 1.935 1_565 S
Fe194 O205 2.077 . S
Fe194 O211 1.935 1_566 S
Fe194 O220 2.077 1_556 S
Fe195 O193 1.715 1_545 S
Fe195 O198 1.886 . S
Fe195 O202 1.935 1_544 S
Fe195 O207 2.077 1_554 S
Fe195 O213 1.935 1_545 S
Fe195 O217 2.077 . S
O196 Fe192 1.715 . S
O196 Fe194 1.886 . S
O197 Fe194 1.715 1_545 S
O197 Fe199 1.886 1_556 S
O198 Fe195 1.886 . S
O198 Fe199 1.715 . S
Fe199 O197 1.886 1_554 S
Fe199 O198 1.715 . S
Fe199 O203 2.077 1_554 S
Fe199 O208 1.935 1_554 S
Fe199 O210 2.077 . S
Fe199 O218 1.935 . S
C200 O212 1.381 . S
C200 O213 1.421 . S
O201 Fe192 2.077 . S
O201 C214 1.381 . S
O202 Fe195 1.935 1_566 S
O202 C214 1.421 . S
O203 Fe199 2.077 1_556 S
O203 C219 1.381 . S
O204 Fe194 1.935 1_545 S
O204 C219 1.421 . S
O205 Fe194 2.077 . S
O205 C209 1.381 . S
O206 Fe192 1.935 . S
O206 C209 1.421 . S
O207 Fe195 2.077 1_556 S
O207 C215 1.381 . S
O208 Fe199 1.935 1_556 S
O208 C215 1.421 . S
C209 O205 1.381 . S
C209 O206 1.421 . S
O210 Fe199 2.077 . S
O210 C222 1.381 . S
O211 Fe194 1.935 1_544 S
O211 C222 1.421 . S
O212 Fe192 2.077 1_554 S
O212 C200 1.381 . S
O213 Fe195 1.935 1_565 S
O213 C200 1.421 . S
C214 O201 1.381 . S
C214 O202 1.421 . S
C215 O207 1.381 . S
C215 O208 1.421 . S
C216 O217 1.381 . S
C216 O218 1.421 . S
O217 Fe195 2.077 . S
O217 C216 1.381 . S
O218 Fe199 1.935 . S
O218 C216 1.421 . S
C219 O203 1.381 . S
C219 O204 1.421 . S
O220 Fe194 2.077 1_554 S
O220 C223 1.381 . S
O221 Fe192 1.935 1_554 S
O221 C223 1.421 . S
C222 O210 1.381 . S
C222 O211 1.421 . S
C223 O220 1.381 . S
C223 O221 1.421 . S
Fe224 O225 1.886 1_454 S
Fe224 O228 1.715 . S
Fe224 O233 2.077 1_454 S
Fe224 O238 1.935 1_554 S
Fe224 O244 2.077 1_455 S
Fe224 O253 1.935 . S
O225 Fe224 1.886 1_656 S
O225 Fe227 1.715 . S
Fe226 O228 1.886 . S
Fe226 O229 1.715 . S
Fe226 O236 1.935 1_554 S
Fe226 O237 2.077 1_554 S
Fe226 O243 1.935 . S
Fe226 O252 2.077 . S
Fe227 O225 1.715 . S
Fe227 O230 1.886 . S
Fe227 O234 1.935 . S
Fe227 O239 2.077 . S
Fe227 O245 1.935 1_556 S
Fe227 O249 2.077 1_556 S
O228 Fe224 1.715 . S
O228 Fe226 1.886 . S
O229 Fe226 1.715 . S
O229 Fe231 1.886 1_454 S
O230 Fe227 1.886 . S
O230 Fe231 1.715 . S
Fe231 O229 1.886 1_656 S
Fe231 O230 1.715 . S
Fe231 O235 2.077 1_655 S
Fe231 O240 1.935 . S
Fe231 O242 2.077 1_656 S
Fe231 O250 1.935 1_556 S
C232 O244 1.381 . S
C232 O245 1.421 . S
O233 Fe224 2.077 1_656 S
O233 C246 1.381 . S
O234 Fe227 1.935 . S
O234 C246 1.421 . S
O235 Fe231 2.077 1_455 S
O235 C251 1.381 . S
O236 Fe226 1.935 1_556 S
O236 C251 1.421 . S
O237 Fe226 2.077 1_556 S
O237 C241 1.381 . S
O238 Fe224 1.935 1_556 S
O238 C241 1.421 . S
O239 Fe227 2.077 . S
O239 C247 1.381 . S
O240 Fe231 1.935 . S
O240 C247 1.421 . S
C241 O237 1.381 . S
C241 O238 1.421 . S
O242 Fe231 2.077 1_454 S
O242 C254 1.381 . S
O243 Fe226 1.935 . S
O243 C254 1.421 . S
O244 Fe224 2.077 1_655 S
O244 C232 1.381 . S
O245 Fe227 1.935 1_554 S
O245 C232 1.421 . S
C246 O233 1.381 . S
C246 O234 1.421 . S
C247 O239 1.381 . S
C247 O240 1.421 . S
C248 O249 1.381 . S
C248 O250 1.421 . S
O249 Fe227 2.077 1_554 S
O249 C248 1.381 . S
O250 Fe231 1.935 1_554 S
O250 C248 1.421 . S
C251 O235 1.381 . S
C251 O236 1.421 . S
O252 Fe226 2.077 . S
O252 C255 1.381 . S
O253 Fe224 1.935 . S
O253 C255 1.421 . S
C254 O242 1.381 . S
C254 O243 1.421 . S
C255 O252 1.381 . S
C255 O253 1.421 . S
Fe256 O257 1.886 . S
Fe256 O260 1.715 . S
Fe256 O265 2.077 . S
Fe256 O270 1.935 . S
Fe256 O276 2.077 . S
Fe256 O285 1.935 . S
O257 Fe256 1.886 . S
O257 Fe259 1.715 1_556 S
Fe258 O260 1.886 . S
Fe258 O261 1.715 1_556 S
Fe258 O268 1.935 1_556 S
Fe258 O269 2.077 . S
Fe258 O275 1.935 1_556 S
Fe258 O284 2.077 . S
Fe259 O257 1.715 1_554 S
Fe259 O262 1.886 . S
Fe259 O266 1.935 1_554 S
Fe259 O271 2.077 . S
Fe259 O277 1.935 1_554 S
Fe259 O281 2.077 . S
O260 Fe256 1.715 . S
O260 Fe258 1.886 . S
O261 Fe258 1.715 1_554 S
O261 Fe263 1.886 . S
O262 Fe259 1.886 . S
O262 Fe263 1.715 . S
Fe263 O261 1.886 . S
Fe263 O262 1.715 . S
Fe263 O267 2.077 . S
Fe263 O272 1.935 . S
Fe263 O274 2.077 . S
Fe263 O282 1.935 . S
C264 O276 1.381 . S
C264 O277 1.421 . S
O265 Fe256 2.077 . S
O265 C278 1.381 . S
O266 Fe259 1.935 1_556 S
O266 C278 1.421 . S
O267 Fe263 2.077 . S
O267 C283 1.381 . S
O268 Fe258 1.935 1_554 S
O268 C283 1.421 . S
O269 Fe258 2.077 . S
O269 C273 1.381 . S
O270 Fe256 1.935 . S
O270 C273 1.421 . S
O271 Fe259 2.077 . S
O271 C279 1.381 . S
O272 Fe263 1.935 . S
O272 C279 1.421 . S
C273 O269 1.381 . S
C273 O270 1.421 . S
O274 Fe263 2.077 . S
O274 C286 1.381 . S
O275 Fe258 1.935 1_554 S
O275 C286 1.421 . S
O276 Fe256 2.077 . S
O276 C264 1.381 . S
O277 Fe259 1.935 1_556 S
O277 C264 1.421 . S
C278 O265 1.381 . S
C278 O266 1.421 . S
C279 O271 1.381 . S
C279 O272 1.421 . S
C280 O281 1.381 . S
C280 O282 1.421 . S
O281 Fe259 2.077 . S
O281 C280 1.381 . S
O282 Fe263 1.935 . S
O282 C280 1.421 . S
C283 O267 1.381 . S
C283 O268 1.421 . S
O284 Fe258 2.077 . S
O284 C287 1.381 . S
O285 Fe256 1.935 . S
O285 C287 1.421 . S
C286 O274 1.381 . S
C286 O275 1.421 . S
C287 O284 1.381 . S
C287 O285 1.421 . S
Fe288 O289 1.886 . S
Fe288 O292 1.715 . S
Fe288 O297 2.077 1_655 S
Fe288 O302 1.935 1_655 S
Fe288 O308 2.077 . S
Fe288 O317 1.935 . S
O289 Fe288 1.886 . S
O289 Fe291 1.715 1_655 S
Fe290 O292 1.886 . S
Fe290 O293 1.715 1_655 S
Fe290 O300 1.935 1_655 S
Fe290 O301 2.077 1_655 S
Fe290 O307 1.935 . S
Fe290 O316 2.077 . S
Fe291 O289 1.715 1_455 S
Fe291 O294 1.886 . S
Fe291 O298 1.935 . S
Fe291 O303 2.077 . S
Fe291 O309 1.935 1_455 S
Fe291 O313 2.077 1_455 S
O292 Fe288 1.715 . S
O292 Fe290 1.886 . S
O293 Fe290 1.715 1_455 S
O293 Fe295 1.886 . S
O294 Fe291 1.886 . S
O294 Fe295 1.715 . S
Fe295 O293 1.886 . S
Fe295 O294 1.715 . S
Fe295 O299 2.077 . S
Fe295 O304 1.935 . S
Fe295 O306 2.077 1_455 S
Fe295 O314 1.935 1_455 S
C296 O308 1.381 . S
C296 O309 1.421 . S
O297 Fe288 2.077 1_455 S
O297 C310 1.381 . S
O298 Fe291 1.935 . S
O298 C310 1.421 . S
O299 Fe295 2.077 . S
O299 C315 1.381 . S
O300 Fe290 1.935 1_455 S
O300 C315 1.421 . S
O301 Fe290 2.077 1_455 S
O301 C305 1.381 . S
O302 Fe288 1.935 1_455 S
O302 C305 1.421 . S
O303 Fe291 2.077 . S
O303 C311 1.381 . S
O304 Fe295 1.935 . S
O304 C311 1.421 . S
C305 O301 1.381 . S
C305 O302 1.421 . S
O306 Fe295 2.077 1_655 S
O306 C318 1.381 . S
O307 Fe290 1.935 . S
O307 C318 1.421 . S
O308 Fe288 2.077 . S
O308 C296 1.381 . S
O309 Fe291 1.935 1_655 S
O309 C296 1.421 . S
C310 O297 1.381 . S
C310 O298 1.421 . S
C311 O303 1.381 . S
C311 O304 1.421 . S
C312 O313 1.381 . S
C312 O314 1.421 . S
O313 Fe291 2.077 1_655 S
O313 C312 1.381 . S
O314 Fe295 1.935 1_655 S
O314 C312 1.421 . S
C315 O299 1.381 . S
C315 O300 1.421 . S
O316 Fe290 2.077 . S
O316 C319 1.381 . S
O317 Fe288 1.935 . S
O317 C319 1.421 . S
C318 O306 1.381 . S
C318 O307 1.421 . S
C319 O316 1.381 . S
C319 O317 1.421 . S
Fe320 O321 1.886 . S
Fe320 O324 1.715 . S
Fe320 O329 2.077 . S
Fe320 O334 1.935 . S
Fe320 O340 2.077 . S
Fe320 O349 1.935 . S
O321 Fe320 1.886 . S
O321 Fe323 1.715 1_565 S
Fe322 O324 1.886 . S
Fe322 O325 1.715 1_565 S
Fe322 O332 1.935 1_565 S
Fe322 O333 2.077 . S
Fe322 O339 1.935 1_565 S
Fe322 O348 2.077 . S
Fe323 O321 1.715 1_545 S
Fe323 O326 1.886 . S
Fe323 O330 1.935 1_545 S
Fe323 O335 2.077 . S
Fe323 O341 1.935 1_545 S
Fe323 O345 2.077 . S
O324 Fe320 1.715 . S
O324 Fe322 1.886 . S
O325 Fe322 1.715 1_545 S
O325 Fe327 1.886 . S
O326 Fe323 1.886 . S
O326 Fe327 1.715 . S
Fe327 O325 1.886 . S
Fe327 O326 1.715 . S
Fe327 O331 2.077 . S
Fe327 O336 1.935 . S
Fe327 O338 2.077 . S
Fe327 O346 1.935 . S
C328 O340 1.381 . S
C328 O341 1.421 . S
O329 Fe320 2.077 . S
O329 C342 1.381 . S
O330 Fe323 1.935 1_565 S
O330 C342 1.421 . S
O331 Fe327 2.077 . S
O331 C347 1.381 . S
O332 Fe322 1.935 1_545 S
O332 C347 1.421 . S
O333 Fe322 2.077 . S
O333 C337 1.381 . S
O334 Fe320 1.935 . S
O334 C337 1.421 . S
O335 Fe323 2.077 . S
O335 C343 1.381 . S
O336 Fe327 1.935 . S
O336 C343 1.421 . S
C337 O333 1.381 . S
C337 O334 1.421 . S
O338 Fe327 2.077 . S
O338 C350 1.381 . S
O339 Fe322 1.935 1_545 S
O339 C350 1.421 . S
O340 Fe320 2.077 . S
O340 C328 1.381 . S
O341 Fe323 1.935 1_565 S
O341 C328 1.421 . S
C342 O329 1.381 . S
C342 O330 1.421 . S
C343 O335 1.381 . S
C343 O336 1.421 . S
C344 O345 1.381 . S
C344 O346 1.421 . S
O345 Fe323 2.077 . S
O345 C344 1.381 . S
O346 Fe327 1.935 . S
O346 C344 1.421 . S
C347 O331 1.381 . S
C347 O332 1.421 . S
O348 Fe322 2.077 . S
O348 C351 1.381 . S
O349 Fe320 1.935 . S
O349 C351 1.421 . S
C350 O338 1.381 . S
C350 O339 1.421 . S
C351 O348 1.381 . S
C351 O349 1.421 . S
C177 C9 2.236 . S
C182 C22 1.055 . S
C183 C49 1.851 . S
C61 C187 1.218 . S
C81 C190 1.054 . S
C191 C108 1.851 . S
C122 C168 1.217 . S
C148 C184 2.237 . S
C222 C18 2.561 . S
C39 C248 1.410 . S
C200 C58 2.529 . S
C255 C69 1.370 . S
C89 C209 1.392 . S
C251 C102 1.252 . S
C139 C215 1.420 . S
C142 C246 1.436 . S
C1 C254 1.436 . S
C98 C241 1.411 . S
C219 C119 2.530 . S
C247 C128 1.372 . S
C159 C214 2.564 . S
C41 C232 1.250 . S
C223 C78 1.418 . S
C28 C216 1.390 . S
C149 C278 1.925 . S
C82 C273 0.786 . S
C287 C109 1.431 . S
C264 C121 1.279 . S
C21 C280 0.784 . S
C279 C48 1.428 . S
C62 C283 1.278 . S
C8 C286 1.921 . S
C158 C312 2.730 . S
C328 C99 1.450 . S
C118 C310 2.662 . S
C129 C343 1.254 . S
C319 C29 1.568 . S
C42 C337 1.018 . S
C315 C79 1.417 . S
C350 C2 1.245 . S
C342 C141 1.246 . S
C38 C347 1.450 . S
C59 C318 2.664 . S
C351 C68 1.255 . S
C19 C305 2.728 . S
C101 C344 1.016 . S
C296 C138 1.419 . S
C311 C88 1.566 . S
