# Generated by pormake.
# Topology iac, (4,6)-cn, num edge types: 1
# Building blocks:
#     Node 0, Type 0, BuildingBlock: NAHDIM_clean_sbu_0, # of connection points: 4
#     Node 1, Type 0, BuildingBlock: NAHDIM_clean_sbu_0, # of connection points: 4
#     Node 2, Type 0, BuildingBlock: NAHDIM_clean_sbu_0, # of connection points: 4
#     Node 3, Type 0, BuildingBlock: NAHDIM_clean_sbu_0, # of connection points: 4
#     Node 4, Type 0, BuildingBlock: NAHDIM_clean_sbu_0, # of connection points: 4
#     Node 5, Type 0, BuildingBlock: NAHDIM_clean_sbu_0, # of connection points: 4
#     Node 6, Type 0, BuildingBlock: NAHDIM_clean_sbu_0, # of connection points: 4
#     Node 7, Type 0, BuildingBlock: NAHDIM_clean_sbu_0, # of connection points: 4
#     Node 8, Type 0, BuildingBlock: NAHDIM_clean_sbu_0, # of connection points: 4
#     Node 9, Type 0, BuildingBlock: NAHDIM_clean_sbu_0, # of connection points: 4
#     Node 10, Type 0, BuildingBlock: NAHDIM_clean_sbu_0, # of connection points: 4
#     Node 11, Type 0, BuildingBlock: NAHDIM_clean_sbu_0, # of connection points: 4
#     Node 12, Type 0, BuildingBlock: NAHDIM_clean_sbu_0, # of connection points: 4
#     Node 13, Type 0, BuildingBlock: NAHDIM_clean_sbu_0, # of connection points: 4
#     Node 14, Type 0, BuildingBlock: NAHDIM_clean_sbu_0, # of connection points: 4
#     Node 15, Type 0, BuildingBlock: NAHDIM_clean_sbu_0, # of connection points: 4
#     Node 16, Type 0, BuildingBlock: NAHDIM_clean_sbu_0, # of connection points: 4
#     Node 17, Type 0, BuildingBlock: NAHDIM_clean_sbu_0, # of connection points: 4
#     Node 18, Type 0, BuildingBlock: NAHDIM_clean_sbu_0, # of connection points: 4
#     Node 19, Type 0, BuildingBlock: NAHDIM_clean_sbu_0, # of connection points: 4
#     Node 20, Type 0, BuildingBlock: NAHDIM_clean_sbu_0, # of connection points: 4
#     Node 21, Type 0, BuildingBlock: NAHDIM_clean_sbu_0, # of connection points: 4
#     Node 22, Type 0, BuildingBlock: NAHDIM_clean_sbu_0, # of connection points: 4
#     Node 23, Type 0, BuildingBlock: NAHDIM_clean_sbu_0, # of connection points: 4
#     Node 24, Type 1, BuildingBlock: JUFBIX_clean_sbu_0, # of connection points: 6
#     Node 25, Type 1, BuildingBlock: JUFBIX_clean_sbu_0, # of connection points: 6
#     Node 26, Type 1, BuildingBlock: JUFBIX_clean_sbu_0, # of connection points: 6
#     Node 27, Type 1, BuildingBlock: JUFBIX_clean_sbu_0, # of connection points: 6
#     Node 28, Type 1, BuildingBlock: JUFBIX_clean_sbu_0, # of connection points: 6
#     Node 29, Type 1, BuildingBlock: JUFBIX_clean_sbu_0, # of connection points: 6
#     Node 30, Type 1, BuildingBlock: JUFBIX_clean_sbu_0, # of connection points: 6
#     Node 31, Type 1, BuildingBlock: JUFBIX_clean_sbu_0, # of connection points: 6
#     Node 32, Type 1, BuildingBlock: JUFBIX_clean_sbu_0, # of connection points: 6
#     Node 33, Type 1, BuildingBlock: JUFBIX_clean_sbu_0, # of connection points: 6
#     Node 34, Type 1, BuildingBlock: JUFBIX_clean_sbu_0, # of connection points: 6
#     Node 35, Type 1, BuildingBlock: JUFBIX_clean_sbu_0, # of connection points: 6
#     Node 36, Type 1, BuildingBlock: JUFBIX_clean_sbu_0, # of connection points: 6
#     Node 37, Type 1, BuildingBlock: JUFBIX_clean_sbu_0, # of connection points: 6
#     Node 38, Type 1, BuildingBlock: JUFBIX_clean_sbu_0, # of connection points: 6
#     Node 39, Type 1, BuildingBlock: JUFBIX_clean_sbu_0, # of connection points: 6
#     Edge 40, Type (0, 1), BuildingBlock: AJUNOK_clean_linker_0, # of connection points: 2
#     Edge 41, Type (0, 1), BuildingBlock: AJUNOK_clean_linker_0, # of connection points: 2
#     Edge 42, Type (0, 1), BuildingBlock: AJUNOK_clean_linker_0, # of connection points: 2
#     Edge 43, Type (0, 1), BuildingBlock: AJUNOK_clean_linker_0, # of connection points: 2
#     Edge 44, Type (0, 1), BuildingBlock: AJUNOK_clean_linker_0, # of connection points: 2
#     Edge 45, Type (0, 1), BuildingBlock: AJUNOK_clean_linker_0, # of connection points: 2
#     Edge 46, Type (0, 1), BuildingBlock: AJUNOK_clean_linker_0, # of connection points: 2
#     Edge 47, Type (0, 1), BuildingBlock: AJUNOK_clean_linker_0, # of connection points: 2
#     Edge 48, Type (0, 1), BuildingBlock: AJUNOK_clean_linker_0, # of connection points: 2
#     Edge 49, Type (0, 1), BuildingBlock: AJUNOK_clean_linker_0, # of connection points: 2
#     Edge 50, Type (0, 1), BuildingBlock: AJUNOK_clean_linker_0, # of connection points: 2
#     Edge 51, Type (0, 1), BuildingBlock: AJUNOK_clean_linker_0, # of connection points: 2
#     Edge 52, Type (0, 1), BuildingBlock: AJUNOK_clean_linker_0, # of connection points: 2
#     Edge 53, Type (0, 1), BuildingBlock: AJUNOK_clean_linker_0, # of connection points: 2
#     Edge 54, Type (0, 1), BuildingBlock: AJUNOK_clean_linker_0, # of connection points: 2
#     Edge 55, Type (0, 1), BuildingBlock: AJUNOK_clean_linker_0, # of connection points: 2
#     Edge 56, Type (0, 1), BuildingBlock: AJUNOK_clean_linker_0, # of connection points: 2
#     Edge 57, Type (0, 1), BuildingBlock: AJUNOK_clean_linker_0, # of connection points: 2
#     Edge 58, Type (0, 1), BuildingBlock: AJUNOK_clean_linker_0, # of connection points: 2
#     Edge 59, Type (0, 1), BuildingBlock: AJUNOK_clean_linker_0, # of connection points: 2
#     Edge 60, Type (0, 1), BuildingBlock: AJUNOK_clean_linker_0, # of connection points: 2
#     Edge 61, Type (0, 1), BuildingBlock: AJUNOK_clean_linker_0, # of connection points: 2
#     Edge 62, Type (0, 1), BuildingBlock: AJUNOK_clean_linker_0, # of connection points: 2
#     Edge 63, Type (0, 1), BuildingBlock: AJUNOK_clean_linker_0, # of connection points: 2
#     Edge 64, Type (0, 1), BuildingBlock: AJUNOK_clean_linker_0, # of connection points: 2
#     Edge 65, Type (0, 1), BuildingBlock: AJUNOK_clean_linker_0, # of connection points: 2
#     Edge 66, Type (0, 1), BuildingBlock: AJUNOK_clean_linker_0, # of connection points: 2
#     Edge 67, Type (0, 1), BuildingBlock: AJUNOK_clean_linker_0, # of connection points: 2
#     Edge 68, Type (0, 1), BuildingBlock: AJUNOK_clean_linker_0, # of connection points: 2
#     Edge 69, Type (0, 1), BuildingBlock: AJUNOK_clean_linker_0, # of connection points: 2
#     Edge 70, Type (0, 1), BuildingBlock: AJUNOK_clean_linker_0, # of connection points: 2
#     Edge 71, Type (0, 1), BuildingBlock: AJUNOK_clean_linker_0, # of connection points: 2
#     Edge 72, Type (0, 1), BuildingBlock: AJUNOK_clean_linker_0, # of connection points: 2
#     Edge 73, Type (0, 1), BuildingBlock: AJUNOK_clean_linker_0, # of connection points: 2
#     Edge 74, Type (0, 1), BuildingBlock: AJUNOK_clean_linker_0, # of connection points: 2
#     Edge 75, Type (0, 1), BuildingBlock: AJUNOK_clean_linker_0, # of connection points: 2
#     Edge 76, Type (0, 1), BuildingBlock: AJUNOK_clean_linker_0, # of connection points: 2
#     Edge 77, Type (0, 1), BuildingBlock: AJUNOK_clean_linker_0, # of connection points: 2
#     Edge 78, Type (0, 1), BuildingBlock: AJUNOK_clean_linker_0, # of connection points: 2
#     Edge 79, Type (0, 1), BuildingBlock: AJUNOK_clean_linker_0, # of connection points: 2
#     Edge 80, Type (0, 1), BuildingBlock: AJUNOK_clean_linker_0, # of connection points: 2
#     Edge 81, Type (0, 1), BuildingBlock: AJUNOK_clean_linker_0, # of connection points: 2
#     Edge 82, Type (0, 1), BuildingBlock: AJUNOK_clean_linker_0, # of connection points: 2
#     Edge 83, Type (0, 1), BuildingBlock: AJUNOK_clean_linker_0, # of connection points: 2
#     Edge 84, Type (0, 1), BuildingBlock: AJUNOK_clean_linker_0, # of connection points: 2
#     Edge 85, Type (0, 1), BuildingBlock: AJUNOK_clean_linker_0, # of connection points: 2
#     Edge 86, Type (0, 1), BuildingBlock: AJUNOK_clean_linker_0, # of connection points: 2
#     Edge 87, Type (0, 1), BuildingBlock: AJUNOK_clean_linker_0, # of connection points: 2
#     Edge 88, Type (0, 1), BuildingBlock: AJUNOK_clean_linker_0, # of connection points: 2
#     Edge 89, Type (0, 1), BuildingBlock: AJUNOK_clean_linker_0, # of connection points: 2
#     Edge 90, Type (0, 1), BuildingBlock: AJUNOK_clean_linker_0, # of connection points: 2
#     Edge 91, Type (0, 1), BuildingBlock: AJUNOK_clean_linker_0, # of connection points: 2
#     Edge 92, Type (0, 1), BuildingBlock: AJUNOK_clean_linker_0, # of connection points: 2
#     Edge 93, Type (0, 1), BuildingBlock: AJUNOK_clean_linker_0, # of connection points: 2
#     Edge 94, Type (0, 1), BuildingBlock: AJUNOK_clean_linker_0, # of connection points: 2
#     Edge 95, Type (0, 1), BuildingBlock: AJUNOK_clean_linker_0, # of connection points: 2
#     Edge 96, Type (0, 1), BuildingBlock: AJUNOK_clean_linker_0, # of connection points: 2
#     Edge 97, Type (0, 1), BuildingBlock: AJUNOK_clean_linker_0, # of connection points: 2
#     Edge 98, Type (0, 1), BuildingBlock: AJUNOK_clean_linker_0, # of connection points: 2
#     Edge 99, Type (0, 1), BuildingBlock: AJUNOK_clean_linker_0, # of connection points: 2
#     Edge 100, Type (0, 1), BuildingBlock: AJUNOK_clean_linker_0, # of connection points: 2
#     Edge 101, Type (0, 1), BuildingBlock: AJUNOK_clean_linker_0, # of connection points: 2
#     Edge 102, Type (0, 1), BuildingBlock: AJUNOK_clean_linker_0, # of connection points: 2
#     Edge 103, Type (0, 1), BuildingBlock: AJUNOK_clean_linker_0, # of connection points: 2
#     Edge 104, Type (0, 1), BuildingBlock: AJUNOK_clean_linker_0, # of connection points: 2
#     Edge 105, Type (0, 1), BuildingBlock: AJUNOK_clean_linker_0, # of connection points: 2
#     Edge 106, Type (0, 1), BuildingBlock: AJUNOK_clean_linker_0, # of connection points: 2
#     Edge 107, Type (0, 1), BuildingBlock: AJUNOK_clean_linker_0, # of connection points: 2
#     Edge 108, Type (0, 1), BuildingBlock: AJUNOK_clean_linker_0, # of connection points: 2
#     Edge 109, Type (0, 1), BuildingBlock: AJUNOK_clean_linker_0, # of connection points: 2
#     Edge 110, Type (0, 1), BuildingBlock: AJUNOK_clean_linker_0, # of connection points: 2
#     Edge 111, Type (0, 1), BuildingBlock: AJUNOK_clean_linker_0, # of connection points: 2
#     Edge 112, Type (0, 1), BuildingBlock: AJUNOK_clean_linker_0, # of connection points: 2
#     Edge 113, Type (0, 1), BuildingBlock: AJUNOK_clean_linker_0, # of connection points: 2
#     Edge 114, Type (0, 1), BuildingBlock: AJUNOK_clean_linker_0, # of connection points: 2
#     Edge 115, Type (0, 1), BuildingBlock: AJUNOK_clean_linker_0, # of connection points: 2
#     Edge 116, Type (0, 1), BuildingBlock: AJUNOK_clean_linker_0, # of connection points: 2
#     Edge 117, Type (0, 1), BuildingBlock: AJUNOK_clean_linker_0, # of connection points: 2
#     Edge 118, Type (0, 1), BuildingBlock: AJUNOK_clean_linker_0, # of connection points: 2
#     Edge 119, Type (0, 1), BuildingBlock: AJUNOK_clean_linker_0, # of connection points: 2
#     Edge 120, Type (0, 1), BuildingBlock: AJUNOK_clean_linker_0, # of connection points: 2
#     Edge 121, Type (0, 1), BuildingBlock: AJUNOK_clean_linker_0, # of connection points: 2
#     Edge 122, Type (0, 1), BuildingBlock: AJUNOK_clean_linker_0, # of connection points: 2
#     Edge 123, Type (0, 1), BuildingBlock: AJUNOK_clean_linker_0, # of connection points: 2
#     Edge 124, Type (0, 1), BuildingBlock: AJUNOK_clean_linker_0, # of connection points: 2
#     Edge 125, Type (0, 1), BuildingBlock: AJUNOK_clean_linker_0, # of connection points: 2
#     Edge 126, Type (0, 1), BuildingBlock: AJUNOK_clean_linker_0, # of connection points: 2
#     Edge 127, Type (0, 1), BuildingBlock: AJUNOK_clean_linker_0, # of connection points: 2
#     Edge 128, Type (0, 1), BuildingBlock: AJUNOK_clean_linker_0, # of connection points: 2
#     Edge 129, Type (0, 1), BuildingBlock: AJUNOK_clean_linker_0, # of connection points: 2
#     Edge 130, Type (0, 1), BuildingBlock: AJUNOK_clean_linker_0, # of connection points: 2
#     Edge 131, Type (0, 1), BuildingBlock: AJUNOK_clean_linker_0, # of connection points: 2
#     Edge 132, Type (0, 1), BuildingBlock: AJUNOK_clean_linker_0, # of connection points: 2
#     Edge 133, Type (0, 1), BuildingBlock: AJUNOK_clean_linker_0, # of connection points: 2
#     Edge 134, Type (0, 1), BuildingBlock: AJUNOK_clean_linker_0, # of connection points: 2
#     Edge 135, Type (0, 1), BuildingBlock: AJUNOK_clean_linker_0, # of connection points: 2
# Relax obj value: 0.272
# Max RMSD: 0.247
# Mean RMSD: 0.156
data_MOF--net-iac--node1-NAHDIM_clean_sbu_0--node2-JUFBIX_clean_sbu_0--edge1-AJUNOK_clean_linker_0
_symmetry_space_group_name_H-M    P1
_symmetry_Int_Tables_number       1
_symmetry_cell_setting            triclinic
loop_
_symmetry_equiv_pos_as_xyz
'x, y, z'
_cell_length_a     41.103512
_cell_length_b     41.551506
_cell_length_c     40.176621
_cell_angle_alpha  88.932679
_cell_angle_beta   87.867472
_cell_angle_gamma 88.415416
loop_
_atom_site_label
_atom_site_type_symbol
_atom_site_fract_x
_atom_site_fract_y
_atom_site_fract_z
_atom_type_partial_charge
C0 C 0.98012 0.32428 0.20133 0.0
O1 O 0.99142 0.35322 0.19567 0.0
O2 O 0.04732 0.2518 0.1419 0.0
Zn3 Zn 0.04365 0.29892 0.16515 0.0
O4 O 0.04361 0.33991 0.13101 0.0
C5 C 0.10824 0.28307 0.19897 0.0
O6 O 0.10764 0.25762 0.18011 0.0
O7 O 0.99782 0.29989 0.19197 0.0
C8 C 0.05717 0.36637 0.13811 0.0
O9 O 0.07155 0.36748 0.1667 0.0
C10 C 0.0244 0.23757 0.12737 0.0
O11 O 0.99638 0.25319 0.12465 0.0
O12 O 0.08424 0.30351 0.19743 0.0
C13 C 0.12118 0.74058 0.37593 0.0
O14 O 0.10676 0.71563 0.38972 0.0
O15 O 0.06681 0.73632 0.4407 0.0
Zn16 Zn 0.07373 0.77634 0.41465 0.0
O17 O 0.07847 0.81244 0.4459 0.0
C18 C 1.00829 0.77336 0.3941 0.0
O19 O 1.0071 0.74988 0.41639 0.0
O20 O 0.11167 0.76903 0.38335 0.0
C21 C 0.05397 0.81639 0.46579 0.0
O22 O 0.03001 0.79617 0.46513 0.0
C23 C 0.08182 0.72858 0.46676 0.0
O24 O 0.1024 0.74854 0.47888 0.0
O25 O 0.03494 0.78739 0.38819 0.0
C26 C 0.47415 0.80009 0.68592 0.0
O27 O 0.47398 0.79161 0.65461 0.0
O28 O 0.54454 0.75554 0.64543 0.0
Zn29 Zn 0.54417 0.80387 0.66601 0.0
O30 O 0.54057 0.84435 0.63136 0.0
C31 C 0.60088 0.79058 0.71472 0.0
O32 O 0.58504 0.76454 0.72344 0.0
O33 O 0.50157 0.80727 0.6977 0.0
C34 C 0.5544 0.8711 0.63691 0.0
O35 O 0.57211 0.87235 0.66338 0.0
C36 C 0.53218 0.7451 0.6188 0.0
O37 O 0.51817 0.76626 0.59887 0.0
O38 O 0.58841 0.80949 0.69263 0.0
C39 C 0.61804 0.24984 0.88904 0.0
O40 O 0.59183 0.2335 0.88404 0.0
O41 O 0.5604 0.24131 0.95109 0.0
Zn42 Zn 0.57354 0.28266 0.93081 0.0
O43 O 0.57481 0.31614 0.96499 0.0
C44 C 0.52105 0.28206 0.88524 0.0
O45 O 0.52265 0.25068 0.88987 0.0
O46 O 0.61625 0.27398 0.90804 0.0
C47 C 0.5504 0.31825 0.98524 0.0
O48 O 0.52875 0.29556 0.98592 0.0
C49 C 0.58057 0.22865 0.97089 0.0
O50 O 0.60639 0.24463 0.9783 0.0
O51 O 0.54124 0.29946 0.89903 0.0
C52 C 0.19199 0.94625 0.36035 0.0
O53 O 0.16106 0.95362 0.36615 0.0
O54 O 0.18554 1.00113 0.27362 0.0
Zn55 Zn 0.19251 0.00505 0.32176 0.0
O56 O 0.14994 0.01863 0.34254 0.0
C57 C 0.20793 0.06739 0.31793 0.0
O58 O 0.18028 0.06617 0.30267 0.0
O59 O 0.2096 0.96496 0.34258 0.0
C60 C 0.12136 0.01204 0.3344 0.0
O61 O 0.11661 0.99073 0.31151 0.0
C62 C 0.17286 0.97691 0.26115 0.0
O63 O 0.16993 0.95049 0.2794 0.0
O64 O 0.22124 0.04138 0.32826 0.0
C65 C 0.23264 0.94789 0.53451 0.0
O66 O 0.25542 0.957 0.55409 0.0
O67 O 0.26261 0.88633 0.59444 0.0
Zn68 Zn 0.26732 0.89068 0.54512 0.0
O69 O 0.27077 0.84747 0.5245 0.0
C70 C 0.32404 0.92716 0.55489 0.0
O71 O 0.31498 0.9236 0.58638 0.0
O72 O 0.23133 0.91832 0.52726 0.0
C73 C 0.29605 0.83034 0.53048 0.0
O74 O 0.3168 0.84073 0.55166 0.0
C75 C 0.23614 0.8813 0.61063 0.0
O76 O 0.20917 0.87816 0.59459 0.0
O77 O 0.30809 0.91368 0.53288 0.0
C78 C 0.38771 0.13505 0.75441 0.0
O79 O 0.41907 0.12897 0.75643 0.0
O80 O 0.40857 0.05917 0.72324 0.0
Zn81 Zn 0.38422 0.06877 0.76527 0.0
O82 O 0.4129 0.06462 0.80382 0.0
C83 C 0.33512 0.04146 0.80322 0.0
O84 O 0.34387 0.06422 0.82305 0.0
O85 O 0.36764 0.11279 0.75975 0.0
C86 C 0.42818 0.03792 0.80725 0.0
O87 O 0.42475 0.01515 0.7855 0.0
C88 C 0.4387 0.06497 0.72073 0.0
O89 O 0.45437 0.07234 0.74731 0.0
O90 O 0.34795 0.03982 0.77408 0.0
C91 C 0.35547 0.14072 0.05405 0.0
O92 O 0.35472 0.16542 0.07399 0.0
O93 O 0.28801 0.18891 0.08983 0.0
Zn94 Zn 0.28844 0.16702 0.04174 0.0
O95 O 0.29123 0.20049 1.00103 0.0
C96 C 0.23388 0.1189 0.05642 0.0
O97 O 0.25193 0.11 0.08146 0.0
O98 O 0.33017 0.13589 0.03731 0.0
C99 C 0.28112 0.19223 0.97267 0.0
O100 O 0.26965 0.16319 0.97036 0.0
C101 C 0.30085 0.21548 0.09754 0.0
O102 O 0.31519 0.23243 0.07357 0.0
O103 O 0.24427 0.14158 0.03707 0.0
C104 C 0.71928 0.45744 0.04561 0.0
O105 O 0.74309 0.46397 0.06509 0.0
O106 O 0.76175 0.39674 0.0853 0.0
Zn107 Zn 0.76167 0.40637 0.03705 0.0
O108 O 0.76614 0.36512 0.01303 0.0
C109 C 0.81739 0.44545 0.04358 0.0
O110 O 0.81062 0.44174 0.07562 0.0
O111 O 0.72136 0.43186 0.02873 0.0
C112 C 0.79316 0.35028 0.01726 0.0
O113 O 0.81422 0.36254 0.03698 0.0
C114 C 0.74069 0.37785 0.09767 0.0
O115 O 0.72031 0.36438 0.07806 0.0
O116 O 0.79948 0.43268 0.02281 0.0
C117 C 0.87639 0.62874 0.23335 0.0
O118 O 0.89792 0.62121 0.20969 0.0
O119 O 0.91541 0.5544 0.22352 0.0
Zn120 Zn 0.8903 0.56653 0.26416 0.0
O121 O 0.91899 0.56485 0.30266 0.0
C122 C 0.82544 0.54122 0.27178 0.0
O123 O 0.81442 0.56602 0.25444 0.0
O124 O 0.87065 0.60971 0.25779 0.0
C125 C 0.93867 0.54089 0.30467 0.0
O126 O 0.94031 0.5195 0.28096 0.0
C127 C 0.94265 0.5679 0.22016 0.0
O128 O 0.9518 0.58674 0.24379 0.0
O129 O 0.85565 0.53682 0.27595 0.0
C130 C 0.85605 0.64062 0.5297 0.0
O131 O 0.8555 0.6666 0.51057 0.0
O132 O 0.78545 0.68795 0.59393 0.0
Zn133 Zn 0.78788 0.66417 0.54721 0.0
O134 O 0.79023 0.69599 0.50492 0.0
C135 C 0.73141 0.61911 0.56509 0.0
O136 O 0.74568 0.61574 0.59371 0.0
O137 O 0.8303 0.63413 0.54722 0.0
C138 C 0.78101 0.68594 0.47686 0.0
O139 O 0.7713 0.65614 0.47569 0.0
C140 C 0.80563 0.70844 0.60384 0.0
O141 O 0.82928 0.71728 0.58304 0.0
O142 O 0.74474 0.63736 0.54272 0.0
C143 C 0.69488 0.43667 0.83657 0.0
O144 O 0.66291 0.43791 0.83762 0.0
O145 O 0.66077 0.50306 0.78578 0.0
Zn146 Zn 0.68474 0.50375 0.82831 0.0
O147 O 0.65127 0.51009 0.86491 0.0
C148 C 0.7097 0.56475 0.80854 0.0
O149 O 0.68798 0.56279 0.78555 0.0
O150 O 0.71031 0.46265 0.83385 0.0
C151 C 0.63371 0.53573 0.86369 0.0
O152 O 0.63945 0.55733 0.84009 0.0
C153 C 0.63142 0.49414 0.78655 0.0
O154 O 0.61819 0.48365 0.81478 0.0
O155 O 0.71384 0.5413 0.82874 0.0
C156 C 0.1056 0.80646 0.89557 0.0
O157 O 0.10687 0.81452 0.92694 0.0
O158 O 0.03882 0.75939 0.94829 0.0
Zn159 Zn 0.03615 0.80247 0.91736 0.0
O160 O 0.0384 0.84831 0.9422 0.0
C161 C 0.98045 0.78137 0.87289 0.0
O162 O 0.99754 0.75428 0.87034 0.0
O163 O 0.07777 0.79967 0.8846 0.0
C164 C 0.04925 0.85611 0.97051 0.0
O165 O 0.06059 0.83298 0.98995 0.0
C166 C 0.01531 0.74008 0.95424 0.0
O167 O 0.9865 0.74885 0.94366 0.0
O168 O 0.99193 0.80398 0.89002 0.0
C169 C 0.94773 0.31601 0.6746 0.0
O170 O 0.94773 0.33939 0.65217 0.0
O171 O 0.02146 0.27176 0.61345 0.0
Zn172 Zn 0.01242 0.3052 0.64821 0.0
O173 O 1.00925 0.34913 0.62853 0.0
C174 C 0.07767 0.29298 0.66626 0.0
O175 O 0.08094 0.28577 0.63464 0.0
O176 O 0.97247 0.29716 0.67646 0.0
C177 C 0.0297 0.3601 0.60724 0.0
O178 O 0.05445 0.34186 0.59673 0.0
C179 C 0.02118 0.27455 0.58189 0.0
O180 O 1.00847 0.30065 0.56809 0.0
O181 O 0.05024 0.30301 0.67805 0.0
C182 C 0.59679 0.28511 0.37492 0.0
O183 O 0.58655 0.25624 0.38297 0.0
O184 O 0.5371 0.2637 0.44436 0.0
Zn185 Zn 0.53561 0.3083 0.41516 0.0
O186 O 0.53491 0.35265 0.44317 0.0
C187 C 0.48031 0.28887 0.36848 0.0
O188 O 0.49586 0.26084 0.36704 0.0
O189 O 0.57936 0.30949 0.38474 0.0
C190 C 0.55258 0.36107 0.46716 0.0
O191 O 0.57396 0.33992 0.47853 0.0
C192 C 0.51293 0.24517 0.45045 0.0
O193 O 0.48424 0.25524 0.4406 0.0
O194 O 0.49251 0.31099 0.38578 0.0
C195 C 0.4522 0.85157 0.21771 0.0
O196 O 0.46364 0.87804 0.20395 0.0
O197 O 0.49305 0.78103 0.14435 0.0
Zn198 Zn 0.49612 0.82027 0.17179 0.0
O199 O 0.49642 0.86018 0.14422 0.0
C200 C 0.56155 0.79977 0.181 0.0
O201 O 0.55978 0.79097 0.14995 0.0
O202 O 0.46146 0.82419 0.20679 0.0
C203 C 0.51744 0.86573 0.12114 0.0
O204 O 0.54073 0.84435 0.11441 0.0
C205 C 0.49389 0.78087 0.11271 0.0
O206 O 0.48685 0.8075 0.09612 0.0
O207 O 0.53745 0.81413 0.1954 0.0
C208 C 0.89943 0.10422 0.72978 0.0
O209 O 0.88744 0.08065 0.71314 0.0
O210 O 0.98961 0.06054 0.70349 0.0
Zn211 Zn 0.95472 0.06141 0.73829 0.0
O212 O 0.97516 0.05832 0.78182 0.0
C213 C 0.93355 0.99661 0.74101 0.0
O214 O 0.96288 0.99086 0.75202 0.0
O215 O 0.9285 0.10208 0.7393 0.0
C216 C 0.95678 0.05839 0.80784 0.0
O217 O 0.92509 0.05768 0.80488 0.0
C218 C 0.01413 0.07845 0.70321 0.0
O219 O 0.0162 0.10079 0.72567 0.0
O220 O 0.92511 0.02521 0.73315 0.0
C221 C 0.88793 0.15252 0.51449 0.0
O222 O 0.88796 0.18296 0.50503 0.0
O223 O 0.8058 0.19054 0.54361 0.0
Zn224 Zn 0.82136 0.16292 0.50607 0.0
O225 O 0.82831 0.18834 0.46386 0.0
C226 C 0.75815 0.14848 0.5005 0.0
O227 O 0.75841 0.17955 0.49393 0.0
O228 O 0.86112 0.1383 0.51724 0.0
C229 C 0.82055 0.21808 0.4622 0.0
O230 O 0.80675 0.23213 0.48825 0.0
C231 C 0.81771 0.21497 0.55644 0.0
O232 O 0.84647 0.22485 0.54597 0.0
O233 O 0.78517 0.13322 0.50242 0.0
C234 C 0.69173 0.9623 0.33815 0.0
O235 O 0.66091 0.9683 0.34599 0.0
O236 O 0.6637 0.03267 0.27829 0.0
Zn237 Zn 0.69115 0.02753 0.31784 0.0
O238 O 0.66533 0.03818 0.35851 0.0
C239 C 0.71545 0.08489 0.30082 0.0
O240 O 0.68379 0.08993 0.30043 0.0
O241 O 0.70891 0.9838 0.32398 0.0
C242 C 0.63465 0.03575 0.35976 0.0
O243 O 0.61948 0.02939 0.33257 0.0
C244 C 0.64585 0.01365 0.26345 0.0
O245 O 0.64423 0.98345 0.27351 0.0
O246 O 0.72677 0.05791 0.31073 0.0
C247 C 0.72546 0.94775 0.02936 0.0
O248 O 0.72627 0.91908 0.01608 0.0
O249 O 0.79748 0.90245 0.08697 0.0
Zn250 Zn 0.79493 0.9291 0.04115 0.0
O251 O 0.7938 0.89844 0.99887 0.0
C252 C 0.86289 0.95115 0.05222 0.0
O253 O 0.86315 0.92382 0.06918 0.0
O254 O 0.75139 0.95747 0.04228 0.0
C255 C 0.78922 0.90939 0.96923 0.0
O256 O 0.78626 0.94076 0.96504 0.0
C257 C 0.77366 0.88984 0.10359 0.0
O258 O 0.74458 0.8922 0.09111 0.0
O259 O 0.83658 0.95928 0.0376 0.0
C260 C 0.36385 0.65479 0.02898 0.0
O261 O 0.34097 0.64184 0.01202 0.0
O262 O 0.30118 0.73879 0.05983 0.0
Zn263 Zn 0.31478 0.70108 0.0321 0.0
O264 O 0.31254 0.71104 0.98373 0.0
C265 C 0.25289 0.67693 0.04203 0.0
O266 O 0.24586 0.70613 0.03085 0.0
O267 O 0.35839 0.68231 0.04156 0.0
C268 C 0.33717 0.72133 0.9673 0.0
O269 O 0.36393 0.72704 0.98283 0.0
C270 C 0.31072 0.76746 0.06149 0.0
O271 O 0.33618 0.77675 0.04343 0.0
O272 O 0.28248 0.66809 0.04398 0.0
C273 C 0.19341 0.46938 0.83227 0.0
O274 O 0.16369 0.47528 0.84415 0.0
O275 O 0.15709 0.53475 0.77535 0.0
Zn276 Zn 0.1889 0.53389 0.81137 0.0
O277 O 0.16827 0.54352 0.85495 0.0
C278 C 0.23331 0.56626 0.76942 0.0
O279 O 0.22192 0.54666 0.74764 0.0
O280 O 0.2087 0.49105 0.81611 0.0
C281 C 0.14184 0.55925 0.86002 0.0
O282 O 0.12726 0.57347 0.83496 0.0
C283 C 0.12787 0.52564 0.77685 0.0
O284 O 0.11537 0.51333 0.80467 0.0
O285 O 0.22297 0.56471 0.79952 0.0
C286 C 0.23217 0.46368 0.52068 0.0
O287 O 0.23832 0.44948 0.49211 0.0
O288 O 0.29524 0.40027 0.58008 0.0
Zn289 Zn 0.29621 0.43163 0.53719 0.0
O290 O 0.29524 0.40737 0.49033 0.0
C291 C 0.34665 0.48217 0.55486 0.0
O292 O 0.32472 0.49161 0.5775 0.0
O293 O 0.25355 0.46087 0.54298 0.0
C294 C 0.27807 0.38368 0.48184 0.0
O295 O 0.25852 0.37063 0.5046 0.0
C296 C 0.31408 0.40348 0.60451 0.0
O297 O 0.33633 0.42548 0.60151 0.0
O298 O 0.33967 0.4591 0.53579 0.0
C299 C 0.40229 0.641 0.22828 0.0
O300 O 0.43425 0.63994 0.22603 0.0
O301 O 0.4479 0.56655 0.22942 0.0
Zn302 Zn 0.41084 0.5793 0.25944 0.0
O303 O 0.42804 0.58956 0.30305 0.0
C304 C 0.37139 0.53205 0.23699 0.0
O305 O 0.38111 0.54547 0.20859 0.0
O306 O 0.38729 0.61721 0.2409 0.0
C307 C 0.44466 0.56724 0.31675 0.0
O308 O 0.44713 0.539 0.30254 0.0
C309 C 0.47667 0.57633 0.2319 0.0
O310 O 0.48327 0.59645 0.2554 0.0
O311 O 0.38106 0.54311 0.26397 0.0
Co312 Co 0.03854 0.0572 0.02459 0.0
C313 C 0.0318 0.10311 0.07632 0.0
Co314 Co 0.04632 0.03583 0.07369 0.0
C315 C 0.01421 0.06386 0.95969 0.0
C316 C 0.04351 0.10372 0.97124 0.0
N317 N 0.03194 0.07578 0.9838 0.0
N318 N 0.0141 0.08326 0.93258 0.0
C319 C 0.03271 0.10828 0.93944 0.0
H320 H 1.00225 0.04098 0.9617 0.0
H321 H 0.05891 0.11958 0.98428 0.0
C322 C 0.05252 0.99019 0.02162 0.0
N323 N 0.05314 0.01651 0.11497 0.0
C324 C 0.07937 0.0194 0.13371 0.0
C325 C 0.03547 0.99352 0.13073 0.0
N326 N 0.07908 0.99896 0.16013 0.0
C327 C 0.05137 0.98267 0.15844 0.0
C328 C 0.98172 0.02974 0.05359 0.0
O329 O 0.04816 0.01548 0.00365 0.0
O330 O 0.05403 0.99386 0.05299 0.0
O331 O 1.00063 0.02569 0.0778 0.0
O332 O 0.99249 0.04513 0.02795 0.0
O333 O 0.03869 0.07845 0.09458 0.0
H334 H 0.01306 0.98424 0.1222 0.0
H335 H 0.09914 0.0351 0.12725 0.0
O336 O 0.02864 0.09854 0.04532 0.0
O337 O 0.08471 0.06915 0.02091 0.0
O338 O 0.09202 0.04554 0.06888 0.0
C339 C 0.10374 0.06175 0.04436 0.0
H340 H 0.03803 0.12831 0.92268 0.0
H341 H 0.04347 0.96383 0.17562 0.0
Co342 Co 0.30046 0.77978 0.3223 0.0
C343 C 0.32248 0.74658 0.26705 0.0
Co344 Co 0.27944 0.79765 0.27539 0.0
C345 C 0.30373 0.76726 0.39229 0.0
C346 C 0.34655 0.74915 0.36649 0.0
N347 N 0.31726 0.76358 0.36155 0.0
N348 N 0.3236 0.75682 0.41639 0.0
C349 C 0.35053 0.74498 0.40023 0.0
H350 H 0.28062 0.77971 0.39716 0.0
H351 H 0.36459 0.74361 0.347 0.0
C352 C 0.25741 0.83094 0.33053 0.0
N353 N 0.2633 0.81374 0.23598 0.0
C354 C 0.27988 0.81406 0.20644 0.0
C355 C 0.23286 0.82406 0.22904 0.0
N356 N 0.261 0.82309 0.18108 0.0
C357 C 0.23132 0.82968 0.19516 0.0
C358 C 0.24203 0.75259 0.30711 0.0
O359 O 0.27691 0.81241 0.3459 0.0
O360 O 0.2553 0.82902 0.29924 0.0
O361 O 0.24434 0.77008 0.28092 0.0
O362 O 0.26455 0.75265 0.32796 0.0
O363 O 0.30359 0.76561 0.25156 0.0
H364 H 0.21273 0.82565 0.24711 0.0
H365 H 0.30483 0.80531 0.20317 0.0
O366 O 0.32398 0.74805 0.2984 0.0
O367 O 0.33587 0.80692 0.31648 0.0
O368 O 0.31484 0.82545 0.27034 0.0
C369 C 0.33752 0.82532 0.29096 0.0
H370 H 0.37218 0.73547 0.41185 0.0
H371 H 0.20969 0.83634 0.1818 0.0
Co372 Co 0.51111 0.04888 0.52743 0.0
C373 C 0.52593 0.1142 0.51414 0.0
Co374 Co 0.55598 0.0621 0.55029 0.0
C375 C 0.45051 0.01961 0.52887 0.0
C376 C 0.45807 0.04453 0.48227 0.0
N377 N 0.4719 0.03787 0.51162 0.0
N378 N 0.42372 0.01458 0.51181 0.0
C379 C 0.42832 0.02991 0.48222 0.0
H380 H 0.45505 0.00932 0.55325 0.0
H381 H 0.46907 0.05867 0.46219 0.0
C382 C 0.54109 0.99678 0.56363 0.0
N383 N 0.59529 0.07286 0.56587 0.0
C384 C 0.61658 0.09078 0.54812 0.0
C385 C 0.61092 0.06338 0.59348 0.0
N386 N 0.64487 0.09306 0.56327 0.0
C387 C 0.64184 0.07564 0.59175 0.0
C388 C 0.5049 0.07118 0.59248 0.0
O389 O 0.51724 0.00465 0.54547 0.0
O390 O 0.56168 0.01842 0.56869 0.0
O391 O 0.5354 0.07446 0.59008 0.0
O392 O 0.48997 0.06105 0.56787 0.0
O393 O 0.55014 0.10624 0.53176 0.0
H394 H 0.60096 0.04771 0.61286 0.0
H395 H 0.6121 0.10049 0.52346 0.0
O396 O 0.50512 0.09264 0.50954 0.0
O397 O 0.53207 0.03682 0.48715 0.0
O398 O 0.57699 0.04949 0.51052 0.0
C399 C 0.56269 0.03954 0.48553 0.0
H400 H 0.41151 0.03036 0.4621 0.0
H401 H 0.66077 0.07156 0.6095 0.0
Co402 Co 0.31588 0.31395 0.79975 0.0
C403 C 0.29769 0.33426 0.73472 0.0
Co404 Co 0.2711 0.29275 0.78378 0.0
C405 C 0.37889 0.31587 0.82484 0.0
C406 C 0.36442 0.36227 0.80573 0.0
N407 N 0.35377 0.33219 0.81148 0.0
N408 N 0.40506 0.33424 0.82738 0.0
C409 C 0.39617 0.36361 0.81551 0.0
H410 H 0.37822 0.29061 0.83189 0.0
H411 H 0.35048 0.38153 0.79405 0.0
C412 C 0.28966 0.27173 0.84844 0.0
N413 N 0.23371 0.27373 0.77183 0.0
C414 C 0.20808 0.28799 0.75713 0.0
C415 C 0.22695 0.24213 0.77377 0.0
N416 N 0.18572 0.26652 0.74958 0.0
C417 C 0.19747 0.23758 0.75973 0.0
C418 C 0.32618 0.25787 0.76598 0.0
O419 O 0.31314 0.29066 0.84251 0.0
O420 O 0.2688 0.26929 0.826 0.0
O421 O 0.29548 0.25895 0.76462 0.0
O422 O 0.34025 0.27977 0.78091 0.0
O423 O 0.27361 0.31618 0.74114 0.0
H424 H 0.24294 0.22352 0.78374 0.0
H425 H 0.20658 0.31338 0.7506 0.0
O426 O 0.31852 0.33683 0.75718 0.0
O427 O 0.29173 0.34809 0.81846 0.0
O428 O 0.2466 0.32683 0.80303 0.0
C429 C 0.26093 0.34902 0.81744 0.0
H430 H 0.41178 0.3841 0.81279 0.0
H431 H 0.18592 0.21481 0.75643 0.0
Co432 Co 0.05569 0.03377 0.51778 0.0
C433 C 0.07285 0.06206 0.57612 0.0
Co434 Co 0.07925 0.08036 0.51014 0.0
C435 C 0.05078 0.96584 0.51188 0.0
C436 C 0.01487 0.98468 0.54678 0.0
N437 N 0.03931 0.99346 0.52542 0.0
N438 N 0.03481 0.94015 0.52415 0.0
C439 C 0.01183 0.95178 0.54578 0.0
H440 H 0.07028 0.9646 0.49303 0.0
H441 H 1.00048 1.00108 0.56232 0.0
C442 C 0.06155 0.05137 0.45205 0.0
N443 N 0.09424 0.12158 0.50337 0.0
C444 C 0.08444 0.14545 0.5238 0.0
C445 C 0.10835 0.13663 0.47667 0.0
N446 N 0.09119 0.17467 0.5112 0.0
C447 C 0.1062 0.16961 0.48134 0.0
C448 C 0.12371 0.03176 0.50874 0.0
O449 O 0.05063 0.02979 0.47187 0.0
O450 O 0.07526 0.07554 0.46378 0.0
O451 O 0.12186 0.06231 0.50722 0.0
O452 O 0.09809 0.01565 0.51319 0.0
O453 O 0.08296 0.08445 0.55691 0.0
H454 H 0.11737 0.12471 0.45434 0.0
H455 H 0.06938 0.1418 0.54613 0.0
O456 O 0.06068 0.03756 0.56361 0.0
O457 O 0.01356 0.05224 0.52215 0.0
O458 O 0.03675 0.09835 0.51314 0.0
C459 C 0.01121 0.08257 0.51892 0.0
H460 H 0.99441 0.93748 0.55999 0.0
H461 H 0.11362 0.18825 0.4637 0.0
Co462 Co 0.2947 0.82576 0.8003 0.0
C463 C 0.23105 0.80096 0.81776 0.0
Co464 Co 0.28248 0.78079 0.77702 0.0
C465 C 0.30516 0.8922 0.81273 0.0
C466 C 0.29437 0.86528 0.85747 0.0
N467 N 0.30012 0.86218 0.82433 0.0
N468 N 0.30236 0.91395 0.83718 0.0
C469 C 0.29574 0.89719 0.86546 0.0
H470 H 0.30986 0.89813 0.78668 0.0
H471 H 0.28788 0.84581 0.87447 0.0
C472 C 0.34633 0.80565 0.75983 0.0
N473 N 0.27702 0.7443 0.75309 0.0
C474 C 0.2717 0.71441 0.76489 0.0
C475 C 0.28253 0.74099 0.71995 0.0
N476 N 0.27444 0.69248 0.74062 0.0
C477 C 0.2807 0.70905 0.71215 0.0
C478 C 0.26404 0.83561 0.74144 0.0
O479 O 0.33806 0.82853 0.77938 0.0
O480 O 0.32577 0.78374 0.7559 0.0
O481 O 0.26446 0.80517 0.74231 0.0
O482 O 0.27693 0.85065 0.76454 0.0
O483 O 0.23915 0.77794 0.7983 0.0
H484 H 0.28879 0.76037 0.70274 0.0
H485 H 0.2663 0.7088 0.79089 0.0
O486 O 0.25158 0.82295 0.8212 0.0
O487 O 0.31236 0.80121 0.83534 0.0
O488 O 0.30015 0.75599 0.81249 0.0
C489 C 0.31218 0.77076 0.83624 0.0
H490 H 0.29072 0.90737 0.88978 0.0
H491 H 0.28461 0.69868 0.68776 0.0
Co492 Co 0.53579 0.03682 0.01138 0.0
C493 C 0.5993 0.01978 0.03265 0.0
Co494 Co 0.54498 0.05157 0.06201 0.0
C495 C 0.5128 0.03741 0.9447 0.0
C496 C 0.53948 0.99411 0.95683 0.0
N497 N 0.52979 0.02298 0.96902 0.0
N498 N 0.51125 0.01855 0.91785 0.0
C499 C 0.52796 0.99123 0.92547 0.0
H500 H 0.50098 0.06091 0.94707 0.0
H501 H 0.55279 0.97572 0.97046 0.0
C502 C 0.4814 0.0685 0.04137 0.0
N503 N 0.55115 0.06414 0.10457 0.0
C504 C 0.56661 0.04649 0.12779 0.0
C505 C 0.54189 0.09182 0.11962 0.0
N506 N 0.56774 0.06203 0.15669 0.0
C507 C 0.55215 0.0906 0.15187 0.0
C508 C 0.55989 0.09764 0.01472 0.0
O509 O 0.491 0.05445 0.01463 0.0
O510 O 0.50134 0.06952 0.06479 0.0
O511 O 0.56006 0.09097 0.04561 0.0
O512 O 0.55005 0.07702 0.99469 0.0
O513 O 0.58907 0.03347 0.05924 0.0
H514 H 0.52884 0.11163 0.10782 0.0
H515 H 0.5777 0.02295 0.12328 0.0
O516 O 0.58013 0.0194 0.00849 0.0
O517 O 0.52174 0.99675 0.02797 0.0
O518 O 0.52992 0.01215 0.07867 0.0
C519 C 0.52152 0.99078 0.05895 0.0
H520 H 0.53005 0.96989 0.91043 0.0
H521 H 0.5486 0.10926 0.17019 0.0
Co522 Co 0.28708 0.27569 0.30222 0.0
C523 C 0.35155 0.29811 0.30526 0.0
Co524 Co 0.29335 0.32222 0.27761 0.0
C525 C 0.26528 0.21265 0.31609 0.0
C526 C 0.29653 0.22808 0.35377 0.0
N527 N 0.28288 0.23756 0.32501 0.0
N528 N 0.26709 0.18812 0.3382 0.0
C529 C 0.28698 0.19732 0.36185 0.0
H530 H 0.25185 0.21223 0.29348 0.0
H531 H 0.3124 0.24256 0.36786 0.0
C532 C 0.22893 0.2987 0.27412 0.0
N533 N 0.29718 0.36027 0.25425 0.0
C534 C 0.31164 0.38743 0.26264 0.0
C535 C 0.28486 0.36668 0.22408 0.0
N536 N 0.30867 0.41056 0.23888 0.0
C537 C 0.29207 0.39759 0.21447 0.0
C538 C 0.30136 0.26888 0.23396 0.0
O539 O 0.24112 0.27609 0.29197 0.0
O540 O 0.2469 0.32247 0.26667 0.0
O541 O 0.30327 0.29929 0.2363 0.0
O542 O 0.2959 0.25272 0.26074 0.0
O543 O 0.33985 0.32204 0.28871 0.0
H544 H 0.27148 0.34991 0.20994 0.0
H545 H 0.32461 0.38995 0.28537 0.0
O546 O 0.33291 0.27474 0.31197 0.0
O547 O 0.27795 0.29845 0.3438 0.0
O548 O 0.28385 0.3452 0.31897 0.0
C549 C 0.27916 0.32897 0.3459 0.0
H550 H 0.29376 0.18298 0.38341 0.0
H551 H 0.28556 0.40967 0.19146 0.0
Co552 Co 0.53141 0.53651 0.04149 0.0
C553 C 0.53754 0.55969 0.10447 0.0
Co554 Co 0.55632 0.58262 0.04201 0.0
C555 C 0.52925 0.46965 0.02952 0.0
C556 C 0.4854 0.48588 0.05487 0.0
N557 N 0.51406 0.49615 0.0418 0.0
N558 N 0.51156 0.44308 0.03445 0.0
C559 C 0.48371 0.45317 0.05019 0.0
H560 H 0.55316 0.46982 0.01751 0.0
H561 H 0.46701 0.50113 0.06705 0.0
C562 C 0.55184 0.55794 0.97921 0.0
N563 N 0.57242 0.62357 0.04227 0.0
C564 C 0.5594 0.64607 0.06272 0.0
C565 C 0.59083 0.64005 0.01962 0.0
N566 N 0.56786 0.67594 0.05349 0.0
C567 C 0.58786 0.67255 0.02639 0.0
C568 C 0.59959 0.5335 0.0459 0.0
O569 O 0.53716 0.53548 0.99481 0.0
O570 O 0.56095 0.58197 0.9952 0.0
O571 O 0.59829 0.56404 0.04494 0.0
O572 O 0.57354 0.51787 0.04543 0.0
O573 O 0.55198 0.58236 0.08907 0.0
H574 H 0.60333 0.62954 0.99811 0.0
H575 H 0.54106 0.64106 0.082 0.0
O576 O 0.52617 0.53715 0.08795 0.0
O577 O 0.48953 0.55561 0.03744 0.0
O578 O 0.51411 0.60146 0.03902 0.0
C579 C 0.48804 0.58612 0.03757 0.0
H580 H 0.46325 0.43832 0.05724 0.0
H581 H 0.5981 0.69209 0.01162 0.0
Co582 Co 0.78673 0.33137 0.29432 0.0
C583 C 0.72708 0.29921 0.30757 0.0
Co584 Co 0.78557 0.28393 0.2724 0.0
C585 C 0.78884 0.39964 0.29889 0.0
C586 C 0.77296 0.37745 0.3449 0.0
N587 N 0.78469 0.37083 0.31384 0.0
N588 N 0.77973 0.42395 0.31913 0.0
C589 C 0.77 0.41026 0.34828 0.0
H590 H 0.79796 0.40276 0.27345 0.0
H591 H 0.76563 0.35955 0.36338 0.0
C592 C 0.84546 0.31511 0.25963 0.0
N593 N 0.78692 0.24439 0.25352 0.0
C594 C 0.78075 0.21661 0.26968 0.0
C595 C 0.79444 0.23618 0.22173 0.0
N596 N 0.78417 0.19133 0.24949 0.0
C597 C 0.79217 0.20332 0.21905 0.0
C598 C 0.76359 0.33199 0.2307 0.0
O599 O 0.83172 0.33766 0.27684 0.0
O600 O 0.82901 0.29032 0.2546 0.0
O601 O 0.7682 0.30184 0.23352 0.0
O602 O 0.77027 0.34976 0.25468 0.0
O603 O 0.74153 0.27703 0.29067 0.0
H604 H 0.8005 0.25304 0.20176 0.0
H605 H 0.77236 0.21504 0.29553 0.0
O606 O 0.74239 0.32496 0.31154 0.0
O607 O 0.80308 0.31323 0.33368 0.0
O608 O 0.80295 0.26582 0.31134 0.0
C609 C 0.80861 0.28318 0.3359 0.0
H610 H 0.76065 0.42299 0.37002 0.0
H611 H 0.79509 0.18946 0.19653 0.0
Co612 Co 0.03893 0.53813 0.51234 0.0
C613 C 0.10076 0.52424 0.53687 0.0
Co614 Co 0.04259 0.55307 0.56393 0.0
C615 C 0.01866 0.53973 0.44533 0.0
C616 C 0.0478 0.49755 0.45583 0.0
N617 N 0.03614 0.5253 0.46922 0.0
N618 N 0.01802 0.52168 0.41792 0.0
C619 C 0.0367 0.4953 0.42412 0.0
H620 H 1.00582 0.56261 0.44839 0.0
H621 H 0.06209 0.47943 0.46888 0.0
C622 C 0.98105 0.56775 0.53792 0.0
N623 N 0.04532 0.56476 0.60743 0.0
C624 C 0.06059 0.54746 0.63105 0.0
C625 C 0.03212 0.59065 0.62322 0.0
N626 N 0.05746 0.56132 0.66097 0.0
C627 C 0.03964 0.5886 0.65636 0.0
C628 C 0.05911 0.60022 0.51842 0.0
O629 O 0.99436 0.5542 0.51254 0.0
O630 O 0.99741 0.56913 0.56415 0.0
O631 O 0.05654 0.59395 0.54942 0.0
O632 O 0.05267 0.57875 0.49777 0.0
O633 O 0.08827 0.53694 0.56323 0.0
H634 H 0.01816 0.60979 0.61136 0.0
H635 H 0.07378 0.52496 0.62643 0.0
O636 O 0.08302 0.52277 0.5118 0.0
O637 O 0.02542 0.49726 0.52691 0.0
O638 O 0.0288 0.51223 0.57851 0.0
C639 C 0.02314 0.49069 0.55778 0.0
H640 H 0.04047 0.47508 0.40768 0.0
H641 H 0.03347 0.60619 0.67527 0.0
Co642 Co 0.80567 0.80347 0.29787 0.0
C643 C 0.78258 0.82431 0.23586 0.0
Co644 Co 0.75885 0.78284 0.28803 0.0
C645 C 0.86894 0.80249 0.32146 0.0
C646 C 0.85598 0.85013 0.30463 0.0
N647 N 0.84501 0.81985 0.30727 0.0
N648 N 0.89413 0.82064 0.32868 0.0
C649 C 0.88653 0.85065 0.31776 0.0
H650 H 0.86768 0.77692 0.32682 0.0
H651 H 0.84231 0.87054 0.29473 0.0
C652 C 0.78167 0.76162 0.34989 0.0
N653 N 0.71965 0.76594 0.2789 0.0
C654 C 0.69618 0.78102 0.26169 0.0
C655 C 0.7085 0.73618 0.28578 0.0
N656 N 0.67106 0.76188 0.25726 0.0
C657 C 0.67825 0.73367 0.27253 0.0
C658 C 0.81073 0.74669 0.26436 0.0
O659 O 0.80512 0.7797 0.341 0.0
O660 O 0.75853 0.75949 0.32997 0.0
O661 O 0.77997 0.7481 0.26714 0.0
O662 O 0.82709 0.76855 0.27678 0.0
O663 O 0.75935 0.80635 0.24563 0.0
H664 H 0.72188 0.71729 0.29867 0.0
H665 H 0.69762 0.80546 0.25202 0.0
O666 O 0.80618 0.82705 0.25524 0.0
O667 O 0.78435 0.83829 0.31862 0.0
O668 O 0.73729 0.81773 0.30894 0.0
C669 C 0.75354 0.83986 0.32109 0.0
H670 H 0.90141 0.87151 0.32021 0.0
H671 H 0.66332 0.7126 0.2729 0.0
Co672 Co 0.80415 0.26329 0.81537 0.0
C673 C 0.81668 0.20945 0.77825 0.0
Co674 Co 0.77664 0.26345 0.76977 0.0
C675 C 0.80895 0.2715 0.88431 0.0
C676 C 0.85405 0.2523 0.86399 0.0
N677 N 0.82376 0.26192 0.85569 0.0
N678 N 0.82846 0.26828 0.91035 0.0
C679 C 0.85713 0.25653 0.89773 0.0
H680 H 0.78467 0.28226 0.88564 0.0
H681 H 0.8728 0.24355 0.84657 0.0
C682 C 0.76441 0.31747 0.80675 0.0
N683 N 0.7572 0.26502 0.72945 0.0
C684 C 0.77393 0.25985 0.70067 0.0
C685 C 0.72644 0.27228 0.72068 0.0
N686 N 0.75531 0.26377 0.67416 0.0
C687 C 0.72514 0.27128 0.68635 0.0
C688 C 0.7416 0.23745 0.82053 0.0
O689 O 0.78611 0.30491 0.82493 0.0
O690 O 0.75636 0.303 0.78093 0.0
O691 O 0.74113 0.24226 0.78932 0.0
O692 O 0.7668 0.24451 0.83592 0.0
O693 O 0.79713 0.22336 0.75856 0.0
H694 H 0.70645 0.27807 0.73801 0.0
H695 H 0.79951 0.25282 0.69915 0.0
O696 O 0.82199 0.22247 0.80572 0.0
O697 O 0.84128 0.28204 0.79469 0.0
O698 O 0.81228 0.28524 0.75016 0.0
C699 C 0.83854 0.29039 0.76438 0.0
H700 H 0.87891 0.25222 0.91167 0.0
H701 H 0.70394 0.2759 0.67162 0.0
Co702 Co 0.7851 0.77642 0.80625 0.0
C703 C 0.85121 0.79144 0.81066 0.0
Co704 Co 0.79649 0.82083 0.77935 0.0
C705 C 0.76101 0.71353 0.81628 0.0
C706 C 0.78427 0.72935 0.85959 0.0
N707 N 0.77568 0.7389 0.8288 0.0
N708 N 0.76057 0.68822 0.83763 0.0
C709 C 0.77488 0.6981 0.86517 0.0
H710 H 0.75184 0.71322 0.79139 0.0
H711 H 0.79729 0.74384 0.87649 0.0
C712 C 0.73016 0.80441 0.7751 0.0
N713 N 0.80665 0.85802 0.75649 0.0
C714 C 0.82965 0.87855 0.76463 0.0
C715 C 0.79685 0.86828 0.72632 0.0
N716 N 0.83544 0.90059 0.74037 0.0
C717 C 0.81452 0.8947 0.71637 0.0
C718 C 0.80113 0.76702 0.73774 0.0
O719 O 0.73964 0.78202 0.79493 0.0
O720 O 0.75093 0.82537 0.7658 0.0
O721 O 0.80625 0.79699 0.7391 0.0
O722 O 0.79257 0.7525 0.76475 0.0
O723 O 0.84212 0.81575 0.79315 0.0
H724 H 0.77927 0.85634 0.71181 0.0
H725 H 0.84264 0.87678 0.78756 0.0
O726 O 0.83022 0.7702 0.81758 0.0
O727 O 0.77786 0.80066 0.84744 0.0
O728 O 0.78703 0.84521 0.81946 0.0
C729 C 0.78108 0.83113 0.84741 0.0
H730 H 0.77842 0.68384 0.88761 0.0
H731 H 0.81332 0.9075 0.69271 0.0
Co732 Co 0.53797 0.56056 0.52526 0.0
C733 C 0.53106 0.60767 0.57651 0.0
Co734 Co 0.54175 0.54031 0.57521 0.0
C735 C 0.51776 0.56843 0.45909 0.0
C736 C 0.54747 0.60732 0.47247 0.0
N737 N 0.53499 0.5794 0.48404 0.0
N738 N 0.51858 0.58847 0.43248 0.0
C739 C 0.53731 0.61303 0.44056 0.0
H740 H 0.50399 0.54657 0.46076 0.0
H741 H 0.56249 0.62271 0.48652 0.0
C742 C 0.54903 0.49348 0.5234 0.0
N743 N 0.54393 0.5206 0.61633 0.0
C744 C 0.56226 0.52746 0.64221 0.0
C745 C 0.52786 0.4939 0.62592 0.0
N746 N 0.55812 0.50609 0.66758 0.0
C747 C 0.5366 0.48488 0.6574 0.0
C748 C 0.47789 0.53838 0.55175 0.0
O749 O 0.54653 0.5185 0.50474 0.0
O750 O 0.5485 0.49779 0.55478 0.0
O751 O 0.49539 0.53355 0.57684 0.0
O752 O 0.49124 0.55125 0.52584 0.0
O753 O 0.53539 0.58305 0.59556 0.0
H754 H 0.51156 0.48119 0.61057 0.0
H755 H 0.5787 0.54738 0.64225 0.0
O756 O 0.52929 0.60267 0.54538 0.0
O757 O 0.58457 0.56969 0.52475 0.0
O758 O 0.58812 0.54718 0.574 0.0
C759 C 0.60182 0.56231 0.54967 0.0
H760 H 0.54316 0.63351 0.42464 0.0
H761 H 0.52885 0.46359 0.67111 0.0
Co762 Co 0.01988 0.54303 0.02744 0.0
C763 C 0.03357 0.60947 0.01674 0.0
Co764 Co 0.06409 0.55731 0.05086 0.0
C765 C 0.95832 0.51502 0.02245 0.0
C766 C 0.97117 0.54163 0.978 0.0
N767 N 0.98217 0.53245 0.00803 0.0
N768 N 0.9327 0.51299 0.00281 0.0
C769 C 0.94055 0.52967 0.97472 0.0
H770 H 0.95957 0.5043 0.04715 0.0
H771 H 0.9842 0.55671 0.96009 0.0
C772 C 0.04981 0.49094 0.06213 0.0
N773 N 0.10169 0.56813 0.07026 0.0
C774 C 0.12384 0.58811 0.05676 0.0
C775 C 0.11302 0.55932 0.10028 0.0
N776 N 0.14852 0.59234 0.07705 0.0
C777 C 0.14207 0.57426 0.10454 0.0
C778 C 0.01067 0.56303 0.0922 0.0
O779 O 0.02604 0.49827 0.04362 0.0
O780 O 0.06972 0.5131 0.06765 0.0
O781 O 0.04092 0.5676 0.08975 0.0
O782 O 0.99625 0.5526 0.06737 0.0
O783 O 0.05813 0.60191 0.03401 0.0
H784 H 0.10069 0.54357 0.11807 0.0
H785 H 0.12188 0.5995 0.03243 0.0
O786 O 0.01353 0.58737 0.01167 0.0
O787 O 0.04349 0.53392 0.98753 0.0
O788 O 0.08777 0.54726 0.01185 0.0
C789 C 0.07387 0.53852 0.98607 0.0
H790 H 0.92493 0.53387 0.95389 0.0
H791 H 0.1567 0.57277 0.12639 0.0
C792 C 0.04584 0.17856 0.12971 0.0
C793 C 0.02796 0.20358 0.11367 0.0
C794 C 0.04627 0.14618 0.11836 0.0
C795 C 0.02941 0.13719 0.08995 0.0
H796 H 0.05902 0.18385 0.15171 0.0
H797 H 0.06041 0.12813 0.13171 0.0
S798 S 0.97979 0.19346 0.03813 0.0
N799 N 0.99323 0.2165 0.06741 0.0
N800 N 0.9948 0.15696 0.04593 0.0
C801 C 0.01196 0.16216 0.07351 0.0
C802 C 0.01102 0.19478 0.08535 0.0
C803 C 0.15247 0.75487 0.32448 0.0
C804 C 0.14979 0.73606 0.3537 0.0
C805 C 0.18204 0.75646 0.30642 0.0
C806 C 0.2101 0.74021 0.31785 0.0
H807 H 0.13208 0.76987 0.31659 0.0
H808 H 0.18353 0.77317 0.28542 0.0
S809 S 0.21401 0.68368 0.39017 0.0
N810 N 0.17581 0.69719 0.39073 0.0
N811 N 0.23214 0.70111 0.35745 0.0
C812 C 0.20684 0.71886 0.34526 0.0
C813 C 0.17643 0.71666 0.36318 0.0
C814 C 0.57331 0.92646 0.61846 0.0
C815 C 0.55095 0.90147 0.6153 0.0
C816 C 0.57022 0.95636 0.60131 0.0
C817 C 0.54438 0.96348 0.57996 0.0
H818 H 0.59357 0.9231 0.63477 0.0
H819 H 0.58818 0.97432 0.60538 0.0
S820 S 0.47877 0.90684 0.56227 0.0
N821 N 0.5019 0.88623 0.58836 0.0
N822 N 0.49583 0.94216 0.55647 0.0
C823 C 0.52193 0.93861 0.57609 0.0
C824 C 0.52527 0.90786 0.59352 0.0
C825 C 0.47537 0.27875 0.84667 0.0
C826 C 0.49367 0.29731 0.86758 0.0
C827 C 0.44723 0.29153 0.83247 0.0
C828 C 0.43617 0.32325 0.83887 0.0
H829 H 0.48245 0.25394 0.84171 0.0
H830 H 0.43363 0.27624 0.81682 0.0
S831 S 0.47575 0.38224 0.89113 0.0
N832 N 0.49947 0.3496 0.89302 0.0
N833 N 0.44601 0.37324 0.8667 0.0
C834 C 0.45481 0.3425 0.85872 0.0
C835 C 0.48369 0.3296 0.87304 0.0
C836 C 0.01819 0.85865 0.49214 0.0
C837 C 0.04979 0.84604 0.48511 0.0
C838 C 0.01339 0.88895 0.50637 0.0
C839 C 0.04001 0.9075 0.51404 0.0
H840 H 0.99699 0.84576 0.48518 0.0
H841 H 0.98879 0.89861 0.50991 0.0
S842 S 0.12719 0.88251 0.50711 0.0
N843 N 0.10786 0.8524 0.49119 0.0
N844 N 0.09872 0.90944 0.51827 0.0
C845 C 0.07161 0.89427 0.5093 0.0
C846 C 0.07653 0.86347 0.49474 0.0
C847 C 0.4361 0.82185 0.73287 0.0
C848 C 0.44242 0.80054 0.70627 0.0
C849 C 0.40517 0.8237 0.74992 0.0
C850 C 0.37927 0.80395 0.74155 0.0
H851 H 0.45491 0.83779 0.74008 0.0
H852 H 0.40159 0.84074 0.76989 0.0
S853 S 0.38364 0.74277 0.67493 0.0
N854 N 0.42007 0.75852 0.67333 0.0
N855 N 0.36305 0.76165 0.70506 0.0
C856 C 0.38569 0.78212 0.71543 0.0
C857 C 0.41683 0.78052 0.69797 0.0
C858 C 0.55839 0.17444 0.96359 0.0
C859 C 0.57666 0.19519 0.98235 0.0
C860 C 0.55429 0.14242 0.97353 0.0
C861 C 0.56792 0.13019 0.00286 0.0
H862 H 0.54718 0.18295 0.94095 0.0
H863 H 0.5395 0.12748 0.95865 0.0
S864 S 0.61878 0.17436 0.06019 0.0
N865 N 0.60939 0.20112 0.03095 0.0
N866 N 0.6013 0.14081 0.05004 0.0
C867 C 0.58672 0.1505 0.02159 0.0
C868 C 0.59121 0.18305 0.01121 0.0
C869 C 0.14727 0.31778 0.23095 0.0
C870 C 0.1373 0.28724 0.22082 0.0
C871 C 0.17636 0.32152 0.2486 0.0
C872 C 0.19645 0.29485 0.25789 0.0
H873 H 0.13311 0.33912 0.22422 0.0
H874 H 0.1833 0.34558 0.25478 0.0
S875 S 0.18191 0.2097 0.23735 0.0
N876 N 0.15075 0.22986 0.22166 0.0
N877 N 0.20399 0.23685 0.25478 0.0
C878 C 0.18633 0.26426 0.24845 0.0
C879 C 0.15728 0.2605 0.23005 0.0
C880 C 0.13444 0.95674 0.22014 0.0
C881 C 0.15311 0.98195 0.23134 0.0
C882 C 0.11066 0.9624 0.19653 0.0
C883 C 0.10457 0.99349 0.18333 0.0
H884 H 0.13734 0.93262 0.2305 0.0
H885 H 0.09669 0.94231 0.18883 0.0
S886 S 0.14796 0.06761 0.20284 0.0
N887 N 0.16542 0.03896 0.22547 0.0
N888 N 0.1197 0.04966 0.18245 0.0
C889 C 0.12386 0.0187 0.19333 0.0
C890 C 0.14844 0.0129 0.21693 0.0
C891 C 0.28066 0.78679 0.4931 0.0
C892 C 0.30521 0.80367 0.50804 0.0
C893 C 0.28771 0.76796 0.46515 0.0
C894 C 0.3194 0.76595 0.4507 0.0
H895 H 0.25548 0.78986 0.50171 0.0
H896 H 0.26775 0.75709 0.45301 0.0
S897 S 0.39318 0.80162 0.48378 0.0
N898 N 0.3632 0.81349 0.50954 0.0
N899 N 0.37628 0.77911 0.45614 0.0
C900 C 0.34473 0.78 0.4675 0.0
C901 C 0.33762 0.79874 0.4964 0.0
C902 C 0.48905 0.06516 0.68496 0.0
C903 C 0.45495 0.06775 0.6878 0.0
C904 C 0.50524 0.06811 0.65399 0.0
C905 C 0.48781 0.07376 0.62493 0.0
H906 H 0.50331 0.06017 0.7067 0.0
H907 H 0.53149 0.06466 0.65273 0.0
S908 S 0.39865 0.08743 0.61971 0.0
N909 N 0.40445 0.07974 0.65954 0.0
N910 N 0.43511 0.08506 0.60111 0.0
C911 C 0.45383 0.07785 0.62758 0.0
C912 C 0.43731 0.07484 0.65911 0.0
C913 C 0.30489 0.23869 0.93753 0.0
C914 C 0.28209 0.21403 0.94205 0.0
C915 C 0.30726 0.25722 0.90749 0.0
C916 C 0.28664 0.25232 0.88068 0.0
H917 H 0.32162 0.24321 0.957 0.0
H918 H 0.32556 0.27547 0.90525 0.0
S919 S 0.22135 0.19208 0.88048 0.0
N920 N 0.2376 0.18681 0.91718 0.0
N921 N 0.24177 0.2213 0.86176 0.0
C922 C 0.26326 0.22824 0.88535 0.0
C923 C 0.26107 0.20928 0.91563 0.0
C924 C 0.07607 1.0032 0.37505 0.0
C925 C 0.0945 0.0247 0.35541 0.0
C926 C 0.0612 0.01326 0.40512 0.0
C927 C 0.06466 0.04498 0.4161 0.0
H928 H 0.07643 0.97781 0.3693 0.0
H929 H 0.05022 0.99515 0.42136 0.0
S930 S 0.102 0.11218 0.36771 0.0
N931 N 0.10932 0.08013 0.34462 0.0
N932 N 0.08072 0.09943 0.4008 0.0
C933 C 0.07849 0.06769 0.39384 0.0
C934 C 0.09375 0.05737 0.36347 0.0
C935 C 0.26183 0.88876 0.6649 0.0
C936 C 0.23744 0.87468 0.64669 0.0
C937 C 0.26846 0.878 0.69724 0.0
C938 C 0.25131 0.8524 0.71199 0.0
H939 H 0.27699 0.90714 0.65346 0.0
H940 H 0.28871 0.88807 0.70965 0.0
S941 S 0.18227 0.81047 0.67681 0.0
N942 N 0.19362 0.83652 0.64737 0.0
N943 N 0.20658 0.81577 0.70794 0.0
C944 C 0.22527 0.83983 0.69512 0.0
C945 C 0.21815 0.85115 0.66246 0.0
C946 C 0.44171 0.04641 0.86593 0.0
C947 C 0.45014 0.03306 0.83486 0.0
C948 C 0.46202 0.04192 0.89282 0.0
C949 C 0.49166 0.02433 0.88938 0.0
H950 H 0.41891 0.05981 0.86968 0.0
H951 H 0.45403 0.05165 0.91664 0.0
S952 S 0.52631 0.9878 0.81181 0.0
N953 N 0.49064 1.00332 0.80129 0.0
N954 N 0.52959 0.99583 0.85163 0.0
C955 C 0.5008 0.01176 0.85804 0.0
C956 C 0.47982 0.01589 0.8308 0.0
C957 C 0.31315 0.25829 0.13921 0.0
C958 C 0.30084 0.22758 0.13303 0.0
C959 C 0.31381 0.27086 0.17162 0.0
C960 C 0.30258 0.25339 0.20002 0.0
H961 H 0.32222 0.27317 0.11868 0.0
H962 H 0.32312 0.29477 0.17432 0.0
S963 S 0.26767 0.17179 0.19847 0.0
N964 N 0.27691 0.18001 0.1589 0.0
N965 N 0.2784 0.20336 0.21948 0.0
C966 C 0.29043 0.22249 0.19442 0.0
C967 C 0.28948 0.20974 0.1612 0.0
C968 C 0.17944 0.1141 0.0277 0.0
C969 C 0.20154 0.10291 0.05178 0.0
C970 C 0.14855 0.10011 0.0245 0.0
C971 C 0.13812 0.07415 0.04516 0.0
H972 H 0.18575 0.1343 0.01153 0.0
H973 H 0.13236 0.11037 0.00622 0.0
S974 S 0.18735 0.03385 0.11055 0.0
N975 N 0.21074 0.06274 0.09558 0.0
N976 N 0.15384 0.03669 0.08924 0.0
C977 C 0.16043 0.06211 0.06854 0.0
C978 C 0.19167 0.07635 0.07192 0.0
C979 C 0.66266 0.46825 0.02798 0.0
C980 C 0.68975 0.47836 0.04496 0.0
C981 C 0.63368 0.48651 0.02838 0.0
C982 C 0.63084 0.5157 0.04543 0.0
H983 H 0.66355 0.4458 0.01466 0.0
H984 H 0.61338 0.47769 0.01507 0.0
S985 S 0.69445 0.55345 0.09325 0.0
N986 N 0.71193 0.51991 0.07905 0.0
N987 N 0.65717 0.55438 0.07928 0.0
C988 C 0.65775 0.52659 0.06191 0.0
C989 C 0.6873 0.50783 0.06186 0.0
C990 C 0.78554 0.4985 0.26686 0.0
C991 C 0.80372 0.51771 0.2871 0.0
C992 C 0.77493 0.46857 0.2787 0.0
C993 C 0.78218 0.45743 0.31097 0.0
H994 H 0.78234 0.50508 0.24094 0.0
H995 H 0.76311 0.45302 0.26183 0.0
S996 S 0.82423 0.50193 0.37498 0.0
N997 N 0.8246 0.52615 0.34193 0.0
N998 N 0.80468 0.46976 0.36417 0.0
C999 C 0.79711 0.47814 0.33249 0.0
C1000 C 0.80796 0.50844 0.32045 0.0
C1001 C 0.89461 0.60149 0.5596 0.0
C1002 C 0.88695 0.62023 0.53109 0.0
C1003 C 0.92492 0.58455 0.56191 0.0
C1004 C 0.94847 0.58482 0.53542 0.0
H1005 H 0.87747 0.60064 0.58071 0.0
H1006 H 0.92991 0.57106 0.58456 0.0
S1007 S 0.94102 0.63023 0.45547 0.0
N1008 N 0.90621 0.638 0.47595 0.0
N1009 N 0.96206 0.60593 0.48008 0.0
C1010 C 0.94088 0.60302 0.5067 0.0
C1011 C 0.91051 0.62071 0.50459 0.0
C1012 C 0.25498 0.09969 0.33365 0.0
C1013 C 0.22236 0.09853 0.32433 0.0
C1014 C 0.2693 0.12912 0.33936 0.0
C1015 C 0.25141 0.1581 0.33584 0.0
H1016 H 0.26973 0.07781 0.33596 0.0
H1017 H 0.29472 0.12936 0.34549 0.0
S1018 S 0.16434 0.16813 0.31651 0.0
N1019 N 0.17188 0.12896 0.31484 0.0
N1020 N 0.1991 0.18417 0.32573 0.0
C1021 C 0.21859 0.1573 0.32784 0.0
C1022 C 0.20396 0.12748 0.32201 0.0
C1023 C 0.36077 0.95132 0.51095 0.0
C1024 C 0.34984 0.94965 0.54458 0.0
C1025 C 0.38421 0.97332 0.50012 0.0
C1026 C 0.39751 0.99436 0.52253 0.0
H1027 H 0.35134 0.93539 0.4928 0.0
H1028 H 0.3926 0.97331 0.47425 0.0
S1029 S 0.37569 1.00148 0.61257 0.0
N1030 N 0.35331 0.97203 0.59992 0.0
N1031 N 0.39692 0.0137 0.57926 0.0
C1032 C 0.38637 0.99348 0.55601 0.0
C1033 C 0.36267 0.971 0.56713 0.0
C1034 C 0.82588 0.66081 0.24052 0.0
C1035 C 0.85946 0.65982 0.23319 0.0
C1036 C 0.80982 0.68972 0.24832 0.0
C1037 C 0.82711 0.71832 0.24977 0.0
H1038 H 0.81226 0.63882 0.24182 0.0
H1039 H 0.78413 0.68915 0.25535 0.0
S1040 S 0.91491 0.72851 0.22865 0.0
N1041 N 0.90911 0.68964 0.22437 0.0
N1042 N 0.87898 0.74453 0.23972 0.0
C1043 C 0.86038 0.71797 0.2402 0.0
C1044 C 0.87661 0.68847 0.23168 0.0
C1045 C 0.69771 0.38128 0.81472 0.0
C1046 C 0.71239 0.40564 0.83217 0.0
C1047 C 0.7149 0.35288 0.80663 0.0
C1048 C 0.74714 0.34754 0.81631 0.0
H1049 H 0.67313 0.38459 0.80618 0.0
H1050 H 0.70279 0.33496 0.79265 0.0
S1051 S 0.79567 0.40282 0.86474 0.0
N1052 N 0.76044 0.42223 0.8602 0.0
N1053 N 0.79258 0.36814 0.84583 0.0
C1054 C 0.76172 0.37114 0.83493 0.0
C1055 C 0.74439 0.40043 0.8426 0.0
C1056 C 0.05878 0.89746 0.01498 0.0
C1057 C 0.04994 0.89088 0.9821 0.0
C1058 C 0.06007 0.92921 0.02705 0.0
C1059 C 0.05295 0.95657 0.00696 0.0
H1060 H 0.06461 0.87778 0.03196 0.0
H1061 H 0.06658 0.93222 0.05266 0.0
S1062 S 0.0283 0.9536 0.91886 0.0
N1063 N 0.03376 0.91532 0.92963 0.0
N1064 N 0.03641 0.9745 0.95199 0.0
C1065 C 0.04422 0.95049 0.97391 0.0
C1066 C 0.04265 0.918 0.96165 0.0
C1067 C 0.92429 0.29563 0.72882 0.0
C1068 C 0.91988 0.31233 0.69844 0.0
C1069 C 0.89809 0.29059 0.75137 0.0
C1070 C 0.86655 0.30168 0.74404 0.0
H1071 H 0.94807 0.28595 0.73508 0.0
H1072 H 0.90232 0.27651 0.77384 0.0
S1073 S 0.84239 0.34873 0.66909 0.0
N1074 N 0.88189 0.34168 0.66321 0.0
N1075 N 0.83254 0.33182 0.70544 0.0
C1076 C 0.86201 0.3195 0.71439 0.0
C1077 C 0.88872 0.32493 0.6916 0.0
C1078 C 0.54516 0.20107 0.48253 0.0
C1079 C 0.51635 0.2119 0.46711 0.0
C1080 C 0.548 0.16998 0.49794 0.0
C1081 C 0.52235 0.14781 0.4985 0.0
H1082 H 0.56575 0.21675 0.48283 0.0
H1083 H 0.57075 0.16317 0.50924 0.0
S1084 S 0.44176 0.16346 0.46142 0.0
N1085 N 0.46157 0.19691 0.45358 0.0
N1086 N 0.4671 0.13953 0.4818 0.0
C1087 C 0.49355 0.15833 0.48307 0.0
C1088 C 0.49054 0.1899 0.46768 0.0
C1089 C 0.58568 0.78025 0.23359 0.0
C1090 C 0.58994 0.79006 0.20004 0.0
C1091 C 0.6123 0.76981 0.252 0.0
C1092 C 0.6438 0.76965 0.23751 0.0
H1093 H 0.56161 0.78027 0.24555 0.0
H1094 H 0.60848 0.7626 0.27787 0.0
S1095 S 0.66796 0.79316 0.15098 0.0
N1096 N 0.62796 0.79861 0.15307 0.0
N1097 N 0.67817 0.77981 0.18825 0.0
C1098 C 0.64842 0.77937 0.20414 0.0
C1099 C 0.62136 0.78937 0.18519 0.0
C1100 C 0.06303 0.23031 0.57784 0.0
C1101 C 0.04056 0.25091 0.56174 0.0
C1102 C 0.08179 0.20748 0.56024 0.0
C1103 C 0.07866 0.20381 0.52592 0.0
H1104 H 0.06592 0.2313 0.60447 0.0
H1105 H 0.0978 0.19127 0.57384 0.0
S1106 S 0.02422 0.25175 0.4715 0.0
N1107 N 0.01731 0.26697 0.5089 0.0
N1108 N 0.05213 0.22276 0.476 0.0
C1109 C 0.05725 0.22476 0.50908 0.0
C1110 C 0.03823 0.24853 0.52699 0.0
C1111 C 0.64513 0.31842 0.35434 0.0
C1112 C 0.62923 0.28872 0.35606 0.0
C1113 C 0.67633 0.32157 0.33854 0.0
C1114 C 0.69325 0.29529 0.32324 0.0
H1115 H 0.63369 0.33941 0.36588 0.0
H1116 H 0.68736 0.34495 0.33852 0.0
S1117 S 0.66229 0.2123 0.31938 0.0
N1118 N 0.63308 0.23247 0.33999 0.0
N1119 N 0.6909 0.23853 0.31044 0.0
C1120 C 0.67738 0.26561 0.32422 0.0
C1121 C 0.64576 0.26231 0.34052 0.0
C1122 C 0.5013 0.92353 0.11892 0.0
C1123 C 0.51603 0.89666 0.1031 0.0
C1124 C 0.50178 0.95392 0.10366 0.0
C1125 C 0.51628 0.9582 0.07182 0.0
H1126 H 0.49046 0.92138 0.14383 0.0
H1127 H 0.49151 0.97435 0.1172 0.0
S1128 S 0.55619 0.89526 0.01895 0.0
N1129 N 0.54415 0.87588 0.0533 0.0
N1130 N 0.54457 0.93322 0.02428 0.0
C1131 C 0.52975 0.93134 0.05504 0.0
C1132 C 0.52981 0.90045 0.07083 0.0
C1133 C 0.93431 0.81391 0.84533 0.0
C1134 C 0.94748 0.7842 0.85705 0.0
C1135 C 0.90392 0.81604 0.82944 0.0
C1136 C 0.88485 0.78866 0.82505 0.0
H1137 H 0.94774 0.8357 0.84807 0.0
H1138 H 0.895 0.8395 0.82116 0.0
S1139 S 0.90753 0.70523 0.85214 0.0
N1140 N 0.93832 0.72682 0.86322 0.0
N1141 N 0.88183 0.73089 0.83444 0.0
C1142 C 0.89771 0.75895 0.83694 0.0
C1143 C 0.92871 0.75672 0.85256 0.0
C1144 C 1.0028 0.07507 0.84143 0.0
C1145 C 0.97096 0.06352 0.84039 0.0
C1146 C 0.01652 0.08197 0.87165 0.0
C1147 C 0.9991 0.07713 0.90187 0.0
H1148 H 0.01718 0.07932 0.8187 0.0
H1149 H 0.0411 0.09071 0.87146 0.0
S1150 S 0.91512 0.04755 0.91316 0.0
N1151 N 0.92236 0.0477 0.87245 0.0
N1152 N 0.94854 0.06056 0.92942 0.0
C1153 C 0.9674 0.06547 0.90139 0.0
C1154 C 0.95321 0.05872 0.87058 0.0
C1155 C 0.8139 0.25477 0.60208 0.0
C1156 C 0.79879 0.23191 0.58303 0.0
C1157 C 0.79807 0.2675 0.63043 0.0
C1158 C 0.76666 0.25788 0.64066 0.0
H1159 H 0.83871 0.26163 0.59619 0.0
H1160 H 0.81123 0.28353 0.6457 0.0
S1161 S 0.71432 0.20304 0.59634 0.0
N1162 N 0.74867 0.20363 0.57374 0.0
N1163 N 0.71949 0.22728 0.6277 0.0
C1164 C 0.75014 0.23733 0.62032 0.0
C1165 C 0.76616 0.22431 0.59135 0.0
C1166 C 0.58265 0.0357 0.39342 0.0
C1167 C 0.61687 0.03585 0.39217 0.0
C1168 C 0.56516 0.03533 0.42388 0.0
C1169 C 0.58135 0.03509 0.45406 0.0
H1170 H 0.56918 0.03633 0.37074 0.0
H1171 H 0.53879 0.03629 0.4237 0.0
S1172 S 0.67079 0.03247 0.4645 0.0
N1173 N 0.6664 0.03375 0.42386 0.0
N1174 N 0.63348 0.03283 0.48106 0.0
C1175 C 0.61559 0.03409 0.45321 0.0
C1176 C 0.63338 0.03461 0.42226 0.0
C1177 C 0.75141 0.85596 0.15191 0.0
C1178 C 0.77765 0.873 0.13708 0.0
C1179 C 0.75341 0.84054 0.18339 0.0
C1180 C 0.78169 0.84136 0.20221 0.0
H1181 H 0.72882 0.85439 0.13907 0.0
H1182 H 0.73228 0.82794 0.19313 0.0
S1183 S 0.85773 0.88252 0.17529 0.0
N1184 N 0.83323 0.88947 0.14413 0.0
N1185 N 0.83692 0.86084 0.20314 0.0
C1186 C 0.80824 0.85828 0.18778 0.0
C1187 C 0.80627 0.87389 0.15542 0.0
C1188 C 0.04479 0.04378 0.66343 0.0
C1189 C 0.03862 0.0747 0.67603 0.0
C1190 C 0.06005 0.03962 0.63224 0.0
C1191 C 0.06918 0.06633 0.6124 0.0
H1192 H 0.03561 0.02276 0.6767 0.0
H1193 H 0.06198 0.01548 0.62245 0.0
S1194 S 0.06525 0.15182 0.63784 0.0
N1195 N 0.048 0.13198 0.66952 0.0
N1196 N 0.0768 0.12431 0.61037 0.0
C1197 C 0.06708 0.09708 0.62663 0.0
C1198 C 0.0516 0.10126 0.65867 0.0
C1199 C 0.82478 0.21839 0.40039 0.0
C1200 C 0.82307 0.23562 0.43017 0.0
C1201 C 0.82204 0.23427 0.36969 0.0
C1202 C 0.81769 0.26795 0.36771 0.0
H1203 H 0.82653 0.19232 0.40078 0.0
H1204 H 0.82185 0.21982 0.34752 0.0
S1205 S 0.8176 0.32443 0.43828 0.0
N1206 N 0.82106 0.2883 0.45576 0.0
N1207 N 0.81611 0.31834 0.3979 0.0
C1208 C 0.81862 0.28566 0.39715 0.0
C1209 C 0.8212 0.26942 0.42846 0.0
C1210 C 0.60445 0.00641 0.2203 0.0
C1211 C 0.62531 0.02668 0.23662 0.0
C1212 C 0.58494 0.01838 0.19481 0.0
C1213 C 0.58539 0.05102 0.18499 0.0
H1214 H 0.60333 0.98109 0.227 0.0
H1215 H 0.5695 1.00197 0.18248 0.0
S1216 S 0.63575 0.11421 0.21909 0.0
N1217 N 0.64511 0.08133 0.24072 0.0
N1218 N 0.60844 0.1033 0.19277 0.0
C1219 C 0.60572 0.07163 0.2012 0.0
C1220 C 0.62574 0.05956 0.22698 0.0
C1221 C 0.78476 0.90229 0.90705 0.0
C1222 C 0.78654 0.88804 0.93921 0.0
C1223 C 0.78224 0.88386 0.87812 0.0
C1224 C 0.78102 0.84996 0.87944 0.0
H1225 H 0.78564 0.92819 0.90392 0.0
H1226 H 0.78153 0.89651 0.85432 0.0
S1227 S 0.7842 0.80006 0.9572 0.0
N1228 N 0.78648 0.83735 0.97034 0.0
N1229 N 0.78155 0.80284 0.91631 0.0
C1230 C 0.78234 0.83524 0.91146 0.0
C1231 C 0.78516 0.85413 0.94108 0.0
C1232 C 0.89307 1.00399 0.0397 0.0
C1233 C 0.89316 0.97152 0.05114 0.0
C1234 C 0.92142 0.02299 0.04026 0.0
C1235 C 0.951 0.01054 0.05279 0.0
H1236 H 0.87087 0.01495 0.03051 0.0
H1237 H 0.92001 0.0477 0.03127 0.0
S1238 S 0.96618 0.92596 0.0809 0.0
N1239 N 0.92727 0.92737 0.07218 0.0
N1240 N 0.97927 0.96258 0.07316 0.0
C1241 C 0.95162 0.97794 0.06307 0.0
C1242 C 0.92317 0.95866 0.06231 0.0
C1243 C 0.39909 0.60526 0.02316 0.0
C1244 C 0.39553 0.63771 0.03245 0.0
C1245 C 0.42899 0.58859 0.0253 0.0
C1246 C 0.45652 0.60386 0.03643 0.0
H1247 H 0.37863 0.59254 0.0141 0.0
H1248 H 0.43061 0.5637 0.01768 0.0
S1249 S 0.45988 0.68822 0.06499 0.0
N1250 N 0.42191 0.68425 0.05416 0.0
N1251 N 0.47814 0.65302 0.05802 0.0
C1252 C 0.45324 0.63621 0.0462 0.0
C1253 C 0.42273 0.6531 0.04428 0.0
C1254 C 0.24309 0.61037 0.72824 0.0
C1255 C 0.2511 0.59475 0.75828 0.0
C1256 C 0.25262 0.64194 0.72149 0.0
C1257 C 0.27048 0.65851 0.74453 0.0
H1258 H 0.22723 0.59921 0.71114 0.0
H1259 H 0.24404 0.65419 0.69934 0.0
S1260 S 0.30426 0.62511 0.82253 0.0
N1261 N 0.28241 0.59589 0.80836 0.0
N1262 N 0.30106 0.65508 0.79517 0.0
C1263 C 0.28153 0.64189 0.77284 0.0
C1264 C 0.27166 0.60994 0.77983 0.0
C1265 C 0.17866 0.48472 0.49959 0.0
C1266 C 0.19978 0.48113 0.52636 0.0
C1267 C 0.14738 0.49897 0.50347 0.0
C1268 C 0.13515 0.5106 0.53437 0.0
H1269 H 0.18611 0.47611 0.47512 0.0
H1270 H 0.13253 0.50055 0.48175 0.0
S1271 S 0.18042 0.50802 0.61278 0.0
N1272 N 0.20611 0.49116 0.58522 0.0
N1273 N 0.14729 0.518 0.59247 0.0
C1274 C 0.15608 0.50776 0.56144 0.0
C1275 C 0.18825 0.4931 0.55746 0.0
C1276 C 0.87837 0.97824 0.72756 0.0
C1277 C 0.90961 0.97084 0.73944 0.0
C1278 C 0.85444 0.955 0.72734 0.0
C1279 C 0.86078 0.92363 0.73921 0.0
H1280 H 0.87207 1.00232 0.71873 0.0
H1281 H 0.83055 0.96177 0.71863 0.0
S1282 S 0.93915 0.89076 0.77001 0.0
N1283 N 0.94601 0.92906 0.76149 0.0
N1284 N 0.90094 0.88535 0.76069 0.0
C1285 C 0.89208 0.9155 0.75017 0.0
C1286 C 0.91654 0.93912 0.75035 0.0
C1287 C 0.73016 0.10338 0.53047 0.0
C1288 C 0.72822 0.13372 0.51423 0.0
C1289 C 0.70308 0.09065 0.54759 0.0
C1290 C 0.6732 0.10768 0.54878 0.0
H1291 H 0.75289 0.08955 0.53055 0.0
H1292 H 0.70529 0.06709 0.5594 0.0
S1293 S 0.65476 0.18759 0.51052 0.0
N1294 N 0.69348 0.18018 0.50032 0.0
N1295 N 0.64277 0.15604 0.53282 0.0
C1296 C 0.67073 0.13778 0.53258 0.0
C1297 C 0.69818 0.15082 0.51514 0.0
C1298 C 0.24318 0.43561 0.83641 0.0
C1299 C 0.20908 0.43763 0.83593 0.0
C1300 C 0.25972 0.40616 0.83313 0.0
C1301 C 0.24266 0.37782 0.82875 0.0
H1302 H 0.25731 0.45717 0.83776 0.0
H1303 H 0.2861 0.40609 0.83179 0.0
S1304 S 0.15294 0.36972 0.83214 0.0
N1305 N 0.15848 0.4087 0.83574 0.0
N1306 N 0.18973 0.35279 0.82911 0.0
C1307 C 0.20843 0.37909 0.83125 0.0
C1308 C 0.19153 0.40923 0.83501 0.0
C1309 C 0.39748 0.69763 0.24486 0.0
C1310 C 0.38464 0.672 0.22775 0.0
C1311 C 0.37723 0.72306 0.25586 0.0
C1312 C 0.34396 0.72391 0.24913 0.0
H1313 H 0.42243 0.69651 0.25271 0.0
H1314 H 0.38722 0.74122 0.27129 0.0
S1315 S 0.30021 0.66589 0.19973 0.0
N1316 N 0.33786 0.65097 0.20086 0.0
N1317 N 0.29997 0.6999 0.22045 0.0
C1318 C 0.33165 0.70045 0.22887 0.0
C1319 C 0.35207 0.6741 0.21836 0.0
C1320 C 0.52196 0.70055 0.57802 0.0
C1321 C 0.53243 0.7095 0.60966 0.0
C1322 C 0.52115 0.66805 0.56812 0.0
C1323 C 0.53036 0.6421 0.58929 0.0
H1324 H 0.51441 0.71895 0.56027 0.0
H1325 H 0.51323 0.6633 0.54331 0.0
S1326 S 0.5597 0.65132 0.67503 0.0
N1327 N 0.55233 0.68877 0.66229 0.0
N1328 N 0.55053 0.6281 0.64396 0.0
C1329 C 0.54068 0.6505 0.62118 0.0
C1330 C 0.5418 0.68384 0.63121 0.0
C1331 C 0.67817 0.24607 0.88927 0.0
C1332 C 0.64936 0.24047 0.87292 0.0
C1333 C 0.70848 0.24146 0.87307 0.0
C1334 C 0.71095 0.23187 0.83963 0.0
H1335 H 0.67728 0.25517 0.91441 0.0
H1336 H 0.72987 0.24787 0.88614 0.0
S1337 S 0.64267 0.20965 0.78754 0.0
N1338 N 0.62497 0.221 0.82315 0.0
N1339 N 0.68218 0.21308 0.79212 0.0
C1340 C 0.68238 0.22372 0.8239 0.0
C1341 C 0.65146 0.22791 0.84069 0.0
C1342 C 0.03146 0.40391 0.09383 0.0
C1343 C 0.05679 0.39643 0.1158 0.0
C1344 C 0.02965 0.43388 0.07603 0.0
C1345 C 0.05324 0.45786 0.07899 0.0
H1346 H 0.01222 0.38696 0.0912 0.0
H1347 H 1.00912 0.43854 0.06035 0.0
S1348 S 0.1263 0.44927 0.13075 0.0
N1349 N 0.10716 0.41525 0.13752 0.0
N1350 N 0.10397 0.4704 0.10448 0.0
C1351 C 0.07927 0.45002 0.09993 0.0
C1352 C 0.08097 0.4198 0.11811 0.0
C1353 C 0.98109 0.80725 0.35079 0.0
C1354 C 0.9786 0.78515 0.37775 0.0
C1355 C 0.95331 0.81944 0.33529 0.0
C1356 C 0.92222 0.80986 0.34618 0.0
H1357 H 1.00466 0.81506 0.34136 0.0
H1358 H 0.95613 0.83586 0.3142 0.0
S1359 S 0.90199 0.75512 0.41751 0.0
N1360 N 0.94215 0.75569 0.41578 0.0
N1361 N 0.89006 0.77907 0.38683 0.0
C1362 C 0.91926 0.78849 0.37357 0.0
C1363 C 0.94744 0.77597 0.38929 0.0
C1364 C 0.55284 0.37764 0.98439 0.0
C1365 C 0.54212 0.34943 1.00054 0.0
C1366 C 0.54235 0.40784 0.99551 0.0
C1367 C 0.52117 0.41126 0.02358 0.0
H1368 H 0.56851 0.37651 0.96213 0.0
H1369 H 0.55052 0.42869 0.98143 0.0
S1370 S 0.48831 0.34462 0.07646 0.0
N1371 N 0.51019 0.32637 0.04671 0.0
N1372 N 0.49149 0.38361 0.0687 0.0
C1373 C 0.5109 0.38321 0.04063 0.0
C1374 C 0.52122 0.3522 0.02886 0.0
C1375 C 0.92926 0.34784 0.23102 0.0
C1376 C 0.94632 0.32082 0.21727 0.0
C1377 C 0.89717 0.34588 0.24495 0.0
C1378 C 0.88016 0.31685 0.24559 0.0
H1379 H 0.94074 0.37098 0.23098 0.0
H1380 H 0.88546 0.36749 0.2549 0.0
S1381 S 0.9135 0.23861 0.21347 0.0
N1382 N 0.94334 0.26381 0.20593 0.0
N1383 N 0.88361 0.26004 0.23151 0.0
C1384 C 0.89703 0.28955 0.23215 0.0
C1385 C 0.92979 0.29152 0.21824 0.0
C1386 C 0.06552 0.67224 0.46078 0.0
C1387 C 0.07769 0.69605 0.481 0.0
C1388 C 0.06045 0.6412 0.47304 0.0
C1389 C 0.06706 0.63273 0.50615 0.0
H1390 H 0.05976 0.67752 0.43512 0.0
H1391 H 0.0506 0.62395 0.45648 0.0
S1392 S 0.09996 0.686 0.56923 0.0
N1393 N 0.09696 0.70909 0.53552 0.0
N1394 N 0.08709 0.65034 0.55895 0.0
C1395 C 0.07964 0.65612 0.52667 0.0
C1396 C 0.08511 0.68787 0.51398 0.0
C1397 C 0.64467 0.77529 0.75567 0.0
C1398 C 0.63331 0.79658 0.73049 0.0
C1399 C 0.67512 0.77872 0.77031 0.0
C1400 C 0.69636 0.80369 0.76081 0.0
H1401 H 0.63002 0.75526 0.76412 0.0
H1402 H 0.68227 0.76104 0.789 0.0
S1403 S 0.6787 0.86685 0.69658 0.0
N1404 N 0.64616 0.84434 0.69727 0.0
N1405 N 0.70309 0.85073 0.7245 0.0
C1406 C 0.68521 0.8256 0.73603 0.0
C1407 C 0.65397 0.82209 0.72105 0.0
C1408 C 0.6269 0.50699 0.72597 0.0
C1409 C 0.61197 0.49715 0.75644 0.0
C1410 C 0.609 0.51045 0.69716 0.0
C1411 C 0.57562 0.50413 0.69776 0.0
H1412 H 0.65266 0.51189 0.72421 0.0
H1413 H 0.62148 0.51742 0.67407 0.0
S1414 S 0.5243 0.47999 0.77129 0.0
N1415 N 0.56125 0.48249 0.78559 0.0
N1416 N 0.5278 0.48936 0.73124 0.0
C1417 C 0.56021 0.49485 0.72801 0.0
C1418 C 0.57834 0.49128 0.75741 0.0
C1419 C 0.83586 0.32057 0.98384 0.0
C1420 C 0.80322 0.32354 0.99545 0.0
C1421 C 0.84481 0.30007 0.95762 0.0
C1422 C 0.82142 0.28173 0.94254 0.0
H1423 H 0.85416 0.33594 0.99328 0.0
H1424 H 0.86955 0.30054 0.94741 0.0
S1425 S 0.73455 0.27508 0.96947 0.0
N1426 N 0.74865 0.30272 0.99376 0.0
N1427 N 0.76578 0.26318 0.94527 0.0
C1428 C 0.78954 0.28184 0.95651 0.0
C1429 C 0.78032 0.30308 0.98275 0.0
C1430 C 0.94602 0.55425 0.16028 0.0
C1431 C 0.96086 0.5667 0.18809 0.0
C1432 C 0.96192 0.55423 0.12906 0.0
C1433 C 0.99331 0.56645 0.12456 0.0
H1434 H 0.9218 0.54461 0.16248 0.0
H1435 H 0.94966 0.54398 0.10848 0.0
S1436 S 0.04275 0.60199 0.18943 0.0
N1437 N 1.00862 0.5917 0.20926 0.0
N1438 N 0.03863 0.59179 0.15036 0.0
C1439 C 1.00839 0.57923 0.15211 0.0
C1440 C 0.99215 0.57927 0.18395 0.0
C1441 C 0.8024 0.73167 0.43888 0.0
C1442 C 0.7803 0.70671 0.44551 0.0
C1443 C 0.80294 0.74922 0.40813 0.0
C1444 C 0.78107 0.74298 0.38273 0.0
H1445 H 0.81996 0.73722 0.45724 0.0
H1446 H 0.82063 0.76787 0.40428 0.0
S1447 S 0.71719 0.68119 0.38817 0.0
N1448 N 0.7353 0.67759 0.42406 0.0
N1449 N 0.73605 0.71023 0.3674 0.0
C1450 C 0.75849 0.71851 0.38951 0.0
C1451 C 0.75819 0.70054 0.42045 0.0
C1452 C 0.60121 0.57308 0.90017 0.0
C1453 C 0.60782 0.54165 0.88912 0.0
C1454 C 0.58031 0.57866 0.92783 0.0
C1455 C 0.56503 0.55301 0.94498 0.0
H1456 H 0.61383 0.59324 0.88875 0.0
H1457 H 0.57772 0.60298 0.93704 0.0
S1458 S 0.56911 0.4671 0.92072 0.0
N1459 N 0.59395 0.48528 0.89369 0.0
N1460 N 0.55403 0.49561 0.94537 0.0
C1461 C 0.56887 0.52188 0.93186 0.0
C1462 C 0.59059 0.5162 0.90404 0.0
C1463 C 0.73329 0.33728 0.14326 0.0
C1464 C 0.74182 0.36848 0.133 0.0
C1465 C 0.7391 0.32613 0.17557 0.0
C1466 C 0.75314 0.346 0.19879 0.0
H1467 H 0.72368 0.32078 0.12576 0.0
H1468 H 0.73352 0.3014 0.18204 0.0
S1469 S 0.77558 0.43129 0.1852 0.0
N1470 N 0.76195 0.42021 0.14914 0.0
N1471 N 0.77251 0.39942 0.21015 0.0
C1472 C 0.75965 0.37803 0.18946 0.0
C1473 C 0.75412 0.38922 0.15643 0.0
C1474 C 0.99054 0.52353 0.33014 0.0
C1475 C 0.95877 0.53661 0.33379 0.0
C1476 C 1.00996 0.51901 0.35778 0.0
C1477 C 0.99804 0.52719 0.38982 0.0
H1478 H 1.00053 0.51706 0.30576 0.0
H1479 H 0.0345 0.50923 0.35414 0.0
S1480 S 0.91478 0.55809 0.41276 0.0
N1481 N 0.91532 0.55551 0.3718 0.0
N1482 N 0.95145 0.54605 0.42398 0.0
C1483 C 0.96595 0.5395 0.39382 0.0
C1484 C 0.94638 0.54445 0.36568 0.0
C1485 C 0.82021 0.75076 0.64497 0.0
C1486 C 0.80349 0.72241 0.63847 0.0
C1487 C 0.81964 0.76448 0.67691 0.0
C1488 C 0.80286 0.75033 0.7045 0.0
H1489 H 0.83376 0.76287 0.62502 0.0
H1490 H 0.83258 0.78653 0.67995 0.0
S1491 S 0.75523 0.67567 0.70171 0.0
N1492 N 0.76946 0.68064 0.663 0.0
N1493 N 0.7689 0.7059 0.72284 0.0
C1494 C 0.78626 0.72175 0.69856 0.0
C1495 C 0.78639 0.70801 0.66576 0.0
C1496 C 0.68025 0.6102 0.53226 0.0
C1497 C 0.6995 0.60264 0.55992 0.0
C1498 C 0.64943 0.59636 0.52847 0.0
C1499 C 0.63625 0.5741 0.55206 0.0
H1500 H 0.68867 0.62757 0.51367 0.0
H1501 H 0.63547 0.60385 0.5072 0.0
S1502 S 0.67761 0.544 0.62778 0.0
N1503 N 0.70331 0.56969 0.61042 0.0
N1504 N 0.64626 0.54404 0.60331 0.0
C1505 C 0.65573 0.5656 0.57924 0.0
C1506 C 0.68697 0.57969 0.58314 0.0
C1507 C 0.20351 1.00098 0.53992 0.0
C1508 C 0.20769 0.97146 0.52337 0.0
C1509 C 0.17756 0.02219 0.53287 0.0
C1510 C 0.15506 0.01442 0.50915 0.0
H1511 H 0.21938 0.0071 0.55965 0.0
H1512 H 0.17382 0.04361 0.54767 0.0
S1513 S 0.15907 0.94419 0.45368 0.0
N1514 N 0.19014 0.9384 0.47824 0.0
N1515 N 0.14085 0.97818 0.46565 0.0
C1516 C 0.16032 0.98642 0.49058 0.0
C1517 C 0.18683 0.96491 0.49752 0.0
C1518 C 0.30044 0.99489 0.79581 0.0
C1519 C 0.31921 0.0128 0.81684 0.0
C1520 C 0.29309 0.96306 0.80384 0.0
C1521 C 0.30461 0.9481 0.83292 0.0
H1522 H 0.29314 0.0049 0.77204 0.0
H1523 H 0.2797 0.94955 0.78635 0.0
S1524 S 0.35235 0.98567 0.89754 0.0
N1525 N 0.34683 0.01447 0.86929 0.0
N1526 N 0.33346 0.95415 0.88405 0.0
C1527 C 0.32125 0.96649 0.8554 0.0
C1528 C 0.32847 0.99908 0.84741 0.0
C1529 C 0.39567 0.10339 0.02209 0.0
C1530 C 0.38599 0.11971 0.05151 0.0
C1531 C 0.4261 0.08645 0.01899 0.0
C1532 C 0.4481 0.08477 0.04529 0.0
H1533 H 0.38011 0.10456 1.0009 0.0
H1534 H 0.43264 0.07508 0.99555 0.0
S1535 S 0.43292 0.12068 0.12883 0.0
N1536 N 0.40022 0.1311 0.10817 0.0
N1537 N 0.45634 0.09949 0.10267 0.0
C1538 C 0.43796 0.10002 0.07521 0.0
C1539 C 0.40731 0.11735 0.07821 0.0
C1540 C 0.70978 0.62439 0.80282 0.0
C1541 C 0.72466 0.59579 0.81471 0.0
C1542 C 0.72147 0.6544 0.81083 0.0
C1543 C 0.74859 0.65698 0.83082 0.0
H1544 H 0.68838 0.62373 0.78793 0.0
H1545 H 0.70886 0.67581 0.80167 0.0
S1546 S 0.79825 0.5893 0.86545 0.0
N1547 N 0.76903 0.57176 0.84596 0.0
N1548 N 0.79151 0.6284 0.86031 0.0
C1549 C 0.76426 0.62859 0.84218 0.0
C1550 C 0.75221 0.59794 0.83422 0.0
C1551 C 0.8624 0.48213 0.05459 0.0
C1552 C 0.84594 0.46378 0.03186 0.0
C1553 C 0.89028 0.49872 0.04464 0.0
C1554 C 0.90276 0.49756 0.01163 0.0
H1555 H 0.85386 0.48361 0.08037 0.0
H1556 H 0.90225 0.51253 0.06298 0.0
S1557 S 0.86909 0.45289 0.94238 0.0
N1558 N 0.84411 0.44558 0.9746 0.0
N1559 N 0.89694 0.47666 0.95621 0.0
C1560 C 0.88638 0.47978 0.98846 0.0
C1561 C 0.85788 0.46287 0.99852 0.0
C1562 C 0.39181 0.19354 0.76283 0.0
C1563 C 0.37529 0.16792 0.74962 0.0
C1564 C 0.37667 0.22387 0.76545 0.0
C1565 C 0.3447 0.22923 0.75481 0.0
H1566 H 0.41545 0.18962 0.7735 0.0
H1567 H 0.3892 0.24243 0.77809 0.0
S1568 S 0.29511 0.17171 0.71029 0.0
N1569 N 0.32836 0.15096 0.71996 0.0
N1570 N 0.29981 0.20823 0.72455 0.0
C1571 C 0.32964 0.20472 0.73792 0.0
C1572 C 0.34499 0.17386 0.73546 0.0
C1573 C 0.23709 0.90824 0.37306 0.0
C1574 C 0.20433 0.91324 0.36496 0.0
C1575 C 0.25372 0.87945 0.36507 0.0
C1576 C 0.23801 0.85548 0.34818 0.0
H1577 H 0.25066 0.92773 0.38287 0.0
H1578 H 0.27962 0.8773 0.36908 0.0
S1579 S 0.15117 0.85445 0.32721 0.0
N1580 N 0.15555 0.88991 0.34419 0.0
N1581 N 0.18727 0.83605 0.32821 0.0
C1582 C 0.20453 0.85876 0.34322 0.0
C1583 C 0.18743 0.88769 0.35203 0.0
C1584 C 0.54005 0.42211 0.46338 0.0
C1585 C 0.5505 0.3947 0.48192 0.0
C1586 C 0.5403 0.45373 0.47649 0.0
C1587 C 0.55046 0.45969 0.50909 0.0
H1588 H 0.53215 0.41924 0.43822 0.0
H1589 H 0.53204 0.47368 0.46096 0.0
S1590 S 0.57906 0.39649 0.56873 0.0
N1591 N 0.57089 0.37624 0.53521 0.0
N1592 N 0.57064 0.43464 0.55964 0.0
C1593 C 0.56046 0.43243 0.52799 0.0
C1594 C 0.56069 0.40041 0.51453 0.0
C1595 C 0.39719 0.87037 0.23676 0.0
C1596 C 0.42604 0.85298 0.2432 0.0
C1597 C 0.36857 0.864 0.25533 0.0
C1598 C 0.36835 0.84044 0.28099 0.0
H1599 H 0.39597 0.88653 0.21534 0.0
H1600 H 0.34601 0.87551 0.24766 0.0
S1601 S 0.44005 0.7943 0.31193 0.0
N1602 N 0.45444 0.81561 0.27984 0.0
N1603 N 0.40093 0.80421 0.31563 0.0
C1604 C 0.39817 0.82622 0.29036 0.0
C1605 C 0.42704 0.83226 0.27104 0.0
C1606 C 0.04895 0.69748 0.98667 0.0
C1607 C 0.01989 0.70708 0.97101 0.0
C1608 C 0.05311 0.66642 1.00179 0.0
C1609 C 0.02856 0.64312 1.00178 0.0
H1610 H 0.06876 0.71408 0.98729 0.0
H1611 H 0.07601 0.66051 0.01323 0.0
S1612 S 0.9478 0.65542 0.96398 0.0
N1613 N 0.96609 0.68981 0.95671 0.0
N1614 N 0.97396 0.63249 0.98443 0.0
C1615 C 0.99946 0.65247 0.98622 0.0
C1616 C 0.99513 0.68398 0.97111 0.0
C1617 C 0.12715 0.2612 0.68118 0.0
C1618 C 0.10491 0.28669 0.6883 0.0
C1619 C 0.15302 0.25414 0.70194 0.0
C1620 C 0.15783 0.27277 0.73001 0.0
H1621 H 0.12436 0.24637 0.65962 0.0
H1622 H 0.16987 0.23451 0.69561 0.0
S1623 S 0.1067 0.342 0.75949 0.0
N1624 N 0.08915 0.33034 0.72557 0.0
N1625 N 0.13854 0.3174 0.76419 0.0
C1626 C 0.13591 0.29829 0.73741 0.0
C1627 C 0.10918 0.30515 0.71666 0.0
C1628 C 0.52658 0.72971 0.11581 0.0
C1629 C 0.51182 0.75392 0.09602 0.0
C1630 C 0.54656 0.70567 0.10164 0.0
C1631 C 0.55236 0.70435 0.06709 0.0
H1632 H 0.5231 0.72937 0.14267 0.0
H1633 H 0.55712 0.68738 0.11779 0.0
S1634 S 0.51864 0.76063 0.00375 0.0
N1635 N 0.50422 0.77476 0.03968 0.0
N1636 N 0.54118 0.72841 0.01303 0.0
C1637 C 0.53791 0.72817 0.04678 0.0
C1638 C 0.51764 0.75309 0.06126 0.0
C1639 C 0.14219 0.78445 0.84767 0.0
C1640 C 0.13658 0.80607 0.87413 0.0
C1641 C 0.17258 0.78261 0.82962 0.0
C1642 C 0.19857 0.8027 0.83683 0.0
H1643 H 0.12326 0.76823 0.84139 0.0
H1644 H 0.1757 0.76531 0.80986 0.0
S1645 S 0.19576 0.86486 0.90254 0.0
N1646 N 0.15953 0.84875 0.90561 0.0
N1647 N 0.21556 0.84574 0.87206 0.0
C1648 C 0.19279 0.82488 0.86278 0.0
C1649 C 0.16222 0.82644 0.88125 0.0
C1650 C 0.03613 0.40084 0.56168 0.0
C1651 C 0.02531 0.39311 0.59431 0.0
C1652 C 0.03316 0.43234 0.54921 0.0
C1653 C 0.01993 0.4572 0.56926 0.0
H1654 H 0.04721 0.38249 0.54577 0.0
H1655 H 0.04279 0.4375 0.52426 0.0
S1656 S 0.98678 0.4491 0.65596 0.0
N1657 N 0.99941 0.41234 0.64597 0.0
N1658 N 0.99467 0.47189 0.62269 0.0
C1659 C 1.0082 0.44962 0.60161 0.0
C1660 C 0.01068 0.41744 0.61411 0.0
C1661 C 0.43191 0.26556 0.34082 0.0
C1662 C 0.44798 0.29306 0.35135 0.0
C1663 C 0.40153 0.26766 0.32545 0.0
C1664 C 0.38552 0.29745 0.31887 0.0
H1665 H 0.44259 0.24178 0.34506 0.0
H1666 H 0.39035 0.24548 0.31879 0.0
S1667 S 0.41638 0.37724 0.34096 0.0
N1668 N 0.44479 0.3515 0.35387 0.0
N1669 N 0.38832 0.35542 0.32441 0.0
C1670 C 0.40138 0.32532 0.32869 0.0
C1671 C 0.43224 0.32315 0.34502 0.0
C1672 C 0.48126 0.54832 0.3614 0.0
C1673 C 0.46335 0.57364 0.34644 0.0
C1674 C 0.4998 0.5536 0.38907 0.0
C1675 C 0.50131 0.58438 0.40265 0.0
H1676 H 0.48096 0.52414 0.3518 0.0
H1677 H 0.5131 0.53345 0.40003 0.0
S1678 S 0.45864 0.65876 0.3735 0.0
N1679 N 0.44816 0.63081 0.34757 0.0
N1680 N 0.48308 0.64039 0.39992 0.0
C1681 C 0.48376 0.60998 0.38801 0.0
C1682 C 0.46467 0.60467 0.35986 0.0
C1683 C 0.31354 0.80986 0.10453 0.0
C1684 C 0.295 0.7884 0.08702 0.0
C1685 C 0.30102 0.8237 0.13407 0.0
C1686 C 0.2695 0.81687 0.14672 0.0
H1687 H 0.33865 0.814 0.0969 0.0
H1688 H 0.31681 0.83814 0.14836 0.0
S1689 S 0.20945 0.76642 0.10688 0.0
N1690 N 0.24214 0.76441 0.0818 0.0
N1691 N 0.21885 0.79017 0.13736 0.0
C1692 C 0.24971 0.79793 0.12766 0.0
C1693 C 0.26246 0.78372 0.09777 0.0
C1694 C 0.09081 0.5545 0.89461 0.0
C1695 C 0.12495 0.55522 0.89254 0.0
C1696 C 0.07442 0.54699 0.92474 0.0
C1697 C 0.09167 0.54032 0.95378 0.0
H1698 H 0.07666 0.55919 0.87274 0.0
H1699 H 0.04803 0.54745 0.92544 0.0
S1700 S 0.1814 0.539 0.96123 0.0
N1701 N 0.17556 0.54849 0.92179 0.0
N1702 N 0.14472 0.53445 0.9785 0.0
C1703 C 0.12585 0.54071 0.95191 0.0
C1704 C 0.1425 0.54822 0.92127 0.0
C1705 C 0.28301 0.36577 0.64495 0.0
C1706 C 0.31052 0.38449 0.63702 0.0
C1707 C 0.27892 0.34971 0.6763 0.0
C1708 C 0.30212 0.35153 0.70134 0.0
H1709 H 0.26419 0.36384 0.627 0.0
H1710 H 0.25723 0.33588 0.68097 0.0
S1711 S 0.37935 0.3961 0.69302 0.0
N1712 N 0.36194 0.40272 0.65711 0.0
N1713 N 0.35423 0.37312 0.71508 0.0
C1714 C 0.3299 0.3698 0.69347 0.0
C1715 C 0.33408 0.38604 0.66172 0.0
C1716 C 0.4975 0.54039 0.1875 0.0
C1717 C 0.50022 0.56926 0.20461 0.0
C1718 C 0.51235 0.53636 0.15609 0.0
C1719 C 0.53012 0.56126 0.14056 0.0
H1720 H 0.48198 0.52159 0.1975 0.0
H1721 H 0.50784 0.51443 0.14303 0.0
S1722 S 0.54974 0.63903 0.17817 0.0
N1723 N 0.52596 0.62113 0.20646 0.0
N1724 N 0.55411 0.6137 0.14703 0.0
C1725 C 0.53602 0.58886 0.15902 0.0
C1726 C 0.52096 0.59284 0.19124 0.0
C1727 C 0.35218 0.75554 0.918 0.0
C1728 C 0.33439 0.72987 0.93179 0.0
C1729 C 0.34615 0.76747 0.88599 0.0
C1730 C 0.32268 0.75366 0.8665 0.0
H1731 H 0.36953 0.76771 0.93267 0.0
H1732 H 0.35906 0.78848 0.87694 0.0
S1733 S 0.27266 0.68325 0.88965 0.0
N1734 N 0.29454 0.68902 0.92257 0.0
N1735 N 0.28366 0.71116 0.86201 0.0
C1736 C 0.30648 0.72646 0.87903 0.0
C1737 C 0.31218 0.71466 0.91186 0.0
C1738 C 0.12331 0.5311 0.71584 0.0
C1739 C 0.10797 0.53164 0.74768 0.0
C1740 C 0.10636 0.54025 0.68763 0.0
C1741 C 0.07366 0.55079 0.69032 0.0
H1742 H 0.1488 0.52401 0.71273 0.0
H1743 H 0.1192 0.54005 0.6636 0.0
S1744 S 0.02195 0.55539 0.76763 0.0
N1745 N 0.05786 0.54234 0.78024 0.0
N1746 N 0.02599 0.56002 0.72675 0.0
C1747 C 0.05775 0.55085 0.72181 0.0
C1748 C 0.0749 0.54102 0.75064 0.0
C1749 C 0.26239 0.34241 0.43971 0.0
C1750 C 0.27887 0.37088 0.44657 0.0
C1751 C 0.2622 0.32952 0.40736 0.0
C1752 C 0.27791 0.34465 0.37971 0.0
H1753 H 0.24962 0.32954 0.45967 0.0
H1754 H 0.24953 0.30735 0.40404 0.0
S1755 S 0.32575 0.41905 0.38343 0.0
N1756 N 0.31226 0.41324 0.42226 0.0
N1757 N 0.31139 0.38951 0.36179 0.0
C1758 C 0.29442 0.3732 0.38601 0.0
C1759 C 0.29505 0.3861 0.41917 0.0
C1760 C 0.39835 0.50124 0.52376 0.0
C1761 C 0.37993 0.49694 0.55383 0.0
C1762 C 0.42921 0.51589 0.52294 0.0
C1763 C 0.4435 0.52623 0.55227 0.0
H1764 H 0.38871 0.4935 0.50058 0.0
H1765 H 0.44238 0.5183 0.49921 0.0
S1766 S 0.40603 0.51968 0.63766 0.0
N1767 N 0.37884 0.50428 0.61373 0.0
N1768 N 0.43645 0.53058 0.61232 0.0
C1769 C 0.42537 0.52182 0.58243 0.0
C1770 C 0.39383 0.50757 0.58318 0.0
C1771 C 0.94839 0.15018 0.51351 0.0
C1772 C 0.91884 0.13438 0.51883 0.0
C1773 C 0.97808 0.13323 0.51443 0.0
C1774 C 0.97941 0.09977 0.52063 0.0
H1775 H 0.9487 0.17577 0.50786 0.0
H1776 H 1.00012 0.14651 0.50951 0.0
S1777 S 0.90909 0.04748 0.53933 0.0
N1778 N 0.89271 0.08367 0.53292 0.0
N1779 N 0.94878 0.05175 0.53449 0.0
C1780 C 0.95015 0.08381 0.52733 0.0
C1781 C 0.91979 0.10113 0.52649 0.0
C1782 C 0.72861 0.12302 0.25499 0.0
C1783 C 0.73695 0.10861 0.2855 0.0
C1784 C 0.74655 0.14829 0.24124 0.0
C1785 C 0.77284 0.16011 0.25805 0.0
H1786 H 0.7075 0.11536 0.24221 0.0
H1787 H 0.73835 0.16028 0.21878 0.0
S1788 S 0.8059 0.12889 0.33714 0.0
N1789 N 0.77463 0.1059 0.3307 0.0
N1790 N 0.80792 0.15449 0.3052 0.0
C1791 C 0.78255 0.1447 0.28754 0.0
C1792 C 0.76465 0.11858 0.30125 0.0
C1793 C 0.68631 0.9907 0.0536 0.0
C1794 C 0.69435 0.9678 0.02892 0.0
C1795 C 0.65587 0.0076 0.05453 0.0
C1796 C 0.63229 1.00289 0.03044 0.0
H1797 H 0.70328 0.99494 0.07294 0.0
H1798 H 0.65071 0.02437 0.07449 0.0
S1799 S 0.64199 0.94698 0.95934 0.0
N1800 N 0.67635 0.94232 0.97908 0.0
N1801 N 0.62011 0.97409 0.98047 0.0
C1802 C 0.64053 0.98071 0.00513 0.0
C1803 C 0.67119 0.96324 0.00448 0.0
C1804 C 0.35184 0.48404 0.20847 0.0
C1805 C 0.35261 0.50241 0.23745 0.0
C1806 C 0.33687 0.45427 0.20901 0.0
C1807 C 0.3222 0.44192 0.23849 0.0
H1808 H 0.36375 0.49216 0.18544 0.0
H1809 H 0.33765 0.44032 0.18648 0.0
S1810 S 0.3134 0.48256 0.31971 0.0
N1811 N 0.33464 0.50753 0.29562 0.0
N1812 N 0.3063 0.45143 0.29634 0.0
C1813 C 0.32151 0.46058 0.26723 0.0
C1814 C 0.33674 0.49091 0.26675 0.0
C1815 C 0.19416 0.66428 0.04692 0.0
C1816 C 0.22668 0.65498 0.05242 0.0
C1817 C 0.16876 0.64387 0.05572 0.0
C1818 C 0.17489 0.61358 0.0706 0.0
H1819 H 0.18818 0.68733 0.03534 0.0
H1820 H 0.14405 0.65177 0.05076 0.0
S1821 S 0.25531 0.57777 0.09099 0.0
N1822 N 0.26356 0.61338 0.07432 0.0
N1823 N 0.21531 0.57509 0.09077 0.0
C1824 C 0.20706 0.6041 0.07689 0.0
C1825 C 0.23311 0.62477 0.06775 0.0
C1826 C 0.68765 0.90324 0.33454 0.0
C1827 C 0.70585 0.92998 0.34212 0.0
C1828 C 0.70297 0.87312 0.33032 0.0
C1829 C 0.73681 0.86904 0.3338 0.0
H1830 H 0.66204 0.90606 0.32934 0.0
H1831 H 0.68854 0.85353 0.32212 0.0
S1832 S 0.79317 0.93055 0.36172 0.0
N1833 N 0.75775 0.94988 0.35868 0.0
N1834 N 0.7867 0.89306 0.35142 0.0
C1835 C 0.75441 0.89497 0.34514 0.0
C1836 C 0.73885 0.92561 0.34907 0.0
C1837 C 0.85188 0.14234 0.72405 0.0
C1838 C 0.87784 0.13026 0.74271 0.0
C1839 C 0.83142 0.16735 0.73618 0.0
C1840 C 0.83593 0.18062 0.76766 0.0
H1841 H 0.84782 0.13294 0.69962 0.0
H1842 H 0.81236 0.1767 0.72047 0.0
S1843 S 0.89828 0.15427 0.82785 0.0
N1844 N 0.90559 0.13147 0.79511 0.0
N1845 N 0.8669 0.1778 0.81828 0.0
C1846 C 0.861 0.16759 0.78715 0.0
C1847 C 0.88206 0.1426 0.77457 0.0
loop_
_geom_bond_atom_site_label_1
_geom_bond_atom_site_label_2
_geom_bond_distance
_geom_bond_site_symmetry_2
_ccdc_geom_bond_type
C0 O1 1.160 . S
C0 O7 1.185 . S
O1 C0 1.160 . S
O2 Zn3 1.899 . S
O2 C10 1.284 . S
Zn3 O2 1.899 . S
Zn3 O4 2.032 . S
Zn3 O7 2.086 1_455 S
Zn3 O12 1.977 . S
O4 Zn3 2.032 . S
O4 C8 1.278 . S
C5 O6 1.203 . S
C5 O12 1.267 . S
O6 C5 1.203 . S
O7 C0 1.185 . S
O7 Zn3 2.086 1_655 S
C8 O4 1.278 . S
C8 O9 1.211 . S
O9 C8 1.211 . S
C10 O2 1.284 . S
C10 O11 1.273 . S
O11 C10 1.273 . S
O12 Zn3 1.977 . S
O12 C5 1.267 . S
C13 O14 1.160 . S
C13 O20 1.185 . S
O14 C13 1.160 . S
O15 Zn16 1.899 . S
O15 C23 1.284 . S
Zn16 O15 1.899 . S
Zn16 O17 2.032 . S
Zn16 O20 2.086 . S
Zn16 O25 1.977 . S
O17 Zn16 2.032 . S
O17 C21 1.278 . S
C18 O19 1.203 1_455 S
C18 O25 1.267 . S
O19 C18 1.203 1_655 S
O20 C13 1.185 . S
O20 Zn16 2.086 . S
C21 O17 1.278 . S
C21 O22 1.211 . S
O22 C21 1.211 . S
C23 O15 1.284 . S
C23 O24 1.273 . S
O24 C23 1.273 . S
O25 Zn16 1.977 . S
O25 C18 1.267 . S
C26 O27 1.160 . S
C26 O33 1.185 . S
O27 C26 1.160 . S
O28 Zn29 1.899 . S
O28 C36 1.284 . S
Zn29 O28 1.899 . S
Zn29 O30 2.032 . S
Zn29 O33 2.086 . S
Zn29 O38 1.977 . S
O30 Zn29 2.032 . S
O30 C34 1.278 . S
C31 O32 1.203 . S
C31 O38 1.267 . S
O32 C31 1.203 . S
O33 C26 1.185 . S
O33 Zn29 2.086 . S
C34 O30 1.278 . S
C34 O35 1.211 . S
O35 C34 1.211 . S
C36 O28 1.284 . S
C36 O37 1.273 . S
O37 C36 1.273 . S
O38 Zn29 1.977 . S
O38 C31 1.267 . S
C39 O40 1.160 . S
C39 O46 1.185 . S
O40 C39 1.160 . S
O41 Zn42 1.899 . S
O41 C49 1.284 . S
Zn42 O41 1.899 . S
Zn42 O43 2.032 . S
Zn42 O46 2.086 . S
Zn42 O51 1.977 . S
O43 Zn42 2.032 . S
O43 C47 1.278 . S
C44 O45 1.203 . S
C44 O51 1.267 . S
O45 C44 1.203 . S
O46 C39 1.185 . S
O46 Zn42 2.086 . S
C47 O43 1.278 . S
C47 O48 1.211 . S
O48 C47 1.211 . S
C49 O41 1.284 . S
C49 O50 1.273 . S
O50 C49 1.273 . S
O51 Zn42 1.977 . S
O51 C44 1.267 . S
C52 O53 1.160 . S
C52 O59 1.185 . S
O53 C52 1.160 . S
O54 Zn55 1.899 . S
O54 C62 1.284 . S
Zn55 O54 1.899 . S
Zn55 O56 2.032 1_545 S
Zn55 O59 2.086 1_545 S
Zn55 O64 1.977 . S
O56 Zn55 2.032 1_565 S
O56 C60 1.278 1_565 S
C57 O58 1.203 . S
C57 O64 1.267 . S
O58 C57 1.203 . S
O59 C52 1.185 . S
O59 Zn55 2.086 1_565 S
C60 O56 1.278 1_545 S
C60 O61 1.211 . S
O61 C60 1.211 . S
C62 O54 1.284 . S
C62 O63 1.273 . S
O63 C62 1.273 . S
O64 Zn55 1.977 . S
O64 C57 1.267 . S
C65 O66 1.160 . S
C65 O72 1.185 . S
O66 C65 1.160 . S
O67 Zn68 1.899 . S
O67 C75 1.284 . S
Zn68 O67 1.899 . S
Zn68 O69 2.032 . S
Zn68 O72 2.086 . S
Zn68 O77 1.977 . S
O69 Zn68 2.032 . S
O69 C73 1.278 . S
C70 O71 1.203 . S
C70 O77 1.267 . S
O71 C70 1.203 . S
O72 C65 1.185 . S
O72 Zn68 2.086 . S
C73 O69 1.278 . S
C73 O74 1.211 . S
O74 C73 1.211 . S
C75 O67 1.284 . S
C75 O76 1.273 . S
O76 C75 1.273 . S
O77 Zn68 1.977 . S
O77 C70 1.267 . S
C78 O79 1.160 . S
C78 O85 1.185 . S
O79 C78 1.160 . S
O80 Zn81 1.899 . S
O80 C88 1.284 . S
Zn81 O80 1.899 . S
Zn81 O82 2.032 . S
Zn81 O85 2.086 . S
Zn81 O90 1.977 . S
O82 Zn81 2.032 . S
O82 C86 1.278 . S
C83 O84 1.203 . S
C83 O90 1.267 . S
O84 C83 1.203 . S
O85 C78 1.185 . S
O85 Zn81 2.086 . S
C86 O82 1.278 . S
C86 O87 1.211 . S
O87 C86 1.211 . S
C88 O80 1.284 . S
C88 O89 1.273 . S
O89 C88 1.273 . S
O90 Zn81 1.977 . S
O90 C83 1.267 . S
C91 O92 1.160 . S
C91 O98 1.185 . S
O92 C91 1.160 . S
O93 Zn94 1.899 . S
O93 C101 1.284 . S
Zn94 O93 1.899 . S
Zn94 O95 2.032 . S
Zn94 O98 2.086 . S
Zn94 O103 1.977 . S
O95 Zn94 2.032 . S
O95 C99 1.278 1_554 S
C96 O97 1.203 . S
C96 O103 1.267 . S
O97 C96 1.203 . S
O98 C91 1.185 . S
O98 Zn94 2.086 . S
C99 O95 1.278 1_556 S
C99 O100 1.211 . S
O100 C99 1.211 . S
C101 O93 1.284 . S
C101 O102 1.273 . S
O102 C101 1.273 . S
O103 Zn94 1.977 . S
O103 C96 1.267 . S
C104 O105 1.160 . S
C104 O111 1.185 . S
O105 C104 1.160 . S
O106 Zn107 1.899 . S
O106 C114 1.284 . S
Zn107 O106 1.899 . S
Zn107 O108 2.032 . S
Zn107 O111 2.086 . S
Zn107 O116 1.977 . S
O108 Zn107 2.032 . S
O108 C112 1.278 . S
C109 O110 1.203 . S
C109 O116 1.267 . S
O110 C109 1.203 . S
O111 C104 1.185 . S
O111 Zn107 2.086 . S
C112 O108 1.278 . S
C112 O113 1.211 . S
O113 C112 1.211 . S
C114 O106 1.284 . S
C114 O115 1.273 . S
O115 C114 1.273 . S
O116 Zn107 1.977 . S
O116 C109 1.267 . S
C117 O118 1.160 . S
C117 O124 1.185 . S
O118 C117 1.160 . S
O119 Zn120 1.899 . S
O119 C127 1.284 . S
Zn120 O119 1.899 . S
Zn120 O121 2.032 . S
Zn120 O124 2.086 . S
Zn120 O129 1.977 . S
O121 Zn120 2.032 . S
O121 C125 1.278 . S
C122 O123 1.203 . S
C122 O129 1.267 . S
O123 C122 1.203 . S
O124 C117 1.185 . S
O124 Zn120 2.086 . S
C125 O121 1.278 . S
C125 O126 1.211 . S
O126 C125 1.211 . S
C127 O119 1.284 . S
C127 O128 1.273 . S
O128 C127 1.273 . S
O129 Zn120 1.977 . S
O129 C122 1.267 . S
C130 O131 1.160 . S
C130 O137 1.185 . S
O131 C130 1.160 . S
O132 Zn133 1.899 . S
O132 C140 1.284 . S
Zn133 O132 1.899 . S
Zn133 O134 2.032 . S
Zn133 O137 2.086 . S
Zn133 O142 1.977 . S
O134 Zn133 2.032 . S
O134 C138 1.278 . S
C135 O136 1.203 . S
C135 O142 1.267 . S
O136 C135 1.203 . S
O137 C130 1.185 . S
O137 Zn133 2.086 . S
C138 O134 1.278 . S
C138 O139 1.211 . S
O139 C138 1.211 . S
C140 O132 1.284 . S
C140 O141 1.273 . S
O141 C140 1.273 . S
O142 Zn133 1.977 . S
O142 C135 1.267 . S
C143 O144 1.160 . S
C143 O150 1.185 . S
O144 C143 1.160 . S
O145 Zn146 1.899 . S
O145 C153 1.284 . S
Zn146 O145 1.899 . S
Zn146 O147 2.032 . S
Zn146 O150 2.086 . S
Zn146 O155 1.977 . S
O147 Zn146 2.032 . S
O147 C151 1.278 . S
C148 O149 1.203 . S
C148 O155 1.267 . S
O149 C148 1.203 . S
O150 C143 1.185 . S
O150 Zn146 2.086 . S
C151 O147 1.278 . S
C151 O152 1.211 . S
O152 C151 1.211 . S
C153 O145 1.284 . S
C153 O154 1.273 . S
O154 C153 1.273 . S
O155 Zn146 1.977 . S
O155 C148 1.267 . S
C156 O157 1.160 . S
C156 O163 1.185 . S
O157 C156 1.160 . S
O158 Zn159 1.899 . S
O158 C166 1.284 . S
Zn159 O158 1.899 . S
Zn159 O160 2.032 . S
Zn159 O163 2.086 . S
Zn159 O168 1.977 1_455 S
O160 Zn159 2.032 . S
O160 C164 1.278 . S
C161 O162 1.203 . S
C161 O168 1.267 . S
O162 C161 1.203 . S
O163 C156 1.185 . S
O163 Zn159 2.086 . S
C164 O160 1.278 . S
C164 O165 1.211 1_455 S
O165 C164 1.211 1_655 S
C166 O158 1.284 . S
C166 O167 1.273 . S
O167 C166 1.273 . S
O168 Zn159 1.977 1_655 S
O168 C161 1.267 . S
C169 O170 1.160 . S
C169 O176 1.185 . S
O170 C169 1.160 . S
O171 Zn172 1.899 . S
O171 C179 1.284 1_655 S
Zn172 O171 1.899 . S
Zn172 O173 2.032 . S
Zn172 O176 2.086 . S
Zn172 O181 1.977 1_655 S
O173 Zn172 2.032 . S
O173 C177 1.278 1_655 S
C174 O175 1.203 . S
C174 O181 1.267 . S
O175 C174 1.203 . S
O176 C169 1.185 . S
O176 Zn172 2.086 . S
C177 O173 1.278 1_455 S
C177 O178 1.211 . S
O178 C177 1.211 . S
C179 O171 1.284 1_455 S
C179 O180 1.273 . S
O180 C179 1.273 . S
O181 Zn172 1.977 1_455 S
O181 C174 1.267 . S
C182 O183 1.160 . S
C182 O189 1.185 . S
O183 C182 1.160 . S
O184 Zn185 1.899 . S
O184 C192 1.284 . S
Zn185 O184 1.899 . S
Zn185 O186 2.032 . S
Zn185 O189 2.086 . S
Zn185 O194 1.977 . S
O186 Zn185 2.032 . S
O186 C190 1.278 . S
C187 O188 1.203 . S
C187 O194 1.267 . S
O188 C187 1.203 . S
O189 C182 1.185 . S
O189 Zn185 2.086 . S
C190 O186 1.278 . S
C190 O191 1.211 . S
O191 C190 1.211 . S
C192 O184 1.284 . S
C192 O193 1.273 . S
O193 C192 1.273 . S
O194 Zn185 1.977 . S
O194 C187 1.267 . S
C195 O196 1.160 . S
C195 O202 1.185 . S
O196 C195 1.160 . S
O197 Zn198 1.899 . S
O197 C205 1.284 . S
Zn198 O197 1.899 . S
Zn198 O199 2.032 . S
Zn198 O202 2.086 . S
Zn198 O207 1.977 . S
O199 Zn198 2.032 . S
O199 C203 1.278 . S
C200 O201 1.203 . S
C200 O207 1.267 . S
O201 C200 1.203 . S
O202 C195 1.185 . S
O202 Zn198 2.086 . S
C203 O199 1.278 . S
C203 O204 1.211 . S
O204 C203 1.211 . S
C205 O197 1.284 . S
C205 O206 1.273 . S
O206 C205 1.273 . S
O207 Zn198 1.977 . S
O207 C200 1.267 . S
C208 O209 1.160 . S
C208 O215 1.185 . S
O209 C208 1.160 . S
O210 Zn211 1.899 . S
O210 C218 1.284 . S
Zn211 O210 1.899 . S
Zn211 O212 2.032 . S
Zn211 O215 2.086 . S
Zn211 O220 1.977 . S
O212 Zn211 2.032 . S
O212 C216 1.278 . S
C213 O214 1.203 . S
C213 O220 1.267 . S
O214 C213 1.203 . S
O215 C208 1.185 . S
O215 Zn211 2.086 . S
C216 O212 1.278 . S
C216 O217 1.211 . S
O217 C216 1.211 . S
C218 O210 1.284 . S
C218 O219 1.273 . S
O219 C218 1.273 . S
O220 Zn211 1.977 . S
O220 C213 1.267 . S
C221 O222 1.160 . S
C221 O228 1.185 . S
O222 C221 1.160 . S
O223 Zn224 1.899 . S
O223 C231 1.284 . S
Zn224 O223 1.899 . S
Zn224 O225 2.032 . S
Zn224 O228 2.086 . S
Zn224 O233 1.977 . S
O225 Zn224 2.032 . S
O225 C229 1.278 . S
C226 O227 1.203 . S
C226 O233 1.267 . S
O227 C226 1.203 . S
O228 C221 1.185 . S
O228 Zn224 2.086 . S
C229 O225 1.278 . S
C229 O230 1.211 . S
O230 C229 1.211 . S
C231 O223 1.284 . S
C231 O232 1.273 . S
O232 C231 1.273 . S
O233 Zn224 1.977 . S
O233 C226 1.267 . S
C234 O235 1.160 . S
C234 O241 1.185 . S
O235 C234 1.160 . S
O236 Zn237 1.899 . S
O236 C244 1.284 . S
Zn237 O236 1.899 . S
Zn237 O238 2.032 1_545 S
Zn237 O241 2.086 1_545 S
Zn237 O246 1.977 . S
O238 Zn237 2.032 1_565 S
O238 C242 1.278 1_565 S
C239 O240 1.203 . S
C239 O246 1.267 . S
O240 C239 1.203 . S
O241 C234 1.185 . S
O241 Zn237 2.086 1_565 S
C242 O238 1.278 1_545 S
C242 O243 1.211 . S
O243 C242 1.211 . S
C244 O236 1.284 . S
C244 O245 1.273 . S
O245 C244 1.273 . S
O246 Zn237 1.977 . S
O246 C239 1.267 . S
C247 O248 1.160 . S
C247 O254 1.185 . S
O248 C247 1.160 . S
O249 Zn250 1.899 . S
O249 C257 1.284 . S
Zn250 O249 1.899 . S
Zn250 O251 2.032 1_554 S
Zn250 O254 2.086 . S
Zn250 O259 1.977 . S
O251 Zn250 2.032 1_556 S
O251 C255 1.278 . S
C252 O253 1.203 . S
C252 O259 1.267 . S
O253 C252 1.203 . S
O254 C247 1.185 . S
O254 Zn250 2.086 . S
C255 O251 1.278 . S
C255 O256 1.211 . S
O256 C255 1.211 . S
C257 O249 1.284 . S
C257 O258 1.273 . S
O258 C257 1.273 . S
O259 Zn250 1.977 . S
O259 C252 1.267 . S
C260 O261 1.160 . S
C260 O267 1.185 1_554 S
O261 C260 1.160 . S
O262 Zn263 1.899 . S
O262 C270 1.284 . S
Zn263 O262 1.899 . S
Zn263 O264 2.032 1_554 S
Zn263 O267 2.086 1_554 S
Zn263 O272 1.977 1_554 S
O264 Zn263 2.032 1_556 S
O264 C268 1.278 . S
C265 O266 1.203 . S
C265 O272 1.267 1_554 S
O266 C265 1.203 . S
O267 C260 1.185 1_556 S
O267 Zn263 2.086 1_556 S
C268 O264 1.278 . S
C268 O269 1.211 . S
O269 C268 1.211 . S
C270 O262 1.284 . S
C270 O271 1.273 . S
O271 C270 1.273 . S
O272 Zn263 1.977 1_556 S
O272 C265 1.267 1_556 S
C273 O274 1.160 . S
C273 O280 1.185 . S
O274 C273 1.160 . S
O275 Zn276 1.899 . S
O275 C283 1.284 . S
Zn276 O275 1.899 . S
Zn276 O277 2.032 . S
Zn276 O280 2.086 . S
Zn276 O285 1.977 . S
O277 Zn276 2.032 . S
O277 C281 1.278 . S
C278 O279 1.203 . S
C278 O285 1.267 . S
O279 C278 1.203 . S
O280 C273 1.185 . S
O280 Zn276 2.086 . S
C281 O277 1.278 . S
C281 O282 1.211 . S
O282 C281 1.211 . S
C283 O275 1.284 . S
C283 O284 1.273 . S
O284 C283 1.273 . S
O285 Zn276 1.977 . S
O285 C278 1.267 . S
C286 O287 1.160 . S
C286 O293 1.185 . S
O287 C286 1.160 . S
O288 Zn289 1.899 . S
O288 C296 1.284 . S
Zn289 O288 1.899 . S
Zn289 O290 2.032 . S
Zn289 O293 2.086 . S
Zn289 O298 1.977 . S
O290 Zn289 2.032 . S
O290 C294 1.278 . S
C291 O292 1.203 . S
C291 O298 1.267 . S
O292 C291 1.203 . S
O293 C286 1.185 . S
O293 Zn289 2.086 . S
C294 O290 1.278 . S
C294 O295 1.211 . S
O295 C294 1.211 . S
C296 O288 1.284 . S
C296 O297 1.273 . S
O297 C296 1.273 . S
O298 Zn289 1.977 . S
O298 C291 1.267 . S
C299 O300 1.160 . S
C299 O306 1.185 . S
O300 C299 1.160 . S
O301 Zn302 1.899 . S
O301 C309 1.284 . S
Zn302 O301 1.899 . S
Zn302 O303 2.032 . S
Zn302 O306 2.086 . S
Zn302 O311 1.977 . S
O303 Zn302 2.032 . S
O303 C307 1.278 . S
C304 O305 1.203 . S
C304 O311 1.267 . S
O305 C304 1.203 . S
O306 C299 1.185 . S
O306 Zn302 2.086 . S
C307 O303 1.278 . S
C307 O308 1.211 . S
O308 C307 1.211 . S
C309 O301 1.284 . S
C309 O310 1.273 . S
O310 C309 1.273 . S
O311 Zn302 1.977 . S
O311 C304 1.267 . S
Co312 N317 2.057 1_554 S
Co312 O329 2.021 1_554 S
Co312 O332 2.062 1_455 S
Co312 O336 2.117 . S
Co312 O337 2.018 . S
C313 O333 1.259 . S
C313 O336 1.258 . S
Co314 N323 2.057 . S
Co314 O330 2.117 1_545 S
Co314 O331 2.020 1_455 S
Co314 O333 2.021 . S
Co314 O338 2.062 . S
C315 N317 1.323 . S
C315 N318 1.337 1_455 S
C315 H320 0.934 . S
C316 N317 1.375 1_655 S
C316 C319 1.350 . S
C316 H321 0.930 1_655 S
N317 Co312 2.057 1_556 S
N317 C315 1.323 . S
N317 C316 1.375 1_455 S
N318 C315 1.337 1_655 S
N318 C319 1.373 . S
C319 C316 1.350 . S
C319 N318 1.373 . S
C319 H340 0.931 . S
H320 C315 0.934 . S
H321 C316 0.930 1_455 S
C322 O329 1.259 1_564 S
C322 O330 1.258 . S
N323 Co314 2.057 . S
N323 C324 1.316 . S
N323 C325 1.375 1_545 S
C324 N323 1.316 . S
C324 N326 1.347 . S
C324 H335 0.931 . S
C325 N323 1.375 1_565 S
C325 C327 1.350 . S
C325 H334 0.930 . S
N326 C324 1.347 . S
N326 C327 1.373 1_545 S
C327 C325 1.350 . S
C327 N326 1.373 1_565 S
C327 H341 0.931 . S
C328 O331 1.256 . S
C328 O332 1.255 . S
O329 Co312 2.021 1_556 S
O329 C322 1.259 1_546 S
O330 Co314 2.117 1_565 S
O330 C322 1.258 . S
O331 Co314 2.020 1_655 S
O331 C328 1.256 . S
O332 Co312 2.062 1_655 S
O332 C328 1.255 . S
O333 C313 1.259 . S
O333 Co314 2.021 . S
H334 C325 0.930 . S
H335 C324 0.931 . S
O336 Co312 2.117 . S
O336 C313 1.258 . S
O337 Co312 2.018 . S
O337 C339 1.285 . S
O338 Co314 2.062 . S
O338 C339 1.255 . S
C339 O337 1.285 . S
C339 O338 1.255 . S
H340 C319 0.931 . S
H341 C327 0.931 . S
Co342 N347 2.057 . S
Co342 O359 2.021 . S
Co342 O362 2.062 . S
Co342 O366 2.117 . S
Co342 O367 2.020 . S
C343 O363 1.259 . S
C343 O366 1.258 . S
Co344 N353 2.057 . S
Co344 O360 2.117 . S
Co344 O361 2.020 . S
Co344 O363 2.021 . S
Co344 O368 2.062 . S
C345 N347 1.316 . S
C345 N348 1.347 . S
C345 H350 0.931 . S
C346 N347 1.375 . S
C346 C349 1.350 . S
C346 H351 0.930 . S
N347 Co342 2.057 . S
N347 C345 1.316 . S
N347 C346 1.375 . S
N348 C345 1.347 . S
N348 C349 1.373 . S
C349 C346 1.350 . S
C349 N348 1.373 . S
C349 H370 0.931 . S
H350 C345 0.931 . S
H351 C346 0.930 . S
C352 O359 1.259 . S
C352 O360 1.258 . S
N353 Co344 2.057 . S
N353 C354 1.316 . S
N353 C355 1.375 . S
C354 N353 1.316 . S
C354 N356 1.347 . S
C354 H365 0.931 . S
C355 N353 1.375 . S
C355 C357 1.350 . S
C355 H364 0.930 . S
N356 C354 1.347 . S
N356 C357 1.373 . S
C357 C355 1.350 . S
C357 N356 1.373 . S
C357 H371 0.931 . S
C358 O361 1.256 . S
C358 O362 1.255 . S
O359 Co342 2.021 . S
O359 C352 1.259 . S
O360 Co344 2.117 . S
O360 C352 1.258 . S
O361 Co344 2.020 . S
O361 C358 1.256 . S
O362 Co342 2.062 . S
O362 C358 1.255 . S
O363 C343 1.259 . S
O363 Co344 2.021 . S
H364 C355 0.930 . S
H365 C354 0.931 . S
O366 Co342 2.117 . S
O366 C343 1.258 . S
O367 Co342 2.020 . S
O367 C369 1.256 . S
O368 Co344 2.062 . S
O368 C369 1.255 . S
C369 O367 1.256 . S
C369 O368 1.255 . S
H370 C349 0.931 . S
H371 C357 0.931 . S
Co372 N377 2.057 . S
Co372 O389 2.021 1_545 S
Co372 O392 2.062 . S
Co372 O396 2.117 . S
Co372 O397 2.020 . S
C373 O393 1.259 . S
C373 O396 1.258 . S
Co374 N383 2.057 . S
Co374 O390 2.117 . S
Co374 O391 2.020 . S
Co374 O393 2.021 . S
Co374 O398 2.062 . S
C375 N377 1.316 1_565 S
C375 N378 1.347 1_565 S
C375 H380 0.931 . S
C376 N377 1.375 . S
C376 C379 1.350 . S
C376 H381 0.930 . S
N377 Co372 2.057 . S
N377 C375 1.316 1_545 S
N377 C376 1.375 . S
N378 C375 1.347 1_545 S
N378 C379 1.373 . S
C379 C376 1.350 . S
C379 N378 1.373 . S
C379 H400 0.931 . S
H380 C375 0.931 . S
H381 C376 0.930 . S
C382 O389 1.259 . S
C382 O390 1.258 1_565 S
N383 Co374 2.057 . S
N383 C384 1.316 . S
N383 C385 1.375 . S
C384 N383 1.316 . S
C384 N386 1.347 . S
C384 H395 0.931 . S
C385 N383 1.375 . S
C385 C387 1.350 . S
C385 H394 0.930 . S
N386 C384 1.347 . S
N386 C387 1.373 . S
C387 C385 1.350 . S
C387 N386 1.373 . S
C387 H401 0.931 . S
C388 O391 1.256 . S
C388 O392 1.255 . S
O389 Co372 2.021 1_565 S
O389 C382 1.259 . S
O390 Co374 2.117 . S
O390 C382 1.258 1_545 S
O391 Co374 2.020 . S
O391 C388 1.256 . S
O392 Co372 2.062 . S
O392 C388 1.255 . S
O393 C373 1.259 . S
O393 Co374 2.021 . S
H394 C385 0.930 . S
H395 C384 0.931 . S
O396 Co372 2.117 . S
O396 C373 1.258 . S
O397 Co372 2.020 . S
O397 C399 1.256 . S
O398 Co374 2.062 . S
O398 C399 1.255 . S
C399 O397 1.256 . S
C399 O398 1.255 . S
H400 C379 0.931 . S
H401 C387 0.931 . S
Co402 N407 2.057 . S
Co402 O419 2.021 . S
Co402 O422 2.062 . S
Co402 O426 2.117 . S
Co402 O427 2.020 . S
C403 O423 1.259 . S
C403 O426 1.258 . S
Co404 N413 2.057 . S
Co404 O420 2.117 . S
Co404 O421 2.020 . S
Co404 O423 2.021 . S
Co404 O428 2.062 . S
C405 N407 1.316 . S
C405 N408 1.347 . S
C405 H410 0.931 . S
C406 N407 1.375 . S
C406 C409 1.350 . S
C406 H411 0.930 . S
N407 Co402 2.057 . S
N407 C405 1.316 . S
N407 C406 1.375 . S
N408 C405 1.347 . S
N408 C409 1.373 . S
C409 C406 1.350 . S
C409 N408 1.373 . S
C409 H430 0.931 . S
H410 C405 0.931 . S
H411 C406 0.930 . S
C412 O419 1.259 . S
C412 O420 1.258 . S
N413 Co404 2.057 . S
N413 C414 1.316 . S
N413 C415 1.375 . S
C414 N413 1.316 . S
C414 N416 1.347 . S
C414 H425 0.931 . S
C415 N413 1.375 . S
C415 C417 1.350 . S
C415 H424 0.930 . S
N416 C414 1.347 . S
N416 C417 1.373 . S
C417 C415 1.350 . S
C417 N416 1.373 . S
C417 H431 0.931 . S
C418 O421 1.256 . S
C418 O422 1.255 . S
O419 Co402 2.021 . S
O419 C412 1.259 . S
O420 Co404 2.117 . S
O420 C412 1.258 . S
O421 Co404 2.020 . S
O421 C418 1.256 . S
O422 Co402 2.062 . S
O422 C418 1.255 . S
O423 C403 1.259 . S
O423 Co404 2.021 . S
H424 C415 0.930 . S
H425 C414 0.931 . S
O426 Co402 2.117 . S
O426 C403 1.258 . S
O427 Co402 2.020 . S
O427 C429 1.256 . S
O428 Co404 2.062 . S
O428 C429 1.255 . S
C429 O427 1.256 . S
C429 O428 1.255 . S
H430 C409 0.931 . S
H431 C417 0.931 . S
Co432 N437 2.057 1_545 S
Co432 O449 2.021 . S
Co432 O452 2.058 1_545 S
Co432 O456 2.117 . S
Co432 O457 2.020 1_455 S
C433 O453 1.259 . S
C433 O456 1.258 . S
Co434 N443 2.057 . S
Co434 O450 2.117 . S
Co434 O451 2.020 . S
Co434 O453 2.021 . S
Co434 O458 2.062 1_455 S
C435 N437 1.316 . S
C435 N438 1.347 . S
C435 H440 0.931 . S
C436 N437 1.375 1_655 S
C436 C439 1.350 . S
C436 H441 0.930 . S
N437 Co432 2.057 1_565 S
N437 C435 1.316 . S
N437 C436 1.375 1_455 S
N438 C435 1.347 . S
N438 C439 1.373 1_455 S
C439 C436 1.350 . S
C439 N438 1.373 1_655 S
C439 H460 0.931 . S
H440 C435 0.931 . S
H441 C436 0.930 . S
C442 O449 1.259 . S
C442 O450 1.258 . S
N443 Co434 2.057 . S
N443 C444 1.316 . S
N443 C445 1.375 . S
C444 N443 1.316 . S
C444 N446 1.347 . S
C444 H455 0.931 . S
C445 N443 1.375 . S
C445 C447 1.350 . S
C445 H454 0.930 . S
N446 C444 1.347 . S
N446 C447 1.373 . S
C447 C445 1.350 . S
C447 N446 1.373 . S
C447 H461 0.931 . S
C448 O451 1.256 . S
C448 O452 1.245 1_545 S
O449 Co432 2.021 . S
O449 C442 1.259 . S
O450 Co434 2.117 . S
O450 C442 1.258 . S
O451 Co434 2.020 . S
O451 C448 1.256 . S
O452 Co432 2.058 1_565 S
O452 C448 1.245 1_565 S
O453 C433 1.259 . S
O453 Co434 2.021 . S
H454 C445 0.930 . S
H455 C444 0.931 . S
O456 Co432 2.117 . S
O456 C433 1.258 . S
O457 Co432 2.020 1_655 S
O457 C459 1.256 . S
O458 Co434 2.062 1_655 S
O458 C459 1.255 . S
C459 O457 1.256 . S
C459 O458 1.255 . S
H460 C439 0.931 . S
H461 C447 0.931 . S
Co462 N467 2.057 . S
Co462 O479 2.021 . S
Co462 O482 2.062 . S
Co462 O486 2.117 . S
Co462 O487 2.020 . S
C463 O483 1.259 . S
C463 O486 1.258 . S
Co464 N473 2.057 . S
Co464 O480 2.117 . S
Co464 O481 2.020 . S
Co464 O483 2.021 . S
Co464 O488 2.062 . S
C465 N467 1.316 . S
C465 N468 1.347 . S
C465 H470 0.931 . S
C466 N467 1.375 . S
C466 C469 1.350 . S
C466 H471 0.930 . S
N467 Co462 2.057 . S
N467 C465 1.316 . S
N467 C466 1.375 . S
N468 C465 1.347 . S
N468 C469 1.373 . S
C469 C466 1.350 . S
C469 N468 1.373 . S
C469 H490 0.931 . S
H470 C465 0.931 . S
H471 C466 0.930 . S
C472 O479 1.259 . S
C472 O480 1.258 . S
N473 Co464 2.057 . S
N473 C474 1.316 . S
N473 C475 1.375 . S
C474 N473 1.316 . S
C474 N476 1.347 . S
C474 H485 0.931 . S
C475 N473 1.375 . S
C475 C477 1.350 . S
C475 H484 0.930 . S
N476 C474 1.347 . S
N476 C477 1.373 . S
C477 C475 1.350 . S
C477 N476 1.373 . S
C477 H491 0.931 . S
C478 O481 1.256 . S
C478 O482 1.255 . S
O479 Co462 2.021 . S
O479 C472 1.259 . S
O480 Co464 2.117 . S
O480 C472 1.258 . S
O481 Co464 2.020 . S
O481 C478 1.256 . S
O482 Co462 2.062 . S
O482 C478 1.255 . S
O483 C463 1.259 . S
O483 Co464 2.021 . S
H484 C475 0.930 . S
H485 C474 0.931 . S
O486 Co462 2.117 . S
O486 C463 1.258 . S
O487 Co462 2.020 . S
O487 C489 1.256 . S
O488 Co464 2.062 . S
O488 C489 1.255 . S
C489 O487 1.256 . S
C489 O488 1.255 . S
H490 C469 0.931 . S
H491 C477 0.931 . S
Co492 N497 2.057 1_554 S
Co492 O509 2.021 . S
Co492 O512 2.062 1_554 S
Co492 O516 2.117 . S
Co492 O517 2.020 1_545 S
C493 O513 1.259 . S
C493 O516 1.258 . S
Co494 N503 2.057 . S
Co494 O510 2.117 . S
Co494 O511 2.020 . S
Co494 O513 2.021 . S
Co494 O518 2.062 . S
C495 N497 1.316 . S
C495 N498 1.347 . S
C495 H500 0.931 . S
C496 N497 1.375 . S
C496 C499 1.350 . S
C496 H501 0.920 1_545 S
N497 Co492 2.057 1_556 S
N497 C495 1.316 . S
N497 C496 1.375 . S
N498 C495 1.347 . S
N498 C499 1.373 . S
C499 C496 1.350 . S
C499 N498 1.373 . S
C499 H520 0.922 1_545 S
H500 C495 0.931 . S
H501 C496 0.920 1_565 S
C502 O509 1.259 . S
C502 O510 1.258 . S
N503 Co494 2.057 . S
N503 C504 1.316 . S
N503 C505 1.375 . S
C504 N503 1.316 . S
C504 N506 1.347 . S
C504 H515 0.931 . S
C505 N503 1.375 . S
C505 C507 1.350 . S
C505 H514 0.930 . S
N506 C504 1.347 . S
N506 C507 1.373 . S
C507 C505 1.350 . S
C507 N506 1.373 . S
C507 H521 0.931 . S
C508 O511 1.256 . S
C508 O512 1.255 1_554 S
O509 Co492 2.021 . S
O509 C502 1.259 . S
O510 Co494 2.117 . S
O510 C502 1.258 . S
O511 Co494 2.020 . S
O511 C508 1.256 . S
O512 Co492 2.062 1_556 S
O512 C508 1.255 1_556 S
O513 C493 1.259 . S
O513 Co494 2.021 . S
H514 C505 0.930 . S
H515 C504 0.931 . S
O516 Co492 2.117 . S
O516 C493 1.258 . S
O517 Co492 2.020 1_565 S
O517 C519 1.256 . S
O518 Co494 2.062 . S
O518 C519 1.255 1_545 S
C519 O517 1.256 . S
C519 O518 1.255 1_565 S
H520 C499 0.922 1_565 S
H521 C507 0.931 . S
Co522 N527 2.057 . S
Co522 O539 2.021 . S
Co522 O542 2.062 . S
Co522 O546 2.117 . S
Co522 O547 2.020 . S
C523 O543 1.259 . S
C523 O546 1.258 . S
Co524 N533 2.057 . S
Co524 O540 2.117 . S
Co524 O541 2.020 . S
Co524 O543 2.021 . S
Co524 O548 2.062 . S
C525 N527 1.316 . S
C525 N528 1.347 . S
C525 H530 0.931 . S
C526 N527 1.375 . S
C526 C529 1.350 . S
C526 H531 0.930 . S
N527 Co522 2.057 . S
N527 C525 1.316 . S
N527 C526 1.375 . S
N528 C525 1.347 . S
N528 C529 1.373 . S
C529 C526 1.350 . S
C529 N528 1.373 . S
C529 H550 0.931 . S
H530 C525 0.931 . S
H531 C526 0.930 . S
C532 O539 1.259 . S
C532 O540 1.258 . S
N533 Co524 2.057 . S
N533 C534 1.316 . S
N533 C535 1.375 . S
C534 N533 1.316 . S
C534 N536 1.347 . S
C534 H545 0.931 . S
C535 N533 1.375 . S
C535 C537 1.350 . S
C535 H544 0.930 . S
N536 C534 1.347 . S
N536 C537 1.373 . S
C537 C535 1.350 . S
C537 N536 1.373 . S
C537 H551 0.931 . S
C538 O541 1.256 . S
C538 O542 1.255 . S
O539 Co522 2.021 . S
O539 C532 1.259 . S
O540 Co524 2.117 . S
O540 C532 1.258 . S
O541 Co524 2.020 . S
O541 C538 1.256 . S
O542 Co522 2.062 . S
O542 C538 1.255 . S
O543 C523 1.259 . S
O543 Co524 2.021 . S
H544 C535 0.930 . S
H545 C534 0.931 . S
O546 Co522 2.117 . S
O546 C523 1.258 . S
O547 Co522 2.020 . S
O547 C549 1.256 . S
O548 Co524 2.062 . S
O548 C549 1.255 . S
C549 O547 1.256 . S
C549 O548 1.255 . S
H550 C529 0.931 . S
H551 C537 0.931 . S
Co552 N557 2.057 . S
Co552 O569 2.021 1_554 S
Co552 O572 2.062 . S
Co552 O576 2.117 . S
Co552 O577 2.020 . S
C553 O573 1.259 . S
C553 O576 1.258 . S
Co554 N563 2.057 . S
Co554 O570 2.117 1_554 S
Co554 O571 2.020 . S
Co554 O573 2.021 . S
Co554 O578 2.062 . S
C555 N557 1.316 1_556 S
C555 N558 1.347 1_556 S
C555 H560 0.931 . S
C556 N557 1.375 . S
C556 C559 1.350 . S
C556 H561 0.930 . S
N557 Co552 2.057 . S
N557 C555 1.316 1_554 S
N557 C556 1.375 . S
N558 C555 1.347 1_554 S
N558 C559 1.373 . S
C559 C556 1.350 . S
C559 N558 1.373 . S
C559 H580 0.931 . S
H560 C555 0.931 . S
H561 C556 0.930 . S
C562 O569 1.259 . S
C562 O570 1.258 . S
N563 Co554 2.057 . S
N563 C564 1.316 . S
N563 C565 1.375 . S
C564 N563 1.316 . S
C564 N566 1.347 . S
C564 H575 0.931 . S
C565 N563 1.375 . S
C565 C567 1.350 . S
C565 H574 0.930 . S
N566 C564 1.347 . S
N566 C567 1.373 . S
C567 C565 1.350 . S
C567 N566 1.373 . S
C567 H581 0.931 . S
C568 O571 1.256 . S
C568 O572 1.255 . S
O569 Co552 2.021 1_556 S
O569 C562 1.259 . S
O570 Co554 2.117 1_556 S
O570 C562 1.258 . S
O571 Co554 2.020 . S
O571 C568 1.256 . S
O572 Co552 2.062 . S
O572 C568 1.255 . S
O573 C553 1.259 . S
O573 Co554 2.021 . S
H574 C565 0.930 . S
H575 C564 0.931 . S
O576 Co552 2.117 . S
O576 C553 1.258 . S
O577 Co552 2.020 . S
O577 C579 1.256 . S
O578 Co554 2.062 . S
O578 C579 1.255 . S
C579 O577 1.256 . S
C579 O578 1.255 . S
H580 C559 0.931 . S
H581 C567 0.931 . S
Co582 N587 2.057 . S
Co582 O599 2.021 . S
Co582 O602 2.062 . S
Co582 O606 2.117 . S
Co582 O607 2.020 . S
C583 O603 1.259 . S
C583 O606 1.258 . S
Co584 N593 2.057 . S
Co584 O600 2.117 . S
Co584 O601 2.020 . S
Co584 O603 2.021 . S
Co584 O608 2.062 . S
C585 N587 1.316 . S
C585 N588 1.347 . S
C585 H590 0.931 . S
C586 N587 1.375 . S
C586 C589 1.350 . S
C586 H591 0.930 . S
N587 Co582 2.057 . S
N587 C585 1.316 . S
N587 C586 1.375 . S
N588 C585 1.347 . S
N588 C589 1.373 . S
C589 C586 1.350 . S
C589 N588 1.373 . S
C589 H610 0.931 . S
H590 C585 0.931 . S
H591 C586 0.930 . S
C592 O599 1.259 . S
C592 O600 1.258 . S
N593 Co584 2.057 . S
N593 C594 1.316 . S
N593 C595 1.375 . S
C594 N593 1.316 . S
C594 N596 1.347 . S
C594 H605 0.931 . S
C595 N593 1.375 . S
C595 C597 1.350 . S
C595 H604 0.930 . S
N596 C594 1.347 . S
N596 C597 1.373 . S
C597 C595 1.350 . S
C597 N596 1.373 . S
C597 H611 0.931 . S
C598 O601 1.256 . S
C598 O602 1.255 . S
O599 Co582 2.021 . S
O599 C592 1.259 . S
O600 Co584 2.117 . S
O600 C592 1.258 . S
O601 Co584 2.020 . S
O601 C598 1.256 . S
O602 Co582 2.062 . S
O602 C598 1.255 . S
O603 C583 1.259 . S
O603 Co584 2.021 . S
H604 C595 0.930 . S
H605 C594 0.931 . S
O606 Co582 2.117 . S
O606 C583 1.258 . S
O607 Co582 2.020 . S
O607 C609 1.256 . S
O608 Co584 2.062 . S
O608 C609 1.255 . S
C609 O607 1.256 . S
C609 O608 1.255 . S
H610 C589 0.931 . S
H611 C597 0.931 . S
Co612 N617 2.057 . S
Co612 O629 2.021 1_455 S
Co612 O632 2.062 . S
Co612 O636 2.117 . S
Co612 O637 2.020 . S
C613 O633 1.259 . S
C613 O636 1.258 . S
Co614 N623 2.057 . S
Co614 O630 2.117 1_455 S
Co614 O631 2.020 . S
Co614 O633 2.021 . S
Co614 O638 2.062 . S
C615 N617 1.316 1_655 S
C615 N618 1.347 . S
C615 H620 0.931 . S
C616 N617 1.375 . S
C616 C619 1.350 . S
C616 H621 0.930 . S
N617 Co612 2.057 . S
N617 C615 1.316 1_455 S
N617 C616 1.375 . S
N618 C615 1.347 . S
N618 C619 1.373 1_655 S
C619 C616 1.350 . S
C619 N618 1.373 1_455 S
C619 H640 0.931 . S
H620 C615 0.931 . S
H621 C616 0.930 . S
C622 O629 1.259 . S
C622 O630 1.258 . S
N623 Co614 2.057 . S
N623 C624 1.316 . S
N623 C625 1.375 . S
C624 N623 1.316 . S
C624 N626 1.347 . S
C624 H635 0.931 . S
C625 N623 1.375 . S
C625 C627 1.350 . S
C625 H634 0.930 . S
N626 C624 1.347 . S
N626 C627 1.373 . S
C627 C625 1.350 . S
C627 N626 1.373 . S
C627 H641 0.931 . S
C628 O631 1.256 . S
C628 O632 1.255 . S
O629 Co612 2.021 1_655 S
O629 C622 1.259 . S
O630 Co614 2.117 1_655 S
O630 C622 1.258 . S
O631 Co614 2.020 . S
O631 C628 1.256 . S
O632 Co612 2.062 . S
O632 C628 1.255 . S
O633 C613 1.259 . S
O633 Co614 2.021 . S
H634 C625 0.930 . S
H635 C624 0.931 . S
O636 Co612 2.117 . S
O636 C613 1.258 . S
O637 Co612 2.020 . S
O637 C639 1.256 . S
O638 Co614 2.062 . S
O638 C639 1.255 . S
C639 O637 1.256 . S
C639 O638 1.255 . S
H640 C619 0.931 . S
H641 C627 0.931 . S
Co642 N647 2.057 . S
Co642 O659 2.021 . S
Co642 O662 2.062 . S
Co642 O666 2.117 . S
Co642 O667 2.020 . S
C643 O663 1.259 . S
C643 O666 1.258 . S
Co644 N653 2.057 . S
Co644 O660 2.117 . S
Co644 O661 2.020 . S
Co644 O663 2.021 . S
Co644 O668 2.062 . S
C645 N647 1.316 . S
C645 N648 1.347 . S
C645 H650 0.931 . S
C646 N647 1.375 . S
C646 C649 1.350 . S
C646 H651 0.930 . S
N647 Co642 2.057 . S
N647 C645 1.316 . S
N647 C646 1.375 . S
N648 C645 1.347 . S
N648 C649 1.373 . S
C649 C646 1.350 . S
C649 N648 1.373 . S
C649 H670 0.931 . S
H650 C645 0.931 . S
H651 C646 0.930 . S
C652 O659 1.259 . S
C652 O660 1.258 . S
N653 Co644 2.057 . S
N653 C654 1.316 . S
N653 C655 1.375 . S
C654 N653 1.316 . S
C654 N656 1.347 . S
C654 H665 0.931 . S
C655 N653 1.375 . S
C655 C657 1.350 . S
C655 H664 0.930 . S
N656 C654 1.347 . S
N656 C657 1.373 . S
C657 C655 1.350 . S
C657 N656 1.373 . S
C657 H671 0.931 . S
C658 O661 1.256 . S
C658 O662 1.255 . S
O659 Co642 2.021 . S
O659 C652 1.259 . S
O660 Co644 2.117 . S
O660 C652 1.258 . S
O661 Co644 2.020 . S
O661 C658 1.256 . S
O662 Co642 2.062 . S
O662 C658 1.255 . S
O663 C643 1.259 . S
O663 Co644 2.021 . S
H664 C655 0.930 . S
H665 C654 0.931 . S
O666 Co642 2.117 . S
O666 C643 1.258 . S
O667 Co642 2.020 . S
O667 C669 1.256 . S
O668 Co644 2.062 . S
O668 C669 1.255 . S
C669 O667 1.256 . S
C669 O668 1.255 . S
H670 C649 0.931 . S
H671 C657 0.931 . S
Co672 N677 2.057 . S
Co672 O689 2.021 . S
Co672 O692 2.062 . S
Co672 O696 2.117 . S
Co672 O697 2.020 . S
C673 O693 1.259 . S
C673 O696 1.258 . S
Co674 N683 2.057 . S
Co674 O690 2.117 . S
Co674 O691 2.020 . S
Co674 O693 2.021 . S
Co674 O698 2.062 . S
C675 N677 1.316 . S
C675 N678 1.347 . S
C675 H680 0.931 . S
C676 N677 1.375 . S
C676 C679 1.350 . S
C676 H681 0.930 . S
N677 Co672 2.057 . S
N677 C675 1.316 . S
N677 C676 1.375 . S
N678 C675 1.347 . S
N678 C679 1.373 . S
C679 C676 1.350 . S
C679 N678 1.373 . S
C679 H700 0.931 . S
H680 C675 0.931 . S
H681 C676 0.930 . S
C682 O689 1.259 . S
C682 O690 1.258 . S
N683 Co674 2.057 . S
N683 C684 1.316 . S
N683 C685 1.375 . S
C684 N683 1.316 . S
C684 N686 1.347 . S
C684 H695 0.931 . S
C685 N683 1.375 . S
C685 C687 1.350 . S
C685 H694 0.930 . S
N686 C684 1.347 . S
N686 C687 1.373 . S
C687 C685 1.350 . S
C687 N686 1.373 . S
C687 H701 0.931 . S
C688 O691 1.256 . S
C688 O692 1.255 . S
O689 Co672 2.021 . S
O689 C682 1.259 . S
O690 Co674 2.117 . S
O690 C682 1.258 . S
O691 Co674 2.020 . S
O691 C688 1.256 . S
O692 Co672 2.062 . S
O692 C688 1.255 . S
O693 C673 1.259 . S
O693 Co674 2.021 . S
H694 C685 0.930 . S
H695 C684 0.931 . S
O696 Co672 2.117 . S
O696 C673 1.258 . S
O697 Co672 2.020 . S
O697 C699 1.256 . S
O698 Co674 2.062 . S
O698 C699 1.255 . S
C699 O697 1.256 . S
C699 O698 1.255 . S
H700 C679 0.931 . S
H701 C687 0.931 . S
Co702 N707 2.057 . S
Co702 O719 2.021 . S
Co702 O722 2.062 . S
Co702 O726 2.117 . S
Co702 O727 2.020 . S
C703 O723 1.259 . S
C703 O726 1.258 . S
Co704 N713 2.057 . S
Co704 O720 2.117 . S
Co704 O721 2.020 . S
Co704 O723 2.021 . S
Co704 O728 2.062 . S
C705 N707 1.316 . S
C705 N708 1.347 . S
C705 H710 0.931 . S
C706 N707 1.375 . S
C706 C709 1.350 . S
C706 H711 0.930 . S
N707 Co702 2.057 . S
N707 C705 1.316 . S
N707 C706 1.375 . S
N708 C705 1.347 . S
N708 C709 1.373 . S
C709 C706 1.350 . S
C709 N708 1.373 . S
C709 H730 0.931 . S
H710 C705 0.931 . S
H711 C706 0.930 . S
C712 O719 1.259 . S
C712 O720 1.258 . S
N713 Co704 2.057 . S
N713 C714 1.316 . S
N713 C715 1.375 . S
C714 N713 1.316 . S
C714 N716 1.347 . S
C714 H725 0.931 . S
C715 N713 1.375 . S
C715 C717 1.350 . S
C715 H724 0.930 . S
N716 C714 1.347 . S
N716 C717 1.373 . S
C717 C715 1.350 . S
C717 N716 1.373 . S
C717 H731 0.931 . S
C718 O721 1.256 . S
C718 O722 1.255 . S
O719 Co702 2.021 . S
O719 C712 1.259 . S
O720 Co704 2.117 . S
O720 C712 1.258 . S
O721 Co704 2.020 . S
O721 C718 1.256 . S
O722 Co702 2.062 . S
O722 C718 1.255 . S
O723 C703 1.259 . S
O723 Co704 2.021 . S
H724 C715 0.930 . S
H725 C714 0.931 . S
O726 Co702 2.117 . S
O726 C703 1.258 . S
O727 Co702 2.020 . S
O727 C729 1.256 . S
O728 Co704 2.062 . S
O728 C729 1.255 . S
C729 O727 1.256 . S
C729 O728 1.255 . S
H730 C709 0.931 . S
H731 C717 0.931 . S
Co732 N737 2.057 . S
Co732 O749 2.021 . S
Co732 O752 2.062 . S
Co732 O756 2.117 . S
Co732 O757 2.020 . S
C733 O753 1.259 . S
C733 O756 1.258 . S
Co734 N743 2.057 . S
Co734 O750 2.117 . S
Co734 O751 2.020 . S
Co734 O753 2.021 . S
Co734 O758 2.062 . S
C735 N737 1.316 . S
C735 N738 1.347 . S
C735 H740 0.931 . S
C736 N737 1.375 . S
C736 C739 1.350 . S
C736 H741 0.930 . S
N737 Co732 2.057 . S
N737 C735 1.316 . S
N737 C736 1.375 . S
N738 C735 1.347 . S
N738 C739 1.373 . S
C739 C736 1.350 . S
C739 N738 1.373 . S
C739 H760 0.931 . S
H740 C735 0.931 . S
H741 C736 0.930 . S
C742 O749 1.259 . S
C742 O750 1.258 . S
N743 Co734 2.057 . S
N743 C744 1.316 . S
N743 C745 1.375 . S
C744 N743 1.316 . S
C744 N746 1.347 . S
C744 H755 0.931 . S
C745 N743 1.375 . S
C745 C747 1.350 . S
C745 H754 0.930 . S
N746 C744 1.347 . S
N746 C747 1.373 . S
C747 C745 1.350 . S
C747 N746 1.373 . S
C747 H761 0.931 . S
C748 O751 1.256 . S
C748 O752 1.255 . S
O749 Co732 2.021 . S
O749 C742 1.259 . S
O750 Co734 2.117 . S
O750 C742 1.258 . S
O751 Co734 2.020 . S
O751 C748 1.256 . S
O752 Co732 2.062 . S
O752 C748 1.255 . S
O753 C733 1.259 . S
O753 Co734 2.021 . S
H754 C745 0.930 . S
H755 C744 0.931 . S
O756 Co732 2.117 . S
O756 C733 1.258 . S
O757 Co732 2.020 . S
O757 C759 1.256 . S
O758 Co734 2.062 . S
O758 C759 1.255 . S
C759 O757 1.256 . S
C759 O758 1.255 . S
H760 C739 0.931 . S
H761 C747 0.931 . S
Co762 N767 2.057 1_455 S
Co762 O779 2.021 . S
Co762 O782 2.062 1_455 S
Co762 O786 2.117 . S
Co762 O787 2.020 1_554 S
C763 O783 1.259 . S
C763 O786 1.258 . S
Co764 N773 2.057 . S
Co764 O780 2.117 . S
Co764 O781 2.020 . S
Co764 O783 2.021 . S
Co764 O788 2.038 1_554 S
C765 N767 1.316 . S
C765 N768 1.347 . S
C765 H770 0.931 . S
C766 N767 1.390 . S
C766 C769 1.350 . S
C766 H771 0.919 1_554 S
N767 Co762 2.057 1_655 S
N767 C765 1.316 . S
N767 C766 1.390 . S
N768 C765 1.347 . S
N768 C769 1.384 . S
C769 C766 1.350 . S
C769 N768 1.384 . S
C769 H790 0.921 1_554 S
H770 C765 0.931 . S
H771 C766 0.919 1_556 S
C772 O779 1.259 . S
C772 O780 1.258 . S
N773 Co764 2.057 . S
N773 C774 1.316 . S
N773 C775 1.375 . S
C774 N773 1.316 . S
C774 N776 1.347 . S
C774 H785 0.931 . S
C775 N773 1.375 . S
C775 C777 1.350 . S
C775 H784 0.930 . S
N776 C774 1.347 . S
N776 C777 1.373 . S
C777 C775 1.350 . S
C777 N776 1.373 . S
C777 H791 0.931 . S
C778 O781 1.256 . S
C778 O782 1.255 1_455 S
O779 Co762 2.021 . S
O779 C772 1.259 . S
O780 Co764 2.117 . S
O780 C772 1.258 . S
O781 Co764 2.020 . S
O781 C778 1.256 . S
O782 Co762 2.062 1_655 S
O782 C778 1.255 1_655 S
O783 C763 1.259 . S
O783 Co764 2.021 . S
H784 C775 0.930 . S
H785 C774 0.931 . S
O786 Co762 2.117 . S
O786 C763 1.258 . S
O787 Co762 2.020 1_556 S
O787 C789 1.256 . S
O788 Co764 2.038 1_556 S
O788 C789 1.271 . S
C789 O787 1.256 . S
C789 O788 1.271 . S
H790 C769 0.921 1_556 S
H791 C777 0.931 . S
C792 C793 1.369 . S
C792 C794 1.419 . S
C792 H796 0.930 . S
C793 C792 1.369 . S
C793 C802 1.429 . S
C794 C792 1.419 . S
C794 C795 1.363 . S
C794 H797 0.929 1_455 S
C795 C794 1.363 . S
C795 C801 1.428 . S
H796 C792 0.930 . S
H797 C794 0.929 1_655 S
S798 N799 1.613 . S
S798 N800 1.610 . S
N799 S798 1.613 . S
N799 C802 1.350 . S
N800 S798 1.610 . S
N800 C801 1.351 . S
C801 C795 1.428 . S
C801 N800 1.351 . S
C801 C802 1.434 . S
C802 C793 1.429 . S
C802 N799 1.350 . S
C802 C801 1.434 . S
C803 C804 1.369 . S
C803 C805 1.419 . S
C803 H807 0.930 . S
C804 C803 1.369 . S
C804 C813 1.429 . S
C805 C803 1.419 . S
C805 C806 1.363 . S
C805 H808 0.929 . S
C806 C805 1.363 . S
C806 C812 1.428 . S
H807 C803 0.930 . S
H808 C805 0.929 . S
S809 N810 1.613 . S
S809 N811 1.610 . S
N810 S809 1.613 . S
N810 C813 1.350 . S
N811 S809 1.610 . S
N811 C812 1.351 . S
C812 C806 1.428 . S
C812 N811 1.351 . S
C812 C813 1.434 . S
C813 C804 1.429 . S
C813 N810 1.350 . S
C813 C812 1.434 . S
C814 C815 1.369 . S
C814 C816 1.419 . S
C814 H818 0.930 . S
C815 C814 1.369 . S
C815 C824 1.429 . S
C816 C814 1.419 . S
C816 C817 1.363 . S
C816 H819 0.929 . S
C817 C816 1.363 . S
C817 C823 1.428 . S
H818 C814 0.930 . S
H819 C816 0.929 . S
S820 N821 1.613 . S
S820 N822 1.610 . S
N821 S820 1.613 . S
N821 C824 1.350 . S
N822 S820 1.610 . S
N822 C823 1.351 . S
C823 C817 1.428 . S
C823 N822 1.351 . S
C823 C824 1.434 . S
C824 C815 1.429 . S
C824 N821 1.350 . S
C824 C823 1.434 . S
C825 C826 1.369 . S
C825 C827 1.419 . S
C825 H829 0.930 . S
C826 C825 1.369 . S
C826 C835 1.429 . S
C827 C825 1.419 . S
C827 C828 1.363 . S
C827 H830 0.929 . S
C828 C827 1.363 . S
C828 C834 1.428 . S
H829 C825 0.930 . S
H830 C827 0.929 . S
S831 N832 1.613 . S
S831 N833 1.610 . S
N832 S831 1.613 . S
N832 C835 1.350 . S
N833 S831 1.610 . S
N833 C834 1.351 . S
C834 C828 1.428 . S
C834 N833 1.351 . S
C834 C835 1.434 . S
C835 C826 1.429 . S
C835 N832 1.350 . S
C835 C834 1.434 . S
C836 C837 1.369 . S
C836 C838 1.419 . S
C836 H840 0.930 . S
C837 C836 1.369 . S
C837 C846 1.429 . S
C838 C836 1.419 . S
C838 C839 1.363 . S
C838 H841 0.929 1_455 S
C839 C838 1.363 . S
C839 C845 1.428 . S
H840 C836 0.930 . S
H841 C838 0.929 1_655 S
S842 N843 1.613 . S
S842 N844 1.610 . S
N843 S842 1.613 . S
N843 C846 1.350 . S
N844 S842 1.610 . S
N844 C845 1.351 . S
C845 C839 1.428 . S
C845 N844 1.351 . S
C845 C846 1.434 . S
C846 C837 1.429 . S
C846 N843 1.350 . S
C846 C845 1.434 . S
C847 C848 1.369 . S
C847 C849 1.419 . S
C847 H851 0.930 . S
C848 C847 1.369 . S
C848 C857 1.429 . S
C849 C847 1.419 . S
C849 C850 1.363 . S
C849 H852 0.929 . S
C850 C849 1.363 . S
C850 C856 1.428 . S
H851 C847 0.930 . S
H852 C849 0.929 . S
S853 N854 1.613 . S
S853 N855 1.610 . S
N854 S853 1.613 . S
N854 C857 1.350 . S
N855 S853 1.610 . S
N855 C856 1.351 . S
C856 C850 1.428 . S
C856 N855 1.351 . S
C856 C857 1.434 . S
C857 C848 1.429 . S
C857 N854 1.350 . S
C857 C856 1.434 . S
C858 C859 1.369 . S
C858 C860 1.419 . S
C858 H862 0.930 . S
C859 C858 1.369 . S
C859 C868 1.429 . S
C860 C858 1.419 . S
C860 C861 1.373 . S
C860 H863 0.929 . S
C861 C860 1.373 . S
C861 C867 1.430 . S
H862 C858 0.930 . S
H863 C860 0.929 . S
S864 N865 1.613 . S
S864 N866 1.610 1_556 S
N865 S864 1.613 . S
N865 C868 1.350 . S
N866 S864 1.610 1_554 S
N866 C867 1.351 1_554 S
C867 C861 1.430 . S
C867 N866 1.351 1_556 S
C867 C868 1.434 . S
C868 C859 1.429 . S
C868 N865 1.350 . S
C868 C867 1.434 . S
C869 C870 1.369 . S
C869 C871 1.419 . S
C869 H873 0.930 . S
C870 C869 1.369 . S
C870 C879 1.429 . S
C871 C869 1.419 . S
C871 C872 1.363 . S
C871 H874 0.929 . S
C872 C871 1.363 . S
C872 C878 1.428 . S
H873 C869 0.930 . S
H874 C871 0.929 . S
S875 N876 1.613 . S
S875 N877 1.610 . S
N876 S875 1.613 . S
N876 C879 1.350 . S
N877 S875 1.610 . S
N877 C878 1.351 . S
C878 C872 1.428 . S
C878 N877 1.351 . S
C878 C879 1.434 . S
C879 C870 1.429 . S
C879 N876 1.350 . S
C879 C878 1.434 . S
C880 C881 1.369 1_565 S
C880 C882 1.419 . S
C880 H884 0.930 . S
C881 C880 1.369 1_545 S
C881 C890 1.429 . S
C882 C880 1.419 . S
C882 C883 1.363 1_565 S
C882 H885 0.929 . S
C883 C882 1.363 1_545 S
C883 C889 1.428 . S
H884 C880 0.930 . S
H885 C882 0.929 . S
S886 N887 1.613 . S
S886 N888 1.610 . S
N887 S886 1.613 . S
N887 C890 1.350 . S
N888 S886 1.610 . S
N888 C889 1.351 . S
C889 C883 1.428 . S
C889 N888 1.351 . S
C889 C890 1.434 . S
C890 C881 1.429 . S
C890 N887 1.350 . S
C890 C889 1.434 . S
C891 C892 1.369 . S
C891 C893 1.419 . S
C891 H895 0.930 . S
C892 C891 1.369 . S
C892 C901 1.429 . S
C893 C891 1.419 . S
C893 C894 1.363 . S
C893 H896 0.929 . S
C894 C893 1.363 . S
C894 C900 1.428 . S
H895 C891 0.930 . S
H896 C893 0.929 . S
S897 N898 1.613 . S
S897 N899 1.610 . S
N898 S897 1.613 . S
N898 C901 1.350 . S
N899 S897 1.610 . S
N899 C900 1.351 . S
C900 C894 1.428 . S
C900 N899 1.351 . S
C900 C901 1.434 . S
C901 C892 1.429 . S
C901 N898 1.350 . S
C901 C900 1.434 . S
C902 C903 1.369 . S
C902 C904 1.419 . S
C902 H906 0.930 . S
C903 C902 1.369 . S
C903 C912 1.429 . S
C904 C902 1.419 . S
C904 C905 1.363 . S
C904 H907 0.929 . S
C905 C904 1.363 . S
C905 C911 1.428 . S
H906 C902 0.930 . S
H907 C904 0.929 . S
S908 N909 1.613 . S
S908 N910 1.610 . S
N909 S908 1.613 . S
N909 C912 1.350 . S
N910 S908 1.610 . S
N910 C911 1.351 . S
C911 C905 1.428 . S
C911 N910 1.351 . S
C911 C912 1.434 . S
C912 C903 1.429 . S
C912 N909 1.350 . S
C912 C911 1.434 . S
C913 C914 1.369 . S
C913 C915 1.419 . S
C913 H917 0.930 . S
C914 C913 1.369 . S
C914 C923 1.429 . S
C915 C913 1.419 . S
C915 C916 1.363 . S
C915 H918 0.929 . S
C916 C915 1.363 . S
C916 C922 1.428 . S
H917 C913 0.930 . S
H918 C915 0.929 . S
S919 N920 1.613 . S
S919 N921 1.610 . S
N920 S919 1.613 . S
N920 C923 1.350 . S
N921 S919 1.610 . S
N921 C922 1.351 . S
C922 C916 1.428 . S
C922 N921 1.351 . S
C922 C923 1.434 . S
C923 C914 1.429 . S
C923 N920 1.350 . S
C923 C922 1.434 . S
C924 C925 1.369 . S
C924 C926 1.419 . S
C924 H928 0.932 1_545 S
C925 C924 1.369 . S
C925 C934 1.429 . S
C926 C924 1.419 . S
C926 C927 1.363 . S
C926 H929 0.929 . S
C927 C926 1.363 . S
C927 C933 1.428 . S
H928 C924 0.932 1_565 S
H929 C926 0.929 . S
S930 N931 1.613 . S
S930 N932 1.610 . S
N931 S930 1.613 . S
N931 C934 1.350 . S
N932 S930 1.610 . S
N932 C933 1.351 . S
C933 C927 1.428 . S
C933 N932 1.351 . S
C933 C934 1.434 . S
C934 C925 1.429 . S
C934 N931 1.350 . S
C934 C933 1.434 . S
C935 C936 1.369 . S
C935 C937 1.419 . S
C935 H939 0.930 . S
C936 C935 1.369 . S
C936 C945 1.429 . S
C937 C935 1.419 . S
C937 C938 1.363 . S
C937 H940 0.929 . S
C938 C937 1.363 . S
C938 C944 1.428 . S
H939 C935 0.930 . S
H940 C937 0.929 . S
S941 N942 1.613 . S
S941 N943 1.610 . S
N942 S941 1.613 . S
N942 C945 1.350 . S
N943 S941 1.610 . S
N943 C944 1.351 . S
C944 C938 1.428 . S
C944 N943 1.351 . S
C944 C945 1.434 . S
C945 C936 1.429 . S
C945 N942 1.350 . S
C945 C944 1.434 . S
C946 C947 1.369 . S
C946 C948 1.419 . S
C946 H950 0.930 . S
C947 C946 1.369 . S
C947 C956 1.429 . S
C948 C946 1.419 . S
C948 C949 1.363 . S
C948 H951 0.929 . S
C949 C948 1.363 . S
C949 C955 1.428 . S
H950 C946 0.930 . S
H951 C948 0.929 . S
S952 N953 1.613 . S
S952 N954 1.610 . S
N953 S952 1.613 . S
N953 C956 1.350 . S
N954 S952 1.610 . S
N954 C955 1.351 . S
C955 C949 1.428 . S
C955 N954 1.351 . S
C955 C956 1.434 . S
C956 C947 1.429 . S
C956 N953 1.350 . S
C956 C955 1.434 . S
C957 C958 1.369 . S
C957 C959 1.419 . S
C957 H961 0.930 . S
C958 C957 1.369 . S
C958 C967 1.429 . S
C959 C957 1.419 . S
C959 C960 1.363 . S
C959 H962 0.929 . S
C960 C959 1.363 . S
C960 C966 1.428 . S
H961 C957 0.930 . S
H962 C959 0.929 . S
S963 N964 1.613 . S
S963 N965 1.610 . S
N964 S963 1.613 . S
N964 C967 1.350 . S
N965 S963 1.610 . S
N965 C966 1.351 . S
C966 C960 1.428 . S
C966 N965 1.351 . S
C966 C967 1.434 . S
C967 C958 1.429 . S
C967 N964 1.350 . S
C967 C966 1.434 . S
C968 C969 1.369 . S
C968 C970 1.419 . S
C968 H972 0.930 1_554 S
C969 C968 1.369 . S
C969 C978 1.429 . S
C970 C968 1.419 . S
C970 C971 1.363 . S
C970 H973 0.929 1_554 S
C971 C970 1.363 . S
C971 C977 1.428 . S
H972 C968 0.930 1_556 S
H973 C970 0.929 1_556 S
S974 N975 1.613 . S
S974 N976 1.610 . S
N975 S974 1.613 . S
N975 C978 1.350 . S
N976 S974 1.610 . S
N976 C977 1.351 . S
C977 C971 1.428 . S
C977 N976 1.351 . S
C977 C978 1.434 . S
C978 C969 1.429 . S
C978 N975 1.350 . S
C978 C977 1.434 . S
C979 C980 1.369 . S
C979 C981 1.419 . S
C979 H983 0.930 . S
C980 C979 1.369 . S
C980 C989 1.429 . S
C981 C979 1.419 . S
C981 C982 1.363 . S
C981 H984 0.929 . S
C982 C981 1.363 . S
C982 C988 1.428 . S
H983 C979 0.930 . S
H984 C981 0.929 . S
S985 N986 1.613 . S
S985 N987 1.610 . S
N986 S985 1.613 . S
N986 C989 1.350 . S
N987 S985 1.610 . S
N987 C988 1.351 . S
C988 C982 1.428 . S
C988 N987 1.351 . S
C988 C989 1.434 . S
C989 C980 1.429 . S
C989 N986 1.350 . S
C989 C988 1.434 . S
C990 C991 1.369 . S
C990 C992 1.419 . S
C990 H994 0.930 . S
C991 C990 1.369 . S
C991 C1000 1.429 . S
C992 C990 1.419 . S
C992 C993 1.363 . S
C992 H995 0.929 . S
C993 C992 1.363 . S
C993 C999 1.428 . S
H994 C990 0.930 . S
H995 C992 0.929 . S
S996 N997 1.613 . S
S996 N998 1.610 . S
N997 S996 1.613 . S
N997 C1000 1.350 . S
N998 S996 1.610 . S
N998 C999 1.351 . S
C999 C993 1.428 . S
C999 N998 1.351 . S
C999 C1000 1.434 . S
C1000 C991 1.429 . S
C1000 N997 1.350 . S
C1000 C999 1.434 . S
C1001 C1002 1.369 . S
C1001 C1003 1.419 . S
C1001 H1005 0.930 . S
C1002 C1001 1.369 . S
C1002 C1011 1.429 . S
C1003 C1001 1.419 . S
C1003 C1004 1.363 . S
C1003 H1006 0.929 . S
C1004 C1003 1.363 . S
C1004 C1010 1.428 . S
H1005 C1001 0.930 . S
H1006 C1003 0.929 . S
S1007 N1008 1.613 . S
S1007 N1009 1.610 . S
N1008 S1007 1.613 . S
N1008 C1011 1.350 . S
N1009 S1007 1.610 . S
N1009 C1010 1.351 . S
C1010 C1004 1.428 . S
C1010 N1009 1.351 . S
C1010 C1011 1.434 . S
C1011 C1002 1.429 . S
C1011 N1008 1.350 . S
C1011 C1010 1.434 . S
C1012 C1013 1.369 . S
C1012 C1014 1.419 . S
C1012 H1016 0.930 . S
C1013 C1012 1.369 . S
C1013 C1022 1.429 . S
C1014 C1012 1.419 . S
C1014 C1015 1.363 . S
C1014 H1017 0.929 . S
C1015 C1014 1.363 . S
C1015 C1021 1.428 . S
H1016 C1012 0.930 . S
H1017 C1014 0.929 . S
S1018 N1019 1.613 . S
S1018 N1020 1.610 . S
N1019 S1018 1.613 . S
N1019 C1022 1.350 . S
N1020 S1018 1.610 . S
N1020 C1021 1.351 . S
C1021 C1015 1.428 . S
C1021 N1020 1.351 . S
C1021 C1022 1.434 . S
C1022 C1013 1.429 . S
C1022 N1019 1.350 . S
C1022 C1021 1.434 . S
C1023 C1024 1.369 . S
C1023 C1025 1.419 . S
C1023 H1027 0.930 . S
C1024 C1023 1.369 . S
C1024 C1033 1.429 . S
C1025 C1023 1.419 . S
C1025 C1026 1.363 . S
C1025 H1028 0.929 1_565 S
C1026 C1025 1.363 . S
C1026 C1032 1.428 . S
H1027 C1023 0.930 . S
H1028 C1025 0.929 1_545 S
S1029 N1030 1.613 . S
S1029 N1031 1.610 . S
N1030 S1029 1.613 . S
N1030 C1033 1.350 . S
N1031 S1029 1.610 . S
N1031 C1032 1.351 . S
C1032 C1026 1.428 . S
C1032 N1031 1.351 . S
C1032 C1033 1.434 . S
C1033 C1024 1.429 . S
C1033 N1030 1.350 . S
C1033 C1032 1.434 . S
C1034 C1035 1.369 . S
C1034 C1036 1.419 . S
C1034 H1038 0.930 . S
C1035 C1034 1.369 . S
C1035 C1044 1.429 . S
C1036 C1034 1.419 . S
C1036 C1037 1.363 . S
C1036 H1039 0.929 . S
C1037 C1036 1.363 . S
C1037 C1043 1.428 . S
H1038 C1034 0.930 . S
H1039 C1036 0.929 . S
S1040 N1041 1.613 . S
S1040 N1042 1.610 . S
N1041 S1040 1.613 . S
N1041 C1044 1.350 . S
N1042 S1040 1.610 . S
N1042 C1043 1.351 . S
C1043 C1037 1.428 . S
C1043 N1042 1.351 . S
C1043 C1044 1.434 . S
C1044 C1035 1.429 . S
C1044 N1041 1.350 . S
C1044 C1043 1.434 . S
C1045 C1046 1.369 . S
C1045 C1047 1.419 . S
C1045 H1049 0.930 . S
C1046 C1045 1.369 . S
C1046 C1055 1.429 . S
C1047 C1045 1.419 . S
C1047 C1048 1.363 . S
C1047 H1050 0.929 . S
C1048 C1047 1.363 . S
C1048 C1054 1.428 . S
H1049 C1045 0.930 . S
H1050 C1047 0.929 . S
S1051 N1052 1.613 . S
S1051 N1053 1.610 . S
N1052 S1051 1.613 . S
N1052 C1055 1.350 . S
N1053 S1051 1.610 . S
N1053 C1054 1.351 . S
C1054 C1048 1.428 . S
C1054 N1053 1.351 . S
C1054 C1055 1.434 . S
C1055 C1046 1.429 . S
C1055 N1052 1.350 . S
C1055 C1054 1.434 . S
C1056 C1057 1.369 1_554 S
C1056 C1058 1.419 . S
C1056 H1060 0.930 . S
C1057 C1056 1.369 1_556 S
C1057 C1066 1.429 . S
C1058 C1056 1.419 . S
C1058 C1059 1.363 1_554 S
C1058 H1061 0.929 . S
C1059 C1058 1.363 1_556 S
C1059 C1065 1.428 . S
H1060 C1056 0.930 . S
H1061 C1058 0.929 . S
S1062 N1063 1.613 . S
S1062 N1064 1.610 . S
N1063 S1062 1.613 . S
N1063 C1066 1.350 . S
N1064 S1062 1.610 . S
N1064 C1065 1.351 . S
C1065 C1059 1.428 . S
C1065 N1064 1.351 . S
C1065 C1066 1.434 . S
C1066 C1057 1.429 . S
C1066 N1063 1.350 . S
C1066 C1065 1.434 . S
C1067 C1068 1.369 . S
C1067 C1069 1.419 . S
C1067 H1071 0.930 . S
C1068 C1067 1.369 . S
C1068 C1077 1.429 . S
C1069 C1067 1.419 . S
C1069 C1070 1.363 . S
C1069 H1072 0.929 . S
C1070 C1069 1.363 . S
C1070 C1076 1.428 . S
H1071 C1067 0.930 . S
H1072 C1069 0.929 . S
S1073 N1074 1.613 . S
S1073 N1075 1.610 . S
N1074 S1073 1.613 . S
N1074 C1077 1.350 . S
N1075 S1073 1.610 . S
N1075 C1076 1.351 . S
C1076 C1070 1.428 . S
C1076 N1075 1.351 . S
C1076 C1077 1.434 . S
C1077 C1068 1.429 . S
C1077 N1074 1.350 . S
C1077 C1076 1.434 . S
C1078 C1079 1.369 . S
C1078 C1080 1.419 . S
C1078 H1082 0.930 . S
C1079 C1078 1.369 . S
C1079 C1088 1.429 . S
C1080 C1078 1.419 . S
C1080 C1081 1.363 . S
C1080 H1083 0.929 . S
C1081 C1080 1.363 . S
C1081 C1087 1.428 . S
H1082 C1078 0.930 . S
H1083 C1080 0.929 . S
S1084 N1085 1.613 . S
S1084 N1086 1.610 . S
N1085 S1084 1.613 . S
N1085 C1088 1.350 . S
N1086 S1084 1.610 . S
N1086 C1087 1.351 . S
C1087 C1081 1.428 . S
C1087 N1086 1.351 . S
C1087 C1088 1.434 . S
C1088 C1079 1.429 . S
C1088 N1085 1.350 . S
C1088 C1087 1.434 . S
C1089 C1090 1.369 . S
C1089 C1091 1.419 . S
C1089 H1093 0.930 . S
C1090 C1089 1.369 . S
C1090 C1099 1.429 . S
C1091 C1089 1.419 . S
C1091 C1092 1.363 . S
C1091 H1094 0.929 . S
C1092 C1091 1.363 . S
C1092 C1098 1.428 . S
H1093 C1089 0.930 . S
H1094 C1091 0.929 . S
S1095 N1096 1.613 . S
S1095 N1097 1.610 . S
N1096 S1095 1.613 . S
N1096 C1099 1.350 . S
N1097 S1095 1.610 . S
N1097 C1098 1.351 . S
C1098 C1092 1.428 . S
C1098 N1097 1.351 . S
C1098 C1099 1.434 . S
C1099 C1090 1.429 . S
C1099 N1096 1.350 . S
C1099 C1098 1.434 . S
C1100 C1101 1.369 . S
C1100 C1102 1.419 . S
C1100 H1104 0.930 1_455 S
C1101 C1100 1.369 . S
C1101 C1110 1.429 . S
C1102 C1100 1.419 . S
C1102 C1103 1.363 . S
C1102 H1105 0.929 . S
C1103 C1102 1.363 . S
C1103 C1109 1.428 . S
H1104 C1100 0.930 1_655 S
H1105 C1102 0.929 . S
S1106 N1107 1.613 . S
S1106 N1108 1.610 . S
N1107 S1106 1.613 . S
N1107 C1110 1.350 . S
N1108 S1106 1.610 . S
N1108 C1109 1.351 . S
C1109 C1103 1.428 . S
C1109 N1108 1.351 . S
C1109 C1110 1.434 . S
C1110 C1101 1.429 . S
C1110 N1107 1.350 . S
C1110 C1109 1.434 . S
C1111 C1112 1.369 . S
C1111 C1113 1.419 . S
C1111 H1115 0.930 . S
C1112 C1111 1.369 . S
C1112 C1121 1.429 . S
C1113 C1111 1.419 . S
C1113 C1114 1.363 . S
C1113 H1116 0.929 . S
C1114 C1113 1.363 . S
C1114 C1120 1.428 . S
H1115 C1111 0.930 . S
H1116 C1113 0.929 . S
S1117 N1118 1.613 . S
S1117 N1119 1.610 . S
N1118 S1117 1.613 . S
N1118 C1121 1.350 . S
N1119 S1117 1.610 . S
N1119 C1120 1.351 . S
C1120 C1114 1.428 . S
C1120 N1119 1.351 . S
C1120 C1121 1.434 . S
C1121 C1112 1.429 . S
C1121 N1118 1.350 . S
C1121 C1120 1.434 . S
C1122 C1123 1.369 . S
C1122 C1124 1.419 . S
C1122 H1126 0.930 . S
C1123 C1122 1.369 . S
C1123 C1132 1.429 . S
C1124 C1122 1.419 . S
C1124 C1125 1.363 . S
C1124 H1127 0.929 . S
C1125 C1124 1.363 . S
C1125 C1131 1.428 . S
H1126 C1122 0.930 . S
H1127 C1124 0.929 . S
S1128 N1129 1.613 . S
S1128 N1130 1.610 . S
N1129 S1128 1.613 . S
N1129 C1132 1.350 . S
N1130 S1128 1.610 . S
N1130 C1131 1.351 . S
C1131 C1125 1.428 . S
C1131 N1130 1.351 . S
C1131 C1132 1.434 . S
C1132 C1123 1.429 . S
C1132 N1129 1.350 . S
C1132 C1131 1.434 . S
C1133 C1134 1.369 . S
C1133 C1135 1.419 . S
C1133 H1137 0.930 . S
C1134 C1133 1.369 . S
C1134 C1143 1.429 . S
C1135 C1133 1.419 . S
C1135 C1136 1.363 . S
C1135 H1138 0.929 . S
C1136 C1135 1.363 . S
C1136 C1142 1.428 . S
H1137 C1133 0.930 . S
H1138 C1135 0.929 . S
S1139 N1140 1.613 . S
S1139 N1141 1.610 . S
N1140 S1139 1.613 . S
N1140 C1143 1.350 . S
N1141 S1139 1.610 . S
N1141 C1142 1.351 . S
C1142 C1136 1.428 . S
C1142 N1141 1.351 . S
C1142 C1143 1.434 . S
C1143 C1134 1.429 . S
C1143 N1140 1.350 . S
C1143 C1142 1.434 . S
C1144 C1145 1.369 . S
C1144 C1146 1.419 . S
C1144 H1148 0.930 . S
C1145 C1144 1.369 . S
C1145 C1154 1.429 . S
C1146 C1144 1.419 . S
C1146 C1147 1.363 . S
C1146 H1149 0.929 . S
C1147 C1146 1.363 . S
C1147 C1153 1.428 . S
H1148 C1144 0.930 . S
H1149 C1146 0.929 . S
S1150 N1151 1.618 . S
S1150 N1152 1.617 . S
N1151 S1150 1.618 . S
N1151 C1154 1.350 . S
N1152 S1150 1.617 . S
N1152 C1153 1.351 . S
C1153 C1147 1.428 . S
C1153 N1152 1.351 . S
C1153 C1154 1.434 . S
C1154 C1145 1.429 . S
C1154 N1151 1.350 . S
C1154 C1153 1.434 . S
C1155 C1156 1.369 . S
C1155 C1157 1.419 . S
C1155 H1159 0.930 . S
C1156 C1155 1.369 . S
C1156 C1165 1.429 . S
C1157 C1155 1.419 . S
C1157 C1158 1.363 . S
C1157 H1160 0.929 . S
C1158 C1157 1.363 . S
C1158 C1164 1.428 . S
H1159 C1155 0.930 . S
H1160 C1157 0.929 . S
S1161 N1162 1.613 . S
S1161 N1163 1.610 . S
N1162 S1161 1.613 . S
N1162 C1165 1.350 . S
N1163 S1161 1.610 . S
N1163 C1164 1.351 . S
C1164 C1158 1.428 . S
C1164 N1163 1.351 . S
C1164 C1165 1.434 . S
C1165 C1156 1.429 . S
C1165 N1162 1.350 . S
C1165 C1164 1.434 . S
C1166 C1167 1.369 . S
C1166 C1168 1.419 . S
C1166 H1170 0.930 . S
C1167 C1166 1.369 . S
C1167 C1176 1.429 1_545 S
C1168 C1166 1.419 . S
C1168 C1169 1.363 . S
C1168 H1171 0.929 . S
C1169 C1168 1.363 . S
C1169 C1175 1.428 1_545 S
H1170 C1166 0.930 . S
H1171 C1168 0.929 . S
S1172 N1173 1.613 . S
S1172 N1174 1.610 . S
N1173 S1172 1.613 . S
N1173 C1176 1.350 . S
N1174 S1172 1.610 . S
N1174 C1175 1.351 . S
C1175 C1169 1.428 1_565 S
C1175 N1174 1.351 . S
C1175 C1176 1.434 . S
C1176 C1167 1.429 1_565 S
C1176 N1173 1.350 . S
C1176 C1175 1.434 . S
C1177 C1178 1.369 . S
C1177 C1179 1.419 . S
C1177 H1181 0.930 . S
C1178 C1177 1.369 . S
C1178 C1187 1.429 . S
C1179 C1177 1.419 . S
C1179 C1180 1.363 . S
C1179 H1182 0.929 . S
C1180 C1179 1.363 . S
C1180 C1186 1.428 . S
H1181 C1177 0.930 . S
H1182 C1179 0.929 . S
S1183 N1184 1.613 . S
S1183 N1185 1.610 . S
N1184 S1183 1.613 . S
N1184 C1187 1.350 . S
N1185 S1183 1.610 . S
N1185 C1186 1.351 . S
C1186 C1180 1.428 . S
C1186 N1185 1.351 . S
C1186 C1187 1.434 . S
C1187 C1178 1.429 . S
C1187 N1184 1.350 . S
C1187 C1186 1.434 . S
C1188 C1189 1.369 . S
C1188 C1190 1.419 . S
C1188 H1192 0.930 . S
C1189 C1188 1.369 . S
C1189 C1198 1.429 . S
C1190 C1188 1.419 . S
C1190 C1191 1.363 . S
C1190 H1193 0.929 . S
C1191 C1190 1.363 . S
C1191 C1197 1.428 1_655 S
H1192 C1188 0.930 . S
H1193 C1190 0.929 . S
S1194 N1195 1.613 . S
S1194 N1196 1.610 . S
N1195 S1194 1.613 . S
N1195 C1198 1.350 1_455 S
N1196 S1194 1.610 . S
N1196 C1197 1.351 . S
C1197 C1191 1.428 1_455 S
C1197 N1196 1.351 . S
C1197 C1198 1.434 1_455 S
C1198 C1189 1.429 . S
C1198 N1195 1.350 1_655 S
C1198 C1197 1.434 1_655 S
C1199 C1200 1.369 . S
C1199 C1201 1.419 . S
C1199 H1203 0.930 . S
C1200 C1199 1.369 . S
C1200 C1209 1.429 . S
C1201 C1199 1.419 . S
C1201 C1202 1.363 . S
C1201 H1204 0.929 . S
C1202 C1201 1.363 . S
C1202 C1208 1.428 . S
H1203 C1199 0.930 . S
H1204 C1201 0.929 . S
S1205 N1206 1.613 . S
S1205 N1207 1.610 . S
N1206 S1205 1.613 . S
N1206 C1209 1.350 . S
N1207 S1205 1.610 . S
N1207 C1208 1.351 . S
C1208 C1202 1.428 . S
C1208 N1207 1.351 . S
C1208 C1209 1.434 . S
C1209 C1200 1.429 . S
C1209 N1206 1.350 . S
C1209 C1208 1.434 . S
C1210 C1211 1.369 . S
C1210 C1212 1.419 . S
C1210 H1214 0.930 1_545 S
C1211 C1210 1.369 . S
C1211 C1220 1.429 . S
C1212 C1210 1.419 . S
C1212 C1213 1.363 . S
C1212 H1215 0.929 . S
C1213 C1212 1.363 . S
C1213 C1219 1.428 . S
H1214 C1210 0.930 1_565 S
H1215 C1212 0.929 . S
S1216 N1217 1.613 . S
S1216 N1218 1.610 . S
N1217 S1216 1.613 . S
N1217 C1220 1.350 . S
N1218 S1216 1.610 . S
N1218 C1219 1.351 . S
C1219 C1213 1.428 . S
C1219 N1218 1.351 . S
C1219 C1220 1.434 . S
C1220 C1211 1.429 . S
C1220 N1217 1.350 . S
C1220 C1219 1.434 . S
C1221 C1222 1.369 . S
C1221 C1223 1.419 . S
C1221 H1225 0.930 . S
C1222 C1221 1.369 . S
C1222 C1231 1.429 . S
C1223 C1221 1.419 . S
C1223 C1224 1.363 . S
C1223 H1226 0.929 . S
C1224 C1223 1.363 . S
C1224 C1230 1.428 . S
H1225 C1221 0.930 . S
H1226 C1223 0.929 . S
S1227 N1228 1.613 . S
S1227 N1229 1.610 . S
N1228 S1227 1.613 . S
N1228 C1231 1.350 . S
N1229 S1227 1.610 . S
N1229 C1230 1.351 . S
C1230 C1224 1.428 . S
C1230 N1229 1.351 . S
C1230 C1231 1.434 . S
C1231 C1222 1.429 . S
C1231 N1228 1.350 . S
C1231 C1230 1.434 . S
C1232 C1233 1.369 1_545 S
C1232 C1234 1.419 . S
C1232 H1236 0.930 . S
C1233 C1232 1.369 1_565 S
C1233 C1242 1.429 . S
C1234 C1232 1.419 . S
C1234 C1235 1.363 . S
C1234 H1237 0.929 . S
C1235 C1234 1.363 . S
C1235 C1241 1.428 1_545 S
H1236 C1232 0.930 . S
H1237 C1234 0.929 . S
S1238 N1239 1.613 . S
S1238 N1240 1.610 . S
N1239 S1238 1.613 . S
N1239 C1242 1.350 . S
N1240 S1238 1.610 . S
N1240 C1241 1.351 . S
C1241 C1235 1.428 1_565 S
C1241 N1240 1.351 . S
C1241 C1242 1.434 . S
C1242 C1233 1.429 . S
C1242 N1239 1.350 . S
C1242 C1241 1.434 . S
C1243 C1244 1.369 1_554 S
C1243 C1245 1.419 . S
C1243 H1247 0.930 . S
C1244 C1243 1.369 1_556 S
C1244 C1253 1.429 . S
C1245 C1243 1.419 . S
C1245 C1246 1.363 . S
C1245 H1248 0.929 . S
C1246 C1245 1.363 . S
C1246 C1252 1.428 1_554 S
H1247 C1243 0.930 . S
H1248 C1245 0.929 . S
S1249 N1250 1.613 . S
S1249 N1251 1.610 . S
N1250 S1249 1.613 . S
N1250 C1253 1.350 . S
N1251 S1249 1.610 . S
N1251 C1252 1.351 . S
C1252 C1246 1.428 1_556 S
C1252 N1251 1.351 . S
C1252 C1253 1.434 . S
C1253 C1244 1.429 . S
C1253 N1250 1.350 . S
C1253 C1252 1.434 . S
C1254 C1255 1.369 . S
C1254 C1256 1.419 . S
C1254 H1258 0.930 . S
C1255 C1254 1.369 . S
C1255 C1264 1.429 . S
C1256 C1254 1.419 . S
C1256 C1257 1.363 . S
C1256 H1259 0.929 . S
C1257 C1256 1.363 . S
C1257 C1263 1.428 . S
H1258 C1254 0.930 . S
H1259 C1256 0.929 . S
S1260 N1261 1.613 . S
S1260 N1262 1.610 . S
N1261 S1260 1.613 . S
N1261 C1264 1.350 . S
N1262 S1260 1.610 . S
N1262 C1263 1.351 . S
C1263 C1257 1.428 . S
C1263 N1262 1.351 . S
C1263 C1264 1.434 . S
C1264 C1255 1.429 . S
C1264 N1261 1.350 . S
C1264 C1263 1.434 . S
C1265 C1266 1.369 . S
C1265 C1267 1.419 . S
C1265 H1269 0.930 . S
C1266 C1265 1.369 . S
C1266 C1275 1.429 . S
C1267 C1265 1.419 . S
C1267 C1268 1.363 . S
C1267 H1270 0.929 . S
C1268 C1267 1.363 . S
C1268 C1274 1.428 . S
H1269 C1265 0.930 . S
H1270 C1267 0.929 . S
S1271 N1272 1.613 . S
S1271 N1273 1.610 . S
N1272 S1271 1.613 . S
N1272 C1275 1.350 . S
N1273 S1271 1.610 . S
N1273 C1274 1.351 . S
C1274 C1268 1.428 . S
C1274 N1273 1.351 . S
C1274 C1275 1.434 . S
C1275 C1266 1.429 . S
C1275 N1272 1.350 . S
C1275 C1274 1.434 . S
C1276 C1277 1.369 . S
C1276 C1278 1.419 . S
C1276 H1280 0.930 1_565 S
C1277 C1276 1.369 . S
C1277 C1286 1.429 . S
C1278 C1276 1.419 . S
C1278 C1279 1.363 . S
C1278 H1281 0.929 . S
C1279 C1278 1.363 . S
C1279 C1285 1.428 . S
H1280 C1276 0.930 1_545 S
H1281 C1278 0.929 . S
S1282 N1283 1.613 . S
S1282 N1284 1.610 . S
N1283 S1282 1.613 . S
N1283 C1286 1.350 . S
N1284 S1282 1.610 . S
N1284 C1285 1.351 . S
C1285 C1279 1.428 . S
C1285 N1284 1.351 . S
C1285 C1286 1.434 . S
C1286 C1277 1.429 . S
C1286 N1283 1.350 . S
C1286 C1285 1.434 . S
C1287 C1288 1.369 . S
C1287 C1289 1.419 . S
C1287 H1291 0.930 . S
C1288 C1287 1.369 . S
C1288 C1297 1.429 . S
C1289 C1287 1.419 . S
C1289 C1290 1.363 . S
C1289 H1292 0.929 . S
C1290 C1289 1.363 . S
C1290 C1296 1.428 . S
H1291 C1287 0.930 . S
H1292 C1289 0.929 . S
S1293 N1294 1.613 . S
S1293 N1295 1.610 . S
N1294 S1293 1.613 . S
N1294 C1297 1.350 . S
N1295 S1293 1.610 . S
N1295 C1296 1.351 . S
C1296 C1290 1.428 . S
C1296 N1295 1.351 . S
C1296 C1297 1.434 . S
C1297 C1288 1.429 . S
C1297 N1294 1.350 . S
C1297 C1296 1.434 . S
C1298 C1299 1.369 . S
C1298 C1300 1.419 . S
C1298 H1302 0.930 . S
C1299 C1298 1.369 . S
C1299 C1308 1.429 . S
C1300 C1298 1.419 . S
C1300 C1301 1.363 . S
C1300 H1303 0.929 . S
C1301 C1300 1.363 . S
C1301 C1307 1.428 . S
H1302 C1298 0.930 . S
H1303 C1300 0.929 . S
S1304 N1305 1.613 . S
S1304 N1306 1.610 . S
N1305 S1304 1.613 . S
N1305 C1308 1.350 . S
N1306 S1304 1.610 . S
N1306 C1307 1.351 . S
C1307 C1301 1.428 . S
C1307 N1306 1.351 . S
C1307 C1308 1.434 . S
C1308 C1299 1.429 . S
C1308 N1305 1.350 . S
C1308 C1307 1.434 . S
C1309 C1310 1.369 . S
C1309 C1311 1.419 . S
C1309 H1313 0.930 . S
C1310 C1309 1.369 . S
C1310 C1319 1.429 . S
C1311 C1309 1.419 . S
C1311 C1312 1.363 . S
C1311 H1314 0.929 . S
C1312 C1311 1.363 . S
C1312 C1318 1.428 . S
H1313 C1309 0.930 . S
H1314 C1311 0.929 . S
S1315 N1316 1.613 . S
S1315 N1317 1.610 . S
N1316 S1315 1.613 . S
N1316 C1319 1.350 . S
N1317 S1315 1.610 . S
N1317 C1318 1.351 . S
C1318 C1312 1.428 . S
C1318 N1317 1.351 . S
C1318 C1319 1.434 . S
C1319 C1310 1.429 . S
C1319 N1316 1.350 . S
C1319 C1318 1.434 . S
C1320 C1321 1.369 . S
C1320 C1322 1.419 . S
C1320 H1324 0.930 . S
C1321 C1320 1.369 . S
C1321 C1330 1.429 . S
C1322 C1320 1.419 . S
C1322 C1323 1.363 . S
C1322 H1325 0.929 . S
C1323 C1322 1.363 . S
C1323 C1329 1.428 . S
H1324 C1320 0.930 . S
H1325 C1322 0.929 . S
S1326 N1327 1.613 . S
S1326 N1328 1.610 . S
N1327 S1326 1.613 . S
N1327 C1330 1.350 . S
N1328 S1326 1.610 . S
N1328 C1329 1.351 . S
C1329 C1323 1.428 . S
C1329 N1328 1.351 . S
C1329 C1330 1.434 . S
C1330 C1321 1.429 . S
C1330 N1327 1.350 . S
C1330 C1329 1.434 . S
C1331 C1332 1.369 . S
C1331 C1333 1.419 . S
C1331 H1335 0.930 . S
C1332 C1331 1.369 . S
C1332 C1341 1.429 . S
C1333 C1331 1.419 . S
C1333 C1334 1.363 . S
C1333 H1336 0.929 . S
C1334 C1333 1.363 . S
C1334 C1340 1.428 . S
H1335 C1331 0.930 . S
H1336 C1333 0.929 . S
S1337 N1338 1.613 . S
S1337 N1339 1.610 . S
N1338 S1337 1.613 . S
N1338 C1341 1.350 . S
N1339 S1337 1.610 . S
N1339 C1340 1.351 . S
C1340 C1334 1.428 . S
C1340 N1339 1.351 . S
C1340 C1341 1.434 . S
C1341 C1332 1.429 . S
C1341 N1338 1.350 . S
C1341 C1340 1.434 . S
C1342 C1343 1.369 . S
C1342 C1344 1.419 . S
C1342 H1346 0.930 1_455 S
C1343 C1342 1.369 . S
C1343 C1352 1.429 . S
C1344 C1342 1.419 . S
C1344 C1345 1.363 . S
C1344 H1347 0.915 1_455 S
C1345 C1344 1.363 . S
C1345 C1351 1.428 . S
H1346 C1342 0.930 1_655 S
H1347 C1344 0.915 1_655 S
S1348 N1349 1.613 . S
S1348 N1350 1.610 . S
N1349 S1348 1.613 . S
N1349 C1352 1.350 . S
N1350 S1348 1.610 . S
N1350 C1351 1.351 . S
C1351 C1345 1.428 . S
C1351 N1350 1.351 . S
C1351 C1352 1.434 . S
C1352 C1343 1.429 . S
C1352 N1349 1.350 . S
C1352 C1351 1.434 . S
C1353 C1354 1.369 . S
C1353 C1355 1.419 . S
C1353 H1357 0.930 . S
C1354 C1353 1.369 . S
C1354 C1363 1.429 . S
C1355 C1353 1.419 . S
C1355 C1356 1.363 . S
C1355 H1358 0.929 . S
C1356 C1355 1.363 . S
C1356 C1362 1.428 . S
H1357 C1353 0.930 . S
H1358 C1355 0.929 . S
S1359 N1360 1.613 . S
S1359 N1361 1.610 . S
N1360 S1359 1.613 . S
N1360 C1363 1.350 . S
N1361 S1359 1.610 . S
N1361 C1362 1.351 . S
C1362 C1356 1.428 . S
C1362 N1361 1.351 . S
C1362 C1363 1.434 . S
C1363 C1354 1.429 . S
C1363 N1360 1.350 . S
C1363 C1362 1.434 . S
C1364 C1365 1.369 . S
C1364 C1366 1.419 . S
C1364 H1368 0.930 . S
C1365 C1364 1.369 . S
C1365 C1374 1.429 . S
C1366 C1364 1.419 . S
C1366 C1367 1.363 . S
C1366 H1369 0.929 . S
C1367 C1366 1.363 . S
C1367 C1373 1.428 . S
H1368 C1364 0.930 . S
H1369 C1366 0.929 . S
S1370 N1371 1.613 1_554 S
S1370 N1372 1.610 . S
N1371 S1370 1.613 1_556 S
N1371 C1374 1.350 . S
N1372 S1370 1.610 . S
N1372 C1373 1.351 1_554 S
C1373 C1367 1.428 . S
C1373 N1372 1.351 1_556 S
C1373 C1374 1.434 . S
C1374 C1365 1.429 . S
C1374 N1371 1.350 . S
C1374 C1373 1.434 . S
C1375 C1376 1.369 . S
C1375 C1377 1.419 . S
C1375 H1379 0.930 . S
C1376 C1375 1.369 . S
C1376 C1385 1.429 . S
C1377 C1375 1.419 . S
C1377 C1378 1.363 . S
C1377 H1380 0.929 . S
C1378 C1377 1.363 . S
C1378 C1384 1.428 . S
H1379 C1375 0.930 . S
H1380 C1377 0.929 . S
S1381 N1382 1.613 . S
S1381 N1383 1.610 . S
N1382 S1381 1.613 . S
N1382 C1385 1.350 . S
N1383 S1381 1.610 . S
N1383 C1384 1.351 . S
C1384 C1378 1.428 . S
C1384 N1383 1.351 . S
C1384 C1385 1.434 . S
C1385 C1376 1.429 . S
C1385 N1382 1.350 . S
C1385 C1384 1.434 . S
C1386 C1387 1.369 . S
C1386 C1388 1.419 . S
C1386 H1390 0.930 . S
C1387 C1386 1.369 . S
C1387 C1396 1.429 . S
C1388 C1386 1.419 . S
C1388 C1389 1.363 . S
C1388 H1391 0.929 . S
C1389 C1388 1.363 . S
C1389 C1395 1.428 . S
H1390 C1386 0.930 . S
H1391 C1388 0.929 . S
S1392 N1393 1.613 . S
S1392 N1394 1.610 . S
N1393 S1392 1.613 . S
N1393 C1396 1.350 . S
N1394 S1392 1.610 . S
N1394 C1395 1.351 . S
C1395 C1389 1.428 . S
C1395 N1394 1.351 . S
C1395 C1396 1.434 . S
C1396 C1387 1.429 . S
C1396 N1393 1.350 . S
C1396 C1395 1.434 . S
C1397 C1398 1.369 . S
C1397 C1399 1.419 . S
C1397 H1401 0.930 . S
C1398 C1397 1.369 . S
C1398 C1407 1.429 . S
C1399 C1397 1.419 . S
C1399 C1400 1.363 . S
C1399 H1402 0.929 . S
C1400 C1399 1.363 . S
C1400 C1406 1.428 . S
H1401 C1397 0.930 . S
H1402 C1399 0.929 . S
S1403 N1404 1.613 . S
S1403 N1405 1.610 . S
N1404 S1403 1.613 . S
N1404 C1407 1.350 . S
N1405 S1403 1.610 . S
N1405 C1406 1.351 . S
C1406 C1400 1.428 . S
C1406 N1405 1.351 . S
C1406 C1407 1.434 . S
C1407 C1398 1.429 . S
C1407 N1404 1.350 . S
C1407 C1406 1.434 . S
C1408 C1409 1.369 . S
C1408 C1410 1.419 . S
C1408 H1412 0.930 . S
C1409 C1408 1.369 . S
C1409 C1418 1.429 . S
C1410 C1408 1.419 . S
C1410 C1411 1.363 . S
C1410 H1413 0.929 . S
C1411 C1410 1.363 . S
C1411 C1417 1.428 . S
H1412 C1408 0.930 . S
H1413 C1410 0.929 . S
S1414 N1415 1.613 . S
S1414 N1416 1.610 . S
N1415 S1414 1.613 . S
N1415 C1418 1.350 . S
N1416 S1414 1.610 . S
N1416 C1417 1.351 . S
C1417 C1411 1.428 . S
C1417 N1416 1.351 . S
C1417 C1418 1.434 . S
C1418 C1409 1.429 . S
C1418 N1415 1.350 . S
C1418 C1417 1.434 . S
C1419 C1420 1.369 . S
C1419 C1421 1.419 . S
C1419 H1423 0.930 1_556 S
C1420 C1419 1.369 . S
C1420 C1429 1.429 . S
C1421 C1419 1.419 . S
C1421 C1422 1.363 . S
C1421 H1424 0.929 . S
C1422 C1421 1.363 . S
C1422 C1428 1.428 . S
H1423 C1419 0.930 1_554 S
H1424 C1421 0.929 . S
S1425 N1426 1.613 . S
S1425 N1427 1.610 . S
N1426 S1425 1.613 . S
N1426 C1429 1.350 . S
N1427 S1425 1.610 . S
N1427 C1428 1.351 . S
C1428 C1422 1.428 . S
C1428 N1427 1.351 . S
C1428 C1429 1.434 . S
C1429 C1420 1.429 . S
C1429 N1426 1.350 . S
C1429 C1428 1.434 . S
C1430 C1431 1.369 . S
C1430 C1432 1.419 . S
C1430 H1434 0.930 . S
C1431 C1430 1.369 . S
C1431 C1440 1.429 . S
C1432 C1430 1.419 . S
C1432 C1433 1.363 . S
C1432 H1435 0.929 . S
C1433 C1432 1.363 . S
C1433 C1439 1.428 . S
H1434 C1430 0.930 . S
H1435 C1432 0.929 . S
S1436 N1437 1.613 . S
S1436 N1438 1.610 . S
N1437 S1436 1.613 . S
N1437 C1440 1.350 . S
N1438 S1436 1.610 . S
N1438 C1439 1.351 . S
C1439 C1433 1.428 . S
C1439 N1438 1.351 . S
C1439 C1440 1.434 . S
C1440 C1431 1.429 . S
C1440 N1437 1.350 . S
C1440 C1439 1.434 . S
C1441 C1442 1.369 . S
C1441 C1443 1.419 . S
C1441 H1445 0.930 . S
C1442 C1441 1.369 . S
C1442 C1451 1.429 . S
C1443 C1441 1.419 . S
C1443 C1444 1.363 . S
C1443 H1446 0.929 . S
C1444 C1443 1.363 . S
C1444 C1450 1.428 . S
H1445 C1441 0.930 . S
H1446 C1443 0.929 . S
S1447 N1448 1.613 . S
S1447 N1449 1.610 . S
N1448 S1447 1.613 . S
N1448 C1451 1.350 . S
N1449 S1447 1.610 . S
N1449 C1450 1.351 . S
C1450 C1444 1.428 . S
C1450 N1449 1.351 . S
C1450 C1451 1.434 . S
C1451 C1442 1.429 . S
C1451 N1448 1.350 . S
C1451 C1450 1.434 . S
C1452 C1453 1.369 . S
C1452 C1454 1.419 . S
C1452 H1456 0.930 . S
C1453 C1452 1.369 . S
C1453 C1462 1.429 . S
C1454 C1452 1.419 . S
C1454 C1455 1.363 . S
C1454 H1457 0.929 . S
C1455 C1454 1.363 . S
C1455 C1461 1.428 . S
H1456 C1452 0.930 . S
H1457 C1454 0.929 . S
S1458 N1459 1.613 . S
S1458 N1460 1.610 . S
N1459 S1458 1.613 . S
N1459 C1462 1.350 . S
N1460 S1458 1.610 . S
N1460 C1461 1.351 . S
C1461 C1455 1.428 . S
C1461 N1460 1.351 . S
C1461 C1462 1.434 . S
C1462 C1453 1.429 . S
C1462 N1459 1.350 . S
C1462 C1461 1.434 . S
C1463 C1464 1.369 . S
C1463 C1465 1.419 . S
C1463 H1467 0.930 . S
C1464 C1463 1.369 . S
C1464 C1473 1.429 . S
C1465 C1463 1.419 . S
C1465 C1466 1.363 . S
C1465 H1468 0.929 . S
C1466 C1465 1.363 . S
C1466 C1472 1.428 . S
H1467 C1463 0.930 . S
H1468 C1465 0.929 . S
S1469 N1470 1.613 . S
S1469 N1471 1.610 . S
N1470 S1469 1.613 . S
N1470 C1473 1.350 . S
N1471 S1469 1.610 . S
N1471 C1472 1.351 . S
C1472 C1466 1.428 . S
C1472 N1471 1.351 . S
C1472 C1473 1.434 . S
C1473 C1464 1.429 . S
C1473 N1470 1.350 . S
C1473 C1472 1.434 . S
C1474 C1475 1.369 . S
C1474 C1476 1.419 . S
C1474 H1478 0.930 . S
C1475 C1474 1.369 . S
C1475 C1484 1.429 . S
C1476 C1474 1.419 . S
C1476 C1477 1.363 . S
C1476 H1479 0.929 1_655 S
C1477 C1476 1.363 . S
C1477 C1483 1.428 . S
H1478 C1474 0.930 . S
H1479 C1476 0.929 1_455 S
S1480 N1481 1.613 . S
S1480 N1482 1.610 . S
N1481 S1480 1.613 . S
N1481 C1484 1.350 . S
N1482 S1480 1.610 . S
N1482 C1483 1.351 . S
C1483 C1477 1.428 . S
C1483 N1482 1.351 . S
C1483 C1484 1.434 . S
C1484 C1475 1.429 . S
C1484 N1481 1.350 . S
C1484 C1483 1.434 . S
C1485 C1486 1.369 . S
C1485 C1487 1.419 . S
C1485 H1489 0.930 . S
C1486 C1485 1.369 . S
C1486 C1495 1.429 . S
C1487 C1485 1.419 . S
C1487 C1488 1.363 . S
C1487 H1490 0.929 . S
C1488 C1487 1.363 . S
C1488 C1494 1.428 . S
H1489 C1485 0.930 . S
H1490 C1487 0.929 . S
S1491 N1492 1.613 . S
S1491 N1493 1.610 . S
N1492 S1491 1.613 . S
N1492 C1495 1.350 . S
N1493 S1491 1.610 . S
N1493 C1494 1.351 . S
C1494 C1488 1.428 . S
C1494 N1493 1.351 . S
C1494 C1495 1.434 . S
C1495 C1486 1.429 . S
C1495 N1492 1.350 . S
C1495 C1494 1.434 . S
C1496 C1497 1.369 . S
C1496 C1498 1.419 . S
C1496 H1500 0.930 . S
C1497 C1496 1.369 . S
C1497 C1506 1.429 . S
C1498 C1496 1.419 . S
C1498 C1499 1.363 . S
C1498 H1501 0.929 . S
C1499 C1498 1.363 . S
C1499 C1505 1.428 . S
H1500 C1496 0.930 . S
H1501 C1498 0.929 . S
S1502 N1503 1.613 . S
S1502 N1504 1.610 . S
N1503 S1502 1.613 . S
N1503 C1506 1.350 . S
N1504 S1502 1.610 . S
N1504 C1505 1.351 . S
C1505 C1499 1.428 . S
C1505 N1504 1.351 . S
C1505 C1506 1.434 . S
C1506 C1497 1.429 . S
C1506 N1503 1.350 . S
C1506 C1505 1.434 . S
C1507 C1508 1.369 . S
C1507 C1509 1.419 . S
C1507 H1511 0.930 . S
C1508 C1507 1.369 . S
C1508 C1517 1.429 . S
C1509 C1507 1.419 . S
C1509 C1510 1.363 1_565 S
C1509 H1512 0.929 . S
C1510 C1509 1.363 1_545 S
C1510 C1516 1.426 1_545 S
H1511 C1507 0.930 . S
H1512 C1509 0.929 . S
S1513 N1514 1.613 . S
S1513 N1515 1.610 1_565 S
N1514 S1513 1.613 . S
N1514 C1517 1.350 . S
N1515 S1513 1.610 1_545 S
N1515 C1516 1.347 1_545 S
C1516 C1510 1.426 1_565 S
C1516 N1515 1.347 1_565 S
C1516 C1517 1.440 . S
C1517 C1508 1.429 . S
C1517 N1514 1.350 . S
C1517 C1516 1.440 . S
C1518 C1519 1.369 . S
C1518 C1520 1.419 . S
C1518 H1522 0.930 . S
C1519 C1518 1.369 . S
C1519 C1528 1.429 . S
C1520 C1518 1.419 . S
C1520 C1521 1.363 . S
C1520 H1523 0.929 . S
C1521 C1520 1.363 . S
C1521 C1527 1.428 . S
H1522 C1518 0.930 . S
H1523 C1520 0.929 . S
S1524 N1525 1.613 . S
S1524 N1526 1.610 1_545 S
N1525 S1524 1.613 . S
N1525 C1528 1.350 1_545 S
N1526 S1524 1.610 1_565 S
N1526 C1527 1.351 . S
C1527 C1521 1.428 . S
C1527 N1526 1.351 . S
C1527 C1528 1.434 . S
C1528 C1519 1.429 . S
C1528 N1525 1.350 1_565 S
C1528 C1527 1.434 . S
C1529 C1530 1.369 . S
C1529 C1531 1.419 . S
C1529 H1533 0.930 1_554 S
C1530 C1529 1.369 . S
C1530 C1539 1.429 . S
C1531 C1529 1.419 . S
C1531 C1532 1.363 . S
C1531 H1534 0.929 . S
C1532 C1531 1.363 . S
C1532 C1538 1.428 . S
H1533 C1529 0.930 1_556 S
H1534 C1531 0.929 . S
S1535 N1536 1.613 . S
S1535 N1537 1.610 . S
N1536 S1535 1.613 . S
N1536 C1539 1.350 . S
N1537 S1535 1.610 . S
N1537 C1538 1.351 . S
C1538 C1532 1.428 . S
C1538 N1537 1.351 . S
C1538 C1539 1.434 . S
C1539 C1530 1.429 . S
C1539 N1536 1.350 . S
C1539 C1538 1.434 . S
C1540 C1541 1.369 . S
C1540 C1542 1.419 . S
C1540 H1544 0.930 . S
C1541 C1540 1.369 . S
C1541 C1550 1.429 . S
C1542 C1540 1.419 . S
C1542 C1543 1.363 . S
C1542 H1545 0.929 . S
C1543 C1542 1.363 . S
C1543 C1549 1.428 . S
H1544 C1540 0.930 . S
H1545 C1542 0.929 . S
S1546 N1547 1.613 . S
S1546 N1548 1.610 . S
N1547 S1546 1.613 . S
N1547 C1550 1.350 . S
N1548 S1546 1.610 . S
N1548 C1549 1.351 . S
C1549 C1543 1.428 . S
C1549 N1548 1.351 . S
C1549 C1550 1.434 . S
C1550 C1541 1.429 . S
C1550 N1547 1.350 . S
C1550 C1549 1.434 . S
C1551 C1552 1.369 . S
C1551 C1553 1.419 . S
C1551 H1555 0.930 . S
C1552 C1551 1.369 . S
C1552 C1561 1.429 . S
C1553 C1551 1.419 . S
C1553 C1554 1.363 . S
C1553 H1556 0.929 . S
C1554 C1553 1.363 . S
C1554 C1560 1.428 . S
H1555 C1551 0.930 . S
H1556 C1553 0.929 . S
S1557 N1558 1.613 1_556 S
S1557 N1559 1.610 . S
N1558 S1557 1.613 1_554 S
N1558 C1561 1.350 . S
N1559 S1557 1.610 . S
N1559 C1560 1.351 1_556 S
C1560 C1554 1.428 . S
C1560 N1559 1.351 1_554 S
C1560 C1561 1.434 . S
C1561 C1552 1.429 . S
C1561 N1558 1.350 . S
C1561 C1560 1.434 . S
C1562 C1563 1.369 . S
C1562 C1564 1.419 . S
C1562 H1566 0.930 . S
C1563 C1562 1.369 . S
C1563 C1572 1.429 . S
C1564 C1562 1.419 . S
C1564 C1565 1.363 . S
C1564 H1567 0.929 . S
C1565 C1564 1.363 . S
C1565 C1571 1.428 . S
H1566 C1562 0.930 . S
H1567 C1564 0.929 . S
S1568 N1569 1.613 . S
S1568 N1570 1.610 . S
N1569 S1568 1.613 . S
N1569 C1572 1.350 . S
N1570 S1568 1.610 . S
N1570 C1571 1.351 . S
C1571 C1565 1.428 . S
C1571 N1570 1.351 . S
C1571 C1572 1.434 . S
C1572 C1563 1.429 . S
C1572 N1569 1.350 . S
C1572 C1571 1.434 . S
C1573 C1574 1.369 . S
C1573 C1575 1.419 . S
C1573 H1577 0.930 . S
C1574 C1573 1.369 . S
C1574 C1583 1.429 . S
C1575 C1573 1.419 . S
C1575 C1576 1.363 . S
C1575 H1578 0.929 . S
C1576 C1575 1.363 . S
C1576 C1582 1.428 . S
H1577 C1573 0.930 . S
H1578 C1575 0.929 . S
S1579 N1580 1.613 . S
S1579 N1581 1.610 . S
N1580 S1579 1.613 . S
N1580 C1583 1.350 . S
N1581 S1579 1.610 . S
N1581 C1582 1.351 . S
C1582 C1576 1.428 . S
C1582 N1581 1.351 . S
C1582 C1583 1.434 . S
C1583 C1574 1.429 . S
C1583 N1580 1.350 . S
C1583 C1582 1.434 . S
C1584 C1585 1.369 . S
C1584 C1586 1.419 . S
C1584 H1588 0.930 . S
C1585 C1584 1.369 . S
C1585 C1594 1.429 . S
C1586 C1584 1.419 . S
C1586 C1587 1.363 . S
C1586 H1589 0.929 . S
C1587 C1586 1.363 . S
C1587 C1593 1.428 . S
H1588 C1584 0.930 . S
H1589 C1586 0.929 . S
S1590 N1591 1.613 . S
S1590 N1592 1.610 . S
N1591 S1590 1.613 . S
N1591 C1594 1.350 . S
N1592 S1590 1.610 . S
N1592 C1593 1.351 . S
C1593 C1587 1.428 . S
C1593 N1592 1.351 . S
C1593 C1594 1.434 . S
C1594 C1585 1.429 . S
C1594 N1591 1.350 . S
C1594 C1593 1.434 . S
C1595 C1596 1.369 . S
C1595 C1597 1.419 . S
C1595 H1599 0.930 . S
C1596 C1595 1.369 . S
C1596 C1605 1.429 . S
C1597 C1595 1.419 . S
C1597 C1598 1.363 . S
C1597 H1600 0.929 . S
C1598 C1597 1.363 . S
C1598 C1604 1.428 . S
H1599 C1595 0.930 . S
H1600 C1597 0.929 . S
S1601 N1602 1.613 . S
S1601 N1603 1.610 . S
N1602 S1601 1.613 . S
N1602 C1605 1.350 . S
N1603 S1601 1.610 . S
N1603 C1604 1.351 . S
C1604 C1598 1.428 . S
C1604 N1603 1.351 . S
C1604 C1605 1.434 . S
C1605 C1596 1.429 . S
C1605 N1602 1.350 . S
C1605 C1604 1.434 . S
C1606 C1607 1.369 . S
C1606 C1608 1.419 . S
C1606 H1610 0.930 . S
C1607 C1606 1.369 . S
C1607 C1616 1.424 1_556 S
C1608 C1606 1.419 . S
C1608 C1609 1.363 . S
C1608 H1611 0.929 . S
C1609 C1608 1.363 . S
C1609 C1615 1.429 1_556 S
H1610 C1606 0.930 . S
H1611 C1608 0.929 . S
S1612 N1613 1.613 . S
S1612 N1614 1.610 . S
N1613 S1612 1.613 . S
N1613 C1616 1.353 1_655 S
N1614 S1612 1.610 . S
N1614 C1615 1.350 1_655 S
C1615 C1609 1.429 1_554 S
C1615 N1614 1.350 1_455 S
C1615 C1616 1.436 . S
C1616 C1607 1.424 1_554 S
C1616 N1613 1.353 1_455 S
C1616 C1615 1.436 . S
C1617 C1618 1.369 . S
C1617 C1619 1.419 . S
C1617 H1621 0.930 . S
C1618 C1617 1.369 . S
C1618 C1627 1.429 . S
C1619 C1617 1.419 . S
C1619 C1620 1.363 . S
C1619 H1622 0.929 . S
C1620 C1619 1.363 . S
C1620 C1626 1.428 . S
H1621 C1617 0.930 . S
H1622 C1619 0.929 . S
S1623 N1624 1.613 . S
S1623 N1625 1.610 . S
N1624 S1623 1.613 . S
N1624 C1627 1.350 . S
N1625 S1623 1.610 . S
N1625 C1626 1.351 . S
C1626 C1620 1.428 . S
C1626 N1625 1.351 . S
C1626 C1627 1.434 . S
C1627 C1618 1.429 . S
C1627 N1624 1.350 . S
C1627 C1626 1.434 . S
C1628 C1629 1.369 . S
C1628 C1630 1.419 . S
C1628 H1632 0.930 . S
C1629 C1628 1.369 . S
C1629 C1638 1.429 . S
C1630 C1628 1.419 . S
C1630 C1631 1.363 . S
C1630 H1633 0.929 . S
C1631 C1630 1.363 . S
C1631 C1637 1.428 . S
H1632 C1628 0.930 . S
H1633 C1630 0.929 . S
S1634 N1635 1.613 . S
S1634 N1636 1.610 . S
N1635 S1634 1.613 . S
N1635 C1638 1.350 . S
N1636 S1634 1.610 . S
N1636 C1637 1.351 . S
C1637 C1631 1.428 . S
C1637 N1636 1.351 . S
C1637 C1638 1.434 . S
C1638 C1629 1.429 . S
C1638 N1635 1.350 . S
C1638 C1637 1.434 . S
C1639 C1640 1.369 . S
C1639 C1641 1.419 . S
C1639 H1643 0.930 . S
C1640 C1639 1.369 . S
C1640 C1649 1.429 . S
C1641 C1639 1.419 . S
C1641 C1642 1.363 . S
C1641 H1644 0.929 . S
C1642 C1641 1.363 . S
C1642 C1648 1.428 . S
H1643 C1639 0.930 . S
H1644 C1641 0.929 . S
S1645 N1646 1.613 . S
S1645 N1647 1.610 . S
N1646 S1645 1.613 . S
N1646 C1649 1.350 . S
N1647 S1645 1.610 . S
N1647 C1648 1.351 . S
C1648 C1642 1.428 . S
C1648 N1647 1.351 . S
C1648 C1649 1.434 . S
C1649 C1640 1.429 . S
C1649 N1646 1.350 . S
C1649 C1648 1.434 . S
C1650 C1651 1.369 1_655 S
C1650 C1652 1.419 . S
C1650 H1654 0.930 . S
C1651 C1650 1.369 1_455 S
C1651 C1660 1.429 . S
C1652 C1650 1.419 . S
C1652 C1653 1.363 1_655 S
C1652 H1655 0.929 . S
C1653 C1652 1.363 1_455 S
C1653 C1659 1.428 . S
H1654 C1650 0.930 . S
H1655 C1652 0.929 . S
S1656 N1657 1.613 . S
S1656 N1658 1.610 . S
N1657 S1656 1.613 . S
N1657 C1660 1.350 . S
N1658 S1656 1.610 . S
N1658 C1659 1.351 . S
C1659 C1653 1.428 . S
C1659 N1658 1.351 . S
C1659 C1660 1.434 . S
C1660 C1651 1.429 . S
C1660 N1657 1.350 . S
C1660 C1659 1.434 . S
C1661 C1662 1.369 . S
C1661 C1663 1.419 . S
C1661 H1665 0.930 . S
C1662 C1661 1.369 . S
C1662 C1671 1.429 . S
C1663 C1661 1.419 . S
C1663 C1664 1.363 . S
C1663 H1666 0.929 . S
C1664 C1663 1.363 . S
C1664 C1670 1.428 . S
H1665 C1661 0.930 . S
H1666 C1663 0.929 . S
S1667 N1668 1.613 . S
S1667 N1669 1.610 . S
N1668 S1667 1.613 . S
N1668 C1671 1.350 . S
N1669 S1667 1.610 . S
N1669 C1670 1.351 . S
C1670 C1664 1.428 . S
C1670 N1669 1.351 . S
C1670 C1671 1.434 . S
C1671 C1662 1.429 . S
C1671 N1668 1.350 . S
C1671 C1670 1.434 . S
C1672 C1673 1.369 . S
C1672 C1674 1.419 . S
C1672 H1676 0.930 . S
C1673 C1672 1.369 . S
C1673 C1682 1.429 . S
C1674 C1672 1.419 . S
C1674 C1675 1.363 . S
C1674 H1677 0.929 . S
C1675 C1674 1.363 . S
C1675 C1681 1.428 . S
H1676 C1672 0.930 . S
H1677 C1674 0.929 . S
S1678 N1679 1.613 . S
S1678 N1680 1.610 . S
N1679 S1678 1.613 . S
N1679 C1682 1.350 . S
N1680 S1678 1.610 . S
N1680 C1681 1.351 . S
C1681 C1675 1.428 . S
C1681 N1680 1.351 . S
C1681 C1682 1.434 . S
C1682 C1673 1.429 . S
C1682 N1679 1.350 . S
C1682 C1681 1.434 . S
C1683 C1684 1.369 . S
C1683 C1685 1.419 . S
C1683 H1687 0.930 . S
C1684 C1683 1.369 . S
C1684 C1693 1.429 . S
C1685 C1683 1.419 . S
C1685 C1686 1.363 . S
C1685 H1688 0.929 . S
C1686 C1685 1.363 . S
C1686 C1692 1.428 . S
H1687 C1683 0.930 . S
H1688 C1685 0.929 . S
S1689 N1690 1.613 . S
S1689 N1691 1.610 . S
N1690 S1689 1.613 . S
N1690 C1693 1.350 . S
N1691 S1689 1.610 . S
N1691 C1692 1.351 . S
C1692 C1686 1.428 . S
C1692 N1691 1.351 . S
C1692 C1693 1.434 . S
C1693 C1684 1.429 . S
C1693 N1690 1.350 . S
C1693 C1692 1.434 . S
C1694 C1695 1.369 . S
C1694 C1696 1.419 . S
C1694 H1698 0.930 . S
C1695 C1694 1.369 . S
C1695 C1704 1.429 . S
C1696 C1694 1.419 . S
C1696 C1697 1.363 . S
C1696 H1699 0.929 . S
C1697 C1696 1.363 . S
C1697 C1703 1.428 . S
H1698 C1694 0.930 . S
H1699 C1696 0.929 . S
S1700 N1701 1.613 . S
S1700 N1702 1.610 . S
N1701 S1700 1.613 . S
N1701 C1704 1.350 . S
N1702 S1700 1.610 . S
N1702 C1703 1.351 . S
C1703 C1697 1.428 . S
C1703 N1702 1.351 . S
C1703 C1704 1.434 . S
C1704 C1695 1.429 . S
C1704 N1701 1.350 . S
C1704 C1703 1.434 . S
C1705 C1706 1.369 . S
C1705 C1707 1.419 . S
C1705 H1709 0.930 . S
C1706 C1705 1.369 . S
C1706 C1715 1.429 . S
C1707 C1705 1.419 . S
C1707 C1708 1.363 . S
C1707 H1710 0.929 . S
C1708 C1707 1.363 . S
C1708 C1714 1.428 . S
H1709 C1705 0.930 . S
H1710 C1707 0.929 . S
S1711 N1712 1.613 . S
S1711 N1713 1.610 . S
N1712 S1711 1.613 . S
N1712 C1715 1.350 . S
N1713 S1711 1.610 . S
N1713 C1714 1.351 . S
C1714 C1708 1.428 . S
C1714 N1713 1.351 . S
C1714 C1715 1.434 . S
C1715 C1706 1.429 . S
C1715 N1712 1.350 . S
C1715 C1714 1.434 . S
C1716 C1717 1.369 . S
C1716 C1718 1.419 . S
C1716 H1720 0.930 . S
C1717 C1716 1.369 . S
C1717 C1726 1.429 . S
C1718 C1716 1.419 . S
C1718 C1719 1.363 . S
C1718 H1721 0.929 . S
C1719 C1718 1.363 . S
C1719 C1725 1.428 . S
H1720 C1716 0.930 . S
H1721 C1718 0.929 . S
S1722 N1723 1.613 . S
S1722 N1724 1.610 . S
N1723 S1722 1.613 . S
N1723 C1726 1.350 . S
N1724 S1722 1.610 . S
N1724 C1725 1.351 . S
C1725 C1719 1.428 . S
C1725 N1724 1.351 . S
C1725 C1726 1.434 . S
C1726 C1717 1.429 . S
C1726 N1723 1.350 . S
C1726 C1725 1.434 . S
C1727 C1728 1.369 . S
C1727 C1729 1.419 . S
C1727 H1731 0.930 . S
C1728 C1727 1.369 . S
C1728 C1737 1.429 . S
C1729 C1727 1.419 . S
C1729 C1730 1.363 . S
C1729 H1732 0.929 . S
C1730 C1729 1.363 . S
C1730 C1736 1.428 . S
H1731 C1727 0.930 . S
H1732 C1729 0.929 . S
S1733 N1734 1.613 . S
S1733 N1735 1.610 . S
N1734 S1733 1.613 . S
N1734 C1737 1.350 . S
N1735 S1733 1.610 . S
N1735 C1736 1.351 . S
C1736 C1730 1.428 . S
C1736 N1735 1.351 . S
C1736 C1737 1.434 . S
C1737 C1728 1.429 . S
C1737 N1734 1.350 . S
C1737 C1736 1.434 . S
C1738 C1739 1.369 . S
C1738 C1740 1.419 . S
C1738 H1742 0.930 . S
C1739 C1738 1.369 . S
C1739 C1748 1.429 . S
C1740 C1738 1.419 . S
C1740 C1741 1.363 . S
C1740 H1743 0.929 . S
C1741 C1740 1.363 . S
C1741 C1747 1.428 . S
H1742 C1738 0.930 . S
H1743 C1740 0.929 . S
S1744 N1745 1.613 . S
S1744 N1746 1.610 . S
N1745 S1744 1.613 . S
N1745 C1748 1.350 . S
N1746 S1744 1.610 . S
N1746 C1747 1.351 . S
C1747 C1741 1.428 . S
C1747 N1746 1.351 . S
C1747 C1748 1.434 . S
C1748 C1739 1.429 . S
C1748 N1745 1.350 . S
C1748 C1747 1.434 . S
C1749 C1750 1.369 . S
C1749 C1751 1.419 . S
C1749 H1753 0.930 . S
C1750 C1749 1.369 . S
C1750 C1759 1.429 . S
C1751 C1749 1.419 . S
C1751 C1752 1.363 . S
C1751 H1754 0.929 . S
C1752 C1751 1.363 . S
C1752 C1758 1.428 . S
H1753 C1749 0.930 . S
H1754 C1751 0.929 . S
S1755 N1756 1.613 . S
S1755 N1757 1.610 . S
N1756 S1755 1.613 . S
N1756 C1759 1.350 . S
N1757 S1755 1.610 . S
N1757 C1758 1.351 . S
C1758 C1752 1.428 . S
C1758 N1757 1.351 . S
C1758 C1759 1.434 . S
C1759 C1750 1.429 . S
C1759 N1756 1.350 . S
C1759 C1758 1.434 . S
C1760 C1761 1.369 . S
C1760 C1762 1.419 . S
C1760 H1764 0.930 . S
C1761 C1760 1.369 . S
C1761 C1770 1.429 . S
C1762 C1760 1.419 . S
C1762 C1763 1.363 . S
C1762 H1765 0.929 . S
C1763 C1762 1.363 . S
C1763 C1769 1.428 . S
H1764 C1760 0.930 . S
H1765 C1762 0.929 . S
S1766 N1767 1.613 . S
S1766 N1768 1.610 . S
N1767 S1766 1.613 . S
N1767 C1770 1.350 . S
N1768 S1766 1.610 . S
N1768 C1769 1.351 . S
C1769 C1763 1.428 . S
C1769 N1768 1.351 . S
C1769 C1770 1.434 . S
C1770 C1761 1.429 . S
C1770 N1767 1.350 . S
C1770 C1769 1.434 . S
C1771 C1772 1.369 . S
C1771 C1773 1.419 . S
C1771 H1775 0.930 . S
C1772 C1771 1.369 . S
C1772 C1781 1.429 . S
C1773 C1771 1.419 . S
C1773 C1774 1.363 . S
C1773 H1776 0.929 . S
C1774 C1773 1.363 . S
C1774 C1780 1.428 . S
H1775 C1771 0.930 . S
H1776 C1773 0.929 . S
S1777 N1778 1.613 . S
S1777 N1779 1.610 . S
N1778 S1777 1.613 . S
N1778 C1781 1.350 . S
N1779 S1777 1.610 . S
N1779 C1780 1.351 . S
C1780 C1774 1.428 . S
C1780 N1779 1.351 . S
C1780 C1781 1.434 . S
C1781 C1772 1.429 . S
C1781 N1778 1.350 . S
C1781 C1780 1.434 . S
C1782 C1783 1.369 . S
C1782 C1784 1.419 . S
C1782 H1786 0.930 . S
C1783 C1782 1.369 . S
C1783 C1792 1.429 . S
C1784 C1782 1.419 . S
C1784 C1785 1.363 . S
C1784 H1787 0.929 . S
C1785 C1784 1.363 . S
C1785 C1791 1.428 . S
H1786 C1782 0.930 . S
H1787 C1784 0.929 . S
S1788 N1789 1.613 . S
S1788 N1790 1.610 . S
N1789 S1788 1.613 . S
N1789 C1792 1.350 . S
N1790 S1788 1.610 . S
N1790 C1791 1.351 . S
C1791 C1785 1.428 . S
C1791 N1790 1.351 . S
C1791 C1792 1.434 . S
C1792 C1783 1.429 . S
C1792 N1789 1.350 . S
C1792 C1791 1.434 . S
C1793 C1794 1.369 1_545 S
C1793 C1795 1.419 . S
C1793 H1797 0.930 . S
C1794 C1793 1.369 1_565 S
C1794 C1803 1.429 . S
C1795 C1793 1.419 . S
C1795 C1796 1.363 . S
C1795 H1798 0.929 . S
C1796 C1795 1.363 . S
C1796 C1802 1.428 1_545 S
H1797 C1793 0.930 . S
H1798 C1795 0.929 . S
S1799 N1800 1.613 . S
S1799 N1801 1.610 . S
N1800 S1799 1.613 . S
N1800 C1803 1.350 . S
N1801 S1799 1.610 . S
N1801 C1802 1.351 . S
C1802 C1796 1.428 1_565 S
C1802 N1801 1.351 . S
C1802 C1803 1.434 . S
C1803 C1794 1.429 . S
C1803 N1800 1.350 . S
C1803 C1802 1.434 . S
C1804 C1805 1.369 . S
C1804 C1806 1.419 . S
C1804 H1808 0.930 . S
C1805 C1804 1.369 . S
C1805 C1814 1.429 . S
C1806 C1804 1.419 . S
C1806 C1807 1.363 . S
C1806 H1809 0.929 . S
C1807 C1806 1.363 . S
C1807 C1813 1.428 . S
H1808 C1804 0.930 . S
H1809 C1806 0.929 . S
S1810 N1811 1.613 . S
S1810 N1812 1.610 . S
N1811 S1810 1.613 . S
N1811 C1814 1.350 . S
N1812 S1810 1.610 . S
N1812 C1813 1.351 . S
C1813 C1807 1.428 . S
C1813 N1812 1.351 . S
C1813 C1814 1.434 . S
C1814 C1805 1.429 . S
C1814 N1811 1.350 . S
C1814 C1813 1.434 . S
C1815 C1816 1.369 . S
C1815 C1817 1.419 . S
C1815 H1819 0.930 1_554 S
C1816 C1815 1.369 . S
C1816 C1825 1.429 . S
C1817 C1815 1.419 . S
C1817 C1818 1.363 . S
C1817 H1820 0.929 . S
C1818 C1817 1.363 . S
C1818 C1824 1.428 . S
H1819 C1815 0.930 1_556 S
H1820 C1817 0.929 . S
S1821 N1822 1.613 . S
S1821 N1823 1.610 . S
N1822 S1821 1.613 . S
N1822 C1825 1.350 . S
N1823 S1821 1.610 . S
N1823 C1824 1.351 . S
C1824 C1818 1.428 . S
C1824 N1823 1.351 . S
C1824 C1825 1.434 . S
C1825 C1816 1.429 . S
C1825 N1822 1.350 . S
C1825 C1824 1.434 . S
C1826 C1827 1.369 . S
C1826 C1828 1.419 . S
C1826 H1830 0.930 . S
C1827 C1826 1.369 . S
C1827 C1836 1.429 . S
C1828 C1826 1.419 . S
C1828 C1829 1.363 . S
C1828 H1831 0.929 . S
C1829 C1828 1.363 . S
C1829 C1835 1.428 . S
H1830 C1826 0.930 . S
H1831 C1828 0.929 . S
S1832 N1833 1.613 . S
S1832 N1834 1.610 . S
N1833 S1832 1.613 . S
N1833 C1836 1.350 . S
N1834 S1832 1.610 . S
N1834 C1835 1.351 . S
C1835 C1829 1.428 . S
C1835 N1834 1.351 . S
C1835 C1836 1.434 . S
C1836 C1827 1.429 . S
C1836 N1833 1.350 . S
C1836 C1835 1.434 . S
C1837 C1838 1.369 . S
C1837 C1839 1.419 . S
C1837 H1841 0.930 . S
C1838 C1837 1.369 . S
C1838 C1847 1.429 . S
C1839 C1837 1.419 . S
C1839 C1840 1.363 . S
C1839 H1842 0.929 . S
C1840 C1839 1.363 . S
C1840 C1846 1.428 . S
H1841 C1837 0.930 . S
H1842 C1839 0.929 . S
S1843 N1844 1.613 . S
S1843 N1845 1.610 . S
N1844 S1843 1.613 . S
N1844 C1847 1.350 . S
N1845 S1843 1.610 . S
N1845 C1846 1.351 . S
C1846 C1840 1.428 . S
C1846 N1845 1.351 . S
C1846 C1847 1.434 . S
C1847 C1838 1.429 . S
C1847 N1844 1.350 . S
C1847 C1846 1.434 . S
C795 C313 1.867 . S
C793 C10 1.895 . S
C804 C13 0.970 . S
C806 C358 0.973 . S
C815 C34 1.707 . S
C817 C382 1.739 . S
C828 N408 1.172 . S
C826 C44 1.144 . S
C837 C21 1.148 . S
C839 N438 1.245 . S
C850 C472 1.555 . S
C848 C26 1.518 . S
C861 C508 1.184 1_556 S
C859 C49 1.195 . S
C870 C5 1.795 . S
C872 C532 1.768 . S
C881 C62 1.041 . S
C883 N326 1.043 . S
C892 C73 1.120 . S
C894 N348 1.229 . S
C905 C388 1.020 . S
C903 C88 1.022 . S
C916 C412 1.733 . S
C914 C99 1.699 . S
C925 C60 1.155 . S
C927 C442 1.193 . S
C938 C478 1.083 . S
C936 C75 1.075 . S
C949 N498 1.196 . S
C947 C86 1.101 . S
C960 C538 1.741 . S
C958 C101 1.768 . S
C971 C339 1.715 . S
C969 C96 1.726 . S
C982 C568 0.995 . S
C980 C104 0.988 . S
C991 C122 1.186 . S
C993 N588 1.212 . S
C1004 C622 1.562 . S
C1002 C130 1.535 . S
C1013 C57 0.958 . S
C1015 N528 0.979 . S
C1026 N378 1.207 1_565 S
C1024 C70 1.188 . S
C1035 C117 1.006 . S
C1037 C658 1.005 . S
C1048 C682 1.033 . S
C1046 C143 0.997 . S
C1057 C164 1.935 . S
C1059 C322 1.928 1_556 S
C1070 C699 1.048 . S
C1068 C169 1.025 . S
C1079 C192 1.830 . S
C1081 C373 1.792 . S
C1090 C200 1.137 . S
C1092 N656 1.210 . S
C1103 N446 1.284 . S
C1101 C179 1.257 . S
C1114 C583 1.601 . S
C1112 C182 1.604 . S
C1125 C519 1.279 . S
C1123 C203 1.240 . S
C1136 C703 1.824 . S
C1134 C161 1.820 . S
C1147 N318 1.073 . S
C1145 C216 1.053 . S
C1156 C231 1.231 . S
C1158 N686 1.262 . S
C1169 C399 1.100 . S
C1167 C242 1.078 . S
C1178 C257 1.827 . S
C1180 C643 1.790 . S
C1189 C218 1.290 . S
C1191 C433 1.248 1_655 S
C1200 C229 1.132 . S
C1202 C609 1.168 . S
C1213 N506 1.220 . S
C1211 C244 1.191 . S
C1222 C255 1.823 . S
C1224 C729 1.801 . S
C1233 C252 1.748 . S
C1235 C328 1.767 . S
C1244 C260 1.040 1_556 S
C1246 C579 1.064 . S
C1255 C278 1.181 . S
C1257 N476 1.241 . S
C1266 C286 1.627 . S
C1268 C613 1.617 . S
C1279 N716 1.005 . S
C1277 C213 0.976 1_565 S
C1290 N386 1.242 . S
C1288 C226 1.161 . S
C1301 C429 1.074 . S
C1299 C273 1.051 . S
C1312 C343 1.072 . S
C1310 C299 1.140 . S
C1321 C36 1.896 . S
C1323 C733 1.866 . S
C1334 C688 0.977 . S
C1332 C39 0.968 . S
C1345 C772 1.743 . S
C1343 C8 1.700 . S
C1354 C18 1.143 1_655 S
C1356 N648 1.171 . S
C1365 C47 1.133 . S
C1367 N558 1.249 1_556 S
C1378 C592 1.555 . S
C1376 C0 1.519 . S
C1389 C628 1.192 . S
C1387 C23 1.192 . S
C1400 C712 1.773 . S
C1398 C31 1.794 . S
C1411 N746 1.042 . S
C1409 C153 1.039 . S
C1420 C112 1.134 1_556 S
C1422 N678 1.226 . S
C1431 C127 1.022 . S
C1433 C778 1.021 1_655 S
C1444 C652 1.733 . S
C1442 C138 1.701 . S
C1455 C562 1.189 . S
C1453 C151 1.160 . S
C1464 C114 1.080 . S
C1466 C598 1.080 . S
C1477 N618 1.198 . S
C1475 C125 1.097 . S
C1486 C140 1.767 . S
C1488 C718 1.745 . S
C1499 C759 1.715 . S
C1497 C135 1.724 . S
C1510 C448 0.993 . S
C1508 C65 0.996 . S
C1521 N468 1.213 . S
C1519 C83 1.184 1_565 S
C1530 C91 1.527 . S
C1532 C502 1.567 . S
C1543 N708 0.977 . S
C1541 C148 0.967 . S
C1552 C109 1.180 . S
C1554 N768 1.212 . S
C1565 C418 1.007 . S
C1563 C78 1.006 . S
C1576 C352 1.025 . S
C1574 C52 1.007 . S
C1585 C190 1.937 . S
C1587 C742 1.927 . S
C1598 C369 1.049 . S
C1596 C195 1.027 . S
C1609 C763 1.792 1_556 S
C1607 C166 1.830 . S
C1618 C174 1.144 . S
C1620 N416 1.208 . S
C1629 C205 1.260 . S
C1631 N566 1.283 . S
C1640 C156 1.608 . S
C1642 C463 1.604 . S
C1651 C177 1.240 . S
C1653 C639 1.279 . S
C1662 C187 1.823 . S
C1664 C523 1.822 . S
C1675 N738 1.072 . S
C1673 C307 1.057 . S
C1684 C270 1.229 . S
C1686 N356 1.259 . S
C1697 C789 1.101 . S
C1695 C281 1.079 . S
C1706 C296 1.825 . S
C1708 C403 1.792 . S
C1717 C309 1.289 . S
C1719 C553 1.249 . S
C1730 C489 1.165 . S
C1728 C268 1.134 . S
C1739 C283 1.195 . S
C1741 N626 1.217 . S
C1752 C549 1.801 . S
C1750 C294 1.820 . S
C1763 C748 1.767 . S
C1761 C291 1.747 . S
C1774 C459 1.065 . S
C1772 C221 1.039 . S
C1783 C239 1.179 . S
C1785 N596 1.241 . S
C1796 C493 1.619 . S
C1794 C247 1.623 . S
C1807 N536 1.004 . S
C1805 C304 0.986 . S
C1816 C265 1.169 . S
C1818 N776 1.239 . S
C1829 C669 1.076 . S
C1827 C234 1.053 . S
C1840 C673 1.083 . S
C1838 C208 1.139 . S
