# Generated by pormake.
# Topology sit, (3,6)-cn, num edge types: 1
# Building blocks:
#     Node 0, Type 0, BuildingBlock: OLANEW_clean_sbu_2, # of connection points: 3
#     Node 1, Type 0, BuildingBlock: OLANEW_clean_sbu_2, # of connection points: 3
#     Node 2, Type 0, BuildingBlock: OLANEW_clean_sbu_2, # of connection points: 3
#     Node 3, Type 0, BuildingBlock: OLANEW_clean_sbu_2, # of connection points: 3
#     Node 4, Type 1, BuildingBlock: MIDCAF_clean_sbu_0, # of connection points: 6
#     Node 5, Type 1, BuildingBlock: MIDCAF_clean_sbu_0, # of connection points: 6
#     Edge 6, Type (0, 1), BuildingBlock: EZIPEK_clean_linker_0, # of connection points: 2
#     Edge 7, Type (0, 1), BuildingBlock: EZIPEK_clean_linker_0, # of connection points: 2
#     Edge 8, Type (0, 1), BuildingBlock: EZIPEK_clean_linker_0, # of connection points: 2
#     Edge 9, Type (0, 1), BuildingBlock: EZIPEK_clean_linker_0, # of connection points: 2
#     Edge 10, Type (0, 1), BuildingBlock: EZIPEK_clean_linker_0, # of connection points: 2
#     Edge 11, Type (0, 1), BuildingBlock: EZIPEK_clean_linker_0, # of connection points: 2
#     Edge 12, Type (0, 1), BuildingBlock: EZIPEK_clean_linker_0, # of connection points: 2
#     Edge 13, Type (0, 1), BuildingBlock: EZIPEK_clean_linker_0, # of connection points: 2
#     Edge 14, Type (0, 1), BuildingBlock: EZIPEK_clean_linker_0, # of connection points: 2
#     Edge 15, Type (0, 1), BuildingBlock: EZIPEK_clean_linker_0, # of connection points: 2
#     Edge 16, Type (0, 1), BuildingBlock: EZIPEK_clean_linker_0, # of connection points: 2
#     Edge 17, Type (0, 1), BuildingBlock: EZIPEK_clean_linker_0, # of connection points: 2
# Relax obj value: 0.080
# Max RMSD: 0.185
# Mean RMSD: 0.106
data_MOF--net-sit--node1-OLANEW_clean_sbu_2--node2-MIDCAF_clean_sbu_0--edge1-EZIPEK_clean_linker_0
_symmetry_space_group_name_H-M    P1
_symmetry_Int_Tables_number       1
_symmetry_cell_setting            triclinic
loop_
_symmetry_equiv_pos_as_xyz
'x, y, z'
_cell_length_a     16.558394
_cell_length_b     26.048415
_cell_length_c     29.462335
_cell_angle_alpha  89.824774
_cell_angle_beta   82.466419
_cell_angle_gamma 84.239953
loop_
_atom_site_label
_atom_site_type_symbol
_atom_site_fract_x
_atom_site_fract_y
_atom_site_fract_z
_atom_type_partial_charge
O0 O 0.29165 0.24551 -0.00151 0.0
Cd1 Cd 0.23247 0.16245 0.00546 0.0
O2 O 0.17188 0.28829 0.02061 0.0
Cd3 Cd 0.09387 0.36073 0.02363 0.0
O4 O -0.00738 0.40864 0.0008 0.0
C5 C 0.98854 0.45644 0.9917 0.0
O6 O 0.04831 0.48374 -0.00122 0.0
C7 C 0.24695 0.28813 0.00495 0.0
C8 C 0.17908 0.12995 0.09339 0.0
O9 O 0.25166 0.11546 0.07398 0.0
O10 O 0.1323 0.16034 0.0716 0.0
O11 O 0.20722 0.74836 0.00421 0.0
Cd12 Cd 0.14126 0.83643 0.01849 0.0
O13 O 0.10085 0.7156 0.04151 0.0
Cd14 Cd 0.02955 0.65014 0.05293 0.0
O15 O 0.93364 0.61643 0.02354 0.0
C16 C 0.87417 0.64901 0.01695 0.0
O17 O 0.87353 0.69706 0.03049 0.0
C18 C 0.16957 0.70939 0.01648 0.0
C19 C 0.14553 0.87897 0.10444 0.0
O20 O 0.09092 0.84935 0.09753 0.0
O21 O 0.19949 0.88795 0.0708 0.0
O22 O 0.79242 0.74905 0.49513 0.0
Cd23 Cd 0.72251 0.66958 0.49832 0.0
O24 O 0.67813 0.79737 0.51841 0.0
Cd25 Cd 0.60739 0.8727 0.52497 0.0
O26 O 0.50602 0.92712 0.51032 0.0
C27 C 0.50899 0.97445 0.50049 0.0
O28 O 0.57719 0.99602 0.50119 0.0
C29 C 0.75383 0.79345 0.50326 0.0
C30 C 0.67412 0.6294 0.58417 0.0
O31 O 0.74501 0.6153 0.56233 0.0
O32 O 0.62662 0.66295 0.56588 0.0
O33 O 0.55406 0.16234 0.55607 0.0
Cd34 Cd 0.44895 0.23347 0.58246 0.0
O35 O 0.61038 0.2084 0.49975 0.0
Cd36 Cd 0.5118 0.26993 0.51059 0.0
O37 O 0.38909 0.25694 0.49919 0.0
C38 C 0.3904 0.22969 0.46345 0.0
O39 O 0.46002 0.21819 0.43696 0.0
C40 C 0.60922 0.16673 0.52233 0.0
C41 C 0.49718 0.31256 0.63341 0.0
O42 O 0.46687 0.27346 0.65289 0.0
O43 O 0.5062 0.31451 0.58967 0.0
Zn44 Zn 0.98399 0.12418 0.36301 0.0
Zn45 Zn 0.13336 0.9314 0.38322 0.0
Zn46 Zn 0.05761 0.02871 0.37659 0.0
C47 C 0.12544 0.94991 0.29092 0.0
C48 C 0.97123 0.93549 0.42887 0.0
O49 O 0.12797 0.08423 0.40489 0.0
O50 O 0.06004 0.16055 0.39547 0.0
C51 C 0.04639 0.08437 0.27762 0.0
O52 O 0.09043 0.99328 0.30801 0.0
O53 O 0.15295 0.91519 0.31645 0.0
O54 O 0.03628 0.9056 0.41973 0.0
O55 O 0.96803 0.98294 0.4161 0.0
O56 O 0.00517 0.12448 0.29512 0.0
O57 O 0.06668 0.04597 0.30287 0.0
O58 O 0.9327 0.03455 0.41466 0.0
O59 O 0.87703 0.11167 0.39677 0.0
C60 C 0.87203 0.06998 0.41845 0.0
O61 O 0.16502 0.03467 0.41227 0.0
O62 O 0.22261 0.95428 0.41484 0.0
C63 C 0.11989 0.1337 0.40907 0.0
C64 C 0.22174 1.00172 0.42377 0.0
Zn65 Zn 0.50003 0.61808 0.85448 0.0
Zn66 Zn 0.60266 0.41594 0.86571 0.0
Zn67 Zn 0.53942 0.51452 0.86263 0.0
C68 C 0.57015 0.43448 0.77655 0.0
C69 C 0.44407 0.43158 0.9195 0.0
O70 O 0.62247 0.55702 0.89517 0.0
O71 O 0.58206 0.64064 0.89241 0.0
C72 C 0.54834 0.57656 0.76667 0.0
O73 O 0.54995 0.48033 0.7933 0.0
O74 O 0.5986 0.39872 0.80071 0.0
O75 O 0.5068 0.39975 0.90979 0.0
O76 O 0.4424 0.47787 0.90407 0.0
O77 O 0.52754 0.6193 0.78707 0.0
O78 O 0.55116 0.5341 0.78919 0.0
O79 O 0.41902 0.53238 0.90323 0.0
O80 O 0.38719 0.61408 0.88571 0.0
C81 C 0.36941 0.57387 0.90734 0.0
O82 O 0.6529 0.50546 0.8949 0.0
O83 O 0.7076 0.42426 0.88933 0.0
C84 C 0.62964 0.60416 0.90527 0.0
C85 C 0.71037 0.47033 0.90158 0.0
C86 C 0.07487 0.08877 0.14754 0.0
C87 C 0.1495 0.11204 0.13991 0.0
C88 C 0.16546 0.10172 0.22104 0.0
C89 C 0.08498 0.08652 0.22964 0.0
N90 N 0.95993 0.06863 0.2023 0.0
N91 N 0.26042 0.14759 0.17082 0.0
C92 C 0.03878 0.08071 0.19319 0.0
C93 C 0.19412 0.11974 0.17691 0.0
N94 N 0.04003 0.07281 0.11115 0.0
N95 N 0.21418 0.09978 0.25521 0.0
H96 H 0.28196 0.1634 0.13957 0.0
H97 H 0.2894 0.15945 0.19773 0.0
H98 H 0.19486 0.08838 0.28849 0.0
H99 H 0.2762 0.1051 0.2496 0.0
H100 H 0.98964 0.05153 0.11455 0.0
H101 H 0.0663 0.0764 0.07728 0.0
H102 H 0.9199 0.06964 0.17776 0.0
H103 H 0.93308 0.06036 0.23521 0.0
C104 C 0.06896 0.92905 0.1717 0.0
C105 C 0.14374 0.9035 0.15 0.0
C106 C 0.21 0.92311 0.21661 0.0
C107 C 0.13226 0.93949 0.24114 0.0
N108 N 0.98496 0.95132 0.24362 0.0
N109 N 0.28438 0.87047 0.15438 0.0
C110 C 0.06088 0.94118 0.21908 0.0
C111 C 0.21446 0.89943 0.17287 0.0
N112 N 0.00628 0.94292 0.14683 0.0
N113 N 0.27959 0.93092 0.23484 0.0
H114 H 0.28981 0.85082 0.12321 0.0
H115 H 0.33451 0.86191 0.17206 0.0
H116 H 0.27831 0.94928 0.2664 0.0
H117 H 0.33803 0.9242 0.21661 0.0
H118 H 0.95312 0.96564 0.16016 0.0
H119 H 0.01117 0.9367 0.11157 0.0
H120 H 0.931 0.94736 0.22991 0.0
H121 H 0.97548 0.95929 0.27866 0.0
C122 C 0.5752 0.58215 0.63673 0.0
C123 C 0.64761 0.6079 0.62976 0.0
C124 C 0.66606 0.59466 0.71017 0.0
C125 C 0.58684 0.57775 0.71861 0.0
N126 N 0.46528 0.55396 0.69119 0.0
N127 N 0.75875 0.64299 0.66085 0.0
C128 C 0.54144 0.57046 0.68213 0.0
C129 C 0.69306 0.6146 0.66657 0.0
N130 N 0.54016 0.5678 0.59985 0.0
N131 N 0.71536 0.59163 0.74408 0.0
H132 H 0.77974 0.65953 0.62983 0.0
H133 H 0.78823 0.65408 0.68782 0.0
H134 H 0.69725 0.57693 0.77641 0.0
H135 H 0.77668 0.59868 0.73883 0.0
H136 H 0.4918 0.54489 0.60224 0.0
H137 H 0.56429 0.57496 0.56617 0.0
H138 H 0.42489 0.5532 0.66699 0.0
H139 H 0.44103 0.54312 0.7239 0.0
C140 C 0.45125 0.38584 0.68778 0.0
C141 C 0.51648 0.35567 0.66132 0.0
C142 C 0.61536 0.39933 0.69808 0.0
C143 C 0.55066 0.42035 0.73098 0.0
N144 N 0.40573 0.43562 0.75727 0.0
N145 N 0.66122 0.33498 0.63834 0.0
C146 C 0.46798 0.41543 0.72521 0.0
C147 C 0.59894 0.36362 0.66483 0.0
N148 N 0.37346 0.38615 0.67688 0.0
N149 N 0.69228 0.41348 0.69926 0.0
H150 H 0.65111 0.3092 0.61315 0.0
H151 H 0.7226 0.33479 0.64272 0.0
H152 H 0.70437 0.44014 0.72328 0.0
H153 H 0.74167 0.40288 0.67432 0.0
H154 H 0.32428 0.41109 0.692 0.0
H155 H 0.35973 0.36483 0.64944 0.0
H156 H 0.34534 0.42728 0.75827 0.0
H157 H 0.41473 0.45891 0.78447 0.0
C158 C 0.26033 0.36066 0.94887 0.0
C159 C 0.2809 0.33681 0.98989 0.0
C160 C 0.38904 0.39366 0.99312 0.0
C161 C 0.37442 0.41324 0.94967 0.0
N162 N 0.28188 0.42919 0.89365 0.0
N163 N 0.34689 0.33961 0.0577 0.0
C164 C 0.30448 0.40173 0.93032 0.0
C165 C 0.33935 0.35655 0.01435 0.0
N166 N 0.20275 0.34168 0.92604 0.0
N167 N 0.45299 0.40922 0.01277 0.0
H168 H 0.31053 0.31265 0.07384 0.0
H169 H 0.38419 0.35473 0.07898 0.0
H170 H 0.48663 0.43871 -0.00105 0.0
H171 H 0.47387 0.3927 0.0418 0.0
H172 H 0.19166 0.35316 0.89339 0.0
H173 H 0.16839 0.31213 0.93873 0.0
H174 H 0.22749 0.42601 0.88023 0.0
H175 H 0.31403 0.45893 0.87925 0.0
C176 C 0.82017 0.6517 0.94173 0.0
C177 C 0.81329 0.63541 0.988 0.0
C178 C 0.68349 0.60101 0.98051 0.0
C179 C 0.69264 0.61509 0.93367 0.0
N180 N 0.77527 0.64455 0.86714 0.0
N181 N 0.74633 0.58855 0.05022 0.0
C182 C 0.76251 0.63793 0.91352 0.0
C183 C 0.74739 0.60802 0.00701 0.0
N184 N 0.88108 0.68111 0.92497 0.0
N185 N 0.61251 0.58257 -0.00011 0.0
H186 H 0.79123 0.59416 0.07093 0.0
H187 H 0.7046 0.56374 0.06444 0.0
H188 H 0.56451 0.57668 0.98145 0.0
H189 H 0.59829 0.57638 0.0348 0.0
H190 H 0.8836 0.69929 0.89338 0.0
H191 H 0.92659 0.69036 0.94391 0.0
H192 H 0.82971 0.65521 0.84963 0.0
H193 H 0.73394 0.63514 0.84539 0.0
C194 C 0.83792 0.4739 -0.00144 0.0
C195 C 0.91492 0.47964 0.97296 0.0
C196 C 0.8485 0.49991 0.90465 0.0
C197 C 0.77597 0.48262 0.92778 0.0
N198 N 0.69575 0.45904 0.99747 0.0
N199 N -0.00499 0.50247 0.90275 0.0
C200 C 0.76847 0.47222 0.97527 0.0
C201 C 0.92046 0.49546 0.92659 0.0
N202 N 0.83232 0.46978 0.0451 0.0
N203 N 0.84835 0.5199 0.86173 0.0
H204 H 0.04847 0.50104 0.91802 0.0
H205 H 0.00476 0.50783 0.86752 0.0
H206 H 0.79629 0.52296 0.84501 0.0
H207 H 0.8969 0.53756 0.84443 0.0
H208 H 0.7775 0.46869 0.06665 0.0
H209 H 0.88282 0.47219 0.06254 0.0
H210 H 0.68812 0.44557 0.03088 0.0
H211 H 0.64268 0.46018 0.98175 0.0
C212 C 0.17326 0.63931 0.95786 0.0
C213 C 0.20241 0.65783 0.99741 0.0
C214 C 0.31609 0.58952 0.98858 0.0
C215 C 0.29871 0.58048 0.94375 0.0
N216 N 0.20174 0.58249 0.89053 0.0
N217 N 0.29265 0.64668 0.05512 0.0
C218 C 0.22277 0.60003 0.93057 0.0
C219 C 0.27019 0.63085 0.01483 0.0
N220 N 0.10108 0.66133 0.94545 0.0
N221 N 0.37815 0.55959 0.00493 0.0
H222 H 0.25764 0.67542 0.07576 0.0
H223 H 0.34639 0.63257 0.06762 0.0
H224 H 0.41069 0.52863 0.98611 0.0
H225 H 0.39239 0.56207 0.03815 0.0
H226 H 0.07583 0.65032 0.91695 0.0
H227 H 0.06447 0.69039 0.96483 0.0
H228 H 0.14852 0.5952 0.87693 0.0
H229 H 0.23849 0.55312 0.87141 0.0
C230 C 0.7836 0.86384 0.44717 0.0
C231 C 0.79506 0.84012 0.48966 0.0
C232 C 0.9058 0.89349 0.4985 0.0
C233 C 0.89936 0.91366 0.45416 0.0
N234 N 0.82115 0.92894 0.39119 0.0
N235 N 0.85096 0.84022 0.56092 0.0
C236 C 0.83383 0.90286 0.43038 0.0
C237 C 0.85098 0.85773 0.51712 0.0
N238 N 0.72831 0.84662 0.4216 0.0
N239 N 0.96635 0.90758 0.52187 0.0
H240 H 0.81098 0.81418 0.57513 0.0
H241 H 0.88589 0.8538 0.5843 0.0
H242 H 0.00337 0.93634 0.51022 0.0
H243 H 0.98126 0.89058 0.55206 0.0
H244 H 0.7234 0.85752 0.388 0.0
H245 H 0.68906 0.81911 0.43324 0.0
H246 H 0.7698 0.92703 0.3746 0.0
H247 H 0.85912 0.9559 0.37685 0.0
C248 C 0.27942 0.17108 0.48088 0.0
C249 C 0.31603 0.20869 0.4523 0.0
C250 C 0.22771 0.19424 0.39447 0.0
C251 C 0.18608 0.16008 0.42467 0.0
N252 N 0.16119 0.12356 0.49988 0.0
N253 N 0.31392 0.26425 0.38684 0.0
C254 C 0.20862 0.15067 0.46892 0.0
C255 C 0.28666 0.22282 0.4106 0.0
N256 N 0.31435 0.15306 0.51815 0.0
N257 N 0.21432 0.19741 0.34965 0.0
H258 H 0.35675 0.28645 0.39797 0.0
H259 H 0.28816 0.27962 0.35871 0.0
H260 H 0.17362 0.17592 0.33569 0.0
H261 H 0.24955 0.21752 0.32512 0.0
H262 H 0.29541 0.12163 0.53716 0.0
H263 H 0.36665 0.1667 0.52794 0.0
H264 H 0.17011 0.11995 0.53414 0.0
H265 H 0.10854 0.10833 0.49228 0.0
C266 C 0.36155 1.00664 0.51368 0.0
C267 C 0.43653 1.00251 0.48404 0.0
C268 C 0.36243 0.0271 0.41947 0.0
C269 C 0.28881 0.01803 0.44684 0.0
N270 N 0.21437 1.00354 0.52062 0.0
N271 N 0.50974 1.00834 0.40795 0.0
C272 C 0.2869 1.01031 0.49448 0.0
C273 C 0.4378 0.01423 0.43686 0.0
N274 N 0.36248 1.00604 0.55995 0.0
N275 N 0.35994 0.0462 0.37643 0.0
H276 H 0.56638 0.9988 0.41921 0.0
H277 H 0.5129 1.01028 0.37246 0.0
H278 H 0.30473 0.05546 0.36332 0.0
H279 H 0.4111 0.05762 0.35596 0.0
H280 H 0.31004 1.01267 0.58367 0.0
H281 H 0.41708 1.00366 0.57436 0.0
H282 H 0.20973 0.99184 0.55459 0.0
H283 H 0.1586 1.00814 0.50739 0.0
C284 C 0.73517 0.10488 0.52439 0.0
C285 C 0.66448 0.12138 0.50389 0.0
C286 C 0.72141 0.07445 0.4333 0.0
C287 C 0.79694 0.06614 0.45091 0.0
N288 N 0.86791 0.054 0.51679 0.0
N289 N 0.57895 0.11114 0.44538 0.0
C290 C 0.8007 0.07421 0.49805 0.0
C291 C 0.65347 0.10161 0.46058 0.0
N292 N 0.74164 0.12168 0.56751 0.0
N293 N 0.71709 0.05807 0.38976 0.0
H294 H 0.52751 0.12773 0.46656 0.0
H295 H 0.5667 0.10158 0.41295 0.0
H296 H 0.76697 0.03734 0.37031 0.0
H297 H 0.66526 0.06364 0.3732 0.0
H298 H 0.79491 0.11597 0.58285 0.0
H299 H 0.69337 0.14304 0.58765 0.0
H300 H 0.87304 0.05569 0.55156 0.0
H301 H 0.91572 0.0311 0.49786 0.0
loop_
_geom_bond_atom_site_label_1
_geom_bond_atom_site_label_2
_geom_bond_distance
_geom_bond_site_symmetry_2
_ccdc_geom_bond_type
O0 Cd1 2.300 . S
O0 C7 1.275 . S
Cd1 O0 2.300 . S
Cd1 O9 2.381 . S
Cd1 O10 2.378 . S
O2 Cd3 2.385 . S
O2 C7 1.255 . S
Cd3 O2 2.385 . S
Cd3 O4 2.317 . S
O4 Cd3 2.317 . S
O4 C5 1.232 1_454 S
C5 O4 1.232 1_656 S
C5 O6 1.218 1_655 S
O6 C5 1.218 1_455 S
C7 O0 1.275 . S
C7 O2 1.255 . S
C8 O9 1.258 . S
C8 O10 1.256 . S
O9 Cd1 2.381 . S
O9 C8 1.258 . S
O10 Cd1 2.378 . S
O10 C8 1.256 . S
O11 Cd12 2.300 . S
O11 C18 1.282 . S
Cd12 O11 2.300 . S
Cd12 O20 2.381 . S
Cd12 O21 2.378 1_455 S
O13 Cd14 2.385 1_455 S
O13 C18 1.251 1_556 S
Cd14 O13 2.385 1_655 S
Cd14 O15 2.317 . S
O15 Cd14 2.317 . S
O15 C16 1.232 . S
C16 O15 1.232 . S
C16 O17 1.218 . S
O17 C16 1.218 . S
C18 O11 1.282 . S
C18 O13 1.251 1_554 S
C19 O20 1.258 . S
C19 O21 1.256 1_455 S
O20 Cd12 2.381 . S
O20 C19 1.258 . S
O21 Cd12 2.378 1_655 S
O21 C19 1.256 1_655 S
O22 Cd23 2.300 . S
O22 C29 1.275 . S
Cd23 O22 2.300 . S
Cd23 O31 2.381 . S
Cd23 O32 2.378 . S
O24 Cd25 2.385 . S
O24 C29 1.255 . S
Cd25 O24 2.385 . S
Cd25 O26 2.317 . S
O26 Cd25 2.317 . S
O26 C27 1.232 . S
C27 O26 1.232 . S
C27 O28 1.218 . S
O28 C27 1.218 . S
C29 O22 1.275 . S
C29 O24 1.255 . S
C30 O31 1.258 . S
C30 O32 1.256 . S
O31 Cd23 2.381 . S
O31 C30 1.258 . S
O32 Cd23 2.378 . S
O32 C30 1.256 . S
O33 Cd34 2.300 . S
O33 C40 1.275 . S
Cd34 O33 2.300 . S
Cd34 O42 2.381 . S
Cd34 O43 2.378 . S
O35 Cd36 2.385 . S
O35 C40 1.255 . S
Cd36 O35 2.385 . S
Cd36 O37 2.317 . S
O37 Cd36 2.317 . S
O37 C38 1.232 . S
C38 O37 1.232 . S
C38 O39 1.218 . S
O39 C38 1.218 . S
C40 O33 1.275 . S
C40 O35 1.255 . S
C41 O42 1.258 . S
C41 O43 1.256 . S
O42 Cd34 2.381 . S
O42 C41 1.258 . S
O43 Cd34 2.378 . S
O43 C41 1.256 . S
Zn44 O50 1.920 . S
Zn44 O56 1.898 . S
Zn44 O59 1.905 1_455 S
Zn45 O53 1.905 . S
Zn45 O54 1.898 1_455 S
Zn45 O62 1.920 . S
Zn46 O49 2.080 . S
Zn46 O52 2.114 1_545 S
Zn46 O55 2.120 1_545 S
Zn46 O57 2.120 . S
Zn46 O58 2.114 1_455 S
Zn46 O61 2.080 1_545 S
C47 O52 1.166 . S
C47 O53 1.182 . S
C48 O54 1.167 . S
C48 O55 1.299 1_655 S
O49 Zn46 2.080 . S
O49 C63 1.305 . S
O50 Zn44 1.920 . S
O50 C63 1.234 . S
C51 O56 1.167 . S
C51 O57 1.299 . S
O52 Zn46 2.114 1_565 S
O52 C47 1.166 . S
O53 Zn45 1.905 . S
O53 C47 1.182 . S
O54 Zn45 1.898 1_655 S
O54 C48 1.167 . S
O55 Zn46 2.120 1_565 S
O55 C48 1.299 1_455 S
O56 Zn44 1.898 . S
O56 C51 1.167 . S
O57 Zn46 2.120 . S
O57 C51 1.299 . S
O58 Zn46 2.114 1_655 S
O58 C60 1.166 . S
O59 Zn44 1.905 1_655 S
O59 C60 1.182 . S
C60 O58 1.166 . S
C60 O59 1.182 . S
O61 Zn46 2.080 1_565 S
O61 C64 1.305 . S
O62 Zn45 1.920 . S
O62 C64 1.234 . S
C63 O49 1.305 . S
C63 O50 1.234 . S
C64 O61 1.305 . S
C64 O62 1.234 . S
Zn65 O71 1.920 . S
Zn65 O77 1.898 . S
Zn65 O80 1.905 . S
Zn66 O74 1.905 . S
Zn66 O75 1.898 . S
Zn66 O83 1.920 . S
Zn67 O70 2.080 . S
Zn67 O73 2.114 . S
Zn67 O76 2.120 . S
Zn67 O78 2.120 . S
Zn67 O79 2.114 . S
Zn67 O82 2.080 . S
C68 O73 1.166 . S
C68 O74 1.182 . S
C69 O75 1.167 . S
C69 O76 1.299 . S
O70 Zn67 2.080 . S
O70 C84 1.305 . S
O71 Zn65 1.920 . S
O71 C84 1.234 . S
C72 O77 1.167 . S
C72 O78 1.299 . S
O73 Zn67 2.114 . S
O73 C68 1.166 . S
O74 Zn66 1.905 . S
O74 C68 1.182 . S
O75 Zn66 1.898 . S
O75 C69 1.167 . S
O76 Zn67 2.120 . S
O76 C69 1.299 . S
O77 Zn65 1.898 . S
O77 C72 1.167 . S
O78 Zn67 2.120 . S
O78 C72 1.299 . S
O79 Zn67 2.114 . S
O79 C81 1.166 . S
O80 Zn65 1.905 . S
O80 C81 1.182 . S
C81 O79 1.166 . S
C81 O80 1.182 . S
O82 Zn67 2.080 . S
O82 C85 1.305 . S
O83 Zn66 1.920 . S
O83 C85 1.234 . S
C84 O70 1.305 . S
C84 O71 1.234 . S
C85 O82 1.305 . S
C85 O83 1.234 . S
C86 C87 1.363 . S
C86 C92 1.379 . S
C86 N94 1.356 . S
C87 C86 1.363 . S
C87 C93 1.363 . S
C88 C89 1.363 . S
C88 C93 1.379 . S
C88 N95 1.356 . S
C89 C88 1.363 . S
C89 C92 1.363 . S
N90 C92 1.356 . S
N90 H102 0.984 . S
N90 H103 0.985 . S
N91 C93 1.356 . S
N91 H96 0.984 . S
N91 H97 0.985 . S
C92 C86 1.379 . S
C92 C89 1.363 . S
C92 N90 1.356 . S
C93 C87 1.363 . S
C93 C88 1.379 . S
C93 N91 1.356 . S
N94 C86 1.356 . S
N94 H100 0.984 . S
N94 H101 0.984 . S
N95 C88 1.356 . S
N95 H98 0.984 . S
N95 H99 0.985 . S
H96 N91 0.984 . S
H97 N91 0.985 . S
H98 N95 0.984 . S
H99 N95 0.985 . S
H100 N94 0.984 . S
H101 N94 0.984 . S
H102 N90 0.984 . S
H103 N90 0.985 . S
C104 C105 1.363 1_655 S
C104 C110 1.379 . S
C104 N112 1.356 . S
C105 C104 1.363 1_455 S
C105 C111 1.363 . S
C106 C107 1.363 . S
C106 C111 1.379 . S
C106 N113 1.356 . S
C107 C106 1.363 . S
C107 C110 1.363 1_455 S
N108 C110 1.356 . S
N108 H120 0.984 . S
N108 H121 0.985 . S
N109 C111 1.356 . S
N109 H114 0.984 . S
N109 H115 0.985 . S
C110 C104 1.379 . S
C110 C107 1.363 1_655 S
C110 N108 1.356 . S
C111 C105 1.363 . S
C111 C106 1.379 . S
C111 N109 1.356 . S
N112 C104 1.356 . S
N112 H118 0.984 . S
N112 H119 0.984 . S
N113 C106 1.356 . S
N113 H116 0.984 . S
N113 H117 0.985 . S
H114 N109 0.984 . S
H115 N109 0.985 . S
H116 N113 0.984 . S
H117 N113 0.985 . S
H118 N112 0.984 . S
H119 N112 0.984 . S
H120 N108 0.984 . S
H121 N108 0.985 . S
C122 C123 1.363 . S
C122 C128 1.379 . S
C122 N130 1.356 . S
C123 C122 1.363 . S
C123 C129 1.363 . S
C124 C125 1.363 . S
C124 C129 1.379 . S
C124 N131 1.356 . S
C125 C124 1.363 . S
C125 C128 1.363 . S
N126 C128 1.356 . S
N126 H138 0.984 . S
N126 H139 0.985 . S
N127 C129 1.356 . S
N127 H132 0.984 . S
N127 H133 0.985 . S
C128 C122 1.379 . S
C128 C125 1.363 . S
C128 N126 1.356 . S
C129 C123 1.363 . S
C129 C124 1.379 . S
C129 N127 1.356 . S
N130 C122 1.356 . S
N130 H136 0.984 . S
N130 H137 0.984 . S
N131 C124 1.356 . S
N131 H134 0.984 . S
N131 H135 0.985 . S
H132 N127 0.984 . S
H133 N127 0.985 . S
H134 N131 0.984 . S
H135 N131 0.985 . S
H136 N130 0.984 . S
H137 N130 0.984 . S
H138 N126 0.984 . S
H139 N126 0.985 . S
C140 C141 1.363 . S
C140 C146 1.379 . S
C140 N148 1.356 . S
C141 C140 1.363 . S
C141 C147 1.363 . S
C142 C143 1.363 . S
C142 C147 1.379 . S
C142 N149 1.356 . S
C143 C142 1.363 . S
C143 C146 1.363 . S
N144 C146 1.356 . S
N144 H156 0.984 . S
N144 H157 0.985 . S
N145 C147 1.356 . S
N145 H150 0.984 . S
N145 H151 0.985 . S
C146 C140 1.379 . S
C146 C143 1.363 . S
C146 N144 1.356 . S
C147 C141 1.363 . S
C147 C142 1.379 . S
C147 N145 1.356 . S
N148 C140 1.356 . S
N148 H154 0.984 . S
N148 H155 0.984 . S
N149 C142 1.356 . S
N149 H152 0.984 . S
N149 H153 0.985 . S
H150 N145 0.984 . S
H151 N145 0.985 . S
H152 N149 0.984 . S
H153 N149 0.985 . S
H154 N148 0.984 . S
H155 N148 0.984 . S
H156 N144 0.984 . S
H157 N144 0.985 . S
C158 C159 1.363 . S
C158 C164 1.379 . S
C158 N166 1.356 . S
C159 C158 1.363 . S
C159 C165 1.363 1_556 S
C160 C161 1.363 . S
C160 C165 1.379 1_556 S
C160 N167 1.356 1_556 S
C161 C160 1.363 . S
C161 C164 1.363 . S
N162 C164 1.356 . S
N162 H174 0.984 . S
N162 H175 0.985 . S
N163 C165 1.356 . S
N163 H168 0.984 . S
N163 H169 0.985 . S
C164 C158 1.379 . S
C164 C161 1.363 . S
C164 N162 1.356 . S
C165 C159 1.363 1_554 S
C165 C160 1.379 1_554 S
C165 N163 1.356 . S
N166 C158 1.356 . S
N166 H172 0.984 . S
N166 H173 0.984 . S
N167 C160 1.356 1_554 S
N167 H170 0.981 1_554 S
N167 H171 0.985 . S
H168 N163 0.984 . S
H169 N163 0.985 . S
H170 N167 0.981 1_556 S
H171 N167 0.985 . S
H172 N166 0.984 . S
H173 N166 0.984 . S
H174 N162 0.984 . S
H175 N162 0.985 . S
C176 C177 1.363 . S
C176 C182 1.379 . S
C176 N184 1.356 . S
C177 C176 1.363 . S
C177 C183 1.363 . S
C178 C179 1.363 . S
C178 C183 1.379 . S
C178 N185 1.356 . S
C179 C178 1.363 . S
C179 C182 1.363 . S
N180 C182 1.356 . S
N180 H192 0.984 . S
N180 H193 0.985 . S
N181 C183 1.356 1_554 S
N181 H186 0.984 . S
N181 H187 0.985 . S
C182 C176 1.379 . S
C182 C179 1.363 . S
C182 N180 1.356 . S
C183 C177 1.363 . S
C183 C178 1.379 . S
C183 N181 1.356 1_556 S
N184 C176 1.356 . S
N184 H190 0.984 . S
N184 H191 0.984 . S
N185 C178 1.356 . S
N185 H188 0.984 . S
N185 H189 0.985 1_556 S
H186 N181 0.984 . S
H187 N181 0.985 . S
H188 N185 0.984 . S
H189 N185 0.985 1_554 S
H190 N184 0.984 . S
H191 N184 0.984 . S
H192 N180 0.984 . S
H193 N180 0.985 . S
C194 C195 1.363 . S
C194 C200 1.379 . S
C194 N202 1.356 1_556 S
C195 C194 1.363 . S
C195 C201 1.363 . S
C196 C197 1.363 . S
C196 C201 1.379 . S
C196 N203 1.356 . S
C197 C196 1.363 . S
C197 C200 1.363 . S
N198 C200 1.356 . S
N198 H210 0.984 . S
N198 H211 0.985 . S
N199 C201 1.356 . S
N199 H204 0.984 1_655 S
N199 H205 0.985 . S
C200 C194 1.379 . S
C200 C197 1.363 . S
C200 N198 1.356 . S
C201 C195 1.363 . S
C201 C196 1.379 . S
C201 N199 1.356 . S
N202 C194 1.356 1_554 S
N202 H208 0.984 . S
N202 H209 0.984 . S
N203 C196 1.356 . S
N203 H206 0.984 . S
N203 H207 0.985 . S
H204 N199 0.984 1_455 S
H205 N199 0.985 . S
H206 N203 0.984 . S
H207 N203 0.985 . S
H208 N202 0.984 . S
H209 N202 0.984 . S
H210 N198 0.984 . S
H211 N198 0.985 . S
C212 C213 1.363 . S
C212 C218 1.379 . S
C212 N220 1.356 . S
C213 C212 1.363 . S
C213 C219 1.363 . S
C214 C215 1.363 . S
C214 C219 1.379 . S
C214 N221 1.356 . S
C215 C214 1.363 . S
C215 C218 1.363 . S
N216 C218 1.356 . S
N216 H228 0.984 . S
N216 H229 0.985 . S
N217 C219 1.356 1_554 S
N217 H222 0.984 . S
N217 H223 0.985 . S
C218 C212 1.379 . S
C218 C215 1.363 . S
C218 N216 1.356 . S
C219 C213 1.363 . S
C219 C214 1.379 . S
C219 N217 1.356 1_556 S
N220 C212 1.356 . S
N220 H226 0.984 . S
N220 H227 0.984 . S
N221 C214 1.356 . S
N221 H224 0.984 . S
N221 H225 0.985 1_556 S
H222 N217 0.984 . S
H223 N217 0.985 . S
H224 N221 0.984 . S
H225 N221 0.985 1_554 S
H226 N220 0.984 . S
H227 N220 0.984 . S
H228 N216 0.984 . S
H229 N216 0.985 . S
C230 C231 1.363 . S
C230 C236 1.379 . S
C230 N238 1.356 . S
C231 C230 1.363 . S
C231 C237 1.363 . S
C232 C233 1.363 . S
C232 C237 1.379 . S
C232 N239 1.356 . S
C233 C232 1.363 . S
C233 C236 1.363 . S
N234 C236 1.356 . S
N234 H246 0.984 . S
N234 H247 0.985 . S
N235 C237 1.356 . S
N235 H240 0.984 . S
N235 H241 0.985 . S
C236 C230 1.379 . S
C236 C233 1.363 . S
C236 N234 1.356 . S
C237 C231 1.363 . S
C237 C232 1.379 . S
C237 N235 1.356 . S
N238 C230 1.356 . S
N238 H244 0.984 . S
N238 H245 0.984 . S
N239 C232 1.356 . S
N239 H242 0.984 1_655 S
N239 H243 0.985 1_655 S
H240 N235 0.984 . S
H241 N235 0.985 . S
H242 N239 0.984 1_455 S
H243 N239 0.985 1_455 S
H244 N238 0.984 . S
H245 N238 0.984 . S
H246 N234 0.984 . S
H247 N234 0.985 . S
C248 C249 1.363 . S
C248 C254 1.379 . S
C248 N256 1.356 . S
C249 C248 1.363 . S
C249 C255 1.363 . S
C250 C251 1.363 . S
C250 C255 1.379 . S
C250 N257 1.356 . S
C251 C250 1.363 . S
C251 C254 1.363 . S
N252 C254 1.356 . S
N252 H264 0.984 . S
N252 H265 0.985 . S
N253 C255 1.356 . S
N253 H258 0.984 . S
N253 H259 0.985 . S
C254 C248 1.379 . S
C254 C251 1.363 . S
C254 N252 1.356 . S
C255 C249 1.363 . S
C255 C250 1.379 . S
C255 N253 1.356 . S
N256 C248 1.356 . S
N256 H262 0.984 . S
N256 H263 0.984 . S
N257 C250 1.356 . S
N257 H260 0.984 . S
N257 H261 0.985 . S
H258 N253 0.984 . S
H259 N253 0.985 . S
H260 N257 0.984 . S
H261 N257 0.985 . S
H262 N256 0.984 . S
H263 N256 0.984 . S
H264 N252 0.984 . S
H265 N252 0.985 . S
C266 C267 1.363 . S
C266 C272 1.379 . S
C266 N274 1.356 . S
C267 C266 1.363 . S
C267 C273 1.363 . S
C268 C269 1.363 . S
C268 C273 1.379 . S
C268 N275 1.356 . S
C269 C268 1.363 . S
C269 C272 1.363 . S
N270 C272 1.356 . S
N270 H282 0.984 . S
N270 H283 0.985 . S
N271 C273 1.356 . S
N271 H276 0.984 . S
N271 H277 0.985 . S
C272 C266 1.379 . S
C272 C269 1.363 . S
C272 N270 1.356 . S
C273 C267 1.363 . S
C273 C268 1.379 . S
C273 N271 1.356 . S
N274 C266 1.356 . S
N274 H280 0.984 . S
N274 H281 0.984 . S
N275 C268 1.356 . S
N275 H278 0.984 . S
N275 H279 0.985 . S
H276 N271 0.984 . S
H277 N271 0.985 . S
H278 N275 0.984 . S
H279 N275 0.985 . S
H280 N274 0.984 . S
H281 N274 0.984 . S
H282 N270 0.984 . S
H283 N270 0.985 . S
C284 C285 1.363 . S
C284 C290 1.379 . S
C284 N292 1.356 . S
C285 C284 1.363 . S
C285 C291 1.363 . S
C286 C287 1.363 . S
C286 C291 1.379 . S
C286 N293 1.356 . S
C287 C286 1.363 . S
C287 C290 1.363 . S
N288 C290 1.356 . S
N288 H300 0.984 . S
N288 H301 0.985 . S
N289 C291 1.356 . S
N289 H294 0.984 . S
N289 H295 0.985 . S
C290 C284 1.379 . S
C290 C287 1.363 . S
C290 N288 1.356 . S
C291 C285 1.363 . S
C291 C286 1.379 . S
C291 N289 1.356 . S
N292 C284 1.356 . S
N292 H298 0.984 . S
N292 H299 0.984 . S
N293 C286 1.356 . S
N293 H296 0.984 . S
N293 H297 0.985 . S
H294 N289 0.984 . S
H295 N289 0.985 . S
H296 N293 0.984 . S
H297 N293 0.985 . S
H298 N292 0.984 . S
H299 N292 0.984 . S
H300 N288 0.984 . S
H301 N288 0.985 . S
C89 C51 1.486 . S
C87 C8 1.536 . S
C107 C47 1.418 . S
C105 C19 1.520 . S
C125 C72 1.486 . S
C123 C30 1.536 . S
C141 C41 1.520 . S
C143 C68 1.418 . S
C159 C7 1.321 1_556 S
C161 C69 1.186 . S
C179 C84 1.170 . S
C177 C16 1.267 . S
C195 C5 1.406 . S
C197 C85 1.527 . S
C215 C81 1.574 . S
C213 C18 1.717 1_556 S
C233 C48 1.186 . S
C231 C29 1.321 . S
C249 C38 1.266 . S
C251 C63 1.170 . S
C269 C64 1.527 . S
C267 C27 1.406 . S
C287 C60 1.574 . S
C285 C40 1.720 . S
