# Generated by pormake.
# Topology pth, (4,4)-cn, num edge types: 1
# Building blocks:
#     Node 0, Type 0, BuildingBlock: CEKHIL_clean_sbu_0, # of connection points: 4
#     Node 1, Type 0, BuildingBlock: CEKHIL_clean_sbu_0, # of connection points: 4
#     Node 2, Type 0, BuildingBlock: CEKHIL_clean_sbu_0, # of connection points: 4
#     Node 3, Type 1, BuildingBlock: MUDLON_clean_sbu_0, # of connection points: 4
#     Node 4, Type 1, BuildingBlock: MUDLON_clean_sbu_0, # of connection points: 4
#     Node 5, Type 1, BuildingBlock: MUDLON_clean_sbu_0, # of connection points: 4
#     Edge 6, Type (0, 1), BuildingBlock: XIVTED_clean_linker_0, # of connection points: 2
#     Edge 7, Type (0, 1), BuildingBlock: XIVTED_clean_linker_0, # of connection points: 2
#     Edge 8, Type (0, 1), BuildingBlock: XIVTED_clean_linker_0, # of connection points: 2
#     Edge 9, Type (0, 1), BuildingBlock: XIVTED_clean_linker_0, # of connection points: 2
#     Edge 10, Type (0, 1), BuildingBlock: XIVTED_clean_linker_0, # of connection points: 2
#     Edge 11, Type (0, 1), BuildingBlock: XIVTED_clean_linker_0, # of connection points: 2
#     Edge 12, Type (0, 1), BuildingBlock: XIVTED_clean_linker_0, # of connection points: 2
#     Edge 13, Type (0, 1), BuildingBlock: XIVTED_clean_linker_0, # of connection points: 2
#     Edge 14, Type (0, 1), BuildingBlock: XIVTED_clean_linker_0, # of connection points: 2
#     Edge 15, Type (0, 1), BuildingBlock: XIVTED_clean_linker_0, # of connection points: 2
#     Edge 16, Type (0, 1), BuildingBlock: XIVTED_clean_linker_0, # of connection points: 2
#     Edge 17, Type (0, 1), BuildingBlock: XIVTED_clean_linker_0, # of connection points: 2
# Relax obj value: 0.014
# Max RMSD: 0.063
# Mean RMSD: 0.051
data_MOF--net-pth--node1-CEKHIL_clean_sbu_0--node2-MUDLON_clean_sbu_0--edge1-XIVTED_clean_linker_0
_symmetry_space_group_name_H-M    P1
_symmetry_Int_Tables_number       1
_symmetry_cell_setting            triclinic
loop_
_symmetry_equiv_pos_as_xyz
'x, y, z'
_cell_length_a     22.57688
_cell_length_b     22.611247
_cell_length_c     60.849559
_cell_angle_alpha  90.894623
_cell_angle_beta   89.928569
_cell_angle_gamma 120.3659
loop_
_atom_site_label
_atom_site_type_symbol
_atom_site_fract_x
_atom_site_fract_y
_atom_site_fract_z
_atom_type_partial_charge
Co0 Co 0.05264 0.07085 0.10167 0.0
O1 O 0.00983 0.9996 0.12334 0.0
O2 O 0.09744 0.01725 0.10252 0.0
C3 C 0.05707 0.1543 0.12401 0.0
O4 O 0.11523 0.13903 0.07876 0.0
Co5 Co 0.99109 0.15514 0.08344 0.0
O6 O 0.08015 0.21126 0.0686 0.0
C7 C 0.93734 0.01197 0.06775 0.0
C8 C 0.05583 0.98332 0.1183 0.0
C9 C 0.12332 0.19082 0.06782 0.0
O10 O 0.98576 0.00891 0.07802 0.0
O11 O 0.92835 0.06342 0.06939 0.0
O12 O 0.10368 0.13686 0.12541 0.0
O13 O 0.00861 0.11976 0.10989 0.0
Co14 Co 0.02791 0.07751 0.41428 0.0
O15 O 0.98799 0.10821 0.39224 0.0
O16 O 0.07652 0.17661 0.41353 0.0
C17 C 0.02883 0.99588 0.39233 0.0
O18 O 0.08811 0.06891 0.43763 0.0
Co19 Co 0.95948 0.92941 0.43196 0.0
O20 O 0.05196 0.95834 0.44398 0.0
C21 C 0.91063 0.02317 0.44682 0.0
C22 C 0.03586 0.17026 0.39745 0.0
C23 C 0.09603 0.02184 0.44635 0.0
O24 O 0.96166 0.07472 0.43745 0.0
O25 O 0.8989 0.96165 0.4449 0.0
O26 O 0.07739 0.05959 0.3909 0.0
O27 O 0.98072 0.98437 0.40599 0.0
Co28 Co 0.0199 0.05579 0.75253 0.0
O29 O 0.08648 0.09944 0.7294 0.0
O30 O 0.07724 0.01537 0.74992 0.0
C31 C 0.93103 0.04494 0.73208 0.0
O32 O 0.958 0.99305 0.77662 0.0
Co33 Co 0.9329 0.10984 0.77368 0.0
O34 O 0.87652 0.01698 0.78609 0.0
C35 C 0.07981 0.17266 0.78613 0.0
C36 C 0.1067 0.05619 0.73362 0.0
C37 C 0.90276 0.97879 0.78694 0.0
O38 O 0.08398 0.12589 0.77497 0.0
O39 O 0.02557 0.17732 0.78647 0.0
O40 O 0.95096 1.00026 0.73033 0.0
O41 O 0.96568 0.09521 0.74575 0.0
Mg42 Mg 0.06608 0.58579 0.25652 0.0
C43 C 0.12649 0.55968 0.29913 0.0
O44 O 0.12475 0.61235 0.30778 0.0
C45 C 0.12173 0.66457 0.21424 0.0
O46 O 0.09573 0.60251 0.20578 0.0
C47 C 0.99769 0.441 0.23934 0.0
O48 O 0.00654 0.43114 0.26 0.0
O49 O 0.00699 0.49925 0.23397 0.0
O50 O 0.1148 0.54671 0.27863 0.0
O51 O 0.01631 0.63027 0.27575 0.0
C52 C 0.99117 0.61541 0.29494 0.0
O53 O 0.98085 0.55858 0.30396 0.0
O54 O 0.12647 0.6725 0.23507 0.0
Mg55 Mg 0.52026 0.07136 0.5915 0.0
C56 C 0.44496 0.07739 0.55626 0.0
O57 O 0.43061 0.0143 0.55977 0.0
C58 C 0.61848 0.06328 0.61849 0.0
O59 O 0.58029 0.00443 0.60813 0.0
C60 C 0.42985 0.00955 0.63173 0.0
O61 O 0.48923 0.02838 0.6411 0.0
O62 O 0.42686 0.01298 0.61091 0.0
O63 O 0.48736 0.12495 0.56925 0.0
O64 O 0.55799 0.0282 0.56638 0.0
C65 C 0.60905 0.07796 0.557 0.0
O66 O 0.62755 0.14067 0.56355 0.0
O67 O 0.60638 0.11178 0.615 0.0
Mg68 Mg 0.55339 0.55234 0.92425 0.0
C69 C 0.46541 0.47962 0.8887 0.0
O70 O 0.5068 0.45596 0.89268 0.0
C71 C 0.63101 0.63273 0.96206 0.0
O72 O 0.63606 0.57739 0.96133 0.0
C73 C 0.50366 0.42555 0.95848 0.0
O74 O 0.56485 0.43336 0.96142 0.0
O75 O 0.49526 0.46345 0.9451 0.0
O76 O 0.47151 0.52942 0.9006 0.0
O77 O 0.63548 0.57285 0.90091 0.0
C78 C 0.69479 0.62625 0.90256 0.0
O79 O 0.71473 0.65863 0.92159 0.0
O80 O 0.59498 0.63963 0.9473 0.0
H81 H 0.98686 0.22224 0.11884 0.0
H82 H 0.01849 0.33317 0.24478 0.0
H83 H 0.11507 0.19421 0.16501 0.0
H84 H 0.97741 0.44114 0.19467 0.0
H85 H 0.03542 0.26654 0.21614 0.0
H86 H 0.96826 0.29086 0.14664 0.0
C87 C 0.01167 0.23115 0.13476 0.0
C88 C 0.05278 0.20272 0.13963 0.0
C89 C 0.02232 0.30454 0.21143 0.0
C90 C 0.03011 0.27937 0.1716 0.0
C91 C 0.01185 0.34219 0.22777 0.0
C92 C 0.99657 0.39311 0.22216 0.0
C93 C 0.01647 0.31689 0.18925 0.0
C94 C 0.98913 0.40249 0.19977 0.0
C95 C 1.0009 0.27015 0.15059 0.0
C96 C 0.08348 0.21563 0.16052 0.0
N97 N 0.9991 0.3647 0.18411 0.0
N98 N 0.07084 0.25232 0.17583 0.0
H99 H 0.92123 0.14479 0.46132 0.0
H100 H 0.59136 0.95678 0.53939 0.0
H101 H 0.79159 0.92494 0.46537 0.0
H102 H 0.71825 0.1766 0.53471 0.0
H103 H 0.66199 0.94404 0.51117 0.0
H104 H 0.8448 0.15795 0.48706 0.0
C105 C 0.87667 0.09938 0.46747 0.0
C106 C 0.86339 0.03374 0.46122 0.0
C107 C 0.67418 0.99506 0.51629 0.0
C108 C 0.7758 0.04831 0.49075 0.0
C109 C 0.63381 1.00226 0.5324 0.0
C110 C 0.64895 0.06775 0.53951 0.0
C111 C 0.73009 0.05378 0.50726 0.0
C112 C 0.70466 0.12499 0.52983 0.0
C113 C 0.83308 0.10686 0.48221 0.0
C114 C 0.8046 0.97671 0.46978 0.0
N115 N 0.74321 0.11668 0.5143 0.0
N116 N 0.76337 0.98534 0.48411 0.0
H117 H 0.76783 0.9002 0.79884 0.0
H118 H 0.83115 0.72026 0.89753 0.0
H119 H 0.96666 0.92044 0.80828 0.0
H120 H 0.63801 0.62109 0.86236 0.0
H121 H 0.88319 0.79953 0.86693 0.0
H122 H 0.71877 0.80412 0.82437 0.0
C123 C 0.80107 0.88428 0.80622 0.0
C124 C 0.87143 0.91842 0.80145 0.0
C125 C 0.82976 0.75954 0.86577 0.0
C126 C 0.8159 0.80945 0.83087 0.0
C127 C 0.80013 0.7142 0.88317 0.0
C128 C 0.73025 0.66382 0.88247 0.0
C129 C 0.78867 0.75581 0.84789 0.0
C130 C 0.69222 0.65872 0.86353 0.0
C131 C 0.773 0.82926 0.82066 0.0
C132 C 0.9121 0.8954 0.81143 0.0
N133 N 0.72154 0.70505 0.8472 0.0
N134 N 0.88399 0.84306 0.82593 0.0
H135 H 0.12402 0.91606 0.10664 0.0
H136 H 0.11601 0.7783 0.22709 0.0
H137 H 0.0118 0.94036 0.16003 0.0
H138 H 0.13434 0.67527 0.16943 0.0
H139 H 0.10121 0.85627 0.2033 0.0
H140 H 0.14778 0.8425 0.12992 0.0
C141 C 0.10401 0.90555 0.1232 0.0
C142 C 0.06544 0.93396 0.13136 0.0
C143 C 0.10921 0.81701 0.19589 0.0
C144 C 0.09419 0.85175 0.1582 0.0
C145 C 0.11851 0.77296 0.20945 0.0
C146 C 0.12637 0.71998 0.20025 0.0
C147 C 0.10891 0.80892 0.17296 0.0
C148 C 0.12831 0.71526 0.17722 0.0
C149 C 0.11773 0.86377 0.13645 0.0
C150 C 0.04112 0.91897 0.15298 0.0
N151 N 0.1196 0.7591 0.16436 0.0
N152 N 0.05645 0.87947 0.16572 0.0
H153 H 0.17542 0.14251 0.46966 0.0
H154 H 0.41917 0.01258 0.5171 0.0
H155 H 0.15593 0.94607 0.45505 0.0
H156 H 0.39369 0.16555 0.55201 0.0
H157 H 0.34324 0.00903 0.48818 0.0
H158 H 0.27221 0.16948 0.49458 0.0
C159 C 0.1919 0.10542 0.4715 0.0
C160 C 0.15726 0.04169 0.46035 0.0
C161 C 0.35463 0.04404 0.502 0.0
C162 C 0.26802 0.07266 0.48845 0.0
C163 C 0.39833 0.0464 0.51848 0.0
C164 C 0.41207 0.08885 0.53709 0.0
C165 C 0.32356 0.08405 0.50407 0.0
C166 C 0.38432 0.13215 0.5379 0.0
C167 C 0.24685 0.1208 0.48576 0.0
C168 C 0.18057 0.99549 0.46342 0.0
N169 N 0.34034 0.12798 0.5217 0.0
N170 N 0.23436 0.01195 0.4771 0.0
H171 H 0.20698 0.18497 0.78989 0.0
H172 H 0.34759 0.48607 0.88152 0.0
H173 H 0.08951 0.27576 0.81317 0.0
H174 H 0.4608 0.39255 0.85676 0.0
H175 H 0.25505 0.41586 0.855 0.0
H176 H 0.30302 0.26618 0.81301 0.0
C177 C 0.2013 0.22199 0.7998 0.0
C178 C 0.13968 0.22301 0.79959 0.0
C179 C 0.30049 0.41124 0.85532 0.0
C180 C 0.2499 0.3166 0.82624 0.0
C181 C 0.35336 0.45152 0.87037 0.0
C182 C 0.41172 0.44475 0.87151 0.0
C183 C 0.30639 0.36422 0.84135 0.0
C184 C 0.41646 0.39902 0.8567 0.0
C185 C 0.2563 0.26855 0.81301 0.0
C186 C 0.13579 0.27267 0.81279 0.0
N187 N 0.36453 0.36044 0.84239 0.0
N188 N 0.18993 0.31718 0.82563 0.0
H189 H 0.85788 0.95162 0.69948 0.0
H190 H 0.68511 0.15955 0.65202 0.0
H191 H 0.88993 0.13996 0.72939 0.0
H192 H 0.66617 0.97573 0.62263 0.0
H193 H 0.75971 0.15522 0.68077 0.0
H194 H 0.78377 0.95922 0.67193 0.0
C195 C 0.84881 0.99428 0.70037 0.0
C196 C 0.88026 0.04522 0.71674 0.0
C197 C 0.73925 0.11609 0.66793 0.0
C198 C 0.79587 0.05497 0.68499 0.0
C199 C 0.69711 0.11885 0.65148 0.0
C200 C 0.66907 0.06781 0.63495 0.0
C201 C 0.7532 0.06198 0.66774 0.0
C202 C 0.686 0.01596 0.63511 0.0
C203 C 0.80672 0.9989 0.68455 0.0
C204 C 0.86669 0.0995 0.71704 0.0
N205 N 0.72654 0.01432 0.6512 0.0
N206 N 0.82573 0.10314 0.70134 0.0
H207 H 0.8381 0.00694 0.04068 0.0
H208 H 0.71305 0.62936 0.99416 0.0
H209 H 0.92795 0.88655 0.06045 0.0
H210 H 0.64346 0.76008 0.96774 0.0
H211 H 0.78577 0.71989 0.02025 0.0
H212 H 0.76143 0.91461 0.01574 0.0
C213 C 0.84178 0.96103 0.03987 0.0
C214 C 0.88997 0.95481 0.0528 0.0
C215 C 0.75461 0.7289 1.0088 0.0
C216 C 0.80147 0.8483 0.02402 0.0
C217 C 0.71276 0.6771 0.99387 0.0
C218 C 0.67205 0.68711 0.97862 0.0
C219 C 0.7559 0.79151 1.00866 0.0
C220 C 0.67395 0.75009 0.97916 0.0
C221 C 0.79783 0.90827 0.02552 0.0
C222 C 0.89191 0.89387 0.05085 0.0
N223 N 0.71531 0.79998 0.99393 0.0
N224 N 0.84827 0.843 0.03675 0.0
H225 H 0.95057 0.85874 0.39933 0.0
H226 H 0.03511 0.74813 0.28377 0.0
H227 H 0.09862 1.00404 0.35436 0.0
H228 H 0.94445 0.60721 0.33725 0.0
H229 H 0.04596 0.8407 0.30771 0.0
H230 H 0.93779 0.76496 0.3755 0.0
C231 C 0.98079 0.87095 0.38449 0.0
C232 C 0.02588 0.9394 0.37883 0.0
C233 C 0.02344 0.78948 0.31418 0.0
C234 C 0.01042 0.832 0.35126 0.0
C235 C 0.01659 0.73627 0.30046 0.0
C236 C 0.98886 0.66945 0.30849 0.0
C237 C 1.00176 0.77599 0.33606 0.0
C238 C 0.96611 0.65774 0.33033 0.0
C239 C 0.97336 0.8173 0.37089 0.0
C240 C 0.06361 0.95205 0.3594 0.0
N241 N 0.97308 0.71047 0.34336 0.0
N242 N 0.0546 0.89884 0.3462 0.0
H243 H 0.17517 0.98768 0.742 0.0
H244 H 0.32137 0.02543 0.62004 0.0
H245 H 0.14739 0.10533 0.69216 0.0
H246 H 0.40957 0.97942 0.67541 0.0
H247 H 0.24099 0.03468 0.64496 0.0
H248 H 0.24811 0.96769 0.7167 0.0
C249 C 0.18478 0.00968 0.72579 0.0
C250 C 0.15555 0.04865 0.71923 0.0
C251 C 0.27752 0.02187 0.65159 0.0
C252 C 0.23751 0.02454 0.69005 0.0
C253 C 0.32289 0.01577 0.63735 0.0
C254 C 0.37248 1.00182 0.64566 0.0
C255 C 0.28112 0.01309 0.67426 0.0
C256 C 0.37239 0.99052 0.66831 0.0
C257 C 0.22621 0.99807 0.71136 0.0
C258 C 0.16941 0.07556 0.69798 0.0
N259 N 0.32762 0.99658 0.68182 0.0
N260 N 0.20899 0.06262 0.6841 0.0
H261 H 0.23663 0.17528 0.06447 0.0
H262 H 0.37234 0.40076 0.95641 0.0
H263 H 0.14415 0.28334 0.03592 0.0
H264 H 0.50256 0.35173 0.99455 0.0
H265 H 0.28155 0.34263 0.98308 0.0
H266 H 0.3291 0.22727 0.03736 0.0
C267 C 0.2358 0.21008 0.05261 0.0
C268 C 0.18231 0.2249 0.05255 0.0
C269 C 0.32983 0.34428 0.98563 0.0
C270 C 0.28738 0.28353 0.02131 0.0
C271 C 0.38184 0.37724 0.9703 0.0
C272 C 0.44579 0.38187 0.97326 0.0
C273 C 0.34106 0.31497 1.00415 0.0
C274 C 0.45428 0.34966 0.9916 0.0
C275 C 0.28861 0.23964 0.03715 0.0
C276 C 0.18416 0.2704 0.03674 0.0
N277 N 0.40256 0.31775 1.00642 0.0
N278 N 0.23541 0.2976 0.02175 0.0
H279 H 0.11332 0.30708 0.40842 0.0
H280 H 0.10318 0.43192 0.28738 0.0
H281 H 0.98892 0.16964 0.356 0.0
H282 H 0.14428 0.56472 0.34406 0.0
H283 H 0.08109 0.33842 0.3118 0.0
H284 H 0.14155 0.40482 0.38472 0.0
C285 C 0.09154 0.29747 0.392 0.0
C286 C 0.04836 0.23005 0.38422 0.0
C287 C 0.09533 0.38815 0.31888 0.0
C288 C 0.08199 0.34143 0.3569 0.0
C289 C 0.10846 0.44188 0.30494 0.0
C290 C 0.12497 0.50646 0.31362 0.0
C291 C 0.09981 0.39898 0.34173 0.0
C292 C 0.13143 0.51587 0.33659 0.0
C293 C 0.1078 0.35323 0.3785 0.0
C294 C 0.02191 0.22065 0.36276 0.0
N295 N 0.11876 0.46273 0.34985 0.0
N296 N 0.03966 0.2756 0.3498 0.0
loop_
_geom_bond_atom_site_label_1
_geom_bond_atom_site_label_2
_geom_bond_distance
_geom_bond_site_symmetry_2
_ccdc_geom_bond_type
Co0 O1 2.216 1_445 S
Co0 O2 2.091 . S
Co0 O4 2.004 . S
Co0 O10 2.021 1_445 S
Co0 O12 2.137 . S
Co0 O13 2.244 1_455 S
O1 Co0 2.216 1_665 S
O1 C8 1.247 1_655 S
O2 Co0 2.091 . S
O2 C8 1.261 1_545 S
C3 O12 1.247 . S
C3 O13 1.272 1_455 S
O4 Co0 2.004 . S
O4 C9 1.259 . S
Co5 O6 2.061 1_655 S
Co5 O11 2.052 . S
Co5 O13 2.135 . S
O6 Co5 2.061 1_455 S
O6 C9 1.235 . S
C7 O10 1.238 . S
C7 O11 1.241 1_565 S
C8 O1 1.247 1_455 S
C8 O2 1.261 1_565 S
C9 O4 1.259 . S
C9 O6 1.235 . S
O10 Co0 2.021 1_665 S
O10 C7 1.238 . S
O11 Co5 2.052 . S
O11 C7 1.241 1_545 S
O12 Co0 2.137 . S
O12 C3 1.247 . S
O13 Co0 2.244 1_655 S
O13 C3 1.272 1_655 S
O13 Co5 2.135 . S
Co14 O15 2.216 . S
Co14 O16 2.091 . S
Co14 O18 2.004 . S
Co14 O24 2.021 . S
Co14 O26 2.137 . S
Co14 O27 2.244 1_545 S
O15 Co14 2.216 . S
O15 C22 1.247 . S
O16 Co14 2.091 . S
O16 C22 1.261 . S
C17 O26 1.247 1_565 S
C17 O27 1.272 . S
O18 Co14 2.004 . S
O18 C23 1.259 . S
Co19 O20 2.061 1_665 S
Co19 O25 2.052 . S
Co19 O27 2.135 1_655 S
O20 Co19 2.061 1_445 S
O20 C23 1.235 . S
C21 O24 1.238 1_655 S
C21 O25 1.241 1_545 S
C22 O15 1.247 . S
C22 O16 1.261 . S
C23 O18 1.259 . S
C23 O20 1.235 . S
O24 Co14 2.021 . S
O24 C21 1.238 1_455 S
O25 Co19 2.052 . S
O25 C21 1.241 1_565 S
O26 Co14 2.137 . S
O26 C17 1.247 1_545 S
O27 Co14 2.244 1_565 S
O27 C17 1.272 . S
O27 Co19 2.135 1_455 S
Co28 O29 2.216 . S
Co28 O30 2.091 1_545 S
Co28 O32 2.004 1_445 S
Co28 O38 2.021 . S
Co28 O40 2.137 1_455 S
Co28 O41 2.244 1_455 S
O29 Co28 2.216 . S
O29 C36 1.247 . S
O30 Co28 2.091 1_565 S
O30 C36 1.261 1_565 S
C31 O40 1.247 . S
C31 O41 1.272 . S
O32 Co28 2.004 1_665 S
O32 C37 1.259 . S
Co33 O34 2.061 . S
Co33 O39 2.052 1_655 S
Co33 O41 2.135 . S
O34 Co33 2.061 . S
O34 C37 1.235 1_545 S
C35 O38 1.238 . S
C35 O39 1.241 . S
C36 O29 1.247 . S
C36 O30 1.261 1_545 S
C37 O32 1.259 . S
C37 O34 1.235 1_565 S
O38 Co28 2.021 . S
O38 C35 1.238 . S
O39 Co33 2.052 1_455 S
O39 C35 1.241 . S
O40 Co28 2.137 1_655 S
O40 C31 1.247 . S
O41 Co28 2.244 1_655 S
O41 C31 1.272 . S
O41 Co33 2.135 . S
Mg42 O49 2.141 . S
Mg42 O50 2.048 . S
Mg42 O51 2.048 . S
Mg42 O54 2.141 . S
C43 O44 1.313 1_455 S
C43 O50 1.195 . S
O44 C43 1.313 1_655 S
C45 O46 1.245 1_455 S
C45 O54 1.289 . S
O46 C45 1.245 1_655 S
C47 O48 1.245 1_455 S
C47 O49 1.289 . S
O48 C47 1.245 1_655 S
O49 Mg42 2.141 . S
O49 C47 1.289 . S
O50 Mg42 2.048 . S
O50 C43 1.195 . S
O51 Mg42 2.048 . S
O51 C52 1.195 . S
C52 O51 1.195 . S
C52 O53 1.313 1_455 S
O53 C52 1.313 1_655 S
O54 Mg42 2.141 . S
O54 C45 1.289 . S
Mg55 O62 2.141 . S
Mg55 O63 2.048 . S
Mg55 O64 2.048 . S
Mg55 O67 2.141 . S
C56 O57 1.313 1_545 S
C56 O63 1.195 . S
O57 C56 1.313 1_565 S
C58 O59 1.245 1_545 S
C58 O67 1.289 . S
O59 C58 1.245 1_565 S
C60 O61 1.245 1_545 S
C60 O62 1.289 . S
O61 C60 1.245 1_565 S
O62 Mg55 2.141 . S
O62 C60 1.289 . S
O63 Mg55 2.048 . S
O63 C56 1.195 . S
O64 Mg55 2.048 . S
O64 C65 1.195 . S
C65 O64 1.195 . S
C65 O66 1.313 1_545 S
O66 C65 1.313 1_565 S
O67 Mg55 2.141 . S
O67 C58 1.289 . S
Mg68 O75 2.141 . S
Mg68 O76 2.048 . S
Mg68 O77 2.048 . S
Mg68 O80 2.141 . S
C69 O70 1.313 . S
C69 O76 1.195 . S
O70 C69 1.313 . S
C71 O72 1.245 . S
C71 O80 1.289 . S
O72 C71 1.245 . S
C73 O74 1.245 . S
C73 O75 1.289 . S
O74 C73 1.245 . S
O75 Mg68 2.141 . S
O75 C73 1.289 . S
O76 Mg68 2.048 . S
O76 C69 1.195 . S
O77 Mg68 2.048 . S
O77 C78 1.195 . S
C78 O77 1.195 . S
C78 O79 1.313 . S
O79 C78 1.313 . S
O80 Mg68 2.141 . S
O80 C71 1.289 . S
H81 C87 0.930 . S
H82 C91 0.930 . S
H83 C96 0.929 . S
H84 C94 0.929 . S
H85 C89 0.929 . S
H86 C95 0.929 . S
C87 H81 0.930 . S
C87 C88 1.367 . S
C87 C95 1.378 . S
C88 C87 1.367 . S
C88 C96 1.433 . S
C89 H85 0.929 . S
C89 C91 1.378 . S
C89 C93 1.350 . S
C90 C93 1.463 . S
C90 C95 1.350 . S
C90 N98 1.427 . S
C91 H82 0.930 . S
C91 C89 1.378 . S
C91 C92 1.367 . S
C92 C91 1.367 . S
C92 C94 1.433 . S
C93 C89 1.350 . S
C93 C90 1.463 . S
C93 N97 1.427 . S
C94 H84 0.929 . S
C94 C92 1.433 . S
C94 N97 1.384 . S
C95 H86 0.929 . S
C95 C87 1.378 . S
C95 C90 1.350 . S
C96 H83 0.929 . S
C96 C88 1.433 . S
C96 N98 1.384 . S
N97 C93 1.427 . S
N97 C94 1.384 . S
N98 C90 1.427 . S
N98 C96 1.384 . S
H99 C105 0.930 . S
H100 C109 0.930 . S
H101 C114 0.929 . S
H102 C112 0.929 . S
H103 C107 0.929 . S
H104 C113 0.929 . S
C105 H99 0.930 . S
C105 C106 1.367 . S
C105 C113 1.378 . S
C106 C105 1.367 . S
C106 C114 1.433 . S
C107 H103 0.929 . S
C107 C109 1.378 . S
C107 C111 1.350 . S
C108 C111 1.463 . S
C108 C113 1.350 . S
C108 N116 1.427 . S
C109 H100 0.930 . S
C109 C107 1.378 . S
C109 C110 1.367 . S
C110 C109 1.367 . S
C110 C112 1.433 . S
C111 C107 1.350 . S
C111 C108 1.463 . S
C111 N115 1.427 . S
C112 H102 0.929 . S
C112 C110 1.433 . S
C112 N115 1.384 . S
C113 H104 0.929 . S
C113 C105 1.378 . S
C113 C108 1.350 . S
C114 H101 0.929 . S
C114 C106 1.433 . S
C114 N116 1.384 . S
N115 C111 1.427 . S
N115 C112 1.384 . S
N116 C108 1.427 . S
N116 C114 1.384 . S
H117 C123 0.930 . S
H118 C127 0.930 . S
H119 C132 0.929 . S
H120 C130 0.929 . S
H121 C125 0.929 . S
H122 C131 0.929 . S
C123 H117 0.930 . S
C123 C124 1.367 . S
C123 C131 1.378 . S
C124 C123 1.367 . S
C124 C132 1.433 . S
C125 H121 0.929 . S
C125 C127 1.378 . S
C125 C129 1.350 . S
C126 C129 1.463 . S
C126 C131 1.350 . S
C126 N134 1.427 . S
C127 H118 0.930 . S
C127 C125 1.378 . S
C127 C128 1.367 . S
C128 C127 1.367 . S
C128 C130 1.433 . S
C129 C125 1.350 . S
C129 C126 1.463 . S
C129 N133 1.427 . S
C130 H120 0.929 . S
C130 C128 1.433 . S
C130 N133 1.384 . S
C131 H122 0.929 . S
C131 C123 1.378 . S
C131 C126 1.350 . S
C132 H119 0.929 . S
C132 C124 1.433 . S
C132 N134 1.384 . S
N133 C129 1.427 . S
N133 C130 1.384 . S
N134 C126 1.427 . S
N134 C132 1.384 . S
H135 C141 0.930 . S
H136 C145 0.930 . S
H137 C150 0.929 . S
H138 C148 0.929 . S
H139 C143 0.929 . S
H140 C149 0.929 . S
C141 H135 0.930 . S
C141 C142 1.367 . S
C141 C149 1.378 . S
C142 C141 1.367 . S
C142 C150 1.433 . S
C143 H139 0.929 . S
C143 C145 1.378 . S
C143 C147 1.350 . S
C144 C147 1.463 . S
C144 C149 1.350 . S
C144 N152 1.427 . S
C145 H136 0.930 . S
C145 C143 1.378 . S
C145 C146 1.367 . S
C146 C145 1.367 . S
C146 C148 1.433 . S
C147 C143 1.350 . S
C147 C144 1.463 . S
C147 N151 1.427 . S
C148 H138 0.929 . S
C148 C146 1.433 . S
C148 N151 1.384 . S
C149 H140 0.929 . S
C149 C141 1.378 . S
C149 C144 1.350 . S
C150 H137 0.929 . S
C150 C142 1.433 . S
C150 N152 1.384 . S
N151 C147 1.427 . S
N151 C148 1.384 . S
N152 C144 1.427 . S
N152 C150 1.384 . S
H153 C159 0.930 . S
H154 C163 0.930 . S
H155 C168 0.929 1_565 S
H156 C166 0.929 . S
H157 C161 0.939 . S
H158 C167 0.929 . S
C159 H153 0.930 . S
C159 C160 1.367 . S
C159 C167 1.378 . S
C160 C159 1.367 . S
C160 C168 1.433 . S
C161 H157 0.939 . S
C161 C163 1.386 . S
C161 C165 1.331 1_565 S
C162 C165 1.463 . S
C162 C167 1.350 . S
C162 N170 1.427 . S
C163 H154 0.930 . S
C163 C161 1.386 . S
C163 C164 1.367 1_565 S
C164 C163 1.367 1_545 S
C164 C166 1.433 . S
C165 C161 1.331 1_545 S
C165 C162 1.463 . S
C165 N169 1.427 . S
C166 H156 0.929 . S
C166 C164 1.433 . S
C166 N169 1.384 . S
C167 H158 0.929 . S
C167 C159 1.378 . S
C167 C162 1.350 . S
C168 H155 0.929 1_545 S
C168 C160 1.433 . S
C168 N170 1.384 . S
N169 C165 1.427 . S
N169 C166 1.384 . S
N170 C162 1.427 . S
N170 C168 1.384 . S
H171 C177 0.930 . S
H172 C181 0.930 . S
H173 C186 0.929 . S
H174 C184 0.929 . S
H175 C179 0.929 . S
H176 C185 0.929 . S
C177 H171 0.930 . S
C177 C178 1.367 . S
C177 C185 1.378 . S
C178 C177 1.367 . S
C178 C186 1.433 . S
C179 H175 0.929 . S
C179 C181 1.378 . S
C179 C183 1.350 . S
C180 C183 1.463 . S
C180 C185 1.350 . S
C180 N188 1.427 . S
C181 H172 0.930 . S
C181 C179 1.378 . S
C181 C182 1.367 . S
C182 C181 1.367 . S
C182 C184 1.433 . S
C183 C179 1.350 . S
C183 C180 1.463 . S
C183 N187 1.427 . S
C184 H174 0.929 . S
C184 C182 1.433 . S
C184 N187 1.384 . S
C185 H176 0.929 . S
C185 C177 1.378 . S
C185 C180 1.350 . S
C186 H173 0.929 . S
C186 C178 1.433 . S
C186 N188 1.384 . S
N187 C183 1.427 . S
N187 C184 1.384 . S
N188 C180 1.427 . S
N188 C186 1.384 . S
H189 C195 0.930 . S
H190 C199 0.930 . S
H191 C204 0.929 . S
H192 C202 0.929 . S
H193 C197 0.929 . S
H194 C203 0.929 . S
C195 H189 0.930 . S
C195 C196 1.367 1_565 S
C195 C203 1.378 . S
C196 C195 1.367 1_545 S
C196 C204 1.433 . S
C197 H193 0.929 . S
C197 C199 1.378 . S
C197 C201 1.350 . S
C198 C201 1.463 . S
C198 C203 1.350 1_545 S
C198 N206 1.427 . S
C199 H190 0.930 . S
C199 C197 1.378 . S
C199 C200 1.367 . S
C200 C199 1.367 . S
C200 C202 1.433 1_545 S
C201 C197 1.350 . S
C201 C198 1.463 . S
C201 N205 1.427 1_545 S
C202 H192 0.929 . S
C202 C200 1.433 1_565 S
C202 N205 1.384 . S
C203 H194 0.929 . S
C203 C195 1.378 . S
C203 C198 1.350 1_565 S
C204 H191 0.929 . S
C204 C196 1.433 . S
C204 N206 1.384 . S
N205 C201 1.427 1_565 S
N205 C202 1.384 . S
N206 C198 1.427 . S
N206 C204 1.384 . S
H207 C213 0.930 . S
H208 C217 0.930 . S
H209 C222 0.929 . S
H210 C220 0.929 . S
H211 C215 0.929 . S
H212 C221 0.929 . S
C213 H207 0.930 . S
C213 C214 1.367 . S
C213 C221 1.378 . S
C214 C213 1.367 . S
C214 C222 1.433 . S
C215 H211 0.929 . S
C215 C217 1.378 . S
C215 C219 1.350 . S
C216 C219 1.463 1_554 S
C216 C221 1.350 . S
C216 N224 1.427 . S
C217 H208 0.930 . S
C217 C215 1.378 . S
C217 C218 1.367 . S
C218 C217 1.367 . S
C218 C220 1.433 . S
C219 C215 1.350 . S
C219 C216 1.463 1_556 S
C219 N223 1.425 1_556 S
C220 H210 0.929 . S
C220 C218 1.433 . S
C220 N223 1.378 1_556 S
C221 H212 0.929 . S
C221 C213 1.378 . S
C221 C216 1.350 . S
C222 H209 0.929 . S
C222 C214 1.433 . S
C222 N224 1.384 . S
N223 C219 1.425 1_554 S
N223 C220 1.378 1_554 S
N224 C216 1.427 . S
N224 C222 1.384 . S
H225 C231 0.930 . S
H226 C235 0.930 . S
H227 C240 0.929 . S
H228 C238 0.929 . S
H229 C233 0.929 . S
H230 C239 0.929 . S
C231 H225 0.930 . S
C231 C232 1.367 1_655 S
C231 C239 1.378 . S
C232 C231 1.367 1_455 S
C232 C240 1.433 . S
C233 H229 0.929 . S
C233 C235 1.378 . S
C233 C237 1.350 . S
C234 C237 1.463 . S
C234 C239 1.350 1_455 S
C234 N242 1.427 . S
C235 H226 0.930 . S
C235 C233 1.378 . S
C235 C236 1.367 . S
C236 C235 1.367 . S
C236 C238 1.433 1_455 S
C237 C233 1.350 . S
C237 C234 1.463 . S
C237 N241 1.427 1_455 S
C238 H228 0.929 . S
C238 C236 1.433 1_655 S
C238 N241 1.384 . S
C239 H230 0.929 . S
C239 C231 1.378 . S
C239 C234 1.350 1_655 S
C240 H227 0.929 . S
C240 C232 1.433 . S
C240 N242 1.384 . S
N241 C237 1.427 1_655 S
N241 C238 1.384 . S
N242 C234 1.427 . S
N242 C240 1.384 . S
H243 C249 0.930 . S
H244 C253 0.930 . S
H245 C258 0.929 . S
H246 C256 0.929 . S
H247 C251 0.929 . S
H248 C257 0.929 . S
C249 H243 0.930 . S
C249 C250 1.367 1_565 S
C249 C257 1.378 . S
C250 C249 1.367 1_545 S
C250 C258 1.433 . S
C251 H247 0.929 . S
C251 C253 1.378 . S
C251 C255 1.350 . S
C252 C255 1.463 . S
C252 C257 1.350 1_545 S
C252 N260 1.427 . S
C253 H244 0.930 . S
C253 C251 1.378 . S
C253 C254 1.367 . S
C254 C253 1.367 . S
C254 C256 1.433 1_545 S
C255 C251 1.350 . S
C255 C252 1.463 . S
C255 N259 1.427 1_545 S
C256 H246 0.929 . S
C256 C254 1.433 1_565 S
C256 N259 1.384 . S
C257 H248 0.929 . S
C257 C249 1.378 . S
C257 C252 1.350 1_565 S
C258 H245 0.929 . S
C258 C250 1.433 . S
C258 N260 1.384 . S
N259 C255 1.427 1_565 S
N259 C256 1.384 . S
N260 C252 1.427 . S
N260 C258 1.384 . S
H261 C267 0.930 . S
H262 C271 0.930 . S
H263 C276 0.929 . S
H264 C274 0.929 . S
H265 C269 0.929 . S
H266 C275 0.929 . S
C267 H261 0.930 . S
C267 C268 1.367 . S
C267 C275 1.378 . S
C268 C267 1.367 . S
C268 C276 1.433 . S
C269 H265 0.929 . S
C269 C271 1.378 . S
C269 C273 1.350 . S
C270 C273 1.463 1_554 S
C270 C275 1.350 . S
C270 N278 1.427 . S
C271 H262 0.930 . S
C271 C269 1.378 . S
C271 C272 1.367 . S
C272 C271 1.367 . S
C272 C274 1.433 . S
C273 C269 1.350 . S
C273 C270 1.463 1_556 S
C273 N277 1.427 . S
C274 H264 0.929 . S
C274 C272 1.433 . S
C274 N277 1.384 . S
C275 H266 0.929 . S
C275 C267 1.378 . S
C275 C270 1.350 . S
C276 H263 0.929 . S
C276 C268 1.433 . S
C276 N278 1.384 . S
N277 C273 1.427 . S
N277 C274 1.384 . S
N278 C270 1.427 . S
N278 C276 1.384 . S
H279 C285 0.930 . S
H280 C289 0.930 . S
H281 C294 0.929 . S
H282 C292 0.929 . S
H283 C287 0.929 . S
H284 C293 0.929 . S
C285 H279 0.930 . S
C285 C286 1.367 . S
C285 C293 1.378 . S
C286 C285 1.367 . S
C286 C294 1.433 . S
C287 H283 0.929 . S
C287 C289 1.378 . S
C287 C291 1.350 . S
C288 C291 1.463 . S
C288 C293 1.350 . S
C288 N296 1.427 . S
C289 H280 0.930 . S
C289 C287 1.378 . S
C289 C290 1.367 . S
C290 C289 1.367 . S
C290 C292 1.433 . S
C291 C287 1.350 . S
C291 C288 1.463 . S
C291 N295 1.427 . S
C292 H282 0.929 . S
C292 C290 1.433 . S
C292 N295 1.384 . S
C293 H284 0.929 . S
C293 C285 1.378 . S
C293 C288 1.350 . S
C294 H281 0.929 . S
C294 C286 1.433 . S
C294 N296 1.384 . S
N295 C291 1.427 . S
N295 C292 1.384 . S
N296 C288 1.427 . S
N296 C294 1.384 . S
C92 C47 1.420 . S
C88 C3 1.425 . S
C106 C21 1.496 . S
C110 C65 1.522 . S
C124 C37 1.477 . S
C128 C78 1.491 . S
C142 C8 1.429 . S
C146 C45 1.422 . S
C164 C56 1.487 . S
C160 C23 1.475 . S
C178 C35 1.477 . S
C182 C69 1.496 . S
C200 C58 1.425 . S
C196 C31 1.422 . S
C214 C7 1.409 . S
C218 C71 1.420 . S
C236 C52 1.491 . S
C232 C17 1.491 . S
C254 C60 1.386 . S
C250 C36 1.390 . S
C272 C73 1.428 . S
C268 C9 1.422 . S
C286 C22 1.492 . S
C290 C43 1.489 . S
