# Generated by pormake.
# Topology ocu, (6,8)-cn, num edge types: 1
# Building blocks:
#     Node 0, Type 0, BuildingBlock: KUMBOL_clean_sbu_0, # of connection points: 6
#     Node 1, Type 0, BuildingBlock: KUMBOL_clean_sbu_0, # of connection points: 6
#     Node 2, Type 0, BuildingBlock: KUMBOL_clean_sbu_0, # of connection points: 6
#     Node 3, Type 0, BuildingBlock: KUMBOL_clean_sbu_0, # of connection points: 6
#     Node 4, Type 0, BuildingBlock: KUMBOL_clean_sbu_0, # of connection points: 6
#     Node 5, Type 0, BuildingBlock: KUMBOL_clean_sbu_0, # of connection points: 6
#     Node 6, Type 0, BuildingBlock: KUMBOL_clean_sbu_0, # of connection points: 6
#     Node 7, Type 0, BuildingBlock: KUMBOL_clean_sbu_0, # of connection points: 6
#     Node 8, Type 1, BuildingBlock: GIZVER_clean_sbu_0, # of connection points: 8
#     Node 9, Type 1, BuildingBlock: GIZVER_clean_sbu_0, # of connection points: 8
#     Node 10, Type 1, BuildingBlock: GIZVER_clean_sbu_0, # of connection points: 8
#     Node 11, Type 1, BuildingBlock: GIZVER_clean_sbu_0, # of connection points: 8
#     Node 12, Type 1, BuildingBlock: GIZVER_clean_sbu_0, # of connection points: 8
#     Node 13, Type 1, BuildingBlock: GIZVER_clean_sbu_0, # of connection points: 8
#     Edge 14, Type (0, 1), BuildingBlock: AJUNOK_clean_linker_0, # of connection points: 2
#     Edge 15, Type (0, 1), BuildingBlock: AJUNOK_clean_linker_0, # of connection points: 2
#     Edge 16, Type (0, 1), BuildingBlock: AJUNOK_clean_linker_0, # of connection points: 2
#     Edge 17, Type (0, 1), BuildingBlock: AJUNOK_clean_linker_0, # of connection points: 2
#     Edge 18, Type (0, 1), BuildingBlock: AJUNOK_clean_linker_0, # of connection points: 2
#     Edge 19, Type (0, 1), BuildingBlock: AJUNOK_clean_linker_0, # of connection points: 2
#     Edge 20, Type (0, 1), BuildingBlock: AJUNOK_clean_linker_0, # of connection points: 2
#     Edge 21, Type (0, 1), BuildingBlock: AJUNOK_clean_linker_0, # of connection points: 2
#     Edge 22, Type (0, 1), BuildingBlock: AJUNOK_clean_linker_0, # of connection points: 2
#     Edge 23, Type (0, 1), BuildingBlock: AJUNOK_clean_linker_0, # of connection points: 2
#     Edge 24, Type (0, 1), BuildingBlock: AJUNOK_clean_linker_0, # of connection points: 2
#     Edge 25, Type (0, 1), BuildingBlock: AJUNOK_clean_linker_0, # of connection points: 2
#     Edge 26, Type (0, 1), BuildingBlock: AJUNOK_clean_linker_0, # of connection points: 2
#     Edge 27, Type (0, 1), BuildingBlock: AJUNOK_clean_linker_0, # of connection points: 2
#     Edge 28, Type (0, 1), BuildingBlock: AJUNOK_clean_linker_0, # of connection points: 2
#     Edge 29, Type (0, 1), BuildingBlock: AJUNOK_clean_linker_0, # of connection points: 2
#     Edge 30, Type (0, 1), BuildingBlock: AJUNOK_clean_linker_0, # of connection points: 2
#     Edge 31, Type (0, 1), BuildingBlock: AJUNOK_clean_linker_0, # of connection points: 2
#     Edge 32, Type (0, 1), BuildingBlock: AJUNOK_clean_linker_0, # of connection points: 2
#     Edge 33, Type (0, 1), BuildingBlock: AJUNOK_clean_linker_0, # of connection points: 2
#     Edge 34, Type (0, 1), BuildingBlock: AJUNOK_clean_linker_0, # of connection points: 2
#     Edge 35, Type (0, 1), BuildingBlock: AJUNOK_clean_linker_0, # of connection points: 2
#     Edge 36, Type (0, 1), BuildingBlock: AJUNOK_clean_linker_0, # of connection points: 2
#     Edge 37, Type (0, 1), BuildingBlock: AJUNOK_clean_linker_0, # of connection points: 2
#     Edge 38, Type (0, 1), BuildingBlock: AJUNOK_clean_linker_0, # of connection points: 2
#     Edge 39, Type (0, 1), BuildingBlock: AJUNOK_clean_linker_0, # of connection points: 2
#     Edge 40, Type (0, 1), BuildingBlock: AJUNOK_clean_linker_0, # of connection points: 2
#     Edge 41, Type (0, 1), BuildingBlock: AJUNOK_clean_linker_0, # of connection points: 2
#     Edge 42, Type (0, 1), BuildingBlock: AJUNOK_clean_linker_0, # of connection points: 2
#     Edge 43, Type (0, 1), BuildingBlock: AJUNOK_clean_linker_0, # of connection points: 2
#     Edge 44, Type (0, 1), BuildingBlock: AJUNOK_clean_linker_0, # of connection points: 2
#     Edge 45, Type (0, 1), BuildingBlock: AJUNOK_clean_linker_0, # of connection points: 2
#     Edge 46, Type (0, 1), BuildingBlock: AJUNOK_clean_linker_0, # of connection points: 2
#     Edge 47, Type (0, 1), BuildingBlock: AJUNOK_clean_linker_0, # of connection points: 2
#     Edge 48, Type (0, 1), BuildingBlock: AJUNOK_clean_linker_0, # of connection points: 2
#     Edge 49, Type (0, 1), BuildingBlock: AJUNOK_clean_linker_0, # of connection points: 2
#     Edge 50, Type (0, 1), BuildingBlock: AJUNOK_clean_linker_0, # of connection points: 2
#     Edge 51, Type (0, 1), BuildingBlock: AJUNOK_clean_linker_0, # of connection points: 2
#     Edge 52, Type (0, 1), BuildingBlock: AJUNOK_clean_linker_0, # of connection points: 2
#     Edge 53, Type (0, 1), BuildingBlock: AJUNOK_clean_linker_0, # of connection points: 2
#     Edge 54, Type (0, 1), BuildingBlock: AJUNOK_clean_linker_0, # of connection points: 2
#     Edge 55, Type (0, 1), BuildingBlock: AJUNOK_clean_linker_0, # of connection points: 2
#     Edge 56, Type (0, 1), BuildingBlock: AJUNOK_clean_linker_0, # of connection points: 2
#     Edge 57, Type (0, 1), BuildingBlock: AJUNOK_clean_linker_0, # of connection points: 2
#     Edge 58, Type (0, 1), BuildingBlock: AJUNOK_clean_linker_0, # of connection points: 2
#     Edge 59, Type (0, 1), BuildingBlock: AJUNOK_clean_linker_0, # of connection points: 2
#     Edge 60, Type (0, 1), BuildingBlock: AJUNOK_clean_linker_0, # of connection points: 2
#     Edge 61, Type (0, 1), BuildingBlock: AJUNOK_clean_linker_0, # of connection points: 2
# Relax obj value: 0.215
# Max RMSD: 0.297
# Mean RMSD: 0.218
data_MOF--net-ocu--node1-KUMBOL_clean_sbu_0--node2-GIZVER_clean_sbu_0--edge1-AJUNOK_clean_linker_0
_symmetry_space_group_name_H-M    P1
_symmetry_Int_Tables_number       1
_symmetry_cell_setting            triclinic
loop_
_symmetry_equiv_pos_as_xyz
'x, y, z'
_cell_length_a     34.019988
_cell_length_b     33.92109
_cell_length_c     26.793878
_cell_angle_alpha  81.96634
_cell_angle_beta   96.775193
_cell_angle_gamma 117.23254
loop_
_atom_site_label
_atom_site_type_symbol
_atom_site_fract_x
_atom_site_fract_y
_atom_site_fract_z
_atom_type_partial_charge
Gd0 Gd 0.32554 0.34037 0.32004 0.0
Gd1 Gd 0.28409 0.26163 0.23828 0.0
C2 C 0.29833 0.32232 0.0743 0.0
C3 C 0.23271 0.3343 0.05741 0.0
C4 C 0.24703 0.30165 0.1399 0.0
C5 C 0.28568 0.30449 0.12393 0.0
C6 C 0.21874 0.31377 0.10557 0.0
C7 C 0.27291 0.33942 0.04218 0.0
C8 C 0.33464 0.32014 0.05747 0.0
C9 C 0.35526 0.29754 0.08853 0.0
N10 N 0.30817 0.28548 0.15502 0.0
C11 C 0.34053 0.27893 0.13677 0.0
H12 H 0.3563 0.26103 0.16055 0.0
C13 C 0.19247 0.26928 0.20007 0.0
N14 N 0.23466 0.28246 0.18708 0.0
C15 C 0.16294 0.27988 0.16694 0.0
C16 C 0.17644 0.30304 0.11984 0.0
H17 H 0.18178 0.2512 0.23633 0.0
H18 H 0.2829 0.35447 1.00458 0.0
H19 H 0.29312 0.25318 0.41095 0.0
H20 H 0.34556 0.33379 0.01975 0.0
H21 H 0.38236 0.29428 0.07527 0.0
H22 H 0.21182 0.34476 0.03116 0.0
H23 H 0.41234 0.43643 0.27355 0.0
H24 H 0.40873 0.25232 0.49012 0.0
H25 H 0.32738 0.22001 0.47777 0.0
H26 H 0.52776 0.37919 0.41294 0.0
H27 H 0.12994 0.27044 0.17788 0.0
H28 H 0.15364 0.31149 0.09434 0.0
H29 H 0.48301 0.31148 0.46575 0.0
H30 H 0.49336 0.47227 0.28317 0.0
N31 N 0.35437 0.30367 0.38353 0.0
C32 C 0.39389 0.26728 0.46058 0.0
C33 C 0.34796 0.24885 0.45354 0.0
C34 C 0.42018 0.305 0.42973 0.0
C35 C 0.39934 0.32284 0.39082 0.0
C36 C 0.32862 0.26786 0.41516 0.0
N37 N 0.40417 0.37892 0.32439 0.0
C38 C 0.42481 0.36093 0.36013 0.0
C39 C 0.4746 0.44075 0.30465 0.0
C40 C 0.49627 0.42154 0.3392 0.0
C41 C 0.42845 0.41962 0.29865 0.0
C42 C 0.47147 0.38192 0.36838 0.0
H43 H 0.53207 0.43836 0.3443 0.0
O44 O 0.35486 0.40696 0.34347 0.0
O45 O 0.27309 0.32312 0.25235 0.0
O46 O 0.35622 0.30923 0.22509 0.0
O47 O 0.35246 0.37039 0.24397 0.0
O48 O 0.28436 0.37752 0.28592 0.0
O49 O 0.30573 0.3514 0.38859 0.0
O50 O 0.23564 0.1932 0.25796 0.0
O51 O 0.33499 0.27709 0.30733 0.0
O52 O 0.261 0.29158 0.35197 0.0
O53 O 0.23536 0.23586 0.299 0.0
O54 O 0.3259 0.22453 0.27097 0.0
O55 O 0.25891 0.21425 0.1825 0.0
C56 C 0.25938 0.35504 0.24963 0.0
C57 C 0.49203 0.36365 0.40645 0.0
C58 C 0.4665 0.32524 0.43684 0.0
C59 C 0.33232 0.39398 0.38347 0.0
C60 C 0.35345 0.41575 0.429 0.0
C61 C 0.39374 0.41866 0.45219 0.0
C62 C 0.33028 0.43299 0.45043 0.0
C63 C 0.34486 0.45067 0.49676 0.0
C64 C 0.40994 0.43865 0.49755 0.0
C65 C 0.38542 0.45449 0.52013 0.0
C66 C 0.37071 0.35259 0.21999 0.0
C67 C 0.34811 0.24463 0.31027 0.0
C68 C 0.23494 0.18106 0.21375 0.0
C69 C 0.23766 0.13934 0.21277 0.0
C70 C 0.20126 0.09865 0.22551 0.0
C71 C 0.2751 0.13973 0.19555 0.0
C72 C 0.2764 0.09978 0.19045 0.0
C73 C 0.20245 0.05874 0.22105 0.0
C74 C 0.24003 0.05907 0.2044 0.0
C75 C 0.23162 0.25258 0.33845 0.0
H76 H 0.41224 0.40548 0.43571 0.0
H77 H 0.29923 0.4308 0.4319 0.0
H78 H 0.44096 0.44095 0.51575 0.0
H79 H 0.39734 0.46839 0.556 0.0
H80 H 0.17166 0.09778 0.23793 0.0
H81 H 0.30258 0.17127 0.18396 0.0
H82 H 0.17373 0.02758 0.22947 0.0
H83 H 0.24028 0.02763 0.20167 0.0
Gd84 Gd 0.77229 0.31939 0.30216 0.0
Gd85 Gd 0.83407 0.2648 0.26561 0.0
C86 C 0.97561 0.33209 0.21417 0.0
C87 C 0.96547 0.35387 0.12535 0.0
C88 C 0.90153 0.31494 0.17699 0.0
C89 C 0.92944 0.31375 0.21877 0.0
C90 C 0.91959 0.33509 0.12974 0.0
C91 C 0.99341 0.35243 0.16743 0.0
C92 C 1.00263 0.32898 0.25658 0.0
C93 C 0.98356 0.30711 0.30193 0.0
N94 N 0.91161 0.29428 0.26377 0.0
C95 C 0.93778 0.28934 0.30471 0.0
H96 H 0.92319 0.27165 0.33978 0.0
C97 C 0.82941 0.29809 0.14121 0.0
N98 N 0.85712 0.29701 0.18245 0.0
C99 C 0.8459 0.31735 0.09388 0.0
C100 C 0.89111 0.336 0.0881 0.0
H101 H 0.79449 0.28554 0.14346 0.0
H102 H 1.02876 0.36686 0.16334 0.0
H103 H 0.71419 0.3519 0.20817 0.0
H104 H 1.03812 0.3426 0.25444 0.0
H105 H 1.00404 0.30367 0.3347 0.0
H106 H 0.9797 0.36944 0.08948 0.0
H107 H 0.7712 0.27524 0.42552 0.0
H108 H 0.57734 0.28245 0.23894 0.0
H109 H 0.63679 0.337 0.18527 0.0
H110 H 0.57704 0.20033 0.399 0.0
H111 H 0.82358 0.31812 0.06183 0.0
H112 H 0.90364 0.35107 0.05136 0.0
H113 H 0.55531 0.22999 0.31729 0.0
H114 H 0.71667 0.22758 0.48636 0.0
N115 N 0.69954 0.30849 0.27621 0.0
C116 C 0.61149 0.28972 0.24993 0.0
C117 C 0.64495 0.32069 0.21968 0.0
C118 C 0.62253 0.26929 0.29463 0.0
C119 C 0.66754 0.28002 0.30748 0.0
C120 C 0.68898 0.32987 0.23346 0.0
N121 N 0.7236 0.27536 0.36608 0.0
C122 C 0.67987 0.26306 0.35358 0.0
C123 C 0.7058 0.23712 0.44907 0.0
C124 C 0.66078 0.22149 0.43549 0.0
C125 C 0.73687 0.26472 0.41411 0.0
C126 C 0.64729 0.2351 0.3877 0.0
H127 H 0.63677 0.19993 0.46261 0.0
O128 O 0.82391 0.3828 0.32471 0.0
O129 O 0.82759 0.32609 0.26216 0.0
O130 O 0.87589 0.31086 0.32829 0.0
O131 O 0.82251 0.3197 0.36554 0.0
O132 O 0.79616 0.36244 0.22773 0.0
O133 O 0.75596 0.36598 0.33264 0.0
O134 O 0.79157 0.19496 0.25373 0.0
O135 O 0.77792 0.25589 0.30798 0.0
O136 O 0.73122 0.28069 0.23603 0.0
O137 O 0.76862 0.24196 0.21648 0.0
O138 O 0.82327 0.23574 0.34609 0.0
O139 O 0.86215 0.21893 0.26449 0.0
C140 C 0.82941 0.35414 0.22567 0.0
C141 C 0.60239 0.22243 0.37366 0.0
C142 C 0.59004 0.23941 0.32722 0.0
C143 C 0.79667 0.39713 0.33455 0.0
C144 C 0.80421 0.44037 0.30774 0.0
C145 C 0.83217 0.48083 0.32765 0.0
C146 C 0.78403 0.44068 0.25969 0.0
C147 C 0.78847 0.48003 0.23172 0.0
C148 C 0.83847 0.52107 0.2992 0.0
C149 C 0.81634 0.5208 0.25147 0.0
C150 C 0.86376 0.32575 0.36441 0.0
C151 C 0.78487 0.2344 0.34754 0.0
C152 C 0.82379 0.18409 0.26456 0.0
C153 C 0.81749 0.14925 0.30686 0.0
C154 C 0.78531 0.10527 0.30284 0.0
C155 C 0.84282 0.16057 0.35259 0.0
C156 C 0.83756 0.12876 0.39413 0.0
C157 C 0.7794 0.07304 0.34379 0.0
C158 C 0.8056 0.08442 0.38884 0.0
C159 C 0.73432 0.25158 0.21037 0.0
H160 H 0.84895 0.48128 0.36468 0.0
H161 H 0.76314 0.4096 0.24451 0.0
H162 H 0.85981 0.55242 0.31449 0.0
H163 H 0.81978 0.552 0.2311 0.0
H164 H 0.76499 0.09589 0.26812 0.0
H165 H 0.86701 0.19469 0.35567 0.0
H166 H 0.75497 0.03889 0.3403 0.0
H167 H 0.80169 0.05797 0.41845 0.0
Gd168 Gd 0.78852 0.75426 0.33951 0.0
Gd169 Gd 0.8415 0.85081 0.26001 0.0
C170 C 0.97386 0.88973 0.1944 0.0
C171 C 1.02356 0.95544 0.23649 0.0
C172 C 0.94584 0.91552 0.25547 0.0
C173 C 0.93888 0.88453 0.2225 0.0
C174 C 0.98822 0.95155 0.26241 0.0
C175 C 1.01638 0.92468 0.20246 0.0
C176 C 0.96455 0.86127 0.15693 0.0
C177 C 0.92093 0.83016 0.14655 0.0
N178 N 0.89702 0.85202 0.21412 0.0
C179 C 0.88736 0.82637 0.17519 0.0
H180 H 0.85377 0.8028 0.16579 0.0
C181 C 0.91497 0.94524 0.30549 0.0
N182 N 0.91045 0.91213 0.27802 0.0
C183 C 0.95659 0.98064 0.31489 0.0
C184 C 0.99349 0.98354 0.29376 0.0
H185 H 0.88658 0.94431 0.32059 0.0
H186 H 1.0437 0.92887 0.18163 0.0
H187 H 0.76972 0.8001 0.43067 0.0
H188 H 0.99042 0.86425 0.13444 0.0
H189 H 0.91305 0.80895 0.11657 0.0
H190 H 0.05637 0.98273 0.2416 0.0
H191 H 0.74588 0.66525 0.26945 0.0
H192 H 0.62978 0.74411 0.44353 0.0
H193 H 0.70612 0.79678 0.47017 0.0
H194 H 0.57077 0.62926 0.33116 0.0
H195 H 0.96004 1.00601 0.33785 0.0
H196 H 1.02559 1.01141 0.30045 0.0
H197 H 0.57951 0.68168 0.39133 0.0
H198 H 0.67334 0.60603 0.24542 0.0
N199 N 0.72971 0.75178 0.38014 0.0
C200 C 0.65755 0.74571 0.42576 0.0
C201 C 0.70057 0.77544 0.44095 0.0
C202 C 0.65097 0.71719 0.38921 0.0
C203 C 0.68828 0.72068 0.36723 0.0
C204 C 0.7365 0.77758 0.41812 0.0
N205 N 0.72042 0.69423 0.31479 0.0
C206 C 0.68342 0.69061 0.33407 0.0
C207 C 0.67572 0.62962 0.27038 0.0
C208 C 0.6375 0.62664 0.28832 0.0
C209 C 0.71708 0.66339 0.28442 0.0
C210 C 0.64104 0.65705 0.32095 0.0
H211 H 0.60551 0.6005 0.27718 0.0
O212 O 0.83135 0.72827 0.38295 0.0
O213 O 0.83689 0.78045 0.27494 0.0
O214 O 0.79483 0.79203 0.21514 0.0
O215 O 0.74276 0.75537 0.27304 0.0
O216 O 0.81647 0.71636 0.29852 0.0
O217 O 0.7688 0.71385 0.41076 0.0
O218 O 0.86083 0.89921 0.19435 0.0
O219 O 0.79494 0.82527 0.32603 0.0
O220 O 0.8356 0.81088 0.38615 0.0
O221 O 0.88747 0.85632 0.32942 0.0
O222 O 0.81246 0.88848 0.30044 0.0
O223 O 0.79206 0.86398 0.21183 0.0
C224 C 0.84304 0.74603 0.26639 0.0
C225 C 0.60362 0.65463 0.3411 0.0
C226 C 0.60859 0.68459 0.37521 0.0
C227 C 0.80051 0.70239 0.41345 0.0
C228 C 0.78661 0.6544 0.41425 0.0
C229 C 0.74204 0.62439 0.40345 0.0
C230 C 0.81888 0.63925 0.4195 0.0
C231 C 0.8076 0.59538 0.41091 0.0
C232 C 0.73056 0.58064 0.39533 0.0
C233 C 0.7632 0.56626 0.39834 0.0
C234 C 0.75385 0.76426 0.22625 0.0
C235 C 0.78741 0.85896 0.33393 0.0
C236 C 0.82177 0.89742 0.18561 0.0
C237 C 0.81963 0.93964 0.18429 0.0
C238 C 0.85374 0.97593 0.20723 0.0
C239 C 0.77998 0.94102 0.16705 0.0
C240 C 0.77224 0.97625 0.17689 0.0
C241 C 0.84646 1.01119 0.21711 0.0
C242 C 0.80544 1.01071 0.20362 0.0
C243 C 0.87545 0.84263 0.37602 0.0
H244 H 0.7161 0.63482 0.39994 0.0
H245 H 0.85282 0.66192 0.43005 0.0
H246 H 0.69636 0.558 0.38612 0.0
H247 H 0.75369 0.53227 0.39138 0.0
H248 H 0.88535 0.97637 0.21925 0.0
H249 H 0.75454 0.91355 0.14775 0.0
H250 H 0.87214 0.0382 0.2367 0.0
H251 H 0.79975 0.03701 0.21485 0.0
Gd252 Gd 0.25901 0.82979 0.30092 0.0
Gd253 Gd 0.31196 0.75757 0.31164 0.0
C254 C 0.25096 0.6091 0.36496 0.0
C255 C 0.25952 0.60906 0.45607 0.0
C256 C 0.28218 0.67925 0.40242 0.0
C257 C 0.26852 0.65608 0.35982 0.0
C258 C 0.27751 0.65568 0.45103 0.0
C259 C 0.2461 0.58582 0.41319 0.0
C260 C 0.24065 0.58692 0.32146 0.0
C261 C 0.25041 0.61161 0.27459 0.0
N262 N 0.2744 0.67935 0.31347 0.0
C263 C 0.2688 0.658 0.27166 0.0
H264 H 0.28094 0.67706 0.23646 0.0
C265 C 0.31284 0.74774 0.43831 0.0
N266 N 0.29991 0.72456 0.39649 0.0
C267 C 0.30876 0.72574 0.48697 0.0
C268 C 0.29116 0.67955 0.49341 0.0
H269 H 0.32557 0.78312 0.43553 0.0
H270 H 0.23282 0.54986 0.41772 0.0
H271 H 0.2529 0.87245 0.40319 0.0
H272 H 0.22728 0.55099 0.32388 0.0
H273 H 0.24539 0.5951 0.24097 0.0
H274 H 0.25616 0.59068 0.49305 0.0
H275 H 0.26028 0.85454 0.17162 0.0
H276 H 0.32738 1.0146 0.38309 0.0
H277 H 0.28187 0.94658 0.43534 0.0
H278 H 0.36299 0.04265 0.21036 0.0
H279 H 0.3189 0.74454 0.51958 0.0
H280 H 0.28789 0.66263 0.53123 0.0
H281 H 0.35887 0.05035 0.29923 0.0
H282 H 0.29396 0.91904 0.11089 0.0
N283 N 0.28315 0.89913 0.33333 0.0
C284 C 0.31491 0.98248 0.36858 0.0
C285 C 0.28894 0.94395 0.39825 0.0
C286 C 0.32255 0.97926 0.31962 0.0
C287 C 0.30535 0.93656 0.30258 0.0
C288 C 0.27265 0.9023 0.37983 0.0
N289 N 0.28667 0.89075 0.23703 0.0
C290 C 0.30727 0.93224 0.25277 0.0
C291 C 0.29847 0.92324 0.1508 0.0
C292 C 0.32346 0.96541 0.16715 0.0
C293 C 0.27961 0.8863 0.18618 0.0
C294 C 0.32677 0.9706 0.21844 0.0
H295 H 0.33853 0.99386 0.13978 0.0
O296 O 0.20186 0.81452 0.24938 0.0
O297 O 0.2504 0.76018 0.32798 0.0
O298 O 0.2549 0.73164 0.25281 0.0
O299 O 0.24492 0.79513 0.2308 0.0
O300 O 0.23014 0.78927 0.37489 0.0
O301 O 0.2007 0.83254 0.32284 0.0
O302 O 0.36989 0.75289 0.34964 0.0
O303 O 0.31909 0.82553 0.28186 0.0
O304 O 0.31713 0.85923 0.3565 0.0
O305 O 0.35467 0.81626 0.35639 0.0
O306 O 0.33932 0.79558 0.23601 0.0
O307 O 0.35324 0.74252 0.27002 0.0
C308 C 0.23208 0.75309 0.36927 0.0
C309 C 0.34712 1.01299 0.236 0.0
C310 C 0.34485 1.01735 0.28657 0.0
C311 C 0.182 0.82715 0.2773 0.0
C312 C 0.16904 0.8615 0.253 0.0
C313 C 0.16981 0.87313 0.20036 0.0
C314 C 0.15759 0.88451 0.28315 0.0
C315 C 0.14758 0.91897 0.26167 0.0
C316 C 0.15958 0.9076 0.17885 0.0
C317 C 0.14833 0.93056 0.20945 0.0
C318 C 0.23863 0.75543 0.22205 0.0
C319 C 0.3364 0.83166 0.24003 0.0
C320 C 0.37549 0.73661 0.31114 0.0
C321 C 0.3755 0.69261 0.32061 0.0
C322 C 0.37604 0.67164 0.36962 0.0
C323 C 0.37359 0.6706 0.27933 0.0
C324 C 0.3766 0.63024 0.28592 0.0
C325 C 0.37577 0.62989 0.37665 0.0
C326 C 0.37701 0.60963 0.33522 0.0
C327 C 0.35067 0.84992 0.37103 0.0
H328 H 0.17857 0.85597 0.17584 0.0
H329 H 0.15646 0.87576 0.3237 0.0
H330 H 0.16026 0.91641 0.13844 0.0
H331 H 0.13973 0.9567 0.19247 0.0
H332 H 0.37652 0.68728 0.40241 0.0
H333 H 0.37168 0.68611 0.24151 0.0
H334 H 0.37632 0.61397 0.41449 0.0
H335 H 0.38064 0.57925 0.34224 0.0
Gd336 Gd 0.27532 0.81783 0.76166 0.0
Gd337 Gd 0.33207 0.75898 0.81881 0.0
C338 C 0.48262 0.83713 0.83611 0.0
C339 C 0.5044 0.83886 0.75248 0.0
C340 C 0.42699 0.79689 0.77252 0.0
C341 C 0.43797 0.81067 0.82057 0.0
C342 C 0.4606 0.80906 0.73887 0.0
C343 C 0.5154 0.85297 0.80107 0.0
C344 C 0.49332 0.84463 0.88709 0.0
C345 C 0.46051 0.82304 0.9217 0.0
N346 N 0.40577 0.79379 0.85383 0.0
C347 C 0.41693 0.79639 0.9045 0.0
H348 H 0.39166 0.77916 0.9314 0.0
C349 C 0.37463 0.74536 0.7187 0.0
N350 N 0.38425 0.76798 0.76065 0.0
C351 C 0.40684 0.75613 0.68442 0.0
C352 C 0.44968 0.78917 0.6937 0.0
H353 H 0.34261 0.71828 0.71097 0.0
H354 H 0.54971 0.87413 0.81201 0.0
H355 H 0.17353 0.74559 0.79524 0.0
H356 H 0.52714 0.86491 0.90048 0.0
H357 H 0.46876 0.82682 0.96157 0.0
H358 H 0.53036 0.8494 0.72662 0.0
H359 H 0.34229 0.92514 0.73317 0.0
H360 H 0.12639 0.81024 0.88213 0.0
H361 H 0.11584 0.74263 0.84574 0.0
H362 H 0.23616 0.96281 0.86231 0.0
H363 H 0.39855 0.73879 0.65082 0.0
H364 H 0.47451 0.79746 0.66698 0.0
H365 H 0.17175 0.8927 0.88824 0.0
H366 H 0.35367 0.99875 0.75425 0.0
N367 N 0.21786 0.81276 0.80697 0.0
C368 C 0.15214 0.81144 0.86082 0.0
C369 C 0.14602 0.77325 0.84025 0.0
C370 C 0.19038 0.85133 0.85126 0.0
C371 C 0.22287 0.85094 0.82346 0.0
C372 C 0.17898 0.77489 0.81211 0.0
N373 N 0.28759 0.88873 0.77911 0.0
C374 C 0.25879 0.89035 0.8087 0.0
C375 C 0.32702 0.96851 0.77004 0.0
C376 C 0.29885 0.97066 0.80245 0.0
C377 C 0.32051 0.92703 0.75807 0.0
C378 C 0.26376 0.93132 0.82158 0.0
H379 H 0.30379 1.00285 0.81142 0.0
O380 O 0.238 0.78803 0.69438 0.0
O381 O 0.34434 0.82172 0.76608 0.0
O382 O 0.35006 0.81285 0.86894 0.0
O383 O 0.32513 0.86049 0.82162 0.0
O384 O 0.32283 0.84143 0.69878 0.0
O385 O 0.24901 0.85397 0.70512 0.0
O386 O 0.28887 0.68756 0.82713 0.0
O387 O 0.26525 0.75912 0.81919 0.0
O388 O 0.23447 0.74302 0.75604 0.0
O389 O 0.29343 0.73139 0.74708 0.0
O390 O 0.29594 0.75407 0.88846 0.0
O391 O 0.35571 0.7134 0.8597 0.0
C392 C 0.35572 0.83589 0.7202 0.0
C393 C 0.23279 0.93171 0.85162 0.0
C394 C 0.19616 0.89176 0.86647 0.0
C395 C 0.23608 0.82381 0.67367 0.0
C396 C 0.25113 0.839 0.62216 0.0
C397 C 0.27319 0.82058 0.59893 0.0
C398 C 0.24355 0.87335 0.59596 0.0
C399 C 0.25767 0.88985 0.54722 0.0
C400 C 0.28759 0.83724 0.55011 0.0
C401 C 0.27971 0.87184 0.52409 0.0
C402 C 0.34744 0.85068 0.86129 0.0
C403 C 0.25949 0.7534 0.86682 0.0
C404 C 0.31631 0.67996 0.86007 0.0
C405 C 0.29976 0.659 0.91041 0.0
C406 C 0.25437 0.63785 0.91939 0.0
C407 C 0.33043 0.66228 0.95097 0.0
C408 C 0.31684 0.64442 0.9998 0.0
C409 C 0.24052 0.62041 0.96838 0.0
C410 C 0.27167 0.62307 0.00859 0.0
C411 C 0.25092 0.71926 0.73903 0.0
H412 H 0.27938 0.79353 0.6183 0.0
H413 H 0.2259 0.88712 0.61341 0.0
H414 H 0.3043 0.82293 0.5322 0.0
H415 H 0.29035 0.8841 0.48632 0.0
H416 H 0.22969 0.63476 0.88875 0.0
H417 H 0.36543 0.67731 0.94428 0.0
H418 H 0.20556 0.60402 0.97495 0.0
H419 H 0.26065 0.60766 0.04584 0.0
Gd420 Gd 0.35505 0.31142 0.75376 0.0
Gd421 Gd 0.28147 0.27284 0.85765 0.0
C422 C 0.28058 0.15813 0.96973 0.0
C423 C 0.2081 0.09814 0.95011 0.0
C424 C 0.23088 0.17204 0.90539 0.0
C425 C 0.27188 0.18693 0.93174 0.0
C426 C 0.19802 0.12788 0.91565 0.0
C427 C 0.24925 0.11333 0.97723 0.0
C428 C 0.31907 0.17587 1.00138 0.0
C429 C 0.3461 0.22171 0.99697 0.0
N430 N 0.30093 0.23081 0.92469 0.0
C431 C 0.33583 0.24901 0.95911 0.0
H432 H 0.35678 0.28438 0.95715 0.0
C433 C 0.17879 0.19142 0.85614 0.0
N434 N 0.22149 0.20204 0.87397 0.0
C435 C 0.14536 0.14789 0.86435 0.0
C436 C 0.15524 0.11568 0.89334 0.0
H437 H 0.17064 0.21631 0.8346 0.0
H438 H 0.25556 0.09078 1.00583 0.0
H439 H 0.28392 0.3246 0.6643 0.0
H440 H 0.32692 0.15489 0.03101 0.0
H441 H 0.37495 0.23604 0.02266 0.0
H442 H 0.18348 0.06398 0.95804 0.0
H443 H 0.46622 0.34688 0.77194 0.0
H444 H 0.3306 0.46481 0.62437 0.0
H445 H 0.27168 0.38705 0.62007 0.0
H446 H 0.48387 0.52367 0.68372 0.0
H447 H 0.11195 0.13933 0.84871 0.0
H448 H 0.12914 0.08211 0.90028 0.0
H449 H 0.41122 0.51562 0.64552 0.0
H450 H 0.53421 0.41769 0.76477 0.0
N451 N 0.34688 0.36671 0.69686 0.0
C452 C 0.3363 0.43728 0.64261 0.0
C453 C 0.30319 0.39361 0.63982 0.0
C454 C 0.37704 0.44468 0.66782 0.0
C455 C 0.38122 0.40803 0.69487 0.0
C456 C 0.30986 0.35828 0.66585 0.0
N457 N 0.42347 0.37553 0.7403 0.0
C458 C 0.42137 0.41256 0.71664 0.0
C459 C 0.50256 0.41682 0.75157 0.0
C460 C 0.50032 0.45584 0.73042 0.0
C461 C 0.4637 0.37664 0.75575 0.0
C462 C 0.45936 0.45389 0.71176 0.0
H463 H 0.53043 0.48689 0.72733 0.0
O464 O 0.3846 0.27023 0.73571 0.0
O465 O 0.33387 0.26405 0.8244 0.0
O466 O 0.34979 0.32502 0.88121 0.0
O467 O 0.3865 0.36418 0.80818 0.0
O468 O 0.40041 0.29437 0.81088 0.0
O469 O 0.34726 0.29193 0.67787 0.0
O470 O 0.27782 0.33216 0.87505 0.0
O471 O 0.30007 0.31885 0.7867 0.0
O472 O 0.2872 0.26155 0.72746 0.0
O473 O 0.24838 0.22276 0.79896 0.0
O474 O 0.23301 0.28476 0.80108 0.0
O475 O 0.25204 0.27212 0.92558 0.0
C476 C 0.37177 0.26733 0.84207 0.0
C477 C 0.45522 0.4914 0.68728 0.0
C478 C 0.4139 0.48685 0.66564 0.0
C479 C 0.37064 0.27004 0.68848 0.0
C480 C 0.40162 0.27514 0.65095 0.0
C481 C 0.42459 0.31622 0.6228 0.0
C482 C 0.40768 0.23813 0.64243 0.0
C483 C 0.43653 0.2423 0.60612 0.0
C484 C 0.4533 0.32043 0.58697 0.0
C485 C 0.45959 0.28388 0.57907 0.0
C486 C 0.38142 0.35981 0.85719 0.0
C487 C 0.26101 0.31387 0.77006 0.0
C488 C 0.25512 0.31197 0.91436 0.0
C489 C 0.21482 0.31738 0.91796 0.0
C490 C 0.17306 0.28007 0.91797 0.0
C491 C 0.21785 0.35969 0.92284 0.0
C492 C 0.17929 0.36428 0.9275 0.0
C493 C 0.13503 0.28453 0.92255 0.0
C494 C 0.13804 0.32612 0.9275 0.0
C495 C 0.25411 0.22753 0.74991 0.0
H496 H 0.42044 0.34505 0.62864 0.0
H497 H 0.39036 0.20634 0.66425 0.0
H498 H 0.47115 0.35226 0.5656 0.0
H499 H 0.48308 0.28815 0.55238 0.0
H500 H 0.16969 0.24718 0.91517 0.0
H501 H 0.24992 0.38864 0.92356 0.0
H502 H 0.10308 0.25548 0.92294 0.0
H503 H 0.10796 0.32831 0.93242 0.0
Gd504 Gd 0.79634 0.3063 0.78074 0.0
Gd505 Gd 0.83586 0.23159 0.85301 0.0
C506 C 0.7781 0.18058 0.00782 0.0
C507 C 0.84243 0.21824 0.06429 0.0
C508 C 0.84978 0.22452 0.97418 0.0
C509 C 0.80501 0.19968 0.96651 0.0
C510 C 0.86958 0.23211 0.02333 0.0
C511 C 0.79647 0.1929 0.05639 0.0
C512 C 0.73476 0.14763 0.99925 0.0
C513 C 0.72117 0.132 0.95152 0.0
N514 N 0.78899 0.18925 0.91901 0.0
C515 C 0.74928 0.15295 0.91167 0.0
H516 H 0.73802 0.14183 0.8744 0.0
C517 C 0.91924 0.25272 0.93969 0.0
N518 N 0.87433 0.23737 0.9334 0.0
C519 C 0.94068 0.26033 0.98791 0.0
C520 C 0.91583 0.25143 0.02975 0.0
H521 H 0.93873 0.26113 0.90732 0.0
H522 H 0.776 0.18116 0.08838 0.0
H523 H 0.89745 0.39842 0.7952 0.0
H524 H 0.71241 0.13241 0.02948 0.0
H525 H 0.68866 0.10476 0.94504 0.0
H526 H 0.85674 0.22513 0.1023 0.0
H527 H 0.70633 0.25752 0.70395 0.0
H528 H 0.9198 0.48258 0.6596 0.0
H529 H 0.94186 0.46741 0.74767 0.0
H530 H 0.79219 0.40822 0.55214 0.0
H531 H 0.97639 0.27396 0.99259 0.0
H532 H 0.93248 0.25783 0.06691 0.0
H533 H 0.86467 0.46065 0.58666 0.0
H534 H 0.67819 0.26977 0.61738 0.0
N535 N 0.84916 0.37026 0.73445 0.0
C536 C 0.90018 0.45097 0.67967 0.0
C537 C 0.91241 0.44264 0.72964 0.0
C538 C 0.86163 0.41952 0.65713 0.0
C539 C 0.83646 0.37878 0.68561 0.0
C540 C 0.8862 0.40257 0.75674 0.0
N541 N 0.77015 0.31279 0.69581 0.0
C542 C 0.79575 0.34922 0.66582 0.0
C543 C 0.71139 0.2923 0.63033 0.0
C544 C 0.73738 0.32954 0.59904 0.0
C545 C 0.72782 0.28515 0.67921 0.0
C546 C 0.77952 0.3592 0.6171 0.0
H547 H 0.72407 0.33587 0.56169 0.0
O548 O 0.74771 0.332 0.76692 0.0
O549 O 0.78175 0.25344 0.84609 0.0
O550 O 0.7841 0.19293 0.79114 0.0
O551 O 0.77547 0.24606 0.73245 0.0
O552 O 0.7295 0.24922 0.79518 0.0
O553 O 0.78908 0.34351 0.83596 0.0
O554 O 0.8834 0.20985 0.83553 0.0
O555 O 0.84712 0.28227 0.78586 0.0
O556 O 0.84856 0.34369 0.84413 0.0
O557 O 0.86766 0.2935 0.89664 0.0
O558 O 0.90297 0.28163 0.82397 0.0
O559 O 0.81494 0.1622 0.84516 0.0
C560 C 0.73991 0.23139 0.83683 0.0
C561 C 0.80466 0.3995 0.58895 0.0
C562 C 0.84593 0.42933 0.60859 0.0
C563 C 0.76008 0.35265 0.8075 0.0
C564 C 0.76836 0.39953 0.80129 0.0
C565 C 0.79358 0.4297 0.76259 0.0
C566 C 0.74904 0.41389 0.83338 0.0
C567 C 0.7543 0.45783 0.82653 0.0
C568 C 0.79978 0.47367 0.75644 0.0
C569 C 0.78049 0.48795 0.78855 0.0
C570 C 0.76928 0.20402 0.74572 0.0
C571 C 0.88936 0.30148 0.78659 0.0
C572 C 0.85404 0.16838 0.83607 0.0
C573 C 0.86746 0.13428 0.85831 0.0
C574 C 0.86683 0.12016 0.91009 0.0
C575 C 0.8801 0.11456 0.82528 0.0
C576 C 0.89283 0.08108 0.84301 0.0
C577 C 0.87956 0.08659 0.92823 0.0
C578 C 0.89298 0.06728 0.89487 0.0
C579 C 0.87071 0.33416 0.88489 0.0
H580 H 0.80761 0.41925 0.73641 0.0
H581 H 0.72854 0.39048 0.86259 0.0
H582 H 0.81837 0.49622 0.72567 0.0
H583 H 0.78425 0.52172 0.7823 0.0
H584 H 0.85666 0.135 0.93611 0.0
H585 H 0.88098 0.12614 0.78534 0.0
H586 H 0.87934 0.07576 0.9682 0.0
H587 H 0.90355 0.04198 0.90935 0.0
Gd588 Gd 0.84364 0.84959 0.84308 0.0
Gd589 Gd 0.82401 0.77184 0.75816 0.0
C590 C 0.81254 0.8364 0.59782 0.0
C591 C 0.73389 0.81511 0.58575 0.0
C592 C 0.7639 0.78968 0.66379 0.0
C593 C 0.80616 0.81332 0.64677 0.0
C594 C 0.72722 0.78974 0.63285 0.0
C595 C 0.77644 0.83817 0.56812 0.0
C596 C 0.85481 0.85607 0.57948 0.0
C597 C 0.88887 0.85034 0.60849 0.0
N598 N 0.84061 0.8115 0.67658 0.0
C599 C 0.88077 0.82672 0.6563 0.0
H600 H 0.90683 0.82001 0.67604 0.0
C601 C 0.71639 0.73646 0.72344 0.0
N602 N 0.75836 0.76522 0.70952 0.0
C603 C 0.67924 0.73598 0.6945 0.0
C604 C 0.68468 0.76341 0.6495 0.0
H605 H 0.71046 0.71255 0.75599 0.0
H606 H 0.78092 0.8564 0.53095 0.0
H607 H 0.78461 0.76987 0.93341 0.0
H608 H 0.86102 0.87403 0.54221 0.0
H609 H 0.9212 0.86331 0.59364 0.0
H610 H 0.70617 0.81601 0.56201 0.0
H611 H 0.93742 0.94784 0.83246 0.0
H612 H 0.87422 0.75287 0.04921 0.0
H613 H 0.7979 0.73042 0.01201 0.0
H614 H 1.01416 0.87384 0.00681 0.0
H615 H 0.64632 0.71375 0.70655 0.0
H616 H 0.65577 0.76266 0.62693 0.0
H617 H 0.95508 0.80598 0.04626 0.0
H618 H 1.01397 0.98026 0.86906 0.0
N619 N 0.85283 0.8126 0.92239 0.0
C620 C 0.8686 0.77016 0.01403 0.0
C621 C 0.82554 0.75729 0.99304 0.0
C622 C 0.90368 0.80629 0.99028 0.0
C623 C 0.89454 0.82747 0.94426 0.0
C624 C 0.81819 0.77939 0.94752 0.0
N625 N 0.91691 0.88651 0.87986 0.0
C626 C 0.92775 0.86531 0.92189 0.0
C627 C 0.99029 0.94755 0.88386 0.0
C628 C 1.00278 0.92435 0.92449 0.0
C629 C 0.94682 0.92861 0.86279 0.0
C630 C 0.97109 0.88332 0.945 0.0
H631 H 1.03638 0.93929 0.94111 0.0
O632 O 0.85442 0.91353 0.86494 0.0
O633 O 0.80238 0.82488 0.76989 0.0
O634 O 0.89644 0.82343 0.76027 0.0
O635 O 0.89473 0.88437 0.78641 0.0
O636 O 0.84151 0.89272 0.77124 0.0
O637 O 0.79576 0.85463 0.88603 0.0
O638 O 0.79361 0.7056 0.73236 0.0
O639 O 0.86454 0.79587 0.83168 0.0
O640 O 0.77307 0.79635 0.84692 0.0
O641 O 0.77047 0.73598 0.81337 0.0
O642 O 0.8264 0.72794 0.82903 0.0
O643 O 0.86412 0.74547 0.72975 0.0
C644 C 0.81147 0.86311 0.74413 0.0
C645 C 0.98094 0.86087 0.98901 0.0
C646 C 0.94728 0.82236 0.0116 0.0
C647 C 0.8165 0.89773 0.88491 0.0
C648 C 0.78924 0.92166 0.86936 0.0
C649 C 0.78464 0.9365 0.81837 0.0
C650 C 0.76583 0.92802 0.90514 0.0
C651 C 0.73787 0.94849 0.88955 0.0
C652 C 0.75646 0.95605 0.80295 0.0
C653 C 0.73326 0.96211 0.83825 0.0
C654 C 0.914 0.8667 0.76375 0.0
C655 C 0.85604 0.75744 0.85656 0.0
C656 C 0.8305 0.7081 0.71949 0.0
C657 C 0.82952 0.68992 0.6717 0.0
C658 C 0.79998 0.6909 0.63097 0.0
C659 C 0.85642 0.66871 0.66799 0.0
C660 C 0.85229 0.64643 0.62501 0.0
C661 C 0.79616 0.66993 0.58815 0.0
C662 C 0.8214 0.64744 0.58541 0.0
C663 C 0.75372 0.75361 0.84046 0.0
H664 H 0.80246 0.93285 0.79015 0.0
H665 H 0.76856 0.91631 0.94455 0.0
H666 H 0.75234 0.96628 0.76338 0.0
H667 H 0.71122 0.97704 0.82548 0.0
H668 H 0.77931 0.70724 0.63257 0.0
H669 H 0.88049 0.66996 0.69873 0.0
H670 H 0.77286 0.67042 0.55712 0.0
H671 H 0.81613 0.63037 0.55218 0.0
Co672 Co 0.08769 0.99242 0.48829 0.0
Co673 Co 0.12629 1.00773 0.5736 0.0
Co674 Co 0.06151 0.05388 0.54435 0.0
O675 O 0.10848 0.04104 0.52689 0.0
H676 H 0.13357 0.06727 0.5135 0.0
O677 O 1.01398 0.06648 0.56021 0.0
Co678 Co 1.01653 0.0956 0.61613 0.0
Co679 Co 1.02085 0.11905 0.5329 0.0
H680 H 0.9848 0.04322 0.55249 0.0
O681 O 0.18368 0.01874 0.57273 0.0
O682 O 0.12366 0.9677 0.53208 0.0
O683 O 0.09005 0.97907 0.6305 0.0
O684 O 1.04361 1.00905 0.6055 0.0
O685 O 0.10743 0.09794 0.5891 0.0
O686 O 1.01517 0.11705 0.67142 0.0
O687 O 0.96198 0.05712 0.63559 0.0
O688 O 0.07513 0.13845 0.6052 0.0
O689 O 0.07996 0.09943 0.48261 0.0
O690 O 0.07582 0.15878 0.50193 0.0
O691 O 0.99286 0.13637 0.57319 0.0
O692 O 0.97502 0.11246 0.49352 0.0
C693 C 0.10366 0.9807 0.42415 0.0
C694 C 1.00825 0.96682 0.5089 0.0
C695 C 0.05564 0.98338 0.63595 0.0
C696 C 0.1664 0.98745 0.54228 0.0
C697 C 0.97741 0.08151 0.67352 0.0
C698 C 0.10871 0.13095 0.60817 0.0
C699 C 0.09241 0.14158 0.4769 0.0
C700 C 0.96917 0.13079 0.52971 0.0
O701 O 0.07084 0.95061 0.44899 0.0
O702 O 0.12948 1.01845 0.44281 0.0
O703 O 1.01499 1.0074 0.50139 0.0
O704 O 1.04004 0.9594 0.52904 0.0
Co705 Co 0.56979 0.98995 0.02504 0.0
Co706 Co 0.55437 0.99308 0.11206 0.0
Co707 Co 0.52595 0.05969 0.03886 0.0
O708 O 0.56837 0.03503 0.05852 0.0
H709 H 0.59788 0.05845 0.06446 0.0
O710 O 0.48528 0.08642 0.01696 0.0
Co711 Co 0.47979 0.12485 0.05708 0.0
Co712 Co 0.49925 0.13367 0.9702 0.0
H713 H 0.45662 0.0634 0.00668 0.0
O714 O 0.59804 1.00121 0.15785 0.0
O715 O 0.57398 0.95724 0.09221 0.0
O716 O 0.49705 0.96554 0.13337 0.0
O717 O 0.4766 1.01504 0.08922 0.0
O718 O 0.55845 0.10164 0.09268 0.0
O719 O 0.4662 0.15424 0.09726 0.0
O720 O 0.42165 0.09625 0.05305 0.0
O721 O 0.54413 0.1592 0.0685 0.0
O722 O 0.57365 0.10274 0.98904 0.0
O723 O 0.5598 0.15883 0.95024 0.0
O724 O 0.47881 0.16876 0.99607 0.0
O725 O 0.45388 0.13326 0.92485 0.0
C726 C 0.61788 0.97844 0.99869 0.0
C727 C 0.48323 0.97521 0.99161 0.0
C728 C 0.4687 0.98 0.12159 0.0
C729 C 0.60254 0.97532 0.12975 0.0
C730 C 0.42672 0.12298 0.08612 0.0
C731 C 0.57007 0.14336 0.09076 0.0
C732 C 0.58498 0.13979 0.96019 0.0
C733 C 0.45324 0.1606 0.95395 0.0
O734 O 0.5761 0.95056 0.99372 0.0
O735 O 0.62951 1.01392 0.02193 0.0
O736 O 0.49463 1.01705 0.98569 0.0
O737 O 0.50636 0.9596 0.0209 0.0
Co738 Co 0.09007 0.48918 0.04612 0.0
Co739 Co 0.09173 0.49173 0.1367 0.0
Co740 Co 1.04185 0.56329 0.06725 0.0
O741 O 0.09219 0.53823 0.08208 0.0
H742 H 0.12139 0.56234 0.07926 0.0
O743 O 0.99211 0.59094 0.06007 0.0
Co744 Co 0.98798 0.64402 0.0996 0.0
Co745 Co 1.00583 0.64148 0.00912 0.0
H746 H 0.96268 0.56776 0.05257 0.0
O747 O 0.14083 0.48167 0.17911 0.0
O748 O 0.10771 0.44814 0.11049 0.0
O749 O 1.03035 0.46806 0.15836 0.0
O750 O 1.00428 0.51757 0.12165 0.0
O751 O 0.07377 0.6096 0.11547 0.0
O752 O 0.98525 0.69087 0.13892 0.0
O753 O 0.92511 0.63662 0.11533 0.0
O754 O 0.05222 0.66512 0.10067 0.0
O755 O 0.08342 0.60905 0.01029 0.0
O756 O 0.06653 0.66548 0.98147 0.0
O757 O 0.98659 0.68254 0.03086 0.0
O758 O 0.95954 0.64321 0.9632 0.0
C759 C 0.13117 0.4791 1.00503 0.0
C760 C 1.00086 0.47295 0.01981 0.0
C761 C 1.00024 0.48175 0.14981 0.0
C762 C 0.13724 0.45194 0.15072 0.0
C763 C 0.94244 0.67253 0.14014 0.0
C764 C 0.08227 0.65107 0.1084 0.0
C765 C 0.09239 0.64711 0.98315 0.0
C766 C 0.96098 0.67407 0.98819 0.0
O767 O 0.08956 0.45139 0.00763 0.0
O768 O 0.14841 0.51379 0.03104 0.0
O769 O 1.00645 0.51406 0.01747 0.0
O770 O 1.02604 0.45984 0.05021 0.0
Co771 Co 0.60913 0.5019 0.99441 0.0
Co772 Co 0.61248 0.50417 0.08272 0.0
Co773 Co 0.56574 0.5622 0.03877 0.0
O774 O 0.6131 0.54543 0.03373 0.0
H775 H 0.64186 0.57094 0.03287 0.0
O776 O 0.51792 0.57922 0.04255 0.0
Co777 Co 0.51114 0.59847 0.10396 0.0
Co778 Co 0.52981 0.63514 0.01588 0.0
H779 H 0.48977 0.55799 0.02852 0.0
O780 O 0.66364 0.52057 0.11558 0.0
O781 O 0.63213 0.47254 0.05367 0.0
O782 O 0.55948 0.46647 0.11573 0.0
O783 O 0.53496 0.5175 0.09838 0.0
O784 O 0.61118 0.60799 0.08412 0.0
O785 O 0.50157 0.61338 0.15879 0.0
O786 O 0.4512 0.5684 0.10383 0.0
O787 O 0.57016 0.6327 0.11318 0.0
O788 O 0.59271 0.60596 0.97838 0.0
O789 O 0.58629 0.66778 0.9848 0.0
O790 O 0.50859 0.65159 0.06492 0.0
O791 O 0.4812 0.6389 0.98422 0.0
C792 C 0.64875 0.49571 0.94847 0.0
C793 C 0.51963 0.47794 0.99008 0.0
C794 C 0.53051 0.4793 0.11909 0.0
C795 C 0.66389 0.49196 0.08802 0.0
C796 C 0.46074 0.58894 0.14456 0.0
C797 C 0.60764 0.63593 0.10807 0.0
C798 C 0.60424 0.64758 0.96651 0.0
C799 C 0.47821 0.64803 0.02883 0.0
O800 O 0.60898 0.46458 0.95575 0.0
O801 O 0.66461 0.53119 0.97279 0.0
O802 O 0.52416 0.51721 0.99219 0.0
O803 O 0.54928 0.46635 0.00958 0.0
Co804 Co 0.15526 0.47259 0.63138 0.0
Co805 Co 0.16648 0.51596 0.54782 0.0
Co806 Co 0.07315 0.50545 0.56304 0.0
O807 O 0.11298 0.4745 0.57254 0.0
H808 H 0.10062 0.44797 0.55496 0.0
O809 O 1.03691 0.5389 0.55328 0.0
Co810 Co 0.98018 0.51509 0.51983 0.0
Co811 Co 1.00824 0.5328 0.60972 0.0
H812 H 0.05428 0.57017 0.54297 0.0
O813 O 0.18822 0.49359 0.50739 0.0
O814 O 0.20754 0.50661 0.59001 0.0
O815 O 0.17827 0.57748 0.52847 0.0
O816 O 0.10732 0.55244 0.50373 0.0
O817 O 1.03189 0.46204 0.51244 0.0
O818 O 0.92858 0.49528 0.48727 0.0
O819 O 0.9811 0.5664 0.48919 0.0
O820 O 0.97329 0.45781 0.54444 0.0
O821 O 1.03638 0.45739 0.62015 0.0
O822 O 0.99942 0.48323 0.65872 0.0
O823 O 0.95351 0.52416 0.57967 0.0
O824 O 1.00293 0.58007 0.6258 0.0
C825 C 0.18406 0.42987 0.6639 0.0
C826 C 0.14555 0.55485 0.64213 0.0
C827 C 0.14785 0.58324 0.50159 0.0
C828 C 0.21364 0.49527 0.54808 0.0
C829 C 0.94157 0.53734 0.47421 0.0
C830 C 0.98957 0.44302 0.5153 0.0
C831 C 1.01002 0.45275 0.65426 0.0
C832 C 0.96442 0.56044 0.60207 0.0
O833 O 0.19237 0.46631 0.68296 0.0
O834 O 0.15609 0.41923 0.62409 0.0
O835 O 0.11141 0.54931 0.61275 0.0
O836 O 0.16142 0.527 0.64834 0.0
Co837 Co 0.67864 0.98699 0.54786 0.0
Co838 Co 0.64146 0.97375 0.46553 0.0
Co839 Co 0.584 0.02704 0.5216 0.0
O840 O 0.61227 0.9782 0.52462 0.0
H841 H 0.59086 0.94884 0.53702 0.0
O842 O 0.55894 0.07897 0.50999 0.0
Co843 Co 0.50417 0.09399 0.46489 0.0
Co844 Co 0.51824 0.06623 0.55886 0.0
H845 H 0.58394 0.10744 0.51524 0.0
O846 O 0.64334 0.93183 0.42043 0.0
O847 O 0.68703 0.95099 0.48951 0.0
O848 O 0.66624 0.03605 0.43852 0.0
O849 O 0.62748 0.06689 0.46894 0.0
O850 O 0.53534 0.99783 0.46922 0.0
O851 O 0.45004 0.10226 0.42382 0.0
O852 O 0.5037 0.15901 0.44911 0.0
O853 O 0.48693 0.02971 0.46163 0.0
O854 O 0.53816 0.98191 0.57736 0.0
O855 O 0.49352 1.00861 0.59784 0.0
O856 O 0.47671 0.08588 0.52985 0.0
O857 O 0.52908 0.11237 0.59335 0.0
C858 C 0.71187 0.95053 0.60521 0.0
C859 C 0.6659 0.05778 0.60408 0.0
C860 C 0.6574 0.06844 0.44209 0.0
C861 C 0.67774 0.93097 0.44639 0.0
C862 C 0.46475 0.14486 0.42425 0.0
C863 C 0.49636 0.99664 0.46065 0.0
C864 C 0.50506 0.9776 0.60242 0.0
C865 C 0.4949 0.11255 0.56616 0.0
O866 O 0.73372 0.98782 0.5784 0.0
O867 O 0.66917 0.93647 0.60013 0.0
O868 O 0.63216 0.05968 0.57699 0.0
O869 O 0.6804 0.0291 0.59804 0.0
C870 C 0.17794 0.1783 0.37796 0.0
C871 C 0.19415 0.2249 0.37115 0.0
C872 C 0.14478 0.15171 0.41157 0.0
C873 C 0.12592 0.1705 0.43936 0.0
H874 H 0.19189 0.16227 0.35829 0.0
H875 H 0.13435 0.11615 0.4162 0.0
S876 S 0.15362 0.29073 0.43042 0.0
N877 N 0.18699 0.28851 0.39213 0.0
N878 N 0.1243 0.23897 0.45444 0.0
C879 C 0.14087 0.21707 0.43133 0.0
C880 C 0.17503 0.24411 0.39755 0.0
C881 C 0.91347 0.17392 0.434 0.0
C882 C 0.86919 0.14132 0.4398 0.0
C883 C 0.94651 0.17871 0.4722 0.0
C884 C 0.93736 0.14894 0.51604 0.0
H885 H 0.92438 0.193 0.39819 0.0
H886 H 0.9806 0.20027 0.4633 0.0
S887 S 0.82612 0.07152 0.55902 0.0
N888 N 0.81651 0.09056 0.50107 0.0
N889 N 0.88043 0.09567 0.57019 0.0
C890 C 0.89296 0.12183 0.52617 0.0
C891 C 0.85852 0.11843 0.48826 0.0
C892 C 0.9036 0.90922 0.42448 0.0
C893 C 0.9047 0.86966 0.41646 0.0
C894 C 0.93613 0.93973 0.45587 0.0
C895 C 0.97047 0.93126 0.48161 0.0
H896 H 0.87836 0.91751 0.40478 0.0
H897 H 0.935 0.97071 0.45883 0.0
S898 S 0.98281 0.82784 0.4799 0.0
N899 N 0.93971 0.82118 0.44022 0.0
N900 N 0.99918 0.87638 0.502 0.0
C901 C 0.96935 0.8896 0.47721 0.0
C902 C 0.93691 0.85933 0.44397 0.0
C903 C 0.16595 0.97713 0.31884 0.0
C904 C 0.13395 0.94022 0.29513 0.0
C905 C 0.15522 0.99224 0.35875 0.0
C906 C 0.11261 0.96967 0.37701 0.0
H907 H 0.19989 0.99306 0.30795 0.0
H908 H 0.1811 0.01993 0.37725 0.0
S909 S 1.01817 0.86916 0.32876 0.0
N910 N 0.05905 0.88061 0.2929 0.0
N911 N 1.03809 0.90854 0.36765 0.0
C912 C 0.08013 0.93302 0.35266 0.0
C913 C 0.09112 0.91813 0.31196 0.0
C914 C 0.26466 0.96525 0.54061 0.0
C915 C 0.24499 0.92354 0.52158 0.0
C916 C 0.23992 0.98831 0.54252 0.0
C917 C 0.19482 0.96997 0.52578 0.0
H918 H 0.2972 0.97714 0.5601 0.0
H919 H 0.25514 1.01838 0.56171 0.0
S920 S 0.13367 0.86849 0.4577 0.0
N921 N 0.18273 0.87027 0.47425 0.0
N922 N 0.13529 0.91289 0.4783 0.0
C923 C 0.17735 0.93186 0.4992 0.0
C924 C 0.20294 0.90887 0.49672 0.0
C925 C 0.17465 0.19515 0.71933 0.0
C926 C 0.2173 0.19947 0.71594 0.0
C927 C 0.14037 0.17427 0.68332 0.0
C928 C 0.14718 0.15642 0.64253 0.0
H929 H 0.16799 0.20958 0.74881 0.0
H930 H 0.10807 0.1717 0.68801 0.0
S931 S 0.25358 0.16042 0.61576 0.0
N932 N 0.2652 0.18567 0.66784 0.0
N933 N 0.20041 0.14513 0.60068 0.0
C934 C 0.18981 0.1605 0.63869 0.0
C935 C 0.22495 0.18247 0.67511 0.0
C936 C 0.95595 0.07828 0.80918 0.0
C937 C 0.91036 0.06547 0.80639 0.0
C938 C 0.97699 0.08064 0.76624 0.0
C939 C 0.95298 0.06984 0.71947 0.0
H940 H 0.97608 0.09062 0.84325 0.0
H941 H 1.0127 0.09344 0.76902 0.0
S942 S 0.83196 0.02825 0.6951 0.0
N943 N 0.84115 0.03696 0.75536 0.0
N944 N 0.88065 0.04097 0.67462 0.0
C945 C 0.90682 0.05261 0.71764 0.0
C946 C 0.88548 0.05046 0.76127 0.0
C947 C 0.96217 0.94132 0.72254 0.0
C948 C 0.9548 0.89726 0.73807 0.0
C949 C 0.99668 0.96967 0.69202 0.0
C950 C 1.02538 0.95528 0.6758 0.0
H951 H 0.93986 0.95357 0.7319 0.0
H952 H 0.99989 1.00272 0.67951 0.0
S953 S 1.02388 0.84489 0.71146 0.0
N954 N 0.98189 0.84198 0.73968 0.0
N955 N 1.04665 0.8953 0.6812 0.0
C956 C 1.0203 0.91229 0.69373 0.0
C957 C 0.98497 0.88325 0.72503 0.0
C958 C 0.35771 0.13354 0.17974 0.0
C959 C 0.31445 0.10186 0.16648 0.0
C960 C 0.39369 0.14071 0.15303 0.0
C961 C 0.38786 0.11626 0.11223 0.0
H962 H 0.36376 0.1534 0.21072 0.0
H963 H 0.4263 0.1655 0.16469 0.0
S964 S 0.28141 0.02754 0.06402 0.0
N965 N 0.26788 0.04501 0.1107 0.0
N966 N 0.33542 0.0577 0.06097 0.0
C967 C 0.34483 0.08365 0.09931 0.0
C968 C 0.3082 0.07649 0.12646 0.0
C969 C 0.91198 0.39718 0.23517 0.0
C970 C 0.87214 0.38826 0.2058 0.0
C971 C 0.95317 0.42785 0.21724 0.0
C972 C 0.95619 0.4522 0.16983 0.0
H973 H 0.91169 0.38009 0.2723 0.0
H974 H 0.98288 0.43243 0.24068 0.0
S975 S 0.86162 0.44354 0.07921 0.0
N976 N 0.83814 0.4077 0.12787 0.0
N977 N 0.91548 0.46623 0.09402 0.0
C978 C 0.91647 0.44506 0.14077 0.0
C979 C 0.87448 0.41316 0.15891 0.0
C980 C 0.68938 0.93531 0.16468 0.0
C981 C 0.72886 0.9757 0.161 0.0
C982 C 0.64798 0.93448 0.15147 0.0
C983 C 0.64501 0.97412 0.13567 0.0
H984 H 0.69022 0.90429 0.1794 0.0
H985 H 0.61825 0.90322 0.15603 0.0
S986 S 0.73713 0.08768 0.11842 0.0
N987 N 0.76161 0.05549 0.13654 0.0
N988 N 0.68353 0.05427 0.1165 0.0
C989 C 0.68378 1.01438 0.1313 0.0
C990 C 0.72581 1.01511 0.14288 0.0
C991 C 0.17436 0.75094 0.16348 0.0
C992 C 0.20625 0.73545 0.17986 0.0
C993 C 0.13524 0.72496 0.13685 0.0
C994 C 0.12751 0.68335 0.1238 0.0
H995 H 0.17766 0.78192 0.1735 0.0
H996 H 0.11003 0.73649 0.12944 0.0
S997 S 0.21166 0.64135 0.13116 0.0
N998 N 0.23519 0.68556 0.16314 0.0
N999 N 0.16205 0.63676 0.11145 0.0
C1000 C 0.16301 0.67219 0.13053 0.0
C1001 C 0.20249 0.69835 0.15879 0.0
C1002 C 0.39854 0.92958 0.88095 0.0
C1003 C 0.37486 0.88411 0.89753 0.0
C1004 C 0.4323 0.95935 0.91235 0.0
C1005 C 0.44435 0.9445 0.96095 0.0
H1006 H 0.39271 0.9418 0.84265 0.0
H1007 H 0.45061 0.99376 0.89742 0.0
S1008 S 0.38741 0.83026 0.02493 0.0
N1009 N 0.36092 0.82756 0.96884 0.0
N1010 N 0.42688 0.88194 0.02534 0.0
C1011 C 0.41939 0.8996 0.9786 0.0
C1012 C 0.38398 0.86991 0.94762 0.0
C1013 C 0.20405 0.42965 0.97848 0.0
C1014 C 0.18049 0.40737 0.93582 0.0
C1015 C 0.19277 0.45973 0.99734 0.0
C1016 C 0.15725 0.46751 0.97456 0.0
H1017 H 0.22832 0.4208 1.00004 0.0
H1018 H 0.20878 0.47339 0.03248 0.0
S1019 S 0.09485 0.42813 0.85389 0.0
N1020 N 0.12796 0.40395 0.86477 0.0
N1021 N 0.10583 0.45878 0.90119 0.0
C1022 C 0.1383 0.45064 0.92799 0.0
C1023 C 0.15013 0.42085 0.90843 0.0
C1024 C 0.6649 0.16954 0.85644 0.0
C1025 C 0.70405 0.20566 0.8732 0.0
C1026 C 0.62771 0.14703 0.88602 0.0
C1027 C 0.62737 0.16002 0.93354 0.0
H1028 H 0.66281 0.15887 0.81952 0.0
H1029 H 0.59833 0.12009 0.87075 0.0
S1030 S 0.72018 0.25365 0.99466 0.0
N1031 N 0.73939 0.25395 0.94063 0.0
N1032 N 0.66948 0.21216 0.99575 0.0
C1033 C 0.6661 0.19622 0.95087 0.0
C1034 C 0.70431 0.21897 0.92086 0.0
C1035 C 0.93163 0.76316 0.90263 0.0
C1036 C 0.88452 0.74225 0.89713 0.0
C1037 C 0.95627 0.74316 0.93475 0.0
C1038 C 0.9356 0.70093 0.96354 0.0
H1039 H 0.9498 0.7944 0.88034 0.0
H1040 H 0.99207 0.76012 0.93509 0.0
S1041 S 0.81353 0.63235 0.9642 0.0
N1042 N 0.81909 0.67667 0.9255 0.0
N1043 N 0.86426 0.64011 0.98354 0.0
C1044 C 0.88877 0.68054 0.95888 0.0
C1045 C 0.86387 0.70072 0.92666 0.0
C1046 C 0.22612 0.39554 0.16856 0.0
C1047 C 0.22269 0.37119 0.2183 0.0
C1048 C 0.19803 0.41766 0.1461 0.0
C1049 C 0.16372 0.42058 0.17081 0.0
H1050 H 0.25229 0.39906 0.14631 0.0
H1051 H 0.20537 0.43486 0.10889 0.0
S1052 S 0.14232 0.36929 0.30443 0.0
N1053 N 0.18125 0.35651 0.29185 0.0
N1054 N 0.13281 0.39733 0.25286 0.0
C1055 C 0.16141 0.39796 0.22114 0.0
C1056 C 0.18908 0.37457 0.24341 0.0
C1057 C 0.18014 0.68651 0.87918 0.0
C1058 C 0.21554 0.72697 0.89445 0.0
C1059 C 0.14163 0.66034 0.90799 0.0
C1060 C 0.13558 0.67283 0.95401 0.0
H1061 H 0.18239 0.67451 0.84476 0.0
H1062 H 0.116 0.63018 0.89354 0.0
S1063 S 0.21772 0.77502 0.01202 0.0
N1064 N 0.24109 0.7767 0.96057 0.0
N1065 N 0.16979 0.72967 0.01231 0.0
C1066 C 0.17065 0.71319 0.96932 0.0
C1067 C 0.21 0.73926 0.94064 0.0
C1068 C 0.36684 0.1918 0.87696 0.0
C1069 C 0.38433 0.23782 0.88069 0.0
C1070 C 0.38798 0.16663 0.90301 0.0
C1071 C 0.42712 0.18612 0.93458 0.0
H1072 H 0.33848 0.17578 0.85112 0.0
H1073 H 0.37447 0.13183 0.89678 0.0
S1074 S 0.48398 0.30476 0.96037 0.0
N1075 N 0.44202 0.30124 0.92023 0.0
N1076 N 0.48012 0.25398 0.97047 0.0
C1077 C 0.44312 0.23144 0.941 0.0
C1078 C 0.42237 0.25721 0.91352 0.0
C1079 C 0.93902 0.36744 0.94637 0.0
C1080 C 0.90281 0.3712 0.91821 0.0
C1081 C 0.96939 0.39986 0.97823 0.0
C1082 C 0.96633 0.43917 0.98445 0.0
H1083 H 0.94493 0.33941 0.94297 0.0
H1084 H 0.99612 0.3939 0.99791 0.0
S1085 S 0.87878 0.46784 0.91826 0.0
N1086 N 0.86676 0.41943 0.89822 0.0
N1087 N 0.92331 0.48002 0.95733 0.0
C1088 C 0.93071 0.44417 0.95577 0.0
C1089 C 0.89947 0.41069 0.92309 0.0
C1090 C 0.66479 0.92396 0.92403 0.0
C1091 C 0.71024 0.95304 0.92497 0.0
C1092 C 0.63582 0.93176 0.94966 0.0
C1093 C 0.65096 0.96936 0.97683 0.0
H1094 H 0.65128 0.89578 0.90173 0.0
H1095 H 0.60095 0.90871 0.94657 0.0
S1096 S 0.76812 0.05422 0.99322 0.0
N1097 N 0.76989 0.0196 0.95684 0.0
N1098 N 0.71558 0.03455 1.00539 0.0
C1099 C 0.69687 0.99782 0.97966 0.0
C1100 C 0.72645 0.98964 0.95355 0.0
C1101 C 0.9161 0.74996 0.22542 0.0
C1102 C 0.86884 0.73215 0.22844 0.0
C1103 C 0.9382 0.73183 0.19735 0.0
C1104 C 0.91628 0.69272 0.16968 0.0
H1105 H 0.9371 0.77842 0.24602 0.0
H1106 H 0.97401 0.74894 0.19836 0.0
S1107 S 0.79266 0.62849 0.16664 0.0
N1108 N 0.80198 0.66907 0.20099 0.0
N1109 N 0.84158 0.63683 0.1509 0.0
C1110 C 0.86918 0.67419 0.17326 0.0
C1111 C 0.84671 0.69271 0.20161 0.0
C1112 C 0.3646 0.87524 0.156 0.0
C1113 C 0.36339 0.87509 0.20861 0.0
C1114 C 0.39422 0.91287 0.12603 0.0
C1115 C 0.42563 0.95208 0.14699 0.0
H1116 H 0.34313 0.84535 0.13787 0.0
H1117 H 0.39468 0.91002 0.08652 0.0
S1118 S 0.43632 0.9702 0.28257 0.0
N1119 N 0.39554 0.91934 0.2797 0.0
N1120 N 0.4522 0.98841 0.22434 0.0
C1121 C 0.42365 0.95296 0.19924 0.0
C1122 C 0.39267 0.91504 0.22967 0.0
C1123 C 0.67783 0.17906 0.17688 0.0
C1124 C 0.69517 0.2257 0.17542 0.0
C1125 C 0.63803 0.15324 0.14933 0.0
C1126 C 0.6134 0.17262 0.11838 0.0
H1127 H 0.69433 0.16203 0.20103 0.0
H1128 H 0.62614 0.11746 0.15316 0.0
S1129 S 0.64901 0.29442 0.09387 0.0
N1130 N 0.68755 0.29067 0.13513 0.0
N1131 N 0.61319 0.24274 0.08392 0.0
C1132 C 0.63176 0.21957 0.11461 0.0
C1133 C 0.67232 0.24582 0.14285 0.0
C1134 C 0.6923 0.74488 0.89098 0.0
C1135 C 0.71252 0.72486 0.86726 0.0
C1136 C 0.65682 0.71959 0.92173 0.0
C1137 C 0.63967 0.67297 0.93025 0.0
H1138 H 0.7046 0.78072 0.88689 0.0
H1139 H 0.64352 0.73708 0.93994 0.0
S1140 S 0.67781 0.60356 0.87298 0.0
N1141 N 0.71082 0.65516 0.85182 0.0
N1142 N 0.64374 0.60737 0.90898 0.0
C1143 C 0.65829 0.6522 0.90498 0.0
C1144 C 0.69465 0.67814 0.87363 0.0
C1145 C 0.35562 0.60187 0.0357 0.0
C1146 C 0.3508 0.64067 0.03645 0.0
C1147 C 0.39767 0.60438 0.03557 0.0
C1148 C 0.43589 0.64491 0.04046 0.0
H1149 H 0.3272 0.57121 0.02628 0.0
H1150 H 0.40015 0.5751 0.02785 0.0
S1151 S 0.44032 0.7527 0.05927 0.0
N1152 N 0.38688 0.71867 0.0521 0.0
N1153 N 0.46653 0.72245 0.05626 0.0
C1154 C 0.43148 0.68216 0.04988 0.0
C1155 C 0.38853 0.67998 0.04811 0.0
C1156 C 0.46049 0.40069 0.88732 0.0
C1157 C 0.41626 0.39243 0.88875 0.0
C1158 C 0.49342 0.42747 0.92124 0.0
C1159 C 0.48354 0.44819 0.9566 0.0
H1160 H 0.46946 0.38502 0.86115 0.0
H1161 H 0.52695 0.43243 0.91918 0.0
S1162 S 0.37304 0.43949 0.97273 0.0
N1163 N 0.36414 0.40746 0.92742 0.0
N1164 N 0.42663 0.46035 0.98901 0.0
C1165 C 0.43964 0.44144 0.95708 0.0
C1166 C 0.40583 0.41285 0.92372 0.0
C1167 C 0.74788 0.50385 0.88766 0.0
C1168 C 0.72771 0.47006 0.8549 0.0
C1169 C 0.72213 0.51315 0.91706 0.0
C1170 C 0.67563 0.48904 0.91415 0.0
H1171 H 0.78365 0.52218 0.8916 0.0
H1172 H 0.73874 0.53833 0.9432 0.0
S1173 S 0.60752 0.40117 0.82869 0.0
N1174 N 0.65922 0.41529 0.81772 0.0
N1175 N 0.61065 0.43279 0.872 0.0
C1176 C 0.6553 0.45665 0.87948 0.0
C1177 C 0.68144 0.44716 0.85007 0.0
C1178 C 0.71372 0.44494 0.18814 0.0
C1179 C 0.75865 0.47641 0.18592 0.0
C1180 C 0.68295 0.44344 0.14844 0.0
C1181 C 0.69557 0.47496 0.10642 0.0
H1182 H 0.70139 0.42341 0.22235 0.0
H1183 H 0.64817 0.42196 0.15414 0.0
S1184 S 0.80991 0.55601 0.07608 0.0
N1185 N 0.81557 0.53266 0.1331 0.0
N1186 N 0.7563 0.53257 0.05971 0.0
C1187 C 0.74076 0.50316 0.10096 0.0
C1188 C 0.77262 0.50372 0.14083 0.0
C1189 C 0.72658 0.71389 0.15534 0.0
C1190 C 0.71926 0.73849 0.18834 0.0
C1191 C 0.69076 0.68105 0.1287 0.0
C1192 C 0.64649 0.67207 0.13388 0.0
H1193 H 0.75983 0.71842 0.15208 0.0
H1194 H 0.69773 0.662 0.10487 0.0
S1195 S 0.61112 0.73085 0.21351 0.0
N1196 N 0.66548 0.75381 0.22248 0.0
N1197 N 0.59876 0.69354 0.17346 0.0
C1198 C 0.63956 0.69838 0.16538 0.0
C1199 C 0.67572 0.73121 0.19218 0.0
C1200 C 0.41771 0.64886 0.20875 0.0
C1201 C 0.38816 0.61561 0.24231 0.0
C1202 C 0.43659 0.63835 0.17291 0.0
C1203 C 0.42772 0.5943 0.16927 0.0
H1204 H 0.42966 0.68394 0.21241 0.0
H1205 H 0.46179 0.6656 0.15103 0.0
S1206 S 0.34811 0.49367 0.24181 0.0
N1207 N 0.34594 0.53558 0.2643 0.0
N1208 N 0.38452 0.51628 0.19783 0.0
C1209 C 0.39601 0.56005 0.19942 0.0
C1210 C 0.37567 0.57067 0.23592 0.0
C1211 C 0.44982 0.3791 0.20071 0.0
C1212 C 0.40993 0.38247 0.19109 0.0
C1213 C 0.48879 0.41115 0.17835 0.0
C1214 C 0.48931 0.44763 0.14512 0.0
H1215 H 0.45131 0.35244 0.22709 0.0
H1216 H 0.51884 0.40737 0.18744 0.0
S1217 S 0.39081 0.46658 0.10229 0.0
N1218 N 0.37186 0.42221 0.14354 0.0
N1219 N 0.44418 0.48153 0.10009 0.0
C1220 C 0.44884 0.45002 0.13397 0.0
C1221 C 0.40944 0.41768 0.15722 0.0
C1222 C 0.89318 0.62177 0.5724 0.0
C1223 C 0.87958 0.62228 0.62024 0.0
C1224 C 0.9185 0.59971 0.56625 0.0
C1225 C 0.93162 0.57708 0.60746 0.0
H1226 H 0.88553 0.63983 0.53924 0.0
H1227 H 0.92983 0.6025 0.52935 0.0
S1228 S 0.90724 0.56857 0.74095 0.0
N1229 N 0.88167 0.59666 0.7098 0.0
N1230 N 0.93127 0.558 0.69806 0.0
C1231 C 0.91899 0.57753 0.65544 0.0
C1232 C 0.89253 0.59928 0.66185 0.0
C1233 C 0.43403 0.90508 0.71692 0.0
C1234 C 0.4014 0.86553 0.69698 0.0
C1235 C 0.46946 0.93892 0.68787 0.0
C1236 C 0.47586 0.93552 0.63714 0.0
H1237 H 0.43045 0.91161 0.75412 0.0
H1238 H 0.49099 0.96946 0.70473 0.0
S1239 S 0.40008 0.83946 0.5658 0.0
N1240 N 0.37848 0.82651 0.62139 0.0
N1241 N 0.44472 0.8877 0.56936 0.0
C1242 C 0.44438 0.89546 0.61762 0.0
C1243 C 0.40771 0.86161 0.64655 0.0
C1244 C 0.20801 0.3289 0.70566 0.0
C1245 C 0.24696 0.34589 0.73785 0.0
C1246 C 0.18894 0.35622 0.68047 0.0
C1247 C 0.20692 0.40178 0.68756 0.0
H1248 H 0.19165 0.29374 0.70041 0.0
H1249 H 0.15894 0.34107 0.6566 0.0
S1250 S 0.30915 0.46314 0.76766 0.0
N1251 N 0.30307 0.41154 0.77475 0.0
N1252 N 0.26756 0.46277 0.72869 0.0
C1253 C 0.24623 0.41928 0.71944 0.0
C1254 C 0.26596 0.39147 0.74443 0.0
C1255 C 0.7164 0.17119 0.66652 0.0
C1256 C 0.74323 0.16649 0.70951 0.0
C1257 C 0.69139 0.13629 0.6342 0.0
C1258 C 0.69191 0.0941 0.64147 0.0
H1259 H 0.7142 0.20216 0.65755 0.0
H1260 H 0.67186 0.14298 0.60232 0.0
S1261 S 0.75652 0.06291 0.74751 0.0
N1262 N 0.76769 0.11418 0.75662 0.0
N1263 N 0.72282 0.05072 0.69626 0.0
C1264 C 0.71896 0.08906 0.68386 0.0
C1265 C 0.74372 0.12425 0.71736 0.0
C1266 C 0.94312 0.36998 0.40254 0.0
C1267 C 0.89668 0.35125 0.40558 0.0
C1268 C 0.97321 0.39842 0.43855 0.0
C1269 C 0.9583 0.40975 0.47908 0.0
H1270 H 0.9564 0.36383 0.37131 0.0
H1271 H 1.00837 0.41258 0.4337 0.0
S1272 S 0.84016 0.36795 0.50537 0.0
N1273 N 0.83814 0.34484 0.45471 0.0
N1274 N 0.89317 0.39821 0.51979 0.0
C1275 C 0.91201 0.39026 0.48283 0.0
C1276 C 0.88179 0.3612 0.44694 0.0
C1277 C 0.77341 0.89517 0.41264 0.0
C1278 C 0.75704 0.87008 0.36872 0.0
C1279 C 0.74902 0.91265 0.43827 0.0
C1280 C 0.70526 0.90856 0.4225 0.0
H1281 H 0.80663 0.90236 0.42775 0.0
H1282 H 0.76586 0.93099 0.47057 0.0
S1283 S 0.64515 0.84858 0.30817 0.0
N1284 N 0.69199 0.84464 0.31127 0.0
N1285 N 0.64833 0.87591 0.35609 0.0
C1286 C 0.68886 0.88381 0.37837 0.0
C1287 C 0.71353 0.86576 0.35285 0.0
C1288 C 0.18501 0.66727 0.38185 0.0
C1289 C 0.20707 0.7092 0.40171 0.0
C1290 C 0.16328 0.62663 0.41329 0.0
C1291 C 0.16185 0.62591 0.46606 0.0
H1292 H 0.18553 0.66568 0.34187 0.0
H1293 H 0.14916 0.59545 0.39639 0.0
S1294 S 0.20933 0.72601 0.53644 0.0
N1295 N 0.22155 0.74664 0.47758 0.0
N1296 N 0.18233 0.67144 0.53554 0.0
C1297 C 0.18184 0.66763 0.48564 0.0
C1298 C 0.20344 0.70876 0.45387 0.0
C1299 C 0.36292 0.17889 0.36896 0.0
C1300 C 0.38019 0.22472 0.34651 0.0
C1301 C 0.38899 0.15538 0.39307 0.0
C1302 C 0.43684 0.17383 0.39856 0.0
H1303 H 0.32726 0.1595 0.36698 0.0
H1304 H 0.37038 0.12093 0.40758 0.0
S1305 S 0.50362 0.28996 0.33919 0.0
N1306 N 0.45265 0.28432 0.32651 0.0
N1307 N 0.49945 0.2435 0.37251 0.0
C1308 C 0.45502 0.21949 0.37531 0.0
C1309 C 0.42818 0.24319 0.34953 0.0
C1310 C 0.73791 0.86873 0.71038 0.0
C1311 C 0.78264 0.87864 0.70456 0.0
C1312 C 0.71512 0.89087 0.67851 0.0
C1313 C 0.73545 0.92475 0.63873 0.0
H1314 H 0.72071 0.84479 0.74111 0.0
H1315 H 0.68138 0.882 0.68612 0.0
S1316 S 0.85062 0.9604 0.60368 0.0
N1317 N 0.84519 0.92429 0.65374 0.0
N1318 N 0.8029 0.96284 0.5937 0.0
C1319 C 0.77953 0.9334 0.63166 0.0
C1320 C 0.80276 0.91161 0.66444 0.0
C1321 C 0.76179 0.17363 0.417 0.0
C1322 C 0.74986 0.1944 0.37287 0.0
C1323 C 0.73119 0.13294 0.4394 0.0
C1324 C 0.68752 0.11204 0.4188 0.0
H1325 H 0.79536 0.18847 0.43373 0.0
H1326 H 0.74182 0.11748 0.47284 0.0
S1327 S 0.63925 0.15161 0.30376 0.0
N1328 N 0.6913 0.18993 0.30861 0.0
N1329 N 0.63317 0.11433 0.3528 0.0
C1330 C 0.67461 0.13256 0.37553 0.0
C1331 C 0.70602 0.17359 0.35193 0.0
C1332 C 0.83139 0.5382 0.4483 0.0
C1333 C 0.84151 0.57905 0.41939 0.0
C1334 C 0.86393 0.52428 0.46327 0.0
C1335 C 0.90806 0.551 0.45061 0.0
H1336 H 0.79856 0.5177 0.46171 0.0
H1337 H 0.85471 0.49332 0.48737 0.0
S1338 S 0.95042 0.65756 0.36901 0.0
N1339 N 0.89744 0.64348 0.37288 0.0
N1340 N 0.95957 0.61788 0.40353 0.0
C1341 C 0.91843 0.59088 0.4197 0.0
C1342 C 0.88489 0.60479 0.40349 0.0
C1343 C 0.38094 0.90961 0.42869 0.0
C1344 C 0.38817 0.88218 0.40012 0.0
C1345 C 0.41623 0.94578 0.44937 0.0
C1346 C 0.4602 0.95577 0.44233 0.0
H1347 H 0.34774 0.90383 0.43402 0.0
H1348 H 0.40891 0.96656 0.47023 0.0
S1349 S 0.49713 0.89202 0.37361 0.0
N1350 N 0.44255 0.86548 0.36837 0.0
N1351 N 0.50931 0.93367 0.40745 0.0
C1352 C 0.46809 0.92707 0.41628 0.0
C1353 C 0.43195 0.89011 0.39519 0.0
C1354 C 0.32559 0.50455 0.52998 0.0
C1355 C 0.31431 0.46076 0.52071 0.0
C1356 C 0.29312 0.51539 0.54288 0.0
C1357 C 0.24893 0.48271 0.54613 0.0
H1358 H 0.35889 0.53072 0.52477 0.0
H1359 H 0.30199 0.54977 0.54734 0.0
S1360 S 0.20376 0.36311 0.52943 0.0
N1361 N 0.25683 0.38427 0.51927 0.0
N1362 N 0.19604 0.40516 0.54219 0.0
C1363 C 0.23786 0.43877 0.5391 0.0
C1364 C 0.27057 0.42766 0.52653 0.0
C1365 C 0.42816 0.17934 0.55836 0.0
C1366 C 0.44679 0.20519 0.59956 0.0
C1367 C 0.4425 0.14828 0.54854 0.0
C1368 C 0.47677 0.14268 0.57885 0.0
H1369 H 0.40274 0.18354 0.53317 0.0
H1370 H 0.42714 0.12918 0.5165 0.0
S1371 S 0.53377 0.20087 0.69379 0.0
N1372 N 0.49885 0.22154 0.6724 0.0
N1373 N 0.52651 0.16438 0.65451 0.0
C1374 C 0.49436 0.16757 0.62133 0.0
C1375 C 0.47931 0.19854 0.63142 0.0
C1376 C 0.96139 0.37103 0.77048 0.0
C1377 C 0.9211 0.33779 0.75094 0.0
C1378 C 0.99175 0.40645 0.73886 0.0
C1379 C 0.98493 0.40911 0.68575 0.0
H1380 H 0.96841 0.37105 0.81099 0.0
H1381 H 1.02009 0.43291 0.75633 0.0
S1382 S 0.88896 0.32584 0.61499 0.0
N1383 N 0.87875 0.30732 0.67469 0.0
N1384 N 0.93627 0.37198 0.61537 0.0
C1385 C 0.94637 0.37411 0.66572 0.0
C1386 C 0.91467 0.33889 0.69807 0.0
C1387 C 0.23725 0.64523 0.71551 0.0
C1388 C 0.22212 0.67752 0.71506 0.0
C1389 C 0.21177 0.60564 0.69294 0.0
C1390 C 0.17001 0.5965 0.66809 0.0
H1391 H 0.26916 0.65032 0.73372 0.0
H1392 H 0.22556 0.58232 0.69448 0.0
S1393 S 0.11506 0.67045 0.65588 0.0
N1394 N 0.16234 0.69768 0.68825 0.0
N1395 N 0.11468 0.62364 0.64459 0.0
C1396 C 0.15428 0.62852 0.66743 0.0
C1397 C 0.18017 0.6688 0.69123 0.0
loop_
_geom_bond_atom_site_label_1
_geom_bond_atom_site_label_2
_geom_bond_distance
_geom_bond_site_symmetry_2
_ccdc_geom_bond_type
Gd0 N31 2.661 . S
Gd0 N37 2.601 . S
Gd0 O44 2.545 . S
Gd0 O45 2.606 . S
Gd0 O47 2.429 . S
Gd0 O48 2.545 . S
Gd0 O49 2.412 . S
Gd0 O51 2.362 . S
Gd0 O52 2.324 . S
Gd0 C59 2.828 . S
Gd1 N10 2.661 . S
Gd1 N14 2.601 . S
Gd1 O45 2.362 . S
Gd1 O46 2.324 . S
Gd1 O50 2.545 . S
Gd1 O51 2.606 . S
Gd1 O53 2.429 . S
Gd1 O54 2.545 . S
Gd1 O55 2.412 . S
Gd1 C68 2.828 . S
C2 C5 1.417 . S
C2 C7 1.431 . S
C2 C8 1.412 . S
C3 C6 1.437 . S
C3 C7 1.317 . S
C3 H22 0.929 . S
C4 C5 1.426 . S
C4 C6 1.413 . S
C4 N14 1.359 . S
C5 C2 1.417 . S
C5 C4 1.426 . S
C5 N10 1.350 . S
C6 C3 1.437 . S
C6 C4 1.413 . S
C6 C16 1.391 . S
C7 C2 1.431 . S
C7 C3 1.317 . S
C7 H18 0.930 . S
C8 C2 1.412 . S
C8 C9 1.355 . S
C8 H20 0.930 . S
C9 C8 1.355 . S
C9 C11 1.402 . S
C9 H21 0.930 . S
N10 Gd1 2.661 . S
N10 C5 1.350 . S
N10 C11 1.307 . S
C11 C9 1.402 . S
C11 N10 1.307 . S
C11 H12 0.930 . S
H12 C11 0.930 . S
C13 N14 1.334 . S
C13 C15 1.394 . S
C13 H17 0.930 . S
N14 Gd1 2.601 . S
N14 C4 1.359 . S
N14 C13 1.334 . S
C15 C13 1.394 . S
C15 C16 1.359 . S
C15 H27 0.930 . S
C16 C6 1.391 . S
C16 C15 1.359 . S
C16 H28 0.929 . S
H17 C13 0.930 . S
H18 C7 0.930 . S
H19 C36 0.930 . S
H20 C8 0.930 . S
H21 C9 0.930 . S
H22 C3 0.929 . S
H23 C41 0.930 . S
H24 C32 0.930 . S
H25 C33 0.930 . S
H26 C57 0.929 . S
H27 C15 0.930 . S
H28 C16 0.929 . S
H29 C58 0.930 . S
H30 C39 0.930 . S
N31 Gd0 2.661 . S
N31 C35 1.350 . S
N31 C36 1.307 . S
C32 H24 0.930 . S
C32 C33 1.355 . S
C32 C34 1.412 . S
C33 H25 0.930 . S
C33 C32 1.355 . S
C33 C36 1.402 . S
C34 C32 1.412 . S
C34 C35 1.417 . S
C34 C58 1.431 . S
C35 N31 1.350 . S
C35 C34 1.417 . S
C35 C38 1.426 . S
C36 H19 0.930 . S
C36 N31 1.307 . S
C36 C33 1.402 . S
N37 Gd0 2.601 . S
N37 C38 1.359 . S
N37 C41 1.334 . S
C38 C35 1.426 . S
C38 N37 1.359 . S
C38 C42 1.413 . S
C39 H30 0.930 . S
C39 C40 1.359 . S
C39 C41 1.394 . S
C40 C39 1.359 . S
C40 C42 1.391 . S
C40 H43 0.929 . S
C41 H23 0.930 . S
C41 N37 1.334 . S
C41 C39 1.394 . S
C42 C38 1.413 . S
C42 C40 1.391 . S
C42 C57 1.437 . S
H43 C40 0.929 . S
O44 Gd0 2.545 . S
O44 C59 1.258 . S
O45 Gd0 2.606 . S
O45 Gd1 2.362 . S
O45 C56 1.284 . S
O46 Gd1 2.324 . S
O46 C66 1.254 . S
O47 Gd0 2.429 . S
O47 C66 1.268 . S
O48 Gd0 2.545 . S
O48 C56 1.250 . S
O49 Gd0 2.412 . S
O49 C59 1.252 . S
O50 Gd1 2.545 . S
O50 C68 1.258 . S
O51 Gd0 2.362 . S
O51 Gd1 2.606 . S
O51 C67 1.284 . S
O52 Gd0 2.324 . S
O52 C75 1.254 . S
O53 Gd1 2.429 . S
O53 C75 1.268 . S
O54 Gd1 2.545 . S
O54 C67 1.250 . S
O55 Gd1 2.412 . S
O55 C68 1.252 . S
C56 O45 1.284 . S
C56 O48 1.250 . S
C57 H26 0.929 . S
C57 C42 1.437 . S
C57 C58 1.317 . S
C58 H29 0.930 . S
C58 C34 1.431 . S
C58 C57 1.317 . S
C59 Gd0 2.828 . S
C59 O44 1.258 . S
C59 O49 1.252 . S
C59 C60 1.497 . S
C60 C59 1.497 . S
C60 C61 1.395 . S
C60 C62 1.380 . S
C61 C60 1.395 . S
C61 C64 1.398 . S
C61 H76 0.930 . S
C62 C60 1.380 . S
C62 C63 1.391 . S
C62 H77 0.930 . S
C63 C62 1.391 . S
C63 C65 1.387 . S
C64 C61 1.398 . S
C64 C65 1.380 . S
C64 H78 0.930 . S
C65 C63 1.387 . S
C65 C64 1.380 . S
C65 H79 0.930 . S
C66 O46 1.254 . S
C66 O47 1.268 . S
C67 O51 1.284 . S
C67 O54 1.250 . S
C68 Gd1 2.828 . S
C68 O50 1.258 . S
C68 O55 1.252 . S
C68 C69 1.497 . S
C69 C68 1.497 . S
C69 C70 1.395 . S
C69 C71 1.380 . S
C70 C69 1.395 . S
C70 C73 1.398 . S
C70 H80 0.930 . S
C71 C69 1.380 . S
C71 C72 1.391 . S
C71 H81 0.930 . S
C72 C71 1.391 . S
C72 C74 1.387 . S
C73 C70 1.398 . S
C73 C74 1.380 . S
C73 H82 0.930 . S
C74 C72 1.387 . S
C74 C73 1.380 . S
C74 H83 0.930 . S
C75 O52 1.254 . S
C75 O53 1.268 . S
H76 C61 0.930 . S
H77 C62 0.930 . S
H78 C64 0.930 . S
H79 C65 0.930 . S
H80 C70 0.930 . S
H81 C71 0.930 . S
H82 C73 0.930 . S
H83 C74 0.930 . S
Gd84 N115 2.661 . S
Gd84 N121 2.601 . S
Gd84 O128 2.545 . S
Gd84 O129 2.606 . S
Gd84 O131 2.429 . S
Gd84 O132 2.545 . S
Gd84 O133 2.412 . S
Gd84 O135 2.362 . S
Gd84 O136 2.324 . S
Gd84 C143 2.828 . S
Gd85 N94 2.661 . S
Gd85 N98 2.601 . S
Gd85 O129 2.362 . S
Gd85 O130 2.324 . S
Gd85 O134 2.545 . S
Gd85 O135 2.606 . S
Gd85 O137 2.429 . S
Gd85 O138 2.545 . S
Gd85 O139 2.412 . S
Gd85 C152 2.828 . S
C86 C89 1.417 . S
C86 C91 1.431 . S
C86 C92 1.412 . S
C87 C90 1.437 . S
C87 C91 1.317 . S
C87 H106 0.929 . S
C88 C89 1.426 . S
C88 C90 1.413 . S
C88 N98 1.359 . S
C89 C86 1.417 . S
C89 C88 1.426 . S
C89 N94 1.350 . S
C90 C87 1.437 . S
C90 C88 1.413 . S
C90 C100 1.391 . S
C91 C86 1.431 . S
C91 C87 1.317 . S
C91 H102 0.930 . S
C92 C86 1.412 . S
C92 C93 1.355 . S
C92 H104 0.930 . S
C93 C92 1.355 . S
C93 C95 1.402 . S
C93 H105 0.930 . S
N94 Gd85 2.661 . S
N94 C89 1.350 . S
N94 C95 1.307 . S
C95 C93 1.402 . S
C95 N94 1.307 . S
C95 H96 0.930 . S
H96 C95 0.930 . S
C97 N98 1.334 . S
C97 C99 1.394 . S
C97 H101 0.930 . S
N98 Gd85 2.601 . S
N98 C88 1.359 . S
N98 C97 1.334 . S
C99 C97 1.394 . S
C99 C100 1.359 . S
C99 H111 0.930 . S
C100 C90 1.391 . S
C100 C99 1.359 . S
C100 H112 0.929 . S
H101 C97 0.930 . S
H102 C91 0.930 . S
H103 C120 0.930 . S
H104 C92 0.930 . S
H105 C93 0.930 . S
H106 C87 0.929 . S
H107 C125 0.930 . S
H108 C116 0.930 . S
H109 C117 0.930 . S
H110 C141 0.929 . S
H111 C99 0.930 . S
H112 C100 0.929 . S
H113 C142 0.930 . S
H114 C123 0.930 . S
N115 Gd84 2.661 . S
N115 C119 1.350 . S
N115 C120 1.307 . S
C116 H108 0.930 . S
C116 C117 1.355 . S
C116 C118 1.412 . S
C117 H109 0.930 . S
C117 C116 1.355 . S
C117 C120 1.402 . S
C118 C116 1.412 . S
C118 C119 1.417 . S
C118 C142 1.431 . S
C119 N115 1.350 . S
C119 C118 1.417 . S
C119 C122 1.426 . S
C120 H103 0.930 . S
C120 N115 1.307 . S
C120 C117 1.402 . S
N121 Gd84 2.601 . S
N121 C122 1.359 . S
N121 C125 1.334 . S
C122 C119 1.426 . S
C122 N121 1.359 . S
C122 C126 1.413 . S
C123 H114 0.930 . S
C123 C124 1.359 . S
C123 C125 1.394 . S
C124 C123 1.359 . S
C124 C126 1.391 . S
C124 H127 0.929 . S
C125 H107 0.930 . S
C125 N121 1.334 . S
C125 C123 1.394 . S
C126 C122 1.413 . S
C126 C124 1.391 . S
C126 C141 1.437 . S
H127 C124 0.929 . S
O128 Gd84 2.545 . S
O128 C143 1.258 . S
O129 Gd84 2.606 . S
O129 Gd85 2.362 . S
O129 C140 1.284 . S
O130 Gd85 2.324 . S
O130 C150 1.254 . S
O131 Gd84 2.429 . S
O131 C150 1.268 . S
O132 Gd84 2.545 . S
O132 C140 1.250 . S
O133 Gd84 2.412 . S
O133 C143 1.252 . S
O134 Gd85 2.545 . S
O134 C152 1.258 . S
O135 Gd84 2.362 . S
O135 Gd85 2.606 . S
O135 C151 1.284 . S
O136 Gd84 2.324 . S
O136 C159 1.254 . S
O137 Gd85 2.429 . S
O137 C159 1.268 . S
O138 Gd85 2.545 . S
O138 C151 1.250 . S
O139 Gd85 2.412 . S
O139 C152 1.252 . S
C140 O129 1.284 . S
C140 O132 1.250 . S
C141 H110 0.929 . S
C141 C126 1.437 . S
C141 C142 1.317 . S
C142 H113 0.930 . S
C142 C118 1.431 . S
C142 C141 1.317 . S
C143 Gd84 2.828 . S
C143 O128 1.258 . S
C143 O133 1.252 . S
C143 C144 1.497 . S
C144 C143 1.497 . S
C144 C145 1.395 . S
C144 C146 1.380 . S
C145 C144 1.395 . S
C145 C148 1.398 . S
C145 H160 0.930 . S
C146 C144 1.380 . S
C146 C147 1.391 . S
C146 H161 0.930 . S
C147 C146 1.391 . S
C147 C149 1.387 . S
C148 C145 1.398 . S
C148 C149 1.380 . S
C148 H162 0.930 . S
C149 C147 1.387 . S
C149 C148 1.380 . S
C149 H163 0.930 . S
C150 O130 1.254 . S
C150 O131 1.268 . S
C151 O135 1.284 . S
C151 O138 1.250 . S
C152 Gd85 2.828 . S
C152 O134 1.258 . S
C152 O139 1.252 . S
C152 C153 1.497 . S
C153 C152 1.497 . S
C153 C154 1.395 . S
C153 C155 1.380 . S
C154 C153 1.395 . S
C154 C157 1.398 . S
C154 H164 0.930 . S
C155 C153 1.380 . S
C155 C156 1.391 . S
C155 H165 0.930 . S
C156 C155 1.391 . S
C156 C158 1.387 . S
C157 C154 1.398 . S
C157 C158 1.380 . S
C157 H166 0.930 . S
C158 C156 1.387 . S
C158 C157 1.380 . S
C158 H167 0.930 . S
C159 O136 1.254 . S
C159 O137 1.268 . S
H160 C145 0.930 . S
H161 C146 0.930 . S
H162 C148 0.930 . S
H163 C149 0.930 . S
H164 C154 0.930 . S
H165 C155 0.930 . S
H166 C157 0.930 . S
H167 C158 0.930 . S
Gd168 N199 2.661 . S
Gd168 N205 2.601 . S
Gd168 O212 2.545 . S
Gd168 O213 2.606 . S
Gd168 O215 2.429 . S
Gd168 O216 2.545 . S
Gd168 O217 2.412 . S
Gd168 O219 2.362 . S
Gd168 O220 2.324 . S
Gd168 C227 2.828 . S
Gd169 N178 2.661 . S
Gd169 N182 2.601 . S
Gd169 O213 2.362 . S
Gd169 O214 2.324 . S
Gd169 O218 2.545 . S
Gd169 O219 2.606 . S
Gd169 O221 2.429 . S
Gd169 O222 2.545 . S
Gd169 O223 2.412 . S
Gd169 C236 2.828 . S
C170 C173 1.417 . S
C170 C175 1.431 . S
C170 C176 1.412 . S
C171 C174 1.437 . S
C171 C175 1.317 . S
C171 H190 0.929 . S
C172 C173 1.426 . S
C172 C174 1.413 . S
C172 N182 1.359 . S
C173 C170 1.417 . S
C173 C172 1.426 . S
C173 N178 1.350 . S
C174 C171 1.437 . S
C174 C172 1.413 . S
C174 C184 1.391 . S
C175 C170 1.431 . S
C175 C171 1.317 . S
C175 H186 0.930 . S
C176 C170 1.412 . S
C176 C177 1.355 . S
C176 H188 0.930 . S
C177 C176 1.355 . S
C177 C179 1.402 . S
C177 H189 0.930 . S
N178 Gd169 2.661 . S
N178 C173 1.350 . S
N178 C179 1.307 . S
C179 C177 1.402 . S
C179 N178 1.307 . S
C179 H180 0.930 . S
H180 C179 0.930 . S
C181 N182 1.334 . S
C181 C183 1.394 . S
C181 H185 0.930 . S
N182 Gd169 2.601 . S
N182 C172 1.359 . S
N182 C181 1.334 . S
C183 C181 1.394 . S
C183 C184 1.359 . S
C183 H195 0.930 . S
C184 C174 1.391 . S
C184 C183 1.359 . S
C184 H196 0.929 . S
H185 C181 0.930 . S
H186 C175 0.930 . S
H187 C204 0.930 . S
H188 C176 0.930 . S
H189 C177 0.930 . S
H190 C171 0.929 . S
H191 C209 0.930 . S
H192 C200 0.930 . S
H193 C201 0.930 . S
H194 C225 0.929 . S
H195 C183 0.930 . S
H196 C184 0.929 . S
H197 C226 0.930 . S
H198 C207 0.930 . S
N199 Gd168 2.661 . S
N199 C203 1.350 . S
N199 C204 1.307 . S
C200 H192 0.930 . S
C200 C201 1.355 . S
C200 C202 1.412 . S
C201 H193 0.930 . S
C201 C200 1.355 . S
C201 C204 1.402 . S
C202 C200 1.412 . S
C202 C203 1.417 . S
C202 C226 1.431 . S
C203 N199 1.350 . S
C203 C202 1.417 . S
C203 C206 1.426 . S
C204 H187 0.930 . S
C204 N199 1.307 . S
C204 C201 1.402 . S
N205 Gd168 2.601 . S
N205 C206 1.359 . S
N205 C209 1.334 . S
C206 C203 1.426 . S
C206 N205 1.359 . S
C206 C210 1.413 . S
C207 H198 0.930 . S
C207 C208 1.359 . S
C207 C209 1.394 . S
C208 C207 1.359 . S
C208 C210 1.391 . S
C208 H211 0.929 . S
C209 H191 0.930 . S
C209 N205 1.334 . S
C209 C207 1.394 . S
C210 C206 1.413 . S
C210 C208 1.391 . S
C210 C225 1.437 . S
H211 C208 0.929 . S
O212 Gd168 2.545 . S
O212 C227 1.258 . S
O213 Gd168 2.606 . S
O213 Gd169 2.362 . S
O213 C224 1.284 . S
O214 Gd169 2.324 . S
O214 C234 1.254 . S
O215 Gd168 2.429 . S
O215 C234 1.268 . S
O216 Gd168 2.545 . S
O216 C224 1.250 . S
O217 Gd168 2.412 . S
O217 C227 1.252 . S
O218 Gd169 2.545 . S
O218 C236 1.258 . S
O219 Gd168 2.362 . S
O219 Gd169 2.606 . S
O219 C235 1.284 . S
O220 Gd168 2.324 . S
O220 C243 1.254 . S
O221 Gd169 2.429 . S
O221 C243 1.268 . S
O222 Gd169 2.545 . S
O222 C235 1.250 . S
O223 Gd169 2.412 . S
O223 C236 1.252 . S
C224 O213 1.284 . S
C224 O216 1.250 . S
C225 H194 0.929 . S
C225 C210 1.437 . S
C225 C226 1.317 . S
C226 H197 0.930 . S
C226 C202 1.431 . S
C226 C225 1.317 . S
C227 Gd168 2.828 . S
C227 O212 1.258 . S
C227 O217 1.252 . S
C227 C228 1.497 . S
C228 C227 1.497 . S
C228 C229 1.395 . S
C228 C230 1.380 . S
C229 C228 1.395 . S
C229 C232 1.398 . S
C229 H244 0.930 . S
C230 C228 1.380 . S
C230 C231 1.391 . S
C230 H245 0.930 . S
C231 C230 1.391 . S
C231 C233 1.387 . S
C232 C229 1.398 . S
C232 C233 1.380 . S
C232 H246 0.930 . S
C233 C231 1.387 . S
C233 C232 1.380 . S
C233 H247 0.930 . S
C234 O214 1.254 . S
C234 O215 1.268 . S
C235 O219 1.284 . S
C235 O222 1.250 . S
C236 Gd169 2.828 . S
C236 O218 1.258 . S
C236 O223 1.252 . S
C236 C237 1.497 . S
C237 C236 1.497 . S
C237 C238 1.395 . S
C237 C239 1.380 . S
C238 C237 1.395 . S
C238 C241 1.398 . S
C238 H248 0.930 . S
C239 C237 1.380 . S
C239 C240 1.391 . S
C239 H249 0.930 . S
C240 C239 1.391 . S
C240 C242 1.387 . S
C241 C238 1.398 . S
C241 C242 1.380 . S
C241 H250 0.930 1_565 S
C242 C240 1.387 . S
C242 C241 1.380 . S
C242 H251 0.930 . S
C243 O220 1.254 . S
C243 O221 1.268 . S
H244 C229 0.930 . S
H245 C230 0.930 . S
H246 C232 0.930 . S
H247 C233 0.930 . S
H248 C238 0.930 . S
H249 C239 0.930 . S
H250 C241 0.930 1_545 S
H251 C242 0.930 . S
Gd252 N283 2.661 . S
Gd252 N289 2.601 . S
Gd252 O296 2.545 . S
Gd252 O297 2.606 . S
Gd252 O299 2.429 . S
Gd252 O300 2.545 . S
Gd252 O301 2.412 . S
Gd252 O303 2.362 . S
Gd252 O304 2.324 . S
Gd252 C311 2.828 . S
Gd253 N262 2.661 . S
Gd253 N266 2.601 . S
Gd253 O297 2.362 . S
Gd253 O298 2.324 . S
Gd253 O302 2.545 . S
Gd253 O303 2.606 . S
Gd253 O305 2.429 . S
Gd253 O306 2.545 . S
Gd253 O307 2.412 . S
Gd253 C320 2.828 . S
C254 C257 1.417 . S
C254 C259 1.431 . S
C254 C260 1.412 . S
C255 C258 1.437 . S
C255 C259 1.317 . S
C255 H274 0.929 . S
C256 C257 1.426 . S
C256 C258 1.413 . S
C256 N266 1.359 . S
C257 C254 1.417 . S
C257 C256 1.426 . S
C257 N262 1.350 . S
C258 C255 1.437 . S
C258 C256 1.413 . S
C258 C268 1.391 . S
C259 C254 1.431 . S
C259 C255 1.317 . S
C259 H270 0.930 . S
C260 C254 1.412 . S
C260 C261 1.355 . S
C260 H272 0.930 . S
C261 C260 1.355 . S
C261 C263 1.402 . S
C261 H273 0.930 . S
N262 Gd253 2.661 . S
N262 C257 1.350 . S
N262 C263 1.307 . S
C263 C261 1.402 . S
C263 N262 1.307 . S
C263 H264 0.930 . S
H264 C263 0.930 . S
C265 N266 1.334 . S
C265 C267 1.394 . S
C265 H269 0.930 . S
N266 Gd253 2.601 . S
N266 C256 1.359 . S
N266 C265 1.334 . S
C267 C265 1.394 . S
C267 C268 1.359 . S
C267 H279 0.930 . S
C268 C258 1.391 . S
C268 C267 1.359 . S
C268 H280 0.929 . S
H269 C265 0.930 . S
H270 C259 0.930 . S
H271 C288 0.930 . S
H272 C260 0.930 . S
H273 C261 0.930 . S
H274 C255 0.929 . S
H275 C293 0.930 . S
H276 C284 0.930 1_545 S
H277 C285 0.930 . S
H278 C309 0.929 . S
H279 C267 0.930 . S
H280 C268 0.929 . S
H281 C310 0.930 . S
H282 C291 0.930 . S
N283 Gd252 2.661 . S
N283 C287 1.350 . S
N283 C288 1.307 . S
C284 H276 0.930 1_565 S
C284 C285 1.355 . S
C284 C286 1.412 . S
C285 H277 0.930 . S
C285 C284 1.355 . S
C285 C288 1.402 . S
C286 C284 1.412 . S
C286 C287 1.417 . S
C286 C310 1.431 . S
C287 N283 1.350 . S
C287 C286 1.417 . S
C287 C290 1.426 . S
C288 H271 0.930 . S
C288 N283 1.307 . S
C288 C285 1.402 . S
N289 Gd252 2.601 . S
N289 C290 1.359 . S
N289 C293 1.334 . S
C290 C287 1.426 . S
C290 N289 1.359 . S
C290 C294 1.413 . S
C291 H282 0.930 . S
C291 C292 1.359 . S
C291 C293 1.394 . S
C292 C291 1.359 . S
C292 C294 1.391 . S
C292 H295 0.929 . S
C293 H275 0.930 . S
C293 N289 1.334 . S
C293 C291 1.394 . S
C294 C290 1.413 . S
C294 C292 1.391 . S
C294 C309 1.437 . S
H295 C292 0.929 . S
O296 Gd252 2.545 . S
O296 C311 1.258 . S
O297 Gd252 2.606 . S
O297 Gd253 2.362 . S
O297 C308 1.284 . S
O298 Gd253 2.324 . S
O298 C318 1.254 . S
O299 Gd252 2.429 . S
O299 C318 1.268 . S
O300 Gd252 2.545 . S
O300 C308 1.250 . S
O301 Gd252 2.412 . S
O301 C311 1.252 . S
O302 Gd253 2.545 . S
O302 C320 1.258 . S
O303 Gd252 2.362 . S
O303 Gd253 2.606 . S
O303 C319 1.284 . S
O304 Gd252 2.324 . S
O304 C327 1.254 . S
O305 Gd253 2.429 . S
O305 C327 1.268 . S
O306 Gd253 2.545 . S
O306 C319 1.250 . S
O307 Gd253 2.412 . S
O307 C320 1.252 . S
C308 O297 1.284 . S
C308 O300 1.250 . S
C309 H278 0.929 . S
C309 C294 1.437 . S
C309 C310 1.317 . S
C310 H281 0.930 . S
C310 C286 1.431 . S
C310 C309 1.317 . S
C311 Gd252 2.828 . S
C311 O296 1.258 . S
C311 O301 1.252 . S
C311 C312 1.497 . S
C312 C311 1.497 . S
C312 C313 1.395 . S
C312 C314 1.380 . S
C313 C312 1.395 . S
C313 C316 1.398 . S
C313 H328 0.930 . S
C314 C312 1.380 . S
C314 C315 1.391 . S
C314 H329 0.930 . S
C315 C314 1.391 . S
C315 C317 1.387 . S
C316 C313 1.398 . S
C316 C317 1.380 . S
C316 H330 0.930 . S
C317 C315 1.387 . S
C317 C316 1.380 . S
C317 H331 0.930 . S
C318 O298 1.254 . S
C318 O299 1.268 . S
C319 O303 1.284 . S
C319 O306 1.250 . S
C320 Gd253 2.828 . S
C320 O302 1.258 . S
C320 O307 1.252 . S
C320 C321 1.497 . S
C321 C320 1.497 . S
C321 C322 1.395 . S
C321 C323 1.380 . S
C322 C321 1.395 . S
C322 C325 1.398 . S
C322 H332 0.930 . S
C323 C321 1.380 . S
C323 C324 1.391 . S
C323 H333 0.930 . S
C324 C323 1.391 . S
C324 C326 1.387 . S
C325 C322 1.398 . S
C325 C326 1.380 . S
C325 H334 0.930 . S
C326 C324 1.387 . S
C326 C325 1.380 . S
C326 H335 0.930 . S
C327 O304 1.254 . S
C327 O305 1.268 . S
H328 C313 0.930 . S
H329 C314 0.930 . S
H330 C316 0.930 . S
H331 C317 0.930 . S
H332 C322 0.930 . S
H333 C323 0.930 . S
H334 C325 0.930 . S
H335 C326 0.930 . S
Gd336 N367 2.661 . S
Gd336 N373 2.601 . S
Gd336 O380 2.545 . S
Gd336 O381 2.606 . S
Gd336 O383 2.429 . S
Gd336 O384 2.545 . S
Gd336 O385 2.412 . S
Gd336 O387 2.362 . S
Gd336 O388 2.324 . S
Gd336 C395 2.828 . S
Gd337 N346 2.661 . S
Gd337 N350 2.601 . S
Gd337 O381 2.362 . S
Gd337 O382 2.324 . S
Gd337 O386 2.545 . S
Gd337 O387 2.606 . S
Gd337 O389 2.429 . S
Gd337 O390 2.545 . S
Gd337 O391 2.412 . S
Gd337 C404 2.828 . S
C338 C341 1.417 . S
C338 C343 1.431 . S
C338 C344 1.412 . S
C339 C342 1.437 . S
C339 C343 1.317 . S
C339 H358 0.929 . S
C340 C341 1.426 . S
C340 C342 1.413 . S
C340 N350 1.359 . S
C341 C338 1.417 . S
C341 C340 1.426 . S
C341 N346 1.350 . S
C342 C339 1.437 . S
C342 C340 1.413 . S
C342 C352 1.391 . S
C343 C338 1.431 . S
C343 C339 1.317 . S
C343 H354 0.930 . S
C344 C338 1.412 . S
C344 C345 1.355 . S
C344 H356 0.930 . S
C345 C344 1.355 . S
C345 C347 1.402 . S
C345 H357 0.930 . S
N346 Gd337 2.661 . S
N346 C341 1.350 . S
N346 C347 1.307 . S
C347 C345 1.402 . S
C347 N346 1.307 . S
C347 H348 0.930 . S
H348 C347 0.930 . S
C349 N350 1.334 . S
C349 C351 1.394 . S
C349 H353 0.930 . S
N350 Gd337 2.601 . S
N350 C340 1.359 . S
N350 C349 1.334 . S
C351 C349 1.394 . S
C351 C352 1.359 . S
C351 H363 0.930 . S
C352 C342 1.391 . S
C352 C351 1.359 . S
C352 H364 0.929 . S
H353 C349 0.930 . S
H354 C343 0.930 . S
H355 C372 0.930 . S
H356 C344 0.930 . S
H357 C345 0.930 . S
H358 C339 0.929 . S
H359 C377 0.930 . S
H360 C368 0.930 . S
H361 C369 0.930 . S
H362 C393 0.929 . S
H363 C351 0.930 . S
H364 C352 0.929 . S
H365 C394 0.930 . S
H366 C375 0.930 . S
N367 Gd336 2.661 . S
N367 C371 1.350 . S
N367 C372 1.307 . S
C368 H360 0.930 . S
C368 C369 1.355 . S
C368 C370 1.412 . S
C369 H361 0.930 . S
C369 C368 1.355 . S
C369 C372 1.402 . S
C370 C368 1.412 . S
C370 C371 1.417 . S
C370 C394 1.431 . S
C371 N367 1.350 . S
C371 C370 1.417 . S
C371 C374 1.426 . S
C372 H355 0.930 . S
C372 N367 1.307 . S
C372 C369 1.402 . S
N373 Gd336 2.601 . S
N373 C374 1.359 . S
N373 C377 1.334 . S
C374 C371 1.426 . S
C374 N373 1.359 . S
C374 C378 1.413 . S
C375 H366 0.930 . S
C375 C376 1.359 . S
C375 C377 1.394 . S
C376 C375 1.359 . S
C376 C378 1.391 . S
C376 H379 0.929 . S
C377 H359 0.930 . S
C377 N373 1.334 . S
C377 C375 1.394 . S
C378 C374 1.413 . S
C378 C376 1.391 . S
C378 C393 1.437 . S
H379 C376 0.929 . S
O380 Gd336 2.545 . S
O380 C395 1.258 . S
O381 Gd336 2.606 . S
O381 Gd337 2.362 . S
O381 C392 1.284 . S
O382 Gd337 2.324 . S
O382 C402 1.254 . S
O383 Gd336 2.429 . S
O383 C402 1.268 . S
O384 Gd336 2.545 . S
O384 C392 1.250 . S
O385 Gd336 2.412 . S
O385 C395 1.252 . S
O386 Gd337 2.545 . S
O386 C404 1.258 . S
O387 Gd336 2.362 . S
O387 Gd337 2.606 . S
O387 C403 1.284 . S
O388 Gd336 2.324 . S
O388 C411 1.254 . S
O389 Gd337 2.429 . S
O389 C411 1.268 . S
O390 Gd337 2.545 . S
O390 C403 1.250 . S
O391 Gd337 2.412 . S
O391 C404 1.252 . S
C392 O381 1.284 . S
C392 O384 1.250 . S
C393 H362 0.929 . S
C393 C378 1.437 . S
C393 C394 1.317 . S
C394 H365 0.930 . S
C394 C370 1.431 . S
C394 C393 1.317 . S
C395 Gd336 2.828 . S
C395 O380 1.258 . S
C395 O385 1.252 . S
C395 C396 1.497 . S
C396 C395 1.497 . S
C396 C397 1.395 . S
C396 C398 1.380 . S
C397 C396 1.395 . S
C397 C400 1.398 . S
C397 H412 0.930 . S
C398 C396 1.380 . S
C398 C399 1.391 . S
C398 H413 0.930 . S
C399 C398 1.391 . S
C399 C401 1.387 . S
C400 C397 1.398 . S
C400 C401 1.380 . S
C400 H414 0.930 . S
C401 C399 1.387 . S
C401 C400 1.380 . S
C401 H415 0.930 . S
C402 O382 1.254 . S
C402 O383 1.268 . S
C403 O387 1.284 . S
C403 O390 1.250 . S
C404 Gd337 2.828 . S
C404 O386 1.258 . S
C404 O391 1.252 . S
C404 C405 1.497 . S
C405 C404 1.497 . S
C405 C406 1.395 . S
C405 C407 1.380 . S
C406 C405 1.395 . S
C406 C409 1.398 . S
C406 H416 0.930 . S
C407 C405 1.380 . S
C407 C408 1.391 . S
C407 H417 0.930 . S
C408 C407 1.391 . S
C408 C410 1.387 . S
C409 C406 1.398 . S
C409 C410 1.380 . S
C409 H418 0.930 . S
C410 C408 1.387 . S
C410 C409 1.380 . S
C410 H419 0.930 . S
C411 O388 1.254 . S
C411 O389 1.268 . S
H412 C397 0.930 . S
H413 C398 0.930 . S
H414 C400 0.930 . S
H415 C401 0.930 . S
H416 C406 0.930 . S
H417 C407 0.930 . S
H418 C409 0.930 . S
H419 C410 0.930 . S
Gd420 N451 2.661 . S
Gd420 N457 2.601 . S
Gd420 O464 2.545 . S
Gd420 O465 2.606 . S
Gd420 O467 2.429 . S
Gd420 O468 2.545 . S
Gd420 O469 2.412 . S
Gd420 O471 2.362 . S
Gd420 O472 2.324 . S
Gd420 C479 2.828 . S
Gd421 N430 2.661 . S
Gd421 N434 2.601 . S
Gd421 O465 2.362 . S
Gd421 O466 2.324 . S
Gd421 O470 2.545 . S
Gd421 O471 2.606 . S
Gd421 O473 2.429 . S
Gd421 O474 2.545 . S
Gd421 O475 2.412 . S
Gd421 C488 2.828 . S
C422 C425 1.417 . S
C422 C427 1.431 1_556 S
C422 C428 1.412 1_556 S
C423 C426 1.437 . S
C423 C427 1.317 1_556 S
C423 H442 0.929 1_556 S
C424 C425 1.426 . S
C424 C426 1.413 . S
C424 N434 1.359 . S
C425 C422 1.417 . S
C425 C424 1.426 . S
C425 N430 1.350 . S
C426 C423 1.437 . S
C426 C424 1.413 . S
C426 C436 1.391 . S
C427 C422 1.431 1_554 S
C427 C423 1.317 1_554 S
C427 H438 0.930 . S
C428 C422 1.412 1_554 S
C428 C429 1.355 1_554 S
C428 H440 0.930 . S
C429 C428 1.355 1_556 S
C429 C431 1.402 . S
C429 H441 0.930 1_556 S
N430 Gd421 2.661 . S
N430 C425 1.350 . S
N430 C431 1.307 . S
C431 C429 1.402 . S
C431 N430 1.307 . S
C431 H432 0.930 . S
H432 C431 0.930 . S
C433 N434 1.334 . S
C433 C435 1.394 . S
C433 H437 0.930 . S
N434 Gd421 2.601 . S
N434 C424 1.359 . S
N434 C433 1.334 . S
C435 C433 1.394 . S
C435 C436 1.359 . S
C435 H447 0.930 . S
C436 C426 1.391 . S
C436 C435 1.359 . S
C436 H448 0.929 . S
H437 C433 0.930 . S
H438 C427 0.930 . S
H439 C456 0.930 . S
H440 C428 0.930 . S
H441 C429 0.930 1_554 S
H442 C423 0.929 1_554 S
H443 C461 0.930 . S
H444 C452 0.930 . S
H445 C453 0.930 . S
H446 C477 0.929 . S
H447 C435 0.930 . S
H448 C436 0.929 . S
H449 C478 0.930 . S
H450 C459 0.930 . S
N451 Gd420 2.661 . S
N451 C455 1.350 . S
N451 C456 1.307 . S
C452 H444 0.930 . S
C452 C453 1.355 . S
C452 C454 1.412 . S
C453 H445 0.930 . S
C453 C452 1.355 . S
C453 C456 1.402 . S
C454 C452 1.412 . S
C454 C455 1.417 . S
C454 C478 1.431 . S
C455 N451 1.350 . S
C455 C454 1.417 . S
C455 C458 1.426 . S
C456 H439 0.930 . S
C456 N451 1.307 . S
C456 C453 1.402 . S
N457 Gd420 2.601 . S
N457 C458 1.359 . S
N457 C461 1.334 . S
C458 C455 1.426 . S
C458 N457 1.359 . S
C458 C462 1.413 . S
C459 H450 0.930 . S
C459 C460 1.359 . S
C459 C461 1.394 . S
C460 C459 1.359 . S
C460 C462 1.391 . S
C460 H463 0.929 . S
C461 H443 0.930 . S
C461 N457 1.334 . S
C461 C459 1.394 . S
C462 C458 1.413 . S
C462 C460 1.391 . S
C462 C477 1.437 . S
H463 C460 0.929 . S
O464 Gd420 2.545 . S
O464 C479 1.258 . S
O465 Gd420 2.606 . S
O465 Gd421 2.362 . S
O465 C476 1.284 . S
O466 Gd421 2.324 . S
O466 C486 1.254 . S
O467 Gd420 2.429 . S
O467 C486 1.268 . S
O468 Gd420 2.545 . S
O468 C476 1.250 . S
O469 Gd420 2.412 . S
O469 C479 1.252 . S
O470 Gd421 2.545 . S
O470 C488 1.258 . S
O471 Gd420 2.362 . S
O471 Gd421 2.606 . S
O471 C487 1.284 . S
O472 Gd420 2.324 . S
O472 C495 1.254 . S
O473 Gd421 2.429 . S
O473 C495 1.268 . S
O474 Gd421 2.545 . S
O474 C487 1.250 . S
O475 Gd421 2.412 . S
O475 C488 1.252 . S
C476 O465 1.284 . S
C476 O468 1.250 . S
C477 H446 0.929 . S
C477 C462 1.437 . S
C477 C478 1.317 . S
C478 H449 0.930 . S
C478 C454 1.431 . S
C478 C477 1.317 . S
C479 Gd420 2.828 . S
C479 O464 1.258 . S
C479 O469 1.252 . S
C479 C480 1.497 . S
C480 C479 1.497 . S
C480 C481 1.395 . S
C480 C482 1.380 . S
C481 C480 1.395 . S
C481 C484 1.398 . S
C481 H496 0.930 . S
C482 C480 1.380 . S
C482 C483 1.391 . S
C482 H497 0.930 . S
C483 C482 1.391 . S
C483 C485 1.387 . S
C484 C481 1.398 . S
C484 C485 1.380 . S
C484 H498 0.930 . S
C485 C483 1.387 . S
C485 C484 1.380 . S
C485 H499 0.930 . S
C486 O466 1.254 . S
C486 O467 1.268 . S
C487 O471 1.284 . S
C487 O474 1.250 . S
C488 Gd421 2.828 . S
C488 O470 1.258 . S
C488 O475 1.252 . S
C488 C489 1.497 . S
C489 C488 1.497 . S
C489 C490 1.395 . S
C489 C491 1.380 . S
C490 C489 1.395 . S
C490 C493 1.398 . S
C490 H500 0.930 . S
C491 C489 1.380 . S
C491 C492 1.391 . S
C491 H501 0.930 . S
C492 C491 1.391 . S
C492 C494 1.387 . S
C493 C490 1.398 . S
C493 C494 1.380 . S
C493 H502 0.930 . S
C494 C492 1.387 . S
C494 C493 1.380 . S
C494 H503 0.930 . S
C495 O472 1.254 . S
C495 O473 1.268 . S
H496 C481 0.930 . S
H497 C482 0.930 . S
H498 C484 0.930 . S
H499 C485 0.930 . S
H500 C490 0.930 . S
H501 C491 0.930 . S
H502 C493 0.930 . S
H503 C494 0.930 . S
Gd504 N535 2.661 . S
Gd504 N541 2.601 . S
Gd504 O548 2.545 . S
Gd504 O549 2.606 . S
Gd504 O551 2.429 . S
Gd504 O552 2.545 . S
Gd504 O553 2.412 . S
Gd504 O555 2.362 . S
Gd504 O556 2.324 . S
Gd504 C563 2.828 . S
Gd505 N514 2.661 . S
Gd505 N518 2.601 . S
Gd505 O549 2.362 . S
Gd505 O550 2.324 . S
Gd505 O554 2.545 . S
Gd505 O555 2.606 . S
Gd505 O557 2.429 . S
Gd505 O558 2.545 . S
Gd505 O559 2.412 . S
Gd505 C572 2.828 . S
C506 C509 1.417 . S
C506 C511 1.431 . S
C506 C512 1.412 . S
C507 C510 1.437 1_554 S
C507 C511 1.317 1_554 S
C507 H526 0.929 . S
C508 C509 1.426 . S
C508 C510 1.413 . S
C508 N518 1.359 . S
C509 C506 1.417 . S
C509 C508 1.426 . S
C509 N514 1.350 . S
C510 C507 1.437 1_556 S
C510 C508 1.413 . S
C510 C520 1.391 1_556 S
C511 C506 1.431 . S
C511 C507 1.317 1_556 S
C511 H522 0.930 . S
C512 C506 1.412 . S
C512 C513 1.355 . S
C512 H524 0.930 . S
C513 C512 1.355 . S
C513 C515 1.402 . S
C513 H525 0.930 . S
N514 Gd505 2.661 . S
N514 C509 1.350 . S
N514 C515 1.307 . S
C515 C513 1.402 . S
C515 N514 1.307 . S
C515 H516 0.930 . S
H516 C515 0.930 . S
C517 N518 1.334 . S
C517 C519 1.394 . S
C517 H521 0.930 . S
N518 Gd505 2.601 . S
N518 C508 1.359 . S
N518 C517 1.334 . S
C519 C517 1.394 . S
C519 C520 1.359 1_556 S
C519 H531 0.930 1_556 S
C520 C510 1.391 1_554 S
C520 C519 1.359 1_554 S
C520 H532 0.929 . S
H521 C517 0.930 . S
H522 C511 0.930 . S
H523 C540 0.930 . S
H524 C512 0.930 . S
H525 C513 0.930 . S
H526 C507 0.929 . S
H527 C545 0.930 . S
H528 C536 0.930 . S
H529 C537 0.930 . S
H530 C561 0.929 . S
H531 C519 0.930 1_554 S
H532 C520 0.929 . S
H533 C562 0.930 . S
H534 C543 0.930 . S
N535 Gd504 2.661 . S
N535 C539 1.350 . S
N535 C540 1.307 . S
C536 H528 0.930 . S
C536 C537 1.355 . S
C536 C538 1.412 . S
C537 H529 0.930 . S
C537 C536 1.355 . S
C537 C540 1.402 . S
C538 C536 1.412 . S
C538 C539 1.417 . S
C538 C562 1.431 . S
C539 N535 1.350 . S
C539 C538 1.417 . S
C539 C542 1.426 . S
C540 H523 0.930 . S
C540 N535 1.307 . S
C540 C537 1.402 . S
N541 Gd504 2.601 . S
N541 C542 1.359 . S
N541 C545 1.334 . S
C542 C539 1.426 . S
C542 N541 1.359 . S
C542 C546 1.413 . S
C543 H534 0.930 . S
C543 C544 1.359 . S
C543 C545 1.394 . S
C544 C543 1.359 . S
C544 C546 1.391 . S
C544 H547 0.929 . S
C545 H527 0.930 . S
C545 N541 1.334 . S
C545 C543 1.394 . S
C546 C542 1.413 . S
C546 C544 1.391 . S
C546 C561 1.437 . S
H547 C544 0.929 . S
O548 Gd504 2.545 . S
O548 C563 1.258 . S
O549 Gd504 2.606 . S
O549 Gd505 2.362 . S
O549 C560 1.284 . S
O550 Gd505 2.324 . S
O550 C570 1.254 . S
O551 Gd504 2.429 . S
O551 C570 1.268 . S
O552 Gd504 2.545 . S
O552 C560 1.250 . S
O553 Gd504 2.412 . S
O553 C563 1.252 . S
O554 Gd505 2.545 . S
O554 C572 1.258 . S
O555 Gd504 2.362 . S
O555 Gd505 2.606 . S
O555 C571 1.284 . S
O556 Gd504 2.324 . S
O556 C579 1.254 . S
O557 Gd505 2.429 . S
O557 C579 1.268 . S
O558 Gd505 2.545 . S
O558 C571 1.250 . S
O559 Gd505 2.412 . S
O559 C572 1.252 . S
C560 O549 1.284 . S
C560 O552 1.250 . S
C561 H530 0.929 . S
C561 C546 1.437 . S
C561 C562 1.317 . S
C562 H533 0.930 . S
C562 C538 1.431 . S
C562 C561 1.317 . S
C563 Gd504 2.828 . S
C563 O548 1.258 . S
C563 O553 1.252 . S
C563 C564 1.497 . S
C564 C563 1.497 . S
C564 C565 1.395 . S
C564 C566 1.380 . S
C565 C564 1.395 . S
C565 C568 1.398 . S
C565 H580 0.930 . S
C566 C564 1.380 . S
C566 C567 1.391 . S
C566 H581 0.930 . S
C567 C566 1.391 . S
C567 C569 1.387 . S
C568 C565 1.398 . S
C568 C569 1.380 . S
C568 H582 0.930 . S
C569 C567 1.387 . S
C569 C568 1.380 . S
C569 H583 0.930 . S
C570 O550 1.254 . S
C570 O551 1.268 . S
C571 O555 1.284 . S
C571 O558 1.250 . S
C572 Gd505 2.828 . S
C572 O554 1.258 . S
C572 O559 1.252 . S
C572 C573 1.497 . S
C573 C572 1.497 . S
C573 C574 1.395 . S
C573 C575 1.380 . S
C574 C573 1.395 . S
C574 C577 1.398 . S
C574 H584 0.930 . S
C575 C573 1.380 . S
C575 C576 1.391 . S
C575 H585 0.930 . S
C576 C575 1.391 . S
C576 C578 1.387 . S
C577 C574 1.398 . S
C577 C578 1.380 . S
C577 H586 0.930 . S
C578 C576 1.387 . S
C578 C577 1.380 . S
C578 H587 0.930 . S
C579 O556 1.254 . S
C579 O557 1.268 . S
H580 C565 0.930 . S
H581 C566 0.930 . S
H582 C568 0.930 . S
H583 C569 0.930 . S
H584 C574 0.930 . S
H585 C575 0.930 . S
H586 C577 0.930 . S
H587 C578 0.930 . S
Gd588 N619 2.661 . S
Gd588 N625 2.601 . S
Gd588 O632 2.545 . S
Gd588 O633 2.606 . S
Gd588 O635 2.429 . S
Gd588 O636 2.545 . S
Gd588 O637 2.412 . S
Gd588 O639 2.362 . S
Gd588 O640 2.324 . S
Gd588 C647 2.828 . S
Gd589 N598 2.661 . S
Gd589 N602 2.601 . S
Gd589 O633 2.362 . S
Gd589 O634 2.324 . S
Gd589 O638 2.545 . S
Gd589 O639 2.606 . S
Gd589 O641 2.429 . S
Gd589 O642 2.545 . S
Gd589 O643 2.412 . S
Gd589 C656 2.828 . S
C590 C593 1.417 . S
C590 C595 1.431 . S
C590 C596 1.412 . S
C591 C594 1.437 . S
C591 C595 1.317 . S
C591 H610 0.929 . S
C592 C593 1.426 . S
C592 C594 1.413 . S
C592 N602 1.359 . S
C593 C590 1.417 . S
C593 C592 1.426 . S
C593 N598 1.350 . S
C594 C591 1.437 . S
C594 C592 1.413 . S
C594 C604 1.391 . S
C595 C590 1.431 . S
C595 C591 1.317 . S
C595 H606 0.930 . S
C596 C590 1.412 . S
C596 C597 1.355 . S
C596 H608 0.930 . S
C597 C596 1.355 . S
C597 C599 1.402 . S
C597 H609 0.930 . S
N598 Gd589 2.661 . S
N598 C593 1.350 . S
N598 C599 1.307 . S
C599 C597 1.402 . S
C599 N598 1.307 . S
C599 H600 0.930 . S
H600 C599 0.930 . S
C601 N602 1.334 . S
C601 C603 1.394 . S
C601 H605 0.930 . S
N602 Gd589 2.601 . S
N602 C592 1.359 . S
N602 C601 1.334 . S
C603 C601 1.394 . S
C603 C604 1.359 . S
C603 H615 0.930 . S
C604 C594 1.391 . S
C604 C603 1.359 . S
C604 H616 0.929 . S
H605 C601 0.930 . S
H606 C595 0.930 . S
H607 C624 0.930 . S
H608 C596 0.930 . S
H609 C597 0.930 . S
H610 C591 0.929 . S
H611 C629 0.930 . S
H612 C620 0.930 . S
H613 C621 0.930 1_554 S
H614 C645 0.929 1_554 S
H615 C603 0.930 . S
H616 C604 0.929 . S
H617 C646 0.930 . S
H618 C627 0.930 . S
N619 Gd588 2.661 . S
N619 C623 1.350 . S
N619 C624 1.307 . S
C620 H612 0.930 . S
C620 C621 1.355 1_554 S
C620 C622 1.412 1_554 S
C621 H613 0.930 1_556 S
C621 C620 1.355 1_556 S
C621 C624 1.402 . S
C622 C620 1.412 1_556 S
C622 C623 1.417 . S
C622 C646 1.431 1_556 S
C623 N619 1.350 . S
C623 C622 1.417 . S
C623 C626 1.426 . S
C624 H607 0.930 . S
C624 N619 1.307 . S
C624 C621 1.402 . S
N625 Gd588 2.601 . S
N625 C626 1.359 . S
N625 C629 1.334 . S
C626 C623 1.426 . S
C626 N625 1.359 . S
C626 C630 1.413 . S
C627 H618 0.930 . S
C627 C628 1.359 . S
C627 C629 1.394 . S
C628 C627 1.359 . S
C628 C630 1.391 . S
C628 H631 0.929 . S
C629 H611 0.930 . S
C629 N625 1.334 . S
C629 C627 1.394 . S
C630 C626 1.413 . S
C630 C628 1.391 . S
C630 C645 1.437 . S
H631 C628 0.929 . S
O632 Gd588 2.545 . S
O632 C647 1.258 . S
O633 Gd588 2.606 . S
O633 Gd589 2.362 . S
O633 C644 1.284 . S
O634 Gd589 2.324 . S
O634 C654 1.254 . S
O635 Gd588 2.429 . S
O635 C654 1.268 . S
O636 Gd588 2.545 . S
O636 C644 1.250 . S
O637 Gd588 2.412 . S
O637 C647 1.252 . S
O638 Gd589 2.545 . S
O638 C656 1.258 . S
O639 Gd588 2.362 . S
O639 Gd589 2.606 . S
O639 C655 1.284 . S
O640 Gd588 2.324 . S
O640 C663 1.254 . S
O641 Gd589 2.429 . S
O641 C663 1.268 . S
O642 Gd589 2.545 . S
O642 C655 1.250 . S
O643 Gd589 2.412 . S
O643 C656 1.252 . S
C644 O633 1.284 . S
C644 O636 1.250 . S
C645 H614 0.929 1_556 S
C645 C630 1.437 . S
C645 C646 1.317 1_556 S
C646 H617 0.930 . S
C646 C622 1.431 1_554 S
C646 C645 1.317 1_554 S
C647 Gd588 2.828 . S
C647 O632 1.258 . S
C647 O637 1.252 . S
C647 C648 1.497 . S
C648 C647 1.497 . S
C648 C649 1.395 . S
C648 C650 1.380 . S
C649 C648 1.395 . S
C649 C652 1.398 . S
C649 H664 0.930 . S
C650 C648 1.380 . S
C650 C651 1.391 . S
C650 H665 0.930 . S
C651 C650 1.391 . S
C651 C653 1.387 . S
C652 C649 1.398 . S
C652 C653 1.380 . S
C652 H666 0.930 . S
C653 C651 1.387 . S
C653 C652 1.380 . S
C653 H667 0.930 . S
C654 O634 1.254 . S
C654 O635 1.268 . S
C655 O639 1.284 . S
C655 O642 1.250 . S
C656 Gd589 2.828 . S
C656 O638 1.258 . S
C656 O643 1.252 . S
C656 C657 1.497 . S
C657 C656 1.497 . S
C657 C658 1.395 . S
C657 C659 1.380 . S
C658 C657 1.395 . S
C658 C661 1.398 . S
C658 H668 0.930 . S
C659 C657 1.380 . S
C659 C660 1.391 . S
C659 H669 0.930 . S
C660 C659 1.391 . S
C660 C662 1.387 . S
C661 C658 1.398 . S
C661 C662 1.380 . S
C661 H670 0.930 . S
C662 C660 1.387 . S
C662 C661 1.380 . S
C662 H671 0.930 . S
C663 O640 1.254 . S
C663 O641 1.268 . S
H664 C649 0.930 . S
H665 C650 0.930 . S
H666 C652 0.930 . S
H667 C653 0.930 . S
H668 C658 0.930 . S
H669 C659 0.930 . S
H670 C661 0.930 . S
H671 C662 0.930 . S
Co672 O675 2.042 . S
Co672 O682 2.264 . S
Co672 O701 2.286 . S
Co672 O702 2.069 . S
Co672 O704 2.015 1_455 S
Co673 O675 2.122 . S
Co673 O681 2.073 . S
Co673 O682 2.327 . S
Co673 O683 1.976 1_455 S
Co674 O675 2.087 1_545 S
Co674 O677 2.087 1_455 S
Co674 O684 2.111 1_445 S
Co674 O685 2.143 . S
Co674 O689 2.111 . S
Co674 O703 2.143 1_445 S
O675 Co672 2.042 . S
O675 Co673 2.122 . S
O675 Co674 2.087 1_565 S
O675 H676 0.980 1_565 S
H676 O675 0.980 1_545 S
O677 Co674 2.087 1_655 S
O677 Co678 2.042 . S
O677 Co679 2.122 . S
O677 H680 0.980 . S
Co678 O677 2.042 . S
Co678 O686 2.286 . S
Co678 O687 2.069 . S
Co678 O688 2.015 1_655 S
Co678 O691 2.264 . S
Co679 O677 2.122 . S
Co679 O690 1.976 1_655 S
Co679 O691 2.327 . S
Co679 O692 2.073 . S
H680 O677 0.980 . S
O681 Co673 2.073 . S
O681 C696 1.245 . S
O682 Co672 2.264 . S
O682 Co673 2.327 . S
O682 C696 1.257 . S
O683 Co673 1.976 1_655 S
O683 C695 1.251 . S
O684 Co674 2.111 1_665 S
O684 C695 1.274 . S
O685 Co674 2.143 . S
O685 C698 1.246 . S
O686 Co678 2.286 . S
O686 C697 1.259 . S
O687 Co678 2.069 . S
O687 C697 1.289 . S
O688 Co678 2.015 1_455 S
O688 C698 1.257 . S
O689 Co674 2.111 . S
O689 C699 1.274 . S
O690 Co679 1.976 1_455 S
O690 C699 1.251 . S
O691 Co678 2.264 . S
O691 Co679 2.327 . S
O691 C700 1.257 . S
O692 Co679 2.073 . S
O692 C700 1.245 . S
C693 O701 1.259 . S
C693 O702 1.289 . S
C694 O703 1.246 . S
C694 O704 1.257 . S
C695 O683 1.251 . S
C695 O684 1.274 . S
C696 O681 1.245 . S
C696 O682 1.257 . S
C697 O686 1.259 . S
C697 O687 1.289 . S
C698 O685 1.246 . S
C698 O688 1.257 . S
C699 O689 1.274 . S
C699 O690 1.251 . S
C700 O691 1.257 . S
C700 O692 1.245 . S
O701 Co672 2.286 . S
O701 C693 1.259 . S
O702 Co672 2.069 . S
O702 C693 1.289 . S
O703 Co674 2.143 1_665 S
O703 C694 1.246 . S
O704 Co672 2.015 1_655 S
O704 C694 1.257 . S
Co705 O708 2.042 1_566 S
Co705 O715 2.264 1_556 S
Co705 O734 2.286 . S
Co705 O735 2.069 . S
Co705 O737 2.015 . S
Co706 O708 2.122 1_565 S
Co706 O714 2.073 . S
Co706 O715 2.327 . S
Co706 O716 1.976 . S
Co707 O708 2.087 . S
Co707 O710 2.087 1_554 S
Co707 O717 2.111 . S
Co707 O718 2.143 . S
Co707 O722 2.111 1_554 S
Co707 O736 2.143 1_544 S
O708 Co705 2.042 1_544 S
O708 Co706 2.122 1_545 S
O708 Co707 2.087 . S
O708 H709 0.980 . S
H709 O708 0.980 . S
O710 Co707 2.087 1_556 S
O710 Co711 2.042 1_556 S
O710 Co712 2.122 . S
O710 H713 0.980 . S
Co711 O710 2.042 1_554 S
Co711 O719 2.286 . S
Co711 O720 2.069 . S
Co711 O721 2.015 . S
Co711 O724 2.264 1_554 S
Co712 O710 2.122 . S
Co712 O723 1.976 . S
Co712 O724 2.327 . S
Co712 O725 2.073 . S
H713 O710 0.980 . S
O714 Co706 2.073 . S
O714 C729 1.245 . S
O715 Co705 2.264 1_554 S
O715 Co706 2.327 . S
O715 C729 1.257 . S
O716 Co706 1.976 . S
O716 C728 1.251 . S
O717 Co707 2.111 . S
O717 C728 1.274 1_545 S
O718 Co707 2.143 . S
O718 C731 1.246 . S
O719 Co711 2.286 . S
O719 C730 1.259 . S
O720 Co711 2.069 . S
O720 C730 1.289 . S
O721 Co711 2.015 . S
O721 C731 1.257 . S
O722 Co707 2.111 1_556 S
O722 C732 1.274 . S
O723 Co712 1.976 . S
O723 C732 1.251 . S
O724 Co711 2.264 1_556 S
O724 Co712 2.327 . S
O724 C733 1.257 . S
O725 Co712 2.073 . S
O725 C733 1.245 . S
C726 O734 1.259 . S
C726 O735 1.289 . S
C727 O736 1.246 . S
C727 O737 1.257 . S
C728 O716 1.251 . S
C728 O717 1.274 1_565 S
C729 O714 1.245 . S
C729 O715 1.257 . S
C730 O719 1.259 . S
C730 O720 1.289 . S
C731 O718 1.246 . S
C731 O721 1.257 . S
C732 O722 1.274 . S
C732 O723 1.251 . S
C733 O724 1.257 . S
C733 O725 1.245 . S
O734 Co705 2.286 . S
O734 C726 1.259 . S
O735 Co705 2.069 . S
O735 C726 1.289 . S
O736 Co707 2.143 1_566 S
O736 C727 1.246 . S
O737 Co705 2.015 . S
O737 C727 1.257 . S
Co738 O741 2.042 . S
Co738 O748 2.264 . S
Co738 O767 2.286 . S
Co738 O768 2.069 . S
Co738 O770 2.015 1_455 S
Co739 O741 2.122 . S
Co739 O747 2.073 . S
Co739 O748 2.327 . S
Co739 O749 1.976 1_455 S
Co740 O741 2.087 . S
Co740 O743 2.087 1_455 S
Co740 O750 2.111 1_455 S
Co740 O751 2.143 . S
Co740 O755 2.111 . S
Co740 O769 2.143 1_455 S
O741 Co738 2.042 . S
O741 Co739 2.122 . S
O741 Co740 2.087 . S
O741 H742 0.980 . S
H742 O741 0.980 . S
O743 Co740 2.087 1_655 S
O743 Co744 2.042 . S
O743 Co745 2.122 1_554 S
O743 H746 0.980 . S
Co744 O743 2.042 . S
Co744 O752 2.286 . S
Co744 O753 2.069 . S
Co744 O754 2.015 1_655 S
Co744 O757 2.264 . S
Co745 O743 2.122 1_556 S
Co745 O756 1.976 1_655 S
Co745 O757 2.327 1_556 S
Co745 O758 2.073 . S
H746 O743 0.980 . S
O747 Co739 2.073 . S
O747 C762 1.245 . S
O748 Co738 2.264 . S
O748 Co739 2.327 . S
O748 C762 1.257 . S
O749 Co739 1.976 1_655 S
O749 C761 1.251 . S
O750 Co740 2.111 1_655 S
O750 C761 1.274 . S
O751 Co740 2.143 . S
O751 C764 1.246 . S
O752 Co744 2.286 . S
O752 C763 1.259 . S
O753 Co744 2.069 . S
O753 C763 1.289 . S
O754 Co744 2.015 1_455 S
O754 C764 1.257 . S
O755 Co740 2.111 . S
O755 C765 1.274 1_554 S
O756 Co745 1.976 1_455 S
O756 C765 1.251 . S
O757 Co744 2.264 . S
O757 Co745 2.327 1_554 S
O757 C766 1.257 1_554 S
O758 Co745 2.073 . S
O758 C766 1.245 . S
C759 O767 1.259 . S
C759 O768 1.289 . S
C760 O769 1.246 . S
C760 O770 1.257 . S
C761 O749 1.251 . S
C761 O750 1.274 . S
C762 O747 1.245 . S
C762 O748 1.257 . S
C763 O752 1.259 . S
C763 O753 1.289 . S
C764 O751 1.246 . S
C764 O754 1.257 . S
C765 O755 1.274 1_556 S
C765 O756 1.251 . S
C766 O757 1.257 1_556 S
C766 O758 1.245 . S
O767 Co738 2.286 . S
O767 C759 1.259 . S
O768 Co738 2.069 . S
O768 C759 1.289 . S
O769 Co740 2.143 1_655 S
O769 C760 1.246 . S
O770 Co738 2.015 1_655 S
O770 C760 1.257 . S
Co771 O774 2.042 . S
Co771 O781 2.264 . S
Co771 O800 2.286 1_554 S
Co771 O801 2.069 1_554 S
Co771 O803 2.015 1_554 S
Co772 O774 2.122 . S
Co772 O780 2.073 . S
Co772 O781 2.327 . S
Co772 O782 1.976 . S
Co773 O774 2.087 . S
Co773 O776 2.087 . S
Co773 O783 2.111 . S
Co773 O784 2.143 . S
Co773 O788 2.111 1_554 S
Co773 O802 2.143 1_554 S
O774 Co771 2.042 . S
O774 Co772 2.122 . S
O774 Co773 2.087 . S
O774 H775 0.980 . S
H775 O774 0.980 . S
O776 Co773 2.087 . S
O776 Co777 2.042 . S
O776 Co778 2.122 1_554 S
O776 H779 0.980 . S
Co777 O776 2.042 . S
Co777 O785 2.286 . S
Co777 O786 2.069 . S
Co777 O787 2.015 . S
Co777 O790 2.264 1_554 S
Co778 O776 2.122 1_556 S
Co778 O789 1.976 . S
Co778 O790 2.327 . S
Co778 O791 2.073 . S
H779 O776 0.980 . S
O780 Co772 2.073 . S
O780 C795 1.245 . S
O781 Co771 2.264 . S
O781 Co772 2.327 . S
O781 C795 1.257 . S
O782 Co772 1.976 . S
O782 C794 1.251 . S
O783 Co773 2.111 . S
O783 C794 1.274 . S
O784 Co773 2.143 . S
O784 C797 1.246 . S
O785 Co777 2.286 . S
O785 C796 1.259 . S
O786 Co777 2.069 . S
O786 C796 1.289 . S
O787 Co777 2.015 . S
O787 C797 1.257 . S
O788 Co773 2.111 1_556 S
O788 C798 1.274 . S
O789 Co778 1.976 . S
O789 C798 1.251 . S
O790 Co777 2.264 1_556 S
O790 Co778 2.327 . S
O790 C799 1.257 . S
O791 Co778 2.073 . S
O791 C799 1.245 . S
C792 O800 1.259 . S
C792 O801 1.289 . S
C793 O802 1.246 . S
C793 O803 1.257 . S
C794 O782 1.251 . S
C794 O783 1.274 . S
C795 O780 1.245 . S
C795 O781 1.257 . S
C796 O785 1.259 . S
C796 O786 1.289 . S
C797 O784 1.246 . S
C797 O787 1.257 . S
C798 O788 1.274 . S
C798 O789 1.251 . S
C799 O790 1.257 . S
C799 O791 1.245 . S
O800 Co771 2.286 1_556 S
O800 C792 1.259 . S
O801 Co771 2.069 1_556 S
O801 C792 1.289 . S
O802 Co773 2.143 1_556 S
O802 C793 1.246 . S
O803 Co771 2.015 1_556 S
O803 C793 1.257 . S
Co804 O807 2.042 . S
Co804 O814 2.264 . S
Co804 O833 2.286 . S
Co804 O834 2.069 . S
Co804 O836 2.015 . S
Co805 O807 2.122 . S
Co805 O813 2.073 . S
Co805 O814 2.327 . S
Co805 O815 1.976 . S
Co806 O807 2.087 . S
Co806 O809 2.087 . S
Co806 O816 2.111 . S
Co806 O817 2.143 1_455 S
Co806 O821 2.111 . S
Co806 O835 2.143 . S
O807 Co804 2.042 . S
O807 Co805 2.122 . S
O807 Co806 2.087 . S
O807 H808 0.980 . S
H808 O807 0.980 . S
O809 Co806 2.087 . S
O809 Co810 2.042 1_455 S
O809 Co811 2.122 1_455 S
O809 H812 0.980 . S
Co810 O809 2.042 1_655 S
Co810 O818 2.286 . S
Co810 O819 2.069 . S
Co810 O820 2.015 . S
Co810 O823 2.264 . S
Co811 O809 2.122 1_655 S
Co811 O822 1.976 . S
Co811 O823 2.327 . S
Co811 O824 2.073 . S
H812 O809 0.980 . S
O813 Co805 2.073 . S
O813 C828 1.245 . S
O814 Co804 2.264 . S
O814 Co805 2.327 . S
O814 C828 1.257 . S
O815 Co805 1.976 . S
O815 C827 1.251 . S
O816 Co806 2.111 . S
O816 C827 1.274 . S
O817 Co806 2.143 1_655 S
O817 C830 1.246 . S
O818 Co810 2.286 . S
O818 C829 1.259 . S
O819 Co810 2.069 . S
O819 C829 1.289 . S
O820 Co810 2.015 . S
O820 C830 1.257 . S
O821 Co806 2.111 . S
O821 C831 1.274 1_455 S
O822 Co811 1.976 . S
O822 C831 1.251 . S
O823 Co810 2.264 . S
O823 Co811 2.327 . S
O823 C832 1.257 . S
O824 Co811 2.073 . S
O824 C832 1.245 . S
C825 O833 1.259 . S
C825 O834 1.289 . S
C826 O835 1.246 . S
C826 O836 1.257 . S
C827 O815 1.251 . S
C827 O816 1.274 . S
C828 O813 1.245 . S
C828 O814 1.257 . S
C829 O818 1.259 . S
C829 O819 1.289 . S
C830 O817 1.246 . S
C830 O820 1.257 . S
C831 O821 1.274 1_655 S
C831 O822 1.251 . S
C832 O823 1.257 . S
C832 O824 1.245 . S
O833 Co804 2.286 . S
O833 C825 1.259 . S
O834 Co804 2.069 . S
O834 C825 1.289 . S
O835 Co806 2.143 . S
O835 C826 1.246 . S
O836 Co804 2.015 . S
O836 C826 1.257 . S
Co837 O840 2.042 . S
Co837 O847 2.264 . S
Co837 O866 2.286 . S
Co837 O867 2.069 . S
Co837 O869 2.015 1_565 S
Co838 O840 2.121 . S
Co838 O846 2.106 . S
Co838 O847 2.344 . S
Co838 O848 1.948 1_565 S
Co839 O840 2.087 1_545 S
Co839 O842 2.087 . S
Co839 O849 2.111 . S
Co839 O850 2.143 1_545 S
Co839 O854 2.111 1_545 S
Co839 O868 2.143 . S
O840 Co837 2.042 . S
O840 Co838 2.121 . S
O840 Co839 2.087 1_565 S
O840 H841 0.980 . S
H841 O840 0.980 . S
O842 Co839 2.087 . S
O842 Co843 2.042 . S
O842 Co844 2.122 . S
O842 H845 0.980 . S
Co843 O842 2.042 . S
Co843 O851 2.286 . S
Co843 O852 2.069 . S
Co843 O853 2.015 1_545 S
Co843 O856 2.264 . S
Co844 O842 2.122 . S
Co844 O855 1.976 1_545 S
Co844 O856 2.327 . S
Co844 O857 2.073 . S
H845 O842 0.980 . S
O846 Co838 2.106 . S
O846 C861 1.245 . S
O847 Co837 2.264 . S
O847 Co838 2.344 . S
O847 C861 1.257 . S
O848 Co838 1.948 1_545 S
O848 C860 1.251 . S
O849 Co839 2.111 . S
O849 C860 1.274 . S
O850 Co839 2.143 1_565 S
O850 C863 1.246 . S
O851 Co843 2.286 . S
O851 C862 1.259 . S
O852 Co843 2.069 . S
O852 C862 1.289 . S
O853 Co843 2.015 1_565 S
O853 C863 1.257 . S
O854 Co839 2.111 1_565 S
O854 C864 1.274 . S
O855 Co844 1.976 1_565 S
O855 C864 1.251 . S
O856 Co843 2.264 . S
O856 Co844 2.327 . S
O856 C865 1.257 . S
O857 Co844 2.073 . S
O857 C865 1.245 . S
C858 O866 1.259 . S
C858 O867 1.289 . S
C859 O868 1.246 . S
C859 O869 1.257 . S
C860 O848 1.251 . S
C860 O849 1.274 . S
C861 O846 1.245 . S
C861 O847 1.257 . S
C862 O851 1.259 . S
C862 O852 1.289 . S
C863 O850 1.246 . S
C863 O853 1.257 . S
C864 O854 1.274 . S
C864 O855 1.251 . S
C865 O856 1.257 . S
C865 O857 1.245 . S
O866 Co837 2.286 . S
O866 C858 1.259 . S
O867 Co837 2.069 . S
O867 C858 1.289 . S
O868 Co839 2.143 . S
O868 C859 1.246 . S
O869 Co837 2.015 1_545 S
O869 C859 1.257 . S
C870 C871 1.369 . S
C870 C872 1.419 . S
C870 H874 0.930 . S
C871 C870 1.369 . S
C871 C880 1.429 . S
C872 C870 1.419 . S
C872 C873 1.363 . S
C872 H875 0.929 . S
C873 C872 1.363 . S
C873 C879 1.428 . S
H874 C870 0.930 . S
H875 C872 0.929 . S
S876 N877 1.613 . S
S876 N878 1.610 . S
N877 S876 1.613 . S
N877 C880 1.350 . S
N878 S876 1.610 . S
N878 C879 1.351 . S
C879 C873 1.428 . S
C879 N878 1.351 . S
C879 C880 1.434 . S
C880 C871 1.429 . S
C880 N877 1.350 . S
C880 C879 1.434 . S
C881 C882 1.369 . S
C881 C883 1.419 . S
C881 H885 0.930 . S
C882 C881 1.369 . S
C882 C891 1.429 . S
C883 C881 1.419 . S
C883 C884 1.363 . S
C883 H886 0.929 . S
C884 C883 1.363 . S
C884 C890 1.428 . S
H885 C881 0.930 . S
H886 C883 0.929 . S
S887 N888 1.613 . S
S887 N889 1.610 . S
N888 S887 1.613 . S
N888 C891 1.350 . S
N889 S887 1.610 . S
N889 C890 1.351 . S
C890 C884 1.428 . S
C890 N889 1.351 . S
C890 C891 1.434 . S
C891 C882 1.429 . S
C891 N888 1.350 . S
C891 C890 1.434 . S
C892 C893 1.369 . S
C892 C894 1.419 . S
C892 H896 0.930 . S
C893 C892 1.369 . S
C893 C902 1.429 . S
C894 C892 1.419 . S
C894 C895 1.363 . S
C894 H897 0.929 . S
C895 C894 1.363 . S
C895 C901 1.428 . S
H896 C892 0.930 . S
H897 C894 0.929 . S
S898 N899 1.613 . S
S898 N900 1.610 . S
N899 S898 1.613 . S
N899 C902 1.350 . S
N900 S898 1.610 . S
N900 C901 1.351 . S
C901 C895 1.428 . S
C901 N900 1.351 . S
C901 C902 1.434 . S
C902 C893 1.429 . S
C902 N899 1.350 . S
C902 C901 1.434 . S
C903 C904 1.369 . S
C903 C905 1.419 . S
C903 H907 0.930 . S
C904 C903 1.369 . S
C904 C913 1.429 . S
C905 C903 1.419 . S
C905 C906 1.363 . S
C905 H908 0.929 . S
C906 C905 1.363 . S
C906 C912 1.428 . S
H907 C903 0.930 . S
H908 C905 0.929 . S
S909 N910 1.613 . S
S909 N911 1.610 . S
N910 S909 1.613 . S
N910 C913 1.350 . S
N911 S909 1.610 . S
N911 C912 1.351 . S
C912 C906 1.428 . S
C912 N911 1.351 . S
C912 C913 1.434 . S
C913 C904 1.429 . S
C913 N910 1.350 . S
C913 C912 1.434 . S
C914 C915 1.369 . S
C914 C916 1.419 . S
C914 H918 0.930 . S
C915 C914 1.369 . S
C915 C924 1.429 . S
C916 C914 1.419 . S
C916 C917 1.363 . S
C916 H919 0.929 . S
C917 C916 1.363 . S
C917 C923 1.428 . S
H918 C914 0.930 . S
H919 C916 0.929 . S
S920 N921 1.613 1_545 S
S920 N922 1.610 1_545 S
N921 S920 1.613 1_565 S
N921 C924 1.350 . S
N922 S920 1.610 1_565 S
N922 C923 1.351 . S
C923 C917 1.428 . S
C923 N922 1.351 . S
C923 C924 1.434 . S
C924 C915 1.429 . S
C924 N921 1.350 . S
C924 C923 1.434 . S
C925 C926 1.369 . S
C925 C927 1.419 . S
C925 H929 0.930 . S
C926 C925 1.369 . S
C926 C935 1.429 . S
C927 C925 1.419 . S
C927 C928 1.363 . S
C927 H930 0.929 . S
C928 C927 1.363 . S
C928 C934 1.428 . S
H929 C925 0.930 . S
H930 C927 0.929 . S
S931 N932 1.613 . S
S931 N933 1.610 . S
N932 S931 1.613 . S
N932 C935 1.350 . S
N933 S931 1.610 . S
N933 C934 1.351 . S
C934 C928 1.428 . S
C934 N933 1.351 . S
C934 C935 1.434 . S
C935 C926 1.429 . S
C935 N932 1.350 . S
C935 C934 1.434 . S
C936 C937 1.369 . S
C936 C938 1.419 . S
C936 H940 0.930 . S
C937 C936 1.369 . S
C937 C946 1.429 . S
C938 C936 1.419 . S
C938 C939 1.363 . S
C938 H941 0.929 . S
C939 C938 1.363 . S
C939 C945 1.428 . S
H940 C936 0.930 . S
H941 C938 0.929 . S
S942 N943 1.613 . S
S942 N944 1.610 . S
N943 S942 1.613 . S
N943 C946 1.350 . S
N944 S942 1.610 . S
N944 C945 1.351 . S
C945 C939 1.428 . S
C945 N944 1.351 . S
C945 C946 1.434 . S
C946 C937 1.429 . S
C946 N943 1.350 . S
C946 C945 1.434 . S
C947 C948 1.369 . S
C947 C949 1.419 . S
C947 H951 0.930 . S
C948 C947 1.369 . S
C948 C957 1.429 . S
C949 C947 1.419 . S
C949 C950 1.363 . S
C949 H952 0.929 . S
C950 C949 1.363 . S
C950 C956 1.428 . S
H951 C947 0.930 . S
H952 C949 0.929 . S
S953 N954 1.613 . S
S953 N955 1.610 . S
N954 S953 1.613 . S
N954 C957 1.350 . S
N955 S953 1.610 . S
N955 C956 1.351 . S
C956 C950 1.428 . S
C956 N955 1.351 . S
C956 C957 1.434 . S
C957 C948 1.429 . S
C957 N954 1.350 . S
C957 C956 1.434 . S
C958 C959 1.369 . S
C958 C960 1.419 . S
C958 H962 0.930 . S
C959 C958 1.369 . S
C959 C968 1.429 . S
C960 C958 1.419 . S
C960 C961 1.363 . S
C960 H963 0.929 . S
C961 C960 1.363 . S
C961 C967 1.428 . S
H962 C958 0.930 . S
H963 C960 0.929 . S
S964 N965 1.613 . S
S964 N966 1.610 . S
N965 S964 1.613 . S
N965 C968 1.350 . S
N966 S964 1.610 . S
N966 C967 1.351 . S
C967 C961 1.428 . S
C967 N966 1.351 . S
C967 C968 1.434 . S
C968 C959 1.429 . S
C968 N965 1.350 . S
C968 C967 1.434 . S
C969 C970 1.369 . S
C969 C971 1.419 . S
C969 H973 0.930 . S
C970 C969 1.369 . S
C970 C979 1.429 . S
C971 C969 1.419 . S
C971 C972 1.363 . S
C971 H974 0.929 . S
C972 C971 1.363 . S
C972 C978 1.428 . S
H973 C969 0.930 . S
H974 C971 0.929 . S
S975 N976 1.613 . S
S975 N977 1.610 . S
N976 S975 1.613 . S
N976 C979 1.350 . S
N977 S975 1.610 . S
N977 C978 1.351 . S
C978 C972 1.428 . S
C978 N977 1.351 . S
C978 C979 1.434 . S
C979 C970 1.429 . S
C979 N976 1.350 . S
C979 C978 1.434 . S
C980 C981 1.369 . S
C980 C982 1.419 . S
C980 H984 0.930 . S
C981 C980 1.369 . S
C981 C990 1.429 . S
C982 C980 1.419 . S
C982 C983 1.363 . S
C982 H985 0.929 . S
C983 C982 1.363 . S
C983 C989 1.428 . S
H984 C980 0.930 . S
H985 C982 0.929 . S
S986 N987 1.613 1_545 S
S986 N988 1.610 1_545 S
N987 S986 1.613 1_565 S
N987 C990 1.350 . S
N988 S986 1.610 1_565 S
N988 C989 1.351 . S
C989 C983 1.428 . S
C989 N988 1.351 . S
C989 C990 1.434 . S
C990 C981 1.429 . S
C990 N987 1.350 . S
C990 C989 1.434 . S
C991 C992 1.369 . S
C991 C993 1.419 . S
C991 H995 0.930 . S
C992 C991 1.369 . S
C992 C1001 1.429 . S
C993 C991 1.419 . S
C993 C994 1.363 . S
C993 H996 0.929 . S
C994 C993 1.363 . S
C994 C1000 1.428 . S
H995 C991 0.930 . S
H996 C993 0.929 . S
S997 N998 1.613 . S
S997 N999 1.610 . S
N998 S997 1.613 . S
N998 C1001 1.350 . S
N999 S997 1.610 . S
N999 C1000 1.351 . S
C1000 C994 1.428 . S
C1000 N999 1.351 . S
C1000 C1001 1.434 . S
C1001 C992 1.429 . S
C1001 N998 1.350 . S
C1001 C1000 1.434 . S
C1002 C1003 1.369 . S
C1002 C1004 1.419 . S
C1002 H1006 0.930 . S
C1003 C1002 1.369 . S
C1003 C1012 1.429 . S
C1004 C1002 1.419 . S
C1004 C1005 1.363 . S
C1004 H1007 0.929 . S
C1005 C1004 1.363 . S
C1005 C1011 1.428 . S
H1006 C1002 0.930 . S
H1007 C1004 0.929 . S
S1008 N1009 1.613 1_554 S
S1008 N1010 1.610 1_554 S
N1009 S1008 1.613 1_556 S
N1009 C1012 1.350 . S
N1010 S1008 1.610 1_556 S
N1010 C1011 1.351 . S
C1011 C1005 1.428 . S
C1011 N1010 1.351 . S
C1011 C1012 1.434 . S
C1012 C1003 1.429 . S
C1012 N1009 1.350 . S
C1012 C1011 1.434 . S
C1013 C1014 1.369 1_554 S
C1013 C1015 1.419 . S
C1013 H1017 0.930 . S
C1014 C1013 1.369 1_556 S
C1014 C1023 1.429 . S
C1015 C1013 1.419 . S
C1015 C1016 1.363 1_554 S
C1015 H1018 0.929 . S
C1016 C1015 1.363 1_556 S
C1016 C1022 1.428 . S
H1017 C1013 0.930 . S
H1018 C1015 0.929 . S
S1019 N1020 1.613 . S
S1019 N1021 1.610 . S
N1020 S1019 1.613 . S
N1020 C1023 1.350 . S
N1021 S1019 1.610 . S
N1021 C1022 1.351 . S
C1022 C1016 1.428 . S
C1022 N1021 1.351 . S
C1022 C1023 1.434 . S
C1023 C1014 1.429 . S
C1023 N1020 1.350 . S
C1023 C1022 1.434 . S
C1024 C1025 1.369 . S
C1024 C1026 1.419 . S
C1024 H1028 0.930 . S
C1025 C1024 1.369 . S
C1025 C1034 1.429 . S
C1026 C1024 1.419 . S
C1026 C1027 1.363 . S
C1026 H1029 0.929 . S
C1027 C1026 1.363 . S
C1027 C1033 1.428 . S
H1028 C1024 0.930 . S
H1029 C1026 0.929 . S
S1030 N1031 1.613 . S
S1030 N1032 1.610 . S
N1031 S1030 1.613 . S
N1031 C1034 1.350 . S
N1032 S1030 1.610 . S
N1032 C1033 1.351 . S
C1033 C1027 1.428 . S
C1033 N1032 1.351 . S
C1033 C1034 1.434 . S
C1034 C1025 1.429 . S
C1034 N1031 1.350 . S
C1034 C1033 1.434 . S
C1035 C1036 1.369 . S
C1035 C1037 1.419 . S
C1035 H1039 0.930 . S
C1036 C1035 1.369 . S
C1036 C1045 1.429 . S
C1037 C1035 1.419 . S
C1037 C1038 1.363 . S
C1037 H1040 0.929 . S
C1038 C1037 1.363 . S
C1038 C1044 1.428 . S
H1039 C1035 0.930 . S
H1040 C1037 0.929 . S
S1041 N1042 1.613 . S
S1041 N1043 1.610 . S
N1042 S1041 1.613 . S
N1042 C1045 1.350 . S
N1043 S1041 1.610 . S
N1043 C1044 1.351 . S
C1044 C1038 1.428 . S
C1044 N1043 1.351 . S
C1044 C1045 1.434 . S
C1045 C1036 1.429 . S
C1045 N1042 1.350 . S
C1045 C1044 1.434 . S
C1046 C1047 1.369 . S
C1046 C1048 1.419 . S
C1046 H1050 0.930 . S
C1047 C1046 1.369 . S
C1047 C1056 1.429 . S
C1048 C1046 1.419 . S
C1048 C1049 1.363 . S
C1048 H1051 0.929 . S
C1049 C1048 1.363 . S
C1049 C1055 1.428 . S
H1050 C1046 0.930 . S
H1051 C1048 0.929 . S
S1052 N1053 1.613 . S
S1052 N1054 1.610 . S
N1053 S1052 1.613 . S
N1053 C1056 1.350 . S
N1054 S1052 1.610 . S
N1054 C1055 1.351 . S
C1055 C1049 1.428 . S
C1055 N1054 1.351 . S
C1055 C1056 1.434 . S
C1056 C1047 1.429 . S
C1056 N1053 1.350 . S
C1056 C1055 1.434 . S
C1057 C1058 1.369 . S
C1057 C1059 1.419 . S
C1057 H1061 0.930 . S
C1058 C1057 1.369 . S
C1058 C1067 1.429 . S
C1059 C1057 1.419 . S
C1059 C1060 1.363 . S
C1059 H1062 0.929 1_556 S
C1060 C1059 1.363 . S
C1060 C1066 1.428 . S
H1061 C1057 0.930 . S
H1062 C1059 0.929 1_554 S
S1063 N1064 1.613 . S
S1063 N1065 1.610 . S
N1064 S1063 1.613 . S
N1064 C1067 1.350 . S
N1065 S1063 1.610 . S
N1065 C1066 1.351 . S
C1066 C1060 1.428 . S
C1066 N1065 1.351 . S
C1066 C1067 1.434 . S
C1067 C1058 1.429 . S
C1067 N1064 1.350 . S
C1067 C1066 1.434 . S
C1068 C1069 1.369 . S
C1068 C1070 1.419 . S
C1068 H1072 0.930 . S
C1069 C1068 1.369 . S
C1069 C1078 1.429 . S
C1070 C1068 1.419 . S
C1070 C1071 1.363 . S
C1070 H1073 0.929 . S
C1071 C1070 1.363 . S
C1071 C1077 1.428 . S
H1072 C1068 0.930 . S
H1073 C1070 0.929 . S
S1074 N1075 1.613 . S
S1074 N1076 1.610 . S
N1075 S1074 1.613 . S
N1075 C1078 1.350 . S
N1076 S1074 1.610 . S
N1076 C1077 1.351 . S
C1077 C1071 1.428 . S
C1077 N1076 1.351 . S
C1077 C1078 1.434 . S
C1078 C1069 1.429 . S
C1078 N1075 1.350 . S
C1078 C1077 1.434 . S
C1079 C1080 1.369 . S
C1079 C1081 1.419 . S
C1079 H1083 0.930 . S
C1080 C1079 1.369 . S
C1080 C1089 1.429 . S
C1081 C1079 1.419 . S
C1081 C1082 1.363 . S
C1081 H1084 0.929 . S
C1082 C1081 1.363 . S
C1082 C1088 1.428 . S
H1083 C1079 0.930 . S
H1084 C1081 0.929 . S
S1085 N1086 1.613 . S
S1085 N1087 1.610 . S
N1086 S1085 1.613 . S
N1086 C1089 1.350 . S
N1087 S1085 1.610 . S
N1087 C1088 1.351 . S
C1088 C1082 1.428 . S
C1088 N1087 1.351 . S
C1088 C1089 1.434 . S
C1089 C1080 1.429 . S
C1089 N1086 1.350 . S
C1089 C1088 1.434 . S
C1090 C1091 1.369 . S
C1090 C1092 1.419 . S
C1090 H1094 0.930 . S
C1091 C1090 1.369 . S
C1091 C1100 1.429 . S
C1092 C1090 1.419 . S
C1092 C1093 1.363 . S
C1092 H1095 0.929 . S
C1093 C1092 1.363 . S
C1093 C1099 1.428 . S
H1094 C1090 0.930 . S
H1095 C1092 0.929 . S
S1096 N1097 1.613 1_554 S
S1096 N1098 1.610 1_554 S
N1097 S1096 1.613 1_556 S
N1097 C1100 1.350 . S
N1098 S1096 1.610 1_556 S
N1098 C1099 1.351 . S
C1099 C1093 1.428 . S
C1099 N1098 1.351 . S
C1099 C1100 1.434 . S
C1100 C1091 1.429 . S
C1100 N1097 1.350 . S
C1100 C1099 1.434 . S
C1101 C1102 1.369 . S
C1101 C1103 1.419 . S
C1101 H1105 0.930 . S
C1102 C1101 1.369 . S
C1102 C1111 1.429 . S
C1103 C1101 1.419 . S
C1103 C1104 1.363 . S
C1103 H1106 0.929 . S
C1104 C1103 1.363 . S
C1104 C1110 1.428 . S
H1105 C1101 0.930 . S
H1106 C1103 0.929 . S
S1107 N1108 1.613 . S
S1107 N1109 1.610 . S
N1108 S1107 1.613 . S
N1108 C1111 1.350 . S
N1109 S1107 1.610 . S
N1109 C1110 1.351 . S
C1110 C1104 1.428 . S
C1110 N1109 1.351 . S
C1110 C1111 1.434 . S
C1111 C1102 1.429 . S
C1111 N1108 1.350 . S
C1111 C1110 1.434 . S
C1112 C1113 1.369 . S
C1112 C1114 1.419 . S
C1112 H1116 0.930 . S
C1113 C1112 1.369 . S
C1113 C1122 1.429 . S
C1114 C1112 1.419 . S
C1114 C1115 1.363 . S
C1114 H1117 0.929 . S
C1115 C1114 1.363 . S
C1115 C1121 1.428 . S
H1116 C1112 0.930 . S
H1117 C1114 0.929 . S
S1118 N1119 1.613 . S
S1118 N1120 1.610 . S
N1119 S1118 1.613 . S
N1119 C1122 1.350 . S
N1120 S1118 1.610 . S
N1120 C1121 1.351 . S
C1121 C1115 1.428 . S
C1121 N1120 1.351 . S
C1121 C1122 1.434 . S
C1122 C1113 1.429 . S
C1122 N1119 1.350 . S
C1122 C1121 1.434 . S
C1123 C1124 1.369 . S
C1123 C1125 1.419 . S
C1123 H1127 0.930 . S
C1124 C1123 1.369 . S
C1124 C1133 1.429 . S
C1125 C1123 1.419 . S
C1125 C1126 1.363 . S
C1125 H1128 0.929 . S
C1126 C1125 1.363 . S
C1126 C1132 1.428 . S
H1127 C1123 0.930 . S
H1128 C1125 0.929 . S
S1129 N1130 1.613 . S
S1129 N1131 1.610 . S
N1130 S1129 1.613 . S
N1130 C1133 1.350 . S
N1131 S1129 1.610 . S
N1131 C1132 1.351 . S
C1132 C1126 1.428 . S
C1132 N1131 1.351 . S
C1132 C1133 1.434 . S
C1133 C1124 1.429 . S
C1133 N1130 1.350 . S
C1133 C1132 1.434 . S
C1134 C1135 1.369 . S
C1134 C1136 1.419 . S
C1134 H1138 0.930 . S
C1135 C1134 1.369 . S
C1135 C1144 1.429 . S
C1136 C1134 1.419 . S
C1136 C1137 1.363 . S
C1136 H1139 0.929 . S
C1137 C1136 1.363 . S
C1137 C1143 1.428 . S
H1138 C1134 0.930 . S
H1139 C1136 0.929 . S
S1140 N1141 1.613 . S
S1140 N1142 1.610 . S
N1141 S1140 1.613 . S
N1141 C1144 1.350 . S
N1142 S1140 1.610 . S
N1142 C1143 1.351 . S
C1143 C1137 1.428 . S
C1143 N1142 1.351 . S
C1143 C1144 1.434 . S
C1144 C1135 1.429 . S
C1144 N1141 1.350 . S
C1144 C1143 1.434 . S
C1145 C1146 1.369 . S
C1145 C1147 1.419 . S
C1145 H1149 0.930 . S
C1146 C1145 1.369 . S
C1146 C1155 1.429 1_556 S
C1147 C1145 1.419 . S
C1147 C1148 1.363 . S
C1147 H1150 0.929 . S
C1148 C1147 1.363 . S
C1148 C1154 1.428 1_556 S
H1149 C1145 0.930 . S
H1150 C1147 0.929 . S
S1151 N1152 1.613 . S
S1151 N1153 1.610 . S
N1152 S1151 1.613 . S
N1152 C1155 1.350 . S
N1153 S1151 1.610 . S
N1153 C1154 1.351 . S
C1154 C1148 1.428 1_554 S
C1154 N1153 1.351 . S
C1154 C1155 1.434 . S
C1155 C1146 1.429 1_554 S
C1155 N1152 1.350 . S
C1155 C1154 1.434 . S
C1156 C1157 1.369 . S
C1156 C1158 1.419 . S
C1156 H1160 0.930 . S
C1157 C1156 1.369 . S
C1157 C1166 1.429 . S
C1158 C1156 1.419 . S
C1158 C1159 1.363 . S
C1158 H1161 0.929 . S
C1159 C1158 1.363 . S
C1159 C1165 1.428 . S
H1160 C1156 0.930 . S
H1161 C1158 0.929 . S
S1162 N1163 1.613 . S
S1162 N1164 1.610 1_556 S
N1163 S1162 1.613 . S
N1163 C1166 1.350 . S
N1164 S1162 1.610 1_554 S
N1164 C1165 1.351 1_554 S
C1165 C1159 1.428 . S
C1165 N1164 1.351 1_556 S
C1165 C1166 1.434 . S
C1166 C1157 1.429 . S
C1166 N1163 1.350 . S
C1166 C1165 1.434 . S
C1167 C1168 1.369 . S
C1167 C1169 1.419 . S
C1167 H1171 0.930 . S
C1168 C1167 1.369 . S
C1168 C1177 1.429 . S
C1169 C1167 1.419 . S
C1169 C1170 1.363 . S
C1169 H1172 0.929 . S
C1170 C1169 1.363 . S
C1170 C1176 1.428 . S
H1171 C1167 0.930 . S
H1172 C1169 0.929 . S
S1173 N1174 1.613 . S
S1173 N1175 1.610 . S
N1174 S1173 1.613 . S
N1174 C1177 1.350 1_554 S
N1175 S1173 1.610 . S
N1175 C1176 1.351 1_554 S
C1176 C1170 1.428 . S
C1176 N1175 1.351 1_556 S
C1176 C1177 1.434 . S
C1177 C1168 1.429 . S
C1177 N1174 1.350 1_556 S
C1177 C1176 1.434 . S
C1178 C1179 1.369 . S
C1178 C1180 1.419 . S
C1178 H1182 0.930 . S
C1179 C1178 1.369 . S
C1179 C1188 1.429 . S
C1180 C1178 1.419 . S
C1180 C1181 1.363 . S
C1180 H1183 0.929 . S
C1181 C1180 1.363 . S
C1181 C1187 1.428 . S
H1182 C1178 0.930 . S
H1183 C1180 0.929 . S
S1184 N1185 1.613 . S
S1184 N1186 1.610 . S
N1185 S1184 1.613 . S
N1185 C1188 1.350 . S
N1186 S1184 1.610 . S
N1186 C1187 1.351 . S
C1187 C1181 1.428 . S
C1187 N1186 1.351 . S
C1187 C1188 1.434 . S
C1188 C1179 1.429 . S
C1188 N1185 1.350 . S
C1188 C1187 1.434 . S
C1189 C1190 1.369 . S
C1189 C1191 1.419 . S
C1189 H1193 0.930 . S
C1190 C1189 1.369 . S
C1190 C1199 1.429 . S
C1191 C1189 1.419 . S
C1191 C1192 1.363 . S
C1191 H1194 0.929 . S
C1192 C1191 1.363 . S
C1192 C1198 1.428 . S
H1193 C1189 0.930 . S
H1194 C1191 0.929 . S
S1195 N1196 1.613 . S
S1195 N1197 1.610 . S
N1196 S1195 1.613 . S
N1196 C1199 1.350 . S
N1197 S1195 1.610 . S
N1197 C1198 1.351 . S
C1198 C1192 1.428 . S
C1198 N1197 1.351 . S
C1198 C1199 1.434 . S
C1199 C1190 1.429 . S
C1199 N1196 1.350 . S
C1199 C1198 1.434 . S
C1200 C1201 1.369 . S
C1200 C1202 1.419 . S
C1200 H1204 0.930 . S
C1201 C1200 1.369 . S
C1201 C1210 1.429 . S
C1202 C1200 1.419 . S
C1202 C1203 1.363 . S
C1202 H1205 0.929 . S
C1203 C1202 1.363 . S
C1203 C1209 1.428 . S
H1204 C1200 0.930 . S
H1205 C1202 0.929 . S
S1206 N1207 1.613 . S
S1206 N1208 1.610 . S
N1207 S1206 1.613 . S
N1207 C1210 1.350 . S
N1208 S1206 1.610 . S
N1208 C1209 1.351 . S
C1209 C1203 1.428 . S
C1209 N1208 1.351 . S
C1209 C1210 1.434 . S
C1210 C1201 1.429 . S
C1210 N1207 1.350 . S
C1210 C1209 1.434 . S
C1211 C1212 1.369 . S
C1211 C1213 1.419 . S
C1211 H1215 0.930 . S
C1212 C1211 1.369 . S
C1212 C1221 1.429 . S
C1213 C1211 1.419 . S
C1213 C1214 1.363 . S
C1213 H1216 0.929 . S
C1214 C1213 1.363 . S
C1214 C1220 1.428 . S
H1215 C1211 0.930 . S
H1216 C1213 0.929 . S
S1217 N1218 1.613 . S
S1217 N1219 1.610 . S
N1218 S1217 1.613 . S
N1218 C1221 1.350 . S
N1219 S1217 1.610 . S
N1219 C1220 1.351 . S
C1220 C1214 1.428 . S
C1220 N1219 1.351 . S
C1220 C1221 1.434 . S
C1221 C1212 1.429 . S
C1221 N1218 1.350 . S
C1221 C1220 1.434 . S
C1222 C1223 1.369 . S
C1222 C1224 1.419 . S
C1222 H1226 0.930 . S
C1223 C1222 1.369 . S
C1223 C1232 1.429 . S
C1224 C1222 1.419 . S
C1224 C1225 1.363 . S
C1224 H1227 0.929 . S
C1225 C1224 1.363 . S
C1225 C1231 1.428 . S
H1226 C1222 0.930 . S
H1227 C1224 0.929 . S
S1228 N1229 1.613 . S
S1228 N1230 1.610 . S
N1229 S1228 1.613 . S
N1229 C1232 1.350 . S
N1230 S1228 1.610 . S
N1230 C1231 1.351 . S
C1231 C1225 1.428 . S
C1231 N1230 1.351 . S
C1231 C1232 1.434 . S
C1232 C1223 1.429 . S
C1232 N1229 1.350 . S
C1232 C1231 1.434 . S
C1233 C1234 1.369 . S
C1233 C1235 1.419 . S
C1233 H1237 0.930 . S
C1234 C1233 1.369 . S
C1234 C1243 1.429 . S
C1235 C1233 1.419 . S
C1235 C1236 1.363 . S
C1235 H1238 0.929 . S
C1236 C1235 1.363 . S
C1236 C1242 1.428 . S
H1237 C1233 0.930 . S
H1238 C1235 0.929 . S
S1239 N1240 1.613 . S
S1239 N1241 1.610 . S
N1240 S1239 1.613 . S
N1240 C1243 1.350 . S
N1241 S1239 1.610 . S
N1241 C1242 1.351 . S
C1242 C1236 1.428 . S
C1242 N1241 1.351 . S
C1242 C1243 1.434 . S
C1243 C1234 1.429 . S
C1243 N1240 1.350 . S
C1243 C1242 1.434 . S
C1244 C1245 1.369 . S
C1244 C1246 1.419 . S
C1244 H1248 0.930 . S
C1245 C1244 1.369 . S
C1245 C1254 1.429 . S
C1246 C1244 1.419 . S
C1246 C1247 1.363 . S
C1246 H1249 0.929 . S
C1247 C1246 1.363 . S
C1247 C1253 1.428 . S
H1248 C1244 0.930 . S
H1249 C1246 0.929 . S
S1250 N1251 1.613 . S
S1250 N1252 1.610 . S
N1251 S1250 1.613 . S
N1251 C1254 1.350 . S
N1252 S1250 1.610 . S
N1252 C1253 1.351 . S
C1253 C1247 1.428 . S
C1253 N1252 1.351 . S
C1253 C1254 1.434 . S
C1254 C1245 1.429 . S
C1254 N1251 1.350 . S
C1254 C1253 1.434 . S
C1255 C1256 1.369 . S
C1255 C1257 1.419 . S
C1255 H1259 0.930 . S
C1256 C1255 1.369 . S
C1256 C1265 1.429 . S
C1257 C1255 1.419 . S
C1257 C1258 1.363 . S
C1257 H1260 0.929 . S
C1258 C1257 1.363 . S
C1258 C1264 1.428 . S
H1259 C1255 0.930 . S
H1260 C1257 0.929 . S
S1261 N1262 1.613 . S
S1261 N1263 1.610 . S
N1262 S1261 1.613 . S
N1262 C1265 1.350 . S
N1263 S1261 1.610 . S
N1263 C1264 1.351 . S
C1264 C1258 1.428 . S
C1264 N1263 1.351 . S
C1264 C1265 1.434 . S
C1265 C1256 1.429 . S
C1265 N1262 1.350 . S
C1265 C1264 1.434 . S
C1266 C1267 1.369 . S
C1266 C1268 1.419 . S
C1266 H1270 0.930 . S
C1267 C1266 1.369 . S
C1267 C1276 1.429 . S
C1268 C1266 1.419 . S
C1268 C1269 1.363 . S
C1268 H1271 0.929 . S
C1269 C1268 1.363 . S
C1269 C1275 1.428 . S
H1270 C1266 0.930 . S
H1271 C1268 0.929 . S
S1272 N1273 1.613 . S
S1272 N1274 1.610 . S
N1273 S1272 1.613 . S
N1273 C1276 1.350 . S
N1274 S1272 1.610 . S
N1274 C1275 1.351 . S
C1275 C1269 1.428 . S
C1275 N1274 1.351 . S
C1275 C1276 1.434 . S
C1276 C1267 1.429 . S
C1276 N1273 1.350 . S
C1276 C1275 1.434 . S
C1277 C1278 1.369 . S
C1277 C1279 1.419 . S
C1277 H1281 0.930 . S
C1278 C1277 1.369 . S
C1278 C1287 1.429 . S
C1279 C1277 1.419 . S
C1279 C1280 1.363 . S
C1279 H1282 0.929 . S
C1280 C1279 1.363 . S
C1280 C1286 1.428 . S
H1281 C1277 0.930 . S
H1282 C1279 0.929 . S
S1283 N1284 1.613 . S
S1283 N1285 1.610 . S
N1284 S1283 1.613 . S
N1284 C1287 1.350 . S
N1285 S1283 1.610 . S
N1285 C1286 1.351 . S
C1286 C1280 1.428 . S
C1286 N1285 1.351 . S
C1286 C1287 1.434 . S
C1287 C1278 1.429 . S
C1287 N1284 1.350 . S
C1287 C1286 1.434 . S
C1288 C1289 1.369 . S
C1288 C1290 1.419 . S
C1288 H1292 0.930 . S
C1289 C1288 1.369 . S
C1289 C1298 1.429 . S
C1290 C1288 1.419 . S
C1290 C1291 1.363 . S
C1290 H1293 0.929 . S
C1291 C1290 1.363 . S
C1291 C1297 1.428 . S
H1292 C1288 0.930 . S
H1293 C1290 0.929 . S
S1294 N1295 1.613 . S
S1294 N1296 1.610 . S
N1295 S1294 1.613 . S
N1295 C1298 1.350 . S
N1296 S1294 1.610 . S
N1296 C1297 1.351 . S
C1297 C1291 1.428 . S
C1297 N1296 1.351 . S
C1297 C1298 1.434 . S
C1298 C1289 1.429 . S
C1298 N1295 1.350 . S
C1298 C1297 1.434 . S
C1299 C1300 1.369 . S
C1299 C1301 1.419 . S
C1299 H1303 0.930 . S
C1300 C1299 1.369 . S
C1300 C1309 1.429 . S
C1301 C1299 1.419 . S
C1301 C1302 1.363 . S
C1301 H1304 0.929 . S
C1302 C1301 1.363 . S
C1302 C1308 1.428 . S
H1303 C1299 0.930 . S
H1304 C1301 0.929 . S
S1305 N1306 1.613 . S
S1305 N1307 1.610 . S
N1306 S1305 1.613 . S
N1306 C1309 1.350 . S
N1307 S1305 1.610 . S
N1307 C1308 1.351 . S
C1308 C1302 1.428 . S
C1308 N1307 1.351 . S
C1308 C1309 1.434 . S
C1309 C1300 1.429 . S
C1309 N1306 1.350 . S
C1309 C1308 1.434 . S
C1310 C1311 1.369 . S
C1310 C1312 1.419 . S
C1310 H1314 0.930 . S
C1311 C1310 1.369 . S
C1311 C1320 1.429 . S
C1312 C1310 1.419 . S
C1312 C1313 1.363 . S
C1312 H1315 0.929 . S
C1313 C1312 1.363 . S
C1313 C1319 1.428 . S
H1314 C1310 0.930 . S
H1315 C1312 0.929 . S
S1316 N1317 1.613 . S
S1316 N1318 1.610 . S
N1317 S1316 1.613 . S
N1317 C1320 1.350 . S
N1318 S1316 1.610 . S
N1318 C1319 1.351 . S
C1319 C1313 1.428 . S
C1319 N1318 1.351 . S
C1319 C1320 1.434 . S
C1320 C1311 1.429 . S
C1320 N1317 1.350 . S
C1320 C1319 1.434 . S
C1321 C1322 1.369 . S
C1321 C1323 1.419 . S
C1321 H1325 0.930 . S
C1322 C1321 1.369 . S
C1322 C1331 1.429 . S
C1323 C1321 1.419 . S
C1323 C1324 1.363 . S
C1323 H1326 0.929 . S
C1324 C1323 1.363 . S
C1324 C1330 1.428 . S
H1325 C1321 0.930 . S
H1326 C1323 0.929 . S
S1327 N1328 1.613 . S
S1327 N1329 1.610 . S
N1328 S1327 1.613 . S
N1328 C1331 1.350 . S
N1329 S1327 1.610 . S
N1329 C1330 1.351 . S
C1330 C1324 1.428 . S
C1330 N1329 1.351 . S
C1330 C1331 1.434 . S
C1331 C1322 1.429 . S
C1331 N1328 1.350 . S
C1331 C1330 1.434 . S
C1332 C1333 1.369 . S
C1332 C1334 1.419 . S
C1332 H1336 0.930 . S
C1333 C1332 1.369 . S
C1333 C1342 1.429 . S
C1334 C1332 1.419 . S
C1334 C1335 1.363 . S
C1334 H1337 0.929 . S
C1335 C1334 1.363 . S
C1335 C1341 1.428 . S
H1336 C1332 0.930 . S
H1337 C1334 0.929 . S
S1338 N1339 1.613 . S
S1338 N1340 1.610 . S
N1339 S1338 1.613 . S
N1339 C1342 1.350 . S
N1340 S1338 1.610 . S
N1340 C1341 1.351 . S
C1341 C1335 1.428 . S
C1341 N1340 1.351 . S
C1341 C1342 1.434 . S
C1342 C1333 1.429 . S
C1342 N1339 1.350 . S
C1342 C1341 1.434 . S
C1343 C1344 1.369 . S
C1343 C1345 1.419 . S
C1343 H1347 0.930 . S
C1344 C1343 1.369 . S
C1344 C1353 1.429 . S
C1345 C1343 1.419 . S
C1345 C1346 1.363 . S
C1345 H1348 0.929 . S
C1346 C1345 1.363 . S
C1346 C1352 1.428 . S
H1347 C1343 0.930 . S
H1348 C1345 0.929 . S
S1349 N1350 1.613 . S
S1349 N1351 1.610 . S
N1350 S1349 1.613 . S
N1350 C1353 1.350 . S
N1351 S1349 1.610 . S
N1351 C1352 1.351 . S
C1352 C1346 1.428 . S
C1352 N1351 1.351 . S
C1352 C1353 1.434 . S
C1353 C1344 1.429 . S
C1353 N1350 1.350 . S
C1353 C1352 1.434 . S
C1354 C1355 1.369 . S
C1354 C1356 1.419 . S
C1354 H1358 0.930 . S
C1355 C1354 1.369 . S
C1355 C1364 1.429 . S
C1356 C1354 1.419 . S
C1356 C1357 1.363 . S
C1356 H1359 0.929 . S
C1357 C1356 1.363 . S
C1357 C1363 1.428 . S
H1358 C1354 0.930 . S
H1359 C1356 0.929 . S
S1360 N1361 1.613 . S
S1360 N1362 1.610 . S
N1361 S1360 1.613 . S
N1361 C1364 1.350 . S
N1362 S1360 1.610 . S
N1362 C1363 1.351 . S
C1363 C1357 1.428 . S
C1363 N1362 1.351 . S
C1363 C1364 1.434 . S
C1364 C1355 1.429 . S
C1364 N1361 1.350 . S
C1364 C1363 1.434 . S
C1365 C1366 1.369 . S
C1365 C1367 1.419 . S
C1365 H1369 0.930 . S
C1366 C1365 1.369 . S
C1366 C1375 1.429 . S
C1367 C1365 1.419 . S
C1367 C1368 1.363 . S
C1367 H1370 0.929 . S
C1368 C1367 1.363 . S
C1368 C1374 1.428 . S
H1369 C1365 0.930 . S
H1370 C1367 0.929 . S
S1371 N1372 1.613 . S
S1371 N1373 1.610 . S
N1372 S1371 1.613 . S
N1372 C1375 1.350 . S
N1373 S1371 1.610 . S
N1373 C1374 1.351 . S
C1374 C1368 1.428 . S
C1374 N1373 1.351 . S
C1374 C1375 1.434 . S
C1375 C1366 1.429 . S
C1375 N1372 1.350 . S
C1375 C1374 1.434 . S
C1376 C1377 1.369 . S
C1376 C1378 1.419 . S
C1376 H1380 0.930 . S
C1377 C1376 1.369 . S
C1377 C1386 1.429 . S
C1378 C1376 1.419 . S
C1378 C1379 1.363 . S
C1378 H1381 0.929 . S
C1379 C1378 1.363 . S
C1379 C1385 1.428 . S
H1380 C1376 0.930 . S
H1381 C1378 0.929 . S
S1382 N1383 1.613 . S
S1382 N1384 1.610 . S
N1383 S1382 1.613 . S
N1383 C1386 1.350 . S
N1384 S1382 1.610 . S
N1384 C1385 1.351 . S
C1385 C1379 1.428 . S
C1385 N1384 1.351 . S
C1385 C1386 1.434 . S
C1386 C1377 1.429 . S
C1386 N1383 1.350 . S
C1386 C1385 1.434 . S
C1387 C1388 1.369 . S
C1387 C1389 1.419 . S
C1387 H1391 0.930 . S
C1388 C1387 1.369 . S
C1388 C1397 1.429 . S
C1389 C1387 1.419 . S
C1389 C1390 1.363 . S
C1389 H1392 0.929 . S
C1390 C1389 1.363 . S
C1390 C1396 1.428 . S
H1391 C1387 0.930 . S
H1392 C1389 0.929 . S
S1393 N1394 1.613 . S
S1393 N1395 1.610 . S
N1394 S1393 1.613 . S
N1394 C1397 1.350 . S
N1395 S1393 1.610 . S
N1395 C1396 1.351 . S
C1396 C1390 1.428 . S
C1396 N1395 1.351 . S
C1396 C1397 1.434 . S
C1397 C1388 1.429 . S
C1397 N1394 1.350 . S
C1397 C1396 1.434 . S
C873 C699 1.381 . S
C871 C75 1.454 . S
C884 C700 0.921 . S
C882 C156 0.845 . S
C895 C694 1.578 . S
C893 C243 1.537 . S
C904 C315 0.691 . S
C906 C693 0.630 . S
C915 C399 0.742 . S
C917 C696 0.738 . S
C928 C698 1.422 . S
C926 C495 1.325 . S
C937 C576 1.000 . S
C939 C697 1.032 . S
C948 C654 1.385 . S
C950 C695 1.324 . S
C961 C730 0.995 . S
C959 C72 0.952 . S
C970 C140 1.570 . S
C972 C761 1.560 . S
C983 C729 1.097 . S
C981 C240 1.052 . S
C994 C764 1.097 . S
C992 C318 1.021 . S
C1003 C402 1.267 . S
C1005 C727 1.273 . S
C1016 C759 1.693 1_556 S
C1014 C492 1.601 . S
C1025 C560 1.252 . S
C1027 C732 1.402 . S
C1036 C655 2.675 . S
C1038 C766 2.683 . S
C1047 C56 3.114 . S
C1049 C762 3.221 . S
C1058 C403 2.026 . S
C1060 C765 1.931 . S
C1071 C733 2.331 . S
C1069 C476 2.151 . S
C1082 C760 1.685 1_556 S
C1080 C579 1.644 . S
C1091 C651 1.453 . S
C1093 C726 1.540 . S
C1102 C224 3.005 . S
C1104 C763 3.173 . S
C1115 C728 1.538 . S
C1113 C319 1.610 . S
C1124 C159 1.983 . S
C1126 C731 2.007 . S
C1135 C663 1.397 . S
C1137 C798 1.321 . S
C1146 C408 0.951 . S
C1148 C799 0.232 . S
C1159 C793 1.523 . S
C1157 C486 1.458 . S
C1170 C792 1.223 . S
C1168 C567 1.110 . S
C1179 C147 0.666 . S
C1181 C795 0.642 . S
C1192 C797 1.469 . S
C1190 C234 1.425 . S
C1201 C324 0.818 . S
C1203 C796 0.927 . S
C1212 C66 1.411 . S
C1214 C794 1.323 . S
C1223 C660 1.434 . S
C1225 C832 1.529 . S
C1236 C864 1.489 . S
C1234 C392 1.611 . S
C1245 C487 2.052 . S
C1247 C825 2.199 . S
C1256 C570 1.951 . S
C1258 C859 2.007 . S
C1269 C830 1.790 . S
C1267 C150 1.722 . S
C1278 C235 3.244 . S
C1280 C861 3.372 . S
C1291 C827 1.834 . S
C1289 C308 1.943 . S
C1302 C862 3.177 . S
C1300 C67 2.897 . S
C1313 C858 2.638 . S
C1311 C644 2.402 . S
C1322 C151 1.226 . S
C1324 C860 1.277 . S
C1333 C231 0.921 . S
C1335 C829 0.974 . S
C1346 C863 1.311 . S
C1344 C327 1.268 . S
C1355 C63 0.972 . S
C1357 C828 1.004 . S
C1366 C483 1.783 . S
C1368 C865 1.830 . S
C1379 C831 1.482 . S
C1377 C571 1.492 . S
C1390 C826 1.205 . S
C1388 C411 1.060 . S
