# Generated by pormake.
# Topology eea, (3,6)-cn, num edge types: 1
# Building blocks:
#     Node 0, Type 0, BuildingBlock: WUSLED_clean_sbu_0, # of connection points: 3
#     Node 1, Type 0, BuildingBlock: WUSLED_clean_sbu_0, # of connection points: 3
#     Node 2, Type 0, BuildingBlock: WUSLED_clean_sbu_0, # of connection points: 3
#     Node 3, Type 0, BuildingBlock: WUSLED_clean_sbu_0, # of connection points: 3
#     Node 4, Type 0, BuildingBlock: WUSLED_clean_sbu_0, # of connection points: 3
#     Node 5, Type 0, BuildingBlock: WUSLED_clean_sbu_0, # of connection points: 3
#     Node 6, Type 0, BuildingBlock: WUSLED_clean_sbu_0, # of connection points: 3
#     Node 7, Type 0, BuildingBlock: WUSLED_clean_sbu_0, # of connection points: 3
#     Node 8, Type 0, BuildingBlock: WUSLED_clean_sbu_0, # of connection points: 3
#     Node 9, Type 0, BuildingBlock: WUSLED_clean_sbu_0, # of connection points: 3
#     Node 10, Type 0, BuildingBlock: WUSLED_clean_sbu_0, # of connection points: 3
#     Node 11, Type 0, BuildingBlock: WUSLED_clean_sbu_0, # of connection points: 3
#     Node 12, Type 0, BuildingBlock: WUSLED_clean_sbu_0, # of connection points: 3
#     Node 13, Type 0, BuildingBlock: WUSLED_clean_sbu_0, # of connection points: 3
#     Node 14, Type 0, BuildingBlock: WUSLED_clean_sbu_0, # of connection points: 3
#     Node 15, Type 0, BuildingBlock: WUSLED_clean_sbu_0, # of connection points: 3
#     Node 16, Type 0, BuildingBlock: WUSLED_clean_sbu_0, # of connection points: 3
#     Node 17, Type 0, BuildingBlock: WUSLED_clean_sbu_0, # of connection points: 3
#     Node 18, Type 1, BuildingBlock: LEVNOQ01_clean_sbu_1, # of connection points: 6
#     Node 19, Type 1, BuildingBlock: LEVNOQ01_clean_sbu_1, # of connection points: 6
#     Node 20, Type 1, BuildingBlock: LEVNOQ01_clean_sbu_1, # of connection points: 6
#     Node 21, Type 1, BuildingBlock: LEVNOQ01_clean_sbu_1, # of connection points: 6
#     Node 22, Type 1, BuildingBlock: LEVNOQ01_clean_sbu_1, # of connection points: 6
#     Node 23, Type 1, BuildingBlock: LEVNOQ01_clean_sbu_1, # of connection points: 6
#     Node 24, Type 1, BuildingBlock: LEVNOQ01_clean_sbu_1, # of connection points: 6
#     Node 25, Type 1, BuildingBlock: LEVNOQ01_clean_sbu_1, # of connection points: 6
#     Node 26, Type 1, BuildingBlock: LEVNOQ01_clean_sbu_1, # of connection points: 6
#     Edge 27, Type (0, 1), BuildingBlock: TEMPAE_clean_linker_10, # of connection points: 2
#     Edge 28, Type (0, 1), BuildingBlock: TEMPAE_clean_linker_10, # of connection points: 2
#     Edge 29, Type (0, 1), BuildingBlock: TEMPAE_clean_linker_10, # of connection points: 2
#     Edge 30, Type (0, 1), BuildingBlock: TEMPAE_clean_linker_10, # of connection points: 2
#     Edge 31, Type (0, 1), BuildingBlock: TEMPAE_clean_linker_10, # of connection points: 2
#     Edge 32, Type (0, 1), BuildingBlock: TEMPAE_clean_linker_10, # of connection points: 2
#     Edge 33, Type (0, 1), BuildingBlock: TEMPAE_clean_linker_10, # of connection points: 2
#     Edge 34, Type (0, 1), BuildingBlock: TEMPAE_clean_linker_10, # of connection points: 2
#     Edge 35, Type (0, 1), BuildingBlock: TEMPAE_clean_linker_10, # of connection points: 2
#     Edge 36, Type (0, 1), BuildingBlock: TEMPAE_clean_linker_10, # of connection points: 2
#     Edge 37, Type (0, 1), BuildingBlock: TEMPAE_clean_linker_10, # of connection points: 2
#     Edge 38, Type (0, 1), BuildingBlock: TEMPAE_clean_linker_10, # of connection points: 2
#     Edge 39, Type (0, 1), BuildingBlock: TEMPAE_clean_linker_10, # of connection points: 2
#     Edge 40, Type (0, 1), BuildingBlock: TEMPAE_clean_linker_10, # of connection points: 2
#     Edge 41, Type (0, 1), BuildingBlock: TEMPAE_clean_linker_10, # of connection points: 2
#     Edge 42, Type (0, 1), BuildingBlock: TEMPAE_clean_linker_10, # of connection points: 2
#     Edge 43, Type (0, 1), BuildingBlock: TEMPAE_clean_linker_10, # of connection points: 2
#     Edge 44, Type (0, 1), BuildingBlock: TEMPAE_clean_linker_10, # of connection points: 2
#     Edge 45, Type (0, 1), BuildingBlock: TEMPAE_clean_linker_10, # of connection points: 2
#     Edge 46, Type (0, 1), BuildingBlock: TEMPAE_clean_linker_10, # of connection points: 2
#     Edge 47, Type (0, 1), BuildingBlock: TEMPAE_clean_linker_10, # of connection points: 2
#     Edge 48, Type (0, 1), BuildingBlock: TEMPAE_clean_linker_10, # of connection points: 2
#     Edge 49, Type (0, 1), BuildingBlock: TEMPAE_clean_linker_10, # of connection points: 2
#     Edge 50, Type (0, 1), BuildingBlock: TEMPAE_clean_linker_10, # of connection points: 2
#     Edge 51, Type (0, 1), BuildingBlock: TEMPAE_clean_linker_10, # of connection points: 2
#     Edge 52, Type (0, 1), BuildingBlock: TEMPAE_clean_linker_10, # of connection points: 2
#     Edge 53, Type (0, 1), BuildingBlock: TEMPAE_clean_linker_10, # of connection points: 2
#     Edge 54, Type (0, 1), BuildingBlock: TEMPAE_clean_linker_10, # of connection points: 2
#     Edge 55, Type (0, 1), BuildingBlock: TEMPAE_clean_linker_10, # of connection points: 2
#     Edge 56, Type (0, 1), BuildingBlock: TEMPAE_clean_linker_10, # of connection points: 2
#     Edge 57, Type (0, 1), BuildingBlock: TEMPAE_clean_linker_10, # of connection points: 2
#     Edge 58, Type (0, 1), BuildingBlock: TEMPAE_clean_linker_10, # of connection points: 2
#     Edge 59, Type (0, 1), BuildingBlock: TEMPAE_clean_linker_10, # of connection points: 2
#     Edge 60, Type (0, 1), BuildingBlock: TEMPAE_clean_linker_10, # of connection points: 2
#     Edge 61, Type (0, 1), BuildingBlock: TEMPAE_clean_linker_10, # of connection points: 2
#     Edge 62, Type (0, 1), BuildingBlock: TEMPAE_clean_linker_10, # of connection points: 2
#     Edge 63, Type (0, 1), BuildingBlock: TEMPAE_clean_linker_10, # of connection points: 2
#     Edge 64, Type (0, 1), BuildingBlock: TEMPAE_clean_linker_10, # of connection points: 2
#     Edge 65, Type (0, 1), BuildingBlock: TEMPAE_clean_linker_10, # of connection points: 2
#     Edge 66, Type (0, 1), BuildingBlock: TEMPAE_clean_linker_10, # of connection points: 2
#     Edge 67, Type (0, 1), BuildingBlock: TEMPAE_clean_linker_10, # of connection points: 2
#     Edge 68, Type (0, 1), BuildingBlock: TEMPAE_clean_linker_10, # of connection points: 2
#     Edge 69, Type (0, 1), BuildingBlock: TEMPAE_clean_linker_10, # of connection points: 2
#     Edge 70, Type (0, 1), BuildingBlock: TEMPAE_clean_linker_10, # of connection points: 2
#     Edge 71, Type (0, 1), BuildingBlock: TEMPAE_clean_linker_10, # of connection points: 2
#     Edge 72, Type (0, 1), BuildingBlock: TEMPAE_clean_linker_10, # of connection points: 2
#     Edge 73, Type (0, 1), BuildingBlock: TEMPAE_clean_linker_10, # of connection points: 2
#     Edge 74, Type (0, 1), BuildingBlock: TEMPAE_clean_linker_10, # of connection points: 2
#     Edge 75, Type (0, 1), BuildingBlock: TEMPAE_clean_linker_10, # of connection points: 2
#     Edge 76, Type (0, 1), BuildingBlock: TEMPAE_clean_linker_10, # of connection points: 2
#     Edge 77, Type (0, 1), BuildingBlock: TEMPAE_clean_linker_10, # of connection points: 2
#     Edge 78, Type (0, 1), BuildingBlock: TEMPAE_clean_linker_10, # of connection points: 2
#     Edge 79, Type (0, 1), BuildingBlock: TEMPAE_clean_linker_10, # of connection points: 2
#     Edge 80, Type (0, 1), BuildingBlock: TEMPAE_clean_linker_10, # of connection points: 2
# Relax obj value: 0.092
# Max RMSD: 0.178
# Mean RMSD: 0.088
data_MOF--net-eea--node1-WUSLED_clean_sbu_0--node2-LEVNOQ01_clean_sbu_1--edge1-TEMPAE_clean_linker_10
_symmetry_space_group_name_H-M    P1
_symmetry_Int_Tables_number       1
_symmetry_cell_setting            triclinic
loop_
_symmetry_equiv_pos_as_xyz
'x, y, z'
_cell_length_a     71.857225
_cell_length_b     71.714403
_cell_length_c     71.625422
_cell_angle_alpha  89.957245
_cell_angle_beta   90.18133
_cell_angle_gamma 119.94609
loop_
_atom_site_label
_atom_site_type_symbol
_atom_site_fract_x
_atom_site_fract_y
_atom_site_fract_z
_atom_type_partial_charge
C0 C 0.21242 0.14076 0.39334 0.0
C1 C 0.22706 0.16224 0.39797 0.0
C2 C 0.2036 0.17376 0.38375 0.0
C3 C 0.22275 0.17859 0.39312 0.0
C4 C 0.18896 0.15215 0.37924 0.0
C5 C 0.19337 0.13583 0.38396 0.0
U6 U 0.23791 0.11855 0.42632 0.0
O7 O 0.22448 0.08672 0.43938 0.0
O8 O 0.25291 0.09871 0.42145 0.0
C9 C 0.23829 0.08248 0.43119 0.0
C10 C 0.21634 0.1233 0.39897 0.0
C11 C 0.22899 0.06133 0.42226 0.0
C12 C 0.20523 0.03509 0.39952 0.0
C13 C 0.21397 0.05546 0.40773 0.0
C14 C 0.22647 0.0264 0.42038 0.0
C15 C 0.21148 0.02038 0.40572 0.0
C16 C 0.23514 0.04671 0.42856 0.0
C17 C 0.27056 0.14989 0.46758 0.0
C18 C 0.2878 0.13455 0.48637 0.0
C19 C 0.2805 0.1613 0.49969 0.0
C20 C 0.27167 0.16275 0.48271 0.0
C21 C 0.28841 0.14697 0.5018 0.0
C22 C 0.27883 0.13591 0.46945 0.0
C23 C 0.25866 0.14931 0.45069 0.0
O24 O 0.23621 0.12724 0.39717 0.0
O25 O 0.2075 0.11403 0.41488 0.0
O26 O 0.23791 0.13581 0.45165 0.0
O27 O 0.26717 0.14823 0.43477 0.0
H28 H 0.2418 0.16635 0.40537 0.0
H29 H 0.23455 0.19505 0.39655 0.0
H30 H 0.17393 0.14778 0.37227 0.0
H31 H 0.18179 0.11931 0.38047 0.0
H32 H 0.19394 0.03101 0.38809 0.0
H33 H 0.2091 0.06664 0.40271 0.0
H34 H 0.23143 0.01536 0.42558 0.0
H35 H 0.24667 0.05102 0.43984 0.0
H36 H 0.294 0.12359 0.48743 0.0
H37 H 0.2804 0.17086 0.51134 0.0
H38 H 0.26506 0.17338 0.48159 0.0
H39 H 0.27787 0.12564 0.45797 0.0
C40 C 0.92966 0.14909 0.37993 0.0
C41 C 0.93837 0.16951 0.38819 0.0
C42 C 0.97076 0.18243 0.36943 0.0
C43 C 0.95872 0.18607 0.38292 0.0
C44 C 0.96174 0.16204 0.36097 0.0
C45 C 0.94137 0.14553 0.36617 0.0
U46 U 0.8847 0.12351 0.41579 0.0
O47 O 0.84985 0.10232 0.4126 0.0
O48 O 0.86889 0.09087 0.42771 0.0
C49 C 0.84995 0.08609 0.42108 0.0
C50 C 0.9091 0.13103 0.38634 0.0
C51 C 0.83736 0.0647 0.41242 0.0
C52 C 0.81937 0.04153 0.38582 0.0
C53 C 0.83265 0.06209 0.39323 0.0
C54 C 0.81582 0.02598 0.41656 0.0
C55 C 0.81069 0.02327 0.39744 0.0
C56 C 0.82898 0.0465 0.42396 0.0
C57 C 0.88445 0.15165 0.45981 0.0
C58 C 0.86142 0.13069 0.48547 0.0
C59 C 0.87824 0.16956 0.48578 0.0
C60 C 0.8879 0.17056 0.46858 0.0
C61 C 0.86504 0.14961 0.49454 0.0
C62 C 0.87092 0.1317 0.46824 0.0
C63 C 0.8948 0.15261 0.44187 0.0
O64 O 0.91045 0.12126 0.40137 0.0
O65 O 0.89271 0.13442 0.38666 0.0
O66 O 0.8836 0.15158 0.42696 0.0
O67 O 0.90339 0.14021 0.44077 0.0
H68 H 0.92964 0.17248 0.39898 0.0
H69 H 0.96532 0.20152 0.38986 0.0
H70 H 0.97053 0.1588 0.35041 0.0
H71 H 0.93491 0.12985 0.3597 0.0
H72 H 0.81591 0.0399 0.37099 0.0
H73 H 0.839 0.0759 0.38403 0.0
H74 H 0.80923 0.01227 0.42589 0.0
H75 H 0.83233 0.0482 0.43881 0.0
H76 H 0.85161 0.11508 0.49185 0.0
H77 H 0.88107 0.18444 0.49217 0.0
H78 H 0.8981 0.18608 0.46217 0.0
H79 H 0.86791 0.11687 0.46159 0.0
C80 C 0.85276 0.77368 0.37817 0.0
C81 C 0.83268 0.76135 0.38673 0.0
C82 C 0.81878 0.78135 0.37001 0.0
C83 C 0.81581 0.76506 0.3826 0.0
C84 C 0.83886 0.79355 0.36132 0.0
C85 C 0.85572 0.78969 0.36535 0.0
U86 U 0.87868 0.75658 0.41469 0.0
O87 O 0.89613 0.7386 0.41297 0.0
O88 O 0.91188 0.77119 0.42489 0.0
C89 C 0.91411 0.755 0.41916 0.0
C90 C 0.87095 0.77088 0.38366 0.0
C91 C 0.9335 0.76076 0.40808 0.0
C92 C 0.96166 0.78472 0.38677 0.0
C93 C 0.94234 0.77862 0.39605 0.0
C94 C 0.96301 0.75465 0.40077 0.0
C95 C 0.97234 0.77294 0.38921 0.0
C96 C 0.94381 0.74867 0.41014 0.0
C97 C 0.84699 0.73687 0.46079 0.0
C98 C 0.85244 0.71714 0.48575 0.0
C99 C 0.8312 0.73426 0.4913 0.0
C100 C 0.83465 0.74165 0.47289 0.0
C101 C 0.83999 0.72186 0.49797 0.0
C102 C 0.85597 0.72465 0.46733 0.0
C103 C 0.85013 0.74486 0.44148 0.0
O104 O 0.8829 0.78365 0.39719 0.0
O105 O 0.86642 0.75083 0.38587 0.0
O106 O 0.84939 0.73167 0.42837 0.0
O107 O 0.86561 0.76479 0.43906 0.0
H108 H 0.83016 0.74913 0.39692 0.0
H109 H 0.80063 0.75564 0.38973 0.0
H110 H 0.84154 0.80613 0.35149 0.0
H111 H 0.87116 0.79947 0.35873 0.0
H112 H 0.96834 0.79875 0.37781 0.0
H113 H 0.93454 0.78808 0.39411 0.0
H114 H 0.97096 0.74539 0.40311 0.0
H115 H 0.93723 0.73484 0.41934 0.0
H116 H 0.85924 0.70741 0.49035 0.0
H117 H 0.82183 0.73849 0.50037 0.0
H118 H 0.82768 0.75117 0.46808 0.0
H119 H 0.8656 0.72083 0.4582 0.0
C120 C 0.07611 0.22521 0.63044 0.0
C121 C 0.06768 0.23761 0.62309 0.0
C122 C 0.03418 0.21565 0.63979 0.0
C123 C 0.04691 0.23294 0.62781 0.0
C124 C 0.04279 0.20341 0.64721 0.0
C125 C 0.0636 0.20819 0.64259 0.0
U126 U 0.12264 0.24632 0.59598 0.0
O127 O 0.15753 0.26238 0.60077 0.0
O128 O 0.141 0.23128 0.58615 0.0
C129 C 0.15904 0.24632 0.59354 0.0
C130 C 0.09746 0.22912 0.62493 0.0
C131 C 0.17132 0.23849 0.60418 0.0
C132 C 0.18605 0.23339 0.63312 0.0
C133 C 0.17379 0.2407 0.62367 0.0
C134 C 0.19302 0.22127 0.60375 0.0
C135 C 0.19576 0.22358 0.62321 0.0
C136 C 0.18096 0.22868 0.59436 0.0
C137 C 0.12116 0.27128 0.54987 0.0
C138 C 0.15268 0.28978 0.53007 0.0
C139 C 0.1171 0.27535 0.5167 0.0
C140 C 0.10803 0.26796 0.5343 0.0
C141 C 0.13956 0.28635 0.51433 0.0
C142 C 0.14356 0.28221 0.54765 0.0
C143 C 0.11123 0.26206 0.56802 0.0
O144 O 0.09755 0.21785 0.61051 0.0
O145 O 0.11285 0.24938 0.62437 0.0
O146 O 0.12136 0.27343 0.58288 0.0
O147 O 0.10461 0.24145 0.56985 0.0
H148 H 0.07702 0.25068 0.61351 0.0
H149 H 0.0406 0.24248 0.62169 0.0
H150 H 0.03342 0.19012 0.65658 0.0
H151 H 0.06984 0.19841 0.64833 0.0
H152 H 0.18787 0.23532 0.64813 0.0
H153 H 0.16637 0.24812 0.63157 0.0
H154 H 0.20062 0.21415 0.59569 0.0
H155 H 0.1793 0.2269 0.57932 0.0
H156 H 0.17 0.29839 0.52884 0.0
H157 H 0.10646 0.27204 0.50488 0.0
H158 H 0.0907 0.25931 0.53569 0.0
H159 H 0.15401 0.28473 0.55946 0.0
C160 C 0.78129 0.84619 0.62237 0.0
C161 C 0.78455 0.83549 0.60739 0.0
C162 C 0.78925 0.81206 0.62905 0.0
C163 C 0.78867 0.81869 0.61072 0.0
C164 C 0.78523 0.82228 0.64399 0.0
C165 C 0.78137 0.83929 0.64066 0.0
U166 U 0.75982 0.87435 0.59205 0.0
O167 O 0.74595 0.89498 0.59844 0.0
O168 O 0.77518 0.90737 0.58142 0.0
C169 C 0.7614 0.9116 0.58968 0.0
C170 C 0.77828 0.86479 0.61901 0.0
C171 C 0.77049 0.93257 0.59906 0.0
C172 C 0.80019 0.9637 0.61393 0.0
C173 C 0.79115 0.9427 0.60699 0.0
C174 C 0.76777 0.9643 0.60561 0.0
C175 C 0.78864 0.97477 0.61314 0.0
C176 C 0.75882 0.94341 0.59861 0.0
C177 C 0.73035 0.84933 0.54778 0.0
C178 C 0.72853 0.87222 0.52369 0.0
C179 C 0.70566 0.83348 0.52181 0.0
C180 C 0.71439 0.83117 0.53853 0.0
C181 C 0.71294 0.85403 0.514 0.0
C182 C 0.73703 0.86989 0.54048 0.0
C183 C 0.74019 0.847 0.56495 0.0
O184 O 0.78881 0.87679 0.60462 0.0
O185 O 0.75842 0.861 0.62013 0.0
O186 O 0.73045 0.84689 0.58049 0.0
O187 O 0.76116 0.85937 0.56579 0.0
H188 H 0.78425 0.84033 0.59312 0.0
H189 H 0.7915 0.81092 0.59898 0.0
H190 H 0.78572 0.81756 0.65827 0.0
H191 H 0.77879 0.84727 0.65238 0.0
H192 H 0.81619 0.97129 0.6199 0.0
H193 H 0.80043 0.93458 0.60749 0.0
H194 H 0.75855 0.97247 0.60467 0.0
H195 H 0.74292 0.9359 0.59241 0.0
H196 H 0.73467 0.88824 0.51805 0.0
H197 H 0.69333 0.81916 0.51493 0.0
H198 H 0.70885 0.81521 0.54413 0.0
H199 H 0.74919 0.88415 0.54758 0.0
C200 C 0.07851 0.8544 0.6264 0.0
C201 C 0.06513 0.83893 0.61329 0.0
C202 C 0.03761 0.82084 0.63701 0.0
C203 C 0.04484 0.82233 0.61854 0.0
C204 C 0.05126 0.83617 0.65018 0.0
C205 C 0.07153 0.85286 0.64488 0.0
U206 U 0.12427 0.88023 0.59155 0.0
O207 O 0.14208 0.91331 0.58097 0.0
O208 O 0.15928 0.8996 0.59578 0.0
C209 C 0.16045 0.91674 0.58796 0.0
C210 C 0.09953 0.87235 0.6208 0.0
C211 C 0.173 0.9371 0.59809 0.0
C212 C 0.1756 0.96414 0.61999 0.0
C213 C 0.16348 0.94407 0.61136 0.0
C214 C 0.20691 0.97018 0.60242 0.0
C215 C 0.19743 0.97746 0.61553 0.0
C216 C 0.19477 0.95019 0.59378 0.0
C217 C 0.12344 0.85278 0.54663 0.0
C218 C 0.15262 0.87203 0.52466 0.0
C219 C 0.12284 0.83689 0.5166 0.0
C220 C 0.11339 0.83576 0.53392 0.0
C221 C 0.14249 0.85512 0.51171 0.0
C222 C 0.14316 0.87087 0.54197 0.0
C223 C 0.1131 0.85205 0.56447 0.0
O224 O 0.11528 0.86803 0.62028 0.0
O225 O 0.09917 0.88333 0.60624 0.0
O226 O 0.10602 0.86572 0.5658 0.0
O227 O 0.12356 0.85169 0.57943 0.0
H228 H 0.07033 0.83978 0.59898 0.0
H229 H 0.03486 0.81057 0.60815 0.0
H230 H 0.0461 0.83549 0.66448 0.0
H231 H 0.08168 0.86466 0.65518 0.0
H232 H 0.16794 0.9692 0.63022 0.0
H233 H 0.14667 0.9341 0.6149 0.0
H234 H 0.22362 0.98013 0.59858 0.0
H235 H 0.20234 0.94507 0.5835 0.0
H236 H 0.16762 0.88637 0.52128 0.0
H237 H 0.11478 0.82345 0.50705 0.0
H238 H 0.09818 0.82167 0.53733 0.0
H239 H 0.15109 0.88422 0.55163 0.0
C240 C 0.88316 0.47586 0.72528 0.0
C241 C 0.8878 0.49217 0.7384 0.0
C242 C 0.87422 0.50907 0.71708 0.0
C243 C 0.88329 0.50858 0.73437 0.0
C244 C 0.86994 0.49288 0.70386 0.0
C245 C 0.87433 0.47638 0.70796 0.0
U246 U 0.90802 0.45218 0.757 0.0
O247 O 0.89444 0.41997 0.76942 0.0
O248 O 0.92306 0.43248 0.75165 0.0
C249 C 0.90849 0.41606 0.76128 0.0
C250 C 0.88697 0.45806 0.72984 0.0
C251 C 0.89962 0.3948 0.75255 0.0
C252 C 0.88271 0.37026 0.72657 0.0
C253 C 0.8909 0.39073 0.73448 0.0
C254 C 0.89162 0.35777 0.75485 0.0
C255 C 0.88308 0.35356 0.73666 0.0
C256 C 0.89982 0.3782 0.76269 0.0
C257 C 0.93986 0.48271 0.79908 0.0
C258 C 0.95697 0.46739 0.81805 0.0
C259 C 0.95018 0.49463 0.83102 0.0
C260 C 0.94126 0.49589 0.81403 0.0
C261 C 0.95792 0.48017 0.83331 0.0
C262 C 0.94791 0.46856 0.80112 0.0
C263 C 0.92818 0.48225 0.78209 0.0
O264 O 0.90695 0.46235 0.72816 0.0
O265 O 0.8778 0.44773 0.74531 0.0
O266 O 0.90745 0.46857 0.78272 0.0
O267 O 0.93704 0.4816 0.76625 0.0
H268 H 0.89476 0.49208 0.75182 0.0
H269 H 0.88701 0.52098 0.74471 0.0
H270 H 0.86282 0.49275 0.69048 0.0
H271 H 0.87062 0.4639 0.69769 0.0
H272 H 0.87649 0.36761 0.71244 0.0
H273 H 0.89058 0.4034 0.72648 0.0
H274 H 0.89188 0.34523 0.76309 0.0
H275 H 0.90638 0.38107 0.77673 0.0
H276 H 0.96303 0.45631 0.81924 0.0
H277 H 0.95033 0.50447 0.84254 0.0
H278 H 0.93487 0.50669 0.81276 0.0
H279 H 0.94675 0.45807 0.78975 0.0
C280 C 0.59848 0.48505 0.71432 0.0
C281 C 0.60673 0.50523 0.72295 0.0
C282 C 0.63981 0.51887 0.70511 0.0
C283 C 0.62718 0.52204 0.71832 0.0
C284 C 0.63131 0.49871 0.69632 0.0
C285 C 0.6108 0.48196 0.70087 0.0
U286 U 0.55372 0.45793 0.74992 0.0
O287 O 0.5186 0.43827 0.74655 0.0
O288 O 0.53666 0.42463 0.76003 0.0
C289 C 0.51792 0.42115 0.75391 0.0
C290 C 0.57767 0.4668 0.72001 0.0
C291 C 0.5046 0.40066 0.74413 0.0
C292 C 0.50059 0.37131 0.72443 0.0
C293 C 0.51358 0.39169 0.73227 0.0
C294 C 0.46951 0.36899 0.73983 0.0
C295 C 0.47843 0.35966 0.72827 0.0
C296 C 0.4825 0.38928 0.74769 0.0
C297 C 0.55532 0.48358 0.79592 0.0
C298 C 0.53122 0.46154 0.82062 0.0
C299 C 0.55084 0.50038 0.82361 0.0
C300 C 0.56031 0.5021 0.80618 0.0
C301 C 0.5363 0.48005 0.83112 0.0
C302 C 0.54055 0.4633 0.80315 0.0
C303 C 0.5653 0.48529 0.77765 0.0
O304 O 0.57866 0.45558 0.73411 0.0
O305 O 0.56168 0.47073 0.72132 0.0
O306 O 0.55426 0.4859 0.76323 0.0
O307 O 0.57292 0.47219 0.77525 0.0
H308 H 0.59753 0.50785 0.73353 0.0
H309 H 0.63339 0.53731 0.72549 0.0
H310 H 0.64059 0.49586 0.68599 0.0
H311 H 0.60471 0.46646 0.69413 0.0
H312 H 0.50785 0.36466 0.71535 0.0
H313 H 0.53063 0.40029 0.7293 0.0
H314 H 0.45256 0.36037 0.74318 0.0
H315 H 0.47533 0.39593 0.75689 0.0
H316 H 0.52031 0.44564 0.826 0.0
H317 H 0.55481 0.51501 0.83112 0.0
H318 H 0.57151 0.51789 0.80072 0.0
H319 H 0.53636 0.44878 0.79534 0.0
C320 C 0.51898 0.10919 0.7099 0.0
C321 C 0.49881 0.09632 0.71814 0.0
C322 C 0.4843 0.1154 0.70084 0.0
C323 C 0.48159 0.09931 0.71357 0.0
C324 C 0.50442 0.12797 0.69232 0.0
C325 C 0.52163 0.12485 0.69681 0.0
U326 U 0.54539 0.0945 0.74792 0.0
O327 O 0.5651 0.07894 0.74763 0.0
O328 O 0.57841 0.11163 0.75896 0.0
C329 C 0.58226 0.0963 0.75382 0.0
C330 C 0.53764 0.10769 0.71626 0.0
C331 C 0.6022 0.10349 0.74315 0.0
C332 C 0.6211 0.10679 0.71411 0.0
C333 C 0.60191 0.10022 0.72378 0.0
C334 C 0.64109 0.12063 0.74292 0.0
C335 C 0.64093 0.11689 0.72361 0.0
C336 C 0.62193 0.11392 0.75257 0.0
C337 C 0.51228 0.07251 0.79297 0.0
C338 C 0.52108 0.05647 0.81892 0.0
C339 C 0.49267 0.06512 0.82212 0.0
C340 C 0.4963 0.07291 0.80383 0.0
C341 C 0.50496 0.05674 0.82989 0.0
C342 C 0.52474 0.06434 0.80062 0.0
C343 C 0.51555 0.08068 0.77374 0.0
O344 O 0.5484 0.1208 0.73003 0.0
O345 O 0.53427 0.08806 0.71874 0.0
O346 O 0.51644 0.06815 0.7608 0.0
O347 O 0.53009 0.10105 0.77164 0.0
H348 H 0.49654 0.08437 0.72852 0.0
H349 H 0.46637 0.08961 0.72056 0.0
H350 H 0.5069 0.14039 0.68238 0.0
H351 H 0.53714 0.13504 0.69044 0.0
H352 H 0.62035 0.10349 0.69929 0.0
H353 H 0.58685 0.09237 0.71617 0.0
H354 H 0.65607 0.12874 0.75063 0.0
H355 H 0.6225 0.1168 0.76747 0.0
H356 H 0.53066 0.04988 0.82439 0.0
H357 H 0.48036 0.06586 0.83023 0.0
H358 H 0.48661 0.07927 0.79814 0.0
H359 H 0.53718 0.06393 0.79242 0.0
C360 C 0.74516 0.56305 0.96328 0.0
C361 C 0.73692 0.57521 0.95507 0.0
C362 C 0.7031 0.554 0.97153 0.0
C363 C 0.7161 0.57079 0.95924 0.0
C364 C 0.71144 0.54186 0.97971 0.0
C365 C 0.73232 0.5464 0.97564 0.0
U366 U 0.79267 0.58278 0.93003 0.0
O367 O 0.82748 0.60087 0.93576 0.0
O368 O 0.81274 0.56872 0.92302 0.0
C369 C 0.83021 0.58496 0.93012 0.0
C370 C 0.76685 0.56713 0.95879 0.0
C371 C 0.84299 0.57921 0.94239 0.0
C372 C 0.84576 0.5554 0.96499 0.0
C373 C 0.83327 0.56205 0.95508 0.0
C374 C 0.87782 0.58365 0.95028 0.0
C375 C 0.86815 0.5659 0.96244 0.0
C376 C 0.86534 0.5902 0.94035 0.0
C377 C 0.79118 0.6039 0.88186 0.0
C378 C 0.82291 0.6214 0.86221 0.0
C379 C 0.78753 0.60735 0.84852 0.0
C380 C 0.77825 0.60046 0.86613 0.0
C381 C 0.81 0.61793 0.84631 0.0
C382 C 0.81358 0.61436 0.8798 0.0
C383 C 0.78104 0.59551 0.9001 0.0
O384 O 0.76773 0.55501 0.94547 0.0
O385 O 0.78186 0.58747 0.95741 0.0
O386 O 0.79039 0.6081 0.91457 0.0
O387 O 0.77542 0.57532 0.90321 0.0
H388 H 0.74651 0.58801 0.94533 0.0
H389 H 0.71001 0.58023 0.95254 0.0
H390 H 0.70186 0.52893 0.98933 0.0
H391 H 0.7384 0.53682 0.98208 0.0
H392 H 0.83789 0.54181 0.97439 0.0
H393 H 0.816 0.55343 0.95691 0.0
H394 H 0.89496 0.5919 0.94778 0.0
H395 H 0.8731 0.60344 0.93059 0.0
H396 H 0.84025 0.6297 0.86109 0.0
H397 H 0.77704 0.60404 0.83659 0.0
H398 H 0.76092 0.59218 0.86741 0.0
H399 H 0.82386 0.61698 0.89178 0.0
C400 C 0.45397 0.18675 0.95869 0.0
C401 C 0.44934 0.17035 0.94569 0.0
C402 C 0.46539 0.15513 0.96626 0.0
C403 C 0.45501 0.15468 0.94943 0.0
C404 C 0.46978 0.17153 0.97931 0.0
C405 C 0.46414 0.18721 0.97552 0.0
U406 U 0.42787 0.20959 0.92721 0.0
O407 O 0.41026 0.22673 0.93346 0.0
O408 O 0.43967 0.24225 0.91661 0.0
C409 C 0.42453 0.24433 0.92493 0.0
C410 C 0.44867 0.20364 0.95458 0.0
C411 C 0.43173 0.26473 0.93486 0.0
C412 C 0.45877 0.29532 0.95239 0.0
C413 C 0.45124 0.27484 0.94474 0.0
C414 C 0.42701 0.2954 0.94099 0.0
C415 C 0.44685 0.30592 0.95039 0.0
C416 C 0.41957 0.275 0.93325 0.0
C417 C 0.4003 0.18168 0.88278 0.0
C418 C 0.38193 0.19608 0.86432 0.0
C419 C 0.39383 0.17335 0.84978 0.0
C420 C 0.40191 0.17121 0.86691 0.0
C421 C 0.38392 0.18599 0.84823 0.0
C422 C 0.39016 0.19405 0.88142 0.0
C423 C 0.41115 0.18148 0.90011 0.0
O424 O 0.45821 0.21534 0.93978 0.0
O425 O 0.42816 0.19766 0.95549 0.0
O426 O 0.40082 0.17996 0.91569 0.0
O427 O 0.43157 0.19624 0.9008 0.0
H428 H 0.4415 0.1698 0.93259 0.0
H429 H 0.45154 0.14241 0.93903 0.0
H430 H 0.47737 0.17212 0.99255 0.0
H431 H 0.46776 0.19972 0.98573 0.0
H432 H 0.47395 0.30291 0.95983 0.0
H433 H 0.46083 0.26711 0.94619 0.0
H434 H 0.41755 0.3032 0.93913 0.0
H435 H 0.40452 0.26746 0.9256 0.0
H436 H 0.37414 0.20568 0.86368 0.0
H437 H 0.39595 0.16563 0.83763 0.0
H438 H 0.40998 0.16187 0.86766 0.0
H439 H 0.38901 0.2025 0.89349 0.0
C440 C 0.74339 0.18562 0.96229 0.0
C441 C 0.7303 0.16914 0.94982 0.0
C442 C 0.70249 0.15261 0.97352 0.0
C443 C 0.71003 0.15281 0.95536 0.0
C444 C 0.71588 0.16891 0.98611 0.0
C445 C 0.73617 0.18533 0.9805 0.0
U446 U 0.78754 0.21032 0.92606 0.0
O447 O 0.80481 0.24303 0.91458 0.0
O448 O 0.82272 0.2297 0.9288 0.0
C449 C 0.82357 0.24652 0.92061 0.0
C450 C 0.76425 0.20341 0.95616 0.0
C451 C 0.83703 0.26734 0.9297 0.0
C452 C 0.84314 0.29366 0.95372 0.0
C453 C 0.83026 0.27328 0.94584 0.0
C454 C 0.86964 0.30213 0.92945 0.0
C455 C 0.86296 0.30831 0.94556 0.0
C456 C 0.85676 0.28182 0.9216 0.0
C457 C 0.78498 0.18238 0.88132 0.0
C458 C 0.81318 0.20223 0.85864 0.0
C459 C 0.78404 0.16646 0.85124 0.0
C460 C 0.77504 0.16514 0.86882 0.0
C461 C 0.80312 0.18511 0.84588 0.0
C462 C 0.80418 0.20086 0.8762 0.0
C463 C 0.77511 0.18154 0.89943 0.0
O464 O 0.77989 0.19896 0.95513 0.0
O465 O 0.76333 0.21411 0.9416 0.0
O466 O 0.76792 0.19509 0.9011 0.0
O467 O 0.78614 0.18141 0.91406 0.0
H468 H 0.73569 0.16905 0.93572 0.0
H469 H 0.70026 0.14028 0.94544 0.0
H470 H 0.71049 0.16923 1.00015 0.0
H471 H 0.74609 0.19794 0.99031 0.0
H472 H 0.83772 0.29787 0.96628 0.0
H473 H 0.81502 0.26222 0.95225 0.0
H474 H 0.88469 0.31312 0.92274 0.0
H475 H 0.86212 0.27747 0.90906 0.0
H476 H 0.82775 0.21686 0.8549 0.0
H477 H 0.77609 0.15285 0.84186 0.0
H478 H 0.76024 0.15075 0.87258 0.0
H479 H 0.81203 0.21437 0.88572 0.0
C480 C 0.54746 0.81085 0.06239 0.0
C481 C 0.54175 0.82 0.07708 0.0
C482 C 0.53777 0.8438 0.05525 0.0
C483 C 0.53679 0.83622 0.07352 0.0
C484 C 0.54372 0.83477 0.04063 0.0
C485 C 0.54845 0.8184 0.04417 0.0
U486 U 0.57431 0.78716 0.09204 0.0
O487 O 0.56281 0.75432 0.10216 0.0
O488 O 0.59172 0.77015 0.08471 0.0
C489 C 0.57786 0.75248 0.09341 0.0
C490 C 0.55267 0.79367 0.06587 0.0
C491 C 0.57054 0.7322 0.08332 0.0
C492 C 0.54723 0.70535 0.06076 0.0
C493 C 0.55481 0.72542 0.06931 0.0
C494 C 0.57128 0.69892 0.07999 0.0
C495 C 0.55531 0.69183 0.0661 0.0
C496 C 0.5788 0.71892 0.08851 0.0
C497 C 0.60414 0.81531 0.13571 0.0
C498 C 0.62346 0.80112 0.15306 0.0
C499 C 0.61325 0.82488 0.16823 0.0
C500 C 0.60396 0.82653 0.15162 0.0
C501 C 0.62296 0.81201 0.1692 0.0
C502 C 0.61402 0.80267 0.13648 0.0
C503 C 0.59232 0.81529 0.11897 0.0
O504 O 0.57303 0.79934 0.06407 0.0
O505 O 0.54357 0.78156 0.08059 0.0
O506 O 0.57191 0.80044 0.11898 0.0
O507 O 0.60187 0.81679 0.10295 0.0
H508 H 0.54112 0.81465 0.09133 0.0
H509 H 0.53246 0.84303 0.08506 0.0
H510 H 0.54441 0.84015 0.02638 0.0
H511 H 0.55288 0.81162 0.03266 0.0
H512 H 0.53514 0.70046 0.04991 0.0
H513 H 0.54828 0.73553 0.06515 0.0
H514 H 0.57767 0.68881 0.08455 0.0
H515 H 0.59087 0.7239 0.0994 0.0
H516 H 0.63101 0.7913 0.15326 0.0
H517 H 0.61224 0.83318 0.18047 0.0
H518 H 0.59613 0.8361 0.15132 0.0
H519 H 0.61408 0.79367 0.12435 0.0
C520 C 0.2621 0.81599 0.04686 0.0
C521 C 0.27133 0.83582 0.05622 0.0
C522 C 0.30319 0.84955 0.03667 0.0
C523 C 0.29167 0.8525 0.05112 0.0
C524 C 0.29364 0.82977 0.0271 0.0
C525 C 0.27326 0.81315 0.03216 0.0
U526 U 0.21813 0.78978 0.08327 0.0
O527 O 0.18314 0.76895 0.08075 0.0
O528 O 0.20236 0.75698 0.09479 0.0
C529 C 0.18327 0.75256 0.08889 0.0
C530 C 0.2416 0.79774 0.05314 0.0
C531 C 0.17012 0.73131 0.08025 0.0
C532 C 0.15432 0.70809 0.05327 0.0
C533 C 0.16771 0.72856 0.06082 0.0
C534 C 0.14601 0.69298 0.08444 0.0
C535 C 0.1433 0.6901 0.06503 0.0
C536 C 0.15927 0.7134 0.09196 0.0
C537 C 0.21966 0.81703 0.12826 0.0
C538 C 0.19694 0.79551 0.15387 0.0
C539 C 0.2143 0.83441 0.1551 0.0
C540 C 0.22359 0.83577 0.13765 0.0
C541 C 0.20101 0.81425 0.16352 0.0
C542 C 0.20607 0.79689 0.13638 0.0
C543 C 0.22944 0.81836 0.10996 0.0
O544 O 0.24317 0.78743 0.06768 0.0
O545 O 0.22533 0.80127 0.05423 0.0
O546 O 0.21786 0.81784 0.09551 0.0
O547 O 0.23777 0.8058 0.10801 0.0
H548 H 0.26302 0.83822 0.06775 0.0
H549 H 0.29869 0.86744 0.05891 0.0
H550 H 0.30201 0.82709 0.0158 0.0
H551 H 0.26639 0.79791 0.02483 0.0
H552 H 0.15269 0.7063 0.03824 0.0
H553 H 0.17604 0.7422 0.05154 0.0
H554 H 0.13756 0.67949 0.09385 0.0
H555 H 0.16088 0.71525 0.10699 0.0
H556 H 0.18701 0.77975 0.15996 0.0
H557 H 0.21745 0.84917 0.16195 0.0
H558 H 0.23383 0.85143 0.13149 0.0
H559 H 0.20269 0.7822 0.12925 0.0
C560 C 0.18658 0.44126 0.04366 0.0
C561 C 0.16638 0.429 0.05205 0.0
C562 C 0.15263 0.44868 0.03459 0.0
C563 C 0.14953 0.43259 0.04748 0.0
C564 C 0.17279 0.46069 0.02597 0.0
C565 C 0.18963 0.45697 0.03047 0.0
U566 U 0.21152 0.42409 0.08108 0.0
O567 O 0.23058 0.40782 0.08019 0.0
O568 O 0.24424 0.43996 0.09278 0.0
C569 C 0.24772 0.4245 0.08728 0.0
C570 C 0.20483 0.43894 0.04988 0.0
C571 C 0.26806 0.43163 0.0773 0.0
C572 C 0.2887 0.43892 0.04866 0.0
C573 C 0.26905 0.43202 0.0577 0.0
C574 C 0.3065 0.44542 0.0787 0.0
C575 C 0.30766 0.44577 0.05909 0.0
C576 C 0.28689 0.43841 0.08769 0.0
C577 C 0.1776 0.40134 0.12559 0.0
C578 C 0.19049 0.39386 0.15443 0.0
C579 C 0.15363 0.38603 0.15206 0.0
C580 C 0.15733 0.39355 0.13368 0.0
C581 C 0.17019 0.38619 0.16271 0.0
C582 C 0.19417 0.40139 0.13601 0.0
C583 C 0.18122 0.40997 0.10652 0.0
O584 O 0.21562 0.45138 0.064 0.0
O585 O 0.20087 0.41904 0.05176 0.0
O586 O 0.18207 0.39763 0.09338 0.0
O587 O 0.19608 0.43029 0.10482 0.0
H588 H 0.16381 0.41701 0.0625 0.0
H589 H 0.1343 0.42331 0.05455 0.0
H590 H 0.17558 0.4731 0.01591 0.0
H591 H 0.20517 0.4667 0.02399 0.0
H592 H 0.28912 0.43912 0.03354 0.0
H593 H 0.25468 0.42699 0.04941 0.0
H594 H 0.32072 0.45025 0.08714 0.0
H595 H 0.28643 0.43822 0.10281 0.0
H596 H 0.2035 0.3939 0.16214 0.0
H597 H 0.1379 0.38045 0.15803 0.0
H598 H 0.14439 0.3935 0.12582 0.0
H599 H 0.20993 0.40733 0.12994 0.0
C600 C 0.41235 0.8946 0.29603 0.0
C601 C 0.39901 0.8955 0.28215 0.0
C602 C 0.37037 0.88531 0.30488 0.0
C603 C 0.37818 0.89086 0.28653 0.0
C604 C 0.38392 0.88465 0.31877 0.0
C605 C 0.40473 0.88923 0.31435 0.0
U606 U 0.45921 0.914 0.26223 0.0
O607 O 0.49409 0.93295 0.26753 0.0
O608 O 0.47981 0.90049 0.2555 0.0
C609 C 0.49716 0.91713 0.26229 0.0
C610 C 0.43411 0.89906 0.29151 0.0
C611 C 0.51021 0.912 0.2748 0.0
C612 C 0.51335 0.88882 0.29785 0.0
C613 C 0.5007 0.89518 0.28784 0.0
C614 C 0.54519 0.91677 0.28262 0.0
C615 C 0.53569 0.89927 0.29504 0.0
C616 C 0.53254 0.92303 0.27258 0.0
C617 C 0.4563 0.93292 0.21348 0.0
C618 C 0.4877 0.95072 0.19346 0.0
C619 C 0.45202 0.93509 0.18005 0.0
C620 C 0.44306 0.9285 0.1978 0.0
C621 C 0.47447 0.94636 0.17764 0.0
C622 C 0.4787 0.94398 0.2112 0.0
C623 C 0.44654 0.92505 0.23193 0.0
O624 O 0.43518 0.88664 0.27857 0.0
O625 O 0.44853 0.91949 0.28941 0.0
O626 O 0.45591 0.93827 0.24602 0.0
O627 O 0.44143 0.90511 0.23563 0.0
H628 H 0.40471 0.89976 0.26794 0.0
H629 H 0.36826 0.89183 0.27559 0.0
H630 H 0.37832 0.88029 0.33298 0.0
H631 H 0.41485 0.88846 0.32522 0.0
H632 H 0.50563 0.87543 0.30745 0.0
H633 H 0.48345 0.88655 0.28982 0.0
H634 H 0.5623 0.92497 0.27995 0.0
H635 H 0.54013 0.93601 0.26255 0.0
H636 H 0.50502 0.95956 0.19218 0.0
H637 H 0.44132 0.9311 0.16818 0.0
H638 H 0.42574 0.91973 0.19926 0.0
H639 H 0.48922 0.94736 0.22313 0.0
C640 C 0.11561 0.51941 0.29155 0.0
C641 C 0.10626 0.50062 0.28066 0.0
C642 C 0.12614 0.48701 0.29806 0.0
C643 C 0.11143 0.48451 0.28393 0.0
C644 C 0.13527 0.50581 0.30904 0.0
C645 C 0.13005 0.52188 0.30579 0.0
U646 U 0.09193 0.54397 0.2595 0.0
O647 O 0.10554 0.5767 0.24846 0.0
O648 O 0.07576 0.56269 0.26485 0.0
C649 C 0.09071 0.57977 0.25619 0.0
C650 C 0.11139 0.537 0.28735 0.0
C651 C 0.09837 0.60054 0.26556 0.0
C652 C 0.1258 0.6315 0.28243 0.0
C653 C 0.11803 0.61079 0.2752 0.0
C654 C 0.09405 0.63155 0.27097 0.0
C655 C 0.11397 0.64216 0.28021 0.0
C656 C 0.08636 0.61094 0.26367 0.0
C657 C 0.06443 0.51749 0.21512 0.0
C658 C 0.06113 0.53975 0.19127 0.0
C659 C 0.04194 0.50092 0.18798 0.0
C660 C 0.05045 0.49903 0.20501 0.0
C661 C 0.0475 0.52135 0.18075 0.0
C662 C 0.06938 0.53782 0.20834 0.0
C663 C 0.07425 0.51585 0.23258 0.0
O664 O 0.12155 0.54844 0.27261 0.0
O665 O 0.09112 0.53202 0.28798 0.0
O666 O 0.06385 0.51518 0.24787 0.0
O667 O 0.09503 0.52925 0.23374 0.0
H668 H 0.09521 0.49857 0.26947 0.0
H669 H 0.10424 0.4703 0.27516 0.0
H670 H 0.14637 0.50805 0.32024 0.0
H671 H 0.13746 0.53633 0.31426 0.0
H672 H 0.14105 0.63917 0.28975 0.0
H673 H 0.12751 0.60297 0.27684 0.0
H674 H 0.08465 0.63941 0.26895 0.0
H675 H 0.0712 0.60328 0.25619 0.0
H676 H 0.06596 0.55572 0.1861 0.0
H677 H 0.03111 0.48638 0.18045 0.0
H678 H 0.04627 0.48321 0.21018 0.0
H679 H 0.08003 0.55227 0.21608 0.0
C680 C 0.4119 0.51898 0.29577 0.0
C681 C 0.40235 0.49815 0.28825 0.0
C682 C 0.37112 0.48689 0.30821 0.0
C683 C 0.38216 0.48221 0.29447 0.0
C684 C 0.38088 0.50776 0.31579 0.0
C685 C 0.40111 0.52364 0.30964 0.0
U686 U 0.45604 0.54253 0.25889 0.0
O687 O 0.47389 0.57528 0.2476 0.0
O688 O 0.49123 0.56149 0.26205 0.0
C689 C 0.49241 0.57858 0.25412 0.0
C690 C 0.43271 0.53618 0.28888 0.0
C691 C 0.50551 0.5991 0.26386 0.0
C692 C 0.50914 0.6268 0.28548 0.0
C693 C 0.49655 0.60659 0.27722 0.0
C694 C 0.5398 0.63195 0.26738 0.0
C695 C 0.53088 0.63973 0.28056 0.0
C696 C 0.52719 0.61182 0.25909 0.0
C697 C 0.4534 0.51425 0.21406 0.0
C698 C 0.48483 0.52865 0.19404 0.0
C699 C 0.44951 0.50479 0.18119 0.0
C700 C 0.4404 0.50308 0.19878 0.0
C701 C 0.47185 0.51769 0.17857 0.0
C702 C 0.47569 0.52705 0.21158 0.0
C703 C 0.44355 0.51386 0.23215 0.0
O704 O 0.44817 0.53145 0.28795 0.0
O705 O 0.43167 0.54647 0.27408 0.0
O706 O 0.43678 0.52776 0.2336 0.0
O707 O 0.45408 0.51331 0.24701 0.0
H708 H 0.41038 0.4943 0.27741 0.0
H709 H 0.37494 0.46638 0.28817 0.0
H710 H 0.37285 0.51181 0.32648 0.0
H711 H 0.40825 0.53966 0.31557 0.0
H712 H 0.50192 0.63226 0.29579 0.0
H713 H 0.47981 0.59692 0.28111 0.0
H714 H 0.55644 0.64159 0.26321 0.0
H715 H 0.53432 0.60628 0.24874 0.0
H716 H 0.50209 0.53848 0.19262 0.0
H717 H 0.43897 0.4964 0.16955 0.0
H718 H 0.42314 0.49337 0.20038 0.0
H719 H 0.48601 0.53603 0.22317 0.0
O720 O 0.50557 0.98184 0.95373 0.0
Mg721 Mg 0.52471 0.98039 0.97493 0.0
O722 O 0.49748 0.00183 0.97161 0.0
Mg723 Mg 0.50396 0.99703 0.00334 0.0
O724 O 0.50885 0.96761 0.99918 0.0
O725 O 0.52125 0.95105 0.9808 0.0
O726 O 0.51023 0.9896 0.03467 0.0
O727 O 0.46763 0.97234 0.00596 0.0
Mg728 Mg 0.4935 0.01132 0.03092 0.0
O729 O 0.4983 0.02748 0.00625 0.0
O730 O 0.51966 0.01969 0.04897 0.0
O731 O 0.46455 0.98124 0.0346 0.0
O732 O 0.48576 0.03442 0.0325 0.0
C733 C 0.55672 0.02333 0.99167 0.0
C734 C 0.49769 0.99403 0.95559 0.0
C735 C 0.51197 0.95152 0.99605 0.0
C736 C 0.51828 0.00151 0.04904 0.0
C737 C 0.4566 0.96866 0.02078 0.0
C738 C 0.49155 0.03877 0.01531 0.0
O739 O 0.55431 0.00838 0.9807 0.0
O740 O 0.54076 0.0221 1.00062 0.0
O741 O 0.02641 0.50605 0.96275 0.0
Mg742 Mg 0.02013 0.527 0.97867 0.0
O743 O 0.99614 0.48566 0.9768 0.0
Mg744 Mg 0.00155 0.49813 0.00783 0.0
O745 O 0.03103 0.53329 0.00548 0.0
O746 O 0.04644 0.55651 0.98179 0.0
O747 O 0.00637 0.51105 0.03912 0.0
O748 O 0.02641 0.48705 0.01156 0.0
Mg749 Mg 0.98606 0.47001 0.03555 0.0
O750 O 0.9722 0.46225 0.00968 0.0
O751 O 0.97695 0.48751 0.05274 0.0
O752 O 0.01637 0.47144 0.03899 0.0
O753 O 0.96208 0.43938 0.03393 0.0
C754 C 0.97579 0.51964 0.98874 0.0
C755 C 0.00835 0.48915 0.96284 0.0
C756 C 0.04578 0.55191 0.99927 0.0
C757 C 0.99358 0.50575 0.05295 0.0
C758 C 0.02964 0.47814 0.0256 0.0
C759 C 0.95963 0.44328 0.01679 0.0
O760 O 0.9901 0.52644 0.9761 0.0
O761 O 0.97733 0.50987 0.00305 0.0
O762 O 0.52013 0.49422 0.04869 0.0
Mg763 Mg 0.49381 0.47409 0.03142 0.0
O764 O 0.5081 0.51325 0.03528 0.0
Mg765 Mg 0.50262 0.50125 0.00385 0.0
O766 O 0.49791 0.46584 0.00524 0.0
O767 O 0.49044 0.44456 0.03045 0.0
O768 O 0.49678 0.48943 0.97207 0.0
O769 O 0.53901 0.51366 1.00084 0.0
Mg770 Mg 0.51383 0.52929 0.97667 0.0
O771 O 0.50779 0.53682 0.00256 0.0
O772 O 0.48807 0.51113 0.95858 0.0
O773 O 0.54332 0.52913 0.97343 0.0
O774 O 0.51904 0.55948 0.97813 0.0
C775 C 0.45527 0.47862 0.022 0.0
C776 C 0.51711 0.51004 0.04928 0.0
C777 C 0.49403 0.44768 0.01278 0.0
C778 C 0.48921 0.4942 0.95787 0.0
C779 C 0.55065 0.52284 0.98663 0.0
C780 C 0.51326 0.55558 0.99537 0.0
O781 O 0.46362 0.4727 0.03467 0.0
O782 O 0.46618 0.4885 0.00759 0.0
O783 O 0.16425 0.3115 0.29243 0.0
Mg784 Mg 0.18741 0.32147 0.31324 0.0
O785 O 0.16549 0.33919 0.30623 0.0
Mg786 Mg 0.17102 0.33386 0.33863 0.0
O787 O 0.17937 0.30544 0.33811 0.0
O788 O 0.19805 0.30049 0.31536 0.0
O789 O 0.17596 0.32696 0.37048 0.0
O790 O 0.13507 0.30732 0.33992 0.0
Mg791 Mg 0.1582 0.34731 0.36476 0.0
O792 O 0.16286 0.36268 0.33974 0.0
O793 O 0.18383 0.35713 0.38384 0.0
O794 O 0.13004 0.31652 0.36788 0.0
O795 O 0.14923 0.36957 0.36531 0.0
C796 C 0.21998 0.36545 0.32427 0.0
C797 C 0.16136 0.32741 0.29168 0.0
C798 C 0.18896 0.2955 0.33149 0.0
C799 C 0.18313 0.33927 0.38468 0.0
C800 C 0.12326 0.30347 0.35427 0.0
C801 C 0.15537 0.37369 0.34818 0.0
O802 O 0.21469 0.35246 0.31075 0.0
O803 O 0.2071 0.36106 0.3379 0.0
O804 O 0.69343 0.83783 0.29699 0.0
Mg805 Mg 0.68661 0.8586 0.31253 0.0
O806 O 0.66303 0.81747 0.31084 0.0
Mg807 Mg 0.66803 0.83063 0.34167 0.0
O808 O 0.69783 0.86588 0.33922 0.0
O809 O 0.71269 0.88826 0.31489 0.0
O810 O 0.67256 0.84406 0.37263 0.0
O811 O 0.69254 0.8193 0.34635 0.0
Mg812 Mg 0.65157 0.80222 0.37014 0.0
O813 O 0.63839 0.79498 0.34397 0.0
O814 O 0.64344 0.82088 0.38692 0.0
O815 O 0.68159 0.80299 0.37347 0.0
O816 O 0.62658 0.77206 0.36821 0.0
C817 C 0.64256 0.85198 0.32172 0.0
C818 C 0.67547 0.82083 0.29707 0.0
C819 C 0.71241 0.88432 0.33249 0.0
C820 C 0.66001 0.83918 0.38658 0.0
C821 C 0.69523 0.80995 0.36035 0.0
C822 C 0.62496 0.77617 0.35094 0.0
O823 O 0.65684 0.85834 0.30909 0.0
O824 O 0.64402 0.84248 0.33624 0.0
O825 O 0.18996 0.8275 0.3792 0.0
Mg826 Mg 0.16237 0.80943 0.36297 0.0
O827 O 0.17721 0.84768 0.36994 0.0
Mg828 Mg 0.17075 0.83709 0.33749 0.0
O829 O 0.16577 0.80143 0.33667 0.0
O830 O 0.15722 0.77928 0.36139 0.0
O831 O 0.16413 0.82651 0.3055 0.0
O832 O 0.20736 0.84927 0.3342 0.0
Mg833 Mg 0.18537 0.86874 0.31128 0.0
O834 O 0.17456 0.87221 0.33673 0.0
O835 O 0.16347 0.85233 0.28998 0.0
O836 O 0.2162 0.87181 0.31063 0.0
O837 O 0.18759 0.8974 0.31418 0.0
C838 C 0.12414 0.81489 0.3564 0.0
C839 C 0.18685 0.84294 0.38247 0.0
C840 C 0.16119 0.78289 0.34381 0.0
C841 C 0.1602 0.8334 0.29041 0.0
C842 C 0.22128 0.86207 0.32255 0.0
C843 C 0.1794 0.89127 0.33057 0.0
O844 O 0.133 0.80909 0.36868 0.0
O845 O 0.13439 0.82422 0.3416 0.0
O846 O 0.83702 0.64733 0.62244 0.0
Mg847 Mg 0.85845 0.6471 0.64217 0.0
O848 O 0.83272 0.66974 0.6406 0.0
Mg849 Mg 0.84039 0.66578 0.67197 0.0
O850 O 0.84521 0.63654 0.66776 0.0
O851 O 0.85562 0.6182 0.64953 0.0
O852 O 0.84758 0.6601 0.70333 0.0
O853 O 0.8043 0.64178 0.67652 0.0
Mg854 Mg 0.82954 0.68344 0.70129 0.0
O855 O 0.83503 0.69561 0.67489 0.0
O856 O 0.8561 0.68983 0.71802 0.0
O857 O 0.79991 0.65361 0.70371 0.0
O858 O 0.82626 0.70968 0.69907 0.0
C859 C 0.8918 0.69118 0.65712 0.0
C860 C 0.83084 0.66088 0.62469 0.0
C861 C 0.84799 0.62017 0.6652 0.0
C862 C 0.85541 0.67196 0.71775 0.0
C863 C 0.79267 0.63974 0.69065 0.0
C864 C 0.8309 0.71002 0.68165 0.0
O865 O 0.88824 0.67596 0.64597 0.0
O866 O 0.87685 0.69025 0.66745 0.0
O867 O 0.35844 0.1714 0.63062 0.0
Mg868 Mg 0.35304 0.19307 0.64637 0.0
O869 O 0.32782 0.15319 0.64467 0.0
Mg870 Mg 0.33529 0.16704 0.6754 0.0
O871 O 0.36619 0.20183 0.67229 0.0
O872 O 0.37947 0.22245 0.64673 0.0
O873 O 0.34237 0.1808 0.70626 0.0
O874 O 0.35851 0.15407 0.67903 0.0
Mg875 Mg 0.31865 0.13935 0.70473 0.0
O876 O 0.30488 0.13221 0.67879 0.0
O877 O 0.3131 0.16002 0.72154 0.0
O878 O 0.34815 0.13869 0.70663 0.0
O879 O 0.29235 0.10986 0.70335 0.0
C880 C 0.31048 0.18932 0.65647 0.0
C881 C 0.33976 0.15541 0.63078 0.0
C882 C 0.3805 0.21965 0.66441 0.0
C883 C 0.33078 0.1773 0.7207 0.0
C884 C 0.36117 0.14468 0.69303 0.0
C885 C 0.29081 0.11382 0.68602 0.0
O886 O 0.3241 0.19445 0.6434 0.0
O887 O 0.31213 0.18017 0.67115 0.0
O888 O 0.82126 0.13951 0.71717 0.0
Mg889 Mg 0.80691 0.12382 0.69239 0.0
O890 O 0.83834 0.17092 0.70291 0.0
Mg891 Mg 0.83341 0.16409 0.67033 0.0
O892 O 0.8274 0.12872 0.67104 0.0
O893 O 0.80965 0.0978 0.6872 0.0
O894 O 0.82828 0.15472 0.63785 0.0
O895 O 0.86944 0.17421 0.66838 0.0
Mg896 Mg 0.8468 0.19304 0.64519 0.0
O897 O 0.84091 0.20075 0.6711 0.0
O898 O 0.82169 0.17856 0.62568 0.0
O899 O 0.87502 0.19074 0.64141 0.0
O900 O 0.85555 0.22416 0.64736 0.0
C901 C 0.77903 0.13861 0.67639 0.0
C902 C 0.83319 0.1597 0.71786 0.0
C903 C 0.82235 0.10875 0.67375 0.0
C904 C 0.82175 0.16113 0.624 0.0
C905 C 0.88151 0.18337 0.65439 0.0
C906 C 0.84869 0.22013 0.66431 0.0
O907 O 0.77826 0.12224 0.68382 0.0
O908 O 0.79701 0.15489 0.67189 0.0
C909 C 0.33079 0.88829 0.03117 0.0
C910 C 0.32549 0.86666 0.03225 0.0
C911 C 0.35205 0.90467 0.02805 0.0
C912 C 0.36844 0.89932 0.02613 0.0
C913 C 0.36312 0.87748 0.02681 0.0
C914 C 0.34171 0.86142 0.02981 0.0
C915 C 0.35704 0.92776 0.02721 0.0
C916 C 0.38015 0.87112 0.02502 0.0
C917 C 0.42235 0.94076 0.00571 0.0
C918 C 0.4344 0.95025 0.02192 0.0
C919 C 0.40083 0.92415 0.00682 0.0
C920 C 0.39131 0.91664 0.02456 0.0
C921 C 0.40359 0.92583 0.04094 0.0
C922 C 0.4249 0.94262 0.03942 0.0
C923 C 0.38815 0.91494 0.98906 0.0
C924 C 0.39418 0.91805 0.06011 0.0
H925 H 0.31828 0.89241 0.03282 0.0
H926 H 0.33778 0.84477 0.03086 0.0
H927 H 0.36758 0.93692 0.03911 0.0
H928 H 0.36589 0.93549 0.0142 0.0
H929 H 0.34231 0.92912 0.02775 0.0
H930 H 0.37323 0.85338 0.02486 0.0
H931 H 0.38949 0.87788 0.01202 0.0
H932 H 0.39159 0.87789 0.03688 0.0
H933 H 0.42957 0.94668 0.99215 0.0
H934 H 0.43418 0.94978 0.052 0.0
H935 H 0.37419 0.91756 0.98877 0.0
H936 H 0.38172 0.89731 0.98854 0.0
H937 H 0.39798 0.92232 0.97638 0.0
H938 H 0.38044 0.92077 0.06229 0.0
H939 H 0.40613 0.92636 0.07142 0.0
H940 H 0.38794 0.90048 0.0613 0.0
C941 C 0.1395 0.47495 0.03126 0.0
C942 C 0.13516 0.45359 0.031 0.0
C943 C 0.12288 0.47976 0.02951 0.0
C944 C 0.10144 0.4628 0.02734 0.0
C945 C 0.09706 0.44125 0.02647 0.0
C946 C 0.11396 0.4369 0.02839 0.0
C947 C 0.12818 0.50293 0.03063 0.0
C948 C 0.07444 0.42275 0.02395 0.0
C949 C 0.05563 0.47102 0.04305 0.0
C950 C 0.04851 0.47504 0.02608 0.0
C951 C 0.07311 0.46743 0.04368 0.0
C952 C 0.08348 0.46749 0.02688 0.0
C953 C 0.07643 0.47163 0.0097 0.0
C954 C 0.05914 0.47555 0.00953 0.0
C955 C 0.08038 0.46342 0.06231 0.0
C956 C 0.0869 0.47153 0.99149 0.0
H957 H 0.15582 0.48789 0.0335 0.0
H958 H 0.11058 0.42039 0.02798 0.0
H959 H 0.12158 0.50708 0.01831 0.0
H960 H 0.12057 0.50525 0.0432 0.0
H961 H 0.14576 0.51429 0.03137 0.0
H962 H 0.07389 0.40707 0.02243 0.0
H963 H 0.06454 0.4218 0.03617 0.0
H964 H 0.06694 0.42543 0.01143 0.0
H965 H 0.04758 0.47077 0.05591 0.0
H966 H 0.05363 0.47853 0.99635 0.0
H967 H 0.09767 0.47513 0.06452 0.0
H968 H 0.0785 0.4471 0.06249 0.0
H969 H 0.07114 0.46474 0.07414 0.0
H970 H 0.10434 0.4834 0.99202 0.0
H971 H 0.07973 0.47537 0.97937 0.0
H972 H 0.08526 0.45547 0.9892 0.0
C973 C 0.5251 0.65685 0.05407 0.0
C974 C 0.54716 0.67038 0.05726 0.0
C975 C 0.5173 0.6367 0.04546 0.0
C976 C 0.53191 0.63 0.03983 0.0
C977 C 0.55415 0.6434 0.04337 0.0
C978 C 0.56149 0.66341 0.05203 0.0
C979 C 0.49348 0.62281 0.04199 0.0
C980 C 0.57028 0.63692 0.03744 0.0
C981 C 0.51439 0.57212 0.02661 0.0
C982 C 0.51493 0.5734 0.00706 0.0
C983 C 0.51904 0.59022 0.03759 0.0
C984 C 0.52434 0.60995 0.02875 0.0
C985 C 0.52388 0.61098 0.00905 0.0
C986 C 0.51912 0.59272 0.99848 0.0
C987 C 0.51921 0.58852 0.05858 0.0
C988 C 0.52945 0.63169 0.99906 0.0
H989 H 0.51392 0.662 0.05835 0.0
H990 H 0.57857 0.67387 0.0543 0.0
H991 H 0.49025 0.62122 0.02675 0.0
H992 H 0.48764 0.60638 0.04757 0.0
H993 H 0.48411 0.62958 0.04848 0.0
H994 H 0.58682 0.64853 0.04227 0.0
H995 H 0.56572 0.62077 0.04304 0.0
H996 H 0.57039 0.63587 0.02199 0.0
H997 H 0.51119 0.55728 0.03334 0.0
H998 H 0.51938 0.59383 0.98338 0.0
H999 H 0.50926 0.59468 0.06494 0.0
H1000 H 0.53583 0.59861 0.06391 0.0
H1001 H 0.51311 0.57173 0.06331 0.0
H1002 H 0.51952 0.63838 0.00441 0.0
H1003 H 0.52703 0.62945 0.98372 0.0
H1004 H 0.54651 0.64382 1.00178 0.0
C1005 C 0.89897 0.33806 0.9558 0.0
C1006 C 0.87679 0.32989 0.95392 0.0
C1007 C 0.91215 0.358 0.96438 0.0
C1008 C 0.90295 0.37008 0.97124 0.0
C1009 C 0.88071 0.36229 0.96879 0.0
C1010 C 0.86787 0.34223 0.96021 0.0
C1011 C 0.93577 0.36566 0.96687 0.0
C1012 C 0.87036 0.3748 0.9758 0.0
C1013 C 0.93102 0.40498 0.01319 0.0
C1014 C 0.94363 0.42534 0.00511 0.0
C1015 C 0.91741 0.38705 0.00234 0.0
C1016 C 0.91612 0.38949 0.98287 0.0
C1017 C 0.92812 0.41013 0.97464 0.0
C1018 C 0.94185 0.42786 0.98587 0.0
C1019 C 0.90501 0.36531 0.01166 0.0
C1020 C 0.92699 0.41334 0.95393 0.0
H1021 H 0.90593 0.32852 0.9511 0.0
H1022 H 0.8508 0.33615 0.9585 0.0
H1023 H 0.9456 0.38241 0.96175 0.0
H1024 H 0.93944 0.36568 0.98194 0.0
H1025 H 0.94074 0.3553 0.95937 0.0
H1026 H 0.85339 0.36762 0.97116 0.0
H1027 H 0.87077 0.37521 0.99129 0.0
H1028 H 0.87944 0.3917 0.97087 0.0
H1029 H 0.93218 0.40282 0.02805 0.0
H1030 H 0.95154 0.44352 0.97951 0.0
H1031 H 0.91029 0.35429 0.00603 0.0
H1032 H 0.88761 0.35801 0.00859 0.0
H1033 H 0.90727 0.36629 0.02705 0.0
H1034 H 0.93461 0.40549 0.94623 0.0
H1035 H 0.9353 0.43064 0.95008 0.0
H1036 H 0.91003 0.4057 0.94923 0.0
C1037 C 0.6762 0.56534 0.9793 0.0
C1038 C 0.68075 0.54885 0.97546 0.0
C1039 C 0.65503 0.56076 0.98229 0.0
C1040 C 0.63798 0.5392 0.98123 0.0
C1041 C 0.64251 0.52245 0.97769 0.0
C1042 C 0.66385 0.52747 0.97492 0.0
C1043 C 0.65087 0.57904 0.98623 0.0
C1044 C 0.62475 0.49929 0.97627 0.0
C1045 C 0.58357 0.52533 1.00133 0.0
C1046 C 0.57275 0.52636 0.98537 0.0
C1047 C 0.60482 0.52944 1.00023 0.0
C1048 C 0.61533 0.53436 0.98272 0.0
C1049 C 0.60431 0.53497 0.96653 0.0
C1050 C 0.58323 0.53112 0.96807 0.0
C1051 C 0.61614 0.52885 0.01782 0.0
C1052 C 0.61482 0.53983 0.94755 0.0
H1053 H 0.68925 0.58185 0.97997 0.0
H1054 H 0.66726 0.5147 0.97178 0.0
H1055 H 0.64126 0.58039 0.9747 0.0
H1056 H 0.64137 0.57581 0.99922 0.0
H1057 H 0.66598 0.59472 0.98773 0.0
H1058 H 0.63104 0.48806 0.97438 0.0
H1059 H 0.61467 0.49457 0.989 0.0
H1060 H 0.61416 0.49741 0.96426 0.0
H1061 H 0.57558 0.52173 0.01475 0.0
H1062 H 0.57491 0.53174 0.95564 0.0
H1063 H 0.63057 0.54483 0.02024 0.0
H1064 H 0.62175 0.51705 0.01628 0.0
H1065 H 0.60564 0.52448 0.03029 0.0
H1066 H 0.62914 0.55619 0.94755 0.0
H1067 H 0.60377 0.53894 0.93625 0.0
H1068 H 0.62042 0.52831 0.94433 0.0
C1069 C 0.49092 0.14403 0.97923 0.0
C1070 C 0.47134 0.13841 0.9704 0.0
C1071 C 0.49601 0.12826 0.98456 0.0
C1072 C 0.4812 0.10631 0.98094 0.0
C1073 C 0.46189 0.10061 0.97121 0.0
C1074 C 0.45717 0.11671 0.96611 0.0
C1075 C 0.51675 0.13502 0.99494 0.0
C1076 C 0.44568 0.07738 0.96709 0.0
C1077 C 0.49755 0.06366 0.98817 0.0
C1078 C 0.48958 0.05629 0.00616 0.0
C1079 C 0.49525 0.08019 0.97978 0.0
C1080 C 0.48449 0.08924 0.98951 0.0
C1081 C 0.47649 0.08186 0.00765 0.0
C1082 C 0.4792 0.06561 0.01573 0.0
C1083 C 0.50435 0.08803 0.96057 0.0
C1084 C 0.46491 0.09104 0.01855 0.0
H1085 H 0.50217 0.16079 0.98225 0.0
H1086 H 0.44194 0.11217 0.95941 0.0
H1087 H 0.51318 0.12996 0.00975 0.0
H1088 H 0.52521 0.12703 0.98897 0.0
H1089 H 0.5277 0.15273 0.99455 0.0
H1090 H 0.43262 0.07578 0.95771 0.0
H1091 H 0.45365 0.0692 0.96052 0.0
H1092 H 0.43839 0.06885 0.98034 0.0
H1093 H 0.50563 0.05661 0.98071 0.0
H1094 H 0.47288 0.06005 0.0296 0.0
H1095 H 0.51605 0.10554 0.96099 0.0
H1096 H 0.49133 0.08569 0.95083 0.0
H1097 H 0.51254 0.07957 0.95497 0.0
H1098 H 0.47546 0.10866 0.02031 0.0
H1099 H 0.45985 0.08364 0.03259 0.0
H1100 H 0.45043 0.08842 0.01075 0.0
C1101 C 0.66326 0.12916 0.96682 0.0
C1102 C 0.68064 0.13547 0.9791 0.0
C1103 C 0.64282 0.112 0.97116 0.0
C1104 C 0.63964 0.10081 0.98822 0.0
C1105 C 0.65687 0.10768 1.00105 0.0
C1106 C 0.67719 0.12496 0.99634 0.0
C1107 C 0.62487 0.10526 0.95711 0.0
C1108 C 0.65411 0.09616 0.01936 0.0
C1109 C 0.58126 0.06202 1.0008 0.0
C1110 C 0.57834 0.04275 0.9931 0.0
C1111 C 0.60141 0.08099 1.00009 0.0
C1112 C 0.61896 0.08058 0.99151 0.0
C1113 C 0.6163 0.06094 0.98457 0.0
C1114 C 0.5961 0.04233 0.98546 0.0
C1115 C 0.60369 0.10162 0.00776 0.0
C1116 C 0.63458 0.05973 0.97539 0.0
H1117 H 0.66572 0.13752 0.95364 0.0
H1118 H 0.69057 0.12971 0.00586 0.0
H1119 H 0.62026 0.08909 0.95152 0.0
H1120 H 0.61046 0.10407 0.9639 0.0
H1121 H 0.6295 0.11667 0.94522 0.0
H1122 H 0.66823 0.10499 0.02871 0.0
H1123 H 0.63957 0.09394 0.0267 0.0
H1124 H 0.65183 0.07992 0.01668 0.0
H1125 H 0.56766 0.0625 0.00677 0.0
H1126 H 0.59411 0.02747 0.97968 0.0
H1127 H 0.60602 0.11274 0.99607 0.0
H1128 H 0.61806 0.10979 0.01691 0.0
H1129 H 0.58934 0.09882 0.01582 0.0
H1130 H 0.63924 0.06931 0.96233 0.0
H1131 H 0.63028 0.04295 0.9719 0.0
H1132 H 0.64887 0.06672 0.98468 0.0
C1133 C 0.87426 0.53537 0.97049 0.0
C1134 C 0.88133 0.55747 0.97105 0.0
C1135 C 0.88794 0.52753 0.97571 0.0
C1136 C 0.90918 0.54215 0.98156 0.0
C1137 C 0.9159 0.56429 0.98336 0.0
C1138 C 0.90188 0.57168 0.97808 0.0
C1139 C 0.88014 0.50379 0.97369 0.0
C1140 C 0.93835 0.58039 0.9897 0.0
C1141 C 0.9451 0.52242 0.00237 0.0
C1142 C 0.95767 0.52384 0.9869 0.0
C1143 C 0.92893 0.52796 1.00086 0.0
C1144 C 0.92519 0.53487 0.98343 0.0
C1145 C 0.93738 0.53564 0.96766 0.0
C1146 C 0.95349 0.5302 0.9696 0.0
C1147 C 0.91628 0.52699 0.01797 0.0
C1148 C 0.93375 0.54269 0.94877 0.0
H1149 H 0.85846 0.5243 0.96496 0.0
H1150 H 0.90729 0.58873 0.97885 0.0
H1151 H 0.88805 0.50119 0.96148 0.0
H1152 H 0.88448 0.49762 0.98619 0.0
H1153 H 0.86247 0.49423 0.9716 0.0
H1154 H 0.94025 0.5965 0.99244 0.0
H1155 H 0.94258 0.57471 0.00258 0.0
H1156 H 0.95001 0.58211 0.97876 0.0
H1157 H 0.94827 0.51756 0.01579 0.0
H1158 H 0.96297 0.53112 0.95753 0.0
H1159 H 0.8988 0.51737 0.01505 0.0
H1160 H 0.91986 0.54345 0.02176 0.0
H1161 H 0.92009 0.51986 0.03015 0.0
H1162 H 0.91669 0.53264 0.94453 0.0
H1163 H 0.944 0.54157 0.93776 0.0
H1164 H 0.93727 0.5596 0.94953 0.0
C1165 C 0.44168 0.33332 0.96765 0.0
C1166 C 0.45522 0.32801 0.95781 0.0
C1167 C 0.44943 0.35405 0.97498 0.0
C1168 C 0.47124 0.36988 0.97231 0.0
C1169 C 0.48488 0.36477 0.96202 0.0
C1170 C 0.47672 0.34385 0.95495 0.0
C1171 C 0.43441 0.35882 0.98601 0.0
C1172 C 0.50817 0.38126 0.9588 0.0
C1173 C 0.48497 0.4274 0.98256 0.0
C1174 C 0.49166 0.42956 1.00122 0.0
C1175 C 0.47904 0.40833 0.97261 0.0
C1176 C 0.48002 0.39121 0.98156 0.0
C1177 C 0.48792 0.39384 1.00006 0.0
C1178 C 0.49359 0.41296 0.00965 0.0
C1179 C 0.47074 0.40607 0.95287 0.0
C1180 C 0.48927 0.37602 0.01011 0.0
H1181 H 0.42509 0.32109 0.97001 0.0
H1182 H 0.48715 0.3399 0.94708 0.0
H1183 H 0.44004 0.36256 1.0007 0.0
H1184 H 0.43441 0.37317 0.98023 0.0
H1185 H 0.41766 0.3451 0.98596 0.0
H1186 H 0.5163 0.37511 0.94955 0.0
H1187 H 0.5095 0.39599 0.95247 0.0
H1188 H 0.51684 0.386 0.97235 0.0
H1189 H 0.4832 0.44009 0.9761 0.0
H1190 H 0.49889 0.41462 0.02406 0.0
H1191 H 0.45394 0.39257 0.95205 0.0
H1192 H 0.48044 0.40217 0.94333 0.0
H1193 H 0.47115 0.42093 0.94785 0.0
H1194 H 0.47286 0.36219 0.01226 0.0
H1195 H 0.4973 0.38125 0.02393 0.0
H1196 H 0.4982 0.37021 1.00156 0.0
C1197 C 0.11409 0.66567 0.04305 0.0
C1198 C 0.12878 0.6684 0.05716 0.0
C1199 C 0.10024 0.64527 0.0355 0.0
C1200 C 0.10127 0.62717 0.04209 0.0
C1201 C 0.11589 0.62976 0.05651 0.0
C1202 C 0.12943 0.65035 0.06392 0.0
C1203 C 0.08469 0.64313 0.02028 0.0
C1204 C 0.1176 0.6109 0.06376 0.0
C1205 C 0.05387 0.57263 0.02903 0.0
C1206 C 0.06097 0.56872 0.01208 0.0
C1207 C 0.06714 0.59125 0.03948 0.0
C1208 C 0.08805 0.6059 0.03291 0.0
C1209 C 0.09573 0.60109 0.01648 0.0
C1210 C 0.08197 0.58272 0.00611 0.0
C1211 C 0.05824 0.59596 0.05677 0.0
C1212 C 0.11811 0.61596 0.00926 0.0
H1213 H 0.11329 0.67952 0.03801 0.0
H1214 H 0.14087 0.65241 0.07475 0.0
H1215 H 0.08877 0.63784 0.00713 0.0
H1216 H 0.06812 0.63067 0.02412 0.0
H1217 H 0.08492 0.6585 0.01759 0.0
H1218 H 0.12902 0.61543 0.07564 0.0
H1219 H 0.10163 0.59784 0.06834 0.0
H1220 H 0.12306 0.60427 0.05239 0.0
H1221 H 0.03749 0.56192 0.03348 0.0
H1222 H 0.08744 0.57959 0.99301 0.0
H1223 H 0.05532 0.6095 0.05388 0.0
H1224 H 0.06993 0.601 0.06845 0.0
H1225 H 0.04288 0.58184 0.06128 0.0
H1226 H 0.11923 0.63112 0.00421 0.0
H1227 H 0.12244 0.60866 0.9976 0.0
H1228 H 0.1301 0.62025 0.02063 0.0
C1229 C 0.33023 0.44065 0.0352 0.0
C1230 C 0.3286 0.45279 0.04979 0.0
C1231 C 0.35037 0.44562 0.02798 0.0
C1232 C 0.36925 0.46314 0.03553 0.0
C1233 C 0.36756 0.47622 0.04945 0.0
C1234 C 0.34728 0.47087 0.05641 0.0
C1235 C 0.35148 0.4313 0.01312 0.0
C1236 C 0.38727 0.49514 0.05779 0.0
C1237 C 0.42012 0.45978 0.03851 0.0
C1238 C 0.43283 0.47392 0.02436 0.0
C1239 C 0.39923 0.45571 0.04183 0.0
C1240 C 0.39074 0.46612 0.03082 0.0
C1241 C 0.40323 0.48004 0.0162 0.0
C1242 C 0.42416 0.48374 0.01309 0.0
C1243 C 0.38643 0.44061 0.05748 0.0
C1244 C 0.39471 0.49143 0.0042 0.0
H1245 H 0.31587 0.42662 0.03005 0.0
H1246 H 0.34606 0.48056 0.06744 0.0
H1247 H 0.36263 0.44108 0.00183 0.0
H1248 H 0.35783 0.4214 0.01933 0.0
H1249 H 0.33547 0.42032 0.0069 0.0
H1250 H 0.38316 0.50506 0.06694 0.0
H1251 H 0.39626 0.48922 0.06623 0.0
H1252 H 0.39817 0.50553 0.04661 0.0
H1253 H 0.42656 0.45193 0.04719 0.0
H1254 H 0.43386 0.49468 0.00213 0.0
H1255 H 0.37074 0.4277 0.05213 0.0
H1256 H 0.38305 0.44955 0.06834 0.0
H1257 H 0.39498 0.43303 0.06416 0.0
H1258 H 0.37883 0.47968 0.99827 0.0
H1259 H 0.40576 0.50048 0.99257 0.0
H1260 H 0.39235 0.50289 0.01289 0.0
C1261 C 0.51371 0.8597 0.05852 0.0
C1262 C 0.53243 0.86094 0.0513 0.0
C1263 C 0.50748 0.87472 0.05331 0.0
C1264 C 0.52034 0.89134 0.04063 0.0
C1265 C 0.5399 0.89335 0.03419 0.0
C1266 C 0.54565 0.8781 0.03955 0.0
C1267 C 0.48655 0.87199 0.06048 0.0
C1268 C 0.55428 0.91101 0.02084 0.0
C1269 C 0.4992 0.91358 0.00389 0.0
C1270 C 0.50745 0.93478 0.01005 0.0
C1271 C 0.50138 0.89852 0.01471 0.0
C1272 C 0.51237 0.90497 0.03202 0.0
C1273 C 0.5188 0.92577 0.03916 0.0
C1274 C 0.51619 0.94051 0.02804 0.0
C1275 C 0.49398 0.87645 0.00665 0.0
C1276 C 0.53024 0.93307 0.05769 0.0
H1277 H 0.50342 0.84642 0.0676 0.0
H1278 H 0.56035 0.87935 0.03424 0.0
H1279 H 0.48824 0.88775 0.06431 0.0
H1280 H 0.4742 0.86491 0.04931 0.0
H1281 H 0.48066 0.86118 0.07281 0.0
H1282 H 0.56982 0.91154 0.01856 0.0
H1283 H 0.54606 0.90842 0.00715 0.0
H1284 H 0.55761 0.9269 0.02619 0.0
H1285 H 0.49249 0.90923 0.98993 0.0
H1286 H 0.52286 0.95703 0.03266 0.0
H1287 H 0.48556 0.86383 0.01736 0.0
H1288 H 0.50815 0.87542 0.00196 0.0
H1289 H 0.48307 0.87295 0.9945 0.0
H1290 H 0.52099 0.92118 0.06873 0.0
H1291 H 0.53272 0.94905 0.06193 0.0
H1292 H 0.54617 0.93415 0.05681 0.0
C1293 C 0.99792 0.22089 0.36226 0.0
C1294 C 0.99302 0.19953 0.36486 0.0
C1295 C 0.01913 0.23735 0.35902 0.0
C1296 C 0.03587 0.23235 0.35856 0.0
C1297 C 0.03095 0.21074 0.36071 0.0
C1298 C 0.00959 0.19459 0.36379 0.0
C1299 C 0.02369 0.26017 0.35662 0.0
C1300 C 0.04835 0.20478 0.3605 0.0
C1301 C 0.09027 0.27382 0.33886 0.0
C1302 C 0.10142 0.28439 0.35515 0.0
C1303 C 0.06892 0.25676 0.3397 0.0
C1304 C 0.05867 0.24994 0.35726 0.0
C1305 C 0.07011 0.26018 0.37376 0.0
C1306 C 0.09125 0.27733 0.37249 0.0
C1307 C 0.05717 0.24636 0.32181 0.0
C1308 C 0.05991 0.25321 0.39278 0.0
H1309 H 0.98515 0.22476 0.36283 0.0
H1310 H 0.00596 0.17816 0.366 0.0
H1311 H 0.0336 0.27019 0.36847 0.0
H1312 H 0.03304 0.26724 0.34367 0.0
H1313 H 0.00875 0.26114 0.35595 0.0
H1314 H 0.04172 0.1871 0.36111 0.0
H1315 H 0.05822 0.21108 0.34771 0.0
H1316 H 0.05922 0.21227 0.37263 0.0
H1317 H 0.09802 0.27928 0.32542 0.0
H1318 H 0.09983 0.28531 0.38516 0.0
H1319 H 0.04312 0.24871 0.32021 0.0
H1320 H 0.05095 0.22876 0.32228 0.0
H1321 H 0.06759 0.25309 0.30933 0.0
H1322 H 0.04588 0.25567 0.3938 0.0
H1323 H 0.07128 0.26227 0.40428 0.0
H1324 H 0.05393 0.23579 0.39483 0.0
C1325 C 0.78011 0.76934 0.36371 0.0
C1326 C 0.80118 0.78612 0.36668 0.0
C1327 C 0.76307 0.7735 0.36183 0.0
C1328 C 0.76721 0.79494 0.36312 0.0
C1329 C 0.78852 0.81199 0.36574 0.0
C1330 C 0.80528 0.80738 0.36742 0.0
C1331 C 0.7406 0.75491 0.3588 0.0
C1332 C 0.79353 0.83504 0.36735 0.0
C1333 C 0.72518 0.80777 0.34476 0.0
C1334 C 0.71403 0.80675 0.36112 0.0
C1335 C 0.74254 0.80396 0.34518 0.0
C1336 C 0.74911 0.79941 0.36242 0.0
C1337 C 0.73818 0.79879 0.37903 0.0
C1338 C 0.72064 0.80228 0.37816 0.0
C1339 C 0.75361 0.80445 0.32716 0.0
C1340 C 0.74493 0.79432 0.39772 0.0
H1341 H 0.77693 0.75291 0.36294 0.0
H1342 H 0.82151 0.82036 0.36993 0.0
H1343 H 0.73034 0.75359 0.37084 0.0
H1344 H 0.73338 0.75778 0.34619 0.0
H1345 H 0.74026 0.73935 0.35714 0.0
H1346 H 0.81104 0.8465 0.36864 0.0
H1347 H 0.78733 0.83952 0.35495 0.0
H1348 H 0.78535 0.83682 0.37977 0.0
H1349 H 0.72006 0.8111 0.33153 0.0
H1350 H 0.71218 0.80164 0.39086 0.0
H1351 H 0.75228 0.78855 0.32469 0.0
H1352 H 0.77097 0.8165 0.32809 0.0
H1353 H 0.74666 0.80843 0.31495 0.0
H1354 H 0.74324 0.77808 0.39765 0.0
H1355 H 0.73524 0.79517 0.4094 0.0
H1356 H 0.76211 0.80609 0.4004 0.0
C1357 C 0.21709 0.99158 0.39199 0.0
C1358 C 0.20306 -0.00086 0.3965 0.0
C1359 C 0.20977 0.97207 0.3825 0.0
C1360 C 0.18783 0.95977 0.37736 0.0
C1361 C 0.17341 0.96695 0.38237 0.0
C1362 C 0.18123 0.98664 0.39182 0.0
C1363 C 0.22571 0.96504 0.37733 0.0
C1364 C 0.14992 0.9543 0.37718 0.0
C1365 C 0.18117 0.92655 0.33453 0.0
C1366 C 0.17723 0.90696 0.34241 0.0
C1367 C 0.1831 0.94341 0.34569 0.0
C1368 C 0.18081 0.94059 0.36523 0.0
C1369 C 0.1748 0.92024 0.37311 0.0
C1370 C 0.17322 0.90361 0.3616 0.0
C1371 C 0.18924 0.96476 0.33665 0.0
C1372 C 0.17125 0.91648 0.39379 0.0
H1373 H 0.23402 0.00128 0.39536 0.0
H1374 H 0.17027 0.99231 0.39549 0.0
H1375 H 0.22008 0.94846 0.38243 0.0
H1376 H 0.22706 0.96482 0.36191 0.0
H1377 H 0.24195 0.97586 0.38322 0.0
H1378 H 0.14026 0.95993 0.38492 0.0
H1379 H 0.14806 0.95612 0.36202 0.0
H1380 H 0.14328 0.9369 0.37995 0.0
H1381 H 0.18381 0.92916 0.31964 0.0
H1382 H 0.16982 0.88842 0.36775 0.0
H1383 H 0.20612 0.97663 0.3403 0.0
H1384 H 0.179 0.97113 0.34191 0.0
H1385 H 0.1878 0.96352 0.3212 0.0
H1386 H 0.18661 0.9266 0.40128 0.0
H1387 H 0.16497 0.89933 0.39747 0.0
H1388 H 0.15973 0.92141 0.39874 0.0
C1389 C 0.53633 0.67547 0.29112 0.0
C1390 C 0.54428 0.66125 0.28919 0.0
C1391 C 0.54874 0.69568 0.29961 0.0
C1392 C 0.56949 0.7017 0.30645 0.0
C1393 C 0.57775 0.68757 0.30421 0.0
C1394 C 0.56506 0.66754 0.29557 0.0
C1395 C 0.53945 0.71037 0.30165 0.0
C1396 C 0.59974 0.6933 0.31145 0.0
C1397 C 0.61068 0.75932 0.31953 0.0
C1398 C 0.60893 0.7585 0.33905 0.0
C1399 C 0.59735 0.74115 0.30856 0.0
C1400 C 0.58194 0.72189 0.31737 0.0
C1401 C 0.57943 0.72138 0.33697 0.0
C1402 C 0.59291 0.73967 0.34753 0.0
C1403 C 0.60027 0.74225 0.28766 0.0
C1404 C 0.56324 0.70117 0.34693 0.0
H1405 H 0.5204 0.6708 0.28595 0.0
H1406 H 0.57121 0.65654 0.29426 0.0
H1407 H 0.53707 0.71238 0.31665 0.0
H1408 H 0.55079 0.72657 0.29604 0.0
H1409 H 0.52379 0.70403 0.29433 0.0
H1410 H 0.60428 0.6811 0.30763 0.0
H1411 H 0.61204 0.70914 0.30587 0.0
H1412 H 0.60007 0.69471 0.32689 0.0
H1413 H 0.62303 0.77379 0.31289 0.0
H1414 H 0.5913 0.73894 0.3626 0.0
H1415 H 0.58501 0.73849 0.28063 0.0
H1416 H 0.60444 0.73003 0.28302 0.0
H1417 H 0.61307 0.7583 0.28296 0.0
H1418 H 0.54704 0.69496 0.34072 0.0
H1419 H 0.56235 0.70386 0.36209 0.0
H1420 H 0.56764 0.68847 0.34522 0.0
C1421 C 0.33107 0.86744 0.29747 0.0
C1422 C 0.34819 0.88035 0.30947 0.0
C1423 C 0.31022 0.86346 0.30108 0.0
C1424 C 0.30639 0.87268 0.31705 0.0
C1425 C 0.32347 0.8852 0.32952 0.0
C1426 C 0.34418 0.88887 0.32559 0.0
C1427 C 0.2924 0.8499 0.2875 0.0
C1428 C 0.32005 0.89539 0.34663 0.0
C1429 C 0.25961 0.88282 0.31263 0.0
C1430 C 0.24335 0.86538 0.32245 0.0
C1431 C 0.28032 0.88568 0.31128 0.0
C1432 C 0.28491 0.87061 0.31979 0.0
C1433 C 0.26874 0.85322 0.33009 0.0
C1434 C 0.24815 0.85086 0.33139 0.0
C1435 C 0.29717 0.9046 0.30035 0.0
C1436 C 0.27303 0.83677 0.33926 0.0
H1437 H 0.334 0.8605 0.28517 0.0
H1438 H 0.35737 0.89898 0.33485 0.0
H1439 H 0.27859 0.83677 0.29501 0.0
H1440 H 0.28659 0.85994 0.28067 0.0
H1441 H 0.2977 0.84269 0.27648 0.0
H1442 H 0.33455 0.90319 0.3557 0.0
H1443 H 0.31587 0.90772 0.34233 0.0
H1444 H 0.30641 0.88313 0.35494 0.0
H1445 H 0.25611 0.89423 0.30583 0.0
H1446 H 0.23565 0.83733 0.33897 0.0
H1447 H 0.30207 0.89873 0.28802 0.0
H1448 H 0.3117 0.91404 0.30908 0.0
H1449 H 0.29133 0.91547 0.29543 0.0
H1450 H 0.27666 0.828 0.32843 0.0
H1451 H 0.25914 0.82488 0.34761 0.0
H1452 H 0.28731 0.84486 0.34852 0.0
C1453 C 0.11588 0.44826 0.30186 0.0
C1454 C 0.13185 0.47004 0.30154 0.0
C1455 C 0.12081 0.43227 0.30683 0.0
C1456 C 0.1422 0.43822 0.31163 0.0
C1457 C 0.15859 0.46002 0.31029 0.0
C1458 C 0.15321 0.47567 0.30528 0.0
C1459 C 0.1029 0.40917 0.30802 0.0
C1460 C 0.18161 0.46698 0.31514 0.0
C1461 C 0.14799 0.40407 0.34888 0.0
C1462 C 0.15337 0.39086 0.33847 0.0
C1463 C 0.14468 0.41967 0.34027 0.0
C1464 C 0.14679 0.42227 0.32068 0.0
C1465 C 0.1528 0.40945 0.31006 0.0
C1466 C 0.15598 0.39379 0.3191 0.0
C1467 C 0.13856 0.43317 0.35218 0.0
C1468 C 0.15536 0.41188 0.28917 0.0
H1469 H 0.09933 0.44378 0.29904 0.0
H1470 H 0.16571 0.49242 0.30463 0.0
H1471 H 0.10752 0.39842 0.30079 0.0
H1472 H 0.0999 0.40414 0.32287 0.0
H1473 H 0.0877 0.40685 0.3018 0.0
H1474 H 0.19278 0.48396 0.31113 0.0
H1475 H 0.18305 0.46537 0.33041 0.0
H1476 H 0.18671 0.45649 0.30811 0.0
H1477 H 0.14614 0.40211 0.36389 0.0
H1478 H 0.16011 0.38365 0.31096 0.0
H1479 H 0.12248 0.43034 0.34796 0.0
H1480 H 0.15016 0.45051 0.35007 0.0
H1481 H 0.13813 0.4295 0.3673 0.0
H1482 H 0.13929 0.40517 0.28257 0.0
H1483 H 0.16344 0.40337 0.28345 0.0
H1484 H 0.16477 0.4291 0.2852 0.0
C1485 C 0.33275 0.47547 0.31536 0.0
C1486 C 0.34913 0.47029 0.31399 0.0
C1487 C 0.31149 0.45957 0.31917 0.0
C1488 C 0.30649 0.43799 0.32174 0.0
C1489 C 0.32313 0.43285 0.32125 0.0
C1490 C 0.34423 0.44904 0.3173 0.0
C1491 C 0.2942 0.46568 0.31943 0.0
C1492 C 0.31851 0.41006 0.32407 0.0
C1493 C 0.25184 0.39574 0.34049 0.0
C1494 C 0.24134 0.38519 0.32398 0.0
C1495 C 0.27301 0.41323 0.34005 0.0
C1496 C 0.28368 0.42042 0.32269 0.0
C1497 C 0.27278 0.41031 0.30597 0.0
C1498 C 0.25185 0.39279 0.30684 0.0
C1499 C 0.2842 0.42356 0.35816 0.0
C1500 C 0.28341 0.41763 0.28714 0.0
H1501 H 0.33639 0.49183 0.31267 0.0
H1502 H 0.35688 0.44502 0.31655 0.0
H1503 H 0.28364 0.4587 0.30704 0.0
H1504 H 0.28398 0.45901 0.33199 0.0
H1505 H 0.30098 0.4834 0.31925 0.0
H1506 H 0.33343 0.40911 0.32519 0.0
H1507 H 0.30885 0.40311 0.33689 0.0
H1508 H 0.3089 0.39993 0.31214 0.0
H1509 H 0.2438 0.38987 0.35376 0.0
H1510 H 0.24373 0.38485 0.294 0.0
H1511 H 0.29083 0.44122 0.35756 0.0
H1512 H 0.29792 0.42079 0.36036 0.0
H1513 H 0.27328 0.41703 0.37035 0.0
H1514 H 0.28939 0.43508 0.28526 0.0
H1515 H 0.27231 0.40875 0.27543 0.0
H1516 H 0.29747 0.41522 0.2863 0.0
C1517 C 0.56954 0.9051 0.31047 0.0
C1518 C 0.54893 0.89088 0.30357 0.0
C1519 C 0.58354 0.89767 0.31573 0.0
C1520 C 0.57675 0.87551 0.314 0.0
C1521 C 0.55549 0.8609 0.3082 0.0
C1522 C 0.54182 0.86877 0.30304 0.0
C1523 C 0.60602 0.91375 0.32205 0.0
C1524 C 0.54763 0.83716 0.30621 0.0
C1525 C 0.62074 0.86297 0.30236 0.0
C1526 C 0.62467 0.85649 0.3197 0.0
C1527 C 0.60485 0.86871 0.30031 0.0
C1528 C 0.59265 0.86812 0.31601 0.0
C1529 C 0.59617 0.86114 0.33348 0.0
C1530 C 0.6121 0.85531 0.33511 0.0
C1531 C 0.60144 0.87583 0.28136 0.0
C1532 C 0.58351 0.86038 0.35053 0.0
H1533 H 0.57499 0.92216 0.31118 0.0
H1534 H 0.52597 0.8577 0.29758 0.0
H1535 H 0.61021 0.90808 0.33495 0.0
H1536 H 0.61765 0.91537 0.31112 0.0
H1537 H 0.60797 0.92989 0.32472 0.0
H1538 H 0.52998 0.82764 0.30399 0.0
H1539 H 0.55564 0.83452 0.2941 0.0
H1540 H 0.55181 0.83095 0.31877 0.0
H1541 H 0.63023 0.86374 0.29034 0.0
H1542 H 0.61509 0.85036 0.34857 0.0
H1543 H 0.6051 0.89279 0.28209 0.0
H1544 H 0.58439 0.8659 0.27705 0.0
H1545 H 0.6117 0.87459 0.27043 0.0
H1546 H 0.58711 0.87689 0.35415 0.0
H1547 H 0.58729 0.85337 0.36281 0.0
H1548 H 0.56604 0.85076 0.34759 0.0
C1549 C 0.1439 0.6801 0.28447 0.0
C1550 C 0.1224 0.66432 0.28741 0.0
C1551 C 0.15214 0.70103 0.29152 0.0
C1552 C 0.13857 0.70618 0.30188 0.0
C1553 C 0.11673 0.69044 0.30453 0.0
C1554 C 0.10891 0.66972 0.29723 0.0
C1555 C 0.17546 0.71744 0.28832 0.0
C1556 C 0.10178 0.69527 0.31562 0.0
C1557 C 0.16069 0.74826 0.33997 0.0
C1558 C 0.15883 0.76506 0.3319 0.0
C1559 C 0.15518 0.72944 0.32997 0.0
C1560 C 0.14749 0.72732 0.31144 0.0
C1561 C 0.14661 0.74468 0.30285 0.0
C1562 C 0.15239 0.76345 0.3132 0.0
C1563 C 0.15642 0.71135 0.33963 0.0
C1564 C 0.13854 0.74296 0.28309 0.0
H1565 H 0.15429 0.67607 0.27661 0.0
H1566 H 0.09232 0.65752 0.29964 0.0
H1567 H 0.17693 0.73242 0.28241 0.0
H1568 H 0.18421 0.72174 0.30183 0.0
H1569 H 0.1834 0.7114 0.27873 0.0
H1570 H 0.08496 0.6817 0.31538 0.0
H1571 H 0.10729 0.69867 0.33036 0.0
H1572 H 0.10204 0.70983 0.31004 0.0
H1573 H 0.16583 0.74953 0.35439 0.0
H1574 H 0.1507 0.77632 0.30703 0.0
H1575 H 0.16534 0.70568 0.3309 0.0
H1576 H 0.13997 0.69751 0.34161 0.0
H1577 H 0.16438 0.71624 0.3535 0.0
H1578 H 0.14822 0.73913 0.27345 0.0
H1579 H 0.1392 0.75803 0.27833 0.0
H1580 H 0.12168 0.72962 0.28205 0.0
C1581 C 0.7983 0.98386 0.39494 0.0
C1582 C 0.79601 0.00149 0.38977 0.0
C1583 C 0.78468 0.96326 0.38756 0.0
C1584 C 0.76835 0.96023 0.37477 0.0
C1585 C 0.76564 0.97787 0.36985 0.0
C1586 C 0.77954 0.99829 0.37736 0.0
C1587 C 0.78817 0.94489 0.39302 0.0
C1588 C 0.7483 0.97527 0.35637 0.0
C1589 C 0.74802 0.91675 0.33777 0.0
C1590 C 0.72787 0.90166 0.34481 0.0
C1591 C 0.76182 0.93532 0.34789 0.0
C1592 C 0.75512 0.9391 0.36535 0.0
C1593 C 0.73514 0.92346 0.37292 0.0
C1594 C 0.72178 0.90476 0.36259 0.0
C1595 C 0.78313 0.95141 0.33944 0.0
C1596 C 0.72736 0.92707 0.39138 0.0
H1597 H 0.81108 0.98627 0.40444 0.0
H1598 H 0.77745 0.01177 0.37358 0.0
H1599 H 0.77297 0.93109 0.39817 0.0
H1600 H 0.79315 0.93924 0.3806 0.0
H1601 H 0.80067 0.94959 0.40401 0.0
H1602 H 0.74741 0.99024 0.35496 0.0
H1603 H 0.75141 0.97077 0.34239 0.0
H1604 H 0.73243 0.9621 0.36104 0.0
H1605 H 0.75278 0.9143 0.32405 0.0
H1606 H 0.70605 0.89323 0.3679 0.0
H1607 H 0.7963 0.95589 0.34969 0.0
H1608 H 0.7829 0.96633 0.33575 0.0
H1609 H 0.7868 0.94512 0.32665 0.0
H1610 H 0.73964 0.9309 0.40239 0.0
H1611 H 0.71205 0.91285 0.39584 0.0
H1612 H 0.72483 0.94108 0.39026 0.0
C1613 C 0.00983 0.80205 0.38193 0.0
C1614 C 0.99377 0.78034 0.38073 0.0
C1615 C 0.0309 0.80888 0.37606 0.0
C1616 C 0.03601 0.79365 0.36876 0.0
C1617 C 0.0196 0.77193 0.36657 0.0
C1618 C 0.9987 0.76553 0.37265 0.0
C1619 C 0.04794 0.83216 0.3787 0.0
C1620 C 0.02434 0.75523 0.35867 0.0
C1621 C 0.08994 0.81268 0.34498 0.0
C1622 C 0.10184 0.81033 0.35943 0.0
C1623 C 0.06848 0.80745 0.34777 0.0
C1624 C 0.05883 0.79985 0.36544 0.0
C1625 C 0.07092 0.79783 0.38013 0.0
C1626 C 0.0922 0.80303 0.37693 0.0
C1627 C 0.05605 0.80975 0.33177 0.0
C1628 C 0.06132 0.78995 0.39924 0.0
H1629 H 0.00618 0.81356 0.38831 0.0
H1630 H 0.98626 0.74879 0.37143 0.0
H1631 H 0.0592 0.83338 0.3899 0.0
H1632 H 0.05745 0.83865 0.36575 0.0
H1633 H 0.04097 0.84239 0.38259 0.0
H1634 H 0.00947 0.73964 0.35601 0.0
H1635 H 0.0334 0.76101 0.34542 0.0
H1636 H 0.03455 0.75243 0.36863 0.0
H1637 H 0.09726 0.81829 0.3314 0.0
H1638 H 0.10128 0.80129 0.38824 0.0
H1639 H 0.04968 0.8204 0.33587 0.0
H1640 H 0.04206 0.79381 0.32828 0.0
H1641 H 0.06605 0.81645 0.31906 0.0
H1642 H 0.05531 0.80034 0.40495 0.0
H1643 H 0.07307 0.78983 0.40929 0.0
H1644 H 0.04739 0.77339 0.39818 0.0
C1645 C 0.18972 0.19065 0.36105 0.0
C1646 C 0.19912 0.19122 0.3784 0.0
C1647 C 0.18643 0.2075 0.35537 0.0
C1648 C 0.19295 0.22555 0.36719 0.0
C1649 C 0.20188 0.22599 0.38493 0.0
C1650 C 0.20476 0.20877 0.39036 0.0
C1651 C 0.17679 0.2064 0.33635 0.0
C1652 C 0.20924 0.24505 0.39784 0.0
C1653 C 0.2087 0.27676 0.3405 0.0
C1654 C 0.19046 0.2789 0.34247 0.0
C1655 C 0.2101 0.2601 0.34931 0.0
C1656 C 0.19258 0.24483 0.36002 0.0
C1657 C 0.17438 0.24732 0.36265 0.0
C1658 C 0.17364 0.26457 0.35398 0.0
C1659 C 0.23006 0.25842 0.34657 0.0
C1660 C 0.15531 0.23122 0.37381 0.0
H1661 H 0.18556 0.17734 0.35159 0.0
H1662 H 0.21165 0.20918 0.40394 0.0
H1663 H 0.16351 0.21 0.33743 0.0
H1664 H 0.18916 0.2187 0.32706 0.0
H1665 H 0.17052 0.19036 0.3297 0.0
H1666 H 0.21405 0.24209 0.41179 0.0
H1667 H 0.22319 0.25933 0.39158 0.0
H1668 H 0.19633 0.24908 0.39967 0.0
H1669 H 0.22189 0.28808 0.33184 0.0
H1670 H 0.15954 0.26625 0.3555 0.0
H1671 H 0.22607 0.24385 0.33822 0.0
H1672 H 0.23637 0.25672 0.36023 0.0
H1673 H 0.24296 0.27266 0.33926 0.0
H1674 H 0.14726 0.2156 0.36629 0.0
H1675 H 0.14342 0.23658 0.37609 0.0
H1676 H 0.16057 0.22836 0.38757 0.0
C1677 C 0.66673 0.55752 0.6985 0.0
C1678 C 0.6621 0.53625 0.70117 0.0
C1679 C 0.68792 0.57421 0.69568 0.0
C1680 C 0.70489 0.56956 0.69576 0.0
C1681 C 0.70027 0.54806 0.69813 0.0
C1682 C 0.67893 0.53166 0.70074 0.0
C1683 C 0.69217 0.59689 0.69296 0.0
C1684 C 0.71794 0.54247 0.6985 0.0
C1685 C 0.75923 0.61039 0.67573 0.0
C1686 C 0.77046 0.62136 0.69187 0.0
C1687 C 0.73782 0.59356 0.67674 0.0
C1688 C 0.72758 0.58731 0.69433 0.0
C1689 C 0.739 0.59807 0.71069 0.0
C1690 C 0.76022 0.61508 0.70924 0.0
C1691 C 0.72605 0.58267 0.65897 0.0
C1692 C 0.7288 0.59165 0.72975 0.0
H1693 H 0.65375 0.5611 0.69861 0.0
H1694 H 0.67547 0.5153 0.70302 0.0
H1695 H 0.702 0.60718 0.70473 0.0
H1696 H 0.7015 0.60383 0.67998 0.0
H1697 H 0.67711 0.59763 0.69214 0.0
H1698 H 0.71159 0.52487 0.69971 0.0
H1699 H 0.72775 0.54835 0.68564 0.0
H1700 H 0.72881 0.55061 0.71051 0.0
H1701 H 0.76703 0.61527 0.66225 0.0
H1702 H 0.76887 0.62339 0.72178 0.0
H1703 H 0.71168 0.5845 0.65735 0.0
H1704 H 0.72032 0.56518 0.65966 0.0
H1705 H 0.7363 0.58942 0.6464 0.0
H1706 H 0.7146 0.59385 0.73043 0.0
H1707 H 0.74009 0.60121 0.74113 0.0
H1708 H 0.72307 0.57435 0.73228 0.0
C1709 C 0.44549 0.10292 0.69462 0.0
C1710 C 0.46652 0.11986 0.69747 0.0
C1711 C 0.42829 0.10685 0.6929 0.0
C1712 C 0.43222 0.12821 0.69424 0.0
C1713 C 0.45347 0.14543 0.69668 0.0
C1714 C 0.47038 0.14105 0.69821 0.0
C1715 C 0.40587 0.0881 0.69007 0.0
C1716 C 0.45826 0.1684 0.69831 0.0
C1717 C 0.39005 0.14124 0.67675 0.0
C1718 C 0.3794 0.14059 0.69333 0.0
C1719 C 0.40716 0.13706 0.67679 0.0
C1720 C 0.41399 0.13247 0.69387 0.0
C1721 C 0.40345 0.132 0.71068 0.0
C1722 C 0.38617 0.1359 0.71019 0.0
C1723 C 0.41783 0.13742 0.65856 0.0
C1724 C 0.41048 0.12746 0.72921 0.0
H1725 H 0.44249 0.08655 0.69386 0.0
H1726 H 0.48658 0.15416 0.70065 0.0
H1727 H 0.39576 0.08663 0.70228 0.0
H1728 H 0.39835 0.09088 0.67762 0.0
H1729 H 0.4057 0.07264 0.68825 0.0
H1730 H 0.47576 0.18002 0.69939 0.0
H1731 H 0.45176 0.17273 0.68603 0.0
H1732 H 0.45024 0.17013 0.71087 0.0
H1733 H 0.38481 0.14473 0.66365 0.0
H1734 H 0.3781 0.13552 0.72307 0.0
H1735 H 0.41674 0.12162 0.65617 0.0
H1736 H 0.43514 0.1497 0.65915 0.0
H1737 H 0.41044 0.14104 0.64646 0.0
H1738 H 0.40904 0.11133 0.72891 0.0
H1739 H 0.40082 0.12803 0.74104 0.0
H1740 H 0.42763 0.13939 0.73181 0.0
C1741 C 0.88689 0.32127 0.73038 0.0
C1742 C 0.87524 0.33203 0.72806 0.0
C1743 C 0.88047 0.30154 0.72151 0.0
C1744 C 0.862 0.29237 0.70994 0.0
C1745 C 0.84969 0.30272 0.70809 0.0
C1746 C 0.85648 0.32246 0.71715 0.0
C1747 C 0.89405 0.29102 0.72382 0.0
C1748 C 0.82988 0.29343 0.6959 0.0
C1749 C 0.86343 0.25934 0.66943 0.0
C1750 C 0.8509 0.23818 0.67598 0.0
C1751 C 0.86681 0.27698 0.68025 0.0
C1752 C 0.85722 0.27349 0.69806 0.0
C1753 C 0.84406 0.25219 0.70464 0.0
C1754 C 0.84118 0.23472 0.69356 0.0
C1755 C 0.88108 0.29943 0.67274 0.0
C1756 C 0.83308 0.24791 0.72333 0.0
H1757 H 0.90152 0.32864 0.73863 0.0
H1758 H 0.8472 0.3305 0.71555 0.0
H1759 H 0.88386 0.2739 0.72787 0.0
H1760 H 0.90172 0.29133 0.71031 0.0
H1761 H 0.90685 0.29923 0.7345 0.0
H1762 H 0.82068 0.30197 0.69775 0.0
H1763 H 0.83462 0.29466 0.68103 0.0
H1764 H 0.8192 0.27612 0.69903 0.0
H1765 H 0.87109 0.26224 0.65589 0.0
H1766 H 0.83135 0.21842 0.69865 0.0
H1767 H 0.89528 0.30828 0.68197 0.0
H1768 H 0.87231 0.3085 0.67259 0.0
H1769 H 0.88681 0.29934 0.65837 0.0
H1770 H 0.8451 0.25644 0.73452 0.0
H1771 H 0.82389 0.23047 0.72666 0.0
H1772 H 0.82187 0.25432 0.72341 0.0
C1773 C 0.202 0.01275 0.62645 0.0
C1774 C 0.21035 -0.00113 0.62449 0.0
C1775 C 0.21404 0.03295 0.63506 0.0
C1776 C 0.23483 0.0393 0.64199 0.0
C1777 C 0.24347 0.02549 0.63978 0.0
C1778 C 0.23113 0.00546 0.63105 0.0
C1779 C 0.20441 0.04735 0.63699 0.0
C1780 C 0.26555 0.03162 0.64707 0.0
C1781 C 0.27583 0.09704 0.65473 0.0
C1782 C 0.27437 0.09628 0.67428 0.0
C1783 C 0.26227 0.07889 0.64386 0.0
C1784 C 0.24706 0.05962 0.65278 0.0
C1785 C 0.24472 0.05922 0.6724 0.0
C1786 C 0.25834 0.07754 0.68287 0.0
C1787 C 0.2651 0.07997 0.62294 0.0
C1788 C 0.22865 0.03904 0.68247 0.0
H1789 H 0.18607 0.00787 0.62113 0.0
H1790 H 0.23759 0.99472 0.62972 0.0
H1791 H 0.2023 0.04969 0.65198 0.0
H1792 H 0.21544 0.06346 0.63104 0.0
H1793 H 0.18858 0.04061 0.62989 0.0
H1794 H 0.27028 0.01949 0.6435 0.0
H1795 H 0.27768 0.0474 0.64126 0.0
H1796 H 0.26592 0.03334 0.66249 0.0
H1797 H 0.28817 0.11143 0.64797 0.0
H1798 H 0.25692 0.07686 0.69795 0.0
H1799 H 0.24932 0.07183 0.6157 0.0
H1800 H 0.2739 0.07154 0.61892 0.0
H1801 H 0.27433 0.0968 0.61791 0.0
H1802 H 0.21245 0.03256 0.6762 0.0
H1803 H 0.22767 0.04188 0.69759 0.0
H1804 H 0.23329 0.02649 0.68098 0.0
C1805 C 0.99509 0.18849 0.64289 0.0
C1806 C 0.01172 0.20996 0.64397 0.0
C1807 C 0.97362 0.18298 0.64571 0.0
C1808 C 0.96869 0.19933 0.64984 0.0
C1809 C 0.98547 0.22095 0.65152 0.0
C1810 C 0.00679 0.22602 0.64848 0.0
C1811 C 0.95616 0.15978 0.64361 0.0
C1812 C 0.98087 0.23881 0.65607 0.0
C1813 C 0.91418 0.19139 0.63615 0.0
C1814 C 0.90331 0.18611 0.65328 0.0
C1815 C 0.93527 0.19527 0.63482 0.0
C1816 C 0.94591 0.19409 0.65105 0.0
C1817 C 0.93494 0.18841 0.66835 0.0
C1818 C 0.91368 0.18434 0.66924 0.0
C1819 C 0.94628 0.20096 0.61605 0.0
C1820 C 0.94584 0.18715 0.68598 0.0
H1821 H 0.99881 0.17605 0.63922 0.0
H1822 H 0.01962 0.2426 0.64956 0.0
H1823 H 0.94569 0.15447 0.6561 0.0
H1824 H 0.94589 0.15816 0.63142 0.0
H1825 H 0.96276 0.14883 0.64158 0.0
H1826 H 0.9958 0.25451 0.65817 0.0
H1827 H 0.9715 0.24056 0.64455 0.0
H1828 H 0.97098 0.23482 0.6689 0.0
H1829 H 0.90621 0.19259 0.62371 0.0
H1830 H 0.90539 0.18033 0.68253 0.0
H1831 H 0.95224 0.18978 0.6126 0.0
H1832 H 0.96042 0.21744 0.61655 0.0
H1833 H 0.93545 0.20029 0.60465 0.0
H1834 H 0.95195 0.17581 0.68403 0.0
H1835 H 0.93488 0.18183 0.69819 0.0
H1836 H 0.95989 0.20317 0.68912 0.0
C1837 C 0.78286 0.77839 0.64511 0.0
C1838 C 0.79503 0.79522 0.63271 0.0
C1839 C 0.7893 0.76351 0.65002 0.0
C1840 C 0.80859 0.76578 0.6426 0.0
C1841 C 0.82041 0.78217 0.62941 0.0
C1842 C 0.81342 0.79666 0.62455 0.0
C1843 C 0.776 0.746 0.66387 0.0
C1844 C 0.84113 0.78524 0.62132 0.0
C1845 C 0.8354 0.74616 0.67652 0.0
C1846 C 0.82926 0.72569 0.66947 0.0
C1847 C 0.82996 0.75992 0.66716 0.0
C1848 C 0.81762 0.7528 0.65055 0.0
C1849 C 0.8124 0.73258 0.64278 0.0
C1850 C 0.81849 0.71928 0.6523 0.0
C1851 C 0.83625 0.78153 0.67574 0.0
C1852 C 0.79906 0.72434 0.62523 0.0
H1853 H 0.76846 0.77708 0.65121 0.0
H1854 H 0.82291 0.80974 0.61501 0.0
H1855 H 0.77314 0.73019 0.65873 0.0
H1856 H 0.78485 0.74931 0.6773 0.0
H1857 H 0.76024 0.74485 0.66659 0.0
H1858 H 0.84692 0.79688 0.60956 0.0
H1859 H 0.85368 0.79133 0.63235 0.0
H1860 H 0.83909 0.76969 0.61633 0.0
H1861 H 0.84378 0.75109 0.6898 0.0
H1862 H 0.81346 0.70328 0.64701 0.0
H1863 H 0.82172 0.7814 0.68108 0.0
H1864 H 0.8436 0.79442 0.66508 0.0
H1865 H 0.84778 0.78558 0.68749 0.0
H1866 H 0.78237 0.7205 0.6282 0.0
H1867 H 0.79859 0.70959 0.6198 0.0
H1868 H 0.80541 0.73683 0.61418 0.0
C1869 C 0.01283 0.79162 0.65892 0.0
C1870 C 0.01588 0.80332 0.6424 0.0
C1871 C 0.99259 0.77414 0.66348 0.0
C1872 C 0.975 0.7683 0.65125 0.0
C1873 C 0.97782 0.78058 0.63493 0.0
C1874 C 0.99821 0.7979 0.6307 0.0
C1875 C 0.99024 0.76139 0.68096 0.0
C1876 C 0.95945 0.77497 0.62158 0.0
C1877 C 0.93043 0.71019 0.6479 0.0
C1878 C 0.91352 0.71058 0.65731 0.0
C1879 C 0.95066 0.72871 0.64639 0.0
C1880 C 0.95417 0.7482 0.65446 0.0
C1881 C 0.93745 0.74861 0.66455 0.0
C1882 C 0.91729 0.72975 0.6659 0.0
C1883 C 0.96808 0.72753 0.6356 0.0
C1884 C 0.94063 0.76911 0.67337 0.0
H1885 H 0.02645 0.79566 0.66797 0.0
H1886 H 1.00039 0.80715 0.61809 0.0
H1887 H 0.97633 0.75934 0.68926 0.0
H1888 H 0.98708 0.74508 0.67712 0.0
H1889 H 0.00487 0.76919 0.68988 0.0
H1890 H 0.96389 0.78707 0.61028 0.0
H1891 H 0.9543 0.75906 0.6151 0.0
H1892 H 0.94543 0.77368 0.62919 0.0
H1893 H 0.92778 0.69544 0.64135 0.0
H1894 H 0.90434 0.73021 0.67321 0.0
H1895 H 0.98283 0.73369 0.64424 0.0
H1896 H 0.97228 0.73787 0.62301 0.0
H1897 H 0.96314 0.71087 0.63108 0.0
H1898 H 0.95519 0.77637 0.68233 0.0
H1899 H 0.92663 0.7664 0.68193 0.0
H1900 H 0.94317 0.78098 0.6623 0.0
C1901 C 0.20798 0.19683 0.62793 0.0
C1902 C 0.20956 0.21652 0.63274 0.0
C1903 C 0.22309 0.19139 0.63438 0.0
C1904 C 0.2402 0.20601 0.64593 0.0
C1905 C 0.241 0.22521 0.65193 0.0
C1906 C 0.22563 0.23025 0.64525 0.0
C1907 C 0.22154 0.17067 0.62778 0.0
C1908 C 0.25893 0.24116 0.66431 0.0
C1909 C 0.2761 0.18674 0.66756 0.0
C1910 C 0.29275 0.1941 0.65442 0.0
C1911 C 0.25901 0.19082 0.66525 0.0
C1912 C 0.25866 0.20256 0.64948 0.0
C1913 C 0.27562 0.21035 0.6364 0.0
C1914 C 0.29239 0.20599 0.63901 0.0
C1915 C 0.24117 0.18225 0.67946 0.0
C1916 C 0.2759 0.22302 0.61942 0.0
H1917 H 0.19532 0.18598 0.61854 0.0
H1918 H 0.22695 0.24552 0.64898 0.0
H1919 H 0.23466 0.17437 0.61772 0.0
H1920 H 0.22356 0.16189 0.63966 0.0
H1921 H 0.20596 0.15991 0.62079 0.0
H1922 H 0.25553 0.25357 0.66996 0.0
H1923 H 0.2617 0.23284 0.67614 0.0
H1924 H 0.27404 0.24939 0.65616 0.0
H1925 H 0.27626 0.17755 0.67952 0.0
H1926 H 0.30522 0.21187 0.62883 0.0
H1927 H 0.22587 0.17027 0.67277 0.0
H1928 H 0.23883 0.19547 0.68477 0.0
H1929 H 0.24443 0.17449 0.69148 0.0
H1930 H 0.26176 0.21294 0.61046 0.0
H1931 H 0.29066 0.22857 0.61094 0.0
H1932 H 0.27481 0.2373 0.62375 0.0
C1933 C 0.81931 0.01275 0.6153 0.0
C1934 C 0.79823 0.9972 0.62003 0.0
C1935 C 0.82825 0.03414 0.62148 0.0
C1936 C 0.81581 0.03997 0.63274 0.0
C1937 C 0.7945 0.02428 0.63752 0.0
C1938 C 0.78599 0.00314 0.63109 0.0
C1939 C 0.85094 0.05044 0.61605 0.0
C1940 C 0.78071 0.02973 0.64969 0.0
C1941 C 0.83577 0.08363 0.66886 0.0
C1942 C 0.82911 0.09724 0.66105 0.0
C1943 C 0.83393 0.06605 0.65882 0.0
C1944 C 0.82504 0.06201 0.64061 0.0
C1945 C 0.82082 0.07728 0.63188 0.0
C1946 C 0.82296 0.09486 0.64227 0.0
C1947 C 0.83875 0.05031 0.66868 0.0
C1948 C 0.81164 0.07366 0.61238 0.0
H1949 H 0.82872 0.00825 0.60654 0.0
H1950 H 0.76978 0.99111 0.63494 0.0
H1951 H 0.85101 0.06384 0.60823 0.0
H1952 H 0.86093 0.0575 0.62873 0.0
H1953 H 0.8585 0.0433 0.60726 0.0
H1954 H 0.76433 0.01576 0.65175 0.0
H1955 H 0.78839 0.03531 0.66358 0.0
H1956 H 0.7792 0.04303 0.64335 0.0
H1957 H 0.84046 0.08552 0.68345 0.0
H1958 H 0.81746 0.10522 0.63641 0.0
H1959 H 0.84662 0.0442 0.65914 0.0
H1960 H 0.82347 0.0363 0.67345 0.0
H1961 H 0.84924 0.05768 0.68107 0.0
H1962 H 0.82149 0.07011 0.60269 0.0
H1963 H 0.81083 0.08779 0.60707 0.0
H1964 H 0.79517 0.05951 0.61227 0.0
C1965 C 0.47147 0.32259 0.72054 0.0
C1966 C 0.46461 0.3378 0.7204 0.0
C1967 C 0.45852 0.30189 0.71309 0.0
C1968 C 0.43832 0.29635 0.70522 0.0
C1969 C 0.43118 0.31154 0.7053 0.0
C1970 C 0.44441 0.33205 0.71289 0.0
C1971 C 0.46663 0.28611 0.71331 0.0
C1972 C 0.40981 0.30632 0.69689 0.0
C1973 C 0.41404 0.25521 0.66646 0.0
C1974 C 0.39703 0.23772 0.67561 0.0
C1975 C 0.42817 0.27399 0.67615 0.0
C1976 C 0.42529 0.27539 0.69551 0.0
C1977 C 0.40888 0.25739 0.70508 0.0
C1978 C 0.39493 0.23869 0.695 0.0
C1979 C 0.44548 0.29277 0.66542 0.0
C1980 C 0.40548 0.25829 0.72577 0.0
H1981 H 0.48694 0.32685 0.72659 0.0
H1982 H 0.43911 0.3438 0.71258 0.0
H1983 H 0.45454 0.27073 0.71978 0.0
H1984 H 0.46909 0.28244 0.69879 0.0
H1985 H 0.48202 0.29239 0.72106 0.0
H1986 H 0.40612 0.31948 0.69898 0.0
H1987 H 0.40985 0.30341 0.68168 0.0
H1988 H 0.39672 0.29136 0.70315 0.0
H1989 H 0.41593 0.25451 0.65151 0.0
H1990 H 0.38183 0.22524 0.70215 0.0
H1991 H 0.46132 0.29875 0.67228 0.0
H1992 H 0.44201 0.30621 0.66531 0.0
H1993 H 0.44666 0.28849 0.65073 0.0
H1994 H 0.42055 0.26276 0.73348 0.0
H1995 H 0.39254 0.24272 0.73126 0.0
H1996 H 0.40122 0.27088 0.72871 0.0
C1997 C 0.66521 0.1313 0.69555 0.0
C1998 C 0.66132 0.12271 0.71369 0.0
C1999 C 0.68426 0.13626 0.68606 0.0
C2000 C 0.69978 0.13263 0.69497 0.0
C2001 C 0.69604 0.12424 0.71334 0.0
C2002 C 0.67687 0.11928 0.72239 0.0
C2003 C 0.68764 0.14507 0.66646 0.0
C2004 C 0.71215 0.12008 0.72338 0.0
C2005 C 0.73961 0.12064 0.67176 0.0
C2006 C 0.75898 0.13947 0.67566 0.0
C2007 C 0.71985 0.11901 0.67613 0.0
C2008 C 0.71957 0.13647 0.68507 0.0
C2009 C 0.73902 0.15622 0.68742 0.0
C2010 C 0.75857 0.15755 0.6825 0.0
C2011 C 0.69949 0.09784 0.67291 0.0
C2012 C 0.73945 0.17518 0.69696 0.0
H2013 H 0.65339 0.13422 0.68878 0.0
H2014 H 0.67386 0.11225 0.73622 0.0
H2015 H 0.70302 0.16053 0.6656 0.0
H2016 H 0.68879 0.13372 0.65666 0.0
H2017 H 0.67441 0.14774 0.66175 0.0
H2018 H 0.70729 0.11452 0.73796 0.0
H2019 H 0.71402 0.10763 0.71579 0.0
H2020 H 0.72811 0.13495 0.72369 0.0
H2021 H 0.73996 0.1067 0.66635 0.0
H2022 H 0.77358 0.17208 0.68564 0.0
H2023 H 0.6865 0.10049 0.66753 0.0
H2024 H 0.69398 0.08909 0.68636 0.0
H2025 H 0.70197 0.08746 0.6629 0.0
H2026 H 0.72608 0.17745 0.69198 0.0
H2027 H 0.75489 0.1903 0.69462 0.0
H2028 H 0.73737 0.17213 0.71221 0.0
C2029 C 0.8585 0.53221 0.72595 0.0
C2030 C 0.86915 0.52634 0.71284 0.0
C2031 C 0.853 0.54803 0.72179 0.0
C2032 C 0.85849 0.55833 0.70419 0.0
C2033 C 0.86966 0.55277 0.69107 0.0
C2034 C 0.87473 0.53677 0.69552 0.0
C2035 C 0.84092 0.55337 0.73603 0.0
C2036 C 0.87612 0.56359 0.67222 0.0
C2037 C 0.83067 0.58369 0.6787 0.0
C2038 C 0.84594 0.60552 0.68034 0.0
C2039 C 0.83336 0.56807 0.6882 0.0
C2040 C 0.85218 0.57453 0.69898 0.0
C2041 C 0.86663 0.59673 0.70199 0.0
C2042 C 0.86319 0.61202 0.69272 0.0
C2043 C 0.8172 0.54461 0.68509 0.0
C2044 C 0.88702 0.60437 0.71316 0.0
H2045 H 0.85399 0.52404 0.73931 0.0
H2046 H 0.88324 0.53251 0.68546 0.0
H2047 H 0.84949 0.57091 0.73888 0.0
H2048 H 0.82485 0.54903 0.73041 0.0
H2049 H 0.83878 0.54469 0.74941 0.0
H2050 H 0.8856 0.55813 0.66399 0.0
H2051 H 0.86159 0.56012 0.66407 0.0
H2052 H 0.88582 0.5813 0.674 0.0
H2053 H 0.81752 0.57873 0.66886 0.0
H2054 H 0.87523 0.62894 0.69362 0.0
H2055 H 0.814 0.53539 0.69828 0.0
H2056 H 0.82375 0.53772 0.67491 0.0
H2057 H 0.80178 0.54236 0.67949 0.0
H2058 H 0.88398 0.59476 0.72608 0.0
H2059 H 0.89439 0.62164 0.717 0.0
H2060 H 0.89877 0.60228 0.7047 0.0
C2061 C 0.47466 0.96173 0.14614 0.0
C2062 C 0.48394 0.95369 0.15872 0.0
C2063 C 0.4831 0.96851 0.1282 0.0
C2064 C 0.5015 0.96751 0.12267 0.0
C2065 C 0.51108 0.95955 0.13527 0.0
C2066 C 0.50214 0.95266 0.15313 0.0
C2067 C 0.47235 0.97688 0.11518 0.0
C2068 C 0.53075 0.95836 0.1299 0.0
C2069 C 0.50699 0.96988 0.07007 0.0
C2070 C 0.51932 0.99216 0.06719 0.0
C2071 C 0.50257 0.96127 0.08819 0.0
C2072 C 0.51069 0.9753 0.10375 0.0
C2073 C 0.52499 0.99752 0.10085 0.0
C2074 C 0.52911 0.0057 0.08259 0.0
C2075 C 0.48746 0.93744 0.0906 0.0
C2076 C 0.53435 0.01301 0.11702 0.0
H2077 H 0.46088 0.963 0.1504 0.0
H2078 H 0.50929 0.94624 0.16265 0.0
H2079 H 0.48379 0.99385 0.11144 0.0
H2080 H 0.46756 0.96741 0.10204 0.0
H2081 H 0.45786 0.97609 0.12146 0.0
H2082 H 0.53624 0.9517 0.14129 0.0
H2083 H 0.52734 0.94816 0.1173 0.0
H2084 H 0.54406 0.97465 0.12631 0.0
H2085 H 0.49929 0.95928 0.05828 0.0
H2086 H 0.53882 0.02292 0.08045 0.0
H2087 H 0.4713 0.93465 0.09436 0.0
H2088 H 0.49293 0.93089 0.10206 0.0
H2089 H 0.48597 0.92835 0.07759 0.0
H2090 H 0.52169 0.01563 0.12321 0.0
H2091 H 0.54786 0.02886 0.11259 0.0
H2092 H 0.54015 0.00634 0.12811 0.0
C2093 C 0.03867 0.50995 0.14739 0.0
C2094 C 0.03988 0.52353 0.16197 0.0
C2095 C 0.03152 0.51162 0.1296 0.0
C2096 C 0.02581 0.52758 0.12613 0.0
C2097 C 0.02758 0.54181 0.14059 0.0
C2098 C 0.03435 0.53944 0.15841 0.0
C2099 C 0.02973 0.49599 0.11459 0.0
C2100 C 0.02194 0.55921 0.13736 0.0
C2101 C 0.02224 0.53265 0.07407 0.0
C2102 C 1.00063 0.51721 0.07102 0.0
C2103 C 0.03039 0.53832 0.09231 0.0
C2104 C 0.01663 0.52803 0.10765 0.0
C2105 C 0.99434 0.51455 0.10459 0.0
C2106 C 0.98657 0.50954 0.08628 0.0
C2107 C 0.0541 0.55358 0.09511 0.0
C2108 C 0.97905 0.50321 0.12051 0.0
H2109 H 0.04344 0.498 0.14982 0.0
H2110 H 0.03504 0.54991 0.16962 0.0
H2111 H 0.01287 0.48661 0.10959 0.0
H2112 H 0.03982 0.50488 0.10245 0.0
H2113 H 0.0348 0.48453 0.1196 0.0
H2114 H 0.02781 0.57121 0.14887 0.0
H2115 H 0.02881 0.56768 0.124 0.0
H2116 H 0.00425 0.55188 0.13639 0.0
H2117 H 0.03317 0.53894 0.06235 0.0
H2118 H 0.96972 0.49798 0.08401 0.0
H2119 H 0.06209 0.54431 0.09906 0.0
H2120 H 0.05682 0.56501 0.10663 0.0
H2121 H 0.06184 0.56283 0.08223 0.0
H2122 H 0.98157 0.49005 0.12573 0.0
H2123 H 0.962 0.49609 0.11611 0.0
H2124 H 0.98211 0.51439 0.13229 0.0
C2125 C 0.49829 0.5398 0.15355 0.0
C2126 C 0.48149 0.51987 0.15974 0.0
C2127 C 0.50727 0.54204 0.13571 0.0
C2128 C 0.4991 0.52399 0.1237 0.0
C2129 C 0.48221 0.50384 0.12986 0.0
C2130 C 0.47373 0.50201 0.14781 0.0
C2131 C 0.52538 0.56371 0.12968 0.0
C2132 C 0.47298 0.48418 0.11745 0.0
C2133 C 0.5029 0.52707 0.07101 0.0
C2134 C 0.51716 0.51943 0.06769 0.0
C2135 C 0.498 0.53021 0.08927 0.0
C2136 C 0.50784 0.52588 0.10454 0.0
C2137 C 0.52389 0.52033 0.10119 0.0
C2138 C 0.52825 0.51702 0.08278 0.0
C2139 C 0.4808 0.53614 0.0922 0.0
C2140 C 0.53513 0.51609 0.11707 0.0
H2141 H 0.50422 0.55378 0.16254 0.0
H2142 H 0.46106 0.48647 0.15255 0.0
H2143 H 0.53945 0.56229 0.12542 0.0
H2144 H 0.52036 0.56951 0.11734 0.0
H2145 H 0.53044 0.57597 0.14092 0.0
H2146 H 0.45967 0.46978 0.12426 0.0
H2147 H 0.46682 0.48735 0.1043 0.0
H2148 H 0.48572 0.48046 0.11361 0.0
H2149 H 0.49418 0.5289 0.05944 0.0
H2150 H 0.53942 0.51128 0.08029 0.0
H2151 H 0.48595 0.54905 0.10282 0.0
H2152 H 0.46603 0.52191 0.09748 0.0
H2153 H 0.47674 0.54161 0.07908 0.0
H2154 H 0.54004 0.52862 0.12804 0.0
H2155 H 0.54957 0.51561 0.11226 0.0
H2156 H 0.52394 0.50037 0.12357 0.0
C2157 C 0.97842 0.49609 0.86291 0.0
C2158 C 0.96613 0.47791 0.85177 0.0
C2159 C 0.98486 0.49412 0.88094 0.0
C2160 C 0.97921 0.47347 0.88792 0.0
C2161 C 0.96755 0.45511 0.87652 0.0
C2162 C 0.961 0.45752 0.85861 0.0
C2163 C 0.99723 0.51414 0.8927 0.0
C2164 C 0.96158 0.43291 0.88337 0.0
C2165 C 0.01258 0.47891 0.93055 0.0
C2166 C 0.99914 0.47866 0.94479 0.0
C2167 C 0.00547 0.47494 0.91194 0.0
C2168 C 0.98472 0.47136 0.90753 0.0
C2169 C 0.97047 0.4692 0.92207 0.0
C2170 C 0.97777 0.47254 0.94059 0.0
C2171 C 0.02085 0.47653 0.8969 0.0
C2172 C 0.94832 0.4657 0.91795 0.0
H2173 H 0.98285 0.51192 0.8576 0.0
H2174 H 0.95132 0.44334 0.85019 0.0
H2175 H 0.98813 0.51278 0.90561 0.0
H2176 H 0.01286 0.51589 0.89702 0.0
H2177 H 1.00035 0.52897 0.88517 0.0
H2178 H 0.95454 0.42064 0.87211 0.0
H2179 H 0.97591 0.43287 0.88914 0.0
H2180 H 0.94971 0.42812 0.89482 0.0
H2181 H 0.02907 0.48348 0.93381 0.0
H2182 H 0.96733 0.47244 0.95155 0.0
H2183 H 0.02767 0.49242 0.88992 0.0
H2184 H 0.01244 0.46395 0.8861 0.0
H2185 H 0.03434 0.47492 0.90271 0.0
H2186 H 0.94977 0.48029 0.91116 0.0
H2187 H 0.93855 0.46244 0.9308 0.0
H2188 H 0.93961 0.45208 0.90813 0.0
C2189 C 0.50511 0.46268 0.85338 0.0
C2190 C 0.52664 0.47819 0.84989 0.0
C2191 C 0.49582 0.46108 0.87098 0.0
C2192 C 0.50822 0.47559 0.88531 0.0
C2193 C 0.53002 0.49103 0.88198 0.0
C2194 C 0.53898 0.492 0.8644 0.0
C2195 C 0.47263 0.44422 0.87406 0.0
C2196 C 0.54381 0.5069 0.89688 0.0
C2197 C 0.48412 0.4933 0.92337 0.0
C2198 C 0.48841 0.48464 0.93931 0.0
C2199 C 0.48923 0.48935 0.90549 0.0
C2200 C 0.49828 0.4759 0.90342 0.0
C2201 C 0.50047 0.46525 0.91922 0.0
C2202 C 0.49568 0.4699 0.93704 0.0
C2203 C 0.48689 0.50127 0.88907 0.0
C2204 C 0.5093 0.45015 0.91744 0.0
H2205 H 0.49534 0.45204 0.84224 0.0
H2206 H 0.55574 0.50368 0.86203 0.0
H2207 H 0.4709 0.43536 0.88724 0.0
H2208 H 0.46277 0.45209 0.87542 0.0
H2209 H 0.46605 0.43248 0.86238 0.0
H2210 H 0.56054 0.5177 0.89212 0.0
H2211 H 0.53674 0.51696 0.90101 0.0
H2212 H 0.54429 0.49822 0.90952 0.0
H2213 H 0.4783 0.50455 0.92492 0.0
H2214 H 0.49899 0.46307 0.94923 0.0
H2215 H 0.47896 0.49019 0.87717 0.0
H2216 H 0.50306 0.51379 0.88433 0.0
H2217 H 0.47749 0.50923 0.89264 0.0
H2218 H 0.49989 0.43751 0.90694 0.0
H2219 H 0.50898 0.4423 0.93091 0.0
H2220 H 0.52614 0.45911 0.91246 0.0
C2221 C 0.47984 0.03572 0.856 0.0
C2222 C 0.50092 0.04822 0.84931 0.0
C2223 C 0.47585 0.02692 0.87406 0.0
C2224 C 0.49333 0.03055 0.88566 0.0
C2225 C 0.51462 0.0437 0.87921 0.0
C2226 C 0.51815 0.05238 0.86115 0.0
C2227 C 0.45296 0.01332 0.88059 0.0
C2228 C 0.53371 0.04817 0.89124 0.0
C2229 C 0.49047 0.02013 0.93792 0.0
C2230 C 0.49153 0.00113 0.93835 0.0
C2231 C 0.48934 0.02919 0.9208 0.0
C2232 C 0.48961 0.01914 0.90383 0.0
C2233 C 0.48884 -0.00094 0.90431 0.0
C2234 C 0.48967 0.99026 0.92153 0.0
C2235 C 0.4894 0.05023 0.92101 0.0
C2236 C 0.48882 0.98761 0.8866 0.0
H2237 H 0.46641 0.03231 0.84693 0.0
H2238 H 0.53447 0.06241 0.85627 0.0
H2239 H 0.44919 0.99643 0.8825 0.0
H2240 H 0.45085 0.01916 0.89433 0.0
H2241 H 0.44125 0.01349 0.87053 0.0
H2242 H 0.54922 0.05943 0.88448 0.0
H2243 H 0.5328 0.05514 0.9048 0.0
H2244 H 0.53349 0.03288 0.89427 0.0
H2245 H 0.49175 0.02859 0.95082 0.0
H2246 H 0.49006 0.97535 0.92172 0.0
H2247 H 0.48146 0.05225 0.90849 0.0
H2248 H 0.50626 0.06367 0.92136 0.0
H2249 H 0.48112 0.05142 0.93364 0.0
H2250 H 0.47633 0.98646 0.87679 0.0
H2251 H 0.48595 0.97113 0.88935 0.0
H2252 H 0.50458 0.99696 0.87955 0.0
C2253 C 0.16716 0.29281 0.48971 0.0
C2254 C 0.14913 0.29407 0.49549 0.0
C2255 C 0.17602 0.29974 0.47184 0.0
C2256 C 0.16648 0.30786 0.45936 0.0
C2257 C 0.14834 0.30921 0.46511 0.0
C2258 C 0.14003 0.30248 0.4831 0.0
C2259 C 0.1955 0.29828 0.46629 0.0
C2260 C 0.13762 0.31772 0.45222 0.0
C2261 C 0.1937 0.34469 0.41833 0.0
C2262 C 0.18393 0.33062 0.40325 0.0
C2263 C 0.18967 0.33715 0.43679 0.0
C2264 C 0.17524 0.31507 0.44023 0.0
C2265 C 0.16686 0.30052 0.42503 0.0
C2266 C 0.17149 0.30845 0.40669 0.0
C2267 C 0.19944 0.35312 0.45259 0.0
C2268 C 0.15133 0.27687 0.42804 0.0
H2269 H 0.17418 0.28609 0.49906 0.0
H2270 H 0.12641 0.30396 0.48751 0.0
H2271 H 0.19153 0.28727 0.45419 0.0
H2272 H 0.20861 0.31431 0.46183 0.0
H2273 H 0.20151 0.29235 0.47786 0.0
H2274 H 0.12334 0.31722 0.45867 0.0
H2275 H 0.14917 0.33461 0.44832 0.0
H2276 H 0.1325 0.30813 0.43914 0.0
H2277 H 0.2035 0.36182 0.41574 0.0
H2278 H 0.16385 0.29746 0.39512 0.0
H2279 H 0.20533 0.34666 0.4638 0.0
H2280 H 0.18702 0.35609 0.45876 0.0
H2281 H 0.21298 0.36875 0.44777 0.0
H2282 H 0.15695 0.27039 0.43942 0.0
H2283 H 0.14902 0.26728 0.41518 0.0
H2284 H 0.13551 0.27469 0.43226 0.0
C2285 C 0.70181 0.84165 0.48116 0.0
C2286 C 0.70514 0.85642 0.49538 0.0
C2287 C 0.69475 0.84362 0.46343 0.0
C2288 C 0.69129 0.86105 0.45964 0.0
C2289 C 0.69504 0.87632 0.47376 0.0
C2290 C 0.70169 0.87368 0.49155 0.0
C2291 C 0.69089 0.82688 0.44877 0.0
C2292 C 0.69171 0.89521 0.47023 0.0
C2293 C 0.68928 0.86542 0.40749 0.0
C2294 C 0.66734 0.85131 0.40429 0.0
C2295 C 0.69726 0.87115 0.42576 0.0
C2296 C 0.68293 0.86234 0.44099 0.0
C2297 C 0.66054 0.85056 0.43767 0.0
C2298 C 0.65299 0.84533 0.4193 0.0
C2299 C 0.72119 0.88457 0.4288 0.0
C2300 C 0.64467 0.84104 0.45349 0.0
H2301 H 0.70496 0.8286 0.4838 0.0
H2302 H 0.70401 0.88507 0.50251 0.0
H2303 H 0.67399 0.81906 0.44384 0.0
H2304 H 0.70136 0.83465 0.43653 0.0
H2305 H 0.6941 0.8142 0.45409 0.0
H2306 H 0.69949 0.90781 0.48115 0.0
H2307 H 0.69813 0.90252 0.45639 0.0
H2308 H 0.67427 0.88963 0.47021 0.0
H2309 H 0.70046 0.87034 0.39595 0.0
H2310 H 0.63595 0.83482 0.41687 0.0
H2311 H 0.72748 0.87414 0.43388 0.0
H2312 H 0.72484 0.897 0.43963 0.0
H2313 H 0.72981 0.89259 0.41576 0.0
H2314 H 0.64517 0.8269 0.4592 0.0
H2315 H 0.62799 0.83567 0.44881 0.0
H2316 H 0.64886 0.85282 0.46499 0.0
C2317 C 0.13913 0.84975 0.47705 0.0
C2318 C 0.15217 0.85659 0.49305 0.0
C2319 C 0.14778 0.8503 0.45941 0.0
C2320 C 0.17008 0.85797 0.45765 0.0
C2321 C 0.18348 0.86556 0.47363 0.0
C2322 C 0.17435 0.86471 0.49116 0.0
C2323 C 0.13295 0.84219 0.44269 0.0
C2324 C 0.20735 0.8741 0.47228 0.0
C2325 C 0.1832 0.83404 0.41625 0.0
C2326 C 0.187 0.84923 0.4022 0.0
C2327 C 0.1787 0.83718 0.4346 0.0
C2328 C 0.1788 0.85636 0.43928 0.0
C2329 C 0.18472 0.87269 0.42565 0.0
C2330 C 0.18813 0.8687 0.40707 0.0
C2331 C 0.17224 0.81921 0.44859 0.0
C2332 C 0.18648 0.89395 0.43051 0.0
H2333 H 0.12207 0.84391 0.47833 0.0
H2334 H 0.18453 0.86994 0.50346 0.0
H2335 H 0.13845 0.85495 0.4319 0.0
H2336 H 0.13336 0.82827 0.43637 0.0
H2337 H 0.11607 0.83711 0.44636 0.0
H2338 H 0.21584 0.88165 0.48553 0.0
H2339 H 0.21036 0.86077 0.46879 0.0
H2340 H 0.21436 0.88615 0.4609 0.0
H2341 H 0.18217 0.81887 0.41266 0.0
H2342 H 0.19124 0.88057 0.39634 0.0
H2343 H 0.15494 0.81216 0.45195 0.0
H2344 H 0.18137 0.82546 0.46179 0.0
H2345 H 0.17488 0.80618 0.44325 0.0
H2346 H 0.17031 0.89232 0.42987 0.0
H2347 H 0.19726 0.90672 0.42065 0.0
H2348 H 0.19279 0.89912 0.44487 0.0
C2349 C 0.62873 0.78936 0.19279 0.0
C2350 C 0.6319 0.80953 0.18718 0.0
C2351 C 0.63587 0.78664 0.21033 0.0
C2352 C 0.64608 0.80442 0.2226 0.0
C2353 C 0.64983 0.8249 0.2168 0.0
C2354 C 0.64287 0.82722 0.19913 0.0
C2355 C 0.6319 0.76465 0.21591 0.0
C2356 C 0.66069 0.84432 0.22948 0.0
C2357 C 0.64485 0.80187 0.27509 0.0
C2358 C 0.66664 0.80985 0.2791 0.0
C2359 C 0.63734 0.79792 0.25663 0.0
C2360 C 0.65196 0.80181 0.24193 0.0
C2361 C 0.67335 0.80725 0.24612 0.0
C2362 C 0.68052 0.81142 0.2647 0.0
C2363 C 0.61436 0.79201 0.2528 0.0
C2364 C 0.68925 0.81084 0.23089 0.0
H2365 H 0.6201 0.77554 0.18372 0.0
H2366 H 0.64582 0.84293 0.19474 0.0
H2367 H 0.64662 0.7658 0.22208 0.0
H2368 H 0.61921 0.75777 0.22673 0.0
H2369 H 0.62668 0.75337 0.20388 0.0
H2370 H 0.66258 0.85913 0.22275 0.0
H2371 H 0.65115 0.84133 0.24242 0.0
H2372 H 0.6768 0.84724 0.23365 0.0
H2373 H 0.63403 0.80068 0.28613 0.0
H2374 H 0.69735 0.81738 0.2678 0.0
H2375 H 0.60702 0.77912 0.24213 0.0
H2376 H 0.61402 0.80629 0.24722 0.0
H2377 H 0.60436 0.78654 0.26562 0.0
H2378 H 0.68168 0.79859 0.21971 0.0
H2379 H 0.70347 0.81035 0.2364 0.0
H2380 H 0.69489 0.82687 0.22448 0.0
C2381 C 0.20402 0.82779 0.19625 0.0
C2382 C 0.19175 0.81282 0.1824 0.0
C2383 C 0.1955 0.82711 0.21397 0.0
C2384 C 0.17422 0.81085 0.21811 0.0
C2385 C 0.16191 0.79527 0.20443 0.0
C2386 C 0.17076 0.79655 0.18667 0.0
C2387 C 0.20919 0.84411 0.22816 0.0
C2388 C 0.13926 0.77759 0.20836 0.0
C2389 C 0.16493 0.80759 0.27026 0.0
C2390 C 0.15742 0.82215 0.27242 0.0
C2391 C 0.16859 0.80199 0.2524 0.0
C2392 C 0.16476 0.8113 0.23644 0.0
C2393 C 0.15506 0.82416 0.23855 0.0
C2394 C 0.1514 0.82932 0.25651 0.0
C2395 C 0.17835 0.78769 0.25065 0.0
C2396 C 0.15068 0.83442 0.22194 0.0
H2397 H 0.22041 0.84009 0.19327 0.0
H2398 H 0.16104 0.78501 0.17603 0.0
H2399 H 0.20134 0.8535 0.23211 0.0
H2400 H 0.21081 0.83641 0.24103 0.0
H2401 H 0.22552 0.85543 0.22281 0.0
H2402 H 0.13299 0.76507 0.19728 0.0
H2403 H 0.13848 0.76982 0.22196 0.0
H2404 H 0.12853 0.78453 0.2093 0.0
H2405 H 0.16968 0.80202 0.28245 0.0
H2406 H 0.14535 0.84039 0.25809 0.0
H2407 H 0.19503 0.7972 0.24538 0.0
H2408 H 0.16914 0.77465 0.24041 0.0
H2409 H 0.17875 0.78037 0.26422 0.0
H2410 H 0.16614 0.84754 0.21645 0.0
H2411 H 0.14039 0.84135 0.22565 0.0
H2412 H 0.14278 0.82255 0.21055 0.0
C2413 C 0.1471 0.35963 0.1872 0.0
C2414 C 0.16627 0.37829 0.18233 0.0
C2415 C 0.14364 0.35147 0.20547 0.0
C2416 C 0.15979 0.36212 0.21918 0.0
C2417 C 0.17882 0.38138 0.21453 0.0
C2418 C 0.18181 0.38925 0.19619 0.0
C2419 C 0.12306 0.33098 0.20991 0.0
C2420 C 0.19644 0.39322 0.22875 0.0
C2421 C 0.15053 0.34898 0.27113 0.0
C2422 C 0.15847 0.33477 0.27312 0.0
C2423 C 0.14977 0.35722 0.25344 0.0
C2424 C 0.15803 0.35184 0.23767 0.0
C2425 C 0.16575 0.33727 0.23964 0.0
C2426 C 0.16555 0.32868 0.25723 0.0
C2427 C 0.1406 0.37202 0.25171 0.0
C2428 C 0.17508 0.33138 0.2233 0.0
H2429 H 0.13505 0.35097 0.17657 0.0
H2430 H 0.19645 0.40392 0.19264 0.0
H2431 H 0.12654 0.31772 0.21221 0.0
H2432 H 0.1159 0.3329 0.22296 0.0
H2433 H 0.11105 0.32619 0.19846 0.0
H2434 H 0.20965 0.40866 0.22324 0.0
H2435 H 0.18984 0.39664 0.24144 0.0
H2436 H 0.20325 0.38298 0.23305 0.0
H2437 H 0.14502 0.35371 0.28335 0.0
H2438 H 0.17195 0.31789 0.25863 0.0
H2439 H 0.13001 0.36782 0.23927 0.0
H2440 H 0.15386 0.38881 0.24987 0.0
H2441 H 0.13123 0.37132 0.26426 0.0
H2442 H 0.16321 0.32463 0.21176 0.0
H2443 H 0.18001 0.31944 0.22711 0.0
H2444 H 0.18936 0.34603 0.21789 0.0
C2445 C 0.8112 0.634 0.81489 0.0
C2446 C 0.8198 0.62529 0.82749 0.0
C2447 C 0.81985 0.64059 0.79698 0.0
C2448 C 0.83779 0.63874 0.79151 0.0
C2449 C 0.84676 0.63021 0.80418 0.0
C2450 C 0.8376 0.62348 0.82199 0.0
C2451 C 0.80976 0.64962 0.78391 0.0
C2452 C 0.86599 0.62817 0.79891 0.0
C2453 C 0.84367 0.64035 0.73889 0.0
C2454 C 0.85647 0.66257 0.73588 0.0
C2455 C 0.83874 0.63198 0.7571 0.0
C2456 C 0.84712 0.64614 0.77257 0.0
C2457 C 0.86205 0.66818 0.76953 0.0
C2458 C 0.86646 0.67615 0.75121 0.0
C2459 C 0.82282 0.60836 0.75967 0.0
C2460 C 0.87179 0.68376 0.7856 0.0
H2461 H 0.79776 0.63588 0.8191 0.0
H2462 H 0.84423 0.61654 0.83151 0.0
H2463 H 0.82168 0.66646 0.78021 0.0
H2464 H 0.80475 0.64017 0.77075 0.0
H2465 H 0.79552 0.64942 0.79012 0.0
H2466 H 0.87133 0.62161 0.81049 0.0
H2467 H 0.86209 0.61746 0.7866 0.0
H2468 H 0.87955 0.64414 0.79489 0.0
H2469 H 0.8359 0.62971 0.72713 0.0
H2470 H 0.87657 0.69331 0.74896 0.0
H2471 H 0.80694 0.60639 0.76337 0.0
H2472 H 0.8278 0.6015 0.77124 0.0
H2473 H 0.82089 0.59898 0.74675 0.0
H2474 H 0.85952 0.68709 0.7916 0.0
H2475 H 0.88573 0.69928 0.78111 0.0
H2476 H 0.87708 0.67679 0.79685 0.0
C2477 C 0.37913 0.20912 0.82444 0.0
C2478 C 0.37616 0.18895 0.82979 0.0
C2479 C 0.37253 0.21219 0.80676 0.0
C2480 C 0.363 0.19475 0.79409 0.0
C2481 C 0.35978 0.17433 0.79949 0.0
C2482 C 0.36624 0.17166 0.81728 0.0
C2483 C 0.376 0.2341 0.80157 0.0
C2484 C 0.34963 0.15525 0.78639 0.0
C2485 C 0.32683 0.18698 0.75322 0.0
C2486 C 0.34028 0.18888 0.73833 0.0
C2487 C 0.33468 0.19133 0.77158 0.0
C2488 C 0.35639 0.19742 0.77505 0.0
C2489 C 0.37057 0.20189 0.75986 0.0
C2490 C 0.36233 0.19765 0.7416 0.0
C2491 C 0.31916 0.18703 0.78735 0.0
C2492 C 0.39388 0.20862 0.76289 0.0
H2493 H 0.38702 0.22266 0.83392 0.0
H2494 H 0.36348 0.15594 0.82141 0.0
H2495 H 0.38772 0.24092 0.78999 0.0
H2496 H 0.36076 0.23276 0.79652 0.0
H2497 H 0.3821 0.24553 0.8135 0.0
H2498 H 0.34855 0.14057 0.79266 0.0
H2499 H 0.33321 0.15164 0.78249 0.0
H2500 H 0.35914 0.15905 0.77334 0.0
H2501 H 0.3098 0.18047 0.75069 0.0
H2502 H 0.37284 0.19919 0.73015 0.0
H2503 H 0.32676 0.19926 0.79854 0.0
H2504 H 0.31431 0.17107 0.79354 0.0
H2505 H 0.30444 0.18695 0.78241 0.0
H2506 H 0.40101 0.22067 0.77426 0.0
H2507 H 0.40351 0.21547 0.75001 0.0
H2508 H 0.39508 0.19435 0.76708 0.0
C2509 C 0.83443 0.19553 0.82436 0.0
C2510 C 0.81223 0.18674 0.82694 0.0
C2511 C 0.8429 0.19584 0.80662 0.0
C2512 C 0.8288 0.18694 0.79119 0.0
C2513 C 0.80653 0.17905 0.79358 0.0
C2514 C 0.79855 0.1791 0.81138 0.0
C2515 C 0.86677 0.20485 0.80455 0.0
C2516 C 0.79095 0.16965 0.77745 0.0
C2517 C 0.842 0.19051 0.73969 0.0
C2518 C 0.83863 0.16974 0.73661 0.0
C2519 C 0.84118 0.19747 0.7579 0.0
C2520 C 0.83649 0.18315 0.77311 0.0
C2521 C 0.83546 0.16316 0.77019 0.0
C2522 C 0.83675 0.15682 0.75202 0.0
C2523 C 0.84351 0.21938 0.76054 0.0
C2524 C 0.83069 0.14741 0.78597 0.0
H2525 H 0.84512 0.2015 0.83631 0.0
H2526 H 0.78148 0.17287 0.81317 0.0
H2527 H 0.87015 0.19147 0.80273 0.0
H2528 H 0.87282 0.21519 0.79196 0.0
H2529 H 0.87582 0.21441 0.81695 0.0
H2530 H 0.77431 0.16523 0.78144 0.0
H2531 H 0.79611 0.18135 0.76578 0.0
H2532 H 0.79078 0.15501 0.77219 0.0
H2533 H 0.84372 0.20072 0.72788 0.0
H2534 H 0.83466 0.14093 0.74977 0.0
H2535 H 0.85012 0.22616 0.77451 0.0
H2536 H 0.82749 0.21802 0.75924 0.0
H2537 H 0.85418 0.23075 0.74971 0.0
H2538 H 0.84105 0.15556 0.79822 0.0
H2539 H 0.83307 0.13382 0.7818 0.0
H2540 H 0.81375 0.14071 0.79041 0.0
C2541 C 0.30861 0.16245 0.5316 0.0
C2542 C 0.29647 0.14444 0.52023 0.0
C2543 C 0.31502 0.16023 0.54956 0.0
C2544 C 0.30944 0.1395 0.55628 0.0
C2545 C 0.29785 0.1213 0.54468 0.0
C2546 C 0.29137 0.12396 0.52682 0.0
C2547 C 0.32737 0.18009 0.56152 0.0
C2548 C 0.29187 0.099 0.55128 0.0
C2549 C 0.34326 0.14467 0.59847 0.0
C2550 C 0.33014 0.14478 0.61285 0.0
C2551 C 0.33588 0.14067 0.57994 0.0
C2552 C 0.3151 0.13716 0.57577 0.0
C2553 C 0.3011 0.13513 0.59049 0.0
C2554 C 0.30876 0.13882 0.60891 0.0
C2555 C 0.35105 0.14225 0.5647 0.0
C2556 C 0.27881 0.13142 0.58669 0.0
H2557 H 0.313 0.17835 0.52648 0.0
H2558 H 0.28178 0.1099 0.51823 0.0
H2559 H 0.31822 0.17856 0.57444 0.0
H2560 H 0.34298 0.18176 0.5658 0.0
H2561 H 0.33051 0.19502 0.55416 0.0
H2562 H 0.28477 0.08687 0.53992 0.0
H2563 H 0.3062 0.09887 0.55691 0.0
H2564 H 0.28004 0.0941 0.56278 0.0
H2565 H 0.35975 0.1491 0.60152 0.0
H2566 H 0.29855 0.13896 0.61996 0.0
H2567 H 0.35779 0.15815 0.55776 0.0
H2568 H 0.34249 0.12969 0.55391 0.0
H2569 H 0.3646 0.14061 0.5703 0.0
H2570 H 0.28004 0.14635 0.58089 0.0
H2571 H 0.26893 0.12704 0.59956 0.0
H2572 H 0.27038 0.11848 0.5762 0.0
C2573 C 0.86762 0.16389 0.52697 0.0
C2574 C 0.85559 0.14854 0.51328 0.0
C2575 C 0.85917 0.16301 0.54478 0.0
C2576 C 0.83823 0.1462 0.54916 0.0
C2577 C 0.82602 0.13054 0.5355 0.0
C2578 C 0.83478 0.13197 0.51769 0.0
C2579 C 0.87272 0.18011 0.55894 0.0
C2580 C 0.8037 0.11234 0.5397 0.0
C2581 C 0.82954 0.13928 0.60143 0.0
C2582 C 0.82064 0.15244 0.605 0.0
C2583 C 0.83391 0.13571 0.58309 0.0
C2584 C 0.82925 0.14553 0.56801 0.0
C2585 C 0.81853 0.15722 0.57143 0.0
C2586 C 0.81427 0.16045 0.58988 0.0
C2587 C 0.84498 0.12278 0.57995 0.0
C2588 C 0.81331 0.168 0.55578 0.0
H2589 H 0.88384 0.17649 0.52388 0.0
H2590 H 0.82523 0.12018 0.50715 0.0
H2591 H 0.86419 0.18857 0.56365 0.0
H2592 H 0.87541 0.17256 0.57141 0.0
H2593 H 0.88859 0.19222 0.55325 0.0
H2594 H 0.79655 0.10108 0.52773 0.0
H2595 H 0.8041 0.10316 0.55202 0.0
H2596 H 0.79304 0.11888 0.54324 0.0
H2597 H 0.83459 0.13308 0.61299 0.0
H2598 H 0.80722 0.17049 0.5925 0.0
H2599 H 0.86109 0.13318 0.5738 0.0
H2600 H 0.83564 0.10959 0.56987 0.0
H2601 H 0.84699 0.11572 0.59309 0.0
H2602 H 0.82839 0.18192 0.55058 0.0
H2603 H 0.80242 0.17392 0.56039 0.0
H2604 H 0.80571 0.15678 0.5439 0.0
C2605 C 0.81595 0.70606 0.5259 0.0
C2606 C 0.83619 0.71389 0.51757 0.0
C2607 C 0.81207 0.69802 0.54423 0.0
C2608 C 0.82875 0.69759 0.55442 0.0
C2609 C 0.84931 0.70586 0.54624 0.0
C2610 C 0.85279 0.71396 0.52797 0.0
C2611 C 0.78996 0.68938 0.55247 0.0
C2612 C 0.86756 0.7057 0.55664 0.0
C2613 C 0.8292 0.6901 0.60688 0.0
C2614 C 0.82504 0.66882 0.60782 0.0
C2615 C 0.82912 0.69944 0.58962 0.0
C2616 C 0.82455 0.68708 0.57306 0.0
C2617 C 0.81848 0.66506 0.57421 0.0
C2618 C 0.81881 0.65622 0.59156 0.0
C2619 C 0.83535 0.72289 0.58897 0.0
C2620 C 0.81336 0.65126 0.55693 0.0
H2621 H 0.80295 0.70572 0.51792 0.0
H2622 H 0.86857 0.72036 0.52182 0.0
H2623 H 0.78228 0.67169 0.55424 0.0
H2624 H 0.79107 0.69641 0.5665 0.0
H2625 H 0.77941 0.69285 0.54351 0.0
H2626 H 0.88279 0.71355 0.54861 0.0
H2627 H 0.87028 0.7141 0.57023 0.0
H2628 H 0.86334 0.68886 0.55965 0.0
H2629 H 0.83408 0.69994 0.61938 0.0
H2630 H 0.81536 0.63969 0.59224 0.0
H2631 H 0.82255 0.72467 0.58195 0.0
H2632 H 0.85022 0.73207 0.58065 0.0
H2633 H 0.83817 0.73019 0.6031 0.0
H2634 H 0.80182 0.65306 0.54786 0.0
H2635 H 0.80651 0.63395 0.56038 0.0
H2636 H 0.82826 0.65657 0.54875 0.0
loop_
_geom_bond_atom_site_label_1
_geom_bond_atom_site_label_2
_geom_bond_distance
_geom_bond_site_symmetry_2
_ccdc_geom_bond_type
C0 C1 1.264 . S
C0 C5 1.479 . S
C0 C10 1.465 . S
C1 C0 1.264 . S
C1 C3 1.339 . S
C1 H28 0.931 . S
C2 C3 1.395 . S
C2 C4 1.320 . S
C3 C1 1.339 . S
C3 C2 1.395 . S
C3 H29 0.929 . S
C4 C2 1.320 . S
C4 C5 1.405 . S
C4 H30 0.930 . S
C5 C0 1.479 . S
C5 C4 1.405 . S
C5 H31 0.931 . S
U6 O7 2.454 . S
U6 O8 2.458 . S
U6 C9 2.984 . S
U6 C10 2.847 . S
U6 C23 2.882 . S
U6 O24 2.441 . S
U6 O25 2.420 . S
U6 O26 2.455 . S
U6 O27 2.449 . S
O7 U6 2.454 . S
O7 C9 1.353 . S
O8 U6 2.458 . S
O8 C9 1.286 . S
C9 U6 2.984 . S
C9 O7 1.353 . S
C9 O8 1.286 . S
C9 C11 1.363 . S
C10 C0 1.465 . S
C10 U6 2.847 . S
C10 O24 1.249 . S
C10 O25 1.202 . S
C11 C9 1.363 . S
C11 C13 1.408 . S
C11 C16 1.342 . S
C12 C13 1.310 . S
C12 C15 1.461 . S
C12 H32 0.932 . S
C13 C11 1.408 . S
C13 C12 1.310 . S
C13 H33 0.930 . S
C14 C15 1.474 . S
C14 C16 1.285 . S
C14 H34 0.929 . S
C15 C12 1.461 . S
C15 C14 1.474 . S
C16 C11 1.342 . S
C16 C14 1.285 . S
C16 H35 0.930 . S
C17 C20 1.424 . S
C17 C22 1.245 . S
C17 C23 1.428 . S
C18 C21 1.260 . S
C18 C22 1.477 . S
C18 H36 0.932 . S
C19 C20 1.384 . S
C19 C21 1.479 . S
C19 H37 0.929 . S
C20 C17 1.424 . S
C20 C19 1.384 . S
C20 H38 0.928 . S
C21 C18 1.260 . S
C21 C19 1.479 . S
C22 C17 1.245 . S
C22 C18 1.477 . S
C22 H39 0.932 . S
C23 U6 2.882 . S
C23 C17 1.428 . S
C23 O26 1.301 . S
C23 O27 1.282 . S
O24 U6 2.441 . S
O24 C10 1.249 . S
O25 U6 2.420 . S
O25 C10 1.202 . S
O26 U6 2.455 . S
O26 C23 1.301 . S
O27 U6 2.449 . S
O27 C23 1.282 . S
H28 C1 0.931 . S
H29 C3 0.929 . S
H30 C4 0.930 . S
H31 C5 0.931 . S
H32 C12 0.932 . S
H33 C13 0.930 . S
H34 C14 0.929 . S
H35 C16 0.930 . S
H36 C18 0.932 . S
H37 C19 0.929 . S
H38 C20 0.928 . S
H39 C22 0.932 . S
C40 C41 1.264 . S
C40 C45 1.479 . S
C40 C50 1.465 . S
C41 C40 1.264 . S
C41 C43 1.339 . S
C41 H68 0.931 . S
C42 C43 1.395 . S
C42 C44 1.320 . S
C43 C41 1.339 . S
C43 C42 1.395 . S
C43 H69 0.929 . S
C44 C42 1.320 . S
C44 C45 1.405 . S
C44 H70 0.930 . S
C45 C40 1.479 . S
C45 C44 1.405 . S
C45 H71 0.931 . S
U46 O47 2.454 . S
U46 O48 2.458 . S
U46 C49 2.984 . S
U46 C50 2.847 . S
U46 C63 2.882 . S
U46 O64 2.441 . S
U46 O65 2.420 . S
U46 O66 2.455 . S
U46 O67 2.449 . S
O47 U46 2.454 . S
O47 C49 1.353 . S
O48 U46 2.458 . S
O48 C49 1.286 . S
C49 U46 2.984 . S
C49 O47 1.353 . S
C49 O48 1.286 . S
C49 C51 1.363 . S
C50 C40 1.465 . S
C50 U46 2.847 . S
C50 O64 1.249 . S
C50 O65 1.202 . S
C51 C49 1.363 . S
C51 C53 1.408 . S
C51 C56 1.342 . S
C52 C53 1.310 . S
C52 C55 1.461 . S
C52 H72 0.932 . S
C53 C51 1.408 . S
C53 C52 1.310 . S
C53 H73 0.930 . S
C54 C55 1.474 . S
C54 C56 1.285 . S
C54 H74 0.929 . S
C55 C52 1.461 . S
C55 C54 1.474 . S
C56 C51 1.342 . S
C56 C54 1.285 . S
C56 H75 0.930 . S
C57 C60 1.424 . S
C57 C62 1.245 . S
C57 C63 1.428 . S
C58 C61 1.260 . S
C58 C62 1.477 . S
C58 H76 0.932 . S
C59 C60 1.384 . S
C59 C61 1.479 . S
C59 H77 0.929 . S
C60 C57 1.424 . S
C60 C59 1.384 . S
C60 H78 0.928 . S
C61 C58 1.260 . S
C61 C59 1.479 . S
C62 C57 1.245 . S
C62 C58 1.477 . S
C62 H79 0.932 . S
C63 U46 2.882 . S
C63 C57 1.428 . S
C63 O66 1.301 . S
C63 O67 1.282 . S
O64 U46 2.441 . S
O64 C50 1.249 . S
O65 U46 2.420 . S
O65 C50 1.202 . S
O66 U46 2.455 . S
O66 C63 1.301 . S
O67 U46 2.449 . S
O67 C63 1.282 . S
H68 C41 0.931 . S
H69 C43 0.929 . S
H70 C44 0.930 . S
H71 C45 0.931 . S
H72 C52 0.932 . S
H73 C53 0.930 . S
H74 C54 0.929 . S
H75 C56 0.930 . S
H76 C58 0.932 . S
H77 C59 0.929 . S
H78 C60 0.928 . S
H79 C62 0.932 . S
C80 C81 1.264 . S
C80 C85 1.479 . S
C80 C90 1.465 . S
C81 C80 1.264 . S
C81 C83 1.339 . S
C81 H108 0.931 . S
C82 C83 1.395 . S
C82 C84 1.320 . S
C83 C81 1.339 . S
C83 C82 1.395 . S
C83 H109 0.929 . S
C84 C82 1.320 . S
C84 C85 1.405 . S
C84 H110 0.930 . S
C85 C80 1.479 . S
C85 C84 1.405 . S
C85 H111 0.931 . S
U86 O87 2.454 . S
U86 O88 2.458 . S
U86 C89 2.984 . S
U86 C90 2.847 . S
U86 C103 2.882 . S
U86 O104 2.441 . S
U86 O105 2.420 . S
U86 O106 2.455 . S
U86 O107 2.449 . S
O87 U86 2.454 . S
O87 C89 1.353 . S
O88 U86 2.458 . S
O88 C89 1.286 . S
C89 U86 2.984 . S
C89 O87 1.353 . S
C89 O88 1.286 . S
C89 C91 1.363 . S
C90 C80 1.465 . S
C90 U86 2.847 . S
C90 O104 1.249 . S
C90 O105 1.202 . S
C91 C89 1.363 . S
C91 C93 1.408 . S
C91 C96 1.342 . S
C92 C93 1.310 . S
C92 C95 1.461 . S
C92 H112 0.932 . S
C93 C91 1.408 . S
C93 C92 1.310 . S
C93 H113 0.930 . S
C94 C95 1.474 . S
C94 C96 1.285 . S
C94 H114 0.929 . S
C95 C92 1.461 . S
C95 C94 1.474 . S
C96 C91 1.342 . S
C96 C94 1.285 . S
C96 H115 0.930 . S
C97 C100 1.424 . S
C97 C102 1.245 . S
C97 C103 1.428 . S
C98 C101 1.260 . S
C98 C102 1.477 . S
C98 H116 0.932 . S
C99 C100 1.384 . S
C99 C101 1.479 . S
C99 H117 0.929 . S
C100 C97 1.424 . S
C100 C99 1.384 . S
C100 H118 0.928 . S
C101 C98 1.260 . S
C101 C99 1.479 . S
C102 C97 1.245 . S
C102 C98 1.477 . S
C102 H119 0.932 . S
C103 U86 2.882 . S
C103 C97 1.428 . S
C103 O106 1.301 . S
C103 O107 1.282 . S
O104 U86 2.441 . S
O104 C90 1.249 . S
O105 U86 2.420 . S
O105 C90 1.202 . S
O106 U86 2.455 . S
O106 C103 1.301 . S
O107 U86 2.449 . S
O107 C103 1.282 . S
H108 C81 0.931 . S
H109 C83 0.929 . S
H110 C84 0.930 . S
H111 C85 0.931 . S
H112 C92 0.932 . S
H113 C93 0.930 . S
H114 C94 0.929 . S
H115 C96 0.930 . S
H116 C98 0.932 . S
H117 C99 0.929 . S
H118 C100 0.928 . S
H119 C102 0.932 . S
C120 C121 1.264 . S
C120 C125 1.479 . S
C120 C130 1.465 . S
C121 C120 1.264 . S
C121 C123 1.339 . S
C121 H148 0.931 . S
C122 C123 1.395 . S
C122 C124 1.320 . S
C123 C121 1.339 . S
C123 C122 1.395 . S
C123 H149 0.929 . S
C124 C122 1.320 . S
C124 C125 1.405 . S
C124 H150 0.930 . S
C125 C120 1.479 . S
C125 C124 1.405 . S
C125 H151 0.931 . S
U126 O127 2.454 . S
U126 O128 2.458 . S
U126 C129 2.984 . S
U126 C130 2.847 . S
U126 C143 2.882 . S
U126 O144 2.441 . S
U126 O145 2.420 . S
U126 O146 2.455 . S
U126 O147 2.449 . S
O127 U126 2.454 . S
O127 C129 1.353 . S
O128 U126 2.458 . S
O128 C129 1.286 . S
C129 U126 2.984 . S
C129 O127 1.353 . S
C129 O128 1.286 . S
C129 C131 1.363 . S
C130 C120 1.465 . S
C130 U126 2.847 . S
C130 O144 1.249 . S
C130 O145 1.202 . S
C131 C129 1.363 . S
C131 C133 1.408 . S
C131 C136 1.342 . S
C132 C133 1.310 . S
C132 C135 1.461 . S
C132 H152 0.932 . S
C133 C131 1.408 . S
C133 C132 1.310 . S
C133 H153 0.930 . S
C134 C135 1.474 . S
C134 C136 1.285 . S
C134 H154 0.929 . S
C135 C132 1.461 . S
C135 C134 1.474 . S
C136 C131 1.342 . S
C136 C134 1.285 . S
C136 H155 0.930 . S
C137 C140 1.424 . S
C137 C142 1.245 . S
C137 C143 1.428 . S
C138 C141 1.260 . S
C138 C142 1.477 . S
C138 H156 0.932 . S
C139 C140 1.384 . S
C139 C141 1.479 . S
C139 H157 0.929 . S
C140 C137 1.424 . S
C140 C139 1.384 . S
C140 H158 0.928 . S
C141 C138 1.260 . S
C141 C139 1.479 . S
C142 C137 1.245 . S
C142 C138 1.477 . S
C142 H159 0.932 . S
C143 U126 2.882 . S
C143 C137 1.428 . S
C143 O146 1.301 . S
C143 O147 1.282 . S
O144 U126 2.441 . S
O144 C130 1.249 . S
O145 U126 2.420 . S
O145 C130 1.202 . S
O146 U126 2.455 . S
O146 C143 1.301 . S
O147 U126 2.449 . S
O147 C143 1.282 . S
H148 C121 0.931 . S
H149 C123 0.929 . S
H150 C124 0.930 . S
H151 C125 0.931 . S
H152 C132 0.932 . S
H153 C133 0.930 . S
H154 C134 0.929 . S
H155 C136 0.930 . S
H156 C138 0.932 . S
H157 C139 0.929 . S
H158 C140 0.928 . S
H159 C142 0.932 . S
C160 C161 1.264 . S
C160 C165 1.479 . S
C160 C170 1.465 . S
C161 C160 1.264 . S
C161 C163 1.339 . S
C161 H188 0.931 . S
C162 C163 1.395 . S
C162 C164 1.320 . S
C163 C161 1.339 . S
C163 C162 1.395 . S
C163 H189 0.929 . S
C164 C162 1.320 . S
C164 C165 1.405 . S
C164 H190 0.930 . S
C165 C160 1.479 . S
C165 C164 1.405 . S
C165 H191 0.931 . S
U166 O167 2.454 . S
U166 O168 2.458 . S
U166 C169 2.984 . S
U166 C170 2.847 . S
U166 C183 2.882 . S
U166 O184 2.441 . S
U166 O185 2.420 . S
U166 O186 2.455 . S
U166 O187 2.449 . S
O167 U166 2.454 . S
O167 C169 1.353 . S
O168 U166 2.458 . S
O168 C169 1.286 . S
C169 U166 2.984 . S
C169 O167 1.353 . S
C169 O168 1.286 . S
C169 C171 1.363 . S
C170 C160 1.465 . S
C170 U166 2.847 . S
C170 O184 1.249 . S
C170 O185 1.202 . S
C171 C169 1.363 . S
C171 C173 1.408 . S
C171 C176 1.342 . S
C172 C173 1.310 . S
C172 C175 1.461 . S
C172 H192 0.932 . S
C173 C171 1.408 . S
C173 C172 1.310 . S
C173 H193 0.930 . S
C174 C175 1.474 . S
C174 C176 1.285 . S
C174 H194 0.929 . S
C175 C172 1.461 . S
C175 C174 1.474 . S
C176 C171 1.342 . S
C176 C174 1.285 . S
C176 H195 0.930 . S
C177 C180 1.424 . S
C177 C182 1.245 . S
C177 C183 1.428 . S
C178 C181 1.260 . S
C178 C182 1.477 . S
C178 H196 0.932 . S
C179 C180 1.384 . S
C179 C181 1.479 . S
C179 H197 0.929 . S
C180 C177 1.424 . S
C180 C179 1.384 . S
C180 H198 0.928 . S
C181 C178 1.260 . S
C181 C179 1.479 . S
C182 C177 1.245 . S
C182 C178 1.477 . S
C182 H199 0.932 . S
C183 U166 2.882 . S
C183 C177 1.428 . S
C183 O186 1.301 . S
C183 O187 1.282 . S
O184 U166 2.441 . S
O184 C170 1.249 . S
O185 U166 2.420 . S
O185 C170 1.202 . S
O186 U166 2.455 . S
O186 C183 1.301 . S
O187 U166 2.449 . S
O187 C183 1.282 . S
H188 C161 0.931 . S
H189 C163 0.929 . S
H190 C164 0.930 . S
H191 C165 0.931 . S
H192 C172 0.932 . S
H193 C173 0.930 . S
H194 C174 0.929 . S
H195 C176 0.930 . S
H196 C178 0.932 . S
H197 C179 0.929 . S
H198 C180 0.928 . S
H199 C182 0.932 . S
C200 C201 1.264 . S
C200 C205 1.479 . S
C200 C210 1.465 . S
C201 C200 1.264 . S
C201 C203 1.339 . S
C201 H228 0.931 . S
C202 C203 1.395 . S
C202 C204 1.320 . S
C203 C201 1.339 . S
C203 C202 1.395 . S
C203 H229 0.929 . S
C204 C202 1.320 . S
C204 C205 1.405 . S
C204 H230 0.930 . S
C205 C200 1.479 . S
C205 C204 1.405 . S
C205 H231 0.931 . S
U206 O207 2.454 . S
U206 O208 2.458 . S
U206 C209 2.984 . S
U206 C210 2.847 . S
U206 C223 2.882 . S
U206 O224 2.441 . S
U206 O225 2.420 . S
U206 O226 2.455 . S
U206 O227 2.449 . S
O207 U206 2.454 . S
O207 C209 1.353 . S
O208 U206 2.458 . S
O208 C209 1.286 . S
C209 U206 2.984 . S
C209 O207 1.353 . S
C209 O208 1.286 . S
C209 C211 1.363 . S
C210 C200 1.465 . S
C210 U206 2.847 . S
C210 O224 1.249 . S
C210 O225 1.202 . S
C211 C209 1.363 . S
C211 C213 1.408 . S
C211 C216 1.342 . S
C212 C213 1.310 . S
C212 C215 1.461 . S
C212 H232 0.932 . S
C213 C211 1.408 . S
C213 C212 1.310 . S
C213 H233 0.930 . S
C214 C215 1.474 . S
C214 C216 1.285 . S
C214 H234 0.929 . S
C215 C212 1.461 . S
C215 C214 1.474 . S
C216 C211 1.342 . S
C216 C214 1.285 . S
C216 H235 0.930 . S
C217 C220 1.424 . S
C217 C222 1.245 . S
C217 C223 1.428 . S
C218 C221 1.260 . S
C218 C222 1.477 . S
C218 H236 0.932 . S
C219 C220 1.384 . S
C219 C221 1.479 . S
C219 H237 0.929 . S
C220 C217 1.424 . S
C220 C219 1.384 . S
C220 H238 0.928 . S
C221 C218 1.260 . S
C221 C219 1.479 . S
C222 C217 1.245 . S
C222 C218 1.477 . S
C222 H239 0.932 . S
C223 U206 2.882 . S
C223 C217 1.428 . S
C223 O226 1.301 . S
C223 O227 1.282 . S
O224 U206 2.441 . S
O224 C210 1.249 . S
O225 U206 2.420 . S
O225 C210 1.202 . S
O226 U206 2.455 . S
O226 C223 1.301 . S
O227 U206 2.449 . S
O227 C223 1.282 . S
H228 C201 0.931 . S
H229 C203 0.929 . S
H230 C204 0.930 . S
H231 C205 0.931 . S
H232 C212 0.932 . S
H233 C213 0.930 . S
H234 C214 0.929 . S
H235 C216 0.930 . S
H236 C218 0.932 . S
H237 C219 0.929 . S
H238 C220 0.928 . S
H239 C222 0.932 . S
C240 C241 1.264 . S
C240 C245 1.479 . S
C240 C250 1.465 . S
C241 C240 1.264 . S
C241 C243 1.339 . S
C241 H268 0.931 . S
C242 C243 1.395 . S
C242 C244 1.320 . S
C243 C241 1.339 . S
C243 C242 1.395 . S
C243 H269 0.929 . S
C244 C242 1.320 . S
C244 C245 1.405 . S
C244 H270 0.930 . S
C245 C240 1.479 . S
C245 C244 1.405 . S
C245 H271 0.931 . S
U246 O247 2.454 . S
U246 O248 2.458 . S
U246 C249 2.984 . S
U246 C250 2.847 . S
U246 C263 2.882 . S
U246 O264 2.441 . S
U246 O265 2.420 . S
U246 O266 2.455 . S
U246 O267 2.449 . S
O247 U246 2.454 . S
O247 C249 1.353 . S
O248 U246 2.458 . S
O248 C249 1.286 . S
C249 U246 2.984 . S
C249 O247 1.353 . S
C249 O248 1.286 . S
C249 C251 1.363 . S
C250 C240 1.465 . S
C250 U246 2.847 . S
C250 O264 1.249 . S
C250 O265 1.202 . S
C251 C249 1.363 . S
C251 C253 1.408 . S
C251 C256 1.342 . S
C252 C253 1.310 . S
C252 C255 1.461 . S
C252 H272 0.932 . S
C253 C251 1.408 . S
C253 C252 1.310 . S
C253 H273 0.930 . S
C254 C255 1.474 . S
C254 C256 1.285 . S
C254 H274 0.929 . S
C255 C252 1.461 . S
C255 C254 1.474 . S
C256 C251 1.342 . S
C256 C254 1.285 . S
C256 H275 0.930 . S
C257 C260 1.424 . S
C257 C262 1.245 . S
C257 C263 1.428 . S
C258 C261 1.260 . S
C258 C262 1.477 . S
C258 H276 0.932 . S
C259 C260 1.384 . S
C259 C261 1.479 . S
C259 H277 0.929 . S
C260 C257 1.424 . S
C260 C259 1.384 . S
C260 H278 0.928 . S
C261 C258 1.260 . S
C261 C259 1.479 . S
C262 C257 1.245 . S
C262 C258 1.477 . S
C262 H279 0.932 . S
C263 U246 2.882 . S
C263 C257 1.428 . S
C263 O266 1.301 . S
C263 O267 1.282 . S
O264 U246 2.441 . S
O264 C250 1.249 . S
O265 U246 2.420 . S
O265 C250 1.202 . S
O266 U246 2.455 . S
O266 C263 1.301 . S
O267 U246 2.449 . S
O267 C263 1.282 . S
H268 C241 0.931 . S
H269 C243 0.929 . S
H270 C244 0.930 . S
H271 C245 0.931 . S
H272 C252 0.932 . S
H273 C253 0.930 . S
H274 C254 0.929 . S
H275 C256 0.930 . S
H276 C258 0.932 . S
H277 C259 0.929 . S
H278 C260 0.928 . S
H279 C262 0.932 . S
C280 C281 1.264 . S
C280 C285 1.479 . S
C280 C290 1.465 . S
C281 C280 1.264 . S
C281 C283 1.339 . S
C281 H308 0.931 . S
C282 C283 1.395 . S
C282 C284 1.320 . S
C283 C281 1.339 . S
C283 C282 1.395 . S
C283 H309 0.929 . S
C284 C282 1.320 . S
C284 C285 1.405 . S
C284 H310 0.930 . S
C285 C280 1.479 . S
C285 C284 1.405 . S
C285 H311 0.931 . S
U286 O287 2.454 . S
U286 O288 2.458 . S
U286 C289 2.984 . S
U286 C290 2.847 . S
U286 C303 2.882 . S
U286 O304 2.441 . S
U286 O305 2.420 . S
U286 O306 2.455 . S
U286 O307 2.449 . S
O287 U286 2.454 . S
O287 C289 1.353 . S
O288 U286 2.458 . S
O288 C289 1.286 . S
C289 U286 2.984 . S
C289 O287 1.353 . S
C289 O288 1.286 . S
C289 C291 1.363 . S
C290 C280 1.465 . S
C290 U286 2.847 . S
C290 O304 1.249 . S
C290 O305 1.202 . S
C291 C289 1.363 . S
C291 C293 1.408 . S
C291 C296 1.342 . S
C292 C293 1.310 . S
C292 C295 1.461 . S
C292 H312 0.932 . S
C293 C291 1.408 . S
C293 C292 1.310 . S
C293 H313 0.930 . S
C294 C295 1.474 . S
C294 C296 1.285 . S
C294 H314 0.929 . S
C295 C292 1.461 . S
C295 C294 1.474 . S
C296 C291 1.342 . S
C296 C294 1.285 . S
C296 H315 0.930 . S
C297 C300 1.424 . S
C297 C302 1.245 . S
C297 C303 1.428 . S
C298 C301 1.260 . S
C298 C302 1.477 . S
C298 H316 0.932 . S
C299 C300 1.384 . S
C299 C301 1.479 . S
C299 H317 0.929 . S
C300 C297 1.424 . S
C300 C299 1.384 . S
C300 H318 0.928 . S
C301 C298 1.260 . S
C301 C299 1.479 . S
C302 C297 1.245 . S
C302 C298 1.477 . S
C302 H319 0.932 . S
C303 U286 2.882 . S
C303 C297 1.428 . S
C303 O306 1.301 . S
C303 O307 1.282 . S
O304 U286 2.441 . S
O304 C290 1.249 . S
O305 U286 2.420 . S
O305 C290 1.202 . S
O306 U286 2.455 . S
O306 C303 1.301 . S
O307 U286 2.449 . S
O307 C303 1.282 . S
H308 C281 0.931 . S
H309 C283 0.929 . S
H310 C284 0.930 . S
H311 C285 0.931 . S
H312 C292 0.932 . S
H313 C293 0.930 . S
H314 C294 0.929 . S
H315 C296 0.930 . S
H316 C298 0.932 . S
H317 C299 0.929 . S
H318 C300 0.928 . S
H319 C302 0.932 . S
C320 C321 1.264 . S
C320 C325 1.479 . S
C320 C330 1.465 . S
C321 C320 1.264 . S
C321 C323 1.339 . S
C321 H348 0.931 . S
C322 C323 1.395 . S
C322 C324 1.320 . S
C323 C321 1.339 . S
C323 C322 1.395 . S
C323 H349 0.929 . S
C324 C322 1.320 . S
C324 C325 1.405 . S
C324 H350 0.930 . S
C325 C320 1.479 . S
C325 C324 1.405 . S
C325 H351 0.931 . S
U326 O327 2.454 . S
U326 O328 2.458 . S
U326 C329 2.984 . S
U326 C330 2.847 . S
U326 C343 2.882 . S
U326 O344 2.441 . S
U326 O345 2.420 . S
U326 O346 2.455 . S
U326 O347 2.449 . S
O327 U326 2.454 . S
O327 C329 1.353 . S
O328 U326 2.458 . S
O328 C329 1.286 . S
C329 U326 2.984 . S
C329 O327 1.353 . S
C329 O328 1.286 . S
C329 C331 1.363 . S
C330 C320 1.465 . S
C330 U326 2.847 . S
C330 O344 1.249 . S
C330 O345 1.202 . S
C331 C329 1.363 . S
C331 C333 1.408 . S
C331 C336 1.342 . S
C332 C333 1.310 . S
C332 C335 1.461 . S
C332 H352 0.932 . S
C333 C331 1.408 . S
C333 C332 1.310 . S
C333 H353 0.930 . S
C334 C335 1.474 . S
C334 C336 1.285 . S
C334 H354 0.929 . S
C335 C332 1.461 . S
C335 C334 1.474 . S
C336 C331 1.342 . S
C336 C334 1.285 . S
C336 H355 0.930 . S
C337 C340 1.424 . S
C337 C342 1.245 . S
C337 C343 1.428 . S
C338 C341 1.260 . S
C338 C342 1.477 . S
C338 H356 0.932 . S
C339 C340 1.384 . S
C339 C341 1.479 . S
C339 H357 0.929 . S
C340 C337 1.424 . S
C340 C339 1.384 . S
C340 H358 0.928 . S
C341 C338 1.260 . S
C341 C339 1.479 . S
C342 C337 1.245 . S
C342 C338 1.477 . S
C342 H359 0.932 . S
C343 U326 2.882 . S
C343 C337 1.428 . S
C343 O346 1.301 . S
C343 O347 1.282 . S
O344 U326 2.441 . S
O344 C330 1.249 . S
O345 U326 2.420 . S
O345 C330 1.202 . S
O346 U326 2.455 . S
O346 C343 1.301 . S
O347 U326 2.449 . S
O347 C343 1.282 . S
H348 C321 0.931 . S
H349 C323 0.929 . S
H350 C324 0.930 . S
H351 C325 0.931 . S
H352 C332 0.932 . S
H353 C333 0.930 . S
H354 C334 0.929 . S
H355 C336 0.930 . S
H356 C338 0.932 . S
H357 C339 0.929 . S
H358 C340 0.928 . S
H359 C342 0.932 . S
C360 C361 1.264 . S
C360 C365 1.479 . S
C360 C370 1.465 . S
C361 C360 1.264 . S
C361 C363 1.339 . S
C361 H388 0.931 . S
C362 C363 1.395 . S
C362 C364 1.320 . S
C363 C361 1.339 . S
C363 C362 1.395 . S
C363 H389 0.929 . S
C364 C362 1.320 . S
C364 C365 1.405 . S
C364 H390 0.887 1_556 S
C365 C360 1.479 . S
C365 C364 1.405 . S
C365 H391 0.931 . S
U366 O367 2.454 . S
U366 O368 2.458 . S
U366 C369 2.984 . S
U366 C370 2.847 . S
U366 C383 2.882 . S
U366 O384 2.441 . S
U366 O385 2.420 . S
U366 O386 2.455 . S
U366 O387 2.449 . S
O367 U366 2.454 . S
O367 C369 1.353 . S
O368 U366 2.458 . S
O368 C369 1.286 . S
C369 U366 2.984 . S
C369 O367 1.353 . S
C369 O368 1.286 . S
C369 C371 1.363 . S
C370 C360 1.465 . S
C370 U366 2.847 . S
C370 O384 1.249 . S
C370 O385 1.202 . S
C371 C369 1.363 . S
C371 C373 1.408 . S
C371 C376 1.342 . S
C372 C373 1.310 . S
C372 C375 1.461 . S
C372 H392 0.932 1_556 S
C373 C371 1.408 . S
C373 C372 1.310 . S
C373 H393 0.930 . S
C374 C375 1.474 . S
C374 C376 1.285 . S
C374 H394 0.929 . S
C375 C372 1.461 . S
C375 C374 1.474 . S
C376 C371 1.342 . S
C376 C374 1.285 . S
C376 H395 0.930 . S
C377 C380 1.424 . S
C377 C382 1.245 . S
C377 C383 1.428 . S
C378 C381 1.260 . S
C378 C382 1.477 . S
C378 H396 0.932 . S
C379 C380 1.384 . S
C379 C381 1.479 . S
C379 H397 0.929 . S
C380 C377 1.424 . S
C380 C379 1.384 . S
C380 H398 0.928 . S
C381 C378 1.260 . S
C381 C379 1.479 . S
C382 C377 1.245 . S
C382 C378 1.477 . S
C382 H399 0.932 . S
C383 U366 2.882 . S
C383 C377 1.428 . S
C383 O386 1.301 . S
C383 O387 1.282 . S
O384 U366 2.441 . S
O384 C370 1.249 . S
O385 U366 2.420 . S
O385 C370 1.202 . S
O386 U366 2.455 . S
O386 C383 1.301 . S
O387 U366 2.449 . S
O387 C383 1.282 . S
H388 C361 0.931 . S
H389 C363 0.929 . S
H390 C364 0.887 1_554 S
H391 C365 0.931 . S
H392 C372 0.932 1_554 S
H393 C373 0.930 . S
H394 C374 0.929 . S
H395 C376 0.930 . S
H396 C378 0.932 . S
H397 C379 0.929 . S
H398 C380 0.928 . S
H399 C382 0.932 . S
C400 C401 1.264 . S
C400 C405 1.479 . S
C400 C410 1.465 . S
C401 C400 1.264 . S
C401 C403 1.339 . S
C401 H428 0.931 . S
C402 C403 1.395 . S
C402 C404 1.320 . S
C403 C401 1.339 . S
C403 C402 1.395 . S
C403 H429 0.929 . S
C404 C402 1.320 . S
C404 C405 1.405 . S
C404 H430 0.930 1_556 S
C405 C400 1.479 . S
C405 C404 1.405 . S
C405 H431 0.931 . S
U406 O407 2.454 . S
U406 O408 2.458 . S
U406 C409 2.984 . S
U406 C410 2.847 . S
U406 C423 2.882 . S
U406 O424 2.441 . S
U406 O425 2.420 . S
U406 O426 2.455 . S
U406 O427 2.449 . S
O407 U406 2.454 . S
O407 C409 1.353 . S
O408 U406 2.458 . S
O408 C409 1.286 . S
C409 U406 2.984 . S
C409 O407 1.353 . S
C409 O408 1.286 . S
C409 C411 1.363 . S
C410 C400 1.465 . S
C410 U406 2.847 . S
C410 O424 1.249 . S
C410 O425 1.202 . S
C411 C409 1.363 . S
C411 C413 1.408 . S
C411 C416 1.342 . S
C412 C413 1.310 . S
C412 C415 1.461 . S
C412 H432 0.932 1_556 S
C413 C411 1.408 . S
C413 C412 1.310 . S
C413 H433 0.930 . S
C414 C415 1.474 . S
C414 C416 1.285 . S
C414 H434 0.929 . S
C415 C412 1.461 . S
C415 C414 1.474 . S
C416 C411 1.342 . S
C416 C414 1.285 . S
C416 H435 0.930 . S
C417 C420 1.424 . S
C417 C422 1.245 . S
C417 C423 1.428 . S
C418 C421 1.260 . S
C418 C422 1.477 . S
C418 H436 0.932 . S
C419 C420 1.384 . S
C419 C421 1.479 . S
C419 H437 0.929 . S
C420 C417 1.424 . S
C420 C419 1.384 . S
C420 H438 0.928 . S
C421 C418 1.260 . S
C421 C419 1.479 . S
C422 C417 1.245 . S
C422 C418 1.477 . S
C422 H439 0.932 . S
C423 U406 2.882 . S
C423 C417 1.428 . S
C423 O426 1.301 . S
C423 O427 1.282 . S
O424 U406 2.441 . S
O424 C410 1.249 . S
O425 U406 2.420 . S
O425 C410 1.202 . S
O426 U406 2.455 . S
O426 C423 1.301 . S
O427 U406 2.449 . S
O427 C423 1.282 . S
H428 C401 0.931 . S
H429 C403 0.929 . S
H430 C404 0.930 1_554 S
H431 C405 0.931 . S
H432 C412 0.932 1_554 S
H433 C413 0.930 . S
H434 C414 0.929 . S
H435 C416 0.930 . S
H436 C418 0.932 . S
H437 C419 0.929 . S
H438 C420 0.928 . S
H439 C422 0.932 . S
C440 C441 1.264 . S
C440 C445 1.479 . S
C440 C450 1.465 . S
C441 C440 1.264 . S
C441 C443 1.339 . S
C441 H468 0.931 . S
C442 C443 1.395 . S
C442 C444 1.320 . S
C443 C441 1.339 . S
C443 C442 1.395 . S
C443 H469 0.929 . S
C444 C442 1.320 . S
C444 C445 1.405 . S
C444 H470 0.885 1_556 S
C445 C440 1.479 . S
C445 C444 1.405 . S
C445 H471 0.931 . S
U446 O447 2.454 . S
U446 O448 2.458 . S
U446 C449 2.984 . S
U446 C450 2.847 . S
U446 C463 2.882 . S
U446 O464 2.441 . S
U446 O465 2.420 . S
U446 O466 2.455 . S
U446 O467 2.449 . S
O447 U446 2.454 . S
O447 C449 1.353 . S
O448 U446 2.458 . S
O448 C449 1.286 . S
C449 U446 2.984 . S
C449 O447 1.353 . S
C449 O448 1.286 . S
C449 C451 1.363 . S
C450 C440 1.465 . S
C450 U446 2.847 . S
C450 O464 1.249 . S
C450 O465 1.202 . S
C451 C449 1.363 . S
C451 C453 1.408 . S
C451 C456 1.342 . S
C452 C453 1.310 . S
C452 C455 1.461 . S
C452 H472 0.932 1_556 S
C453 C451 1.408 . S
C453 C452 1.310 . S
C453 H473 0.930 . S
C454 C455 1.474 . S
C454 C456 1.285 . S
C454 H474 0.929 . S
C455 C452 1.461 . S
C455 C454 1.474 . S
C456 C451 1.342 . S
C456 C454 1.285 . S
C456 H475 0.930 . S
C457 C460 1.424 . S
C457 C462 1.245 . S
C457 C463 1.428 . S
C458 C461 1.260 . S
C458 C462 1.477 . S
C458 H476 0.932 . S
C459 C460 1.384 . S
C459 C461 1.479 . S
C459 H477 0.929 . S
C460 C457 1.424 . S
C460 C459 1.384 . S
C460 H478 0.928 . S
C461 C458 1.260 . S
C461 C459 1.479 . S
C462 C457 1.245 . S
C462 C458 1.477 . S
C462 H479 0.932 . S
C463 U446 2.882 . S
C463 C457 1.428 . S
C463 O466 1.301 . S
C463 O467 1.282 . S
O464 U446 2.441 . S
O464 C450 1.249 . S
O465 U446 2.420 . S
O465 C450 1.202 . S
O466 U446 2.455 . S
O466 C463 1.301 . S
O467 U446 2.449 . S
O467 C463 1.282 . S
H468 C441 0.931 . S
H469 C443 0.929 . S
H470 C444 0.885 1_554 S
H471 C445 0.931 . S
H472 C452 0.932 1_554 S
H473 C453 0.930 . S
H474 C454 0.929 . S
H475 C456 0.930 . S
H476 C458 0.932 . S
H477 C459 0.929 . S
H478 C460 0.928 . S
H479 C462 0.932 . S
C480 C481 1.264 . S
C480 C485 1.479 . S
C480 C490 1.465 . S
C481 C480 1.264 . S
C481 C483 1.339 . S
C481 H508 0.931 . S
C482 C483 1.395 . S
C482 C484 1.320 . S
C483 C481 1.339 . S
C483 C482 1.395 . S
C483 H509 0.929 . S
C484 C482 1.320 . S
C484 C485 1.405 . S
C484 H510 0.930 . S
C485 C480 1.479 . S
C485 C484 1.405 . S
C485 H511 0.931 . S
U486 O487 2.454 . S
U486 O488 2.458 . S
U486 C489 2.984 . S
U486 C490 2.847 . S
U486 C503 2.882 . S
U486 O504 2.441 . S
U486 O505 2.420 . S
U486 O506 2.455 . S
U486 O507 2.449 . S
O487 U486 2.454 . S
O487 C489 1.353 . S
O488 U486 2.458 . S
O488 C489 1.286 . S
C489 U486 2.984 . S
C489 O487 1.353 . S
C489 O488 1.286 . S
C489 C491 1.363 . S
C490 C480 1.465 . S
C490 U486 2.847 . S
C490 O504 1.249 . S
C490 O505 1.202 . S
C491 C489 1.363 . S
C491 C493 1.408 . S
C491 C496 1.342 . S
C492 C493 1.310 . S
C492 C495 1.461 . S
C492 H512 0.932 . S
C493 C491 1.408 . S
C493 C492 1.310 . S
C493 H513 0.930 . S
C494 C495 1.474 . S
C494 C496 1.285 . S
C494 H514 0.929 . S
C495 C492 1.461 . S
C495 C494 1.474 . S
C496 C491 1.342 . S
C496 C494 1.285 . S
C496 H515 0.930 . S
C497 C500 1.424 . S
C497 C502 1.245 . S
C497 C503 1.428 . S
C498 C501 1.260 . S
C498 C502 1.477 . S
C498 H516 0.932 . S
C499 C500 1.384 . S
C499 C501 1.479 . S
C499 H517 0.929 . S
C500 C497 1.424 . S
C500 C499 1.384 . S
C500 H518 0.928 . S
C501 C498 1.260 . S
C501 C499 1.479 . S
C502 C497 1.245 . S
C502 C498 1.477 . S
C502 H519 0.932 . S
C503 U486 2.882 . S
C503 C497 1.428 . S
C503 O506 1.301 . S
C503 O507 1.282 . S
O504 U486 2.441 . S
O504 C490 1.249 . S
O505 U486 2.420 . S
O505 C490 1.202 . S
O506 U486 2.455 . S
O506 C503 1.301 . S
O507 U486 2.449 . S
O507 C503 1.282 . S
H508 C481 0.931 . S
H509 C483 0.929 . S
H510 C484 0.930 . S
H511 C485 0.931 . S
H512 C492 0.932 . S
H513 C493 0.930 . S
H514 C494 0.929 . S
H515 C496 0.930 . S
H516 C498 0.932 . S
H517 C499 0.929 . S
H518 C500 0.928 . S
H519 C502 0.932 . S
C520 C521 1.264 . S
C520 C525 1.479 . S
C520 C530 1.465 . S
C521 C520 1.264 . S
C521 C523 1.339 . S
C521 H548 0.931 . S
C522 C523 1.395 . S
C522 C524 1.320 . S
C523 C521 1.339 . S
C523 C522 1.395 . S
C523 H549 0.929 . S
C524 C522 1.320 . S
C524 C525 1.405 . S
C524 H550 0.930 . S
C525 C520 1.479 . S
C525 C524 1.405 . S
C525 H551 0.931 . S
U526 O527 2.454 . S
U526 O528 2.458 . S
U526 C529 2.984 . S
U526 C530 2.847 . S
U526 C543 2.882 . S
U526 O544 2.441 . S
U526 O545 2.420 . S
U526 O546 2.455 . S
U526 O547 2.449 . S
O527 U526 2.454 . S
O527 C529 1.353 . S
O528 U526 2.458 . S
O528 C529 1.286 . S
C529 U526 2.984 . S
C529 O527 1.353 . S
C529 O528 1.286 . S
C529 C531 1.363 . S
C530 C520 1.465 . S
C530 U526 2.847 . S
C530 O544 1.249 . S
C530 O545 1.202 . S
C531 C529 1.363 . S
C531 C533 1.408 . S
C531 C536 1.342 . S
C532 C533 1.310 . S
C532 C535 1.461 . S
C532 H552 0.932 . S
C533 C531 1.408 . S
C533 C532 1.310 . S
C533 H553 0.930 . S
C534 C535 1.474 . S
C534 C536 1.285 . S
C534 H554 0.929 . S
C535 C532 1.461 . S
C535 C534 1.474 . S
C536 C531 1.342 . S
C536 C534 1.285 . S
C536 H555 0.930 . S
C537 C540 1.424 . S
C537 C542 1.245 . S
C537 C543 1.428 . S
C538 C541 1.260 . S
C538 C542 1.477 . S
C538 H556 0.932 . S
C539 C540 1.384 . S
C539 C541 1.479 . S
C539 H557 0.929 . S
C540 C537 1.424 . S
C540 C539 1.384 . S
C540 H558 0.928 . S
C541 C538 1.260 . S
C541 C539 1.479 . S
C542 C537 1.245 . S
C542 C538 1.477 . S
C542 H559 0.932 . S
C543 U526 2.882 . S
C543 C537 1.428 . S
C543 O546 1.301 . S
C543 O547 1.282 . S
O544 U526 2.441 . S
O544 C530 1.249 . S
O545 U526 2.420 . S
O545 C530 1.202 . S
O546 U526 2.455 . S
O546 C543 1.301 . S
O547 U526 2.449 . S
O547 C543 1.282 . S
H548 C521 0.931 . S
H549 C523 0.929 . S
H550 C524 0.930 . S
H551 C525 0.931 . S
H552 C532 0.932 . S
H553 C533 0.930 . S
H554 C534 0.929 . S
H555 C536 0.930 . S
H556 C538 0.932 . S
H557 C539 0.929 . S
H558 C540 0.928 . S
H559 C542 0.932 . S
C560 C561 1.264 . S
C560 C565 1.479 . S
C560 C570 1.465 . S
C561 C560 1.264 . S
C561 C563 1.339 . S
C561 H588 0.931 . S
C562 C563 1.395 . S
C562 C564 1.320 . S
C563 C561 1.339 . S
C563 C562 1.395 . S
C563 H589 0.929 . S
C564 C562 1.320 . S
C564 C565 1.405 . S
C564 H590 0.930 . S
C565 C560 1.479 . S
C565 C564 1.405 . S
C565 H591 0.931 . S
U566 O567 2.454 . S
U566 O568 2.458 . S
U566 C569 2.984 . S
U566 C570 2.847 . S
U566 C583 2.882 . S
U566 O584 2.441 . S
U566 O585 2.420 . S
U566 O586 2.455 . S
U566 O587 2.449 . S
O567 U566 2.454 . S
O567 C569 1.353 . S
O568 U566 2.458 . S
O568 C569 1.286 . S
C569 U566 2.984 . S
C569 O567 1.353 . S
C569 O568 1.286 . S
C569 C571 1.363 . S
C570 C560 1.465 . S
C570 U566 2.847 . S
C570 O584 1.249 . S
C570 O585 1.202 . S
C571 C569 1.363 . S
C571 C573 1.408 . S
C571 C576 1.342 . S
C572 C573 1.310 . S
C572 C575 1.461 . S
C572 H592 0.932 . S
C573 C571 1.408 . S
C573 C572 1.310 . S
C573 H593 0.930 . S
C574 C575 1.474 . S
C574 C576 1.285 . S
C574 H594 0.929 . S
C575 C572 1.461 . S
C575 C574 1.474 . S
C576 C571 1.342 . S
C576 C574 1.285 . S
C576 H595 0.930 . S
C577 C580 1.424 . S
C577 C582 1.245 . S
C577 C583 1.428 . S
C578 C581 1.260 . S
C578 C582 1.477 . S
C578 H596 0.932 . S
C579 C580 1.384 . S
C579 C581 1.479 . S
C579 H597 0.929 . S
C580 C577 1.424 . S
C580 C579 1.384 . S
C580 H598 0.928 . S
C581 C578 1.260 . S
C581 C579 1.479 . S
C582 C577 1.245 . S
C582 C578 1.477 . S
C582 H599 0.932 . S
C583 U566 2.882 . S
C583 C577 1.428 . S
C583 O586 1.301 . S
C583 O587 1.282 . S
O584 U566 2.441 . S
O584 C570 1.249 . S
O585 U566 2.420 . S
O585 C570 1.202 . S
O586 U566 2.455 . S
O586 C583 1.301 . S
O587 U566 2.449 . S
O587 C583 1.282 . S
H588 C561 0.931 . S
H589 C563 0.929 . S
H590 C564 0.930 . S
H591 C565 0.931 . S
H592 C572 0.932 . S
H593 C573 0.930 . S
H594 C574 0.929 . S
H595 C576 0.930 . S
H596 C578 0.932 . S
H597 C579 0.929 . S
H598 C580 0.928 . S
H599 C582 0.932 . S
C600 C601 1.264 . S
C600 C605 1.479 . S
C600 C610 1.465 . S
C601 C600 1.264 . S
C601 C603 1.339 . S
C601 H628 0.931 . S
C602 C603 1.395 . S
C602 C604 1.320 . S
C603 C601 1.339 . S
C603 C602 1.395 . S
C603 H629 0.929 . S
C604 C602 1.320 . S
C604 C605 1.405 . S
C604 H630 0.930 . S
C605 C600 1.479 . S
C605 C604 1.405 . S
C605 H631 0.931 . S
U606 O607 2.454 . S
U606 O608 2.458 . S
U606 C609 2.984 . S
U606 C610 2.847 . S
U606 C623 2.882 . S
U606 O624 2.441 . S
U606 O625 2.420 . S
U606 O626 2.455 . S
U606 O627 2.449 . S
O607 U606 2.454 . S
O607 C609 1.353 . S
O608 U606 2.458 . S
O608 C609 1.286 . S
C609 U606 2.984 . S
C609 O607 1.353 . S
C609 O608 1.286 . S
C609 C611 1.363 . S
C610 C600 1.465 . S
C610 U606 2.847 . S
C610 O624 1.249 . S
C610 O625 1.202 . S
C611 C609 1.363 . S
C611 C613 1.408 . S
C611 C616 1.342 . S
C612 C613 1.310 . S
C612 C615 1.461 . S
C612 H632 0.932 . S
C613 C611 1.408 . S
C613 C612 1.310 . S
C613 H633 0.930 . S
C614 C615 1.474 . S
C614 C616 1.285 . S
C614 H634 0.929 . S
C615 C612 1.461 . S
C615 C614 1.474 . S
C616 C611 1.342 . S
C616 C614 1.285 . S
C616 H635 0.930 . S
C617 C620 1.424 . S
C617 C622 1.245 . S
C617 C623 1.428 . S
C618 C621 1.260 . S
C618 C622 1.477 . S
C618 H636 0.932 . S
C619 C620 1.384 . S
C619 C621 1.479 . S
C619 H637 0.929 . S
C620 C617 1.424 . S
C620 C619 1.384 . S
C620 H638 0.928 . S
C621 C618 1.260 . S
C621 C619 1.479 . S
C622 C617 1.245 . S
C622 C618 1.477 . S
C622 H639 0.932 . S
C623 U606 2.882 . S
C623 C617 1.428 . S
C623 O626 1.301 . S
C623 O627 1.282 . S
O624 U606 2.441 . S
O624 C610 1.249 . S
O625 U606 2.420 . S
O625 C610 1.202 . S
O626 U606 2.455 . S
O626 C623 1.301 . S
O627 U606 2.449 . S
O627 C623 1.282 . S
H628 C601 0.931 . S
H629 C603 0.929 . S
H630 C604 0.930 . S
H631 C605 0.931 . S
H632 C612 0.932 . S
H633 C613 0.930 . S
H634 C614 0.929 . S
H635 C616 0.930 . S
H636 C618 0.932 . S
H637 C619 0.929 . S
H638 C620 0.928 . S
H639 C622 0.932 . S
C640 C641 1.264 . S
C640 C645 1.479 . S
C640 C650 1.465 . S
C641 C640 1.264 . S
C641 C643 1.339 . S
C641 H668 0.931 . S
C642 C643 1.395 . S
C642 C644 1.320 . S
C643 C641 1.339 . S
C643 C642 1.395 . S
C643 H669 0.929 . S
C644 C642 1.320 . S
C644 C645 1.405 . S
C644 H670 0.930 . S
C645 C640 1.479 . S
C645 C644 1.405 . S
C645 H671 0.931 . S
U646 O647 2.454 . S
U646 O648 2.458 . S
U646 C649 2.984 . S
U646 C650 2.847 . S
U646 C663 2.882 . S
U646 O664 2.441 . S
U646 O665 2.420 . S
U646 O666 2.455 . S
U646 O667 2.449 . S
O647 U646 2.454 . S
O647 C649 1.353 . S
O648 U646 2.458 . S
O648 C649 1.286 . S
C649 U646 2.984 . S
C649 O647 1.353 . S
C649 O648 1.286 . S
C649 C651 1.363 . S
C650 C640 1.465 . S
C650 U646 2.847 . S
C650 O664 1.249 . S
C650 O665 1.202 . S
C651 C649 1.363 . S
C651 C653 1.408 . S
C651 C656 1.342 . S
C652 C653 1.310 . S
C652 C655 1.461 . S
C652 H672 0.932 . S
C653 C651 1.408 . S
C653 C652 1.310 . S
C653 H673 0.930 . S
C654 C655 1.474 . S
C654 C656 1.285 . S
C654 H674 0.929 . S
C655 C652 1.461 . S
C655 C654 1.474 . S
C656 C651 1.342 . S
C656 C654 1.285 . S
C656 H675 0.930 . S
C657 C660 1.424 . S
C657 C662 1.245 . S
C657 C663 1.428 . S
C658 C661 1.260 . S
C658 C662 1.477 . S
C658 H676 0.932 . S
C659 C660 1.384 . S
C659 C661 1.479 . S
C659 H677 0.929 . S
C660 C657 1.424 . S
C660 C659 1.384 . S
C660 H678 0.928 . S
C661 C658 1.260 . S
C661 C659 1.479 . S
C662 C657 1.245 . S
C662 C658 1.477 . S
C662 H679 0.932 . S
C663 U646 2.882 . S
C663 C657 1.428 . S
C663 O666 1.301 . S
C663 O667 1.282 . S
O664 U646 2.441 . S
O664 C650 1.249 . S
O665 U646 2.420 . S
O665 C650 1.202 . S
O666 U646 2.455 . S
O666 C663 1.301 . S
O667 U646 2.449 . S
O667 C663 1.282 . S
H668 C641 0.931 . S
H669 C643 0.929 . S
H670 C644 0.930 . S
H671 C645 0.931 . S
H672 C652 0.932 . S
H673 C653 0.930 . S
H674 C654 0.929 . S
H675 C656 0.930 . S
H676 C658 0.932 . S
H677 C659 0.929 . S
H678 C660 0.928 . S
H679 C662 0.932 . S
C680 C681 1.264 . S
C680 C685 1.479 . S
C680 C690 1.465 . S
C681 C680 1.264 . S
C681 C683 1.339 . S
C681 H708 0.931 . S
C682 C683 1.395 . S
C682 C684 1.320 . S
C683 C681 1.339 . S
C683 C682 1.395 . S
C683 H709 0.929 . S
C684 C682 1.320 . S
C684 C685 1.405 . S
C684 H710 0.930 . S
C685 C680 1.479 . S
C685 C684 1.405 . S
C685 H711 0.931 . S
U686 O687 2.454 . S
U686 O688 2.458 . S
U686 C689 2.984 . S
U686 C690 2.847 . S
U686 C703 2.882 . S
U686 O704 2.441 . S
U686 O705 2.420 . S
U686 O706 2.455 . S
U686 O707 2.449 . S
O687 U686 2.454 . S
O687 C689 1.353 . S
O688 U686 2.458 . S
O688 C689 1.286 . S
C689 U686 2.984 . S
C689 O687 1.353 . S
C689 O688 1.286 . S
C689 C691 1.363 . S
C690 C680 1.465 . S
C690 U686 2.847 . S
C690 O704 1.249 . S
C690 O705 1.202 . S
C691 C689 1.363 . S
C691 C693 1.408 . S
C691 C696 1.342 . S
C692 C693 1.310 . S
C692 C695 1.461 . S
C692 H712 0.932 . S
C693 C691 1.408 . S
C693 C692 1.310 . S
C693 H713 0.930 . S
C694 C695 1.474 . S
C694 C696 1.285 . S
C694 H714 0.929 . S
C695 C692 1.461 . S
C695 C694 1.474 . S
C696 C691 1.342 . S
C696 C694 1.285 . S
C696 H715 0.930 . S
C697 C700 1.424 . S
C697 C702 1.245 . S
C697 C703 1.428 . S
C698 C701 1.260 . S
C698 C702 1.477 . S
C698 H716 0.932 . S
C699 C700 1.384 . S
C699 C701 1.479 . S
C699 H717 0.929 . S
C700 C697 1.424 . S
C700 C699 1.384 . S
C700 H718 0.928 . S
C701 C698 1.260 . S
C701 C699 1.479 . S
C702 C697 1.245 . S
C702 C698 1.477 . S
C702 H719 0.932 . S
C703 U686 2.882 . S
C703 C697 1.428 . S
C703 O706 1.301 . S
C703 O707 1.282 . S
O704 U686 2.441 . S
O704 C690 1.249 . S
O705 U686 2.420 . S
O705 C690 1.202 . S
O706 U686 2.455 . S
O706 C703 1.301 . S
O707 U686 2.449 . S
O707 C703 1.282 . S
H708 C681 0.931 . S
H709 C683 0.929 . S
H710 C684 0.930 . S
H711 C685 0.931 . S
H712 C692 0.932 . S
H713 C693 0.930 . S
H714 C694 0.929 . S
H715 C696 0.930 . S
H716 C698 0.932 . S
H717 C699 0.929 . S
H718 C700 0.928 . S
H719 C702 0.932 . S
O720 Mg721 1.990 . S
O720 C734 1.253 1_565 S
Mg721 O720 1.990 . S
Mg721 O724 2.180 1_556 S
Mg721 O725 2.117 . S
Mg721 O739 2.030 1_565 S
O722 Mg723 2.072 1_556 S
O722 C734 1.260 . S
Mg723 O722 2.072 1_554 S
Mg723 O724 2.099 1_545 S
Mg723 O726 2.079 . S
Mg723 O727 2.072 1_545 S
Mg723 O729 2.099 . S
Mg723 O740 2.079 . S
O724 Mg721 2.180 1_554 S
O724 Mg723 2.099 1_565 S
O724 C735 1.279 . S
O725 Mg721 2.117 . S
O725 C735 1.250 1_556 S
O726 Mg723 2.079 . S
O726 C736 1.264 . S
O727 Mg723 2.072 1_565 S
O727 C737 1.260 . S
Mg728 O729 2.180 . S
Mg728 O730 2.056 . S
Mg728 O731 1.990 1_545 S
Mg728 O732 2.117 . S
O729 Mg723 2.099 . S
O729 Mg728 2.180 . S
O729 C738 1.279 . S
O730 Mg728 2.056 . S
O730 C736 1.230 . S
O731 Mg728 1.990 1_565 S
O731 C737 1.253 . S
O732 Mg728 2.117 . S
O732 C738 1.250 . S
C733 O739 1.248 . S
C733 O740 1.264 1_556 S
C734 O720 1.253 1_545 S
C734 O722 1.260 . S
C735 O724 1.279 . S
C735 O725 1.250 1_554 S
C736 O726 1.264 . S
C736 O730 1.230 . S
C737 O727 1.260 . S
C737 O731 1.253 . S
C738 O729 1.279 . S
C738 O732 1.250 . S
O739 Mg721 2.030 1_545 S
O739 C733 1.248 . S
O740 Mg723 2.079 . S
O740 C733 1.264 1_554 S
O741 Mg742 1.990 . S
O741 C755 1.251 . S
Mg742 O741 1.990 . S
Mg742 O745 2.180 1_556 S
Mg742 O746 2.117 . S
Mg742 O760 2.030 1_455 S
O743 Mg744 2.072 1_556 S
O743 C755 1.265 1_655 S
Mg744 O743 2.072 1_554 S
Mg744 O745 2.097 1_655 S
Mg744 O747 2.081 . S
Mg744 O748 2.046 1_655 S
Mg744 O750 2.102 . S
Mg744 O761 2.105 . S
O745 Mg742 2.180 1_554 S
O745 Mg744 2.097 1_455 S
O745 C756 1.279 . S
O746 Mg742 2.117 . S
O746 C756 1.250 1_556 S
O747 Mg744 2.081 . S
O747 C757 1.264 1_655 S
O748 Mg744 2.046 1_455 S
O748 C758 1.260 . S
Mg749 O750 2.180 . S
Mg749 O751 2.030 1_655 S
Mg749 O752 1.990 1_655 S
Mg749 O753 2.117 . S
O750 Mg744 2.102 . S
O750 Mg749 2.180 . S
O750 C759 1.279 . S
O751 Mg749 2.030 1_455 S
O751 C757 1.248 . S
O752 Mg749 1.990 1_455 S
O752 C758 1.253 . S
O753 Mg749 2.117 . S
O753 C759 1.250 . S
C754 O760 1.248 . S
C754 O761 1.264 1_556 S
C755 O741 1.251 . S
C755 O743 1.265 1_455 S
C756 O745 1.279 . S
C756 O746 1.250 1_554 S
C757 O747 1.264 1_455 S
C757 O751 1.248 . S
C758 O748 1.260 . S
C758 O752 1.253 . S
C759 O750 1.279 . S
C759 O753 1.250 . S
O760 Mg742 2.030 1_655 S
O760 C754 1.248 . S
O761 Mg744 2.105 . S
O761 C754 1.264 1_554 S
O762 Mg763 1.990 . S
O762 C776 1.253 . S
Mg763 O762 1.990 . S
Mg763 O766 2.180 . S
Mg763 O767 2.117 . S
Mg763 O781 2.030 . S
O764 Mg765 2.078 1_554 S
O764 C776 1.260 . S
Mg765 O764 2.078 1_556 S
Mg765 O766 2.099 1_556 S
Mg765 O768 2.073 . S
Mg765 O769 2.072 . S
Mg765 O771 2.098 . S
Mg765 O782 2.078 1_556 S
O766 Mg763 2.180 . S
O766 Mg765 2.099 1_554 S
O766 C777 1.279 . S
O767 Mg763 2.117 . S
O767 C777 1.250 . S
O768 Mg765 2.073 . S
O768 C778 1.264 . S
O769 Mg765 2.072 . S
O769 C779 1.260 . S
Mg770 O771 2.180 . S
Mg770 O772 2.030 . S
Mg770 O773 1.990 . S
Mg770 O774 2.150 . S
O771 Mg765 2.098 . S
O771 Mg770 2.180 . S
O771 C780 1.279 1_556 S
O772 Mg770 2.030 . S
O772 C778 1.248 . S
O773 Mg770 1.990 . S
O773 C779 1.253 . S
O774 Mg770 2.150 . S
O774 C780 1.238 1_556 S
C775 O781 1.248 . S
C775 O782 1.290 . S
C776 O762 1.253 . S
C776 O764 1.260 . S
C777 O766 1.279 . S
C777 O767 1.250 . S
C778 O768 1.264 . S
C778 O772 1.248 . S
C779 O769 1.260 . S
C779 O773 1.253 . S
C780 O771 1.279 1_554 S
C780 O774 1.238 1_554 S
O781 Mg763 2.030 . S
O781 C775 1.248 . S
O782 Mg765 2.078 1_554 S
O782 C775 1.290 . S
O783 Mg784 1.990 . S
O783 C797 1.253 . S
Mg784 O783 1.990 . S
Mg784 O787 2.180 . S
Mg784 O788 2.117 . S
Mg784 O802 2.030 . S
O785 Mg786 2.072 . S
O785 C797 1.260 . S
Mg786 O785 2.072 . S
Mg786 O787 2.099 . S
Mg786 O789 2.079 . S
Mg786 O790 2.072 . S
Mg786 O792 2.099 . S
Mg786 O803 2.079 . S
O787 Mg784 2.180 . S
O787 Mg786 2.099 . S
O787 C798 1.279 . S
O788 Mg784 2.117 . S
O788 C798 1.250 . S
O789 Mg786 2.079 . S
O789 C799 1.264 . S
O790 Mg786 2.072 . S
O790 C800 1.260 . S
Mg791 O792 2.180 . S
Mg791 O793 2.030 . S
Mg791 O794 1.990 . S
Mg791 O795 2.117 . S
O792 Mg786 2.099 . S
O792 Mg791 2.180 . S
O792 C801 1.279 . S
O793 Mg791 2.030 . S
O793 C799 1.248 . S
O794 Mg791 1.990 . S
O794 C800 1.253 . S
O795 Mg791 2.117 . S
O795 C801 1.250 . S
C796 O802 1.248 . S
C796 O803 1.264 . S
C797 O783 1.253 . S
C797 O785 1.260 . S
C798 O787 1.279 . S
C798 O788 1.250 . S
C799 O789 1.264 . S
C799 O793 1.248 . S
C800 O790 1.260 . S
C800 O794 1.253 . S
C801 O792 1.279 . S
C801 O795 1.250 . S
O802 Mg784 2.030 . S
O802 C796 1.248 . S
O803 Mg786 2.079 . S
O803 C796 1.264 . S
O804 Mg805 1.990 . S
O804 C818 1.253 . S
Mg805 O804 1.990 . S
Mg805 O808 2.180 . S
Mg805 O809 2.117 . S
Mg805 O823 2.030 . S
O806 Mg807 2.072 . S
O806 C818 1.260 . S
Mg807 O806 2.072 . S
Mg807 O808 2.099 . S
Mg807 O810 2.079 . S
Mg807 O811 2.072 . S
Mg807 O813 2.099 . S
Mg807 O824 2.079 . S
O808 Mg805 2.180 . S
O808 Mg807 2.099 . S
O808 C819 1.279 . S
O809 Mg805 2.117 . S
O809 C819 1.250 . S
O810 Mg807 2.079 . S
O810 C820 1.264 . S
O811 Mg807 2.072 . S
O811 C821 1.260 . S
Mg812 O813 2.180 . S
Mg812 O814 2.030 . S
Mg812 O815 1.990 . S
Mg812 O816 2.117 . S
O813 Mg807 2.099 . S
O813 Mg812 2.180 . S
O813 C822 1.279 . S
O814 Mg812 2.030 . S
O814 C820 1.248 . S
O815 Mg812 1.990 . S
O815 C821 1.253 . S
O816 Mg812 2.117 . S
O816 C822 1.250 . S
C817 O823 1.248 . S
C817 O824 1.264 . S
C818 O804 1.253 . S
C818 O806 1.260 . S
C819 O808 1.279 . S
C819 O809 1.250 . S
C820 O810 1.264 . S
C820 O814 1.248 . S
C821 O811 1.260 . S
C821 O815 1.253 . S
C822 O813 1.279 . S
C822 O816 1.250 . S
O823 Mg805 2.030 . S
O823 C817 1.248 . S
O824 Mg807 2.079 . S
O824 C817 1.264 . S
O825 Mg826 1.990 . S
O825 C839 1.253 . S
Mg826 O825 1.990 . S
Mg826 O829 2.180 . S
Mg826 O830 2.117 . S
Mg826 O844 2.030 . S
O827 Mg828 2.072 . S
O827 C839 1.260 . S
Mg828 O827 2.072 . S
Mg828 O829 2.099 . S
Mg828 O831 2.079 . S
Mg828 O832 2.072 . S
Mg828 O834 2.099 . S
Mg828 O845 2.079 . S
O829 Mg826 2.180 . S
O829 Mg828 2.099 . S
O829 C840 1.279 . S
O830 Mg826 2.117 . S
O830 C840 1.250 . S
O831 Mg828 2.079 . S
O831 C841 1.264 . S
O832 Mg828 2.072 . S
O832 C842 1.260 . S
Mg833 O834 2.180 . S
Mg833 O835 2.030 . S
Mg833 O836 1.990 . S
Mg833 O837 2.117 . S
O834 Mg828 2.099 . S
O834 Mg833 2.180 . S
O834 C843 1.279 . S
O835 Mg833 2.030 . S
O835 C841 1.248 . S
O836 Mg833 1.990 . S
O836 C842 1.253 . S
O837 Mg833 2.117 . S
O837 C843 1.250 . S
C838 O844 1.248 . S
C838 O845 1.264 . S
C839 O825 1.253 . S
C839 O827 1.260 . S
C840 O829 1.279 . S
C840 O830 1.250 . S
C841 O831 1.264 . S
C841 O835 1.248 . S
C842 O832 1.260 . S
C842 O836 1.253 . S
C843 O834 1.279 . S
C843 O837 1.250 . S
O844 Mg826 2.030 . S
O844 C838 1.248 . S
O845 Mg828 2.079 . S
O845 C838 1.264 . S
O846 Mg847 1.990 . S
O846 C860 1.253 . S
Mg847 O846 1.990 . S
Mg847 O850 2.180 . S
Mg847 O851 2.117 . S
Mg847 O865 2.030 . S
O848 Mg849 2.072 . S
O848 C860 1.260 . S
Mg849 O848 2.072 . S
Mg849 O850 2.099 . S
Mg849 O852 2.079 . S
Mg849 O853 2.072 . S
Mg849 O855 2.099 . S
Mg849 O866 2.079 . S
O850 Mg847 2.180 . S
O850 Mg849 2.099 . S
O850 C861 1.279 . S
O851 Mg847 2.117 . S
O851 C861 1.250 . S
O852 Mg849 2.079 . S
O852 C862 1.264 . S
O853 Mg849 2.072 . S
O853 C863 1.260 . S
Mg854 O855 2.180 . S
Mg854 O856 2.030 . S
Mg854 O857 1.990 . S
Mg854 O858 2.117 . S
O855 Mg849 2.099 . S
O855 Mg854 2.180 . S
O855 C864 1.279 . S
O856 Mg854 2.030 . S
O856 C862 1.248 . S
O857 Mg854 1.990 . S
O857 C863 1.253 . S
O858 Mg854 2.117 . S
O858 C864 1.250 . S
C859 O865 1.248 . S
C859 O866 1.264 . S
C860 O846 1.253 . S
C860 O848 1.260 . S
C861 O850 1.279 . S
C861 O851 1.250 . S
C862 O852 1.264 . S
C862 O856 1.248 . S
C863 O853 1.260 . S
C863 O857 1.253 . S
C864 O855 1.279 . S
C864 O858 1.250 . S
O865 Mg847 2.030 . S
O865 C859 1.248 . S
O866 Mg849 2.079 . S
O866 C859 1.264 . S
O867 Mg868 1.990 . S
O867 C881 1.253 . S
Mg868 O867 1.990 . S
Mg868 O871 2.180 . S
Mg868 O872 2.117 . S
Mg868 O886 2.030 . S
O869 Mg870 2.072 . S
O869 C881 1.260 . S
Mg870 O869 2.072 . S
Mg870 O871 2.099 . S
Mg870 O873 2.079 . S
Mg870 O874 2.072 . S
Mg870 O876 2.099 . S
Mg870 O887 2.079 . S
O871 Mg868 2.180 . S
O871 Mg870 2.099 . S
O871 C882 1.279 . S
O872 Mg868 2.117 . S
O872 C882 1.250 . S
O873 Mg870 2.079 . S
O873 C883 1.264 . S
O874 Mg870 2.072 . S
O874 C884 1.260 . S
Mg875 O876 2.180 . S
Mg875 O877 2.030 . S
Mg875 O878 1.990 . S
Mg875 O879 2.117 . S
O876 Mg870 2.099 . S
O876 Mg875 2.180 . S
O876 C885 1.279 . S
O877 Mg875 2.030 . S
O877 C883 1.248 . S
O878 Mg875 1.990 . S
O878 C884 1.253 . S
O879 Mg875 2.117 . S
O879 C885 1.250 . S
C880 O886 1.248 . S
C880 O887 1.264 . S
C881 O867 1.253 . S
C881 O869 1.260 . S
C882 O871 1.279 . S
C882 O872 1.250 . S
C883 O873 1.264 . S
C883 O877 1.248 . S
C884 O874 1.260 . S
C884 O878 1.253 . S
C885 O876 1.279 . S
C885 O879 1.250 . S
O886 Mg868 2.030 . S
O886 C880 1.248 . S
O887 Mg870 2.079 . S
O887 C880 1.264 . S
O888 Mg889 1.990 . S
O888 C902 1.253 . S
Mg889 O888 1.990 . S
Mg889 O892 2.180 . S
Mg889 O893 2.117 . S
Mg889 O907 2.030 . S
O890 Mg891 2.072 . S
O890 C902 1.260 . S
Mg891 O890 2.072 . S
Mg891 O892 2.099 . S
Mg891 O894 2.079 . S
Mg891 O895 2.072 . S
Mg891 O897 2.099 . S
Mg891 O908 2.079 . S
O892 Mg889 2.180 . S
O892 Mg891 2.099 . S
O892 C903 1.279 . S
O893 Mg889 2.117 . S
O893 C903 1.250 . S
O894 Mg891 2.079 . S
O894 C904 1.264 . S
O895 Mg891 2.072 . S
O895 C905 1.260 . S
Mg896 O897 2.180 . S
Mg896 O898 2.030 . S
Mg896 O899 1.990 . S
Mg896 O900 2.117 . S
O897 Mg891 2.099 . S
O897 Mg896 2.180 . S
O897 C906 1.279 . S
O898 Mg896 2.030 . S
O898 C904 1.248 . S
O899 Mg896 1.990 . S
O899 C905 1.253 . S
O900 Mg896 2.117 . S
O900 C906 1.250 . S
C901 O907 1.248 . S
C901 O908 1.264 . S
C902 O888 1.253 . S
C902 O890 1.260 . S
C903 O892 1.279 . S
C903 O893 1.250 . S
C904 O894 1.264 . S
C904 O898 1.248 . S
C905 O895 1.260 . S
C905 O899 1.253 . S
C906 O897 1.279 . S
C906 O900 1.250 . S
O907 Mg889 2.030 . S
O907 C901 1.248 . S
O908 Mg891 2.079 . S
O908 C901 1.264 . S
C909 C910 1.391 . S
C909 C911 1.394 . S
C909 H925 0.931 . S
C910 C909 1.391 . S
C910 C914 1.376 . S
C911 C909 1.394 . S
C911 C912 1.369 . S
C911 C915 1.531 . S
C912 C911 1.369 . S
C912 C913 1.410 . S
C912 C920 1.503 . S
C913 C912 1.410 . S
C913 C914 1.392 . S
C913 C916 1.511 1_554 S
C914 C910 1.376 . S
C914 C913 1.392 . S
C914 H926 0.929 . S
C915 C911 1.531 . S
C915 H927 0.960 . S
C915 H928 0.962 . S
C915 H929 0.960 . S
C916 C913 1.511 1_556 S
C916 H930 0.961 . S
C916 H931 0.961 . S
C916 H932 0.944 1_556 S
C917 C918 1.370 . S
C917 C919 1.363 . S
C917 H933 0.931 1_554 S
C918 C917 1.370 . S
C918 C922 1.408 . S
C919 C917 1.363 . S
C919 C920 1.370 . S
C919 C923 1.524 1_554 S
C920 C912 1.503 . S
C920 C919 1.370 . S
C920 C921 1.403 . S
C921 C920 1.403 . S
C921 C922 1.404 . S
C921 C924 1.539 . S
C922 C918 1.408 . S
C922 C921 1.404 . S
C922 H934 0.930 . S
C923 C919 1.524 1_556 S
C923 H935 0.956 1_556 S
C923 H936 0.961 . S
C923 H937 0.961 . S
C924 C921 1.539 . S
C924 H938 0.958 . S
C924 H939 0.961 . S
C924 H940 0.960 . S
H925 C909 0.931 . S
H926 C914 0.929 . S
H927 C915 0.960 . S
H928 C915 0.962 . S
H929 C915 0.960 . S
H930 C916 0.961 . S
H931 C916 0.961 . S
H932 C916 0.944 1_554 S
H933 C917 0.931 1_556 S
H934 C922 0.930 . S
H935 C923 0.956 1_554 S
H936 C923 0.961 . S
H937 C923 0.961 . S
H938 C924 0.958 . S
H939 C924 0.961 . S
H940 C924 0.960 . S
C941 C942 1.391 . S
C941 C943 1.394 . S
C941 H957 0.931 . S
C942 C941 1.391 . S
C942 C946 1.376 . S
C943 C941 1.394 . S
C943 C944 1.369 . S
C943 C947 1.531 . S
C944 C943 1.369 . S
C944 C945 1.410 . S
C944 C952 1.503 . S
C945 C944 1.410 . S
C945 C946 1.392 . S
C945 C948 1.511 . S
C946 C942 1.376 . S
C946 C945 1.392 . S
C946 H958 0.929 . S
C947 C943 1.531 . S
C947 H959 0.960 1_554 S
C947 H960 0.962 . S
C947 H961 0.960 1_554 S
C948 C945 1.511 . S
C948 H962 0.961 . S
C948 H963 0.961 . S
C948 H964 0.961 . S
C949 C950 1.370 . S
C949 C951 1.363 . S
C949 H965 0.931 . S
C950 C949 1.370 . S
C950 C954 1.393 1_554 S
C951 C949 1.363 . S
C951 C952 1.370 . S
C951 C955 1.524 . S
C952 C944 1.503 . S
C952 C951 1.370 . S
C952 C953 1.428 . S
C953 C952 1.428 . S
C953 C954 1.402 1_554 S
C953 C956 1.516 1_554 S
C954 C950 1.393 1_556 S
C954 C953 1.402 1_556 S
C954 H966 0.945 . S
C955 C951 1.524 . S
C955 H967 0.956 . S
C955 H968 0.961 . S
C955 H969 0.961 . S
C956 C953 1.516 1_556 S
C956 H970 0.958 . S
C956 H971 0.961 . S
C956 H972 0.960 . S
H957 C941 0.931 . S
H958 C946 0.929 . S
H959 C947 0.960 1_556 S
H960 C947 0.962 . S
H961 C947 0.960 1_556 S
H962 C948 0.961 . S
H963 C948 0.961 . S
H964 C948 0.961 . S
H965 C949 0.931 . S
H966 C954 0.945 . S
H967 C955 0.956 . S
H968 C955 0.961 . S
H969 C955 0.961 . S
H970 C956 0.958 . S
H971 C956 0.961 . S
H972 C956 0.960 . S
C973 C974 1.391 . S
C973 C975 1.394 . S
C973 H989 0.931 1_554 S
C974 C973 1.391 . S
C974 C978 1.376 . S
C975 C973 1.394 . S
C975 C976 1.369 . S
C975 C979 1.531 1_554 S
C976 C975 1.369 . S
C976 C977 1.410 . S
C976 C984 1.503 . S
C977 C976 1.410 . S
C977 C978 1.392 . S
C977 C980 1.511 . S
C978 C974 1.376 . S
C978 C977 1.392 . S
C978 H990 0.929 . S
C979 C975 1.531 1_556 S
C979 H991 0.960 . S
C979 H992 0.962 . S
C979 H993 0.960 . S
C980 C977 1.511 . S
C980 H994 0.961 . S
C980 H995 0.961 . S
C980 H996 0.961 . S
C981 C982 1.370 . S
C981 C983 1.363 . S
C981 H997 0.931 . S
C982 C981 1.370 . S
C982 C986 1.382 1_554 S
C983 C981 1.363 . S
C983 C984 1.370 . S
C983 C987 1.524 . S
C984 C976 1.503 . S
C984 C983 1.370 . S
C984 C985 1.400 1_554 S
C985 C984 1.400 1_556 S
C985 C986 1.404 . S
C985 C988 1.541 . S
C986 C982 1.382 1_556 S
C986 C985 1.404 . S
C986 H998 0.957 . S
C987 C983 1.524 . S
C987 H999 0.956 . S
C987 H1000 0.961 . S
C987 H1001 0.961 . S
C988 C985 1.541 . S
C988 H1002 0.958 . S
C988 H1003 0.961 . S
C988 H1004 0.960 . S
H989 C973 0.931 1_556 S
H990 C978 0.929 . S
H991 C979 0.960 . S
H992 C979 0.962 . S
H993 C979 0.960 . S
H994 C980 0.961 . S
H995 C980 0.961 . S
H996 C980 0.961 . S
H997 C981 0.931 . S
H998 C986 0.957 . S
H999 C987 0.956 . S
H1000 C987 0.961 . S
H1001 C987 0.961 . S
H1002 C988 0.958 . S
H1003 C988 0.961 . S
H1004 C988 0.960 . S
C1005 C1006 1.391 . S
C1005 C1007 1.394 . S
C1005 H1021 0.931 . S
C1006 C1005 1.391 . S
C1006 C1010 1.376 . S
C1007 C1005 1.394 . S
C1007 C1008 1.369 . S
C1007 C1011 1.531 . S
C1008 C1007 1.369 . S
C1008 C1009 1.410 . S
C1008 C1016 1.503 . S
C1009 C1008 1.410 . S
C1009 C1010 1.392 . S
C1009 C1012 1.511 1_556 S
C1010 C1006 1.376 . S
C1010 C1009 1.392 . S
C1010 H1022 0.929 1_556 S
C1011 C1007 1.531 . S
C1011 H1023 0.960 . S
C1011 H1024 0.962 . S
C1011 H1025 0.960 . S
C1012 C1009 1.511 1_554 S
C1012 H1026 0.961 . S
C1012 H1027 0.961 . S
C1012 H1028 0.961 . S
C1013 C1014 1.370 1_554 S
C1013 C1015 1.363 . S
C1013 H1029 0.931 . S
C1014 C1013 1.370 1_556 S
C1014 C1018 1.408 . S
C1015 C1013 1.363 . S
C1015 C1016 1.370 1_554 S
C1015 C1019 1.524 . S
C1016 C1008 1.503 . S
C1016 C1015 1.370 1_556 S
C1016 C1017 1.403 . S
C1017 C1016 1.403 . S
C1017 C1018 1.404 . S
C1017 C1020 1.539 . S
C1018 C1014 1.408 . S
C1018 C1017 1.404 . S
C1018 H1030 0.930 . S
C1019 C1015 1.524 . S
C1019 H1031 0.956 . S
C1019 H1032 0.961 . S
C1019 H1033 0.961 . S
C1020 C1017 1.539 . S
C1020 H1034 0.958 . S
C1020 H1035 0.961 . S
C1020 H1036 0.960 . S
H1021 C1005 0.931 . S
H1022 C1010 0.929 1_554 S
H1023 C1011 0.960 . S
H1024 C1011 0.962 . S
H1025 C1011 0.960 . S
H1026 C1012 0.961 . S
H1027 C1012 0.961 . S
H1028 C1012 0.961 . S
H1029 C1013 0.931 . S
H1030 C1018 0.930 . S
H1031 C1019 0.956 . S
H1032 C1019 0.961 . S
H1033 C1019 0.961 . S
H1034 C1020 0.958 . S
H1035 C1020 0.961 . S
H1036 C1020 0.960 . S
C1037 C1038 1.391 . S
C1037 C1039 1.394 . S
C1037 H1053 0.931 . S
C1038 C1037 1.391 . S
C1038 C1042 1.376 . S
C1039 C1037 1.394 . S
C1039 C1040 1.369 . S
C1039 C1043 1.531 . S
C1040 C1039 1.369 . S
C1040 C1041 1.410 . S
C1040 C1048 1.503 . S
C1041 C1040 1.410 . S
C1041 C1042 1.392 . S
C1041 C1044 1.511 . S
C1042 C1038 1.376 . S
C1042 C1041 1.392 . S
C1042 H1054 0.929 . S
C1043 C1039 1.531 . S
C1043 H1055 0.960 . S
C1043 H1056 0.962 1_556 S
C1043 H1057 0.960 . S
C1044 C1041 1.511 . S
C1044 H1058 0.961 . S
C1044 H1059 0.961 . S
C1044 H1060 0.961 . S
C1045 C1046 1.370 1_554 S
C1045 C1047 1.363 . S
C1045 H1061 0.931 . S
C1046 C1045 1.370 1_556 S
C1046 C1050 1.408 . S
C1047 C1045 1.363 . S
C1047 C1048 1.370 1_554 S
C1047 C1051 1.524 . S
C1048 C1040 1.503 . S
C1048 C1047 1.370 1_556 S
C1048 C1049 1.403 . S
C1049 C1048 1.403 . S
C1049 C1050 1.404 . S
C1049 C1052 1.539 . S
C1050 C1046 1.408 . S
C1050 C1049 1.404 . S
C1050 H1062 0.930 . S
C1051 C1047 1.524 . S
C1051 H1063 0.956 . S
C1051 H1064 0.961 . S
C1051 H1065 0.961 . S
C1052 C1049 1.539 . S
C1052 H1066 0.958 . S
C1052 H1067 0.961 . S
C1052 H1068 0.960 . S
H1053 C1037 0.931 . S
H1054 C1042 0.929 . S
H1055 C1043 0.960 . S
H1056 C1043 0.962 1_554 S
H1057 C1043 0.960 . S
H1058 C1044 0.961 . S
H1059 C1044 0.961 . S
H1060 C1044 0.961 . S
H1061 C1045 0.931 . S
H1062 C1050 0.930 . S
H1063 C1051 0.956 . S
H1064 C1051 0.961 . S
H1065 C1051 0.961 . S
H1066 C1052 0.958 . S
H1067 C1052 0.961 . S
H1068 C1052 0.960 . S
C1069 C1070 1.391 . S
C1069 C1071 1.394 1_556 S
C1069 H1085 0.931 1_556 S
C1070 C1069 1.391 . S
C1070 C1074 1.376 . S
C1071 C1069 1.394 1_554 S
C1071 C1072 1.369 1_554 S
C1071 C1075 1.530 . S
C1072 C1071 1.369 1_556 S
C1072 C1073 1.410 . S
C1072 C1080 1.503 . S
C1073 C1072 1.410 . S
C1073 C1074 1.392 . S
C1073 C1076 1.511 . S
C1074 C1070 1.376 . S
C1074 C1073 1.392 . S
C1074 H1086 0.929 . S
C1075 C1071 1.530 . S
C1075 H1087 0.960 . S
C1075 H1088 0.962 1_554 S
C1075 H1089 0.960 . S
C1076 C1073 1.511 . S
C1076 H1090 0.961 . S
C1076 H1091 0.961 . S
C1076 H1092 0.961 . S
C1077 C1078 1.370 . S
C1077 C1079 1.363 . S
C1077 H1093 0.931 . S
C1078 C1077 1.370 . S
C1078 C1082 1.408 1_556 S
C1079 C1077 1.363 . S
C1079 C1080 1.370 . S
C1079 C1083 1.524 . S
C1080 C1072 1.503 . S
C1080 C1079 1.370 . S
C1080 C1081 1.403 1_556 S
C1081 C1080 1.403 1_554 S
C1081 C1082 1.404 . S
C1081 C1084 1.539 . S
C1082 C1078 1.408 1_554 S
C1082 C1081 1.404 . S
C1082 H1094 0.930 . S
C1083 C1079 1.524 . S
C1083 H1095 0.956 . S
C1083 H1096 0.961 . S
C1083 H1097 0.961 . S
C1084 C1081 1.539 . S
C1084 H1098 0.958 . S
C1084 H1099 0.961 . S
C1084 H1100 0.960 . S
H1085 C1069 0.931 1_554 S
H1086 C1074 0.929 . S
H1087 C1075 0.960 . S
H1088 C1075 0.962 1_556 S
H1089 C1075 0.960 . S
H1090 C1076 0.961 . S
H1091 C1076 0.961 . S
H1092 C1076 0.961 . S
H1093 C1077 0.931 . S
H1094 C1082 0.930 . S
H1095 C1083 0.956 . S
H1096 C1083 0.961 . S
H1097 C1083 0.961 . S
H1098 C1084 0.958 . S
H1099 C1084 0.961 . S
H1100 C1084 0.960 . S
C1101 C1102 1.391 . S
C1101 C1103 1.394 . S
C1101 H1117 0.931 . S
C1102 C1101 1.391 . S
C1102 C1106 1.376 . S
C1103 C1101 1.394 . S
C1103 C1104 1.369 . S
C1103 C1107 1.531 . S
C1104 C1103 1.369 . S
C1104 C1105 1.445 . S
C1104 C1112 1.503 . S
C1105 C1104 1.445 . S
C1105 C1106 1.399 . S
C1105 C1108 1.472 1_556 S
C1106 C1102 1.376 . S
C1106 C1105 1.399 . S
C1106 H1118 0.929 1_556 S
C1107 C1103 1.531 . S
C1107 H1119 0.960 . S
C1107 H1120 0.962 . S
C1107 H1121 0.960 . S
C1108 C1105 1.472 1_554 S
C1108 H1122 0.961 . S
C1108 H1123 0.961 . S
C1108 H1124 0.961 . S
C1109 C1110 1.370 1_554 S
C1109 C1111 1.363 . S
C1109 H1125 0.931 . S
C1110 C1109 1.370 1_556 S
C1110 C1114 1.408 . S
C1111 C1109 1.363 . S
C1111 C1112 1.371 1_554 S
C1111 C1115 1.524 . S
C1112 C1104 1.503 . S
C1112 C1111 1.371 1_556 S
C1112 C1113 1.403 . S
C1113 C1112 1.403 . S
C1113 C1114 1.404 . S
C1113 C1116 1.539 . S
C1114 C1110 1.408 . S
C1114 C1113 1.404 . S
C1114 H1126 0.930 . S
C1115 C1111 1.524 . S
C1115 H1127 0.910 1_554 S
C1115 H1128 0.961 . S
C1115 H1129 0.961 . S
C1116 C1113 1.539 . S
C1116 H1130 0.958 . S
C1116 H1131 0.961 . S
C1116 H1132 0.960 . S
H1117 C1101 0.931 . S
H1118 C1106 0.929 1_554 S
H1119 C1107 0.960 . S
H1120 C1107 0.962 . S
H1121 C1107 0.960 . S
H1122 C1108 0.961 . S
H1123 C1108 0.961 . S
H1124 C1108 0.961 . S
H1125 C1109 0.931 . S
H1126 C1114 0.930 . S
H1127 C1115 0.910 1_556 S
H1128 C1115 0.961 . S
H1129 C1115 0.961 . S
H1130 C1116 0.958 . S
H1131 C1116 0.961 . S
H1132 C1116 0.960 . S
C1133 C1134 1.391 . S
C1133 C1135 1.394 . S
C1133 H1149 0.931 . S
C1134 C1133 1.391 . S
C1134 C1138 1.376 . S
C1135 C1133 1.394 . S
C1135 C1136 1.369 . S
C1135 C1139 1.531 . S
C1136 C1135 1.369 . S
C1136 C1137 1.410 . S
C1136 C1144 1.503 . S
C1137 C1136 1.410 . S
C1137 C1138 1.392 . S
C1137 C1140 1.511 . S
C1138 C1134 1.376 . S
C1138 C1137 1.392 . S
C1138 H1150 0.929 . S
C1139 C1135 1.531 . S
C1139 H1151 0.960 . S
C1139 H1152 0.962 1_556 S
C1139 H1153 0.960 . S
C1140 C1137 1.511 . S
C1140 H1154 0.961 . S
C1140 H1155 0.961 . S
C1140 H1156 0.961 . S
C1141 C1142 1.370 1_554 S
C1141 C1143 1.363 . S
C1141 H1157 0.931 . S
C1142 C1141 1.370 1_556 S
C1142 C1146 1.408 . S
C1143 C1141 1.363 . S
C1143 C1144 1.370 1_554 S
C1143 C1147 1.524 . S
C1144 C1136 1.503 . S
C1144 C1143 1.370 1_556 S
C1144 C1145 1.403 . S
C1145 C1144 1.403 . S
C1145 C1146 1.404 . S
C1145 C1148 1.539 . S
C1146 C1142 1.408 . S
C1146 C1145 1.404 . S
C1146 H1158 0.930 . S
C1147 C1143 1.524 . S
C1147 H1159 0.956 . S
C1147 H1160 0.961 . S
C1147 H1161 0.961 . S
C1148 C1145 1.539 . S
C1148 H1162 0.958 . S
C1148 H1163 0.961 . S
C1148 H1164 0.960 . S
H1149 C1133 0.931 . S
H1150 C1138 0.929 . S
H1151 C1139 0.960 . S
H1152 C1139 0.962 1_554 S
H1153 C1139 0.960 . S
H1154 C1140 0.961 . S
H1155 C1140 0.961 . S
H1156 C1140 0.961 . S
H1157 C1141 0.931 . S
H1158 C1146 0.930 . S
H1159 C1147 0.956 . S
H1160 C1147 0.961 . S
H1161 C1147 0.961 . S
H1162 C1148 0.958 . S
H1163 C1148 0.961 . S
H1164 C1148 0.960 . S
C1165 C1166 1.391 1_554 S
C1165 C1167 1.394 . S
C1165 H1181 0.931 . S
C1166 C1165 1.391 1_556 S
C1166 C1170 1.376 . S
C1167 C1165 1.394 . S
C1167 C1168 1.369 1_554 S
C1167 C1171 1.531 . S
C1168 C1167 1.369 1_556 S
C1168 C1169 1.410 . S
C1168 C1176 1.503 . S
C1169 C1168 1.410 . S
C1169 C1170 1.392 . S
C1169 C1172 1.511 . S
C1170 C1166 1.376 . S
C1170 C1169 1.392 . S
C1170 H1182 0.929 . S
C1171 C1167 1.531 . S
C1171 H1183 0.960 . S
C1171 H1184 0.962 . S
C1171 H1185 0.960 . S
C1172 C1169 1.511 . S
C1172 H1186 0.961 . S
C1172 H1187 0.961 . S
C1172 H1188 0.961 . S
C1173 C1174 1.370 . S
C1173 C1175 1.363 . S
C1173 H1189 0.931 . S
C1174 C1173 1.370 . S
C1174 C1178 1.408 1_556 S
C1175 C1173 1.363 . S
C1175 C1176 1.370 . S
C1175 C1179 1.524 . S
C1176 C1168 1.503 . S
C1176 C1175 1.370 . S
C1176 C1177 1.403 1_556 S
C1177 C1176 1.403 1_554 S
C1177 C1178 1.404 . S
C1177 C1180 1.539 . S
C1178 C1174 1.408 1_554 S
C1178 C1177 1.404 . S
C1178 H1190 0.930 . S
C1179 C1175 1.524 . S
C1179 H1191 0.956 . S
C1179 H1192 0.961 . S
C1179 H1193 0.961 . S
C1180 C1177 1.539 . S
C1180 H1194 0.958 . S
C1180 H1195 0.961 . S
C1180 H1196 0.960 . S
H1181 C1165 0.931 . S
H1182 C1170 0.929 . S
H1183 C1171 0.960 . S
H1184 C1171 0.962 . S
H1185 C1171 0.960 . S
H1186 C1172 0.961 . S
H1187 C1172 0.961 . S
H1188 C1172 0.961 . S
H1189 C1173 0.931 . S
H1190 C1178 0.930 . S
H1191 C1179 0.956 . S
H1192 C1179 0.961 . S
H1193 C1179 0.961 . S
H1194 C1180 0.958 . S
H1195 C1180 0.961 . S
H1196 C1180 0.960 . S
C1197 C1198 1.443 . S
C1197 C1199 1.389 1_554 S
C1197 H1213 0.885 1_554 S
C1198 C1197 1.443 . S
C1198 C1202 1.376 . S
C1199 C1197 1.389 1_556 S
C1199 C1200 1.329 1_556 S
C1199 C1203 1.576 . S
C1200 C1199 1.329 1_554 S
C1200 C1201 1.410 . S
C1200 C1208 1.503 . S
C1201 C1200 1.410 . S
C1201 C1202 1.392 . S
C1201 C1204 1.511 . S
C1202 C1198 1.376 . S
C1202 C1201 1.392 . S
C1202 H1214 0.929 . S
C1203 C1199 1.576 . S
C1203 H1215 0.960 . S
C1203 H1216 0.962 . S
C1203 H1217 0.960 . S
C1204 C1201 1.511 . S
C1204 H1218 0.961 . S
C1204 H1219 0.961 . S
C1204 H1220 0.961 . S
C1205 C1206 1.370 . S
C1205 C1207 1.363 . S
C1205 H1221 0.931 . S
C1206 C1205 1.370 . S
C1206 C1210 1.408 . S
C1207 C1205 1.363 . S
C1207 C1208 1.370 . S
C1207 C1211 1.524 . S
C1208 C1200 1.503 . S
C1208 C1207 1.370 . S
C1208 C1209 1.403 . S
C1209 C1208 1.403 . S
C1209 C1210 1.404 . S
C1209 C1212 1.539 . S
C1210 C1206 1.408 . S
C1210 C1209 1.404 . S
C1210 H1222 0.930 . S
C1211 C1207 1.524 . S
C1211 H1223 0.956 . S
C1211 H1224 0.961 . S
C1211 H1225 0.961 . S
C1212 C1209 1.539 . S
C1212 H1226 0.958 1_554 S
C1212 H1227 0.961 . S
C1212 H1228 0.960 . S
H1213 C1197 0.885 1_556 S
H1214 C1202 0.929 . S
H1215 C1203 0.960 . S
H1216 C1203 0.962 . S
H1217 C1203 0.960 . S
H1218 C1204 0.961 . S
H1219 C1204 0.961 . S
H1220 C1204 0.961 . S
H1221 C1205 0.931 . S
H1222 C1210 0.930 . S
H1223 C1211 0.956 . S
H1224 C1211 0.961 . S
H1225 C1211 0.961 . S
H1226 C1212 0.958 1_556 S
H1227 C1212 0.961 . S
H1228 C1212 0.960 . S
C1229 C1230 1.391 . S
C1229 C1231 1.394 . S
C1229 H1245 0.931 1_554 S
C1230 C1229 1.391 . S
C1230 C1234 1.376 . S
C1231 C1229 1.394 . S
C1231 C1232 1.369 . S
C1231 C1235 1.531 1_554 S
C1232 C1231 1.369 . S
C1232 C1233 1.410 . S
C1232 C1240 1.503 . S
C1233 C1232 1.410 . S
C1233 C1234 1.392 . S
C1233 C1236 1.511 . S
C1234 C1230 1.376 . S
C1234 C1233 1.392 . S
C1234 H1246 0.929 . S
C1235 C1231 1.531 1_556 S
C1235 H1247 0.960 . S
C1235 H1248 0.962 . S
C1235 H1249 0.960 . S
C1236 C1233 1.511 . S
C1236 H1250 0.961 . S
C1236 H1251 0.961 . S
C1236 H1252 0.961 . S
C1237 C1238 1.370 . S
C1237 C1239 1.363 . S
C1237 H1253 0.931 . S
C1238 C1237 1.370 . S
C1238 C1242 1.408 . S
C1239 C1237 1.363 . S
C1239 C1240 1.370 . S
C1239 C1243 1.524 . S
C1240 C1232 1.503 . S
C1240 C1239 1.370 . S
C1240 C1241 1.403 . S
C1241 C1240 1.403 . S
C1241 C1242 1.404 . S
C1241 C1244 1.539 1_554 S
C1242 C1238 1.408 . S
C1242 C1241 1.404 . S
C1242 H1254 0.930 1_554 S
C1243 C1239 1.524 . S
C1243 H1255 0.956 . S
C1243 H1256 0.961 . S
C1243 H1257 0.961 . S
C1244 C1241 1.539 1_556 S
C1244 H1258 0.958 . S
C1244 H1259 0.960 1_556 S
C1244 H1260 0.960 1_556 S
H1245 C1229 0.931 1_556 S
H1246 C1234 0.929 . S
H1247 C1235 0.960 . S
H1248 C1235 0.962 . S
H1249 C1235 0.960 . S
H1250 C1236 0.961 . S
H1251 C1236 0.961 . S
H1252 C1236 0.961 . S
H1253 C1237 0.931 . S
H1254 C1242 0.930 1_556 S
H1255 C1243 0.956 . S
H1256 C1243 0.961 . S
H1257 C1243 0.961 . S
H1258 C1244 0.958 . S
H1259 C1244 0.960 1_554 S
H1260 C1244 0.960 1_554 S
C1261 C1262 1.391 . S
C1261 C1263 1.394 . S
C1261 H1277 0.931 . S
C1262 C1261 1.391 . S
C1262 C1266 1.376 . S
C1263 C1261 1.394 . S
C1263 C1264 1.369 . S
C1263 C1267 1.531 . S
C1264 C1263 1.369 . S
C1264 C1265 1.410 . S
C1264 C1272 1.503 . S
C1265 C1264 1.410 . S
C1265 C1266 1.392 . S
C1265 C1268 1.511 . S
C1266 C1262 1.376 . S
C1266 C1265 1.392 . S
C1266 H1278 0.929 . S
C1267 C1263 1.531 . S
C1267 H1279 0.960 . S
C1267 H1280 0.962 . S
C1267 H1281 0.960 . S
C1268 C1265 1.511 . S
C1268 H1282 0.961 . S
C1268 H1283 0.961 . S
C1268 H1284 0.961 . S
C1269 C1270 1.370 1_556 S
C1269 C1271 1.361 1_556 S
C1269 H1285 0.931 . S
C1270 C1269 1.370 1_554 S
C1270 C1274 1.408 . S
C1271 C1269 1.361 1_554 S
C1271 C1272 1.380 . S
C1271 C1275 1.516 1_554 S
C1272 C1264 1.503 . S
C1272 C1271 1.380 . S
C1272 C1273 1.403 . S
C1273 C1272 1.403 . S
C1273 C1274 1.404 . S
C1273 C1276 1.539 . S
C1274 C1270 1.408 . S
C1274 C1273 1.404 . S
C1274 H1286 0.930 . S
C1275 C1271 1.516 1_556 S
C1275 H1287 0.956 . S
C1275 H1288 0.961 . S
C1275 H1289 0.961 . S
C1276 C1273 1.539 . S
C1276 H1290 0.958 . S
C1276 H1291 0.961 . S
C1276 H1292 0.960 . S
H1277 C1261 0.931 . S
H1278 C1266 0.929 . S
H1279 C1267 0.960 . S
H1280 C1267 0.962 . S
H1281 C1267 0.960 . S
H1282 C1268 0.961 . S
H1283 C1268 0.961 . S
H1284 C1268 0.961 . S
H1285 C1269 0.931 . S
H1286 C1274 0.930 . S
H1287 C1275 0.956 . S
H1288 C1275 0.961 . S
H1289 C1275 0.961 . S
H1290 C1276 0.958 . S
H1291 C1276 0.961 . S
H1292 C1276 0.960 . S
C1293 C1294 1.391 1_455 S
C1293 C1295 1.394 . S
C1293 H1309 0.931 1_455 S
C1294 C1293 1.391 1_655 S
C1294 C1298 1.376 1_655 S
C1295 C1293 1.394 . S
C1295 C1296 1.369 . S
C1295 C1299 1.531 . S
C1296 C1295 1.369 . S
C1296 C1297 1.410 . S
C1296 C1304 1.503 . S
C1297 C1296 1.410 . S
C1297 C1298 1.392 . S
C1297 C1300 1.511 . S
C1298 C1294 1.376 1_455 S
C1298 C1297 1.392 . S
C1298 H1310 0.932 1_455 S
C1299 C1295 1.531 . S
C1299 H1311 0.960 . S
C1299 H1312 0.962 . S
C1299 H1313 0.960 . S
C1300 C1297 1.511 . S
C1300 H1314 0.961 . S
C1300 H1315 0.961 . S
C1300 H1316 0.961 . S
C1301 C1302 1.370 . S
C1301 C1303 1.363 . S
C1301 H1317 0.931 . S
C1302 C1301 1.370 . S
C1302 C1306 1.408 . S
C1303 C1301 1.363 . S
C1303 C1304 1.370 . S
C1303 C1307 1.524 . S
C1304 C1296 1.503 . S
C1304 C1303 1.370 . S
C1304 C1305 1.403 . S
C1305 C1304 1.403 . S
C1305 C1306 1.404 . S
C1305 C1308 1.539 . S
C1306 C1302 1.408 . S
C1306 C1305 1.404 . S
C1306 H1318 0.930 . S
C1307 C1303 1.524 . S
C1307 H1319 0.956 . S
C1307 H1320 0.961 . S
C1307 H1321 0.961 . S
C1308 C1305 1.539 . S
C1308 H1322 0.958 . S
C1308 H1323 0.961 . S
C1308 H1324 0.960 . S
H1309 C1293 0.931 1_655 S
H1310 C1298 0.932 1_655 S
H1311 C1299 0.960 . S
H1312 C1299 0.962 . S
H1313 C1299 0.960 . S
H1314 C1300 0.961 . S
H1315 C1300 0.961 . S
H1316 C1300 0.961 . S
H1317 C1301 0.931 . S
H1318 C1306 0.930 . S
H1319 C1307 0.956 . S
H1320 C1307 0.961 . S
H1321 C1307 0.961 . S
H1322 C1308 0.958 . S
H1323 C1308 0.961 . S
H1324 C1308 0.960 . S
C1325 C1326 1.391 . S
C1325 C1327 1.394 . S
C1325 H1341 0.931 . S
C1326 C1325 1.391 . S
C1326 C1330 1.376 . S
C1327 C1325 1.394 . S
C1327 C1328 1.369 . S
C1327 C1331 1.531 . S
C1328 C1327 1.369 . S
C1328 C1329 1.410 . S
C1328 C1336 1.503 . S
C1329 C1328 1.410 . S
C1329 C1330 1.392 . S
C1329 C1332 1.511 . S
C1330 C1326 1.376 . S
C1330 C1329 1.392 . S
C1330 H1342 0.929 . S
C1331 C1327 1.531 . S
C1331 H1343 0.960 . S
C1331 H1344 0.962 . S
C1331 H1345 0.960 . S
C1332 C1329 1.511 . S
C1332 H1346 0.961 . S
C1332 H1347 0.961 . S
C1332 H1348 0.961 . S
C1333 C1334 1.370 . S
C1333 C1335 1.363 . S
C1333 H1349 0.931 . S
C1334 C1333 1.370 . S
C1334 C1338 1.408 . S
C1335 C1333 1.363 . S
C1335 C1336 1.370 . S
C1335 C1339 1.524 . S
C1336 C1328 1.503 . S
C1336 C1335 1.370 . S
C1336 C1337 1.403 . S
C1337 C1336 1.403 . S
C1337 C1338 1.404 . S
C1337 C1340 1.539 . S
C1338 C1334 1.408 . S
C1338 C1337 1.404 . S
C1338 H1350 0.930 . S
C1339 C1335 1.524 . S
C1339 H1351 0.956 . S
C1339 H1352 0.961 . S
C1339 H1353 0.961 . S
C1340 C1337 1.539 . S
C1340 H1354 0.958 . S
C1340 H1355 0.961 . S
C1340 H1356 0.960 . S
H1341 C1325 0.931 . S
H1342 C1330 0.929 . S
H1343 C1331 0.960 . S
H1344 C1331 0.962 . S
H1345 C1331 0.960 . S
H1346 C1332 0.961 . S
H1347 C1332 0.961 . S
H1348 C1332 0.961 . S
H1349 C1333 0.931 . S
H1350 C1338 0.930 . S
H1351 C1339 0.956 . S
H1352 C1339 0.961 . S
H1353 C1339 0.961 . S
H1354 C1340 0.958 . S
H1355 C1340 0.961 . S
H1356 C1340 0.960 . S
C1357 C1358 1.391 . S
C1357 C1359 1.394 1_545 S
C1357 H1373 0.931 . S
C1358 C1357 1.391 . S
C1358 C1362 1.374 1_545 S
C1359 C1357 1.394 1_565 S
C1359 C1360 1.369 . S
C1359 C1363 1.531 . S
C1360 C1359 1.369 . S
C1360 C1361 1.410 . S
C1360 C1368 1.503 . S
C1361 C1360 1.410 . S
C1361 C1362 1.409 . S
C1361 C1364 1.511 . S
C1362 C1358 1.374 1_565 S
C1362 C1361 1.409 . S
C1362 H1374 0.914 1_565 S
C1363 C1359 1.531 . S
C1363 H1375 0.960 . S
C1363 H1376 0.962 . S
C1363 H1377 0.960 . S
C1364 C1361 1.511 . S
C1364 H1378 0.961 . S
C1364 H1379 0.961 . S
C1364 H1380 0.961 . S
C1365 C1366 1.370 . S
C1365 C1367 1.363 . S
C1365 H1381 0.931 . S
C1366 C1365 1.370 . S
C1366 C1370 1.408 . S
C1367 C1365 1.363 . S
C1367 C1368 1.370 . S
C1367 C1371 1.524 . S
C1368 C1360 1.503 . S
C1368 C1367 1.370 . S
C1368 C1369 1.403 . S
C1369 C1368 1.403 . S
C1369 C1370 1.404 . S
C1369 C1372 1.539 . S
C1370 C1366 1.408 . S
C1370 C1369 1.404 . S
C1370 H1382 0.930 . S
C1371 C1367 1.524 . S
C1371 H1383 0.956 . S
C1371 H1384 0.961 . S
C1371 H1385 0.961 . S
C1372 C1369 1.539 . S
C1372 H1386 0.958 . S
C1372 H1387 0.961 . S
C1372 H1388 0.960 . S
H1373 C1357 0.931 . S
H1374 C1362 0.914 1_545 S
H1375 C1363 0.960 . S
H1376 C1363 0.962 . S
H1377 C1363 0.960 . S
H1378 C1364 0.961 . S
H1379 C1364 0.961 . S
H1380 C1364 0.961 . S
H1381 C1365 0.931 . S
H1382 C1370 0.930 . S
H1383 C1371 0.956 . S
H1384 C1371 0.961 . S
H1385 C1371 0.961 . S
H1386 C1372 0.958 . S
H1387 C1372 0.961 . S
H1388 C1372 0.960 . S
C1389 C1390 1.391 . S
C1389 C1391 1.394 . S
C1389 H1405 0.931 . S
C1390 C1389 1.391 . S
C1390 C1394 1.376 . S
C1391 C1389 1.394 . S
C1391 C1392 1.369 . S
C1391 C1395 1.531 . S
C1392 C1391 1.369 . S
C1392 C1393 1.410 . S
C1392 C1400 1.503 . S
C1393 C1392 1.410 . S
C1393 C1394 1.392 . S
C1393 C1396 1.511 . S
C1394 C1390 1.376 . S
C1394 C1393 1.392 . S
C1394 H1406 0.929 . S
C1395 C1391 1.531 . S
C1395 H1407 0.960 . S
C1395 H1408 0.962 . S
C1395 H1409 0.960 . S
C1396 C1393 1.511 . S
C1396 H1410 0.961 . S
C1396 H1411 0.961 . S
C1396 H1412 0.961 . S
C1397 C1398 1.370 . S
C1397 C1399 1.363 . S
C1397 H1413 0.931 . S
C1398 C1397 1.370 . S
C1398 C1402 1.408 . S
C1399 C1397 1.363 . S
C1399 C1400 1.370 . S
C1399 C1403 1.524 . S
C1400 C1392 1.503 . S
C1400 C1399 1.370 . S
C1400 C1401 1.403 . S
C1401 C1400 1.403 . S
C1401 C1402 1.404 . S
C1401 C1404 1.539 . S
C1402 C1398 1.408 . S
C1402 C1401 1.404 . S
C1402 H1414 0.930 . S
C1403 C1399 1.524 . S
C1403 H1415 0.956 . S
C1403 H1416 0.961 . S
C1403 H1417 0.961 . S
C1404 C1401 1.539 . S
C1404 H1418 0.958 . S
C1404 H1419 0.961 . S
C1404 H1420 0.960 . S
H1405 C1389 0.931 . S
H1406 C1394 0.929 . S
H1407 C1395 0.960 . S
H1408 C1395 0.962 . S
H1409 C1395 0.960 . S
H1410 C1396 0.961 . S
H1411 C1396 0.961 . S
H1412 C1396 0.961 . S
H1413 C1397 0.931 . S
H1414 C1402 0.930 . S
H1415 C1403 0.956 . S
H1416 C1403 0.961 . S
H1417 C1403 0.961 . S
H1418 C1404 0.958 . S
H1419 C1404 0.961 . S
H1420 C1404 0.960 . S
C1421 C1422 1.391 . S
C1421 C1423 1.394 . S
C1421 H1437 0.931 . S
C1422 C1421 1.391 . S
C1422 C1426 1.376 . S
C1423 C1421 1.394 . S
C1423 C1424 1.369 . S
C1423 C1427 1.531 . S
C1424 C1423 1.369 . S
C1424 C1425 1.410 . S
C1424 C1432 1.503 . S
C1425 C1424 1.410 . S
C1425 C1426 1.392 . S
C1425 C1428 1.511 . S
C1426 C1422 1.376 . S
C1426 C1425 1.392 . S
C1426 H1438 0.929 . S
C1427 C1423 1.531 . S
C1427 H1439 0.960 . S
C1427 H1440 0.962 . S
C1427 H1441 0.960 . S
C1428 C1425 1.511 . S
C1428 H1442 0.961 . S
C1428 H1443 0.961 . S
C1428 H1444 0.961 . S
C1429 C1430 1.370 . S
C1429 C1431 1.363 . S
C1429 H1445 0.931 . S
C1430 C1429 1.370 . S
C1430 C1434 1.408 . S
C1431 C1429 1.363 . S
C1431 C1432 1.370 . S
C1431 C1435 1.524 . S
C1432 C1424 1.503 . S
C1432 C1431 1.370 . S
C1432 C1433 1.403 . S
C1433 C1432 1.403 . S
C1433 C1434 1.404 . S
C1433 C1436 1.539 . S
C1434 C1430 1.408 . S
C1434 C1433 1.404 . S
C1434 H1446 0.930 . S
C1435 C1431 1.524 . S
C1435 H1447 0.956 . S
C1435 H1448 0.961 . S
C1435 H1449 0.961 . S
C1436 C1433 1.539 . S
C1436 H1450 0.958 . S
C1436 H1451 0.961 . S
C1436 H1452 0.960 . S
H1437 C1421 0.931 . S
H1438 C1426 0.929 . S
H1439 C1427 0.960 . S
H1440 C1427 0.962 . S
H1441 C1427 0.960 . S
H1442 C1428 0.961 . S
H1443 C1428 0.961 . S
H1444 C1428 0.961 . S
H1445 C1429 0.931 . S
H1446 C1434 0.930 . S
H1447 C1435 0.956 . S
H1448 C1435 0.961 . S
H1449 C1435 0.961 . S
H1450 C1436 0.958 . S
H1451 C1436 0.961 . S
H1452 C1436 0.960 . S
C1453 C1454 1.391 . S
C1453 C1455 1.394 . S
C1453 H1469 0.931 . S
C1454 C1453 1.391 . S
C1454 C1458 1.376 . S
C1455 C1453 1.394 . S
C1455 C1456 1.369 . S
C1455 C1459 1.531 . S
C1456 C1455 1.369 . S
C1456 C1457 1.410 . S
C1456 C1464 1.503 . S
C1457 C1456 1.410 . S
C1457 C1458 1.392 . S
C1457 C1460 1.511 . S
C1458 C1454 1.376 . S
C1458 C1457 1.392 . S
C1458 H1470 0.929 . S
C1459 C1455 1.531 . S
C1459 H1471 0.960 . S
C1459 H1472 0.962 . S
C1459 H1473 0.960 . S
C1460 C1457 1.511 . S
C1460 H1474 0.961 . S
C1460 H1475 0.961 . S
C1460 H1476 0.961 . S
C1461 C1462 1.370 . S
C1461 C1463 1.363 . S
C1461 H1477 0.931 . S
C1462 C1461 1.370 . S
C1462 C1466 1.408 . S
C1463 C1461 1.363 . S
C1463 C1464 1.370 . S
C1463 C1467 1.524 . S
C1464 C1456 1.503 . S
C1464 C1463 1.370 . S
C1464 C1465 1.403 . S
C1465 C1464 1.403 . S
C1465 C1466 1.404 . S
C1465 C1468 1.539 . S
C1466 C1462 1.408 . S
C1466 C1465 1.404 . S
C1466 H1478 0.930 . S
C1467 C1463 1.524 . S
C1467 H1479 0.956 . S
C1467 H1480 0.961 . S
C1467 H1481 0.961 . S
C1468 C1465 1.539 . S
C1468 H1482 0.958 . S
C1468 H1483 0.961 . S
C1468 H1484 0.960 . S
H1469 C1453 0.931 . S
H1470 C1458 0.929 . S
H1471 C1459 0.960 . S
H1472 C1459 0.962 . S
H1473 C1459 0.960 . S
H1474 C1460 0.961 . S
H1475 C1460 0.961 . S
H1476 C1460 0.961 . S
H1477 C1461 0.931 . S
H1478 C1466 0.930 . S
H1479 C1467 0.956 . S
H1480 C1467 0.961 . S
H1481 C1467 0.961 . S
H1482 C1468 0.958 . S
H1483 C1468 0.961 . S
H1484 C1468 0.960 . S
C1485 C1486 1.391 . S
C1485 C1487 1.394 . S
C1485 H1501 0.931 . S
C1486 C1485 1.391 . S
C1486 C1490 1.376 . S
C1487 C1485 1.394 . S
C1487 C1488 1.369 . S
C1487 C1491 1.531 . S
C1488 C1487 1.369 . S
C1488 C1489 1.410 . S
C1488 C1496 1.503 . S
C1489 C1488 1.410 . S
C1489 C1490 1.392 . S
C1489 C1492 1.511 . S
C1490 C1486 1.376 . S
C1490 C1489 1.392 . S
C1490 H1502 0.929 . S
C1491 C1487 1.531 . S
C1491 H1503 0.960 . S
C1491 H1504 0.962 . S
C1491 H1505 0.960 . S
C1492 C1489 1.511 . S
C1492 H1506 0.961 . S
C1492 H1507 0.961 . S
C1492 H1508 0.961 . S
C1493 C1494 1.370 . S
C1493 C1495 1.363 . S
C1493 H1509 0.931 . S
C1494 C1493 1.370 . S
C1494 C1498 1.408 . S
C1495 C1493 1.363 . S
C1495 C1496 1.370 . S
C1495 C1499 1.524 . S
C1496 C1488 1.503 . S
C1496 C1495 1.370 . S
C1496 C1497 1.403 . S
C1497 C1496 1.403 . S
C1497 C1498 1.404 . S
C1497 C1500 1.539 . S
C1498 C1494 1.408 . S
C1498 C1497 1.404 . S
C1498 H1510 0.930 . S
C1499 C1495 1.524 . S
C1499 H1511 0.956 . S
C1499 H1512 0.961 . S
C1499 H1513 0.961 . S
C1500 C1497 1.539 . S
C1500 H1514 0.958 . S
C1500 H1515 0.961 . S
C1500 H1516 0.960 . S
H1501 C1485 0.931 . S
H1502 C1490 0.929 . S
H1503 C1491 0.960 . S
H1504 C1491 0.962 . S
H1505 C1491 0.960 . S
H1506 C1492 0.961 . S
H1507 C1492 0.961 . S
H1508 C1492 0.961 . S
H1509 C1493 0.931 . S
H1510 C1498 0.930 . S
H1511 C1499 0.956 . S
H1512 C1499 0.961 . S
H1513 C1499 0.961 . S
H1514 C1500 0.958 . S
H1515 C1500 0.961 . S
H1516 C1500 0.960 . S
C1517 C1518 1.391 . S
C1517 C1519 1.394 . S
C1517 H1533 0.931 . S
C1518 C1517 1.391 . S
C1518 C1522 1.376 . S
C1519 C1517 1.394 . S
C1519 C1520 1.369 . S
C1519 C1523 1.531 . S
C1520 C1519 1.369 . S
C1520 C1521 1.410 . S
C1520 C1528 1.503 . S
C1521 C1520 1.410 . S
C1521 C1522 1.392 . S
C1521 C1524 1.511 . S
C1522 C1518 1.376 . S
C1522 C1521 1.392 . S
C1522 H1534 0.929 . S
C1523 C1519 1.531 . S
C1523 H1535 0.960 . S
C1523 H1536 0.962 . S
C1523 H1537 0.960 . S
C1524 C1521 1.511 . S
C1524 H1538 0.961 . S
C1524 H1539 0.961 . S
C1524 H1540 0.961 . S
C1525 C1526 1.370 . S
C1525 C1527 1.363 . S
C1525 H1541 0.931 . S
C1526 C1525 1.370 . S
C1526 C1530 1.408 . S
C1527 C1525 1.363 . S
C1527 C1528 1.370 . S
C1527 C1531 1.524 . S
C1528 C1520 1.503 . S
C1528 C1527 1.370 . S
C1528 C1529 1.403 . S
C1529 C1528 1.403 . S
C1529 C1530 1.404 . S
C1529 C1532 1.539 . S
C1530 C1526 1.408 . S
C1530 C1529 1.404 . S
C1530 H1542 0.930 . S
C1531 C1527 1.524 . S
C1531 H1543 0.956 . S
C1531 H1544 0.961 . S
C1531 H1545 0.961 . S
C1532 C1529 1.539 . S
C1532 H1546 0.958 . S
C1532 H1547 0.961 . S
C1532 H1548 0.960 . S
H1533 C1517 0.931 . S
H1534 C1522 0.929 . S
H1535 C1523 0.960 . S
H1536 C1523 0.962 . S
H1537 C1523 0.960 . S
H1538 C1524 0.961 . S
H1539 C1524 0.961 . S
H1540 C1524 0.961 . S
H1541 C1525 0.931 . S
H1542 C1530 0.930 . S
H1543 C1531 0.956 . S
H1544 C1531 0.961 . S
H1545 C1531 0.961 . S
H1546 C1532 0.958 . S
H1547 C1532 0.961 . S
H1548 C1532 0.960 . S
C1549 C1550 1.391 . S
C1549 C1551 1.394 . S
C1549 H1565 0.931 . S
C1550 C1549 1.391 . S
C1550 C1554 1.376 . S
C1551 C1549 1.394 . S
C1551 C1552 1.369 . S
C1551 C1555 1.531 . S
C1552 C1551 1.369 . S
C1552 C1553 1.410 . S
C1552 C1560 1.503 . S
C1553 C1552 1.410 . S
C1553 C1554 1.392 . S
C1553 C1556 1.511 . S
C1554 C1550 1.376 . S
C1554 C1553 1.392 . S
C1554 H1566 0.929 . S
C1555 C1551 1.531 . S
C1555 H1567 0.960 . S
C1555 H1568 0.962 . S
C1555 H1569 0.960 . S
C1556 C1553 1.511 . S
C1556 H1570 0.961 . S
C1556 H1571 0.961 . S
C1556 H1572 0.961 . S
C1557 C1558 1.370 . S
C1557 C1559 1.363 . S
C1557 H1573 0.931 . S
C1558 C1557 1.370 . S
C1558 C1562 1.408 . S
C1559 C1557 1.363 . S
C1559 C1560 1.370 . S
C1559 C1563 1.524 . S
C1560 C1552 1.503 . S
C1560 C1559 1.370 . S
C1560 C1561 1.403 . S
C1561 C1560 1.403 . S
C1561 C1562 1.404 . S
C1561 C1564 1.539 . S
C1562 C1558 1.408 . S
C1562 C1561 1.404 . S
C1562 H1574 0.930 . S
C1563 C1559 1.524 . S
C1563 H1575 0.956 . S
C1563 H1576 0.961 . S
C1563 H1577 0.961 . S
C1564 C1561 1.539 . S
C1564 H1578 0.958 . S
C1564 H1579 0.961 . S
C1564 H1580 0.960 . S
H1565 C1549 0.931 . S
H1566 C1554 0.929 . S
H1567 C1555 0.960 . S
H1568 C1555 0.962 . S
H1569 C1555 0.960 . S
H1570 C1556 0.961 . S
H1571 C1556 0.961 . S
H1572 C1556 0.961 . S
H1573 C1557 0.931 . S
H1574 C1562 0.930 . S
H1575 C1563 0.956 . S
H1576 C1563 0.961 . S
H1577 C1563 0.961 . S
H1578 C1564 0.958 . S
H1579 C1564 0.961 . S
H1580 C1564 0.960 . S
C1581 C1582 1.391 1_565 S
C1581 C1583 1.394 . S
C1581 H1597 0.931 1_565 S
C1582 C1581 1.391 1_545 S
C1582 C1586 1.376 . S
C1583 C1581 1.394 . S
C1583 C1584 1.369 . S
C1583 C1587 1.531 . S
C1584 C1583 1.369 . S
C1584 C1585 1.410 . S
C1584 C1592 1.503 . S
C1585 C1584 1.410 . S
C1585 C1586 1.392 1_565 S
C1585 C1588 1.511 . S
C1586 C1582 1.376 . S
C1586 C1585 1.392 1_545 S
C1586 H1598 0.929 . S
C1587 C1583 1.531 . S
C1587 H1599 0.960 . S
C1587 H1600 0.962 . S
C1587 H1601 0.960 . S
C1588 C1585 1.511 . S
C1588 H1602 0.961 . S
C1588 H1603 0.961 . S
C1588 H1604 0.961 . S
C1589 C1590 1.370 . S
C1589 C1591 1.363 . S
C1589 H1605 0.931 . S
C1590 C1589 1.370 . S
C1590 C1594 1.408 . S
C1591 C1589 1.363 . S
C1591 C1592 1.370 . S
C1591 C1595 1.524 . S
C1592 C1584 1.503 . S
C1592 C1591 1.370 . S
C1592 C1593 1.403 . S
C1593 C1592 1.403 . S
C1593 C1594 1.404 . S
C1593 C1596 1.539 . S
C1594 C1590 1.408 . S
C1594 C1593 1.404 . S
C1594 H1606 0.930 . S
C1595 C1591 1.524 . S
C1595 H1607 0.956 . S
C1595 H1608 0.961 . S
C1595 H1609 0.961 . S
C1596 C1593 1.539 . S
C1596 H1610 0.958 . S
C1596 H1611 0.961 . S
C1596 H1612 0.960 . S
H1597 C1581 0.931 1_545 S
H1598 C1586 0.929 . S
H1599 C1587 0.960 . S
H1600 C1587 0.962 . S
H1601 C1587 0.960 . S
H1602 C1588 0.961 . S
H1603 C1588 0.961 . S
H1604 C1588 0.961 . S
H1605 C1589 0.931 . S
H1606 C1594 0.930 . S
H1607 C1595 0.956 . S
H1608 C1595 0.961 . S
H1609 C1595 0.961 . S
H1610 C1596 0.958 . S
H1611 C1596 0.961 . S
H1612 C1596 0.960 . S
C1613 C1614 1.391 1_455 S
C1613 C1615 1.394 . S
C1613 H1629 0.931 1_455 S
C1614 C1613 1.391 1_655 S
C1614 C1618 1.376 . S
C1615 C1613 1.394 . S
C1615 C1616 1.369 . S
C1615 C1619 1.531 . S
C1616 C1615 1.369 . S
C1616 C1617 1.410 . S
C1616 C1624 1.503 . S
C1617 C1616 1.410 . S
C1617 C1618 1.392 1_455 S
C1617 C1620 1.511 . S
C1618 C1614 1.376 . S
C1618 C1617 1.392 1_655 S
C1618 H1630 0.929 . S
C1619 C1615 1.531 . S
C1619 H1631 0.960 . S
C1619 H1632 0.962 . S
C1619 H1633 0.960 . S
C1620 C1617 1.511 . S
C1620 H1634 0.961 . S
C1620 H1635 0.961 . S
C1620 H1636 0.961 . S
C1621 C1622 1.370 . S
C1621 C1623 1.363 . S
C1621 H1637 0.931 . S
C1622 C1621 1.370 . S
C1622 C1626 1.408 . S
C1623 C1621 1.363 . S
C1623 C1624 1.370 . S
C1623 C1627 1.524 . S
C1624 C1616 1.503 . S
C1624 C1623 1.370 . S
C1624 C1625 1.403 . S
C1625 C1624 1.403 . S
C1625 C1626 1.404 . S
C1625 C1628 1.539 . S
C1626 C1622 1.408 . S
C1626 C1625 1.404 . S
C1626 H1638 0.930 . S
C1627 C1623 1.524 . S
C1627 H1639 0.956 . S
C1627 H1640 0.961 . S
C1627 H1641 0.961 . S
C1628 C1625 1.539 . S
C1628 H1642 0.958 . S
C1628 H1643 0.961 . S
C1628 H1644 0.960 . S
H1629 C1613 0.931 1_655 S
H1630 C1618 0.929 . S
H1631 C1619 0.960 . S
H1632 C1619 0.962 . S
H1633 C1619 0.960 . S
H1634 C1620 0.961 . S
H1635 C1620 0.961 . S
H1636 C1620 0.961 . S
H1637 C1621 0.931 . S
H1638 C1626 0.930 . S
H1639 C1627 0.956 . S
H1640 C1627 0.961 . S
H1641 C1627 0.961 . S
H1642 C1628 0.958 . S
H1643 C1628 0.961 . S
H1644 C1628 0.960 . S
C1645 C1646 1.391 . S
C1645 C1647 1.394 . S
C1645 H1661 0.931 . S
C1646 C1645 1.391 . S
C1646 C1650 1.376 . S
C1647 C1645 1.394 . S
C1647 C1648 1.369 . S
C1647 C1651 1.531 . S
C1648 C1647 1.369 . S
C1648 C1649 1.410 . S
C1648 C1656 1.503 . S
C1649 C1648 1.410 . S
C1649 C1650 1.392 . S
C1649 C1652 1.511 . S
C1650 C1646 1.376 . S
C1650 C1649 1.392 . S
C1650 H1662 0.929 . S
C1651 C1647 1.531 . S
C1651 H1663 0.960 . S
C1651 H1664 0.962 . S
C1651 H1665 0.960 . S
C1652 C1649 1.511 . S
C1652 H1666 0.961 . S
C1652 H1667 0.961 . S
C1652 H1668 0.961 . S
C1653 C1654 1.370 . S
C1653 C1655 1.363 . S
C1653 H1669 0.931 . S
C1654 C1653 1.370 . S
C1654 C1658 1.408 . S
C1655 C1653 1.363 . S
C1655 C1656 1.370 . S
C1655 C1659 1.524 . S
C1656 C1648 1.503 . S
C1656 C1655 1.370 . S
C1656 C1657 1.403 . S
C1657 C1656 1.403 . S
C1657 C1658 1.404 . S
C1657 C1660 1.539 . S
C1658 C1654 1.408 . S
C1658 C1657 1.404 . S
C1658 H1670 0.930 . S
C1659 C1655 1.524 . S
C1659 H1671 0.956 . S
C1659 H1672 0.961 . S
C1659 H1673 0.961 . S
C1660 C1657 1.539 . S
C1660 H1674 0.958 . S
C1660 H1675 0.961 . S
C1660 H1676 0.960 . S
H1661 C1645 0.931 . S
H1662 C1650 0.929 . S
H1663 C1651 0.960 . S
H1664 C1651 0.962 . S
H1665 C1651 0.960 . S
H1666 C1652 0.961 . S
H1667 C1652 0.961 . S
H1668 C1652 0.961 . S
H1669 C1653 0.931 . S
H1670 C1658 0.930 . S
H1671 C1659 0.956 . S
H1672 C1659 0.961 . S
H1673 C1659 0.961 . S
H1674 C1660 0.958 . S
H1675 C1660 0.961 . S
H1676 C1660 0.960 . S
C1677 C1678 1.391 . S
C1677 C1679 1.394 . S
C1677 H1693 0.931 . S
C1678 C1677 1.391 . S
C1678 C1682 1.376 . S
C1679 C1677 1.394 . S
C1679 C1680 1.369 . S
C1679 C1683 1.531 . S
C1680 C1679 1.369 . S
C1680 C1681 1.410 . S
C1680 C1688 1.503 . S
C1681 C1680 1.410 . S
C1681 C1682 1.392 . S
C1681 C1684 1.511 . S
C1682 C1678 1.376 . S
C1682 C1681 1.392 . S
C1682 H1694 0.929 . S
C1683 C1679 1.531 . S
C1683 H1695 0.960 . S
C1683 H1696 0.962 . S
C1683 H1697 0.960 . S
C1684 C1681 1.511 . S
C1684 H1698 0.961 . S
C1684 H1699 0.961 . S
C1684 H1700 0.961 . S
C1685 C1686 1.370 . S
C1685 C1687 1.363 . S
C1685 H1701 0.931 . S
C1686 C1685 1.370 . S
C1686 C1690 1.408 . S
C1687 C1685 1.363 . S
C1687 C1688 1.370 . S
C1687 C1691 1.524 . S
C1688 C1680 1.503 . S
C1688 C1687 1.370 . S
C1688 C1689 1.403 . S
C1689 C1688 1.403 . S
C1689 C1690 1.404 . S
C1689 C1692 1.539 . S
C1690 C1686 1.408 . S
C1690 C1689 1.404 . S
C1690 H1702 0.930 . S
C1691 C1687 1.524 . S
C1691 H1703 0.956 . S
C1691 H1704 0.961 . S
C1691 H1705 0.961 . S
C1692 C1689 1.539 . S
C1692 H1706 0.958 . S
C1692 H1707 0.961 . S
C1692 H1708 0.960 . S
H1693 C1677 0.931 . S
H1694 C1682 0.929 . S
H1695 C1683 0.960 . S
H1696 C1683 0.962 . S
H1697 C1683 0.960 . S
H1698 C1684 0.961 . S
H1699 C1684 0.961 . S
H1700 C1684 0.961 . S
H1701 C1685 0.931 . S
H1702 C1690 0.930 . S
H1703 C1691 0.956 . S
H1704 C1691 0.961 . S
H1705 C1691 0.961 . S
H1706 C1692 0.958 . S
H1707 C1692 0.961 . S
H1708 C1692 0.960 . S
C1709 C1710 1.391 . S
C1709 C1711 1.394 . S
C1709 H1725 0.931 . S
C1710 C1709 1.391 . S
C1710 C1714 1.376 . S
C1711 C1709 1.394 . S
C1711 C1712 1.369 . S
C1711 C1715 1.531 . S
C1712 C1711 1.369 . S
C1712 C1713 1.410 . S
C1712 C1720 1.503 . S
C1713 C1712 1.410 . S
C1713 C1714 1.392 . S
C1713 C1716 1.511 . S
C1714 C1710 1.376 . S
C1714 C1713 1.392 . S
C1714 H1726 0.929 . S
C1715 C1711 1.531 . S
C1715 H1727 0.960 . S
C1715 H1728 0.962 . S
C1715 H1729 0.960 . S
C1716 C1713 1.511 . S
C1716 H1730 0.961 . S
C1716 H1731 0.961 . S
C1716 H1732 0.961 . S
C1717 C1718 1.370 . S
C1717 C1719 1.363 . S
C1717 H1733 0.931 . S
C1718 C1717 1.370 . S
C1718 C1722 1.408 . S
C1719 C1717 1.363 . S
C1719 C1720 1.370 . S
C1719 C1723 1.524 . S
C1720 C1712 1.503 . S
C1720 C1719 1.370 . S
C1720 C1721 1.403 . S
C1721 C1720 1.403 . S
C1721 C1722 1.404 . S
C1721 C1724 1.539 . S
C1722 C1718 1.408 . S
C1722 C1721 1.404 . S
C1722 H1734 0.930 . S
C1723 C1719 1.524 . S
C1723 H1735 0.956 . S
C1723 H1736 0.961 . S
C1723 H1737 0.961 . S
C1724 C1721 1.539 . S
C1724 H1738 0.958 . S
C1724 H1739 0.961 . S
C1724 H1740 0.960 . S
H1725 C1709 0.931 . S
H1726 C1714 0.929 . S
H1727 C1715 0.960 . S
H1728 C1715 0.962 . S
H1729 C1715 0.960 . S
H1730 C1716 0.961 . S
H1731 C1716 0.961 . S
H1732 C1716 0.961 . S
H1733 C1717 0.931 . S
H1734 C1722 0.930 . S
H1735 C1723 0.956 . S
H1736 C1723 0.961 . S
H1737 C1723 0.961 . S
H1738 C1724 0.958 . S
H1739 C1724 0.961 . S
H1740 C1724 0.960 . S
C1741 C1742 1.391 . S
C1741 C1743 1.394 . S
C1741 H1757 0.931 . S
C1742 C1741 1.391 . S
C1742 C1746 1.376 . S
C1743 C1741 1.394 . S
C1743 C1744 1.369 . S
C1743 C1747 1.531 . S
C1744 C1743 1.369 . S
C1744 C1745 1.410 . S
C1744 C1752 1.503 . S
C1745 C1744 1.410 . S
C1745 C1746 1.392 . S
C1745 C1748 1.511 . S
C1746 C1742 1.376 . S
C1746 C1745 1.392 . S
C1746 H1758 0.929 . S
C1747 C1743 1.531 . S
C1747 H1759 0.960 . S
C1747 H1760 0.962 . S
C1747 H1761 0.960 . S
C1748 C1745 1.511 . S
C1748 H1762 0.961 . S
C1748 H1763 0.961 . S
C1748 H1764 0.961 . S
C1749 C1750 1.370 . S
C1749 C1751 1.363 . S
C1749 H1765 0.931 . S
C1750 C1749 1.370 . S
C1750 C1754 1.408 . S
C1751 C1749 1.363 . S
C1751 C1752 1.370 . S
C1751 C1755 1.524 . S
C1752 C1744 1.503 . S
C1752 C1751 1.370 . S
C1752 C1753 1.403 . S
C1753 C1752 1.403 . S
C1753 C1754 1.404 . S
C1753 C1756 1.539 . S
C1754 C1750 1.408 . S
C1754 C1753 1.404 . S
C1754 H1766 0.930 . S
C1755 C1751 1.524 . S
C1755 H1767 0.956 . S
C1755 H1768 0.961 . S
C1755 H1769 0.961 . S
C1756 C1753 1.539 . S
C1756 H1770 0.958 . S
C1756 H1771 0.961 . S
C1756 H1772 0.960 . S
H1757 C1741 0.931 . S
H1758 C1746 0.929 . S
H1759 C1747 0.960 . S
H1760 C1747 0.962 . S
H1761 C1747 0.960 . S
H1762 C1748 0.961 . S
H1763 C1748 0.961 . S
H1764 C1748 0.961 . S
H1765 C1749 0.931 . S
H1766 C1754 0.930 . S
H1767 C1755 0.956 . S
H1768 C1755 0.961 . S
H1769 C1755 0.961 . S
H1770 C1756 0.958 . S
H1771 C1756 0.961 . S
H1772 C1756 0.960 . S
C1773 C1774 1.391 1_545 S
C1773 C1775 1.394 . S
C1773 H1789 0.931 1_545 S
C1774 C1773 1.391 1_565 S
C1774 C1778 1.376 . S
C1775 C1773 1.394 . S
C1775 C1776 1.369 . S
C1775 C1779 1.531 . S
C1776 C1775 1.369 . S
C1776 C1777 1.410 . S
C1776 C1784 1.503 . S
C1777 C1776 1.410 . S
C1777 C1778 1.392 1_545 S
C1777 C1780 1.511 . S
C1778 C1774 1.376 . S
C1778 C1777 1.392 1_565 S
C1778 H1790 0.929 . S
C1779 C1775 1.531 . S
C1779 H1791 0.960 . S
C1779 H1792 0.962 . S
C1779 H1793 0.960 . S
C1780 C1777 1.511 . S
C1780 H1794 0.961 . S
C1780 H1795 0.961 . S
C1780 H1796 0.961 . S
C1781 C1782 1.370 . S
C1781 C1783 1.363 . S
C1781 H1797 0.931 . S
C1782 C1781 1.370 . S
C1782 C1786 1.408 . S
C1783 C1781 1.363 . S
C1783 C1784 1.370 . S
C1783 C1787 1.524 . S
C1784 C1776 1.503 . S
C1784 C1783 1.370 . S
C1784 C1785 1.403 . S
C1785 C1784 1.403 . S
C1785 C1786 1.404 . S
C1785 C1788 1.539 . S
C1786 C1782 1.408 . S
C1786 C1785 1.404 . S
C1786 H1798 0.930 . S
C1787 C1783 1.524 . S
C1787 H1799 0.956 . S
C1787 H1800 0.961 . S
C1787 H1801 0.961 . S
C1788 C1785 1.539 . S
C1788 H1802 0.958 . S
C1788 H1803 0.961 . S
C1788 H1804 0.960 . S
H1789 C1773 0.931 1_565 S
H1790 C1778 0.929 . S
H1791 C1779 0.960 . S
H1792 C1779 0.962 . S
H1793 C1779 0.960 . S
H1794 C1780 0.961 . S
H1795 C1780 0.961 . S
H1796 C1780 0.961 . S
H1797 C1781 0.931 . S
H1798 C1786 0.930 . S
H1799 C1787 0.956 . S
H1800 C1787 0.961 . S
H1801 C1787 0.961 . S
H1802 C1788 0.958 . S
H1803 C1788 0.961 . S
H1804 C1788 0.960 . S
C1805 C1806 1.391 . S
C1805 C1807 1.394 1_455 S
C1805 H1821 0.931 . S
C1806 C1805 1.391 . S
C1806 C1810 1.376 . S
C1807 C1805 1.394 1_655 S
C1807 C1808 1.369 . S
C1807 C1811 1.531 . S
C1808 C1807 1.369 . S
C1808 C1809 1.410 . S
C1808 C1816 1.503 . S
C1809 C1808 1.410 . S
C1809 C1810 1.392 1_655 S
C1809 C1812 1.511 . S
C1810 C1806 1.376 . S
C1810 C1809 1.392 1_455 S
C1810 H1822 0.929 . S
C1811 C1807 1.531 . S
C1811 H1823 0.960 . S
C1811 H1824 0.962 . S
C1811 H1825 0.960 . S
C1812 C1809 1.511 . S
C1812 H1826 0.961 . S
C1812 H1827 0.961 . S
C1812 H1828 0.961 . S
C1813 C1814 1.370 . S
C1813 C1815 1.363 . S
C1813 H1829 0.931 . S
C1814 C1813 1.370 . S
C1814 C1818 1.408 . S
C1815 C1813 1.363 . S
C1815 C1816 1.370 . S
C1815 C1819 1.524 . S
C1816 C1808 1.503 . S
C1816 C1815 1.370 . S
C1816 C1817 1.403 . S
C1817 C1816 1.403 . S
C1817 C1818 1.404 . S
C1817 C1820 1.539 . S
C1818 C1814 1.408 . S
C1818 C1817 1.404 . S
C1818 H1830 0.930 . S
C1819 C1815 1.524 . S
C1819 H1831 0.956 . S
C1819 H1832 0.961 . S
C1819 H1833 0.961 . S
C1820 C1817 1.539 . S
C1820 H1834 0.958 . S
C1820 H1835 0.961 . S
C1820 H1836 0.960 . S
H1821 C1805 0.931 . S
H1822 C1810 0.929 . S
H1823 C1811 0.960 . S
H1824 C1811 0.962 . S
H1825 C1811 0.960 . S
H1826 C1812 0.961 . S
H1827 C1812 0.961 . S
H1828 C1812 0.961 . S
H1829 C1813 0.931 . S
H1830 C1818 0.930 . S
H1831 C1819 0.956 . S
H1832 C1819 0.961 . S
H1833 C1819 0.961 . S
H1834 C1820 0.958 . S
H1835 C1820 0.961 . S
H1836 C1820 0.960 . S
C1837 C1838 1.391 . S
C1837 C1839 1.394 . S
C1837 H1853 0.931 . S
C1838 C1837 1.391 . S
C1838 C1842 1.376 . S
C1839 C1837 1.394 . S
C1839 C1840 1.369 . S
C1839 C1843 1.531 . S
C1840 C1839 1.369 . S
C1840 C1841 1.410 . S
C1840 C1848 1.503 . S
C1841 C1840 1.410 . S
C1841 C1842 1.392 . S
C1841 C1844 1.511 . S
C1842 C1838 1.376 . S
C1842 C1841 1.392 . S
C1842 H1854 0.929 . S
C1843 C1839 1.531 . S
C1843 H1855 0.960 . S
C1843 H1856 0.962 . S
C1843 H1857 0.960 . S
C1844 C1841 1.511 . S
C1844 H1858 0.961 . S
C1844 H1859 0.961 . S
C1844 H1860 0.961 . S
C1845 C1846 1.370 . S
C1845 C1847 1.363 . S
C1845 H1861 0.931 . S
C1846 C1845 1.370 . S
C1846 C1850 1.408 . S
C1847 C1845 1.363 . S
C1847 C1848 1.370 . S
C1847 C1851 1.524 . S
C1848 C1840 1.503 . S
C1848 C1847 1.370 . S
C1848 C1849 1.403 . S
C1849 C1848 1.403 . S
C1849 C1850 1.404 . S
C1849 C1852 1.539 . S
C1850 C1846 1.408 . S
C1850 C1849 1.404 . S
C1850 H1862 0.930 . S
C1851 C1847 1.524 . S
C1851 H1863 0.956 . S
C1851 H1864 0.961 . S
C1851 H1865 0.961 . S
C1852 C1849 1.539 . S
C1852 H1866 0.958 . S
C1852 H1867 0.961 . S
C1852 H1868 0.960 . S
H1853 C1837 0.931 . S
H1854 C1842 0.929 . S
H1855 C1843 0.960 . S
H1856 C1843 0.962 . S
H1857 C1843 0.960 . S
H1858 C1844 0.961 . S
H1859 C1844 0.961 . S
H1860 C1844 0.961 . S
H1861 C1845 0.931 . S
H1862 C1850 0.930 . S
H1863 C1851 0.956 . S
H1864 C1851 0.961 . S
H1865 C1851 0.961 . S
H1866 C1852 0.958 . S
H1867 C1852 0.961 . S
H1868 C1852 0.960 . S
C1869 C1870 1.391 . S
C1869 C1871 1.394 1_455 S
C1869 H1885 0.931 . S
C1870 C1869 1.391 . S
C1870 C1874 1.376 . S
C1871 C1869 1.394 1_655 S
C1871 C1872 1.369 . S
C1871 C1875 1.531 . S
C1872 C1871 1.369 . S
C1872 C1873 1.410 . S
C1872 C1880 1.503 . S
C1873 C1872 1.410 . S
C1873 C1874 1.392 1_655 S
C1873 C1876 1.511 . S
C1874 C1870 1.376 . S
C1874 C1873 1.392 1_455 S
C1874 H1886 0.929 . S
C1875 C1871 1.531 . S
C1875 H1887 0.960 . S
C1875 H1888 0.962 . S
C1875 H1889 0.960 . S
C1876 C1873 1.511 . S
C1876 H1890 0.961 . S
C1876 H1891 0.961 . S
C1876 H1892 0.961 . S
C1877 C1878 1.370 . S
C1877 C1879 1.363 . S
C1877 H1893 0.931 . S
C1878 C1877 1.370 . S
C1878 C1882 1.408 . S
C1879 C1877 1.363 . S
C1879 C1880 1.370 . S
C1879 C1883 1.524 . S
C1880 C1872 1.503 . S
C1880 C1879 1.370 . S
C1880 C1881 1.403 . S
C1881 C1880 1.403 . S
C1881 C1882 1.404 . S
C1881 C1884 1.539 . S
C1882 C1878 1.408 . S
C1882 C1881 1.404 . S
C1882 H1894 0.930 . S
C1883 C1879 1.524 . S
C1883 H1895 0.956 . S
C1883 H1896 0.961 . S
C1883 H1897 0.961 . S
C1884 C1881 1.539 . S
C1884 H1898 0.958 . S
C1884 H1899 0.961 . S
C1884 H1900 0.960 . S
H1885 C1869 0.931 . S
H1886 C1874 0.929 . S
H1887 C1875 0.960 . S
H1888 C1875 0.962 . S
H1889 C1875 0.960 . S
H1890 C1876 0.961 . S
H1891 C1876 0.961 . S
H1892 C1876 0.961 . S
H1893 C1877 0.931 . S
H1894 C1882 0.930 . S
H1895 C1883 0.956 . S
H1896 C1883 0.961 . S
H1897 C1883 0.961 . S
H1898 C1884 0.958 . S
H1899 C1884 0.961 . S
H1900 C1884 0.960 . S
C1901 C1902 1.391 . S
C1901 C1903 1.394 . S
C1901 H1917 0.931 . S
C1902 C1901 1.391 . S
C1902 C1906 1.376 . S
C1903 C1901 1.394 . S
C1903 C1904 1.369 . S
C1903 C1907 1.531 . S
C1904 C1903 1.369 . S
C1904 C1905 1.410 . S
C1904 C1912 1.503 . S
C1905 C1904 1.410 . S
C1905 C1906 1.392 . S
C1905 C1908 1.511 . S
C1906 C1902 1.376 . S
C1906 C1905 1.392 . S
C1906 H1918 0.929 . S
C1907 C1903 1.531 . S
C1907 H1919 0.960 . S
C1907 H1920 0.962 . S
C1907 H1921 0.960 . S
C1908 C1905 1.511 . S
C1908 H1922 0.961 . S
C1908 H1923 0.961 . S
C1908 H1924 0.961 . S
C1909 C1910 1.370 . S
C1909 C1911 1.363 . S
C1909 H1925 0.931 . S
C1910 C1909 1.370 . S
C1910 C1914 1.408 . S
C1911 C1909 1.363 . S
C1911 C1912 1.370 . S
C1911 C1915 1.524 . S
C1912 C1904 1.503 . S
C1912 C1911 1.370 . S
C1912 C1913 1.403 . S
C1913 C1912 1.403 . S
C1913 C1914 1.404 . S
C1913 C1916 1.539 . S
C1914 C1910 1.408 . S
C1914 C1913 1.404 . S
C1914 H1926 0.930 . S
C1915 C1911 1.524 . S
C1915 H1927 0.956 . S
C1915 H1928 0.961 . S
C1915 H1929 0.961 . S
C1916 C1913 1.539 . S
C1916 H1930 0.958 . S
C1916 H1931 0.961 . S
C1916 H1932 0.960 . S
H1917 C1901 0.931 . S
H1918 C1906 0.929 . S
H1919 C1907 0.960 . S
H1920 C1907 0.962 . S
H1921 C1907 0.960 . S
H1922 C1908 0.961 . S
H1923 C1908 0.961 . S
H1924 C1908 0.961 . S
H1925 C1909 0.931 . S
H1926 C1914 0.930 . S
H1927 C1915 0.956 . S
H1928 C1915 0.961 . S
H1929 C1915 0.961 . S
H1930 C1916 0.958 . S
H1931 C1916 0.961 . S
H1932 C1916 0.960 . S
C1933 C1934 1.391 1_545 S
C1933 C1935 1.394 . S
C1933 H1949 0.931 1_545 S
C1934 C1933 1.391 1_565 S
C1934 C1938 1.331 1_565 S
C1935 C1933 1.394 . S
C1935 C1936 1.369 . S
C1935 C1939 1.531 . S
C1936 C1935 1.369 . S
C1936 C1937 1.410 . S
C1936 C1944 1.503 . S
C1937 C1936 1.410 . S
C1937 C1938 1.443 . S
C1937 C1940 1.511 . S
C1938 C1934 1.331 1_545 S
C1938 C1937 1.443 . S
C1938 H1950 0.925 1_545 S
C1939 C1935 1.531 . S
C1939 H1951 0.960 . S
C1939 H1952 0.962 . S
C1939 H1953 0.960 . S
C1940 C1937 1.511 . S
C1940 H1954 0.961 . S
C1940 H1955 0.961 . S
C1940 H1956 0.961 . S
C1941 C1942 1.370 . S
C1941 C1943 1.363 . S
C1941 H1957 0.931 . S
C1942 C1941 1.370 . S
C1942 C1946 1.408 . S
C1943 C1941 1.363 . S
C1943 C1944 1.370 . S
C1943 C1947 1.524 . S
C1944 C1936 1.503 . S
C1944 C1943 1.370 . S
C1944 C1945 1.403 . S
C1945 C1944 1.403 . S
C1945 C1946 1.404 . S
C1945 C1948 1.539 . S
C1946 C1942 1.408 . S
C1946 C1945 1.404 . S
C1946 H1958 0.930 . S
C1947 C1943 1.524 . S
C1947 H1959 0.956 . S
C1947 H1960 0.961 . S
C1947 H1961 0.961 . S
C1948 C1945 1.539 . S
C1948 H1962 0.958 . S
C1948 H1963 0.961 . S
C1948 H1964 0.960 . S
H1949 C1933 0.931 1_565 S
H1950 C1938 0.925 1_565 S
H1951 C1939 0.960 . S
H1952 C1939 0.962 . S
H1953 C1939 0.960 . S
H1954 C1940 0.961 . S
H1955 C1940 0.961 . S
H1956 C1940 0.961 . S
H1957 C1941 0.931 . S
H1958 C1946 0.930 . S
H1959 C1947 0.956 . S
H1960 C1947 0.961 . S
H1961 C1947 0.961 . S
H1962 C1948 0.958 . S
H1963 C1948 0.961 . S
H1964 C1948 0.960 . S
C1965 C1966 1.391 . S
C1965 C1967 1.394 . S
C1965 H1981 0.931 . S
C1966 C1965 1.391 . S
C1966 C1970 1.376 . S
C1967 C1965 1.394 . S
C1967 C1968 1.369 . S
C1967 C1971 1.531 . S
C1968 C1967 1.369 . S
C1968 C1969 1.410 . S
C1968 C1976 1.503 . S
C1969 C1968 1.410 . S
C1969 C1970 1.392 . S
C1969 C1972 1.511 . S
C1970 C1966 1.376 . S
C1970 C1969 1.392 . S
C1970 H1982 0.929 . S
C1971 C1967 1.531 . S
C1971 H1983 0.960 . S
C1971 H1984 0.962 . S
C1971 H1985 0.960 . S
C1972 C1969 1.511 . S
C1972 H1986 0.961 . S
C1972 H1987 0.961 . S
C1972 H1988 0.961 . S
C1973 C1974 1.370 . S
C1973 C1975 1.363 . S
C1973 H1989 0.931 . S
C1974 C1973 1.370 . S
C1974 C1978 1.408 . S
C1975 C1973 1.363 . S
C1975 C1976 1.370 . S
C1975 C1979 1.524 . S
C1976 C1968 1.503 . S
C1976 C1975 1.370 . S
C1976 C1977 1.403 . S
C1977 C1976 1.403 . S
C1977 C1978 1.404 . S
C1977 C1980 1.539 . S
C1978 C1974 1.408 . S
C1978 C1977 1.404 . S
C1978 H1990 0.930 . S
C1979 C1975 1.524 . S
C1979 H1991 0.956 . S
C1979 H1992 0.961 . S
C1979 H1993 0.961 . S
C1980 C1977 1.539 . S
C1980 H1994 0.958 . S
C1980 H1995 0.961 . S
C1980 H1996 0.960 . S
H1981 C1965 0.931 . S
H1982 C1970 0.929 . S
H1983 C1971 0.960 . S
H1984 C1971 0.962 . S
H1985 C1971 0.960 . S
H1986 C1972 0.961 . S
H1987 C1972 0.961 . S
H1988 C1972 0.961 . S
H1989 C1973 0.931 . S
H1990 C1978 0.930 . S
H1991 C1979 0.956 . S
H1992 C1979 0.961 . S
H1993 C1979 0.961 . S
H1994 C1980 0.958 . S
H1995 C1980 0.961 . S
H1996 C1980 0.960 . S
C1997 C1998 1.391 . S
C1997 C1999 1.394 . S
C1997 H2013 0.931 . S
C1998 C1997 1.391 . S
C1998 C2002 1.376 . S
C1999 C1997 1.394 . S
C1999 C2000 1.369 . S
C1999 C2003 1.531 . S
C2000 C1999 1.369 . S
C2000 C2001 1.410 . S
C2000 C2008 1.503 . S
C2001 C2000 1.410 . S
C2001 C2002 1.392 . S
C2001 C2004 1.511 . S
C2002 C1998 1.376 . S
C2002 C2001 1.392 . S
C2002 H2014 0.929 . S
C2003 C1999 1.531 . S
C2003 H2015 0.960 . S
C2003 H2016 0.962 . S
C2003 H2017 0.960 . S
C2004 C2001 1.511 . S
C2004 H2018 0.961 . S
C2004 H2019 0.961 . S
C2004 H2020 0.961 . S
C2005 C2006 1.370 . S
C2005 C2007 1.363 . S
C2005 H2021 0.931 . S
C2006 C2005 1.370 . S
C2006 C2010 1.408 . S
C2007 C2005 1.363 . S
C2007 C2008 1.370 . S
C2007 C2011 1.524 . S
C2008 C2000 1.503 . S
C2008 C2007 1.370 . S
C2008 C2009 1.403 . S
C2009 C2008 1.403 . S
C2009 C2010 1.404 . S
C2009 C2012 1.539 . S
C2010 C2006 1.408 . S
C2010 C2009 1.404 . S
C2010 H2022 0.930 . S
C2011 C2007 1.524 . S
C2011 H2023 0.956 . S
C2011 H2024 0.961 . S
C2011 H2025 0.961 . S
C2012 C2009 1.539 . S
C2012 H2026 0.958 . S
C2012 H2027 0.961 . S
C2012 H2028 0.960 . S
H2013 C1997 0.931 . S
H2014 C2002 0.929 . S
H2015 C2003 0.960 . S
H2016 C2003 0.962 . S
H2017 C2003 0.960 . S
H2018 C2004 0.961 . S
H2019 C2004 0.961 . S
H2020 C2004 0.961 . S
H2021 C2005 0.931 . S
H2022 C2010 0.930 . S
H2023 C2011 0.956 . S
H2024 C2011 0.961 . S
H2025 C2011 0.961 . S
H2026 C2012 0.958 . S
H2027 C2012 0.961 . S
H2028 C2012 0.960 . S
C2029 C2030 1.391 . S
C2029 C2031 1.394 . S
C2029 H2045 0.931 . S
C2030 C2029 1.391 . S
C2030 C2034 1.376 . S
C2031 C2029 1.394 . S
C2031 C2032 1.369 . S
C2031 C2035 1.531 . S
C2032 C2031 1.369 . S
C2032 C2033 1.410 . S
C2032 C2040 1.503 . S
C2033 C2032 1.410 . S
C2033 C2034 1.392 . S
C2033 C2036 1.511 . S
C2034 C2030 1.376 . S
C2034 C2033 1.392 . S
C2034 H2046 0.929 . S
C2035 C2031 1.531 . S
C2035 H2047 0.960 . S
C2035 H2048 0.962 . S
C2035 H2049 0.960 . S
C2036 C2033 1.511 . S
C2036 H2050 0.961 . S
C2036 H2051 0.961 . S
C2036 H2052 0.961 . S
C2037 C2038 1.370 . S
C2037 C2039 1.363 . S
C2037 H2053 0.931 . S
C2038 C2037 1.370 . S
C2038 C2042 1.408 . S
C2039 C2037 1.363 . S
C2039 C2040 1.370 . S
C2039 C2043 1.524 . S
C2040 C2032 1.503 . S
C2040 C2039 1.370 . S
C2040 C2041 1.403 . S
C2041 C2040 1.403 . S
C2041 C2042 1.404 . S
C2041 C2044 1.539 . S
C2042 C2038 1.408 . S
C2042 C2041 1.404 . S
C2042 H2054 0.930 . S
C2043 C2039 1.524 . S
C2043 H2055 0.956 . S
C2043 H2056 0.961 . S
C2043 H2057 0.961 . S
C2044 C2041 1.539 . S
C2044 H2058 0.958 . S
C2044 H2059 0.961 . S
C2044 H2060 0.960 . S
H2045 C2029 0.931 . S
H2046 C2034 0.929 . S
H2047 C2035 0.960 . S
H2048 C2035 0.962 . S
H2049 C2035 0.960 . S
H2050 C2036 0.961 . S
H2051 C2036 0.961 . S
H2052 C2036 0.961 . S
H2053 C2037 0.931 . S
H2054 C2042 0.930 . S
H2055 C2043 0.956 . S
H2056 C2043 0.961 . S
H2057 C2043 0.961 . S
H2058 C2044 0.958 . S
H2059 C2044 0.961 . S
H2060 C2044 0.960 . S
C2061 C2062 1.391 . S
C2061 C2063 1.394 . S
C2061 H2077 0.931 . S
C2062 C2061 1.391 . S
C2062 C2066 1.376 . S
C2063 C2061 1.394 . S
C2063 C2064 1.369 . S
C2063 C2067 1.531 1_565 S
C2064 C2063 1.369 . S
C2064 C2065 1.410 . S
C2064 C2072 1.503 . S
C2065 C2064 1.410 . S
C2065 C2066 1.392 . S
C2065 C2068 1.511 . S
C2066 C2062 1.376 . S
C2066 C2065 1.392 . S
C2066 H2078 0.929 . S
C2067 C2063 1.531 1_545 S
C2067 H2079 0.960 . S
C2067 H2080 0.955 1_545 S
C2067 H2081 0.960 . S
C2068 C2065 1.511 . S
C2068 H2082 0.961 . S
C2068 H2083 0.961 . S
C2068 H2084 0.961 . S
C2069 C2070 1.375 . S
C2069 C2071 1.363 . S
C2069 H2085 0.931 . S
C2070 C2069 1.375 . S
C2070 C2074 1.404 1_565 S
C2071 C2069 1.363 . S
C2071 C2072 1.370 . S
C2071 C2075 1.524 . S
C2072 C2064 1.503 . S
C2072 C2071 1.370 . S
C2072 C2073 1.403 1_565 S
C2073 C2072 1.403 1_545 S
C2073 C2074 1.404 . S
C2073 C2076 1.539 . S
C2074 C2070 1.404 1_545 S
C2074 C2073 1.404 . S
C2074 H2086 0.930 . S
C2075 C2071 1.524 . S
C2075 H2087 0.956 . S
C2075 H2088 0.961 . S
C2075 H2089 0.961 . S
C2076 C2073 1.539 . S
C2076 H2090 0.958 . S
C2076 H2091 0.961 . S
C2076 H2092 0.960 . S
H2077 C2061 0.931 . S
H2078 C2066 0.929 . S
H2079 C2067 0.960 . S
H2080 C2067 0.955 1_565 S
H2081 C2067 0.960 . S
H2082 C2068 0.961 . S
H2083 C2068 0.961 . S
H2084 C2068 0.961 . S
H2085 C2069 0.931 . S
H2086 C2074 0.930 . S
H2087 C2075 0.956 . S
H2088 C2075 0.961 . S
H2089 C2075 0.961 . S
H2090 C2076 0.958 . S
H2091 C2076 0.961 . S
H2092 C2076 0.960 . S
C2093 C2094 1.391 . S
C2093 C2095 1.394 . S
C2093 H2109 0.931 . S
C2094 C2093 1.391 . S
C2094 C2098 1.376 . S
C2095 C2093 1.394 . S
C2095 C2096 1.369 . S
C2095 C2099 1.531 . S
C2096 C2095 1.369 . S
C2096 C2097 1.409 . S
C2096 C2104 1.503 . S
C2097 C2096 1.409 . S
C2097 C2098 1.392 . S
C2097 C2100 1.511 1_455 S
C2098 C2094 1.376 . S
C2098 C2097 1.392 . S
C2098 H2110 0.929 1_455 S
C2099 C2095 1.531 . S
C2099 H2111 0.960 . S
C2099 H2112 0.962 . S
C2099 H2113 0.960 . S
C2100 C2097 1.511 1_655 S
C2100 H2114 0.961 . S
C2100 H2115 0.961 . S
C2100 H2116 0.961 . S
C2101 C2102 1.370 . S
C2101 C2103 1.363 . S
C2101 H2117 0.931 . S
C2102 C2101 1.370 . S
C2102 C2106 1.408 1_455 S
C2103 C2101 1.363 . S
C2103 C2104 1.370 . S
C2103 C2107 1.524 . S
C2104 C2096 1.503 . S
C2104 C2103 1.370 . S
C2104 C2105 1.403 1_455 S
C2105 C2104 1.403 1_655 S
C2105 C2106 1.404 . S
C2105 C2108 1.539 . S
C2106 C2102 1.408 1_655 S
C2106 C2105 1.404 . S
C2106 H2118 0.930 . S
C2107 C2103 1.524 . S
C2107 H2119 0.956 . S
C2107 H2120 0.961 . S
C2107 H2121 0.961 . S
C2108 C2105 1.539 . S
C2108 H2122 0.958 . S
C2108 H2123 0.961 . S
C2108 H2124 0.960 . S
H2109 C2093 0.931 . S
H2110 C2098 0.929 1_655 S
H2111 C2099 0.960 . S
H2112 C2099 0.962 . S
H2113 C2099 0.960 . S
H2114 C2100 0.961 . S
H2115 C2100 0.961 . S
H2116 C2100 0.961 . S
H2117 C2101 0.931 . S
H2118 C2106 0.930 . S
H2119 C2107 0.956 . S
H2120 C2107 0.961 . S
H2121 C2107 0.961 . S
H2122 C2108 0.958 . S
H2123 C2108 0.961 . S
H2124 C2108 0.960 . S
C2125 C2126 1.391 . S
C2125 C2127 1.394 . S
C2125 H2141 0.931 . S
C2126 C2125 1.391 . S
C2126 C2130 1.376 . S
C2127 C2125 1.394 . S
C2127 C2128 1.369 . S
C2127 C2131 1.531 . S
C2128 C2127 1.369 . S
C2128 C2129 1.410 . S
C2128 C2136 1.503 . S
C2129 C2128 1.410 . S
C2129 C2130 1.392 . S
C2129 C2132 1.511 . S
C2130 C2126 1.376 . S
C2130 C2129 1.392 . S
C2130 H2142 0.929 . S
C2131 C2127 1.531 . S
C2131 H2143 0.960 . S
C2131 H2144 0.962 . S
C2131 H2145 0.960 . S
C2132 C2129 1.511 . S
C2132 H2146 0.961 . S
C2132 H2147 0.961 . S
C2132 H2148 0.961 . S
C2133 C2134 1.370 . S
C2133 C2135 1.363 . S
C2133 H2149 0.931 . S
C2134 C2133 1.370 . S
C2134 C2138 1.408 . S
C2135 C2133 1.363 . S
C2135 C2136 1.370 . S
C2135 C2139 1.524 . S
C2136 C2128 1.503 . S
C2136 C2135 1.370 . S
C2136 C2137 1.403 . S
C2137 C2136 1.403 . S
C2137 C2138 1.404 . S
C2137 C2140 1.539 . S
C2138 C2134 1.408 . S
C2138 C2137 1.404 . S
C2138 H2150 0.930 . S
C2139 C2135 1.524 . S
C2139 H2151 0.956 . S
C2139 H2152 0.961 . S
C2139 H2153 0.961 . S
C2140 C2137 1.539 . S
C2140 H2154 0.958 . S
C2140 H2155 0.961 . S
C2140 H2156 0.960 . S
H2141 C2125 0.931 . S
H2142 C2130 0.929 . S
H2143 C2131 0.960 . S
H2144 C2131 0.962 . S
H2145 C2131 0.960 . S
H2146 C2132 0.961 . S
H2147 C2132 0.961 . S
H2148 C2132 0.961 . S
H2149 C2133 0.931 . S
H2150 C2138 0.930 . S
H2151 C2139 0.956 . S
H2152 C2139 0.961 . S
H2153 C2139 0.961 . S
H2154 C2140 0.958 . S
H2155 C2140 0.961 . S
H2156 C2140 0.960 . S
C2157 C2158 1.403 . S
C2157 C2159 1.392 1_655 S
C2157 H2173 0.920 1_655 S
C2158 C2157 1.403 . S
C2158 C2162 1.376 . S
C2159 C2157 1.392 1_455 S
C2159 C2160 1.369 1_455 S
C2159 C2163 1.531 . S
C2160 C2159 1.369 1_655 S
C2160 C2161 1.410 . S
C2160 C2168 1.503 . S
C2161 C2160 1.410 . S
C2161 C2162 1.392 . S
C2161 C2164 1.511 . S
C2162 C2158 1.376 . S
C2162 C2161 1.392 . S
C2162 H2174 0.929 . S
C2163 C2159 1.531 . S
C2163 H2175 0.960 . S
C2163 H2176 0.962 . S
C2163 H2177 0.960 . S
C2164 C2161 1.511 . S
C2164 H2178 0.961 . S
C2164 H2179 0.961 . S
C2164 H2180 0.961 . S
C2165 C2166 1.370 . S
C2165 C2167 1.363 . S
C2165 H2181 0.931 . S
C2166 C2165 1.370 . S
C2166 C2170 1.408 . S
C2167 C2165 1.363 . S
C2167 C2168 1.370 . S
C2167 C2171 1.524 . S
C2168 C2160 1.503 . S
C2168 C2167 1.370 . S
C2168 C2169 1.403 . S
C2169 C2168 1.403 . S
C2169 C2170 1.404 . S
C2169 C2172 1.539 . S
C2170 C2166 1.408 . S
C2170 C2169 1.404 . S
C2170 H2182 0.930 . S
C2171 C2167 1.524 . S
C2171 H2183 0.956 1_655 S
C2171 H2184 0.961 . S
C2171 H2185 0.961 . S
C2172 C2169 1.539 . S
C2172 H2186 0.951 1_655 S
C2172 H2187 0.961 . S
C2172 H2188 0.960 . S
H2173 C2157 0.920 1_455 S
H2174 C2162 0.929 . S
H2175 C2163 0.960 . S
H2176 C2163 0.962 . S
H2177 C2163 0.960 . S
H2178 C2164 0.961 . S
H2179 C2164 0.961 . S
H2180 C2164 0.961 . S
H2181 C2165 0.931 . S
H2182 C2170 0.930 . S
H2183 C2171 0.956 1_455 S
H2184 C2171 0.961 . S
H2185 C2171 0.961 . S
H2186 C2172 0.951 1_455 S
H2187 C2172 0.961 . S
H2188 C2172 0.960 . S
C2189 C2190 1.391 . S
C2189 C2191 1.394 . S
C2189 H2205 0.931 . S
C2190 C2189 1.391 . S
C2190 C2194 1.376 . S
C2191 C2189 1.394 . S
C2191 C2192 1.369 . S
C2191 C2195 1.531 . S
C2192 C2191 1.369 . S
C2192 C2193 1.410 . S
C2192 C2200 1.503 . S
C2193 C2192 1.410 . S
C2193 C2194 1.392 . S
C2193 C2196 1.511 . S
C2194 C2190 1.376 . S
C2194 C2193 1.392 . S
C2194 H2206 0.929 . S
C2195 C2191 1.531 . S
C2195 H2207 0.960 . S
C2195 H2208 0.962 . S
C2195 H2209 0.960 . S
C2196 C2193 1.511 . S
C2196 H2210 0.961 . S
C2196 H2211 0.961 . S
C2196 H2212 0.961 . S
C2197 C2198 1.370 . S
C2197 C2199 1.363 . S
C2197 H2213 0.931 . S
C2198 C2197 1.370 . S
C2198 C2202 1.408 . S
C2199 C2197 1.363 . S
C2199 C2200 1.370 . S
C2199 C2203 1.524 . S
C2200 C2192 1.503 . S
C2200 C2199 1.370 . S
C2200 C2201 1.403 . S
C2201 C2200 1.403 . S
C2201 C2202 1.404 . S
C2201 C2204 1.539 . S
C2202 C2198 1.408 . S
C2202 C2201 1.404 . S
C2202 H2214 0.930 . S
C2203 C2199 1.524 . S
C2203 H2215 0.956 . S
C2203 H2216 0.961 . S
C2203 H2217 0.961 . S
C2204 C2201 1.539 . S
C2204 H2218 0.958 . S
C2204 H2219 0.961 . S
C2204 H2220 0.960 . S
H2205 C2189 0.931 . S
H2206 C2194 0.929 . S
H2207 C2195 0.960 . S
H2208 C2195 0.962 . S
H2209 C2195 0.960 . S
H2210 C2196 0.961 . S
H2211 C2196 0.961 . S
H2212 C2196 0.961 . S
H2213 C2197 0.931 . S
H2214 C2202 0.930 . S
H2215 C2203 0.956 . S
H2216 C2203 0.961 . S
H2217 C2203 0.961 . S
H2218 C2204 0.958 . S
H2219 C2204 0.961 . S
H2220 C2204 0.960 . S
C2221 C2222 1.391 . S
C2221 C2223 1.394 . S
C2221 H2237 0.931 . S
C2222 C2221 1.391 . S
C2222 C2226 1.376 . S
C2223 C2221 1.394 . S
C2223 C2224 1.369 . S
C2223 C2227 1.531 1_545 S
C2224 C2223 1.369 . S
C2224 C2225 1.410 . S
C2224 C2232 1.503 . S
C2225 C2224 1.410 . S
C2225 C2226 1.392 . S
C2225 C2228 1.511 . S
C2226 C2222 1.376 . S
C2226 C2225 1.392 . S
C2226 H2238 0.929 . S
C2227 C2223 1.531 1_565 S
C2227 H2239 0.960 . S
C2227 H2240 0.962 . S
C2227 H2241 0.960 . S
C2228 C2225 1.511 . S
C2228 H2242 0.961 . S
C2228 H2243 0.961 . S
C2228 H2244 0.961 . S
C2229 C2230 1.370 . S
C2229 C2231 1.363 . S
C2229 H2245 0.931 . S
C2230 C2229 1.370 . S
C2230 C2234 1.408 1_545 S
C2231 C2229 1.363 . S
C2231 C2232 1.370 . S
C2231 C2235 1.524 . S
C2232 C2224 1.503 . S
C2232 C2231 1.370 . S
C2232 C2233 1.403 1_545 S
C2233 C2232 1.403 1_565 S
C2233 C2234 1.404 . S
C2233 C2236 1.539 . S
C2234 C2230 1.408 1_565 S
C2234 C2233 1.404 . S
C2234 H2246 0.930 . S
C2235 C2231 1.524 . S
C2235 H2247 0.956 . S
C2235 H2248 0.961 . S
C2235 H2249 0.961 . S
C2236 C2233 1.539 . S
C2236 H2250 0.958 . S
C2236 H2251 0.961 . S
C2236 H2252 0.960 . S
H2237 C2221 0.931 . S
H2238 C2226 0.929 . S
H2239 C2227 0.960 . S
H2240 C2227 0.962 . S
H2241 C2227 0.960 . S
H2242 C2228 0.961 . S
H2243 C2228 0.961 . S
H2244 C2228 0.961 . S
H2245 C2229 0.931 . S
H2246 C2234 0.930 . S
H2247 C2235 0.956 . S
H2248 C2235 0.961 . S
H2249 C2235 0.961 . S
H2250 C2236 0.958 . S
H2251 C2236 0.961 . S
H2252 C2236 0.960 . S
C2253 C2254 1.391 . S
C2253 C2255 1.394 . S
C2253 H2269 0.931 . S
C2254 C2253 1.391 . S
C2254 C2258 1.376 . S
C2255 C2253 1.394 . S
C2255 C2256 1.369 . S
C2255 C2259 1.531 . S
C2256 C2255 1.369 . S
C2256 C2257 1.410 . S
C2256 C2264 1.503 . S
C2257 C2256 1.410 . S
C2257 C2258 1.392 . S
C2257 C2260 1.511 . S
C2258 C2254 1.376 . S
C2258 C2257 1.392 . S
C2258 H2270 0.929 . S
C2259 C2255 1.531 . S
C2259 H2271 0.960 . S
C2259 H2272 0.962 . S
C2259 H2273 0.960 . S
C2260 C2257 1.511 . S
C2260 H2274 0.961 . S
C2260 H2275 0.961 . S
C2260 H2276 0.961 . S
C2261 C2262 1.370 . S
C2261 C2263 1.363 . S
C2261 H2277 0.931 . S
C2262 C2261 1.370 . S
C2262 C2266 1.408 . S
C2263 C2261 1.363 . S
C2263 C2264 1.370 . S
C2263 C2267 1.524 . S
C2264 C2256 1.503 . S
C2264 C2263 1.370 . S
C2264 C2265 1.403 . S
C2265 C2264 1.403 . S
C2265 C2266 1.404 . S
C2265 C2268 1.539 . S
C2266 C2262 1.408 . S
C2266 C2265 1.404 . S
C2266 H2278 0.930 . S
C2267 C2263 1.524 . S
C2267 H2279 0.956 . S
C2267 H2280 0.961 . S
C2267 H2281 0.961 . S
C2268 C2265 1.539 . S
C2268 H2282 0.958 . S
C2268 H2283 0.961 . S
C2268 H2284 0.960 . S
H2269 C2253 0.931 . S
H2270 C2258 0.929 . S
H2271 C2259 0.960 . S
H2272 C2259 0.962 . S
H2273 C2259 0.960 . S
H2274 C2260 0.961 . S
H2275 C2260 0.961 . S
H2276 C2260 0.961 . S
H2277 C2261 0.931 . S
H2278 C2266 0.930 . S
H2279 C2267 0.956 . S
H2280 C2267 0.961 . S
H2281 C2267 0.961 . S
H2282 C2268 0.958 . S
H2283 C2268 0.961 . S
H2284 C2268 0.960 . S
C2285 C2286 1.391 . S
C2285 C2287 1.394 . S
C2285 H2301 0.931 . S
C2286 C2285 1.391 . S
C2286 C2290 1.376 . S
C2287 C2285 1.394 . S
C2287 C2288 1.369 . S
C2287 C2291 1.531 . S
C2288 C2287 1.369 . S
C2288 C2289 1.410 . S
C2288 C2296 1.503 . S
C2289 C2288 1.410 . S
C2289 C2290 1.392 . S
C2289 C2292 1.511 . S
C2290 C2286 1.376 . S
C2290 C2289 1.392 . S
C2290 H2302 0.929 . S
C2291 C2287 1.531 . S
C2291 H2303 0.960 . S
C2291 H2304 0.962 . S
C2291 H2305 0.960 . S
C2292 C2289 1.511 . S
C2292 H2306 0.961 . S
C2292 H2307 0.961 . S
C2292 H2308 0.961 . S
C2293 C2294 1.370 . S
C2293 C2295 1.363 . S
C2293 H2309 0.931 . S
C2294 C2293 1.370 . S
C2294 C2298 1.408 . S
C2295 C2293 1.363 . S
C2295 C2296 1.370 . S
C2295 C2299 1.524 . S
C2296 C2288 1.503 . S
C2296 C2295 1.370 . S
C2296 C2297 1.403 . S
C2297 C2296 1.403 . S
C2297 C2298 1.404 . S
C2297 C2300 1.539 . S
C2298 C2294 1.408 . S
C2298 C2297 1.404 . S
C2298 H2310 0.930 . S
C2299 C2295 1.524 . S
C2299 H2311 0.956 . S
C2299 H2312 0.961 . S
C2299 H2313 0.961 . S
C2300 C2297 1.539 . S
C2300 H2314 0.958 . S
C2300 H2315 0.961 . S
C2300 H2316 0.960 . S
H2301 C2285 0.931 . S
H2302 C2290 0.929 . S
H2303 C2291 0.960 . S
H2304 C2291 0.962 . S
H2305 C2291 0.960 . S
H2306 C2292 0.961 . S
H2307 C2292 0.961 . S
H2308 C2292 0.961 . S
H2309 C2293 0.931 . S
H2310 C2298 0.930 . S
H2311 C2299 0.956 . S
H2312 C2299 0.961 . S
H2313 C2299 0.961 . S
H2314 C2300 0.958 . S
H2315 C2300 0.961 . S
H2316 C2300 0.960 . S
C2317 C2318 1.391 . S
C2317 C2319 1.394 . S
C2317 H2333 0.931 . S
C2318 C2317 1.391 . S
C2318 C2322 1.376 . S
C2319 C2317 1.394 . S
C2319 C2320 1.369 . S
C2319 C2323 1.531 . S
C2320 C2319 1.369 . S
C2320 C2321 1.410 . S
C2320 C2328 1.503 . S
C2321 C2320 1.410 . S
C2321 C2322 1.392 . S
C2321 C2324 1.511 . S
C2322 C2318 1.376 . S
C2322 C2321 1.392 . S
C2322 H2334 0.929 . S
C2323 C2319 1.531 . S
C2323 H2335 0.960 . S
C2323 H2336 0.962 . S
C2323 H2337 0.960 . S
C2324 C2321 1.511 . S
C2324 H2338 0.961 . S
C2324 H2339 0.961 . S
C2324 H2340 0.961 . S
C2325 C2326 1.370 . S
C2325 C2327 1.363 . S
C2325 H2341 0.931 . S
C2326 C2325 1.370 . S
C2326 C2330 1.408 . S
C2327 C2325 1.363 . S
C2327 C2328 1.370 . S
C2327 C2331 1.524 . S
C2328 C2320 1.503 . S
C2328 C2327 1.370 . S
C2328 C2329 1.403 . S
C2329 C2328 1.403 . S
C2329 C2330 1.404 . S
C2329 C2332 1.539 . S
C2330 C2326 1.408 . S
C2330 C2329 1.404 . S
C2330 H2342 0.930 . S
C2331 C2327 1.524 . S
C2331 H2343 0.956 . S
C2331 H2344 0.961 . S
C2331 H2345 0.961 . S
C2332 C2329 1.539 . S
C2332 H2346 0.958 . S
C2332 H2347 0.961 . S
C2332 H2348 0.960 . S
H2333 C2317 0.931 . S
H2334 C2322 0.929 . S
H2335 C2323 0.960 . S
H2336 C2323 0.962 . S
H2337 C2323 0.960 . S
H2338 C2324 0.961 . S
H2339 C2324 0.961 . S
H2340 C2324 0.961 . S
H2341 C2325 0.931 . S
H2342 C2330 0.930 . S
H2343 C2331 0.956 . S
H2344 C2331 0.961 . S
H2345 C2331 0.961 . S
H2346 C2332 0.958 . S
H2347 C2332 0.961 . S
H2348 C2332 0.960 . S
C2349 C2350 1.391 . S
C2349 C2351 1.394 . S
C2349 H2365 0.931 . S
C2350 C2349 1.391 . S
C2350 C2354 1.376 . S
C2351 C2349 1.394 . S
C2351 C2352 1.369 . S
C2351 C2355 1.531 . S
C2352 C2351 1.369 . S
C2352 C2353 1.410 . S
C2352 C2360 1.503 . S
C2353 C2352 1.410 . S
C2353 C2354 1.392 . S
C2353 C2356 1.511 . S
C2354 C2350 1.376 . S
C2354 C2353 1.392 . S
C2354 H2366 0.929 . S
C2355 C2351 1.531 . S
C2355 H2367 0.960 . S
C2355 H2368 0.962 . S
C2355 H2369 0.960 . S
C2356 C2353 1.511 . S
C2356 H2370 0.961 . S
C2356 H2371 0.961 . S
C2356 H2372 0.961 . S
C2357 C2358 1.370 . S
C2357 C2359 1.363 . S
C2357 H2373 0.931 . S
C2358 C2357 1.370 . S
C2358 C2362 1.408 . S
C2359 C2357 1.363 . S
C2359 C2360 1.370 . S
C2359 C2363 1.524 . S
C2360 C2352 1.503 . S
C2360 C2359 1.370 . S
C2360 C2361 1.403 . S
C2361 C2360 1.403 . S
C2361 C2362 1.404 . S
C2361 C2364 1.539 . S
C2362 C2358 1.408 . S
C2362 C2361 1.404 . S
C2362 H2374 0.930 . S
C2363 C2359 1.524 . S
C2363 H2375 0.956 . S
C2363 H2376 0.961 . S
C2363 H2377 0.961 . S
C2364 C2361 1.539 . S
C2364 H2378 0.958 . S
C2364 H2379 0.961 . S
C2364 H2380 0.960 . S
H2365 C2349 0.931 . S
H2366 C2354 0.929 . S
H2367 C2355 0.960 . S
H2368 C2355 0.962 . S
H2369 C2355 0.960 . S
H2370 C2356 0.961 . S
H2371 C2356 0.961 . S
H2372 C2356 0.961 . S
H2373 C2357 0.931 . S
H2374 C2362 0.930 . S
H2375 C2363 0.956 . S
H2376 C2363 0.961 . S
H2377 C2363 0.961 . S
H2378 C2364 0.958 . S
H2379 C2364 0.961 . S
H2380 C2364 0.960 . S
C2381 C2382 1.391 . S
C2381 C2383 1.394 . S
C2381 H2397 0.931 . S
C2382 C2381 1.391 . S
C2382 C2386 1.376 . S
C2383 C2381 1.394 . S
C2383 C2384 1.369 . S
C2383 C2387 1.531 . S
C2384 C2383 1.369 . S
C2384 C2385 1.410 . S
C2384 C2392 1.503 . S
C2385 C2384 1.410 . S
C2385 C2386 1.392 . S
C2385 C2388 1.511 . S
C2386 C2382 1.376 . S
C2386 C2385 1.392 . S
C2386 H2398 0.929 . S
C2387 C2383 1.531 . S
C2387 H2399 0.960 . S
C2387 H2400 0.962 . S
C2387 H2401 0.960 . S
C2388 C2385 1.511 . S
C2388 H2402 0.961 . S
C2388 H2403 0.961 . S
C2388 H2404 0.961 . S
C2389 C2390 1.370 . S
C2389 C2391 1.363 . S
C2389 H2405 0.931 . S
C2390 C2389 1.370 . S
C2390 C2394 1.408 . S
C2391 C2389 1.363 . S
C2391 C2392 1.370 . S
C2391 C2395 1.524 . S
C2392 C2384 1.503 . S
C2392 C2391 1.370 . S
C2392 C2393 1.403 . S
C2393 C2392 1.403 . S
C2393 C2394 1.404 . S
C2393 C2396 1.539 . S
C2394 C2390 1.408 . S
C2394 C2393 1.404 . S
C2394 H2406 0.930 . S
C2395 C2391 1.524 . S
C2395 H2407 0.956 . S
C2395 H2408 0.961 . S
C2395 H2409 0.961 . S
C2396 C2393 1.539 . S
C2396 H2410 0.958 . S
C2396 H2411 0.961 . S
C2396 H2412 0.960 . S
H2397 C2381 0.931 . S
H2398 C2386 0.929 . S
H2399 C2387 0.960 . S
H2400 C2387 0.962 . S
H2401 C2387 0.960 . S
H2402 C2388 0.961 . S
H2403 C2388 0.961 . S
H2404 C2388 0.961 . S
H2405 C2389 0.931 . S
H2406 C2394 0.930 . S
H2407 C2395 0.956 . S
H2408 C2395 0.961 . S
H2409 C2395 0.961 . S
H2410 C2396 0.958 . S
H2411 C2396 0.961 . S
H2412 C2396 0.960 . S
C2413 C2414 1.391 . S
C2413 C2415 1.394 . S
C2413 H2429 0.931 . S
C2414 C2413 1.391 . S
C2414 C2418 1.376 . S
C2415 C2413 1.394 . S
C2415 C2416 1.369 . S
C2415 C2419 1.531 . S
C2416 C2415 1.369 . S
C2416 C2417 1.410 . S
C2416 C2424 1.503 . S
C2417 C2416 1.410 . S
C2417 C2418 1.392 . S
C2417 C2420 1.511 . S
C2418 C2414 1.376 . S
C2418 C2417 1.392 . S
C2418 H2430 0.929 . S
C2419 C2415 1.531 . S
C2419 H2431 0.960 . S
C2419 H2432 0.962 . S
C2419 H2433 0.960 . S
C2420 C2417 1.511 . S
C2420 H2434 0.961 . S
C2420 H2435 0.961 . S
C2420 H2436 0.961 . S
C2421 C2422 1.370 . S
C2421 C2423 1.363 . S
C2421 H2437 0.931 . S
C2422 C2421 1.370 . S
C2422 C2426 1.408 . S
C2423 C2421 1.363 . S
C2423 C2424 1.370 . S
C2423 C2427 1.524 . S
C2424 C2416 1.503 . S
C2424 C2423 1.370 . S
C2424 C2425 1.403 . S
C2425 C2424 1.403 . S
C2425 C2426 1.404 . S
C2425 C2428 1.539 . S
C2426 C2422 1.408 . S
C2426 C2425 1.404 . S
C2426 H2438 0.930 . S
C2427 C2423 1.524 . S
C2427 H2439 0.956 . S
C2427 H2440 0.961 . S
C2427 H2441 0.961 . S
C2428 C2425 1.539 . S
C2428 H2442 0.958 . S
C2428 H2443 0.961 . S
C2428 H2444 0.960 . S
H2429 C2413 0.931 . S
H2430 C2418 0.929 . S
H2431 C2419 0.960 . S
H2432 C2419 0.962 . S
H2433 C2419 0.960 . S
H2434 C2420 0.961 . S
H2435 C2420 0.961 . S
H2436 C2420 0.961 . S
H2437 C2421 0.931 . S
H2438 C2426 0.930 . S
H2439 C2427 0.956 . S
H2440 C2427 0.961 . S
H2441 C2427 0.961 . S
H2442 C2428 0.958 . S
H2443 C2428 0.961 . S
H2444 C2428 0.960 . S
C2445 C2446 1.391 . S
C2445 C2447 1.394 . S
C2445 H2461 0.931 . S
C2446 C2445 1.391 . S
C2446 C2450 1.376 . S
C2447 C2445 1.394 . S
C2447 C2448 1.369 . S
C2447 C2451 1.531 . S
C2448 C2447 1.369 . S
C2448 C2449 1.410 . S
C2448 C2456 1.503 . S
C2449 C2448 1.410 . S
C2449 C2450 1.392 . S
C2449 C2452 1.511 . S
C2450 C2446 1.376 . S
C2450 C2449 1.392 . S
C2450 H2462 0.929 . S
C2451 C2447 1.531 . S
C2451 H2463 0.960 . S
C2451 H2464 0.962 . S
C2451 H2465 0.960 . S
C2452 C2449 1.511 . S
C2452 H2466 0.961 . S
C2452 H2467 0.961 . S
C2452 H2468 0.961 . S
C2453 C2454 1.370 . S
C2453 C2455 1.363 . S
C2453 H2469 0.931 . S
C2454 C2453 1.370 . S
C2454 C2458 1.408 . S
C2455 C2453 1.363 . S
C2455 C2456 1.370 . S
C2455 C2459 1.524 . S
C2456 C2448 1.503 . S
C2456 C2455 1.370 . S
C2456 C2457 1.403 . S
C2457 C2456 1.403 . S
C2457 C2458 1.404 . S
C2457 C2460 1.539 . S
C2458 C2454 1.408 . S
C2458 C2457 1.404 . S
C2458 H2470 0.930 . S
C2459 C2455 1.524 . S
C2459 H2471 0.956 . S
C2459 H2472 0.961 . S
C2459 H2473 0.961 . S
C2460 C2457 1.539 . S
C2460 H2474 0.958 . S
C2460 H2475 0.961 . S
C2460 H2476 0.960 . S
H2461 C2445 0.931 . S
H2462 C2450 0.929 . S
H2463 C2451 0.960 . S
H2464 C2451 0.962 . S
H2465 C2451 0.960 . S
H2466 C2452 0.961 . S
H2467 C2452 0.961 . S
H2468 C2452 0.961 . S
H2469 C2453 0.931 . S
H2470 C2458 0.930 . S
H2471 C2459 0.956 . S
H2472 C2459 0.961 . S
H2473 C2459 0.961 . S
H2474 C2460 0.958 . S
H2475 C2460 0.961 . S
H2476 C2460 0.960 . S
C2477 C2478 1.391 . S
C2477 C2479 1.394 . S
C2477 H2493 0.931 . S
C2478 C2477 1.391 . S
C2478 C2482 1.376 . S
C2479 C2477 1.394 . S
C2479 C2480 1.369 . S
C2479 C2483 1.531 . S
C2480 C2479 1.369 . S
C2480 C2481 1.410 . S
C2480 C2488 1.503 . S
C2481 C2480 1.410 . S
C2481 C2482 1.392 . S
C2481 C2484 1.511 . S
C2482 C2478 1.376 . S
C2482 C2481 1.392 . S
C2482 H2494 0.929 . S
C2483 C2479 1.531 . S
C2483 H2495 0.960 . S
C2483 H2496 0.962 . S
C2483 H2497 0.960 . S
C2484 C2481 1.511 . S
C2484 H2498 0.961 . S
C2484 H2499 0.961 . S
C2484 H2500 0.961 . S
C2485 C2486 1.370 . S
C2485 C2487 1.363 . S
C2485 H2501 0.931 . S
C2486 C2485 1.370 . S
C2486 C2490 1.408 . S
C2487 C2485 1.363 . S
C2487 C2488 1.370 . S
C2487 C2491 1.524 . S
C2488 C2480 1.503 . S
C2488 C2487 1.370 . S
C2488 C2489 1.403 . S
C2489 C2488 1.403 . S
C2489 C2490 1.404 . S
C2489 C2492 1.539 . S
C2490 C2486 1.408 . S
C2490 C2489 1.404 . S
C2490 H2502 0.930 . S
C2491 C2487 1.524 . S
C2491 H2503 0.956 . S
C2491 H2504 0.961 . S
C2491 H2505 0.961 . S
C2492 C2489 1.539 . S
C2492 H2506 0.958 . S
C2492 H2507 0.961 . S
C2492 H2508 0.960 . S
H2493 C2477 0.931 . S
H2494 C2482 0.929 . S
H2495 C2483 0.960 . S
H2496 C2483 0.962 . S
H2497 C2483 0.960 . S
H2498 C2484 0.961 . S
H2499 C2484 0.961 . S
H2500 C2484 0.961 . S
H2501 C2485 0.931 . S
H2502 C2490 0.930 . S
H2503 C2491 0.956 . S
H2504 C2491 0.961 . S
H2505 C2491 0.961 . S
H2506 C2492 0.958 . S
H2507 C2492 0.961 . S
H2508 C2492 0.960 . S
C2509 C2510 1.391 . S
C2509 C2511 1.394 . S
C2509 H2525 0.931 . S
C2510 C2509 1.391 . S
C2510 C2514 1.376 . S
C2511 C2509 1.394 . S
C2511 C2512 1.369 . S
C2511 C2515 1.531 . S
C2512 C2511 1.369 . S
C2512 C2513 1.410 . S
C2512 C2520 1.503 . S
C2513 C2512 1.410 . S
C2513 C2514 1.392 . S
C2513 C2516 1.511 . S
C2514 C2510 1.376 . S
C2514 C2513 1.392 . S
C2514 H2526 0.929 . S
C2515 C2511 1.531 . S
C2515 H2527 0.960 . S
C2515 H2528 0.962 . S
C2515 H2529 0.960 . S
C2516 C2513 1.511 . S
C2516 H2530 0.961 . S
C2516 H2531 0.961 . S
C2516 H2532 0.961 . S
C2517 C2518 1.370 . S
C2517 C2519 1.363 . S
C2517 H2533 0.931 . S
C2518 C2517 1.370 . S
C2518 C2522 1.408 . S
C2519 C2517 1.363 . S
C2519 C2520 1.370 . S
C2519 C2523 1.524 . S
C2520 C2512 1.503 . S
C2520 C2519 1.370 . S
C2520 C2521 1.403 . S
C2521 C2520 1.403 . S
C2521 C2522 1.404 . S
C2521 C2524 1.539 . S
C2522 C2518 1.408 . S
C2522 C2521 1.404 . S
C2522 H2534 0.930 . S
C2523 C2519 1.524 . S
C2523 H2535 0.956 . S
C2523 H2536 0.961 . S
C2523 H2537 0.961 . S
C2524 C2521 1.539 . S
C2524 H2538 0.958 . S
C2524 H2539 0.961 . S
C2524 H2540 0.960 . S
H2525 C2509 0.931 . S
H2526 C2514 0.929 . S
H2527 C2515 0.960 . S
H2528 C2515 0.962 . S
H2529 C2515 0.960 . S
H2530 C2516 0.961 . S
H2531 C2516 0.961 . S
H2532 C2516 0.961 . S
H2533 C2517 0.931 . S
H2534 C2522 0.930 . S
H2535 C2523 0.956 . S
H2536 C2523 0.961 . S
H2537 C2523 0.961 . S
H2538 C2524 0.958 . S
H2539 C2524 0.961 . S
H2540 C2524 0.960 . S
C2541 C2542 1.391 . S
C2541 C2543 1.394 . S
C2541 H2557 0.931 . S
C2542 C2541 1.391 . S
C2542 C2546 1.376 . S
C2543 C2541 1.394 . S
C2543 C2544 1.369 . S
C2543 C2547 1.531 . S
C2544 C2543 1.369 . S
C2544 C2545 1.410 . S
C2544 C2552 1.503 . S
C2545 C2544 1.410 . S
C2545 C2546 1.392 . S
C2545 C2548 1.511 . S
C2546 C2542 1.376 . S
C2546 C2545 1.392 . S
C2546 H2558 0.929 . S
C2547 C2543 1.531 . S
C2547 H2559 0.960 . S
C2547 H2560 0.962 . S
C2547 H2561 0.960 . S
C2548 C2545 1.511 . S
C2548 H2562 0.961 . S
C2548 H2563 0.961 . S
C2548 H2564 0.961 . S
C2549 C2550 1.370 . S
C2549 C2551 1.363 . S
C2549 H2565 0.931 . S
C2550 C2549 1.370 . S
C2550 C2554 1.408 . S
C2551 C2549 1.363 . S
C2551 C2552 1.370 . S
C2551 C2555 1.524 . S
C2552 C2544 1.503 . S
C2552 C2551 1.370 . S
C2552 C2553 1.403 . S
C2553 C2552 1.403 . S
C2553 C2554 1.404 . S
C2553 C2556 1.539 . S
C2554 C2550 1.408 . S
C2554 C2553 1.404 . S
C2554 H2566 0.930 . S
C2555 C2551 1.524 . S
C2555 H2567 0.956 . S
C2555 H2568 0.961 . S
C2555 H2569 0.961 . S
C2556 C2553 1.539 . S
C2556 H2570 0.958 . S
C2556 H2571 0.961 . S
C2556 H2572 0.960 . S
H2557 C2541 0.931 . S
H2558 C2546 0.929 . S
H2559 C2547 0.960 . S
H2560 C2547 0.962 . S
H2561 C2547 0.960 . S
H2562 C2548 0.961 . S
H2563 C2548 0.961 . S
H2564 C2548 0.961 . S
H2565 C2549 0.931 . S
H2566 C2554 0.930 . S
H2567 C2555 0.956 . S
H2568 C2555 0.961 . S
H2569 C2555 0.961 . S
H2570 C2556 0.958 . S
H2571 C2556 0.961 . S
H2572 C2556 0.960 . S
C2573 C2574 1.391 . S
C2573 C2575 1.394 . S
C2573 H2589 0.931 . S
C2574 C2573 1.391 . S
C2574 C2578 1.376 . S
C2575 C2573 1.394 . S
C2575 C2576 1.369 . S
C2575 C2579 1.531 . S
C2576 C2575 1.369 . S
C2576 C2577 1.410 . S
C2576 C2584 1.503 . S
C2577 C2576 1.410 . S
C2577 C2578 1.392 . S
C2577 C2580 1.511 . S
C2578 C2574 1.376 . S
C2578 C2577 1.392 . S
C2578 H2590 0.929 . S
C2579 C2575 1.531 . S
C2579 H2591 0.960 . S
C2579 H2592 0.962 . S
C2579 H2593 0.960 . S
C2580 C2577 1.511 . S
C2580 H2594 0.961 . S
C2580 H2595 0.961 . S
C2580 H2596 0.961 . S
C2581 C2582 1.370 . S
C2581 C2583 1.363 . S
C2581 H2597 0.931 . S
C2582 C2581 1.370 . S
C2582 C2586 1.408 . S
C2583 C2581 1.363 . S
C2583 C2584 1.370 . S
C2583 C2587 1.524 . S
C2584 C2576 1.503 . S
C2584 C2583 1.370 . S
C2584 C2585 1.403 . S
C2585 C2584 1.403 . S
C2585 C2586 1.404 . S
C2585 C2588 1.539 . S
C2586 C2582 1.408 . S
C2586 C2585 1.404 . S
C2586 H2598 0.930 . S
C2587 C2583 1.524 . S
C2587 H2599 0.956 . S
C2587 H2600 0.961 . S
C2587 H2601 0.961 . S
C2588 C2585 1.539 . S
C2588 H2602 0.958 . S
C2588 H2603 0.961 . S
C2588 H2604 0.960 . S
H2589 C2573 0.931 . S
H2590 C2578 0.929 . S
H2591 C2579 0.960 . S
H2592 C2579 0.962 . S
H2593 C2579 0.960 . S
H2594 C2580 0.961 . S
H2595 C2580 0.961 . S
H2596 C2580 0.961 . S
H2597 C2581 0.931 . S
H2598 C2586 0.930 . S
H2599 C2587 0.956 . S
H2600 C2587 0.961 . S
H2601 C2587 0.961 . S
H2602 C2588 0.958 . S
H2603 C2588 0.961 . S
H2604 C2588 0.960 . S
C2605 C2606 1.391 . S
C2605 C2607 1.394 . S
C2605 H2621 0.931 . S
C2606 C2605 1.391 . S
C2606 C2610 1.376 . S
C2607 C2605 1.394 . S
C2607 C2608 1.369 . S
C2607 C2611 1.531 . S
C2608 C2607 1.369 . S
C2608 C2609 1.410 . S
C2608 C2616 1.503 . S
C2609 C2608 1.410 . S
C2609 C2610 1.392 . S
C2609 C2612 1.511 . S
C2610 C2606 1.376 . S
C2610 C2609 1.392 . S
C2610 H2622 0.929 . S
C2611 C2607 1.531 . S
C2611 H2623 0.960 . S
C2611 H2624 0.962 . S
C2611 H2625 0.960 . S
C2612 C2609 1.511 . S
C2612 H2626 0.961 . S
C2612 H2627 0.961 . S
C2612 H2628 0.961 . S
C2613 C2614 1.370 . S
C2613 C2615 1.363 . S
C2613 H2629 0.931 . S
C2614 C2613 1.370 . S
C2614 C2618 1.408 . S
C2615 C2613 1.363 . S
C2615 C2616 1.370 . S
C2615 C2619 1.524 . S
C2616 C2608 1.503 . S
C2616 C2615 1.370 . S
C2616 C2617 1.403 . S
C2617 C2616 1.403 . S
C2617 C2618 1.404 . S
C2617 C2620 1.539 . S
C2618 C2614 1.408 . S
C2618 C2617 1.404 . S
C2618 H2630 0.930 . S
C2619 C2615 1.524 . S
C2619 H2631 0.956 . S
C2619 H2632 0.961 . S
C2619 H2633 0.961 . S
C2620 C2617 1.539 . S
C2620 H2634 0.958 . S
C2620 H2635 0.961 . S
C2620 H2636 0.960 . S
H2621 C2605 0.931 . S
H2622 C2610 0.929 . S
H2623 C2611 0.960 . S
H2624 C2611 0.962 . S
H2625 C2611 0.960 . S
H2626 C2612 0.961 . S
H2627 C2612 0.961 . S
H2628 C2612 0.961 . S
H2629 C2613 0.931 . S
H2630 C2618 0.930 . S
H2631 C2619 0.956 . S
H2632 C2619 0.961 . S
H2633 C2619 0.961 . S
H2634 C2620 0.958 . S
H2635 C2620 0.961 . S
H2636 C2620 0.960 . S
C910 C522 1.481 . S
C918 C737 1.405 . S
C942 C562 1.489 . S
C950 C758 1.366 . S
C974 C495 1.442 . S
C982 C780 1.162 . S
C1006 C455 1.401 . S
C1014 C759 1.224 1_556 S
C1046 C779 1.381 . S
C1038 C362 1.492 . S
C1070 C402 1.469 . S
C1078 C738 1.160 1_556 S
C1110 C733 1.353 . S
C1102 C442 1.423 . S
C1142 C754 1.326 . S
C1134 C375 1.359 . S
C1166 C415 1.496 . S
C1174 C777 1.231 1_556 S
C1198 C535 1.422 . S
C1206 C756 1.213 . S
C1230 C575 1.339 . S
C1238 C775 1.300 . S
C1270 C735 1.229 . S
C1262 C482 1.411 . S
C1302 C800 1.394 . S
C1294 C42 1.480 . S
C1326 C82 1.471 . S
C1334 C821 1.386 . S
C1358 C15 1.391 . S
C1366 C843 1.215 . S
C1390 C695 1.449 . S
C1398 C822 1.174 . S
C1422 C602 1.495 . S
C1430 C842 1.403 . S
C1454 C642 1.446 . S
C1462 C801 1.215 . S
C1486 C682 1.397 . S
C1494 C796 1.359 . S
C1518 C615 1.409 . S
C1526 C817 1.334 . S
C1558 C840 1.226 . S
C1550 C655 1.479 . S
C1582 C55 1.428 . S
C1590 C819 1.179 . S
C1622 C838 1.264 . S
C1614 C95 1.330 . S
C1646 C2 1.388 . S
C1654 C798 1.246 . S
C1686 C863 1.402 . S
C1678 C282 1.480 . S
C1710 C322 1.471 . S
C1718 C884 1.382 . S
C1750 C906 1.219 . S
C1742 C255 1.390 . S
C1782 C885 1.173 . S
C1774 C215 1.450 . S
C1814 C905 1.393 . S
C1806 C122 1.502 . S
C1838 C162 1.451 . S
C1846 C864 1.200 . S
C1870 C202 1.384 . S
C1878 C859 1.391 . S
C1902 C135 1.378 . S
C1910 C880 1.311 . S
C1942 C903 1.238 . S
C1934 C175 1.470 . S
C1966 C295 1.411 . S
C1974 C882 1.200 . S
C1998 C335 1.319 . S
C2006 C901 1.290 . S
C2030 C242 1.457 . S
C2038 C861 1.191 . S
C2062 C621 1.405 . S
C2070 C736 1.368 1_565 S
C2102 C757 1.424 . S
C2094 C661 1.474 . S
C2126 C701 1.509 . S
C2134 C776 1.511 . S
C2158 C261 1.548 . S
C2166 C755 1.542 1_655 S
C2190 C301 1.473 . S
C2198 C778 1.437 . S
C2230 C734 1.460 . S
C2222 C341 1.509 . S
C2254 C141 1.405 . S
C2262 C799 1.352 . S
C2286 C181 1.474 . S
C2294 C820 1.428 . S
C2318 C221 1.489 . S
C2326 C839 1.517 . S
C2350 C501 1.562 . S
C2358 C818 1.563 . S
C2390 C841 1.425 . S
C2382 C541 1.471 . S
C2414 C581 1.510 . S
C2422 C797 1.462 . S
C2446 C381 1.405 . S
C2454 C862 1.371 . S
C2478 C421 1.473 . S
C2486 C883 1.423 . S
C2518 C902 1.494 . S
C2510 C461 1.513 . S
C2542 C21 1.548 . S
C2550 C881 1.547 . S
C2574 C61 1.471 . S
C2582 C904 1.425 . S
C2606 C101 1.509 . S
C2614 C860 1.465 . S
