# Generated by pormake.
# Topology gar, (4,6)-cn, num edge types: 1
# Building blocks:
#     Node 0, Type 0, BuildingBlock: QUQFOY_clean_sbu_3, # of connection points: 4
#     Node 1, Type 0, BuildingBlock: QUQFOY_clean_sbu_3, # of connection points: 4
#     Node 2, Type 0, BuildingBlock: QUQFOY_clean_sbu_3, # of connection points: 4
#     Node 3, Type 0, BuildingBlock: QUQFOY_clean_sbu_3, # of connection points: 4
#     Node 4, Type 0, BuildingBlock: QUQFOY_clean_sbu_3, # of connection points: 4
#     Node 5, Type 0, BuildingBlock: QUQFOY_clean_sbu_3, # of connection points: 4
#     Node 6, Type 0, BuildingBlock: QUQFOY_clean_sbu_3, # of connection points: 4
#     Node 7, Type 0, BuildingBlock: QUQFOY_clean_sbu_3, # of connection points: 4
#     Node 8, Type 0, BuildingBlock: QUQFOY_clean_sbu_3, # of connection points: 4
#     Node 9, Type 0, BuildingBlock: QUQFOY_clean_sbu_3, # of connection points: 4
#     Node 10, Type 0, BuildingBlock: QUQFOY_clean_sbu_3, # of connection points: 4
#     Node 11, Type 0, BuildingBlock: QUQFOY_clean_sbu_3, # of connection points: 4
#     Node 12, Type 0, BuildingBlock: QUQFOY_clean_sbu_3, # of connection points: 4
#     Node 13, Type 0, BuildingBlock: QUQFOY_clean_sbu_3, # of connection points: 4
#     Node 14, Type 0, BuildingBlock: QUQFOY_clean_sbu_3, # of connection points: 4
#     Node 15, Type 0, BuildingBlock: QUQFOY_clean_sbu_3, # of connection points: 4
#     Node 16, Type 0, BuildingBlock: QUQFOY_clean_sbu_3, # of connection points: 4
#     Node 17, Type 0, BuildingBlock: QUQFOY_clean_sbu_3, # of connection points: 4
#     Node 18, Type 0, BuildingBlock: QUQFOY_clean_sbu_3, # of connection points: 4
#     Node 19, Type 0, BuildingBlock: QUQFOY_clean_sbu_3, # of connection points: 4
#     Node 20, Type 0, BuildingBlock: QUQFOY_clean_sbu_3, # of connection points: 4
#     Node 21, Type 0, BuildingBlock: QUQFOY_clean_sbu_3, # of connection points: 4
#     Node 22, Type 0, BuildingBlock: QUQFOY_clean_sbu_3, # of connection points: 4
#     Node 23, Type 0, BuildingBlock: QUQFOY_clean_sbu_3, # of connection points: 4
#     Node 24, Type 1, BuildingBlock: GEDQOX_clean_sbu_0, # of connection points: 6
#     Node 25, Type 1, BuildingBlock: GEDQOX_clean_sbu_0, # of connection points: 6
#     Node 26, Type 1, BuildingBlock: GEDQOX_clean_sbu_0, # of connection points: 6
#     Node 27, Type 1, BuildingBlock: GEDQOX_clean_sbu_0, # of connection points: 6
#     Node 28, Type 1, BuildingBlock: GEDQOX_clean_sbu_0, # of connection points: 6
#     Node 29, Type 1, BuildingBlock: GEDQOX_clean_sbu_0, # of connection points: 6
#     Node 30, Type 1, BuildingBlock: GEDQOX_clean_sbu_0, # of connection points: 6
#     Node 31, Type 1, BuildingBlock: GEDQOX_clean_sbu_0, # of connection points: 6
#     Node 32, Type 1, BuildingBlock: GEDQOX_clean_sbu_0, # of connection points: 6
#     Node 33, Type 1, BuildingBlock: GEDQOX_clean_sbu_0, # of connection points: 6
#     Node 34, Type 1, BuildingBlock: GEDQOX_clean_sbu_0, # of connection points: 6
#     Node 35, Type 1, BuildingBlock: GEDQOX_clean_sbu_0, # of connection points: 6
#     Node 36, Type 1, BuildingBlock: GEDQOX_clean_sbu_0, # of connection points: 6
#     Node 37, Type 1, BuildingBlock: GEDQOX_clean_sbu_0, # of connection points: 6
#     Node 38, Type 1, BuildingBlock: GEDQOX_clean_sbu_0, # of connection points: 6
#     Node 39, Type 1, BuildingBlock: GEDQOX_clean_sbu_0, # of connection points: 6
#     Edge 40, Type (0, 1), BuildingBlock: MIFKUJ_clean_linker_0, # of connection points: 2
#     Edge 41, Type (0, 1), BuildingBlock: MIFKUJ_clean_linker_0, # of connection points: 2
#     Edge 42, Type (0, 1), BuildingBlock: MIFKUJ_clean_linker_0, # of connection points: 2
#     Edge 43, Type (0, 1), BuildingBlock: MIFKUJ_clean_linker_0, # of connection points: 2
#     Edge 44, Type (0, 1), BuildingBlock: MIFKUJ_clean_linker_0, # of connection points: 2
#     Edge 45, Type (0, 1), BuildingBlock: MIFKUJ_clean_linker_0, # of connection points: 2
#     Edge 46, Type (0, 1), BuildingBlock: MIFKUJ_clean_linker_0, # of connection points: 2
#     Edge 47, Type (0, 1), BuildingBlock: MIFKUJ_clean_linker_0, # of connection points: 2
#     Edge 48, Type (0, 1), BuildingBlock: MIFKUJ_clean_linker_0, # of connection points: 2
#     Edge 49, Type (0, 1), BuildingBlock: MIFKUJ_clean_linker_0, # of connection points: 2
#     Edge 50, Type (0, 1), BuildingBlock: MIFKUJ_clean_linker_0, # of connection points: 2
#     Edge 51, Type (0, 1), BuildingBlock: MIFKUJ_clean_linker_0, # of connection points: 2
#     Edge 52, Type (0, 1), BuildingBlock: MIFKUJ_clean_linker_0, # of connection points: 2
#     Edge 53, Type (0, 1), BuildingBlock: MIFKUJ_clean_linker_0, # of connection points: 2
#     Edge 54, Type (0, 1), BuildingBlock: MIFKUJ_clean_linker_0, # of connection points: 2
#     Edge 55, Type (0, 1), BuildingBlock: MIFKUJ_clean_linker_0, # of connection points: 2
#     Edge 56, Type (0, 1), BuildingBlock: MIFKUJ_clean_linker_0, # of connection points: 2
#     Edge 57, Type (0, 1), BuildingBlock: MIFKUJ_clean_linker_0, # of connection points: 2
#     Edge 58, Type (0, 1), BuildingBlock: MIFKUJ_clean_linker_0, # of connection points: 2
#     Edge 59, Type (0, 1), BuildingBlock: MIFKUJ_clean_linker_0, # of connection points: 2
#     Edge 60, Type (0, 1), BuildingBlock: MIFKUJ_clean_linker_0, # of connection points: 2
#     Edge 61, Type (0, 1), BuildingBlock: MIFKUJ_clean_linker_0, # of connection points: 2
#     Edge 62, Type (0, 1), BuildingBlock: MIFKUJ_clean_linker_0, # of connection points: 2
#     Edge 63, Type (0, 1), BuildingBlock: MIFKUJ_clean_linker_0, # of connection points: 2
#     Edge 64, Type (0, 1), BuildingBlock: MIFKUJ_clean_linker_0, # of connection points: 2
#     Edge 65, Type (0, 1), BuildingBlock: MIFKUJ_clean_linker_0, # of connection points: 2
#     Edge 66, Type (0, 1), BuildingBlock: MIFKUJ_clean_linker_0, # of connection points: 2
#     Edge 67, Type (0, 1), BuildingBlock: MIFKUJ_clean_linker_0, # of connection points: 2
#     Edge 68, Type (0, 1), BuildingBlock: MIFKUJ_clean_linker_0, # of connection points: 2
#     Edge 69, Type (0, 1), BuildingBlock: MIFKUJ_clean_linker_0, # of connection points: 2
#     Edge 70, Type (0, 1), BuildingBlock: MIFKUJ_clean_linker_0, # of connection points: 2
#     Edge 71, Type (0, 1), BuildingBlock: MIFKUJ_clean_linker_0, # of connection points: 2
#     Edge 72, Type (0, 1), BuildingBlock: MIFKUJ_clean_linker_0, # of connection points: 2
#     Edge 73, Type (0, 1), BuildingBlock: MIFKUJ_clean_linker_0, # of connection points: 2
#     Edge 74, Type (0, 1), BuildingBlock: MIFKUJ_clean_linker_0, # of connection points: 2
#     Edge 75, Type (0, 1), BuildingBlock: MIFKUJ_clean_linker_0, # of connection points: 2
#     Edge 76, Type (0, 1), BuildingBlock: MIFKUJ_clean_linker_0, # of connection points: 2
#     Edge 77, Type (0, 1), BuildingBlock: MIFKUJ_clean_linker_0, # of connection points: 2
#     Edge 78, Type (0, 1), BuildingBlock: MIFKUJ_clean_linker_0, # of connection points: 2
#     Edge 79, Type (0, 1), BuildingBlock: MIFKUJ_clean_linker_0, # of connection points: 2
#     Edge 80, Type (0, 1), BuildingBlock: MIFKUJ_clean_linker_0, # of connection points: 2
#     Edge 81, Type (0, 1), BuildingBlock: MIFKUJ_clean_linker_0, # of connection points: 2
#     Edge 82, Type (0, 1), BuildingBlock: MIFKUJ_clean_linker_0, # of connection points: 2
#     Edge 83, Type (0, 1), BuildingBlock: MIFKUJ_clean_linker_0, # of connection points: 2
#     Edge 84, Type (0, 1), BuildingBlock: MIFKUJ_clean_linker_0, # of connection points: 2
#     Edge 85, Type (0, 1), BuildingBlock: MIFKUJ_clean_linker_0, # of connection points: 2
#     Edge 86, Type (0, 1), BuildingBlock: MIFKUJ_clean_linker_0, # of connection points: 2
#     Edge 87, Type (0, 1), BuildingBlock: MIFKUJ_clean_linker_0, # of connection points: 2
#     Edge 88, Type (0, 1), BuildingBlock: MIFKUJ_clean_linker_0, # of connection points: 2
#     Edge 89, Type (0, 1), BuildingBlock: MIFKUJ_clean_linker_0, # of connection points: 2
#     Edge 90, Type (0, 1), BuildingBlock: MIFKUJ_clean_linker_0, # of connection points: 2
#     Edge 91, Type (0, 1), BuildingBlock: MIFKUJ_clean_linker_0, # of connection points: 2
#     Edge 92, Type (0, 1), BuildingBlock: MIFKUJ_clean_linker_0, # of connection points: 2
#     Edge 93, Type (0, 1), BuildingBlock: MIFKUJ_clean_linker_0, # of connection points: 2
#     Edge 94, Type (0, 1), BuildingBlock: MIFKUJ_clean_linker_0, # of connection points: 2
#     Edge 95, Type (0, 1), BuildingBlock: MIFKUJ_clean_linker_0, # of connection points: 2
#     Edge 96, Type (0, 1), BuildingBlock: MIFKUJ_clean_linker_0, # of connection points: 2
#     Edge 97, Type (0, 1), BuildingBlock: MIFKUJ_clean_linker_0, # of connection points: 2
#     Edge 98, Type (0, 1), BuildingBlock: MIFKUJ_clean_linker_0, # of connection points: 2
#     Edge 99, Type (0, 1), BuildingBlock: MIFKUJ_clean_linker_0, # of connection points: 2
#     Edge 100, Type (0, 1), BuildingBlock: MIFKUJ_clean_linker_0, # of connection points: 2
#     Edge 101, Type (0, 1), BuildingBlock: MIFKUJ_clean_linker_0, # of connection points: 2
#     Edge 102, Type (0, 1), BuildingBlock: MIFKUJ_clean_linker_0, # of connection points: 2
#     Edge 103, Type (0, 1), BuildingBlock: MIFKUJ_clean_linker_0, # of connection points: 2
#     Edge 104, Type (0, 1), BuildingBlock: MIFKUJ_clean_linker_0, # of connection points: 2
#     Edge 105, Type (0, 1), BuildingBlock: MIFKUJ_clean_linker_0, # of connection points: 2
#     Edge 106, Type (0, 1), BuildingBlock: MIFKUJ_clean_linker_0, # of connection points: 2
#     Edge 107, Type (0, 1), BuildingBlock: MIFKUJ_clean_linker_0, # of connection points: 2
#     Edge 108, Type (0, 1), BuildingBlock: MIFKUJ_clean_linker_0, # of connection points: 2
#     Edge 109, Type (0, 1), BuildingBlock: MIFKUJ_clean_linker_0, # of connection points: 2
#     Edge 110, Type (0, 1), BuildingBlock: MIFKUJ_clean_linker_0, # of connection points: 2
#     Edge 111, Type (0, 1), BuildingBlock: MIFKUJ_clean_linker_0, # of connection points: 2
#     Edge 112, Type (0, 1), BuildingBlock: MIFKUJ_clean_linker_0, # of connection points: 2
#     Edge 113, Type (0, 1), BuildingBlock: MIFKUJ_clean_linker_0, # of connection points: 2
#     Edge 114, Type (0, 1), BuildingBlock: MIFKUJ_clean_linker_0, # of connection points: 2
#     Edge 115, Type (0, 1), BuildingBlock: MIFKUJ_clean_linker_0, # of connection points: 2
#     Edge 116, Type (0, 1), BuildingBlock: MIFKUJ_clean_linker_0, # of connection points: 2
#     Edge 117, Type (0, 1), BuildingBlock: MIFKUJ_clean_linker_0, # of connection points: 2
#     Edge 118, Type (0, 1), BuildingBlock: MIFKUJ_clean_linker_0, # of connection points: 2
#     Edge 119, Type (0, 1), BuildingBlock: MIFKUJ_clean_linker_0, # of connection points: 2
#     Edge 120, Type (0, 1), BuildingBlock: MIFKUJ_clean_linker_0, # of connection points: 2
#     Edge 121, Type (0, 1), BuildingBlock: MIFKUJ_clean_linker_0, # of connection points: 2
#     Edge 122, Type (0, 1), BuildingBlock: MIFKUJ_clean_linker_0, # of connection points: 2
#     Edge 123, Type (0, 1), BuildingBlock: MIFKUJ_clean_linker_0, # of connection points: 2
#     Edge 124, Type (0, 1), BuildingBlock: MIFKUJ_clean_linker_0, # of connection points: 2
#     Edge 125, Type (0, 1), BuildingBlock: MIFKUJ_clean_linker_0, # of connection points: 2
#     Edge 126, Type (0, 1), BuildingBlock: MIFKUJ_clean_linker_0, # of connection points: 2
#     Edge 127, Type (0, 1), BuildingBlock: MIFKUJ_clean_linker_0, # of connection points: 2
#     Edge 128, Type (0, 1), BuildingBlock: MIFKUJ_clean_linker_0, # of connection points: 2
#     Edge 129, Type (0, 1), BuildingBlock: MIFKUJ_clean_linker_0, # of connection points: 2
#     Edge 130, Type (0, 1), BuildingBlock: MIFKUJ_clean_linker_0, # of connection points: 2
#     Edge 131, Type (0, 1), BuildingBlock: MIFKUJ_clean_linker_0, # of connection points: 2
#     Edge 132, Type (0, 1), BuildingBlock: MIFKUJ_clean_linker_0, # of connection points: 2
#     Edge 133, Type (0, 1), BuildingBlock: MIFKUJ_clean_linker_0, # of connection points: 2
#     Edge 134, Type (0, 1), BuildingBlock: MIFKUJ_clean_linker_0, # of connection points: 2
#     Edge 135, Type (0, 1), BuildingBlock: MIFKUJ_clean_linker_0, # of connection points: 2
# Relax obj value: 0.225
# Max RMSD: 0.368
# Mean RMSD: 0.159
data_MOF--net-gar--node1-QUQFOY_clean_sbu_3--node2-GEDQOX_clean_sbu_0--edge1-MIFKUJ_clean_linker_0
_symmetry_space_group_name_H-M    P1
_symmetry_Int_Tables_number       1
_symmetry_cell_setting            triclinic
loop_
_symmetry_equiv_pos_as_xyz
'x, y, z'
_cell_length_a     77.879953
_cell_length_b     76.521701
_cell_length_c     70.224466
_cell_angle_alpha  97.562014
_cell_angle_beta   96.583049
_cell_angle_gamma 100.3231
loop_
_atom_site_label
_atom_site_type_symbol
_atom_site_fract_x
_atom_site_fract_y
_atom_site_fract_z
_atom_type_partial_charge
C0 C 0.03167 0.36096 0.44997 0.0
O1 O 0.04223 0.37298 0.44381 0.0
Cd2 Cd 0.07392 0.37528 0.44443 0.0
O3 O 0.03734 0.34955 0.45931 0.0
Cd4 Cd 0.06396 0.33988 0.47073 0.0
C5 C 0.08373 0.37614 0.48939 0.0
O6 O 0.0708 0.34377 0.4392 0.0
O7 O 0.0894 0.33247 0.45683 0.0
O8 O 0.04475 0.31167 0.46289 0.0
C9 C 0.08476 0.33755 0.44083 0.0
O10 O 0.09014 0.37161 0.47425 0.0
C11 C 0.04843 0.30712 0.47932 0.0
O12 O 0.07621 0.36363 0.49744 0.0
O13 O 0.05973 0.31795 0.49194 0.0
C14 C 0.9665 0.76308 0.66925 0.0
O15 O 0.97957 0.76025 0.68013 0.0
Cd16 Cd 0.00921 0.76375 0.6759 0.0
O17 O 0.96815 0.76942 0.65357 0.0
Cd18 Cd 0.99194 0.77728 0.63507 0.0
C19 C 0.99626 0.73542 0.63239 0.0
O20 O 0.01389 0.78937 0.66126 0.0
O21 O 0.02366 0.78121 0.63473 0.0
O22 O 0.98201 0.80389 0.63146 0.0
C23 C 0.02699 0.78811 0.65249 0.0
O24 O 1.00496 0.73962 0.64939 0.0
C25 C 0.98721 0.80485 0.61507 0.0
O26 O 0.98875 0.74641 0.62406 0.0
O27 O 0.99071 0.7907 0.60594 0.0
C28 C 0.53329 0.85574 0.95049 0.0
O29 O 0.5414 0.86977 0.94502 0.0
Cd30 Cd 0.57289 0.87306 0.94362 0.0
O31 O 0.54166 0.84572 0.95937 0.0
Cd32 Cd 0.56928 0.84023 0.97444 0.0
C33 C 0.58701 0.87893 0.98919 0.0
O34 O 0.57187 0.84171 0.94127 0.0
O35 O 0.59338 0.83334 0.95769 0.0
O36 O 0.54517 0.81872 0.97989 0.0
C37 C 0.58652 0.83682 0.94167 0.0
O38 O 0.59208 0.87396 0.9733 0.0
C39 C 0.55455 0.80807 0.98577 0.0
O40 O 0.5802 0.86675 0.9982 0.0
O41 O 0.5712 0.8129 0.98732 0.0
C42 C 0.46587 0.2583 0.16913 0.0
O43 O 0.47708 0.25126 0.17844 0.0
Cd44 Cd 0.50723 0.25432 0.17543 0.0
O45 O 0.46981 0.26776 0.15615 0.0
Cd46 Cd 0.49411 0.27699 0.13978 0.0
C47 C 0.49864 0.23596 0.12724 0.0
O48 O 0.5144 0.28332 0.16805 0.0
O49 O 0.52595 0.28264 0.14156 0.0
O50 O 0.4871 0.30562 0.14098 0.0
C51 C 0.5281 0.28486 0.15992 0.0
O52 O 0.50548 0.23641 0.14468 0.0
C53 C 0.49023 0.30716 0.12388 0.0
O54 O 0.49157 0.24851 0.12176 0.0
O55 O 0.49227 0.29322 0.11305 0.0
C56 C 0.98333 0.78489 0.23313 0.0
O57 O 0.9909 0.77387 0.24121 0.0
Cd58 Cd 0.02088 0.77086 0.23639 0.0
O59 O 0.9915 0.79412 0.22182 0.0
Cd60 Cd 0.02121 0.79304 0.20865 0.0
C61 C 0.01677 0.74834 0.19233 0.0
O62 O 0.04543 0.7962 0.23779 0.0
O63 O 0.05235 0.79078 0.20904 0.0
O64 O 0.02622 0.82426 0.20193 0.0
C65 C 0.05749 0.79466 0.22713 0.0
O66 O 0.02042 0.74709 0.21012 0.0
C67 C 0.02269 0.81993 0.1836 0.0
O68 O 0.01457 0.76333 0.1875 0.0
O69 O 0.01824 0.80327 0.17707 0.0
C70 C 0.49696 0.81408 0.36752 0.0
O71 O 0.50631 0.81497 0.35395 0.0
Cd72 Cd 0.53387 0.82591 0.37553 0.0
O73 O 0.50497 0.81559 0.38477 0.0
Cd74 Cd 0.5391 0.81625 0.3956 0.0
C75 C 0.53858 0.85788 0.41077 0.0
O76 O 0.55885 0.81385 0.36786 0.0
O77 O 0.57187 0.82589 0.39638 0.0
O78 O 0.532 0.78477 0.40181 0.0
C79 C 0.57336 0.81981 0.37907 0.0
O80 O 0.53568 0.85674 0.39245 0.0
C81 C 0.53736 0.78877 0.41994 0.0
O82 O 0.54083 0.84394 0.4178 0.0
O83 O 0.54388 0.80517 0.42632 0.0
C84 C 0.48354 0.28584 0.73234 0.0
O85 O 0.49255 0.27835 0.74383 0.0
Cd86 Cd 0.52127 0.27254 0.73698 0.0
O87 O 0.49032 0.29162 0.71806 0.0
Cd88 Cd 0.52118 0.29306 0.70724 0.0
C89 C 0.51654 0.249 0.69241 0.0
O90 O 0.54479 0.29798 0.73748 0.0
O91 O 0.55258 0.29127 0.7094 0.0
O92 O 0.5192 0.32334 0.69975 0.0
C93 C 0.55719 0.29595 0.72749 0.0
O94 O 0.52119 0.24863 0.71026 0.0
C95 C 0.523 0.32026 0.68266 0.0
O96 O 0.51328 0.26335 0.68684 0.0
O97 O 0.52572 0.30469 0.67706 0.0
C98 C 0.99801 0.3171 0.86372 0.0
O99 O 1.00765 0.32615 0.85365 0.0
Cd100 Cd 0.03892 0.33536 0.86507 0.0
O101 O 1.00552 0.31153 0.8783 0.0
Cd102 Cd 0.03836 0.31482 0.89365 0.0
C103 C 0.04031 0.35851 0.90938 0.0
O104 O 0.05779 0.31285 0.86701 0.0
O105 O 0.07116 0.32591 0.8951 0.0
O106 O 0.03691 0.2838 0.90073 0.0
C107 C 0.07241 0.31901 0.87798 0.0
O108 O 0.04192 0.36029 0.89189 0.0
C109 C 0.03689 0.28802 0.91884 0.0
O110 O 0.03835 0.34299 0.91429 0.0
O111 O 0.03776 0.30448 0.92517 0.0
C112 C 0.45411 0.10392 0.33345 0.0
O113 O 0.46119 0.09522 0.32092 0.0
Cd114 Cd 0.45578 0.08987 0.28655 0.0
O115 O 0.4419 0.11233 0.32826 0.0
Cd116 Cd 0.42568 0.11517 0.29474 0.0
C117 C 0.41252 0.06943 0.28534 0.0
O118 O 0.45038 0.11664 0.27626 0.0
O119 O 0.42499 0.10932 0.25892 0.0
O120 O 0.42015 0.14656 0.29894 0.0
C121 C 0.44159 0.11245 0.25947 0.0
O122 O 0.42798 0.06841 0.28164 0.0
C123 C 0.40342 0.14188 0.29556 0.0
O124 O 0.40862 0.0845 0.29138 0.0
O125 O 0.39723 0.12509 0.29279 0.0
C126 C 0.2857 0.11654 0.49595 0.0
O127 O 0.27435 0.10537 0.50212 0.0
Cd128 Cd 0.24529 0.10935 0.50717 0.0
O129 O 0.28161 0.13015 0.48943 0.0
Cd130 Cd 0.25549 0.14262 0.4842 0.0
C131 C 0.26141 0.1512 0.53263 0.0
O132 O 0.23092 0.11763 0.47907 0.0
O133 O 0.22608 0.1438 0.49001 0.0
O134 O 0.25999 0.1506 0.45268 0.0
C135 C 0.22006 0.12718 0.48438 0.0
O136 O 0.25231 0.13566 0.53292 0.0
C137 C 0.2611 0.16727 0.45865 0.0
O138 O 0.26552 0.15623 0.51696 0.0
O139 O 0.25934 0.17194 0.47623 0.0
C140 C 0.13427 0.0427 0.85003 0.0
O141 O 0.1274 0.05237 0.83911 0.0
Cd142 Cd 0.13371 0.06032 0.80836 0.0
O143 O 0.14728 0.03553 0.84497 0.0
Cd144 Cd 0.16515 0.03421 0.81354 0.0
C145 C 0.17742 0.08377 0.81532 0.0
O146 O 0.13726 0.03265 0.79156 0.0
O147 O 0.15931 0.03124 0.77648 0.0
O148 O 0.16615 1.00038 0.81456 0.0
C149 C 0.14305 0.0317 0.77544 0.0
O150 O 0.16083 0.08301 0.81238 0.0
C151 C 0.18229 1.00065 0.81285 0.0
O152 O 0.18327 0.06907 0.81692 0.0
O153 O 0.19101 0.01631 0.81223 0.0
C154 C 0.25378 0.94039 0.05584 0.0
O155 O 0.24556 0.94755 0.04325 0.0
Cd156 Cd 0.21556 0.93656 0.02888 0.0
O157 O 0.24628 0.92668 0.06237 0.0
Cd158 Cd 0.21674 0.90739 0.05931 0.0
C159 C 0.22004 0.89405 0.01013 0.0
O160 O 0.20378 0.93377 0.05845 0.0
O161 O 0.18441 0.90995 0.05806 0.0
O162 O 0.22581 0.90815 0.09422 0.0
C163 C 0.18781 0.9269 0.0585 0.0
O164 O 0.21667 0.90912 0.00677 0.0
C165 C 0.22319 0.89124 0.09375 0.0
O166 O 0.22132 0.89035 0.02741 0.0
O167 O 0.2169 0.88164 0.07739 0.0
C168 C 0.32918 0.49881 0.10879 0.0
O169 O 0.31851 0.5066 0.09963 0.0
Cd170 Cd 0.28689 0.49879 0.09235 0.0
O171 O 0.32367 0.48516 0.1166 0.0
Cd172 Cd 0.29505 0.46704 0.11846 0.0
C173 C 0.28737 0.45694 0.06956 0.0
O174 O 0.27578 0.4881 0.11938 0.0
O175 O 0.26354 0.46006 0.11254 0.0
O176 O 0.29924 0.45872 0.15058 0.0
C177 C 0.26176 0.47627 0.11437 0.0
O178 O 0.28237 0.47178 0.06828 0.0
C179 C 0.29607 0.44202 0.14369 0.0
O180 O 0.29389 0.45331 0.08566 0.0
O181 O 0.29404 0.43763 0.1254 0.0
C182 C 0.86322 0.17165 0.0476 0.0
O183 O 0.85389 0.16336 0.05851 0.0
Cd184 Cd 0.82575 0.16805 0.06567 0.0
O185 O 0.85827 0.18445 0.0398 0.0
Cd186 Cd 0.83161 0.19964 0.04035 0.0
C187 C 0.83006 0.21138 0.08936 0.0
O188 O 0.81005 0.17125 0.03581 0.0
O189 O 0.80008 0.19571 0.04146 0.0
O190 O 0.82575 0.19962 0.0055 0.0
C191 C 0.79688 0.17875 0.03695 0.0
O192 O 0.82681 0.19445 0.08912 0.0
C193 C 0.8291 0.21648 0.00586 0.0
O194 O 0.83376 0.2178 0.07403 0.0
O195 O 0.83497 0.22601 0.02235 0.0
C196 C 0.09873 0.50299 0.33341 0.0
O197 O 0.08981 0.50921 0.32059 0.0
Cd198 Cd 0.09796 0.51533 0.29047 0.0
O199 O 0.11263 0.49723 0.32983 0.0
Cd200 Cd 0.12839 0.49316 0.30031 0.0
C201 C 0.14094 0.53812 0.30688 0.0
O202 O 0.10401 0.48893 0.27346 0.0
O203 O 0.12938 0.50038 0.2668 0.0
O204 O 0.13238 0.46146 0.2983 0.0
C205 C 0.11305 0.49468 0.2609 0.0
O206 O 0.12511 0.53801 0.29975 0.0
C207 C 0.14888 0.46536 0.30409 0.0
O208 O 0.14591 0.52354 0.30955 0.0
O209 O 0.15581 0.48198 0.30793 0.0
C210 C 0.83095 0.99616 0.61113 0.0
O211 O 0.82173 1.00583 0.60279 0.0
Cd212 Cd 0.79042 1.00001 0.5933 0.0
O213 O 0.82391 0.98215 0.6175 0.0
Cd214 Cd 0.79402 0.96693 0.62036 0.0
C215 C 0.78642 0.95658 0.57136 0.0
O216 O 0.7779 0.99064 0.62018 0.0
O217 O 0.76262 0.96407 0.61892 0.0
O218 O 0.79947 0.95919 0.65259 0.0
C219 C 0.76282 0.9804 0.61762 0.0
O220 O 0.78547 0.97273 0.56955 0.0
C221 C 0.79346 0.94257 0.64622 0.0
O222 O 0.78991 0.95174 0.58774 0.0
O223 O 0.78934 0.93774 0.62804 0.0
C224 C 0.92426 0.06919 0.32348 0.0
O225 O 0.93095 0.05894 0.31197 0.0
Cd226 Cd 0.92162 0.04736 0.27845 0.0
O227 O 0.91085 0.07566 0.3172 0.0
Cd228 Cd 0.89159 0.07474 0.2831 0.0
C229 C 0.87872 0.02544 0.28175 0.0
O230 O 0.91844 0.07422 0.26623 0.0
O231 O 0.8957 0.07427 0.24645 0.0
O232 O 0.89156 0.10885 0.29255 0.0
C233 C 0.91209 0.07413 0.24881 0.0
O234 O 0.89464 0.02546 0.27912 0.0
C235 C 0.87517 0.10865 0.28841 0.0
O236 O 0.87341 0.04065 0.28374 0.0
O237 O 0.86595 0.09295 0.2822 0.0
C238 C 0.36131 0.66992 0.5478 0.0
O239 O 0.3509 0.66216 0.55808 0.0
Cd240 Cd 0.32409 0.67008 0.56503 0.0
O241 O 0.35793 0.68362 0.54049 0.0
Cd242 Cd 0.33123 0.69938 0.54006 0.0
C243 C 0.33103 0.71346 0.58864 0.0
O244 O 0.30843 0.67189 0.53427 0.0
O245 O 0.29993 0.69638 0.54402 0.0
O246 O 0.32695 0.69981 0.50503 0.0
C247 C 0.29583 0.67989 0.53679 0.0
O248 O 0.32732 0.69672 0.58947 0.0
C249 C 0.32946 0.71672 0.50586 0.0
O250 O 0.33408 0.71886 0.57266 0.0
O251 O 0.33399 0.72597 0.52268 0.0
C252 C 0.4226 0.56962 0.8257 0.0
O253 O 0.43012 0.55978 0.81479 0.0
Cd254 Cd 0.42043 0.55034 0.78104 0.0
O255 O 0.40935 0.57583 0.81856 0.0
Cd256 Cd 0.39143 0.57494 0.78382 0.0
C257 C 0.37844 0.52611 0.78224 0.0
O258 O 0.41922 0.57752 0.76751 0.0
O259 O 0.39574 0.57035 0.74723 0.0
O260 O 0.39032 0.60844 0.79591 0.0
C261 C 0.41248 0.57456 0.74982 0.0
O262 O 0.39429 0.52635 0.77919 0.0
C263 C 0.37476 0.60886 0.78839 0.0
O264 O 0.3732 0.54128 0.78513 0.0
O265 O 0.36643 0.59377 0.7789 0.0
C266 C 0.60065 1.00327 0.83466 0.0
O267 O 0.59136 0.01054 0.82317 0.0
Cd268 Cd 0.59681 0.01817 0.79271 0.0
O269 O 0.61398 0.99711 0.82963 0.0
Cd270 Cd 0.62838 0.99266 0.79895 0.0
C271 C 0.64108 0.03828 0.80688 0.0
O272 O 0.60181 0.99133 0.7763 0.0
O273 O 0.62499 0.99181 0.76263 0.0
O274 O 0.6327 0.96248 0.80569 0.0
C275 C 0.60865 0.99194 0.76088 0.0
O276 O 0.62503 0.03891 0.80156 0.0
C277 C 0.64875 0.96485 0.80285 0.0
O278 O 0.64596 0.02331 0.80762 0.0
O279 O 0.65514 0.9799 0.79815 0.0
C280 C 0.78632 0.61984 0.99569 0.0
O281 O 0.77576 0.60675 0.99998 0.0
Cd282 Cd 0.74727 0.61015 0.00741 0.0
O283 O 0.781 0.63347 0.99066 0.0
Cd284 Cd 0.75336 0.64266 0.98239 0.0
C285 C 0.76134 0.65392 0.03043 0.0
O286 O 0.73052 0.61638 0.97954 0.0
O287 O 0.72364 0.64228 0.98739 0.0
O288 O 0.75833 0.64954 0.9505 0.0
C289 C 0.71893 0.62532 0.98406 0.0
O290 O 0.75587 0.63748 0.03192 0.0
C291 C 0.75787 0.66604 0.95563 0.0
O292 O 0.76199 0.65896 0.01399 0.0
O293 O 0.75481 0.67083 0.97269 0.0
C294 C 0.95563 0.60523 0.83299 0.0
O295 O 0.96312 0.59727 0.82028 0.0
Cd296 Cd 0.9556 0.59043 0.78604 0.0
O297 O 0.94236 0.6123 0.82794 0.0
Cd298 Cd 0.92562 0.61533 0.79473 0.0
C299 C 0.9124 0.56989 0.78572 0.0
O300 O 0.94991 0.61704 0.77568 0.0
O301 O 0.92434 0.60912 0.75881 0.0
O302 O 0.92013 0.64671 0.79938 0.0
C303 C 0.94089 0.61258 0.75902 0.0
O304 O 0.92778 0.56882 0.78172 0.0
C305 C 0.90341 0.64204 0.79566 0.0
O306 O 0.90864 0.58497 0.79192 0.0
O307 O 0.8972 0.62525 0.79261 0.0
C308 C 0.75323 0.441 0.55796 0.0
O309 O 0.74488 0.44954 0.54698 0.0
Cd310 Cd 0.71562 0.43837 0.53185 0.0
O311 O 0.74573 0.42633 0.56281 0.0
Cd312 Cd 0.71581 0.40704 0.56015 0.0
C313 C 0.72066 0.39568 0.51183 0.0
O314 O 0.70364 0.43384 0.56091 0.0
O315 O 0.6836 0.41025 0.55869 0.0
O316 O 0.72693 0.40801 0.59451 0.0
C317 C 0.6875 0.42728 0.56027 0.0
O318 O 0.71992 0.41195 0.51037 0.0
C319 C 0.72296 0.39124 0.5948 0.0
O320 O 0.71887 0.38977 0.52783 0.0
O321 O 0.71494 0.38155 0.57906 0.0
C322 C 0.63335 0.54172 0.3497 0.0
O323 O 0.62627 0.55122 0.33881 0.0
Cd324 Cd 0.63393 0.55807 0.30832 0.0
O325 O 0.64648 0.53487 0.34455 0.0
Cd326 Cd 0.66428 0.53462 0.31321 0.0
C327 C 0.67654 0.58338 0.31409 0.0
O328 O 0.63645 0.53056 0.28972 0.0
O329 O 0.66011 0.53737 0.27732 0.0
O330 O 0.66583 0.501 0.30364 0.0
C331 C 0.64337 0.53314 0.2746 0.0
O332 O 0.65989 0.58203 0.3109 0.0
C333 C 0.68146 0.50107 0.3112 0.0
O334 O 0.68275 0.56907 0.31656 0.0
O335 O 0.68964 0.51647 0.32002 0.0
Nd336 Nd 0.04209 0.07474 0.05923 0.0
Nd337 Nd 0.01754 0.03608 0.04949 0.0
C338 C 0.05321 0.10934 0.07194 0.0
C339 C 0.05158 0.1251 0.06213 0.0
C340 C 0.04311 0.13841 0.07028 0.0
C341 C 0.04034 0.15271 0.0605 0.0
C342 C 0.04601 0.154 0.04233 0.0
C343 C 0.0543 0.14052 0.03411 0.0
C344 C 0.05703 0.12625 0.04386 0.0
C345 C 0.045 0.0601 0.02127 0.0
C346 C 1.0003 0.06988 0.03964 0.0
C347 C 1.00609 1.00174 0.03581 0.0
C348 C 1.00796 0.98595 0.0453 0.0
C349 C 0.01226 0.97077 0.03487 0.0
C350 C 0.01589 0.95653 0.04428 0.0
C351 C 0.01551 0.95738 0.06434 0.0
C352 C 0.01113 0.97255 0.07474 0.0
C353 C 1.00742 0.9867 0.06534 0.0
C354 C 0.01425 0.05021 0.08734 0.0
C355 C 0.05929 0.04107 0.06966 0.0
O356 O 0.03839 0.10028 0.07565 0.0
O357 O 0.06363 0.0989 0.06556 0.0
O358 O 0.05311 0.07584 0.03003 0.0
O359 O 0.03526 0.05304 0.03273 0.0
O360 O 0.01556 0.08013 0.04743 0.0
O361 O 0.99785 0.0521 0.03655 0.0
O362 O 0.02086 0.01088 0.03208 0.0
O363 O 0.99586 0.01208 0.04287 0.0
O364 O 1.00699 0.03421 0.07861 0.0
O365 O 0.02404 0.05798 0.07626 0.0
O366 O 0.0442 0.0305 0.06164 0.0
O367 O 0.06162 0.05884 0.07235 0.0
H368 H 0.03847 0.13764 0.08417 0.0
H369 H 0.03394 0.16285 0.06728 0.0
H370 H 0.05844 0.14079 0.01993 0.0
H371 H 0.06319 0.11599 0.0369 0.0
H372 H 0.01315 0.97011 0.01952 0.0
H373 H 0.01938 0.94504 0.03599 0.0
H374 H 0.01055 0.97346 0.09018 0.0
H375 H 1.00444 0.99835 0.07384 0.0
Nd376 Nd 0.27799 0.82582 0.3134 0.0
Nd377 Nd 0.2749 0.78549 0.29079 0.0
C378 C 0.27278 0.85842 0.32367 0.0
C379 C 0.28218 0.87565 0.31927 0.0
C380 C 0.27317 0.88543 0.30737 0.0
C381 C 0.28223 0.90059 0.30111 0.0
C382 C 0.30051 0.90635 0.3067 0.0
C383 C 0.3095 0.89667 0.31882 0.0
C384 C 0.30046 0.88144 0.32497 0.0
C385 C 0.31176 0.81848 0.31295 0.0
C386 C 0.27769 0.81823 0.26553 0.0
C387 C 0.27988 0.75263 0.28115 0.0
C388 C 0.27098 0.73544 0.28635 0.0
C389 C 0.27804 0.72887 0.30271 0.0
C390 C 0.26886 0.7136 0.30875 0.0
C391 C 0.25241 0.70457 0.29853 0.0
C392 C 0.24555 0.71091 0.28193 0.0
C393 C 0.25471 0.72616 0.27592 0.0
C394 C 0.24137 0.79357 0.29238 0.0
C395 C 0.27357 0.79287 0.33833 0.0
O396 O 0.26341 0.84751 0.30866 0.0
O397 O 0.28157 0.85016 0.3355 0.0
O398 O 0.30821 0.83368 0.32012 0.0
O399 O 0.29733 0.80815 0.30509 0.0
O400 O 0.27636 0.82894 0.28143 0.0
O401 O 0.27978 0.80141 0.26559 0.0
O402 O 0.28984 0.76404 0.29542 0.0
O403 O 0.27042 0.76047 0.2695 0.0
O404 O 0.24418 0.77853 0.28373 0.0
O405 O 0.25621 0.80301 0.29983 0.0
O406 O 0.27485 0.78185 0.32263 0.0
O407 O 0.27256 0.80996 0.33826 0.0
H408 H 0.25915 0.88105 0.30249 0.0
H409 H 0.27496 0.9076 0.29157 0.0
H410 H 0.32353 0.90091 0.32363 0.0
H411 H 0.30788 0.87407 0.3339 0.0
H412 H 0.29051 0.73575 0.31112 0.0
H413 H 0.27445 0.70912 0.32165 0.0
H414 H 0.23308 0.70405 0.2735 0.0
H415 H 0.24886 0.73079 0.26325 0.0
Nd416 Nd 0.54787 0.06024 0.54795 0.0
Nd417 Nd 0.50713 0.04715 0.5558 0.0
C418 C 0.57603 0.0663 0.53109 0.0
C419 C 0.59039 0.05632 0.53153 0.0
C420 C 0.59772 0.05204 0.51464 0.0
C421 C 0.60991 0.04071 0.51447 0.0
C422 C 0.61476 0.03343 0.53117 0.0
C423 C 0.60741 0.03779 0.54808 0.0
C424 C 0.59527 0.04906 0.54822 0.0
C425 C 0.54663 0.04728 0.583 0.0
C426 C 0.52739 0.01737 0.53643 0.0
C427 C 0.47954 0.04147 0.57355 0.0
C428 C 0.46489 0.05111 0.57292 0.0
C429 C 0.46054 0.0595 0.59022 0.0
C430 C 0.44787 0.0703 0.58961 0.0
C431 C 0.43948 0.07266 0.57168 0.0
C432 C 0.44398 0.06453 0.55441 0.0
C433 C 0.45668 0.05393 0.555 0.0
C434 C 0.50793 0.05972 0.52054 0.0
C435 C 0.52716 0.09015 0.56646 0.0
O436 O 0.56093 0.057 0.52176 0.0
O437 O 0.57461 0.07577 0.54766 0.0
O438 O 0.56124 0.05361 0.57694 0.0
O439 O 0.53408 0.04829 0.57057 0.0
O440 O 0.54077 0.03026 0.53492 0.0
O441 O 0.51376 0.02006 0.54523 0.0
O442 O 0.49466 0.05122 0.5823 0.0
O443 O 0.48082 0.03134 0.55734 0.0
O444 O 0.49349 0.05285 0.52668 0.0
O445 O 0.52076 0.05924 0.53301 0.0
O446 O 0.51394 0.07715 0.56806 0.0
O447 O 0.541 0.08744 0.55801 0.0
H448 H 0.59376 0.0572 0.50152 0.0
H449 H 0.61541 0.0375 0.50126 0.0
H450 H 0.61122 0.03272 0.56131 0.0
H451 H 0.58961 0.05192 0.56137 0.0
H452 H 0.46709 0.05787 0.60415 0.0
H453 H 0.4444 0.07652 0.60303 0.0
H454 H 0.43759 0.06636 0.54046 0.0
H455 H 0.46015 0.04812 0.5414 0.0
Nd456 Nd 0.28635 0.30827 0.81891 0.0
Nd457 Nd 0.26926 0.30406 0.78578 0.0
C458 C 0.2979 0.31132 0.85627 0.0
C459 C 0.29078 0.31637 0.87415 0.0
C460 C 0.27591 0.30558 0.87931 0.0
C461 C 0.26888 0.31135 0.89589 0.0
C462 C 0.27667 0.32787 0.90726 0.0
C463 C 0.29144 0.33859 0.90216 0.0
C464 C 0.2985 0.33286 0.88575 0.0
C465 C 0.29532 0.34033 0.80337 0.0
C466 C 0.2456 0.31396 0.81668 0.0
C467 C 0.25929 0.3034 0.7485 0.0
C468 C 0.26412 0.29417 0.73082 0.0
C469 C 0.27531 0.30392 0.7199 0.0
C470 C 0.28031 0.29525 0.70332 0.0
C471 C 0.27396 0.27681 0.69739 0.0
C472 C 0.26306 0.26698 0.70843 0.0
C473 C 0.2582 0.27556 0.72507 0.0
C474 C 0.26019 0.27142 0.80012 0.0
C475 C 0.31002 0.29667 0.78845 0.0
O476 O 0.29041 0.29603 0.84558 0.0
O477 O 0.30147 0.32417 0.84607 0.0
O478 O 0.30632 0.33077 0.8094 0.0
O479 O 0.27968 0.33193 0.80382 0.0
O480 O 0.25782 0.30773 0.82674 0.0
O481 O 0.24831 0.31725 0.79934 0.0
O482 O 0.27174 0.31579 0.75888 0.0
O483 O 0.25027 0.29346 0.75907 0.0
O484 O 0.2492 0.28034 0.79267 0.0
O485 O 0.2759 0.28027 0.80086 0.0
O486 O 0.29666 0.29985 0.77701 0.0
O487 O 0.30874 0.29705 0.80687 0.0
H488 H 0.26964 0.29284 0.87051 0.0
H489 H 0.25747 0.303 0.89984 0.0
H490 H 0.2975 0.35142 0.91092 0.0
H491 H 0.30987 0.34142 0.88199 0.0
H492 H 0.28012 0.31825 0.72413 0.0
H493 H 0.28866 0.303 0.69482 0.0
H494 H 0.25815 0.25266 0.70402 0.0
H495 H 0.24975 0.26763 0.73331 0.0
Nd496 Nd 0.02442 0.07061 0.5623 0.0
Nd497 Nd 0.03402 0.03829 0.54285 0.0
C498 C 0.00976 0.09798 0.57197 0.0
C499 C 0.00865 0.11272 0.56101 0.0
C500 C 0.99287 0.11892 0.55822 0.0
C501 C 0.99132 0.13185 0.54625 0.0
C502 C 1.0056 0.13877 0.53708 0.0
C503 C 0.02128 0.13221 0.53958 0.0
C504 C 0.02273 0.11914 0.55129 0.0
C505 C 0.05722 0.07616 0.55098 0.0
C506 C 0.01325 0.05895 0.51451 0.0
C507 C 0.04993 0.01209 0.5322 0.0
C508 C 0.05095 0.99597 0.54109 0.0
C509 C 0.06719 0.99373 0.55036 0.0
C510 C 0.06796 0.97931 0.56045 0.0
C511 C 0.05251 0.96697 0.56112 0.0
C512 C 0.03627 0.96933 0.55213 0.0
C513 C 0.03546 0.98373 0.54223 0.0
C514 C 1.00108 0.03211 0.55343 0.0
C515 C 0.04421 0.0495 0.59111 0.0
O516 O 1.00055 0.08242 0.56326 0.0
O517 O 0.02565 0.09715 0.57966 0.0
O518 O 0.054 0.08359 0.56746 0.0
O519 O 0.04344 0.06701 0.54095 0.0
O520 O 0.0089 0.06648 0.53089 0.0
O521 O 0.02582 0.04948 0.51515 0.0
O522 O 0.05836 0.02722 0.54277 0.0
O523 O 0.03432 0.01309 0.5238 0.0
O524 O 1.00499 0.02406 0.5376 0.0
O525 O 0.01449 0.04178 0.56383 0.0
O526 O 0.04811 0.04122 0.5748 0.0
O527 O 0.03253 0.06002 0.59035 0.0
H528 H 0.98173 0.11361 0.5651 0.0
H529 H 0.97899 0.13651 0.54425 0.0
H530 H 0.03259 0.13745 0.53291 0.0
H531 H 0.03486 0.11406 0.55271 0.0
H532 H 0.07921 1.00325 0.54999 0.0
H533 H 0.08058 0.97758 0.56737 0.0
H534 H 0.02419 0.96 0.55279 0.0
H535 H 0.02265 0.98532 0.53571 0.0
Nd536 Nd 0.29704 0.81745 0.80409 0.0
Nd537 Nd 0.26307 0.79274 0.79726 0.0
C538 C 0.32831 0.83351 0.79857 0.0
C539 C 0.34559 0.83059 0.8066 0.0
C540 C 0.34977 0.81337 0.80346 0.0
C541 C 0.36436 0.80963 0.81438 0.0
C542 C 0.37484 0.823 0.82863 0.0
C543 C 0.37133 0.84047 0.83092 0.0
C544 C 0.3568 0.84424 0.81995 0.0
C545 C 0.28617 0.81761 0.84048 0.0
C546 C 0.29669 0.7738 0.80693 0.0
C547 C 0.2302 0.77629 0.79448 0.0
C548 C 0.21431 0.78353 0.79126 0.0
C549 C 0.19856 0.77501 0.79655 0.0
C550 C 0.18283 0.77997 0.78999 0.0
C551 C 0.18304 0.79343 0.77822 0.0
C552 C 0.19899 0.80316 0.77467 0.0
C553 C 0.21457 0.79815 0.78105 0.0
C554 C 0.28073 0.79153 0.76572 0.0
C555 C 0.26326 0.83711 0.79807 0.0
O556 O 0.31857 0.82019 0.78618 0.0
O557 O 0.31944 0.84063 0.81124 0.0
O558 O 0.30142 0.82581 0.83743 0.0
O559 O 0.27777 0.80857 0.82478 0.0
O560 O 0.30617 0.78971 0.80544 0.0
O561 O 0.27946 0.77207 0.80704 0.0
O562 O 0.24006 0.78219 0.81124 0.0
O563 O 0.23913 0.77606 0.77983 0.0
O564 O 0.27347 0.77751 0.77241 0.0
O565 O 0.27893 0.80594 0.77594 0.0
O566 O 0.2539 0.82064 0.79738 0.0
O567 O 0.2806 0.83942 0.79903 0.0
H568 H 0.34132 0.80249 0.79332 0.0
H569 H 0.36689 0.79608 0.81241 0.0
H570 H 0.37952 0.85106 0.84164 0.0
H571 H 0.35378 0.85756 0.82262 0.0
H572 H 0.19827 0.76377 0.8045 0.0
H573 H 0.17046 0.77223 0.79253 0.0
H574 H 0.19922 0.8134 0.76533 0.0
H575 H 0.22657 0.80471 0.77652 0.0
Nd576 Nd 0.50682 0.04776 0.042 0.0
Nd577 Nd 0.54667 0.05465 0.06118 0.0
C578 C 0.47448 0.04604 0.02553 0.0
C579 C 0.45748 0.03951 0.03199 0.0
C580 C 0.45356 0.04672 0.05011 0.0
C581 C 0.43836 0.03896 0.05704 0.0
C582 C 0.42693 0.02377 0.04609 0.0
C583 C 0.43071 0.0168 0.02785 0.0
C584 C 0.44583 0.02463 0.02086 0.0
C585 C 0.51703 0.02015 0.05799 0.0
C586 C 0.51552 0.05744 0.08867 0.0
C587 C 0.57969 0.0582 0.0766 0.0
C588 C 0.59627 0.06641 0.06988 0.0
C589 C 0.60499 0.05598 0.05765 0.0
C590 C 0.62002 0.06398 0.05044 0.0
C591 C 0.62665 0.08258 0.05527 0.0
C592 C 0.61799 0.09297 0.06754 0.0
C593 C 0.60303 0.085 0.07479 0.0
C594 C 0.5358 0.08161 0.04463 0.0
C595 C 0.53798 0.04514 0.01456 0.0
O596 O 0.4842 0.06089 0.03556 0.0
O597 O 0.48357 0.03363 0.02099 0.0
O598 O 0.50114 0.02317 0.05733 0.0
O599 O 0.52607 0.0304 0.04874 0.0
O600 O 0.50471 0.0585 0.07312 0.0
O601 O 0.53152 0.05392 0.08769 0.0
O602 O 0.57069 0.04313 0.06625 0.0
O603 O 0.5696 0.06929 0.08233 0.0
O604 O 0.55184 0.07912 0.04542 0.0
O605 O 0.52725 0.07169 0.05443 0.0
O606 O 0.54886 0.04408 0.03002 0.0
O607 O 0.52191 0.04833 0.01554 0.0
H608 H 0.46242 0.05806 0.05918 0.0
H609 H 0.43579 0.04455 0.07119 0.0
H610 H 0.42196 1.00527 0.01897 0.0
H611 H 0.44866 0.01877 0.00694 0.0
H612 H 0.6001 0.04166 0.05347 0.0
H613 H 0.62633 0.05563 0.04091 0.0
H614 H 0.62294 0.10729 0.07181 0.0
H615 H 0.59671 0.09348 0.08416 0.0
Nd616 Nd 0.25423 0.28605 0.28785 0.0
Nd617 Nd 0.28831 0.3112 0.30595 0.0
C618 C 0.22179 0.27007 0.27283 0.0
C619 C 0.20504 0.27608 0.27376 0.0
C620 C 0.20449 0.29434 0.27414 0.0
C621 C 0.19146 0.30155 0.28266 0.0
C622 C 0.17873 0.29047 0.29069 0.0
C623 C 0.17812 0.27184 0.28819 0.0
C624 C 0.19125 0.2647 0.27986 0.0
C625 C 0.26862 0.27869 0.32206 0.0
C626 C 0.25328 0.32784 0.30758 0.0
C627 C 0.31825 0.32979 0.32511 0.0
C628 C 0.33588 0.32613 0.32258 0.0
C629 C 0.33975 0.30928 0.32533 0.0
C630 C 0.35381 0.3035 0.31768 0.0
C631 C 0.36424 0.31439 0.30712 0.0
C632 C 0.36147 0.33185 0.30586 0.0
C633 C 0.34734 0.3377 0.31357 0.0
C634 C 0.28017 0.3094 0.26631 0.0
C635 C 0.29019 0.27145 0.28477 0.0
O636 O 0.23296 0.27802 0.2625 0.0
O637 O 0.22927 0.26826 0.28986 0.0
O638 O 0.26155 0.26659 0.30731 0.0
O639 O 0.26765 0.29435 0.31892 0.0
O640 O 0.2445 0.31193 0.29853 0.0
O641 O 0.27045 0.33107 0.31298 0.0
O642 O 0.30795 0.31773 0.3325 0.0
O643 O 0.31003 0.33505 0.3102 0.0
O644 O 0.29555 0.30869 0.2751 0.0
O645 O 0.26974 0.31003 0.27858 0.0
O646 O 0.2971 0.28444 0.29935 0.0
O647 O 0.27435 0.27064 0.27502 0.0
H648 H 0.215 0.30324 0.26939 0.0
H649 H 0.19225 0.31597 0.28442 0.0
H650 H 0.16825 0.26297 0.29398 0.0
H651 H 0.19156 0.2506 0.27988 0.0
H652 H 0.33118 0.29993 0.33208 0.0
H653 H 0.35577 0.28998 0.31883 0.0
H654 H 0.36927 0.34038 0.29756 0.0
H655 H 0.34456 0.35065 0.3111 0.0
Nd656 Nd 0.52403 0.57226 0.06258 0.0
Nd657 Nd 0.53425 0.5362 0.04381 0.0
C658 C 0.50846 0.59915 0.07137 0.0
C659 C 0.50722 0.61427 0.06077 0.0
C660 C 0.49117 0.61479 0.04972 0.0
C661 C 0.49042 0.6273 0.0371 0.0
C662 C 0.5057 0.63954 0.03547 0.0
C663 C 0.52167 0.6393 0.04685 0.0
C664 C 0.52245 0.62673 0.05933 0.0
C665 C 0.55689 0.57539 0.05211 0.0
C666 C 0.51327 0.55803 0.01454 0.0
C667 C 0.55197 0.51206 0.03179 0.0
C668 C 0.55261 0.49485 0.03855 0.0
C669 C 0.56856 0.49198 0.04788 0.0
C670 C 0.56881 0.47701 0.05718 0.0
C671 C 0.55312 0.4647 0.05705 0.0
C672 C 0.53722 0.46744 0.04754 0.0
C673 C 0.53693 0.48241 0.03842 0.0
C674 C 0.50327 0.52874 0.05938 0.0
C675 C 0.54392 0.55052 0.09128 0.0
O676 O 0.49984 0.58351 0.06211 0.0
O677 O 0.5242 0.59858 0.07988 0.0
O678 O 0.55336 0.58544 0.06695 0.0
O679 O 0.54316 0.56542 0.04263 0.0
O680 O 0.51323 0.57033 0.02979 0.0
O681 O 0.52084 0.54397 0.01595 0.0
O682 O 0.55918 0.52624 0.0447 0.0
O683 O 0.53687 0.51345 0.02226 0.0
O684 O 0.51016 0.51617 0.0508 0.0
O685 O 0.51308 0.54351 0.05941 0.0
O686 O 0.54903 0.54264 0.07548 0.0
O687 O 0.53138 0.56013 0.09006 0.0
H688 H 0.47932 0.60513 0.05037 0.0
H689 H 0.47798 0.62722 0.02841 0.0
H690 H 0.53356 0.64891 0.0462 0.0
H691 H 0.53509 0.62657 0.06747 0.0
H692 H 0.5807 0.50164 0.04851 0.0
H693 H 0.58118 0.47508 0.06454 0.0
H694 H 0.52491 0.45824 0.04765 0.0
H695 H 0.52432 0.48448 0.03184 0.0
Nd696 Nd 0.79584 0.31672 0.30835 0.0
Nd697 Nd 0.7638 0.29452 0.29477 0.0
C698 C 0.82592 0.33962 0.31199 0.0
C699 C 0.84382 0.33645 0.31338 0.0
C700 C 0.84661 0.31896 0.30784 0.0
C701 C 0.86191 0.31393 0.31568 0.0
C702 C 0.87439 0.32641 0.32904 0.0
C703 C 0.87248 0.34441 0.33268 0.0
C704 C 0.85718 0.34939 0.32495 0.0
C705 C 0.77739 0.31181 0.33908 0.0
C706 C 0.79714 0.27401 0.30578 0.0
C707 C 0.73397 0.27121 0.28987 0.0
C708 C 0.71611 0.27438 0.28785 0.0
C709 C 0.71275 0.29074 0.29682 0.0
C710 C 0.69774 0.29677 0.28999 0.0
C711 C 0.68626 0.28651 0.27412 0.0
C712 C 0.68888 0.26958 0.26616 0.0
C713 C 0.70377 0.26349 0.27307 0.0
C714 C 0.78282 0.30013 0.26453 0.0
C715 C 0.762 0.33698 0.29745 0.0
O716 O 0.81592 0.33384 0.29526 0.0
O717 O 0.81812 0.33543 0.32672 0.0
O718 O 0.79387 0.31069 0.33927 0.0
O719 O 0.77095 0.31444 0.32257 0.0
O720 O 0.80706 0.29026 0.30767 0.0
O721 O 0.77981 0.27252 0.30287 0.0
O722 O 0.74344 0.27691 0.30691 0.0
O723 O 0.74229 0.27554 0.27553 0.0
O724 O 0.7665 0.30178 0.26426 0.0
O725 O 0.7886 0.2966 0.28083 0.0
O726 O 0.75214 0.32063 0.29453 0.0
O727 O 0.77934 0.33873 0.3015 0.0
H728 H 0.83632 0.3088 0.29893 0.0
H729 H 0.86323 0.30001 0.31267 0.0
H730 H 0.88222 0.35428 0.34272 0.0
H731 H 0.8551 0.36286 0.32947 0.0
H732 H 0.72238 0.29951 0.30799 0.0
H733 H 0.69575 0.30989 0.29612 0.0
H734 H 0.67994 0.26159 0.25386 0.0
H735 H 0.70642 0.25107 0.26577 0.0
Nd736 Nd 1.00464 0.55097 0.53956 0.0
Nd737 Nd 0.04414 0.55639 0.55881 0.0
C738 C 0.97187 0.55329 0.52851 0.0
C739 C 0.95537 0.54448 0.53462 0.0
C740 C 0.94832 0.5533 0.54976 0.0
C741 C 0.93384 0.54447 0.55707 0.0
C742 C 0.92592 0.52664 0.54914 0.0
C743 C 0.93272 0.51789 0.53368 0.0
C744 C 0.94732 0.5267 0.52652 0.0
C745 C 0.01368 0.52021 0.54826 0.0
C746 C 0.0135 0.5585 0.58731 0.0
C747 C 0.07709 0.56059 0.57498 0.0
C748 C 0.09399 0.569 0.56917 0.0
C749 C 0.10046 0.56117 0.55286 0.0
C750 C 0.11614 0.56959 0.54723 0.0
C751 C 0.12569 0.58605 0.55772 0.0
C752 C 0.11907 0.59396 0.57385 0.0
C753 C 0.10347 0.5855 0.57954 0.0
C754 C 0.03504 0.58316 0.53961 0.0
C755 C 0.03477 0.54426 0.51324 0.0
O756 O 0.98252 0.5654 0.5416 0.0
O757 O 0.98021 0.54273 0.51851 0.0
O758 O 1.00169 0.52062 0.53404 0.0
O759 O 0.01963 0.53544 0.55815 0.0
O760 O 1.0015 0.5555 0.57169 0.0
O761 O 0.03052 0.55913 0.58631 0.0
O762 O 0.0685 0.54558 0.56422 0.0
O763 O 0.06674 0.57157 0.58022 0.0
O764 O 0.0505 0.57919 0.54049 0.0
O765 O 0.02617 0.5744 0.55009 0.0
O766 O 0.04313 0.54026 0.52901 0.0
O767 O 0.02059 0.55154 0.51384 0.0
H768 H 0.95419 0.56695 0.55619 0.0
H769 H 0.92899 0.55157 0.56906 0.0
H770 H 0.92666 0.50429 0.52695 0.0
H771 H 0.95237 0.51947 0.51477 0.0
H772 H 0.09343 0.54853 0.54439 0.0
H773 H 0.12093 0.56302 0.53485 0.0
H774 H 0.12588 0.6068 0.58205 0.0
H775 H 0.09874 0.59197 0.59202 0.0
Nd776 Nd 0.78572 0.80738 0.31795 0.0
Nd777 Nd 0.76863 0.80283 0.28423 0.0
C778 C 0.79588 0.80797 0.35516 0.0
C779 C 0.78987 0.81552 0.37277 0.0
C780 C 0.78697 0.8049 0.38733 0.0
C781 C 0.7813 0.81193 0.40427 0.0
C782 C 0.77839 0.82955 0.40659 0.0
C783 C 0.78074 0.84002 0.39183 0.0
C784 C 0.78637 0.833 0.37491 0.0
C785 C 0.795 0.83956 0.30297 0.0
C786 C 0.74478 0.81401 0.31508 0.0
C787 C 0.75832 0.80165 0.24688 0.0
C788 C 0.76473 0.79395 0.22942 0.0
C789 C 0.77983 0.80305 0.22297 0.0
C790 C 0.78686 0.79472 0.20765 0.0
C791 C 0.77897 0.77721 0.19885 0.0
C792 C 0.76363 0.76834 0.20483 0.0
C793 C 0.75649 0.77669 0.21991 0.0
C794 C 0.75947 0.77068 0.29931 0.0
C795 C 0.80943 0.79598 0.28711 0.0
O796 O 0.78475 0.79461 0.34442 0.0
O797 O 0.80352 0.81944 0.34509 0.0
O798 O 0.8059 0.83061 0.31053 0.0
O799 O 0.77923 0.83084 0.30227 0.0
O800 O 0.75833 0.81139 0.32664 0.0
O801 O 0.746 0.81351 0.29661 0.0
O802 O 0.76874 0.81553 0.25767 0.0
O803 O 0.7511 0.79009 0.25711 0.0
O804 O 0.74855 0.77961 0.29174 0.0
O805 O 0.77521 0.77944 0.29992 0.0
O806 O 0.79604 0.79892 0.27558 0.0
O807 O 0.80828 0.79652 0.30558 0.0
H808 H 0.78931 0.79128 0.38567 0.0
H809 H 0.77961 0.80386 0.41574 0.0
H810 H 0.77872 0.85376 0.39369 0.0
H811 H 0.78822 0.84132 0.36367 0.0
H812 H 0.78643 0.81641 0.22998 0.0
H813 H 0.79861 0.80174 0.20297 0.0
H814 H 0.75719 0.75491 0.19782 0.0
H815 H 0.74476 0.76945 0.22446 0.0
Nd816 Nd 0.77887 0.3252 0.81137 0.0
Nd817 Nd 0.77416 0.28456 0.78965 0.0
C818 C 0.77423 0.35794 0.82213 0.0
C819 C 0.7836 0.37509 0.81779 0.0
C820 C 0.77394 0.38719 0.81063 0.0
C821 C 0.78255 0.40261 0.80442 0.0
C822 C 0.80099 0.40618 0.80528 0.0
C823 C 0.81066 0.39405 0.81256 0.0
C824 C 0.80204 0.37861 0.81865 0.0
C825 C 0.81192 0.31635 0.80999 0.0
C826 C 0.77964 0.3176 0.76408 0.0
C827 C 0.77884 0.25173 0.77927 0.0
C828 C 0.76991 0.23446 0.78407 0.0
C829 C 0.77925 0.22521 0.79633 0.0
C830 C 0.7706 0.20994 0.80279 0.0
C831 C 0.75242 0.20355 0.79703 0.0
C832 C 0.74315 0.21262 0.78444 0.0
C833 C 0.75177 0.22795 0.77811 0.0
C834 C 0.74098 0.29303 0.79115 0.0
C835 C 0.77481 0.29295 0.83736 0.0
O836 O 0.76463 0.34724 0.80711 0.0
O837 O 0.78325 0.34953 0.83357 0.0
O838 O 0.80948 0.33205 0.81714 0.0
O839 O 0.79703 0.30659 0.80306 0.0
O840 O 0.77887 0.32883 0.77976 0.0
O841 O 0.7797 0.30028 0.76428 0.0
O842 O 0.78869 0.26275 0.79391 0.0
O843 O 0.76951 0.25989 0.76784 0.0
O844 O 0.74363 0.27743 0.78398 0.0
O845 O 0.75579 0.30308 0.79802 0.0
O846 O 0.77499 0.28133 0.82174 0.0
O847 O 0.77437 0.31009 0.83695 0.0
H848 H 0.75968 0.3845 0.80944 0.0
H849 H 0.77472 0.41157 0.79864 0.0
H850 H 0.8249 0.39655 0.81368 0.0
H851 H 0.80982 0.36932 0.82377 0.0
H852 H 0.79319 0.23007 0.80133 0.0
H853 H 0.77808 0.20337 0.81262 0.0
H854 H 0.72921 0.20784 0.77942 0.0
H855 H 0.74411 0.23482 0.7688 0.0
Nd856 Nd 0.75499 0.78716 0.78854 0.0
Nd857 Nd 0.7885 0.81188 0.80643 0.0
C858 C 0.72275 0.77207 0.77227 0.0
C859 C 0.70631 0.7782 0.77519 0.0
C860 C 0.70512 0.79626 0.77453 0.0
C861 C 0.69226 0.80354 0.78328 0.0
C862 C 0.68066 0.7929 0.79291 0.0
C863 C 0.68101 0.77463 0.79246 0.0
C864 C 0.69366 0.76726 0.78345 0.0
C865 C 0.76848 0.78037 0.82337 0.0
C866 C 0.75312 0.82798 0.80889 0.0
C867 C 0.81831 0.83108 0.82493 0.0
C868 C 0.8358 0.82973 0.81937 0.0
C869 C 0.8463 0.81958 0.82907 0.0
C870 C 0.86026 0.81395 0.82083 0.0
C871 C 0.86396 0.81843 0.80278 0.0
C872 C 0.85419 0.82956 0.79371 0.0
C873 C 0.84035 0.83525 0.80197 0.0
C874 C 0.78204 0.80919 0.76677 0.0
C875 C 0.79072 0.77205 0.7861 0.0
O876 O 0.73385 0.78166 0.76314 0.0
O877 O 0.73045 0.76754 0.78785 0.0
O878 O 0.76188 0.76801 0.80867 0.0
O879 O 0.76763 0.79592 0.8198 0.0
O880 O 0.74427 0.81158 0.80179 0.0
O881 O 0.77046 0.83182 0.81191 0.0
O882 O 0.8101 0.81684 0.83109 0.0
O883 O 0.80792 0.83754 0.81283 0.0
O884 O 0.79702 0.80834 0.77634 0.0
O885 O 0.77092 0.81044 0.77821 0.0
O886 O 0.79743 0.78511 0.80062 0.0
O887 O 0.77495 0.77121 0.7762 0.0
H888 H 0.71493 0.80512 0.76866 0.0
H889 H 0.69224 0.81776 0.78385 0.0
H890 H 0.6722 0.76637 0.80009 0.0
H891 H 0.69455 0.75343 0.78447 0.0
H892 H 0.84304 0.81504 0.84243 0.0
H893 H 0.86772 0.80555 0.82822 0.0
H894 H 0.85647 0.833 0.77962 0.0
H895 H 0.83252 0.84294 0.79395 0.0
Nd896 Nd 0.54213 0.57507 0.55951 0.0
Nd897 Nd 0.51734 0.53696 0.54906 0.0
C898 C 0.55325 0.60966 0.57191 0.0
C899 C 0.55091 0.62487 0.56152 0.0
C900 C 0.54496 0.63957 0.57078 0.0
C901 C 0.54093 0.65315 0.5605 0.0
C902 C 0.54274 0.65227 0.5407 0.0
C903 C 0.54873 0.63751 0.53146 0.0
C904 C 0.55269 0.62394 0.54172 0.0
C905 C 0.54587 0.56064 0.52173 0.0
C906 C 0.50103 0.57086 0.53788 0.0
C907 C 0.50595 0.50263 0.5355 0.0
C908 C 0.50736 0.48677 0.54517 0.0
C909 C 0.51723 0.47436 0.53798 0.0
C910 C 0.52016 0.46025 0.54795 0.0
C911 C 0.51324 0.45824 0.56535 0.0
C912 C 0.50338 0.47071 0.57256 0.0
C913 C 0.5005 0.48482 0.56262 0.0
C914 C 0.5126 0.55088 0.58651 0.0
C915 C 0.55874 0.54116 0.57003 0.0
O916 O 0.53871 0.60058 0.57624 0.0
O917 O 0.56363 0.59926 0.56538 0.0
O918 O 0.5541 0.57617 0.53089 0.0
O919 O 0.53571 0.55357 0.5328 0.0
O920 O 0.51611 0.58104 0.54643 0.0
O921 O 0.49842 0.55308 0.53509 0.0
O922 O 0.52091 0.51166 0.53211 0.0
O923 O 0.49552 0.51309 0.54183 0.0
O924 O 0.50548 0.53504 0.57724 0.0
O925 O 0.52313 0.55875 0.57613 0.0
O926 O 0.54358 0.53099 0.56167 0.0
O927 O 0.56133 0.55894 0.57303 0.0
H928 H 0.54308 0.64036 0.58589 0.0
H929 H 0.53612 0.66418 0.56799 0.0
H930 H 0.5505 0.6365 0.51631 0.0
H931 H 0.55693 0.61261 0.53405 0.0
H932 H 0.52292 0.47573 0.52475 0.0
H933 H 0.52772 0.45084 0.54194 0.0
H934 H 0.49815 0.46978 0.58612 0.0
H935 H 0.49318 0.49437 0.56885 0.0
Nd936 Nd 0.04443 0.55952 0.04721 0.0
Nd937 Nd 0.01123 0.54714 0.05616 0.0
C938 C 0.07405 0.56458 0.03219 0.0
C939 C 0.08757 0.5537 0.0313 0.0
C940 C 0.09974 0.5562 0.01827 0.0
C941 C 0.11277 0.54589 0.01762 0.0
C942 C 0.11363 0.53295 0.02994 0.0
C943 C 0.10106 0.53011 0.0426 0.0
C944 C 0.08805 0.5404 0.04324 0.0
C945 C 0.04607 0.54992 0.08404 0.0
C946 C 0.02648 0.51727 0.03447 0.0
C947 C 0.98204 0.54317 0.07186 0.0
C948 C 0.969 0.55461 0.071 0.0
C949 C 0.95671 0.55443 0.08404 0.0
C950 C 0.94417 0.56532 0.08267 0.0
C951 C 0.94392 0.57637 0.06823 0.0
C952 C 0.95683 0.57716 0.05583 0.0
C953 C 0.96933 0.56638 0.05725 0.0
C954 C 0.00922 0.55706 0.01942 0.0
C955 C 0.02882 0.58936 0.06854 0.0
O956 O 0.05887 0.55706 0.02194 0.0
O957 O 0.0726 0.57215 0.04954 0.0
O958 O 0.05481 0.5646 0.0799 0.0
O959 O 0.03669 0.54062 0.06903 0.0
O960 O 0.03568 0.53136 0.02893 0.0
O961 O 0.01754 0.51939 0.049 0.0
O962 O 0.9973 0.55111 0.08167 0.0
O963 O 0.98337 0.53398 0.05524 0.0
O964 O 0.99967 0.54297 0.02387 0.0
O965 O 0.01909 0.56604 0.03429 0.0
O966 O 0.01997 0.57526 0.07436 0.0
O967 O 0.03767 0.58716 0.05393 0.0
H968 H 0.09928 0.56625 0.0088 0.0
H969 H 0.12236 0.54822 0.00775 0.0
H970 H 0.10169 0.52043 0.0525 0.0
H971 H 0.07855 0.53821 0.05325 0.0
H972 H 0.95661 0.54565 0.09495 0.0
H973 H 0.93423 0.5645 0.09229 0.0
H974 H 0.95693 0.58575 0.04473 0.0
H975 H 0.97908 0.56698 0.04737 0.0
H976 H 0.05642 0.26217 0.92098 0.0
H977 H 0.0558 0.24061 0.94373 0.0
H978 H 0.0136 0.26117 0.96823 0.0
H979 H 0.01561 0.284 0.94672 0.0
H980 H 0.03141 0.25345 0.99563 0.0
H981 H 1.00796 0.21839 0.93443 0.0
H982 H 1.00631 0.20739 0.89951 0.0
H983 H 0.05434 0.18796 0.91063 0.0
H984 H 0.05639 0.19903 0.94558 0.0
H985 H 0.01731 0.17059 0.03928 0.0
H986 H 0.01281 0.19447 0.02015 0.0
H987 H 0.06414 0.19552 1.00241 0.0
H988 H 0.06896 0.17221 0.02175 0.0
H989 H 0.03611 0.19084 0.97158 0.0
H990 H 0.05718 0.22846 0.03527 0.0
H991 H 0.05474 0.2389 0.06944 0.0
H992 H 1.00409 0.25112 0.05207 0.0
H993 H 1.00612 0.24051 0.01784 0.0
C994 C 0.04703 0.26201 0.93124 0.0
C995 C 0.03594 0.27453 0.93202 0.0
C996 C 0.04652 0.24957 0.94414 0.0
C997 C 0.03419 0.24869 0.95737 0.0
C998 C 0.02317 0.26138 0.95818 0.0
C999 C 0.02423 0.27435 0.94581 0.0
C1000 C 0.03305 0.2347 0.97039 0.0
C1001 C 0.03212 0.23969 0.99021 0.0
C1002 C 0.0337 0.21658 0.96354 0.0
C1003 C 0.03237 0.20962 0.94259 0.0
C1004 C 0.0182 0.21182 0.92941 0.0
C1005 C 0.01719 0.20558 0.90961 0.0
C1006 C 0.03022 0.19701 0.90285 0.0
C1007 C 0.04425 0.1946 0.91588 0.0
C1008 C 0.04533 0.20082 0.93569 0.0
C1009 C 0.02777 0.17614 0.03158 0.0
C1010 C 0.04343 0.16929 0.03187 0.0
C1011 C 0.02514 0.18975 0.02063 0.0
C1012 C 0.03813 0.19669 0.00983 0.0
C1013 C 0.0539 0.19024 0.01054 0.0
C1014 C 0.05658 0.1768 0.02151 0.0
C1015 C 0.03517 0.20984 0.99668 0.0
C1016 C 0.03518 0.20458 0.97681 0.0
C1017 C 0.03294 0.22742 0.0034 0.0
C1018 C 0.03172 0.23351 0.02403 0.0
C1019 C 0.04544 0.23319 0.03876 0.0
C1020 C 0.04415 0.23918 0.05814 0.0
C1021 C 0.02926 0.24563 0.06293 0.0
C1022 C 0.01561 0.2461 0.04836 0.0
C1023 C 0.01683 0.2401 0.02897 0.0
H1024 H 0.02831 0.25031 0.07793 0.0
H1025 H 0.02944 0.19221 0.88752 0.0
H1026 H 0.08581 0.8019 0.20773 0.0
H1027 H 0.11703 0.80456 0.21932 0.0
H1028 H 0.10433 0.79403 0.27545 0.0
H1029 H 0.07297 0.79249 0.2641 0.0
H1030 H 0.13278 0.81704 0.28169 0.0
H1031 H 0.11538 0.76212 0.2362 0.0
H1032 H 0.10294 0.74374 0.20459 0.0
H1033 H 0.14329 0.77308 0.17766 0.0
H1034 H 0.15556 0.79221 0.20907 0.0
H1035 H 0.21469 0.79265 0.31464 0.0
H1036 H 0.18409 0.79495 0.30428 0.0
H1037 H 0.19817 0.80825 0.24955 0.0
H1038 H 0.22865 0.80555 0.25986 0.0
H1039 H 0.16944 0.78444 0.24232 0.0
H1040 H 0.18661 0.8395 0.28639 0.0
H1041 H 0.1989 0.85937 0.31732 0.0
H1042 H 0.15983 0.83022 0.34599 0.0
H1043 H 0.14747 0.81001 0.31527 0.0
C1044 C 0.08962 0.80024 0.22261 0.0
C1045 C 0.07671 0.79693 0.23493 0.0
C1046 C 0.10761 0.80159 0.22922 0.0
C1047 C 0.11338 0.79899 0.24823 0.0
C1048 C 0.1005 0.79601 0.2607 0.0
C1049 C 0.08246 0.79511 0.25419 0.0
C1050 C 0.13269 0.79945 0.25508 0.0
C1051 C 0.14064 0.80963 0.27313 0.0
C1052 C 0.14349 0.79037 0.24384 0.0
C1053 C 0.13629 0.77871 0.22499 0.0
C1054 C 0.12154 0.76474 0.22353 0.0
C1055 C 0.11451 0.75418 0.20562 0.0
C1056 C 0.12236 0.75715 0.1891 0.0
C1057 C 0.13722 0.77078 0.19046 0.0
C1058 C 0.14418 0.78154 0.20831 0.0
C1059 C 0.21137 0.7967 0.30069 0.0
C1060 C 0.22425 0.7995 0.28835 0.0
C1061 C 0.19377 0.79792 0.29467 0.0
C1062 C 0.18855 0.80197 0.27609 0.0
C1063 C 0.20161 0.80516 0.26394 0.0
C1064 C 0.21917 0.80387 0.26996 0.0
C1065 C 0.16943 0.80192 0.26895 0.0
C1066 C 0.16154 0.79181 0.25085 0.0
C1067 C 0.15872 0.81114 0.28006 0.0
C1068 C 0.16621 0.82316 0.29857 0.0
C1069 C 0.18074 0.83724 0.29932 0.0
C1070 C 0.1877 0.84858 0.31681 0.0
C1071 C 0.18017 0.84604 0.33362 0.0
C1072 C 0.16566 0.83216 0.33297 0.0
C1073 C 0.15866 0.82077 0.31552 0.0
H1074 H 0.18556 0.85486 0.34714 0.0
H1075 H 0.11691 0.7489 0.17525 0.0
H1076 H 0.52258 0.88557 0.4027 0.0
H1077 H 0.51991 0.91178 0.42529 0.0
H1078 H 0.55154 0.89431 0.47096 0.0
H1079 H 0.55338 0.86757 0.44868 0.0
H1080 H 0.52674 0.90563 0.48574 0.0
H1081 H 0.56775 0.93081 0.44638 0.0
H1082 H 0.57916 0.93686 0.41607 0.0
H1083 H 0.5355 0.96185 0.40049 0.0
H1084 H 0.52372 0.95575 0.43062 0.0
H1085 H 0.55412 0.99906 0.53815 0.0
H1086 H 0.55513 0.9705 0.5181 0.0
H1087 H 0.50194 0.96751 0.49086 0.0
H1088 H 0.5006 0.99564 0.5115 0.0
H1089 H 0.53783 0.96692 0.46802 0.0
H1090 H 0.49727 0.93953 0.50947 0.0
H1091 H 0.4895 0.93522 0.54183 0.0
H1092 H 0.53732 0.91606 0.55548 0.0
H1093 H 0.54552 0.92062 0.52329 0.0
C1094 C 0.52911 0.88743 0.41751 0.0
C1095 C 0.53831 0.87461 0.42387 0.0
C1096 C 0.52761 0.90245 0.43043 0.0
C1097 C 0.53577 0.90525 0.44982 0.0
C1098 C 0.5451 0.89249 0.45612 0.0
C1099 C 0.54625 0.87727 0.44332 0.0
C1100 C 0.5344 0.92134 0.46358 0.0
C1101 C 0.52932 0.919 0.48182 0.0
C1102 C 0.53772 0.93891 0.45868 0.0
C1103 C 0.54478 0.94268 0.44063 0.0
C1104 C 0.56053 0.93749 0.43642 0.0
C1105 C 0.56707 0.94095 0.41929 0.0
C1106 C 0.55804 0.94969 0.40633 0.0
C1107 C 0.54247 0.95506 0.41052 0.0
C1108 C 0.53587 0.95163 0.42763 0.0
C1109 C 0.54254 0.99203 0.52819 0.0
C1110 C 0.52724 0.99929 0.5264 0.0
C1111 C 0.54314 0.97583 0.51677 0.0
C1112 C 0.52858 0.96699 0.50315 0.0
C1113 C 0.5132 0.97412 0.5015 0.0
C1114 C 0.51242 0.99006 0.5133 0.0
C1115 C 0.52992 0.95098 0.48969 0.0
C1116 C 0.53516 0.95345 0.47168 0.0
C1117 C 0.52713 0.93366 0.49495 0.0
C1118 C 0.52209 0.93062 0.51411 0.0
C1119 C 0.50621 0.9346 0.51946 0.0
C1120 C 0.50171 0.93207 0.53774 0.0
C1121 C 0.51294 0.92542 0.55073 0.0
C1122 C 0.52865 0.92124 0.54542 0.0
C1123 C 0.53323 0.92379 0.52716 0.0
H1124 H 0.50943 0.92347 0.56488 0.0
H1125 H 0.56312 0.95234 0.39307 0.0
H1126 H 0.45243 0.27645 0.70688 0.0
H1127 H 0.42244 0.27662 0.71425 0.0
H1128 H 0.44367 0.30105 0.77321 0.0
H1129 H 0.47329 0.29904 0.76622 0.0
H1130 H 0.41799 0.27985 0.77654 0.0
H1131 H 0.42235 0.32194 0.72935 0.0
H1132 H 0.42632 0.33018 0.69708 0.0
H1133 H 0.38321 0.28748 0.67057 0.0
H1134 H 0.37914 0.27888 0.70263 0.0
H1135 H 0.34305 0.30657 0.80894 0.0
H1136 H 0.37127 0.30516 0.79778 0.0
H1137 H 0.34439 0.28038 0.74084 0.0
H1138 H 0.31601 0.2834 0.75171 0.0
H1139 H 0.37151 0.29906 0.73466 0.0
H1140 H 0.36589 0.25729 0.77988 0.0
H1141 H 0.36126 0.24694 0.81107 0.0
H1142 H 0.40608 0.28644 0.84012 0.0
H1143 H 0.41083 0.29717 0.80915 0.0
C1144 C 0.45064 0.28199 0.72136 0.0
C1145 C 0.46532 0.28785 0.73593 0.0
C1146 C 0.43337 0.28228 0.72559 0.0
C1147 C 0.43033 0.28926 0.74431 0.0
C1148 C 0.44522 0.29548 0.75866 0.0
C1149 C 0.46232 0.2945 0.75463 0.0
C1150 C 0.41192 0.28944 0.74955 0.0
C1151 C 0.40804 0.28443 0.76742 0.0
C1152 C 0.39815 0.29436 0.73749 0.0
C1153 C 0.40057 0.29969 0.71833 0.0
C1154 C 0.41378 0.31429 0.71661 0.0
C1155 C 0.41604 0.31901 0.69837 0.0
C1156 C 0.40505 0.30933 0.68178 0.0
C1157 C 0.39173 0.29495 0.68341 0.0
C1158 C 0.38944 0.29015 0.70161 0.0
C1159 C 0.34309 0.3007 0.79405 0.0
C1160 C 0.32714 0.2948 0.78134 0.0
C1161 C 0.35938 0.29971 0.78765 0.0
C1162 C 0.36033 0.29196 0.76853 0.0
C1163 C 0.34433 0.28626 0.75571 0.0
C1164 C 0.328 0.28787 0.76196 0.0
C1165 C 0.37794 0.29016 0.76196 0.0
C1166 C 0.38156 0.29466 0.74382 0.0
C1167 C 0.39145 0.28456 0.77365 0.0
C1168 C 0.38862 0.27809 0.79224 0.0
C1169 C 0.37469 0.26382 0.79295 0.0
C1170 C 0.37205 0.25789 0.81058 0.0
C1171 C 0.38335 0.26605 0.82756 0.0
C1172 C 0.39733 0.28014 0.82695 0.0
C1173 C 0.40001 0.28614 0.80937 0.0
H1174 H 0.38129 0.26143 0.8412 0.0
H1175 H 0.40684 0.31301 0.66767 0.0
H1176 H 1.00573 0.83106 0.64248 0.0
H1177 H 0.02522 0.85816 0.63812 0.0
H1178 H 0.00965 0.84529 0.57608 0.0
H1179 H 0.99095 0.81687 0.58034 0.0
H1180 H 0.04472 0.85911 0.58575 0.0
H1181 H 0.99013 0.87501 0.60617 0.0
H1182 H 0.96867 0.87342 0.62947 0.0
H1183 H 0.00983 0.89925 0.6759 0.0
H1184 H 0.03154 0.90083 0.65286 0.0
H1185 H 0.04009 0.93293 0.54415 0.0
H1186 H 0.03717 0.90619 0.55964 0.0
H1187 H 0.06313 0.93816 0.61404 0.0
H1188 H 0.06579 0.96537 0.5984 0.0
H1189 H 0.03136 0.9164 0.61678 0.0
H1190 H 0.08408 0.90859 0.59454 0.0
H1191 H 0.10593 0.90996 0.57177 0.0
H1192 H 0.0704 0.86936 0.53042 0.0
H1193 H 0.04818 0.86798 0.55279 0.0
C1194 C 1.00611 0.83412 0.62788 0.0
C1195 C 0.99624 0.82234 0.61171 0.0
C1196 C 0.01744 0.84953 0.62545 0.0
C1197 C 0.01846 0.85391 0.60688 0.0
C1198 C 0.00883 0.8421 0.59058 0.0
C1199 C 0.99795 0.82616 0.59297 0.0
C1200 C 0.02881 0.87134 0.60466 0.0
C1201 C 0.04184 0.87166 0.59248 0.0
C1202 C 0.02569 0.88764 0.6144 0.0
C1203 C 0.01241 0.888 0.62785 0.0
C1204 C 0.99454 0.88045 0.62133 0.0
C1205 C 0.98237 0.87949 0.63449 0.0
C1206 C 0.98789 0.88621 0.65416 0.0
C1207 C 1.00557 0.89407 0.66067 0.0
C1208 C 0.01781 0.89504 0.64756 0.0
C1209 C 0.04541 0.93418 0.55934 0.0
C1210 C 0.05311 0.95098 0.57021 0.0
C1211 C 0.04388 0.91896 0.56812 0.0
C1212 C 0.05024 0.92028 0.58785 0.0
C1213 C 0.05838 0.93701 0.59873 0.0
C1214 C 0.05995 0.95238 0.58985 0.0
C1215 C 0.04653 0.90414 0.59695 0.0
C1216 C 0.03474 0.90393 0.61054 0.0
C1217 C 0.05097 0.88799 0.5887 0.0
C1218 C 0.06449 0.88812 0.57541 0.0
C1219 C 0.08092 0.89994 0.58059 0.0
C1220 C 0.09336 0.90075 0.56774 0.0
C1221 C 0.08957 0.88973 0.54967 0.0
C1222 C 0.07334 0.87785 0.54445 0.0
C1223 C 0.06082 0.87701 0.55724 0.0
H1224 H 0.09921 0.89039 0.53972 0.0
H1225 H 0.97846 0.88535 0.66435 0.0
H1226 H 0.50631 0.87382 0.94382 0.0
H1227 H 0.47699 0.86089 0.92523 0.0
H1228 H 0.49072 0.80852 0.91809 0.0
H1229 H 0.51916 0.82089 0.93762 0.0
H1230 H 0.47734 0.8407 0.88508 0.0
H1231 H 0.46624 0.79008 0.92529 0.0
H1232 H 0.46454 0.78026 0.95719 0.0
H1233 H 0.42979 0.81646 0.97041 0.0
H1234 H 0.43196 0.82704 0.93886 0.0
H1235 H 0.40066 0.80495 0.81923 0.0
H1236 H 0.42626 0.80158 0.84128 0.0
H1237 H 0.40599 0.8281 0.88952 0.0
H1238 H 0.38031 0.83098 0.86774 0.0
H1239 H 0.42351 0.80311 0.90079 0.0
H1240 H 0.43175 0.85247 0.86307 0.0
H1241 H 0.43174 0.8648 0.83233 0.0
H1242 H 0.46976 0.83372 0.81526 0.0
H1243 H 0.46976 0.821 0.84581 0.0
C1244 C 0.50271 0.85945 0.93891 0.0
C1245 C 0.51481 0.84832 0.94237 0.0
C1246 C 0.48606 0.85209 0.92837 0.0
C1247 C 0.48157 0.83365 0.92088 0.0
C1248 C 0.49355 0.82253 0.9246 0.0
C1249 C 0.50989 0.82972 0.93561 0.0
C1250 C 0.46572 0.82672 0.9066 0.0
C1251 C 0.46565 0.83222 0.88836 0.0
C1252 C 0.45058 0.81569 0.91097 0.0
C1253 C 0.4498 0.80981 0.9301 0.0
C1254 C 0.4587 0.79634 0.93525 0.0
C1255 C 0.45755 0.79055 0.95321 0.0
C1256 C 0.4472 0.79786 0.96591 0.0
C1257 C 0.43796 0.81096 0.96065 0.0
C1258 C 0.43923 0.81693 0.9428 0.0
C1259 C 0.40153 0.8096 0.83462 0.0
C1260 C 0.38891 0.81866 0.84184 0.0
C1261 C 0.41606 0.80765 0.84715 0.0
C1262 C 0.41805 0.81486 0.86689 0.0
C1263 C 0.40466 0.82249 0.8743 0.0
C1264 C 0.39018 0.82439 0.86185 0.0
C1265 C 0.43506 0.81728 0.87935 0.0
C1266 C 0.43538 0.81107 0.89725 0.0
C1267 C 0.45042 0.82784 0.87475 0.0
C1268 C 0.45061 0.83566 0.85656 0.0
C1269 C 0.44003 0.84821 0.8527 0.0
C1270 C 0.44002 0.85526 0.83532 0.0
C1271 C 0.45071 0.85001 0.82182 0.0
C1272 C 0.46146 0.83774 0.8257 0.0
C1273 C 0.46147 0.8306 0.84304 0.0
H1274 H 0.4507 0.85549 0.80838 0.0
H1275 H 0.44624 0.79328 0.97976 0.0
H1276 H 0.52004 0.21219 0.13094 0.0
H1277 H 0.5208 0.18602 0.10756 0.0
H1278 H 0.47959 0.19893 0.0685 0.0
H1279 H 0.47857 0.22533 0.09192 0.0
H1280 H 0.4797 0.15917 0.08269 0.0
H1281 H 0.51339 0.20904 0.0525 0.0
H1282 H 0.53706 0.23612 0.05756 0.0
H1283 H 0.57346 0.20711 0.08362 0.0
H1284 H 0.55002 0.17995 0.07877 0.0
H1285 H 0.50581 0.08621 0.02494 0.0
H1286 H 0.49295 0.11307 0.03155 0.0
H1287 H 0.5416 0.14018 0.06775 0.0
H1288 H 0.55433 0.11371 0.06089 0.0
H1289 H 0.52999 0.16074 0.04511 0.0
H1290 H 0.50909 0.12096 0.08777 0.0
H1291 H 0.4936 0.09487 0.10021 0.0
H1292 H 0.44404 0.10243 0.07233 0.0
H1293 H 0.45932 0.12865 0.05961 0.0
C1294 C 0.51104 0.20941 0.11745 0.0
C1295 C 0.49914 0.22055 0.11315 0.0
C1296 C 0.51153 0.19458 0.10422 0.0
C1297 C 0.5002 0.19092 0.08665 0.0
C1298 C 0.4883 0.20187 0.08219 0.0
C1299 C 0.48783 0.21683 0.09544 0.0
C1300 C 0.50133 0.17562 0.07292 0.0
C1301 C 0.49022 0.15933 0.07378 0.0
C1302 C 0.5159 0.17625 0.06276 0.0
C1303 C 0.53 0.1925 0.06512 0.0
C1304 C 0.52645 0.20848 0.05927 0.0
C1305 C 0.53983 0.22382 0.06211 0.0
C1306 C 0.55676 0.22332 0.07085 0.0
C1307 C 0.56038 0.20747 0.07677 0.0
C1308 C 0.54707 0.1921 0.07391 0.0
C1309 C 0.51381 0.09826 0.03365 0.0
C1310 C 0.531 0.0984 0.04217 0.0
C1311 C 0.50644 0.11331 0.03761 0.0
C1312 C 0.51638 0.12831 0.0501 0.0
C1313 C 0.5339 0.12866 0.05782 0.0
C1314 C 0.54128 0.11378 0.05365 0.0
C1315 C 0.50891 0.14392 0.05551 0.0
C1316 C 0.5187 0.16039 0.05291 0.0
C1317 C 0.49446 0.14317 0.06609 0.0
C1318 C 0.48543 0.12641 0.07214 0.0
C1319 C 0.49495 0.11679 0.08382 0.0
C1320 C 0.48618 0.10204 0.09108 0.0
C1321 C 0.46785 0.0968 0.08686 0.0
C1322 C 0.45826 0.10637 0.07542 0.0
C1323 C 0.46697 0.12117 0.06816 0.0
H1324 H 0.46108 0.08543 0.09258 0.0
H1325 H 0.56708 0.23523 0.07307 0.0
H1326 H 0.08214 0.3554 0.41007 0.0
H1327 H 0.0988 0.35374 0.38273 0.0
H1328 H 0.12769 0.31768 0.4089 0.0
H1329 H 0.11148 0.31973 0.43659 0.0
H1330 H 0.1486 0.34226 0.39406 0.0
H1331 H 0.09129 0.30212 0.37392 0.0
H1332 H 0.05877 0.29627 0.36843 0.0
H1333 H 0.05993 0.33396 0.32813 0.0
H1334 H 0.09248 0.34019 0.33359 0.0
H1335 H 0.17311 0.28167 0.32589 0.0
H1336 H 0.15738 0.29609 0.34942 0.0
H1337 H 0.14522 0.33241 0.3102 0.0
H1338 H 0.1609 0.31786 0.28616 0.0
H1339 H 0.11617 0.31576 0.32863 0.0
H1340 H 0.17506 0.35018 0.34531 0.0
H1341 H 0.20746 0.35568 0.35292 0.0
H1342 H 0.20309 0.32705 0.40138 0.0
H1343 H 0.17069 0.3211 0.39385 0.0
C1344 C 0.09217 0.34725 0.41004 0.0
C1345 C 0.09554 0.33754 0.42525 0.0
C1346 C 0.10159 0.34631 0.39445 0.0
C1347 C 0.11419 0.33541 0.3938 0.0
C1348 C 0.11795 0.32617 0.40927 0.0
C1349 C 0.10871 0.3273 0.425 0.0
C1350 C 0.12316 0.33295 0.37675 0.0
C1351 C 0.14156 0.33647 0.37972 0.0
C1352 C 0.1138 0.326 0.35805 0.0
C1353 C 0.09428 0.32174 0.35429 0.0
C1354 C 0.0846 0.30919 0.36393 0.0
C1355 C 0.06617 0.30582 0.36084 0.0
C1356 C 0.05729 0.31478 0.34798 0.0
C1357 C 0.06682 0.32705 0.33811 0.0
C1358 C 0.08525 0.3305 0.34118 0.0
C1359 C 0.16682 0.2925 0.32205 0.0
C1360 C 0.16802 0.29852 0.30409 0.0
C1361 C 0.15806 0.30085 0.3356 0.0
C1362 C 0.15046 0.31541 0.33149 0.0
C1363 C 0.15121 0.32127 0.3135 0.0
C1364 C 0.16012 0.31297 0.29988 0.0
C1365 C 0.14163 0.3242 0.34623 0.0
C1366 C 0.12324 0.32197 0.34282 0.0
C1367 C 0.15097 0.33202 0.36471 0.0
C1368 C 0.17046 0.33511 0.36892 0.0
C1369 C 0.18102 0.34488 0.35744 0.0
C1370 C 0.19938 0.34811 0.36178 0.0
C1371 C 0.20733 0.3417 0.37762 0.0
C1372 C 0.19692 0.332 0.38912 0.0
C1373 C 0.17856 0.3287 0.38482 0.0
H1374 H 0.22155 0.34427 0.38099 0.0
H1375 H 0.04302 0.31219 0.34564 0.0
H1376 H 0.91234 0.09299 0.21776 0.0
H1377 H 0.9315 0.09313 0.1925 0.0
H1378 H 0.95543 0.05254 0.21629 0.0
H1379 H 0.93765 0.05412 0.24279 0.0
H1380 H 0.97936 0.06901 0.20416 0.0
H1381 H 0.92015 0.04923 0.16765 0.0
H1382 H 0.8897 0.05226 0.15669 0.0
H1383 H 0.90936 0.10169 0.13665 0.0
H1384 H 0.93988 0.09902 0.14767 0.0
H1385 H 0.01099 0.0334 0.11864 0.0
H1386 H 0.9956 0.04039 0.14621 0.0
H1387 H 0.98732 0.08943 0.12607 0.0
H1388 H 1.00301 0.08236 0.09822 0.0
H1389 H 0.9569 0.07186 0.13595 0.0
H1390 H 0.01569 0.08961 0.16898 0.0
H1391 H 0.04624 0.08652 0.1791 0.0
H1392 H 0.02719 0.04027 0.20492 0.0
H1393 H 0.99651 0.04293 0.19472 0.0
C1394 C 0.92165 0.08404 0.21756 0.0
C1395 C 0.92316 0.07338 0.23236 0.0
C1396 C 0.9326 0.08388 0.20276 0.0
C1397 C 0.94488 0.0723 0.20142 0.0
C1398 C 0.9463 0.06168 0.21639 0.0
C1399 C 0.93591 0.06244 0.23166 0.0
C1400 C 0.95645 0.07138 0.18503 0.0
C1401 C 0.97409 0.0693 0.18926 0.0
C1402 C 0.95052 0.07251 0.16527 0.0
C1403 C 0.93222 0.07402 0.15865 0.0
C1404 C 0.91794 0.06077 0.16098 0.0
C1405 C 0.90068 0.06243 0.15476 0.0
C1406 C 0.89759 0.07719 0.14604 0.0
C1407 C 0.91176 0.09029 0.14345 0.0
C1408 C 0.92902 0.08871 0.14966 0.0
C1409 C 1.00648 0.04603 0.12039 0.0
C1410 C 0.00888 0.05754 0.10636 0.0
C1411 C 0.9975 0.05001 0.13625 0.0
C1412 C 0.99023 0.0656 0.13873 0.0
C1413 C 0.99279 0.07735 0.12486 0.0
C1414 C 1.00208 0.07346 0.109 0.0
C1415 C 0.97933 0.06888 0.15516 0.0
C1416 C 0.96195 0.07146 0.15091 0.0
C1417 C 0.98542 0.06805 0.17483 0.0
C1418 C 1.00382 0.06639 0.18095 0.0
C1419 C 0.01802 0.0787 0.17669 0.0
C1420 C 0.03536 0.07704 0.18246 0.0
C1421 C 0.03866 0.06319 0.19261 0.0
C1422 C 0.02462 0.05098 0.19704 0.0
C1423 C 1.00726 0.05257 0.19129 0.0
H1424 H 0.05209 0.06193 0.19708 0.0
H1425 H 0.88422 0.07845 0.14124 0.0
H1426 H 0.33569 0.75252 0.5021 0.0
H1427 H 0.3267 0.7659 0.47369 0.0
H1428 H 0.30457 0.71299 0.44173 0.0
H1429 H 0.31421 0.69957 0.46971 0.0
H1430 H 0.31834 0.73217 0.41808 0.0
H1431 H 0.27876 0.74128 0.464 0.0
H1432 H 0.27036 0.75121 0.49587 0.0
H1433 H 0.29442 0.80575 0.49319 0.0
H1434 H 0.30317 0.79608 0.46139 0.0
H1435 H 0.2643 0.75826 0.34435 0.0
H1436 H 0.27299 0.7457 0.37332 0.0
H1437 H 0.29776 0.79888 0.40283 0.0
H1438 H 0.28837 0.81162 0.37406 0.0
H1439 H 0.28295 0.77969 0.4274 0.0
H1440 H 0.32143 0.76866 0.37922 0.0
H1441 H 0.32656 0.75714 0.34628 0.0
H1442 H 0.30101 0.70396 0.3523 0.0
H1443 H 0.29557 0.71521 0.3852 0.0
C1444 C 0.32914 0.74374 0.48893 0.0
C1445 C 0.32563 0.72498 0.48823 0.0
C1446 C 0.32386 0.75141 0.47272 0.0
C1447 C 0.31457 0.7405 0.45561 0.0
C1448 C 0.31166 0.72174 0.4547 0.0
C1449 C 0.31716 0.71407 0.47078 0.0
C1450 C 0.30731 0.74856 0.43895 0.0
C1451 C 0.3105 0.74246 0.42016 0.0
C1452 C 0.2971 0.76206 0.44146 0.0
C1453 C 0.29177 0.76794 0.46046 0.0
C1454 C 0.28235 0.75537 0.47028 0.0
C1455 C 0.27752 0.76095 0.48831 0.0
C1456 C 0.2819 0.77909 0.49658 0.0
C1457 C 0.29107 0.7917 0.48679 0.0
C1458 C 0.29596 0.78618 0.46876 0.0
C1459 C 0.27121 0.76733 0.35718 0.0
C1460 C 0.27563 0.78593 0.35695 0.0
C1461 C 0.27637 0.76011 0.37368 0.0
C1462 C 0.28652 0.77126 0.39009 0.0
C1463 C 0.29005 0.78997 0.3903 0.0
C1464 C 0.28459 0.79726 0.37389 0.0
C1465 C 0.29408 0.7634 0.40666 0.0
C1466 C 0.29092 0.76951 0.4254 0.0
C1467 C 0.30405 0.74968 0.40403 0.0
C1468 C 0.30807 0.74278 0.38464 0.0
C1469 C 0.31694 0.75451 0.37352 0.0
C1470 C 0.31987 0.74803 0.35485 0.0
C1471 C 0.31413 0.72983 0.34722 0.0
C1472 C 0.3055 0.71805 0.35826 0.0
C1473 C 0.30251 0.72445 0.37693 0.0
H1474 H 0.31636 0.72485 0.33274 0.0
H1475 H 0.27815 0.78338 0.51055 0.0
H1476 H 0.59133 0.01988 0.7591 0.0
H1477 H 0.57825 0.02994 0.73036 0.0
H1478 H 0.59142 0.9854 0.69431 0.0
H1479 H 0.60595 0.97633 0.72319 0.0
H1480 H 0.59822 0.01163 0.67778 0.0
H1481 H 0.54556 0.99148 0.70751 0.0
H1482 H 0.52747 0.99209 0.73416 0.0
H1483 H 0.52882 0.04845 0.73415 0.0
H1484 H 0.54706 0.04819 0.70766 0.0
H1485 H 0.54884 0.01372 0.58955 0.0
H1486 H 0.55572 1.00429 0.62112 0.0
H1487 H 0.55147 0.05636 0.65002 0.0
H1488 H 0.54439 0.06571 0.61829 0.0
H1489 H 0.53965 0.02889 0.67095 0.0
H1490 H 0.59068 0.05013 0.64281 0.0
H1491 H 0.60912 0.05196 0.61656 0.0
H1492 H 0.6118 0.99621 0.61483 0.0
H1493 H 0.59312 0.99399 0.64087 0.0
C1494 C 0.59127 0.01211 0.74508 0.0
C1495 C 0.5995 0.99717 0.74343 0.0
C1496 C 0.5836 0.01781 0.72853 0.0
C1497 C 0.58327 0.00823 0.70991 0.0
C1498 C 0.59136 0.99311 0.70837 0.0
C1499 C 0.59961 0.98783 0.72489 0.0
C1500 C 0.57546 0.01433 0.69193 0.0
C1501 C 0.58523 0.01499 0.6763 0.0
C1502 C 0.5589 0.01981 0.69001 0.0
C1503 C 0.54776 0.01983 0.70573 0.0
C1504 C 0.54204 1.004 0.71325 0.0
C1505 C 0.53176 1.00429 0.72832 0.0
C1506 C 0.52703 0.0203 0.73587 0.0
C1507 C 0.5325 0.03605 0.72831 0.0
C1508 C 0.54278 0.03584 0.71326 0.0
C1509 C 0.54871 0.02288 0.60267 0.0
C1510 C 0.54579 0.0403 0.60156 0.0
C1511 C 0.5528 0.01757 0.6207 0.0
C1512 C 0.55436 0.02969 0.638 0.0
C1513 C 0.5503 0.04675 0.63692 0.0
C1514 C 0.54619 0.05206 0.61882 0.0
C1515 C 0.56207 0.02517 0.65679 0.0
C1516 C 0.55248 0.02517 0.67252 0.0
C1517 C 0.57888 0.0205 0.65899 0.0
C1518 C 0.59039 0.02185 0.64364 0.0
C1519 C 0.59512 0.03824 0.63674 0.0
C1520 C 0.60562 0.03935 0.62191 0.0
C1521 C 0.61159 0.0242 0.614 0.0
C1522 C 0.60714 0.00793 0.62096 0.0
C1523 C 0.59661 0.00673 0.63576 0.0
H1524 H 0.6197 0.02508 0.6025 0.0
H1525 H 0.51909 0.0205 0.74755 0.0
H1526 H 0.26356 0.45292 0.03692 0.0
H1527 H 0.25762 0.42817 0.00957 0.0
H1528 H 0.29878 0.40488 0.03668 0.0
H1529 H 0.30473 0.4294 0.064 0.0
H1530 H 0.30029 0.40795 0.99753 0.0
H1531 H 0.25917 0.38591 0.03904 0.0
H1532 H 0.23511 0.38757 0.05875 0.0
H1533 H 0.20046 0.39239 0.00836 0.0
H1534 H 0.22442 0.39099 0.9884 0.0
H1535 H 0.28916 0.32462 0.9435 0.0
H1536 H 0.28616 0.34443 0.97272 0.0
H1537 H 0.24773 0.36672 0.93938 0.0
H1538 H 0.25073 0.3468 0.91006 0.0
H1539 H 0.24324 0.36438 0.98093 0.0
H1540 H 0.28512 0.38749 0.9398 0.0
H1541 H 0.30977 0.38696 0.92073 0.0
H1542 H 0.34341 0.38053 0.97117 0.0
H1543 H 0.3189 0.38093 0.9905 0.0
C1544 C 0.27142 0.44261 0.0369 0.0
C1545 C 0.28462 0.44305 0.05245 0.0
C1546 C 0.26791 0.42846 0.02145 0.0
C1547 C 0.27768 0.41476 0.02139 0.0
C1548 C 0.29109 0.41537 0.03666 0.0
C1549 C 0.29447 0.42936 0.05218 0.0
C1550 C 0.27433 0.39997 0.0051 0.0
C1551 C 0.28789 0.39832 0.994 0.0
C1552 C 0.258 0.38777 1.0004 0.0
C1553 C 0.24361 0.38857 0.01231 0.0
C1554 C 0.24646 0.3875 0.03221 0.0
C1555 C 0.23284 0.38835 0.04342 0.0
C1556 C 0.21628 0.39014 0.03483 0.0
C1557 C 0.2133 0.39103 0.015 0.0
C1558 C 0.22689 0.3902 0.00373 0.0
C1559 C 0.27941 0.33308 0.94272 0.0
C1560 C 0.27005 0.33429 0.92486 0.0
C1561 C 0.27779 0.34441 0.95928 0.0
C1562 C 0.26691 0.35705 0.95795 0.0
C1563 C 0.25611 0.35692 0.94052 0.0
C1564 C 0.25776 0.34557 0.9239 0.0
C1565 C 0.2693 0.37228 0.9736 0.0
C1566 C 0.2556 0.37406 0.98448 0.0
C1567 C 0.28554 0.38467 0.97818 0.0
C1568 C 0.30014 0.38398 0.96649 0.0
C1569 C 0.29772 0.38575 0.94675 0.0
C1570 C 0.31168 0.38556 0.93593 0.0
C1571 C 0.32812 0.38362 0.94471 0.0
C1572 C 0.33066 0.38196 0.96437 0.0
C1573 C 0.31675 0.3822 0.97526 0.0
H1574 H 0.33891 0.38346 0.9363 0.0
H1575 H 0.20574 0.3908 0.04352 0.0
H1576 H 0.95908 0.07425 0.33694 0.0
H1577 H 0.9732 0.07453 0.36981 0.0
H1578 H 0.92289 0.07143 0.39048 0.0
H1579 H 0.90864 0.07172 0.35727 0.0
H1580 H 0.94922 0.09223 0.41773 0.0
H1581 H 0.94113 0.03325 0.37994 0.0
H1582 H 0.94378 0.01206 0.35127 0.0
H1583 H 1.00019 0.02807 0.3625 0.0
H1584 H 0.99785 0.04955 0.39108 0.0
H1585 H 0.97962 0.06467 0.50649 0.0
H1586 H 0.96359 0.06693 0.47519 0.0
H1587 H 0.00951 0.0609 0.44783 0.0
H1588 H 0.02506 0.05721 0.47896 0.0
H1589 H 0.98404 0.04446 0.42398 0.0
H1590 H 0.99315 0.10318 0.46132 0.0
H1591 H 0.99146 0.12459 0.49002 0.0
H1592 H 0.93496 0.11121 0.47938 0.0
H1593 H 0.93626 0.08901 0.45098 0.0
C1594 C 0.95099 0.07398 0.3485 0.0
C1595 C 0.93265 0.0729 0.34433 0.0
C1596 C 0.95911 0.07399 0.36738 0.0
C1597 C 0.94916 0.07244 0.38277 0.0
C1598 C 0.93095 0.07246 0.37894 0.0
C1599 C 0.92278 0.07272 0.35993 0.0
C1600 C 0.95774 0.06987 0.40235 0.0
C1601 C 0.95662 0.08162 0.41912 0.0
C1602 C 0.96787 0.05634 0.40439 0.0
C1603 C 0.9693 0.04306 0.38757 0.0
C1604 C 0.95409 0.03227 0.37626 0.0
C1605 C 0.95554 0.02023 0.36002 0.0
C1606 C 0.97214 0.01873 0.35505 0.0
C1607 C 0.98734 0.02924 0.36636 0.0
C1608 C 0.98596 0.04133 0.38259 0.0
C1609 C 0.98633 0.06387 0.49381 0.0
C1610 C 1.00373 0.06093 0.49536 0.0
C1611 C 0.97715 0.06531 0.4758 0.0
C1612 C 0.98531 0.06465 0.45886 0.0
C1613 C 1.00272 0.06156 0.46045 0.0
C1614 C 0.01171 0.05954 0.47836 0.0
C1615 C 0.97578 0.06698 0.43955 0.0
C1616 C 0.97668 0.05512 0.42275 0.0
C1617 C 0.96565 0.08056 0.4375 0.0
C1618 C 0.96481 0.09435 0.4541 0.0
C1619 C 0.98035 0.10476 0.46511 0.0
C1620 C 0.97947 0.11703 0.48136 0.0
C1621 C 0.96315 0.1194 0.4865 0.0
C1622 C 0.94762 0.1094 0.47539 0.0
C1623 C 0.94841 0.09691 0.45924 0.0
H1624 H 0.96255 0.12896 0.49911 0.0
H1625 H 0.97324 0.00942 0.34245 0.0
H1626 H 0.34308 0.71195 0.62614 0.0
H1627 H 0.33702 0.7294 0.65541 0.0
H1628 H 0.30864 0.76007 0.62029 0.0
H1629 H 0.31583 0.74331 0.59085 0.0
H1630 H 0.32378 0.78119 0.65259 0.0
H1631 H 0.28499 0.72246 0.64121 0.0
H1632 H 0.27867 0.68928 0.63402 0.0
H1633 H 0.315 0.68714 0.68415 0.0
H1634 H 0.32185 0.7203 0.69123 0.0
H1635 H 0.27647 0.80687 0.73237 0.0
H1636 H 0.2863 0.79717 0.70127 0.0
H1637 H 0.31491 0.76174 0.72873 0.0
H1638 H 0.30438 0.77064 0.75924 0.0
H1639 H 0.29718 0.74366 0.69812 0.0
H1640 H 0.33412 0.80359 0.71088 0.0
H1641 H 0.33967 0.83675 0.717 0.0
H1642 H 0.30672 0.83698 0.66366 0.0
H1643 H 0.3008 0.80383 0.65737 0.0
C1644 C 0.33591 0.7227 0.62466 0.0
C1645 C 0.32997 0.72626 0.60618 0.0
C1646 C 0.3322 0.73254 0.64144 0.0
C1647 C 0.32174 0.74568 0.64022 0.0
C1648 C 0.31658 0.74993 0.62176 0.0
C1649 C 0.32076 0.74039 0.60491 0.0
C1650 C 0.31557 0.75415 0.6581 0.0
C1651 C 0.31786 0.77296 0.66249 0.0
C1652 C 0.30781 0.74363 0.67119 0.0
C1653 C 0.30369 0.72375 0.66693 0.0
C1654 C 0.29158 0.71487 0.65069 0.0
C1655 C 0.28797 0.69609 0.64658 0.0
C1656 C 0.29636 0.6861 0.65867 0.0
C1657 C 0.30842 0.69487 0.67485 0.0
C1658 C 0.31213 0.71364 0.67896 0.0
C1659 C 0.2853 0.79742 0.73182 0.0
C1660 C 0.28985 0.78969 0.7483 0.0
C1661 C 0.2909 0.7918 0.71399 0.0
C1662 C 0.30148 0.77862 0.71244 0.0
C1663 C 0.3067 0.77174 0.7293 0.0
C1664 C 0.30083 0.77701 0.74686 0.0
C1665 C 0.30619 0.77083 0.69331 0.0
C1666 C 0.30335 0.752 0.68847 0.0
C1667 C 0.31338 0.7814 0.67988 0.0
C1668 C 0.3169 0.80127 0.68376 0.0
C1669 C 0.32797 0.81073 0.70054 0.0
C1670 C 0.33119 0.82952 0.70403 0.0
C1671 C 0.32352 0.83897 0.69075 0.0
C1672 C 0.31263 0.82965 0.67395 0.0
C1673 C 0.30934 0.81088 0.67041 0.0
H1674 H 0.32605 0.85351 0.69346 0.0
H1675 H 0.29355 0.67156 0.65546 0.0
H1676 H 0.56819 0.99499 0.84473 0.0
H1677 H 0.55944 1.00276 0.87652 0.0
H1678 H 0.61405 0.02189 0.90102 0.0
H1679 H 0.62292 0.01352 0.86905 0.0
H1680 H 0.59565 0.00659 0.92692 0.0
H1681 H 0.5898 0.05163 0.88814 0.0
H1682 H 0.58125 0.06444 0.85889 0.0
H1683 H 0.52659 0.04479 0.86203 0.0
H1684 H 0.53483 0.0316 0.89116 0.0
H1685 H 0.57165 0.05508 0.0083 0.0
H1686 H 0.5837 0.04987 0.978 0.0
H1687 H 0.53165 0.02543 0.94819 0.0
H1688 H 0.51932 0.03137 0.97856 0.0
H1689 H 0.5515 0.0461 0.92604 0.0
H1690 H 0.5604 0.99801 0.96433 0.0
H1691 H 0.57071 0.98945 0.99573 0.0
H1692 H 0.62246 0.02028 0.99524 0.0
H1693 H 0.61242 0.029 0.96384 0.0
C1694 C 0.57836 1.00032 0.85703 0.0
C1695 C 0.5962 1.0036 0.85451 0.0
C1696 C 0.57335 1.00494 0.87513 0.0
C1697 C 0.58606 0.01337 0.89101 0.0
C1698 C 0.60403 0.0155 0.88891 0.0
C1699 C 0.60909 0.0106 0.87072 0.0
C1700 C 0.58029 0.02085 0.90926 0.0
C1701 C 0.58618 0.01539 0.92672 0.0
C1702 C 0.56803 0.03251 0.90915 0.0
C1703 C 0.56294 0.04048 0.89171 0.0
C1704 C 0.57596 0.04992 0.8825 0.0
C1705 C 0.57117 0.05727 0.86596 0.0
C1706 C 0.55339 0.05539 0.85858 0.0
C1707 C 0.54036 0.04621 0.86776 0.0
C1708 C 0.54508 0.03881 0.88429 0.0
C1709 C 0.56274 0.04871 0.99525 0.0
C1710 C 0.54461 0.04329 0.99577 0.0
C1711 C 0.56965 0.04573 0.97797 0.0
C1712 C 0.55865 0.0368 0.961 0.0
C1713 C 0.54037 0.03221 0.96121 0.0
C1714 C 0.53336 0.03555 0.97851 0.0
C1715 C 0.56638 0.0313 0.9434 0.0
C1716 C 0.56095 0.03726 0.92612 0.0
C1717 C 0.57935 0.02047 0.94378 0.0
C1718 C 0.5857 0.01408 0.96179 0.0
C1719 C 0.57401 1.00283 0.97088 0.0
C1720 C 0.57978 0.998 0.98868 0.0
C1721 C 0.59723 1.00432 0.99747 0.0
C1722 C 0.60897 0.01535 0.98838 0.0
C1723 C 0.60328 0.02016 0.97055 0.0
H1724 H 0.60165 1.00067 0.01132 0.0
H1725 H 0.54971 0.06109 0.84576 0.0
H1726 H 0.30401 0.44576 0.18312 0.0
H1727 H 0.2979 0.42219 0.20335 0.0
H1728 H 0.27464 0.38375 0.1523 0.0
H1729 H 0.28084 0.40698 0.13201 0.0
H1730 H 0.25514 0.38292 0.18578 0.0
H1731 H 0.31333 0.38221 0.1671 0.0
H1732 H 0.34388 0.3959 0.1641 0.0
H1733 H 0.35499 0.41257 0.22582 0.0
H1734 H 0.3244 0.3992 0.22912 0.0
H1735 H 0.26354 0.30238 0.2288 0.0
H1736 H 0.26224 0.32474 0.20651 0.0
H1737 H 0.29241 0.36624 0.25177 0.0
H1738 H 0.29414 0.34413 0.27346 0.0
H1739 H 0.30701 0.36414 0.21896 0.0
H1740 H 0.25072 0.3651 0.23948 0.0
H1741 H 0.22036 0.35293 0.24449 0.0
H1742 H 0.20521 0.33794 0.18291 0.0
H1743 H 0.23562 0.34966 0.17755 0.0
C1744 C 0.29764 0.43228 0.17626 0.0
C1745 C 0.29314 0.42809 0.15605 0.0
C1746 C 0.29405 0.41894 0.18778 0.0
C1747 C 0.28578 0.40141 0.17916 0.0
C1748 C 0.28092 0.3973 0.15908 0.0
C1749 C 0.2847 0.41052 0.14756 0.0
C1750 C 0.28349 0.38699 0.19091 0.0
C1751 C 0.26639 0.3786 0.19294 0.0
C1752 C 0.29826 0.38174 0.20031 0.0
C1753 C 0.31657 0.38991 0.19831 0.0
C1754 C 0.32225 0.38897 0.17999 0.0
C1755 C 0.33957 0.39663 0.17825 0.0
C1756 C 0.35136 0.40514 0.19475 0.0
C1757 C 0.34584 0.406 0.21304 0.0
C1758 C 0.32852 0.39839 0.21486 0.0
C1759 C 0.27001 0.31627 0.23367 0.0
C1760 C 0.27955 0.32164 0.25231 0.0
C1761 C 0.26904 0.32897 0.22119 0.0
C1762 C 0.27734 0.34699 0.22762 0.0
C1763 C 0.28613 0.35233 0.24658 0.0
C1764 C 0.28728 0.33973 0.25881 0.0
C1765 C 0.27864 0.36023 0.21435 0.0
C1766 C 0.29564 0.36833 0.21183 0.0
C1767 C 0.26375 0.36537 0.20492 0.0
C1768 C 0.24554 0.35799 0.20813 0.0
C1769 C 0.241 0.35895 0.22701 0.0
C1770 C 0.22376 0.35219 0.22992 0.0
C1771 C 0.21088 0.3446 0.21403 0.0
C1772 C 0.21521 0.34377 0.19521 0.0
C1773 C 0.23246 0.35045 0.19223 0.0
H1774 H 0.19752 0.33943 0.2163 0.0
H1775 H 0.36478 0.41104 0.19338 0.0
H1776 H 0.15421 0.91867 0.06799 0.0
H1777 H 0.1332 0.93879 0.07176 0.0
H1778 H 0.16993 0.98136 0.055 0.0
H1779 H 0.19118 0.96166 0.05221 0.0
H1780 H 0.15654 0.99553 0.08252 0.0
H1781 H 0.13032 0.95483 0.02389 0.0
H1782 H 0.11838 0.92525 0.00378 0.0
H1783 H 0.07943 0.91414 0.04149 0.0
H1784 H 0.09128 0.94357 0.06195 0.0
H1785 H 0.09376 0.05214 0.06464 0.0
H1786 H 0.11632 0.03356 0.06347 0.0
H1787 H 0.08086 0.99045 0.08112 0.0
H1788 H 0.05819 0.00862 0.08141 0.0
H1789 H 0.09392 0.97705 0.05282 0.0
H1790 H 0.12016 0.01839 0.11129 0.0
H1791 H 0.13198 0.04833 0.13066 0.0
H1792 H 0.1707 0.05868 0.09254 0.0
H1793 H 0.15895 0.02889 0.07278 0.0
C1794 C 0.15773 0.93228 0.06499 0.0
C1795 C 0.17434 0.93847 0.05966 0.0
C1796 C 0.14566 0.9438 0.06706 0.0
C1797 C 0.14973 0.96164 0.06334 0.0
C1798 C 0.16634 0.96775 0.05798 0.0
C1799 C 0.17849 0.95638 0.05626 0.0
C1800 C 0.13694 0.97408 0.06524 0.0
C1801 C 0.14289 0.9915 0.07581 0.0
C1802 C 0.11898 0.96894 0.05686 0.0
C1803 C 0.11181 0.9513 0.04454 0.0
C1804 C 0.11929 0.94602 0.02795 0.0
C1805 C 0.11252 0.92929 0.01649 0.0
C1806 C 0.09819 0.9178 0.02139 0.0
C1807 C 0.09055 0.92304 0.03773 0.0
C1808 C 0.09728 0.93974 0.04925 0.0
C1809 C 0.09103 0.03891 0.06887 0.0
C1810 C 0.07431 0.03196 0.07346 0.0
C1811 C 0.10392 0.02822 0.06811 0.0
C1812 C 0.10046 0.01054 0.07238 0.0
C1813 C 0.08396 1.00396 0.07771 0.0
C1814 C 0.07103 0.01446 0.0781 0.0
C1815 C 0.11345 0.99839 0.07031 0.0
C1816 C 0.10755 0.98105 0.05961 0.0
C1817 C 0.13144 1.00365 0.07852 0.0
C1818 C 0.13859 0.02148 0.09049 0.0
C1819 C 0.13113 0.0271 0.10698 0.0
C1820 C 0.13782 0.04403 0.11803 0.0
C1821 C 0.15205 0.05541 0.11281 0.0
C1822 C 0.15966 0.04986 0.09655 0.0
C1823 C 0.153 0.03295 0.08544 0.0
H1824 H 0.15721 0.06852 0.12139 0.0
H1825 H 0.09299 0.90485 0.0125 0.0
H1826 H 0.70033 0.64107 0.00925 0.0
H1827 H 0.6745 0.62688 0.02205 0.0
H1828 H 0.67552 0.57614 0.98761 0.0
H1829 H 0.70184 0.59025 0.97488 0.0
H1830 H 0.64235 0.58957 0.98439 0.0
H1831 H 0.68669 0.57846 0.03238 0.0
H1832 H 0.71342 0.58685 0.05667 0.0
H1833 H 0.68915 0.62391 0.09049 0.0
H1834 H 0.66239 0.61602 0.06622 0.0
H1835 H 0.56684 0.55342 0.02346 0.0
H1836 H 0.59592 0.55637 0.01286 0.0
H1837 H 0.61485 0.60381 0.05595 0.0
H1838 H 0.58623 0.60016 0.06737 0.0
H1839 H 0.63941 0.58643 0.05409 0.0
H1840 H 0.59993 0.605 0.007 0.0
H1841 H 0.57371 0.60258 0.9828 0.0
H1842 H 0.5889 0.55911 0.94777 0.0
H1843 H 0.61507 0.56107 0.97196 0.0
C1844 C 0.69506 0.6269 0.00431 0.0
C1845 C 0.7029 0.61674 0.99089 0.0
C1846 C 0.68045 0.61881 0.01181 0.0
C1847 C 0.67339 0.60051 0.00589 0.0
C1848 C 0.68103 0.59029 0.9924 0.0
C1849 C 0.69591 0.59834 0.98511 0.0
C1850 C 0.65716 0.59258 0.01281 0.0
C1851 C 0.64166 0.58836 0.99953 0.0
C1852 C 0.65646 0.59194 0.03271 0.0
C1853 C 0.67256 0.59671 0.04738 0.0
C1854 C 0.6871 0.58852 0.0449 0.0
C1855 C 0.70226 0.59317 0.05869 0.0
C1856 C 0.703 0.60592 0.0751 0.0
C1857 C 0.68857 0.61404 0.07777 0.0
C1858 C 0.6734 0.60947 0.064 0.0
C1859 C 0.57734 0.56428 0.03083 0.0
C1860 C 0.5744 0.57663 0.04615 0.0
C1861 C 0.59387 0.56603 0.0247 0.0
C1862 C 0.60744 0.58049 0.0334 0.0
C1863 C 0.60458 0.59253 0.04905 0.0
C1864 C 0.58821 0.59052 0.05548 0.0
C1865 C 0.62439 0.58373 0.02572 0.0
C1866 C 0.64004 0.58715 0.03886 0.0
C1867 C 0.6252 0.58445 0.00579 0.0
C1868 C 0.60928 0.58298 0.99144 0.0
C1869 C 0.59756 0.59478 0.99425 0.0
C1870 C 0.58273 0.59352 0.98052 0.0
C1871 C 0.5796 0.58065 0.9638 0.0
C1872 C 0.5913 0.56902 0.96077 0.0
C1873 C 0.60612 0.57019 0.97449 0.0
H1874 H 0.56813 0.57973 0.95315 0.0
H1875 H 0.71474 0.60948 0.08577 0.0
H1876 H 0.6726 0.47055 0.28316 0.0
H1877 H 0.68565 0.44381 0.27972 0.0
H1878 H 0.72082 0.46495 0.33304 0.0
H1879 H 0.70885 0.49253 0.33528 0.0
H1880 H 0.73863 0.44898 0.31545 0.0
H1881 H 0.67729 0.42239 0.31999 0.0
H1882 H 0.6451 0.41596 0.30963 0.0
H1883 H 0.65269 0.39514 0.25203 0.0
H1884 H 0.68487 0.40126 0.26211 0.0
H1885 H 0.77142 0.3684 0.32356 0.0
H1886 H 0.75759 0.39443 0.3267 0.0
H1887 H 0.7203 0.37061 0.27564 0.0
H1888 H 0.73305 0.34347 0.27406 0.0
H1889 H 0.70328 0.38796 0.29161 0.0
H1890 H 0.76423 0.41438 0.28637 0.0
H1891 H 0.7965 0.4208 0.29611 0.0
H1892 H 0.7899 0.44258 0.35378 0.0
H1893 H 0.75762 0.43621 0.34438 0.0
C1894 C 0.68314 0.46958 0.29421 0.0
C1895 C 0.68948 0.48407 0.30956 0.0
C1896 C 0.69054 0.45384 0.29242 0.0
C1897 C 0.70417 0.4513 0.3064 0.0
C1898 C 0.71045 0.46589 0.32179 0.0
C1899 C 0.70346 0.48191 0.32319 0.0
C1900 C 0.71236 0.43414 0.30484 0.0
C1901 C 0.73064 0.43569 0.31049 0.0
C1902 C 0.70272 0.41628 0.2977 0.0
C1903 C 0.68343 0.41246 0.29175 0.0
C1904 C 0.67206 0.41646 0.30512 0.0
C1905 C 0.65383 0.41283 0.29931 0.0
C1906 C 0.64686 0.40519 0.28017 0.0
C1907 C 0.6581 0.40107 0.26684 0.0
C1908 C 0.67631 0.40453 0.27261 0.0
C1909 C 0.76032 0.3687 0.31286 0.0
C1910 C 0.75368 0.35365 0.29834 0.0
C1911 C 0.75241 0.38404 0.31446 0.0
C1912 C 0.73798 0.38571 0.301 0.0
C1913 C 0.73132 0.37045 0.28646 0.0
C1914 C 0.73878 0.35472 0.28538 0.0
C1915 C 0.72962 0.40279 0.30226 0.0
C1916 C 0.7113 0.40123 0.29656 0.0
C1917 C 0.73925 0.4207 0.3092 0.0
C1918 C 0.75859 0.42472 0.3147 0.0
C1919 C 0.76971 0.42053 0.30111 0.0
C1920 C 0.78797 0.42415 0.30658 0.0
C1921 C 0.79524 0.43206 0.32556 0.0
C1922 C 0.78426 0.43646 0.33909 0.0
C1923 C 0.766 0.43289 0.33369 0.0
H1924 H 0.80939 0.43482 0.32977 0.0
H1925 H 0.63275 0.40243 0.27569 0.0
H1926 H 0.76846 0.47589 0.56952 0.0
H1927 H 0.79993 0.48881 0.57516 0.0
H1928 H 0.81174 0.43558 0.56647 0.0
H1929 H 0.78003 0.42249 0.56165 0.0
H1930 H 0.83762 0.46097 0.59351 0.0
H1931 H 0.80796 0.45488 0.52832 0.0
H1932 H 0.78377 0.45788 0.50378 0.0
H1933 H 0.79565 0.51522 0.52076 0.0
H1934 H 0.81974 0.51252 0.5456 0.0
H1935 H 0.91797 0.49152 0.55484 0.0
H1936 H 0.89011 0.47563 0.56259 0.0
H1937 H 0.87072 0.52521 0.56809 0.0
H1938 H 0.89809 0.54097 0.5595 0.0
H1939 H 0.84935 0.49904 0.54259 0.0
H1940 H 0.88 0.5048 0.60764 0.0
H1941 H 0.90381 0.50114 0.63225 0.0
H1942 H 0.8908 0.44386 0.61481 0.0
H1943 H 0.86705 0.44721 0.58993 0.0
C1944 C 0.77779 0.46695 0.56933 0.0
C1945 C 0.77196 0.44827 0.56483 0.0
C1946 C 0.79571 0.47431 0.57261 0.0
C1947 C 0.80805 0.46312 0.57078 0.0
C1948 C 0.80235 0.44439 0.56789 0.0
C1949 C 0.78431 0.43696 0.56505 0.0
C1950 C 0.82631 0.47117 0.56886 0.0
C1951 C 0.84029 0.46914 0.58229 0.0
C1952 C 0.82968 0.4818 0.55418 0.0
C1953 C 0.81556 0.48349 0.53887 0.0
C1954 C 0.80536 0.46812 0.52685 0.0
C1955 C 0.79167 0.46976 0.5129 0.0
C1956 C 0.78816 0.48673 0.51073 0.0
C1957 C 0.79838 0.50209 0.52246 0.0
C1958 C 0.81207 0.50051 0.53645 0.0
C1959 C 0.90779 0.49903 0.5578 0.0
C1960 C 0.91013 0.51745 0.55633 0.0
C1961 C 0.892 0.48999 0.56248 0.0
C1962 C 0.87844 0.49929 0.56596 0.0
C1963 C 0.8811 0.51784 0.56549 0.0
C1964 C 0.89679 0.52684 0.56068 0.0
C1965 C 0.86074 0.48946 0.56768 0.0
C1966 C 0.84679 0.49094 0.55391 0.0
C1967 C 0.85757 0.47826 0.58191 0.0
C1968 C 0.87186 0.47627 0.59683 0.0
C1969 C 0.88232 0.49144 0.60895 0.0
C1970 C 0.89578 0.48942 0.62297 0.0
C1971 C 0.89884 0.47228 0.62506 0.0
C1972 C 0.88843 0.45713 0.61316 0.0
C1973 C 0.87495 0.45908 0.59912 0.0
H1974 H 0.90926 0.47074 0.63593 0.0
H1975 H 0.77753 0.48797 0.49995 0.0
H1976 H 0.41255 0.17828 0.29536 0.0
H1977 H 0.39287 0.19956 0.29145 0.0
H1978 H 0.34781 0.15682 0.28865 0.0
H1979 H 0.36738 0.13541 0.29178 0.0
H1980 H 0.3406 0.17651 0.2629 0.0
H1981 H 0.3655 0.19096 0.33113 0.0
H1982 H 0.38969 0.19984 0.35857 0.0
H1983 H 0.40844 0.24838 0.33642 0.0
H1984 H 0.38447 0.23968 0.30875 0.0
H1985 H 0.2783 0.23479 0.27677 0.0
H1986 H 0.2966 0.21177 0.27741 0.0
H1987 H 0.34346 0.25324 0.28523 0.0
H1988 H 0.32523 0.27609 0.28575 0.0
H1989 H 0.34903 0.23338 0.30878 0.0
H1990 H 0.32564 0.22055 0.24098 0.0
H1991 H 0.30251 0.21269 0.21248 0.0
H1992 H 0.28241 0.1629 0.23152 0.0
H1993 H 0.30526 0.17059 0.26031 0.0
C1994 C 0.39846 0.17343 0.29404 0.0
C1995 C 0.3916 0.15514 0.29412 0.0
C1996 C 0.38717 0.18565 0.29187 0.0
C1997 C 0.36875 0.17996 0.29013 0.0
C1998 C 0.36191 0.16166 0.29004 0.0
C1999 C 0.37317 0.14941 0.29196 0.0
C2000 C 0.35657 0.19294 0.28827 0.0
C2001 C 0.34235 0.18887 0.27306 0.0
C2002 C 0.35897 0.20935 0.30114 0.0
C2003 C 0.37332 0.21457 0.3178 0.0
C2004 C 0.37485 0.20346 0.33207 0.0
C2005 C 0.38851 0.20848 0.34766 0.0
C2006 C 0.40062 0.22463 0.34921 0.0
C2007 C 0.39907 0.23585 0.33519 0.0
C2008 C 0.38545 0.2309 0.31957 0.0
C2009 C 0.2925 0.23886 0.27808 0.0
C2010 C 0.30041 0.25718 0.28088 0.0
C2011 C 0.303 0.22571 0.2785 0.0
C2012 C 0.32156 0.23067 0.28119 0.0
C2013 C 0.32927 0.24898 0.28319 0.0
C2014 C 0.31885 0.26204 0.28326 0.0
C2015 C 0.33321 0.21721 0.28312 0.0
C2016 C 0.34727 0.2211 0.29848 0.0
C2017 C 0.33083 0.20085 0.27015 0.0
C2018 C 0.31705 0.19623 0.25289 0.0
C2019 C 0.3162 0.20799 0.23917 0.0
C2020 C 0.30315 0.20356 0.22296 0.0
C2021 C 0.29097 0.18733 0.22022 0.0
C2022 C 0.29183 0.17548 0.23368 0.0
C2023 C 0.30483 0.17987 0.24994 0.0
H2024 H 0.28089 0.18391 0.20764 0.0
H2025 H 0.4112 0.22848 0.36129 0.0
H2026 H 0.30012 0.0871 0.4991 0.0
H2027 H 0.3294 0.08714 0.51582 0.0
H2028 H 0.34213 0.14505 0.52214 0.0
H2029 H 0.31313 0.14507 0.50468 0.0
H2030 H 0.37101 0.1304 0.5177 0.0
H2031 H 0.3271 0.12725 0.55942 0.0
H2032 H 0.29788 0.1164 0.5686 0.0
H2033 H 0.3085 0.06301 0.56578 0.0
H2034 H 0.33771 0.07351 0.55638 0.0
H2035 H 0.44105 0.10868 0.58134 0.0
H2036 H 0.41684 0.12475 0.57424 0.0
H2037 H 0.38187 0.0739 0.55151 0.0
H2038 H 0.40573 0.0581 0.55876 0.0
H2039 H 0.36591 0.09648 0.57307 0.0
H2040 H 0.40651 0.10012 0.52264 0.0
H2041 H 0.43522 0.11161 0.51255 0.0
H2042 H 0.43073 0.16576 0.53323 0.0
H2043 H 0.40209 0.15453 0.5436 0.0
C2044 C 0.3094 0.09975 0.50344 0.0
C2045 C 0.30439 0.11603 0.50075 0.0
C2046 C 0.32601 0.09981 0.51312 0.0
C2047 C 0.33756 0.11616 0.52073 0.0
C2048 C 0.33326 0.13234 0.51651 0.0
C2049 C 0.31674 0.13228 0.50645 0.0
C2050 C 0.3533 0.11619 0.53447 0.0
C2051 C 0.36995 0.12334 0.53007 0.0
C2052 C 0.35185 0.10749 0.55093 0.0
C2053 C 0.33456 0.10118 0.55719 0.0
C2054 C 0.32318 0.11319 0.56075 0.0
C2055 C 0.30663 0.1071 0.56597 0.0
C2056 C 0.30134 0.08902 0.56777 0.0
C2057 C 0.31263 0.07701 0.56442 0.0
C2058 C 0.32921 0.08304 0.5592 0.0
C2059 C 0.428 0.1011 0.5753 0.0
C2060 C 0.42497 0.08231 0.57055 0.0
C2061 C 0.41432 0.1102 0.57119 0.0
C2062 C 0.39769 0.10046 0.56232 0.0
C2063 C 0.39461 0.08162 0.55849 0.0
C2064 C 0.40817 0.07262 0.56255 0.0
C2065 C 0.38352 0.10934 0.55532 0.0
C2066 C 0.36702 0.10413 0.56115 0.0
C2067 C 0.38518 0.11991 0.54032 0.0
C2068 C 0.40235 0.1265 0.5341 0.0
C2069 C 0.41173 0.11446 0.52514 0.0
C2070 C 0.42797 0.12093 0.51935 0.0
C2071 C 0.43483 0.1394 0.52231 0.0
C2072 C 0.42544 0.15146 0.531 0.0
C2073 C 0.40922 0.14505 0.53684 0.0
H2074 H 0.44739 0.14439 0.51781 0.0
H2075 H 0.28849 0.08432 0.57176 0.0
H2076 H 0.66493 0.61378 0.30632 0.0
H2077 H 0.68096 0.64375 0.30545 0.0
H2078 H 0.73004 0.62727 0.32086 0.0
H2079 H 0.71374 0.59653 0.32194 0.0
H2080 H 0.73084 0.66257 0.33984 0.0
H2081 H 0.71658 0.63356 0.27353 0.0
H2082 H 0.69726 0.61627 0.24434 0.0
H2083 H 0.66486 0.65617 0.24564 0.0
H2084 H 0.68389 0.67361 0.27499 0.0
H2085 H 0.77864 0.74603 0.31409 0.0
H2086 H 0.76733 0.71461 0.31817 0.0
H2087 H 0.71486 0.71975 0.29601 0.0
H2088 H 0.72599 0.75066 0.29195 0.0
H2089 H 0.71814 0.68903 0.2803 0.0
H2090 H 0.73025 0.71771 0.34598 0.0
H2091 H 0.74741 0.73521 0.37632 0.0
H2092 H 0.78151 0.69695 0.37784 0.0
H2093 H 0.76472 0.67936 0.3473 0.0
C2094 C 0.67916 0.61621 0.30962 0.0
C2095 C 0.68777 0.60212 0.31415 0.0
C2096 C 0.68844 0.63369 0.309 0.0
C2097 C 0.70697 0.63827 0.31278 0.0
C2098 C 0.71579 0.62444 0.31777 0.0
C2099 C 0.7064 0.60667 0.31832 0.0
C2100 C 0.71662 0.65725 0.31092 0.0
C2101 C 0.72832 0.66816 0.32662 0.0
C2102 C 0.71313 0.6653 0.29407 0.0
C2103 C 0.70163 0.65485 0.27648 0.0
C2104 C 0.70528 0.63859 0.26765 0.0
C2105 C 0.69439 0.62878 0.25108 0.0
C2106 C 0.67988 0.63515 0.24313 0.0
C2107 C 0.67615 0.65129 0.2518 0.0
C2108 C 0.687 0.66116 0.26838 0.0
C2109 C 0.7647 0.74049 0.3101 0.0
C2110 C 0.7534 0.75124 0.30253 0.0
C2111 C 0.75812 0.72237 0.31256 0.0
C2112 C 0.73999 0.71425 0.30748 0.0
C2113 C 0.72884 0.72513 0.30002 0.0
C2114 C 0.73534 0.7431 0.29772 0.0
C2115 C 0.73243 0.69455 0.30923 0.0
C2116 C 0.72094 0.68349 0.29349 0.0
C2117 C 0.73594 0.68654 0.32615 0.0
C2118 C 0.74639 0.69735 0.34418 0.0
C2119 C 0.74155 0.71315 0.35263 0.0
C2120 C 0.75118 0.72306 0.3699 0.0
C2121 C 0.76558 0.71723 0.37897 0.0
C2122 C 0.77039 0.70148 0.37077 0.0
C2123 C 0.76083 0.69154 0.35347 0.0
H2124 H 0.77298 0.72489 0.39238 0.0
H2125 H 0.67158 0.6276 0.2302 0.0
H2126 H 0.91483 0.53583 0.77042 0.0
H2127 H 0.89357 0.50806 0.76976 0.0
H2128 H 0.85837 0.5384 0.79598 0.0
H2129 H 0.87961 0.56628 0.79689 0.0
H2130 H 0.86456 0.51103 0.81504 0.0
H2131 H 0.8487 0.51901 0.74905 0.0
H2132 H 0.85476 0.5241 0.71632 0.0
H2133 H 0.87426 0.47497 0.70845 0.0
H2134 H 0.86859 0.46973 0.74129 0.0
H2135 H 0.79395 0.43996 0.81195 0.0
H2136 H 0.81063 0.46763 0.80417 0.0
H2137 H 0.84593 0.43769 0.77757 0.0
H2138 H 0.82887 0.40976 0.78461 0.0
H2139 H 0.83909 0.4648 0.75755 0.0
H2140 H 0.85757 0.45756 0.82291 0.0
H2141 H 0.8538 0.4523 0.85621 0.0
H2142 H 0.8317 0.49974 0.86559 0.0
H2143 H 0.83509 0.50512 0.83221 0.0
C2144 C 0.9025 0.53664 0.77589 0.0
C2145 C 0.89896 0.55326 0.78384 0.0
C2146 C 0.89032 0.52076 0.77537 0.0
C2147 C 0.87438 0.52123 0.7827 0.0
C2148 C 0.87061 0.53781 0.79021 0.0
C2149 C 0.88275 0.55371 0.7907 0.0
C2150 C 0.86227 0.50436 0.78397 0.0
C2151 C 0.85871 0.50109 0.80242 0.0
C2152 C 0.85525 0.49113 0.76757 0.0
C2153 C 0.85837 0.49407 0.7477 0.0
C2154 C 0.8544 0.50935 0.7404 0.0
C2155 C 0.85775 0.51226 0.72182 0.0
C2156 C 0.86495 0.49989 0.71033 0.0
C2157 C 0.86872 0.48455 0.71737 0.0
C2158 C 0.86542 0.4816 0.73596 0.0
C2159 C 0.80501 0.43917 0.80406 0.0
C2160 C 0.81022 0.4227 0.7991 0.0
C2161 C 0.81459 0.45501 0.79973 0.0
C2162 C 0.82964 0.45468 0.79058 0.0
C2163 C 0.83438 0.43819 0.78472 0.0
C2164 C 0.82476 0.42231 0.78897 0.0
C2165 C 0.84118 0.47169 0.78858 0.0
C2166 C 0.84478 0.47488 0.7701 0.0
C2167 C 0.84848 0.48483 0.80497 0.0
C2168 C 0.84638 0.48161 0.82501 0.0
C2169 C 0.85175 0.46677 0.83202 0.0
C2170 C 0.84971 0.46378 0.85091 0.0
C2171 C 0.84246 0.47565 0.86299 0.0
C2172 C 0.83728 0.49054 0.8562 0.0
C2173 C 0.83925 0.49357 0.8373 0.0
H2174 H 0.84091 0.47332 0.87762 0.0
H2175 H 0.86757 0.50218 0.69597 0.0
H2176 H 1.00799 0.81561 0.14565 0.0
H2177 H 0.00923 0.83826 0.12412 0.0
H2178 H 0.04211 0.87732 0.16985 0.0
H2179 H 0.04002 0.85494 0.19174 0.0
H2180 H 0.01919 0.89217 0.15446 0.0
H2181 H 0.05724 0.85597 0.12699 0.0
H2182 H 0.06567 0.82808 0.11272 0.0
H2183 H 0.02359 0.82074 0.06541 0.0
H2184 H 0.01475 0.84845 0.07956 0.0
H2185 H 0.03793 0.95995 0.0978 0.0
H2186 H 0.04248 0.93589 0.11636 0.0
H2187 H 1.00634 0.89739 0.07283 0.0
H2188 H 1.00231 0.92138 0.05383 0.0
H2189 H 0.03196 0.88236 0.0867 0.0
H2190 H 0.99328 0.91774 0.11552 0.0
H2191 H 0.98544 0.94605 0.12954 0.0
H2192 H 0.02976 0.95494 0.17452 0.0
H2193 H 0.03799 0.9268 0.16058 0.0
C2194 C 0.0155 0.82903 0.15109 0.0
C2195 C 0.02384 0.83354 0.17042 0.0
C2196 C 0.01637 0.84194 0.13868 0.0
C2197 C 0.02603 0.85949 0.14517 0.0
C2198 C 0.03456 0.8639 0.16444 0.0
C2199 C 0.03336 0.85111 0.17697 0.0
C2200 C 0.0264 0.87359 0.13239 0.0
C2201 C 0.02233 0.89006 0.13978 0.0
C2202 C 0.02995 0.8708 0.11297 0.0
C2203 C 0.03524 0.85416 0.10444 0.0
C2204 C 0.04971 0.84832 0.11362 0.0
C2205 C 0.05457 0.83256 0.10555 0.0
C2206 C 0.04514 0.82261 0.0882 0.0
C2207 C 0.03086 0.82844 0.07886 0.0
C2208 C 0.02593 0.84417 0.0869 0.0
C2209 C 0.03109 0.94631 0.09213 0.0
C2210 C 0.01955 0.94254 0.07455 0.0
C2211 C 0.03367 0.93258 0.10275 0.0
C2212 C 0.02435 0.9149 0.09629 0.0
C2213 C 0.01356 0.91094 0.0782 0.0
C2214 C 0.01124 0.92464 0.06737 0.0
C2215 C 0.02495 0.90084 0.10893 0.0
C2216 C 0.02903 0.88441 0.10147 0.0
C2217 C 0.02147 0.90362 0.12834 0.0
C2218 C 0.01631 0.92029 0.13693 0.0
C2219 C 1.00137 0.92579 0.12835 0.0
C2220 C 0.99687 0.94179 0.13628 0.0
C2221 C 1.00712 0.95231 0.15288 0.0
C2222 C 0.02185 0.9468 0.16164 0.0
C2223 C 0.02643 0.93082 0.15375 0.0
H2224 H 1.00362 0.96471 0.15898 0.0
H2225 H 0.04892 0.81041 0.08197 0.0
H2226 H 0.97902 0.33096 0.8362 0.0
H2227 H 0.94727 0.32846 0.82918 0.0
H2228 H 0.93956 0.29512 0.87357 0.0
H2229 H 0.97172 0.29759 0.88078 0.0
H2230 H 0.91456 0.28207 0.84226 0.0
H2231 H 0.93417 0.3385 0.88145 0.0
H2232 H 0.95198 0.36878 0.89355 0.0
H2233 H 0.93581 0.38622 0.83982 0.0
H2234 H 0.9181 0.35594 0.82728 0.0
H2235 H 0.82248 0.29146 0.83137 0.0
H2236 H 0.85296 0.28938 0.84279 0.0
H2237 H 0.8719 0.32851 0.80717 0.0
H2238 H 0.84161 0.33139 0.79699 0.0
H2239 H 0.89078 0.33767 0.8391 0.0
H2240 H 0.87163 0.27737 0.80035 0.0
H2241 H 0.85264 0.24713 0.79246 0.0
H2242 H 0.86678 0.23733 0.85047 0.0
H2243 H 0.88567 0.26757 0.85875 0.0
C2244 C 0.97069 0.32297 0.8445 0.0
C2245 C 0.9782 0.31444 0.85908 0.0
C2246 C 0.95237 0.32165 0.8405 0.0
C2247 C 0.94074 0.31176 0.85091 0.0
C2248 C 0.94809 0.30287 0.86526 0.0
C2249 C 0.96656 0.3043 0.8694 0.0
C2250 C 0.92109 0.31098 0.84665 0.0
C2251 C 0.90937 0.29427 0.84176 0.0
C2252 C 0.91398 0.32676 0.8461 0.0
C2253 C 0.92493 0.34489 0.85335 0.0
C2254 C 0.93456 0.34873 0.87213 0.0
C2255 C 0.94461 0.36591 0.87909 0.0
C2256 C 0.94506 0.37941 0.86744 0.0
C2257 C 0.93547 0.37574 0.84881 0.0
C2258 C 0.92541 0.35858 0.84177 0.0
C2259 C 0.83316 0.29913 0.8255 0.0
C2260 C 0.82955 0.31118 0.81275 0.0
C2261 C 0.85072 0.29801 0.8321 0.0
C2262 C 0.86516 0.30859 0.82576 0.0
C2263 C 0.86132 0.32014 0.81247 0.0
C2264 C 0.84388 0.3216 0.80633 0.0
C2265 C 0.88424 0.30872 0.83353 0.0
C2266 C 0.89591 0.32542 0.83936 0.0
C2267 C 0.89116 0.29292 0.83531 0.0
C2268 C 0.87995 0.27474 0.83019 0.0
C2269 C 0.87062 0.26877 0.81142 0.0
C2270 C 0.85988 0.25164 0.80689 0.0
C2271 C 0.85849 0.24033 0.82096 0.0
C2272 C 0.86786 0.2461 0.83959 0.0
C2273 C 0.87859 0.26322 0.8442 0.0
H2274 H 0.85018 0.22707 0.81742 0.0
H2275 H 0.95281 0.39271 0.87287 0.0
H2276 H 0.49042 0.23003 0.66396 0.0
H2277 H 0.49233 0.20389 0.64024 0.0
H2278 H 0.54675 0.20814 0.66401 0.0
H2279 H 0.54465 0.23362 0.68819 0.0
H2280 H 0.53755 0.20346 0.62012 0.0
H2281 H 0.52338 0.17911 0.67772 0.0
H2282 H 0.50598 0.17396 0.70435 0.0
H2283 H 0.46019 0.14962 0.663 0.0
H2284 H 0.47724 0.15504 0.63609 0.0
H2285 H 0.55472 0.11797 0.5815 0.0
H2286 H 0.55298 0.14655 0.6008 0.0
H2287 H 0.49613 0.13194 0.59092 0.0
H2288 H 0.49783 0.10328 0.5723 0.0
H2289 H 0.50647 0.14267 0.6273 0.0
H2290 H 0.5201 0.16539 0.56942 0.0
H2291 H 0.53712 0.16982 0.54233 0.0
H2292 H 0.58284 0.19656 0.58268 0.0
H2293 H 0.56616 0.19201 0.61004 0.0
C2294 C 0.50272 0.22528 0.66407 0.0
C2295 C 0.51733 0.23354 0.67794 0.0
C2296 C 0.50383 0.21048 0.65056 0.0
C2297 C 0.5197 0.2042 0.65044 0.0
C2298 C 0.53443 0.21284 0.6639 0.0
C2299 C 0.53317 0.22724 0.67775 0.0
C2300 C 0.52078 0.1881 0.63685 0.0
C2301 C 0.53086 0.19012 0.62169 0.0
C2302 C 0.5118 0.17083 0.63879 0.0
C2303 C 0.50149 0.1678 0.65492 0.0
C2304 C 0.50953 0.17294 0.67431 0.0
C2305 C 0.49975 0.16991 0.68945 0.0
C2306 C 0.48196 0.16155 0.68537 0.0
C2307 C 0.47394 0.15617 0.66614 0.0
C2308 C 0.48365 0.15924 0.65094 0.0
C2309 C 0.54188 0.12106 0.58317 0.0
C2310 C 0.52641 0.10843 0.57549 0.0
C2311 C 0.54088 0.13737 0.59417 0.0
C2312 C 0.5244 0.14142 0.59726 0.0
C2313 C 0.50898 0.12908 0.58885 0.0
C2314 C 0.50997 0.11273 0.57816 0.0
C2315 C 0.52309 0.1579 0.61025 0.0
C2316 C 0.51303 0.15598 0.62546 0.0
C2317 C 0.53196 0.17524 0.60818 0.0
C2318 C 0.54193 0.17824 0.59177 0.0
C2319 C 0.53382 0.17212 0.57252 0.0
C2320 C 0.5434 0.17465 0.55712 0.0
C2321 C 0.56106 0.18344 0.56078 0.0
C2322 C 0.56916 0.18975 0.57986 0.0
C2323 C 0.55965 0.18721 0.59532 0.0
H2324 H 0.56847 0.18538 0.54884 0.0
H2325 H 0.47442 0.15917 0.69712 0.0
H2326 H 0.60612 0.83581 0.39897 0.0
H2327 H 0.6351 0.83557 0.38876 0.0
H2328 H 0.61028 0.80355 0.33416 0.0
H2329 H 0.58118 0.80373 0.34436 0.0
H2330 H 0.63797 0.79053 0.34777 0.0
H2331 H 0.62915 0.84945 0.33877 0.0
H2332 H 0.62323 0.8798 0.34788 0.0
H2333 H 0.66875 0.89239 0.39166 0.0
H2334 H 0.67476 0.86199 0.38303 0.0
H2335 H 0.7115 0.8042 0.29475 0.0
H2336 H 0.68322 0.80523 0.30655 0.0
H2337 H 0.71056 0.8286 0.36356 0.0
H2338 H 0.739 0.82698 0.35195 0.0
H2339 H 0.68237 0.84624 0.34973 0.0
H2340 H 0.69173 0.78849 0.3593 0.0
H2341 H 0.69825 0.75825 0.35137 0.0
H2342 H 0.65234 0.74349 0.30811 0.0
H2343 H 0.64578 0.77382 0.31549 0.0
C2344 C 0.60676 0.82874 0.38474 0.0
C2345 C 0.59113 0.81982 0.37251 0.0
C2346 C 0.62345 0.8287 0.37884 0.0
C2347 C 0.62513 0.81972 0.36051 0.0
C2348 C 0.60954 0.81066 0.34834 0.0
C2349 C 0.59281 0.81082 0.35418 0.0
C2350 C 0.64306 0.81941 0.35423 0.0
C2351 C 0.64751 0.80279 0.34793 0.0
C2352 C 0.65602 0.83525 0.35498 0.0
C2353 C 0.65225 0.85338 0.36044 0.0
C2354 C 0.63777 0.85862 0.3505 0.0
C2355 C 0.63442 0.87585 0.35554 0.0
C2356 C 0.64556 0.888 0.37039 0.0
C2357 C 0.66009 0.88295 0.38021 0.0
C2358 C 0.66347 0.86573 0.37525 0.0
C2359 C 0.71156 0.80967 0.30979 0.0
C2360 C 0.72764 0.81564 0.32234 0.0
C2361 C 0.69531 0.81016 0.31656 0.0
C2362 C 0.6946 0.81698 0.336 0.0
C2363 C 0.71065 0.82329 0.34851 0.0
C2364 C 0.72694 0.82235 0.34185 0.0
C2365 C 0.6771 0.81742 0.34312 0.0
C2366 C 0.67277 0.83403 0.34956 0.0
C2367 C 0.6643 0.80158 0.34263 0.0
C2368 C 0.66843 0.78352 0.33772 0.0
C2369 C 0.68319 0.7789 0.34787 0.0
C2370 C 0.68685 0.76172 0.34353 0.0
C2371 C 0.67576 0.74898 0.32919 0.0
C2372 C 0.66097 0.7534 0.31917 0.0
C2373 C 0.65727 0.77059 0.32341 0.0
H2374 H 0.67859 0.73566 0.32589 0.0
H2375 H 0.64297 0.90134 0.37425 0.0
H2376 H 0.0392 0.29862 0.51339 0.0
H2377 H 0.02728 0.26855 0.51994 0.0
H2378 H 0.02917 0.24646 0.46045 0.0
H2379 H 0.03969 0.27663 0.45357 0.0
H2380 H 1.00232 0.22915 0.47124 0.0
H2381 H 0.06292 0.24755 0.49824 0.0
H2382 H 0.08894 0.26793 0.51771 0.0
H2383 H 0.06559 0.26227 0.56962 0.0
H2384 H 0.03927 0.24211 0.55041 0.0
H2385 H 0.01888 0.14428 0.50342 0.0
H2386 H 0.02157 0.17186 0.48899 0.0
H2387 H 0.99444 0.19533 0.53289 0.0
H2388 H 0.99147 0.16792 0.54734 0.0
H2389 H 0.03431 0.21039 0.52793 0.0
H2390 H 0.97293 0.19042 0.4968 0.0
H2391 H 0.94887 0.16969 0.47459 0.0
H2392 H 0.97797 0.17664 0.42685 0.0
H2393 H 1.00241 0.19709 0.44889 0.0
C2394 C 0.03682 0.28729 0.50176 0.0
C2395 C 0.04049 0.2896 0.48312 0.0
C2396 C 0.0301 0.27022 0.50547 0.0
C2397 C 0.02788 0.25534 0.49078 0.0
C2398 C 0.03089 0.25781 0.47195 0.0
C2399 C 0.03697 0.27495 0.46808 0.0
C2400 C 0.02344 0.23712 0.49529 0.0
C2401 C 0.00942 0.22498 0.48352 0.0
C2402 C 0.03296 0.23174 0.51115 0.0
C2403 C 0.04905 0.24341 0.52285 0.0
C2404 C 0.0633 0.25069 0.5138 0.0
C2405 C 0.0781 0.26223 0.52479 0.0
C2406 C 0.0789 0.26642 0.54488 0.0
C2407 C 0.06494 0.25902 0.55404 0.0
C2408 C 0.05008 0.24753 0.54312 0.0
C2409 C 0.01305 0.15513 0.50968 0.0
C2410 C 1.00483 0.15393 0.52641 0.0
C2411 C 0.01451 0.17073 0.50135 0.0
C2412 C 1.008 0.18525 0.5099 0.0
C2413 C 0.99921 0.18393 0.52606 0.0
C2414 C 0.9975 0.16829 0.53421 0.0
C2415 C 0.01297 0.20279 0.50419 0.0
C2416 C 0.02729 0.21467 0.51565 0.0
C2417 C 1.00417 0.20766 0.48767 0.0
C2418 C 0.98962 0.19506 0.47457 0.0
C2419 C 0.97434 0.18729 0.48165 0.0
C2420 C 0.9606 0.17564 0.46907 0.0
C2421 C 0.96192 0.1718 0.44934 0.0
C2422 C 0.97699 0.17958 0.44215 0.0
C2423 C 0.99079 0.19118 0.45468 0.0
H2424 H 0.95123 0.16284 0.43961 0.0
H2425 H 0.09035 0.27538 0.55336 0.0
H2426 H 0.55982 0.28659 0.14673 0.0
H2427 H 0.58808 0.2865 0.16598 0.0
H2428 H 0.56207 0.28065 0.21651 0.0
H2429 H 0.53399 0.28098 0.19767 0.0
H2430 H 0.58824 0.31083 0.22051 0.0
H2431 H 0.57839 0.24757 0.19897 0.0
H2432 H 0.57214 0.21931 0.17581 0.0
H2433 H 0.6188 0.23698 0.15083 0.0
H2434 H 0.62518 0.2655 0.17364 0.0
H2435 H 0.65609 0.29215 0.2871 0.0
H2436 H 0.62979 0.29609 0.26667 0.0
H2437 H 0.6595 0.30083 0.21865 0.0
H2438 H 0.68566 0.29665 0.239 0.0
H2439 H 0.63211 0.27184 0.2121 0.0
H2440 H 0.64209 0.33501 0.23545 0.0
H2441 H 0.6479 0.36248 0.25966 0.0
H2442 H 0.60006 0.34397 0.28219 0.0
H2443 H 0.59421 0.31609 0.25844 0.0
C2444 C 0.56017 0.28516 0.1619 0.0
C2445 C 0.54492 0.28419 0.17088 0.0
C2446 C 0.57618 0.28488 0.17274 0.0
C2447 C 0.57689 0.28355 0.19249 0.0
C2448 C 0.56156 0.28169 0.20122 0.0
C2449 C 0.54564 0.28207 0.19049 0.0
C2450 C 0.59383 0.28683 0.20474 0.0
C2451 C 0.59781 0.30222 0.21889 0.0
C2452 C 0.60622 0.27575 0.20198 0.0
C2453 C 0.60215 0.2588 0.18787 0.0
C2454 C 0.58719 0.24556 0.18837 0.0
C2455 C 0.58366 0.22945 0.17534 0.0
C2456 C 0.59504 0.22637 0.16182 0.0
C2457 C 0.60998 0.2394 0.16129 0.0
C2458 C 0.61356 0.25553 0.17427 0.0
C2459 C 0.65704 0.29476 0.27242 0.0
C2460 C 0.67249 0.29394 0.26431 0.0
C2461 C 0.64215 0.29703 0.26083 0.0
C2462 C 0.64288 0.2986 0.24124 0.0
C2463 C 0.65886 0.29959 0.23376 0.0
C2464 C 0.67367 0.29723 0.2453 0.0
C2465 C 0.62653 0.29589 0.22791 0.0
C2466 C 0.62262 0.28056 0.21358 0.0
C2467 C 0.61408 0.30689 0.23062 0.0
C2468 C 0.61778 0.32342 0.24524 0.0
C2469 C 0.63291 0.3367 0.24571 0.0
C2470 C 0.63617 0.35238 0.25932 0.0
C2471 C 0.62433 0.35503 0.27242 0.0
C2472 C 0.60922 0.34192 0.27202 0.0
C2473 C 0.60594 0.32616 0.2585 0.0
H2474 H 0.62685 0.36721 0.28291 0.0
H2475 H 0.59231 0.21387 0.15179 0.0
H2476 H 0.55244 0.88007 0.98534 0.0
H2477 H 0.53963 0.90691 0.99022 0.0
H2478 H 0.59175 0.94021 1.00056 0.0
H2479 H 0.60463 0.91326 0.99465 0.0
H2480 H 0.56931 0.93255 0.03324 0.0
H2481 H 0.57076 0.95453 0.97275 0.0
H2482 H 0.56538 0.95284 0.93724 0.0
H2483 H 0.50954 0.93978 0.9381 0.0
H2484 H 0.51458 0.94115 0.97363 0.0
H2485 H 0.54799 0.01307 0.07113 0.0
H2486 H 0.55891 0.98789 0.05553 0.0
H2487 H 0.50591 0.96263 0.02897 0.0
H2488 H 0.49505 0.98847 0.04392 0.0
H2489 H 0.52897 0.96735 1.00238 0.0
H2490 H 0.52651 0.94262 0.06123 0.0
H2491 H 0.53061 0.94569 0.09693 0.0
H2492 H 0.58649 0.96251 0.09861 0.0
H2493 H 0.58268 0.95978 0.0629 0.0
C2494 C 0.56106 0.89318 0.98802 0.0
C2495 C 0.57943 0.8949 0.99024 0.0
C2496 C 0.55377 0.90841 0.9904 0.0
C2497 C 0.56486 0.92531 0.99555 0.0
C2498 C 0.58314 0.92714 0.99622 0.0
C2499 C 0.59043 0.91188 0.99329 0.0
C2500 C 0.55794 0.93931 0.00632 0.0
C2501 C 0.56075 0.94045 0.02654 0.0
C2502 C 0.5462 0.94871 0.99727 0.0
C2503 C 0.54307 0.94775 0.97587 0.0
C2504 C 0.55734 0.95108 0.96536 0.0
C2505 C 0.55434 0.95024 0.94522 0.0
C2506 C 0.53713 0.94614 0.9354 0.0
C2507 C 0.52287 0.94293 0.94572 0.0
C2508 C 0.52579 0.94376 0.96587 0.0
C2509 C 0.5386 1.00165 0.06287 0.0
C2510 C 0.52083 1.00251 0.05856 0.0
C2511 C 0.54482 0.98744 0.05376 0.0
C2512 C 0.53313 0.97365 0.04104 0.0
C2513 C 0.515 0.97336 0.03869 0.0
C2514 C 0.50879 0.9878 0.04762 0.0
C2515 C 0.5403 0.96041 0.02923 0.0
C2516 C 0.5375 0.95938 0.00898 0.0
C2517 C 0.55177 0.95067 0.03811 0.0
C2518 C 0.55431 0.95094 0.05942 0.0
C2519 C 0.53968 0.94689 0.06922 0.0
C2520 C 0.54195 0.94863 0.08945 0.0
C2521 C 0.55881 0.95428 0.10003 0.0
C2522 C 0.57345 0.95809 0.09039 0.0
C2523 C 0.57125 0.95638 0.07014 0.0
H2524 H 0.56053 0.95571 0.11571 0.0
H2525 H 0.53484 0.94551 0.91981 0.0
H2526 H 0.95331 0.73817 0.69029 0.0
H2527 H 0.93214 0.74236 0.71274 0.0
H2528 H 0.92179 0.78889 0.6882 0.0
H2529 H 0.94284 0.7847 0.66557 0.0
H2530 H 0.9415 0.79276 0.72911 0.0
H2531 H 0.88771 0.75978 0.68599 0.0
H2532 H 0.87355 0.73181 0.66391 0.0
H2533 H 0.88115 0.70117 0.71013 0.0
H2534 H 0.89544 0.72898 0.73245 0.0
H2535 H 0.88709 0.83459 0.78111 0.0
H2536 H 0.90373 0.82001 0.75901 0.0
H2537 H 0.88756 0.76963 0.7796 0.0
H2538 H 0.86937 0.78388 0.80052 0.0
H2539 H 0.8834 0.76306 0.74341 0.0
H2540 H 0.93231 0.79414 0.78827 0.0
H2541 H 0.95274 0.81834 0.81091 0.0
H2542 H 0.96104 0.84877 0.76444 0.0
H2543 H 0.94047 0.8249 0.74157 0.0
C2544 C 0.94584 0.74875 0.68911 0.0
C2545 C 0.94976 0.76135 0.67665 0.0
C2546 C 0.93381 0.75108 0.70184 0.0
C2547 C 0.92578 0.76602 0.70206 0.0
C2548 C 0.92801 0.7773 0.688 0.0
C2549 C 0.93991 0.77485 0.67509 0.0
C2550 C 0.91844 0.77205 0.7193 0.0
C2551 C 0.92866 0.7866 0.73225 0.0
C2552 C 0.90251 0.76284 0.72375 0.0
C2553 C 0.89246 0.74643 0.7109 0.0
C2554 C 0.88619 0.74708 0.69147 0.0
C2555 C 0.87822 0.73126 0.6789 0.0
C2556 C 0.87642 0.71472 0.68562 0.0
C2557 C 0.88248 0.71399 0.70497 0.0
C2558 C 0.89044 0.72979 0.71761 0.0
C2559 C 0.88713 0.82043 0.78104 0.0
C2560 C 0.87681 0.81037 0.79244 0.0
C2561 C 0.89691 0.81215 0.76862 0.0
C2562 C 0.89716 0.79378 0.76791 0.0
C2563 C 0.88761 0.78385 0.78001 0.0
C2564 C 0.87741 0.79206 0.79213 0.0
C2565 C 0.90595 0.78486 0.75304 0.0
C2566 C 0.89625 0.76943 0.74058 0.0
C2567 C 0.92282 0.79295 0.74936 0.0
C2568 C 0.93475 0.80771 0.76321 0.0
C2569 C 0.93834 0.80607 0.78291 0.0
C2570 C 0.94999 0.81972 0.79578 0.0
C2571 C 0.95818 0.83509 0.78912 0.0
C2572 C 0.9547 0.83686 0.76958 0.0
C2573 C 0.94306 0.82326 0.75666 0.0
H2574 H 0.96724 0.84561 0.79909 0.0
H2575 H 0.87035 0.70247 0.67584 0.0
H2576 H 0.09946 0.03934 0.85308 0.0
H2577 H 0.08445 0.03842 0.88149 0.0
H2578 H 0.13352 0.03892 0.91697 0.0
H2579 H 0.14874 0.03922 0.88789 0.0
H2580 H 0.10728 0.0188 0.93108 0.0
H2581 H 0.11414 0.07836 0.91448 0.0
H2582 H 0.11176 0.10091 0.89275 0.0
H2583 H 0.05551 0.08311 0.88187 0.0
H2584 H 0.0576 0.0603 0.90335 0.0
H2585 H 0.07646 0.04974 0.01999 0.0
H2586 H 0.09124 0.04367 0.99163 0.0
H2587 H 0.04416 0.04619 0.95416 0.0
H2588 H 0.02955 0.05281 0.98282 0.0
H2589 H 0.06993 0.06436 0.94145 0.0
H2590 H 0.06243 1.00533 0.95825 0.0
H2591 H 0.06423 0.98262 0.97988 0.0
H2592 H 0.12064 0.99884 0.99034 0.0
H2593 H 0.11915 0.02183 0.96896 0.0
C2594 C 0.1072 0.03908 0.86684 0.0
C2595 C 0.12551 0.03951 0.86791 0.0
C2596 C 0.0985 0.03871 0.88331 0.0
C2597 C 0.10771 0.03923 0.9019 0.0
C2598 C 0.12591 0.03873 0.90301 0.0
C2599 C 0.13468 0.03883 0.88627 0.0
C2600 C 0.09827 0.04091 0.91984 0.0
C2601 C 0.09935 0.02897 0.93341 0.0
C2602 C 0.08734 0.05376 0.9231 0.0
C2603 C 0.08604 0.06757 0.91039 0.0
C2604 C 0.10128 0.07921 0.90737 0.0
C2605 C 0.09998 0.09203 0.89511 0.0
C2606 C 0.0835 0.09342 0.88591 0.0
C2607 C 0.06827 0.08201 0.889 0.0
C2608 C 0.0695 0.06915 0.90123 0.0
C2609 C 0.069 0.04832 0.00568 0.0
C2610 C 0.05152 0.05115 0.00383 0.0
C2611 C 0.07755 0.04489 0.9893 0.0
C2612 C 0.06898 0.04415 0.97029 0.0
C2613 C 0.05128 0.04654 0.96842 0.0
C2614 C 0.04273 0.05003 0.98489 0.0
C2615 C 0.07877 0.04218 0.95267 0.0
C2616 C 0.07781 0.05413 0.93915 0.0
C2617 C 0.0897 0.02929 0.94948 0.0
C2618 C 0.09066 0.01538 0.96214 0.0
C2619 C 0.07521 1.00412 0.96525 0.0
C2620 C 0.07617 0.99119 0.97746 0.0
C2621 C 0.09254 0.98931 0.98651 0.0
C2622 C 0.10797 1.00032 0.98333 0.0
C2623 C 0.10708 0.01329 0.97116 0.0
H2624 H 0.09326 0.97931 0.99597 0.0
H2625 H 0.08253 0.10335 0.87641 0.0
H2626 H 0.73522 0.40905 0.6316 0.0
H2627 H 0.74608 0.39673 0.65995 0.0
H2628 H 0.73498 0.34372 0.62597 0.0
H2629 H 0.72329 0.3559 0.59777 0.0
H2630 H 0.72662 0.34096 0.66029 0.0
H2631 H 0.77868 0.37404 0.63819 0.0
H2632 H 0.79736 0.40112 0.63053 0.0
H2633 H 0.79894 0.42817 0.68849 0.0
H2634 H 0.78007 0.40136 0.69639 0.0
H2635 H 0.77358 0.29943 0.72646 0.0
H2636 H 0.76715 0.31209 0.69672 0.0
H2637 H 0.77599 0.36512 0.73026 0.0
H2638 H 0.7833 0.35288 0.75963 0.0
H2639 H 0.78616 0.36785 0.69628 0.0
H2640 H 0.73308 0.34131 0.71826 0.0
H2641 H 0.71962 0.31565 0.73298 0.0
H2642 H 0.72037 0.27964 0.6809 0.0
H2643 H 0.73398 0.30516 0.66587 0.0
C2644 C 0.73495 0.39473 0.63018 0.0
C2645 C 0.72844 0.38347 0.61235 0.0
C2646 C 0.74136 0.38771 0.6464 0.0
C2647 C 0.74188 0.36931 0.64508 0.0
C2648 C 0.73489 0.35797 0.62742 0.0
C2649 C 0.72819 0.36495 0.61126 0.0
C2650 C 0.74968 0.36185 0.66198 0.0
C2651 C 0.73976 0.34675 0.66786 0.0
C2652 C 0.76656 0.36968 0.67265 0.0
C2653 C 0.77783 0.38577 0.66779 0.0
C2654 C 0.78291 0.38581 0.64923 0.0
C2655 C 0.79354 0.40111 0.64487 0.0
C2656 C 0.79929 0.41637 0.65899 0.0
C2657 C 0.79445 0.41636 0.67754 0.0
C2658 C 0.7838 0.40113 0.68197 0.0
C2659 C 0.77463 0.31383 0.72742 0.0
C2660 C 0.77874 0.32504 0.74552 0.0
C2661 C 0.77078 0.32106 0.71043 0.0
C2662 C 0.7706 0.33954 0.71127 0.0
C2663 C 0.77591 0.35085 0.72915 0.0
C2664 C 0.77998 0.34372 0.74602 0.0
C2665 C 0.76329 0.34689 0.69409 0.0
C2666 C 0.77314 0.36202 0.68841 0.0
C2667 C 0.74618 0.33958 0.68402 0.0
C2668 C 0.73462 0.32503 0.69105 0.0
C2669 C 0.73 0.32795 0.70981 0.0
C2670 C 0.72253 0.31345 0.71827 0.0
C2671 C 0.71952 0.29603 0.70803 0.0
C2672 C 0.72295 0.29315 0.68888 0.0
C2673 C 0.73045 0.30764 0.68032 0.0
H2674 H 0.71471 0.28477 0.71506 0.0
H2675 H 0.80753 0.42818 0.65558 0.0
H2676 H 0.45456 0.07254 0.3463 0.0
H2677 H 0.46577 0.06723 0.37844 0.0
H2678 H 0.47649 0.12425 0.39909 0.0
H2679 H 0.46507 0.12967 0.36646 0.0
H2680 H 0.50519 0.10555 0.40985 0.0
H2681 H 0.44237 0.09929 0.41259 0.0
H2682 H 0.41113 0.08703 0.3995 0.0
H2683 H 0.4199 0.03331 0.40049 0.0
H2684 H 0.45125 0.04525 0.41335 0.0
H2685 H 0.52208 0.09196 0.50991 0.0
H2686 H 0.515 0.10143 0.47826 0.0
H2687 H 0.48698 0.04743 0.45525 0.0
H2688 H 0.49319 0.03844 0.48698 0.0
H2689 H 0.46693 0.06734 0.4463 0.0
H2690 H 0.52729 0.0695 0.44056 0.0
H2691 H 0.5596 0.0777 0.44905 0.0
H2692 H 0.55758 0.13345 0.44934 0.0
H2693 H 0.52519 0.1256 0.44115 0.0
C2694 C 0.45909 0.08398 0.35774 0.0
C2695 C 0.45877 0.10152 0.35391 0.0
C2696 C 0.46555 0.08091 0.37611 0.0
C2697 C 0.47197 0.0953 0.39126 0.0
C2698 C 0.4716 0.11293 0.38762 0.0
C2699 C 0.46488 0.11602 0.36909 0.0
C2700 C 0.47883 0.09156 0.41077 0.0
C2701 C 0.4968 0.09753 0.41811 0.0
C2702 C 0.4681 0.08033 0.42105 0.0
C2703 C 0.44915 0.07317 0.41386 0.0
C2704 C 0.43764 0.08487 0.40996 0.0
C2705 C 0.41992 0.07797 0.40258 0.0
C2706 C 0.41354 0.0594 0.39914 0.0
C2707 C 0.42486 0.04769 0.40316 0.0
C2708 C 0.44259 0.05452 0.41053 0.0
C2709 C 0.51488 0.08206 0.49786 0.0
C2710 C 0.50828 0.06444 0.5008 0.0
C2711 C 0.51077 0.08746 0.47974 0.0
C2712 C 0.50029 0.07522 0.46415 0.0
C2713 C 0.49484 0.05729 0.46693 0.0
C2714 C 0.49857 0.05206 0.48504 0.0
C2715 C 0.49352 0.08113 0.44561 0.0
C2716 C 0.47548 0.07554 0.43835 0.0
C2717 C 0.50436 0.09214 0.43511 0.0
C2718 C 0.52378 0.09698 0.44052 0.0
C2719 C 0.5337 0.08353 0.44268 0.0
C2720 C 0.55204 0.08811 0.44738 0.0
C2721 C 0.56063 0.10609 0.4498 0.0
C2722 C 0.5509 0.11953 0.44751 0.0
C2723 C 0.53255 0.11503 0.44285 0.0
H2724 H 0.57484 0.1096 0.45339 0.0
H2725 H 0.39982 0.0541 0.39338 0.0
H2726 H 0.76645 0.69026 0.03242 0.0
H2727 H 0.77567 0.71292 0.0613 0.0
H2728 H 0.77963 0.67117 0.09642 0.0
H2729 H 0.76986 0.6483 0.06761 0.0
H2730 H 0.76035 0.69361 0.11022 0.0
H2731 H 0.81685 0.7004 0.08612 0.0
H2732 H 0.83656 0.70602 0.06155 0.0
H2733 H 0.82274 0.75763 0.05913 0.0
H2734 H 0.80277 0.75222 0.08349 0.0
H2735 H 0.78986 0.74566 0.19802 0.0
H2736 H 0.79408 0.72642 0.16897 0.0
H2737 H 0.78737 0.76842 0.13497 0.0
H2738 H 0.78364 0.78791 0.16422 0.0
H2739 H 0.80925 0.74684 0.1203 0.0
H2740 H 0.75223 0.74106 0.14023 0.0
H2741 H 0.73042 0.73729 0.16294 0.0
H2742 H 0.74211 0.68563 0.17034 0.0
H2743 H 0.76427 0.68928 0.14796 0.0
C2744 C 0.76939 0.68589 0.04628 0.0
C2745 C 0.7673 0.6675 0.04785 0.0
C2746 C 0.77484 0.69888 0.06271 0.0
C2747 C 0.77859 0.69369 0.08088 0.0
C2748 C 0.77686 0.67538 0.08244 0.0
C2749 C 0.77119 0.66235 0.06604 0.0
C2750 C 0.78253 0.70719 0.09854 0.0
C2751 C 0.7713 0.70501 0.1126 0.0
C2752 C 0.7962 0.72259 0.10107 0.0
C2753 C 0.80822 0.72583 0.08648 0.0
C2754 C 0.81792 0.71289 0.08023 0.0
C2755 C 0.82916 0.71605 0.06637 0.0
C2756 C 0.83087 0.73215 0.05875 0.0
C2757 C 0.82139 0.74516 0.06502 0.0
C2758 C 0.81013 0.74206 0.07887 0.0
C2759 C 0.78994 0.75093 0.18444 0.0
C2760 C 0.7862 0.76799 0.18303 0.0
C2761 C 0.79236 0.74002 0.16795 0.0
C2762 C 0.79058 0.74595 0.14991 0.0
C2763 C 0.78873 0.7637 0.14885 0.0
C2764 C 0.78657 0.77475 0.16545 0.0
C2765 C 0.78749 0.73276 0.13213 0.0
C2766 C 0.79856 0.73519 0.11798 0.0
C2767 C 0.77337 0.71778 0.12918 0.0
C2768 C 0.76006 0.71555 0.14264 0.0
C2769 C 0.75028 0.72898 0.14686 0.0
C2770 C 0.73783 0.72686 0.15965 0.0
C2771 C 0.73492 0.71126 0.16813 0.0
C2772 C 0.74442 0.69773 0.1638 0.0
C2773 C 0.75693 0.69983 0.15108 0.0
H2774 H 0.72527 0.70963 0.17801 0.0
H2775 H 0.83957 0.73457 0.04801 0.0
H2776 H 0.14501 0.01575 0.73864 0.0
H2777 H 0.12706 0.01731 0.70823 0.0
H2778 H 0.09884 0.05276 0.73932 0.0
H2779 H 0.11577 0.04975 0.76997 0.0
H2780 H 0.07666 0.03481 0.71288 0.0
H2781 H 0.13548 0.06572 0.70886 0.0
H2782 H 0.16766 0.06886 0.70964 0.0
H2783 H 0.15959 0.02465 0.66292 0.0
H2784 H 0.12739 0.02111 0.66204 0.0
H2785 H 0.04275 0.06729 0.62755 0.0
H2786 H 0.05848 0.06408 0.65874 0.0
H2787 H 0.08186 0.02289 0.62983 0.0
H2788 H 0.06653 0.02638 0.59858 0.0
H2789 H 0.10608 0.04427 0.65507 0.0
H2790 H 0.04677 0.01453 0.65874 0.0
H2791 H 0.01471 0.01253 0.65778 0.0
H2792 H 0.02388 0.05638 0.70503 0.0
H2793 H 0.056 0.0588 0.70607 0.0
C2794 C 0.13494 0.02384 0.73899 0.0
C2795 C 0.13198 0.03272 0.7568 0.0
C2796 C 0.12473 0.02494 0.72146 0.0
C2797 C 0.1118 0.03573 0.72097 0.0
C2798 C 0.10868 0.0444 0.73891 0.0
C2799 C 0.11846 0.04274 0.75654 0.0
C2800 C 0.10162 0.038 0.70195 0.0
C2801 C 0.08326 0.03714 0.7004 0.0
C2802 C 0.10977 0.04074 0.68517 0.0
C2803 C 0.12908 0.04307 0.6855 0.0
C2804 C 0.1406 0.05664 0.69881 0.0
C2805 C 0.15883 0.05848 0.69927 0.0
C2806 C 0.16566 0.04693 0.68637 0.0
C2807 C 0.15428 0.03357 0.67292 0.0
C2808 C 0.13605 0.03165 0.67242 0.0
C2809 C 0.05115 0.05745 0.6278 0.0
C2810 C 0.05325 0.04706 0.61039 0.0
C2811 C 0.06012 0.05555 0.64577 0.0
C2812 C 0.07131 0.04303 0.64695 0.0
C2813 C 0.07338 0.03265 0.62954 0.0
C2814 C 0.06451 0.03463 0.61158 0.0
C2815 C 0.08125 0.04102 0.66607 0.0
C2816 C 0.09954 0.04197 0.66761 0.0
C2817 C 0.07305 0.03857 0.68284 0.0
C2818 C 0.05377 0.03693 0.68238 0.0
C2819 C 0.04194 0.0238 0.66885 0.0
C2820 C 0.02376 0.02259 0.66829 0.0
C2821 C 0.01726 0.03434 0.68131 0.0
C2822 C 0.02893 0.0473 0.69495 0.0
C2823 C 0.04711 0.04858 0.69553 0.0
H2824 H 1.00318 0.03339 0.68086 0.0
H2825 H 0.17978 0.04837 0.68676 0.0
H2826 H 0.70402 0.36211 0.49214 0.0
H2827 H 0.71168 0.34612 0.46256 0.0
H2828 H 0.75753 0.38809 0.46545 0.0
H2829 H 0.74901 0.40456 0.49381 0.0
H2830 H 0.74535 0.38133 0.43142 0.0
H2831 H 0.75609 0.34061 0.47645 0.0
H2832 H 0.7486 0.32033 0.50011 0.0
H2833 H 0.70746 0.28726 0.45774 0.0
H2834 H 0.71457 0.30749 0.43392 0.0
H2835 H 0.796 0.33033 0.37336 0.0
H2836 H 0.7845 0.34309 0.402 0.0
H2837 H 0.73141 0.32058 0.37439 0.0
H2838 H 0.74286 0.30838 0.3452 0.0
H2839 H 0.74498 0.31598 0.41889 0.0
H2840 H 0.73518 0.35759 0.37435 0.0
H2841 H 0.74322 0.37831 0.35144 0.0
H2842 H 0.78491 0.40973 0.39436 0.0
H2843 H 0.77706 0.38906 0.41758 0.0
C2844 C 0.71578 0.36777 0.48645 0.0
C2845 C 0.7259 0.38459 0.49525 0.0
C2846 C 0.72028 0.35856 0.46957 0.0
C2847 C 0.7354 0.36564 0.46157 0.0
C2848 C 0.74573 0.38223 0.47093 0.0
C2849 C 0.74092 0.39164 0.4873 0.0
C2850 C 0.74026 0.35649 0.44312 0.0
C2851 C 0.74546 0.36706 0.42901 0.0
C2852 C 0.74002 0.33773 0.4392 0.0
C2853 C 0.73573 0.32565 0.45351 0.0
C2854 C 0.74537 0.32908 0.47225 0.0
C2855 C 0.7412 0.31759 0.48567 0.0
C2856 C 0.72753 0.30254 0.48045 0.0
C2857 C 0.71802 0.29894 0.46178 0.0
C2858 C 0.72211 0.3104 0.44832 0.0
C2859 C 0.78188 0.32789 0.37343 0.0
C2860 C 0.77034 0.3181 0.35707 0.0
C2861 C 0.77532 0.33529 0.3898 0.0
C2862 C 0.7571 0.33275 0.39041 0.0
C2863 C 0.74552 0.32266 0.37428 0.0
C2864 C 0.75207 0.31567 0.35764 0.0
C2865 C 0.75032 0.34097 0.40783 0.0
C2866 C 0.74483 0.33024 0.42158 0.0
C2867 C 0.75054 0.3596 0.41163 0.0
C2868 C 0.75573 0.37163 0.39755 0.0
C2869 C 0.74625 0.36874 0.37879 0.0
C2870 C 0.75073 0.38053 0.36577 0.0
C2871 C 0.7647 0.39527 0.37135 0.0
C2872 C 0.77416 0.39826 0.39002 0.0
C2873 C 0.76967 0.38653 0.40312 0.0
H2874 H 0.76813 0.40445 0.3613 0.0
H2875 H 0.72433 0.29365 0.49086 0.0
H2876 H 0.42566 0.10024 0.22204 0.0
H2877 H 0.43914 0.08877 0.19442 0.0
H2878 H 0.48945 0.09858 0.2309 0.0
H2879 H 0.47618 0.11053 0.2584 0.0
H2880 H 0.49367 0.10956 0.19792 0.0
H2881 H 0.46206 0.05526 0.21582 0.0
H2882 H 0.43632 0.03405 0.22219 0.0
H2883 H 0.41102 0.03188 0.16404 0.0
H2884 H 0.43643 0.05335 0.15745 0.0
H2885 H 0.53468 0.06555 0.12528 0.0
H2886 H 0.52335 0.07254 0.15603 0.0
H2887 H 0.47054 0.06333 0.12508 0.0
H2888 H 0.48156 0.0557 0.09477 0.0
H2889 H 0.46923 0.05047 0.15695 0.0
H2890 H 0.49654 0.10636 0.13946 0.0
H2891 H 0.52097 0.12766 0.13065 0.0
H2892 H 0.55213 0.12762 0.18524 0.0
H2893 H 0.52795 0.10609 0.19422 0.0
C2894 C 0.43962 0.10005 0.22415 0.0
C2895 C 0.44986 0.10638 0.24242 0.0
C2896 C 0.44728 0.0933 0.20839 0.0
C2897 C 0.46527 0.09248 0.21063 0.0
C2898 C 0.47554 0.09899 0.2288 0.0
C2899 C 0.46793 0.10587 0.24452 0.0
C2900 C 0.47357 0.0855 0.1939 0.0
C2901 C 0.48847 0.09649 0.18918 0.0
C2902 C 0.46654 0.06867 0.18207 0.0
C2903 C 0.45108 0.05608 0.18623 0.0
C2904 C 0.45092 0.05043 0.20447 0.0
C2905 C 0.4364 0.03833 0.20811 0.0
C2906 C 0.42202 0.03166 0.19355 0.0
C2907 C 0.42213 0.03708 0.17533 0.0
C2908 C 0.43659 0.04923 0.17164 0.0
C2909 C 0.52064 0.06479 0.12514 0.0
C2910 C 0.50906 0.06034 0.10758 0.0
C2911 C 0.51419 0.06891 0.14267 0.0
C2912 C 0.49611 0.06877 0.14284 0.0
C2913 C 0.48453 0.06358 0.12538 0.0
C2914 C 0.4909 0.05933 0.108 0.0
C2915 C 0.4891 0.07462 0.16091 0.0
C2916 C 0.47448 0.06345 0.16586 0.0
C2917 C 0.49608 0.09143 0.17267 0.0
C2918 C 0.51054 0.10449 0.16741 0.0
C2919 C 0.50866 0.11081 0.14952 0.0
C2920 C 0.52245 0.12293 0.1445 0.0
C2921 C 0.53812 0.12895 0.15736 0.0
C2922 C 0.54 0.12291 0.17528 0.0
C2923 C 0.52626 0.11076 0.18035 0.0
H2924 H 0.54879 0.13833 0.15346 0.0
H2925 H 0.41082 0.02226 0.19639 0.0
H2926 H 0.75631 0.70118 0.96348 0.0
H2927 H 0.76424 0.72443 0.94391 0.0
H2928 H 0.77592 0.68514 0.89981 0.0
H2929 H 0.76823 0.66152 0.91964 0.0
H2930 H 0.80145 0.7171 0.90864 0.0
H2931 H 0.73921 0.69816 0.89143 0.0
H2932 H 0.70835 0.6901 0.89718 0.0
H2933 H 0.71145 0.74352 0.92704 0.0
H2934 H 0.74244 0.75182 0.92171 0.0
H2935 H 0.78678 0.75418 0.82489 0.0
H2936 H 0.79311 0.74016 0.85303 0.0
H2937 H 0.77775 0.7832 0.88938 0.0
H2938 H 0.77067 0.79705 0.86059 0.0
H2939 H 0.75655 0.75199 0.88817 0.0
H2940 H 0.8196 0.77095 0.89908 0.0
H2941 H 0.84879 0.77691 0.88819 0.0
H2942 H 0.84265 0.72106 0.8647 0.0
H2943 H 0.81334 0.71479 0.87529 0.0
C2944 C 0.76051 0.6974 0.9496 0.0
C2945 C 0.76161 0.67955 0.94298 0.0
C2946 C 0.76506 0.71071 0.9385 0.0
C2947 C 0.77057 0.70637 0.92053 0.0
C2948 C 0.77172 0.6886 0.91377 0.0
C2949 C 0.76719 0.67518 0.92496 0.0
C2950 C 0.7746 0.72051 0.9087 0.0
C2951 C 0.7917 0.72475 0.90403 0.0
C2952 C 0.76183 0.7305 0.90312 0.0
C2953 C 0.7432 0.72556 0.90636 0.0
C2954 C 0.73336 0.70814 0.89938 0.0
C2955 C 0.71584 0.70354 0.90253 0.0
C2956 C 0.70796 0.71628 0.91252 0.0
C2957 C 0.71758 0.73366 0.91934 0.0
C2958 C 0.73512 0.73833 0.91625 0.0
C2959 C 0.7854 0.76101 0.83901 0.0
C2960 C 0.77782 0.77629 0.84078 0.0
C2961 C 0.7893 0.75313 0.85517 0.0
C2962 C 0.7859 0.76065 0.8733 0.0
C2963 C 0.78049 0.77729 0.87544 0.0
C2964 C 0.77647 0.78517 0.85911 0.0
C2965 C 0.78358 0.74891 0.88812 0.0
C2966 C 0.7666 0.74485 0.89325 0.0
C2967 C 0.79635 0.73884 0.89363 0.0
C2968 C 0.81431 0.7424 0.88806 0.0
C2969 C 0.82449 0.75994 0.89163 0.0
C2970 C 0.84105 0.76337 0.88548 0.0
C2971 C 0.84758 0.74936 0.87579 0.0
C2972 C 0.8376 0.73188 0.87229 0.0
C2973 C 0.82105 0.72837 0.87843 0.0
H2974 H 0.86038 0.75206 0.87098 0.0
H2975 H 0.69438 0.71269 0.91493 0.0
H2976 H 0.89835 0.18316 0.06154 0.0
H2977 H 0.92187 0.1661 0.05665 0.0
H2978 H 0.88484 0.12512 0.01664 0.0
H2979 H 0.86145 0.14198 0.02182 0.0
H2980 H 0.90159 0.11052 0.04319 0.0
H2981 H 0.91936 0.1549 1.00232 0.0
H2982 H 0.92907 0.18531 0.99458 0.0
H2983 H 0.97418 0.19422 0.03857 0.0
H2984 H 0.96455 0.16399 0.04682 0.0
H2985 H 0.96579 0.05687 0.02128 0.0
H2986 H 0.94192 0.07401 0.01865 0.0
H2987 H 0.97749 0.12129 0.05067 0.0
H2988 H 1.00107 0.10505 0.05213 0.0
H2989 H 0.96048 0.13209 0.02519 0.0
H2990 H 0.9431 0.09222 0.07019 0.0
H2991 H 0.93454 0.06324 0.08173 0.0
H2992 H 0.89083 0.04769 0.03574 0.0
H2993 H 0.89926 0.07652 0.02383 0.0
C2994 C 0.89547 0.1708 0.05126 0.0
C2995 C 0.87824 0.164 0.04175 0.0
C2996 C 0.90886 0.16101 0.04851 0.0
C2997 C 0.90517 0.14432 0.03617 0.0
C2998 C 0.88805 0.13793 0.02619 0.0
C2999 C 0.87473 0.14764 0.029 0.0
C3000 C 0.91862 0.13275 0.03474 0.0
C3001 C 0.9144 0.11517 0.03899 0.0
C3002 C 0.93557 0.13893 0.02997 0.0
C3003 C 0.94111 0.15726 0.02532 0.0
C3004 C 0.93122 0.16343 0.0105 0.0
C3005 C 0.93674 0.18062 0.006 0.0
C3006 C 0.9522 0.19171 0.01612 0.0
C3007 C 0.96218 0.18564 0.03078 0.0
C3008 C 0.95669 0.16848 0.03538 0.0
C3009 C 0.96849 0.07098 0.02744 0.0
C3010 C 0.98547 0.07952 0.03665 0.0
C3011 C 0.9548 0.08075 0.02617 0.0
C3012 C 0.95778 0.09903 0.03459 0.0
C3013 C 0.97472 0.10735 0.04379 0.0
C3014 C 0.98832 0.09787 0.04464 0.0
C3015 C 0.94364 0.10991 0.03404 0.0
C3016 C 0.94767 0.12737 0.02936 0.0
C3017 C 0.92676 0.10385 0.03913 0.0
C3018 C 0.92194 0.08638 0.04598 0.0
C3019 C 0.93178 0.08253 0.06243 0.0
C3020 C 0.92692 0.06616 0.06906 0.0
C3021 C 0.91219 0.0536 0.05942 0.0
C3022 C 0.90227 0.05741 0.04315 0.0
C3023 C 0.90707 0.07375 0.03646 0.0
H3024 H 0.90843 0.04095 0.0646 0.0
H3025 H 0.95647 0.205 0.01256 0.0
H3026 H 0.34672 0.53009 0.09968 0.0
H3027 H 0.37694 0.53622 0.09241 0.0
H3028 H 0.38413 0.48453 0.1065 0.0
H3029 H 0.35422 0.47861 0.11453 0.0
H3030 H 0.41267 0.50786 0.11905 0.0
H3031 H 0.37421 0.49151 0.05857 0.0
H3032 H 0.34948 0.49304 0.03394 0.0
H3033 H 0.37311 0.54744 0.03019 0.0
H3034 H 0.39789 0.5463 0.05496 0.0
H3035 H 0.48209 0.49727 0.06262 0.0
H3036 H 0.45232 0.49327 0.07182 0.0
H3037 H 0.45499 0.55055 0.07787 0.0
H3038 H 0.48489 0.55462 0.0694 0.0
H3039 H 0.42188 0.52482 0.05457 0.0
H3040 H 0.46055 0.53954 0.11667 0.0
H3041 H 0.48577 0.53511 0.1389 0.0
H3042 H 0.4612 0.4798 0.13667 0.0
H3043 H 0.43595 0.48388 0.1142 0.0
C3044 C 0.35487 0.52019 0.10159 0.0
C3045 C 0.34812 0.50387 0.10762 0.0
C3046 C 0.37205 0.52363 0.09724 0.0
C3047 C 0.38258 0.51063 0.09845 0.0
C3048 C 0.37617 0.4947 0.10539 0.0
C3049 C 0.3591 0.49138 0.11005 0.0
C3050 C 0.40013 0.51342 0.09208 0.0
C3051 C 0.41459 0.51142 0.10488 0.0
C3052 C 0.4027 0.51814 0.07361 0.0
C3053 C 0.38779 0.51889 0.05877 0.0
C3054 C 0.37405 0.50385 0.0526 0.0
C3055 C 0.36005 0.50463 0.03859 0.0
C3056 C 0.3597 0.52034 0.03055 0.0
C3057 C 0.37338 0.53529 0.03645 0.0
C3058 C 0.38742 0.53458 0.05046 0.0
C3059 C 0.47632 0.50898 0.06598 0.0
C3060 C 0.4857 0.52628 0.06535 0.0
C3061 C 0.45937 0.50668 0.07111 0.0
C3062 C 0.45162 0.52164 0.07535 0.0
C3063 C 0.46084 0.53889 0.07448 0.0
C3064 C 0.47789 0.5412 0.06974 0.0
C3065 C 0.43413 0.51932 0.08158 0.0
C3066 C 0.41979 0.52136 0.06874 0.0
C3067 C 0.43158 0.51429 0.0998 0.0
C3068 C 0.44647 0.51198 0.1137 0.0
C3069 C 0.46059 0.52642 0.12086 0.0
C3070 C 0.47487 0.52397 0.1335 0.0
C3071 C 0.4751 0.50717 0.13918 0.0
C3072 C 0.46101 0.4928 0.13227 0.0
C3073 C 0.4467 0.49518 0.1196 0.0
H3074 H 0.48619 0.50529 0.14895 0.0
H3075 H 0.34884 0.52093 0.0197 0.0
H3076 H 0.38897 0.64235 0.81063 0.0
H3077 H 0.37686 0.66985 0.81411 0.0
H3078 H 0.3305 0.64274 0.77462 0.0
H3079 H 0.34274 0.6152 0.77096 0.0
H3080 H 0.33745 0.67542 0.76679 0.0
H3081 H 0.33314 0.65432 0.82788 0.0
H3082 H 0.34384 0.64459 0.85842 0.0
H3083 H 0.37944 0.69547 0.8759 0.0
H3084 H 0.36914 0.70539 0.84531 0.0
H3085 H 0.28148 0.73818 0.79293 0.0
H3086 H 0.29516 0.71159 0.79008 0.0
H3087 H 0.34502 0.7444 0.81686 0.0
H3088 H 0.3315 0.77127 0.81899 0.0
H3089 H 0.33687 0.70981 0.83162 0.0
H3090 H 0.34257 0.73119 0.77221 0.0
H3091 H 0.33185 0.74301 0.74317 0.0
H3092 H 0.29482 0.69338 0.72326 0.0
H3093 H 0.3053 0.68126 0.75243 0.0
C3094 C 0.37615 0.64208 0.80267 0.0
C3095 C 0.36696 0.62607 0.79058 0.0
C3096 C 0.36906 0.65803 0.80479 0.0
C3097 C 0.35235 0.65886 0.79498 0.0
C3098 C 0.3433 0.64294 0.7826 0.0
C3099 C 0.35036 0.62695 0.78054 0.0
C3100 C 0.34444 0.67608 0.7975 0.0
C3101 C 0.33718 0.68262 0.78108 0.0
C3102 C 0.34425 0.68645 0.81594 0.0
C3103 C 0.35054 0.68049 0.83422 0.0
C3104 C 0.34337 0.66336 0.83817 0.0
C3105 C 0.34934 0.65782 0.85549 0.0
C3106 C 0.36236 0.66938 0.86906 0.0
C3107 C 0.3694 0.68651 0.86535 0.0
C3108 C 0.3635 0.6921 0.84803 0.0
C3109 C 0.29534 0.73984 0.79841 0.0
C3110 C 0.30518 0.75717 0.80645 0.0
C3111 C 0.30325 0.72446 0.79667 0.0
C3112 C 0.3213 0.72555 0.80331 0.0
C3113 C 0.33111 0.7428 0.81167 0.0
C3114 C 0.3233 0.75831 0.81289 0.0
C3115 C 0.32984 0.70885 0.801 0.0
C3116 C 0.33717 0.70248 0.81739 0.0
C3117 C 0.33028 0.69875 0.7826 0.0
C3118 C 0.32447 0.70546 0.76463 0.0
C3119 C 0.33206 0.72283 0.7617 0.0
C3120 C 0.32601 0.72959 0.74523 0.0
C3121 C 0.31243 0.71906 0.73155 0.0
C3122 C 0.30521 0.70157 0.73402 0.0
C3123 C 0.31122 0.69473 0.7505 0.0
H3124 H 0.30748 0.72446 0.71906 0.0
H3125 H 0.36696 0.66507 0.88247 0.0
H3126 H 0.27391 0.68128 0.56387 0.0
H3127 H 0.24431 0.66305 0.56224 0.0
H3128 H 0.24728 0.63797 0.50432 0.0
H3129 H 0.27736 0.65563 0.50629 0.0
H3130 H 0.2128 0.65376 0.51589 0.0
H3131 H 0.25053 0.61156 0.52568 0.0
H3132 H 0.27691 0.60238 0.54092 0.0
H3133 H 0.25978 0.61144 0.59674 0.0
H3134 H 0.2335 0.62115 0.58186 0.0
H3135 H 0.13457 0.58855 0.52115 0.0
H3136 H 0.16297 0.60261 0.51276 0.0
H3137 H 0.18345 0.61765 0.5736 0.0
H3138 H 0.15557 0.60306 0.58206 0.0
H3139 H 0.20644 0.60377 0.5546 0.0
H3140 H 0.16963 0.64757 0.54504 0.0
H3141 H 0.14447 0.65908 0.53031 0.0
H3142 H 0.16004 0.64776 0.47397 0.0
H3143 H 0.18512 0.63589 0.48835 0.0
C3144 C 0.26816 0.67197 0.55077 0.0
C3145 C 0.27774 0.66977 0.53519 0.0
C3146 C 0.25134 0.6616 0.54985 0.0
C3147 C 0.24372 0.64927 0.53315 0.0
C3148 C 0.25303 0.64747 0.51728 0.0
C3149 C 0.27012 0.65745 0.51844 0.0
C3150 C 0.22637 0.63772 0.53294 0.0
C3151 C 0.21131 0.64254 0.52395 0.0
C3152 C 0.2246 0.62333 0.54369 0.0
C3153 C 0.24021 0.61732 0.5527 0.0
C3154 C 0.25252 0.61183 0.54124 0.0
C3155 C 0.26743 0.60649 0.5498 0.0
C3156 C 0.27006 0.60639 0.5698 0.0
C3157 C 0.25775 0.61158 0.58126 0.0
C3158 C 0.24285 0.61701 0.57277 0.0
C3159 C 0.14518 0.59472 0.53273 0.0
C3160 C 0.14274 0.59474 0.55231 0.0
C3161 C 0.16134 0.6029 0.5279 0.0
C3162 C 0.17529 0.6113 0.54256 0.0
C3163 C 0.17288 0.61126 0.56205 0.0
C3164 C 0.15683 0.60306 0.56687 0.0
C3165 C 0.19259 0.62001 0.53793 0.0
C3166 C 0.20776 0.61469 0.54612 0.0
C3167 C 0.19439 0.6339 0.52638 0.0
C3168 C 0.17906 0.64058 0.51772 0.0
C3169 C 0.16754 0.64731 0.52948 0.0
C3170 C 0.15333 0.65394 0.5212 0.0
C3171 C 0.15061 0.65408 0.5012 0.0
C3172 C 0.16211 0.64759 0.48944 0.0
C3173 C 0.17631 0.64088 0.49764 0.0
H3174 H 0.13963 0.65928 0.49483 0.0
H3175 H 0.28161 0.60223 0.57641 0.0
H3176 H 0.67972 0.9627 0.78882 0.0
H3177 H 0.69758 0.93967 0.79174 0.0
H3178 H 0.66063 0.91255 0.82467 0.0
H3179 H 0.64246 0.93544 0.82151 0.0
H3180 H 0.69691 0.916 0.84068 0.0
H3181 H 0.6588 0.89476 0.78037 0.0
H3182 H 0.64438 0.89661 0.74776 0.0
H3183 H 0.69489 0.9077 0.72821 0.0
H3184 H 0.70965 0.90619 0.76081 0.0
H3185 H 0.72013 0.82659 0.81929 0.0
H3186 H 0.70323 0.85085 0.821 0.0
H3187 H 0.74668 0.88655 0.80486 0.0
H3188 H 0.76388 0.86267 0.80389 0.0
H3189 H 0.70718 0.87857 0.78136 0.0
H3190 H 0.74543 0.90084 0.84181 0.0
H3191 H 0.75997 0.89936 0.87446 0.0
H3192 H 0.70947 0.88651 0.8937 0.0
H3193 H 0.69461 0.88753 0.86099 0.0
C3194 C 0.67537 0.95185 0.7967 0.0
C3195 C 0.65959 0.95086 0.80484 0.0
C3196 C 0.68559 0.93868 0.79833 0.0
C3197 C 0.68041 0.92434 0.80835 0.0
C3198 C 0.66488 0.92349 0.81687 0.0
C3199 C 0.65446 0.93652 0.81496 0.0
C3200 C 0.69105 0.91008 0.80951 0.0
C3201 C 0.69896 0.90766 0.82773 0.0
C3202 C 0.69407 0.89944 0.79261 0.0
C3203 C 0.68532 0.90059 0.77308 0.0
C3204 C 0.66684 0.8978 0.76917 0.0
C3205 C 0.65861 0.89874 0.75068 0.0
C3206 C 0.66873 0.90234 0.73594 0.0
C3207 C 0.68709 0.90497 0.73966 0.0
C3208 C 0.6954 0.90406 0.75813 0.0
C3209 C 0.72617 0.83972 0.81648 0.0
C3210 C 0.74337 0.84281 0.81169 0.0
C3211 C 0.71653 0.85354 0.81748 0.0
C3212 C 0.72381 0.8705 0.81325 0.0
C3213 C 0.74096 0.87361 0.80843 0.0
C3214 C 0.75077 0.85998 0.80796 0.0
C3215 C 0.71305 0.88459 0.81247 0.0
C3216 C 0.7051 0.88691 0.7943 0.0
C3217 C 0.71008 0.89516 0.82939 0.0
C3218 C 0.71891 0.89392 0.84886 0.0
C3219 C 0.73742 0.89735 0.85289 0.0
C3220 C 0.74572 0.89669 0.87144 0.0
C3221 C 0.73565 0.89276 0.88613 0.0
C3222 C 0.71725 0.88948 0.88229 0.0
C3223 C 0.70888 0.89008 0.86374 0.0
H3224 H 0.74211 0.89234 0.90051 0.0
H3225 H 0.66233 0.90304 0.72162 0.0
H3226 H 0.72898 0.96232 0.61318 0.0
H3227 H 0.70387 0.96751 0.59205 0.0
H3228 H 0.73722 0.01273 0.57527 0.0
H3229 H 0.762 0.00837 0.59735 0.0
H3230 H 0.70928 0.02163 0.5834 0.0
H3231 H 0.72114 0.97017 0.54459 0.0
H3232 H 0.72596 0.93922 0.53666 0.0
H3233 H 0.67389 0.91824 0.5482 0.0
H3234 H 0.66888 0.94906 0.55659 0.0
H3235 H 0.64589 0.03963 0.51689 0.0
H3236 H 0.67114 0.02569 0.52442 0.0
H3237 H 0.64005 0.98912 0.55489 0.0
H3238 H 0.61449 1.00263 0.54691 0.0
H3239 H 0.6673 0.97484 0.53635 0.0
H3240 H 0.65848 0.02644 0.58029 0.0
H3241 H 0.65388 0.05746 0.58843 0.0
H3242 H 0.70149 0.07773 0.56632 0.0
H3243 H 0.70619 0.04677 0.55779 0.0
C3244 C 0.73085 0.97352 0.60516 0.0
C3245 C 0.74739 0.985 0.60693 0.0
C3246 C 0.71661 0.97623 0.5928 0.0
C3247 C 0.71882 0.99018 0.5817 0.0
C3248 C 0.7353 1.00176 0.58361 0.0
C3249 C 0.74942 0.99934 0.59632 0.0
C3250 C 0.70359 0.99393 0.56959 0.0
C3251 C 0.70041 0.01143 0.57277 0.0
C3252 C 0.69165 0.98049 0.55618 0.0
C3253 C 0.69473 0.96194 0.55143 0.0
C3254 C 0.71079 0.95896 0.54565 0.0
C3255 C 0.71354 0.94144 0.54103 0.0
C3256 C 0.70026 0.92677 0.54197 0.0
C3257 C 0.68418 0.9296 0.54751 0.0
C3258 C 0.68139 0.9471 0.55221 0.0
C3259 C 0.6442 0.02812 0.52445 0.0
C3260 C 0.6284 0.02239 0.53164 0.0
C3261 C 0.65862 0.0202 0.52874 0.0
C3262 C 0.65738 0.00664 0.54039 0.0
C3263 C 0.64114 0.99961 0.54586 0.0
C3264 C 0.62668 0.00747 0.54152 0.0
C3265 C 0.67348 1.00246 0.55006 0.0
C3266 C 0.67657 0.98495 0.54666 0.0
C3267 C 0.6855 0.01583 0.56326 0.0
C3268 C 0.68253 0.03435 0.56814 0.0
C3269 C 0.66784 0.03752 0.57697 0.0
C3270 C 0.66524 0.05508 0.5817 0.0
C3271 C 0.67735 0.06956 0.57782 0.0
C3272 C 0.6921 0.0665 0.56925 0.0
C3273 C 0.69472 0.04896 0.56446 0.0
H3274 H 0.67534 0.08315 0.58152 0.0
H3275 H 0.7024 0.91322 0.53836 0.0
H3276 H 0.38538 0.49282 0.77025 0.0
H3277 H 0.36998 0.46304 0.7733 0.0
H3278 H 0.33012 0.48608 0.79944 0.0
H3279 H 0.34596 0.51652 0.79671 0.0
H3280 H 0.33677 0.459 0.81826 0.0
H3281 H 0.32349 0.46119 0.75033 0.0
H3282 H 0.33015 0.46618 0.71775 0.0
H3283 H 0.3622 0.42597 0.7172 0.0
H3284 H 0.35591 0.42091 0.7499 0.0
H3285 H 0.27934 0.37049 0.80866 0.0
H3286 H 0.2914 0.40182 0.80491 0.0
H3287 H 0.33724 0.38527 0.78536 0.0
H3288 H 0.32559 0.35432 0.78976 0.0
H3289 H 0.32572 0.4093 0.7627 0.0
H3290 H 0.34087 0.40763 0.82961 0.0
H3291 H 0.3362 0.40241 0.86268 0.0
H3292 H 0.30252 0.44112 0.86553 0.0
H3293 H 0.30677 0.44636 0.83229 0.0
C3294 C 0.37325 0.49181 0.77655 0.0
C3295 C 0.3671 0.50761 0.78305 0.0
C3296 C 0.36426 0.47442 0.77821 0.0
C3297 C 0.34843 0.47166 0.78633 0.0
C3298 C 0.34216 0.48738 0.79297 0.0
C3299 C 0.35123 0.50498 0.79125 0.0
C3300 C 0.3389 0.4525 0.78798 0.0
C3301 C 0.33404 0.44833 0.80589 0.0
C3302 C 0.33563 0.43787 0.7723 0.0
C3303 C 0.33935 0.44079 0.75262 0.0
C3304 C 0.33205 0.45349 0.74331 0.0
C3305 C 0.33575 0.45633 0.72482 0.0
C3306 C 0.34663 0.44643 0.71543 0.0
C3307 C 0.35379 0.43364 0.72449 0.0
C3308 C 0.35015 0.43077 0.743 0.0
C3309 C 0.29192 0.37346 0.80341 0.0
C3310 C 0.30134 0.35953 0.79947 0.0
C3311 C 0.29894 0.39155 0.80136 0.0
C3312 C 0.31546 0.3964 0.79484 0.0
C3313 C 0.32455 0.38233 0.79038 0.0
C3314 C 0.31779 0.36444 0.79292 0.0
C3315 C 0.32345 0.4159 0.79287 0.0
C3316 C 0.32818 0.42007 0.77496 0.0
C3317 C 0.32673 0.43045 0.80856 0.0
C3318 C 0.32391 0.42718 0.82837 0.0
C3319 C 0.33229 0.41486 0.83719 0.0
C3320 C 0.32976 0.41194 0.85599 0.0
C3321 C 0.31901 0.42137 0.86617 0.0
C3322 C 0.3108 0.43378 0.85759 0.0
C3323 C 0.31325 0.43673 0.83877 0.0
H3324 H 0.31709 0.41911 0.88074 0.0
H3325 H 0.34948 0.44865 0.70112 0.0
H3326 H 0.13384 0.57164 0.30661 0.0
H3327 H 0.1548 0.59999 0.31055 0.0
H3328 H 0.1979 0.57256 0.32119 0.0
H3329 H 0.17688 0.54389 0.31747 0.0
H3330 H 0.20275 0.60753 0.34435 0.0
H3331 H 0.18882 0.57968 0.27776 0.0
H3332 H 0.16865 0.56433 0.24831 0.0
H3333 H 0.14443 0.61045 0.24729 0.0
H3334 H 0.16427 0.62596 0.27696 0.0
H3335 H 0.26503 0.67655 0.31213 0.0
H3336 H 0.24776 0.64867 0.31918 0.0
H3337 H 0.19989 0.6684 0.30626 0.0
H3338 H 0.21699 0.69632 0.29955 0.0
H3339 H 0.19958 0.6359 0.28476 0.0
H3340 H 0.21409 0.66399 0.35148 0.0
H3341 H 0.23343 0.67857 0.38176 0.0
H3342 H 0.2569 0.63197 0.38281 0.0
H3343 H 0.23791 0.61722 0.35232 0.0
C3344 C 0.14774 0.57158 0.31002 0.0
C3345 C 0.1537 0.55544 0.3114 0.0
C3346 C 0.1597 0.58783 0.31234 0.0
C3347 C 0.17787 0.58829 0.3159 0.0
C3348 C 0.1839 0.57243 0.31843 0.0
C3349 C 0.17188 0.55607 0.31618 0.0
C3350 C 0.19037 0.60502 0.31484 0.0
C3351 C 0.20232 0.61366 0.33128 0.0
C3352 C 0.18959 0.613 0.2978 0.0
C3353 C 0.17795 0.60393 0.27965 0.0
C3354 C 0.17913 0.58651 0.27131 0.0
C3355 C 0.16775 0.57778 0.25458 0.0
C3356 C 0.15524 0.5864 0.24595 0.0
C3357 C 0.15412 0.60379 0.254 0.0
C3358 C 0.16544 0.61256 0.27076 0.0
C3359 C 0.25086 0.67511 0.31121 0.0
C3360 C 0.24234 0.68852 0.30494 0.0
C3361 C 0.24102 0.65918 0.31524 0.0
C3362 C 0.22256 0.65647 0.31313 0.0
C3363 C 0.21413 0.67019 0.30782 0.0
C3364 C 0.22391 0.68608 0.30386 0.0
C3365 C 0.21179 0.63877 0.31444 0.0
C3366 C 0.20018 0.62982 0.29788 0.0
C3367 C 0.21304 0.63056 0.33134 0.0
C3368 C 0.22473 0.63959 0.34945 0.0
C3369 C 0.22354 0.65694 0.35801 0.0
C3370 C 0.2344 0.66521 0.37525 0.0
C3371 C 0.24643 0.65623 0.38417 0.0
C3372 C 0.24761 0.63894 0.37586 0.0
C3373 C 0.2368 0.63061 0.3586 0.0
H3374 H 0.25479 0.66264 0.39755 0.0
H3375 H 0.14643 0.57961 0.23301 0.0
H3376 H 0.52161 0.75305 0.41142 0.0
H3377 H 0.51947 0.73087 0.43367 0.0
H3378 H 0.54718 0.77179 0.48075 0.0
H3379 H 0.54956 0.7939 0.45864 0.0
H3380 H 0.56084 0.74316 0.4806 0.0
H3381 H 0.50331 0.75503 0.47832 0.0
H3382 H 0.47407 0.75883 0.46402 0.0
H3383 H 0.46156 0.70326 0.43796 0.0
H3384 H 0.49089 0.6992 0.45184 0.0
H3385 H 0.55047 0.68859 0.55328 0.0
H3386 H 0.54614 0.71258 0.53458 0.0
H3387 H 0.5224 0.6731 0.48455 0.0
H3388 H 0.52602 0.64897 0.5034 0.0
H3389 H 0.5058 0.70205 0.48788 0.0
H3390 H 0.56587 0.69232 0.48988 0.0
H3391 H 0.59491 0.69005 0.5064 0.0
H3392 H 0.60185 0.74421 0.53594 0.0
H3393 H 0.57272 0.74669 0.51978 0.0
C3394 C 0.52724 0.7573 0.42652 0.0
C3395 C 0.53587 0.7752 0.43322 0.0
C3396 C 0.52586 0.74466 0.43926 0.0
C3397 C 0.53304 0.74969 0.45893 0.0
C3398 C 0.54153 0.76759 0.46565 0.0
C3399 C 0.54289 0.78021 0.45296 0.0
C3400 C 0.53268 0.73613 0.47229 0.0
C3401 C 0.54873 0.7344 0.4824 0.0
C3402 C 0.51695 0.72451 0.47453 0.0
C3403 C 0.49939 0.72688 0.4659 0.0
C3404 C 0.49441 0.74367 0.46934 0.0
C3405 C 0.4778 0.74586 0.46135 0.0
C3406 C 0.46599 0.73131 0.45002 0.0
C3407 C 0.47075 0.71453 0.44669 0.0
C3408 C 0.48737 0.71227 0.45462 0.0
C3409 C 0.544 0.68497 0.53843 0.0
C3410 C 0.53882 0.66684 0.52978 0.0
C3411 C 0.54165 0.69872 0.52771 0.0
C3412 C 0.53426 0.69462 0.50807 0.0
C3413 C 0.52826 0.67656 0.49965 0.0
C3414 C 0.53053 0.66279 0.51038 0.0
C3415 C 0.53396 0.70909 0.49596 0.0
C3416 C 0.51783 0.71093 0.48609 0.0
C3417 C 0.54958 0.72107 0.49416 0.0
C3418 C 0.56709 0.71961 0.50379 0.0
C3419 C 0.57355 0.70369 0.50001 0.0
C3420 C 0.59002 0.70238 0.50929 0.0
C3421 C 0.6002 0.71697 0.52225 0.0
C3422 C 0.59394 0.73292 0.52592 0.0
C3423 C 0.57746 0.73428 0.5167 0.0
H3424 H 0.61296 0.71592 0.52942 0.0
H3425 H 0.45312 0.73303 0.44387 0.0
H3426 H 0.57096 0.28733 0.76224 0.0
H3427 H 0.60196 0.28794 0.77405 0.0
H3428 H 0.61735 0.31094 0.72415 0.0
H3429 H 0.58635 0.3088 0.71166 0.0
H3430 H 0.63646 0.28966 0.72892 0.0
H3431 H 0.62316 0.33455 0.77717 0.0
H3432 H 0.60583 0.34533 0.80194 0.0
H3433 H 0.6173 0.30457 0.83529 0.0
H3434 H 0.63453 0.29344 0.81059 0.0
H3435 H 0.72957 0.31735 0.76953 0.0
H3436 H 0.69864 0.31903 0.75874 0.0
H3437 H 0.68098 0.27973 0.79453 0.0
H3438 H 0.71165 0.27756 0.80464 0.0
H3439 H 0.66366 0.30995 0.79738 0.0
H3440 H 0.67582 0.26493 0.74979 0.0
H3441 H 0.68675 0.24874 0.72244 0.0
H3442 H 0.67538 0.28799 0.68693 0.0
H3443 H 0.66465 0.30458 0.71419 0.0
C3444 C 0.58101 0.29272 0.75395 0.0
C3445 C 0.57613 0.29822 0.7361 0.0
C3446 C 0.59888 0.29321 0.76078 0.0
C3447 C 0.61248 0.29994 0.75039 0.0
C3448 C 0.60745 0.30567 0.73267 0.0
C3449 C 0.58961 0.30459 0.72553 0.0
C3450 C 0.63179 0.3004 0.75731 0.0
C3451 C 0.64243 0.29463 0.74383 0.0
C3452 C 0.63981 0.30608 0.77691 0.0
C3453 C 0.63 0.31312 0.79201 0.0
C3454 C 0.62195 0.32789 0.78979 0.0
C3455 C 0.61214 0.33405 0.80379 0.0
C3456 C 0.61043 0.32562 0.82016 0.0
C3457 C 0.61862 0.31108 0.8226 0.0
C3458 C 0.62843 0.30486 0.80863 0.0
C3459 C 0.71909 0.30948 0.7755 0.0
C3460 C 0.72313 0.29775 0.78847 0.0
C3461 C 0.70138 0.3102 0.76906 0.0
C3462 C 0.68731 0.29941 0.77567 0.0
C3463 C 0.69145 0.28822 0.78916 0.0
C3464 C 0.70905 0.28715 0.79516 0.0
C3465 C 0.66832 0.29976 0.76881 0.0
C3466 C 0.65775 0.30552 0.78237 0.0
C3467 C 0.66039 0.29418 0.74922 0.0
C3468 C 0.66967 0.28612 0.73413 0.0
C3469 C 0.67609 0.27038 0.73633 0.0
C3470 C 0.68202 0.26099 0.72075 0.0
C3471 C 0.68149 0.26717 0.70287 0.0
C3472 C 0.67557 0.28308 0.70071 0.0
C3473 C 0.66968 0.29254 0.71625 0.0
H3474 H 0.68597 0.25981 0.69079 0.0
H3475 H 0.60278 0.33036 0.83095 0.0
H3476 H 0.04488 0.36143 0.94903 0.0
H3477 H 0.04289 0.38726 0.97263 0.0
H3478 H 0.03121 0.41654 0.92582 0.0
H3479 H 0.03401 0.39114 0.90229 0.0
H3480 H 0.05348 0.43751 0.95235 0.0
H3481 H 0.99905 0.39494 0.95386 0.0
H3482 H 0.98129 0.36635 0.95921 0.0
H3483 H 1.00725 0.37453 0.01794 0.0
H3484 H 0.02531 0.40303 0.01285 0.0
H3485 H 0.02056 0.50833 0.99571 0.0
H3486 H 0.02226 0.47981 0.97663 0.0
H3487 H 0.03375 0.45817 0.0294 0.0
H3488 H 0.03076 0.48653 0.04856 0.0
H3489 H 0.01431 0.43295 0.00318 0.0
H3490 H 0.06726 0.47578 0.00315 0.0
H3491 H 0.08435 0.5052 0.99926 0.0
H3492 H 0.06185 0.49681 0.93922 0.0
H3493 H 0.04446 0.46745 0.94282 0.0
C3494 C 0.04197 0.37342 0.94379 0.0
C3495 C 0.03968 0.37428 0.92378 0.0
C3496 C 0.04067 0.38813 0.9573 0.0
C3497 C 0.0366 0.40379 0.95103 0.0
C3498 C 0.03438 0.40464 0.93105 0.0
C3499 C 0.03601 0.3901 0.91759 0.0
C3500 C 0.0351 0.41957 0.9651 0.0
C3501 C 0.04476 0.43647 0.96332 0.0
C3502 C 0.02434 0.41824 0.98003 0.0
C3503 C 0.01367 0.40097 0.98289 0.0
C3504 C 1.00108 0.39054 0.96784 0.0
C3505 C 0.99094 0.37438 0.97085 0.0
C3506 C 0.99318 0.3686 0.98888 0.0
C3507 C 1.00555 0.37899 0.00397 0.0
C3508 C 0.01574 0.39513 1.00103 0.0
C3509 C 0.0232 0.49736 0.00318 0.0
C3510 C 0.02572 0.49949 0.02348 0.0
C3511 C 0.02431 0.48115 0.99231 0.0
C3512 C 0.02878 0.46708 1.00159 0.0
C3513 C 0.03048 0.46892 0.02195 0.0
C3514 C 0.02879 0.48504 0.03286 0.0
C3515 C 0.0322 0.45081 0.9899 0.0
C3516 C 0.02309 0.43389 0.99226 0.0
C3517 C 0.04361 0.45205 0.97562 0.0
C3518 C 0.05454 0.46943 0.97327 0.0
C3519 C 0.06595 0.48022 0.98913 0.0
C3520 C 0.07568 0.4969 0.98698 0.0
C3521 C 0.07418 0.50287 0.96901 0.0
C3522 C 0.06301 0.49216 0.95313 0.0
C3523 C 0.05325 0.47548 0.9552 0.0
H3524 H 0.08168 0.5158 0.96738 0.0
H3525 H 0.9853 0.3561 0.99119 0.0
H3526 H 0.9675 0.81467 0.23529 0.0
H3527 H 0.93762 0.81643 0.24285 0.0
H3528 H 0.92708 0.75963 0.24521 0.0
H3529 H 0.95703 0.75794 0.23857 0.0
H3530 H 0.89832 0.77771 0.22192 0.0
H3531 H 0.9335 0.77759 0.28429 0.0
H3532 H 0.95983 0.78941 0.3087 0.0
H3533 H 0.94745 0.84215 0.31313 0.0
H3534 H 0.92119 0.83065 0.28846 0.0
H3535 H 0.81705 0.76887 0.26156 0.0
H3536 H 0.84569 0.7662 0.25144 0.0
H3537 H 0.86876 0.81824 0.28518 0.0
H3538 H 0.84058 0.8198 0.29675 0.0
H3539 H 0.89194 0.80239 0.28904 0.0
H3540 H 0.8567 0.8047 0.22899 0.0
H3541 H 0.8321 0.79592 0.20198 0.0
H3542 H 0.8448 0.74359 0.19029 0.0
H3543 H 0.86933 0.75195 0.2174 0.0
C3544 C 0.95879 0.80255 0.23733 0.0
C3545 C 0.96481 0.78619 0.23643 0.0
C3546 C 0.94168 0.80356 0.24164 0.0
C3547 C 0.92996 0.78814 0.24457 0.0
C3548 C 0.93575 0.77172 0.24299 0.0
C3549 C 0.95297 0.7708 0.23927 0.0
C3550 C 0.91207 0.78923 0.2503 0.0
C3551 C 0.89684 0.783 0.23661 0.0
C3552 C 0.91005 0.7965 0.2693 0.0
C3553 C 0.92554 0.80332 0.2844 0.0
C3554 C 0.93649 0.79173 0.29035 0.0
C3555 C 0.95138 0.79836 0.30425 0.0
C3556 C 0.95534 0.81653 0.31242 0.0
C3557 C 0.94438 0.82809 0.30676 0.0
C3558 C 0.92949 0.82152 0.29283 0.0
C3559 C 0.82831 0.77968 0.26679 0.0
C3560 C 0.82655 0.79453 0.27996 0.0
C3561 C 0.84476 0.77831 0.26078 0.0
C3562 C 0.85979 0.79221 0.26698 0.0
C3563 C 0.85776 0.80716 0.28004 0.0
C3564 C 0.84151 0.80816 0.28661 0.0
C3565 C 0.87765 0.79113 0.26055 0.0
C3566 C 0.89307 0.79725 0.2742 0.0
C3567 C 0.8798 0.78415 0.24129 0.0
C3568 C 0.86479 0.77893 0.22531 0.0
C3569 C 0.85416 0.79127 0.22077 0.0
C3570 C 0.84024 0.78637 0.20543 0.0
C3571 C 0.83694 0.76923 0.19441 0.0
C3572 C 0.84741 0.75687 0.19882 0.0
C3573 C 0.86132 0.76168 0.21417 0.0
H3574 H 0.82636 0.76559 0.18236 0.0
H3575 H 0.96689 0.82165 0.32316 0.0
H3576 H 0.49438 0.31652 0.08829 0.0
H3577 H 0.51244 0.34436 0.08233 0.0
H3578 H 0.5218 0.36418 0.14389 0.0
H3579 H 0.50283 0.33729 0.14971 0.0
H3580 H 0.51536 0.38866 0.12662 0.0
H3581 H 0.55479 0.34895 0.11847 0.0
H3582 H 0.56523 0.32155 0.1064 0.0
H3583 H 0.55629 0.33243 0.048 0.0
H3584 H 0.54553 0.35974 0.05968 0.0
H3585 H 0.5676 0.4642 0.09412 0.0
H3586 H 0.56328 0.43859 0.11205 0.0
H3587 H 0.53442 0.40477 0.06001 0.0
H3588 H 0.53829 0.43025 0.04236 0.0
H3589 H 0.5596 0.38929 0.08117 0.0
H3590 H 0.51208 0.42299 0.09007 0.0
H3591 H 0.49635 0.44627 0.10274 0.0
H3592 H 0.51916 0.44435 0.16091 0.0
H3593 H 0.53535 0.4214 0.14849 0.0
C3594 C 0.49987 0.32712 0.1004 0.0
C3595 C 0.49702 0.32493 0.11936 0.0
C3596 C 0.51056 0.34274 0.09709 0.0
C3597 C 0.51892 0.35599 0.11279 0.0
C3598 C 0.51559 0.35402 0.13162 0.0
C3599 C 0.5045 0.33875 0.13486 0.0
C3600 C 0.52986 0.3727 0.10944 0.0
C3601 C 0.5255 0.38884 0.11721 0.0
C3602 C 0.54299 0.37285 0.09713 0.0
C3603 C 0.5493 0.35636 0.08996 0.0
C3604 C 0.55493 0.34543 0.10304 0.0
C3605 C 0.56092 0.32992 0.09626 0.0
C3606 C 0.56141 0.32525 0.07645 0.0
C3607 C 0.55591 0.33607 0.06335 0.0
C3608 C 0.54989 0.35158 0.07004 0.0
C3609 C 0.56048 0.45123 0.08661 0.0
C3610 C 0.55299 0.4491 0.06708 0.0
C3611 C 0.55807 0.43673 0.09678 0.0
C3612 C 0.54853 0.42001 0.08723 0.0
C3613 C 0.54188 0.41767 0.06748 0.0
C3614 C 0.54401 0.43216 0.05748 0.0
C3615 C 0.54435 0.40488 0.09765 0.0
C3616 C 0.55009 0.38906 0.09133 0.0
C3617 C 0.5325 0.40497 0.11138 0.0
C3618 C 0.52527 0.42086 0.11832 0.0
C3619 C 0.51418 0.42796 0.10549 0.0
C3620 C 0.50501 0.44095 0.11265 0.0
C3621 C 0.50671 0.44676 0.13262 0.0
C3622 C 0.51785 0.43986 0.14545 0.0
C3623 C 0.52713 0.42699 0.13835 0.0
H3624 H 0.49948 0.45669 0.13815 0.0
H3625 H 0.56607 0.31324 0.07123 0.0
H3626 H 0.99862 0.36336 0.45975 0.0
H3627 H 0.97022 0.34839 0.43985 0.0
H3628 H 0.99847 0.32602 0.39622 0.0
H3629 H 0.02626 0.34175 0.4152 0.0
H3630 H 0.97601 0.34164 0.38044 0.0
H3631 H 0.97459 0.30004 0.42611 0.0
H3632 H 0.97424 0.28939 0.45774 0.0
H3633 H 0.92737 0.31005 0.46571 0.0
H3634 H 0.92761 0.3211 0.43429 0.0
H3635 H 0.89861 0.30672 0.31778 0.0
H3636 H 0.92417 0.30169 0.33883 0.0
H3637 H 0.90574 0.32781 0.38872 0.0
H3638 H 0.88017 0.33219 0.368 0.0
H3639 H 0.92397 0.30402 0.39945 0.0
H3640 H 0.93062 0.35241 0.35967 0.0
H3641 H 0.93028 0.3643 0.32864 0.0
H3642 H 0.96717 0.332 0.311 0.0
H3643 H 0.96752 0.31977 0.34185 0.0
C3644 C 0.99853 0.35555 0.4457 0.0
C3645 C 0.01437 0.35426 0.43845 0.0
C3646 C 0.98245 0.34669 0.43459 0.0
C3647 C 0.98228 0.33603 0.41658 0.0
C3648 C 0.99826 0.33428 0.40995 0.0
C3649 C 0.01409 0.34346 0.42064 0.0
C3650 C 0.96576 0.32845 0.40328 0.0
C3651 C 0.96481 0.33304 0.38456 0.0
C3652 C 0.95099 0.31756 0.4087 0.0
C3653 C 0.95126 0.31159 0.42794 0.0
C3654 C 0.96436 0.30254 0.43473 0.0
C3655 C 0.96414 0.29638 0.45259 0.0
C3656 C 0.95082 0.29909 0.46375 0.0
C3657 C 0.9377 0.308 0.45708 0.0
C3658 C 0.93788 0.31421 0.43925 0.0
C3659 C 0.89988 0.31086 0.33331 0.0
C3660 C 0.888 0.32044 0.34133 0.0
C3661 C 0.91435 0.30794 0.34529 0.0
C3662 C 0.91699 0.31479 0.36522 0.0
C3663 C 0.90401 0.32253 0.37338 0.0
C3664 C 0.88959 0.32532 0.36151 0.0
C3665 C 0.9344 0.31744 0.37697 0.0
C3666 C 0.93548 0.31211 0.39536 0.0
C3667 C 0.94934 0.32788 0.37146 0.0
C3668 C 0.94891 0.33502 0.35287 0.0
C3669 C 0.93854 0.34776 0.34908 0.0
C3670 C 0.93836 0.35456 0.33156 0.0
C3671 C 0.94865 0.34886 0.31783 0.0
C3672 C 0.95916 0.33635 0.32161 0.0
C3673 C 0.95934 0.32947 0.33909 0.0
H3674 H 0.94853 0.35417 0.30429 0.0
H3675 H 0.95064 0.29425 0.47754 0.0
H3676 H 0.01872 0.7132 0.63997 0.0
H3677 H 0.02172 0.68652 0.61852 0.0
H3678 H 0.97666 0.69155 0.57921 0.0
H3679 H 0.97347 0.71837 0.60052 0.0
H3680 H 0.98192 0.65452 0.58909 0.0
H3681 H 0.01152 0.71023 0.56797 0.0
H3682 H 0.03242 0.73935 0.57557 0.0
H3683 H 0.07376 0.71292 0.59542 0.0
H3684 H 0.05303 0.68369 0.5882 0.0
H3685 H 1.00471 0.58994 0.52303 0.0
H3686 H 0.9941 0.61734 0.53348 0.0
H3687 H 0.04628 0.64147 0.56365 0.0
H3688 H 0.05694 0.61471 0.55219 0.0
H3689 H 0.03347 0.6658 0.55373 0.0
H3690 H 0.0123 0.62006 0.5907 0.0
H3691 H 0.99664 0.59351 0.60202 0.0
H3692 H 0.94817 0.59839 0.56913 0.0
H3693 H 0.96362 0.62553 0.5581 0.0
C3694 C 0.00919 0.7084 0.627 0.0
C3695 C 0.99607 0.7179 0.62157 0.0
C3696 C 0.01096 0.69327 0.61485 0.0
C3697 C 0.99958 0.68766 0.59738 0.0
C3698 C 0.98556 0.69611 0.59269 0.0
C3699 C 0.98385 0.71134 0.60475 0.0
C3700 C 1.00334 0.67395 0.5832 0.0
C3701 C 0.99287 0.65687 0.58085 0.0
C3702 C 0.01825 0.67729 0.57366 0.0
C3703 C 0.03073 0.69483 0.57755 0.0
C3704 C 0.02505 0.71066 0.57402 0.0
C3705 C 0.03686 0.72718 0.57827 0.0
C3706 C 0.05441 0.72799 0.58597 0.0
C3707 C 0.06018 0.71228 0.58943 0.0
C3708 C 0.04841 0.69574 0.58523 0.0
C3709 C 0.01405 0.60164 0.5308 0.0
C3710 C 0.03157 0.60054 0.53679 0.0
C3711 C 1.00792 0.61702 0.53717 0.0
C3712 C 0.01928 0.63113 0.54976 0.0
C3713 C 0.03728 0.63072 0.55386 0.0
C3714 C 0.04348 0.61555 0.54708 0.0
C3715 C 0.01244 0.64574 0.55993 0.0
C3716 C 0.02214 0.66325 0.56136 0.0
C3717 C 0.99773 0.64246 0.57004 0.0
C3718 C 0.9892 0.62439 0.57308 0.0
C3719 C 0.99843 0.6151 0.58537 0.0
C3720 C 0.98952 0.60005 0.59192 0.0
C3721 C 0.97143 0.594 0.58608 0.0
C3722 C 0.96222 0.60299 0.57354 0.0
C3723 C 0.97103 0.61821 0.56713 0.0
H3724 H 0.9645 0.58246 0.59138 0.0
H3725 H 0.06353 0.74079 0.58924 0.0
H3726 H 0.61991 0.83167 0.93962 0.0
H3727 H 0.63508 0.83166 0.9111 0.0
H3728 H 0.58986 0.84417 0.87799 0.0
H3729 H 0.5745 0.84407 0.90637 0.0
H3730 H 0.60045 0.81409 0.86177 0.0
H3731 H 0.626 0.87488 0.88689 0.0
H3732 H 0.64022 0.90004 0.91268 0.0
H3733 H 0.68578 0.87605 0.92084 0.0
H3734 H 0.67171 0.85055 0.89532 0.0
H3735 H 0.65149 0.80652 0.78324 0.0
H3736 H 0.63393 0.82019 0.80592 0.0
H3737 H 0.66962 0.81213 0.8543 0.0
H3738 H 0.68693 0.79838 0.83176 0.0
H3739 H 0.66111 0.84614 0.85851 0.0
H3740 H 0.6335 0.78328 0.84162 0.0
H3741 H 0.61813 0.75493 0.82101 0.0
H3742 H 0.57622 0.78063 0.80117 0.0
H3743 H 0.59149 0.80922 0.82148 0.0
C3744 C 0.61329 0.83457 0.92632 0.0
C3745 C 0.59604 0.83767 0.92504 0.0
C3746 C 0.622 0.83477 0.91017 0.0
C3747 C 0.61356 0.83816 0.89269 0.0
C3748 C 0.59652 0.84171 0.89151 0.0
C3749 C 0.5878 0.84154 0.90765 0.0
C3750 C 0.62181 0.83573 0.87516 0.0
C3751 C 0.61347 0.82148 0.86062 0.0
C3752 C 0.63891 0.84518 0.87425 0.0
C3753 C 0.64777 0.86077 0.88917 0.0
C3754 C 0.63903 0.87493 0.89422 0.0
C3755 C 0.64706 0.88924 0.9088 0.0
C3756 C 0.66389 0.88964 0.9184 0.0
C3757 C 0.67275 0.87573 0.91338 0.0
C3758 C 0.66477 0.86135 0.89881 0.0
C3759 C 0.65547 0.80779 0.79873 0.0
C3760 C 0.67027 0.80139 0.80599 0.0
C3761 C 0.64556 0.81555 0.81157 0.0
C3762 C 0.65062 0.81711 0.83163 0.0
C3763 C 0.66568 0.81109 0.83881 0.0
C3764 C 0.67541 0.80317 0.82604 0.0
C3765 C 0.63987 0.8242 0.84537 0.0
C3766 C 0.64779 0.83927 0.85921 0.0
C3767 C 0.62243 0.81532 0.84587 0.0
C3768 C 0.61384 0.79849 0.8327 0.0
C3769 C 0.62119 0.78298 0.83255 0.0
C3770 C 0.61244 0.76684 0.82102 0.0
C3771 C 0.59626 0.766 0.80969 0.0
C3772 C 0.5888 0.78132 0.80986 0.0
C3773 C 0.59751 0.7975 0.82135 0.0
H3774 H 0.58946 0.75347 0.80085 0.0
H3775 H 0.67007 0.90072 0.92972 0.0
H3776 H 0.448 0.58863 0.75104 0.0
H3777 H 0.46628 0.58758 0.72479 0.0
H3778 H 0.4211 0.55819 0.68488 0.0
H3779 H 0.40269 0.55953 0.71102 0.0
H3780 H 0.44979 0.54283 0.6803 0.0
H3781 H 0.43855 0.60268 0.68352 0.0
H3782 H 0.43835 0.63352 0.69884 0.0
H3783 H 0.49473 0.64384 0.71308 0.0
H3784 H 0.49523 0.61294 0.6981 0.0
H3785 H 0.47821 0.54445 0.59029 0.0
H3786 H 0.46366 0.55115 0.61835 0.0
H3787 H 0.51301 0.58086 0.65041 0.0
H3788 H 0.5279 0.57424 0.62162 0.0
H3789 H 0.48489 0.59675 0.66096 0.0
H3790 H 0.49711 0.53822 0.65825 0.0
H3791 H 0.49854 0.5078 0.64268 0.0
H3792 H 0.4421 0.49506 0.62888 0.0
H3793 H 0.44037 0.52554 0.64412 0.0
C3794 C 0.44185 0.58202 0.73666 0.0
C3795 C 0.42367 0.57423 0.73338 0.0
C3796 C 0.45241 0.58148 0.72152 0.0
C3797 C 0.44528 0.57289 0.70249 0.0
C3798 C 0.42715 0.56497 0.69923 0.0
C3799 C 0.41652 0.56579 0.7143 0.0
C3800 C 0.45666 0.5717 0.68618 0.0
C3801 C 0.45726 0.55472 0.67605 0.0
C3802 C 0.46717 0.58697 0.6807 0.0
C3803 C 0.4669 0.60543 0.68994 0.0
C3804 C 0.45088 0.61146 0.69012 0.0
C3805 C 0.45072 0.62896 0.6987 0.0
C3806 C 0.46651 0.64061 0.70699 0.0
C3807 C 0.4825 0.63479 0.7067 0.0
C3808 C 0.48273 0.61728 0.69817 0.0
C3809 C 0.4861 0.55267 0.60315 0.0
C3810 C 0.50438 0.55869 0.60343 0.0
C3811 C 0.47766 0.55642 0.61941 0.0
C3812 C 0.48708 0.56617 0.63702 0.0
C3813 C 0.50526 0.57317 0.6372 0.0
C3814 C 0.51383 0.56946 0.62062 0.0
C3815 C 0.47776 0.5679 0.65499 0.0
C3816 C 0.47752 0.58489 0.66538 0.0
C3817 C 0.46776 0.55263 0.66098 0.0
C3818 C 0.46862 0.53418 0.6522 0.0
C3819 C 0.48501 0.52895 0.65182 0.0
C3820 C 0.48588 0.51171 0.64305 0.0
C3821 C 0.47042 0.49952 0.63476 0.0
C3822 C 0.45406 0.50453 0.6353 0.0
C3823 C 0.45313 0.52178 0.64402 0.0
H3824 H 0.47112 0.48618 0.62795 0.0
H3825 H 0.46635 0.65417 0.7136 0.0
H3826 H 0.80541 0.20075 0.97415 0.0
H3827 H 0.79582 0.21399 0.94614 0.0
H3828 H 0.83357 0.26301 0.96878 0.0
H3829 H 0.84225 0.25012 0.99774 0.0
H3830 H 0.80585 0.27193 0.9562 0.0
H3831 H 0.83652 0.22814 0.9262 0.0
H3832 H 0.84303 0.19804 0.91682 0.0
H3833 H 0.78966 0.17886 0.88899 0.0
H3834 H 0.7828 0.20877 0.89839 0.0
H3835 H 0.79655 0.3107 0.86975 0.0
H3836 H 0.80601 0.29819 0.8985 0.0
H3837 H 0.76892 0.24855 0.87637 0.0
H3838 H 0.76059 0.26065 0.84687 0.0
H3839 H 0.7967 0.24012 0.88857 0.0
H3840 H 0.7653 0.28261 0.91845 0.0
H3841 H 0.75799 0.3125 0.92675 0.0
H3842 H 0.81121 0.3335 0.95426 0.0
H3843 H 0.81886 0.30379 0.94591 0.0
C3844 C 0.81182 0.2143 0.97308 0.0
C3845 C 0.82471 0.22435 0.98812 0.0
C3846 C 0.80642 0.22184 0.95688 0.0
C3847 C 0.81423 0.23941 0.95488 0.0
C3848 C 0.82732 0.2494 0.96982 0.0
C3849 C 0.83237 0.24202 0.98636 0.0
C3850 C 0.80803 0.24775 0.93789 0.0
C3851 C 0.80414 0.26502 0.94139 0.0
C3852 C 0.80505 0.23865 0.91848 0.0
C3853 C 0.80913 0.22062 0.91318 0.0
C3854 C 0.82615 0.21745 0.91823 0.0
C3855 C 0.8299 0.20043 0.91288 0.0
C3856 C 0.81675 0.18654 0.90237 0.0
C3857 C 0.79982 0.18962 0.89716 0.0
C3858 C 0.796 0.20659 0.90249 0.0
C3859 C 0.79011 0.29729 0.8713 0.0
C3860 C 0.77762 0.28673 0.85628 0.0
C3861 C 0.7955 0.29011 0.8878 0.0
C3862 C 0.78799 0.27246 0.88997 0.0
C3863 C 0.77499 0.26218 0.87518 0.0
C3864 C 0.77005 0.26915 0.8584 0.0
C3865 C 0.79444 0.26423 0.90692 0.0
C3866 C 0.79839 0.24701 0.90339 0.0
C3867 C 0.79729 0.27328 0.92629 0.0
C3868 C 0.79266 0.29106 0.93143 0.0
C3869 C 0.77545 0.29364 0.92618 0.0
C3870 C 0.77125 0.31054 0.9309 0.0
C3871 C 0.78414 0.3249 0.94098 0.0
C3872 C 0.80124 0.32238 0.94643 0.0
C3873 C 0.80551 0.30551 0.94173 0.0
H3874 H 0.78086 0.33798 0.94461 0.0
H3875 H 0.8197 0.17338 0.89822 0.0
H3876 H 0.08293 0.47681 0.23731 0.0
H3877 H 0.06834 0.48605 0.20836 0.0
H3878 H 0.10811 0.53448 0.21669 0.0
H3879 H 0.12313 0.52498 0.24508 0.0
H3880 H 0.06722 0.53606 0.20753 0.0
H3881 H 0.11593 0.51065 0.18564 0.0
H3882 H 0.1333 0.48671 0.18294 0.0
H3883 H 0.08718 0.44876 0.15423 0.0
H3884 H 0.06948 0.47247 0.15715 0.0
H3885 H 0.06305 0.57018 0.11792 0.0
H3886 H 0.07032 0.56032 0.14905 0.0
H3887 H 0.04326 0.50632 0.1249 0.0
H3888 H 0.03594 0.51621 0.09357 0.0
H3889 H 0.07497 0.50598 0.14291 0.0
H3890 H 0.02706 0.5319 0.15958 0.0
H3891 H 1.0082 0.55437 0.16376 0.0
H3892 H 0.0501 0.59011 0.20288 0.0
H3893 H 0.06934 0.56799 0.19864 0.0
C3894 C 0.08861 0.48936 0.23286 0.0
C3895 C 0.10437 0.49998 0.24319 0.0
C3896 C 0.08021 0.49468 0.21643 0.0
C3897 C 0.08712 0.51098 0.21042 0.0
C3898 C 0.10254 0.52188 0.2211 0.0
C3899 C 0.11121 0.51632 0.23716 0.0
C3900 C 0.07894 0.51608 0.19227 0.0
C3901 C 0.06902 0.52967 0.19337 0.0
C3902 C 0.08079 0.50733 0.17384 0.0
C3903 C 0.09138 0.4932 0.17185 0.0
C3904 C 0.10948 0.49714 0.17895 0.0
C3905 C 0.11938 0.48364 0.17735 0.0
C3906 C 0.11134 0.4662 0.16849 0.0
C3907 C 0.09338 0.46226 0.16115 0.0
C3908 C 0.08341 0.47571 0.16277 0.0
C3909 C 0.0585 0.55623 0.11928 0.0
C3910 C 0.04907 0.54393 0.10323 0.0
C3911 C 0.06255 0.55063 0.13717 0.0
C3912 C 0.05729 0.53257 0.13947 0.0
C3913 C 0.04747 0.52033 0.12355 0.0
C3914 C 0.04327 0.52598 0.10565 0.0
C3915 C 0.06333 0.5263 0.15793 0.0
C3916 C 0.07294 0.51242 0.15696 0.0
C3917 C 0.06103 0.53477 0.17645 0.0
C3918 C 0.04972 0.54836 0.17859 0.0
C3919 C 0.03234 0.54465 0.16886 0.0
C3920 C 0.02156 0.5573 0.17129 0.0
C3921 C 0.02796 0.57368 0.18353 0.0
C3922 C 0.04517 0.57744 0.19337 0.0
C3923 C 0.05602 0.56485 0.19095 0.0
H3924 H 0.01957 0.58344 0.18544 0.0
H3925 H 0.11903 0.45575 0.16726 0.0
H3926 H 0.75792 0.92984 0.56203 0.0
H3927 H 0.75191 0.90582 0.53396 0.0
H3928 H 0.80128 0.92799 0.5156 0.0
H3929 H 0.80669 0.95254 0.54309 0.0
H3930 H 0.77748 0.91905 0.48606 0.0
H3931 H 0.79544 0.89032 0.53965 0.0
H3932 H 0.79464 0.88027 0.57155 0.0
H3933 H 0.74205 0.85001 0.55258 0.0
H3934 H 0.74246 0.86012 0.52066 0.0
H3935 H 0.80295 0.84452 0.43682 0.0
H3936 H 0.79883 0.86367 0.46606 0.0
H3937 H 0.74274 0.85306 0.44705 0.0
H3938 H 0.74694 0.83412 0.41737 0.0
H3939 H 0.76458 0.85469 0.49397 0.0
H3940 H 0.74981 0.88555 0.43797 0.0
H3941 H 0.75596 0.89419 0.40644 0.0
H3942 H 0.80891 0.91952 0.43161 0.0
H3943 H 0.80314 0.91066 0.46318 0.0
C3944 C 0.76731 0.92955 0.55179 0.0
C3945 C 0.78264 0.94286 0.55431 0.0
C3946 C 0.76398 0.91583 0.53595 0.0
C3947 C 0.77626 0.91504 0.52289 0.0
C3948 C 0.79161 0.92845 0.5255 0.0
C3949 C 0.79471 0.94239 0.54108 0.0
C3950 C 0.77314 0.90037 0.50634 0.0
C3951 C 0.77457 0.90501 0.48786 0.0
C3952 C 0.76922 0.88202 0.50863 0.0
C3953 C 0.76888 0.87619 0.5279 0.0
C3954 C 0.78364 0.88169 0.54237 0.0
C3955 C 0.78327 0.87595 0.56043 0.0
C3956 C 0.76828 0.86457 0.56412 0.0
C3957 C 0.75363 0.85887 0.54973 0.0
C3958 C 0.75392 0.86461 0.53166 0.0
C3959 C 0.78973 0.84594 0.43923 0.0
C3960 C 0.7752 0.83799 0.42525 0.0
C3961 C 0.7874 0.85678 0.45579 0.0
C3962 C 0.77052 0.85961 0.45845 0.0
C3963 C 0.75581 0.85081 0.44506 0.0
C3964 C 0.75818 0.84011 0.42828 0.0
C3965 C 0.76892 0.87354 0.47406 0.0
C3966 C 0.76685 0.86878 0.49229 0.0
C3967 C 0.77273 0.89178 0.47171 0.0
C3968 C 0.77609 0.8973 0.45283 0.0
C3969 C 0.7628 0.89279 0.43671 0.0
C3970 C 0.76621 0.89775 0.41884 0.0
C3971 C 0.78283 0.90736 0.417 0.0
C3972 C 0.79606 0.91205 0.43304 0.0
C3973 C 0.79272 0.90707 0.45091 0.0
H3974 H 0.78544 0.91121 0.40317 0.0
H3975 H 0.76803 0.86011 0.5781 0.0
H3976 H 0.45107 0.5942 0.84526 0.0
H3977 H 0.4663 0.59442 0.87791 0.0
H3978 H 0.42609 0.55026 0.88569 0.0
H3979 H 0.41055 0.55065 0.85336 0.0
H3980 H 0.43574 0.56994 0.91888 0.0
H3981 H 0.46894 0.5463 0.87148 0.0
H3982 H 0.48546 0.54654 0.84354 0.0
H3983 H 0.52292 0.59271 0.87395 0.0
H3984 H 0.50645 0.59291 0.90194 0.0
H3985 H 0.49125 0.53244 0.98722 0.0
H3986 H 0.47562 0.53653 0.95609 0.0
H3987 H 0.5007 0.59252 0.96634 0.0
H3988 H 0.5156 0.5887 0.99796 0.0
H3989 H 0.49942 0.56788 0.92499 0.0
H3990 H 0.46602 0.5911 0.97248 0.0
H3991 H 0.45004 0.58976 1.00072 0.0
H3992 H 0.41313 0.54335 0.9699 0.0
H3993 H 0.42927 0.5441 0.94165 0.0
C3994 C 0.44517 0.58498 0.85425 0.0
C3995 C 0.42932 0.57275 0.8469 0.0
C3996 C 0.45408 0.58485 0.87284 0.0
C3997 C 0.44772 0.57205 0.8844 0.0
C3998 C 0.43146 0.5603 0.8773 0.0
C3999 C 0.42244 0.56061 0.85881 0.0
C4000 C 0.45816 0.57043 0.90345 0.0
C4001 C 0.44962 0.56933 0.92001 0.0
C4002 C 0.47645 0.56988 0.90547 0.0
C4003 C 0.48635 0.56975 0.88868 0.0
C4004 C 0.48063 0.55658 0.87213 0.0
C4005 C 0.48998 0.55663 0.8563 0.0
C4006 C 0.5052 0.56967 0.85695 0.0
C4007 C 0.51111 0.58265 0.87345 0.0
C4008 C 0.50177 0.58269 0.8893 0.0
C4009 C 0.49346 0.54561 0.98281 0.0
C4010 C 0.50461 0.56027 0.99512 0.0
C4011 C 0.48451 0.54794 0.96501 0.0
C4012 C 0.48692 0.56485 0.9588 0.0
C4013 C 0.49855 0.57936 0.97077 0.0
C4014 C 0.50703 0.57717 0.98887 0.0
C4015 C 0.47693 0.56743 0.9401 0.0
C4016 C 0.48555 0.56858 0.9237 0.0
C4017 C 0.45874 0.56797 0.93819 0.0
C4018 C 0.44903 0.56746 0.95509 0.0
C4019 C 0.45468 0.58042 0.97184 0.0
C4020 C 0.44556 0.5798 0.98783 0.0
C4021 C 0.43062 0.56642 0.98714 0.0
C4022 C 0.42475 0.55366 0.97044 0.0
C4023 C 0.4339 0.55415 0.95445 0.0
H4024 H 0.42354 0.56599 0.99951 0.0
H4025 H 0.51243 0.56968 0.84468 0.0
H4026 H 0.83534 0.24878 0.09789 0.0
H4027 H 0.8288 0.26664 0.12711 0.0
H4028 H 0.81239 0.21795 0.15041 0.0
H4029 H 0.81895 0.20028 0.12192 0.0
H4030 H 0.78823 0.23891 0.15254 0.0
H4031 H 0.85067 0.24526 0.16863 0.0
H4032 H 0.88191 0.25349 0.1644 0.0
H4033 H 0.87706 0.30861 0.16525 0.0
H4034 H 0.84566 0.30062 0.16916 0.0
H4035 H 0.78723 0.26612 0.25332 0.0
H4036 H 0.79599 0.25364 0.22272 0.0
H4037 H 0.80192 0.30583 0.2046 0.0
H4038 H 0.79249 0.31822 0.23505 0.0
H4039 H 0.83087 0.28608 0.19834 0.0
H4040 H 0.76815 0.27901 0.18452 0.0
H4041 H 0.73718 0.26978 0.18937 0.0
H4042 H 0.74308 0.21472 0.18497 0.0
H4043 H 0.77421 0.22368 0.18046 0.0
C4044 C 0.83055 0.24193 0.10935 0.0
C4045 C 0.82775 0.22303 0.1074 0.0
C4046 C 0.8268 0.25215 0.12606 0.0
C4047 C 0.82003 0.24365 0.14101 0.0
C4048 C 0.8175 0.22488 0.13913 0.0
C4049 C 0.82138 0.21476 0.12271 0.0
C4050 C 0.81494 0.25388 0.15847 0.0
C4051 C 0.79763 0.24916 0.16257 0.0
C4052 C 0.82701 0.26751 0.17149 0.0
C4053 C 0.84576 0.2723 0.16885 0.0
C4054 C 0.8562 0.25909 0.16765 0.0
C4055 C 0.87395 0.26372 0.16537 0.0
C4056 C 0.88145 0.28155 0.16446 0.0
C4057 C 0.87121 0.29479 0.16588 0.0
C4058 C 0.85344 0.29022 0.16812 0.0
C4059 C 0.7905 0.27494 0.24284 0.0
C4060 C 0.78922 0.29314 0.24651 0.0
C4061 C 0.79546 0.26779 0.22535 0.0
C4062 C 0.79959 0.27877 0.21131 0.0
C4063 C 0.7988 0.2971 0.21521 0.0
C4064 C 0.7934 0.30417 0.23255 0.0
C4065 C 0.80427 0.2709 0.19243 0.0
C4066 C 0.82146 0.27601 0.18814 0.0
C4067 C 0.79215 0.25746 0.17928 0.0
C4068 C 0.77357 0.25205 0.18241 0.0
C4069 C 0.76291 0.26497 0.18485 0.0
C4070 C 0.74531 0.25978 0.18748 0.0
C4071 C 0.73818 0.24168 0.18754 0.0
C4072 C 0.74864 0.22874 0.18497 0.0
C4073 C 0.76626 0.23386 0.18239 0.0
H4074 H 0.72453 0.23769 0.18953 0.0
H4075 H 0.89521 0.28511 0.16272 0.0
H4076 H 0.11955 0.50552 0.36856 0.0
H4077 H 0.1115 0.5141 0.40085 0.0
H4078 H 0.05838 0.51322 0.37474 0.0
H4079 H 0.06628 0.50489 0.34276 0.0
H4080 H 0.07193 0.54431 0.39894 0.0
H4081 H 0.06938 0.47994 0.40091 0.0
H4082 H 0.08174 0.45242 0.4011 0.0
H4083 H 0.12105 0.47908 0.44903 0.0
H4084 H 0.10902 0.50678 0.44895 0.0
H4085 H 0.01965 0.54376 0.47574 0.0
H4086 H 0.03347 0.53925 0.44624 0.0
H4087 H 0.08215 0.53688 0.48112 0.0
H4088 H 0.0684 0.54076 0.51029 0.0
H4089 H 0.07498 0.51026 0.45415 0.0
H4090 H 0.07789 0.5724 0.45656 0.0
H4091 H 0.06852 0.6016 0.45856 0.0
H4092 H 0.03332 0.58298 0.40518 0.0
H4093 H 0.04221 0.55351 0.40304 0.0
C4094 C 0.10607 0.50673 0.36981 0.0
C4095 C 0.09355 0.50455 0.35311 0.0
C4096 C 0.10151 0.51172 0.38823 0.0
C4097 C 0.08435 0.51442 0.39017 0.0
C4098 C 0.07172 0.5114 0.37359 0.0
C4099 C 0.07625 0.50652 0.3553 0.0
C4100 C 0.0794 0.52105 0.40919 0.0
C4101 C 0.07243 0.5368 0.41099 0.0
C4102 C 0.08094 0.51184 0.42526 0.0
C4103 C 0.08848 0.49544 0.42472 0.0
C4104 C 0.0808 0.47997 0.4113 0.0
C4105 C 0.0877 0.46433 0.41144 0.0
C4106 C 0.10221 0.46402 0.42502 0.0
C4107 C 0.10985 0.47935 0.43848 0.0
C4108 C 0.10301 0.49501 0.43839 0.0
C4109 C 0.0333 0.5423 0.47704 0.0
C4110 C 0.04281 0.54221 0.49526 0.0
C4111 C 0.04124 0.53991 0.46023 0.0
C4112 C 0.05888 0.53775 0.46148 0.0
C4113 C 0.06851 0.53835 0.47976 0.0
C4114 C 0.06056 0.54048 0.49644 0.0
C4115 C 0.06692 0.53324 0.44377 0.0
C4116 C 0.07456 0.51795 0.44223 0.0
C4117 C 0.06644 0.5432 0.4282 0.0
C4118 C 0.06057 0.56066 0.42976 0.0
C4119 C 0.06796 0.57443 0.44538 0.0
C4120 C 0.06278 0.59106 0.44652 0.0
C4121 C 0.0503 0.59413 0.43204 0.0
C4122 C 0.04295 0.58057 0.41641 0.0
C4123 C 0.04806 0.5639 0.41523 0.0
H4124 H 0.04635 0.60704 0.4329 0.0
H4125 H 0.1075 0.45189 0.42514 0.0
H4126 H 0.7679 0.91282 0.63925 0.0
H4127 H 0.76243 0.88965 0.65984 0.0
H4128 H 0.80566 0.91908 0.7026 0.0
H4129 H 0.81095 0.94276 0.68223 0.0
H4130 H 0.8048 0.87995 0.6832 0.0
H4131 H 0.77204 0.91927 0.71711 0.0
H4132 H 0.749 0.93744 0.719 0.0
H4133 H 0.70915 0.89051 0.69622 0.0
H4134 H 0.73203 0.87212 0.69377 0.0
H4135 H 0.80865 0.83397 0.75985 0.0
H4136 H 0.80672 0.85593 0.73838 0.0
H4137 H 0.75289 0.83001 0.71599 0.0
H4138 H 0.75432 0.80858 0.73914 0.0
H4139 H 0.75601 0.86527 0.72177 0.0
H4140 H 0.78679 0.82542 0.68829 0.0
H4141 H 0.80877 0.80593 0.68672 0.0
H4142 H 0.85053 0.8519 0.7064 0.0
H4143 H 0.82877 0.87162 0.7083 0.0
C4144 C 0.77615 0.91442 0.65313 0.0
C4145 C 0.79 0.92934 0.65918 0.0
C4146 C 0.77287 0.90133 0.66488 0.0
C4147 C 0.78357 0.90292 0.68262 0.0
C4148 C 0.79722 0.91793 0.68893 0.0
C4149 C 0.80026 0.9313 0.67734 0.0
C4150 C 0.78183 0.88779 0.69335 0.0
C4151 C 0.79425 0.87679 0.6918 0.0
C4152 C 0.76749 0.88334 0.70356 0.0
C4153 C 0.75377 0.89439 0.70498 0.0
C4154 C 0.7584 0.91287 0.71224 0.0
C4155 C 0.74536 0.9232 0.71346 0.0
C4156 C 0.72763 0.91516 0.70763 0.0
C4157 C 0.7229 0.89674 0.70065 0.0
C4158 C 0.73589 0.88636 0.69933 0.0
C4159 C 0.79654 0.83257 0.75 0.0
C4160 C 0.78178 0.81929 0.75062 0.0
C4161 C 0.79542 0.84519 0.73778 0.0
C4162 C 0.77985 0.84421 0.72518 0.0
C4163 C 0.76509 0.83077 0.72548 0.0
C4164 C 0.76599 0.81844 0.73837 0.0
C4165 C 0.77933 0.85765 0.71212 0.0
C4166 C 0.76643 0.86825 0.71297 0.0
C4167 C 0.793 0.86155 0.70079 0.0
C4168 C 0.80618 0.84997 0.69839 0.0
C4169 C 0.80068 0.83136 0.6922 0.0
C4170 C 0.81309 0.82028 0.6913 0.0
C4171 C 0.83104 0.82768 0.69645 0.0
C4172 C 0.83663 0.8462 0.70237 0.0
C4173 C 0.82427 0.85734 0.70329 0.0
H4174 H 0.84062 0.81905 0.69585 0.0
H4175 H 0.71757 0.92319 0.70858 0.0
H4176 H 0.65149 0.41797 0.55975 0.0
H4177 H 0.63049 0.43827 0.56248 0.0
H4178 H 0.67287 0.48391 0.56603 0.0
H4179 H 0.69383 0.46386 0.56372 0.0
H4180 H 0.65268 0.49162 0.59149 0.0
H4181 H 0.64235 0.46766 0.52387 0.0
H4182 H 0.63571 0.44411 0.49504 0.0
H4183 H 0.58575 0.42348 0.51215 0.0
H4184 H 0.59221 0.44679 0.54124 0.0
H4185 H 0.5947 0.55402 0.57351 0.0
H4186 H 0.61775 0.53583 0.5727 0.0
H4187 H 0.5787 0.48807 0.57254 0.0
H4188 H 0.55592 0.5059 0.57343 0.0
H4189 H 0.59812 0.48274 0.54446 0.0
H4190 H 0.60914 0.50723 0.61261 0.0
H4191 H 0.6161 0.53151 0.64075 0.0
H4192 H 0.66515 0.55207 0.62166 0.0
H4193 H 0.65834 0.52805 0.59321 0.0
C4194 C 0.6563 0.43232 0.56106 0.0
C4195 C 0.67435 0.43922 0.56143 0.0
C4196 C 0.64428 0.44394 0.56254 0.0
C4197 C 0.65001 0.4627 0.56425 0.0
C4198 C 0.66804 0.46956 0.56474 0.0
C4199 C 0.68003 0.458 0.56332 0.0
C4200 C 0.63735 0.47524 0.56569 0.0
C4201 C 0.64087 0.48977 0.58104 0.0
C4202 C 0.62179 0.47288 0.55225 0.0
C4203 C 0.61786 0.45883 0.53483 0.0
C4204 C 0.63002 0.458 0.52156 0.0
C4205 C 0.62627 0.44472 0.50516 0.0
C4206 C 0.61035 0.43227 0.5018 0.0
C4207 C 0.5981 0.43311 0.5148 0.0
C4208 C 0.60179 0.44636 0.53124 0.0
C4209 C 0.59116 0.53974 0.57389 0.0
C4210 C 0.57346 0.53149 0.57369 0.0
C4211 C 0.60431 0.52931 0.57326 0.0
C4212 C 0.59996 0.51052 0.57249 0.0
C4213 C 0.58242 0.50248 0.57301 0.0
C4214 C 0.56939 0.51279 0.57367 0.0
C4215 C 0.61332 0.49889 0.57042 0.0
C4216 C 0.60996 0.48458 0.55489 0.0
C4217 C 0.62905 0.50154 0.58362 0.0
C4218 C 0.63315 0.51597 0.60069 0.0
C4219 C 0.62134 0.51702 0.61432 0.0
C4220 C 0.62526 0.53072 0.63034 0.0
C4221 C 0.64103 0.54335 0.63296 0.0
C4222 C 0.65292 0.54229 0.61958 0.0
C4223 C 0.64904 0.52864 0.60352 0.0
H4224 H 0.64406 0.55394 0.64539 0.0
H4225 H 0.60747 0.42199 0.4891 0.0
H4226 H 0.20844 0.13668 0.5182 0.0
H4227 H 0.18147 0.12267 0.52939 0.0
H4228 H 0.16802 0.08498 0.47606 0.0
H4229 H 0.1955 0.09864 0.46499 0.0
H4230 H 0.14196 0.10867 0.48986 0.0
H4231 H 0.17775 0.06689 0.50857 0.0
H4232 H 0.20454 0.05887 0.52439 0.0
H4233 H 0.19555 0.08418 0.57967 0.0
H4234 H 0.16893 0.09275 0.56409 0.0
H4235 H 0.06491 0.06245 0.5161 0.0
H4236 H 0.09376 0.06637 0.505 0.0
H4237 H 0.11772 0.09639 0.56099 0.0
H4238 H 0.0888 0.09248 0.57225 0.0
H4239 H 0.13874 0.07383 0.54468 0.0
H4240 H 0.10774 0.11921 0.52887 0.0
H4241 H 0.08233 0.13136 0.51597 0.0
H4242 H 0.08405 0.10439 0.45878 0.0
H4243 H 0.10925 0.09172 0.47147 0.0
C4244 C 0.1997 0.12542 0.50886 0.0
C4245 C 0.20373 0.11882 0.49062 0.0
C4246 C 0.18447 0.11736 0.51534 0.0
C4247 C 0.17299 0.10282 0.50353 0.0
C4248 C 0.17693 0.09617 0.48531 0.0
C4249 C 0.19246 0.10395 0.47901 0.0
C4250 C 0.15625 0.09556 0.50985 0.0
C4251 C 0.14111 0.10063 0.50147 0.0
C4252 C 0.15557 0.08593 0.52566 0.0
C4253 C 0.17145 0.08063 0.53512 0.0
C4254 C 0.1816 0.07093 0.52406 0.0
C4255 C 0.19674 0.06626 0.533 0.0
C4256 C 0.20178 0.07106 0.55302 0.0
C4257 C 0.19165 0.08051 0.56416 0.0
C4258 C 0.17653 0.08528 0.55528 0.0
C4259 C 0.07636 0.06974 0.5261 0.0
C4260 C 0.0747 0.07752 0.54487 0.0
C4261 C 0.09278 0.07186 0.51978 0.0
C4262 C 0.10772 0.08179 0.53217 0.0
C4263 C 0.10627 0.08868 0.55129 0.0
C4264 C 0.08979 0.08662 0.55761 0.0
C4265 C 0.12437 0.08668 0.52443 0.0
C4266 C 0.1395 0.08145 0.53272 0.0
C4267 C 0.12524 0.09667 0.5089 0.0
C4268 C 0.11017 0.10429 0.50115 0.0
C4269 C 0.10256 0.1157 0.51358 0.0
C4270 C 0.08822 0.1227 0.50631 0.0
C4271 C 0.08153 0.11859 0.48658 0.0
C4272 C 0.08921 0.1075 0.47407 0.0
C4273 C 0.10351 0.10039 0.4813 0.0
H4274 H 0.07043 0.12404 0.48096 0.0
H4275 H 0.2135 0.06742 0.55991 0.0
H4276 H 0.21628 0.99655 0.8069 0.0
H4277 H 0.22883 0.96928 0.80394 0.0
H4278 H 0.1791 0.93792 0.81164 0.0
H4279 H 0.16664 0.96528 0.81496 0.0
H4280 H 0.20161 0.92334 0.82881 0.0
H4281 H 0.19729 0.93674 0.76552 0.0
H4282 H 0.20039 0.95455 0.73887 0.0
H4283 H 0.25678 0.96336 0.75213 0.0
H4284 H 0.254 0.94577 0.77905 0.0
H4285 H 0.22788 0.83872 0.7995 0.0
H4286 H 0.21366 0.86488 0.80121 0.0
H4287 H 0.26356 0.89934 0.79988 0.0
H4288 H 0.27776 0.87314 0.79787 0.0
H4289 H 0.23959 0.91133 0.77859 0.0
H4290 H 0.24021 0.89566 0.84405 0.0
H4291 H 0.23284 0.87534 0.86772 0.0
H4292 H 0.17796 0.86686 0.84504 0.0
H4293 H 0.18494 0.88722 0.82129 0.0
C4294 C 0.20793 0.9839 0.80801 0.0
C4295 C 0.19027 0.98355 0.81123 0.0
C4296 C 0.21516 0.96803 0.80612 0.0
C4297 C 0.2051 0.95089 0.8072 0.0
C4298 C 0.1875 0.95059 0.81066 0.0
C4299 C 0.18025 0.96646 0.81253 0.0
C4300 C 0.2129 0.93357 0.80494 0.0
C4301 C 0.20975 0.92081 0.81762 0.0
C4302 C 0.2236 0.92945 0.79041 0.0
C4303 C 0.22544 0.94017 0.77444 0.0
C4304 C 0.21035 0.94263 0.76286 0.0
C4305 C 0.21205 0.95264 0.74769 0.0
C4306 C 0.22878 0.96014 0.74385 0.0
C4307 C 0.24384 0.95758 0.75516 0.0
C4308 C 0.24221 0.94758 0.77037 0.0
C4309 C 0.23592 0.85181 0.7995 0.0
C4310 C 0.25418 0.85341 0.7985 0.0
C4311 C 0.2277 0.86703 0.80069 0.0
C4312 C 0.23732 0.88469 0.80108 0.0
C4313 C 0.25551 0.88621 0.79972 0.0
C4314 C 0.26374 0.87101 0.79858 0.0
C4315 C 0.22866 0.90141 0.80275 0.0
C4316 C 0.23158 0.914 0.78987 0.0
C4317 C 0.21724 0.90503 0.81665 0.0
C4318 C 0.2131 0.89282 0.83085 0.0
C4319 C 0.22659 0.88939 0.84407 0.0
C4320 C 0.22249 0.87788 0.85749 0.0
C4321 C 0.20499 0.86972 0.85781 0.0
C4322 C 0.19151 0.87315 0.84476 0.0
C4323 C 0.19552 0.88471 0.83136 0.0
H4324 H 0.20188 0.86081 0.86822 0.0
H4325 H 0.23007 0.96789 0.73209 0.0
H4326 H 0.26794 0.97494 0.07092 0.0
H4327 H 0.29929 0.98878 0.0778 0.0
H4328 H 0.31269 0.93699 0.06172 0.0
H4329 H 0.28123 0.92294 0.05614 0.0
H4330 H 0.33813 0.95821 0.08895 0.0
H4331 H 0.30686 0.96352 0.02739 0.0
H4332 H 0.28207 0.97081 0.00682 0.0
H4333 H 0.29576 0.02576 0.03499 0.0
H4334 H 0.3205 0.01871 0.05589 0.0
H4335 H 0.41472 0.98795 0.04537 0.0
H4336 H 0.38673 0.97373 0.05432 0.0
H4337 H 0.37543 0.02602 0.07276 0.0
H4338 H 0.40322 0.04034 0.06337 0.0
H4339 H 0.34947 1.00478 0.04647 0.0
H4340 H 0.38382 0.99885 0.1058 0.0
H4341 H 0.40816 0.99003 0.12558 0.0
H4342 H 0.38933 0.9348 0.09978 0.0
H4343 H 0.36502 0.94334 0.07964 0.0
C4344 C 0.27765 0.96651 0.06938 0.0
C4345 C 0.27239 0.94803 0.06273 0.0
C4346 C 0.29549 0.97436 0.07331 0.0
C4347 C 0.30824 0.96397 0.06971 0.0
C4348 C 0.30303 0.94524 0.06449 0.0
C4349 C 0.28513 0.93727 0.06118 0.0
C4350 C 0.32647 0.97296 0.06859 0.0
C4351 C 0.34067 0.96833 0.07962 0.0
C4352 C 0.32974 0.98615 0.0564 0.0
C4353 C 0.31542 0.99058 0.04325 0.0
C4354 C 0.30456 0.97715 0.02918 0.0
C4355 C 0.29051 0.98123 0.01749 0.0
C4356 C 0.28732 0.99873 0.01962 0.0
C4357 C 0.29824 0.01221 0.03336 0.0
C4358 C 0.31229 0.00819 0.04511 0.0
C4359 C 0.40631 0.9964 0.05146 0.0
C4360 C 0.41101 0.01523 0.05349 0.0
C4361 C 0.39046 0.98827 0.05679 0.0
C4362 C 0.37913 0.99885 0.06432 0.0
C4363 C 0.3841 0.01766 0.06707 0.0
C4364 C 0.39996 0.0258 0.06176 0.0
C4365 C 0.36123 0.99035 0.06712 0.0
C4366 C 0.34701 0.99488 0.05609 0.0
C4367 C 0.35809 0.9769 0.07903 0.0
C4368 C 0.37268 0.97175 0.09113 0.0
C4369 C 0.38495 0.98485 0.10424 0.0
C4370 C 0.39873 0.97989 0.11553 0.0
C4371 C 0.40031 0.96187 0.11392 0.0
C4372 C 0.3881 0.94876 0.10101 0.0
C4373 C 0.37431 0.95364 0.08968 0.0
H4374 H 0.41097 0.95806 0.12268 0.0
H4375 H 0.2764 1.00186 0.01061 0.0
H4376 H 0.91272 0.67871 0.7976 0.0
H4377 H 0.89319 0.70012 0.79366 0.0
H4378 H 0.84787 0.6569 0.78623 0.0
H4379 H 0.86732 0.63539 0.78951 0.0
H4380 H 0.84231 0.67835 0.76132 0.0
H4381 H 0.86294 0.68816 0.83032 0.0
H4382 H 0.88537 0.69518 0.85948 0.0
H4383 H 0.90607 0.74606 0.84304 0.0
H4384 H 0.8839 0.73923 0.81366 0.0
H4385 H 0.77912 0.73549 0.7758 0.0
H4386 H 0.79749 0.71249 0.77571 0.0
H4387 H 0.84433 0.75431 0.7877 0.0
H4388 H 0.8261 0.77701 0.7888 0.0
H4389 H 0.84837 0.73271 0.81041 0.0
H4390 H 0.8289 0.72418 0.7419 0.0
H4391 H 0.80744 0.718 0.71199 0.0
H4392 H 0.78582 0.66631 0.72587 0.0
H4393 H 0.80698 0.6723 0.75604 0.0
C4394 C 0.8986 0.67377 0.79524 0.0
C4395 C 0.89163 0.65532 0.79412 0.0
C4396 C 0.8874 0.68606 0.79303 0.0
C4397 C 0.86895 0.68025 0.78998 0.0
C4398 C 0.862 0.66181 0.78864 0.0
C4399 C 0.87318 0.64951 0.79066 0.0
C4400 C 0.85688 0.69332 0.78823 0.0
C4401 C 0.84352 0.69015 0.77217 0.0
C4402 C 0.8586 0.70899 0.80206 0.0
C4403 C 0.87189 0.71309 0.81972 0.0
C4404 C 0.87236 0.70078 0.83287 0.0
C4405 C 0.88501 0.70474 0.84944 0.0
C4406 C 0.89716 0.72103 0.85308 0.0
C4407 C 0.89666 0.73343 0.84019 0.0
C4408 C 0.88406 0.72953 0.82359 0.0
C4409 C 0.79334 0.73966 0.77795 0.0
C4410 C 0.8012 0.758 0.78215 0.0
C4411 C 0.80387 0.72653 0.77792 0.0
C4412 C 0.82242 0.73156 0.78161 0.0
C4413 C 0.83013 0.74995 0.78495 0.0
C4414 C 0.81967 0.76296 0.78541 0.0
C4415 C 0.83396 0.718 0.78328 0.0
C4416 C 0.84716 0.72099 0.79944 0.0
C4417 C 0.83222 0.70235 0.76938 0.0
C4418 C 0.8194 0.69877 0.75133 0.0
C4419 C 0.81946 0.71156 0.73866 0.0
C4420 C 0.80737 0.70809 0.72165 0.0
C4421 C 0.79524 0.69179 0.71706 0.0
C4422 C 0.79519 0.67894 0.72947 0.0
C4423 C 0.80724 0.68236 0.74652 0.0
H4424 H 0.78591 0.68912 0.70386 0.0
H4425 H 0.90695 0.72406 0.86592 0.0
H4426 H 0.80865 0.59985 0.98113 0.0
H4427 H 0.83785 0.59853 0.99742 0.0
H4428 H 0.83368 0.64092 0.04278 0.0
H4429 H 0.80522 0.64325 0.02559 0.0
H4430 H 0.86691 0.64209 0.03981 0.0
H4431 H 0.81903 0.59702 0.04737 0.0
H4432 H 0.79201 0.57407 0.03583 0.0
H4433 H 0.82137 0.54171 0.00291 0.0
H4434 H 0.84853 0.56461 0.01402 0.0
H4435 H 0.93016 0.59811 0.09407 0.0
H4436 H 0.90357 0.61083 0.08718 0.0
H4437 H 0.89788 0.58685 0.02706 0.0
H4438 H 0.92403 0.57418 0.03377 0.0
H4439 H 0.8674 0.57863 0.04769 0.0
H4440 H 0.91264 0.63055 0.03548 0.0
H4441 H 0.93838 0.65493 0.04758 0.0
H4442 H 0.91251 0.67359 0.09486 0.0
H4443 H 0.88638 0.64953 0.08266 0.0
C4444 C 0.81439 0.6093 0.99413 0.0
C4445 C 0.80497 0.62155 1.00228 0.0
C4446 C 0.8309 0.6085 0.00351 0.0
C4447 C 0.8375 0.61918 0.02165 0.0
C4448 C 0.82871 0.63249 0.0289 0.0
C4449 C 0.81252 0.63376 0.01912 0.0
C4450 C 0.85218 0.61476 0.03401 0.0
C4451 C 0.8669 0.62828 0.04183 0.0
C4452 C 0.85185 0.59688 0.03736 0.0
C4453 C 0.8358 0.58255 0.03152 0.0
C4454 C 0.81973 0.58499 0.0377 0.0
C4455 C 0.80438 0.57201 0.0312 0.0
C4456 C 0.80498 0.55644 0.01864 0.0
C4457 C 0.82094 0.55377 0.01266 0.0
C4458 C 0.83633 0.56672 0.01909 0.0
C4459 C 0.9232 0.59574 0.07942 0.0
C4460 C 0.92902 0.5853 0.0644 0.0
C4461 C 0.90819 0.603 0.07553 0.0
C4462 C 0.89894 0.59961 0.05669 0.0
C4463 C 0.90496 0.58951 0.04169 0.0
C4464 C 0.91991 0.58242 0.0455 0.0
C4465 C 0.88242 0.6057 0.05217 0.0
C4466 C 0.86716 0.5925 0.04611 0.0
C4467 C 0.88209 0.62387 0.05102 0.0
C4468 C 0.89769 0.63826 0.05826 0.0
C4469 C 0.9125 0.63984 0.04847 0.0
C4470 C 0.92714 0.6536 0.05535 0.0
C4471 C 0.9272 0.66569 0.07212 0.0
C4472 C 0.91249 0.66418 0.08192 0.0
C4473 C 0.89772 0.65056 0.07497 0.0
H4474 H 0.93861 0.67628 0.07745 0.0
H4475 H 0.79306 0.54645 0.01355 0.0
H4476 H 0.16809 0.1164 0.82376 0.0
H4477 H 0.18375 0.14651 0.8224 0.0
H4478 H 0.22885 0.12533 0.80733 0.0
H4479 H 0.21305 0.09457 0.80908 0.0
H4480 H 0.24011 0.15817 0.83091 0.0
H4481 H 0.19747 0.13903 0.77251 0.0
H4482 H 0.1676 0.12712 0.75463 0.0
H4483 H 0.14856 0.1707 0.78479 0.0
H4484 H 0.17827 0.18275 0.803 0.0
H4485 H 0.27921 0.2435 0.80345 0.0
H4486 H 0.26776 0.21199 0.80655 0.0
H4487 H 0.21591 0.22393 0.80875 0.0
H4488 H 0.22713 0.2548 0.8046 0.0
H4489 H 0.20914 0.19441 0.79032 0.0
H4490 H 0.24821 0.21341 0.84987 0.0
H4491 H 0.27608 0.22562 0.8718 0.0
H4492 H 0.29977 0.18411 0.84463 0.0
H4493 H 0.2721 0.1718 0.82237 0.0
C4494 C 0.1814 0.11789 0.82024 0.0
C4495 C 0.18901 0.10251 0.81644 0.0
C4496 C 0.19042 0.13543 0.8193 0.0
C4497 C 0.20756 0.13874 0.81419 0.0
C4498 C 0.21563 0.12355 0.81115 0.0
C4499 C 0.20654 0.10577 0.81222 0.0
C4500 C 0.21648 0.15786 0.8117 0.0
C4501 C 0.2334 0.16593 0.82174 0.0
C4502 C 0.20783 0.16878 0.80041 0.0
C4503 C 0.19007 0.16174 0.78916 0.0
C4504 C 0.1869 0.14604 0.77535 0.0
C4505 C 0.17 0.13926 0.76517 0.0
C4506 C 0.15619 0.14814 0.76859 0.0
C4507 C 0.15927 0.16384 0.78215 0.0
C4508 C 0.17614 0.17067 0.79238 0.0
C4509 C 0.26539 0.23944 0.80471 0.0
C4510 C 0.25423 0.25206 0.8037 0.0
C4511 C 0.25873 0.22121 0.80665 0.0
C4512 C 0.24069 0.21487 0.80815 0.0
C4513 C 0.22976 0.22774 0.80748 0.0
C4514 C 0.23631 0.24573 0.8052 0.0
C4515 C 0.23286 0.19508 0.80975 0.0
C4516 C 0.21604 0.1868 0.79949 0.0
C4517 C 0.24142 0.18421 0.82129 0.0
C4518 C 0.25817 0.19183 0.83431 0.0
C4519 C 0.25942 0.207 0.84845 0.0
C4520 C 0.27517 0.21391 0.86097 0.0
C4521 C 0.2897 0.20568 0.85958 0.0
C4522 C 0.28852 0.19051 0.84567 0.0
C4523 C 0.27281 0.18356 0.8331 0.0
H4524 H 0.30187 0.21102 0.86931 0.0
H4525 H 0.14311 0.14286 0.76071 0.0
H4526 H 0.37728 0.06584 0.28826 0.0
H4527 H 0.35606 0.03794 0.28757 0.0
H4528 H 0.39665 0.00733 0.27839 0.0
H4529 H 0.41776 0.03499 0.27848 0.0
H4530 H 0.36641 0.99056 0.25712 0.0
H4531 H 0.38536 0.01759 0.32401 0.0
H4532 H 0.39056 0.04213 0.35183 0.0
H4533 H 0.33535 0.04365 0.34494 0.0
H4534 H 0.32988 0.01922 0.31696 0.0
H4535 H 0.33314 0.91129 0.29488 0.0
H4536 H 0.34991 0.9389 0.28694 0.0
H4537 H 0.30627 0.96541 0.29522 0.0
H4538 H 0.2897 0.93811 0.30395 0.0
H4539 H 0.33629 0.98468 0.31515 0.0
H4540 H 0.31746 0.95458 0.24962 0.0
H4541 H 0.31335 0.93008 0.22192 0.0
H4542 H 0.36938 0.93365 0.22674 0.0
H4543 H 0.37382 0.95803 0.2546 0.0
C4544 C 0.38164 0.05316 0.28592 0.0
C4545 C 0.39925 0.05265 0.2836 0.0
C4546 C 0.36952 0.03724 0.28557 0.0
C4547 C 0.37487 0.0206 0.28324 0.0
C4548 C 0.39225 0.02003 0.28022 0.0
C4549 C 0.40432 0.03589 0.28036 0.0
C4550 C 0.36266 1.00384 0.2849 0.0
C4551 C 0.3599 0.9892 0.26985 0.0
C4552 C 0.35399 1.00219 0.30138 0.0
C4553 C 0.35724 0.01672 0.31832 0.0
C4554 C 0.37436 0.02323 0.32838 0.0
C4555 C 0.37735 0.03711 0.34418 0.0
C4556 C 0.3633 0.04448 0.35012 0.0
C4557 C 0.34623 0.03794 0.34031 0.0
C4558 C 0.34317 0.02407 0.32451 0.0
C4559 C 0.32711 0.923 0.29501 0.0
C4560 C 0.31014 0.92255 0.30022 0.0
C4561 C 0.33662 0.93869 0.29021 0.0
C4562 C 0.32926 0.95415 0.29033 0.0
C4563 C 0.31215 0.95359 0.29497 0.0
C4564 C 0.30266 0.93794 0.29984 0.0
C4565 C 0.33998 0.97132 0.28735 0.0
C4566 C 0.34258 0.98605 0.30227 0.0
C4567 C 0.34863 0.97293 0.27084 0.0
C4568 C 0.34595 0.95805 0.25429 0.0
C4569 C 0.32889 0.95003 0.24489 0.0
C4570 C 0.32651 0.93618 0.22913 0.0
C4571 C 0.34109 0.93029 0.2226 0.0
C4572 C 0.3581 0.93822 0.23181 0.0
C4573 C 0.36055 0.95207 0.24757 0.0
H4574 H 0.33922 0.91959 0.21038 0.0
H4575 H 0.36564 0.05523 0.36234 0.0
H4576 H 0.50346 0.3463 0.68059 0.0
H4577 H 0.50453 0.36828 0.658 0.0
H4578 H 0.54659 0.34765 0.63362 0.0
H4579 H 0.54504 0.32508 0.65556 0.0
H4580 H 0.5486 0.39042 0.64734 0.0
H4581 H 0.51947 0.33645 0.60482 0.0
H4582 H 0.49785 0.30803 0.59486 0.0
H4583 H 0.45541 0.33659 0.59916 0.0
H4584 H 0.47683 0.36517 0.6096 0.0
H4585 H 0.54341 0.44453 0.57133 0.0
H4586 H 0.54786 0.41977 0.58896 0.0
H4587 H 0.49435 0.41371 0.60155 0.0
H4588 H 0.48956 0.43771 0.58322 0.0
H4589 H 0.50162 0.3821 0.59102 0.0
H4590 H 0.5319 0.43636 0.63502 0.0
H4591 H 0.55422 0.46433 0.64501 0.0
H4592 H 0.59552 0.43484 0.63697 0.0
H4593 H 0.57342 0.40673 0.62668 0.0
C4594 C 0.51294 0.3465 0.67043 0.0
C4595 C 0.52413 0.33402 0.66974 0.0
C4596 C 0.51352 0.35899 0.65756 0.0
C4597 C 0.5256 0.35946 0.64418 0.0
C4598 C 0.53715 0.34738 0.64382 0.0
C4599 C 0.53621 0.33452 0.6563 0.0
C4600 C 0.52589 0.37256 0.63049 0.0
C4601 C 0.53854 0.38855 0.63481 0.0
C4602 C 0.5127 0.37003 0.61428 0.0
C4603 C 0.49975 0.35289 0.60836 0.0
C4604 C 0.50553 0.33664 0.60399 0.0
C4605 C 0.49332 0.32051 0.59817 0.0
C4606 C 0.47527 0.32049 0.59648 0.0
C4607 C 0.4694 0.33662 0.60056 0.0
C4608 C 0.48157 0.35278 0.60645 0.0
C4609 C 0.53253 0.43777 0.57766 0.0
C4610 C 0.51614 0.44318 0.57594 0.0
C4611 C 0.53516 0.42375 0.58792 0.0
C4612 C 0.52151 0.41503 0.59682 0.0
C4613 C 0.50511 0.42027 0.59488 0.0
C4614 C 0.50244 0.43414 0.58455 0.0
C4615 C 0.52403 0.40039 0.60814 0.0
C4616 C 0.51186 0.38401 0.60339 0.0
C4617 C 0.53778 0.40256 0.62386 0.0
C4618 C 0.551 0.41949 0.62986 0.0
C4619 C 0.54573 0.43587 0.63521 0.0
C4620 C 0.55834 0.45174 0.64096 0.0
C4621 C 0.57627 0.45137 0.64157 0.0
C4622 C 0.58163 0.43512 0.63645 0.0
C4623 C 0.56907 0.41922 0.63067 0.0
H4624 H 0.58601 0.46367 0.64604 0.0
H4625 H 0.46582 0.30799 0.59192 0.0
H4626 H 0.4745 0.82933 0.38908 0.0
H4627 H 0.44292 0.82802 0.38031 0.0
H4628 H 0.44303 0.79135 0.32803 0.0
H4629 H 0.47487 0.7942 0.33597 0.0
H4630 H 0.42342 0.81 0.31773 0.0
H4631 H 0.42349 0.78165 0.37538 0.0
H4632 H 0.43156 0.7793 0.40984 0.0
H4633 H 0.41067 0.82628 0.42712 0.0
H4634 H 0.40268 0.82904 0.39277 0.0
H4635 H 0.32767 0.79096 0.29626 0.0
H4636 H 0.35816 0.78679 0.30565 0.0
H4637 H 0.36634 0.8322 0.35135 0.0
H4638 H 0.3366 0.8364 0.34214 0.0
H4639 H 0.38054 0.80656 0.36467 0.0
H4640 H 0.38207 0.83545 0.30763 0.0
H4641 H 0.37372 0.83806 0.27331 0.0
H4642 H 0.39129 0.78917 0.25534 0.0
H4643 H 0.3995 0.78615 0.28958 0.0
C4644 C 0.46772 0.82089 0.37579 0.0
C4645 C 0.47728 0.81183 0.36327 0.0
C4646 C 0.44947 0.81995 0.37079 0.0
C4647 C 0.43999 0.80921 0.35356 0.0
C4648 C 0.44964 0.79985 0.34135 0.0
C4649 C 0.46797 0.80136 0.34597 0.0
C4650 C 0.42038 0.80826 0.34764 0.0
C4651 C 0.41412 0.80879 0.32809 0.0
C4652 C 0.40781 0.80726 0.36088 0.0
C4653 C 0.41264 0.80563 0.38152 0.0
C4654 C 0.42072 0.79153 0.38654 0.0
C4655 C 0.42526 0.79013 0.40605 0.0
C4656 C 0.42167 0.80266 0.42066 0.0
C4657 C 0.41347 0.8166 0.41579 0.0
C4658 C 0.40892 0.81808 0.39631 0.0
C4659 C 0.33598 0.79993 0.30835 0.0
C4660 C 0.3296 0.81413 0.31826 0.0
C4661 C 0.35347 0.79762 0.31371 0.0
C4662 C 0.36481 0.80928 0.32924 0.0
C4663 C 0.3581 0.82297 0.33939 0.0
C4664 C 0.34095 0.82541 0.33394 0.0
C4665 C 0.38382 0.80799 0.33489 0.0
C4666 C 0.38993 0.8073 0.35438 0.0
C4667 C 0.39623 0.80873 0.32164 0.0
C4668 C 0.39118 0.81046 0.30112 0.0
C4669 C 0.38399 0.82518 0.29635 0.0
C4670 C 0.37931 0.82674 0.27692 0.0
C4671 C 0.38192 0.81376 0.26215 0.0
C4672 C 0.38923 0.79919 0.26679 0.0
C4673 C 0.3939 0.79754 0.28619 0.0
H4674 H 0.37832 0.81501 0.24712 0.0
H4675 H 0.4252 0.80154 0.43575 0.0
H4676 H 0.02234 0.71519 0.19819 0.0
H4677 H 0.02465 0.69018 0.174 0.0
H4678 H 0.01333 0.7207 0.12829 0.0
H4679 H 0.01087 0.746 0.15256 0.0
H4680 H 0.99579 0.68454 0.11974 0.0
H4681 H 0.0551 0.71773 0.14148 0.0
H4682 H 0.08177 0.73238 0.16442 0.0
H4683 H 0.08355 0.68271 0.18607 0.0
H4684 H 0.05678 0.66784 0.1635 0.0
H4685 H 0.02901 0.62072 0.05384 0.0
H4686 H 0.02698 0.64998 0.07196 0.0
H4687 H 0.02739 0.62704 0.1249 0.0
H4688 H 0.02892 0.5979 0.10694 0.0
H4689 H 0.05177 0.66193 0.12562 0.0
H4690 H 0.98982 0.63142 0.11117 0.0
H4691 H 0.96461 0.61391 0.08775 0.0
H4692 H 0.96939 0.65587 0.05249 0.0
H4693 H 0.99438 0.67373 0.07594 0.0
C4694 C 0.02016 0.71661 0.18301 0.0
C4695 C 0.0165 0.73267 0.17735 0.0
C4696 C 0.02158 0.7023 0.16919 0.0
C4697 C 0.01945 0.70372 0.14939 0.0
C4698 C 0.01511 0.71941 0.14354 0.0
C4699 C 0.01372 0.73383 0.15742 0.0
C4700 C 0.02225 0.68887 0.13505 0.0
C4701 C 1.00816 0.67987 0.12078 0.0
C4702 C 0.03827 0.68251 0.13661 0.0
C4703 C 0.05388 0.6917 0.15084 0.0
C4704 C 0.06106 0.70999 0.1513 0.0
C4705 C 0.07623 0.71832 0.1642 0.0
C4706 C 0.08436 0.70845 0.17664 0.0
C4707 C 0.07725 0.69031 0.17639 0.0
C4708 C 0.06209 0.68194 0.16355 0.0
C4709 C 0.02883 0.62208 0.06937 0.0
C4710 C 0.02908 0.60722 0.07909 0.0
C4711 C 0.02759 0.63866 0.07962 0.0
C4712 C 0.02702 0.6405 0.09967 0.0
C4713 C 0.02782 0.62578 0.10941 0.0
C4714 C 0.02864 0.6092 0.09916 0.0
C4715 C 0.02535 0.65765 0.11074 0.0
C4716 C 0.03959 0.66696 0.1244 0.0
C4717 C 0.00948 0.66411 0.10881 0.0
C4718 C 0.99389 0.6539 0.09527 0.0
C4719 C 0.98537 0.63694 0.09848 0.0
C4720 C 0.97109 0.62697 0.08523 0.0
C4721 C 0.96528 0.6338 0.06869 0.0
C4722 C 0.97372 0.65066 0.06542 0.0
C4723 C 0.98788 0.66076 0.07872 0.0
H4724 H 0.95429 0.62602 0.05839 0.0
H4725 H 0.09625 0.71477 0.18641 0.0
H4726 H 0.10262 0.3451 0.88678 0.0
H4727 H 0.13166 0.34451 0.87634 0.0
H4728 H 0.1118 0.29127 0.84455 0.0
H4729 H 0.08247 0.29216 0.85416 0.0
H4730 H 0.1499 0.30329 0.87635 0.0
H4731 H 0.1152 0.3131 0.81664 0.0
H4732 H 0.09644 0.33046 0.7994 0.0
H4733 H 0.13647 0.37826 0.81675 0.0
H4734 H 0.15528 0.36123 0.8345 0.0
H4735 H 0.22433 0.28826 0.83153 0.0
H4736 H 0.19519 0.28869 0.84098 0.0
H4737 H 0.19886 0.34289 0.82841 0.0
H4738 H 0.22715 0.34145 0.81682 0.0
H4739 H 0.16839 0.33123 0.82027 0.0
H4740 H 0.20334 0.32653 0.87885 0.0
H4741 H 0.22374 0.31421 0.90052 0.0
H4742 H 0.1868 0.26397 0.89191 0.0
H4743 H 0.1663 0.27591 0.86997 0.0
C4744 C 0.10438 0.33329 0.87746 0.0
C4745 C 0.09007 0.31872 0.87124 0.0
C4746 C 0.12105 0.33297 0.87151 0.0
C4747 C 0.12409 0.31784 0.85962 0.0
C4748 C 0.1099 0.30315 0.85365 0.0
C4749 C 0.09306 0.3037 0.85909 0.0
C4750 C 0.142 0.31741 0.85345 0.0
C4751 C 0.1539 0.30919 0.86393 0.0
C4752 C 0.14775 0.32587 0.83791 0.0
C4753 C 0.13649 0.33596 0.82711 0.0
C4754 C 0.11988 0.32736 0.81699 0.0
C4755 C 0.10927 0.33713 0.80709 0.0
C4756 C 0.11523 0.35547 0.80704 0.0
C4757 C 0.13184 0.36406 0.81685 0.0
C4758 C 0.14247 0.35437 0.82684 0.0
C4759 C 0.21892 0.3003 0.83087 0.0
C4760 C 0.22824 0.31493 0.82365 0.0
C4761 C 0.20219 0.30067 0.83656 0.0
C4762 C 0.19456 0.31609 0.83629 0.0
C4763 C 0.20404 0.33073 0.829 0.0
C4764 C 0.22042 0.33002 0.82247 0.0
C4765 C 0.17668 0.31681 0.84301 0.0
C4766 C 0.16469 0.32523 0.83272 0.0
C4767 C 0.17117 0.30919 0.85932 0.0
C4768 C 0.18337 0.30205 0.87265 0.0
C4769 C 0.19961 0.31283 0.88152 0.0
C4770 C 0.21119 0.30592 0.89384 0.0
C4771 C 0.20658 0.28831 0.89755 0.0
C4772 C 0.19036 0.2776 0.889 0.0
C4773 C 0.17876 0.28443 0.87663 0.0
H4774 H 0.21557 0.28297 0.90708 0.0
H4775 H 0.107 0.36301 0.79935 0.0
H4776 H 0.56971 0.77891 0.98665 0.0
H4777 H 0.55497 0.74832 0.98866 0.0
H4778 H 0.50603 0.76644 0.99335 0.0
H4779 H 0.52057 0.79707 0.99107 0.0
H4780 H 0.51911 0.74611 0.02289 0.0
H4781 H 0.50547 0.74299 0.95384 0.0
H4782 H 0.51302 0.74764 0.92149 0.0
H4783 H 0.5498 0.7122 0.9257 0.0
H4784 H 0.54261 0.70752 0.9582 0.0
H4785 H 0.48058 0.65976 0.03126 0.0
H4786 H 0.48246 0.68652 0.01561 0.0
H4787 H 0.53141 0.67767 0.99659 0.0
H4788 H 0.52922 0.6504 0.01144 0.0
H4789 H 0.51298 0.69364 0.97104 0.0
H4790 H 0.53356 0.7016 0.03929 0.0
H4791 H 0.53224 0.69915 0.07378 0.0
H4792 H 0.48902 0.72703 0.07332 0.0
H4793 H 0.48997 0.72943 0.03872 0.0
C4794 C 0.55585 0.77638 0.98825 0.0
C4795 C 0.54625 0.79023 0.98885 0.0
C4796 C 0.54745 0.75896 0.98912 0.0
C4797 C 0.52946 0.75534 0.99076 0.0
C4798 C 0.5199 0.76916 0.9918 0.0
C4799 C 0.52823 0.78655 0.99065 0.0
C4800 C 0.52109 0.73726 0.99301 0.0
C4801 C 0.51719 0.73464 0.01144 0.0
C4802 C 0.51944 0.7225 0.97814 0.0
C4803 C 0.52354 0.72497 0.95847 0.0
C4804 C 0.51523 0.73626 0.9479 0.0
C4805 C 0.51943 0.73889 0.92953 0.0
C4806 C 0.5319 0.73024 0.92155 0.0
C4807 C 0.54014 0.71889 0.9319 0.0
C4808 C 0.53597 0.71621 0.95027 0.0
C4809 C 0.49136 0.66311 0.02308 0.0
C4810 C 0.50495 0.6533 0.02284 0.0
C4811 C 0.49243 0.67839 0.01424 0.0
C4812 C 0.50721 0.6841 0.00535 0.0
C4813 C 0.51993 0.6734 0.00347 0.0
C4814 C 0.51879 0.65802 0.01216 0.0
C4815 C 0.51095 0.70246 1.001 0.0
C4816 C 0.51421 0.70514 0.98229 0.0
C4817 C 0.51263 0.71735 0.01581 0.0
C4818 C 0.51162 0.71539 0.03638 0.0
C4819 C 0.52362 0.70698 0.04649 0.0
C4820 C 0.52299 0.70566 0.06607 0.0
C4821 C 0.5105 0.71285 0.07572 0.0
C4822 C 0.49863 0.72139 0.06581 0.0
C4823 C 0.4992 0.72272 0.04622 0.0
H4824 H 0.51006 0.71187 0.09089 0.0
H4825 H 0.53516 0.73231 0.90734 0.0
H4826 H 0.03598 0.79889 0.69099 0.0
H4827 H 0.06298 0.79695 0.71084 0.0
H4828 H 0.08326 0.77559 0.65995 0.0
H4829 H 0.05582 0.77707 0.63968 0.0
H4830 H 0.08852 0.75859 0.69685 0.0
H4831 H 0.09947 0.81479 0.67199 0.0
H4832 H 0.08957 0.84181 0.6629 0.0
H4833 H 0.08316 0.85852 0.72207 0.0
H4834 H 0.09281 0.83143 0.73142 0.0
H4835 H 0.17765 0.7831 0.73995 0.0
H4836 H 0.15061 0.78113 0.71778 0.0
H4837 H 0.12593 0.80219 0.76542 0.0
H4838 H 0.15315 0.8039 0.78792 0.0
H4839 H 0.12347 0.8183 0.72865 0.0
H4840 H 0.11429 0.76238 0.75365 0.0
H4841 H 0.1232 0.73477 0.76221 0.0
H4842 H 0.12602 0.71673 0.70231 0.0
H4843 H 0.11756 0.74447 0.69344 0.0
C4844 C 0.04615 0.7938 0.68394 0.0
C4845 C 0.04396 0.78834 0.6638 0.0
C4846 C 0.06143 0.79253 0.69531 0.0
C4847 C 0.07485 0.78613 0.68669 0.0
C4848 C 0.0728 0.78044 0.66666 0.0
C4849 C 0.05735 0.78158 0.65517 0.0
C4850 C 0.09162 0.78733 0.69876 0.0
C4851 C 0.09644 0.77156 0.70355 0.0
C4852 C 0.10147 0.80432 0.70764 0.0
C4853 C 0.09682 0.82115 0.70237 0.0
C4854 C 0.09597 0.82426 0.68304 0.0
C4855 C 0.09037 0.83955 0.67784 0.0
C4856 C 0.08573 0.85187 0.6919 0.0
C4857 C 0.08679 0.84898 0.71121 0.0
C4858 C 0.09236 0.83369 0.71648 0.0
C4859 C 0.16647 0.78747 0.74559 0.0
C4860 C 0.16719 0.79376 0.7654 0.0
C4861 C 0.15114 0.78624 0.73303 0.0
C4862 C 0.13651 0.79138 0.74021 0.0
C4863 C 0.13728 0.79814 0.7599 0.0
C4864 C 0.15263 0.79912 0.77261 0.0
C4865 C 0.1204 0.78956 0.72686 0.0
C4866 C 0.11571 0.80528 0.72184 0.0
C4867 C 0.11084 0.77249 0.71769 0.0
C4868 C 0.1155 0.7556 0.72292 0.0
C4869 C 0.11699 0.75261 0.74232 0.0
C4870 C 0.12194 0.73693 0.74723 0.0
C4871 C 0.12524 0.72403 0.73282 0.0
C4872 C 0.12351 0.72675 0.71346 0.0
C4873 C 0.11863 0.74246 0.70849 0.0
H4874 H 0.12908 0.71189 0.73665 0.0
H4875 H 0.08131 0.86366 0.68783 0.0
H4876 H 0.04994 0.37871 0.49341 0.0
H4877 H 0.03835 0.40626 0.49728 0.0
H4878 H 0.08866 0.43688 0.48969 0.0
H4879 H 0.10031 0.4091 0.48529 0.0
H4880 H 0.07738 0.44032 0.52796 0.0
H4881 H 0.05745 0.44398 0.4622 0.0
H4882 H 0.04228 0.43311 0.42886 0.0
H4883 H 0.99271 0.42142 0.45035 0.0
H4884 H 1.00759 0.43195 0.48387 0.0
H4885 H 0.04701 0.51871 0.56108 0.0
H4886 H 0.06067 0.49402 0.54968 0.0
H4887 H 0.00897 0.46027 0.53151 0.0
H4888 H 0.99559 0.48611 0.54033 0.0
H4889 H 0.02454 0.46224 0.50239 0.0
H4890 H 0.04274 0.45192 0.56699 0.0
H4891 H 0.05617 0.46065 0.60125 0.0
H4892 H 0.10611 0.48043 0.58361 0.0
H4893 H 0.09292 0.47205 0.54923 0.0
C4894 C 0.05843 0.39128 0.49225 0.0
C4895 C 0.07619 0.39216 0.48991 0.0
C4896 C 0.05169 0.40686 0.49395 0.0
C4897 C 0.06276 0.42335 0.49367 0.0
C4898 C 0.08003 0.42408 0.48968 0.0
C4899 C 0.0867 0.4084 0.48758 0.0
C4900 C 0.05789 0.43934 0.50318 0.0
C4901 C 0.06609 0.44556 0.5223 0.0
C4902 C 0.04274 0.44522 0.49579 0.0
C4903 C 0.0337 0.43873 0.47561 0.0
C4904 C 0.04334 0.43895 0.45986 0.0
C4905 C 0.03478 0.43287 0.44091 0.0
C4906 C 0.01655 0.42657 0.43749 0.0
C4907 C 1.00683 0.42632 0.45302 0.0
C4908 C 0.01533 0.43238 0.472 0.0
C4909 C 0.03874 0.50591 0.55513 0.0
C4910 C 0.02058 0.50428 0.55063 0.0
C4911 C 0.04646 0.49167 0.54886 0.0
C4912 C 0.03576 0.47541 0.53945 0.0
C4913 C 0.01738 0.47291 0.53836 0.0
C4914 C 0.00976 0.48752 0.54355 0.0
C4915 C 0.04342 0.46251 0.52764 0.0
C4916 C 0.03587 0.45712 0.5081 0.0
C4917 C 0.05876 0.45677 0.53485 0.0
C4918 C 0.06682 0.46143 0.55553 0.0
C4919 C 0.05657 0.45819 0.57041 0.0
C4920 C 0.06414 0.46308 0.58985 0.0
C4921 C 0.08198 0.4711 0.5946 0.0
C4922 C 0.0923 0.47421 0.57991 0.0
C4923 C 0.08479 0.46936 0.56045 0.0
H4924 H 0.08781 0.47489 0.60966 0.0
H4925 H 0.00995 0.42189 0.4228 0.0
H4926 H 0.45813 0.28973 0.18141 0.0
H4927 H 0.43875 0.29506 0.20543 0.0
H4928 H 0.41992 0.23787 0.20101 0.0
H4929 H 0.44049 0.23235 0.17774 0.0
H4930 H 0.39809 0.27656 0.20225 0.0
H4931 H 0.43581 0.23888 0.23329 0.0
H4932 H 0.46532 0.23146 0.23874 0.0
H4933 H 0.48718 0.28618 0.26443 0.0
H4934 H 0.45785 0.29406 0.25839 0.0
H4935 H 0.35509 0.28333 0.28239 0.0
H4936 H 0.37211 0.27072 0.25914 0.0
H4937 H 0.41563 0.31534 0.27918 0.0
H4938 H 0.3985 0.32793 0.30308 0.0
H4939 H 0.42532 0.28039 0.2706 0.0
H4940 H 0.39384 0.31991 0.24281 0.0
H4941 H 0.36963 0.33484 0.23247 0.0
H4942 H 0.34128 0.28531 0.19807 0.0
H4943 H 0.36516 0.26996 0.20862 0.0
C4944 C 0.44941 0.27832 0.18508 0.0
C4945 C 0.45049 0.26066 0.1779 0.0
C4946 C 0.43859 0.28138 0.19888 0.0
C4947 C 0.42849 0.26678 0.20509 0.0
C4948 C 0.42813 0.24913 0.19651 0.0
C4949 C 0.43954 0.24602 0.18316 0.0
C4950 C 0.41906 0.27051 0.22128 0.0
C4951 C 0.40356 0.27677 0.21724 0.0
C4952 C 0.4273 0.272 0.24057 0.0
C4953 C 0.44471 0.2671 0.24506 0.0
C4954 C 0.44695 0.24937 0.23984 0.0
C4955 C 0.46364 0.24508 0.24305 0.0
C4956 C 0.47814 0.25836 0.25184 0.0
C4957 C 0.47595 0.27593 0.25754 0.0
C4958 C 0.4593 0.28032 0.25418 0.0
C4959 C 0.36847 0.29011 0.28233 0.0
C4960 C 0.37562 0.30637 0.29468 0.0
C4961 C 0.3781 0.28301 0.26896 0.0
C4962 C 0.39498 0.2922 0.26758 0.0
C4963 C 0.40257 0.30812 0.28029 0.0
C4964 C 0.39282 0.31531 0.29374 0.0
C4965 C 0.40378 0.2858 0.25156 0.0
C4966 C 0.41936 0.27946 0.25566 0.0
C4967 C 0.39603 0.28489 0.23216 0.0
C4968 C 0.38109 0.29369 0.22688 0.0
C4969 C 0.38226 0.31209 0.23342 0.0
C4970 C 0.36864 0.32066 0.22743 0.0
C4971 C 0.35387 0.311 0.21472 0.0
C4972 C 0.35267 0.29274 0.20802 0.0
C4973 C 0.36622 0.28409 0.21404 0.0
H4974 H 0.34339 0.31769 0.21 0.0
H4975 H 0.49106 0.25502 0.25431 0.0
H4976 H 0.59843 0.53587 0.35256 0.0
H4977 H 0.5836 0.53498 0.38116 0.0
H4978 H 0.63357 0.54046 0.41706 0.0
H4979 H 0.64859 0.54061 0.38786 0.0
H4980 H 0.60916 0.51996 0.43256 0.0
H4981 H 0.61068 0.57746 0.4117 0.0
H4982 H 0.60598 0.59807 0.38826 0.0
H4983 H 0.55044 0.57586 0.37865 0.0
H4984 H 0.55486 0.55496 0.40185 0.0
H4985 H 0.57869 0.55396 0.52022 0.0
H4986 H 0.59298 0.5473 0.49165 0.0
H4987 H 0.54355 0.54237 0.45484 0.0
H4988 H 0.52928 0.54942 0.48373 0.0
H4989 H 0.56777 0.56187 0.44001 0.0
H4990 H 0.5657 0.50528 0.46182 0.0
H4991 H 0.57004 0.48465 0.48532 0.0
H4992 H 0.62593 0.50477 0.49341 0.0
H4993 H 0.62189 0.52574 0.47017 0.0
C4994 C 0.60638 0.53664 0.36647 0.0
C4995 C 0.62485 0.53839 0.36765 0.0
C4996 C 0.59779 0.53633 0.38303 0.0
C4997 C 0.60729 0.5383 0.40175 0.0
C4998 C 0.62572 0.53912 0.40299 0.0
C4999 C 0.63438 0.53913 0.38619 0.0
C5000 C 0.5979 0.5401 0.41969 0.0
C5001 C 0.60032 0.52934 0.43424 0.0
C5002 C 0.58584 0.55192 0.42212 0.0
C5003 C 0.58313 0.56458 0.40837 0.0
C5004 C 0.59749 0.57693 0.40451 0.0
C5005 C 0.59487 0.58866 0.39127 0.0
C5006 C 0.57793 0.58825 0.38194 0.0
C5007 C 0.56355 0.57615 0.38587 0.0
C5008 C 0.56611 0.56438 0.39907 0.0
C5009 C 0.57068 0.55084 0.50608 0.0
C5010 C 0.55264 0.55173 0.50447 0.0
C5011 C 0.57894 0.54705 0.48959 0.0
C5012 C 0.56952 0.54404 0.47069 0.0
C5013 C 0.55132 0.5445 0.46906 0.0
C5014 C 0.54301 0.54826 0.48567 0.0
C5015 C 0.57891 0.54169 0.45286 0.0
C5016 C 0.57654 0.55242 0.43834 0.0
C5017 C 0.59096 0.52984 0.45051 0.0
C5018 C 0.59347 0.51718 0.46438 0.0
C5019 C 0.5789 0.50539 0.46871 0.0
C5020 C 0.58131 0.49363 0.48198 0.0
C5021 C 0.59825 0.49342 0.49089 0.0
C5022 C 0.61282 0.50496 0.48651 0.0
C5023 C 0.61047 0.51678 0.47328 0.0
H5024 H 0.6001 0.4843 0.50115 0.0
H5025 H 0.57593 0.59734 0.37168 0.0
H5026 H 0.22511 0.9056 0.13193 0.0
H5027 H 0.23488 0.89297 0.16056 0.0
H5028 H 0.24428 0.84699 0.12346 0.0
H5029 H 0.23315 0.85895 0.09494 0.0
H5030 H 0.23185 0.83531 0.15108 0.0
H5031 H 0.27811 0.88794 0.15092 0.0
H5032 H 0.29076 0.92019 0.15274 0.0
H5033 H 0.27193 0.93181 0.20723 0.0
H5034 H 0.25894 0.89972 0.20558 0.0
H5035 H 0.27917 0.8025 0.2279 0.0
H5036 H 0.27158 0.81436 0.19784 0.0
H5037 H 0.26044 0.8614 0.23148 0.0
H5038 H 0.26892 0.8504 0.26104 0.0
H5039 H 0.2753 0.8721 0.20494 0.0
H5040 H 0.22752 0.82266 0.20584 0.0
H5041 H 0.21398 0.79109 0.2066 0.0
H5042 H 0.23338 0.77454 0.15364 0.0
H5043 H 0.24723 0.80601 0.15273 0.0
C5044 C 0.22914 0.89272 0.12993 0.0
C5045 C 0.22835 0.88325 0.11118 0.0
C5046 C 0.23499 0.88559 0.14634 0.0
C5047 C 0.24093 0.8692 0.14437 0.0
C5048 C 0.23989 0.85967 0.12556 0.0
C5049 C 0.2335 0.86651 0.1092 0.0
C5050 C 0.24778 0.86164 0.16171 0.0
C5051 C 0.24157 0.84337 0.16268 0.0
C5052 C 0.26001 0.87211 0.17741 0.0
C5053 C 0.26739 0.89146 0.17799 0.0
C5054 C 0.27651 0.89741 0.16317 0.0
C5055 C 0.28377 0.91566 0.1642 0.0
C5056 C 0.2821 0.92805 0.18005 0.0
C5057 C 0.27317 0.92222 0.19492 0.0
C5058 C 0.26585 0.90402 0.19394 0.0
C5059 C 0.27538 0.81549 0.22883 0.0
C5060 C 0.27475 0.82543 0.24699 0.0
C5061 C 0.27082 0.82219 0.21162 0.0
C5062 C 0.2651 0.83871 0.21225 0.0
C5063 C 0.26483 0.84869 0.23041 0.0
C5064 C 0.2697 0.84226 0.24745 0.0
C5065 C 0.25926 0.8459 0.1943 0.0
C5066 C 0.26566 0.86405 0.19324 0.0
C5067 C 0.24689 0.83548 0.1788 0.0
C5068 C 0.23857 0.81662 0.17934 0.0
C5069 C 0.22899 0.81226 0.19444 0.0
C5070 C 0.22126 0.7944 0.19489 0.0
C5071 C 0.22287 0.78081 0.18021 0.0
C5072 C 0.23218 0.78507 0.16502 0.0
C5073 C 0.23997 0.80291 0.16453 0.0
H5074 H 0.21687 0.76698 0.18058 0.0
H5075 H 0.28778 0.94215 0.18084 0.0
H5076 H 0.98871 0.60311 0.84815 0.0
H5077 H 0.99882 0.59689 0.8802 0.0
H5078 H 0.94746 0.5986 0.89682 0.0
H5079 H 0.9373 0.60533 0.86456 0.0
H5080 H 0.97234 0.61335 0.92675 0.0
H5081 H 0.9611 0.55797 0.88195 0.0
H5082 H 0.96391 0.5379 0.85245 0.0
H5083 H 0.01966 0.54525 0.87039 0.0
H5084 H 0.01723 0.56557 0.89986 0.0
H5085 H 0.97684 0.55659 1.00024 0.0
H5086 H 0.96954 0.56708 0.96934 0.0
H5087 H 0.02487 0.58277 0.96553 0.0
H5088 H 0.03226 0.57297 0.99707 0.0
H5089 H 0.99922 0.55945 0.92955 0.0
H5090 H 0.01075 0.61473 0.97388 0.0
H5091 H 1.00813 0.63396 0.00402 0.0
H5092 H 0.9522 0.62623 0.98708 0.0
H5093 H 0.95446 0.60662 0.95698 0.0
C5094 C 0.97957 0.60245 0.85868 0.0
C5095 C 0.96213 0.60468 0.85369 0.0
C5096 C 0.98536 0.59871 0.87702 0.0
C5097 C 0.97381 0.59673 0.89089 0.0
C5098 C 0.95663 0.59989 0.88637 0.0
C5099 C 0.95084 0.60385 0.86795 0.0
C5100 C 0.97967 0.59099 0.9098 0.0
C5101 C 0.97802 0.60145 0.92726 0.0
C5102 C 0.98754 0.57567 0.91072 0.0
C5103 C 0.989 0.56342 0.89302 0.0
C5104 C 0.97398 0.55541 0.87953 0.0
C5105 C 0.9755 0.54397 0.86283 0.0
C5106 C 0.99196 0.54034 0.85953 0.0
C5107 C 1.00693 0.5481 0.87295 0.0
C5108 C 1.00548 0.55956 0.88966 0.0
C5109 C 0.98745 0.56238 0.99287 0.0
C5110 C 1.0051 0.56405 1.00106 0.0
C5111 C 0.98326 0.56833 0.97521 0.0
C5112 C 0.99663 0.57564 0.96508 0.0
C5113 C 0.01434 0.57715 0.9731 0.0
C5114 C 0.01854 0.57167 0.99113 0.0
C5115 C 0.99187 0.58185 0.94626 0.0
C5116 C 0.99363 0.5714 0.9289 0.0
C5117 C 0.98416 0.59715 0.94539 0.0
C5118 C 0.98274 0.60907 0.96331 0.0
C5119 C 0.99787 0.61698 0.97668 0.0
C5120 C 0.99646 0.62797 0.99374 0.0
C5121 C 0.98 0.63128 0.99749 0.0
C5122 C 0.96493 0.62363 0.98416 0.0
C5123 C 0.96627 0.61258 0.9671 0.0
H5124 H 0.97893 0.6398 0.01071 0.0
H5125 H 0.99311 0.53147 0.84659 0.0
H5126 H 0.29373 0.17187 0.54481 0.0
H5127 H 0.30203 0.19626 0.57262 0.0
H5128 H 0.24921 0.18487 0.58704 0.0
H5129 H 0.24104 0.15999 0.5597 0.0
H5130 H 0.26835 0.22418 0.57956 0.0
H5131 H 0.27009 0.17349 0.61554 0.0
H5132 H 0.28087 0.14612 0.62182 0.0
H5133 H 0.33424 0.17577 0.63169 0.0
H5134 H 0.32373 0.20325 0.62502 0.0
H5135 H 0.24971 0.2593 0.66764 0.0
H5136 H 0.25468 0.2421 0.63777 0.0
H5137 H 0.31095 0.25696 0.6557 0.0
H5138 H 0.3059 0.27433 0.68599 0.0
H5139 H 0.29852 0.22017 0.64461 0.0
H5140 H 0.29532 0.27281 0.61741 0.0
H5141 H 0.2841 0.30009 0.61169 0.0
H5142 H 0.23397 0.2677 0.58557 0.0
H5143 H 0.24478 0.24024 0.59141 0.0
C5144 C 0.28405 0.17441 0.55421 0.0
C5145 C 0.26684 0.16412 0.55044 0.0
C5146 C 0.28877 0.18827 0.56992 0.0
C5147 C 0.27618 0.19218 0.58164 0.0
C5148 C 0.25904 0.18182 0.57804 0.0
C5149 C 0.25444 0.16763 0.56264 0.0
C5150 C 0.28061 0.20763 0.5972 0.0
C5151 C 0.27498 0.22342 0.5938 0.0
C5152 C 0.28991 0.20669 0.61534 0.0
C5153 C 0.29618 0.19027 0.61942 0.0
C5154 C 0.28413 0.17409 0.61877 0.0
C5155 C 0.29018 0.15858 0.62245 0.0
C5156 C 0.30824 0.15918 0.62704 0.0
C5157 C 0.32027 0.17531 0.62804 0.0
C5158 C 0.31428 0.19084 0.62429 0.0
C5159 C 0.26312 0.25903 0.66507 0.0
C5160 C 0.27744 0.26792 0.67892 0.0
C5161 C 0.26597 0.24939 0.648 0.0
C5162 C 0.28318 0.24855 0.64451 0.0
C5163 C 0.29761 0.2577 0.65817 0.0
C5164 C 0.29474 0.26755 0.67531 0.0
C5165 C 0.28553 0.23657 0.62731 0.0
C5166 C 0.29246 0.22131 0.63024 0.0
C5167 C 0.27743 0.23804 0.60869 0.0
C5168 C 0.27089 0.25447 0.60483 0.0
C5169 C 0.28188 0.27151 0.61051 0.0
C5170 C 0.27559 0.28701 0.60725 0.0
C5171 C 0.25834 0.28563 0.59826 0.0
C5172 C 0.24735 0.26875 0.59249 0.0
C5173 C 0.25356 0.25321 0.59573 0.0
H5174 H 0.25349 0.29765 0.59576 0.0
H5175 H 0.31291 0.14715 0.62991 0.0
H5176 H 0.65464 0.54518 0.24201 0.0
H5177 H 0.63686 0.54785 0.21182 0.0
H5178 H 0.58956 0.52581 0.23383 0.0
H5179 H 0.60732 0.52315 0.26417 0.0
H5180 H 0.58762 0.51207 0.19529 0.0
H5181 H 0.59997 0.57005 0.23321 0.0
H5182 H 0.6182 0.59723 0.25352 0.0
H5183 H 0.64675 0.60819 0.20621 0.0
H5184 H 0.62892 0.58085 0.18574 0.0
H5185 H 0.53013 0.54579 0.12513 0.0
H5186 H 0.54599 0.5427 0.15661 0.0
H5187 H 0.59502 0.55035 0.13308 0.0
H5188 H 0.57917 0.55255 0.10146 0.0
H5189 H 0.59442 0.5716 0.17314 0.0
H5190 H 0.58142 0.51279 0.13549 0.0
H5191 H 0.561 0.48737 0.11491 0.0
H5192 H 0.53227 0.47828 0.16249 0.0
H5193 H 0.552 0.5044 0.18315 0.0
C5194 C 0.64046 0.54079 0.24045 0.0
C5195 C 0.63251 0.53397 0.25569 0.0
C5196 C 0.63024 0.54239 0.22311 0.0
C5197 C 0.61172 0.53718 0.22038 0.0
C5198 C 0.60376 0.52993 0.23539 0.0
C5199 C 0.61398 0.52847 0.25283 0.0
C5200 C 0.60078 0.53987 0.20219 0.0
C5201 C 0.58898 0.52516 0.19066 0.0
C5202 C 0.60244 0.55687 0.19579 0.0
C5203 C 0.61323 0.57331 0.208 0.0
C5204 C 0.61025 0.57817 0.2272 0.0
C5205 C 0.62051 0.59361 0.23874 0.0
C5206 C 0.63366 0.60441 0.23119 0.0
C5207 C 0.63659 0.59979 0.21207 0.0
C5208 C 0.62641 0.58432 0.20048 0.0
C5209 C 0.54429 0.54684 0.12671 0.0
C5210 C 0.55336 0.54931 0.11073 0.0
C5211 C 0.55336 0.54509 0.14472 0.0
C5212 C 0.57178 0.54636 0.14735 0.0
C5213 C 0.58087 0.54938 0.13154 0.0
C5214 C 0.57176 0.55052 0.1134 0.0
C5215 C 0.58153 0.5438 0.16624 0.0
C5216 C 0.59306 0.55854 0.17787 0.0
C5217 C 0.5795 0.5269 0.1728 0.0
C5218 C 0.56804 0.51073 0.16079 0.0
C5219 C 0.57063 0.50552 0.14153 0.0
C5220 C 0.55921 0.49094 0.12985 0.0
C5221 C 0.54545 0.48109 0.13739 0.0
C5222 C 0.54298 0.48587 0.15666 0.0
C5223 C 0.55423 0.50065 0.16835 0.0
H5224 H 0.53675 0.4698 0.12821 0.0
H5225 H 0.64151 0.6164 0.24015 0.0
H5226 H 0.20095 0.88055 0.97433 0.0
H5227 H 0.21092 0.86451 0.9462 0.0
H5228 H 0.26084 0.8663 0.98067 0.0
H5229 H 0.25059 0.88154 0.00904 0.0
H5230 H 0.25998 0.88126 0.94162 0.0
H5231 H 0.24024 0.82907 0.97116 0.0
H5232 H 0.21827 0.80887 0.98492 0.0
H5233 H 0.18362 0.79859 0.93081 0.0
H5234 H 0.20529 0.81902 0.91683 0.0
H5235 H 0.30363 0.83475 0.87576 0.0
H5236 H 0.29128 0.8449 0.90473 0.0
H5237 H 0.23885 0.82163 0.87532 0.0
H5238 H 0.25132 0.81081 0.84642 0.0
H5239 H 0.23935 0.81744 0.91145 0.0
H5240 H 0.2581 0.86693 0.8806 0.0
H5241 H 0.2771 0.88915 0.86589 0.0
H5242 H 0.31102 0.90643 0.92033 0.0
H5243 H 0.29218 0.88424 0.93535 0.0
C5244 C 0.21387 0.87708 0.97601 0.0
C5245 C 0.22487 0.88202 0.99398 0.0
C5246 C 0.21958 0.86799 0.95991 0.0
C5247 C 0.23664 0.86417 0.96127 0.0
C5248 C 0.24759 0.86898 0.97927 0.0
C5249 C 0.24167 0.87755 0.99552 0.0
C5250 C 0.24342 0.85616 0.94368 0.0
C5251 C 0.25573 0.86723 0.9352 0.0
C5252 C 0.23726 0.83808 0.93474 0.0
C5253 C 0.22428 0.82573 0.94304 0.0
C5254 C 0.22785 0.82266 0.96227 0.0
C5255 C 0.21548 0.81114 0.97009 0.0
C5256 C 0.19953 0.80249 0.95877 0.0
C5257 C 0.19596 0.80532 0.93957 0.0
C5258 C 0.20829 0.81687 0.93169 0.0
C5259 C 0.28948 0.83152 0.87553 0.0
C5260 C 0.27851 0.82188 0.85873 0.0
C5261 C 0.28237 0.8375 0.89211 0.0
C5262 C 0.26401 0.83446 0.89229 0.0
C5263 C 0.25303 0.82427 0.87572 0.0
C5264 C 0.26019 0.81805 0.85915 0.0
C5265 C 0.25644 0.84244 0.90949 0.0
C5266 C 0.2438 0.83145 0.91783 0.0
C5267 C 0.26207 0.86078 0.91813 0.0
C5268 C 0.27371 0.87387 0.90908 0.0
C5269 C 0.2696 0.87545 0.88943 0.0
C5270 C 0.28035 0.88804 0.88103 0.0
C5271 C 0.29528 0.8992 0.89216 0.0
C5272 C 0.29946 0.89778 0.91172 0.0
C5273 C 0.28872 0.88521 0.92019 0.0
H5274 H 0.3036 0.90895 0.88564 0.0
H5275 H 0.18997 0.79357 0.96485 0.0
H5276 H 0.92483 0.60117 0.72153 0.0
H5277 H 0.93803 0.58953 0.69374 0.0
H5278 H 0.98814 0.59747 0.73027 0.0
H5279 H 0.9752 0.60969 0.75786 0.0
H5280 H 0.99309 0.60868 0.69797 0.0
H5281 H 0.95897 0.55475 0.71416 0.0
H5282 H 0.93236 0.53419 0.71958 0.0
H5283 H 0.90847 0.5339 0.66128 0.0
H5284 H 0.93475 0.55476 0.65564 0.0
H5285 H 0.03311 0.56696 0.62367 0.0
H5286 H 0.0221 0.57289 0.65468 0.0
H5287 H 0.96881 0.56197 0.62462 0.0
H5288 H 0.97948 0.55449 0.59417 0.0
H5289 H 0.96719 0.55061 0.6557 0.0
H5290 H 0.99704 0.60709 0.64019 0.0
H5291 H 0.02263 0.62767 0.6325 0.0
H5292 H 0.05249 0.62399 0.6867 0.0
H5293 H 0.02711 0.60322 0.69457 0.0
C5294 C 0.93869 0.60054 0.72359 0.0
C5295 C 0.94898 0.60644 0.74189 0.0
C5296 C 0.94618 0.59368 0.70775 0.0
C5297 C 0.96402 0.59227 0.70996 0.0
C5298 C 0.97434 0.59834 0.72818 0.0
C5299 C 0.96692 0.60538 0.74395 0.0
C5300 C 0.97221 0.58523 0.69318 0.0
C5301 C 0.98752 0.59584 0.68889 0.0
C5302 C 0.96476 0.5687 0.68097 0.0
C5303 C 0.94877 0.5565 0.68458 0.0
C5304 C 0.94796 0.55049 0.70258 0.0
C5305 C 0.93294 0.53875 0.70567 0.0
C5306 C 0.91871 0.53279 0.69081 0.0
C5307 C 0.91947 0.53857 0.67281 0.0
C5308 C 0.93441 0.55036 0.66967 0.0
C5309 C 0.01904 0.56554 0.62377 0.0
C5310 C 1.00723 0.56065 0.60639 0.0
C5311 C 0.01275 0.56913 0.64148 0.0
C5312 C 0.99463 0.56846 0.642 0.0
C5313 C 0.98284 0.5627 0.62472 0.0
C5314 C 0.98903 0.55855 0.60721 0.0
C5315 C 0.98774 0.57428 0.6602 0.0
C5316 C 0.97275 0.56341 0.66482 0.0
C5317 C 0.99517 0.59077 0.67242 0.0
C5318 C 0.01027 0.60351 0.66787 0.0
C5319 C 0.00909 0.61064 0.65042 0.0
C5320 C 0.02355 0.62232 0.64603 0.0
C5321 C 0.03919 0.6271 0.65909 0.0
C5322 C 0.04038 0.62026 0.67659 0.0
C5323 C 0.02596 0.60855 0.68103 0.0
H5324 H 0.05039 0.63613 0.65566 0.0
H5325 H 0.90712 0.52367 0.69322 0.0
H5326 H 0.26371 0.20321 0.46825 0.0
H5327 H 0.27096 0.22624 0.44807 0.0
H5328 H 0.27409 0.18542 0.40064 0.0
H5329 H 0.26704 0.16212 0.42092 0.0
H5330 H 0.30183 0.21426 0.40618 0.0
H5331 H 0.23893 0.20319 0.39932 0.0
H5332 H 0.2096 0.19966 0.41001 0.0
H5333 H 0.22224 0.25418 0.43947 0.0
H5334 H 0.25177 0.25794 0.42918 0.0
H5335 H 0.28335 0.24994 0.32291 0.0
H5336 H 0.28978 0.23613 0.35102 0.0
H5337 H 0.28238 0.28311 0.38823 0.0
H5338 H 0.27456 0.29665 0.35935 0.0
H5339 H 0.26046 0.25485 0.39253 0.0
H5340 H 0.32321 0.26559 0.39171 0.0
H5341 H 0.34956 0.26678 0.37513 0.0
H5342 H 0.33456 0.2101 0.35434 0.0
H5343 H 0.30805 0.20859 0.37064 0.0
C5344 C 0.26591 0.19909 0.45352 0.0
C5345 C 0.26481 0.1809 0.44609 0.0
C5346 C 0.27004 0.21226 0.44205 0.0
C5347 C 0.27298 0.20742 0.42297 0.0
C5348 C 0.27191 0.1893 0.41544 0.0
C5349 C 0.26779 0.17606 0.42695 0.0
C5350 C 0.27695 0.22138 0.41084 0.0
C5351 C 0.29286 0.2232 0.40313 0.0
C5352 C 0.26528 0.23308 0.40728 0.0
C5353 C 0.24763 0.23077 0.41372 0.0
C5354 C 0.23553 0.21435 0.40827 0.0
C5355 C 0.21885 0.21233 0.41421 0.0
C5356 C 0.21409 0.22667 0.42547 0.0
C5357 C 0.22597 0.24307 0.43079 0.0
C5358 C 0.24268 0.24516 0.42491 0.0
C5359 C 0.2836 0.25758 0.33712 0.0
C5360 C 0.278 0.27403 0.33917 0.0
C5361 C 0.28764 0.24979 0.35328 0.0
C5362 C 0.28673 0.25864 0.3718 0.0
C5363 C 0.2832 0.27614 0.374 0.0
C5364 C 0.2788 0.28387 0.35762 0.0
C5365 C 0.28547 0.24794 0.38771 0.0
C5366 C 0.26988 0.24649 0.3961 0.0
C5367 C 0.29725 0.23629 0.39143 0.0
C5368 C 0.3137 0.23698 0.38251 0.0
C5369 C 0.32557 0.25337 0.38366 0.0
C5370 C 0.34052 0.2541 0.37428 0.0
C5371 C 0.34375 0.23852 0.36372 0.0
C5372 C 0.33209 0.22214 0.3626 0.0
C5373 C 0.31714 0.22133 0.37199 0.0
H5374 H 0.35529 0.23912 0.35639 0.0
H5375 H 0.20116 0.22508 0.43003 0.0
H5376 H 0.3598 0.63446 0.53839 0.0
H5377 H 0.38371 0.61864 0.53344 0.0
H5378 H 0.42052 0.6693 0.5419 0.0
H5379 H 0.39605 0.6854 0.54588 0.0
H5380 H 0.43014 0.64653 0.51578 0.0
H5381 H 0.41592 0.64288 0.57931 0.0
H5382 H 0.39642 0.63754 0.60412 0.0
H5383 H 0.37977 0.58219 0.57788 0.0
H5384 H 0.39903 0.58727 0.55277 0.0
H5385 H 0.50378 0.60675 0.53786 0.0
H5386 H 0.48051 0.6238 0.53762 0.0
H5387 H 0.44153 0.57459 0.52818 0.0
H5388 H 0.46515 0.55718 0.52965 0.0
H5389 H 0.43396 0.59776 0.55527 0.0
H5390 H 0.4505 0.60329 0.4914 0.0
H5391 H 0.47228 0.61041 0.46926 0.0
H5392 H 0.48738 0.66456 0.4996 0.0
H5393 H 0.46583 0.65769 0.52205 0.0
C5394 C 0.37296 0.64229 0.53902 0.0
C5395 C 0.3761 0.66118 0.54282 0.0
C5396 C 0.38668 0.6332 0.53631 0.0
C5397 C 0.40409 0.64268 0.53799 0.0
C5398 C 0.40723 0.66164 0.54078 0.0
C5399 C 0.39328 0.67085 0.54306 0.0
C5400 C 0.41881 0.63256 0.53744 0.0
C5401 C 0.43107 0.63601 0.52458 0.0
C5402 C 0.42012 0.61872 0.54883 0.0
C5403 C 0.4088 0.61549 0.5641 0.0
C5404 C 0.40804 0.62959 0.5788 0.0
C5405 C 0.39704 0.62661 0.59291 0.0
C5406 C 0.38683 0.60954 0.59255 0.0
C5407 C 0.38767 0.5954 0.57813 0.0
C5408 C 0.39865 0.59832 0.56397 0.0
C5409 C 0.49027 0.59938 0.53541 0.0
C5410 C 0.48639 0.58047 0.53362 0.0
C5411 C 0.47689 0.60926 0.53515 0.0
C5412 C 0.45915 0.60057 0.53245 0.0
C5413 C 0.45512 0.58164 0.53011 0.0
C5414 C 0.46862 0.57166 0.53071 0.0
C5415 C 0.445 0.61137 0.53322 0.0
C5416 C 0.43292 0.60815 0.54631 0.0
C5417 C 0.44415 0.62566 0.52235 0.0
C5418 C 0.4566 0.62996 0.50841 0.0
C5419 C 0.45848 0.61671 0.49334 0.0
C5420 C 0.47079 0.6207 0.48076 0.0
C5421 C 0.48122 0.63792 0.48304 0.0
C5422 C 0.47929 0.65123 0.49785 0.0
C5423 C 0.467 0.6473 0.51047 0.0
H5424 H 0.4908 0.64097 0.47333 0.0
H5425 H 0.37829 0.60727 0.60347 0.0
H5426 H 0.8493 0.97208 0.59684 0.0
H5427 H 0.87874 0.97862 0.58771 0.0
H5428 H 0.88465 0.03412 0.61397 0.0
H5429 H 0.85439 0.0278 0.6214 0.0
H5430 H 0.89444 0.03394 0.58145 0.0
H5431 H 0.90789 0.99997 0.63296 0.0
H5432 H 0.90417 0.97373 0.65019 0.0
H5433 H 0.91283 0.94007 0.59966 0.0
H5434 H 0.91636 0.96604 0.58208 0.0
H5435 H 0.98907 0.05307 0.58126 0.0
H5436 H 0.95958 0.04798 0.59113 0.0
H5437 H 0.94425 0.9998 0.5487 0.0
H5438 H 0.97345 1.00513 0.53831 0.0
H5439 H 0.93997 0.9967 0.58932 0.0
H5440 H 0.92686 0.02976 0.53817 0.0
H5441 H 0.93004 0.05518 0.5198 0.0
H5442 H 0.92052 0.09004 0.56892 0.0
H5443 H 0.91769 0.0649 0.58777 0.0
C5444 C 0.85711 0.98556 0.60109 0.0
C5445 C 0.84984 0.99944 0.61001 0.0
C5446 C 0.87398 0.98929 0.59594 0.0
C5447 C 0.88413 0.00681 0.60047 0.0
C5448 C 0.87709 0.0205 0.61032 0.0
C5449 C 0.85994 0.0169 0.61475 0.0
C5450 C 0.90142 0.01122 0.59355 0.0
C5451 C 0.90453 0.02601 0.58361 0.0
C5452 C 0.91436 1.00047 0.59558 0.0
C5453 C 0.91228 0.98491 0.6062 0.0
C5454 C 0.9089 0.98695 0.62552 0.0
C5455 C 0.90684 0.97212 0.63533 0.0
C5456 C 0.90824 0.95524 0.62602 0.0
C5457 C 0.91174 0.95314 0.60686 0.0
C5458 C 0.91379 0.96791 0.59698 0.0
C5459 C 0.97932 0.04151 0.57394 0.0
C5460 C 0.98343 0.0294 0.55913 0.0
C5461 C 0.96255 0.03869 0.57951 0.0
C5462 C 0.9499 0.02357 0.57054 0.0
C5463 C 0.95394 0.01157 0.55565 0.0
C5464 C 0.97055 0.0146 0.54979 0.0
C5465 C 0.93291 0.01948 0.57771 0.0
C5466 C 0.92989 1.00473 0.58754 0.0
C5467 C 0.92012 0.03025 0.57559 0.0
C5468 C 0.92235 0.04551 0.56449 0.0
C5469 C 0.92575 0.04291 0.54518 0.0
C5470 C 0.92742 0.05725 0.53465 0.0
C5471 C 0.92555 0.07423 0.54321 0.0
C5472 C 0.92202 0.0769 0.56233 0.0
C5473 C 0.92041 0.06261 0.57295 0.0
H5474 H 0.92677 0.0853 0.535 0.0
H5475 H 0.90664 0.94378 0.63365 0.0
H5476 H 0.89243 0.14452 0.29464 0.0
H5477 H 0.88025 0.17191 0.29711 0.0
H5478 H 0.8278 0.1399 0.29044 0.0
H5479 H 0.84002 0.11245 0.28666 0.0
H5480 H 0.8233 0.16501 0.27377 0.0
H5481 H 0.85755 0.17044 0.33748 0.0
H5482 H 0.88435 0.17279 0.36091 0.0
H5483 H 0.90978 0.2186 0.33824 0.0
H5484 H 0.88322 0.21638 0.31456 0.0
H5485 H 0.78067 0.2381 0.30212 0.0
H5486 H 0.79357 0.21114 0.29974 0.0
H5487 H 0.8453 0.24415 0.30414 0.0
H5488 H 0.83242 0.2712 0.30734 0.0
H5489 H 0.85048 0.21911 0.32171 0.0
H5490 H 0.81794 0.21502 0.25899 0.0
H5491 H 0.79207 0.21405 0.23478 0.0
H5492 H 0.76469 0.16713 0.25399 0.0
H5493 H 0.79031 0.16799 0.27851 0.0
C5494 C 0.87827 0.1432 0.29374 0.0
C5495 C 0.8674 0.12585 0.29054 0.0
C5496 C 0.87118 0.15915 0.29544 0.0
C5497 C 0.85282 0.15869 0.29464 0.0
C5498 C 0.84196 0.14128 0.29129 0.0
C5499 C 0.84904 0.12531 0.28919 0.0
C5500 C 0.84487 0.17595 0.2967 0.0
C5501 C 0.82924 0.17662 0.28459 0.0
C5502 C 0.85249 0.19197 0.31011 0.0
C5503 C 0.8685 0.19308 0.32411 0.0
C5504 C 0.86892 0.18091 0.33741 0.0
C5505 C 0.88405 0.18224 0.35074 0.0
C5506 C 0.89878 0.19579 0.35101 0.0
C5507 C 0.89839 0.20807 0.33798 0.0
C5508 C 0.88331 0.20678 0.32461 0.0
C5509 C 0.79483 0.23974 0.30271 0.0
C5510 C 0.80534 0.2572 0.30504 0.0
C5511 C 0.8023 0.22407 0.30106 0.0
C5512 C 0.82066 0.22499 0.30123 0.0
C5513 C 0.83117 0.24251 0.30384 0.0
C5514 C 0.82371 0.2582 0.30568 0.0
C5515 C 0.82887 0.20799 0.29899 0.0
C5516 C 0.84453 0.20743 0.31099 0.0
C5517 C 0.82142 0.19217 0.28533 0.0
C5518 C 0.80597 0.19168 0.2707 0.0
C5519 C 0.80635 0.20458 0.25814 0.0
C5520 C 0.79174 0.20404 0.24435 0.0
C5521 C 0.77673 0.19056 0.24288 0.0
C5522 C 0.77631 0.17758 0.25517 0.0
C5523 C 0.79087 0.17809 0.26901 0.0
H5524 H 0.76543 0.19016 0.23219 0.0
H5525 H 0.91047 0.1968 0.36136 0.0
H5526 H 0.78666 0.14284 0.03774 0.0
H5527 H 0.75661 0.12598 0.03619 0.0
H5528 H 0.73627 0.17395 0.02887 0.0
H5529 H 0.76631 0.191 0.03123 0.0
H5530 H 0.72155 0.15885 0.05487 0.0
H5531 H 0.73153 0.13733 0.99094 0.0
H5532 H 0.74811 0.12436 0.96666 0.0
H5533 H 0.74366 0.07595 0.99205 0.0
H5534 H 0.72725 0.08874 0.01666 0.0
H5535 H 0.6327 0.11449 0.04118 0.0
H5536 H 0.66047 0.13015 0.03301 0.0
H5537 H 0.68505 0.08583 0.04517 0.0
H5538 H 0.65729 0.07005 0.05327 0.0
H5539 H 0.69665 0.09964 0.01421 0.0
H5540 H 0.68847 0.12294 0.07946 0.0
H5541 H 0.67296 0.13695 0.10421 0.0
H5542 H 0.67458 0.18329 0.07547 0.0
H5543 H 0.68984 0.16941 0.05038 0.0
C5544 C 0.77575 0.14973 0.03563 0.0
C5545 C 0.77878 0.16823 0.03468 0.0
C5546 C 0.75858 0.14006 0.0346 0.0
C5547 C 0.74414 0.14863 0.03214 0.0
C5548 C 0.74718 0.16704 0.03076 0.0
C5549 C 0.76434 0.17677 0.03211 0.0
C5550 C 0.72596 0.13877 0.03243 0.0
C5551 C 0.716 0.14608 0.04566 0.0
C5552 C 0.71881 0.12192 0.02075 0.0
C5553 C 0.72828 0.11403 0.0057 0.0
C5554 C 0.73416 0.12395 0.99139 0.0
C5555 C 0.74352 0.11663 0.97757 0.0
C5556 C 0.74697 0.09936 0.97783 0.0
C5557 C 0.74098 0.08933 0.99187 0.0
C5558 C 0.73163 0.09659 0.00573 0.0
C5559 C 0.64399 0.10804 0.04202 0.0
C5560 C 0.64287 0.09115 0.04816 0.0
C5561 C 0.65983 0.11698 0.03729 0.0
C5562 C 0.67491 0.1093 0.03885 0.0
C5563 C 0.67359 0.09202 0.04392 0.0
C5564 C 0.65771 0.08301 0.04854 0.0
C5565 C 0.69233 0.11978 0.03663 0.0
C5566 C 0.70216 0.11255 0.02315 0.0
C5567 C 0.69936 0.13682 0.04796 0.0
C5568 C 0.69007 0.14505 0.06294 0.0
C5569 C 0.68535 0.13604 0.07834 0.0
C5570 C 0.67664 0.14397 0.09243 0.0
C5571 C 0.67273 0.16097 0.09138 0.0
C5572 C 0.67756 0.1701 0.07624 0.0
C5573 C 0.68623 0.16221 0.06208 0.0
H5574 H 0.666 0.1671 0.10233 0.0
H5575 H 0.75425 0.09373 0.96714 0.0
H5576 H 0.14283 0.4311 0.28424 0.0
H5577 H 0.16121 0.40859 0.28695 0.0
H5578 H 0.19676 0.445 0.33293 0.0
H5579 H 0.1792 0.46803 0.3289 0.0
H5580 H 0.21577 0.43059 0.31437 0.0
H5581 H 0.1642 0.40252 0.33865 0.0
H5582 H 0.13291 0.38975 0.33947 0.0
H5583 H 0.13141 0.35364 0.28676 0.0
H5584 H 0.1627 0.36612 0.28571 0.0
H5585 H 0.26021 0.35814 0.33548 0.0
H5586 H 0.24359 0.38267 0.33787 0.0
H5587 H 0.20925 0.35641 0.28539 0.0
H5588 H 0.22553 0.33221 0.28321 0.0
H5589 H 0.19045 0.36597 0.31149 0.0
H5590 H 0.24387 0.39563 0.28901 0.0
H5591 H 0.27578 0.40778 0.29186 0.0
H5592 H 0.27401 0.44081 0.34572 0.0
H5593 H 0.24214 0.4287 0.3433 0.0
C5594 C 0.15456 0.43425 0.29494 0.0
C5595 C 0.15955 0.45132 0.30637 0.0
C5596 C 0.16501 0.42125 0.2967 0.0
C5597 C 0.18029 0.42472 0.31054 0.0
C5598 C 0.18512 0.4418 0.3221 0.0
C5599 C 0.17502 0.45499 0.31986 0.0
C5600 C 0.19169 0.41098 0.31237 0.0
C5601 C 0.21013 0.41652 0.31408 0.0
C5602 C 0.18465 0.39245 0.31181 0.0
C5603 C 0.16569 0.38541 0.31199 0.0
C5604 C 0.15713 0.39197 0.32715 0.0
C5605 C 0.13943 0.38472 0.32771 0.0
C5606 C 0.13017 0.37092 0.31316 0.0
C5607 C 0.13858 0.36436 0.29799 0.0
C5608 C 0.15631 0.37146 0.29746 0.0
C5609 C 0.24903 0.35764 0.32457 0.0
C5610 C 0.24372 0.34289 0.30953 0.0
C5611 C 0.23964 0.37172 0.32584 0.0
C5612 C 0.22509 0.37141 0.31182 0.0
C5613 C 0.22022 0.35689 0.29656 0.0
C5614 C 0.22941 0.34288 0.29545 0.0
C5615 C 0.21427 0.38561 0.31301 0.0
C5616 C 0.19597 0.38011 0.31193 0.0
C5617 C 0.22148 0.40415 0.31454 0.0
C5618 C 0.24068 0.41111 0.31607 0.0
C5619 C 0.25033 0.40535 0.30154 0.0
C5620 C 0.2684 0.41226 0.30306 0.0
C5621 C 0.27693 0.42502 0.31898 0.0
C5622 C 0.2674 0.4309 0.33342 0.0
C5623 C 0.24935 0.42403 0.33197 0.0
H5624 H 0.29091 0.43038 0.32011 0.0
H5625 H 0.11648 0.36527 0.31366 0.0
H5626 H 0.23298 0.45269 0.0944 0.0
H5627 H 0.20797 0.4598 0.07482 0.0
H5628 H 0.2299 0.51645 0.09128 0.0
H5629 H 0.25506 0.50951 0.11096 0.0
H5630 H 0.19541 0.5068 0.09666 0.0
H5631 H 0.23176 0.49621 0.04691 0.0
H5632 H 0.24899 0.47868 0.02734 0.0
H5633 H 0.20283 0.43749 0.00735 0.0
H5634 H 0.18535 0.45472 0.02698 0.0
H5635 H 0.14808 0.54853 0.03382 0.0
H5636 H 0.17319 0.53485 0.04296 0.0
H5637 H 0.13835 0.48349 0.03892 0.0
H5638 H 0.11297 0.49715 0.02984 0.0
H5639 H 0.1779 0.48761 0.02566 0.0
H5640 H 0.14254 0.49624 0.07775 0.0
H5641 H 0.12533 0.51302 0.0982 0.0
H5642 H 0.16999 0.55658 0.11454 0.0
H5643 H 0.18731 0.54019 0.09378 0.0
C5644 C 0.23243 0.46668 0.09399 0.0
C5645 C 0.24588 0.48061 0.10433 0.0
C5646 C 0.21827 0.47066 0.08259 0.0
C5647 C 0.21737 0.48858 0.08145 0.0
C5648 C 0.23059 0.50252 0.09195 0.0
C5649 C 0.24481 0.49856 0.10329 0.0
C5650 C 0.20191 0.4929 0.07057 0.0
C5651 C 0.1917 0.50273 0.08111 0.0
C5652 C 0.19682 0.48697 0.05043 0.0
C5653 C 0.20731 0.47664 0.03862 0.0
C5654 C 0.22533 0.48333 0.0385 0.0
C5655 C 0.23512 0.47347 0.02735 0.0
C5656 C 0.22703 0.45693 0.01618 0.0
C5657 C 0.20909 0.45028 0.01605 0.0
C5658 C 0.19923 0.4601 0.02716 0.0
C5659 C 0.14583 0.53419 0.03418 0.0
C5660 C 0.12868 0.52385 0.03127 0.0
C5661 C 0.16014 0.52644 0.03938 0.0
C5662 C 0.15742 0.50829 0.04158 0.0
C5663 C 0.14052 0.49753 0.03711 0.0
C5664 C 0.12613 0.50534 0.03211 0.0
C5665 C 0.17174 0.50167 0.05181 0.0
C5666 C 0.18165 0.49148 0.04121 0.0
C5667 C 0.17657 0.50706 0.07198 0.0
C5668 C 0.16606 0.51717 0.08394 0.0
C5669 C 0.14856 0.50954 0.08541 0.0
C5670 C 0.13882 0.51894 0.09713 0.0
C5671 C 0.14653 0.5359 0.10759 0.0
C5672 C 0.16401 0.54349 0.10636 0.0
C5673 C 0.17377 0.53417 0.0946 0.0
H5674 H 0.13899 0.54312 0.11672 0.0
H5675 H 0.23464 0.44931 0.00757 0.0
H5676 H 0.84234 0.01496 0.28559 0.0
H5677 H 0.82599 0.98466 0.28783 0.0
H5678 H 0.87355 0.96375 0.28452 0.0
H5679 H 0.88943 0.99321 0.28159 0.0
H5680 H 0.85098 0.93953 0.26553 0.0
H5681 H 0.85057 0.97179 0.32879 0.0
H5682 H 0.84443 0.99591 0.35244 0.0
H5683 H 0.78911 0.98036 0.33098 0.0
H5684 H 0.79498 0.95629 0.30704 0.0
H5685 H 0.8287 0.85665 0.30157 0.0
H5686 H 0.84018 0.88745 0.2972 0.0
H5687 H 0.78754 0.89809 0.2917 0.0
H5688 H 0.77587 0.86686 0.29624 0.0
H5689 H 0.80997 0.92735 0.31329 0.0
H5690 H 0.81184 0.89271 0.25157 0.0
H5691 H 0.8196 0.86871 0.22908 0.0
H5692 H 0.8746 0.88893 0.24962 0.0
H5693 H 0.86716 0.91288 0.27243 0.0
C5694 C 0.84933 1.00392 0.28529 0.0
C5695 C 0.86746 0.00707 0.2833 0.0
C5696 C 0.83992 0.98638 0.28675 0.0
C5697 C 0.84827 0.97127 0.28659 0.0
C5698 C 0.86632 0.9746 0.2846 0.0
C5699 C 0.87557 0.99186 0.28298 0.0
C5700 C 0.83873 0.95205 0.2882 0.0
C5701 C 0.8422 0.93709 0.27623 0.0
C5702 C 0.82676 0.94804 0.30168 0.0
C5703 C 0.82322 0.96242 0.31602 0.0
C5704 C 0.83711 0.97361 0.32905 0.0
C5705 C 0.83368 0.98725 0.34251 0.0
C5706 C 0.81639 0.9897 0.34317 0.0
C5707 C 0.80249 0.97848 0.33042 0.0
C5708 C 0.80586 0.96483 0.31691 0.0
C5709 C 0.81939 0.8654 0.29934 0.0
C5710 C 0.80119 0.85883 0.29924 0.0
C5711 C 0.82608 0.88325 0.29672 0.0
C5712 C 0.81494 0.89561 0.29379 0.0
C5713 C 0.79668 0.88917 0.29383 0.0
C5714 C 0.78992 0.87111 0.29633 0.0
C5715 C 0.82251 0.91499 0.29087 0.0
C5716 C 0.8187 0.9299 0.30258 0.0
C5717 C 0.83446 0.91897 0.27738 0.0
C5718 C 0.83893 0.90449 0.2638 0.0
C5719 C 0.82558 0.89194 0.25139 0.0
C5720 C 0.82992 0.87836 0.23857 0.0
C5721 C 0.84758 0.87727 0.23795 0.0
C5722 C 0.86093 0.88977 0.25013 0.0
C5723 C 0.85666 0.90335 0.263 0.0
H5724 H 0.85091 0.86676 0.22799 0.0
H5725 H 0.81376 1.00028 0.3536 0.0
H5726 H 0.67733 0.04332 0.81281 0.0
H5727 H 0.69833 0.07207 0.81734 0.0
H5728 H 0.65518 0.10043 0.81696 0.0
H5729 H 0.63425 0.07204 0.8123 0.0
H5730 H 0.67575 0.10886 0.7902 0.0
H5731 H 0.68332 0.104 0.85771 0.0
H5732 H 0.68983 0.08973 0.88648 0.0
H5733 H 0.74207 0.08858 0.87302 0.0
H5734 H 0.73577 0.10261 0.84398 0.0
H5735 H 0.7197 0.19823 0.80838 0.0
H5736 H 0.70293 0.17038 0.81572 0.0
H5737 H 0.74728 0.14463 0.8092 0.0
H5738 H 0.76409 0.17235 0.80138 0.0
H5739 H 0.72756 0.13463 0.84034 0.0
H5740 H 0.71883 0.13865 0.77196 0.0
H5741 H 0.71181 0.15334 0.74362 0.0
H5742 H 0.66063 0.15605 0.7596 0.0
H5743 H 0.66749 0.14166 0.78823 0.0
C5744 C 0.67236 0.05571 0.81398 0.0
C5745 C 0.65411 0.05538 0.81184 0.0
C5746 C 0.68437 0.07211 0.81669 0.0
C5747 C 0.67827 0.08834 0.81743 0.0
C5748 C 0.66014 0.08803 0.81633 0.0
C5749 C 0.64819 0.07176 0.81358 0.0
C5750 C 0.69037 0.10549 0.81699 0.0
C5751 C 0.68692 0.11458 0.80135 0.0
C5752 C 0.70522 0.11269 0.83121 0.0
C5753 C 0.70899 0.10413 0.84854 0.0
C5754 C 0.69613 0.10052 0.86076 0.0
C5755 C 0.69979 0.09252 0.87714 0.0
C5756 C 0.71633 0.08819 0.88153 0.0
C5757 C 0.72925 0.0919 0.86957 0.0
C5758 C 0.72564 0.09988 0.85316 0.0
C5759 C 0.72593 0.18668 0.80856 0.0
C5760 C 0.7431 0.18739 0.80389 0.0
C5761 C 0.7164 0.17086 0.81296 0.0
C5762 C 0.72385 0.15547 0.81279 0.0
C5763 C 0.74136 0.15642 0.80944 0.0
C5764 C 0.75092 0.17226 0.80494 0.0
C5765 C 0.71263 0.13798 0.81377 0.0
C5766 C 0.71632 0.12883 0.82931 0.0
C5767 C 0.69787 0.13065 0.79951 0.0
C5768 C 0.69374 0.13928 0.78232 0.0
C5769 C 0.70615 0.14254 0.76952 0.0
C5770 C 0.70219 0.15079 0.7534 0.0
C5771 C 0.68581 0.15567 0.74984 0.0
C5772 C 0.67333 0.15229 0.76239 0.0
C5773 C 0.67725 0.1441 0.77856 0.0
H5774 H 0.68276 0.16204 0.73733 0.0
H5775 H 0.71915 0.082 0.89423 0.0
loop_
_geom_bond_atom_site_label_1
_geom_bond_atom_site_label_2
_geom_bond_distance
_geom_bond_site_symmetry_2
_ccdc_geom_bond_type
C0 O1 1.306 . S
C0 O3 1.160 . S
O1 C0 1.306 . S
O1 Cd2 2.228 . S
Cd2 O1 2.228 . S
Cd2 O6 2.273 . S
Cd2 O10 2.277 . S
O3 C0 1.160 . S
O3 Cd4 2.203 . S
Cd4 O3 2.203 . S
Cd4 O6 2.411 . S
Cd4 O7 2.333 . S
Cd4 O8 2.352 . S
Cd4 O12 2.277 . S
Cd4 O13 2.356 . S
C5 O10 1.209 . S
C5 O12 1.226 . S
O6 Cd2 2.273 . S
O6 Cd4 2.411 . S
O6 C9 1.320 . S
O7 Cd4 2.333 . S
O7 C9 1.214 . S
O8 Cd4 2.352 . S
O8 C11 1.258 . S
C9 O6 1.320 . S
C9 O7 1.214 . S
O10 Cd2 2.277 . S
O10 C5 1.209 . S
C11 O8 1.258 . S
C11 O13 1.282 . S
O12 Cd4 2.277 . S
O12 C5 1.226 . S
O13 Cd4 2.356 . S
O13 C11 1.282 . S
C14 O15 1.306 . S
C14 O17 1.160 . S
O15 C14 1.306 . S
O15 Cd16 2.228 1_655 S
Cd16 O15 2.228 1_455 S
Cd16 O20 2.273 . S
Cd16 O24 2.278 1_455 S
O17 C14 1.160 . S
O17 Cd18 2.203 1_655 S
Cd18 O17 2.203 1_455 S
Cd18 O20 2.411 . S
Cd18 O21 2.333 . S
Cd18 O22 2.352 . S
Cd18 O26 2.277 1_455 S
Cd18 O27 2.356 . S
C19 O24 1.212 . S
C19 O26 1.226 . S
O20 Cd16 2.273 . S
O20 Cd18 2.411 . S
O20 C23 1.320 . S
O21 Cd18 2.333 . S
O21 C23 1.214 . S
O22 Cd18 2.352 . S
O22 C25 1.258 . S
C23 O20 1.320 . S
C23 O21 1.214 . S
O24 Cd16 2.278 1_655 S
O24 C19 1.212 . S
C25 O22 1.258 . S
C25 O27 1.282 . S
O26 Cd18 2.277 1_655 S
O26 C19 1.226 . S
O27 Cd18 2.356 . S
O27 C25 1.282 . S
C28 O29 1.306 . S
C28 O31 1.160 . S
O29 C28 1.306 . S
O29 Cd30 2.228 . S
Cd30 O29 2.228 . S
Cd30 O34 2.273 . S
Cd30 O38 2.277 . S
O31 C28 1.160 . S
O31 Cd32 2.203 . S
Cd32 O31 2.203 . S
Cd32 O34 2.411 . S
Cd32 O35 2.333 . S
Cd32 O36 2.352 . S
Cd32 O40 2.277 . S
Cd32 O41 2.356 . S
C33 O38 1.209 . S
C33 O40 1.226 . S
O34 Cd30 2.273 . S
O34 Cd32 2.411 . S
O34 C37 1.320 . S
O35 Cd32 2.333 . S
O35 C37 1.214 . S
O36 Cd32 2.352 . S
O36 C39 1.258 . S
C37 O34 1.320 . S
C37 O35 1.214 . S
O38 Cd30 2.277 . S
O38 C33 1.209 . S
C39 O36 1.258 . S
C39 O41 1.282 . S
O40 Cd32 2.277 . S
O40 C33 1.226 . S
O41 Cd32 2.356 . S
O41 C39 1.282 . S
C42 O43 1.306 . S
C42 O45 1.160 . S
O43 C42 1.306 . S
O43 Cd44 2.228 . S
Cd44 O43 2.228 . S
Cd44 O48 2.273 . S
Cd44 O52 2.277 . S
O45 C42 1.160 . S
O45 Cd46 2.203 . S
Cd46 O45 2.203 . S
Cd46 O48 2.411 . S
Cd46 O49 2.333 . S
Cd46 O50 2.352 . S
Cd46 O54 2.277 . S
Cd46 O55 2.356 . S
C47 O52 1.209 . S
C47 O54 1.226 . S
O48 Cd44 2.273 . S
O48 Cd46 2.411 . S
O48 C51 1.320 . S
O49 Cd46 2.333 . S
O49 C51 1.214 . S
O50 Cd46 2.352 . S
O50 C53 1.258 . S
C51 O48 1.320 . S
C51 O49 1.214 . S
O52 Cd44 2.277 . S
O52 C47 1.209 . S
C53 O50 1.258 . S
C53 O55 1.282 . S
O54 Cd46 2.277 . S
O54 C47 1.226 . S
O55 Cd46 2.356 . S
O55 C53 1.282 . S
C56 O57 1.306 . S
C56 O59 1.160 . S
O57 C56 1.306 . S
O57 Cd58 2.228 1_655 S
Cd58 O57 2.228 1_455 S
Cd58 O62 2.273 . S
Cd58 O66 2.277 . S
O59 C56 1.160 . S
O59 Cd60 2.203 1_655 S
Cd60 O59 2.203 1_455 S
Cd60 O62 2.411 . S
Cd60 O63 2.333 . S
Cd60 O64 2.352 . S
Cd60 O68 2.277 . S
Cd60 O69 2.356 . S
C61 O66 1.209 . S
C61 O68 1.226 . S
O62 Cd58 2.273 . S
O62 Cd60 2.411 . S
O62 C65 1.320 . S
O63 Cd60 2.333 . S
O63 C65 1.214 . S
O64 Cd60 2.352 . S
O64 C67 1.258 . S
C65 O62 1.320 . S
C65 O63 1.214 . S
O66 Cd58 2.277 . S
O66 C61 1.209 . S
C67 O64 1.258 . S
C67 O69 1.282 . S
O68 Cd60 2.277 . S
O68 C61 1.226 . S
O69 Cd60 2.356 . S
O69 C67 1.282 . S
C70 O71 1.306 . S
C70 O73 1.160 . S
O71 C70 1.306 . S
O71 Cd72 2.228 . S
Cd72 O71 2.228 . S
Cd72 O76 2.273 . S
Cd72 O80 2.277 . S
O73 C70 1.160 . S
O73 Cd74 2.203 . S
Cd74 O73 2.203 . S
Cd74 O76 2.411 . S
Cd74 O77 2.333 . S
Cd74 O78 2.352 . S
Cd74 O82 2.277 . S
Cd74 O83 2.356 . S
C75 O80 1.209 . S
C75 O82 1.226 . S
O76 Cd72 2.273 . S
O76 Cd74 2.411 . S
O76 C79 1.320 . S
O77 Cd74 2.333 . S
O77 C79 1.214 . S
O78 Cd74 2.352 . S
O78 C81 1.258 . S
C79 O76 1.320 . S
C79 O77 1.214 . S
O80 Cd72 2.277 . S
O80 C75 1.209 . S
C81 O78 1.258 . S
C81 O83 1.282 . S
O82 Cd74 2.277 . S
O82 C75 1.226 . S
O83 Cd74 2.356 . S
O83 C81 1.282 . S
C84 O85 1.306 . S
C84 O87 1.160 . S
O85 C84 1.306 . S
O85 Cd86 2.228 . S
Cd86 O85 2.228 . S
Cd86 O90 2.273 . S
Cd86 O94 2.277 . S
O87 C84 1.160 . S
O87 Cd88 2.203 . S
Cd88 O87 2.203 . S
Cd88 O90 2.411 . S
Cd88 O91 2.333 . S
Cd88 O92 2.352 . S
Cd88 O96 2.277 . S
Cd88 O97 2.356 . S
C89 O94 1.209 . S
C89 O96 1.226 . S
O90 Cd86 2.273 . S
O90 Cd88 2.411 . S
O90 C93 1.320 . S
O91 Cd88 2.333 . S
O91 C93 1.214 . S
O92 Cd88 2.352 . S
O92 C95 1.258 . S
C93 O90 1.320 . S
C93 O91 1.214 . S
O94 Cd86 2.277 . S
O94 C89 1.209 . S
C95 O92 1.258 . S
C95 O97 1.282 . S
O96 Cd88 2.277 . S
O96 C89 1.226 . S
O97 Cd88 2.356 . S
O97 C95 1.282 . S
C98 O99 1.297 1_655 S
C98 O101 1.160 . S
O99 C98 1.297 1_455 S
O99 Cd100 2.241 . S
Cd100 O99 2.241 . S
Cd100 O104 2.273 . S
Cd100 O108 2.277 . S
O101 C98 1.160 . S
O101 Cd102 2.203 1_655 S
Cd102 O101 2.203 1_455 S
Cd102 O104 2.411 . S
Cd102 O105 2.333 . S
Cd102 O106 2.352 . S
Cd102 O110 2.277 . S
Cd102 O111 2.356 . S
C103 O108 1.209 . S
C103 O110 1.226 . S
O104 Cd100 2.273 . S
O104 Cd102 2.411 . S
O104 C107 1.320 . S
O105 Cd102 2.333 . S
O105 C107 1.214 . S
O106 Cd102 2.352 . S
O106 C109 1.258 . S
C107 O104 1.320 . S
C107 O105 1.214 . S
O108 Cd100 2.277 . S
O108 C103 1.209 . S
C109 O106 1.258 . S
C109 O111 1.282 . S
O110 Cd102 2.277 . S
O110 C103 1.226 . S
O111 Cd102 2.356 . S
O111 C109 1.282 . S
C112 O113 1.306 . S
C112 O115 1.160 . S
O113 C112 1.306 . S
O113 Cd114 2.228 . S
Cd114 O113 2.228 . S
Cd114 O118 2.273 . S
Cd114 O122 2.277 . S
O115 C112 1.160 . S
O115 Cd116 2.203 . S
Cd116 O115 2.203 . S
Cd116 O118 2.411 . S
Cd116 O119 2.333 . S
Cd116 O120 2.352 . S
Cd116 O124 2.277 . S
Cd116 O125 2.356 . S
C117 O122 1.209 . S
C117 O124 1.226 . S
O118 Cd114 2.273 . S
O118 Cd116 2.411 . S
O118 C121 1.320 . S
O119 Cd116 2.333 . S
O119 C121 1.214 . S
O120 Cd116 2.352 . S
O120 C123 1.258 . S
C121 O118 1.320 . S
C121 O119 1.214 . S
O122 Cd114 2.277 . S
O122 C117 1.209 . S
C123 O120 1.258 . S
C123 O125 1.282 . S
O124 Cd116 2.277 . S
O124 C117 1.226 . S
O125 Cd116 2.356 . S
O125 C123 1.282 . S
C126 O127 1.306 . S
C126 O129 1.160 . S
O127 C126 1.306 . S
O127 Cd128 2.228 . S
Cd128 O127 2.228 . S
Cd128 O132 2.273 . S
Cd128 O136 2.277 . S
O129 C126 1.160 . S
O129 Cd130 2.203 . S
Cd130 O129 2.203 . S
Cd130 O132 2.411 . S
Cd130 O133 2.333 . S
Cd130 O134 2.352 . S
Cd130 O138 2.277 . S
Cd130 O139 2.356 . S
C131 O136 1.209 . S
C131 O138 1.226 . S
O132 Cd128 2.273 . S
O132 Cd130 2.411 . S
O132 C135 1.320 . S
O133 Cd130 2.333 . S
O133 C135 1.214 . S
O134 Cd130 2.352 . S
O134 C137 1.258 . S
C135 O132 1.320 . S
C135 O133 1.214 . S
O136 Cd128 2.277 . S
O136 C131 1.209 . S
C137 O134 1.258 . S
C137 O139 1.282 . S
O138 Cd130 2.277 . S
O138 C131 1.226 . S
O139 Cd130 2.356 . S
O139 C137 1.282 . S
C140 O141 1.306 . S
C140 O143 1.160 . S
O141 C140 1.306 . S
O141 Cd142 2.228 . S
Cd142 O141 2.228 . S
Cd142 O146 2.273 . S
Cd142 O150 2.277 . S
O143 C140 1.160 . S
O143 Cd144 2.203 . S
Cd144 O143 2.203 . S
Cd144 O146 2.411 . S
Cd144 O147 2.333 . S
Cd144 O148 2.352 1_545 S
Cd144 O152 2.277 . S
Cd144 O153 2.356 . S
C145 O150 1.209 . S
C145 O152 1.226 . S
O146 Cd142 2.273 . S
O146 Cd144 2.411 . S
O146 C149 1.320 . S
O147 Cd144 2.333 . S
O147 C149 1.214 . S
O148 Cd144 2.352 1_565 S
O148 C151 1.258 . S
C149 O146 1.320 . S
C149 O147 1.214 . S
O150 Cd142 2.277 . S
O150 C145 1.209 . S
C151 O148 1.258 . S
C151 O153 1.282 1_565 S
O152 Cd144 2.277 . S
O152 C145 1.226 . S
O153 Cd144 2.356 . S
O153 C151 1.282 1_545 S
C154 O155 1.306 . S
C154 O157 1.160 . S
O155 C154 1.306 . S
O155 Cd156 2.228 . S
Cd156 O155 2.228 . S
Cd156 O160 2.273 . S
Cd156 O164 2.277 . S
O157 C154 1.160 . S
O157 Cd158 2.203 . S
Cd158 O157 2.203 . S
Cd158 O160 2.411 . S
Cd158 O161 2.333 . S
Cd158 O162 2.352 . S
Cd158 O166 2.277 . S
Cd158 O167 2.356 . S
C159 O164 1.209 . S
C159 O166 1.226 . S
O160 Cd156 2.273 . S
O160 Cd158 2.411 . S
O160 C163 1.320 . S
O161 Cd158 2.333 . S
O161 C163 1.214 . S
O162 Cd158 2.352 . S
O162 C165 1.258 . S
C163 O160 1.320 . S
C163 O161 1.214 . S
O164 Cd156 2.277 . S
O164 C159 1.209 . S
C165 O162 1.258 . S
C165 O167 1.282 . S
O166 Cd158 2.277 . S
O166 C159 1.226 . S
O167 Cd158 2.356 . S
O167 C165 1.282 . S
C168 O169 1.306 . S
C168 O171 1.160 . S
O169 C168 1.306 . S
O169 Cd170 2.228 . S
Cd170 O169 2.228 . S
Cd170 O174 2.273 . S
Cd170 O178 2.277 . S
O171 C168 1.160 . S
O171 Cd172 2.203 . S
Cd172 O171 2.203 . S
Cd172 O174 2.411 . S
Cd172 O175 2.333 . S
Cd172 O176 2.352 . S
Cd172 O180 2.277 . S
Cd172 O181 2.356 . S
C173 O178 1.209 . S
C173 O180 1.226 . S
O174 Cd170 2.273 . S
O174 Cd172 2.411 . S
O174 C177 1.320 . S
O175 Cd172 2.333 . S
O175 C177 1.214 . S
O176 Cd172 2.352 . S
O176 C179 1.258 . S
C177 O174 1.320 . S
C177 O175 1.214 . S
O178 Cd170 2.277 . S
O178 C173 1.209 . S
C179 O176 1.258 . S
C179 O181 1.282 . S
O180 Cd172 2.277 . S
O180 C173 1.226 . S
O181 Cd172 2.356 . S
O181 C179 1.282 . S
C182 O183 1.306 . S
C182 O185 1.160 . S
O183 C182 1.306 . S
O183 Cd184 2.228 . S
Cd184 O183 2.228 . S
Cd184 O188 2.273 . S
Cd184 O192 2.277 . S
O185 C182 1.160 . S
O185 Cd186 2.203 . S
Cd186 O185 2.203 . S
Cd186 O188 2.411 . S
Cd186 O189 2.333 . S
Cd186 O190 2.352 1_554 S
Cd186 O194 2.277 . S
Cd186 O195 2.356 . S
C187 O192 1.209 . S
C187 O194 1.226 . S
O188 Cd184 2.273 . S
O188 Cd186 2.411 . S
O188 C191 1.320 . S
O189 Cd186 2.333 . S
O189 C191 1.214 . S
O190 Cd186 2.352 1_556 S
O190 C193 1.258 . S
C191 O188 1.320 . S
C191 O189 1.214 . S
O192 Cd184 2.277 . S
O192 C187 1.209 . S
C193 O190 1.258 . S
C193 O195 1.282 1_556 S
O194 Cd186 2.277 . S
O194 C187 1.226 . S
O195 Cd186 2.356 . S
O195 C193 1.282 1_554 S
C196 O197 1.306 . S
C196 O199 1.160 . S
O197 C196 1.306 . S
O197 Cd198 2.228 . S
Cd198 O197 2.228 . S
Cd198 O202 2.273 . S
Cd198 O206 2.277 . S
O199 C196 1.160 . S
O199 Cd200 2.203 . S
Cd200 O199 2.203 . S
Cd200 O202 2.411 . S
Cd200 O203 2.333 . S
Cd200 O204 2.352 . S
Cd200 O208 2.277 . S
Cd200 O209 2.356 . S
C201 O206 1.209 . S
C201 O208 1.226 . S
O202 Cd198 2.273 . S
O202 Cd200 2.411 . S
O202 C205 1.320 . S
O203 Cd200 2.333 . S
O203 C205 1.214 . S
O204 Cd200 2.352 . S
O204 C207 1.258 . S
C205 O202 1.320 . S
C205 O203 1.214 . S
O206 Cd198 2.277 . S
O206 C201 1.209 . S
C207 O204 1.258 . S
C207 O209 1.282 . S
O208 Cd200 2.277 . S
O208 C201 1.226 . S
O209 Cd200 2.356 . S
O209 C207 1.282 . S
C210 O211 1.306 . S
C210 O213 1.160 . S
O211 C210 1.306 . S
O211 Cd212 2.228 . S
Cd212 O211 2.228 . S
Cd212 O216 2.273 . S
Cd212 O220 2.277 . S
O213 C210 1.160 . S
O213 Cd214 2.203 . S
Cd214 O213 2.203 . S
Cd214 O216 2.411 . S
Cd214 O217 2.333 . S
Cd214 O218 2.352 . S
Cd214 O222 2.277 . S
Cd214 O223 2.356 . S
C215 O220 1.209 . S
C215 O222 1.226 . S
O216 Cd212 2.273 . S
O216 Cd214 2.411 . S
O216 C219 1.320 . S
O217 Cd214 2.333 . S
O217 C219 1.214 . S
O218 Cd214 2.352 . S
O218 C221 1.258 . S
C219 O216 1.320 . S
C219 O217 1.214 . S
O220 Cd212 2.277 . S
O220 C215 1.209 . S
C221 O218 1.258 . S
C221 O223 1.282 . S
O222 Cd214 2.277 . S
O222 C215 1.226 . S
O223 Cd214 2.356 . S
O223 C221 1.282 . S
C224 O225 1.306 . S
C224 O227 1.160 . S
O225 C224 1.306 . S
O225 Cd226 2.228 . S
Cd226 O225 2.228 . S
Cd226 O230 2.273 . S
Cd226 O234 2.277 . S
O227 C224 1.160 . S
O227 Cd228 2.203 . S
Cd228 O227 2.203 . S
Cd228 O230 2.411 . S
Cd228 O231 2.333 . S
Cd228 O232 2.352 . S
Cd228 O236 2.277 . S
Cd228 O237 2.356 . S
C229 O234 1.209 . S
C229 O236 1.226 . S
O230 Cd226 2.273 . S
O230 Cd228 2.411 . S
O230 C233 1.320 . S
O231 Cd228 2.333 . S
O231 C233 1.214 . S
O232 Cd228 2.352 . S
O232 C235 1.258 . S
C233 O230 1.320 . S
C233 O231 1.214 . S
O234 Cd226 2.277 . S
O234 C229 1.209 . S
C235 O232 1.258 . S
C235 O237 1.282 . S
O236 Cd228 2.277 . S
O236 C229 1.226 . S
O237 Cd228 2.356 . S
O237 C235 1.282 . S
C238 O239 1.306 . S
C238 O241 1.160 . S
O239 C238 1.306 . S
O239 Cd240 2.228 . S
Cd240 O239 2.228 . S
Cd240 O244 2.273 . S
Cd240 O248 2.277 . S
O241 C238 1.160 . S
O241 Cd242 2.203 . S
Cd242 O241 2.203 . S
Cd242 O244 2.411 . S
Cd242 O245 2.333 . S
Cd242 O246 2.352 . S
Cd242 O250 2.277 . S
Cd242 O251 2.356 . S
C243 O248 1.209 . S
C243 O250 1.226 . S
O244 Cd240 2.273 . S
O244 Cd242 2.411 . S
O244 C247 1.320 . S
O245 Cd242 2.333 . S
O245 C247 1.214 . S
O246 Cd242 2.352 . S
O246 C249 1.258 . S
C247 O244 1.320 . S
C247 O245 1.214 . S
O248 Cd240 2.277 . S
O248 C243 1.209 . S
C249 O246 1.258 . S
C249 O251 1.282 . S
O250 Cd242 2.277 . S
O250 C243 1.226 . S
O251 Cd242 2.356 . S
O251 C249 1.282 . S
C252 O253 1.306 . S
C252 O255 1.160 . S
O253 C252 1.306 . S
O253 Cd254 2.228 . S
Cd254 O253 2.228 . S
Cd254 O258 2.273 . S
Cd254 O262 2.277 . S
O255 C252 1.160 . S
O255 Cd256 2.203 . S
Cd256 O255 2.203 . S
Cd256 O258 2.411 . S
Cd256 O259 2.333 . S
Cd256 O260 2.352 . S
Cd256 O264 2.277 . S
Cd256 O265 2.356 . S
C257 O262 1.209 . S
C257 O264 1.226 . S
O258 Cd254 2.273 . S
O258 Cd256 2.411 . S
O258 C261 1.320 . S
O259 Cd256 2.333 . S
O259 C261 1.214 . S
O260 Cd256 2.352 . S
O260 C263 1.258 . S
C261 O258 1.320 . S
C261 O259 1.214 . S
O262 Cd254 2.277 . S
O262 C257 1.209 . S
C263 O260 1.258 . S
C263 O265 1.282 . S
O264 Cd256 2.277 . S
O264 C257 1.226 . S
O265 Cd256 2.356 . S
O265 C263 1.282 . S
C266 O267 1.306 . S
C266 O269 1.160 . S
O267 C266 1.306 . S
O267 Cd268 2.228 . S
Cd268 O267 2.228 . S
Cd268 O272 2.273 1_545 S
Cd268 O276 2.277 . S
O269 C266 1.160 . S
O269 Cd270 2.204 1_545 S
Cd270 O269 2.204 1_565 S
Cd270 O272 2.407 . S
Cd270 O273 2.331 . S
Cd270 O274 2.371 . S
Cd270 O278 2.262 1_565 S
Cd270 O279 2.370 . S
C271 O276 1.209 . S
C271 O278 1.226 . S
O272 Cd268 2.273 1_565 S
O272 Cd270 2.407 . S
O272 C275 1.320 . S
O273 Cd270 2.331 . S
O273 C275 1.214 . S
O274 Cd270 2.371 . S
O274 C277 1.258 . S
C275 O272 1.320 . S
C275 O273 1.214 . S
O276 Cd268 2.277 . S
O276 C271 1.209 . S
C277 O274 1.258 . S
C277 O279 1.282 . S
O278 Cd270 2.262 1_545 S
O278 C271 1.226 . S
O279 Cd270 2.370 . S
O279 C277 1.282 . S
C280 O281 1.306 . S
C280 O283 1.160 1_554 S
O281 C280 1.306 . S
O281 Cd282 2.228 . S
Cd282 O281 2.228 . S
Cd282 O286 2.273 1_554 S
Cd282 O290 2.277 . S
O283 C280 1.160 1_556 S
O283 Cd284 2.203 . S
Cd284 O283 2.203 . S
Cd284 O286 2.411 . S
Cd284 O287 2.333 . S
Cd284 O288 2.352 . S
Cd284 O292 2.277 1_556 S
Cd284 O293 2.356 . S
C285 O290 1.209 . S
C285 O292 1.226 . S
O286 Cd282 2.273 1_556 S
O286 Cd284 2.411 . S
O286 C289 1.320 . S
O287 Cd284 2.333 . S
O287 C289 1.214 . S
O288 Cd284 2.352 . S
O288 C291 1.258 . S
C289 O286 1.320 . S
C289 O287 1.214 . S
O290 Cd282 2.277 . S
O290 C285 1.209 . S
C291 O288 1.258 . S
C291 O293 1.282 . S
O292 Cd284 2.277 1_554 S
O292 C285 1.226 . S
O293 Cd284 2.356 . S
O293 C291 1.282 . S
C294 O295 1.306 . S
C294 O297 1.160 . S
O295 C294 1.306 . S
O295 Cd296 2.228 . S
Cd296 O295 2.228 . S
Cd296 O300 2.273 . S
Cd296 O304 2.277 . S
O297 C294 1.160 . S
O297 Cd298 2.203 . S
Cd298 O297 2.203 . S
Cd298 O300 2.411 . S
Cd298 O301 2.333 . S
Cd298 O302 2.352 . S
Cd298 O306 2.277 . S
Cd298 O307 2.356 . S
C299 O304 1.209 . S
C299 O306 1.226 . S
O300 Cd296 2.273 . S
O300 Cd298 2.411 . S
O300 C303 1.320 . S
O301 Cd298 2.333 . S
O301 C303 1.214 . S
O302 Cd298 2.352 . S
O302 C305 1.258 . S
C303 O300 1.320 . S
C303 O301 1.214 . S
O304 Cd296 2.277 . S
O304 C299 1.209 . S
C305 O302 1.258 . S
C305 O307 1.282 . S
O306 Cd298 2.277 . S
O306 C299 1.226 . S
O307 Cd298 2.356 . S
O307 C305 1.282 . S
C308 O309 1.306 . S
C308 O311 1.160 . S
O309 C308 1.306 . S
O309 Cd310 2.228 . S
Cd310 O309 2.228 . S
Cd310 O314 2.273 . S
Cd310 O318 2.277 . S
O311 C308 1.160 . S
O311 Cd312 2.203 . S
Cd312 O311 2.203 . S
Cd312 O314 2.411 . S
Cd312 O315 2.333 . S
Cd312 O316 2.352 . S
Cd312 O320 2.277 . S
Cd312 O321 2.356 . S
C313 O318 1.209 . S
C313 O320 1.226 . S
O314 Cd310 2.273 . S
O314 Cd312 2.411 . S
O314 C317 1.320 . S
O315 Cd312 2.333 . S
O315 C317 1.214 . S
O316 Cd312 2.352 . S
O316 C319 1.258 . S
C317 O314 1.320 . S
C317 O315 1.214 . S
O318 Cd310 2.277 . S
O318 C313 1.209 . S
C319 O316 1.258 . S
C319 O321 1.282 . S
O320 Cd312 2.277 . S
O320 C313 1.226 . S
O321 Cd312 2.356 . S
O321 C319 1.282 . S
C322 O323 1.306 . S
C322 O325 1.160 . S
O323 C322 1.306 . S
O323 Cd324 2.228 . S
Cd324 O323 2.228 . S
Cd324 O328 2.273 . S
Cd324 O332 2.277 . S
O325 C322 1.160 . S
O325 Cd326 2.203 . S
Cd326 O325 2.203 . S
Cd326 O328 2.411 . S
Cd326 O329 2.333 . S
Cd326 O330 2.352 . S
Cd326 O334 2.277 . S
Cd326 O335 2.356 . S
C327 O332 1.209 . S
C327 O334 1.226 . S
O328 Cd324 2.273 . S
O328 Cd326 2.411 . S
O328 C331 1.320 . S
O329 Cd326 2.333 . S
O329 C331 1.214 . S
O330 Cd326 2.352 . S
O330 C333 1.258 . S
C331 O328 1.320 . S
C331 O329 1.214 . S
O332 Cd324 2.277 . S
O332 C327 1.209 . S
C333 O330 1.258 . S
C333 O335 1.282 . S
O334 Cd326 2.277 . S
O334 C327 1.226 . S
O335 Cd326 2.356 . S
O335 C333 1.282 . S
Nd336 C338 2.836 . S
Nd336 O356 2.500 . S
Nd336 O357 2.492 . S
Nd336 O358 2.487 . S
Nd336 O359 2.682 . S
Nd336 O360 2.410 . S
Nd336 O365 2.414 . S
Nd336 O367 2.424 . S
Nd337 C347 2.836 1_545 S
Nd337 O359 2.414 . S
Nd337 O361 2.424 1_455 S
Nd337 O362 2.500 1_545 S
Nd337 O363 2.495 . S
Nd337 O364 2.487 . S
Nd337 O365 2.682 . S
Nd337 O366 2.410 . S
C338 Nd336 2.836 . S
C338 C339 1.498 . S
C338 O356 1.258 . S
C338 O357 1.239 . S
C339 C338 1.498 . S
C339 C340 1.366 . S
C339 C344 1.407 . S
C340 C339 1.366 . S
C340 C341 1.392 . S
C340 H368 0.930 . S
C341 C340 1.392 . S
C341 C342 1.398 . S
C341 H369 0.929 . S
C342 C341 1.398 . S
C342 C343 1.352 . S
C343 C342 1.352 . S
C343 C344 1.384 . S
C343 H370 0.930 . S
C344 C339 1.407 . S
C344 C343 1.384 . S
C344 H371 0.929 . S
C345 O358 1.241 . S
C345 O359 1.273 . S
C346 O360 1.251 1_655 S
C346 O361 1.268 . S
C347 Nd337 2.836 1_565 S
C347 C348 1.498 . S
C347 O362 1.258 . S
C347 O363 1.237 1_565 S
C348 C347 1.498 . S
C348 C349 1.366 . S
C348 C353 1.407 . S
C349 C348 1.366 . S
C349 C350 1.392 . S
C349 H372 0.930 . S
C350 C349 1.392 . S
C350 C351 1.398 . S
C350 H373 0.929 . S
C351 C350 1.398 . S
C351 C352 1.352 . S
C352 C351 1.352 . S
C352 C353 1.384 . S
C352 H374 0.930 . S
C353 C348 1.407 . S
C353 C352 1.384 . S
C353 H375 0.922 1_455 S
C354 O364 1.241 . S
C354 O365 1.273 . S
C355 O366 1.251 . S
C355 O367 1.268 . S
O356 Nd336 2.500 . S
O356 C338 1.258 . S
O357 Nd336 2.492 . S
O357 C338 1.239 . S
O358 Nd336 2.487 . S
O358 C345 1.241 . S
O359 Nd336 2.682 . S
O359 Nd337 2.414 . S
O359 C345 1.273 . S
O360 Nd336 2.410 . S
O360 C346 1.251 1_455 S
O361 Nd337 2.424 1_655 S
O361 C346 1.268 . S
O362 Nd337 2.500 1_565 S
O362 C347 1.258 . S
O363 Nd337 2.495 . S
O363 C347 1.237 1_545 S
O364 Nd337 2.487 . S
O364 C354 1.241 . S
O365 Nd336 2.414 . S
O365 Nd337 2.682 . S
O365 C354 1.273 . S
O366 Nd337 2.410 . S
O366 C355 1.251 . S
O367 Nd336 2.424 . S
O367 C355 1.268 . S
H368 C340 0.930 . S
H369 C341 0.929 . S
H370 C343 0.930 . S
H371 C344 0.929 . S
H372 C349 0.930 . S
H373 C350 0.929 . S
H374 C352 0.930 . S
H375 C353 0.922 1_655 S
Nd376 C378 2.836 . S
Nd376 O396 2.500 . S
Nd376 O397 2.492 . S
Nd376 O398 2.487 . S
Nd376 O399 2.682 . S
Nd376 O400 2.410 . S
Nd376 O405 2.414 . S
Nd376 O407 2.424 . S
Nd377 C387 2.836 . S
Nd377 O399 2.414 . S
Nd377 O401 2.424 . S
Nd377 O402 2.500 . S
Nd377 O403 2.492 . S
Nd377 O404 2.487 . S
Nd377 O405 2.682 . S
Nd377 O406 2.410 . S
C378 Nd376 2.836 . S
C378 C379 1.498 . S
C378 O396 1.258 . S
C378 O397 1.239 . S
C379 C378 1.498 . S
C379 C380 1.366 . S
C379 C384 1.407 . S
C380 C379 1.366 . S
C380 C381 1.392 . S
C380 H408 0.930 . S
C381 C380 1.392 . S
C381 C382 1.398 . S
C381 H409 0.929 . S
C382 C381 1.398 . S
C382 C383 1.352 . S
C383 C382 1.352 . S
C383 C384 1.384 . S
C383 H410 0.930 . S
C384 C379 1.407 . S
C384 C383 1.384 . S
C384 H411 0.929 . S
C385 O398 1.241 . S
C385 O399 1.273 . S
C386 O400 1.251 . S
C386 O401 1.268 . S
C387 Nd377 2.836 . S
C387 C388 1.498 . S
C387 O402 1.258 . S
C387 O403 1.239 . S
C388 C387 1.498 . S
C388 C389 1.366 . S
C388 C393 1.407 . S
C389 C388 1.366 . S
C389 C390 1.392 . S
C389 H412 0.930 . S
C390 C389 1.392 . S
C390 C391 1.398 . S
C390 H413 0.929 . S
C391 C390 1.398 . S
C391 C392 1.352 . S
C392 C391 1.352 . S
C392 C393 1.384 . S
C392 H414 0.930 . S
C393 C388 1.407 . S
C393 C392 1.384 . S
C393 H415 0.929 . S
C394 O404 1.241 . S
C394 O405 1.273 . S
C395 O406 1.251 . S
C395 O407 1.268 . S
O396 Nd376 2.500 . S
O396 C378 1.258 . S
O397 Nd376 2.492 . S
O397 C378 1.239 . S
O398 Nd376 2.487 . S
O398 C385 1.241 . S
O399 Nd376 2.682 . S
O399 Nd377 2.414 . S
O399 C385 1.273 . S
O400 Nd376 2.410 . S
O400 C386 1.251 . S
O401 Nd377 2.424 . S
O401 C386 1.268 . S
O402 Nd377 2.500 . S
O402 C387 1.258 . S
O403 Nd377 2.492 . S
O403 C387 1.239 . S
O404 Nd377 2.487 . S
O404 C394 1.241 . S
O405 Nd376 2.414 . S
O405 Nd377 2.682 . S
O405 C394 1.273 . S
O406 Nd377 2.410 . S
O406 C395 1.251 . S
O407 Nd376 2.424 . S
O407 C395 1.268 . S
H408 C380 0.930 . S
H409 C381 0.929 . S
H410 C383 0.930 . S
H411 C384 0.929 . S
H412 C389 0.930 . S
H413 C390 0.929 . S
H414 C392 0.930 . S
H415 C393 0.929 . S
Nd416 C418 2.836 . S
Nd416 O436 2.500 . S
Nd416 O437 2.492 . S
Nd416 O438 2.487 . S
Nd416 O439 2.682 . S
Nd416 O440 2.410 . S
Nd416 O445 2.414 . S
Nd416 O447 2.424 . S
Nd417 C427 2.836 . S
Nd417 O439 2.414 . S
Nd417 O441 2.424 . S
Nd417 O442 2.500 . S
Nd417 O443 2.492 . S
Nd417 O444 2.487 . S
Nd417 O445 2.682 . S
Nd417 O446 2.410 . S
C418 Nd416 2.836 . S
C418 C419 1.498 . S
C418 O436 1.258 . S
C418 O437 1.239 . S
C419 C418 1.498 . S
C419 C420 1.366 . S
C419 C424 1.407 . S
C420 C419 1.366 . S
C420 C421 1.392 . S
C420 H448 0.930 . S
C421 C420 1.392 . S
C421 C422 1.398 . S
C421 H449 0.929 . S
C422 C421 1.398 . S
C422 C423 1.352 . S
C423 C422 1.352 . S
C423 C424 1.384 . S
C423 H450 0.930 . S
C424 C419 1.407 . S
C424 C423 1.384 . S
C424 H451 0.929 . S
C425 O438 1.241 . S
C425 O439 1.273 . S
C426 O440 1.251 . S
C426 O441 1.268 . S
C427 Nd417 2.836 . S
C427 C428 1.498 . S
C427 O442 1.258 . S
C427 O443 1.239 . S
C428 C427 1.498 . S
C428 C429 1.366 . S
C428 C433 1.407 . S
C429 C428 1.366 . S
C429 C430 1.392 . S
C429 H452 0.930 . S
C430 C429 1.392 . S
C430 C431 1.398 . S
C430 H453 0.929 . S
C431 C430 1.398 . S
C431 C432 1.352 . S
C432 C431 1.352 . S
C432 C433 1.384 . S
C432 H454 0.930 . S
C433 C428 1.407 . S
C433 C432 1.384 . S
C433 H455 0.929 . S
C434 O444 1.241 . S
C434 O445 1.273 . S
C435 O446 1.251 . S
C435 O447 1.268 . S
O436 Nd416 2.500 . S
O436 C418 1.258 . S
O437 Nd416 2.492 . S
O437 C418 1.239 . S
O438 Nd416 2.487 . S
O438 C425 1.241 . S
O439 Nd416 2.682 . S
O439 Nd417 2.414 . S
O439 C425 1.273 . S
O440 Nd416 2.410 . S
O440 C426 1.251 . S
O441 Nd417 2.424 . S
O441 C426 1.268 . S
O442 Nd417 2.500 . S
O442 C427 1.258 . S
O443 Nd417 2.492 . S
O443 C427 1.239 . S
O444 Nd417 2.487 . S
O444 C434 1.241 . S
O445 Nd416 2.414 . S
O445 Nd417 2.682 . S
O445 C434 1.273 . S
O446 Nd417 2.410 . S
O446 C435 1.251 . S
O447 Nd416 2.424 . S
O447 C435 1.268 . S
H448 C420 0.930 . S
H449 C421 0.929 . S
H450 C423 0.930 . S
H451 C424 0.929 . S
H452 C429 0.930 . S
H453 C430 0.929 . S
H454 C432 0.930 . S
H455 C433 0.929 . S
Nd456 C458 2.836 . S
Nd456 O476 2.500 . S
Nd456 O477 2.492 . S
Nd456 O478 2.487 . S
Nd456 O479 2.682 . S
Nd456 O480 2.410 . S
Nd456 O485 2.414 . S
Nd456 O487 2.424 . S
Nd457 C467 2.836 . S
Nd457 O479 2.414 . S
Nd457 O481 2.424 . S
Nd457 O482 2.500 . S
Nd457 O483 2.492 . S
Nd457 O484 2.487 . S
Nd457 O485 2.682 . S
Nd457 O486 2.410 . S
C458 Nd456 2.836 . S
C458 C459 1.498 . S
C458 O476 1.258 . S
C458 O477 1.239 . S
C459 C458 1.498 . S
C459 C460 1.366 . S
C459 C464 1.407 . S
C460 C459 1.366 . S
C460 C461 1.392 . S
C460 H488 0.930 . S
C461 C460 1.392 . S
C461 C462 1.398 . S
C461 H489 0.929 . S
C462 C461 1.398 . S
C462 C463 1.352 . S
C463 C462 1.352 . S
C463 C464 1.384 . S
C463 H490 0.930 . S
C464 C459 1.407 . S
C464 C463 1.384 . S
C464 H491 0.929 . S
C465 O478 1.241 . S
C465 O479 1.273 . S
C466 O480 1.251 . S
C466 O481 1.268 . S
C467 Nd457 2.836 . S
C467 C468 1.498 . S
C467 O482 1.258 . S
C467 O483 1.239 . S
C468 C467 1.498 . S
C468 C469 1.366 . S
C468 C473 1.407 . S
C469 C468 1.366 . S
C469 C470 1.392 . S
C469 H492 0.930 . S
C470 C469 1.392 . S
C470 C471 1.398 . S
C470 H493 0.929 . S
C471 C470 1.398 . S
C471 C472 1.352 . S
C472 C471 1.352 . S
C472 C473 1.384 . S
C472 H494 0.930 . S
C473 C468 1.407 . S
C473 C472 1.384 . S
C473 H495 0.929 . S
C474 O484 1.241 . S
C474 O485 1.273 . S
C475 O486 1.251 . S
C475 O487 1.268 . S
O476 Nd456 2.500 . S
O476 C458 1.258 . S
O477 Nd456 2.492 . S
O477 C458 1.239 . S
O478 Nd456 2.487 . S
O478 C465 1.241 . S
O479 Nd456 2.682 . S
O479 Nd457 2.414 . S
O479 C465 1.273 . S
O480 Nd456 2.410 . S
O480 C466 1.251 . S
O481 Nd457 2.424 . S
O481 C466 1.268 . S
O482 Nd457 2.500 . S
O482 C467 1.258 . S
O483 Nd457 2.492 . S
O483 C467 1.239 . S
O484 Nd457 2.487 . S
O484 C474 1.241 . S
O485 Nd456 2.414 . S
O485 Nd457 2.682 . S
O485 C474 1.273 . S
O486 Nd457 2.410 . S
O486 C475 1.251 . S
O487 Nd456 2.424 . S
O487 C475 1.268 . S
H488 C460 0.930 . S
H489 C461 0.929 . S
H490 C463 0.930 . S
H491 C464 0.929 . S
H492 C469 0.930 . S
H493 C470 0.929 . S
H494 C472 0.930 . S
H495 C473 0.929 . S
Nd496 C498 2.836 . S
Nd496 O516 2.500 . S
Nd496 O517 2.492 . S
Nd496 O518 2.487 . S
Nd496 O519 2.682 . S
Nd496 O520 2.410 . S
Nd496 O525 2.414 . S
Nd496 O527 2.424 . S
Nd497 C507 2.836 1_545 S
Nd497 O519 2.414 . S
Nd497 O521 2.424 . S
Nd497 O522 2.500 . S
Nd497 O523 2.492 1_545 S
Nd497 O524 2.487 1_455 S
Nd497 O525 2.682 . S
Nd497 O526 2.410 . S
C498 Nd496 2.836 . S
C498 C499 1.498 . S
C498 O516 1.258 . S
C498 O517 1.239 . S
C499 C498 1.498 . S
C499 C500 1.366 1_455 S
C499 C504 1.407 . S
C500 C499 1.366 1_655 S
C500 C501 1.392 . S
C500 H528 0.930 . S
C501 C500 1.392 . S
C501 C502 1.397 1_655 S
C501 H529 0.929 . S
C502 C501 1.397 1_455 S
C502 C503 1.355 . S
C503 C502 1.355 . S
C503 C504 1.384 . S
C503 H530 0.930 . S
C504 C499 1.407 . S
C504 C503 1.384 . S
C504 H531 0.929 . S
C505 O518 1.241 . S
C505 O519 1.273 . S
C506 O520 1.251 . S
C506 O521 1.268 . S
C507 Nd497 2.836 1_565 S
C507 C508 1.498 . S
C507 O522 1.258 1_565 S
C507 O523 1.239 . S
C508 C507 1.498 . S
C508 C509 1.366 . S
C508 C513 1.407 . S
C509 C508 1.366 . S
C509 C510 1.392 . S
C509 H532 0.930 . S
C510 C509 1.392 . S
C510 C511 1.398 . S
C510 H533 0.929 . S
C511 C510 1.398 . S
C511 C512 1.352 . S
C512 C511 1.352 . S
C512 C513 1.384 . S
C512 H534 0.930 . S
C513 C508 1.407 . S
C513 C512 1.384 . S
C513 H535 0.929 . S
C514 O524 1.241 . S
C514 O525 1.273 1_655 S
C515 O526 1.251 . S
C515 O527 1.268 . S
O516 Nd496 2.500 . S
O516 C498 1.258 . S
O517 Nd496 2.492 . S
O517 C498 1.239 . S
O518 Nd496 2.487 . S
O518 C505 1.241 . S
O519 Nd496 2.682 . S
O519 Nd497 2.414 . S
O519 C505 1.273 . S
O520 Nd496 2.410 . S
O520 C506 1.251 . S
O521 Nd497 2.424 . S
O521 C506 1.268 . S
O522 Nd497 2.500 . S
O522 C507 1.258 1_545 S
O523 Nd497 2.492 1_565 S
O523 C507 1.239 . S
O524 Nd497 2.487 1_655 S
O524 C514 1.241 . S
O525 Nd496 2.414 . S
O525 Nd497 2.682 . S
O525 C514 1.273 1_455 S
O526 Nd497 2.410 . S
O526 C515 1.251 . S
O527 Nd496 2.424 . S
O527 C515 1.268 . S
H528 C500 0.930 . S
H529 C501 0.929 . S
H530 C503 0.930 . S
H531 C504 0.929 . S
H532 C509 0.930 . S
H533 C510 0.929 . S
H534 C512 0.930 . S
H535 C513 0.929 . S
Nd536 C538 2.836 . S
Nd536 O556 2.500 . S
Nd536 O557 2.492 . S
Nd536 O558 2.487 . S
Nd536 O559 2.682 . S
Nd536 O560 2.410 . S
Nd536 O565 2.414 . S
Nd536 O567 2.424 . S
Nd537 C547 2.836 . S
Nd537 O559 2.414 . S
Nd537 O561 2.424 . S
Nd537 O562 2.500 . S
Nd537 O563 2.492 . S
Nd537 O564 2.487 . S
Nd537 O565 2.682 . S
Nd537 O566 2.410 . S
C538 Nd536 2.836 . S
C538 C539 1.498 . S
C538 O556 1.258 . S
C538 O557 1.239 . S
C539 C538 1.498 . S
C539 C540 1.366 . S
C539 C544 1.407 . S
C540 C539 1.366 . S
C540 C541 1.392 . S
C540 H568 0.930 . S
C541 C540 1.392 . S
C541 C542 1.398 . S
C541 H569 0.929 . S
C542 C541 1.398 . S
C542 C543 1.352 . S
C543 C542 1.352 . S
C543 C544 1.384 . S
C543 H570 0.930 . S
C544 C539 1.407 . S
C544 C543 1.384 . S
C544 H571 0.929 . S
C545 O558 1.241 . S
C545 O559 1.273 . S
C546 O560 1.251 . S
C546 O561 1.268 . S
C547 Nd537 2.836 . S
C547 C548 1.498 . S
C547 O562 1.258 . S
C547 O563 1.239 . S
C548 C547 1.498 . S
C548 C549 1.366 . S
C548 C553 1.407 . S
C549 C548 1.366 . S
C549 C550 1.392 . S
C549 H572 0.930 . S
C550 C549 1.392 . S
C550 C551 1.398 . S
C550 H573 0.929 . S
C551 C550 1.398 . S
C551 C552 1.352 . S
C552 C551 1.352 . S
C552 C553 1.384 . S
C552 H574 0.930 . S
C553 C548 1.407 . S
C553 C552 1.384 . S
C553 H575 0.929 . S
C554 O564 1.241 . S
C554 O565 1.273 . S
C555 O566 1.251 . S
C555 O567 1.268 . S
O556 Nd536 2.500 . S
O556 C538 1.258 . S
O557 Nd536 2.492 . S
O557 C538 1.239 . S
O558 Nd536 2.487 . S
O558 C545 1.241 . S
O559 Nd536 2.682 . S
O559 Nd537 2.414 . S
O559 C545 1.273 . S
O560 Nd536 2.410 . S
O560 C546 1.251 . S
O561 Nd537 2.424 . S
O561 C546 1.268 . S
O562 Nd537 2.500 . S
O562 C547 1.258 . S
O563 Nd537 2.492 . S
O563 C547 1.239 . S
O564 Nd537 2.487 . S
O564 C554 1.241 . S
O565 Nd536 2.414 . S
O565 Nd537 2.682 . S
O565 C554 1.273 . S
O566 Nd537 2.410 . S
O566 C555 1.251 . S
O567 Nd536 2.424 . S
O567 C555 1.268 . S
H568 C540 0.930 . S
H569 C541 0.929 . S
H570 C543 0.930 . S
H571 C544 0.929 . S
H572 C549 0.930 . S
H573 C550 0.929 . S
H574 C552 0.930 . S
H575 C553 0.929 . S
Nd576 C578 2.836 . S
Nd576 O596 2.500 . S
Nd576 O597 2.492 . S
Nd576 O598 2.487 . S
Nd576 O599 2.682 . S
Nd576 O600 2.410 . S
Nd576 O605 2.414 . S
Nd576 O607 2.424 . S
Nd577 C587 2.836 . S
Nd577 O599 2.414 . S
Nd577 O601 2.424 . S
Nd577 O602 2.500 . S
Nd577 O603 2.492 . S
Nd577 O604 2.487 . S
Nd577 O605 2.682 . S
Nd577 O606 2.410 . S
C578 Nd576 2.836 . S
C578 C579 1.498 . S
C578 O596 1.258 . S
C578 O597 1.239 . S
C579 C578 1.498 . S
C579 C580 1.366 . S
C579 C584 1.407 . S
C580 C579 1.366 . S
C580 C581 1.392 . S
C580 H608 0.930 . S
C581 C580 1.392 . S
C581 C582 1.398 . S
C581 H609 0.929 . S
C582 C581 1.398 . S
C582 C583 1.352 . S
C583 C582 1.352 . S
C583 C584 1.384 . S
C583 H610 0.930 1_545 S
C584 C579 1.407 . S
C584 C583 1.384 . S
C584 H611 0.910 1_545 S
C585 O598 1.241 . S
C585 O599 1.273 . S
C586 O600 1.251 . S
C586 O601 1.268 . S
C587 Nd577 2.836 . S
C587 C588 1.498 . S
C587 O602 1.258 . S
C587 O603 1.239 . S
C588 C587 1.498 . S
C588 C589 1.366 . S
C588 C593 1.407 . S
C589 C588 1.366 . S
C589 C590 1.392 . S
C589 H612 0.930 . S
C590 C589 1.392 . S
C590 C591 1.398 . S
C590 H613 0.929 . S
C591 C590 1.398 . S
C591 C592 1.352 . S
C592 C591 1.352 . S
C592 C593 1.384 . S
C592 H614 0.930 . S
C593 C588 1.407 . S
C593 C592 1.384 . S
C593 H615 0.929 . S
C594 O604 1.241 . S
C594 O605 1.273 . S
C595 O606 1.251 . S
C595 O607 1.268 . S
O596 Nd576 2.500 . S
O596 C578 1.258 . S
O597 Nd576 2.492 . S
O597 C578 1.239 . S
O598 Nd576 2.487 . S
O598 C585 1.241 . S
O599 Nd576 2.682 . S
O599 Nd577 2.414 . S
O599 C585 1.273 . S
O600 Nd576 2.410 . S
O600 C586 1.251 . S
O601 Nd577 2.424 . S
O601 C586 1.268 . S
O602 Nd577 2.500 . S
O602 C587 1.258 . S
O603 Nd577 2.492 . S
O603 C587 1.239 . S
O604 Nd577 2.487 . S
O604 C594 1.241 . S
O605 Nd576 2.414 . S
O605 Nd577 2.682 . S
O605 C594 1.273 . S
O606 Nd577 2.410 . S
O606 C595 1.251 . S
O607 Nd576 2.424 . S
O607 C595 1.268 . S
H608 C580 0.930 . S
H609 C581 0.929 . S
H610 C583 0.930 1_565 S
H611 C584 0.910 1_565 S
H612 C589 0.930 . S
H613 C590 0.929 . S
H614 C592 0.930 . S
H615 C593 0.929 . S
Nd616 C618 2.836 . S
Nd616 O636 2.500 . S
Nd616 O637 2.492 . S
Nd616 O638 2.487 . S
Nd616 O639 2.682 . S
Nd616 O640 2.410 . S
Nd616 O645 2.414 . S
Nd616 O647 2.424 . S
Nd617 C627 2.836 . S
Nd617 O639 2.414 . S
Nd617 O641 2.424 . S
Nd617 O642 2.500 . S
Nd617 O643 2.492 . S
Nd617 O644 2.487 . S
Nd617 O645 2.682 . S
Nd617 O646 2.410 . S
C618 Nd616 2.836 . S
C618 C619 1.498 . S
C618 O636 1.258 . S
C618 O637 1.239 . S
C619 C618 1.498 . S
C619 C620 1.366 . S
C619 C624 1.407 . S
C620 C619 1.366 . S
C620 C621 1.392 . S
C620 H648 0.930 . S
C621 C620 1.392 . S
C621 C622 1.398 . S
C621 H649 0.929 . S
C622 C621 1.398 . S
C622 C623 1.352 . S
C623 C622 1.352 . S
C623 C624 1.384 . S
C623 H650 0.930 . S
C624 C619 1.407 . S
C624 C623 1.384 . S
C624 H651 0.929 . S
C625 O638 1.241 . S
C625 O639 1.273 . S
C626 O640 1.251 . S
C626 O641 1.268 . S
C627 Nd617 2.836 . S
C627 C628 1.498 . S
C627 O642 1.258 . S
C627 O643 1.239 . S
C628 C627 1.498 . S
C628 C629 1.366 . S
C628 C633 1.407 . S
C629 C628 1.366 . S
C629 C630 1.392 . S
C629 H652 0.930 . S
C630 C629 1.392 . S
C630 C631 1.398 . S
C630 H653 0.929 . S
C631 C630 1.398 . S
C631 C632 1.352 . S
C632 C631 1.352 . S
C632 C633 1.384 . S
C632 H654 0.930 . S
C633 C628 1.407 . S
C633 C632 1.384 . S
C633 H655 0.929 . S
C634 O644 1.241 . S
C634 O645 1.273 . S
C635 O646 1.251 . S
C635 O647 1.268 . S
O636 Nd616 2.500 . S
O636 C618 1.258 . S
O637 Nd616 2.492 . S
O637 C618 1.239 . S
O638 Nd616 2.487 . S
O638 C625 1.241 . S
O639 Nd616 2.682 . S
O639 Nd617 2.414 . S
O639 C625 1.273 . S
O640 Nd616 2.410 . S
O640 C626 1.251 . S
O641 Nd617 2.424 . S
O641 C626 1.268 . S
O642 Nd617 2.500 . S
O642 C627 1.258 . S
O643 Nd617 2.492 . S
O643 C627 1.239 . S
O644 Nd617 2.487 . S
O644 C634 1.241 . S
O645 Nd616 2.414 . S
O645 Nd617 2.682 . S
O645 C634 1.273 . S
O646 Nd617 2.410 . S
O646 C635 1.251 . S
O647 Nd616 2.424 . S
O647 C635 1.268 . S
H648 C620 0.930 . S
H649 C621 0.929 . S
H650 C623 0.930 . S
H651 C624 0.929 . S
H652 C629 0.930 . S
H653 C630 0.929 . S
H654 C632 0.930 . S
H655 C633 0.929 . S
Nd656 C658 2.836 . S
Nd656 O676 2.500 . S
Nd656 O677 2.492 . S
Nd656 O678 2.487 . S
Nd656 O679 2.682 . S
Nd656 O680 2.410 . S
Nd656 O685 2.414 . S
Nd656 O687 2.424 . S
Nd657 C667 2.836 . S
Nd657 O679 2.414 . S
Nd657 O681 2.424 . S
Nd657 O682 2.500 . S
Nd657 O683 2.492 . S
Nd657 O684 2.487 . S
Nd657 O685 2.682 . S
Nd657 O686 2.410 . S
C658 Nd656 2.836 . S
C658 C659 1.498 . S
C658 O676 1.258 . S
C658 O677 1.239 . S
C659 C658 1.498 . S
C659 C660 1.366 . S
C659 C664 1.407 . S
C660 C659 1.366 . S
C660 C661 1.392 . S
C660 H688 0.930 . S
C661 C660 1.392 . S
C661 C662 1.398 . S
C661 H689 0.929 . S
C662 C661 1.398 . S
C662 C663 1.352 . S
C663 C662 1.352 . S
C663 C664 1.384 . S
C663 H690 0.930 . S
C664 C659 1.407 . S
C664 C663 1.384 . S
C664 H691 0.929 . S
C665 O678 1.241 . S
C665 O679 1.273 . S
C666 O680 1.251 . S
C666 O681 1.268 . S
C667 Nd657 2.836 . S
C667 C668 1.498 . S
C667 O682 1.258 . S
C667 O683 1.239 . S
C668 C667 1.498 . S
C668 C669 1.366 . S
C668 C673 1.407 . S
C669 C668 1.366 . S
C669 C670 1.392 . S
C669 H692 0.930 . S
C670 C669 1.392 . S
C670 C671 1.398 . S
C670 H693 0.929 . S
C671 C670 1.398 . S
C671 C672 1.352 . S
C672 C671 1.352 . S
C672 C673 1.384 . S
C672 H694 0.930 . S
C673 C668 1.407 . S
C673 C672 1.384 . S
C673 H695 0.929 . S
C674 O684 1.241 . S
C674 O685 1.273 . S
C675 O686 1.251 . S
C675 O687 1.268 . S
O676 Nd656 2.500 . S
O676 C658 1.258 . S
O677 Nd656 2.492 . S
O677 C658 1.239 . S
O678 Nd656 2.487 . S
O678 C665 1.241 . S
O679 Nd656 2.682 . S
O679 Nd657 2.414 . S
O679 C665 1.273 . S
O680 Nd656 2.410 . S
O680 C666 1.251 . S
O681 Nd657 2.424 . S
O681 C666 1.268 . S
O682 Nd657 2.500 . S
O682 C667 1.258 . S
O683 Nd657 2.492 . S
O683 C667 1.239 . S
O684 Nd657 2.487 . S
O684 C674 1.241 . S
O685 Nd656 2.414 . S
O685 Nd657 2.682 . S
O685 C674 1.273 . S
O686 Nd657 2.410 . S
O686 C675 1.251 . S
O687 Nd656 2.424 . S
O687 C675 1.268 . S
H688 C660 0.930 . S
H689 C661 0.929 . S
H690 C663 0.930 . S
H691 C664 0.929 . S
H692 C669 0.930 . S
H693 C670 0.929 . S
H694 C672 0.930 . S
H695 C673 0.929 . S
Nd696 C698 2.836 . S
Nd696 O716 2.500 . S
Nd696 O717 2.492 . S
Nd696 O718 2.487 . S
Nd696 O719 2.682 . S
Nd696 O720 2.410 . S
Nd696 O725 2.414 . S
Nd696 O727 2.424 . S
Nd697 C707 2.836 . S
Nd697 O719 2.414 . S
Nd697 O721 2.424 . S
Nd697 O722 2.500 . S
Nd697 O723 2.492 . S
Nd697 O724 2.487 . S
Nd697 O725 2.682 . S
Nd697 O726 2.410 . S
C698 Nd696 2.836 . S
C698 C699 1.498 . S
C698 O716 1.258 . S
C698 O717 1.239 . S
C699 C698 1.498 . S
C699 C700 1.366 . S
C699 C704 1.407 . S
C700 C699 1.366 . S
C700 C701 1.392 . S
C700 H728 0.930 . S
C701 C700 1.392 . S
C701 C702 1.398 . S
C701 H729 0.929 . S
C702 C701 1.398 . S
C702 C703 1.352 . S
C703 C702 1.352 . S
C703 C704 1.384 . S
C703 H730 0.930 . S
C704 C699 1.407 . S
C704 C703 1.384 . S
C704 H731 0.929 . S
C705 O718 1.241 . S
C705 O719 1.273 . S
C706 O720 1.251 . S
C706 O721 1.268 . S
C707 Nd697 2.836 . S
C707 C708 1.498 . S
C707 O722 1.258 . S
C707 O723 1.239 . S
C708 C707 1.498 . S
C708 C709 1.366 . S
C708 C713 1.407 . S
C709 C708 1.366 . S
C709 C710 1.392 . S
C709 H732 0.930 . S
C710 C709 1.392 . S
C710 C711 1.398 . S
C710 H733 0.929 . S
C711 C710 1.398 . S
C711 C712 1.352 . S
C712 C711 1.352 . S
C712 C713 1.384 . S
C712 H734 0.930 . S
C713 C708 1.407 . S
C713 C712 1.384 . S
C713 H735 0.929 . S
C714 O724 1.241 . S
C714 O725 1.273 . S
C715 O726 1.251 . S
C715 O727 1.268 . S
O716 Nd696 2.500 . S
O716 C698 1.258 . S
O717 Nd696 2.492 . S
O717 C698 1.239 . S
O718 Nd696 2.487 . S
O718 C705 1.241 . S
O719 Nd696 2.682 . S
O719 Nd697 2.414 . S
O719 C705 1.273 . S
O720 Nd696 2.410 . S
O720 C706 1.251 . S
O721 Nd697 2.424 . S
O721 C706 1.268 . S
O722 Nd697 2.500 . S
O722 C707 1.258 . S
O723 Nd697 2.492 . S
O723 C707 1.239 . S
O724 Nd697 2.487 . S
O724 C714 1.241 . S
O725 Nd696 2.414 . S
O725 Nd697 2.682 . S
O725 C714 1.273 . S
O726 Nd697 2.410 . S
O726 C715 1.251 . S
O727 Nd696 2.424 . S
O727 C715 1.268 . S
H728 C700 0.930 . S
H729 C701 0.929 . S
H730 C703 0.930 . S
H731 C704 0.929 . S
H732 C709 0.930 . S
H733 C710 0.929 . S
H734 C712 0.930 . S
H735 C713 0.929 . S
Nd736 C738 2.836 . S
Nd736 O756 2.500 . S
Nd736 O757 2.492 . S
Nd736 O758 2.487 1_655 S
Nd736 O759 2.682 1_655 S
Nd736 O760 2.410 . S
Nd736 O765 2.414 1_655 S
Nd736 O767 2.424 1_655 S
Nd737 C747 2.836 . S
Nd737 O759 2.414 . S
Nd737 O761 2.424 . S
Nd737 O762 2.500 . S
Nd737 O763 2.492 . S
Nd737 O764 2.487 . S
Nd737 O765 2.682 . S
Nd737 O766 2.410 . S
C738 Nd736 2.836 . S
C738 C739 1.498 . S
C738 O756 1.258 . S
C738 O757 1.239 . S
C739 C738 1.498 . S
C739 C740 1.366 . S
C739 C744 1.407 . S
C740 C739 1.366 . S
C740 C741 1.392 . S
C740 H768 0.930 . S
C741 C740 1.392 . S
C741 C742 1.398 . S
C741 H769 0.929 . S
C742 C741 1.398 . S
C742 C743 1.352 . S
C743 C742 1.352 . S
C743 C744 1.384 . S
C743 H770 0.930 . S
C744 C739 1.407 . S
C744 C743 1.384 . S
C744 H771 0.929 . S
C745 O758 1.241 . S
C745 O759 1.273 . S
C746 O760 1.251 1_455 S
C746 O761 1.268 . S
C747 Nd737 2.836 . S
C747 C748 1.498 . S
C747 O762 1.258 . S
C747 O763 1.239 . S
C748 C747 1.498 . S
C748 C749 1.366 . S
C748 C753 1.407 . S
C749 C748 1.366 . S
C749 C750 1.392 . S
C749 H772 0.930 . S
C750 C749 1.392 . S
C750 C751 1.398 . S
C750 H773 0.929 . S
C751 C750 1.398 . S
C751 C752 1.352 . S
C752 C751 1.352 . S
C752 C753 1.384 . S
C752 H774 0.930 . S
C753 C748 1.407 . S
C753 C752 1.384 . S
C753 H775 0.929 . S
C754 O764 1.241 . S
C754 O765 1.273 . S
C755 O766 1.251 . S
C755 O767 1.268 . S
O756 Nd736 2.500 . S
O756 C738 1.258 . S
O757 Nd736 2.492 . S
O757 C738 1.239 . S
O758 Nd736 2.487 1_455 S
O758 C745 1.241 . S
O759 Nd736 2.682 1_455 S
O759 Nd737 2.414 . S
O759 C745 1.273 . S
O760 Nd736 2.410 . S
O760 C746 1.251 1_655 S
O761 Nd737 2.424 . S
O761 C746 1.268 . S
O762 Nd737 2.500 . S
O762 C747 1.258 . S
O763 Nd737 2.492 . S
O763 C747 1.239 . S
O764 Nd737 2.487 . S
O764 C754 1.241 . S
O765 Nd736 2.414 1_455 S
O765 Nd737 2.682 . S
O765 C754 1.273 . S
O766 Nd737 2.410 . S
O766 C755 1.251 . S
O767 Nd736 2.424 1_455 S
O767 C755 1.268 . S
H768 C740 0.930 . S
H769 C741 0.929 . S
H770 C743 0.930 . S
H771 C744 0.929 . S
H772 C749 0.930 . S
H773 C750 0.929 . S
H774 C752 0.930 . S
H775 C753 0.929 . S
Nd776 C778 2.836 . S
Nd776 O796 2.500 . S
Nd776 O797 2.492 . S
Nd776 O798 2.487 . S
Nd776 O799 2.682 . S
Nd776 O800 2.410 . S
Nd776 O805 2.414 . S
Nd776 O807 2.424 . S
Nd777 C787 2.836 . S
Nd777 O799 2.414 . S
Nd777 O801 2.424 . S
Nd777 O802 2.500 . S
Nd777 O803 2.492 . S
Nd777 O804 2.487 . S
Nd777 O805 2.682 . S
Nd777 O806 2.410 . S
C778 Nd776 2.836 . S
C778 C779 1.498 . S
C778 O796 1.258 . S
C778 O797 1.239 . S
C779 C778 1.498 . S
C779 C780 1.366 . S
C779 C784 1.407 . S
C780 C779 1.366 . S
C780 C781 1.392 . S
C780 H808 0.930 . S
C781 C780 1.392 . S
C781 C782 1.398 . S
C781 H809 0.929 . S
C782 C781 1.398 . S
C782 C783 1.352 . S
C783 C782 1.352 . S
C783 C784 1.384 . S
C783 H810 0.930 . S
C784 C779 1.407 . S
C784 C783 1.384 . S
C784 H811 0.929 . S
C785 O798 1.241 . S
C785 O799 1.273 . S
C786 O800 1.251 . S
C786 O801 1.268 . S
C787 Nd777 2.836 . S
C787 C788 1.498 . S
C787 O802 1.258 . S
C787 O803 1.239 . S
C788 C787 1.498 . S
C788 C789 1.366 . S
C788 C793 1.407 . S
C789 C788 1.366 . S
C789 C790 1.392 . S
C789 H812 0.930 . S
C790 C789 1.392 . S
C790 C791 1.398 . S
C790 H813 0.929 . S
C791 C790 1.398 . S
C791 C792 1.352 . S
C792 C791 1.352 . S
C792 C793 1.384 . S
C792 H814 0.930 . S
C793 C788 1.407 . S
C793 C792 1.384 . S
C793 H815 0.929 . S
C794 O804 1.241 . S
C794 O805 1.273 . S
C795 O806 1.251 . S
C795 O807 1.268 . S
O796 Nd776 2.500 . S
O796 C778 1.258 . S
O797 Nd776 2.492 . S
O797 C778 1.239 . S
O798 Nd776 2.487 . S
O798 C785 1.241 . S
O799 Nd776 2.682 . S
O799 Nd777 2.414 . S
O799 C785 1.273 . S
O800 Nd776 2.410 . S
O800 C786 1.251 . S
O801 Nd777 2.424 . S
O801 C786 1.268 . S
O802 Nd777 2.500 . S
O802 C787 1.258 . S
O803 Nd777 2.492 . S
O803 C787 1.239 . S
O804 Nd777 2.487 . S
O804 C794 1.241 . S
O805 Nd776 2.414 . S
O805 Nd777 2.682 . S
O805 C794 1.273 . S
O806 Nd777 2.410 . S
O806 C795 1.251 . S
O807 Nd776 2.424 . S
O807 C795 1.268 . S
H808 C780 0.930 . S
H809 C781 0.929 . S
H810 C783 0.930 . S
H811 C784 0.929 . S
H812 C789 0.930 . S
H813 C790 0.929 . S
H814 C792 0.930 . S
H815 C793 0.929 . S
Nd816 C818 2.836 . S
Nd816 O836 2.500 . S
Nd816 O837 2.492 . S
Nd816 O838 2.487 . S
Nd816 O839 2.682 . S
Nd816 O840 2.410 . S
Nd816 O845 2.414 . S
Nd816 O847 2.424 . S
Nd817 C827 2.836 . S
Nd817 O839 2.414 . S
Nd817 O841 2.424 . S
Nd817 O842 2.500 . S
Nd817 O843 2.492 . S
Nd817 O844 2.487 . S
Nd817 O845 2.682 . S
Nd817 O846 2.410 . S
C818 Nd816 2.836 . S
C818 C819 1.498 . S
C818 O836 1.258 . S
C818 O837 1.239 . S
C819 C818 1.498 . S
C819 C820 1.366 . S
C819 C824 1.407 . S
C820 C819 1.366 . S
C820 C821 1.392 . S
C820 H848 0.930 . S
C821 C820 1.392 . S
C821 C822 1.398 . S
C821 H849 0.929 . S
C822 C821 1.398 . S
C822 C823 1.352 . S
C823 C822 1.352 . S
C823 C824 1.384 . S
C823 H850 0.930 . S
C824 C819 1.407 . S
C824 C823 1.384 . S
C824 H851 0.929 . S
C825 O838 1.241 . S
C825 O839 1.273 . S
C826 O840 1.251 . S
C826 O841 1.268 . S
C827 Nd817 2.836 . S
C827 C828 1.498 . S
C827 O842 1.258 . S
C827 O843 1.239 . S
C828 C827 1.498 . S
C828 C829 1.366 . S
C828 C833 1.407 . S
C829 C828 1.366 . S
C829 C830 1.392 . S
C829 H852 0.930 . S
C830 C829 1.392 . S
C830 C831 1.398 . S
C830 H853 0.929 . S
C831 C830 1.398 . S
C831 C832 1.352 . S
C832 C831 1.352 . S
C832 C833 1.384 . S
C832 H854 0.930 . S
C833 C828 1.407 . S
C833 C832 1.384 . S
C833 H855 0.929 . S
C834 O844 1.241 . S
C834 O845 1.273 . S
C835 O846 1.251 . S
C835 O847 1.268 . S
O836 Nd816 2.500 . S
O836 C818 1.258 . S
O837 Nd816 2.492 . S
O837 C818 1.239 . S
O838 Nd816 2.487 . S
O838 C825 1.241 . S
O839 Nd816 2.682 . S
O839 Nd817 2.414 . S
O839 C825 1.273 . S
O840 Nd816 2.410 . S
O840 C826 1.251 . S
O841 Nd817 2.424 . S
O841 C826 1.268 . S
O842 Nd817 2.500 . S
O842 C827 1.258 . S
O843 Nd817 2.492 . S
O843 C827 1.239 . S
O844 Nd817 2.487 . S
O844 C834 1.241 . S
O845 Nd816 2.414 . S
O845 Nd817 2.682 . S
O845 C834 1.273 . S
O846 Nd817 2.410 . S
O846 C835 1.251 . S
O847 Nd816 2.424 . S
O847 C835 1.268 . S
H848 C820 0.930 . S
H849 C821 0.929 . S
H850 C823 0.930 . S
H851 C824 0.929 . S
H852 C829 0.930 . S
H853 C830 0.929 . S
H854 C832 0.930 . S
H855 C833 0.929 . S
Nd856 C858 2.836 . S
Nd856 O876 2.500 . S
Nd856 O877 2.492 . S
Nd856 O878 2.487 . S
Nd856 O879 2.682 . S
Nd856 O880 2.410 . S
Nd856 O885 2.414 . S
Nd856 O887 2.424 . S
Nd857 C867 2.836 . S
Nd857 O879 2.414 . S
Nd857 O881 2.424 . S
Nd857 O882 2.500 . S
Nd857 O883 2.492 . S
Nd857 O884 2.487 . S
Nd857 O885 2.682 . S
Nd857 O886 2.410 . S
C858 Nd856 2.836 . S
C858 C859 1.498 . S
C858 O876 1.258 . S
C858 O877 1.239 . S
C859 C858 1.498 . S
C859 C860 1.366 . S
C859 C864 1.407 . S
C860 C859 1.366 . S
C860 C861 1.392 . S
C860 H888 0.930 . S
C861 C860 1.392 . S
C861 C862 1.398 . S
C861 H889 0.929 . S
C862 C861 1.398 . S
C862 C863 1.352 . S
C863 C862 1.352 . S
C863 C864 1.384 . S
C863 H890 0.930 . S
C864 C859 1.407 . S
C864 C863 1.384 . S
C864 H891 0.929 . S
C865 O878 1.241 . S
C865 O879 1.273 . S
C866 O880 1.251 . S
C866 O881 1.268 . S
C867 Nd857 2.836 . S
C867 C868 1.498 . S
C867 O882 1.258 . S
C867 O883 1.239 . S
C868 C867 1.498 . S
C868 C869 1.366 . S
C868 C873 1.407 . S
C869 C868 1.366 . S
C869 C870 1.392 . S
C869 H892 0.930 . S
C870 C869 1.392 . S
C870 C871 1.398 . S
C870 H893 0.929 . S
C871 C870 1.398 . S
C871 C872 1.352 . S
C872 C871 1.352 . S
C872 C873 1.384 . S
C872 H894 0.930 . S
C873 C868 1.407 . S
C873 C872 1.384 . S
C873 H895 0.929 . S
C874 O884 1.241 . S
C874 O885 1.273 . S
C875 O886 1.251 . S
C875 O887 1.268 . S
O876 Nd856 2.500 . S
O876 C858 1.258 . S
O877 Nd856 2.492 . S
O877 C858 1.239 . S
O878 Nd856 2.487 . S
O878 C865 1.241 . S
O879 Nd856 2.682 . S
O879 Nd857 2.414 . S
O879 C865 1.273 . S
O880 Nd856 2.410 . S
O880 C866 1.251 . S
O881 Nd857 2.424 . S
O881 C866 1.268 . S
O882 Nd857 2.500 . S
O882 C867 1.258 . S
O883 Nd857 2.492 . S
O883 C867 1.239 . S
O884 Nd857 2.487 . S
O884 C874 1.241 . S
O885 Nd856 2.414 . S
O885 Nd857 2.682 . S
O885 C874 1.273 . S
O886 Nd857 2.410 . S
O886 C875 1.251 . S
O887 Nd856 2.424 . S
O887 C875 1.268 . S
H888 C860 0.930 . S
H889 C861 0.929 . S
H890 C863 0.930 . S
H891 C864 0.929 . S
H892 C869 0.930 . S
H893 C870 0.929 . S
H894 C872 0.930 . S
H895 C873 0.929 . S
Nd896 C898 2.836 . S
Nd896 O916 2.500 . S
Nd896 O917 2.492 . S
Nd896 O918 2.487 . S
Nd896 O919 2.682 . S
Nd896 O920 2.410 . S
Nd896 O925 2.414 . S
Nd896 O927 2.424 . S
Nd897 C907 2.836 . S
Nd897 O919 2.414 . S
Nd897 O921 2.424 . S
Nd897 O922 2.500 . S
Nd897 O923 2.492 . S
Nd897 O924 2.487 . S
Nd897 O925 2.682 . S
Nd897 O926 2.410 . S
C898 Nd896 2.836 . S
C898 C899 1.498 . S
C898 O916 1.258 . S
C898 O917 1.239 . S
C899 C898 1.498 . S
C899 C900 1.366 . S
C899 C904 1.407 . S
C900 C899 1.366 . S
C900 C901 1.392 . S
C900 H928 0.930 . S
C901 C900 1.392 . S
C901 C902 1.398 . S
C901 H929 0.929 . S
C902 C901 1.398 . S
C902 C903 1.352 . S
C903 C902 1.352 . S
C903 C904 1.384 . S
C903 H930 0.930 . S
C904 C899 1.407 . S
C904 C903 1.384 . S
C904 H931 0.929 . S
C905 O918 1.241 . S
C905 O919 1.273 . S
C906 O920 1.251 . S
C906 O921 1.268 . S
C907 Nd897 2.836 . S
C907 C908 1.498 . S
C907 O922 1.258 . S
C907 O923 1.239 . S
C908 C907 1.498 . S
C908 C909 1.366 . S
C908 C913 1.407 . S
C909 C908 1.366 . S
C909 C910 1.392 . S
C909 H932 0.930 . S
C910 C909 1.392 . S
C910 C911 1.398 . S
C910 H933 0.929 . S
C911 C910 1.398 . S
C911 C912 1.352 . S
C912 C911 1.352 . S
C912 C913 1.384 . S
C912 H934 0.930 . S
C913 C908 1.407 . S
C913 C912 1.384 . S
C913 H935 0.929 . S
C914 O924 1.241 . S
C914 O925 1.273 . S
C915 O926 1.251 . S
C915 O927 1.268 . S
O916 Nd896 2.500 . S
O916 C898 1.258 . S
O917 Nd896 2.492 . S
O917 C898 1.239 . S
O918 Nd896 2.487 . S
O918 C905 1.241 . S
O919 Nd896 2.682 . S
O919 Nd897 2.414 . S
O919 C905 1.273 . S
O920 Nd896 2.410 . S
O920 C906 1.251 . S
O921 Nd897 2.424 . S
O921 C906 1.268 . S
O922 Nd897 2.500 . S
O922 C907 1.258 . S
O923 Nd897 2.492 . S
O923 C907 1.239 . S
O924 Nd897 2.487 . S
O924 C914 1.241 . S
O925 Nd896 2.414 . S
O925 Nd897 2.682 . S
O925 C914 1.273 . S
O926 Nd897 2.410 . S
O926 C915 1.251 . S
O927 Nd896 2.424 . S
O927 C915 1.268 . S
H928 C900 0.930 . S
H929 C901 0.929 . S
H930 C903 0.930 . S
H931 C904 0.929 . S
H932 C909 0.930 . S
H933 C910 0.929 . S
H934 C912 0.930 . S
H935 C913 0.929 . S
Nd936 C938 2.836 . S
Nd936 O956 2.500 . S
Nd936 O957 2.492 . S
Nd936 O958 2.487 . S
Nd936 O959 2.682 . S
Nd936 O960 2.410 . S
Nd936 O965 2.414 . S
Nd936 O967 2.424 . S
Nd937 C947 2.836 . S
Nd937 O959 2.414 1_655 S
Nd937 O961 2.424 1_655 S
Nd937 O962 2.500 . S
Nd937 O963 2.492 . S
Nd937 O964 2.487 . S
Nd937 O965 2.682 1_655 S
Nd937 O966 2.410 1_655 S
C938 Nd936 2.836 . S
C938 C939 1.498 . S
C938 O956 1.258 . S
C938 O957 1.239 . S
C939 C938 1.498 . S
C939 C940 1.366 . S
C939 C944 1.407 . S
C940 C939 1.366 . S
C940 C941 1.392 . S
C940 H968 0.930 . S
C941 C940 1.392 . S
C941 C942 1.398 . S
C941 H969 0.929 1_554 S
C942 C941 1.398 . S
C942 C943 1.352 . S
C943 C942 1.352 . S
C943 C944 1.384 . S
C943 H970 0.930 . S
C944 C939 1.407 . S
C944 C943 1.384 . S
C944 H971 0.929 . S
C945 O958 1.241 . S
C945 O959 1.273 . S
C946 O960 1.251 . S
C946 O961 1.268 . S
C947 Nd937 2.836 . S
C947 C948 1.498 . S
C947 O962 1.258 . S
C947 O963 1.239 . S
C948 C947 1.498 . S
C948 C949 1.366 . S
C948 C953 1.407 . S
C949 C948 1.366 . S
C949 C950 1.392 . S
C949 H972 0.930 . S
C950 C949 1.392 . S
C950 C951 1.398 . S
C950 H973 0.929 . S
C951 C950 1.398 . S
C951 C952 1.352 . S
C952 C951 1.352 . S
C952 C953 1.384 . S
C952 H974 0.930 . S
C953 C948 1.407 . S
C953 C952 1.384 . S
C953 H975 0.929 . S
C954 O964 1.241 1_455 S
C954 O965 1.273 . S
C955 O966 1.251 . S
C955 O967 1.268 . S
O956 Nd936 2.500 . S
O956 C938 1.258 . S
O957 Nd936 2.492 . S
O957 C938 1.239 . S
O958 Nd936 2.487 . S
O958 C945 1.241 . S
O959 Nd936 2.682 . S
O959 Nd937 2.414 1_455 S
O959 C945 1.273 . S
O960 Nd936 2.410 . S
O960 C946 1.251 . S
O961 Nd937 2.424 1_455 S
O961 C946 1.268 . S
O962 Nd937 2.500 . S
O962 C947 1.258 . S
O963 Nd937 2.492 . S
O963 C947 1.239 . S
O964 Nd937 2.487 . S
O964 C954 1.241 1_655 S
O965 Nd936 2.414 . S
O965 Nd937 2.682 1_455 S
O965 C954 1.273 . S
O966 Nd937 2.410 1_455 S
O966 C955 1.251 . S
O967 Nd936 2.424 . S
O967 C955 1.268 . S
H968 C940 0.930 . S
H969 C941 0.929 1_556 S
H970 C943 0.930 . S
H971 C944 0.929 . S
H972 C949 0.930 . S
H973 C950 0.929 . S
H974 C952 0.930 . S
H975 C953 0.929 . S
H976 C994 0.951 . S
H977 C996 0.951 . S
H978 C998 0.921 1_655 S
H979 C999 0.905 1_655 S
H980 C1001 0.950 . S
H981 C1004 0.950 . S
H982 C1005 0.950 . S
H983 C1007 0.950 . S
H984 C1008 0.950 . S
H985 C1009 0.951 . S
H986 C1011 0.951 . S
H987 C1013 0.950 . S
H988 C1014 0.950 . S
H989 C1016 0.950 . S
H990 C1019 0.950 . S
H991 C1020 0.950 . S
H992 C1022 0.950 1_655 S
H993 C1023 0.950 1_655 S
C994 H976 0.951 . S
C994 C995 1.366 . S
C994 C996 1.388 . S
C995 C994 1.366 . S
C995 C999 1.385 . S
C996 H977 0.951 . S
C996 C994 1.388 . S
C996 C997 1.366 . S
C997 C996 1.366 . S
C997 C998 1.414 . S
C997 C1000 1.499 . S
C998 H978 0.921 1_455 S
C998 C997 1.414 . S
C998 C999 1.374 . S
C999 H979 0.905 1_455 S
C999 C995 1.385 . S
C999 C998 1.374 . S
C1000 C997 1.499 . S
C1000 C1001 1.373 . S
C1000 C1002 1.389 . S
C1001 H980 0.950 . S
C1001 C1000 1.373 . S
C1001 C1017 1.394 . S
C1002 C1000 1.389 . S
C1002 C1003 1.524 . S
C1002 C1016 1.377 . S
C1003 C1002 1.524 . S
C1003 C1004 1.397 . S
C1003 C1008 1.363 . S
C1004 H981 0.950 . S
C1004 C1003 1.397 . S
C1004 C1005 1.334 . S
C1005 H982 0.950 . S
C1005 C1004 1.334 . S
C1005 C1006 1.287 . S
C1006 C1005 1.287 . S
C1006 C1007 1.524 . S
C1006 H1025 0.913 . S
C1007 H983 0.950 . S
C1007 C1006 1.524 . S
C1007 C1008 1.415 . S
C1008 H984 0.950 . S
C1008 C1003 1.363 . S
C1008 C1007 1.415 . S
C1009 H985 0.951 . S
C1009 C1010 1.366 . S
C1009 C1011 1.388 . S
C1010 C1009 1.366 . S
C1010 C1014 1.385 . S
C1011 H986 0.951 . S
C1011 C1009 1.388 . S
C1011 C1012 1.366 . S
C1012 C1011 1.366 . S
C1012 C1013 1.414 . S
C1012 C1015 1.499 1_554 S
C1013 H987 0.950 . S
C1013 C1012 1.414 . S
C1013 C1014 1.374 . S
C1014 H988 0.950 . S
C1014 C1010 1.385 . S
C1014 C1013 1.374 . S
C1015 C1012 1.499 1_556 S
C1015 C1016 1.373 . S
C1015 C1017 1.393 . S
C1016 H989 0.950 . S
C1016 C1002 1.377 . S
C1016 C1015 1.373 . S
C1017 C1001 1.394 . S
C1017 C1015 1.393 . S
C1017 C1018 1.504 1_556 S
C1018 C1017 1.504 1_554 S
C1018 C1019 1.397 . S
C1018 C1023 1.363 . S
C1019 H990 0.950 . S
C1019 C1018 1.397 . S
C1019 C1020 1.334 . S
C1020 H991 0.950 . S
C1020 C1019 1.334 . S
C1020 C1021 1.287 . S
C1021 C1020 1.287 . S
C1021 C1022 1.524 . S
C1021 H1024 0.999 . S
C1022 H992 0.950 1_455 S
C1022 C1021 1.524 . S
C1022 C1023 1.415 . S
C1023 H993 0.950 1_455 S
C1023 C1018 1.363 . S
C1023 C1022 1.415 . S
H1024 C1021 0.999 . S
H1025 C1006 0.913 . S
H1026 C1044 0.951 . S
H1027 C1046 0.951 . S
H1028 C1048 0.950 . S
H1029 C1049 0.950 . S
H1030 C1051 0.950 . S
H1031 C1054 0.950 . S
H1032 C1055 0.950 . S
H1033 C1057 0.950 . S
H1034 C1058 0.950 . S
H1035 C1059 0.951 . S
H1036 C1061 0.951 . S
H1037 C1063 0.950 . S
H1038 C1064 0.950 . S
H1039 C1066 0.950 . S
H1040 C1069 0.950 . S
H1041 C1070 0.950 . S
H1042 C1072 0.950 . S
H1043 C1073 0.950 . S
C1044 H1026 0.951 . S
C1044 C1045 1.366 . S
C1044 C1046 1.388 . S
C1045 C1044 1.366 . S
C1045 C1049 1.385 . S
C1046 H1027 0.951 . S
C1046 C1044 1.388 . S
C1046 C1047 1.366 . S
C1047 C1046 1.366 . S
C1047 C1048 1.414 . S
C1047 C1050 1.499 . S
C1048 H1028 0.950 . S
C1048 C1047 1.414 . S
C1048 C1049 1.374 . S
C1049 H1029 0.950 . S
C1049 C1045 1.385 . S
C1049 C1048 1.374 . S
C1050 C1047 1.499 . S
C1050 C1051 1.373 . S
C1050 C1052 1.389 . S
C1051 H1030 0.950 . S
C1051 C1050 1.373 . S
C1051 C1067 1.377 . S
C1052 C1050 1.389 . S
C1052 C1053 1.524 . S
C1052 C1066 1.377 . S
C1053 C1052 1.524 . S
C1053 C1054 1.397 . S
C1053 C1058 1.363 . S
C1054 H1031 0.950 . S
C1054 C1053 1.397 . S
C1054 C1055 1.334 . S
C1055 H1032 0.950 . S
C1055 C1054 1.334 . S
C1055 C1056 1.287 . S
C1056 C1055 1.287 . S
C1056 C1057 1.524 . S
C1056 H1075 0.913 . S
C1057 H1033 0.950 . S
C1057 C1056 1.524 . S
C1057 C1058 1.415 . S
C1058 H1034 0.950 . S
C1058 C1053 1.363 . S
C1058 C1057 1.415 . S
C1059 H1035 0.951 . S
C1059 C1060 1.366 . S
C1059 C1061 1.388 . S
C1060 C1059 1.366 . S
C1060 C1064 1.385 . S
C1061 H1036 0.951 . S
C1061 C1059 1.388 . S
C1061 C1062 1.366 . S
C1062 C1061 1.366 . S
C1062 C1063 1.414 . S
C1062 C1065 1.499 . S
C1063 H1037 0.950 . S
C1063 C1062 1.414 . S
C1063 C1064 1.374 . S
C1064 H1038 0.950 . S
C1064 C1060 1.385 . S
C1064 C1063 1.374 . S
C1065 C1062 1.499 . S
C1065 C1066 1.373 . S
C1065 C1067 1.389 . S
C1066 H1039 0.950 . S
C1066 C1052 1.377 . S
C1066 C1065 1.373 . S
C1067 C1051 1.377 . S
C1067 C1065 1.389 . S
C1067 C1068 1.524 . S
C1068 C1067 1.524 . S
C1068 C1069 1.397 . S
C1068 C1073 1.363 . S
C1069 H1040 0.950 . S
C1069 C1068 1.397 . S
C1069 C1070 1.334 . S
C1070 H1041 0.950 . S
C1070 C1069 1.334 . S
C1070 C1071 1.287 . S
C1071 C1070 1.287 . S
C1071 C1072 1.524 . S
C1071 H1074 0.999 . S
C1072 H1042 0.950 . S
C1072 C1071 1.524 . S
C1072 C1073 1.415 . S
C1073 H1043 0.950 . S
C1073 C1068 1.363 . S
C1073 C1072 1.415 . S
H1074 C1071 0.999 . S
H1075 C1056 0.913 . S
H1076 C1094 0.951 . S
H1077 C1096 0.951 . S
H1078 C1098 0.950 . S
H1079 C1099 0.950 . S
H1080 C1101 0.950 . S
H1081 C1104 0.950 . S
H1082 C1105 0.950 . S
H1083 C1107 0.950 . S
H1084 C1108 0.950 . S
H1085 C1109 0.951 . S
H1086 C1111 0.951 . S
H1087 C1113 0.950 . S
H1088 C1114 0.950 1_545 S
H1089 C1116 0.950 . S
H1090 C1119 0.950 . S
H1091 C1120 0.950 . S
H1092 C1122 0.950 . S
H1093 C1123 0.950 . S
C1094 H1076 0.951 . S
C1094 C1095 1.366 . S
C1094 C1096 1.388 . S
C1095 C1094 1.366 . S
C1095 C1099 1.385 . S
C1096 H1077 0.951 . S
C1096 C1094 1.388 . S
C1096 C1097 1.366 . S
C1097 C1096 1.366 . S
C1097 C1098 1.414 . S
C1097 C1100 1.499 . S
C1098 H1078 0.950 . S
C1098 C1097 1.414 . S
C1098 C1099 1.374 . S
C1099 H1079 0.950 . S
C1099 C1095 1.385 . S
C1099 C1098 1.374 . S
C1100 C1097 1.499 . S
C1100 C1101 1.373 . S
C1100 C1102 1.389 . S
C1101 H1080 0.950 . S
C1101 C1100 1.373 . S
C1101 C1117 1.377 . S
C1102 C1100 1.389 . S
C1102 C1103 1.524 . S
C1102 C1116 1.377 . S
C1103 C1102 1.524 . S
C1103 C1104 1.397 . S
C1103 C1108 1.363 . S
C1104 H1081 0.950 . S
C1104 C1103 1.397 . S
C1104 C1105 1.334 . S
C1105 H1082 0.950 . S
C1105 C1104 1.334 . S
C1105 C1106 1.287 . S
C1106 C1105 1.287 . S
C1106 C1107 1.524 . S
C1106 H1125 0.913 . S
C1107 H1083 0.950 . S
C1107 C1106 1.524 . S
C1107 C1108 1.415 . S
C1108 H1084 0.950 . S
C1108 C1103 1.363 . S
C1108 C1107 1.415 . S
C1109 H1085 0.951 . S
C1109 C1110 1.366 . S
C1109 C1111 1.388 . S
C1110 C1109 1.366 . S
C1110 C1114 1.385 . S
C1111 H1086 0.951 . S
C1111 C1109 1.388 . S
C1111 C1112 1.366 . S
C1112 C1111 1.366 . S
C1112 C1113 1.414 . S
C1112 C1115 1.499 . S
C1113 H1087 0.950 . S
C1113 C1112 1.414 . S
C1113 C1114 1.374 . S
C1114 H1088 0.950 1_565 S
C1114 C1110 1.385 . S
C1114 C1113 1.374 . S
C1115 C1112 1.499 . S
C1115 C1116 1.373 . S
C1115 C1117 1.389 . S
C1116 H1089 0.950 . S
C1116 C1102 1.377 . S
C1116 C1115 1.373 . S
C1117 C1101 1.377 . S
C1117 C1115 1.389 . S
C1117 C1118 1.524 . S
C1118 C1117 1.524 . S
C1118 C1119 1.397 . S
C1118 C1123 1.363 . S
C1119 H1090 0.950 . S
C1119 C1118 1.397 . S
C1119 C1120 1.334 . S
C1120 H1091 0.950 . S
C1120 C1119 1.334 . S
C1120 C1121 1.287 . S
C1121 C1120 1.287 . S
C1121 C1122 1.524 . S
C1121 H1124 0.999 . S
C1122 H1092 0.950 . S
C1122 C1121 1.524 . S
C1122 C1123 1.415 . S
C1123 H1093 0.950 . S
C1123 C1118 1.363 . S
C1123 C1122 1.415 . S
H1124 C1121 0.999 . S
H1125 C1106 0.913 . S
H1126 C1144 0.951 . S
H1127 C1146 0.951 . S
H1128 C1148 0.950 . S
H1129 C1149 0.950 . S
H1130 C1151 0.950 . S
H1131 C1154 0.950 . S
H1132 C1155 0.950 . S
H1133 C1157 0.950 . S
H1134 C1158 0.950 . S
H1135 C1159 0.951 . S
H1136 C1161 0.951 . S
H1137 C1163 0.950 . S
H1138 C1164 0.950 . S
H1139 C1166 0.950 . S
H1140 C1169 0.950 . S
H1141 C1170 0.950 . S
H1142 C1172 0.950 . S
H1143 C1173 0.950 . S
C1144 H1126 0.951 . S
C1144 C1145 1.366 . S
C1144 C1146 1.388 . S
C1145 C1144 1.366 . S
C1145 C1149 1.385 . S
C1146 H1127 0.951 . S
C1146 C1144 1.388 . S
C1146 C1147 1.366 . S
C1147 C1146 1.366 . S
C1147 C1148 1.414 . S
C1147 C1150 1.499 . S
C1148 H1128 0.950 . S
C1148 C1147 1.414 . S
C1148 C1149 1.374 . S
C1149 H1129 0.950 . S
C1149 C1145 1.385 . S
C1149 C1148 1.374 . S
C1150 C1147 1.499 . S
C1150 C1151 1.373 . S
C1150 C1152 1.389 . S
C1151 H1130 0.950 . S
C1151 C1150 1.373 . S
C1151 C1167 1.377 . S
C1152 C1150 1.389 . S
C1152 C1153 1.524 . S
C1152 C1166 1.377 . S
C1153 C1152 1.524 . S
C1153 C1154 1.397 . S
C1153 C1158 1.363 . S
C1154 H1131 0.950 . S
C1154 C1153 1.397 . S
C1154 C1155 1.334 . S
C1155 H1132 0.950 . S
C1155 C1154 1.334 . S
C1155 C1156 1.287 . S
C1156 C1155 1.287 . S
C1156 C1157 1.524 . S
C1156 H1175 0.913 . S
C1157 H1133 0.950 . S
C1157 C1156 1.524 . S
C1157 C1158 1.415 . S
C1158 H1134 0.950 . S
C1158 C1153 1.363 . S
C1158 C1157 1.415 . S
C1159 H1135 0.951 . S
C1159 C1160 1.366 . S
C1159 C1161 1.388 . S
C1160 C1159 1.366 . S
C1160 C1164 1.385 . S
C1161 H1136 0.951 . S
C1161 C1159 1.388 . S
C1161 C1162 1.366 . S
C1162 C1161 1.366 . S
C1162 C1163 1.414 . S
C1162 C1165 1.499 . S
C1163 H1137 0.950 . S
C1163 C1162 1.414 . S
C1163 C1164 1.374 . S
C1164 H1138 0.950 . S
C1164 C1160 1.385 . S
C1164 C1163 1.374 . S
C1165 C1162 1.499 . S
C1165 C1166 1.373 . S
C1165 C1167 1.389 . S
C1166 H1139 0.950 . S
C1166 C1152 1.377 . S
C1166 C1165 1.373 . S
C1167 C1151 1.377 . S
C1167 C1165 1.389 . S
C1167 C1168 1.524 . S
C1168 C1167 1.524 . S
C1168 C1169 1.397 . S
C1168 C1173 1.363 . S
C1169 H1140 0.950 . S
C1169 C1168 1.397 . S
C1169 C1170 1.334 . S
C1170 H1141 0.950 . S
C1170 C1169 1.334 . S
C1170 C1171 1.287 . S
C1171 C1170 1.287 . S
C1171 C1172 1.524 . S
C1171 H1174 0.999 . S
C1172 H1142 0.950 . S
C1172 C1171 1.524 . S
C1172 C1173 1.415 . S
C1173 H1143 0.950 . S
C1173 C1168 1.363 . S
C1173 C1172 1.415 . S
H1174 C1171 0.999 . S
H1175 C1156 0.913 . S
H1176 C1194 0.951 . S
H1177 C1196 0.951 . S
H1178 C1198 0.950 . S
H1179 C1199 0.950 1_655 S
H1180 C1201 0.950 . S
H1181 C1204 0.950 . S
H1182 C1205 0.950 . S
H1183 C1207 0.950 . S
H1184 C1208 0.950 . S
H1185 C1209 0.951 . S
H1186 C1211 0.951 . S
H1187 C1213 0.950 . S
H1188 C1214 0.950 . S
H1189 C1216 0.950 . S
H1190 C1219 0.950 . S
H1191 C1220 0.950 . S
H1192 C1222 0.950 . S
H1193 C1223 0.950 . S
C1194 H1176 0.951 . S
C1194 C1195 1.366 . S
C1194 C1196 1.388 . S
C1195 C1194 1.366 . S
C1195 C1199 1.385 . S
C1196 H1177 0.951 . S
C1196 C1194 1.388 . S
C1196 C1197 1.366 . S
C1197 C1196 1.366 . S
C1197 C1198 1.414 . S
C1197 C1200 1.499 . S
C1198 H1178 0.950 . S
C1198 C1197 1.414 . S
C1198 C1199 1.374 . S
C1199 H1179 0.950 1_455 S
C1199 C1195 1.385 . S
C1199 C1198 1.374 . S
C1200 C1197 1.499 . S
C1200 C1201 1.373 . S
C1200 C1202 1.389 . S
C1201 H1180 0.950 . S
C1201 C1200 1.373 . S
C1201 C1217 1.377 . S
C1202 C1200 1.389 . S
C1202 C1203 1.524 . S
C1202 C1216 1.377 . S
C1203 C1202 1.524 . S
C1203 C1204 1.397 1_455 S
C1203 C1208 1.363 . S
C1204 H1181 0.950 . S
C1204 C1203 1.397 1_655 S
C1204 C1205 1.334 . S
C1205 H1182 0.950 . S
C1205 C1204 1.334 . S
C1205 C1206 1.287 . S
C1206 C1205 1.287 . S
C1206 C1207 1.524 . S
C1206 H1225 0.913 . S
C1207 H1183 0.950 . S
C1207 C1206 1.524 . S
C1207 C1208 1.415 1_655 S
C1208 H1184 0.950 . S
C1208 C1203 1.363 . S
C1208 C1207 1.415 1_455 S
C1209 H1185 0.951 . S
C1209 C1210 1.366 . S
C1209 C1211 1.388 . S
C1210 C1209 1.366 . S
C1210 C1214 1.385 . S
C1211 H1186 0.951 . S
C1211 C1209 1.388 . S
C1211 C1212 1.366 . S
C1212 C1211 1.366 . S
C1212 C1213 1.414 . S
C1212 C1215 1.499 . S
C1213 H1187 0.950 . S
C1213 C1212 1.414 . S
C1213 C1214 1.374 . S
C1214 H1188 0.950 . S
C1214 C1210 1.385 . S
C1214 C1213 1.374 . S
C1215 C1212 1.499 . S
C1215 C1216 1.373 . S
C1215 C1217 1.389 . S
C1216 H1189 0.950 . S
C1216 C1202 1.377 . S
C1216 C1215 1.373 . S
C1217 C1201 1.377 . S
C1217 C1215 1.389 . S
C1217 C1218 1.524 . S
C1218 C1217 1.524 . S
C1218 C1219 1.397 . S
C1218 C1223 1.363 . S
C1219 H1190 0.950 . S
C1219 C1218 1.397 . S
C1219 C1220 1.334 . S
C1220 H1191 0.950 . S
C1220 C1219 1.334 . S
C1220 C1221 1.287 . S
C1221 C1220 1.287 . S
C1221 C1222 1.524 . S
C1221 H1224 0.999 . S
C1222 H1192 0.950 . S
C1222 C1221 1.524 . S
C1222 C1223 1.415 . S
C1223 H1193 0.950 . S
C1223 C1218 1.363 . S
C1223 C1222 1.415 . S
H1224 C1221 0.999 . S
H1225 C1206 0.913 . S
H1226 C1244 0.951 . S
H1227 C1246 0.951 . S
H1228 C1248 0.950 . S
H1229 C1249 0.950 . S
H1230 C1251 0.950 . S
H1231 C1254 0.950 . S
H1232 C1255 0.950 . S
H1233 C1257 0.950 . S
H1234 C1258 0.950 . S
H1235 C1259 0.951 . S
H1236 C1261 0.951 . S
H1237 C1263 0.950 . S
H1238 C1264 0.950 . S
H1239 C1266 0.950 . S
H1240 C1269 0.950 . S
H1241 C1270 0.950 . S
H1242 C1272 0.950 . S
H1243 C1273 0.950 . S
C1244 H1226 0.951 . S
C1244 C1245 1.366 . S
C1244 C1246 1.388 . S
C1245 C1244 1.366 . S
C1245 C1249 1.385 . S
C1246 H1227 0.951 . S
C1246 C1244 1.388 . S
C1246 C1247 1.366 . S
C1247 C1246 1.366 . S
C1247 C1248 1.414 . S
C1247 C1250 1.499 . S
C1248 H1228 0.950 . S
C1248 C1247 1.414 . S
C1248 C1249 1.374 . S
C1249 H1229 0.950 . S
C1249 C1245 1.385 . S
C1249 C1248 1.374 . S
C1250 C1247 1.499 . S
C1250 C1251 1.373 . S
C1250 C1252 1.389 . S
C1251 H1230 0.950 . S
C1251 C1250 1.373 . S
C1251 C1267 1.377 . S
C1252 C1250 1.389 . S
C1252 C1253 1.524 . S
C1252 C1266 1.377 . S
C1253 C1252 1.524 . S
C1253 C1254 1.397 . S
C1253 C1258 1.363 . S
C1254 H1231 0.950 . S
C1254 C1253 1.397 . S
C1254 C1255 1.334 . S
C1255 H1232 0.950 . S
C1255 C1254 1.334 . S
C1255 C1256 1.287 . S
C1256 C1255 1.287 . S
C1256 C1257 1.524 . S
C1256 H1275 0.913 . S
C1257 H1233 0.950 . S
C1257 C1256 1.524 . S
C1257 C1258 1.415 . S
C1258 H1234 0.950 . S
C1258 C1253 1.363 . S
C1258 C1257 1.415 . S
C1259 H1235 0.951 . S
C1259 C1260 1.366 . S
C1259 C1261 1.388 . S
C1260 C1259 1.366 . S
C1260 C1264 1.385 . S
C1261 H1236 0.951 . S
C1261 C1259 1.388 . S
C1261 C1262 1.366 . S
C1262 C1261 1.366 . S
C1262 C1263 1.414 . S
C1262 C1265 1.499 . S
C1263 H1237 0.950 . S
C1263 C1262 1.414 . S
C1263 C1264 1.374 . S
C1264 H1238 0.950 . S
C1264 C1260 1.385 . S
C1264 C1263 1.374 . S
C1265 C1262 1.499 . S
C1265 C1266 1.373 . S
C1265 C1267 1.389 . S
C1266 H1239 0.950 . S
C1266 C1252 1.377 . S
C1266 C1265 1.373 . S
C1267 C1251 1.377 . S
C1267 C1265 1.389 . S
C1267 C1268 1.524 . S
C1268 C1267 1.524 . S
C1268 C1269 1.397 . S
C1268 C1273 1.363 . S
C1269 H1240 0.950 . S
C1269 C1268 1.397 . S
C1269 C1270 1.334 . S
C1270 H1241 0.950 . S
C1270 C1269 1.334 . S
C1270 C1271 1.287 . S
C1271 C1270 1.287 . S
C1271 C1272 1.524 . S
C1271 H1274 0.999 . S
C1272 H1242 0.950 . S
C1272 C1271 1.524 . S
C1272 C1273 1.415 . S
C1273 H1243 0.950 . S
C1273 C1268 1.363 . S
C1273 C1272 1.415 . S
H1274 C1271 0.999 . S
H1275 C1256 0.913 . S
H1276 C1294 0.951 . S
H1277 C1296 0.951 . S
H1278 C1298 0.950 . S
H1279 C1299 0.950 . S
H1280 C1301 0.950 . S
H1281 C1304 0.950 . S
H1282 C1305 0.950 . S
H1283 C1307 0.950 . S
H1284 C1308 0.950 . S
H1285 C1309 0.951 . S
H1286 C1311 0.951 . S
H1287 C1313 0.950 . S
H1288 C1314 0.950 . S
H1289 C1316 0.950 . S
H1290 C1319 0.950 . S
H1291 C1320 0.950 . S
H1292 C1322 0.950 . S
H1293 C1323 0.950 . S
C1294 H1276 0.951 . S
C1294 C1295 1.366 . S
C1294 C1296 1.388 . S
C1295 C1294 1.366 . S
C1295 C1299 1.385 . S
C1296 H1277 0.951 . S
C1296 C1294 1.388 . S
C1296 C1297 1.366 . S
C1297 C1296 1.366 . S
C1297 C1298 1.414 . S
C1297 C1300 1.499 . S
C1298 H1278 0.950 . S
C1298 C1297 1.414 . S
C1298 C1299 1.374 . S
C1299 H1279 0.950 . S
C1299 C1295 1.385 . S
C1299 C1298 1.374 . S
C1300 C1297 1.499 . S
C1300 C1301 1.373 . S
C1300 C1302 1.389 . S
C1301 H1280 0.950 . S
C1301 C1300 1.373 . S
C1301 C1317 1.377 . S
C1302 C1300 1.389 . S
C1302 C1303 1.524 . S
C1302 C1316 1.377 . S
C1303 C1302 1.524 . S
C1303 C1304 1.397 . S
C1303 C1308 1.363 . S
C1304 H1281 0.950 . S
C1304 C1303 1.397 . S
C1304 C1305 1.334 . S
C1305 H1282 0.950 . S
C1305 C1304 1.334 . S
C1305 C1306 1.287 . S
C1306 C1305 1.287 . S
C1306 C1307 1.524 . S
C1306 H1325 0.913 . S
C1307 H1283 0.950 . S
C1307 C1306 1.524 . S
C1307 C1308 1.415 . S
C1308 H1284 0.950 . S
C1308 C1303 1.363 . S
C1308 C1307 1.415 . S
C1309 H1285 0.951 . S
C1309 C1310 1.366 . S
C1309 C1311 1.388 . S
C1310 C1309 1.366 . S
C1310 C1314 1.385 . S
C1311 H1286 0.951 . S
C1311 C1309 1.388 . S
C1311 C1312 1.366 . S
C1312 C1311 1.366 . S
C1312 C1313 1.414 . S
C1312 C1315 1.499 . S
C1313 H1287 0.950 . S
C1313 C1312 1.414 . S
C1313 C1314 1.374 . S
C1314 H1288 0.950 . S
C1314 C1310 1.385 . S
C1314 C1313 1.374 . S
C1315 C1312 1.499 . S
C1315 C1316 1.373 . S
C1315 C1317 1.389 . S
C1316 H1289 0.950 . S
C1316 C1302 1.377 . S
C1316 C1315 1.373 . S
C1317 C1301 1.377 . S
C1317 C1315 1.389 . S
C1317 C1318 1.524 . S
C1318 C1317 1.524 . S
C1318 C1319 1.397 . S
C1318 C1323 1.363 . S
C1319 H1290 0.950 . S
C1319 C1318 1.397 . S
C1319 C1320 1.334 . S
C1320 H1291 0.950 . S
C1320 C1319 1.334 . S
C1320 C1321 1.287 . S
C1321 C1320 1.287 . S
C1321 C1322 1.524 . S
C1321 H1324 0.999 . S
C1322 H1292 0.950 . S
C1322 C1321 1.524 . S
C1322 C1323 1.415 . S
C1323 H1293 0.950 . S
C1323 C1318 1.363 . S
C1323 C1322 1.415 . S
H1324 C1321 0.999 . S
H1325 C1306 0.913 . S
H1326 C1344 0.951 . S
H1327 C1346 0.951 . S
H1328 C1348 0.950 . S
H1329 C1349 0.950 . S
H1330 C1351 0.950 . S
H1331 C1354 0.950 . S
H1332 C1355 0.950 . S
H1333 C1357 0.950 . S
H1334 C1358 0.950 . S
H1335 C1359 0.951 . S
H1336 C1361 0.951 . S
H1337 C1363 0.950 . S
H1338 C1364 0.950 . S
H1339 C1366 0.950 . S
H1340 C1369 0.950 . S
H1341 C1370 0.950 . S
H1342 C1372 0.950 . S
H1343 C1373 0.950 . S
C1344 H1326 0.951 . S
C1344 C1345 1.366 . S
C1344 C1346 1.388 . S
C1345 C1344 1.366 . S
C1345 C1349 1.385 . S
C1346 H1327 0.951 . S
C1346 C1344 1.388 . S
C1346 C1347 1.366 . S
C1347 C1346 1.366 . S
C1347 C1348 1.414 . S
C1347 C1350 1.499 . S
C1348 H1328 0.950 . S
C1348 C1347 1.414 . S
C1348 C1349 1.374 . S
C1349 H1329 0.950 . S
C1349 C1345 1.385 . S
C1349 C1348 1.374 . S
C1350 C1347 1.499 . S
C1350 C1351 1.373 . S
C1350 C1352 1.389 . S
C1351 H1330 0.950 . S
C1351 C1350 1.373 . S
C1351 C1367 1.377 . S
C1352 C1350 1.389 . S
C1352 C1353 1.524 . S
C1352 C1366 1.377 . S
C1353 C1352 1.524 . S
C1353 C1354 1.397 . S
C1353 C1358 1.363 . S
C1354 H1331 0.950 . S
C1354 C1353 1.397 . S
C1354 C1355 1.334 . S
C1355 H1332 0.950 . S
C1355 C1354 1.334 . S
C1355 C1356 1.287 . S
C1356 C1355 1.287 . S
C1356 C1357 1.524 . S
C1356 H1375 0.913 . S
C1357 H1333 0.950 . S
C1357 C1356 1.524 . S
C1357 C1358 1.415 . S
C1358 H1334 0.950 . S
C1358 C1353 1.363 . S
C1358 C1357 1.415 . S
C1359 H1335 0.951 . S
C1359 C1360 1.366 . S
C1359 C1361 1.388 . S
C1360 C1359 1.366 . S
C1360 C1364 1.385 . S
C1361 H1336 0.951 . S
C1361 C1359 1.388 . S
C1361 C1362 1.366 . S
C1362 C1361 1.366 . S
C1362 C1363 1.414 . S
C1362 C1365 1.499 . S
C1363 H1337 0.950 . S
C1363 C1362 1.414 . S
C1363 C1364 1.374 . S
C1364 H1338 0.950 . S
C1364 C1360 1.385 . S
C1364 C1363 1.374 . S
C1365 C1362 1.499 . S
C1365 C1366 1.373 . S
C1365 C1367 1.389 . S
C1366 H1339 0.950 . S
C1366 C1352 1.377 . S
C1366 C1365 1.373 . S
C1367 C1351 1.377 . S
C1367 C1365 1.389 . S
C1367 C1368 1.524 . S
C1368 C1367 1.524 . S
C1368 C1369 1.397 . S
C1368 C1373 1.363 . S
C1369 H1340 0.950 . S
C1369 C1368 1.397 . S
C1369 C1370 1.334 . S
C1370 H1341 0.950 . S
C1370 C1369 1.334 . S
C1370 C1371 1.287 . S
C1371 C1370 1.287 . S
C1371 C1372 1.524 . S
C1371 H1374 0.999 . S
C1372 H1342 0.950 . S
C1372 C1371 1.524 . S
C1372 C1373 1.415 . S
C1373 H1343 0.950 . S
C1373 C1368 1.363 . S
C1373 C1372 1.415 . S
H1374 C1371 0.999 . S
H1375 C1356 0.913 . S
H1376 C1394 0.951 . S
H1377 C1396 0.951 . S
H1378 C1398 0.950 . S
H1379 C1399 0.950 . S
H1380 C1401 0.950 . S
H1381 C1404 0.950 . S
H1382 C1405 0.950 . S
H1383 C1407 0.950 . S
H1384 C1408 0.950 . S
H1385 C1409 0.951 1_455 S
H1386 C1411 0.951 . S
H1387 C1413 0.950 . S
H1388 C1414 0.950 . S
H1389 C1416 0.950 . S
H1390 C1419 0.950 . S
H1391 C1420 0.950 . S
H1392 C1422 0.950 . S
H1393 C1423 0.950 . S
C1394 H1376 0.951 . S
C1394 C1395 1.366 . S
C1394 C1396 1.388 . S
C1395 C1394 1.366 . S
C1395 C1399 1.385 . S
C1396 H1377 0.951 . S
C1396 C1394 1.388 . S
C1396 C1397 1.366 . S
C1397 C1396 1.366 . S
C1397 C1398 1.414 . S
C1397 C1400 1.499 . S
C1398 H1378 0.950 . S
C1398 C1397 1.414 . S
C1398 C1399 1.374 . S
C1399 H1379 0.950 . S
C1399 C1395 1.385 . S
C1399 C1398 1.374 . S
C1400 C1397 1.499 . S
C1400 C1401 1.373 . S
C1400 C1402 1.389 . S
C1401 H1380 0.950 . S
C1401 C1400 1.373 . S
C1401 C1417 1.377 . S
C1402 C1400 1.389 . S
C1402 C1403 1.524 . S
C1402 C1416 1.377 . S
C1403 C1402 1.524 . S
C1403 C1404 1.397 . S
C1403 C1408 1.363 . S
C1404 H1381 0.950 . S
C1404 C1403 1.397 . S
C1404 C1405 1.334 . S
C1405 H1382 0.950 . S
C1405 C1404 1.334 . S
C1405 C1406 1.287 . S
C1406 C1405 1.287 . S
C1406 C1407 1.524 . S
C1406 H1425 0.913 . S
C1407 H1383 0.950 . S
C1407 C1406 1.524 . S
C1407 C1408 1.415 . S
C1408 H1384 0.950 . S
C1408 C1403 1.363 . S
C1408 C1407 1.415 . S
C1409 H1385 0.951 1_655 S
C1409 C1410 1.363 1_655 S
C1409 C1411 1.388 . S
C1410 C1409 1.363 1_455 S
C1410 C1414 1.345 1_455 S
C1411 H1386 0.951 . S
C1411 C1409 1.388 . S
C1411 C1412 1.366 . S
C1412 C1411 1.366 . S
C1412 C1413 1.414 . S
C1412 C1415 1.499 . S
C1413 H1387 0.950 . S
C1413 C1412 1.414 . S
C1413 C1414 1.374 . S
C1414 H1388 0.950 . S
C1414 C1410 1.345 1_655 S
C1414 C1413 1.374 . S
C1415 C1412 1.499 . S
C1415 C1416 1.373 . S
C1415 C1417 1.389 . S
C1416 H1389 0.950 . S
C1416 C1402 1.377 . S
C1416 C1415 1.373 . S
C1417 C1401 1.377 . S
C1417 C1415 1.389 . S
C1417 C1418 1.524 . S
C1418 C1417 1.524 . S
C1418 C1419 1.397 1_655 S
C1418 C1423 1.363 . S
C1419 H1390 0.950 . S
C1419 C1418 1.397 1_455 S
C1419 C1420 1.334 . S
C1420 H1391 0.950 . S
C1420 C1419 1.334 . S
C1420 C1421 1.287 . S
C1421 C1420 1.287 . S
C1421 C1422 1.524 . S
C1421 H1424 0.999 . S
C1422 H1392 0.950 . S
C1422 C1421 1.524 . S
C1422 C1423 1.415 1_455 S
C1423 H1393 0.950 . S
C1423 C1418 1.363 . S
C1423 C1422 1.415 1_655 S
H1424 C1421 0.999 . S
H1425 C1406 0.913 . S
H1426 C1444 0.951 . S
H1427 C1446 0.951 . S
H1428 C1448 0.950 . S
H1429 C1449 0.950 . S
H1430 C1451 0.950 . S
H1431 C1454 0.950 . S
H1432 C1455 0.950 . S
H1433 C1457 0.950 . S
H1434 C1458 0.950 . S
H1435 C1459 0.951 . S
H1436 C1461 0.951 . S
H1437 C1463 0.950 . S
H1438 C1464 0.950 . S
H1439 C1466 0.950 . S
H1440 C1469 0.950 . S
H1441 C1470 0.950 . S
H1442 C1472 0.950 . S
H1443 C1473 0.950 . S
C1444 H1426 0.951 . S
C1444 C1445 1.366 . S
C1444 C1446 1.388 . S
C1445 C1444 1.366 . S
C1445 C1449 1.385 . S
C1446 H1427 0.951 . S
C1446 C1444 1.388 . S
C1446 C1447 1.366 . S
C1447 C1446 1.366 . S
C1447 C1448 1.414 . S
C1447 C1450 1.499 . S
C1448 H1428 0.950 . S
C1448 C1447 1.414 . S
C1448 C1449 1.374 . S
C1449 H1429 0.950 . S
C1449 C1445 1.385 . S
C1449 C1448 1.374 . S
C1450 C1447 1.499 . S
C1450 C1451 1.373 . S
C1450 C1452 1.389 . S
C1451 H1430 0.950 . S
C1451 C1450 1.373 . S
C1451 C1467 1.377 . S
C1452 C1450 1.389 . S
C1452 C1453 1.524 . S
C1452 C1466 1.377 . S
C1453 C1452 1.524 . S
C1453 C1454 1.397 . S
C1453 C1458 1.363 . S
C1454 H1431 0.950 . S
C1454 C1453 1.397 . S
C1454 C1455 1.334 . S
C1455 H1432 0.950 . S
C1455 C1454 1.334 . S
C1455 C1456 1.287 . S
C1456 C1455 1.287 . S
C1456 C1457 1.524 . S
C1456 H1475 0.913 . S
C1457 H1433 0.950 . S
C1457 C1456 1.524 . S
C1457 C1458 1.415 . S
C1458 H1434 0.950 . S
C1458 C1453 1.363 . S
C1458 C1457 1.415 . S
C1459 H1435 0.951 . S
C1459 C1460 1.366 . S
C1459 C1461 1.388 . S
C1460 C1459 1.366 . S
C1460 C1464 1.385 . S
C1461 H1436 0.951 . S
C1461 C1459 1.388 . S
C1461 C1462 1.366 . S
C1462 C1461 1.366 . S
C1462 C1463 1.414 . S
C1462 C1465 1.499 . S
C1463 H1437 0.950 . S
C1463 C1462 1.414 . S
C1463 C1464 1.374 . S
C1464 H1438 0.950 . S
C1464 C1460 1.385 . S
C1464 C1463 1.374 . S
C1465 C1462 1.499 . S
C1465 C1466 1.373 . S
C1465 C1467 1.389 . S
C1466 H1439 0.950 . S
C1466 C1452 1.377 . S
C1466 C1465 1.373 . S
C1467 C1451 1.377 . S
C1467 C1465 1.389 . S
C1467 C1468 1.524 . S
C1468 C1467 1.524 . S
C1468 C1469 1.397 . S
C1468 C1473 1.363 . S
C1469 H1440 0.950 . S
C1469 C1468 1.397 . S
C1469 C1470 1.334 . S
C1470 H1441 0.950 . S
C1470 C1469 1.334 . S
C1470 C1471 1.287 . S
C1471 C1470 1.287 . S
C1471 C1472 1.524 . S
C1471 H1474 0.999 . S
C1472 H1442 0.950 . S
C1472 C1471 1.524 . S
C1472 C1473 1.415 . S
C1473 H1443 0.950 . S
C1473 C1468 1.363 . S
C1473 C1472 1.415 . S
H1474 C1471 0.999 . S
H1475 C1456 0.913 . S
H1476 C1494 0.951 . S
H1477 C1496 0.951 . S
H1478 C1498 0.950 . S
H1479 C1499 0.950 . S
H1480 C1501 0.950 . S
H1481 C1504 0.950 1_565 S
H1482 C1505 0.950 1_565 S
H1483 C1507 0.950 . S
H1484 C1508 0.950 . S
H1485 C1509 0.951 . S
H1486 C1511 0.951 . S
H1487 C1513 0.950 . S
H1488 C1514 0.950 . S
H1489 C1516 0.950 . S
H1490 C1519 0.950 . S
H1491 C1520 0.950 . S
H1492 C1522 0.950 1_565 S
H1493 C1523 0.950 1_565 S
C1494 H1476 0.951 . S
C1494 C1495 1.366 . S
C1494 C1496 1.388 . S
C1495 C1494 1.366 . S
C1495 C1499 1.385 1_545 S
C1496 H1477 0.951 . S
C1496 C1494 1.388 . S
C1496 C1497 1.366 . S
C1497 C1496 1.366 . S
C1497 C1498 1.414 1_545 S
C1497 C1500 1.499 . S
C1498 H1478 0.950 . S
C1498 C1497 1.414 1_565 S
C1498 C1499 1.374 . S
C1499 H1479 0.950 . S
C1499 C1495 1.385 1_565 S
C1499 C1498 1.374 . S
C1500 C1497 1.499 . S
C1500 C1501 1.373 . S
C1500 C1502 1.389 . S
C1501 H1480 0.950 . S
C1501 C1500 1.373 . S
C1501 C1517 1.377 . S
C1502 C1500 1.389 . S
C1502 C1503 1.524 . S
C1502 C1516 1.377 . S
C1503 C1502 1.524 . S
C1503 C1504 1.397 . S
C1503 C1508 1.363 . S
C1504 H1481 0.950 1_545 S
C1504 C1503 1.397 . S
C1504 C1505 1.334 . S
C1505 H1482 0.950 1_545 S
C1505 C1504 1.334 . S
C1505 C1506 1.287 . S
C1506 C1505 1.287 . S
C1506 C1507 1.524 . S
C1506 H1525 0.913 . S
C1507 H1483 0.950 . S
C1507 C1506 1.524 . S
C1507 C1508 1.415 . S
C1508 H1484 0.950 . S
C1508 C1503 1.363 . S
C1508 C1507 1.415 . S
C1509 H1485 0.951 . S
C1509 C1510 1.366 . S
C1509 C1511 1.388 . S
C1510 C1509 1.366 . S
C1510 C1514 1.385 . S
C1511 H1486 0.951 . S
C1511 C1509 1.388 . S
C1511 C1512 1.366 . S
C1512 C1511 1.366 . S
C1512 C1513 1.414 . S
C1512 C1515 1.499 . S
C1513 H1487 0.950 . S
C1513 C1512 1.414 . S
C1513 C1514 1.374 . S
C1514 H1488 0.950 . S
C1514 C1510 1.385 . S
C1514 C1513 1.374 . S
C1515 C1512 1.499 . S
C1515 C1516 1.373 . S
C1515 C1517 1.389 . S
C1516 H1489 0.950 . S
C1516 C1502 1.377 . S
C1516 C1515 1.373 . S
C1517 C1501 1.377 . S
C1517 C1515 1.389 . S
C1517 C1518 1.524 . S
C1518 C1517 1.524 . S
C1518 C1519 1.397 . S
C1518 C1523 1.363 . S
C1519 H1490 0.950 . S
C1519 C1518 1.397 . S
C1519 C1520 1.334 . S
C1520 H1491 0.950 . S
C1520 C1519 1.334 . S
C1520 C1521 1.287 . S
C1521 C1520 1.287 . S
C1521 C1522 1.524 . S
C1521 H1524 0.999 . S
C1522 H1492 0.950 1_545 S
C1522 C1521 1.524 . S
C1522 C1523 1.415 . S
C1523 H1493 0.950 1_545 S
C1523 C1518 1.363 . S
C1523 C1522 1.415 . S
H1524 C1521 0.999 . S
H1525 C1506 0.913 . S
H1526 C1544 0.951 . S
H1527 C1546 0.951 . S
H1528 C1548 0.950 . S
H1529 C1549 0.950 . S
H1530 C1551 0.950 1_554 S
H1531 C1554 0.950 . S
H1532 C1555 0.950 . S
H1533 C1557 0.950 . S
H1534 C1558 0.972 . S
H1535 C1559 0.951 . S
H1536 C1561 0.951 . S
H1537 C1563 0.950 . S
H1538 C1564 0.950 . S
H1539 C1566 0.950 . S
H1540 C1569 0.950 . S
H1541 C1570 0.950 . S
H1542 C1572 0.950 . S
H1543 C1573 0.950 . S
C1544 H1526 0.951 . S
C1544 C1545 1.366 . S
C1544 C1546 1.388 . S
C1545 C1544 1.366 . S
C1545 C1549 1.385 . S
C1546 H1527 0.951 . S
C1546 C1544 1.388 . S
C1546 C1547 1.366 . S
C1547 C1546 1.366 . S
C1547 C1548 1.414 . S
C1547 C1550 1.499 . S
C1548 H1528 0.950 . S
C1548 C1547 1.414 . S
C1548 C1549 1.374 . S
C1549 H1529 0.950 . S
C1549 C1545 1.385 . S
C1549 C1548 1.374 . S
C1550 C1547 1.499 . S
C1550 C1551 1.373 1_554 S
C1550 C1552 1.389 1_554 S
C1551 H1530 0.950 1_556 S
C1551 C1550 1.373 1_556 S
C1551 C1567 1.377 . S
C1552 C1550 1.389 1_556 S
C1552 C1553 1.524 1_556 S
C1552 C1566 1.377 . S
C1553 C1552 1.524 1_554 S
C1553 C1554 1.397 . S
C1553 C1558 1.354 1_554 S
C1554 H1531 0.950 . S
C1554 C1553 1.397 . S
C1554 C1555 1.334 . S
C1555 H1532 0.950 . S
C1555 C1554 1.334 . S
C1555 C1556 1.287 . S
C1556 C1555 1.287 . S
C1556 C1557 1.524 . S
C1556 H1575 0.913 . S
C1557 H1533 0.950 . S
C1557 C1556 1.524 . S
C1557 C1558 1.402 1_554 S
C1558 H1534 0.972 . S
C1558 C1553 1.354 1_556 S
C1558 C1557 1.402 1_556 S
C1559 H1535 0.951 . S
C1559 C1560 1.366 . S
C1559 C1561 1.388 . S
C1560 C1559 1.366 . S
C1560 C1564 1.385 . S
C1561 H1536 0.951 . S
C1561 C1559 1.388 . S
C1561 C1562 1.366 . S
C1562 C1561 1.366 . S
C1562 C1563 1.414 . S
C1562 C1565 1.499 . S
C1563 H1537 0.950 . S
C1563 C1562 1.414 . S
C1563 C1564 1.374 . S
C1564 H1538 0.950 . S
C1564 C1560 1.385 . S
C1564 C1563 1.374 . S
C1565 C1562 1.499 . S
C1565 C1566 1.373 . S
C1565 C1567 1.389 . S
C1566 H1539 0.950 . S
C1566 C1552 1.377 . S
C1566 C1565 1.373 . S
C1567 C1551 1.377 . S
C1567 C1565 1.389 . S
C1567 C1568 1.524 . S
C1568 C1567 1.524 . S
C1568 C1569 1.397 . S
C1568 C1573 1.363 . S
C1569 H1540 0.950 . S
C1569 C1568 1.397 . S
C1569 C1570 1.334 . S
C1570 H1541 0.950 . S
C1570 C1569 1.334 . S
C1570 C1571 1.287 . S
C1571 C1570 1.287 . S
C1571 C1572 1.524 . S
C1571 H1574 0.999 . S
C1572 H1542 0.950 . S
C1572 C1571 1.524 . S
C1572 C1573 1.415 . S
C1573 H1543 0.950 . S
C1573 C1568 1.363 . S
C1573 C1572 1.415 . S
H1574 C1571 0.999 . S
H1575 C1556 0.913 . S
H1576 C1594 0.951 . S
H1577 C1596 0.951 . S
H1578 C1598 0.950 . S
H1579 C1599 0.950 . S
H1580 C1601 0.950 . S
H1581 C1604 0.950 . S
H1582 C1605 0.950 . S
H1583 C1607 0.950 . S
H1584 C1608 0.950 . S
H1585 C1609 0.951 . S
H1586 C1611 0.951 . S
H1587 C1613 0.950 1_455 S
H1588 C1614 0.950 . S
H1589 C1616 0.950 . S
H1590 C1619 0.950 . S
H1591 C1620 0.950 . S
H1592 C1622 0.950 . S
H1593 C1623 0.950 . S
C1594 H1576 0.951 . S
C1594 C1595 1.366 . S
C1594 C1596 1.388 . S
C1595 C1594 1.366 . S
C1595 C1599 1.385 . S
C1596 H1577 0.951 . S
C1596 C1594 1.388 . S
C1596 C1597 1.366 . S
C1597 C1596 1.366 . S
C1597 C1598 1.414 . S
C1597 C1600 1.499 . S
C1598 H1578 0.950 . S
C1598 C1597 1.414 . S
C1598 C1599 1.374 . S
C1599 H1579 0.950 . S
C1599 C1595 1.385 . S
C1599 C1598 1.374 . S
C1600 C1597 1.499 . S
C1600 C1601 1.373 . S
C1600 C1602 1.389 . S
C1601 H1580 0.950 . S
C1601 C1600 1.373 . S
C1601 C1617 1.377 . S
C1602 C1600 1.389 . S
C1602 C1603 1.524 . S
C1602 C1616 1.377 . S
C1603 C1602 1.524 . S
C1603 C1604 1.397 . S
C1603 C1608 1.363 . S
C1604 H1581 0.950 . S
C1604 C1603 1.397 . S
C1604 C1605 1.334 . S
C1605 H1582 0.950 . S
C1605 C1604 1.334 . S
C1605 C1606 1.287 . S
C1606 C1605 1.287 . S
C1606 C1607 1.524 . S
C1606 H1625 0.913 . S
C1607 H1583 0.950 . S
C1607 C1606 1.524 . S
C1607 C1608 1.415 . S
C1608 H1584 0.950 . S
C1608 C1603 1.363 . S
C1608 C1607 1.415 . S
C1609 H1585 0.951 . S
C1609 C1610 1.366 . S
C1609 C1611 1.388 . S
C1610 C1609 1.366 . S
C1610 C1614 1.385 1_655 S
C1611 H1586 0.951 . S
C1611 C1609 1.388 . S
C1611 C1612 1.366 . S
C1612 C1611 1.366 . S
C1612 C1613 1.414 . S
C1612 C1615 1.499 . S
C1613 H1587 0.950 1_655 S
C1613 C1612 1.414 . S
C1613 C1614 1.374 1_655 S
C1614 H1588 0.950 . S
C1614 C1610 1.385 1_455 S
C1614 C1613 1.374 1_455 S
C1615 C1612 1.499 . S
C1615 C1616 1.373 . S
C1615 C1617 1.389 . S
C1616 H1589 0.950 . S
C1616 C1602 1.377 . S
C1616 C1615 1.373 . S
C1617 C1601 1.377 . S
C1617 C1615 1.389 . S
C1617 C1618 1.524 . S
C1618 C1617 1.524 . S
C1618 C1619 1.397 . S
C1618 C1623 1.363 . S
C1619 H1590 0.950 . S
C1619 C1618 1.397 . S
C1619 C1620 1.334 . S
C1620 H1591 0.950 . S
C1620 C1619 1.334 . S
C1620 C1621 1.287 . S
C1621 C1620 1.287 . S
C1621 C1622 1.524 . S
C1621 H1624 0.999 . S
C1622 H1592 0.950 . S
C1622 C1621 1.524 . S
C1622 C1623 1.415 . S
C1623 H1593 0.950 . S
C1623 C1618 1.363 . S
C1623 C1622 1.415 . S
H1624 C1621 0.999 . S
H1625 C1606 0.913 . S
H1626 C1644 0.951 . S
H1627 C1646 0.951 . S
H1628 C1648 0.950 . S
H1629 C1649 0.950 . S
H1630 C1651 0.950 . S
H1631 C1654 0.950 . S
H1632 C1655 0.950 . S
H1633 C1657 0.950 . S
H1634 C1658 0.950 . S
H1635 C1659 0.951 . S
H1636 C1661 0.951 . S
H1637 C1663 0.950 . S
H1638 C1664 0.950 . S
H1639 C1666 0.950 . S
H1640 C1669 0.950 . S
H1641 C1670 0.950 . S
H1642 C1672 0.950 . S
H1643 C1673 0.950 . S
C1644 H1626 0.951 . S
C1644 C1645 1.366 . S
C1644 C1646 1.388 . S
C1645 C1644 1.366 . S
C1645 C1649 1.385 . S
C1646 H1627 0.951 . S
C1646 C1644 1.388 . S
C1646 C1647 1.366 . S
C1647 C1646 1.366 . S
C1647 C1648 1.414 . S
C1647 C1650 1.499 . S
C1648 H1628 0.950 . S
C1648 C1647 1.414 . S
C1648 C1649 1.374 . S
C1649 H1629 0.950 . S
C1649 C1645 1.385 . S
C1649 C1648 1.374 . S
C1650 C1647 1.499 . S
C1650 C1651 1.373 . S
C1650 C1652 1.389 . S
C1651 H1630 0.950 . S
C1651 C1650 1.373 . S
C1651 C1667 1.377 . S
C1652 C1650 1.389 . S
C1652 C1653 1.524 . S
C1652 C1666 1.377 . S
C1653 C1652 1.524 . S
C1653 C1654 1.397 . S
C1653 C1658 1.363 . S
C1654 H1631 0.950 . S
C1654 C1653 1.397 . S
C1654 C1655 1.334 . S
C1655 H1632 0.950 . S
C1655 C1654 1.334 . S
C1655 C1656 1.287 . S
C1656 C1655 1.287 . S
C1656 C1657 1.524 . S
C1656 H1675 0.913 . S
C1657 H1633 0.950 . S
C1657 C1656 1.524 . S
C1657 C1658 1.415 . S
C1658 H1634 0.950 . S
C1658 C1653 1.363 . S
C1658 C1657 1.415 . S
C1659 H1635 0.951 . S
C1659 C1660 1.366 . S
C1659 C1661 1.388 . S
C1660 C1659 1.366 . S
C1660 C1664 1.385 . S
C1661 H1636 0.951 . S
C1661 C1659 1.388 . S
C1661 C1662 1.366 . S
C1662 C1661 1.366 . S
C1662 C1663 1.414 . S
C1662 C1665 1.499 . S
C1663 H1637 0.950 . S
C1663 C1662 1.414 . S
C1663 C1664 1.374 . S
C1664 H1638 0.950 . S
C1664 C1660 1.385 . S
C1664 C1663 1.374 . S
C1665 C1662 1.499 . S
C1665 C1666 1.373 . S
C1665 C1667 1.389 . S
C1666 H1639 0.950 . S
C1666 C1652 1.377 . S
C1666 C1665 1.373 . S
C1667 C1651 1.377 . S
C1667 C1665 1.389 . S
C1667 C1668 1.524 . S
C1668 C1667 1.524 . S
C1668 C1669 1.397 . S
C1668 C1673 1.363 . S
C1669 H1640 0.950 . S
C1669 C1668 1.397 . S
C1669 C1670 1.334 . S
C1670 H1641 0.950 . S
C1670 C1669 1.334 . S
C1670 C1671 1.287 . S
C1671 C1670 1.287 . S
C1671 C1672 1.524 . S
C1671 H1674 0.999 . S
C1672 H1642 0.950 . S
C1672 C1671 1.524 . S
C1672 C1673 1.415 . S
C1673 H1643 0.950 . S
C1673 C1668 1.363 . S
C1673 C1672 1.415 . S
H1674 C1671 0.999 . S
H1675 C1656 0.913 . S
H1676 C1694 0.951 1_565 S
H1677 C1696 0.951 . S
H1678 C1698 0.950 . S
H1679 C1699 0.950 . S
H1680 C1701 0.950 . S
H1681 C1704 0.950 . S
H1682 C1705 0.950 . S
H1683 C1707 0.950 . S
H1684 C1708 0.950 . S
H1685 C1709 0.951 1_554 S
H1686 C1711 0.951 . S
H1687 C1713 0.950 . S
H1688 C1714 0.950 . S
H1689 C1716 0.950 . S
H1690 C1719 0.950 . S
H1691 C1720 0.956 . S
H1692 C1722 0.950 . S
H1693 C1723 0.950 . S
C1694 H1676 0.951 1_545 S
C1694 C1695 1.366 . S
C1694 C1696 1.388 . S
C1695 C1694 1.366 . S
C1695 C1699 1.385 . S
C1696 H1677 0.951 . S
C1696 C1694 1.388 . S
C1696 C1697 1.366 . S
C1697 C1696 1.366 . S
C1697 C1698 1.414 . S
C1697 C1700 1.499 . S
C1698 H1678 0.950 . S
C1698 C1697 1.414 . S
C1698 C1699 1.374 . S
C1699 H1679 0.950 . S
C1699 C1695 1.385 . S
C1699 C1698 1.374 . S
C1700 C1697 1.499 . S
C1700 C1701 1.373 . S
C1700 C1702 1.389 . S
C1701 H1680 0.950 . S
C1701 C1700 1.373 . S
C1701 C1717 1.377 . S
C1702 C1700 1.389 . S
C1702 C1703 1.524 . S
C1702 C1716 1.377 . S
C1703 C1702 1.524 . S
C1703 C1704 1.397 . S
C1703 C1708 1.363 . S
C1704 H1681 0.950 . S
C1704 C1703 1.397 . S
C1704 C1705 1.334 . S
C1705 H1682 0.950 . S
C1705 C1704 1.334 . S
C1705 C1706 1.287 . S
C1706 C1705 1.287 . S
C1706 C1707 1.524 . S
C1706 H1725 0.913 . S
C1707 H1683 0.950 . S
C1707 C1706 1.524 . S
C1707 C1708 1.415 . S
C1708 H1684 0.950 . S
C1708 C1703 1.363 . S
C1708 C1707 1.415 . S
C1709 H1685 0.951 1_556 S
C1709 C1710 1.366 . S
C1709 C1711 1.388 . S
C1710 C1709 1.366 . S
C1710 C1714 1.385 . S
C1711 H1686 0.951 . S
C1711 C1709 1.388 . S
C1711 C1712 1.366 . S
C1712 C1711 1.366 . S
C1712 C1713 1.414 . S
C1712 C1715 1.499 . S
C1713 H1687 0.950 . S
C1713 C1712 1.414 . S
C1713 C1714 1.374 . S
C1714 H1688 0.950 . S
C1714 C1710 1.385 . S
C1714 C1713 1.374 . S
C1715 C1712 1.499 . S
C1715 C1716 1.373 . S
C1715 C1717 1.389 . S
C1716 H1689 0.950 . S
C1716 C1702 1.377 . S
C1716 C1715 1.373 . S
C1717 C1701 1.377 . S
C1717 C1715 1.389 . S
C1717 C1718 1.524 . S
C1718 C1717 1.524 . S
C1718 C1719 1.397 . S
C1718 C1723 1.363 . S
C1719 H1690 0.950 . S
C1719 C1718 1.397 . S
C1719 C1720 1.327 1_545 S
C1720 H1691 0.956 . S
C1720 C1719 1.327 1_565 S
C1720 C1721 1.288 1_565 S
C1721 C1720 1.288 1_545 S
C1721 C1722 1.524 . S
C1721 H1724 0.999 1_546 S
C1722 H1692 0.950 . S
C1722 C1721 1.524 . S
C1722 C1723 1.415 . S
C1723 H1693 0.950 . S
C1723 C1718 1.363 . S
C1723 C1722 1.415 . S
H1724 C1721 0.999 1_564 S
H1725 C1706 0.913 . S
H1726 C1744 0.951 . S
H1727 C1746 0.951 . S
H1728 C1748 0.950 . S
H1729 C1749 0.950 . S
H1730 C1751 0.950 . S
H1731 C1754 0.950 . S
H1732 C1755 0.950 . S
H1733 C1757 0.950 . S
H1734 C1758 0.950 . S
H1735 C1759 0.951 . S
H1736 C1761 0.951 . S
H1737 C1763 0.950 . S
H1738 C1764 0.950 . S
H1739 C1766 0.950 . S
H1740 C1769 0.950 . S
H1741 C1770 0.950 . S
H1742 C1772 0.950 . S
H1743 C1773 0.950 . S
C1744 H1726 0.951 . S
C1744 C1745 1.366 . S
C1744 C1746 1.388 . S
C1745 C1744 1.366 . S
C1745 C1749 1.385 . S
C1746 H1727 0.951 . S
C1746 C1744 1.388 . S
C1746 C1747 1.366 . S
C1747 C1746 1.366 . S
C1747 C1748 1.414 . S
C1747 C1750 1.499 . S
C1748 H1728 0.950 . S
C1748 C1747 1.414 . S
C1748 C1749 1.374 . S
C1749 H1729 0.950 . S
C1749 C1745 1.385 . S
C1749 C1748 1.374 . S
C1750 C1747 1.499 . S
C1750 C1751 1.373 . S
C1750 C1752 1.389 . S
C1751 H1730 0.950 . S
C1751 C1750 1.373 . S
C1751 C1767 1.377 . S
C1752 C1750 1.389 . S
C1752 C1753 1.524 . S
C1752 C1766 1.377 . S
C1753 C1752 1.524 . S
C1753 C1754 1.397 . S
C1753 C1758 1.363 . S
C1754 H1731 0.950 . S
C1754 C1753 1.397 . S
C1754 C1755 1.334 . S
C1755 H1732 0.950 . S
C1755 C1754 1.334 . S
C1755 C1756 1.287 . S
C1756 C1755 1.287 . S
C1756 C1757 1.524 . S
C1756 H1775 0.913 . S
C1757 H1733 0.950 . S
C1757 C1756 1.524 . S
C1757 C1758 1.415 . S
C1758 H1734 0.950 . S
C1758 C1753 1.363 . S
C1758 C1757 1.415 . S
C1759 H1735 0.951 . S
C1759 C1760 1.366 . S
C1759 C1761 1.388 . S
C1760 C1759 1.366 . S
C1760 C1764 1.385 . S
C1761 H1736 0.951 . S
C1761 C1759 1.388 . S
C1761 C1762 1.366 . S
C1762 C1761 1.366 . S
C1762 C1763 1.414 . S
C1762 C1765 1.499 . S
C1763 H1737 0.950 . S
C1763 C1762 1.414 . S
C1763 C1764 1.374 . S
C1764 H1738 0.950 . S
C1764 C1760 1.385 . S
C1764 C1763 1.374 . S
C1765 C1762 1.499 . S
C1765 C1766 1.373 . S
C1765 C1767 1.389 . S
C1766 H1739 0.950 . S
C1766 C1752 1.377 . S
C1766 C1765 1.373 . S
C1767 C1751 1.377 . S
C1767 C1765 1.389 . S
C1767 C1768 1.524 . S
C1768 C1767 1.524 . S
C1768 C1769 1.397 . S
C1768 C1773 1.363 . S
C1769 H1740 0.950 . S
C1769 C1768 1.397 . S
C1769 C1770 1.334 . S
C1770 H1741 0.950 . S
C1770 C1769 1.334 . S
C1770 C1771 1.287 . S
C1771 C1770 1.287 . S
C1771 C1772 1.524 . S
C1771 H1774 0.999 . S
C1772 H1742 0.950 . S
C1772 C1771 1.524 . S
C1772 C1773 1.415 . S
C1773 H1743 0.950 . S
C1773 C1768 1.363 . S
C1773 C1772 1.415 . S
H1774 C1771 0.999 . S
H1775 C1756 0.913 . S
H1776 C1794 0.951 . S
H1777 C1796 0.951 . S
H1778 C1798 0.950 . S
H1779 C1799 0.950 . S
H1780 C1801 0.950 . S
H1781 C1804 0.950 . S
H1782 C1805 0.950 . S
H1783 C1807 0.950 . S
H1784 C1808 0.950 . S
H1785 C1809 0.951 . S
H1786 C1811 0.951 . S
H1787 C1813 0.950 . S
H1788 C1814 0.952 . S
H1789 C1816 0.950 . S
H1790 C1819 0.950 . S
H1791 C1820 0.950 . S
H1792 C1822 0.950 . S
H1793 C1823 0.950 . S
C1794 H1776 0.951 . S
C1794 C1795 1.366 . S
C1794 C1796 1.388 . S
C1795 C1794 1.366 . S
C1795 C1799 1.385 . S
C1796 H1777 0.951 . S
C1796 C1794 1.388 . S
C1796 C1797 1.366 . S
C1797 C1796 1.366 . S
C1797 C1798 1.414 . S
C1797 C1800 1.499 . S
C1798 H1778 0.950 . S
C1798 C1797 1.414 . S
C1798 C1799 1.374 . S
C1799 H1779 0.950 . S
C1799 C1795 1.385 . S
C1799 C1798 1.374 . S
C1800 C1797 1.499 . S
C1800 C1801 1.373 . S
C1800 C1802 1.389 . S
C1801 H1780 0.950 . S
C1801 C1800 1.373 . S
C1801 C1817 1.377 . S
C1802 C1800 1.389 . S
C1802 C1803 1.524 . S
C1802 C1816 1.377 . S
C1803 C1802 1.524 . S
C1803 C1804 1.397 . S
C1803 C1808 1.363 . S
C1804 H1781 0.950 . S
C1804 C1803 1.397 . S
C1804 C1805 1.334 . S
C1805 H1782 0.950 . S
C1805 C1804 1.334 . S
C1805 C1806 1.287 . S
C1806 C1805 1.287 . S
C1806 C1807 1.524 . S
C1806 H1825 0.913 . S
C1807 H1783 0.950 . S
C1807 C1806 1.524 . S
C1807 C1808 1.415 . S
C1808 H1784 0.950 . S
C1808 C1803 1.363 . S
C1808 C1807 1.415 . S
C1809 H1785 0.951 . S
C1809 C1810 1.366 . S
C1809 C1811 1.388 . S
C1810 C1809 1.366 . S
C1810 C1814 1.385 . S
C1811 H1786 0.951 . S
C1811 C1809 1.388 . S
C1811 C1812 1.330 1_545 S
C1812 C1811 1.330 1_565 S
C1812 C1813 1.422 . S
C1812 C1815 1.528 . S
C1813 H1787 0.950 . S
C1813 C1812 1.422 . S
C1813 C1814 1.374 1_565 S
C1814 H1788 0.952 . S
C1814 C1810 1.385 . S
C1814 C1813 1.374 1_545 S
C1815 C1812 1.528 . S
C1815 C1816 1.373 . S
C1815 C1817 1.389 . S
C1816 H1789 0.950 . S
C1816 C1802 1.377 . S
C1816 C1815 1.373 . S
C1817 C1801 1.377 . S
C1817 C1815 1.389 . S
C1817 C1818 1.524 1_565 S
C1818 C1817 1.524 1_545 S
C1818 C1819 1.397 . S
C1818 C1823 1.363 . S
C1819 H1790 0.950 . S
C1819 C1818 1.397 . S
C1819 C1820 1.334 . S
C1820 H1791 0.950 . S
C1820 C1819 1.334 . S
C1820 C1821 1.287 . S
C1821 C1820 1.287 . S
C1821 C1822 1.524 . S
C1821 H1824 0.999 . S
C1822 H1792 0.950 . S
C1822 C1821 1.524 . S
C1822 C1823 1.415 . S
C1823 H1793 0.950 . S
C1823 C1818 1.363 . S
C1823 C1822 1.415 . S
H1824 C1821 0.999 . S
H1825 C1806 0.913 . S
H1826 C1844 0.951 . S
H1827 C1846 0.951 . S
H1828 C1848 0.950 . S
H1829 C1849 0.950 . S
H1830 C1851 0.971 . S
H1831 C1854 0.950 . S
H1832 C1855 0.950 . S
H1833 C1857 0.950 . S
H1834 C1858 0.950 . S
H1835 C1859 0.951 . S
H1836 C1861 0.951 . S
H1837 C1863 0.950 . S
H1838 C1864 0.950 . S
H1839 C1866 0.950 . S
H1840 C1869 0.950 1_554 S
H1841 C1870 0.950 . S
H1842 C1872 0.950 . S
H1843 C1873 0.950 . S
C1844 H1826 0.951 . S
C1844 C1845 1.332 1_554 S
C1844 C1846 1.388 . S
C1845 C1844 1.332 1_556 S
C1845 C1849 1.401 . S
C1846 H1827 0.951 . S
C1846 C1844 1.388 . S
C1846 C1847 1.366 . S
C1847 C1846 1.366 . S
C1847 C1848 1.414 1_554 S
C1847 C1850 1.499 . S
C1848 H1828 0.950 . S
C1848 C1847 1.414 1_556 S
C1848 C1849 1.374 . S
C1849 H1829 0.950 . S
C1849 C1845 1.401 . S
C1849 C1848 1.374 . S
C1850 C1847 1.499 . S
C1850 C1851 1.361 1_554 S
C1850 C1852 1.389 . S
C1851 H1830 0.971 . S
C1851 C1850 1.361 1_556 S
C1851 C1867 1.369 1_556 S
C1852 C1850 1.389 . S
C1852 C1853 1.524 . S
C1852 C1866 1.377 . S
C1853 C1852 1.524 . S
C1853 C1854 1.397 . S
C1853 C1858 1.363 . S
C1854 H1831 0.950 . S
C1854 C1853 1.397 . S
C1854 C1855 1.334 . S
C1855 H1832 0.950 . S
C1855 C1854 1.334 . S
C1855 C1856 1.287 . S
C1856 C1855 1.287 . S
C1856 C1857 1.524 . S
C1856 H1875 0.913 . S
C1857 H1833 0.950 . S
C1857 C1856 1.524 . S
C1857 C1858 1.415 . S
C1858 H1834 0.950 . S
C1858 C1853 1.363 . S
C1858 C1857 1.415 . S
C1859 H1835 0.951 . S
C1859 C1860 1.366 . S
C1859 C1861 1.388 . S
C1860 C1859 1.366 . S
C1860 C1864 1.385 . S
C1861 H1836 0.951 . S
C1861 C1859 1.388 . S
C1861 C1862 1.366 . S
C1862 C1861 1.366 . S
C1862 C1863 1.414 . S
C1862 C1865 1.499 . S
C1863 H1837 0.950 . S
C1863 C1862 1.414 . S
C1863 C1864 1.374 . S
C1864 H1838 0.950 . S
C1864 C1860 1.385 . S
C1864 C1863 1.374 . S
C1865 C1862 1.499 . S
C1865 C1866 1.373 . S
C1865 C1867 1.389 . S
C1866 H1839 0.950 . S
C1866 C1852 1.377 . S
C1866 C1865 1.373 . S
C1867 C1851 1.369 1_554 S
C1867 C1865 1.389 . S
C1867 C1868 1.524 1_554 S
C1868 C1867 1.524 1_556 S
C1868 C1869 1.397 . S
C1868 C1873 1.363 . S
C1869 H1840 0.950 1_556 S
C1869 C1868 1.397 . S
C1869 C1870 1.334 . S
C1870 H1841 0.950 . S
C1870 C1869 1.334 . S
C1870 C1871 1.287 . S
C1871 C1870 1.287 . S
C1871 C1872 1.524 . S
C1871 H1874 0.999 . S
C1872 H1842 0.950 . S
C1872 C1871 1.524 . S
C1872 C1873 1.415 . S
C1873 H1843 0.950 . S
C1873 C1868 1.363 . S
C1873 C1872 1.415 . S
H1874 C1871 0.999 . S
H1875 C1856 0.913 . S
H1876 C1894 0.951 . S
H1877 C1896 0.951 . S
H1878 C1898 0.950 . S
H1879 C1899 0.950 . S
H1880 C1901 0.950 . S
H1881 C1904 0.950 . S
H1882 C1905 0.950 . S
H1883 C1907 0.950 . S
H1884 C1908 0.950 . S
H1885 C1909 0.951 . S
H1886 C1911 0.951 . S
H1887 C1913 0.950 . S
H1888 C1914 0.950 . S
H1889 C1916 0.950 . S
H1890 C1919 0.950 . S
H1891 C1920 0.950 . S
H1892 C1922 0.950 . S
H1893 C1923 0.950 . S
C1894 H1876 0.951 . S
C1894 C1895 1.366 . S
C1894 C1896 1.388 . S
C1895 C1894 1.366 . S
C1895 C1899 1.385 . S
C1896 H1877 0.951 . S
C1896 C1894 1.388 . S
C1896 C1897 1.366 . S
C1897 C1896 1.366 . S
C1897 C1898 1.414 . S
C1897 C1900 1.499 . S
C1898 H1878 0.950 . S
C1898 C1897 1.414 . S
C1898 C1899 1.374 . S
C1899 H1879 0.950 . S
C1899 C1895 1.385 . S
C1899 C1898 1.374 . S
C1900 C1897 1.499 . S
C1900 C1901 1.373 . S
C1900 C1902 1.389 . S
C1901 H1880 0.950 . S
C1901 C1900 1.373 . S
C1901 C1917 1.377 . S
C1902 C1900 1.389 . S
C1902 C1903 1.524 . S
C1902 C1916 1.377 . S
C1903 C1902 1.524 . S
C1903 C1904 1.397 . S
C1903 C1908 1.363 . S
C1904 H1881 0.950 . S
C1904 C1903 1.397 . S
C1904 C1905 1.334 . S
C1905 H1882 0.950 . S
C1905 C1904 1.334 . S
C1905 C1906 1.287 . S
C1906 C1905 1.287 . S
C1906 C1907 1.524 . S
C1906 H1925 0.913 . S
C1907 H1883 0.950 . S
C1907 C1906 1.524 . S
C1907 C1908 1.415 . S
C1908 H1884 0.950 . S
C1908 C1903 1.363 . S
C1908 C1907 1.415 . S
C1909 H1885 0.951 . S
C1909 C1910 1.366 . S
C1909 C1911 1.388 . S
C1910 C1909 1.366 . S
C1910 C1914 1.385 . S
C1911 H1886 0.951 . S
C1911 C1909 1.388 . S
C1911 C1912 1.366 . S
C1912 C1911 1.366 . S
C1912 C1913 1.414 . S
C1912 C1915 1.499 . S
C1913 H1887 0.950 . S
C1913 C1912 1.414 . S
C1913 C1914 1.374 . S
C1914 H1888 0.950 . S
C1914 C1910 1.385 . S
C1914 C1913 1.374 . S
C1915 C1912 1.499 . S
C1915 C1916 1.373 . S
C1915 C1917 1.389 . S
C1916 H1889 0.950 . S
C1916 C1902 1.377 . S
C1916 C1915 1.373 . S
C1917 C1901 1.377 . S
C1917 C1915 1.389 . S
C1917 C1918 1.524 . S
C1918 C1917 1.524 . S
C1918 C1919 1.397 . S
C1918 C1923 1.363 . S
C1919 H1890 0.950 . S
C1919 C1918 1.397 . S
C1919 C1920 1.334 . S
C1920 H1891 0.950 . S
C1920 C1919 1.334 . S
C1920 C1921 1.287 . S
C1921 C1920 1.287 . S
C1921 C1922 1.524 . S
C1921 H1924 0.999 . S
C1922 H1892 0.950 . S
C1922 C1921 1.524 . S
C1922 C1923 1.415 . S
C1923 H1893 0.950 . S
C1923 C1918 1.363 . S
C1923 C1922 1.415 . S
H1924 C1921 0.999 . S
H1925 C1906 0.913 . S
H1926 C1944 0.951 . S
H1927 C1946 0.951 . S
H1928 C1948 0.950 . S
H1929 C1949 0.950 . S
H1930 C1951 0.950 . S
H1931 C1954 0.950 . S
H1932 C1955 0.950 . S
H1933 C1957 0.950 . S
H1934 C1958 0.950 . S
H1935 C1959 0.951 . S
H1936 C1961 0.951 . S
H1937 C1963 0.950 . S
H1938 C1964 0.950 . S
H1939 C1966 0.950 . S
H1940 C1969 0.950 . S
H1941 C1970 0.950 . S
H1942 C1972 0.950 . S
H1943 C1973 0.950 . S
C1944 H1926 0.951 . S
C1944 C1945 1.366 . S
C1944 C1946 1.388 . S
C1945 C1944 1.366 . S
C1945 C1949 1.385 . S
C1946 H1927 0.951 . S
C1946 C1944 1.388 . S
C1946 C1947 1.366 . S
C1947 C1946 1.366 . S
C1947 C1948 1.414 . S
C1947 C1950 1.499 . S
C1948 H1928 0.950 . S
C1948 C1947 1.414 . S
C1948 C1949 1.374 . S
C1949 H1929 0.950 . S
C1949 C1945 1.385 . S
C1949 C1948 1.374 . S
C1950 C1947 1.499 . S
C1950 C1951 1.373 . S
C1950 C1952 1.389 . S
C1951 H1930 0.950 . S
C1951 C1950 1.373 . S
C1951 C1967 1.377 . S
C1952 C1950 1.389 . S
C1952 C1953 1.524 . S
C1952 C1966 1.377 . S
C1953 C1952 1.524 . S
C1953 C1954 1.397 . S
C1953 C1958 1.363 . S
C1954 H1931 0.950 . S
C1954 C1953 1.397 . S
C1954 C1955 1.334 . S
C1955 H1932 0.950 . S
C1955 C1954 1.334 . S
C1955 C1956 1.287 . S
C1956 C1955 1.287 . S
C1956 C1957 1.524 . S
C1956 H1975 0.913 . S
C1957 H1933 0.950 . S
C1957 C1956 1.524 . S
C1957 C1958 1.415 . S
C1958 H1934 0.950 . S
C1958 C1953 1.363 . S
C1958 C1957 1.415 . S
C1959 H1935 0.951 . S
C1959 C1960 1.366 . S
C1959 C1961 1.388 . S
C1960 C1959 1.366 . S
C1960 C1964 1.385 . S
C1961 H1936 0.951 . S
C1961 C1959 1.388 . S
C1961 C1962 1.366 . S
C1962 C1961 1.366 . S
C1962 C1963 1.414 . S
C1962 C1965 1.499 . S
C1963 H1937 0.950 . S
C1963 C1962 1.414 . S
C1963 C1964 1.374 . S
C1964 H1938 0.950 . S
C1964 C1960 1.385 . S
C1964 C1963 1.374 . S
C1965 C1962 1.499 . S
C1965 C1966 1.373 . S
C1965 C1967 1.389 . S
C1966 H1939 0.950 . S
C1966 C1952 1.377 . S
C1966 C1965 1.373 . S
C1967 C1951 1.377 . S
C1967 C1965 1.389 . S
C1967 C1968 1.524 . S
C1968 C1967 1.524 . S
C1968 C1969 1.397 . S
C1968 C1973 1.363 . S
C1969 H1940 0.950 . S
C1969 C1968 1.397 . S
C1969 C1970 1.334 . S
C1970 H1941 0.950 . S
C1970 C1969 1.334 . S
C1970 C1971 1.287 . S
C1971 C1970 1.287 . S
C1971 C1972 1.524 . S
C1971 H1974 0.999 . S
C1972 H1942 0.950 . S
C1972 C1971 1.524 . S
C1972 C1973 1.415 . S
C1973 H1943 0.950 . S
C1973 C1968 1.363 . S
C1973 C1972 1.415 . S
H1974 C1971 0.999 . S
H1975 C1956 0.913 . S
H1976 C1994 0.951 . S
H1977 C1996 0.951 . S
H1978 C1998 0.950 . S
H1979 C1999 0.950 . S
H1980 C2001 0.950 . S
H1981 C2004 0.950 . S
H1982 C2005 0.950 . S
H1983 C2007 0.950 . S
H1984 C2008 0.950 . S
H1985 C2009 0.951 . S
H1986 C2011 0.951 . S
H1987 C2013 0.950 . S
H1988 C2014 0.950 . S
H1989 C2016 0.950 . S
H1990 C2019 0.950 . S
H1991 C2020 0.950 . S
H1992 C2022 0.950 . S
H1993 C2023 0.950 . S
C1994 H1976 0.951 . S
C1994 C1995 1.366 . S
C1994 C1996 1.388 . S
C1995 C1994 1.366 . S
C1995 C1999 1.385 . S
C1996 H1977 0.951 . S
C1996 C1994 1.388 . S
C1996 C1997 1.366 . S
C1997 C1996 1.366 . S
C1997 C1998 1.414 . S
C1997 C2000 1.499 . S
C1998 H1978 0.950 . S
C1998 C1997 1.414 . S
C1998 C1999 1.374 . S
C1999 H1979 0.950 . S
C1999 C1995 1.385 . S
C1999 C1998 1.374 . S
C2000 C1997 1.499 . S
C2000 C2001 1.373 . S
C2000 C2002 1.389 . S
C2001 H1980 0.950 . S
C2001 C2000 1.373 . S
C2001 C2017 1.377 . S
C2002 C2000 1.389 . S
C2002 C2003 1.524 . S
C2002 C2016 1.377 . S
C2003 C2002 1.524 . S
C2003 C2004 1.397 . S
C2003 C2008 1.363 . S
C2004 H1981 0.950 . S
C2004 C2003 1.397 . S
C2004 C2005 1.334 . S
C2005 H1982 0.950 . S
C2005 C2004 1.334 . S
C2005 C2006 1.287 . S
C2006 C2005 1.287 . S
C2006 C2007 1.524 . S
C2006 H2025 0.913 . S
C2007 H1983 0.950 . S
C2007 C2006 1.524 . S
C2007 C2008 1.415 . S
C2008 H1984 0.950 . S
C2008 C2003 1.363 . S
C2008 C2007 1.415 . S
C2009 H1985 0.951 . S
C2009 C2010 1.366 . S
C2009 C2011 1.388 . S
C2010 C2009 1.366 . S
C2010 C2014 1.385 . S
C2011 H1986 0.951 . S
C2011 C2009 1.388 . S
C2011 C2012 1.366 . S
C2012 C2011 1.366 . S
C2012 C2013 1.414 . S
C2012 C2015 1.499 . S
C2013 H1987 0.950 . S
C2013 C2012 1.414 . S
C2013 C2014 1.374 . S
C2014 H1988 0.950 . S
C2014 C2010 1.385 . S
C2014 C2013 1.374 . S
C2015 C2012 1.499 . S
C2015 C2016 1.373 . S
C2015 C2017 1.389 . S
C2016 H1989 0.950 . S
C2016 C2002 1.377 . S
C2016 C2015 1.373 . S
C2017 C2001 1.377 . S
C2017 C2015 1.389 . S
C2017 C2018 1.524 . S
C2018 C2017 1.524 . S
C2018 C2019 1.397 . S
C2018 C2023 1.363 . S
C2019 H1990 0.950 . S
C2019 C2018 1.397 . S
C2019 C2020 1.334 . S
C2020 H1991 0.950 . S
C2020 C2019 1.334 . S
C2020 C2021 1.287 . S
C2021 C2020 1.287 . S
C2021 C2022 1.524 . S
C2021 H2024 0.999 . S
C2022 H1992 0.950 . S
C2022 C2021 1.524 . S
C2022 C2023 1.415 . S
C2023 H1993 0.950 . S
C2023 C2018 1.363 . S
C2023 C2022 1.415 . S
H2024 C2021 0.999 . S
H2025 C2006 0.913 . S
H2026 C2044 0.951 . S
H2027 C2046 0.951 . S
H2028 C2048 0.950 . S
H2029 C2049 0.950 . S
H2030 C2051 0.950 . S
H2031 C2054 0.950 . S
H2032 C2055 0.950 . S
H2033 C2057 0.950 . S
H2034 C2058 0.950 . S
H2035 C2059 0.951 . S
H2036 C2061 0.951 . S
H2037 C2063 0.950 . S
H2038 C2064 0.950 . S
H2039 C2066 0.950 . S
H2040 C2069 0.950 . S
H2041 C2070 0.950 . S
H2042 C2072 0.950 . S
H2043 C2073 0.950 . S
C2044 H2026 0.951 . S
C2044 C2045 1.366 . S
C2044 C2046 1.388 . S
C2045 C2044 1.366 . S
C2045 C2049 1.385 . S
C2046 H2027 0.951 . S
C2046 C2044 1.388 . S
C2046 C2047 1.366 . S
C2047 C2046 1.366 . S
C2047 C2048 1.414 . S
C2047 C2050 1.499 . S
C2048 H2028 0.950 . S
C2048 C2047 1.414 . S
C2048 C2049 1.374 . S
C2049 H2029 0.950 . S
C2049 C2045 1.385 . S
C2049 C2048 1.374 . S
C2050 C2047 1.499 . S
C2050 C2051 1.373 . S
C2050 C2052 1.389 . S
C2051 H2030 0.950 . S
C2051 C2050 1.373 . S
C2051 C2067 1.377 . S
C2052 C2050 1.389 . S
C2052 C2053 1.524 . S
C2052 C2066 1.377 . S
C2053 C2052 1.524 . S
C2053 C2054 1.397 . S
C2053 C2058 1.363 . S
C2054 H2031 0.950 . S
C2054 C2053 1.397 . S
C2054 C2055 1.334 . S
C2055 H2032 0.950 . S
C2055 C2054 1.334 . S
C2055 C2056 1.287 . S
C2056 C2055 1.287 . S
C2056 C2057 1.524 . S
C2056 H2075 0.913 . S
C2057 H2033 0.950 . S
C2057 C2056 1.524 . S
C2057 C2058 1.415 . S
C2058 H2034 0.950 . S
C2058 C2053 1.363 . S
C2058 C2057 1.415 . S
C2059 H2035 0.951 . S
C2059 C2060 1.366 . S
C2059 C2061 1.388 . S
C2060 C2059 1.366 . S
C2060 C2064 1.385 . S
C2061 H2036 0.951 . S
C2061 C2059 1.388 . S
C2061 C2062 1.366 . S
C2062 C2061 1.366 . S
C2062 C2063 1.414 . S
C2062 C2065 1.499 . S
C2063 H2037 0.950 . S
C2063 C2062 1.414 . S
C2063 C2064 1.374 . S
C2064 H2038 0.950 . S
C2064 C2060 1.385 . S
C2064 C2063 1.374 . S
C2065 C2062 1.499 . S
C2065 C2066 1.373 . S
C2065 C2067 1.389 . S
C2066 H2039 0.950 . S
C2066 C2052 1.377 . S
C2066 C2065 1.373 . S
C2067 C2051 1.377 . S
C2067 C2065 1.389 . S
C2067 C2068 1.524 . S
C2068 C2067 1.524 . S
C2068 C2069 1.397 . S
C2068 C2073 1.363 . S
C2069 H2040 0.950 . S
C2069 C2068 1.397 . S
C2069 C2070 1.334 . S
C2070 H2041 0.950 . S
C2070 C2069 1.334 . S
C2070 C2071 1.287 . S
C2071 C2070 1.287 . S
C2071 C2072 1.524 . S
C2071 H2074 0.999 . S
C2072 H2042 0.950 . S
C2072 C2071 1.524 . S
C2072 C2073 1.415 . S
C2073 H2043 0.950 . S
C2073 C2068 1.363 . S
C2073 C2072 1.415 . S
H2074 C2071 0.999 . S
H2075 C2056 0.913 . S
H2076 C2094 0.951 . S
H2077 C2096 0.951 . S
H2078 C2098 0.950 . S
H2079 C2099 0.950 . S
H2080 C2101 0.950 . S
H2081 C2104 0.950 . S
H2082 C2105 0.950 . S
H2083 C2107 0.950 . S
H2084 C2108 0.950 . S
H2085 C2109 0.951 . S
H2086 C2111 0.951 . S
H2087 C2113 0.950 . S
H2088 C2114 0.950 . S
H2089 C2116 0.950 . S
H2090 C2119 0.950 . S
H2091 C2120 0.950 . S
H2092 C2122 0.950 . S
H2093 C2123 0.950 . S
C2094 H2076 0.951 . S
C2094 C2095 1.366 . S
C2094 C2096 1.388 . S
C2095 C2094 1.366 . S
C2095 C2099 1.385 . S
C2096 H2077 0.951 . S
C2096 C2094 1.388 . S
C2096 C2097 1.366 . S
C2097 C2096 1.366 . S
C2097 C2098 1.414 . S
C2097 C2100 1.499 . S
C2098 H2078 0.950 . S
C2098 C2097 1.414 . S
C2098 C2099 1.374 . S
C2099 H2079 0.950 . S
C2099 C2095 1.385 . S
C2099 C2098 1.374 . S
C2100 C2097 1.499 . S
C2100 C2101 1.373 . S
C2100 C2102 1.389 . S
C2101 H2080 0.950 . S
C2101 C2100 1.373 . S
C2101 C2117 1.377 . S
C2102 C2100 1.389 . S
C2102 C2103 1.524 . S
C2102 C2116 1.377 . S
C2103 C2102 1.524 . S
C2103 C2104 1.397 . S
C2103 C2108 1.363 . S
C2104 H2081 0.950 . S
C2104 C2103 1.397 . S
C2104 C2105 1.334 . S
C2105 H2082 0.950 . S
C2105 C2104 1.334 . S
C2105 C2106 1.287 . S
C2106 C2105 1.287 . S
C2106 C2107 1.524 . S
C2106 H2125 0.913 . S
C2107 H2083 0.950 . S
C2107 C2106 1.524 . S
C2107 C2108 1.415 . S
C2108 H2084 0.950 . S
C2108 C2103 1.363 . S
C2108 C2107 1.415 . S
C2109 H2085 0.951 . S
C2109 C2110 1.366 . S
C2109 C2111 1.388 . S
C2110 C2109 1.366 . S
C2110 C2114 1.385 . S
C2111 H2086 0.951 . S
C2111 C2109 1.388 . S
C2111 C2112 1.366 . S
C2112 C2111 1.366 . S
C2112 C2113 1.414 . S
C2112 C2115 1.499 . S
C2113 H2087 0.950 . S
C2113 C2112 1.414 . S
C2113 C2114 1.374 . S
C2114 H2088 0.950 . S
C2114 C2110 1.385 . S
C2114 C2113 1.374 . S
C2115 C2112 1.499 . S
C2115 C2116 1.373 . S
C2115 C2117 1.389 . S
C2116 H2089 0.950 . S
C2116 C2102 1.377 . S
C2116 C2115 1.373 . S
C2117 C2101 1.377 . S
C2117 C2115 1.389 . S
C2117 C2118 1.524 . S
C2118 C2117 1.524 . S
C2118 C2119 1.397 . S
C2118 C2123 1.363 . S
C2119 H2090 0.950 . S
C2119 C2118 1.397 . S
C2119 C2120 1.334 . S
C2120 H2091 0.950 . S
C2120 C2119 1.334 . S
C2120 C2121 1.287 . S
C2121 C2120 1.287 . S
C2121 C2122 1.524 . S
C2121 H2124 0.999 . S
C2122 H2092 0.950 . S
C2122 C2121 1.524 . S
C2122 C2123 1.415 . S
C2123 H2093 0.950 . S
C2123 C2118 1.363 . S
C2123 C2122 1.415 . S
H2124 C2121 0.999 . S
H2125 C2106 0.913 . S
H2126 C2144 0.951 . S
H2127 C2146 0.951 . S
H2128 C2148 0.950 . S
H2129 C2149 0.950 . S
H2130 C2151 0.950 . S
H2131 C2154 0.950 . S
H2132 C2155 0.950 . S
H2133 C2157 0.950 . S
H2134 C2158 0.950 . S
H2135 C2159 0.951 . S
H2136 C2161 0.951 . S
H2137 C2163 0.950 . S
H2138 C2164 0.950 . S
H2139 C2166 0.950 . S
H2140 C2169 0.950 . S
H2141 C2170 0.950 . S
H2142 C2172 0.950 . S
H2143 C2173 0.950 . S
C2144 H2126 0.951 . S
C2144 C2145 1.366 . S
C2144 C2146 1.388 . S
C2145 C2144 1.366 . S
C2145 C2149 1.385 . S
C2146 H2127 0.951 . S
C2146 C2144 1.388 . S
C2146 C2147 1.366 . S
C2147 C2146 1.366 . S
C2147 C2148 1.414 . S
C2147 C2150 1.499 . S
C2148 H2128 0.950 . S
C2148 C2147 1.414 . S
C2148 C2149 1.374 . S
C2149 H2129 0.950 . S
C2149 C2145 1.385 . S
C2149 C2148 1.374 . S
C2150 C2147 1.499 . S
C2150 C2151 1.373 . S
C2150 C2152 1.389 . S
C2151 H2130 0.950 . S
C2151 C2150 1.373 . S
C2151 C2167 1.377 . S
C2152 C2150 1.389 . S
C2152 C2153 1.524 . S
C2152 C2166 1.377 . S
C2153 C2152 1.524 . S
C2153 C2154 1.397 . S
C2153 C2158 1.363 . S
C2154 H2131 0.950 . S
C2154 C2153 1.397 . S
C2154 C2155 1.334 . S
C2155 H2132 0.950 . S
C2155 C2154 1.334 . S
C2155 C2156 1.287 . S
C2156 C2155 1.287 . S
C2156 C2157 1.524 . S
C2156 H2175 0.913 . S
C2157 H2133 0.950 . S
C2157 C2156 1.524 . S
C2157 C2158 1.415 . S
C2158 H2134 0.950 . S
C2158 C2153 1.363 . S
C2158 C2157 1.415 . S
C2159 H2135 0.951 . S
C2159 C2160 1.366 . S
C2159 C2161 1.388 . S
C2160 C2159 1.366 . S
C2160 C2164 1.385 . S
C2161 H2136 0.951 . S
C2161 C2159 1.388 . S
C2161 C2162 1.366 . S
C2162 C2161 1.366 . S
C2162 C2163 1.414 . S
C2162 C2165 1.499 . S
C2163 H2137 0.950 . S
C2163 C2162 1.414 . S
C2163 C2164 1.374 . S
C2164 H2138 0.950 . S
C2164 C2160 1.385 . S
C2164 C2163 1.374 . S
C2165 C2162 1.499 . S
C2165 C2166 1.373 . S
C2165 C2167 1.389 . S
C2166 H2139 0.950 . S
C2166 C2152 1.377 . S
C2166 C2165 1.373 . S
C2167 C2151 1.377 . S
C2167 C2165 1.389 . S
C2167 C2168 1.524 . S
C2168 C2167 1.524 . S
C2168 C2169 1.397 . S
C2168 C2173 1.363 . S
C2169 H2140 0.950 . S
C2169 C2168 1.397 . S
C2169 C2170 1.334 . S
C2170 H2141 0.950 . S
C2170 C2169 1.334 . S
C2170 C2171 1.287 . S
C2171 C2170 1.287 . S
C2171 C2172 1.524 . S
C2171 H2174 0.999 . S
C2172 H2142 0.950 . S
C2172 C2171 1.524 . S
C2172 C2173 1.415 . S
C2173 H2143 0.950 . S
C2173 C2168 1.363 . S
C2173 C2172 1.415 . S
H2174 C2171 0.999 . S
H2175 C2156 0.913 . S
H2176 C2194 0.976 . S
H2177 C2196 0.951 . S
H2178 C2198 0.950 . S
H2179 C2199 0.950 . S
H2180 C2201 0.950 . S
H2181 C2204 0.950 . S
H2182 C2205 0.950 . S
H2183 C2207 0.950 . S
H2184 C2208 0.950 . S
H2185 C2209 0.951 . S
H2186 C2211 0.951 . S
H2187 C2213 0.961 . S
H2188 C2214 0.975 . S
H2189 C2216 0.950 . S
H2190 C2219 0.950 . S
H2191 C2220 0.950 . S
H2192 C2222 0.950 . S
H2193 C2223 0.950 . S
C2194 H2176 0.976 . S
C2194 C2195 1.366 . S
C2194 C2196 1.388 . S
C2195 C2194 1.366 . S
C2195 C2199 1.385 . S
C2196 H2177 0.951 . S
C2196 C2194 1.388 . S
C2196 C2197 1.366 . S
C2197 C2196 1.366 . S
C2197 C2198 1.414 . S
C2197 C2200 1.499 . S
C2198 H2178 0.950 . S
C2198 C2197 1.414 . S
C2198 C2199 1.374 . S
C2199 H2179 0.950 . S
C2199 C2195 1.385 . S
C2199 C2198 1.374 . S
C2200 C2197 1.499 . S
C2200 C2201 1.373 . S
C2200 C2202 1.389 . S
C2201 H2180 0.950 . S
C2201 C2200 1.373 . S
C2201 C2217 1.377 . S
C2202 C2200 1.389 . S
C2202 C2203 1.524 . S
C2202 C2216 1.377 . S
C2203 C2202 1.524 . S
C2203 C2204 1.397 . S
C2203 C2208 1.363 . S
C2204 H2181 0.950 . S
C2204 C2203 1.397 . S
C2204 C2205 1.334 . S
C2205 H2182 0.950 . S
C2205 C2204 1.334 . S
C2205 C2206 1.287 . S
C2206 C2205 1.287 . S
C2206 C2207 1.524 . S
C2206 H2225 0.913 . S
C2207 H2183 0.950 . S
C2207 C2206 1.524 . S
C2207 C2208 1.415 . S
C2208 H2184 0.950 . S
C2208 C2203 1.363 . S
C2208 C2207 1.415 . S
C2209 H2185 0.951 . S
C2209 C2210 1.366 . S
C2209 C2211 1.388 . S
C2210 C2209 1.366 . S
C2210 C2214 1.385 . S
C2211 H2186 0.951 . S
C2211 C2209 1.388 . S
C2211 C2212 1.366 . S
C2212 C2211 1.366 . S
C2212 C2213 1.414 . S
C2212 C2215 1.499 . S
C2213 H2187 0.961 . S
C2213 C2212 1.414 . S
C2213 C2214 1.374 . S
C2214 H2188 0.975 . S
C2214 C2210 1.385 . S
C2214 C2213 1.374 . S
C2215 C2212 1.499 . S
C2215 C2216 1.373 . S
C2215 C2217 1.389 . S
C2216 H2189 0.950 . S
C2216 C2202 1.377 . S
C2216 C2215 1.373 . S
C2217 C2201 1.377 . S
C2217 C2215 1.389 . S
C2217 C2218 1.524 . S
C2218 C2217 1.524 . S
C2218 C2219 1.397 1_455 S
C2218 C2223 1.363 . S
C2219 H2190 0.950 . S
C2219 C2218 1.397 1_655 S
C2219 C2220 1.334 . S
C2220 H2191 0.950 . S
C2220 C2219 1.334 . S
C2220 C2221 1.285 1_655 S
C2221 C2220 1.285 1_455 S
C2221 C2222 1.528 . S
C2221 H2224 0.997 1_455 S
C2222 H2192 0.950 . S
C2222 C2221 1.528 . S
C2222 C2223 1.415 . S
C2223 H2193 0.950 . S
C2223 C2218 1.363 . S
C2223 C2222 1.415 . S
H2224 C2221 0.997 1_655 S
H2225 C2206 0.913 . S
H2226 C2244 0.951 . S
H2227 C2246 0.951 . S
H2228 C2248 0.950 . S
H2229 C2249 0.950 . S
H2230 C2251 0.950 . S
H2231 C2254 0.950 . S
H2232 C2255 0.950 . S
H2233 C2257 0.950 . S
H2234 C2258 0.950 . S
H2235 C2259 0.951 . S
H2236 C2261 0.951 . S
H2237 C2263 0.950 . S
H2238 C2264 0.950 . S
H2239 C2266 0.950 . S
H2240 C2269 0.950 . S
H2241 C2270 0.950 . S
H2242 C2272 0.950 . S
H2243 C2273 0.950 . S
C2244 H2226 0.951 . S
C2244 C2245 1.366 . S
C2244 C2246 1.388 . S
C2245 C2244 1.366 . S
C2245 C2249 1.385 . S
C2246 H2227 0.951 . S
C2246 C2244 1.388 . S
C2246 C2247 1.366 . S
C2247 C2246 1.366 . S
C2247 C2248 1.414 . S
C2247 C2250 1.499 . S
C2248 H2228 0.950 . S
C2248 C2247 1.414 . S
C2248 C2249 1.374 . S
C2249 H2229 0.950 . S
C2249 C2245 1.385 . S
C2249 C2248 1.374 . S
C2250 C2247 1.499 . S
C2250 C2251 1.373 . S
C2250 C2252 1.389 . S
C2251 H2230 0.950 . S
C2251 C2250 1.373 . S
C2251 C2267 1.377 . S
C2252 C2250 1.389 . S
C2252 C2253 1.524 . S
C2252 C2266 1.377 . S
C2253 C2252 1.524 . S
C2253 C2254 1.397 . S
C2253 C2258 1.363 . S
C2254 H2231 0.950 . S
C2254 C2253 1.397 . S
C2254 C2255 1.334 . S
C2255 H2232 0.950 . S
C2255 C2254 1.334 . S
C2255 C2256 1.287 . S
C2256 C2255 1.287 . S
C2256 C2257 1.524 . S
C2256 H2275 0.913 . S
C2257 H2233 0.950 . S
C2257 C2256 1.524 . S
C2257 C2258 1.415 . S
C2258 H2234 0.950 . S
C2258 C2253 1.363 . S
C2258 C2257 1.415 . S
C2259 H2235 0.951 . S
C2259 C2260 1.366 . S
C2259 C2261 1.388 . S
C2260 C2259 1.366 . S
C2260 C2264 1.385 . S
C2261 H2236 0.951 . S
C2261 C2259 1.388 . S
C2261 C2262 1.366 . S
C2262 C2261 1.366 . S
C2262 C2263 1.414 . S
C2262 C2265 1.499 . S
C2263 H2237 0.950 . S
C2263 C2262 1.414 . S
C2263 C2264 1.374 . S
C2264 H2238 0.950 . S
C2264 C2260 1.385 . S
C2264 C2263 1.374 . S
C2265 C2262 1.499 . S
C2265 C2266 1.373 . S
C2265 C2267 1.389 . S
C2266 H2239 0.950 . S
C2266 C2252 1.377 . S
C2266 C2265 1.373 . S
C2267 C2251 1.377 . S
C2267 C2265 1.389 . S
C2267 C2268 1.524 . S
C2268 C2267 1.524 . S
C2268 C2269 1.397 . S
C2268 C2273 1.363 . S
C2269 H2240 0.950 . S
C2269 C2268 1.397 . S
C2269 C2270 1.334 . S
C2270 H2241 0.950 . S
C2270 C2269 1.334 . S
C2270 C2271 1.287 . S
C2271 C2270 1.287 . S
C2271 C2272 1.524 . S
C2271 H2274 0.999 . S
C2272 H2242 0.950 . S
C2272 C2271 1.524 . S
C2272 C2273 1.415 . S
C2273 H2243 0.950 . S
C2273 C2268 1.363 . S
C2273 C2272 1.415 . S
H2274 C2271 0.999 . S
H2275 C2256 0.913 . S
H2276 C2294 0.951 . S
H2277 C2296 0.951 . S
H2278 C2298 0.950 . S
H2279 C2299 0.950 . S
H2280 C2301 0.950 . S
H2281 C2304 0.950 . S
H2282 C2305 0.950 . S
H2283 C2307 0.950 . S
H2284 C2308 0.950 . S
H2285 C2309 0.951 . S
H2286 C2311 0.951 . S
H2287 C2313 0.950 . S
H2288 C2314 0.950 . S
H2289 C2316 0.950 . S
H2290 C2319 0.950 . S
H2291 C2320 0.950 . S
H2292 C2322 0.950 . S
H2293 C2323 0.950 . S
C2294 H2276 0.951 . S
C2294 C2295 1.366 . S
C2294 C2296 1.388 . S
C2295 C2294 1.366 . S
C2295 C2299 1.385 . S
C2296 H2277 0.951 . S
C2296 C2294 1.388 . S
C2296 C2297 1.366 . S
C2297 C2296 1.366 . S
C2297 C2298 1.414 . S
C2297 C2300 1.499 . S
C2298 H2278 0.950 . S
C2298 C2297 1.414 . S
C2298 C2299 1.374 . S
C2299 H2279 0.950 . S
C2299 C2295 1.385 . S
C2299 C2298 1.374 . S
C2300 C2297 1.499 . S
C2300 C2301 1.373 . S
C2300 C2302 1.389 . S
C2301 H2280 0.950 . S
C2301 C2300 1.373 . S
C2301 C2317 1.377 . S
C2302 C2300 1.389 . S
C2302 C2303 1.524 . S
C2302 C2316 1.377 . S
C2303 C2302 1.524 . S
C2303 C2304 1.397 . S
C2303 C2308 1.363 . S
C2304 H2281 0.950 . S
C2304 C2303 1.397 . S
C2304 C2305 1.334 . S
C2305 H2282 0.950 . S
C2305 C2304 1.334 . S
C2305 C2306 1.287 . S
C2306 C2305 1.287 . S
C2306 C2307 1.524 . S
C2306 H2325 0.913 . S
C2307 H2283 0.950 . S
C2307 C2306 1.524 . S
C2307 C2308 1.415 . S
C2308 H2284 0.950 . S
C2308 C2303 1.363 . S
C2308 C2307 1.415 . S
C2309 H2285 0.951 . S
C2309 C2310 1.366 . S
C2309 C2311 1.388 . S
C2310 C2309 1.366 . S
C2310 C2314 1.385 . S
C2311 H2286 0.951 . S
C2311 C2309 1.388 . S
C2311 C2312 1.366 . S
C2312 C2311 1.366 . S
C2312 C2313 1.414 . S
C2312 C2315 1.499 . S
C2313 H2287 0.950 . S
C2313 C2312 1.414 . S
C2313 C2314 1.374 . S
C2314 H2288 0.950 . S
C2314 C2310 1.385 . S
C2314 C2313 1.374 . S
C2315 C2312 1.499 . S
C2315 C2316 1.373 . S
C2315 C2317 1.389 . S
C2316 H2289 0.950 . S
C2316 C2302 1.377 . S
C2316 C2315 1.373 . S
C2317 C2301 1.377 . S
C2317 C2315 1.389 . S
C2317 C2318 1.524 . S
C2318 C2317 1.524 . S
C2318 C2319 1.397 . S
C2318 C2323 1.363 . S
C2319 H2290 0.950 . S
C2319 C2318 1.397 . S
C2319 C2320 1.334 . S
C2320 H2291 0.950 . S
C2320 C2319 1.334 . S
C2320 C2321 1.287 . S
C2321 C2320 1.287 . S
C2321 C2322 1.524 . S
C2321 H2324 0.999 . S
C2322 H2292 0.950 . S
C2322 C2321 1.524 . S
C2322 C2323 1.415 . S
C2323 H2293 0.950 . S
C2323 C2318 1.363 . S
C2323 C2322 1.415 . S
H2324 C2321 0.999 . S
H2325 C2306 0.913 . S
H2326 C2344 0.951 . S
H2327 C2346 0.951 . S
H2328 C2348 0.950 . S
H2329 C2349 0.950 . S
H2330 C2351 0.950 . S
H2331 C2354 0.950 . S
H2332 C2355 0.950 . S
H2333 C2357 0.950 . S
H2334 C2358 0.950 . S
H2335 C2359 0.951 . S
H2336 C2361 0.951 . S
H2337 C2363 0.950 . S
H2338 C2364 0.950 . S
H2339 C2366 0.950 . S
H2340 C2369 0.950 . S
H2341 C2370 0.950 . S
H2342 C2372 0.950 . S
H2343 C2373 0.950 . S
C2344 H2326 0.951 . S
C2344 C2345 1.366 . S
C2344 C2346 1.388 . S
C2345 C2344 1.366 . S
C2345 C2349 1.385 . S
C2346 H2327 0.951 . S
C2346 C2344 1.388 . S
C2346 C2347 1.366 . S
C2347 C2346 1.366 . S
C2347 C2348 1.414 . S
C2347 C2350 1.499 . S
C2348 H2328 0.950 . S
C2348 C2347 1.414 . S
C2348 C2349 1.374 . S
C2349 H2329 0.950 . S
C2349 C2345 1.385 . S
C2349 C2348 1.374 . S
C2350 C2347 1.499 . S
C2350 C2351 1.373 . S
C2350 C2352 1.389 . S
C2351 H2330 0.950 . S
C2351 C2350 1.373 . S
C2351 C2367 1.377 . S
C2352 C2350 1.389 . S
C2352 C2353 1.524 . S
C2352 C2366 1.377 . S
C2353 C2352 1.524 . S
C2353 C2354 1.397 . S
C2353 C2358 1.363 . S
C2354 H2331 0.950 . S
C2354 C2353 1.397 . S
C2354 C2355 1.334 . S
C2355 H2332 0.950 . S
C2355 C2354 1.334 . S
C2355 C2356 1.287 . S
C2356 C2355 1.287 . S
C2356 C2357 1.524 . S
C2356 H2375 0.913 . S
C2357 H2333 0.950 . S
C2357 C2356 1.524 . S
C2357 C2358 1.415 . S
C2358 H2334 0.950 . S
C2358 C2353 1.363 . S
C2358 C2357 1.415 . S
C2359 H2335 0.951 . S
C2359 C2360 1.366 . S
C2359 C2361 1.388 . S
C2360 C2359 1.366 . S
C2360 C2364 1.385 . S
C2361 H2336 0.951 . S
C2361 C2359 1.388 . S
C2361 C2362 1.366 . S
C2362 C2361 1.366 . S
C2362 C2363 1.414 . S
C2362 C2365 1.499 . S
C2363 H2337 0.950 . S
C2363 C2362 1.414 . S
C2363 C2364 1.374 . S
C2364 H2338 0.950 . S
C2364 C2360 1.385 . S
C2364 C2363 1.374 . S
C2365 C2362 1.499 . S
C2365 C2366 1.373 . S
C2365 C2367 1.389 . S
C2366 H2339 0.950 . S
C2366 C2352 1.377 . S
C2366 C2365 1.373 . S
C2367 C2351 1.377 . S
C2367 C2365 1.389 . S
C2367 C2368 1.524 . S
C2368 C2367 1.524 . S
C2368 C2369 1.397 . S
C2368 C2373 1.363 . S
C2369 H2340 0.950 . S
C2369 C2368 1.397 . S
C2369 C2370 1.334 . S
C2370 H2341 0.950 . S
C2370 C2369 1.334 . S
C2370 C2371 1.287 . S
C2371 C2370 1.287 . S
C2371 C2372 1.524 . S
C2371 H2374 0.999 . S
C2372 H2342 0.950 . S
C2372 C2371 1.524 . S
C2372 C2373 1.415 . S
C2373 H2343 0.950 . S
C2373 C2368 1.363 . S
C2373 C2372 1.415 . S
H2374 C2371 0.999 . S
H2375 C2356 0.913 . S
H2376 C2394 0.951 . S
H2377 C2396 0.951 . S
H2378 C2398 0.950 . S
H2379 C2399 0.950 . S
H2380 C2401 0.950 . S
H2381 C2404 0.950 . S
H2382 C2405 0.950 . S
H2383 C2407 0.950 . S
H2384 C2408 0.950 . S
H2385 C2409 0.951 . S
H2386 C2411 0.951 . S
H2387 C2413 0.950 . S
H2388 C2414 0.950 . S
H2389 C2416 0.950 . S
H2390 C2419 0.950 . S
H2391 C2420 0.950 . S
H2392 C2422 0.950 . S
H2393 C2423 0.950 . S
C2394 H2376 0.951 . S
C2394 C2395 1.366 . S
C2394 C2396 1.388 . S
C2395 C2394 1.366 . S
C2395 C2399 1.385 . S
C2396 H2377 0.951 . S
C2396 C2394 1.388 . S
C2396 C2397 1.366 . S
C2397 C2396 1.366 . S
C2397 C2398 1.414 . S
C2397 C2400 1.499 . S
C2398 H2378 0.950 . S
C2398 C2397 1.414 . S
C2398 C2399 1.374 . S
C2399 H2379 0.950 . S
C2399 C2395 1.385 . S
C2399 C2398 1.374 . S
C2400 C2397 1.499 . S
C2400 C2401 1.373 . S
C2400 C2402 1.389 . S
C2401 H2380 0.950 . S
C2401 C2400 1.373 . S
C2401 C2417 1.377 . S
C2402 C2400 1.389 . S
C2402 C2403 1.524 . S
C2402 C2416 1.377 . S
C2403 C2402 1.524 . S
C2403 C2404 1.397 . S
C2403 C2408 1.363 . S
C2404 H2381 0.950 . S
C2404 C2403 1.397 . S
C2404 C2405 1.334 . S
C2405 H2382 0.950 . S
C2405 C2404 1.334 . S
C2405 C2406 1.287 . S
C2406 C2405 1.287 . S
C2406 C2407 1.524 . S
C2406 H2425 0.913 . S
C2407 H2383 0.950 . S
C2407 C2406 1.524 . S
C2407 C2408 1.415 . S
C2408 H2384 0.950 . S
C2408 C2403 1.363 . S
C2408 C2407 1.415 . S
C2409 H2385 0.951 . S
C2409 C2410 1.366 1_455 S
C2409 C2411 1.388 . S
C2410 C2409 1.366 1_655 S
C2410 C2414 1.385 . S
C2411 H2386 0.951 . S
C2411 C2409 1.388 . S
C2411 C2412 1.366 . S
C2412 C2411 1.366 . S
C2412 C2413 1.414 . S
C2412 C2415 1.499 . S
C2413 H2387 0.950 . S
C2413 C2412 1.414 . S
C2413 C2414 1.374 1_455 S
C2414 H2388 0.950 . S
C2414 C2410 1.385 . S
C2414 C2413 1.374 1_655 S
C2415 C2412 1.499 . S
C2415 C2416 1.373 . S
C2415 C2417 1.389 . S
C2416 H2389 0.950 . S
C2416 C2402 1.377 . S
C2416 C2415 1.373 . S
C2417 C2401 1.377 . S
C2417 C2415 1.389 . S
C2417 C2418 1.524 1_455 S
C2418 C2417 1.524 1_655 S
C2418 C2419 1.397 . S
C2418 C2423 1.363 . S
C2419 H2390 0.950 . S
C2419 C2418 1.397 . S
C2419 C2420 1.334 . S
C2420 H2391 0.950 . S
C2420 C2419 1.334 . S
C2420 C2421 1.287 . S
C2421 C2420 1.287 . S
C2421 C2422 1.524 . S
C2421 H2424 0.999 . S
C2422 H2392 0.950 . S
C2422 C2421 1.524 . S
C2422 C2423 1.415 . S
C2423 H2393 0.950 . S
C2423 C2418 1.363 . S
C2423 C2422 1.415 . S
H2424 C2421 0.999 . S
H2425 C2406 0.913 . S
H2426 C2444 0.951 . S
H2427 C2446 0.951 . S
H2428 C2448 0.950 . S
H2429 C2449 0.950 . S
H2430 C2451 0.950 . S
H2431 C2454 0.950 . S
H2432 C2455 0.950 . S
H2433 C2457 0.950 . S
H2434 C2458 0.950 . S
H2435 C2459 0.951 . S
H2436 C2461 0.951 . S
H2437 C2463 0.950 . S
H2438 C2464 0.950 . S
H2439 C2466 0.950 . S
H2440 C2469 0.950 . S
H2441 C2470 0.950 . S
H2442 C2472 0.950 . S
H2443 C2473 0.950 . S
C2444 H2426 0.951 . S
C2444 C2445 1.366 . S
C2444 C2446 1.388 . S
C2445 C2444 1.366 . S
C2445 C2449 1.385 . S
C2446 H2427 0.951 . S
C2446 C2444 1.388 . S
C2446 C2447 1.366 . S
C2447 C2446 1.366 . S
C2447 C2448 1.414 . S
C2447 C2450 1.499 . S
C2448 H2428 0.950 . S
C2448 C2447 1.414 . S
C2448 C2449 1.374 . S
C2449 H2429 0.950 . S
C2449 C2445 1.385 . S
C2449 C2448 1.374 . S
C2450 C2447 1.499 . S
C2450 C2451 1.373 . S
C2450 C2452 1.389 . S
C2451 H2430 0.950 . S
C2451 C2450 1.373 . S
C2451 C2467 1.377 . S
C2452 C2450 1.389 . S
C2452 C2453 1.524 . S
C2452 C2466 1.377 . S
C2453 C2452 1.524 . S
C2453 C2454 1.397 . S
C2453 C2458 1.363 . S
C2454 H2431 0.950 . S
C2454 C2453 1.397 . S
C2454 C2455 1.334 . S
C2455 H2432 0.950 . S
C2455 C2454 1.334 . S
C2455 C2456 1.287 . S
C2456 C2455 1.287 . S
C2456 C2457 1.524 . S
C2456 H2475 0.913 . S
C2457 H2433 0.950 . S
C2457 C2456 1.524 . S
C2457 C2458 1.415 . S
C2458 H2434 0.950 . S
C2458 C2453 1.363 . S
C2458 C2457 1.415 . S
C2459 H2435 0.951 . S
C2459 C2460 1.366 . S
C2459 C2461 1.388 . S
C2460 C2459 1.366 . S
C2460 C2464 1.385 . S
C2461 H2436 0.951 . S
C2461 C2459 1.388 . S
C2461 C2462 1.366 . S
C2462 C2461 1.366 . S
C2462 C2463 1.414 . S
C2462 C2465 1.499 . S
C2463 H2437 0.950 . S
C2463 C2462 1.414 . S
C2463 C2464 1.374 . S
C2464 H2438 0.950 . S
C2464 C2460 1.385 . S
C2464 C2463 1.374 . S
C2465 C2462 1.499 . S
C2465 C2466 1.373 . S
C2465 C2467 1.389 . S
C2466 H2439 0.950 . S
C2466 C2452 1.377 . S
C2466 C2465 1.373 . S
C2467 C2451 1.377 . S
C2467 C2465 1.389 . S
C2467 C2468 1.524 . S
C2468 C2467 1.524 . S
C2468 C2469 1.397 . S
C2468 C2473 1.363 . S
C2469 H2440 0.950 . S
C2469 C2468 1.397 . S
C2469 C2470 1.334 . S
C2470 H2441 0.950 . S
C2470 C2469 1.334 . S
C2470 C2471 1.287 . S
C2471 C2470 1.287 . S
C2471 C2472 1.524 . S
C2471 H2474 0.999 . S
C2472 H2442 0.950 . S
C2472 C2471 1.524 . S
C2472 C2473 1.415 . S
C2473 H2443 0.950 . S
C2473 C2468 1.363 . S
C2473 C2472 1.415 . S
H2474 C2471 0.999 . S
H2475 C2456 0.913 . S
H2476 C2494 0.951 . S
H2477 C2496 0.951 . S
H2478 C2498 0.950 1_554 S
H2479 C2499 0.950 . S
H2480 C2501 0.950 . S
H2481 C2504 0.950 . S
H2482 C2505 0.950 . S
H2483 C2507 0.950 . S
H2484 C2508 0.950 . S
H2485 C2509 0.951 . S
H2486 C2511 0.951 . S
H2487 C2513 0.950 . S
H2488 C2514 0.950 . S
H2489 C2516 0.950 . S
H2490 C2519 0.950 . S
H2491 C2520 0.950 . S
H2492 C2522 0.950 . S
H2493 C2523 0.950 . S
C2494 H2476 0.951 . S
C2494 C2495 1.366 . S
C2494 C2496 1.388 . S
C2495 C2494 1.366 . S
C2495 C2499 1.385 . S
C2496 H2477 0.951 . S
C2496 C2494 1.388 . S
C2496 C2497 1.366 . S
C2497 C2496 1.366 . S
C2497 C2498 1.414 . S
C2497 C2500 1.497 1_556 S
C2498 H2478 0.950 1_556 S
C2498 C2497 1.414 . S
C2498 C2499 1.374 . S
C2499 H2479 0.950 . S
C2499 C2495 1.385 . S
C2499 C2498 1.374 . S
C2500 C2497 1.497 1_554 S
C2500 C2501 1.378 . S
C2500 C2502 1.386 1_554 S
C2501 H2480 0.950 . S
C2501 C2500 1.378 . S
C2501 C2517 1.377 . S
C2502 C2500 1.386 1_556 S
C2502 C2503 1.524 . S
C2502 C2516 1.377 . S
C2503 C2502 1.524 . S
C2503 C2504 1.397 . S
C2503 C2508 1.363 . S
C2504 H2481 0.950 . S
C2504 C2503 1.397 . S
C2504 C2505 1.334 . S
C2505 H2482 0.950 . S
C2505 C2504 1.334 . S
C2505 C2506 1.287 . S
C2506 C2505 1.287 . S
C2506 C2507 1.524 . S
C2506 H2525 0.913 . S
C2507 H2483 0.950 . S
C2507 C2506 1.524 . S
C2507 C2508 1.415 . S
C2508 H2484 0.950 . S
C2508 C2503 1.363 . S
C2508 C2507 1.415 . S
C2509 H2485 0.951 . S
C2509 C2510 1.366 . S
C2509 C2511 1.388 1_545 S
C2510 C2509 1.366 . S
C2510 C2514 1.385 . S
C2511 H2486 0.951 . S
C2511 C2509 1.388 1_565 S
C2511 C2512 1.366 . S
C2512 C2511 1.366 . S
C2512 C2513 1.414 . S
C2512 C2515 1.499 . S
C2513 H2487 0.950 . S
C2513 C2512 1.414 . S
C2513 C2514 1.374 1_565 S
C2514 H2488 0.950 . S
C2514 C2510 1.385 . S
C2514 C2513 1.374 1_545 S
C2515 C2512 1.499 . S
C2515 C2516 1.373 1_554 S
C2515 C2517 1.389 . S
C2516 H2489 0.950 . S
C2516 C2502 1.377 . S
C2516 C2515 1.373 1_556 S
C2517 C2501 1.377 . S
C2517 C2515 1.389 . S
C2517 C2518 1.524 . S
C2518 C2517 1.524 . S
C2518 C2519 1.397 . S
C2518 C2523 1.363 . S
C2519 H2490 0.950 . S
C2519 C2518 1.397 . S
C2519 C2520 1.334 . S
C2520 H2491 0.950 . S
C2520 C2519 1.334 . S
C2520 C2521 1.287 . S
C2521 C2520 1.287 . S
C2521 C2522 1.524 . S
C2521 H2524 0.999 . S
C2522 H2492 0.950 . S
C2522 C2521 1.524 . S
C2522 C2523 1.415 . S
C2523 H2493 0.950 . S
C2523 C2518 1.363 . S
C2523 C2522 1.415 . S
H2524 C2521 0.999 . S
H2525 C2506 0.913 . S
H2526 C2544 0.951 . S
H2527 C2546 0.951 . S
H2528 C2548 0.950 . S
H2529 C2549 0.950 . S
H2530 C2551 0.950 . S
H2531 C2554 0.950 . S
H2532 C2555 0.950 . S
H2533 C2557 0.950 . S
H2534 C2558 0.950 . S
H2535 C2559 0.951 . S
H2536 C2561 0.951 . S
H2537 C2563 0.950 . S
H2538 C2564 0.950 . S
H2539 C2566 0.950 . S
H2540 C2569 0.950 . S
H2541 C2570 0.950 . S
H2542 C2572 0.950 . S
H2543 C2573 0.950 . S
C2544 H2526 0.951 . S
C2544 C2545 1.366 . S
C2544 C2546 1.388 . S
C2545 C2544 1.366 . S
C2545 C2549 1.385 . S
C2546 H2527 0.951 . S
C2546 C2544 1.388 . S
C2546 C2547 1.366 . S
C2547 C2546 1.366 . S
C2547 C2548 1.414 . S
C2547 C2550 1.499 . S
C2548 H2528 0.950 . S
C2548 C2547 1.414 . S
C2548 C2549 1.374 . S
C2549 H2529 0.950 . S
C2549 C2545 1.385 . S
C2549 C2548 1.374 . S
C2550 C2547 1.499 . S
C2550 C2551 1.373 . S
C2550 C2552 1.389 . S
C2551 H2530 0.950 . S
C2551 C2550 1.373 . S
C2551 C2567 1.377 . S
C2552 C2550 1.389 . S
C2552 C2553 1.524 . S
C2552 C2566 1.377 . S
C2553 C2552 1.524 . S
C2553 C2554 1.397 . S
C2553 C2558 1.363 . S
C2554 H2531 0.950 . S
C2554 C2553 1.397 . S
C2554 C2555 1.334 . S
C2555 H2532 0.950 . S
C2555 C2554 1.334 . S
C2555 C2556 1.287 . S
C2556 C2555 1.287 . S
C2556 C2557 1.524 . S
C2556 H2575 0.913 . S
C2557 H2533 0.950 . S
C2557 C2556 1.524 . S
C2557 C2558 1.415 . S
C2558 H2534 0.950 . S
C2558 C2553 1.363 . S
C2558 C2557 1.415 . S
C2559 H2535 0.951 . S
C2559 C2560 1.366 . S
C2559 C2561 1.388 . S
C2560 C2559 1.366 . S
C2560 C2564 1.385 . S
C2561 H2536 0.951 . S
C2561 C2559 1.388 . S
C2561 C2562 1.366 . S
C2562 C2561 1.366 . S
C2562 C2563 1.414 . S
C2562 C2565 1.499 . S
C2563 H2537 0.950 . S
C2563 C2562 1.414 . S
C2563 C2564 1.374 . S
C2564 H2538 0.950 . S
C2564 C2560 1.385 . S
C2564 C2563 1.374 . S
C2565 C2562 1.499 . S
C2565 C2566 1.373 . S
C2565 C2567 1.389 . S
C2566 H2539 0.950 . S
C2566 C2552 1.377 . S
C2566 C2565 1.373 . S
C2567 C2551 1.377 . S
C2567 C2565 1.389 . S
C2567 C2568 1.524 . S
C2568 C2567 1.524 . S
C2568 C2569 1.397 . S
C2568 C2573 1.363 . S
C2569 H2540 0.950 . S
C2569 C2568 1.397 . S
C2569 C2570 1.334 . S
C2570 H2541 0.950 . S
C2570 C2569 1.334 . S
C2570 C2571 1.287 . S
C2571 C2570 1.287 . S
C2571 C2572 1.524 . S
C2571 H2574 0.999 . S
C2572 H2542 0.950 . S
C2572 C2571 1.524 . S
C2572 C2573 1.415 . S
C2573 H2543 0.950 . S
C2573 C2568 1.363 . S
C2573 C2572 1.415 . S
H2574 C2571 0.999 . S
H2575 C2556 0.913 . S
H2576 C2594 0.951 . S
H2577 C2596 0.951 . S
H2578 C2598 0.950 . S
H2579 C2599 0.950 . S
H2580 C2601 0.950 . S
H2581 C2604 0.950 . S
H2582 C2605 0.950 . S
H2583 C2607 0.950 . S
H2584 C2608 0.950 . S
H2585 C2609 0.951 1_554 S
H2586 C2611 0.951 . S
H2587 C2613 0.950 . S
H2588 C2614 0.950 . S
H2589 C2616 0.950 . S
H2590 C2619 0.950 . S
H2591 C2620 0.950 . S
H2592 C2622 0.950 . S
H2593 C2623 0.950 . S
C2594 H2576 0.951 . S
C2594 C2595 1.366 . S
C2594 C2596 1.388 . S
C2595 C2594 1.366 . S
C2595 C2599 1.385 . S
C2596 H2577 0.951 . S
C2596 C2594 1.388 . S
C2596 C2597 1.366 . S
C2597 C2596 1.366 . S
C2597 C2598 1.414 . S
C2597 C2600 1.499 . S
C2598 H2578 0.950 . S
C2598 C2597 1.414 . S
C2598 C2599 1.374 . S
C2599 H2579 0.950 . S
C2599 C2595 1.385 . S
C2599 C2598 1.374 . S
C2600 C2597 1.499 . S
C2600 C2601 1.373 . S
C2600 C2602 1.389 . S
C2601 H2580 0.950 . S
C2601 C2600 1.373 . S
C2601 C2617 1.377 . S
C2602 C2600 1.389 . S
C2602 C2603 1.524 . S
C2602 C2616 1.377 . S
C2603 C2602 1.524 . S
C2603 C2604 1.397 . S
C2603 C2608 1.363 . S
C2604 H2581 0.950 . S
C2604 C2603 1.397 . S
C2604 C2605 1.334 . S
C2605 H2582 0.950 . S
C2605 C2604 1.334 . S
C2605 C2606 1.287 . S
C2606 C2605 1.287 . S
C2606 C2607 1.524 . S
C2606 H2625 0.913 . S
C2607 H2583 0.950 . S
C2607 C2606 1.524 . S
C2607 C2608 1.415 . S
C2608 H2584 0.950 . S
C2608 C2603 1.363 . S
C2608 C2607 1.415 . S
C2609 H2585 0.951 1_556 S
C2609 C2610 1.366 . S
C2609 C2611 1.388 . S
C2610 C2609 1.366 . S
C2610 C2614 1.385 . S
C2611 H2586 0.951 . S
C2611 C2609 1.388 . S
C2611 C2612 1.366 . S
C2612 C2611 1.366 . S
C2612 C2613 1.414 . S
C2612 C2615 1.499 . S
C2613 H2587 0.950 . S
C2613 C2612 1.414 . S
C2613 C2614 1.374 . S
C2614 H2588 0.950 . S
C2614 C2610 1.385 . S
C2614 C2613 1.374 . S
C2615 C2612 1.499 . S
C2615 C2616 1.373 . S
C2615 C2617 1.389 . S
C2616 H2589 0.950 . S
C2616 C2602 1.377 . S
C2616 C2615 1.373 . S
C2617 C2601 1.377 . S
C2617 C2615 1.389 . S
C2617 C2618 1.524 . S
C2618 C2617 1.524 . S
C2618 C2619 1.397 1_545 S
C2618 C2623 1.363 . S
C2619 H2590 0.950 . S
C2619 C2618 1.397 1_565 S
C2619 C2620 1.334 . S
C2620 H2591 0.950 . S
C2620 C2619 1.334 . S
C2620 C2621 1.287 . S
C2621 C2620 1.287 . S
C2621 C2622 1.524 . S
C2621 H2624 0.999 . S
C2622 H2592 0.950 . S
C2622 C2621 1.524 . S
C2622 C2623 1.415 1_565 S
C2623 H2593 0.950 . S
C2623 C2618 1.363 . S
C2623 C2622 1.415 1_545 S
H2624 C2621 0.999 . S
H2625 C2606 0.913 . S
H2626 C2644 0.951 . S
H2627 C2646 0.951 . S
H2628 C2648 0.950 . S
H2629 C2649 0.950 . S
H2630 C2651 0.950 . S
H2631 C2654 0.950 . S
H2632 C2655 0.950 . S
H2633 C2657 0.950 . S
H2634 C2658 0.950 . S
H2635 C2659 0.951 . S
H2636 C2661 0.951 . S
H2637 C2663 0.950 . S
H2638 C2664 0.950 . S
H2639 C2666 0.950 . S
H2640 C2669 0.950 . S
H2641 C2670 0.950 . S
H2642 C2672 0.950 . S
H2643 C2673 0.950 . S
C2644 H2626 0.951 . S
C2644 C2645 1.366 . S
C2644 C2646 1.388 . S
C2645 C2644 1.366 . S
C2645 C2649 1.385 . S
C2646 H2627 0.951 . S
C2646 C2644 1.388 . S
C2646 C2647 1.366 . S
C2647 C2646 1.366 . S
C2647 C2648 1.414 . S
C2647 C2650 1.499 . S
C2648 H2628 0.950 . S
C2648 C2647 1.414 . S
C2648 C2649 1.374 . S
C2649 H2629 0.950 . S
C2649 C2645 1.385 . S
C2649 C2648 1.374 . S
C2650 C2647 1.499 . S
C2650 C2651 1.373 . S
C2650 C2652 1.389 . S
C2651 H2630 0.950 . S
C2651 C2650 1.373 . S
C2651 C2667 1.377 . S
C2652 C2650 1.389 . S
C2652 C2653 1.524 . S
C2652 C2666 1.377 . S
C2653 C2652 1.524 . S
C2653 C2654 1.397 . S
C2653 C2658 1.363 . S
C2654 H2631 0.950 . S
C2654 C2653 1.397 . S
C2654 C2655 1.334 . S
C2655 H2632 0.950 . S
C2655 C2654 1.334 . S
C2655 C2656 1.287 . S
C2656 C2655 1.287 . S
C2656 C2657 1.524 . S
C2656 H2675 0.913 . S
C2657 H2633 0.950 . S
C2657 C2656 1.524 . S
C2657 C2658 1.415 . S
C2658 H2634 0.950 . S
C2658 C2653 1.363 . S
C2658 C2657 1.415 . S
C2659 H2635 0.951 . S
C2659 C2660 1.366 . S
C2659 C2661 1.388 . S
C2660 C2659 1.366 . S
C2660 C2664 1.385 . S
C2661 H2636 0.951 . S
C2661 C2659 1.388 . S
C2661 C2662 1.366 . S
C2662 C2661 1.366 . S
C2662 C2663 1.414 . S
C2662 C2665 1.499 . S
C2663 H2637 0.950 . S
C2663 C2662 1.414 . S
C2663 C2664 1.374 . S
C2664 H2638 0.950 . S
C2664 C2660 1.385 . S
C2664 C2663 1.374 . S
C2665 C2662 1.499 . S
C2665 C2666 1.373 . S
C2665 C2667 1.389 . S
C2666 H2639 0.950 . S
C2666 C2652 1.377 . S
C2666 C2665 1.373 . S
C2667 C2651 1.377 . S
C2667 C2665 1.389 . S
C2667 C2668 1.524 . S
C2668 C2667 1.524 . S
C2668 C2669 1.397 . S
C2668 C2673 1.363 . S
C2669 H2640 0.950 . S
C2669 C2668 1.397 . S
C2669 C2670 1.334 . S
C2670 H2641 0.950 . S
C2670 C2669 1.334 . S
C2670 C2671 1.287 . S
C2671 C2670 1.287 . S
C2671 C2672 1.524 . S
C2671 H2674 0.999 . S
C2672 H2642 0.950 . S
C2672 C2671 1.524 . S
C2672 C2673 1.415 . S
C2673 H2643 0.950 . S
C2673 C2668 1.363 . S
C2673 C2672 1.415 . S
H2674 C2671 0.999 . S
H2675 C2656 0.913 . S
H2676 C2694 0.951 . S
H2677 C2696 0.951 . S
H2678 C2698 0.950 . S
H2679 C2699 0.950 . S
H2680 C2701 0.950 . S
H2681 C2704 0.950 . S
H2682 C2705 0.950 . S
H2683 C2707 0.950 . S
H2684 C2708 0.950 . S
H2685 C2709 0.951 . S
H2686 C2711 0.951 . S
H2687 C2713 0.950 . S
H2688 C2714 0.950 . S
H2689 C2716 0.950 . S
H2690 C2719 0.950 . S
H2691 C2720 0.950 . S
H2692 C2722 0.950 . S
H2693 C2723 0.950 . S
C2694 H2676 0.951 . S
C2694 C2695 1.366 . S
C2694 C2696 1.388 . S
C2695 C2694 1.366 . S
C2695 C2699 1.385 . S
C2696 H2677 0.951 . S
C2696 C2694 1.388 . S
C2696 C2697 1.366 . S
C2697 C2696 1.366 . S
C2697 C2698 1.414 . S
C2697 C2700 1.499 . S
C2698 H2678 0.950 . S
C2698 C2697 1.414 . S
C2698 C2699 1.374 . S
C2699 H2679 0.950 . S
C2699 C2695 1.385 . S
C2699 C2698 1.374 . S
C2700 C2697 1.499 . S
C2700 C2701 1.373 . S
C2700 C2702 1.389 . S
C2701 H2680 0.950 . S
C2701 C2700 1.373 . S
C2701 C2717 1.377 . S
C2702 C2700 1.389 . S
C2702 C2703 1.524 . S
C2702 C2716 1.377 . S
C2703 C2702 1.524 . S
C2703 C2704 1.397 . S
C2703 C2708 1.363 . S
C2704 H2681 0.950 . S
C2704 C2703 1.397 . S
C2704 C2705 1.334 . S
C2705 H2682 0.950 . S
C2705 C2704 1.334 . S
C2705 C2706 1.287 . S
C2706 C2705 1.287 . S
C2706 C2707 1.524 . S
C2706 H2725 0.913 . S
C2707 H2683 0.950 . S
C2707 C2706 1.524 . S
C2707 C2708 1.415 . S
C2708 H2684 0.950 . S
C2708 C2703 1.363 . S
C2708 C2707 1.415 . S
C2709 H2685 0.951 . S
C2709 C2710 1.366 . S
C2709 C2711 1.388 . S
C2710 C2709 1.366 . S
C2710 C2714 1.385 . S
C2711 H2686 0.951 . S
C2711 C2709 1.388 . S
C2711 C2712 1.366 . S
C2712 C2711 1.366 . S
C2712 C2713 1.414 . S
C2712 C2715 1.499 . S
C2713 H2687 0.950 . S
C2713 C2712 1.414 . S
C2713 C2714 1.374 . S
C2714 H2688 0.950 . S
C2714 C2710 1.385 . S
C2714 C2713 1.374 . S
C2715 C2712 1.499 . S
C2715 C2716 1.373 . S
C2715 C2717 1.389 . S
C2716 H2689 0.950 . S
C2716 C2702 1.377 . S
C2716 C2715 1.373 . S
C2717 C2701 1.377 . S
C2717 C2715 1.389 . S
C2717 C2718 1.524 . S
C2718 C2717 1.524 . S
C2718 C2719 1.397 . S
C2718 C2723 1.363 . S
C2719 H2690 0.950 . S
C2719 C2718 1.397 . S
C2719 C2720 1.334 . S
C2720 H2691 0.950 . S
C2720 C2719 1.334 . S
C2720 C2721 1.287 . S
C2721 C2720 1.287 . S
C2721 C2722 1.524 . S
C2721 H2724 0.999 . S
C2722 H2692 0.950 . S
C2722 C2721 1.524 . S
C2722 C2723 1.415 . S
C2723 H2693 0.950 . S
C2723 C2718 1.363 . S
C2723 C2722 1.415 . S
H2724 C2721 0.999 . S
H2725 C2706 0.913 . S
H2726 C2744 0.951 . S
H2727 C2746 0.951 . S
H2728 C2748 0.950 . S
H2729 C2749 0.950 . S
H2730 C2751 0.950 . S
H2731 C2754 0.950 . S
H2732 C2755 0.950 . S
H2733 C2757 0.950 . S
H2734 C2758 0.950 . S
H2735 C2759 0.951 . S
H2736 C2761 0.951 . S
H2737 C2763 0.950 . S
H2738 C2764 0.950 . S
H2739 C2766 0.950 . S
H2740 C2769 0.950 . S
H2741 C2770 0.950 . S
H2742 C2772 0.950 . S
H2743 C2773 0.950 . S
C2744 H2726 0.951 . S
C2744 C2745 1.366 . S
C2744 C2746 1.388 . S
C2745 C2744 1.366 . S
C2745 C2749 1.385 . S
C2746 H2727 0.951 . S
C2746 C2744 1.388 . S
C2746 C2747 1.366 . S
C2747 C2746 1.366 . S
C2747 C2748 1.414 . S
C2747 C2750 1.499 . S
C2748 H2728 0.950 . S
C2748 C2747 1.414 . S
C2748 C2749 1.374 . S
C2749 H2729 0.950 . S
C2749 C2745 1.385 . S
C2749 C2748 1.374 . S
C2750 C2747 1.499 . S
C2750 C2751 1.373 . S
C2750 C2752 1.389 . S
C2751 H2730 0.950 . S
C2751 C2750 1.373 . S
C2751 C2767 1.377 . S
C2752 C2750 1.389 . S
C2752 C2753 1.524 . S
C2752 C2766 1.377 . S
C2753 C2752 1.524 . S
C2753 C2754 1.397 . S
C2753 C2758 1.363 . S
C2754 H2731 0.950 . S
C2754 C2753 1.397 . S
C2754 C2755 1.334 . S
C2755 H2732 0.950 . S
C2755 C2754 1.334 . S
C2755 C2756 1.287 . S
C2756 C2755 1.287 . S
C2756 C2757 1.524 . S
C2756 H2775 0.913 . S
C2757 H2733 0.950 . S
C2757 C2756 1.524 . S
C2757 C2758 1.415 . S
C2758 H2734 0.950 . S
C2758 C2753 1.363 . S
C2758 C2757 1.415 . S
C2759 H2735 0.951 . S
C2759 C2760 1.366 . S
C2759 C2761 1.388 . S
C2760 C2759 1.366 . S
C2760 C2764 1.385 . S
C2761 H2736 0.951 . S
C2761 C2759 1.388 . S
C2761 C2762 1.366 . S
C2762 C2761 1.366 . S
C2762 C2763 1.414 . S
C2762 C2765 1.499 . S
C2763 H2737 0.950 . S
C2763 C2762 1.414 . S
C2763 C2764 1.374 . S
C2764 H2738 0.950 . S
C2764 C2760 1.385 . S
C2764 C2763 1.374 . S
C2765 C2762 1.499 . S
C2765 C2766 1.373 . S
C2765 C2767 1.389 . S
C2766 H2739 0.950 . S
C2766 C2752 1.377 . S
C2766 C2765 1.373 . S
C2767 C2751 1.377 . S
C2767 C2765 1.389 . S
C2767 C2768 1.524 . S
C2768 C2767 1.524 . S
C2768 C2769 1.397 . S
C2768 C2773 1.363 . S
C2769 H2740 0.950 . S
C2769 C2768 1.397 . S
C2769 C2770 1.334 . S
C2770 H2741 0.950 . S
C2770 C2769 1.334 . S
C2770 C2771 1.287 . S
C2771 C2770 1.287 . S
C2771 C2772 1.524 . S
C2771 H2774 0.999 . S
C2772 H2742 0.950 . S
C2772 C2771 1.524 . S
C2772 C2773 1.415 . S
C2773 H2743 0.950 . S
C2773 C2768 1.363 . S
C2773 C2772 1.415 . S
H2774 C2771 0.999 . S
H2775 C2756 0.913 . S
H2776 C2794 0.951 . S
H2777 C2796 0.951 . S
H2778 C2798 0.950 . S
H2779 C2799 0.950 . S
H2780 C2801 0.950 . S
H2781 C2804 0.950 . S
H2782 C2805 0.950 . S
H2783 C2807 0.950 . S
H2784 C2808 0.950 . S
H2785 C2809 0.951 . S
H2786 C2811 0.951 . S
H2787 C2813 0.950 . S
H2788 C2814 0.950 . S
H2789 C2816 0.950 . S
H2790 C2819 0.950 . S
H2791 C2820 0.950 . S
H2792 C2822 0.950 . S
H2793 C2823 0.950 . S
C2794 H2776 0.951 . S
C2794 C2795 1.366 . S
C2794 C2796 1.388 . S
C2795 C2794 1.366 . S
C2795 C2799 1.385 . S
C2796 H2777 0.951 . S
C2796 C2794 1.388 . S
C2796 C2797 1.366 . S
C2797 C2796 1.366 . S
C2797 C2798 1.414 . S
C2797 C2800 1.499 . S
C2798 H2778 0.950 . S
C2798 C2797 1.414 . S
C2798 C2799 1.374 . S
C2799 H2779 0.950 . S
C2799 C2795 1.385 . S
C2799 C2798 1.374 . S
C2800 C2797 1.499 . S
C2800 C2801 1.373 . S
C2800 C2802 1.389 . S
C2801 H2780 0.950 . S
C2801 C2800 1.373 . S
C2801 C2817 1.377 . S
C2802 C2800 1.389 . S
C2802 C2803 1.524 . S
C2802 C2816 1.377 . S
C2803 C2802 1.524 . S
C2803 C2804 1.397 . S
C2803 C2808 1.363 . S
C2804 H2781 0.950 . S
C2804 C2803 1.397 . S
C2804 C2805 1.334 . S
C2805 H2782 0.950 . S
C2805 C2804 1.334 . S
C2805 C2806 1.287 . S
C2806 C2805 1.287 . S
C2806 C2807 1.524 . S
C2806 H2825 0.913 . S
C2807 H2783 0.950 . S
C2807 C2806 1.524 . S
C2807 C2808 1.415 . S
C2808 H2784 0.950 . S
C2808 C2803 1.363 . S
C2808 C2807 1.415 . S
C2809 H2785 0.951 . S
C2809 C2810 1.366 . S
C2809 C2811 1.388 . S
C2810 C2809 1.366 . S
C2810 C2814 1.385 . S
C2811 H2786 0.951 . S
C2811 C2809 1.388 . S
C2811 C2812 1.366 . S
C2812 C2811 1.366 . S
C2812 C2813 1.414 . S
C2812 C2815 1.499 . S
C2813 H2787 0.950 . S
C2813 C2812 1.414 . S
C2813 C2814 1.374 . S
C2814 H2788 0.950 . S
C2814 C2810 1.385 . S
C2814 C2813 1.374 . S
C2815 C2812 1.499 . S
C2815 C2816 1.373 . S
C2815 C2817 1.389 . S
C2816 H2789 0.950 . S
C2816 C2802 1.377 . S
C2816 C2815 1.373 . S
C2817 C2801 1.377 . S
C2817 C2815 1.389 . S
C2817 C2818 1.524 . S
C2818 C2817 1.524 . S
C2818 C2819 1.397 . S
C2818 C2823 1.363 . S
C2819 H2790 0.950 . S
C2819 C2818 1.397 . S
C2819 C2820 1.334 . S
C2820 H2791 0.950 . S
C2820 C2819 1.334 . S
C2820 C2821 1.287 . S
C2821 C2820 1.287 . S
C2821 C2822 1.524 . S
C2821 H2824 0.999 1_455 S
C2822 H2792 0.950 . S
C2822 C2821 1.524 . S
C2822 C2823 1.415 . S
C2823 H2793 0.950 . S
C2823 C2818 1.363 . S
C2823 C2822 1.415 . S
H2824 C2821 0.999 1_655 S
H2825 C2806 0.913 . S
H2826 C2844 0.951 . S
H2827 C2846 0.951 . S
H2828 C2848 0.950 . S
H2829 C2849 0.950 . S
H2830 C2851 0.950 . S
H2831 C2854 0.950 . S
H2832 C2855 0.950 . S
H2833 C2857 0.950 . S
H2834 C2858 0.950 . S
H2835 C2859 0.951 . S
H2836 C2861 0.951 . S
H2837 C2863 0.950 . S
H2838 C2864 0.950 . S
H2839 C2866 0.950 . S
H2840 C2869 0.950 . S
H2841 C2870 0.950 . S
H2842 C2872 0.950 . S
H2843 C2873 0.950 . S
C2844 H2826 0.951 . S
C2844 C2845 1.366 . S
C2844 C2846 1.388 . S
C2845 C2844 1.366 . S
C2845 C2849 1.385 . S
C2846 H2827 0.951 . S
C2846 C2844 1.388 . S
C2846 C2847 1.366 . S
C2847 C2846 1.366 . S
C2847 C2848 1.414 . S
C2847 C2850 1.499 . S
C2848 H2828 0.950 . S
C2848 C2847 1.414 . S
C2848 C2849 1.374 . S
C2849 H2829 0.950 . S
C2849 C2845 1.385 . S
C2849 C2848 1.374 . S
C2850 C2847 1.499 . S
C2850 C2851 1.373 . S
C2850 C2852 1.389 . S
C2851 H2830 0.950 . S
C2851 C2850 1.373 . S
C2851 C2867 1.377 . S
C2852 C2850 1.389 . S
C2852 C2853 1.524 . S
C2852 C2866 1.377 . S
C2853 C2852 1.524 . S
C2853 C2854 1.397 . S
C2853 C2858 1.363 . S
C2854 H2831 0.950 . S
C2854 C2853 1.397 . S
C2854 C2855 1.334 . S
C2855 H2832 0.950 . S
C2855 C2854 1.334 . S
C2855 C2856 1.287 . S
C2856 C2855 1.287 . S
C2856 C2857 1.524 . S
C2856 H2875 0.913 . S
C2857 H2833 0.950 . S
C2857 C2856 1.524 . S
C2857 C2858 1.415 . S
C2858 H2834 0.950 . S
C2858 C2853 1.363 . S
C2858 C2857 1.415 . S
C2859 H2835 0.951 . S
C2859 C2860 1.366 . S
C2859 C2861 1.388 . S
C2860 C2859 1.366 . S
C2860 C2864 1.385 . S
C2861 H2836 0.951 . S
C2861 C2859 1.388 . S
C2861 C2862 1.366 . S
C2862 C2861 1.366 . S
C2862 C2863 1.414 . S
C2862 C2865 1.499 . S
C2863 H2837 0.950 . S
C2863 C2862 1.414 . S
C2863 C2864 1.374 . S
C2864 H2838 0.950 . S
C2864 C2860 1.385 . S
C2864 C2863 1.374 . S
C2865 C2862 1.499 . S
C2865 C2866 1.373 . S
C2865 C2867 1.389 . S
C2866 H2839 0.950 . S
C2866 C2852 1.377 . S
C2866 C2865 1.373 . S
C2867 C2851 1.377 . S
C2867 C2865 1.389 . S
C2867 C2868 1.524 . S
C2868 C2867 1.524 . S
C2868 C2869 1.397 . S
C2868 C2873 1.363 . S
C2869 H2840 0.950 . S
C2869 C2868 1.397 . S
C2869 C2870 1.334 . S
C2870 H2841 0.950 . S
C2870 C2869 1.334 . S
C2870 C2871 1.287 . S
C2871 C2870 1.287 . S
C2871 C2872 1.524 . S
C2871 H2874 0.999 . S
C2872 H2842 0.950 . S
C2872 C2871 1.524 . S
C2872 C2873 1.415 . S
C2873 H2843 0.950 . S
C2873 C2868 1.363 . S
C2873 C2872 1.415 . S
H2874 C2871 0.999 . S
H2875 C2856 0.913 . S
H2876 C2894 0.951 . S
H2877 C2896 0.951 . S
H2878 C2898 0.950 . S
H2879 C2899 0.950 . S
H2880 C2901 0.950 . S
H2881 C2904 0.950 . S
H2882 C2905 0.950 . S
H2883 C2907 0.950 . S
H2884 C2908 0.950 . S
H2885 C2909 0.951 . S
H2886 C2911 0.951 . S
H2887 C2913 0.950 . S
H2888 C2914 0.950 . S
H2889 C2916 0.950 . S
H2890 C2919 0.950 . S
H2891 C2920 0.950 . S
H2892 C2922 0.950 . S
H2893 C2923 0.950 . S
C2894 H2876 0.951 . S
C2894 C2895 1.366 . S
C2894 C2896 1.388 . S
C2895 C2894 1.366 . S
C2895 C2899 1.385 . S
C2896 H2877 0.951 . S
C2896 C2894 1.388 . S
C2896 C2897 1.366 . S
C2897 C2896 1.366 . S
C2897 C2898 1.414 . S
C2897 C2900 1.499 . S
C2898 H2878 0.950 . S
C2898 C2897 1.414 . S
C2898 C2899 1.374 . S
C2899 H2879 0.950 . S
C2899 C2895 1.385 . S
C2899 C2898 1.374 . S
C2900 C2897 1.499 . S
C2900 C2901 1.373 . S
C2900 C2902 1.389 . S
C2901 H2880 0.950 . S
C2901 C2900 1.373 . S
C2901 C2917 1.377 . S
C2902 C2900 1.389 . S
C2902 C2903 1.524 . S
C2902 C2916 1.377 . S
C2903 C2902 1.524 . S
C2903 C2904 1.397 . S
C2903 C2908 1.363 . S
C2904 H2881 0.950 . S
C2904 C2903 1.397 . S
C2904 C2905 1.334 . S
C2905 H2882 0.950 . S
C2905 C2904 1.334 . S
C2905 C2906 1.287 . S
C2906 C2905 1.287 . S
C2906 C2907 1.524 . S
C2906 H2925 0.913 . S
C2907 H2883 0.950 . S
C2907 C2906 1.524 . S
C2907 C2908 1.415 . S
C2908 H2884 0.950 . S
C2908 C2903 1.363 . S
C2908 C2907 1.415 . S
C2909 H2885 0.951 . S
C2909 C2910 1.366 . S
C2909 C2911 1.388 . S
C2910 C2909 1.366 . S
C2910 C2914 1.385 . S
C2911 H2886 0.951 . S
C2911 C2909 1.388 . S
C2911 C2912 1.366 . S
C2912 C2911 1.366 . S
C2912 C2913 1.414 . S
C2912 C2915 1.499 . S
C2913 H2887 0.950 . S
C2913 C2912 1.414 . S
C2913 C2914 1.374 . S
C2914 H2888 0.950 . S
C2914 C2910 1.385 . S
C2914 C2913 1.374 . S
C2915 C2912 1.499 . S
C2915 C2916 1.373 . S
C2915 C2917 1.389 . S
C2916 H2889 0.950 . S
C2916 C2902 1.377 . S
C2916 C2915 1.373 . S
C2917 C2901 1.377 . S
C2917 C2915 1.389 . S
C2917 C2918 1.524 . S
C2918 C2917 1.524 . S
C2918 C2919 1.397 . S
C2918 C2923 1.363 . S
C2919 H2890 0.950 . S
C2919 C2918 1.397 . S
C2919 C2920 1.334 . S
C2920 H2891 0.950 . S
C2920 C2919 1.334 . S
C2920 C2921 1.287 . S
C2921 C2920 1.287 . S
C2921 C2922 1.524 . S
C2921 H2924 0.999 . S
C2922 H2892 0.950 . S
C2922 C2921 1.524 . S
C2922 C2923 1.415 . S
C2923 H2893 0.950 . S
C2923 C2918 1.363 . S
C2923 C2922 1.415 . S
H2924 C2921 0.999 . S
H2925 C2906 0.913 . S
H2926 C2944 0.951 . S
H2927 C2946 0.951 . S
H2928 C2948 0.950 . S
H2929 C2949 0.950 . S
H2930 C2951 0.950 . S
H2931 C2954 0.950 . S
H2932 C2955 0.950 . S
H2933 C2957 0.950 . S
H2934 C2958 0.950 . S
H2935 C2959 0.951 . S
H2936 C2961 0.951 . S
H2937 C2963 0.950 . S
H2938 C2964 0.950 . S
H2939 C2966 0.950 . S
H2940 C2969 0.950 . S
H2941 C2970 0.950 . S
H2942 C2972 0.950 . S
H2943 C2973 0.950 . S
C2944 H2926 0.951 . S
C2944 C2945 1.366 . S
C2944 C2946 1.388 . S
C2945 C2944 1.366 . S
C2945 C2949 1.385 . S
C2946 H2927 0.951 . S
C2946 C2944 1.388 . S
C2946 C2947 1.366 . S
C2947 C2946 1.366 . S
C2947 C2948 1.414 . S
C2947 C2950 1.499 . S
C2948 H2928 0.950 . S
C2948 C2947 1.414 . S
C2948 C2949 1.374 . S
C2949 H2929 0.950 . S
C2949 C2945 1.385 . S
C2949 C2948 1.374 . S
C2950 C2947 1.499 . S
C2950 C2951 1.373 . S
C2950 C2952 1.389 . S
C2951 H2930 0.950 . S
C2951 C2950 1.373 . S
C2951 C2967 1.377 . S
C2952 C2950 1.389 . S
C2952 C2953 1.524 . S
C2952 C2966 1.377 . S
C2953 C2952 1.524 . S
C2953 C2954 1.397 . S
C2953 C2958 1.363 . S
C2954 H2931 0.950 . S
C2954 C2953 1.397 . S
C2954 C2955 1.334 . S
C2955 H2932 0.950 . S
C2955 C2954 1.334 . S
C2955 C2956 1.287 . S
C2956 C2955 1.287 . S
C2956 C2957 1.524 . S
C2956 H2975 0.913 . S
C2957 H2933 0.950 . S
C2957 C2956 1.524 . S
C2957 C2958 1.415 . S
C2958 H2934 0.950 . S
C2958 C2953 1.363 . S
C2958 C2957 1.415 . S
C2959 H2935 0.951 . S
C2959 C2960 1.366 . S
C2959 C2961 1.388 . S
C2960 C2959 1.366 . S
C2960 C2964 1.385 . S
C2961 H2936 0.951 . S
C2961 C2959 1.388 . S
C2961 C2962 1.366 . S
C2962 C2961 1.366 . S
C2962 C2963 1.414 . S
C2962 C2965 1.499 . S
C2963 H2937 0.950 . S
C2963 C2962 1.414 . S
C2963 C2964 1.374 . S
C2964 H2938 0.950 . S
C2964 C2960 1.385 . S
C2964 C2963 1.374 . S
C2965 C2962 1.499 . S
C2965 C2966 1.373 . S
C2965 C2967 1.389 . S
C2966 H2939 0.950 . S
C2966 C2952 1.377 . S
C2966 C2965 1.373 . S
C2967 C2951 1.377 . S
C2967 C2965 1.389 . S
C2967 C2968 1.524 . S
C2968 C2967 1.524 . S
C2968 C2969 1.397 . S
C2968 C2973 1.363 . S
C2969 H2940 0.950 . S
C2969 C2968 1.397 . S
C2969 C2970 1.334 . S
C2970 H2941 0.950 . S
C2970 C2969 1.334 . S
C2970 C2971 1.287 . S
C2971 C2970 1.287 . S
C2971 C2972 1.524 . S
C2971 H2974 0.999 . S
C2972 H2942 0.950 . S
C2972 C2971 1.524 . S
C2972 C2973 1.415 . S
C2973 H2943 0.950 . S
C2973 C2968 1.363 . S
C2973 C2972 1.415 . S
H2974 C2971 0.999 . S
H2975 C2956 0.913 . S
H2976 C2994 0.951 . S
H2977 C2996 0.951 . S
H2978 C2998 0.950 . S
H2979 C2999 0.950 . S
H2980 C3001 0.950 . S
H2981 C3004 0.950 . S
H2982 C3005 0.950 1_556 S
H2983 C3007 0.950 . S
H2984 C3008 0.950 . S
H2985 C3009 0.951 . S
H2986 C3011 0.951 . S
H2987 C3013 0.950 . S
H2988 C3014 0.950 . S
H2989 C3016 0.950 . S
H2990 C3019 0.950 . S
H2991 C3020 0.950 . S
H2992 C3022 0.950 . S
H2993 C3023 0.950 . S
C2994 H2976 0.951 . S
C2994 C2995 1.366 . S
C2994 C2996 1.388 . S
C2995 C2994 1.366 . S
C2995 C2999 1.385 . S
C2996 H2977 0.951 . S
C2996 C2994 1.388 . S
C2996 C2997 1.366 . S
C2997 C2996 1.366 . S
C2997 C2998 1.414 . S
C2997 C3000 1.499 . S
C2998 H2978 0.950 . S
C2998 C2997 1.414 . S
C2998 C2999 1.374 . S
C2999 H2979 0.950 . S
C2999 C2995 1.385 . S
C2999 C2998 1.374 . S
C3000 C2997 1.499 . S
C3000 C3001 1.373 . S
C3000 C3002 1.389 . S
C3001 H2980 0.950 . S
C3001 C3000 1.373 . S
C3001 C3017 1.377 . S
C3002 C3000 1.389 . S
C3002 C3003 1.524 . S
C3002 C3016 1.377 . S
C3003 C3002 1.524 . S
C3003 C3004 1.397 . S
C3003 C3008 1.363 . S
C3004 H2981 0.950 . S
C3004 C3003 1.397 . S
C3004 C3005 1.334 . S
C3005 H2982 0.950 1_554 S
C3005 C3004 1.334 . S
C3005 C3006 1.287 . S
C3006 C3005 1.287 . S
C3006 C3007 1.524 . S
C3006 H3025 0.913 . S
C3007 H2983 0.950 . S
C3007 C3006 1.524 . S
C3007 C3008 1.415 . S
C3008 H2984 0.950 . S
C3008 C3003 1.363 . S
C3008 C3007 1.415 . S
C3009 H2985 0.951 . S
C3009 C3010 1.366 . S
C3009 C3011 1.388 . S
C3010 C3009 1.366 . S
C3010 C3014 1.385 . S
C3011 H2986 0.951 . S
C3011 C3009 1.388 . S
C3011 C3012 1.366 . S
C3012 C3011 1.366 . S
C3012 C3013 1.414 . S
C3012 C3015 1.499 . S
C3013 H2987 0.950 . S
C3013 C3012 1.414 . S
C3013 C3014 1.374 . S
C3014 H2988 0.950 . S
C3014 C3010 1.385 . S
C3014 C3013 1.374 . S
C3015 C3012 1.499 . S
C3015 C3016 1.373 . S
C3015 C3017 1.389 . S
C3016 H2989 0.950 . S
C3016 C3002 1.377 . S
C3016 C3015 1.373 . S
C3017 C3001 1.377 . S
C3017 C3015 1.389 . S
C3017 C3018 1.524 . S
C3018 C3017 1.524 . S
C3018 C3019 1.397 . S
C3018 C3023 1.363 . S
C3019 H2990 0.950 . S
C3019 C3018 1.397 . S
C3019 C3020 1.334 . S
C3020 H2991 0.950 . S
C3020 C3019 1.334 . S
C3020 C3021 1.287 . S
C3021 C3020 1.287 . S
C3021 C3022 1.524 . S
C3021 H3024 0.999 . S
C3022 H2992 0.950 . S
C3022 C3021 1.524 . S
C3022 C3023 1.415 . S
C3023 H2993 0.950 . S
C3023 C3018 1.363 . S
C3023 C3022 1.415 . S
H3024 C3021 0.999 . S
H3025 C3006 0.913 . S
H3026 C3044 0.951 . S
H3027 C3046 0.951 . S
H3028 C3048 0.950 . S
H3029 C3049 0.950 . S
H3030 C3051 0.950 . S
H3031 C3054 0.950 . S
H3032 C3055 0.950 . S
H3033 C3057 0.950 . S
H3034 C3058 0.950 . S
H3035 C3059 0.951 . S
H3036 C3061 0.951 . S
H3037 C3063 0.950 . S
H3038 C3064 0.950 . S
H3039 C3066 0.950 . S
H3040 C3069 0.950 . S
H3041 C3070 0.950 . S
H3042 C3072 0.950 . S
H3043 C3073 0.950 . S
C3044 H3026 0.951 . S
C3044 C3045 1.366 . S
C3044 C3046 1.388 . S
C3045 C3044 1.366 . S
C3045 C3049 1.385 . S
C3046 H3027 0.951 . S
C3046 C3044 1.388 . S
C3046 C3047 1.366 . S
C3047 C3046 1.366 . S
C3047 C3048 1.414 . S
C3047 C3050 1.499 . S
C3048 H3028 0.950 . S
C3048 C3047 1.414 . S
C3048 C3049 1.374 . S
C3049 H3029 0.950 . S
C3049 C3045 1.385 . S
C3049 C3048 1.374 . S
C3050 C3047 1.499 . S
C3050 C3051 1.373 . S
C3050 C3052 1.389 . S
C3051 H3030 0.950 . S
C3051 C3050 1.373 . S
C3051 C3067 1.377 . S
C3052 C3050 1.389 . S
C3052 C3053 1.524 . S
C3052 C3066 1.377 . S
C3053 C3052 1.524 . S
C3053 C3054 1.397 . S
C3053 C3058 1.363 . S
C3054 H3031 0.950 . S
C3054 C3053 1.397 . S
C3054 C3055 1.334 . S
C3055 H3032 0.950 . S
C3055 C3054 1.334 . S
C3055 C3056 1.287 . S
C3056 C3055 1.287 . S
C3056 C3057 1.524 . S
C3056 H3075 0.913 . S
C3057 H3033 0.950 . S
C3057 C3056 1.524 . S
C3057 C3058 1.415 . S
C3058 H3034 0.950 . S
C3058 C3053 1.363 . S
C3058 C3057 1.415 . S
C3059 H3035 0.951 . S
C3059 C3060 1.366 . S
C3059 C3061 1.388 . S
C3060 C3059 1.366 . S
C3060 C3064 1.385 . S
C3061 H3036 0.951 . S
C3061 C3059 1.388 . S
C3061 C3062 1.366 . S
C3062 C3061 1.366 . S
C3062 C3063 1.414 . S
C3062 C3065 1.499 . S
C3063 H3037 0.950 . S
C3063 C3062 1.414 . S
C3063 C3064 1.374 . S
C3064 H3038 0.950 . S
C3064 C3060 1.385 . S
C3064 C3063 1.374 . S
C3065 C3062 1.499 . S
C3065 C3066 1.373 . S
C3065 C3067 1.389 . S
C3066 H3039 0.950 . S
C3066 C3052 1.377 . S
C3066 C3065 1.373 . S
C3067 C3051 1.377 . S
C3067 C3065 1.389 . S
C3067 C3068 1.524 . S
C3068 C3067 1.524 . S
C3068 C3069 1.397 . S
C3068 C3073 1.363 . S
C3069 H3040 0.950 . S
C3069 C3068 1.397 . S
C3069 C3070 1.334 . S
C3070 H3041 0.950 . S
C3070 C3069 1.334 . S
C3070 C3071 1.287 . S
C3071 C3070 1.287 . S
C3071 C3072 1.524 . S
C3071 H3074 0.999 . S
C3072 H3042 0.950 . S
C3072 C3071 1.524 . S
C3072 C3073 1.415 . S
C3073 H3043 0.950 . S
C3073 C3068 1.363 . S
C3073 C3072 1.415 . S
H3074 C3071 0.999 . S
H3075 C3056 0.913 . S
H3076 C3094 0.951 . S
H3077 C3096 0.951 . S
H3078 C3098 0.950 . S
H3079 C3099 0.950 . S
H3080 C3101 0.950 . S
H3081 C3104 0.950 . S
H3082 C3105 0.950 . S
H3083 C3107 0.950 . S
H3084 C3108 0.950 . S
H3085 C3109 0.951 . S
H3086 C3111 0.951 . S
H3087 C3113 0.950 . S
H3088 C3114 0.950 . S
H3089 C3116 0.950 . S
H3090 C3119 0.950 . S
H3091 C3120 0.950 . S
H3092 C3122 0.950 . S
H3093 C3123 0.950 . S
C3094 H3076 0.951 . S
C3094 C3095 1.366 . S
C3094 C3096 1.388 . S
C3095 C3094 1.366 . S
C3095 C3099 1.385 . S
C3096 H3077 0.951 . S
C3096 C3094 1.388 . S
C3096 C3097 1.366 . S
C3097 C3096 1.366 . S
C3097 C3098 1.414 . S
C3097 C3100 1.499 . S
C3098 H3078 0.950 . S
C3098 C3097 1.414 . S
C3098 C3099 1.374 . S
C3099 H3079 0.950 . S
C3099 C3095 1.385 . S
C3099 C3098 1.374 . S
C3100 C3097 1.499 . S
C3100 C3101 1.373 . S
C3100 C3102 1.389 . S
C3101 H3080 0.950 . S
C3101 C3100 1.373 . S
C3101 C3117 1.377 . S
C3102 C3100 1.389 . S
C3102 C3103 1.524 . S
C3102 C3116 1.377 . S
C3103 C3102 1.524 . S
C3103 C3104 1.397 . S
C3103 C3108 1.363 . S
C3104 H3081 0.950 . S
C3104 C3103 1.397 . S
C3104 C3105 1.334 . S
C3105 H3082 0.950 . S
C3105 C3104 1.334 . S
C3105 C3106 1.287 . S
C3106 C3105 1.287 . S
C3106 C3107 1.524 . S
C3106 H3125 0.913 . S
C3107 H3083 0.950 . S
C3107 C3106 1.524 . S
C3107 C3108 1.415 . S
C3108 H3084 0.950 . S
C3108 C3103 1.363 . S
C3108 C3107 1.415 . S
C3109 H3085 0.951 . S
C3109 C3110 1.366 . S
C3109 C3111 1.388 . S
C3110 C3109 1.366 . S
C3110 C3114 1.385 . S
C3111 H3086 0.951 . S
C3111 C3109 1.388 . S
C3111 C3112 1.366 . S
C3112 C3111 1.366 . S
C3112 C3113 1.414 . S
C3112 C3115 1.499 . S
C3113 H3087 0.950 . S
C3113 C3112 1.414 . S
C3113 C3114 1.374 . S
C3114 H3088 0.950 . S
C3114 C3110 1.385 . S
C3114 C3113 1.374 . S
C3115 C3112 1.499 . S
C3115 C3116 1.373 . S
C3115 C3117 1.389 . S
C3116 H3089 0.950 . S
C3116 C3102 1.377 . S
C3116 C3115 1.373 . S
C3117 C3101 1.377 . S
C3117 C3115 1.389 . S
C3117 C3118 1.524 . S
C3118 C3117 1.524 . S
C3118 C3119 1.397 . S
C3118 C3123 1.363 . S
C3119 H3090 0.950 . S
C3119 C3118 1.397 . S
C3119 C3120 1.334 . S
C3120 H3091 0.950 . S
C3120 C3119 1.334 . S
C3120 C3121 1.287 . S
C3121 C3120 1.287 . S
C3121 C3122 1.524 . S
C3121 H3124 0.999 . S
C3122 H3092 0.950 . S
C3122 C3121 1.524 . S
C3122 C3123 1.415 . S
C3123 H3093 0.950 . S
C3123 C3118 1.363 . S
C3123 C3122 1.415 . S
H3124 C3121 0.999 . S
H3125 C3106 0.913 . S
H3126 C3144 0.951 . S
H3127 C3146 0.951 . S
H3128 C3148 0.950 . S
H3129 C3149 0.950 . S
H3130 C3151 0.950 . S
H3131 C3154 0.950 . S
H3132 C3155 0.950 . S
H3133 C3157 0.950 . S
H3134 C3158 0.950 . S
H3135 C3159 0.951 . S
H3136 C3161 0.951 . S
H3137 C3163 0.950 . S
H3138 C3164 0.950 . S
H3139 C3166 0.950 . S
H3140 C3169 0.950 . S
H3141 C3170 0.950 . S
H3142 C3172 0.950 . S
H3143 C3173 0.950 . S
C3144 H3126 0.951 . S
C3144 C3145 1.366 . S
C3144 C3146 1.388 . S
C3145 C3144 1.366 . S
C3145 C3149 1.385 . S
C3146 H3127 0.951 . S
C3146 C3144 1.388 . S
C3146 C3147 1.366 . S
C3147 C3146 1.366 . S
C3147 C3148 1.414 . S
C3147 C3150 1.499 . S
C3148 H3128 0.950 . S
C3148 C3147 1.414 . S
C3148 C3149 1.374 . S
C3149 H3129 0.950 . S
C3149 C3145 1.385 . S
C3149 C3148 1.374 . S
C3150 C3147 1.499 . S
C3150 C3151 1.373 . S
C3150 C3152 1.389 . S
C3151 H3130 0.950 . S
C3151 C3150 1.373 . S
C3151 C3167 1.377 . S
C3152 C3150 1.389 . S
C3152 C3153 1.524 . S
C3152 C3166 1.377 . S
C3153 C3152 1.524 . S
C3153 C3154 1.397 . S
C3153 C3158 1.363 . S
C3154 H3131 0.950 . S
C3154 C3153 1.397 . S
C3154 C3155 1.334 . S
C3155 H3132 0.950 . S
C3155 C3154 1.334 . S
C3155 C3156 1.287 . S
C3156 C3155 1.287 . S
C3156 C3157 1.524 . S
C3156 H3175 0.913 . S
C3157 H3133 0.950 . S
C3157 C3156 1.524 . S
C3157 C3158 1.415 . S
C3158 H3134 0.950 . S
C3158 C3153 1.363 . S
C3158 C3157 1.415 . S
C3159 H3135 0.951 . S
C3159 C3160 1.366 . S
C3159 C3161 1.388 . S
C3160 C3159 1.366 . S
C3160 C3164 1.385 . S
C3161 H3136 0.951 . S
C3161 C3159 1.388 . S
C3161 C3162 1.366 . S
C3162 C3161 1.366 . S
C3162 C3163 1.414 . S
C3162 C3165 1.499 . S
C3163 H3137 0.950 . S
C3163 C3162 1.414 . S
C3163 C3164 1.374 . S
C3164 H3138 0.950 . S
C3164 C3160 1.385 . S
C3164 C3163 1.374 . S
C3165 C3162 1.499 . S
C3165 C3166 1.373 . S
C3165 C3167 1.389 . S
C3166 H3139 0.950 . S
C3166 C3152 1.377 . S
C3166 C3165 1.373 . S
C3167 C3151 1.377 . S
C3167 C3165 1.389 . S
C3167 C3168 1.524 . S
C3168 C3167 1.524 . S
C3168 C3169 1.397 . S
C3168 C3173 1.363 . S
C3169 H3140 0.950 . S
C3169 C3168 1.397 . S
C3169 C3170 1.334 . S
C3170 H3141 0.950 . S
C3170 C3169 1.334 . S
C3170 C3171 1.287 . S
C3171 C3170 1.287 . S
C3171 C3172 1.524 . S
C3171 H3174 0.999 . S
C3172 H3142 0.950 . S
C3172 C3171 1.524 . S
C3172 C3173 1.415 . S
C3173 H3143 0.950 . S
C3173 C3168 1.363 . S
C3173 C3172 1.415 . S
H3174 C3171 0.999 . S
H3175 C3156 0.913 . S
H3176 C3194 0.951 . S
H3177 C3196 0.951 . S
H3178 C3198 0.950 . S
H3179 C3199 0.950 . S
H3180 C3201 0.950 . S
H3181 C3204 0.950 . S
H3182 C3205 0.950 . S
H3183 C3207 0.950 . S
H3184 C3208 0.950 . S
H3185 C3209 0.951 . S
H3186 C3211 0.951 . S
H3187 C3213 0.950 . S
H3188 C3214 0.950 . S
H3189 C3216 0.950 . S
H3190 C3219 0.950 . S
H3191 C3220 0.950 . S
H3192 C3222 0.950 . S
H3193 C3223 0.950 . S
C3194 H3176 0.951 . S
C3194 C3195 1.366 . S
C3194 C3196 1.388 . S
C3195 C3194 1.366 . S
C3195 C3199 1.385 . S
C3196 H3177 0.951 . S
C3196 C3194 1.388 . S
C3196 C3197 1.366 . S
C3197 C3196 1.366 . S
C3197 C3198 1.414 . S
C3197 C3200 1.499 . S
C3198 H3178 0.950 . S
C3198 C3197 1.414 . S
C3198 C3199 1.374 . S
C3199 H3179 0.950 . S
C3199 C3195 1.385 . S
C3199 C3198 1.374 . S
C3200 C3197 1.499 . S
C3200 C3201 1.373 . S
C3200 C3202 1.389 . S
C3201 H3180 0.950 . S
C3201 C3200 1.373 . S
C3201 C3217 1.377 . S
C3202 C3200 1.389 . S
C3202 C3203 1.524 . S
C3202 C3216 1.377 . S
C3203 C3202 1.524 . S
C3203 C3204 1.397 . S
C3203 C3208 1.363 . S
C3204 H3181 0.950 . S
C3204 C3203 1.397 . S
C3204 C3205 1.334 . S
C3205 H3182 0.950 . S
C3205 C3204 1.334 . S
C3205 C3206 1.287 . S
C3206 C3205 1.287 . S
C3206 C3207 1.524 . S
C3206 H3225 0.913 . S
C3207 H3183 0.950 . S
C3207 C3206 1.524 . S
C3207 C3208 1.415 . S
C3208 H3184 0.950 . S
C3208 C3203 1.363 . S
C3208 C3207 1.415 . S
C3209 H3185 0.951 . S
C3209 C3210 1.366 . S
C3209 C3211 1.388 . S
C3210 C3209 1.366 . S
C3210 C3214 1.385 . S
C3211 H3186 0.951 . S
C3211 C3209 1.388 . S
C3211 C3212 1.366 . S
C3212 C3211 1.366 . S
C3212 C3213 1.414 . S
C3212 C3215 1.499 . S
C3213 H3187 0.950 . S
C3213 C3212 1.414 . S
C3213 C3214 1.374 . S
C3214 H3188 0.950 . S
C3214 C3210 1.385 . S
C3214 C3213 1.374 . S
C3215 C3212 1.499 . S
C3215 C3216 1.373 . S
C3215 C3217 1.389 . S
C3216 H3189 0.950 . S
C3216 C3202 1.377 . S
C3216 C3215 1.373 . S
C3217 C3201 1.377 . S
C3217 C3215 1.389 . S
C3217 C3218 1.524 . S
C3218 C3217 1.524 . S
C3218 C3219 1.397 . S
C3218 C3223 1.363 . S
C3219 H3190 0.950 . S
C3219 C3218 1.397 . S
C3219 C3220 1.334 . S
C3220 H3191 0.950 . S
C3220 C3219 1.334 . S
C3220 C3221 1.287 . S
C3221 C3220 1.287 . S
C3221 C3222 1.524 . S
C3221 H3224 0.999 . S
C3222 H3192 0.950 . S
C3222 C3221 1.524 . S
C3222 C3223 1.415 . S
C3223 H3193 0.950 . S
C3223 C3218 1.363 . S
C3223 C3222 1.415 . S
H3224 C3221 0.999 . S
H3225 C3206 0.913 . S
H3226 C3244 0.951 . S
H3227 C3246 0.951 . S
H3228 C3248 0.950 . S
H3229 C3249 0.950 . S
H3230 C3251 0.951 . S
H3231 C3254 0.950 . S
H3232 C3255 0.950 . S
H3233 C3257 0.950 . S
H3234 C3258 0.950 . S
H3235 C3259 0.951 . S
H3236 C3261 0.951 . S
H3237 C3263 0.950 . S
H3238 C3264 0.950 . S
H3239 C3266 0.950 . S
H3240 C3269 0.950 . S
H3241 C3270 0.950 . S
H3242 C3272 0.950 . S
H3243 C3273 0.950 . S
C3244 H3226 0.951 . S
C3244 C3245 1.366 . S
C3244 C3246 1.388 . S
C3245 C3244 1.366 . S
C3245 C3249 1.385 . S
C3246 H3227 0.951 . S
C3246 C3244 1.388 . S
C3246 C3247 1.366 . S
C3247 C3246 1.366 . S
C3247 C3248 1.414 . S
C3247 C3250 1.499 . S
C3248 H3228 0.950 . S
C3248 C3247 1.414 . S
C3248 C3249 1.374 . S
C3249 H3229 0.950 . S
C3249 C3245 1.385 . S
C3249 C3248 1.374 . S
C3250 C3247 1.499 . S
C3250 C3251 1.371 1_565 S
C3250 C3252 1.389 . S
C3251 H3230 0.951 . S
C3251 C3250 1.371 1_545 S
C3251 C3267 1.378 . S
C3252 C3250 1.389 . S
C3252 C3253 1.524 . S
C3252 C3266 1.377 . S
C3253 C3252 1.524 . S
C3253 C3254 1.397 . S
C3253 C3258 1.363 . S
C3254 H3231 0.950 . S
C3254 C3253 1.397 . S
C3254 C3255 1.334 . S
C3255 H3232 0.950 . S
C3255 C3254 1.334 . S
C3255 C3256 1.287 . S
C3256 C3255 1.287 . S
C3256 C3257 1.524 . S
C3256 H3275 0.913 . S
C3257 H3233 0.950 . S
C3257 C3256 1.524 . S
C3257 C3258 1.415 . S
C3258 H3234 0.950 . S
C3258 C3253 1.363 . S
C3258 C3257 1.415 . S
C3259 H3235 0.951 . S
C3259 C3260 1.366 . S
C3259 C3261 1.388 . S
C3260 C3259 1.366 . S
C3260 C3264 1.385 1_545 S
C3261 H3236 0.951 . S
C3261 C3259 1.388 . S
C3261 C3262 1.314 1_545 S
C3262 C3261 1.314 1_565 S
C3262 C3263 1.436 . S
C3262 C3265 1.533 . S
C3263 H3237 0.950 . S
C3263 C3262 1.436 . S
C3263 C3264 1.374 . S
C3264 H3238 0.950 . S
C3264 C3260 1.385 1_565 S
C3264 C3263 1.374 . S
C3265 C3262 1.533 . S
C3265 C3266 1.373 . S
C3265 C3267 1.389 1_565 S
C3266 H3239 0.950 . S
C3266 C3252 1.377 . S
C3266 C3265 1.373 . S
C3267 C3251 1.378 . S
C3267 C3265 1.389 1_545 S
C3267 C3268 1.524 . S
C3268 C3267 1.524 . S
C3268 C3269 1.397 . S
C3268 C3273 1.363 . S
C3269 H3240 0.950 . S
C3269 C3268 1.397 . S
C3269 C3270 1.334 . S
C3270 H3241 0.950 . S
C3270 C3269 1.334 . S
C3270 C3271 1.287 . S
C3271 C3270 1.287 . S
C3271 C3272 1.524 . S
C3271 H3274 0.999 . S
C3272 H3242 0.950 . S
C3272 C3271 1.524 . S
C3272 C3273 1.415 . S
C3273 H3243 0.950 . S
C3273 C3268 1.363 . S
C3273 C3272 1.415 . S
H3274 C3271 0.999 . S
H3275 C3256 0.913 . S
H3276 C3294 0.951 . S
H3277 C3296 0.951 . S
H3278 C3298 0.950 . S
H3279 C3299 0.950 . S
H3280 C3301 0.950 . S
H3281 C3304 0.950 . S
H3282 C3305 0.950 . S
H3283 C3307 0.950 . S
H3284 C3308 0.950 . S
H3285 C3309 0.951 . S
H3286 C3311 0.951 . S
H3287 C3313 0.950 . S
H3288 C3314 0.950 . S
H3289 C3316 0.950 . S
H3290 C3319 0.950 . S
H3291 C3320 0.950 . S
H3292 C3322 0.950 . S
H3293 C3323 0.950 . S
C3294 H3276 0.951 . S
C3294 C3295 1.366 . S
C3294 C3296 1.388 . S
C3295 C3294 1.366 . S
C3295 C3299 1.385 . S
C3296 H3277 0.951 . S
C3296 C3294 1.388 . S
C3296 C3297 1.366 . S
C3297 C3296 1.366 . S
C3297 C3298 1.414 . S
C3297 C3300 1.499 . S
C3298 H3278 0.950 . S
C3298 C3297 1.414 . S
C3298 C3299 1.374 . S
C3299 H3279 0.950 . S
C3299 C3295 1.385 . S
C3299 C3298 1.374 . S
C3300 C3297 1.499 . S
C3300 C3301 1.373 . S
C3300 C3302 1.389 . S
C3301 H3280 0.950 . S
C3301 C3300 1.373 . S
C3301 C3317 1.377 . S
C3302 C3300 1.389 . S
C3302 C3303 1.524 . S
C3302 C3316 1.377 . S
C3303 C3302 1.524 . S
C3303 C3304 1.397 . S
C3303 C3308 1.363 . S
C3304 H3281 0.950 . S
C3304 C3303 1.397 . S
C3304 C3305 1.334 . S
C3305 H3282 0.950 . S
C3305 C3304 1.334 . S
C3305 C3306 1.287 . S
C3306 C3305 1.287 . S
C3306 C3307 1.524 . S
C3306 H3325 0.913 . S
C3307 H3283 0.950 . S
C3307 C3306 1.524 . S
C3307 C3308 1.415 . S
C3308 H3284 0.950 . S
C3308 C3303 1.363 . S
C3308 C3307 1.415 . S
C3309 H3285 0.951 . S
C3309 C3310 1.366 . S
C3309 C3311 1.388 . S
C3310 C3309 1.366 . S
C3310 C3314 1.385 . S
C3311 H3286 0.951 . S
C3311 C3309 1.388 . S
C3311 C3312 1.366 . S
C3312 C3311 1.366 . S
C3312 C3313 1.414 . S
C3312 C3315 1.499 . S
C3313 H3287 0.950 . S
C3313 C3312 1.414 . S
C3313 C3314 1.374 . S
C3314 H3288 0.950 . S
C3314 C3310 1.385 . S
C3314 C3313 1.374 . S
C3315 C3312 1.499 . S
C3315 C3316 1.373 . S
C3315 C3317 1.389 . S
C3316 H3289 0.950 . S
C3316 C3302 1.377 . S
C3316 C3315 1.373 . S
C3317 C3301 1.377 . S
C3317 C3315 1.389 . S
C3317 C3318 1.524 . S
C3318 C3317 1.524 . S
C3318 C3319 1.397 . S
C3318 C3323 1.363 . S
C3319 H3290 0.950 . S
C3319 C3318 1.397 . S
C3319 C3320 1.334 . S
C3320 H3291 0.950 . S
C3320 C3319 1.334 . S
C3320 C3321 1.287 . S
C3321 C3320 1.287 . S
C3321 C3322 1.524 . S
C3321 H3324 0.999 . S
C3322 H3292 0.950 . S
C3322 C3321 1.524 . S
C3322 C3323 1.415 . S
C3323 H3293 0.950 . S
C3323 C3318 1.363 . S
C3323 C3322 1.415 . S
H3324 C3321 0.999 . S
H3325 C3306 0.913 . S
H3326 C3344 0.951 . S
H3327 C3346 0.951 . S
H3328 C3348 0.950 . S
H3329 C3349 0.950 . S
H3330 C3351 0.950 . S
H3331 C3354 0.950 . S
H3332 C3355 0.950 . S
H3333 C3357 0.950 . S
H3334 C3358 0.950 . S
H3335 C3359 0.951 . S
H3336 C3361 0.951 . S
H3337 C3363 0.950 . S
H3338 C3364 0.950 . S
H3339 C3366 0.950 . S
H3340 C3369 0.950 . S
H3341 C3370 0.950 . S
H3342 C3372 0.950 . S
H3343 C3373 0.950 . S
C3344 H3326 0.951 . S
C3344 C3345 1.366 . S
C3344 C3346 1.388 . S
C3345 C3344 1.366 . S
C3345 C3349 1.385 . S
C3346 H3327 0.951 . S
C3346 C3344 1.388 . S
C3346 C3347 1.366 . S
C3347 C3346 1.366 . S
C3347 C3348 1.414 . S
C3347 C3350 1.499 . S
C3348 H3328 0.950 . S
C3348 C3347 1.414 . S
C3348 C3349 1.374 . S
C3349 H3329 0.950 . S
C3349 C3345 1.385 . S
C3349 C3348 1.374 . S
C3350 C3347 1.499 . S
C3350 C3351 1.373 . S
C3350 C3352 1.389 . S
C3351 H3330 0.950 . S
C3351 C3350 1.373 . S
C3351 C3367 1.377 . S
C3352 C3350 1.389 . S
C3352 C3353 1.524 . S
C3352 C3366 1.377 . S
C3353 C3352 1.524 . S
C3353 C3354 1.397 . S
C3353 C3358 1.363 . S
C3354 H3331 0.950 . S
C3354 C3353 1.397 . S
C3354 C3355 1.334 . S
C3355 H3332 0.950 . S
C3355 C3354 1.334 . S
C3355 C3356 1.287 . S
C3356 C3355 1.287 . S
C3356 C3357 1.524 . S
C3356 H3375 0.913 . S
C3357 H3333 0.950 . S
C3357 C3356 1.524 . S
C3357 C3358 1.415 . S
C3358 H3334 0.950 . S
C3358 C3353 1.363 . S
C3358 C3357 1.415 . S
C3359 H3335 0.951 . S
C3359 C3360 1.366 . S
C3359 C3361 1.388 . S
C3360 C3359 1.366 . S
C3360 C3364 1.385 . S
C3361 H3336 0.951 . S
C3361 C3359 1.388 . S
C3361 C3362 1.366 . S
C3362 C3361 1.366 . S
C3362 C3363 1.414 . S
C3362 C3365 1.499 . S
C3363 H3337 0.950 . S
C3363 C3362 1.414 . S
C3363 C3364 1.374 . S
C3364 H3338 0.950 . S
C3364 C3360 1.385 . S
C3364 C3363 1.374 . S
C3365 C3362 1.499 . S
C3365 C3366 1.373 . S
C3365 C3367 1.389 . S
C3366 H3339 0.950 . S
C3366 C3352 1.377 . S
C3366 C3365 1.373 . S
C3367 C3351 1.377 . S
C3367 C3365 1.389 . S
C3367 C3368 1.524 . S
C3368 C3367 1.524 . S
C3368 C3369 1.397 . S
C3368 C3373 1.363 . S
C3369 H3340 0.950 . S
C3369 C3368 1.397 . S
C3369 C3370 1.334 . S
C3370 H3341 0.950 . S
C3370 C3369 1.334 . S
C3370 C3371 1.287 . S
C3371 C3370 1.287 . S
C3371 C3372 1.524 . S
C3371 H3374 0.999 . S
C3372 H3342 0.950 . S
C3372 C3371 1.524 . S
C3372 C3373 1.415 . S
C3373 H3343 0.950 . S
C3373 C3368 1.363 . S
C3373 C3372 1.415 . S
H3374 C3371 0.999 . S
H3375 C3356 0.913 . S
H3376 C3394 0.951 . S
H3377 C3396 0.951 . S
H3378 C3398 0.950 . S
H3379 C3399 0.950 . S
H3380 C3401 0.950 . S
H3381 C3404 0.950 . S
H3382 C3405 0.950 . S
H3383 C3407 0.950 . S
H3384 C3408 0.950 . S
H3385 C3409 0.951 . S
H3386 C3411 0.951 . S
H3387 C3413 0.950 . S
H3388 C3414 0.950 . S
H3389 C3416 0.950 . S
H3390 C3419 0.950 . S
H3391 C3420 0.950 . S
H3392 C3422 0.950 . S
H3393 C3423 0.950 . S
C3394 H3376 0.951 . S
C3394 C3395 1.366 . S
C3394 C3396 1.388 . S
C3395 C3394 1.366 . S
C3395 C3399 1.385 . S
C3396 H3377 0.951 . S
C3396 C3394 1.388 . S
C3396 C3397 1.366 . S
C3397 C3396 1.366 . S
C3397 C3398 1.414 . S
C3397 C3400 1.499 . S
C3398 H3378 0.950 . S
C3398 C3397 1.414 . S
C3398 C3399 1.374 . S
C3399 H3379 0.950 . S
C3399 C3395 1.385 . S
C3399 C3398 1.374 . S
C3400 C3397 1.499 . S
C3400 C3401 1.373 . S
C3400 C3402 1.389 . S
C3401 H3380 0.950 . S
C3401 C3400 1.373 . S
C3401 C3417 1.377 . S
C3402 C3400 1.389 . S
C3402 C3403 1.524 . S
C3402 C3416 1.377 . S
C3403 C3402 1.524 . S
C3403 C3404 1.397 . S
C3403 C3408 1.363 . S
C3404 H3381 0.950 . S
C3404 C3403 1.397 . S
C3404 C3405 1.334 . S
C3405 H3382 0.950 . S
C3405 C3404 1.334 . S
C3405 C3406 1.287 . S
C3406 C3405 1.287 . S
C3406 C3407 1.524 . S
C3406 H3425 0.913 . S
C3407 H3383 0.950 . S
C3407 C3406 1.524 . S
C3407 C3408 1.415 . S
C3408 H3384 0.950 . S
C3408 C3403 1.363 . S
C3408 C3407 1.415 . S
C3409 H3385 0.951 . S
C3409 C3410 1.366 . S
C3409 C3411 1.388 . S
C3410 C3409 1.366 . S
C3410 C3414 1.385 . S
C3411 H3386 0.951 . S
C3411 C3409 1.388 . S
C3411 C3412 1.366 . S
C3412 C3411 1.366 . S
C3412 C3413 1.414 . S
C3412 C3415 1.499 . S
C3413 H3387 0.950 . S
C3413 C3412 1.414 . S
C3413 C3414 1.374 . S
C3414 H3388 0.950 . S
C3414 C3410 1.385 . S
C3414 C3413 1.374 . S
C3415 C3412 1.499 . S
C3415 C3416 1.373 . S
C3415 C3417 1.389 . S
C3416 H3389 0.950 . S
C3416 C3402 1.377 . S
C3416 C3415 1.373 . S
C3417 C3401 1.377 . S
C3417 C3415 1.389 . S
C3417 C3418 1.524 . S
C3418 C3417 1.524 . S
C3418 C3419 1.397 . S
C3418 C3423 1.363 . S
C3419 H3390 0.950 . S
C3419 C3418 1.397 . S
C3419 C3420 1.334 . S
C3420 H3391 0.950 . S
C3420 C3419 1.334 . S
C3420 C3421 1.287 . S
C3421 C3420 1.287 . S
C3421 C3422 1.524 . S
C3421 H3424 0.999 . S
C3422 H3392 0.950 . S
C3422 C3421 1.524 . S
C3422 C3423 1.415 . S
C3423 H3393 0.950 . S
C3423 C3418 1.363 . S
C3423 C3422 1.415 . S
H3424 C3421 0.999 . S
H3425 C3406 0.913 . S
H3426 C3444 0.951 . S
H3427 C3446 0.951 . S
H3428 C3448 0.950 . S
H3429 C3449 0.950 . S
H3430 C3451 0.950 . S
H3431 C3454 0.950 . S
H3432 C3455 0.950 . S
H3433 C3457 0.950 . S
H3434 C3458 0.950 . S
H3435 C3459 0.951 . S
H3436 C3461 0.951 . S
H3437 C3463 0.950 . S
H3438 C3464 0.950 . S
H3439 C3466 0.950 . S
H3440 C3469 0.950 . S
H3441 C3470 0.950 . S
H3442 C3472 0.950 . S
H3443 C3473 0.950 . S
C3444 H3426 0.951 . S
C3444 C3445 1.366 . S
C3444 C3446 1.388 . S
C3445 C3444 1.366 . S
C3445 C3449 1.385 . S
C3446 H3427 0.951 . S
C3446 C3444 1.388 . S
C3446 C3447 1.366 . S
C3447 C3446 1.366 . S
C3447 C3448 1.414 . S
C3447 C3450 1.499 . S
C3448 H3428 0.950 . S
C3448 C3447 1.414 . S
C3448 C3449 1.374 . S
C3449 H3429 0.950 . S
C3449 C3445 1.385 . S
C3449 C3448 1.374 . S
C3450 C3447 1.499 . S
C3450 C3451 1.373 . S
C3450 C3452 1.389 . S
C3451 H3430 0.950 . S
C3451 C3450 1.373 . S
C3451 C3467 1.377 . S
C3452 C3450 1.389 . S
C3452 C3453 1.524 . S
C3452 C3466 1.377 . S
C3453 C3452 1.524 . S
C3453 C3454 1.397 . S
C3453 C3458 1.363 . S
C3454 H3431 0.950 . S
C3454 C3453 1.397 . S
C3454 C3455 1.334 . S
C3455 H3432 0.950 . S
C3455 C3454 1.334 . S
C3455 C3456 1.287 . S
C3456 C3455 1.287 . S
C3456 C3457 1.524 . S
C3456 H3475 0.913 . S
C3457 H3433 0.950 . S
C3457 C3456 1.524 . S
C3457 C3458 1.415 . S
C3458 H3434 0.950 . S
C3458 C3453 1.363 . S
C3458 C3457 1.415 . S
C3459 H3435 0.951 . S
C3459 C3460 1.366 . S
C3459 C3461 1.388 . S
C3460 C3459 1.366 . S
C3460 C3464 1.385 . S
C3461 H3436 0.951 . S
C3461 C3459 1.388 . S
C3461 C3462 1.366 . S
C3462 C3461 1.366 . S
C3462 C3463 1.414 . S
C3462 C3465 1.499 . S
C3463 H3437 0.950 . S
C3463 C3462 1.414 . S
C3463 C3464 1.374 . S
C3464 H3438 0.950 . S
C3464 C3460 1.385 . S
C3464 C3463 1.374 . S
C3465 C3462 1.499 . S
C3465 C3466 1.373 . S
C3465 C3467 1.389 . S
C3466 H3439 0.950 . S
C3466 C3452 1.377 . S
C3466 C3465 1.373 . S
C3467 C3451 1.377 . S
C3467 C3465 1.389 . S
C3467 C3468 1.524 . S
C3468 C3467 1.524 . S
C3468 C3469 1.397 . S
C3468 C3473 1.363 . S
C3469 H3440 0.950 . S
C3469 C3468 1.397 . S
C3469 C3470 1.334 . S
C3470 H3441 0.950 . S
C3470 C3469 1.334 . S
C3470 C3471 1.287 . S
C3471 C3470 1.287 . S
C3471 C3472 1.524 . S
C3471 H3474 0.999 . S
C3472 H3442 0.950 . S
C3472 C3471 1.524 . S
C3472 C3473 1.415 . S
C3473 H3443 0.950 . S
C3473 C3468 1.363 . S
C3473 C3472 1.415 . S
H3474 C3471 0.999 . S
H3475 C3456 0.913 . S
H3476 C3494 0.951 . S
H3477 C3496 0.951 . S
H3478 C3498 0.950 . S
H3479 C3499 0.950 . S
H3480 C3501 0.950 . S
H3481 C3504 0.950 . S
H3482 C3505 0.950 . S
H3483 C3507 0.950 . S
H3484 C3508 0.950 . S
H3485 C3509 0.951 1_556 S
H3486 C3511 0.951 . S
H3487 C3513 0.950 . S
H3488 C3514 0.950 . S
H3489 C3516 0.950 1_554 S
H3490 C3519 0.950 . S
H3491 C3520 0.950 . S
H3492 C3522 0.950 . S
H3493 C3523 0.950 . S
C3494 H3476 0.951 . S
C3494 C3495 1.366 . S
C3494 C3496 1.388 . S
C3495 C3494 1.366 . S
C3495 C3499 1.385 . S
C3496 H3477 0.951 . S
C3496 C3494 1.388 . S
C3496 C3497 1.366 . S
C3497 C3496 1.366 . S
C3497 C3498 1.414 . S
C3497 C3500 1.499 . S
C3498 H3478 0.950 . S
C3498 C3497 1.414 . S
C3498 C3499 1.374 . S
C3499 H3479 0.950 . S
C3499 C3495 1.385 . S
C3499 C3498 1.374 . S
C3500 C3497 1.499 . S
C3500 C3501 1.373 . S
C3500 C3502 1.389 . S
C3501 H3480 0.950 . S
C3501 C3500 1.373 . S
C3501 C3517 1.377 . S
C3502 C3500 1.389 . S
C3502 C3503 1.524 . S
C3502 C3516 1.377 . S
C3503 C3502 1.524 . S
C3503 C3504 1.397 1_455 S
C3503 C3508 1.363 1_556 S
C3504 H3481 0.950 . S
C3504 C3503 1.397 1_655 S
C3504 C3505 1.334 . S
C3505 H3482 0.950 . S
C3505 C3504 1.334 . S
C3505 C3506 1.287 . S
C3506 C3505 1.287 . S
C3506 C3507 1.524 1_556 S
C3506 H3525 0.913 . S
C3507 H3483 0.950 . S
C3507 C3506 1.524 1_554 S
C3507 C3508 1.415 1_655 S
C3508 H3484 0.950 . S
C3508 C3503 1.363 1_554 S
C3508 C3507 1.415 1_455 S
C3509 H3485 0.951 1_554 S
C3509 C3510 1.366 . S
C3509 C3511 1.388 1_554 S
C3510 C3509 1.366 . S
C3510 C3514 1.385 . S
C3511 H3486 0.951 . S
C3511 C3509 1.388 1_556 S
C3511 C3512 1.338 1_556 S
C3512 C3511 1.338 1_554 S
C3512 C3513 1.469 . S
C3512 C3515 1.475 1_554 S
C3513 H3487 0.950 . S
C3513 C3512 1.469 . S
C3513 C3514 1.374 . S
C3514 H3488 0.950 . S
C3514 C3510 1.385 . S
C3514 C3513 1.374 . S
C3515 C3512 1.475 1_556 S
C3515 C3516 1.373 . S
C3515 C3517 1.389 . S
C3516 H3489 0.950 1_556 S
C3516 C3502 1.377 . S
C3516 C3515 1.373 . S
C3517 C3501 1.377 . S
C3517 C3515 1.389 . S
C3517 C3518 1.524 . S
C3518 C3517 1.524 . S
C3518 C3519 1.397 . S
C3518 C3523 1.363 . S
C3519 H3490 0.950 . S
C3519 C3518 1.397 . S
C3519 C3520 1.334 . S
C3520 H3491 0.950 . S
C3520 C3519 1.334 . S
C3520 C3521 1.287 . S
C3521 C3520 1.287 . S
C3521 C3522 1.524 . S
C3521 H3524 0.999 . S
C3522 H3492 0.950 . S
C3522 C3521 1.524 . S
C3522 C3523 1.415 . S
C3523 H3493 0.950 . S
C3523 C3518 1.363 . S
C3523 C3522 1.415 . S
H3524 C3521 0.999 . S
H3525 C3506 0.913 . S
H3526 C3544 0.951 . S
H3527 C3546 0.951 . S
H3528 C3548 0.950 . S
H3529 C3549 0.950 . S
H3530 C3551 0.950 . S
H3531 C3554 0.950 . S
H3532 C3555 0.950 . S
H3533 C3557 0.950 . S
H3534 C3558 0.950 . S
H3535 C3559 0.951 . S
H3536 C3561 0.951 . S
H3537 C3563 0.950 . S
H3538 C3564 0.950 . S
H3539 C3566 0.950 . S
H3540 C3569 0.950 . S
H3541 C3570 0.950 . S
H3542 C3572 0.950 . S
H3543 C3573 0.950 . S
C3544 H3526 0.951 . S
C3544 C3545 1.366 . S
C3544 C3546 1.388 . S
C3545 C3544 1.366 . S
C3545 C3549 1.385 . S
C3546 H3527 0.951 . S
C3546 C3544 1.388 . S
C3546 C3547 1.366 . S
C3547 C3546 1.366 . S
C3547 C3548 1.414 . S
C3547 C3550 1.499 . S
C3548 H3528 0.950 . S
C3548 C3547 1.414 . S
C3548 C3549 1.374 . S
C3549 H3529 0.950 . S
C3549 C3545 1.385 . S
C3549 C3548 1.374 . S
C3550 C3547 1.499 . S
C3550 C3551 1.373 . S
C3550 C3552 1.389 . S
C3551 H3530 0.950 . S
C3551 C3550 1.373 . S
C3551 C3567 1.377 . S
C3552 C3550 1.389 . S
C3552 C3553 1.524 . S
C3552 C3566 1.377 . S
C3553 C3552 1.524 . S
C3553 C3554 1.397 . S
C3553 C3558 1.363 . S
C3554 H3531 0.950 . S
C3554 C3553 1.397 . S
C3554 C3555 1.334 . S
C3555 H3532 0.950 . S
C3555 C3554 1.334 . S
C3555 C3556 1.287 . S
C3556 C3555 1.287 . S
C3556 C3557 1.524 . S
C3556 H3575 0.913 . S
C3557 H3533 0.950 . S
C3557 C3556 1.524 . S
C3557 C3558 1.415 . S
C3558 H3534 0.950 . S
C3558 C3553 1.363 . S
C3558 C3557 1.415 . S
C3559 H3535 0.951 . S
C3559 C3560 1.366 . S
C3559 C3561 1.388 . S
C3560 C3559 1.366 . S
C3560 C3564 1.385 . S
C3561 H3536 0.951 . S
C3561 C3559 1.388 . S
C3561 C3562 1.366 . S
C3562 C3561 1.366 . S
C3562 C3563 1.414 . S
C3562 C3565 1.499 . S
C3563 H3537 0.950 . S
C3563 C3562 1.414 . S
C3563 C3564 1.374 . S
C3564 H3538 0.950 . S
C3564 C3560 1.385 . S
C3564 C3563 1.374 . S
C3565 C3562 1.499 . S
C3565 C3566 1.373 . S
C3565 C3567 1.389 . S
C3566 H3539 0.950 . S
C3566 C3552 1.377 . S
C3566 C3565 1.373 . S
C3567 C3551 1.377 . S
C3567 C3565 1.389 . S
C3567 C3568 1.524 . S
C3568 C3567 1.524 . S
C3568 C3569 1.397 . S
C3568 C3573 1.363 . S
C3569 H3540 0.950 . S
C3569 C3568 1.397 . S
C3569 C3570 1.334 . S
C3570 H3541 0.950 . S
C3570 C3569 1.334 . S
C3570 C3571 1.287 . S
C3571 C3570 1.287 . S
C3571 C3572 1.524 . S
C3571 H3574 0.999 . S
C3572 H3542 0.950 . S
C3572 C3571 1.524 . S
C3572 C3573 1.415 . S
C3573 H3543 0.950 . S
C3573 C3568 1.363 . S
C3573 C3572 1.415 . S
H3574 C3571 0.999 . S
H3575 C3556 0.913 . S
H3576 C3594 0.951 . S
H3577 C3596 0.951 . S
H3578 C3598 0.950 . S
H3579 C3599 0.950 . S
H3580 C3601 0.950 . S
H3581 C3604 0.950 . S
H3582 C3605 0.950 . S
H3583 C3607 0.950 . S
H3584 C3608 0.950 . S
H3585 C3609 0.951 . S
H3586 C3611 0.951 . S
H3587 C3613 0.950 . S
H3588 C3614 0.950 . S
H3589 C3616 0.950 . S
H3590 C3619 0.950 . S
H3591 C3620 0.950 . S
H3592 C3622 0.950 . S
H3593 C3623 0.950 . S
C3594 H3576 0.951 . S
C3594 C3595 1.366 . S
C3594 C3596 1.388 . S
C3595 C3594 1.366 . S
C3595 C3599 1.385 . S
C3596 H3577 0.951 . S
C3596 C3594 1.388 . S
C3596 C3597 1.366 . S
C3597 C3596 1.366 . S
C3597 C3598 1.414 . S
C3597 C3600 1.499 . S
C3598 H3578 0.950 . S
C3598 C3597 1.414 . S
C3598 C3599 1.374 . S
C3599 H3579 0.950 . S
C3599 C3595 1.385 . S
C3599 C3598 1.374 . S
C3600 C3597 1.499 . S
C3600 C3601 1.373 . S
C3600 C3602 1.389 . S
C3601 H3580 0.950 . S
C3601 C3600 1.373 . S
C3601 C3617 1.377 . S
C3602 C3600 1.389 . S
C3602 C3603 1.524 . S
C3602 C3616 1.377 . S
C3603 C3602 1.524 . S
C3603 C3604 1.397 . S
C3603 C3608 1.363 . S
C3604 H3581 0.950 . S
C3604 C3603 1.397 . S
C3604 C3605 1.334 . S
C3605 H3582 0.950 . S
C3605 C3604 1.334 . S
C3605 C3606 1.287 . S
C3606 C3605 1.287 . S
C3606 C3607 1.524 . S
C3606 H3625 0.913 . S
C3607 H3583 0.950 . S
C3607 C3606 1.524 . S
C3607 C3608 1.415 . S
C3608 H3584 0.950 . S
C3608 C3603 1.363 . S
C3608 C3607 1.415 . S
C3609 H3585 0.951 . S
C3609 C3610 1.366 . S
C3609 C3611 1.388 . S
C3610 C3609 1.366 . S
C3610 C3614 1.385 . S
C3611 H3586 0.951 . S
C3611 C3609 1.388 . S
C3611 C3612 1.366 . S
C3612 C3611 1.366 . S
C3612 C3613 1.414 . S
C3612 C3615 1.499 . S
C3613 H3587 0.950 . S
C3613 C3612 1.414 . S
C3613 C3614 1.374 . S
C3614 H3588 0.950 . S
C3614 C3610 1.385 . S
C3614 C3613 1.374 . S
C3615 C3612 1.499 . S
C3615 C3616 1.373 . S
C3615 C3617 1.389 . S
C3616 H3589 0.950 . S
C3616 C3602 1.377 . S
C3616 C3615 1.373 . S
C3617 C3601 1.377 . S
C3617 C3615 1.389 . S
C3617 C3618 1.524 . S
C3618 C3617 1.524 . S
C3618 C3619 1.397 . S
C3618 C3623 1.363 . S
C3619 H3590 0.950 . S
C3619 C3618 1.397 . S
C3619 C3620 1.334 . S
C3620 H3591 0.950 . S
C3620 C3619 1.334 . S
C3620 C3621 1.287 . S
C3621 C3620 1.287 . S
C3621 C3622 1.524 . S
C3621 H3624 0.999 . S
C3622 H3592 0.950 . S
C3622 C3621 1.524 . S
C3622 C3623 1.415 . S
C3623 H3593 0.950 . S
C3623 C3618 1.363 . S
C3623 C3622 1.415 . S
H3624 C3621 0.999 . S
H3625 C3606 0.913 . S
H3626 C3644 0.951 . S
H3627 C3646 0.951 . S
H3628 C3648 0.950 . S
H3629 C3649 0.950 . S
H3630 C3651 0.950 . S
H3631 C3654 0.950 . S
H3632 C3655 0.950 . S
H3633 C3657 0.950 . S
H3634 C3658 0.950 . S
H3635 C3659 0.951 . S
H3636 C3661 0.951 . S
H3637 C3663 0.950 . S
H3638 C3664 0.950 . S
H3639 C3666 0.950 . S
H3640 C3669 0.950 . S
H3641 C3670 0.950 . S
H3642 C3672 0.950 . S
H3643 C3673 0.950 . S
C3644 H3626 0.951 . S
C3644 C3645 1.366 1_655 S
C3644 C3646 1.388 . S
C3645 C3644 1.366 1_455 S
C3645 C3649 1.385 . S
C3646 H3627 0.951 . S
C3646 C3644 1.388 . S
C3646 C3647 1.366 . S
C3647 C3646 1.366 . S
C3647 C3648 1.414 . S
C3647 C3650 1.499 . S
C3648 H3628 0.950 . S
C3648 C3647 1.414 . S
C3648 C3649 1.374 1_655 S
C3649 H3629 0.950 . S
C3649 C3645 1.385 . S
C3649 C3648 1.374 1_455 S
C3650 C3647 1.499 . S
C3650 C3651 1.373 . S
C3650 C3652 1.389 . S
C3651 H3630 0.950 . S
C3651 C3650 1.373 . S
C3651 C3667 1.377 . S
C3652 C3650 1.389 . S
C3652 C3653 1.524 . S
C3652 C3666 1.377 . S
C3653 C3652 1.524 . S
C3653 C3654 1.397 . S
C3653 C3658 1.363 . S
C3654 H3631 0.950 . S
C3654 C3653 1.397 . S
C3654 C3655 1.334 . S
C3655 H3632 0.950 . S
C3655 C3654 1.334 . S
C3655 C3656 1.287 . S
C3656 C3655 1.287 . S
C3656 C3657 1.524 . S
C3656 H3675 0.913 . S
C3657 H3633 0.950 . S
C3657 C3656 1.524 . S
C3657 C3658 1.415 . S
C3658 H3634 0.950 . S
C3658 C3653 1.363 . S
C3658 C3657 1.415 . S
C3659 H3635 0.951 . S
C3659 C3660 1.366 . S
C3659 C3661 1.388 . S
C3660 C3659 1.366 . S
C3660 C3664 1.385 . S
C3661 H3636 0.951 . S
C3661 C3659 1.388 . S
C3661 C3662 1.366 . S
C3662 C3661 1.366 . S
C3662 C3663 1.414 . S
C3662 C3665 1.499 . S
C3663 H3637 0.950 . S
C3663 C3662 1.414 . S
C3663 C3664 1.374 . S
C3664 H3638 0.950 . S
C3664 C3660 1.385 . S
C3664 C3663 1.374 . S
C3665 C3662 1.499 . S
C3665 C3666 1.373 . S
C3665 C3667 1.389 . S
C3666 H3639 0.950 . S
C3666 C3652 1.377 . S
C3666 C3665 1.373 . S
C3667 C3651 1.377 . S
C3667 C3665 1.389 . S
C3667 C3668 1.524 . S
C3668 C3667 1.524 . S
C3668 C3669 1.397 . S
C3668 C3673 1.363 . S
C3669 H3640 0.950 . S
C3669 C3668 1.397 . S
C3669 C3670 1.334 . S
C3670 H3641 0.950 . S
C3670 C3669 1.334 . S
C3670 C3671 1.287 . S
C3671 C3670 1.287 . S
C3671 C3672 1.524 . S
C3671 H3674 0.999 . S
C3672 H3642 0.950 . S
C3672 C3671 1.524 . S
C3672 C3673 1.415 . S
C3673 H3643 0.950 . S
C3673 C3668 1.363 . S
C3673 C3672 1.415 . S
H3674 C3671 0.999 . S
H3675 C3656 0.913 . S
H3676 C3694 0.951 . S
H3677 C3696 0.951 . S
H3678 C3698 0.950 . S
H3679 C3699 0.950 . S
H3680 C3701 0.950 . S
H3681 C3704 0.950 . S
H3682 C3705 0.950 . S
H3683 C3707 0.950 . S
H3684 C3708 0.950 . S
H3685 C3709 0.951 . S
H3686 C3711 0.951 . S
H3687 C3713 0.950 . S
H3688 C3714 0.950 . S
H3689 C3716 0.950 . S
H3690 C3719 0.950 . S
H3691 C3720 0.950 . S
H3692 C3722 0.950 . S
H3693 C3723 0.950 . S
C3694 H3676 0.951 . S
C3694 C3695 1.366 1_455 S
C3694 C3696 1.388 . S
C3695 C3694 1.366 1_655 S
C3695 C3699 1.385 . S
C3696 H3677 0.951 . S
C3696 C3694 1.388 . S
C3696 C3697 1.366 1_455 S
C3697 C3696 1.366 1_655 S
C3697 C3698 1.414 . S
C3697 C3700 1.481 1_655 S
C3698 H3678 0.950 . S
C3698 C3697 1.414 . S
C3698 C3699 1.374 . S
C3699 H3679 0.950 . S
C3699 C3695 1.385 . S
C3699 C3698 1.374 . S
C3700 C3697 1.481 1_455 S
C3700 C3701 1.343 1_455 S
C3700 C3702 1.440 . S
C3701 H3680 0.950 . S
C3701 C3700 1.343 1_655 S
C3701 C3717 1.377 . S
C3702 C3700 1.440 . S
C3702 C3703 1.524 . S
C3702 C3716 1.377 . S
C3703 C3702 1.524 . S
C3703 C3704 1.397 . S
C3703 C3708 1.363 . S
C3704 H3681 0.950 . S
C3704 C3703 1.397 . S
C3704 C3705 1.334 . S
C3705 H3682 0.950 . S
C3705 C3704 1.334 . S
C3705 C3706 1.287 . S
C3706 C3705 1.287 . S
C3706 C3707 1.524 . S
C3706 H3725 0.913 . S
C3707 H3683 0.950 . S
C3707 C3706 1.524 . S
C3707 C3708 1.415 . S
C3708 H3684 0.950 . S
C3708 C3703 1.363 . S
C3708 C3707 1.415 . S
C3709 H3685 0.951 . S
C3709 C3710 1.366 1_655 S
C3709 C3711 1.388 . S
C3710 C3709 1.366 1_455 S
C3710 C3714 1.385 . S
C3711 H3686 0.951 . S
C3711 C3709 1.388 . S
C3711 C3712 1.366 1_655 S
C3712 C3711 1.366 1_455 S
C3712 C3713 1.414 . S
C3712 C3715 1.499 . S
C3713 H3687 0.950 . S
C3713 C3712 1.414 . S
C3713 C3714 1.374 . S
C3714 H3688 0.950 . S
C3714 C3710 1.385 . S
C3714 C3713 1.374 . S
C3715 C3712 1.499 . S
C3715 C3716 1.373 . S
C3715 C3717 1.389 1_455 S
C3716 H3689 0.950 . S
C3716 C3702 1.377 . S
C3716 C3715 1.373 . S
C3717 C3701 1.377 . S
C3717 C3715 1.389 1_655 S
C3717 C3718 1.524 . S
C3718 C3717 1.524 . S
C3718 C3719 1.397 . S
C3718 C3723 1.363 . S
C3719 H3690 0.950 . S
C3719 C3718 1.397 . S
C3719 C3720 1.334 . S
C3720 H3691 0.950 . S
C3720 C3719 1.334 . S
C3720 C3721 1.287 . S
C3721 C3720 1.287 . S
C3721 C3722 1.524 . S
C3721 H3724 0.999 . S
C3722 H3692 0.950 . S
C3722 C3721 1.524 . S
C3722 C3723 1.415 . S
C3723 H3693 0.950 . S
C3723 C3718 1.363 . S
C3723 C3722 1.415 . S
H3724 C3721 0.999 . S
H3725 C3706 0.913 . S
H3726 C3744 0.951 . S
H3727 C3746 0.951 . S
H3728 C3748 0.950 . S
H3729 C3749 0.950 . S
H3730 C3751 0.950 . S
H3731 C3754 0.950 . S
H3732 C3755 0.950 . S
H3733 C3757 0.950 . S
H3734 C3758 0.950 . S
H3735 C3759 0.951 . S
H3736 C3761 0.951 . S
H3737 C3763 0.950 . S
H3738 C3764 0.950 . S
H3739 C3766 0.950 . S
H3740 C3769 0.950 . S
H3741 C3770 0.950 . S
H3742 C3772 0.950 . S
H3743 C3773 0.950 . S
C3744 H3726 0.951 . S
C3744 C3745 1.366 . S
C3744 C3746 1.388 . S
C3745 C3744 1.366 . S
C3745 C3749 1.385 . S
C3746 H3727 0.951 . S
C3746 C3744 1.388 . S
C3746 C3747 1.366 . S
C3747 C3746 1.366 . S
C3747 C3748 1.414 . S
C3747 C3750 1.499 . S
C3748 H3728 0.950 . S
C3748 C3747 1.414 . S
C3748 C3749 1.374 . S
C3749 H3729 0.950 . S
C3749 C3745 1.385 . S
C3749 C3748 1.374 . S
C3750 C3747 1.499 . S
C3750 C3751 1.373 . S
C3750 C3752 1.389 . S
C3751 H3730 0.950 . S
C3751 C3750 1.373 . S
C3751 C3767 1.377 . S
C3752 C3750 1.389 . S
C3752 C3753 1.524 . S
C3752 C3766 1.377 . S
C3753 C3752 1.524 . S
C3753 C3754 1.397 . S
C3753 C3758 1.363 . S
C3754 H3731 0.950 . S
C3754 C3753 1.397 . S
C3754 C3755 1.334 . S
C3755 H3732 0.950 . S
C3755 C3754 1.334 . S
C3755 C3756 1.287 . S
C3756 C3755 1.287 . S
C3756 C3757 1.524 . S
C3756 H3775 0.913 . S
C3757 H3733 0.950 . S
C3757 C3756 1.524 . S
C3757 C3758 1.415 . S
C3758 H3734 0.950 . S
C3758 C3753 1.363 . S
C3758 C3757 1.415 . S
C3759 H3735 0.951 . S
C3759 C3760 1.366 . S
C3759 C3761 1.388 . S
C3760 C3759 1.366 . S
C3760 C3764 1.385 . S
C3761 H3736 0.951 . S
C3761 C3759 1.388 . S
C3761 C3762 1.366 . S
C3762 C3761 1.366 . S
C3762 C3763 1.414 . S
C3762 C3765 1.499 . S
C3763 H3737 0.950 . S
C3763 C3762 1.414 . S
C3763 C3764 1.374 . S
C3764 H3738 0.950 . S
C3764 C3760 1.385 . S
C3764 C3763 1.374 . S
C3765 C3762 1.499 . S
C3765 C3766 1.373 . S
C3765 C3767 1.389 . S
C3766 H3739 0.950 . S
C3766 C3752 1.377 . S
C3766 C3765 1.373 . S
C3767 C3751 1.377 . S
C3767 C3765 1.389 . S
C3767 C3768 1.524 . S
C3768 C3767 1.524 . S
C3768 C3769 1.397 . S
C3768 C3773 1.363 . S
C3769 H3740 0.950 . S
C3769 C3768 1.397 . S
C3769 C3770 1.334 . S
C3770 H3741 0.950 . S
C3770 C3769 1.334 . S
C3770 C3771 1.287 . S
C3771 C3770 1.287 . S
C3771 C3772 1.524 . S
C3771 H3774 0.999 . S
C3772 H3742 0.950 . S
C3772 C3771 1.524 . S
C3772 C3773 1.415 . S
C3773 H3743 0.950 . S
C3773 C3768 1.363 . S
C3773 C3772 1.415 . S
H3774 C3771 0.999 . S
H3775 C3756 0.913 . S
H3776 C3794 0.951 . S
H3777 C3796 0.951 . S
H3778 C3798 0.950 . S
H3779 C3799 0.950 . S
H3780 C3801 0.950 . S
H3781 C3804 0.950 . S
H3782 C3805 0.950 . S
H3783 C3807 0.950 . S
H3784 C3808 0.950 . S
H3785 C3809 0.951 . S
H3786 C3811 0.951 . S
H3787 C3813 0.950 . S
H3788 C3814 0.950 . S
H3789 C3816 0.950 . S
H3790 C3819 0.950 . S
H3791 C3820 0.950 . S
H3792 C3822 0.950 . S
H3793 C3823 0.950 . S
C3794 H3776 0.951 . S
C3794 C3795 1.366 . S
C3794 C3796 1.388 . S
C3795 C3794 1.366 . S
C3795 C3799 1.385 . S
C3796 H3777 0.951 . S
C3796 C3794 1.388 . S
C3796 C3797 1.366 . S
C3797 C3796 1.366 . S
C3797 C3798 1.414 . S
C3797 C3800 1.499 . S
C3798 H3778 0.950 . S
C3798 C3797 1.414 . S
C3798 C3799 1.374 . S
C3799 H3779 0.950 . S
C3799 C3795 1.385 . S
C3799 C3798 1.374 . S
C3800 C3797 1.499 . S
C3800 C3801 1.373 . S
C3800 C3802 1.389 . S
C3801 H3780 0.950 . S
C3801 C3800 1.373 . S
C3801 C3817 1.377 . S
C3802 C3800 1.389 . S
C3802 C3803 1.524 . S
C3802 C3816 1.377 . S
C3803 C3802 1.524 . S
C3803 C3804 1.397 . S
C3803 C3808 1.363 . S
C3804 H3781 0.950 . S
C3804 C3803 1.397 . S
C3804 C3805 1.334 . S
C3805 H3782 0.950 . S
C3805 C3804 1.334 . S
C3805 C3806 1.287 . S
C3806 C3805 1.287 . S
C3806 C3807 1.524 . S
C3806 H3825 0.913 . S
C3807 H3783 0.950 . S
C3807 C3806 1.524 . S
C3807 C3808 1.415 . S
C3808 H3784 0.950 . S
C3808 C3803 1.363 . S
C3808 C3807 1.415 . S
C3809 H3785 0.951 . S
C3809 C3810 1.366 . S
C3809 C3811 1.388 . S
C3810 C3809 1.366 . S
C3810 C3814 1.385 . S
C3811 H3786 0.951 . S
C3811 C3809 1.388 . S
C3811 C3812 1.366 . S
C3812 C3811 1.366 . S
C3812 C3813 1.414 . S
C3812 C3815 1.499 . S
C3813 H3787 0.950 . S
C3813 C3812 1.414 . S
C3813 C3814 1.374 . S
C3814 H3788 0.950 . S
C3814 C3810 1.385 . S
C3814 C3813 1.374 . S
C3815 C3812 1.499 . S
C3815 C3816 1.373 . S
C3815 C3817 1.389 . S
C3816 H3789 0.950 . S
C3816 C3802 1.377 . S
C3816 C3815 1.373 . S
C3817 C3801 1.377 . S
C3817 C3815 1.389 . S
C3817 C3818 1.524 . S
C3818 C3817 1.524 . S
C3818 C3819 1.397 . S
C3818 C3823 1.363 . S
C3819 H3790 0.950 . S
C3819 C3818 1.397 . S
C3819 C3820 1.334 . S
C3820 H3791 0.950 . S
C3820 C3819 1.334 . S
C3820 C3821 1.287 . S
C3821 C3820 1.287 . S
C3821 C3822 1.524 . S
C3821 H3824 0.999 . S
C3822 H3792 0.950 . S
C3822 C3821 1.524 . S
C3822 C3823 1.415 . S
C3823 H3793 0.950 . S
C3823 C3818 1.363 . S
C3823 C3822 1.415 . S
H3824 C3821 0.999 . S
H3825 C3806 0.913 . S
H3826 C3844 0.951 . S
H3827 C3846 0.951 . S
H3828 C3848 0.950 . S
H3829 C3849 0.950 . S
H3830 C3851 0.950 . S
H3831 C3854 0.950 . S
H3832 C3855 0.950 . S
H3833 C3857 0.950 . S
H3834 C3858 0.950 . S
H3835 C3859 0.951 . S
H3836 C3861 0.951 . S
H3837 C3863 0.950 . S
H3838 C3864 0.950 . S
H3839 C3866 0.950 . S
H3840 C3869 0.950 . S
H3841 C3870 0.950 . S
H3842 C3872 0.950 . S
H3843 C3873 0.950 . S
C3844 H3826 0.951 . S
C3844 C3845 1.366 . S
C3844 C3846 1.388 . S
C3845 C3844 1.366 . S
C3845 C3849 1.385 . S
C3846 H3827 0.951 . S
C3846 C3844 1.388 . S
C3846 C3847 1.366 . S
C3847 C3846 1.366 . S
C3847 C3848 1.414 . S
C3847 C3850 1.499 . S
C3848 H3828 0.950 . S
C3848 C3847 1.414 . S
C3848 C3849 1.374 . S
C3849 H3829 0.950 . S
C3849 C3845 1.385 . S
C3849 C3848 1.374 . S
C3850 C3847 1.499 . S
C3850 C3851 1.373 . S
C3850 C3852 1.389 . S
C3851 H3830 0.950 . S
C3851 C3850 1.373 . S
C3851 C3867 1.377 . S
C3852 C3850 1.389 . S
C3852 C3853 1.524 . S
C3852 C3866 1.377 . S
C3853 C3852 1.524 . S
C3853 C3854 1.397 . S
C3853 C3858 1.363 . S
C3854 H3831 0.950 . S
C3854 C3853 1.397 . S
C3854 C3855 1.334 . S
C3855 H3832 0.950 . S
C3855 C3854 1.334 . S
C3855 C3856 1.287 . S
C3856 C3855 1.287 . S
C3856 C3857 1.524 . S
C3856 H3875 0.913 . S
C3857 H3833 0.950 . S
C3857 C3856 1.524 . S
C3857 C3858 1.415 . S
C3858 H3834 0.950 . S
C3858 C3853 1.363 . S
C3858 C3857 1.415 . S
C3859 H3835 0.951 . S
C3859 C3860 1.366 . S
C3859 C3861 1.388 . S
C3860 C3859 1.366 . S
C3860 C3864 1.385 . S
C3861 H3836 0.951 . S
C3861 C3859 1.388 . S
C3861 C3862 1.366 . S
C3862 C3861 1.366 . S
C3862 C3863 1.414 . S
C3862 C3865 1.499 . S
C3863 H3837 0.950 . S
C3863 C3862 1.414 . S
C3863 C3864 1.374 . S
C3864 H3838 0.950 . S
C3864 C3860 1.385 . S
C3864 C3863 1.374 . S
C3865 C3862 1.499 . S
C3865 C3866 1.373 . S
C3865 C3867 1.389 . S
C3866 H3839 0.950 . S
C3866 C3852 1.377 . S
C3866 C3865 1.373 . S
C3867 C3851 1.377 . S
C3867 C3865 1.389 . S
C3867 C3868 1.524 . S
C3868 C3867 1.524 . S
C3868 C3869 1.397 . S
C3868 C3873 1.363 . S
C3869 H3840 0.950 . S
C3869 C3868 1.397 . S
C3869 C3870 1.334 . S
C3870 H3841 0.950 . S
C3870 C3869 1.334 . S
C3870 C3871 1.287 . S
C3871 C3870 1.287 . S
C3871 C3872 1.524 . S
C3871 H3874 0.999 . S
C3872 H3842 0.950 . S
C3872 C3871 1.524 . S
C3872 C3873 1.415 . S
C3873 H3843 0.950 . S
C3873 C3868 1.363 . S
C3873 C3872 1.415 . S
H3874 C3871 0.999 . S
H3875 C3856 0.913 . S
H3876 C3894 0.951 . S
H3877 C3896 0.951 . S
H3878 C3898 0.950 . S
H3879 C3899 0.950 . S
H3880 C3901 0.950 . S
H3881 C3904 0.950 . S
H3882 C3905 0.950 . S
H3883 C3907 0.950 . S
H3884 C3908 0.950 . S
H3885 C3909 0.951 . S
H3886 C3911 0.951 . S
H3887 C3913 0.950 . S
H3888 C3914 0.950 . S
H3889 C3916 0.950 . S
H3890 C3919 0.950 . S
H3891 C3920 0.950 1_655 S
H3892 C3922 0.950 . S
H3893 C3923 0.950 . S
C3894 H3876 0.951 . S
C3894 C3895 1.366 . S
C3894 C3896 1.388 . S
C3895 C3894 1.366 . S
C3895 C3899 1.385 . S
C3896 H3877 0.951 . S
C3896 C3894 1.388 . S
C3896 C3897 1.366 . S
C3897 C3896 1.366 . S
C3897 C3898 1.414 . S
C3897 C3900 1.499 . S
C3898 H3878 0.950 . S
C3898 C3897 1.414 . S
C3898 C3899 1.374 . S
C3899 H3879 0.950 . S
C3899 C3895 1.385 . S
C3899 C3898 1.374 . S
C3900 C3897 1.499 . S
C3900 C3901 1.373 . S
C3900 C3902 1.389 . S
C3901 H3880 0.950 . S
C3901 C3900 1.373 . S
C3901 C3917 1.377 . S
C3902 C3900 1.389 . S
C3902 C3903 1.524 . S
C3902 C3916 1.377 . S
C3903 C3902 1.524 . S
C3903 C3904 1.397 . S
C3903 C3908 1.363 . S
C3904 H3881 0.950 . S
C3904 C3903 1.397 . S
C3904 C3905 1.334 . S
C3905 H3882 0.950 . S
C3905 C3904 1.334 . S
C3905 C3906 1.287 . S
C3906 C3905 1.287 . S
C3906 C3907 1.524 . S
C3906 H3925 0.913 . S
C3907 H3883 0.950 . S
C3907 C3906 1.524 . S
C3907 C3908 1.415 . S
C3908 H3884 0.950 . S
C3908 C3903 1.363 . S
C3908 C3907 1.415 . S
C3909 H3885 0.951 . S
C3909 C3910 1.366 . S
C3909 C3911 1.388 . S
C3910 C3909 1.366 . S
C3910 C3914 1.385 . S
C3911 H3886 0.951 . S
C3911 C3909 1.388 . S
C3911 C3912 1.366 . S
C3912 C3911 1.366 . S
C3912 C3913 1.414 . S
C3912 C3915 1.499 . S
C3913 H3887 0.950 . S
C3913 C3912 1.414 . S
C3913 C3914 1.374 . S
C3914 H3888 0.950 . S
C3914 C3910 1.385 . S
C3914 C3913 1.374 . S
C3915 C3912 1.499 . S
C3915 C3916 1.373 . S
C3915 C3917 1.389 . S
C3916 H3889 0.950 . S
C3916 C3902 1.377 . S
C3916 C3915 1.373 . S
C3917 C3901 1.377 . S
C3917 C3915 1.389 . S
C3917 C3918 1.524 . S
C3918 C3917 1.524 . S
C3918 C3919 1.397 . S
C3918 C3923 1.363 . S
C3919 H3890 0.950 . S
C3919 C3918 1.397 . S
C3919 C3920 1.334 . S
C3920 H3891 0.950 1_455 S
C3920 C3919 1.334 . S
C3920 C3921 1.287 . S
C3921 C3920 1.287 . S
C3921 C3922 1.524 . S
C3921 H3924 0.999 . S
C3922 H3892 0.950 . S
C3922 C3921 1.524 . S
C3922 C3923 1.415 . S
C3923 H3893 0.950 . S
C3923 C3918 1.363 . S
C3923 C3922 1.415 . S
H3924 C3921 0.999 . S
H3925 C3906 0.913 . S
H3926 C3944 0.951 . S
H3927 C3946 0.951 . S
H3928 C3948 0.950 . S
H3929 C3949 0.950 . S
H3930 C3951 0.950 . S
H3931 C3954 0.950 . S
H3932 C3955 0.950 . S
H3933 C3957 0.950 . S
H3934 C3958 0.950 . S
H3935 C3959 0.951 . S
H3936 C3961 0.951 . S
H3937 C3963 0.950 . S
H3938 C3964 0.950 . S
H3939 C3966 0.950 . S
H3940 C3969 0.950 . S
H3941 C3970 0.950 . S
H3942 C3972 0.950 . S
H3943 C3973 0.950 . S
C3944 H3926 0.951 . S
C3944 C3945 1.366 . S
C3944 C3946 1.388 . S
C3945 C3944 1.366 . S
C3945 C3949 1.385 . S
C3946 H3927 0.951 . S
C3946 C3944 1.388 . S
C3946 C3947 1.366 . S
C3947 C3946 1.366 . S
C3947 C3948 1.414 . S
C3947 C3950 1.499 . S
C3948 H3928 0.950 . S
C3948 C3947 1.414 . S
C3948 C3949 1.374 . S
C3949 H3929 0.950 . S
C3949 C3945 1.385 . S
C3949 C3948 1.374 . S
C3950 C3947 1.499 . S
C3950 C3951 1.373 . S
C3950 C3952 1.389 . S
C3951 H3930 0.950 . S
C3951 C3950 1.373 . S
C3951 C3967 1.377 . S
C3952 C3950 1.389 . S
C3952 C3953 1.524 . S
C3952 C3966 1.377 . S
C3953 C3952 1.524 . S
C3953 C3954 1.397 . S
C3953 C3958 1.363 . S
C3954 H3931 0.950 . S
C3954 C3953 1.397 . S
C3954 C3955 1.334 . S
C3955 H3932 0.950 . S
C3955 C3954 1.334 . S
C3955 C3956 1.287 . S
C3956 C3955 1.287 . S
C3956 C3957 1.524 . S
C3956 H3975 0.913 . S
C3957 H3933 0.950 . S
C3957 C3956 1.524 . S
C3957 C3958 1.415 . S
C3958 H3934 0.950 . S
C3958 C3953 1.363 . S
C3958 C3957 1.415 . S
C3959 H3935 0.951 . S
C3959 C3960 1.366 . S
C3959 C3961 1.388 . S
C3960 C3959 1.366 . S
C3960 C3964 1.385 . S
C3961 H3936 0.951 . S
C3961 C3959 1.388 . S
C3961 C3962 1.366 . S
C3962 C3961 1.366 . S
C3962 C3963 1.414 . S
C3962 C3965 1.499 . S
C3963 H3937 0.950 . S
C3963 C3962 1.414 . S
C3963 C3964 1.374 . S
C3964 H3938 0.950 . S
C3964 C3960 1.385 . S
C3964 C3963 1.374 . S
C3965 C3962 1.499 . S
C3965 C3966 1.373 . S
C3965 C3967 1.389 . S
C3966 H3939 0.950 . S
C3966 C3952 1.377 . S
C3966 C3965 1.373 . S
C3967 C3951 1.377 . S
C3967 C3965 1.389 . S
C3967 C3968 1.524 . S
C3968 C3967 1.524 . S
C3968 C3969 1.397 . S
C3968 C3973 1.363 . S
C3969 H3940 0.950 . S
C3969 C3968 1.397 . S
C3969 C3970 1.334 . S
C3970 H3941 0.950 . S
C3970 C3969 1.334 . S
C3970 C3971 1.287 . S
C3971 C3970 1.287 . S
C3971 C3972 1.524 . S
C3971 H3974 0.999 . S
C3972 H3942 0.950 . S
C3972 C3971 1.524 . S
C3972 C3973 1.415 . S
C3973 H3943 0.950 . S
C3973 C3968 1.363 . S
C3973 C3972 1.415 . S
H3974 C3971 0.999 . S
H3975 C3956 0.913 . S
H3976 C3994 0.951 . S
H3977 C3996 0.951 . S
H3978 C3998 0.950 . S
H3979 C3999 0.950 . S
H3980 C4001 0.950 . S
H3981 C4004 0.950 . S
H3982 C4005 0.950 . S
H3983 C4007 0.950 . S
H3984 C4008 0.950 . S
H3985 C4009 0.951 . S
H3986 C4011 0.951 . S
H3987 C4013 0.950 . S
H3988 C4014 0.950 . S
H3989 C4016 0.950 . S
H3990 C4019 0.950 . S
H3991 C4020 0.950 . S
H3992 C4022 0.950 . S
H3993 C4023 0.950 . S
C3994 H3976 0.951 . S
C3994 C3995 1.366 . S
C3994 C3996 1.388 . S
C3995 C3994 1.366 . S
C3995 C3999 1.385 . S
C3996 H3977 0.951 . S
C3996 C3994 1.388 . S
C3996 C3997 1.366 . S
C3997 C3996 1.366 . S
C3997 C3998 1.414 . S
C3997 C4000 1.499 . S
C3998 H3978 0.950 . S
C3998 C3997 1.414 . S
C3998 C3999 1.374 . S
C3999 H3979 0.950 . S
C3999 C3995 1.385 . S
C3999 C3998 1.374 . S
C4000 C3997 1.499 . S
C4000 C4001 1.373 . S
C4000 C4002 1.389 . S
C4001 H3980 0.950 . S
C4001 C4000 1.373 . S
C4001 C4017 1.377 . S
C4002 C4000 1.389 . S
C4002 C4003 1.524 . S
C4002 C4016 1.377 . S
C4003 C4002 1.524 . S
C4003 C4004 1.397 . S
C4003 C4008 1.363 . S
C4004 H3981 0.950 . S
C4004 C4003 1.397 . S
C4004 C4005 1.334 . S
C4005 H3982 0.950 . S
C4005 C4004 1.334 . S
C4005 C4006 1.287 . S
C4006 C4005 1.287 . S
C4006 C4007 1.524 . S
C4006 H4025 0.913 . S
C4007 H3983 0.950 . S
C4007 C4006 1.524 . S
C4007 C4008 1.415 . S
C4008 H3984 0.950 . S
C4008 C4003 1.363 . S
C4008 C4007 1.415 . S
C4009 H3985 0.951 . S
C4009 C4010 1.366 . S
C4009 C4011 1.388 . S
C4010 C4009 1.366 . S
C4010 C4014 1.385 . S
C4011 H3986 0.951 . S
C4011 C4009 1.388 . S
C4011 C4012 1.366 . S
C4012 C4011 1.366 . S
C4012 C4013 1.414 . S
C4012 C4015 1.499 . S
C4013 H3987 0.950 . S
C4013 C4012 1.414 . S
C4013 C4014 1.374 . S
C4014 H3988 0.950 . S
C4014 C4010 1.385 . S
C4014 C4013 1.374 . S
C4015 C4012 1.499 . S
C4015 C4016 1.373 . S
C4015 C4017 1.389 . S
C4016 H3989 0.950 . S
C4016 C4002 1.377 . S
C4016 C4015 1.373 . S
C4017 C4001 1.377 . S
C4017 C4015 1.389 . S
C4017 C4018 1.524 . S
C4018 C4017 1.524 . S
C4018 C4019 1.397 . S
C4018 C4023 1.363 . S
C4019 H3990 0.950 . S
C4019 C4018 1.397 . S
C4019 C4020 1.334 . S
C4020 H3991 0.950 . S
C4020 C4019 1.334 . S
C4020 C4021 1.287 . S
C4021 C4020 1.287 . S
C4021 C4022 1.524 . S
C4021 H4024 0.999 . S
C4022 H3992 0.950 . S
C4022 C4021 1.524 . S
C4022 C4023 1.415 . S
C4023 H3993 0.950 . S
C4023 C4018 1.363 . S
C4023 C4022 1.415 . S
H4024 C4021 0.999 . S
H4025 C4006 0.913 . S
H4026 C4044 0.951 . S
H4027 C4046 0.951 . S
H4028 C4048 0.950 . S
H4029 C4049 0.950 . S
H4030 C4051 0.950 . S
H4031 C4054 0.950 . S
H4032 C4055 0.950 . S
H4033 C4057 0.950 . S
H4034 C4058 0.950 . S
H4035 C4059 0.951 . S
H4036 C4061 0.951 . S
H4037 C4063 0.950 . S
H4038 C4064 0.950 . S
H4039 C4066 0.950 . S
H4040 C4069 0.950 . S
H4041 C4070 0.950 . S
H4042 C4072 0.950 . S
H4043 C4073 0.950 . S
C4044 H4026 0.951 . S
C4044 C4045 1.366 . S
C4044 C4046 1.388 . S
C4045 C4044 1.366 . S
C4045 C4049 1.385 . S
C4046 H4027 0.951 . S
C4046 C4044 1.388 . S
C4046 C4047 1.366 . S
C4047 C4046 1.366 . S
C4047 C4048 1.414 . S
C4047 C4050 1.499 . S
C4048 H4028 0.950 . S
C4048 C4047 1.414 . S
C4048 C4049 1.374 . S
C4049 H4029 0.950 . S
C4049 C4045 1.385 . S
C4049 C4048 1.374 . S
C4050 C4047 1.499 . S
C4050 C4051 1.373 . S
C4050 C4052 1.389 . S
C4051 H4030 0.950 . S
C4051 C4050 1.373 . S
C4051 C4067 1.377 . S
C4052 C4050 1.389 . S
C4052 C4053 1.524 . S
C4052 C4066 1.377 . S
C4053 C4052 1.524 . S
C4053 C4054 1.397 . S
C4053 C4058 1.363 . S
C4054 H4031 0.950 . S
C4054 C4053 1.397 . S
C4054 C4055 1.334 . S
C4055 H4032 0.950 . S
C4055 C4054 1.334 . S
C4055 C4056 1.287 . S
C4056 C4055 1.287 . S
C4056 C4057 1.524 . S
C4056 H4075 0.913 . S
C4057 H4033 0.950 . S
C4057 C4056 1.524 . S
C4057 C4058 1.415 . S
C4058 H4034 0.950 . S
C4058 C4053 1.363 . S
C4058 C4057 1.415 . S
C4059 H4035 0.951 . S
C4059 C4060 1.366 . S
C4059 C4061 1.388 . S
C4060 C4059 1.366 . S
C4060 C4064 1.385 . S
C4061 H4036 0.951 . S
C4061 C4059 1.388 . S
C4061 C4062 1.366 . S
C4062 C4061 1.366 . S
C4062 C4063 1.414 . S
C4062 C4065 1.499 . S
C4063 H4037 0.950 . S
C4063 C4062 1.414 . S
C4063 C4064 1.374 . S
C4064 H4038 0.950 . S
C4064 C4060 1.385 . S
C4064 C4063 1.374 . S
C4065 C4062 1.499 . S
C4065 C4066 1.373 . S
C4065 C4067 1.389 . S
C4066 H4039 0.950 . S
C4066 C4052 1.377 . S
C4066 C4065 1.373 . S
C4067 C4051 1.377 . S
C4067 C4065 1.389 . S
C4067 C4068 1.524 . S
C4068 C4067 1.524 . S
C4068 C4069 1.397 . S
C4068 C4073 1.363 . S
C4069 H4040 0.950 . S
C4069 C4068 1.397 . S
C4069 C4070 1.334 . S
C4070 H4041 0.950 . S
C4070 C4069 1.334 . S
C4070 C4071 1.287 . S
C4071 C4070 1.287 . S
C4071 C4072 1.524 . S
C4071 H4074 0.999 . S
C4072 H4042 0.950 . S
C4072 C4071 1.524 . S
C4072 C4073 1.415 . S
C4073 H4043 0.950 . S
C4073 C4068 1.363 . S
C4073 C4072 1.415 . S
H4074 C4071 0.999 . S
H4075 C4056 0.913 . S
H4076 C4094 0.951 . S
H4077 C4096 0.951 . S
H4078 C4098 0.950 . S
H4079 C4099 0.950 . S
H4080 C4101 0.950 . S
H4081 C4104 0.950 . S
H4082 C4105 0.950 . S
H4083 C4107 0.950 . S
H4084 C4108 0.950 . S
H4085 C4109 0.951 . S
H4086 C4111 0.951 . S
H4087 C4113 0.950 . S
H4088 C4114 0.950 . S
H4089 C4116 0.950 . S
H4090 C4119 0.950 . S
H4091 C4120 0.950 . S
H4092 C4122 0.950 . S
H4093 C4123 0.950 . S
C4094 H4076 0.951 . S
C4094 C4095 1.366 . S
C4094 C4096 1.388 . S
C4095 C4094 1.366 . S
C4095 C4099 1.385 . S
C4096 H4077 0.951 . S
C4096 C4094 1.388 . S
C4096 C4097 1.366 . S
C4097 C4096 1.366 . S
C4097 C4098 1.414 . S
C4097 C4100 1.499 . S
C4098 H4078 0.950 . S
C4098 C4097 1.414 . S
C4098 C4099 1.374 . S
C4099 H4079 0.950 . S
C4099 C4095 1.385 . S
C4099 C4098 1.374 . S
C4100 C4097 1.499 . S
C4100 C4101 1.373 . S
C4100 C4102 1.389 . S
C4101 H4080 0.950 . S
C4101 C4100 1.373 . S
C4101 C4117 1.377 . S
C4102 C4100 1.389 . S
C4102 C4103 1.524 . S
C4102 C4116 1.377 . S
C4103 C4102 1.524 . S
C4103 C4104 1.397 . S
C4103 C4108 1.363 . S
C4104 H4081 0.950 . S
C4104 C4103 1.397 . S
C4104 C4105 1.334 . S
C4105 H4082 0.950 . S
C4105 C4104 1.334 . S
C4105 C4106 1.287 . S
C4106 C4105 1.287 . S
C4106 C4107 1.524 . S
C4106 H4125 0.913 . S
C4107 H4083 0.950 . S
C4107 C4106 1.524 . S
C4107 C4108 1.415 . S
C4108 H4084 0.950 . S
C4108 C4103 1.363 . S
C4108 C4107 1.415 . S
C4109 H4085 0.951 . S
C4109 C4110 1.366 . S
C4109 C4111 1.388 . S
C4110 C4109 1.366 . S
C4110 C4114 1.385 . S
C4111 H4086 0.951 . S
C4111 C4109 1.388 . S
C4111 C4112 1.366 . S
C4112 C4111 1.366 . S
C4112 C4113 1.414 . S
C4112 C4115 1.499 . S
C4113 H4087 0.950 . S
C4113 C4112 1.414 . S
C4113 C4114 1.374 . S
C4114 H4088 0.950 . S
C4114 C4110 1.385 . S
C4114 C4113 1.374 . S
C4115 C4112 1.499 . S
C4115 C4116 1.373 . S
C4115 C4117 1.389 . S
C4116 H4089 0.950 . S
C4116 C4102 1.377 . S
C4116 C4115 1.373 . S
C4117 C4101 1.377 . S
C4117 C4115 1.389 . S
C4117 C4118 1.524 . S
C4118 C4117 1.524 . S
C4118 C4119 1.397 . S
C4118 C4123 1.363 . S
C4119 H4090 0.950 . S
C4119 C4118 1.397 . S
C4119 C4120 1.334 . S
C4120 H4091 0.950 . S
C4120 C4119 1.334 . S
C4120 C4121 1.287 . S
C4121 C4120 1.287 . S
C4121 C4122 1.524 . S
C4121 H4124 0.999 . S
C4122 H4092 0.950 . S
C4122 C4121 1.524 . S
C4122 C4123 1.415 . S
C4123 H4093 0.950 . S
C4123 C4118 1.363 . S
C4123 C4122 1.415 . S
H4124 C4121 0.999 . S
H4125 C4106 0.913 . S
H4126 C4144 0.951 . S
H4127 C4146 0.951 . S
H4128 C4148 0.950 . S
H4129 C4149 0.950 . S
H4130 C4151 0.950 . S
H4131 C4154 0.950 . S
H4132 C4155 0.950 . S
H4133 C4157 0.950 . S
H4134 C4158 0.950 . S
H4135 C4159 0.951 . S
H4136 C4161 0.951 . S
H4137 C4163 0.950 . S
H4138 C4164 0.950 . S
H4139 C4166 0.950 . S
H4140 C4169 0.950 . S
H4141 C4170 0.950 . S
H4142 C4172 0.950 . S
H4143 C4173 0.950 . S
C4144 H4126 0.951 . S
C4144 C4145 1.366 . S
C4144 C4146 1.388 . S
C4145 C4144 1.366 . S
C4145 C4149 1.385 . S
C4146 H4127 0.951 . S
C4146 C4144 1.388 . S
C4146 C4147 1.366 . S
C4147 C4146 1.366 . S
C4147 C4148 1.414 . S
C4147 C4150 1.499 . S
C4148 H4128 0.950 . S
C4148 C4147 1.414 . S
C4148 C4149 1.374 . S
C4149 H4129 0.950 . S
C4149 C4145 1.385 . S
C4149 C4148 1.374 . S
C4150 C4147 1.499 . S
C4150 C4151 1.373 . S
C4150 C4152 1.389 . S
C4151 H4130 0.950 . S
C4151 C4150 1.373 . S
C4151 C4167 1.377 . S
C4152 C4150 1.389 . S
C4152 C4153 1.524 . S
C4152 C4166 1.377 . S
C4153 C4152 1.524 . S
C4153 C4154 1.397 . S
C4153 C4158 1.363 . S
C4154 H4131 0.950 . S
C4154 C4153 1.397 . S
C4154 C4155 1.334 . S
C4155 H4132 0.950 . S
C4155 C4154 1.334 . S
C4155 C4156 1.287 . S
C4156 C4155 1.287 . S
C4156 C4157 1.524 . S
C4156 H4175 0.913 . S
C4157 H4133 0.950 . S
C4157 C4156 1.524 . S
C4157 C4158 1.415 . S
C4158 H4134 0.950 . S
C4158 C4153 1.363 . S
C4158 C4157 1.415 . S
C4159 H4135 0.951 . S
C4159 C4160 1.366 . S
C4159 C4161 1.388 . S
C4160 C4159 1.366 . S
C4160 C4164 1.385 . S
C4161 H4136 0.951 . S
C4161 C4159 1.388 . S
C4161 C4162 1.366 . S
C4162 C4161 1.366 . S
C4162 C4163 1.414 . S
C4162 C4165 1.499 . S
C4163 H4137 0.950 . S
C4163 C4162 1.414 . S
C4163 C4164 1.374 . S
C4164 H4138 0.950 . S
C4164 C4160 1.385 . S
C4164 C4163 1.374 . S
C4165 C4162 1.499 . S
C4165 C4166 1.373 . S
C4165 C4167 1.389 . S
C4166 H4139 0.950 . S
C4166 C4152 1.377 . S
C4166 C4165 1.373 . S
C4167 C4151 1.377 . S
C4167 C4165 1.389 . S
C4167 C4168 1.524 . S
C4168 C4167 1.524 . S
C4168 C4169 1.397 . S
C4168 C4173 1.363 . S
C4169 H4140 0.950 . S
C4169 C4168 1.397 . S
C4169 C4170 1.334 . S
C4170 H4141 0.950 . S
C4170 C4169 1.334 . S
C4170 C4171 1.287 . S
C4171 C4170 1.287 . S
C4171 C4172 1.524 . S
C4171 H4174 0.999 . S
C4172 H4142 0.950 . S
C4172 C4171 1.524 . S
C4172 C4173 1.415 . S
C4173 H4143 0.950 . S
C4173 C4168 1.363 . S
C4173 C4172 1.415 . S
H4174 C4171 0.999 . S
H4175 C4156 0.913 . S
H4176 C4194 0.951 . S
H4177 C4196 0.951 . S
H4178 C4198 0.950 . S
H4179 C4199 0.950 . S
H4180 C4201 0.950 . S
H4181 C4204 0.950 . S
H4182 C4205 0.950 . S
H4183 C4207 0.950 . S
H4184 C4208 0.950 . S
H4185 C4209 0.951 . S
H4186 C4211 0.951 . S
H4187 C4213 0.950 . S
H4188 C4214 0.950 . S
H4189 C4216 0.950 . S
H4190 C4219 0.950 . S
H4191 C4220 0.950 . S
H4192 C4222 0.950 . S
H4193 C4223 0.950 . S
C4194 H4176 0.951 . S
C4194 C4195 1.366 . S
C4194 C4196 1.388 . S
C4195 C4194 1.366 . S
C4195 C4199 1.385 . S
C4196 H4177 0.951 . S
C4196 C4194 1.388 . S
C4196 C4197 1.366 . S
C4197 C4196 1.366 . S
C4197 C4198 1.414 . S
C4197 C4200 1.499 . S
C4198 H4178 0.950 . S
C4198 C4197 1.414 . S
C4198 C4199 1.374 . S
C4199 H4179 0.950 . S
C4199 C4195 1.385 . S
C4199 C4198 1.374 . S
C4200 C4197 1.499 . S
C4200 C4201 1.373 . S
C4200 C4202 1.389 . S
C4201 H4180 0.950 . S
C4201 C4200 1.373 . S
C4201 C4217 1.377 . S
C4202 C4200 1.389 . S
C4202 C4203 1.524 . S
C4202 C4216 1.377 . S
C4203 C4202 1.524 . S
C4203 C4204 1.397 . S
C4203 C4208 1.363 . S
C4204 H4181 0.950 . S
C4204 C4203 1.397 . S
C4204 C4205 1.334 . S
C4205 H4182 0.950 . S
C4205 C4204 1.334 . S
C4205 C4206 1.287 . S
C4206 C4205 1.287 . S
C4206 C4207 1.524 . S
C4206 H4225 0.913 . S
C4207 H4183 0.950 . S
C4207 C4206 1.524 . S
C4207 C4208 1.415 . S
C4208 H4184 0.950 . S
C4208 C4203 1.363 . S
C4208 C4207 1.415 . S
C4209 H4185 0.951 . S
C4209 C4210 1.366 . S
C4209 C4211 1.388 . S
C4210 C4209 1.366 . S
C4210 C4214 1.385 . S
C4211 H4186 0.951 . S
C4211 C4209 1.388 . S
C4211 C4212 1.366 . S
C4212 C4211 1.366 . S
C4212 C4213 1.414 . S
C4212 C4215 1.499 . S
C4213 H4187 0.950 . S
C4213 C4212 1.414 . S
C4213 C4214 1.374 . S
C4214 H4188 0.950 . S
C4214 C4210 1.385 . S
C4214 C4213 1.374 . S
C4215 C4212 1.499 . S
C4215 C4216 1.373 . S
C4215 C4217 1.389 . S
C4216 H4189 0.950 . S
C4216 C4202 1.377 . S
C4216 C4215 1.373 . S
C4217 C4201 1.377 . S
C4217 C4215 1.389 . S
C4217 C4218 1.524 . S
C4218 C4217 1.524 . S
C4218 C4219 1.397 . S
C4218 C4223 1.363 . S
C4219 H4190 0.950 . S
C4219 C4218 1.397 . S
C4219 C4220 1.334 . S
C4220 H4191 0.950 . S
C4220 C4219 1.334 . S
C4220 C4221 1.287 . S
C4221 C4220 1.287 . S
C4221 C4222 1.524 . S
C4221 H4224 0.999 . S
C4222 H4192 0.950 . S
C4222 C4221 1.524 . S
C4222 C4223 1.415 . S
C4223 H4193 0.950 . S
C4223 C4218 1.363 . S
C4223 C4222 1.415 . S
H4224 C4221 0.999 . S
H4225 C4206 0.913 . S
H4226 C4244 0.951 . S
H4227 C4246 0.951 . S
H4228 C4248 0.950 . S
H4229 C4249 0.950 . S
H4230 C4251 0.950 . S
H4231 C4254 0.950 . S
H4232 C4255 0.950 . S
H4233 C4257 0.950 . S
H4234 C4258 0.950 . S
H4235 C4259 0.951 . S
H4236 C4261 0.951 . S
H4237 C4263 0.950 . S
H4238 C4264 0.950 . S
H4239 C4266 0.950 . S
H4240 C4269 0.950 . S
H4241 C4270 0.950 . S
H4242 C4272 0.950 . S
H4243 C4273 0.950 . S
C4244 H4226 0.951 . S
C4244 C4245 1.366 . S
C4244 C4246 1.388 . S
C4245 C4244 1.366 . S
C4245 C4249 1.385 . S
C4246 H4227 0.951 . S
C4246 C4244 1.388 . S
C4246 C4247 1.366 . S
C4247 C4246 1.366 . S
C4247 C4248 1.414 . S
C4247 C4250 1.499 . S
C4248 H4228 0.950 . S
C4248 C4247 1.414 . S
C4248 C4249 1.374 . S
C4249 H4229 0.950 . S
C4249 C4245 1.385 . S
C4249 C4248 1.374 . S
C4250 C4247 1.499 . S
C4250 C4251 1.373 . S
C4250 C4252 1.389 . S
C4251 H4230 0.950 . S
C4251 C4250 1.373 . S
C4251 C4267 1.377 . S
C4252 C4250 1.389 . S
C4252 C4253 1.524 . S
C4252 C4266 1.377 . S
C4253 C4252 1.524 . S
C4253 C4254 1.397 . S
C4253 C4258 1.363 . S
C4254 H4231 0.950 . S
C4254 C4253 1.397 . S
C4254 C4255 1.334 . S
C4255 H4232 0.950 . S
C4255 C4254 1.334 . S
C4255 C4256 1.287 . S
C4256 C4255 1.287 . S
C4256 C4257 1.524 . S
C4256 H4275 0.913 . S
C4257 H4233 0.950 . S
C4257 C4256 1.524 . S
C4257 C4258 1.415 . S
C4258 H4234 0.950 . S
C4258 C4253 1.363 . S
C4258 C4257 1.415 . S
C4259 H4235 0.951 . S
C4259 C4260 1.366 . S
C4259 C4261 1.388 . S
C4260 C4259 1.366 . S
C4260 C4264 1.385 . S
C4261 H4236 0.951 . S
C4261 C4259 1.388 . S
C4261 C4262 1.366 . S
C4262 C4261 1.366 . S
C4262 C4263 1.414 . S
C4262 C4265 1.499 . S
C4263 H4237 0.950 . S
C4263 C4262 1.414 . S
C4263 C4264 1.374 . S
C4264 H4238 0.950 . S
C4264 C4260 1.385 . S
C4264 C4263 1.374 . S
C4265 C4262 1.499 . S
C4265 C4266 1.373 . S
C4265 C4267 1.389 . S
C4266 H4239 0.950 . S
C4266 C4252 1.377 . S
C4266 C4265 1.373 . S
C4267 C4251 1.377 . S
C4267 C4265 1.389 . S
C4267 C4268 1.524 . S
C4268 C4267 1.524 . S
C4268 C4269 1.397 . S
C4268 C4273 1.363 . S
C4269 H4240 0.950 . S
C4269 C4268 1.397 . S
C4269 C4270 1.334 . S
C4270 H4241 0.950 . S
C4270 C4269 1.334 . S
C4270 C4271 1.287 . S
C4271 C4270 1.287 . S
C4271 C4272 1.524 . S
C4271 H4274 0.999 . S
C4272 H4242 0.950 . S
C4272 C4271 1.524 . S
C4272 C4273 1.415 . S
C4273 H4243 0.950 . S
C4273 C4268 1.363 . S
C4273 C4272 1.415 . S
H4274 C4271 0.999 . S
H4275 C4256 0.913 . S
H4276 C4294 0.951 . S
H4277 C4296 0.951 . S
H4278 C4298 0.950 . S
H4279 C4299 0.950 . S
H4280 C4301 0.950 . S
H4281 C4304 0.950 . S
H4282 C4305 0.950 . S
H4283 C4307 0.950 . S
H4284 C4308 0.950 . S
H4285 C4309 0.951 . S
H4286 C4311 0.951 . S
H4287 C4313 0.950 . S
H4288 C4314 0.950 . S
H4289 C4316 0.950 . S
H4290 C4319 0.950 . S
H4291 C4320 0.950 . S
H4292 C4322 0.950 . S
H4293 C4323 0.950 . S
C4294 H4276 0.951 . S
C4294 C4295 1.366 . S
C4294 C4296 1.388 . S
C4295 C4294 1.366 . S
C4295 C4299 1.385 . S
C4296 H4277 0.951 . S
C4296 C4294 1.388 . S
C4296 C4297 1.366 . S
C4297 C4296 1.366 . S
C4297 C4298 1.414 . S
C4297 C4300 1.499 . S
C4298 H4278 0.950 . S
C4298 C4297 1.414 . S
C4298 C4299 1.374 . S
C4299 H4279 0.950 . S
C4299 C4295 1.385 . S
C4299 C4298 1.374 . S
C4300 C4297 1.499 . S
C4300 C4301 1.373 . S
C4300 C4302 1.389 . S
C4301 H4280 0.950 . S
C4301 C4300 1.373 . S
C4301 C4317 1.377 . S
C4302 C4300 1.389 . S
C4302 C4303 1.524 . S
C4302 C4316 1.377 . S
C4303 C4302 1.524 . S
C4303 C4304 1.397 . S
C4303 C4308 1.363 . S
C4304 H4281 0.950 . S
C4304 C4303 1.397 . S
C4304 C4305 1.334 . S
C4305 H4282 0.950 . S
C4305 C4304 1.334 . S
C4305 C4306 1.287 . S
C4306 C4305 1.287 . S
C4306 C4307 1.524 . S
C4306 H4325 0.913 . S
C4307 H4283 0.950 . S
C4307 C4306 1.524 . S
C4307 C4308 1.415 . S
C4308 H4284 0.950 . S
C4308 C4303 1.363 . S
C4308 C4307 1.415 . S
C4309 H4285 0.951 . S
C4309 C4310 1.366 . S
C4309 C4311 1.388 . S
C4310 C4309 1.366 . S
C4310 C4314 1.385 . S
C4311 H4286 0.951 . S
C4311 C4309 1.388 . S
C4311 C4312 1.366 . S
C4312 C4311 1.366 . S
C4312 C4313 1.414 . S
C4312 C4315 1.499 . S
C4313 H4287 0.950 . S
C4313 C4312 1.414 . S
C4313 C4314 1.374 . S
C4314 H4288 0.950 . S
C4314 C4310 1.385 . S
C4314 C4313 1.374 . S
C4315 C4312 1.499 . S
C4315 C4316 1.373 . S
C4315 C4317 1.389 . S
C4316 H4289 0.950 . S
C4316 C4302 1.377 . S
C4316 C4315 1.373 . S
C4317 C4301 1.377 . S
C4317 C4315 1.389 . S
C4317 C4318 1.524 . S
C4318 C4317 1.524 . S
C4318 C4319 1.397 . S
C4318 C4323 1.363 . S
C4319 H4290 0.950 . S
C4319 C4318 1.397 . S
C4319 C4320 1.334 . S
C4320 H4291 0.950 . S
C4320 C4319 1.334 . S
C4320 C4321 1.287 . S
C4321 C4320 1.287 . S
C4321 C4322 1.524 . S
C4321 H4324 0.999 . S
C4322 H4292 0.950 . S
C4322 C4321 1.524 . S
C4322 C4323 1.415 . S
C4323 H4293 0.950 . S
C4323 C4318 1.363 . S
C4323 C4322 1.415 . S
H4324 C4321 0.999 . S
H4325 C4306 0.913 . S
H4326 C4344 0.951 . S
H4327 C4346 0.951 . S
H4328 C4348 0.950 . S
H4329 C4349 0.950 . S
H4330 C4351 0.950 . S
H4331 C4354 0.950 . S
H4332 C4355 0.950 . S
H4333 C4357 0.950 . S
H4334 C4358 0.950 1_545 S
H4335 C4359 0.951 . S
H4336 C4361 0.951 . S
H4337 C4363 0.950 . S
H4338 C4364 0.950 . S
H4339 C4366 0.950 . S
H4340 C4369 0.950 . S
H4341 C4370 0.950 . S
H4342 C4372 0.950 . S
H4343 C4373 0.950 . S
C4344 H4326 0.951 . S
C4344 C4345 1.366 . S
C4344 C4346 1.388 . S
C4345 C4344 1.366 . S
C4345 C4349 1.385 . S
C4346 H4327 0.951 . S
C4346 C4344 1.388 . S
C4346 C4347 1.366 . S
C4347 C4346 1.366 . S
C4347 C4348 1.414 . S
C4347 C4350 1.499 . S
C4348 H4328 0.950 . S
C4348 C4347 1.414 . S
C4348 C4349 1.374 . S
C4349 H4329 0.950 . S
C4349 C4345 1.385 . S
C4349 C4348 1.374 . S
C4350 C4347 1.499 . S
C4350 C4351 1.373 . S
C4350 C4352 1.389 . S
C4351 H4330 0.950 . S
C4351 C4350 1.373 . S
C4351 C4367 1.377 . S
C4352 C4350 1.389 . S
C4352 C4353 1.524 . S
C4352 C4366 1.377 . S
C4353 C4352 1.524 . S
C4353 C4354 1.397 . S
C4353 C4358 1.363 . S
C4354 H4331 0.950 . S
C4354 C4353 1.397 . S
C4354 C4355 1.334 . S
C4355 H4332 0.950 . S
C4355 C4354 1.334 . S
C4355 C4356 1.287 . S
C4356 C4355 1.287 . S
C4356 C4357 1.524 1_565 S
C4356 H4375 0.913 . S
C4357 H4333 0.950 . S
C4357 C4356 1.524 1_545 S
C4357 C4358 1.415 1_545 S
C4358 H4334 0.950 1_565 S
C4358 C4353 1.363 . S
C4358 C4357 1.415 1_565 S
C4359 H4335 0.951 . S
C4359 C4360 1.366 1_565 S
C4359 C4361 1.388 . S
C4360 C4359 1.366 1_545 S
C4360 C4364 1.385 . S
C4361 H4336 0.951 . S
C4361 C4359 1.388 . S
C4361 C4362 1.366 . S
C4362 C4361 1.366 . S
C4362 C4363 1.414 1_565 S
C4362 C4365 1.499 . S
C4363 H4337 0.950 . S
C4363 C4362 1.414 1_545 S
C4363 C4364 1.374 . S
C4364 H4338 0.950 . S
C4364 C4360 1.385 . S
C4364 C4363 1.374 . S
C4365 C4362 1.499 . S
C4365 C4366 1.373 . S
C4365 C4367 1.389 . S
C4366 H4339 0.950 . S
C4366 C4352 1.377 . S
C4366 C4365 1.373 . S
C4367 C4351 1.377 . S
C4367 C4365 1.389 . S
C4367 C4368 1.524 . S
C4368 C4367 1.524 . S
C4368 C4369 1.397 . S
C4368 C4373 1.363 . S
C4369 H4340 0.950 . S
C4369 C4368 1.397 . S
C4369 C4370 1.334 . S
C4370 H4341 0.950 . S
C4370 C4369 1.334 . S
C4370 C4371 1.287 . S
C4371 C4370 1.287 . S
C4371 C4372 1.524 . S
C4371 H4374 0.999 . S
C4372 H4342 0.950 . S
C4372 C4371 1.524 . S
C4372 C4373 1.415 . S
C4373 H4343 0.950 . S
C4373 C4368 1.363 . S
C4373 C4372 1.415 . S
H4374 C4371 0.999 . S
H4375 C4356 0.913 . S
H4376 C4394 0.951 . S
H4377 C4396 0.951 . S
H4378 C4398 0.950 . S
H4379 C4399 0.950 . S
H4380 C4401 0.950 . S
H4381 C4404 0.950 . S
H4382 C4405 0.950 . S
H4383 C4407 0.950 . S
H4384 C4408 0.950 . S
H4385 C4409 0.951 . S
H4386 C4411 0.951 . S
H4387 C4413 0.950 . S
H4388 C4414 0.950 . S
H4389 C4416 0.950 . S
H4390 C4419 0.950 . S
H4391 C4420 0.950 . S
H4392 C4422 0.950 . S
H4393 C4423 0.950 . S
C4394 H4376 0.951 . S
C4394 C4395 1.366 . S
C4394 C4396 1.388 . S
C4395 C4394 1.366 . S
C4395 C4399 1.385 . S
C4396 H4377 0.951 . S
C4396 C4394 1.388 . S
C4396 C4397 1.366 . S
C4397 C4396 1.366 . S
C4397 C4398 1.414 . S
C4397 C4400 1.499 . S
C4398 H4378 0.950 . S
C4398 C4397 1.414 . S
C4398 C4399 1.374 . S
C4399 H4379 0.950 . S
C4399 C4395 1.385 . S
C4399 C4398 1.374 . S
C4400 C4397 1.499 . S
C4400 C4401 1.373 . S
C4400 C4402 1.389 . S
C4401 H4380 0.950 . S
C4401 C4400 1.373 . S
C4401 C4417 1.377 . S
C4402 C4400 1.389 . S
C4402 C4403 1.524 . S
C4402 C4416 1.377 . S
C4403 C4402 1.524 . S
C4403 C4404 1.397 . S
C4403 C4408 1.363 . S
C4404 H4381 0.950 . S
C4404 C4403 1.397 . S
C4404 C4405 1.334 . S
C4405 H4382 0.950 . S
C4405 C4404 1.334 . S
C4405 C4406 1.287 . S
C4406 C4405 1.287 . S
C4406 C4407 1.524 . S
C4406 H4425 0.913 . S
C4407 H4383 0.950 . S
C4407 C4406 1.524 . S
C4407 C4408 1.415 . S
C4408 H4384 0.950 . S
C4408 C4403 1.363 . S
C4408 C4407 1.415 . S
C4409 H4385 0.951 . S
C4409 C4410 1.366 . S
C4409 C4411 1.388 . S
C4410 C4409 1.366 . S
C4410 C4414 1.385 . S
C4411 H4386 0.951 . S
C4411 C4409 1.388 . S
C4411 C4412 1.366 . S
C4412 C4411 1.366 . S
C4412 C4413 1.414 . S
C4412 C4415 1.499 . S
C4413 H4387 0.950 . S
C4413 C4412 1.414 . S
C4413 C4414 1.374 . S
C4414 H4388 0.950 . S
C4414 C4410 1.385 . S
C4414 C4413 1.374 . S
C4415 C4412 1.499 . S
C4415 C4416 1.373 . S
C4415 C4417 1.389 . S
C4416 H4389 0.950 . S
C4416 C4402 1.377 . S
C4416 C4415 1.373 . S
C4417 C4401 1.377 . S
C4417 C4415 1.389 . S
C4417 C4418 1.524 . S
C4418 C4417 1.524 . S
C4418 C4419 1.397 . S
C4418 C4423 1.363 . S
C4419 H4390 0.950 . S
C4419 C4418 1.397 . S
C4419 C4420 1.334 . S
C4420 H4391 0.950 . S
C4420 C4419 1.334 . S
C4420 C4421 1.287 . S
C4421 C4420 1.287 . S
C4421 C4422 1.524 . S
C4421 H4424 0.999 . S
C4422 H4392 0.950 . S
C4422 C4421 1.524 . S
C4422 C4423 1.415 . S
C4423 H4393 0.950 . S
C4423 C4418 1.363 . S
C4423 C4422 1.415 . S
H4424 C4421 0.999 . S
H4425 C4406 0.913 . S
H4426 C4444 0.951 . S
H4427 C4446 0.951 1_556 S
H4428 C4448 0.950 . S
H4429 C4449 0.950 . S
H4430 C4451 0.950 . S
H4431 C4454 0.950 . S
H4432 C4455 0.950 . S
H4433 C4457 0.950 1_556 S
H4434 C4458 0.950 . S
H4435 C4459 0.951 . S
H4436 C4461 0.951 . S
H4437 C4463 0.950 . S
H4438 C4464 0.950 . S
H4439 C4466 0.950 . S
H4440 C4469 0.950 . S
H4441 C4470 0.950 . S
H4442 C4472 0.950 . S
H4443 C4473 0.950 . S
C4444 H4426 0.951 . S
C4444 C4445 1.366 1_556 S
C4444 C4446 1.388 1_556 S
C4445 C4444 1.366 1_554 S
C4445 C4449 1.385 . S
C4446 H4427 0.951 1_554 S
C4446 C4444 1.388 1_554 S
C4446 C4447 1.366 . S
C4447 C4446 1.366 . S
C4447 C4448 1.414 . S
C4447 C4450 1.499 . S
C4448 H4428 0.950 . S
C4448 C4447 1.414 . S
C4448 C4449 1.374 . S
C4449 H4429 0.950 . S
C4449 C4445 1.385 . S
C4449 C4448 1.374 . S
C4450 C4447 1.499 . S
C4450 C4451 1.373 . S
C4450 C4452 1.389 . S
C4451 H4430 0.950 . S
C4451 C4450 1.373 . S
C4451 C4467 1.377 . S
C4452 C4450 1.389 . S
C4452 C4453 1.524 . S
C4452 C4466 1.377 . S
C4453 C4452 1.524 . S
C4453 C4454 1.397 . S
C4453 C4458 1.363 . S
C4454 H4431 0.950 . S
C4454 C4453 1.397 . S
C4454 C4455 1.334 . S
C4455 H4432 0.950 . S
C4455 C4454 1.334 . S
C4455 C4456 1.287 . S
C4456 C4455 1.287 . S
C4456 C4457 1.524 . S
C4456 H4475 0.913 . S
C4457 H4433 0.950 1_554 S
C4457 C4456 1.524 . S
C4457 C4458 1.415 . S
C4458 H4434 0.950 . S
C4458 C4453 1.363 . S
C4458 C4457 1.415 . S
C4459 H4435 0.951 . S
C4459 C4460 1.366 . S
C4459 C4461 1.388 . S
C4460 C4459 1.366 . S
C4460 C4464 1.385 . S
C4461 H4436 0.951 . S
C4461 C4459 1.388 . S
C4461 C4462 1.366 . S
C4462 C4461 1.366 . S
C4462 C4463 1.414 . S
C4462 C4465 1.499 . S
C4463 H4437 0.950 . S
C4463 C4462 1.414 . S
C4463 C4464 1.374 . S
C4464 H4438 0.950 . S
C4464 C4460 1.385 . S
C4464 C4463 1.374 . S
C4465 C4462 1.499 . S
C4465 C4466 1.373 . S
C4465 C4467 1.389 . S
C4466 H4439 0.950 . S
C4466 C4452 1.377 . S
C4466 C4465 1.373 . S
C4467 C4451 1.377 . S
C4467 C4465 1.389 . S
C4467 C4468 1.524 . S
C4468 C4467 1.524 . S
C4468 C4469 1.397 . S
C4468 C4473 1.363 . S
C4469 H4440 0.950 . S
C4469 C4468 1.397 . S
C4469 C4470 1.334 . S
C4470 H4441 0.950 . S
C4470 C4469 1.334 . S
C4470 C4471 1.287 . S
C4471 C4470 1.287 . S
C4471 C4472 1.524 . S
C4471 H4474 0.999 . S
C4472 H4442 0.950 . S
C4472 C4471 1.524 . S
C4472 C4473 1.415 . S
C4473 H4443 0.950 . S
C4473 C4468 1.363 . S
C4473 C4472 1.415 . S
H4474 C4471 0.999 . S
H4475 C4456 0.913 . S
H4476 C4494 0.951 . S
H4477 C4496 0.951 . S
H4478 C4498 0.950 . S
H4479 C4499 0.950 . S
H4480 C4501 0.950 . S
H4481 C4504 0.950 . S
H4482 C4505 0.950 . S
H4483 C4507 0.950 . S
H4484 C4508 0.950 . S
H4485 C4509 0.951 . S
H4486 C4511 0.951 . S
H4487 C4513 0.950 . S
H4488 C4514 0.950 . S
H4489 C4516 0.950 . S
H4490 C4519 0.950 . S
H4491 C4520 0.950 . S
H4492 C4522 0.950 . S
H4493 C4523 0.950 . S
C4494 H4476 0.951 . S
C4494 C4495 1.366 . S
C4494 C4496 1.388 . S
C4495 C4494 1.366 . S
C4495 C4499 1.385 . S
C4496 H4477 0.951 . S
C4496 C4494 1.388 . S
C4496 C4497 1.366 . S
C4497 C4496 1.366 . S
C4497 C4498 1.414 . S
C4497 C4500 1.499 . S
C4498 H4478 0.950 . S
C4498 C4497 1.414 . S
C4498 C4499 1.374 . S
C4499 H4479 0.950 . S
C4499 C4495 1.385 . S
C4499 C4498 1.374 . S
C4500 C4497 1.499 . S
C4500 C4501 1.373 . S
C4500 C4502 1.389 . S
C4501 H4480 0.950 . S
C4501 C4500 1.373 . S
C4501 C4517 1.377 . S
C4502 C4500 1.389 . S
C4502 C4503 1.524 . S
C4502 C4516 1.377 . S
C4503 C4502 1.524 . S
C4503 C4504 1.397 . S
C4503 C4508 1.363 . S
C4504 H4481 0.950 . S
C4504 C4503 1.397 . S
C4504 C4505 1.334 . S
C4505 H4482 0.950 . S
C4505 C4504 1.334 . S
C4505 C4506 1.287 . S
C4506 C4505 1.287 . S
C4506 C4507 1.524 . S
C4506 H4525 0.913 . S
C4507 H4483 0.950 . S
C4507 C4506 1.524 . S
C4507 C4508 1.415 . S
C4508 H4484 0.950 . S
C4508 C4503 1.363 . S
C4508 C4507 1.415 . S
C4509 H4485 0.951 . S
C4509 C4510 1.366 . S
C4509 C4511 1.388 . S
C4510 C4509 1.366 . S
C4510 C4514 1.385 . S
C4511 H4486 0.951 . S
C4511 C4509 1.388 . S
C4511 C4512 1.366 . S
C4512 C4511 1.366 . S
C4512 C4513 1.414 . S
C4512 C4515 1.499 . S
C4513 H4487 0.950 . S
C4513 C4512 1.414 . S
C4513 C4514 1.374 . S
C4514 H4488 0.950 . S
C4514 C4510 1.385 . S
C4514 C4513 1.374 . S
C4515 C4512 1.499 . S
C4515 C4516 1.373 . S
C4515 C4517 1.389 . S
C4516 H4489 0.950 . S
C4516 C4502 1.377 . S
C4516 C4515 1.373 . S
C4517 C4501 1.377 . S
C4517 C4515 1.389 . S
C4517 C4518 1.524 . S
C4518 C4517 1.524 . S
C4518 C4519 1.397 . S
C4518 C4523 1.363 . S
C4519 H4490 0.950 . S
C4519 C4518 1.397 . S
C4519 C4520 1.334 . S
C4520 H4491 0.950 . S
C4520 C4519 1.334 . S
C4520 C4521 1.287 . S
C4521 C4520 1.287 . S
C4521 C4522 1.524 . S
C4521 H4524 0.999 . S
C4522 H4492 0.950 . S
C4522 C4521 1.524 . S
C4522 C4523 1.415 . S
C4523 H4493 0.950 . S
C4523 C4518 1.363 . S
C4523 C4522 1.415 . S
H4524 C4521 0.999 . S
H4525 C4506 0.913 . S
H4526 C4544 0.951 . S
H4527 C4546 0.951 . S
H4528 C4548 0.950 . S
H4529 C4549 0.950 . S
H4530 C4551 0.950 . S
H4531 C4554 0.950 . S
H4532 C4555 0.950 . S
H4533 C4557 0.950 . S
H4534 C4558 0.950 . S
H4535 C4559 0.951 . S
H4536 C4561 0.951 . S
H4537 C4563 0.950 . S
H4538 C4564 0.950 . S
H4539 C4566 0.950 . S
H4540 C4569 0.950 . S
H4541 C4570 0.950 . S
H4542 C4572 0.950 . S
H4543 C4573 0.950 . S
C4544 H4526 0.951 . S
C4544 C4545 1.366 . S
C4544 C4546 1.388 . S
C4545 C4544 1.366 . S
C4545 C4549 1.385 . S
C4546 H4527 0.951 . S
C4546 C4544 1.388 . S
C4546 C4547 1.366 . S
C4547 C4546 1.366 . S
C4547 C4548 1.414 . S
C4547 C4550 1.493 . S
C4548 H4528 0.950 . S
C4548 C4547 1.414 . S
C4548 C4549 1.374 . S
C4549 H4529 0.950 . S
C4549 C4545 1.385 . S
C4549 C4548 1.374 . S
C4550 C4547 1.493 . S
C4550 C4551 1.378 1_545 S
C4550 C4552 1.389 1_545 S
C4551 H4530 0.950 . S
C4551 C4550 1.378 1_565 S
C4551 C4567 1.377 . S
C4552 C4550 1.389 1_565 S
C4552 C4553 1.516 1_565 S
C4552 C4566 1.385 . S
C4553 C4552 1.516 1_545 S
C4553 C4554 1.397 . S
C4553 C4558 1.363 . S
C4554 H4531 0.950 . S
C4554 C4553 1.397 . S
C4554 C4555 1.334 . S
C4555 H4532 0.950 . S
C4555 C4554 1.334 . S
C4555 C4556 1.287 . S
C4556 C4555 1.287 . S
C4556 C4557 1.524 . S
C4556 H4575 0.913 . S
C4557 H4533 0.950 . S
C4557 C4556 1.524 . S
C4557 C4558 1.415 . S
C4558 H4534 0.950 . S
C4558 C4553 1.363 . S
C4558 C4557 1.415 . S
C4559 H4535 0.951 . S
C4559 C4560 1.366 . S
C4559 C4561 1.388 . S
C4560 C4559 1.366 . S
C4560 C4564 1.385 . S
C4561 H4536 0.951 . S
C4561 C4559 1.388 . S
C4561 C4562 1.366 . S
C4562 C4561 1.366 . S
C4562 C4563 1.414 . S
C4562 C4565 1.499 . S
C4563 H4537 0.950 . S
C4563 C4562 1.414 . S
C4563 C4564 1.374 . S
C4564 H4538 0.950 . S
C4564 C4560 1.385 . S
C4564 C4563 1.374 . S
C4565 C4562 1.499 . S
C4565 C4566 1.373 . S
C4565 C4567 1.389 . S
C4566 H4539 0.950 . S
C4566 C4552 1.385 . S
C4566 C4565 1.373 . S
C4567 C4551 1.377 . S
C4567 C4565 1.389 . S
C4567 C4568 1.524 . S
C4568 C4567 1.524 . S
C4568 C4569 1.397 . S
C4568 C4573 1.363 . S
C4569 H4540 0.950 . S
C4569 C4568 1.397 . S
C4569 C4570 1.334 . S
C4570 H4541 0.950 . S
C4570 C4569 1.334 . S
C4570 C4571 1.287 . S
C4571 C4570 1.287 . S
C4571 C4572 1.524 . S
C4571 H4574 0.999 . S
C4572 H4542 0.950 . S
C4572 C4571 1.524 . S
C4572 C4573 1.415 . S
C4573 H4543 0.950 . S
C4573 C4568 1.363 . S
C4573 C4572 1.415 . S
H4574 C4571 0.999 . S
H4575 C4556 0.913 . S
H4576 C4594 0.951 . S
H4577 C4596 0.951 . S
H4578 C4598 0.950 . S
H4579 C4599 0.950 . S
H4580 C4601 0.950 . S
H4581 C4604 0.950 . S
H4582 C4605 0.950 . S
H4583 C4607 0.950 . S
H4584 C4608 0.950 . S
H4585 C4609 0.951 . S
H4586 C4611 0.951 . S
H4587 C4613 0.950 . S
H4588 C4614 0.950 . S
H4589 C4616 0.950 . S
H4590 C4619 0.950 . S
H4591 C4620 0.950 . S
H4592 C4622 0.950 . S
H4593 C4623 0.950 . S
C4594 H4576 0.951 . S
C4594 C4595 1.366 . S
C4594 C4596 1.388 . S
C4595 C4594 1.366 . S
C4595 C4599 1.385 . S
C4596 H4577 0.951 . S
C4596 C4594 1.388 . S
C4596 C4597 1.366 . S
C4597 C4596 1.366 . S
C4597 C4598 1.414 . S
C4597 C4600 1.499 . S
C4598 H4578 0.950 . S
C4598 C4597 1.414 . S
C4598 C4599 1.374 . S
C4599 H4579 0.950 . S
C4599 C4595 1.385 . S
C4599 C4598 1.374 . S
C4600 C4597 1.499 . S
C4600 C4601 1.373 . S
C4600 C4602 1.389 . S
C4601 H4580 0.950 . S
C4601 C4600 1.373 . S
C4601 C4617 1.377 . S
C4602 C4600 1.389 . S
C4602 C4603 1.524 . S
C4602 C4616 1.377 . S
C4603 C4602 1.524 . S
C4603 C4604 1.397 . S
C4603 C4608 1.363 . S
C4604 H4581 0.950 . S
C4604 C4603 1.397 . S
C4604 C4605 1.334 . S
C4605 H4582 0.950 . S
C4605 C4604 1.334 . S
C4605 C4606 1.287 . S
C4606 C4605 1.287 . S
C4606 C4607 1.524 . S
C4606 H4625 0.913 . S
C4607 H4583 0.950 . S
C4607 C4606 1.524 . S
C4607 C4608 1.415 . S
C4608 H4584 0.950 . S
C4608 C4603 1.363 . S
C4608 C4607 1.415 . S
C4609 H4585 0.951 . S
C4609 C4610 1.366 . S
C4609 C4611 1.388 . S
C4610 C4609 1.366 . S
C4610 C4614 1.385 . S
C4611 H4586 0.951 . S
C4611 C4609 1.388 . S
C4611 C4612 1.366 . S
C4612 C4611 1.366 . S
C4612 C4613 1.414 . S
C4612 C4615 1.499 . S
C4613 H4587 0.950 . S
C4613 C4612 1.414 . S
C4613 C4614 1.374 . S
C4614 H4588 0.950 . S
C4614 C4610 1.385 . S
C4614 C4613 1.374 . S
C4615 C4612 1.499 . S
C4615 C4616 1.373 . S
C4615 C4617 1.389 . S
C4616 H4589 0.950 . S
C4616 C4602 1.377 . S
C4616 C4615 1.373 . S
C4617 C4601 1.377 . S
C4617 C4615 1.389 . S
C4617 C4618 1.524 . S
C4618 C4617 1.524 . S
C4618 C4619 1.397 . S
C4618 C4623 1.363 . S
C4619 H4590 0.950 . S
C4619 C4618 1.397 . S
C4619 C4620 1.334 . S
C4620 H4591 0.950 . S
C4620 C4619 1.334 . S
C4620 C4621 1.287 . S
C4621 C4620 1.287 . S
C4621 C4622 1.524 . S
C4621 H4624 0.999 . S
C4622 H4592 0.950 . S
C4622 C4621 1.524 . S
C4622 C4623 1.415 . S
C4623 H4593 0.950 . S
C4623 C4618 1.363 . S
C4623 C4622 1.415 . S
H4624 C4621 0.999 . S
H4625 C4606 0.913 . S
H4626 C4644 0.951 . S
H4627 C4646 0.951 . S
H4628 C4648 0.950 . S
H4629 C4649 0.950 . S
H4630 C4651 0.950 . S
H4631 C4654 0.950 . S
H4632 C4655 0.950 . S
H4633 C4657 0.950 . S
H4634 C4658 0.950 . S
H4635 C4659 0.951 . S
H4636 C4661 0.951 . S
H4637 C4663 0.950 . S
H4638 C4664 0.950 . S
H4639 C4666 0.950 . S
H4640 C4669 0.950 . S
H4641 C4670 0.950 . S
H4642 C4672 0.950 . S
H4643 C4673 0.950 . S
C4644 H4626 0.951 . S
C4644 C4645 1.366 . S
C4644 C4646 1.388 . S
C4645 C4644 1.366 . S
C4645 C4649 1.385 . S
C4646 H4627 0.951 . S
C4646 C4644 1.388 . S
C4646 C4647 1.366 . S
C4647 C4646 1.366 . S
C4647 C4648 1.414 . S
C4647 C4650 1.499 . S
C4648 H4628 0.950 . S
C4648 C4647 1.414 . S
C4648 C4649 1.374 . S
C4649 H4629 0.950 . S
C4649 C4645 1.385 . S
C4649 C4648 1.374 . S
C4650 C4647 1.499 . S
C4650 C4651 1.373 . S
C4650 C4652 1.389 . S
C4651 H4630 0.950 . S
C4651 C4650 1.373 . S
C4651 C4667 1.377 . S
C4652 C4650 1.389 . S
C4652 C4653 1.524 . S
C4652 C4666 1.377 . S
C4653 C4652 1.524 . S
C4653 C4654 1.397 . S
C4653 C4658 1.363 . S
C4654 H4631 0.950 . S
C4654 C4653 1.397 . S
C4654 C4655 1.334 . S
C4655 H4632 0.950 . S
C4655 C4654 1.334 . S
C4655 C4656 1.287 . S
C4656 C4655 1.287 . S
C4656 C4657 1.524 . S
C4656 H4675 0.913 . S
C4657 H4633 0.950 . S
C4657 C4656 1.524 . S
C4657 C4658 1.415 . S
C4658 H4634 0.950 . S
C4658 C4653 1.363 . S
C4658 C4657 1.415 . S
C4659 H4635 0.951 . S
C4659 C4660 1.366 . S
C4659 C4661 1.388 . S
C4660 C4659 1.366 . S
C4660 C4664 1.385 . S
C4661 H4636 0.951 . S
C4661 C4659 1.388 . S
C4661 C4662 1.366 . S
C4662 C4661 1.366 . S
C4662 C4663 1.414 . S
C4662 C4665 1.499 . S
C4663 H4637 0.950 . S
C4663 C4662 1.414 . S
C4663 C4664 1.374 . S
C4664 H4638 0.950 . S
C4664 C4660 1.385 . S
C4664 C4663 1.374 . S
C4665 C4662 1.499 . S
C4665 C4666 1.373 . S
C4665 C4667 1.389 . S
C4666 H4639 0.950 . S
C4666 C4652 1.377 . S
C4666 C4665 1.373 . S
C4667 C4651 1.377 . S
C4667 C4665 1.389 . S
C4667 C4668 1.524 . S
C4668 C4667 1.524 . S
C4668 C4669 1.397 . S
C4668 C4673 1.363 . S
C4669 H4640 0.950 . S
C4669 C4668 1.397 . S
C4669 C4670 1.334 . S
C4670 H4641 0.950 . S
C4670 C4669 1.334 . S
C4670 C4671 1.287 . S
C4671 C4670 1.287 . S
C4671 C4672 1.524 . S
C4671 H4674 0.999 . S
C4672 H4642 0.950 . S
C4672 C4671 1.524 . S
C4672 C4673 1.415 . S
C4673 H4643 0.950 . S
C4673 C4668 1.363 . S
C4673 C4672 1.415 . S
H4674 C4671 0.999 . S
H4675 C4656 0.913 . S
H4676 C4694 0.951 . S
H4677 C4696 0.951 . S
H4678 C4698 0.950 . S
H4679 C4699 0.950 . S
H4680 C4701 0.950 . S
H4681 C4704 0.950 . S
H4682 C4705 0.950 . S
H4683 C4707 0.950 . S
H4684 C4708 0.950 . S
H4685 C4709 0.951 . S
H4686 C4711 0.951 . S
H4687 C4713 0.950 . S
H4688 C4714 0.950 . S
H4689 C4716 0.950 . S
H4690 C4719 0.950 . S
H4691 C4720 0.950 . S
H4692 C4722 0.950 . S
H4693 C4723 0.950 . S
C4694 H4676 0.951 . S
C4694 C4695 1.366 . S
C4694 C4696 1.388 . S
C4695 C4694 1.366 . S
C4695 C4699 1.385 . S
C4696 H4677 0.951 . S
C4696 C4694 1.388 . S
C4696 C4697 1.366 . S
C4697 C4696 1.366 . S
C4697 C4698 1.414 . S
C4697 C4700 1.499 . S
C4698 H4678 0.950 . S
C4698 C4697 1.414 . S
C4698 C4699 1.374 . S
C4699 H4679 0.950 . S
C4699 C4695 1.385 . S
C4699 C4698 1.374 . S
C4700 C4697 1.499 . S
C4700 C4701 1.373 1_455 S
C4700 C4702 1.389 . S
C4701 H4680 0.950 . S
C4701 C4700 1.373 1_655 S
C4701 C4717 1.377 . S
C4702 C4700 1.389 . S
C4702 C4703 1.524 . S
C4702 C4716 1.377 . S
C4703 C4702 1.524 . S
C4703 C4704 1.397 . S
C4703 C4708 1.363 . S
C4704 H4681 0.950 . S
C4704 C4703 1.397 . S
C4704 C4705 1.334 . S
C4705 H4682 0.950 . S
C4705 C4704 1.334 . S
C4705 C4706 1.287 . S
C4706 C4705 1.287 . S
C4706 C4707 1.524 . S
C4706 H4725 0.913 . S
C4707 H4683 0.950 . S
C4707 C4706 1.524 . S
C4707 C4708 1.415 . S
C4708 H4684 0.950 . S
C4708 C4703 1.363 . S
C4708 C4707 1.415 . S
C4709 H4685 0.951 . S
C4709 C4710 1.366 . S
C4709 C4711 1.388 . S
C4710 C4709 1.366 . S
C4710 C4714 1.385 . S
C4711 H4686 0.951 . S
C4711 C4709 1.388 . S
C4711 C4712 1.366 . S
C4712 C4711 1.366 . S
C4712 C4713 1.414 . S
C4712 C4715 1.499 . S
C4713 H4687 0.950 . S
C4713 C4712 1.414 . S
C4713 C4714 1.374 . S
C4714 H4688 0.950 . S
C4714 C4710 1.385 . S
C4714 C4713 1.374 . S
C4715 C4712 1.499 . S
C4715 C4716 1.373 . S
C4715 C4717 1.389 1_455 S
C4716 H4689 0.950 . S
C4716 C4702 1.377 . S
C4716 C4715 1.373 . S
C4717 C4701 1.377 . S
C4717 C4715 1.389 1_655 S
C4717 C4718 1.524 . S
C4718 C4717 1.524 . S
C4718 C4719 1.397 . S
C4718 C4723 1.363 . S
C4719 H4690 0.950 . S
C4719 C4718 1.397 . S
C4719 C4720 1.334 . S
C4720 H4691 0.950 . S
C4720 C4719 1.334 . S
C4720 C4721 1.287 . S
C4721 C4720 1.287 . S
C4721 C4722 1.524 . S
C4721 H4724 0.999 . S
C4722 H4692 0.950 . S
C4722 C4721 1.524 . S
C4722 C4723 1.415 . S
C4723 H4693 0.950 . S
C4723 C4718 1.363 . S
C4723 C4722 1.415 . S
H4724 C4721 0.999 . S
H4725 C4706 0.913 . S
H4726 C4744 0.951 . S
H4727 C4746 0.951 . S
H4728 C4748 0.950 . S
H4729 C4749 0.950 . S
H4730 C4751 0.950 . S
H4731 C4754 0.950 . S
H4732 C4755 0.950 . S
H4733 C4757 0.950 . S
H4734 C4758 0.950 . S
H4735 C4759 0.951 . S
H4736 C4761 0.951 . S
H4737 C4763 0.950 . S
H4738 C4764 0.950 . S
H4739 C4766 0.950 . S
H4740 C4769 0.950 . S
H4741 C4770 0.950 . S
H4742 C4772 0.950 . S
H4743 C4773 0.950 . S
C4744 H4726 0.951 . S
C4744 C4745 1.366 . S
C4744 C4746 1.388 . S
C4745 C4744 1.366 . S
C4745 C4749 1.385 . S
C4746 H4727 0.951 . S
C4746 C4744 1.388 . S
C4746 C4747 1.366 . S
C4747 C4746 1.366 . S
C4747 C4748 1.414 . S
C4747 C4750 1.499 . S
C4748 H4728 0.950 . S
C4748 C4747 1.414 . S
C4748 C4749 1.374 . S
C4749 H4729 0.950 . S
C4749 C4745 1.385 . S
C4749 C4748 1.374 . S
C4750 C4747 1.499 . S
C4750 C4751 1.373 . S
C4750 C4752 1.389 . S
C4751 H4730 0.950 . S
C4751 C4750 1.373 . S
C4751 C4767 1.377 . S
C4752 C4750 1.389 . S
C4752 C4753 1.524 . S
C4752 C4766 1.377 . S
C4753 C4752 1.524 . S
C4753 C4754 1.397 . S
C4753 C4758 1.363 . S
C4754 H4731 0.950 . S
C4754 C4753 1.397 . S
C4754 C4755 1.334 . S
C4755 H4732 0.950 . S
C4755 C4754 1.334 . S
C4755 C4756 1.287 . S
C4756 C4755 1.287 . S
C4756 C4757 1.524 . S
C4756 H4775 0.913 . S
C4757 H4733 0.950 . S
C4757 C4756 1.524 . S
C4757 C4758 1.415 . S
C4758 H4734 0.950 . S
C4758 C4753 1.363 . S
C4758 C4757 1.415 . S
C4759 H4735 0.951 . S
C4759 C4760 1.366 . S
C4759 C4761 1.388 . S
C4760 C4759 1.366 . S
C4760 C4764 1.385 . S
C4761 H4736 0.951 . S
C4761 C4759 1.388 . S
C4761 C4762 1.366 . S
C4762 C4761 1.366 . S
C4762 C4763 1.414 . S
C4762 C4765 1.499 . S
C4763 H4737 0.950 . S
C4763 C4762 1.414 . S
C4763 C4764 1.374 . S
C4764 H4738 0.950 . S
C4764 C4760 1.385 . S
C4764 C4763 1.374 . S
C4765 C4762 1.499 . S
C4765 C4766 1.373 . S
C4765 C4767 1.389 . S
C4766 H4739 0.950 . S
C4766 C4752 1.377 . S
C4766 C4765 1.373 . S
C4767 C4751 1.377 . S
C4767 C4765 1.389 . S
C4767 C4768 1.524 . S
C4768 C4767 1.524 . S
C4768 C4769 1.397 . S
C4768 C4773 1.363 . S
C4769 H4740 0.950 . S
C4769 C4768 1.397 . S
C4769 C4770 1.334 . S
C4770 H4741 0.950 . S
C4770 C4769 1.334 . S
C4770 C4771 1.287 . S
C4771 C4770 1.287 . S
C4771 C4772 1.524 . S
C4771 H4774 0.999 . S
C4772 H4742 0.950 . S
C4772 C4771 1.524 . S
C4772 C4773 1.415 . S
C4773 H4743 0.950 . S
C4773 C4768 1.363 . S
C4773 C4772 1.415 . S
H4774 C4771 0.999 . S
H4775 C4756 0.913 . S
H4776 C4794 0.951 . S
H4777 C4796 0.951 . S
H4778 C4798 0.950 . S
H4779 C4799 0.950 . S
H4780 C4801 0.950 . S
H4781 C4804 0.950 . S
H4782 C4805 0.950 . S
H4783 C4807 0.950 . S
H4784 C4808 0.950 . S
H4785 C4809 0.951 . S
H4786 C4811 0.951 . S
H4787 C4813 0.950 1_556 S
H4788 C4814 0.950 . S
H4789 C4816 0.950 . S
H4790 C4819 0.950 . S
H4791 C4820 0.950 . S
H4792 C4822 0.950 . S
H4793 C4823 0.950 . S
C4794 H4776 0.951 . S
C4794 C4795 1.366 . S
C4794 C4796 1.388 . S
C4795 C4794 1.366 . S
C4795 C4799 1.385 . S
C4796 H4777 0.951 . S
C4796 C4794 1.388 . S
C4796 C4797 1.366 . S
C4797 C4796 1.366 . S
C4797 C4798 1.414 . S
C4797 C4800 1.499 . S
C4798 H4778 0.950 . S
C4798 C4797 1.414 . S
C4798 C4799 1.374 . S
C4799 H4779 0.950 . S
C4799 C4795 1.385 . S
C4799 C4798 1.374 . S
C4800 C4797 1.499 . S
C4800 C4801 1.373 1_556 S
C4800 C4802 1.389 . S
C4801 H4780 0.950 . S
C4801 C4800 1.373 1_554 S
C4801 C4817 1.377 . S
C4802 C4800 1.389 . S
C4802 C4803 1.524 . S
C4802 C4816 1.377 . S
C4803 C4802 1.524 . S
C4803 C4804 1.397 . S
C4803 C4808 1.363 . S
C4804 H4781 0.950 . S
C4804 C4803 1.397 . S
C4804 C4805 1.334 . S
C4805 H4782 0.950 . S
C4805 C4804 1.334 . S
C4805 C4806 1.287 . S
C4806 C4805 1.287 . S
C4806 C4807 1.524 . S
C4806 H4825 0.913 . S
C4807 H4783 0.950 . S
C4807 C4806 1.524 . S
C4807 C4808 1.415 . S
C4808 H4784 0.950 . S
C4808 C4803 1.363 . S
C4808 C4807 1.415 . S
C4809 H4785 0.951 . S
C4809 C4810 1.366 . S
C4809 C4811 1.388 . S
C4810 C4809 1.366 . S
C4810 C4814 1.385 . S
C4811 H4786 0.951 . S
C4811 C4809 1.388 . S
C4811 C4812 1.366 . S
C4812 C4811 1.366 . S
C4812 C4813 1.414 . S
C4812 C4815 1.498 . S
C4813 H4787 0.950 1_554 S
C4813 C4812 1.414 . S
C4813 C4814 1.374 . S
C4814 H4788 0.950 . S
C4814 C4810 1.385 . S
C4814 C4813 1.374 . S
C4815 C4812 1.498 . S
C4815 C4816 1.374 1_554 S
C4815 C4817 1.389 . S
C4816 H4789 0.950 . S
C4816 C4802 1.377 . S
C4816 C4815 1.374 1_556 S
C4817 C4801 1.377 . S
C4817 C4815 1.389 . S
C4817 C4818 1.524 . S
C4818 C4817 1.524 . S
C4818 C4819 1.397 . S
C4818 C4823 1.363 . S
C4819 H4790 0.950 . S
C4819 C4818 1.397 . S
C4819 C4820 1.334 . S
C4820 H4791 0.950 . S
C4820 C4819 1.334 . S
C4820 C4821 1.287 . S
C4821 C4820 1.287 . S
C4821 C4822 1.524 . S
C4821 H4824 0.999 . S
C4822 H4792 0.950 . S
C4822 C4821 1.524 . S
C4822 C4823 1.415 . S
C4823 H4793 0.950 . S
C4823 C4818 1.363 . S
C4823 C4822 1.415 . S
H4824 C4821 0.999 . S
H4825 C4806 0.913 . S
H4826 C4844 0.951 . S
H4827 C4846 0.951 . S
H4828 C4848 0.950 . S
H4829 C4849 0.950 . S
H4830 C4851 0.950 . S
H4831 C4854 0.950 . S
H4832 C4855 0.950 . S
H4833 C4857 0.950 . S
H4834 C4858 0.950 . S
H4835 C4859 0.951 . S
H4836 C4861 0.951 . S
H4837 C4863 0.950 . S
H4838 C4864 0.950 . S
H4839 C4866 0.950 . S
H4840 C4869 0.950 . S
H4841 C4870 0.950 . S
H4842 C4872 0.950 . S
H4843 C4873 0.950 . S
C4844 H4826 0.951 . S
C4844 C4845 1.366 . S
C4844 C4846 1.388 . S
C4845 C4844 1.366 . S
C4845 C4849 1.385 . S
C4846 H4827 0.951 . S
C4846 C4844 1.388 . S
C4846 C4847 1.366 . S
C4847 C4846 1.366 . S
C4847 C4848 1.414 . S
C4847 C4850 1.499 . S
C4848 H4828 0.950 . S
C4848 C4847 1.414 . S
C4848 C4849 1.374 . S
C4849 H4829 0.950 . S
C4849 C4845 1.385 . S
C4849 C4848 1.374 . S
C4850 C4847 1.499 . S
C4850 C4851 1.373 . S
C4850 C4852 1.389 . S
C4851 H4830 0.950 . S
C4851 C4850 1.373 . S
C4851 C4867 1.377 . S
C4852 C4850 1.389 . S
C4852 C4853 1.524 . S
C4852 C4866 1.377 . S
C4853 C4852 1.524 . S
C4853 C4854 1.397 . S
C4853 C4858 1.363 . S
C4854 H4831 0.950 . S
C4854 C4853 1.397 . S
C4854 C4855 1.334 . S
C4855 H4832 0.950 . S
C4855 C4854 1.334 . S
C4855 C4856 1.287 . S
C4856 C4855 1.287 . S
C4856 C4857 1.524 . S
C4856 H4875 0.913 . S
C4857 H4833 0.950 . S
C4857 C4856 1.524 . S
C4857 C4858 1.415 . S
C4858 H4834 0.950 . S
C4858 C4853 1.363 . S
C4858 C4857 1.415 . S
C4859 H4835 0.951 . S
C4859 C4860 1.366 . S
C4859 C4861 1.388 . S
C4860 C4859 1.366 . S
C4860 C4864 1.385 . S
C4861 H4836 0.951 . S
C4861 C4859 1.388 . S
C4861 C4862 1.366 . S
C4862 C4861 1.366 . S
C4862 C4863 1.414 . S
C4862 C4865 1.499 . S
C4863 H4837 0.950 . S
C4863 C4862 1.414 . S
C4863 C4864 1.374 . S
C4864 H4838 0.950 . S
C4864 C4860 1.385 . S
C4864 C4863 1.374 . S
C4865 C4862 1.499 . S
C4865 C4866 1.373 . S
C4865 C4867 1.389 . S
C4866 H4839 0.950 . S
C4866 C4852 1.377 . S
C4866 C4865 1.373 . S
C4867 C4851 1.377 . S
C4867 C4865 1.389 . S
C4867 C4868 1.524 . S
C4868 C4867 1.524 . S
C4868 C4869 1.397 . S
C4868 C4873 1.363 . S
C4869 H4840 0.950 . S
C4869 C4868 1.397 . S
C4869 C4870 1.334 . S
C4870 H4841 0.950 . S
C4870 C4869 1.334 . S
C4870 C4871 1.287 . S
C4871 C4870 1.287 . S
C4871 C4872 1.524 . S
C4871 H4874 0.999 . S
C4872 H4842 0.950 . S
C4872 C4871 1.524 . S
C4872 C4873 1.415 . S
C4873 H4843 0.950 . S
C4873 C4868 1.363 . S
C4873 C4872 1.415 . S
H4874 C4871 0.999 . S
H4875 C4856 0.913 . S
H4876 C4894 0.951 . S
H4877 C4896 0.951 . S
H4878 C4898 0.950 . S
H4879 C4899 0.950 . S
H4880 C4901 0.950 . S
H4881 C4904 0.950 . S
H4882 C4905 0.950 . S
H4883 C4907 0.950 . S
H4884 C4908 0.990 . S
H4885 C4909 0.951 . S
H4886 C4911 0.951 . S
H4887 C4913 0.950 . S
H4888 C4914 0.950 1_655 S
H4889 C4916 0.950 . S
H4890 C4919 0.950 . S
H4891 C4920 0.950 . S
H4892 C4922 0.950 . S
H4893 C4923 0.950 . S
C4894 H4876 0.951 . S
C4894 C4895 1.366 . S
C4894 C4896 1.388 . S
C4895 C4894 1.366 . S
C4895 C4899 1.385 . S
C4896 H4877 0.951 . S
C4896 C4894 1.388 . S
C4896 C4897 1.366 . S
C4897 C4896 1.366 . S
C4897 C4898 1.414 . S
C4897 C4900 1.499 . S
C4898 H4878 0.950 . S
C4898 C4897 1.414 . S
C4898 C4899 1.374 . S
C4899 H4879 0.950 . S
C4899 C4895 1.385 . S
C4899 C4898 1.374 . S
C4900 C4897 1.499 . S
C4900 C4901 1.373 . S
C4900 C4902 1.389 . S
C4901 H4880 0.950 . S
C4901 C4900 1.373 . S
C4901 C4917 1.377 . S
C4902 C4900 1.389 . S
C4902 C4903 1.524 . S
C4902 C4916 1.377 . S
C4903 C4902 1.524 . S
C4903 C4904 1.397 . S
C4903 C4908 1.307 1_455 S
C4904 H4881 0.950 . S
C4904 C4903 1.397 . S
C4904 C4905 1.334 . S
C4905 H4882 0.950 . S
C4905 C4904 1.334 . S
C4905 C4906 1.287 . S
C4906 C4905 1.287 . S
C4906 C4907 1.524 1_455 S
C4906 H4925 0.901 1_455 S
C4907 H4883 0.950 . S
C4907 C4906 1.524 1_655 S
C4907 C4908 1.433 . S
C4908 H4884 0.990 . S
C4908 C4903 1.307 1_655 S
C4908 C4907 1.433 . S
C4909 H4885 0.951 . S
C4909 C4910 1.366 . S
C4909 C4911 1.388 . S
C4910 C4909 1.366 . S
C4910 C4914 1.385 . S
C4911 H4886 0.951 . S
C4911 C4909 1.388 . S
C4911 C4912 1.366 . S
C4912 C4911 1.366 . S
C4912 C4913 1.414 . S
C4912 C4915 1.499 . S
C4913 H4887 0.950 . S
C4913 C4912 1.414 . S
C4913 C4914 1.374 . S
C4914 H4888 0.950 1_455 S
C4914 C4910 1.385 . S
C4914 C4913 1.374 . S
C4915 C4912 1.499 . S
C4915 C4916 1.373 . S
C4915 C4917 1.389 . S
C4916 H4889 0.950 . S
C4916 C4902 1.377 . S
C4916 C4915 1.373 . S
C4917 C4901 1.377 . S
C4917 C4915 1.389 . S
C4917 C4918 1.524 . S
C4918 C4917 1.524 . S
C4918 C4919 1.397 . S
C4918 C4923 1.363 . S
C4919 H4890 0.950 . S
C4919 C4918 1.397 . S
C4919 C4920 1.334 . S
C4920 H4891 0.950 . S
C4920 C4919 1.334 . S
C4920 C4921 1.287 . S
C4921 C4920 1.287 . S
C4921 C4922 1.524 . S
C4921 H4924 0.999 . S
C4922 H4892 0.950 . S
C4922 C4921 1.524 . S
C4922 C4923 1.415 . S
C4923 H4893 0.950 . S
C4923 C4918 1.363 . S
C4923 C4922 1.415 . S
H4924 C4921 0.999 . S
H4925 C4906 0.901 1_655 S
H4926 C4944 0.951 . S
H4927 C4946 0.951 . S
H4928 C4948 0.950 . S
H4929 C4949 0.950 . S
H4930 C4951 0.950 . S
H4931 C4954 0.950 . S
H4932 C4955 0.950 . S
H4933 C4957 0.950 . S
H4934 C4958 0.950 . S
H4935 C4959 0.951 . S
H4936 C4961 0.951 . S
H4937 C4963 0.950 . S
H4938 C4964 0.950 . S
H4939 C4966 0.950 . S
H4940 C4969 0.950 . S
H4941 C4970 0.950 . S
H4942 C4972 0.950 . S
H4943 C4973 0.950 . S
C4944 H4926 0.951 . S
C4944 C4945 1.366 . S
C4944 C4946 1.388 . S
C4945 C4944 1.366 . S
C4945 C4949 1.385 . S
C4946 H4927 0.951 . S
C4946 C4944 1.388 . S
C4946 C4947 1.366 . S
C4947 C4946 1.366 . S
C4947 C4948 1.414 . S
C4947 C4950 1.499 . S
C4948 H4928 0.950 . S
C4948 C4947 1.414 . S
C4948 C4949 1.374 . S
C4949 H4929 0.950 . S
C4949 C4945 1.385 . S
C4949 C4948 1.374 . S
C4950 C4947 1.499 . S
C4950 C4951 1.373 . S
C4950 C4952 1.389 . S
C4951 H4930 0.950 . S
C4951 C4950 1.373 . S
C4951 C4967 1.377 . S
C4952 C4950 1.389 . S
C4952 C4953 1.524 . S
C4952 C4966 1.377 . S
C4953 C4952 1.524 . S
C4953 C4954 1.397 . S
C4953 C4958 1.363 . S
C4954 H4931 0.950 . S
C4954 C4953 1.397 . S
C4954 C4955 1.334 . S
C4955 H4932 0.950 . S
C4955 C4954 1.334 . S
C4955 C4956 1.287 . S
C4956 C4955 1.287 . S
C4956 C4957 1.524 . S
C4956 H4975 0.913 . S
C4957 H4933 0.950 . S
C4957 C4956 1.524 . S
C4957 C4958 1.415 . S
C4958 H4934 0.950 . S
C4958 C4953 1.363 . S
C4958 C4957 1.415 . S
C4959 H4935 0.951 . S
C4959 C4960 1.366 . S
C4959 C4961 1.388 . S
C4960 C4959 1.366 . S
C4960 C4964 1.385 . S
C4961 H4936 0.951 . S
C4961 C4959 1.388 . S
C4961 C4962 1.366 . S
C4962 C4961 1.366 . S
C4962 C4963 1.414 . S
C4962 C4965 1.499 . S
C4963 H4937 0.950 . S
C4963 C4962 1.414 . S
C4963 C4964 1.374 . S
C4964 H4938 0.950 . S
C4964 C4960 1.385 . S
C4964 C4963 1.374 . S
C4965 C4962 1.499 . S
C4965 C4966 1.373 . S
C4965 C4967 1.389 . S
C4966 H4939 0.950 . S
C4966 C4952 1.377 . S
C4966 C4965 1.373 . S
C4967 C4951 1.377 . S
C4967 C4965 1.389 . S
C4967 C4968 1.524 . S
C4968 C4967 1.524 . S
C4968 C4969 1.397 . S
C4968 C4973 1.363 . S
C4969 H4940 0.950 . S
C4969 C4968 1.397 . S
C4969 C4970 1.334 . S
C4970 H4941 0.950 . S
C4970 C4969 1.334 . S
C4970 C4971 1.287 . S
C4971 C4970 1.287 . S
C4971 C4972 1.524 . S
C4971 H4974 0.999 . S
C4972 H4942 0.950 . S
C4972 C4971 1.524 . S
C4972 C4973 1.415 . S
C4973 H4943 0.950 . S
C4973 C4968 1.363 . S
C4973 C4972 1.415 . S
H4974 C4971 0.999 . S
H4975 C4956 0.913 . S
H4976 C4994 0.951 . S
H4977 C4996 0.951 . S
H4978 C4998 0.950 . S
H4979 C4999 0.950 . S
H4980 C5001 0.950 . S
H4981 C5004 0.950 . S
H4982 C5005 0.950 . S
H4983 C5007 0.950 . S
H4984 C5008 0.950 . S
H4985 C5009 0.951 . S
H4986 C5011 0.951 . S
H4987 C5013 0.950 . S
H4988 C5014 0.950 . S
H4989 C5016 0.950 . S
H4990 C5019 0.950 . S
H4991 C5020 0.950 . S
H4992 C5022 0.950 . S
H4993 C5023 0.950 . S
C4994 H4976 0.951 . S
C4994 C4995 1.366 . S
C4994 C4996 1.388 . S
C4995 C4994 1.366 . S
C4995 C4999 1.385 . S
C4996 H4977 0.951 . S
C4996 C4994 1.388 . S
C4996 C4997 1.366 . S
C4997 C4996 1.366 . S
C4997 C4998 1.414 . S
C4997 C5000 1.499 . S
C4998 H4978 0.950 . S
C4998 C4997 1.414 . S
C4998 C4999 1.374 . S
C4999 H4979 0.950 . S
C4999 C4995 1.385 . S
C4999 C4998 1.374 . S
C5000 C4997 1.499 . S
C5000 C5001 1.373 . S
C5000 C5002 1.389 . S
C5001 H4980 0.950 . S
C5001 C5000 1.373 . S
C5001 C5017 1.377 . S
C5002 C5000 1.389 . S
C5002 C5003 1.524 . S
C5002 C5016 1.377 . S
C5003 C5002 1.524 . S
C5003 C5004 1.397 . S
C5003 C5008 1.363 . S
C5004 H4981 0.950 . S
C5004 C5003 1.397 . S
C5004 C5005 1.334 . S
C5005 H4982 0.950 . S
C5005 C5004 1.334 . S
C5005 C5006 1.287 . S
C5006 C5005 1.287 . S
C5006 C5007 1.524 . S
C5006 H5025 0.913 . S
C5007 H4983 0.950 . S
C5007 C5006 1.524 . S
C5007 C5008 1.415 . S
C5008 H4984 0.950 . S
C5008 C5003 1.363 . S
C5008 C5007 1.415 . S
C5009 H4985 0.951 . S
C5009 C5010 1.366 . S
C5009 C5011 1.388 . S
C5010 C5009 1.366 . S
C5010 C5014 1.385 . S
C5011 H4986 0.951 . S
C5011 C5009 1.388 . S
C5011 C5012 1.366 . S
C5012 C5011 1.366 . S
C5012 C5013 1.414 . S
C5012 C5015 1.499 . S
C5013 H4987 0.950 . S
C5013 C5012 1.414 . S
C5013 C5014 1.374 . S
C5014 H4988 0.950 . S
C5014 C5010 1.385 . S
C5014 C5013 1.374 . S
C5015 C5012 1.499 . S
C5015 C5016 1.373 . S
C5015 C5017 1.389 . S
C5016 H4989 0.950 . S
C5016 C5002 1.377 . S
C5016 C5015 1.373 . S
C5017 C5001 1.377 . S
C5017 C5015 1.389 . S
C5017 C5018 1.524 . S
C5018 C5017 1.524 . S
C5018 C5019 1.397 . S
C5018 C5023 1.363 . S
C5019 H4990 0.950 . S
C5019 C5018 1.397 . S
C5019 C5020 1.334 . S
C5020 H4991 0.950 . S
C5020 C5019 1.334 . S
C5020 C5021 1.287 . S
C5021 C5020 1.287 . S
C5021 C5022 1.524 . S
C5021 H5024 0.999 . S
C5022 H4992 0.950 . S
C5022 C5021 1.524 . S
C5022 C5023 1.415 . S
C5023 H4993 0.950 . S
C5023 C5018 1.363 . S
C5023 C5022 1.415 . S
H5024 C5021 0.999 . S
H5025 C5006 0.913 . S
H5026 C5044 0.951 . S
H5027 C5046 0.951 . S
H5028 C5048 0.950 . S
H5029 C5049 0.950 . S
H5030 C5051 0.950 . S
H5031 C5054 0.950 . S
H5032 C5055 0.950 . S
H5033 C5057 0.950 . S
H5034 C5058 0.950 . S
H5035 C5059 0.951 . S
H5036 C5061 0.951 . S
H5037 C5063 0.950 . S
H5038 C5064 0.950 . S
H5039 C5066 0.950 . S
H5040 C5069 0.950 . S
H5041 C5070 0.950 . S
H5042 C5072 0.950 . S
H5043 C5073 0.950 . S
C5044 H5026 0.951 . S
C5044 C5045 1.366 . S
C5044 C5046 1.388 . S
C5045 C5044 1.366 . S
C5045 C5049 1.385 . S
C5046 H5027 0.951 . S
C5046 C5044 1.388 . S
C5046 C5047 1.366 . S
C5047 C5046 1.366 . S
C5047 C5048 1.414 . S
C5047 C5050 1.499 . S
C5048 H5028 0.950 . S
C5048 C5047 1.414 . S
C5048 C5049 1.374 . S
C5049 H5029 0.950 . S
C5049 C5045 1.385 . S
C5049 C5048 1.374 . S
C5050 C5047 1.499 . S
C5050 C5051 1.373 . S
C5050 C5052 1.389 . S
C5051 H5030 0.950 . S
C5051 C5050 1.373 . S
C5051 C5067 1.377 . S
C5052 C5050 1.389 . S
C5052 C5053 1.524 . S
C5052 C5066 1.377 . S
C5053 C5052 1.524 . S
C5053 C5054 1.397 . S
C5053 C5058 1.363 . S
C5054 H5031 0.950 . S
C5054 C5053 1.397 . S
C5054 C5055 1.334 . S
C5055 H5032 0.950 . S
C5055 C5054 1.334 . S
C5055 C5056 1.287 . S
C5056 C5055 1.287 . S
C5056 C5057 1.524 . S
C5056 H5075 0.913 . S
C5057 H5033 0.950 . S
C5057 C5056 1.524 . S
C5057 C5058 1.415 . S
C5058 H5034 0.950 . S
C5058 C5053 1.363 . S
C5058 C5057 1.415 . S
C5059 H5035 0.951 . S
C5059 C5060 1.366 . S
C5059 C5061 1.388 . S
C5060 C5059 1.366 . S
C5060 C5064 1.385 . S
C5061 H5036 0.951 . S
C5061 C5059 1.388 . S
C5061 C5062 1.366 . S
C5062 C5061 1.366 . S
C5062 C5063 1.414 . S
C5062 C5065 1.499 . S
C5063 H5037 0.950 . S
C5063 C5062 1.414 . S
C5063 C5064 1.374 . S
C5064 H5038 0.950 . S
C5064 C5060 1.385 . S
C5064 C5063 1.374 . S
C5065 C5062 1.499 . S
C5065 C5066 1.373 . S
C5065 C5067 1.389 . S
C5066 H5039 0.950 . S
C5066 C5052 1.377 . S
C5066 C5065 1.373 . S
C5067 C5051 1.377 . S
C5067 C5065 1.389 . S
C5067 C5068 1.524 . S
C5068 C5067 1.524 . S
C5068 C5069 1.397 . S
C5068 C5073 1.363 . S
C5069 H5040 0.950 . S
C5069 C5068 1.397 . S
C5069 C5070 1.334 . S
C5070 H5041 0.950 . S
C5070 C5069 1.334 . S
C5070 C5071 1.287 . S
C5071 C5070 1.287 . S
C5071 C5072 1.524 . S
C5071 H5074 0.999 . S
C5072 H5042 0.950 . S
C5072 C5071 1.524 . S
C5072 C5073 1.415 . S
C5073 H5043 0.950 . S
C5073 C5068 1.363 . S
C5073 C5072 1.415 . S
H5074 C5071 0.999 . S
H5075 C5056 0.913 . S
H5076 C5094 0.951 . S
H5077 C5096 0.951 . S
H5078 C5098 0.950 . S
H5079 C5099 0.950 . S
H5080 C5101 0.950 . S
H5081 C5104 0.950 . S
H5082 C5105 0.950 . S
H5083 C5107 0.942 1_455 S
H5084 C5108 0.950 1_455 S
H5085 C5109 0.951 . S
H5086 C5111 0.951 . S
H5087 C5113 0.950 . S
H5088 C5114 0.950 . S
H5089 C5116 0.950 . S
H5090 C5119 0.950 1_455 S
H5091 C5120 0.950 1_455 S
H5092 C5122 0.950 . S
H5093 C5123 0.950 . S
C5094 H5076 0.951 . S
C5094 C5095 1.366 . S
C5094 C5096 1.388 . S
C5095 C5094 1.366 . S
C5095 C5099 1.385 . S
C5096 H5077 0.951 . S
C5096 C5094 1.388 . S
C5096 C5097 1.366 . S
C5097 C5096 1.366 . S
C5097 C5098 1.414 . S
C5097 C5100 1.499 . S
C5098 H5078 0.950 . S
C5098 C5097 1.414 . S
C5098 C5099 1.374 . S
C5099 H5079 0.950 . S
C5099 C5095 1.385 . S
C5099 C5098 1.374 . S
C5100 C5097 1.499 . S
C5100 C5101 1.373 . S
C5100 C5102 1.389 . S
C5101 H5080 0.950 . S
C5101 C5100 1.373 . S
C5101 C5117 1.377 . S
C5102 C5100 1.389 . S
C5102 C5103 1.524 . S
C5102 C5116 1.377 . S
C5103 C5102 1.524 . S
C5103 C5104 1.397 . S
C5103 C5108 1.363 . S
C5104 H5081 0.950 . S
C5104 C5103 1.397 . S
C5104 C5105 1.334 . S
C5105 H5082 0.950 . S
C5105 C5104 1.334 . S
C5105 C5106 1.287 . S
C5106 C5105 1.287 . S
C5106 C5107 1.530 . S
C5106 H5125 0.913 . S
C5107 H5083 0.942 1_655 S
C5107 C5106 1.530 . S
C5107 C5108 1.417 . S
C5108 H5084 0.950 1_655 S
C5108 C5103 1.363 . S
C5108 C5107 1.417 . S
C5109 H5085 0.951 . S
C5109 C5110 1.366 1_655 S
C5109 C5111 1.388 . S
C5110 C5109 1.366 1_455 S
C5110 C5114 1.385 . S
C5111 H5086 0.951 . S
C5111 C5109 1.388 . S
C5111 C5112 1.366 . S
C5112 C5111 1.366 . S
C5112 C5113 1.414 1_655 S
C5112 C5115 1.499 . S
C5113 H5087 0.950 . S
C5113 C5112 1.414 1_455 S
C5113 C5114 1.374 . S
C5114 H5088 0.950 . S
C5114 C5110 1.385 . S
C5114 C5113 1.374 . S
C5115 C5112 1.499 . S
C5115 C5116 1.373 . S
C5115 C5117 1.389 . S
C5116 H5089 0.950 . S
C5116 C5102 1.377 . S
C5116 C5115 1.373 . S
C5117 C5101 1.377 . S
C5117 C5115 1.389 . S
C5117 C5118 1.524 . S
C5118 C5117 1.524 . S
C5118 C5119 1.397 . S
C5118 C5123 1.363 . S
C5119 H5090 0.950 1_655 S
C5119 C5118 1.397 . S
C5119 C5120 1.334 . S
C5120 H5091 0.950 1_655 S
C5120 C5119 1.334 . S
C5120 C5121 1.287 . S
C5121 C5120 1.287 . S
C5121 C5122 1.524 . S
C5121 H5124 0.999 . S
C5122 H5092 0.950 . S
C5122 C5121 1.524 . S
C5122 C5123 1.415 . S
C5123 H5093 0.950 . S
C5123 C5118 1.363 . S
C5123 C5122 1.415 . S
H5124 C5121 0.999 . S
H5125 C5106 0.913 . S
H5126 C5144 0.951 . S
H5127 C5146 0.951 . S
H5128 C5148 0.950 . S
H5129 C5149 0.950 . S
H5130 C5151 0.950 . S
H5131 C5154 0.950 . S
H5132 C5155 0.950 . S
H5133 C5157 0.950 . S
H5134 C5158 0.950 . S
H5135 C5159 0.951 . S
H5136 C5161 0.951 . S
H5137 C5163 0.950 . S
H5138 C5164 0.950 . S
H5139 C5166 0.950 . S
H5140 C5169 0.950 . S
H5141 C5170 0.950 . S
H5142 C5172 0.950 . S
H5143 C5173 0.950 . S
C5144 H5126 0.951 . S
C5144 C5145 1.366 . S
C5144 C5146 1.388 . S
C5145 C5144 1.366 . S
C5145 C5149 1.385 . S
C5146 H5127 0.951 . S
C5146 C5144 1.388 . S
C5146 C5147 1.366 . S
C5147 C5146 1.366 . S
C5147 C5148 1.414 . S
C5147 C5150 1.499 . S
C5148 H5128 0.950 . S
C5148 C5147 1.414 . S
C5148 C5149 1.374 . S
C5149 H5129 0.950 . S
C5149 C5145 1.385 . S
C5149 C5148 1.374 . S
C5150 C5147 1.499 . S
C5150 C5151 1.373 . S
C5150 C5152 1.389 . S
C5151 H5130 0.950 . S
C5151 C5150 1.373 . S
C5151 C5167 1.377 . S
C5152 C5150 1.389 . S
C5152 C5153 1.524 . S
C5152 C5166 1.377 . S
C5153 C5152 1.524 . S
C5153 C5154 1.397 . S
C5153 C5158 1.363 . S
C5154 H5131 0.950 . S
C5154 C5153 1.397 . S
C5154 C5155 1.334 . S
C5155 H5132 0.950 . S
C5155 C5154 1.334 . S
C5155 C5156 1.287 . S
C5156 C5155 1.287 . S
C5156 C5157 1.524 . S
C5156 H5175 0.913 . S
C5157 H5133 0.950 . S
C5157 C5156 1.524 . S
C5157 C5158 1.415 . S
C5158 H5134 0.950 . S
C5158 C5153 1.363 . S
C5158 C5157 1.415 . S
C5159 H5135 0.951 . S
C5159 C5160 1.366 . S
C5159 C5161 1.388 . S
C5160 C5159 1.366 . S
C5160 C5164 1.385 . S
C5161 H5136 0.951 . S
C5161 C5159 1.388 . S
C5161 C5162 1.366 . S
C5162 C5161 1.366 . S
C5162 C5163 1.414 . S
C5162 C5165 1.499 . S
C5163 H5137 0.950 . S
C5163 C5162 1.414 . S
C5163 C5164 1.374 . S
C5164 H5138 0.950 . S
C5164 C5160 1.385 . S
C5164 C5163 1.374 . S
C5165 C5162 1.499 . S
C5165 C5166 1.373 . S
C5165 C5167 1.389 . S
C5166 H5139 0.950 . S
C5166 C5152 1.377 . S
C5166 C5165 1.373 . S
C5167 C5151 1.377 . S
C5167 C5165 1.389 . S
C5167 C5168 1.524 . S
C5168 C5167 1.524 . S
C5168 C5169 1.397 . S
C5168 C5173 1.363 . S
C5169 H5140 0.950 . S
C5169 C5168 1.397 . S
C5169 C5170 1.334 . S
C5170 H5141 0.950 . S
C5170 C5169 1.334 . S
C5170 C5171 1.287 . S
C5171 C5170 1.287 . S
C5171 C5172 1.524 . S
C5171 H5174 0.999 . S
C5172 H5142 0.950 . S
C5172 C5171 1.524 . S
C5172 C5173 1.415 . S
C5173 H5143 0.950 . S
C5173 C5168 1.363 . S
C5173 C5172 1.415 . S
H5174 C5171 0.999 . S
H5175 C5156 0.913 . S
H5176 C5194 0.951 . S
H5177 C5196 0.951 . S
H5178 C5198 0.950 . S
H5179 C5199 0.950 . S
H5180 C5201 0.950 . S
H5181 C5204 0.950 . S
H5182 C5205 0.950 . S
H5183 C5207 0.950 . S
H5184 C5208 0.950 . S
H5185 C5209 0.951 . S
H5186 C5211 0.951 . S
H5187 C5213 0.950 . S
H5188 C5214 0.950 . S
H5189 C5216 0.950 . S
H5190 C5219 0.950 . S
H5191 C5220 0.950 . S
H5192 C5222 0.950 . S
H5193 C5223 0.950 . S
C5194 H5176 0.951 . S
C5194 C5195 1.366 . S
C5194 C5196 1.388 . S
C5195 C5194 1.366 . S
C5195 C5199 1.385 . S
C5196 H5177 0.951 . S
C5196 C5194 1.388 . S
C5196 C5197 1.366 . S
C5197 C5196 1.366 . S
C5197 C5198 1.414 . S
C5197 C5200 1.499 . S
C5198 H5178 0.950 . S
C5198 C5197 1.414 . S
C5198 C5199 1.374 . S
C5199 H5179 0.950 . S
C5199 C5195 1.385 . S
C5199 C5198 1.374 . S
C5200 C5197 1.499 . S
C5200 C5201 1.373 . S
C5200 C5202 1.389 . S
C5201 H5180 0.950 . S
C5201 C5200 1.373 . S
C5201 C5217 1.377 . S
C5202 C5200 1.389 . S
C5202 C5203 1.524 . S
C5202 C5216 1.377 . S
C5203 C5202 1.524 . S
C5203 C5204 1.397 . S
C5203 C5208 1.363 . S
C5204 H5181 0.950 . S
C5204 C5203 1.397 . S
C5204 C5205 1.334 . S
C5205 H5182 0.950 . S
C5205 C5204 1.334 . S
C5205 C5206 1.287 . S
C5206 C5205 1.287 . S
C5206 C5207 1.524 . S
C5206 H5225 0.913 . S
C5207 H5183 0.950 . S
C5207 C5206 1.524 . S
C5207 C5208 1.415 . S
C5208 H5184 0.950 . S
C5208 C5203 1.363 . S
C5208 C5207 1.415 . S
C5209 H5185 0.951 . S
C5209 C5210 1.366 . S
C5209 C5211 1.388 . S
C5210 C5209 1.366 . S
C5210 C5214 1.385 . S
C5211 H5186 0.951 . S
C5211 C5209 1.388 . S
C5211 C5212 1.366 . S
C5212 C5211 1.366 . S
C5212 C5213 1.414 . S
C5212 C5215 1.499 . S
C5213 H5187 0.950 . S
C5213 C5212 1.414 . S
C5213 C5214 1.374 . S
C5214 H5188 0.950 . S
C5214 C5210 1.385 . S
C5214 C5213 1.374 . S
C5215 C5212 1.499 . S
C5215 C5216 1.373 . S
C5215 C5217 1.389 . S
C5216 H5189 0.950 . S
C5216 C5202 1.377 . S
C5216 C5215 1.373 . S
C5217 C5201 1.377 . S
C5217 C5215 1.389 . S
C5217 C5218 1.524 . S
C5218 C5217 1.524 . S
C5218 C5219 1.397 . S
C5218 C5223 1.363 . S
C5219 H5190 0.950 . S
C5219 C5218 1.397 . S
C5219 C5220 1.334 . S
C5220 H5191 0.950 . S
C5220 C5219 1.334 . S
C5220 C5221 1.287 . S
C5221 C5220 1.287 . S
C5221 C5222 1.524 . S
C5221 H5224 0.999 . S
C5222 H5192 0.950 . S
C5222 C5221 1.524 . S
C5222 C5223 1.415 . S
C5223 H5193 0.950 . S
C5223 C5218 1.363 . S
C5223 C5222 1.415 . S
H5224 C5221 0.999 . S
H5225 C5206 0.913 . S
H5226 C5244 0.951 . S
H5227 C5246 0.951 . S
H5228 C5248 0.950 . S
H5229 C5249 0.950 1_554 S
H5230 C5251 0.950 . S
H5231 C5254 0.950 . S
H5232 C5255 0.950 . S
H5233 C5257 0.950 . S
H5234 C5258 0.950 . S
H5235 C5259 0.951 . S
H5236 C5261 0.951 . S
H5237 C5263 0.950 . S
H5238 C5264 0.950 . S
H5239 C5266 0.950 . S
H5240 C5269 0.950 . S
H5241 C5270 0.950 . S
H5242 C5272 0.950 . S
H5243 C5273 0.950 . S
C5244 H5226 0.951 . S
C5244 C5245 1.366 . S
C5244 C5246 1.388 . S
C5245 C5244 1.366 . S
C5245 C5249 1.385 . S
C5246 H5227 0.951 . S
C5246 C5244 1.388 . S
C5246 C5247 1.366 . S
C5247 C5246 1.366 . S
C5247 C5248 1.414 . S
C5247 C5250 1.499 . S
C5248 H5228 0.950 . S
C5248 C5247 1.414 . S
C5248 C5249 1.374 . S
C5249 H5229 0.950 1_556 S
C5249 C5245 1.385 . S
C5249 C5248 1.374 . S
C5250 C5247 1.499 . S
C5250 C5251 1.373 . S
C5250 C5252 1.389 . S
C5251 H5230 0.950 . S
C5251 C5250 1.373 . S
C5251 C5267 1.377 . S
C5252 C5250 1.389 . S
C5252 C5253 1.524 . S
C5252 C5266 1.377 . S
C5253 C5252 1.524 . S
C5253 C5254 1.397 . S
C5253 C5258 1.363 . S
C5254 H5231 0.950 . S
C5254 C5253 1.397 . S
C5254 C5255 1.334 . S
C5255 H5232 0.950 . S
C5255 C5254 1.334 . S
C5255 C5256 1.287 . S
C5256 C5255 1.287 . S
C5256 C5257 1.524 . S
C5256 H5275 0.913 . S
C5257 H5233 0.950 . S
C5257 C5256 1.524 . S
C5257 C5258 1.415 . S
C5258 H5234 0.950 . S
C5258 C5253 1.363 . S
C5258 C5257 1.415 . S
C5259 H5235 0.951 . S
C5259 C5260 1.366 . S
C5259 C5261 1.388 . S
C5260 C5259 1.366 . S
C5260 C5264 1.385 . S
C5261 H5236 0.951 . S
C5261 C5259 1.388 . S
C5261 C5262 1.366 . S
C5262 C5261 1.366 . S
C5262 C5263 1.414 . S
C5262 C5265 1.499 . S
C5263 H5237 0.950 . S
C5263 C5262 1.414 . S
C5263 C5264 1.374 . S
C5264 H5238 0.950 . S
C5264 C5260 1.385 . S
C5264 C5263 1.374 . S
C5265 C5262 1.499 . S
C5265 C5266 1.373 . S
C5265 C5267 1.389 . S
C5266 H5239 0.950 . S
C5266 C5252 1.377 . S
C5266 C5265 1.373 . S
C5267 C5251 1.377 . S
C5267 C5265 1.389 . S
C5267 C5268 1.524 . S
C5268 C5267 1.524 . S
C5268 C5269 1.397 . S
C5268 C5273 1.363 . S
C5269 H5240 0.950 . S
C5269 C5268 1.397 . S
C5269 C5270 1.334 . S
C5270 H5241 0.950 . S
C5270 C5269 1.334 . S
C5270 C5271 1.287 . S
C5271 C5270 1.287 . S
C5271 C5272 1.524 . S
C5271 H5274 0.999 . S
C5272 H5242 0.950 . S
C5272 C5271 1.524 . S
C5272 C5273 1.415 . S
C5273 H5243 0.950 . S
C5273 C5268 1.363 . S
C5273 C5272 1.415 . S
H5274 C5271 0.999 . S
H5275 C5256 0.913 . S
H5276 C5294 0.951 . S
H5277 C5296 0.951 . S
H5278 C5298 0.950 . S
H5279 C5299 0.950 . S
H5280 C5301 0.950 . S
H5281 C5304 0.950 . S
H5282 C5305 0.950 . S
H5283 C5307 0.950 . S
H5284 C5308 0.950 . S
H5285 C5309 0.951 . S
H5286 C5311 0.976 . S
H5287 C5313 0.950 . S
H5288 C5314 0.950 . S
H5289 C5316 0.950 . S
H5290 C5319 0.950 1_655 S
H5291 C5320 0.950 . S
H5292 C5322 0.950 . S
H5293 C5323 0.950 . S
C5294 H5276 0.951 . S
C5294 C5295 1.366 . S
C5294 C5296 1.388 . S
C5295 C5294 1.366 . S
C5295 C5299 1.385 . S
C5296 H5277 0.951 . S
C5296 C5294 1.388 . S
C5296 C5297 1.366 . S
C5297 C5296 1.366 . S
C5297 C5298 1.414 . S
C5297 C5300 1.499 . S
C5298 H5278 0.950 . S
C5298 C5297 1.414 . S
C5298 C5299 1.374 . S
C5299 H5279 0.950 . S
C5299 C5295 1.385 . S
C5299 C5298 1.374 . S
C5300 C5297 1.499 . S
C5300 C5301 1.373 . S
C5300 C5302 1.389 . S
C5301 H5280 0.950 . S
C5301 C5300 1.373 . S
C5301 C5317 1.377 . S
C5302 C5300 1.389 . S
C5302 C5303 1.524 . S
C5302 C5316 1.377 . S
C5303 C5302 1.524 . S
C5303 C5304 1.397 . S
C5303 C5308 1.363 . S
C5304 H5281 0.950 . S
C5304 C5303 1.397 . S
C5304 C5305 1.334 . S
C5305 H5282 0.950 . S
C5305 C5304 1.334 . S
C5305 C5306 1.287 . S
C5306 C5305 1.287 . S
C5306 C5307 1.524 . S
C5306 H5325 0.913 . S
C5307 H5283 0.950 . S
C5307 C5306 1.524 . S
C5307 C5308 1.415 . S
C5308 H5284 0.950 . S
C5308 C5303 1.363 . S
C5308 C5307 1.415 . S
C5309 H5285 0.951 . S
C5309 C5310 1.366 1_455 S
C5309 C5311 1.418 . S
C5310 C5309 1.366 1_655 S
C5310 C5314 1.385 . S
C5311 H5286 0.976 . S
C5311 C5309 1.418 . S
C5311 C5312 1.313 1_455 S
C5312 C5311 1.313 1_655 S
C5312 C5313 1.414 . S
C5312 C5315 1.499 . S
C5313 H5287 0.950 . S
C5313 C5312 1.414 . S
C5313 C5314 1.374 . S
C5314 H5288 0.950 . S
C5314 C5310 1.385 . S
C5314 C5313 1.374 . S
C5315 C5312 1.499 . S
C5315 C5316 1.373 . S
C5315 C5317 1.389 . S
C5316 H5289 0.950 . S
C5316 C5302 1.377 . S
C5316 C5315 1.373 . S
C5317 C5301 1.377 . S
C5317 C5315 1.389 . S
C5317 C5318 1.524 1_655 S
C5318 C5317 1.524 1_455 S
C5318 C5319 1.397 . S
C5318 C5323 1.363 . S
C5319 H5290 0.950 1_455 S
C5319 C5318 1.397 . S
C5319 C5320 1.334 . S
C5320 H5291 0.950 . S
C5320 C5319 1.334 . S
C5320 C5321 1.287 . S
C5321 C5320 1.287 . S
C5321 C5322 1.524 . S
C5321 H5324 0.999 . S
C5322 H5292 0.950 . S
C5322 C5321 1.524 . S
C5322 C5323 1.415 . S
C5323 H5293 0.950 . S
C5323 C5318 1.363 . S
C5323 C5322 1.415 . S
H5324 C5321 0.999 . S
H5325 C5306 0.913 . S
H5326 C5344 0.951 . S
H5327 C5346 0.951 . S
H5328 C5348 0.950 . S
H5329 C5349 0.950 . S
H5330 C5351 0.950 . S
H5331 C5354 0.950 . S
H5332 C5355 0.950 . S
H5333 C5357 0.950 . S
H5334 C5358 0.950 . S
H5335 C5359 0.951 . S
H5336 C5361 0.951 . S
H5337 C5363 0.950 . S
H5338 C5364 0.950 . S
H5339 C5366 0.950 . S
H5340 C5369 0.950 . S
H5341 C5370 0.950 . S
H5342 C5372 0.950 . S
H5343 C5373 0.950 . S
C5344 H5326 0.951 . S
C5344 C5345 1.366 . S
C5344 C5346 1.388 . S
C5345 C5344 1.366 . S
C5345 C5349 1.385 . S
C5346 H5327 0.951 . S
C5346 C5344 1.388 . S
C5346 C5347 1.366 . S
C5347 C5346 1.366 . S
C5347 C5348 1.414 . S
C5347 C5350 1.499 . S
C5348 H5328 0.950 . S
C5348 C5347 1.414 . S
C5348 C5349 1.374 . S
C5349 H5329 0.950 . S
C5349 C5345 1.385 . S
C5349 C5348 1.374 . S
C5350 C5347 1.499 . S
C5350 C5351 1.373 . S
C5350 C5352 1.389 . S
C5351 H5330 0.950 . S
C5351 C5350 1.373 . S
C5351 C5367 1.377 . S
C5352 C5350 1.389 . S
C5352 C5353 1.524 . S
C5352 C5366 1.377 . S
C5353 C5352 1.524 . S
C5353 C5354 1.397 . S
C5353 C5358 1.363 . S
C5354 H5331 0.950 . S
C5354 C5353 1.397 . S
C5354 C5355 1.334 . S
C5355 H5332 0.950 . S
C5355 C5354 1.334 . S
C5355 C5356 1.287 . S
C5356 C5355 1.287 . S
C5356 C5357 1.524 . S
C5356 H5375 0.913 . S
C5357 H5333 0.950 . S
C5357 C5356 1.524 . S
C5357 C5358 1.415 . S
C5358 H5334 0.950 . S
C5358 C5353 1.363 . S
C5358 C5357 1.415 . S
C5359 H5335 0.951 . S
C5359 C5360 1.366 . S
C5359 C5361 1.388 . S
C5360 C5359 1.366 . S
C5360 C5364 1.385 . S
C5361 H5336 0.951 . S
C5361 C5359 1.388 . S
C5361 C5362 1.366 . S
C5362 C5361 1.366 . S
C5362 C5363 1.414 . S
C5362 C5365 1.499 . S
C5363 H5337 0.950 . S
C5363 C5362 1.414 . S
C5363 C5364 1.374 . S
C5364 H5338 0.950 . S
C5364 C5360 1.385 . S
C5364 C5363 1.374 . S
C5365 C5362 1.499 . S
C5365 C5366 1.373 . S
C5365 C5367 1.389 . S
C5366 H5339 0.950 . S
C5366 C5352 1.377 . S
C5366 C5365 1.373 . S
C5367 C5351 1.377 . S
C5367 C5365 1.389 . S
C5367 C5368 1.524 . S
C5368 C5367 1.524 . S
C5368 C5369 1.397 . S
C5368 C5373 1.363 . S
C5369 H5340 0.950 . S
C5369 C5368 1.397 . S
C5369 C5370 1.334 . S
C5370 H5341 0.950 . S
C5370 C5369 1.334 . S
C5370 C5371 1.287 . S
C5371 C5370 1.287 . S
C5371 C5372 1.524 . S
C5371 H5374 0.999 . S
C5372 H5342 0.950 . S
C5372 C5371 1.524 . S
C5372 C5373 1.415 . S
C5373 H5343 0.950 . S
C5373 C5368 1.363 . S
C5373 C5372 1.415 . S
H5374 C5371 0.999 . S
H5375 C5356 0.913 . S
H5376 C5394 0.951 . S
H5377 C5396 0.951 . S
H5378 C5398 0.950 . S
H5379 C5399 0.950 . S
H5380 C5401 0.950 . S
H5381 C5404 0.950 . S
H5382 C5405 0.950 . S
H5383 C5407 0.950 . S
H5384 C5408 0.950 . S
H5385 C5409 0.951 . S
H5386 C5411 0.951 . S
H5387 C5413 0.950 . S
H5388 C5414 0.950 . S
H5389 C5416 0.950 . S
H5390 C5419 0.950 . S
H5391 C5420 0.950 . S
H5392 C5422 0.950 . S
H5393 C5423 0.950 . S
C5394 H5376 0.951 . S
C5394 C5395 1.366 . S
C5394 C5396 1.388 . S
C5395 C5394 1.366 . S
C5395 C5399 1.385 . S
C5396 H5377 0.951 . S
C5396 C5394 1.388 . S
C5396 C5397 1.366 . S
C5397 C5396 1.366 . S
C5397 C5398 1.414 . S
C5397 C5400 1.499 . S
C5398 H5378 0.950 . S
C5398 C5397 1.414 . S
C5398 C5399 1.374 . S
C5399 H5379 0.950 . S
C5399 C5395 1.385 . S
C5399 C5398 1.374 . S
C5400 C5397 1.499 . S
C5400 C5401 1.373 . S
C5400 C5402 1.389 . S
C5401 H5380 0.950 . S
C5401 C5400 1.373 . S
C5401 C5417 1.377 . S
C5402 C5400 1.389 . S
C5402 C5403 1.524 . S
C5402 C5416 1.377 . S
C5403 C5402 1.524 . S
C5403 C5404 1.397 . S
C5403 C5408 1.363 . S
C5404 H5381 0.950 . S
C5404 C5403 1.397 . S
C5404 C5405 1.334 . S
C5405 H5382 0.950 . S
C5405 C5404 1.334 . S
C5405 C5406 1.287 . S
C5406 C5405 1.287 . S
C5406 C5407 1.524 . S
C5406 H5425 0.913 . S
C5407 H5383 0.950 . S
C5407 C5406 1.524 . S
C5407 C5408 1.415 . S
C5408 H5384 0.950 . S
C5408 C5403 1.363 . S
C5408 C5407 1.415 . S
C5409 H5385 0.951 . S
C5409 C5410 1.366 . S
C5409 C5411 1.388 . S
C5410 C5409 1.366 . S
C5410 C5414 1.385 . S
C5411 H5386 0.951 . S
C5411 C5409 1.388 . S
C5411 C5412 1.366 . S
C5412 C5411 1.366 . S
C5412 C5413 1.414 . S
C5412 C5415 1.499 . S
C5413 H5387 0.950 . S
C5413 C5412 1.414 . S
C5413 C5414 1.374 . S
C5414 H5388 0.950 . S
C5414 C5410 1.385 . S
C5414 C5413 1.374 . S
C5415 C5412 1.499 . S
C5415 C5416 1.373 . S
C5415 C5417 1.389 . S
C5416 H5389 0.950 . S
C5416 C5402 1.377 . S
C5416 C5415 1.373 . S
C5417 C5401 1.377 . S
C5417 C5415 1.389 . S
C5417 C5418 1.524 . S
C5418 C5417 1.524 . S
C5418 C5419 1.397 . S
C5418 C5423 1.363 . S
C5419 H5390 0.950 . S
C5419 C5418 1.397 . S
C5419 C5420 1.334 . S
C5420 H5391 0.950 . S
C5420 C5419 1.334 . S
C5420 C5421 1.287 . S
C5421 C5420 1.287 . S
C5421 C5422 1.524 . S
C5421 H5424 0.999 . S
C5422 H5392 0.950 . S
C5422 C5421 1.524 . S
C5422 C5423 1.415 . S
C5423 H5393 0.950 . S
C5423 C5418 1.363 . S
C5423 C5422 1.415 . S
H5424 C5421 0.999 . S
H5425 C5406 0.913 . S
H5426 C5444 0.951 . S
H5427 C5446 0.951 . S
H5428 C5448 0.950 . S
H5429 C5449 0.950 1_545 S
H5430 C5451 0.950 . S
H5431 C5454 0.950 . S
H5432 C5455 0.950 . S
H5433 C5457 0.950 . S
H5434 C5458 0.950 . S
H5435 C5459 0.951 . S
H5436 C5461 0.951 . S
H5437 C5463 0.950 1_565 S
H5438 C5464 0.950 . S
H5439 C5466 0.950 . S
H5440 C5469 0.950 . S
H5441 C5470 0.950 . S
H5442 C5472 0.950 . S
H5443 C5473 0.950 . S
C5444 H5426 0.951 . S
C5444 C5445 1.366 . S
C5444 C5446 1.388 . S
C5445 C5444 1.366 . S
C5445 C5449 1.385 . S
C5446 H5427 0.951 . S
C5446 C5444 1.388 . S
C5446 C5447 1.366 . S
C5447 C5446 1.366 . S
C5447 C5448 1.414 1_565 S
C5447 C5450 1.509 . S
C5448 H5428 0.950 . S
C5448 C5447 1.414 1_545 S
C5448 C5449 1.374 1_545 S
C5449 H5429 0.950 1_565 S
C5449 C5445 1.385 . S
C5449 C5448 1.374 1_565 S
C5450 C5447 1.509 . S
C5450 C5451 1.342 1_565 S
C5450 C5452 1.412 . S
C5451 H5430 0.950 . S
C5451 C5450 1.342 1_545 S
C5451 C5467 1.377 . S
C5452 C5450 1.412 . S
C5452 C5453 1.524 . S
C5452 C5466 1.377 . S
C5453 C5452 1.524 . S
C5453 C5454 1.397 . S
C5453 C5458 1.363 . S
C5454 H5431 0.950 . S
C5454 C5453 1.397 . S
C5454 C5455 1.334 . S
C5455 H5432 0.950 . S
C5455 C5454 1.334 . S
C5455 C5456 1.287 . S
C5456 C5455 1.287 . S
C5456 C5457 1.524 . S
C5456 H5475 0.913 . S
C5457 H5433 0.950 . S
C5457 C5456 1.524 . S
C5457 C5458 1.415 . S
C5458 H5434 0.950 . S
C5458 C5453 1.363 . S
C5458 C5457 1.415 . S
C5459 H5435 0.951 . S
C5459 C5460 1.366 . S
C5459 C5461 1.388 . S
C5460 C5459 1.366 . S
C5460 C5464 1.385 . S
C5461 H5436 0.951 . S
C5461 C5459 1.388 . S
C5461 C5462 1.366 . S
C5462 C5461 1.366 . S
C5462 C5463 1.414 . S
C5462 C5465 1.499 . S
C5463 H5437 0.950 1_545 S
C5463 C5462 1.414 . S
C5463 C5464 1.374 . S
C5464 H5438 0.950 . S
C5464 C5460 1.385 . S
C5464 C5463 1.374 . S
C5465 C5462 1.499 . S
C5465 C5466 1.373 1_545 S
C5465 C5467 1.389 . S
C5466 H5439 0.950 . S
C5466 C5452 1.377 . S
C5466 C5465 1.373 1_565 S
C5467 C5451 1.377 . S
C5467 C5465 1.389 . S
C5467 C5468 1.524 . S
C5468 C5467 1.524 . S
C5468 C5469 1.397 . S
C5468 C5473 1.363 . S
C5469 H5440 0.950 . S
C5469 C5468 1.397 . S
C5469 C5470 1.334 . S
C5470 H5441 0.950 . S
C5470 C5469 1.334 . S
C5470 C5471 1.287 . S
C5471 C5470 1.287 . S
C5471 C5472 1.524 . S
C5471 H5474 0.999 . S
C5472 H5442 0.950 . S
C5472 C5471 1.524 . S
C5472 C5473 1.415 . S
C5473 H5443 0.950 . S
C5473 C5468 1.363 . S
C5473 C5472 1.415 . S
H5474 C5471 0.999 . S
H5475 C5456 0.913 . S
H5476 C5494 0.951 . S
H5477 C5496 0.951 . S
H5478 C5498 0.950 . S
H5479 C5499 0.950 . S
H5480 C5501 0.950 . S
H5481 C5504 0.950 . S
H5482 C5505 0.950 . S
H5483 C5507 0.950 . S
H5484 C5508 0.950 . S
H5485 C5509 0.951 . S
H5486 C5511 0.951 . S
H5487 C5513 0.950 . S
H5488 C5514 0.950 . S
H5489 C5516 0.950 . S
H5490 C5519 0.950 . S
H5491 C5520 0.950 . S
H5492 C5522 0.950 . S
H5493 C5523 0.950 . S
C5494 H5476 0.951 . S
C5494 C5495 1.366 . S
C5494 C5496 1.388 . S
C5495 C5494 1.366 . S
C5495 C5499 1.385 . S
C5496 H5477 0.951 . S
C5496 C5494 1.388 . S
C5496 C5497 1.366 . S
C5497 C5496 1.366 . S
C5497 C5498 1.414 . S
C5497 C5500 1.499 . S
C5498 H5478 0.950 . S
C5498 C5497 1.414 . S
C5498 C5499 1.374 . S
C5499 H5479 0.950 . S
C5499 C5495 1.385 . S
C5499 C5498 1.374 . S
C5500 C5497 1.499 . S
C5500 C5501 1.373 . S
C5500 C5502 1.389 . S
C5501 H5480 0.950 . S
C5501 C5500 1.373 . S
C5501 C5517 1.377 . S
C5502 C5500 1.389 . S
C5502 C5503 1.524 . S
C5502 C5516 1.377 . S
C5503 C5502 1.524 . S
C5503 C5504 1.397 . S
C5503 C5508 1.363 . S
C5504 H5481 0.950 . S
C5504 C5503 1.397 . S
C5504 C5505 1.334 . S
C5505 H5482 0.950 . S
C5505 C5504 1.334 . S
C5505 C5506 1.287 . S
C5506 C5505 1.287 . S
C5506 C5507 1.524 . S
C5506 H5525 0.913 . S
C5507 H5483 0.950 . S
C5507 C5506 1.524 . S
C5507 C5508 1.415 . S
C5508 H5484 0.950 . S
C5508 C5503 1.363 . S
C5508 C5507 1.415 . S
C5509 H5485 0.951 . S
C5509 C5510 1.366 . S
C5509 C5511 1.388 . S
C5510 C5509 1.366 . S
C5510 C5514 1.385 . S
C5511 H5486 0.951 . S
C5511 C5509 1.388 . S
C5511 C5512 1.366 . S
C5512 C5511 1.366 . S
C5512 C5513 1.414 . S
C5512 C5515 1.499 . S
C5513 H5487 0.950 . S
C5513 C5512 1.414 . S
C5513 C5514 1.374 . S
C5514 H5488 0.950 . S
C5514 C5510 1.385 . S
C5514 C5513 1.374 . S
C5515 C5512 1.499 . S
C5515 C5516 1.373 . S
C5515 C5517 1.389 . S
C5516 H5489 0.950 . S
C5516 C5502 1.377 . S
C5516 C5515 1.373 . S
C5517 C5501 1.377 . S
C5517 C5515 1.389 . S
C5517 C5518 1.524 . S
C5518 C5517 1.524 . S
C5518 C5519 1.397 . S
C5518 C5523 1.363 . S
C5519 H5490 0.950 . S
C5519 C5518 1.397 . S
C5519 C5520 1.334 . S
C5520 H5491 0.950 . S
C5520 C5519 1.334 . S
C5520 C5521 1.287 . S
C5521 C5520 1.287 . S
C5521 C5522 1.524 . S
C5521 H5524 0.999 . S
C5522 H5492 0.950 . S
C5522 C5521 1.524 . S
C5522 C5523 1.415 . S
C5523 H5493 0.950 . S
C5523 C5518 1.363 . S
C5523 C5522 1.415 . S
H5524 C5521 0.999 . S
H5525 C5506 0.913 . S
H5526 C5544 0.951 . S
H5527 C5546 0.951 . S
H5528 C5548 0.950 . S
H5529 C5549 0.950 . S
H5530 C5551 0.950 . S
H5531 C5554 0.950 . S
H5532 C5555 0.950 . S
H5533 C5557 0.950 . S
H5534 C5558 0.950 . S
H5535 C5559 0.951 . S
H5536 C5561 0.951 . S
H5537 C5563 0.950 . S
H5538 C5564 0.950 . S
H5539 C5566 0.950 . S
H5540 C5569 0.950 . S
H5541 C5570 0.950 . S
H5542 C5572 0.950 . S
H5543 C5573 0.950 . S
C5544 H5526 0.951 . S
C5544 C5545 1.366 . S
C5544 C5546 1.388 . S
C5545 C5544 1.366 . S
C5545 C5549 1.385 . S
C5546 H5527 0.951 . S
C5546 C5544 1.388 . S
C5546 C5547 1.366 . S
C5547 C5546 1.366 . S
C5547 C5548 1.414 . S
C5547 C5550 1.499 . S
C5548 H5528 0.950 . S
C5548 C5547 1.414 . S
C5548 C5549 1.374 . S
C5549 H5529 0.950 . S
C5549 C5545 1.385 . S
C5549 C5548 1.374 . S
C5550 C5547 1.499 . S
C5550 C5551 1.373 . S
C5550 C5552 1.389 . S
C5551 H5530 0.950 . S
C5551 C5550 1.373 . S
C5551 C5567 1.377 . S
C5552 C5550 1.389 . S
C5552 C5553 1.524 . S
C5552 C5566 1.377 . S
C5553 C5552 1.524 . S
C5553 C5554 1.397 1_554 S
C5553 C5558 1.363 . S
C5554 H5531 0.950 . S
C5554 C5553 1.397 1_556 S
C5554 C5555 1.334 . S
C5555 H5532 0.950 . S
C5555 C5554 1.334 . S
C5555 C5556 1.287 . S
C5556 C5555 1.287 . S
C5556 C5557 1.524 . S
C5556 H5575 0.913 . S
C5557 H5533 0.950 . S
C5557 C5556 1.524 . S
C5557 C5558 1.415 1_556 S
C5558 H5534 0.950 . S
C5558 C5553 1.363 . S
C5558 C5557 1.415 1_554 S
C5559 H5535 0.951 . S
C5559 C5560 1.366 . S
C5559 C5561 1.388 . S
C5560 C5559 1.366 . S
C5560 C5564 1.385 . S
C5561 H5536 0.951 . S
C5561 C5559 1.388 . S
C5561 C5562 1.366 . S
C5562 C5561 1.366 . S
C5562 C5563 1.414 . S
C5562 C5565 1.499 . S
C5563 H5537 0.950 . S
C5563 C5562 1.414 . S
C5563 C5564 1.374 . S
C5564 H5538 0.950 . S
C5564 C5560 1.385 . S
C5564 C5563 1.374 . S
C5565 C5562 1.499 . S
C5565 C5566 1.373 . S
C5565 C5567 1.389 . S
C5566 H5539 0.950 . S
C5566 C5552 1.377 . S
C5566 C5565 1.373 . S
C5567 C5551 1.377 . S
C5567 C5565 1.389 . S
C5567 C5568 1.524 . S
C5568 C5567 1.524 . S
C5568 C5569 1.397 . S
C5568 C5573 1.363 . S
C5569 H5540 0.950 . S
C5569 C5568 1.397 . S
C5569 C5570 1.334 . S
C5570 H5541 0.950 . S
C5570 C5569 1.334 . S
C5570 C5571 1.287 . S
C5571 C5570 1.287 . S
C5571 C5572 1.524 . S
C5571 H5574 0.999 . S
C5572 H5542 0.950 . S
C5572 C5571 1.524 . S
C5572 C5573 1.415 . S
C5573 H5543 0.950 . S
C5573 C5568 1.363 . S
C5573 C5572 1.415 . S
H5574 C5571 0.999 . S
H5575 C5556 0.913 . S
H5576 C5594 0.951 . S
H5577 C5596 0.951 . S
H5578 C5598 0.950 . S
H5579 C5599 0.950 . S
H5580 C5601 0.950 . S
H5581 C5604 0.950 . S
H5582 C5605 0.950 . S
H5583 C5607 0.950 . S
H5584 C5608 0.950 . S
H5585 C5609 0.951 . S
H5586 C5611 0.951 . S
H5587 C5613 0.950 . S
H5588 C5614 0.950 . S
H5589 C5616 0.950 . S
H5590 C5619 0.950 . S
H5591 C5620 0.950 . S
H5592 C5622 0.950 . S
H5593 C5623 0.950 . S
C5594 H5576 0.951 . S
C5594 C5595 1.366 . S
C5594 C5596 1.388 . S
C5595 C5594 1.366 . S
C5595 C5599 1.385 . S
C5596 H5577 0.951 . S
C5596 C5594 1.388 . S
C5596 C5597 1.366 . S
C5597 C5596 1.366 . S
C5597 C5598 1.414 . S
C5597 C5600 1.499 . S
C5598 H5578 0.950 . S
C5598 C5597 1.414 . S
C5598 C5599 1.374 . S
C5599 H5579 0.950 . S
C5599 C5595 1.385 . S
C5599 C5598 1.374 . S
C5600 C5597 1.499 . S
C5600 C5601 1.373 . S
C5600 C5602 1.389 . S
C5601 H5580 0.950 . S
C5601 C5600 1.373 . S
C5601 C5617 1.377 . S
C5602 C5600 1.389 . S
C5602 C5603 1.524 . S
C5602 C5616 1.377 . S
C5603 C5602 1.524 . S
C5603 C5604 1.397 . S
C5603 C5608 1.363 . S
C5604 H5581 0.950 . S
C5604 C5603 1.397 . S
C5604 C5605 1.334 . S
C5605 H5582 0.950 . S
C5605 C5604 1.334 . S
C5605 C5606 1.287 . S
C5606 C5605 1.287 . S
C5606 C5607 1.524 . S
C5606 H5625 0.913 . S
C5607 H5583 0.950 . S
C5607 C5606 1.524 . S
C5607 C5608 1.415 . S
C5608 H5584 0.950 . S
C5608 C5603 1.363 . S
C5608 C5607 1.415 . S
C5609 H5585 0.951 . S
C5609 C5610 1.366 . S
C5609 C5611 1.388 . S
C5610 C5609 1.366 . S
C5610 C5614 1.385 . S
C5611 H5586 0.951 . S
C5611 C5609 1.388 . S
C5611 C5612 1.366 . S
C5612 C5611 1.366 . S
C5612 C5613 1.414 . S
C5612 C5615 1.499 . S
C5613 H5587 0.950 . S
C5613 C5612 1.414 . S
C5613 C5614 1.374 . S
C5614 H5588 0.950 . S
C5614 C5610 1.385 . S
C5614 C5613 1.374 . S
C5615 C5612 1.499 . S
C5615 C5616 1.373 . S
C5615 C5617 1.389 . S
C5616 H5589 0.950 . S
C5616 C5602 1.377 . S
C5616 C5615 1.373 . S
C5617 C5601 1.377 . S
C5617 C5615 1.389 . S
C5617 C5618 1.524 . S
C5618 C5617 1.524 . S
C5618 C5619 1.397 . S
C5618 C5623 1.363 . S
C5619 H5590 0.950 . S
C5619 C5618 1.397 . S
C5619 C5620 1.334 . S
C5620 H5591 0.950 . S
C5620 C5619 1.334 . S
C5620 C5621 1.287 . S
C5621 C5620 1.287 . S
C5621 C5622 1.524 . S
C5621 H5624 0.999 . S
C5622 H5592 0.950 . S
C5622 C5621 1.524 . S
C5622 C5623 1.415 . S
C5623 H5593 0.950 . S
C5623 C5618 1.363 . S
C5623 C5622 1.415 . S
H5624 C5621 0.999 . S
H5625 C5606 0.913 . S
H5626 C5644 0.951 . S
H5627 C5646 0.951 . S
H5628 C5648 0.950 . S
H5629 C5649 0.950 . S
H5630 C5651 0.950 . S
H5631 C5654 0.950 . S
H5632 C5655 0.950 . S
H5633 C5657 0.950 1_556 S
H5634 C5658 0.950 . S
H5635 C5659 0.951 . S
H5636 C5661 0.951 . S
H5637 C5663 0.950 . S
H5638 C5664 0.950 . S
H5639 C5666 0.950 . S
H5640 C5669 0.950 . S
H5641 C5670 0.950 . S
H5642 C5672 0.950 . S
H5643 C5673 0.950 . S
C5644 H5626 0.951 . S
C5644 C5645 1.366 . S
C5644 C5646 1.388 . S
C5645 C5644 1.366 . S
C5645 C5649 1.385 . S
C5646 H5627 0.951 . S
C5646 C5644 1.388 . S
C5646 C5647 1.366 . S
C5647 C5646 1.366 . S
C5647 C5648 1.414 . S
C5647 C5650 1.499 . S
C5648 H5628 0.950 . S
C5648 C5647 1.414 . S
C5648 C5649 1.374 . S
C5649 H5629 0.950 . S
C5649 C5645 1.385 . S
C5649 C5648 1.374 . S
C5650 C5647 1.499 . S
C5650 C5651 1.373 . S
C5650 C5652 1.389 . S
C5651 H5630 0.950 . S
C5651 C5650 1.373 . S
C5651 C5667 1.377 . S
C5652 C5650 1.389 . S
C5652 C5653 1.524 . S
C5652 C5666 1.377 . S
C5653 C5652 1.524 . S
C5653 C5654 1.397 . S
C5653 C5658 1.363 . S
C5654 H5631 0.950 . S
C5654 C5653 1.397 . S
C5654 C5655 1.334 . S
C5655 H5632 0.950 . S
C5655 C5654 1.334 . S
C5655 C5656 1.287 . S
C5656 C5655 1.287 . S
C5656 C5657 1.524 . S
C5656 H5675 0.915 1_554 S
C5657 H5633 0.950 1_554 S
C5657 C5656 1.524 . S
C5657 C5658 1.415 . S
C5658 H5634 0.950 . S
C5658 C5653 1.363 . S
C5658 C5657 1.415 . S
C5659 H5635 0.951 . S
C5659 C5660 1.366 . S
C5659 C5661 1.388 . S
C5660 C5659 1.366 . S
C5660 C5664 1.385 . S
C5661 H5636 0.951 . S
C5661 C5659 1.388 . S
C5661 C5662 1.366 . S
C5662 C5661 1.366 . S
C5662 C5663 1.414 . S
C5662 C5665 1.499 . S
C5663 H5637 0.950 . S
C5663 C5662 1.414 . S
C5663 C5664 1.374 . S
C5664 H5638 0.950 . S
C5664 C5660 1.385 . S
C5664 C5663 1.374 . S
C5665 C5662 1.499 . S
C5665 C5666 1.373 . S
C5665 C5667 1.389 . S
C5666 H5639 0.950 . S
C5666 C5652 1.377 . S
C5666 C5665 1.373 . S
C5667 C5651 1.377 . S
C5667 C5665 1.389 . S
C5667 C5668 1.524 . S
C5668 C5667 1.524 . S
C5668 C5669 1.397 . S
C5668 C5673 1.363 . S
C5669 H5640 0.950 . S
C5669 C5668 1.397 . S
C5669 C5670 1.334 . S
C5670 H5641 0.950 . S
C5670 C5669 1.334 . S
C5670 C5671 1.287 . S
C5671 C5670 1.287 . S
C5671 C5672 1.524 . S
C5671 H5674 0.999 . S
C5672 H5642 0.950 . S
C5672 C5671 1.524 . S
C5672 C5673 1.415 . S
C5673 H5643 0.950 . S
C5673 C5668 1.363 . S
C5673 C5672 1.415 . S
H5674 C5671 0.999 . S
H5675 C5656 0.915 1_556 S
H5676 C5694 0.951 1_545 S
H5677 C5696 0.951 . S
H5678 C5698 0.950 . S
H5679 C5699 0.950 . S
H5680 C5701 0.950 . S
H5681 C5704 0.950 . S
H5682 C5705 0.950 . S
H5683 C5707 0.950 . S
H5684 C5708 0.950 . S
H5685 C5709 0.951 . S
H5686 C5711 0.951 . S
H5687 C5713 0.950 . S
H5688 C5714 0.950 . S
H5689 C5716 0.950 . S
H5690 C5719 0.950 . S
H5691 C5720 0.950 . S
H5692 C5722 0.950 . S
H5693 C5723 0.950 . S
C5694 H5676 0.951 1_565 S
C5694 C5695 1.366 1_565 S
C5694 C5696 1.388 . S
C5695 C5694 1.366 1_545 S
C5695 C5699 1.385 1_545 S
C5696 H5677 0.951 . S
C5696 C5694 1.388 . S
C5696 C5697 1.366 . S
C5697 C5696 1.366 . S
C5697 C5698 1.414 . S
C5697 C5700 1.499 . S
C5698 H5678 0.950 . S
C5698 C5697 1.414 . S
C5698 C5699 1.374 . S
C5699 H5679 0.950 . S
C5699 C5695 1.385 1_565 S
C5699 C5698 1.374 . S
C5700 C5697 1.499 . S
C5700 C5701 1.373 . S
C5700 C5702 1.389 . S
C5701 H5680 0.950 . S
C5701 C5700 1.373 . S
C5701 C5717 1.377 . S
C5702 C5700 1.389 . S
C5702 C5703 1.524 . S
C5702 C5716 1.377 . S
C5703 C5702 1.524 . S
C5703 C5704 1.397 . S
C5703 C5708 1.363 . S
C5704 H5681 0.950 . S
C5704 C5703 1.397 . S
C5704 C5705 1.334 . S
C5705 H5682 0.950 . S
C5705 C5704 1.334 . S
C5705 C5706 1.287 . S
C5706 C5705 1.287 . S
C5706 C5707 1.524 . S
C5706 H5725 0.913 . S
C5707 H5683 0.950 . S
C5707 C5706 1.524 . S
C5707 C5708 1.415 . S
C5708 H5684 0.950 . S
C5708 C5703 1.363 . S
C5708 C5707 1.415 . S
C5709 H5685 0.951 . S
C5709 C5710 1.366 . S
C5709 C5711 1.388 . S
C5710 C5709 1.366 . S
C5710 C5714 1.385 . S
C5711 H5686 0.951 . S
C5711 C5709 1.388 . S
C5711 C5712 1.366 . S
C5712 C5711 1.366 . S
C5712 C5713 1.414 . S
C5712 C5715 1.499 . S
C5713 H5687 0.950 . S
C5713 C5712 1.414 . S
C5713 C5714 1.374 . S
C5714 H5688 0.950 . S
C5714 C5710 1.385 . S
C5714 C5713 1.374 . S
C5715 C5712 1.499 . S
C5715 C5716 1.373 . S
C5715 C5717 1.389 . S
C5716 H5689 0.950 . S
C5716 C5702 1.377 . S
C5716 C5715 1.373 . S
C5717 C5701 1.377 . S
C5717 C5715 1.389 . S
C5717 C5718 1.524 . S
C5718 C5717 1.524 . S
C5718 C5719 1.397 . S
C5718 C5723 1.363 . S
C5719 H5690 0.950 . S
C5719 C5718 1.397 . S
C5719 C5720 1.334 . S
C5720 H5691 0.950 . S
C5720 C5719 1.334 . S
C5720 C5721 1.287 . S
C5721 C5720 1.287 . S
C5721 C5722 1.524 . S
C5721 H5724 0.999 . S
C5722 H5692 0.950 . S
C5722 C5721 1.524 . S
C5722 C5723 1.415 . S
C5723 H5693 0.950 . S
C5723 C5718 1.363 . S
C5723 C5722 1.415 . S
H5724 C5721 0.999 . S
H5725 C5706 0.913 . S
H5726 C5744 0.951 . S
H5727 C5746 0.951 . S
H5728 C5748 0.950 . S
H5729 C5749 0.950 . S
H5730 C5751 0.950 . S
H5731 C5754 0.950 . S
H5732 C5755 0.950 . S
H5733 C5757 0.950 . S
H5734 C5758 0.950 . S
H5735 C5759 0.951 . S
H5736 C5761 0.951 . S
H5737 C5763 0.950 . S
H5738 C5764 0.950 . S
H5739 C5766 0.950 . S
H5740 C5769 0.950 . S
H5741 C5770 0.950 . S
H5742 C5772 0.950 . S
H5743 C5773 0.950 . S
C5744 H5726 0.951 . S
C5744 C5745 1.366 . S
C5744 C5746 1.388 . S
C5745 C5744 1.366 . S
C5745 C5749 1.385 . S
C5746 H5727 0.951 . S
C5746 C5744 1.388 . S
C5746 C5747 1.366 . S
C5747 C5746 1.366 . S
C5747 C5748 1.414 . S
C5747 C5750 1.499 . S
C5748 H5728 0.950 . S
C5748 C5747 1.414 . S
C5748 C5749 1.374 . S
C5749 H5729 0.950 . S
C5749 C5745 1.385 . S
C5749 C5748 1.374 . S
C5750 C5747 1.499 . S
C5750 C5751 1.373 . S
C5750 C5752 1.389 . S
C5751 H5730 0.950 . S
C5751 C5750 1.373 . S
C5751 C5767 1.377 . S
C5752 C5750 1.389 . S
C5752 C5753 1.524 . S
C5752 C5766 1.377 . S
C5753 C5752 1.524 . S
C5753 C5754 1.397 . S
C5753 C5758 1.363 . S
C5754 H5731 0.950 . S
C5754 C5753 1.397 . S
C5754 C5755 1.334 . S
C5755 H5732 0.950 . S
C5755 C5754 1.334 . S
C5755 C5756 1.287 . S
C5756 C5755 1.287 . S
C5756 C5757 1.524 . S
C5756 H5775 0.913 . S
C5757 H5733 0.950 . S
C5757 C5756 1.524 . S
C5757 C5758 1.415 . S
C5758 H5734 0.950 . S
C5758 C5753 1.363 . S
C5758 C5757 1.415 . S
C5759 H5735 0.951 . S
C5759 C5760 1.366 . S
C5759 C5761 1.388 . S
C5760 C5759 1.366 . S
C5760 C5764 1.385 . S
C5761 H5736 0.951 . S
C5761 C5759 1.388 . S
C5761 C5762 1.366 . S
C5762 C5761 1.366 . S
C5762 C5763 1.414 . S
C5762 C5765 1.499 . S
C5763 H5737 0.950 . S
C5763 C5762 1.414 . S
C5763 C5764 1.374 . S
C5764 H5738 0.950 . S
C5764 C5760 1.385 . S
C5764 C5763 1.374 . S
C5765 C5762 1.499 . S
C5765 C5766 1.373 . S
C5765 C5767 1.389 . S
C5766 H5739 0.950 . S
C5766 C5752 1.377 . S
C5766 C5765 1.373 . S
C5767 C5751 1.377 . S
C5767 C5765 1.389 . S
C5767 C5768 1.524 . S
C5768 C5767 1.524 . S
C5768 C5769 1.397 . S
C5768 C5773 1.363 . S
C5769 H5740 0.950 . S
C5769 C5768 1.397 . S
C5769 C5770 1.334 . S
C5770 H5741 0.950 . S
C5770 C5769 1.334 . S
C5770 C5771 1.287 . S
C5771 C5770 1.287 . S
C5771 C5772 1.524 . S
C5771 H5774 0.999 . S
C5772 H5742 0.950 . S
C5772 C5771 1.524 . S
C5772 C5773 1.415 . S
C5773 H5743 0.950 . S
C5773 C5768 1.363 . S
C5773 C5772 1.415 . S
H5774 C5771 0.999 . S
H5775 C5756 0.913 . S
C995 C109 1.150 . S
C1010 C342 1.124 . S
C1045 C65 1.917 . S
C1060 C394 1.795 . S
C1095 C75 1.276 . S
C1110 C426 1.281 1_565 S
C1160 C475 2.593 . S
C1145 C84 2.601 . S
C1195 C25 0.835 . S
C1210 C511 0.826 . S
C1260 C542 0.353 . S
C1245 C28 0.254 . S
C1310 C594 0.481 . S
C1295 C47 0.353 . S
C1345 C9 0.985 . S
C1360 C622 0.954 . S
C1410 C354 1.956 . S
C1395 C233 2.074 . S
C1445 C249 1.478 . S
C1460 C395 1.502 . S
C1510 C425 1.930 . S
C1495 C275 2.079 1_545 S
C1560 C462 0.365 . S
C1545 C173 0.218 . S
C1595 C224 1.857 . S
C1610 C506 1.888 1_655 S
C1660 C554 1.989 . S
C1645 C243 2.052 . S
C1710 C595 1.398 1_556 S
C1695 C266 1.375 . S
C1760 C634 1.430 . S
C1745 C179 1.548 . S
C1810 C355 2.294 . S
C1795 C163 2.295 . S
C1845 C289 1.694 . S
C1860 C665 1.579 . S
C1910 C715 2.398 . S
C1895 C333 2.389 . S
C1960 C742 0.926 . S
C1945 C308 0.928 . S
C1995 C123 2.456 . S
C2010 C635 2.476 . S
C2045 C126 0.962 . S
C2060 C431 0.944 . S
C2095 C327 2.552 . S
C2110 C794 2.436 . S
C2160 C822 0.987 . S
C2145 C299 1.008 . S
C2210 C351 1.118 . S
C2195 C67 1.142 . S
C2260 C825 1.811 . S
C2245 C98 1.939 . S
C2295 C89 1.313 . S
C2310 C435 1.319 . S
C2345 C79 2.636 . S
C2360 C786 2.654 . S
C2410 C502 0.836 1_655 S
C2395 C11 0.848 . S
C2445 C51 0.144 . S
C2460 C711 0.330 . S
C2510 C585 0.489 . S
C2495 C33 0.388 . S
C2560 C871 0.875 . S
C2545 C14 0.891 . S
C2610 C345 1.901 1_556 S
C2595 C140 2.028 . S
C2660 C826 1.524 . S
C2645 C319 1.512 . S
C2695 C112 2.068 . S
C2710 C434 1.956 . S
C2745 C285 0.219 . S
C2760 C791 0.356 . S
C2795 C149 1.916 . S
C2810 C515 1.918 . S
C2860 C705 2.022 . S
C2845 C313 2.082 . S
C2895 C121 1.481 . S
C2910 C586 1.479 . S
C2945 C291 1.533 . S
C2960 C865 1.430 . S
C2995 C182 2.289 . S
C3010 C346 2.310 . S
C3045 C168 1.713 . S
C3060 C674 1.644 . S
C3095 C263 2.465 . S
C3110 C546 2.470 . S
C3145 C247 0.994 . S
C3160 C751 0.984 . S
C3210 C866 2.464 . S
C3195 C277 2.446 . S
C3245 C219 1.019 . S
C3260 C422 0.981 . S
C3310 C465 2.482 . S
C3295 C257 2.597 . S
C3360 C391 0.991 . S
C3345 C201 1.012 . S
C3395 C81 1.150 . S
C3410 C902 1.125 . S
C3460 C834 1.796 . S
C3445 C93 1.917 . S
C3495 C103 1.276 . S
C3510 C946 1.281 . S
C3545 C56 2.600 . S
C3560 C795 2.593 . S
C3595 C53 0.836 . S
C3610 C671 0.828 . S
C3660 C702 0.353 . S
C3645 C0 0.254 . S
C3710 C754 0.481 . S
C3695 C19 0.353 . S
C3760 C862 0.952 . S
C3745 C37 0.983 . S
C3810 C914 1.919 . S
C3795 C261 2.074 . S
C3845 C193 1.477 . S
C3860 C835 1.501 . S
C3910 C945 1.929 . S
C3895 C205 2.079 . S
C3960 C782 0.365 . S
C3945 C215 0.219 . S
C4010 C666 1.887 1_556 S
C3995 C252 1.857 . S
C4045 C187 2.051 . S
C4060 C714 1.990 . S
C4110 C755 1.398 . S
C4095 C196 1.374 . S
C4145 C221 1.548 . S
C4160 C874 1.431 . S
C4210 C915 2.294 . S
C4195 C317 2.295 . S
C4245 C135 1.679 . S
C4260 C505 1.582 . S
C4310 C555 2.398 . S
C4295 C151 2.389 . S
C4360 C582 0.926 . S
C4345 C154 0.928 . S
C4410 C875 2.476 . S
C4395 C305 2.456 . S
C4445 C280 0.962 . S
C4460 C951 0.945 . S
C4510 C474 2.436 . S
C4495 C145 2.551 . S
C4560 C382 0.986 . S
C4545 C117 1.008 . S
C4595 C95 1.142 . S
C4610 C911 1.118 . S
C4660 C385 1.812 . S
C4645 C70 1.938 . S
C4695 C61 1.313 . S
C4710 C955 1.319 . S
C4745 C107 2.636 . S
C4760 C466 2.654 . S
C4795 C39 0.848 . S
C4810 C662 0.838 . S
C4860 C551 0.333 . S
C4845 C23 0.148 . S
C4895 C5 0.388 . S
C4910 C745 0.488 . S
C4945 C42 0.892 . S
C4960 C631 0.877 . S
C5010 C905 1.901 . S
C4995 C322 2.028 . S
C5045 C165 1.512 . S
C5060 C386 1.524 . S
C5110 C954 1.956 1_556 S
C5095 C294 2.068 . S
C5145 C131 0.217 . S
C5160 C471 0.357 . S
C5195 C331 1.916 . S
C5210 C675 1.918 . S
C5260 C545 2.022 . S
C5245 C159 2.081 1_556 S
C5295 C303 1.481 . S
C5310 C746 1.479 1_655 S
C5360 C625 1.425 . S
C5345 C137 1.533 . S
C5410 C906 2.310 . S
C5395 C238 2.289 . S
C5460 C514 1.644 . S
C5445 C210 1.713 . S
C5495 C235 2.465 . S
C5510 C706 2.470 . S
C5560 C591 0.984 . S
C5545 C191 0.994 . S
C5595 C207 2.446 . S
C5610 C626 2.464 . S
C5645 C177 1.019 . S
C5660 C942 0.982 . S
C5710 C785 2.482 . S
C5695 C229 2.598 . S
C5760 C831 0.991 . S
C5745 C271 1.011 . S
