# Generated by pormake.
# Topology pts, (4,4)-cn, num edge types: 1
# Building blocks:
#     Node 0, Type 0, BuildingBlock: KOZSID_clean_sbu_0, # of connection points: 4
#     Node 1, Type 0, BuildingBlock: KOZSID_clean_sbu_0, # of connection points: 4
#     Node 2, Type 1, BuildingBlock: QUQFOY_clean_sbu_1, # of connection points: 4
#     Node 3, Type 1, BuildingBlock: QUQFOY_clean_sbu_1, # of connection points: 4
#     Edge 4, Type (0, 1), BuildingBlock: XUDNAN_clean_linker_2, # of connection points: 2
#     Edge 5, Type (0, 1), BuildingBlock: XUDNAN_clean_linker_2, # of connection points: 2
#     Edge 6, Type (0, 1), BuildingBlock: XUDNAN_clean_linker_2, # of connection points: 2
#     Edge 7, Type (0, 1), BuildingBlock: XUDNAN_clean_linker_2, # of connection points: 2
#     Edge 8, Type (0, 1), BuildingBlock: XUDNAN_clean_linker_2, # of connection points: 2
#     Edge 9, Type (0, 1), BuildingBlock: XUDNAN_clean_linker_2, # of connection points: 2
#     Edge 10, Type (0, 1), BuildingBlock: XUDNAN_clean_linker_2, # of connection points: 2
#     Edge 11, Type (0, 1), BuildingBlock: XUDNAN_clean_linker_2, # of connection points: 2
# Relax obj value: 0.094
# Max RMSD: 0.254
# Mean RMSD: 0.145
data_MOF--net-pts--node1-KOZSID_clean_sbu_0--node2-QUQFOY_clean_sbu_1--edge1-XUDNAN_clean_linker_2
_symmetry_space_group_name_H-M    P1
_symmetry_Int_Tables_number       1
_symmetry_cell_setting            triclinic
loop_
_symmetry_equiv_pos_as_xyz
'x, y, z'
_cell_length_a     25.274109
_cell_length_b     28.293045
_cell_length_c     41.714937
_cell_angle_alpha  86.201066
_cell_angle_beta   94.18132
_cell_angle_gamma 90.189991
loop_
_atom_site_label
_atom_site_type_symbol
_atom_site_fract_x
_atom_site_fract_y
_atom_site_fract_z
_atom_type_partial_charge
C0 C 0.65814 0.11602 0.04865 0.0
C1 C 0.68254 0.15834 0.05623 0.0
C2 C 0.64811 0.19401 0.04501 0.0
C3 C 0.60502 0.17177 0.03083 0.0
N4 N 0.61049 0.12435 0.03216 0.0
Co5 Co 0.55903 0.07909 0.01292 0.0
N6 N 0.52204 0.13016 0.98504 0.0
C7 C 0.52598 0.17693 0.98884 0.0
C8 C 0.49719 0.20381 0.96514 0.0
C9 C 0.4734 0.17193 0.94533 0.0
C10 C 0.48861 0.12714 0.9583 0.0
N11 N 0.50734 0.03389 0.99408 0.0
C12 C 0.47443 0.03898 0.96701 0.0
C13 C 0.44272 0.99913 0.96363 0.0
C14 C 0.45652 0.96818 0.98955 0.0
C15 C 0.49552 0.99081 0.00731 0.0
N16 N 0.59555 0.02781 0.0407 0.0
C17 C 0.5747 0.98525 0.04894 0.0
C18 C 0.60784 0.9578 0.06996 0.0
C19 C 0.65214 0.98494 0.07549 0.0
C20 C 0.64362 0.02759 0.05731 0.0
N21 N 0.51165 0.08881 0.0471 0.0
C22 C 0.44419 0.0896 0.09753 0.0
C23 C 0.49937 0.08894 0.10375 0.0
C24 C 0.53223 0.08866 0.07835 0.0
C25 C 0.42352 0.0929 0.06532 0.0
C26 C 0.45794 0.09257 0.04047 0.0
N27 N 0.60687 0.06904 0.9791 0.0
C28 C 0.65324 0.01566 0.94829 0.0
C29 C 0.68376 0.05301 0.93544 0.0
C30 C 0.67274 0.09896 0.94403 0.0
C31 C 0.63379 0.10622 0.96539 0.0
C32 C 0.61581 0.02429 0.97029 0.0
H33 H 0.62663 0.1419 0.97154 0.0
H34 H 0.5948 0.9945 0.98067 0.0
H35 H 0.57438 0.0866 0.08423 0.0
H36 H 0.44095 0.09358 0.01595 0.0
C37 C 0.56415 0.19419 0.01109 0.0
C38 C 0.67929 0.06862 0.05919 0.0
C39 C 0.46876 0.08247 0.94582 0.0
C40 C 0.52719 0.97033 0.03344 0.0
H41 H 0.7212 0.16323 0.06844 0.0
H42 H 0.65489 0.23173 0.04574 0.0
H43 H 0.4957 0.24205 0.96174 0.0
H44 H 0.4481 0.18087 0.92377 0.0
H45 H 0.41221 0.99329 0.94474 0.0
H46 H 0.44097 0.93293 0.99435 0.0
H47 H 0.60107 0.92204 0.07968 0.0
H48 H 0.68616 0.97482 0.09171 0.0
H49 H 0.5172 0.08753 0.12821 0.0
H50 H 0.38109 0.09356 0.05936 0.0
H51 H 0.65836 0.97964 0.94184 0.0
H52 H 0.69499 0.12925 0.93527 0.0
C53 C 0.10408 0.48387 0.56377 0.0
C54 C 0.15226 0.46638 0.57759 0.0
C55 C 0.19085 0.49234 0.56334 0.0
C56 C 0.16413 0.52413 0.54179 0.0
N57 N 0.11083 0.52041 0.54172 0.0
Co58 Co 0.05706 0.55941 0.51399 0.0
N59 N 0.11315 0.58962 0.48779 0.0
C60 C 0.16579 0.58032 0.49136 0.0
C61 C 0.19465 0.60606 0.4698 0.0
C62 C 0.15828 0.63342 0.45128 0.0
C63 C 0.10907 0.62278 0.4627 0.0
N64 N 0.00344 0.60037 0.48751 0.0
C65 C 0.00994 0.63449 0.46366 0.0
C66 C 0.96219 0.65644 0.45309 0.0
C67 C 0.92438 0.63601 0.47119 0.0
C68 C 0.951 0.60285 0.49169 0.0
N69 N 1.00073 0.52658 0.53868 0.0
C70 C 0.94794 0.53485 0.53488 0.0
C71 C 0.91865 0.50418 0.55327 0.0
C72 C 0.95484 0.47368 0.56925 0.0
C73 C 0.00422 0.48779 0.55969 0.0
N74 N 0.06451 0.61052 0.54499 0.0
C75 C 0.06962 0.69304 0.57977 0.0
C76 C 0.02442 0.66459 0.57908 0.0
C77 C 0.02262 0.62388 0.56162 0.0
C78 C 0.11342 0.67787 0.56472 0.0
C79 C 0.11042 0.63643 0.5482 0.0
N80 N 0.04954 0.50918 0.48289 0.0
C81 C 0.99553 0.46683 0.44403 0.0
C82 C 0.039 0.43964 0.43736 0.0
C83 C 0.08764 0.44718 0.4544 0.0
C84 C 0.09214 0.48214 0.47671 0.0
C85 C 1.00149 0.50082 0.46688 0.0
H86 H 0.13058 0.4871 0.48845 0.0
H87 H 0.96674 0.52017 0.47113 0.0
H88 H 0.98631 0.60468 0.56139 0.0
H89 H 0.14564 0.6269 0.53767 0.0
C90 C 0.18732 0.55133 0.51744 0.0
C91 C 0.05316 0.46263 0.57062 0.0
C92 C 0.0602 0.64707 0.45012 0.0
C93 C 0.92736 0.57138 0.51352 0.0
H94 H 0.15879 0.43674 0.5952 0.0
H95 H 0.23328 0.48672 0.56685 0.0
H96 H 0.23726 0.60618 0.46844 0.0
H97 H 0.16724 0.65928 0.43216 0.0
H98 H 0.95532 0.68427 0.43417 0.0
H99 H 0.88237 0.64399 0.46937 0.0
H100 H 0.87601 0.50348 0.55443 0.0
H101 H 0.94594 0.44402 0.58572 0.0
H102 H 0.98972 0.67477 0.5908 0.0
H103 H 0.14982 0.69824 0.56542 0.0
H104 H 0.95691 0.46184 0.43167 0.0
H105 H 0.12249 0.4272 0.44984 0.0
O106 O 0.00714 0.01397 0.23412 0.0
Cd107 Cd 0.06886 0.00501 0.26948 0.0
Cd108 Cd 0.0547 0.11135 0.26206 0.0
O109 O 0.9885 0.09039 0.23433 0.0
O110 O 0.07832 0.93466 0.27032 0.0
O111 O 0.05842 0.97016 0.31315 0.0
C112 C 0.06817 0.93132 0.30011 0.0
C113 C 0.0448 0.17842 0.29199 0.0
C114 C 0.97883 0.04973 0.224 0.0
C115 C 0.15759 0.06733 0.24451 0.0
O116 O 0.12752 0.10355 0.24286 0.0
O117 O 0.14269 0.02756 0.25676 0.0
O118 O 0.04451 0.18162 0.26107 0.0
O119 O 0.0509 0.13681 0.30644 0.0
O120 O 0.99208 0.09798 0.78488 0.0
Cd121 Cd 0.05898 0.11825 0.76147 0.0
Cd122 Cd 0.06979 0.01974 0.75518 0.0
O123 O 0.00504 0.02101 0.78312 0.0
O124 O 0.05318 0.18734 0.74752 0.0
O125 O 0.05501 0.1311 0.71325 0.0
C126 C 0.05267 0.1757 0.71811 0.0
C127 C 0.06646 0.96672 0.71389 0.0
C128 C 0.97878 0.05543 0.7922 0.0
C129 C 0.161 0.07111 0.78902 0.0
O130 O 0.1443 0.03341 0.77668 0.0
O131 O 0.13227 0.1082 0.78687 0.0
O132 O 0.07286 0.95202 0.7438 0.0
O133 O 0.06158 0.0118 0.7072 0.0
H134 H 0.35036 0.13624 0.10532 0.0
H135 H 0.45777 0.02804 0.15061 0.0
H136 H 0.39956 0.01545 0.19522 0.0
H137 H 0.31337 0.18448 0.17992 0.0
H138 H 0.24518 0.19429 0.16523 0.0
H139 H 0.29666 0.19697 0.13745 0.0
H140 H 0.24783 0.13341 0.10448 0.0
H141 H 0.19614 0.13075 0.13203 0.0
H142 H 0.23089 0.07754 0.12447 0.0
H143 H 0.32727 0.00998 0.23274 0.0
H144 H 0.24518 0.01271 0.26121 0.0
H145 H 0.18493 0.12591 0.19317 0.0
C146 C 0.36168 0.11007 0.12471 0.0
C147 C 0.40899 0.08348 0.12459 0.0
C148 C 0.42235 0.04953 0.15043 0.0
C149 C 0.38942 0.04195 0.17586 0.0
C150 C 0.34326 0.06875 0.1753 0.0
C151 C 0.32934 0.10224 0.1505 0.0
C152 C 0.27658 0.12513 0.15541 0.0
C153 C 0.28338 0.17838 0.15977 0.0
C154 C 0.23543 0.11615 0.12744 0.0
C155 C 0.26265 0.09858 0.18648 0.0
C156 C 0.30179 0.0663 0.19752 0.0
C157 C 0.29665 0.03557 0.22462 0.0
C158 C 0.2499 0.03736 0.24062 0.0
C159 C 0.20904 0.06991 0.22967 0.0
C160 C 0.21602 0.10143 0.20254 0.0
H161 H 0.05987 0.43952 0.63562 0.0
H162 H 0.04177 0.37856 0.54299 0.0
H163 H 0.03882 0.29804 0.57035 0.0
H164 H 0.14426 0.34816 0.67572 0.0
H165 H 0.11485 0.3499 0.71372 0.0
H166 H 0.11508 0.40228 0.68672 0.0
H167 H 0.0129 0.40852 0.68728 0.0
H168 H 0.01233 0.35615 0.71427 0.0
H169 H 0.9722 0.35868 0.67665 0.0
H170 H 0.03934 0.22415 0.6082 0.0
H171 H 0.04199 0.16271 0.65331 0.0
H172 H 0.05858 0.27229 0.7214 0.0
C173 C 0.05522 0.40904 0.62127 0.0
C174 C 0.05108 0.41469 0.58733 0.0
C175 C 0.045 0.37446 0.56906 0.0
C176 C 0.04331 0.3288 0.58439 0.0
C177 C 0.04762 0.32417 0.618 0.0
C178 C 0.05336 0.36324 0.63622 0.0
C179 C 0.05723 0.34859 0.67193 0.0
C180 C 0.11106 0.36309 0.68796 0.0
C181 C 0.0109 0.36921 0.6885 0.0
C182 C 0.0528 0.29523 0.67101 0.0
C183 C 0.04741 0.28182 0.63969 0.0
C184 C 0.04338 0.2343 0.63282 0.0
C185 C 0.04495 0.19961 0.65862 0.0
C186 C 0.0503 0.21256 0.69093 0.0
C187 C 0.05414 0.26113 0.69702 0.0
H188 H 0.70869 0.10742 0.11657 0.0
H189 H 0.76361 0.01444 0.04743 0.0
H190 H 0.84514 0.99739 0.08302 0.0
H191 H 0.83946 0.15819 0.13713 0.0
H192 H 0.82642 0.16318 0.17868 0.0
H193 H 0.77257 0.1671 0.14785 0.0
H194 H 0.72435 0.09896 0.17841 0.0
H195 H 0.77839 0.09429 0.20907 0.0
H196 H 0.75779 0.04306 0.18791 0.0
H197 H 0.91708 0.98651 0.12794 0.0
H198 H 0.98122 0.99083 0.17524 0.0
H199 H 0.88416 0.09789 0.21239 0.0
C200 C 0.7386 0.08451 0.10854 0.0
C201 C 0.73059 0.06286 0.079 0.0
C202 C 0.76962 0.03176 0.06981 0.0
C203 C 0.81574 0.02177 0.0899 0.0
C204 C 0.82245 0.04374 0.11888 0.0
C205 C 0.78549 0.07524 0.12787 0.0
C206 C 0.80301 0.09518 0.15978 0.0
C207 C 0.81085 0.14911 0.1556 0.0
C208 C 0.76353 0.08207 0.18529 0.0
C209 C 0.85541 0.0696 0.16755 0.0
C210 C 0.86537 0.03947 0.14389 0.0
C211 C 0.91004 0.01041 0.14639 0.0
C212 C 0.94602 0.01286 0.17345 0.0
C213 C 0.93771 0.04482 0.19735 0.0
C214 C 0.89168 0.07343 0.19433 0.0
H215 H 0.04765 0.71142 0.64141 0.0
H216 H 0.09364 0.77899 0.55135 0.0
H217 H 0.09448 0.85692 0.57505 0.0
H218 H 0.9633 0.80538 0.66361 0.0
H219 H 0.9846 0.79842 0.70584 0.0
H220 H 0.98525 0.74832 0.68136 0.0
H221 H 0.08498 0.73482 0.69842 0.0
H222 H 0.08459 0.78477 0.723 0.0
H223 H 0.13119 0.78272 0.69241 0.0
H224 H 0.08857 0.92785 0.60838 0.0
H225 H 0.08435 0.9854 0.6503 0.0
H226 H 0.04786 0.87106 0.7197 0.0
C227 C 0.05758 0.74275 0.62672 0.0
C228 C 0.07039 0.73939 0.59454 0.0
C229 C 0.08392 0.78093 0.5761 0.0
C230 C 0.08424 0.82531 0.5893 0.0
C231 C 0.07154 0.82751 0.62113 0.0
C232 C 0.05906 0.78728 0.63973 0.0
C233 C 0.04946 0.79914 0.67376 0.0
C234 C 0.99225 0.7871 0.68159 0.0
C235 C 0.08998 0.77387 0.69834 0.0
C236 C 0.05847 0.85225 0.67137 0.0
C237 C 0.07045 0.86803 0.64069 0.0
C238 C 0.07949 0.91585 0.63254 0.0
C239 C 0.07684 0.94831 0.65646 0.0
C240 C 0.06607 0.93274 0.68828 0.0
C241 C 0.05656 0.88404 0.69565 0.0
H242 H 0.37126 0.12534 0.93399 0.0
H243 H 0.48247 0.03535 0.89229 0.0
H244 H 0.41727 0.02531 0.84588 0.0
H245 H 0.25596 0.06337 0.91267 0.0
H246 H 0.2144 0.11481 0.90332 0.0
H247 H 0.27095 0.11749 0.93196 0.0
H248 H 0.30775 0.18929 0.89875 0.0
H249 H 0.25094 0.18721 0.87013 0.0
H250 H 0.31695 0.18462 0.85663 0.0
H251 H 0.33634 0.01856 0.80731 0.0
H252 H 0.24853 0.02083 0.77687 0.0
H253 H 0.19254 0.12049 0.84148 0.0
C254 C 0.38247 0.10489 0.91451 0.0
C255 C 0.43229 0.08202 0.91615 0.0
C256 C 0.44482 0.05381 0.89099 0.0
C257 C 0.40803 0.04786 0.86468 0.0
C258 C 0.3591 0.07076 0.86381 0.0
C259 C 0.34658 0.09931 0.88782 0.0
C260 C 0.29078 0.11894 0.88158 0.0
C261 C 0.25599 0.10267 0.90901 0.0
C262 C 0.29167 0.17324 0.87646 0.0
C263 C 0.27337 0.0962 0.85067 0.0
C264 C 0.31325 0.06829 0.84092 0.0
C265 C 0.30519 0.041 0.81437 0.0
C266 C 0.25517 0.04235 0.79731 0.0
C267 C 0.21407 0.0713 0.80657 0.0
C268 C 0.22361 0.09884 0.83344 0.0
H269 H 0.0741 0.34695 0.44014 0.0
H270 H 0.99276 0.45525 0.37655 0.0
H271 H 0.98472 0.39986 0.33316 0.0
H272 H 0.14794 0.29581 0.38036 0.0
H273 H 0.14089 0.23564 0.39656 0.0
H274 H 0.14052 0.28372 0.42277 0.0
H275 H 0.04961 0.25558 0.44171 0.0
H276 H 0.04966 0.20742 0.41553 0.0
H277 H 0.99482 0.24844 0.41226 0.0
H278 H 0.98861 0.33458 0.29605 0.0
H279 H 0.99968 0.26164 0.26804 0.0
H280 H 0.07449 0.19289 0.35583 0.0
C281 C 0.05471 0.35891 0.41703 0.0
C282 C 0.03397 0.40544 0.4117 0.0
C283 C 0.00845 0.41969 0.38125 0.0
C284 C 0.0039 0.38854 0.35642 0.0
C285 C 0.0246 0.34297 0.36244 0.0
C286 C 0.04912 0.32793 0.39203 0.0
C287 C 0.06711 0.27671 0.39212 0.0
C288 C 0.12772 0.27276 0.39832 0.0
C289 C 0.03859 0.24518 0.41688 0.0
C290 C 0.04927 0.26553 0.35789 0.0
C291 C 0.02518 0.30448 0.34121 0.0
C292 C 0.00701 0.30372 0.30893 0.0
C293 C 0.0136 0.26211 0.2932 0.0
C294 C 0.03763 0.22144 0.30976 0.0
C295 C 0.05539 0.2232 0.34264 0.0
H296 H 0.72435 0.1126 0.88717 0.0
H297 H 0.74594 0.97279 0.93644 0.0
H298 H 0.81848 0.9572 0.90269 0.0
H299 H 0.75789 0.08316 0.80829 0.0
H300 H 0.79439 0.13708 0.80062 0.0
H301 H 0.74047 0.13637 0.82662 0.0
H302 H 0.80323 0.16777 0.8723 0.0
H303 H 0.85727 0.16875 0.84641 0.0
H304 H 0.86372 0.13614 0.88511 0.0
H305 H 0.88952 0.95621 0.86412 0.0
H306 H 0.95913 0.97257 0.82654 0.0
H307 H 0.8984 0.11558 0.80575 0.0
C308 C 0.74422 0.0787 0.89119 0.0
C309 C 0.7279 0.04372 0.91443 0.0
C310 C 0.75561 0.99985 0.91827 0.0
C311 C 0.79754 0.99067 0.89933 0.0
C312 C 0.81236 0.02586 0.87687 0.0
C313 C 0.78706 0.06923 0.87296 0.0
C314 C 0.81315 0.10197 0.84843 0.0
C315 C 0.77414 0.11542 0.81926 0.0
C316 C 0.83568 0.14627 0.864 0.0
C317 C 0.85717 0.07019 0.83932 0.0
C318 C 0.85539 0.02622 0.85571 0.0
C319 C 0.89142 0.99056 0.85121 0.0
C320 C 0.93077 1.0002 0.82969 0.0
C321 C 0.93445 0.0454 0.81318 0.0
C322 C 0.89683 0.08074 0.81805 0.0
H323 H 0.04881 0.74332 0.45226 0.0
H324 H 0.07509 0.63358 0.38752 0.0
H325 H 0.07939 0.69446 0.34225 0.0
H326 H 0.96562 0.81838 0.39538 0.0
H327 H 0.99254 0.87294 0.40955 0.0
H328 H 0.99121 0.82079 0.43673 0.0
H329 H 0.09253 0.8278 0.44993 0.0
H330 H 0.09424 0.87991 0.42276 0.0
H331 H 0.13631 0.83005 0.41762 0.0
H332 H 0.08212 0.76659 0.30462 0.0
H333 H 0.08222 0.84547 0.27606 0.0
H334 H 0.05326 0.91011 0.36475 0.0
C335 C 0.05525 0.7324 0.42845 0.0
C336 C 0.06163 0.68401 0.42308 0.0
C337 C 0.07016 0.67058 0.39184 0.0
C338 C 0.07263 0.70486 0.36612 0.0
C339 C 0.06635 0.75237 0.37211 0.0
C340 C 0.0577 0.76625 0.40244 0.0
C341 C 0.05246 0.81975 0.40222 0.0
C342 C 0.99716 0.83378 0.41152 0.0
C343 C 0.09652 0.84059 0.42445 0.0
C344 C 0.05973 0.83378 0.36705 0.0
C345 C 0.06768 0.79423 0.35021 0.0
C346 C 0.07582 0.79781 0.31752 0.0
C347 C 0.07585 0.84292 0.30151 0.0
C348 C 0.06772 0.88417 0.31808 0.0
C349 C 0.05948 0.87935 0.35136 0.0
loop_
_geom_bond_atom_site_label_1
_geom_bond_atom_site_label_2
_geom_bond_distance
_geom_bond_site_symmetry_2
_ccdc_geom_bond_type
C0 C1 1.443 . S
C0 N4 1.376 . S
C0 C38 1.389 . S
C1 C0 1.443 . S
C1 C2 1.340 . S
C1 H41 0.951 . S
C2 C1 1.340 . S
C2 C3 1.439 . S
C2 H42 0.950 . S
C3 C2 1.439 . S
C3 N4 1.374 . S
C3 C37 1.395 1_554 S
N4 C0 1.376 . S
N4 C3 1.374 . S
N4 Co5 2.008 . S
Co5 N4 2.008 . S
Co5 N6 1.995 1_554 S
Co5 N11 2.008 1_554 S
Co5 N16 1.995 . S
Co5 N21 2.282 . S
Co5 N27 2.282 1_554 S
N6 Co5 1.995 1_556 S
N6 C7 1.376 . S
N6 C10 1.383 . S
C7 N6 1.376 . S
C7 C8 1.446 . S
C7 C37 1.391 . S
C8 C7 1.446 . S
C8 C9 1.339 . S
C8 H43 0.949 . S
C9 C8 1.339 . S
C9 C10 1.439 . S
C9 H44 0.950 . S
C10 N6 1.383 . S
C10 C9 1.439 . S
C10 C39 1.392 . S
N11 Co5 2.008 1_556 S
N11 C12 1.376 . S
N11 C15 1.374 1_545 S
C12 N11 1.376 . S
C12 C13 1.443 1_545 S
C12 C39 1.389 . S
C13 C12 1.443 1_565 S
C13 C14 1.340 . S
C13 H45 0.951 . S
C14 C13 1.340 . S
C14 C15 1.439 . S
C14 H46 0.950 . S
C15 N11 1.374 1_565 S
C15 C14 1.439 . S
C15 C40 1.395 1_556 S
N16 Co5 1.995 . S
N16 C17 1.376 1_545 S
N16 C20 1.383 . S
C17 N16 1.376 1_565 S
C17 C18 1.446 . S
C17 C40 1.391 . S
C18 C17 1.446 . S
C18 C19 1.339 . S
C18 H47 0.949 . S
C19 C18 1.339 . S
C19 C20 1.439 1_565 S
C19 H48 0.950 . S
C20 N16 1.383 . S
C20 C19 1.439 1_545 S
C20 C38 1.392 . S
N21 Co5 2.282 . S
N21 C24 1.332 . S
N21 C26 1.332 . S
C22 C23 1.386 . S
C22 C25 1.388 . S
C23 C22 1.386 . S
C23 C24 1.382 . S
C23 H49 0.952 . S
C24 N21 1.332 . S
C24 C23 1.382 . S
C24 H35 0.952 . S
C25 C22 1.388 . S
C25 C26 1.382 . S
C25 H50 0.950 . S
C26 N21 1.332 . S
C26 C25 1.382 . S
C26 H36 0.948 . S
N27 Co5 2.282 1_556 S
N27 C31 1.332 . S
N27 C32 1.332 . S
C28 C29 1.388 . S
C28 C32 1.382 . S
C28 H51 0.950 . S
C29 C28 1.388 . S
C29 C30 1.386 . S
C30 C29 1.386 . S
C30 C31 1.382 . S
C30 H52 0.950 . S
C31 N27 1.332 . S
C31 C30 1.382 . S
C31 H33 0.952 . S
C32 N27 1.332 . S
C32 C28 1.382 . S
C32 H34 0.948 . S
H33 C31 0.952 . S
H34 C32 0.948 . S
H35 C24 0.952 . S
H36 C26 0.948 . S
C37 C3 1.395 1_556 S
C37 C7 1.391 . S
C38 C0 1.389 . S
C38 C20 1.392 . S
C39 C10 1.392 . S
C39 C12 1.389 . S
C40 C15 1.395 1_554 S
C40 C17 1.391 . S
H41 C1 0.951 . S
H42 C2 0.950 . S
H43 C8 0.949 . S
H44 C9 0.950 . S
H45 C13 0.951 . S
H46 C14 0.950 . S
H47 C18 0.949 . S
H48 C19 0.950 . S
H49 C23 0.952 . S
H50 C25 0.950 . S
H51 C28 0.950 . S
H52 C30 0.950 . S
C53 C54 1.443 . S
C53 N57 1.376 . S
C53 C91 1.389 . S
C54 C53 1.443 . S
C54 C55 1.340 . S
C54 H94 0.951 . S
C55 C54 1.340 . S
C55 C56 1.439 . S
C55 H95 0.950 . S
C56 C55 1.439 . S
C56 N57 1.374 . S
C56 C90 1.395 . S
N57 C53 1.376 . S
N57 C56 1.374 . S
N57 Co58 2.008 . S
Co58 N57 2.008 . S
Co58 N59 1.995 . S
Co58 N64 2.008 . S
Co58 N69 1.995 . S
Co58 N74 2.282 . S
Co58 N80 2.282 . S
N59 Co58 1.995 . S
N59 C60 1.376 . S
N59 C63 1.383 . S
C60 N59 1.376 . S
C60 C61 1.446 . S
C60 C90 1.391 . S
C61 C60 1.446 . S
C61 C62 1.339 . S
C61 H96 0.949 . S
C62 C61 1.339 . S
C62 C63 1.439 . S
C62 H97 0.950 . S
C63 N59 1.383 . S
C63 C62 1.439 . S
C63 C92 1.392 . S
N64 Co58 2.008 . S
N64 C65 1.376 . S
N64 C68 1.374 1_455 S
C65 N64 1.376 . S
C65 C66 1.443 1_455 S
C65 C92 1.389 . S
C66 C65 1.443 1_655 S
C66 C67 1.340 . S
C66 H98 0.951 . S
C67 C66 1.340 . S
C67 C68 1.439 . S
C67 H99 0.950 . S
C68 N64 1.374 1_655 S
C68 C67 1.439 . S
C68 C93 1.395 . S
N69 Co58 1.995 . S
N69 C70 1.376 1_455 S
N69 C73 1.383 . S
C70 N69 1.376 1_655 S
C70 C71 1.446 . S
C70 C93 1.391 . S
C71 C70 1.446 . S
C71 C72 1.339 . S
C71 H100 0.949 . S
C72 C71 1.339 . S
C72 C73 1.439 1_655 S
C72 H101 0.950 . S
C73 N69 1.383 . S
C73 C72 1.439 1_455 S
C73 C91 1.392 . S
N74 Co58 2.282 . S
N74 C77 1.332 . S
N74 C79 1.332 . S
C75 C76 1.386 . S
C75 C78 1.388 . S
C76 C75 1.386 . S
C76 C77 1.382 . S
C76 H102 0.950 1_455 S
C77 N74 1.332 . S
C77 C76 1.382 . S
C77 H88 0.952 1_455 S
C78 C75 1.388 . S
C78 C79 1.382 . S
C78 H103 0.950 . S
C79 N74 1.332 . S
C79 C78 1.382 . S
C79 H89 0.948 . S
N80 Co58 2.282 . S
N80 C84 1.332 . S
N80 C85 1.332 . S
C81 C82 1.388 . S
C81 C85 1.382 . S
C81 H104 0.950 1_455 S
C82 C81 1.388 . S
C82 C83 1.386 . S
C83 C82 1.386 . S
C83 C84 1.382 . S
C83 H105 0.950 . S
C84 N80 1.332 . S
C84 C83 1.382 . S
C84 H86 0.952 . S
C85 N80 1.332 . S
C85 C81 1.382 . S
C85 H87 0.948 1_455 S
H86 C84 0.952 . S
H87 C85 0.948 1_655 S
H88 C77 0.952 1_655 S
H89 C79 0.948 . S
C90 C56 1.395 . S
C90 C60 1.391 . S
C91 C53 1.389 . S
C91 C73 1.392 . S
C92 C63 1.392 . S
C92 C65 1.389 . S
C93 C68 1.395 . S
C93 C70 1.391 . S
H94 C54 0.951 . S
H95 C55 0.950 . S
H96 C61 0.949 . S
H97 C62 0.950 . S
H98 C66 0.951 . S
H99 C67 0.950 . S
H100 C71 0.949 . S
H101 C72 0.950 . S
H102 C76 0.950 1_655 S
H103 C78 0.950 . S
H104 C81 0.950 1_655 S
H105 C83 0.950 . S
O106 Cd107 2.223 . S
O106 C114 1.315 1_465 S
Cd107 O106 2.223 . S
Cd107 O110 2.297 . S
Cd107 O111 2.439 . S
Cd107 O117 2.240 1_565 S
Cd108 O109 2.240 1_455 S
Cd108 O116 2.223 . S
Cd108 O118 2.297 . S
Cd108 O119 2.439 . S
O109 Cd108 2.240 1_655 S
O109 C114 1.279 . S
O110 Cd107 2.297 . S
O110 C112 1.247 . S
O111 Cd107 2.439 . S
O111 C112 1.208 . S
C112 O110 1.247 . S
C112 O111 1.208 . S
C113 O118 1.247 . S
C113 O119 1.208 . S
C114 O106 1.315 1_645 S
C114 O109 1.279 . S
C115 O116 1.315 . S
C115 O117 1.279 . S
O116 Cd108 2.223 . S
O116 C115 1.315 . S
O117 Cd107 2.240 1_545 S
O117 C115 1.279 . S
O118 Cd108 2.297 . S
O118 C113 1.247 . S
O119 Cd108 2.439 . S
O119 C113 1.208 . S
O120 Cd121 2.223 . S
O120 C128 1.315 . S
Cd121 O120 2.223 . S
Cd121 O124 2.297 . S
Cd121 O125 2.439 . S
Cd121 O131 2.240 . S
Cd122 O123 2.240 . S
Cd122 O130 2.223 . S
Cd122 O132 2.297 1_545 S
Cd122 O133 2.439 . S
O123 Cd122 2.240 . S
O123 C128 1.279 . S
O124 Cd121 2.297 . S
O124 C126 1.247 . S
O125 Cd121 2.439 . S
O125 C126 1.208 . S
C126 O124 1.247 . S
C126 O125 1.208 . S
C127 O132 1.247 . S
C127 O133 1.208 1_565 S
C128 O120 1.315 . S
C128 O123 1.279 . S
C129 O130 1.315 . S
C129 O131 1.279 . S
O130 Cd122 2.223 . S
O130 C129 1.315 . S
O131 Cd121 2.240 . S
O131 C129 1.279 . S
O132 Cd122 2.297 1_565 S
O132 C127 1.247 . S
O133 Cd122 2.439 . S
O133 C127 1.208 1_545 S
H134 C146 0.930 . S
H135 C148 0.930 . S
H136 C149 0.930 1_565 S
H137 C153 0.959 . S
H138 C153 0.959 . S
H139 C153 0.961 . S
H140 C154 0.960 . S
H141 C154 0.961 . S
H142 C154 0.959 . S
H143 C157 0.929 1_565 S
H144 C158 0.931 . S
H145 C160 0.930 . S
C146 H134 0.930 . S
C146 C147 1.399 . S
C146 C151 1.399 . S
C147 C146 1.399 . S
C147 C148 1.376 . S
C148 H135 0.930 . S
C148 C147 1.376 . S
C148 C149 1.388 . S
C149 H136 0.930 1_545 S
C149 C148 1.388 . S
C149 C150 1.390 . S
C150 C149 1.390 . S
C150 C151 1.394 . S
C150 C156 1.465 . S
C151 C146 1.399 . S
C151 C150 1.394 . S
C151 C152 1.516 . S
C152 C151 1.516 . S
C152 C153 1.502 . S
C152 C154 1.561 . S
C152 C155 1.526 . S
C153 H137 0.959 . S
C153 H138 0.959 . S
C153 H139 0.961 . S
C153 C152 1.502 . S
C154 H140 0.960 . S
C154 H141 0.961 . S
C154 H142 0.959 . S
C154 C152 1.561 . S
C155 C152 1.526 . S
C155 C156 1.396 . S
C155 C160 1.390 . S
C156 C150 1.465 . S
C156 C155 1.396 . S
C156 C157 1.399 . S
C157 H143 0.929 1_545 S
C157 C156 1.399 . S
C157 C158 1.385 . S
C158 H144 0.931 . S
C158 C157 1.385 . S
C158 C159 1.389 . S
C159 C158 1.389 . S
C159 C160 1.387 . S
C160 H145 0.930 . S
C160 C155 1.390 . S
C160 C159 1.387 . S
H161 C173 0.930 . S
H162 C175 0.930 1_655 S
H163 C176 0.930 . S
H164 C180 0.959 . S
H165 C180 0.959 . S
H166 C180 0.961 . S
H167 C181 0.960 . S
H168 C181 0.961 . S
H169 C181 0.959 . S
H170 C184 0.929 . S
H171 C185 0.931 . S
H172 C187 0.930 . S
C173 H161 0.930 . S
C173 C174 1.399 . S
C173 C178 1.399 . S
C174 C173 1.399 . S
C174 C175 1.376 . S
C175 H162 0.930 1_455 S
C175 C174 1.376 . S
C175 C176 1.388 1_455 S
C176 H163 0.930 . S
C176 C175 1.388 1_655 S
C176 C177 1.390 1_655 S
C177 C176 1.390 1_455 S
C177 C178 1.394 . S
C177 C183 1.465 . S
C178 C173 1.399 . S
C178 C177 1.394 . S
C178 C179 1.516 . S
C179 C178 1.516 . S
C179 C180 1.502 . S
C179 C181 1.561 . S
C179 C182 1.526 . S
C180 H164 0.959 . S
C180 H165 0.959 . S
C180 H166 0.961 . S
C180 C179 1.502 . S
C181 H167 0.960 . S
C181 H168 0.961 . S
C181 H169 0.959 . S
C181 C179 1.561 . S
C182 C179 1.526 . S
C182 C183 1.396 . S
C182 C187 1.390 . S
C183 C177 1.465 . S
C183 C182 1.396 . S
C183 C184 1.399 1_455 S
C184 H170 0.929 . S
C184 C183 1.399 1_655 S
C184 C185 1.385 . S
C185 H171 0.931 . S
C185 C184 1.385 . S
C185 C186 1.389 1_655 S
C186 C185 1.389 1_455 S
C186 C187 1.387 . S
C187 H172 0.930 . S
C187 C182 1.390 . S
C187 C186 1.387 . S
H188 C200 0.930 . S
H189 C202 0.930 1_565 S
H190 C203 0.930 . S
H191 C207 0.959 . S
H192 C207 0.959 . S
H193 C207 0.961 . S
H194 C208 0.960 . S
H195 C208 0.961 . S
H196 C208 0.959 . S
H197 C211 0.929 . S
H198 C212 0.931 . S
H199 C214 0.930 . S
C200 H188 0.930 . S
C200 C201 1.399 . S
C200 C205 1.399 . S
C201 C200 1.399 . S
C201 C202 1.376 . S
C202 H189 0.930 1_545 S
C202 C201 1.376 . S
C202 C203 1.388 1_545 S
C203 H190 0.930 . S
C203 C202 1.388 1_565 S
C203 C204 1.390 1_565 S
C204 C203 1.390 1_545 S
C204 C205 1.394 . S
C204 C210 1.465 . S
C205 C200 1.399 . S
C205 C204 1.394 . S
C205 C206 1.516 . S
C206 C205 1.516 . S
C206 C207 1.502 . S
C206 C208 1.561 . S
C206 C209 1.526 . S
C207 H191 0.959 . S
C207 H192 0.959 . S
C207 H193 0.961 . S
C207 C206 1.502 . S
C208 H194 0.960 . S
C208 H195 0.961 . S
C208 H196 0.959 . S
C208 C206 1.561 . S
C209 C206 1.526 . S
C209 C210 1.396 . S
C209 C214 1.390 . S
C210 C204 1.465 . S
C210 C209 1.396 . S
C210 C211 1.399 1_545 S
C211 H197 0.929 . S
C211 C210 1.399 1_565 S
C211 C212 1.385 . S
C212 H198 0.931 . S
C212 C211 1.385 . S
C212 C213 1.389 1_565 S
C213 C212 1.389 1_545 S
C213 C214 1.387 . S
C214 H199 0.930 . S
C214 C209 1.390 . S
C214 C213 1.387 . S
H215 C227 0.930 . S
H216 C229 0.930 . S
H217 C230 0.930 . S
H218 C234 0.959 1_655 S
H219 C234 0.960 . S
H220 C234 0.961 1_655 S
H221 C235 0.960 . S
H222 C235 0.961 . S
H223 C235 0.959 . S
H224 C238 0.929 . S
H225 C239 0.931 . S
H226 C241 0.930 . S
C227 H215 0.930 . S
C227 C228 1.399 . S
C227 C232 1.399 . S
C228 C227 1.399 . S
C228 C229 1.376 . S
C229 H216 0.930 . S
C229 C228 1.376 . S
C229 C230 1.388 . S
C230 H217 0.930 . S
C230 C229 1.388 . S
C230 C231 1.390 . S
C231 C230 1.390 . S
C231 C232 1.394 . S
C231 C237 1.465 . S
C232 C227 1.399 . S
C232 C231 1.394 . S
C232 C233 1.516 . S
C233 C232 1.516 . S
C233 C234 1.502 . S
C233 C235 1.561 . S
C233 C236 1.526 . S
C234 H218 0.959 1_455 S
C234 H219 0.960 . S
C234 H220 0.961 1_455 S
C234 C233 1.502 . S
C235 H221 0.960 . S
C235 H222 0.961 . S
C235 H223 0.959 . S
C235 C233 1.561 . S
C236 C233 1.526 . S
C236 C237 1.396 . S
C236 C241 1.390 . S
C237 C231 1.465 . S
C237 C236 1.396 . S
C237 C238 1.399 . S
C238 H224 0.929 . S
C238 C237 1.399 . S
C238 C239 1.385 . S
C239 H225 0.931 . S
C239 C238 1.385 . S
C239 C240 1.389 . S
C240 C239 1.389 . S
C240 C241 1.387 . S
C241 H226 0.930 . S
C241 C236 1.390 . S
C241 C240 1.387 . S
H242 C254 0.930 . S
H243 C256 0.930 1_565 S
H244 C257 0.930 1_565 S
H245 C261 0.959 . S
H246 C261 0.959 . S
H247 C261 0.961 . S
H248 C262 0.960 . S
H249 C262 0.961 . S
H250 C262 0.959 . S
H251 C265 0.929 . S
H252 C266 0.931 . S
H253 C268 0.930 . S
C254 H242 0.930 . S
C254 C255 1.399 . S
C254 C259 1.399 . S
C255 C254 1.399 . S
C255 C256 1.376 . S
C256 H243 0.930 1_545 S
C256 C255 1.376 . S
C256 C257 1.388 . S
C257 H244 0.930 1_545 S
C257 C256 1.388 . S
C257 C258 1.390 . S
C258 C257 1.390 . S
C258 C259 1.394 . S
C258 C264 1.465 . S
C259 C254 1.399 . S
C259 C258 1.394 . S
C259 C260 1.516 . S
C260 C259 1.516 . S
C260 C261 1.502 . S
C260 C262 1.561 . S
C260 C263 1.526 . S
C261 H245 0.959 . S
C261 H246 0.959 . S
C261 H247 0.961 . S
C261 C260 1.502 . S
C262 H248 0.960 . S
C262 H249 0.961 . S
C262 H250 0.959 . S
C262 C260 1.561 . S
C263 C260 1.526 . S
C263 C264 1.396 . S
C263 C268 1.390 . S
C264 C258 1.465 . S
C264 C263 1.396 . S
C264 C265 1.399 1_545 S
C265 H251 0.929 . S
C265 C264 1.399 1_565 S
C265 C266 1.385 . S
C266 H252 0.931 . S
C266 C265 1.385 . S
C266 C267 1.389 1_565 S
C267 C266 1.389 1_545 S
C267 C268 1.387 . S
C268 H253 0.930 . S
C268 C263 1.390 . S
C268 C267 1.387 . S
H269 C281 0.930 . S
H270 C283 0.930 . S
H271 C284 0.930 1_655 S
H272 C288 0.959 . S
H273 C288 0.959 . S
H274 C288 0.961 . S
H275 C289 0.960 . S
H276 C289 0.961 . S
H277 C289 0.959 . S
H278 C292 0.939 . S
H279 C293 0.931 . S
H280 C295 0.930 . S
C281 H269 0.930 . S
C281 C282 1.399 . S
C281 C286 1.399 . S
C282 C281 1.399 . S
C282 C283 1.376 . S
C283 H270 0.930 . S
C283 C282 1.376 . S
C283 C284 1.388 . S
C284 H271 0.930 1_455 S
C284 C283 1.388 . S
C284 C285 1.390 . S
C285 C284 1.390 . S
C285 C286 1.394 . S
C285 C291 1.465 . S
C286 C281 1.399 . S
C286 C285 1.394 . S
C286 C287 1.516 . S
C287 C286 1.516 . S
C287 C288 1.502 . S
C287 C289 1.561 . S
C287 C290 1.526 . S
C288 H272 0.959 . S
C288 H273 0.959 . S
C288 H274 0.961 . S
C288 C287 1.502 . S
C289 H275 0.960 . S
C289 H276 0.961 . S
C289 H277 0.959 . S
C289 C287 1.561 . S
C290 C287 1.526 . S
C290 C291 1.396 . S
C290 C295 1.390 . S
C291 C285 1.465 . S
C291 C290 1.396 . S
C291 C292 1.399 . S
C292 H278 0.939 . S
C292 C291 1.399 . S
C292 C293 1.385 . S
C293 H279 0.931 . S
C293 C292 1.385 . S
C293 C294 1.389 . S
C294 C293 1.389 . S
C294 C295 1.387 . S
C295 H280 0.930 . S
C295 C290 1.390 . S
C295 C294 1.387 . S
H296 C308 0.930 . S
H297 C310 0.930 . S
H298 C311 0.930 . S
H299 C315 0.959 . S
H300 C315 0.959 . S
H301 C315 0.961 . S
H302 C316 0.960 . S
H303 C316 0.961 . S
H304 C316 0.959 . S
H305 C319 0.929 . S
H306 C320 0.931 1_455 S
H307 C322 0.930 . S
C308 H296 0.930 . S
C308 C309 1.399 . S
C308 C313 1.399 . S
C309 C308 1.399 . S
C309 C310 1.376 . S
C310 H297 0.930 . S
C310 C309 1.376 . S
C310 C311 1.388 . S
C311 H298 0.930 . S
C311 C310 1.388 . S
C311 C312 1.390 . S
C312 C311 1.390 . S
C312 C313 1.394 . S
C312 C318 1.465 . S
C313 C308 1.399 . S
C313 C312 1.394 . S
C313 C314 1.516 . S
C314 C313 1.516 . S
C314 C315 1.502 . S
C314 C316 1.561 . S
C314 C317 1.526 . S
C315 H299 0.959 . S
C315 H300 0.959 . S
C315 H301 0.961 . S
C315 C314 1.502 . S
C316 H302 0.960 . S
C316 H303 0.961 . S
C316 H304 0.959 . S
C316 C314 1.561 . S
C317 C314 1.526 . S
C317 C318 1.396 . S
C317 C322 1.390 . S
C318 C312 1.465 . S
C318 C317 1.396 . S
C318 C319 1.399 . S
C319 H305 0.929 . S
C319 C318 1.399 . S
C319 C320 1.385 . S
C320 H306 0.931 1_655 S
C320 C319 1.385 . S
C320 C321 1.389 . S
C321 C320 1.389 . S
C321 C322 1.387 . S
C322 H307 0.930 . S
C322 C317 1.390 . S
C322 C321 1.387 . S
H323 C335 0.930 1_655 S
H324 C337 0.930 . S
H325 C338 0.930 . S
H326 C342 0.959 . S
H327 C342 0.959 . S
H328 C342 0.961 . S
H329 C343 0.960 . S
H330 C343 0.961 . S
H331 C343 0.959 1_455 S
H332 C346 0.929 . S
H333 C347 0.931 . S
H334 C349 0.930 . S
C335 H323 0.930 1_455 S
C335 C336 1.399 . S
C335 C340 1.399 . S
C336 C335 1.399 . S
C336 C337 1.376 . S
C337 H324 0.930 . S
C337 C336 1.376 . S
C337 C338 1.388 . S
C338 H325 0.930 . S
C338 C337 1.388 . S
C338 C339 1.390 . S
C339 C338 1.390 . S
C339 C340 1.394 . S
C339 C345 1.465 . S
C340 C335 1.399 . S
C340 C339 1.394 . S
C340 C341 1.516 1_455 S
C341 C340 1.516 1_655 S
C341 C342 1.502 . S
C341 C343 1.561 . S
C341 C344 1.526 1_655 S
C342 H326 0.959 . S
C342 H327 0.959 . S
C342 H328 0.961 . S
C342 C341 1.502 . S
C343 H329 0.960 . S
C343 H330 0.961 . S
C343 H331 0.959 1_655 S
C343 C341 1.561 . S
C344 C341 1.526 1_455 S
C344 C345 1.396 . S
C344 C349 1.390 1_455 S
C345 C339 1.465 . S
C345 C344 1.396 . S
C345 C346 1.399 . S
C346 H332 0.929 . S
C346 C345 1.399 . S
C346 C347 1.385 . S
C347 H333 0.931 . S
C347 C346 1.385 . S
C347 C348 1.389 . S
C348 C347 1.389 . S
C348 C349 1.387 1_455 S
C349 H334 0.930 . S
C349 C344 1.390 1_655 S
C349 C348 1.387 1_655 S
C159 C115 1.588 . S
C147 C22 1.588 . S
C186 C126 1.564 . S
C174 C91 1.599 . S
C213 C114 1.612 . S
C201 C38 1.600 . S
C240 C127 1.549 . S
C228 C75 1.569 . S
C267 C129 1.609 . S
C255 C39 1.594 . S
C294 C113 1.472 . S
C282 C82 1.578 . S
C321 C128 1.585 1_655 S
C309 C29 1.585 . S
C336 C92 1.615 . S
C348 C112 1.495 . S
