# Generated by pormake.
# Topology nia, (6,6)-cn, num edge types: 1
# Building blocks:
#     Node 0, Type 0, BuildingBlock: KUMJIN_clean_sbu_0, # of connection points: 6
#     Node 1, Type 0, BuildingBlock: KUMJIN_clean_sbu_0, # of connection points: 6
#     Node 2, Type 1, BuildingBlock: MIDCAF_clean_sbu_0, # of connection points: 6
#     Node 3, Type 1, BuildingBlock: MIDCAF_clean_sbu_0, # of connection points: 6
#     Edge 4, Type (0, 1), BuildingBlock: XUDNAN_clean_linker_2, # of connection points: 2
#     Edge 5, Type (0, 1), BuildingBlock: XUDNAN_clean_linker_2, # of connection points: 2
#     Edge 6, Type (0, 1), BuildingBlock: XUDNAN_clean_linker_2, # of connection points: 2
#     Edge 7, Type (0, 1), BuildingBlock: XUDNAN_clean_linker_2, # of connection points: 2
#     Edge 8, Type (0, 1), BuildingBlock: XUDNAN_clean_linker_2, # of connection points: 2
#     Edge 9, Type (0, 1), BuildingBlock: XUDNAN_clean_linker_2, # of connection points: 2
#     Edge 10, Type (0, 1), BuildingBlock: XUDNAN_clean_linker_2, # of connection points: 2
#     Edge 11, Type (0, 1), BuildingBlock: XUDNAN_clean_linker_2, # of connection points: 2
#     Edge 12, Type (0, 1), BuildingBlock: XUDNAN_clean_linker_2, # of connection points: 2
#     Edge 13, Type (0, 1), BuildingBlock: XUDNAN_clean_linker_2, # of connection points: 2
#     Edge 14, Type (0, 1), BuildingBlock: XUDNAN_clean_linker_2, # of connection points: 2
#     Edge 15, Type (0, 1), BuildingBlock: XUDNAN_clean_linker_2, # of connection points: 2
# Relax obj value: 0.169
# Max RMSD: 0.286
# Mean RMSD: 0.204
data_MOF--net-nia--node1-KUMJIN_clean_sbu_0--node2-MIDCAF_clean_sbu_0--edge1-XUDNAN_clean_linker_2
_symmetry_space_group_name_H-M    P1
_symmetry_Int_Tables_number       1
_symmetry_cell_setting            triclinic
loop_
_symmetry_equiv_pos_as_xyz
'x, y, z'
_cell_length_a     28.237849
_cell_length_b     28.212553
_cell_length_c     32.432621
_cell_angle_alpha  90.117148
_cell_angle_beta   89.903143
_cell_angle_gamma 138.98392
loop_
_atom_site_label
_atom_site_type_symbol
_atom_site_fract_x
_atom_site_fract_y
_atom_site_fract_z
_atom_type_partial_charge
Eu0 Eu 0.03463 0.98849 0.06706 0.0
C1 C 0.94159 0.94591 0.88082 0.0
C2 C 0.04847 0.0474 0.84161 0.0
C3 C 0.94593 0.93386 0.807 0.0
C4 C 0.01065 0.01695 0.87936 0.0
C5 C 0.90762 0.90451 0.84437 0.0
C6 C 0.01641 0.00494 0.80569 0.0
C7 C 0.79832 0.81 0.88378 0.0
N8 N 0.90582 0.91867 0.91745 0.0
C9 C 0.83463 0.85202 0.91936 0.0
C10 C 0.8352 0.83586 0.84624 0.0
Eu11 Eu 0.96566 -0.00021 0.97375 0.0
N12 N 0.03923 0.05753 0.91425 0.0
C13 C 0.10324 0.12981 0.91295 0.0
C14 C 0.1163 0.12042 0.84074 0.0
C15 C 0.1434 0.16198 0.87648 0.0
H16 H 0.80568 0.83198 0.9482 0.0
H17 H 0.195 0.21889 0.87593 0.0
H18 H 0.04477 0.02736 0.77649 0.0
H19 H 0.74196 0.75754 0.88535 0.0
H20 H 0.12423 0.16267 0.94026 0.0
H21 H 0.77927 0.69653 0.08092 0.0
H22 H 0.14718 0.14566 0.81242 0.0
H23 H 0.11669 0.11933 0.13928 0.0
H24 H 0.88524 0.80621 0.04559 0.0
H25 H 0.09026 0.13331 0.20754 0.0
H26 H 0.92097 0.90255 0.77877 0.0
H27 H 0.75302 0.70155 0.15227 0.0
H28 H 0.78494 0.77563 0.21313 0.0
H29 H 0.80697 0.80283 0.8188 0.0
H30 H 0.86411 0.89448 0.2451 0.0
N31 N 0.92373 0.87692 0.09628 0.0
C32 C 0.87702 0.8114 0.07673 0.0
C33 C 0.80096 0.75094 0.13698 0.0
C34 C 0.8473 0.81772 0.1567 0.0
C35 C 0.81558 0.74792 0.09673 0.0
C36 C 0.90949 0.88063 0.13555 0.0
H37 H 0.97723 0.02753 0.24327 0.0
N38 N 0.01506 0.00751 0.1336 0.0
C39 C 0.05114 0.08117 0.19251 0.0
C40 C 0.95556 0.94765 0.15434 0.0
C41 C 0.06485 0.07311 0.15326 0.0
C42 C 0.98763 0.02118 0.21277 0.0
C43 C 0.93987 0.95318 0.1943 0.0
O44 O 0.13032 0.04214 0.10292 0.0
O45 O 0.05078 0.018 1.00104 0.0
O46 O 0.95402 0.91255 0.96016 0.0
O47 O 0.99804 0.90595 0.01861 0.0
O48 O 0.14378 0.0789 0.0346 0.0
O49 O 0.05535 0.93044 0.0844 0.0
O50 O 0.87404 0.97884 0.96825 0.0
O51 O 0.9563 0.98126 0.04157 0.0
O52 O 0.0653 0.08933 0.07227 0.0
O53 O 0.0531 0.1101 1.0053 0.0
O54 O 0.86052 0.91328 1.0097 0.0
O55 O 0.98066 0.08396 0.95173 0.0
C56 C 0.11858 0.06858 0.99827 0.0
C57 C 0.11431 0.96468 0.14868 0.0
C58 C 0.12473 0.90308 0.19335 0.0
C59 C 0.12418 0.92301 0.15362 0.0
C60 C 0.11437 0.92443 0.22797 0.0
C61 C 0.10651 0.98717 0.18404 0.0
C62 C 0.10556 0.9664 0.22324 0.0
C63 C 0.96876 0.88444 0.981 0.0
C64 C 0.11178 0.98365 0.10673 0.0
C65 C 0.87748 0.89092 0.21482 0.0
C66 C 0.83216 0.82329 0.19646 0.0
C67 C 0.88898 0.93054 0.0457 0.0
C68 C 0.88254 0.03839 0.91205 0.0
C69 C 0.88687 0.09041 0.90364 0.0
C70 C 0.85856 0.08693 0.86653 0.0
C71 C 0.82672 0.03218 0.83787 0.0
C72 C 0.84881 0.98311 0.88315 0.0
C73 C 0.82222 0.98062 0.84611 0.0
C74 C 0.07464 0.12993 0.04425 0.0
C75 C 0.91165 0.04091 0.951 0.0
H76 H 0.13129 0.90605 0.12668 0.0
H77 H 0.1153 0.91053 0.25884 0.0
H78 H 0.10191 0.0214 0.18182 0.0
H79 H 0.09896 0.98373 0.25011 0.0
H80 H 0.91061 0.13227 0.92604 0.0
H81 H 0.80239 0.02755 0.81001 0.0
H82 H 0.84095 0.9405 0.88936 0.0
H83 H 0.79621 0.93741 0.82432 0.0
Eu84 Eu 0.98842 0.04994 0.54699 0.0
C85 C 0.01684 0.97531 0.37945 0.0
C86 C 0.89482 0.85693 0.36453 0.0
C87 C 0.97516 0.93925 0.30849 0.0
C88 C 0.94946 0.90941 0.39327 0.0
C89 C 0.03071 0.98996 0.33685 0.0
C90 C 0.9073 0.87306 0.32227 0.0
C91 C 0.15668 0.09767 0.35284 0.0
N92 N 0.07068 0.02224 0.40739 0.0
C93 C 0.14085 0.07988 0.39465 0.0
C94 C 0.10109 0.05338 0.32387 0.0
Eu95 Eu 0.03725 0.98854 0.47739 0.0
N96 N 0.93959 0.89391 0.43426 0.0
C97 C 0.87985 0.8252 0.44785 0.0
C98 C 0.83083 0.78811 0.37885 0.0
C99 C 0.82414 0.77167 0.4205 0.0
H100 H 0.18391 0.11386 0.41709 0.0
H101 H 0.77588 0.71785 0.43165 0.0
H102 H 0.86588 0.83325 0.29989 0.0
H103 H 0.21172 0.14522 0.34298 0.0
H104 H 0.87357 0.81139 0.47989 0.0
H105 H 0.14277 0.32992 0.51764 0.0
H106 H 0.78762 0.74642 0.35775 0.0
H107 H 0.99278 0.98956 0.63732 0.0
H108 H 0.03917 0.19786 0.51231 0.0
H109 H 0.07074 0.03733 0.69653 0.0
H110 H 0.98536 0.94923 0.27574 0.0
H111 H 0.24117 0.38717 0.56678 0.0
H112 H 0.28633 0.37268 0.62571 0.0
H113 H 0.1136 0.06708 0.29145 0.0
H114 H 0.26425 0.29273 0.67602 0.0
N115 N 0.08242 0.17906 0.55393 0.0
C116 C 0.08326 0.22165 0.53252 0.0
C117 C 0.19671 0.32889 0.56368 0.0
C118 C 0.19115 0.28512 0.58931 0.0
C119 C 0.14138 0.29684 0.53593 0.0
C120 C 0.13209 0.20933 0.58401 0.0
H121 H 0.18358 0.16837 0.70317 0.0
N122 N 0.06032 0.09186 0.60759 0.0
C123 C 0.08576 0.07379 0.67285 0.0
C124 C 0.11994 0.16442 0.61217 0.0
C125 C 0.04167 0.0468 0.63835 0.0
C126 C 0.1493 0.14766 0.67649 0.0
C127 C 0.16662 0.19412 0.64635 0.0
O128 O 0.88854 0.97645 0.58299 0.0
O129 O 0.94669 0.96716 0.4989 0.0
O130 O 0.06374 0.07615 0.4428 0.0
O131 O 0.0314 0.11372 0.48694 0.0
O132 O 0.91847 0.01692 0.4927 0.0
O133 O 0.94352 0.08308 0.57 0.0
O134 O 0.10274 0.98349 0.50749 0.0
O135 O 0.06412 0.04751 0.53534 0.0
O136 O 0.94181 0.9472 0.57352 0.0
O137 O 0.9654 0.90313 0.52728 0.0
O138 O 0.14741 0.10119 0.49416 0.0
O139 O 0.05432 0.93113 0.44938 0.0
C140 C 0.91143 0.96973 0.47707 0.0
C141 C 0.88027 0.0315 0.63316 0.0
C142 C 0.84093 0.0628 0.68213 0.0
C143 C 0.852 0.05563 0.64121 0.0
C144 C 0.86091 0.04787 0.71472 0.0
C145 C 0.8973 0.01459 0.6664 0.0
C146 C 0.88856 0.02367 0.70687 0.0
C147 C 0.05699 0.11642 0.45167 0.0
C148 C 0.89115 0.02373 0.59012 0.0
C149 C 0.22773 0.26924 0.65019 0.0
C150 C 0.2403 0.31471 0.62154 0.0
C151 C 0.13153 0.10263 0.53125 0.0
C152 C 0.17147 0.98906 0.46081 0.0
C153 C 0.17579 0.95084 0.43648 0.0
C154 C 0.24266 0.98638 0.42002 0.0
C155 C 0.30488 0.06017 0.42872 0.0
C156 C 0.23481 0.06275 0.46895 0.0
C157 C 0.30084 0.0978 0.45301 0.0
C158 C 0.93909 0.90003 0.56243 0.0
C159 C 0.10105 0.95297 0.47665 0.0
H160 H 0.83706 0.06703 0.61567 0.0
H161 H 0.85517 0.05495 0.74635 0.0
H162 H 0.91686 0.99385 0.66123 0.0
H163 H 0.90277 0.01139 0.73229 0.0
H164 H 0.12724 0.89412 0.42989 0.0
H165 H 0.3572 0.08874 0.41724 0.0
H166 H 0.23363 0.09367 0.48761 0.0
H167 H 0.34923 0.15449 0.45959 0.0
Zn168 Zn 0.4137 0.73221 0.1955 0.0
Zn169 Zn 0.32696 0.63034 0.33853 0.0
Zn170 Zn 0.37072 0.6676 0.2637 0.0
C171 C 0.46936 0.6985 0.33317 0.0
C172 C 0.24104 0.50312 0.29294 0.0
O173 O 0.33178 0.71171 0.24824 0.0
O174 O 0.36857 0.7599 0.18593 0.0
C175 C 0.53543 0.79012 0.22896 0.0
O176 O 0.46675 0.71226 0.29601 0.0
O177 O 0.41536 0.66258 0.35665 0.0
O178 O 0.24178 0.52601 0.32672 0.0
O179 O 0.28752 0.54789 0.26464 0.0
O180 O 0.51906 0.80819 0.20216 0.0
O181 O 0.48671 0.73721 0.25363 0.0
O182 O 0.31 0.57514 0.22221 0.0
O183 O 0.36592 0.64246 0.16629 0.0
C184 C 0.32134 0.58096 0.18314 0.0
O185 O 0.3416 0.71653 0.29172 0.0
O186 O 0.31251 0.68583 0.3573 0.0
C187 C 0.3314 0.74066 0.21752 0.0
C188 C 0.32376 0.72122 0.32698 0.0
Zn189 Zn 0.63351 0.31718 0.84053 0.0
Zn190 Zn 0.66987 0.35569 0.68675 0.0
Zn191 Zn 0.64467 0.34193 0.76537 0.0
C192 C 0.75879 0.49377 0.71494 0.0
C193 C 0.52694 0.28471 0.7018 0.0
O194 O 0.67919 0.29601 0.7859 0.0
O195 O 0.63898 0.25258 0.84909 0.0
C196 C 0.7552 0.467 0.82916 0.0
O197 O 0.72352 0.45815 0.74838 0.0
O198 O 0.75162 0.46178 0.68386 0.0
O199 O 0.57373 0.31188 0.67431 0.0
O200 O 0.54061 0.28629 0.74 0.0
O201 O 0.72528 0.41735 0.85486 0.0
O202 O 0.72876 0.45138 0.79264 0.0
O203 O 0.53316 0.28117 0.78448 0.0
O204 O 0.5445 0.28478 0.8522 0.0
C205 C 0.50811 0.26944 0.82114 0.0
O206 O 0.66556 0.28392 0.74175 0.0
O207 O 0.68567 0.29942 0.67462 0.0
C208 C 0.67414 0.26532 0.818 0.0
C209 C 0.6784 0.27115 0.70776 0.0
H210 H 0.23338 0.93289 0.15903 0.0
H211 H 0.05151 0.78562 0.24274 0.0
H212 H 0.08381 0.72679 0.25809 0.0
H213 H 0.22403 0.80657 0.11798 0.0
H214 H 0.32069 0.8727 0.11615 0.0
H215 H 0.28108 0.90074 0.11077 0.0
H216 H 0.3589 0.98999 0.17183 0.0
H217 H 0.39833 0.96182 0.17759 0.0
H218 H 0.35427 0.95652 0.22081 0.0
H219 H 0.13766 0.68557 0.26497 0.0
H220 H 0.20863 0.66488 0.26235 0.0
H221 H 0.35648 0.8416 0.17553 0.0
C222 C 0.19951 0.88728 0.1799 0.0
C223 C 0.13961 0.86325 0.19941 0.0
C224 C 0.09764 0.80469 0.22745 0.0
C225 C 0.11552 0.77099 0.23633 0.0
C226 C 0.17563 0.79673 0.217 0.0
C227 C 0.21693 0.85349 0.18936 0.0
C228 C 0.28029 0.8726 0.1739 0.0
C229 C 0.27624 0.86252 0.12692 0.0
C230 C 0.35219 0.94981 0.18681 0.0
C231 C 0.26762 0.81706 0.19664 0.0
C232 C 0.20718 0.77392 0.22149 0.0
C233 C 0.18508 0.71902 0.2456 0.0
C234 C 0.22582 0.70788 0.24407 0.0
C235 C 0.28835 0.75213 0.21909 0.0
C236 C 0.30895 0.80697 0.19494 0.0
H237 H 0.27438 0.23307 0.54461 0.0
H238 H 0.09916 0.01367 0.59035 0.0
H239 H 0.17805 0.04149 0.64452 0.0
H240 H 0.40514 0.24164 0.55629 0.0
H241 H 0.47807 0.3358 0.57038 0.0
H242 H 0.40561 0.30251 0.53855 0.0
H243 H 0.37881 0.35042 0.59123 0.0
H244 H 0.45435 0.38648 0.62111 0.0
H245 H 0.36717 0.32672 0.64488 0.0
H246 H 0.27621 0.09034 0.69222 0.0
H247 H 0.39217 0.15315 0.72351 0.0
H248 H 0.50579 0.33894 0.64604 0.0
C249 C 0.25251 0.19173 0.56675 0.0
C250 C 0.17966 0.12242 0.56466 0.0
C251 C 0.15386 0.06824 0.59261 0.0
C252 C 0.19833 0.08337 0.62347 0.0
C253 C 0.26923 0.15271 0.62565 0.0
C254 C 0.29672 0.20579 0.59767 0.0
C255 C 0.37721 0.27295 0.60379 0.0
C256 C 0.41895 0.28914 0.56496 0.0
C257 C 0.39538 0.33797 0.61595 0.0
C258 C 0.39028 0.24906 0.6394 0.0
C259 C 0.32704 0.17995 0.65202 0.0
C260 C 0.326 0.14506 0.68317 0.0
C261 C 0.3917 0.18134 0.70134 0.0
C262 C 0.45709 0.2514 0.68824 0.0
C263 C 0.45609 0.28577 0.65717 0.0
H264 H 0.08665 0.17563 0.12263 0.0
H265 H 0.14534 0.24732 0.99538 0.0
H266 H 0.21011 0.36843 0.01754 0.0
H267 H 0.06272 0.27676 0.15603 0.0
H268 H 0.1035 0.2988 0.20591 0.0
H269 H 0.05935 0.21676 0.18023 0.0
H270 H 0.1767 0.25512 0.18521 0.0
H271 H 0.21932 0.33578 0.21191 0.0
H272 H 0.26001 0.34219 0.166 0.0
H273 H 0.27083 0.48117 0.05313 0.0
H274 H 0.32594 0.581 0.09949 0.0
H275 H 0.23319 0.43863 0.20519 0.0
C276 C 0.11454 0.21697 0.09948 0.0
C277 C 0.11224 0.20217 0.05732 0.0
C278 C 0.14645 0.25728 0.02783 0.0
C279 C 0.1835 0.32625 0.04015 0.0
C280 C 0.18583 0.33916 0.08205 0.0
C281 C 0.15261 0.28627 0.11136 0.0
C282 C 0.16504 0.31499 0.15456 0.0
C283 C 0.09337 0.27441 0.17539 0.0
C284 C 0.2078 0.31183 0.18097 0.0
C285 C 0.21004 0.39237 0.14485 0.0
C286 C 0.22121 0.40479 0.10281 0.0
C287 C 0.26237 0.47211 0.08606 0.0
C288 C 0.2936 0.52858 0.11288 0.0
C289 C 0.28399 0.51794 0.15625 0.0
C290 C 0.2411 0.44852 0.17234 0.0
H291 H 0.86927 0.17098 0.6466 0.0
H292 H 0.7352 0.00158 0.73879 0.0
H293 H 0.67736 0.03467 0.7545 0.0
H294 H 0.89633 0.29957 0.70448 0.0
H295 H 0.89478 0.33594 0.65958 0.0
H296 H 0.92538 0.29865 0.65527 0.0
H297 H 0.83068 0.21128 0.59816 0.0
H298 H 0.79958 0.24811 0.60218 0.0
H299 H 0.73678 0.15241 0.60828 0.0
H300 H 0.62969 0.08243 0.75782 0.0
H301 H 0.60513 0.15004 0.75339 0.0
H302 H 0.77335 0.29122 0.66134 0.0
C303 C 0.82728 0.14045 0.66981 0.0
C304 C 0.80649 0.08338 0.69126 0.0
C305 C 0.75233 0.04574 0.72207 0.0
C306 C 0.71881 0.06383 0.73106 0.0
C307 C 0.7401 0.11989 0.70909 0.0
C308 C 0.79366 0.15823 0.67945 0.0
C309 C 0.80817 0.21772 0.66132 0.0
C310 C 0.88576 0.29239 0.67074 0.0
C311 C 0.79287 0.20668 0.61472 0.0
C312 C 0.75353 0.206 0.6848 0.0
C313 C 0.71452 0.14906 0.71208 0.0
C314 C 0.66031 0.12746 0.73678 0.0
C315 C 0.64682 0.16617 0.73415 0.0
C316 C 0.68828 0.22655 0.70767 0.0
C317 C 0.74114 0.24551 0.68206 0.0
H318 H 0.75228 0.80564 0.07005 0.0
H319 H 0.93824 0.03127 0.10255 0.0
H320 H 0.87334 0.01338 0.16337 0.0
H321 H 0.62812 0.80193 0.09351 0.0
H322 H 0.55836 0.70981 0.11137 0.0
H323 H 0.62323 0.73836 0.07417 0.0
H324 H 0.65891 0.6954 0.12279 0.0
H325 H 0.59123 0.66503 0.15842 0.0
H326 H 0.68249 0.72618 0.17562 0.0
H327 H 0.7836 0.97472 0.21534 0.0
H328 H 0.67273 0.92039 0.24982 0.0
H329 H 0.54712 0.71897 0.18618 0.0
C330 C 0.77968 0.8506 0.09069 0.0
C331 C 0.85121 0.91894 0.08289 0.0
C332 C 0.88441 0.97776 0.10908 0.0
C333 C 0.84797 0.96807 0.14368 0.0
C334 C 0.77811 0.89935 0.15143 0.0
C335 C 0.74402 0.8417 0.12543 0.0
C336 C 0.66558 0.77614 0.13718 0.0
C337 C 0.61594 0.7554 0.10199 0.0
C338 C 0.64873 0.71197 0.14919 0.0
C339 C 0.66113 0.80553 0.17412 0.0
C340 C 0.72651 0.87678 0.1819 0.0
C341 C 0.73268 0.91834 0.21049 0.0
C342 C 0.66983 0.88708 0.23028 0.0
C343 C 0.60259 0.8148 0.22193 0.0
C344 C 0.59885 0.77305 0.19476 0.0
H345 H 0.95829 0.81829 0.56486 0.0
H346 H 0.8526 0.85448 0.62902 0.0
H347 H 0.80948 0.76608 0.68215 0.0
H348 H 0.82304 0.6303 0.58113 0.0
H349 H 0.88576 0.6295 0.58806 0.0
H350 H 0.91059 0.69832 0.55694 0.0
H351 H 0.02443 0.79646 0.60228 0.0
H352 H -0.00115 0.72764 0.63417 0.0
H353 H 0.01449 0.79675 0.65718 0.0
H354 H 0.76942 0.66585 0.72513 0.0
H355 H 0.72919 0.5573 0.75046 0.0
H356 H 0.86833 0.59336 0.66132 0.0
C357 C 0.92574 0.80741 0.58993 0.0
C358 C 0.90843 0.84299 0.59254 0.0
C359 C 0.86643 0.82776 0.62622 0.0
C360 C 0.84211 0.77801 0.65676 0.0
C361 C 0.86102 0.74461 0.65353 0.0
C362 C 0.90176 0.75863 0.62089 0.0
C363 C 0.91223 0.71348 0.62351 0.0
C364 C 0.88101 0.66502 0.58516 0.0
C365 C 0.99227 0.76146 0.62966 0.0
C366 C 0.86868 0.66975 0.66185 0.0
C367 C 0.84036 0.68912 0.67917 0.0
C368 C 0.79275 0.65142 0.71249 0.0
C369 C 0.77112 0.59048 0.72726 0.0
C370 C 0.79747 0.56826 0.70886 0.0
C371 C 0.84881 0.6102 0.67676 0.0
H372 H 0.18454 0.85414 0.43471 0.0
H373 H 0.31844 0.03269 0.34826 0.0
H374 H 0.34749 0.97998 0.31211 0.0
H375 H 0.29482 0.84042 0.44614 0.0
H376 H 0.2247 0.74324 0.44798 0.0
H377 H 0.20564 0.7887 0.46379 0.0
H378 H 0.10091 0.71456 0.41098 0.0
H379 H 0.11882 0.6678 0.39552 0.0
H380 H 0.11801 0.71374 0.35754 0.0
H381 H 0.37688 0.91837 0.29206 0.0
H382 H 0.39402 0.84479 0.28511 0.0
H383 H 0.23623 0.70218 0.38168 0.0
C384 C 0.21816 0.88091 0.40743 0.0
C385 C 0.24957 0.94781 0.3945 0.0
C386 C 0.29443 0.98185 0.35905 0.0
C387 C 0.31105 0.9522 0.33819 0.0
C388 C 0.28182 0.88791 0.35281 0.0
C389 C 0.2352 0.85184 0.38611 0.0
C390 C 0.2143 0.78558 0.39684 0.0
C391 C 0.2362 0.78979 0.44132 0.0
C392 C 0.13319 0.71631 0.38979 0.0
C393 C 0.25899 0.79197 0.36567 0.0
C394 C 0.29708 0.85104 0.34031 0.0
C395 C 0.34587 0.8709 0.31104 0.0
C396 C 0.35516 0.82871 0.30723 0.0
C397 C 0.31491 0.76653 0.33193 0.0
C398 C 0.26683 0.74865 0.36182 0.0
H399 H 0.25575 0.20084 0.98244 0.0
H400 H 0.07985 0.98672 0.93022 0.0
H401 H 0.15575 0.02242 0.87089 0.0
H402 H 0.33305 0.30056 0.88153 0.0
H403 H 0.42402 0.36396 0.9006 0.0
H404 H 0.35158 0.32404 0.93548 0.0
H405 H 0.38619 0.27854 0.98161 0.0
H406 H 0.45835 0.31839 0.94687 0.0
H407 H 0.39069 0.22357 0.95898 0.0
H408 H 0.2572 0.0762 0.82271 0.0
H409 H 0.37489 0.14157 0.79289 0.0
H410 H 0.48311 0.32281 0.87332 0.0
C411 C 0.23287 0.16219 0.95794 0.0
C412 C 0.16119 0.09158 0.96049 0.0
C413 C 0.13374 0.04157 0.9286 0.0
C414 C 0.17666 0.06152 0.89458 0.0
C415 C 0.24714 0.13184 0.89281 0.0
C416 C 0.2749 0.18151 0.92362 0.0
C417 C 0.35408 0.25143 0.91649 0.0
C418 C 0.36638 0.31368 0.90802 0.0
C419 C 0.39999 0.26894 0.95314 0.0
C420 C 0.36752 0.23214 0.87812 0.0
C421 C 0.30497 0.16342 0.86434 0.0
C422 C 0.30604 0.13106 0.83223 0.0
C423 C 0.37296 0.16897 0.8148 0.0
C424 C 0.4375 0.23844 0.82936 0.0
C425 C 0.43411 0.27081 0.86057 0.0
H426 H 0.17184 0.2116 0.39814 0.0
H427 H 0.96414 0.11541 0.42944 0.0
H428 H 0.97795 0.18477 0.37404 0.0
H429 H 0.2589 0.38304 0.38695 0.0
H430 H 0.31646 0.40911 0.34471 0.0
H431 H 0.28233 0.33928 0.37944 0.0
H432 H 0.22771 0.25226 0.31729 0.0
H433 H 0.26105 0.32224 0.28253 0.0
H434 H 0.16648 0.23594 0.28289 0.0
H435 H 0.02002 0.27548 0.32415 0.0
H436 H 0.09563 0.39513 0.29367 0.0
H437 H 0.27924 0.43929 0.29447 0.0
C438 C 0.12878 0.20417 0.39245 0.0
C439 C 0.06678 0.15808 0.41778 0.0
C440 C 0.01216 0.15075 0.41041 0.0
C441 C 0.01908 0.18912 0.37858 0.0
C442 C 0.08125 0.23516 0.35439 0.0
C443 C 0.13571 0.24366 0.36122 0.0
C444 C 0.20194 0.30558 0.33567 0.0
C445 C 0.26879 0.36262 0.36335 0.0
C446 C 0.21505 0.2773 0.30263 0.0
C447 C 0.17819 0.33402 0.31604 0.0
C448 C 0.10702 0.29018 0.3257 0.0
C449 C 0.07513 0.30928 0.31546 0.0
C450 C 0.11825 0.37712 0.29773 0.0
C451 C 0.19249 0.42529 0.29072 0.0
C452 C 0.22181 0.40192 0.29782 0.0
H453 H 0.76454 0.076 0.90193 0.0
H454 H 0.93477 0.19641 0.8108 0.0
H455 H 0.90876 0.25946 0.78933 0.0
H456 H 0.64353 0.04455 0.83707 0.0
H457 H 0.60319 0.04913 0.87749 0.0
H458 H 0.64145 0.021 0.88923 0.0
H459 H 0.72467 0.12219 0.94438 0.0
H460 H 0.68585 0.14995 0.93323 0.0
H461 H 0.78215 0.21442 0.93004 0.0
H462 H 0.86167 0.30674 0.77761 0.0
H463 H 0.7936 0.33047 0.77362 0.0
H464 H 0.64671 0.16908 0.86806 0.0
C465 C 0.79795 0.11771 0.87858 0.0
C466 C 0.85333 0.134 0.85897 0.0
C467 C 0.89378 0.18564 0.82693 0.0
C468 C 0.87905 0.2211 0.81447 0.0
C469 C 0.82306 0.20302 0.83406 0.0
C470 C 0.78296 0.15227 0.86529 0.0
C471 C 0.72141 0.13737 0.87866 0.0
C472 C 0.64808 0.05833 0.87009 0.0
C473 C 0.72902 0.1572 0.92428 0.0
C474 C 0.73359 0.18835 0.85054 0.0
C475 C 0.79269 0.22609 0.82521 0.0
C476 C 0.81496 0.27707 0.79705 0.0
C477 C 0.77565 0.28972 0.79479 0.0
C478 C 0.71379 0.2501 0.81975 0.0
C479 C 0.69311 0.19932 0.84817 0.0
H480 H 0.87959 0.97896 0.40044 0.0
H481 H 0.79569 0.83153 0.50109 0.0
H482 H 0.67766 0.73749 0.46613 0.0
H483 H 0.73406 0.94007 0.39007 0.0
H484 H 0.7343 0.94535 0.33465 0.0
H485 H 0.81679 0.9948 0.36153 0.0
H486 H 0.83436 0.93258 0.31721 0.0
H487 H 0.75156 0.88241 0.29006 0.0
H488 H 0.7639 0.83543 0.31516 0.0
H489 H 0.56716 0.6674 0.42738 0.0
H490 H 0.46586 0.62675 0.39025 0.0
H491 H 0.61536 0.82004 0.31476 0.0
C492 C 0.83699 0.92557 0.41391 0.0
C493 C 0.84731 0.91055 0.4522 0.0
C494 C 0.78948 0.84234 0.47075 0.0
C495 C 0.72239 0.78882 0.45111 0.0
C496 C 0.71364 0.80493 0.41329 0.0
C497 C 0.76916 0.87164 0.39476 0.0
C498 C 0.74203 0.87819 0.35728 0.0
C499 C 0.75771 0.94345 0.36116 0.0
C500 C 0.77491 0.88241 0.31758 0.0
C501 C 0.66162 0.80704 0.35971 0.0
C502 C 0.64745 0.76486 0.39138 0.0
C503 C 0.57755 0.69935 0.40216 0.0
C504 C 0.52028 0.67703 0.381 0.0
C505 C 0.53263 0.72028 0.34962 0.0
C506 C 0.6044 0.78529 0.338 0.0
H507 H 0.90439 0.82189 0.90584 0.0
H508 H 0.00492 0.82139 1.00644 0.0
H509 H 0.98188 0.72863 0.96953 0.0
H510 H 0.76061 0.63275 0.8929 0.0
H511 H 0.75589 0.63915 0.83802 0.0
H512 H 0.78913 0.70974 0.8715 0.0
H513 H 0.90745 0.80112 0.82619 0.0
H514 H 0.87265 0.72722 0.79492 0.0
H515 H 0.95878 0.78618 0.82017 0.0
H516 H 0.93534 0.62665 0.92535 0.0
H517 H 0.85804 0.51627 0.88306 0.0
H518 H 0.78507 0.58227 0.81304 0.0
C519 C 0.92215 0.80315 0.9203 0.0
C520 C 0.95635 0.82931 0.95927 0.0
C521 C 0.97859 0.80246 0.97665 0.0
C522 C 0.96627 0.75019 0.95571 0.0
C523 C 0.93179 0.72544 0.91742 0.0
C524 C 0.90933 0.75059 0.90018 0.0
C525 C 0.86547 0.70934 0.86139 0.0
C526 C 0.78826 0.67045 0.86624 0.0
C527 C 0.90334 0.75892 0.82342 0.0
C528 C 0.86513 0.65569 0.85979 0.0
C529 C 0.90482 0.66663 0.89195 0.0
C530 C 0.90533 0.61854 0.89971 0.0
C531 C 0.86126 0.55603 0.87548 0.0
C532 C 0.81659 0.54167 0.84425 0.0
C533 C 0.82102 0.59357 0.83525 0.0
loop_
_geom_bond_atom_site_label_1
_geom_bond_atom_site_label_2
_geom_bond_distance
_geom_bond_site_symmetry_2
_ccdc_geom_bond_type
Eu0 N31 2.657 1_455 S
Eu0 N38 2.609 . S
Eu0 O44 2.558 1_565 S
Eu0 O45 2.612 1_564 S
Eu0 O47 2.339 1_454 S
Eu0 O48 2.563 1_565 S
Eu0 O49 2.419 . S
Eu0 O51 2.380 1_455 S
Eu0 O52 2.432 1_565 S
Eu0 C64 2.848 . S
C1 C4 1.429 . S
C1 C5 1.411 . S
C1 N8 1.377 1_455 S
C2 C4 1.420 . S
C2 C6 1.423 . S
C2 C14 1.392 . S
C3 C5 1.420 . S
C3 C6 1.351 . S
C3 H26 0.931 . S
C4 C1 1.429 . S
C4 C2 1.420 . S
C4 N12 1.362 . S
C5 C1 1.411 . S
C5 C3 1.420 . S
C5 C10 1.395 1_455 S
C6 C2 1.423 . S
C6 C3 1.351 . S
C6 H18 0.930 . S
C7 C9 1.400 . S
C7 C10 1.386 1_565 S
C7 H19 0.930 . S
N8 C1 1.377 1_655 S
N8 C9 1.321 1_545 S
N8 Eu11 2.609 . S
C9 C7 1.400 . S
C9 N8 1.321 1_565 S
C9 H16 0.930 . S
C10 C5 1.395 1_655 S
C10 C7 1.386 1_545 S
C10 H29 0.930 . S
Eu11 N8 2.609 . S
Eu11 N12 2.657 1_655 S
Eu11 O45 2.380 1_655 S
Eu11 O46 2.432 1_545 S
Eu11 O50 2.558 1_545 S
Eu11 O51 2.612 1_546 S
Eu11 O53 2.339 1_656 S
Eu11 O54 2.563 1_545 S
Eu11 O55 2.419 . S
Eu11 C75 2.848 . S
N12 C4 1.362 . S
N12 Eu11 2.657 1_455 S
N12 C13 1.334 . S
C13 N12 1.334 . S
C13 C15 1.413 . S
C13 H20 0.929 . S
C14 C2 1.392 . S
C14 C15 1.367 . S
C14 H22 0.930 . S
C15 C13 1.413 . S
C15 C14 1.367 . S
C15 H17 0.930 . S
H16 C9 0.930 . S
H17 C15 0.930 . S
H18 C6 0.930 . S
H19 C7 0.930 . S
H20 C13 0.929 . S
H21 C35 0.930 . S
H22 C14 0.930 . S
H23 C41 0.930 . S
H24 C32 0.929 . S
H25 C39 0.930 . S
H26 C3 0.931 . S
H27 C33 0.930 . S
H28 C66 0.930 . S
H29 C10 0.930 . S
H30 C65 0.931 . S
N31 Eu0 2.657 1_655 S
N31 C32 1.334 . S
N31 C36 1.362 . S
C32 H24 0.929 . S
C32 N31 1.334 . S
C32 C35 1.413 . S
C33 H27 0.930 . S
C33 C34 1.392 . S
C33 C35 1.367 . S
C34 C33 1.392 . S
C34 C36 1.420 . S
C34 C66 1.423 . S
C35 H21 0.930 . S
C35 C32 1.413 . S
C35 C33 1.367 . S
C36 N31 1.362 . S
C36 C34 1.420 . S
C36 C40 1.429 . S
H37 C42 0.931 . S
N38 Eu0 2.609 . S
N38 C40 1.377 1_455 S
N38 C41 1.321 1_565 S
C39 H25 0.930 . S
C39 C41 1.400 . S
C39 C42 1.386 1_545 S
C40 C36 1.429 . S
C40 N38 1.377 1_655 S
C40 C43 1.411 . S
C41 H23 0.930 . S
C41 N38 1.321 1_545 S
C41 C39 1.400 . S
C42 H37 0.931 . S
C42 C39 1.386 1_565 S
C42 C43 1.395 1_455 S
C43 C40 1.411 . S
C43 C42 1.395 1_655 S
C43 C65 1.420 . S
O44 Eu0 2.558 1_545 S
O44 C64 1.257 1_545 S
O45 Eu0 2.612 1_546 S
O45 Eu11 2.380 1_455 S
O45 C56 1.276 . S
O46 Eu11 2.432 1_565 S
O46 C63 1.264 . S
O47 Eu0 2.339 1_656 S
O47 C63 1.254 . S
O48 Eu0 2.563 1_545 S
O48 C56 1.235 1_554 S
O49 Eu0 2.419 . S
O49 C64 1.249 . S
O50 Eu11 2.558 1_565 S
O50 C75 1.257 1_565 S
O51 Eu0 2.380 1_655 S
O51 Eu11 2.612 1_564 S
O51 C67 1.276 . S
O52 Eu0 2.432 1_545 S
O52 C74 1.264 . S
O53 Eu11 2.339 1_454 S
O53 C74 1.254 . S
O54 Eu11 2.563 1_565 S
O54 C67 1.235 1_556 S
O55 Eu11 2.419 . S
O55 C75 1.249 . S
C56 O45 1.276 . S
C56 O48 1.235 1_556 S
C57 C59 1.393 . S
C57 C61 1.395 . S
C57 C64 1.492 . S
C58 C59 1.392 . S
C58 C60 1.386 . S
C59 C57 1.393 . S
C59 C58 1.392 . S
C59 H76 0.930 . S
C60 C58 1.386 . S
C60 C62 1.395 . S
C60 H77 0.930 . S
C61 C57 1.395 . S
C61 C62 1.379 . S
C61 H78 0.930 . S
C62 C60 1.395 . S
C62 C61 1.379 . S
C62 H79 0.930 . S
C63 O46 1.264 . S
C63 O47 1.254 . S
C64 Eu0 2.848 . S
C64 O44 1.257 1_565 S
C64 O49 1.249 . S
C64 C57 1.492 . S
C65 H30 0.931 . S
C65 C43 1.420 . S
C65 C66 1.351 . S
C66 H28 0.930 . S
C66 C34 1.423 . S
C66 C65 1.351 . S
C67 O51 1.276 . S
C67 O54 1.235 1_554 S
C68 C69 1.393 . S
C68 C72 1.395 . S
C68 C75 1.492 . S
C69 C68 1.393 . S
C69 C70 1.392 . S
C69 H80 0.930 . S
C70 C69 1.392 . S
C70 C71 1.386 . S
C71 C70 1.386 . S
C71 C73 1.395 . S
C71 H81 0.930 . S
C72 C68 1.395 . S
C72 C73 1.379 . S
C72 H82 0.930 . S
C73 C71 1.395 . S
C73 C72 1.379 . S
C73 H83 0.930 . S
C74 O52 1.264 . S
C74 O53 1.254 . S
C75 Eu11 2.848 . S
C75 O50 1.257 1_545 S
C75 O55 1.249 . S
C75 C68 1.492 . S
H76 C59 0.930 . S
H77 C60 0.930 . S
H78 C61 0.930 . S
H79 C62 0.930 . S
H80 C69 0.930 . S
H81 C71 0.930 . S
H82 C72 0.930 . S
H83 C73 0.930 . S
Eu84 N115 2.657 1_655 S
Eu84 N122 2.609 1_655 S
Eu84 O128 2.558 . S
Eu84 O129 2.612 1_545 S
Eu84 O131 2.339 1_655 S
Eu84 O132 2.563 1_545 S
Eu84 O133 2.419 . S
Eu84 O135 2.380 1_655 S
Eu84 O136 2.432 1_545 S
Eu84 C148 2.848 . S
C85 C88 1.429 . S
C85 C89 1.411 . S
C85 N92 1.377 1_665 S
C86 C88 1.420 . S
C86 C90 1.423 . S
C86 C98 1.392 . S
C87 C89 1.420 . S
C87 C90 1.351 . S
C87 H110 0.931 . S
C88 C85 1.429 . S
C88 C86 1.420 . S
C88 N96 1.362 . S
C89 C85 1.411 . S
C89 C87 1.420 . S
C89 C94 1.395 1_665 S
C90 C86 1.423 . S
C90 C87 1.351 . S
C90 H102 0.930 . S
C91 C93 1.400 . S
C91 C94 1.386 . S
C91 H103 0.930 . S
N92 C85 1.377 1_445 S
N92 C93 1.321 . S
N92 Eu95 2.609 1_545 S
C93 C91 1.400 . S
C93 N92 1.321 . S
C93 H100 0.930 . S
C94 C89 1.395 1_445 S
C94 C91 1.386 . S
C94 H113 0.930 . S
Eu95 N92 2.609 1_565 S
Eu95 N96 2.657 1_455 S
Eu95 O129 2.380 1_455 S
Eu95 O130 2.432 1_565 S
Eu95 O134 2.558 1_565 S
Eu95 O135 2.612 1_565 S
Eu95 O137 2.339 1_455 S
Eu95 O138 2.563 1_565 S
Eu95 O139 2.419 . S
Eu95 C159 2.848 . S
N96 C88 1.362 . S
N96 Eu95 2.657 1_655 S
N96 C97 1.334 . S
C97 N96 1.334 . S
C97 C99 1.413 . S
C97 H104 0.929 . S
C98 C86 1.392 . S
C98 C99 1.367 . S
C98 H106 0.930 . S
C99 C97 1.413 . S
C99 C98 1.367 . S
C99 H101 0.930 . S
H100 C93 0.930 . S
H101 C99 0.930 . S
H102 C90 0.930 . S
H103 C91 0.930 . S
H104 C97 0.929 . S
H105 C119 0.930 . S
H106 C98 0.930 . S
H107 C125 0.930 . S
H108 C116 0.929 . S
H109 C123 0.930 . S
H110 C87 0.931 . S
H111 C117 0.930 . S
H112 C150 0.930 . S
H113 C94 0.930 . S
H114 C149 0.931 . S
N115 Eu84 2.657 1_455 S
N115 C116 1.334 . S
N115 C120 1.362 . S
C116 H108 0.929 . S
C116 N115 1.334 . S
C116 C119 1.413 . S
C117 H111 0.930 . S
C117 C118 1.392 . S
C117 C119 1.367 . S
C118 C117 1.392 . S
C118 C120 1.420 . S
C118 C150 1.423 . S
C119 H105 0.930 . S
C119 C116 1.413 . S
C119 C117 1.367 . S
C120 N115 1.362 . S
C120 C118 1.420 . S
C120 C124 1.429 . S
H121 C126 0.930 . S
N122 Eu84 2.609 1_455 S
N122 C124 1.377 . S
N122 C125 1.321 1_445 S
C123 H109 0.930 . S
C123 C125 1.400 . S
C123 C126 1.386 1_665 S
C124 C120 1.429 . S
C124 N122 1.377 . S
C124 C127 1.411 . S
C125 H107 0.930 . S
C125 N122 1.321 1_665 S
C125 C123 1.400 . S
C126 H121 0.930 . S
C126 C123 1.386 1_445 S
C126 C127 1.395 . S
C127 C124 1.411 . S
C127 C126 1.395 . S
C127 C149 1.420 . S
O128 Eu84 2.558 . S
O128 C148 1.257 . S
O129 Eu84 2.612 1_565 S
O129 Eu95 2.380 1_655 S
O129 C140 1.276 . S
O130 Eu95 2.432 1_545 S
O130 C147 1.264 . S
O131 Eu84 2.339 1_455 S
O131 C147 1.254 . S
O132 Eu84 2.563 1_565 S
O132 C140 1.235 . S
O133 Eu84 2.419 . S
O133 C148 1.249 . S
O134 Eu95 2.558 1_545 S
O134 C159 1.257 1_545 S
O135 Eu84 2.380 1_455 S
O135 Eu95 2.612 1_545 S
O135 C151 1.276 . S
O136 Eu84 2.432 1_565 S
O136 C158 1.264 . S
O137 Eu95 2.339 1_655 S
O137 C158 1.254 . S
O138 Eu95 2.563 1_545 S
O138 C151 1.235 . S
O139 Eu95 2.419 . S
O139 C159 1.249 . S
C140 O129 1.276 . S
C140 O132 1.235 . S
C141 C143 1.393 . S
C141 C145 1.395 . S
C141 C148 1.492 . S
C142 C143 1.392 . S
C142 C144 1.386 . S
C143 C141 1.393 . S
C143 C142 1.392 . S
C143 H160 0.930 . S
C144 C142 1.386 . S
C144 C146 1.395 . S
C144 H161 0.930 . S
C145 C141 1.395 . S
C145 C146 1.379 . S
C145 H162 0.930 . S
C146 C144 1.395 . S
C146 C145 1.379 . S
C146 H163 0.930 . S
C147 O130 1.264 . S
C147 O131 1.254 . S
C148 Eu84 2.848 . S
C148 O128 1.257 . S
C148 O133 1.249 . S
C148 C141 1.492 . S
C149 H114 0.931 . S
C149 C127 1.420 . S
C149 C150 1.351 . S
C150 H112 0.930 . S
C150 C118 1.423 . S
C150 C149 1.351 . S
C151 O135 1.276 . S
C151 O138 1.235 . S
C152 C153 1.393 . S
C152 C156 1.395 . S
C152 C159 1.492 . S
C153 C152 1.393 . S
C153 C154 1.392 . S
C153 H164 0.930 . S
C154 C153 1.392 . S
C154 C155 1.386 . S
C155 C154 1.386 . S
C155 C157 1.395 . S
C155 H165 0.930 . S
C156 C152 1.395 . S
C156 C157 1.379 . S
C156 H166 0.930 1_565 S
C157 C155 1.395 . S
C157 C156 1.379 . S
C157 H167 0.930 . S
C158 O136 1.264 . S
C158 O137 1.254 . S
C159 Eu95 2.848 . S
C159 O134 1.257 1_565 S
C159 O139 1.249 . S
C159 C152 1.492 . S
H160 C143 0.930 . S
H161 C144 0.930 . S
H162 C145 0.930 . S
H163 C146 0.930 . S
H164 C153 0.930 . S
H165 C155 0.930 . S
H166 C156 0.930 1_545 S
H167 C157 0.930 . S
Zn168 O174 1.920 . S
Zn168 O180 1.898 . S
Zn168 O183 1.905 . S
Zn169 O177 1.905 . S
Zn169 O178 1.898 . S
Zn169 O186 1.920 . S
Zn170 O173 2.080 . S
Zn170 O176 2.114 . S
Zn170 O179 2.120 . S
Zn170 O181 2.120 . S
Zn170 O182 2.114 . S
Zn170 O185 2.080 . S
C171 O176 1.166 . S
C171 O177 1.182 . S
C172 O178 1.167 . S
C172 O179 1.299 . S
O173 Zn170 2.080 . S
O173 C187 1.305 . S
O174 Zn168 1.920 . S
O174 C187 1.234 . S
C175 O180 1.167 . S
C175 O181 1.299 . S
O176 Zn170 2.114 . S
O176 C171 1.166 . S
O177 Zn169 1.905 . S
O177 C171 1.182 . S
O178 Zn169 1.898 . S
O178 C172 1.167 . S
O179 Zn170 2.120 . S
O179 C172 1.299 . S
O180 Zn168 1.898 . S
O180 C175 1.167 . S
O181 Zn170 2.120 . S
O181 C175 1.299 . S
O182 Zn170 2.114 . S
O182 C184 1.166 . S
O183 Zn168 1.905 . S
O183 C184 1.182 . S
C184 O182 1.166 . S
C184 O183 1.182 . S
O185 Zn170 2.080 . S
O185 C188 1.305 . S
O186 Zn169 1.920 . S
O186 C188 1.234 . S
C187 O173 1.305 . S
C187 O174 1.234 . S
C188 O185 1.305 . S
C188 O186 1.234 . S
Zn189 O195 1.920 . S
Zn189 O201 1.898 . S
Zn189 O204 1.905 . S
Zn190 O198 1.905 . S
Zn190 O199 1.898 . S
Zn190 O207 1.920 . S
Zn191 O194 2.080 . S
Zn191 O197 2.114 . S
Zn191 O200 2.120 . S
Zn191 O202 2.120 . S
Zn191 O203 2.114 . S
Zn191 O206 2.080 . S
C192 O197 1.166 . S
C192 O198 1.182 . S
C193 O199 1.167 . S
C193 O200 1.299 . S
O194 Zn191 2.080 . S
O194 C208 1.305 . S
O195 Zn189 1.920 . S
O195 C208 1.234 . S
C196 O201 1.167 . S
C196 O202 1.299 . S
O197 Zn191 2.114 . S
O197 C192 1.166 . S
O198 Zn190 1.905 . S
O198 C192 1.182 . S
O199 Zn190 1.898 . S
O199 C193 1.167 . S
O200 Zn191 2.120 . S
O200 C193 1.299 . S
O201 Zn189 1.898 . S
O201 C196 1.167 . S
O202 Zn191 2.120 . S
O202 C196 1.299 . S
O203 Zn191 2.114 . S
O203 C205 1.166 . S
O204 Zn189 1.905 . S
O204 C205 1.182 . S
C205 O203 1.166 . S
C205 O204 1.182 . S
O206 Zn191 2.080 . S
O206 C209 1.305 . S
O207 Zn190 1.920 . S
O207 C209 1.234 . S
C208 O194 1.305 . S
C208 O195 1.234 . S
C209 O206 1.305 . S
C209 O207 1.234 . S
H210 C222 0.930 . S
H211 C224 0.930 . S
H212 C225 0.930 . S
H213 C229 0.959 . S
H214 C229 0.959 . S
H215 C229 0.961 . S
H216 C230 0.960 . S
H217 C230 0.961 . S
H218 C230 0.959 . S
H219 C233 0.929 . S
H220 C234 0.931 . S
H221 C236 0.930 . S
C222 H210 0.930 . S
C222 C223 1.399 . S
C222 C227 1.399 . S
C223 C222 1.399 . S
C223 C224 1.376 . S
C224 H211 0.930 . S
C224 C223 1.376 . S
C224 C225 1.388 . S
C225 H212 0.930 . S
C225 C224 1.388 . S
C225 C226 1.390 . S
C226 C225 1.390 . S
C226 C227 1.394 . S
C226 C232 1.465 . S
C227 C222 1.399 . S
C227 C226 1.394 . S
C227 C228 1.516 . S
C228 C227 1.516 . S
C228 C229 1.502 . S
C228 C230 1.561 . S
C228 C231 1.526 . S
C229 H213 0.959 . S
C229 H214 0.959 . S
C229 H215 0.961 . S
C229 C228 1.502 . S
C230 H216 0.960 . S
C230 H217 0.961 . S
C230 H218 0.959 . S
C230 C228 1.561 . S
C231 C228 1.526 . S
C231 C232 1.396 . S
C231 C236 1.390 . S
C232 C226 1.465 . S
C232 C231 1.396 . S
C232 C233 1.399 . S
C233 H219 0.929 . S
C233 C232 1.399 . S
C233 C234 1.385 . S
C234 H220 0.931 . S
C234 C233 1.385 . S
C234 C235 1.389 . S
C235 C234 1.389 . S
C235 C236 1.387 . S
C236 H221 0.930 . S
C236 C231 1.390 . S
C236 C235 1.387 . S
H237 C249 0.930 . S
H238 C251 0.930 1_565 S
H239 C252 0.930 . S
H240 C256 0.959 . S
H241 C256 0.959 . S
H242 C256 0.961 . S
H243 C257 0.960 . S
H244 C257 0.961 . S
H245 C257 0.959 . S
H246 C260 0.929 . S
H247 C261 0.931 . S
H248 C263 0.930 . S
C249 H237 0.930 . S
C249 C250 1.399 . S
C249 C254 1.399 . S
C250 C249 1.399 . S
C250 C251 1.376 . S
C251 H238 0.930 1_545 S
C251 C250 1.376 . S
C251 C252 1.388 . S
C252 H239 0.930 . S
C252 C251 1.388 . S
C252 C253 1.390 . S
C253 C252 1.390 . S
C253 C254 1.394 . S
C253 C259 1.465 . S
C254 C249 1.399 . S
C254 C253 1.394 . S
C254 C255 1.516 . S
C255 C254 1.516 . S
C255 C256 1.502 . S
C255 C257 1.561 . S
C255 C258 1.526 . S
C256 H240 0.959 . S
C256 H241 0.959 . S
C256 H242 0.961 . S
C256 C255 1.502 . S
C257 H243 0.960 . S
C257 H244 0.961 . S
C257 H245 0.959 . S
C257 C255 1.561 . S
C258 C255 1.526 . S
C258 C259 1.396 . S
C258 C263 1.390 . S
C259 C253 1.465 . S
C259 C258 1.396 . S
C259 C260 1.399 . S
C260 H246 0.929 . S
C260 C259 1.399 . S
C260 C261 1.385 . S
C261 H247 0.931 . S
C261 C260 1.385 . S
C261 C262 1.389 . S
C262 C261 1.389 . S
C262 C263 1.387 . S
C263 H248 0.930 . S
C263 C258 1.390 . S
C263 C262 1.387 . S
H264 C276 0.930 . S
H265 C278 0.930 . S
H266 C279 0.930 . S
H267 C283 0.959 . S
H268 C283 0.959 . S
H269 C283 0.961 . S
H270 C284 0.960 . S
H271 C284 0.961 . S
H272 C284 0.959 . S
H273 C287 0.929 . S
H274 C288 0.931 . S
H275 C290 0.930 . S
C276 H264 0.930 . S
C276 C277 1.399 . S
C276 C281 1.399 . S
C277 C276 1.399 . S
C277 C278 1.376 . S
C278 H265 0.930 . S
C278 C277 1.376 . S
C278 C279 1.388 . S
C279 H266 0.930 . S
C279 C278 1.388 . S
C279 C280 1.390 . S
C280 C279 1.390 . S
C280 C281 1.394 . S
C280 C286 1.465 . S
C281 C276 1.399 . S
C281 C280 1.394 . S
C281 C282 1.516 . S
C282 C281 1.516 . S
C282 C283 1.502 . S
C282 C284 1.561 . S
C282 C285 1.526 . S
C283 H267 0.959 . S
C283 H268 0.959 . S
C283 H269 0.961 . S
C283 C282 1.502 . S
C284 H270 0.960 . S
C284 H271 0.961 . S
C284 H272 0.959 . S
C284 C282 1.561 . S
C285 C282 1.526 . S
C285 C286 1.396 . S
C285 C290 1.390 . S
C286 C280 1.465 . S
C286 C285 1.396 . S
C286 C287 1.399 . S
C287 H273 0.929 . S
C287 C286 1.399 . S
C287 C288 1.385 . S
C288 H274 0.931 . S
C288 C287 1.385 . S
C288 C289 1.389 . S
C289 C288 1.389 . S
C289 C290 1.387 . S
C290 H275 0.930 . S
C290 C285 1.390 . S
C290 C289 1.387 . S
H291 C303 0.930 . S
H292 C305 0.930 . S
H293 C306 0.930 . S
H294 C310 0.959 . S
H295 C310 0.959 . S
H296 C310 0.961 . S
H297 C311 0.960 . S
H298 C311 0.961 . S
H299 C311 0.959 . S
H300 C314 0.929 . S
H301 C315 0.931 . S
H302 C317 0.930 . S
C303 H291 0.930 . S
C303 C304 1.399 . S
C303 C308 1.399 . S
C304 C303 1.399 . S
C304 C305 1.376 . S
C305 H292 0.930 . S
C305 C304 1.376 . S
C305 C306 1.388 . S
C306 H293 0.930 . S
C306 C305 1.388 . S
C306 C307 1.390 . S
C307 C306 1.390 . S
C307 C308 1.394 . S
C307 C313 1.465 . S
C308 C303 1.399 . S
C308 C307 1.394 . S
C308 C309 1.516 . S
C309 C308 1.516 . S
C309 C310 1.502 . S
C309 C311 1.561 . S
C309 C312 1.526 . S
C310 H294 0.959 . S
C310 H295 0.959 . S
C310 H296 0.961 . S
C310 C309 1.502 . S
C311 H297 0.960 . S
C311 H298 0.961 . S
C311 H299 0.959 . S
C311 C309 1.561 . S
C312 C309 1.526 . S
C312 C313 1.396 . S
C312 C317 1.390 . S
C313 C307 1.465 . S
C313 C312 1.396 . S
C313 C314 1.399 . S
C314 H300 0.929 . S
C314 C313 1.399 . S
C314 C315 1.385 . S
C315 H301 0.931 . S
C315 C314 1.385 . S
C315 C316 1.389 . S
C316 C315 1.389 . S
C316 C317 1.387 . S
C317 H302 0.930 . S
C317 C312 1.390 . S
C317 C316 1.387 . S
H318 C330 0.930 . S
H319 C332 0.930 1_545 S
H320 C333 0.930 1_545 S
H321 C337 0.959 . S
H322 C337 0.959 . S
H323 C337 0.961 . S
H324 C338 0.960 . S
H325 C338 0.961 . S
H326 C338 0.959 . S
H327 C341 0.929 . S
H328 C342 0.931 . S
H329 C344 0.930 . S
C330 H318 0.930 . S
C330 C331 1.399 . S
C330 C335 1.399 . S
C331 C330 1.399 . S
C331 C332 1.376 . S
C332 H319 0.930 1_565 S
C332 C331 1.376 . S
C332 C333 1.388 . S
C333 H320 0.930 1_565 S
C333 C332 1.388 . S
C333 C334 1.390 . S
C334 C333 1.390 . S
C334 C335 1.394 . S
C334 C340 1.465 . S
C335 C330 1.399 . S
C335 C334 1.394 . S
C335 C336 1.516 . S
C336 C335 1.516 . S
C336 C337 1.502 . S
C336 C338 1.561 . S
C336 C339 1.526 . S
C337 H321 0.959 . S
C337 H322 0.959 . S
C337 H323 0.961 . S
C337 C336 1.502 . S
C338 H324 0.960 . S
C338 H325 0.961 . S
C338 H326 0.959 . S
C338 C336 1.561 . S
C339 C336 1.526 . S
C339 C340 1.396 . S
C339 C344 1.390 . S
C340 C334 1.465 . S
C340 C339 1.396 . S
C340 C341 1.399 . S
C341 H327 0.929 . S
C341 C340 1.399 . S
C341 C342 1.385 . S
C342 H328 0.931 . S
C342 C341 1.385 . S
C342 C343 1.389 . S
C343 C342 1.389 . S
C343 C344 1.387 . S
C344 H329 0.930 . S
C344 C339 1.390 . S
C344 C343 1.387 . S
H345 C357 0.930 . S
H346 C359 0.930 . S
H347 C360 0.930 . S
H348 C364 0.959 . S
H349 C364 0.959 . S
H350 C364 0.961 1_455 S
H351 C365 0.960 . S
H352 C365 0.961 . S
H353 C365 0.959 . S
H354 C368 0.929 . S
H355 C369 0.931 . S
H356 C371 0.930 . S
C357 H345 0.930 . S
C357 C358 1.399 . S
C357 C362 1.399 . S
C358 C357 1.399 . S
C358 C359 1.376 . S
C359 H346 0.930 . S
C359 C358 1.376 . S
C359 C360 1.388 . S
C360 H347 0.930 . S
C360 C359 1.388 . S
C360 C361 1.390 . S
C361 C360 1.390 . S
C361 C362 1.394 . S
C361 C367 1.465 . S
C362 C357 1.399 . S
C362 C361 1.394 . S
C362 C363 1.516 . S
C363 C362 1.516 . S
C363 C364 1.502 . S
C363 C365 1.561 . S
C363 C366 1.526 . S
C364 H348 0.959 . S
C364 H349 0.959 . S
C364 H350 0.961 1_655 S
C364 C363 1.502 . S
C365 H351 0.960 . S
C365 H352 0.961 . S
C365 H353 0.959 . S
C365 C363 1.561 . S
C366 C363 1.526 . S
C366 C367 1.396 . S
C366 C371 1.390 . S
C367 C361 1.465 . S
C367 C366 1.396 . S
C367 C368 1.399 . S
C368 H354 0.929 . S
C368 C367 1.399 . S
C368 C369 1.385 . S
C369 H355 0.931 . S
C369 C368 1.385 . S
C369 C370 1.389 . S
C370 C369 1.389 . S
C370 C371 1.387 . S
C371 H356 0.930 . S
C371 C366 1.390 . S
C371 C370 1.387 . S
H372 C384 0.930 . S
H373 C386 0.930 . S
H374 C387 0.930 . S
H375 C391 0.959 . S
H376 C391 0.959 . S
H377 C391 0.961 . S
H378 C392 0.960 . S
H379 C392 0.961 . S
H380 C392 0.959 . S
H381 C395 0.929 . S
H382 C396 0.931 . S
H383 C398 0.930 . S
C384 H372 0.930 . S
C384 C385 1.399 . S
C384 C389 1.399 . S
C385 C384 1.399 . S
C385 C386 1.376 . S
C386 H373 0.930 . S
C386 C385 1.376 . S
C386 C387 1.388 . S
C387 H374 0.930 . S
C387 C386 1.388 . S
C387 C388 1.390 . S
C388 C387 1.390 . S
C388 C389 1.394 . S
C388 C394 1.465 . S
C389 C384 1.399 . S
C389 C388 1.394 . S
C389 C390 1.516 . S
C390 C389 1.516 . S
C390 C391 1.502 . S
C390 C392 1.561 . S
C390 C393 1.526 . S
C391 H375 0.959 . S
C391 H376 0.959 . S
C391 H377 0.961 . S
C391 C390 1.502 . S
C392 H378 0.960 . S
C392 H379 0.961 . S
C392 H380 0.959 . S
C392 C390 1.561 . S
C393 C390 1.526 . S
C393 C394 1.396 . S
C393 C398 1.390 . S
C394 C388 1.465 . S
C394 C393 1.396 . S
C394 C395 1.399 . S
C395 H381 0.929 . S
C395 C394 1.399 . S
C395 C396 1.385 . S
C396 H382 0.931 . S
C396 C395 1.385 . S
C396 C397 1.389 . S
C397 C396 1.389 . S
C397 C398 1.387 . S
C398 H383 0.930 . S
C398 C393 1.390 . S
C398 C397 1.387 . S
H399 C411 0.930 . S
H400 C413 0.930 1_565 S
H401 C414 0.930 . S
H402 C418 0.959 . S
H403 C418 0.959 . S
H404 C418 0.961 . S
H405 C419 0.960 . S
H406 C419 0.961 . S
H407 C419 0.959 . S
H408 C422 0.929 . S
H409 C423 0.931 . S
H410 C425 0.930 . S
C411 H399 0.930 . S
C411 C412 1.399 . S
C411 C416 1.399 . S
C412 C411 1.399 . S
C412 C413 1.376 . S
C413 H400 0.930 1_545 S
C413 C412 1.376 . S
C413 C414 1.388 . S
C414 H401 0.930 . S
C414 C413 1.388 . S
C414 C415 1.390 . S
C415 C414 1.390 . S
C415 C416 1.394 . S
C415 C421 1.465 . S
C416 C411 1.399 . S
C416 C415 1.394 . S
C416 C417 1.516 . S
C417 C416 1.516 . S
C417 C418 1.502 . S
C417 C419 1.561 . S
C417 C420 1.526 . S
C418 H402 0.959 . S
C418 H403 0.959 . S
C418 H404 0.961 . S
C418 C417 1.502 . S
C419 H405 0.960 . S
C419 H406 0.961 . S
C419 H407 0.959 . S
C419 C417 1.561 . S
C420 C417 1.526 . S
C420 C421 1.396 . S
C420 C425 1.390 . S
C421 C415 1.465 . S
C421 C420 1.396 . S
C421 C422 1.399 . S
C422 H408 0.929 . S
C422 C421 1.399 . S
C422 C423 1.385 . S
C423 H409 0.931 . S
C423 C422 1.385 . S
C423 C424 1.389 . S
C424 C423 1.389 . S
C424 C425 1.387 . S
C425 H410 0.930 . S
C425 C420 1.390 . S
C425 C424 1.387 . S
H426 C438 0.930 . S
H427 C440 0.930 . S
H428 C441 0.930 . S
H429 C445 0.959 . S
H430 C445 0.959 . S
H431 C445 0.961 . S
H432 C446 0.960 . S
H433 C446 0.961 . S
H434 C446 0.959 . S
H435 C449 0.929 . S
H436 C450 0.931 . S
H437 C452 0.930 . S
C438 H426 0.930 . S
C438 C439 1.399 . S
C438 C443 1.399 . S
C439 C438 1.399 . S
C439 C440 1.376 . S
C440 H427 0.930 . S
C440 C439 1.376 . S
C440 C441 1.388 . S
C441 H428 0.930 . S
C441 C440 1.388 . S
C441 C442 1.390 . S
C442 C441 1.390 . S
C442 C443 1.394 . S
C442 C448 1.465 . S
C443 C438 1.399 . S
C443 C442 1.394 . S
C443 C444 1.516 . S
C444 C443 1.516 . S
C444 C445 1.502 . S
C444 C446 1.561 . S
C444 C447 1.526 . S
C445 H429 0.959 . S
C445 H430 0.959 . S
C445 H431 0.961 . S
C445 C444 1.502 . S
C446 H432 0.960 . S
C446 H433 0.961 . S
C446 H434 0.959 . S
C446 C444 1.561 . S
C447 C444 1.526 . S
C447 C448 1.396 . S
C447 C452 1.390 . S
C448 C442 1.465 . S
C448 C447 1.396 . S
C448 C449 1.399 . S
C449 H435 0.929 . S
C449 C448 1.399 . S
C449 C450 1.385 . S
C450 H436 0.931 . S
C450 C449 1.385 . S
C450 C451 1.389 . S
C451 C450 1.389 . S
C451 C452 1.387 . S
C452 H437 0.930 . S
C452 C447 1.390 . S
C452 C451 1.387 . S
H453 C465 0.930 . S
H454 C467 0.930 . S
H455 C468 0.930 . S
H456 C472 0.959 . S
H457 C472 0.959 . S
H458 C472 0.961 . S
H459 C473 0.960 . S
H460 C473 0.961 . S
H461 C473 0.959 . S
H462 C476 0.929 . S
H463 C477 0.931 . S
H464 C479 0.930 . S
C465 H453 0.930 . S
C465 C466 1.399 . S
C465 C470 1.399 . S
C466 C465 1.399 . S
C466 C467 1.376 . S
C467 H454 0.930 . S
C467 C466 1.376 . S
C467 C468 1.388 . S
C468 H455 0.930 . S
C468 C467 1.388 . S
C468 C469 1.390 . S
C469 C468 1.390 . S
C469 C470 1.394 . S
C469 C475 1.465 . S
C470 C465 1.399 . S
C470 C469 1.394 . S
C470 C471 1.516 . S
C471 C470 1.516 . S
C471 C472 1.502 . S
C471 C473 1.561 . S
C471 C474 1.526 . S
C472 H456 0.959 . S
C472 H457 0.959 . S
C472 H458 0.961 . S
C472 C471 1.502 . S
C473 H459 0.960 . S
C473 H460 0.961 . S
C473 H461 0.959 . S
C473 C471 1.561 . S
C474 C471 1.526 . S
C474 C475 1.396 . S
C474 C479 1.390 . S
C475 C469 1.465 . S
C475 C474 1.396 . S
C475 C476 1.399 . S
C476 H462 0.929 . S
C476 C475 1.399 . S
C476 C477 1.385 . S
C477 H463 0.931 . S
C477 C476 1.385 . S
C477 C478 1.389 . S
C478 C477 1.389 . S
C478 C479 1.387 . S
C479 H464 0.930 . S
C479 C474 1.390 . S
C479 C478 1.387 . S
H480 C492 0.930 . S
H481 C494 0.930 . S
H482 C495 0.930 . S
H483 C499 0.959 . S
H484 C499 0.959 . S
H485 C499 0.961 1_545 S
H486 C500 0.960 . S
H487 C500 0.961 . S
H488 C500 0.959 . S
H489 C503 0.929 . S
H490 C504 0.931 . S
H491 C506 0.930 . S
C492 H480 0.930 . S
C492 C493 1.399 . S
C492 C497 1.399 . S
C493 C492 1.399 . S
C493 C494 1.376 . S
C494 H481 0.930 . S
C494 C493 1.376 . S
C494 C495 1.388 . S
C495 H482 0.930 . S
C495 C494 1.388 . S
C495 C496 1.390 . S
C496 C495 1.390 . S
C496 C497 1.394 . S
C496 C502 1.465 . S
C497 C492 1.399 . S
C497 C496 1.394 . S
C497 C498 1.516 . S
C498 C497 1.516 . S
C498 C499 1.502 . S
C498 C500 1.561 . S
C498 C501 1.526 . S
C499 H483 0.959 . S
C499 H484 0.959 . S
C499 H485 0.961 1_565 S
C499 C498 1.502 . S
C500 H486 0.960 . S
C500 H487 0.961 . S
C500 H488 0.959 . S
C500 C498 1.561 . S
C501 C498 1.526 . S
C501 C502 1.396 . S
C501 C506 1.390 . S
C502 C496 1.465 . S
C502 C501 1.396 . S
C502 C503 1.399 . S
C503 H489 0.929 . S
C503 C502 1.399 . S
C503 C504 1.385 . S
C504 H490 0.931 . S
C504 C503 1.385 . S
C504 C505 1.389 . S
C505 C504 1.389 . S
C505 C506 1.387 . S
C506 H491 0.930 . S
C506 C501 1.390 . S
C506 C505 1.387 . S
H507 C519 0.930 . S
H508 C521 0.930 . S
H509 C522 0.930 . S
H510 C526 0.959 . S
H511 C526 0.959 . S
H512 C526 0.961 . S
H513 C527 0.960 1_455 S
H514 C527 0.961 . S
H515 C527 0.959 1_455 S
H516 C530 0.929 . S
H517 C531 0.931 . S
H518 C533 0.930 . S
C519 H507 0.930 . S
C519 C520 1.399 . S
C519 C524 1.399 . S
C520 C519 1.399 . S
C520 C521 1.376 . S
C521 H508 0.930 . S
C521 C520 1.376 . S
C521 C522 1.388 . S
C522 H509 0.930 . S
C522 C521 1.388 . S
C522 C523 1.390 . S
C523 C522 1.390 . S
C523 C524 1.394 . S
C523 C529 1.465 . S
C524 C519 1.399 . S
C524 C523 1.394 . S
C524 C525 1.516 . S
C525 C524 1.516 . S
C525 C526 1.502 . S
C525 C527 1.561 . S
C525 C528 1.526 . S
C526 H510 0.959 . S
C526 H511 0.959 . S
C526 H512 0.961 . S
C526 C525 1.502 . S
C527 H513 0.960 1_655 S
C527 H514 0.961 . S
C527 H515 0.959 1_655 S
C527 C525 1.561 . S
C528 C525 1.526 . S
C528 C529 1.396 . S
C528 C533 1.390 . S
C529 C523 1.465 . S
C529 C528 1.396 . S
C529 C530 1.399 . S
C530 H516 0.929 . S
C530 C529 1.399 . S
C530 C531 1.385 . S
C531 H517 0.931 . S
C531 C530 1.385 . S
C531 C532 1.389 . S
C532 C531 1.389 . S
C532 C533 1.387 . S
C533 H518 0.930 . S
C533 C528 1.390 . S
C533 C532 1.387 . S
C223 C58 1.186 . S
C235 C187 1.260 . S
C250 C151 1.601 . S
C262 C193 1.503 . S
C277 C74 1.514 . S
C289 C184 1.431 . S
C304 C142 1.148 . S
C316 C209 1.245 . S
C331 C67 1.596 . S
C343 C175 1.502 . S
C370 C192 1.445 . S
C358 C158 1.511 . S
C385 C154 1.053 . S
C397 C188 1.332 . S
C424 C205 1.466 . S
C412 C56 1.569 . S
C451 C172 1.383 . S
C439 C147 1.573 . S
C478 C208 1.324 . S
C466 C70 1.074 . S
C505 C171 1.440 . S
C493 C140 1.564 . S
C532 C196 1.357 . S
C520 C63 1.561 . S
