# Generated by pormake.
# Topology ssa, (4,4)-cn, num edge types: 1
# Building blocks:
#     Node 0, Type 0, BuildingBlock: KOZSID_clean_sbu_0, # of connection points: 4
#     Node 1, Type 0, BuildingBlock: KOZSID_clean_sbu_0, # of connection points: 4
#     Node 2, Type 0, BuildingBlock: KOZSID_clean_sbu_0, # of connection points: 4
#     Node 3, Type 0, BuildingBlock: KOZSID_clean_sbu_0, # of connection points: 4
#     Node 4, Type 0, BuildingBlock: KOZSID_clean_sbu_0, # of connection points: 4
#     Node 5, Type 0, BuildingBlock: KOZSID_clean_sbu_0, # of connection points: 4
#     Node 6, Type 1, BuildingBlock: KOZSID_clean_sbu_0, # of connection points: 4
#     Node 7, Type 1, BuildingBlock: KOZSID_clean_sbu_0, # of connection points: 4
#     Node 8, Type 1, BuildingBlock: KOZSID_clean_sbu_0, # of connection points: 4
#     Node 9, Type 1, BuildingBlock: KOZSID_clean_sbu_0, # of connection points: 4
#     Node 10, Type 1, BuildingBlock: KOZSID_clean_sbu_0, # of connection points: 4
#     Node 11, Type 1, BuildingBlock: KOZSID_clean_sbu_0, # of connection points: 4
#     Edge 12, Type (0, 1), BuildingBlock: XIVTED_clean_linker_0, # of connection points: 2
#     Edge 13, Type (0, 1), BuildingBlock: XIVTED_clean_linker_0, # of connection points: 2
#     Edge 14, Type (0, 1), BuildingBlock: XIVTED_clean_linker_0, # of connection points: 2
#     Edge 15, Type (0, 1), BuildingBlock: XIVTED_clean_linker_0, # of connection points: 2
#     Edge 16, Type (0, 1), BuildingBlock: XIVTED_clean_linker_0, # of connection points: 2
#     Edge 17, Type (0, 1), BuildingBlock: XIVTED_clean_linker_0, # of connection points: 2
#     Edge 18, Type (0, 1), BuildingBlock: XIVTED_clean_linker_0, # of connection points: 2
#     Edge 19, Type (0, 1), BuildingBlock: XIVTED_clean_linker_0, # of connection points: 2
#     Edge 20, Type (0, 1), BuildingBlock: XIVTED_clean_linker_0, # of connection points: 2
#     Edge 21, Type (0, 1), BuildingBlock: XIVTED_clean_linker_0, # of connection points: 2
#     Edge 22, Type (0, 1), BuildingBlock: XIVTED_clean_linker_0, # of connection points: 2
#     Edge 23, Type (0, 1), BuildingBlock: XIVTED_clean_linker_0, # of connection points: 2
#     Edge 24, Type (0, 1), BuildingBlock: XIVTED_clean_linker_0, # of connection points: 2
#     Edge 25, Type (0, 1), BuildingBlock: XIVTED_clean_linker_0, # of connection points: 2
#     Edge 26, Type (0, 1), BuildingBlock: XIVTED_clean_linker_0, # of connection points: 2
#     Edge 27, Type (0, 1), BuildingBlock: XIVTED_clean_linker_0, # of connection points: 2
#     Edge 28, Type (0, 1), BuildingBlock: XIVTED_clean_linker_0, # of connection points: 2
#     Edge 29, Type (0, 1), BuildingBlock: XIVTED_clean_linker_0, # of connection points: 2
#     Edge 30, Type (0, 1), BuildingBlock: XIVTED_clean_linker_0, # of connection points: 2
#     Edge 31, Type (0, 1), BuildingBlock: XIVTED_clean_linker_0, # of connection points: 2
#     Edge 32, Type (0, 1), BuildingBlock: XIVTED_clean_linker_0, # of connection points: 2
#     Edge 33, Type (0, 1), BuildingBlock: XIVTED_clean_linker_0, # of connection points: 2
#     Edge 34, Type (0, 1), BuildingBlock: XIVTED_clean_linker_0, # of connection points: 2
#     Edge 35, Type (0, 1), BuildingBlock: XIVTED_clean_linker_0, # of connection points: 2
# Relax obj value: 0.009
# Max RMSD: 0.036
# Mean RMSD: 0.017
data_MOF--net-ssa--node1-KOZSID_clean_sbu_0--node2-KOZSID_clean_sbu_0--edge1-XIVTED_clean_linker_0
_symmetry_space_group_name_H-M    P1
_symmetry_Int_Tables_number       1
_symmetry_cell_setting            triclinic
loop_
_symmetry_equiv_pos_as_xyz
'x, y, z'
_cell_length_a     58.504973
_cell_length_b     59.808661
_cell_length_c     42.03719
_cell_angle_alpha  90.45382
_cell_angle_beta   93.142697
_cell_angle_gamma 122.42008
loop_
_atom_site_label
_atom_site_type_symbol
_atom_site_fract_x
_atom_site_fract_y
_atom_site_fract_z
_atom_type_partial_charge
C0 C 0.95703 0.51125 0.98333 0.0
C1 C 0.93365 0.50539 0.99759 0.0
C2 C 0.93368 0.49427 0.02574 0.0
C3 C 0.95678 0.49371 0.02699 0.0
N4 N 0.97174 0.50399 0.00144 0.0
Co5 Co 0.00579 0.50514 0.99264 0.0
N6 N 0.00514 0.48781 0.03362 0.0
C7 C 0.98658 0.47997 0.05571 0.0
C8 C 0.99136 0.46872 0.08137 0.0
C9 C 0.01456 0.46967 0.0756 0.0
C10 C 0.02274 0.48169 0.0467 0.0
N11 N 0.03957 0.50585 0.98359 0.0
C12 C 0.05397 0.49806 0.00141 0.0
C13 C 0.07677 0.50295 0.98655 0.0
C14 C 0.07669 0.514 0.95835 0.0
C15 C 0.05408 0.51542 0.9576 0.0
N16 N 0.00666 0.52284 0.95193 0.0
C17 C 0.02573 0.53152 0.93039 0.0
C18 C 0.02122 0.54324 0.90505 0.0
C19 C 0.99773 0.54182 0.91053 0.0
C20 C 0.98911 0.52906 0.93892 0.0
N21 N 0.02819 0.54028 0.01528 0.0
C22 C 0.06308 0.5877 0.05138 0.0
C23 C 0.06983 0.58339 0.0216 0.0
C24 C 0.05212 0.55981 0.00399 0.0
C25 C 0.03781 0.56863 0.06181 0.0
C26 C 0.02084 0.54527 0.04355 0.0
N27 N 0.98343 0.46999 0.97001 0.0
C28 C 0.97234 0.44188 0.92276 0.0
C29 C 0.94906 0.4215 0.9357 0.0
C30 C 0.94391 0.42539 0.96662 0.0
C31 C 0.96128 0.44954 0.98325 0.0
C32 C 0.98913 0.46576 0.94021 0.0
H33 H 0.95599 0.45131 0.00648 0.0
H34 H 0.00634 0.48062 0.92887 0.0
H35 H 0.05865 0.55758 0.98176 0.0
H36 H 0.00219 0.5313 0.05322 0.0
C37 C 0.96463 0.48307 0.05148 0.0
C38 C 0.96388 0.52291 0.95214 0.0
C39 C 0.04753 0.48707 0.03297 0.0
C40 C 0.047 0.52731 0.93391 0.0
H41 H 0.91787 0.50837 0.98848 0.0
H42 H 0.91839 0.487 0.04296 0.0
H43 H 0.9794 0.46076 0.10183 0.0
H44 H 0.02437 0.46239 0.09102 0.0
H45 H 0.09226 0.49947 0.99538 0.0
H46 H 0.09175 0.52088 0.94088 0.0
H47 H 0.03335 0.5515 0.88477 0.0
H48 H 0.98791 0.54913 0.89517 0.0
H49 H 0.08918 0.59758 0.01244 0.0
H50 H 0.03133 0.57141 0.08435 0.0
H51 H 0.97746 0.43958 0.89909 0.0
H52 H 0.92602 0.41026 0.97764 0.0
C53 C 0.54941 0.01858 0.54314 0.0
C54 C 0.55507 0.01016 0.57146 0.0
C55 C 0.53168 0.98734 0.57816 0.0
C56 C 0.51323 0.98315 0.55358 0.0
N57 N 0.52357 0.00162 0.53124 0.0
Co58 Co 0.50393 0.00397 0.49211 0.0
N59 N 0.46871 0.97205 0.5036 0.0
C60 C 0.46446 0.95732 0.52951 0.0
C61 C 0.4384 0.93595 0.53019 0.0
C62 C 0.42524 0.93683 0.5029 0.0
C63 C 0.44412 0.9589 0.48716 0.0
N64 N 0.48428 0.0065 0.45313 0.0
C65 C 0.45807 0.9904 0.44199 0.0
C66 C 0.45241 0.99935 0.4141 0.0
C67 C 0.47612 0.02159 0.40691 0.0
C68 C 0.49473 0.025 0.43082 0.0
N69 N 0.53918 0.03578 0.48053 0.0
C70 C 0.54368 0.04999 0.45412 0.0
C71 C 0.56973 0.0714 0.45351 0.0
C72 C 0.58256 0.07117 0.48145 0.0
C73 C 0.5635 0.04944 0.49749 0.0
N74 N 0.51183 0.98047 0.46768 0.0
C75 C 0.523 0.94696 0.43326 0.0
C76 C 0.5262 0.96976 0.42001 0.0
C77 C 0.52053 0.98606 0.43745 0.0
C78 C 0.51394 0.9412 0.46396 0.0
C79 C 0.50853 0.95801 0.48052 0.0
N80 N 0.49608 0.02743 0.51657 0.0
C81 C 0.4959 0.06768 0.52174 0.0
C82 C 0.48602 0.06125 0.55205 0.0
C83 C 0.48115 0.03748 0.56415 0.0
C84 C 0.4863 0.02106 0.54623 0.0
C85 C 0.50073 0.05066 0.50459 0.0
H86 H 0.48231 0.00337 0.55695 0.0
H87 H 0.50849 0.05685 0.48181 0.0
H88 H 0.52332 0.00305 0.42592 0.0
H89 H 0.50152 0.95224 0.50362 0.0
C90 C 0.4857 0.96317 0.55189 0.0
C91 C 0.56858 0.04381 0.52983 0.0
C92 C 0.43829 0.96565 0.45579 0.0
C93 C 0.52239 0.04447 0.43206 0.0
H94 H 0.57395 0.02002 0.5862 0.0
H95 H 0.52827 0.9757 0.599 0.0
H96 H 0.43015 0.92106 0.54793 0.0
H97 H 0.40431 0.9224 0.49519 0.0
H98 H 0.43325 0.99032 0.40001 0.0
H99 H 0.47953 0.03347 0.3863 0.0
H100 H 0.57804 0.08615 0.4356 0.0
H101 H 0.6033 0.08595 0.48947 0.0
H102 H 0.53336 0.97527 0.39638 0.0
H103 H 0.51057 0.92351 0.47513 0.0
H104 H 0.50041 0.08604 0.51142 0.0
H105 H 0.47315 0.03135 0.58731 0.0
C106 C 0.5502 0.53232 0.9618 0.0
C107 C 0.55867 0.548 0.93551 0.0
C108 C 0.53683 0.54838 0.92314 0.0
C109 C 0.51643 0.533 0.94257 0.0
N110 N 0.52408 0.52326 0.96699 0.0
Co111 Co 0.50093 0.49924 0.00032 0.0
N112 N 0.46811 0.49771 0.98055 0.0
C113 C 0.46653 0.50948 0.95389 0.0
C114 C 0.44149 0.50577 0.9472 0.0
C115 C 0.42631 0.4912 0.97136 0.0
C116 C 0.44306 0.48682 0.99138 0.0
N117 N 0.47775 0.47514 0.03359 0.0
C118 C 0.4517 0.46629 0.03894 0.0
C119 C 0.44317 0.45045 0.0651 0.0
C120 C 0.46491 0.44979 0.07724 0.0
C121 C 0.48531 0.46515 0.0578 0.0
N122 N 0.53376 0.50085 0.02018 0.0
C123 C 0.53535 0.48915 0.0469 0.0
C124 C 0.56049 0.49314 0.05382 0.0
C125 C 0.57574 0.50788 0.0298 0.0
C126 C 0.55893 0.51205 0.00961 0.0
N127 N 0.50955 0.53054 0.02755 0.0
C128 C 0.52116 0.57476 0.06635 0.0
C129 C 0.52092 0.5532 0.07942 0.0
C130 C 0.51529 0.53162 0.05978 0.0
C131 C 0.51549 0.57369 0.03341 0.0
C132 C 0.50959 0.55155 0.01472 0.0
N133 N 0.49236 0.46794 0.97308 0.0
C134 C 0.48803 0.42552 0.967 0.0
C135 C 0.48206 0.42427 0.93412 0.0
C136 C 0.48105 0.44524 0.92121 0.0
C137 C 0.48607 0.46657 0.94094 0.0
C138 C 0.49322 0.44735 0.98577 0.0
H139 H 0.48506 0.48186 0.92953 0.0
H140 H 0.49806 0.44715 0.01047 0.0
H141 H 0.51547 0.51594 0.07131 0.0
H142 H 0.50504 0.5519 0.98996 0.0
C143 C 0.48949 0.52584 0.93731 0.0
C144 C 0.56695 0.52474 0.97936 0.0
C145 C 0.43516 0.47428 0.02175 0.0
C146 C 0.51232 0.47254 0.06327 0.0
H147 H 0.57835 0.55741 0.92572 0.0
H148 H 0.53568 0.55792 0.90187 0.0
H149 H 0.43535 0.51367 0.92783 0.0
H150 H 0.40559 0.48528 0.97446 0.0
H151 H 0.42355 0.4412 0.075 0.0
H152 H 0.46603 0.4402 0.09846 0.0
H153 H 0.56666 0.48533 0.07327 0.0
H154 H 0.59657 0.51409 0.02688 0.0
H155 H 0.52462 0.55264 0.10483 0.0
H156 H 0.51576 0.58992 0.02183 0.0
H157 H 0.48863 0.40967 0.97845 0.0
H158 H 0.47694 0.44558 0.89585 0.0
C159 C 0.94945 0.44248 0.51758 0.0
C160 C 0.92331 0.42507 0.50421 0.0
C161 C 0.92075 0.43574 0.47673 0.0
C162 C 0.9453 0.459 0.47489 0.0
N163 N 0.96357 0.46378 0.4994 0.0
Co164 Co 0.00136 0.49599 0.50675 0.0
N165 N 0.9969 0.51246 0.46732 0.0
C166 C 0.97456 0.50217 0.44686 0.0
C167 C 0.97756 0.51781 0.42178 0.0
C168 C 0.00346 0.53929 0.42624 0.0
C169 C 0.01486 0.53545 0.45385 0.0
N170 N 0.03914 0.5282 0.51414 0.0
C171 C 0.05311 0.54974 0.49626 0.0
C172 C 0.07927 0.56711 0.50961 0.0
C173 C 0.08198 0.55621 0.53679 0.0
C174 C 0.0575 0.53285 0.53848 0.0
N175 N 0.0058 0.47953 0.54621 0.0
C176 C 0.0282 0.48971 0.56653 0.0
C177 C 0.0251 0.47419 0.59178 0.0
C178 C 0.99904 0.45294 0.58762 0.0
C179 C 0.98767 0.45679 0.56 0.0
N180 N 0.01562 0.47875 0.48106 0.0
C181 C 0.04033 0.46159 0.44044 0.0
C182 C 0.05155 0.47154 0.47133 0.0
C183 C 0.03888 0.47984 0.49114 0.0
C184 C 0.01555 0.45856 0.43104 0.0
C185 C 0.00353 0.46701 0.45168 0.0
N186 N 0.98718 0.51331 0.53235 0.0
C187 C 0.98834 0.53542 0.58131 0.0
C188 C 0.96406 0.53329 0.57142 0.0
C189 C 0.95229 0.52223 0.54101 0.0
C190 C 0.96413 0.51251 0.522 0.0
C191 C 0.99953 0.52549 0.56148 0.0
H192 H 0.95383 0.5038 0.49941 0.0
H193 H 0.01785 0.5274 0.57054 0.0
H194 H 0.04881 0.48787 0.51407 0.0
H195 H 0.98489 0.46455 0.44291 0.0
C196 C 0.95133 0.47739 0.45136 0.0
C197 C 0.95944 0.4385 0.54829 0.0
C198 C 0.04293 0.55405 0.46592 0.0
C199 C 0.05147 0.51443 0.56197 0.0
H200 H 0.90748 0.40682 0.51365 0.0
H201 H 0.90287 0.42781 0.46044 0.0
H202 H 0.96279 0.51389 0.40235 0.0
H203 H 0.01298 0.55583 0.41075 0.0
H204 H 0.09499 0.58555 0.50038 0.0
H205 H 0.09987 0.56412 0.55306 0.0
H206 H 0.03987 0.47811 0.61122 0.0
H207 H 0.98937 0.43659 0.60335 0.0
H208 H 0.07073 0.47419 0.47972 0.0
H209 H 0.00576 0.4503 0.40755 0.0
H210 H 0.99846 0.5443 0.60449 0.0
H211 H 0.93335 0.52 0.53236 0.0
C212 C 0.46665 0.98461 0.06761 0.0
C213 C 0.47133 0.99393 0.09916 0.0
C214 C 0.49633 0.01684 0.10172 0.0
C215 C 0.5056 0.02012 0.07183 0.0
N216 N 0.48791 0.0009 0.05013 0.0
Co217 Co 0.49472 0.99672 0.00479 0.0
N218 N 0.53166 0.03044 0.00871 0.0
C219 C 0.54312 0.04739 0.03455 0.0
C220 C 0.56774 0.06976 0.02974 0.0
C221 C 0.57221 0.06716 0.99883 0.0
C222 C 0.55008 0.04308 0.98659 0.0
N223 N 0.50197 0.99188 0.95995 0.0
C224 C 0.52372 0.00747 0.94284 0.0
C225 C 0.52078 0.9961 0.91277 0.0
C226 C 0.49613 0.97276 0.91058 0.0
C227 C 0.48554 0.97108 0.93939 0.0
N228 N 0.45729 0.96376 0.00031 0.0
C229 C 0.44494 0.94799 0.97366 0.0
C230 C 0.41904 0.92718 0.9774 0.0
C231 C 0.41461 0.92965 0.00839 0.0
C232 C 0.43829 0.95176 0.02192 0.0
N233 N 0.47946 0.01768 0.9898 0.0
C234 C 0.46594 0.05236 0.96336 0.0
C235 C 0.45744 0.02822 0.94768 0.0
C236 C 0.46441 0.01127 0.96125 0.0
C237 C 0.4794 0.05794 0.99354 0.0
C238 C 0.48555 0.04022 0.00646 0.0
N239 N 0.51018 0.97583 0.01982 0.0
C240 C 0.50713 0.93398 0.02309 0.0
C241 C 0.52892 0.94482 0.04617 0.0
C242 C 0.54209 0.97186 0.05437 0.0
C243 C 0.53232 0.98675 0.04133 0.0
C244 C 0.49845 0.9498 0.00999 0.0
H245 H 0.54283 0.00695 0.04957 0.0
H246 H 0.4818 0.94028 0.9925 0.0
H247 H 0.45834 0.99362 0.94763 0.0
H248 H 0.49608 0.04565 0.02943 0.0
C249 C 0.53057 0.04128 0.06327 0.0
C250 C 0.4421 0.95977 0.05571 0.0
C251 C 0.54728 0.03336 0.95369 0.0
C252 C 0.45923 0.95172 0.94661 0.0
H253 H 0.45826 0.98497 0.11851 0.0
H254 H 0.50664 0.02947 0.12293 0.0
H255 H 0.58081 0.08607 0.04665 0.0
H256 H 0.58974 0.08151 0.98668 0.0
H257 H 0.53481 0.00405 0.89414 0.0
H258 H 0.48672 0.95903 0.89009 0.0
H259 H 0.40534 0.9116 0.95998 0.0
H260 H 0.39624 0.91629 0.01992 0.0
H261 H 0.44687 0.02312 0.92423 0.0
H262 H 0.48586 0.07627 0.00672 0.0
H263 H 0.49606 0.91316 0.0158 0.0
H264 H 0.55967 0.98158 0.07126 0.0
C265 C 0.51448 0.55738 0.50859 0.0
C266 C 0.5113 0.57424 0.52807 0.0
C267 C 0.49503 0.55918 0.55122 0.0
C268 C 0.48939 0.53416 0.54468 0.0
N269 N 0.50147 0.53241 0.51906 0.0
Co270 Co 0.49886 0.49995 0.50098 0.0
N271 N 0.47296 0.47734 0.53321 0.0
C272 C 0.46255 0.48496 0.55575 0.0
C273 C 0.44584 0.46497 0.57489 0.0
C274 C 0.44597 0.44341 0.5643 0.0
C275 C 0.46285 0.45162 0.5393 0.0
N276 N 0.49646 0.46747 0.4832 0.0
C277 C 0.48423 0.44277 0.49445 0.0
C278 C 0.48847 0.42613 0.47605 0.0
C279 C 0.50439 0.441 0.45255 0.0
C280 C 0.50896 0.46575 0.45802 0.0
N281 N 0.52454 0.52255 0.46849 0.0
C282 C 0.53411 0.51459 0.44525 0.0
C283 C 0.55011 0.53424 0.42541 0.0
C284 C 0.55044 0.55596 0.43622 0.0
C285 C 0.53468 0.54833 0.46233 0.0
N286 N 0.52996 0.50696 0.5306 0.0
C287 C 0.57342 0.51549 0.57297 0.0
C288 C 0.57276 0.51004 0.54041 0.0
C289 C 0.55108 0.5059 0.51987 0.0
C290 C 0.55195 0.51673 0.58385 0.0
C291 C 0.53065 0.51243 0.56249 0.0
N292 N 0.46773 0.49293 0.47135 0.0
C293 C 0.44483 0.48116 0.4185 0.0
C294 C 0.42448 0.48452 0.42869 0.0
C295 C 0.42605 0.49192 0.46075 0.0
C296 C 0.44763 0.49599 0.48145 0.0
C297 C 0.46603 0.48543 0.43998 0.0
H298 H 0.44774 0.50187 0.50544 0.0
H299 H 0.48087 0.48267 0.43051 0.0
H300 H 0.55175 0.50161 0.49545 0.0
H301 H 0.5149 0.51351 0.57241 0.0
C302 C 0.47114 0.51157 0.56051 0.0
C303 C 0.52833 0.56558 0.47916 0.0
C304 C 0.47042 0.43492 0.52384 0.0
C305 C 0.52627 0.48813 0.44134 0.0
H306 H 0.51924 0.59508 0.52517 0.0
H307 H 0.48744 0.56552 0.56991 0.0
H308 H 0.43577 0.46623 0.59504 0.0
H309 H 0.43565 0.42409 0.5745 0.0
H310 H 0.48148 0.40561 0.47985 0.0
H311 H 0.51249 0.43477 0.43437 0.0
H312 H 0.55959 0.53269 0.40482 0.0
H313 H 0.56052 0.57497 0.42535 0.0
H314 H 0.58865 0.50845 0.53077 0.0
H315 H 0.55159 0.52124 0.60875 0.0
H316 H 0.44439 0.47505 0.39403 0.0
H317 H 0.41101 0.49513 0.46982 0.0
C318 C 0.20755 0.49015 0.17393 0.0
C319 C 0.21344 0.51463 0.16376 0.0
C320 C 0.23627 0.53339 0.1813 0.0
C321 C 0.24317 0.51938 0.20084 0.0
N322 N 0.22634 0.49277 0.19655 0.0
Co323 Co 0.22945 0.46502 0.21922 0.0
N324 N 0.26127 0.49262 0.24745 0.0
C325 C 0.27227 0.51913 0.24801 0.0
C326 C 0.29352 0.53301 0.27043 0.0
C327 C 0.29643 0.51431 0.285 0.0
C328 C 0.27683 0.49 0.27035 0.0
N329 N 0.23319 0.43734 0.24129 0.0
C330 C 0.25203 0.44002 0.26399 0.0
C331 C 0.24807 0.41566 0.27144 0.0
C332 C 0.22599 0.39692 0.25281 0.0
C333 C 0.21785 0.41083 0.23497 0.0
N334 N 0.197 0.43743 0.19167 0.0
C335 C 0.18507 0.41083 0.19231 0.0
C336 C 0.16191 0.39681 0.17256 0.0
C337 C 0.15854 0.41552 0.15879 0.0
C338 C 0.18009 0.44002 0.17077 0.0
N339 N 0.25425 0.46715 0.18735 0.0
C340 C 0.29153 0.46987 0.14549 0.0
C341 C 0.26804 0.44565 0.15109 0.0
C342 C 0.24978 0.44477 0.17184 0.0
C343 C 0.29557 0.49279 0.16036 0.0
C344 C 0.27686 0.491 0.181 0.0
N345 N 0.20465 0.46281 0.25101 0.0
C346 C 0.16667 0.4367 0.28312 0.0
C347 C 0.16695 0.45925 0.29259 0.0
C348 C 0.18687 0.4837 0.28174 0.0
C349 C 0.2055 0.48505 0.26131 0.0
C350 C 0.18552 0.43891 0.26238 0.0
H351 H 0.22019 0.50426 0.25387 0.0
H352 H 0.1839 0.42093 0.2555 0.0
H353 H 0.23248 0.42568 0.17532 0.0
H354 H 0.28138 0.50917 0.19182 0.0
C355 C 0.26361 0.53057 0.22551 0.0
C356 C 0.18305 0.46514 0.16269 0.0
C357 C 0.27442 0.46517 0.27843 0.0
C358 C 0.19567 0.39959 0.21245 0.0
H359 H 0.20198 0.51855 0.14611 0.0
H360 H 0.24612 0.5547 0.18067 0.0
H361 H 0.30584 0.55426 0.27512 0.0
H362 H 0.31159 0.51819 0.30391 0.0
H363 H 0.26005 0.41182 0.28835 0.0
H364 H 0.21706 0.3757 0.25217 0.0
H365 H 0.14867 0.3755 0.16917 0.0
H366 H 0.14176 0.41146 0.14232 0.0
H367 H 0.26406 0.42728 0.14029 0.0
H368 H 0.31319 0.51211 0.15626 0.0
H369 H 0.15149 0.41732 0.29093 0.0
H370 H 0.18811 0.50177 0.289 0.0
C371 C 0.71466 0.20802 0.6884 0.0
C372 C 0.69684 0.21438 0.67466 0.0
C373 C 0.699 0.23412 0.69362 0.0
C374 C 0.71808 0.23881 0.7176 0.0
N375 N 0.72846 0.22343 0.71492 0.0
Co376 Co 0.75711 0.22399 0.74401 0.0
N377 N 0.75906 0.25187 0.7729 0.0
C378 C 0.74359 0.26242 0.77045 0.0
C379 C 0.75007 0.28145 0.79378 0.0
C380 C 0.77122 0.28346 0.81192 0.0
C381 C 0.77643 0.26553 0.79843 0.0
N382 N 0.78617 0.225 0.7728 0.0
C383 C 0.80121 0.24165 0.79802 0.0
C384 C 0.82041 0.23665 0.81057 0.0
C385 C 0.81761 0.21626 0.79235 0.0
C386 C 0.79706 0.21012 0.76979 0.0
N387 N 0.75479 0.19574 0.71539 0.0
C388 C 0.76914 0.18408 0.71914 0.0
C389 C 0.76219 0.16441 0.69663 0.0
C390 C 0.74194 0.16315 0.6775 0.0
C391 C 0.73783 0.18239 0.68939 0.0
N392 N 0.78564 0.25209 0.71853 0.0
C393 C 0.82626 0.29269 0.68312 0.0
C394 C 0.82643 0.26989 0.68991 0.0
C395 C 0.80616 0.25005 0.70763 0.0
C396 C 0.80529 0.29462 0.69427 0.0
C397 C 0.78545 0.27435 0.71167 0.0
N398 N 0.72848 0.19597 0.7696 0.0
C399 C 0.71043 0.15593 0.79931 0.0
C400 C 0.68796 0.15695 0.80672 0.0
C401 C 0.68617 0.17779 0.79499 0.0
C402 C 0.70633 0.19677 0.77667 0.0
C403 C 0.73022 0.1754 0.78081 0.0
H404 H 0.70349 0.21196 0.76861 0.0
H405 H 0.74668 0.17335 0.77586 0.0
H406 H 0.80759 0.23333 0.7124 0.0
H407 H 0.77015 0.27723 0.71934 0.0
C408 C 0.72528 0.25618 0.74405 0.0
C409 C 0.7167 0.18631 0.67627 0.0
C410 C 0.79931 0.2636 0.80925 0.0
C411 C 0.78849 0.19149 0.74458 0.0
H412 H 0.68324 0.20524 0.65349 0.0
H413 H 0.68754 0.24347 0.69072 0.0
H414 H 0.74126 0.29325 0.79645 0.0
H415 H 0.78221 0.29718 0.83214 0.0
H416 H 0.83539 0.2471 0.83027 0.0
H417 H 0.82969 0.20751 0.79465 0.0
H418 H 0.77044 0.15205 0.69478 0.0
H419 H 0.7311 0.14918 0.65751 0.0
H420 H 0.84237 0.26752 0.68207 0.0
H421 H 0.8039 0.3116 0.68928 0.0
H422 H 0.71266 0.14001 0.80739 0.0
H423 H 0.66946 0.17984 0.80032 0.0
C424 C 0.52163 0.71756 0.2206 0.0
C425 C 0.49666 0.69627 0.20836 0.0
C426 C 0.47726 0.69917 0.22056 0.0
C427 C 0.49134 0.72183 0.23965 0.0
N428 N 0.51863 0.73359 0.24058 0.0
Co429 Co 0.54664 0.76668 0.266 0.0
N430 N 0.51794 0.77103 0.28351 0.0
C431 C 0.49073 0.75432 0.27858 0.0
C432 C 0.47614 0.76246 0.29381 0.0
C433 C 0.49513 0.78593 0.30919 0.0
C434 C 0.52033 0.79084 0.30223 0.0
N435 N 0.57461 0.80012 0.29093 0.0
C436 C 0.57165 0.81747 0.30844 0.0
C437 C 0.59655 0.83899 0.32034 0.0
C438 C 0.61593 0.83515 0.30999 0.0
C439 C 0.60187 0.81171 0.29228 0.0
N440 N 0.5753 0.7621 0.24879 0.0
C441 C 0.60242 0.77773 0.25576 0.0
C442 C 0.61704 0.76978 0.24022 0.0
C443 C 0.59817 0.7477 0.22229 0.0
C444 C 0.57298 0.74334 0.22807 0.0
N445 N 0.54863 0.7881 0.22942 0.0
C446 C 0.55154 0.82112 0.18063 0.0
C447 C 0.57511 0.82461 0.19578 0.0
C448 C 0.5732 0.80781 0.21972 0.0
C449 C 0.52648 0.80025 0.18938 0.0
C450 C 0.5255 0.78414 0.21379 0.0
N451 N 0.54473 0.74514 0.30274 0.0
C452 C 0.56717 0.73482 0.34474 0.0
C453 C 0.54268 0.71189 0.35127 0.0
C454 C 0.51908 0.70657 0.33395 0.0
C455 C 0.52052 0.72343 0.31032 0.0
C456 C 0.56774 0.75091 0.32055 0.0
H457 H 0.50179 0.71812 0.29819 0.0
H458 H 0.58715 0.76769 0.31652 0.0
H459 H 0.59187 0.81144 0.2304 0.0
H460 H 0.50582 0.76899 0.22008 0.0
C461 C 0.47948 0.73207 0.25784 0.0
C462 C 0.54751 0.72137 0.2129 0.0
C463 C 0.54585 0.81488 0.31345 0.0
C464 C 0.61367 0.80045 0.27579 0.0
H465 H 0.49273 0.68009 0.19248 0.0
H466 H 0.45547 0.68614 0.21633 0.0
H467 H 0.4543 0.75277 0.29322 0.0
H468 H 0.49089 0.79822 0.32354 0.0
H469 H 0.60038 0.85596 0.33458 0.0
H470 H 0.63772 0.84817 0.31431 0.0
H471 H 0.63886 0.77916 0.24141 0.0
H472 H 0.60254 0.73627 0.20652 0.0
H473 H 0.59495 0.84041 0.18941 0.0
H474 H 0.5077 0.79699 0.17835 0.0
H475 H 0.58599 0.74031 0.358 0.0
H476 H 0.49952 0.689 0.33778 0.0
C477 C 0.74862 0.56268 0.73385 0.0
C478 C 0.75185 0.58669 0.72608 0.0
C479 C 0.7741 0.60595 0.74401 0.0
C480 C 0.78307 0.59269 0.76178 0.0
N481 N 0.76808 0.5661 0.7561 0.0
Co482 Co 0.77304 0.53922 0.77838 0.0
N483 N 0.80563 0.56759 0.80505 0.0
C484 C 0.81679 0.59407 0.80419 0.0
C485 C 0.84028 0.60874 0.82325 0.0
C486 C 0.84472 0.59061 0.83673 0.0
C487 C 0.82344 0.56577 0.82528 0.0
N488 N 0.77752 0.51228 0.80111 0.0
C489 C 0.79724 0.51568 0.82283 0.0
C490 C 0.79241 0.49159 0.8331 0.0
C491 C 0.76929 0.47226 0.81651 0.0
C492 C 0.76121 0.48557 0.79738 0.0
N493 N 0.74096 0.51083 0.75115 0.0
C494 C 0.73042 0.48441 0.75122 0.0
C495 C 0.70873 0.46988 0.72952 0.0
C496 C 0.705 0.48803 0.71482 0.0
C497 C 0.72459 0.5127 0.72867 0.0
N498 N 0.79749 0.5416 0.74603 0.0
C499 C 0.8363 0.54555 0.70612 0.0
C500 C 0.81593 0.52097 0.71614 0.0
C501 C 0.79673 0.51943 0.7357 0.0
C502 C 0.83615 0.56798 0.71497 0.0
C503 C 0.81669 0.56558 0.73487 0.0
N504 N 0.74862 0.53689 0.81092 0.0
C505 C 0.70843 0.51072 0.83967 0.0
C506 C 0.71172 0.53354 0.85383 0.0
C507 C 0.73433 0.55804 0.84703 0.0
C508 C 0.75243 0.55924 0.82577 0.0
C509 C 0.72691 0.51283 0.81848 0.0
H510 H 0.76904 0.57851 0.82135 0.0
H511 H 0.72292 0.49469 0.80826 0.0
H512 H 0.78183 0.50015 0.7427 0.0
H513 H 0.818 0.58347 0.7415 0.0
C514 C 0.80548 0.60461 0.78398 0.0
C515 C 0.72625 0.53714 0.72025 0.0
C516 C 0.82166 0.54112 0.83299 0.0
C517 C 0.74013 0.47367 0.77346 0.0
H518 H 0.73924 0.58998 0.70949 0.0
H519 H 0.78254 0.62709 0.74432 0.0
H520 H 0.85313 0.63012 0.82619 0.0
H521 H 0.86208 0.5953 0.85254 0.0
H522 H 0.80477 0.48831 0.85013 0.0
H523 H 0.76006 0.45104 0.81742 0.0
H524 H 0.69669 0.44856 0.72537 0.0
H525 H 0.68932 0.48356 0.69634 0.0
H526 H 0.81493 0.50297 0.70914 0.0
H527 H 0.85156 0.58743 0.70757 0.0
H528 H 0.69154 0.49121 0.84472 0.0
H529 H 0.73769 0.57633 0.85728 0.0
C530 C 0.25368 0.82105 0.31325 0.0
C531 C 0.2465 0.83834 0.32396 0.0
C532 C 0.22111 0.82942 0.31008 0.0
C533 C 0.21436 0.80743 0.29154 0.0
N534 N 0.23393 0.80203 0.29294 0.0
Co535 Co 0.23362 0.77325 0.26884 0.0
N536 N 0.20473 0.76902 0.23765 0.0
C537 C 0.18839 0.77814 0.24176 0.0
C538 C 0.17001 0.77195 0.2163 0.0
C539 C 0.17478 0.75769 0.19505 0.0
C540 C 0.19591 0.75594 0.20882 0.0
N541 N 0.23346 0.74446 0.24498 0.0
C542 C 0.22251 0.73364 0.21541 0.0
C543 C 0.22736 0.71394 0.20779 0.0
C544 C 0.24108 0.71191 0.2339 0.0
C545 C 0.24406 0.73052 0.25588 0.0
N546 N 0.26229 0.77746 0.30017 0.0
C547 C 0.269 0.75955 0.30614 0.0
C548 C 0.28977 0.76839 0.32943 0.0
C549 C 0.29646 0.79339 0.33857 0.0
C550 C 0.27937 0.79836 0.32014 0.0
N551 N 0.20589 0.74688 0.29549 0.0
C552 C 0.16879 0.70679 0.3337 0.0
C553 C 0.19029 0.73106 0.34742 0.0
C554 C 0.20853 0.75081 0.32794 0.0
C555 C 0.16578 0.70356 0.30036 0.0
C556 C 0.18441 0.72374 0.28182 0.0
N557 N 0.26144 0.79943 0.24221 0.0
C558 C 0.30345 0.81617 0.21722 0.0
C559 C 0.30098 0.83592 0.20278 0.0
C560 C 0.27832 0.83714 0.20905 0.0
C561 C 0.25891 0.81883 0.22884 0.0
C562 C 0.28354 0.79818 0.23661 0.0
H563 H 0.24173 0.82026 0.23311 0.0
H564 H 0.28606 0.78318 0.24705 0.0
H565 H 0.22517 0.76903 0.33922 0.0
H566 H 0.18166 0.72031 0.25636 0.0
C567 C 0.19316 0.79519 0.26777 0.0
C568 C 0.27881 0.82242 0.3231 0.0
C569 C 0.20389 0.73835 0.19612 0.0
C570 C 0.25946 0.73763 0.28511 0.0
H571 H 0.25838 0.85577 0.33969 0.0
H572 H 0.20972 0.83882 0.31179 0.0
H573 H 0.1552 0.77746 0.21329 0.0
H574 H 0.1634 0.74888 0.17244 0.0
H575 H 0.22078 0.70168 0.18602 0.0
H576 H 0.24836 0.69871 0.23636 0.0
H577 H 0.29981 0.75846 0.33763 0.0
H578 H 0.31216 0.8065 0.35655 0.0
H579 H 0.19357 0.73452 0.37305 0.0
H580 H 0.14918 0.68547 0.28853 0.0
H581 H 0.32077 0.81463 0.21382 0.0
H582 H 0.27523 0.85179 0.19832 0.0
C583 C 0.43582 0.25621 0.77512 0.0
C584 C 0.41051 0.24977 0.7839 0.0
C585 C 0.39176 0.227 0.76698 0.0
C586 C 0.4066 0.22069 0.74913 0.0
N587 N 0.43372 0.23809 0.75353 0.0
Co588 Co 0.46264 0.23535 0.73375 0.0
N589 N 0.43497 0.2026 0.70761 0.0
C590 C 0.40773 0.19112 0.70595 0.0
C591 C 0.39391 0.16897 0.68591 0.0
C592 C 0.41346 0.16606 0.67405 0.0
C593 C 0.43821 0.18671 0.68763 0.0
N594 N 0.49157 0.23182 0.71537 0.0
C595 C 0.48944 0.21253 0.69585 0.0
C596 C 0.51476 0.21722 0.68995 0.0
C597 C 0.53352 0.24002 0.70674 0.0
C598 C 0.5187 0.24794 0.72183 0.0
N599 N 0.49038 0.26892 0.75847 0.0
C600 C 0.51765 0.28207 0.75725 0.0
C601 C 0.53152 0.30552 0.77489 0.0
C602 C 0.51197 0.30763 0.78812 0.0
C603 C 0.48716 0.28504 0.77804 0.0
N604 N 0.46208 0.21365 0.76943 0.0
C605 C 0.46203 0.18183 0.8186 0.0
C606 C 0.48533 0.20645 0.81351 0.0
C607 C 0.485 0.22173 0.78882 0.0
C608 C 0.43855 0.17382 0.79906 0.0
C609 C 0.43893 0.19002 0.77512 0.0
N610 N 0.46322 0.25716 0.69816 0.0
C611 C 0.48849 0.29291 0.66307 0.0
C612 C 0.46515 0.29259 0.65315 0.0
C613 C 0.44054 0.27322 0.66471 0.0
C614 C 0.44002 0.25574 0.68691 0.0
C615 C 0.48707 0.2751 0.68529 0.0
H616 H 0.4207 0.24171 0.69517 0.0
H617 H 0.50566 0.27666 0.69212 0.0
H618 H 0.50366 0.23992 0.78579 0.0
H619 H 0.4203 0.18279 0.76129 0.0
C620 C 0.39568 0.19977 0.72633 0.0
C621 C 0.4612 0.27982 0.78779 0.0
C622 C 0.46405 0.18952 0.68223 0.0
C623 C 0.52968 0.27115 0.74075 0.0
H624 H 0.40602 0.26051 0.80063 0.0
H625 H 0.3699 0.21651 0.76729 0.0
H626 H 0.37215 0.15591 0.68139 0.0
H627 H 0.40983 0.15011 0.65794 0.0
H628 H 0.51923 0.20543 0.67497 0.0
H629 H 0.55539 0.24978 0.70763 0.0
H630 H 0.55327 0.31937 0.77793 0.0
H631 H 0.51567 0.32401 0.80346 0.0
H632 H 0.50392 0.21404 0.82837 0.0
H633 H 0.41998 0.15483 0.80155 0.0
H634 H 0.50793 0.3071 0.65408 0.0
H635 H 0.42187 0.27213 0.65768 0.0
H636 H 0.06187 0.45135 0.02013 0.0
H637 H 0.15289 0.48385 0.18343 0.0
H638 H 0.0764 0.51211 0.08898 0.0
H639 H 0.16364 0.44856 0.10049 0.0
H640 H 0.119 0.48833 0.15215 0.0
H641 H 0.09383 0.4443 0.05206 0.0
C642 C 0.07189 0.4632 0.04197 0.0
C643 C 0.0668 0.48246 0.05193 0.0
C644 C 0.12863 0.47945 0.14083 0.0
C645 C 0.10272 0.47421 0.08874 0.0
C646 C 0.14781 0.4768 0.15867 0.0
C647 C 0.16083 0.46569 0.14445 0.0
C648 C 0.12224 0.47069 0.1086 0.0
C649 C 0.15377 0.45697 0.1123 0.0
C650 C 0.09003 0.45918 0.06013 0.0
C651 C 0.07993 0.49713 0.08054 0.0
N652 N 0.13487 0.45959 0.09541 0.0
N653 N 0.09722 0.49264 0.09802 0.0
H654 H 0.56288 0.06821 0.58048 0.0
H655 H 0.72088 0.17526 0.61445 0.0
H656 H 0.62345 0.06728 0.52763 0.0
H657 H 0.66367 0.15229 0.68669 0.0
H658 H 0.68466 0.14041 0.57795 0.0
H659 H 0.59907 0.10376 0.61607 0.0
C660 C 0.58389 0.07564 0.57647 0.0
C661 C 0.59046 0.06523 0.55116 0.0
C662 C 0.68008 0.14302 0.6018 0.0
C663 C 0.63165 0.10568 0.5912 0.0
C664 C 0.70063 0.16281 0.62245 0.0
C665 C 0.69505 0.1662 0.65346 0.0
C666 C 0.65382 0.12701 0.6122 0.0
C667 C 0.66858 0.15002 0.66289 0.0
C668 C 0.60444 0.0958 0.59667 0.0
C669 C 0.6178 0.07521 0.54676 0.0
N670 N 0.64884 0.13108 0.64227 0.0
N671 N 0.63752 0.09511 0.56652 0.0
H672 H 0.49947 0.60566 0.05944 0.0
H673 H 0.56212 0.68579 0.22581 0.0
H674 H 0.55586 0.59696 0.1205 0.0
H675 H 0.5323 0.71296 0.14924 0.0
H676 H 0.55785 0.65129 0.18921 0.0
H677 H 0.5088 0.64317 0.09356 0.0
C678 C 0.51403 0.61171 0.07977 0.0
C679 C 0.52689 0.59794 0.0869 0.0
C680 C 0.5525 0.66497 0.18033 0.0
C681 C 0.53714 0.64071 0.12664 0.0
C682 C 0.555 0.68461 0.20114 0.0
C683 C 0.54756 0.7021 0.19034 0.0
C684 C 0.54205 0.66258 0.14871 0.0
C685 C 0.5382 0.69975 0.15833 0.0
C686 C 0.51923 0.63312 0.09936 0.0
C687 C 0.54504 0.60652 0.11421 0.0
N688 N 0.53543 0.68015 0.13869 0.0
N689 N 0.54948 0.62722 0.13316 0.0
H690 H 0.95781 0.52315 0.63454 0.0
H691 H 0.85675 0.57329 0.65234 0.0
H692 H 0.9375 0.55897 0.5585 0.0
H693 H 0.86544 0.52289 0.71814 0.0
H694 H 0.89176 0.57478 0.62113 0.0
H695 H 0.93001 0.53016 0.66926 0.0
C696 C 0.94788 0.53293 0.6253 0.0
C697 C 0.94984 0.54036 0.59352 0.0
C698 C 0.88605 0.5635 0.64248 0.0
C699 C 0.91753 0.54797 0.63299 0.0
C700 C 0.86619 0.56271 0.66028 0.0
C701 C 0.85804 0.54767 0.68755 0.0
C702 C 0.89794 0.54937 0.6523 0.0
C703 C 0.87081 0.5343 0.6969 0.0
C704 C 0.9318 0.5367 0.64506 0.0
C705 C 0.93618 0.55259 0.58273 0.0
N706 N 0.89008 0.53542 0.67926 0.0
N707 N 0.92044 0.55588 0.60239 0.0
H708 H 0.42949 0.91055 0.07196 0.0
H709 H 0.32005 0.88887 0.19512 0.0
H710 H 0.40833 0.96805 0.08973 0.0
H711 H 0.3295 0.82624 0.1607 0.0
H712 H 0.35413 0.91913 0.15956 0.0
H713 H 0.39515 0.88047 0.10763 0.0
C714 C 0.41759 0.91679 0.08353 0.0
C715 C 0.42172 0.94175 0.07809 0.0
C716 C 0.34871 0.89875 0.15982 0.0
C717 C 0.38244 0.90759 0.11897 0.0
C718 C 0.32909 0.88135 0.18003 0.0
C719 C 0.32175 0.8548 0.18116 0.0
C720 C 0.3613 0.88968 0.14062 0.0
C721 C 0.33471 0.84655 0.16128 0.0
C722 C 0.39798 0.89966 0.10382 0.0
C723 C 0.40581 0.94899 0.09354 0.0
N724 N 0.35381 0.86388 0.14199 0.0
N725 N 0.38691 0.93203 0.11336 0.0
H726 H 0.43294 0.38176 0.51563 0.0
H727 H 0.50415 0.34548 0.65617 0.0
H728 H 0.50546 0.43934 0.57181 0.0
H729 H 0.42968 0.28693 0.60332 0.0
H730 H 0.50585 0.37973 0.62359 0.0
H731 H 0.43186 0.34624 0.54597 0.0
C732 C 0.4486 0.38675 0.53439 0.0
C733 C 0.46931 0.41318 0.54148 0.0
C734 C 0.48916 0.3594 0.61899 0.0
C735 C 0.46835 0.37319 0.57603 0.0
C736 C 0.4883 0.33977 0.63744 0.0
C737 C 0.46678 0.31326 0.6324 0.0
C738 C 0.46834 0.35256 0.59528 0.0
C739 C 0.4465 0.30715 0.60821 0.0
C740 C 0.44802 0.36662 0.55165 0.0
C741 C 0.4892 0.41902 0.56586 0.0
N742 N 0.44776 0.32667 0.59055 0.0
N743 N 0.48824 0.39915 0.58231 0.0
H744 H 0.54687 0.92077 0.45613 0.0
H745 H 0.53134 0.84769 0.28817 0.0
H746 H 0.51224 0.93236 0.36931 0.0
H747 H 0.55831 0.83045 0.37662 0.0
H748 H 0.52746 0.88137 0.31668 0.0
H749 H 0.55421 0.89003 0.42676 0.0
C750 C 0.54072 0.91682 0.4309 0.0
C751 C 0.52872 0.92911 0.41527 0.0
C752 C 0.53439 0.87037 0.32988 0.0
C753 C 0.53743 0.89404 0.38133 0.0
C754 C 0.53665 0.85126 0.31361 0.0
C755 C 0.54526 0.83654 0.33019 0.0
C756 C 0.54076 0.87472 0.36299 0.0
C757 C 0.55177 0.84162 0.36309 0.0
C758 C 0.54507 0.89934 0.4141 0.0
C759 C 0.52176 0.92359 0.38236 0.0
N760 N 0.54935 0.86027 0.37846 0.0
N761 N 0.52612 0.90641 0.36655 0.0
H762 H 0.56061 0.49118 0.93141 0.0
H763 H 0.71968 0.56257 0.90904 0.0
H764 H 0.62188 0.55854 0.99006 0.0
H765 H 0.65659 0.5006 0.8452 0.0
H766 H 0.68477 0.55986 0.94133 0.0
H767 H 0.59617 0.49238 0.902 0.0
C768 C 0.5817 0.50611 0.93809 0.0
C769 C 0.58862 0.52474 0.96301 0.0
C770 C 0.67863 0.54681 0.92031 0.0
C771 C 0.62929 0.52648 0.92964 0.0
C772 C 0.69852 0.54842 0.9018 0.0
C773 C 0.69106 0.53175 0.87439 0.0
C774 C 0.65112 0.52839 0.91132 0.0
C775 C 0.66334 0.51355 0.86638 0.0
C776 C 0.60196 0.50687 0.92137 0.0
C777 C 0.61602 0.54382 0.97096 0.0
N778 N 0.64442 0.51241 0.88472 0.0
N779 N 0.63548 0.54426 0.95423 0.0
H780 H 0.0639 0.55199 0.41051 0.0
H781 H 0.14754 0.70941 0.38961 0.0
H782 H 0.06381 0.607 0.47709 0.0
H783 H 0.14747 0.65351 0.32395 0.0
H784 H 0.11711 0.67256 0.42209 0.0
H785 H 0.09444 0.58916 0.37832 0.0
C786 C 0.07041 0.572 0.41825 0.0
C787 C 0.06153 0.57661 0.44639 0.0
C788 C 0.12373 0.66837 0.40054 0.0
C789 C 0.09639 0.61924 0.40988 0.0
C790 C 0.14124 0.68944 0.38204 0.0
C791 C 0.15009 0.68466 0.35384 0.0
C792 C 0.115 0.64226 0.3909 0.0
C793 C 0.1409 0.65824 0.34514 0.0
C794 C 0.08781 0.5932 0.39996 0.0
C795 C 0.07039 0.60278 0.45553 0.0
N796 N 0.12394 0.63813 0.36355 0.0
N797 N 0.08736 0.62315 0.43735 0.0
H798 H 0.4208 0.04703 0.93193 0.0
H799 H 0.50459 0.17687 0.83853 0.0
H800 H 0.50589 0.10361 0.95628 0.0
H801 H 0.4206 0.14626 0.85482 0.0
H802 H 0.50484 0.14732 0.87769 0.0
H803 H 0.41922 0.08025 0.89942 0.0
C804 C 0.43901 0.06654 0.93069 0.0
C805 C 0.46349 0.07272 0.94678 0.0
C806 C 0.48644 0.14727 0.87281 0.0
C807 C 0.46197 0.11028 0.90945 0.0
C808 C 0.48627 0.16429 0.85056 0.0
C809 C 0.46255 0.16431 0.84323 0.0
C810 C 0.4626 0.12964 0.88743 0.0
C811 C 0.43925 0.14672 0.8591 0.0
C812 C 0.43809 0.08542 0.9123 0.0
C813 C 0.48657 0.0982 0.94447 0.0
N814 N 0.43978 0.12989 0.88023 0.0
N815 N 0.48535 0.11595 0.92575 0.0
H816 H 0.42741 0.49872 0.36638 0.0
H817 H 0.26999 0.44891 0.33964 0.0
H818 H 0.37044 0.4618 0.43901 0.0
H819 H 0.32684 0.4835 0.26687 0.0
H820 H 0.30615 0.45255 0.37631 0.0
H821 H 0.39061 0.49246 0.32944 0.0
C822 C 0.40713 0.4891 0.37454 0.0
C823 C 0.40209 0.48073 0.40594 0.0
C824 C 0.31073 0.45924 0.35229 0.0
C825 C 0.35973 0.4738 0.36367 0.0
C826 C 0.29011 0.45708 0.33144 0.0
C827 C 0.29561 0.46585 0.30036 0.0
C828 C 0.33702 0.47036 0.34192 0.0
C829 C 0.32193 0.47649 0.29072 0.0
C830 C 0.38611 0.48567 0.35344 0.0
C831 C 0.3754 0.46887 0.4152 0.0
N832 N 0.34169 0.47851 0.31145 0.0
N833 N 0.35526 0.46577 0.3942 0.0
H834 H 0.92039 0.3703 0.95511 0.0
H835 H 0.83558 0.31134 0.78689 0.0
H836 H 0.93255 0.41709 0.87263 0.0
H837 H 0.8156 0.2669 0.87213 0.0
H838 H 0.87421 0.34938 0.81688 0.0
H839 H 0.88491 0.33099 0.92393 0.0
C840 C 0.91566 0.37229 0.93043 0.0
C841 C 0.92936 0.39704 0.9165 0.0
C842 C 0.86148 0.33132 0.82908 0.0
C843 C 0.88896 0.3522 0.88072 0.0
C844 C 0.83953 0.30975 0.812 0.0
C845 C 0.82275 0.28628 0.82731 0.0
C846 C 0.86653 0.32928 0.86166 0.0
C847 C 0.82835 0.28483 0.85973 0.0
C848 C 0.89547 0.34985 0.91265 0.0
C849 C 0.92275 0.39839 0.88427 0.0
N850 N 0.84986 0.30613 0.87594 0.0
N851 N 0.90292 0.3763 0.86753 0.0
H852 H 0.93578 0.4984 0.8956 0.0
H853 H 0.84275 0.55847 0.89448 0.0
H854 H 0.94829 0.55752 0.96574 0.0
H855 H 0.85233 0.52364 0.81022 0.0
H856 H 0.87916 0.556 0.92281 0.0
H857 H 0.90275 0.50479 0.86537 0.0
C858 C 0.93157 0.5128 0.90448 0.0
C859 C 0.94453 0.52737 0.93316 0.0
C860 C 0.87348 0.54914 0.89803 0.0
C861 C 0.9067 0.53459 0.89913 0.0
C862 C 0.85282 0.55063 0.88192 0.0
C863 C 0.84488 0.54151 0.84999 0.0
C864 C 0.88583 0.53794 0.88224 0.0
C865 C 0.85808 0.53099 0.83483 0.0
C866 C 0.9128 0.51647 0.88729 0.0
C867 C 0.93848 0.5458 0.94379 0.0
N868 N 0.87778 0.52931 0.85115 0.0
N869 N 0.91979 0.54873 0.92693 0.0
H870 H 0.3851 0.94755 0.46372 0.0
H871 H 0.32979 0.85439 0.30466 0.0
H872 H 0.43698 0.93941 0.40221 0.0
H873 H 0.2797 0.84219 0.38228 0.0
H874 H 0.36888 0.89102 0.33607 0.0
H875 H 0.34532 0.91392 0.43001 0.0
C876 C 0.38796 0.93855 0.4431 0.0
C877 C 0.41402 0.94573 0.43574 0.0
C878 C 0.34927 0.88052 0.34608 0.0
C879 C 0.3692 0.90805 0.39704 0.0
C880 C 0.32708 0.85982 0.32817 0.0
C881 C 0.30164 0.8459 0.34082 0.0
C882 C 0.34585 0.88719 0.37681 0.0
C883 C 0.29896 0.85307 0.37153 0.0
C884 C 0.36542 0.91951 0.42393 0.0
C885 C 0.41703 0.93407 0.40861 0.0
N886 N 0.32085 0.87335 0.38853 0.0
N887 N 0.39483 0.91574 0.39016 0.0
H888 H 0.50672 0.39605 0.94029 0.0
H889 H 0.44177 0.31179 0.77615 0.0
H890 H 0.44698 0.40057 0.88051 0.0
H891 H 0.48035 0.29133 0.85025 0.0
H892 H 0.44497 0.34586 0.81257 0.0
H893 H 0.49914 0.35922 0.90621 0.0
C894 C 0.49179 0.3892 0.92024 0.0
C895 C 0.47743 0.40157 0.91348 0.0
C896 C 0.45253 0.33378 0.82096 0.0
C897 C 0.46912 0.35954 0.87376 0.0
C898 C 0.45064 0.31437 0.80025 0.0
C899 C 0.46086 0.29891 0.81037 0.0
C900 C 0.46505 0.33792 0.85182 0.0
C901 C 0.47233 0.30298 0.84166 0.0
C902 C 0.48758 0.36819 0.90065 0.0
C903 C 0.45887 0.39205 0.88651 0.0
N904 N 0.47436 0.32227 0.86121 0.0
N905 N 0.45535 0.37172 0.86759 0.0
H906 H 0.06876 0.43735 0.44999 0.0
H907 H 0.13785 0.48248 0.28471 0.0
H908 H 0.04722 0.47561 0.37856 0.0
H909 H 0.1489 0.43138 0.34674 0.0
H910 H 0.10449 0.48004 0.31927 0.0
H911 H 0.09789 0.43434 0.41276 0.0
C912 C 0.07001 0.44491 0.4264 0.0
C913 C 0.05561 0.45678 0.41734 0.0
C914 C 0.11408 0.46924 0.3253 0.0
C915 C 0.08889 0.45357 0.37484 0.0
C916 C 0.13326 0.4708 0.30571 0.0
C917 C 0.14625 0.45728 0.31307 0.0
C918 C 0.108 0.45424 0.35265 0.0
C919 C 0.13924 0.44204 0.34022 0.0
C920 C 0.08654 0.44312 0.40515 0.0
C921 C 0.05772 0.46605 0.38641 0.0
N922 N 0.1207 0.44109 0.35922 0.0
N923 N 0.07425 0.46445 0.3664 0.0
H924 H 0.6001 0.04703 0.95429 0.0
H925 H 0.63279 0.13491 0.80007 0.0
H926 H 0.5414 0.05744 0.90178 0.0
H927 H 0.69427 0.13278 0.85913 0.0
H928 H 0.59856 0.10404 0.8348 0.0
H929 H 0.63433 0.07578 0.91754 0.0
C930 C 0.5945 0.05539 0.93491 0.0
C931 C 0.56807 0.05009 0.93103 0.0
C932 C 0.61952 0.11026 0.84016 0.0
C933 C 0.60686 0.08277 0.88884 0.0
C934 C 0.63918 0.12805 0.82039 0.0
C935 C 0.66664 0.13678 0.82673 0.0
C936 C 0.62721 0.10092 0.86659 0.0
C937 C 0.6734 0.12654 0.85306 0.0
C938 C 0.61397 0.07176 0.91397 0.0
C939 C 0.56164 0.06116 0.90551 0.0
N940 N 0.65388 0.10928 0.87205 0.0
N941 N 0.58089 0.077 0.88542 0.0
H942 H 0.57578 0.61179 0.46791 0.0
H943 H 0.5026 0.68123 0.39149 0.0
H944 H 0.48882 0.57331 0.4568 0.0
H945 H 0.58084 0.69922 0.36464 0.0
H946 H 0.49989 0.64722 0.42576 0.0
H947 H 0.58057 0.64996 0.44007 0.0
C948 C 0.55777 0.61151 0.45959 0.0
C949 C 0.5319 0.5894 0.46392 0.0
C950 C 0.5177 0.65881 0.41248 0.0
C951 C 0.53711 0.63282 0.43315 0.0
C952 C 0.51924 0.67814 0.39276 0.0
C953 C 0.54186 0.69302 0.37473 0.0
C954 C 0.53906 0.65455 0.41459 0.0
C955 C 0.56311 0.68853 0.37823 0.0
C956 C 0.56047 0.63317 0.44386 0.0
C957 C 0.50909 0.59001 0.4535 0.0
N958 N 0.56116 0.66965 0.39768 0.0
N959 N 0.5122 0.61139 0.43851 0.0
H960 H 0.4654 0.09084 0.53088 0.0
H961 H 0.47615 0.15413 0.70429 0.0
H962 H 0.49555 0.07295 0.61664 0.0
H963 H 0.45413 0.17842 0.61789 0.0
H964 H 0.48023 0.12185 0.67286 0.0
H965 H 0.45849 0.12098 0.56246 0.0
C966 C 0.47068 0.0933 0.55631 0.0
C967 C 0.48115 0.0793 0.57103 0.0
C968 C 0.47437 0.13411 0.66071 0.0
C969 C 0.47293 0.11361 0.60746 0.0
C970 C 0.47198 0.15241 0.67865 0.0
C971 C 0.46474 0.16873 0.66351 0.0
C972 C 0.46949 0.13215 0.62737 0.0
C973 C 0.45964 0.166 0.6303 0.0
C974 C 0.46657 0.11041 0.57437 0.0
C975 C 0.48711 0.08299 0.60422 0.0
N976 N 0.46216 0.14807 0.61329 0.0
N977 N 0.48296 0.09978 0.62125 0.0
H978 H 0.44232 0.50727 0.07092 0.0
H979 H 0.28346 0.44168 0.08953 0.0
H980 H 0.38009 0.44197 0.01047 0.0
H981 H 0.34676 0.50077 0.15581 0.0
H982 H 0.31818 0.44316 0.0581 0.0
H983 H 0.40719 0.50714 0.10014 0.0
C984 C 0.42113 0.493 0.06384 0.0
C985 C 0.41381 0.47468 0.03841 0.0
C986 C 0.32443 0.45585 0.07947 0.0
C987 C 0.37363 0.4742 0.0715 0.0
C988 C 0.30463 0.45493 0.0975 0.0
C989 C 0.3122 0.47114 0.12536 0.0
C990 C 0.35197 0.47309 0.08938 0.0
C991 C 0.33996 0.48821 0.13427 0.0
C992 C 0.40112 0.49286 0.08044 0.0
C993 C 0.38628 0.45645 0.02995 0.0
N994 N 0.3588 0.4887 0.11638 0.0
N995 N 0.36708 0.45664 0.04652 0.0
H996 H 0.93762 0.38521 0.53888 0.0
H997 H 0.85132 0.34644 0.69364 0.0
H998 H 0.93888 0.44224 0.6033 0.0
H999 H 0.84984 0.28852 0.63022 0.0
H1000 H 0.88416 0.38166 0.66144 0.0
H1001 H 0.90626 0.34942 0.57238 0.0
C1002 C 0.93121 0.39009 0.56013 0.0
C1003 C 0.94059 0.41654 0.56839 0.0
C1004 C 0.87674 0.36127 0.65454 0.0
C1005 C 0.90496 0.37596 0.60685 0.0
C1006 C 0.85784 0.34108 0.67287 0.0
C1007 C 0.84754 0.31436 0.66456 0.0
C1008 C 0.88554 0.35486 0.6275 0.0
C1009 C 0.85729 0.30879 0.63771 0.0
C1010 C 0.9134 0.36974 0.57925 0.0
C1011 C 0.93195 0.42201 0.59618 0.0
N1012 N 0.8756 0.32883 0.62008 0.0
N1013 N 0.91459 0.40191 0.61437 0.0
H1014 H 0.52677 0.90029 0.02287 0.0
H1015 H 0.58169 0.87493 0.18762 0.0
H1016 H 0.54866 0.95022 0.1084 0.0
H1017 H 0.52436 0.81083 0.12186 0.0
H1018 H 0.58037 0.90647 0.15207 0.0
H1019 H 0.53566 0.87064 0.05318 0.0
C1020 C 0.5335 0.90516 0.04787 0.0
C1021 C 0.53674 0.92784 0.06302 0.0
C1022 C 0.56832 0.88552 0.14529 0.0
C1023 C 0.5477 0.89438 0.09736 0.0
C1024 C 0.56919 0.86757 0.16541 0.0
C1025 C 0.55298 0.8403 0.15764 0.0
C1026 C 0.55137 0.87613 0.1171 0.0
C1027 C 0.53692 0.83173 0.12876 0.0
C1028 C 0.53872 0.88829 0.06503 0.0
C1029 C 0.54625 0.93334 0.09535 0.0
N1030 N 0.53645 0.84963 0.10947 0.0
N1031 N 0.55135 0.91673 0.11139 0.0
H1032 H 0.57082 0.49881 0.63418 0.0
H1033 H 0.72949 0.55336 0.65911 0.0
H1034 H 0.62785 0.54127 0.56308 0.0
H1035 H 0.67361 0.51725 0.7326 0.0
H1036 H 0.69259 0.54908 0.62332 0.0
H1037 H 0.60816 0.50536 0.67043 0.0
C1038 C 0.5912 0.5097 0.62622 0.0
C1039 C 0.59609 0.51952 0.59542 0.0
C1040 C 0.68837 0.54218 0.6473 0.0
C1041 C 0.63906 0.52676 0.63685 0.0
C1042 C 0.70941 0.54468 0.66765 0.0
C1043 C 0.70443 0.53572 0.6987 0.0
C1044 C 0.66215 0.53046 0.65809 0.0
C1045 C 0.67813 0.52442 0.70876 0.0
C1046 C 0.61253 0.5133 0.64692 0.0
C1047 C 0.62296 0.53302 0.58637 0.0
N1048 N 0.65794 0.52204 0.6885 0.0
N1049 N 0.64338 0.53621 0.60694 0.0
H1050 H 0.07316 0.58854 0.11555 0.0
H1051 H 0.1981 0.73958 0.13096 0.0
H1052 H 0.09896 0.63918 0.03528 0.0
H1053 H 0.16446 0.68889 0.20993 0.0
H1054 H 0.16307 0.70333 0.09453 0.0
H1055 H 0.10727 0.62559 0.14996 0.0
C1056 C 0.08576 0.60758 0.1052 0.0
C1057 C 0.08302 0.61077 0.07248 0.0
C1058 C 0.16346 0.70018 0.11983 0.0
C1059 C 0.1228 0.65336 0.11181 0.0
C1060 C 0.18342 0.72073 0.14042 0.0
C1061 C 0.18411 0.71685 0.17316 0.0
C1062 C 0.14428 0.67586 0.13236 0.0
C1063 C 0.16463 0.69241 0.1847 0.0
C1064 C 0.10546 0.62874 0.12486 0.0
C1065 C 0.10052 0.6358 0.06034 0.0
N1066 N 0.14555 0.67283 0.16432 0.0
N1067 N 0.11975 0.65618 0.08003 0.0
loop_
_geom_bond_atom_site_label_1
_geom_bond_atom_site_label_2
_geom_bond_distance
_geom_bond_site_symmetry_2
_ccdc_geom_bond_type
C0 C1 1.443 . S
C0 N4 1.376 1_556 S
C0 C38 1.389 . S
C1 C0 1.443 . S
C1 C2 1.340 1_556 S
C1 H41 0.951 . S
C2 C1 1.340 1_554 S
C2 C3 1.439 . S
C2 H42 0.950 . S
C3 C2 1.439 . S
C3 N4 1.374 . S
C3 C37 1.395 . S
N4 C0 1.376 1_554 S
N4 C3 1.374 . S
N4 Co5 2.012 1_655 S
Co5 N4 2.012 1_455 S
Co5 N6 2.012 1_455 S
Co5 N11 2.005 1_554 S
Co5 N16 1.978 1_554 S
Co5 N21 2.294 . S
Co5 N27 2.271 1_454 S
N6 Co5 2.012 1_655 S
N6 C7 1.376 . S
N6 C10 1.383 1_655 S
C7 N6 1.376 . S
C7 C8 1.446 . S
C7 C37 1.391 . S
C8 C7 1.446 . S
C8 C9 1.339 1_655 S
C8 H43 0.949 . S
C9 C8 1.339 1_455 S
C9 C10 1.439 . S
C9 H44 0.950 . S
C10 N6 1.383 1_455 S
C10 C9 1.439 . S
C10 C39 1.392 . S
N11 Co5 2.005 1_556 S
N11 C12 1.376 1_556 S
N11 C15 1.374 . S
C12 N11 1.376 1_554 S
C12 C13 1.443 . S
C12 C39 1.389 . S
C13 C12 1.443 . S
C13 C14 1.340 1_554 S
C13 H45 0.951 . S
C14 C13 1.340 1_556 S
C14 C15 1.439 . S
C14 H46 0.950 . S
C15 N11 1.374 . S
C15 C14 1.439 . S
C15 C40 1.395 . S
N16 Co5 1.978 1_556 S
N16 C17 1.376 . S
N16 C20 1.383 1_455 S
C17 N16 1.376 . S
C17 C18 1.446 . S
C17 C40 1.391 . S
C18 C17 1.446 . S
C18 C19 1.339 1_455 S
C18 H47 0.949 . S
C19 C18 1.339 1_655 S
C19 C20 1.439 . S
C19 H48 0.950 . S
C20 N16 1.383 1_655 S
C20 C19 1.439 . S
C20 C38 1.392 . S
N21 Co5 2.294 . S
N21 C24 1.332 . S
N21 C26 1.332 . S
C22 C23 1.386 . S
C22 C25 1.388 . S
C23 C22 1.386 . S
C23 C24 1.382 . S
C23 H49 0.950 . S
C24 N21 1.332 . S
C24 C23 1.382 . S
C24 H35 0.947 . S
C25 C22 1.388 . S
C25 C26 1.382 . S
C25 H50 0.950 . S
C26 N21 1.332 . S
C26 C25 1.382 . S
C26 H36 0.948 . S
N27 Co5 2.271 1_656 S
N27 C31 1.332 . S
N27 C32 1.332 . S
C28 C29 1.388 . S
C28 C32 1.382 . S
C28 H51 0.950 . S
C29 C28 1.388 . S
C29 C30 1.386 . S
C30 C29 1.386 . S
C30 C31 1.382 . S
C30 H52 0.950 . S
C31 N27 1.332 . S
C31 C30 1.382 . S
C31 H33 0.952 1_556 S
C32 N27 1.332 . S
C32 C28 1.382 . S
C32 H34 0.948 . S
H33 C31 0.952 1_554 S
H34 C32 0.948 . S
H35 C24 0.947 . S
H36 C26 0.948 . S
C37 C3 1.395 . S
C37 C7 1.391 . S
C38 C0 1.389 . S
C38 C20 1.392 . S
C39 C10 1.392 . S
C39 C12 1.389 . S
C40 C15 1.395 . S
C40 C17 1.391 . S
H41 C1 0.951 . S
H42 C2 0.950 . S
H43 C8 0.949 . S
H44 C9 0.950 . S
H45 C13 0.951 . S
H46 C14 0.950 . S
H47 C18 0.949 . S
H48 C19 0.950 . S
H49 C23 0.950 . S
H50 C25 0.950 . S
H51 C28 0.950 . S
H52 C30 0.950 . S
C53 C54 1.443 . S
C53 N57 1.376 1_545 S
C53 C91 1.389 . S
C54 C53 1.443 . S
C54 C55 1.340 1_545 S
C54 H94 0.951 . S
C55 C54 1.340 1_565 S
C55 C56 1.439 . S
C55 H95 0.950 . S
C56 C55 1.439 . S
C56 N57 1.374 . S
C56 C90 1.395 . S
N57 C53 1.376 1_565 S
N57 C56 1.374 . S
N57 Co58 2.003 1_565 S
Co58 N57 2.003 1_545 S
Co58 N59 1.985 1_545 S
Co58 N64 2.013 . S
Co58 N69 2.004 . S
Co58 N74 2.266 1_545 S
Co58 N80 2.299 . S
N59 Co58 1.985 1_565 S
N59 C60 1.376 . S
N59 C63 1.383 . S
C60 N59 1.376 . S
C60 C61 1.446 . S
C60 C90 1.391 . S
C61 C60 1.446 . S
C61 C62 1.339 . S
C61 H96 0.949 . S
C62 C61 1.339 . S
C62 C63 1.439 . S
C62 H97 0.950 . S
C63 N59 1.383 . S
C63 C62 1.439 . S
C63 C92 1.392 . S
N64 Co58 2.013 . S
N64 C65 1.376 1_545 S
N64 C68 1.374 . S
C65 N64 1.376 1_565 S
C65 C66 1.443 . S
C65 C92 1.389 . S
C66 C65 1.443 . S
C66 C67 1.340 1_565 S
C66 H98 0.951 . S
C67 C66 1.340 1_545 S
C67 C68 1.439 . S
C67 H99 0.950 . S
C68 N64 1.374 . S
C68 C67 1.439 . S
C68 C93 1.395 . S
N69 Co58 2.004 . S
N69 C70 1.376 . S
N69 C73 1.383 . S
C70 N69 1.376 . S
C70 C71 1.446 . S
C70 C93 1.391 . S
C71 C70 1.446 . S
C71 C72 1.339 . S
C71 H100 0.949 . S
C72 C71 1.339 . S
C72 C73 1.439 . S
C72 H101 0.950 . S
C73 N69 1.383 . S
C73 C72 1.439 . S
C73 C91 1.392 . S
N74 Co58 2.266 1_565 S
N74 C77 1.332 . S
N74 C79 1.332 . S
C75 C76 1.386 . S
C75 C78 1.388 . S
C76 C75 1.386 . S
C76 C77 1.382 . S
C76 H102 0.950 . S
C77 N74 1.332 . S
C77 C76 1.382 . S
C77 H88 0.952 1_565 S
C78 C75 1.388 . S
C78 C79 1.382 . S
C78 H103 0.950 . S
C79 N74 1.332 . S
C79 C78 1.382 . S
C79 H89 0.948 . S
N80 Co58 2.299 . S
N80 C84 1.332 . S
N80 C85 1.332 . S
C81 C82 1.388 . S
C81 C85 1.382 . S
C81 H104 0.950 . S
C82 C81 1.388 . S
C82 C83 1.386 . S
C83 C82 1.386 . S
C83 C84 1.382 . S
C83 H105 0.950 . S
C84 N80 1.332 . S
C84 C83 1.382 . S
C84 H86 0.952 1_545 S
C85 N80 1.332 . S
C85 C81 1.382 . S
C85 H87 0.948 . S
H86 C84 0.952 1_565 S
H87 C85 0.948 . S
H88 C77 0.952 1_545 S
H89 C79 0.948 . S
C90 C56 1.395 . S
C90 C60 1.391 . S
C91 C53 1.389 . S
C91 C73 1.392 . S
C92 C63 1.392 . S
C92 C65 1.389 . S
C93 C68 1.395 . S
C93 C70 1.391 . S
H94 C54 0.951 . S
H95 C55 0.950 . S
H96 C61 0.949 . S
H97 C62 0.950 . S
H98 C66 0.951 . S
H99 C67 0.950 . S
H100 C71 0.949 . S
H101 C72 0.950 . S
H102 C76 0.950 . S
H103 C78 0.950 . S
H104 C81 0.950 . S
H105 C83 0.950 . S
C106 C107 1.443 . S
C106 N110 1.376 . S
C106 C144 1.389 . S
C107 C106 1.443 . S
C107 C108 1.340 . S
C107 H147 0.951 . S
C108 C107 1.340 . S
C108 C109 1.439 . S
C108 H148 0.950 . S
C109 C108 1.439 . S
C109 N110 1.374 . S
C109 C143 1.395 . S
N110 C106 1.376 . S
N110 C109 1.374 . S
N110 Co111 1.990 1_556 S
Co111 N110 1.990 1_554 S
Co111 N112 1.991 1_554 S
Co111 N117 2.026 . S
Co111 N122 1.998 . S
Co111 N127 2.292 . S
Co111 N133 2.273 1_554 S
N112 Co111 1.991 1_556 S
N112 C113 1.376 . S
N112 C116 1.383 1_556 S
C113 N112 1.376 . S
C113 C114 1.446 . S
C113 C143 1.391 . S
C114 C113 1.446 . S
C114 C115 1.339 . S
C114 H149 0.949 . S
C115 C114 1.339 . S
C115 C116 1.439 1_556 S
C115 H150 0.950 1_556 S
C116 N112 1.383 1_554 S
C116 C115 1.439 1_554 S
C116 C145 1.392 . S
N117 Co111 2.026 . S
N117 C118 1.376 . S
N117 C121 1.374 . S
C118 N117 1.376 . S
C118 C119 1.443 . S
C118 C145 1.389 . S
C119 C118 1.443 . S
C119 C120 1.340 . S
C119 H151 0.951 . S
C120 C119 1.340 . S
C120 C121 1.439 . S
C120 H152 0.950 . S
C121 N117 1.374 . S
C121 C120 1.439 . S
C121 C146 1.395 . S
N122 Co111 1.998 . S
N122 C123 1.376 . S
N122 C126 1.383 1_554 S
C123 N122 1.376 . S
C123 C124 1.446 . S
C123 C146 1.391 . S
C124 C123 1.446 . S
C124 C125 1.339 . S
C124 H153 0.949 . S
C125 C124 1.339 . S
C125 C126 1.439 1_554 S
C125 H154 0.950 1_554 S
C126 N122 1.383 1_556 S
C126 C125 1.439 1_556 S
C126 C144 1.392 . S
N127 Co111 2.292 . S
N127 C130 1.332 . S
N127 C132 1.332 . S
C128 C129 1.386 . S
C128 C131 1.388 . S
C129 C128 1.386 . S
C129 C130 1.382 . S
C129 H155 0.950 . S
C130 N127 1.332 . S
C130 C129 1.382 . S
C130 H141 0.952 . S
C131 C128 1.388 . S
C131 C132 1.382 . S
C131 H156 0.950 . S
C132 N127 1.332 . S
C132 C131 1.382 . S
C132 H142 0.948 . S
N133 Co111 2.273 1_556 S
N133 C137 1.332 . S
N133 C138 1.332 . S
C134 C135 1.388 . S
C134 C138 1.382 . S
C134 H157 0.950 . S
C135 C134 1.388 . S
C135 C136 1.386 . S
C136 C135 1.386 . S
C136 C137 1.382 . S
C136 H158 0.950 . S
C137 N133 1.332 . S
C137 C136 1.382 . S
C137 H139 0.952 . S
C138 N133 1.332 . S
C138 C134 1.382 . S
C138 H140 0.948 . S
H139 C137 0.952 . S
H140 C138 0.948 . S
H141 C130 0.952 . S
H142 C132 0.948 . S
C143 C109 1.395 . S
C143 C113 1.391 . S
C144 C106 1.389 . S
C144 C126 1.392 . S
C145 C116 1.392 . S
C145 C118 1.389 . S
C146 C121 1.395 . S
C146 C123 1.391 . S
H147 C107 0.951 . S
H148 C108 0.950 . S
H149 C114 0.949 . S
H150 C115 0.950 1_554 S
H151 C119 0.951 . S
H152 C120 0.950 . S
H153 C124 0.949 . S
H154 C125 0.950 1_556 S
H155 C129 0.950 . S
H156 C131 0.950 . S
H157 C134 0.950 . S
H158 C136 0.950 . S
C159 C160 1.443 . S
C159 N163 1.376 . S
C159 C197 1.389 . S
C160 C159 1.443 . S
C160 C161 1.340 . S
C160 H200 0.951 . S
C161 C160 1.340 . S
C161 C162 1.439 . S
C161 H201 0.950 . S
C162 C161 1.439 . S
C162 N163 1.374 . S
C162 C196 1.395 . S
N163 C159 1.376 . S
N163 C162 1.374 . S
N163 Co164 2.008 1_655 S
Co164 N163 2.008 1_455 S
Co164 N165 1.995 1_455 S
Co164 N170 2.008 . S
Co164 N175 1.995 . S
Co164 N180 2.282 . S
Co164 N186 2.282 1_455 S
N165 Co164 1.995 1_655 S
N165 C166 1.376 . S
N165 C169 1.383 1_655 S
C166 N165 1.376 . S
C166 C167 1.446 . S
C166 C196 1.391 . S
C167 C166 1.446 . S
C167 C168 1.339 1_655 S
C167 H202 0.949 . S
C168 C167 1.339 1_455 S
C168 C169 1.439 . S
C168 H203 0.950 . S
C169 N165 1.383 1_455 S
C169 C168 1.439 . S
C169 C198 1.392 . S
N170 Co164 2.008 . S
N170 C171 1.376 . S
N170 C174 1.374 . S
C171 N170 1.376 . S
C171 C172 1.443 . S
C171 C198 1.389 . S
C172 C171 1.443 . S
C172 C173 1.340 . S
C172 H204 0.951 . S
C173 C172 1.340 . S
C173 C174 1.439 . S
C173 H205 0.950 . S
C174 N170 1.374 . S
C174 C173 1.439 . S
C174 C199 1.395 . S
N175 Co164 1.995 . S
N175 C176 1.376 . S
N175 C179 1.383 1_455 S
C176 N175 1.376 . S
C176 C177 1.446 . S
C176 C199 1.391 . S
C177 C176 1.446 . S
C177 C178 1.340 1_455 S
C177 H206 0.949 . S
C178 C177 1.340 1_655 S
C178 C179 1.437 . S
C178 H207 0.949 . S
C179 N175 1.383 1_655 S
C179 C178 1.437 . S
C179 C197 1.392 . S
N180 Co164 2.282 . S
N180 C183 1.332 . S
N180 C185 1.332 . S
C181 C182 1.386 . S
C181 C184 1.388 . S
C182 C181 1.386 . S
C182 C183 1.382 . S
C182 H208 0.950 . S
C183 N180 1.332 . S
C183 C182 1.382 . S
C183 H194 0.952 . S
C184 C181 1.388 . S
C184 C185 1.382 . S
C184 H209 0.950 . S
C185 N180 1.332 . S
C185 C184 1.382 . S
C185 H195 0.952 . S
N186 Co164 2.282 1_655 S
N186 C190 1.332 . S
N186 C191 1.332 . S
C187 C188 1.388 . S
C187 C191 1.382 . S
C187 H210 0.950 . S
C188 C187 1.388 . S
C188 C189 1.386 . S
C189 C188 1.386 . S
C189 C190 1.382 . S
C189 H211 0.950 . S
C190 N186 1.332 . S
C190 C189 1.382 . S
C190 H192 0.952 . S
C191 N186 1.332 . S
C191 C187 1.382 . S
C191 H193 0.948 1_655 S
H192 C190 0.952 . S
H193 C191 0.948 1_455 S
H194 C183 0.952 . S
H195 C185 0.952 . S
C196 C162 1.395 . S
C196 C166 1.391 . S
C197 C159 1.389 . S
C197 C179 1.392 . S
C198 C169 1.392 . S
C198 C171 1.389 . S
C199 C174 1.395 . S
C199 C176 1.391 . S
H200 C160 0.951 . S
H201 C161 0.950 . S
H202 C167 0.949 . S
H203 C168 0.950 . S
H204 C172 0.951 . S
H205 C173 0.950 . S
H206 C177 0.949 . S
H207 C178 0.949 . S
H208 C182 0.950 . S
H209 C184 0.950 . S
H210 C187 0.950 . S
H211 C189 0.950 . S
C212 C213 1.443 . S
C212 N216 1.376 1_565 S
C212 C250 1.389 . S
C213 C212 1.443 . S
C213 C214 1.340 1_565 S
C213 H253 0.951 . S
C214 C213 1.340 1_545 S
C214 C215 1.439 . S
C214 H254 0.950 . S
C215 C214 1.439 . S
C215 N216 1.374 . S
C215 C249 1.395 . S
N216 C212 1.376 1_545 S
N216 C215 1.374 . S
N216 Co217 2.033 . S
Co217 N216 2.033 . S
Co217 N218 2.005 . S
Co217 N223 1.984 1_544 S
Co217 N228 1.984 1_544 S
Co217 N233 2.289 1_554 S
Co217 N239 2.276 1_545 S
N218 Co217 2.005 . S
N218 C219 1.376 . S
N218 C222 1.383 1_554 S
C219 N218 1.376 . S
C219 C220 1.446 . S
C219 C249 1.391 . S
C220 C219 1.446 . S
C220 C221 1.339 1_554 S
C220 H255 0.949 . S
C221 C220 1.339 1_556 S
C221 C222 1.439 . S
C221 H256 0.950 . S
C222 N218 1.383 1_556 S
C222 C221 1.439 . S
C222 C251 1.392 . S
N223 Co217 1.984 1_566 S
N223 C224 1.376 1_565 S
N223 C227 1.374 . S
C224 N223 1.376 1_545 S
C224 C225 1.443 . S
C224 C251 1.389 . S
C225 C224 1.443 . S
C225 C226 1.340 1_545 S
C225 H257 0.951 . S
C226 C225 1.340 1_565 S
C226 C227 1.439 . S
C226 H258 0.950 . S
C227 N223 1.374 . S
C227 C226 1.439 . S
C227 C252 1.395 . S
N228 Co217 1.984 1_566 S
N228 C229 1.376 . S
N228 C232 1.383 1_556 S
C229 N228 1.376 . S
C229 C230 1.446 . S
C229 C252 1.391 . S
C230 C229 1.446 . S
C230 C231 1.339 1_556 S
C230 H259 0.949 . S
C231 C230 1.339 1_554 S
C231 C232 1.439 . S
C231 H260 0.950 . S
C232 N228 1.383 1_554 S
C232 C231 1.439 . S
C232 C250 1.392 . S
N233 Co217 2.289 1_556 S
N233 C236 1.332 . S
N233 C238 1.332 . S
C234 C235 1.386 . S
C234 C237 1.388 . S
C235 C234 1.386 . S
C235 C236 1.382 . S
C235 H261 0.950 . S
C236 N233 1.332 . S
C236 C235 1.382 . S
C236 H247 0.952 1_545 S
C237 C234 1.388 . S
C237 C238 1.382 . S
C237 H262 0.950 . S
C238 N233 1.332 . S
C238 C237 1.382 . S
C238 H248 0.948 . S
N239 Co217 2.276 1_565 S
N239 C243 1.332 . S
N239 C244 1.332 . S
C240 C241 1.388 . S
C240 C244 1.382 . S
C240 H263 0.950 . S
C241 C240 1.388 . S
C241 C242 1.386 . S
C242 C241 1.386 . S
C242 C243 1.382 . S
C242 H264 0.950 . S
C243 N239 1.332 . S
C243 C242 1.382 . S
C243 H245 0.952 1_565 S
C244 N239 1.332 . S
C244 C240 1.382 . S
C244 H246 0.948 . S
H245 C243 0.952 1_545 S
H246 C244 0.948 . S
H247 C236 0.952 1_565 S
H248 C238 0.948 . S
C249 C215 1.395 . S
C249 C219 1.391 . S
C250 C212 1.389 . S
C250 C232 1.392 . S
C251 C222 1.392 . S
C251 C224 1.389 . S
C252 C227 1.395 . S
C252 C229 1.391 . S
H253 C213 0.951 . S
H254 C214 0.950 . S
H255 C220 0.949 . S
H256 C221 0.950 . S
H257 C225 0.951 . S
H258 C226 0.950 . S
H259 C230 0.949 . S
H260 C231 0.950 . S
H261 C235 0.950 . S
H262 C237 0.950 . S
H263 C240 0.950 . S
H264 C242 0.950 . S
C265 C266 1.443 . S
C265 N269 1.376 . S
C265 C303 1.389 . S
C266 C265 1.443 . S
C266 C267 1.340 . S
C266 H306 0.951 . S
C267 C266 1.340 . S
C267 C268 1.439 . S
C267 H307 0.950 . S
C268 C267 1.439 . S
C268 N269 1.374 . S
C268 C302 1.395 . S
N269 C265 1.376 . S
N269 C268 1.374 . S
N269 Co270 2.008 . S
Co270 N269 2.008 . S
Co270 N271 1.995 . S
Co270 N276 2.008 . S
Co270 N281 1.995 . S
Co270 N286 2.282 . S
Co270 N292 2.282 . S
N271 Co270 1.995 . S
N271 C272 1.376 . S
N271 C275 1.383 . S
C272 N271 1.376 . S
C272 C273 1.446 . S
C272 C302 1.391 . S
C273 C272 1.446 . S
C273 C274 1.339 . S
C273 H308 0.949 . S
C274 C273 1.339 . S
C274 C275 1.439 . S
C274 H309 0.950 . S
C275 N271 1.383 . S
C275 C274 1.439 . S
C275 C304 1.392 . S
N276 Co270 2.008 . S
N276 C277 1.376 . S
N276 C280 1.374 . S
C277 N276 1.376 . S
C277 C278 1.443 . S
C277 C304 1.389 . S
C278 C277 1.443 . S
C278 C279 1.340 . S
C278 H310 0.951 . S
C279 C278 1.340 . S
C279 C280 1.439 . S
C279 H311 0.950 . S
C280 N276 1.374 . S
C280 C279 1.439 . S
C280 C305 1.395 . S
N281 Co270 1.995 . S
N281 C282 1.376 . S
N281 C285 1.383 . S
C282 N281 1.376 . S
C282 C283 1.446 . S
C282 C305 1.391 . S
C283 C282 1.446 . S
C283 C284 1.339 . S
C283 H312 0.949 . S
C284 C283 1.339 . S
C284 C285 1.439 . S
C284 H313 0.950 . S
C285 N281 1.383 . S
C285 C284 1.439 . S
C285 C303 1.392 . S
N286 Co270 2.282 . S
N286 C289 1.332 . S
N286 C291 1.332 . S
C287 C288 1.386 . S
C287 C290 1.388 . S
C288 C287 1.386 . S
C288 C289 1.382 . S
C288 H314 0.950 . S
C289 N286 1.332 . S
C289 C288 1.382 . S
C289 H300 0.952 . S
C290 C287 1.388 . S
C290 C291 1.382 . S
C290 H315 0.950 . S
C291 N286 1.332 . S
C291 C290 1.382 . S
C291 H301 0.948 . S
N292 Co270 2.282 . S
N292 C296 1.332 . S
N292 C297 1.332 . S
C293 C294 1.388 . S
C293 C297 1.382 . S
C293 H316 0.950 . S
C294 C293 1.388 . S
C294 C295 1.386 . S
C295 C294 1.386 . S
C295 C296 1.382 . S
C295 H317 0.950 . S
C296 N292 1.332 . S
C296 C295 1.382 . S
C296 H298 0.952 . S
C297 N292 1.332 . S
C297 C293 1.382 . S
C297 H299 0.948 . S
H298 C296 0.952 . S
H299 C297 0.948 . S
H300 C289 0.952 . S
H301 C291 0.948 . S
C302 C268 1.395 . S
C302 C272 1.391 . S
C303 C265 1.389 . S
C303 C285 1.392 . S
C304 C275 1.392 . S
C304 C277 1.389 . S
C305 C280 1.395 . S
C305 C282 1.391 . S
H306 C266 0.951 . S
H307 C267 0.950 . S
H308 C273 0.949 . S
H309 C274 0.950 . S
H310 C278 0.951 . S
H311 C279 0.950 . S
H312 C283 0.949 . S
H313 C284 0.950 . S
H314 C288 0.950 . S
H315 C290 0.950 . S
H316 C293 0.950 . S
H317 C295 0.950 . S
C318 C319 1.443 . S
C318 N322 1.376 . S
C318 C356 1.389 . S
C319 C318 1.443 . S
C319 C320 1.340 . S
C319 H359 0.951 . S
C320 C319 1.340 . S
C320 C321 1.439 . S
C320 H360 0.950 . S
C321 C320 1.439 . S
C321 N322 1.374 . S
C321 C355 1.395 . S
N322 C318 1.376 . S
N322 C321 1.374 . S
N322 Co323 2.008 . S
Co323 N322 2.008 . S
Co323 N324 1.995 . S
Co323 N329 2.008 . S
Co323 N334 1.995 . S
Co323 N339 2.282 . S
Co323 N345 2.282 . S
N324 Co323 1.995 . S
N324 C325 1.376 . S
N324 C328 1.383 . S
C325 N324 1.376 . S
C325 C326 1.446 . S
C325 C355 1.391 . S
C326 C325 1.446 . S
C326 C327 1.339 . S
C326 H361 0.949 . S
C327 C326 1.339 . S
C327 C328 1.439 . S
C327 H362 0.950 . S
C328 N324 1.383 . S
C328 C327 1.439 . S
C328 C357 1.392 . S
N329 Co323 2.008 . S
N329 C330 1.376 . S
N329 C333 1.374 . S
C330 N329 1.376 . S
C330 C331 1.443 . S
C330 C357 1.389 . S
C331 C330 1.443 . S
C331 C332 1.340 . S
C331 H363 0.951 . S
C332 C331 1.340 . S
C332 C333 1.439 . S
C332 H364 0.950 . S
C333 N329 1.374 . S
C333 C332 1.439 . S
C333 C358 1.395 . S
N334 Co323 1.995 . S
N334 C335 1.376 . S
N334 C338 1.383 . S
C335 N334 1.376 . S
C335 C336 1.446 . S
C335 C358 1.391 . S
C336 C335 1.446 . S
C336 C337 1.339 . S
C336 H365 0.949 . S
C337 C336 1.339 . S
C337 C338 1.439 . S
C337 H366 0.950 . S
C338 N334 1.383 . S
C338 C337 1.439 . S
C338 C356 1.392 . S
N339 Co323 2.282 . S
N339 C342 1.332 . S
N339 C344 1.332 . S
C340 C341 1.386 . S
C340 C343 1.388 . S
C341 C340 1.386 . S
C341 C342 1.382 . S
C341 H367 0.950 . S
C342 N339 1.332 . S
C342 C341 1.382 . S
C342 H353 0.952 . S
C343 C340 1.388 . S
C343 C344 1.382 . S
C343 H368 0.950 . S
C344 N339 1.332 . S
C344 C343 1.382 . S
C344 H354 0.948 . S
N345 Co323 2.282 . S
N345 C349 1.332 . S
N345 C350 1.332 . S
C346 C347 1.388 . S
C346 C350 1.382 . S
C346 H369 0.950 . S
C347 C346 1.388 . S
C347 C348 1.386 . S
C348 C347 1.386 . S
C348 C349 1.382 . S
C348 H370 0.950 . S
C349 N345 1.332 . S
C349 C348 1.382 . S
C349 H351 0.952 . S
C350 N345 1.332 . S
C350 C346 1.382 . S
C350 H352 0.948 . S
H351 C349 0.952 . S
H352 C350 0.948 . S
H353 C342 0.952 . S
H354 C344 0.948 . S
C355 C321 1.395 . S
C355 C325 1.391 . S
C356 C318 1.389 . S
C356 C338 1.392 . S
C357 C328 1.392 . S
C357 C330 1.389 . S
C358 C333 1.395 . S
C358 C335 1.391 . S
H359 C319 0.951 . S
H360 C320 0.950 . S
H361 C326 0.949 . S
H362 C327 0.950 . S
H363 C331 0.951 . S
H364 C332 0.950 . S
H365 C336 0.949 . S
H366 C337 0.950 . S
H367 C341 0.950 . S
H368 C343 0.950 . S
H369 C346 0.950 . S
H370 C348 0.950 . S
C371 C372 1.443 . S
C371 N375 1.376 . S
C371 C409 1.389 . S
C372 C371 1.443 . S
C372 C373 1.340 . S
C372 H412 0.951 . S
C373 C372 1.340 . S
C373 C374 1.439 . S
C373 H413 0.950 . S
C374 C373 1.439 . S
C374 N375 1.374 . S
C374 C408 1.395 . S
N375 C371 1.376 . S
N375 C374 1.374 . S
N375 Co376 2.008 . S
Co376 N375 2.008 . S
Co376 N377 1.995 . S
Co376 N382 2.008 . S
Co376 N387 1.995 . S
Co376 N392 2.282 . S
Co376 N398 2.282 . S
N377 Co376 1.995 . S
N377 C378 1.376 . S
N377 C381 1.383 . S
C378 N377 1.376 . S
C378 C379 1.446 . S
C378 C408 1.391 . S
C379 C378 1.446 . S
C379 C380 1.339 . S
C379 H414 0.949 . S
C380 C379 1.339 . S
C380 C381 1.439 . S
C380 H415 0.950 . S
C381 N377 1.383 . S
C381 C380 1.439 . S
C381 C410 1.392 . S
N382 Co376 2.008 . S
N382 C383 1.376 . S
N382 C386 1.374 . S
C383 N382 1.376 . S
C383 C384 1.443 . S
C383 C410 1.389 . S
C384 C383 1.443 . S
C384 C385 1.340 . S
C384 H416 0.951 . S
C385 C384 1.340 . S
C385 C386 1.439 . S
C385 H417 0.950 . S
C386 N382 1.374 . S
C386 C385 1.439 . S
C386 C411 1.395 . S
N387 Co376 1.995 . S
N387 C388 1.376 . S
N387 C391 1.383 . S
C388 N387 1.376 . S
C388 C389 1.446 . S
C388 C411 1.391 . S
C389 C388 1.446 . S
C389 C390 1.339 . S
C389 H418 0.949 . S
C390 C389 1.339 . S
C390 C391 1.439 . S
C390 H419 0.950 . S
C391 N387 1.383 . S
C391 C390 1.439 . S
C391 C409 1.392 . S
N392 Co376 2.282 . S
N392 C395 1.332 . S
N392 C397 1.332 . S
C393 C394 1.386 . S
C393 C396 1.388 . S
C394 C393 1.386 . S
C394 C395 1.382 . S
C394 H420 0.950 . S
C395 N392 1.332 . S
C395 C394 1.382 . S
C395 H406 0.952 . S
C396 C393 1.388 . S
C396 C397 1.382 . S
C396 H421 0.950 . S
C397 N392 1.332 . S
C397 C396 1.382 . S
C397 H407 0.948 . S
N398 Co376 2.282 . S
N398 C402 1.332 . S
N398 C403 1.332 . S
C399 C400 1.388 . S
C399 C403 1.382 . S
C399 H422 0.950 . S
C400 C399 1.388 . S
C400 C401 1.386 . S
C401 C400 1.386 . S
C401 C402 1.382 . S
C401 H423 0.950 . S
C402 N398 1.332 . S
C402 C401 1.382 . S
C402 H404 0.952 . S
C403 N398 1.332 . S
C403 C399 1.382 . S
C403 H405 0.948 . S
H404 C402 0.952 . S
H405 C403 0.948 . S
H406 C395 0.952 . S
H407 C397 0.948 . S
C408 C374 1.395 . S
C408 C378 1.391 . S
C409 C371 1.389 . S
C409 C391 1.392 . S
C410 C381 1.392 . S
C410 C383 1.389 . S
C411 C386 1.395 . S
C411 C388 1.391 . S
H412 C372 0.951 . S
H413 C373 0.950 . S
H414 C379 0.949 . S
H415 C380 0.950 . S
H416 C384 0.951 . S
H417 C385 0.950 . S
H418 C389 0.949 . S
H419 C390 0.950 . S
H420 C394 0.950 . S
H421 C396 0.950 . S
H422 C399 0.950 . S
H423 C401 0.950 . S
C424 C425 1.443 . S
C424 N428 1.376 . S
C424 C462 1.389 . S
C425 C424 1.443 . S
C425 C426 1.340 . S
C425 H465 0.951 . S
C426 C425 1.340 . S
C426 C427 1.439 . S
C426 H466 0.950 . S
C427 C426 1.439 . S
C427 N428 1.374 . S
C427 C461 1.395 . S
N428 C424 1.376 . S
N428 C427 1.374 . S
N428 Co429 2.008 . S
Co429 N428 2.008 . S
Co429 N430 1.995 . S
Co429 N435 2.008 . S
Co429 N440 1.995 . S
Co429 N445 2.282 . S
Co429 N451 2.282 . S
N430 Co429 1.995 . S
N430 C431 1.376 . S
N430 C434 1.383 . S
C431 N430 1.376 . S
C431 C432 1.446 . S
C431 C461 1.391 . S
C432 C431 1.446 . S
C432 C433 1.339 . S
C432 H467 0.949 . S
C433 C432 1.339 . S
C433 C434 1.439 . S
C433 H468 0.950 . S
C434 N430 1.383 . S
C434 C433 1.439 . S
C434 C463 1.392 . S
N435 Co429 2.008 . S
N435 C436 1.376 . S
N435 C439 1.374 . S
C436 N435 1.376 . S
C436 C437 1.443 . S
C436 C463 1.389 . S
C437 C436 1.443 . S
C437 C438 1.340 . S
C437 H469 0.951 . S
C438 C437 1.340 . S
C438 C439 1.439 . S
C438 H470 0.950 . S
C439 N435 1.374 . S
C439 C438 1.439 . S
C439 C464 1.395 . S
N440 Co429 1.995 . S
N440 C441 1.376 . S
N440 C444 1.383 . S
C441 N440 1.376 . S
C441 C442 1.446 . S
C441 C464 1.391 . S
C442 C441 1.446 . S
C442 C443 1.339 . S
C442 H471 0.949 . S
C443 C442 1.339 . S
C443 C444 1.439 . S
C443 H472 0.950 . S
C444 N440 1.383 . S
C444 C443 1.439 . S
C444 C462 1.392 . S
N445 Co429 2.282 . S
N445 C448 1.332 . S
N445 C450 1.332 . S
C446 C447 1.386 . S
C446 C449 1.388 . S
C447 C446 1.386 . S
C447 C448 1.382 . S
C447 H473 0.950 . S
C448 N445 1.332 . S
C448 C447 1.382 . S
C448 H459 0.952 . S
C449 C446 1.388 . S
C449 C450 1.382 . S
C449 H474 0.950 . S
C450 N445 1.332 . S
C450 C449 1.382 . S
C450 H460 0.948 . S
N451 Co429 2.282 . S
N451 C455 1.332 . S
N451 C456 1.332 . S
C452 C453 1.388 . S
C452 C456 1.382 . S
C452 H475 0.950 . S
C453 C452 1.388 . S
C453 C454 1.386 . S
C454 C453 1.386 . S
C454 C455 1.382 . S
C454 H476 0.950 . S
C455 N451 1.332 . S
C455 C454 1.382 . S
C455 H457 0.952 . S
C456 N451 1.332 . S
C456 C452 1.382 . S
C456 H458 0.948 . S
H457 C455 0.952 . S
H458 C456 0.948 . S
H459 C448 0.952 . S
H460 C450 0.948 . S
C461 C427 1.395 . S
C461 C431 1.391 . S
C462 C424 1.389 . S
C462 C444 1.392 . S
C463 C434 1.392 . S
C463 C436 1.389 . S
C464 C439 1.395 . S
C464 C441 1.391 . S
H465 C425 0.951 . S
H466 C426 0.950 . S
H467 C432 0.949 . S
H468 C433 0.950 . S
H469 C437 0.951 . S
H470 C438 0.950 . S
H471 C442 0.949 . S
H472 C443 0.950 . S
H473 C447 0.950 . S
H474 C449 0.950 . S
H475 C452 0.950 . S
H476 C454 0.950 . S
C477 C478 1.443 . S
C477 N481 1.376 . S
C477 C515 1.389 . S
C478 C477 1.443 . S
C478 C479 1.340 . S
C478 H518 0.951 . S
C479 C478 1.340 . S
C479 C480 1.439 . S
C479 H519 0.950 . S
C480 C479 1.439 . S
C480 N481 1.374 . S
C480 C514 1.395 . S
N481 C477 1.376 . S
N481 C480 1.374 . S
N481 Co482 2.008 . S
Co482 N481 2.008 . S
Co482 N483 1.995 . S
Co482 N488 2.008 . S
Co482 N493 1.995 . S
Co482 N498 2.282 . S
Co482 N504 2.282 . S
N483 Co482 1.995 . S
N483 C484 1.376 . S
N483 C487 1.383 . S
C484 N483 1.376 . S
C484 C485 1.446 . S
C484 C514 1.391 . S
C485 C484 1.446 . S
C485 C486 1.339 . S
C485 H520 0.949 . S
C486 C485 1.339 . S
C486 C487 1.439 . S
C486 H521 0.950 . S
C487 N483 1.383 . S
C487 C486 1.439 . S
C487 C516 1.392 . S
N488 Co482 2.008 . S
N488 C489 1.376 . S
N488 C492 1.374 . S
C489 N488 1.376 . S
C489 C490 1.443 . S
C489 C516 1.389 . S
C490 C489 1.443 . S
C490 C491 1.340 . S
C490 H522 0.951 . S
C491 C490 1.340 . S
C491 C492 1.439 . S
C491 H523 0.950 . S
C492 N488 1.374 . S
C492 C491 1.439 . S
C492 C517 1.395 . S
N493 Co482 1.995 . S
N493 C494 1.376 . S
N493 C497 1.383 . S
C494 N493 1.376 . S
C494 C495 1.446 . S
C494 C517 1.391 . S
C495 C494 1.446 . S
C495 C496 1.339 . S
C495 H524 0.949 . S
C496 C495 1.339 . S
C496 C497 1.439 . S
C496 H525 0.950 . S
C497 N493 1.383 . S
C497 C496 1.439 . S
C497 C515 1.392 . S
N498 Co482 2.282 . S
N498 C501 1.332 . S
N498 C503 1.332 . S
C499 C500 1.386 . S
C499 C502 1.388 . S
C500 C499 1.386 . S
C500 C501 1.382 . S
C500 H526 0.950 . S
C501 N498 1.332 . S
C501 C500 1.382 . S
C501 H512 0.952 . S
C502 C499 1.388 . S
C502 C503 1.382 . S
C502 H527 0.950 . S
C503 N498 1.332 . S
C503 C502 1.382 . S
C503 H513 0.948 . S
N504 Co482 2.282 . S
N504 C508 1.332 . S
N504 C509 1.332 . S
C505 C506 1.388 . S
C505 C509 1.382 . S
C505 H528 0.950 . S
C506 C505 1.388 . S
C506 C507 1.386 . S
C507 C506 1.386 . S
C507 C508 1.382 . S
C507 H529 0.950 . S
C508 N504 1.332 . S
C508 C507 1.382 . S
C508 H510 0.952 . S
C509 N504 1.332 . S
C509 C505 1.382 . S
C509 H511 0.948 . S
H510 C508 0.952 . S
H511 C509 0.948 . S
H512 C501 0.952 . S
H513 C503 0.948 . S
C514 C480 1.395 . S
C514 C484 1.391 . S
C515 C477 1.389 . S
C515 C497 1.392 . S
C516 C487 1.392 . S
C516 C489 1.389 . S
C517 C492 1.395 . S
C517 C494 1.391 . S
H518 C478 0.951 . S
H519 C479 0.950 . S
H520 C485 0.949 . S
H521 C486 0.950 . S
H522 C490 0.951 . S
H523 C491 0.950 . S
H524 C495 0.949 . S
H525 C496 0.950 . S
H526 C500 0.950 . S
H527 C502 0.950 . S
H528 C505 0.950 . S
H529 C507 0.950 . S
C530 C531 1.443 . S
C530 N534 1.376 . S
C530 C568 1.389 . S
C531 C530 1.443 . S
C531 C532 1.340 . S
C531 H571 0.951 . S
C532 C531 1.340 . S
C532 C533 1.439 . S
C532 H572 0.950 . S
C533 C532 1.439 . S
C533 N534 1.374 . S
C533 C567 1.395 . S
N534 C530 1.376 . S
N534 C533 1.374 . S
N534 Co535 2.008 . S
Co535 N534 2.008 . S
Co535 N536 1.995 . S
Co535 N541 2.008 . S
Co535 N546 1.995 . S
Co535 N551 2.282 . S
Co535 N557 2.282 . S
N536 Co535 1.995 . S
N536 C537 1.376 . S
N536 C540 1.383 . S
C537 N536 1.376 . S
C537 C538 1.446 . S
C537 C567 1.391 . S
C538 C537 1.446 . S
C538 C539 1.339 . S
C538 H573 0.949 . S
C539 C538 1.339 . S
C539 C540 1.439 . S
C539 H574 0.950 . S
C540 N536 1.383 . S
C540 C539 1.439 . S
C540 C569 1.392 . S
N541 Co535 2.008 . S
N541 C542 1.376 . S
N541 C545 1.374 . S
C542 N541 1.376 . S
C542 C543 1.443 . S
C542 C569 1.389 . S
C543 C542 1.443 . S
C543 C544 1.340 . S
C543 H575 0.951 . S
C544 C543 1.340 . S
C544 C545 1.439 . S
C544 H576 0.950 . S
C545 N541 1.374 . S
C545 C544 1.439 . S
C545 C570 1.395 . S
N546 Co535 1.995 . S
N546 C547 1.376 . S
N546 C550 1.383 . S
C547 N546 1.376 . S
C547 C548 1.446 . S
C547 C570 1.391 . S
C548 C547 1.446 . S
C548 C549 1.339 . S
C548 H577 0.949 . S
C549 C548 1.339 . S
C549 C550 1.439 . S
C549 H578 0.950 . S
C550 N546 1.383 . S
C550 C549 1.439 . S
C550 C568 1.392 . S
N551 Co535 2.282 . S
N551 C554 1.332 . S
N551 C556 1.332 . S
C552 C553 1.386 . S
C552 C555 1.388 . S
C553 C552 1.386 . S
C553 C554 1.382 . S
C553 H579 0.950 . S
C554 N551 1.332 . S
C554 C553 1.382 . S
C554 H565 0.952 . S
C555 C552 1.388 . S
C555 C556 1.382 . S
C555 H580 0.950 . S
C556 N551 1.332 . S
C556 C555 1.382 . S
C556 H566 0.948 . S
N557 Co535 2.282 . S
N557 C561 1.332 . S
N557 C562 1.332 . S
C558 C559 1.388 . S
C558 C562 1.382 . S
C558 H581 0.950 . S
C559 C558 1.388 . S
C559 C560 1.386 . S
C560 C559 1.386 . S
C560 C561 1.382 . S
C560 H582 0.950 . S
C561 N557 1.332 . S
C561 C560 1.382 . S
C561 H563 0.952 . S
C562 N557 1.332 . S
C562 C558 1.382 . S
C562 H564 0.948 . S
H563 C561 0.952 . S
H564 C562 0.948 . S
H565 C554 0.952 . S
H566 C556 0.948 . S
C567 C533 1.395 . S
C567 C537 1.391 . S
C568 C530 1.389 . S
C568 C550 1.392 . S
C569 C540 1.392 . S
C569 C542 1.389 . S
C570 C545 1.395 . S
C570 C547 1.391 . S
H571 C531 0.951 . S
H572 C532 0.950 . S
H573 C538 0.949 . S
H574 C539 0.950 . S
H575 C543 0.951 . S
H576 C544 0.950 . S
H577 C548 0.949 . S
H578 C549 0.950 . S
H579 C553 0.950 . S
H580 C555 0.950 . S
H581 C558 0.950 . S
H582 C560 0.950 . S
C583 C584 1.443 . S
C583 N587 1.376 . S
C583 C621 1.389 . S
C584 C583 1.443 . S
C584 C585 1.340 . S
C584 H624 0.951 . S
C585 C584 1.340 . S
C585 C586 1.439 . S
C585 H625 0.950 . S
C586 C585 1.439 . S
C586 N587 1.374 . S
C586 C620 1.395 . S
N587 C583 1.376 . S
N587 C586 1.374 . S
N587 Co588 2.008 . S
Co588 N587 2.008 . S
Co588 N589 1.995 . S
Co588 N594 2.008 . S
Co588 N599 1.995 . S
Co588 N604 2.282 . S
Co588 N610 2.282 . S
N589 Co588 1.995 . S
N589 C590 1.376 . S
N589 C593 1.383 . S
C590 N589 1.376 . S
C590 C591 1.446 . S
C590 C620 1.391 . S
C591 C590 1.446 . S
C591 C592 1.339 . S
C591 H626 0.949 . S
C592 C591 1.339 . S
C592 C593 1.439 . S
C592 H627 0.950 . S
C593 N589 1.383 . S
C593 C592 1.439 . S
C593 C622 1.392 . S
N594 Co588 2.008 . S
N594 C595 1.376 . S
N594 C598 1.374 . S
C595 N594 1.376 . S
C595 C596 1.443 . S
C595 C622 1.389 . S
C596 C595 1.443 . S
C596 C597 1.340 . S
C596 H628 0.951 . S
C597 C596 1.340 . S
C597 C598 1.439 . S
C597 H629 0.950 . S
C598 N594 1.374 . S
C598 C597 1.439 . S
C598 C623 1.395 . S
N599 Co588 1.995 . S
N599 C600 1.376 . S
N599 C603 1.383 . S
C600 N599 1.376 . S
C600 C601 1.446 . S
C600 C623 1.391 . S
C601 C600 1.446 . S
C601 C602 1.339 . S
C601 H630 0.949 . S
C602 C601 1.339 . S
C602 C603 1.439 . S
C602 H631 0.950 . S
C603 N599 1.383 . S
C603 C602 1.439 . S
C603 C621 1.392 . S
N604 Co588 2.282 . S
N604 C607 1.332 . S
N604 C609 1.332 . S
C605 C606 1.386 . S
C605 C608 1.388 . S
C606 C605 1.386 . S
C606 C607 1.382 . S
C606 H632 0.950 . S
C607 N604 1.332 . S
C607 C606 1.382 . S
C607 H618 0.952 . S
C608 C605 1.388 . S
C608 C609 1.382 . S
C608 H633 0.950 . S
C609 N604 1.332 . S
C609 C608 1.382 . S
C609 H619 0.948 . S
N610 Co588 2.282 . S
N610 C614 1.332 . S
N610 C615 1.332 . S
C611 C612 1.388 . S
C611 C615 1.382 . S
C611 H634 0.950 . S
C612 C611 1.388 . S
C612 C613 1.386 . S
C613 C612 1.386 . S
C613 C614 1.382 . S
C613 H635 0.950 . S
C614 N610 1.332 . S
C614 C613 1.382 . S
C614 H616 0.952 . S
C615 N610 1.332 . S
C615 C611 1.382 . S
C615 H617 0.948 . S
H616 C614 0.952 . S
H617 C615 0.948 . S
H618 C607 0.952 . S
H619 C609 0.948 . S
C620 C586 1.395 . S
C620 C590 1.391 . S
C621 C583 1.389 . S
C621 C603 1.392 . S
C622 C593 1.392 . S
C622 C595 1.389 . S
C623 C598 1.395 . S
C623 C600 1.391 . S
H624 C584 0.951 . S
H625 C585 0.950 . S
H626 C591 0.949 . S
H627 C592 0.950 . S
H628 C596 0.951 . S
H629 C597 0.950 . S
H630 C601 0.949 . S
H631 C602 0.950 . S
H632 C606 0.950 . S
H633 C608 0.950 . S
H634 C611 0.950 . S
H635 C613 0.950 . S
H636 C642 0.930 . S
H637 C646 0.930 . S
H638 C651 0.929 . S
H639 C649 0.929 . S
H640 C644 0.929 . S
H641 C650 0.929 . S
C642 H636 0.930 . S
C642 C643 1.367 . S
C642 C650 1.378 . S
C643 C642 1.367 . S
C643 C651 1.433 . S
C644 H640 0.929 . S
C644 C646 1.378 . S
C644 C648 1.350 . S
C645 C648 1.463 . S
C645 C650 1.350 . S
C645 N653 1.427 . S
C646 H637 0.930 . S
C646 C644 1.378 . S
C646 C647 1.367 . S
C647 C646 1.367 . S
C647 C649 1.433 . S
C648 C644 1.350 . S
C648 C645 1.463 . S
C648 N652 1.427 . S
C649 H639 0.929 . S
C649 C647 1.433 . S
C649 N652 1.384 . S
C650 H641 0.929 . S
C650 C642 1.378 . S
C650 C645 1.350 . S
C651 H638 0.929 . S
C651 C643 1.433 . S
C651 N653 1.384 . S
N652 C648 1.427 . S
N652 C649 1.384 . S
N653 C645 1.427 . S
N653 C651 1.384 . S
H654 C660 0.930 . S
H655 C664 0.930 . S
H656 C669 0.929 . S
H657 C667 0.929 . S
H658 C662 0.929 . S
H659 C668 0.929 . S
C660 H654 0.930 . S
C660 C661 1.367 . S
C660 C668 1.378 . S
C661 C660 1.367 . S
C661 C669 1.433 . S
C662 H658 0.929 . S
C662 C664 1.378 . S
C662 C666 1.350 . S
C663 C666 1.463 . S
C663 C668 1.350 . S
C663 N671 1.427 . S
C664 H655 0.930 . S
C664 C662 1.378 . S
C664 C665 1.367 . S
C665 C664 1.367 . S
C665 C667 1.433 . S
C666 C662 1.350 . S
C666 C663 1.463 . S
C666 N670 1.427 . S
C667 H657 0.929 . S
C667 C665 1.433 . S
C667 N670 1.384 . S
C668 H659 0.929 . S
C668 C660 1.378 . S
C668 C663 1.350 . S
C669 H656 0.929 . S
C669 C661 1.433 . S
C669 N671 1.384 . S
N670 C666 1.427 . S
N670 C667 1.384 . S
N671 C663 1.427 . S
N671 C669 1.384 . S
H672 C678 0.930 . S
H673 C682 0.930 . S
H674 C687 0.929 . S
H675 C685 0.929 . S
H676 C680 0.929 . S
H677 C686 0.929 . S
C678 H672 0.930 . S
C678 C679 1.367 . S
C678 C686 1.378 . S
C679 C678 1.367 . S
C679 C687 1.433 . S
C680 H676 0.929 . S
C680 C682 1.378 . S
C680 C684 1.350 . S
C681 C684 1.463 . S
C681 C686 1.350 . S
C681 N689 1.427 . S
C682 H673 0.930 . S
C682 C680 1.378 . S
C682 C683 1.367 . S
C683 C682 1.367 . S
C683 C685 1.433 . S
C684 C680 1.350 . S
C684 C681 1.463 . S
C684 N688 1.427 . S
C685 H675 0.929 . S
C685 C683 1.433 . S
C685 N688 1.384 . S
C686 H677 0.929 . S
C686 C678 1.378 . S
C686 C681 1.350 . S
C687 H674 0.929 . S
C687 C679 1.433 . S
C687 N689 1.384 . S
N688 C684 1.427 . S
N688 C685 1.384 . S
N689 C681 1.427 . S
N689 C687 1.384 . S
H690 C696 0.930 . S
H691 C700 0.930 . S
H692 C705 0.929 . S
H693 C703 0.929 . S
H694 C698 0.929 . S
H695 C704 0.929 . S
C696 H690 0.930 . S
C696 C697 1.367 . S
C696 C704 1.378 . S
C697 C696 1.367 . S
C697 C705 1.433 . S
C698 H694 0.929 . S
C698 C700 1.378 . S
C698 C702 1.350 . S
C699 C702 1.463 . S
C699 C704 1.350 . S
C699 N707 1.427 . S
C700 H691 0.930 . S
C700 C698 1.378 . S
C700 C701 1.367 . S
C701 C700 1.367 . S
C701 C703 1.433 . S
C702 C698 1.350 . S
C702 C699 1.463 . S
C702 N706 1.427 . S
C703 H693 0.929 . S
C703 C701 1.433 . S
C703 N706 1.384 . S
C704 H695 0.929 . S
C704 C696 1.378 . S
C704 C699 1.350 . S
C705 H692 0.929 . S
C705 C697 1.433 . S
C705 N707 1.384 . S
N706 C702 1.427 . S
N706 C703 1.384 . S
N707 C699 1.427 . S
N707 C705 1.384 . S
H708 C714 0.930 . S
H709 C718 0.930 . S
H710 C723 0.929 . S
H711 C721 0.929 . S
H712 C716 0.929 . S
H713 C722 0.929 . S
C714 H708 0.930 . S
C714 C715 1.367 . S
C714 C722 1.378 . S
C715 C714 1.367 . S
C715 C723 1.433 . S
C716 H712 0.929 . S
C716 C718 1.378 . S
C716 C720 1.350 . S
C717 C720 1.463 . S
C717 C722 1.350 . S
C717 N725 1.427 . S
C718 H709 0.930 . S
C718 C716 1.378 . S
C718 C719 1.367 . S
C719 C718 1.367 . S
C719 C721 1.433 . S
C720 C716 1.350 . S
C720 C717 1.463 . S
C720 N724 1.427 . S
C721 H711 0.929 . S
C721 C719 1.433 . S
C721 N724 1.384 . S
C722 H713 0.929 . S
C722 C714 1.378 . S
C722 C717 1.350 . S
C723 H710 0.929 . S
C723 C715 1.433 . S
C723 N725 1.384 . S
N724 C720 1.427 . S
N724 C721 1.384 . S
N725 C717 1.427 . S
N725 C723 1.384 . S
H726 C732 0.930 . S
H727 C736 0.930 . S
H728 C741 0.929 . S
H729 C739 0.929 . S
H730 C734 0.929 . S
H731 C740 0.929 . S
C732 H726 0.930 . S
C732 C733 1.367 . S
C732 C740 1.378 . S
C733 C732 1.367 . S
C733 C741 1.433 . S
C734 H730 0.929 . S
C734 C736 1.378 . S
C734 C738 1.350 . S
C735 C738 1.463 . S
C735 C740 1.350 . S
C735 N743 1.427 . S
C736 H727 0.930 . S
C736 C734 1.378 . S
C736 C737 1.367 . S
C737 C736 1.367 . S
C737 C739 1.433 . S
C738 C734 1.350 . S
C738 C735 1.463 . S
C738 N742 1.427 . S
C739 H729 0.929 . S
C739 C737 1.433 . S
C739 N742 1.384 . S
C740 H731 0.929 . S
C740 C732 1.378 . S
C740 C735 1.350 . S
C741 H728 0.929 . S
C741 C733 1.433 . S
C741 N743 1.384 . S
N742 C738 1.427 . S
N742 C739 1.384 . S
N743 C735 1.427 . S
N743 C741 1.384 . S
H744 C750 0.930 . S
H745 C754 0.930 . S
H746 C759 0.929 . S
H747 C757 0.929 . S
H748 C752 0.929 . S
H749 C758 0.929 . S
C750 H744 0.930 . S
C750 C751 1.367 . S
C750 C758 1.378 . S
C751 C750 1.367 . S
C751 C759 1.433 . S
C752 H748 0.929 . S
C752 C754 1.378 . S
C752 C756 1.350 . S
C753 C756 1.463 . S
C753 C758 1.350 . S
C753 N761 1.427 . S
C754 H745 0.930 . S
C754 C752 1.378 . S
C754 C755 1.367 . S
C755 C754 1.367 . S
C755 C757 1.433 . S
C756 C752 1.350 . S
C756 C753 1.463 . S
C756 N760 1.427 . S
C757 H747 0.929 . S
C757 C755 1.433 . S
C757 N760 1.384 . S
C758 H749 0.929 . S
C758 C750 1.378 . S
C758 C753 1.350 . S
C759 H746 0.929 . S
C759 C751 1.433 . S
C759 N761 1.384 . S
N760 C756 1.427 . S
N760 C757 1.384 . S
N761 C753 1.427 . S
N761 C759 1.384 . S
H762 C768 0.930 . S
H763 C772 0.930 . S
H764 C777 0.929 . S
H765 C775 0.929 . S
H766 C770 0.929 . S
H767 C776 0.929 . S
C768 H762 0.930 . S
C768 C769 1.367 . S
C768 C776 1.378 . S
C769 C768 1.367 . S
C769 C777 1.433 . S
C770 H766 0.929 . S
C770 C772 1.378 . S
C770 C774 1.350 . S
C771 C774 1.463 . S
C771 C776 1.350 . S
C771 N779 1.427 . S
C772 H763 0.930 . S
C772 C770 1.378 . S
C772 C773 1.367 . S
C773 C772 1.367 . S
C773 C775 1.433 . S
C774 C770 1.350 . S
C774 C771 1.463 . S
C774 N778 1.427 . S
C775 H765 0.929 . S
C775 C773 1.433 . S
C775 N778 1.384 . S
C776 H767 0.929 . S
C776 C768 1.378 . S
C776 C771 1.350 . S
C777 H764 0.929 . S
C777 C769 1.433 . S
C777 N779 1.384 . S
N778 C774 1.427 . S
N778 C775 1.384 . S
N779 C771 1.427 . S
N779 C777 1.384 . S
H780 C786 0.930 . S
H781 C790 0.930 . S
H782 C795 0.929 . S
H783 C793 0.929 . S
H784 C788 0.929 . S
H785 C794 0.929 . S
C786 H780 0.930 . S
C786 C787 1.367 . S
C786 C794 1.378 . S
C787 C786 1.367 . S
C787 C795 1.433 . S
C788 H784 0.929 . S
C788 C790 1.378 . S
C788 C792 1.350 . S
C789 C792 1.463 . S
C789 C794 1.350 . S
C789 N797 1.427 . S
C790 H781 0.930 . S
C790 C788 1.378 . S
C790 C791 1.367 . S
C791 C790 1.367 . S
C791 C793 1.433 . S
C792 C788 1.350 . S
C792 C789 1.463 . S
C792 N796 1.427 . S
C793 H783 0.929 . S
C793 C791 1.433 . S
C793 N796 1.384 . S
C794 H785 0.929 . S
C794 C786 1.378 . S
C794 C789 1.350 . S
C795 H782 0.929 . S
C795 C787 1.433 . S
C795 N797 1.384 . S
N796 C792 1.427 . S
N796 C793 1.384 . S
N797 C789 1.427 . S
N797 C795 1.384 . S
H798 C804 0.930 . S
H799 C808 0.930 . S
H800 C813 0.929 . S
H801 C811 0.929 . S
H802 C806 0.929 . S
H803 C812 0.929 . S
C804 H798 0.930 . S
C804 C805 1.367 . S
C804 C812 1.378 . S
C805 C804 1.367 . S
C805 C813 1.433 . S
C806 H802 0.929 . S
C806 C808 1.378 . S
C806 C810 1.350 . S
C807 C810 1.463 . S
C807 C812 1.350 . S
C807 N815 1.427 . S
C808 H799 0.930 . S
C808 C806 1.378 . S
C808 C809 1.367 . S
C809 C808 1.367 . S
C809 C811 1.433 . S
C810 C806 1.350 . S
C810 C807 1.463 . S
C810 N814 1.427 . S
C811 H801 0.929 . S
C811 C809 1.433 . S
C811 N814 1.384 . S
C812 H803 0.929 . S
C812 C804 1.378 . S
C812 C807 1.350 . S
C813 H800 0.929 . S
C813 C805 1.433 . S
C813 N815 1.384 . S
N814 C810 1.427 . S
N814 C811 1.384 . S
N815 C807 1.427 . S
N815 C813 1.384 . S
H816 C822 0.930 . S
H817 C826 0.930 . S
H818 C831 0.929 . S
H819 C829 0.929 . S
H820 C824 0.929 . S
H821 C830 0.929 . S
C822 H816 0.930 . S
C822 C823 1.367 . S
C822 C830 1.378 . S
C823 C822 1.367 . S
C823 C831 1.433 . S
C824 H820 0.929 . S
C824 C826 1.378 . S
C824 C828 1.350 . S
C825 C828 1.463 . S
C825 C830 1.350 . S
C825 N833 1.427 . S
C826 H817 0.930 . S
C826 C824 1.378 . S
C826 C827 1.367 . S
C827 C826 1.367 . S
C827 C829 1.433 . S
C828 C824 1.350 . S
C828 C825 1.463 . S
C828 N832 1.427 . S
C829 H819 0.929 . S
C829 C827 1.433 . S
C829 N832 1.384 . S
C830 H821 0.929 . S
C830 C822 1.378 . S
C830 C825 1.350 . S
C831 H818 0.929 . S
C831 C823 1.433 . S
C831 N833 1.384 . S
N832 C828 1.427 . S
N832 C829 1.384 . S
N833 C825 1.427 . S
N833 C831 1.384 . S
H834 C840 0.930 . S
H835 C844 0.930 . S
H836 C849 0.929 . S
H837 C847 0.929 . S
H838 C842 0.929 . S
H839 C848 0.929 . S
C840 H834 0.930 . S
C840 C841 1.367 . S
C840 C848 1.378 . S
C841 C840 1.367 . S
C841 C849 1.433 . S
C842 H838 0.929 . S
C842 C844 1.378 . S
C842 C846 1.350 . S
C843 C846 1.463 . S
C843 C848 1.350 . S
C843 N851 1.427 . S
C844 H835 0.930 . S
C844 C842 1.378 . S
C844 C845 1.367 . S
C845 C844 1.367 . S
C845 C847 1.433 . S
C846 C842 1.350 . S
C846 C843 1.463 . S
C846 N850 1.427 . S
C847 H837 0.929 . S
C847 C845 1.433 . S
C847 N850 1.384 . S
C848 H839 0.929 . S
C848 C840 1.378 . S
C848 C843 1.350 . S
C849 H836 0.929 . S
C849 C841 1.433 . S
C849 N851 1.384 . S
N850 C846 1.427 . S
N850 C847 1.384 . S
N851 C843 1.427 . S
N851 C849 1.384 . S
H852 C858 0.930 . S
H853 C862 0.930 . S
H854 C867 0.929 . S
H855 C865 0.929 . S
H856 C860 0.929 . S
H857 C866 0.929 . S
C858 H852 0.930 . S
C858 C859 1.367 . S
C858 C866 1.378 . S
C859 C858 1.367 . S
C859 C867 1.433 . S
C860 H856 0.929 . S
C860 C862 1.378 . S
C860 C864 1.350 . S
C861 C864 1.463 . S
C861 C866 1.350 . S
C861 N869 1.427 . S
C862 H853 0.930 . S
C862 C860 1.378 . S
C862 C863 1.367 . S
C863 C862 1.367 . S
C863 C865 1.433 . S
C864 C860 1.350 . S
C864 C861 1.463 . S
C864 N868 1.427 . S
C865 H855 0.929 . S
C865 C863 1.433 . S
C865 N868 1.384 . S
C866 H857 0.929 . S
C866 C858 1.378 . S
C866 C861 1.350 . S
C867 H854 0.929 . S
C867 C859 1.433 . S
C867 N869 1.384 . S
N868 C864 1.427 . S
N868 C865 1.384 . S
N869 C861 1.427 . S
N869 C867 1.384 . S
H870 C876 0.930 . S
H871 C880 0.930 . S
H872 C885 0.929 . S
H873 C883 0.929 . S
H874 C878 0.929 . S
H875 C884 0.929 . S
C876 H870 0.930 . S
C876 C877 1.367 . S
C876 C884 1.378 . S
C877 C876 1.367 . S
C877 C885 1.433 . S
C878 H874 0.929 . S
C878 C880 1.378 . S
C878 C882 1.350 . S
C879 C882 1.463 . S
C879 C884 1.350 . S
C879 N887 1.427 . S
C880 H871 0.930 . S
C880 C878 1.378 . S
C880 C881 1.367 . S
C881 C880 1.367 . S
C881 C883 1.433 . S
C882 C878 1.350 . S
C882 C879 1.463 . S
C882 N886 1.427 . S
C883 H873 0.929 . S
C883 C881 1.433 . S
C883 N886 1.384 . S
C884 H875 0.929 . S
C884 C876 1.378 . S
C884 C879 1.350 . S
C885 H872 0.929 . S
C885 C877 1.433 . S
C885 N887 1.384 . S
N886 C882 1.427 . S
N886 C883 1.384 . S
N887 C879 1.427 . S
N887 C885 1.384 . S
H888 C894 0.930 . S
H889 C898 0.930 . S
H890 C903 0.929 . S
H891 C901 0.929 . S
H892 C896 0.929 . S
H893 C902 0.929 . S
C894 H888 0.930 . S
C894 C895 1.367 . S
C894 C902 1.378 . S
C895 C894 1.367 . S
C895 C903 1.433 . S
C896 H892 0.929 . S
C896 C898 1.378 . S
C896 C900 1.350 . S
C897 C900 1.463 . S
C897 C902 1.350 . S
C897 N905 1.427 . S
C898 H889 0.930 . S
C898 C896 1.378 . S
C898 C899 1.367 . S
C899 C898 1.367 . S
C899 C901 1.433 . S
C900 C896 1.350 . S
C900 C897 1.463 . S
C900 N904 1.427 . S
C901 H891 0.929 . S
C901 C899 1.433 . S
C901 N904 1.384 . S
C902 H893 0.929 . S
C902 C894 1.378 . S
C902 C897 1.350 . S
C903 H890 0.929 . S
C903 C895 1.433 . S
C903 N905 1.384 . S
N904 C900 1.427 . S
N904 C901 1.384 . S
N905 C897 1.427 . S
N905 C903 1.384 . S
H906 C912 0.930 . S
H907 C916 0.930 . S
H908 C921 0.929 . S
H909 C919 0.929 . S
H910 C914 0.929 . S
H911 C920 0.929 . S
C912 H906 0.930 . S
C912 C913 1.367 . S
C912 C920 1.378 . S
C913 C912 1.367 . S
C913 C921 1.433 . S
C914 H910 0.929 . S
C914 C916 1.378 . S
C914 C918 1.350 . S
C915 C918 1.463 . S
C915 C920 1.350 . S
C915 N923 1.427 . S
C916 H907 0.930 . S
C916 C914 1.378 . S
C916 C917 1.367 . S
C917 C916 1.367 . S
C917 C919 1.433 . S
C918 C914 1.350 . S
C918 C915 1.463 . S
C918 N922 1.427 . S
C919 H909 0.929 . S
C919 C917 1.433 . S
C919 N922 1.384 . S
C920 H911 0.929 . S
C920 C912 1.378 . S
C920 C915 1.350 . S
C921 H908 0.929 . S
C921 C913 1.433 . S
C921 N923 1.384 . S
N922 C918 1.427 . S
N922 C919 1.384 . S
N923 C915 1.427 . S
N923 C921 1.384 . S
H924 C930 0.930 . S
H925 C934 0.930 . S
H926 C939 0.929 . S
H927 C937 0.929 . S
H928 C932 0.929 . S
H929 C938 0.929 . S
C930 H924 0.930 . S
C930 C931 1.367 . S
C930 C938 1.378 . S
C931 C930 1.367 . S
C931 C939 1.433 . S
C932 H928 0.929 . S
C932 C934 1.378 . S
C932 C936 1.350 . S
C933 C936 1.463 . S
C933 C938 1.350 . S
C933 N941 1.427 . S
C934 H925 0.930 . S
C934 C932 1.378 . S
C934 C935 1.367 . S
C935 C934 1.367 . S
C935 C937 1.433 . S
C936 C932 1.350 . S
C936 C933 1.463 . S
C936 N940 1.427 . S
C937 H927 0.929 . S
C937 C935 1.433 . S
C937 N940 1.384 . S
C938 H929 0.929 . S
C938 C930 1.378 . S
C938 C933 1.350 . S
C939 H926 0.929 . S
C939 C931 1.433 . S
C939 N941 1.384 . S
N940 C936 1.427 . S
N940 C937 1.384 . S
N941 C933 1.427 . S
N941 C939 1.384 . S
H942 C948 0.930 . S
H943 C952 0.930 . S
H944 C957 0.929 . S
H945 C955 0.929 . S
H946 C950 0.929 . S
H947 C956 0.929 . S
C948 H942 0.930 . S
C948 C949 1.367 . S
C948 C956 1.378 . S
C949 C948 1.367 . S
C949 C957 1.433 . S
C950 H946 0.929 . S
C950 C952 1.378 . S
C950 C954 1.350 . S
C951 C954 1.463 . S
C951 C956 1.350 . S
C951 N959 1.427 . S
C952 H943 0.930 . S
C952 C950 1.378 . S
C952 C953 1.367 . S
C953 C952 1.367 . S
C953 C955 1.433 . S
C954 C950 1.350 . S
C954 C951 1.463 . S
C954 N958 1.427 . S
C955 H945 0.929 . S
C955 C953 1.433 . S
C955 N958 1.384 . S
C956 H947 0.929 . S
C956 C948 1.378 . S
C956 C951 1.350 . S
C957 H944 0.929 . S
C957 C949 1.433 . S
C957 N959 1.384 . S
N958 C954 1.427 . S
N958 C955 1.384 . S
N959 C951 1.427 . S
N959 C957 1.384 . S
H960 C966 0.930 . S
H961 C970 0.930 . S
H962 C975 0.929 . S
H963 C973 0.929 . S
H964 C968 0.929 . S
H965 C974 0.929 . S
C966 H960 0.930 . S
C966 C967 1.367 . S
C966 C974 1.378 . S
C967 C966 1.367 . S
C967 C975 1.433 . S
C968 H964 0.929 . S
C968 C970 1.378 . S
C968 C972 1.350 . S
C969 C972 1.463 . S
C969 C974 1.350 . S
C969 N977 1.427 . S
C970 H961 0.930 . S
C970 C968 1.378 . S
C970 C971 1.367 . S
C971 C970 1.367 . S
C971 C973 1.433 . S
C972 C968 1.350 . S
C972 C969 1.463 . S
C972 N976 1.427 . S
C973 H963 0.929 . S
C973 C971 1.433 . S
C973 N976 1.384 . S
C974 H965 0.929 . S
C974 C966 1.378 . S
C974 C969 1.350 . S
C975 H962 0.929 . S
C975 C967 1.433 . S
C975 N977 1.384 . S
N976 C972 1.427 . S
N976 C973 1.384 . S
N977 C969 1.427 . S
N977 C975 1.384 . S
H978 C984 0.930 . S
H979 C988 0.930 . S
H980 C993 0.929 . S
H981 C991 0.929 . S
H982 C986 0.929 . S
H983 C992 0.929 . S
C984 H978 0.930 . S
C984 C985 1.367 . S
C984 C992 1.378 . S
C985 C984 1.367 . S
C985 C993 1.433 . S
C986 H982 0.929 . S
C986 C988 1.378 . S
C986 C990 1.350 . S
C987 C990 1.463 . S
C987 C992 1.350 . S
C987 N995 1.427 . S
C988 H979 0.930 . S
C988 C986 1.378 . S
C988 C989 1.367 . S
C989 C988 1.367 . S
C989 C991 1.433 . S
C990 C986 1.350 . S
C990 C987 1.463 . S
C990 N994 1.427 . S
C991 H981 0.929 . S
C991 C989 1.433 . S
C991 N994 1.384 . S
C992 H983 0.929 . S
C992 C984 1.378 . S
C992 C987 1.350 . S
C993 H980 0.929 . S
C993 C985 1.433 . S
C993 N995 1.384 . S
N994 C990 1.427 . S
N994 C991 1.384 . S
N995 C987 1.427 . S
N995 C993 1.384 . S
H996 C1002 0.930 . S
H997 C1006 0.930 . S
H998 C1011 0.929 . S
H999 C1009 0.929 . S
H1000 C1004 0.929 . S
H1001 C1010 0.929 . S
C1002 H996 0.930 . S
C1002 C1003 1.367 . S
C1002 C1010 1.378 . S
C1003 C1002 1.367 . S
C1003 C1011 1.433 . S
C1004 H1000 0.929 . S
C1004 C1006 1.378 . S
C1004 C1008 1.350 . S
C1005 C1008 1.463 . S
C1005 C1010 1.350 . S
C1005 N1013 1.427 . S
C1006 H997 0.930 . S
C1006 C1004 1.378 . S
C1006 C1007 1.367 . S
C1007 C1006 1.367 . S
C1007 C1009 1.433 . S
C1008 C1004 1.350 . S
C1008 C1005 1.463 . S
C1008 N1012 1.427 . S
C1009 H999 0.929 . S
C1009 C1007 1.433 . S
C1009 N1012 1.384 . S
C1010 H1001 0.929 . S
C1010 C1002 1.378 . S
C1010 C1005 1.350 . S
C1011 H998 0.929 . S
C1011 C1003 1.433 . S
C1011 N1013 1.384 . S
N1012 C1008 1.427 . S
N1012 C1009 1.384 . S
N1013 C1005 1.427 . S
N1013 C1011 1.384 . S
H1014 C1020 0.930 . S
H1015 C1024 0.930 . S
H1016 C1029 0.929 . S
H1017 C1027 0.929 . S
H1018 C1022 0.929 . S
H1019 C1028 0.929 . S
C1020 H1014 0.930 . S
C1020 C1021 1.367 . S
C1020 C1028 1.378 . S
C1021 C1020 1.367 . S
C1021 C1029 1.433 . S
C1022 H1018 0.929 . S
C1022 C1024 1.378 . S
C1022 C1026 1.350 . S
C1023 C1026 1.463 . S
C1023 C1028 1.350 . S
C1023 N1031 1.427 . S
C1024 H1015 0.930 . S
C1024 C1022 1.378 . S
C1024 C1025 1.367 . S
C1025 C1024 1.367 . S
C1025 C1027 1.433 . S
C1026 C1022 1.350 . S
C1026 C1023 1.463 . S
C1026 N1030 1.427 . S
C1027 H1017 0.929 . S
C1027 C1025 1.433 . S
C1027 N1030 1.384 . S
C1028 H1019 0.929 . S
C1028 C1020 1.378 . S
C1028 C1023 1.350 . S
C1029 H1016 0.929 . S
C1029 C1021 1.433 . S
C1029 N1031 1.384 . S
N1030 C1026 1.427 . S
N1030 C1027 1.384 . S
N1031 C1023 1.427 . S
N1031 C1029 1.384 . S
H1032 C1038 0.930 . S
H1033 C1042 0.930 . S
H1034 C1047 0.929 . S
H1035 C1045 0.929 . S
H1036 C1040 0.929 . S
H1037 C1046 0.929 . S
C1038 H1032 0.930 . S
C1038 C1039 1.367 . S
C1038 C1046 1.378 . S
C1039 C1038 1.367 . S
C1039 C1047 1.433 . S
C1040 H1036 0.929 . S
C1040 C1042 1.378 . S
C1040 C1044 1.350 . S
C1041 C1044 1.463 . S
C1041 C1046 1.350 . S
C1041 N1049 1.427 . S
C1042 H1033 0.930 . S
C1042 C1040 1.378 . S
C1042 C1043 1.367 . S
C1043 C1042 1.367 . S
C1043 C1045 1.433 . S
C1044 C1040 1.350 . S
C1044 C1041 1.463 . S
C1044 N1048 1.427 . S
C1045 H1035 0.929 . S
C1045 C1043 1.433 . S
C1045 N1048 1.384 . S
C1046 H1037 0.929 . S
C1046 C1038 1.378 . S
C1046 C1041 1.350 . S
C1047 H1034 0.929 . S
C1047 C1039 1.433 . S
C1047 N1049 1.384 . S
N1048 C1044 1.427 . S
N1048 C1045 1.384 . S
N1049 C1041 1.427 . S
N1049 C1047 1.384 . S
H1050 C1056 0.930 . S
H1051 C1060 0.930 . S
H1052 C1065 0.929 . S
H1053 C1063 0.929 . S
H1054 C1058 0.929 . S
H1055 C1064 0.929 . S
C1056 H1050 0.930 . S
C1056 C1057 1.367 . S
C1056 C1064 1.378 . S
C1057 C1056 1.367 . S
C1057 C1065 1.433 . S
C1058 H1054 0.929 . S
C1058 C1060 1.378 . S
C1058 C1062 1.350 . S
C1059 C1062 1.463 . S
C1059 C1064 1.350 . S
C1059 N1067 1.427 . S
C1060 H1051 0.930 . S
C1060 C1058 1.378 . S
C1060 C1061 1.367 . S
C1061 C1060 1.367 . S
C1061 C1063 1.433 . S
C1062 C1058 1.350 . S
C1062 C1059 1.463 . S
C1062 N1066 1.427 . S
C1063 H1053 0.929 . S
C1063 C1061 1.433 . S
C1063 N1066 1.384 . S
C1064 H1055 0.929 . S
C1064 C1056 1.378 . S
C1064 C1059 1.350 . S
C1065 H1052 0.929 . S
C1065 C1057 1.433 . S
C1065 N1067 1.384 . S
N1066 C1062 1.427 . S
N1066 C1063 1.384 . S
N1067 C1059 1.427 . S
N1067 C1065 1.384 . S
C643 C39 1.963 . S
C647 C356 1.941 . S
C661 C91 1.639 . S
C665 C409 1.620 . S
C683 C462 1.680 . S
C679 C128 1.702 . S
C701 C499 1.328 . S
C697 C188 1.339 . S
C719 C559 1.694 . S
C715 C250 1.713 . S
C737 C612 1.554 . S
C733 C304 1.582 . S
C751 C75 1.828 . S
C755 C463 1.810 . S
C769 C144 1.605 . S
C773 C506 1.585 . S
C791 C552 1.740 . S
C787 C198 1.754 . S
C809 C605 1.328 . S
C805 C234 1.348 . S
C823 C294 1.650 . S
C827 C357 1.635 . S
C845 C410 1.472 . S
C841 C29 1.482 . S
C863 C516 1.941 . S
C859 C38 1.964 . S
C877 C92 1.639 . S
C881 C568 1.628 . S
C899 C621 1.686 . S
C895 C135 1.703 . S
C913 C181 1.334 . S
C917 C347 1.318 . S
C931 C251 1.712 . S
C935 C400 1.697 . S
C949 C303 1.583 . S
C953 C453 1.559 . S
C967 C82 1.828 . S
C971 C622 1.805 . S
C989 C340 1.586 . S
C985 C145 1.605 . S
C1003 C197 1.753 . S
C1007 C393 1.733 . S
C1021 C241 1.350 . S
C1025 C446 1.331 . S
C1039 C287 1.651 . S
C1043 C515 1.637 . S
C1057 C22 1.484 . S
C1061 C569 1.470 . S
