# Generated by pormake.
# Topology ctn, (3,4)-cn, num edge types: 1
# Building blocks:
#     Node 0, Type 0, BuildingBlock: WUSLED_clean_sbu_0, # of connection points: 3
#     Node 1, Type 0, BuildingBlock: WUSLED_clean_sbu_0, # of connection points: 3
#     Node 2, Type 0, BuildingBlock: WUSLED_clean_sbu_0, # of connection points: 3
#     Node 3, Type 0, BuildingBlock: WUSLED_clean_sbu_0, # of connection points: 3
#     Node 4, Type 0, BuildingBlock: WUSLED_clean_sbu_0, # of connection points: 3
#     Node 5, Type 0, BuildingBlock: WUSLED_clean_sbu_0, # of connection points: 3
#     Node 6, Type 0, BuildingBlock: WUSLED_clean_sbu_0, # of connection points: 3
#     Node 7, Type 0, BuildingBlock: WUSLED_clean_sbu_0, # of connection points: 3
#     Node 8, Type 0, BuildingBlock: WUSLED_clean_sbu_0, # of connection points: 3
#     Node 9, Type 0, BuildingBlock: WUSLED_clean_sbu_0, # of connection points: 3
#     Node 10, Type 0, BuildingBlock: WUSLED_clean_sbu_0, # of connection points: 3
#     Node 11, Type 0, BuildingBlock: WUSLED_clean_sbu_0, # of connection points: 3
#     Node 12, Type 0, BuildingBlock: WUSLED_clean_sbu_0, # of connection points: 3
#     Node 13, Type 0, BuildingBlock: WUSLED_clean_sbu_0, # of connection points: 3
#     Node 14, Type 0, BuildingBlock: WUSLED_clean_sbu_0, # of connection points: 3
#     Node 15, Type 0, BuildingBlock: WUSLED_clean_sbu_0, # of connection points: 3
#     Node 16, Type 1, BuildingBlock: TATPOV_clean_sbu_0, # of connection points: 4
#     Node 17, Type 1, BuildingBlock: TATPOV_clean_sbu_0, # of connection points: 4
#     Node 18, Type 1, BuildingBlock: TATPOV_clean_sbu_0, # of connection points: 4
#     Node 19, Type 1, BuildingBlock: TATPOV_clean_sbu_0, # of connection points: 4
#     Node 20, Type 1, BuildingBlock: TATPOV_clean_sbu_0, # of connection points: 4
#     Node 21, Type 1, BuildingBlock: TATPOV_clean_sbu_0, # of connection points: 4
#     Node 22, Type 1, BuildingBlock: TATPOV_clean_sbu_0, # of connection points: 4
#     Node 23, Type 1, BuildingBlock: TATPOV_clean_sbu_0, # of connection points: 4
#     Node 24, Type 1, BuildingBlock: TATPOV_clean_sbu_0, # of connection points: 4
#     Node 25, Type 1, BuildingBlock: TATPOV_clean_sbu_0, # of connection points: 4
#     Node 26, Type 1, BuildingBlock: TATPOV_clean_sbu_0, # of connection points: 4
#     Node 27, Type 1, BuildingBlock: TATPOV_clean_sbu_0, # of connection points: 4
#     Edge 28, Type (0, 1), BuildingBlock: XIVTED_clean_linker_0, # of connection points: 2
#     Edge 29, Type (0, 1), BuildingBlock: XIVTED_clean_linker_0, # of connection points: 2
#     Edge 30, Type (0, 1), BuildingBlock: XIVTED_clean_linker_0, # of connection points: 2
#     Edge 31, Type (0, 1), BuildingBlock: XIVTED_clean_linker_0, # of connection points: 2
#     Edge 32, Type (0, 1), BuildingBlock: XIVTED_clean_linker_0, # of connection points: 2
#     Edge 33, Type (0, 1), BuildingBlock: XIVTED_clean_linker_0, # of connection points: 2
#     Edge 34, Type (0, 1), BuildingBlock: XIVTED_clean_linker_0, # of connection points: 2
#     Edge 35, Type (0, 1), BuildingBlock: XIVTED_clean_linker_0, # of connection points: 2
#     Edge 36, Type (0, 1), BuildingBlock: XIVTED_clean_linker_0, # of connection points: 2
#     Edge 37, Type (0, 1), BuildingBlock: XIVTED_clean_linker_0, # of connection points: 2
#     Edge 38, Type (0, 1), BuildingBlock: XIVTED_clean_linker_0, # of connection points: 2
#     Edge 39, Type (0, 1), BuildingBlock: XIVTED_clean_linker_0, # of connection points: 2
#     Edge 40, Type (0, 1), BuildingBlock: XIVTED_clean_linker_0, # of connection points: 2
#     Edge 41, Type (0, 1), BuildingBlock: XIVTED_clean_linker_0, # of connection points: 2
#     Edge 42, Type (0, 1), BuildingBlock: XIVTED_clean_linker_0, # of connection points: 2
#     Edge 43, Type (0, 1), BuildingBlock: XIVTED_clean_linker_0, # of connection points: 2
#     Edge 44, Type (0, 1), BuildingBlock: XIVTED_clean_linker_0, # of connection points: 2
#     Edge 45, Type (0, 1), BuildingBlock: XIVTED_clean_linker_0, # of connection points: 2
#     Edge 46, Type (0, 1), BuildingBlock: XIVTED_clean_linker_0, # of connection points: 2
#     Edge 47, Type (0, 1), BuildingBlock: XIVTED_clean_linker_0, # of connection points: 2
#     Edge 48, Type (0, 1), BuildingBlock: XIVTED_clean_linker_0, # of connection points: 2
#     Edge 49, Type (0, 1), BuildingBlock: XIVTED_clean_linker_0, # of connection points: 2
#     Edge 50, Type (0, 1), BuildingBlock: XIVTED_clean_linker_0, # of connection points: 2
#     Edge 51, Type (0, 1), BuildingBlock: XIVTED_clean_linker_0, # of connection points: 2
#     Edge 52, Type (0, 1), BuildingBlock: XIVTED_clean_linker_0, # of connection points: 2
#     Edge 53, Type (0, 1), BuildingBlock: XIVTED_clean_linker_0, # of connection points: 2
#     Edge 54, Type (0, 1), BuildingBlock: XIVTED_clean_linker_0, # of connection points: 2
#     Edge 55, Type (0, 1), BuildingBlock: XIVTED_clean_linker_0, # of connection points: 2
#     Edge 56, Type (0, 1), BuildingBlock: XIVTED_clean_linker_0, # of connection points: 2
#     Edge 57, Type (0, 1), BuildingBlock: XIVTED_clean_linker_0, # of connection points: 2
#     Edge 58, Type (0, 1), BuildingBlock: XIVTED_clean_linker_0, # of connection points: 2
#     Edge 59, Type (0, 1), BuildingBlock: XIVTED_clean_linker_0, # of connection points: 2
#     Edge 60, Type (0, 1), BuildingBlock: XIVTED_clean_linker_0, # of connection points: 2
#     Edge 61, Type (0, 1), BuildingBlock: XIVTED_clean_linker_0, # of connection points: 2
#     Edge 62, Type (0, 1), BuildingBlock: XIVTED_clean_linker_0, # of connection points: 2
#     Edge 63, Type (0, 1), BuildingBlock: XIVTED_clean_linker_0, # of connection points: 2
#     Edge 64, Type (0, 1), BuildingBlock: XIVTED_clean_linker_0, # of connection points: 2
#     Edge 65, Type (0, 1), BuildingBlock: XIVTED_clean_linker_0, # of connection points: 2
#     Edge 66, Type (0, 1), BuildingBlock: XIVTED_clean_linker_0, # of connection points: 2
#     Edge 67, Type (0, 1), BuildingBlock: XIVTED_clean_linker_0, # of connection points: 2
#     Edge 68, Type (0, 1), BuildingBlock: XIVTED_clean_linker_0, # of connection points: 2
#     Edge 69, Type (0, 1), BuildingBlock: XIVTED_clean_linker_0, # of connection points: 2
#     Edge 70, Type (0, 1), BuildingBlock: XIVTED_clean_linker_0, # of connection points: 2
#     Edge 71, Type (0, 1), BuildingBlock: XIVTED_clean_linker_0, # of connection points: 2
#     Edge 72, Type (0, 1), BuildingBlock: XIVTED_clean_linker_0, # of connection points: 2
#     Edge 73, Type (0, 1), BuildingBlock: XIVTED_clean_linker_0, # of connection points: 2
#     Edge 74, Type (0, 1), BuildingBlock: XIVTED_clean_linker_0, # of connection points: 2
#     Edge 75, Type (0, 1), BuildingBlock: XIVTED_clean_linker_0, # of connection points: 2
# Relax obj value: 0.004
# Max RMSD: 0.049
# Mean RMSD: 0.024
data_MOF--net-ctn--node1-WUSLED_clean_sbu_0--node2-TATPOV_clean_sbu_0--edge1-XIVTED_clean_linker_0
_symmetry_space_group_name_H-M    P1
_symmetry_Int_Tables_number       1
_symmetry_cell_setting            triclinic
loop_
_symmetry_equiv_pos_as_xyz
'x, y, z'
_cell_length_a     71.126152
_cell_length_b     71.61854
_cell_length_c     71.325341
_cell_angle_alpha  91.496241
_cell_angle_beta   90.827695
_cell_angle_gamma 90.850381
loop_
_atom_site_label
_atom_site_type_symbol
_atom_site_fract_x
_atom_site_fract_y
_atom_site_fract_z
_atom_type_partial_charge
C0 C 1.00414 0.04873 0.08124 0.0
C1 C 0.01208 0.03879 0.09603 0.0
C2 C 0.98217 0.03923 0.11259 0.0
C3 C 1.00121 0.03409 0.11155 0.0
C4 C 0.97429 0.04894 0.09753 0.0
C5 C 0.98516 0.05364 0.08209 0.0
U6 U 0.04483 0.04407 0.0458 0.0
O7 O 0.04409 0.04864 0.01536 0.0
O8 O 0.06229 0.06626 0.03375 0.0
C9 C 0.05562 0.06314 0.01665 0.0
C10 C 0.01528 0.05461 0.06499 0.0
C11 C 0.05004 0.07971 1.0061 0.0
C12 C 0.03266 0.10857 1.00302 0.0
C13 C 0.03745 0.09286 0.01338 0.0
C14 C 0.05289 0.09805 0.978 0.0
C15 C 0.04038 0.11141 0.98518 0.0
C16 C 0.05765 0.08243 0.98835 0.0
C17 C 0.07955 1.0026 0.0493 0.0
C18 C 0.11328 0.99785 0.04589 0.0
C19 C 0.09154 0.97193 0.04047 0.0
C20 C 0.07646 0.98367 0.04441 0.0
C21 C 0.11021 0.97875 0.04144 0.0
C22 C 0.09815 0.00963 0.04981 0.0
C23 C 0.06334 0.01409 0.0553 0.0
O24 O 0.03244 0.06094 0.06858 0.0
O25 O 0.01415 0.04367 0.04993 0.0
O26 O 0.04841 0.01354 0.04421 0.0
O27 O 0.067 0.03087 0.06253 0.0
H28 H 0.02672 0.03483 0.09568 0.0
H29 H 0.00784 0.02676 0.12291 0.0
H30 H 0.95964 0.05284 0.09758 0.0
H31 H 0.97872 0.06124 0.07081 0.0
H32 H 0.02313 0.1186 0.00911 0.0
H33 H 0.0314 0.09103 0.02707 0.0
H34 H 0.05886 0.09951 0.96422 0.0
H35 H 0.06733 0.0724 0.98244 0.0
H36 H 0.12743 1.0036 0.04695 0.0
H37 H 0.08853 0.95742 0.03676 0.0
H38 H 0.06232 0.97782 0.04399 0.0
H39 H 0.10108 0.02412 0.05365 0.0
C40 C 0.26243 0.74133 0.1842 0.0
C41 C 0.2754 0.75628 0.18539 0.0
C42 C 0.26134 0.76984 0.15748 0.0
C43 C 0.27485 0.77041 0.17217 0.0
C44 C 0.24823 0.75491 0.15659 0.0
C45 C 0.24879 0.74082 0.16982 0.0
U46 U 0.28548 0.7154 0.22486 0.0
O47 O 0.27233 0.70209 0.24894 0.0
O48 O 0.28832 0.68518 0.22883 0.0
C49 C 0.27759 0.68526 0.24367 0.0
C50 C 0.26306 0.72603 0.19762 0.0
C51 C 0.26304 0.67046 0.24404 0.0
C52 C 0.23233 0.65748 0.235 0.0
C53 C 0.24593 0.67181 0.23414 0.0
C54 C 0.2529 0.64038 0.25552 0.0
C55 C 0.23568 0.64155 0.24568 0.0
C56 C 0.26641 0.65468 0.25469 0.0
C57 C 0.33152 0.73371 0.24786 0.0
C58 C 0.35316 0.71609 0.26718 0.0
C59 C 0.35381 0.7499 0.26894 0.0
C60 C 0.33932 0.75033 0.25553 0.0
C61 C 0.3609 0.73279 0.275 0.0
C62 C 0.33852 0.71653 0.2538 0.0
C63 C 0.3161 0.73476 0.23385 0.0
O64 O 0.27661 0.71397 0.19514 0.0
O65 O 0.26076 0.73088 0.21533 0.0
O66 O 0.29949 0.73869 0.2406 0.0
O67 O 0.31548 0.72165 0.22058 0.0
H68 H 0.28602 0.75694 0.19644 0.0
H69 H 0.28502 0.78178 0.17346 0.0
H70 H 0.23782 0.75381 0.14537 0.0
H71 H 0.23868 0.72936 0.16866 0.0
H72 H 0.21931 0.65875 0.22711 0.0
H73 H 0.24312 0.6839 0.22579 0.0
H74 H 0.25586 0.62851 0.26413 0.0
H75 H 0.27951 0.65344 0.26248 0.0
H76 H 0.35822 0.70269 0.27162 0.0
H77 H 0.35962 0.76303 0.27443 0.0
H78 H 0.33417 0.76372 0.25113 0.0
H79 H 0.33263 0.70349 0.24816 0.0
C80 C 0.96379 0.42412 0.01009 0.0
C81 C 0.97629 0.41109 0.01744 0.0
C82 C 0.97093 0.39046 0.99004 0.0
C83 C 0.97985 0.39439 1.00749 0.0
C84 C 0.95869 0.40381 0.98268 0.0
C85 C 0.95514 0.42041 0.99262 0.0
U86 U 0.97318 0.46011 0.04985 0.0
O87 O 0.97136 0.49074 0.05021 0.0
O88 O 0.95313 0.47439 0.06838 0.0
C89 C 0.95714 0.49092 0.0618 0.0
C90 C 0.95931 0.44147 0.0205 0.0
C91 C 0.94083 0.50197 0.05604 0.0
C92 C 0.91849 0.51174 0.03228 0.0
C93 C 0.93399 0.50114 0.03749 0.0
C94 C 0.91633 0.52395 0.06415 0.0
C95 C 0.90941 0.52326 0.04555 0.0
C96 C 0.9319 0.51341 0.06932 0.0
C97 C 0.01462 0.45271 0.08407 0.0
C98 C 0.03392 0.47502 0.10247 0.0
C99 C 0.03052 0.44312 0.11251 0.0
C100 C 0.01886 0.43896 0.09702 0.0
C101 C 0.03841 0.46114 0.11534 0.0
C102 C 0.02211 0.47085 0.08697 0.0
C103 C 1.0028 0.44749 0.06752 0.0
O104 O 0.9532 0.43934 0.03762 0.0
O105 O 0.97162 0.45524 0.01924 0.0
O106 O 1.00389 0.45835 0.05298 0.0
O107 O 0.98553 0.44197 0.07106 0.0
H108 H 0.98314 0.41375 0.03094 0.0
H109 H 0.98927 0.38442 0.01363 0.0
H110 H 0.9519 0.40149 0.96911 0.0
H111 H 0.94555 0.43036 0.98668 0.0
H112 H 0.91378 0.51105 0.01777 0.0
H113 H 0.94066 0.49234 0.02703 0.0
H114 H 0.90957 0.53241 0.07481 0.0
H115 H 0.93693 0.51414 0.08374 0.0
H116 H 0.03981 0.489 0.10415 0.0
H117 H 0.03326 0.43218 0.12233 0.0
H118 H 0.01317 0.4249 0.0951 0.0
H119 H 0.01902 0.48177 0.07721 0.0
C120 C 0.72103 0.74334 0.18263 0.0
C121 C 0.72758 0.75168 0.1663 0.0
C122 C 0.72969 0.72105 0.15066 0.0
C123 C 0.73183 0.74063 0.15045 0.0
C124 C 0.72345 0.71282 0.16723 0.0
C125 C 0.71914 0.72386 0.18299 0.0
U126 U 0.72629 0.78626 0.21599 0.0
O127 O 0.70456 0.80284 0.23 0.0
O128 O 0.72498 0.7876 0.24686 0.0
C129 C 0.70973 0.79774 0.24685 0.0
C130 C 0.71581 0.75457 0.19934 0.0
C131 C 0.69442 0.79157 0.25906 0.0
C132 C 0.66736 0.77159 0.26541 0.0
C133 C 0.68274 0.77616 0.25418 0.0
C134 C 0.67561 0.79743 0.28668 0.0
C135 C 0.66339 0.78245 0.28157 0.0
C136 C 0.69094 0.80192 0.27553 0.0
C137 C 0.76309 0.82448 0.20657 0.0
C138 C 0.76646 0.85283 0.22587 0.0
C139 C 0.78839 0.84676 0.20085 0.0
C140 C 0.77881 0.82998 0.19632 0.0
C141 C 0.78241 0.85837 0.21577 0.0
C142 C 0.75691 0.83604 0.22133 0.0
C143 C 0.75342 0.80661 0.20178 0.0
O144 O 0.72845 0.75567 0.21296 0.0
O145 O 0.70762 0.77056 0.19622 0.0
O146 O 0.73568 0.80778 0.19659 0.0
O147 O 0.75644 0.79301 0.21343 0.0
H148 H 0.72922 0.76671 0.16573 0.0
H149 H 0.73643 0.74749 0.13793 0.0
H150 H 0.72198 0.6978 0.16808 0.0
H151 H 0.71422 0.71715 0.19549 0.0
H152 H 0.65815 0.76006 0.26103 0.0
H153 H 0.68523 0.76799 0.24149 0.0
H154 H 0.67312 0.80592 0.29916 0.0
H155 H 0.69985 0.8138 0.27957 0.0
H156 H 0.76126 0.86153 0.23725 0.0
H157 H 0.80071 0.85041 0.19292 0.0
H158 H 0.78379 0.8212 0.18489 0.0
H159 H 0.74475 0.83205 0.22936 0.0
C160 C 0.01468 0.96535 0.41887 0.0
C161 C 0.01603 0.98413 0.41379 0.0
C162 C 0.99511 0.9778 0.38691 0.0
C163 C 1.00627 0.99031 0.398 0.0
C164 C 0.99426 0.9589 0.39178 0.0
C165 C 1.00393 0.95275 0.40765 0.0
U166 U 0.05271 0.97127 0.45674 0.0
O167 O 0.05193 0.96746 0.48718 0.0
O168 O 0.07084 0.95051 0.46994 0.0
C169 C 0.06398 0.95373 0.48671 0.0
C170 C 0.02426 0.95882 0.43589 0.0
C171 C 0.05859 0.93722 0.49732 0.0
C172 C 0.03724 0.91132 0.50318 0.0
C173 C 0.04276 0.92628 0.49215 0.0
C174 C 0.06355 0.91792 0.52441 0.0
C175 C 0.04745 0.9071 0.51958 0.0
C176 C 0.06903 0.93285 0.51338 0.0
C177 C 0.08676 0.01249 0.45591 0.0
C178 C 0.11499 0.01368 0.47548 0.0
C179 C 0.10651 0.04045 0.45724 0.0
C180 C 0.09048 0.03079 0.45041 0.0
C181 C 0.1191 0.03187 0.4696 0.0
C182 C 0.09892 1.0041 0.46875 0.0
C183 C 0.07051 1.00205 0.44783 0.0
O184 O 0.04159 0.95316 0.43358 0.0
O185 O 0.02227 0.96937 0.45108 0.0
O186 O 0.05537 1.00196 0.45816 0.0
O187 O 0.07435 0.98554 0.4405 0.0
H188 H 0.02445 0.99404 0.42216 0.0
H189 H 0.00739 1.00491 0.39451 0.0
H190 H 0.98564 0.94895 0.38367 0.0
H191 H 1.00278 0.9382 0.41132 0.0
H192 H 0.02494 0.90312 0.49889 0.0
H193 H 0.03455 0.92947 0.47976 0.0
H194 H 0.0716 0.91523 0.53703 0.0
H195 H 0.08126 0.94122 0.5176 0.0
H196 H 0.12432 1.0068 0.48516 0.0
H197 H 0.10938 0.05437 0.45231 0.0
H198 H 0.0812 0.03747 0.44054 0.0
H199 H 0.09615 0.99001 0.47329 0.0
C200 C 0.2062 0.7624 0.82615 0.0
C201 C 0.22481 0.7625 0.83294 0.0
C202 C 0.21586 0.78142 0.86031 0.0
C203 C 0.22961 0.77195 0.84982 0.0
C204 C 0.19723 0.78123 0.85338 0.0
C205 C 0.19247 0.77182 0.83648 0.0
U206 U 0.21448 0.72604 0.7866 0.0
O207 O 0.19408 0.70683 0.77233 0.0
O208 O 0.20922 0.72784 0.75626 0.0
C209 C 0.19586 0.71494 0.75613 0.0
C210 C 0.20078 0.75254 0.80843 0.0
C211 C 0.17815 0.71966 0.74647 0.0
C212 C 0.15346 0.74156 0.73905 0.0
C213 C 0.17007 0.73733 0.74876 0.0
C214 C 0.15267 0.71041 0.72496 0.0
C215 C 0.14456 0.72814 0.72701 0.0
C216 C 0.1693 0.70625 0.73457 0.0
C217 C 0.25902 0.69576 0.78824 0.0
C218 C 0.26398 0.66548 0.77287 0.0
C219 C 0.29022 0.68239 0.78758 0.0
C220 C 0.27826 0.69693 0.79266 0.0
C221 C 0.28319 0.66628 0.77799 0.0
C222 C 0.25199 0.6801 0.77796 0.0
C223 C 0.24657 0.71053 0.79547 0.0
O224 O 0.21141 0.75587 0.79392 0.0
O225 O 0.19625 0.73479 0.80985 0.0
O226 O 0.23025 0.70494 0.80188 0.0
O227 O 0.24547 0.72569 0.78554 0.0
H228 H 0.23563 0.75529 0.82517 0.0
H229 H 0.24415 0.77199 0.85453 0.0
H230 H 0.18621 0.78808 0.86115 0.0
H231 H 0.17801 0.77183 0.8315 0.0
H232 H 0.14747 0.75526 0.74112 0.0
H233 H 0.17662 0.74785 0.75799 0.0
H234 H 0.14635 0.69983 0.71564 0.0
H235 H 0.17534 0.69254 0.73261 0.0
H236 H 0.25805 0.65325 0.7656 0.0
H237 H 0.30497 0.68365 0.79147 0.0
H238 H 0.28399 0.70893 0.80049 0.0
H239 H 0.23717 0.67893 0.77433 0.0
C240 C 0.9602 0.58322 0.51486 0.0
C241 C 0.97314 0.59516 0.50632 0.0
C242 C 0.97296 0.61624 0.53366 0.0
C243 C 0.97942 0.61155 0.51562 0.0
C244 C 0.9605 0.60388 0.54242 0.0
C245 C 0.95413 0.58752 0.53305 0.0
U246 U 0.96211 0.54914 0.47349 0.0
O247 O 0.95791 0.51858 0.4717 0.0
O248 O 0.93965 0.53683 0.45544 0.0
C249 C 0.94289 0.51975 0.46086 0.0
C250 C 0.95265 0.5666 0.50466 0.0
C251 C 0.92638 0.50839 0.46617 0.0
C252 C 0.89354 0.50521 0.47508 0.0
C253 C 0.9093 0.5165 0.4715 0.0
C254 C 0.91189 0.47763 0.46865 0.0
C255 C 0.89457 0.48562 0.4734 0.0
C256 C 0.92755 0.48889 0.46501 0.0
C257 C 1.00141 0.55608 0.43797 0.0
C258 C 1.00296 0.53897 0.40819 0.0
C259 C 0.02997 0.55707 0.41969 0.0
C260 C 0.01991 0.56248 0.43559 0.0
C261 C 0.02167 0.54513 0.40584 0.0
C262 C 0.99295 0.54434 0.42414 0.0
C263 C 0.99136 0.56145 0.45512 0.0
O264 O 0.94487 0.56986 0.48826 0.0
O265 O 0.96373 0.55207 0.5043 0.0
O266 O 0.99265 0.54967 0.46888 0.0
O267 O 0.97427 0.56778 0.45268 0.0
H268 H 0.9781 0.59195 0.49233 0.0
H269 H 0.98918 0.62068 0.5086 0.0
H270 H 0.95513 0.60719 0.55623 0.0
H271 H 0.94418 0.57842 0.53985 0.0
H272 H 0.88044 0.51184 0.47863 0.0
H273 H 0.90802 0.53154 0.47257 0.0
H274 H 0.91336 0.46261 0.46764 0.0
H275 H 0.94058 0.48232 0.461 0.0
H276 H 0.99601 0.52998 0.3977 0.0
H277 H 0.0444 0.56186 0.41852 0.0
H278 H 0.02669 0.57149 0.44619 0.0
H279 H 0.97866 0.53924 0.42575 0.0
C280 C 0.79952 0.79397 0.86031 0.0
C281 C 0.81506 0.78221 0.86147 0.0
C282 C 0.79981 0.76468 0.88602 0.0
C283 C 0.81523 0.76773 0.87424 0.0
C284 C 0.78444 0.77679 0.88502 0.0
C285 C 0.78431 0.7913 0.87225 0.0
U286 U 0.81896 0.81638 0.81681 0.0
O287 O 0.80432 0.82645 0.79177 0.0
O288 O 0.82144 0.84594 0.80931 0.0
C289 C 0.80943 0.84393 0.7952 0.0
C290 C 0.7987 0.80845 0.84612 0.0
C291 C 0.79403 0.85737 0.79492 0.0
C292 C 0.76461 0.86888 0.80723 0.0
C293 C 0.77969 0.85661 0.80818 0.0
C294 C 0.77823 0.883 0.77996 0.0
C295 C 0.7636 0.88211 0.793 0.0
C296 C 0.7933 0.87071 0.78091 0.0
C297 C 0.86198 0.7958 0.79336 0.0
C298 C 0.87313 0.80753 0.76383 0.0
C299 C 0.88826 0.78105 0.77778 0.0
C300 C 0.87588 0.78214 0.79283 0.0
C301 C 0.88686 0.79359 0.76297 0.0
C302 C 0.86079 0.80862 0.77888 0.0
C303 C 0.8483 0.79606 0.80859 0.0
O304 O 0.81261 0.82077 0.8467 0.0
O305 O 0.79457 0.80224 0.82904 0.0
O306 O 0.83102 0.79139 0.80345 0.0
O307 O 0.84918 0.81078 0.82 0.0
H308 H 0.82693 0.78407 0.85231 0.0
H309 H 0.8274 0.75884 0.87481 0.0
H310 H 0.77224 0.77471 0.89368 0.0
H311 H 0.77215 0.8002 0.87145 0.0
H312 H 0.75372 0.86798 0.81764 0.0
H313 H 0.78008 0.8464 0.81912 0.0
H314 H 0.77779 0.89286 0.76871 0.0
H315 H 0.80424 0.87142 0.77053 0.0
H316 H 0.87184 0.81756 0.7528 0.0
H317 H 0.89852 0.77003 0.77747 0.0
H318 H 0.87693 0.7721 0.80388 0.0
H319 H 0.85013 0.81928 0.7791 0.0
C320 C 0.29517 0.29128 0.36056 0.0
C321 C 0.30822 0.27681 0.35988 0.0
C322 C 0.29247 0.26157 0.38562 0.0
C323 C 0.30689 0.26209 0.3723 0.0
C324 C 0.27968 0.27636 0.38648 0.0
C325 C 0.28102 0.29107 0.37402 0.0
U326 U 0.31766 0.3149 0.31896 0.0
O327 O 0.3046 0.32665 0.29391 0.0
O328 O 0.32121 0.34486 0.31327 0.0
C329 C 0.30969 0.34387 0.29869 0.0
C330 C 0.29581 0.30628 0.34692 0.0
C331 C 0.29453 0.35766 0.29861 0.0
C332 C 0.26183 0.36575 0.30321 0.0
C333 C 0.27622 0.3527 0.30386 0.0
C334 C 0.28394 0.38909 0.29257 0.0
C335 C 0.26547 0.38413 0.29754 0.0
C336 C 0.2983 0.37595 0.29306 0.0
C337 C 0.36095 0.2945 0.29604 0.0
C338 C 0.37391 0.30836 0.26825 0.0
C339 C 0.38641 0.27935 0.27948 0.0
C340 C 0.37372 0.27986 0.2943 0.0
C341 C 0.38646 0.29346 0.26611 0.0
C342 C 0.36124 0.30885 0.28305 0.0
C343 C 0.34676 0.29422 0.3108 0.0
O344 O 0.31019 0.31797 0.34872 0.0
O345 O 0.29233 0.30092 0.32944 0.0
O346 O 0.32957 0.29022 0.30484 0.0
O347 O 0.34757 0.3083 0.32301 0.0
H348 H 0.31928 0.2768 0.34959 0.0
H349 H 0.31712 0.25106 0.37143 0.0
H350 H 0.26831 0.27629 0.39641 0.0
H351 H 0.2708 0.30213 0.37468 0.0
H352 H 0.24777 0.36127 0.30683 0.0
H353 H 0.27298 0.33867 0.30827 0.0
H354 H 0.28735 0.40315 0.2884 0.0
H355 H 0.31238 0.38007 0.28907 0.0
H356 H 0.37375 0.31959 0.25838 0.0
H357 H 0.39573 0.26758 0.27815 0.0
H358 H 0.3736 0.26862 0.30418 0.0
H359 H 0.35146 0.32027 0.2842 0.0
C360 C 0.46519 0.92737 0.51002 0.0
C361 C 0.47738 0.91398 0.51725 0.0
C362 C 0.47578 0.89637 0.48753 0.0
C363 C 0.48255 0.89851 0.50611 0.0
C364 C 0.46329 0.90967 0.48057 0.0
C365 C 0.45806 0.925 0.49171 0.0
U366 U 0.47405 0.96295 0.55032 0.0
O367 O 0.47234 0.99358 0.55065 0.0
O368 O 0.45404 0.97731 0.56884 0.0
C369 C 0.45821 0.99387 0.56233 0.0
C370 C 0.46021 0.94423 0.521 0.0
C371 C 0.44241 1.00608 0.5572 0.0
C372 C 0.40894 0.01254 0.5545 0.0
C373 C 0.42351 1.00039 0.55897 0.0
C374 C 0.43188 0.03625 0.54656 0.0
C375 C 0.41299 0.03056 0.54811 0.0
C376 C 0.4464 0.02419 0.55113 0.0
C377 C 0.51531 0.95886 0.58393 0.0
C378 C 0.5178 0.97898 0.61181 0.0
C379 C 0.54304 0.95788 0.60411 0.0
C380 C 0.53304 0.95162 0.58805 0.0
C381 C 0.53537 0.9714 0.61633 0.0
C382 C 0.50788 0.97281 0.59571 0.0
C383 C 0.50444 0.95159 0.56758 0.0
O384 O 0.45458 0.94157 0.53822 0.0
O385 O 0.47195 0.95848 0.51972 0.0
O386 O 0.50492 0.96208 0.55276 0.0
O387 O 0.48745 0.94534 0.57128 0.0
H388 H 0.48311 0.91564 0.53136 0.0
H389 H 0.49229 0.88857 0.5118 0.0
H390 H 0.45765 0.90829 0.4664 0.0
H391 H 0.44861 0.93516 0.48592 0.0
H392 H 0.39452 0.00771 0.5557 0.0
H393 H 0.41994 0.98658 0.56376 0.0
H394 H 0.43547 0.05013 0.54194 0.0
H395 H 0.46082 0.02907 0.54996 0.0
H396 H 0.51163 0.98956 0.62083 0.0
H397 H 0.55645 0.95164 0.60732 0.0
H398 H 0.53899 0.94089 0.57905 0.0
H399 H 0.49427 0.97868 0.59261 0.0
C400 C 0.21956 0.2506 0.68198 0.0
C401 C 0.23299 0.25824 0.67004 0.0
C402 C 0.2314 0.2301 0.64996 0.0
C403 C 0.23884 0.2481 0.65417 0.0
C404 C 0.21803 0.22252 0.66211 0.0
C405 C 0.21218 0.23269 0.67794 0.0
U406 U 0.22311 0.29238 0.7164 0.0
O407 O 0.20088 0.30948 0.72898 0.0
O408 O 0.21967 0.29359 0.74705 0.0
C409 C 0.20483 0.30426 0.7461 0.0
C410 C 0.21306 0.26113 0.69861 0.0
C411 C 0.18859 0.29885 0.7575 0.0
C412 C 0.16404 0.27683 0.76634 0.0
C413 C 0.17987 0.28116 0.75563 0.0
C414 C 0.16571 0.30774 0.78093 0.0
C415 C 0.15662 0.2902 0.77893 0.0
C416 C 0.1815 0.31199 0.77033 0.0
C417 C 0.26134 0.32993 0.70942 0.0
C418 C 0.26213 0.36031 0.72547 0.0
C419 C 0.28894 0.35024 0.7075 0.0
C420 C 0.27949 0.33344 0.7028 0.0
C421 C 0.28041 0.36392 0.71892 0.0
C422 C 0.25272 0.34347 0.72082 0.0
C423 C 0.25161 0.31221 0.70415 0.0
O424 O 0.22473 0.26179 0.71308 0.0
O425 O 0.20539 0.27733 0.69529 0.0
O426 O 0.23429 0.31368 0.69772 0.0
O427 O 0.25355 0.29858 0.71598 0.0
H428 H 0.23884 0.27209 0.67295 0.0
H429 H 0.24899 0.25448 0.64504 0.0
H430 H 0.21221 0.20862 0.65953 0.0
H431 H 0.20186 0.22653 0.68706 0.0
H432 H 0.15729 0.26325 0.76438 0.0
H433 H 0.18515 0.27083 0.74575 0.0
H434 H 0.16059 0.31825 0.79069 0.0
H435 H 0.18808 0.32569 0.77204 0.0
H436 H 0.25497 0.37058 0.73407 0.0
H437 H 0.30307 0.35235 0.70242 0.0
H438 H 0.28639 0.32312 0.69402 0.0
H439 H 0.23869 0.34104 0.72605 0.0
C440 C 0.76606 0.24467 0.68163 0.0
C441 C 0.75006 0.25568 0.67945 0.0
C442 C 0.76535 0.27344 0.65505 0.0
C443 C 0.7497 0.26992 0.66637 0.0
C444 C 0.78149 0.26251 0.65749 0.0
C445 C 0.78187 0.24834 0.67065 0.0
U446 U 0.78684 0.21498 0.72119 0.0
O447 O 0.77252 0.2021 0.74493 0.0
O448 O 0.78672 0.1845 0.72404 0.0
C449 C 0.77581 0.185 0.73878 0.0
C450 C 0.76555 0.22896 0.69474 0.0
C451 C 0.7599 0.17132 0.73892 0.0
C452 C 0.74581 0.14152 0.72845 0.0
C453 C 0.75957 0.15552 0.72677 0.0
C454 C 0.7321 0.15891 0.75423 0.0
C455 C 0.73207 0.14289 0.74239 0.0
C456 C 0.7459 0.1729 0.75258 0.0
C457 C 0.83492 0.22734 0.74373 0.0
C458 C 0.84627 0.21786 0.77436 0.0
C459 C 0.86819 0.23 0.75189 0.0
C460 C 0.8534 0.23216 0.73902 0.0
C461 C 0.8648 0.22303 0.76982 0.0
C462 C 0.83148 0.21992 0.76142 0.0
C463 C 0.81948 0.23067 0.73021 0.0
O464 O 0.77747 0.21539 0.6917 0.0
O465 O 0.7639 0.23348 0.71262 0.0
O466 O 0.80346 0.23607 0.73741 0.0
O467 O 0.8173 0.21815 0.71651 0.0
H468 H 0.7377 0.25312 0.68777 0.0
H469 H 0.73714 0.27818 0.66516 0.0
H470 H 0.79373 0.26455 0.64888 0.0
H471 H 0.79443 0.24009 0.672 0.0
H472 H 0.74607 0.12949 0.71894 0.0
H473 H 0.77022 0.15369 0.7162 0.0
H474 H 0.72189 0.16032 0.76527 0.0
H475 H 0.74592 0.1847 0.76239 0.0
H476 H 0.84319 0.21226 0.78796 0.0
H477 H 0.88222 0.23434 0.74798 0.0
H478 H 0.85636 0.23791 0.72545 0.0
H479 H 0.81734 0.21593 0.76531 0.0
C480 C 0.50501 0.55664 0.58081 0.0
C481 C 0.5044 0.53868 0.58828 0.0
C482 C 0.48121 0.54882 0.61128 0.0
C483 C 0.49263 0.53481 0.6034 0.0
C484 C 0.48232 0.56687 0.60398 0.0
C485 C 0.49405 0.5707 0.58894 0.0
U486 U 0.5459 0.54923 0.5459 0.0
O487 O 0.54524 0.55145 0.5151 0.0
O488 O 0.56318 0.57055 0.53225 0.0
C489 C 0.55651 0.56617 0.51539 0.0
C490 C 0.51622 0.56105 0.56414 0.0
C491 C 0.55074 0.58183 0.50354 0.0
C492 C 0.53741 0.61266 0.49938 0.0
C493 C 0.54202 0.59781 0.511 0.0
C494 C 0.54994 0.59566 0.47272 0.0
C495 C 0.54133 0.6118 0.48005 0.0
C496 C 0.55458 0.58091 0.48432 0.0
C497 C 0.58101 0.50885 0.5535 0.0
C498 C 0.60426 0.49701 0.53157 0.0
C499 C 0.60292 0.48495 0.56292 0.0
C500 C 0.58807 0.49688 0.56705 0.0
C501 C 0.61111 0.48466 0.54507 0.0
C502 C 0.5893 0.50897 0.53574 0.0
C503 C 0.56463 0.52044 0.55822 0.0
O504 O 0.53329 0.56779 0.56732 0.0
O505 O 0.5153 0.54886 0.55003 0.0
O506 O 0.54998 0.51886 0.5468 0.0
O507 O 0.56824 0.53777 0.56383 0.0
H508 H 0.51276 0.52759 0.58223 0.0
H509 H 0.49208 0.52073 0.60858 0.0
H510 H 0.47407 0.57811 0.60987 0.0
H511 H 0.49437 0.58467 0.58346 0.0
H512 H 0.53061 0.62475 0.5055 0.0
H513 H 0.53885 0.59884 0.5258 0.0
H514 H 0.55347 0.59455 0.45801 0.0
H515 H 0.56139 0.56877 0.47827 0.0
H516 H 0.61013 0.49711 0.51765 0.0
H517 H 0.60801 0.47594 0.57379 0.0
H518 H 0.58193 0.49662 0.58086 0.0
H519 H 0.58405 0.51811 0.52506 0.0
C520 C 0.51604 0.46442 0.92153 0.0
C521 C 0.51691 0.48303 0.91585 0.0
C522 C 0.49562 0.47555 0.88955 0.0
C523 C 0.50673 0.48856 0.90007 0.0
C524 C 0.49528 0.45679 0.89495 0.0
C525 C 0.50536 0.4513 0.91084 0.0
U526 U 0.55502 0.47218 0.95799 0.0
O527 O 0.55502 0.47039 0.9887 0.0
O528 O 0.57335 0.45221 0.9721 0.0
C529 C 0.56674 0.45637 0.98879 0.0
C530 C 0.526 0.45865 0.93864 0.0
C531 C 0.56085 0.44044 1.0 0.0
C532 C 0.53857 0.41555 1.00664 0.0
C533 C 0.54456 0.43002 0.99524 0.0
C534 C 0.56532 0.42152 0.02747 0.0
C535 C 0.54876 0.41126 0.02302 0.0
C536 C 0.57128 0.436 0.01606 0.0
C537 C 0.58858 0.5142 0.95177 0.0
C538 C 0.60647 0.53306 0.97488 0.0
C539 C 0.61652 0.53135 0.9426 0.0
C540 C 0.60137 0.51941 0.93803 0.0
C541 C 0.61917 0.53852 0.96102 0.0
C542 C 0.59131 0.52098 0.9703 0.0
C543 C 0.57239 0.50211 0.94614 0.0
O544 O 0.54323 0.45277 0.93622 0.0
O545 O 0.52445 0.46998 0.95333 0.0
O546 O 0.55757 0.50275 0.95694 0.0
O547 O 0.57646 0.4851 0.94032 0.0
H548 H 0.52527 0.49335 0.92378 0.0
H549 H 0.50746 0.50306 0.89615 0.0
H550 H 0.48673 0.44647 0.88725 0.0
H551 H 0.50458 0.43685 0.91497 0.0
H552 H 0.52592 0.40775 1.00264 0.0
H553 H 0.53637 0.43323 0.98284 0.0
H554 H 0.57339 0.41872 0.04005 0.0
H555 H 0.58388 0.44396 0.01996 0.0
H556 H 0.60801 0.53837 0.98918 0.0
H557 H 0.62624 0.53485 0.93164 0.0
H558 H 0.59958 0.51428 0.92368 0.0
H559 H 0.58166 0.51711 0.9812 0.0
C560 C 0.70229 0.2616 0.32494 0.0
C561 C 0.71953 0.25878 0.33413 0.0
C562 C 0.71068 0.28026 0.35957 0.0
C563 C 0.72371 0.26804 0.35126 0.0
C564 C 0.69346 0.2831 0.35017 0.0
C565 C 0.68933 0.27385 0.33303 0.0
U566 U 0.71141 0.22425 0.28668 0.0
O567 O 0.69123 0.20507 0.27211 0.0
O568 O 0.70744 0.22533 0.25609 0.0
C569 C 0.69381 0.21271 0.25577 0.0
C570 C 0.69741 0.25164 0.30715 0.0
C571 C 0.67655 0.21765 0.24548 0.0
C572 C 0.65137 0.23922 0.23875 0.0
C573 C 0.66774 0.23482 0.24877 0.0
C574 C 0.65235 0.20926 0.22225 0.0
C575 C 0.64345 0.22646 0.22538 0.0
C576 C 0.66874 0.20493 0.23219 0.0
C577 C 0.75485 0.19284 0.29172 0.0
C578 C 0.76129 0.1652 0.27238 0.0
C579 C 0.78257 0.17446 0.29788 0.0
C580 C 0.77136 0.18982 0.30206 0.0
C581 C 0.77751 0.16173 0.28324 0.0
C582 C 0.74999 0.18062 0.27664 0.0
C583 C 0.74258 0.20824 0.29767 0.0
O584 O 0.70891 0.25434 0.29317 0.0
O585 O 0.69226 0.23406 0.30868 0.0
O586 O 0.7258 0.20327 0.3034 0.0
O587 O 0.74237 0.22294 0.28702 0.0
H588 H 0.72973 0.24937 0.32808 0.0
H589 H 0.73722 0.26571 0.35792 0.0
H590 H 0.68299 0.29218 0.35621 0.0
H591 H 0.6759 0.27613 0.32617 0.0
H592 H 0.64476 0.25248 0.24166 0.0
H593 H 0.6735 0.24478 0.25908 0.0
H594 H 0.64679 0.19922 0.21191 0.0
H595 H 0.67535 0.19162 0.22946 0.0
H596 H 0.75695 0.1556 0.2611 0.0
H597 H 0.7951 0.17236 0.30634 0.0
H598 H 0.77538 0.19914 0.31369 0.0
H599 H 0.73727 0.18274 0.2685 0.0
C600 C 0.45516 0.08704 0.01558 0.0
C601 C 0.47395 0.09342 0.01628 0.0
C602 C 0.46481 0.12098 0.03449 0.0
C603 C 0.47876 0.11023 0.02579 0.0
C604 C 0.4461 0.11431 0.03398 0.0
C605 C 0.44135 0.0975 0.02464 0.0
U606 U 0.46104 0.05133 0.97525 0.0
O607 O 0.45693 0.02083 0.97447 0.0
O608 O 0.43918 0.03823 0.95681 0.0
C609 C 0.44209 0.0215 0.96329 0.0
C610 C 0.44942 0.06997 1.00494 0.0
C611 C 0.42516 0.01133 0.96943 0.0
C612 C 0.40486 1.00028 0.99409 0.0
C613 C 0.42058 0.01059 0.98849 0.0
C614 C 0.39764 0.99194 0.96163 0.0
C615 C 0.3933 0.99069 0.98074 0.0
C616 C 0.41346 1.00212 0.95605 0.0
C617 C 0.50187 0.05676 0.9412 0.0
C618 C 0.51287 0.03224 0.9201 0.0
C619 C 0.5229 0.06429 0.9158 0.0
C620 C 0.51227 0.06991 0.93126 0.0
C621 C 0.52336 0.04536 0.91002 0.0
C622 C 0.50217 0.03789 0.93547 0.0
C623 C 0.49102 0.06294 0.9576 0.0
O624 O 0.44289 0.07266 0.98792 0.0
O625 O 0.46084 0.05574 1.00589 0.0
O626 O 0.49172 0.05204 0.97215 0.0
O627 O 0.47402 0.06898 0.95398 0.0
H628 H 0.48481 0.08557 0.00924 0.0
H629 H 0.49325 0.1151 0.02583 0.0
H630 H 0.43509 0.12217 0.04075 0.0
H631 H 0.4268 0.09279 0.02426 0.0
H632 H 0.40177 0.99977 0.0089 0.0
H633 H 0.42926 0.0178 0.99906 0.0
H634 H 0.38914 0.98457 0.95102 0.0
H635 H 0.41671 1.00259 0.94127 0.0
H636 H 0.5131 0.01751 0.91629 0.0
H637 H 0.53055 0.07482 0.90825 0.0
H638 H 0.51215 0.08456 0.93545 0.0
H639 H 0.49423 0.0275 0.94296 0.0
Zn640 Zn 0.28497 0.85615 0.00957 0.0
Zn641 Zn 0.25504 0.8766 0.01322 0.0
O642 O 0.25628 0.86164 0.03842 0.0
O643 O 0.28222 0.84559 0.03488 0.0
O644 O 0.23238 0.89374 0.01631 0.0
O645 O 0.30207 0.87816 1.00693 0.0
O646 O 0.27719 0.89591 0.00958 0.0
C647 C 0.26831 0.85015 0.04473 0.0
C648 C 0.25772 0.84714 0.9808 0.0
O649 O 0.24857 0.86007 0.98916 0.0
O650 O 0.27378 0.84272 0.98698 0.0
C651 C 0.21707 0.88869 0.02387 0.0
O652 O 0.21545 0.87155 0.02986 0.0
C653 C 0.29491 0.89421 1.00746 0.0
Zn654 Zn 0.11249 0.46668 0.27505 0.0
Zn655 Zn 0.13055 0.49849 0.26928 0.0
O656 O 0.11255 0.50589 0.29099 0.0
O657 O 0.09645 0.47968 0.29408 0.0
O658 O 0.14647 0.52164 0.26488 0.0
O659 O 0.13586 0.45389 0.28346 0.0
O660 O 0.15129 0.47943 0.27603 0.0
C661 C 0.09954 0.4966 0.2989 0.0
C662 C 0.10774 0.47891 0.23736 0.0
O663 O 0.11697 0.4932 0.24368 0.0
O664 O 0.1046 0.46527 0.24786 0.0
C665 C 0.14051 0.53813 0.26282 0.0
O666 O 0.12237 0.5412 0.26365 0.0
C667 C 0.15125 0.4627 0.28177 0.0
Zn668 Zn 0.77848 0.61227 0.96792 0.0
Zn669 Zn 0.77276 0.63057 1.00005 0.0
O670 O 0.79441 0.61254 1.00687 0.0
O671 O 0.7972 0.59594 0.98066 0.0
O672 O 0.76842 0.64565 0.02413 0.0
O673 O 0.78691 0.63566 0.95549 0.0
O674 O 0.77974 0.65131 0.98129 0.0
C675 C 0.80206 0.59927 0.99758 0.0
C676 C 0.74065 0.60804 0.98002 0.0
O677 O 0.74699 0.61728 0.99436 0.0
O678 O 0.75125 0.60461 0.9663 0.0
C679 C 0.75718 0.64034 0.03672 0.0
O680 O 0.74825 0.62424 0.03442 0.0
C681 C 0.78537 0.65107 0.96437 0.0
Zn682 Zn 0.85842 1.00643 0.28471 0.0
Zn683 Zn 0.87575 0.01211 0.25386 0.0
O684 O 0.85918 0.03625 0.25774 0.0
O685 O 0.84377 0.02969 0.2833 0.0
O686 O 0.8904 0.01738 0.22998 0.0
O687 O 0.88182 1.00687 0.30031 0.0
O688 O 0.89739 0.00899 0.27399 0.0
C689 C 0.84716 0.04075 0.27021 0.0
C690 C 0.85021 0.97709 0.25809 0.0
O691 O 0.86043 0.98723 0.24765 0.0
O692 O 0.84751 0.98221 0.27493 0.0
C693 C 0.90347 1.00668 0.22441 0.0
O694 O 0.90715 0.99171 0.23399 0.0
C695 C 0.89726 0.00761 0.29182 0.0
Zn696 Zn 0.27743 0.11085 0.47358 0.0
Zn697 Zn 0.26937 0.13026 0.50428 0.0
O698 O 0.29344 0.11576 0.51209 0.0
O699 O 0.30115 0.1019 0.48542 0.0
O700 O 0.26242 0.14521 0.52769 0.0
O701 O 0.27817 0.13405 0.45855 0.0
O702 O 0.27353 0.1507 0.48439 0.0
C703 C 0.30459 0.10552 0.50259 0.0
C704 C 0.24184 0.10013 0.48773 0.0
O705 O 0.24562 0.11346 0.49946 0.0
O706 O 0.25362 0.09567 0.47533 0.0
C707 C 0.27385 0.15644 0.53624 0.0
O708 O 0.29099 0.15839 0.52986 0.0
C709 C 0.27655 0.1498 0.46678 0.0
Zn710 Zn 0.35962 0.51156 0.78522 0.0
Zn711 Zn 0.3796 0.51444 0.75489 0.0
O712 O 0.3654 0.54016 0.75707 0.0
O713 O 0.3493 0.53702 0.783 0.0
O714 O 0.39648 0.51711 0.73198 0.0
O715 O 0.3821 0.5086 0.80174 0.0
O716 O 0.39942 0.50993 0.77645 0.0
C717 C 0.35412 0.54677 0.7693 0.0
C718 C 0.34969 0.48284 0.75812 0.0
O719 O 0.36231 0.491 0.74855 0.0
O720 O 0.34588 0.48912 0.77435 0.0
C721 C 0.39183 0.52606 0.71747 0.0
O722 O 0.37517 0.53373 0.71676 0.0
C723 C 0.39805 0.50821 0.79418 0.0
Zn724 Zn 0.77966 0.35632 0.50565 0.0
Zn725 Zn 0.75164 0.37861 0.51029 0.0
O726 O 0.7536 0.36439 0.5358 0.0
O727 O 0.7798 0.34876 0.53238 0.0
O728 O 0.7299 0.39676 0.51412 0.0
O729 O 0.79673 0.37684 0.4976 0.0
O730 O 0.77438 0.39662 0.50466 0.0
C731 C 0.76611 0.35362 0.54241 0.0
C732 C 0.75014 0.34691 0.47982 0.0
O733 O 0.74307 0.3617 0.48707 0.0
O734 O 0.76556 0.34095 0.48616 0.0
C735 C 0.71459 0.392 0.52186 0.0
O736 O 0.71259 0.37478 0.52751 0.0
C737 C 0.79109 0.39346 0.49914 0.0
Zn738 Zn 0.60936 0.96789 0.77601 0.0
Zn739 Zn 0.62952 0.99857 0.771 0.0
O740 O 0.61298 1.00587 0.79403 0.0
O741 O 0.597 0.97977 0.79814 0.0
O742 O 0.64616 0.02133 0.76685 0.0
O743 O 0.63239 0.95243 0.77931 0.0
O744 O 0.64931 0.97799 0.77566 0.0
C745 C 0.6007 0.99656 0.80297 0.0
C746 C 0.60184 0.98348 0.74033 0.0
O747 O 0.61441 0.99537 0.74586 0.0
O748 O 0.59708 0.97027 0.75079 0.0
C749 C 0.64012 0.0379 0.76569 0.0
O750 O 0.62204 0.04088 0.76748 0.0
C751 C 0.6483 0.9605 0.7786 0.0
Zn752 Zn 0.99913 0.27912 0.85898 0.0
Zn753 Zn 0.0105 0.25084 0.8787 0.0
O754 O 0.03406 0.25683 0.86223 0.0
O755 O 0.02425 0.28116 0.84682 0.0
O756 O 0.01849 0.2287 0.89447 0.0
O757 O 0.99338 0.29424 0.88196 0.0
O758 O 1.00445 0.27158 0.89907 0.0
C759 C 0.03706 0.26964 0.85041 0.0
C760 C 0.9758 0.24766 0.85147 0.0
O761 O 0.98684 0.2404 0.86347 0.0
O762 O 0.9782 0.26439 0.84674 0.0
C763 C 1.00693 0.2213 0.90568 0.0
O764 O 0.98991 0.22809 0.9068 0.0
C765 C 0.9973 0.28779 0.89785 0.0
Zn766 Zn 0.50487 0.78178 0.35689 0.0
Zn767 Zn 0.51206 0.75442 0.37781 0.0
O768 O 0.53641 0.75679 0.36113 0.0
O769 O 0.52806 0.77897 0.34211 0.0
O770 O 0.5176 0.73277 0.39531 0.0
O771 O 0.50502 0.80047 0.3778 0.0
O772 O 0.50855 0.77715 0.39691 0.0
C773 C 0.54012 0.76738 0.34742 0.0
C774 C 0.47609 0.75489 0.35244 0.0
O775 O 0.48701 0.746 0.36336 0.0
O776 O 0.48038 0.77126 0.34773 0.0
C777 C 0.51508 0.71567 0.39042 0.0
O778 O 0.50897 0.71158 0.37331 0.0
C779 C 0.50637 0.7946 0.39431 0.0
Zn780 Zn 0.97037 0.77649 0.60744 0.0
Zn781 Zn 1.00184 0.77131 0.62652 0.0
O782 O 0.00809 0.79449 0.61032 0.0
O783 O 0.98096 0.79956 0.59624 0.0
O784 O 0.02578 0.76726 0.64169 0.0
O785 O 0.95553 0.77845 0.63103 0.0
O786 O 0.98185 0.77561 0.64722 0.0
C787 C 0.998 0.80413 0.59932 0.0
C788 C 0.98643 0.7412 0.59837 0.0
O789 O 0.99834 0.74642 0.61107 0.0
O790 O 0.97316 0.75185 0.59385 0.0
C791 C 0.0269 0.75301 0.65193 0.0
O792 O 0.01252 0.7413 0.65229 0.0
C793 C 0.96409 0.77796 0.64668 0.0
Zn794 Zn 0.46918 0.28235 0.11006 0.0
Zn795 Zn 0.50033 0.27431 0.12781 0.0
O796 O 0.50759 0.29792 0.11256 0.0
O797 O 0.48071 0.30502 0.09907 0.0
O798 O 0.52435 0.26865 0.14223 0.0
O799 O 0.45484 0.28467 0.13379 0.0
O800 O 0.48092 0.27855 0.14923 0.0
C801 C 0.49799 0.30852 0.10205 0.0
C802 C 0.48239 0.24631 0.099 0.0
O803 O 0.49526 0.2503 0.11118 0.0
O804 O 0.46961 0.25796 0.09579 0.0
C805 C 0.5258 0.25356 0.15113 0.0
O806 O 0.5116 0.2416 0.15066 0.0
C807 C 0.46345 0.28244 0.14919 0.0
H808 H 0.20248 0.81478 0.8747 0.0
H809 H 0.27083 0.81513 0.96471 0.0
H810 H 0.24071 0.77048 0.88759 0.0
H811 H 0.22751 0.85608 0.9579 0.0
H812 H 0.25992 0.79917 0.93607 0.0
H813 H 0.21125 0.83049 0.90455 0.0
C814 C 0.21262 0.80826 0.88381 0.0
C815 C 0.22092 0.79124 0.87847 0.0
C816 C 0.25269 0.8116 0.94079 0.0
C817 C 0.23116 0.80936 0.91263 0.0
C818 C 0.25895 0.82079 0.9572 0.0
C819 C 0.25014 0.83708 0.96376 0.0
C820 C 0.23751 0.8187 0.93058 0.0
C821 C 0.23472 0.84358 0.95339 0.0
C822 C 0.21767 0.81731 0.90083 0.0
C823 C 0.23417 0.7837 0.89082 0.0
N824 N 0.22896 0.83443 0.93723 0.0
N825 N 0.23888 0.7928 0.90722 0.0
H826 H 0.0213 0.51028 0.38908 0.0
H827 H 0.10164 0.53232 0.31472 0.0
H828 H 0.04745 0.5648 0.38517 0.0
H829 H 0.07094 0.48001 0.31757 0.0
H830 H 0.0824 0.54492 0.34036 0.0
H831 H 0.03971 0.49937 0.36264 0.0
C832 C 0.03077 0.52005 0.38255 0.0
C833 C 0.0327 0.53854 0.38938 0.0
C834 C 0.0799 0.5307 0.33528 0.0
C835 C 0.05426 0.52595 0.35909 0.0
C836 C 0.09087 0.52351 0.32066 0.0
C837 C 0.08798 0.50505 0.31398 0.0
C838 C 0.06601 0.51932 0.34324 0.0
C839 C 0.07379 0.49429 0.32222 0.0
C840 C 0.04142 0.51375 0.36748 0.0
C841 C 0.04561 0.55038 0.38053 0.0
N842 N 0.06344 0.50156 0.33637 0.0
N843 N 0.05592 0.54388 0.36586 0.0
H844 H 0.81193 0.72921 0.87852 0.0
H845 H 0.77821 0.68735 0.97583 0.0
H846 H 0.78649 0.76288 0.92207 0.0
H847 H 0.80155 0.6548 0.93023 0.0
H848 H 0.78302 0.71567 0.9577 0.0
H849 H 0.81021 0.70233 0.89862 0.0
C850 C 0.80617 0.73103 0.89241 0.0
C851 C 0.79938 0.7484 0.89858 0.0
C852 C 0.78716 0.70231 0.95175 0.0
C853 C 0.79704 0.71741 0.9217 0.0
C854 C 0.78448 0.68616 0.96211 0.0
C855 C 0.78938 0.66864 0.95452 0.0
C856 C 0.79485 0.7009 0.93372 0.0
C857 C 0.79742 0.66795 0.93665 0.0
C858 C 0.80506 0.7156 0.90387 0.0
C859 C 0.7917 0.74972 0.91662 0.0
N860 N 0.79983 0.68378 0.92688 0.0
N861 N 0.7907 0.73443 0.92753 0.0
H862 H 0.97416 0.00947 0.38598 0.0
H863 H 0.93009 0.98949 0.28316 0.0
H864 H 0.98941 0.96165 0.35174 0.0
H865 H 0.90389 0.02275 0.32644 0.0
H866 H 0.95658 0.98394 0.30494 0.0
H867 H 0.95312 0.01932 0.3609 0.0
C868 C 0.9733 1.00117 0.37307 0.0
C869 C 0.9835 0.98463 0.37103 0.0
C870 C 0.94512 0.99265 0.30951 0.0
C871 C 0.95925 0.99579 0.34223 0.0
C872 C 0.93013 0.99593 0.29707 0.0
C873 C 0.91478 1.00649 0.3031 0.0
C874 C 0.94481 1.0003 0.32787 0.0
C875 C 0.91539 0.0144 0.3213 0.0
C876 C 0.96119 1.00674 0.35879 0.0
C877 C 0.98161 0.97435 0.35401 0.0
N878 N 0.93009 0.01112 0.33303 0.0
N879 N 0.96966 0.98005 0.34028 0.0
H880 H 0.20983 0.20766 0.626 0.0
H881 H 0.29502 0.18068 0.55857 0.0
H882 H 0.26683 0.22781 0.63504 0.0
H883 H 0.23899 0.15715 0.55228 0.0
H884 H 0.28481 0.19868 0.58608 0.0
H885 H 0.22011 0.18966 0.59858 0.0
C886 C 0.22454 0.20824 0.62232 0.0
C887 C 0.23747 0.21928 0.63298 0.0
C888 C 0.27474 0.18957 0.5787 0.0
C889 C 0.24933 0.19879 0.60129 0.0
C890 C 0.28057 0.17928 0.56296 0.0
C891 C 0.26786 0.16735 0.55306 0.0
C892 C 0.25604 0.18801 0.58461 0.0
C893 C 0.2493 0.16614 0.55946 0.0
C894 C 0.23038 0.19802 0.60656 0.0
C895 C 0.25628 0.21971 0.62719 0.0
N896 N 0.24396 0.17634 0.57479 0.0
N897 N 0.26163 0.20962 0.61179 0.0
H898 H 0.44526 0.56144 0.61563 0.0
H899 H 0.42757 0.5121 0.71375 0.0
H900 H 0.48639 0.52668 0.64209 0.0
H901 H 0.38657 0.54541 0.68522 0.0
H902 H 0.44931 0.51689 0.68785 0.0
H903 H 0.42376 0.55548 0.64115 0.0
C904 C 0.44986 0.55262 0.62686 0.0
C905 C 0.46782 0.5447 0.6267 0.0
C906 C 0.43554 0.52311 0.68726 0.0
C907 C 0.44295 0.53758 0.6561 0.0
C908 C 0.4231 0.52038 0.70205 0.0
C909 C 0.40516 0.52837 0.70174 0.0
C910 C 0.43006 0.53395 0.67201 0.0
C911 C 0.40021 0.53896 0.68616 0.0
C912 C 0.43747 0.54912 0.64142 0.0
C913 C 0.47269 0.53302 0.64152 0.0
N914 N 0.41256 0.54145 0.67201 0.0
N915 N 0.46038 0.52988 0.65563 0.0
H916 H 0.79385 0.29704 0.64419 0.0
H917 H 0.73438 0.34522 0.5626 0.0
H918 H 0.73543 0.28343 0.6325 0.0
H919 H 0.79496 0.34377 0.56521 0.0
H920 H 0.73332 0.32777 0.59192 0.0
H921 H 0.79325 0.31916 0.61877 0.0
C922 C 0.78088 0.29864 0.6363 0.0
C923 C 0.76474 0.28806 0.64045 0.0
C924 C 0.74681 0.33149 0.58614 0.0
C925 C 0.76388 0.3138 0.61138 0.0
C926 C 0.74742 0.34156 0.56952 0.0
C927 C 0.76478 0.34582 0.56141 0.0
C928 C 0.76369 0.32596 0.59477 0.0
C929 C 0.78126 0.34062 0.57087 0.0
C930 C 0.78052 0.3114 0.62184 0.0
C931 C 0.74821 0.29128 0.62997 0.0
N932 N 0.78031 0.33095 0.58696 0.0
N933 N 0.74824 0.30377 0.61588 0.0
H934 H 0.51962 0.97489 0.65083 0.0
H935 H 0.61511 0.99862 0.70778 0.0
H936 H 0.57294 0.97931 0.62304 0.0
H937 H 0.56652 0.97157 0.73116 0.0
H938 H 0.59881 0.99832 0.67699 0.0
H939 H 0.53564 0.98088 0.6809 0.0
C940 C 0.53468 0.97739 0.65103 0.0
C941 C 0.54497 0.97652 0.63441 0.0
C942 C 0.59176 0.99258 0.68895 0.0
C943 C 0.56344 0.98323 0.66886 0.0
C944 C 0.60098 0.99283 0.70647 0.0
C945 C 0.59219 0.98496 0.72195 0.0
C946 C 0.57354 0.9848 0.68715 0.0
C947 C 0.5739 0.97758 0.71955 0.0
C948 C 0.54384 0.98068 0.66821 0.0
C949 C 0.56452 0.97964 0.63557 0.0
N950 N 0.5652 0.97772 0.70253 0.0
N951 N 0.57317 0.98283 0.65254 0.0
H952 H 0.8641 0.2327 0.80727 0.0
H953 H 0.97515 0.22154 0.82289 0.0
H954 H 0.90114 0.21146 0.76461 0.0
H955 H 0.93941 0.25213 0.86056 0.0
H956 H 0.94722 0.21154 0.80428 0.0
H957 H 0.89051 0.23391 0.82958 0.0
C958 C 0.87772 0.22801 0.80265 0.0
C959 C 0.8804 0.22212 0.78395 0.0
C960 C 0.94544 0.22009 0.81686 0.0
C961 C 0.91084 0.22364 0.80947 0.0
C962 C 0.96133 0.22558 0.82757 0.0
C963 C 0.95943 0.2374 0.84337 0.0
C964 C 0.92761 0.2266 0.82199 0.0
C965 C 0.94134 0.24276 0.84859 0.0
C966 C 0.89284 0.22881 0.81539 0.0
C967 C 0.89847 0.21641 0.77878 0.0
N968 N 0.92614 0.23744 0.83787 0.0
N969 N 0.91301 0.21742 0.79142 0.0
H970 H 0.48749 0.89888 0.45156 0.0
H971 H 0.49794 0.78893 0.43168 0.0
H972 H 0.47916 0.85886 0.49494 0.0
H973 H 0.51123 0.83207 0.39265 0.0
H974 H 0.49215 0.81341 0.45582 0.0
H975 H 0.49696 0.87379 0.43034 0.0
C976 C 0.4876 0.88474 0.45661 0.0
C977 C 0.48232 0.88095 0.47499 0.0
C978 C 0.4965 0.81742 0.44199 0.0
C979 C 0.49333 0.85188 0.45066 0.0
C980 C 0.49987 0.80347 0.42826 0.0
C981 C 0.50486 0.80844 0.41005 0.0
C982 C 0.4982 0.83636 0.43739 0.0
C983 C 0.50714 0.8275 0.40638 0.0
C984 C 0.49314 0.87037 0.4445 0.0
C985 C 0.48314 0.86238 0.48086 0.0
N986 N 0.5037 0.84066 0.41982 0.0
N987 N 0.48839 0.84847 0.46867 0.0
H988 H 0.12709 0.3135 0.78428 0.0
H989 H 0.06754 0.24577 0.84979 0.0
H990 H 0.14592 0.2583 0.79739 0.0
H991 H 0.0482 0.29808 0.82841 0.0
H992 H 0.09697 0.24995 0.83239 0.0
H993 H 0.09876 0.30801 0.80207 0.0
C994 C 0.12532 0.30022 0.79101 0.0
C995 C 0.13903 0.28641 0.78943 0.0
C996 C 0.08622 0.26045 0.83157 0.0
C997 C 0.10624 0.27987 0.80987 0.0
C998 C 0.06946 0.25811 0.84153 0.0
C999 C 0.0553 0.27156 0.84058 0.0
C1000 C 0.08882 0.27642 0.82073 0.0
C1001 C 0.05858 0.28725 0.8296 0.0
C1002 C 0.10902 0.29703 0.80112 0.0
C1003 C 0.13568 0.26931 0.79817 0.0
N1004 N 0.0749 0.28921 0.8202 0.0
N1005 N 0.11965 0.26654 0.80811 0.0
H1006 H 0.54467 0.64975 0.48747 0.0
H1007 H 0.51064 0.67793 0.38429 0.0
H1008 H 0.52733 0.60998 0.44389 0.0
H1009 H 0.52772 0.71856 0.42718 0.0
H1010 H 0.5164 0.65304 0.40625 0.0
H1011 H 0.53796 0.67518 0.46615 0.0
C1012 C 0.53932 0.64633 0.4735 0.0
C1013 C 0.53666 0.62759 0.46752 0.0
C1014 C 0.5189 0.66738 0.41091 0.0
C1015 C 0.52912 0.65676 0.44289 0.0
C1016 C 0.51562 0.68166 0.39833 0.0
C1017 C 0.51871 0.70045 0.40382 0.0
C1018 C 0.52536 0.67179 0.42924 0.0
C1019 C 0.52515 0.7043 0.42228 0.0
C1020 C 0.53561 0.66089 0.46127 0.0
C1021 C 0.52992 0.62412 0.4491 0.0
N1022 N 0.52827 0.69013 0.4343 0.0
N1023 N 0.52643 0.6385 0.43751 0.0
H1024 H 0.92464 0.78562 0.76177 0.0
H1025 H 0.92662 0.78467 0.64956 0.0
H1026 H 0.87683 0.79679 0.72606 0.0
H1027 H 0.97643 0.77661 0.68356 0.0
H1028 H 0.90841 0.7886 0.67785 0.0
H1029 H 0.94399 0.78171 0.73379 0.0
C1030 C 0.91821 0.78723 0.74807 0.0
C1031 C 0.89907 0.79162 0.74629 0.0
C1032 C 0.92332 0.786 0.67921 0.0
C1033 C 0.92113 0.78722 0.71426 0.0
C1034 C 0.93378 0.78371 0.663 0.0
C1035 C 0.95315 0.7803 0.66412 0.0
C1036 C 0.93217 0.78484 0.69684 0.0
C1037 C 0.96155 0.77924 0.68201 0.0
C1038 C 0.92928 0.78508 0.73212 0.0
C1039 C 0.89155 0.79372 0.72818 0.0
N1040 N 0.95099 0.78148 0.6977 0.0
N1041 N 0.90257 0.79146 0.71294 0.0
H1042 H 0.06866 0.88158 0.53862 0.0
H1043 H 0.97852 0.83081 0.58124 0.0
H1044 H 0.01131 0.89828 0.52915 0.0
H1045 H 0.03525 0.81444 0.59453 0.0
H1046 H 0.99086 0.856 0.56272 0.0
H1047 H 0.0573 0.85732 0.55948 0.0
C1048 C 0.05369 0.8802 0.54095 0.0
C1049 C 0.04092 0.89197 0.53199 0.0
C1050 C 1.00069 0.847 0.5697 0.0
C1051 C 0.02786 0.86417 0.55579 0.0
C1052 C 0.99364 0.83255 0.58033 0.0
C1053 C 1.00586 0.82036 0.5894 0.0
C1054 C 0.02019 0.84938 0.56792 0.0
C1055 C 0.02531 0.8235 0.58779 0.0
C1056 C 0.04724 0.86631 0.55283 0.0
C1057 C 0.02168 0.88937 0.53542 0.0
N1058 N 0.03189 0.83764 0.57712 0.0
N1059 N 0.01578 0.87579 0.54699 0.0
H1060 H 0.13583 0.76043 0.70896 0.0
H1061 H 0.03427 0.72294 0.67358 0.0
H1062 H 0.11318 0.70591 0.72105 0.0
H1063 H 0.05872 0.77515 0.65633 0.0
H1064 H 0.06253 0.71726 0.69223 0.0
H1065 H 0.10713 0.76694 0.69106 0.0
C1066 C 0.12478 0.74987 0.70797 0.0
C1067 C 0.12698 0.73256 0.7165 0.0
C1068 C 0.06175 0.72997 0.68438 0.0
C1069 C 0.09411 0.73988 0.69588 0.0
C1070 C 0.04557 0.73324 0.67371 0.0
C1071 C 0.04408 0.74955 0.66332 0.0
C1072 C 0.07662 0.74311 0.68478 0.0
C1073 C 0.05925 0.76237 0.66408 0.0
C1074 C 0.10844 0.75356 0.69764 0.0
C1075 C 0.11225 0.71934 0.71452 0.0
N1076 N 0.07486 0.75888 0.67463 0.0
N1077 N 0.09648 0.72328 0.70445 0.0
H1078 H 0.97407 0.65034 0.51752 0.0
H1079 H 1.00255 0.70898 0.61099 0.0
H1080 H 0.98336 0.62388 0.57046 0.0
H1081 H 0.97305 0.73154 0.5636 0.0
H1082 H 1.00182 0.67808 0.59493 0.0
H1083 H 0.98029 0.68069 0.53284 0.0
C1084 C 0.97768 0.65089 0.53233 0.0
C1085 C 0.97813 0.63454 0.54274 0.0
C1086 C 0.99563 0.68988 0.58807 0.0
C1087 C 0.9851 0.66934 0.56043 0.0
C1088 C 0.99613 0.70747 0.59716 0.0
C1089 C 0.98771 0.72278 0.58866 0.0
C1090 C 0.987 0.68777 0.57027 0.0
C1091 C 0.97952 0.72009 0.57076 0.0
C1092 C 0.98109 0.66824 0.5411 0.0
C1093 C 0.98265 0.63617 0.56197 0.0
N1094 N 0.97939 0.70297 0.56218 0.0
N1095 N 0.98594 0.65329 0.57024 0.0
H1096 H 0.79908 0.88411 0.19275 0.0
H1097 H 0.83267 0.95096 0.27885 0.0
H1098 H 0.79026 0.87261 0.25111 0.0
H1099 H 0.84718 0.96243 0.22167 0.0
H1100 H 0.81693 0.92234 0.2682 0.0
H1101 H 0.81655 0.91268 0.2023 0.0
C1102 C 0.80086 0.88751 0.20756 0.0
C1103 C 0.79304 0.8759 0.22114 0.0
C1104 C 0.82355 0.93101 0.25789 0.0
C1105 C 0.81292 0.90869 0.23211 0.0
C1106 C 0.83258 0.94748 0.26398 0.0
C1107 C 0.84126 0.95928 0.25114 0.0
C1108 C 0.82299 0.9261 0.23873 0.0
C1109 C 0.84068 0.95379 0.23207 0.0
C1110 C 0.81078 0.90388 0.21298 0.0
C1111 C 0.79566 0.88121 0.24009 0.0
N1112 N 0.83161 0.93761 0.22641 0.0
N1113 N 0.80531 0.89715 0.24496 0.0
H1114 H 0.79045 0.13867 0.3101 0.0
H1115 H 0.84453 0.06724 0.24238 0.0
H1116 H 0.78921 0.14485 0.25009 0.0
H1117 H 0.82763 0.05606 0.29895 0.0
H1118 H 0.82783 0.09725 0.24452 0.0
H1119 H 0.80804 0.11007 0.306 0.0
C1120 C 0.79402 0.13409 0.29602 0.0
C1121 C 0.7884 0.14428 0.28043 0.0
C1122 C 0.82782 0.08811 0.25638 0.0
C1123 C 0.80853 0.11114 0.27556 0.0
C1124 C 0.83738 0.07105 0.25519 0.0
C1125 C 0.83748 0.05903 0.27047 0.0
C1126 C 0.81863 0.0932 0.27306 0.0
C1127 C 0.82794 0.0647 0.28673 0.0
C1128 C 0.80398 0.11763 0.29366 0.0
C1129 C 0.79318 0.13737 0.26249 0.0
N1130 N 0.81905 0.08129 0.28758 0.0
N1131 N 0.80305 0.12124 0.26052 0.0
H1132 H 0.39317 0.96612 0.0094 0.0
H1133 H 0.28742 0.92856 0.99245 0.0
H1134 H 0.35743 0.98741 0.96574 0.0
H1135 H 0.33144 0.89706 0.0185 0.0
H1136 H 0.31041 0.95402 0.98734 0.0
H1137 H 0.36793 0.94463 0.01791 0.0
C1138 C 0.37991 0.96645 1.00175 0.0
C1139 C 0.37745 0.97854 0.98678 0.0
C1140 C 0.31491 0.94156 0.9943 0.0
C1141 C 0.34846 0.95382 0.9964 0.0
C1142 C 0.30181 0.92712 0.9973 0.0
C1143 C 0.30759 0.91065 1.00578 0.0
C1144 C 0.33372 0.93956 1.00018 0.0
C1145 C 0.32642 0.90943 0.01174 0.0
C1146 C 0.36555 0.95408 1.00654 0.0
C1147 C 0.36 0.97816 0.97723 0.0
N1148 N 0.33876 0.92365 0.00884 0.0
N1149 N 0.34615 0.96597 0.98218 0.0
H1150 H 0.25986 0.4115 0.27161 0.0
H1151 H 0.15609 0.43287 0.30411 0.0
H1152 H 0.23551 0.38822 0.32115 0.0
H1153 H 0.18679 0.47048 0.26902 0.0
H1154 H 0.18479 0.41544 0.3093 0.0
H1155 H 0.23322 0.43258 0.26933 0.0
C1156 C 0.24908 0.41093 0.28215 0.0
C1157 C 0.24994 0.39786 0.29652 0.0
C1158 C 0.18533 0.42759 0.30059 0.0
C1159 C 0.2192 0.42175 0.2937 0.0
C1160 C 0.16892 0.43752 0.29756 0.0
C1161 C 0.16904 0.45311 0.28605 0.0
C1162 C 0.20198 0.43304 0.29179 0.0
C1163 C 0.18611 0.45856 0.27803 0.0
C1164 C 0.23382 0.42294 0.28077 0.0
C1165 C 0.23531 0.39767 0.30956 0.0
N1166 N 0.20189 0.44838 0.28086 0.0
N1167 N 0.22051 0.40928 0.30773 0.0
H1168 H 0.15412 0.01686 0.47076 0.0
H1169 H 0.20827 0.11144 0.50275 0.0
H1170 H 0.12505 0.06848 0.48117 0.0
H1171 H 0.23415 0.06523 0.4735 0.0
H1172 H 0.17796 0.09442 0.50076 0.0
H1173 H 0.18394 0.03296 0.47792 0.0
C1174 C 0.15399 0.03154 0.47481 0.0
C1175 C 0.13707 0.04136 0.47531 0.0
C1176 C 0.19034 0.08803 0.4949 0.0
C1177 C 0.17123 0.05994 0.48336 0.0
C1178 C 0.20762 0.09767 0.49611 0.0
C1179 C 0.2237 0.08979 0.48815 0.0
C1180 C 0.18931 0.0703 0.48598 0.0
C1181 C 0.22208 0.07192 0.47965 0.0
C1182 C 0.17103 0.04076 0.47875 0.0
C1183 C 0.1378 0.06045 0.48041 0.0
N1184 N 0.20523 0.06281 0.47881 0.0
N1185 N 0.15463 0.06915 0.48422 0.0
H1186 H 0.7385 0.10522 0.74087 0.0
H1187 H 0.63242 0.07529 0.76395 0.0
H1188 H 0.69436 0.14492 0.75038 0.0
H1189 H 0.678 0.0364 0.75922 0.0
H1190 H 0.65448 0.10089 0.75788 0.0
H1191 H 0.71611 0.07981 0.74612 0.0
C1192 C 0.72405 0.10861 0.74389 0.0
C1193 C 0.71834 0.12729 0.74512 0.0
C1194 C 0.65966 0.08676 0.75818 0.0
C1195 C 0.69257 0.09813 0.75141 0.0
C1196 C 0.64705 0.07211 0.76164 0.0
C1197 C 0.65334 0.05362 0.76213 0.0
C1198 C 0.6787 0.08293 0.7551 0.0
C1199 C 0.67249 0.0504 0.75902 0.0
C1200 C 0.71129 0.09406 0.74704 0.0
C1201 C 0.69947 0.13077 0.74945 0.0
N1202 N 0.68445 0.06488 0.75562 0.0
N1203 N 0.68728 0.11634 0.75242 0.0
H1204 H 0.41124 0.05209 0.51715 0.0
H1205 H 0.31104 0.09662 0.53955 0.0
H1206 H 0.37984 0.03792 0.56623 0.0
H1207 H 0.3365 0.09533 0.485 0.0
H1208 H 0.33818 0.07958 0.55198 0.0
H1209 H 0.38592 0.07252 0.5076 0.0
C1210 C 0.39906 0.0534 0.52601 0.0
C1211 C 0.39765 0.04325 0.5425 0.0
C1212 C 0.33781 0.08318 0.53733 0.0
C1213 C 0.36845 0.0666 0.53156 0.0
C1214 C 0.32243 0.093 0.53028 0.0
C1215 C 0.32148 0.09727 0.5112 0.0
C1216 C 0.35237 0.07794 0.52523 0.0
C1217 C 0.33655 0.09217 0.49976 0.0
C1218 C 0.38455 0.065 0.5205 0.0
C1219 C 0.3814 0.04534 0.5533 0.0
N1220 N 0.35131 0.08279 0.50693 0.0
N1221 N 0.3674 0.05679 0.54765 0.0
H1222 H 0.64333 0.49033 0.5246 0.0
H1223 H 0.68096 0.38644 0.53921 0.0
H1224 H 0.61385 0.44811 0.55528 0.0
H1225 H 0.71302 0.42872 0.51114 0.0
H1226 H 0.65589 0.40881 0.54418 0.0
H1227 H 0.66843 0.46797 0.51831 0.0
C1228 C 0.64205 0.47636 0.52993 0.0
C1229 C 0.62643 0.4712 0.54061 0.0
C1230 C 0.66839 0.41325 0.53692 0.0
C1231 C 0.65524 0.44552 0.53354 0.0
C1232 C 0.68276 0.40043 0.53405 0.0
C1233 C 0.69921 0.40565 0.52474 0.0
C1234 C 0.67033 0.43153 0.53042 0.0
C1235 C 0.70063 0.42405 0.51841 0.0
C1236 C 0.65646 0.46362 0.52643 0.0
C1237 C 0.62571 0.4529 0.54728 0.0
N1238 N 0.6864 0.43631 0.52136 0.0
N1239 N 0.63985 0.4408 0.54365 0.0
H1240 H 0.72859 0.26593 0.39021 0.0
H1241 H 0.72382 0.35954 0.45435 0.0
H1242 H 0.70228 0.31618 0.37138 0.0
H1243 H 0.75654 0.31129 0.46777 0.0
H1244 H 0.71257 0.3431 0.42548 0.0
H1245 H 0.73612 0.28169 0.4201 0.0
C1246 C 0.72448 0.28033 0.39228 0.0
C1247 C 0.71493 0.28974 0.37808 0.0
C1248 C 0.72212 0.33611 0.43485 0.0
C1249 C 0.7233 0.30792 0.41264 0.0
C1250 C 0.72844 0.34544 0.45137 0.0
C1251 C 0.74125 0.33685 0.46344 0.0
C1252 C 0.72855 0.31803 0.43052 0.0
C1253 C 0.74683 0.31858 0.45882 0.0
C1254 C 0.72867 0.28931 0.40947 0.0
C1255 C 0.70955 0.30828 0.38191 0.0
N1256 N 0.74051 0.30986 0.44278 0.0
N1257 N 0.71387 0.31678 0.39878 0.0
H1258 H 0.51413 0.01854 0.88322 0.0
H1259 H 0.60683 0.03042 0.82201 0.0
H1260 H 0.55813 0.05837 0.89891 0.0
H1261 H 0.5697 0.98212 0.81942 0.0
H1262 H 0.58795 0.04346 0.8478 0.0
H1263 H 0.53303 0.00767 0.8571 0.0
C1264 C 0.52782 0.02495 0.88128 0.0
C1265 C 0.53459 0.03926 0.89352 0.0
C1266 C 0.58404 0.03001 0.84152 0.0
C1267 C 0.5563 0.02702 0.86321 0.0
C1268 C 0.59477 0.02258 0.82682 0.0
C1269 C 0.58993 1.00511 0.81857 0.0
C1270 C 0.56826 0.01997 0.84775 0.0
C1271 C 0.57412 0.99558 0.82535 0.0
C1272 C 0.5386 0.01879 0.86625 0.0
C1273 C 0.55226 0.04738 0.88981 0.0
N1274 N 0.56389 1.00314 0.83943 0.0
N1275 N 0.56254 0.04112 0.87502 0.0
H1276 H 0.29624 0.2246 0.37619 0.0
H1277 H 0.27401 0.18678 0.47852 0.0
H1278 H 0.28355 0.26133 0.42311 0.0
H1279 H 0.2836 0.1518 0.42945 0.0
H1280 H 0.27787 0.21445 0.45916 0.0
H1281 H 0.2924 0.1979 0.39626 0.0
C1282 C 0.29281 0.22708 0.39078 0.0
C1283 C 0.29033 0.24528 0.39797 0.0
C1284 C 0.27909 0.20068 0.45269 0.0
C1285 C 0.2856 0.21459 0.42112 0.0
C1286 C 0.27689 0.1849 0.46373 0.0
C1287 C 0.27849 0.16691 0.45564 0.0
C1288 C 0.28296 0.1984 0.43349 0.0
C1289 C 0.28224 0.16533 0.43638 0.0
C1290 C 0.29046 0.21178 0.40224 0.0
C1291 C 0.28546 0.24754 0.41693 0.0
N1292 N 0.28436 0.18081 0.42604 0.0
N1293 N 0.28329 0.23237 0.42787 0.0
H1294 H 0.48993 0.45866 0.85472 0.0
H1295 H 0.40299 0.5217 0.82968 0.0
H1296 H 0.47364 0.50645 0.88845 0.0
H1297 H 0.43076 0.48919 0.78685 0.0
H1298 H 0.42851 0.51526 0.85157 0.0
H1299 H 0.46814 0.46832 0.82985 0.0
C1300 C 0.48185 0.47122 0.85685 0.0
C1301 C 0.48358 0.48174 0.87372 0.0
C1302 C 0.4292 0.50967 0.83735 0.0
C1303 C 0.45865 0.49278 0.84543 0.0
C1304 C 0.4146 0.51331 0.82484 0.0
C1305 C 0.41476 0.50592 0.80644 0.0
C1306 C 0.44398 0.49818 0.83163 0.0
C1307 C 0.43019 0.49521 0.8009 0.0
C1308 C 0.46954 0.47678 0.84262 0.0
C1309 C 0.4729 0.49798 0.87565 0.0
N1310 N 0.4441 0.4914 0.81356 0.0
N1311 N 0.46079 0.50287 0.86179 0.0
H1312 H 0.71044 0.68974 0.13749 0.0
H1313 H 0.77437 0.67377 0.04707 0.0
H1314 H 0.75791 0.72529 0.12491 0.0
H1315 H 0.73195 0.6345 0.0647 0.0
H1316 H 0.76783 0.69358 0.07464 0.0
H1317 H 0.71741 0.67013 0.1101 0.0
C1318 C 0.72243 0.69338 0.12907 0.0
C1319 C 0.73366 0.70919 0.13369 0.0
C1320 C 0.75999 0.68061 0.07248 0.0
C1321 C 0.74157 0.68682 0.10194 0.0
C1322 C 0.7637 0.66928 0.05673 0.0
C1323 C 0.75371 0.65241 0.05353 0.0
C1324 C 0.7461 0.6751 0.08511 0.0
C1325 C 0.74005 0.64735 0.06657 0.0
C1326 C 0.72634 0.6822 0.11333 0.0
C1327 C 0.74873 0.71338 0.12187 0.0
N1328 N 0.73663 0.65865 0.08171 0.0
N1329 N 0.75224 0.70227 0.10657 0.0
H1330 H 0.95525 0.06067 0.12982 0.0
H1331 H 0.93156 0.98614 0.20845 0.0
H1332 H 0.98246 0.0074 0.13361 0.0
H1333 H 0.90154 0.03758 0.20225 0.0
H1334 H 0.95066 0.99396 0.18149 0.0
H1335 H 0.9359 0.05273 0.15655 0.0
C1336 C 0.95711 0.04723 0.13616 0.0
C1337 C 0.97054 0.03467 0.12926 0.0
C1338 C 0.93989 1.00354 0.18599 0.0
C1339 C 0.94843 0.02557 0.16026 0.0
C1340 C 0.92893 0.99908 0.20142 0.0
C1341 C 0.91485 0.01121 0.20771 0.0
C1342 C 0.93686 0.02031 0.17668 0.0
C1343 C 0.91218 0.02778 0.19794 0.0
C1344 C 0.94609 0.04276 0.15154 0.0
C1345 C 0.9725 0.01765 0.13846 0.0
N1346 N 0.92308 0.03185 0.18298 0.0
N1347 N 0.96158 0.01362 0.15342 0.0
H1348 H 0.23119 0.78611 0.13965 0.0
H1349 H 0.29671 0.83812 0.06671 0.0
H1350 H 0.29188 0.78623 0.14117 0.0
H1351 H 0.23631 0.84272 0.06525 0.0
H1352 H 0.29464 0.82084 0.09543 0.0
H1353 H 0.23217 0.80798 0.11376 0.0
C1354 C 0.24472 0.79074 0.13461 0.0
C1355 C 0.2615 0.78418 0.14264 0.0
C1356 C 0.28177 0.82568 0.089 0.0
C1357 C 0.26267 0.80937 0.11307 0.0
C1358 C 0.28295 0.83559 0.07253 0.0
C1359 C 0.26664 0.84175 0.06344 0.0
C1360 C 0.26411 0.82158 0.09651 0.0
C1361 C 0.24923 0.83822 0.07181 0.0
C1362 C 0.24525 0.80333 0.1199 0.0
C1363 C 0.27857 0.79097 0.13567 0.0
N1364 N 0.24839 0.82814 0.08779 0.0
N1365 N 0.27869 0.80304 0.12128 0.0
H1366 H 0.06525 0.43847 0.13003 0.0
H1367 H 0.09758 0.50773 0.21461 0.0
H1368 H 0.04122 0.49311 0.13781 0.0
H1369 H 0.10097 0.44768 0.21587 0.0
H1370 H 0.08258 0.50475 0.18327 0.0
H1371 H 0.08428 0.44397 0.15835 0.0
C1372 C 0.06392 0.45163 0.13769 0.0
C1373 C 0.05127 0.46518 0.13167 0.0
C1374 C 0.08677 0.49229 0.19043 0.0
C1375 C 0.07344 0.4717 0.16402 0.0
C1376 C 0.0954 0.49398 0.2082 0.0
C1377 C 0.10037 0.47791 0.21787 0.0
C1378 C 0.08353 0.47445 0.18223 0.0
C1379 C 0.09718 0.46042 0.209 0.0
C1380 C 0.0749 0.45479 0.15381 0.0
C1381 C 0.05074 0.48224 0.14189 0.0
N1382 N 0.08899 0.45916 0.19172 0.0
N1383 N 0.06157 0.48498 0.15766 0.0
H1384 H 0.36431 0.75434 0.30708 0.0
H1385 H 0.4685 0.72141 0.33356 0.0
H1386 H 0.39249 0.71084 0.27593 0.0
H1387 H 0.44251 0.7714 0.35496 0.0
H1388 H 0.43886 0.71295 0.31674 0.0
H1389 H 0.39088 0.7564 0.329 0.0
C1390 C 0.3761 0.74518 0.30485 0.0
C1391 C 0.37628 0.73264 0.28942 0.0
C1392 C 0.43958 0.72558 0.32542 0.0
C1393 C 0.40692 0.73486 0.31465 0.0
C1394 C 0.4564 0.73029 0.33513 0.0
C1395 C 0.45784 0.7471 0.34563 0.0
C1396 C 0.42422 0.73774 0.32645 0.0
C1397 C 0.44193 0.75833 0.34698 0.0
C1398 C 0.39127 0.7463 0.31745 0.0
C1399 C 0.39177 0.72076 0.2876 0.0
N1400 N 0.42587 0.7535 0.33746 0.0
N1401 N 0.40658 0.7223 0.29994 0.0
H1402 H 0.94514 0.36882 0.97021 0.0
H1403 H 0.01812 0.29385 0.93052 0.0
H1404 H 1.00402 0.37109 0.98582 0.0
H1405 H 0.96621 0.30827 0.90292 0.0
H1406 H 0.01137 0.31698 0.95577 0.0
H1407 H 0.95094 0.34132 0.95045 0.0
C1408 C 0.95932 0.36357 0.96949 0.0
C1409 C 0.97418 0.3726 0.97942 0.0
C1410 C 1.0014 0.31484 0.94426 0.0
C1411 C 0.98086 0.34075 0.95694 0.0
C1412 C 1.00517 0.3016 0.92999 0.0
C1413 C 0.99273 0.29928 0.91462 0.0
C1414 C 0.98492 0.32543 0.94323 0.0
C1415 C 0.97624 0.30975 0.91445 0.0
C1416 C 0.9626 0.34777 0.95827 0.0
C1417 C 0.99214 0.36466 0.97838 0.0
N1418 N 0.97283 0.32233 0.92848 0.0
N1419 N 0.99502 0.34926 0.9672 0.0
H1420 H 0.63903 0.80868 0.29424 0.0
H1421 H 0.5689 0.74133 0.34826 0.0
H1422 H 0.6476 0.74915 0.29316 0.0
H1423 H 0.55406 0.79461 0.32573 0.0
H1424 H 0.59969 0.7439 0.33272 0.0
H1425 H 0.60995 0.80396 0.31111 0.0
C1426 C 0.63489 0.79459 0.29772 0.0
C1427 C 0.64584 0.7793 0.2923 0.0
C1428 C 0.58956 0.75492 0.33122 0.0
C1429 C 0.61221 0.77374 0.31158 0.0
C1430 C 0.57206 0.75349 0.3401 0.0
C1431 C 0.55879 0.76772 0.33827 0.0
C1432 C 0.59384 0.77086 0.32087 0.0
C1433 C 0.56367 0.78319 0.32751 0.0
C1434 C 0.61817 0.79188 0.30724 0.0
C1435 C 0.6395 0.76132 0.29697 0.0
N1436 N 0.58072 0.78436 0.31939 0.0
N1437 N 0.62309 0.759 0.30641 0.0
H1438 H 1.00607 0.12858 0.9819 0.0
H1439 H 0.04124 0.20403 0.90816 0.0
H1440 H 0.06326 0.13247 0.96277 0.0
H1441 H 0.98502 0.20195 0.93006 0.0
H1442 H 0.04957 0.17767 0.92774 0.0
H1443 H 0.99817 0.15541 0.96299 0.0
C1444 C 0.01703 0.13512 0.97386 0.0
C1445 C 0.03539 0.12811 0.97399 0.0
C1446 C 0.03541 0.183 0.92827 0.0
C1447 C 0.02631 0.15887 0.95196 0.0
C1448 C 0.03064 0.19805 0.91706 0.0
C1449 C 0.01238 0.20528 0.91741 0.0
C1450 C 0.02184 0.17502 0.93992 0.0
C1451 C 0.99927 0.19691 0.92928 0.0
C1452 C 0.01246 0.15041 0.96293 0.0
C1453 C 0.04886 0.13711 0.96295 0.0
N1454 N 1.00424 0.18228 0.94 0.0
N1455 N 0.04405 0.15194 0.95241 0.0
H1456 H 0.42342 0.28237 0.26433 0.0
H1457 H 0.42705 0.2929 0.15299 0.0
H1458 H 0.37754 0.30135 0.22981 0.0
H1459 H 0.47535 0.27647 0.18567 0.0
H1460 H 0.40908 0.29579 0.18147 0.0
H1461 H 0.44289 0.27974 0.23626 0.0
C1462 C 0.41743 0.28598 0.25088 0.0
C1463 C 0.39881 0.29219 0.24947 0.0
C1464 C 0.42361 0.29158 0.18253 0.0
C1465 C 0.42102 0.28926 0.21737 0.0
C1466 C 0.43394 0.28989 0.16619 0.0
C1467 C 0.45281 0.2844 0.16687 0.0
C1468 C 0.43205 0.28771 0.19986 0.0
C1469 C 0.46086 0.28075 0.18448 0.0
C1470 C 0.42858 0.28455 0.23489 0.0
C1471 C 0.39188 0.29681 0.23169 0.0
N1472 N 0.45041 0.28244 0.20031 0.0
N1473 N 0.40294 0.29522 0.21642 0.0
H1474 H 0.51249 0.40454 0.03339 0.0
H1475 H 0.5357 0.3171 0.09745 0.0
H1476 H 0.56895 0.38485 0.04193 0.0
H1477 H 0.47992 0.33672 0.08494 0.0
H1478 H 0.54881 0.34279 0.07918 0.0
H1479 H 0.50088 0.3805 0.05392 0.0
C1480 C 0.52246 0.39506 0.03948 0.0
C1481 C 0.54171 0.39664 0.03574 0.0
C1482 C 0.53371 0.34147 0.08056 0.0
C1483 C 0.52848 0.36905 0.05963 0.0
C1484 C 0.52624 0.32687 0.09104 0.0
C1485 C 0.50667 0.32465 0.09262 0.0
C1486 C 0.5215 0.35391 0.07174 0.0
C1487 C 0.49507 0.33771 0.08398 0.0
C1488 C 0.51582 0.38138 0.05135 0.0
C1489 C 0.55399 0.38421 0.04447 0.0
N1490 N 0.50265 0.35166 0.07392 0.0
N1491 N 0.54716 0.37087 0.05596 0.0
H1492 H 0.63384 0.2598 0.20982 0.0
H1493 H 0.53413 0.22173 0.16979 0.0
H1494 H 0.61322 0.20345 0.21661 0.0
H1495 H 0.55694 0.27619 0.1576 0.0
H1496 H 0.56252 0.21533 0.18802 0.0
H1497 H 0.60523 0.26667 0.19193 0.0
C1498 C 0.62326 0.2489 0.20765 0.0
C1499 C 0.62599 0.231 0.21472 0.0
C1500 C 0.56135 0.22868 0.18135 0.0
C1501 C 0.59323 0.23874 0.19411 0.0
C1502 C 0.54511 0.23236 0.17093 0.0
C1503 C 0.54311 0.24954 0.16211 0.0
C1504 C 0.57575 0.24228 0.18309 0.0
C1505 C 0.55786 0.26275 0.16412 0.0
C1506 C 0.60697 0.2528 0.19733 0.0
C1507 C 0.61187 0.21737 0.21124 0.0
N1508 N 0.57352 0.25886 0.17441 0.0
N1509 N 0.59613 0.22153 0.20123 0.0
H1510 H 0.4942 0.13087 0.05857 0.0
H1511 H 0.45963 0.23643 0.06936 0.0
H1512 H 0.44584 0.15335 0.03035 0.0
H1513 H 0.50369 0.21478 0.10456 0.0
H1514 H 0.45696 0.20645 0.05301 0.0
H1515 H 0.50029 0.1617 0.0737 0.0
C1516 C 0.48495 0.14231 0.05549 0.0
C1517 C 0.46937 0.13952 0.04334 0.0
C1518 C 0.46726 0.20815 0.06428 0.0
C1519 C 0.47626 0.17465 0.06047 0.0
C1520 C 0.46881 0.22535 0.07368 0.0
C1521 C 0.4818 0.22814 0.08853 0.0
C1522 C 0.47872 0.1934 0.06969 0.0
C1523 C 0.49343 0.21322 0.09325 0.0
C1524 C 0.48839 0.15984 0.06417 0.0
C1525 C 0.45781 0.15476 0.03986 0.0
N1526 N 0.49155 0.19641 0.08391 0.0
N1527 N 0.46148 0.1716 0.04837 0.0
H1528 H 0.2803 0.38305 0.75274 0.0
H1529 H 0.35326 0.46361 0.72409 0.0
H1530 H 0.30403 0.38536 0.69746 0.0
H1531 H 0.32287 0.46282 0.77605 0.0
H1532 H 0.33643 0.43472 0.71388 0.0
H1533 H 0.29683 0.41204 0.76139 0.0
C1534 C 0.28886 0.38971 0.74233 0.0
C1535 C 0.29061 0.3817 0.72428 0.0
C1536 C 0.33347 0.44097 0.72748 0.0
C1537 C 0.31002 0.41502 0.73427 0.0
C1538 C 0.34306 0.45745 0.73331 0.0
C1539 C 0.33954 0.46572 0.75098 0.0
C1540 C 0.32036 0.4327 0.73945 0.0
C1541 C 0.32616 0.45706 0.76233 0.0
C1542 C 0.29843 0.40627 0.74733 0.0
C1543 C 0.30236 0.39087 0.7116 0.0
N1544 N 0.31717 0.4411 0.75641 0.0
N1545 N 0.31161 0.40703 0.71683 0.0
H1546 H 0.28499 0.64262 0.74674 0.0
H1547 H 0.35087 0.57082 0.79864 0.0
H1548 H 0.30952 0.65233 0.80189 0.0
H1549 H 0.34076 0.56632 0.73895 0.0
H1550 H 0.33549 0.6009 0.79944 0.0
H1551 H 0.30454 0.61475 0.74293 0.0
C1552 C 0.29451 0.63897 0.758 0.0
C1553 C 0.29558 0.64991 0.77467 0.0
C1554 C 0.33675 0.59354 0.78607 0.0
C1555 C 0.31795 0.61809 0.77037 0.0
C1556 C 0.34555 0.57633 0.78561 0.0
C1557 C 0.34707 0.56608 0.76871 0.0
C1558 C 0.32895 0.60056 0.76955 0.0
C1559 C 0.33996 0.57388 0.75225 0.0
C1560 C 0.30575 0.62315 0.75575 0.0
C1561 C 0.30833 0.64457 0.78869 0.0
N1562 N 0.33093 0.59059 0.7531 0.0
N1563 N 0.31883 0.62904 0.78627 0.0
H1564 H 0.88405 0.45421 0.45303 0.0
H1565 H 0.79123 0.43067 0.51085 0.0
H1566 H 0.86622 0.4893 0.49939 0.0
H1567 H 0.8211 0.39101 0.47629 0.0
H1568 H 0.81523 0.45461 0.50376 0.0
H1569 H 0.85758 0.43323 0.45827 0.0
C1570 C 0.87463 0.45748 0.46441 0.0
C1571 C 0.87766 0.47342 0.476 0.0
C1572 C 0.81639 0.44066 0.4977 0.0
C1573 C 0.84689 0.44943 0.4819 0.0
C1574 C 0.80269 0.42705 0.50166 0.0
C1575 C 0.80424 0.40878 0.49426 0.0
C1576 C 0.83148 0.43596 0.48604 0.0
C1577 C 0.8194 0.40483 0.48248 0.0
C1578 C 0.85941 0.44552 0.46733 0.0
C1579 C 0.86449 0.47719 0.49011 0.0
N1580 N 0.83235 0.41826 0.47875 0.0
N1581 N 0.84972 0.46522 0.49274 0.0
H1582 H 0.7628 0.91937 0.78442 0.0
H1583 H 0.65042 0.92358 0.78676 0.0
H1584 H 0.72651 0.87285 0.79762 0.0
H1585 H 0.68545 0.97183 0.77622 0.0
H1586 H 0.67846 0.90502 0.79058 0.0
H1587 H 0.73503 0.93894 0.78104 0.0
C1588 C 0.74901 0.91326 0.78658 0.0
C1589 C 0.74702 0.89442 0.79136 0.0
C1590 C 0.68009 0.91967 0.78746 0.0
C1591 C 0.7152 0.91676 0.78761 0.0
C1592 C 0.66403 0.93032 0.78525 0.0
C1593 C 0.66552 0.94935 0.78114 0.0
C1594 C 0.69792 0.92799 0.78551 0.0
C1595 C 0.68361 0.95723 0.77939 0.0
C1596 C 0.73318 0.92446 0.78474 0.0
C1597 C 0.7288 0.88734 0.7942 0.0
N1598 N 0.69911 0.9465 0.78155 0.0
N1599 N 0.71365 0.89848 0.79224 0.0
H1600 H 0.63304 0.56657 0.93953 0.0
H1601 H 0.71787 0.59746 0.00894 0.0
H1602 H 0.64173 0.54064 0.99289 0.0
H1603 H 0.71896 0.60231 0.9488 0.0
H1604 H 0.68645 0.58257 1.00587 0.0
H1605 H 0.66106 0.58589 0.94554 0.0
C1606 C 0.64083 0.56489 0.95252 0.0
C1607 C 0.63518 0.55161 0.96553 0.0
C1608 C 0.69358 0.58708 0.99342 0.0
C1609 C 0.66717 0.5741 0.97266 0.0
C1610 C 0.71139 0.59564 0.99516 0.0
C1611 C 0.72104 0.60096 0.97907 0.0
C1612 C 0.68532 0.58426 0.97553 0.0
C1613 C 0.71209 0.59823 0.96154 0.0
C1614 C 0.65678 0.57604 0.95598 0.0
C1615 C 0.64554 0.55064 0.98243 0.0
N1616 N 0.69477 0.5901 0.96025 0.0
N1617 N 0.66113 0.56164 0.98546 0.0
H1618 H 0.24152 0.60379 0.24507 0.0
H1619 H 0.13322 0.57549 0.25915 0.0
H1620 H 0.19723 0.64421 0.2487 0.0
H1621 H 0.17868 0.53621 0.25887 0.0
H1622 H 0.156 0.60076 0.25393 0.0
H1623 H 0.21828 0.57882 0.24863 0.0
C1624 C 0.2269 0.60744 0.24667 0.0
C1625 C 0.22139 0.62619 0.24674 0.0
C1626 C 0.16097 0.5866 0.25499 0.0
C1627 C 0.19454 0.5975 0.25068 0.0
C1628 C 0.14797 0.57215 0.25797 0.0
C1629 C 0.15402 0.55366 0.2595 0.0
C1630 C 0.18017 0.58255 0.25348 0.0
C1631 C 0.17332 0.55022 0.25784 0.0
C1632 C 0.2136 0.59313 0.24862 0.0
C1633 C 0.20214 0.62997 0.24844 0.0
N1634 N 0.18566 0.56449 0.25494 0.0
N1635 N 0.18943 0.61577 0.25043 0.0
H1636 H 0.89989 0.5588 0.0575 0.0
H1637 H 0.81426 0.56553 0.98473 0.0
H1638 H 0.88078 0.51319 0.02091 0.0
H1639 H 0.82347 0.60628 0.02971 0.0
H1640 H 0.83944 0.54686 0.99745 0.0
H1641 H 0.87282 0.57694 0.0474 0.0
C1642 C 0.88996 0.55251 0.04747 0.0
C1643 C 0.89278 0.53441 0.03997 0.0
C1644 C 0.83595 0.55983 1.00464 0.0
C1645 C 0.86189 0.55528 0.02816 0.0
C1646 C 0.82157 0.57056 0.99734 0.0
C1647 C 0.81677 0.58758 1.00611 0.0
C1648 C 0.84589 0.56616 0.02077 0.0
C1649 C 0.82669 0.59325 0.02251 0.0
C1650 C 0.87454 0.56293 0.04167 0.0
C1651 C 0.87951 0.52718 0.02682 0.0
N1652 N 0.84091 0.58263 0.02924 0.0
N1653 N 0.86476 0.53765 0.02129 0.0
H1654 H 0.1438 0.98537 0.02354 0.0
H1655 H 0.18298 0.88242 0.04015 0.0
H1656 H 0.11357 0.9425 0.05267 0.0
H1657 H 0.21506 0.9253 0.01299 0.0
H1658 H 0.15728 0.90428 0.04423 0.0
H1659 H 0.1699 0.96379 0.01916 0.0
C1660 C 0.14263 0.97147 0.02909 0.0
C1661 C 0.12631 0.96581 0.03844 0.0
C1662 C 0.16992 0.90895 0.03737 0.0
C1663 C 0.1562 0.94091 0.0333 0.0
C1664 C 0.18465 0.89643 0.03501 0.0
C1665 C 0.20129 0.90197 0.0262 0.0
C1666 C 0.17171 0.92725 0.03087 0.0
C1667 C 0.20253 0.92038 0.01986 0.0
C1668 C 0.15753 0.95912 0.02648 0.0
C1669 C 0.12563 0.94748 0.04508 0.0
N1670 N 0.18797 0.93233 0.02232 0.0
N1671 N 0.14029 0.93577 0.04239 0.0
loop_
_geom_bond_atom_site_label_1
_geom_bond_atom_site_label_2
_geom_bond_distance
_geom_bond_site_symmetry_2
_ccdc_geom_bond_type
C0 C1 1.265 1_655 S
C0 C5 1.476 . S
C0 C10 1.466 1_655 S
C1 C0 1.265 1_455 S
C1 C3 1.339 1_455 S
C1 H28 0.931 . S
C2 C3 1.395 . S
C2 C4 1.320 . S
C3 C1 1.339 1_655 S
C3 C2 1.395 . S
C3 H29 0.931 . S
C4 C2 1.320 . S
C4 C5 1.405 . S
C4 H30 0.930 . S
C5 C0 1.476 . S
C5 C4 1.405 . S
C5 H31 0.931 . S
U6 O7 2.454 . S
U6 O8 2.458 . S
U6 C9 2.984 . S
U6 C10 2.847 . S
U6 C23 2.882 . S
U6 O24 2.441 . S
U6 O25 2.420 . S
U6 O26 2.455 . S
U6 O27 2.449 . S
O7 U6 2.454 . S
O7 C9 1.353 . S
O8 U6 2.458 . S
O8 C9 1.286 . S
C9 U6 2.984 . S
C9 O7 1.353 . S
C9 O8 1.286 . S
C9 C11 1.363 . S
C10 C0 1.466 1_455 S
C10 U6 2.847 . S
C10 O24 1.249 . S
C10 O25 1.202 . S
C11 C9 1.363 . S
C11 C13 1.408 . S
C11 C16 1.342 1_554 S
C12 C13 1.310 1_556 S
C12 C15 1.461 . S
C12 H32 0.932 . S
C13 C11 1.408 . S
C13 C12 1.310 1_554 S
C13 H33 0.930 . S
C14 C15 1.474 . S
C14 C16 1.285 . S
C14 H34 0.929 . S
C15 C12 1.461 . S
C15 C14 1.474 . S
C16 C11 1.342 1_556 S
C16 C14 1.285 . S
C16 H35 0.930 . S
C17 C20 1.402 1_545 S
C17 C22 1.253 . S
C17 C23 1.446 . S
C18 C21 1.260 . S
C18 C22 1.477 1_565 S
C18 H36 0.932 . S
C19 C20 1.384 . S
C19 C21 1.479 . S
C19 H37 0.929 . S
C20 C17 1.402 1_565 S
C20 C19 1.384 . S
C20 H38 0.928 . S
C21 C18 1.260 . S
C21 C19 1.479 . S
C22 C17 1.253 . S
C22 C18 1.477 1_545 S
C22 H39 0.932 . S
C23 U6 2.882 . S
C23 C17 1.446 . S
C23 O26 1.301 . S
C23 O27 1.282 . S
O24 U6 2.441 . S
O24 C10 1.249 . S
O25 U6 2.420 . S
O25 C10 1.202 . S
O26 U6 2.455 . S
O26 C23 1.301 . S
O27 U6 2.449 . S
O27 C23 1.282 . S
H28 C1 0.931 . S
H29 C3 0.931 . S
H30 C4 0.930 . S
H31 C5 0.931 . S
H32 C12 0.932 . S
H33 C13 0.930 . S
H34 C14 0.929 . S
H35 C16 0.930 . S
H36 C18 0.932 . S
H37 C19 0.929 . S
H38 C20 0.928 . S
H39 C22 0.932 . S
C40 C41 1.264 . S
C40 C45 1.479 . S
C40 C50 1.465 . S
C41 C40 1.264 . S
C41 C43 1.339 . S
C41 H68 0.931 . S
C42 C43 1.395 . S
C42 C44 1.320 . S
C43 C41 1.339 . S
C43 C42 1.395 . S
C43 H69 0.929 . S
C44 C42 1.320 . S
C44 C45 1.405 . S
C44 H70 0.930 . S
C45 C40 1.479 . S
C45 C44 1.405 . S
C45 H71 0.931 . S
U46 O47 2.454 . S
U46 O48 2.458 . S
U46 C49 2.984 . S
U46 C50 2.847 . S
U46 C63 2.882 . S
U46 O64 2.441 . S
U46 O65 2.420 . S
U46 O66 2.455 . S
U46 O67 2.449 . S
O47 U46 2.454 . S
O47 C49 1.353 . S
O48 U46 2.458 . S
O48 C49 1.286 . S
C49 U46 2.984 . S
C49 O47 1.353 . S
C49 O48 1.286 . S
C49 C51 1.363 . S
C50 C40 1.465 . S
C50 U46 2.847 . S
C50 O64 1.249 . S
C50 O65 1.202 . S
C51 C49 1.363 . S
C51 C53 1.408 . S
C51 C56 1.342 . S
C52 C53 1.310 . S
C52 C55 1.461 . S
C52 H72 0.932 . S
C53 C51 1.408 . S
C53 C52 1.310 . S
C53 H73 0.930 . S
C54 C55 1.474 . S
C54 C56 1.285 . S
C54 H74 0.929 . S
C55 C52 1.461 . S
C55 C54 1.474 . S
C56 C51 1.342 . S
C56 C54 1.285 . S
C56 H75 0.930 . S
C57 C60 1.424 . S
C57 C62 1.245 . S
C57 C63 1.428 . S
C58 C61 1.260 . S
C58 C62 1.477 . S
C58 H76 0.932 . S
C59 C60 1.384 . S
C59 C61 1.479 . S
C59 H77 0.929 . S
C60 C57 1.424 . S
C60 C59 1.384 . S
C60 H78 0.928 . S
C61 C58 1.260 . S
C61 C59 1.479 . S
C62 C57 1.245 . S
C62 C58 1.477 . S
C62 H79 0.932 . S
C63 U46 2.882 . S
C63 C57 1.428 . S
C63 O66 1.301 . S
C63 O67 1.282 . S
O64 U46 2.441 . S
O64 C50 1.249 . S
O65 U46 2.420 . S
O65 C50 1.202 . S
O66 U46 2.455 . S
O66 C63 1.301 . S
O67 U46 2.449 . S
O67 C63 1.282 . S
H68 C41 0.931 . S
H69 C43 0.929 . S
H70 C44 0.930 . S
H71 C45 0.931 . S
H72 C52 0.932 . S
H73 C53 0.930 . S
H74 C54 0.929 . S
H75 C56 0.930 . S
H76 C58 0.932 . S
H77 C59 0.929 . S
H78 C60 0.928 . S
H79 C62 0.932 . S
C80 C81 1.264 . S
C80 C85 1.479 1_554 S
C80 C90 1.465 . S
C81 C80 1.264 . S
C81 C83 1.339 . S
C81 H108 0.931 . S
C82 C83 1.395 1_556 S
C82 C84 1.320 . S
C83 C81 1.339 . S
C83 C82 1.395 1_554 S
C83 H109 0.929 . S
C84 C82 1.320 . S
C84 C85 1.405 . S
C84 H110 0.930 . S
C85 C80 1.479 1_556 S
C85 C84 1.405 . S
C85 H111 0.931 . S
U86 O87 2.454 . S
U86 O88 2.458 . S
U86 C89 2.984 . S
U86 C90 2.847 . S
U86 C103 2.882 . S
U86 O104 2.441 . S
U86 O105 2.420 . S
U86 O106 2.455 . S
U86 O107 2.449 . S
O87 U86 2.454 . S
O87 C89 1.353 . S
O88 U86 2.458 . S
O88 C89 1.286 . S
C89 U86 2.984 . S
C89 O87 1.353 . S
C89 O88 1.286 . S
C89 C91 1.363 . S
C90 C80 1.465 . S
C90 U86 2.847 . S
C90 O104 1.249 . S
C90 O105 1.202 . S
C91 C89 1.363 . S
C91 C93 1.408 . S
C91 C96 1.342 . S
C92 C93 1.310 . S
C92 C95 1.461 . S
C92 H112 0.932 . S
C93 C91 1.408 . S
C93 C92 1.310 . S
C93 H113 0.930 . S
C94 C95 1.474 . S
C94 C96 1.285 . S
C94 H114 0.929 . S
C95 C92 1.461 . S
C95 C94 1.474 . S
C96 C91 1.342 . S
C96 C94 1.285 . S
C96 H115 0.930 . S
C97 C100 1.424 1_655 S
C97 C102 1.245 . S
C97 C103 1.428 . S
C98 C101 1.260 1_655 S
C98 C102 1.477 . S
C98 H116 0.932 . S
C99 C100 1.384 . S
C99 C101 1.479 . S
C99 H117 0.929 . S
C100 C97 1.424 1_455 S
C100 C99 1.384 . S
C100 H118 0.928 . S
C101 C98 1.260 1_455 S
C101 C99 1.479 . S
C102 C97 1.245 . S
C102 C98 1.477 . S
C102 H119 0.932 . S
C103 U86 2.882 . S
C103 C97 1.428 . S
C103 O106 1.301 . S
C103 O107 1.282 . S
O104 U86 2.441 . S
O104 C90 1.249 . S
O105 U86 2.420 . S
O105 C90 1.202 . S
O106 U86 2.455 . S
O106 C103 1.301 . S
O107 U86 2.449 . S
O107 C103 1.282 . S
H108 C81 0.931 . S
H109 C83 0.929 . S
H110 C84 0.930 . S
H111 C85 0.931 . S
H112 C92 0.932 . S
H113 C93 0.930 . S
H114 C94 0.929 . S
H115 C96 0.930 . S
H116 C98 0.932 . S
H117 C99 0.929 . S
H118 C100 0.928 . S
H119 C102 0.932 . S
C120 C121 1.264 . S
C120 C125 1.479 . S
C120 C130 1.465 . S
C121 C120 1.264 . S
C121 C123 1.339 . S
C121 H148 0.931 . S
C122 C123 1.395 . S
C122 C124 1.320 . S
C123 C121 1.339 . S
C123 C122 1.395 . S
C123 H149 0.929 . S
C124 C122 1.320 . S
C124 C125 1.405 . S
C124 H150 0.930 . S
C125 C120 1.479 . S
C125 C124 1.405 . S
C125 H151 0.931 . S
U126 O127 2.454 . S
U126 O128 2.458 . S
U126 C129 2.984 . S
U126 C130 2.847 . S
U126 C143 2.882 . S
U126 O144 2.441 . S
U126 O145 2.420 . S
U126 O146 2.455 . S
U126 O147 2.449 . S
O127 U126 2.454 . S
O127 C129 1.353 . S
O128 U126 2.458 . S
O128 C129 1.286 . S
C129 U126 2.984 . S
C129 O127 1.353 . S
C129 O128 1.286 . S
C129 C131 1.363 . S
C130 C120 1.465 . S
C130 U126 2.847 . S
C130 O144 1.249 . S
C130 O145 1.202 . S
C131 C129 1.363 . S
C131 C133 1.408 . S
C131 C136 1.342 . S
C132 C133 1.310 . S
C132 C135 1.461 . S
C132 H152 0.932 . S
C133 C131 1.408 . S
C133 C132 1.310 . S
C133 H153 0.930 . S
C134 C135 1.474 . S
C134 C136 1.285 . S
C134 H154 0.929 . S
C135 C132 1.461 . S
C135 C134 1.474 . S
C136 C131 1.342 . S
C136 C134 1.285 . S
C136 H155 0.930 . S
C137 C140 1.424 . S
C137 C142 1.245 . S
C137 C143 1.428 . S
C138 C141 1.260 . S
C138 C142 1.477 . S
C138 H156 0.932 . S
C139 C140 1.384 . S
C139 C141 1.479 . S
C139 H157 0.929 . S
C140 C137 1.424 . S
C140 C139 1.384 . S
C140 H158 0.928 . S
C141 C138 1.260 . S
C141 C139 1.479 . S
C142 C137 1.245 . S
C142 C138 1.477 . S
C142 H159 0.932 . S
C143 U126 2.882 . S
C143 C137 1.428 . S
C143 O146 1.301 . S
C143 O147 1.282 . S
O144 U126 2.441 . S
O144 C130 1.249 . S
O145 U126 2.420 . S
O145 C130 1.202 . S
O146 U126 2.455 . S
O146 C143 1.301 . S
O147 U126 2.449 . S
O147 C143 1.282 . S
H148 C121 0.931 . S
H149 C123 0.929 . S
H150 C124 0.930 . S
H151 C125 0.931 . S
H152 C132 0.932 . S
H153 C133 0.930 . S
H154 C134 0.929 . S
H155 C136 0.930 . S
H156 C138 0.932 . S
H157 C139 0.929 . S
H158 C140 0.928 . S
H159 C142 0.932 . S
C160 C161 1.264 . S
C160 C165 1.479 1_455 S
C160 C170 1.465 . S
C161 C160 1.264 . S
C161 C163 1.339 . S
C161 H188 0.931 . S
C162 C163 1.395 1_655 S
C162 C164 1.320 . S
C163 C161 1.339 . S
C163 C162 1.395 1_455 S
C163 H189 0.929 . S
C164 C162 1.320 . S
C164 C165 1.405 . S
C164 H190 0.930 . S
C165 C160 1.479 1_655 S
C165 C164 1.405 . S
C165 H191 0.931 . S
U166 O167 2.454 . S
U166 O168 2.458 . S
U166 C169 2.984 . S
U166 C170 2.847 . S
U166 C183 2.882 . S
U166 O184 2.441 . S
U166 O185 2.420 . S
U166 O186 2.455 . S
U166 O187 2.449 . S
O167 U166 2.454 . S
O167 C169 1.353 . S
O168 U166 2.458 . S
O168 C169 1.286 . S
C169 U166 2.984 . S
C169 O167 1.353 . S
C169 O168 1.286 . S
C169 C171 1.363 . S
C170 C160 1.465 . S
C170 U166 2.847 . S
C170 O184 1.249 . S
C170 O185 1.202 . S
C171 C169 1.363 . S
C171 C173 1.408 . S
C171 C176 1.342 . S
C172 C173 1.310 . S
C172 C175 1.461 . S
C172 H192 0.932 . S
C173 C171 1.408 . S
C173 C172 1.310 . S
C173 H193 0.930 . S
C174 C175 1.474 . S
C174 C176 1.285 . S
C174 H194 0.929 . S
C175 C172 1.461 . S
C175 C174 1.474 . S
C176 C171 1.342 . S
C176 C174 1.285 . S
C176 H195 0.930 . S
C177 C180 1.424 1_565 S
C177 C182 1.245 . S
C177 C183 1.428 . S
C178 C181 1.249 1_565 S
C178 C182 1.487 . S
C178 H196 0.929 . S
C179 C180 1.384 . S
C179 C181 1.479 . S
C179 H197 0.929 . S
C180 C177 1.424 1_545 S
C180 C179 1.384 . S
C180 H198 0.928 . S
C181 C178 1.249 1_545 S
C181 C179 1.479 . S
C182 C177 1.245 . S
C182 C178 1.487 . S
C182 H199 0.932 . S
C183 U166 2.882 . S
C183 C177 1.428 . S
C183 O186 1.301 . S
C183 O187 1.282 . S
O184 U166 2.441 . S
O184 C170 1.249 . S
O185 U166 2.420 . S
O185 C170 1.202 . S
O186 U166 2.455 . S
O186 C183 1.301 . S
O187 U166 2.449 . S
O187 C183 1.282 . S
H188 C161 0.931 . S
H189 C163 0.929 . S
H190 C164 0.930 . S
H191 C165 0.931 . S
H192 C172 0.932 . S
H193 C173 0.930 . S
H194 C174 0.929 . S
H195 C176 0.930 . S
H196 C178 0.929 . S
H197 C179 0.929 . S
H198 C180 0.928 . S
H199 C182 0.932 . S
C200 C201 1.264 . S
C200 C205 1.479 . S
C200 C210 1.465 . S
C201 C200 1.264 . S
C201 C203 1.339 . S
C201 H228 0.931 . S
C202 C203 1.395 . S
C202 C204 1.320 . S
C203 C201 1.339 . S
C203 C202 1.395 . S
C203 H229 0.929 . S
C204 C202 1.320 . S
C204 C205 1.405 . S
C204 H230 0.930 . S
C205 C200 1.479 . S
C205 C204 1.405 . S
C205 H231 0.931 . S
U206 O207 2.454 . S
U206 O208 2.458 . S
U206 C209 2.984 . S
U206 C210 2.847 . S
U206 C223 2.882 . S
U206 O224 2.441 . S
U206 O225 2.420 . S
U206 O226 2.455 . S
U206 O227 2.449 . S
O207 U206 2.454 . S
O207 C209 1.353 . S
O208 U206 2.458 . S
O208 C209 1.286 . S
C209 U206 2.984 . S
C209 O207 1.353 . S
C209 O208 1.286 . S
C209 C211 1.363 . S
C210 C200 1.465 . S
C210 U206 2.847 . S
C210 O224 1.249 . S
C210 O225 1.202 . S
C211 C209 1.363 . S
C211 C213 1.408 . S
C211 C216 1.342 . S
C212 C213 1.310 . S
C212 C215 1.461 . S
C212 H232 0.932 . S
C213 C211 1.408 . S
C213 C212 1.310 . S
C213 H233 0.930 . S
C214 C215 1.474 . S
C214 C216 1.285 . S
C214 H234 0.929 . S
C215 C212 1.461 . S
C215 C214 1.474 . S
C216 C211 1.342 . S
C216 C214 1.285 . S
C216 H235 0.930 . S
C217 C220 1.424 . S
C217 C222 1.245 . S
C217 C223 1.428 . S
C218 C221 1.260 . S
C218 C222 1.477 . S
C218 H236 0.932 . S
C219 C220 1.384 . S
C219 C221 1.479 . S
C219 H237 0.929 . S
C220 C217 1.424 . S
C220 C219 1.384 . S
C220 H238 0.928 . S
C221 C218 1.260 . S
C221 C219 1.479 . S
C222 C217 1.245 . S
C222 C218 1.477 . S
C222 H239 0.932 . S
C223 U206 2.882 . S
C223 C217 1.428 . S
C223 O226 1.301 . S
C223 O227 1.282 . S
O224 U206 2.441 . S
O224 C210 1.249 . S
O225 U206 2.420 . S
O225 C210 1.202 . S
O226 U206 2.455 . S
O226 C223 1.301 . S
O227 U206 2.449 . S
O227 C223 1.282 . S
H228 C201 0.931 . S
H229 C203 0.929 . S
H230 C204 0.930 . S
H231 C205 0.931 . S
H232 C212 0.932 . S
H233 C213 0.930 . S
H234 C214 0.929 . S
H235 C216 0.930 . S
H236 C218 0.932 . S
H237 C219 0.929 . S
H238 C220 0.928 . S
H239 C222 0.932 . S
C240 C241 1.264 . S
C240 C245 1.479 . S
C240 C250 1.465 . S
C241 C240 1.264 . S
C241 C243 1.339 . S
C241 H268 0.931 . S
C242 C243 1.395 . S
C242 C244 1.320 . S
C243 C241 1.339 . S
C243 C242 1.395 . S
C243 H269 0.929 . S
C244 C242 1.320 . S
C244 C245 1.405 . S
C244 H270 0.930 . S
C245 C240 1.479 . S
C245 C244 1.405 . S
C245 H271 0.931 . S
U246 O247 2.454 . S
U246 O248 2.458 . S
U246 C249 2.984 . S
U246 C250 2.847 . S
U246 C263 2.882 . S
U246 O264 2.441 . S
U246 O265 2.420 . S
U246 O266 2.455 . S
U246 O267 2.449 . S
O247 U246 2.454 . S
O247 C249 1.353 . S
O248 U246 2.458 . S
O248 C249 1.286 . S
C249 U246 2.984 . S
C249 O247 1.353 . S
C249 O248 1.286 . S
C249 C251 1.363 . S
C250 C240 1.465 . S
C250 U246 2.847 . S
C250 O264 1.249 . S
C250 O265 1.202 . S
C251 C249 1.363 . S
C251 C253 1.408 . S
C251 C256 1.342 . S
C252 C253 1.310 . S
C252 C255 1.461 . S
C252 H272 0.932 . S
C253 C251 1.408 . S
C253 C252 1.310 . S
C253 H273 0.930 . S
C254 C255 1.474 . S
C254 C256 1.285 . S
C254 H274 0.929 . S
C255 C252 1.461 . S
C255 C254 1.474 . S
C256 C251 1.342 . S
C256 C254 1.285 . S
C256 H275 0.930 . S
C257 C260 1.424 1_655 S
C257 C262 1.245 . S
C257 C263 1.428 . S
C258 C261 1.260 . S
C258 C262 1.477 1_455 S
C258 H276 0.932 . S
C259 C260 1.384 . S
C259 C261 1.479 . S
C259 H277 0.929 . S
C260 C257 1.424 1_455 S
C260 C259 1.384 . S
C260 H278 0.928 . S
C261 C258 1.260 . S
C261 C259 1.479 . S
C262 C257 1.245 . S
C262 C258 1.477 1_655 S
C262 H279 0.932 . S
C263 U246 2.882 . S
C263 C257 1.428 . S
C263 O266 1.301 . S
C263 O267 1.282 . S
O264 U246 2.441 . S
O264 C250 1.249 . S
O265 U246 2.420 . S
O265 C250 1.202 . S
O266 U246 2.455 . S
O266 C263 1.301 . S
O267 U246 2.449 . S
O267 C263 1.282 . S
H268 C241 0.931 . S
H269 C243 0.929 . S
H270 C244 0.930 . S
H271 C245 0.931 . S
H272 C252 0.932 . S
H273 C253 0.930 . S
H274 C254 0.929 . S
H275 C256 0.930 . S
H276 C258 0.932 . S
H277 C259 0.929 . S
H278 C260 0.928 . S
H279 C262 0.932 . S
C280 C281 1.264 . S
C280 C285 1.479 . S
C280 C290 1.465 . S
C281 C280 1.264 . S
C281 C283 1.339 . S
C281 H308 0.931 . S
C282 C283 1.395 . S
C282 C284 1.320 . S
C283 C281 1.339 . S
C283 C282 1.395 . S
C283 H309 0.929 . S
C284 C282 1.320 . S
C284 C285 1.405 . S
C284 H310 0.930 . S
C285 C280 1.479 . S
C285 C284 1.405 . S
C285 H311 0.931 . S
U286 O287 2.454 . S
U286 O288 2.458 . S
U286 C289 2.984 . S
U286 C290 2.847 . S
U286 C303 2.882 . S
U286 O304 2.441 . S
U286 O305 2.420 . S
U286 O306 2.455 . S
U286 O307 2.449 . S
O287 U286 2.454 . S
O287 C289 1.353 . S
O288 U286 2.458 . S
O288 C289 1.286 . S
C289 U286 2.984 . S
C289 O287 1.353 . S
C289 O288 1.286 . S
C289 C291 1.363 . S
C290 C280 1.465 . S
C290 U286 2.847 . S
C290 O304 1.249 . S
C290 O305 1.202 . S
C291 C289 1.363 . S
C291 C293 1.408 . S
C291 C296 1.342 . S
C292 C293 1.310 . S
C292 C295 1.461 . S
C292 H312 0.932 . S
C293 C291 1.408 . S
C293 C292 1.310 . S
C293 H313 0.930 . S
C294 C295 1.474 . S
C294 C296 1.285 . S
C294 H314 0.929 . S
C295 C292 1.461 . S
C295 C294 1.474 . S
C296 C291 1.342 . S
C296 C294 1.285 . S
C296 H315 0.930 . S
C297 C300 1.424 . S
C297 C302 1.245 . S
C297 C303 1.428 . S
C298 C301 1.260 . S
C298 C302 1.477 . S
C298 H316 0.932 . S
C299 C300 1.384 . S
C299 C301 1.479 . S
C299 H317 0.929 . S
C300 C297 1.424 . S
C300 C299 1.384 . S
C300 H318 0.928 . S
C301 C298 1.260 . S
C301 C299 1.479 . S
C302 C297 1.245 . S
C302 C298 1.477 . S
C302 H319 0.932 . S
C303 U286 2.882 . S
C303 C297 1.428 . S
C303 O306 1.301 . S
C303 O307 1.282 . S
O304 U286 2.441 . S
O304 C290 1.249 . S
O305 U286 2.420 . S
O305 C290 1.202 . S
O306 U286 2.455 . S
O306 C303 1.301 . S
O307 U286 2.449 . S
O307 C303 1.282 . S
H308 C281 0.931 . S
H309 C283 0.929 . S
H310 C284 0.930 . S
H311 C285 0.931 . S
H312 C292 0.932 . S
H313 C293 0.930 . S
H314 C294 0.929 . S
H315 C296 0.930 . S
H316 C298 0.932 . S
H317 C299 0.929 . S
H318 C300 0.928 . S
H319 C302 0.932 . S
C320 C321 1.264 . S
C320 C325 1.479 . S
C320 C330 1.465 . S
C321 C320 1.264 . S
C321 C323 1.339 . S
C321 H348 0.931 . S
C322 C323 1.395 . S
C322 C324 1.320 . S
C323 C321 1.339 . S
C323 C322 1.395 . S
C323 H349 0.929 . S
C324 C322 1.320 . S
C324 C325 1.405 . S
C324 H350 0.930 . S
C325 C320 1.479 . S
C325 C324 1.405 . S
C325 H351 0.931 . S
U326 O327 2.454 . S
U326 O328 2.458 . S
U326 C329 2.984 . S
U326 C330 2.847 . S
U326 C343 2.882 . S
U326 O344 2.441 . S
U326 O345 2.420 . S
U326 O346 2.455 . S
U326 O347 2.449 . S
O327 U326 2.454 . S
O327 C329 1.353 . S
O328 U326 2.458 . S
O328 C329 1.286 . S
C329 U326 2.984 . S
C329 O327 1.353 . S
C329 O328 1.286 . S
C329 C331 1.363 . S
C330 C320 1.465 . S
C330 U326 2.847 . S
C330 O344 1.249 . S
C330 O345 1.202 . S
C331 C329 1.363 . S
C331 C333 1.408 . S
C331 C336 1.342 . S
C332 C333 1.310 . S
C332 C335 1.461 . S
C332 H352 0.932 . S
C333 C331 1.408 . S
C333 C332 1.310 . S
C333 H353 0.930 . S
C334 C335 1.474 . S
C334 C336 1.285 . S
C334 H354 0.929 . S
C335 C332 1.461 . S
C335 C334 1.474 . S
C336 C331 1.342 . S
C336 C334 1.285 . S
C336 H355 0.930 . S
C337 C340 1.424 . S
C337 C342 1.245 . S
C337 C343 1.428 . S
C338 C341 1.260 . S
C338 C342 1.477 . S
C338 H356 0.932 . S
C339 C340 1.384 . S
C339 C341 1.479 . S
C339 H357 0.929 . S
C340 C337 1.424 . S
C340 C339 1.384 . S
C340 H358 0.928 . S
C341 C338 1.260 . S
C341 C339 1.479 . S
C342 C337 1.245 . S
C342 C338 1.477 . S
C342 H359 0.932 . S
C343 U326 2.882 . S
C343 C337 1.428 . S
C343 O346 1.301 . S
C343 O347 1.282 . S
O344 U326 2.441 . S
O344 C330 1.249 . S
O345 U326 2.420 . S
O345 C330 1.202 . S
O346 U326 2.455 . S
O346 C343 1.301 . S
O347 U326 2.449 . S
O347 C343 1.282 . S
H348 C321 0.931 . S
H349 C323 0.929 . S
H350 C324 0.930 . S
H351 C325 0.931 . S
H352 C332 0.932 . S
H353 C333 0.930 . S
H354 C334 0.929 . S
H355 C336 0.930 . S
H356 C338 0.932 . S
H357 C339 0.929 . S
H358 C340 0.928 . S
H359 C342 0.932 . S
C360 C361 1.264 . S
C360 C365 1.479 . S
C360 C370 1.465 . S
C361 C360 1.264 . S
C361 C363 1.339 . S
C361 H388 0.931 . S
C362 C363 1.395 . S
C362 C364 1.320 . S
C363 C361 1.339 . S
C363 C362 1.395 . S
C363 H389 0.929 . S
C364 C362 1.320 . S
C364 C365 1.405 . S
C364 H390 0.930 . S
C365 C360 1.479 . S
C365 C364 1.405 . S
C365 H391 0.931 . S
U366 O367 2.454 . S
U366 O368 2.458 . S
U366 C369 2.984 . S
U366 C370 2.847 . S
U366 C383 2.882 . S
U366 O384 2.441 . S
U366 O385 2.420 . S
U366 O386 2.455 . S
U366 O387 2.449 . S
O367 U366 2.454 . S
O367 C369 1.353 . S
O368 U366 2.458 . S
O368 C369 1.286 . S
C369 U366 2.984 . S
C369 O367 1.353 . S
C369 O368 1.286 . S
C369 C371 1.363 . S
C370 C360 1.465 . S
C370 U366 2.847 . S
C370 O384 1.249 . S
C370 O385 1.202 . S
C371 C369 1.363 . S
C371 C373 1.408 . S
C371 C376 1.342 1_565 S
C372 C373 1.310 1_545 S
C372 C375 1.461 . S
C372 H392 0.937 . S
C373 C371 1.408 . S
C373 C372 1.310 1_565 S
C373 H393 0.930 . S
C374 C375 1.474 . S
C374 C376 1.285 . S
C374 H394 0.929 . S
C375 C372 1.461 . S
C375 C374 1.474 . S
C376 C371 1.342 1_545 S
C376 C374 1.285 . S
C376 H395 0.930 . S
C377 C380 1.424 . S
C377 C382 1.245 . S
C377 C383 1.428 . S
C378 C381 1.260 . S
C378 C382 1.477 . S
C378 H396 0.932 . S
C379 C380 1.384 . S
C379 C381 1.479 . S
C379 H397 0.929 . S
C380 C377 1.424 . S
C380 C379 1.384 . S
C380 H398 0.928 . S
C381 C378 1.260 . S
C381 C379 1.479 . S
C382 C377 1.245 . S
C382 C378 1.477 . S
C382 H399 0.932 . S
C383 U366 2.882 . S
C383 C377 1.428 . S
C383 O386 1.301 . S
C383 O387 1.282 . S
O384 U366 2.441 . S
O384 C370 1.249 . S
O385 U366 2.420 . S
O385 C370 1.202 . S
O386 U366 2.455 . S
O386 C383 1.301 . S
O387 U366 2.449 . S
O387 C383 1.282 . S
H388 C361 0.931 . S
H389 C363 0.929 . S
H390 C364 0.930 . S
H391 C365 0.931 . S
H392 C372 0.937 . S
H393 C373 0.930 . S
H394 C374 0.929 . S
H395 C376 0.930 . S
H396 C378 0.932 . S
H397 C379 0.929 . S
H398 C380 0.928 . S
H399 C382 0.932 . S
C400 C401 1.264 . S
C400 C405 1.479 . S
C400 C410 1.465 . S
C401 C400 1.264 . S
C401 C403 1.339 . S
C401 H428 0.931 . S
C402 C403 1.395 . S
C402 C404 1.320 . S
C403 C401 1.339 . S
C403 C402 1.395 . S
C403 H429 0.929 . S
C404 C402 1.320 . S
C404 C405 1.405 . S
C404 H430 0.930 . S
C405 C400 1.479 . S
C405 C404 1.405 . S
C405 H431 0.931 . S
U406 O407 2.454 . S
U406 O408 2.458 . S
U406 C409 2.984 . S
U406 C410 2.847 . S
U406 C423 2.882 . S
U406 O424 2.441 . S
U406 O425 2.420 . S
U406 O426 2.455 . S
U406 O427 2.449 . S
O407 U406 2.454 . S
O407 C409 1.353 . S
O408 U406 2.458 . S
O408 C409 1.286 . S
C409 U406 2.984 . S
C409 O407 1.353 . S
C409 O408 1.286 . S
C409 C411 1.363 . S
C410 C400 1.465 . S
C410 U406 2.847 . S
C410 O424 1.249 . S
C410 O425 1.202 . S
C411 C409 1.363 . S
C411 C413 1.408 . S
C411 C416 1.342 . S
C412 C413 1.310 . S
C412 C415 1.461 . S
C412 H432 0.932 . S
C413 C411 1.408 . S
C413 C412 1.310 . S
C413 H433 0.930 . S
C414 C415 1.474 . S
C414 C416 1.285 . S
C414 H434 0.929 . S
C415 C412 1.461 . S
C415 C414 1.474 . S
C416 C411 1.342 . S
C416 C414 1.285 . S
C416 H435 0.930 . S
C417 C420 1.424 . S
C417 C422 1.245 . S
C417 C423 1.428 . S
C418 C421 1.260 . S
C418 C422 1.477 . S
C418 H436 0.932 . S
C419 C420 1.384 . S
C419 C421 1.479 . S
C419 H437 0.929 . S
C420 C417 1.424 . S
C420 C419 1.384 . S
C420 H438 0.928 . S
C421 C418 1.260 . S
C421 C419 1.479 . S
C422 C417 1.245 . S
C422 C418 1.477 . S
C422 H439 0.932 . S
C423 U406 2.882 . S
C423 C417 1.428 . S
C423 O426 1.301 . S
C423 O427 1.282 . S
O424 U406 2.441 . S
O424 C410 1.249 . S
O425 U406 2.420 . S
O425 C410 1.202 . S
O426 U406 2.455 . S
O426 C423 1.301 . S
O427 U406 2.449 . S
O427 C423 1.282 . S
H428 C401 0.931 . S
H429 C403 0.929 . S
H430 C404 0.930 . S
H431 C405 0.931 . S
H432 C412 0.932 . S
H433 C413 0.930 . S
H434 C414 0.929 . S
H435 C416 0.930 . S
H436 C418 0.932 . S
H437 C419 0.929 . S
H438 C420 0.928 . S
H439 C422 0.932 . S
C440 C441 1.264 . S
C440 C445 1.479 . S
C440 C450 1.465 . S
C441 C440 1.264 . S
C441 C443 1.339 . S
C441 H468 0.931 . S
C442 C443 1.395 . S
C442 C444 1.320 . S
C443 C441 1.339 . S
C443 C442 1.395 . S
C443 H469 0.929 . S
C444 C442 1.320 . S
C444 C445 1.405 . S
C444 H470 0.930 . S
C445 C440 1.479 . S
C445 C444 1.405 . S
C445 H471 0.931 . S
U446 O447 2.454 . S
U446 O448 2.458 . S
U446 C449 2.984 . S
U446 C450 2.847 . S
U446 C463 2.882 . S
U446 O464 2.441 . S
U446 O465 2.420 . S
U446 O466 2.455 . S
U446 O467 2.449 . S
O447 U446 2.454 . S
O447 C449 1.353 . S
O448 U446 2.458 . S
O448 C449 1.286 . S
C449 U446 2.984 . S
C449 O447 1.353 . S
C449 O448 1.286 . S
C449 C451 1.363 . S
C450 C440 1.465 . S
C450 U446 2.847 . S
C450 O464 1.249 . S
C450 O465 1.202 . S
C451 C449 1.363 . S
C451 C453 1.408 . S
C451 C456 1.342 . S
C452 C453 1.310 . S
C452 C455 1.461 . S
C452 H472 0.932 . S
C453 C451 1.408 . S
C453 C452 1.310 . S
C453 H473 0.930 . S
C454 C455 1.474 . S
C454 C456 1.285 . S
C454 H474 0.929 . S
C455 C452 1.461 . S
C455 C454 1.474 . S
C456 C451 1.342 . S
C456 C454 1.285 . S
C456 H475 0.930 . S
C457 C460 1.424 . S
C457 C462 1.245 . S
C457 C463 1.428 . S
C458 C461 1.260 . S
C458 C462 1.477 . S
C458 H476 0.932 . S
C459 C460 1.384 . S
C459 C461 1.479 . S
C459 H477 0.929 . S
C460 C457 1.424 . S
C460 C459 1.384 . S
C460 H478 0.928 . S
C461 C458 1.260 . S
C461 C459 1.479 . S
C462 C457 1.245 . S
C462 C458 1.477 . S
C462 H479 0.932 . S
C463 U446 2.882 . S
C463 C457 1.428 . S
C463 O466 1.301 . S
C463 O467 1.282 . S
O464 U446 2.441 . S
O464 C450 1.249 . S
O465 U446 2.420 . S
O465 C450 1.202 . S
O466 U446 2.455 . S
O466 C463 1.301 . S
O467 U446 2.449 . S
O467 C463 1.282 . S
H468 C441 0.931 . S
H469 C443 0.929 . S
H470 C444 0.930 . S
H471 C445 0.931 . S
H472 C452 0.932 . S
H473 C453 0.930 . S
H474 C454 0.929 . S
H475 C456 0.930 . S
H476 C458 0.932 . S
H477 C459 0.929 . S
H478 C460 0.928 . S
H479 C462 0.932 . S
C480 C481 1.264 . S
C480 C485 1.479 . S
C480 C490 1.465 . S
C481 C480 1.264 . S
C481 C483 1.339 . S
C481 H508 0.931 . S
C482 C483 1.395 . S
C482 C484 1.320 . S
C483 C481 1.339 . S
C483 C482 1.395 . S
C483 H509 0.929 . S
C484 C482 1.320 . S
C484 C485 1.405 . S
C484 H510 0.930 . S
C485 C480 1.479 . S
C485 C484 1.405 . S
C485 H511 0.931 . S
U486 O487 2.454 . S
U486 O488 2.458 . S
U486 C489 2.984 . S
U486 C490 2.847 . S
U486 C503 2.882 . S
U486 O504 2.441 . S
U486 O505 2.420 . S
U486 O506 2.455 . S
U486 O507 2.449 . S
O487 U486 2.454 . S
O487 C489 1.353 . S
O488 U486 2.458 . S
O488 C489 1.286 . S
C489 U486 2.984 . S
C489 O487 1.353 . S
C489 O488 1.286 . S
C489 C491 1.363 . S
C490 C480 1.465 . S
C490 U486 2.847 . S
C490 O504 1.249 . S
C490 O505 1.202 . S
C491 C489 1.363 . S
C491 C493 1.408 . S
C491 C496 1.342 . S
C492 C493 1.310 . S
C492 C495 1.461 . S
C492 H512 0.932 . S
C493 C491 1.408 . S
C493 C492 1.310 . S
C493 H513 0.930 . S
C494 C495 1.474 . S
C494 C496 1.285 . S
C494 H514 0.929 . S
C495 C492 1.461 . S
C495 C494 1.474 . S
C496 C491 1.342 . S
C496 C494 1.285 . S
C496 H515 0.930 . S
C497 C500 1.424 . S
C497 C502 1.245 . S
C497 C503 1.428 . S
C498 C501 1.260 . S
C498 C502 1.477 . S
C498 H516 0.932 . S
C499 C500 1.384 . S
C499 C501 1.479 . S
C499 H517 0.929 . S
C500 C497 1.424 . S
C500 C499 1.384 . S
C500 H518 0.928 . S
C501 C498 1.260 . S
C501 C499 1.479 . S
C502 C497 1.245 . S
C502 C498 1.477 . S
C502 H519 0.932 . S
C503 U486 2.882 . S
C503 C497 1.428 . S
C503 O506 1.301 . S
C503 O507 1.282 . S
O504 U486 2.441 . S
O504 C490 1.249 . S
O505 U486 2.420 . S
O505 C490 1.202 . S
O506 U486 2.455 . S
O506 C503 1.301 . S
O507 U486 2.449 . S
O507 C503 1.282 . S
H508 C481 0.931 . S
H509 C483 0.929 . S
H510 C484 0.930 . S
H511 C485 0.931 . S
H512 C492 0.932 . S
H513 C493 0.930 . S
H514 C494 0.929 . S
H515 C496 0.930 . S
H516 C498 0.932 . S
H517 C499 0.929 . S
H518 C500 0.928 . S
H519 C502 0.932 . S
C520 C521 1.264 . S
C520 C525 1.479 . S
C520 C530 1.465 . S
C521 C520 1.264 . S
C521 C523 1.339 . S
C521 H548 0.931 . S
C522 C523 1.395 . S
C522 C524 1.320 . S
C523 C521 1.339 . S
C523 C522 1.395 . S
C523 H549 0.929 . S
C524 C522 1.320 . S
C524 C525 1.405 . S
C524 H550 0.930 . S
C525 C520 1.479 . S
C525 C524 1.405 . S
C525 H551 0.931 . S
U526 O527 2.454 . S
U526 O528 2.458 . S
U526 C529 2.984 . S
U526 C530 2.847 . S
U526 C543 2.882 . S
U526 O544 2.441 . S
U526 O545 2.420 . S
U526 O546 2.455 . S
U526 O547 2.449 . S
O527 U526 2.454 . S
O527 C529 1.353 . S
O528 U526 2.458 . S
O528 C529 1.286 . S
C529 U526 2.984 . S
C529 O527 1.353 . S
C529 O528 1.286 . S
C529 C531 1.363 . S
C530 C520 1.465 . S
C530 U526 2.847 . S
C530 O544 1.249 . S
C530 O545 1.202 . S
C531 C529 1.363 . S
C531 C533 1.408 . S
C531 C536 1.342 1_556 S
C532 C533 1.310 1_554 S
C532 C535 1.461 . S
C532 H552 0.928 1_554 S
C533 C531 1.408 . S
C533 C532 1.310 1_556 S
C533 H553 0.930 . S
C534 C535 1.474 . S
C534 C536 1.285 . S
C534 H554 0.929 . S
C535 C532 1.461 . S
C535 C534 1.474 . S
C536 C531 1.342 1_554 S
C536 C534 1.285 . S
C536 H555 0.930 . S
C537 C540 1.424 . S
C537 C542 1.245 . S
C537 C543 1.428 . S
C538 C541 1.260 . S
C538 C542 1.477 . S
C538 H556 0.932 . S
C539 C540 1.384 . S
C539 C541 1.479 . S
C539 H557 0.929 . S
C540 C537 1.424 . S
C540 C539 1.384 . S
C540 H558 0.928 . S
C541 C538 1.260 . S
C541 C539 1.479 . S
C542 C537 1.245 . S
C542 C538 1.477 . S
C542 H559 0.932 . S
C543 U526 2.882 . S
C543 C537 1.428 . S
C543 O546 1.301 . S
C543 O547 1.282 . S
O544 U526 2.441 . S
O544 C530 1.249 . S
O545 U526 2.420 . S
O545 C530 1.202 . S
O546 U526 2.455 . S
O546 C543 1.301 . S
O547 U526 2.449 . S
O547 C543 1.282 . S
H548 C521 0.931 . S
H549 C523 0.929 . S
H550 C524 0.930 . S
H551 C525 0.931 . S
H552 C532 0.928 1_556 S
H553 C533 0.930 . S
H554 C534 0.929 . S
H555 C536 0.930 . S
H556 C538 0.932 . S
H557 C539 0.929 . S
H558 C540 0.928 . S
H559 C542 0.932 . S
C560 C561 1.264 . S
C560 C565 1.479 . S
C560 C570 1.465 . S
C561 C560 1.264 . S
C561 C563 1.339 . S
C561 H588 0.931 . S
C562 C563 1.395 . S
C562 C564 1.320 . S
C563 C561 1.339 . S
C563 C562 1.395 . S
C563 H589 0.929 . S
C564 C562 1.320 . S
C564 C565 1.405 . S
C564 H590 0.930 . S
C565 C560 1.479 . S
C565 C564 1.405 . S
C565 H591 0.931 . S
U566 O567 2.454 . S
U566 O568 2.458 . S
U566 C569 2.984 . S
U566 C570 2.847 . S
U566 C583 2.882 . S
U566 O584 2.441 . S
U566 O585 2.420 . S
U566 O586 2.455 . S
U566 O587 2.449 . S
O567 U566 2.454 . S
O567 C569 1.353 . S
O568 U566 2.458 . S
O568 C569 1.286 . S
C569 U566 2.984 . S
C569 O567 1.353 . S
C569 O568 1.286 . S
C569 C571 1.363 . S
C570 C560 1.465 . S
C570 U566 2.847 . S
C570 O584 1.249 . S
C570 O585 1.202 . S
C571 C569 1.363 . S
C571 C573 1.408 . S
C571 C576 1.342 . S
C572 C573 1.310 . S
C572 C575 1.461 . S
C572 H592 0.932 . S
C573 C571 1.408 . S
C573 C572 1.310 . S
C573 H593 0.930 . S
C574 C575 1.474 . S
C574 C576 1.285 . S
C574 H594 0.929 . S
C575 C572 1.461 . S
C575 C574 1.474 . S
C576 C571 1.342 . S
C576 C574 1.285 . S
C576 H595 0.930 . S
C577 C580 1.424 . S
C577 C582 1.245 . S
C577 C583 1.428 . S
C578 C581 1.260 . S
C578 C582 1.477 . S
C578 H596 0.932 . S
C579 C580 1.384 . S
C579 C581 1.479 . S
C579 H597 0.929 . S
C580 C577 1.424 . S
C580 C579 1.384 . S
C580 H598 0.928 . S
C581 C578 1.260 . S
C581 C579 1.479 . S
C582 C577 1.245 . S
C582 C578 1.477 . S
C582 H599 0.932 . S
C583 U566 2.882 . S
C583 C577 1.428 . S
C583 O586 1.301 . S
C583 O587 1.282 . S
O584 U566 2.441 . S
O584 C570 1.249 . S
O585 U566 2.420 . S
O585 C570 1.202 . S
O586 U566 2.455 . S
O586 C583 1.301 . S
O587 U566 2.449 . S
O587 C583 1.282 . S
H588 C561 0.931 . S
H589 C563 0.929 . S
H590 C564 0.930 . S
H591 C565 0.931 . S
H592 C572 0.932 . S
H593 C573 0.930 . S
H594 C574 0.929 . S
H595 C576 0.930 . S
H596 C578 0.932 . S
H597 C579 0.929 . S
H598 C580 0.928 . S
H599 C582 0.932 . S
C600 C601 1.264 . S
C600 C605 1.479 1_556 S
C600 C610 1.465 . S
C601 C600 1.264 . S
C601 C603 1.339 . S
C601 H628 0.931 . S
C602 C603 1.395 1_554 S
C602 C604 1.320 . S
C603 C601 1.339 . S
C603 C602 1.395 1_556 S
C603 H629 0.929 . S
C604 C602 1.320 . S
C604 C605 1.405 . S
C604 H630 0.930 . S
C605 C600 1.479 1_554 S
C605 C604 1.405 . S
C605 H631 0.931 . S
U606 O607 2.454 . S
U606 O608 2.458 . S
U606 C609 2.984 . S
U606 C610 2.847 . S
U606 C623 2.882 . S
U606 O624 2.441 . S
U606 O625 2.420 . S
U606 O626 2.455 . S
U606 O627 2.449 . S
O607 U606 2.454 . S
O607 C609 1.353 . S
O608 U606 2.458 . S
O608 C609 1.286 . S
C609 U606 2.984 . S
C609 O607 1.353 . S
C609 O608 1.286 . S
C609 C611 1.363 . S
C610 C600 1.465 . S
C610 U606 2.847 . S
C610 O624 1.249 . S
C610 O625 1.202 . S
C611 C609 1.363 . S
C611 C613 1.408 . S
C611 C616 1.337 1_545 S
C612 C613 1.310 . S
C612 C615 1.461 1_545 S
C612 H632 0.932 . S
C613 C611 1.408 . S
C613 C612 1.310 . S
C613 H633 0.930 . S
C614 C615 1.474 . S
C614 C616 1.291 . S
C614 H634 0.929 . S
C615 C612 1.461 1_565 S
C615 C614 1.474 . S
C616 C611 1.337 1_565 S
C616 C614 1.291 . S
C616 H635 0.931 . S
C617 C620 1.424 . S
C617 C622 1.245 . S
C617 C623 1.428 . S
C618 C621 1.260 . S
C618 C622 1.477 . S
C618 H636 0.932 . S
C619 C620 1.384 . S
C619 C621 1.479 . S
C619 H637 0.929 . S
C620 C617 1.424 . S
C620 C619 1.384 . S
C620 H638 0.928 . S
C621 C618 1.260 . S
C621 C619 1.479 . S
C622 C617 1.245 . S
C622 C618 1.477 . S
C622 H639 0.932 . S
C623 U606 2.882 . S
C623 C617 1.428 . S
C623 O626 1.301 . S
C623 O627 1.282 . S
O624 U606 2.441 . S
O624 C610 1.249 . S
O625 U606 2.420 . S
O625 C610 1.202 . S
O626 U606 2.455 . S
O626 C623 1.301 . S
O627 U606 2.449 . S
O627 C623 1.282 . S
H628 C601 0.931 . S
H629 C603 0.929 . S
H630 C604 0.930 . S
H631 C605 0.931 . S
H632 C612 0.932 . S
H633 C613 0.930 . S
H634 C614 0.929 . S
H635 C616 0.931 . S
H636 C618 0.932 . S
H637 C619 0.929 . S
H638 C620 0.928 . S
H639 C622 0.932 . S
Zn640 O643 2.031 . S
Zn640 O645 2.049 1_554 S
Zn640 O650 2.067 1_554 S
Zn641 O642 1.962 . S
Zn641 O644 1.986 . S
Zn641 O646 1.996 . S
Zn641 O649 1.943 1_554 S
O642 Zn641 1.962 . S
O642 C647 1.254 . S
O643 Zn640 2.031 . S
O643 C647 1.269 . S
O644 Zn641 1.986 . S
O644 C651 1.262 . S
O645 Zn640 2.049 1_556 S
O645 C653 1.260 . S
O646 Zn641 1.996 . S
O646 C653 1.257 1_554 S
C647 O642 1.254 . S
C647 O643 1.269 . S
C648 O649 1.249 . S
C648 O650 1.270 . S
O649 Zn641 1.943 1_556 S
O649 C648 1.249 . S
O650 Zn640 2.067 1_556 S
O650 C648 1.270 . S
C651 O644 1.262 . S
C651 O652 1.232 . S
O652 C651 1.232 . S
C653 O645 1.260 . S
C653 O646 1.257 1_556 S
Zn654 O657 2.031 . S
Zn654 O659 2.049 . S
Zn654 O664 2.067 . S
Zn655 O656 1.962 . S
Zn655 O658 1.986 . S
Zn655 O660 1.996 . S
Zn655 O663 1.943 . S
O656 Zn655 1.962 . S
O656 C661 1.254 . S
O657 Zn654 2.031 . S
O657 C661 1.269 . S
O658 Zn655 1.986 . S
O658 C665 1.262 . S
O659 Zn654 2.049 . S
O659 C667 1.260 . S
O660 Zn655 1.996 . S
O660 C667 1.257 . S
C661 O656 1.254 . S
C661 O657 1.269 . S
C662 O663 1.249 . S
C662 O664 1.270 . S
O663 Zn655 1.943 . S
O663 C662 1.249 . S
O664 Zn654 2.067 . S
O664 C662 1.270 . S
C665 O658 1.262 . S
C665 O666 1.232 . S
O666 C665 1.232 . S
C667 O659 1.260 . S
C667 O660 1.257 . S
Zn668 O671 2.031 . S
Zn668 O673 2.049 . S
Zn668 O678 2.067 . S
Zn669 O670 1.962 . S
Zn669 O672 1.986 . S
Zn669 O674 1.996 1_554 S
Zn669 O677 1.943 . S
O670 Zn669 1.962 . S
O670 C675 1.254 . S
O671 Zn668 2.031 . S
O671 C675 1.269 1_556 S
O672 Zn669 1.986 . S
O672 C679 1.262 . S
O673 Zn668 2.049 . S
O673 C681 1.260 . S
O674 Zn669 1.996 1_556 S
O674 C681 1.257 . S
C675 O670 1.254 . S
C675 O671 1.269 1_554 S
C676 O677 1.249 1_556 S
C676 O678 1.270 . S
O677 Zn669 1.943 . S
O677 C676 1.249 1_554 S
O678 Zn668 2.067 . S
O678 C676 1.270 . S
C679 O672 1.262 . S
C679 O680 1.232 . S
O680 C679 1.232 . S
C681 O673 1.260 . S
C681 O674 1.257 . S
Zn682 O685 2.027 1_565 S
Zn682 O687 2.052 . S
Zn682 O692 2.073 . S
Zn683 O684 1.962 . S
Zn683 O686 1.986 . S
Zn683 O688 1.996 . S
Zn683 O691 1.943 1_545 S
O684 Zn683 1.962 . S
O684 C689 1.254 . S
O685 Zn682 2.027 1_545 S
O685 C689 1.269 . S
O686 Zn683 1.986 . S
O686 C693 1.262 . S
O687 Zn682 2.052 . S
O687 C695 1.260 . S
O688 Zn683 1.996 . S
O688 C695 1.257 1_545 S
C689 O684 1.254 . S
C689 O685 1.269 . S
C690 O691 1.249 . S
C690 O692 1.270 . S
O691 Zn683 1.943 1_565 S
O691 C690 1.249 . S
O692 Zn682 2.073 . S
O692 C690 1.270 . S
C693 O686 1.262 . S
C693 O694 1.232 . S
O694 C693 1.232 . S
C695 O687 1.260 . S
C695 O688 1.257 1_565 S
Zn696 O699 2.031 . S
Zn696 O701 2.049 . S
Zn696 O706 2.067 . S
Zn697 O698 1.962 . S
Zn697 O700 1.986 . S
Zn697 O702 1.996 . S
Zn697 O705 1.943 . S
O698 Zn697 1.962 . S
O698 C703 1.254 . S
O699 Zn696 2.031 . S
O699 C703 1.269 . S
O700 Zn697 1.986 . S
O700 C707 1.262 . S
O701 Zn696 2.049 . S
O701 C709 1.260 . S
O702 Zn697 1.996 . S
O702 C709 1.257 . S
C703 O698 1.254 . S
C703 O699 1.269 . S
C704 O705 1.249 . S
C704 O706 1.270 . S
O705 Zn697 1.943 . S
O705 C704 1.249 . S
O706 Zn696 2.067 . S
O706 C704 1.270 . S
C707 O700 1.262 . S
C707 O708 1.232 . S
O708 C707 1.232 . S
C709 O701 1.260 . S
C709 O702 1.257 . S
Zn710 O713 2.031 . S
Zn710 O715 2.049 . S
Zn710 O720 2.067 . S
Zn711 O712 1.962 . S
Zn711 O714 1.986 . S
Zn711 O716 1.996 . S
Zn711 O719 1.943 . S
O712 Zn711 1.962 . S
O712 C717 1.254 . S
O713 Zn710 2.031 . S
O713 C717 1.269 . S
O714 Zn711 1.986 . S
O714 C721 1.262 . S
O715 Zn710 2.049 . S
O715 C723 1.260 . S
O716 Zn711 1.996 . S
O716 C723 1.257 . S
C717 O712 1.254 . S
C717 O713 1.269 . S
C718 O719 1.249 . S
C718 O720 1.270 . S
O719 Zn711 1.943 . S
O719 C718 1.249 . S
O720 Zn710 2.067 . S
O720 C718 1.270 . S
C721 O714 1.262 . S
C721 O722 1.232 . S
O722 C721 1.232 . S
C723 O715 1.260 . S
C723 O716 1.257 . S
Zn724 O727 2.031 . S
Zn724 O729 2.049 . S
Zn724 O734 2.067 . S
Zn725 O726 1.962 . S
Zn725 O728 1.986 . S
Zn725 O730 1.996 . S
Zn725 O733 1.943 . S
O726 Zn725 1.962 . S
O726 C731 1.254 . S
O727 Zn724 2.031 . S
O727 C731 1.269 . S
O728 Zn725 1.986 . S
O728 C735 1.262 . S
O729 Zn724 2.049 . S
O729 C737 1.260 . S
O730 Zn725 1.996 . S
O730 C737 1.257 . S
C731 O726 1.254 . S
C731 O727 1.269 . S
C732 O733 1.249 . S
C732 O734 1.270 . S
O733 Zn725 1.943 . S
O733 C732 1.249 . S
O734 Zn724 2.067 . S
O734 C732 1.270 . S
C735 O728 1.262 . S
C735 O736 1.232 . S
O736 C735 1.232 . S
C737 O729 1.260 . S
C737 O730 1.257 . S
Zn738 O741 2.031 . S
Zn738 O743 2.049 . S
Zn738 O748 2.067 . S
Zn739 O740 1.962 . S
Zn739 O742 1.986 . S
Zn739 O744 1.996 1_545 S
Zn739 O747 1.943 . S
O740 Zn739 1.962 . S
O740 C745 1.254 . S
O741 Zn738 2.031 . S
O741 C745 1.269 1_565 S
O742 Zn739 1.986 . S
O742 C749 1.262 . S
O743 Zn738 2.049 . S
O743 C751 1.260 . S
O744 Zn739 1.996 1_565 S
O744 C751 1.257 . S
C745 O740 1.254 . S
C745 O741 1.269 1_545 S
C746 O747 1.249 1_565 S
C746 O748 1.270 . S
O747 Zn739 1.943 . S
O747 C746 1.249 1_545 S
O748 Zn738 2.067 . S
O748 C746 1.270 . S
C749 O742 1.262 . S
C749 O750 1.232 . S
O750 C749 1.232 . S
C751 O743 1.260 . S
C751 O744 1.257 . S
Zn752 O755 2.051 . S
Zn752 O757 2.035 1_455 S
Zn752 O762 2.040 1_455 S
Zn753 O754 1.962 . S
Zn753 O756 1.986 . S
Zn753 O758 1.996 . S
Zn753 O761 1.943 1_455 S
O754 Zn753 1.962 . S
O754 C759 1.254 . S
O755 Zn752 2.051 . S
O755 C759 1.269 . S
O756 Zn753 1.986 . S
O756 C763 1.262 . S
O757 Zn752 2.035 1_655 S
O757 C765 1.260 . S
O758 Zn753 1.996 . S
O758 C765 1.257 1_455 S
C759 O754 1.254 . S
C759 O755 1.269 . S
C760 O761 1.249 . S
C760 O762 1.270 . S
O761 Zn753 1.943 1_655 S
O761 C760 1.249 . S
O762 Zn752 2.040 1_655 S
O762 C760 1.270 . S
C763 O756 1.262 . S
C763 O764 1.232 . S
O764 C763 1.232 . S
C765 O757 1.260 . S
C765 O758 1.257 1_655 S
Zn766 O769 2.031 . S
Zn766 O771 2.049 . S
Zn766 O776 2.067 . S
Zn767 O768 1.962 . S
Zn767 O770 1.986 . S
Zn767 O772 1.996 . S
Zn767 O775 1.943 . S
O768 Zn767 1.962 . S
O768 C773 1.254 . S
O769 Zn766 2.031 . S
O769 C773 1.269 . S
O770 Zn767 1.986 . S
O770 C777 1.262 . S
O771 Zn766 2.049 . S
O771 C779 1.260 . S
O772 Zn767 1.996 . S
O772 C779 1.257 . S
C773 O768 1.254 . S
C773 O769 1.269 . S
C774 O775 1.249 . S
C774 O776 1.270 . S
O775 Zn767 1.943 . S
O775 C774 1.249 . S
O776 Zn766 2.067 . S
O776 C774 1.270 . S
C777 O770 1.262 . S
C777 O778 1.232 . S
O778 C777 1.232 . S
C779 O771 1.260 . S
C779 O772 1.257 . S
Zn780 O783 2.031 . S
Zn780 O785 2.049 . S
Zn780 O790 2.067 . S
Zn781 O782 1.962 . S
Zn781 O784 1.986 . S
Zn781 O786 1.996 1_455 S
Zn781 O789 1.943 . S
O782 Zn781 1.962 . S
O782 C787 1.254 . S
O783 Zn780 2.031 . S
O783 C787 1.269 1_655 S
O784 Zn781 1.986 . S
O784 C791 1.262 . S
O785 Zn780 2.049 . S
O785 C793 1.260 . S
O786 Zn781 1.996 1_655 S
O786 C793 1.257 . S
C787 O782 1.254 . S
C787 O783 1.269 1_455 S
C788 O789 1.249 1_655 S
C788 O790 1.270 . S
O789 Zn781 1.943 . S
O789 C788 1.249 1_455 S
O790 Zn780 2.067 . S
O790 C788 1.270 . S
C791 O784 1.262 . S
C791 O792 1.232 . S
O792 C791 1.232 . S
C793 O785 1.260 . S
C793 O786 1.257 . S
Zn794 O797 2.031 . S
Zn794 O799 2.049 . S
Zn794 O804 2.067 . S
Zn795 O796 1.962 . S
Zn795 O798 1.986 . S
Zn795 O800 1.996 . S
Zn795 O803 1.943 . S
O796 Zn795 1.962 . S
O796 C801 1.254 . S
O797 Zn794 2.031 . S
O797 C801 1.269 . S
O798 Zn795 1.986 . S
O798 C805 1.262 . S
O799 Zn794 2.049 . S
O799 C807 1.260 . S
O800 Zn795 1.996 . S
O800 C807 1.257 . S
C801 O796 1.254 . S
C801 O797 1.269 . S
C802 O803 1.249 . S
C802 O804 1.270 . S
O803 Zn795 1.943 . S
O803 C802 1.249 . S
O804 Zn794 2.067 . S
O804 C802 1.270 . S
C805 O798 1.262 . S
C805 O806 1.232 . S
O806 C805 1.232 . S
C807 O799 1.260 . S
C807 O800 1.257 . S
H808 C814 0.930 . S
H809 C818 0.930 . S
H810 C823 0.929 . S
H811 C821 0.929 . S
H812 C816 0.929 . S
H813 C822 0.929 . S
C814 H808 0.930 . S
C814 C815 1.367 . S
C814 C822 1.378 . S
C815 C814 1.367 . S
C815 C823 1.433 . S
C816 H812 0.929 . S
C816 C818 1.378 . S
C816 C820 1.350 . S
C817 C820 1.463 . S
C817 C822 1.350 . S
C817 N825 1.427 . S
C818 H809 0.930 . S
C818 C816 1.378 . S
C818 C819 1.367 . S
C819 C818 1.367 . S
C819 C821 1.433 . S
C820 C816 1.350 . S
C820 C817 1.463 . S
C820 N824 1.427 . S
C821 H811 0.929 . S
C821 C819 1.433 . S
C821 N824 1.384 . S
C822 H813 0.929 . S
C822 C814 1.378 . S
C822 C817 1.350 . S
C823 H810 0.929 . S
C823 C815 1.433 . S
C823 N825 1.384 . S
N824 C820 1.427 . S
N824 C821 1.384 . S
N825 C817 1.427 . S
N825 C823 1.384 . S
H826 C832 0.930 . S
H827 C836 0.930 . S
H828 C841 0.929 . S
H829 C839 0.929 . S
H830 C834 0.929 . S
H831 C840 0.929 . S
C832 H826 0.930 . S
C832 C833 1.367 . S
C832 C840 1.378 . S
C833 C832 1.367 . S
C833 C841 1.433 . S
C834 H830 0.929 . S
C834 C836 1.378 . S
C834 C838 1.350 . S
C835 C838 1.463 . S
C835 C840 1.350 . S
C835 N843 1.427 . S
C836 H827 0.930 . S
C836 C834 1.378 . S
C836 C837 1.367 . S
C837 C836 1.367 . S
C837 C839 1.433 . S
C838 C834 1.350 . S
C838 C835 1.463 . S
C838 N842 1.427 . S
C839 H829 0.929 . S
C839 C837 1.433 . S
C839 N842 1.384 . S
C840 H831 0.929 . S
C840 C832 1.378 . S
C840 C835 1.350 . S
C841 H828 0.929 . S
C841 C833 1.433 . S
C841 N843 1.384 . S
N842 C838 1.427 . S
N842 C839 1.384 . S
N843 C835 1.427 . S
N843 C841 1.384 . S
H844 C850 0.930 . S
H845 C854 0.930 . S
H846 C859 0.929 . S
H847 C857 0.929 . S
H848 C852 0.929 . S
H849 C858 0.929 . S
C850 H844 0.930 . S
C850 C851 1.367 . S
C850 C858 1.378 . S
C851 C850 1.367 . S
C851 C859 1.433 . S
C852 H848 0.929 . S
C852 C854 1.378 . S
C852 C856 1.350 . S
C853 C856 1.463 . S
C853 C858 1.350 . S
C853 N861 1.427 . S
C854 H845 0.930 . S
C854 C852 1.378 . S
C854 C855 1.367 . S
C855 C854 1.367 . S
C855 C857 1.433 . S
C856 C852 1.350 . S
C856 C853 1.463 . S
C856 N860 1.427 . S
C857 H847 0.929 . S
C857 C855 1.433 . S
C857 N860 1.384 . S
C858 H849 0.929 . S
C858 C850 1.378 . S
C858 C853 1.350 . S
C859 H846 0.929 . S
C859 C851 1.433 . S
C859 N861 1.384 . S
N860 C856 1.427 . S
N860 C857 1.384 . S
N861 C853 1.427 . S
N861 C859 1.384 . S
H862 C868 0.930 . S
H863 C872 0.930 . S
H864 C877 0.929 . S
H865 C875 0.929 . S
H866 C870 0.929 . S
H867 C876 0.929 1_545 S
C868 H862 0.930 . S
C868 C869 1.367 . S
C868 C876 1.378 . S
C869 C868 1.367 . S
C869 C877 1.433 . S
C870 H866 0.929 . S
C870 C872 1.378 . S
C870 C874 1.350 . S
C871 C874 1.463 . S
C871 C876 1.350 . S
C871 N879 1.427 . S
C872 H863 0.930 . S
C872 C870 1.378 . S
C872 C873 1.367 . S
C873 C872 1.367 . S
C873 C875 1.433 1_565 S
C874 C870 1.350 . S
C874 C871 1.463 . S
C874 N878 1.474 . S
C875 H865 0.929 . S
C875 C873 1.433 1_545 S
C875 N878 1.371 1_545 S
C876 H867 0.929 1_565 S
C876 C868 1.378 . S
C876 C871 1.350 . S
C877 H864 0.929 . S
C877 C869 1.433 . S
C877 N879 1.384 . S
N878 C874 1.474 . S
N878 C875 1.371 1_565 S
N879 C871 1.427 . S
N879 C877 1.384 . S
H880 C886 0.930 . S
H881 C890 0.930 . S
H882 C895 0.929 . S
H883 C893 0.929 . S
H884 C888 0.929 . S
H885 C894 0.929 . S
C886 H880 0.930 . S
C886 C887 1.367 . S
C886 C894 1.378 . S
C887 C886 1.367 . S
C887 C895 1.433 . S
C888 H884 0.929 . S
C888 C890 1.378 . S
C888 C892 1.350 . S
C889 C892 1.463 . S
C889 C894 1.350 . S
C889 N897 1.427 . S
C890 H881 0.930 . S
C890 C888 1.378 . S
C890 C891 1.367 . S
C891 C890 1.367 . S
C891 C893 1.433 . S
C892 C888 1.350 . S
C892 C889 1.463 . S
C892 N896 1.427 . S
C893 H883 0.929 . S
C893 C891 1.433 . S
C893 N896 1.384 . S
C894 H885 0.929 . S
C894 C886 1.378 . S
C894 C889 1.350 . S
C895 H882 0.929 . S
C895 C887 1.433 . S
C895 N897 1.384 . S
N896 C892 1.427 . S
N896 C893 1.384 . S
N897 C889 1.427 . S
N897 C895 1.384 . S
H898 C904 0.930 . S
H899 C908 0.930 . S
H900 C913 0.929 . S
H901 C911 0.929 . S
H902 C906 0.929 . S
H903 C912 0.929 . S
C904 H898 0.930 . S
C904 C905 1.367 . S
C904 C912 1.378 . S
C905 C904 1.367 . S
C905 C913 1.433 . S
C906 H902 0.929 . S
C906 C908 1.378 . S
C906 C910 1.350 . S
C907 C910 1.463 . S
C907 C912 1.350 . S
C907 N915 1.427 . S
C908 H899 0.930 . S
C908 C906 1.378 . S
C908 C909 1.367 . S
C909 C908 1.367 . S
C909 C911 1.433 . S
C910 C906 1.350 . S
C910 C907 1.463 . S
C910 N914 1.427 . S
C911 H901 0.929 . S
C911 C909 1.433 . S
C911 N914 1.384 . S
C912 H903 0.929 . S
C912 C904 1.378 . S
C912 C907 1.350 . S
C913 H900 0.929 . S
C913 C905 1.433 . S
C913 N915 1.384 . S
N914 C910 1.427 . S
N914 C911 1.384 . S
N915 C907 1.427 . S
N915 C913 1.384 . S
H916 C922 0.930 . S
H917 C926 0.930 . S
H918 C931 0.929 . S
H919 C929 0.929 . S
H920 C924 0.929 . S
H921 C930 0.929 . S
C922 H916 0.930 . S
C922 C923 1.367 . S
C922 C930 1.378 . S
C923 C922 1.367 . S
C923 C931 1.433 . S
C924 H920 0.929 . S
C924 C926 1.378 . S
C924 C928 1.350 . S
C925 C928 1.463 . S
C925 C930 1.350 . S
C925 N933 1.427 . S
C926 H917 0.930 . S
C926 C924 1.378 . S
C926 C927 1.367 . S
C927 C926 1.367 . S
C927 C929 1.433 . S
C928 C924 1.350 . S
C928 C925 1.463 . S
C928 N932 1.427 . S
C929 H919 0.929 . S
C929 C927 1.433 . S
C929 N932 1.384 . S
C930 H921 0.929 . S
C930 C922 1.378 . S
C930 C925 1.350 . S
C931 H918 0.929 . S
C931 C923 1.433 . S
C931 N933 1.384 . S
N932 C928 1.427 . S
N932 C929 1.384 . S
N933 C925 1.427 . S
N933 C931 1.384 . S
H934 C940 0.930 . S
H935 C944 0.959 . S
H936 C949 0.929 . S
H937 C947 0.929 . S
H938 C942 0.929 1_545 S
H939 C948 0.929 . S
C940 H934 0.930 . S
C940 C941 1.367 . S
C940 C948 1.378 . S
C941 C940 1.367 . S
C941 C949 1.433 . S
C942 H938 0.929 1_565 S
C942 C944 1.371 1_565 S
C942 C946 1.350 . S
C943 C946 1.463 . S
C943 C948 1.350 . S
C943 N951 1.427 . S
C944 H935 0.959 . S
C944 C942 1.371 1_545 S
C944 C945 1.347 1_545 S
C945 C944 1.347 1_565 S
C945 C947 1.433 . S
C946 C942 1.350 . S
C946 C943 1.463 . S
C946 N950 1.427 . S
C947 H937 0.929 . S
C947 C945 1.433 . S
C947 N950 1.384 . S
C948 H939 0.929 . S
C948 C940 1.378 . S
C948 C943 1.350 . S
C949 H936 0.929 . S
C949 C941 1.433 . S
C949 N951 1.384 . S
N950 C946 1.427 . S
N950 C947 1.384 . S
N951 C943 1.427 . S
N951 C949 1.384 . S
H952 C958 0.930 . S
H953 C962 0.930 . S
H954 C967 0.929 . S
H955 C965 0.929 . S
H956 C960 0.929 . S
H957 C966 0.929 . S
C958 H952 0.930 . S
C958 C959 1.367 . S
C958 C966 1.378 . S
C959 C958 1.367 . S
C959 C967 1.433 . S
C960 H956 0.929 . S
C960 C962 1.378 . S
C960 C964 1.350 . S
C961 C964 1.463 . S
C961 C966 1.350 . S
C961 N969 1.427 . S
C962 H953 0.930 . S
C962 C960 1.378 . S
C962 C963 1.367 . S
C963 C962 1.367 . S
C963 C965 1.433 . S
C964 C960 1.350 . S
C964 C961 1.463 . S
C964 N968 1.427 . S
C965 H955 0.929 . S
C965 C963 1.433 . S
C965 N968 1.384 . S
C966 H957 0.929 . S
C966 C958 1.378 . S
C966 C961 1.350 . S
C967 H954 0.929 . S
C967 C959 1.433 . S
C967 N969 1.384 . S
N968 C964 1.427 . S
N968 C965 1.384 . S
N969 C961 1.427 . S
N969 C967 1.384 . S
H970 C976 0.930 . S
H971 C980 0.930 . S
H972 C985 0.929 . S
H973 C983 0.929 . S
H974 C978 0.929 . S
H975 C984 0.929 . S
C976 H970 0.930 . S
C976 C977 1.367 . S
C976 C984 1.378 . S
C977 C976 1.367 . S
C977 C985 1.433 . S
C978 H974 0.929 . S
C978 C980 1.378 . S
C978 C982 1.350 . S
C979 C982 1.463 . S
C979 C984 1.350 . S
C979 N987 1.427 . S
C980 H971 0.930 . S
C980 C978 1.378 . S
C980 C981 1.367 . S
C981 C980 1.367 . S
C981 C983 1.433 . S
C982 C978 1.350 . S
C982 C979 1.463 . S
C982 N986 1.427 . S
C983 H973 0.929 . S
C983 C981 1.433 . S
C983 N986 1.384 . S
C984 H975 0.929 . S
C984 C976 1.378 . S
C984 C979 1.350 . S
C985 H972 0.929 . S
C985 C977 1.433 . S
C985 N987 1.384 . S
N986 C982 1.427 . S
N986 C983 1.384 . S
N987 C979 1.427 . S
N987 C985 1.384 . S
H988 C994 0.930 . S
H989 C998 0.930 . S
H990 C1003 0.929 . S
H991 C1001 0.929 . S
H992 C996 0.929 . S
H993 C1002 0.929 . S
C994 H988 0.930 . S
C994 C995 1.367 . S
C994 C1002 1.378 . S
C995 C994 1.367 . S
C995 C1003 1.433 . S
C996 H992 0.929 . S
C996 C998 1.378 . S
C996 C1000 1.350 . S
C997 C1000 1.463 . S
C997 C1002 1.350 . S
C997 N1005 1.427 . S
C998 H989 0.930 . S
C998 C996 1.378 . S
C998 C999 1.367 . S
C999 C998 1.367 . S
C999 C1001 1.433 . S
C1000 C996 1.350 . S
C1000 C997 1.463 . S
C1000 N1004 1.427 . S
C1001 H991 0.929 . S
C1001 C999 1.433 . S
C1001 N1004 1.384 . S
C1002 H993 0.929 . S
C1002 C994 1.378 . S
C1002 C997 1.350 . S
C1003 H990 0.929 . S
C1003 C995 1.433 . S
C1003 N1005 1.384 . S
N1004 C1000 1.427 . S
N1004 C1001 1.384 . S
N1005 C997 1.427 . S
N1005 C1003 1.384 . S
H1006 C1012 0.930 . S
H1007 C1016 0.930 . S
H1008 C1021 0.929 . S
H1009 C1019 0.929 . S
H1010 C1014 0.929 . S
H1011 C1020 0.929 . S
C1012 H1006 0.930 . S
C1012 C1013 1.367 . S
C1012 C1020 1.378 . S
C1013 C1012 1.367 . S
C1013 C1021 1.433 . S
C1014 H1010 0.929 . S
C1014 C1016 1.378 . S
C1014 C1018 1.350 . S
C1015 C1018 1.463 . S
C1015 C1020 1.350 . S
C1015 N1023 1.427 . S
C1016 H1007 0.930 . S
C1016 C1014 1.378 . S
C1016 C1017 1.367 . S
C1017 C1016 1.367 . S
C1017 C1019 1.433 . S
C1018 C1014 1.350 . S
C1018 C1015 1.463 . S
C1018 N1022 1.427 . S
C1019 H1009 0.929 . S
C1019 C1017 1.433 . S
C1019 N1022 1.384 . S
C1020 H1011 0.929 . S
C1020 C1012 1.378 . S
C1020 C1015 1.350 . S
C1021 H1008 0.929 . S
C1021 C1013 1.433 . S
C1021 N1023 1.384 . S
N1022 C1018 1.427 . S
N1022 C1019 1.384 . S
N1023 C1015 1.427 . S
N1023 C1021 1.384 . S
H1024 C1030 0.930 . S
H1025 C1034 0.930 . S
H1026 C1039 0.929 . S
H1027 C1037 0.929 . S
H1028 C1032 0.929 . S
H1029 C1038 0.929 . S
C1030 H1024 0.930 . S
C1030 C1031 1.367 . S
C1030 C1038 1.378 . S
C1031 C1030 1.367 . S
C1031 C1039 1.433 . S
C1032 H1028 0.929 . S
C1032 C1034 1.378 . S
C1032 C1036 1.350 . S
C1033 C1036 1.463 . S
C1033 C1038 1.350 . S
C1033 N1041 1.427 . S
C1034 H1025 0.930 . S
C1034 C1032 1.378 . S
C1034 C1035 1.367 . S
C1035 C1034 1.367 . S
C1035 C1037 1.433 . S
C1036 C1032 1.350 . S
C1036 C1033 1.463 . S
C1036 N1040 1.427 . S
C1037 H1027 0.929 . S
C1037 C1035 1.433 . S
C1037 N1040 1.384 . S
C1038 H1029 0.929 . S
C1038 C1030 1.378 . S
C1038 C1033 1.350 . S
C1039 H1026 0.929 . S
C1039 C1031 1.433 . S
C1039 N1041 1.384 . S
N1040 C1036 1.427 . S
N1040 C1037 1.384 . S
N1041 C1033 1.427 . S
N1041 C1039 1.384 . S
H1042 C1048 0.930 . S
H1043 C1052 0.930 1_655 S
H1044 C1057 0.929 . S
H1045 C1055 0.929 . S
H1046 C1050 0.929 1_655 S
H1047 C1056 0.929 . S
C1048 H1042 0.930 . S
C1048 C1049 1.367 . S
C1048 C1056 1.378 . S
C1049 C1048 1.367 . S
C1049 C1057 1.433 . S
C1050 H1046 0.929 1_455 S
C1050 C1052 1.378 . S
C1050 C1054 1.350 . S
C1051 C1054 1.463 . S
C1051 C1056 1.350 . S
C1051 N1059 1.427 . S
C1052 H1043 0.930 1_455 S
C1052 C1050 1.378 . S
C1052 C1053 1.367 . S
C1053 C1052 1.367 . S
C1053 C1055 1.433 . S
C1054 C1050 1.350 . S
C1054 C1051 1.463 . S
C1054 N1058 1.427 . S
C1055 H1045 0.929 . S
C1055 C1053 1.433 . S
C1055 N1058 1.384 . S
C1056 H1047 0.929 . S
C1056 C1048 1.378 . S
C1056 C1051 1.350 . S
C1057 H1044 0.929 . S
C1057 C1049 1.433 . S
C1057 N1059 1.384 . S
N1058 C1054 1.427 . S
N1058 C1055 1.384 . S
N1059 C1051 1.427 . S
N1059 C1057 1.384 . S
H1060 C1066 0.930 . S
H1061 C1070 0.930 . S
H1062 C1075 0.929 . S
H1063 C1073 0.929 . S
H1064 C1068 0.929 . S
H1065 C1074 0.929 . S
C1066 H1060 0.930 . S
C1066 C1067 1.367 . S
C1066 C1074 1.378 . S
C1067 C1066 1.367 . S
C1067 C1075 1.433 . S
C1068 H1064 0.929 . S
C1068 C1070 1.378 . S
C1068 C1072 1.350 . S
C1069 C1072 1.463 . S
C1069 C1074 1.350 . S
C1069 N1077 1.427 . S
C1070 H1061 0.930 . S
C1070 C1068 1.378 . S
C1070 C1071 1.367 . S
C1071 C1070 1.367 . S
C1071 C1073 1.433 . S
C1072 C1068 1.350 . S
C1072 C1069 1.463 . S
C1072 N1076 1.427 . S
C1073 H1063 0.929 . S
C1073 C1071 1.433 . S
C1073 N1076 1.384 . S
C1074 H1065 0.929 . S
C1074 C1066 1.378 . S
C1074 C1069 1.350 . S
C1075 H1062 0.929 . S
C1075 C1067 1.433 . S
C1075 N1077 1.384 . S
N1076 C1072 1.427 . S
N1076 C1073 1.384 . S
N1077 C1069 1.427 . S
N1077 C1075 1.384 . S
H1078 C1084 0.930 . S
H1079 C1088 0.930 . S
H1080 C1093 0.929 . S
H1081 C1091 0.929 . S
H1082 C1086 0.929 . S
H1083 C1092 0.929 . S
C1084 H1078 0.930 . S
C1084 C1085 1.367 . S
C1084 C1092 1.378 . S
C1085 C1084 1.367 . S
C1085 C1093 1.433 . S
C1086 H1082 0.929 . S
C1086 C1088 1.378 . S
C1086 C1090 1.350 . S
C1087 C1090 1.463 . S
C1087 C1092 1.350 . S
C1087 N1095 1.427 . S
C1088 H1079 0.930 . S
C1088 C1086 1.378 . S
C1088 C1089 1.367 . S
C1089 C1088 1.367 . S
C1089 C1091 1.433 . S
C1090 C1086 1.350 . S
C1090 C1087 1.463 . S
C1090 N1094 1.427 . S
C1091 H1081 0.929 . S
C1091 C1089 1.433 . S
C1091 N1094 1.384 . S
C1092 H1083 0.929 . S
C1092 C1084 1.378 . S
C1092 C1087 1.350 . S
C1093 H1080 0.929 . S
C1093 C1085 1.433 . S
C1093 N1095 1.384 . S
N1094 C1090 1.427 . S
N1094 C1091 1.384 . S
N1095 C1087 1.427 . S
N1095 C1093 1.384 . S
H1096 C1102 0.930 . S
H1097 C1106 0.930 . S
H1098 C1111 0.929 . S
H1099 C1109 0.929 . S
H1100 C1104 0.929 . S
H1101 C1110 0.929 . S
C1102 H1096 0.930 . S
C1102 C1103 1.367 . S
C1102 C1110 1.378 . S
C1103 C1102 1.367 . S
C1103 C1111 1.433 . S
C1104 H1100 0.929 . S
C1104 C1106 1.378 . S
C1104 C1108 1.350 . S
C1105 C1108 1.463 . S
C1105 C1110 1.350 . S
C1105 N1113 1.427 . S
C1106 H1097 0.930 . S
C1106 C1104 1.378 . S
C1106 C1107 1.367 . S
C1107 C1106 1.367 . S
C1107 C1109 1.433 . S
C1108 C1104 1.350 . S
C1108 C1105 1.463 . S
C1108 N1112 1.427 . S
C1109 H1099 0.929 . S
C1109 C1107 1.433 . S
C1109 N1112 1.384 . S
C1110 H1101 0.929 . S
C1110 C1102 1.378 . S
C1110 C1105 1.350 . S
C1111 H1098 0.929 . S
C1111 C1103 1.433 . S
C1111 N1113 1.384 . S
N1112 C1108 1.427 . S
N1112 C1109 1.384 . S
N1113 C1105 1.427 . S
N1113 C1111 1.384 . S
H1114 C1120 0.930 . S
H1115 C1124 0.930 . S
H1116 C1129 0.929 . S
H1117 C1127 0.929 . S
H1118 C1122 0.929 . S
H1119 C1128 0.929 . S
C1120 H1114 0.930 . S
C1120 C1121 1.367 . S
C1120 C1128 1.378 . S
C1121 C1120 1.367 . S
C1121 C1129 1.433 . S
C1122 H1118 0.929 . S
C1122 C1124 1.378 . S
C1122 C1126 1.350 . S
C1123 C1126 1.463 . S
C1123 C1128 1.350 . S
C1123 N1131 1.427 . S
C1124 H1115 0.930 . S
C1124 C1122 1.378 . S
C1124 C1125 1.367 . S
C1125 C1124 1.367 . S
C1125 C1127 1.433 . S
C1126 C1122 1.350 . S
C1126 C1123 1.463 . S
C1126 N1130 1.427 . S
C1127 H1117 0.929 . S
C1127 C1125 1.433 . S
C1127 N1130 1.384 . S
C1128 H1119 0.929 . S
C1128 C1120 1.378 . S
C1128 C1123 1.350 . S
C1129 H1116 0.929 . S
C1129 C1121 1.433 . S
C1129 N1131 1.384 . S
N1130 C1126 1.427 . S
N1130 C1127 1.384 . S
N1131 C1123 1.427 . S
N1131 C1129 1.384 . S
H1132 C1138 0.930 . S
H1133 C1142 0.930 . S
H1134 C1147 0.929 . S
H1135 C1145 0.906 1_554 S
H1136 C1140 0.929 . S
H1137 C1146 0.929 . S
C1138 H1132 0.930 . S
C1138 C1139 1.367 . S
C1138 C1146 1.378 . S
C1139 C1138 1.367 . S
C1139 C1147 1.433 . S
C1140 H1136 0.929 . S
C1140 C1142 1.378 . S
C1140 C1144 1.350 . S
C1141 C1144 1.463 . S
C1141 C1146 1.350 . S
C1141 N1149 1.427 . S
C1142 H1133 0.930 . S
C1142 C1140 1.378 . S
C1142 C1143 1.367 . S
C1143 C1142 1.367 . S
C1143 C1145 1.448 . S
C1144 C1140 1.350 . S
C1144 C1141 1.463 . S
C1144 N1148 1.427 . S
C1145 H1135 0.906 1_556 S
C1145 C1143 1.448 . S
C1145 N1148 1.394 . S
C1146 H1137 0.929 . S
C1146 C1138 1.378 . S
C1146 C1141 1.350 . S
C1147 H1134 0.929 . S
C1147 C1139 1.433 . S
C1147 N1149 1.384 . S
N1148 C1144 1.427 . S
N1148 C1145 1.394 . S
N1149 C1141 1.427 . S
N1149 C1147 1.384 . S
H1150 C1156 0.930 . S
H1151 C1160 0.930 . S
H1152 C1165 0.929 . S
H1153 C1163 0.929 . S
H1154 C1158 0.929 . S
H1155 C1164 0.929 . S
C1156 H1150 0.930 . S
C1156 C1157 1.367 . S
C1156 C1164 1.378 . S
C1157 C1156 1.367 . S
C1157 C1165 1.433 . S
C1158 H1154 0.929 . S
C1158 C1160 1.378 . S
C1158 C1162 1.350 . S
C1159 C1162 1.463 . S
C1159 C1164 1.350 . S
C1159 N1167 1.427 . S
C1160 H1151 0.930 . S
C1160 C1158 1.378 . S
C1160 C1161 1.367 . S
C1161 C1160 1.367 . S
C1161 C1163 1.433 . S
C1162 C1158 1.350 . S
C1162 C1159 1.463 . S
C1162 N1166 1.427 . S
C1163 H1153 0.929 . S
C1163 C1161 1.433 . S
C1163 N1166 1.384 . S
C1164 H1155 0.929 . S
C1164 C1156 1.378 . S
C1164 C1159 1.350 . S
C1165 H1152 0.929 . S
C1165 C1157 1.433 . S
C1165 N1167 1.384 . S
N1166 C1162 1.427 . S
N1166 C1163 1.384 . S
N1167 C1159 1.427 . S
N1167 C1165 1.384 . S
H1168 C1174 0.930 . S
H1169 C1178 0.930 . S
H1170 C1183 0.929 . S
H1171 C1181 0.929 . S
H1172 C1176 0.929 . S
H1173 C1182 0.929 . S
C1174 H1168 0.930 . S
C1174 C1175 1.367 . S
C1174 C1182 1.378 . S
C1175 C1174 1.367 . S
C1175 C1183 1.433 . S
C1176 H1172 0.929 . S
C1176 C1178 1.378 . S
C1176 C1180 1.350 . S
C1177 C1180 1.463 . S
C1177 C1182 1.350 . S
C1177 N1185 1.427 . S
C1178 H1169 0.930 . S
C1178 C1176 1.378 . S
C1178 C1179 1.367 . S
C1179 C1178 1.367 . S
C1179 C1181 1.433 . S
C1180 C1176 1.350 . S
C1180 C1177 1.463 . S
C1180 N1184 1.427 . S
C1181 H1171 0.929 . S
C1181 C1179 1.433 . S
C1181 N1184 1.384 . S
C1182 H1173 0.929 . S
C1182 C1174 1.378 . S
C1182 C1177 1.350 . S
C1183 H1170 0.929 . S
C1183 C1175 1.433 . S
C1183 N1185 1.384 . S
N1184 C1180 1.427 . S
N1184 C1181 1.384 . S
N1185 C1177 1.427 . S
N1185 C1183 1.384 . S
H1186 C1192 0.930 . S
H1187 C1196 0.930 . S
H1188 C1201 0.929 . S
H1189 C1199 0.929 . S
H1190 C1194 0.929 . S
H1191 C1200 0.929 . S
C1192 H1186 0.930 . S
C1192 C1193 1.367 . S
C1192 C1200 1.378 . S
C1193 C1192 1.367 . S
C1193 C1201 1.433 . S
C1194 H1190 0.929 . S
C1194 C1196 1.378 . S
C1194 C1198 1.350 . S
C1195 C1198 1.463 . S
C1195 C1200 1.350 . S
C1195 N1203 1.427 . S
C1196 H1187 0.930 . S
C1196 C1194 1.378 . S
C1196 C1197 1.367 . S
C1197 C1196 1.367 . S
C1197 C1199 1.433 . S
C1198 C1194 1.350 . S
C1198 C1195 1.463 . S
C1198 N1202 1.427 . S
C1199 H1189 0.929 . S
C1199 C1197 1.433 . S
C1199 N1202 1.384 . S
C1200 H1191 0.929 . S
C1200 C1192 1.378 . S
C1200 C1195 1.350 . S
C1201 H1188 0.929 . S
C1201 C1193 1.433 . S
C1201 N1203 1.384 . S
N1202 C1198 1.427 . S
N1202 C1199 1.384 . S
N1203 C1195 1.427 . S
N1203 C1201 1.384 . S
H1204 C1210 0.930 . S
H1205 C1214 0.930 . S
H1206 C1219 0.929 . S
H1207 C1217 0.929 . S
H1208 C1212 0.929 . S
H1209 C1218 0.929 . S
C1210 H1204 0.930 . S
C1210 C1211 1.367 . S
C1210 C1218 1.378 . S
C1211 C1210 1.367 . S
C1211 C1219 1.433 . S
C1212 H1208 0.929 . S
C1212 C1214 1.378 . S
C1212 C1216 1.350 . S
C1213 C1216 1.463 . S
C1213 C1218 1.350 . S
C1213 N1221 1.427 . S
C1214 H1205 0.930 . S
C1214 C1212 1.378 . S
C1214 C1215 1.367 . S
C1215 C1214 1.367 . S
C1215 C1217 1.433 . S
C1216 C1212 1.350 . S
C1216 C1213 1.463 . S
C1216 N1220 1.427 . S
C1217 H1207 0.929 . S
C1217 C1215 1.433 . S
C1217 N1220 1.384 . S
C1218 H1209 0.929 . S
C1218 C1210 1.378 . S
C1218 C1213 1.350 . S
C1219 H1206 0.929 . S
C1219 C1211 1.433 . S
C1219 N1221 1.384 . S
N1220 C1216 1.427 . S
N1220 C1217 1.384 . S
N1221 C1213 1.427 . S
N1221 C1219 1.384 . S
H1222 C1228 0.930 . S
H1223 C1232 0.930 . S
H1224 C1237 0.929 . S
H1225 C1235 0.929 . S
H1226 C1230 0.929 . S
H1227 C1236 0.929 . S
C1228 H1222 0.930 . S
C1228 C1229 1.367 . S
C1228 C1236 1.378 . S
C1229 C1228 1.367 . S
C1229 C1237 1.433 . S
C1230 H1226 0.929 . S
C1230 C1232 1.378 . S
C1230 C1234 1.350 . S
C1231 C1234 1.463 . S
C1231 C1236 1.350 . S
C1231 N1239 1.427 . S
C1232 H1223 0.930 . S
C1232 C1230 1.378 . S
C1232 C1233 1.367 . S
C1233 C1232 1.367 . S
C1233 C1235 1.433 . S
C1234 C1230 1.350 . S
C1234 C1231 1.463 . S
C1234 N1238 1.427 . S
C1235 H1225 0.929 . S
C1235 C1233 1.433 . S
C1235 N1238 1.384 . S
C1236 H1227 0.929 . S
C1236 C1228 1.378 . S
C1236 C1231 1.350 . S
C1237 H1224 0.929 . S
C1237 C1229 1.433 . S
C1237 N1239 1.384 . S
N1238 C1234 1.427 . S
N1238 C1235 1.384 . S
N1239 C1231 1.427 . S
N1239 C1237 1.384 . S
H1240 C1246 0.930 . S
H1241 C1250 0.930 . S
H1242 C1255 0.929 . S
H1243 C1253 0.929 . S
H1244 C1248 0.929 . S
H1245 C1254 0.929 . S
C1246 H1240 0.930 . S
C1246 C1247 1.367 . S
C1246 C1254 1.378 . S
C1247 C1246 1.367 . S
C1247 C1255 1.433 . S
C1248 H1244 0.929 . S
C1248 C1250 1.378 . S
C1248 C1252 1.350 . S
C1249 C1252 1.463 . S
C1249 C1254 1.350 . S
C1249 N1257 1.427 . S
C1250 H1241 0.930 . S
C1250 C1248 1.378 . S
C1250 C1251 1.367 . S
C1251 C1250 1.367 . S
C1251 C1253 1.433 . S
C1252 C1248 1.350 . S
C1252 C1249 1.463 . S
C1252 N1256 1.427 . S
C1253 H1243 0.929 . S
C1253 C1251 1.433 . S
C1253 N1256 1.384 . S
C1254 H1245 0.929 . S
C1254 C1246 1.378 . S
C1254 C1249 1.350 . S
C1255 H1242 0.929 . S
C1255 C1247 1.433 . S
C1255 N1257 1.384 . S
N1256 C1252 1.427 . S
N1256 C1253 1.384 . S
N1257 C1249 1.427 . S
N1257 C1255 1.384 . S
H1258 C1264 0.930 . S
H1259 C1268 0.930 . S
H1260 C1273 0.929 . S
H1261 C1271 0.929 . S
H1262 C1266 0.929 . S
H1263 C1272 0.929 . S
C1264 H1258 0.930 . S
C1264 C1265 1.367 . S
C1264 C1272 1.378 . S
C1265 C1264 1.367 . S
C1265 C1273 1.433 . S
C1266 H1262 0.929 . S
C1266 C1268 1.378 . S
C1266 C1270 1.350 . S
C1267 C1270 1.463 . S
C1267 C1272 1.350 . S
C1267 N1275 1.427 . S
C1268 H1259 0.930 . S
C1268 C1266 1.378 . S
C1268 C1269 1.367 . S
C1269 C1268 1.367 . S
C1269 C1271 1.433 . S
C1270 C1266 1.350 . S
C1270 C1267 1.463 . S
C1270 N1274 1.427 . S
C1271 H1261 0.929 . S
C1271 C1269 1.433 . S
C1271 N1274 1.384 . S
C1272 H1263 0.929 . S
C1272 C1264 1.378 . S
C1272 C1267 1.350 . S
C1273 H1260 0.929 . S
C1273 C1265 1.433 . S
C1273 N1275 1.384 . S
N1274 C1270 1.427 . S
N1274 C1271 1.384 . S
N1275 C1267 1.427 . S
N1275 C1273 1.384 . S
H1276 C1282 0.930 . S
H1277 C1286 0.930 . S
H1278 C1291 0.929 . S
H1279 C1289 0.929 . S
H1280 C1284 0.929 . S
H1281 C1290 0.929 . S
C1282 H1276 0.930 . S
C1282 C1283 1.367 . S
C1282 C1290 1.378 . S
C1283 C1282 1.367 . S
C1283 C1291 1.433 . S
C1284 H1280 0.929 . S
C1284 C1286 1.378 . S
C1284 C1288 1.350 . S
C1285 C1288 1.463 . S
C1285 C1290 1.350 . S
C1285 N1293 1.427 . S
C1286 H1277 0.930 . S
C1286 C1284 1.378 . S
C1286 C1287 1.367 . S
C1287 C1286 1.367 . S
C1287 C1289 1.433 . S
C1288 C1284 1.350 . S
C1288 C1285 1.463 . S
C1288 N1292 1.427 . S
C1289 H1279 0.929 . S
C1289 C1287 1.433 . S
C1289 N1292 1.384 . S
C1290 H1281 0.929 . S
C1290 C1282 1.378 . S
C1290 C1285 1.350 . S
C1291 H1278 0.929 . S
C1291 C1283 1.433 . S
C1291 N1293 1.384 . S
N1292 C1288 1.427 . S
N1292 C1289 1.384 . S
N1293 C1285 1.427 . S
N1293 C1291 1.384 . S
H1294 C1300 0.930 . S
H1295 C1304 0.930 . S
H1296 C1309 0.929 . S
H1297 C1307 0.929 . S
H1298 C1302 0.929 . S
H1299 C1308 0.929 . S
C1300 H1294 0.930 . S
C1300 C1301 1.367 . S
C1300 C1308 1.378 . S
C1301 C1300 1.367 . S
C1301 C1309 1.433 . S
C1302 H1298 0.929 . S
C1302 C1304 1.378 . S
C1302 C1306 1.350 . S
C1303 C1306 1.463 . S
C1303 C1308 1.350 . S
C1303 N1311 1.427 . S
C1304 H1295 0.930 . S
C1304 C1302 1.378 . S
C1304 C1305 1.367 . S
C1305 C1304 1.367 . S
C1305 C1307 1.433 . S
C1306 C1302 1.350 . S
C1306 C1303 1.463 . S
C1306 N1310 1.427 . S
C1307 H1297 0.929 . S
C1307 C1305 1.433 . S
C1307 N1310 1.384 . S
C1308 H1299 0.929 . S
C1308 C1300 1.378 . S
C1308 C1303 1.350 . S
C1309 H1296 0.929 . S
C1309 C1301 1.433 . S
C1309 N1311 1.384 . S
N1310 C1306 1.427 . S
N1310 C1307 1.384 . S
N1311 C1303 1.427 . S
N1311 C1309 1.384 . S
H1312 C1318 0.930 . S
H1313 C1322 0.930 . S
H1314 C1327 0.929 . S
H1315 C1325 0.929 . S
H1316 C1320 0.929 . S
H1317 C1326 0.929 . S
C1318 H1312 0.930 . S
C1318 C1319 1.367 . S
C1318 C1326 1.378 . S
C1319 C1318 1.367 . S
C1319 C1327 1.433 . S
C1320 H1316 0.929 . S
C1320 C1322 1.378 . S
C1320 C1324 1.350 . S
C1321 C1324 1.463 . S
C1321 C1326 1.350 . S
C1321 N1329 1.427 . S
C1322 H1313 0.930 . S
C1322 C1320 1.378 . S
C1322 C1323 1.367 . S
C1323 C1322 1.367 . S
C1323 C1325 1.433 . S
C1324 C1320 1.350 . S
C1324 C1321 1.463 . S
C1324 N1328 1.427 . S
C1325 H1315 0.929 . S
C1325 C1323 1.433 . S
C1325 N1328 1.384 . S
C1326 H1317 0.929 . S
C1326 C1318 1.378 . S
C1326 C1321 1.350 . S
C1327 H1314 0.929 . S
C1327 C1319 1.433 . S
C1327 N1329 1.384 . S
N1328 C1324 1.427 . S
N1328 C1325 1.384 . S
N1329 C1321 1.427 . S
N1329 C1327 1.384 . S
H1330 C1336 0.930 . S
H1331 C1340 0.930 . S
H1332 C1345 0.929 1_565 S
H1333 C1343 0.929 . S
H1334 C1338 0.929 . S
H1335 C1344 0.929 . S
C1336 H1330 0.930 . S
C1336 C1337 1.367 . S
C1336 C1344 1.378 . S
C1337 C1336 1.367 . S
C1337 C1345 1.433 . S
C1338 H1334 0.929 . S
C1338 C1340 1.378 . S
C1338 C1342 1.350 1_565 S
C1339 C1342 1.463 . S
C1339 C1344 1.350 . S
C1339 N1347 1.427 . S
C1340 H1331 0.930 . S
C1340 C1338 1.378 . S
C1340 C1341 1.367 1_565 S
C1341 C1340 1.367 1_545 S
C1341 C1343 1.433 . S
C1342 C1338 1.350 1_545 S
C1342 C1339 1.463 . S
C1342 N1346 1.427 . S
C1343 H1333 0.929 . S
C1343 C1341 1.433 . S
C1343 N1346 1.384 . S
C1344 H1335 0.929 . S
C1344 C1336 1.378 . S
C1344 C1339 1.350 . S
C1345 H1332 0.929 1_545 S
C1345 C1337 1.433 . S
C1345 N1347 1.384 . S
N1346 C1342 1.427 . S
N1346 C1343 1.384 . S
N1347 C1339 1.427 . S
N1347 C1345 1.384 . S
H1348 C1354 0.930 . S
H1349 C1358 0.930 . S
H1350 C1363 0.929 . S
H1351 C1361 0.929 . S
H1352 C1356 0.929 . S
H1353 C1362 0.929 . S
C1354 H1348 0.930 . S
C1354 C1355 1.367 . S
C1354 C1362 1.378 . S
C1355 C1354 1.367 . S
C1355 C1363 1.433 . S
C1356 H1352 0.929 . S
C1356 C1358 1.378 . S
C1356 C1360 1.350 . S
C1357 C1360 1.463 . S
C1357 C1362 1.350 . S
C1357 N1365 1.427 . S
C1358 H1349 0.930 . S
C1358 C1356 1.378 . S
C1358 C1359 1.367 . S
C1359 C1358 1.367 . S
C1359 C1361 1.433 . S
C1360 C1356 1.350 . S
C1360 C1357 1.463 . S
C1360 N1364 1.427 . S
C1361 H1351 0.929 . S
C1361 C1359 1.433 . S
C1361 N1364 1.384 . S
C1362 H1353 0.929 . S
C1362 C1354 1.378 . S
C1362 C1357 1.350 . S
C1363 H1350 0.929 . S
C1363 C1355 1.433 . S
C1363 N1365 1.384 . S
N1364 C1360 1.427 . S
N1364 C1361 1.384 . S
N1365 C1357 1.427 . S
N1365 C1363 1.384 . S
H1366 C1372 0.930 . S
H1367 C1376 0.930 . S
H1368 C1381 0.929 . S
H1369 C1379 0.929 . S
H1370 C1374 0.929 . S
H1371 C1380 0.929 . S
C1372 H1366 0.930 . S
C1372 C1373 1.367 . S
C1372 C1380 1.378 . S
C1373 C1372 1.367 . S
C1373 C1381 1.433 . S
C1374 H1370 0.929 . S
C1374 C1376 1.378 . S
C1374 C1378 1.350 . S
C1375 C1378 1.463 . S
C1375 C1380 1.350 . S
C1375 N1383 1.427 . S
C1376 H1367 0.930 . S
C1376 C1374 1.378 . S
C1376 C1377 1.367 . S
C1377 C1376 1.367 . S
C1377 C1379 1.433 . S
C1378 C1374 1.350 . S
C1378 C1375 1.463 . S
C1378 N1382 1.427 . S
C1379 H1369 0.929 . S
C1379 C1377 1.433 . S
C1379 N1382 1.384 . S
C1380 H1371 0.929 . S
C1380 C1372 1.378 . S
C1380 C1375 1.350 . S
C1381 H1368 0.929 . S
C1381 C1373 1.433 . S
C1381 N1383 1.384 . S
N1382 C1378 1.427 . S
N1382 C1379 1.384 . S
N1383 C1375 1.427 . S
N1383 C1381 1.384 . S
H1384 C1390 0.930 . S
H1385 C1394 0.930 . S
H1386 C1399 0.929 . S
H1387 C1397 0.929 . S
H1388 C1392 0.929 . S
H1389 C1398 0.929 . S
C1390 H1384 0.930 . S
C1390 C1391 1.367 . S
C1390 C1398 1.378 . S
C1391 C1390 1.367 . S
C1391 C1399 1.433 . S
C1392 H1388 0.929 . S
C1392 C1394 1.378 . S
C1392 C1396 1.350 . S
C1393 C1396 1.463 . S
C1393 C1398 1.350 . S
C1393 N1401 1.427 . S
C1394 H1385 0.930 . S
C1394 C1392 1.378 . S
C1394 C1395 1.367 . S
C1395 C1394 1.367 . S
C1395 C1397 1.433 . S
C1396 C1392 1.350 . S
C1396 C1393 1.463 . S
C1396 N1400 1.427 . S
C1397 H1387 0.929 . S
C1397 C1395 1.433 . S
C1397 N1400 1.384 . S
C1398 H1389 0.929 . S
C1398 C1390 1.378 . S
C1398 C1393 1.350 . S
C1399 H1386 0.929 . S
C1399 C1391 1.433 . S
C1399 N1401 1.384 . S
N1400 C1396 1.427 . S
N1400 C1397 1.384 . S
N1401 C1393 1.427 . S
N1401 C1399 1.384 . S
H1402 C1408 0.930 . S
H1403 C1412 0.930 . S
H1404 C1417 0.929 . S
H1405 C1415 0.929 . S
H1406 C1410 0.925 1_455 S
H1407 C1416 0.929 . S
C1408 H1402 0.930 . S
C1408 C1409 1.367 . S
C1408 C1416 1.378 . S
C1409 C1408 1.367 . S
C1409 C1417 1.433 . S
C1410 H1406 0.925 1_655 S
C1410 C1412 1.376 1_655 S
C1410 C1414 1.355 . S
C1411 C1414 1.463 . S
C1411 C1416 1.350 . S
C1411 N1419 1.427 . S
C1412 H1403 0.930 . S
C1412 C1410 1.376 1_455 S
C1412 C1413 1.367 1_455 S
C1413 C1412 1.367 1_655 S
C1413 C1415 1.433 . S
C1414 C1410 1.355 . S
C1414 C1411 1.463 . S
C1414 N1418 1.427 . S
C1415 H1405 0.929 . S
C1415 C1413 1.433 . S
C1415 N1418 1.384 . S
C1416 H1407 0.929 . S
C1416 C1408 1.378 . S
C1416 C1411 1.350 . S
C1417 H1404 0.929 . S
C1417 C1409 1.433 . S
C1417 N1419 1.384 . S
N1418 C1414 1.427 . S
N1418 C1415 1.384 . S
N1419 C1411 1.427 . S
N1419 C1417 1.384 . S
H1420 C1426 0.930 . S
H1421 C1430 0.930 . S
H1422 C1435 0.929 . S
H1423 C1433 0.929 . S
H1424 C1428 0.929 . S
H1425 C1434 0.929 . S
C1426 H1420 0.930 . S
C1426 C1427 1.367 . S
C1426 C1434 1.378 . S
C1427 C1426 1.367 . S
C1427 C1435 1.433 . S
C1428 H1424 0.929 . S
C1428 C1430 1.378 . S
C1428 C1432 1.350 . S
C1429 C1432 1.463 . S
C1429 C1434 1.350 . S
C1429 N1437 1.427 . S
C1430 H1421 0.930 . S
C1430 C1428 1.378 . S
C1430 C1431 1.367 . S
C1431 C1430 1.367 . S
C1431 C1433 1.433 . S
C1432 C1428 1.350 . S
C1432 C1429 1.463 . S
C1432 N1436 1.427 . S
C1433 H1423 0.929 . S
C1433 C1431 1.433 . S
C1433 N1436 1.384 . S
C1434 H1425 0.929 . S
C1434 C1426 1.378 . S
C1434 C1429 1.350 . S
C1435 H1422 0.929 . S
C1435 C1427 1.433 . S
C1435 N1437 1.384 . S
N1436 C1432 1.427 . S
N1436 C1433 1.384 . S
N1437 C1429 1.427 . S
N1437 C1435 1.384 . S
H1438 C1444 0.930 . S
H1439 C1448 0.930 . S
H1440 C1453 0.929 . S
H1441 C1451 0.929 1_655 S
H1442 C1446 0.929 . S
H1443 C1452 0.929 . S
C1444 H1438 0.930 . S
C1444 C1445 1.367 . S
C1444 C1452 1.378 . S
C1445 C1444 1.367 . S
C1445 C1453 1.433 . S
C1446 H1442 0.929 . S
C1446 C1448 1.378 . S
C1446 C1450 1.350 . S
C1447 C1450 1.463 . S
C1447 C1452 1.350 . S
C1447 N1455 1.427 . S
C1448 H1439 0.930 . S
C1448 C1446 1.378 . S
C1448 C1449 1.367 . S
C1449 C1448 1.367 . S
C1449 C1451 1.433 . S
C1450 C1446 1.350 . S
C1450 C1447 1.463 . S
C1450 N1454 1.427 . S
C1451 H1441 0.929 1_455 S
C1451 C1449 1.433 . S
C1451 N1454 1.384 . S
C1452 H1443 0.929 . S
C1452 C1444 1.378 . S
C1452 C1447 1.350 . S
C1453 H1440 0.929 . S
C1453 C1445 1.433 . S
C1453 N1455 1.384 . S
N1454 C1450 1.427 . S
N1454 C1451 1.384 . S
N1455 C1447 1.427 . S
N1455 C1453 1.384 . S
H1456 C1462 0.930 . S
H1457 C1466 0.930 . S
H1458 C1471 0.929 . S
H1459 C1469 0.929 . S
H1460 C1464 0.929 . S
H1461 C1470 0.929 . S
C1462 H1456 0.930 . S
C1462 C1463 1.367 . S
C1462 C1470 1.378 . S
C1463 C1462 1.367 . S
C1463 C1471 1.433 . S
C1464 H1460 0.929 . S
C1464 C1466 1.378 . S
C1464 C1468 1.350 . S
C1465 C1468 1.463 . S
C1465 C1470 1.350 . S
C1465 N1473 1.427 . S
C1466 H1457 0.930 . S
C1466 C1464 1.378 . S
C1466 C1467 1.367 . S
C1467 C1466 1.367 . S
C1467 C1469 1.433 . S
C1468 C1464 1.350 . S
C1468 C1465 1.463 . S
C1468 N1472 1.427 . S
C1469 H1459 0.929 . S
C1469 C1467 1.433 . S
C1469 N1472 1.384 . S
C1470 H1461 0.929 . S
C1470 C1462 1.378 . S
C1470 C1465 1.350 . S
C1471 H1458 0.929 . S
C1471 C1463 1.433 . S
C1471 N1473 1.384 . S
N1472 C1468 1.427 . S
N1472 C1469 1.384 . S
N1473 C1465 1.427 . S
N1473 C1471 1.384 . S
H1474 C1480 0.930 . S
H1475 C1484 0.930 . S
H1476 C1489 0.929 . S
H1477 C1487 0.929 . S
H1478 C1482 0.929 . S
H1479 C1488 0.929 . S
C1480 H1474 0.930 . S
C1480 C1481 1.367 . S
C1480 C1488 1.378 . S
C1481 C1480 1.367 . S
C1481 C1489 1.433 . S
C1482 H1478 0.929 . S
C1482 C1484 1.378 . S
C1482 C1486 1.350 . S
C1483 C1486 1.463 . S
C1483 C1488 1.350 . S
C1483 N1491 1.427 . S
C1484 H1475 0.930 . S
C1484 C1482 1.378 . S
C1484 C1485 1.367 . S
C1485 C1484 1.367 . S
C1485 C1487 1.433 . S
C1486 C1482 1.350 . S
C1486 C1483 1.463 . S
C1486 N1490 1.427 . S
C1487 H1477 0.929 . S
C1487 C1485 1.433 . S
C1487 N1490 1.384 . S
C1488 H1479 0.929 . S
C1488 C1480 1.378 . S
C1488 C1483 1.350 . S
C1489 H1476 0.929 . S
C1489 C1481 1.433 . S
C1489 N1491 1.384 . S
N1490 C1486 1.427 . S
N1490 C1487 1.384 . S
N1491 C1483 1.427 . S
N1491 C1489 1.384 . S
H1492 C1498 0.930 . S
H1493 C1502 0.930 . S
H1494 C1507 0.929 . S
H1495 C1505 0.929 . S
H1496 C1500 0.929 . S
H1497 C1506 0.929 . S
C1498 H1492 0.930 . S
C1498 C1499 1.367 . S
C1498 C1506 1.378 . S
C1499 C1498 1.367 . S
C1499 C1507 1.433 . S
C1500 H1496 0.929 . S
C1500 C1502 1.378 . S
C1500 C1504 1.350 . S
C1501 C1504 1.463 . S
C1501 C1506 1.350 . S
C1501 N1509 1.427 . S
C1502 H1493 0.930 . S
C1502 C1500 1.378 . S
C1502 C1503 1.367 . S
C1503 C1502 1.367 . S
C1503 C1505 1.433 . S
C1504 C1500 1.350 . S
C1504 C1501 1.463 . S
C1504 N1508 1.427 . S
C1505 H1495 0.929 . S
C1505 C1503 1.433 . S
C1505 N1508 1.384 . S
C1506 H1497 0.929 . S
C1506 C1498 1.378 . S
C1506 C1501 1.350 . S
C1507 H1494 0.929 . S
C1507 C1499 1.433 . S
C1507 N1509 1.384 . S
N1508 C1504 1.427 . S
N1508 C1505 1.384 . S
N1509 C1501 1.427 . S
N1509 C1507 1.384 . S
H1510 C1516 0.930 . S
H1511 C1520 0.930 . S
H1512 C1525 0.929 . S
H1513 C1523 0.929 . S
H1514 C1518 0.929 . S
H1515 C1524 0.929 . S
C1516 H1510 0.930 . S
C1516 C1517 1.367 . S
C1516 C1524 1.378 . S
C1517 C1516 1.367 . S
C1517 C1525 1.433 . S
C1518 H1514 0.929 . S
C1518 C1520 1.378 . S
C1518 C1522 1.350 . S
C1519 C1522 1.463 . S
C1519 C1524 1.350 . S
C1519 N1527 1.427 . S
C1520 H1511 0.930 . S
C1520 C1518 1.378 . S
C1520 C1521 1.367 . S
C1521 C1520 1.367 . S
C1521 C1523 1.433 . S
C1522 C1518 1.350 . S
C1522 C1519 1.463 . S
C1522 N1526 1.427 . S
C1523 H1513 0.929 . S
C1523 C1521 1.433 . S
C1523 N1526 1.384 . S
C1524 H1515 0.929 . S
C1524 C1516 1.378 . S
C1524 C1519 1.350 . S
C1525 H1512 0.929 . S
C1525 C1517 1.433 . S
C1525 N1527 1.384 . S
N1526 C1522 1.427 . S
N1526 C1523 1.384 . S
N1527 C1519 1.427 . S
N1527 C1525 1.384 . S
H1528 C1534 0.930 . S
H1529 C1538 0.930 . S
H1530 C1543 0.929 . S
H1531 C1541 0.929 . S
H1532 C1536 0.929 . S
H1533 C1542 0.929 . S
C1534 H1528 0.930 . S
C1534 C1535 1.367 . S
C1534 C1542 1.378 . S
C1535 C1534 1.367 . S
C1535 C1543 1.433 . S
C1536 H1532 0.929 . S
C1536 C1538 1.378 . S
C1536 C1540 1.350 . S
C1537 C1540 1.463 . S
C1537 C1542 1.350 . S
C1537 N1545 1.427 . S
C1538 H1529 0.930 . S
C1538 C1536 1.378 . S
C1538 C1539 1.367 . S
C1539 C1538 1.367 . S
C1539 C1541 1.433 . S
C1540 C1536 1.350 . S
C1540 C1537 1.463 . S
C1540 N1544 1.427 . S
C1541 H1531 0.929 . S
C1541 C1539 1.433 . S
C1541 N1544 1.384 . S
C1542 H1533 0.929 . S
C1542 C1534 1.378 . S
C1542 C1537 1.350 . S
C1543 H1530 0.929 . S
C1543 C1535 1.433 . S
C1543 N1545 1.384 . S
N1544 C1540 1.427 . S
N1544 C1541 1.384 . S
N1545 C1537 1.427 . S
N1545 C1543 1.384 . S
H1546 C1552 0.930 . S
H1547 C1556 0.930 . S
H1548 C1561 0.929 . S
H1549 C1559 0.929 . S
H1550 C1554 0.929 . S
H1551 C1560 0.929 . S
C1552 H1546 0.930 . S
C1552 C1553 1.367 . S
C1552 C1560 1.378 . S
C1553 C1552 1.367 . S
C1553 C1561 1.433 . S
C1554 H1550 0.929 . S
C1554 C1556 1.378 . S
C1554 C1558 1.350 . S
C1555 C1558 1.463 . S
C1555 C1560 1.350 . S
C1555 N1563 1.427 . S
C1556 H1547 0.930 . S
C1556 C1554 1.378 . S
C1556 C1557 1.367 . S
C1557 C1556 1.367 . S
C1557 C1559 1.433 . S
C1558 C1554 1.350 . S
C1558 C1555 1.463 . S
C1558 N1562 1.427 . S
C1559 H1549 0.929 . S
C1559 C1557 1.433 . S
C1559 N1562 1.384 . S
C1560 H1551 0.929 . S
C1560 C1552 1.378 . S
C1560 C1555 1.350 . S
C1561 H1548 0.929 . S
C1561 C1553 1.433 . S
C1561 N1563 1.384 . S
N1562 C1558 1.427 . S
N1562 C1559 1.384 . S
N1563 C1555 1.427 . S
N1563 C1561 1.384 . S
H1564 C1570 0.930 . S
H1565 C1574 0.930 . S
H1566 C1579 0.929 . S
H1567 C1577 0.929 . S
H1568 C1572 0.929 . S
H1569 C1578 0.929 . S
C1570 H1564 0.930 . S
C1570 C1571 1.367 . S
C1570 C1578 1.378 . S
C1571 C1570 1.367 . S
C1571 C1579 1.433 . S
C1572 H1568 0.929 . S
C1572 C1574 1.378 . S
C1572 C1576 1.350 . S
C1573 C1576 1.463 . S
C1573 C1578 1.350 . S
C1573 N1581 1.427 . S
C1574 H1565 0.930 . S
C1574 C1572 1.378 . S
C1574 C1575 1.367 . S
C1575 C1574 1.367 . S
C1575 C1577 1.433 . S
C1576 C1572 1.350 . S
C1576 C1573 1.463 . S
C1576 N1580 1.427 . S
C1577 H1567 0.929 . S
C1577 C1575 1.433 . S
C1577 N1580 1.384 . S
C1578 H1569 0.929 . S
C1578 C1570 1.378 . S
C1578 C1573 1.350 . S
C1579 H1566 0.929 . S
C1579 C1571 1.433 . S
C1579 N1581 1.384 . S
N1580 C1576 1.427 . S
N1580 C1577 1.384 . S
N1581 C1573 1.427 . S
N1581 C1579 1.384 . S
H1582 C1588 0.930 . S
H1583 C1592 0.930 . S
H1584 C1597 0.929 . S
H1585 C1595 0.929 . S
H1586 C1590 0.929 . S
H1587 C1596 0.929 . S
C1588 H1582 0.930 . S
C1588 C1589 1.367 . S
C1588 C1596 1.378 . S
C1589 C1588 1.367 . S
C1589 C1597 1.433 . S
C1590 H1586 0.929 . S
C1590 C1592 1.378 . S
C1590 C1594 1.350 . S
C1591 C1594 1.463 . S
C1591 C1596 1.350 . S
C1591 N1599 1.427 . S
C1592 H1583 0.930 . S
C1592 C1590 1.378 . S
C1592 C1593 1.367 . S
C1593 C1592 1.367 . S
C1593 C1595 1.433 . S
C1594 C1590 1.350 . S
C1594 C1591 1.463 . S
C1594 N1598 1.427 . S
C1595 H1585 0.929 . S
C1595 C1593 1.433 . S
C1595 N1598 1.384 . S
C1596 H1587 0.929 . S
C1596 C1588 1.378 . S
C1596 C1591 1.350 . S
C1597 H1584 0.929 . S
C1597 C1589 1.433 . S
C1597 N1599 1.384 . S
N1598 C1594 1.427 . S
N1598 C1595 1.384 . S
N1599 C1591 1.427 . S
N1599 C1597 1.384 . S
H1600 C1606 0.930 . S
H1601 C1610 0.930 . S
H1602 C1615 0.929 . S
H1603 C1613 0.929 . S
H1604 C1608 0.929 1_554 S
H1605 C1614 0.929 . S
C1606 H1600 0.930 . S
C1606 C1607 1.367 . S
C1606 C1614 1.378 . S
C1607 C1606 1.367 . S
C1607 C1615 1.433 . S
C1608 H1604 0.929 1_556 S
C1608 C1610 1.378 1_556 S
C1608 C1612 1.350 . S
C1609 C1612 1.463 . S
C1609 C1614 1.350 . S
C1609 N1617 1.427 . S
C1610 H1601 0.930 . S
C1610 C1608 1.378 1_554 S
C1610 C1611 1.367 1_554 S
C1611 C1610 1.367 1_556 S
C1611 C1613 1.433 . S
C1612 C1608 1.350 . S
C1612 C1609 1.463 . S
C1612 N1616 1.427 . S
C1613 H1603 0.929 . S
C1613 C1611 1.433 . S
C1613 N1616 1.384 . S
C1614 H1605 0.929 . S
C1614 C1606 1.378 . S
C1614 C1609 1.350 . S
C1615 H1602 0.929 . S
C1615 C1607 1.433 . S
C1615 N1617 1.384 . S
N1616 C1612 1.427 . S
N1616 C1613 1.384 . S
N1617 C1609 1.427 . S
N1617 C1615 1.384 . S
H1618 C1624 0.930 . S
H1619 C1628 0.930 . S
H1620 C1633 0.929 . S
H1621 C1631 0.929 . S
H1622 C1626 0.929 . S
H1623 C1632 0.929 . S
C1624 H1618 0.930 . S
C1624 C1625 1.367 . S
C1624 C1632 1.378 . S
C1625 C1624 1.367 . S
C1625 C1633 1.433 . S
C1626 H1622 0.929 . S
C1626 C1628 1.378 . S
C1626 C1630 1.350 . S
C1627 C1630 1.463 . S
C1627 C1632 1.350 . S
C1627 N1635 1.427 . S
C1628 H1619 0.930 . S
C1628 C1626 1.378 . S
C1628 C1629 1.367 . S
C1629 C1628 1.367 . S
C1629 C1631 1.433 . S
C1630 C1626 1.350 . S
C1630 C1627 1.463 . S
C1630 N1634 1.427 . S
C1631 H1621 0.929 . S
C1631 C1629 1.433 . S
C1631 N1634 1.384 . S
C1632 H1623 0.929 . S
C1632 C1624 1.378 . S
C1632 C1627 1.350 . S
C1633 H1620 0.929 . S
C1633 C1625 1.433 . S
C1633 N1635 1.384 . S
N1634 C1630 1.427 . S
N1634 C1631 1.384 . S
N1635 C1627 1.427 . S
N1635 C1633 1.384 . S
H1636 C1642 0.930 . S
H1637 C1646 0.930 . S
H1638 C1651 0.929 . S
H1639 C1649 0.929 . S
H1640 C1644 0.929 . S
H1641 C1650 0.929 . S
C1642 H1636 0.930 . S
C1642 C1643 1.367 . S
C1642 C1650 1.378 . S
C1643 C1642 1.367 . S
C1643 C1651 1.433 . S
C1644 H1640 0.929 . S
C1644 C1646 1.378 . S
C1644 C1648 1.350 . S
C1645 C1648 1.463 . S
C1645 C1650 1.350 . S
C1645 N1653 1.427 . S
C1646 H1637 0.930 . S
C1646 C1644 1.378 . S
C1646 C1647 1.367 . S
C1647 C1646 1.367 . S
C1647 C1649 1.433 . S
C1648 C1644 1.350 . S
C1648 C1645 1.463 . S
C1648 N1652 1.427 . S
C1649 H1639 0.929 . S
C1649 C1647 1.433 . S
C1649 N1652 1.384 . S
C1650 H1641 0.929 . S
C1650 C1642 1.378 . S
C1650 C1645 1.350 . S
C1651 H1638 0.929 . S
C1651 C1643 1.433 . S
C1651 N1653 1.384 . S
N1652 C1648 1.427 . S
N1652 C1649 1.384 . S
N1653 C1645 1.427 . S
N1653 C1651 1.384 . S
H1654 C1660 0.902 1_556 S
H1655 C1664 0.930 . S
H1656 C1669 0.929 . S
H1657 C1667 0.921 1_556 S
H1658 C1662 0.929 . S
H1659 C1668 0.929 1_556 S
C1660 H1654 0.902 1_554 S
C1660 C1661 1.367 . S
C1660 C1668 1.378 . S
C1661 C1660 1.367 . S
C1661 C1669 1.433 . S
C1662 H1658 0.929 . S
C1662 C1664 1.378 . S
C1662 C1666 1.350 . S
C1663 C1666 1.463 . S
C1663 C1668 1.350 . S
C1663 N1671 1.427 . S
C1664 H1655 0.930 . S
C1664 C1662 1.378 . S
C1664 C1665 1.367 . S
C1665 C1664 1.367 . S
C1665 C1667 1.441 . S
C1666 C1662 1.350 . S
C1666 C1663 1.463 . S
C1666 N1670 1.427 . S
C1667 H1657 0.921 1_554 S
C1667 C1665 1.441 . S
C1667 N1670 1.385 . S
C1668 H1659 0.929 1_554 S
C1668 C1660 1.378 . S
C1668 C1663 1.350 . S
C1669 H1656 0.929 . S
C1669 C1661 1.433 . S
C1669 N1671 1.384 . S
N1670 C1666 1.427 . S
N1670 C1667 1.385 . S
N1671 C1663 1.427 . S
N1671 C1669 1.384 . S
C819 C648 1.480 . S
C815 C202 1.494 . S
C837 C661 1.497 . S
C833 C261 1.475 . S
C851 C282 1.684 . S
C855 C681 1.568 . S
C873 C695 1.371 . S
C869 C162 1.420 . S
C891 C707 1.499 . S
C887 C402 1.492 . S
C909 C721 1.426 . S
C905 C482 1.414 . S
C923 C442 1.484 . S
C927 C731 1.490 . S
C945 C746 1.530 . S
C941 C381 1.543 . S
C959 C461 1.546 . S
C963 C760 1.537 . S
C981 C779 1.354 . S
C977 C362 1.387 . S
C995 C415 1.452 . S
C999 C759 1.444 . S
C1017 C777 1.437 . S
C1013 C495 1.440 . S
C1031 C301 1.723 . S
C1035 C793 1.590 . S
C1049 C175 1.508 . S
C1053 C787 1.500 . S
C1067 C215 1.484 . S
C1071 C791 1.482 . S
C1085 C242 1.502 . S
C1089 C788 1.494 . S
C1103 C141 1.546 . S
C1107 C690 1.524 . S
C1121 C581 1.520 . S
C1125 C689 1.524 . S
C1143 C653 1.340 . S
C1139 C615 1.394 . S
C1161 C667 1.540 . S
C1157 C335 1.661 . S
C1175 C181 1.585 . S
C1179 C704 1.572 . S
C1197 C749 1.498 . S
C1193 C455 1.506 . S
C1215 C703 1.434 . S
C1211 C375 1.435 . S
C1233 C735 1.471 . S
C1229 C501 1.470 . S
C1251 C732 1.480 . S
C1247 C562 1.496 . S
C1265 C621 1.483 . S
C1269 C745 1.496 . S
C1283 C322 1.683 . S
C1287 C709 1.569 . S
C1305 C723 1.368 . S
C1301 C522 1.423 . S
C1319 C122 1.493 . S
C1323 C679 1.501 . S
C1341 C693 1.425 . S
C1337 C2 1.417 . S
C1359 C647 1.484 . S
C1355 C42 1.476 . S
C1377 C662 1.531 . S
C1373 C101 1.537 . S
C1391 C61 1.546 . S
C1395 C774 1.538 . S
C1409 C82 1.391 . S
C1413 C765 1.347 . S
C1427 C135 1.452 . S
C1431 C773 1.444 . S
C1445 C15 1.442 . S
C1449 C763 1.438 . S
C1467 C807 1.590 . S
C1463 C341 1.723 . S
C1485 C801 1.505 . S
C1481 C535 1.505 . S
C1503 C805 1.482 . S
C1499 C575 1.484 . S
C1517 C602 1.493 . S
C1521 C802 1.488 . S
C1535 C421 1.550 . S
C1539 C718 1.533 . S
C1557 C717 1.517 . S
C1553 C221 1.524 . S
C1575 C737 1.333 . S
C1571 C255 1.398 . S
C1593 C751 1.538 . S
C1589 C295 1.658 . S
C1607 C541 1.579 . S
C1611 C676 1.574 . S
C1629 C665 1.498 . S
C1625 C55 1.506 . S
C1643 C95 1.435 . S
C1647 C675 1.434 . S
C1665 C651 1.471 . S
C1661 C21 1.469 . S
