# Generated by pormake.
# Topology gar, (4,6)-cn, num edge types: 1
# Building blocks:
#     Node 0, Type 0, BuildingBlock: QUQFOY_clean_sbu_3, # of connection points: 4
#     Node 1, Type 0, BuildingBlock: QUQFOY_clean_sbu_3, # of connection points: 4
#     Node 2, Type 0, BuildingBlock: QUQFOY_clean_sbu_3, # of connection points: 4
#     Node 3, Type 0, BuildingBlock: QUQFOY_clean_sbu_3, # of connection points: 4
#     Node 4, Type 0, BuildingBlock: QUQFOY_clean_sbu_3, # of connection points: 4
#     Node 5, Type 0, BuildingBlock: QUQFOY_clean_sbu_3, # of connection points: 4
#     Node 6, Type 0, BuildingBlock: QUQFOY_clean_sbu_3, # of connection points: 4
#     Node 7, Type 0, BuildingBlock: QUQFOY_clean_sbu_3, # of connection points: 4
#     Node 8, Type 0, BuildingBlock: QUQFOY_clean_sbu_3, # of connection points: 4
#     Node 9, Type 0, BuildingBlock: QUQFOY_clean_sbu_3, # of connection points: 4
#     Node 10, Type 0, BuildingBlock: QUQFOY_clean_sbu_3, # of connection points: 4
#     Node 11, Type 0, BuildingBlock: QUQFOY_clean_sbu_3, # of connection points: 4
#     Node 12, Type 0, BuildingBlock: QUQFOY_clean_sbu_3, # of connection points: 4
#     Node 13, Type 0, BuildingBlock: QUQFOY_clean_sbu_3, # of connection points: 4
#     Node 14, Type 0, BuildingBlock: QUQFOY_clean_sbu_3, # of connection points: 4
#     Node 15, Type 0, BuildingBlock: QUQFOY_clean_sbu_3, # of connection points: 4
#     Node 16, Type 0, BuildingBlock: QUQFOY_clean_sbu_3, # of connection points: 4
#     Node 17, Type 0, BuildingBlock: QUQFOY_clean_sbu_3, # of connection points: 4
#     Node 18, Type 0, BuildingBlock: QUQFOY_clean_sbu_3, # of connection points: 4
#     Node 19, Type 0, BuildingBlock: QUQFOY_clean_sbu_3, # of connection points: 4
#     Node 20, Type 0, BuildingBlock: QUQFOY_clean_sbu_3, # of connection points: 4
#     Node 21, Type 0, BuildingBlock: QUQFOY_clean_sbu_3, # of connection points: 4
#     Node 22, Type 0, BuildingBlock: QUQFOY_clean_sbu_3, # of connection points: 4
#     Node 23, Type 0, BuildingBlock: QUQFOY_clean_sbu_3, # of connection points: 4
#     Node 24, Type 1, BuildingBlock: MIFKUJ_clean_sbu_0, # of connection points: 6
#     Node 25, Type 1, BuildingBlock: MIFKUJ_clean_sbu_0, # of connection points: 6
#     Node 26, Type 1, BuildingBlock: MIFKUJ_clean_sbu_0, # of connection points: 6
#     Node 27, Type 1, BuildingBlock: MIFKUJ_clean_sbu_0, # of connection points: 6
#     Node 28, Type 1, BuildingBlock: MIFKUJ_clean_sbu_0, # of connection points: 6
#     Node 29, Type 1, BuildingBlock: MIFKUJ_clean_sbu_0, # of connection points: 6
#     Node 30, Type 1, BuildingBlock: MIFKUJ_clean_sbu_0, # of connection points: 6
#     Node 31, Type 1, BuildingBlock: MIFKUJ_clean_sbu_0, # of connection points: 6
#     Node 32, Type 1, BuildingBlock: MIFKUJ_clean_sbu_0, # of connection points: 6
#     Node 33, Type 1, BuildingBlock: MIFKUJ_clean_sbu_0, # of connection points: 6
#     Node 34, Type 1, BuildingBlock: MIFKUJ_clean_sbu_0, # of connection points: 6
#     Node 35, Type 1, BuildingBlock: MIFKUJ_clean_sbu_0, # of connection points: 6
#     Node 36, Type 1, BuildingBlock: MIFKUJ_clean_sbu_0, # of connection points: 6
#     Node 37, Type 1, BuildingBlock: MIFKUJ_clean_sbu_0, # of connection points: 6
#     Node 38, Type 1, BuildingBlock: MIFKUJ_clean_sbu_0, # of connection points: 6
#     Node 39, Type 1, BuildingBlock: MIFKUJ_clean_sbu_0, # of connection points: 6
#     Edge 40, Type (0, 1), BuildingBlock: XIVTED_clean_linker_0, # of connection points: 2
#     Edge 41, Type (0, 1), BuildingBlock: XIVTED_clean_linker_0, # of connection points: 2
#     Edge 42, Type (0, 1), BuildingBlock: XIVTED_clean_linker_0, # of connection points: 2
#     Edge 43, Type (0, 1), BuildingBlock: XIVTED_clean_linker_0, # of connection points: 2
#     Edge 44, Type (0, 1), BuildingBlock: XIVTED_clean_linker_0, # of connection points: 2
#     Edge 45, Type (0, 1), BuildingBlock: XIVTED_clean_linker_0, # of connection points: 2
#     Edge 46, Type (0, 1), BuildingBlock: XIVTED_clean_linker_0, # of connection points: 2
#     Edge 47, Type (0, 1), BuildingBlock: XIVTED_clean_linker_0, # of connection points: 2
#     Edge 48, Type (0, 1), BuildingBlock: XIVTED_clean_linker_0, # of connection points: 2
#     Edge 49, Type (0, 1), BuildingBlock: XIVTED_clean_linker_0, # of connection points: 2
#     Edge 50, Type (0, 1), BuildingBlock: XIVTED_clean_linker_0, # of connection points: 2
#     Edge 51, Type (0, 1), BuildingBlock: XIVTED_clean_linker_0, # of connection points: 2
#     Edge 52, Type (0, 1), BuildingBlock: XIVTED_clean_linker_0, # of connection points: 2
#     Edge 53, Type (0, 1), BuildingBlock: XIVTED_clean_linker_0, # of connection points: 2
#     Edge 54, Type (0, 1), BuildingBlock: XIVTED_clean_linker_0, # of connection points: 2
#     Edge 55, Type (0, 1), BuildingBlock: XIVTED_clean_linker_0, # of connection points: 2
#     Edge 56, Type (0, 1), BuildingBlock: XIVTED_clean_linker_0, # of connection points: 2
#     Edge 57, Type (0, 1), BuildingBlock: XIVTED_clean_linker_0, # of connection points: 2
#     Edge 58, Type (0, 1), BuildingBlock: XIVTED_clean_linker_0, # of connection points: 2
#     Edge 59, Type (0, 1), BuildingBlock: XIVTED_clean_linker_0, # of connection points: 2
#     Edge 60, Type (0, 1), BuildingBlock: XIVTED_clean_linker_0, # of connection points: 2
#     Edge 61, Type (0, 1), BuildingBlock: XIVTED_clean_linker_0, # of connection points: 2
#     Edge 62, Type (0, 1), BuildingBlock: XIVTED_clean_linker_0, # of connection points: 2
#     Edge 63, Type (0, 1), BuildingBlock: XIVTED_clean_linker_0, # of connection points: 2
#     Edge 64, Type (0, 1), BuildingBlock: XIVTED_clean_linker_0, # of connection points: 2
#     Edge 65, Type (0, 1), BuildingBlock: XIVTED_clean_linker_0, # of connection points: 2
#     Edge 66, Type (0, 1), BuildingBlock: XIVTED_clean_linker_0, # of connection points: 2
#     Edge 67, Type (0, 1), BuildingBlock: XIVTED_clean_linker_0, # of connection points: 2
#     Edge 68, Type (0, 1), BuildingBlock: XIVTED_clean_linker_0, # of connection points: 2
#     Edge 69, Type (0, 1), BuildingBlock: XIVTED_clean_linker_0, # of connection points: 2
#     Edge 70, Type (0, 1), BuildingBlock: XIVTED_clean_linker_0, # of connection points: 2
#     Edge 71, Type (0, 1), BuildingBlock: XIVTED_clean_linker_0, # of connection points: 2
#     Edge 72, Type (0, 1), BuildingBlock: XIVTED_clean_linker_0, # of connection points: 2
#     Edge 73, Type (0, 1), BuildingBlock: XIVTED_clean_linker_0, # of connection points: 2
#     Edge 74, Type (0, 1), BuildingBlock: XIVTED_clean_linker_0, # of connection points: 2
#     Edge 75, Type (0, 1), BuildingBlock: XIVTED_clean_linker_0, # of connection points: 2
#     Edge 76, Type (0, 1), BuildingBlock: XIVTED_clean_linker_0, # of connection points: 2
#     Edge 77, Type (0, 1), BuildingBlock: XIVTED_clean_linker_0, # of connection points: 2
#     Edge 78, Type (0, 1), BuildingBlock: XIVTED_clean_linker_0, # of connection points: 2
#     Edge 79, Type (0, 1), BuildingBlock: XIVTED_clean_linker_0, # of connection points: 2
#     Edge 80, Type (0, 1), BuildingBlock: XIVTED_clean_linker_0, # of connection points: 2
#     Edge 81, Type (0, 1), BuildingBlock: XIVTED_clean_linker_0, # of connection points: 2
#     Edge 82, Type (0, 1), BuildingBlock: XIVTED_clean_linker_0, # of connection points: 2
#     Edge 83, Type (0, 1), BuildingBlock: XIVTED_clean_linker_0, # of connection points: 2
#     Edge 84, Type (0, 1), BuildingBlock: XIVTED_clean_linker_0, # of connection points: 2
#     Edge 85, Type (0, 1), BuildingBlock: XIVTED_clean_linker_0, # of connection points: 2
#     Edge 86, Type (0, 1), BuildingBlock: XIVTED_clean_linker_0, # of connection points: 2
#     Edge 87, Type (0, 1), BuildingBlock: XIVTED_clean_linker_0, # of connection points: 2
#     Edge 88, Type (0, 1), BuildingBlock: XIVTED_clean_linker_0, # of connection points: 2
#     Edge 89, Type (0, 1), BuildingBlock: XIVTED_clean_linker_0, # of connection points: 2
#     Edge 90, Type (0, 1), BuildingBlock: XIVTED_clean_linker_0, # of connection points: 2
#     Edge 91, Type (0, 1), BuildingBlock: XIVTED_clean_linker_0, # of connection points: 2
#     Edge 92, Type (0, 1), BuildingBlock: XIVTED_clean_linker_0, # of connection points: 2
#     Edge 93, Type (0, 1), BuildingBlock: XIVTED_clean_linker_0, # of connection points: 2
#     Edge 94, Type (0, 1), BuildingBlock: XIVTED_clean_linker_0, # of connection points: 2
#     Edge 95, Type (0, 1), BuildingBlock: XIVTED_clean_linker_0, # of connection points: 2
#     Edge 96, Type (0, 1), BuildingBlock: XIVTED_clean_linker_0, # of connection points: 2
#     Edge 97, Type (0, 1), BuildingBlock: XIVTED_clean_linker_0, # of connection points: 2
#     Edge 98, Type (0, 1), BuildingBlock: XIVTED_clean_linker_0, # of connection points: 2
#     Edge 99, Type (0, 1), BuildingBlock: XIVTED_clean_linker_0, # of connection points: 2
#     Edge 100, Type (0, 1), BuildingBlock: XIVTED_clean_linker_0, # of connection points: 2
#     Edge 101, Type (0, 1), BuildingBlock: XIVTED_clean_linker_0, # of connection points: 2
#     Edge 102, Type (0, 1), BuildingBlock: XIVTED_clean_linker_0, # of connection points: 2
#     Edge 103, Type (0, 1), BuildingBlock: XIVTED_clean_linker_0, # of connection points: 2
#     Edge 104, Type (0, 1), BuildingBlock: XIVTED_clean_linker_0, # of connection points: 2
#     Edge 105, Type (0, 1), BuildingBlock: XIVTED_clean_linker_0, # of connection points: 2
#     Edge 106, Type (0, 1), BuildingBlock: XIVTED_clean_linker_0, # of connection points: 2
#     Edge 107, Type (0, 1), BuildingBlock: XIVTED_clean_linker_0, # of connection points: 2
#     Edge 108, Type (0, 1), BuildingBlock: XIVTED_clean_linker_0, # of connection points: 2
#     Edge 109, Type (0, 1), BuildingBlock: XIVTED_clean_linker_0, # of connection points: 2
#     Edge 110, Type (0, 1), BuildingBlock: XIVTED_clean_linker_0, # of connection points: 2
#     Edge 111, Type (0, 1), BuildingBlock: XIVTED_clean_linker_0, # of connection points: 2
#     Edge 112, Type (0, 1), BuildingBlock: XIVTED_clean_linker_0, # of connection points: 2
#     Edge 113, Type (0, 1), BuildingBlock: XIVTED_clean_linker_0, # of connection points: 2
#     Edge 114, Type (0, 1), BuildingBlock: XIVTED_clean_linker_0, # of connection points: 2
#     Edge 115, Type (0, 1), BuildingBlock: XIVTED_clean_linker_0, # of connection points: 2
#     Edge 116, Type (0, 1), BuildingBlock: XIVTED_clean_linker_0, # of connection points: 2
#     Edge 117, Type (0, 1), BuildingBlock: XIVTED_clean_linker_0, # of connection points: 2
#     Edge 118, Type (0, 1), BuildingBlock: XIVTED_clean_linker_0, # of connection points: 2
#     Edge 119, Type (0, 1), BuildingBlock: XIVTED_clean_linker_0, # of connection points: 2
#     Edge 120, Type (0, 1), BuildingBlock: XIVTED_clean_linker_0, # of connection points: 2
#     Edge 121, Type (0, 1), BuildingBlock: XIVTED_clean_linker_0, # of connection points: 2
#     Edge 122, Type (0, 1), BuildingBlock: XIVTED_clean_linker_0, # of connection points: 2
#     Edge 123, Type (0, 1), BuildingBlock: XIVTED_clean_linker_0, # of connection points: 2
#     Edge 124, Type (0, 1), BuildingBlock: XIVTED_clean_linker_0, # of connection points: 2
#     Edge 125, Type (0, 1), BuildingBlock: XIVTED_clean_linker_0, # of connection points: 2
#     Edge 126, Type (0, 1), BuildingBlock: XIVTED_clean_linker_0, # of connection points: 2
#     Edge 127, Type (0, 1), BuildingBlock: XIVTED_clean_linker_0, # of connection points: 2
#     Edge 128, Type (0, 1), BuildingBlock: XIVTED_clean_linker_0, # of connection points: 2
#     Edge 129, Type (0, 1), BuildingBlock: XIVTED_clean_linker_0, # of connection points: 2
#     Edge 130, Type (0, 1), BuildingBlock: XIVTED_clean_linker_0, # of connection points: 2
#     Edge 131, Type (0, 1), BuildingBlock: XIVTED_clean_linker_0, # of connection points: 2
#     Edge 132, Type (0, 1), BuildingBlock: XIVTED_clean_linker_0, # of connection points: 2
#     Edge 133, Type (0, 1), BuildingBlock: XIVTED_clean_linker_0, # of connection points: 2
#     Edge 134, Type (0, 1), BuildingBlock: XIVTED_clean_linker_0, # of connection points: 2
#     Edge 135, Type (0, 1), BuildingBlock: XIVTED_clean_linker_0, # of connection points: 2
# Relax obj value: 0.096
# Max RMSD: 0.285
# Mean RMSD: 0.126
data_MOF--net-gar--node1-QUQFOY_clean_sbu_3--node2-MIFKUJ_clean_sbu_0--edge1-XIVTED_clean_linker_0
_symmetry_space_group_name_H-M    P1
_symmetry_Int_Tables_number       1
_symmetry_cell_setting            triclinic
loop_
_symmetry_equiv_pos_as_xyz
'x, y, z'
_cell_length_a     56.868781
_cell_length_b     57.835506
_cell_length_c     55.153967
_cell_angle_alpha  95.507226
_cell_angle_beta   94.595286
_cell_angle_gamma 99.299433
loop_
_atom_site_label
_atom_site_type_symbol
_atom_site_fract_x
_atom_site_fract_y
_atom_site_fract_z
_atom_type_partial_charge
C0 C 0.97808 0.27014 0.35694 0.0
O1 O 0.99261 0.27702 0.34173 0.0
Cd2 Cd 0.03518 0.28069 0.3519 0.0
O3 O 0.98557 0.26298 0.37678 0.0
Cd4 Cd 0.02121 0.25495 0.40024 0.0
C5 C 0.03884 0.31394 0.4083 0.0
O6 O 0.04266 0.24431 0.36553 0.0
O7 O 0.06252 0.24947 0.40129 0.0
O8 O -0.00315 0.21768 0.40435 0.0
C9 C 0.06212 0.24405 0.37842 0.0
O10 O 0.0428 0.31217 0.38582 0.0
C11 C 0.00174 0.21818 0.42727 0.0
O12 O 0.03017 0.2959 0.41831 0.0
O13 O 0.01554 0.23637 0.43813 0.0
C14 C 0.9678 0.73863 0.68191 0.0
O15 O 0.97832 0.7248 0.69367 0.0
Cd16 Cd 0.01078 0.70809 0.6785 0.0
O17 O 0.97524 0.74521 0.66205 0.0
Cd18 Cd 0.00861 0.74183 0.63615 0.0
C19 C 0.98739 0.68434 0.61973 0.0
O20 O 0.03923 0.74036 0.66924 0.0
O21 O 0.04893 0.73313 0.63255 0.0
O22 O 0.01217 0.78395 0.63684 0.0
C23 C 0.05509 0.73602 0.65538 0.0
O24 O -0.0059 0.68174 0.64176 0.0
C25 C 0.01116 0.78456 0.61386 0.0
O26 O 0.98972 0.70472 0.61238 0.0
O27 O 0.00895 0.76492 0.60067 0.0
C28 C 0.48552 0.78591 0.86983 0.0
O29 O 0.5018 0.79586 0.85798 0.0
Cd30 Cd 0.54349 0.79431 0.86843 0.0
O31 O 0.49072 0.77367 0.88685 0.0
Cd32 Cd 0.52551 0.7602 0.90695 0.0
C33 C 0.54929 0.81633 0.92899 0.0
O34 O 0.54678 0.75361 0.87077 0.0
O35 O 0.56602 0.75203 0.90579 0.0
O36 O 0.5008 0.72182 0.90659 0.0
C37 C 0.56529 0.74923 0.88265 0.0
O38 O 0.55465 0.81933 0.9074 0.0
C39 C 0.50518 0.72028 0.92926 0.0
O40 O 0.53763 0.7968 0.93355 0.0
O41 O 0.51859 0.73773 0.94181 0.0
C42 C 0.46223 0.23645 0.18068 0.0
O43 O 0.47625 0.22694 0.1941 0.0
Cd44 Cd 0.51313 0.21764 0.18174 0.0
O45 O 0.46788 0.24243 0.15997 0.0
Cd46 Cd 0.50167 0.24385 0.13383 0.0
C47 C 0.49385 0.18469 0.12561 0.0
O48 O 0.53249 0.25291 0.16795 0.0
O49 O 0.54489 0.24509 0.13272 0.0
O50 O 0.49115 0.28171 0.12731 0.0
C51 C 0.54994 0.25103 0.15548 0.0
O52 O 0.50214 0.18625 0.14798 0.0
C53 C 0.49445 0.28077 0.1048 0.0
O54 O 0.49063 0.20301 0.11555 0.0
O55 O 0.50083 0.26218 0.09522 0.0
C56 C -0.0009 0.76686 0.19409 0.0
O57 O 0.01547 0.7622 0.20898 0.0
Cd58 Cd 0.05635 0.76508 0.20028 0.0
O59 O 0.004 0.77466 0.17388 0.0
Cd60 Cd 0.03675 0.78701 0.14845 0.0
C61 C 0.04536 0.72987 0.14393 0.0
O62 O 0.06427 0.80135 0.18361 0.0
O63 O 0.08032 0.80141 0.14974 0.0
O64 O 0.01517 0.81911 0.14244 0.0
C65 C 0.08315 0.805 0.17292 0.0
O66 O 0.05325 0.73379 0.16652 0.0
C67 C 0.0169 0.81899 0.11963 0.0
O68 O 0.03731 0.74576 0.13276 0.0
O69 O 0.02787 0.80361 0.10973 0.0
C70 C 0.46502 0.75437 0.34148 0.0
O71 O 0.47759 0.76818 0.32911 0.0
Cd72 Cd 0.51396 0.79273 0.34555 0.0
O73 O 0.47252 0.75136 0.3632 0.0
Cd74 Cd 0.5089 0.76206 0.39304 0.0
C75 C 0.49537 0.81683 0.4 0.0
O76 O 0.53606 0.76588 0.36212 0.0
O77 O 0.55238 0.77806 0.39869 0.0
O78 O 0.50631 0.72024 0.3936 0.0
C79 C 0.55482 0.77431 0.37605 0.0
O80 O 0.50123 0.81786 0.37826 0.0
C81 C 0.50801 0.72004 0.41663 0.0
O82 O 0.49617 0.79833 0.41073 0.0
O83 O 0.50935 0.73978 0.4295 0.0
C84 C 0.49577 0.2688 0.69468 0.0
O85 O 0.5123 0.26412 0.70936 0.0
Cd86 Cd 0.5536 0.26916 0.70187 0.0
O87 O 0.50057 0.27789 0.67509 0.0
Cd88 Cd 0.53426 0.29266 0.65174 0.0
C89 C 0.54542 0.23637 0.64448 0.0
O90 O 0.56103 0.30678 0.68774 0.0
O91 O 0.57759 0.30782 0.6542 0.0
O92 O 0.51375 0.32552 0.64543 0.0
C93 C 0.58002 0.31128 0.67739 0.0
O94 O 0.5529 0.23929 0.66718 0.0
C95 C 0.51583 0.32516 0.62265 0.0
O96 O 0.53682 0.2525 0.63427 0.0
O97 O 0.52617 0.30915 0.613 0.0
C98 C 0.96385 0.25328 0.83224 0.0
O99 O 0.97807 0.26878 0.82334 0.0
Cd100 Cd 0.01428 0.29016 0.84384 0.0
O101 O 0.96905 0.24705 0.85335 0.0
Cd102 Cd 0.00318 0.2547 0.88641 0.0
C103 C 0.99263 0.31039 0.898 0.0
O104 O 0.033 0.25993 0.85822 0.0
O105 O 0.04684 0.26872 0.89601 0.0
O106 O -0.00247 0.21229 0.88549 0.0
C107 C 0.05096 0.26656 0.87373 0.0
O108 O 0.00059 0.31345 0.87738 0.0
C109 C -0.00112 0.21165 0.90847 0.0
O110 O 0.99109 0.29043 0.90634 0.0
O111 O 0.00136 0.23131 0.9217 0.0
C112 C 0.42285 0.02681 0.30372 0.0
O113 O 0.434 0.01626 0.28832 0.0
Cd114 Cd 0.41468 0.99173 0.25319 0.0
O115 O 0.40032 0.02626 0.29976 0.0
Cd116 Cd 0.36808 0.01057 0.26577 0.0
C117 C 0.37035 0.95563 0.27839 0.0
O118 O 0.39084 0.01423 0.23101 0.0
O119 O 0.35824 0.98851 0.22486 0.0
O120 O 0.35652 0.04783 0.25917 0.0
C121 C 0.37543 0.00069 0.21603 0.0
O122 O 0.39008 0.95875 0.26873 0.0
C123 C 0.33514 0.04284 0.26438 0.0
O124 O 0.35802 0.97211 0.28074 0.0
O125 O 0.32887 0.02282 0.27182 0.0
C126 C 0.2797 0.08927 0.51627 0.0
O127 O 0.26323 0.07459 0.52334 0.0
Cd128 Cd 0.2222 0.08006 0.52249 0.0
O129 O 0.2749 0.10764 0.50722 0.0
Cd130 Cd 0.24076 0.12756 0.49626 0.0
C131 C 0.23062 0.13494 0.55622 0.0
O132 O 0.21236 0.09166 0.48318 0.0
O133 O 0.19748 0.12362 0.4856 0.0
O134 O 0.25775 0.13519 0.4583 0.0
C135 C 0.19406 0.1014 0.48058 0.0
O136 O 0.22287 0.11282 0.55406 0.0
C137 C 0.25766 0.15722 0.46051 0.0
O138 O 0.23924 0.14487 0.53843 0.0
O139 O 0.25014 0.16588 0.4799 0.0
C140 C 0.09581 0.01434 0.82434 0.0
O141 O 0.08452 0.02556 0.81001 0.0
Cd142 Cd 0.09816 0.03945 0.77366 0.0
O143 O 0.11561 0.00827 0.8191 0.0
Cd144 Cd 0.14068 0.00995 0.78318 0.0
C145 C 0.15544 0.0691 0.79435 0.0
O146 O 0.1076 0.00579 0.75109 0.0
O147 O 0.14281 0.01603 0.73978 0.0
O148 O 0.14252 0.96846 0.78513 0.0
C149 C 0.1205 0.01021 0.73388 0.0
O150 O 0.13376 0.06901 0.78644 0.0
C151 C 0.16491 0.97013 0.78388 0.0
O152 O 0.1633 0.04985 0.79619 0.0
O153 O 0.17659 0.99073 0.78339 0.0
C154 C 0.28444 0.91469 0.98663 0.0
O155 O 0.26962 0.92753 0.9797 0.0
Cd156 Cd 0.22773 0.91754 0.98497 0.0
O157 O 0.27789 0.89735 -0.00143 0.0
Cd158 Cd 0.24253 0.87748 0.01631 0.0
C159 C 0.2183 0.85994 0.95833 0.0
O160 O 0.22494 0.91228 0.02736 0.0
O161 O 0.20242 0.87868 0.02856 0.0
O162 O 0.26745 0.87513 0.05364 0.0
C163 C 0.20534 0.90096 0.03262 0.0
O164 O 0.21496 0.8811 0.9572 0.0
C165 C 0.26138 0.85301 0.05371 0.0
O166 O 0.22864 0.85407 0.97754 0.0
O167 O 0.24675 0.84219 0.0361 0.0
C168 C 0.29627 0.4319 0.04887 0.0
O169 O 0.28327 0.44507 0.03919 0.0
Cd170 Cd 0.24476 0.42952 0.01945 0.0
O171 O 0.28781 0.41044 0.05102 0.0
Cd172 Cd 0.24831 0.38317 0.04463 0.0
C173 C 0.25803 0.37985 0.98564 0.0
O174 O 0.22309 0.41256 0.05028 0.0
O175 O 0.2055 0.37998 0.02962 0.0
O176 O 0.25432 0.37685 0.08716 0.0
C177 C 0.20384 0.39993 0.04044 0.0
O178 O 0.25287 0.40056 0.98691 0.0
C179 C 0.24894 0.35454 0.08416 0.0
O180 O 0.25841 0.36873 0.00448 0.0
O181 O 0.24354 0.34496 0.06226 0.0
C182 C 0.7957 0.0894 0.02009 0.0
O183 O 0.77855 0.07954 0.03087 0.0
Cd184 Cd 0.74592 0.09768 0.04174 0.0
O185 O 0.79648 0.11058 0.01498 0.0
Cd186 Cd 0.77019 0.14128 0.02074 0.0
C187 C 0.77408 0.14498 0.0816 0.0
O188 O 0.73328 0.11456 0.00588 0.0
O189 O 0.7286 0.14691 0.02601 0.0
O190 O 0.78399 0.1562 0.98327 0.0
C191 C 0.71932 0.1285 0.01205 0.0
O192 O 0.75924 0.1257 0.07826 0.0
C193 C 0.78319 0.17757 0.99033 0.0
O194 O 0.78308 0.15395 0.06357 0.0
O195 O 0.7775 0.1821 0.0118 0.0
C196 C 0.0916 0.49694 0.28066 0.0
O197 O 0.07714 0.49924 0.2626 0.0
Cd198 Cd 0.08242 0.49117 0.22051 0.0
O199 O 0.11083 0.48875 0.27748 0.0
Cd200 Cd 0.13288 0.47359 0.24379 0.0
C201 C 0.13715 0.52829 0.22389 0.0
O202 O 0.09689 0.45506 0.21996 0.0
O203 O 0.12803 0.45466 0.2008 0.0
O204 O 0.14539 0.4447 0.26937 0.0
C205 C 0.10541 0.44976 0.20016 0.0
O206 O 0.11495 0.52342 0.2163 0.0
C207 C 0.16734 0.44906 0.26558 0.0
O208 O 0.14747 0.51372 0.23493 0.0
O209 O 0.17326 0.46499 0.2518 0.0
C210 C 0.79113 0.92934 0.54427 0.0
O211 O 0.77966 0.94233 0.53225 0.0
Cd212 Cd 0.7419 0.92951 0.50943 0.0
O213 O 0.78169 0.90826 0.54698 0.0
Cd214 Cd 0.7422 0.88112 0.53758 0.0
C215 C 0.75485 0.87817 0.47851 0.0
O216 O 0.7186 0.91192 0.5383 0.0
O217 O 0.69888 0.87794 0.52363 0.0
O218 O 0.74334 0.87296 0.57998 0.0
C219 C 0.69884 0.89972 0.52932 0.0
O220 O 0.75082 0.89926 0.47897 0.0
C221 C 0.74027 0.85066 0.57562 0.0
O222 O 0.7534 0.86719 0.49746 0.0
O223 O 0.73836 0.84219 0.55327 0.0
C224 C 0.91527 0.00159 0.29488 0.0
O225 O 0.92937 0.99383 0.28061 0.0
Cd226 Cd 0.92278 0.9907 0.2369 0.0
O227 O 0.89692 0.00938 0.28633 0.0
Cd228 Cd 0.87702 0.01579 0.24615 0.0
C229 C 0.86677 0.95636 0.23079 0.0
O230 O 0.91383 0.02796 0.22733 0.0
O231 O 0.8815 0.02206 0.20294 0.0
O232 O 0.86789 0.05224 0.26683 0.0
C233 C 0.90405 0.02836 0.20598 0.0
O234 O 0.88892 0.95832 0.22762 0.0
C235 C 0.84585 0.0484 0.25896 0.0
O236 O 0.85791 0.97429 0.23837 0.0
O237 O 0.83826 0.0294 0.24505 0.0
C238 C 0.29997 0.58248 0.53072 0.0
O239 O 0.29286 0.57432 0.54993 0.0
Cd240 Cd 0.26461 0.5903 0.57352 0.0
O241 O 0.29235 0.60034 0.52319 0.0
Cd242 Cd 0.26401 0.62681 0.53559 0.0
C243 C 0.29035 0.64742 0.59245 0.0
O244 O 0.23263 0.5956 0.54458 0.0
O245 O 0.22664 0.63131 0.55308 0.0
O246 O 0.24829 0.63031 0.49377 0.0
C247 C 0.2186 0.60939 0.55131 0.0
O248 O 0.28372 0.62675 0.59822 0.0
C249 C 0.25773 0.65176 0.49397 0.0
O250 O 0.28643 0.652 0.57056 0.0
O251 O 0.27017 0.66158 0.51345 0.0
C252 C 0.42302 0.49751 0.79156 0.0
O253 O 0.4367 0.48944 0.777 0.0
Cd254 Cd 0.42764 0.48631 0.73336 0.0
O255 O 0.40496 0.50589 0.78333 0.0
Cd256 Cd 0.38453 0.51434 0.74457 0.0
C257 C 0.36983 0.4553 0.73019 0.0
O258 O 0.42025 0.52393 0.72312 0.0
O259 O 0.38636 0.51894 0.70106 0.0
O260 O 0.38333 0.55244 0.76643 0.0
C261 C 0.40898 0.52444 0.70243 0.0
O262 O 0.3917 0.4561 0.72622 0.0
C263 C 0.36121 0.55244 0.76104 0.0
O264 O 0.36217 0.47389 0.73802 0.0
O265 O 0.34944 0.53437 0.74787 0.0
C266 C 0.57598 0.99386 0.78214 0.0
O267 O 0.56528 0.00417 0.76637 0.0
Cd268 Cd 0.57887 0.00894 0.72686 0.0
O269 O 0.5948 0.98555 0.77757 0.0
Cd270 Cd 0.62216 0.98047 0.74561 0.0
C271 C 0.6358 0.03996 0.74504 0.0
O272 O 0.58894 0.9712 0.71517 0.0
O273 O 0.62294 0.97285 0.70056 0.0
O274 O 0.62624 0.94413 0.76279 0.0
C275 C 0.60031 0.96943 0.69653 0.0
O276 O 0.61471 0.03954 0.73504 0.0
C277 C 0.64889 0.94685 0.76323 0.0
O278 O 0.6424 0.02126 0.75149 0.0
O279 O 0.65928 0.96526 0.75511 0.0
C280 C 0.77957 0.58978 0.00965 0.0
O281 O 0.76214 0.578 0.01859 0.0
Cd282 Cd 0.72202 0.58604 0.01586 0.0
O283 O 0.77657 0.60721 -0.00213 0.0
Cd284 Cd 0.74401 0.62868 0.98493 0.0
C285 C 0.735 0.64253 0.04466 0.0
O286 O 0.71444 0.59345 0.9745 0.0
O287 O 0.70038 0.62572 0.97459 0.0
O288 O 0.76147 0.63456 0.94648 0.0
C289 C 0.69646 0.60339 0.97083 0.0
O290 O 0.72408 0.62147 0.04461 0.0
C291 C 0.76141 0.65661 0.94791 0.0
O292 O 0.74512 0.64913 0.0261 0.0
O293 O 0.75375 0.66585 0.96691 0.0
C294 C 0.93974 0.51637 0.81194 0.0
O295 O 0.95287 0.50637 0.79821 0.0
Cd296 Cd 0.9407 0.48884 0.75783 0.0
O297 O 0.91861 0.51875 0.80409 0.0
Cd298 Cd 0.89169 0.5115 0.76504 0.0
C299 C 0.88745 0.45333 0.76831 0.0
O300 O 0.92438 0.51931 0.74094 0.0
O301 O 0.89135 0.50342 0.72001 0.0
O302 O 0.88409 0.55047 0.77734 0.0
C303 C 0.91331 0.51209 0.72019 0.0
O304 O 0.90898 0.4561 0.76274 0.0
C305 C 0.86227 0.54687 0.76882 0.0
O306 O 0.87657 0.47085 0.77145 0.0
O307 O 0.85343 0.52615 0.75909 0.0
C308 C 0.78201 0.41471 0.49021 0.0
O309 O 0.76911 0.42814 0.48076 0.0
Cd310 Cd 0.72718 0.42493 0.48447 0.0
O311 O 0.77306 0.39894 0.5031 0.0
Cd312 Cd 0.73415 0.38366 0.51822 0.0
C313 C 0.71089 0.36739 0.45933 0.0
O314 O 0.72498 0.42257 0.52741 0.0
O315 O 0.69641 0.39453 0.53188 0.0
O316 O 0.75732 0.37657 0.55492 0.0
C317 C 0.70434 0.4165 0.53404 0.0
O318 O 0.71078 0.3891 0.45716 0.0
C319 C 0.74672 0.35552 0.55522 0.0
O320 O 0.71889 0.361 0.47935 0.0
O321 O 0.73013 0.34756 0.53827 0.0
C322 C 0.60087 0.50636 0.32034 0.0
O323 O 0.58961 0.51748 0.30586 0.0
Cd324 Cd 0.60222 0.53098 0.26901 0.0
O325 O 0.6208 0.50043 0.31534 0.0
Cd326 Cd 0.64612 0.50341 0.27958 0.0
C327 C 0.65865 0.56312 0.28754 0.0
O328 O 0.61328 0.49771 0.24741 0.0
O329 O 0.64801 0.50994 0.23601 0.0
O330 O 0.65202 0.46246 0.27403 0.0
C331 C 0.62582 0.50283 0.23014 0.0
O332 O 0.63672 0.56215 0.27999 0.0
C333 C 0.67442 0.46654 0.28 0.0
O334 O 0.66719 0.54433 0.29011 0.0
O335 O 0.68386 0.48782 0.28694 0.0
Zn336 Zn 0.02779 0.00481 0.03444 0.0
Zn337 Zn 0.98365 0.01951 0.00143 0.0
C338 C 0.00089 0.96725 0.05399 0.0
O339 O 0.00769 0.98259 0.07341 0.0
C340 C -0.00344 0.05458 0.97143 0.0
O341 O 0.98842 0.03602 0.95557 0.0
O342 O 0.05904 -0.00318 0.04847 0.0
O343 O 0.03507 0.01346 0.001 0.0
O344 O 0.00014 0.99585 0.98305 0.0
C345 C 0.06292 0.97778 0.03714 0.0
O346 O 0.0478 0.96736 0.01857 0.0
O347 O 0.0054 0.97343 0.03309 0.0
C348 C 0.93251 0.00558 -0.0041 0.0
O349 O 0.9369 0.99184 0.01275 0.0
O350 O 0.94994 0.01673 0.98645 0.0
O351 O 0.97985 0.02036 0.03748 0.0
O352 O 0.01576 0.02825 0.05785 0.0
O353 O -0.00204 0.05201 0.99411 0.0
C354 C 0.02243 0.00245 0.98213 0.0
C355 C -0.00675 0.02755 0.05719 0.0
Zn356 Zn 0.24856 0.73238 0.28879 0.0
Zn357 Zn 0.27133 0.74995 0.24347 0.0
C358 C 0.21426 0.69466 0.26315 0.0
O359 O 0.19948 0.70847 0.27067 0.0
C360 C 0.30472 0.78738 0.26948 0.0
O361 O 0.31905 0.77499 0.25853 0.0
O362 O 0.24043 0.72681 0.32292 0.0
O363 O 0.28465 0.73801 0.2916 0.0
O364 O 0.28911 0.72486 0.25382 0.0
C365 C 0.25296 0.71315 0.33256 0.0
O366 O 0.26817 0.70378 0.31966 0.0
O367 O 0.23664 0.70145 0.2682 0.0
C368 C 0.27662 0.77998 0.20713 0.0
O369 O 0.26733 0.79227 0.22401 0.0
O370 O 0.28049 0.75947 0.21078 0.0
O371 O 0.23582 0.74272 0.23904 0.0
O372 O 0.23129 0.75752 0.27612 0.0
O373 O 0.28238 0.77944 0.26715 0.0
C374 C 0.29652 0.72799 0.27642 0.0
C375 C 0.22516 0.75514 0.25323 0.0
Zn376 Zn 0.48827 0.03705 0.5223 0.0
Zn377 Zn 0.5299 0.0152 0.49753 0.0
C378 C 0.51147 0.07333 0.5593 0.0
O379 O 0.50324 0.05743 0.57341 0.0
C380 C 0.49783 0.97867 0.46846 0.0
O381 O 0.50656 0.99113 0.45153 0.0
O382 O 0.45479 0.03988 0.52987 0.0
O383 O 0.48602 0.03566 0.48545 0.0
O384 O 0.523 0.03878 0.47487 0.0
C385 C 0.44825 0.05825 0.52249 0.0
O386 O 0.46354 0.0727 0.51201 0.0
O387 O 0.50822 0.06827 0.53622 0.0
C388 C 0.56014 0.98234 0.50017 0.0
O389 O 0.54216 0.9739 0.51209 0.0
O390 O 0.55978 0.00168 0.49094 0.0
O391 O 0.53563 0.02709 0.53282 0.0
O392 O 0.49975 0.01126 0.54012 0.0
O393 O 0.50346 0.98663 0.49081 0.0
C394 C 0.50125 0.041 0.47033 0.0
C395 C 0.52225 0.01464 0.54559 0.0
Zn396 Zn 0.28766 0.25089 0.76206 0.0
Zn397 Zn 0.2465 0.27418 0.78118 0.0
C398 C 0.26259 0.21654 0.72523 0.0
O399 O 0.27087 0.20318 0.7407 0.0
C400 C 0.27063 0.30858 0.81757 0.0
O401 O 0.26219 0.32126 0.80148 0.0
O402 O 0.3198 0.2433 0.75515 0.0
O403 O 0.29402 0.28644 0.76604 0.0
O404 O 0.25791 0.29193 0.75358 0.0
C405 C 0.32624 0.25034 0.73516 0.0
O406 O 0.31154 0.26041 0.72174 0.0
O407 O 0.2665 0.23876 0.73075 0.0
C408 C 0.21012 0.27648 0.81063 0.0
O409 O 0.22476 0.26535 0.82281 0.0
O410 O 0.21526 0.28281 0.78995 0.0
O411 O 0.23924 0.23893 0.77668 0.0
O412 O 0.27498 0.23226 0.78892 0.0
O413 O 0.26836 0.28642 0.81205 0.0
C414 C 0.28044 0.29844 0.75522 0.0
C415 C 0.25236 0.22623 0.78701 0.0
Zn416 Zn 0.00667 0.97878 0.52525 0.0
Zn417 Zn 0.98961 0.025 0.51654 0.0
C418 C 0.0435 0.9956 0.56285 0.0
O419 O 0.05533 0.98628 0.54601 0.0
C420 C 0.9553 0.00872 0.47567 0.0
O421 O 0.94222 0.01958 0.49006 0.0
O422 O 0.01175 0.94535 0.52826 0.0
O423 O 0.97076 0.97652 0.52317 0.0
O424 O 0.97094 0.01152 0.54262 0.0
C425 C 0.00309 0.93842 0.54741 0.0
O426 O 0.99222 0.95272 0.56073 0.0
O427 O 0.02132 0.99585 0.55791 0.0
C428 C 0.98959 0.0652 0.49311 0.0
O429 O -0.00136 0.05118 0.47762 0.0
O430 O 0.98398 0.0582 0.51338 0.0
O431 O 0.02508 0.02775 0.51988 0.0
O432 O 0.0258 0.99335 0.49942 0.0
O433 O 0.97642 0.00696 0.4838 0.0
C434 C 0.96112 0.99013 0.53728 0.0
C435 C 0.03479 0.01501 0.50497 0.0
Zn436 Zn 0.25965 0.78516 0.76011 0.0
Zn437 Zn 0.27555 0.74118 0.78401 0.0
C438 C 0.22458 0.76019 0.72369 0.0
O439 O 0.23978 0.771 0.71002 0.0
C440 C 0.31176 0.76604 0.82001 0.0
O441 O 0.29717 0.75537 0.83434 0.0
O442 O 0.25177 0.81753 0.75453 0.0
O443 O 0.26339 0.78697 0.79675 0.0
O444 O 0.24829 0.75046 0.80164 0.0
C445 C 0.2314 0.81963 0.76177 0.0
O446 O 0.21884 0.80145 0.77003 0.0
O447 O 0.22984 0.76232 0.74671 0.0
C448 C 0.3029 0.70494 0.78982 0.0
O449 O 0.31944 0.72236 0.7857 0.0
O450 O 0.28145 0.70849 0.79076 0.0
O451 O 0.27269 0.73928 0.7476 0.0
O452 O 0.28661 0.77593 0.74152 0.0
O453 O 0.30558 0.76383 0.79715 0.0
C454 C 0.25028 0.77244 0.80794 0.0
C455 C 0.28544 0.75385 0.73614 0.0
Zn456 Zn 0.51767 0.00602 -0.00261 0.0
Zn457 Zn 0.48626 0.97855 0.037 0.0
C458 C 0.55136 0.04664 0.99086 0.0
O459 O 0.53539 0.04794 0.97269 0.0
C460 C 0.45814 0.9541 -0.00466 0.0
O461 O 0.46793 0.93692 0.00354 0.0
O462 O 0.51189 0.00045 0.96063 0.0
O463 O 0.52667 0.97553 0.00832 0.0
O464 O 0.50952 0.95693 0.03693 0.0
C465 C 0.52929 0.99223 0.95198 0.0
O466 O 0.5469 0.98855 0.96722 0.0
O467 O 0.54771 0.02999 0.00426 0.0
C468 C 0.44556 0.98175 0.06006 0.0
O469 O 0.44475 -0.00316 0.04379 0.0
O470 O 0.46259 0.96998 0.06083 0.0
O471 O 0.50049 0.01179 0.04875 0.0
O472 O 0.49323 0.02336 0.01263 0.0
O473 O 0.46616 0.97506 0.00479 0.0
C474 C 0.52496 0.95868 0.02165 0.0
C475 C 0.49483 0.02733 0.03579 0.0
Zn476 Zn 0.25966 0.23135 0.25869 0.0
Zn477 Zn 0.25899 0.28013 0.28871 0.0
C478 C 0.29961 0.24116 0.23355 0.0
O479 O 0.28225 0.23393 0.21595 0.0
C480 C 0.22013 0.26739 0.31375 0.0
O481 O 0.23723 0.27731 0.33078 0.0
O482 O 0.25499 0.19654 0.24673 0.0
O483 O 0.2531 0.23134 0.29406 0.0
O484 O 0.27891 0.26256 0.31008 0.0
C485 C 0.26723 0.18625 0.26131 0.0
O486 O 0.281 0.1989 0.2797 0.0
O487 O 0.29455 0.24247 0.25563 0.0
C488 C 0.27034 0.33136 0.2936 0.0
O489 O 0.28415 0.32798 0.27607 0.0
O490 O 0.26047 0.3137 0.30333 0.0
O491 O 0.26476 0.28203 0.25341 0.0
O492 O 0.24131 0.24949 0.23633 0.0
O493 O 0.22464 0.26614 0.2915 0.0
C494 C 0.26793 0.24186 0.31168 0.0
C495 C 0.25119 0.27069 0.23523 0.0
Zn496 Zn 0.51131 0.47761 0.02136 0.0
Zn497 Zn 0.49554 0.52473 0.014 0.0
C498 C 0.54879 0.49104 0.05907 0.0
O499 O 0.56021 0.4826 0.04136 0.0
C500 C 0.46215 0.50746 0.97258 0.0
O501 O 0.44854 0.51818 0.98644 0.0
O502 O 0.51319 0.44295 0.02148 0.0
O503 O 0.47554 0.4773 0.0194 0.0
O504 O 0.47623 0.5119 0.03982 0.0
C505 C 0.50184 0.43542 0.03895 0.0
O506 O 0.49282 0.4505 0.05327 0.0
O507 O 0.52666 0.49189 0.05481 0.0
C508 C 0.49576 0.56456 0.98967 0.0
O509 O 0.50518 0.55053 0.97451 0.0
O510 O 0.49003 0.55773 0.00996 0.0
O511 O 0.53084 0.52705 0.01879 0.0
O512 O 0.53128 0.49344 -0.00334 0.0
O513 O 0.48327 0.50628 0.9812 0.0
C514 C 0.46617 0.49067 0.03401 0.0
C515 C 0.54042 0.51495 0.00318 0.0
Zn516 Zn 0.75564 0.27666 0.26854 0.0
Zn517 Zn 0.75854 0.22932 0.28992 0.0
C518 C 0.7171 0.26516 0.23344 0.0
O519 O 0.73481 0.27283 0.22078 0.0
C520 C 0.80134 0.24831 0.31923 0.0
O521 O 0.78823 0.23943 0.33578 0.0
O522 O 0.75889 0.31099 0.26192 0.0
O523 O 0.75979 0.2781 0.30544 0.0
O524 O 0.73676 0.24491 0.31056 0.0
C525 C 0.7447 0.32134 0.27405 0.0
O526 O 0.73064 0.30926 0.28779 0.0
O527 O 0.72147 0.26404 0.25622 0.0
C528 C 0.75146 0.17804 0.28587 0.0
O529 O 0.73455 0.17931 0.26861 0.0
O530 O 0.7619 0.19685 0.29875 0.0
O531 O 0.75081 0.22589 0.25383 0.0
O532 O 0.77558 0.25779 0.24789 0.0
O533 O 0.79201 0.24708 0.29737 0.0
C534 C 0.7445 0.26661 0.31734 0.0
C535 C 0.76622 0.23633 0.24133 0.0
Zn536 Zn 0.01269 0.51583 0.48405 0.0
Zn537 Zn -0.00315 0.49006 0.5249 0.0
C538 C 0.04768 0.54841 0.51487 0.0
O539 O 0.0355 0.56303 0.5047 0.0
C540 C 0.95846 0.4546 0.50363 0.0
O541 O 0.97165 0.44137 0.51476 0.0
O542 O 0.02407 0.52732 0.45322 0.0
O543 O 0.00765 0.48063 0.4758 0.0
O544 O 0.02396 0.47624 0.51196 0.0
C545 C 0.04448 0.52225 0.44932 0.0
O546 O 0.0558 0.51196 0.46578 0.0
O547 O 0.04077 0.52636 0.50955 0.0
C548 C 0.00433 0.48991 0.57602 0.0
O549 O 0.02262 0.50621 0.57333 0.0
O550 O 0.99188 0.4788 0.55713 0.0
O551 O -0.00234 0.5248 0.53173 0.0
O552 O 0.9857 0.53186 0.49468 0.0
O553 O 0.96632 0.47651 0.5042 0.0
C554 C 0.01982 0.46939 0.48929 0.0
C555 C 0.98688 0.53676 0.51775 0.0
Zn556 Zn 0.78819 0.74999 0.25754 0.0
Zn557 Zn 0.74529 0.77105 0.27494 0.0
C558 C 0.77438 0.71944 0.21431 0.0
O559 O 0.78962 0.70852 0.22591 0.0
C560 C 0.76882 0.80454 0.31238 0.0
O561 O 0.76018 0.81751 0.29671 0.0
O562 O 0.82186 0.74507 0.25303 0.0
O563 O 0.7927 0.78548 0.26314 0.0
O564 O 0.75703 0.78997 0.24823 0.0
C565 C 0.8295 0.75455 0.23464 0.0
O566 O 0.81517 0.76525 0.22151 0.0
O567 O 0.76933 0.73837 0.22467 0.0
C568 C 0.70894 0.77224 0.30456 0.0
O569 O 0.72331 0.76016 0.3158 0.0
O570 O 0.71395 0.77926 0.28412 0.0
O571 O 0.73857 0.73583 0.26869 0.0
O572 O 0.77406 0.72915 0.28202 0.0
O573 O 0.76677 0.78247 0.30634 0.0
C574 C 0.77946 0.79712 0.25134 0.0
C575 C 0.75148 0.72275 0.27873 0.0
Zn576 Zn 0.7506 0.24845 0.79737 0.0
Zn577 Zn 0.76167 0.2504 0.74447 0.0
C578 C 0.73999 0.19732 0.79236 0.0
O579 O 0.75974 0.19927 0.80706 0.0
C580 C 0.79884 0.28885 0.75468 0.0
O581 O 0.80802 0.27407 0.74011 0.0
O582 O 0.75113 0.2527 0.83407 0.0
O583 O 0.78513 0.24924 0.79127 0.0
O584 O 0.78164 0.22709 0.75599 0.0
C585 C 0.77016 0.2634 0.84668 0.0
O586 O 0.78753 0.27437 0.83555 0.0
O587 O 0.73294 0.21582 0.78609 0.0
C588 C 0.75726 0.27353 0.70369 0.0
O589 O 0.74987 0.2869 0.7211 0.0
O590 O 0.76322 0.25404 0.70844 0.0
O591 O 0.72697 0.24503 0.74933 0.0
O592 O 0.73186 0.27098 0.78173 0.0
O593 O 0.77788 0.28255 0.7608 0.0
C594 C 0.79365 0.23554 0.7762 0.0
C595 C 0.72022 0.26215 0.76142 0.0
Zn596 Zn 0.7677 0.72829 0.74578 0.0
Zn597 Zn 0.74894 0.77125 0.77708 0.0
C598 C 0.80623 0.75341 0.72464 0.0
O599 O 0.79121 0.74579 0.70511 0.0
C600 C 0.71603 0.75111 0.80695 0.0
O601 O 0.73328 0.7631 0.8227 0.0
O602 O 0.77534 0.69562 0.73718 0.0
O603 O 0.75837 0.72569 0.77989 0.0
O604 O 0.77599 0.7606 0.79678 0.0
C605 C 0.79283 0.69312 0.75208 0.0
O606 O 0.80296 0.71124 0.7677 0.0
O607 O 0.79945 0.7498 0.74557 0.0
C608 C 0.72357 0.80743 0.78328 0.0
O609 O 0.70882 0.7906 0.76944 0.0
O610 O 0.74452 0.80401 0.79011 0.0
O611 O 0.74908 0.77365 0.74092 0.0
O612 O 0.74468 0.73812 0.72058 0.0
O613 O 0.7186 0.75055 0.78422 0.0
C614 C 0.77095 0.73852 0.79778 0.0
C615 C 0.74385 0.76001 0.72106 0.0
Zn616 Zn 0.53153 0.51208 0.53064 0.0
Zn617 Zn 0.48521 0.52149 0.49705 0.0
C618 C 0.50988 0.47492 0.55447 0.0
O619 O 0.51662 0.49178 0.57257 0.0
C620 C 0.50682 0.56115 0.47382 0.0
O621 O 0.50761 0.54421 0.45641 0.0
O622 O 0.56322 0.51005 0.54817 0.0
O623 O 0.53845 0.5159 0.49583 0.0
O624 O 0.50299 0.49972 0.47744 0.0
C625 C 0.58304 0.51991 0.54184 0.0
O626 O 0.58302 0.53508 0.52557 0.0
O627 O 0.51325 0.47942 0.53276 0.0
C628 C 0.44142 0.5287 0.4685 0.0
O629 O 0.45555 0.54345 0.45721 0.0
O630 O 0.45058 0.51644 0.48345 0.0
O631 O 0.48116 0.51755 0.53233 0.0
O632 O 0.51601 0.53588 0.55006 0.0
O633 O 0.49865 0.55576 0.49373 0.0
C634 C 0.5256 0.50459 0.47721 0.0
C635 C 0.49358 0.52989 0.55061 0.0
Zn636 Zn 0.9814 0.52363 0.03699 0.0
Zn637 Zn 0.02555 0.50447 0.01612 0.0
C638 C 0.00422 0.56256 0.07116 0.0
O639 O -0.00505 0.54847 0.08653 0.0
C640 C 0.0 0.4671 0.98417 0.0
O641 O 0.01147 0.48065 0.96959 0.0
O642 O 0.94778 0.5285 0.04213 0.0
O643 O 0.9803 0.51845 0.00012 0.0
O644 O 0.01825 0.52778 0.99357 0.0
C645 C 0.94287 0.54594 0.03144 0.0
O646 O 0.95954 0.55779 0.02011 0.0
O647 O 0.00174 0.5554 0.04845 0.0
C648 C 0.05926 0.47647 0.02373 0.0
O649 O 0.04153 0.468 0.03594 0.0
O650 O 0.05723 0.49388 0.01171 0.0
O651 O 0.02765 0.51685 0.05122 0.0
O652 O 0.99227 0.49911 0.05765 0.0
O653 O 0.0017 0.47413 0.00691 0.0
C654 C -0.00381 0.52681 0.98684 0.0
C655 C 0.01467 0.50384 0.06384 0.0
H656 H 0.00332 0.20386 0.95701 0.0
H657 H -0.00125 0.06506 0.92453 0.0
H658 H -0.00527 0.16793 0.88373 0.0
H659 H 0.00299 0.09795 -0.00125 0.0
H660 H 0.00022 0.10354 0.90983 0.0
H661 H 0.00512 0.16603 0.97324 0.0
C662 C 0.0017 0.18804 0.94436 0.0
C663 C -0.0012 0.18905 0.91898 0.0
C664 C 0.00095 0.10244 0.92936 0.0
C665 C 0.00111 0.1459 0.93735 0.0
C666 C 0.0002 0.08043 0.93779 0.0
C667 C 0.00058 0.07824 0.96291 0.0
C668 C 0.00201 0.12254 0.94613 0.0
C669 C 0.00263 0.09884 0.97922 0.0
C670 C 0.00282 0.16649 0.95362 0.0
C671 C -0.00308 0.16803 0.90342 0.0
N672 N 0.00309 0.12015 0.97053 0.0
N673 N -0.00186 0.1474 0.91285 0.0
H674 H 0.09381 0.80703 0.22239 0.0
H675 H 0.21739 0.76333 0.20583 0.0
H676 H 0.1261 0.80355 0.15421 0.0
H677 H 0.19081 0.7748 0.27638 0.0
H678 H 0.18572 0.78158 0.18758 0.0
H679 H 0.13085 0.79966 0.24352 0.0
C680 C 0.10884 0.80515 0.21193 0.0
C681 C 0.10674 0.80549 0.18642 0.0
C682 C 0.18683 0.7803 0.20708 0.0
C683 C 0.14902 0.79678 0.21043 0.0
C684 C 0.20484 0.76971 0.21752 0.0
C685 C 0.20649 0.76722 0.24262 0.0
C686 C 0.17005 0.78822 0.22174 0.0
C687 C 0.19002 0.77622 0.25692 0.0
C688 C 0.12997 0.80088 0.224 0.0
C689 C 0.12682 0.80314 0.17383 0.0
N690 N 0.17225 0.78609 0.2462 0.0
N691 N 0.147 0.79853 0.18592 0.0
H692 H 0.49688 0.83031 0.44957 0.0
H693 H 0.47446 0.95878 0.42469 0.0
H694 H 0.47697 0.85131 0.37885 0.0
H695 H 0.498 0.94158 0.49604 0.0
H696 H 0.46644 0.91695 0.40984 0.0
H697 H 0.48954 0.86831 0.46883 0.0
C698 C 0.49059 0.84272 0.43816 0.0
C699 C 0.48798 0.83787 0.41256 0.0
C700 C 0.473 0.92221 0.42887 0.0
C701 C 0.47949 0.88111 0.43433 0.0
C702 C 0.47745 0.94612 0.43737 0.0
C703 C 0.48724 0.95365 0.46149 0.0
C704 C 0.4788 0.90569 0.44447 0.0
C705 C 0.49058 0.9365 0.47723 0.0
C706 C 0.48645 0.86439 0.44912 0.0
C707 C 0.47971 0.8545 0.39862 0.0
N708 N 0.48687 0.91329 0.4683 0.0
N709 N 0.47598 0.87538 0.40965 0.0
H710 H 0.47839 0.25078 0.73525 0.0
H711 H 0.34317 0.26049 0.692 0.0
H712 H 0.45576 0.27502 0.66687 0.0
H713 H 0.36448 0.23814 0.76173 0.0
H714 H 0.38406 0.26261 0.68133 0.0
H715 H 0.43661 0.24325 0.74429 0.0
C716 C 0.46466 0.25447 0.72211 0.0
C717 C 0.47062 0.26369 0.70032 0.0
C718 C 0.37984 0.25712 0.69893 0.0
C719 C 0.42284 0.25503 0.71055 0.0
C720 C 0.35645 0.25587 0.70504 0.0
C721 C 0.35047 0.24933 0.72789 0.0
C722 C 0.39749 0.2519 0.71583 0.0
C723 C 0.36837 0.24336 0.74395 0.0
C724 C 0.44082 0.25013 0.72728 0.0
C725 C 0.45207 0.26804 0.68395 0.0
N726 N 0.39118 0.24497 0.73768 0.0
N727 N 0.42906 0.26373 0.68944 0.0
H728 H 0.01309 0.82786 0.63853 0.0
H729 H 0.01653 0.8999 0.52189 0.0
H730 H 0.01115 0.79291 0.56543 0.0
H731 H -0.00411 0.92465 0.59214 0.0
H732 H 0.02004 0.86185 0.53732 0.0
H733 H 0.01285 0.86507 0.62165 0.0
C734 C 0.01267 0.82801 0.61888 0.0
C735 C 0.01195 0.8072 0.60335 0.0
C736 C 0.01475 0.8757 0.54923 0.0
C737 C 0.01163 0.84997 0.58381 0.0
C738 C 0.01281 0.89736 0.5405 0.0
C739 C 0.00581 0.9154 0.55573 0.0
C740 C 0.01 0.87238 0.5734 0.0
C741 C 0.00118 0.91124 0.57966 0.0
C742 C 0.01247 0.8493 0.60923 0.0
C743 C 0.01157 0.80856 0.57802 0.0
N744 N 0.00343 0.89026 0.58772 0.0
N745 N 0.01137 0.82965 0.56897 0.0
H746 H 0.46558 0.80296 0.8296 0.0
H747 H 0.33232 0.76943 0.86702 0.0
H748 H 0.44779 0.77386 0.89635 0.0
H749 H 0.34831 0.78486 0.79446 0.0
H750 H 0.37494 0.77908 0.88076 0.0
H751 H 0.42305 0.80372 0.81903 0.0
C752 C 0.45279 0.79692 0.84212 0.0
C753 C 0.46022 0.78805 0.86374 0.0
C754 C 0.36911 0.78061 0.86189 0.0
C755 C 0.41168 0.78904 0.85187 0.0
C756 C 0.34474 0.7752 0.85405 0.0
C757 C 0.33676 0.77598 0.82946 0.0
C758 C 0.38563 0.78682 0.84502 0.0
C759 C 0.3537 0.78378 0.81354 0.0
C760 C 0.42853 0.79735 0.83607 0.0
C761 C 0.44286 0.78055 0.87933 0.0
N762 N 0.37739 0.78863 0.82152 0.0
N763 N 0.41943 0.78112 0.87303 0.0
H764 H 0.48659 0.17427 0.07556 0.0
H765 H 0.48699 0.03698 0.0834 0.0
H766 H 0.49035 0.14175 0.14272 0.0
H767 H 0.49191 0.06869 0.01583 0.0
H768 H 0.48237 0.0747 0.10431 0.0
H769 H 0.48281 0.13525 0.05239 0.0
C770 C 0.48634 0.15893 0.08542 0.0
C771 C 0.48906 0.16129 0.11112 0.0
C772 C 0.48437 0.07347 0.08489 0.0
C773 C 0.48476 0.11678 0.08481 0.0
C774 C 0.48706 0.05191 0.07293 0.0
C775 C 0.4902 0.04979 0.04791 0.0
C776 C 0.48495 0.09319 0.07183 0.0
C777 C 0.48969 0.06963 0.0352 0.0
C778 C 0.48426 0.1367 0.0722 0.0
C779 C 0.4886 0.14084 0.12295 0.0
N780 N 0.48736 0.09062 0.04737 0.0
N781 N 0.48664 0.11951 0.10971 0.0
H782 H 0.10427 0.23767 0.40153 0.0
H783 H 0.17717 0.25664 0.285 0.0
H784 H 0.07041 0.24373 0.33006 0.0
H785 H 0.20902 0.25713 0.3588 0.0
H786 H 0.13745 0.24532 0.29912 0.0
H787 H 0.14223 0.23777 0.38403 0.0
C788 C 0.1048 0.23882 0.38206 0.0
C789 C 0.08427 0.24106 0.36726 0.0
C790 C 0.1532 0.24769 0.31212 0.0
C791 C 0.12777 0.24146 0.34712 0.0
C792 C 0.1758 0.2541 0.30407 0.0
C793 C 0.19629 0.25821 0.32086 0.0
C794 C 0.15126 0.24526 0.33703 0.0
C795 C 0.19364 0.25458 0.34532 0.0
C796 C 0.1265 0.23889 0.37207 0.0
C797 C 0.08589 0.24216 0.34212 0.0
N798 N 0.17155 0.24847 0.35268 0.0
N799 N 0.1074 0.24267 0.33285 0.0
H800 H 0.95292 0.03504 0.20586 0.0
H801 H 0.94719 0.03401 0.06035 0.0
H802 H 0.88787 0.03067 0.15838 0.0
H803 H 0.01248 0.03245 0.10543 0.0
H804 H 0.9264 0.03765 0.09696 0.0
H805 H 0.97596 0.03861 0.17031 0.0
C806 C 0.94349 0.03504 0.188 0.0
C807 C 0.9184 0.03239 0.18505 0.0
C808 C 0.94531 0.03668 0.09896 0.0
C809 C 0.94466 0.03646 0.14435 0.0
C810 C 0.95726 0.03463 0.07801 0.0
C811 C 0.98164 0.0327 0.07976 0.0
C812 C 0.95768 0.0367 0.12202 0.0
C813 C -0.00631 0.03385 0.1032 0.0
C814 C 0.95667 0.03704 0.16772 0.0
C815 C 0.90716 0.03252 0.1615 0.0
N816 N 0.98152 0.03555 0.12344 0.0
N817 N 0.92034 0.03441 0.14209 0.0
H818 H 0.2872 0.6904 0.48256 0.0
H819 H 0.21317 0.70321 0.35717 0.0
H820 H 0.22231 0.64189 0.45607 0.0
H821 H 0.29025 0.71221 0.36568 0.0
H822 H 0.21244 0.69098 0.39883 0.0
H823 H 0.2844 0.70918 0.44466 0.0
C824 C 0.2722 0.68393 0.46891 0.0
C825 C 0.2551 0.66443 0.47224 0.0
C826 C 0.22945 0.69597 0.39156 0.0
C827 C 0.25161 0.68603 0.42934 0.0
C828 C 0.22987 0.70302 0.36801 0.0
C829 C 0.25179 0.70852 0.35817 0.0
C830 C 0.25112 0.69518 0.40533 0.0
C831 C 0.273 0.70788 0.37268 0.0
C832 C 0.27066 0.6946 0.44737 0.0
C833 C 0.23601 0.65672 0.45401 0.0
N834 N 0.27216 0.70139 0.39561 0.0
N835 N 0.23475 0.66756 0.43326 0.0
H836 H 0.55228 0.96219 0.68327 0.0
H837 H 0.56927 0.01147 0.55499 0.0
H838 H 0.62055 0.97695 0.65388 0.0
H839 H 0.50019 0.9924 0.58163 0.0
H840 H 0.58777 0.99501 0.58915 0.0
H841 H 0.53237 0.96867 0.64428 0.0
C842 C 0.56307 0.96648 0.66847 0.0
C843 C 0.58814 0.9694 0.67191 0.0
C844 C 0.56855 0.99426 0.58751 0.0
C845 C 0.56547 0.97708 0.62734 0.0
C846 C 0.55796 0.00379 0.56805 0.0
C847 C 0.53316 0.00361 0.56568 0.0
C848 C 0.55432 0.9847 0.60494 0.0
C849 C 0.51939 0.99306 0.58291 0.0
C850 C 0.55167 0.9702 0.64622 0.0
C851 C 0.6012 0.97473 0.65208 0.0
N852 N 0.53021 0.98424 0.602 0.0
N853 N 0.58972 0.97872 0.63072 0.0
H854 H 0.26453 0.33417 0.97335 0.0
H855 H 0.28215 0.3552 0.83424 0.0
H856 H 0.26556 0.40091 0.94406 0.0
H857 H 0.27224 0.28615 0.85927 0.0
H858 H 0.28342 0.3728 0.87636 0.0
H859 H 0.27339 0.31682 0.93348 0.0
C860 C 0.26671 0.3452 0.95861 0.0
C861 C 0.26403 0.36899 0.96201 0.0
C862 C 0.28126 0.3538 0.87274 0.0
C863 C 0.27439 0.34931 0.91651 0.0
C864 C 0.28067 0.34374 0.84868 0.0
C865 C 0.2768 0.31917 0.8432 0.0
C866 C 0.27775 0.3392 0.89152 0.0
C867 C 0.27519 0.30519 0.86267 0.0
C868 C 0.27181 0.33529 0.93589 0.0
C869 C 0.26719 0.38244 0.94228 0.0
N870 N 0.27531 0.3154 0.88598 0.0
N871 N 0.27211 0.37241 0.92043 0.0
H872 H 0.88825 0.01491 0.33114 0.0
H873 H 0.97953 0.98988 0.43976 0.0
H874 H 0.95286 0.98678 0.31962 0.0
H875 H 0.91354 0.01536 0.45121 0.0
H876 H 0.96878 0.98621 0.39562 0.0
H877 H 0.89632 0.01356 0.37511 0.0
C878 C 0.90414 0.00846 0.33783 0.0
C879 C 0.91996 0.00106 0.32162 0.0
C880 C 0.95655 0.9924 0.40779 0.0
C881 C 0.92924 -0.00062 0.372 0.0
C882 C 0.96263 0.9944 0.43302 0.0
C883 C 0.94749 0.00309 0.44923 0.0
C884 C 0.93523 -0.00076 0.39867 0.0
C885 C 0.92582 0.00868 0.43942 0.0
C886 C 0.90869 0.00762 0.36295 0.0
C887 C 0.9402 0.99276 0.33139 0.0
N888 N 0.92044 0.00685 0.41479 0.0
N889 N 0.94428 0.99222 0.35592 0.0
H890 H 0.29316 0.69504 0.59059 0.0
H891 H 0.30932 0.71734 0.73548 0.0
H892 H 0.30874 0.64391 0.63897 0.0
H893 H 0.28682 0.76772 0.68982 0.0
H894 H 0.31997 0.69494 0.69962 0.0
H895 H 0.30092 0.72566 0.62551 0.0
C896 C 0.29875 0.69034 0.60844 0.0
C897 C 0.29983 0.66678 0.61199 0.0
C898 C 0.31312 0.7111 0.69735 0.0
C899 C 0.30865 0.70167 0.6519 0.0
C900 C 0.30714 0.72394 0.71786 0.0
C901 C 0.29697 0.7442 0.71546 0.0
C902 C 0.3083 0.7182 0.6741 0.0
C903 C 0.29459 0.75212 0.69231 0.0
C904 C 0.3031 0.70783 0.62836 0.0
C905 C 0.30725 0.66174 0.63546 0.0
N906 N 0.29971 0.73877 0.67233 0.0
N907 N 0.31107 0.67897 0.65454 0.0
H908 H 0.59118 0.96856 0.81773 0.0
H909 H 0.50552 0.01065 0.9149 0.0
H910 H 0.53916 0.01294 0.80102 0.0
H911 H 0.55836 0.96652 0.929 0.0
H912 H 0.51426 0.0088 0.87191 0.0
H913 H 0.57644 0.96509 0.85756 0.0
C914 C 0.57662 0.97759 0.82243 0.0
C915 C 0.56654 0.99124 0.80608 0.0
C916 C 0.52372 -0.00066 0.88441 0.0
C917 C 0.5495 0.98734 0.85186 0.0
C918 C 0.51866 0.0003 0.90886 0.0
C919 C 0.53145 0.98894 0.92551 0.0
C920 C 0.5416 0.9869 0.87676 0.0
C921 C 0.54831 0.97581 0.91684 0.0
C922 C 0.56813 0.97554 0.8452 0.0
C923 C 0.54754 0.00233 0.81313 0.0
N924 N 0.553 0.9753 0.89314 0.0
N925 N 0.53971 0.00027 0.83561 0.0
H926 H 0.2367 0.30642 0.08502 0.0
H927 H 0.2601 0.31753 0.23114 0.0
H928 H 0.26017 0.37152 0.13205 0.0
H929 H 0.23642 0.25038 0.18779 0.0
H930 H 0.25888 0.33703 0.19426 0.0
H931 H 0.23561 0.28497 0.12148 0.0
C932 C 0.24166 0.31618 0.10295 0.0
C933 C 0.24857 0.34081 0.10549 0.0
C934 C 0.25389 0.31803 0.19263 0.0
C935 C 0.24725 0.3165 0.14707 0.0
C936 C 0.25463 0.30683 0.21379 0.0
C937 C 0.24857 0.28224 0.21258 0.0
C938 C 0.24711 0.30464 0.16982 0.0
C939 C 0.24123 0.2694 0.18954 0.0
C940 C 0.24098 0.30394 0.12372 0.0
C941 C 0.25475 0.35256 0.12913 0.0
N942 N 0.24085 0.28075 0.16897 0.0
N943 N 0.25393 0.34033 0.14889 0.0
H944 H 0.20549 0.94854 0.04062 0.0
H945 H 0.06439 0.93133 0.03551 0.0
H946 H 0.16026 0.88104 0.04094 0.0
H947 H 0.10874 -0.00038 0.05383 0.0
H948 H 0.09974 0.91282 0.0404 0.0
H949 H 0.17116 0.96799 0.04818 0.0
C950 C 0.18841 0.93783 0.04254 0.0
C951 C 0.18562 0.91312 0.03978 0.0
C952 C 0.10183 0.93184 0.04372 0.0
C953 C 0.14637 0.93521 0.04834 0.0
C954 C 0.08165 0.9424 0.04088 0.0
C955 C 0.08381 0.96699 0.04405 0.0
C956 C 0.12448 0.94599 0.04923 0.0
C957 C 0.10645 0.98057 0.05122 0.0
C958 C 0.16886 0.94894 0.04693 0.0
C959 C 0.16317 0.90011 0.04264 0.0
N960 N 0.12608 0.96988 0.05315 0.0
N961 N 0.14436 0.91131 0.04646 0.0
H962 H 0.65416 0.6202 0.96994 0.0
H963 H 0.57523 0.49455 0.98154 0.0
H964 H 0.68299 0.55548 0.96677 0.0
H965 H 0.5541 0.56175 0.00116 0.0
H966 H 0.61215 0.5154 0.96773 0.0
H967 H 0.61442 0.59761 0.97239 0.0
C968 C 0.65208 0.60121 0.96944 0.0
C969 C 0.67195 0.58974 0.96857 0.0
C970 C 0.59926 0.52549 0.97486 0.0
C971 C 0.62659 0.56379 0.97154 0.0
C972 C 0.57824 0.51362 0.98268 0.0
C973 C 0.56182 0.52647 0.99281 0.0
C974 C 0.60356 0.55028 0.97695 0.0
C975 C 0.56648 0.55115 0.99384 0.0
C976 C 0.62941 0.58831 0.97092 0.0
C977 C 0.66817 0.56505 0.96774 0.0
N978 N 0.58692 0.56221 0.98612 0.0
N979 N 0.64595 0.55289 0.96952 0.0
H980 H 0.71674 0.46353 0.30624 0.0
H981 H 0.73135 0.34114 0.23334 0.0
H982 H 0.6648 0.42624 0.24858 0.0
H983 H 0.75065 0.35662 0.31103 0.0
H984 H 0.71737 0.37929 0.23307 0.0
H985 H 0.73918 0.4305 0.3028 0.0
C986 C 0.7102 0.44851 0.29275 0.0
C987 C 0.68876 0.44741 0.27789 0.0
C988 C 0.72525 0.37453 0.25002 0.0
C989 C 0.71458 0.41022 0.27337 0.0
C990 C 0.73345 0.35299 0.25012 0.0
C991 C 0.74231 0.34603 0.27219 0.0
C992 C 0.72637 0.3892 0.27208 0.0
C993 C 0.74408 0.3616 0.29363 0.0
C994 C 0.72298 0.42976 0.2908 0.0
C995 C 0.68108 0.42761 0.26063 0.0
N996 N 0.73614 0.3825 0.29308 0.0
N997 N 0.69402 0.40982 0.25878 0.0
H998 H 0.80795 0.44841 0.46679 0.0
H999 H 0.93312 0.41089 0.50754 0.0
H1000 H 0.81497 0.38834 0.50601 0.0
H1001 H 0.92619 0.47705 0.47983 0.0
H1002 H 0.88985 0.3984 0.49937 0.0
H1003 H 0.85112 0.45524 0.46428 0.0
C1004 C 0.81852 0.43654 0.47473 0.0
C1005 C 0.80784 0.41796 0.48694 0.0
C1006 C 0.89785 0.41553 0.49481 0.0
C1007 C 0.85728 0.42569 0.48406 0.0
C1008 C 0.92257 0.42264 0.49936 0.0
C1009 C 0.93323 0.44521 0.49474 0.0
C1010 C 0.88373 0.43109 0.48553 0.0
C1011 C 0.91868 0.45962 0.48399 0.0
C1012 C 0.84318 0.44046 0.47327 0.0
C1013 C 0.82245 0.40305 0.49668 0.0
N1014 N 0.89463 0.45242 0.48 0.0
N1015 N 0.84646 0.40735 0.49518 0.0
H1016 H 0.29702 0.04982 0.29022 0.0
H1017 H 0.27151 0.15897 0.21906 0.0
H1018 H 0.33548 0.07367 0.23045 0.0
H1019 H 0.26463 0.15634 0.29605 0.0
H1020 H 0.28196 0.11917 0.21662 0.0
H1021 H 0.27263 0.08105 0.28609 0.0
C1022 C 0.30004 0.06137 0.27603 0.0
C1023 C 0.3185 0.05956 0.26095 0.0
C1024 C 0.27752 0.12714 0.23387 0.0
C1025 C 0.29054 0.09456 0.25574 0.0
C1026 C 0.2714 0.14966 0.2352 0.0
C1027 C 0.26744 0.16081 0.25781 0.0
C1028 C 0.27922 0.11577 0.25522 0.0
C1029 C 0.26779 0.14827 0.27833 0.0
C1030 C 0.28617 0.07909 0.27367 0.0
C1031 C 0.32169 0.07483 0.24274 0.0
N1032 N 0.2738 0.12644 0.27662 0.0
N1033 N 0.30791 0.09175 0.24069 0.0
H1034 H 0.31949 0.11761 0.50452 0.0
H1035 H 0.40994 0.03033 0.53855 0.0
H1036 H 0.29707 0.05153 0.53328 0.0
H1037 H 0.43047 0.09689 0.51009 0.0
H1038 H 0.36879 0.03809 0.53853 0.0
H1039 H 0.36057 0.11052 0.50794 0.0
C1040 C 0.32318 0.10159 0.51157 0.0
C1041 C 0.30474 0.08511 0.51853 0.0
C1042 C 0.38237 0.051 0.5324 0.0
C1043 C 0.35194 0.07685 0.52252 0.0
C1044 C 0.40584 0.04661 0.53246 0.0
C1045 C 0.42363 0.06293 0.52419 0.0
C1046 C 0.37674 0.07185 0.52403 0.0
C1047 C 0.41734 0.08373 0.5165 0.0
C1048 C 0.3467 0.09755 0.51356 0.0
C1049 C 0.3107 0.0647 0.52763 0.0
N1050 N 0.39444 0.08753 0.51653 0.0
N1051 N 0.3338 0.06111 0.52931 0.0
H1052 H 0.70801 0.5737 0.29096 0.0
H1053 H 0.70537 0.71118 0.2883 0.0
H1054 H 0.64482 0.60597 0.29407 0.0
H1055 H 0.77056 0.68238 0.2845 0.0
H1056 H 0.68429 0.67284 0.29533 0.0
H1057 H 0.73248 0.61316 0.29334 0.0
C1058 C 0.69932 0.58905 0.29249 0.0
C1059 C 0.67429 0.58652 0.29202 0.0
C1060 C 0.70323 0.67478 0.29312 0.0
C1061 C 0.70207 0.63151 0.29469 0.0
C1062 C 0.7153 0.69674 0.28906 0.0
C1063 C 0.7397 0.6999 0.28551 0.0
C1064 C 0.71548 0.65557 0.29336 0.0
C1065 C 0.75171 0.68063 0.28708 0.0
C1066 C 0.71328 0.61153 0.29377 0.0
C1067 C 0.66399 0.607 0.29403 0.0
N1068 N 0.73939 0.65912 0.29058 0.0
N1069 N 0.67787 0.62851 0.29511 0.0
H1070 H 0.90625 0.41274 0.76575 0.0
H1071 H 0.78161 0.32806 0.77275 0.0
H1072 H 0.84036 0.43888 0.77613 0.0
H1073 H 0.84632 0.30427 0.75291 0.0
H1074 H 0.80367 0.36861 0.78001 0.0
H1075 H 0.88532 0.37283 0.76686 0.0
C1076 C 0.88736 0.41013 0.76836 0.0
C1077 C 0.87499 0.42923 0.77057 0.0
C1078 C 0.81304 0.35445 0.77427 0.0
C1079 C 0.85082 0.38332 0.77181 0.0
C1080 C 0.80051 0.33134 0.77025 0.0
C1081 C 0.81214 0.31288 0.76197 0.0
C1082 C 0.83733 0.35898 0.77013 0.0
C1083 C 0.8366 0.31803 0.75897 0.0
C1084 C 0.87541 0.38726 0.76901 0.0
C1085 C 0.85057 0.42467 0.77417 0.0
N1086 N 0.84833 0.3406 0.76292 0.0
N1087 N 0.83921 0.40213 0.7745 0.0
H1088 H 0.98759 0.84917 0.13489 0.0
H1089 H 0.00876 0.92828 0.02527 0.0
H1090 H 0.02526 0.82983 0.07321 0.0
H1091 H 0.97876 0.94938 0.0916 0.0
H1092 H 0.00692 0.88848 0.0377 0.0
H1093 H 0.97654 0.88199 0.11462 0.0
C1094 C -0.00663 0.8517 0.11694 0.0
C1095 C 0.0077 0.83695 0.10589 0.0
C1096 C 0.00025 0.90169 0.04925 0.0
C1097 C -0.00476 0.87477 0.08258 0.0
C1098 C 0.00109 0.92435 0.04206 0.0
C1099 C -0.0059 0.94217 0.05758 0.0
C1100 C 0.99226 0.89692 0.07202 0.0
C1101 C 0.98454 0.93619 0.07923 0.0
C1102 C 0.98702 0.87047 0.10534 0.0
C1103 C 0.01436 0.84091 0.08247 0.0
N1104 N 0.98416 0.91418 0.08593 0.0
N1105 N 0.00836 0.85967 0.07171 0.0
H1106 H 0.92863 0.21813 0.84304 0.0
H1107 H 0.82879 0.27224 0.79123 0.0
H1108 H 0.94489 0.26798 0.79066 0.0
H1109 H 0.81651 0.1971 0.77051 0.0
H1110 H 0.87138 0.27166 0.7995 0.0
H1111 H 0.88706 0.20898 0.82401 0.0
C1112 C 0.92364 0.22678 0.82731 0.0
C1113 C 0.94013 0.24422 0.81875 0.0
C1114 C 0.85937 0.25534 0.79293 0.0
C1115 C 0.89309 0.23385 0.79727 0.0
C1116 C 0.83514 0.25563 0.78822 0.0
C1117 C 0.8193 0.23472 0.77989 0.0
C1118 C 0.86772 0.23389 0.79021 0.0
C1119 C 0.82838 0.21358 0.77665 0.0
C1120 C 0.90007 0.22138 0.8164 0.0
C1121 C 0.93276 0.2547 0.79815 0.0
N1122 N 0.85217 0.21357 0.7823 0.0
N1123 N 0.90961 0.24982 0.78853 0.0
H1124 H 0.5597 0.19741 0.66133 0.0
H1125 H 0.51785 0.11357 0.53634 0.0
H1126 H 0.53078 0.22222 0.59573 0.0
H1127 H 0.52775 0.0884 0.60701 0.0
H1128 H 0.53012 0.15412 0.55578 0.0
H1129 H 0.55572 0.15817 0.6394 0.0
C1130 C 0.5527 0.19471 0.64224 0.0
C1131 C 0.54529 0.21316 0.63046 0.0
C1132 C 0.52981 0.13968 0.56695 0.0
C1133 C 0.54069 0.16808 0.60523 0.0
C1134 C 0.52294 0.11654 0.55588 0.0
C1135 C 0.5216 0.0976 0.57014 0.0
C1136 C 0.5356 0.14384 0.5924 0.0
C1137 C 0.52832 0.10248 0.59536 0.0
C1138 C 0.55039 0.17223 0.62975 0.0
C1139 C 0.53652 0.20851 0.60562 0.0
N1140 N 0.53494 0.12512 0.6057 0.0
N1141 N 0.53432 0.18637 0.59386 0.0
H1142 H 0.56301 0.77716 0.32842 0.0
H1143 H 0.70066 0.77093 0.35225 0.0
H1144 H 0.59953 0.78261 0.40095 0.0
H1145 H 0.66867 0.78519 0.28282 0.0
H1146 H 0.66406 0.77623 0.37059 0.0
H1147 H 0.60159 0.78132 0.31144 0.0
C1148 C 0.5792 0.77943 0.34079 0.0
C1149 C 0.57813 0.77927 0.3661 0.0
C1150 C 0.66508 0.77844 0.35141 0.0
C1151 C 0.62227 0.78386 0.34678 0.0
C1152 C 0.68592 0.77528 0.34087 0.0
C1153 C 0.68752 0.77731 0.3159 0.0
C1154 C 0.64555 0.78334 0.33678 0.0
C1155 C 0.66807 0.78333 0.30211 0.0
C1156 C 0.60121 0.78189 0.33109 0.0
C1157 C 0.59961 0.78252 0.38132 0.0
N1158 N 0.64771 0.78583 0.31268 0.0
N1159 N 0.62084 0.78436 0.37137 0.0
H1160 H 0.97119 0.17822 0.40829 0.0
H1161 H 0.99264 0.10677 0.52286 0.0
H1162 H 0.01344 0.21081 0.47498 0.0
H1163 H 0.97774 0.07597 0.44771 0.0
H1164 H 0.99039 0.14583 0.50926 0.0
H1165 H 0.96276 0.1416 0.42684 0.0
C1166 C 0.97844 0.17778 0.42698 0.0
C1167 C -0.00658 0.19746 0.43996 0.0
C1168 C 0.98732 0.13041 0.49588 0.0
C1169 C 0.98389 0.1555 0.46124 0.0
C1170 C 0.98851 0.10822 0.5036 0.0
C1171 C 0.98564 0.08832 0.48628 0.0
C1172 C 0.98272 0.13238 0.47082 0.0
C1173 C 0.98039 0.09098 0.46157 0.0
C1174 C 0.97365 0.15684 0.43753 0.0
C1175 C 0.00203 0.19594 0.46425 0.0
N1176 N 0.97913 0.1126 0.45458 0.0
N1177 N -0.00261 0.17515 0.47406 0.0
H1178 H 0.56457 0.25683 0.20441 0.0
H1179 H 0.70265 0.26107 0.1847 0.0
H1180 H 0.59087 0.24857 0.13334 0.0
H1181 H 0.67534 0.25844 0.25539 0.0
H1182 H 0.66179 0.25666 0.1656 0.0
H1183 H 0.60512 0.25827 0.22355 0.0
C1184 C 0.5789 0.25539 0.19284 0.0
C1185 C 0.5744 0.25263 0.16725 0.0
C1186 C 0.66469 0.25688 0.18527 0.0
C1187 C 0.62074 0.25417 0.18901 0.0
C1188 C 0.68802 0.2594 0.1962 0.0
C1189 C 0.69237 0.26023 0.22168 0.0
C1190 C 0.64557 0.2554 0.19995 0.0
C1191 C 0.67276 0.25787 0.23567 0.0
C1192 C 0.602 0.2561 0.20378 0.0
C1193 C 0.59358 0.25074 0.15314 0.0
N1194 N 0.65017 0.25574 0.22462 0.0
N1195 N 0.61594 0.2516 0.16421 0.0
H1196 H 0.53715 0.81771 0.97615 0.0
H1197 H 0.5624 0.95768 0.99343 0.0
H1198 H 0.57304 0.86103 0.92606 0.0
H1199 H 0.51728 0.91464 0.037 0.0
H1200 H 0.57611 0.92247 0.97586 0.0
H1201 H 0.53939 0.85277 0.00519 0.0
C1202 C 0.54586 0.83451 0.97139 0.0
C1203 C 0.55441 0.8365 0.94836 0.0
C1204 C 0.56353 0.92079 0.98959 0.0
C1205 C 0.55693 0.8767 0.98154 0.0
C1206 C 0.55565 0.9409 -0.0004 0.0
C1207 C 0.53805 0.93901 0.01609 0.0
C1208 C 0.55369 0.89864 -0.00391 0.0
C1209 C 0.53054 0.91689 0.02401 0.0
C1210 C 0.54712 0.85453 0.98801 0.0
C1211 C 0.5658 0.85871 0.9434 0.0
N1212 N 0.53805 0.89748 0.01356 0.0
N1213 N 0.5664 0.878 0.95969 0.0
H1214 H 0.95027 0.73319 0.72622 0.0
H1215 H 0.826 0.76885 0.68446 0.0
H1216 H 0.93658 0.76256 0.65844 0.0
H1217 H 0.84475 0.75297 0.75767 0.0
H1218 H 0.8678 0.77107 0.67625 0.0
H1219 H 0.91316 0.74382 0.73956 0.0
C1220 C 0.93955 0.74202 0.71419 0.0
C1221 C 0.94639 0.74668 0.69102 0.0
C1222 C 0.86289 0.76754 0.69427 0.0
C1223 C 0.90382 0.75887 0.70619 0.0
C1224 C 0.83903 0.76632 0.69898 0.0
C1225 C 0.83186 0.76038 0.72165 0.0
C1226 C 0.87962 0.76239 0.71224 0.0
C1227 C 0.84948 0.75747 0.73988 0.0
C1228 C 0.9184 0.7482 0.72189 0.0
C1229 C 0.93191 0.75842 0.67636 0.0
N1230 N 0.8725 0.75804 0.73461 0.0
N1231 N 0.91116 0.76383 0.68406 0.0
H1232 H 0.11884 0.00485 0.86723 0.0
H1233 H -0.00069 0.99003 0.93603 0.0
H1234 H 0.04917 0.01073 0.83364 0.0
H1235 H 0.06996 0.00907 0.97462 0.0
H1236 H 0.01736 0.98946 0.89725 0.0
H1237 H 0.10106 -0.0015 0.90579 0.0
C1238 C 0.09981 0.00455 0.86789 0.0
C1239 C 0.08551 0.00854 0.84728 0.0
C1240 C 0.0289 0.99362 0.91423 0.0
C1241 C 0.06512 0.00112 0.89104 0.0
C1242 C 0.01862 0.99388 0.93638 0.0
C1243 C 0.03312 -9e-05 0.95861 0.0
C1244 C 0.05389 -0.00086 0.91427 0.0
C1245 C 0.05808 0.00462 0.95789 0.0
C1246 C 0.08971 0.00103 0.88987 0.0
C1247 C 0.06094 0.008 0.84914 0.0
N1248 N 0.06769 0.00421 0.93608 0.0
N1249 N 0.05155 0.00439 0.87059 0.0
H1250 H 0.77879 0.36942 0.59547 0.0
H1251 H 0.74782 0.24987 0.65729 0.0
H1252 H 0.7285 0.30943 0.55996 0.0
H1253 H 0.77411 0.31835 0.6969 0.0
H1254 H 0.74905 0.26811 0.61861 0.0
H1255 H 0.78592 0.34716 0.62992 0.0
C1256 C 0.76939 0.35149 0.59482 0.0
C1257 C 0.75275 0.34138 0.57501 0.0
C1258 C 0.75481 0.27898 0.63582 0.0
C1259 C 0.76087 0.31581 0.61437 0.0
C1260 C 0.75423 0.26861 0.65774 0.0
C1261 C 0.76063 0.28276 0.68011 0.0
C1262 C 0.76231 0.30346 0.63654 0.0
C1263 C 0.76873 0.30693 0.67995 0.0
C1264 C 0.77346 0.3388 0.61449 0.0
C1265 C 0.74127 0.31797 0.57505 0.0
N1266 N 0.76929 0.31652 0.65852 0.0
N1267 N 0.7454 0.30599 0.59457 0.0
H1268 H 0.40444 0.04436 0.34482 0.0
H1269 H 0.52491 0.0435 0.42884 0.0
H1270 H 0.47103 0.03338 0.31686 0.0
H1271 H 0.45754 0.05181 0.45661 0.0
H1272 H 0.50755 0.04749 0.38773 0.0
H1273 H 0.42562 0.05506 0.38569 0.0
C1274 C 0.42357 0.04459 0.34717 0.0
C1275 C 0.43587 0.03749 0.32747 0.0
C1276 C 0.49667 0.04875 0.40289 0.0
C1277 C 0.46018 0.04947 0.37419 0.0
C1278 C 0.5066 0.04651 0.42637 0.0
C1279 C 0.49252 0.04685 0.4461 0.0
C1280 C 0.47251 0.05129 0.39918 0.0
C1281 C 0.46894 0.05097 0.44185 0.0
C1282 C 0.43566 0.05063 0.37053 0.0
C1283 C 0.46071 0.03831 0.33159 0.0
N1284 N 0.45959 0.05273 0.41883 0.0
N1285 N 0.47198 0.04382 0.35454 0.0
H1286 H 0.77128 0.67934 0.0596 0.0
H1287 H 0.7293 0.7142 0.19043 0.0
H1288 H 0.70595 0.64207 0.08199 0.0
H1289 H 0.80222 0.70756 0.17944 0.0
H1290 H 0.71733 0.69879 0.14706 0.0
H1291 H 0.77938 0.70182 0.10022 0.0
C1292 C 0.75838 0.67625 0.07287 0.0
C1293 C 0.73804 0.65866 0.06756 0.0
C1294 C 0.73595 0.70098 0.15423 0.0
C1295 C 0.74709 0.68443 0.11373 0.0
C1296 C 0.74274 0.70975 0.17878 0.0
C1297 C 0.76667 0.71181 0.18833 0.0
C1298 C 0.75342 0.69513 0.13924 0.0
C1299 C 0.78353 0.70589 0.17271 0.0
C1300 C 0.76309 0.68898 0.09601 0.0
C1301 C 0.72198 0.65531 0.08549 0.0
N1302 N 0.77662 0.69792 0.14886 0.0
N1303 N 0.72687 0.66806 0.10788 0.0
H1304 H 0.14356 0.01619 0.69264 0.0
H1305 H 0.02226 0.00525 0.60468 0.0
H1306 H 0.07306 0.00536 0.7178 0.0
H1307 H 0.09108 0.00109 0.57833 0.0
H1308 H 0.04137 0.01148 0.64667 0.0
H1309 H 0.12524 0.01624 0.65095 0.0
C1310 C 0.12423 0.01388 0.6894 0.0
C1311 C 0.10979 0.0106 0.70866 0.0
C1312 C 0.0523 0.00938 0.63167 0.0
C1313 C 0.08876 0.0108 0.66112 0.0
C1314 C 0.04143 0.00597 0.6077 0.0
C1315 C 0.05508 0.00245 0.588 0.0
C1316 C 0.077 0.0094 0.63594 0.0
C1317 C 0.07985 0.00352 0.59299 0.0
C1318 C 0.1138 0.01392 0.66562 0.0
C1319 C 0.08487 0.00777 0.70345 0.0
N1320 N 0.08999 0.00678 0.61647 0.0
N1321 N 0.07513 0.00791 0.68017 0.0
H1322 H 0.7041 0.37613 0.41169 0.0
H1323 H 0.71465 0.2484 0.35057 0.0
H1324 H 0.70725 0.31921 0.45653 0.0
H1325 H 0.75378 0.31371 0.33192 0.0
H1326 H 0.6993 0.27098 0.3843 0.0
H1327 H 0.70721 0.34919 0.37571 0.0
C1328 C 0.70478 0.35784 0.41394 0.0
C1329 C 0.70602 0.35006 0.43726 0.0
C1330 C 0.71105 0.28017 0.37251 0.0
C1331 C 0.70958 0.31929 0.39615 0.0
C1332 C 0.71987 0.26739 0.35341 0.0
C1333 C 0.73537 0.27919 0.33825 0.0
C1334 C 0.71733 0.30482 0.37587 0.0
C1335 C 0.74166 0.30381 0.34284 0.0
C1336 C 0.70669 0.34255 0.3934 0.0
C1337 C 0.7067 0.32605 0.43893 0.0
N1338 N 0.73246 0.31578 0.36106 0.0
N1339 N 0.70884 0.31151 0.41863 0.0
H1340 H 0.39333 0.03376 0.18801 0.0
H1341 H 0.43589 0.94819 0.09142 0.0
H1342 H 0.36763 0.95918 0.18602 0.0
H1343 H 0.41817 0.01454 0.07274 0.0
H1344 H 0.41275 0.95111 0.12697 0.0
H1345 H 0.40481 0.02718 0.14645 0.0
C1346 C 0.38988 0.01604 0.17861 0.0
C1347 C 0.37962 -0.00304 0.19023 0.0
C1348 C 0.4136 0.96473 0.11474 0.0
C1349 C 0.39311 0.98925 0.14322 0.0
C1350 C 0.42686 0.96316 0.09461 0.0
C1351 C 0.42913 0.98129 0.07935 0.0
C1352 C 0.40315 0.98481 0.11982 0.0
C1353 C 0.41697 0.00024 0.08413 0.0
C1354 C 0.3963 0.01231 0.15495 0.0
C1355 C 0.37544 0.9743 0.17746 0.0
N1356 N 0.40488 0.00175 0.10426 0.0
N1357 N 0.38269 0.97095 0.15467 0.0
H1358 H 0.76351 0.70415 0.94564 0.0
H1359 H 0.77231 0.69251 0.8024 0.0
H1360 H 0.77492 0.64062 0.9038 0.0
H1361 H 0.77985 0.76021 0.84526 0.0
H1362 H 0.77484 0.67378 0.83991 0.0
H1363 H 0.77084 0.72563 0.91002 0.0
C1364 C 0.76782 0.69478 0.92907 0.0
C1365 C 0.76837 0.67049 0.92762 0.0
C1366 C 0.77621 0.69276 0.84123 0.0
C1367 C 0.7766 0.69491 0.88682 0.0
C1368 C 0.77475 0.7035 0.81977 0.0
C1369 C 0.77564 0.72795 0.82069 0.0
C1370 C 0.77814 0.70646 0.86394 0.0
C1371 C 0.77899 0.74129 0.84373 0.0
C1372 C 0.77204 0.70707 0.90877 0.0
C1373 C 0.77413 0.65928 0.90572 0.0
N1374 N 0.77972 0.73031 0.86451 0.0
N1375 N 0.77775 0.67151 0.88615 0.0
H1376 H 0.83363 0.1023 0.9934 0.0
H1377 H 0.89164 0.98877 0.01624 0.0
H1378 H 0.80037 0.04514 0.03074 0.0
H1379 H 0.91998 0.04052 0.96991 0.0
H1380 H 0.85632 0.00753 0.01886 0.0
H1381 H 0.8644 0.07903 0.98268 0.0
C1382 C 0.83278 0.08489 -0.00067 0.0
C1383 C 0.8145 0.07577 0.01317 0.0
C1384 C 0.87011 0.01459 0.00783 0.0
C1385 C 0.84951 0.04902 0.00087 0.0
C1386 C 0.89025 0.00379 0.00623 0.0
C1387 C 0.90897 0.01327 0.99313 0.0
C1388 C 0.8688 0.03514 -0.00355 0.0
C1389 C 0.90609 0.03272 0.98042 0.0
C1390 C 0.85025 0.07155 0.99308 0.0
C1391 C 0.81418 0.053 0.02017 0.0
N1392 N 0.88658 0.04324 0.98272 0.0
N1393 N 0.83148 0.0405 0.01408 0.0
H1394 H 0.3184 0.47789 0.05653 0.0
H1395 H 0.44434 0.44494 0.03273 0.0
H1396 H 0.3328 0.40675 0.05481 0.0
H1397 H 0.43467 0.51628 0.05436 0.0
H1398 H 0.4042 0.43061 0.04337 0.0
H1399 H 0.36133 0.49249 0.05902 0.0
C1400 C 0.33063 0.46536 0.05707 0.0
C1401 C 0.32202 0.44104 0.05509 0.0
C1402 C 0.41094 0.44938 0.04609 0.0
C1403 C 0.37114 0.45761 0.05756 0.0
C1404 C 0.43382 0.4576 0.03989 0.0
C1405 C 0.44273 0.48187 0.04238 0.0
C1406 C 0.39668 0.46557 0.05445 0.0
C1407 C 0.42843 0.49743 0.05201 0.0
C1408 C 0.35515 0.47372 0.05852 0.0
C1409 C 0.33866 0.42563 0.05615 0.0
N1410 N 0.40593 0.48902 0.05736 0.0
N1411 N 0.36244 0.43415 0.05686 0.0
H1412 H 0.31488 0.55956 0.75056 0.0
H1413 H 0.34642 0.6949 0.80416 0.0
H1414 H 0.3826 0.59242 0.78975 0.0
H1415 H 0.27437 0.66145 0.77768 0.0
H1416 H 0.359 0.65657 0.80075 0.0
H1417 H 0.29863 0.59558 0.76163 0.0
C1418 C 0.32625 0.57424 0.76165 0.0
C1419 C 0.35021 0.57307 0.76903 0.0
C1420 C 0.34035 0.65745 0.79591 0.0
C1421 C 0.33181 0.61421 0.78167 0.0
C1422 C 0.33317 0.67938 0.79786 0.0
C1423 C 0.30936 0.68134 0.79106 0.0
C1424 C 0.32372 0.63723 0.78665 0.0
C1425 C 0.2929 0.66065 0.78317 0.0
C1426 C 0.31696 0.59476 0.76799 0.0
C1427 C 0.36411 0.59257 0.78345 0.0
N1428 N 0.30047 0.63942 0.78082 0.0
N1429 N 0.35477 0.61233 0.7891 0.0
H1430 H 0.19742 0.56358 0.55153 0.0
H1431 H 0.06697 0.59422 0.53093 0.0
H1432 H 0.18233 0.63458 0.55771 0.0
H1433 H 0.08166 0.52326 0.5307 0.0
H1434 H 0.10827 0.60934 0.54744 0.0
H1435 H 0.15468 0.54853 0.55046 0.0
C1436 C 0.18512 0.57601 0.55296 0.0
C1437 C 0.19336 0.60034 0.55425 0.0
C1438 C 0.10238 0.59045 0.54414 0.0
C1439 C 0.14442 0.58326 0.55284 0.0
C1440 C 0.07879 0.5818 0.5347 0.0
C1441 C 0.07103 0.55747 0.52896 0.0
C1442 C 0.11836 0.57464 0.54761 0.0
C1443 C 0.08699 0.54218 0.53455 0.0
C1444 C 0.16071 0.56741 0.55239 0.0
C1445 C 0.17669 0.61567 0.5564 0.0
N1446 N 0.11004 0.55104 0.54318 0.0
N1447 N 0.15295 0.60685 0.55524 0.0
H1448 H 0.69699 0.9456 0.76315 0.0
H1449 H 0.67987 0.81351 0.79531 0.0
H1450 H 0.63126 0.90754 0.7839 0.0
H1451 H 0.74869 0.85223 0.78379 0.0
H1452 H 0.6634 0.84987 0.79659 0.0
H1453 H 0.71774 0.91381 0.77504 0.0
C1454 C 0.68698 0.93067 0.77041 0.0
C1455 C 0.66228 0.92901 0.77217 0.0
C1456 C 0.68221 0.85064 0.79416 0.0
C1457 C 0.68586 0.89274 0.78585 0.0
C1458 C 0.6916 0.82987 0.7935 0.0
C1459 C 0.71555 0.82999 0.78927 0.0
C1460 C 0.69673 0.87163 0.78993 0.0
C1461 C 0.7301 0.85155 0.78714 0.0
C1462 C 0.69885 0.91259 0.77726 0.0
C1463 C 0.65024 0.90941 0.78189 0.0
N1464 N 0.72033 0.87155 0.787 0.0
N1465 N 0.66209 0.89199 0.78813 0.0
H1466 H 0.65265 0.87863 0.51392 0.0
H1467 H 0.607 0.00034 0.49488 0.0
H1468 H 0.6983 0.94669 0.5284 0.0
H1469 H 0.56002 0.93596 0.504 0.0
H1470 H 0.64131 0.97958 0.49912 0.0
H1471 H 0.61887 0.8983 0.50275 0.0
C1472 C 0.65556 0.89768 0.51469 0.0
C1473 C 0.67822 0.91106 0.52231 0.0
C1474 C 0.62343 0.97 0.49996 0.0
C1475 C 0.63989 0.9336 0.50931 0.0
C1476 C 0.6039 0.98178 0.49737 0.0
C1477 C 0.58075 0.96987 0.49931 0.0
C1478 C 0.61963 0.94614 0.50419 0.0
C1479 C 0.57766 0.94585 0.50267 0.0
C1480 C 0.63633 0.90888 0.50831 0.0
C1481 C 0.68106 0.9357 0.52287 0.0
N1482 N 0.59687 0.93479 0.50508 0.0
N1483 N 0.66212 0.94618 0.51646 0.0
H1484 H 0.38066 0.41241 0.71434 0.0
H1485 H 0.25918 0.33701 0.74778 0.0
H1486 H 0.32306 0.44485 0.7411 0.0
H1487 H 0.32593 0.31107 0.74367 0.0
H1488 H 0.27885 0.37527 0.73713 0.0
H1489 H 0.35687 0.37378 0.71612 0.0
C1490 C 0.36289 0.41146 0.72035 0.0
C1491 C 0.35402 0.43199 0.72794 0.0
C1492 C 0.28906 0.36109 0.73838 0.0
C1493 C 0.32667 0.38759 0.7301 0.0
C1494 C 0.27786 0.33927 0.74434 0.0
C1495 C 0.29103 0.32094 0.7468 0.0
C1496 C 0.31343 0.36435 0.73448 0.0
C1497 C 0.31518 0.3248 0.74223 0.0
C1498 C 0.34934 0.38934 0.72142 0.0
C1499 C 0.33072 0.42952 0.73529 0.0
N1500 N 0.32558 0.34606 0.73633 0.0
N1501 N 0.3179 0.40768 0.7364 0.0
H1502 H 0.11957 0.56591 0.20734 0.0
H1503 H 0.2386 0.65786 0.25514 0.0
H1504 H 0.18476 0.5456 0.23736 0.0
H1505 H 0.16842 0.67673 0.244 0.0
H1506 H 0.22145 0.61703 0.23965 0.0
H1507 H 0.1399 0.60678 0.21137 0.0
C1508 C 0.13826 0.56994 0.21443 0.0
C1509 C 0.15035 0.55229 0.2224 0.0
C1510 C 0.20989 0.63019 0.24037 0.0
C1511 C 0.17366 0.59914 0.22712 0.0
C1512 C 0.21965 0.65349 0.24913 0.0
C1513 C 0.20483 0.67064 0.25116 0.0
C1514 C 0.1852 0.62407 0.23341 0.0
C1515 C 0.18044 0.66401 0.24304 0.0
C1516 C 0.14981 0.59333 0.2168 0.0
C1517 C 0.17463 0.55864 0.23127 0.0
N1518 N 0.17136 0.64121 0.23467 0.0
N1519 N 0.18543 0.5816 0.23362 0.0
H1520 H 0.50536 0.71086 0.46474 0.0
H1521 H 0.52609 0.57789 0.43406 0.0
H1522 H 0.51406 0.67844 0.39293 0.0
H1523 H 0.49777 0.60088 0.50087 0.0
H1524 H 0.5285 0.61748 0.422 0.0
H1525 H 0.50803 0.67307 0.48111 0.0
C1526 C 0.50784 0.69586 0.45246 0.0
C1527 C 0.50934 0.69776 0.42741 0.0
C1528 C 0.52187 0.61397 0.43938 0.0
C1529 C 0.51277 0.65489 0.44597 0.0
C1530 C 0.52058 0.59134 0.44634 0.0
C1531 C 0.51144 0.58596 0.46838 0.0
C1532 C 0.51396 0.6315 0.4545 0.0
C1533 C 0.50482 0.60424 0.48365 0.0
C1534 C 0.50938 0.67437 0.46179 0.0
C1535 C 0.51263 0.67782 0.41232 0.0
N1536 N 0.50601 0.62622 0.47632 0.0
N1537 N 0.51428 0.65733 0.42183 0.0
H1538 H 0.59069 0.31568 0.72709 0.0
H1539 H 0.7033 0.25632 0.71343 0.0
H1540 H 0.62286 0.30873 0.65904 0.0
H1541 H 0.69422 0.29351 0.78287 0.0
H1542 H 0.67248 0.27462 0.69382 0.0
H1543 H 0.62759 0.30835 0.74884 0.0
C1544 C 0.60568 0.31312 0.71679 0.0
C1545 C 0.60357 0.31235 0.69116 0.0
C1546 C 0.67733 0.27898 0.71331 0.0
C1547 C 0.64543 0.30363 0.71582 0.0
C1548 C 0.69479 0.26835 0.72462 0.0
C1549 C 0.70128 0.27333 0.74989 0.0
C1550 C 0.6657 0.29428 0.7274 0.0
C1551 C 0.68969 0.28919 0.76334 0.0
C1552 C 0.62669 0.30896 0.72922 0.0
C1553 C 0.62357 0.30915 0.67875 0.0
N1554 N 0.67213 0.29891 0.75196 0.0
N1555 N 0.64351 0.30443 0.69116 0.0
H1556 H 0.97573 0.3471 0.87993 0.0
H1557 H -0.00364 0.42721 0.00797 0.0
H1558 H -0.00635 0.32018 0.94806 0.0
H1559 H 0.98044 0.4515 0.93797 0.0
H1560 H 0.98763 0.38636 0.98831 0.0
H1561 H 0.96955 0.38343 0.90257 0.0
C1562 C 0.97818 0.3488 0.89975 0.0
C1563 C 0.98561 0.33078 0.91214 0.0
C1564 C 0.98555 0.40062 0.97739 0.0
C1565 C 0.97893 0.37268 0.93834 0.0
C1566 C 0.99034 0.42389 0.98862 0.0
C1567 C 0.98936 0.44269 0.97446 0.0
C1568 C 0.97968 0.3963 0.95191 0.0
C1569 C 0.9817 0.43751 0.94947 0.0
C1570 C 0.9746 0.36957 0.91271 0.0
C1571 C 0.98808 0.33376 0.93784 0.0
N1572 N 0.97742 0.41487 0.93898 0.0
N1573 N 0.98517 0.35455 0.95013 0.0
H1574 H 0.98115 0.75013 0.23506 0.0
H1575 H 0.84825 0.7688 0.1937 0.0
H1576 H 0.95986 0.77564 0.16695 0.0
H1577 H 0.86664 0.73968 0.26049 0.0
H1578 H 0.88918 0.77033 0.18351 0.0
H1579 H 0.93949 0.74527 0.2447 0.0
C1580 C 0.96775 0.75468 0.22212 0.0
C1581 C 0.97404 0.7634 0.2002 0.0
C1582 C 0.88433 0.76351 0.20038 0.0
C1583 C 0.92644 0.75785 0.21112 0.0
C1584 C 0.86092 0.76265 0.20623 0.0
C1585 C 0.85407 0.75422 0.22806 0.0
C1586 C 0.90117 0.756 0.2165 0.0
C1587 C 0.87122 0.74634 0.24349 0.0
C1588 C 0.94398 0.75186 0.22763 0.0
C1589 C 0.95591 0.76893 0.1841 0.0
N1590 N 0.89409 0.74755 0.23747 0.0
N1591 N 0.93299 0.76612 0.18992 0.0
H1592 H 0.46906 0.31551 0.11584 0.0
H1593 H 0.52567 0.39991 0.02192 0.0
H1594 H 0.51446 0.29221 0.06281 0.0
H1595 H 0.46988 0.41418 0.06697 0.0
H1596 H 0.52118 0.35975 0.03439 0.0
H1597 H 0.46829 0.35119 0.09611 0.0
C1598 C 0.47874 0.31786 0.09987 0.0
C1599 C 0.49196 0.301 0.09103 0.0
C1600 C 0.5098 0.37168 0.04128 0.0
C1601 C 0.49151 0.34212 0.06841 0.0
C1602 C 0.51236 0.39453 0.03418 0.0
C1603 C 0.49842 0.41049 0.04377 0.0
C1604 C 0.49321 0.36496 0.05799 0.0
C1605 C 0.48136 0.40265 0.05948 0.0
C1606 C 0.47829 0.33826 0.08854 0.0
C1607 C 0.50404 0.30485 0.07015 0.0
N1608 N 0.47939 0.38059 0.0662 0.0
N1609 N 0.50381 0.32523 0.05969 0.0
H1610 H 0.94376 0.26273 0.38838 0.0
H1611 H 0.83467 0.26348 0.2884 0.0
H1612 H 0.95344 0.27822 0.3144 0.0
H1613 H 0.82702 0.25202 0.3638 0.0
H1614 H 0.87814 0.27232 0.29801 0.0
H1615 H 0.90101 0.26166 0.38005 0.0
C1616 C 0.9369 0.26593 0.37033 0.0
C1617 C 0.95221 0.27033 0.35196 0.0
C1618 C 0.86691 0.2681 0.31248 0.0
C1619 C 0.90303 0.26913 0.34229 0.0
C1620 C 0.8421 0.26311 0.30703 0.0
C1621 C 0.82723 0.25672 0.32528 0.0
C1622 C 0.87684 0.26663 0.3363 0.0
C1623 C 0.8378 0.25662 0.3491 0.0
C1624 C 0.91243 0.26541 0.36562 0.0
C1625 C 0.94227 0.27463 0.32904 0.0
N1626 N 0.86196 0.26127 0.35386 0.0
N1627 N 0.91823 0.27373 0.32478 0.0
H1628 H 0.96838 0.64063 0.6303 0.0
H1629 H 0.98352 0.57845 0.49844 0.0
H1630 H 0.98682 0.67956 0.5696 0.0
H1631 H 0.97152 0.54273 0.56264 0.0
H1632 H 0.97634 0.61503 0.52108 0.0
H1633 H 0.96056 0.60427 0.60266 0.0
C1634 C 0.97052 0.64154 0.61105 0.0
C1635 C 0.97869 0.66308 0.60231 0.0
C1636 C 0.97486 0.59905 0.53001 0.0
C1637 C 0.97015 0.62138 0.57051 0.0
C1638 C 0.97883 0.5782 0.51708 0.0
C1639 C 0.97843 0.55772 0.52886 0.0
C1640 C 0.97031 0.59917 0.55472 0.0
C1641 C 0.97237 0.55827 0.55301 0.0
C1642 C 0.96605 0.62076 0.59524 0.0
C1643 C 0.98074 0.66326 0.57711 0.0
N1644 N 0.96877 0.57868 0.56518 0.0
N1645 N 0.97693 0.64263 0.56212 0.0
H1646 H 0.60628 0.73767 0.90359 0.0
H1647 H 0.67173 0.74181 0.78096 0.0
H1648 H 0.57118 0.74679 0.83366 0.0
H1649 H 0.70744 0.7412 0.85289 0.0
H1650 H 0.6331 0.73533 0.79819 0.0
H1651 H 0.64169 0.73106 0.8836 0.0
C1652 C 0.60597 0.73813 0.88398 0.0
C1653 C 0.58591 0.74316 0.87031 0.0
C1654 C 0.64939 0.73623 0.8101 0.0
C1655 C 0.62644 0.73565 0.84729 0.0
C1656 C 0.67141 0.73976 0.80026 0.0
C1657 C 0.69276 0.74238 0.81563 0.0
C1658 C 0.64885 0.73525 0.83542 0.0
C1659 C 0.69137 0.73965 0.84048 0.0
C1660 C 0.62619 0.73431 0.87256 0.0
C1661 C 0.58639 0.74322 0.84491 0.0
N1662 N 0.6698 0.73649 0.84965 0.0
N1663 N 0.60646 0.73979 0.83423 0.0
H1664 H 0.38934 0.52513 0.65572 0.0
H1665 H 0.51504 0.5425 0.59775 0.0
H1666 H 0.45744 0.53371 0.69908 0.0
H1667 H 0.44597 0.52571 0.55566 0.0
H1668 H 0.49479 0.54424 0.6354 0.0
H1669 H 0.41033 0.53007 0.61921 0.0
C1670 C 0.40873 0.52816 0.65758 0.0
C1671 C 0.42164 0.52882 0.68046 0.0
C1672 C 0.48412 0.54036 0.61789 0.0
C1673 C 0.44588 0.53446 0.63863 0.0
C1674 C 0.49566 0.53948 0.5964 0.0
C1675 C 0.48218 0.53374 0.57354 0.0
C1676 C 0.45896 0.53564 0.61641 0.0
C1677 C 0.45711 0.52994 0.57288 0.0
C1678 C 0.42073 0.53098 0.63671 0.0
C1679 C 0.44677 0.53295 0.68177 0.0
N1680 N 0.44636 0.53085 0.59395 0.0
N1681 N 0.45809 0.53549 0.66111 0.0
H1682 H 0.76216 0.21661 0.99084 0.0
H1683 H 0.81317 0.25972 0.86996 0.0
H1684 H 0.80963 0.17951 0.95108 0.0
H1685 H 0.73817 0.25425 0.88047 0.0
H1686 H 0.81987 0.24318 0.90871 0.0
H1687 H 0.76145 0.24324 0.9588 0.0
C1688 C 0.7729 0.21445 0.97568 0.0
C1689 C 0.78587 0.1958 0.97341 0.0
C1690 C 0.80209 0.24614 0.90271 0.0
C1691 C 0.78541 0.22627 0.93729 0.0
C1692 C 0.79825 0.25569 0.88077 0.0
C1693 C 0.77503 0.25819 0.87202 0.0
C1694 C 0.78271 0.23967 0.9162 0.0
C1695 C 0.75629 0.25244 0.88658 0.0
C1696 C 0.77236 0.22953 0.95746 0.0
C1697 C 0.79929 0.1936 0.95335 0.0
N1698 N 0.76052 0.24336 0.90802 0.0
N1699 N 0.79872 0.20869 0.93597 0.0
H1700 H 0.05654 0.44214 0.19314 0.0
H1701 H 0.06233 0.50939 0.07714 0.0
H1702 H 0.11957 0.45422 0.1543 0.0
H1703 H -0.00547 0.472 0.094 0.0
H1704 H 0.08288 0.48946 0.10667 0.0
H1705 H 0.03251 0.45097 0.15746 0.0
C1706 C 0.06522 0.44602 0.17687 0.0
C1707 C 0.09019 0.44801 0.17687 0.0
C1708 C 0.06352 0.48541 0.10386 0.0
C1709 C 0.06292 0.45848 0.13637 0.0
C1710 C 0.05166 0.497 0.08713 0.0
C1711 C 0.02657 0.49236 0.08302 0.0
C1712 C 0.05032 0.4693 0.11712 0.0
C1713 C 0.01388 0.47609 0.09662 0.0
C1714 C 0.05149 0.45111 0.15657 0.0
C1715 C 0.10046 0.45285 0.15527 0.0
N1716 N 0.02592 0.46523 0.11331 0.0
N1717 N 0.08685 0.45844 0.13607 0.0
H1718 H 0.75826 0.83147 0.46695 0.0
H1719 H 0.78363 0.85069 0.32922 0.0
H1720 H 0.76713 0.89867 0.43777 0.0
H1721 H 0.76763 0.78182 0.3539 0.0
H1722 H 0.7851 0.86855 0.37127 0.0
H1723 H 0.76785 0.81302 0.42785 0.0
C1724 C 0.76235 0.84236 0.45242 0.0
C1725 C 0.76158 0.86662 0.45556 0.0
C1726 C 0.78158 0.84951 0.36762 0.0
C1727 C 0.77276 0.8457 0.41098 0.0
C1728 C 0.78088 0.83931 0.3436 0.0
C1729 C 0.77525 0.81478 0.33806 0.0
C1730 C 0.77632 0.8351 0.38625 0.0
C1731 C 0.77201 0.80084 0.35741 0.0
C1732 C 0.76786 0.83183 0.43014 0.0
C1733 C 0.76717 0.87988 0.43614 0.0
N1734 N 0.77219 0.81123 0.38066 0.0
N1735 N 0.77241 0.86924 0.41472 0.0
H1736 H 0.39573 0.51028 0.82759 0.0
H1737 H 0.48776 0.48945 0.93738 0.0
H1738 H 0.46096 0.48317 0.81648 0.0
H1739 H 0.41993 0.51167 0.9474 0.0
H1740 H 0.47737 0.48472 0.8931 0.0
H1741 H 0.40372 0.50931 0.87151 0.0
C1742 C 0.41176 0.50412 0.83437 0.0
C1743 C 0.42777 0.49692 0.81827 0.0
C1744 C 0.46466 0.49041 0.905 0.0
C1745 C 0.43701 0.49571 0.86872 0.0
C1746 C 0.47054 0.49302 0.9303 0.0
C1747 C 0.45476 0.50115 0.94614 0.0
C1748 C 0.44291 0.49605 0.89547 0.0
C1749 C 0.43271 0.50549 0.93591 0.0
C1750 C 0.41627 0.50349 0.85949 0.0
C1751 C 0.44816 0.48898 0.82818 0.0
N1752 N 0.42754 0.5031 0.91124 0.0
N1753 N 0.45225 0.48869 0.85278 0.0
H1754 H 0.79592 0.19095 0.09447 0.0
H1755 H 0.76135 0.18891 0.23172 0.0
H1756 H 0.76331 0.12897 0.12505 0.0
H1757 H 0.78611 0.25339 0.20117 0.0
H1758 H 0.76837 0.1664 0.1944 0.0
H1759 H 0.79879 0.21353 0.13482 0.0
C1760 C 0.7897 0.182 0.10972 0.0
C1761 C 0.77908 0.15808 0.10632 0.0
C1762 C 0.77239 0.18546 0.19577 0.0
C1763 C 0.78227 0.18382 0.15238 0.0
C1764 C 0.76829 0.19837 0.2171 0.0
C1765 C 0.77271 0.22308 0.21937 0.0
C1766 C 0.78082 0.19728 0.17631 0.0
C1767 C 0.78229 0.23434 0.20005 0.0
C1768 C 0.79127 0.19494 0.13271 0.0
C1769 C 0.77136 0.14741 0.12673 0.0
N1770 N 0.78577 0.22133 0.17912 0.0
N1771 N 0.77296 0.16039 0.1488 0.0
H1772 H 0.05272 0.51558 0.29415 0.0
H1773 H 0.08849 0.51565 0.43693 0.0
H1774 H 0.11775 0.49493 0.32417 0.0
H1775 H 0.02192 0.53334 0.4072 0.0
H1776 H 0.10175 0.51305 0.39601 0.0
H1777 H 0.04319 0.52647 0.33554 0.0
C1778 C 0.06504 0.51336 0.30943 0.0
C1779 C 0.08598 0.50409 0.30566 0.0
C1780 C 0.08434 0.51772 0.39843 0.0
C1781 C 0.07515 0.51664 0.35313 0.0
C1782 C 0.07676 0.51927 0.42181 0.0
C1783 C 0.05392 0.5244 0.42539 0.0
C1784 C 0.06892 0.52121 0.37846 0.0
C1785 C 0.0396 0.52917 0.40521 0.0
C1786 C 0.05959 0.51966 0.33307 0.0
C1787 C 0.10133 0.50182 0.32619 0.0
N1788 N 0.04724 0.52719 0.38251 0.0
N1789 N 0.09553 0.50794 0.34905 0.0
H1790 H 0.73901 0.80262 0.57346 0.0
H1791 H 0.73071 0.80272 0.71768 0.0
H1792 H 0.73777 0.86421 0.62384 0.0
H1793 H 0.74546 0.74233 0.67283 0.0
H1794 H 0.72757 0.82333 0.6816 0.0
H1795 H 0.73676 0.77852 0.60788 0.0
C1796 C 0.73821 0.81105 0.5917 0.0
C1797 C 0.73869 0.8355 0.5958 0.0
C1798 C 0.7314 0.80554 0.6795 0.0
C1799 C 0.7359 0.80808 0.63504 0.0
C1800 C 0.73314 0.79368 0.70015 0.0
C1801 C 0.73868 0.77083 0.69837 0.0
C1802 C 0.73529 0.79463 0.65669 0.0
C1803 C 0.74125 0.75996 0.67505 0.0
C1804 C 0.73693 0.7973 0.6113 0.0
C1805 C 0.73758 0.84549 0.61978 0.0
N1806 N 0.73977 0.77207 0.65508 0.0
N1807 N 0.73623 0.83177 0.6384 0.0
H1808 H 0.71681 0.46438 0.53775 0.0
H1809 H 0.62803 0.53303 0.52793 0.0
H1810 H 0.658 0.40925 0.54595 0.0
H1811 H 0.5874 0.48321 0.56879 0.0
H1812 H 0.66076 0.51068 0.53035 0.0
H1813 H 0.69111 0.49361 0.54561 0.0
C1814 C 0.69845 0.45842 0.54118 0.0
C1815 C 0.68938 0.4343 0.54074 0.0
C1816 C 0.64505 0.505 0.53949 0.0
C1817 C 0.65966 0.46767 0.54919 0.0
C1818 C 0.62624 0.51776 0.538 0.0
C1819 C 0.60482 0.50987 0.54792 0.0
C1820 C 0.64235 0.48415 0.55094 0.0
C1821 C 0.60351 0.48988 0.56069 0.0
C1822 C 0.68372 0.47514 0.54548 0.0
C1823 C 0.66562 0.42763 0.54578 0.0
N1824 N 0.62183 0.47747 0.56142 0.0
N1825 N 0.65152 0.44424 0.54965 0.0
H1826 H 0.1518 0.11774 0.47506 0.0
H1827 H 0.07098 0.99347 0.48781 0.0
H1828 H 0.18074 0.05342 0.47822 0.0
H1829 H 0.04858 0.06113 0.49981 0.0
H1830 H 0.10922 0.01339 0.4758 0.0
H1831 H 0.11166 0.09528 0.47506 0.0
C1832 C 0.14968 0.09883 0.47549 0.0
C1833 C 0.16964 0.08748 0.47706 0.0
C1834 C 0.09576 0.02376 0.48081 0.0
C1835 C 0.12373 0.06165 0.47727 0.0
C1836 C 0.07398 0.01242 0.48757 0.0
C1837 C 0.0568 0.02574 0.4951 0.0
C1838 C 0.10008 0.04846 0.48135 0.0
C1839 C 0.0615 0.05023 0.49449 0.0
C1840 C 0.12676 0.08601 0.47553 0.0
C1841 C 0.16581 0.06289 0.47725 0.0
N1842 N 0.08269 0.06078 0.48787 0.0
N1843 N 0.14328 0.05079 0.47768 0.0
H1844 H 0.21155 0.9668 0.77583 0.0
H1845 H 0.18622 0.82591 0.76905 0.0
H1846 H 0.14394 0.92472 0.78617 0.0
H1847 H 0.25514 0.86464 0.75743 0.0
H1848 H 0.17098 0.8626 0.77465 0.0
H1849 H 0.22855 0.93048 0.76919 0.0
C1850 C 0.20035 0.94998 0.77689 0.0
C1851 C 0.17628 0.94881 0.78159 0.0
C1852 C 0.18943 0.86324 0.77081 0.0
C1853 C 0.1955 0.90731 0.7738 0.0
C1854 C 0.19819 0.84219 0.76755 0.0
C1855 C 0.22207 0.84215 0.76284 0.0
C1856 C 0.20459 0.88469 0.76948 0.0
C1857 C 0.2366 0.86387 0.76097 0.0
C1858 C 0.21003 0.92927 0.77299 0.0
C1859 C 0.16256 0.92654 0.78261 0.0
N1860 N 0.22766 0.88434 0.76443 0.0
N1861 N 0.17235 0.90678 0.77872 0.0
H1862 H 0.31686 0.8848 0.98635 0.0
H1863 H 0.42787 0.98485 0.98397 0.0
H1864 H 0.30912 0.95575 0.97348 0.0
H1865 H 0.43236 0.91073 0.97822 0.0
H1866 H 0.3845 0.97457 0.97477 0.0
H1867 H 0.35894 0.89369 0.97942 0.0
C1868 C 0.32402 0.90226 0.98197 0.0
C1869 C 0.30956 0.91968 0.98086 0.0
C1870 C 0.39503 0.96057 0.97497 0.0
C1871 C 0.35787 0.93004 0.97293 0.0
C1872 C 0.41985 0.96642 0.98011 0.0
C1873 C 0.43373 0.9486 0.98252 0.0
C1874 C 0.38409 0.93678 0.97245 0.0
C1875 C 0.42235 0.92506 0.97707 0.0
C1876 C 0.34804 0.90728 0.97781 0.0
C1877 C 0.31971 0.94187 0.97471 0.0
N1878 N 0.39814 0.91983 0.97283 0.0
N1879 N 0.34337 0.94655 0.97135 0.0
H1880 H 0.87301 0.58887 0.79701 0.0
H1881 H 0.77536 0.64965 0.72559 0.0
H1882 H 0.82119 0.54988 0.74015 0.0
H1883 H 0.82905 0.68464 0.78296 0.0
H1884 H 0.78972 0.61229 0.731 0.0
H1885 H 0.8543 0.62337 0.79338 0.0
C1886 C 0.8575 0.58754 0.78387 0.0
C1887 C 0.84873 0.56656 0.76876 0.0
C1888 C 0.79824 0.62822 0.74236 0.0
C1889 C 0.8273 0.60629 0.76409 0.0
C1890 C 0.79014 0.6495 0.7392 0.0
C1891 C 0.80108 0.67032 0.75374 0.0
C1892 C 0.8173 0.62793 0.76019 0.0
C1893 C 0.82005 0.66914 0.77122 0.0
C1894 C 0.84681 0.6073 0.78172 0.0
C1895 C 0.82846 0.56578 0.75217 0.0
N1896 N 0.82749 0.6484 0.7739 0.0
N1897 N 0.81853 0.5855 0.75006 0.0
H1898 H 0.82132 0.61163 0.99447 0.0
H1899 H 0.90202 0.52359 0.0488 0.0
H1900 H 0.79289 0.55357 0.03331 0.0
H1901 H 0.92882 0.58315 0.01127 0.0
H1902 H 0.86196 0.5343 0.04426 0.0
H1903 H 0.86098 0.60127 0.00105 0.0
C1904 C 0.82339 0.59667 0.00436 0.0
C1905 C 0.8037 0.58345 0.01331 0.0
C1906 C 0.87668 0.54503 0.03712 0.0
C1907 C 0.84922 0.57146 0.02099 0.0
C1908 C 0.89952 0.53895 0.03975 0.0
C1909 C 0.91876 0.55243 0.03033 0.0
C1910 C 0.87317 0.56469 0.02498 0.0
C1911 C 0.91453 0.57215 0.01874 0.0
C1912 C 0.84609 0.59077 0.00817 0.0
C1913 C 0.80755 0.56427 0.02606 0.0
N1914 N 0.89223 0.57761 0.01635 0.0
N1915 N 0.82987 0.55883 0.0295 0.0
H1916 H 0.14282 0.11181 0.80605 0.0
H1917 H 0.27165 0.18596 0.79259 0.0
H1918 H 0.20467 0.07887 0.79545 0.0
H1919 H 0.20668 0.21489 0.79804 0.0
H1920 H 0.24969 0.14731 0.79981 0.0
H1921 H 0.1682 0.15026 0.80983 0.0
C1922 C 0.16184 0.11267 0.80471 0.0
C1923 C 0.17158 0.0921 0.80009 0.0
C1924 C 0.24039 0.16223 0.79971 0.0
C1925 C 0.2009 0.13633 0.80407 0.0
C1926 C 0.25291 0.18427 0.79569 0.0
C1927 C 0.24087 0.20355 0.79441 0.0
C1928 C 0.21579 0.15967 0.80265 0.0
C1929 C 0.2166 0.20042 0.7985 0.0
C1930 C 0.17638 0.13469 0.80687 0.0
C1931 C 0.19643 0.09432 0.79891 0.0
N1932 N 0.20489 0.17894 0.80228 0.0
N1933 N 0.21023 0.1161 0.80052 0.0
H1934 H 0.39576 0.92052 0.28634 0.0
H1935 H 0.27925 0.8227 0.28123 0.0
H1936 H 0.32433 0.93685 0.28619 0.0
H1937 H 0.35131 0.80811 0.28107 0.0
H1938 H 0.2955 0.86476 0.29064 0.0
H1939 H 0.38001 0.8799 0.29193 0.0
C1940 C 0.37675 0.9156 0.28773 0.0
C1941 C 0.36127 0.93201 0.28537 0.0
C1942 C 0.30775 0.85231 0.28895 0.0
C1943 C 0.34301 0.88531 0.29153 0.0
C1944 C 0.29849 0.82828 0.28369 0.0
C1945 C 0.31397 0.81193 0.27996 0.0
C1946 C 0.33262 0.85995 0.29047 0.0
C1947 C 0.33872 0.82013 0.2834 0.0
C1948 C 0.36775 0.89237 0.29096 0.0
C1949 C 0.33687 0.92471 0.28772 0.0
N1950 N 0.34725 0.84357 0.28816 0.0
N1951 N 0.3284 0.90177 0.29027 0.0
H1952 H 0.52286 0.33295 0.57516 0.0
H1953 H 0.48943 0.46114 0.5947 0.0
H1954 H 0.49156 0.35981 0.63849 0.0
H1955 H 0.51407 0.43348 0.52769 0.0
H1956 H 0.48465 0.42191 0.60824 0.0
H1957 H 0.51486 0.36715 0.55486 0.0
C1958 C 0.51399 0.34584 0.58465 0.0
C1959 C 0.50819 0.34371 0.6087 0.0
C1960 C 0.49077 0.42425 0.5904 0.0
C1961 C 0.49911 0.38287 0.58567 0.0
C1962 C 0.49346 0.44666 0.58266 0.0
C1963 C 0.50242 0.45057 0.56019 0.0
C1964 C 0.49752 0.40562 0.57578 0.0
C1965 C 0.50716 0.43119 0.54519 0.0
C1966 C 0.50943 0.36536 0.57305 0.0
C1967 C 0.49664 0.36087 0.62007 0.0
N1968 N 0.50508 0.40958 0.55346 0.0
N1969 N 0.49273 0.37982 0.60858 0.0
H1970 H 0.42838 0.73321 0.36538 0.0
H1971 H 0.33293 0.72059 0.24844 0.0
H1972 H 0.4465 0.7495 0.29366 0.0
H1973 H 0.3152 0.72658 0.32321 0.0
H1974 H 0.37454 0.72009 0.26339 0.0
H1975 H 0.38682 0.71958 0.34841 0.0
C1976 C 0.42371 0.73357 0.34601 0.0
C1977 C 0.4408 0.74292 0.33099 0.0
C1978 C 0.36141 0.72114 0.27645 0.0
C1979 C 0.39346 0.72735 0.31155 0.0
C1980 C 0.33768 0.72135 0.26795 0.0
C1981 C 0.32069 0.72399 0.28464 0.0
C1982 C 0.36804 0.72337 0.30175 0.0
C1983 C 0.32779 0.72484 0.30971 0.0
C1984 C 0.40001 0.72585 0.33637 0.0
C1985 C 0.43379 0.74283 0.30598 0.0
N1986 N 0.35099 0.72474 0.31753 0.0
N1987 N 0.41059 0.73539 0.29708 0.0
H1988 H 0.05931 0.69181 0.16303 0.0
H1989 H 0.01147 0.60041 0.04462 0.0
H1990 H 0.02835 0.71283 0.09623 0.0
H1991 H 0.02115 0.58082 0.11786 0.0
H1992 H 0.02527 0.64184 0.06076 0.0
H1993 H 0.0533 0.65135 0.14391 0.0
C1994 C 0.05142 0.68801 0.14424 0.0
C1995 C 0.04404 0.7058 0.13134 0.0
C1996 C 0.02456 0.62841 0.07321 0.0
C1997 C 0.0371 0.65926 0.10933 0.0
C1998 C 0.01683 0.60478 0.06403 0.0
C1999 C 0.01502 0.58719 0.07999 0.0
C2000 C 0.03081 0.63437 0.09844 0.0
C2001 C 0.02208 0.59384 0.10495 0.0
C2002 C 0.04795 0.66483 0.13337 0.0
C2003 C 0.03413 0.69969 0.10695 0.0
N2004 N 0.02961 0.61689 0.11341 0.0
N2005 N 0.0308 0.67686 0.09676 0.0
H2006 H 0.09397 0.27504 0.90196 0.0
H2007 H 0.17034 0.28838 0.78676 0.0
H2008 H 0.06272 0.27201 0.82752 0.0
H2009 H 0.19892 0.2733 0.85732 0.0
H2010 H 0.13192 0.29051 0.80327 0.0
H2011 H 0.13387 0.28231 0.88751 0.0
C2012 C 0.09553 0.2761 0.88264 0.0
C2013 C 0.0751 0.27263 0.86586 0.0
C2014 C 0.1467 0.28693 0.81515 0.0
C2015 C 0.12042 0.281 0.84928 0.0
C2016 C 0.1686 0.28578 0.80577 0.0
C2017 C 0.18765 0.28031 0.82061 0.0
C2018 C 0.14401 0.28274 0.83955 0.0
C2019 C 0.18453 0.2772 0.84514 0.0
C2020 C 0.11824 0.28021 0.8744 0.0
C2021 C 0.07804 0.27428 0.84103 0.0
N2022 N 0.16306 0.27832 0.85381 0.0
N2023 N 0.1003 0.27825 0.83347 0.0
H2024 H 0.47975 0.67916 0.90563 0.0
H2025 H 0.49374 0.60496 0.01944 0.0
H2026 H 0.51214 0.71118 0.97698 0.0
H2027 H 0.4884 0.57626 0.94367 0.0
H2028 H 0.49044 0.64387 0.00619 0.0
H2029 H 0.472 0.64118 0.92186 0.0
C2030 C 0.48491 0.67828 0.92481 0.0
C2031 C 0.49698 0.69827 0.93989 0.0
C2032 C 0.48975 0.62893 0.99255 0.0
C2033 C 0.48823 0.65485 0.95851 0.0
C2034 C 0.49157 0.60681 7e-05 0.0
C2035 C 0.49167 0.58756 0.98258 0.0
C2036 C 0.48756 0.63151 0.96744 0.0
C2037 C 0.48879 0.59077 0.95773 0.0
C2038 C 0.48055 0.65658 0.93403 0.0
C2039 C 0.50305 0.69612 0.96466 0.0
N2040 N 0.4869 0.61233 0.9509 0.0
N2041 N 0.49884 0.67468 0.97318 0.0
H2042 H 0.07189 0.73708 0.70336 0.0
H2043 H 0.2081 0.75058 0.67528 0.0
H2044 H 0.094 0.73168 0.63025 0.0
H2045 H 0.18527 0.74643 0.74777 0.0
H2046 H 0.16638 0.73989 0.65815 0.0
H2047 H 0.1131 0.73732 0.71979 0.0
C2048 C 0.08541 0.73582 0.69075 0.0
C2049 C 0.07959 0.73463 0.66542 0.0
C2050 C 0.1705 0.741 0.67778 0.0
C2051 C 0.12679 0.73494 0.68408 0.0
C2052 C 0.19433 0.74707 0.68758 0.0
C2053 C 0.20013 0.74971 0.713 0.0
C2054 C 0.15233 0.73779 0.69356 0.0
C2055 C 0.1816 0.74476 0.72805 0.0
C2056 C 0.10892 0.73586 0.70014 0.0
C2057 C 0.09775 0.7328 0.64992 0.0
N2058 N 0.15849 0.73937 0.71812 0.0
N2059 N 0.1206 0.73325 0.65952 0.0
H2060 H 0.05176 0.35647 0.39106 0.0
H2061 H 0.03158 0.43313 0.51359 0.0
H2062 H 0.03319 0.32561 0.45674 0.0
H2063 H 0.02518 0.45624 0.44159 0.0
H2064 H 0.04114 0.39581 0.49535 0.0
H2065 H 0.05157 0.39542 0.41215 0.0
C2066 C 0.04794 0.35786 0.41002 0.0
C2067 C 0.04212 0.33766 0.42203 0.0
C2068 C 0.03781 0.40916 0.48363 0.0
C2069 C 0.04186 0.38229 0.44621 0.0
C2070 C 0.03245 0.43044 0.494 0.0
C2071 C 0.02736 0.44763 0.479 0.0
C2072 C 0.03841 0.40529 0.4582 0.0
C2073 C 0.02869 0.4433 0.45375 0.0
C2074 C 0.04775 0.38013 0.42199 0.0
C2075 C 0.03751 0.34067 0.44668 0.0
N2076 N 0.03405 0.42252 0.44413 0.0
N2077 N 0.03729 0.36259 0.45793 0.0
H2078 H 0.42531 0.25147 0.15508 0.0
H2079 H 0.34063 0.2439 0.26423 0.0
H2080 H 0.44653 0.23102 0.22579 0.0
H2081 H 0.3154 0.24768 0.18902 0.0
H2082 H 0.38146 0.24609 0.25231 0.0
H2083 H 0.38666 0.2567 0.16914 0.0
C2084 C 0.4219 0.24818 0.17359 0.0
C2085 C 0.43911 0.24057 0.1892 0.0
C2086 C 0.36698 0.24663 0.23848 0.0
C2087 C 0.39497 0.24663 0.20542 0.0
C2088 C 0.34373 0.24551 0.24529 0.0
C2089 C 0.32462 0.24536 0.22752 0.0
C2090 C 0.37107 0.24779 0.2138 0.0
C2091 C 0.3296 0.24746 0.20325 0.0
C2092 C 0.39983 0.25116 0.1816 0.0
C2093 C 0.43372 0.23668 0.21305 0.0
N2094 N 0.35233 0.24847 0.19708 0.0
N2095 N 0.41208 0.23969 0.22041 0.0
H2096 H 0.6239 0.49977 0.36445 0.0
H2097 H 0.5031 0.48906 0.43134 0.0
H2098 H 0.55393 0.50077 0.32842 0.0
H2099 H 0.57338 0.50947 0.47055 0.0
H2100 H 0.52169 0.4851 0.3931 0.0
H2101 H 0.60573 0.49531 0.40315 0.0
C2102 C 0.60473 0.4987 0.36461 0.0
C2103 C 0.59043 0.50089 0.34328 0.0
C2104 C 0.53306 0.49028 0.4101 0.0
C2105 C 0.56962 0.49569 0.38719 0.0
C2106 C 0.52245 0.49248 0.43197 0.0
C2107 C 0.53667 0.49988 0.45419 0.0
C2108 C 0.5581 0.49536 0.41039 0.0
C2109 C 0.5617 0.50397 0.45381 0.0
C2110 C 0.5944 0.49629 0.38667 0.0
C2111 C 0.56568 0.49946 0.34449 0.0
N2112 N 0.57162 0.50178 0.43224 0.0
N2113 N 0.5561 0.49702 0.36604 0.0
H2114 H 0.25289 0.80567 0.05828 0.0
H2115 H 0.28819 0.82606 0.20072 0.0
H2116 H 0.28835 0.87256 0.09608 0.0
H2117 H 0.27478 0.75646 0.16116 0.0
H2118 H 0.29006 0.84309 0.16206 0.0
H2119 H 0.26231 0.78671 0.09483 0.0
C2120 C 0.26292 0.81631 0.07415 0.0
C2121 C 0.26956 0.84079 0.07428 0.0
C2122 C 0.28705 0.82408 0.16175 0.0
C2123 C 0.28021 0.81927 0.11609 0.0
C2124 C 0.28591 0.81437 0.18381 0.0
C2125 C 0.28112 0.78986 0.18402 0.0
C2126 C 0.28282 0.8092 0.13965 0.0
C2127 C 0.27851 0.77547 0.16169 0.0
C2128 C 0.26834 0.80546 0.09496 0.0
C2129 C 0.28267 0.85369 0.09525 0.0
N2130 N 0.27896 0.78537 0.14028 0.0
N2131 N 0.28726 0.84283 0.11542 0.0
H2132 H 0.98614 0.52339 0.83166 0.0
H2133 H 0.9513 0.5307 0.96814 0.0
H2134 H 0.91461 0.52764 0.85055 0.0
H2135 H 0.02388 0.53445 0.949 0.0
H2136 H 0.93813 0.53417 0.92568 0.0
H2137 H 0.00089 0.53204 0.87474 0.0
C2138 C 0.97354 0.52633 0.84488 0.0
C2139 C 0.94903 0.5244 0.83758 0.0
C2140 C 0.95697 0.53452 0.93081 0.0
C2141 C 0.96581 0.53418 0.887 0.0
C2142 C 0.96451 0.53246 0.95503 0.0
C2143 C 0.98867 0.53186 0.962 0.0
C2144 C 0.97369 0.53576 0.91339 0.0
C2145 C 0.00505 0.5346 0.94437 0.0
C2146 C 0.982 0.53136 0.8695 0.0
C2147 C 0.93361 0.52877 0.85544 0.0
N2148 N -0.00281 0.53611 0.92079 0.0
N2149 N 0.94222 0.53312 0.87943 0.0
H2150 H 0.24629 0.18246 0.5692 0.0
H2151 H 0.24244 0.17079 0.71127 0.0
H2152 H 0.21523 0.11897 0.59825 0.0
H2153 H 0.25925 0.23796 0.6831 0.0
H2154 H 0.23041 0.15207 0.66964 0.0
H2155 H 0.24949 0.20379 0.61023 0.0
C2156 C 0.23995 0.17305 0.58411 0.0
C2157 C 0.23074 0.1488 0.58028 0.0
C2158 C 0.23643 0.17096 0.67252 0.0
C2159 C 0.23443 0.17307 0.62722 0.0
C2160 C 0.24332 0.18164 0.6963 0.0
C2161 C 0.25201 0.20591 0.70059 0.0
C2162 C 0.23862 0.18456 0.65278 0.0
C2163 C 0.25263 0.21917 0.68056 0.0
C2164 C 0.24173 0.18525 0.60752 0.0
C2165 C 0.22267 0.13758 0.60029 0.0
N2166 N 0.24637 0.20826 0.65743 0.0
N2167 N 0.22493 0.14974 0.62288 0.0
H2168 H 0.57815 0.49672 0.21499 0.0
H2169 H 0.59663 0.49593 0.07329 0.0
H2170 H 0.6479 0.50963 0.18837 0.0
H2171 H 0.52855 0.49868 0.10192 0.0
H2172 H 0.61588 0.50097 0.11511 0.0
H2173 H 0.5597 0.49685 0.17353 0.0
C2174 C 0.5896 0.49959 0.2004 0.0
C2175 C 0.61461 0.50307 0.2051 0.0
C2176 C 0.59677 0.5007 0.11225 0.0
C2177 C 0.59357 0.50324 0.15755 0.0
C2178 C 0.58576 0.49781 0.08838 0.0
C2179 C 0.56092 0.49673 0.08412 0.0
C2180 C 0.58281 0.50225 0.13202 0.0
C2181 C 0.54775 0.49939 0.10436 0.0
C2182 C 0.57904 0.49978 0.17674 0.0
C2183 C 0.62855 0.50684 0.18552 0.0
N2184 N 0.55883 0.50178 0.12744 0.0
N2185 N 0.61783 0.50667 0.16255 0.0
H2186 H 0.20104 0.86756 0.91255 0.0
H2187 H 0.23526 0.74984 0.84715 0.0
H2188 H 0.22462 0.8137 0.95292 0.0
H2189 H 0.23906 0.81609 0.81644 0.0
H2190 H 0.21957 0.76772 0.8835 0.0
H2191 H 0.2018 0.84258 0.87451 0.0
C2192 C 0.20591 0.8503 0.91349 0.0
C2193 C 0.21337 0.84298 0.93595 0.0
C2194 C 0.2235 0.7781 0.86853 0.0
C2195 C 0.2144 0.81441 0.89244 0.0
C2196 C 0.23241 0.76795 0.84787 0.0
C2197 C 0.23865 0.78159 0.82891 0.0
C2198 C 0.22045 0.8018 0.86984 0.0
C2199 C 0.23466 0.80497 0.83069 0.0
C2200 C 0.20642 0.83609 0.89175 0.0
C2201 C 0.21917 0.82025 0.93598 0.0
N2202 N 0.22588 0.81433 0.8508 0.0
N2203 N 0.21995 0.80688 0.91449 0.0
H2204 H 0.89741 0.48567 0.6763 0.0
H2205 H 0.02168 0.51633 0.61953 0.0
H2206 H 0.95991 0.52961 0.71596 0.0
H2207 H 0.96374 0.46196 0.58641 0.0
H2208 H 0.0 0.52067 0.6557 0.0
H2209 H 0.92145 0.47721 0.64275 0.0
C2210 C 0.91613 0.49367 0.67785 0.0
C2211 C 0.92672 0.50837 0.69886 0.0
C2212 C 0.99219 0.50758 0.64063 0.0
C2213 C 0.95431 0.49861 0.66084 0.0
C2214 C 0.00463 0.50499 0.62004 0.0
C2215 C -0.00566 0.48903 0.5998 0.0
C2216 C 0.96927 0.49422 0.6408 0.0
C2217 C 0.97223 0.47471 0.6015 0.0
C2218 C 0.9299 0.48867 0.65883 0.0
C2219 C 0.95107 0.51817 0.70004 0.0
N2220 N 0.96027 0.4779 0.62151 0.0
N2221 N 0.96405 0.51314 0.68126 0.0
H2222 H 0.2614 0.20528 0.45984 0.0
H2223 H 0.25448 0.19557 0.31665 0.0
H2224 H 0.26865 0.14168 0.41536 0.0
H2225 H 0.28561 0.26188 0.35858 0.0
H2226 H 0.25633 0.17621 0.35363 0.0
H2227 H 0.26778 0.22735 0.42426 0.0
C2228 C 0.26461 0.19602 0.44273 0.0
C2229 C 0.26424 0.17155 0.44048 0.0
C2230 C 0.26303 0.19495 0.35479 0.0
C2231 C 0.27122 0.19654 0.39995 0.0
C2232 C 0.26201 0.20608 0.33362 0.0
C2233 C 0.27023 0.23038 0.3344 0.0
C2234 C 0.27171 0.20822 0.37723 0.0
C2235 C 0.27933 0.24306 0.35714 0.0
C2236 C 0.26831 0.20863 0.42252 0.0
C2237 C 0.2686 0.16047 0.41793 0.0
N2238 N 0.27955 0.23186 0.37781 0.0
N2239 N 0.27155 0.17297 0.39849 0.0
H2240 H 0.31593 0.5414 0.53841 0.0
H2241 H 0.41746 0.56052 0.44767 0.0
H2242 H 0.32328 0.59759 0.4919 0.0
H2243 H 0.40763 0.503 0.49236 0.0
H2244 H 0.37926 0.57065 0.45841 0.0
H2245 H 0.34608 0.52407 0.51745 0.0
C2246 C 0.32382 0.55008 0.52372 0.0
C2247 C 0.31729 0.57119 0.51716 0.0
C2248 C 0.38527 0.55556 0.46553 0.0
C2249 C 0.35192 0.55137 0.49299 0.0
C2250 C 0.40704 0.54967 0.45928 0.0
C2251 C 0.41603 0.53118 0.46954 0.0
C2252 C 0.37249 0.54293 0.48221 0.0
C2253 C 0.40162 0.51766 0.48433 0.0
C2254 C 0.34099 0.54009 0.51166 0.0
C2255 C 0.32792 0.58142 0.49774 0.0
N2256 N 0.38078 0.52405 0.49055 0.0
N2257 N 0.34491 0.57155 0.48652 0.0
H2258 H 0.82666 0.9037 0.55389 0.0
H2259 H 0.92963 0.0161 0.55697 0.0
H2260 H 0.81361 0.9751 0.55291 0.0
H2261 H 0.93903 0.94446 0.53646 0.0
H2262 H 0.889 0.00131 0.56649 0.0
H2263 H 0.86979 0.91869 0.55901 0.0
C2264 C 0.83284 0.92255 0.55534 0.0
C2265 C 0.81659 0.93817 0.55255 0.0
C2266 C 0.90008 0.98884 0.56017 0.0
C2267 C 0.8657 0.95533 0.55825 0.0
C2268 C 0.92326 -0.00275 0.55475 0.0
C2269 C 0.93755 0.9815 0.54551 0.0
C2270 C 0.89125 0.96452 0.55647 0.0
C2271 C 0.92844 0.95725 0.54314 0.0
C2272 C 0.85743 0.93107 0.55809 0.0
C2273 C 0.82557 0.96242 0.55456 0.0
N2274 N 0.90579 0.94951 0.5484 0.0
N2275 N 0.84954 0.97025 0.55702 0.0
H2276 H 0.79913 0.04718 0.24132 0.0
H2277 H 0.78993 0.17083 0.31568 0.0
H2278 H 0.85617 0.08844 0.29133 0.0
H2279 H 0.73763 0.1358 0.25711 0.0
H2280 H 0.8113 0.13752 0.3116 0.0
H2281 H 0.77373 0.07653 0.25102 0.0
C2282 C 0.80628 0.06234 0.25444 0.0
C2283 C 0.82989 0.06545 0.26539 0.0
C2284 C 0.79501 0.137 0.29981 0.0
C2285 C 0.80086 0.09904 0.27665 0.0
C2286 C 0.78269 0.15598 0.30222 0.0
C2287 C 0.76203 0.15626 0.28656 0.0
C2288 C 0.78665 0.1181 0.28162 0.0
C2289 C 0.75354 0.13644 0.2695 0.0
C2290 C 0.79176 0.07909 0.25996 0.0
C2291 C 0.83815 0.0854 0.28231 0.0
N2292 N 0.76599 0.11826 0.26734 0.0
N2293 N 0.8237 0.10145 0.28735 0.0
H2294 H 0.69476 0.10239 0.97174 0.0
H2295 H 0.57993 0.06141 0.0334 0.0
H2296 H 0.68509 0.13736 0.042 0.0
H2297 H 0.5748 0.06876 0.95612 0.0
H2298 H 0.61979 0.08604 0.03803 0.0
H2299 H 0.6518 0.08645 0.96594 0.0
C2300 C 0.68349 0.10688 0.9858 0.0
C2301 C 0.6933 0.12111 0.00736 0.0
C2302 C 0.60973 0.08249 0.02016 0.0
C2303 C 0.64465 0.10262 0.00115 0.0
C2304 C 0.58715 0.06838 0.01748 0.0
C2305 C 0.57425 0.06304 0.99434 0.0
C2306 C 0.61961 0.09063 -0.00058 0.0
C2307 C 0.58424 0.07255 0.97428 0.0
C2308 C 0.65907 0.0979 0.98245 0.0
C2309 C 0.67807 0.12649 0.02508 0.0
N2310 N 0.6066 0.08556 0.97719 0.0
N2311 N 0.65446 0.11682 0.02181 0.0
H2312 H 0.16016 0.41511 0.29674 0.0
H2313 H 0.24195 0.34475 0.3284 0.0
H2314 H 0.21449 0.45164 0.25719 0.0
H2315 H 0.27658 0.36869 0.26631 0.0
H2316 H 0.2192 0.37699 0.32784 0.0
H2317 H 0.18802 0.38996 0.30977 0.0
C2318 C 0.17814 0.41811 0.29116 0.0
C2319 C 0.18494 0.4354 0.27572 0.0
C2320 C 0.23164 0.3752 0.31423 0.0
C2321 C 0.21738 0.40689 0.29104 0.0
C2322 C 0.24495 0.35695 0.31479 0.0
C2323 C 0.26082 0.35368 0.29703 0.0
C2324 C 0.23396 0.39007 0.29554 0.0
C2325 C 0.26432 0.37032 0.28016 0.0
C2326 C 0.19424 0.40386 0.29886 0.0
C2327 C 0.20846 0.43846 0.26903 0.0
N2328 N 0.25071 0.38758 0.2796 0.0
N2329 N 0.22371 0.42413 0.27646 0.0
H2330 H 0.18797 0.42893 0.07445 0.0
H2331 H 0.09044 0.47168 0.98867 0.0
H2332 H 0.17048 0.39467 0.00077 0.0
H2333 H 0.07757 0.45738 0.06226 0.0
H2334 H 0.12575 0.45186 0.99197 0.0
H2335 H 0.15273 0.44816 0.0697 0.0
C2336 C 0.1766 0.42542 0.05733 0.0
C2337 C 0.18183 0.41007 0.03806 0.0
C2338 C 0.1151 0.45322 0.00731 0.0
C2339 C 0.14231 0.43251 0.03226 0.0
C2340 C 0.09521 0.46462 0.00553 0.0
C2341 C 0.08125 0.46615 0.02526 0.0
C2342 C 0.12124 0.44409 0.02919 0.0
C2343 C 0.08792 0.45656 0.04666 0.0
C2344 C 0.15664 0.43637 0.05463 0.0
C2345 C 0.16674 0.40617 0.01613 0.0
N2346 N 0.1076 0.44614 0.04816 0.0
N2347 N 0.14769 0.41758 0.01367 0.0
H2348 H 0.8806 0.91415 0.21768 0.0
H2349 H 0.75741 0.83451 0.24074 0.0
H2350 H 0.81907 0.94411 0.23758 0.0
H2351 H 0.82614 0.81178 0.24483 0.0
H2352 H 0.77703 0.87325 0.2312 0.0
H2353 H 0.85772 0.87488 0.21845 0.0
C2354 C 0.86218 0.91252 0.22195 0.0
C2355 C 0.85188 0.93255 0.22792 0.0
C2356 C 0.78769 0.85965 0.234 0.0
C2357 C 0.82557 0.88744 0.2289 0.0
C2358 C 0.77653 0.83756 0.23934 0.0
C2359 C 0.79021 0.81997 0.24372 0.0
C2360 C 0.81256 0.86391 0.23266 0.0
C2361 C 0.81492 0.82487 0.24177 0.0
C2362 C 0.84915 0.89004 0.22246 0.0
C2363 C 0.82783 0.92919 0.23308 0.0
N2364 N 0.82527 0.84634 0.2364 0.0
N2365 N 0.81551 0.90704 0.23365 0.0
H2366 H 0.68119 0.04834 0.76861 0.0
H2367 H 0.69842 0.18757 0.76201 0.0
H2368 H 0.62865 0.08335 0.73302 0.0
H2369 H 0.74886 0.15383 0.80252 0.0
H2370 H 0.67413 0.14907 0.7487 0.0
H2371 H 0.70767 0.08634 0.77859 0.0
C2372 C 0.67524 0.06398 0.76278 0.0
C2373 C 0.65256 0.06264 0.75007 0.0
C2374 C 0.69053 0.15005 0.76046 0.0
C2375 C 0.68282 0.1062 0.76149 0.0
C2376 C 0.70443 0.17205 0.76808 0.0
C2377 C 0.72565 0.17395 0.78356 0.0
C2378 C 0.69784 0.12972 0.76833 0.0
C2379 C 0.73258 0.1532 0.79069 0.0
C2380 C 0.69038 0.08568 0.76852 0.0
C2381 C 0.64589 0.08351 0.74295 0.0
N2382 N 0.71866 0.13194 0.78308 0.0
N2383 N 0.66092 0.10442 0.74882 0.0
loop_
_geom_bond_atom_site_label_1
_geom_bond_atom_site_label_2
_geom_bond_distance
_geom_bond_site_symmetry_2
_ccdc_geom_bond_type
C0 O1 1.306 . S
C0 O3 1.160 . S
O1 C0 1.306 . S
O1 Cd2 2.228 1_655 S
Cd2 O1 2.228 1_455 S
Cd2 O6 2.273 . S
Cd2 O10 2.277 . S
O3 C0 1.160 . S
O3 Cd4 2.203 1_655 S
Cd4 O3 2.203 1_455 S
Cd4 O6 2.411 . S
Cd4 O7 2.333 . S
Cd4 O8 2.352 . S
Cd4 O12 2.277 . S
Cd4 O13 2.356 . S
C5 O10 1.209 . S
C5 O12 1.226 . S
O6 Cd2 2.273 . S
O6 Cd4 2.411 . S
O6 C9 1.320 . S
O7 Cd4 2.333 . S
O7 C9 1.214 . S
O8 Cd4 2.352 . S
O8 C11 1.258 . S
C9 O6 1.320 . S
C9 O7 1.214 . S
O10 Cd2 2.277 . S
O10 C5 1.209 . S
C11 O8 1.258 . S
C11 O13 1.282 . S
O12 Cd4 2.277 . S
O12 C5 1.226 . S
O13 Cd4 2.356 . S
O13 C11 1.282 . S
C14 O15 1.306 . S
C14 O17 1.160 . S
O15 C14 1.306 . S
O15 Cd16 2.228 1_655 S
Cd16 O15 2.228 1_455 S
Cd16 O20 2.273 . S
Cd16 O24 2.277 . S
O17 C14 1.160 . S
O17 Cd18 2.203 1_655 S
Cd18 O17 2.203 1_455 S
Cd18 O20 2.411 . S
Cd18 O21 2.333 . S
Cd18 O22 2.352 . S
Cd18 O26 2.277 . S
Cd18 O27 2.356 . S
C19 O24 1.209 . S
C19 O26 1.226 . S
O20 Cd16 2.273 . S
O20 Cd18 2.411 . S
O20 C23 1.320 . S
O21 Cd18 2.333 . S
O21 C23 1.214 . S
O22 Cd18 2.352 . S
O22 C25 1.258 . S
C23 O20 1.320 . S
C23 O21 1.214 . S
O24 Cd16 2.277 . S
O24 C19 1.209 . S
C25 O22 1.258 . S
C25 O27 1.282 . S
O26 Cd18 2.277 . S
O26 C19 1.226 . S
O27 Cd18 2.356 . S
O27 C25 1.282 . S
C28 O29 1.306 . S
C28 O31 1.160 . S
O29 C28 1.306 . S
O29 Cd30 2.228 . S
Cd30 O29 2.228 . S
Cd30 O34 2.273 . S
Cd30 O38 2.277 . S
O31 C28 1.160 . S
O31 Cd32 2.203 . S
Cd32 O31 2.203 . S
Cd32 O34 2.411 . S
Cd32 O35 2.333 . S
Cd32 O36 2.352 . S
Cd32 O40 2.277 . S
Cd32 O41 2.356 . S
C33 O38 1.209 . S
C33 O40 1.226 . S
O34 Cd30 2.273 . S
O34 Cd32 2.411 . S
O34 C37 1.320 . S
O35 Cd32 2.333 . S
O35 C37 1.214 . S
O36 Cd32 2.352 . S
O36 C39 1.258 . S
C37 O34 1.320 . S
C37 O35 1.214 . S
O38 Cd30 2.277 . S
O38 C33 1.209 . S
C39 O36 1.258 . S
C39 O41 1.282 . S
O40 Cd32 2.277 . S
O40 C33 1.226 . S
O41 Cd32 2.356 . S
O41 C39 1.282 . S
C42 O43 1.306 . S
C42 O45 1.160 . S
O43 C42 1.306 . S
O43 Cd44 2.228 . S
Cd44 O43 2.228 . S
Cd44 O48 2.273 . S
Cd44 O52 2.277 . S
O45 C42 1.160 . S
O45 Cd46 2.203 . S
Cd46 O45 2.203 . S
Cd46 O48 2.411 . S
Cd46 O49 2.333 . S
Cd46 O50 2.352 . S
Cd46 O54 2.277 . S
Cd46 O55 2.356 . S
C47 O52 1.209 . S
C47 O54 1.226 . S
O48 Cd44 2.273 . S
O48 Cd46 2.411 . S
O48 C51 1.320 . S
O49 Cd46 2.333 . S
O49 C51 1.214 . S
O50 Cd46 2.352 . S
O50 C53 1.258 . S
C51 O48 1.320 . S
C51 O49 1.214 . S
O52 Cd44 2.277 . S
O52 C47 1.209 . S
C53 O50 1.258 . S
C53 O55 1.282 . S
O54 Cd46 2.277 . S
O54 C47 1.226 . S
O55 Cd46 2.356 . S
O55 C53 1.282 . S
C56 O57 1.306 1_655 S
C56 O59 1.160 . S
O57 C56 1.306 1_455 S
O57 Cd58 2.228 . S
Cd58 O57 2.228 . S
Cd58 O62 2.273 . S
Cd58 O66 2.277 . S
O59 C56 1.160 . S
O59 Cd60 2.203 1_655 S
Cd60 O59 2.203 1_455 S
Cd60 O62 2.411 . S
Cd60 O63 2.333 . S
Cd60 O64 2.352 . S
Cd60 O68 2.277 . S
Cd60 O69 2.356 . S
C61 O66 1.209 . S
C61 O68 1.226 . S
O62 Cd58 2.273 . S
O62 Cd60 2.411 . S
O62 C65 1.320 . S
O63 Cd60 2.333 . S
O63 C65 1.214 . S
O64 Cd60 2.352 . S
O64 C67 1.258 . S
C65 O62 1.320 . S
C65 O63 1.214 . S
O66 Cd58 2.277 . S
O66 C61 1.209 . S
C67 O64 1.258 . S
C67 O69 1.282 . S
O68 Cd60 2.277 . S
O68 C61 1.226 . S
O69 Cd60 2.356 . S
O69 C67 1.282 . S
C70 O71 1.306 . S
C70 O73 1.160 . S
O71 C70 1.306 . S
O71 Cd72 2.228 . S
Cd72 O71 2.228 . S
Cd72 O76 2.273 . S
Cd72 O80 2.277 . S
O73 C70 1.160 . S
O73 Cd74 2.203 . S
Cd74 O73 2.203 . S
Cd74 O76 2.411 . S
Cd74 O77 2.333 . S
Cd74 O78 2.352 . S
Cd74 O82 2.277 . S
Cd74 O83 2.356 . S
C75 O80 1.209 . S
C75 O82 1.226 . S
O76 Cd72 2.273 . S
O76 Cd74 2.411 . S
O76 C79 1.320 . S
O77 Cd74 2.333 . S
O77 C79 1.214 . S
O78 Cd74 2.352 . S
O78 C81 1.258 . S
C79 O76 1.320 . S
C79 O77 1.214 . S
O80 Cd72 2.277 . S
O80 C75 1.209 . S
C81 O78 1.258 . S
C81 O83 1.282 . S
O82 Cd74 2.277 . S
O82 C75 1.226 . S
O83 Cd74 2.356 . S
O83 C81 1.282 . S
C84 O85 1.306 . S
C84 O87 1.160 . S
O85 C84 1.306 . S
O85 Cd86 2.228 . S
Cd86 O85 2.228 . S
Cd86 O90 2.273 . S
Cd86 O94 2.277 . S
O87 C84 1.160 . S
O87 Cd88 2.203 . S
Cd88 O87 2.203 . S
Cd88 O90 2.411 . S
Cd88 O91 2.333 . S
Cd88 O92 2.352 . S
Cd88 O96 2.277 . S
Cd88 O97 2.356 . S
C89 O94 1.209 . S
C89 O96 1.226 . S
O90 Cd86 2.273 . S
O90 Cd88 2.411 . S
O90 C93 1.320 . S
O91 Cd88 2.333 . S
O91 C93 1.214 . S
O92 Cd88 2.352 . S
O92 C95 1.258 . S
C93 O90 1.320 . S
C93 O91 1.214 . S
O94 Cd86 2.277 . S
O94 C89 1.209 . S
C95 O92 1.258 . S
C95 O97 1.282 . S
O96 Cd88 2.277 . S
O96 C89 1.226 . S
O97 Cd88 2.356 . S
O97 C95 1.282 . S
C98 O99 1.306 . S
C98 O101 1.160 . S
O99 C98 1.306 . S
O99 Cd100 2.228 1_655 S
Cd100 O99 2.228 1_455 S
Cd100 O104 2.273 . S
Cd100 O108 2.277 . S
O101 C98 1.160 . S
O101 Cd102 2.203 1_655 S
Cd102 O101 2.203 1_455 S
Cd102 O104 2.411 . S
Cd102 O105 2.333 . S
Cd102 O106 2.352 1_455 S
Cd102 O110 2.277 . S
Cd102 O111 2.356 . S
C103 O108 1.209 . S
C103 O110 1.226 . S
O104 Cd100 2.273 . S
O104 Cd102 2.411 . S
O104 C107 1.320 . S
O105 Cd102 2.333 . S
O105 C107 1.214 . S
O106 Cd102 2.352 1_655 S
O106 C109 1.261 . S
C107 O104 1.320 . S
C107 O105 1.214 . S
O108 Cd100 2.277 . S
O108 C103 1.209 . S
C109 O106 1.261 . S
C109 O111 1.281 1_655 S
O110 Cd102 2.277 . S
O110 C103 1.226 . S
O111 Cd102 2.356 . S
O111 C109 1.281 1_455 S
C112 O113 1.306 . S
C112 O115 1.160 . S
O113 C112 1.306 . S
O113 Cd114 2.228 1_545 S
Cd114 O113 2.228 1_565 S
Cd114 O118 2.273 1_565 S
Cd114 O122 2.277 . S
O115 C112 1.160 . S
O115 Cd116 2.203 . S
Cd116 O115 2.203 . S
Cd116 O118 2.411 . S
Cd116 O119 2.333 . S
Cd116 O120 2.352 . S
Cd116 O124 2.277 1_545 S
Cd116 O125 2.356 . S
C117 O122 1.209 . S
C117 O124 1.226 . S
O118 Cd114 2.273 1_545 S
O118 Cd116 2.411 . S
O118 C121 1.320 . S
O119 Cd116 2.333 . S
O119 C121 1.214 . S
O120 Cd116 2.352 . S
O120 C123 1.258 . S
C121 O118 1.320 . S
C121 O119 1.214 . S
O122 Cd114 2.277 . S
O122 C117 1.209 . S
C123 O120 1.258 . S
C123 O125 1.282 . S
O124 Cd116 2.277 1_565 S
O124 C117 1.226 . S
O125 Cd116 2.356 . S
O125 C123 1.282 . S
C126 O127 1.306 . S
C126 O129 1.160 . S
O127 C126 1.306 . S
O127 Cd128 2.228 . S
Cd128 O127 2.228 . S
Cd128 O132 2.273 . S
Cd128 O136 2.277 . S
O129 C126 1.160 . S
O129 Cd130 2.203 . S
Cd130 O129 2.203 . S
Cd130 O132 2.411 . S
Cd130 O133 2.333 . S
Cd130 O134 2.352 . S
Cd130 O138 2.277 . S
Cd130 O139 2.356 . S
C131 O136 1.209 . S
C131 O138 1.226 . S
O132 Cd128 2.273 . S
O132 Cd130 2.411 . S
O132 C135 1.320 . S
O133 Cd130 2.333 . S
O133 C135 1.214 . S
O134 Cd130 2.352 . S
O134 C137 1.258 . S
C135 O132 1.320 . S
C135 O133 1.214 . S
O136 Cd128 2.277 . S
O136 C131 1.209 . S
C137 O134 1.258 . S
C137 O139 1.282 . S
O138 Cd130 2.277 . S
O138 C131 1.226 . S
O139 Cd130 2.356 . S
O139 C137 1.282 . S
C140 O141 1.306 . S
C140 O143 1.160 . S
O141 C140 1.306 . S
O141 Cd142 2.228 . S
Cd142 O141 2.228 . S
Cd142 O146 2.273 . S
Cd142 O150 2.277 . S
O143 C140 1.160 . S
O143 Cd144 2.203 . S
Cd144 O143 2.203 . S
Cd144 O146 2.411 . S
Cd144 O147 2.333 . S
Cd144 O148 2.352 1_545 S
Cd144 O152 2.277 . S
Cd144 O153 2.356 1_545 S
C145 O150 1.209 . S
C145 O152 1.226 . S
O146 Cd142 2.273 . S
O146 Cd144 2.411 . S
O146 C149 1.320 . S
O147 Cd144 2.333 . S
O147 C149 1.214 . S
O148 Cd144 2.352 1_565 S
O148 C151 1.258 . S
C149 O146 1.320 . S
C149 O147 1.214 . S
O150 Cd142 2.277 . S
O150 C145 1.209 . S
C151 O148 1.258 . S
C151 O153 1.282 . S
O152 Cd144 2.277 . S
O152 C145 1.226 . S
O153 Cd144 2.356 1_565 S
O153 C151 1.282 . S
C154 O155 1.306 . S
C154 O157 1.160 . S
O155 C154 1.306 . S
O155 Cd156 2.228 1_554 S
Cd156 O155 2.228 1_556 S
Cd156 O160 2.273 1_556 S
Cd156 O164 2.277 . S
O157 C154 1.160 . S
O157 Cd158 2.203 . S
Cd158 O157 2.203 . S
Cd158 O160 2.411 . S
Cd158 O161 2.333 . S
Cd158 O162 2.352 . S
Cd158 O166 2.277 1_554 S
Cd158 O167 2.356 . S
C159 O164 1.209 . S
C159 O166 1.226 . S
O160 Cd156 2.273 1_554 S
O160 Cd158 2.411 . S
O160 C163 1.320 . S
O161 Cd158 2.333 . S
O161 C163 1.214 . S
O162 Cd158 2.352 . S
O162 C165 1.258 . S
C163 O160 1.320 . S
C163 O161 1.214 . S
O164 Cd156 2.277 . S
O164 C159 1.209 . S
C165 O162 1.258 . S
C165 O167 1.282 . S
O166 Cd158 2.277 1_556 S
O166 C159 1.226 . S
O167 Cd158 2.356 . S
O167 C165 1.282 . S
C168 O169 1.306 . S
C168 O171 1.160 . S
O169 C168 1.306 . S
O169 Cd170 2.228 . S
Cd170 O169 2.228 . S
Cd170 O174 2.273 . S
Cd170 O178 2.280 . S
O171 C168 1.160 . S
O171 Cd172 2.203 . S
Cd172 O171 2.203 . S
Cd172 O174 2.411 . S
Cd172 O175 2.333 . S
Cd172 O176 2.352 . S
Cd172 O180 2.277 . S
Cd172 O181 2.356 . S
C173 O178 1.208 1_556 S
C173 O180 1.226 1_556 S
O174 Cd170 2.273 . S
O174 Cd172 2.411 . S
O174 C177 1.320 . S
O175 Cd172 2.333 . S
O175 C177 1.214 . S
O176 Cd172 2.352 . S
O176 C179 1.258 . S
C177 O174 1.320 . S
C177 O175 1.214 . S
O178 Cd170 2.280 . S
O178 C173 1.208 1_554 S
C179 O176 1.258 . S
C179 O181 1.282 . S
O180 Cd172 2.277 . S
O180 C173 1.226 1_554 S
O181 Cd172 2.356 . S
O181 C179 1.282 . S
C182 O183 1.306 . S
C182 O185 1.160 . S
O183 C182 1.306 . S
O183 Cd184 2.228 . S
Cd184 O183 2.228 . S
Cd184 O188 2.273 . S
Cd184 O192 2.277 . S
O185 C182 1.160 . S
O185 Cd186 2.203 . S
Cd186 O185 2.203 . S
Cd186 O188 2.411 . S
Cd186 O189 2.333 . S
Cd186 O190 2.352 1_554 S
Cd186 O194 2.277 . S
Cd186 O195 2.356 1_554 S
C187 O192 1.209 . S
C187 O194 1.226 . S
O188 Cd184 2.273 . S
O188 Cd186 2.411 . S
O188 C191 1.320 . S
O189 Cd186 2.333 . S
O189 C191 1.214 . S
O190 Cd186 2.352 1_556 S
O190 C193 1.258 . S
C191 O188 1.320 . S
C191 O189 1.214 . S
O192 Cd184 2.277 . S
O192 C187 1.209 . S
C193 O190 1.258 . S
C193 O195 1.282 . S
O194 Cd186 2.277 . S
O194 C187 1.226 . S
O195 Cd186 2.356 1_556 S
O195 C193 1.282 . S
C196 O197 1.306 . S
C196 O199 1.160 . S
O197 C196 1.306 . S
O197 Cd198 2.228 . S
Cd198 O197 2.228 . S
Cd198 O202 2.273 . S
Cd198 O206 2.277 . S
O199 C196 1.160 . S
O199 Cd200 2.203 . S
Cd200 O199 2.203 . S
Cd200 O202 2.411 . S
Cd200 O203 2.333 . S
Cd200 O204 2.352 . S
Cd200 O208 2.277 . S
Cd200 O209 2.356 . S
C201 O206 1.209 . S
C201 O208 1.226 . S
O202 Cd198 2.273 . S
O202 Cd200 2.411 . S
O202 C205 1.320 . S
O203 Cd200 2.333 . S
O203 C205 1.214 . S
O204 Cd200 2.352 . S
O204 C207 1.258 . S
C205 O202 1.320 . S
C205 O203 1.214 . S
O206 Cd198 2.277 . S
O206 C201 1.209 . S
C207 O204 1.258 . S
C207 O209 1.282 . S
O208 Cd200 2.277 . S
O208 C201 1.226 . S
O209 Cd200 2.356 . S
O209 C207 1.282 . S
C210 O211 1.306 . S
C210 O213 1.160 . S
O211 C210 1.306 . S
O211 Cd212 2.228 . S
Cd212 O211 2.228 . S
Cd212 O216 2.273 . S
Cd212 O220 2.277 . S
O213 C210 1.160 . S
O213 Cd214 2.203 . S
Cd214 O213 2.203 . S
Cd214 O216 2.411 . S
Cd214 O217 2.333 . S
Cd214 O218 2.352 . S
Cd214 O222 2.277 . S
Cd214 O223 2.356 . S
C215 O220 1.209 . S
C215 O222 1.226 . S
O216 Cd212 2.273 . S
O216 Cd214 2.411 . S
O216 C219 1.320 . S
O217 Cd214 2.333 . S
O217 C219 1.214 . S
O218 Cd214 2.352 . S
O218 C221 1.258 . S
C219 O216 1.320 . S
C219 O217 1.214 . S
O220 Cd212 2.277 . S
O220 C215 1.209 . S
C221 O218 1.258 . S
C221 O223 1.282 . S
O222 Cd214 2.277 . S
O222 C215 1.226 . S
O223 Cd214 2.356 . S
O223 C221 1.282 . S
C224 O225 1.306 . S
C224 O227 1.160 . S
O225 C224 1.306 . S
O225 Cd226 2.228 1_545 S
Cd226 O225 2.228 1_565 S
Cd226 O230 2.273 1_565 S
Cd226 O234 2.277 . S
O227 C224 1.160 . S
O227 Cd228 2.203 . S
Cd228 O227 2.203 . S
Cd228 O230 2.411 . S
Cd228 O231 2.333 . S
Cd228 O232 2.352 . S
Cd228 O236 2.277 1_545 S
Cd228 O237 2.356 . S
C229 O234 1.209 . S
C229 O236 1.226 . S
O230 Cd226 2.273 1_545 S
O230 Cd228 2.411 . S
O230 C233 1.320 . S
O231 Cd228 2.333 . S
O231 C233 1.214 . S
O232 Cd228 2.352 . S
O232 C235 1.258 . S
C233 O230 1.320 . S
C233 O231 1.214 . S
O234 Cd226 2.277 . S
O234 C229 1.209 . S
C235 O232 1.258 . S
C235 O237 1.282 . S
O236 Cd228 2.277 1_565 S
O236 C229 1.226 . S
O237 Cd228 2.356 . S
O237 C235 1.282 . S
C238 O239 1.306 . S
C238 O241 1.160 . S
O239 C238 1.306 . S
O239 Cd240 2.228 . S
Cd240 O239 2.228 . S
Cd240 O244 2.273 . S
Cd240 O248 2.277 . S
O241 C238 1.160 . S
O241 Cd242 2.203 . S
Cd242 O241 2.203 . S
Cd242 O244 2.411 . S
Cd242 O245 2.333 . S
Cd242 O246 2.352 . S
Cd242 O250 2.277 . S
Cd242 O251 2.356 . S
C243 O248 1.209 . S
C243 O250 1.226 . S
O244 Cd240 2.273 . S
O244 Cd242 2.411 . S
O244 C247 1.320 . S
O245 Cd242 2.333 . S
O245 C247 1.214 . S
O246 Cd242 2.352 . S
O246 C249 1.258 . S
C247 O244 1.320 . S
C247 O245 1.214 . S
O248 Cd240 2.277 . S
O248 C243 1.209 . S
C249 O246 1.258 . S
C249 O251 1.282 . S
O250 Cd242 2.277 . S
O250 C243 1.226 . S
O251 Cd242 2.356 . S
O251 C249 1.282 . S
C252 O253 1.306 . S
C252 O255 1.160 . S
O253 C252 1.306 . S
O253 Cd254 2.228 . S
Cd254 O253 2.228 . S
Cd254 O258 2.273 . S
Cd254 O262 2.277 . S
O255 C252 1.160 . S
O255 Cd256 2.203 . S
Cd256 O255 2.203 . S
Cd256 O258 2.411 . S
Cd256 O259 2.333 . S
Cd256 O260 2.352 . S
Cd256 O264 2.277 . S
Cd256 O265 2.356 . S
C257 O262 1.209 . S
C257 O264 1.226 . S
O258 Cd254 2.273 . S
O258 Cd256 2.411 . S
O258 C261 1.320 . S
O259 Cd256 2.333 . S
O259 C261 1.214 . S
O260 Cd256 2.352 . S
O260 C263 1.258 . S
C261 O258 1.320 . S
C261 O259 1.214 . S
O262 Cd254 2.277 . S
O262 C257 1.209 . S
C263 O260 1.258 . S
C263 O265 1.282 . S
O264 Cd256 2.277 . S
O264 C257 1.226 . S
O265 Cd256 2.356 . S
O265 C263 1.282 . S
C266 O267 1.306 . S
C266 O269 1.149 1_545 S
O267 C266 1.306 . S
O267 Cd268 2.228 . S
Cd268 O267 2.228 . S
Cd268 O272 2.273 1_545 S
Cd268 O276 2.277 . S
O269 C266 1.149 1_565 S
O269 Cd270 2.204 . S
Cd270 O269 2.204 . S
Cd270 O272 2.411 . S
Cd270 O273 2.333 . S
Cd270 O274 2.352 . S
Cd270 O278 2.277 1_565 S
Cd270 O279 2.356 . S
C271 O276 1.209 . S
C271 O278 1.226 . S
O272 Cd268 2.273 1_565 S
O272 Cd270 2.411 . S
O272 C275 1.320 . S
O273 Cd270 2.333 . S
O273 C275 1.214 . S
O274 Cd270 2.352 . S
O274 C277 1.258 . S
C275 O272 1.320 . S
C275 O273 1.214 . S
O276 Cd268 2.277 . S
O276 C271 1.209 . S
C277 O274 1.258 . S
C277 O279 1.282 . S
O278 Cd270 2.277 1_545 S
O278 C271 1.226 . S
O279 Cd270 2.356 . S
O279 C277 1.282 . S
C280 O281 1.306 . S
C280 O283 1.146 1_554 S
O281 C280 1.306 . S
O281 Cd282 2.228 . S
Cd282 O281 2.228 . S
Cd282 O286 2.273 1_554 S
Cd282 O290 2.277 . S
O283 C280 1.146 1_556 S
O283 Cd284 2.204 . S
Cd284 O283 2.204 . S
Cd284 O286 2.411 . S
Cd284 O287 2.333 . S
Cd284 O288 2.352 . S
Cd284 O292 2.277 1_556 S
Cd284 O293 2.356 . S
C285 O290 1.209 . S
C285 O292 1.226 . S
O286 Cd282 2.273 1_556 S
O286 Cd284 2.411 . S
O286 C289 1.320 . S
O287 Cd284 2.333 . S
O287 C289 1.214 . S
O288 Cd284 2.352 . S
O288 C291 1.258 . S
C289 O286 1.320 . S
C289 O287 1.214 . S
O290 Cd282 2.277 . S
O290 C285 1.209 . S
C291 O288 1.258 . S
C291 O293 1.282 . S
O292 Cd284 2.277 1_554 S
O292 C285 1.226 . S
O293 Cd284 2.356 . S
O293 C291 1.282 . S
C294 O295 1.306 . S
C294 O297 1.160 . S
O295 C294 1.306 . S
O295 Cd296 2.228 . S
Cd296 O295 2.228 . S
Cd296 O300 2.273 . S
Cd296 O304 2.277 . S
O297 C294 1.160 . S
O297 Cd298 2.203 . S
Cd298 O297 2.203 . S
Cd298 O300 2.411 . S
Cd298 O301 2.333 . S
Cd298 O302 2.352 . S
Cd298 O306 2.277 . S
Cd298 O307 2.356 . S
C299 O304 1.209 . S
C299 O306 1.226 . S
O300 Cd296 2.273 . S
O300 Cd298 2.411 . S
O300 C303 1.320 . S
O301 Cd298 2.333 . S
O301 C303 1.214 . S
O302 Cd298 2.352 . S
O302 C305 1.258 . S
C303 O300 1.320 . S
C303 O301 1.214 . S
O304 Cd296 2.277 . S
O304 C299 1.209 . S
C305 O302 1.258 . S
C305 O307 1.282 . S
O306 Cd298 2.277 . S
O306 C299 1.226 . S
O307 Cd298 2.356 . S
O307 C305 1.282 . S
C308 O309 1.306 . S
C308 O311 1.160 . S
O309 C308 1.306 . S
O309 Cd310 2.228 . S
Cd310 O309 2.228 . S
Cd310 O314 2.273 . S
Cd310 O318 2.277 . S
O311 C308 1.160 . S
O311 Cd312 2.203 . S
Cd312 O311 2.203 . S
Cd312 O314 2.411 . S
Cd312 O315 2.333 . S
Cd312 O316 2.352 . S
Cd312 O320 2.277 . S
Cd312 O321 2.356 . S
C313 O318 1.209 . S
C313 O320 1.226 . S
O314 Cd310 2.273 . S
O314 Cd312 2.411 . S
O314 C317 1.320 . S
O315 Cd312 2.333 . S
O315 C317 1.214 . S
O316 Cd312 2.352 . S
O316 C319 1.258 . S
C317 O314 1.320 . S
C317 O315 1.214 . S
O318 Cd310 2.277 . S
O318 C313 1.209 . S
C319 O316 1.258 . S
C319 O321 1.282 . S
O320 Cd312 2.277 . S
O320 C313 1.226 . S
O321 Cd312 2.356 . S
O321 C319 1.282 . S
C322 O323 1.306 . S
C322 O325 1.160 . S
O323 C322 1.306 . S
O323 Cd324 2.228 . S
Cd324 O323 2.228 . S
Cd324 O328 2.273 . S
Cd324 O332 2.277 . S
O325 C322 1.160 . S
O325 Cd326 2.203 . S
Cd326 O325 2.203 . S
Cd326 O328 2.411 . S
Cd326 O329 2.333 . S
Cd326 O330 2.352 . S
Cd326 O334 2.277 . S
Cd326 O335 2.356 . S
C327 O332 1.209 . S
C327 O334 1.226 . S
O328 Cd324 2.273 . S
O328 Cd326 2.411 . S
O328 C331 1.320 . S
O329 Cd326 2.333 . S
O329 C331 1.214 . S
O330 Cd326 2.352 . S
O330 C333 1.258 . S
C331 O328 1.320 . S
C331 O329 1.214 . S
O332 Cd324 2.277 . S
O332 C327 1.209 . S
C333 O330 1.258 . S
C333 O335 1.282 . S
O334 Cd326 2.277 . S
O334 C327 1.226 . S
O335 Cd326 2.356 . S
O335 C333 1.282 . S
Zn336 O342 1.969 . S
Zn336 O343 1.965 1_565 S
Zn336 O347 2.024 . S
Zn336 O352 1.969 1_565 S
Zn337 O344 1.969 1_654 S
Zn337 O350 1.969 1_554 S
Zn337 O351 1.965 . S
Zn337 O353 2.024 1_655 S
C338 O339 1.229 . S
C338 O347 1.058 . S
O339 C338 1.229 . S
C340 O341 1.229 1_454 S
C340 O353 1.058 . S
O341 C340 1.229 1_656 S
O342 Zn336 1.969 . S
O342 C345 1.267 . S
O343 Zn336 1.965 1_545 S
O343 C354 1.260 1_554 S
O344 Zn337 1.969 1_456 S
O344 C354 1.258 . S
C345 O342 1.267 . S
C345 O346 1.228 . S
O346 C345 1.228 . S
O347 Zn336 2.024 . S
O347 C338 1.058 . S
C348 O349 1.228 . S
C348 O350 1.267 1_554 S
O349 C348 1.228 . S
O350 Zn337 1.969 1_556 S
O350 C348 1.267 1_556 S
O351 Zn337 1.965 . S
O351 C355 1.260 1_655 S
O352 Zn336 1.969 1_545 S
O352 C355 1.258 . S
O353 Zn337 2.024 1_455 S
O353 C340 1.058 . S
C354 O343 1.260 1_556 S
C354 O344 1.258 . S
C355 O351 1.260 1_455 S
C355 O352 1.258 . S
Zn356 O362 1.969 . S
Zn356 O363 1.965 . S
Zn356 O367 2.024 . S
Zn356 O372 1.969 . S
Zn357 O364 1.969 . S
Zn357 O370 1.969 . S
Zn357 O371 1.965 . S
Zn357 O373 2.024 . S
C358 O359 1.229 . S
C358 O367 1.058 . S
O359 C358 1.229 . S
C360 O361 1.229 . S
C360 O373 1.058 . S
O361 C360 1.229 . S
O362 Zn356 1.969 . S
O362 C365 1.267 . S
O363 Zn356 1.965 . S
O363 C374 1.260 . S
O364 Zn357 1.969 . S
O364 C374 1.258 . S
C365 O362 1.267 . S
C365 O366 1.228 . S
O366 C365 1.228 . S
O367 Zn356 2.024 . S
O367 C358 1.058 . S
C368 O369 1.228 . S
C368 O370 1.267 . S
O369 C368 1.228 . S
O370 Zn357 1.969 . S
O370 C368 1.267 . S
O371 Zn357 1.965 . S
O371 C375 1.260 . S
O372 Zn356 1.969 . S
O372 C375 1.258 . S
O373 Zn357 2.024 . S
O373 C360 1.058 . S
C374 O363 1.260 . S
C374 O364 1.258 . S
C375 O371 1.260 . S
C375 O372 1.258 . S
Zn376 O382 1.969 . S
Zn376 O383 1.965 . S
Zn376 O387 2.024 . S
Zn376 O392 1.969 . S
Zn377 O384 1.969 . S
Zn377 O390 1.969 . S
Zn377 O391 1.965 1_565 S
Zn377 O393 2.024 . S
C378 O379 1.229 . S
C378 O387 1.058 . S
O379 C378 1.229 . S
C380 O381 1.229 . S
C380 O393 1.058 . S
O381 C380 1.229 . S
O382 Zn376 1.969 . S
O382 C385 1.267 . S
O383 Zn376 1.965 . S
O383 C394 1.260 . S
O384 Zn377 1.969 . S
O384 C394 1.258 1_565 S
C385 O382 1.267 . S
C385 O386 1.228 . S
O386 C385 1.228 . S
O387 Zn376 2.024 . S
O387 C378 1.058 . S
C388 O389 1.228 . S
C388 O390 1.267 . S
O389 C388 1.228 . S
O390 Zn377 1.969 . S
O390 C388 1.267 . S
O391 Zn377 1.965 1_545 S
O391 C395 1.260 . S
O392 Zn376 1.969 . S
O392 C395 1.258 . S
O393 Zn377 2.024 . S
O393 C380 1.058 . S
C394 O383 1.260 . S
C394 O384 1.258 1_545 S
C395 O391 1.260 . S
C395 O392 1.258 . S
Zn396 O402 1.969 . S
Zn396 O403 1.965 . S
Zn396 O407 2.024 . S
Zn396 O412 1.969 . S
Zn397 O404 1.969 . S
Zn397 O410 1.969 . S
Zn397 O411 1.965 . S
Zn397 O413 2.024 . S
C398 O399 1.229 . S
C398 O407 1.058 . S
O399 C398 1.229 . S
C400 O401 1.229 . S
C400 O413 1.058 . S
O401 C400 1.229 . S
O402 Zn396 1.969 . S
O402 C405 1.267 . S
O403 Zn396 1.965 . S
O403 C414 1.260 . S
O404 Zn397 1.969 . S
O404 C414 1.258 . S
C405 O402 1.267 . S
C405 O406 1.228 . S
O406 C405 1.228 . S
O407 Zn396 2.024 . S
O407 C398 1.058 . S
C408 O409 1.228 . S
C408 O410 1.267 . S
O409 C408 1.228 . S
O410 Zn397 1.969 . S
O410 C408 1.267 . S
O411 Zn397 1.965 . S
O411 C415 1.260 . S
O412 Zn396 1.969 . S
O412 C415 1.258 . S
O413 Zn397 2.024 . S
O413 C400 1.058 . S
C414 O403 1.260 . S
C414 O404 1.258 . S
C415 O411 1.260 . S
C415 O412 1.258 . S
Zn416 O422 1.969 . S
Zn416 O423 1.949 1_455 S
Zn416 O427 2.024 1_565 S
Zn416 O432 1.969 1_565 S
Zn417 O424 1.969 1_455 S
Zn417 O430 1.969 1_455 S
Zn417 O431 1.965 . S
Zn417 O433 2.024 . S
C418 O419 1.229 1_545 S
C418 O427 1.058 . S
O419 C418 1.229 1_565 S
C420 O421 1.229 . S
C420 O433 1.058 1_655 S
O421 C420 1.229 . S
O422 Zn416 1.969 . S
O422 C425 1.267 . S
O423 Zn416 1.949 1_655 S
O423 C434 1.278 . S
O424 Zn417 1.969 1_655 S
O424 C434 1.258 1_545 S
C425 O422 1.267 . S
C425 O426 1.228 . S
O426 C425 1.228 . S
O427 Zn416 2.024 1_545 S
O427 C418 1.058 . S
C428 O429 1.228 . S
C428 O430 1.267 1_455 S
O429 C428 1.228 . S
O430 Zn417 1.969 1_655 S
O430 C428 1.267 1_655 S
O431 Zn417 1.965 . S
O431 C435 1.260 . S
O432 Zn416 1.969 1_545 S
O432 C435 1.258 . S
O433 Zn417 2.024 . S
O433 C420 1.058 1_455 S
C434 O423 1.278 . S
C434 O424 1.258 1_565 S
C435 O431 1.260 . S
C435 O432 1.258 . S
Zn436 O442 1.969 . S
Zn436 O443 1.965 . S
Zn436 O447 2.024 . S
Zn436 O452 1.969 . S
Zn437 O444 1.969 . S
Zn437 O450 1.969 . S
Zn437 O451 1.965 . S
Zn437 O453 2.024 . S
C438 O439 1.229 . S
C438 O447 1.058 . S
O439 C438 1.229 . S
C440 O441 1.229 . S
C440 O453 1.058 . S
O441 C440 1.229 . S
O442 Zn436 1.969 . S
O442 C445 1.267 . S
O443 Zn436 1.965 . S
O443 C454 1.260 . S
O444 Zn437 1.969 . S
O444 C454 1.258 . S
C445 O442 1.267 . S
C445 O446 1.228 . S
O446 C445 1.228 . S
O447 Zn436 2.024 . S
O447 C438 1.058 . S
C448 O449 1.228 . S
C448 O450 1.267 . S
O449 C448 1.228 . S
O450 Zn437 1.969 . S
O450 C448 1.267 . S
O451 Zn437 1.965 . S
O451 C455 1.260 . S
O452 Zn436 1.969 . S
O452 C455 1.258 . S
O453 Zn437 2.024 . S
O453 C440 1.058 . S
C454 O443 1.260 . S
C454 O444 1.258 . S
C455 O451 1.260 . S
C455 O452 1.258 . S
Zn456 O462 2.012 . S
Zn456 O463 1.963 1_545 S
Zn456 O467 2.002 1_556 S
Zn456 O472 1.949 1_556 S
Zn457 O464 2.005 . S
Zn457 O470 1.986 . S
Zn457 O471 1.929 1_565 S
Zn457 O473 2.012 1_565 S
C458 O459 1.229 . S
C458 O467 1.058 . S
O459 C458 1.229 . S
C460 O461 1.229 . S
C460 O473 1.058 1_565 S
O461 C460 1.229 . S
O462 Zn456 2.012 . S
O462 C465 1.267 . S
O463 Zn456 1.963 1_565 S
O463 C474 1.239 1_556 S
O464 Zn457 2.005 . S
O464 C474 1.258 . S
C465 O462 1.267 . S
C465 O466 1.228 . S
O466 C465 1.228 . S
O467 Zn456 2.002 1_554 S
O467 C458 1.058 . S
C468 O469 1.228 . S
C468 O470 1.267 1_545 S
O469 C468 1.228 . S
O470 Zn457 1.986 . S
O470 C468 1.267 1_565 S
O471 Zn457 1.929 1_545 S
O471 C475 1.260 . S
O472 Zn456 1.949 1_554 S
O472 C475 1.258 . S
O473 Zn457 2.012 1_545 S
O473 C460 1.058 1_545 S
C474 O463 1.239 1_554 S
C474 O464 1.258 . S
C475 O471 1.260 . S
C475 O472 1.258 . S
Zn476 O482 1.969 . S
Zn476 O483 1.965 . S
Zn476 O487 2.024 . S
Zn476 O492 1.969 . S
Zn477 O484 1.969 . S
Zn477 O490 1.969 . S
Zn477 O491 1.965 . S
Zn477 O493 2.024 . S
C478 O479 1.229 . S
C478 O487 1.058 . S
O479 C478 1.229 . S
C480 O481 1.229 . S
C480 O493 1.058 . S
O481 C480 1.229 . S
O482 Zn476 1.969 . S
O482 C485 1.267 . S
O483 Zn476 1.965 . S
O483 C494 1.260 . S
O484 Zn477 1.969 . S
O484 C494 1.258 . S
C485 O482 1.267 . S
C485 O486 1.228 . S
O486 C485 1.228 . S
O487 Zn476 2.024 . S
O487 C478 1.058 . S
C488 O489 1.228 . S
C488 O490 1.267 . S
O489 C488 1.228 . S
O490 Zn477 1.969 . S
O490 C488 1.267 . S
O491 Zn477 1.965 . S
O491 C495 1.260 . S
O492 Zn476 1.969 . S
O492 C495 1.258 . S
O493 Zn477 2.024 . S
O493 C480 1.058 . S
C494 O483 1.260 . S
C494 O484 1.258 . S
C495 O491 1.260 . S
C495 O492 1.258 . S
Zn496 O502 1.969 . S
Zn496 O503 1.965 . S
Zn496 O507 2.024 . S
Zn496 O512 1.969 . S
Zn497 O504 1.969 1_556 S
Zn497 O510 1.969 1_556 S
Zn497 O511 1.965 1_556 S
Zn497 O513 2.024 . S
C498 O499 1.229 . S
C498 O507 1.058 . S
O499 C498 1.229 . S
C500 O501 1.229 . S
C500 O513 1.058 . S
O501 C500 1.229 . S
O502 Zn496 1.969 . S
O502 C505 1.267 . S
O503 Zn496 1.965 . S
O503 C514 1.260 . S
O504 Zn497 1.969 1_554 S
O504 C514 1.258 . S
C505 O502 1.267 . S
C505 O506 1.228 . S
O506 C505 1.228 . S
O507 Zn496 2.024 . S
O507 C498 1.058 . S
C508 O509 1.228 . S
C508 O510 1.267 1_556 S
O509 C508 1.228 . S
O510 Zn497 1.969 1_554 S
O510 C508 1.267 1_554 S
O511 Zn497 1.965 1_554 S
O511 C515 1.260 . S
O512 Zn496 1.969 . S
O512 C515 1.258 . S
O513 Zn497 2.024 . S
O513 C500 1.058 . S
C514 O503 1.260 . S
C514 O504 1.258 . S
C515 O511 1.260 . S
C515 O512 1.258 . S
Zn516 O522 1.969 . S
Zn516 O523 1.965 . S
Zn516 O527 2.024 . S
Zn516 O532 1.969 . S
Zn517 O524 1.969 . S
Zn517 O530 1.969 . S
Zn517 O531 1.965 . S
Zn517 O533 2.024 . S
C518 O519 1.229 . S
C518 O527 1.058 . S
O519 C518 1.229 . S
C520 O521 1.229 . S
C520 O533 1.058 . S
O521 C520 1.229 . S
O522 Zn516 1.969 . S
O522 C525 1.267 . S
O523 Zn516 1.965 . S
O523 C534 1.260 . S
O524 Zn517 1.969 . S
O524 C534 1.258 . S
C525 O522 1.267 . S
C525 O526 1.228 . S
O526 C525 1.228 . S
O527 Zn516 2.024 . S
O527 C518 1.058 . S
C528 O529 1.228 . S
C528 O530 1.267 . S
O529 C528 1.228 . S
O530 Zn517 1.969 . S
O530 C528 1.267 . S
O531 Zn517 1.965 . S
O531 C535 1.260 . S
O532 Zn516 1.969 . S
O532 C535 1.258 . S
O533 Zn517 2.024 . S
O533 C520 1.058 . S
C534 O523 1.260 . S
C534 O524 1.258 . S
C535 O531 1.260 . S
C535 O532 1.258 . S
Zn536 O542 1.969 . S
Zn536 O543 1.965 . S
Zn536 O547 2.024 . S
Zn536 O552 1.969 . S
Zn537 O544 1.969 1_655 S
Zn537 O550 1.969 . S
Zn537 O551 1.965 1_655 S
Zn537 O553 2.024 . S
C538 O539 1.229 . S
C538 O547 1.058 . S
O539 C538 1.229 . S
C540 O541 1.229 . S
C540 O553 1.058 . S
O541 C540 1.229 . S
O542 Zn536 1.969 . S
O542 C545 1.267 . S
O543 Zn536 1.965 . S
O543 C554 1.260 . S
O544 Zn537 1.969 1_455 S
O544 C554 1.258 . S
C545 O542 1.267 . S
C545 O546 1.228 . S
O546 C545 1.228 . S
O547 Zn536 2.024 . S
O547 C538 1.058 . S
C548 O549 1.228 . S
C548 O550 1.267 . S
O549 C548 1.228 . S
O550 Zn537 1.969 . S
O550 C548 1.267 . S
O551 Zn537 1.965 1_455 S
O551 C555 1.260 . S
O552 Zn536 1.969 . S
O552 C555 1.258 . S
O553 Zn537 2.024 . S
O553 C540 1.058 . S
C554 O543 1.260 . S
C554 O544 1.258 . S
C555 O551 1.260 . S
C555 O552 1.258 . S
Zn556 O562 1.969 . S
Zn556 O563 1.965 . S
Zn556 O567 2.024 . S
Zn556 O572 1.969 . S
Zn557 O564 1.969 . S
Zn557 O570 1.969 . S
Zn557 O571 1.965 . S
Zn557 O573 2.024 . S
C558 O559 1.229 . S
C558 O567 1.058 . S
O559 C558 1.229 . S
C560 O561 1.229 . S
C560 O573 1.058 . S
O561 C560 1.229 . S
O562 Zn556 1.969 . S
O562 C565 1.267 . S
O563 Zn556 1.965 . S
O563 C574 1.260 . S
O564 Zn557 1.969 . S
O564 C574 1.258 . S
C565 O562 1.267 . S
C565 O566 1.228 . S
O566 C565 1.228 . S
O567 Zn556 2.024 . S
O567 C558 1.058 . S
C568 O569 1.228 . S
C568 O570 1.267 . S
O569 C568 1.228 . S
O570 Zn557 1.969 . S
O570 C568 1.267 . S
O571 Zn557 1.965 . S
O571 C575 1.260 . S
O572 Zn556 1.969 . S
O572 C575 1.258 . S
O573 Zn557 2.024 . S
O573 C560 1.058 . S
C574 O563 1.260 . S
C574 O564 1.258 . S
C575 O571 1.260 . S
C575 O572 1.258 . S
Zn576 O582 1.969 . S
Zn576 O583 1.965 . S
Zn576 O587 2.024 . S
Zn576 O592 1.969 . S
Zn577 O584 1.969 . S
Zn577 O590 1.969 . S
Zn577 O591 1.965 . S
Zn577 O593 2.024 . S
C578 O579 1.229 . S
C578 O587 1.058 . S
O579 C578 1.229 . S
C580 O581 1.229 . S
C580 O593 1.058 . S
O581 C580 1.229 . S
O582 Zn576 1.969 . S
O582 C585 1.267 . S
O583 Zn576 1.965 . S
O583 C594 1.260 . S
O584 Zn577 1.969 . S
O584 C594 1.258 . S
C585 O582 1.267 . S
C585 O586 1.228 . S
O586 C585 1.228 . S
O587 Zn576 2.024 . S
O587 C578 1.058 . S
C588 O589 1.228 . S
C588 O590 1.267 . S
O589 C588 1.228 . S
O590 Zn577 1.969 . S
O590 C588 1.267 . S
O591 Zn577 1.965 . S
O591 C595 1.260 . S
O592 Zn576 1.969 . S
O592 C595 1.258 . S
O593 Zn577 2.024 . S
O593 C580 1.058 . S
C594 O583 1.260 . S
C594 O584 1.258 . S
C595 O591 1.260 . S
C595 O592 1.258 . S
Zn596 O602 1.969 . S
Zn596 O603 1.965 . S
Zn596 O607 2.024 . S
Zn596 O612 1.969 . S
Zn597 O604 1.969 . S
Zn597 O610 1.969 . S
Zn597 O611 1.965 . S
Zn597 O613 2.024 . S
C598 O599 1.229 . S
C598 O607 1.058 . S
O599 C598 1.229 . S
C600 O601 1.229 . S
C600 O613 1.058 . S
O601 C600 1.229 . S
O602 Zn596 1.969 . S
O602 C605 1.267 . S
O603 Zn596 1.965 . S
O603 C614 1.260 . S
O604 Zn597 1.969 . S
O604 C614 1.258 . S
C605 O602 1.267 . S
C605 O606 1.228 . S
O606 C605 1.228 . S
O607 Zn596 2.024 . S
O607 C598 1.058 . S
C608 O609 1.228 . S
C608 O610 1.267 . S
O609 C608 1.228 . S
O610 Zn597 1.969 . S
O610 C608 1.267 . S
O611 Zn597 1.965 . S
O611 C615 1.260 . S
O612 Zn596 1.969 . S
O612 C615 1.258 . S
O613 Zn597 2.024 . S
O613 C600 1.058 . S
C614 O603 1.260 . S
C614 O604 1.258 . S
C615 O611 1.260 . S
C615 O612 1.258 . S
Zn616 O622 1.969 . S
Zn616 O623 1.965 . S
Zn616 O627 2.024 . S
Zn616 O632 1.969 . S
Zn617 O624 1.969 . S
Zn617 O630 1.969 . S
Zn617 O631 1.965 . S
Zn617 O633 2.024 . S
C618 O619 1.229 . S
C618 O627 1.058 . S
O619 C618 1.229 . S
C620 O621 1.229 . S
C620 O633 1.058 . S
O621 C620 1.229 . S
O622 Zn616 1.969 . S
O622 C625 1.267 . S
O623 Zn616 1.965 . S
O623 C634 1.260 . S
O624 Zn617 1.969 . S
O624 C634 1.258 . S
C625 O622 1.267 . S
C625 O626 1.228 . S
O626 C625 1.228 . S
O627 Zn616 2.024 . S
O627 C618 1.058 . S
C628 O629 1.228 . S
C628 O630 1.267 . S
O629 C628 1.228 . S
O630 Zn617 1.969 . S
O630 C628 1.267 . S
O631 Zn617 1.965 . S
O631 C635 1.260 . S
O632 Zn616 1.969 . S
O632 C635 1.258 . S
O633 Zn617 2.024 . S
O633 C620 1.058 . S
C634 O623 1.260 . S
C634 O624 1.258 . S
C635 O631 1.260 . S
C635 O632 1.258 . S
Zn636 O642 1.969 . S
Zn636 O643 1.965 . S
Zn636 O647 2.024 1_655 S
Zn636 O652 1.969 1_655 S
Zn637 O644 1.969 1_554 S
Zn637 O650 1.969 . S
Zn637 O651 1.965 . S
Zn637 O653 2.024 . S
C638 O639 1.229 . S
C638 O647 1.058 . S
O639 C638 1.229 . S
C640 O641 1.205 1_554 S
C640 O653 1.081 . S
O641 C640 1.205 1_556 S
O642 Zn636 1.969 . S
O642 C645 1.267 . S
O643 Zn636 1.965 . S
O643 C654 1.260 1_654 S
O644 Zn637 1.969 1_556 S
O644 C654 1.258 . S
C645 O642 1.267 . S
C645 O646 1.228 . S
O646 C645 1.228 . S
O647 Zn636 2.024 1_455 S
O647 C638 1.058 . S
C648 O649 1.228 . S
C648 O650 1.267 . S
O649 C648 1.228 . S
O650 Zn637 1.969 . S
O650 C648 1.267 . S
O651 Zn637 1.965 . S
O651 C655 1.260 . S
O652 Zn636 1.969 1_455 S
O652 C655 1.258 . S
O653 Zn637 2.024 . S
O653 C640 1.081 . S
C654 O643 1.260 1_456 S
C654 O644 1.258 . S
C655 O651 1.260 . S
C655 O652 1.258 . S
H656 C662 0.930 . S
H657 C666 0.930 . S
H658 C671 0.929 . S
H659 C669 0.954 . S
H660 C664 0.929 . S
H661 C670 0.929 . S
C662 H656 0.930 . S
C662 C663 1.379 . S
C662 C670 1.378 . S
C663 C662 1.379 . S
C663 C671 1.417 1_655 S
C664 H660 0.929 . S
C664 C666 1.378 . S
C664 C668 1.350 . S
C665 C668 1.463 . S
C665 C670 1.350 1_455 S
C665 N673 1.427 . S
C666 H657 0.930 . S
C666 C664 1.378 . S
C666 C667 1.367 1_556 S
C667 C666 1.367 1_554 S
C667 C669 1.400 1_455 S
C668 C664 1.350 . S
C668 C665 1.463 . S
C668 N672 1.427 1_455 S
C669 H659 0.954 . S
C669 C667 1.400 1_655 S
C669 N672 1.392 1_554 S
C670 H661 0.929 . S
C670 C662 1.378 . S
C670 C665 1.350 1_655 S
C671 H658 0.929 . S
C671 C663 1.417 1_455 S
C671 N673 1.384 . S
N672 C668 1.427 1_655 S
N672 C669 1.392 1_556 S
N673 C665 1.427 . S
N673 C671 1.384 . S
H674 C680 0.930 . S
H675 C684 0.930 . S
H676 C689 0.929 . S
H677 C687 0.929 . S
H678 C682 0.929 . S
H679 C688 0.929 . S
C680 H674 0.930 . S
C680 C681 1.367 . S
C680 C688 1.378 . S
C681 C680 1.367 . S
C681 C689 1.433 . S
C682 H678 0.929 . S
C682 C684 1.378 . S
C682 C686 1.350 . S
C683 C686 1.463 . S
C683 C688 1.350 . S
C683 N691 1.427 . S
C684 H675 0.930 . S
C684 C682 1.378 . S
C684 C685 1.367 . S
C685 C684 1.367 . S
C685 C687 1.433 . S
C686 C682 1.350 . S
C686 C683 1.463 . S
C686 N690 1.427 . S
C687 H677 0.929 . S
C687 C685 1.433 . S
C687 N690 1.384 . S
C688 H679 0.929 . S
C688 C680 1.378 . S
C688 C683 1.350 . S
C689 H676 0.929 . S
C689 C681 1.433 . S
C689 N691 1.384 . S
N690 C686 1.427 . S
N690 C687 1.384 . S
N691 C683 1.427 . S
N691 C689 1.384 . S
H692 C698 0.930 . S
H693 C702 0.930 . S
H694 C707 0.929 . S
H695 C705 0.929 . S
H696 C700 0.929 . S
H697 C706 0.929 . S
C698 H692 0.930 . S
C698 C699 1.367 . S
C698 C706 1.378 . S
C699 C698 1.367 . S
C699 C707 1.433 . S
C700 H696 0.929 . S
C700 C702 1.378 . S
C700 C704 1.350 . S
C701 C704 1.463 . S
C701 C706 1.350 . S
C701 N709 1.427 . S
C702 H693 0.930 . S
C702 C700 1.378 . S
C702 C703 1.367 . S
C703 C702 1.367 . S
C703 C705 1.433 . S
C704 C700 1.350 . S
C704 C701 1.463 . S
C704 N708 1.427 . S
C705 H695 0.929 . S
C705 C703 1.433 . S
C705 N708 1.384 . S
C706 H697 0.929 . S
C706 C698 1.378 . S
C706 C701 1.350 . S
C707 H694 0.929 . S
C707 C699 1.433 . S
C707 N709 1.384 . S
N708 C704 1.427 . S
N708 C705 1.384 . S
N709 C701 1.427 . S
N709 C707 1.384 . S
H710 C716 0.930 . S
H711 C720 0.930 . S
H712 C725 0.929 . S
H713 C723 0.929 . S
H714 C718 0.929 . S
H715 C724 0.929 . S
C716 H710 0.930 . S
C716 C717 1.367 . S
C716 C724 1.378 . S
C717 C716 1.367 . S
C717 C725 1.433 . S
C718 H714 0.929 . S
C718 C720 1.378 . S
C718 C722 1.350 . S
C719 C722 1.463 . S
C719 C724 1.350 . S
C719 N727 1.427 . S
C720 H711 0.930 . S
C720 C718 1.378 . S
C720 C721 1.367 . S
C721 C720 1.367 . S
C721 C723 1.433 . S
C722 C718 1.350 . S
C722 C719 1.463 . S
C722 N726 1.427 . S
C723 H713 0.929 . S
C723 C721 1.433 . S
C723 N726 1.384 . S
C724 H715 0.929 . S
C724 C716 1.378 . S
C724 C719 1.350 . S
C725 H712 0.929 . S
C725 C717 1.433 . S
C725 N727 1.384 . S
N726 C722 1.427 . S
N726 C723 1.384 . S
N727 C719 1.427 . S
N727 C725 1.384 . S
H728 C734 0.930 . S
H729 C738 0.930 . S
H730 C743 0.940 . S
H731 C741 0.929 . S
H732 C736 0.929 1_655 S
H733 C742 0.929 . S
C734 H728 0.930 . S
C734 C735 1.367 . S
C734 C742 1.378 . S
C735 C734 1.367 . S
C735 C743 1.423 1_455 S
C736 H732 0.929 1_455 S
C736 C738 1.378 . S
C736 C740 1.350 . S
C737 C740 1.463 . S
C737 C742 1.350 . S
C737 N745 1.427 . S
C738 H729 0.930 . S
C738 C736 1.378 . S
C738 C739 1.367 . S
C739 C738 1.367 . S
C739 C741 1.433 . S
C740 C736 1.350 . S
C740 C737 1.463 . S
C740 N744 1.427 . S
C741 H731 0.929 . S
C741 C739 1.433 . S
C741 N744 1.384 . S
C742 H733 0.929 . S
C742 C734 1.378 . S
C742 C737 1.350 . S
C743 H730 0.940 . S
C743 C735 1.423 1_655 S
C743 N745 1.384 1_655 S
N744 C740 1.427 . S
N744 C741 1.384 . S
N745 C737 1.427 . S
N745 C743 1.384 1_455 S
H746 C752 0.930 . S
H747 C756 0.930 . S
H748 C761 0.929 . S
H749 C759 0.929 . S
H750 C754 0.929 . S
H751 C760 0.929 . S
C752 H746 0.930 . S
C752 C753 1.367 . S
C752 C760 1.378 . S
C753 C752 1.367 . S
C753 C761 1.433 . S
C754 H750 0.929 . S
C754 C756 1.378 . S
C754 C758 1.350 . S
C755 C758 1.463 . S
C755 C760 1.350 . S
C755 N763 1.427 . S
C756 H747 0.930 . S
C756 C754 1.378 . S
C756 C757 1.367 . S
C757 C756 1.367 . S
C757 C759 1.433 . S
C758 C754 1.350 . S
C758 C755 1.463 . S
C758 N762 1.427 . S
C759 H749 0.929 . S
C759 C757 1.433 . S
C759 N762 1.384 . S
C760 H751 0.929 . S
C760 C752 1.378 . S
C760 C755 1.350 . S
C761 H748 0.929 . S
C761 C753 1.433 . S
C761 N763 1.384 . S
N762 C758 1.427 . S
N762 C759 1.384 . S
N763 C755 1.427 . S
N763 C761 1.384 . S
H764 C770 0.930 . S
H765 C774 0.930 . S
H766 C779 0.929 . S
H767 C777 0.929 . S
H768 C772 0.929 . S
H769 C778 0.929 . S
C770 H764 0.930 . S
C770 C771 1.367 . S
C770 C778 1.378 . S
C771 C770 1.367 . S
C771 C779 1.433 . S
C772 H768 0.929 . S
C772 C774 1.378 . S
C772 C776 1.350 . S
C773 C776 1.463 . S
C773 C778 1.350 . S
C773 N781 1.427 . S
C774 H765 0.930 . S
C774 C772 1.378 . S
C774 C775 1.367 . S
C775 C774 1.367 . S
C775 C777 1.433 . S
C776 C772 1.350 . S
C776 C773 1.463 . S
C776 N780 1.427 . S
C777 H767 0.929 . S
C777 C775 1.433 . S
C777 N780 1.384 . S
C778 H769 0.929 . S
C778 C770 1.378 . S
C778 C773 1.350 . S
C779 H766 0.929 . S
C779 C771 1.433 . S
C779 N781 1.384 . S
N780 C776 1.427 . S
N780 C777 1.384 . S
N781 C773 1.427 . S
N781 C779 1.384 . S
H782 C788 0.930 . S
H783 C792 0.930 . S
H784 C797 0.929 . S
H785 C795 0.929 . S
H786 C790 0.929 . S
H787 C796 0.929 . S
C788 H782 0.930 . S
C788 C789 1.367 . S
C788 C796 1.378 . S
C789 C788 1.367 . S
C789 C797 1.433 . S
C790 H786 0.929 . S
C790 C792 1.378 . S
C790 C794 1.350 . S
C791 C794 1.463 . S
C791 C796 1.350 . S
C791 N799 1.427 . S
C792 H783 0.930 . S
C792 C790 1.378 . S
C792 C793 1.367 . S
C793 C792 1.367 . S
C793 C795 1.433 . S
C794 C790 1.350 . S
C794 C791 1.463 . S
C794 N798 1.427 . S
C795 H785 0.929 . S
C795 C793 1.433 . S
C795 N798 1.384 . S
C796 H787 0.929 . S
C796 C788 1.378 . S
C796 C791 1.350 . S
C797 H784 0.929 . S
C797 C789 1.433 . S
C797 N799 1.384 . S
N798 C794 1.427 . S
N798 C795 1.384 . S
N799 C791 1.427 . S
N799 C797 1.384 . S
H800 C806 0.930 . S
H801 C810 0.930 . S
H802 C815 0.929 . S
H803 C813 0.929 . S
H804 C808 0.929 . S
H805 C814 0.929 . S
C806 H800 0.930 . S
C806 C807 1.367 . S
C806 C814 1.378 . S
C807 C806 1.367 . S
C807 C815 1.433 1_545 S
C808 H804 0.929 . S
C808 C810 1.378 . S
C808 C812 1.350 1_565 S
C809 C812 1.463 . S
C809 C814 1.350 . S
C809 N817 1.427 1_545 S
C810 H801 0.930 . S
C810 C808 1.378 . S
C810 C811 1.367 1_565 S
C811 C810 1.367 1_545 S
C811 C813 1.433 . S
C812 C808 1.350 1_545 S
C812 C809 1.463 . S
C812 N816 1.427 . S
C813 H803 0.929 . S
C813 C811 1.433 . S
C813 N816 1.384 . S
C814 H805 0.929 . S
C814 C806 1.378 . S
C814 C809 1.350 . S
C815 H802 0.929 . S
C815 C807 1.433 1_565 S
C815 N817 1.384 . S
N816 C812 1.427 . S
N816 C813 1.384 . S
N817 C809 1.427 1_565 S
N817 C815 1.384 . S
H818 C824 0.930 . S
H819 C828 0.930 . S
H820 C833 0.929 . S
H821 C831 0.929 . S
H822 C826 0.929 . S
H823 C832 0.929 . S
C824 H818 0.930 . S
C824 C825 1.367 . S
C824 C832 1.378 . S
C825 C824 1.367 . S
C825 C833 1.433 . S
C826 H822 0.929 . S
C826 C828 1.378 . S
C826 C830 1.350 . S
C827 C830 1.463 . S
C827 C832 1.350 . S
C827 N835 1.427 . S
C828 H819 0.930 . S
C828 C826 1.378 . S
C828 C829 1.367 . S
C829 C828 1.367 . S
C829 C831 1.433 . S
C830 C826 1.350 . S
C830 C827 1.463 . S
C830 N834 1.427 . S
C831 H821 0.929 . S
C831 C829 1.433 . S
C831 N834 1.384 . S
C832 H823 0.929 . S
C832 C824 1.378 . S
C832 C827 1.350 . S
C833 H820 0.929 . S
C833 C825 1.433 . S
C833 N835 1.384 . S
N834 C830 1.427 . S
N834 C831 1.384 . S
N835 C827 1.427 . S
N835 C833 1.384 . S
H836 C842 0.930 . S
H837 C846 0.930 . S
H838 C851 0.929 . S
H839 C849 0.929 . S
H840 C844 0.929 . S
H841 C850 0.929 . S
C842 H836 0.930 . S
C842 C843 1.367 . S
C842 C850 1.378 . S
C843 C842 1.367 . S
C843 C851 1.433 1_565 S
C844 H840 0.929 . S
C844 C846 1.378 . S
C844 C848 1.351 . S
C845 C848 1.462 1_565 S
C845 C850 1.350 . S
C845 N853 1.427 1_565 S
C846 H837 0.930 . S
C846 C844 1.378 . S
C846 C847 1.367 . S
C847 C846 1.367 . S
C847 C849 1.433 1_545 S
C848 C844 1.351 . S
C848 C845 1.462 1_545 S
C848 N852 1.426 1_545 S
C849 H839 0.929 . S
C849 C847 1.433 1_565 S
C849 N852 1.384 . S
C850 H841 0.929 . S
C850 C842 1.378 . S
C850 C845 1.350 . S
C851 H838 0.929 . S
C851 C843 1.433 1_545 S
C851 N853 1.384 . S
N852 C848 1.426 1_565 S
N852 C849 1.384 . S
N853 C845 1.427 1_545 S
N853 C851 1.384 . S
H854 C860 0.930 . S
H855 C864 0.930 . S
H856 C869 0.929 . S
H857 C867 0.929 . S
H858 C862 0.929 . S
H859 C868 0.929 . S
C860 H854 0.930 . S
C860 C861 1.367 . S
C860 C868 1.378 . S
C861 C860 1.367 . S
C861 C869 1.433 . S
C862 H858 0.929 . S
C862 C864 1.378 . S
C862 C866 1.350 . S
C863 C866 1.463 . S
C863 C868 1.350 . S
C863 N871 1.427 . S
C864 H855 0.930 . S
C864 C862 1.378 . S
C864 C865 1.367 . S
C865 C864 1.367 . S
C865 C867 1.433 . S
C866 C862 1.350 . S
C866 C863 1.463 . S
C866 N870 1.427 . S
C867 H857 0.929 . S
C867 C865 1.433 . S
C867 N870 1.384 . S
C868 H859 0.929 . S
C868 C860 1.378 . S
C868 C863 1.350 . S
C869 H856 0.929 . S
C869 C861 1.433 . S
C869 N871 1.384 . S
N870 C866 1.427 . S
N870 C867 1.384 . S
N871 C863 1.427 . S
N871 C869 1.384 . S
H872 C878 0.930 . S
H873 C882 0.930 1_455 S
H874 C887 0.929 . S
H875 C885 0.929 . S
H876 C880 0.929 . S
H877 C886 0.929 . S
C878 H872 0.930 . S
C878 C879 1.367 . S
C878 C886 1.378 . S
C879 C878 1.367 . S
C879 C887 1.433 1_545 S
C880 H876 0.929 . S
C880 C882 1.378 . S
C880 C884 1.350 1_565 S
C881 C884 1.463 . S
C881 C886 1.350 . S
C881 N889 1.427 1_545 S
C882 H873 0.930 1_655 S
C882 C880 1.378 . S
C882 C883 1.367 1_565 S
C883 C882 1.367 1_545 S
C883 C885 1.433 . S
C884 C880 1.350 1_545 S
C884 C881 1.463 . S
C884 N888 1.427 . S
C885 H875 0.929 . S
C885 C883 1.433 . S
C885 N888 1.384 . S
C886 H877 0.929 . S
C886 C878 1.378 . S
C886 C881 1.350 . S
C887 H874 0.929 . S
C887 C879 1.433 1_565 S
C887 N889 1.384 . S
N888 C884 1.427 . S
N888 C885 1.384 . S
N889 C881 1.427 1_565 S
N889 C887 1.384 . S
H890 C896 0.930 . S
H891 C900 0.930 . S
H892 C905 0.929 . S
H893 C903 0.929 . S
H894 C898 0.929 . S
H895 C904 0.929 . S
C896 H890 0.930 . S
C896 C897 1.367 . S
C896 C904 1.378 . S
C897 C896 1.367 . S
C897 C905 1.433 . S
C898 H894 0.929 . S
C898 C900 1.378 . S
C898 C902 1.350 . S
C899 C902 1.463 . S
C899 C904 1.350 . S
C899 N907 1.427 . S
C900 H891 0.930 . S
C900 C898 1.378 . S
C900 C901 1.367 . S
C901 C900 1.367 . S
C901 C903 1.433 . S
C902 C898 1.350 . S
C902 C899 1.463 . S
C902 N906 1.427 . S
C903 H893 0.929 . S
C903 C901 1.433 . S
C903 N906 1.384 . S
C904 H895 0.929 . S
C904 C896 1.378 . S
C904 C899 1.350 . S
C905 H892 0.929 . S
C905 C897 1.433 . S
C905 N907 1.384 . S
N906 C902 1.427 . S
N906 C903 1.384 . S
N907 C899 1.427 . S
N907 C905 1.384 . S
H908 C914 0.930 . S
H909 C918 0.930 . S
H910 C923 0.929 . S
H911 C921 0.929 1_565 S
H912 C916 0.929 . S
H913 C922 0.929 . S
C914 H908 0.930 . S
C914 C915 1.367 1_565 S
C914 C922 1.378 . S
C915 C914 1.367 1_545 S
C915 C923 1.433 . S
C916 H912 0.929 . S
C916 C918 1.378 . S
C916 C920 1.350 . S
C917 C920 1.463 . S
C917 C922 1.350 1_545 S
C917 N925 1.427 . S
C918 H909 0.930 . S
C918 C916 1.378 . S
C918 C919 1.367 . S
C919 C918 1.367 . S
C919 C921 1.433 . S
C920 C916 1.350 . S
C920 C917 1.463 . S
C920 N924 1.427 1_545 S
C921 H911 0.929 1_545 S
C921 C919 1.433 . S
C921 N924 1.384 1_545 S
C922 H913 0.929 . S
C922 C914 1.378 . S
C922 C917 1.350 1_565 S
C923 H910 0.929 . S
C923 C915 1.433 . S
C923 N925 1.384 . S
N924 C920 1.427 1_565 S
N924 C921 1.384 1_565 S
N925 C917 1.427 . S
N925 C923 1.384 . S
H926 C932 0.930 . S
H927 C936 0.930 . S
H928 C941 0.929 . S
H929 C939 0.929 . S
H930 C934 0.929 . S
H931 C940 0.929 . S
C932 H926 0.930 . S
C932 C933 1.367 . S
C932 C940 1.378 . S
C933 C932 1.367 . S
C933 C941 1.433 . S
C934 H930 0.929 . S
C934 C936 1.378 . S
C934 C938 1.350 . S
C935 C938 1.463 . S
C935 C940 1.350 . S
C935 N943 1.427 . S
C936 H927 0.930 . S
C936 C934 1.378 . S
C936 C937 1.367 . S
C937 C936 1.367 . S
C937 C939 1.433 . S
C938 C934 1.350 . S
C938 C935 1.463 . S
C938 N942 1.427 . S
C939 H929 0.929 . S
C939 C937 1.433 . S
C939 N942 1.384 . S
C940 H931 0.929 . S
C940 C932 1.378 . S
C940 C935 1.350 . S
C941 H928 0.929 . S
C941 C933 1.433 . S
C941 N943 1.384 . S
N942 C938 1.427 . S
N942 C939 1.384 . S
N943 C935 1.427 . S
N943 C941 1.384 . S
H944 C950 0.930 . S
H945 C954 0.930 . S
H946 C959 0.929 . S
H947 C957 0.929 . S
H948 C952 0.929 1_556 S
H949 C958 0.929 . S
C950 H944 0.930 . S
C950 C951 1.367 . S
C950 C958 1.378 . S
C951 C950 1.367 . S
C951 C959 1.433 1_554 S
C952 H948 0.929 1_554 S
C952 C954 1.378 . S
C952 C956 1.350 . S
C953 C956 1.463 . S
C953 C958 1.350 . S
C953 N961 1.427 . S
C954 H945 0.930 . S
C954 C952 1.378 . S
C954 C955 1.367 . S
C955 C954 1.367 . S
C955 C957 1.433 . S
C956 C952 1.350 . S
C956 C953 1.463 . S
C956 N960 1.427 . S
C957 H947 0.929 . S
C957 C955 1.433 . S
C957 N960 1.384 . S
C958 H949 0.929 . S
C958 C950 1.378 . S
C958 C953 1.350 . S
C959 H946 0.929 . S
C959 C951 1.433 1_556 S
C959 N961 1.384 1_556 S
N960 C956 1.427 . S
N960 C957 1.384 . S
N961 C953 1.427 . S
N961 C959 1.384 1_554 S
H962 C968 0.930 . S
H963 C972 0.930 . S
H964 C977 0.929 . S
H965 C975 0.929 . S
H966 C970 0.929 . S
H967 C976 0.929 . S
C968 H962 0.930 . S
C968 C969 1.341 1_554 S
C968 C976 1.378 . S
C969 C968 1.341 1_556 S
C969 C977 1.452 . S
C970 H966 0.929 . S
C970 C972 1.378 . S
C970 C974 1.350 1_556 S
C971 C974 1.463 . S
C971 C976 1.350 . S
C971 N979 1.427 1_554 S
C972 H963 0.930 . S
C972 C970 1.378 . S
C972 C973 1.367 1_556 S
C973 C972 1.367 1_554 S
C973 C975 1.433 . S
C974 C970 1.350 1_554 S
C974 C971 1.463 . S
C974 N978 1.427 . S
C975 H965 0.929 . S
C975 C973 1.433 . S
C975 N978 1.384 . S
C976 H967 0.929 . S
C976 C968 1.378 . S
C976 C971 1.350 . S
C977 H964 0.929 . S
C977 C969 1.452 . S
C977 N979 1.384 . S
N978 C974 1.427 . S
N978 C975 1.384 . S
N979 C971 1.427 1_556 S
N979 C977 1.384 . S
H980 C986 0.930 . S
H981 C990 0.930 . S
H982 C995 0.929 . S
H983 C993 0.929 . S
H984 C988 0.929 . S
H985 C994 0.929 . S
C986 H980 0.930 . S
C986 C987 1.367 . S
C986 C994 1.378 . S
C987 C986 1.367 . S
C987 C995 1.433 . S
C988 H984 0.929 . S
C988 C990 1.378 . S
C988 C992 1.350 . S
C989 C992 1.463 . S
C989 C994 1.350 . S
C989 N997 1.427 . S
C990 H981 0.930 . S
C990 C988 1.378 . S
C990 C991 1.367 . S
C991 C990 1.367 . S
C991 C993 1.433 . S
C992 C988 1.350 . S
C992 C989 1.463 . S
C992 N996 1.427 . S
C993 H983 0.929 . S
C993 C991 1.433 . S
C993 N996 1.384 . S
C994 H985 0.929 . S
C994 C986 1.378 . S
C994 C989 1.350 . S
C995 H982 0.929 . S
C995 C987 1.433 . S
C995 N997 1.384 . S
N996 C992 1.427 . S
N996 C993 1.384 . S
N997 C989 1.427 . S
N997 C995 1.384 . S
H998 C1004 0.930 . S
H999 C1008 0.930 . S
H1000 C1013 0.929 . S
H1001 C1011 0.929 . S
H1002 C1006 0.929 . S
H1003 C1012 0.929 . S
C1004 H998 0.930 . S
C1004 C1005 1.367 . S
C1004 C1012 1.378 . S
C1005 C1004 1.367 . S
C1005 C1013 1.433 . S
C1006 H1002 0.929 . S
C1006 C1008 1.378 . S
C1006 C1010 1.350 . S
C1007 C1010 1.463 . S
C1007 C1012 1.350 . S
C1007 N1015 1.427 . S
C1008 H999 0.930 . S
C1008 C1006 1.378 . S
C1008 C1009 1.367 . S
C1009 C1008 1.367 . S
C1009 C1011 1.433 . S
C1010 C1006 1.350 . S
C1010 C1007 1.463 . S
C1010 N1014 1.427 . S
C1011 H1001 0.929 . S
C1011 C1009 1.433 . S
C1011 N1014 1.384 . S
C1012 H1003 0.929 . S
C1012 C1004 1.378 . S
C1012 C1007 1.350 . S
C1013 H1000 0.929 . S
C1013 C1005 1.433 . S
C1013 N1015 1.384 . S
N1014 C1010 1.427 . S
N1014 C1011 1.384 . S
N1015 C1007 1.427 . S
N1015 C1013 1.384 . S
H1016 C1022 0.930 . S
H1017 C1026 0.930 . S
H1018 C1031 0.929 . S
H1019 C1029 0.929 . S
H1020 C1024 0.929 . S
H1021 C1030 0.929 . S
C1022 H1016 0.930 . S
C1022 C1023 1.367 . S
C1022 C1030 1.378 . S
C1023 C1022 1.367 . S
C1023 C1031 1.433 . S
C1024 H1020 0.929 . S
C1024 C1026 1.378 . S
C1024 C1028 1.350 . S
C1025 C1028 1.463 . S
C1025 C1030 1.350 . S
C1025 N1033 1.427 . S
C1026 H1017 0.930 . S
C1026 C1024 1.378 . S
C1026 C1027 1.367 . S
C1027 C1026 1.367 . S
C1027 C1029 1.433 . S
C1028 C1024 1.350 . S
C1028 C1025 1.463 . S
C1028 N1032 1.427 . S
C1029 H1019 0.929 . S
C1029 C1027 1.433 . S
C1029 N1032 1.384 . S
C1030 H1021 0.929 . S
C1030 C1022 1.378 . S
C1030 C1025 1.350 . S
C1031 H1018 0.929 . S
C1031 C1023 1.433 . S
C1031 N1033 1.384 . S
N1032 C1028 1.427 . S
N1032 C1029 1.384 . S
N1033 C1025 1.427 . S
N1033 C1031 1.384 . S
H1034 C1040 0.930 . S
H1035 C1044 0.930 . S
H1036 C1049 0.929 . S
H1037 C1047 0.929 . S
H1038 C1042 0.929 . S
H1039 C1048 0.929 . S
C1040 H1034 0.930 . S
C1040 C1041 1.367 . S
C1040 C1048 1.378 . S
C1041 C1040 1.367 . S
C1041 C1049 1.433 . S
C1042 H1038 0.929 . S
C1042 C1044 1.378 . S
C1042 C1046 1.350 . S
C1043 C1046 1.463 . S
C1043 C1048 1.350 . S
C1043 N1051 1.427 . S
C1044 H1035 0.930 . S
C1044 C1042 1.378 . S
C1044 C1045 1.367 . S
C1045 C1044 1.367 . S
C1045 C1047 1.433 . S
C1046 C1042 1.350 . S
C1046 C1043 1.463 . S
C1046 N1050 1.427 . S
C1047 H1037 0.929 . S
C1047 C1045 1.433 . S
C1047 N1050 1.384 . S
C1048 H1039 0.929 . S
C1048 C1040 1.378 . S
C1048 C1043 1.350 . S
C1049 H1036 0.929 . S
C1049 C1041 1.433 . S
C1049 N1051 1.384 . S
N1050 C1046 1.427 . S
N1050 C1047 1.384 . S
N1051 C1043 1.427 . S
N1051 C1049 1.384 . S
H1052 C1058 0.930 . S
H1053 C1062 0.930 . S
H1054 C1067 0.929 . S
H1055 C1065 0.929 . S
H1056 C1060 0.929 . S
H1057 C1066 0.929 . S
C1058 H1052 0.930 . S
C1058 C1059 1.367 . S
C1058 C1066 1.378 . S
C1059 C1058 1.367 . S
C1059 C1067 1.433 . S
C1060 H1056 0.929 . S
C1060 C1062 1.378 . S
C1060 C1064 1.350 . S
C1061 C1064 1.463 . S
C1061 C1066 1.350 . S
C1061 N1069 1.427 . S
C1062 H1053 0.930 . S
C1062 C1060 1.378 . S
C1062 C1063 1.367 . S
C1063 C1062 1.367 . S
C1063 C1065 1.433 . S
C1064 C1060 1.350 . S
C1064 C1061 1.463 . S
C1064 N1068 1.427 . S
C1065 H1055 0.929 . S
C1065 C1063 1.433 . S
C1065 N1068 1.384 . S
C1066 H1057 0.929 . S
C1066 C1058 1.378 . S
C1066 C1061 1.350 . S
C1067 H1054 0.929 . S
C1067 C1059 1.433 . S
C1067 N1069 1.384 . S
N1068 C1064 1.427 . S
N1068 C1065 1.384 . S
N1069 C1061 1.427 . S
N1069 C1067 1.384 . S
H1070 C1076 0.930 . S
H1071 C1080 0.930 . S
H1072 C1085 0.929 . S
H1073 C1083 0.929 . S
H1074 C1078 0.929 . S
H1075 C1084 0.929 . S
C1076 H1070 0.930 . S
C1076 C1077 1.367 . S
C1076 C1084 1.378 . S
C1077 C1076 1.367 . S
C1077 C1085 1.433 . S
C1078 H1074 0.929 . S
C1078 C1080 1.378 . S
C1078 C1082 1.350 . S
C1079 C1082 1.463 . S
C1079 C1084 1.350 . S
C1079 N1087 1.427 . S
C1080 H1071 0.930 . S
C1080 C1078 1.378 . S
C1080 C1081 1.367 . S
C1081 C1080 1.367 . S
C1081 C1083 1.433 . S
C1082 C1078 1.350 . S
C1082 C1079 1.463 . S
C1082 N1086 1.427 . S
C1083 H1073 0.929 . S
C1083 C1081 1.433 . S
C1083 N1086 1.384 . S
C1084 H1075 0.929 . S
C1084 C1076 1.378 . S
C1084 C1079 1.350 . S
C1085 H1072 0.929 . S
C1085 C1077 1.433 . S
C1085 N1087 1.384 . S
N1086 C1082 1.427 . S
N1086 C1083 1.384 . S
N1087 C1079 1.427 . S
N1087 C1085 1.384 . S
H1088 C1094 0.930 . S
H1089 C1098 0.930 1_655 S
H1090 C1103 0.929 . S
H1091 C1101 0.929 . S
H1092 C1096 0.929 1_655 S
H1093 C1102 0.929 . S
C1094 H1088 0.930 . S
C1094 C1095 1.367 . S
C1094 C1102 1.378 . S
C1095 C1094 1.367 . S
C1095 C1103 1.433 . S
C1096 H1092 0.929 1_455 S
C1096 C1098 1.378 . S
C1096 C1100 1.350 . S
C1097 C1100 1.463 . S
C1097 C1102 1.350 . S
C1097 N1105 1.427 . S
C1098 H1089 0.930 1_455 S
C1098 C1096 1.378 . S
C1098 C1099 1.367 . S
C1099 C1098 1.367 . S
C1099 C1101 1.433 . S
C1100 C1096 1.350 . S
C1100 C1097 1.463 . S
C1100 N1104 1.427 . S
C1101 H1091 0.929 . S
C1101 C1099 1.433 . S
C1101 N1104 1.384 . S
C1102 H1093 0.929 . S
C1102 C1094 1.378 . S
C1102 C1097 1.350 . S
C1103 H1090 0.929 . S
C1103 C1095 1.433 . S
C1103 N1105 1.384 . S
N1104 C1100 1.427 . S
N1104 C1101 1.384 . S
N1105 C1097 1.427 . S
N1105 C1103 1.384 . S
H1106 C1112 0.930 . S
H1107 C1116 0.930 . S
H1108 C1121 0.929 . S
H1109 C1119 0.929 . S
H1110 C1114 0.929 . S
H1111 C1120 0.929 . S
C1112 H1106 0.930 . S
C1112 C1113 1.367 . S
C1112 C1120 1.378 . S
C1113 C1112 1.367 . S
C1113 C1121 1.433 . S
C1114 H1110 0.929 . S
C1114 C1116 1.378 . S
C1114 C1118 1.350 . S
C1115 C1118 1.463 . S
C1115 C1120 1.350 . S
C1115 N1123 1.427 . S
C1116 H1107 0.930 . S
C1116 C1114 1.378 . S
C1116 C1117 1.367 . S
C1117 C1116 1.367 . S
C1117 C1119 1.433 . S
C1118 C1114 1.350 . S
C1118 C1115 1.463 . S
C1118 N1122 1.427 . S
C1119 H1109 0.929 . S
C1119 C1117 1.433 . S
C1119 N1122 1.384 . S
C1120 H1111 0.929 . S
C1120 C1112 1.378 . S
C1120 C1115 1.350 . S
C1121 H1108 0.929 . S
C1121 C1113 1.433 . S
C1121 N1123 1.384 . S
N1122 C1118 1.427 . S
N1122 C1119 1.384 . S
N1123 C1115 1.427 . S
N1123 C1121 1.384 . S
H1124 C1130 0.930 . S
H1125 C1134 0.930 . S
H1126 C1139 0.929 . S
H1127 C1137 0.929 . S
H1128 C1132 0.929 . S
H1129 C1138 0.929 . S
C1130 H1124 0.930 . S
C1130 C1131 1.367 . S
C1130 C1138 1.378 . S
C1131 C1130 1.367 . S
C1131 C1139 1.433 . S
C1132 H1128 0.929 . S
C1132 C1134 1.378 . S
C1132 C1136 1.350 . S
C1133 C1136 1.463 . S
C1133 C1138 1.350 . S
C1133 N1141 1.427 . S
C1134 H1125 0.930 . S
C1134 C1132 1.378 . S
C1134 C1135 1.367 . S
C1135 C1134 1.367 . S
C1135 C1137 1.433 . S
C1136 C1132 1.350 . S
C1136 C1133 1.463 . S
C1136 N1140 1.427 . S
C1137 H1127 0.929 . S
C1137 C1135 1.433 . S
C1137 N1140 1.384 . S
C1138 H1129 0.929 . S
C1138 C1130 1.378 . S
C1138 C1133 1.350 . S
C1139 H1126 0.929 . S
C1139 C1131 1.433 . S
C1139 N1141 1.384 . S
N1140 C1136 1.427 . S
N1140 C1137 1.384 . S
N1141 C1133 1.427 . S
N1141 C1139 1.384 . S
H1142 C1148 0.930 . S
H1143 C1152 0.930 . S
H1144 C1157 0.929 . S
H1145 C1155 0.929 . S
H1146 C1150 0.929 . S
H1147 C1156 0.929 . S
C1148 H1142 0.930 . S
C1148 C1149 1.367 . S
C1148 C1156 1.378 . S
C1149 C1148 1.367 . S
C1149 C1157 1.433 . S
C1150 H1146 0.929 . S
C1150 C1152 1.378 . S
C1150 C1154 1.350 . S
C1151 C1154 1.463 . S
C1151 C1156 1.350 . S
C1151 N1159 1.427 . S
C1152 H1143 0.930 . S
C1152 C1150 1.378 . S
C1152 C1153 1.367 . S
C1153 C1152 1.367 . S
C1153 C1155 1.433 . S
C1154 C1150 1.350 . S
C1154 C1151 1.463 . S
C1154 N1158 1.427 . S
C1155 H1145 0.929 . S
C1155 C1153 1.433 . S
C1155 N1158 1.384 . S
C1156 H1147 0.929 . S
C1156 C1148 1.378 . S
C1156 C1151 1.350 . S
C1157 H1144 0.929 . S
C1157 C1149 1.433 . S
C1157 N1159 1.384 . S
N1158 C1154 1.427 . S
N1158 C1155 1.384 . S
N1159 C1151 1.427 . S
N1159 C1157 1.384 . S
H1160 C1166 0.930 1_655 S
H1161 C1170 0.930 . S
H1162 C1175 0.929 . S
H1163 C1173 0.929 . S
H1164 C1168 0.929 . S
H1165 C1174 0.929 1_655 S
C1166 H1160 0.930 1_455 S
C1166 C1167 1.367 . S
C1166 C1174 1.378 . S
C1167 C1166 1.367 . S
C1167 C1175 1.433 . S
C1168 H1164 0.929 . S
C1168 C1170 1.378 . S
C1168 C1172 1.350 . S
C1169 C1172 1.463 . S
C1169 C1174 1.350 . S
C1169 N1177 1.427 . S
C1170 H1161 0.930 . S
C1170 C1168 1.378 . S
C1170 C1171 1.367 . S
C1171 C1170 1.367 . S
C1171 C1173 1.433 1_455 S
C1172 C1168 1.350 . S
C1172 C1169 1.463 . S
C1172 N1176 1.427 1_455 S
C1173 H1163 0.929 . S
C1173 C1171 1.433 1_655 S
C1173 N1176 1.384 . S
C1174 H1165 0.929 1_455 S
C1174 C1166 1.378 . S
C1174 C1169 1.350 . S
C1175 H1162 0.929 . S
C1175 C1167 1.433 . S
C1175 N1177 1.384 . S
N1176 C1172 1.427 1_655 S
N1176 C1173 1.384 . S
N1177 C1169 1.427 . S
N1177 C1175 1.384 . S
H1178 C1184 0.930 . S
H1179 C1188 0.930 . S
H1180 C1193 0.929 . S
H1181 C1191 0.929 . S
H1182 C1186 0.929 . S
H1183 C1192 0.929 . S
C1184 H1178 0.930 . S
C1184 C1185 1.367 . S
C1184 C1192 1.378 . S
C1185 C1184 1.367 . S
C1185 C1193 1.433 . S
C1186 H1182 0.929 . S
C1186 C1188 1.378 . S
C1186 C1190 1.350 . S
C1187 C1190 1.463 . S
C1187 C1192 1.350 . S
C1187 N1195 1.427 . S
C1188 H1179 0.930 . S
C1188 C1186 1.378 . S
C1188 C1189 1.367 . S
C1189 C1188 1.367 . S
C1189 C1191 1.433 . S
C1190 C1186 1.350 . S
C1190 C1187 1.463 . S
C1190 N1194 1.427 . S
C1191 H1181 0.929 . S
C1191 C1189 1.433 . S
C1191 N1194 1.384 . S
C1192 H1183 0.929 . S
C1192 C1184 1.378 . S
C1192 C1187 1.350 . S
C1193 H1180 0.929 . S
C1193 C1185 1.433 . S
C1193 N1195 1.384 . S
N1194 C1190 1.427 . S
N1194 C1191 1.384 . S
N1195 C1187 1.427 . S
N1195 C1193 1.384 . S
H1196 C1202 0.930 . S
H1197 C1206 0.930 . S
H1198 C1211 0.929 . S
H1199 C1209 0.929 . S
H1200 C1204 0.929 . S
H1201 C1210 0.929 . S
C1202 H1196 0.930 . S
C1202 C1203 1.367 . S
C1202 C1210 1.378 . S
C1203 C1202 1.367 . S
C1203 C1211 1.433 . S
C1204 H1200 0.929 . S
C1204 C1206 1.378 . S
C1204 C1208 1.350 . S
C1205 C1208 1.463 . S
C1205 C1210 1.350 . S
C1205 N1213 1.427 . S
C1206 H1197 0.930 . S
C1206 C1204 1.378 . S
C1206 C1207 1.367 . S
C1207 C1206 1.367 . S
C1207 C1209 1.433 1_556 S
C1208 C1204 1.350 . S
C1208 C1205 1.463 . S
C1208 N1212 1.427 . S
C1209 H1199 0.929 . S
C1209 C1207 1.433 1_554 S
C1209 N1212 1.384 1_554 S
C1210 H1201 0.929 . S
C1210 C1202 1.378 . S
C1210 C1205 1.350 . S
C1211 H1198 0.929 . S
C1211 C1203 1.433 . S
C1211 N1213 1.384 . S
N1212 C1208 1.427 . S
N1212 C1209 1.384 1_556 S
N1213 C1205 1.427 . S
N1213 C1211 1.384 . S
H1214 C1220 0.930 . S
H1215 C1224 0.930 . S
H1216 C1229 0.929 . S
H1217 C1227 0.929 . S
H1218 C1222 0.929 . S
H1219 C1228 0.929 . S
C1220 H1214 0.930 . S
C1220 C1221 1.367 . S
C1220 C1228 1.378 . S
C1221 C1220 1.367 . S
C1221 C1229 1.433 . S
C1222 H1218 0.929 . S
C1222 C1224 1.378 . S
C1222 C1226 1.350 . S
C1223 C1226 1.463 . S
C1223 C1228 1.350 . S
C1223 N1231 1.427 . S
C1224 H1215 0.930 . S
C1224 C1222 1.378 . S
C1224 C1225 1.367 . S
C1225 C1224 1.367 . S
C1225 C1227 1.433 . S
C1226 C1222 1.350 . S
C1226 C1223 1.463 . S
C1226 N1230 1.427 . S
C1227 H1217 0.929 . S
C1227 C1225 1.433 . S
C1227 N1230 1.384 . S
C1228 H1219 0.929 . S
C1228 C1220 1.378 . S
C1228 C1223 1.350 . S
C1229 H1216 0.929 . S
C1229 C1221 1.433 . S
C1229 N1231 1.384 . S
N1230 C1226 1.427 . S
N1230 C1227 1.384 . S
N1231 C1223 1.427 . S
N1231 C1229 1.384 . S
H1232 C1238 0.930 . S
H1233 C1242 0.930 . S
H1234 C1247 0.929 . S
H1235 C1245 0.929 . S
H1236 C1240 0.929 . S
H1237 C1246 0.929 . S
C1238 H1232 0.930 . S
C1238 C1239 1.367 . S
C1238 C1246 1.378 . S
C1239 C1238 1.367 . S
C1239 C1247 1.433 . S
C1240 H1236 0.929 . S
C1240 C1242 1.378 . S
C1240 C1244 1.350 . S
C1241 C1244 1.463 . S
C1241 C1246 1.350 . S
C1241 N1249 1.427 . S
C1242 H1233 0.930 . S
C1242 C1240 1.378 . S
C1242 C1243 1.367 . S
C1243 C1242 1.367 . S
C1243 C1245 1.433 . S
C1244 C1240 1.350 . S
C1244 C1241 1.463 . S
C1244 N1248 1.427 . S
C1245 H1235 0.929 . S
C1245 C1243 1.433 . S
C1245 N1248 1.384 . S
C1246 H1237 0.929 . S
C1246 C1238 1.378 . S
C1246 C1241 1.350 . S
C1247 H1234 0.929 . S
C1247 C1239 1.433 . S
C1247 N1249 1.384 . S
N1248 C1244 1.427 . S
N1248 C1245 1.384 . S
N1249 C1241 1.427 . S
N1249 C1247 1.384 . S
H1250 C1256 0.930 . S
H1251 C1260 0.930 . S
H1252 C1265 0.929 . S
H1253 C1263 0.929 . S
H1254 C1258 0.929 . S
H1255 C1264 0.929 . S
C1256 H1250 0.930 . S
C1256 C1257 1.367 . S
C1256 C1264 1.378 . S
C1257 C1256 1.367 . S
C1257 C1265 1.433 . S
C1258 H1254 0.929 . S
C1258 C1260 1.378 . S
C1258 C1262 1.350 . S
C1259 C1262 1.463 . S
C1259 C1264 1.350 . S
C1259 N1267 1.427 . S
C1260 H1251 0.930 . S
C1260 C1258 1.378 . S
C1260 C1261 1.367 . S
C1261 C1260 1.367 . S
C1261 C1263 1.433 . S
C1262 C1258 1.350 . S
C1262 C1259 1.463 . S
C1262 N1266 1.427 . S
C1263 H1253 0.929 . S
C1263 C1261 1.433 . S
C1263 N1266 1.384 . S
C1264 H1255 0.929 . S
C1264 C1256 1.378 . S
C1264 C1259 1.350 . S
C1265 H1252 0.929 . S
C1265 C1257 1.433 . S
C1265 N1267 1.384 . S
N1266 C1262 1.427 . S
N1266 C1263 1.384 . S
N1267 C1259 1.427 . S
N1267 C1265 1.384 . S
H1268 C1274 0.930 . S
H1269 C1278 0.930 1_565 S
H1270 C1283 0.929 1_565 S
H1271 C1281 0.929 . S
H1272 C1276 0.929 1_565 S
H1273 C1282 0.929 . S
C1274 H1268 0.930 . S
C1274 C1275 1.367 . S
C1274 C1282 1.378 . S
C1275 C1274 1.367 . S
C1275 C1283 1.433 . S
C1276 H1272 0.929 1_545 S
C1276 C1278 1.378 . S
C1276 C1280 1.350 . S
C1277 C1280 1.463 . S
C1277 C1282 1.350 . S
C1277 N1285 1.427 . S
C1278 H1269 0.930 1_545 S
C1278 C1276 1.378 . S
C1278 C1279 1.367 . S
C1279 C1278 1.367 . S
C1279 C1281 1.433 . S
C1280 C1276 1.350 . S
C1280 C1277 1.463 . S
C1280 N1284 1.427 . S
C1281 H1271 0.929 . S
C1281 C1279 1.433 . S
C1281 N1284 1.384 . S
C1282 H1273 0.929 . S
C1282 C1274 1.378 . S
C1282 C1277 1.350 . S
C1283 H1270 0.929 1_545 S
C1283 C1275 1.433 . S
C1283 N1285 1.384 . S
N1284 C1280 1.427 . S
N1284 C1281 1.384 . S
N1285 C1277 1.427 . S
N1285 C1283 1.384 . S
H1286 C1292 0.930 . S
H1287 C1296 0.930 . S
H1288 C1301 0.929 . S
H1289 C1299 0.929 . S
H1290 C1294 0.929 . S
H1291 C1300 0.929 . S
C1292 H1286 0.930 . S
C1292 C1293 1.367 . S
C1292 C1300 1.378 . S
C1293 C1292 1.367 . S
C1293 C1301 1.433 . S
C1294 H1290 0.929 . S
C1294 C1296 1.378 . S
C1294 C1298 1.350 . S
C1295 C1298 1.463 . S
C1295 C1300 1.350 . S
C1295 N1303 1.427 . S
C1296 H1287 0.930 . S
C1296 C1294 1.378 . S
C1296 C1297 1.367 . S
C1297 C1296 1.367 . S
C1297 C1299 1.433 . S
C1298 C1294 1.350 . S
C1298 C1295 1.463 . S
C1298 N1302 1.427 . S
C1299 H1289 0.929 . S
C1299 C1297 1.433 . S
C1299 N1302 1.384 . S
C1300 H1291 0.929 . S
C1300 C1292 1.378 . S
C1300 C1295 1.350 . S
C1301 H1288 0.929 . S
C1301 C1293 1.433 . S
C1301 N1303 1.384 . S
N1302 C1298 1.427 . S
N1302 C1299 1.384 . S
N1303 C1295 1.427 . S
N1303 C1301 1.384 . S
H1304 C1310 0.930 . S
H1305 C1314 0.930 . S
H1306 C1319 0.929 . S
H1307 C1317 0.929 . S
H1308 C1312 0.929 . S
H1309 C1318 0.929 . S
C1310 H1304 0.930 . S
C1310 C1311 1.367 . S
C1310 C1318 1.378 . S
C1311 C1310 1.367 . S
C1311 C1319 1.433 1_545 S
C1312 H1308 0.929 . S
C1312 C1314 1.378 . S
C1312 C1316 1.350 1_565 S
C1313 C1316 1.463 . S
C1313 C1318 1.350 . S
C1313 N1321 1.427 1_545 S
C1314 H1305 0.930 . S
C1314 C1312 1.378 . S
C1314 C1315 1.367 1_565 S
C1315 C1314 1.367 1_545 S
C1315 C1317 1.433 . S
C1316 C1312 1.350 1_545 S
C1316 C1313 1.463 . S
C1316 N1320 1.427 . S
C1317 H1307 0.929 . S
C1317 C1315 1.433 . S
C1317 N1320 1.384 . S
C1318 H1309 0.929 . S
C1318 C1310 1.378 . S
C1318 C1313 1.350 . S
C1319 H1306 0.929 . S
C1319 C1311 1.433 1_565 S
C1319 N1321 1.384 . S
N1320 C1316 1.427 . S
N1320 C1317 1.384 . S
N1321 C1313 1.427 1_565 S
N1321 C1319 1.384 . S
H1322 C1328 0.930 . S
H1323 C1332 0.930 . S
H1324 C1337 0.929 . S
H1325 C1335 0.929 . S
H1326 C1330 0.929 . S
H1327 C1336 0.929 . S
C1328 H1322 0.930 . S
C1328 C1329 1.367 . S
C1328 C1336 1.378 . S
C1329 C1328 1.367 . S
C1329 C1337 1.433 . S
C1330 H1326 0.929 . S
C1330 C1332 1.378 . S
C1330 C1334 1.350 . S
C1331 C1334 1.463 . S
C1331 C1336 1.350 . S
C1331 N1339 1.427 . S
C1332 H1323 0.930 . S
C1332 C1330 1.378 . S
C1332 C1333 1.367 . S
C1333 C1332 1.367 . S
C1333 C1335 1.433 . S
C1334 C1330 1.350 . S
C1334 C1331 1.463 . S
C1334 N1338 1.427 . S
C1335 H1325 0.929 . S
C1335 C1333 1.433 . S
C1335 N1338 1.384 . S
C1336 H1327 0.929 . S
C1336 C1328 1.378 . S
C1336 C1331 1.350 . S
C1337 H1324 0.929 . S
C1337 C1329 1.433 . S
C1337 N1339 1.384 . S
N1338 C1334 1.427 . S
N1338 C1335 1.384 . S
N1339 C1331 1.427 . S
N1339 C1337 1.384 . S
H1340 C1346 0.930 . S
H1341 C1350 0.930 . S
H1342 C1355 0.929 . S
H1343 C1353 0.929 . S
H1344 C1348 0.929 . S
H1345 C1354 0.929 . S
C1346 H1340 0.930 . S
C1346 C1347 1.367 . S
C1346 C1354 1.378 . S
C1347 C1346 1.367 . S
C1347 C1355 1.433 1_545 S
C1348 H1344 0.929 . S
C1348 C1350 1.378 . S
C1348 C1352 1.350 1_565 S
C1349 C1352 1.463 . S
C1349 C1354 1.350 . S
C1349 N1357 1.427 1_545 S
C1350 H1341 0.930 . S
C1350 C1348 1.378 . S
C1350 C1351 1.364 1_565 S
C1351 C1350 1.364 1_545 S
C1351 C1353 1.436 . S
C1352 C1348 1.350 1_545 S
C1352 C1349 1.463 . S
C1352 N1356 1.427 . S
C1353 H1343 0.929 . S
C1353 C1351 1.436 . S
C1353 N1356 1.384 . S
C1354 H1345 0.929 . S
C1354 C1346 1.378 . S
C1354 C1349 1.350 . S
C1355 H1342 0.929 . S
C1355 C1347 1.433 1_565 S
C1355 N1357 1.384 . S
N1356 C1352 1.427 . S
N1356 C1353 1.384 . S
N1357 C1349 1.427 1_565 S
N1357 C1355 1.384 . S
H1358 C1364 0.930 . S
H1359 C1368 0.930 . S
H1360 C1373 0.929 . S
H1361 C1371 0.929 . S
H1362 C1366 0.929 . S
H1363 C1372 0.929 . S
C1364 H1358 0.930 . S
C1364 C1365 1.367 . S
C1364 C1372 1.378 . S
C1365 C1364 1.367 . S
C1365 C1373 1.433 . S
C1366 H1362 0.929 . S
C1366 C1368 1.378 . S
C1366 C1370 1.350 . S
C1367 C1370 1.463 . S
C1367 C1372 1.350 . S
C1367 N1375 1.427 . S
C1368 H1359 0.930 . S
C1368 C1366 1.378 . S
C1368 C1369 1.367 . S
C1369 C1368 1.367 . S
C1369 C1371 1.433 . S
C1370 C1366 1.350 . S
C1370 C1367 1.463 . S
C1370 N1374 1.427 . S
C1371 H1361 0.929 . S
C1371 C1369 1.433 . S
C1371 N1374 1.384 . S
C1372 H1363 0.929 . S
C1372 C1364 1.378 . S
C1372 C1367 1.350 . S
C1373 H1360 0.929 . S
C1373 C1365 1.433 . S
C1373 N1375 1.384 . S
N1374 C1370 1.427 . S
N1374 C1371 1.384 . S
N1375 C1367 1.427 . S
N1375 C1373 1.384 . S
H1376 C1382 0.930 1_556 S
H1377 C1386 0.930 . S
H1378 C1391 0.929 . S
H1379 C1389 0.929 . S
H1380 C1384 0.929 . S
H1381 C1390 0.943 . S
C1382 H1376 0.930 1_554 S
C1382 C1383 1.367 . S
C1382 C1390 1.375 1_554 S
C1383 C1382 1.367 . S
C1383 C1391 1.433 . S
C1384 H1380 0.929 . S
C1384 C1386 1.378 . S
C1384 C1388 1.350 . S
C1385 C1388 1.463 . S
C1385 C1390 1.338 1_554 S
C1385 N1393 1.427 . S
C1386 H1377 0.930 . S
C1386 C1384 1.378 . S
C1386 C1387 1.367 . S
C1387 C1386 1.367 . S
C1387 C1389 1.433 1_554 S
C1388 C1384 1.350 . S
C1388 C1385 1.463 . S
C1388 N1392 1.427 1_554 S
C1389 H1379 0.929 . S
C1389 C1387 1.433 1_556 S
C1389 N1392 1.384 . S
C1390 H1381 0.943 . S
C1390 C1382 1.375 1_556 S
C1390 C1385 1.338 1_556 S
C1391 H1378 0.929 . S
C1391 C1383 1.433 . S
C1391 N1393 1.384 . S
N1392 C1388 1.427 1_556 S
N1392 C1389 1.384 . S
N1393 C1385 1.427 . S
N1393 C1391 1.384 . S
H1394 C1400 0.930 . S
H1395 C1404 0.930 . S
H1396 C1409 0.929 . S
H1397 C1407 0.929 . S
H1398 C1402 0.929 . S
H1399 C1408 0.929 . S
C1400 H1394 0.930 . S
C1400 C1401 1.367 . S
C1400 C1408 1.378 . S
C1401 C1400 1.367 . S
C1401 C1409 1.433 . S
C1402 H1398 0.929 . S
C1402 C1404 1.378 . S
C1402 C1406 1.350 . S
C1403 C1406 1.463 . S
C1403 C1408 1.350 . S
C1403 N1411 1.427 . S
C1404 H1395 0.930 . S
C1404 C1402 1.378 . S
C1404 C1405 1.367 . S
C1405 C1404 1.367 . S
C1405 C1407 1.433 . S
C1406 C1402 1.350 . S
C1406 C1403 1.463 . S
C1406 N1410 1.427 . S
C1407 H1397 0.929 . S
C1407 C1405 1.433 . S
C1407 N1410 1.384 . S
C1408 H1399 0.929 . S
C1408 C1400 1.378 . S
C1408 C1403 1.350 . S
C1409 H1396 0.929 . S
C1409 C1401 1.433 . S
C1409 N1411 1.384 . S
N1410 C1406 1.427 . S
N1410 C1407 1.384 . S
N1411 C1403 1.427 . S
N1411 C1409 1.384 . S
H1412 C1418 0.930 . S
H1413 C1422 0.930 . S
H1414 C1427 0.929 . S
H1415 C1425 0.929 . S
H1416 C1420 0.929 . S
H1417 C1426 0.929 . S
C1418 H1412 0.930 . S
C1418 C1419 1.367 . S
C1418 C1426 1.378 . S
C1419 C1418 1.367 . S
C1419 C1427 1.433 . S
C1420 H1416 0.929 . S
C1420 C1422 1.378 . S
C1420 C1424 1.350 . S
C1421 C1424 1.463 . S
C1421 C1426 1.350 . S
C1421 N1429 1.427 . S
C1422 H1413 0.930 . S
C1422 C1420 1.378 . S
C1422 C1423 1.367 . S
C1423 C1422 1.367 . S
C1423 C1425 1.433 . S
C1424 C1420 1.350 . S
C1424 C1421 1.463 . S
C1424 N1428 1.427 . S
C1425 H1415 0.929 . S
C1425 C1423 1.433 . S
C1425 N1428 1.384 . S
C1426 H1417 0.929 . S
C1426 C1418 1.378 . S
C1426 C1421 1.350 . S
C1427 H1414 0.929 . S
C1427 C1419 1.433 . S
C1427 N1429 1.384 . S
N1428 C1424 1.427 . S
N1428 C1425 1.384 . S
N1429 C1421 1.427 . S
N1429 C1427 1.384 . S
H1430 C1436 0.930 . S
H1431 C1440 0.930 . S
H1432 C1445 0.929 . S
H1433 C1443 0.929 . S
H1434 C1438 0.929 . S
H1435 C1444 0.929 . S
C1436 H1430 0.930 . S
C1436 C1437 1.367 . S
C1436 C1444 1.378 . S
C1437 C1436 1.367 . S
C1437 C1445 1.433 . S
C1438 H1434 0.929 . S
C1438 C1440 1.378 . S
C1438 C1442 1.350 . S
C1439 C1442 1.463 . S
C1439 C1444 1.350 . S
C1439 N1447 1.427 . S
C1440 H1431 0.930 . S
C1440 C1438 1.378 . S
C1440 C1441 1.367 . S
C1441 C1440 1.367 . S
C1441 C1443 1.433 . S
C1442 C1438 1.350 . S
C1442 C1439 1.463 . S
C1442 N1446 1.427 . S
C1443 H1433 0.929 . S
C1443 C1441 1.433 . S
C1443 N1446 1.384 . S
C1444 H1435 0.929 . S
C1444 C1436 1.378 . S
C1444 C1439 1.350 . S
C1445 H1432 0.929 . S
C1445 C1437 1.433 . S
C1445 N1447 1.384 . S
N1446 C1442 1.427 . S
N1446 C1443 1.384 . S
N1447 C1439 1.427 . S
N1447 C1445 1.384 . S
H1448 C1454 0.930 . S
H1449 C1458 0.930 . S
H1450 C1463 0.929 . S
H1451 C1461 0.929 . S
H1452 C1456 0.929 . S
H1453 C1462 0.929 . S
C1454 H1448 0.930 . S
C1454 C1455 1.367 . S
C1454 C1462 1.378 . S
C1455 C1454 1.367 . S
C1455 C1463 1.433 . S
C1456 H1452 0.929 . S
C1456 C1458 1.378 . S
C1456 C1460 1.350 . S
C1457 C1460 1.463 . S
C1457 C1462 1.350 . S
C1457 N1465 1.427 . S
C1458 H1449 0.930 . S
C1458 C1456 1.378 . S
C1458 C1459 1.367 . S
C1459 C1458 1.367 . S
C1459 C1461 1.433 . S
C1460 C1456 1.350 . S
C1460 C1457 1.463 . S
C1460 N1464 1.427 . S
C1461 H1451 0.929 . S
C1461 C1459 1.433 . S
C1461 N1464 1.384 . S
C1462 H1453 0.929 . S
C1462 C1454 1.378 . S
C1462 C1457 1.350 . S
C1463 H1450 0.929 . S
C1463 C1455 1.433 . S
C1463 N1465 1.384 . S
N1464 C1460 1.427 . S
N1464 C1461 1.384 . S
N1465 C1457 1.427 . S
N1465 C1463 1.384 . S
H1466 C1472 0.930 . S
H1467 C1476 0.930 . S
H1468 C1481 0.929 . S
H1469 C1479 0.929 . S
H1470 C1474 0.929 . S
H1471 C1480 0.929 . S
C1472 H1466 0.930 . S
C1472 C1473 1.367 . S
C1472 C1480 1.378 . S
C1473 C1472 1.367 . S
C1473 C1481 1.433 . S
C1474 H1470 0.929 . S
C1474 C1476 1.378 . S
C1474 C1478 1.350 . S
C1475 C1478 1.463 . S
C1475 C1480 1.350 . S
C1475 N1483 1.427 . S
C1476 H1467 0.930 . S
C1476 C1474 1.378 . S
C1476 C1477 1.367 . S
C1477 C1476 1.367 . S
C1477 C1479 1.433 . S
C1478 C1474 1.350 . S
C1478 C1475 1.463 . S
C1478 N1482 1.427 . S
C1479 H1469 0.929 . S
C1479 C1477 1.433 . S
C1479 N1482 1.384 . S
C1480 H1471 0.929 . S
C1480 C1472 1.378 . S
C1480 C1475 1.350 . S
C1481 H1468 0.929 . S
C1481 C1473 1.433 . S
C1481 N1483 1.384 . S
N1482 C1478 1.427 . S
N1482 C1479 1.384 . S
N1483 C1475 1.427 . S
N1483 C1481 1.384 . S
H1484 C1490 0.930 . S
H1485 C1494 0.930 . S
H1486 C1499 0.929 . S
H1487 C1497 0.929 . S
H1488 C1492 0.929 . S
H1489 C1498 0.929 . S
C1490 H1484 0.930 . S
C1490 C1491 1.367 . S
C1490 C1498 1.378 . S
C1491 C1490 1.367 . S
C1491 C1499 1.433 . S
C1492 H1488 0.929 . S
C1492 C1494 1.378 . S
C1492 C1496 1.350 . S
C1493 C1496 1.463 . S
C1493 C1498 1.350 . S
C1493 N1501 1.427 . S
C1494 H1485 0.930 . S
C1494 C1492 1.378 . S
C1494 C1495 1.367 . S
C1495 C1494 1.367 . S
C1495 C1497 1.433 . S
C1496 C1492 1.350 . S
C1496 C1493 1.463 . S
C1496 N1500 1.427 . S
C1497 H1487 0.929 . S
C1497 C1495 1.433 . S
C1497 N1500 1.384 . S
C1498 H1489 0.929 . S
C1498 C1490 1.378 . S
C1498 C1493 1.350 . S
C1499 H1486 0.929 . S
C1499 C1491 1.433 . S
C1499 N1501 1.384 . S
N1500 C1496 1.427 . S
N1500 C1497 1.384 . S
N1501 C1493 1.427 . S
N1501 C1499 1.384 . S
H1502 C1508 0.930 . S
H1503 C1512 0.930 . S
H1504 C1517 0.929 . S
H1505 C1515 0.929 . S
H1506 C1510 0.929 . S
H1507 C1516 0.929 . S
C1508 H1502 0.930 . S
C1508 C1509 1.367 . S
C1508 C1516 1.378 . S
C1509 C1508 1.367 . S
C1509 C1517 1.433 . S
C1510 H1506 0.929 . S
C1510 C1512 1.378 . S
C1510 C1514 1.350 . S
C1511 C1514 1.463 . S
C1511 C1516 1.350 . S
C1511 N1519 1.427 . S
C1512 H1503 0.930 . S
C1512 C1510 1.378 . S
C1512 C1513 1.367 . S
C1513 C1512 1.367 . S
C1513 C1515 1.433 . S
C1514 C1510 1.350 . S
C1514 C1511 1.463 . S
C1514 N1518 1.427 . S
C1515 H1505 0.929 . S
C1515 C1513 1.433 . S
C1515 N1518 1.384 . S
C1516 H1507 0.929 . S
C1516 C1508 1.378 . S
C1516 C1511 1.350 . S
C1517 H1504 0.929 . S
C1517 C1509 1.433 . S
C1517 N1519 1.384 . S
N1518 C1514 1.427 . S
N1518 C1515 1.384 . S
N1519 C1511 1.427 . S
N1519 C1517 1.384 . S
H1520 C1526 0.930 . S
H1521 C1530 0.930 . S
H1522 C1535 0.929 . S
H1523 C1533 0.929 . S
H1524 C1528 0.929 . S
H1525 C1534 0.929 . S
C1526 H1520 0.930 . S
C1526 C1527 1.367 . S
C1526 C1534 1.378 . S
C1527 C1526 1.367 . S
C1527 C1535 1.433 . S
C1528 H1524 0.929 . S
C1528 C1530 1.378 . S
C1528 C1532 1.350 . S
C1529 C1532 1.463 . S
C1529 C1534 1.350 . S
C1529 N1537 1.427 . S
C1530 H1521 0.930 . S
C1530 C1528 1.378 . S
C1530 C1531 1.367 . S
C1531 C1530 1.367 . S
C1531 C1533 1.433 . S
C1532 C1528 1.350 . S
C1532 C1529 1.463 . S
C1532 N1536 1.427 . S
C1533 H1523 0.929 . S
C1533 C1531 1.433 . S
C1533 N1536 1.384 . S
C1534 H1525 0.929 . S
C1534 C1526 1.378 . S
C1534 C1529 1.350 . S
C1535 H1522 0.929 . S
C1535 C1527 1.433 . S
C1535 N1537 1.384 . S
N1536 C1532 1.427 . S
N1536 C1533 1.384 . S
N1537 C1529 1.427 . S
N1537 C1535 1.384 . S
H1538 C1544 0.930 . S
H1539 C1548 0.930 . S
H1540 C1553 0.929 . S
H1541 C1551 0.929 . S
H1542 C1546 0.929 . S
H1543 C1552 0.929 . S
C1544 H1538 0.930 . S
C1544 C1545 1.367 . S
C1544 C1552 1.378 . S
C1545 C1544 1.367 . S
C1545 C1553 1.433 . S
C1546 H1542 0.929 . S
C1546 C1548 1.378 . S
C1546 C1550 1.350 . S
C1547 C1550 1.463 . S
C1547 C1552 1.350 . S
C1547 N1555 1.427 . S
C1548 H1539 0.930 . S
C1548 C1546 1.378 . S
C1548 C1549 1.367 . S
C1549 C1548 1.367 . S
C1549 C1551 1.433 . S
C1550 C1546 1.350 . S
C1550 C1547 1.463 . S
C1550 N1554 1.427 . S
C1551 H1541 0.929 . S
C1551 C1549 1.433 . S
C1551 N1554 1.384 . S
C1552 H1543 0.929 . S
C1552 C1544 1.378 . S
C1552 C1547 1.350 . S
C1553 H1540 0.929 . S
C1553 C1545 1.433 . S
C1553 N1555 1.384 . S
N1554 C1550 1.427 . S
N1554 C1551 1.384 . S
N1555 C1547 1.427 . S
N1555 C1553 1.384 . S
H1556 C1562 0.930 . S
H1557 C1566 0.930 . S
H1558 C1571 0.929 . S
H1559 C1569 0.929 . S
H1560 C1564 0.929 . S
H1561 C1570 0.929 . S
C1562 H1556 0.930 . S
C1562 C1563 1.367 1_655 S
C1562 C1570 1.378 . S
C1563 C1562 1.367 1_455 S
C1563 C1571 1.433 . S
C1564 H1560 0.929 . S
C1564 C1566 1.378 1_556 S
C1564 C1568 1.350 . S
C1565 C1568 1.463 . S
C1565 C1570 1.350 1_455 S
C1565 N1573 1.427 . S
C1566 H1557 0.930 . S
C1566 C1564 1.378 1_554 S
C1566 C1567 1.367 1_554 S
C1567 C1566 1.367 1_556 S
C1567 C1569 1.433 1_455 S
C1568 C1564 1.350 . S
C1568 C1565 1.463 . S
C1568 N1572 1.427 1_455 S
C1569 H1559 0.929 . S
C1569 C1567 1.433 1_655 S
C1569 N1572 1.384 . S
C1570 H1561 0.929 . S
C1570 C1562 1.378 . S
C1570 C1565 1.350 1_655 S
C1571 H1558 0.929 . S
C1571 C1563 1.433 . S
C1571 N1573 1.384 . S
N1572 C1568 1.427 1_655 S
N1572 C1569 1.384 . S
N1573 C1565 1.427 . S
N1573 C1571 1.384 . S
H1574 C1580 0.930 . S
H1575 C1584 0.930 . S
H1576 C1589 0.929 . S
H1577 C1587 0.929 . S
H1578 C1582 0.929 . S
H1579 C1588 0.929 . S
C1580 H1574 0.930 . S
C1580 C1581 1.367 . S
C1580 C1588 1.378 . S
C1581 C1580 1.367 . S
C1581 C1589 1.433 . S
C1582 H1578 0.929 . S
C1582 C1584 1.378 . S
C1582 C1586 1.350 . S
C1583 C1586 1.463 . S
C1583 C1588 1.350 . S
C1583 N1591 1.427 . S
C1584 H1575 0.930 . S
C1584 C1582 1.378 . S
C1584 C1585 1.367 . S
C1585 C1584 1.367 . S
C1585 C1587 1.433 . S
C1586 C1582 1.350 . S
C1586 C1583 1.463 . S
C1586 N1590 1.427 . S
C1587 H1577 0.929 . S
C1587 C1585 1.433 . S
C1587 N1590 1.384 . S
C1588 H1579 0.929 . S
C1588 C1580 1.378 . S
C1588 C1583 1.350 . S
C1589 H1576 0.929 . S
C1589 C1581 1.433 . S
C1589 N1591 1.384 . S
N1590 C1586 1.427 . S
N1590 C1587 1.384 . S
N1591 C1583 1.427 . S
N1591 C1589 1.384 . S
H1592 C1598 0.930 . S
H1593 C1602 0.930 . S
H1594 C1607 0.929 . S
H1595 C1605 0.929 . S
H1596 C1600 0.929 . S
H1597 C1606 0.929 . S
C1598 H1592 0.930 . S
C1598 C1599 1.367 . S
C1598 C1606 1.378 . S
C1599 C1598 1.367 . S
C1599 C1607 1.433 . S
C1600 H1596 0.929 . S
C1600 C1602 1.378 . S
C1600 C1604 1.350 . S
C1601 C1604 1.463 . S
C1601 C1606 1.350 . S
C1601 N1609 1.427 . S
C1602 H1593 0.930 . S
C1602 C1600 1.378 . S
C1602 C1603 1.367 . S
C1603 C1602 1.367 . S
C1603 C1605 1.433 . S
C1604 C1600 1.350 . S
C1604 C1601 1.463 . S
C1604 N1608 1.427 . S
C1605 H1595 0.929 . S
C1605 C1603 1.433 . S
C1605 N1608 1.384 . S
C1606 H1597 0.929 . S
C1606 C1598 1.378 . S
C1606 C1601 1.350 . S
C1607 H1594 0.929 . S
C1607 C1599 1.433 . S
C1607 N1609 1.384 . S
N1608 C1604 1.427 . S
N1608 C1605 1.384 . S
N1609 C1601 1.427 . S
N1609 C1607 1.384 . S
H1610 C1616 0.930 . S
H1611 C1620 0.930 . S
H1612 C1625 0.929 . S
H1613 C1623 0.929 . S
H1614 C1618 0.929 . S
H1615 C1624 0.929 . S
C1616 H1610 0.930 . S
C1616 C1617 1.367 . S
C1616 C1624 1.378 . S
C1617 C1616 1.367 . S
C1617 C1625 1.433 . S
C1618 H1614 0.929 . S
C1618 C1620 1.378 . S
C1618 C1622 1.350 . S
C1619 C1622 1.463 . S
C1619 C1624 1.350 . S
C1619 N1627 1.427 . S
C1620 H1611 0.930 . S
C1620 C1618 1.378 . S
C1620 C1621 1.367 . S
C1621 C1620 1.367 . S
C1621 C1623 1.433 . S
C1622 C1618 1.350 . S
C1622 C1619 1.463 . S
C1622 N1626 1.427 . S
C1623 H1613 0.929 . S
C1623 C1621 1.433 . S
C1623 N1626 1.384 . S
C1624 H1615 0.929 . S
C1624 C1616 1.378 . S
C1624 C1619 1.350 . S
C1625 H1612 0.929 . S
C1625 C1617 1.433 . S
C1625 N1627 1.384 . S
N1626 C1622 1.427 . S
N1626 C1623 1.384 . S
N1627 C1619 1.427 . S
N1627 C1625 1.384 . S
H1628 C1634 0.930 . S
H1629 C1638 0.930 . S
H1630 C1643 0.929 . S
H1631 C1641 0.929 . S
H1632 C1636 0.929 . S
H1633 C1642 0.929 . S
C1634 H1628 0.930 . S
C1634 C1635 1.367 . S
C1634 C1642 1.378 . S
C1635 C1634 1.367 . S
C1635 C1643 1.433 1_455 S
C1636 H1632 0.929 . S
C1636 C1638 1.378 . S
C1636 C1640 1.350 1_655 S
C1637 C1640 1.463 . S
C1637 C1642 1.350 . S
C1637 N1645 1.427 1_455 S
C1638 H1629 0.930 . S
C1638 C1636 1.378 . S
C1638 C1639 1.367 1_655 S
C1639 C1638 1.367 1_455 S
C1639 C1641 1.433 . S
C1640 C1636 1.350 1_455 S
C1640 C1637 1.463 . S
C1640 N1644 1.427 . S
C1641 H1631 0.929 . S
C1641 C1639 1.433 . S
C1641 N1644 1.384 . S
C1642 H1633 0.929 . S
C1642 C1634 1.378 . S
C1642 C1637 1.350 . S
C1643 H1630 0.929 . S
C1643 C1635 1.433 1_655 S
C1643 N1645 1.384 . S
N1644 C1640 1.427 . S
N1644 C1641 1.384 . S
N1645 C1637 1.427 1_655 S
N1645 C1643 1.384 . S
H1646 C1652 0.930 . S
H1647 C1656 0.930 . S
H1648 C1661 0.929 . S
H1649 C1659 0.929 . S
H1650 C1654 0.929 . S
H1651 C1660 0.929 . S
C1652 H1646 0.930 . S
C1652 C1653 1.367 . S
C1652 C1660 1.378 . S
C1653 C1652 1.367 . S
C1653 C1661 1.433 . S
C1654 H1650 0.929 . S
C1654 C1656 1.378 . S
C1654 C1658 1.350 . S
C1655 C1658 1.463 . S
C1655 C1660 1.350 . S
C1655 N1663 1.427 . S
C1656 H1647 0.930 . S
C1656 C1654 1.378 . S
C1656 C1657 1.367 . S
C1657 C1656 1.367 . S
C1657 C1659 1.433 . S
C1658 C1654 1.350 . S
C1658 C1655 1.463 . S
C1658 N1662 1.427 . S
C1659 H1649 0.929 . S
C1659 C1657 1.433 . S
C1659 N1662 1.384 . S
C1660 H1651 0.929 . S
C1660 C1652 1.378 . S
C1660 C1655 1.350 . S
C1661 H1648 0.929 . S
C1661 C1653 1.433 . S
C1661 N1663 1.384 . S
N1662 C1658 1.427 . S
N1662 C1659 1.384 . S
N1663 C1655 1.427 . S
N1663 C1661 1.384 . S
H1664 C1670 0.930 . S
H1665 C1674 0.930 . S
H1666 C1679 0.929 . S
H1667 C1677 0.929 . S
H1668 C1672 0.929 . S
H1669 C1678 0.929 . S
C1670 H1664 0.930 . S
C1670 C1671 1.367 . S
C1670 C1678 1.378 . S
C1671 C1670 1.367 . S
C1671 C1679 1.433 . S
C1672 H1668 0.929 . S
C1672 C1674 1.378 . S
C1672 C1676 1.350 . S
C1673 C1676 1.463 . S
C1673 C1678 1.350 . S
C1673 N1681 1.427 . S
C1674 H1665 0.930 . S
C1674 C1672 1.378 . S
C1674 C1675 1.367 . S
C1675 C1674 1.367 . S
C1675 C1677 1.433 . S
C1676 C1672 1.350 . S
C1676 C1673 1.463 . S
C1676 N1680 1.427 . S
C1677 H1667 0.929 . S
C1677 C1675 1.433 . S
C1677 N1680 1.384 . S
C1678 H1669 0.929 . S
C1678 C1670 1.378 . S
C1678 C1673 1.350 . S
C1679 H1666 0.929 . S
C1679 C1671 1.433 . S
C1679 N1681 1.384 . S
N1680 C1676 1.427 . S
N1680 C1677 1.384 . S
N1681 C1673 1.427 . S
N1681 C1679 1.384 . S
H1682 C1688 0.930 . S
H1683 C1692 0.930 . S
H1684 C1697 0.929 . S
H1685 C1695 0.929 . S
H1686 C1690 0.929 . S
H1687 C1696 0.929 . S
C1688 H1682 0.930 . S
C1688 C1689 1.367 . S
C1688 C1696 1.378 . S
C1689 C1688 1.367 . S
C1689 C1697 1.433 . S
C1690 H1686 0.929 . S
C1690 C1692 1.378 . S
C1690 C1694 1.350 . S
C1691 C1694 1.463 . S
C1691 C1696 1.350 . S
C1691 N1699 1.427 . S
C1692 H1683 0.930 . S
C1692 C1690 1.378 . S
C1692 C1693 1.367 . S
C1693 C1692 1.367 . S
C1693 C1695 1.433 . S
C1694 C1690 1.350 . S
C1694 C1691 1.463 . S
C1694 N1698 1.427 . S
C1695 H1685 0.929 . S
C1695 C1693 1.433 . S
C1695 N1698 1.384 . S
C1696 H1687 0.929 . S
C1696 C1688 1.378 . S
C1696 C1691 1.350 . S
C1697 H1684 0.929 . S
C1697 C1689 1.433 . S
C1697 N1699 1.384 . S
N1698 C1694 1.427 . S
N1698 C1695 1.384 . S
N1699 C1691 1.427 . S
N1699 C1697 1.384 . S
H1700 C1706 0.930 . S
H1701 C1710 0.930 . S
H1702 C1715 0.929 . S
H1703 C1713 0.929 . S
H1704 C1708 0.929 . S
H1705 C1714 0.929 . S
C1706 H1700 0.930 . S
C1706 C1707 1.367 . S
C1706 C1714 1.378 . S
C1707 C1706 1.367 . S
C1707 C1715 1.433 . S
C1708 H1704 0.929 . S
C1708 C1710 1.378 . S
C1708 C1712 1.350 . S
C1709 C1712 1.463 . S
C1709 C1714 1.350 . S
C1709 N1717 1.427 . S
C1710 H1701 0.930 . S
C1710 C1708 1.378 . S
C1710 C1711 1.367 . S
C1711 C1710 1.367 . S
C1711 C1713 1.433 . S
C1712 C1708 1.350 . S
C1712 C1709 1.463 . S
C1712 N1716 1.427 . S
C1713 H1703 0.929 . S
C1713 C1711 1.433 . S
C1713 N1716 1.384 . S
C1714 H1705 0.929 . S
C1714 C1706 1.378 . S
C1714 C1709 1.350 . S
C1715 H1702 0.929 . S
C1715 C1707 1.433 . S
C1715 N1717 1.384 . S
N1716 C1712 1.427 . S
N1716 C1713 1.384 . S
N1717 C1709 1.427 . S
N1717 C1715 1.384 . S
H1718 C1724 0.930 . S
H1719 C1728 0.930 . S
H1720 C1733 0.929 . S
H1721 C1731 0.929 . S
H1722 C1726 0.929 . S
H1723 C1732 0.929 . S
C1724 H1718 0.930 . S
C1724 C1725 1.367 . S
C1724 C1732 1.378 . S
C1725 C1724 1.367 . S
C1725 C1733 1.433 . S
C1726 H1722 0.929 . S
C1726 C1728 1.378 . S
C1726 C1730 1.350 . S
C1727 C1730 1.463 . S
C1727 C1732 1.350 . S
C1727 N1735 1.427 . S
C1728 H1719 0.930 . S
C1728 C1726 1.378 . S
C1728 C1729 1.367 . S
C1729 C1728 1.367 . S
C1729 C1731 1.433 . S
C1730 C1726 1.350 . S
C1730 C1727 1.463 . S
C1730 N1734 1.427 . S
C1731 H1721 0.929 . S
C1731 C1729 1.433 . S
C1731 N1734 1.384 . S
C1732 H1723 0.929 . S
C1732 C1724 1.378 . S
C1732 C1727 1.350 . S
C1733 H1720 0.929 . S
C1733 C1725 1.433 . S
C1733 N1735 1.384 . S
N1734 C1730 1.427 . S
N1734 C1731 1.384 . S
N1735 C1727 1.427 . S
N1735 C1733 1.384 . S
H1736 C1742 0.930 . S
H1737 C1746 0.930 . S
H1738 C1751 0.929 . S
H1739 C1749 0.929 . S
H1740 C1744 0.929 . S
H1741 C1750 0.929 . S
C1742 H1736 0.930 . S
C1742 C1743 1.367 . S
C1742 C1750 1.378 . S
C1743 C1742 1.367 . S
C1743 C1751 1.433 . S
C1744 H1740 0.929 . S
C1744 C1746 1.378 . S
C1744 C1748 1.350 . S
C1745 C1748 1.463 . S
C1745 C1750 1.350 . S
C1745 N1753 1.427 . S
C1746 H1737 0.930 . S
C1746 C1744 1.378 . S
C1746 C1747 1.367 . S
C1747 C1746 1.367 . S
C1747 C1749 1.433 . S
C1748 C1744 1.350 . S
C1748 C1745 1.463 . S
C1748 N1752 1.427 . S
C1749 H1739 0.929 . S
C1749 C1747 1.433 . S
C1749 N1752 1.384 . S
C1750 H1741 0.929 . S
C1750 C1742 1.378 . S
C1750 C1745 1.350 . S
C1751 H1738 0.929 . S
C1751 C1743 1.433 . S
C1751 N1753 1.384 . S
N1752 C1748 1.427 . S
N1752 C1749 1.384 . S
N1753 C1745 1.427 . S
N1753 C1751 1.384 . S
H1754 C1760 0.930 . S
H1755 C1764 0.930 . S
H1756 C1769 0.929 . S
H1757 C1767 0.929 . S
H1758 C1762 0.929 . S
H1759 C1768 0.929 . S
C1760 H1754 0.930 . S
C1760 C1761 1.367 . S
C1760 C1768 1.378 . S
C1761 C1760 1.367 . S
C1761 C1769 1.433 . S
C1762 H1758 0.929 . S
C1762 C1764 1.378 . S
C1762 C1766 1.350 . S
C1763 C1766 1.463 . S
C1763 C1768 1.350 . S
C1763 N1771 1.427 . S
C1764 H1755 0.930 . S
C1764 C1762 1.378 . S
C1764 C1765 1.367 . S
C1765 C1764 1.367 . S
C1765 C1767 1.433 . S
C1766 C1762 1.350 . S
C1766 C1763 1.463 . S
C1766 N1770 1.427 . S
C1767 H1757 0.929 . S
C1767 C1765 1.433 . S
C1767 N1770 1.384 . S
C1768 H1759 0.929 . S
C1768 C1760 1.378 . S
C1768 C1763 1.350 . S
C1769 H1756 0.929 . S
C1769 C1761 1.433 . S
C1769 N1771 1.384 . S
N1770 C1766 1.427 . S
N1770 C1767 1.384 . S
N1771 C1763 1.427 . S
N1771 C1769 1.384 . S
H1772 C1778 0.930 . S
H1773 C1782 0.930 . S
H1774 C1787 0.929 . S
H1775 C1785 0.929 . S
H1776 C1780 0.929 . S
H1777 C1786 0.929 . S
C1778 H1772 0.930 . S
C1778 C1779 1.367 . S
C1778 C1786 1.378 . S
C1779 C1778 1.367 . S
C1779 C1787 1.433 . S
C1780 H1776 0.929 . S
C1780 C1782 1.378 . S
C1780 C1784 1.350 . S
C1781 C1784 1.463 . S
C1781 C1786 1.350 . S
C1781 N1789 1.427 . S
C1782 H1773 0.930 . S
C1782 C1780 1.378 . S
C1782 C1783 1.367 . S
C1783 C1782 1.367 . S
C1783 C1785 1.433 . S
C1784 C1780 1.350 . S
C1784 C1781 1.463 . S
C1784 N1788 1.427 . S
C1785 H1775 0.929 . S
C1785 C1783 1.433 . S
C1785 N1788 1.384 . S
C1786 H1777 0.929 . S
C1786 C1778 1.378 . S
C1786 C1781 1.350 . S
C1787 H1774 0.929 . S
C1787 C1779 1.433 . S
C1787 N1789 1.384 . S
N1788 C1784 1.427 . S
N1788 C1785 1.384 . S
N1789 C1781 1.427 . S
N1789 C1787 1.384 . S
H1790 C1796 0.930 . S
H1791 C1800 0.930 . S
H1792 C1805 0.929 . S
H1793 C1803 0.929 . S
H1794 C1798 0.929 . S
H1795 C1804 0.929 . S
C1796 H1790 0.930 . S
C1796 C1797 1.367 . S
C1796 C1804 1.378 . S
C1797 C1796 1.367 . S
C1797 C1805 1.433 . S
C1798 H1794 0.929 . S
C1798 C1800 1.378 . S
C1798 C1802 1.350 . S
C1799 C1802 1.463 . S
C1799 C1804 1.350 . S
C1799 N1807 1.427 . S
C1800 H1791 0.930 . S
C1800 C1798 1.378 . S
C1800 C1801 1.367 . S
C1801 C1800 1.367 . S
C1801 C1803 1.433 . S
C1802 C1798 1.350 . S
C1802 C1799 1.463 . S
C1802 N1806 1.427 . S
C1803 H1793 0.929 . S
C1803 C1801 1.433 . S
C1803 N1806 1.384 . S
C1804 H1795 0.929 . S
C1804 C1796 1.378 . S
C1804 C1799 1.350 . S
C1805 H1792 0.929 . S
C1805 C1797 1.433 . S
C1805 N1807 1.384 . S
N1806 C1802 1.427 . S
N1806 C1803 1.384 . S
N1807 C1799 1.427 . S
N1807 C1805 1.384 . S
H1808 C1814 0.930 . S
H1809 C1818 0.930 . S
H1810 C1823 0.929 . S
H1811 C1821 0.929 . S
H1812 C1816 0.929 . S
H1813 C1822 0.929 . S
C1814 H1808 0.930 . S
C1814 C1815 1.367 . S
C1814 C1822 1.378 . S
C1815 C1814 1.367 . S
C1815 C1823 1.433 . S
C1816 H1812 0.929 . S
C1816 C1818 1.378 . S
C1816 C1820 1.350 . S
C1817 C1820 1.463 . S
C1817 C1822 1.350 . S
C1817 N1825 1.427 . S
C1818 H1809 0.930 . S
C1818 C1816 1.378 . S
C1818 C1819 1.367 . S
C1819 C1818 1.367 . S
C1819 C1821 1.433 . S
C1820 C1816 1.350 . S
C1820 C1817 1.463 . S
C1820 N1824 1.427 . S
C1821 H1811 0.929 . S
C1821 C1819 1.433 . S
C1821 N1824 1.384 . S
C1822 H1813 0.929 . S
C1822 C1814 1.378 . S
C1822 C1817 1.350 . S
C1823 H1810 0.929 . S
C1823 C1815 1.433 . S
C1823 N1825 1.384 . S
N1824 C1820 1.427 . S
N1824 C1821 1.384 . S
N1825 C1817 1.427 . S
N1825 C1823 1.384 . S
H1826 C1832 0.930 . S
H1827 C1836 0.930 . S
H1828 C1841 0.929 . S
H1829 C1839 0.929 . S
H1830 C1834 0.929 . S
H1831 C1840 0.929 . S
C1832 H1826 0.930 . S
C1832 C1833 1.367 . S
C1832 C1840 1.378 . S
C1833 C1832 1.367 . S
C1833 C1841 1.433 . S
C1834 H1830 0.929 . S
C1834 C1836 1.378 . S
C1834 C1838 1.350 . S
C1835 C1838 1.463 . S
C1835 C1840 1.350 . S
C1835 N1843 1.427 . S
C1836 H1827 0.930 . S
C1836 C1834 1.378 . S
C1836 C1837 1.367 . S
C1837 C1836 1.367 . S
C1837 C1839 1.433 . S
C1838 C1834 1.350 . S
C1838 C1835 1.463 . S
C1838 N1842 1.427 . S
C1839 H1829 0.929 . S
C1839 C1837 1.433 . S
C1839 N1842 1.384 . S
C1840 H1831 0.929 . S
C1840 C1832 1.378 . S
C1840 C1835 1.350 . S
C1841 H1828 0.929 . S
C1841 C1833 1.433 . S
C1841 N1843 1.384 . S
N1842 C1838 1.427 . S
N1842 C1839 1.384 . S
N1843 C1835 1.427 . S
N1843 C1841 1.384 . S
H1844 C1850 0.930 . S
H1845 C1854 0.930 . S
H1846 C1859 0.929 . S
H1847 C1857 0.929 . S
H1848 C1852 0.929 . S
H1849 C1858 0.929 . S
C1850 H1844 0.930 . S
C1850 C1851 1.367 . S
C1850 C1858 1.378 . S
C1851 C1850 1.367 . S
C1851 C1859 1.433 . S
C1852 H1848 0.929 . S
C1852 C1854 1.378 . S
C1852 C1856 1.350 . S
C1853 C1856 1.463 . S
C1853 C1858 1.350 . S
C1853 N1861 1.427 . S
C1854 H1845 0.930 . S
C1854 C1852 1.378 . S
C1854 C1855 1.367 . S
C1855 C1854 1.367 . S
C1855 C1857 1.433 . S
C1856 C1852 1.350 . S
C1856 C1853 1.463 . S
C1856 N1860 1.427 . S
C1857 H1847 0.929 . S
C1857 C1855 1.433 . S
C1857 N1860 1.384 . S
C1858 H1849 0.929 . S
C1858 C1850 1.378 . S
C1858 C1853 1.350 . S
C1859 H1846 0.929 . S
C1859 C1851 1.433 . S
C1859 N1861 1.384 . S
N1860 C1856 1.427 . S
N1860 C1857 1.384 . S
N1861 C1853 1.427 . S
N1861 C1859 1.384 . S
H1862 C1868 0.930 . S
H1863 C1872 0.930 1_545 S
H1864 C1877 0.929 . S
H1865 C1875 0.929 . S
H1866 C1870 0.929 . S
H1867 C1876 0.929 . S
C1868 H1862 0.930 . S
C1868 C1869 1.367 . S
C1868 C1876 1.378 . S
C1869 C1868 1.367 . S
C1869 C1877 1.433 . S
C1870 H1866 0.929 . S
C1870 C1872 1.378 . S
C1870 C1874 1.350 . S
C1871 C1874 1.463 . S
C1871 C1876 1.350 . S
C1871 N1879 1.427 . S
C1872 H1863 0.930 1_565 S
C1872 C1870 1.378 . S
C1872 C1873 1.367 . S
C1873 C1872 1.367 . S
C1873 C1875 1.433 . S
C1874 C1870 1.350 . S
C1874 C1871 1.463 . S
C1874 N1878 1.427 . S
C1875 H1865 0.929 . S
C1875 C1873 1.433 . S
C1875 N1878 1.384 . S
C1876 H1867 0.929 . S
C1876 C1868 1.378 . S
C1876 C1871 1.350 . S
C1877 H1864 0.929 . S
C1877 C1869 1.433 . S
C1877 N1879 1.384 . S
N1878 C1874 1.427 . S
N1878 C1875 1.384 . S
N1879 C1871 1.427 . S
N1879 C1877 1.384 . S
H1880 C1886 0.930 . S
H1881 C1890 0.930 . S
H1882 C1895 0.929 . S
H1883 C1893 0.929 . S
H1884 C1888 0.929 . S
H1885 C1894 0.929 . S
C1886 H1880 0.930 . S
C1886 C1887 1.367 . S
C1886 C1894 1.378 . S
C1887 C1886 1.367 . S
C1887 C1895 1.433 . S
C1888 H1884 0.929 . S
C1888 C1890 1.378 . S
C1888 C1892 1.350 . S
C1889 C1892 1.463 . S
C1889 C1894 1.350 . S
C1889 N1897 1.427 . S
C1890 H1881 0.930 . S
C1890 C1888 1.378 . S
C1890 C1891 1.367 . S
C1891 C1890 1.367 . S
C1891 C1893 1.433 . S
C1892 C1888 1.350 . S
C1892 C1889 1.463 . S
C1892 N1896 1.427 . S
C1893 H1883 0.929 . S
C1893 C1891 1.433 . S
C1893 N1896 1.384 . S
C1894 H1885 0.929 . S
C1894 C1886 1.378 . S
C1894 C1889 1.350 . S
C1895 H1882 0.929 . S
C1895 C1887 1.433 . S
C1895 N1897 1.384 . S
N1896 C1892 1.427 . S
N1896 C1893 1.384 . S
N1897 C1889 1.427 . S
N1897 C1895 1.384 . S
H1898 C1904 0.930 . S
H1899 C1908 0.930 . S
H1900 C1913 0.929 . S
H1901 C1911 0.929 1_556 S
H1902 C1906 0.929 . S
H1903 C1912 0.929 . S
C1904 H1898 0.930 . S
C1904 C1905 1.367 1_556 S
C1904 C1912 1.378 . S
C1905 C1904 1.367 1_554 S
C1905 C1913 1.433 . S
C1906 H1902 0.929 . S
C1906 C1908 1.378 . S
C1906 C1910 1.350 . S
C1907 C1910 1.463 . S
C1907 C1912 1.350 1_554 S
C1907 N1915 1.427 . S
C1908 H1899 0.930 . S
C1908 C1906 1.378 . S
C1908 C1909 1.367 . S
C1909 C1908 1.367 . S
C1909 C1911 1.433 . S
C1910 C1906 1.350 . S
C1910 C1907 1.463 . S
C1910 N1914 1.427 . S
C1911 H1901 0.929 1_554 S
C1911 C1909 1.433 . S
C1911 N1914 1.384 . S
C1912 H1903 0.929 . S
C1912 C1904 1.378 . S
C1912 C1907 1.350 1_556 S
C1913 H1900 0.929 . S
C1913 C1905 1.433 . S
C1913 N1915 1.384 . S
N1914 C1910 1.427 . S
N1914 C1911 1.384 . S
N1915 C1907 1.427 . S
N1915 C1913 1.384 . S
H1916 C1922 0.930 . S
H1917 C1926 0.930 . S
H1918 C1931 0.929 . S
H1919 C1929 0.929 . S
H1920 C1924 0.929 . S
H1921 C1930 0.929 . S
C1922 H1916 0.930 . S
C1922 C1923 1.367 . S
C1922 C1930 1.378 . S
C1923 C1922 1.367 . S
C1923 C1931 1.433 . S
C1924 H1920 0.929 . S
C1924 C1926 1.378 . S
C1924 C1928 1.350 . S
C1925 C1928 1.463 . S
C1925 C1930 1.350 . S
C1925 N1933 1.427 . S
C1926 H1917 0.930 . S
C1926 C1924 1.378 . S
C1926 C1927 1.367 . S
C1927 C1926 1.367 . S
C1927 C1929 1.433 . S
C1928 C1924 1.350 . S
C1928 C1925 1.463 . S
C1928 N1932 1.427 . S
C1929 H1919 0.929 . S
C1929 C1927 1.433 . S
C1929 N1932 1.384 . S
C1930 H1921 0.929 . S
C1930 C1922 1.378 . S
C1930 C1925 1.350 . S
C1931 H1918 0.929 . S
C1931 C1923 1.433 . S
C1931 N1933 1.384 . S
N1932 C1928 1.427 . S
N1932 C1929 1.384 . S
N1933 C1925 1.427 . S
N1933 C1931 1.384 . S
H1934 C1940 0.930 . S
H1935 C1944 0.930 . S
H1936 C1949 0.929 . S
H1937 C1947 0.929 . S
H1938 C1942 0.929 . S
H1939 C1948 0.929 . S
C1940 H1934 0.930 . S
C1940 C1941 1.367 . S
C1940 C1948 1.378 . S
C1941 C1940 1.367 . S
C1941 C1949 1.433 . S
C1942 H1938 0.929 . S
C1942 C1944 1.378 . S
C1942 C1946 1.350 . S
C1943 C1946 1.463 . S
C1943 C1948 1.350 . S
C1943 N1951 1.427 . S
C1944 H1935 0.930 . S
C1944 C1942 1.378 . S
C1944 C1945 1.367 . S
C1945 C1944 1.367 . S
C1945 C1947 1.433 . S
C1946 C1942 1.350 . S
C1946 C1943 1.463 . S
C1946 N1950 1.427 . S
C1947 H1937 0.929 . S
C1947 C1945 1.433 . S
C1947 N1950 1.384 . S
C1948 H1939 0.929 . S
C1948 C1940 1.378 . S
C1948 C1943 1.350 . S
C1949 H1936 0.929 . S
C1949 C1941 1.433 . S
C1949 N1951 1.384 . S
N1950 C1946 1.427 . S
N1950 C1947 1.384 . S
N1951 C1943 1.427 . S
N1951 C1949 1.384 . S
H1952 C1958 0.930 . S
H1953 C1962 0.930 . S
H1954 C1967 0.929 . S
H1955 C1965 0.929 . S
H1956 C1960 0.929 . S
H1957 C1966 0.929 . S
C1958 H1952 0.930 . S
C1958 C1959 1.367 . S
C1958 C1966 1.378 . S
C1959 C1958 1.367 . S
C1959 C1967 1.433 . S
C1960 H1956 0.929 . S
C1960 C1962 1.378 . S
C1960 C1964 1.350 . S
C1961 C1964 1.463 . S
C1961 C1966 1.350 . S
C1961 N1969 1.427 . S
C1962 H1953 0.930 . S
C1962 C1960 1.378 . S
C1962 C1963 1.367 . S
C1963 C1962 1.367 . S
C1963 C1965 1.433 . S
C1964 C1960 1.350 . S
C1964 C1961 1.463 . S
C1964 N1968 1.427 . S
C1965 H1955 0.929 . S
C1965 C1963 1.433 . S
C1965 N1968 1.384 . S
C1966 H1957 0.929 . S
C1966 C1958 1.378 . S
C1966 C1961 1.350 . S
C1967 H1954 0.929 . S
C1967 C1959 1.433 . S
C1967 N1969 1.384 . S
N1968 C1964 1.427 . S
N1968 C1965 1.384 . S
N1969 C1961 1.427 . S
N1969 C1967 1.384 . S
H1970 C1976 0.930 . S
H1971 C1980 0.930 . S
H1972 C1985 0.929 . S
H1973 C1983 0.929 . S
H1974 C1978 0.929 . S
H1975 C1984 0.929 . S
C1976 H1970 0.930 . S
C1976 C1977 1.367 . S
C1976 C1984 1.378 . S
C1977 C1976 1.367 . S
C1977 C1985 1.433 . S
C1978 H1974 0.929 . S
C1978 C1980 1.378 . S
C1978 C1982 1.350 . S
C1979 C1982 1.463 . S
C1979 C1984 1.350 . S
C1979 N1987 1.427 . S
C1980 H1971 0.930 . S
C1980 C1978 1.378 . S
C1980 C1981 1.367 . S
C1981 C1980 1.367 . S
C1981 C1983 1.433 . S
C1982 C1978 1.350 . S
C1982 C1979 1.463 . S
C1982 N1986 1.427 . S
C1983 H1973 0.929 . S
C1983 C1981 1.433 . S
C1983 N1986 1.384 . S
C1984 H1975 0.929 . S
C1984 C1976 1.378 . S
C1984 C1979 1.350 . S
C1985 H1972 0.929 . S
C1985 C1977 1.433 . S
C1985 N1987 1.384 . S
N1986 C1982 1.427 . S
N1986 C1983 1.384 . S
N1987 C1979 1.427 . S
N1987 C1985 1.384 . S
H1988 C1994 0.930 . S
H1989 C1998 0.930 1_655 S
H1990 C2003 0.929 1_655 S
H1991 C2001 0.929 . S
H1992 C1996 0.929 1_655 S
H1993 C2002 0.929 . S
C1994 H1988 0.930 . S
C1994 C1995 1.367 . S
C1994 C2002 1.378 . S
C1995 C1994 1.367 . S
C1995 C2003 1.433 . S
C1996 H1992 0.929 1_455 S
C1996 C1998 1.378 . S
C1996 C2000 1.350 . S
C1997 C2000 1.463 . S
C1997 C2002 1.350 . S
C1997 N2005 1.427 . S
C1998 H1989 0.930 1_455 S
C1998 C1996 1.378 . S
C1998 C1999 1.367 . S
C1999 C1998 1.367 . S
C1999 C2001 1.433 . S
C2000 C1996 1.350 . S
C2000 C1997 1.463 . S
C2000 N2004 1.427 . S
C2001 H1991 0.929 . S
C2001 C1999 1.433 . S
C2001 N2004 1.384 . S
C2002 H1993 0.929 . S
C2002 C1994 1.378 . S
C2002 C1997 1.350 . S
C2003 H1990 0.929 1_455 S
C2003 C1995 1.433 . S
C2003 N2005 1.384 . S
N2004 C2000 1.427 . S
N2004 C2001 1.384 . S
N2005 C1997 1.427 . S
N2005 C2003 1.384 . S
H2006 C2012 0.930 . S
H2007 C2016 0.930 . S
H2008 C2021 0.929 . S
H2009 C2019 0.929 . S
H2010 C2014 0.929 . S
H2011 C2020 0.929 . S
C2012 H2006 0.930 . S
C2012 C2013 1.367 . S
C2012 C2020 1.378 . S
C2013 C2012 1.367 . S
C2013 C2021 1.433 . S
C2014 H2010 0.929 . S
C2014 C2016 1.378 . S
C2014 C2018 1.350 . S
C2015 C2018 1.463 . S
C2015 C2020 1.350 . S
C2015 N2023 1.427 . S
C2016 H2007 0.930 . S
C2016 C2014 1.378 . S
C2016 C2017 1.367 . S
C2017 C2016 1.367 . S
C2017 C2019 1.433 . S
C2018 C2014 1.350 . S
C2018 C2015 1.463 . S
C2018 N2022 1.427 . S
C2019 H2009 0.929 . S
C2019 C2017 1.433 . S
C2019 N2022 1.384 . S
C2020 H2011 0.929 . S
C2020 C2012 1.378 . S
C2020 C2015 1.350 . S
C2021 H2008 0.929 . S
C2021 C2013 1.433 . S
C2021 N2023 1.384 . S
N2022 C2018 1.427 . S
N2022 C2019 1.384 . S
N2023 C2015 1.427 . S
N2023 C2021 1.384 . S
H2024 C2030 0.930 . S
H2025 C2034 0.930 . S
H2026 C2039 0.929 . S
H2027 C2037 0.929 . S
H2028 C2032 0.936 . S
H2029 C2038 0.929 . S
C2030 H2024 0.930 . S
C2030 C2031 1.367 . S
C2030 C2038 1.378 . S
C2031 C2030 1.367 . S
C2031 C2039 1.433 . S
C2032 H2028 0.936 . S
C2032 C2034 1.378 1_556 S
C2032 C2036 1.350 . S
C2033 C2036 1.463 . S
C2033 C2038 1.350 . S
C2033 N2041 1.427 . S
C2034 H2025 0.930 . S
C2034 C2032 1.378 1_554 S
C2034 C2035 1.367 1_554 S
C2035 C2034 1.367 1_556 S
C2035 C2037 1.433 . S
C2036 C2032 1.350 . S
C2036 C2033 1.463 . S
C2036 N2040 1.427 . S
C2037 H2027 0.929 . S
C2037 C2035 1.433 . S
C2037 N2040 1.384 . S
C2038 H2029 0.929 . S
C2038 C2030 1.378 . S
C2038 C2033 1.350 . S
C2039 H2026 0.929 . S
C2039 C2031 1.433 . S
C2039 N2041 1.384 . S
N2040 C2036 1.427 . S
N2040 C2037 1.384 . S
N2041 C2033 1.427 . S
N2041 C2039 1.384 . S
H2042 C2048 0.930 . S
H2043 C2052 0.930 . S
H2044 C2057 0.929 . S
H2045 C2055 0.929 . S
H2046 C2050 0.929 . S
H2047 C2056 0.929 . S
C2048 H2042 0.930 . S
C2048 C2049 1.367 . S
C2048 C2056 1.378 . S
C2049 C2048 1.367 . S
C2049 C2057 1.433 . S
C2050 H2046 0.929 . S
C2050 C2052 1.378 . S
C2050 C2054 1.350 . S
C2051 C2054 1.463 . S
C2051 C2056 1.350 . S
C2051 N2059 1.427 . S
C2052 H2043 0.930 . S
C2052 C2050 1.378 . S
C2052 C2053 1.367 . S
C2053 C2052 1.367 . S
C2053 C2055 1.433 . S
C2054 C2050 1.350 . S
C2054 C2051 1.463 . S
C2054 N2058 1.427 . S
C2055 H2045 0.929 . S
C2055 C2053 1.433 . S
C2055 N2058 1.384 . S
C2056 H2047 0.929 . S
C2056 C2048 1.378 . S
C2056 C2051 1.350 . S
C2057 H2044 0.929 . S
C2057 C2049 1.433 . S
C2057 N2059 1.384 . S
N2058 C2054 1.427 . S
N2058 C2055 1.384 . S
N2059 C2051 1.427 . S
N2059 C2057 1.384 . S
H2060 C2066 0.930 . S
H2061 C2070 0.930 . S
H2062 C2075 0.929 . S
H2063 C2073 0.929 . S
H2064 C2068 0.929 . S
H2065 C2074 0.929 . S
C2066 H2060 0.930 . S
C2066 C2067 1.367 . S
C2066 C2074 1.378 . S
C2067 C2066 1.367 . S
C2067 C2075 1.433 . S
C2068 H2064 0.929 . S
C2068 C2070 1.378 . S
C2068 C2072 1.350 . S
C2069 C2072 1.463 . S
C2069 C2074 1.350 . S
C2069 N2077 1.427 . S
C2070 H2061 0.930 . S
C2070 C2068 1.378 . S
C2070 C2071 1.367 . S
C2071 C2070 1.367 . S
C2071 C2073 1.433 . S
C2072 C2068 1.350 . S
C2072 C2069 1.463 . S
C2072 N2076 1.427 . S
C2073 H2063 0.929 . S
C2073 C2071 1.433 . S
C2073 N2076 1.384 . S
C2074 H2065 0.929 . S
C2074 C2066 1.378 . S
C2074 C2069 1.350 . S
C2075 H2062 0.929 . S
C2075 C2067 1.433 . S
C2075 N2077 1.384 . S
N2076 C2072 1.427 . S
N2076 C2073 1.384 . S
N2077 C2069 1.427 . S
N2077 C2075 1.384 . S
H2078 C2084 0.930 . S
H2079 C2088 0.930 . S
H2080 C2093 0.929 . S
H2081 C2091 0.929 . S
H2082 C2086 0.929 . S
H2083 C2092 0.929 . S
C2084 H2078 0.930 . S
C2084 C2085 1.367 . S
C2084 C2092 1.378 . S
C2085 C2084 1.367 . S
C2085 C2093 1.433 . S
C2086 H2082 0.929 . S
C2086 C2088 1.378 . S
C2086 C2090 1.350 . S
C2087 C2090 1.463 . S
C2087 C2092 1.350 . S
C2087 N2095 1.427 . S
C2088 H2079 0.930 . S
C2088 C2086 1.378 . S
C2088 C2089 1.367 . S
C2089 C2088 1.367 . S
C2089 C2091 1.433 . S
C2090 C2086 1.350 . S
C2090 C2087 1.463 . S
C2090 N2094 1.427 . S
C2091 H2081 0.929 . S
C2091 C2089 1.433 . S
C2091 N2094 1.384 . S
C2092 H2083 0.929 . S
C2092 C2084 1.378 . S
C2092 C2087 1.350 . S
C2093 H2080 0.929 . S
C2093 C2085 1.433 . S
C2093 N2095 1.384 . S
N2094 C2090 1.427 . S
N2094 C2091 1.384 . S
N2095 C2087 1.427 . S
N2095 C2093 1.384 . S
H2096 C2102 0.930 . S
H2097 C2106 0.930 . S
H2098 C2111 0.929 . S
H2099 C2109 0.929 . S
H2100 C2104 0.929 . S
H2101 C2110 0.929 . S
C2102 H2096 0.930 . S
C2102 C2103 1.367 . S
C2102 C2110 1.378 . S
C2103 C2102 1.367 . S
C2103 C2111 1.433 . S
C2104 H2100 0.929 . S
C2104 C2106 1.378 . S
C2104 C2108 1.350 . S
C2105 C2108 1.463 . S
C2105 C2110 1.350 . S
C2105 N2113 1.427 . S
C2106 H2097 0.930 . S
C2106 C2104 1.378 . S
C2106 C2107 1.367 . S
C2107 C2106 1.367 . S
C2107 C2109 1.433 . S
C2108 C2104 1.350 . S
C2108 C2105 1.463 . S
C2108 N2112 1.427 . S
C2109 H2099 0.929 . S
C2109 C2107 1.433 . S
C2109 N2112 1.384 . S
C2110 H2101 0.929 . S
C2110 C2102 1.378 . S
C2110 C2105 1.350 . S
C2111 H2098 0.929 . S
C2111 C2103 1.433 . S
C2111 N2113 1.384 . S
N2112 C2108 1.427 . S
N2112 C2109 1.384 . S
N2113 C2105 1.427 . S
N2113 C2111 1.384 . S
H2114 C2120 0.930 . S
H2115 C2124 0.930 . S
H2116 C2129 0.929 . S
H2117 C2127 0.929 . S
H2118 C2122 0.929 . S
H2119 C2128 0.929 . S
C2120 H2114 0.930 . S
C2120 C2121 1.367 . S
C2120 C2128 1.378 . S
C2121 C2120 1.367 . S
C2121 C2129 1.433 . S
C2122 H2118 0.929 . S
C2122 C2124 1.378 . S
C2122 C2126 1.350 . S
C2123 C2126 1.463 . S
C2123 C2128 1.350 . S
C2123 N2131 1.427 . S
C2124 H2115 0.930 . S
C2124 C2122 1.378 . S
C2124 C2125 1.367 . S
C2125 C2124 1.367 . S
C2125 C2127 1.433 . S
C2126 C2122 1.350 . S
C2126 C2123 1.463 . S
C2126 N2130 1.427 . S
C2127 H2117 0.929 . S
C2127 C2125 1.433 . S
C2127 N2130 1.384 . S
C2128 H2119 0.929 . S
C2128 C2120 1.378 . S
C2128 C2123 1.350 . S
C2129 H2116 0.929 . S
C2129 C2121 1.433 . S
C2129 N2131 1.384 . S
N2130 C2126 1.427 . S
N2130 C2127 1.384 . S
N2131 C2123 1.427 . S
N2131 C2129 1.384 . S
H2132 C2138 0.930 . S
H2133 C2142 0.930 . S
H2134 C2147 0.929 . S
H2135 C2145 0.929 . S
H2136 C2140 0.929 . S
H2137 C2146 0.929 . S
C2138 H2132 0.930 . S
C2138 C2139 1.367 . S
C2138 C2146 1.378 . S
C2139 C2138 1.367 . S
C2139 C2147 1.433 . S
C2140 H2136 0.929 . S
C2140 C2142 1.378 . S
C2140 C2144 1.350 . S
C2141 C2144 1.463 . S
C2141 C2146 1.350 . S
C2141 N2149 1.427 . S
C2142 H2133 0.930 . S
C2142 C2140 1.378 . S
C2142 C2143 1.367 . S
C2143 C2142 1.367 . S
C2143 C2145 1.433 1_655 S
C2144 C2140 1.350 . S
C2144 C2141 1.463 . S
C2144 N2148 1.427 . S
C2145 H2135 0.929 . S
C2145 C2143 1.433 1_455 S
C2145 N2148 1.384 1_455 S
C2146 H2137 0.929 . S
C2146 C2138 1.378 . S
C2146 C2141 1.350 . S
C2147 H2134 0.929 . S
C2147 C2139 1.433 . S
C2147 N2149 1.384 . S
N2148 C2144 1.427 . S
N2148 C2145 1.384 1_655 S
N2149 C2141 1.427 . S
N2149 C2147 1.384 . S
H2150 C2156 0.930 . S
H2151 C2160 0.930 . S
H2152 C2165 0.929 . S
H2153 C2163 0.929 . S
H2154 C2158 0.929 . S
H2155 C2164 0.929 . S
C2156 H2150 0.930 . S
C2156 C2157 1.367 . S
C2156 C2164 1.378 . S
C2157 C2156 1.367 . S
C2157 C2165 1.433 . S
C2158 H2154 0.929 . S
C2158 C2160 1.378 . S
C2158 C2162 1.350 . S
C2159 C2162 1.463 . S
C2159 C2164 1.350 . S
C2159 N2167 1.427 . S
C2160 H2151 0.930 . S
C2160 C2158 1.378 . S
C2160 C2161 1.367 . S
C2161 C2160 1.367 . S
C2161 C2163 1.433 . S
C2162 C2158 1.350 . S
C2162 C2159 1.463 . S
C2162 N2166 1.427 . S
C2163 H2153 0.929 . S
C2163 C2161 1.433 . S
C2163 N2166 1.384 . S
C2164 H2155 0.929 . S
C2164 C2156 1.378 . S
C2164 C2159 1.350 . S
C2165 H2152 0.929 . S
C2165 C2157 1.433 . S
C2165 N2167 1.384 . S
N2166 C2162 1.427 . S
N2166 C2163 1.384 . S
N2167 C2159 1.427 . S
N2167 C2165 1.384 . S
H2168 C2174 0.930 . S
H2169 C2178 0.930 . S
H2170 C2183 0.929 . S
H2171 C2181 0.929 . S
H2172 C2176 0.929 . S
H2173 C2182 0.929 . S
C2174 H2168 0.930 . S
C2174 C2175 1.367 . S
C2174 C2182 1.378 . S
C2175 C2174 1.367 . S
C2175 C2183 1.433 . S
C2176 H2172 0.929 . S
C2176 C2178 1.378 . S
C2176 C2180 1.350 . S
C2177 C2180 1.463 . S
C2177 C2182 1.350 . S
C2177 N2185 1.427 . S
C2178 H2169 0.930 . S
C2178 C2176 1.378 . S
C2178 C2179 1.367 . S
C2179 C2178 1.367 . S
C2179 C2181 1.433 . S
C2180 C2176 1.350 . S
C2180 C2177 1.463 . S
C2180 N2184 1.427 . S
C2181 H2171 0.929 . S
C2181 C2179 1.433 . S
C2181 N2184 1.384 . S
C2182 H2173 0.929 . S
C2182 C2174 1.378 . S
C2182 C2177 1.350 . S
C2183 H2170 0.929 . S
C2183 C2175 1.433 . S
C2183 N2185 1.384 . S
N2184 C2180 1.427 . S
N2184 C2181 1.384 . S
N2185 C2177 1.427 . S
N2185 C2183 1.384 . S
H2186 C2192 0.930 . S
H2187 C2196 0.930 . S
H2188 C2201 0.929 . S
H2189 C2199 0.929 . S
H2190 C2194 0.929 . S
H2191 C2200 0.929 . S
C2192 H2186 0.930 . S
C2192 C2193 1.367 . S
C2192 C2200 1.378 . S
C2193 C2192 1.367 . S
C2193 C2201 1.433 . S
C2194 H2190 0.929 . S
C2194 C2196 1.378 . S
C2194 C2198 1.350 . S
C2195 C2198 1.463 . S
C2195 C2200 1.350 . S
C2195 N2203 1.427 . S
C2196 H2187 0.930 . S
C2196 C2194 1.378 . S
C2196 C2197 1.367 . S
C2197 C2196 1.367 . S
C2197 C2199 1.433 . S
C2198 C2194 1.350 . S
C2198 C2195 1.463 . S
C2198 N2202 1.427 . S
C2199 H2189 0.929 . S
C2199 C2197 1.433 . S
C2199 N2202 1.384 . S
C2200 H2191 0.929 . S
C2200 C2192 1.378 . S
C2200 C2195 1.350 . S
C2201 H2188 0.929 . S
C2201 C2193 1.433 . S
C2201 N2203 1.384 . S
N2202 C2198 1.427 . S
N2202 C2199 1.384 . S
N2203 C2195 1.427 . S
N2203 C2201 1.384 . S
H2204 C2210 0.930 . S
H2205 C2214 0.930 . S
H2206 C2219 0.929 . S
H2207 C2217 0.929 . S
H2208 C2212 0.929 . S
H2209 C2218 0.929 . S
C2210 H2204 0.930 . S
C2210 C2211 1.367 . S
C2210 C2218 1.378 . S
C2211 C2210 1.367 . S
C2211 C2219 1.433 . S
C2212 H2208 0.929 . S
C2212 C2214 1.378 . S
C2212 C2216 1.350 . S
C2213 C2216 1.463 . S
C2213 C2218 1.350 . S
C2213 N2221 1.427 . S
C2214 H2205 0.930 . S
C2214 C2212 1.378 . S
C2214 C2215 1.367 . S
C2215 C2214 1.367 . S
C2215 C2217 1.433 . S
C2216 C2212 1.350 . S
C2216 C2213 1.463 . S
C2216 N2220 1.427 . S
C2217 H2207 0.929 . S
C2217 C2215 1.433 . S
C2217 N2220 1.384 . S
C2218 H2209 0.929 . S
C2218 C2210 1.378 . S
C2218 C2213 1.350 . S
C2219 H2206 0.929 . S
C2219 C2211 1.433 . S
C2219 N2221 1.384 . S
N2220 C2216 1.427 . S
N2220 C2217 1.384 . S
N2221 C2213 1.427 . S
N2221 C2219 1.384 . S
H2222 C2228 0.930 . S
H2223 C2232 0.930 . S
H2224 C2237 0.929 . S
H2225 C2235 0.929 . S
H2226 C2230 0.929 . S
H2227 C2236 0.929 . S
C2228 H2222 0.930 . S
C2228 C2229 1.367 . S
C2228 C2236 1.378 . S
C2229 C2228 1.367 . S
C2229 C2237 1.433 . S
C2230 H2226 0.929 . S
C2230 C2232 1.378 . S
C2230 C2234 1.350 . S
C2231 C2234 1.463 . S
C2231 C2236 1.350 . S
C2231 N2239 1.427 . S
C2232 H2223 0.930 . S
C2232 C2230 1.378 . S
C2232 C2233 1.367 . S
C2233 C2232 1.367 . S
C2233 C2235 1.433 . S
C2234 C2230 1.350 . S
C2234 C2231 1.463 . S
C2234 N2238 1.427 . S
C2235 H2225 0.929 . S
C2235 C2233 1.433 . S
C2235 N2238 1.384 . S
C2236 H2227 0.929 . S
C2236 C2228 1.378 . S
C2236 C2231 1.350 . S
C2237 H2224 0.929 . S
C2237 C2229 1.433 . S
C2237 N2239 1.384 . S
N2238 C2234 1.427 . S
N2238 C2235 1.384 . S
N2239 C2231 1.427 . S
N2239 C2237 1.384 . S
H2240 C2246 0.930 . S
H2241 C2250 0.930 . S
H2242 C2255 0.929 . S
H2243 C2253 0.929 . S
H2244 C2248 0.929 . S
H2245 C2254 0.929 . S
C2246 H2240 0.930 . S
C2246 C2247 1.367 . S
C2246 C2254 1.378 . S
C2247 C2246 1.367 . S
C2247 C2255 1.433 . S
C2248 H2244 0.929 . S
C2248 C2250 1.378 . S
C2248 C2252 1.350 . S
C2249 C2252 1.463 . S
C2249 C2254 1.350 . S
C2249 N2257 1.427 . S
C2250 H2241 0.930 . S
C2250 C2248 1.378 . S
C2250 C2251 1.367 . S
C2251 C2250 1.367 . S
C2251 C2253 1.433 . S
C2252 C2248 1.350 . S
C2252 C2249 1.463 . S
C2252 N2256 1.427 . S
C2253 H2243 0.929 . S
C2253 C2251 1.433 . S
C2253 N2256 1.384 . S
C2254 H2245 0.929 . S
C2254 C2246 1.378 . S
C2254 C2249 1.350 . S
C2255 H2242 0.929 . S
C2255 C2247 1.433 . S
C2255 N2257 1.384 . S
N2256 C2252 1.427 . S
N2256 C2253 1.384 . S
N2257 C2249 1.427 . S
N2257 C2255 1.384 . S
H2258 C2264 0.930 . S
H2259 C2268 0.896 1_545 S
H2260 C2273 0.929 . S
H2261 C2271 0.929 . S
H2262 C2266 0.929 . S
H2263 C2272 0.929 . S
C2264 H2258 0.930 . S
C2264 C2265 1.367 . S
C2264 C2272 1.378 . S
C2265 C2264 1.367 . S
C2265 C2273 1.433 . S
C2266 H2262 0.929 . S
C2266 C2268 1.378 . S
C2266 C2270 1.350 . S
C2267 C2270 1.463 . S
C2267 C2272 1.350 . S
C2267 N2275 1.427 . S
C2268 H2259 0.896 1_565 S
C2268 C2266 1.378 . S
C2268 C2269 1.367 . S
C2269 C2268 1.367 . S
C2269 C2271 1.433 . S
C2270 C2266 1.350 . S
C2270 C2267 1.463 . S
C2270 N2274 1.427 . S
C2271 H2261 0.929 . S
C2271 C2269 1.433 . S
C2271 N2274 1.384 . S
C2272 H2263 0.929 . S
C2272 C2264 1.378 . S
C2272 C2267 1.350 . S
C2273 H2260 0.929 . S
C2273 C2265 1.433 . S
C2273 N2275 1.384 . S
N2274 C2270 1.427 . S
N2274 C2271 1.384 . S
N2275 C2267 1.427 . S
N2275 C2273 1.384 . S
H2276 C2282 0.930 . S
H2277 C2286 0.930 . S
H2278 C2291 0.929 . S
H2279 C2289 0.929 . S
H2280 C2284 0.929 . S
H2281 C2290 0.929 . S
C2282 H2276 0.930 . S
C2282 C2283 1.367 . S
C2282 C2290 1.378 . S
C2283 C2282 1.367 . S
C2283 C2291 1.433 . S
C2284 H2280 0.929 . S
C2284 C2286 1.378 . S
C2284 C2288 1.350 . S
C2285 C2288 1.463 . S
C2285 C2290 1.350 . S
C2285 N2293 1.427 . S
C2286 H2277 0.930 . S
C2286 C2284 1.378 . S
C2286 C2287 1.367 . S
C2287 C2286 1.367 . S
C2287 C2289 1.433 . S
C2288 C2284 1.350 . S
C2288 C2285 1.463 . S
C2288 N2292 1.427 . S
C2289 H2279 0.929 . S
C2289 C2287 1.433 . S
C2289 N2292 1.384 . S
C2290 H2281 0.929 . S
C2290 C2282 1.378 . S
C2290 C2285 1.350 . S
C2291 H2278 0.929 . S
C2291 C2283 1.433 . S
C2291 N2293 1.384 . S
N2292 C2288 1.427 . S
N2292 C2289 1.384 . S
N2293 C2285 1.427 . S
N2293 C2291 1.384 . S
H2294 C2300 0.930 1_556 S
H2295 C2304 0.930 . S
H2296 C2309 0.929 . S
H2297 C2307 0.929 1_556 S
H2298 C2302 0.929 . S
H2299 C2308 0.929 1_556 S
C2300 H2294 0.930 1_554 S
C2300 C2301 1.367 . S
C2300 C2308 1.378 . S
C2301 C2300 1.367 . S
C2301 C2309 1.433 . S
C2302 H2298 0.929 . S
C2302 C2304 1.378 . S
C2302 C2306 1.350 . S
C2303 C2306 1.463 . S
C2303 C2308 1.350 . S
C2303 N2311 1.427 . S
C2304 H2295 0.930 . S
C2304 C2302 1.378 . S
C2304 C2305 1.367 . S
C2305 C2304 1.367 . S
C2305 C2307 1.433 . S
C2306 C2302 1.350 . S
C2306 C2303 1.463 . S
C2306 N2310 1.427 . S
C2307 H2297 0.929 1_554 S
C2307 C2305 1.433 . S
C2307 N2310 1.384 . S
C2308 H2299 0.929 1_554 S
C2308 C2300 1.378 . S
C2308 C2303 1.350 . S
C2309 H2296 0.929 . S
C2309 C2301 1.433 . S
C2309 N2311 1.384 . S
N2310 C2306 1.427 . S
N2310 C2307 1.384 . S
N2311 C2303 1.427 . S
N2311 C2309 1.384 . S
H2312 C2318 0.930 . S
H2313 C2322 0.930 . S
H2314 C2327 0.929 . S
H2315 C2325 0.929 . S
H2316 C2320 0.929 . S
H2317 C2326 0.929 . S
C2318 H2312 0.930 . S
C2318 C2319 1.367 . S
C2318 C2326 1.378 . S
C2319 C2318 1.367 . S
C2319 C2327 1.433 . S
C2320 H2316 0.929 . S
C2320 C2322 1.378 . S
C2320 C2324 1.350 . S
C2321 C2324 1.463 . S
C2321 C2326 1.350 . S
C2321 N2329 1.427 . S
C2322 H2313 0.930 . S
C2322 C2320 1.378 . S
C2322 C2323 1.367 . S
C2323 C2322 1.367 . S
C2323 C2325 1.433 . S
C2324 C2320 1.350 . S
C2324 C2321 1.463 . S
C2324 N2328 1.427 . S
C2325 H2315 0.929 . S
C2325 C2323 1.433 . S
C2325 N2328 1.384 . S
C2326 H2317 0.929 . S
C2326 C2318 1.378 . S
C2326 C2321 1.350 . S
C2327 H2314 0.929 . S
C2327 C2319 1.433 . S
C2327 N2329 1.384 . S
N2328 C2324 1.427 . S
N2328 C2325 1.384 . S
N2329 C2321 1.427 . S
N2329 C2327 1.384 . S
H2330 C2336 0.930 . S
H2331 C2340 0.930 . S
H2332 C2345 0.929 . S
H2333 C2343 0.929 . S
H2334 C2338 0.929 1_556 S
H2335 C2344 0.929 . S
C2336 H2330 0.930 . S
C2336 C2337 1.367 . S
C2336 C2344 1.378 . S
C2337 C2336 1.367 . S
C2337 C2345 1.433 . S
C2338 H2334 0.929 1_554 S
C2338 C2340 1.378 1_554 S
C2338 C2342 1.350 . S
C2339 C2342 1.463 . S
C2339 C2344 1.350 . S
C2339 N2347 1.427 . S
C2340 H2331 0.930 . S
C2340 C2338 1.378 1_556 S
C2340 C2341 1.367 1_556 S
C2341 C2340 1.367 1_554 S
C2341 C2343 1.433 . S
C2342 C2338 1.350 . S
C2342 C2339 1.463 . S
C2342 N2346 1.427 . S
C2343 H2333 0.929 . S
C2343 C2341 1.433 . S
C2343 N2346 1.384 . S
C2344 H2335 0.929 . S
C2344 C2336 1.378 . S
C2344 C2339 1.350 . S
C2345 H2332 0.929 . S
C2345 C2337 1.433 . S
C2345 N2347 1.384 . S
N2346 C2342 1.427 . S
N2346 C2343 1.384 . S
N2347 C2339 1.427 . S
N2347 C2345 1.384 . S
H2348 C2354 0.930 . S
H2349 C2358 0.930 . S
H2350 C2363 0.929 . S
H2351 C2361 0.929 . S
H2352 C2356 0.929 . S
H2353 C2362 0.929 . S
C2354 H2348 0.930 . S
C2354 C2355 1.367 . S
C2354 C2362 1.378 . S
C2355 C2354 1.367 . S
C2355 C2363 1.433 . S
C2356 H2352 0.929 . S
C2356 C2358 1.378 . S
C2356 C2360 1.350 . S
C2357 C2360 1.463 . S
C2357 C2362 1.350 . S
C2357 N2365 1.427 . S
C2358 H2349 0.930 . S
C2358 C2356 1.378 . S
C2358 C2359 1.367 . S
C2359 C2358 1.367 . S
C2359 C2361 1.433 . S
C2360 C2356 1.350 . S
C2360 C2357 1.463 . S
C2360 N2364 1.427 . S
C2361 H2351 0.929 . S
C2361 C2359 1.433 . S
C2361 N2364 1.384 . S
C2362 H2353 0.929 . S
C2362 C2354 1.378 . S
C2362 C2357 1.350 . S
C2363 H2350 0.929 . S
C2363 C2355 1.433 . S
C2363 N2365 1.384 . S
N2364 C2360 1.427 . S
N2364 C2361 1.384 . S
N2365 C2357 1.427 . S
N2365 C2363 1.384 . S
H2366 C2372 0.930 . S
H2367 C2376 0.930 . S
H2368 C2381 0.929 . S
H2369 C2379 0.929 . S
H2370 C2374 0.929 . S
H2371 C2380 0.929 . S
C2372 H2366 0.930 . S
C2372 C2373 1.367 . S
C2372 C2380 1.378 . S
C2373 C2372 1.367 . S
C2373 C2381 1.433 . S
C2374 H2370 0.929 . S
C2374 C2376 1.378 . S
C2374 C2378 1.350 . S
C2375 C2378 1.463 . S
C2375 C2380 1.350 . S
C2375 N2383 1.427 . S
C2376 H2367 0.930 . S
C2376 C2374 1.378 . S
C2376 C2377 1.367 . S
C2377 C2376 1.367 . S
C2377 C2379 1.433 . S
C2378 C2374 1.350 . S
C2378 C2375 1.463 . S
C2378 N2382 1.427 . S
C2379 H2369 0.929 . S
C2379 C2377 1.433 . S
C2379 N2382 1.384 . S
C2380 H2371 0.929 . S
C2380 C2372 1.378 . S
C2380 C2375 1.350 . S
C2381 H2368 0.929 . S
C2381 C2373 1.433 . S
C2381 N2383 1.384 . S
N2382 C2378 1.427 . S
N2382 C2379 1.384 . S
N2383 C2375 1.427 . S
N2383 C2381 1.384 . S
C663 C109 1.395 . S
C667 C340 1.227 . S
C681 C65 1.500 . S
C685 C375 1.450 . S
C699 C75 1.117 . S
C703 C380 1.036 . S
C721 C405 1.388 . S
C717 C84 1.467 . S
C735 C25 1.449 . S
C739 C425 1.371 . S
C757 C440 0.998 . S
C753 C28 1.074 . S
C775 C475 1.493 . S
C771 C47 1.530 . S
C789 C9 1.434 . S
C793 C480 1.260 . S
C811 C355 1.582 1_655 S
C807 C233 1.668 . S
C825 C249 1.000 . S
C829 C365 0.953 . S
C847 C395 1.451 . S
C843 C275 1.496 . S
C865 C400 1.125 . S
C861 C173 1.226 . S
C879 C224 1.253 . S
C883 C420 1.166 . S
C901 C455 1.424 . S
C897 C243 1.465 . S
C919 C465 0.984 . S
C915 C266 1.021 . S
C937 C495 1.459 . S
C933 C179 1.529 . S
C955 C345 1.324 . S
C951 C163 1.471 . S
C969 C289 1.755 . S
C973 C515 1.713 . S
C991 C525 1.399 . S
C987 C333 1.494 . S
C1009 C540 0.958 . S
C1005 C308 1.024 . S
C1023 C123 1.432 . S
C1027 C485 1.298 . S
C1041 C126 1.568 . S
C1045 C385 1.480 . S
C1059 C327 1.783 . S
C1063 C575 1.745 . S
C1081 C580 1.058 . S
C1077 C299 1.141 . S
C1099 C338 1.244 . S
C1095 C67 1.405 . S
C1117 C594 1.480 . S
C1113 C98 1.509 . S
C1131 C89 1.134 . S
C1135 C378 1.041 . S
C1149 C79 1.519 . S
C1153 C568 1.426 . S
C1171 C428 1.398 . S
C1167 C11 1.476 . S
C1185 C51 1.105 . S
C1189 C518 1.007 . S
C1207 C474 1.527 1_556 S
C1203 C33 1.571 . S
C1225 C598 1.251 . S
C1221 C14 1.413 . S
C1243 C354 1.575 . S
C1239 C140 1.647 . S
C1261 C588 0.978 . S
C1257 C319 1.020 . S
C1275 C112 1.499 . S
C1279 C394 1.468 . S
C1293 C285 1.244 . S
C1297 C558 1.144 . S
C1311 C149 1.286 . S
C1315 C418 1.176 . S
C1333 C534 1.471 . S
C1329 C313 1.503 . S
C1347 C121 1.083 . S
C1351 C468 1.025 . S
C1365 C291 1.551 . S
C1369 C614 1.498 . S
C1383 C182 1.459 . S
C1387 C348 1.322 . S
C1401 C168 1.746 . S
C1405 C514 1.729 . S
C1419 C263 1.535 . S
C1423 C448 1.433 . S
C1437 C247 1.078 . S
C1441 C538 0.983 . S
C1459 C608 1.310 . S
C1455 C277 1.442 . S
C1473 C219 1.617 . S
C1477 C388 1.503 . S
C1495 C414 1.794 . S
C1491 C257 1.820 . S
C1513 C358 1.045 . S
C1509 C201 1.139 . S
C1527 C81 1.391 . S
C1531 C620 1.217 . S
C1549 C595 1.452 . S
C1545 C93 1.499 . S
C1563 C103 1.115 . S
C1567 C640 1.017 1_556 S
C1581 C56 1.468 . S
C1585 C565 1.392 . S
C1599 C53 1.450 . S
C1603 C505 1.374 . S
C1621 C520 1.007 . S
C1617 C0 1.077 . S
C1639 C555 1.500 . S
C1635 C19 1.530 . S
C1657 C600 1.236 . S
C1653 C37 1.426 . S
C1675 C635 1.597 . S
C1671 C261 1.672 . S
C1689 C193 0.990 . S
C1693 C585 0.935 . S
C1711 C655 1.450 . S
C1707 C205 1.498 . S
C1729 C560 1.122 . S
C1725 C215 1.225 . S
C1747 C500 1.150 . S
C1743 C252 1.247 . S
C1761 C187 1.465 . S
C1765 C535 1.424 . S
C1783 C545 0.962 . S
C1779 C196 1.008 . S
C1797 C221 1.527 . S
C1801 C615 1.467 . S
C1819 C625 1.323 . S
C1815 C317 1.471 . S
C1833 C135 1.747 . S
C1837 C435 1.714 . S
C1855 C445 1.391 . S
C1851 C151 1.489 . S
C1873 C460 0.969 . S
C1869 C154 1.031 . S
C1891 C605 1.305 . S
C1887 C305 1.434 . S
C1905 C280 1.569 . S
C1909 C645 1.482 . S
C1927 C415 1.754 . S
C1923 C145 1.780 . S
C1945 C360 1.039 . S
C1941 C117 1.139 . S
C1959 C95 1.396 . S
C1963 C618 1.214 . S
C1981 C374 1.484 . S
C1977 C70 1.507 . S
C1995 C61 1.133 . S
C1999 C638 1.035 . S
C2013 C107 1.517 . S
C2017 C408 1.440 . S
C2031 C39 1.477 . S
C2035 C508 1.402 . S
C2053 C438 1.019 . S
C2049 C23 1.104 . S
C2067 C5 1.571 . S
C2071 C554 1.536 . S
C2085 C42 1.416 . S
C2089 C478 1.247 . S
C2107 C634 1.580 . S
C2103 C322 1.644 . S
C2121 C165 1.010 . S
C2125 C368 0.948 . S
C2143 C654 1.465 1_655 S
C2139 C294 1.496 . S
C2157 C131 1.239 . S
C2161 C398 1.122 . S
C2175 C331 1.289 . S
C2179 C498 1.172 . S
C2197 C454 1.470 . S
C2193 C159 1.503 . S
C2211 C303 1.080 . S
C2215 C548 1.017 . S
C2233 C494 1.486 . S
C2229 C137 1.551 . S
C2251 C628 1.323 . S
C2247 C238 1.457 . S
C2269 C434 1.730 . S
C2265 C210 1.751 . S
C2283 C235 1.534 . S
C2287 C528 1.430 . S
C2305 C458 1.014 . S
C2301 C191 1.076 . S
C2319 C207 1.442 . S
C2323 C488 1.323 . S
C2337 C177 1.619 . S
C2341 C648 1.508 . S
C2359 C574 1.787 . S
C2355 C229 1.823 . S
C2377 C578 1.057 . S
C2373 C271 1.135 . S
