# Generated by pormake.
# Topology gar, (4,6)-cn, num edge types: 1
# Building blocks:
#     Node 0, Type 0, BuildingBlock: CEKHIL_clean_sbu_0, # of connection points: 4
#     Node 1, Type 0, BuildingBlock: CEKHIL_clean_sbu_0, # of connection points: 4
#     Node 2, Type 0, BuildingBlock: CEKHIL_clean_sbu_0, # of connection points: 4
#     Node 3, Type 0, BuildingBlock: CEKHIL_clean_sbu_0, # of connection points: 4
#     Node 4, Type 0, BuildingBlock: CEKHIL_clean_sbu_0, # of connection points: 4
#     Node 5, Type 0, BuildingBlock: CEKHIL_clean_sbu_0, # of connection points: 4
#     Node 6, Type 0, BuildingBlock: CEKHIL_clean_sbu_0, # of connection points: 4
#     Node 7, Type 0, BuildingBlock: CEKHIL_clean_sbu_0, # of connection points: 4
#     Node 8, Type 0, BuildingBlock: CEKHIL_clean_sbu_0, # of connection points: 4
#     Node 9, Type 0, BuildingBlock: CEKHIL_clean_sbu_0, # of connection points: 4
#     Node 10, Type 0, BuildingBlock: CEKHIL_clean_sbu_0, # of connection points: 4
#     Node 11, Type 0, BuildingBlock: CEKHIL_clean_sbu_0, # of connection points: 4
#     Node 12, Type 0, BuildingBlock: CEKHIL_clean_sbu_0, # of connection points: 4
#     Node 13, Type 0, BuildingBlock: CEKHIL_clean_sbu_0, # of connection points: 4
#     Node 14, Type 0, BuildingBlock: CEKHIL_clean_sbu_0, # of connection points: 4
#     Node 15, Type 0, BuildingBlock: CEKHIL_clean_sbu_0, # of connection points: 4
#     Node 16, Type 0, BuildingBlock: CEKHIL_clean_sbu_0, # of connection points: 4
#     Node 17, Type 0, BuildingBlock: CEKHIL_clean_sbu_0, # of connection points: 4
#     Node 18, Type 0, BuildingBlock: CEKHIL_clean_sbu_0, # of connection points: 4
#     Node 19, Type 0, BuildingBlock: CEKHIL_clean_sbu_0, # of connection points: 4
#     Node 20, Type 0, BuildingBlock: CEKHIL_clean_sbu_0, # of connection points: 4
#     Node 21, Type 0, BuildingBlock: CEKHIL_clean_sbu_0, # of connection points: 4
#     Node 22, Type 0, BuildingBlock: CEKHIL_clean_sbu_0, # of connection points: 4
#     Node 23, Type 0, BuildingBlock: CEKHIL_clean_sbu_0, # of connection points: 4
#     Node 24, Type 1, BuildingBlock: CUKXOW_clean_sbu_0, # of connection points: 6
#     Node 25, Type 1, BuildingBlock: CUKXOW_clean_sbu_0, # of connection points: 6
#     Node 26, Type 1, BuildingBlock: CUKXOW_clean_sbu_0, # of connection points: 6
#     Node 27, Type 1, BuildingBlock: CUKXOW_clean_sbu_0, # of connection points: 6
#     Node 28, Type 1, BuildingBlock: CUKXOW_clean_sbu_0, # of connection points: 6
#     Node 29, Type 1, BuildingBlock: CUKXOW_clean_sbu_0, # of connection points: 6
#     Node 30, Type 1, BuildingBlock: CUKXOW_clean_sbu_0, # of connection points: 6
#     Node 31, Type 1, BuildingBlock: CUKXOW_clean_sbu_0, # of connection points: 6
#     Node 32, Type 1, BuildingBlock: CUKXOW_clean_sbu_0, # of connection points: 6
#     Node 33, Type 1, BuildingBlock: CUKXOW_clean_sbu_0, # of connection points: 6
#     Node 34, Type 1, BuildingBlock: CUKXOW_clean_sbu_0, # of connection points: 6
#     Node 35, Type 1, BuildingBlock: CUKXOW_clean_sbu_0, # of connection points: 6
#     Node 36, Type 1, BuildingBlock: CUKXOW_clean_sbu_0, # of connection points: 6
#     Node 37, Type 1, BuildingBlock: CUKXOW_clean_sbu_0, # of connection points: 6
#     Node 38, Type 1, BuildingBlock: CUKXOW_clean_sbu_0, # of connection points: 6
#     Node 39, Type 1, BuildingBlock: CUKXOW_clean_sbu_0, # of connection points: 6
#     Edge 40, Type (0, 1), BuildingBlock: MIFKUJ_clean_linker_0, # of connection points: 2
#     Edge 41, Type (0, 1), BuildingBlock: MIFKUJ_clean_linker_0, # of connection points: 2
#     Edge 42, Type (0, 1), BuildingBlock: MIFKUJ_clean_linker_0, # of connection points: 2
#     Edge 43, Type (0, 1), BuildingBlock: MIFKUJ_clean_linker_0, # of connection points: 2
#     Edge 44, Type (0, 1), BuildingBlock: MIFKUJ_clean_linker_0, # of connection points: 2
#     Edge 45, Type (0, 1), BuildingBlock: MIFKUJ_clean_linker_0, # of connection points: 2
#     Edge 46, Type (0, 1), BuildingBlock: MIFKUJ_clean_linker_0, # of connection points: 2
#     Edge 47, Type (0, 1), BuildingBlock: MIFKUJ_clean_linker_0, # of connection points: 2
#     Edge 48, Type (0, 1), BuildingBlock: MIFKUJ_clean_linker_0, # of connection points: 2
#     Edge 49, Type (0, 1), BuildingBlock: MIFKUJ_clean_linker_0, # of connection points: 2
#     Edge 50, Type (0, 1), BuildingBlock: MIFKUJ_clean_linker_0, # of connection points: 2
#     Edge 51, Type (0, 1), BuildingBlock: MIFKUJ_clean_linker_0, # of connection points: 2
#     Edge 52, Type (0, 1), BuildingBlock: MIFKUJ_clean_linker_0, # of connection points: 2
#     Edge 53, Type (0, 1), BuildingBlock: MIFKUJ_clean_linker_0, # of connection points: 2
#     Edge 54, Type (0, 1), BuildingBlock: MIFKUJ_clean_linker_0, # of connection points: 2
#     Edge 55, Type (0, 1), BuildingBlock: MIFKUJ_clean_linker_0, # of connection points: 2
#     Edge 56, Type (0, 1), BuildingBlock: MIFKUJ_clean_linker_0, # of connection points: 2
#     Edge 57, Type (0, 1), BuildingBlock: MIFKUJ_clean_linker_0, # of connection points: 2
#     Edge 58, Type (0, 1), BuildingBlock: MIFKUJ_clean_linker_0, # of connection points: 2
#     Edge 59, Type (0, 1), BuildingBlock: MIFKUJ_clean_linker_0, # of connection points: 2
#     Edge 60, Type (0, 1), BuildingBlock: MIFKUJ_clean_linker_0, # of connection points: 2
#     Edge 61, Type (0, 1), BuildingBlock: MIFKUJ_clean_linker_0, # of connection points: 2
#     Edge 62, Type (0, 1), BuildingBlock: MIFKUJ_clean_linker_0, # of connection points: 2
#     Edge 63, Type (0, 1), BuildingBlock: MIFKUJ_clean_linker_0, # of connection points: 2
#     Edge 64, Type (0, 1), BuildingBlock: MIFKUJ_clean_linker_0, # of connection points: 2
#     Edge 65, Type (0, 1), BuildingBlock: MIFKUJ_clean_linker_0, # of connection points: 2
#     Edge 66, Type (0, 1), BuildingBlock: MIFKUJ_clean_linker_0, # of connection points: 2
#     Edge 67, Type (0, 1), BuildingBlock: MIFKUJ_clean_linker_0, # of connection points: 2
#     Edge 68, Type (0, 1), BuildingBlock: MIFKUJ_clean_linker_0, # of connection points: 2
#     Edge 69, Type (0, 1), BuildingBlock: MIFKUJ_clean_linker_0, # of connection points: 2
#     Edge 70, Type (0, 1), BuildingBlock: MIFKUJ_clean_linker_0, # of connection points: 2
#     Edge 71, Type (0, 1), BuildingBlock: MIFKUJ_clean_linker_0, # of connection points: 2
#     Edge 72, Type (0, 1), BuildingBlock: MIFKUJ_clean_linker_0, # of connection points: 2
#     Edge 73, Type (0, 1), BuildingBlock: MIFKUJ_clean_linker_0, # of connection points: 2
#     Edge 74, Type (0, 1), BuildingBlock: MIFKUJ_clean_linker_0, # of connection points: 2
#     Edge 75, Type (0, 1), BuildingBlock: MIFKUJ_clean_linker_0, # of connection points: 2
#     Edge 76, Type (0, 1), BuildingBlock: MIFKUJ_clean_linker_0, # of connection points: 2
#     Edge 77, Type (0, 1), BuildingBlock: MIFKUJ_clean_linker_0, # of connection points: 2
#     Edge 78, Type (0, 1), BuildingBlock: MIFKUJ_clean_linker_0, # of connection points: 2
#     Edge 79, Type (0, 1), BuildingBlock: MIFKUJ_clean_linker_0, # of connection points: 2
#     Edge 80, Type (0, 1), BuildingBlock: MIFKUJ_clean_linker_0, # of connection points: 2
#     Edge 81, Type (0, 1), BuildingBlock: MIFKUJ_clean_linker_0, # of connection points: 2
#     Edge 82, Type (0, 1), BuildingBlock: MIFKUJ_clean_linker_0, # of connection points: 2
#     Edge 83, Type (0, 1), BuildingBlock: MIFKUJ_clean_linker_0, # of connection points: 2
#     Edge 84, Type (0, 1), BuildingBlock: MIFKUJ_clean_linker_0, # of connection points: 2
#     Edge 85, Type (0, 1), BuildingBlock: MIFKUJ_clean_linker_0, # of connection points: 2
#     Edge 86, Type (0, 1), BuildingBlock: MIFKUJ_clean_linker_0, # of connection points: 2
#     Edge 87, Type (0, 1), BuildingBlock: MIFKUJ_clean_linker_0, # of connection points: 2
#     Edge 88, Type (0, 1), BuildingBlock: MIFKUJ_clean_linker_0, # of connection points: 2
#     Edge 89, Type (0, 1), BuildingBlock: MIFKUJ_clean_linker_0, # of connection points: 2
#     Edge 90, Type (0, 1), BuildingBlock: MIFKUJ_clean_linker_0, # of connection points: 2
#     Edge 91, Type (0, 1), BuildingBlock: MIFKUJ_clean_linker_0, # of connection points: 2
#     Edge 92, Type (0, 1), BuildingBlock: MIFKUJ_clean_linker_0, # of connection points: 2
#     Edge 93, Type (0, 1), BuildingBlock: MIFKUJ_clean_linker_0, # of connection points: 2
#     Edge 94, Type (0, 1), BuildingBlock: MIFKUJ_clean_linker_0, # of connection points: 2
#     Edge 95, Type (0, 1), BuildingBlock: MIFKUJ_clean_linker_0, # of connection points: 2
#     Edge 96, Type (0, 1), BuildingBlock: MIFKUJ_clean_linker_0, # of connection points: 2
#     Edge 97, Type (0, 1), BuildingBlock: MIFKUJ_clean_linker_0, # of connection points: 2
#     Edge 98, Type (0, 1), BuildingBlock: MIFKUJ_clean_linker_0, # of connection points: 2
#     Edge 99, Type (0, 1), BuildingBlock: MIFKUJ_clean_linker_0, # of connection points: 2
#     Edge 100, Type (0, 1), BuildingBlock: MIFKUJ_clean_linker_0, # of connection points: 2
#     Edge 101, Type (0, 1), BuildingBlock: MIFKUJ_clean_linker_0, # of connection points: 2
#     Edge 102, Type (0, 1), BuildingBlock: MIFKUJ_clean_linker_0, # of connection points: 2
#     Edge 103, Type (0, 1), BuildingBlock: MIFKUJ_clean_linker_0, # of connection points: 2
#     Edge 104, Type (0, 1), BuildingBlock: MIFKUJ_clean_linker_0, # of connection points: 2
#     Edge 105, Type (0, 1), BuildingBlock: MIFKUJ_clean_linker_0, # of connection points: 2
#     Edge 106, Type (0, 1), BuildingBlock: MIFKUJ_clean_linker_0, # of connection points: 2
#     Edge 107, Type (0, 1), BuildingBlock: MIFKUJ_clean_linker_0, # of connection points: 2
#     Edge 108, Type (0, 1), BuildingBlock: MIFKUJ_clean_linker_0, # of connection points: 2
#     Edge 109, Type (0, 1), BuildingBlock: MIFKUJ_clean_linker_0, # of connection points: 2
#     Edge 110, Type (0, 1), BuildingBlock: MIFKUJ_clean_linker_0, # of connection points: 2
#     Edge 111, Type (0, 1), BuildingBlock: MIFKUJ_clean_linker_0, # of connection points: 2
#     Edge 112, Type (0, 1), BuildingBlock: MIFKUJ_clean_linker_0, # of connection points: 2
#     Edge 113, Type (0, 1), BuildingBlock: MIFKUJ_clean_linker_0, # of connection points: 2
#     Edge 114, Type (0, 1), BuildingBlock: MIFKUJ_clean_linker_0, # of connection points: 2
#     Edge 115, Type (0, 1), BuildingBlock: MIFKUJ_clean_linker_0, # of connection points: 2
#     Edge 116, Type (0, 1), BuildingBlock: MIFKUJ_clean_linker_0, # of connection points: 2
#     Edge 117, Type (0, 1), BuildingBlock: MIFKUJ_clean_linker_0, # of connection points: 2
#     Edge 118, Type (0, 1), BuildingBlock: MIFKUJ_clean_linker_0, # of connection points: 2
#     Edge 119, Type (0, 1), BuildingBlock: MIFKUJ_clean_linker_0, # of connection points: 2
#     Edge 120, Type (0, 1), BuildingBlock: MIFKUJ_clean_linker_0, # of connection points: 2
#     Edge 121, Type (0, 1), BuildingBlock: MIFKUJ_clean_linker_0, # of connection points: 2
#     Edge 122, Type (0, 1), BuildingBlock: MIFKUJ_clean_linker_0, # of connection points: 2
#     Edge 123, Type (0, 1), BuildingBlock: MIFKUJ_clean_linker_0, # of connection points: 2
#     Edge 124, Type (0, 1), BuildingBlock: MIFKUJ_clean_linker_0, # of connection points: 2
#     Edge 125, Type (0, 1), BuildingBlock: MIFKUJ_clean_linker_0, # of connection points: 2
#     Edge 126, Type (0, 1), BuildingBlock: MIFKUJ_clean_linker_0, # of connection points: 2
#     Edge 127, Type (0, 1), BuildingBlock: MIFKUJ_clean_linker_0, # of connection points: 2
#     Edge 128, Type (0, 1), BuildingBlock: MIFKUJ_clean_linker_0, # of connection points: 2
#     Edge 129, Type (0, 1), BuildingBlock: MIFKUJ_clean_linker_0, # of connection points: 2
#     Edge 130, Type (0, 1), BuildingBlock: MIFKUJ_clean_linker_0, # of connection points: 2
#     Edge 131, Type (0, 1), BuildingBlock: MIFKUJ_clean_linker_0, # of connection points: 2
#     Edge 132, Type (0, 1), BuildingBlock: MIFKUJ_clean_linker_0, # of connection points: 2
#     Edge 133, Type (0, 1), BuildingBlock: MIFKUJ_clean_linker_0, # of connection points: 2
#     Edge 134, Type (0, 1), BuildingBlock: MIFKUJ_clean_linker_0, # of connection points: 2
#     Edge 135, Type (0, 1), BuildingBlock: MIFKUJ_clean_linker_0, # of connection points: 2
# Relax obj value: 0.103
# Max RMSD: 0.218
# Mean RMSD: 0.119
data_MOF--net-gar--node1-CEKHIL_clean_sbu_0--node2-CUKXOW_clean_sbu_0--edge1-MIFKUJ_clean_linker_0
_symmetry_space_group_name_H-M    P1
_symmetry_Int_Tables_number       1
_symmetry_cell_setting            triclinic
loop_
_symmetry_equiv_pos_as_xyz
'x, y, z'
_cell_length_a     71.77471
_cell_length_b     69.037417
_cell_length_c     69.42931
_cell_angle_alpha  93.460347
_cell_angle_beta   95.292118
_cell_angle_gamma 98.695337
loop_
_atom_site_label
_atom_site_type_symbol
_atom_site_fract_x
_atom_site_fract_y
_atom_site_fract_z
_atom_type_partial_charge
Co0 Co 0.03258 0.27943 0.39948 0.0
O1 O 0.05874 0.27658 0.39741 0.0
O2 O 0.03508 0.26828 0.3741 0.0
C3 C 0.03832 0.31014 0.41375 0.0
O4 O 0.0046 0.28091 0.39462 0.0
Co5 Co 0.01466 0.28628 0.43761 0.0
O6 O 0.99213 0.29132 0.42104 0.0
C7 C 0.02201 0.24658 0.42545 0.0
C8 C 0.05301 0.26962 0.37964 0.0
C9 C 0.99089 0.28658 0.40291 0.0
O10 O 0.0274 0.25244 0.40932 0.0
O11 O 0.01728 0.25787 0.43882 0.0
O12 O 0.03822 0.30723 0.39505 0.0
O13 O 0.03619 0.29459 0.42328 0.0
Co14 Co 0.99588 0.79884 0.61583 0.0
O15 O 0.96853 0.79457 0.61274 0.0
O16 O 0.98657 0.78806 0.6385 0.0
C17 C 0.99991 0.82917 0.6052 0.0
O18 O 0.02366 0.80183 0.62553 0.0
Co19 Co 0.02157 0.80614 0.58265 0.0
O20 O 0.04251 0.81392 0.60369 0.0
C21 C 1.00188 0.76599 0.58728 0.0
C22 C 0.96973 0.78845 0.63012 0.0
C23 C 0.04001 0.80886 0.62071 0.0
O24 O 0.99618 0.77177 0.60339 0.0
O25 O 0.01097 0.77765 0.57647 0.0
O26 O 0.9961 0.82675 0.62293 0.0
O27 O 0.99982 0.81335 0.5943 0.0
Co28 Co 0.52804 0.77465 0.90579 0.0
O29 O 0.55458 0.77425 0.90372 0.0
O30 O 0.53129 0.76369 0.88049 0.0
C31 C 0.5316 0.80546 0.91946 0.0
O32 O 0.49961 0.77325 0.90129 0.0
Co33 Co 0.50992 0.78073 0.94399 0.0
O34 O 0.48744 0.78548 0.92711 0.0
C35 C 0.51934 0.74171 0.9319 0.0
C36 C 0.54933 0.76683 0.88603 0.0
C37 C 0.48586 0.77905 0.90937 0.0
O38 O 0.5251 0.7479 0.91606 0.0
O39 O 0.51345 0.7525 0.94494 0.0
O40 O 0.53125 0.80236 0.90076 0.0
O41 O 0.53083 0.79015 0.92934 0.0
Co42 Co 0.48728 0.28969 0.1226 0.0
O43 O 0.46014 0.28649 0.12245 0.0
O44 O 0.48008 0.27935 0.14637 0.0
C45 C 0.49056 0.31982 0.11159 0.0
O46 O 0.51563 0.29183 0.1291 0.0
Co47 Co 0.50869 0.29597 0.08602 0.0
O48 O 0.53206 0.30138 0.10446 0.0
C49 C 0.48655 0.2574 0.0917 0.0
C50 C 0.4628 0.2805 0.13975 0.0
C51 C 0.53134 0.29723 0.12204 0.0
O52 O 0.48559 0.26254 0.10966 0.0
O53 O 0.49323 0.26925 0.07963 0.0
O54 O 0.48893 0.31779 0.12989 0.0
O55 O 0.48904 0.30381 0.10066 0.0
Co56 Co 0.98946 0.77675 0.15697 0.0
O57 O 0.96197 0.77248 0.15346 0.0
O58 O 0.97891 0.76954 0.18094 0.0
C59 C 0.99285 0.80537 0.1421 0.0
O60 O 0.01789 0.78082 0.16666 0.0
Co61 Co 0.0138 0.77938 0.12205 0.0
O62 O 0.03498 0.78981 0.14218 0.0
C63 C 0.99442 0.74072 0.13172 0.0
C64 C 0.96224 0.76923 0.17168 0.0
C65 C 0.03378 0.78713 0.16006 0.0
O66 O 0.99004 0.74823 0.14789 0.0
O67 O 1.0022 0.75092 0.11897 0.0
O68 O 0.98959 0.8053 0.1602 0.0
O69 O 0.99285 0.78832 0.1335 0.0
Co70 Co 0.52669 0.79497 0.36839 0.0
O71 O 0.55417 0.799 0.37195 0.0
O72 O 0.53706 0.78598 0.34501 0.0
C73 C 0.52367 0.82519 0.38142 0.0
O74 O 0.49813 0.78925 0.35883 0.0
Co75 Co 0.50307 0.79653 0.40362 0.0
O76 O 0.48089 0.79352 0.38383 0.0
C77 C 0.52357 0.76327 0.39677 0.0
C78 C 0.5538 0.79157 0.35429 0.0
C79 C 0.48209 0.78973 0.36583 0.0
O80 O 0.52598 0.76817 0.37939 0.0
O81 O 0.51674 0.77396 0.40917 0.0
O82 O 0.52683 0.82282 0.36335 0.0
O83 O 0.52372 0.80984 0.39105 0.0
Co84 Co 0.4897 0.2692 0.65403 0.0
O85 O 0.46235 0.26636 0.64996 0.0
O86 O 0.47829 0.26092 0.67725 0.0
C87 C 0.49476 0.29878 0.6411 0.0
O88 O 0.51798 0.2717 0.6641 0.0
Co89 Co 0.51432 0.27234 0.61941 0.0
O90 O 0.53547 0.28117 0.64004 0.0
C91 C 0.4923 0.2341 0.6264 0.0
C92 C 0.46197 0.26195 0.66782 0.0
C93 C 0.53404 0.2779 0.65777 0.0
O94 O 0.48904 0.24093 0.6433 0.0
O95 O 0.50033 0.2448 0.61415 0.0
O96 O 0.49102 0.29775 0.659 0.0
O97 O 0.4941 0.2821 0.63147 0.0
Co98 Co 0.0293 0.30172 0.87069 0.0
O99 O 0.05679 0.3057 0.87493 0.0
O100 O 0.0402 0.29303 0.84758 0.0
C101 C 0.02574 0.33172 0.88402 0.0
O102 O 1.00092 0.2961 0.86034 0.0
Co103 Co 0.00468 0.3022 0.90532 0.0
O104 O 0.9829 0.29864 0.88503 0.0
C105 C 0.02579 0.26953 0.89846 0.0
C106 C 0.05678 0.29848 0.85722 0.0
C107 C 0.98462 0.29566 0.86703 0.0
O108 O 0.0282 0.27467 0.88116 0.0
O109 O 0.01885 0.28 0.91097 0.0
O110 O 0.02989 0.32979 0.86623 0.0
O111 O 0.02543 0.31611 0.89331 0.0
Co112 Co 0.39842 0.07459 0.2529 0.0
O113 O 0.39994 0.10295 0.25116 0.0
O114 O 0.37476 0.08112 0.24108 0.0
C115 C 0.41114 0.07599 0.28451 0.0
O116 O 0.38995 0.04488 0.25322 0.0
Co117 Co 0.43275 0.05309 0.26217 0.0
O118 O 0.41326 0.03133 0.26825 0.0
C119 C 0.42507 0.06593 0.22239 0.0
C120 C 0.38227 0.09952 0.24399 0.0
C121 C 0.39605 0.0304 0.26134 0.0
O122 O 0.40918 0.0712 0.22656 0.0
O123 O 0.43654 0.05986 0.23504 0.0
O124 O 0.39344 0.07753 0.28031 0.0
O125 O 0.42078 0.07518 0.26979 0.0
Co126 Co 0.27859 0.14978 0.48712 0.0
O127 O 0.30508 0.15317 0.4962 0.0
O128 O 0.28417 0.12685 0.49977 0.0
C129 C 0.28286 0.16034 0.45765 0.0
O130 O 0.25038 0.14066 0.47933 0.0
Co131 Co 0.25871 0.18475 0.47493 0.0
O132 O 0.2371 0.16415 0.4648 0.0
C133 C 0.26903 0.17992 0.51648 0.0
C134 C 0.30159 0.13585 0.50261 0.0
C135 C 0.23624 0.14669 0.47004 0.0
O136 O 0.27329 0.1628 0.51231 0.0
O137 O 0.26444 0.19135 0.5036 0.0
O138 O 0.28394 0.14215 0.46079 0.0
O139 O 0.28034 0.17152 0.4724 0.0
Co140 Co 0.14827 0.00408 0.7899 0.0
O141 O 0.14612 0.97579 0.7856 0.0
O142 O 0.1719 0.99701 0.78264 0.0
C143 C 0.13446 0.00365 0.81807 0.0
O144 O 0.15659 0.03395 0.79325 0.0
Co145 Co 0.11365 0.0258 0.79237 0.0
O146 O 0.13246 0.0499 0.79918 0.0
C147 C 0.12176 0.00821 0.75457 0.0
C148 C 0.16363 0.97885 0.78171 0.0
C149 C 0.14993 0.04991 0.79718 0.0
O150 O 0.13827 0.00549 0.76186 0.0
O151 O 0.10957 0.01434 0.76483 0.0
O152 O 0.15238 1.00242 0.81817 0.0
O153 O 0.12554 0.00418 0.8012 0.0
Co154 Co 0.22105 0.8994 0.01424 0.0
O155 O 0.19359 0.897 0.01501 0.0
O156 O 0.21378 0.92384 0.0244 0.0
C157 C 0.22041 0.88536 0.98322 0.0
O158 O 0.24971 0.90888 0.01466 0.0
Co159 Co 0.24243 0.86372 0.0083 0.0
O160 O 0.26478 0.88383 0.0062 0.0
C161 C 0.23111 0.87372 0.04735 0.0
C162 C 0.19621 0.91541 0.02139 0.0
C163 C 0.26479 0.90201 0.01066 0.0
O164 O 0.22478 0.88931 0.04157 0.0
O165 O 0.23704 0.86139 0.03581 0.0
O166 O 0.21799 0.90353 0.98623 0.0
O167 O 0.22136 0.87594 -0.00133 0.0
Co168 Co 0.25537 0.42486 0.02193 0.0
O169 O 0.22977 0.42281 0.01037 0.0
O170 O 0.2457 0.44908 0.02777 0.0
C171 C 0.26639 0.41228 0.99545 0.0
O172 O 0.28239 0.43259 0.03485 0.0
Co173 Co 0.27416 0.38724 0.02624 0.0
O174 O 0.29765 0.40639 0.0334 0.0
C175 C 0.24436 0.39535 0.05059 0.0
C176 C 0.23028 0.44078 0.01725 0.0
C177 C 0.29752 0.42466 0.03723 0.0
O178 O 0.24624 0.41334 0.04614 0.0
O179 O 0.25248 0.38228 0.04237 0.0
O180 O 0.26468 0.43077 0.99694 0.0
O181 O 0.26014 0.40205 0.00906 0.0
Co182 Co 0.79926 0.1627 -0.00174 0.0
O183 O 0.8269 0.16501 -0.00014 0.0
O184 O 0.80785 0.13822 0.00502 0.0
C185 C 0.79544 0.17706 0.96939 0.0
O186 O 0.77049 0.15352 0.99727 0.0
Co187 Co 0.77777 0.1986 0.99778 0.0
O188 O 0.75466 0.17862 0.99154 0.0
C189 C 0.79641 0.18883 0.03496 0.0
C190 C 0.82509 0.14667 0.00371 0.0
C191 C 0.75487 0.16046 0.99382 0.0
O192 O 0.80015 0.17262 0.02687 0.0
O193 O 0.78921 0.2017 0.02548 0.0
O194 O 0.79775 0.15876 0.96964 0.0
O195 O 0.79698 0.18631 0.9863 0.0
Co196 Co 0.12103 0.49302 0.28438 0.0
O197 O 0.11795 0.46439 0.2829 0.0
O198 O 0.14358 0.4837 0.2764 0.0
C199 C 0.1093 0.49641 0.31372 0.0
O200 O 0.13089 0.52252 0.28518 0.0
Co201 Co 0.0883 0.5172 0.28686 0.0
O202 O 0.10849 0.54051 0.29201 0.0
C203 C 0.09355 0.49741 0.24909 0.0
C204 C 0.13516 0.46595 0.27809 0.0
C205 C 0.12552 0.53919 0.28904 0.0
O206 O 0.10955 0.49289 0.25618 0.0
O207 O 0.08251 0.50534 0.2595 0.0
O208 O 0.12683 0.494 0.31285 0.0
O209 O 0.09933 0.49564 0.2972 0.0
Co210 Co 0.75515 0.93184 0.53161 0.0
O211 O 0.72829 0.92964 0.52549 0.0
O212 O 0.74704 0.95676 0.5381 0.0
C213 C 0.7604 0.91702 0.50337 0.0
O214 O 0.78365 0.93973 0.53876 0.0
Co215 Co 0.77398 0.89419 0.5342 0.0
O216 O 0.798 0.91296 0.53634 0.0
C217 C 0.7495 0.90489 0.5635 0.0
C218 C 0.73012 0.9481 0.53129 0.0
C219 C 0.79863 0.93149 0.53905 0.0
O220 O 0.75112 0.92255 0.55816 0.0
O221 O 0.75567 0.89094 0.55432 0.0
O222 O 0.75889 0.93556 0.5045 0.0
O223 O 0.75724 0.90792 0.51869 0.0
Co224 Co 0.87386 0.05757 0.2411 0.0
O225 O 0.8757 0.08577 0.24406 0.0
O226 O 0.85007 0.06556 0.2315 0.0
C227 C 0.88707 0.05527 0.27151 0.0
O228 O 0.86608 0.02758 0.23702 0.0
Co229 Co 0.9095 0.03716 0.24525 0.0
O230 O 0.89102 0.01295 0.24627 0.0
C231 C 0.90134 0.05845 0.21052 0.0
C232 C 0.85802 0.08346 0.23721 0.0
C233 C 0.87343 0.01213 0.24093 0.0
O234 O 0.88432 0.05928 0.21483 0.0
O235 O 0.91379 0.05203 0.22179 0.0
O236 O 0.86911 0.05611 0.26837 0.0
O237 O 0.89646 0.05679 0.25659 0.0
Co238 Co 0.2973 0.66114 0.49753 0.0
O239 O 0.325 0.66404 0.50004 0.0
O240 O 0.3061 0.63709 0.50514 0.0
C241 C 0.29403 0.67484 0.46825 0.0
O242 O 0.2686 0.65113 0.4957 0.0
Co243 Co 0.27423 0.69571 0.49484 0.0
O244 O 0.25209 0.67495 0.48715 0.0
C245 C 0.29055 0.68631 0.53351 0.0
C246 C 0.32332 0.64578 0.5042 0.0
C247 C 0.25281 0.65715 0.4906 0.0
O248 O 0.29718 0.67146 0.52593 0.0
O249 O 0.28202 0.69788 0.52342 0.0
O250 O 0.29677 0.65671 0.46904 0.0
O251 O 0.29474 0.68438 0.48492 0.0
Co252 Co 0.37502 0.56097 0.74686 0.0
O253 O 0.37779 0.58929 0.74929 0.0
O254 O 0.35174 0.56978 0.73673 0.0
C255 C 0.38777 0.55866 0.77749 0.0
O256 O 0.36633 0.53099 0.74325 0.0
Co257 Co 0.40983 0.53928 0.75193 0.0
O258 O 0.39053 0.51605 0.75422 0.0
C259 C 0.40258 0.55978 0.71634 0.0
C260 C 0.36026 0.58757 0.7421 0.0
C261 C 0.37309 0.51551 0.74832 0.0
O262 O 0.38579 0.5618 0.72067 0.0
O263 O 0.41451 0.55281 0.72776 0.0
O264 O 0.36997 0.56022 0.77416 0.0
O265 O 0.39728 0.55962 0.76264 0.0
Co266 Co 0.62052 0.98806 0.77757 0.0
O267 O 0.61821 0.95944 0.77623 0.0
O268 O 0.64334 0.97947 0.76963 0.0
C269 C 0.60894 0.99175 0.80702 0.0
O270 O 0.62966 0.01764 0.77804 0.0
Co271 Co 0.58707 0.01152 0.77996 0.0
O272 O 0.60695 0.03509 0.78524 0.0
C273 C 0.59265 0.99151 0.74236 0.0
C274 C 0.63546 0.96156 0.77142 0.0
C275 C 0.62399 0.03412 0.78199 0.0
O276 O 0.60885 0.98747 0.74943 0.0
O277 O 0.58145 0.99925 0.75274 0.0
O278 O 0.62644 0.98927 0.80604 0.0
O279 O 0.59888 0.99055 0.7905 0.0
Co280 Co 0.77084 0.6471 0.98666 0.0
O281 O 0.79726 0.65019 0.99601 0.0
O282 O 0.77644 0.62317 0.99714 0.0
C283 C 0.77587 0.66078 0.95864 0.0
O284 O 0.74286 0.63774 0.97824 0.0
Co285 Co 0.74962 0.68172 0.97694 0.0
O286 O 0.72812 0.66137 0.966 0.0
C287 C 0.76138 0.67494 0.01778 0.0
C288 C 0.7938 0.63215 0.00068 0.0
C289 C 0.72817 0.6436 0.96994 0.0
O290 O 0.76509 0.65783 0.01261 0.0
O291 O 0.75666 0.68705 0.00564 0.0
O292 O 0.77698 0.64227 0.96004 0.0
O293 O 0.77232 0.67027 0.97407 0.0
Co294 Co 0.90044 0.57512 0.75517 0.0
O295 O 0.90227 0.60362 0.7544 0.0
O296 O 0.87694 0.58219 0.74376 0.0
C297 C 0.91346 0.57477 0.78653 0.0
O298 O 0.89152 0.54552 0.75441 0.0
Co299 Co 0.93462 0.55281 0.76195 0.0
O300 O 0.91529 0.52936 0.76385 0.0
C301 C 0.9267 0.56837 0.72377 0.0
C302 C 0.88464 0.60049 0.74698 0.0
C303 C 0.89781 0.52969 0.75888 0.0
O304 O 0.91063 0.57253 0.72854 0.0
O305 O 0.93878 0.56228 0.73575 0.0
O306 O 0.89592 0.57721 0.78276 0.0
O307 O 0.9229 0.57445 0.77159 0.0
Co308 Co 0.71858 0.39743 0.51554 0.0
O309 O 0.69098 0.39527 0.51462 0.0
O310 O 0.71105 0.42168 0.52579 0.0
C311 C 0.71941 0.38425 0.48439 0.0
O312 O 0.74733 0.40676 0.51796 0.0
Co313 Co 0.73996 0.36191 0.51048 0.0
O314 O 0.76287 0.38193 0.51024 0.0
C315 C 0.72468 0.36973 0.54792 0.0
C316 C 0.6935 0.41349 0.5216 0.0
C317 C 0.76272 0.40003 0.51494 0.0
O318 O 0.72043 0.38637 0.54255 0.0
O319 O 0.73081 0.35746 0.53646 0.0
O320 O 0.71729 0.40248 0.48772 0.0
O321 O 0.71943 0.37432 0.49955 0.0
Co322 Co 0.6491 0.50479 0.29872 0.0
O323 O 0.64581 0.47645 0.29389 0.0
O324 O 0.67192 0.49679 0.29027 0.0
C325 C 0.6363 0.50456 0.32747 0.0
O326 O 0.6586 0.53441 0.30249 0.0
Co327 Co 0.61586 0.52829 0.30338 0.0
O328 O 0.63591 0.55106 0.31164 0.0
C329 C 0.62271 0.51233 0.26435 0.0
C330 C 0.66317 0.47881 0.28946 0.0
C331 C 0.65294 0.55048 0.30815 0.0
O332 O 0.6386 0.5075 0.27108 0.0
O333 O 0.61129 0.5191 0.27518 0.0
O334 O 0.65389 0.50223 0.32682 0.0
O335 O 0.62702 0.50583 0.31095 0.0
Tb336 Tb 0.01807 0.05502 0.00643 0.0
C337 C 0.02313 0.01946 0.97829 0.0
Tb338 Tb 0.0079 0.01245 0.01928 0.0
O339 O 0.04816 0.05155 0.00633 0.0
O340 O 0.03119 0.03555 0.02409 0.0
O341 O 0.01876 0.03744 0.97964 0.0
C342 C 0.00966 0.97818 0.03483 0.0
O343 O 0.0215 0.00754 0.99264 0.0
C344 C 0.9782 0.02918 0.00793 0.0
C345 C 1.00171 0.04837 0.04694 0.0
O346 O 1.00062 0.98019 0.0181 0.0
O347 O 0.01777 0.99533 0.04245 0.0
O348 O 0.9773 0.01385 0.01799 0.0
O349 O 0.99464 0.03209 0.00235 0.0
O350 O 0.00512 0.02996 0.04575 0.0
O351 O 0.0047 0.06044 0.03293 0.0
C352 C 0.01699 0.08935 0.99053 0.0
O353 O 0.02622 0.08723 0.00715 0.0
O354 O 0.00838 0.07228 0.98319 0.0
C355 C 0.0473 0.03736 0.01786 0.0
Tb356 Tb 0.26461 0.80412 0.26687 0.0
C357 C 0.29424 0.77516 0.26778 0.0
Tb358 Tb 0.25005 0.76025 0.2578 0.0
O359 O 0.27537 0.79872 0.29648 0.0
O360 O 0.25197 0.78037 0.28234 0.0
O361 O 0.29117 0.79311 0.26408 0.0
C362 C 0.23591 0.72227 0.25832 0.0
O363 O 0.28011 0.76028 0.26814 0.0
C364 C 0.25056 0.78123 0.22717 0.0
C365 C 0.22042 0.78952 0.25709 0.0
O366 O 0.24941 0.7291 0.24811 0.0
O367 O 0.23109 0.73664 0.2686 0.0
O368 O 0.23957 0.76465 0.228 0.0
O369 O 0.26229 0.78391 0.24221 0.0
O370 O 0.22342 0.77139 0.26004 0.0
O371 O 0.23453 0.80452 0.25764 0.0
C372 C 0.27746 0.84249 0.2651 0.0
O373 O 0.27879 0.8285 0.25224 0.0
O374 O 0.26849 0.83493 0.27901 0.0
C375 C 0.26363 0.78261 0.2974 0.0
Tb376 Tb 0.52567 0.02712 0.50436 0.0
C377 C 0.51861 0.01523 0.54677 0.0
Tb378 Tb 0.48577 0.02638 0.51704 0.0
O379 O 0.53573 0.05279 0.52502 0.0
O380 O 0.50818 0.04802 0.51161 0.0
O381 O 0.52992 0.01562 0.53268 0.0
C382 C 0.45708 0.03816 0.53405 0.0
O383 O 0.50104 0.01931 0.54411 0.0
C384 C 0.4901 0.99465 0.49662 0.0
C385 C 0.49263 0.03603 0.47416 0.0
O386 O 0.4558 0.02256 0.52226 0.0
O387 O 0.47451 0.04685 0.53639 0.0
O388 O 0.4737 0.99997 0.49849 0.0
O389 O 0.50257 0.00526 0.50846 0.0
O390 O 0.48273 0.0392 0.48904 0.0
O391 O 0.50908 0.02923 0.47643 0.0
C392 C 0.55833 0.01998 0.49209 0.0
O393 O 0.55246 0.0369 0.49217 0.0
O394 O 0.54567 0.00726 0.4985 0.0
C395 C 0.51944 0.05879 0.52416 0.0
Tb396 Tb 0.26976 0.28594 0.78733 0.0
C397 C 0.27079 0.32047 0.75871 0.0
Tb398 Tb 0.25559 0.27653 0.74381 0.0
O399 O 0.29288 0.26896 0.78357 0.0
O400 O 0.28206 0.28339 0.76083 0.0
O401 O 0.26942 0.31522 0.77673 0.0
C402 C 0.25873 0.26112 0.70864 0.0
O403 O 0.26779 0.30742 0.7434 0.0
C404 C 0.22705 0.28368 0.7633 0.0
C405 C 0.249 0.24338 0.77401 0.0
O406 O 0.2505 0.27635 0.7122 0.0
O407 O 0.26498 0.25469 0.72477 0.0
O408 O 0.22549 0.27945 0.74459 0.0
O409 O 0.24421 0.28395 0.76945 0.0
O410 O 0.25008 0.24772 0.7557 0.0
O411 O 0.25447 0.25649 0.78904 0.0
C412 C 0.27931 0.30199 0.8233 0.0
O413 O 0.26369 0.29011 0.81753 0.0
O414 O 0.28941 0.30469 0.8089 0.0
C415 C 0.29353 0.2719 0.76533 0.0
Tb416 Tb 0.00819 0.03561 0.4896 0.0
C417 C 0.98645 0.02701 0.52522 0.0
Tb418 Tb 0.031 0.0344 0.52935 0.0
O419 O 0.99997 0.00353 0.48733 0.0
O420 O 0.02486 0.01656 0.50317 0.0
O421 O 0.98715 0.03758 0.5099 0.0
C422 C 0.04712 0.02387 0.56246 0.0
O423 O 1.00192 0.02139 0.53369 0.0
C424 C 0.026 0.06927 0.51888 0.0
C425 C 0.05338 0.04476 0.49346 0.0
O426 O 0.03524 0.0363 0.56112 0.0
O427 O 0.04997 0.01749 0.54521 0.0
O428 O 0.04051 0.06624 0.5303 0.0
O429 O 0.01451 0.05355 0.51571 0.0
O430 O 0.05413 0.03829 0.51113 0.0
O431 O 0.03717 0.0459 0.48284 0.0
C432 C 0.98871 0.04335 0.45708 0.0
O433 O 0.00456 0.0537 0.46485 0.0
O434 O 0.98413 0.02877 0.46745 0.0
C435 C 0.01401 1.00055 0.49925 0.0
Tb436 Tb 0.2837 0.78811 0.76826 0.0
C437 C 0.25415 0.79605 0.79685 0.0
Tb438 Tb 0.24187 0.78125 0.753 0.0
O439 O 0.28473 0.82009 0.77031 0.0
O440 O 0.26555 0.80258 0.75024 0.0
O441 O 0.26992 0.78839 0.79521 0.0
C442 C 0.20801 0.7875 0.73835 0.0
O443 O 0.24198 0.79698 0.78146 0.0
C444 C 0.2551 0.74927 0.76231 0.0
C445 C 0.27166 0.77091 0.72437 0.0
O446 O 0.21081 0.77602 0.75216 0.0
O447 O 0.2241 0.7951 0.73295 0.0
O448 O 0.24028 0.7494 0.75008 0.0
O449 O 0.26008 0.76634 0.77065 0.0
O450 O 0.25401 0.77394 0.72621 0.0
O451 O 0.28546 0.77505 0.73891 0.0
C452 C 0.31927 0.78743 0.78291 0.0
O453 O 0.30942 0.77429 0.77033 0.0
O454 O 0.30921 0.80089 0.78687 0.0
C455 C 0.27012 0.81985 0.7579 0.0
Tb456 Tb 0.48974 0.02319 0.00447 0.0
C457 C 0.51837 0.99286 0.01151 0.0
Tb458 Tb 0.53216 0.03876 0.01681 0.0
O459 O 0.49311 0.02798 0.9737 0.0
O460 O 0.5158 0.02333 0.99226 0.0
O461 O 0.50058 0.99615 0.01128 0.0
C462 C 0.56793 0.05618 0.01426 0.0
O463 O 0.53283 0.00736 0.0111 0.0
C464 C 0.51058 0.03379 0.04582 0.0
C465 C 0.50301 0.06895 0.01004 0.0
O466 O 0.56272 0.0438 0.0269 0.0
O467 O 0.55301 0.05875 0.00328 0.0
O468 O 0.52886 0.03408 0.04761 0.0
O469 O 0.50616 0.03865 0.02907 0.0
O470 O 0.52093 0.0659 0.01068 0.0
O471 O 0.48867 0.05432 0.01004 0.0
C472 C 0.45352 0.00678 0.00573 0.0
O473 O 0.45967 0.01846 0.99291 0.0
O474 O 0.46779 0.00423 0.01768 0.0
C475 C 0.51137 0.02831 0.97557 0.0
Tb476 Tb 0.2331 0.26997 0.25199 0.0
C477 C 0.25939 0.26597 0.28936 0.0
Tb478 Tb 0.27434 0.28779 0.25371 0.0
O479 O 0.24004 0.24014 0.25018 0.0
O480 O 0.25735 0.26273 0.23897 0.0
O481 O 0.24187 0.26726 0.2823 0.0
C482 C 0.31191 0.29283 0.25311 0.0
O483 O 0.27432 0.27231 0.28022 0.0
C484 C 0.25215 0.31297 0.26377 0.0
C485 C 0.24764 0.2907 0.21591 0.0
O486 O 0.30179 0.27795 0.25959 0.0
O487 O 0.30091 0.30507 0.24745 0.0
O488 O 0.26848 0.31787 0.2574 0.0
O489 O 0.25037 0.29498 0.26701 0.0
O490 O 0.26519 0.28941 0.22307 0.0
O491 O 0.23275 0.28471 0.22519 0.0
C492 C 0.19563 0.26463 0.25357 0.0
O493 O 0.20577 0.25075 0.25157 0.0
O494 O 0.20655 0.28142 0.25403 0.0
C495 C 0.25602 0.24498 0.24303 0.0
Tb496 Tb 0.50546 0.52726 0.99504 0.0
C497 C 0.48428 0.52237 0.03158 0.0
Tb498 Tb 0.52881 0.52967 0.03493 0.0
O499 O 0.49674 0.49554 0.99554 0.0
O500 O 0.52197 0.50914 0.01058 0.0
O501 O 0.48472 0.53129 0.01518 0.0
C502 C 0.54611 0.52538 0.06971 0.0
O503 O 0.49987 0.51753 0.04064 0.0
C504 C 0.52407 0.56319 0.02097 0.0
C505 C 0.55053 0.53546 0.99778 0.0
O506 O 0.53325 0.53643 0.06635 0.0
O507 O 0.54893 0.51633 0.05354 0.0
O508 O 0.5387 0.56098 0.03254 0.0
O509 O 0.51233 0.54763 0.01939 0.0
O510 O 0.55161 0.53093 0.01617 0.0
O511 O 0.53419 0.53572 0.98715 0.0
C512 C 0.48702 0.53375 0.9614 0.0
O513 O 0.48175 0.51988 0.9724 0.0
O514 O 0.50286 0.54401 0.96924 0.0
C515 C 0.51066 0.49326 0.008 0.0
Tb516 Tb 0.78081 0.28514 0.26883 0.0
C517 C 0.75012 0.29343 0.29726 0.0
Tb518 Tb 0.73816 0.27696 0.25321 0.0
O519 O 0.78151 0.31715 0.27236 0.0
O520 O 0.76124 0.29973 0.25305 0.0
O521 O 0.76753 0.28953 0.29561 0.0
C522 C 0.70449 0.28133 0.23608 0.0
O523 O 0.73675 0.29093 0.28229 0.0
C524 C 0.75298 0.2451 0.26008 0.0
C525 C 0.7689 0.26889 0.22478 0.0
O526 O 0.70707 0.27272 0.25209 0.0
O527 O 0.72073 0.28742 0.23001 0.0
O528 O 0.73718 0.24509 0.24932 0.0
O529 O 0.75775 0.26202 0.2688 0.0
O530 O 0.75136 0.27233 0.22649 0.0
O531 O 0.78236 0.27142 0.23967 0.0
C532 C 0.81518 0.28253 0.28545 0.0
O533 O 0.81182 0.29027 0.26911 0.0
O534 O 0.79929 0.27614 0.29209 0.0
C535 C 0.7658 0.31676 0.26139 0.0
Tb536 Tb 0.9866 0.52252 0.50971 0.0
C537 C 0.01723 0.49508 0.50659 0.0
Tb538 Tb 0.02944 0.54113 0.51568 0.0
O539 O 0.98838 0.51356 0.47911 0.0
O540 O 0.00704 0.53718 0.49295 0.0
O541 O 0.99986 0.49634 0.51109 0.0
C542 C 0.0656 0.55494 0.51054 0.0
O543 O 0.03035 0.51071 0.50575 0.0
C544 C 0.01263 0.53822 0.54792 0.0
C545 C 0.99854 0.56854 0.51832 0.0
O546 O 0.06021 0.54157 0.52216 0.0
O547 O 0.05066 0.56057 0.5021 0.0
O548 O 0.02828 0.55 0.54641 0.0
O549 O 0.00887 0.52689 0.53258 0.0
O550 O 0.01602 0.56729 0.51405 0.0
O551 O 0.98555 0.55291 0.51956 0.0
C552 C 0.95037 0.50791 0.5135 0.0
O553 O 0.95595 0.52251 0.50333 0.0
O554 O 0.96518 0.50169 0.52156 0.0
C555 C 0.00363 0.52591 0.47761 0.0
Tb556 Tb 0.76566 0.78738 0.29018 0.0
C557 C 0.77256 0.81814 0.25814 0.0
Tb558 Tb 0.75592 0.77333 0.24457 0.0
O559 O 0.79647 0.78503 0.29102 0.0
O560 O 0.77859 0.77884 0.26622 0.0
O561 O 0.76963 0.81508 0.27645 0.0
C562 C 0.76079 0.75683 0.21037 0.0
O563 O 0.77008 0.80382 0.24388 0.0
C564 C 0.72578 0.78067 0.26178 0.0
C565 C 0.74843 0.74291 0.27699 0.0
O566 O 0.75364 0.77293 0.21293 0.0
O567 O 0.76513 0.75014 0.22699 0.0
O568 O 0.72514 0.77521 0.24338 0.0
O569 O 0.74281 0.78197 0.26844 0.0
O570 O 0.75161 0.74564 0.25864 0.0
O571 O 0.75102 0.75737 0.29106 0.0
C572 C 0.76163 0.80381 0.32467 0.0
O573 O 0.76958 0.78826 0.32185 0.0
O574 O 0.756 0.80995 0.30814 0.0
C575 C 0.7956 0.77965 0.27259 0.0
Tb576 Tb 0.7643 0.30585 0.76854 0.0
C577 C 0.79617 0.27783 0.77035 0.0
Tb578 Tb 0.75297 0.25843 0.75889 0.0
O579 O 0.76547 0.30429 0.80075 0.0
O580 O 0.75896 0.27982 0.78217 0.0
O581 O 0.79178 0.29575 0.76834 0.0
C582 C 0.73841 0.22174 0.7654 0.0
O583 O 0.78334 0.26147 0.76892 0.0
C584 C 0.75507 0.27898 0.7274 0.0
C585 C 0.72126 0.28657 0.75608 0.0
O586 O 0.75178 0.2264 0.7542 0.0
O587 O 0.73361 0.2377 0.77296 0.0
O588 O 0.75078 0.25986 0.72673 0.0
O589 O 0.75861 0.28446 0.74512 0.0
O590 O 0.72546 0.26865 0.75862 0.0
O591 O 0.73423 0.30282 0.75743 0.0
C592 C 0.77941 0.34275 0.76352 0.0
O593 O 0.765 0.3378 0.77334 0.0
O594 O 0.78489 0.32698 0.75641 0.0
C595 C 0.76164 0.28515 0.7999 0.0
Tb596 Tb 0.73551 0.76883 0.75658 0.0
C597 C 0.76864 0.76183 0.78739 0.0
Tb598 Tb 0.77767 0.78706 0.75208 0.0
O599 O 0.74037 0.73843 0.74979 0.0
O600 O 0.7581 0.762 0.7412 0.0
O601 O 0.75036 0.76266 0.78353 0.0
C602 C 0.81097 0.79097 0.73795 0.0
O603 O 0.78187 0.76914 0.77648 0.0
C604 C 0.75751 0.81241 0.76646 0.0
C605 C 0.74407 0.79685 0.72321 0.0
O606 O 0.80876 0.79426 0.75622 0.0
O607 O 0.79467 0.78533 0.72805 0.0
O608 O 0.77399 0.81747 0.76021 0.0
O609 O 0.75522 0.79394 0.7673 0.0
O610 O 0.76245 0.79608 0.72646 0.0
O611 O 0.73099 0.78816 0.73353 0.0
C612 C 0.70188 0.7642 0.7702 0.0
O613 O 0.70455 0.75961 0.75227 0.0
O614 O 0.71794 0.7712 0.78002 0.0
C615 C 0.75651 0.74373 0.74299 0.0
Tb616 Tb 0.51449 0.55155 0.50954 0.0
C617 C 0.52007 0.51462 0.4831 0.0
Tb618 Tb 0.50327 0.50913 0.52342 0.0
O619 O 0.54499 0.54935 0.51181 0.0
O620 O 0.5269 0.5319 0.5274 0.0
O621 O 0.51634 0.53288 0.48359 0.0
C622 C 0.50357 0.47509 0.53975 0.0
O623 O 0.5175 0.50311 0.49762 0.0
C624 C 0.47428 0.52626 0.51058 0.0
C625 C 0.49725 0.54605 0.54989 0.0
O626 O 0.49495 0.47708 0.5228 0.0
O627 O 0.51202 0.49218 0.54729 0.0
O628 O 0.47274 0.51112 0.5209 0.0
O629 O 0.49097 0.52875 0.50568 0.0
O630 O 0.50044 0.52755 0.54925 0.0
O631 O 0.50074 0.55778 0.53567 0.0
C632 C 0.5136 0.58478 0.49156 0.0
O633 O 0.52168 0.58375 0.509 0.0
O634 O 0.5059 0.56726 0.4846 0.0
C635 C 0.54352 0.53429 0.52225 0.0
Tb636 Tb 0.02853 0.53313 0.00985 0.0
C637 C 0.02124 0.52368 0.0531 0.0
Tb638 Tb 0.98834 0.53191 0.02188 0.0
O639 O 0.03885 0.55987 0.0288 0.0
O640 O 0.01074 0.55392 0.0167 0.0
O641 O 0.03285 0.52399 0.03926 0.0
C642 C 0.95745 0.54213 0.03571 0.0
O643 O 0.00342 0.52692 0.04983 0.0
C644 C 0.99445 0.49991 0.0028 0.0
C645 C 0.99539 0.54039 0.97868 0.0
O646 O 0.97377 0.55319 0.03633 0.0
O647 O 0.95862 0.52491 0.02776 0.0
O648 O 0.97791 0.50541 0.00263 0.0
O649 O 0.00601 0.51116 0.01489 0.0
O650 O 0.98502 0.54322 0.99323 0.0
O651 O 0.01227 0.53455 0.98152 0.0
C652 C 0.06021 0.52214 -0.00117 0.0
O653 O 0.05534 0.53932 0.99634 0.0
O654 O 0.0471 0.51152 0.00679 0.0
C655 C 0.02227 0.56523 0.02875 0.0
H656 H 0.03993 0.26158 0.93407 0.0
H657 H 0.04117 0.22943 0.94638 0.0
H658 H 0.02159 0.20159 0.88931 0.0
H659 H 0.02047 0.23408 0.87679 0.0
H660 H 0.99956 0.18771 0.91794 0.0
H661 H 0.06525 0.19792 0.90875 0.0
H662 H 0.09776 0.21618 0.91108 0.0
H663 H 0.10071 0.21889 0.97325 0.0
H664 H 0.0681 0.2009 0.97132 0.0
H665 H 1.00217 0.09317 0.95378 0.0
H666 H 0.00471 0.1226 0.93588 0.0
H667 H 0.03449 0.15672 0.98665 0.0
H668 H 0.0326 0.12692 0.00442 0.0
H669 H 0.05244 0.16567 0.95746 0.0
H670 H 0.98435 0.17091 0.96488 0.0
H671 H 0.94991 0.15911 0.9631 0.0
H672 H 0.95128 0.13 0.90692 0.0
H673 H 0.98559 0.1422 0.90817 0.0
C674 C 0.03633 0.24864 0.92401 0.0
C675 C 0.03006 0.25032 0.90447 0.0
C676 C 0.03712 0.23025 0.93106 0.0
C677 C 0.03153 0.21307 0.91879 0.0
C678 C 0.02605 0.21469 0.89903 0.0
C679 C 0.02553 0.23322 0.89186 0.0
C680 C 0.02943 0.19366 0.92727 0.0
C681 C 0.01124 0.18263 0.9262 0.0
C682 C 0.04448 0.1874 0.93864 0.0
C683 C 0.06416 0.19814 0.93987 0.0
C684 C 0.07277 0.20253 0.92292 0.0
C685 C 0.09123 0.21281 0.92417 0.0
C686 C 0.10128 0.21872 0.9423 0.0
C687 C 0.0929 0.21431 0.95922 0.0
C688 C 0.07444 0.20404 0.95805 0.0
C689 C 0.00908 0.10699 0.96121 0.0
C690 C 0.01723 0.10774 0.9805 0.0
C691 C 0.01034 0.12393 0.95098 0.0
C692 C 0.01953 0.14211 0.95989 0.0
C693 C 0.0273 0.14293 0.97938 0.0
C694 C 0.0262 0.12591 0.98956 0.0
C695 C 0.02242 0.15985 0.94851 0.0
C696 C 0.0408 0.17057 0.94902 0.0
C697 C 0.0075 0.16606 0.93683 0.0
C698 C 0.98749 0.15706 0.93681 0.0
C699 C 0.97729 0.16181 0.95226 0.0
C700 C 0.95777 0.15532 0.95121 0.0
C701 C 0.94841 0.14381 0.9349 0.0
C702 C 0.95854 0.13889 0.91955 0.0
C703 C 0.97798 0.14568 0.92037 0.0
H704 H 0.93334 0.13864 0.9342 0.0
H705 H 0.11557 0.22668 0.94324 0.0
H706 H 0.06626 0.81212 0.15627 0.0
H707 H 0.09698 0.81479 0.17527 0.0
H708 H 0.07338 0.77109 0.2119 0.0
H709 H 0.04224 0.76901 0.19332 0.0
H710 H 0.09798 0.7967 0.23335 0.0
H711 H 0.10019 0.76021 0.17335 0.0
H712 H 0.09675 0.75316 0.13784 0.0
H713 H 0.13817 0.80378 0.13221 0.0
H714 H 0.14165 0.8113 0.16768 0.0
H715 H 0.18737 0.76668 0.26381 0.0
H716 H 0.15517 0.76878 0.24997 0.0
H717 H 0.17648 0.82017 0.22156 0.0
H718 H 0.20876 0.8183 0.23555 0.0
H719 H 0.15319 0.79073 0.1966 0.0
H720 H 0.15117 0.82532 0.25854 0.0
H721 H 0.1546 0.82955 0.29427 0.0
H722 H 0.1128 0.77838 0.29632 0.0
H723 H 0.10931 0.77368 0.26058 0.0
C724 C 0.06753 0.80321 0.16851 0.0
C725 C 0.05179 0.79022 0.17316 0.0
C726 C 0.0852 0.80465 0.17931 0.0
C727 C 0.0878 0.79272 0.19475 0.0
C728 C 0.07188 0.78037 0.2 0.0
C729 C 0.05405 0.7792 0.18937 0.0
C730 C 0.10718 0.79277 0.20489 0.0
C731 C 0.10997 0.79515 0.22527 0.0
C732 C 0.12305 0.79093 0.1945 0.0
C733 C 0.12104 0.78643 0.17316 0.0
C734 C 0.10846 0.76992 0.16453 0.0
C735 C 0.10652 0.76583 0.14441 0.0
C736 C 0.1172 0.77804 0.13277 0.0
C737 C 0.12988 0.79435 0.14124 0.0
C738 C 0.13186 0.79853 0.16135 0.0
C739 C 0.18518 0.77866 0.25491 0.0
C740 C 0.20067 0.79242 0.25092 0.0
C741 C 0.16673 0.77984 0.24701 0.0
C742 C 0.16334 0.79466 0.23475 0.0
C743 C 0.17872 0.80864 0.23102 0.0
C744 C 0.19716 0.80764 0.23917 0.0
C745 C 0.14395 0.79486 0.22494 0.0
C746 C 0.14118 0.79238 0.20462 0.0
C747 C 0.1281 0.79618 0.23541 0.0
C748 C 0.13011 0.79905 0.25689 0.0
C749 C 0.14282 0.81488 0.26661 0.0
C750 C 0.14475 0.81738 0.28687 0.0
C751 C 0.13396 0.80422 0.29756 0.0
C752 C 0.12117 0.78855 0.28802 0.0
C753 C 0.11919 0.78597 0.26776 0.0
H754 H 0.13547 0.80618 0.31324 0.0
H755 H 0.11567 0.77485 0.1172 0.0
H756 H 0.53435 0.83856 0.4187 0.0
H757 H 0.52786 0.86827 0.43578 0.0
H758 H 0.49831 0.88361 0.38325 0.0
H759 H 0.50598 0.8542 0.36571 0.0
H760 H 0.51541 0.91569 0.40176 0.0
H761 H 0.47448 0.86128 0.42099 0.0
H762 H 0.46559 0.82845 0.43267 0.0
H763 H 0.49971 0.84679 0.48664 0.0
H764 H 0.50903 0.87965 0.47518 0.0
H765 H 0.46477 0.96153 0.48589 0.0
H766 H 0.46843 0.93362 0.4638 0.0
H767 H 0.52505 0.96145 0.45628 0.0
H768 H 0.5206 0.98984 0.47699 0.0
H769 H 0.4897 0.90734 0.46521 0.0
H770 H 0.53783 0.94909 0.41275 0.0
H771 H 0.54229 0.98168 0.39956 0.0
H772 H 0.48502 0.98801 0.40838 0.0
H773 H 0.48012 0.95535 0.42131 0.0
C774 C 0.52659 0.84834 0.41073 0.0
C775 C 0.52051 0.844 0.39093 0.0
C776 C 0.52276 0.8653 0.42055 0.0
C777 C 0.51203 0.87797 0.41104 0.0
C778 C 0.50648 0.87403 0.39101 0.0
C779 C 0.51082 0.85723 0.38099 0.0
C780 C 0.50635 0.89492 0.42229 0.0
C781 C 0.50974 0.91383 0.41559 0.0
C782 C 0.49831 0.89257 0.44009 0.0
C783 C 0.49254 0.8729 0.44717 0.0
C784 C 0.48015 0.85828 0.43532 0.0
C785 C 0.47504 0.83967 0.4419 0.0
C786 C 0.4821 0.83553 0.46037 0.0
C787 C 0.49426 0.85001 0.47233 0.0
C788 C 0.49944 0.86865 0.46581 0.0
C789 C 0.478 0.96163 0.47951 0.0
C790 C 0.49281 0.97754 0.48385 0.0
C791 C 0.48011 0.94565 0.46693 0.0
C792 C 0.49703 0.94531 0.45828 0.0
C793 C 0.51179 0.96128 0.46259 0.0
C794 C 0.50954 0.97733 0.47499 0.0
C795 C 0.49934 0.92817 0.44501 0.0
C796 C 0.49527 0.9092 0.45132 0.0
C797 C 0.50601 0.93042 0.42654 0.0
C798 C 0.50868 0.94981 0.41815 0.0
C799 C 0.52615 0.95736 0.41174 0.0
C800 C 0.52876 0.97587 0.40434 0.0
C801 C 0.51397 0.98693 0.40319 0.0
C802 C 0.49649 0.97946 0.40933 0.0
C803 C 0.49379 0.96095 0.4167 0.0
H804 H 0.51603 1.00128 0.39752 0.0
H805 H 0.47814 0.8211 0.46544 0.0
H806 H 0.4272 0.26798 0.65209 0.0
H807 H 0.3982 0.26788 0.66796 0.0
H808 H 0.42657 0.25184 0.7207 0.0
H809 H 0.45585 0.25202 0.70487 0.0
H810 H 0.38942 0.23092 0.7118 0.0
H811 H 0.4208 0.29821 0.7165 0.0
H812 H 0.43571 0.3287 0.70375 0.0
H813 H 0.38392 0.33196 0.6687 0.0
H814 H 0.3688 0.30128 0.68099 0.0
H815 H 0.32394 0.25442 0.77696 0.0
H816 H 0.35158 0.25097 0.7597 0.0
H817 H 0.32687 0.27747 0.71083 0.0
H818 H 0.29951 0.28165 0.72845 0.0
H819 H 0.36203 0.2926 0.71709 0.0
H820 H 0.33013 0.22657 0.7107 0.0
H821 H 0.31404 0.19558 0.72149 0.0
H822 H 0.36469 0.18899 0.75685 0.0
H823 H 0.38103 0.22011 0.74648 0.0
C824 C 0.4273 0.26425 0.66702 0.0
C825 C 0.44395 0.26005 0.6772 0.0
C826 C 0.41067 0.26429 0.67612 0.0
C827 C 0.41018 0.26008 0.69562 0.0
C828 C 0.42657 0.25519 0.70566 0.0
C829 C 0.44332 0.25531 0.69659 0.0
C830 C 0.39274 0.26133 0.70559 0.0
C831 C 0.38356 0.24447 0.7132 0.0
C832 C 0.38465 0.27882 0.70685 0.0
C833 C 0.39374 0.29731 0.6995 0.0
C834 C 0.41265 0.30532 0.70594 0.0
C835 C 0.42112 0.32266 0.69881 0.0
C836 C 0.41079 0.33223 0.68537 0.0
C837 C 0.39193 0.32451 0.67907 0.0
C838 C 0.3834 0.30715 0.68612 0.0
C839 C 0.32431 0.25934 0.76246 0.0
C840 C 0.30947 0.26822 0.75405 0.0
C841 C 0.34012 0.25728 0.75252 0.0
C842 C 0.34137 0.26371 0.73375 0.0
C843 C 0.32637 0.27235 0.72525 0.0
C844 C 0.31063 0.27461 0.73528 0.0
C845 C 0.3586 0.26216 0.72339 0.0
C846 C 0.36778 0.27899 0.7157 0.0
C847 C 0.36649 0.24454 0.72174 0.0
C848 C 0.35675 0.22577 0.72795 0.0
C849 C 0.33781 0.21859 0.72089 0.0
C850 C 0.32864 0.20099 0.72691 0.0
C851 C 0.33832 0.19035 0.73988 0.0
C852 C 0.3572 0.19726 0.74681 0.0
C853 C 0.36643 0.21487 0.74086 0.0
H854 H 0.3312 0.17673 0.74453 0.0
H855 H 0.41738 0.34565 0.67987 0.0
H856 H 0.01823 0.83741 0.57362 0.0
H857 H 0.02339 0.86846 0.55875 0.0
H858 H 0.99711 0.89599 0.6043 0.0
H859 H 0.99241 0.86474 0.61975 0.0
H860 H 0.99638 0.88563 0.54384 0.0
H861 H 0.01371 0.94683 0.6065 0.0
H862 H 0.02985 0.95222 0.63973 0.0
H863 H 0.06453 0.90863 0.62664 0.0
H864 H 0.04873 0.9031 0.59326 0.0
H865 H 0.98308 0.97566 0.50701 0.0
H866 H 0.98221 0.94844 0.52803 0.0
H867 H 0.04318 0.96026 0.53927 0.0
H868 H 0.04403 0.98774 0.51835 0.0
H869 H 0.02708 0.95174 0.57205 0.0
H870 H 0.02208 0.92351 0.50638 0.0
H871 H 0.00867 0.91765 0.47215 0.0
H872 H 0.95464 0.89388 0.48985 0.0
H873 H 0.96768 0.89984 0.52422 0.0
C874 C 0.01379 0.85011 0.58069 0.0
C875 C 0.00475 0.84863 0.59775 0.0
C876 C 0.01674 0.86786 0.57214 0.0
C877 C 0.01054 0.88451 0.58032 0.0
C878 C 1.00217 0.88336 0.59783 0.0
C879 C 0.99943 0.86552 0.60659 0.0
C880 C 0.01136 0.90233 0.56937 0.0
C881 C 0.0031 0.90007 0.55007 0.0
C882 C 0.02019 0.92116 0.57743 0.0
C883 C 0.02984 0.92437 0.59745 0.0
C884 C 0.0248 0.93841 0.6107 0.0
C885 C 0.0339 0.9415 0.62957 0.0
C886 C 0.04817 0.93073 0.63532 0.0
C887 C 0.05341 0.91689 0.62219 0.0
C888 C 0.04435 0.91374 0.60331 0.0
C889 C 0.99629 0.97234 0.51387 0.0
C890 C 0.01365 0.98364 0.51109 0.0
C891 C 0.99577 0.95689 0.52594 0.0
C892 C 0.01265 0.95225 0.53508 0.0
C893 C 0.03 0.96367 0.53243 0.0
C894 C 0.03049 0.97926 0.52048 0.0
C895 C 0.01222 0.93488 0.5466 0.0
C896 C 0.02037 0.93726 0.56594 0.0
C897 C 0.00367 0.91599 0.53851 0.0
C898 C 0.99581 0.91229 0.51786 0.0
C899 C 0.00731 0.91716 0.50297 0.0
C900 C 0.99978 0.9138 0.48355 0.0
C901 C 0.9808 0.90544 0.47883 0.0
C902 C 0.96933 0.90038 0.49353 0.0
C903 C 0.97679 0.90372 0.51298 0.0
H904 H 0.97499 0.90286 0.46378 0.0
H905 H 0.05518 0.93309 0.64992 0.0
H906 H 0.47313 0.7544 0.87741 0.0
H907 H 0.4443 0.75376 0.85579 0.0
H908 H 0.42873 0.80053 0.89201 0.0
H909 H 0.45744 0.8008 0.9142 0.0
H910 H 0.39838 0.7745 0.87931 0.0
H911 H 0.44999 0.80964 0.85022 0.0
H912 H 0.48142 0.81496 0.83803 0.0
H913 H 0.46439 0.76531 0.79652 0.0
H914 H 0.43293 0.75953 0.80866 0.0
H915 H 0.33857 0.81328 0.81115 0.0
H916 H 0.36687 0.80944 0.83196 0.0
H917 H 0.36951 0.75455 0.79996 0.0
H918 H 0.34081 0.75819 0.77906 0.0
H919 H 0.40575 0.78264 0.8097 0.0
H920 H 0.35263 0.74944 0.83889 0.0
H921 H 0.321 0.74714 0.85055 0.0
H922 H 0.3411 0.79647 0.89175 0.0
H923 H 0.37277 0.79931 0.88007 0.0
C924 C 0.46352 0.76449 0.88086 0.0
C925 C 0.46762 0.77783 0.89736 0.0
C926 C 0.44708 0.76413 0.86846 0.0
C927 C 0.43461 0.77741 0.87204 0.0
C928 C 0.43824 0.79023 0.88893 0.0
C929 C 0.45462 0.79039 0.90157 0.0
C930 C 0.41817 0.7783 0.85778 0.0
C931 C 0.40003 0.77644 0.86414 0.0
C932 C 0.42029 0.78053 0.83789 0.0
C933 C 0.43917 0.78403 0.83049 0.0
C934 C 0.45299 0.79977 0.83859 0.0
C935 C 0.47081 0.80288 0.83167 0.0
C936 C 0.47492 0.79045 0.81654 0.0
C937 C 0.4612 0.77491 0.80826 0.0
C938 C 0.44337 0.77172 0.81514 0.0
C939 C 0.3453 0.80051 0.80837 0.0
C940 C 0.33757 0.786 0.79357 0.0
C941 C 0.36139 0.79832 0.82029 0.0
C942 C 0.37005 0.78164 0.81755 0.0
C943 C 0.3629 0.7675 0.80223 0.0
C944 C 0.34661 0.7696 0.79034 0.0
C945 C 0.38614 0.77885 0.8313 0.0
C946 C 0.40417 0.78045 0.82484 0.0
C947 C 0.38396 0.77667 0.85112 0.0
C948 C 0.36504 0.77468 0.8585 0.0
C949 C 0.35028 0.75988 0.85035 0.0
C950 C 0.33234 0.75848 0.85696 0.0
C951 C 0.32903 0.77169 0.87184 0.0
C952 C 0.34367 0.78627 0.88019 0.0
C953 C 0.36163 0.78777 0.8736 0.0
H954 H 0.31512 0.77061 0.87692 0.0
H955 H 0.48872 0.79288 0.81121 0.0
H956 H 0.49198 0.22516 0.11107 0.0
H957 H 0.49077 0.19176 0.09629 0.0
H958 H 0.4681 0.20966 0.04159 0.0
H959 H 0.46992 0.24308 0.05609 0.0
H960 H 0.46675 0.16206 0.07672 0.0
H961 H 0.49173 0.19326 0.00609 0.0
H962 H 0.50873 0.22401 0.99559 0.0
H963 H 0.53699 0.23837 0.05306 0.0
H964 H 0.52038 0.2076 0.06382 0.0
H965 H 0.4686 0.08128 0.01029 0.0
H966 H 0.46252 0.11311 0.02329 0.0
H967 H 0.52268 0.13386 0.03266 0.0
H968 H 0.52892 0.10228 0.01935 0.0
H969 H 0.50521 0.16194 0.02083 0.0
H970 H 0.49791 0.11622 0.06958 0.0
H971 H 0.48545 0.08624 0.08474 0.0
H972 H 0.42928 0.10081 0.07713 0.0
H973 H 0.4414 0.13083 0.06173 0.0
C974 C 0.48625 0.22177 0.09605 0.0
C975 C 0.48136 0.23665 0.08458 0.0
C976 C 0.48557 0.20273 0.08762 0.0
C977 C 0.47981 0.19844 0.06774 0.0
C978 C 0.47301 0.21283 0.05685 0.0
C979 C 0.47401 0.23186 0.06514 0.0
C980 C 0.48302 0.17985 0.05786 0.0
C981 C 0.47502 0.16197 0.06441 0.0
C982 C 0.49435 0.17985 0.04221 0.0
C983 C 0.50465 0.19824 0.03579 0.0
C984 C 0.50163 0.20295 0.01645 0.0
C985 C 0.51119 0.22038 0.01046 0.0
C986 C 0.52388 0.23316 0.02366 0.0
C987 C 0.5271 0.2285 0.04286 0.0
C988 C 0.51761 0.21107 0.04892 0.0
C989 C 0.48055 0.09274 0.01476 0.0
C990 C 0.49926 0.08917 0.014 0.0
C991 C 0.47703 0.11085 0.02233 0.0
C992 C 0.49216 0.12563 0.02939 0.0
C993 C 0.5108 0.12257 0.02743 0.0
C994 C 0.51434 0.10451 0.01976 0.0
C995 C 0.48866 0.14403 0.03943 0.0
C996 C 0.49669 0.16194 0.03295 0.0
C997 C 0.47796 0.14402 0.0556 0.0
C998 C 0.47053 0.12566 0.06429 0.0
C999 C 0.48287 0.11292 0.07093 0.0
C1000 C 0.47587 0.09594 0.07963 0.0
C1001 C 0.45656 0.0916 0.08187 0.0
C1002 C 0.44422 0.10419 0.07537 0.0
C1003 C 0.45115 0.12119 0.06666 0.0
H1004 H 0.45114 0.07853 0.0887 0.0
H1005 H 0.53124 0.24666 0.019 0.0
H1006 H 0.044 0.25152 0.34339 0.0
H1007 H 0.0655 0.24575 0.31918 0.0
H1008 H 0.11328 0.27095 0.35997 0.0
H1009 H 0.0918 0.27644 0.38447 0.0
H1010 H 0.08807 0.27205 0.30291 0.0
H1011 H 0.15195 0.25098 0.35009 0.0
H1012 H 0.15801 0.23336 0.37932 0.0
H1013 H 0.10213 0.19974 0.36902 0.0
H1014 H 0.09583 0.21696 0.33958 0.0
H1015 H 0.17574 0.2933 0.26402 0.0
H1016 H 0.14786 0.28958 0.28189 0.0
H1017 H 0.14495 0.22655 0.27652 0.0
H1018 H 0.17319 0.23026 0.25892 0.0
H1019 H 0.1447 0.23924 0.31314 0.0
H1020 H 0.11017 0.2487 0.25337 0.0
H1021 H 0.10334 0.26477 0.22332 0.0
H1022 H 0.09836 0.31776 0.2568 0.0
H1023 H 0.10541 0.30209 0.28706 0.0
C1024 C 0.0591 0.25561 0.34731 0.0
C1025 C 0.06623 0.26448 0.36582 0.0
C1026 C 0.07136 0.25235 0.33343 0.0
C1027 C 0.09098 0.25787 0.33776 0.0
C1028 C 0.09819 0.26631 0.3564 0.0
C1029 C 0.08592 0.26949 0.37036 0.0
C1030 C 0.10378 0.25583 0.32244 0.0
C1031 C 0.10039 0.26477 0.30508 0.0
C1032 C 0.11965 0.24603 0.32515 0.0
C1033 C 0.12338 0.23539 0.3427 0.0
C1034 C 0.14099 0.23976 0.354 0.0
C1035 C 0.14446 0.22985 0.37062 0.0
C1036 C 0.13045 0.21548 0.37605 0.0
C1037 C 0.11295 0.21093 0.36483 0.0
C1038 C 0.10942 0.22078 0.34819 0.0
C1039 C 0.16884 0.27862 0.26617 0.0
C1040 C 0.17658 0.26205 0.26014 0.0
C1041 C 0.15289 0.2765 0.27637 0.0
C1042 C 0.1443 0.25777 0.28052 0.0
C1043 C 0.15139 0.24113 0.2735 0.0
C1044 C 0.16742 0.24325 0.26335 0.0
C1045 C 0.1292 0.25581 0.29378 0.0
C1046 C 0.13221 0.24625 0.31082 0.0
C1047 C 0.11284 0.26479 0.29065 0.0
C1048 C 0.10842 0.27423 0.27249 0.0
C1049 C 0.10773 0.26381 0.25432 0.0
C1050 C 0.1038 0.27285 0.23725 0.0
C1051 C 0.10044 0.29228 0.23815 0.0
C1052 C 0.10096 0.3027 0.25613 0.0
C1053 C 0.10489 0.29374 0.27325 0.0
H1054 H 0.09741 0.29925 0.22491 0.0
H1055 H 0.13315 0.20783 0.38893 0.0
H1056 H 0.93625 0.07551 0.20369 0.0
H1057 H 0.94874 0.07944 0.17259 0.0
H1058 H 0.89314 0.05837 0.14307 0.0
H1059 H 0.88047 0.05415 0.17463 0.0
H1060 H 0.91859 0.03885 0.12889 0.0
H1061 H 0.91468 0.10604 0.13935 0.0
H1062 H 0.91769 0.1385 0.15723 0.0
H1063 H 0.97816 0.14186 0.16511 0.0
H1064 H 0.97552 0.10929 0.14753 0.0
H1065 H 0.98185 0.07924 0.04979 0.0
H1066 H 0.96085 0.08581 0.07445 0.0
H1067 H 0.97748 0.03809 0.10584 0.0
H1068 H 0.99817 0.03121 0.08116 0.0
H1069 H 0.9645 0.09538 0.11287 0.0
H1070 H 0.94032 0.01266 0.12292 0.0
H1071 H 0.93631 0.98102 0.10344 0.0
H1072 H 0.92822 0.01038 0.0512 0.0
H1073 H 0.93188 0.04219 0.07042 0.0
C1074 C 0.92654 0.0721 0.19061 0.0
C1075 C 0.90738 0.06443 0.19161 0.0
C1076 C 0.9337 0.07449 0.17277 0.0
C1077 C 0.92191 0.06935 0.1554 0.0
C1078 C 0.90251 0.06252 0.15629 0.0
C1079 C 0.89525 0.06024 0.1743 0.0
C1080 C 0.93058 0.06915 0.13669 0.0
C1081 C 0.92841 0.05131 0.12526 0.0
C1082 C 0.94315 0.08549 0.1316 0.0
C1083 C 0.94488 0.10516 0.14216 0.0
C1084 C 0.92862 0.11364 0.145 0.0
C1085 C 0.93026 0.13207 0.15507 0.0
C1086 C 0.9481 0.14223 0.16231 0.0
C1087 C 0.96435 0.13398 0.15948 0.0
C1088 C 0.96279 0.11555 0.14942 0.0
C1089 C 0.98132 0.07037 0.06214 0.0
C1090 C 0.99167 0.05463 0.06345 0.0
C1091 C 0.96923 0.07411 0.07619 0.0
C1092 C 0.96726 0.06218 0.09179 0.0
C1093 C 0.97841 0.04721 0.09369 0.0
C1094 C 0.99037 0.04338 0.07962 0.0
C1095 C 0.9532 0.06483 0.10585 0.0
C1096 C 0.95438 0.08308 0.11631 0.0
C1097 C 0.93941 0.049 0.10979 0.0
C1098 C 0.93647 0.02983 0.09814 0.0
C1099 C 0.93752 0.01235 0.1073 0.0
C1100 C 0.93534 0.99438 0.09628 0.0
C1101 C 0.93204 0.99367 0.07608 0.0
C1102 C 0.93081 0.01094 0.06685 0.0
C1103 C 0.93294 0.02895 0.0778 0.0
H1104 H 0.93042 0.97974 0.06758 0.0
H1105 H 0.94934 0.15649 0.17011 0.0
H1106 H 0.2995 0.66232 0.43104 0.0
H1107 H 0.29353 0.67855 0.40108 0.0
H1108 H 0.27105 0.72348 0.43346 0.0
H1109 H 0.27798 0.70795 0.46336 0.0
H1110 H 0.266 0.68664 0.37982 0.0
H1111 H 0.27693 0.7667 0.41433 0.0
H1112 H 0.2957 0.78683 0.44208 0.0
H1113 H 0.33723 0.74809 0.44253 0.0
H1114 H 0.31882 0.72788 0.41465 0.0
H1115 H 0.23626 0.7542 0.30931 0.0
H1116 H 0.23982 0.73338 0.3367 0.0
H1117 H 0.29922 0.75742 0.34647 0.0
H1118 H 0.2954 0.779 0.32035 0.0
H1119 H 0.2859 0.75835 0.37856 0.0
H1120 H 0.28199 0.71291 0.32483 0.0
H1121 H 0.27527 0.69046 0.29132 0.0
H1122 H 0.22013 0.65024 0.33371 0.0
H1123 H 0.23457 0.6796 0.36181 0.0
C1124 C 0.29332 0.67568 0.43175 0.0
C1125 C 0.28942 0.6839 0.4497 0.0
C1126 C 0.28983 0.68497 0.41455 0.0
C1127 C 0.28215 0.70261 0.41481 0.0
C1128 C 0.27754 0.71031 0.4327 0.0
C1129 C 0.28139 0.70128 0.44989 0.0
C1130 C 0.27915 0.71306 0.39655 0.0
C1131 C 0.27009 0.70237 0.37949 0.0
C1132 C 0.28514 0.73352 0.39587 0.0
C1133 C 0.29638 0.74567 0.41255 0.0
C1134 C 0.29009 0.76252 0.42033 0.0
C1135 C 0.30067 0.77393 0.43608 0.0
C1136 C 0.31761 0.7687 0.4441 0.0
C1137 C 0.32406 0.75208 0.43635 0.0
C1138 C 0.31356 0.74063 0.42059 0.0
C1139 C 0.25009 0.75487 0.31724 0.0
C1140 C 0.26553 0.76839 0.31268 0.0
C1141 C 0.25217 0.74276 0.33279 0.0
C1142 C 0.26987 0.74339 0.34369 0.0
C1143 C 0.28534 0.7565 0.33855 0.0
C1144 C 0.28316 0.7689 0.3235 0.0
C1145 C 0.27234 0.73203 0.36146 0.0
C1146 C 0.28134 0.74265 0.37865 0.0
C1147 C 0.26668 0.71135 0.36195 0.0
C1148 C 0.25868 0.69807 0.34454 0.0
C1149 C 0.27025 0.70098 0.32406 0.0
C1150 C 0.26648 0.68673 0.30282 0.0
C1151 C 0.24948 0.66632 0.29938 0.0
C1152 C 0.23161 0.66146 0.33035 0.0
C1153 C 0.24051 0.67981 0.34804 0.0
H1154 H 0.24845 0.65757 0.28561 0.0
H1155 H 0.32577 0.77755 0.45631 0.0
H1156 H 0.55653 0.98458 0.7251 0.0
H1157 H 0.54563 0.98553 0.69102 0.0
H1158 H 0.60345 0.99324 0.67697 0.0
H1159 H 0.61459 0.99254 0.71155 0.0
H1160 H 0.58419 0.01974 0.66016 0.0
H1161 H 0.5729 0.95026 0.66286 0.0
H1162 H 0.56121 0.91869 0.67577 0.0
H1163 H 0.50408 0.93038 0.66705 0.0
H1164 H 0.51544 0.96216 0.65434 0.0
H1165 H 0.55521 0.01148 0.55879 0.0
H1166 H 0.5685 0.00485 0.59087 0.0
H1167 H 0.51333 1.00135 0.61145 0.0
H1168 H 0.49979 0.0081 0.57921 0.0
H1169 H 0.53294 0.97131 0.62382 0.0
H1170 H 0.54456 0.0415 0.62288 0.0
H1171 H 0.55614 0.07292 0.60965 0.0
H1172 H 0.61285 0.05962 0.61493 0.0
H1173 H 0.60154 0.02793 0.62789 0.0
C1174 C 0.567 0.98614 0.71478 0.0
C1175 C 0.58648 0.98847 0.72113 0.0
C1176 C 0.56069 0.98661 0.69519 0.0
C1177 C 0.57364 0.98935 0.68126 0.0
C1178 C 0.59314 0.99107 0.6874 0.0
C1179 C 0.5995 0.99047 0.70715 0.0
C1180 C 0.56662 0.9916 0.66064 0.0
C1181 C 0.57328 0.00892 0.65209 0.0
C1182 C 0.55197 0.97781 0.65017 0.0
C1183 C 0.54505 0.95868 0.65778 0.0
C1184 C 0.55785 0.94617 0.66383 0.0
C1185 C 0.55129 0.92822 0.67109 0.0
C1186 C 0.53192 0.92255 0.67226 0.0
C1187 C 0.51908 0.9348 0.66614 0.0
C1188 C 0.52557 0.95277 0.65888 0.0
C1189 C 0.54578 0.00921 0.57004 0.0
C1190 C 0.52634 0.01036 0.56629 0.0
C1191 C 0.55348 0.00549 0.58846 0.0
C1192 C 0.54199 1.00274 0.60368 0.0
C1193 C 0.5225 0.00343 0.59995 0.0
C1194 C 0.51478 0.00735 0.5815 0.0
C1195 C 0.55044 0.99946 0.62349 0.0
C1196 C 0.54399 0.982 0.63186 0.0
C1197 C 0.5653 0.0131 0.63378 0.0
C1198 C 0.57217 0.03223 0.62616 0.0
C1199 C 0.55948 0.04519 0.62107 0.0
C1200 C 0.56599 0.06307 0.61364 0.0
C1201 C 0.58521 0.06825 0.6114 0.0
C1202 C 0.59796 0.05558 0.61664 0.0
C1203 C 0.5915 0.03766 0.62404 0.0
H1204 H 0.59023 0.08209 0.60566 0.0
H1205 H 0.52686 0.90865 0.67789 0.0
H1206 H 0.26503 0.37338 0.98706 0.0
H1207 H 0.27504 0.35718 0.95877 0.0
H1208 H 0.29588 0.41355 0.93849 0.0
H1209 H 0.285 0.43005 0.96677 0.0
H1210 H 0.27576 0.39148 0.91033 0.0
H1211 H 0.32665 0.38147 0.95467 0.0
H1212 H 0.34274 0.3732 0.98529 0.0
H1213 H 0.31373 0.31378 0.97582 0.0
H1214 H 0.29722 0.32174 0.94529 0.0
H1215 H 0.30573 0.33428 0.83285 0.0
H1216 H 0.31096 0.35474 0.86351 0.0
H1217 H 0.26893 0.31428 0.88744 0.0
H1218 H 0.26317 0.29402 0.85652 0.0
H1219 H 0.30717 0.3322 0.91275 0.0
H1220 H 0.25182 0.34647 0.87205 0.0
H1221 H 0.23725 0.3548 0.84074 0.0
H1222 H 0.27753 0.4079 0.84359 0.0
H1223 H 0.29277 0.39949 0.87468 0.0
C1224 C 0.27196 0.3824 0.97674 0.0
C1225 C 0.2742 0.40298 0.97905 0.0
C1226 C 0.27786 0.37308 0.96062 0.0
C1227 C 0.28658 0.38412 0.94668 0.0
C1228 C 0.28928 0.40475 0.94916 0.0
C1229 C 0.28309 0.41415 0.96526 0.0
C1230 C 0.29106 0.37383 0.92877 0.0
C1231 C 0.28311 0.37886 0.91088 0.0
C1232 C 0.30054 0.35724 0.92941 0.0
C1233 C 0.31064 0.35224 0.94767 0.0
C1234 C 0.32362 0.36666 0.95915 0.0
C1235 C 0.33283 0.36202 0.9765 0.0
C1236 C 0.32926 0.34298 0.9825 0.0
C1237 C 0.3165 0.32852 0.97114 0.0
C1238 C 0.30724 0.33308 0.95378 0.0
C1239 C 0.29783 0.3296 0.84477 0.0
C1240 C 0.28396 0.31271 0.84242 0.0
C1241 C 0.30088 0.34124 0.86221 0.0
C1242 C 0.29035 0.3359 0.87759 0.0
C1243 C 0.27725 0.31845 0.87567 0.0
C1244 C 0.2739 0.30701 0.85805 0.0
C1245 C 0.29135 0.34962 0.89482 0.0
C1246 C 0.30033 0.34517 0.91238 0.0
C1247 C 0.28308 0.36688 0.8939 0.0
C1248 C 0.27359 0.37222 0.87553 0.0
C1249 C 0.25769 0.35981 0.86591 0.0
C1250 C 0.24928 0.36457 0.84821 0.0
C1251 C 0.25644 0.38188 0.84017 0.0
C1252 C 0.27202 0.39448 0.84983 0.0
C1253 C 0.28057 0.3897 0.86746 0.0
H1254 H 0.2499 0.38554 0.82647 0.0
H1255 H 0.33639 0.33942 0.99595 0.0
H1256 H 0.87186 0.04057 0.30341 0.0
H1257 H 0.88849 0.03931 0.33569 0.0
H1258 H 0.94033 0.06774 0.31582 0.0
H1259 H 0.92408 0.06783 0.28347 0.0
H1260 H 0.94889 0.0414 0.33628 0.0
H1261 H 0.9108 0.09183 0.34591 0.0
H1262 H 0.88137 0.1063 0.34502 0.0
H1263 H 0.85834 0.06393 0.38281 0.0
H1264 H 0.88753 0.04903 0.38372 0.0
H1265 H 0.9992 0.06858 0.42973 0.0
H1266 H 0.9811 0.07233 0.39876 0.0
H1267 H 0.93491 0.02997 0.41334 0.0
H1268 H 0.95301 0.02604 0.44409 0.0
H1269 H 0.92359 0.064 0.39638 0.0
H1270 H 0.96339 0.0141 0.38535 0.0
H1271 H 0.99408 1.00203 0.3865 0.0
H1272 H 0.01548 0.04768 0.35125 0.0
H1273 H 0.98497 0.06017 0.35011 0.0
C1274 C 0.88681 0.04646 0.30601 0.0
C1275 C 0.89671 0.05426 0.29101 0.0
C1276 C 0.89629 0.04591 0.32448 0.0
C1277 C 0.91565 0.05376 0.32837 0.0
C1278 C 0.92544 0.06154 0.31327 0.0
C1279 C 0.91613 0.0616 0.29476 0.0
C1280 C 0.92595 0.05362 0.34795 0.0
C1281 C 0.94341 0.04665 0.34934 0.0
C1282 C 0.91881 0.06019 0.36515 0.0
C1283 C 0.90128 0.0692 0.36473 0.0
C1284 C 0.89941 0.08552 0.35393 0.0
C1285 C 0.88278 0.09381 0.35343 0.0
C1286 C 0.86798 0.08601 0.36381 0.0
C1287 C 0.8698 0.06994 0.37476 0.0
C1288 C 0.88639 0.06158 0.37528 0.0
C1289 C 0.98515 0.06025 0.42636 0.0
C1290 C 0.97755 0.04694 0.43915 0.0
C1291 C 0.97483 0.06238 0.40872 0.0
C1292 C 0.95672 0.05133 0.40378 0.0
C1293 C 0.94884 0.03863 0.41692 0.0
C1294 C 0.95923 0.03634 0.4344 0.0
C1295 C 0.94641 0.05204 0.38445 0.0
C1296 C 0.92899 0.05896 0.38319 0.0
C1297 C 0.95374 0.04585 0.36732 0.0
C1298 C 0.97197 0.03817 0.3678 0.0
C1299 C 0.97468 0.02164 0.37796 0.0
C1300 C 0.99204 0.01471 0.37859 0.0
C1301 C 0.00674 0.02411 0.369 0.0
C1302 C 0.00409 0.04043 0.3587 0.0
C1303 C 0.98677 0.04742 0.35804 0.0
H1304 H 0.02016 0.01873 0.36951 0.0
H1305 H 0.85511 0.09245 0.3634 0.0
H1306 H 0.32099 0.69091 0.56211 0.0
H1307 H 0.32109 0.70404 0.59604 0.0
H1308 H 0.26079 0.70373 0.58654 0.0
H1309 H 0.26079 0.69118 0.55302 0.0
H1310 H 0.2776 0.73851 0.60122 0.0
H1311 H 0.28221 0.6714 0.61573 0.0
H1312 H 0.29736 0.64163 0.61572 0.0
H1313 H 0.34745 0.67438 0.64771 0.0
H1314 H 0.33272 0.70444 0.64763 0.0
H1315 H 0.24681 0.75818 0.69212 0.0
H1316 H 0.2531 0.74264 0.66149 0.0
H1317 H 0.31219 0.74741 0.68239 0.0
H1318 H 0.3059 0.76266 0.71349 0.0
H1319 H 0.30067 0.71256 0.66251 0.0
H1320 H 0.29665 0.77885 0.64954 0.0
H1321 H 0.28287 0.80947 0.64929 0.0
H1322 H 0.23344 0.77933 0.61411 0.0
H1323 H 0.24681 0.74845 0.61437 0.0
C1324 C 0.30774 0.69317 0.56751 0.0
C1325 C 0.29088 0.68999 0.5549 0.0
C1326 C 0.30778 0.70076 0.58688 0.0
C1327 C 0.29093 0.70508 0.59397 0.0
C1328 C 0.27402 0.70079 0.58155 0.0
C1329 C 0.27402 0.69347 0.56235 0.0
C1330 C 0.29064 0.71537 0.61361 0.0
C1331 C 0.28249 0.73265 0.6146 0.0
C1332 C 0.29773 0.70836 0.63119 0.0
C1333 C 0.30647 0.69024 0.6314 0.0
C1334 C 0.29653 0.6723 0.62259 0.0
C1335 C 0.30504 0.65538 0.6226 0.0
C1336 C 0.32343 0.65617 0.63153 0.0
C1337 C 0.33327 0.67383 0.64066 0.0
C1338 C 0.32484 0.69081 0.64064 0.0
C1339 C 0.26121 0.75607 0.69029 0.0
C1340 C 0.27586 0.76198 0.70536 0.0
C1341 C 0.2648 0.74715 0.67263 0.0
C1342 C 0.28321 0.74406 0.66933 0.0
C1343 C 0.29787 0.74965 0.68444 0.0
C1344 C 0.29425 0.75851 0.70222 0.0
C1345 C 0.28697 0.73524 0.65002 0.0
C1346 C 0.29587 0.71841 0.64911 0.0
C1347 C 0.28073 0.74272 0.6324 0.0
C1348 C 0.27268 0.7613 0.6321 0.0
C1349 C 0.28279 0.77872 0.64185 0.0
C1350 C 0.27506 0.79613 0.6417 0.0
C1351 C 0.25728 0.79634 0.63172 0.0
C1352 C 0.24721 0.77914 0.62184 0.0
C1353 C 0.25486 0.76169 0.62197 0.0
H1354 H 0.25131 0.80983 0.63162 0.0
H1355 H 0.32998 0.64304 0.63154 0.0
H1356 H 0.62687 0.9973 0.84436 0.0
H1357 H 0.61315 0.00574 0.87433 0.0
H1358 H 0.55924 0.00578 0.84129 0.0
H1359 H 0.57287 0.99774 0.8115 0.0
H1360 H 0.56596 0.03622 0.8666 0.0
H1361 H 0.56925 0.96716 0.86985 0.0
H1362 H 0.58451 0.93749 0.87091 0.0
H1363 H 0.62045 0.96291 0.92184 0.0
H1364 H 0.60556 0.99285 0.92093 0.0
H1365 H 0.50055 0.02815 0.93672 0.0
H1366 H 0.51968 0.02421 0.9098 0.0
H1367 H 0.56854 0.02254 0.95048 0.0
H1368 H 0.54914 0.02553 0.97741 0.0
H1369 H 0.56863 0.99633 0.92348 0.0
H1370 H 0.56277 0.06353 0.92223 0.0
H1371 H 0.5469 0.09281 0.92202 0.0
H1372 H 0.51512 0.07068 0.86767 0.0
H1373 H 0.5306 0.04112 0.86767 0.0
C1374 C 0.6121 0.99911 0.84351 0.0
C1375 C 0.601 0.99681 0.82548 0.0
C1376 C 0.60421 0.00385 0.86069 0.0
C1377 C 0.58503 0.00627 0.86023 0.0
C1378 C 0.57405 0.00408 0.84217 0.0
C1379 C 0.58189 0.9994 0.82508 0.0
C1380 C 0.57621 0.01119 0.87833 0.0
C1381 C 0.56629 0.02726 0.8789 0.0
C1382 C 0.57722 1.00012 0.89484 0.0
C1383 C 0.5865 0.98235 0.89513 0.0
C1384 C 0.58057 0.96651 0.88113 0.0
C1385 C 0.58911 0.94963 0.88174 0.0
C1386 C 0.6035 0.94835 0.89639 0.0
C1387 C 0.60935 0.96395 0.91047 0.0
C1388 C 0.60087 0.98088 0.90991 0.0
C1389 C 0.51541 0.02712 0.93993 0.0
C1390 C 0.52334 0.02735 0.95923 0.0
C1391 C 0.52643 0.025 0.92449 0.0
C1392 C 0.5458 0.02348 0.92792 0.0
C1393 C 0.55373 0.02378 0.94728 0.0
C1394 C 0.54263 0.02563 0.96272 0.0
C1395 C 0.55743 0.02067 0.91134 0.0
C1396 C 0.56814 0.00521 0.91115 0.0
C1397 C 0.55707 0.03224 0.89514 0.0
C1398 C 0.54775 0.05003 0.89503 0.0
C1399 C 0.5523 0.06484 0.91029 0.0
C1400 C 0.54339 0.08149 0.9102 0.0
C1401 C 0.52999 0.08358 0.89486 0.0
C1402 C 0.5255 0.06903 0.87955 0.0
C1403 C 0.53436 0.05233 0.87958 0.0
H1404 H 0.5231 0.09649 0.89482 0.0
H1405 H 0.61007 0.93525 0.89686 0.0
H1406 H 0.2471 0.41497 0.08632 0.0
H1407 H 0.24139 0.39905 0.11637 0.0
H1408 H 0.21482 0.34583 0.08282 0.0
H1409 H 0.22061 0.36153 0.05293 0.0
H1410 H 0.21089 0.37216 0.13454 0.0
H1411 H 0.24439 0.3136 0.09466 0.0
H1412 H 0.26348 0.31055 0.06713 0.0
H1413 H 0.28927 0.37095 0.07858 0.0
H1414 H 0.27062 0.37421 0.10639 0.0
H1415 H 0.2141 0.29203 0.19414 0.0
H1416 H 0.209 0.31163 0.16653 0.0
H1417 H 0.26916 0.33208 0.16984 0.0
H1418 H 0.27442 0.31211 0.197 0.0
H1419 H 0.25596 0.32419 0.13405 0.0
H1420 H 0.23653 0.35971 0.18854 0.0
H1421 H 0.21805 0.36458 0.21609 0.0
H1422 H 0.1665 0.35376 0.17771 0.0
H1423 H 0.18469 0.34837 0.14995 0.0
C1424 C 0.23913 0.40025 0.0854 0.0
C1425 C 0.23451 0.38932 0.06742 0.0
C1426 C 0.2359 0.39116 0.10256 0.0
C1427 C 0.22801 0.3712 0.10171 0.0
C1428 C 0.22103 0.36122 0.08371 0.0
C1429 C 0.22436 0.37019 0.06667 0.0
C1430 C 0.23103 0.35965 0.11862 0.0
C1431 C 0.22068 0.36163 0.13454 0.0
C1432 C 0.2441 0.34624 0.11862 0.0
C1433 C 0.25596 0.34418 0.10244 0.0
C1434 C 0.25423 0.32617 0.09136 0.0
C1435 C 0.26496 0.32441 0.07572 0.0
C1436 C 0.27753 0.34056 0.07107 0.0
C1437 C 0.2795 0.35847 0.08215 0.0
C1438 C 0.26884 0.36027 0.09785 0.0
C1439 C 0.22627 0.30051 0.18883 0.0
C1440 C 0.24468 0.30049 0.19777 0.0
C1441 C 0.2233 0.31186 0.17316 0.0
C1442 C 0.23865 0.32367 0.16636 0.0
C1443 C 0.25708 0.32316 0.17488 0.0
C1444 C 0.26008 0.31165 0.19038 0.0
C1445 C 0.23568 0.33642 0.15025 0.0
C1446 C 0.2461 0.33466 0.13428 0.0
C1447 C 0.22289 0.35023 0.15048 0.0
C1448 C 0.21196 0.35342 0.16719 0.0
C1449 C 0.22124 0.35818 0.186 0.0
C1450 C 0.21079 0.36106 0.20166 0.0
C1451 C 0.19107 0.35942 0.19867 0.0
C1452 C 0.18177 0.35496 0.18001 0.0
C1453 C 0.19214 0.35198 0.16431 0.0
H1454 H 0.18293 0.36161 0.21075 0.0
H1455 H 0.28578 0.33919 0.05891 0.0
H1456 H 0.19773 0.95522 0.02863 0.0
H1457 H 0.1715 0.97395 0.02968 0.0
H1458 H 0.1316 0.92007 0.02034 0.0
H1459 H 0.15789 0.90133 0.01855 0.0
H1460 H 0.11792 0.94435 -0.00011 0.0
H1461 H 0.14224 0.94963 0.06617 0.0
H1462 H 0.16621 0.95643 0.09454 0.0
H1463 H 0.17815 0.01688 0.08178 0.0
H1464 H 0.15441 0.01038 0.05317 0.0
H1465 H 0.0543 0.01356 0.04739 0.0
H1466 H 0.07775 0.99096 0.04981 0.0
H1467 H 0.09495 0.00634 0.99414 0.0
H1468 H 0.07198 0.02924 0.99195 0.0
H1469 H 0.11742 0.99866 0.04984 0.0
H1470 H 0.10465 0.96018 0.97084 0.0
H1471 H 0.07823 0.94809 0.9458 0.0
H1472 H 0.03865 0.94854 0.98849 0.0
H1473 H 0.06489 0.95977 0.01399 0.0
C1474 C 0.18339 0.94729 0.02698 0.0
C1475 C 0.18005 0.92666 0.02361 0.0
C1476 C 0.16828 0.95808 0.02768 0.0
C1477 C 0.14929 0.94861 0.02539 0.0
C1478 C 0.14597 0.92795 0.02217 0.0
C1479 C 0.16109 0.91716 0.02126 0.0
C1480 C 0.13301 0.96024 0.02569 0.0
C1481 C 0.11793 0.95626 0.01081 0.0
C1482 C 0.13239 0.97548 0.04023 0.0
C1483 C 0.14666 0.97947 0.05742 0.0
C1484 C 0.15007 0.96434 0.06933 0.0
C1485 C 0.1636 0.96815 0.08547 0.0
C1486 C 0.17373 0.98707 0.08994 0.0
C1487 C 0.17031 1.00223 0.07829 0.0
C1488 C 0.1568 0.9985 0.06212 0.0
C1489 C 0.06302 0.01204 0.03564 0.0
C1490 C 0.0612 0.02322 0.01947 0.0
C1491 C 0.07653 0.99918 0.03707 0.0
C1492 C 0.08822 0.99678 0.02213 0.0
C1493 C 0.08616 0.00776 0.00586 0.0
C1494 C 0.07302 0.02094 0.00466 0.0
C1495 C 0.10282 0.98322 0.02362 0.0
C1496 C 0.11753 0.98683 0.03886 0.0
C1497 C 0.10281 0.96729 0.0097 0.0
C1498 C 0.0868 0.96119 0.99433 0.0
C1499 C 0.09033 0.95768 0.97493 0.0
C1500 C 0.07537 0.95084 0.96065 0.0
C1501 C 0.05675 0.94764 0.96551 0.0
C1502 C 0.05307 0.95111 0.98472 0.0
C1503 C 0.068 0.95772 -0.0009 0.0
H1504 H 0.04517 0.94248 0.9544 0.0
H1505 H 0.18419 0.98998 0.10244 0.0
H1506 H 0.69578 0.64685 0.94682 0.0
H1507 H 0.66507 0.62549 0.94494 0.0
H1508 H 0.68894 0.58809 0.98492 0.0
H1509 H 0.71971 0.60877 0.98618 0.0
H1510 H 0.66494 0.56624 0.95999 0.0
H1511 H 0.66382 0.62636 -0.00109 0.0
H1512 H 0.66632 0.66219 0.00577 0.0
H1513 H 0.62176 0.6638 0.96043 0.0
H1514 H 0.61918 0.62801 0.95312 0.0
H1515 H 0.58651 0.5307 0.01118 0.0
H1516 H 0.61615 0.54591 -0.00016 0.0
H1517 H 0.58471 0.57099 0.95445 0.0
H1518 H 0.55493 0.5559 0.96559 0.0
H1519 H 0.61073 0.59837 0.97703 0.0
H1520 H 0.6094 0.5363 0.94218 0.0
H1521 H 0.60658 0.50023 0.93798 0.0
H1522 H 0.6556 0.50202 0.97886 0.0
H1523 H 0.65856 0.5381 0.98353 0.0
C1524 C 0.69453 0.6339 0.95497 0.0
C1525 C 0.71016 0.62963 0.96679 0.0
C1526 C 0.67694 0.62175 0.95396 0.0
C1527 C 0.67455 0.60541 0.96514 0.0
C1528 C 0.69037 0.60062 0.97618 0.0
C1529 C 0.70799 0.61252 0.97692 0.0
C1530 C 0.65548 0.5939 0.96638 0.0
C1531 C 0.65313 0.57328 0.96382 0.0
C1532 C 0.63987 0.60304 0.97099 0.0
C1533 C 0.64151 0.62457 0.97527 0.0
C1534 C 0.65468 0.63439 0.99028 0.0
C1535 C 0.65609 0.65468 0.99427 0.0
C1536 C 0.64426 0.66528 0.98349 0.0
C1537 C 0.63096 0.65559 0.96872 0.0
C1538 C 0.62953 0.63531 0.96464 0.0
C1539 C 0.58587 0.53915 -0.00145 0.0
C1540 C 0.56835 0.54209 0.9893 0.0
C1541 C 0.60282 0.54776 0.99204 0.0
C1542 C 0.60256 0.55952 0.97625 0.0
C1543 C 0.58512 0.56192 0.9666 0.0
C1544 C 0.56816 0.55318 0.97296 0.0
C1545 C 0.62039 0.5708 0.97105 0.0
C1546 C 0.62248 0.59137 0.9729 0.0
C1547 C 0.63579 0.56161 0.96614 0.0
C1548 C 0.63412 0.53991 0.9633 0.0
C1549 C 0.61949 0.529 0.95039 0.0
C1550 C 0.61789 0.50855 0.9479 0.0
C1551 C 0.63088 0.49884 0.95817 0.0
C1552 C 0.64554 0.50956 0.97092 0.0
C1553 C 0.6472 0.53002 0.97347 0.0
H1554 H 0.62961 0.483 0.95623 0.0
H1555 H 0.64536 0.68098 0.98661 0.0
H1556 H 0.64706 0.44039 0.28023 0.0
H1557 H 0.66309 0.41236 0.27289 0.0
H1558 H 0.71704 0.45067 0.28081 0.0
H1559 H 0.70098 0.4788 0.28731 0.0
H1560 H 0.71726 0.42612 0.25157 0.0
H1561 H 0.699 0.41864 0.31633 0.0
H1562 H 0.67674 0.41516 0.3414 0.0
H1563 H 0.64578 0.36289 0.31001 0.0
H1564 H 0.66776 0.36619 0.28465 0.0
H1565 H 0.77872 0.35574 0.26905 0.0
H1566 H 0.76017 0.38266 0.27131 0.0
H1567 H 0.70863 0.34136 0.2568 0.0
H1568 H 0.72721 0.31454 0.25513 0.0
H1569 H 0.7057 0.36616 0.28741 0.0
H1570 H 0.72512 0.3725 0.22381 0.0
H1571 H 0.7477 0.37554 0.19906 0.0
H1572 H 0.7768 0.42965 0.22854 0.0
H1573 H 0.75454 0.4268 0.25364 0.0
C1574 C 0.66233 0.44284 0.28032 0.0
C1575 C 0.67275 0.46183 0.28443 0.0
C1576 C 0.67153 0.42675 0.27625 0.0
C1577 C 0.69139 0.42922 0.27665 0.0
C1578 C 0.70174 0.44827 0.28042 0.0
C1579 C 0.69253 0.46438 0.28418 0.0
C1580 C 0.70148 0.41207 0.27324 0.0
C1581 C 0.71486 0.41313 0.25961 0.0
C1582 C 0.69806 0.39476 0.28325 0.0
C1583 C 0.68488 0.39279 0.2985 0.0
C1584 C 0.68736 0.40649 0.31471 0.0
C1585 C 0.67481 0.40454 0.32898 0.0
C1586 C 0.65982 0.38885 0.32727 0.0
C1587 C 0.65737 0.37505 0.3113 0.0
C1588 C 0.66987 0.37695 0.29699 0.0
C1589 C 0.76344 0.35245 0.26609 0.0
C1590 C 0.75442 0.33301 0.26129 0.0
C1591 C 0.75285 0.36786 0.26733 0.0
C1592 C 0.73297 0.36413 0.26392 0.0
C1593 C 0.72395 0.34469 0.25926 0.0
C1594 C 0.73458 0.32933 0.25794 0.0
C1595 C 0.72163 0.38041 0.26601 0.0
C1596 C 0.70802 0.37915 0.27935 0.0
C1597 C 0.72488 0.39754 0.25579 0.0
C1598 C 0.73826 0.39934 0.2407 0.0
C1599 C 0.73642 0.38497 0.2251 0.0
C1600 C 0.74915 0.38667 0.21099 0.0
C1601 C 0.7637 0.40276 0.21225 0.0
C1602 C 0.76553 0.41719 0.2276 0.0
C1603 C 0.75285 0.41555 0.24176 0.0
H1604 H 0.77354 0.40405 0.20131 0.0
H1605 H 0.65013 0.38737 0.33833 0.0
H1606 H 0.7691 0.44039 0.51435 0.0
H1607 H 0.79982 0.46213 0.51668 0.0
H1608 H 0.82868 0.41219 0.52346 0.0
H1609 H 0.79825 0.39044 0.52091 0.0
H1610 H 0.84435 0.44607 0.54943 0.0
H1611 H 0.82199 0.42881 0.48134 0.0
H1612 H 0.79825 0.42801 0.45335 0.0
H1613 H 0.80608 0.49105 0.45702 0.0
H1614 H 0.8292 0.49224 0.48584 0.0
H1615 H 0.93774 0.47295 0.52758 0.0
H1616 H 0.90504 0.45787 0.5297 0.0
H1617 H 0.88522 0.50841 0.50614 0.0
H1618 H 0.91807 0.52308 0.50308 0.0
H1619 H 0.86308 0.47852 0.49077 0.0
H1620 H 0.88538 0.49838 0.55589 0.0
H1621 H 0.90695 0.50239 0.58606 0.0
H1622 H 0.89781 0.43995 0.59026 0.0
H1623 H 0.87655 0.43548 0.55979 0.0
C1624 C 0.78199 0.43406 0.51647 0.0
C1625 C 0.78116 0.41362 0.51727 0.0
C1626 C 0.79954 0.44651 0.5178 0.0
C1627 C 0.81658 0.43879 0.52021 0.0
C1628 C 0.81575 0.4185 0.52166 0.0
C1629 C 0.79829 0.40606 0.52004 0.0
C1630 C 0.83535 0.45145 0.5201 0.0
C1631 C 0.84853 0.45309 0.53659 0.0
C1632 C 0.84053 0.46133 0.50364 0.0
C1633 C 0.82714 0.4606 0.48592 0.0
C1634 C 0.81853 0.44251 0.47632 0.0
C1635 C 0.80518 0.44199 0.46027 0.0
C1636 C 0.8007 0.45945 0.45329 0.0
C1637 C 0.80954 0.47751 0.46243 0.0
C1638 C 0.8227 0.47813 0.47871 0.0
C1639 C 0.92641 0.48087 0.5229 0.0
C1640 C 0.93046 0.49922 0.51523 0.0
C1641 C 0.90766 0.4723 0.52425 0.0
C1642 C 0.89248 0.48211 0.51848 0.0
C1643 C 0.89656 0.50049 0.51076 0.0
C1644 C 0.91535 0.50892 0.50907 0.0
C1645 C 0.87244 0.47284 0.52002 0.0
C1646 C 0.85898 0.47179 0.50378 0.0
C1647 C 0.86681 0.46402 0.53696 0.0
C1648 C 0.87946 0.46659 0.55543 0.0
C1649 C 0.88807 0.48547 0.56315 0.0
C1650 C 0.90024 0.48784 0.58033 0.0
C1651 C 0.90375 0.47144 0.59009 0.0
C1652 C 0.89508 0.45264 0.58268 0.0
C1653 C 0.88297 0.45018 0.56544 0.0
H1654 H 0.91318 0.47331 0.60339 0.0
H1655 H 0.79039 0.45897 0.4408 0.0
H1656 H 0.34369 0.09643 0.24034 0.0
H1657 H 0.32443 0.12258 0.23878 0.0
H1658 H 0.37492 0.16551 0.23947 0.0
H1659 H 0.39438 0.13925 0.24225 0.0
H1660 H 0.3534 0.18089 0.26031 0.0
H1661 H 0.34088 0.14966 0.19669 0.0
H1662 H 0.33236 0.1224 0.17127 0.0
H1663 H 0.27754 0.1082 0.19151 0.0
H1664 H 0.28582 0.13522 0.21722 0.0
H1665 H 0.29156 0.25244 0.22979 0.0
H1666 H 0.31537 0.23019 0.22894 0.0
H1667 H 0.27637 0.18473 0.25034 0.0
H1668 H 0.25312 0.20705 0.25221 0.0
H1669 H 0.29423 0.17336 0.21583 0.0
H1670 H 0.3086 0.20902 0.27861 0.0
H1671 H 0.31946 0.2368 0.30279 0.0
H1672 H 0.37373 0.24577 0.28061 0.0
H1673 H 0.36309 0.21812 0.25601 0.0
C1674 C 0.35074 0.1114 0.23995 0.0
C1675 C 0.37064 0.11562 0.24122 0.0
C1676 C 0.33964 0.12646 0.23894 0.0
C1677 C 0.34799 0.14625 0.23853 0.0
C1678 C 0.36793 0.15049 0.2397 0.0
C1679 C 0.3791 0.1354 0.24115 0.0
C1680 C 0.3359 0.16236 0.23741 0.0
C1681 C 0.34069 0.17938 0.25025 0.0
C1682 C 0.31912 0.16062 0.22444 0.0
C1683 C 0.31404 0.14438 0.20898 0.0
C1684 C 0.32705 0.14065 0.19579 0.0
C1685 C 0.32226 0.12525 0.18133 0.0
C1686 C 0.30444 0.11355 0.17981 0.0
C1687 C 0.29135 0.11726 0.19272 0.0
C1688 C 0.29607 0.13264 0.20722 0.0
C1689 C 0.2882 0.23781 0.23458 0.0
C1690 C 0.27049 0.23166 0.24132 0.0
C1691 C 0.30179 0.22505 0.23399 0.0
C1692 C 0.29773 0.20573 0.23964 0.0
C1693 C 0.27989 0.19951 0.24592 0.0
C1694 C 0.26657 0.21234 0.24695 0.0
C1695 C 0.31167 0.19165 0.23881 0.0
C1696 C 0.30714 0.17498 0.22562 0.0
C1697 C 0.32894 0.19409 0.25106 0.0
C1698 C 0.33495 0.21142 0.26529 0.0
C1699 C 0.32276 0.21696 0.27867 0.0
C1700 C 0.32891 0.23272 0.29252 0.0
C1701 C 0.34727 0.24307 0.29325 0.0
C1702 C 0.35951 0.23772 0.28006 0.0
C1703 C 0.3534 0.22201 0.26613 0.0
H1704 H 0.35201 0.25525 0.304 0.0
H1705 H 0.30075 0.10163 0.1686 0.0
H1706 H 0.30154 0.09703 0.50823 0.0
H1707 H 0.32819 0.08176 0.52107 0.0
H1708 H 0.36282 0.13892 0.5318 0.0
H1709 H 0.33645 0.15412 0.51819 0.0
H1710 H 0.38169 0.11602 0.51479 0.0
H1711 H 0.34667 0.11029 0.56953 0.0
H1712 H 0.31876 0.10213 0.58744 0.0
H1713 H 0.31476 0.04118 0.56836 0.0
H1714 H 0.3425 0.04899 0.55011 0.0
H1715 H 0.45832 0.07381 0.55345 0.0
H1716 H 0.43163 0.09162 0.55674 0.0
H1717 H 0.39297 0.04068 0.53111 0.0
H1718 H 0.41962 0.02281 0.52776 0.0
H1719 H 0.37794 0.06337 0.56055 0.0
H1720 H 0.41091 0.0714 0.50241 0.0
H1721 H 0.44008 0.07984 0.48647 0.0
H1722 H 0.44855 0.13822 0.51426 0.0
H1723 H 0.41949 0.13006 0.53044 0.0
C1724 C 0.31477 0.10633 0.51355 0.0
C1725 C 0.31697 0.12673 0.51213 0.0
C1726 C 0.32998 0.09761 0.52103 0.0
C1727 C 0.34751 0.10919 0.52765 0.0
C1728 C 0.34948 0.12966 0.52678 0.0
C1729 C 0.33439 0.13833 0.519 0.0
C1730 C 0.36418 0.09984 0.53397 0.0
C1731 C 0.38093 0.10484 0.52515 0.0
C1732 C 0.36326 0.08507 0.54732 0.0
C1733 C 0.3466 0.08026 0.55834 0.0
C1734 C 0.33977 0.09516 0.56904 0.0
C1735 C 0.32399 0.0906 0.57927 0.0
C1736 C 0.31497 0.07116 0.57901 0.0
C1737 C 0.32175 0.05623 0.56855 0.0
C1738 C 0.33752 0.06072 0.55828 0.0
C1739 C 0.44407 0.06623 0.54906 0.0
C1740 C 0.44097 0.04705 0.54009 0.0
C1741 C 0.42887 0.0764 0.55097 0.0
C1742 C 0.4104 0.06751 0.54393 0.0
C1743 C 0.40713 0.04776 0.53664 0.0
C1744 C 0.42235 0.0376 0.53464 0.0
C1745 C 0.39507 0.07948 0.54121 0.0
C1746 C 0.37865 0.07488 0.55056 0.0
C1747 C 0.39632 0.09479 0.52851 0.0
C1748 C 0.41322 0.10001 0.51793 0.0
C1749 C 0.41905 0.086 0.50519 0.0
C1750 C 0.43555 0.09074 0.49609 0.0
C1751 C 0.44622 0.10952 0.49943 0.0
C1752 C 0.44031 0.12365 0.51173 0.0
C1753 C 0.42382 0.11898 0.52087 0.0
H1754 H 0.45903 0.11314 0.49243 0.0
H1755 H 0.30275 0.06765 0.58694 0.0
H1756 H 0.65146 0.58504 0.32896 0.0
H1757 H 0.66998 0.61724 0.32593 0.0
H1758 H 0.70146 0.59133 0.28391 0.0
H1759 H 0.68356 0.55892 0.2876 0.0
H1760 H 0.72426 0.61895 0.3041 0.0
H1761 H 0.66244 0.61557 0.27092 0.0
H1762 H 0.62751 0.61024 0.26672 0.0
H1763 H 0.62705 0.65668 0.31061 0.0
H1764 H 0.662 0.6621 0.31527 0.0
H1765 H 0.74972 0.70787 0.25672 0.0
H1766 H 0.73574 0.67487 0.26413 0.0
H1767 H 0.71528 0.69941 0.31519 0.0
H1768 H 0.72939 0.7324 0.30807 0.0
H1769 H 0.6875 0.67282 0.29046 0.0
H1770 H 0.75109 0.67622 0.32144 0.0
H1771 H 0.78593 0.68148 0.32235 0.0
H1772 H 0.78258 0.63453 0.27807 0.0
H1773 H 0.74769 0.62918 0.2767 0.0
C1774 C 0.66254 0.58615 0.3193 0.0
C1775 C 0.66593 0.56942 0.30842 0.0
C1776 C 0.67303 0.60462 0.31745 0.0
C1777 C 0.68679 0.60691 0.30424 0.0
C1778 C 0.69087 0.59006 0.29411 0.0
C1779 C 0.68063 0.57149 0.29625 0.0
C1780 C 0.6963 0.6269 0.30041 0.0
C1781 C 0.71616 0.63062 0.30092 0.0
C1782 C 0.68586 0.64232 0.29633 0.0
C1783 C 0.66483 0.63909 0.29359 0.0
C1784 C 0.65489 0.62454 0.27979 0.0
C1785 C 0.63509 0.62152 0.27731 0.0
C1786 C 0.62507 0.63307 0.28843 0.0
C1787 C 0.63483 0.64771 0.30203 0.0
C1788 C 0.65464 0.65078 0.30459 0.0
C1789 C 0.74235 0.70625 0.26959 0.0
C1790 C 0.74072 0.72279 0.28182 0.0
C1791 C 0.73442 0.68736 0.27384 0.0
C1792 C 0.72454 0.68468 0.29025 0.0
C1793 C 0.72289 0.70115 0.30248 0.0
C1794 C 0.73105 0.71999 0.29842 0.0
C1795 C 0.71533 0.66479 0.29433 0.0
C1796 C 0.69553 0.6611 0.29375 0.0
C1797 C 0.72579 0.64934 0.29789 0.0
C1798 C 0.74677 0.65243 0.29884 0.0
C1799 C 0.75777 0.66712 0.31178 0.0
C1800 C 0.77753 0.6701 0.31241 0.0
C1801 C 0.78646 0.65838 0.30024 0.0
C1802 C 0.77564 0.64362 0.28747 0.0
C1803 C 0.75588 0.64059 0.28678 0.0
H1804 H 0.80176 0.66072 0.30074 0.0
H1805 H 0.60973 0.63072 0.28649 0.0
H1806 H 0.85966 0.52532 0.76197 0.0
H1807 H 0.83744 0.49458 0.7618 0.0
H1808 H 0.88276 0.4614 0.75377 0.0
H1809 H 0.90517 0.49202 0.75441 0.0
H1810 H 0.84634 0.44921 0.72791 0.0
H1811 H 0.87187 0.46351 0.79546 0.0
H1812 H 0.87922 0.48472 0.82592 0.0
H1813 H 0.82019 0.48846 0.82737 0.0
H1814 H 0.81252 0.46748 0.79674 0.0
H1815 H 0.81262 0.3529 0.74841 0.0
H1816 H 0.83025 0.38567 0.74667 0.0
H1817 H 0.7863 0.41108 0.77269 0.0
H1818 H 0.76885 0.37794 0.77514 0.0
H1819 H 0.81919 0.42924 0.78824 0.0
H1820 H 0.79239 0.41289 0.72316 0.0
H1821 H 0.78383 0.39233 0.69242 0.0
H1822 H 0.84272 0.39385 0.6849 0.0
H1823 H 0.85167 0.41414 0.71578 0.0
C1824 C 0.86489 0.51148 0.7601 0.0
C1825 C 0.8842 0.51112 0.75823 0.0
C1826 C 0.85218 0.49395 0.76004 0.0
C1827 C 0.85847 0.47574 0.75776 0.0
C1828 C 0.87763 0.47531 0.7555 0.0
C1829 C 0.89042 0.49282 0.75596 0.0
C1830 C 0.84519 0.4571 0.75817 0.0
C1831 C 0.84049 0.44471 0.7411 0.0
C1832 C 0.83706 0.45166 0.77522 0.0
C1833 C 0.84165 0.46413 0.79369 0.0
C1834 C 0.86048 0.46901 0.80217 0.0
C1835 C 0.8647 0.48096 0.81948 0.0
C1836 C 0.85019 0.48799 0.82853 0.0
C1837 C 0.83142 0.48303 0.82032 0.0
C1838 C 0.82712 0.4711 0.803 0.0
C1839 C 0.80662 0.36546 0.75365 0.0
C1840 C 0.7893 0.36288 0.7618 0.0
C1841 C 0.81668 0.38425 0.75255 0.0
C1842 C 0.80948 0.40098 0.75917 0.0
C1843 C 0.79214 0.39844 0.76738 0.0
C1844 C 0.78213 0.37953 0.76871 0.0
C1845 C 0.82048 0.42096 0.758 0.0
C1846 C 0.82478 0.4337 0.77492 0.0
C1847 C 0.828 0.42687 0.74068 0.0
C1848 C 0.8227 0.41493 0.7219 0.0
C1849 C 0.80353 0.40876 0.71502 0.0
C1850 C 0.7986 0.39715 0.69755 0.0
C1851 C 0.81272 0.39174 0.68674 0.0
C1852 C 0.8318 0.39803 0.69331 0.0
C1853 C 0.83681 0.4096 0.71078 0.0
H1854 H 0.8089 0.38269 0.67326 0.0
H1855 H 0.85349 0.49724 0.84194 0.0
H1856 H 0.99923 0.80807 0.10426 0.0
H1857 H 0.00308 0.83738 0.08625 0.0
H1858 H 0.99774 0.87316 0.13797 0.0
H1859 H 0.99346 0.84361 0.1561 0.0
H1860 H 0.97724 0.88406 0.10788 0.0
H1861 H 0.04088 0.87249 0.12005 0.0
H1862 H 0.06726 0.85337 0.12088 0.0
H1863 H 0.05914 0.84337 0.05882 0.0
H1864 H 0.03249 0.86218 0.05764 0.0
H1865 H 0.02025 0.97494 0.07282 0.0
H1866 H 0.01783 0.94513 0.0904 0.0
H1867 H 0.99619 0.91015 0.03729 0.0
H1868 H 0.99799 0.94017 0.0196 0.0
H1869 H 0.03078 0.89949 0.06801 0.0
H1870 H 0.9648 0.9092 0.05728 0.0
H1871 H 0.93927 0.92942 0.05756 0.0
H1872 H 0.95374 0.94445 0.11858 0.0
H1873 H 0.97957 0.92451 0.11858 0.0
C1874 C 0.99898 0.82217 0.11189 0.0
C1875 C 0.9961 0.82351 0.13166 0.0
C1876 C 1.00127 0.83897 0.10155 0.0
C1877 C 1.00096 0.85757 0.11076 0.0
C1878 C 0.99809 0.85898 0.13054 0.0
C1879 C 0.99572 0.84211 0.14091 0.0
C1880 C 0.00317 0.87538 0.09953 0.0
C1881 C 0.98908 0.88748 0.09936 0.0
C1882 C 0.01847 0.87985 0.08814 0.0
C1883 C 0.03456 0.86859 0.08878 0.0
C1884 C 0.04461 0.86608 0.10659 0.0
C1885 C 0.05963 0.85532 0.10712 0.0
C1886 C 0.06485 0.84712 0.08992 0.0
C1887 C 0.05507 0.84971 0.07214 0.0
C1888 C 0.04001 0.86043 0.07153 0.0
C1889 C 0.01505 0.9609 0.06484 0.0
C1890 C 0.00925 0.95984 0.04485 0.0
C1891 C 0.01367 0.94391 0.07491 0.0
C1892 C 0.00679 0.92551 0.06514 0.0
C1893 C 1.00152 0.92427 0.04506 0.0
C1894 C 1.00253 0.94137 0.035 0.0
C1895 C 0.00473 0.90774 0.07621 0.0
C1896 C 0.01893 0.89585 0.07648 0.0
C1897 C 0.98967 0.90355 0.08781 0.0
C1898 C 0.97424 0.91557 0.08788 0.0
C1899 C 0.96268 0.91701 0.0707 0.0
C1900 C 0.94813 0.92836 0.07082 0.0
C1901 C 0.94491 0.93823 0.08806 0.0
C1902 C 0.95626 0.9368 0.10523 0.0
C1903 C 0.97085 0.92546 0.10519 0.0
H1904 H 0.93356 0.9469 0.08813 0.0
H1905 H 0.07648 0.8388 0.09036 0.0
H1906 H 0.95103 0.27497 0.87436 0.0
H1907 H 0.92069 0.26971 0.85411 0.0
H1908 H 0.94684 0.30173 0.80968 0.0
H1909 H 0.97762 0.30654 0.82975 0.0
H1910 H 0.91029 0.31361 0.82593 0.0
H1911 H 0.93628 0.25925 0.79693 0.0
H1912 H 0.95115 0.22934 0.79813 0.0
H1913 H 0.90431 0.2004 0.82528 0.0
H1914 H 0.8893 0.23026 0.82452 0.0
H1915 H 0.82716 0.30323 0.7627 0.0
H1916 H 0.86017 0.3039 0.77507 0.0
H1917 H 0.84441 0.25088 0.80351 0.0
H1918 H 0.81132 0.24987 0.79066 0.0
H1919 H 0.87703 0.2497 0.79451 0.0
H1920 H 0.85169 0.30067 0.82707 0.0
H1921 H 0.83552 0.32958 0.83057 0.0
H1922 H 0.87909 0.36402 0.80319 0.0
H1923 H 0.8954 0.33522 0.79932 0.0
C1924 C 0.95042 0.28071 0.86017 0.0
C1925 C 0.96677 0.2912 0.85368 0.0
C1926 C 0.93305 0.27765 0.8486 0.0
C1927 C 0.93146 0.28532 0.83039 0.0
C1928 C 0.94776 0.29564 0.82369 0.0
C1929 C 0.96535 0.2983 0.83511 0.0
C1930 C 0.9125 0.28335 0.819 0.0
C1931 C 0.90315 0.29976 0.81866 0.0
C1932 C 0.9028 0.26504 0.81044 0.0
C1933 C 0.91177 0.24706 0.81083 0.0
C1934 C 0.92924 0.24658 0.80333 0.0
C1935 C 0.93767 0.22961 0.80389 0.0
C1936 C 0.9287 0.213 0.81182 0.0
C1937 C 0.91125 0.21329 0.81916 0.0
C1938 C 0.90277 0.23023 0.81865 0.0
C1939 C 0.83072 0.29161 0.77149 0.0
C1940 C 0.8165 0.27663 0.77588 0.0
C1941 C 0.84966 0.2921 0.77873 0.0
C1942 C 0.85488 0.278 0.79112 0.0
C1943 C 0.84086 0.2623 0.7945 0.0
C1944 C 0.82188 0.26164 0.787 0.0
C1945 C 0.87468 0.28012 0.80109 0.0
C1946 C 0.88415 0.26369 0.80146 0.0
C1947 C 0.8843 0.29832 0.81031 0.0
C1948 C 0.87465 0.31574 0.81275 0.0
C1949 C 0.85777 0.31439 0.82172 0.0
C1950 C 0.84858 0.33075 0.82377 0.0
C1951 C 0.85625 0.34861 0.81706 0.0
C1952 C 0.87316 0.35016 0.80835 0.0
C1953 C 0.88238 0.33382 0.80624 0.0
H1954 H 0.84911 0.36127 0.81864 0.0
H1955 H 0.93525 0.19988 0.81224 0.0
H1956 H 0.47366 0.21637 0.59273 0.0
H1957 H 0.4738 0.18267 0.57961 0.0
H1958 H 0.5035 0.17043 0.63325 0.0
H1959 H 0.50284 0.20411 0.64667 0.0
H1960 H 0.5225 0.16564 0.59903 0.0
H1961 H 0.46245 0.14611 0.62155 0.0
H1962 H 0.42881 0.14609 0.62603 0.0
H1963 H 0.41381 0.13409 0.56475 0.0
H1964 H 0.44747 0.13462 0.55974 0.0
H1965 H 0.53569 0.07222 0.56039 0.0
H1966 H 0.52746 0.09863 0.58151 0.0
H1967 H 0.48424 0.10841 0.53722 0.0
H1968 H 0.49188 0.08127 0.51651 0.0
H1969 H 0.47135 0.11264 0.5701 0.0
H1970 H 0.53027 0.13838 0.54641 0.0
H1971 H 0.56363 0.13892 0.5402 0.0
H1972 H 0.58006 0.14041 0.6014 0.0
H1973 H 0.54675 0.13968 0.60796 0.0
C1974 C 0.47955 0.20624 0.60198 0.0
C1975 C 0.48811 0.21276 0.62076 0.0
C1976 C 0.47964 0.18699 0.59447 0.0
C1977 C 0.48865 0.17401 0.60543 0.0
C1978 C 0.49635 0.18017 0.62459 0.0
C1979 C 0.49586 0.19934 0.63229 0.0
C1980 C 0.49247 0.15534 0.59584 0.0
C1981 C 0.51133 0.15385 0.59306 0.0
C1982 C 0.47782 0.14032 0.58739 0.0
C1983 C 0.4576 0.14069 0.59024 0.0
C1984 C 0.45206 0.14383 0.60896 0.0
C1985 C 0.43296 0.14367 0.6116 0.0
C1986 C 0.41921 0.14019 0.59566 0.0
C1987 C 0.42452 0.13688 0.57704 0.0
C1988 C 0.44361 0.13714 0.5743 0.0
C1989 C 0.52446 0.08006 0.55519 0.0
C1990 C 0.51453 0.07487 0.53679 0.0
C1991 C 0.51978 0.0952 0.56724 0.0
C1992 C 0.50549 0.10593 0.56087 0.0
C1993 C 0.49536 0.10049 0.54252 0.0
C1994 C 0.4998 0.08506 0.53064 0.0
C1995 C 0.50139 0.12308 0.57307 0.0
C1996 C 0.48252 0.12435 0.57623 0.0
C1997 C 0.51596 0.13819 0.58154 0.0
C1998 C 0.536 0.13878 0.57765 0.0
C1999 C 0.54099 0.13871 0.55853 0.0
C2000 C 0.55988 0.13907 0.55495 0.0
C2001 C 0.57394 0.13964 0.5704 0.0
C2002 C 0.56914 0.13994 0.58946 0.0
C2003 C 0.55027 0.13958 0.59311 0.0
H2004 H 0.58856 0.13991 0.5676 0.0
H2005 H 0.40442 0.13999 0.59775 0.0
H2006 H 0.55858 0.78475 0.31574 0.0
H2007 H 0.58821 0.78321 0.30127 0.0
H2008 H 0.61917 0.79242 0.35821 0.0
H2009 H 0.5897 0.79488 0.37258 0.0
H2010 H 0.63929 0.81221 0.33613 0.0
H2011 H 0.60878 0.74565 0.33005 0.0
H2012 H 0.58313 0.71763 0.32115 0.0
H2013 H 0.5835 0.72914 0.26108 0.0
H2014 H 0.60901 0.75739 0.26965 0.0
H2015 H 0.72383 0.78385 0.3013 0.0
H2016 H 0.69555 0.78561 0.31836 0.0
H2017 H 0.66171 0.78363 0.26339 0.0
H2018 H 0.68982 0.78166 0.24644 0.0
H2019 H 0.64413 0.75922 0.28625 0.0
H2020 H 0.67567 0.82719 0.29467 0.0
H2021 H 0.70296 0.85305 0.30535 0.0
H2022 H 0.7024 0.83588 0.36374 0.0
H2023 H 0.67519 0.80978 0.35336 0.0
C2024 C 0.57169 0.78637 0.32517 0.0
C2025 C 0.57169 0.78986 0.34534 0.0
C2026 C 0.5887 0.78539 0.31689 0.0
C2027 C 0.60613 0.78735 0.32858 0.0
C2028 C 0.60608 0.79086 0.34874 0.0
C2029 C 0.58913 0.79218 0.35699 0.0
C2030 C 0.62437 0.78595 0.31983 0.0
C2031 C 0.64033 0.80044 0.32541 0.0
C2032 C 0.62604 0.77071 0.30574 0.0
C2033 C 0.61068 0.75376 0.30052 0.0
C2034 C 0.6033 0.74229 0.31495 0.0
C2035 C 0.5888 0.72636 0.30997 0.0
C2036 C 0.58166 0.72164 0.29057 0.0
C2037 C 0.58903 0.73283 0.2761 0.0
C2038 C 0.60352 0.74879 0.28102 0.0
C2039 C 0.71041 0.78412 0.29291 0.0
C2040 C 0.70912 0.78288 0.27253 0.0
C2041 C 0.6942 0.78508 0.30266 0.0
C2042 C 0.67637 0.78496 0.29223 0.0
C2043 C 0.67519 0.78375 0.27185 0.0
C2044 C 0.69132 0.78271 0.26215 0.0
C2045 C 0.6588 0.78564 0.30226 0.0
C2046 C 0.64301 0.77097 0.29697 0.0
C2047 C 0.65745 0.80046 0.31689 0.0
C2048 C 0.67348 0.81646 0.32321 0.0
C2049 C 0.68141 0.82889 0.30977 0.0
C2050 C 0.69685 0.84359 0.31577 0.0
C2051 C 0.70441 0.84609 0.3352 0.0
C2052 C 0.69651 0.83393 0.34869 0.0
C2053 C 0.68106 0.81921 0.34276 0.0
H2054 H 0.71636 0.85747 0.33981 0.0
H2055 H 0.57044 0.7093 0.28673 0.0
H2056 H 0.99159 0.22105 0.43281 0.0
H2057 H 0.99155 0.18832 0.44453 0.0
H2058 H 0.05177 0.19381 0.44034 0.0
H2059 H 0.05145 0.22603 0.42728 0.0
H2060 H 0.03751 0.15756 0.43305 0.0
H2061 H 0.03234 0.20555 0.48389 0.0
H2062 H 0.01909 0.23212 0.50056 0.0
H2063 H 0.96606 0.19386 0.50073 0.0
H2064 H 0.97892 0.16713 0.48382 0.0
H2065 H 0.0558 0.09583 0.51071 0.0
H2066 H 0.05453 0.12367 0.49046 0.0
H2067 H 0.99375 0.1088 0.48086 0.0
H2068 H 0.9949 0.08064 0.50063 0.0
H2069 H 0.00836 0.14894 0.49468 0.0
H2070 H 0.0175 0.09967 0.44564 0.0
H2071 H 0.03377 0.07455 0.43048 0.0
H2072 H 0.08385 0.11723 0.43033 0.0
H2073 H 0.06798 0.14254 0.44562 0.0
C2074 C 0.00468 0.21496 0.43395 0.0
C2075 C 0.02153 0.22588 0.42926 0.0
C2076 C 0.00471 0.1964 0.44081 0.0
C2077 C 0.02178 0.18886 0.44395 0.0
C2078 C 0.03845 0.19935 0.43818 0.0
C2079 C 0.03829 0.21771 0.43073 0.0
C2080 C 0.02243 0.1708 0.45445 0.0
C2081 C 0.03131 0.15578 0.44663 0.0
C2082 C 0.0143 0.16839 0.47218 0.0
C2083 C 0.00653 0.18441 0.48242 0.0
C2084 C 0.01781 0.20285 0.48737 0.0
C2085 C 0.01038 0.21793 0.49687 0.0
C2086 C 0.99173 0.2147 0.50165 0.0
C2087 C 0.98049 0.19635 0.49699 0.0
C2088 C 0.98785 0.18123 0.48746 0.0
C2089 C 0.04218 0.09859 0.50433 0.0
C2090 C 0.0254 0.08636 0.50737 0.0
C2091 C 0.04152 0.11433 0.49268 0.0
C2092 C 0.0241 0.1182 0.48422 0.0
C2093 C 0.00733 0.10599 0.48727 0.0
C2094 C 0.008 0.09002 0.49859 0.0
C2095 C 0.02325 0.13573 0.47318 0.0
C2096 C 0.01445 0.15072 0.48103 0.0
C2097 C 0.03196 0.1383 0.45586 0.0
C2098 C 0.04159 0.12296 0.44695 0.0
C2099 C 0.03203 0.10365 0.44253 0.0
C2100 C 0.04113 0.08942 0.4338 0.0
C2101 C 0.05976 0.09433 0.42934 0.0
C2102 C 0.06938 0.11347 0.43369 0.0
C2103 C 0.06034 0.12776 0.44238 0.0
H2104 H 0.06678 0.08327 0.42261 0.0
H2105 H 0.986 0.22639 0.50901 0.0
H2106 H 0.56794 0.30685 0.11311 0.0
H2107 H 0.59708 0.30562 0.13392 0.0
H2108 H 0.56423 0.28732 0.18049 0.0
H2109 H 0.53512 0.28883 0.16003 0.0
H2110 H 0.59494 0.31334 0.19413 0.0
H2111 H 0.58147 0.25387 0.15256 0.0
H2112 H 0.57429 0.23382 0.1214 0.0
H2113 H 0.62708 0.26033 0.10291 0.0
H2114 H 0.63445 0.28076 0.13387 0.0
H2115 H 0.66894 0.27229 0.24778 0.0
H2116 H 0.63878 0.27635 0.2297 0.0
H2117 H 0.66921 0.30003 0.18342 0.0
H2118 H 0.69912 0.29614 0.2013 0.0
H2119 H 0.63913 0.27063 0.17061 0.0
H2120 H 0.65238 0.33007 0.2131 0.0
H2121 H 0.65927 0.34913 0.24484 0.0
H2122 H 0.60652 0.32131 0.26236 0.0
H2123 H 0.59945 0.30184 0.23084 0.0
C2124 C 0.5669 0.30271 0.12781 0.0
C2125 C 0.54916 0.29776 0.1348 0.0
C2126 C 0.58357 0.30196 0.13967 0.0
C2127 C 0.58278 0.2961 0.15865 0.0
C2128 C 0.56515 0.29184 0.16588 0.0
C2129 C 0.54851 0.29263 0.15409 0.0
C2130 C 0.60026 0.29361 0.17072 0.0
C2131 C 0.60451 0.30384 0.18909 0.0
C2132 C 0.61278 0.28131 0.16407 0.0
C2133 C 0.60842 0.26899 0.14546 0.0
C2134 C 0.59148 0.25554 0.14179 0.0
C2135 C 0.58739 0.24409 0.12417 0.0
C2136 C 0.6002 0.24584 0.11016 0.0
C2137 C 0.61716 0.25902 0.11376 0.0
C2138 C 0.62131 0.27052 0.13135 0.0
C2139 C 0.6691 0.2784 0.23378 0.0
C2140 C 0.68626 0.28386 0.22587 0.0
C2141 C 0.65195 0.28077 0.22353 0.0
C2142 C 0.65185 0.28852 0.20527 0.0
C2143 C 0.66902 0.29399 0.19747 0.0
C2144 C 0.68607 0.29179 0.20772 0.0
C2145 C 0.63391 0.29054 0.19388 0.0
C2146 C 0.62955 0.28013 0.17565 0.0
C2147 C 0.62127 0.30255 0.20074 0.0
C2148 C 0.62548 0.31433 0.21967 0.0
C2149 C 0.64232 0.32788 0.22378 0.0
C2150 C 0.64625 0.33879 0.24172 0.0
C2151 C 0.63336 0.33639 0.25562 0.0
C2152 C 0.6165 0.32312 0.25159 0.0
C2153 C 0.61253 0.31216 0.23369 0.0
H2154 H 0.63639 0.34485 0.2695 0.0
H2155 H 0.59701 0.23696 0.09653 0.0
H2156 H 0.54697 0.81915 0.9556 0.0
H2157 H 0.5453 0.85081 0.97243 0.0
H2158 H 0.51246 0.86668 0.92215 0.0
H2159 H 0.51528 0.83541 0.90482 0.0
H2160 H 0.53396 0.897 0.93595 0.0
H2161 H 0.49228 0.85005 0.96446 0.0
H2162 H 0.48167 0.81968 0.97998 0.0
H2163 H 0.52236 0.8389 0.02927 0.0
H2164 H 0.53343 0.86927 0.01391 0.0
H2165 H 0.49291 0.95928 0.01226 0.0
H2166 H 0.49547 0.92666 -0.0018 0.0
H2167 H 0.55299 0.94731 0.98715 0.0
H2168 H 0.55053 0.98008 0.00096 0.0
H2169 H 0.51625 0.89865 0.0034 0.0
H2170 H 0.55819 0.9295 0.93998 0.0
H2171 H 0.56062 0.95837 0.9206 0.0
H2172 H 0.50689 0.97038 0.93657 0.0
H2173 H 0.50383 0.94123 0.95551 0.0
C2174 C 0.53953 0.82951 0.94812 0.0
C2175 C 0.5312 0.82494 0.92899 0.0
C2176 C 0.53843 0.84752 0.95779 0.0
C2177 C 0.52832 0.86099 0.94878 0.0
C2178 C 0.5203 0.85655 0.92946 0.0
C2179 C 0.52189 0.83871 0.91956 0.0
C2180 C 0.52615 0.87963 0.95957 0.0
C2181 C 0.53014 0.89733 0.95071 0.0
C2182 C 0.52044 0.88008 0.97859 0.0
C2183 C 0.5138 0.86186 0.98795 0.0
C2184 C 0.49906 0.84774 0.97855 0.0
C2185 C 0.49295 0.83053 0.98732 0.0
C2186 C 0.50137 0.82734 0.00558 0.0
C2187 C 0.51587 0.84138 0.01512 0.0
C2188 C 0.52206 0.85861 0.00639 0.0
C2189 C 0.50626 0.95681 0.00723 0.0
C2190 C 0.52142 0.97237 0.00747 0.0
C2191 C 0.50769 0.93813 -0.00078 0.0
C2192 C 0.52427 0.93471 0.99126 0.0
C2193 C 0.53995 0.94978 0.99291 0.0
C2194 C 0.53855 0.96847 0.00095 0.0
C2195 C 0.52465 0.91592 0.97996 0.0
C2196 C 0.52023 0.89825 0.98869 0.0
C2197 C 0.52893 0.91542 0.96044 0.0
C2198 C 0.53094 0.9333 0.94944 0.0
C2199 C 0.5469 0.93829 0.93937 0.0
C2200 C 0.54835 0.95469 0.9284 0.0
C2201 C 0.53393 0.96623 0.9274 0.0
C2202 C 0.51806 0.96145 0.93741 0.0
C2203 C 0.51647 0.94499 0.94826 0.0
H2204 H 0.53492 0.97878 0.91875 0.0
H2205 H 0.49662 0.81401 0.01235 0.0
H2206 H 0.93297 0.79132 0.61806 0.0
H2207 H 0.90655 0.7897 0.63809 0.0
H2208 H 0.9424 0.77488 0.68657 0.0
H2209 H 0.96876 0.77612 0.6666 0.0
H2210 H 0.906 0.75547 0.68556 0.0
H2211 H 0.93764 0.82149 0.68279 0.0
H2212 H 0.951 0.8505 0.66661 0.0
H2213 H 0.89591 0.85386 0.63837 0.0
H2214 H 0.88226 0.82467 0.65415 0.0
H2215 H 0.84607 0.78754 0.75534 0.0
H2216 H 0.87486 0.78597 0.73884 0.0
H2217 H 0.84436 0.79551 0.68459 0.0
H2218 H 0.81581 0.7968 0.70079 0.0
H2219 H 0.88035 0.81818 0.69166 0.0
H2220 H 0.84916 0.75099 0.69335 0.0
H2221 H 0.836 0.7218 0.70942 0.0
H2222 H 0.89045 0.72098 0.74037 0.0
H2223 H 0.90388 0.75037 0.72471 0.0
C2224 C 0.93511 0.78731 0.63285 0.0
C2225 C 0.95298 0.78414 0.64085 0.0
C2226 C 0.92004 0.78645 0.64429 0.0
C2227 C 0.9227 0.78259 0.66391 0.0
C2228 C 0.94013 0.778 0.6715 0.0
C2229 C 0.95518 0.77879 0.66007 0.0
C2230 C 0.9079 0.7851 0.67688 0.0
C2231 C 0.90055 0.76924 0.68711 0.0
C2232 C 0.90084 0.8031 0.67888 0.0
C2233 C 0.90897 0.82079 0.66952 0.0
C2234 C 0.9284 0.82833 0.67302 0.0
C2235 C 0.93602 0.84482 0.66393 0.0
C2236 C 0.92432 0.85399 0.65143 0.0
C2237 C 0.90496 0.84672 0.64804 0.0
C2238 C 0.89727 0.83022 0.65706 0.0
C2239 C 0.84572 0.78957 0.73997 0.0
C2240 C 0.82888 0.79225 0.72925 0.0
C2241 C 0.86203 0.78855 0.73058 0.0
C2242 C 0.86159 0.79049 0.71052 0.0
C2243 C 0.84493 0.79396 0.70007 0.0
C2244 C 0.82867 0.79466 0.70932 0.0
C2245 C 0.87817 0.78845 0.69998 0.0
C2246 C 0.88594 0.80446 0.69026 0.0
C2247 C 0.88559 0.77063 0.69854 0.0
C2248 C 0.87748 0.75303 0.70803 0.0
C2249 C 0.85828 0.74472 0.70374 0.0
C2250 C 0.85078 0.72812 0.71274 0.0
C2251 C 0.86238 0.71958 0.72592 0.0
C2252 C 0.88149 0.72764 0.73017 0.0
C2253 C 0.88905 0.74426 0.72124 0.0
H2254 H 0.85661 0.70668 0.73278 0.0
H2255 H 0.93025 0.86674 0.64441 0.0
H2256 H 0.09647 0.99902 0.81954 0.0
H2257 H 0.07905 0.99929 0.84802 0.0
H2258 H 0.13166 0.00925 0.88519 0.0
H2259 H 0.14938 0.00876 0.85646 0.0
H2260 H 0.07833 0.97556 0.87913 0.0
H2261 H 0.12311 0.04165 0.92399 0.0
H2262 H 0.14552 0.07142 0.91933 0.0
H2263 H 0.11839 0.07349 0.86188 0.0
H2264 H 0.09566 0.04392 0.86632 0.0
H2265 H 0.04472 0.99012 0.97374 0.0
H2266 H 0.06489 0.9855 0.94763 0.0
H2267 H 0.04431 0.03263 0.9186 0.0
H2268 H 0.02423 0.03742 0.9444 0.0
H2269 H 0.08366 0.03639 0.92245 0.0
H2270 H 0.02907 0.987 0.9023 0.0
H2271 H 0.00578 0.95772 0.90615 0.0
H2272 H 0.05045 0.9229 0.91208 0.0
H2273 H 0.07405 0.95206 0.90856 0.0
C2274 C 0.10442 1.00125 0.83375 0.0
C2275 C 0.12435 0.00394 0.83574 0.0
C2276 C 0.09439 1.00126 0.85003 0.0
C2277 C 0.10401 0.00425 0.86873 0.0
C2278 C 0.12395 0.00693 0.87087 0.0
C2279 C 0.13405 0.00666 0.85448 0.0
C2280 C 0.09293 0.00518 0.88573 0.0
C2281 C 0.07964 0.98878 0.88876 0.0
C2282 C 0.09449 0.02247 0.89816 0.0
C2283 C 0.10786 0.04044 0.89541 0.0
C2284 C 0.12191 0.0485 0.91039 0.0
C2285 C 0.13466 0.06534 0.90779 0.0
C2286 C 0.13343 0.07429 0.89029 0.0
C2287 C 0.11938 0.06649 0.8754 0.0
C2288 C 0.10658 0.04968 0.87794 0.0
C2289 C 0.04412 0.99915 0.96155 0.0
C2290 C 0.03275 0.01407 0.96115 0.0
C2291 C 0.05575 0.99656 0.94674 0.0
C2292 C 0.05614 0.00873 0.93123 0.0
C2293 C 0.04437 0.02317 0.9305 0.0
C2294 C 0.03277 0.02578 0.94523 0.0
C2295 C 0.06899 0.00678 0.91584 0.0
C2296 C 0.0826 0.02302 0.9131 0.0
C2297 C 0.06761 0.98936 0.9036 0.0
C2298 C 0.05337 0.9718 0.90551 0.0
C2299 C 0.03396 0.97315 0.90465 0.0
C2300 C 0.02069 0.95656 0.90671 0.0
C2301 C 0.02664 0.93848 0.90944 0.0
C2302 C 0.04586 0.93692 0.90999 0.0
C2303 C 0.05919 0.95348 0.90797 0.0
H2304 H 0.01635 0.92565 0.91105 0.0
H2305 H 0.14333 0.08731 0.88829 0.0
H2306 H 0.72994 0.39333 0.58266 0.0
H2307 H 0.7336 0.38228 0.61576 0.0
H2308 H 0.72195 0.32196 0.59213 0.0
H2309 H 0.7179 0.33279 0.55962 0.0
H2310 H 0.70559 0.32417 0.62339 0.0
H2311 H 0.76894 0.34925 0.60674 0.0
H2312 H 0.79392 0.375 0.59816 0.0
H2313 H 0.78894 0.41016 0.65006 0.0
H2314 H 0.76377 0.3847 0.6588 0.0
H2315 H 0.74773 0.26646 0.68922 0.0
H2316 H 0.74159 0.28562 0.6615 0.0
H2317 H 0.75071 0.33864 0.69952 0.0
H2318 H 0.75686 0.31934 0.72744 0.0
H2319 H 0.76622 0.34506 0.66485 0.0
H2320 H 0.70793 0.31589 0.68455 0.0
H2321 H 0.68492 0.28894 0.69375 0.0
H2322 H 0.67874 0.26174 0.63581 0.0
H2323 H 0.703 0.28778 0.62655 0.0
C2324 C 0.72772 0.37774 0.58462 0.0
C2325 C 0.72365 0.364 0.56836 0.0
C2326 C 0.73009 0.37139 0.60356 0.0
C2327 C 0.72843 0.35117 0.60664 0.0
C2328 C 0.72342 0.3376 0.59042 0.0
C2329 C 0.72111 0.34387 0.57168 0.0
C2330 C 0.73226 0.34365 0.62636 0.0
C2331 C 0.71894 0.32867 0.63234 0.0
C2332 C 0.74934 0.34989 0.63864 0.0
C2333 C 0.76435 0.3652 0.63331 0.0
C2334 C 0.77308 0.36255 0.61623 0.0
C2335 C 0.78728 0.37707 0.61136 0.0
C2336 C 0.79297 0.39424 0.62352 0.0
C2337 C 0.78448 0.3969 0.64061 0.0
C2338 C 0.77027 0.38242 0.64554 0.0
C2339 C 0.74861 0.28222 0.69171 0.0
C2340 C 0.75286 0.29133 0.71061 0.0
C2341 C 0.74504 0.29321 0.67579 0.0
C2342 C 0.74543 0.31366 0.67828 0.0
C2343 C 0.7503 0.32293 0.6971 0.0
C2344 C 0.75385 0.31187 0.7131 0.0
C2345 C 0.73992 0.32493 0.6613 0.0
C2346 C 0.75283 0.34065 0.65596 0.0
C2347 C 0.72244 0.31932 0.64953 0.0
C2348 C 0.70752 0.30377 0.65489 0.0
C2349 C 0.7019 0.30406 0.67378 0.0
C2350 C 0.6886 0.2889 0.67903 0.0
C2351 C 0.68019 0.2737 0.66535 0.0
C2352 C 0.68526 0.27352 0.64641 0.0
C2353 C 0.69894 0.28841 0.64119 0.0
H2354 H 0.66975 0.26206 0.66943 0.0
H2355 H 0.80398 0.40545 0.61974 0.0
H2356 H 0.44849 0.08043 0.29816 0.0
H2357 H 0.46243 0.07387 0.3302 0.0
H2358 H 0.40654 0.05683 0.34762 0.0
H2359 H 0.39246 0.06383 0.31562 0.0
H2360 H 0.45731 0.09004 0.36824 0.0
H2361 H 0.41087 0.01582 0.37462 0.0
H2362 H 0.39229 0.98844 0.35321 0.0
H2363 H 0.42967 1.00054 0.30906 0.0
H2364 H 0.44852 0.02785 0.33025 0.0
H2365 H 0.46637 0.0598 0.46492 0.0
H2366 H 0.45304 0.06638 0.4327 0.0
H2367 H 0.48738 0.02821 0.40634 0.0
H2368 H 0.50102 0.02171 0.43864 0.0
H2369 H 0.44845 0.0222 0.38955 0.0
H2370 H 0.50092 0.07484 0.40567 0.0
H2371 H 0.51991 0.10238 0.42649 0.0
H2372 H 0.47226 0.13333 0.42459 0.0
H2373 H 0.4529 0.10583 0.40397 0.0
C2374 C 0.43914 0.07543 0.30885 0.0
C2375 C 0.41935 0.07272 0.30434 0.0
C2376 C 0.44714 0.07173 0.3272 0.0
C2377 C 0.43558 0.0648 0.34135 0.0
C2378 C 0.41578 0.06213 0.33694 0.0
C2379 C 0.40774 0.0662 0.31867 0.0
C2380 C 0.44431 0.06006 0.36054 0.0
C2381 C 0.4553 0.07522 0.37291 0.0
C2382 C 0.44194 0.04069 0.36662 0.0
C2383 C 0.43097 0.02399 0.35396 0.0
C2384 C 0.41515 0.01258 0.36037 0.0
C2385 C 0.40455 0.99709 0.34826 0.0
C2386 C 0.40973 0.99281 0.32974 0.0
C2387 C 0.42559 0.00394 0.32335 0.0
C2388 C 0.43621 0.01944 0.33539 0.0
C2389 C 0.47115 0.0528 0.4523 0.0
C2390 C 0.4849 0.04031 0.45443 0.0
C2391 C 0.4635 0.0566 0.43385 0.0
C2392 C 0.46919 0.04783 0.41703 0.0
C2393 C 0.48272 0.03514 0.41908 0.0
C2394 C 0.49063 0.03156 0.43757 0.0
C2395 C 0.46123 0.05226 0.39739 0.0
C2396 C 0.45038 0.03704 0.38493 0.0
C2397 C 0.46376 0.07159 0.39119 0.0
C2398 C 0.47542 0.08821 0.40342 0.0
C2399 C 0.49445 0.08746 0.40981 0.0
C2400 C 0.50529 0.10307 0.42155 0.0
C2401 C 0.49728 0.11957 0.4269 0.0
C2402 C 0.47844 0.12052 0.42046 0.0
C2403 C 0.46753 0.10494 0.40872 0.0
H2404 H 0.50569 0.13164 0.43599 0.0
H2405 H 0.40149 0.98084 0.32037 0.0
H2406 H 0.77054 0.65419 0.04896 0.0
H2407 H 0.7741 0.6658 0.08337 0.0
H2408 H 0.75984 0.72178 0.06805 0.0
H2409 H 0.75634 0.71052 0.0339 0.0
H2410 H 0.79085 0.72576 0.09506 0.0
H2411 H 0.72728 0.68822 0.08374 0.0
H2412 H 0.70409 0.65831 0.07389 0.0
H2413 H 0.73136 0.62725 0.11722 0.0
H2414 H 0.75488 0.65694 0.12716 0.0
H2415 H 0.75573 0.77082 0.17478 0.0
H2416 H 0.75985 0.75446 0.14349 0.0
H2417 H 0.77589 0.70505 0.17253 0.0
H2418 H 0.77193 0.7214 0.20386 0.0
H2419 H 0.74859 0.69436 0.14085 0.0
H2420 H 0.80914 0.7334 0.15557 0.0
H2421 H 0.83189 0.76345 0.16597 0.0
H2422 H 0.81089 0.79158 0.11679 0.0
H2423 H 0.78774 0.76179 0.10628 0.0
C2424 C 0.76812 0.66895 0.05293 0.0
C2425 C 0.76308 0.68139 0.03865 0.0
C2426 C 0.77018 0.67555 0.07257 0.0
C2427 C 0.76723 0.69463 0.07817 0.0
C2428 C 0.76229 0.70704 0.06398 0.0
C2429 C 0.76018 0.70049 0.04444 0.0
C2430 C 0.7688 0.70181 0.0988 0.0
C2431 C 0.7816 0.71895 0.10508 0.0
C2432 C 0.75712 0.69251 0.11196 0.0
C2433 C 0.74297 0.6747 0.10602 0.0
C2434 C 0.72843 0.67496 0.09105 0.0
C2435 C 0.71521 0.65806 0.08548 0.0
C2436 C 0.71629 0.64087 0.09488 0.0
C2437 C 0.73057 0.64057 0.10992 0.0
C2438 C 0.74384 0.65742 0.11554 0.0
C2439 C 0.76021 0.75652 0.17445 0.0
C2440 C 0.76351 0.74732 0.19161 0.0
C2441 C 0.76262 0.74724 0.15664 0.0
C2442 C 0.76829 0.72864 0.15581 0.0
C2443 C 0.77155 0.71941 0.17295 0.0
C2444 C 0.76931 0.72877 0.19077 0.0
C2445 C 0.77022 0.71865 0.13689 0.0
C2446 C 0.75811 0.70098 0.13095 0.0
C2447 C 0.78257 0.72744 0.12406 0.0
C2448 C 0.79659 0.74538 0.13021 0.0
C2449 C 0.80926 0.74604 0.14704 0.0
C2450 C 0.82225 0.76303 0.15295 0.0
C2451 C 0.82282 0.77943 0.14206 0.0
C2452 C 0.81042 0.77886 0.12521 0.0
C2453 C 0.79737 0.76192 0.11926 0.0
H2454 H 0.83288 0.79258 0.14664 0.0
H2455 H 0.70604 0.6278 0.09055 0.0
H2456 H 0.08742 0.01026 0.73534 0.0
H2457 H 0.07809 0.00617 0.70083 0.0
H2458 H 0.13354 0.99354 0.69053 0.0
H2459 H 0.14334 0.99805 0.72562 0.0
H2460 H 0.12245 0.01937 0.66629 0.0
H2461 H 0.09517 0.95684 0.68239 0.0
H2462 H 0.0776 0.93186 0.70066 0.0
H2463 H 0.02677 0.95657 0.68837 0.0
H2464 H 0.04408 0.98191 0.6703 0.0
H2465 H 0.07737 0.00443 0.56705 0.0
H2466 H 0.09296 0.99575 0.59765 0.0
H2467 H 0.05227 0.02087 0.62922 0.0
H2468 H 0.03698 0.03005 0.59881 0.0
H2469 H 0.06028 0.98133 0.63934 0.0
H2470 H 0.09121 0.04771 0.62923 0.0
H2471 H 0.10926 0.07177 0.61035 0.0
H2472 H 0.1542 0.03716 0.61051 0.0
H2473 H 0.13626 0.01274 0.62919 0.0
C2474 C 0.09773 0.00649 0.7259 0.0
C2475 C 0.11621 0.00454 0.73337 0.0
C2476 C 0.09225 0.00396 0.70606 0.0
C2477 C 0.10497 0.99917 0.69306 0.0
C2478 C 0.12344 0.99707 0.70034 0.0
C2479 C 0.12901 0.99963 0.72037 0.0
C2480 C 0.09893 0.99782 0.67192 0.0
C2481 C 0.10913 0.0106 0.66026 0.0
C2482 C 0.08149 0.98644 0.66399 0.0
C2483 C 0.07097 0.97134 0.67502 0.0
C2484 C 0.08028 0.95706 0.68371 0.0
C2485 C 0.07036 0.94282 0.69402 0.0
C2486 C 0.05109 0.94264 0.69569 0.0
C2487 C 0.0417 0.95672 0.68707 0.0
C2488 C 0.05156 0.97103 0.67677 0.0
C2489 C 0.07177 0.00805 0.58055 0.0
C2490 C 0.05609 0.01801 0.58067 0.0
C2491 C 0.08065 1.00307 0.59794 0.0
C2492 C 0.07373 0.00769 0.61561 0.0
C2493 C 0.05776 0.01716 0.61568 0.0
C2494 C 0.04911 0.02247 0.59836 0.0
C2495 C 0.08342 0.0034 0.63423 0.0
C2496 C 0.07387 0.98958 0.6453 0.0
C2497 C 0.10153 0.01359 0.6415 0.0
C2498 C 0.11229 0.02828 0.63035 0.0
C2499 C 0.10485 0.04513 0.62506 0.0
C2500 C 0.11508 0.05886 0.61444 0.0
C2501 C 0.13283 0.05596 0.60917 0.0
C2502 C 0.14042 0.03936 0.61456 0.0
C2503 C 0.13024 0.02558 0.62517 0.0
H2504 H 0.14074 0.06661 0.60095 0.0
H2505 H 0.04342 0.93157 0.70365 0.0
H2506 H 0.72461 0.34658 0.47453 0.0
H2507 H 0.72925 0.33186 0.44276 0.0
H2508 H 0.72522 0.38698 0.41784 0.0
H2509 H 0.72084 0.40188 0.44979 0.0
H2510 H 0.70811 0.32454 0.40976 0.0
H2511 H 0.75013 0.39079 0.37832 0.0
H2512 H 0.77369 0.4204 0.38828 0.0
H2513 H 0.79309 0.3935 0.43899 0.0
H2514 H 0.76961 0.36377 0.42933 0.0
H2515 H 0.71624 0.303 0.30789 0.0
H2516 H 0.71012 0.31833 0.33901 0.0
H2517 H 0.76826 0.31884 0.36131 0.0
H2518 H 0.7745 0.30359 0.33042 0.0
H2519 H 0.75765 0.35367 0.37011 0.0
H2520 H 0.73229 0.28574 0.37525 0.0
H2521 H 0.71177 0.25416 0.36492 0.0
H2522 H 0.66237 0.28196 0.36785 0.0
H2523 H 0.68262 0.31378 0.37797 0.0
C2524 C 0.72477 0.35564 0.46233 0.0
C2525 C 0.72238 0.37548 0.46484 0.0
C2526 C 0.72737 0.34715 0.44406 0.0
C2527 C 0.72776 0.35822 0.4277 0.0
C2528 C 0.7253 0.37807 0.43015 0.0
C2529 C 0.7227 0.38659 0.44847 0.0
C2530 C 0.73051 0.34883 0.4082 0.0
C2531 C 0.71892 0.33104 0.40111 0.0
C2532 C 0.74459 0.35702 0.39666 0.0
C2533 C 0.758 0.37518 0.40321 0.0
C2534 C 0.75935 0.39127 0.39166 0.0
C2535 C 0.77269 0.40806 0.39724 0.0
C2536 C 0.78485 0.40886 0.41427 0.0
C2537 C 0.78358 0.39293 0.42586 0.0
C2538 C 0.77021 0.37613 0.42038 0.0
C2539 C 0.72771 0.30621 0.31945 0.0
C2540 C 0.74587 0.30188 0.31651 0.0
C2541 C 0.72417 0.31499 0.33731 0.0
C2542 C 0.73869 0.31974 0.3527 0.0
C2543 C 0.75678 0.31541 0.34977 0.0
C2544 C 0.76031 0.30655 0.33202 0.0
C2545 C 0.73528 0.32948 0.37174 0.0
C2546 C 0.74671 0.34733 0.3787 0.0
C2547 C 0.72116 0.32127 0.38319 0.0
C2548 C 0.70897 0.30217 0.37717 0.0
C2549 C 0.71705 0.28515 0.37354 0.0
C2550 C 0.70547 0.2672 0.36775 0.0
C2551 C 0.68578 0.26607 0.36568 0.0
C2552 C 0.67762 0.28287 0.36944 0.0
C2553 C 0.68915 0.30086 0.37521 0.0
H2554 H 0.67683 0.25216 0.3612 0.0
H2555 H 0.79533 0.42179 0.41837 0.0
H2556 H 0.46037 0.06444 0.21188 0.0
H2557 H 0.47056 0.06058 0.17993 0.0
H2558 H 0.41421 0.06362 0.15409 0.0
H2559 H 0.40347 0.06689 0.1868 0.0
H2560 H 0.42841 0.03522 0.13461 0.0
H2561 H 0.45117 0.10212 0.15186 0.0
H2562 H 0.46637 0.13181 0.17219 0.0
H2563 H 0.51937 0.1099 0.17591 0.0
H2564 H 0.50444 0.07993 0.15581 0.0
H2565 H 0.4733 0.03886 0.04454 0.0
H2566 H 0.45521 0.04536 0.07185 0.0
H2567 H 0.50373 0.0408 0.11187 0.0
H2568 H 0.52179 0.03419 0.08461 0.0
H2569 H 0.48917 0.07367 0.12061 0.0
H2570 H 0.46277 0.00458 0.10389 0.0
H2571 H 0.44624 0.97729 0.08105 0.0
H2572 H 0.39805 0.00706 0.07308 0.0
H2573 H 0.4144 0.03468 0.09568 0.0
C2574 C 0.44997 0.06444 0.19955 0.0
C2575 C 0.43097 0.06601 0.20217 0.0
C2576 C 0.45595 0.06234 0.18109 0.0
C2577 C 0.44334 0.06208 0.16435 0.0
C2578 C 0.42432 0.06385 0.16671 0.0
C2579 C 0.41821 0.06591 0.18544 0.0
C2580 C 0.45045 0.05943 0.14477 0.0
C2581 C 0.4415 0.04391 0.13141 0.0
C2582 C 0.46752 0.07071 0.14028 0.0
C2583 C 0.47663 0.0887 0.15241 0.0
C2584 C 0.46603 0.10356 0.15712 0.0
C2585 C 0.47461 0.12046 0.16859 0.0
C2586 C 0.49381 0.12273 0.17536 0.0
C2587 C 0.50449 0.10812 0.17065 0.0
C2588 C 0.49598 0.09118 0.15919 0.0
C2589 C 0.48003 0.03896 0.05917 0.0
C2590 C 0.49902 0.03596 0.06237 0.0
C2591 C 0.46963 0.04266 0.07483 0.0
C2592 C 0.47801 0.04357 0.09407 0.0
C2593 C 0.49688 0.04024 0.09723 0.0
C2594 C 0.50721 0.03638 0.08161 0.0
C2595 C 0.46767 0.04893 0.11098 0.0
C2596 C 0.476 0.06509 0.12376 0.0
C2597 C 0.44983 0.03858 0.11456 0.0
C2598 C 0.43987 0.02176 0.10136 0.0
C2599 C 0.44869 0.00535 0.0972 0.0
C2600 C 0.43935 0.98983 0.0843 0.0
C2601 C 0.42112 0.99046 0.0756 0.0
C2602 C 0.41217 0.0066 0.07982 0.0
C2603 C 0.42146 0.02218 0.09269 0.0
H2604 H 0.41392 0.97843 0.06562 0.0
H2605 H 0.50043 0.13582 0.18424 0.0
H2606 H 0.77689 0.6451 0.92141 0.0
H2607 H 0.78126 0.66348 0.89245 0.0
H2608 H 0.78799 0.71807 0.92799 0.0
H2609 H 0.7831 0.70002 0.9565 0.0
H2610 H 0.76308 0.71855 0.89887 0.0
H2611 H 0.82543 0.70176 0.90763 0.0
H2612 H 0.84934 0.67976 0.9116 0.0
H2613 H 0.8293 0.65045 0.85556 0.0
H2614 H 0.80506 0.67207 0.85137 0.0
H2615 H 0.80195 0.76852 0.81148 0.0
H2616 H 0.80854 0.75266 0.84173 0.0
H2617 H 0.75403 0.71564 0.83107 0.0
H2618 H 0.74719 0.73157 0.80149 0.0
H2619 H 0.80723 0.71011 0.84913 0.0
H2620 H 0.73384 0.71924 0.87276 0.0
H2621 H 0.71063 0.74202 0.86864 0.0
H2622 H 0.75543 0.78907 0.86176 0.0
H2623 H 0.77893 0.76666 0.86614 0.0
C2624 C 0.7794 0.66101 0.92295 0.0
C2625 C 0.77939 0.67114 0.9411 0.0
C2626 C 0.78205 0.67148 0.90648 0.0
C2627 C 0.78501 0.69216 0.90811 0.0
C2628 C 0.78563 0.70215 0.92637 0.0
C2629 C 0.78276 0.69178 0.94266 0.0
C2630 C 0.78582 0.70358 0.89076 0.0
C2631 C 0.77287 0.71676 0.88812 0.0
C2632 C 0.79872 0.70144 0.87681 0.0
C2633 C 0.8133 0.68842 0.87928 0.0
C2634 C 0.826 0.69051 0.89622 0.0
C2635 C 0.83964 0.67812 0.8985 0.0
C2636 C 0.8408 0.66368 0.88386 0.0
C2637 C 0.82836 0.66162 0.8669 0.0
C2638 C 0.81468 0.67395 0.86456 0.0
C2639 C 0.79152 0.75687 0.81559 0.0
C2640 C 0.77395 0.75146 0.80442 0.0
C2641 C 0.79531 0.74782 0.83273 0.0
C2642 C 0.78171 0.73311 0.83853 0.0
C2643 C 0.76461 0.72709 0.82685 0.0
C2644 C 0.76072 0.73626 0.81002 0.0
C2645 C 0.7844 0.72471 0.85739 0.0
C2646 C 0.79777 0.71203 0.86017 0.0
C2647 C 0.77211 0.72747 0.87171 0.0
C2648 C 0.75812 0.74122 0.86964 0.0
C2649 C 0.73875 0.73447 0.8705 0.0
C2650 C 0.72554 0.74732 0.86809 0.0
C2651 C 0.73155 0.76696 0.86489 0.0
C2652 C 0.75079 0.77384 0.86418 0.0
C2653 C 0.76405 0.76106 0.8666 0.0
H2654 H 0.72129 0.77687 0.86298 0.0
H2655 H 0.85137 0.65411 0.88565 0.0
H2656 H 0.82473 0.10731 0.00809 0.0
H2657 H 0.85132 0.08893 0.0093 0.0
H2658 H 0.8898 0.14237 0.0045 0.0
H2659 H 0.86306 0.16076 0.00274 0.0
H2660 H 0.90042 0.11473 0.9829 0.0
H2661 H 0.88582 0.11859 0.04864 0.0
H2662 H 0.86603 0.11528 0.07583 0.0
H2663 H 0.8524 0.05304 0.06152 0.0
H2664 H 0.8719 0.05602 0.03408 0.0
H2665 H 0.98225 0.06937 0.00508 0.0
H2666 H 0.95812 0.09048 0.00699 0.0
H2667 H 0.91571 0.03966 0.00988 0.0
H2668 H 0.94037 0.01868 0.00981 0.0
H2669 H 0.90865 0.06789 0.03332 0.0
H2670 H 0.91582 0.06807 0.96188 0.0
H2671 H 0.93885 0.06936 0.93744 0.0
H2672 H 0.97023 0.12237 0.96694 0.0
H2673 H 0.94651 0.12228 0.99055 0.0
C2674 C 0.83885 0.11523 0.00742 0.0
C2675 C 0.84164 0.13563 0.00545 0.0
C2676 C 0.85417 0.10466 0.00819 0.0
C2677 C 0.87287 0.11414 0.00731 0.0
C2678 C 0.87566 0.13454 0.00526 0.0
C2679 C 0.8603 0.14512 0.00436 0.0
C2680 C 0.88934 0.10276 0.00832 0.0
C2681 C 0.90223 0.10471 0.99413 0.0
C2682 C 0.89201 0.08939 0.02276 0.0
C2683 C 0.88017 0.08756 0.03918 0.0
C2684 C 0.87847 0.10422 0.05119 0.0
C2685 C 0.86733 0.1024 0.06667 0.0
C2686 C 0.85792 0.08397 0.07037 0.0
C2687 C 0.85967 0.06732 0.05862 0.0
C2688 C 0.87078 0.06906 0.04312 0.0
C2689 C 0.96781 0.06262 0.00576 0.0
C2690 C 0.96331 0.04222 0.00683 0.0
C2691 C 0.95381 0.07477 0.00668 0.0
C2692 C 0.93467 0.06681 0.00772 0.0
C2693 C 0.9302 0.04636 0.00886 0.0
C2694 C 0.94433 0.03431 0.00863 0.0
C2695 C 0.91935 0.07962 0.00779 0.0
C2696 C 0.90673 0.07794 0.02215 0.0
C2697 C 0.917 0.09333 0.99368 0.0
C2698 C 0.92938 0.09523 0.97782 0.0
C2699 C 0.92733 0.08031 0.96275 0.0
C2700 C 0.94044 0.08091 0.94901 0.0
C2701 C 0.95585 0.09612 0.95048 0.0
C2702 C 0.95801 0.11092 0.96551 0.0
C2703 C 0.94454 0.11083 0.97884 0.0
H2704 H 0.9662 0.09637 0.94006 0.0
H2705 H 0.84931 0.08259 0.08237 0.0
H2706 H 0.30643 0.46437 0.03492 0.0
H2707 H 0.33805 0.48412 0.03974 0.0
H2708 H 0.36183 0.43359 0.05776 0.0
H2709 H 0.33034 0.41367 0.05286 0.0
H2710 H 0.37886 0.47046 0.0791 0.0
H2711 H 0.36248 0.44096 0.01358 0.0
H2712 H 0.34177 0.43355 0.98283 0.0
H2713 H 0.34625 0.49519 0.97468 0.0
H2714 H 0.36673 0.50298 0.0056 0.0
H2715 H 0.47417 0.49279 0.05495 0.0
H2716 H 0.442 0.47911 0.06115 0.0
H2717 H 0.42017 0.5249 0.03062 0.0
H2718 H 0.45212 0.53804 0.02366 0.0
H2719 H 0.40134 0.49164 0.01707 0.0
H2720 H 0.42004 0.5214 0.08146 0.0
H2721 H 0.44033 0.52881 0.11246 0.0
H2722 H 0.43168 0.46764 0.12313 0.0
H2723 H 0.41153 0.45982 0.09205 0.0
C2724 C 0.3183 0.45756 0.04034 0.0
C2725 C 0.3159 0.43739 0.04329 0.0
C2726 C 0.33635 0.46886 0.04307 0.0
C2727 C 0.35225 0.46024 0.04896 0.0
C2728 C 0.34973 0.44049 0.05324 0.0
C2729 C 0.33173 0.42912 0.0503 0.0
C2730 C 0.37161 0.47107 0.0484 0.0
C2731 C 0.38389 0.47506 0.06558 0.0
C2732 C 0.37798 0.47723 0.03076 0.0
C2733 C 0.36594 0.47256 0.01201 0.0
C2734 C 0.35892 0.45294 0.00531 0.0
C2735 C 0.34724 0.44867 0.98784 0.0
C2736 C 0.34265 0.46389 0.97684 0.0
C2737 C 0.34979 0.48342 0.98325 0.0
C2738 C 0.36143 0.48777 0.00074 0.0
C2739 C 0.46254 0.50015 0.0499 0.0
C2740 C 0.46563 0.51637 0.03866 0.0
C2741 C 0.44414 0.49236 0.05352 0.0
C2742 C 0.42858 0.50097 0.04638 0.0
C2743 C 0.43187 0.51789 0.03616 0.0
C2744 C 0.45017 0.52544 0.03224 0.0
C2745 C 0.4088 0.49142 0.04789 0.0
C2746 C 0.39639 0.48742 0.03075 0.0
C2747 C 0.40237 0.48535 0.0656 0.0
C2748 C 0.4144 0.49001 0.08434 0.0
C2749 C 0.42257 0.50951 0.09035 0.0
C2750 C 0.43403 0.51379 0.10795 0.0
C2751 C 0.43733 0.4987 0.11974 0.0
C2752 C 0.42913 0.47931 0.11397 0.0
C2753 C 0.41766 0.47495 0.09638 0.0
H2754 H 0.44621 0.50204 0.13335 0.0
H2755 H 0.3336 0.46056 0.96332 0.0
H2756 H 0.32293 0.58903 0.72977 0.0
H2757 H 0.30611 0.61729 0.73309 0.0
H2758 H 0.35795 0.65348 0.7582 0.0
H2759 H 0.37478 0.62544 0.75496 0.0
H2760 H 0.32883 0.65783 0.77963 0.0
H2761 H 0.33971 0.65893 0.71213 0.0
H2762 H 0.33833 0.64463 0.67848 0.0
H2763 H 0.27761 0.63261 0.67516 0.0
H2764 H 0.27863 0.64664 0.70884 0.0
H2765 H 0.28931 0.74702 0.78299 0.0
H2766 H 0.30919 0.72157 0.7785 0.0
H2767 H 0.26362 0.68686 0.74047 0.0
H2768 H 0.24517 0.71352 0.74276 0.0
H2769 H 0.29199 0.68289 0.72527 0.0
H2770 H 0.2803 0.67835 0.79302 0.0
H2771 H 0.28074 0.69185 0.82683 0.0
H2772 H 0.34106 0.70912 0.83015 0.0
H2773 H 0.34095 0.69578 0.79634 0.0
C2774 C 0.3308 0.60307 0.73575 0.0
C2775 C 0.35022 0.60493 0.74205 0.0
C2776 C 0.32116 0.61924 0.73765 0.0
C2777 C 0.33076 0.63758 0.74589 0.0
C2778 C 0.3502 0.63951 0.75187 0.0
C2779 C 0.35983 0.62344 0.74989 0.0
C2780 C 0.32048 0.65462 0.74886 0.0
C2781 C 0.32088 0.66343 0.76772 0.0
C2782 C 0.30987 0.6618 0.73344 0.0
C2783 C 0.30927 0.65363 0.71308 0.0
C2784 C 0.32607 0.65312 0.70426 0.0
C2785 C 0.32535 0.64509 0.68518 0.0
C2786 C 0.3079 0.63761 0.67475 0.0
C2787 C 0.29112 0.63835 0.68329 0.0
C2788 C 0.29176 0.64636 0.70236 0.0
C2789 C 0.28387 0.73419 0.77327 0.0
C2790 C 0.26606 0.73268 0.76263 0.0
C2791 C 0.29502 0.71929 0.77108 0.0
C2792 C 0.28801 0.70192 0.7592 0.0
C2793 C 0.26967 0.70007 0.74949 0.0
C2794 C 0.25898 0.7153 0.75098 0.0
C2795 C 0.29965 0.68582 0.75625 0.0
C2796 C 0.29973 0.67727 0.73731 0.0
C2797 C 0.31045 0.67868 0.77167 0.0
C2798 C 0.31059 0.68619 0.79214 0.0
C2799 C 0.29364 0.68504 0.80098 0.0
C2800 C 0.29384 0.69266 0.82013 0.0
C2801 C 0.31092 0.70136 0.83062 0.0
C2802 C 0.32785 0.70237 0.82201 0.0
C2803 C 0.32774 0.69473 0.80288 0.0
H2804 H 0.31103 0.7073 0.84543 0.0
H2805 H 0.30735 0.63121 0.66006 0.0
H2806 H 0.2458 0.62158 0.50683 0.0
H2807 H 0.2149 0.60175 0.50945 0.0
H2808 H 0.18742 0.64213 0.47616 0.0
H2809 H 0.21803 0.66214 0.47389 0.0
H2810 H 0.16993 0.63556 0.5066 0.0
H2811 H 0.19158 0.59403 0.45812 0.0
H2812 H 0.21348 0.57402 0.44426 0.0
H2813 H 0.20827 0.5362 0.491 0.0
H2814 H 0.18652 0.55616 0.50528 0.0
H2815 H 0.07738 0.5831 0.48666 0.0
H2816 H 0.10988 0.59772 0.48258 0.0
H2817 H 0.13124 0.55947 0.52317 0.0
H2818 H 0.09857 0.54474 0.52733 0.0
H2819 H 0.15228 0.56369 0.49082 0.0
H2820 H 0.13002 0.60517 0.53869 0.0
H2821 H 0.10765 0.62502 0.5519 0.0
H2822 H 0.11398 0.66303 0.50542 0.0
H2823 H 0.13618 0.64322 0.49177 0.0
C2824 C 0.2332 0.62607 0.49981 0.0
C2825 C 0.23448 0.64356 0.49022 0.0
C2826 C 0.21549 0.61467 0.5013 0.0
C2827 C 0.19868 0.62035 0.49298 0.0
C2828 C 0.20006 0.63743 0.48284 0.0
C2829 C 0.21766 0.64887 0.4815 0.0
C2830 C 0.17955 0.60931 0.49566 0.0
C2831 C 0.16608 0.61988 0.50287 0.0
C2832 C 0.17451 0.58872 0.49143 0.0
C2833 C 0.18759 0.57672 0.48288 0.0
C2834 C 0.19523 0.58155 0.46553 0.0
C2835 C 0.20759 0.5702 0.45758 0.0
C2836 C 0.21231 0.55389 0.46678 0.0
C2837 C 0.20463 0.54886 0.48391 0.0
C2838 C 0.19228 0.56018 0.49193 0.0
C2839 C 0.08899 0.57775 0.4947 0.0
C2840 C 0.08542 0.56295 0.50751 0.0
C2841 C 0.10758 0.58612 0.49234 0.0
C2842 C 0.12305 0.5799 0.50275 0.0
C2843 C 0.11955 0.56458 0.51504 0.0
C2844 C 0.10089 0.55625 0.51748 0.0
C2845 C 0.14274 0.59007 0.50137 0.0
C2846 C 0.15625 0.57936 0.49452 0.0
C2847 C 0.14787 0.61058 0.50586 0.0
C2848 C 0.13463 0.62261 0.51412 0.0
C2849 C 0.12653 0.61767 0.53121 0.0
C2850 C 0.1139 0.62893 0.53879 0.0
C2851 C 0.10936 0.64525 0.52948 0.0
C2852 C 0.11749 0.65037 0.5126 0.0
C2853 C 0.13011 0.63915 0.50494 0.0
H2854 H 0.09958 0.65394 0.53537 0.0
H2855 H 0.22188 0.54511 0.4606 0.0
H2856 H 0.67265 0.96289 0.76503 0.0
H2857 H 0.69092 0.9359 0.76338 0.0
H2858 H 0.64106 0.8948 0.77107 0.0
H2859 H 0.62277 0.92202 0.77332 0.0
H2860 H 0.66922 0.88499 0.79203 0.0
H2861 H 0.66063 0.89863 0.72609 0.0
H2862 H 0.66063 0.91791 0.69734 0.0
H2863 H 0.72092 0.93497 0.70828 0.0
H2864 H 0.72126 0.91602 0.73728 0.0
H2865 H 0.71866 0.80389 0.76807 0.0
H2866 H 0.69587 0.82697 0.76838 0.0
H2867 H 0.74151 0.87516 0.76726 0.0
H2868 H 0.76418 0.85211 0.76711 0.0
H2869 H 0.71252 0.87853 0.74116 0.0
H2870 H 0.71913 0.86368 0.80874 0.0
H2871 H 0.7172 0.84156 0.83533 0.0
H2872 H 0.65767 0.82389 0.8187 0.0
H2873 H 0.65932 0.84547 0.79169 0.0
C2874 C 0.66547 0.9481 0.76622 0.0
C2875 C 0.64615 0.94469 0.7692 0.0
C2876 C 0.67597 0.93257 0.76517 0.0
C2877 C 0.66743 0.91307 0.76678 0.0
C2878 C 0.64809 0.90961 0.76973 0.0
C2879 C 0.63758 0.92521 0.77092 0.0
C2880 C 0.67889 0.89655 0.76591 0.0
C2881 C 0.67845 0.88344 0.7807 0.0
C2882 C 0.69109 0.89432 0.75123 0.0
C2883 C 0.69094 0.90604 0.73399 0.0
C2884 C 0.67387 0.90665 0.72248 0.0
C2885 C 0.67382 0.91749 0.70611 0.0
C2886 C 0.69076 0.9277 0.70101 0.0
C2887 C 0.7078 0.92708 0.71227 0.0
C2888 C 0.70794 0.91627 0.72867 0.0
C2889 C 0.72388 0.81936 0.7684 0.0
C2890 C 0.74332 0.82605 0.76797 0.0
C2891 C 0.7108 0.83263 0.76842 0.0
C2892 C 0.7169 0.85296 0.76802 0.0
C2893 C 0.73634 0.85962 0.7676 0.0
C2894 C 0.74933 0.84638 0.76761 0.0
C2895 C 0.70323 0.86742 0.76754 0.0
C2896 C 0.70322 0.88009 0.75244 0.0
C2897 C 0.69037 0.86893 0.7817 0.0
C2898 C 0.68941 0.85602 0.79802 0.0
C2899 C 0.70567 0.85491 0.81061 0.0
C2900 C 0.70462 0.84245 0.82576 0.0
C2901 C 0.68734 0.83121 0.82862 0.0
C2902 C 0.67106 0.83247 0.81638 0.0
C2903 C 0.67205 0.84481 0.80114 0.0
H2904 H 0.68654 0.82158 0.84036 0.0
H2905 H 0.69069 0.93605 0.68831 0.0
H2906 H 0.7303 0.98802 0.53406 0.0
H2907 H 0.7037 0.00523 0.52462 0.0
H2908 H 0.66695 0.9495 0.51216 0.0
H2909 H 0.69329 0.93234 0.52128 0.0
H2910 H 0.66391 0.97248 0.48261 0.0
H2911 H 0.66456 0.97944 0.5526 0.0
H2912 H 0.67893 0.98992 0.58596 0.0
H2913 H 0.689 0.04986 0.57122 0.0
H2914 H 0.67489 0.03968 0.53767 0.0
H2915 H 0.56954 0.98466 0.48672 0.0
H2916 H 0.60191 0.97768 0.48956 0.0
H2917 H 0.62332 0.03984 0.49572 0.0
H2918 H 0.59064 0.04692 0.49292 0.0
H2919 H 0.63826 0.02024 0.52501 0.0
H2920 H 0.63154 0.01286 0.45612 0.0
H2921 H 0.61571 1.00147 0.42351 0.0
H2922 H 0.61608 0.94149 0.43645 0.0
H2923 H 0.63166 0.95248 0.46925 0.0
C2924 C 0.71646 0.97949 0.52959 0.0
C2925 C 0.71389 0.95884 0.52834 0.0
C2926 C 0.70131 0.98933 0.52416 0.0
C2927 C 0.68337 0.97862 0.51755 0.0
C2928 C 0.68071 0.95805 0.517 0.0
C2929 C 0.69577 0.94826 0.52234 0.0
C2930 C 0.66732 0.98853 0.51062 0.0
C2931 C 0.65826 0.9829 0.49189 0.0
C2932 C 0.6604 1.00267 0.52245 0.0
C2933 C 0.66892 0.00877 0.54258 0.0
C2934 C 0.67001 0.99483 0.55642 0.0
C2935 C 0.67806 1.00072 0.57537 0.0
C2936 C 0.68494 0.02053 0.58068 0.0
C2937 C 0.68371 0.03451 0.56707 0.0
C2938 C 0.67568 0.02869 0.54809 0.0
C2939 C 0.58114 0.99685 0.48816 0.0
C2940 C 0.57766 0.01631 0.48959 0.0
C2941 C 0.59965 0.99285 0.48974 0.0
C2942 C 0.61505 0.00824 0.49278 0.0
C2943 C 0.61162 0.02777 0.49333 0.0
C2944 C 0.593 0.03179 0.49158 0.0
C2945 C 0.63442 0.00359 0.49726 0.0
C2946 C 0.64415 0.01021 0.51552 0.0
C2947 C 0.64191 0.99024 0.48503 0.0
C2948 C 0.63273 0.98352 0.4652 0.0
C2949 C 0.62816 0.99723 0.45206 0.0
C2950 C 0.61924 0.99084 0.43353 0.0
C2951 C 0.61488 0.97077 0.42791 0.0
C2952 C 0.61948 0.95704 0.44081 0.0
C2953 C 0.62839 0.96334 0.45937 0.0
H2954 H 0.60796 0.96585 0.41357 0.0
H2955 H 0.69116 0.02506 0.59536 0.0
H2956 H 0.33482 0.50602 0.73565 0.0
H2957 H 0.31474 0.47377 0.73492 0.0
H2958 H 0.36276 0.44896 0.75864 0.0
H2959 H 0.38278 0.48065 0.75908 0.0
H2960 H 0.34419 0.42452 0.7313 0.0
H2961 H 0.32767 0.46132 0.78661 0.0
H2962 H 0.31634 0.48897 0.80368 0.0
H2963 H 0.26307 0.47597 0.76822 0.0
H2964 H 0.27419 0.44838 0.75077 0.0
H2965 H 0.28061 0.35116 0.78657 0.0
H2966 H 0.29505 0.38477 0.78242 0.0
H2967 H 0.29054 0.37154 0.7205 0.0
H2968 H 0.27641 0.33769 0.72454 0.0
H2969 H 0.28579 0.41529 0.7649 0.0
H2970 H 0.32942 0.39614 0.70246 0.0
H2971 H 0.34319 0.3681 0.68928 0.0
H2972 H 0.34633 0.34517 0.74541 0.0
H2973 H 0.33285 0.37321 0.75897 0.0
C2974 C 0.3411 0.49368 0.74065 0.0
C2975 C 0.36049 0.49607 0.74741 0.0
C2976 C 0.32958 0.47523 0.74029 0.0
C2977 C 0.33717 0.45884 0.74683 0.0
C2978 C 0.35651 0.46124 0.75341 0.0
C2979 C 0.36797 0.47953 0.75371 0.0
C2980 C 0.32521 0.43914 0.74714 0.0
C2981 C 0.33132 0.42258 0.7385 0.0
C2982 C 0.30854 0.43639 0.75678 0.0
C2983 C 0.30184 0.45295 0.76724 0.0
C2984 C 0.3136 0.46446 0.78235 0.0
C2985 C 0.3072 0.4801 0.79211 0.0
C2986 C 0.28902 0.48426 0.78699 0.0
C2987 C 0.27717 0.47276 0.77214 0.0
C2988 C 0.28351 0.45711 0.76231 0.0
C2989 C 0.28249 0.35537 0.77201 0.0
C2990 C 0.27746 0.34154 0.7559 0.0
C2991 C 0.29073 0.3747 0.76966 0.0
C2992 C 0.29419 0.38072 0.75118 0.0
C2993 C 0.28835 0.36722 0.73497 0.0
C2994 C 0.28017 0.34784 0.7373 0.0
C2995 C 0.30482 0.40072 0.74909 0.0
C2996 C 0.29847 0.4173 0.75741 0.0
C2997 C 0.32158 0.40347 0.7396 0.0
C2998 C 0.3299 0.38665 0.73165 0.0
C2999 C 0.3331 0.38513 0.71199 0.0
C3000 C 0.34086 0.36924 0.70445 0.0
C3001 C 0.34557 0.35482 0.71648 0.0
C3002 C 0.34261 0.35631 0.73609 0.0
C3003 C 0.33489 0.37219 0.7437 0.0
H3004 H 0.35156 0.34252 0.71062 0.0
H3005 H 0.28409 0.49637 0.79457 0.0
H3006 H 0.11822 0.57705 0.29049 0.0
H3007 H 0.13972 0.60689 0.28571 0.0
H3008 H 0.18551 0.57352 0.28178 0.0
H3009 H 0.16399 0.54334 0.28637 0.0
H3010 H 0.19493 0.61501 0.3034 0.0
H3011 H 0.16761 0.57959 0.24227 0.0
H3012 H 0.14104 0.56192 0.21976 0.0
H3013 H 0.11353 0.61299 0.22099 0.0
H3014 H 0.1398 0.63086 0.24378 0.0
H3015 H 0.24964 0.68759 0.25201 0.0
H3016 H 0.23236 0.65421 0.2545 0.0
H3017 H 0.18152 0.67845 0.26283 0.0
H3018 H 0.19863 0.71154 0.26072 0.0
H3019 H 0.17766 0.64008 0.23966 0.0
H3020 H 0.20691 0.68063 0.29673 0.0
H3021 H 0.23677 0.70386 0.31724 0.0
H3022 H 0.26341 0.63173 0.32581 0.0
H3023 H 0.23092 0.6193 0.30286 0.0
C3024 C 0.13292 0.57599 0.28896 0.0
C3025 C 0.13926 0.55765 0.28861 0.0
C3026 C 0.14523 0.59314 0.28631 0.0
C3027 C 0.16422 0.59245 0.2834 0.0
C3028 C 0.17094 0.57441 0.28415 0.0
C3029 C 0.15856 0.55715 0.28661 0.0
C3030 C 0.17606 0.61001 0.27697 0.0
C3031 C 0.19144 0.62039 0.28938 0.0
C3032 C 0.17127 0.6171 0.25876 0.0
C3033 C 0.15557 0.60648 0.24487 0.0
C3034 C 0.15581 0.58699 0.23787 0.0
C3035 C 0.14083 0.57695 0.22504 0.0
C3036 C 0.12558 0.58631 0.21898 0.0
C3037 C 0.12533 0.60575 0.22571 0.0
C3038 C 0.14027 0.61584 0.23857 0.0
C3039 C 0.23474 0.68567 0.25415 0.0
C3040 C 0.22556 0.70204 0.25687 0.0
C3041 C 0.22494 0.6667 0.25563 0.0
C3042 C 0.20597 0.66407 0.25979 0.0
C3043 C 0.19628 0.68024 0.26007 0.0
C3044 C 0.20612 0.69913 0.2591 0.0
C3045 C 0.19661 0.64515 0.26596 0.0
C3046 C 0.18149 0.63461 0.25358 0.0
C3047 C 0.20172 0.63811 0.28426 0.0
C3048 C 0.21766 0.64884 0.29811 0.0
C3049 C 0.21864 0.67371 0.30205 0.0
C3050 C 0.23727 0.68814 0.31561 0.0
C3051 C 0.26195 0.66673 0.32903 0.0
C3052 C 0.25464 0.64246 0.32147 0.0
C3053 C 0.23391 0.63487 0.30713 0.0
H3054 H 0.27541 0.67047 0.33821 0.0
H3055 H 0.114 0.57851 0.20904 0.0
H3056 H 0.53531 0.75516 0.43315 0.0
H3057 H 0.53666 0.72311 0.44545 0.0
H3058 H 0.52217 0.69556 0.38747 0.0
H3059 H 0.52071 0.728 0.37496 0.0
H3060 H 0.49904 0.67912 0.41284 0.0
H3061 H 0.56562 0.69421 0.41141 0.0
H3062 H 0.59732 0.71436 0.41691 0.0
H3063 H 0.59408 0.71655 0.47842 0.0
H3064 H 0.56224 0.69665 0.4733 0.0
H3065 H 0.50396 0.58614 0.45296 0.0
H3066 H 0.50728 0.6147 0.4338 0.0
H3067 H 0.52753 0.65222 0.48579 0.0
H3068 H 0.52505 0.62335 0.50493 0.0
H3069 H 0.54951 0.66118 0.4589 0.0
H3070 H 0.47765 0.6632 0.45439 0.0
H3071 H 0.44405 0.64801 0.44746 0.0
H3072 H 0.45752 0.61469 0.3978 0.0
H3073 H 0.49106 0.63023 0.40413 0.0
C3074 C 0.53279 0.74234 0.42291 0.0
C3075 C 0.52781 0.74411 0.40308 0.0
C3076 C 0.53368 0.72398 0.42997 0.0
C3077 C 0.52962 0.70686 0.41742 0.0
C3078 C 0.52543 0.70859 0.39743 0.0
C3079 C 0.52472 0.72711 0.39027 0.0
C3080 C 0.52783 0.68733 0.42569 0.0
C3081 C 0.51027 0.67498 0.42255 0.0
C3082 C 0.54225 0.68209 0.43877 0.0
C3083 C 0.56147 0.694 0.44195 0.0
C3084 C 0.5716 0.69909 0.42611 0.0
C3085 C 0.58962 0.71046 0.42916 0.0
C3086 C 0.5977 0.71675 0.448 0.0
C3087 C 0.5878 0.71166 0.46384 0.0
C3088 C 0.56978 0.70031 0.46087 0.0
C3089 C 0.50892 0.60052 0.46035 0.0
C3090 C 0.51424 0.60252 0.48046 0.0
C3091 C 0.51059 0.61693 0.44937 0.0
C3092 C 0.51726 0.63583 0.45828 0.0
C3093 C 0.52226 0.63786 0.4785 0.0
C3094 C 0.52084 0.62137 0.48946 0.0
C3095 C 0.5205 0.65322 0.44648 0.0
C3096 C 0.53839 0.66517 0.44897 0.0
C3097 C 0.50639 0.65816 0.43281 0.0
C3098 C 0.48684 0.64739 0.43004 0.0
C3099 C 0.47343 0.65246 0.44214 0.0
C3100 C 0.45437 0.64402 0.43815 0.0
C3101 C 0.44867 0.63031 0.42226 0.0
C3102 C 0.46197 0.62521 0.41018 0.0
C3103 C 0.48097 0.6339 0.41389 0.0
H3104 H 0.43394 0.62366 0.41932 0.0
H3105 H 0.61165 0.72555 0.45033 0.0
H3106 H 0.56702 0.30197 0.65394 0.0
H3107 H 0.59743 0.3046 0.6734 0.0
H3108 H 0.57272 0.26231 0.71078 0.0
H3109 H 0.54183 0.26015 0.69158 0.0
H3110 H 0.59737 0.28858 0.73206 0.0
H3111 H 0.59975 0.25025 0.67336 0.0
H3112 H 0.59764 0.24118 0.63825 0.0
H3113 H 0.64087 0.28993 0.63178 0.0
H3114 H 0.64295 0.29956 0.66677 0.0
H3115 H 0.68952 0.261 0.76196 0.0
H3116 H 0.65674 0.26128 0.74864 0.0
H3117 H 0.67444 0.31496 0.72215 0.0
H3118 H 0.70726 0.31497 0.73563 0.0
H3119 H 0.65297 0.28121 0.69658 0.0
H3120 H 0.64985 0.31906 0.7568 0.0
H3121 H 0.65301 0.32477 0.79243 0.0
H3122 H 0.61245 0.27297 0.79619 0.0
H3123 H 0.60925 0.26678 0.76057 0.0
C3124 C 0.56796 0.2933 0.66638 0.0
C3125 C 0.55197 0.28067 0.67104 0.0
C3126 C 0.58546 0.29475 0.67748 0.0
C3127 C 0.58766 0.28325 0.69332 0.0
C3128 C 0.57152 0.27124 0.69857 0.0
C3129 C 0.55383 0.27001 0.68758 0.0
C3130 C 0.60689 0.2835 0.70389 0.0
C3131 C 0.60948 0.28681 0.72425 0.0
C3132 C 0.6229 0.28124 0.69387 0.0
C3133 C 0.6213 0.27579 0.67269 0.0
C3134 C 0.60862 0.2592 0.66442 0.0
C3135 C 0.60746 0.25393 0.64453 0.0
C3136 C 0.61905 0.26502 0.63277 0.0
C3137 C 0.63183 0.2814 0.64088 0.0
C3138 C 0.63299 0.28679 0.66074 0.0
C3139 C 0.68642 0.27306 0.75355 0.0
C3140 C 0.70108 0.288 0.74991 0.0
C3141 C 0.66763 0.27321 0.746 0.0
C3142 C 0.66309 0.28815 0.73442 0.0
C3143 C 0.67759 0.30334 0.73114 0.0
C3144 C 0.69635 0.30336 0.73892 0.0
C3145 C 0.64358 0.28708 0.72447 0.0
C3146 C 0.64092 0.28331 0.70427 0.0
C3147 C 0.6276 0.28859 0.73464 0.0
C3148 C 0.62946 0.29234 0.75603 0.0
C3149 C 0.64174 0.30877 0.76523 0.0
C3150 C 0.64351 0.31213 0.78542 0.0
C3151 C 0.63298 0.29921 0.79657 0.0
C3152 C 0.62062 0.28295 0.78754 0.0
C3153 C 0.61881 0.27952 0.76735 0.0
H3154 H 0.63437 0.30184 0.8122 0.0
H3155 H 0.61817 0.26088 0.61739 0.0
H3156 H 0.03582 0.36947 0.87361 0.0
H3157 H 0.03299 0.4002 0.89219 0.0
H3158 H 0.00437 0.36667 0.93432 0.0
H3159 H 0.00785 0.33627 0.91638 0.0
H3160 H 0.00708 0.41908 0.90347 0.0
H3161 H 0.01594 0.38588 0.97921 0.0
H3162 H 0.03403 0.36235 0.99476 0.0
H3163 H 0.07407 0.36993 0.95247 0.0
H3164 H 0.05637 0.39369 0.93683 0.0
H3165 H 0.97254 0.48051 0.97138 0.0
H3166 H 0.97963 0.45378 0.95004 0.0
H3167 H 0.03402 0.45656 0.98332 0.0
H3168 H 0.02548 0.48112 0.00624 0.0
H3169 H 0.02432 0.42268 0.97458 0.0
H3170 H 0.02538 0.47515 0.93439 0.0
H3171 H 0.01447 0.50303 0.91852 0.0
H3172 H 0.96706 0.46418 0.88826 0.0
H3173 H 0.97746 0.4361 0.90422 0.0
C3174 C 0.02882 0.36874 0.88677 0.0
C3175 C 0.02226 0.35045 0.89364 0.0
C3176 C 0.0272 0.3863 0.89739 0.0
C3177 C 0.01887 0.38584 0.91498 0.0
C3178 C 0.01138 0.36752 0.92116 0.0
C3179 C 0.01327 0.35009 0.91079 0.0
C3180 C 0.01826 0.40424 0.92728 0.0
C3181 C 0.0109 0.41993 0.91901 0.0
C3182 C 0.02411 0.40591 0.94746 0.0
C3183 C 0.03468 0.39142 0.95671 0.0
C3184 C 0.02861 0.38256 0.97324 0.0
C3185 C 0.03881 0.36917 0.98208 0.0
C3186 C 0.05515 0.3646 0.97457 0.0
C3187 C 0.06135 0.37341 0.95822 0.0
C3188 C 0.05121 0.38679 0.94933 0.0
C3189 C 0.98597 0.47533 0.97417 0.0
C3190 C 0.9989 0.48359 0.99001 0.0
C3191 C 0.99019 0.46022 0.96172 0.0
C3192 C 0.00776 0.45349 0.96438 0.0
C3193 C 0.02049 0.46154 0.98054 0.0
C3194 C 0.01589 0.47606 0.99343 0.0
C3195 C 0.01239 0.4374 0.95099 0.0
C3196 C 0.02058 0.42208 0.95904 0.0
C3197 C 0.00837 0.43672 0.9305 0.0
C3198 C 1.00214 0.45351 0.92063 0.0
C3199 C 0.01256 0.47256 0.92444 0.0
C3200 C 0.00647 0.4884 0.91543 0.0
C3201 C 0.99007 0.48538 0.90242 0.0
C3202 C 0.97975 0.4665 0.89836 0.0
C3203 C 0.98575 0.4506 0.90737 0.0
H3204 H 0.98539 0.49766 0.89545 0.0
H3205 H 0.06303 0.35425 0.98144 0.0
H3206 H 0.92571 0.76638 0.15513 0.0
H3207 H 0.89684 0.76594 0.17131 0.0
H3208 H 0.9295 0.76755 0.22689 0.0
H3209 H 0.95846 0.76756 0.21068 0.0
H3210 H 0.89686 0.74346 0.22679 0.0
H3211 H 0.91426 0.80941 0.20825 0.0
H3212 H 0.92226 0.83479 0.18554 0.0
H3213 H 0.86815 0.81695 0.15244 0.0
H3214 H 0.85995 0.79131 0.17485 0.0
H3215 H 0.83159 0.77689 0.28705 0.0
H3216 H 0.85879 0.77301 0.26916 0.0
H3217 H 0.82366 0.77176 0.21508 0.0
H3218 H 0.79654 0.77622 0.23308 0.0
H3219 H 0.85657 0.79446 0.2133 0.0
H3220 H 0.83841 0.72953 0.2319 0.0
H3221 H 0.82987 0.70392 0.25421 0.0
H3222 H 0.88462 0.71924 0.28657 0.0
H3223 H 0.8934 0.74515 0.26461 0.0
C3224 C 0.92677 0.76645 0.17079 0.0
C3225 C 0.94449 0.76708 0.18157 0.0
C3226 C 0.9102 0.76634 0.18007 0.0
C3227 C 0.9109 0.76713 0.20043 0.0
C3228 C 0.92849 0.76704 0.21119 0.0
C3229 C 0.94509 0.76704 0.20189 0.0
C3230 C 0.89341 0.76844 0.21046 0.0
C3231 C 0.88821 0.75478 0.224 0.0
C3232 C 0.88166 0.78282 0.20651 0.0
C3233 C 0.88657 0.7983 0.1931 0.0
C3234 C 0.90413 0.81081 0.19605 0.0
C3235 C 0.90869 0.82526 0.18325 0.0
C3236 C 0.89575 0.82745 0.16752 0.0
C3237 C 0.87818 0.81522 0.1646 0.0
C3238 C 0.87357 0.80074 0.17735 0.0
C3239 C 0.82963 0.77564 0.27135 0.0
C3240 C 0.8118 0.7765 0.26148 0.0
C3241 C 0.8452 0.77332 0.26109 0.0
C3242 C 0.84334 0.77174 0.24068 0.0
C3243 C 0.82553 0.77278 0.2308 0.0
C3244 C 0.80994 0.77511 0.24109 0.0
C3245 C 0.86011 0.76959 0.22976 0.0
C3246 C 0.86518 0.78309 0.21606 0.0
C3247 C 0.87169 0.75502 0.2335 0.0
C3248 C 0.8665 0.73941 0.24671 0.0
C3249 C 0.84858 0.72754 0.24386 0.0
C3250 C 0.8437 0.71296 0.25643 0.0
C3251 C 0.85667 0.70999 0.27183 0.0
C3252 C 0.87457 0.72157 0.27465 0.0
C3253 C 0.87952 0.7362 0.26213 0.0
H3254 H 0.85287 0.69869 0.28154 0.0
H3255 H 0.89931 0.83864 0.15763 0.0
H3256 H 0.48944 0.3563 0.12903 0.0
H3257 H 0.49274 0.38759 0.1136 0.0
H3258 H 0.503 0.35755 0.06021 0.0
H3259 H 0.49938 0.3265 0.07524 0.0
H3260 H 0.52132 0.40777 0.097 0.0
H3261 H 0.48255 0.37701 0.02207 0.0
H3262 H 0.45703 0.35037 0.00842 0.0
H3263 H 0.43257 0.35046 0.06258 0.0
H3264 H 0.45778 0.37727 0.07646 0.0
H3265 H 0.53982 0.47797 0.02644 0.0
H3266 H 0.5372 0.45004 0.04682 0.0
H3267 H 0.4763 0.44692 0.04131 0.0
H3268 H 0.47893 0.47339 0.01966 0.0
H3269 H 0.48196 0.4134 0.03569 0.0
H3270 H 0.51003 0.46315 0.08788 0.0
H3271 H 0.53347 0.48799 0.1078 0.0
H3272 H 0.57611 0.45105 0.10284 0.0
H3273 H 0.55292 0.42596 0.08307 0.0
C3274 C 0.4925 0.35647 0.11405 0.0
C3275 C 0.494 0.33899 0.10329 0.0
C3276 C 0.49436 0.37428 0.10526 0.0
C3277 C 0.49773 0.37475 0.08566 0.0
C3278 C 0.49995 0.35742 0.0752 0.0
C3279 C 0.49798 0.33969 0.08388 0.0
C3280 C 0.49897 0.39331 0.07598 0.0
C3281 C 0.51265 0.40915 0.08364 0.0
C3282 C 0.48755 0.395 0.05865 0.0
C3283 C 0.47216 0.37904 0.05035 0.0
C3284 C 0.47168 0.37141 0.03104 0.0
C3285 C 0.45727 0.35626 0.02326 0.0
C3286 C 0.44322 0.34869 0.03464 0.0
C3287 C 0.4435 0.35629 0.0538 0.0
C3288 C 0.45786 0.37144 0.06163 0.0
C3289 C 0.52595 0.47121 0.02968 0.0
C3290 C 0.50957 0.4775 0.02134 0.0
C3291 C 0.52443 0.45544 0.04154 0.0
C3292 C 0.50652 0.44633 0.04581 0.0
C3293 C 0.49027 0.45341 0.0381 0.0
C3294 C 0.49176 0.46856 0.02571 0.0
C3295 C 0.5043 0.4284 0.0568 0.0
C3296 C 0.49054 0.41237 0.04918 0.0
C3297 C 0.51546 0.42668 0.07435 0.0
C3298 C 0.52981 0.44279 0.08393 0.0
C3299 C 0.5245 0.46052 0.09075 0.0
C3300 C 0.53771 0.47457 0.1021 0.0
C3301 C 0.55623 0.47102 0.10658 0.0
C3302 C 0.56174 0.45371 0.09937 0.0
C3303 C 0.54859 0.43958 0.08814 0.0
H3304 H 0.5663 0.48147 0.11585 0.0
H3305 H 0.43209 0.33696 0.0286 0.0
H3306 H 0.98641 0.28946 0.36392 0.0
H3307 H 0.95693 0.28909 0.34322 0.0
H3308 H 0.92553 0.2844 0.39321 0.0
H3309 H 0.95511 0.28501 0.41421 0.0
H3310 H 0.9114 0.2562 0.35987 0.0
H3311 H 0.93088 0.32595 0.37588 0.0
H3312 H 0.95354 0.35685 0.37846 0.0
H3313 H 0.95698 0.35154 0.317 0.0
H3314 H 0.93454 0.32042 0.3141 0.0
H3315 H 0.82213 0.27288 0.3222 0.0
H3316 H 0.85271 0.27375 0.34081 0.0
H3317 H 0.88109 0.2922 0.29126 0.0
H3318 H 0.85018 0.29213 0.27269 0.0
H3319 H 0.89797 0.31267 0.3228 0.0
H3320 H 0.87836 0.2446 0.30536 0.0
H3321 H 0.85613 0.21341 0.30125 0.0
H3322 H 0.85433 0.21391 0.36292 0.0
H3323 H 0.87628 0.24536 0.36739 0.0
C3324 C 0.97325 0.28841 0.37056 0.0
C3325 C 0.97305 0.28723 0.39071 0.0
C3326 C 0.95646 0.28826 0.3587 0.0
C3327 C 0.93914 0.28674 0.36673 0.0
C3328 C 0.93882 0.28558 0.38681 0.0
C3329 C 0.9557 0.28603 0.39877 0.0
C3330 C 0.92135 0.28603 0.35401 0.0
C3331 C 0.90828 0.26859 0.35195 0.0
C3332 C 0.91782 0.30197 0.3431 0.0
C3333 C 0.93118 0.32075 0.34481 0.0
C3334 C 0.9366 0.33128 0.36294 0.0
C3335 C 0.94937 0.34885 0.36446 0.0
C3336 C 0.95674 0.35613 0.34791 0.0
C3337 C 0.95129 0.34587 0.3298 0.0
C3338 C 0.93853 0.32828 0.32821 0.0
C3339 C 0.83487 0.27702 0.31521 0.0
C3340 C 0.83386 0.28232 0.29599 0.0
C3341 C 0.85236 0.27743 0.32584 0.0
C3342 C 0.86921 0.28266 0.31733 0.0
C3343 C 0.86825 0.28802 0.29808 0.0
C3344 C 0.85065 0.2879 0.28748 0.0
C3345 C 0.88772 0.28288 0.32883 0.0
C3346 C 0.90103 0.30019 0.33063 0.0
C3347 C 0.89164 0.26667 0.33924 0.0
C3348 C 0.87886 0.24744 0.33669 0.0
C3349 C 0.87316 0.23812 0.31805 0.0
C3350 C 0.86061 0.22038 0.31565 0.0
C3351 C 0.85378 0.2117 0.33181 0.0
C3352 C 0.85961 0.22067 0.35041 0.0
C3353 C 0.87212 0.23845 0.35289 0.0
H3354 H 0.84397 0.19803 0.32993 0.0
H3355 H 0.96663 0.36973 0.34911 0.0
H3356 H 0.97526 0.73718 0.59875 0.0
H3357 H 0.96835 0.70255 0.58631 0.0
H3358 H 0.01317 0.71267 0.54897 0.0
H3359 H 0.01974 0.74708 0.56082 0.0
H3360 H 0.98356 0.69233 0.52932 0.0
H3361 H 0.01716 0.68988 0.59237 0.0
H3362 H 0.02354 0.69366 0.62801 0.0
H3363 H 0.971 0.65631 0.63328 0.0
H3364 H 0.96414 0.65258 0.59765 0.0
H3365 H 0.01824 0.60413 0.5117 0.0
H3366 H 0.01161 0.63659 0.52191 0.0
H3367 H 0.96143 0.6101 0.54602 0.0
H3368 H 0.96801 0.57743 0.53596 0.0
H3369 H 0.98453 0.63715 0.57158 0.0
H3370 H 0.95586 0.63508 0.50711 0.0
H3371 H 0.95308 0.62939 0.47149 0.0
H3372 H 1.00133 0.67394 0.46906 0.0
H3373 H 0.00459 0.67972 0.50469 0.0
C3374 C 0.98366 0.73196 0.58794 0.0
C3375 C 0.99798 0.74488 0.5807 0.0
C3376 C 0.97971 0.71218 0.58087 0.0
C3377 C 0.99025 0.70502 0.5667 0.0
C3378 C 0.00471 0.71789 0.55973 0.0
C3379 C 0.00849 0.73758 0.56658 0.0
C3380 C 0.98643 0.68421 0.55884 0.0
C3381 C 0.98397 0.68026 0.53859 0.0
C3382 C 0.98621 0.66838 0.57091 0.0
C3383 C 0.98994 0.6713 0.59234 0.0
C3384 C 0.00681 0.68274 0.60112 0.0
C3385 C 0.01055 0.68481 0.62133 0.0
C3386 C 0.99763 0.67533 0.6329 0.0
C3387 C 0.98094 0.66374 0.6243 0.0
C3388 C 0.97711 0.66168 0.6041 0.0
C3389 C 0.00566 0.60517 0.51896 0.0
C3390 C 0.99365 0.5882 0.52299 0.0
C3391 C 1.00181 0.62374 0.52467 0.0
C3392 C 0.9859 0.62572 0.5345 0.0
C3393 C 0.97367 0.60885 0.53827 0.0
C3394 C 0.97746 0.59022 0.53247 0.0
C3395 C 0.98315 0.64543 0.54219 0.0
C3396 C 0.98404 0.64916 0.56235 0.0
C3397 C 0.98249 0.66108 0.53009 0.0
C3398 C 0.98051 0.65777 0.50861 0.0
C3399 C 0.96596 0.64358 0.499 0.0
C3400 C 0.96428 0.64035 0.4788 0.0
C3401 C 0.97703 0.65128 0.46802 0.0
C3402 C 0.99146 0.66549 0.47742 0.0
C3403 C 0.9932 0.66878 0.49762 0.0
H3404 H 0.97572 0.64875 0.45238 0.0
H3405 H 1.00058 0.67689 0.64854 0.0
H3406 H 0.58787 0.77524 0.89236 0.0
H3407 H 0.61059 0.77291 0.8685 0.0
H3408 H 0.56497 0.74875 0.82482 0.0
H3409 H 0.54211 0.75092 0.84864 0.0
H3410 H 0.5969 0.73016 0.82323 0.0
H3411 H 0.58178 0.79543 0.8251 0.0
H3412 H 0.57739 0.82741 0.84031 0.0
H3413 H 0.63607 0.83874 0.86283 0.0
H3414 H 0.64074 0.80667 0.84808 0.0
H3415 H 0.66598 0.74926 0.75303 0.0
H3416 H 0.6362 0.74792 0.76842 0.0
H3417 H 0.66783 0.77479 0.82172 0.0
H3418 H 0.6971 0.77627 0.80663 0.0
H3419 H 0.63778 0.79225 0.81212 0.0
H3420 H 0.65175 0.72549 0.81548 0.0
H3421 H 0.65691 0.69338 0.8012 0.0
H3422 H 0.60161 0.68512 0.76964 0.0
H3423 H 0.59623 0.71732 0.78357 0.0
C3424 C 0.58268 0.76921 0.87775 0.0
C3425 C 0.56322 0.76342 0.87232 0.0
C3426 C 0.59566 0.76796 0.86413 0.0
C3427 C 0.58937 0.76096 0.84486 0.0
C3428 C 0.57005 0.75428 0.83961 0.0
C3429 C 0.55704 0.75557 0.85322 0.0
C3430 C 0.60299 0.76147 0.83012 0.0
C3431 C 0.60566 0.74377 0.82053 0.0
C3432 C 0.61436 0.77925 0.82664 0.0
C3433 C 0.61157 0.79856 0.83558 0.0
C3434 C 0.59371 0.80466 0.83343 0.0
C3435 C 0.59118 0.82282 0.84196 0.0
C3436 C 0.60643 0.83508 0.85256 0.0
C3437 C 0.62426 0.82922 0.85464 0.0
C3438 C 0.62686 0.81105 0.84619 0.0
C3439 C 0.66643 0.75482 0.76802 0.0
C3440 C 0.68375 0.76282 0.77867 0.0
C3441 C 0.64951 0.75401 0.77678 0.0
C3442 C 0.64987 0.76123 0.79621 0.0
C3443 C 0.66722 0.76921 0.8067 0.0
C3444 C 0.68395 0.76997 0.79805 0.0
C3445 C 0.63243 0.76087 0.80606 0.0
C3446 C 0.62887 0.77868 0.8146 0.0
C3447 C 0.62044 0.74321 0.8087 0.0
C3448 C 0.62369 0.7239 0.80035 0.0
C3449 C 0.64077 0.71689 0.80536 0.0
C3450 C 0.64372 0.69867 0.79736 0.0
C3451 C 0.62963 0.68724 0.78446 0.0
C3452 C 0.61253 0.694 0.77959 0.0
C3453 C 0.60952 0.71223 0.78753 0.0
H3454 H 0.63193 0.67313 0.77829 0.0
H3455 H 0.60444 0.84914 0.85914 0.0
H3456 H 0.43884 0.56813 0.70774 0.0
H3457 H 0.45033 0.57278 0.67644 0.0
H3458 H 0.39295 0.56865 0.64994 0.0
H3459 H 0.3811 0.56341 0.68176 0.0
H3460 H 0.41144 0.54636 0.62918 0.0
H3461 H 0.42428 0.61265 0.65227 0.0
H3462 H 0.43486 0.64166 0.67531 0.0
H3463 H 0.49201 0.62977 0.67799 0.0
H3464 H 0.48176 0.60051 0.6552 0.0
H3465 H 0.48353 0.58102 0.55512 0.0
H3466 H 0.46323 0.5899 0.57975 0.0
H3467 H 0.46695 0.53513 0.60542 0.0
H3468 H 0.48724 0.52621 0.58122 0.0
H3469 H 0.46832 0.5943 0.62017 0.0
H3470 H 0.42409 0.51557 0.61581 0.0
H3471 H 0.41156 0.48878 0.5907 0.0
H3472 H 0.4129 0.5302 0.54697 0.0
H3473 H 0.42532 0.55725 0.57177 0.0
C3474 C 0.42854 0.56839 0.69537 0.0
C3475 C 0.40897 0.56522 0.69731 0.0
C3476 C 0.43521 0.57129 0.6774 0.0
C3477 C 0.42259 0.57136 0.66075 0.0
C3478 C 0.403 0.56877 0.6626 0.0
C3479 C 0.39623 0.56587 0.68078 0.0
C3480 C 0.43023 0.57238 0.64149 0.0
C3481 C 0.42369 0.55703 0.62713 0.0
C3482 C 0.44586 0.58666 0.63835 0.0
C3483 C 0.45221 0.60432 0.65202 0.0
C3484 C 0.43909 0.61615 0.65785 0.0
C3485 C 0.44504 0.63265 0.67086 0.0
C3486 C 0.4641 0.63755 0.67811 0.0
C3487 C 0.47726 0.62597 0.67234 0.0
C3488 C 0.47139 0.60944 0.65934 0.0
C3489 C 0.4803 0.571 0.56621 0.0
C3490 C 0.48711 0.55288 0.56614 0.0
C3491 C 0.4686 0.57608 0.58021 0.0
C3492 C 0.4633 0.56303 0.59422 0.0
C3493 C 0.47058 0.54528 0.59454 0.0
C3494 C 0.48233 0.54027 0.58072 0.0
C3495 C 0.45024 0.56762 0.60869 0.0
C3496 C 0.45578 0.58397 0.62208 0.0
C3497 C 0.43337 0.55464 0.61064 0.0
C3498 C 0.42574 0.53842 0.59567 0.0
C3499 C 0.42164 0.51897 0.60085 0.0
C3500 C 0.4146 0.50374 0.58665 0.0
C3501 C 0.41151 0.50778 0.56724 0.0
C3502 C 0.41542 0.52708 0.56198 0.0
C3503 C 0.42249 0.54236 0.5761 0.0
H3504 H 0.40605 0.49597 0.55628 0.0
H3505 H 0.46867 0.65033 0.68819 0.0
H3506 H 0.7833 0.21254 0.96598 0.0
H3507 H 0.77638 0.22892 0.93647 0.0
H3508 H 0.79068 0.18038 0.9019 0.0
H3509 H 0.79739 0.1637 0.9315 0.0
H3510 H 0.80728 0.21788 0.89118 0.0
H3511 H 0.74572 0.18484 0.9022 0.0
H3512 H 0.71916 0.17566 0.92168 0.0
H3513 H 0.71241 0.23625 0.92999 0.0
H3514 H 0.73915 0.24583 0.91082 0.0
H3515 H 0.76741 0.24659 0.79953 0.0
H3516 H 0.77276 0.22726 0.82754 0.0
H3517 H 0.76444 0.27584 0.86602 0.0
H3518 H 0.75985 0.29549 0.83813 0.0
H3519 H 0.74427 0.23696 0.87385 0.0
H3520 H 0.80542 0.27117 0.86706 0.0
H3521 H 0.83426 0.28344 0.85208 0.0
H3522 H 0.84322 0.22422 0.83873 0.0
H3523 H 0.81421 0.21155 0.8535 0.0
C3524 C 0.7849 0.20524 0.95212 0.0
C3525 C 0.79086 0.18671 0.95119 0.0
C3526 C 0.78089 0.21465 0.9352 0.0
C3527 C 0.78289 0.20591 0.91683 0.0
C3528 C 0.789 0.18747 0.91584 0.0
C3529 C 0.79276 0.17789 0.93279 0.0
C3530 C 0.77872 0.21617 0.89882 0.0
C3531 C 0.79337 0.22165 0.88717 0.0
C3532 C 0.76079 0.22182 0.89387 0.0
C3533 C 0.74455 0.21607 0.9052 0.0
C3534 C 0.73867 0.19623 0.9083 0.0
C3535 C 0.72357 0.19094 0.91927 0.0
C3536 C 0.71413 0.20536 0.9271 0.0
C3537 C 0.71974 0.22509 0.92393 0.0
C3538 C 0.73486 0.23046 0.91299 0.0
C3539 C 0.7666 0.25312 0.81393 0.0
C3540 C 0.76314 0.27259 0.81657 0.0
C3541 C 0.76974 0.24207 0.82997 0.0
C3542 C 0.76906 0.25007 0.84897 0.0
C3543 C 0.76503 0.2693 0.85156 0.0
C3544 C 0.76239 0.28052 0.83558 0.0
C3545 C 0.77279 0.23853 0.86615 0.0
C3546 C 0.75808 0.23289 0.87768 0.0
C3547 C 0.79075 0.23302 0.87118 0.0
C3548 C 0.80748 0.2404 0.86113 0.0
C3549 C 0.81332 0.26073 0.86061 0.0
C3550 C 0.82977 0.26777 0.85226 0.0
C3551 C 0.84059 0.25462 0.84448 0.0
C3552 C 0.83483 0.23439 0.8448 0.0
C3553 C 0.81838 0.22726 0.85316 0.0
H3554 H 0.85348 0.26013 0.8383 0.0
H3555 H 0.70245 0.20125 0.9356 0.0
H3556 H 0.05751 0.4907 0.23165 0.0
H3557 H 0.04674 0.49247 0.19764 0.0
H3558 H 0.10466 0.50079 0.1839 0.0
H3559 H 0.11564 0.49923 0.21839 0.0
H3560 H 0.08547 0.52767 0.16774 0.0
H3561 H 0.0741 0.45799 0.16875 0.0
H3562 H 0.06225 0.42604 0.18081 0.0
H3563 H 0.00517 0.43788 0.17205 0.0
H3564 H 0.0167 0.47005 0.1602 0.0
H3565 H 0.05796 0.52133 0.06611 0.0
H3566 H 0.0708 0.51468 0.09834 0.0
H3567 H 0.01502 0.50966 0.11765 0.0
H3568 H 1.00192 0.5164 0.08523 0.0
H3569 H 0.03457 0.47992 0.13003 0.0
H3570 H 0.04619 0.55013 0.13044 0.0
H3571 H 0.05798 0.58196 0.1181 0.0
H3572 H 0.11475 0.56889 0.12412 0.0
H3573 H 0.10325 0.53679 0.13617 0.0
C3574 C 0.06802 0.49254 0.22139 0.0
C3575 C 0.08748 0.49477 0.22782 0.0
C3576 C 0.0618 0.4935 0.20184 0.0
C3577 C 0.07481 0.49667 0.18802 0.0
C3578 C 0.09429 0.4983 0.19423 0.0
C3579 C 0.10057 0.4972 0.21392 0.0
C3580 C 0.06788 0.49945 0.16747 0.0
C3581 C 0.07463 0.51701 0.15937 0.0
C3582 C 0.05331 0.48587 0.15661 0.0
C3583 C 0.0463 0.46651 0.16372 0.0
C3584 C 0.05904 0.45386 0.16954 0.0
C3585 C 0.05237 0.43569 0.17631 0.0
C3586 C 0.03298 0.42995 0.17723 0.0
C3587 C 0.0202 0.44235 0.17134 0.0
C3588 C 0.02679 0.46055 0.16457 0.0
C3589 C 0.04831 0.5188 0.07713 0.0
C3590 C 0.02882 0.51944 0.07294 0.0
C3591 C 0.05575 0.51505 0.09565 0.0
C3592 C 0.04396 0.51179 0.11056 0.0
C3593 C 0.02444 0.51214 0.10642 0.0
C3594 C 0.01697 0.51606 0.08786 0.0
C3595 C 0.05209 0.50815 0.13041 0.0
C3596 C 0.04553 0.49047 0.13837 0.0
C3597 C 0.06684 0.5216 0.14112 0.0
C3598 C 0.07382 0.54095 0.13401 0.0
C3599 C 0.06117 0.55396 0.12897 0.0
C3600 C 0.0678 0.57207 0.12206 0.0
C3601 C 0.08709 0.57742 0.12028 0.0
C3602 C 0.0998 0.5647 0.12547 0.0
C3603 C 0.09324 0.54655 0.13235 0.0
H3604 H 0.0922 0.59145 0.11493 0.0
H3605 H 0.02785 0.41588 0.18248 0.0
H3606 H 0.75682 0.92909 0.46674 0.0
H3607 H 0.75801 0.90942 0.43641 0.0
H3608 H 0.7723 0.8615 0.46895 0.0
H3609 H 0.77091 0.88093 0.49928 0.0
H3610 H 0.79342 0.86909 0.43614 0.0
H3611 H 0.72916 0.85896 0.45336 0.0
H3612 H 0.69958 0.86956 0.46221 0.0
H3613 H 0.69354 0.89689 0.40852 0.0
H3614 H 0.72328 0.88672 0.39949 0.0
H3615 H 0.77309 0.79319 0.36053 0.0
H3616 H 0.77323 0.81198 0.39167 0.0
H3617 H 0.74837 0.8566 0.36207 0.0
H3618 H 0.74765 0.83761 0.33113 0.0
H3619 H 0.73279 0.85038 0.39404 0.0
H3620 H 0.79645 0.86192 0.3765 0.0
H3621 H 0.82642 0.85275 0.36703 0.0
H3622 H 0.83421 0.82471 0.42009 0.0
H3623 H 0.80413 0.83348 0.42976 0.0
C3624 C 0.76051 0.91449 0.4674 0.0
C3625 C 0.76364 0.90644 0.48529 0.0
C3626 C 0.76112 0.90328 0.45012 0.0
C3627 C 0.76505 0.88401 0.45056 0.0
C3628 C 0.7692 0.87635 0.4684 0.0
C3629 C 0.76835 0.88743 0.48567 0.0
C3630 C 0.76375 0.8714 0.43245 0.0
C3631 C 0.78015 0.86479 0.427 0.0
C3632 C 0.74648 0.8662 0.42046 0.0
C3633 C 0.72857 0.87229 0.42586 0.0
C3634 C 0.72163 0.8674 0.44353 0.0
C3635 C 0.70481 0.8733 0.44856 0.0
C3636 C 0.69472 0.88395 0.43596 0.0
C3637 C 0.70139 0.88868 0.41828 0.0
C3638 C 0.71823 0.88285 0.4132 0.0
C3639 C 0.7675 0.80691 0.36077 0.0
C3640 C 0.76051 0.81409 0.34353 0.0
C3641 C 0.76769 0.81767 0.37849 0.0
C3642 C 0.76114 0.83586 0.3791 0.0
C3643 C 0.75355 0.84264 0.3619 0.0
C3644 C 0.7532 0.83182 0.34425 0.0
C3645 C 0.76252 0.8481 0.39754 0.0
C3646 C 0.74609 0.85464 0.40312 0.0
C3647 C 0.77984 0.85343 0.40951 0.0
C3648 C 0.79794 0.84817 0.40376 0.0
C3649 C 0.80448 0.85366 0.38608 0.0
C3650 C 0.8215 0.84856 0.38069 0.0
C3651 C 0.83218 0.83811 0.39292 0.0
C3652 C 0.8259 0.83278 0.41061 0.0
C3653 C 0.80888 0.83782 0.41606 0.0
H3654 H 0.84536 0.83418 0.38872 0.0
H3655 H 0.68169 0.88849 0.43988 0.0
H3656 H 0.42503 0.56817 0.78987 0.0
H3657 H 0.44093 0.56439 0.82161 0.0
H3658 H 0.38752 0.53917 0.84054 0.0
H3659 H 0.37131 0.54403 0.80885 0.0
H3660 H 0.40649 0.56174 0.8687 0.0
H3661 H 0.42216 0.51066 0.82703 0.0
H3662 H 0.4334 0.49572 0.79799 0.0
H3663 H 0.48839 0.53045 0.81221 0.0
H3664 H 0.47741 0.54582 0.8412 0.0
H3665 H 0.45132 0.51693 0.94749 0.0
H3666 H 0.43376 0.52191 0.9167 0.0
H3667 H 0.48147 0.56271 0.90284 0.0
H3668 H 0.49898 0.55807 0.93393 0.0
H3669 H 0.46485 0.53109 0.87269 0.0
H3670 H 0.44709 0.58182 0.91527 0.0
H3671 H 0.43469 0.59408 0.94485 0.0
H3672 H 0.38182 0.55574 0.92923 0.0
H3673 H 0.39402 0.54303 0.89969 0.0
C3674 C 0.41666 0.56181 0.80079 0.0
C3675 C 0.39697 0.55623 0.79689 0.0
C3676 C 0.42579 0.55954 0.81892 0.0
C3677 C 0.41555 0.551 0.83337 0.0
C3678 C 0.39577 0.54569 0.82961 0.0
C3679 C 0.38652 0.54841 0.81152 0.0
C3680 C 0.4256 0.54779 0.85236 0.0
C3681 C 0.41907 0.55476 0.86953 0.0
C3682 C 0.44218 0.53885 0.85356 0.0
C3683 C 0.44891 0.52951 0.83621 0.0
C3684 C 0.43662 0.5152 0.82391 0.0
C3685 C 0.44295 0.50665 0.80746 0.0
C3686 C 0.46158 0.51216 0.80324 0.0
C3687 C 0.47395 0.52621 0.81549 0.0
C3688 C 0.46769 0.53483 0.83195 0.0
C3689 C 0.45802 0.52703 0.9379 0.0
C3690 C 0.4765 0.53712 0.94299 0.0
C3691 C 0.44798 0.52987 0.92038 0.0
C3692 C 0.45633 0.54269 0.90757 0.0
C3693 C 0.47482 0.55275 0.91258 0.0
C3694 C 0.48477 0.55014 0.93029 0.0
C3695 C 0.44581 0.54524 0.88879 0.0
C3696 C 0.45224 0.53804 0.87173 0.0
C3697 C 0.42895 0.55355 0.88773 0.0
C3698 C 0.42154 0.56134 0.90537 0.0
C3699 C 0.43288 0.57588 0.91823 0.0
C3700 C 0.42587 0.58294 0.93497 0.0
C3701 C 0.40749 0.57566 0.93894 0.0
C3702 C 0.39606 0.56135 0.92615 0.0
C3703 C 0.403 0.55423 0.90939 0.0
H3704 H 0.4021 0.58114 0.95191 0.0
H3705 H 0.46645 0.50553 0.79049 0.0
H3706 H 0.82201 0.21616 0.05739 0.0
H3707 H 0.81944 0.22855 0.09084 0.0
H3708 H 0.77058 0.1844 0.09339 0.0
H3709 H 0.77354 0.17161 0.06017 0.0
H3710 H 0.76534 0.22531 0.10178 0.0
H3711 H 0.80679 0.17975 0.12117 0.0
H3712 H 0.83574 0.16454 0.12115 0.0
H3713 H 0.86977 0.22014 0.14049 0.0
H3714 H 0.84102 0.23574 0.14035 0.0
H3715 H 0.74484 0.24488 0.19777 0.0
H3716 H 0.75133 0.23107 0.16644 0.0
H3717 H 0.80874 0.26194 0.17593 0.0
H3718 H 0.80252 0.27475 0.2081 0.0
H3719 H 0.81069 0.22862 0.16067 0.0
H3720 H 0.77089 0.27485 0.14165 0.0
H3721 H 0.74291 0.29169 0.1409 0.0
H3722 H 0.70697 0.23775 0.11958 0.0
H3723 H 0.73471 0.22052 0.12044 0.0
C3724 C 0.81126 0.20857 0.06542 0.0
C3725 C 0.79832 0.19254 0.05638 0.0
C3726 C 0.80967 0.21578 0.08447 0.0
C3727 C 0.79478 0.20746 0.09469 0.0
C3728 C 0.78222 0.19103 0.08588 0.0
C3729 C 0.78407 0.18355 0.06699 0.0
C3730 C 0.79138 0.21691 0.11376 0.0
C3731 C 0.77509 0.22579 0.11476 0.0
C3732 C 0.80447 0.21829 0.13051 0.0
C3733 C 0.82176 0.20896 0.13052 0.0
C3734 C 0.82046 0.18878 0.12522 0.0
C3735 C 0.83683 0.18008 0.12529 0.0
C3736 C 0.85459 0.19138 0.13076 0.0
C3737 C 0.85601 0.21141 0.13622 0.0
C3738 C 0.83968 0.22018 0.13616 0.0
C3739 C 0.75883 0.24886 0.19315 0.0
C3740 C 0.77312 0.26105 0.20543 0.0
C3741 C 0.7625 0.24109 0.17502 0.0
C3742 C 0.78042 0.2458 0.16825 0.0
C3743 C 0.79474 0.25809 0.18054 0.0
C3744 C 0.79119 0.26542 0.19899 0.0
C3745 C 0.7844 0.23696 0.14895 0.0
C3746 C 0.80084 0.22825 0.1478 0.0
C3747 C 0.77159 0.23602 0.13192 0.0
C3748 C 0.75487 0.24636 0.13127 0.0
C3749 C 0.757 0.26655 0.13692 0.0
C3750 C 0.74119 0.27617 0.13646 0.0
C3751 C 0.72317 0.26578 0.13024 0.0
C3752 C 0.72093 0.24577 0.12441 0.0
C3753 C 0.7367 0.23607 0.12486 0.0
H3754 H 0.71094 0.27326 0.12991 0.0
H3755 H 0.86725 0.18462 0.13081 0.0
H3756 H 0.07445 0.48077 0.32214 0.0
H3757 H 0.059 0.48715 0.35116 0.0
H3758 H 0.10877 0.52738 0.37544 0.0
H3759 H 0.12486 0.51961 0.34676 0.0
H3760 H 0.09495 0.51191 0.40384 0.0
H3761 H 0.06584 0.54241 0.35277 0.0
H3762 H 0.05044 0.54603 0.32023 0.0
H3763 H 0.00344 0.50249 0.32972 0.0
H3764 H 0.01867 0.49838 0.36222 0.0
H3765 H 0.03366 0.55287 0.46916 0.0
H3766 H 0.05421 0.54977 0.44304 0.0
H3767 H 0.02067 0.49392 0.42262 0.0
H3768 H 1.00081 0.49653 0.44918 0.0
H3769 H 0.02796 0.52227 0.39326 0.0
H3770 H 0.06194 0.49248 0.44573 0.0
H3771 H 0.07767 0.49449 0.47908 0.0
H3772 H 0.11607 0.54536 0.46729 0.0
H3773 H 0.10054 0.54365 0.43384 0.0
C3774 C 0.08216 0.49085 0.33375 0.0
C3775 C 0.1008 0.49978 0.33212 0.0
C3776 C 0.07324 0.49469 0.35033 0.0
C3777 C 0.08232 0.50839 0.36541 0.0
C3778 C 0.10126 0.5169 0.36406 0.0
C3779 C 0.11048 0.51249 0.34765 0.0
C3780 C 0.07178 0.51383 0.38222 0.0
C3781 C 0.08041 0.51444 0.40138 0.0
C3782 C 0.05279 0.51753 0.37941 0.0
C3783 C 0.04348 0.51999 0.35989 0.0
C3784 C 0.05227 0.53352 0.34788 0.0
C3785 C 0.04357 0.53566 0.32944 0.0
C3786 C 0.02599 0.52447 0.3229 0.0
C3787 C 0.01706 0.51114 0.3348 0.0
C3788 C 0.02571 0.50891 0.35324 0.0
C3789 C 0.03103 0.53973 0.45943 0.0
C3790 C 0.01589 0.52477 0.46155 0.0
C3791 C 0.04263 0.53806 0.44436 0.0
C3792 C 0.03907 0.52154 0.4309 0.0
C3793 C 0.02374 0.50678 0.43281 0.0
C3794 C 0.01237 0.50832 0.44801 0.0
C3795 C 0.05094 0.5196 0.41454 0.0
C3796 C 0.04255 0.5198 0.39552 0.0
C3797 C 0.07027 0.51744 0.41751 0.0
C3798 C 0.08005 0.51798 0.43734 0.0
C3799 C 0.07373 0.5041 0.45027 0.0
C3800 C 0.0826 0.50519 0.46918 0.0
C3801 C 0.09783 0.52007 0.47531 0.0
C3802 C 0.10429 0.53383 0.46251 0.0
C3803 C 0.0955 0.53277 0.44355 0.0
H3804 H 0.10466 0.5209 0.48997 0.0
H3805 H 0.01928 0.52615 0.30862 0.0
H3806 H 0.72463 0.8728 0.56908 0.0
H3807 H 0.71692 0.8607 0.60018 0.0
H3808 H 0.74923 0.91353 0.62999 0.0
H3809 H 0.75663 0.92595 0.59866 0.0
H3810 H 0.76238 0.87785 0.63836 0.0
H3811 H 0.7049 0.90456 0.63726 0.0
H3812 H 0.67409 0.9117 0.62319 0.0
H3813 H 0.65232 0.84998 0.61594 0.0
H3814 H 0.68308 0.84243 0.62972 0.0
H3815 H 0.75759 0.83526 0.72567 0.0
H3816 H 0.75192 0.85903 0.70205 0.0
H3817 H 0.71361 0.81395 0.66626 0.0
H3818 H 0.71857 0.79023 0.69068 0.0
H3819 H 0.70237 0.85 0.66367 0.0
H3820 H 0.75957 0.82269 0.65872 0.0
H3821 H 0.79012 0.8136 0.6712 0.0
H3822 H 0.81237 0.87435 0.68695 0.0
H3823 H 0.78182 0.88378 0.67485 0.0
C3824 C 0.72951 0.88213 0.58225 0.0
C3825 C 0.74129 0.90022 0.5816 0.0
C3826 C 0.72501 0.87526 0.59997 0.0
C3827 C 0.73249 0.88624 0.61734 0.0
C3828 C 0.74322 0.90495 0.61669 0.0
C3829 C 0.7474 0.91203 0.59885 0.0
C3830 C 0.73207 0.87648 0.63569 0.0
C3831 C 0.7493 0.87225 0.64425 0.0
C3832 C 0.71491 0.86848 0.64275 0.0
C3833 C 0.69637 0.87293 0.63442 0.0
C3834 C 0.6936 0.89249 0.63251 0.0
C3835 C 0.67613 0.89662 0.62462 0.0
C3836 C 0.66127 0.8813 0.61864 0.0
C3837 C 0.66384 0.86183 0.62058 0.0
C3838 C 0.68129 0.85762 0.62846 0.0
C3839 C 0.74771 0.83055 0.7129 0.0
C3840 C 0.73876 0.81097 0.70964 0.0
C3841 C 0.74446 0.84411 0.69947 0.0
C3842 C 0.73272 0.83813 0.6822 0.0
C3843 C 0.72279 0.81881 0.67948 0.0
C3844 C 0.7257 0.80528 0.69327 0.0
C3845 C 0.73268 0.85139 0.66622 0.0
C3846 C 0.71544 0.85604 0.65803 0.0
C3847 C 0.74982 0.8595 0.65913 0.0
C3848 C 0.76834 0.85392 0.66607 0.0
C3849 C 0.77094 0.8341 0.66495 0.0
C3850 C 0.78825 0.82888 0.67195 0.0
C3851 C 0.80316 0.84338 0.67992 0.0
C3852 C 0.8008 0.86313 0.68081 0.0
C3853 C 0.78349 0.86842 0.67388 0.0
H3854 H 0.81654 0.83931 0.68535 0.0
H3855 H 0.64775 0.88453 0.61254 0.0
H3856 H 0.65503 0.39993 0.51635 0.0
H3857 H 0.62894 0.41899 0.51775 0.0
H3858 H 0.66931 0.47214 0.53117 0.0
H3859 H 0.6953 0.45306 0.5305 0.0
H3860 H 0.64255 0.47523 0.55165 0.0
H3861 H 0.64232 0.45752 0.48381 0.0
H3862 H 0.64086 0.43583 0.45396 0.0
H3863 H 0.58623 0.40622 0.46483 0.0
H3864 H 0.58742 0.42764 0.49484 0.0
H3865 H 0.5815 0.54391 0.52063 0.0
H3866 H 0.60584 0.52247 0.52218 0.0
H3867 H 0.56329 0.47299 0.52915 0.0
H3868 H 0.53904 0.49449 0.5279 0.0
H3869 H 0.58963 0.46715 0.49914 0.0
H3870 H 0.59032 0.48777 0.56667 0.0
H3871 H 0.59216 0.51211 0.59455 0.0
H3872 H 0.64724 0.53883 0.58188 0.0
H3873 H 0.64561 0.51481 0.55373 0.0
C3874 C 0.65836 0.41567 0.51972 0.0
C3875 C 0.67738 0.42487 0.52332 0.0
C3876 C 0.64336 0.42666 0.52033 0.0
C3877 C 0.6469 0.44726 0.52422 0.0
C3878 C 0.66593 0.45636 0.52812 0.0
C3879 C 0.6809 0.44537 0.52772 0.0
C3880 C 0.63098 0.45935 0.52442 0.0
C3881 C 0.63115 0.47349 0.53998 0.0
C3882 C 0.61566 0.45716 0.5095 0.0
C3883 C 0.61508 0.444 0.4917 0.0
C3884 C 0.63008 0.44625 0.47993 0.0
C3885 C 0.62928 0.43404 0.46296 0.0
C3886 C 0.6135 0.4196 0.45755 0.0
C3887 C 0.59846 0.41738 0.46907 0.0
C3888 C 0.59918 0.42956 0.48605 0.0
C3889 C 0.57733 0.52851 0.52277 0.0
C3890 C 0.55824 0.52107 0.52457 0.0
C3891 C 0.5913 0.51623 0.5236 0.0
C3892 C 0.58652 0.49604 0.52585 0.0
C3893 C 0.56744 0.4885 0.52751 0.0
C3894 C 0.55354 0.5009 0.52709 0.0
C3895 C 0.60143 0.4829 0.52622 0.0
C3896 C 0.60104 0.46866 0.51078 0.0
C3897 C 0.61671 0.48522 0.54104 0.0
C3898 C 0.61776 0.49962 0.55799 0.0
C3899 C 0.60275 0.49895 0.56973 0.0
C3900 C 0.60377 0.51266 0.5856 0.0
C3901 C 0.61978 0.52704 0.58995 0.0
C3902 C 0.63484 0.5277 0.57847 0.0
C3903 C 0.63388 0.51403 0.56257 0.0
H3904 H 0.62055 0.53764 0.60225 0.0
H3905 H 0.61291 0.41016 0.44442 0.0
H3906 H 0.22623 0.11142 0.48538 0.0
H3907 H 0.19473 0.09196 0.48359 0.0
H3908 H 0.17271 0.1323 0.44572 0.0
H3909 H 0.20413 0.15216 0.44782 0.0
H3910 H 0.15157 0.12649 0.47396 0.0
H3911 H 0.17631 0.08412 0.42955 0.0
H3912 H 0.19919 0.06409 0.41776 0.0
H3913 H 0.19118 0.02695 0.4647 0.0
H3914 H 0.16843 0.04692 0.47694 0.0
H3915 H 0.05949 0.07009 0.46508 0.0
H3916 H 0.09014 0.08536 0.45572 0.0
H3917 H 0.11891 0.05195 0.49602 0.0
H3918 H 0.08847 0.03655 0.50534 0.0
H3919 H 0.13545 0.05404 0.4623 0.0
H3920 H 0.1135 0.09839 0.50826 0.0
H3921 H 0.09238 0.11975 0.52145 0.0
H3922 H 0.09613 0.15383 0.47184 0.0
H3923 H 0.1169 0.13237 0.4581 0.0
C3924 C 0.21479 0.11601 0.47639 0.0
C3925 C 0.21773 0.13346 0.46685 0.0
C3926 C 0.19675 0.10478 0.4753 0.0
C3927 C 0.18132 0.11056 0.46441 0.0
C3928 C 0.18437 0.12755 0.45425 0.0
C3929 C 0.20237 0.13888 0.45545 0.0
C3930 C 0.16178 0.09991 0.46505 0.0
C3931 C 0.14794 0.11069 0.47093 0.0
C3932 C 0.15714 0.07923 0.4616 0.0
C3933 C 0.17075 0.06712 0.45424 0.0
C3934 C 0.17952 0.07177 0.43744 0.0
C3935 C 0.19245 0.06041 0.43066 0.0
C3936 C 0.19666 0.04428 0.4405 0.0
C3937 C 0.18791 0.03945 0.4571 0.0
C3938 C 0.17497 0.05077 0.46395 0.0
C3939 C 0.07233 0.0657 0.47162 0.0
C3940 C 0.07156 0.05212 0.48594 0.0
C3941 C 0.0898 0.07453 0.46637 0.0
C3942 C 0.10678 0.06993 0.4753 0.0
C3943 C 0.10599 0.05572 0.48894 0.0
C3944 C 0.08857 0.04699 0.4943 0.0
C3945 C 0.12539 0.08066 0.47133 0.0
C3946 C 0.13904 0.06988 0.46492 0.0
C3947 C 0.12989 0.10137 0.47427 0.0
C3948 C 0.11662 0.11365 0.48206 0.0
C3949 C 0.1096 0.11026 0.50002 0.0
C3950 C 0.09775 0.12242 0.50763 0.0
C3951 C 0.09299 0.13818 0.49752 0.0
C3952 C 0.09986 0.14164 0.47966 0.0
C3953 C 0.11164 0.12946 0.47194 0.0
H3954 H 0.08394 0.14769 0.50351 0.0
H3955 H 0.20668 0.0355 0.43523 0.0
H3956 H 0.15208 0.948 0.75478 0.0
H3957 H 0.16923 0.9211 0.74642 0.0
H3958 H 0.21444 0.94502 0.79082 0.0
H3959 H 0.19809 0.97292 0.79762 0.0
H3960 H 0.23002 0.93254 0.76385 0.0
H3961 H 0.17607 0.89918 0.7944 0.0
H3962 H 0.14178 0.89106 0.79727 0.0
H3963 H 0.13225 0.86826 0.73766 0.0
H3964 H 0.16654 0.87584 0.73459 0.0
H3965 H 0.2699 0.84849 0.78625 0.0
H3966 H 0.25055 0.8747 0.78659 0.0
H3967 H 0.22384 0.85325 0.72954 0.0
H3968 H 0.24398 0.82737 0.72878 0.0
H3969 H 0.19792 0.86324 0.75798 0.0
H3970 H 0.25396 0.89151 0.73084 0.0
H3971 H 0.28841 0.89982 0.72932 0.0
H3972 H 0.29414 0.93321 0.78435 0.0
H3973 H 0.25975 0.92485 0.78633 0.0
C3974 C 0.16572 0.94744 0.76265 0.0
C3975 C 0.17379 0.96242 0.77687 0.0
C3976 C 0.17546 0.9319 0.75807 0.0
C3977 C 0.19301 0.93045 0.76835 0.0
C3978 C 0.20098 0.94559 0.78258 0.0
C3979 C 0.19162 0.96153 0.78657 0.0
C3980 C 0.20331 0.91351 0.76428 0.0
C3981 C 0.22293 0.91743 0.76284 0.0
C3982 C 0.1942 0.89362 0.76216 0.0
C3983 C 0.17378 0.88816 0.76425 0.0
C3984 C 0.16664 0.89234 0.78196 0.0
C3985 C 0.14723 0.8878 0.78362 0.0
C3986 C 0.13484 0.87918 0.76765 0.0
C3987 C 0.14186 0.87495 0.75001 0.0
C3988 C 0.16129 0.87918 0.74835 0.0
C3989 C 0.25998 0.84937 0.77371 0.0
C3990 C 0.2582 0.83562 0.7576 0.0
C3991 C 0.24886 0.86431 0.77397 0.0
C3992 C 0.2357 0.86592 0.75812 0.0
C3993 C 0.23376 0.85216 0.74202 0.0
C3994 C 0.24511 0.83727 0.74166 0.0
C3995 C 0.22456 0.88245 0.75841 0.0
C3996 C 0.20487 0.87841 0.75899 0.0
C3997 C 0.23362 0.90224 0.76001 0.0
C3998 C 0.25429 0.90743 0.75879 0.0
C3999 C 0.26258 0.9005 0.74268 0.0
C4000 C 0.2821 0.90524 0.74173 0.0
C4001 C 0.29346 0.917 0.75675 0.0
C4002 C 0.28532 0.92409 0.77273 0.0
C4003 C 0.26581 0.91938 0.77376 0.0
H4004 H 0.30856 0.92065 0.75598 0.0
H4005 H 0.11981 0.87574 0.76894 0.0
H4006 H 0.29995 0.89311 0.02031 0.0
H4007 H 0.33058 0.91426 0.02078 0.0
H4008 H 0.30236 0.9621 0.00313 0.0
H4009 H 0.27138 0.94107 0.00321 0.0
H4010 H 0.33482 0.95033 0.98029 0.0
H4011 H 0.31922 0.96945 0.044 0.0
H4012 H 0.30908 0.96341 0.07637 0.0
H4013 H 0.35684 0.93407 0.08959 0.0
H4014 H 0.3671 0.93965 0.05716 0.0
H4015 H 0.42172 0.01644 0.98632 0.0
H4016 H 0.38871 1.0019 0.98827 0.0
H4017 H 0.4073 0.96204 0.02885 0.0
H4018 H 0.44018 0.97737 0.02774 0.0
H4019 H 0.37778 0.9725 0.04025 0.0
H4020 H 0.39216 0.94901 0.97775 0.0
H4021 H 0.40278 0.95149 0.94508 0.0
H4022 H 0.35847 0.98462 0.92902 0.0
H4023 H 0.34773 0.98254 0.9617 0.0
C4024 C 0.3002 0.90817 0.01664 0.0
C4025 C 0.28321 0.9154 0.01169 0.0
C4026 C 0.31774 0.92025 0.01696 0.0
C4027 C 0.31876 0.93973 0.012 0.0
C4028 C 0.30186 0.94709 0.00705 0.0
C4029 C 0.2842 0.93511 0.00717 0.0
C4030 C 0.3376 0.952 0.01146 0.0
C4031 C 0.34412 0.95557 0.99338 0.0
C4032 C 0.34994 0.95814 0.02853 0.0
C4033 C 0.3438 0.95478 0.04805 0.0
C4034 C 0.32745 0.96152 0.05372 0.0
C4035 C 0.3217 0.95822 0.0721 0.0
C4036 C 0.33228 0.94831 0.08501 0.0
C4037 C 0.34865 0.94172 0.07957 0.0
C4038 C 0.35444 0.94496 0.06119 0.0
C4039 C 0.41872 0.00458 0.99566 0.0
C4040 C 0.43352 0.99791 0.00674 0.0
C4041 C 0.39982 0.99617 0.99669 0.0
C4042 C 0.39535 0.9805 0.00841 0.0
C4043 C 0.41022 0.97405 0.01967 0.0
C4044 C 0.42907 0.98274 0.01895 0.0
C4045 C 0.37529 0.97078 0.00897 0.0
C4046 C 0.36852 0.96754 0.02708 0.0
C4047 C 0.36285 0.96451 0.99187 0.0
C4048 C 0.36929 0.96581 0.97223 0.0
C4049 C 0.38478 0.95695 0.9673 0.0
C4050 C 0.3908 0.95826 0.94877 0.0
C4051 C 0.38134 0.96826 0.935 0.0
C4052 C 0.36581 0.97692 0.93972 0.0
C4053 C 0.35974 0.97567 0.95823 0.0
H4054 H 0.38602 0.96926 0.92067 0.0
H4055 H 0.32781 0.94578 0.09924 0.0
H4056 H 0.84718 0.59723 0.73351 0.0
H4057 H 0.82772 0.62316 0.73056 0.0
H4058 H 0.87657 0.6667 0.74998 0.0
H4059 H 0.89611 0.64057 0.75344 0.0
H4060 H 0.84823 0.67516 0.76774 0.0
H4061 H 0.85534 0.66103 0.70136 0.0
H4062 H 0.85524 0.64065 0.67092 0.0
H4063 H 0.79562 0.62059 0.67093 0.0
H4064 H 0.79541 0.64066 0.70152 0.0
H4065 H 0.79548 0.75349 0.74508 0.0
H4066 H 0.81902 0.73125 0.7437 0.0
H4067 H 0.77403 0.68163 0.7355 0.0
H4068 H 0.75055 0.7039 0.737 0.0
H4069 H 0.80272 0.67884 0.71033 0.0
H4070 H 0.79798 0.69105 0.77942 0.0
H4071 H 0.79979 0.71088 0.81041 0.0
H4072 H 0.85697 0.73651 0.80364 0.0
H4073 H 0.85549 0.71666 0.77259 0.0
C4074 C 0.8539 0.61232 0.73697 0.0
C4075 C 0.87331 0.61672 0.74366 0.0
C4076 C 0.8427 0.62724 0.73517 0.0
C4077 C 0.85058 0.6471 0.73978 0.0
C4078 C 0.87004 0.65157 0.74627 0.0
C4079 C 0.88126 0.63659 0.74816 0.0
C4080 C 0.83827 0.66293 0.73868 0.0
C4081 C 0.83857 0.67612 0.75499 0.0
C4082 C 0.82538 0.66431 0.72222 0.0
C4083 C 0.8254 0.65222 0.70383 0.0
C4084 C 0.84224 0.65215 0.69495 0.0
C4085 C 0.84223 0.64068 0.67766 0.0
C4086 C 0.82544 0.6293 0.66902 0.0
C4087 C 0.80862 0.6294 0.67764 0.0
C4088 C 0.80855 0.64084 0.69495 0.0
C4089 C 0.7906 0.73794 0.74258 0.0
C4090 C 0.77109 0.7306 0.74083 0.0
C4091 C 0.8041 0.72514 0.74203 0.0
C4092 C 0.79838 0.70465 0.73952 0.0
C4093 C 0.77888 0.69733 0.73739 0.0
C4094 C 0.76544 0.71011 0.73826 0.0
C4095 C 0.81257 0.69075 0.73944 0.0
C4096 C 0.81257 0.67793 0.72294 0.0
C4097 C 0.82597 0.68992 0.75556 0.0
C4098 C 0.82656 0.70254 0.77366 0.0
C4099 C 0.81085 0.70108 0.78445 0.0
C4100 C 0.81185 0.71228 0.80206 0.0
C4101 C 0.82848 0.72502 0.80899 0.0
C4102 C 0.8441 0.72665 0.79826 0.0
C4103 C 0.84321 0.71539 0.78068 0.0
H4104 H 0.82934 0.73354 0.82272 0.0
H4105 H 0.82547 0.62043 0.65563 0.0
H4106 H 0.82986 0.64865 0.01413 0.0
H4107 H 0.85621 0.63173 0.02424 0.0
H4108 H 0.81905 0.57599 0.015 0.0
H4109 H 0.79243 0.59292 0.00531 0.0
H4110 H 0.84447 0.5766 0.04659 0.0
H4111 H 0.84621 0.59142 0.98034 0.0
H4112 H 0.84611 0.61224 0.95271 0.0
H4113 H 0.89736 0.6482 0.97878 0.0
H4114 H 0.89761 0.62776 0.00673 0.0
H4115 H 0.9215 0.52153 0.03327 0.0
H4116 H 0.89191 0.53547 0.0315 0.0
H4117 H 0.92416 0.59385 0.04119 0.0
H4118 H 0.95354 0.58008 0.04306 0.0
H4119 H 0.89989 0.58977 0.00888 0.0
H4120 H 0.89769 0.57381 0.07542 0.0
H4121 H 0.89765 0.55173 0.10202 0.0
H4122 H 0.84702 0.51613 0.07402 0.0
H4123 H 0.84698 0.53786 0.04708 0.0
C4124 C 0.82724 0.63281 0.01446 0.0
C4125 C 0.80916 0.62207 0.0087 0.0
C4126 C 0.84231 0.62316 0.02022 0.0
C4127 C 0.83965 0.60258 0.01999 0.0
C4128 C 0.82141 0.59188 0.0152 0.0
C4129 C 0.80624 0.60156 0.00961 0.0
C4130 C 0.85618 0.59229 0.02345 0.0
C4131 C 0.85652 0.57929 0.03823 0.0
C4132 C 0.8719 0.59586 0.01255 0.0
C4133 C 0.87183 0.60816 0.99572 0.0
C4134 C 0.85738 0.60386 0.98026 0.0
C4135 C 0.85731 0.61558 0.96453 0.0
C4136 C 0.87169 0.63156 0.96401 0.0
C4137 C 0.88621 0.63583 0.97921 0.0
C4138 C 0.88633 0.62417 0.995 0.0
C4139 C 0.92218 0.53729 0.03554 0.0
C4140 C 0.93973 0.54975 0.03833 0.0
C4141 C 0.90532 0.54523 0.03454 0.0
C4142 C 0.90588 0.5657 0.03625 0.0
C4143 C 0.92343 0.57802 0.03984 0.0
C4144 C 0.94019 0.57013 0.04098 0.0
C4145 C 0.88848 0.57451 0.0324 0.0
C4146 C 0.88789 0.58711 0.01733 0.0
C4147 C 0.87254 0.57036 0.0429 0.0
C4148 C 0.87247 0.55735 0.05914 0.0
C4149 C 0.88667 0.56118 0.07485 0.0
C4150 C 0.88663 0.54874 0.09001 0.0
C4151 C 0.87237 0.5325 0.08969 0.0
C4152 C 0.85808 0.5287 0.07423 0.0
C4153 C 0.85808 0.54108 0.05902 0.0
H4154 H 0.87236 0.52288 0.10144 0.0
H4155 H 0.87162 0.64061 0.95182 0.0
H4156 H 0.18759 0.05718 0.79081 0.0
H4157 H 0.20733 0.08914 0.78922 0.0
H4158 H 0.16052 0.11832 0.80256 0.0
H4159 H 0.1409 0.08664 0.80457 0.0
H4160 H 0.20413 0.11704 0.76553 0.0
H4161 H 0.17559 0.16223 0.82667 0.0
H4162 H 0.16366 0.15709 0.85847 0.0
H4163 H 0.19478 0.1091 0.86544 0.0
H4164 H 0.20712 0.11412 0.83383 0.0
H4165 H 0.22332 0.2176 0.75002 0.0
H4166 H 0.20898 0.18445 0.75592 0.0
H4167 H 0.24208 0.18955 0.81166 0.0
H4168 H 0.25565 0.2233 0.80623 0.0
H4169 H 0.2096 0.17207 0.81611 0.0
H4170 H 0.2521 0.16143 0.7688 0.0
H4171 H 0.26642 0.16588 0.73808 0.0
H4172 H 0.21286 0.14304 0.70583 0.0
H4173 H 0.19815 0.13871 0.73634 0.0
C4174 C 0.18156 0.0704 0.79368 0.0
C4175 C 0.16261 0.06922 0.79787 0.0
C4176 C 0.19286 0.08869 0.79266 0.0
C4177 C 0.18551 0.10623 0.7959 0.0
C4178 C 0.16668 0.10508 0.80032 0.0
C4179 C 0.15542 0.08686 0.8014 0.0
C4180 C 0.19716 0.12573 0.79396 0.0
C4181 C 0.20542 0.12904 0.77664 0.0
C4182 C 0.19923 0.14136 0.80857 0.0
C4183 C 0.19214 0.13846 0.82779 0.0
C4184 C 0.17997 0.15065 0.83503 0.0
C4185 C 0.17312 0.14774 0.85302 0.0
C4186 C 0.17841 0.13274 0.86394 0.0
C4187 C 0.19064 0.12067 0.85694 0.0
C4188 C 0.19754 0.12353 0.83898 0.0
C4189 C 0.22761 0.21164 0.76351 0.0
C4190 C 0.24073 0.22304 0.7776 0.0
C4191 C 0.21948 0.19257 0.76684 0.0
C4192 C 0.22472 0.18412 0.78406 0.0
C4193 C 0.23779 0.19558 0.79821 0.0
C4194 C 0.24559 0.21488 0.79509 0.0
C4195 C 0.21624 0.16359 0.78745 0.0
C4196 C 0.20852 0.16007 0.80504 0.0
C4197 C 0.21509 0.14764 0.77326 0.0
C4198 C 0.224 0.14986 0.75488 0.0
C4199 C 0.24336 0.15743 0.75515 0.0
C4200 C 0.25154 0.15994 0.73778 0.0
C4201 C 0.24055 0.15479 0.72001 0.0
C4202 C 0.22136 0.14704 0.7196 0.0
C4203 C 0.2131 0.14452 0.73693 0.0
H4204 H 0.24689 0.15679 0.70657 0.0
H4205 H 0.17307 0.13049 0.87785 0.0
H4206 H 0.36013 0.01911 0.24273 0.0
H4207 H 0.33884 0.98815 0.24441 0.0
H4208 H 0.38036 0.96886 0.28477 0.0
H4209 H 0.40185 0.9994 0.28268 0.0
H4210 H 0.36698 0.94008 0.25995 0.0
H4211 H 0.33894 0.98479 0.2989 0.0
H4212 H 0.32535 0.0147 0.30669 0.0
H4213 H 0.28081 0.99747 0.26045 0.0
H4214 H 0.29429 0.96757 0.2522 0.0
H4215 H 0.28083 0.87259 0.29354 0.0
H4216 H 0.2997 0.90548 0.29397 0.0
H4217 H 0.31416 0.89156 0.23635 0.0
H4218 H 0.29563 0.85877 0.23599 0.0
H4219 H 0.29968 0.93695 0.27251 0.0
H4220 H 0.35998 0.90984 0.23316 0.0
H4221 H 0.37465 0.8799 0.22946 0.0
H4222 H 0.35667 0.86212 0.2839 0.0
H4223 H 0.34214 0.89207 0.28805 0.0
C4224 C 0.36472 0.00829 0.25199 0.0
C4225 C 0.38278 0.01179 0.26252 0.0
C4226 C 0.35247 0.9906 0.25303 0.0
C4227 C 0.35785 0.97613 0.26488 0.0
C4228 C 0.37583 0.97968 0.27547 0.0
C4229 C 0.38813 0.99723 0.27428 0.0
C4230 C 0.34505 0.95708 0.26589 0.0
C4231 C 0.35227 0.93947 0.26268 0.0
C4232 C 0.32591 0.95611 0.26987 0.0
C4233 C 0.31773 0.97403 0.27482 0.0
C4234 C 0.32633 0.98745 0.2903 0.0
C4235 C 0.31863 0.00439 0.29481 0.0
C4236 C 0.30226 0.00801 0.28404 0.0
C4237 C 0.29351 0.99466 0.26877 0.0
C4238 C 0.30116 0.9777 0.26418 0.0
C4239 C 0.28787 0.87668 0.28091 0.0
C4240 C 0.28688 0.86308 0.2648 0.0
C4241 C 0.29863 0.89547 0.28114 0.0
C4242 C 0.30863 0.90092 0.26531 0.0
C4243 C 0.30688 0.88761 0.24888 0.0
C4244 C 0.29621 0.86888 0.24866 0.0
C4245 C 0.32157 0.92009 0.26618 0.0
C4246 C 0.31439 0.93765 0.26974 0.0
C4247 C 0.34091 0.92107 0.26307 0.0
C4248 C 0.34981 0.90311 0.2608 0.0
C4249 C 0.35923 0.89958 0.24437 0.0
C4250 C 0.36751 0.8826 0.24219 0.0
C4251 C 0.36654 0.86909 0.25641 0.0
C4252 C 0.35735 0.87256 0.27287 0.0
C4253 C 0.34907 0.88952 0.27512 0.0
H4254 H 0.37295 0.85595 0.25469 0.0
H4255 H 0.29632 0.02114 0.28756 0.0
H4256 H 0.49019 0.33554 0.65523 0.0
H4257 H 0.49318 0.36573 0.63807 0.0
H4258 H 0.51021 0.33447 0.58866 0.0
H4259 H 0.50724 0.30434 0.60566 0.0
H4260 H 0.53129 0.37145 0.59622 0.0
H4261 H 0.46551 0.34152 0.58831 0.0
H4262 H 0.43526 0.32761 0.59999 0.0
H4263 H 0.43318 0.38267 0.63135 0.0
H4264 H 0.46357 0.39682 0.62005 0.0
H4265 H 0.48229 0.43914 0.52865 0.0
H4266 H 0.48188 0.40887 0.54565 0.0
H4267 H 0.52443 0.43929 0.58956 0.0
H4268 H 0.52481 0.46947 0.57274 0.0
H4269 H 0.47344 0.40194 0.58343 0.0
H4270 H 0.55401 0.40649 0.60311 0.0
H4271 H 0.58384 0.42013 0.59039 0.0
H4272 H 0.55547 0.41437 0.53265 0.0
H4273 H 0.52555 0.40042 0.54497 0.0
C4274 C 0.4948 0.33518 0.64082 0.0
C4275 C 0.49837 0.31754 0.63176 0.0
C4276 C 0.49644 0.35241 0.631 0.0
C4277 C 0.50175 0.35231 0.612 0.0
C4278 C 0.50609 0.3349 0.60329 0.0
C4279 C 0.50432 0.31767 0.61302 0.0
C4280 C 0.50183 0.36999 0.60076 0.0
C4281 C 0.51867 0.37816 0.5935 0.0
C4282 C 0.48528 0.37857 0.59689 0.0
C4283 C 0.46689 0.37016 0.60348 0.0
C4284 C 0.45866 0.35062 0.59779 0.0
C4285 C 0.44148 0.3427 0.60433 0.0
C4286 C 0.43233 0.35423 0.61645 0.0
C4287 C 0.4403 0.37374 0.62199 0.0
C4288 C 0.45749 0.38172 0.6155 0.0
C4289 C 0.49159 0.4393 0.54189 0.0
C4290 C 0.50359 0.4566 0.54939 0.0
C4291 C 0.49128 0.42206 0.55162 0.0
C4292 C 0.50318 0.42182 0.56882 0.0
C4293 C 0.51524 0.4391 0.57624 0.0
C4294 C 0.51542 0.45633 0.56663 0.0
C4295 C 0.50296 0.40357 0.57915 0.0
C4296 C 0.48609 0.39528 0.58623 0.0
C4297 C 0.51943 0.3948 0.58269 0.0
C4298 C 0.5375 0.40258 0.57502 0.0
C4299 C 0.55417 0.40802 0.58769 0.0
C4300 C 0.57109 0.41583 0.58054 0.0
C4301 C 0.57153 0.41818 0.56073 0.0
C4302 C 0.55509 0.41261 0.548 0.0
C4303 C 0.53814 0.40477 0.55506 0.0
H4304 H 0.58463 0.42428 0.55524 0.0
H4305 H 0.41904 0.34807 0.62151 0.0
H4306 H 0.47524 0.79748 0.32746 0.0
H4307 H 0.44435 0.79288 0.30766 0.0
H4308 H 0.41722 0.76754 0.35515 0.0
H4309 H 0.44772 0.77252 0.37502 0.0
H4310 H 0.40484 0.74663 0.31739 0.0
H4311 H 0.41459 0.81226 0.34963 0.0
H4312 H 0.43206 0.84576 0.35782 0.0
H4313 H 0.42833 0.85683 0.2975 0.0
H4314 H 0.41111 0.82323 0.28891 0.0
H4315 H 0.30688 0.75109 0.29439 0.0
H4316 H 0.33949 0.75155 0.3084 0.0
H4317 H 0.35932 0.79393 0.26864 0.0
H4318 H 0.32661 0.79447 0.25565 0.0
H4319 H 0.37704 0.80563 0.30031 0.0
H4320 H 0.36639 0.7418 0.26693 0.0
H4321 H 0.34975 0.70823 0.25717 0.0
H4322 H 0.3562 0.69322 0.31628 0.0
H4323 H 0.3727 0.72679 0.32643 0.0
C4324 C 0.46271 0.79075 0.33357 0.0
C4325 C 0.46396 0.78546 0.35285 0.0
C4326 C 0.44506 0.78817 0.32228 0.0
C4327 C 0.42841 0.77988 0.32993 0.0
C4328 C 0.42981 0.77392 0.34889 0.0
C4329 C 0.44729 0.77687 0.36027 0.0
C4330 C 0.40936 0.77821 0.31871 0.0
C4331 C 0.39868 0.7595 0.31368 0.0
C4332 C 0.40148 0.79496 0.31344 0.0
C4333 C 0.4118 0.81514 0.31861 0.0
C4334 C 0.41768 0.82176 0.33809 0.0
C4335 C 0.4275 0.84078 0.34281 0.0
C4336 C 0.43137 0.85339 0.32818 0.0
C4337 C 0.42537 0.84702 0.30881 0.0
C4338 C 0.41559 0.82799 0.30401 0.0
C4339 C 0.31824 0.76022 0.28841 0.0
C4340 C 0.31413 0.77266 0.27383 0.0
C4341 C 0.33699 0.76044 0.29639 0.0
C4342 C 0.35221 0.7726 0.28952 0.0
C4343 C 0.34805 0.78446 0.2744 0.0
C4344 C 0.32929 0.78465 0.26682 0.0
C4345 C 0.37223 0.77391 0.29875 0.0
C4346 C 0.38313 0.79261 0.3036 0.0
C4347 C 0.38043 0.7571 0.30351 0.0
C4348 C 0.37065 0.73686 0.29745 0.0
C4349 C 0.36417 0.73138 0.27786 0.0
C4350 C 0.35477 0.71234 0.27226 0.0
C4351 C 0.35188 0.69862 0.2861 0.0
C4352 C 0.35844 0.70388 0.30557 0.0
C4353 C 0.36784 0.72289 0.31126 0.0
H4354 H 0.34459 0.6839 0.28174 0.0
H4355 H 0.43896 0.86812 0.33187 0.0
H4356 H 0.01449 0.71499 0.14894 0.0
H4357 H 0.01733 0.68203 0.13516 0.0
H4358 H 0.97271 0.68579 0.09016 0.0
H4359 H 0.97021 0.71886 0.10365 0.0
H4360 H 0.97271 0.6467 0.10515 0.0
H4361 H 0.01429 0.69964 0.07999 0.0
H4362 H 0.03911 0.72889 0.08408 0.0
H4363 H 0.07776 0.69575 0.11311 0.0
H4364 H 0.05304 0.66636 0.10945 0.0
H4365 H 0.99187 0.58505 0.02451 0.0
H4366 H 0.98464 0.61164 0.04636 0.0
H4367 H 0.03604 0.60955 0.08309 0.0
H4368 H 0.04296 0.58265 0.06165 0.0
H4369 H 0.033 0.64647 0.07556 0.0
H4370 H 0.99411 0.59199 0.09597 0.0
H4371 H 0.9696 0.56299 0.09637 0.0
H4372 H 0.9263 0.59762 0.08123 0.0
H4373 H 0.95053 0.6265 0.07948 0.0
C4374 C 0.00477 0.70839 0.13661 0.0
C4375 C 0.99189 0.71924 0.12754 0.0
C4376 C 0.00652 0.68967 0.12863 0.0
C4377 C 0.99531 0.68151 0.11155 0.0
C4378 C 0.98143 0.69175 0.10338 0.0
C4379 C 0.97992 0.71057 0.11115 0.0
C4380 C 0.99946 0.66355 0.10089 0.0
C4381 C 0.98575 0.64659 0.09842 0.0
C4382 C 0.01681 0.66333 0.09277 0.0
C4383 C 0.03176 0.68088 0.09465 0.0
C4384 C 0.02803 0.69864 0.08738 0.0
C4385 C 0.04209 0.71523 0.0896 0.0
C4386 C 0.05998 0.7142 0.0989 0.0
C4387 C 0.06388 0.69654 0.10594 0.0
C4388 C 0.04986 0.67991 0.10379 0.0
C4389 C 1.0014 0.59001 0.03747 0.0
C4390 C 0.01779 0.58152 0.04157 0.0
C4391 C 0.9973 0.60525 0.04992 0.0
C4392 C 0.00969 0.6125 0.06654 0.0
C4393 C 0.02622 0.6042 0.07044 0.0
C4394 C 0.03019 0.58885 0.05813 0.0
C4395 C 0.006 0.62941 0.0793 0.0
C4396 C 0.01987 0.64631 0.08219 0.0
C4397 C 0.98883 0.62938 0.08797 0.0
C4398 C 0.97427 0.61148 0.08734 0.0
C4399 C 0.97942 0.59335 0.09218 0.0
C4400 C 0.96553 0.57689 0.0927 0.0
C4401 C 0.94638 0.57843 0.08883 0.0
C4402 C 0.94111 0.59638 0.0842 0.0
C4403 C 0.95494 0.61277 0.08325 0.0
H4404 H 0.93564 0.56571 0.08936 0.0
H4405 H 0.07084 0.72707 0.10063 0.0
H4406 H 0.06147 0.2859 0.81989 0.0
H4407 H 0.09117 0.28355 0.8058 0.0
H4408 H 0.12275 0.30459 0.86086 0.0
H4409 H 0.09312 0.30736 0.87489 0.0
H4410 H 0.14013 0.3216 0.8333 0.0
H4411 H 0.1161 0.25507 0.84334 0.0
H4412 H 0.09259 0.22482 0.84112 0.0
H4413 H 0.09021 0.22185 0.77897 0.0
H4414 H 0.11352 0.25225 0.7808 0.0
H4415 H 0.22719 0.29404 0.80253 0.0
H4416 H 0.19946 0.29675 0.82044 0.0
H4417 H 0.16257 0.28088 0.76742 0.0
H4418 H 0.18997 0.27822 0.74969 0.0
H4419 H 0.14924 0.26052 0.79648 0.0
H4420 H 0.17259 0.32822 0.78702 0.0
H4421 H 0.19625 0.35839 0.78979 0.0
H4422 H 0.20051 0.3586 0.85189 0.0
H4423 H 0.17706 0.32824 0.84949 0.0
C4424 C 0.07473 0.28999 0.82903 0.0
C4425 C 0.07483 0.29674 0.84857 0.0
C4426 C 0.09176 0.28856 0.82096 0.0
C4427 C 0.10937 0.29363 0.83227 0.0
C4428 C 0.10947 0.30055 0.85176 0.0
C4429 C 0.09245 0.30206 0.8598 0.0
C4430 C 0.1276 0.29181 0.82377 0.0
C4431 C 0.1422 0.30812 0.82553 0.0
C4432 C 0.13044 0.27434 0.81338 0.0
C4433 C 0.11643 0.25604 0.81221 0.0
C4434 C 0.11046 0.24805 0.82919 0.0
C4435 C 0.09719 0.23086 0.82801 0.0
C4436 C 0.08988 0.22144 0.80991 0.0
C4437 C 0.09586 0.22917 0.79297 0.0
C4438 C 0.10912 0.24637 0.79408 0.0
C4439 C 0.21316 0.29119 0.79476 0.0
C4440 C 0.2108 0.28592 0.77469 0.0
C4441 C 0.1973 0.29279 0.80497 0.0
C4442 C 0.1788 0.28906 0.7953 0.0
C4443 C 0.17658 0.28377 0.77529 0.0
C4444 C 0.19233 0.28233 0.76513 0.0
C4445 C 0.1616 0.29039 0.80576 0.0
C4446 C 0.14721 0.27396 0.80439 0.0
C4447 C 0.15904 0.30768 0.8166 0.0
C4448 C 0.17323 0.32584 0.81806 0.0
C4449 C 0.1787 0.33459 0.80126 0.0
C4450 C 0.19204 0.35175 0.80277 0.0
C4451 C 0.19988 0.36039 0.821 0.0
C4452 C 0.19441 0.35189 0.83778 0.0
C4453 C 0.18111 0.3347 0.83635 0.0
H4454 H 0.21019 0.37369 0.82214 0.0
H4455 H 0.0796 0.20814 0.80902 0.0
H4456 H 0.48882 0.71515 0.93656 0.0
H4457 H 0.48862 0.68173 0.94652 0.0
H4458 H 0.54948 0.6891 0.94654 0.0
H4459 H 0.54942 0.72212 0.93523 0.0
H4460 H 0.53574 0.65275 0.93623 0.0
H4461 H 0.52726 0.6979 0.98861 0.0
H4462 H 0.51252 0.7232 0.00547 0.0
H4463 H 0.45973 0.68371 0.00104 0.0
H4464 H 0.47411 0.65825 0.98391 0.0
H4465 H 0.55326 0.59049 0.01318 0.0
H4466 H 0.55158 0.61809 0.9928 0.0
H4467 H 0.49118 0.60018 0.98057 0.0
H4468 H 0.49282 0.57239 0.00074 0.0
H4469 H 0.50381 0.64036 0.99573 0.0
H4470 H 0.51558 0.59398 0.94532 0.0
H4471 H 0.53281 0.56979 0.93006 0.0
H4472 H 0.58304 0.61297 0.93428 0.0
H4473 H 0.5662 0.63737 0.94974 0.0
C4474 C 0.50206 0.70938 0.93832 0.0
C4475 C 0.51915 0.72101 0.93536 0.0
C4476 C 0.50198 0.6904 0.9441 0.0
C4477 C 0.51911 0.68314 0.94786 0.0
C4478 C 0.53611 0.69443 0.94385 0.0
C4479 C 0.5361 0.71325 0.93747 0.0
C4480 C 0.51939 0.66452 0.95736 0.0
C4481 C 0.5289 0.65012 0.94933 0.0
C4482 C 0.51037 0.661 0.97441 0.0
C4483 C 0.5017 0.67625 0.9848 0.0
C4484 C 0.51247 0.69466 0.99112 0.0
C4485 C 0.50419 0.70902 0.00074 0.0
C4486 C 0.48519 0.70509 0.00428 0.0
C4487 C 0.47444 0.68675 -0.00174 0.0
C4488 C 0.48265 0.67234 0.98861 0.0
C4489 C 0.53965 0.59246 0.00609 0.0
C4490 C 0.52312 0.57957 0.00862 0.0
C4491 C 0.53875 0.60805 0.99434 0.0
C4492 C 0.52128 0.61101 0.98517 0.0
C4493 C 0.50478 0.59801 0.98752 0.0
C4494 C 0.50572 0.58226 -0.00095 0.0
C4495 C 0.52002 0.62867 0.97454 0.0
C4496 C 0.51046 0.64295 0.9825 0.0
C4497 C 0.52941 0.63222 0.95779 0.0
C4498 C 0.53964 0.61748 0.94877 0.0
C4499 C 0.53034 0.59827 0.94314 0.0
C4500 C 0.54 0.58455 0.93439 0.0
C4501 C 0.55894 0.58988 0.93111 0.0
C4502 C 0.56833 0.6089 0.93673 0.0
C4503 C 0.55872 0.62269 0.94546 0.0
H4504 H 0.56635 0.57926 0.92423 0.0
H4505 H 0.4788 0.71623 0.01172 0.0
H4506 H 0.07655 0.82671 0.61874 0.0
H4507 H 0.10417 0.82523 0.64169 0.0
H4508 H 0.06856 0.79097 0.67814 0.0
H4509 H 0.04088 0.79287 0.6557 0.0
H4510 H 0.09526 0.81511 0.70004 0.0
H4511 H 0.09267 0.76857 0.64578 0.0
H4512 H 0.09038 0.75695 0.61123 0.0
H4513 H 0.1422 0.79501 0.60473 0.0
H4514 H 0.14465 0.80707 0.6392 0.0
H4515 H 0.17238 0.77034 0.74501 0.0
H4516 H 0.14225 0.7753 0.72745 0.0
H4517 H 0.17281 0.81758 0.69379 0.0
H4518 H 0.20264 0.81274 0.7111 0.0
H4519 H 0.14766 0.78791 0.67164 0.0
H4520 H 0.15038 0.83122 0.72967 0.0
H4521 H 0.15197 0.83774 0.76509 0.0
H4522 H 0.09797 0.80138 0.76556 0.0
H4523 H 0.09649 0.79372 0.73026 0.0
C4524 C 0.07457 0.81906 0.63174 0.0
C4525 C 0.05656 0.80968 0.63523 0.0
C4526 C 0.09035 0.81821 0.64483 0.0
C4527 C 0.08843 0.80766 0.66141 0.0
C4528 C 0.07036 0.79914 0.66542 0.0
C4529 C 0.05456 0.80018 0.65248 0.0
C4530 C 0.10535 0.80425 0.67379 0.0
C4531 C 0.10667 0.80903 0.69389 0.0
C4532 C 0.12012 0.79612 0.66575 0.0
C4533 C 0.11874 0.78887 0.64502 0.0
C4534 C 0.1035 0.77457 0.63694 0.0
C4535 C 0.10218 0.76789 0.61738 0.0
C4536 C 0.11611 0.77528 0.60578 0.0
C4537 C 0.1314 0.78933 0.61373 0.0
C4538 C 0.13277 0.79608 0.63328 0.0
C4539 C 0.17254 0.78079 0.73398 0.0
C4540 C 0.18972 0.79106 0.72925 0.0
C4541 C 0.15542 0.78361 0.72401 0.0
C4542 C 0.15543 0.79676 0.70934 0.0
C4543 C 0.17258 0.8073 0.705 0.0
C4544 C 0.18957 0.80453 0.71491 0.0
C4545 C 0.13778 0.79918 0.69778 0.0
C4546 C 0.13628 0.79406 0.6778 0.0
C4547 C 0.12274 0.80653 0.70607 0.0
C4548 C 0.12344 0.81166 0.72727 0.0
C4549 C 0.13895 0.82435 0.73732 0.0
C4550 C 0.13985 0.82824 0.75741 0.0
C4551 C 0.12507 0.82002 0.76756 0.0
C4552 C 0.10941 0.80775 0.75767 0.0
C4553 C 0.10858 0.80354 0.73763 0.0
H4554 H 0.12574 0.82317 0.7831 0.0
H4555 H 0.11506 0.77008 0.59063 0.0
H4556 H 0.02974 0.3435 0.398 0.0
H4557 H 0.02901 0.37532 0.41532 0.0
H4558 H 0.04885 0.3529 0.46891 0.0
H4559 H 0.04866 0.32094 0.45183 0.0
H4560 H 0.02202 0.37093 0.47564 0.0
H4561 H 0.07744 0.38711 0.44323 0.0
H4562 H 0.09677 0.38986 0.41565 0.0
H4563 H 0.06098 0.42755 0.38933 0.0
H4564 H 0.04125 0.42479 0.41661 0.0
H4565 H 0.05192 0.48484 0.50146 0.0
H4566 H 0.05848 0.4534 0.48774 0.0
H4567 H 0.99872 0.43038 0.48227 0.0
H4568 H 0.99215 0.46142 0.49647 0.0
H4569 H 0.04894 0.43537 0.45376 0.0
H4570 H 0.99068 0.38216 0.48547 0.0
H4571 H 0.97468 0.37964 0.51539 0.0
H4572 H 0.02269 0.41597 0.54754 0.0
H4573 H 0.03907 0.41849 0.51788 0.0
C4574 C 0.03408 0.34548 0.41344 0.0
C4575 C 0.03922 0.32981 0.42361 0.0
C4576 C 0.03377 0.36368 0.42332 0.0
C4577 C 0.03907 0.36662 0.44343 0.0
C4578 C 0.04462 0.35102 0.45344 0.0
C4579 C 0.04456 0.33277 0.44366 0.0
C4580 C 0.03788 0.38554 0.45431 0.0
C4581 C 0.02801 0.385 0.47087 0.0
C4582 C 0.04596 0.40395 0.44836 0.0
C4583 C 0.05776 0.40559 0.43189 0.0
C4584 C 0.07359 0.39586 0.43148 0.0
C4585 C 0.08464 0.39744 0.41592 0.0
C4586 C 0.08007 0.40883 0.40073 0.0
C4587 C 0.06448 0.4187 0.40109 0.0
C4588 C 0.05337 0.41715 0.41661 0.0
C4589 C 0.04022 0.47296 0.4976 0.0
C4590 C 0.02154 0.47558 0.5002 0.0
C4591 C 0.04398 0.45504 0.48968 0.0
C4592 C 0.02912 0.43943 0.48415 0.0
C4593 C 0.01048 0.44202 0.48684 0.0
C4594 C 0.00674 0.45982 0.49496 0.0
C4595 C 0.03293 0.42068 0.4749 0.0
C4596 C 0.04316 0.42126 0.4586 0.0
C4597 C 0.02569 0.40228 0.48142 0.0
C4598 C 0.01603 0.40064 0.4994 0.0
C4599 C 0.99786 0.38953 0.49894 0.0
C4600 C 0.98872 0.38812 0.51585 0.0
C4601 C 0.99764 0.39769 0.53334 0.0
C4602 C 0.01576 0.40863 0.53397 0.0
C4603 C 0.02497 0.41007 0.51711 0.0
H4604 H 0.99053 0.39659 0.54641 0.0
H4605 H 0.08865 0.41004 0.38869 0.0
H4606 H 0.46232 0.26177 0.17328 0.0
H4607 H 0.43856 0.26142 0.19658 0.0
H4608 H 0.40529 0.29296 0.15837 0.0
H4609 H 0.42863 0.29298 0.13484 0.0
H4610 H 0.4191 0.30992 0.2006 0.0
H4611 H 0.38751 0.2516 0.16 0.0
H4612 H 0.38561 0.21794 0.14508 0.0
H4613 H 0.39491 0.19658 0.20143 0.0
H4614 H 0.39724 0.2302 0.21667 0.0
H4615 H 0.33093 0.31851 0.23112 0.0
H4616 H 0.35987 0.31497 0.21659 0.0
H4617 H 0.36588 0.26437 0.24892 0.0
H4618 H 0.33598 0.26719 0.26254 0.0
H4619 H 0.37032 0.25516 0.2147 0.0
H4620 H 0.39828 0.31031 0.25656 0.0
H4621 H 0.40175 0.34314 0.27379 0.0
H4622 H 0.40247 0.36984 0.21954 0.0
H4623 H 0.39873 0.33717 0.20194 0.0
C4624 C 0.44972 0.26825 0.16969 0.0
C4625 C 0.4473 0.27745 0.1523 0.0
C4626 C 0.43623 0.26804 0.18299 0.0
C4627 C 0.42033 0.27725 0.17913 0.0
C4628 C 0.41753 0.2858 0.1615 0.0
C4629 C 0.43081 0.2857 0.14806 0.0
C4630 C 0.40732 0.27945 0.19404 0.0
C4631 C 0.40832 0.29804 0.2037 0.0
C4632 C 0.39407 0.26361 0.19869 0.0
C4633 C 0.39288 0.24348 0.18945 0.0
C4634 C 0.38945 0.23979 0.16919 0.0
C4635 C 0.38822 0.2207 0.16068 0.0
C4636 C 0.39024 0.20515 0.17229 0.0
C4637 C 0.39343 0.20865 0.19244 0.0
C4638 C 0.39471 0.22771 0.20102 0.0
C4639 C 0.33868 0.30693 0.23551 0.0
C4640 C 0.33134 0.29316 0.24799 0.0
C4641 C 0.35534 0.30498 0.2273 0.0
C4642 C 0.36531 0.28955 0.23187 0.0
C4643 C 0.35849 0.27641 0.24523 0.0
C4644 C 0.34154 0.27811 0.25313 0.0
C4645 C 0.38149 0.28599 0.22098 0.0
C4646 C 0.38124 0.2671 0.21206 0.0
C4647 C 0.3958 0.30148 0.21741 0.0
C4648 C 0.39814 0.32123 0.22792 0.0
C4649 C 0.39906 0.32317 0.24829 0.0
C4650 C 0.40109 0.34176 0.25813 0.0
C4651 C 0.40231 0.35856 0.24777 0.0
C4652 C 0.40154 0.35681 0.22755 0.0
C4653 C 0.3995 0.33825 0.21763 0.0
H4654 H 0.40387 0.37294 0.25541 0.0
H4655 H 0.38925 0.19038 0.16567 0.0
H4656 H 0.64864 0.49506 0.36405 0.0
H4657 H 0.63133 0.49528 0.3931 0.0
H4658 H 0.58575 0.51705 0.36057 0.0
H4659 H 0.60269 0.51678 0.33183 0.0
H4660 H 0.59545 0.53673 0.39664 0.0
H4661 H 0.58285 0.46876 0.36829 0.0
H4662 H 0.59261 0.43735 0.35782 0.0
H4663 H 0.61806 0.43282 0.41548 0.0
H4664 H 0.60856 0.46429 0.42627 0.0
H4665 H 0.51569 0.52374 0.44554 0.0
H4666 H 0.53717 0.51962 0.42081 0.0
H4667 H 0.57051 0.48908 0.46012 0.0
H4668 H 0.54833 0.49217 0.48448 0.0
H4669 H 0.57184 0.47446 0.4249 0.0
H4670 H 0.58241 0.53928 0.45498 0.0
H4671 H 0.57347 0.57055 0.46708 0.0
H4672 H 0.55491 0.58216 0.40893 0.0
H4673 H 0.56344 0.55078 0.3965 0.0
C4674 C 0.63501 0.50006 0.36321 0.0
C4675 C 0.62704 0.50589 0.34564 0.0
C4676 C 0.6251 0.50008 0.37976 0.0
C4677 C 0.60718 0.50608 0.37897 0.0
C4678 C 0.59954 0.51239 0.36156 0.0
C4679 C 0.60927 0.51218 0.3451 0.0
C4680 C 0.59589 0.50559 0.39591 0.0
C4681 C 0.59024 0.52311 0.40278 0.0
C4682 C 0.58966 0.48796 0.40446 0.0
C4683 C 0.59521 0.46899 0.39801 0.0
C4684 C 0.59064 0.46113 0.37869 0.0
C4685 C 0.59609 0.4433 0.37272 0.0
C4686 C 0.60598 0.43312 0.38597 0.0
C4687 C 0.61039 0.44072 0.40524 0.0
C4688 C 0.60498 0.45855 0.41129 0.0
C4689 C 0.5273 0.51567 0.44869 0.0
C4690 C 0.53038 0.50836 0.46694 0.0
C4691 C 0.53972 0.5135 0.43464 0.0
C4692 C 0.5559 0.50466 0.43881 0.0
C4693 C 0.55827 0.49613 0.45657 0.0
C4694 C 0.54553 0.49785 0.47048 0.0
C4695 C 0.57078 0.50551 0.42511 0.0
C4696 C 0.57721 0.48814 0.41897 0.0
C4697 C 0.57808 0.52339 0.41748 0.0
C4698 C 0.57347 0.54259 0.42482 0.0
C4699 C 0.57637 0.54847 0.44477 0.0
C4700 C 0.57136 0.56621 0.45169 0.0
C4701 C 0.5636 0.57832 0.43878 0.0
C4702 C 0.56092 0.57276 0.41891 0.0
C4703 C 0.56586 0.555 0.41191 0.0
H4704 H 0.55967 0.59203 0.44417 0.0
H4705 H 0.6102 0.41932 0.38132 0.0
H4706 H 0.20996 0.88315 0.07772 0.0
H4707 H 0.21242 0.87145 0.11077 0.0
H4708 H 0.25949 0.84297 0.09698 0.0
H4709 H 0.25723 0.85439 0.06472 0.0
H4710 H 0.23326 0.81771 0.11126 0.0
H4711 H 0.26597 0.8839 0.12756 0.0
H4712 H 0.26894 0.92005 0.13 0.0
H4713 H 0.22316 0.9169 0.16596 0.0
H4714 H 0.21975 0.88069 0.16352 0.0
H4715 H 0.27609 0.8122 0.21662 0.0
H4716 H 0.27184 0.83209 0.18867 0.0
H4717 H 0.21544 0.80003 0.17396 0.0
H4718 H 0.21956 0.78042 0.20167 0.0
H4719 H 0.2452 0.8566 0.17484 0.0
H4720 H 0.20913 0.78881 0.12544 0.0
H4721 H 0.20814 0.75285 0.12276 0.0
H4722 H 0.26433 0.75982 0.15217 0.0
H4723 H 0.26574 0.79581 0.15478 0.0
C4724 C 0.22097 0.87465 0.08191 0.0
C4725 C 0.23315 0.86948 0.06833 0.0
C4726 C 0.22237 0.86792 0.10079 0.0
C4727 C 0.23604 0.85604 0.10639 0.0
C4728 C 0.24865 0.85179 0.09309 0.0
C4729 C 0.24728 0.8584 0.0745 0.0
C4730 C 0.23697 0.84684 0.12547 0.0
C4731 C 0.23569 0.82629 0.12513 0.0
C4732 C 0.24042 0.85787 0.1437 0.0
C4733 C 0.24246 0.87959 0.14516 0.0
C4734 C 0.25642 0.89091 0.13584 0.0
C4735 C 0.25821 0.91141 0.13725 0.0
C4736 C 0.2462 0.92076 0.14808 0.0
C4737 C 0.23242 0.90963 0.15755 0.0
C4738 C 0.23056 0.88913 0.15616 0.0
C4739 C 0.26267 0.80972 0.20765 0.0
C4740 C 0.2482 0.79467 0.21138 0.0
C4741 C 0.26024 0.82108 0.19165 0.0
C4742 C 0.24334 0.81751 0.17901 0.0
C4743 C 0.22867 0.80302 0.18328 0.0
C4744 C 0.2311 0.79173 0.19915 0.0
C4745 C 0.24145 0.82753 0.16048 0.0
C4746 C 0.24254 0.84809 0.16094 0.0
C4747 C 0.23802 0.81658 0.14222 0.0
C4748 C 0.23745 0.79498 0.14047 0.0
C4749 C 0.22129 0.78266 0.13126 0.0
C4750 C 0.22066 0.76228 0.12977 0.0
C4751 C 0.23614 0.75406 0.13735 0.0
C4752 C 0.25232 0.7662 0.14637 0.0
C4753 C 0.25304 0.78659 0.14788 0.0
H4754 H 0.23561 0.73827 0.13619 0.0
H4755 H 0.24762 0.93663 0.14916 0.0
H4756 H 0.94797 0.56382 0.79662 0.0
H4757 H 0.96163 0.55735 0.82875 0.0
H4758 H 0.9116 0.57054 0.85338 0.0
H4759 H 0.89777 0.57694 0.82114 0.0
H4760 H 0.94392 0.58827 0.87545 0.0
H4761 H 0.91928 0.52389 0.84644 0.0
H4762 H 0.91488 0.4962 0.82149 0.0
H4763 H 0.97424 0.49262 0.83002 0.0
H4764 H 0.9791 0.5206 0.85474 0.0
H4765 H 0.96188 0.5531 0.96776 0.0
H4766 H 0.94841 0.5582 0.93534 0.0
H4767 H 0.99704 0.5405 0.91127 0.0
H4768 H 0.01056 0.53494 0.94388 0.0
H4769 H 0.96571 0.52508 0.88869 0.0
H4770 H 0.99061 0.59 0.91684 0.0
H4771 H 0.99517 0.61783 0.9417 0.0
H4772 H 0.93552 0.62026 0.93473 0.0
H4773 H 0.93056 0.59227 0.91 0.0
C4774 C 0.93981 0.56531 0.80884 0.0
C4775 C 0.92172 0.57089 0.80622 0.0
C4776 C 0.94765 0.56152 0.82725 0.0
C4777 C 0.93765 0.56327 0.8436 0.0
C4778 C 0.91964 0.56904 0.84106 0.0
C4779 C 0.91171 0.57266 0.82259 0.0
C4780 C 0.94609 0.55938 0.86331 0.0
C4781 C 0.94845 0.57435 0.87837 0.0
C4782 C 0.9525 0.54139 0.86715 0.0
C4783 C 0.9496 0.52454 0.85228 0.0
C4784 C 0.93145 0.51736 0.84286 0.0
C4785 C 0.92885 0.50157 0.82877 0.0
C4786 C 0.94427 0.49269 0.82413 0.0
C4787 C 0.96231 0.49955 0.8336 0.0
C4788 C 0.965 0.51538 0.84764 0.0
C4789 C 0.96985 0.55033 0.95566 0.0
C4790 C 0.9875 0.54379 0.95864 0.0
C4791 C 0.9621 0.55336 0.93701 0.0
C4792 C 0.9718 0.55016 0.9207 0.0
C4793 C 0.98927 0.54326 0.92354 0.0
C4794 C 0.99706 0.54017 0.94226 0.0
C4795 C 0.9636 0.554 0.90083 0.0
C4796 C 0.96126 0.53903 0.88574 0.0
C4797 C 0.95724 0.572 0.89692 0.0
C4798 C 0.9602 0.58893 0.91169 0.0
C4799 C 0.97845 0.59639 0.9207 0.0
C4800 C 0.9811 0.6122 0.93475 0.0
C4801 C 0.96564 0.62078 0.93982 0.0
C4802 C 0.94748 0.61359 0.9308 0.0
C4803 C 0.94474 0.59777 0.91675 0.0
H4804 H 0.96772 0.63301 0.95071 0.0
H4805 H 0.94223 0.48046 0.81324 0.0
H4806 H 0.25897 0.2141 0.53074 0.0
H4807 H 0.2598 0.22614 0.56443 0.0
H4808 H 0.28077 0.17419 0.58291 0.0
H4809 H 0.27979 0.16172 0.54895 0.0
H4810 H 0.25311 0.18351 0.60423 0.0
H4811 H 0.31068 0.21649 0.58578 0.0
H4812 H 0.33196 0.23566 0.56551 0.0
H4813 H 0.30228 0.28471 0.57283 0.0
H4814 H 0.28063 0.26573 0.59292 0.0
H4815 H 0.27443 0.22865 0.70075 0.0
H4816 H 0.27824 0.21356 0.66888 0.0
H4817 H 0.25223 0.25862 0.64139 0.0
H4818 H 0.24834 0.27383 0.67336 0.0
H4819 H 0.28589 0.25085 0.62623 0.0
H4820 H 0.22662 0.21502 0.6429 0.0
H4821 H 0.20721 0.1955 0.66458 0.0
H4822 H 0.24301 0.15108 0.66206 0.0
H4823 H 0.26275 0.17046 0.64051 0.0
C4824 C 0.26381 0.20516 0.54188 0.0
C4825 C 0.26941 0.18695 0.53709 0.0
C4826 C 0.26434 0.21214 0.56117 0.0
C4827 C 0.27064 0.2012 0.57613 0.0
C4828 C 0.27596 0.18288 0.57152 0.0
C4829 C 0.27541 0.17581 0.55213 0.0
C4830 C 0.27131 0.20904 0.59651 0.0
C4831 C 0.26057 0.19808 0.60916 0.0
C4832 C 0.28096 0.2281 0.60287 0.0
C4833 C 0.29393 0.23961 0.59075 0.0
C4834 C 0.30858 0.23131 0.58294 0.0
C4835 C 0.32073 0.24215 0.5715 0.0
C4836 C 0.31845 0.26138 0.56785 0.0
C4837 C 0.30402 0.26981 0.57566 0.0
C4838 C 0.29182 0.25902 0.5871 0.0
C4839 C 0.2695 0.23532 0.6879 0.0
C4840 C 0.26099 0.25231 0.6894 0.0
C4841 C 0.27167 0.22668 0.66976 0.0
C4842 C 0.26538 0.23492 0.65287 0.0
C4843 C 0.25714 0.25208 0.65433 0.0
C4844 C 0.25487 0.26068 0.67251 0.0
C4845 C 0.26728 0.22556 0.63364 0.0
C4846 C 0.27858 0.23622 0.62128 0.0
C4847 C 0.25839 0.20614 0.62769 0.0
C4848 C 0.24625 0.19427 0.64024 0.0
C4849 C 0.2304 0.20114 0.64705 0.0
C4850 C 0.21934 0.19009 0.6593 0.0
C4851 C 0.22391 0.17208 0.66473 0.0
C4852 C 0.2395 0.16504 0.65785 0.0
C4853 C 0.25061 0.17603 0.64559 0.0
H4854 H 0.21534 0.16358 0.67424 0.0
H4855 H 0.32788 0.26976 0.559 0.0
H4856 H 0.58867 0.51697 0.24607 0.0
H4857 H 0.57955 0.51685 0.21166 0.0
H4858 H 0.63443 0.50406 0.19937 0.0
H4859 H 0.64403 0.50453 0.23439 0.0
H4860 H 0.62353 0.53288 0.17766 0.0
H4861 H 0.59636 0.46865 0.18953 0.0
H4862 H 0.57874 0.44234 0.20625 0.0
H4863 H 0.52796 0.46763 0.19609 0.0
H4864 H 0.54531 0.49428 0.17957 0.0
H4865 H 0.58073 0.51417 0.07715 0.0
H4866 H 0.59786 0.51202 0.10908 0.0
H4867 H 0.55189 0.53148 0.13686 0.0
H4868 H 0.53516 0.53445 0.10505 0.0
H4869 H 0.56191 0.49534 0.14855 0.0
H4870 H 0.59155 0.56138 0.1392 0.0
H4871 H 0.60982 0.5866 0.12172 0.0
H4872 H 0.65715 0.5552 0.12555 0.0
H4873 H 0.63905 0.52963 0.14282 0.0
C4874 C 0.5989 0.51401 0.23619 0.0
C4875 C 0.61715 0.51076 0.24311 0.0
C4876 C 0.59357 0.51383 0.21641 0.0
C4877 C 0.60619 0.51017 0.2029 0.0
C4878 C 0.62443 0.50682 0.20958 0.0
C4879 C 0.62986 0.507 0.22957 0.0
C4880 C 0.6001 0.51059 0.18192 0.0
C4881 C 0.61031 0.52429 0.1711 0.0
C4882 C 0.58276 0.49953 0.1734 0.0
C4883 C 0.5722 0.48356 0.1834 0.0
C4884 C 0.58147 0.4687 0.19099 0.0
C4885 C 0.57152 0.45371 0.20042 0.0
C4886 C 0.55225 0.45333 0.20226 0.0
C4887 C 0.54288 0.46794 0.19465 0.0
C4888 C 0.55277 0.48299 0.18523 0.0
C4889 C 0.57442 0.51816 0.09011 0.0
C4890 C 0.55657 0.52426 0.08875 0.0
C4891 C 0.58428 0.51714 0.10828 0.0
C4892 C 0.57611 0.52159 0.12529 0.0
C4893 C 0.55841 0.52798 0.12389 0.0
C4894 C 0.54885 0.5296 0.10576 0.0
C4895 C 0.58509 0.51793 0.14452 0.0
C4896 C 0.57536 0.50359 0.15496 0.0
C4897 C 0.60299 0.52811 0.15246 0.0
C4898 C 0.61386 0.54347 0.14208 0.0
C4899 C 0.60578 0.55975 0.13614 0.0
C4900 C 0.61612 0.57413 0.12631 0.0
C4901 C 0.63461 0.57247 0.12247 0.0
C4902 C 0.64281 0.55645 0.1285 0.0
C4903 C 0.63252 0.54201 0.13832 0.0
H4904 H 0.64259 0.58362 0.11487 0.0
H4905 H 0.54457 0.4417 0.20955 0.0
H4906 H 0.21584 0.90005 0.94733 0.0
H4907 H 0.22157 0.88506 0.91583 0.0
H4908 H 0.23903 0.83586 0.94401 0.0
H4909 H 0.23305 0.85053 0.97534 0.0
H4910 H 0.26351 0.84983 0.91683 0.0
H4911 H 0.19646 0.83049 0.91992 0.0
H4912 H 0.16387 0.83626 0.92369 0.0
H4913 H 0.16491 0.87131 0.87466 0.0
H4914 H 0.19762 0.86598 0.87076 0.0
H4915 H 0.26584 0.78586 0.83321 0.0
H4916 H 0.2598 0.80041 0.86463 0.0
H4917 H 0.22907 0.84118 0.83543 0.0
H4918 H 0.23401 0.82575 0.8041 0.0
H4919 H 0.21157 0.83201 0.86361 0.0
H4920 H 0.27801 0.85275 0.86005 0.0
H4921 H 0.31076 0.84804 0.85555 0.0
H4922 H 0.31177 0.81281 0.90442 0.0
H4923 H 0.27894 0.81716 0.90909 0.0
C4924 C 0.22089 0.88604 0.94682 0.0
C4925 C 0.22393 0.87653 0.96394 0.0
C4926 C 0.22414 0.87745 0.92877 0.0
C4927 C 0.23071 0.85924 0.92744 0.0
C4928 C 0.23402 0.8499 0.94457 0.0
C4929 C 0.23052 0.85832 0.96252 0.0
C4930 C 0.23392 0.84975 0.90825 0.0
C4931 C 0.25212 0.84577 0.90524 0.0
C4932 C 0.21923 0.84483 0.89288 0.0
C4933 C 0.19956 0.84801 0.89518 0.0
C4934 C 0.1898 0.83957 0.91005 0.0
C4935 C 0.17129 0.84273 0.91219 0.0
C4936 C 0.16234 0.85419 0.89946 0.0
C4937 C 0.17187 0.86247 0.88453 0.0
C4938 C 0.19039 0.85937 0.88234 0.0
C4939 C 0.25772 0.79787 0.83352 0.0
C4940 C 0.25038 0.80458 0.81611 0.0
C4941 C 0.25441 0.80637 0.85156 0.0
C4942 C 0.2443 0.82236 0.8527 0.0
C4943 C 0.23688 0.82893 0.83522 0.0
C4944 C 0.23974 0.82008 0.81721 0.0
C4945 C 0.24129 0.83214 0.87195 0.0
C4946 C 0.22308 0.83615 0.87505 0.0
C4947 C 0.25607 0.8374 0.8873 0.0
C4948 C 0.27596 0.83515 0.88482 0.0
C4949 C 0.2852 0.84395 0.8698 0.0
C4950 C 0.30378 0.84135 0.86721 0.0
C4951 C 0.31333 0.83009 0.87966 0.0
C4952 C 0.30435 0.82151 0.89478 0.0
C4953 C 0.28577 0.82407 0.89742 0.0
H4954 H 0.32769 0.82806 0.8776 0.0
H4955 H 0.14801 0.85662 0.90114 0.0
H4956 H 0.90348 0.56094 0.68902 0.0
H4957 H 0.91374 0.55718 0.65623 0.0
H4958 H 0.972 0.57364 0.68018 0.0
H4959 H 0.96193 0.57751 0.7125 0.0
H4960 H 0.96655 0.58975 0.64675 0.0
H4961 H 0.95037 0.5241 0.66963 0.0
H4962 H 0.92831 0.49696 0.68058 0.0
H4963 H 0.89131 0.49587 0.62813 0.0
H4964 H 0.91304 0.52323 0.61704 0.0
H4965 H 0.02555 0.55144 0.5849 0.0
H4966 H 0.00737 0.55706 0.61218 0.0
H4967 H 0.95547 0.53493 0.57602 0.0
H4968 H 0.97388 0.52868 0.5488 0.0
H4969 H 0.95222 0.52373 0.6115 0.0
H4970 H 0.97422 0.58351 0.58528 0.0
H4971 H 0.99812 0.60855 0.57414 0.0
H4972 H 0.02324 0.62335 0.63267 0.0
H4973 H 1.0008 0.59694 0.64404 0.0
C4974 C 0.91842 0.5642 0.68717 0.0
C4975 C 0.93186 0.56949 0.70344 0.0
C4976 C 0.92431 0.56183 0.66844 0.0
C4977 C 0.94374 0.56483 0.66563 0.0
C4978 C 0.95697 0.57116 0.68179 0.0
C4979 C 0.95115 0.57336 0.70036 0.0
C4980 C 0.95077 0.56066 0.64632 0.0
C4981 C 0.96352 0.57529 0.63908 0.0
C4982 C 0.9463 0.54202 0.6358 0.0
C4983 C 0.93322 0.52575 0.64257 0.0
C4984 C 0.93746 0.51814 0.66051 0.0
C4985 C 0.92503 0.50273 0.66673 0.0
C4986 C 0.9084 0.49472 0.65507 0.0
C4987 C 0.90417 0.5021 0.63716 0.0
C4988 C 0.91654 0.51754 0.63089 0.0
C4989 C 0.01027 0.5475 0.58281 0.0
C4990 C 1.00117 0.5395 0.56466 0.0
C4991 C 0.99984 0.55084 0.59843 0.0
C4992 C 0.97992 0.5469 0.5962 0.0
C4993 C 0.97079 0.53821 0.57822 0.0
C4994 C 0.98132 0.53452 0.56263 0.0
C4995 C 0.96883 0.55257 0.61242 0.0
C4996 C 0.9552 0.53829 0.61896 0.0
C4997 C 0.97253 0.57163 0.6223 0.0
C4998 C 0.98581 0.58798 0.61554 0.0
C4999 C 0.98497 0.59186 0.59581 0.0
C5000 C 0.99833 0.60629 0.58943 0.0
C5001 C 0.01199 0.61776 0.6027 0.0
C5002 C 0.0126 0.6145 0.62239 0.0
C5003 C 0.99971 0.59959 0.62879 0.0
H5004 H 0.02214 0.62911 0.59772 0.0
H5005 H 0.89881 0.48277 0.65991 0.0
H5006 H 0.29679 0.19714 0.45022 0.0
H5007 H 0.29347 0.21223 0.41953 0.0
H5008 H 0.26577 0.15658 0.39124 0.0
H5009 H 0.26977 0.14113 0.42212 0.0
H5010 H 0.28741 0.17771 0.36702 0.0
H5011 H 0.23915 0.18811 0.40676 0.0
H5012 H 0.22576 0.19681 0.43697 0.0
H5013 H 0.25504 0.25596 0.43792 0.0
H5014 H 0.2689 0.24751 0.40789 0.0
H5015 H 0.23232 0.25085 0.31186 0.0
H5016 H 0.23602 0.22975 0.33837 0.0
H5017 H 0.29607 0.23574 0.33334 0.0
H5018 H 0.29245 0.25667 0.30651 0.0
H5019 H 0.25413 0.23553 0.37242 0.0
H5020 H 0.31173 0.19239 0.3439 0.0
H5021 H 0.32034 0.17885 0.31282 0.0
H5022 H 0.26397 0.17936 0.28634 0.0
H5023 H 0.25493 0.19259 0.31729 0.0
C5024 C 0.29031 0.18803 0.43737 0.0
C5025 C 0.28331 0.16808 0.43846 0.0
C5026 C 0.28841 0.19666 0.41988 0.0
C5027 C 0.27895 0.18562 0.40326 0.0
C5028 C 0.27302 0.16534 0.40397 0.0
C5029 C 0.27528 0.15656 0.42153 0.0
C5030 C 0.27391 0.19587 0.38589 0.0
C5031 C 0.28015 0.19035 0.36812 0.0
C5032 C 0.26373 0.21185 0.38723 0.0
C5033 C 0.25517 0.21714 0.40513 0.0
C5034 C 0.24283 0.20295 0.41347 0.0
C5035 C 0.23515 0.20783 0.43056 0.0
C5036 C 0.23957 0.22692 0.43937 0.0
C5037 C 0.25164 0.24117 0.43108 0.0
C5038 C 0.2594 0.23635 0.41401 0.0
C5039 C 0.24636 0.24786 0.31647 0.0
C5040 C 0.2621 0.25546 0.30706 0.0
C5041 C 0.24843 0.23573 0.3316 0.0
C5042 C 0.26625 0.23091 0.33761 0.0
C5043 C 0.28211 0.23896 0.32867 0.0
C5044 C 0.28006 0.2511 0.31349 0.0
C5045 C 0.26827 0.21791 0.3536 0.0
C5046 C 0.26139 0.22289 0.37119 0.0
C5047 C 0.27717 0.201 0.35179 0.0
C5048 C 0.2827 0.19362 0.33293 0.0
C5049 C 0.30116 0.18957 0.33146 0.0
C5050 C 0.3061 0.18189 0.31388 0.0
C5051 C 0.29266 0.17808 0.29767 0.0
C5052 C 0.27434 0.18222 0.29893 0.0
C5053 C 0.26932 0.18987 0.31648 0.0
H5054 H 0.29651 0.17211 0.28408 0.0
H5055 H 0.23362 0.23068 0.45261 0.0
H5056 H 0.32302 0.60659 0.50904 0.0
H5057 H 0.34966 0.58836 0.51097 0.0
H5058 H 0.3882 0.64189 0.50665 0.0
H5059 H 0.36137 0.66015 0.50412 0.0
H5060 H 0.39942 0.6147 0.48565 0.0
H5061 H 0.38357 0.61793 0.55048 0.0
H5062 H 0.36385 0.61472 0.57771 0.0
H5063 H 0.35053 0.5524 0.56388 0.0
H5064 H 0.36993 0.55526 0.53636 0.0
H5065 H 0.47957 0.56643 0.50723 0.0
H5066 H 0.45617 0.5884 0.50918 0.0
H5067 H 0.41237 0.53863 0.51131 0.0
H5068 H 0.43629 0.51683 0.51159 0.0
H5069 H 0.40605 0.5666 0.53514 0.0
H5070 H 0.41691 0.56771 0.4648 0.0
H5071 H 0.44145 0.57014 0.44195 0.0
H5072 H 0.46895 0.6246 0.47199 0.0
H5073 H 0.44391 0.62307 0.49421 0.0
C5074 C 0.33716 0.61458 0.50865 0.0
C5075 C 0.33994 0.63495 0.50655 0.0
C5076 C 0.35251 0.60408 0.50984 0.0
C5077 C 0.37123 0.61363 0.50928 0.0
C5078 C 0.37403 0.63402 0.50717 0.0
C5079 C 0.35863 0.64452 0.50583 0.0
C5080 C 0.38766 0.60225 0.51054 0.0
C5081 C 0.40085 0.60437 0.49665 0.0
C5082 C 0.38995 0.58862 0.52481 0.0
C5083 C 0.37803 0.58686 0.54119 0.0
C5084 C 0.37628 0.60357 0.55311 0.0
C5085 C 0.36519 0.6018 0.56863 0.0
C5086 C 0.35589 0.58338 0.57248 0.0
C5087 C 0.3577 0.56667 0.56085 0.0
C5088 C 0.36875 0.56835 0.54529 0.0
C5089 C 0.46499 0.56011 0.50794 0.0
C5090 C 0.45988 0.53978 0.50903 0.0
C5091 C 0.45142 0.57276 0.50884 0.0
C5092 C 0.43213 0.56534 0.50974 0.0
C5093 C 0.42702 0.54494 0.51057 0.0
C5094 C 0.44073 0.5324 0.51051 0.0
C5095 C 0.41723 0.57862 0.50995 0.0
C5096 C 0.40443 0.57689 0.52413 0.0
C5097 C 0.41545 0.59279 0.49621 0.0
C5098 C 0.42853 0.59534 0.481 0.0
C5099 C 0.42792 0.58045 0.46614 0.0
C5100 C 0.44189 0.58169 0.45331 0.0
C5101 C 0.45669 0.59758 0.45544 0.0
C5102 C 0.45732 0.61247 0.47015 0.0
C5103 C 0.44306 0.61162 0.48264 0.0
H5104 H 0.46765 0.59835 0.44569 0.0
H5105 H 0.34733 0.58204 0.58452 0.0
H5106 H 0.83248 0.92036 0.55094 0.0
H5107 H 0.86403 0.93986 0.55275 0.0
H5108 H 0.83941 0.99002 0.53502 0.0
H5109 H 0.80763 0.9706 0.5333 0.0
H5110 H 0.86847 0.98071 0.513 0.0
H5111 H 0.8582 0.9913 0.57983 0.0
H5112 H 0.84972 0.9814 0.61182 0.0
H5113 H 0.89555 0.94796 0.61628 0.0
H5114 H 0.90414 0.95743 0.58417 0.0
H5115 H 0.95478 0.04406 0.51986 0.0
H5116 H 0.92276 0.03079 0.52662 0.0
H5117 H 0.94358 0.98145 0.55161 0.0
H5118 H 0.97586 0.99505 0.54545 0.0
H5119 H 0.91574 0.99208 0.57101 0.0
H5120 H 0.92478 0.97839 0.50435 0.0
H5121 H 0.93386 0.9867 0.47209 0.0
H5122 H 0.89065 0.02335 0.46653 0.0
H5123 H 0.88152 0.01551 0.49893 0.0
C5124 C 0.83372 0.93561 0.54763 0.0
C5125 C 0.81754 0.94392 0.54192 0.0
C5126 C 0.85177 0.94675 0.54876 0.0
C5127 C 0.85403 0.96639 0.5441 0.0
C5128 C 0.83792 0.97488 0.53873 0.0
C5129 C 0.8198 0.9638 0.53784 0.0
C5130 C 0.8733 0.97754 0.54363 0.0
C5131 C 0.8787 0.98357 0.52575 0.0
C5132 C 0.8868 0.9806 0.56015 0.0
C5133 C 0.88171 0.97495 0.57951 0.0
C5134 C 0.86638 0.9817 0.58756 0.0
C5135 C 0.86157 0.97619 0.60573 0.0
C5136 C 0.87206 0.96402 0.61606 0.0
C5137 C 0.88742 0.95737 0.60825 0.0
C5138 C 0.89228 0.96283 0.59008 0.0
C5139 C 0.9526 0.03055 0.5271 0.0
C5140 C 0.96778 0.02048 0.53197 0.0
C5141 C 0.93428 0.02295 0.53089 0.0
C5142 C 0.9307 0.00489 0.5392 0.0
C5143 C 0.946 0.99537 0.54511 0.0
C5144 C 0.96443 0.00315 0.54159 0.0
C5145 C 0.9109 0.99532 0.54037 0.0
C5146 C 0.90544 0.98945 0.5583 0.0
C5147 C 0.89739 0.99209 0.52382 0.0
C5148 C 0.90259 0.99652 0.50416 0.0
C5149 C 0.91728 0.98831 0.4963 0.0
C5150 C 0.92244 0.99294 0.47799 0.0
C5151 C 0.91287 0.00559 0.46729 0.0
C5152 C 0.89807 0.01358 0.47486 0.0
C5153 C 0.89289 0.00905 0.49319 0.0
H5154 H 0.91689 0.00917 0.45313 0.0
H5155 H 0.86832 0.95977 0.63012 0.0
H5156 H 0.87116 0.12124 0.25142 0.0
H5157 H 0.85306 0.14804 0.2562 0.0
H5158 H 0.80219 0.11054 0.23055 0.0
H5159 H 0.8203 0.08349 0.22569 0.0
H5160 H 0.80603 0.14758 0.21719 0.0
H5161 H 0.80934 0.12031 0.27946 0.0
H5162 H 0.82602 0.10885 0.30823 0.0
H5163 H 0.85856 0.16641 0.32127 0.0
H5164 H 0.84215 0.17816 0.29247 0.0
H5165 H 0.74107 0.20867 0.24259 0.0
H5166 H 0.75868 0.18132 0.23945 0.0
H5167 H 0.8075 0.21621 0.27236 0.0
H5168 H 0.78951 0.24349 0.27595 0.0
H5169 H 0.80494 0.18015 0.2827 0.0
H5170 H 0.80638 0.20702 0.22136 0.0
H5171 H 0.79525 0.21954 0.19084 0.0
H5172 H 0.75789 0.16509 0.17495 0.0
H5173 H 0.76923 0.15201 0.20548 0.0
C5174 C 0.85615 0.11867 0.24663 0.0
C5175 C 0.84719 0.10017 0.23815 0.0
C5176 C 0.84577 0.13401 0.24955 0.0
C5177 C 0.82618 0.13124 0.24409 0.0
C5178 C 0.81727 0.11299 0.23503 0.0
C5179 C 0.82765 0.09756 0.23219 0.0
C5180 C 0.81512 0.14752 0.24755 0.0
C5181 C 0.80546 0.15441 0.23157 0.0
C5182 C 0.81502 0.15703 0.26622 0.0
C5183 C 0.82459 0.1501 0.28376 0.0
C5184 C 0.8201 0.13051 0.28843 0.0
C5185 C 0.82949 0.12396 0.30475 0.0
C5186 C 0.84334 0.1369 0.31657 0.0
C5187 C 0.84779 0.15642 0.31213 0.0
C5188 C 0.83842 0.16305 0.29584 0.0
C5189 C 0.75553 0.21054 0.24928 0.0
C5190 C 0.76392 0.22841 0.25952 0.0
C5191 C 0.76567 0.19487 0.24733 0.0
C5192 C 0.78463 0.19669 0.2553 0.0
C5193 C 0.79293 0.21436 0.26598 0.0
C5194 C 0.78266 0.23005 0.26804 0.0
C5195 C 0.79564 0.18016 0.25228 0.0
C5196 C 0.80532 0.17321 0.26834 0.0
C5197 C 0.79607 0.17074 0.23363 0.0
C5198 C 0.78845 0.17868 0.21577 0.0
C5199 C 0.79563 0.1978 0.21146 0.0
C5200 C 0.78931 0.20497 0.19409 0.0
C5201 C 0.77568 0.19324 0.18094 0.0
C5202 C 0.7684 0.1742 0.18516 0.0
C5203 C 0.77484 0.16686 0.20246 0.0
H5204 H 0.77084 0.19882 0.16745 0.0
H5205 H 0.85063 0.13179 0.32917 0.0
H5206 H 0.71964 0.16811 0.98116 0.0
H5207 H 0.68893 0.14874 0.98438 0.0
H5208 H 0.7166 0.104 0.01031 0.0
H5209 H 0.74762 0.12328 0.00681 0.0
H5210 H 0.68559 0.08727 0.98675 0.0
H5211 H 0.69841 0.13759 0.03849 0.0
H5212 H 0.70738 0.17131 0.05374 0.0
H5213 H 0.65939 0.18889 0.02178 0.0
H5214 H 0.65027 0.15531 0.00612 0.0
H5215 H 0.60142 0.04647 0.03023 0.0
H5216 H 0.63379 0.06235 0.02625 0.0
H5217 H 0.61103 0.10376 0.99033 0.0
H5218 H 0.57879 0.08765 0.99383 0.0
H5219 H 0.64023 0.12099 0.02073 0.0
H5220 H 0.6282 0.07016 0.96851 0.0
H5221 H 0.61927 0.03606 0.95425 0.0
H5222 H 0.66597 0.01897 0.98881 0.0
H5223 H 0.675 0.05294 0.00352 0.0
C5224 C 0.7193 0.15409 0.98743 0.0
C5225 C 0.73624 0.14742 0.9939 0.0
C5226 C 0.70164 0.14302 0.98934 0.0
C5227 C 0.70032 0.12505 0.99801 0.0
C5228 C 0.71716 0.11786 0.00368 0.0
C5229 C 0.73493 0.12892 0.00166 0.0
C5230 C 0.68137 0.11429 0.00169 0.0
C5231 C 0.67581 0.09459 0.99444 0.0
C5232 C 0.66838 0.12377 0.01156 0.0
C5233 C 0.67375 0.14397 0.02101 0.0
C5234 C 0.68984 0.14868 0.03461 0.0
C5235 C 0.69494 0.16776 0.04334 0.0
C5236 C 0.68398 0.18224 0.0387 0.0
C5237 C 0.66787 0.17766 0.02535 0.0
C5238 C 0.66272 0.1586 0.01655 0.0
C5239 C 0.60336 0.05895 0.02149 0.0
C5240 C 0.58757 0.06583 0.01236 0.0
C5241 C 0.62184 0.06798 0.01918 0.0
C5242 C 0.62487 0.08425 0.00796 0.0
C5243 C 0.60908 0.09126 -0.00094 0.0
C5244 C 0.59065 0.08201 0.00105 0.0
C5245 C 0.64442 0.09415 0.00558 0.0
C5246 C 0.65007 0.11369 0.01312 0.0
C5247 C 0.6575 0.08446 0.99616 0.0
C5248 C 0.65214 0.06405 0.98729 0.0
C5249 C 0.63645 0.05909 0.97322 0.0
C5250 C 0.63139 0.0398 0.96502 0.0
C5251 C 0.64201 0.02534 0.97066 0.0
C5252 C 0.65774 0.03017 0.98448 0.0
C5253 C 0.66284 0.04945 0.99275 0.0
H5254 H 0.63808 0.01041 0.96429 0.0
H5255 H 0.68795 0.19701 0.04547 0.0
H5256 H 0.16952 0.46451 0.26423 0.0
H5257 H 0.18666 0.43653 0.26194 0.0
H5258 H 0.14095 0.39999 0.28478 0.0
H5259 H 0.12365 0.42799 0.28703 0.0
H5260 H 0.17523 0.39432 0.30223 0.0
H5261 H 0.14722 0.39456 0.23752 0.0
H5262 H 0.13865 0.40708 0.20593 0.0
H5263 H 0.19748 0.42035 0.197 0.0
H5264 H 0.20644 0.40828 0.22871 0.0
H5265 H 0.21892 0.30813 0.28191 0.0
H5266 H 0.19644 0.33157 0.28442 0.0
H5267 H 0.23319 0.37348 0.25581 0.0
H5268 H 0.25479 0.34987 0.25228 0.0
H5269 H 0.19985 0.37375 0.24123 0.0
H5270 H 0.22761 0.37605 0.30755 0.0
H5271 H 0.23588 0.362 0.33845 0.0
H5272 H 0.17695 0.34218 0.34328 0.0
H5273 H 0.16835 0.35594 0.31228 0.0
C5274 C 0.16301 0.4505 0.26864 0.0
C5275 C 0.14512 0.44855 0.27573 0.0
C5276 C 0.17284 0.43445 0.26729 0.0
C5277 C 0.16512 0.41599 0.27308 0.0
C5278 C 0.14727 0.41401 0.28021 0.0
C5279 C 0.13732 0.43004 0.28139 0.0
C5280 C 0.17588 0.39899 0.27189 0.0
C5281 C 0.18034 0.3896 0.28877 0.0
C5282 C 0.18281 0.39283 0.25445 0.0
C5283 C 0.17751 0.40076 0.23565 0.0
C5284 C 0.15835 0.40042 0.22896 0.0
C5285 C 0.15342 0.40738 0.211 0.0
C5286 C 0.16751 0.41457 0.1995 0.0
C5287 C 0.18657 0.41484 0.20595 0.0
C5288 C 0.19159 0.40796 0.22393 0.0
C5289 C 0.222 0.32224 0.27593 0.0
C5290 C 0.23851 0.32695 0.26659 0.0
C5291 C 0.20928 0.33581 0.27764 0.0
C5292 C 0.21304 0.35455 0.27043 0.0
C5293 C 0.22974 0.35922 0.26143 0.0
C5294 C 0.24221 0.34566 0.25951 0.0
C5295 C 0.19965 0.36931 0.27153 0.0
C5296 C 0.19462 0.3783 0.25461 0.0
C5297 C 0.19221 0.375 0.28887 0.0
C5298 C 0.19736 0.36684 0.30752 0.0
C5299 C 0.21643 0.36858 0.31515 0.0
C5300 C 0.22117 0.3607 0.33268 0.0
C5301 C 0.20695 0.35116 0.34279 0.0
C5302 C 0.18795 0.34954 0.33542 0.0
C5303 C 0.18313 0.3574 0.31788 0.0
H5304 H 0.21065 0.34506 0.35636 0.0
H5305 H 0.16365 0.41989 0.18556 0.0
H5306 H 0.20467 0.43293 0.9856 0.0
H5307 H 0.17807 0.44975 0.97654 0.0
H5308 H 0.19267 0.48876 0.02854 0.0
H5309 H 0.22012 0.47255 0.03704 0.0
H5310 H 0.14841 0.45121 0.99115 0.0
H5311 H 0.17626 0.53135 0.02475 0.0
H5312 H 0.20619 0.55472 0.02903 0.0
H5313 H 0.22641 0.52439 0.98131 0.0
H5314 H 0.19651 0.50101 0.97655 0.0
H5315 H 0.07444 0.49415 0.01767 0.0
H5316 H 0.10479 0.48334 0.01574 0.0
H5317 H 0.11849 0.52497 0.97323 0.0
H5318 H 0.08797 0.53685 0.97606 0.0
H5319 H 0.14899 0.52328 0.99716 0.0
H5320 H 0.10423 0.47544 0.95951 0.0
H5321 H 0.07391 0.45301 0.95186 0.0
H5322 H 0.08822 0.41905 -0.00073 0.0
H5323 H 0.11846 0.44149 0.00749 0.0
C5324 C 0.20229 0.4452 0.99504 0.0
C5325 C 0.21438 0.45139 0.01209 0.0
C5326 C 0.18706 0.45483 0.98983 0.0
C5327 C 0.18332 0.47066 0.00173 0.0
C5328 C 0.19545 0.47691 0.01882 0.0
C5329 C 0.21104 0.46754 0.02379 0.0
C5330 C 0.16598 0.4796 0.99693 0.0
C5331 C 0.14865 0.46698 0.99227 0.0
C5332 C 0.1662 0.5002 0.99772 0.0
C5333 C 0.18418 0.51432 0.0004 0.0
C5334 C 0.18705 0.52972 0.0151 0.0
C5335 C 0.20402 0.54296 0.01763 0.0
C5336 C 0.21821 0.541 0.00548 0.0
C5337 C 0.21544 0.52584 0.99075 0.0
C5338 C 0.19849 0.51258 0.98815 0.0
C5339 C 0.08384 0.50104 0.00784 0.0
C5340 C 0.07878 0.51614 0.99677 0.0
C5341 C 0.1012 0.49476 0.00669 0.0
C5342 C 0.1137 0.50287 0.99389 0.0
C5343 C 0.10894 0.51834 0.98305 0.0
C5344 C 0.09155 0.52505 0.98458 0.0
C5345 C 0.13158 0.49483 0.9922 0.0
C5346 C 0.14894 0.50755 0.99563 0.0
C5347 C 0.1315 0.47431 0.98951 0.0
C5348 C 0.11364 0.46023 0.98416 0.0
C5349 C 0.10091 0.46322 0.96834 0.0
C5350 C 0.08372 0.45051 0.96392 0.0
C5351 C 0.07914 0.43465 0.9751 0.0
C5352 C 0.0918 0.43136 0.99063 0.0
C5353 C 0.10899 0.44405 0.99516 0.0
H5354 H 0.06578 0.42494 0.97175 0.0
H5355 H 0.23135 0.55126 0.00747 0.0
H5356 H 0.83439 0.00321 0.23448 0.0
H5357 H 0.81472 0.97094 0.2353 0.0
H5358 H 0.8651 0.94446 0.24523 0.0
H5359 H 0.88471 0.97634 0.24462 0.0
H5360 H 0.81133 0.93457 0.21471 0.0
H5361 H 0.85859 0.91166 0.27896 0.0
H5362 H 0.88004 0.92728 0.3073 0.0
H5363 H 0.85035 0.97681 0.30824 0.0
H5364 H 0.82855 0.96135 0.28011 0.0
H5365 H 0.78954 0.83104 0.2262 0.0
H5366 H 0.80399 0.86465 0.22122 0.0
H5367 H 0.78636 0.88524 0.27552 0.0
H5368 H 0.77233 0.85185 0.28075 0.0
H5369 H 0.82136 0.89968 0.27431 0.0
H5370 H 0.7653 0.89528 0.23038 0.0
H5371 H 0.74176 0.881 0.20316 0.0
H5372 H 0.78467 0.88819 0.16384 0.0
H5373 H 0.80854 0.90228 0.19088 0.0
C5374 C 0.84128 0.99049 0.23666 0.0
C5375 C 0.86118 0.99252 0.23969 0.0
C5376 C 0.83001 0.97203 0.23708 0.0
C5377 C 0.83842 0.95529 0.2406 0.0
C5378 C 0.85825 0.95718 0.2428 0.0
C5379 C 0.86947 0.97551 0.24242 0.0
C5380 C 0.8267 0.936 0.24302 0.0
C5381 C 0.81348 0.92692 0.22774 0.0
C5382 C 0.82921 0.92614 0.26016 0.0
C5383 C 0.84205 0.93541 0.27731 0.0
C5384 C 0.85658 0.92584 0.28528 0.0
C5385 C 0.86881 0.93467 0.3013 0.0
C5386 C 0.86659 0.95305 0.30953 0.0
C5387 C 0.85209 0.9626 0.30181 0.0
C5388 C 0.83981 0.95382 0.28582 0.0
C5389 C 0.78854 0.84277 0.23696 0.0
C5390 C 0.77983 0.83866 0.25392 0.0
C5391 C 0.79678 0.86203 0.23407 0.0
C5392 C 0.79626 0.8776 0.24797 0.0
C5393 C 0.7871 0.87354 0.26462 0.0
C5394 C 0.77902 0.85436 0.26757 0.0
C5395 C 0.80612 0.89793 0.24586 0.0
C5396 C 0.81909 0.90724 0.26125 0.0
C5397 C 0.80305 0.90809 0.22899 0.0
C5398 C 0.78874 0.89967 0.21269 0.0
C5399 C 0.76975 0.89368 0.21595 0.0
C5400 C 0.75634 0.88564 0.20055 0.0
C5401 C 0.76172 0.88365 0.18179 0.0
C5402 C 0.78052 0.88973 0.17839 0.0
C5403 C 0.79399 0.89776 0.19374 0.0
H5404 H 0.75132 0.87742 0.16989 0.0
H5405 H 0.87609 0.95988 0.32191 0.0
H5406 H 0.61858 0.0716 0.79272 0.0
H5407 H 0.63975 0.1023 0.79026 0.0
H5408 H 0.68097 0.06998 0.76778 0.0
H5409 H 0.66 0.03906 0.77058 0.0
H5410 H 0.69846 0.09985 0.7922 0.0
H5411 H 0.65199 0.09272 0.73746 0.0
H5412 H 0.61989 0.08709 0.72004 0.0
H5413 H 0.60679 0.13847 0.7506 0.0
H5414 H 0.63873 0.14426 0.76842 0.0
H5415 H 0.74776 0.18623 0.75284 0.0
H5416 H 0.73018 0.15329 0.75618 0.0
H5417 H 0.6894 0.17941 0.78672 0.0
H5418 H 0.70694 0.2121 0.78371 0.0
H5419 H 0.67293 0.15171 0.75625 0.0
H5420 H 0.71989 0.1578 0.81157 0.0
H5421 H 0.75243 0.16327 0.82793 0.0
H5422 H 0.76519 0.11352 0.79439 0.0
H5423 H 0.73278 0.10792 0.77762 0.0
C5424 C 0.63217 0.07094 0.78734 0.0
C5425 C 0.63745 0.05277 0.7817 0.0
C5426 C 0.64427 0.08857 0.78586 0.0
C5427 C 0.66185 0.08854 0.77846 0.0
C5428 C 0.66746 0.07043 0.77344 0.0
C5429 C 0.6554 0.05274 0.77503 0.0
C5430 C 0.67407 0.10744 0.77558 0.0
C5431 C 0.69294 0.11106 0.78408 0.0
C5432 C 0.66692 0.12221 0.76513 0.0
C5433 C 0.6477 0.11882 0.75441 0.0
C5434 C 0.64221 0.10274 0.74058 0.0
C5435 C 0.62405 0.09953 0.73061 0.0
C5436 C 0.61129 0.11239 0.73424 0.0
C5437 C 0.61668 0.12851 0.74782 0.0
C5438 C 0.63482 0.13178 0.75784 0.0
C5439 C 0.73513 0.18487 0.7604 0.0
C5440 C 0.72871 0.20171 0.76801 0.0
C5441 C 0.72512 0.16608 0.76232 0.0
C5442 C 0.70846 0.1639 0.7717 0.0
C5443 C 0.70217 0.18073 0.77939 0.0
C5444 C 0.71226 0.19941 0.77771 0.0
C5445 C 0.69714 0.1442 0.77312 0.0
C5446 C 0.67844 0.14043 0.76427 0.0
C5447 C 0.70452 0.12928 0.78307 0.0
C5448 C 0.72398 0.13259 0.79318 0.0
C5449 C 0.72969 0.14814 0.80755 0.0
C5450 C 0.74809 0.15124 0.81693 0.0
C5451 C 0.76089 0.13879 0.81216 0.0
C5452 C 0.75528 0.12317 0.79804 0.0
C5453 C 0.73689 0.12002 0.78861 0.0
H5454 H 0.77513 0.14121 0.81944 0.0
H5455 H 0.59724 0.10988 0.72651 0.0
loop_
_geom_bond_atom_site_label_1
_geom_bond_atom_site_label_2
_geom_bond_distance
_geom_bond_site_symmetry_2
_ccdc_geom_bond_type
Co0 O1 2.216 . S
Co0 O2 2.091 . S
Co0 O4 2.004 1_455 S
Co0 O10 2.021 . S
Co0 O12 2.137 . S
Co0 O13 2.244 . S
O1 Co0 2.216 . S
O1 C8 1.247 . S
O2 Co0 2.091 . S
O2 C8 1.261 . S
C3 O12 1.247 . S
C3 O13 1.272 . S
O4 Co0 2.004 1_655 S
O4 C9 1.259 . S
Co5 O6 2.061 . S
Co5 O11 2.052 1_655 S
Co5 O13 2.135 1_655 S
O6 Co5 2.061 . S
O6 C9 1.235 . S
C7 O10 1.238 . S
C7 O11 1.241 . S
C8 O1 1.247 . S
C8 O2 1.261 . S
C9 O4 1.259 . S
C9 O6 1.235 . S
O10 Co0 2.021 . S
O10 C7 1.238 . S
O11 Co5 2.052 1_455 S
O11 C7 1.241 . S
O12 Co0 2.137 . S
O12 C3 1.247 . S
O13 Co0 2.244 . S
O13 C3 1.272 . S
O13 Co5 2.135 1_455 S
Co14 O15 2.216 . S
Co14 O16 2.091 . S
Co14 O18 2.004 1_655 S
Co14 O24 2.021 . S
Co14 O26 2.137 . S
Co14 O27 2.244 1_655 S
O15 Co14 2.216 . S
O15 C22 1.247 . S
O16 Co14 2.091 . S
O16 C22 1.261 . S
C17 O26 1.247 1_455 S
C17 O27 1.272 . S
O18 Co14 2.004 1_455 S
O18 C23 1.259 . S
Co19 O20 2.061 . S
Co19 O25 2.052 . S
Co19 O27 2.135 . S
O20 Co19 2.061 . S
O20 C23 1.235 . S
C21 O24 1.253 . S
C21 O25 1.222 1_655 S
C22 O15 1.247 . S
C22 O16 1.261 . S
C23 O18 1.259 . S
C23 O20 1.235 . S
O24 Co14 2.021 . S
O24 C21 1.253 . S
O25 Co19 2.052 . S
O25 C21 1.222 1_455 S
O26 Co14 2.137 . S
O26 C17 1.247 1_655 S
O27 Co14 2.244 1_455 S
O27 C17 1.272 . S
O27 Co19 2.135 . S
Co28 O29 2.216 . S
Co28 O30 2.091 . S
Co28 O32 2.004 . S
Co28 O38 2.021 . S
Co28 O40 2.137 . S
Co28 O41 2.244 . S
O29 Co28 2.216 . S
O29 C36 1.247 . S
O30 Co28 2.091 . S
O30 C36 1.261 . S
C31 O40 1.247 . S
C31 O41 1.272 . S
O32 Co28 2.004 . S
O32 C37 1.259 . S
Co33 O34 2.061 . S
Co33 O39 2.052 . S
Co33 O41 2.135 . S
O34 Co33 2.061 . S
O34 C37 1.235 . S
C35 O38 1.238 . S
C35 O39 1.241 . S
C36 O29 1.247 . S
C36 O30 1.261 . S
C37 O32 1.259 . S
C37 O34 1.235 . S
O38 Co28 2.021 . S
O38 C35 1.238 . S
O39 Co33 2.052 . S
O39 C35 1.241 . S
O40 Co28 2.137 . S
O40 C31 1.247 . S
O41 Co28 2.244 . S
O41 C31 1.272 . S
O41 Co33 2.135 . S
Co42 O43 2.216 . S
Co42 O44 2.091 . S
Co42 O46 2.004 . S
Co42 O52 2.021 . S
Co42 O54 2.137 . S
Co42 O55 2.244 . S
O43 Co42 2.216 . S
O43 C50 1.247 . S
O44 Co42 2.091 . S
O44 C50 1.261 . S
C45 O54 1.247 . S
C45 O55 1.272 . S
O46 Co42 2.004 . S
O46 C51 1.259 . S
Co47 O48 2.061 . S
Co47 O53 2.052 . S
Co47 O55 2.135 . S
O48 Co47 2.061 . S
O48 C51 1.235 . S
C49 O52 1.238 . S
C49 O53 1.241 . S
C50 O43 1.247 . S
C50 O44 1.261 . S
C51 O46 1.259 . S
C51 O48 1.235 . S
O52 Co42 2.021 . S
O52 C49 1.238 . S
O53 Co47 2.052 . S
O53 C49 1.241 . S
O54 Co42 2.137 . S
O54 C45 1.247 . S
O55 Co42 2.244 . S
O55 C45 1.272 . S
O55 Co47 2.135 . S
Co56 O57 2.216 1_455 S
Co56 O58 2.091 1_455 S
Co56 O60 2.004 . S
Co56 O66 2.021 . S
Co56 O68 2.137 . S
Co56 O69 2.244 . S
O57 Co56 2.216 1_655 S
O57 C64 1.247 . S
O58 Co56 2.091 1_655 S
O58 C64 1.261 . S
C59 O68 1.247 . S
C59 O69 1.272 . S
O60 Co56 2.004 . S
O60 C65 1.259 . S
Co61 O62 2.061 . S
Co61 O67 2.052 . S
Co61 O69 2.135 . S
O62 Co61 2.061 . S
O62 C65 1.235 . S
C63 O66 1.238 . S
C63 O67 1.241 . S
C64 O57 1.247 . S
C64 O58 1.261 . S
C65 O60 1.259 . S
C65 O62 1.235 . S
O66 Co56 2.021 . S
O66 C63 1.238 . S
O67 Co61 2.052 . S
O67 C63 1.241 . S
O68 Co56 2.137 . S
O68 C59 1.247 . S
O69 Co56 2.244 . S
O69 C59 1.272 . S
O69 Co61 2.135 . S
Co70 O71 2.216 . S
Co70 O72 2.091 . S
Co70 O74 2.004 . S
Co70 O80 2.021 . S
Co70 O82 2.137 . S
Co70 O83 2.244 . S
O71 Co70 2.216 . S
O71 C78 1.247 . S
O72 Co70 2.091 . S
O72 C78 1.261 . S
C73 O82 1.247 . S
C73 O83 1.272 . S
O74 Co70 2.004 . S
O74 C79 1.259 . S
Co75 O76 2.061 . S
Co75 O81 2.052 . S
Co75 O83 2.135 . S
O76 Co75 2.061 . S
O76 C79 1.235 . S
C77 O80 1.238 . S
C77 O81 1.241 . S
C78 O71 1.247 . S
C78 O72 1.261 . S
C79 O74 1.259 . S
C79 O76 1.235 . S
O80 Co70 2.021 . S
O80 C77 1.238 . S
O81 Co75 2.052 . S
O81 C77 1.241 . S
O82 Co70 2.137 . S
O82 C73 1.247 . S
O83 Co70 2.244 . S
O83 C73 1.272 . S
O83 Co75 2.135 . S
Co84 O85 2.216 . S
Co84 O86 2.091 . S
Co84 O88 2.004 . S
Co84 O94 2.021 . S
Co84 O96 2.137 . S
Co84 O97 2.244 . S
O85 Co84 2.216 . S
O85 C92 1.247 . S
O86 Co84 2.091 . S
O86 C92 1.261 . S
C87 O96 1.247 . S
C87 O97 1.272 . S
O88 Co84 2.004 . S
O88 C93 1.259 . S
Co89 O90 2.061 . S
Co89 O95 2.052 . S
Co89 O97 2.135 . S
O90 Co89 2.061 . S
O90 C93 1.235 . S
C91 O94 1.238 . S
C91 O95 1.241 . S
C92 O85 1.247 . S
C92 O86 1.261 . S
C93 O88 1.259 . S
C93 O90 1.235 . S
O94 Co84 2.021 . S
O94 C91 1.238 . S
O95 Co89 2.052 . S
O95 C91 1.241 . S
O96 Co84 2.137 . S
O96 C87 1.247 . S
O97 Co84 2.244 . S
O97 C87 1.272 . S
O97 Co89 2.135 . S
Co98 O99 2.216 . S
Co98 O100 2.091 . S
Co98 O102 2.004 1_455 S
Co98 O108 2.021 . S
Co98 O110 2.137 . S
Co98 O111 2.244 . S
O99 Co98 2.216 . S
O99 C106 1.247 . S
O100 Co98 2.091 . S
O100 C106 1.261 . S
C101 O110 1.247 . S
C101 O111 1.272 . S
O102 Co98 2.004 1_655 S
O102 C107 1.259 . S
Co103 O104 2.061 . S
Co103 O109 2.052 . S
Co103 O111 2.135 1_655 S
O104 Co103 2.061 . S
O104 C107 1.235 . S
C105 O108 1.238 . S
C105 O109 1.241 1_455 S
C106 O99 1.247 . S
C106 O100 1.261 . S
C107 O102 1.259 . S
C107 O104 1.235 . S
O108 Co98 2.021 . S
O108 C105 1.238 . S
O109 Co103 2.052 . S
O109 C105 1.241 1_655 S
O110 Co98 2.137 . S
O110 C101 1.247 . S
O111 Co98 2.244 . S
O111 C101 1.272 . S
O111 Co103 2.135 1_455 S
Co112 O113 2.216 . S
Co112 O114 2.091 . S
Co112 O116 2.004 . S
Co112 O122 2.021 . S
Co112 O124 2.137 . S
Co112 O125 2.244 . S
O113 Co112 2.216 . S
O113 C120 1.247 . S
O114 Co112 2.091 . S
O114 C120 1.261 . S
C115 O124 1.247 . S
C115 O125 1.272 . S
O116 Co112 2.004 . S
O116 C121 1.259 . S
Co117 O118 2.061 . S
Co117 O123 2.052 . S
Co117 O125 2.135 . S
O118 Co117 2.061 . S
O118 C121 1.235 . S
C119 O122 1.238 . S
C119 O123 1.241 . S
C120 O113 1.247 . S
C120 O114 1.261 . S
C121 O116 1.259 . S
C121 O118 1.235 . S
O122 Co112 2.021 . S
O122 C119 1.238 . S
O123 Co117 2.052 . S
O123 C119 1.241 . S
O124 Co112 2.137 . S
O124 C115 1.247 . S
O125 Co112 2.244 . S
O125 C115 1.272 . S
O125 Co117 2.135 . S
Co126 O127 2.216 . S
Co126 O128 2.091 . S
Co126 O130 2.004 . S
Co126 O136 2.021 . S
Co126 O138 2.137 . S
Co126 O139 2.244 . S
O127 Co126 2.216 . S
O127 C134 1.247 . S
O128 Co126 2.091 . S
O128 C134 1.261 . S
C129 O138 1.247 . S
C129 O139 1.272 . S
O130 Co126 2.004 . S
O130 C135 1.259 . S
Co131 O132 2.061 . S
Co131 O137 2.052 . S
Co131 O139 2.135 . S
O132 Co131 2.061 . S
O132 C135 1.235 . S
C133 O136 1.238 . S
C133 O137 1.241 . S
C134 O127 1.247 . S
C134 O128 1.261 . S
C135 O130 1.259 . S
C135 O132 1.235 . S
O136 Co126 2.021 . S
O136 C133 1.238 . S
O137 Co131 2.052 . S
O137 C133 1.241 . S
O138 Co126 2.137 . S
O138 C129 1.247 . S
O139 Co126 2.244 . S
O139 C129 1.272 . S
O139 Co131 2.135 . S
Co140 O141 2.216 . S
Co140 O142 2.091 . S
Co140 O144 2.004 1_565 S
Co140 O150 2.021 . S
Co140 O152 2.137 . S
Co140 O153 2.244 1_565 S
O141 Co140 2.216 . S
O141 C148 1.247 . S
O142 Co140 2.091 . S
O142 C148 1.261 . S
C143 O152 1.243 1_545 S
C143 O153 1.275 . S
O144 Co140 2.004 1_545 S
O144 C149 1.259 . S
Co145 O146 2.061 . S
Co145 O151 2.052 . S
Co145 O153 2.135 . S
O146 Co145 2.061 . S
O146 C149 1.235 . S
C147 O150 1.238 1_545 S
C147 O151 1.241 . S
C148 O141 1.247 . S
C148 O142 1.261 . S
C149 O144 1.259 . S
C149 O146 1.235 . S
O150 Co140 2.021 . S
O150 C147 1.238 1_565 S
O151 Co145 2.052 . S
O151 C147 1.241 . S
O152 Co140 2.137 . S
O152 C143 1.243 1_565 S
O153 Co140 2.244 1_545 S
O153 C143 1.275 . S
O153 Co145 2.135 . S
Co154 O155 2.216 . S
Co154 O156 2.091 . S
Co154 O158 2.004 . S
Co154 O164 2.021 . S
Co154 O166 2.137 1_554 S
Co154 O167 2.244 . S
O155 Co154 2.216 . S
O155 C162 1.247 . S
O156 Co154 2.091 . S
O156 C162 1.261 . S
C157 O166 1.247 . S
C157 O167 1.272 1_556 S
O158 Co154 2.004 . S
O158 C163 1.259 . S
Co159 O160 2.061 . S
Co159 O165 2.052 . S
Co159 O167 2.135 . S
O160 Co159 2.061 . S
O160 C163 1.235 . S
C161 O164 1.238 . S
C161 O165 1.241 . S
C162 O155 1.247 . S
C162 O156 1.261 . S
C163 O158 1.259 . S
C163 O160 1.235 . S
O164 Co154 2.021 . S
O164 C161 1.238 . S
O165 Co159 2.052 . S
O165 C161 1.241 . S
O166 Co154 2.137 1_556 S
O166 C157 1.247 . S
O167 Co154 2.244 . S
O167 C157 1.272 1_554 S
O167 Co159 2.135 . S
Co168 O169 2.216 . S
Co168 O170 2.091 . S
Co168 O172 2.004 . S
Co168 O178 2.021 . S
Co168 O180 2.137 1_554 S
Co168 O181 2.244 . S
O169 Co168 2.216 . S
O169 C176 1.247 . S
O170 Co168 2.091 . S
O170 C176 1.261 . S
C171 O180 1.247 . S
C171 O181 1.272 1_556 S
O172 Co168 2.004 . S
O172 C177 1.259 . S
Co173 O174 2.061 . S
Co173 O179 2.052 . S
Co173 O181 2.135 . S
O174 Co173 2.061 . S
O174 C177 1.235 . S
C175 O178 1.238 . S
C175 O179 1.241 . S
C176 O169 1.247 . S
C176 O170 1.261 . S
C177 O172 1.259 . S
C177 O174 1.235 . S
O178 Co168 2.021 . S
O178 C175 1.238 . S
O179 Co173 2.052 . S
O179 C175 1.241 . S
O180 Co168 2.137 1_556 S
O180 C171 1.247 . S
O181 Co168 2.244 . S
O181 C171 1.272 1_554 S
O181 Co173 2.135 . S
Co182 O183 2.216 1_556 S
Co182 O184 2.091 1_556 S
Co182 O186 2.004 . S
Co182 O192 2.021 1_556 S
Co182 O194 2.137 . S
Co182 O195 2.244 . S
O183 Co182 2.216 1_554 S
O183 C190 1.248 . S
O184 Co182 2.091 1_554 S
O184 C190 1.262 . S
C185 O194 1.247 . S
C185 O195 1.272 . S
O186 Co182 2.004 . S
O186 C191 1.259 . S
Co187 O188 2.065 . S
Co187 O193 2.043 1_556 S
Co187 O195 2.141 . S
O188 Co187 2.065 . S
O188 C191 1.241 . S
C189 O192 1.238 . S
C189 O193 1.241 . S
C190 O183 1.248 . S
C190 O184 1.262 . S
C191 O186 1.259 . S
C191 O188 1.241 . S
O192 Co182 2.021 1_554 S
O192 C189 1.238 . S
O193 Co187 2.043 1_554 S
O193 C189 1.241 . S
O194 Co182 2.137 . S
O194 C185 1.247 . S
O195 Co182 2.244 . S
O195 C185 1.272 . S
O195 Co187 2.141 . S
Co196 O197 2.216 . S
Co196 O198 2.091 . S
Co196 O200 2.004 . S
Co196 O206 2.021 . S
Co196 O208 2.137 . S
Co196 O209 2.244 . S
O197 Co196 2.216 . S
O197 C204 1.247 . S
O198 Co196 2.091 . S
O198 C204 1.261 . S
C199 O208 1.247 . S
C199 O209 1.272 . S
O200 Co196 2.004 . S
O200 C205 1.259 . S
Co201 O202 2.061 . S
Co201 O207 2.052 . S
Co201 O209 2.135 . S
O202 Co201 2.061 . S
O202 C205 1.235 . S
C203 O206 1.238 . S
C203 O207 1.241 . S
C204 O197 1.247 . S
C204 O198 1.261 . S
C205 O200 1.259 . S
C205 O202 1.235 . S
O206 Co196 2.021 . S
O206 C203 1.238 . S
O207 Co201 2.052 . S
O207 C203 1.241 . S
O208 Co196 2.137 . S
O208 C199 1.247 . S
O209 Co196 2.244 . S
O209 C199 1.272 . S
O209 Co201 2.135 . S
Co210 O211 2.216 . S
Co210 O212 2.091 . S
Co210 O214 2.004 . S
Co210 O220 2.021 . S
Co210 O222 2.137 . S
Co210 O223 2.244 . S
O211 Co210 2.216 . S
O211 C218 1.247 . S
O212 Co210 2.091 . S
O212 C218 1.261 . S
C213 O222 1.247 . S
C213 O223 1.272 . S
O214 Co210 2.004 . S
O214 C219 1.259 . S
Co215 O216 2.061 . S
Co215 O221 2.052 . S
Co215 O223 2.135 . S
O216 Co215 2.061 . S
O216 C219 1.235 . S
C217 O220 1.238 . S
C217 O221 1.241 . S
C218 O211 1.247 . S
C218 O212 1.261 . S
C219 O214 1.259 . S
C219 O216 1.235 . S
O220 Co210 2.021 . S
O220 C217 1.238 . S
O221 Co215 2.052 . S
O221 C217 1.241 . S
O222 Co210 2.137 . S
O222 C213 1.247 . S
O223 Co210 2.244 . S
O223 C213 1.272 . S
O223 Co215 2.135 . S
Co224 O225 2.216 . S
Co224 O226 2.091 . S
Co224 O228 2.004 . S
Co224 O234 2.021 . S
Co224 O236 2.137 . S
Co224 O237 2.244 . S
O225 Co224 2.216 . S
O225 C232 1.247 . S
O226 Co224 2.091 . S
O226 C232 1.261 . S
C227 O236 1.247 . S
C227 O237 1.272 . S
O228 Co224 2.004 . S
O228 C233 1.259 . S
Co229 O230 2.061 . S
Co229 O235 2.052 . S
Co229 O237 2.135 . S
O230 Co229 2.061 . S
O230 C233 1.235 . S
C231 O234 1.238 . S
C231 O235 1.241 . S
C232 O225 1.247 . S
C232 O226 1.261 . S
C233 O228 1.259 . S
C233 O230 1.235 . S
O234 Co224 2.021 . S
O234 C231 1.238 . S
O235 Co229 2.052 . S
O235 C231 1.241 . S
O236 Co224 2.137 . S
O236 C227 1.247 . S
O237 Co224 2.244 . S
O237 C227 1.272 . S
O237 Co229 2.135 . S
Co238 O239 2.216 . S
Co238 O240 2.091 . S
Co238 O242 2.004 . S
Co238 O248 2.021 . S
Co238 O250 2.137 . S
Co238 O251 2.244 . S
O239 Co238 2.216 . S
O239 C246 1.247 . S
O240 Co238 2.091 . S
O240 C246 1.261 . S
C241 O250 1.247 . S
C241 O251 1.272 . S
O242 Co238 2.004 . S
O242 C247 1.259 . S
Co243 O244 2.061 . S
Co243 O249 2.052 . S
Co243 O251 2.135 . S
O244 Co243 2.061 . S
O244 C247 1.235 . S
C245 O248 1.238 . S
C245 O249 1.241 . S
C246 O239 1.247 . S
C246 O240 1.261 . S
C247 O242 1.259 . S
C247 O244 1.235 . S
O248 Co238 2.021 . S
O248 C245 1.238 . S
O249 Co243 2.052 . S
O249 C245 1.241 . S
O250 Co238 2.137 . S
O250 C241 1.247 . S
O251 Co238 2.244 . S
O251 C241 1.272 . S
O251 Co243 2.135 . S
Co252 O253 2.216 . S
Co252 O254 2.091 . S
Co252 O256 2.004 . S
Co252 O262 2.021 . S
Co252 O264 2.137 . S
Co252 O265 2.244 . S
O253 Co252 2.216 . S
O253 C260 1.247 . S
O254 Co252 2.091 . S
O254 C260 1.261 . S
C255 O264 1.247 . S
C255 O265 1.272 . S
O256 Co252 2.004 . S
O256 C261 1.259 . S
Co257 O258 2.061 . S
Co257 O263 2.052 . S
Co257 O265 2.135 . S
O258 Co257 2.061 . S
O258 C261 1.235 . S
C259 O262 1.238 . S
C259 O263 1.241 . S
C260 O253 1.247 . S
C260 O254 1.261 . S
C261 O256 1.259 . S
C261 O258 1.235 . S
O262 Co252 2.021 . S
O262 C259 1.238 . S
O263 Co257 2.052 . S
O263 C259 1.241 . S
O264 Co252 2.137 . S
O264 C255 1.247 . S
O265 Co252 2.244 . S
O265 C255 1.272 . S
O265 Co257 2.135 . S
Co266 O267 2.216 1_545 S
Co266 O268 2.091 1_545 S
Co266 O270 2.004 . S
Co266 O276 2.021 . S
Co266 O278 2.137 . S
Co266 O279 2.244 . S
O267 Co266 2.216 1_565 S
O267 C274 1.247 . S
O268 Co266 2.091 1_565 S
O268 C274 1.261 . S
C269 O278 1.247 . S
C269 O279 1.272 . S
O270 Co266 2.004 . S
O270 C275 1.259 . S
Co271 O272 2.061 . S
Co271 O277 2.052 . S
Co271 O279 2.135 . S
O272 Co271 2.061 . S
O272 C275 1.235 . S
C273 O276 1.238 . S
C273 O277 1.241 . S
C274 O267 1.247 . S
C274 O268 1.261 . S
C275 O270 1.259 . S
C275 O272 1.235 . S
O276 Co266 2.021 . S
O276 C273 1.238 . S
O277 Co271 2.052 . S
O277 C273 1.241 . S
O278 Co266 2.137 . S
O278 C269 1.247 . S
O279 Co266 2.244 . S
O279 C269 1.272 . S
O279 Co271 2.135 . S
Co280 O281 2.216 . S
Co280 O282 2.091 . S
Co280 O284 2.004 1_554 S
Co280 O290 2.021 . S
Co280 O292 2.137 1_554 S
Co280 O293 2.244 1_554 S
O281 Co280 2.216 . S
O281 C288 1.247 . S
O282 Co280 2.091 . S
O282 C288 1.261 . S
C283 O292 1.247 . S
C283 O293 1.272 . S
O284 Co280 2.004 1_556 S
O284 C289 1.259 1_556 S
Co285 O286 2.061 . S
Co285 O291 2.052 . S
Co285 O293 2.135 1_554 S
O286 Co285 2.061 . S
O286 C289 1.235 . S
C287 O290 1.238 . S
C287 O291 1.241 . S
C288 O281 1.247 . S
C288 O282 1.261 . S
C289 O284 1.259 1_554 S
C289 O286 1.235 . S
O290 Co280 2.021 . S
O290 C287 1.238 . S
O291 Co285 2.052 . S
O291 C287 1.241 . S
O292 Co280 2.137 1_556 S
O292 C283 1.247 . S
O293 Co280 2.244 1_556 S
O293 C283 1.272 . S
O293 Co285 2.135 1_556 S
Co294 O295 2.216 . S
Co294 O296 2.091 . S
Co294 O298 2.004 . S
Co294 O304 2.021 . S
Co294 O306 2.137 . S
Co294 O307 2.244 . S
O295 Co294 2.216 . S
O295 C302 1.247 . S
O296 Co294 2.091 . S
O296 C302 1.261 . S
C297 O306 1.247 . S
C297 O307 1.272 . S
O298 Co294 2.004 . S
O298 C303 1.259 . S
Co299 O300 2.061 . S
Co299 O305 2.052 . S
Co299 O307 2.135 . S
O300 Co299 2.061 . S
O300 C303 1.235 . S
C301 O304 1.238 . S
C301 O305 1.241 . S
C302 O295 1.247 . S
C302 O296 1.261 . S
C303 O298 1.259 . S
C303 O300 1.235 . S
O304 Co294 2.021 . S
O304 C301 1.238 . S
O305 Co299 2.052 . S
O305 C301 1.241 . S
O306 Co294 2.137 . S
O306 C297 1.247 . S
O307 Co294 2.244 . S
O307 C297 1.272 . S
O307 Co299 2.135 . S
Co308 O309 2.216 . S
Co308 O310 2.091 . S
Co308 O312 2.004 . S
Co308 O318 2.021 . S
Co308 O320 2.137 . S
Co308 O321 2.244 . S
O309 Co308 2.216 . S
O309 C316 1.247 . S
O310 Co308 2.091 . S
O310 C316 1.261 . S
C311 O320 1.247 . S
C311 O321 1.272 . S
O312 Co308 2.004 . S
O312 C317 1.259 . S
Co313 O314 2.061 . S
Co313 O319 2.052 . S
Co313 O321 2.135 . S
O314 Co313 2.061 . S
O314 C317 1.235 . S
C315 O318 1.238 . S
C315 O319 1.241 . S
C316 O309 1.247 . S
C316 O310 1.261 . S
C317 O312 1.259 . S
C317 O314 1.235 . S
O318 Co308 2.021 . S
O318 C315 1.238 . S
O319 Co313 2.052 . S
O319 C315 1.241 . S
O320 Co308 2.137 . S
O320 C311 1.247 . S
O321 Co308 2.244 . S
O321 C311 1.272 . S
O321 Co313 2.135 . S
Co322 O323 2.216 . S
Co322 O324 2.091 . S
Co322 O326 2.004 . S
Co322 O332 2.021 . S
Co322 O334 2.137 . S
Co322 O335 2.244 . S
O323 Co322 2.216 . S
O323 C330 1.247 . S
O324 Co322 2.091 . S
O324 C330 1.261 . S
C325 O334 1.247 . S
C325 O335 1.272 . S
O326 Co322 2.004 . S
O326 C331 1.259 . S
Co327 O328 2.061 . S
Co327 O333 2.052 . S
Co327 O335 2.135 . S
O328 Co327 2.061 . S
O328 C331 1.235 . S
C329 O332 1.238 . S
C329 O333 1.241 . S
C330 O323 1.247 . S
C330 O324 1.261 . S
C331 O326 1.259 . S
C331 O328 1.235 . S
O332 Co322 2.021 . S
O332 C329 1.238 . S
O333 Co327 2.052 . S
O333 C329 1.241 . S
O334 Co322 2.137 . S
O334 C325 1.247 . S
O335 Co322 2.244 . S
O335 C325 1.272 . S
O335 Co327 2.135 . S
Tb336 O339 2.453 . S
Tb336 O340 2.596 . S
Tb336 O341 2.374 1_554 S
Tb336 O349 2.343 1_455 S
Tb336 O351 2.353 . S
Tb336 O353 2.427 . S
Tb336 O354 2.513 1_554 S
C337 O341 1.251 . S
C337 O343 1.263 . S
Tb338 O340 2.343 1_655 S
Tb338 O343 2.353 1_654 S
Tb338 O346 2.427 1_645 S
Tb338 O347 2.513 1_645 S
Tb338 O348 2.453 . S
Tb338 O349 2.596 . S
Tb338 O350 2.374 . S
O339 Tb336 2.453 . S
O339 C355 1.245 . S
O340 Tb336 2.596 . S
O340 Tb338 2.343 1_455 S
O340 C355 1.259 . S
O341 Tb336 2.374 1_556 S
O341 C337 1.251 . S
C342 O346 1.275 . S
C342 O347 1.246 . S
O343 C337 1.263 . S
O343 Tb338 2.353 1_456 S
C344 O348 1.245 . S
C344 O349 1.259 . S
C345 O350 1.243 1_455 S
C345 O351 1.298 . S
O346 Tb338 2.427 1_465 S
O346 C342 1.275 . S
O347 Tb338 2.513 1_465 S
O347 C342 1.246 . S
O348 Tb338 2.453 . S
O348 C344 1.245 . S
O349 Tb336 2.343 1_655 S
O349 Tb338 2.596 . S
O349 C344 1.259 . S
O350 Tb338 2.374 . S
O350 C345 1.243 1_655 S
O351 Tb336 2.353 . S
O351 C345 1.298 . S
C352 O353 1.275 . S
C352 O354 1.246 1_554 S
O353 Tb336 2.427 . S
O353 C352 1.275 . S
O354 Tb336 2.513 1_556 S
O354 C352 1.246 1_556 S
C355 O339 1.245 . S
C355 O340 1.259 . S
Tb356 O359 2.453 . S
Tb356 O360 2.596 . S
Tb356 O361 2.374 . S
Tb356 O369 2.343 . S
Tb356 O371 2.353 . S
Tb356 O373 2.427 . S
Tb356 O374 2.513 . S
C357 O361 1.251 . S
C357 O363 1.263 . S
Tb358 O360 2.343 . S
Tb358 O363 2.353 . S
Tb358 O366 2.427 . S
Tb358 O367 2.513 . S
Tb358 O368 2.453 . S
Tb358 O369 2.596 . S
Tb358 O370 2.374 . S
O359 Tb356 2.453 . S
O359 C375 1.245 . S
O360 Tb356 2.596 . S
O360 Tb358 2.343 . S
O360 C375 1.259 . S
O361 Tb356 2.374 . S
O361 C357 1.251 . S
C362 O366 1.275 . S
C362 O367 1.246 . S
O363 C357 1.263 . S
O363 Tb358 2.353 . S
C364 O368 1.245 . S
C364 O369 1.259 . S
C365 O370 1.250 . S
C365 O371 1.263 . S
O366 Tb358 2.427 . S
O366 C362 1.275 . S
O367 Tb358 2.513 . S
O367 C362 1.246 . S
O368 Tb358 2.453 . S
O368 C364 1.245 . S
O369 Tb356 2.343 . S
O369 Tb358 2.596 . S
O369 C364 1.259 . S
O370 Tb358 2.374 . S
O370 C365 1.250 . S
O371 Tb356 2.353 . S
O371 C365 1.263 . S
C372 O373 1.275 . S
C372 O374 1.246 . S
O373 Tb356 2.427 . S
O373 C372 1.275 . S
O374 Tb356 2.513 . S
O374 C372 1.246 . S
C375 O359 1.245 . S
C375 O360 1.259 . S
Tb376 O379 2.453 . S
Tb376 O380 2.596 . S
Tb376 O381 2.374 . S
Tb376 O389 2.343 . S
Tb376 O391 2.353 . S
Tb376 O393 2.427 . S
Tb376 O394 2.513 . S
C377 O381 1.251 . S
C377 O383 1.263 . S
Tb378 O380 2.343 . S
Tb378 O383 2.353 . S
Tb378 O386 2.427 . S
Tb378 O387 2.513 . S
Tb378 O388 2.453 1_545 S
Tb378 O389 2.596 . S
Tb378 O390 2.374 . S
O379 Tb376 2.453 . S
O379 C395 1.245 . S
O380 Tb376 2.596 . S
O380 Tb378 2.343 . S
O380 C395 1.259 . S
O381 Tb376 2.374 . S
O381 C377 1.251 . S
C382 O386 1.275 . S
C382 O387 1.246 . S
O383 C377 1.263 . S
O383 Tb378 2.353 . S
C384 O388 1.245 . S
C384 O389 1.259 1_565 S
C385 O390 1.250 . S
C385 O391 1.263 . S
O386 Tb378 2.427 . S
O386 C382 1.275 . S
O387 Tb378 2.513 . S
O387 C382 1.246 . S
O388 Tb378 2.453 1_565 S
O388 C384 1.245 . S
O389 Tb376 2.343 . S
O389 Tb378 2.596 . S
O389 C384 1.259 1_545 S
O390 Tb378 2.374 . S
O390 C385 1.250 . S
O391 Tb376 2.353 . S
O391 C385 1.263 . S
C392 O393 1.275 . S
C392 O394 1.246 . S
O393 Tb376 2.427 . S
O393 C392 1.275 . S
O394 Tb376 2.513 . S
O394 C392 1.246 . S
C395 O379 1.245 . S
C395 O380 1.259 . S
Tb396 O399 2.453 . S
Tb396 O400 2.596 . S
Tb396 O401 2.374 . S
Tb396 O409 2.343 . S
Tb396 O411 2.353 . S
Tb396 O413 2.427 . S
Tb396 O414 2.513 . S
C397 O401 1.251 . S
C397 O403 1.263 . S
Tb398 O400 2.343 . S
Tb398 O403 2.353 . S
Tb398 O406 2.427 . S
Tb398 O407 2.513 . S
Tb398 O408 2.453 . S
Tb398 O409 2.596 . S
Tb398 O410 2.374 . S
O399 Tb396 2.453 . S
O399 C415 1.245 . S
O400 Tb396 2.596 . S
O400 Tb398 2.343 . S
O400 C415 1.259 . S
O401 Tb396 2.374 . S
O401 C397 1.251 . S
C402 O406 1.275 . S
C402 O407 1.246 . S
O403 C397 1.263 . S
O403 Tb398 2.353 . S
C404 O408 1.245 . S
C404 O409 1.259 . S
C405 O410 1.250 . S
C405 O411 1.263 . S
O406 Tb398 2.427 . S
O406 C402 1.275 . S
O407 Tb398 2.513 . S
O407 C402 1.246 . S
O408 Tb398 2.453 . S
O408 C404 1.245 . S
O409 Tb396 2.343 . S
O409 Tb398 2.596 . S
O409 C404 1.259 . S
O410 Tb398 2.374 . S
O410 C405 1.250 . S
O411 Tb396 2.353 . S
O411 C405 1.263 . S
C412 O413 1.275 . S
C412 O414 1.246 . S
O413 Tb396 2.427 . S
O413 C412 1.275 . S
O414 Tb396 2.513 . S
O414 C412 1.246 . S
C415 O399 1.245 . S
C415 O400 1.259 . S
Tb416 O419 2.453 1_545 S
Tb416 O420 2.596 . S
Tb416 O421 2.374 1_455 S
Tb416 O429 2.343 . S
Tb416 O431 2.353 . S
Tb416 O433 2.427 . S
Tb416 O434 2.513 1_455 S
C417 O421 1.251 . S
C417 O423 1.263 . S
Tb418 O420 2.343 . S
Tb418 O423 2.353 1_455 S
Tb418 O426 2.427 . S
Tb418 O427 2.513 . S
Tb418 O428 2.453 . S
Tb418 O429 2.596 . S
Tb418 O430 2.374 . S
O419 Tb416 2.453 1_565 S
O419 C435 1.245 . S
O420 Tb416 2.596 . S
O420 Tb418 2.343 . S
O420 C435 1.259 1_545 S
O421 Tb416 2.374 1_655 S
O421 C417 1.251 . S
C422 O426 1.275 . S
C422 O427 1.246 . S
O423 C417 1.263 . S
O423 Tb418 2.353 1_655 S
C424 O428 1.245 . S
C424 O429 1.259 . S
C425 O430 1.250 . S
C425 O431 1.263 . S
O426 Tb418 2.427 . S
O426 C422 1.275 . S
O427 Tb418 2.513 . S
O427 C422 1.246 . S
O428 Tb418 2.453 . S
O428 C424 1.245 . S
O429 Tb416 2.343 . S
O429 Tb418 2.596 . S
O429 C424 1.259 . S
O430 Tb418 2.374 . S
O430 C425 1.250 . S
O431 Tb416 2.353 . S
O431 C425 1.263 . S
C432 O433 1.275 1_655 S
C432 O434 1.246 . S
O433 Tb416 2.427 . S
O433 C432 1.275 1_455 S
O434 Tb416 2.513 1_655 S
O434 C432 1.246 . S
C435 O419 1.245 . S
C435 O420 1.259 1_565 S
Tb436 O439 2.453 . S
Tb436 O440 2.596 . S
Tb436 O441 2.374 . S
Tb436 O449 2.343 . S
Tb436 O451 2.353 . S
Tb436 O453 2.427 . S
Tb436 O454 2.513 . S
C437 O441 1.251 . S
C437 O443 1.263 . S
Tb438 O440 2.343 . S
Tb438 O443 2.353 . S
Tb438 O446 2.427 . S
Tb438 O447 2.513 . S
Tb438 O448 2.453 . S
Tb438 O449 2.596 . S
Tb438 O450 2.374 . S
O439 Tb436 2.453 . S
O439 C455 1.245 . S
O440 Tb436 2.596 . S
O440 Tb438 2.343 . S
O440 C455 1.259 . S
O441 Tb436 2.374 . S
O441 C437 1.251 . S
C442 O446 1.275 . S
C442 O447 1.246 . S
O443 C437 1.263 . S
O443 Tb438 2.353 . S
C444 O448 1.245 . S
C444 O449 1.259 . S
C445 O450 1.250 . S
C445 O451 1.263 . S
O446 Tb438 2.427 . S
O446 C442 1.275 . S
O447 Tb438 2.513 . S
O447 C442 1.246 . S
O448 Tb438 2.453 . S
O448 C444 1.245 . S
O449 Tb436 2.343 . S
O449 Tb438 2.596 . S
O449 C444 1.259 . S
O450 Tb438 2.374 . S
O450 C445 1.250 . S
O451 Tb436 2.353 . S
O451 C445 1.263 . S
C452 O453 1.275 . S
C452 O454 1.246 . S
O453 Tb436 2.427 . S
O453 C452 1.275 . S
O454 Tb436 2.513 . S
O454 C452 1.246 . S
C455 O439 1.245 . S
C455 O440 1.259 . S
Tb456 O459 2.453 . S
Tb456 O460 2.596 . S
Tb456 O461 2.374 1_545 S
Tb456 O469 2.343 1_556 S
Tb456 O471 2.353 1_556 S
Tb456 O473 2.427 1_556 S
Tb456 O474 2.513 1_556 S
C457 O461 1.251 1_554 S
C457 O463 1.252 1_565 S
Tb458 O460 2.343 1_554 S
Tb458 O463 2.390 . S
Tb458 O466 2.427 . S
Tb458 O467 2.513 . S
Tb458 O468 2.453 . S
Tb458 O469 2.596 . S
Tb458 O470 2.374 . S
O459 Tb456 2.453 . S
O459 C475 1.245 . S
O460 Tb456 2.596 . S
O460 Tb458 2.343 1_556 S
O460 C475 1.259 . S
O461 Tb456 2.374 1_565 S
O461 C457 1.251 1_556 S
C462 O466 1.275 . S
C462 O467 1.246 . S
O463 C457 1.252 1_545 S
O463 Tb458 2.390 . S
C464 O468 1.245 . S
C464 O469 1.259 . S
C465 O470 1.250 . S
C465 O471 1.263 . S
O466 Tb458 2.427 . S
O466 C462 1.275 . S
O467 Tb458 2.513 . S
O467 C462 1.246 . S
O468 Tb458 2.453 . S
O468 C464 1.245 . S
O469 Tb456 2.343 1_554 S
O469 Tb458 2.596 . S
O469 C464 1.259 . S
O470 Tb458 2.374 . S
O470 C465 1.250 . S
O471 Tb456 2.353 1_554 S
O471 C465 1.263 . S
C472 O473 1.275 . S
C472 O474 1.246 . S
O473 Tb456 2.427 1_554 S
O473 C472 1.275 . S
O474 Tb456 2.513 1_554 S
O474 C472 1.246 . S
C475 O459 1.245 . S
C475 O460 1.259 . S
Tb476 O479 2.453 . S
Tb476 O480 2.596 . S
Tb476 O481 2.374 . S
Tb476 O489 2.343 . S
Tb476 O491 2.353 . S
Tb476 O493 2.427 . S
Tb476 O494 2.513 . S
C477 O481 1.251 . S
C477 O483 1.263 . S
Tb478 O480 2.343 . S
Tb478 O483 2.353 . S
Tb478 O486 2.427 . S
Tb478 O487 2.513 . S
Tb478 O488 2.453 . S
Tb478 O489 2.596 . S
Tb478 O490 2.374 . S
O479 Tb476 2.453 . S
O479 C495 1.245 . S
O480 Tb476 2.596 . S
O480 Tb478 2.343 . S
O480 C495 1.259 . S
O481 Tb476 2.374 . S
O481 C477 1.251 . S
C482 O486 1.275 . S
C482 O487 1.246 . S
O483 C477 1.263 . S
O483 Tb478 2.353 . S
C484 O488 1.245 . S
C484 O489 1.259 . S
C485 O490 1.250 . S
C485 O491 1.263 . S
O486 Tb478 2.427 . S
O486 C482 1.275 . S
O487 Tb478 2.513 . S
O487 C482 1.246 . S
O488 Tb478 2.453 . S
O488 C484 1.245 . S
O489 Tb476 2.343 . S
O489 Tb478 2.596 . S
O489 C484 1.259 . S
O490 Tb478 2.374 . S
O490 C485 1.250 . S
O491 Tb476 2.353 . S
O491 C485 1.263 . S
C492 O493 1.275 . S
C492 O494 1.246 . S
O493 Tb476 2.427 . S
O493 C492 1.275 . S
O494 Tb476 2.513 . S
O494 C492 1.246 . S
C495 O479 1.245 . S
C495 O480 1.259 . S
Tb496 O499 2.453 1_556 S
Tb496 O500 2.596 1_556 S
Tb496 O501 2.374 1_556 S
Tb496 O509 2.327 1_556 S
Tb496 O511 2.353 . S
Tb496 O513 2.427 . S
Tb496 O514 2.513 . S
C497 O501 1.251 . S
C497 O503 1.263 . S
Tb498 O500 2.343 . S
Tb498 O503 2.353 . S
Tb498 O506 2.427 . S
Tb498 O507 2.513 . S
Tb498 O508 2.453 . S
Tb498 O509 2.644 . S
Tb498 O510 2.374 . S
O499 Tb496 2.453 1_554 S
O499 C515 1.245 . S
O500 Tb496 2.596 1_554 S
O500 Tb498 2.343 . S
O500 C515 1.259 . S
O501 Tb496 2.374 1_554 S
O501 C497 1.251 . S
C502 O506 1.275 . S
C502 O507 1.246 . S
O503 C497 1.263 . S
O503 Tb498 2.353 . S
C504 O508 1.245 . S
C504 O509 1.264 . S
C505 O510 1.250 . S
C505 O511 1.263 1_554 S
O506 Tb498 2.427 . S
O506 C502 1.275 . S
O507 Tb498 2.513 . S
O507 C502 1.246 . S
O508 Tb498 2.453 . S
O508 C504 1.245 . S
O509 Tb496 2.327 1_554 S
O509 Tb498 2.644 . S
O509 C504 1.264 . S
O510 Tb498 2.374 . S
O510 C505 1.250 . S
O511 Tb496 2.353 . S
O511 C505 1.263 1_556 S
C512 O513 1.275 . S
C512 O514 1.246 . S
O513 Tb496 2.427 . S
O513 C512 1.275 . S
O514 Tb496 2.513 . S
O514 C512 1.246 . S
C515 O499 1.245 . S
C515 O500 1.259 . S
Tb516 O519 2.453 . S
Tb516 O520 2.596 . S
Tb516 O521 2.374 . S
Tb516 O529 2.343 . S
Tb516 O531 2.353 . S
Tb516 O533 2.427 . S
Tb516 O534 2.513 . S
C517 O521 1.251 . S
C517 O523 1.263 . S
Tb518 O520 2.343 . S
Tb518 O523 2.353 . S
Tb518 O526 2.427 . S
Tb518 O527 2.513 . S
Tb518 O528 2.453 . S
Tb518 O529 2.596 . S
Tb518 O530 2.374 . S
O519 Tb516 2.453 . S
O519 C535 1.245 . S
O520 Tb516 2.596 . S
O520 Tb518 2.343 . S
O520 C535 1.259 . S
O521 Tb516 2.374 . S
O521 C517 1.251 . S
C522 O526 1.275 . S
C522 O527 1.246 . S
O523 C517 1.263 . S
O523 Tb518 2.353 . S
C524 O528 1.245 . S
C524 O529 1.259 . S
C525 O530 1.250 . S
C525 O531 1.263 . S
O526 Tb518 2.427 . S
O526 C522 1.275 . S
O527 Tb518 2.513 . S
O527 C522 1.246 . S
O528 Tb518 2.453 . S
O528 C524 1.245 . S
O529 Tb516 2.343 . S
O529 Tb518 2.596 . S
O529 C524 1.259 . S
O530 Tb518 2.374 . S
O530 C525 1.250 . S
O531 Tb516 2.353 . S
O531 C525 1.263 . S
C532 O533 1.275 . S
C532 O534 1.246 . S
O533 Tb516 2.427 . S
O533 C532 1.275 . S
O534 Tb516 2.513 . S
O534 C532 1.246 . S
C535 O519 1.245 . S
C535 O520 1.259 . S
Tb536 O539 2.423 1_655 S
Tb536 O540 2.596 1_655 S
Tb536 O541 2.374 . S
Tb536 O549 2.343 . S
Tb536 O551 2.353 . S
Tb536 O553 2.427 . S
Tb536 O554 2.513 . S
C537 O541 1.251 1_455 S
C537 O543 1.263 . S
Tb538 O540 2.343 . S
Tb538 O543 2.353 . S
Tb538 O546 2.427 . S
Tb538 O547 2.513 . S
Tb538 O548 2.453 . S
Tb538 O549 2.596 1_455 S
Tb538 O550 2.374 . S
O539 Tb536 2.423 1_455 S
O539 C555 1.292 . S
O540 Tb536 2.596 1_455 S
O540 Tb538 2.343 . S
O540 C555 1.259 . S
O541 Tb536 2.374 . S
O541 C537 1.251 1_655 S
C542 O546 1.275 . S
C542 O547 1.246 . S
O543 C537 1.263 . S
O543 Tb538 2.353 . S
C544 O548 1.245 1_655 S
C544 O549 1.259 . S
C545 O550 1.250 . S
C545 O551 1.263 1_455 S
O546 Tb538 2.427 . S
O546 C542 1.275 . S
O547 Tb538 2.513 . S
O547 C542 1.246 . S
O548 Tb538 2.453 . S
O548 C544 1.245 1_455 S
O549 Tb536 2.343 . S
O549 Tb538 2.596 1_655 S
O549 C544 1.259 . S
O550 Tb538 2.374 . S
O550 C545 1.250 . S
O551 Tb536 2.353 . S
O551 C545 1.263 1_655 S
C552 O553 1.275 . S
C552 O554 1.246 . S
O553 Tb536 2.427 . S
O553 C552 1.275 . S
O554 Tb536 2.513 . S
O554 C552 1.246 . S
C555 O539 1.292 . S
C555 O540 1.259 . S
Tb556 O559 2.453 . S
Tb556 O560 2.596 . S
Tb556 O561 2.374 . S
Tb556 O569 2.343 . S
Tb556 O571 2.353 . S
Tb556 O573 2.427 . S
Tb556 O574 2.513 . S
C557 O561 1.251 . S
C557 O563 1.263 . S
Tb558 O560 2.343 . S
Tb558 O563 2.353 . S
Tb558 O566 2.427 . S
Tb558 O567 2.513 . S
Tb558 O568 2.453 . S
Tb558 O569 2.596 . S
Tb558 O570 2.374 . S
O559 Tb556 2.453 . S
O559 C575 1.245 . S
O560 Tb556 2.596 . S
O560 Tb558 2.343 . S
O560 C575 1.259 . S
O561 Tb556 2.374 . S
O561 C557 1.251 . S
C562 O566 1.275 . S
C562 O567 1.246 . S
O563 C557 1.263 . S
O563 Tb558 2.353 . S
C564 O568 1.245 . S
C564 O569 1.259 . S
C565 O570 1.250 . S
C565 O571 1.263 . S
O566 Tb558 2.427 . S
O566 C562 1.275 . S
O567 Tb558 2.513 . S
O567 C562 1.246 . S
O568 Tb558 2.453 . S
O568 C564 1.245 . S
O569 Tb556 2.343 . S
O569 Tb558 2.596 . S
O569 C564 1.259 . S
O570 Tb558 2.374 . S
O570 C565 1.250 . S
O571 Tb556 2.353 . S
O571 C565 1.263 . S
C572 O573 1.275 . S
C572 O574 1.246 . S
O573 Tb556 2.427 . S
O573 C572 1.275 . S
O574 Tb556 2.513 . S
O574 C572 1.246 . S
C575 O559 1.245 . S
C575 O560 1.259 . S
Tb576 O579 2.453 . S
Tb576 O580 2.596 . S
Tb576 O581 2.374 . S
Tb576 O589 2.343 . S
Tb576 O591 2.353 . S
Tb576 O593 2.427 . S
Tb576 O594 2.513 . S
C577 O581 1.251 . S
C577 O583 1.263 . S
Tb578 O580 2.343 . S
Tb578 O583 2.353 . S
Tb578 O586 2.427 . S
Tb578 O587 2.513 . S
Tb578 O588 2.453 . S
Tb578 O589 2.596 . S
Tb578 O590 2.374 . S
O579 Tb576 2.453 . S
O579 C595 1.245 . S
O580 Tb576 2.596 . S
O580 Tb578 2.343 . S
O580 C595 1.259 . S
O581 Tb576 2.374 . S
O581 C577 1.251 . S
C582 O586 1.275 . S
C582 O587 1.246 . S
O583 C577 1.263 . S
O583 Tb578 2.353 . S
C584 O588 1.245 . S
C584 O589 1.259 . S
C585 O590 1.250 . S
C585 O591 1.263 . S
O586 Tb578 2.427 . S
O586 C582 1.275 . S
O587 Tb578 2.513 . S
O587 C582 1.246 . S
O588 Tb578 2.453 . S
O588 C584 1.245 . S
O589 Tb576 2.343 . S
O589 Tb578 2.596 . S
O589 C584 1.259 . S
O590 Tb578 2.374 . S
O590 C585 1.250 . S
O591 Tb576 2.353 . S
O591 C585 1.263 . S
C592 O593 1.275 . S
C592 O594 1.246 . S
O593 Tb576 2.427 . S
O593 C592 1.275 . S
O594 Tb576 2.513 . S
O594 C592 1.246 . S
C595 O579 1.245 . S
C595 O580 1.259 . S
Tb596 O599 2.453 . S
Tb596 O600 2.596 . S
Tb596 O601 2.374 . S
Tb596 O609 2.343 . S
Tb596 O611 2.353 . S
Tb596 O613 2.427 . S
Tb596 O614 2.513 . S
C597 O601 1.251 . S
C597 O603 1.263 . S
Tb598 O600 2.343 . S
Tb598 O603 2.353 . S
Tb598 O606 2.427 . S
Tb598 O607 2.513 . S
Tb598 O608 2.453 . S
Tb598 O609 2.596 . S
Tb598 O610 2.374 . S
O599 Tb596 2.453 . S
O599 C615 1.245 . S
O600 Tb596 2.596 . S
O600 Tb598 2.343 . S
O600 C615 1.259 . S
O601 Tb596 2.374 . S
O601 C597 1.251 . S
C602 O606 1.275 . S
C602 O607 1.246 . S
O603 C597 1.263 . S
O603 Tb598 2.353 . S
C604 O608 1.245 . S
C604 O609 1.259 . S
C605 O610 1.250 . S
C605 O611 1.263 . S
O606 Tb598 2.427 . S
O606 C602 1.275 . S
O607 Tb598 2.513 . S
O607 C602 1.246 . S
O608 Tb598 2.453 . S
O608 C604 1.245 . S
O609 Tb596 2.343 . S
O609 Tb598 2.596 . S
O609 C604 1.259 . S
O610 Tb598 2.374 . S
O610 C605 1.250 . S
O611 Tb596 2.353 . S
O611 C605 1.263 . S
C612 O613 1.275 . S
C612 O614 1.246 . S
O613 Tb596 2.427 . S
O613 C612 1.275 . S
O614 Tb596 2.513 . S
O614 C612 1.246 . S
C615 O599 1.245 . S
C615 O600 1.259 . S
Tb616 O619 2.453 . S
Tb616 O620 2.596 . S
Tb616 O621 2.374 . S
Tb616 O629 2.343 . S
Tb616 O631 2.353 . S
Tb616 O633 2.427 . S
Tb616 O634 2.513 . S
C617 O621 1.251 . S
C617 O623 1.263 . S
Tb618 O620 2.343 . S
Tb618 O623 2.353 . S
Tb618 O626 2.427 . S
Tb618 O627 2.513 . S
Tb618 O628 2.453 . S
Tb618 O629 2.596 . S
Tb618 O630 2.374 . S
O619 Tb616 2.453 . S
O619 C635 1.245 . S
O620 Tb616 2.596 . S
O620 Tb618 2.343 . S
O620 C635 1.259 . S
O621 Tb616 2.374 . S
O621 C617 1.251 . S
C622 O626 1.275 . S
C622 O627 1.246 . S
O623 C617 1.263 . S
O623 Tb618 2.353 . S
C624 O628 1.245 . S
C624 O629 1.259 . S
C625 O630 1.250 . S
C625 O631 1.263 . S
O626 Tb618 2.427 . S
O626 C622 1.275 . S
O627 Tb618 2.513 . S
O627 C622 1.246 . S
O628 Tb618 2.453 . S
O628 C624 1.245 . S
O629 Tb616 2.343 . S
O629 Tb618 2.596 . S
O629 C624 1.259 . S
O630 Tb618 2.374 . S
O630 C625 1.250 . S
O631 Tb616 2.353 . S
O631 C625 1.263 . S
C632 O633 1.275 . S
C632 O634 1.246 . S
O633 Tb616 2.427 . S
O633 C632 1.275 . S
O634 Tb616 2.513 . S
O634 C632 1.246 . S
C635 O619 1.245 . S
C635 O620 1.259 . S
Tb636 O639 2.453 . S
Tb636 O640 2.596 . S
Tb636 O641 2.374 . S
Tb636 O649 2.343 . S
Tb636 O651 2.353 1_554 S
Tb636 O653 2.427 1_554 S
Tb636 O654 2.513 . S
C637 O641 1.251 . S
C637 O643 1.263 1_455 S
Tb638 O640 2.343 1_655 S
Tb638 O643 2.353 . S
Tb638 O646 2.427 . S
Tb638 O647 2.513 . S
Tb638 O648 2.453 . S
Tb638 O649 2.596 1_655 S
Tb638 O650 2.374 1_554 S
O639 Tb636 2.453 . S
O639 C655 1.245 . S
O640 Tb636 2.596 . S
O640 Tb638 2.343 1_455 S
O640 C655 1.259 . S
O641 Tb636 2.374 . S
O641 C637 1.251 . S
C642 O646 1.275 . S
C642 O647 1.246 . S
O643 C637 1.263 1_655 S
O643 Tb638 2.353 . S
C644 O648 1.250 1_455 S
C644 O649 1.257 . S
C645 O650 1.250 . S
C645 O651 1.263 1_655 S
O646 Tb638 2.427 . S
O646 C642 1.275 . S
O647 Tb638 2.513 . S
O647 C642 1.246 . S
O648 Tb638 2.453 . S
O648 C644 1.250 1_655 S
O649 Tb636 2.343 . S
O649 Tb638 2.596 1_455 S
O649 C644 1.257 . S
O650 Tb638 2.374 1_556 S
O650 C645 1.250 . S
O651 Tb636 2.353 1_556 S
O651 C645 1.263 1_455 S
C652 O653 1.275 1_554 S
C652 O654 1.246 . S
O653 Tb636 2.427 1_556 S
O653 C652 1.275 1_556 S
O654 Tb636 2.513 . S
O654 C652 1.246 . S
C655 O639 1.245 . S
C655 O640 1.259 . S
H656 C674 0.951 . S
H657 C676 0.951 . S
H658 C678 0.952 . S
H659 C679 0.958 . S
H660 C681 0.950 . S
H661 C684 0.950 . S
H662 C685 0.950 . S
H663 C687 0.950 . S
H664 C688 0.950 . S
H665 C689 0.949 1_655 S
H666 C691 0.954 . S
H667 C693 0.950 1_554 S
H668 C694 0.950 . S
H669 C696 0.950 . S
H670 C699 0.950 . S
H671 C700 0.950 . S
H672 C702 0.950 . S
H673 C703 0.950 . S
C674 H656 0.951 . S
C674 C675 1.366 . S
C674 C676 1.388 . S
C675 C674 1.366 . S
C675 C679 1.380 1_455 S
C676 H657 0.951 . S
C676 C674 1.388 . S
C676 C677 1.366 . S
C677 C676 1.366 . S
C677 C678 1.412 1_455 S
C677 C680 1.499 . S
C678 H658 0.952 . S
C678 C677 1.412 1_655 S
C678 C679 1.372 . S
C679 H659 0.958 . S
C679 C675 1.380 1_655 S
C679 C678 1.372 . S
C680 C677 1.499 . S
C680 C681 1.373 1_455 S
C680 C682 1.389 . S
C681 H660 0.950 . S
C681 C680 1.373 1_655 S
C681 C697 1.377 . S
C682 C680 1.389 . S
C682 C683 1.524 . S
C682 C696 1.377 . S
C683 C682 1.524 . S
C683 C684 1.397 . S
C683 C688 1.363 . S
C684 H661 0.950 . S
C684 C683 1.397 . S
C684 C685 1.334 . S
C685 H662 0.950 . S
C685 C684 1.334 . S
C685 C686 1.287 . S
C686 C685 1.287 . S
C686 C687 1.524 . S
C686 H705 0.913 . S
C687 H663 0.950 . S
C687 C686 1.524 . S
C687 C688 1.415 . S
C688 H664 0.950 . S
C688 C683 1.363 . S
C688 C687 1.415 . S
C689 H665 0.949 1_455 S
C689 C690 1.369 . S
C689 C691 1.386 1_455 S
C690 C689 1.369 . S
C690 C694 1.385 1_556 S
C691 H666 0.954 . S
C691 C689 1.386 1_655 S
C691 C692 1.363 1_655 S
C692 C691 1.363 1_455 S
C692 C693 1.414 . S
C692 C695 1.499 . S
C693 H667 0.950 1_556 S
C693 C692 1.414 . S
C693 C694 1.374 1_556 S
C694 H668 0.950 . S
C694 C690 1.385 1_554 S
C694 C693 1.374 1_554 S
C695 C692 1.499 . S
C695 C696 1.373 . S
C695 C697 1.389 1_455 S
C696 H669 0.950 . S
C696 C682 1.377 . S
C696 C695 1.373 . S
C697 C681 1.377 . S
C697 C695 1.389 1_655 S
C697 C698 1.524 . S
C698 C697 1.524 . S
C698 C699 1.397 . S
C698 C703 1.363 . S
C699 H670 0.950 . S
C699 C698 1.397 . S
C699 C700 1.334 . S
C700 H671 0.950 . S
C700 C699 1.334 . S
C700 C701 1.287 . S
C701 C700 1.287 . S
C701 C702 1.524 . S
C701 H704 0.999 . S
C702 H672 0.950 . S
C702 C701 1.524 . S
C702 C703 1.415 . S
C703 H673 0.950 . S
C703 C698 1.363 . S
C703 C702 1.415 . S
H704 C701 0.999 . S
H705 C686 0.913 . S
H706 C724 0.951 . S
H707 C726 0.951 . S
H708 C728 0.950 . S
H709 C729 0.950 . S
H710 C731 0.950 . S
H711 C734 0.950 . S
H712 C735 0.950 . S
H713 C737 0.950 . S
H714 C738 0.950 . S
H715 C739 0.951 . S
H716 C741 0.951 . S
H717 C743 0.950 . S
H718 C744 0.950 . S
H719 C746 0.950 . S
H720 C749 0.950 . S
H721 C750 0.950 . S
H722 C752 0.950 . S
H723 C753 0.950 . S
C724 H706 0.951 . S
C724 C725 1.366 . S
C724 C726 1.388 . S
C725 C724 1.366 . S
C725 C729 1.385 . S
C726 H707 0.951 . S
C726 C724 1.388 . S
C726 C727 1.366 . S
C727 C726 1.366 . S
C727 C728 1.414 . S
C727 C730 1.499 . S
C728 H708 0.950 . S
C728 C727 1.414 . S
C728 C729 1.374 . S
C729 H709 0.950 . S
C729 C725 1.385 . S
C729 C728 1.374 . S
C730 C727 1.499 . S
C730 C731 1.373 . S
C730 C732 1.389 . S
C731 H710 0.950 . S
C731 C730 1.373 . S
C731 C747 1.377 . S
C732 C730 1.389 . S
C732 C733 1.524 . S
C732 C746 1.377 . S
C733 C732 1.524 . S
C733 C734 1.397 . S
C733 C738 1.363 . S
C734 H711 0.950 . S
C734 C733 1.397 . S
C734 C735 1.334 . S
C735 H712 0.950 . S
C735 C734 1.334 . S
C735 C736 1.287 . S
C736 C735 1.287 . S
C736 C737 1.524 . S
C736 H755 0.913 . S
C737 H713 0.950 . S
C737 C736 1.524 . S
C737 C738 1.415 . S
C738 H714 0.950 . S
C738 C733 1.363 . S
C738 C737 1.415 . S
C739 H715 0.951 . S
C739 C740 1.366 . S
C739 C741 1.388 . S
C740 C739 1.366 . S
C740 C744 1.385 . S
C741 H716 0.951 . S
C741 C739 1.388 . S
C741 C742 1.366 . S
C742 C741 1.366 . S
C742 C743 1.414 . S
C742 C745 1.499 . S
C743 H717 0.950 . S
C743 C742 1.414 . S
C743 C744 1.374 . S
C744 H718 0.950 . S
C744 C740 1.385 . S
C744 C743 1.374 . S
C745 C742 1.499 . S
C745 C746 1.373 . S
C745 C747 1.389 . S
C746 H719 0.950 . S
C746 C732 1.377 . S
C746 C745 1.373 . S
C747 C731 1.377 . S
C747 C745 1.389 . S
C747 C748 1.524 . S
C748 C747 1.524 . S
C748 C749 1.397 . S
C748 C753 1.363 . S
C749 H720 0.950 . S
C749 C748 1.397 . S
C749 C750 1.334 . S
C750 H721 0.950 . S
C750 C749 1.334 . S
C750 C751 1.287 . S
C751 C750 1.287 . S
C751 C752 1.524 . S
C751 H754 0.999 . S
C752 H722 0.950 . S
C752 C751 1.524 . S
C752 C753 1.415 . S
C753 H723 0.950 . S
C753 C748 1.363 . S
C753 C752 1.415 . S
H754 C751 0.999 . S
H755 C736 0.913 . S
H756 C774 0.951 . S
H757 C776 0.951 . S
H758 C778 0.950 . S
H759 C779 0.950 . S
H760 C781 0.950 . S
H761 C784 0.950 . S
H762 C785 0.950 . S
H763 C787 0.950 . S
H764 C788 0.950 . S
H765 C789 0.951 . S
H766 C791 0.951 . S
H767 C793 0.950 . S
H768 C794 0.950 . S
H769 C796 0.950 . S
H770 C799 0.950 . S
H771 C800 0.950 . S
H772 C802 0.950 . S
H773 C803 0.950 . S
C774 H756 0.951 . S
C774 C775 1.366 . S
C774 C776 1.388 . S
C775 C774 1.366 . S
C775 C779 1.385 . S
C776 H757 0.951 . S
C776 C774 1.388 . S
C776 C777 1.366 . S
C777 C776 1.366 . S
C777 C778 1.414 . S
C777 C780 1.499 . S
C778 H758 0.950 . S
C778 C777 1.414 . S
C778 C779 1.374 . S
C779 H759 0.950 . S
C779 C775 1.385 . S
C779 C778 1.374 . S
C780 C777 1.499 . S
C780 C781 1.373 . S
C780 C782 1.389 . S
C781 H760 0.950 . S
C781 C780 1.373 . S
C781 C797 1.377 . S
C782 C780 1.389 . S
C782 C783 1.524 . S
C782 C796 1.377 . S
C783 C782 1.524 . S
C783 C784 1.397 . S
C783 C788 1.363 . S
C784 H761 0.950 . S
C784 C783 1.397 . S
C784 C785 1.334 . S
C785 H762 0.950 . S
C785 C784 1.334 . S
C785 C786 1.287 . S
C786 C785 1.287 . S
C786 C787 1.524 . S
C786 H805 0.913 . S
C787 H763 0.950 . S
C787 C786 1.524 . S
C787 C788 1.415 . S
C788 H764 0.950 . S
C788 C783 1.363 . S
C788 C787 1.415 . S
C789 H765 0.951 . S
C789 C790 1.366 . S
C789 C791 1.388 . S
C790 C789 1.366 . S
C790 C794 1.385 . S
C791 H766 0.951 . S
C791 C789 1.388 . S
C791 C792 1.366 . S
C792 C791 1.366 . S
C792 C793 1.414 . S
C792 C795 1.499 . S
C793 H767 0.950 . S
C793 C792 1.414 . S
C793 C794 1.374 . S
C794 H768 0.950 . S
C794 C790 1.385 . S
C794 C793 1.374 . S
C795 C792 1.499 . S
C795 C796 1.373 . S
C795 C797 1.389 . S
C796 H769 0.950 . S
C796 C782 1.377 . S
C796 C795 1.373 . S
C797 C781 1.377 . S
C797 C795 1.389 . S
C797 C798 1.524 . S
C798 C797 1.524 . S
C798 C799 1.397 . S
C798 C803 1.363 . S
C799 H770 0.950 . S
C799 C798 1.397 . S
C799 C800 1.334 . S
C800 H771 0.950 . S
C800 C799 1.334 . S
C800 C801 1.287 . S
C801 C800 1.287 . S
C801 C802 1.524 . S
C801 H804 0.999 . S
C802 H772 0.950 . S
C802 C801 1.524 . S
C802 C803 1.415 . S
C803 H773 0.950 . S
C803 C798 1.363 . S
C803 C802 1.415 . S
H804 C801 0.999 . S
H805 C786 0.913 . S
H806 C824 0.951 . S
H807 C826 0.951 . S
H808 C828 0.950 . S
H809 C829 0.950 . S
H810 C831 0.950 . S
H811 C834 0.950 . S
H812 C835 0.950 . S
H813 C837 0.950 . S
H814 C838 0.950 . S
H815 C839 0.951 . S
H816 C841 0.951 . S
H817 C843 0.950 . S
H818 C844 0.950 . S
H819 C846 0.950 . S
H820 C849 0.950 . S
H821 C850 0.950 . S
H822 C852 0.950 . S
H823 C853 0.950 . S
C824 H806 0.951 . S
C824 C825 1.366 . S
C824 C826 1.388 . S
C825 C824 1.366 . S
C825 C829 1.385 . S
C826 H807 0.951 . S
C826 C824 1.388 . S
C826 C827 1.366 . S
C827 C826 1.366 . S
C827 C828 1.414 . S
C827 C830 1.499 . S
C828 H808 0.950 . S
C828 C827 1.414 . S
C828 C829 1.374 . S
C829 H809 0.950 . S
C829 C825 1.385 . S
C829 C828 1.374 . S
C830 C827 1.499 . S
C830 C831 1.373 . S
C830 C832 1.389 . S
C831 H810 0.950 . S
C831 C830 1.373 . S
C831 C847 1.377 . S
C832 C830 1.389 . S
C832 C833 1.524 . S
C832 C846 1.377 . S
C833 C832 1.524 . S
C833 C834 1.397 . S
C833 C838 1.363 . S
C834 H811 0.950 . S
C834 C833 1.397 . S
C834 C835 1.334 . S
C835 H812 0.950 . S
C835 C834 1.334 . S
C835 C836 1.287 . S
C836 C835 1.287 . S
C836 C837 1.524 . S
C836 H855 0.913 . S
C837 H813 0.950 . S
C837 C836 1.524 . S
C837 C838 1.415 . S
C838 H814 0.950 . S
C838 C833 1.363 . S
C838 C837 1.415 . S
C839 H815 0.951 . S
C839 C840 1.366 . S
C839 C841 1.388 . S
C840 C839 1.366 . S
C840 C844 1.385 . S
C841 H816 0.951 . S
C841 C839 1.388 . S
C841 C842 1.366 . S
C842 C841 1.366 . S
C842 C843 1.414 . S
C842 C845 1.499 . S
C843 H817 0.950 . S
C843 C842 1.414 . S
C843 C844 1.374 . S
C844 H818 0.950 . S
C844 C840 1.385 . S
C844 C843 1.374 . S
C845 C842 1.499 . S
C845 C846 1.373 . S
C845 C847 1.389 . S
C846 H819 0.950 . S
C846 C832 1.377 . S
C846 C845 1.373 . S
C847 C831 1.377 . S
C847 C845 1.389 . S
C847 C848 1.524 . S
C848 C847 1.524 . S
C848 C849 1.397 . S
C848 C853 1.363 . S
C849 H820 0.950 . S
C849 C848 1.397 . S
C849 C850 1.334 . S
C850 H821 0.950 . S
C850 C849 1.334 . S
C850 C851 1.287 . S
C851 C850 1.287 . S
C851 C852 1.524 . S
C851 H854 0.999 . S
C852 H822 0.950 . S
C852 C851 1.524 . S
C852 C853 1.415 . S
C853 H823 0.950 . S
C853 C848 1.363 . S
C853 C852 1.415 . S
H854 C851 0.999 . S
H855 C836 0.913 . S
H856 C874 0.951 . S
H857 C876 0.951 . S
H858 C878 0.950 . S
H859 C879 0.950 . S
H860 C881 0.950 . S
H861 C884 0.895 1_655 S
H862 C885 0.950 . S
H863 C887 0.950 . S
H864 C888 0.950 . S
H865 C889 0.951 . S
H866 C891 0.951 . S
H867 C893 0.950 . S
H868 C894 0.950 . S
H869 C896 0.950 . S
H870 C899 0.950 . S
H871 C900 0.950 1_455 S
H872 C902 0.950 . S
H873 C903 0.950 . S
C874 H856 0.951 . S
C874 C875 1.366 . S
C874 C876 1.388 . S
C875 C874 1.366 . S
C875 C879 1.385 1_455 S
C876 H857 0.951 . S
C876 C874 1.388 . S
C876 C877 1.366 . S
C877 C876 1.366 . S
C877 C878 1.414 1_455 S
C877 C880 1.499 . S
C878 H858 0.950 . S
C878 C877 1.414 1_655 S
C878 C879 1.374 . S
C879 H859 0.950 . S
C879 C875 1.385 1_655 S
C879 C878 1.374 . S
C880 C877 1.499 . S
C880 C881 1.373 1_455 S
C880 C882 1.389 . S
C881 H860 0.950 . S
C881 C880 1.373 1_655 S
C881 C897 1.377 . S
C882 C880 1.389 . S
C882 C883 1.524 . S
C882 C896 1.377 . S
C883 C882 1.524 . S
C883 C884 1.397 . S
C883 C888 1.363 . S
C884 H861 0.895 1_455 S
C884 C883 1.397 . S
C884 C885 1.334 . S
C885 H862 0.950 . S
C885 C884 1.334 . S
C885 C886 1.287 . S
C886 C885 1.287 . S
C886 C887 1.524 . S
C886 H905 0.913 . S
C887 H863 0.950 . S
C887 C886 1.524 . S
C887 C888 1.415 . S
C888 H864 0.950 . S
C888 C883 1.363 . S
C888 C887 1.415 . S
C889 H865 0.951 . S
C889 C890 1.366 1_655 S
C889 C891 1.388 . S
C890 C889 1.366 1_455 S
C890 C894 1.385 . S
C891 H866 0.951 . S
C891 C889 1.388 . S
C891 C892 1.366 1_655 S
C892 C891 1.366 1_455 S
C892 C893 1.414 . S
C892 C895 1.499 . S
C893 H867 0.950 . S
C893 C892 1.414 . S
C893 C894 1.374 . S
C894 H868 0.950 . S
C894 C890 1.385 . S
C894 C893 1.374 . S
C895 C892 1.499 . S
C895 C896 1.373 . S
C895 C897 1.383 1_455 S
C896 H869 0.950 . S
C896 C882 1.377 . S
C896 C895 1.373 . S
C897 C881 1.377 . S
C897 C895 1.383 1_655 S
C897 C898 1.530 . S
C898 C897 1.530 . S
C898 C899 1.397 1_655 S
C898 C903 1.363 . S
C899 H870 0.950 . S
C899 C898 1.397 1_455 S
C899 C900 1.334 1_455 S
C900 H871 0.950 1_655 S
C900 C899 1.334 1_655 S
C900 C901 1.287 . S
C901 C900 1.287 . S
C901 C902 1.524 . S
C901 H904 0.999 . S
C902 H872 0.950 . S
C902 C901 1.524 . S
C902 C903 1.415 . S
C903 H873 0.950 . S
C903 C898 1.363 . S
C903 C902 1.415 . S
H904 C901 0.999 . S
H905 C886 0.913 . S
H906 C924 0.951 . S
H907 C926 0.951 . S
H908 C928 0.950 . S
H909 C929 0.950 . S
H910 C931 0.950 . S
H911 C934 0.950 . S
H912 C935 0.950 . S
H913 C937 0.950 . S
H914 C938 0.950 . S
H915 C939 0.951 . S
H916 C941 0.951 . S
H917 C943 0.950 . S
H918 C944 0.950 . S
H919 C946 0.950 . S
H920 C949 0.950 . S
H921 C950 0.950 . S
H922 C952 0.950 . S
H923 C953 0.950 . S
C924 H906 0.951 . S
C924 C925 1.366 . S
C924 C926 1.388 . S
C925 C924 1.366 . S
C925 C929 1.385 . S
C926 H907 0.951 . S
C926 C924 1.388 . S
C926 C927 1.366 . S
C927 C926 1.366 . S
C927 C928 1.414 . S
C927 C930 1.499 . S
C928 H908 0.950 . S
C928 C927 1.414 . S
C928 C929 1.374 . S
C929 H909 0.950 . S
C929 C925 1.385 . S
C929 C928 1.374 . S
C930 C927 1.499 . S
C930 C931 1.373 . S
C930 C932 1.389 . S
C931 H910 0.950 . S
C931 C930 1.373 . S
C931 C947 1.377 . S
C932 C930 1.389 . S
C932 C933 1.524 . S
C932 C946 1.377 . S
C933 C932 1.524 . S
C933 C934 1.397 . S
C933 C938 1.363 . S
C934 H911 0.950 . S
C934 C933 1.397 . S
C934 C935 1.334 . S
C935 H912 0.950 . S
C935 C934 1.334 . S
C935 C936 1.287 . S
C936 C935 1.287 . S
C936 C937 1.524 . S
C936 H955 0.913 . S
C937 H913 0.950 . S
C937 C936 1.524 . S
C937 C938 1.415 . S
C938 H914 0.950 . S
C938 C933 1.363 . S
C938 C937 1.415 . S
C939 H915 0.951 . S
C939 C940 1.366 . S
C939 C941 1.388 . S
C940 C939 1.366 . S
C940 C944 1.385 . S
C941 H916 0.951 . S
C941 C939 1.388 . S
C941 C942 1.366 . S
C942 C941 1.366 . S
C942 C943 1.414 . S
C942 C945 1.499 . S
C943 H917 0.950 . S
C943 C942 1.414 . S
C943 C944 1.374 . S
C944 H918 0.950 . S
C944 C940 1.385 . S
C944 C943 1.374 . S
C945 C942 1.499 . S
C945 C946 1.373 . S
C945 C947 1.389 . S
C946 H919 0.950 . S
C946 C932 1.377 . S
C946 C945 1.373 . S
C947 C931 1.377 . S
C947 C945 1.389 . S
C947 C948 1.524 . S
C948 C947 1.524 . S
C948 C949 1.397 . S
C948 C953 1.363 . S
C949 H920 0.950 . S
C949 C948 1.397 . S
C949 C950 1.334 . S
C950 H921 0.950 . S
C950 C949 1.334 . S
C950 C951 1.287 . S
C951 C950 1.287 . S
C951 C952 1.524 . S
C951 H954 0.999 . S
C952 H922 0.950 . S
C952 C951 1.524 . S
C952 C953 1.415 . S
C953 H923 0.950 . S
C953 C948 1.363 . S
C953 C952 1.415 . S
H954 C951 0.999 . S
H955 C936 0.913 . S
H956 C974 0.951 . S
H957 C976 0.951 . S
H958 C978 0.950 . S
H959 C979 0.950 . S
H960 C981 0.950 . S
H961 C984 0.950 . S
H962 C985 0.950 . S
H963 C987 0.950 . S
H964 C988 0.950 . S
H965 C989 0.951 . S
H966 C991 0.951 . S
H967 C993 0.950 . S
H968 C994 0.950 . S
H969 C996 0.950 . S
H970 C999 0.950 . S
H971 C1000 0.950 . S
H972 C1002 0.950 . S
H973 C1003 0.950 . S
C974 H956 0.951 . S
C974 C975 1.366 . S
C974 C976 1.388 . S
C975 C974 1.366 . S
C975 C979 1.385 . S
C976 H957 0.951 . S
C976 C974 1.388 . S
C976 C977 1.366 . S
C977 C976 1.366 . S
C977 C978 1.414 . S
C977 C980 1.499 . S
C978 H958 0.950 . S
C978 C977 1.414 . S
C978 C979 1.374 . S
C979 H959 0.950 . S
C979 C975 1.385 . S
C979 C978 1.374 . S
C980 C977 1.499 . S
C980 C981 1.373 . S
C980 C982 1.389 . S
C981 H960 0.950 . S
C981 C980 1.373 . S
C981 C997 1.377 . S
C982 C980 1.389 . S
C982 C983 1.524 . S
C982 C996 1.377 . S
C983 C982 1.524 . S
C983 C984 1.397 . S
C983 C988 1.363 . S
C984 H961 0.950 . S
C984 C983 1.397 . S
C984 C985 1.334 . S
C985 H962 0.950 . S
C985 C984 1.334 . S
C985 C986 1.287 . S
C986 C985 1.287 . S
C986 C987 1.524 . S
C986 H1005 0.913 . S
C987 H963 0.950 . S
C987 C986 1.524 . S
C987 C988 1.415 . S
C988 H964 0.950 . S
C988 C983 1.363 . S
C988 C987 1.415 . S
C989 H965 0.951 . S
C989 C990 1.366 . S
C989 C991 1.388 . S
C990 C989 1.366 . S
C990 C994 1.385 . S
C991 H966 0.951 . S
C991 C989 1.388 . S
C991 C992 1.366 . S
C992 C991 1.366 . S
C992 C993 1.414 . S
C992 C995 1.499 . S
C993 H967 0.950 . S
C993 C992 1.414 . S
C993 C994 1.374 . S
C994 H968 0.950 . S
C994 C990 1.385 . S
C994 C993 1.374 . S
C995 C992 1.499 . S
C995 C996 1.373 . S
C995 C997 1.389 . S
C996 H969 0.950 . S
C996 C982 1.377 . S
C996 C995 1.373 . S
C997 C981 1.377 . S
C997 C995 1.389 . S
C997 C998 1.524 . S
C998 C997 1.524 . S
C998 C999 1.397 . S
C998 C1003 1.363 . S
C999 H970 0.950 . S
C999 C998 1.397 . S
C999 C1000 1.334 . S
C1000 H971 0.950 . S
C1000 C999 1.334 . S
C1000 C1001 1.287 . S
C1001 C1000 1.287 . S
C1001 C1002 1.524 . S
C1001 H1004 0.999 . S
C1002 H972 0.950 . S
C1002 C1001 1.524 . S
C1002 C1003 1.415 . S
C1003 H973 0.950 . S
C1003 C998 1.363 . S
C1003 C1002 1.415 . S
H1004 C1001 0.999 . S
H1005 C986 0.913 . S
H1006 C1024 0.951 . S
H1007 C1026 0.951 . S
H1008 C1028 0.950 . S
H1009 C1029 0.950 . S
H1010 C1031 0.950 . S
H1011 C1034 0.950 . S
H1012 C1035 0.950 . S
H1013 C1037 0.950 . S
H1014 C1038 0.950 . S
H1015 C1039 0.951 . S
H1016 C1041 0.951 . S
H1017 C1043 0.950 . S
H1018 C1044 0.950 . S
H1019 C1046 0.950 . S
H1020 C1049 0.950 . S
H1021 C1050 0.950 . S
H1022 C1052 0.950 . S
H1023 C1053 0.950 . S
C1024 H1006 0.951 . S
C1024 C1025 1.366 . S
C1024 C1026 1.388 . S
C1025 C1024 1.366 . S
C1025 C1029 1.385 . S
C1026 H1007 0.951 . S
C1026 C1024 1.388 . S
C1026 C1027 1.366 . S
C1027 C1026 1.366 . S
C1027 C1028 1.414 . S
C1027 C1030 1.499 . S
C1028 H1008 0.950 . S
C1028 C1027 1.414 . S
C1028 C1029 1.374 . S
C1029 H1009 0.950 . S
C1029 C1025 1.385 . S
C1029 C1028 1.374 . S
C1030 C1027 1.499 . S
C1030 C1031 1.373 . S
C1030 C1032 1.389 . S
C1031 H1010 0.950 . S
C1031 C1030 1.373 . S
C1031 C1047 1.377 . S
C1032 C1030 1.389 . S
C1032 C1033 1.524 . S
C1032 C1046 1.377 . S
C1033 C1032 1.524 . S
C1033 C1034 1.397 . S
C1033 C1038 1.363 . S
C1034 H1011 0.950 . S
C1034 C1033 1.397 . S
C1034 C1035 1.334 . S
C1035 H1012 0.950 . S
C1035 C1034 1.334 . S
C1035 C1036 1.287 . S
C1036 C1035 1.287 . S
C1036 C1037 1.524 . S
C1036 H1055 0.913 . S
C1037 H1013 0.950 . S
C1037 C1036 1.524 . S
C1037 C1038 1.415 . S
C1038 H1014 0.950 . S
C1038 C1033 1.363 . S
C1038 C1037 1.415 . S
C1039 H1015 0.951 . S
C1039 C1040 1.366 . S
C1039 C1041 1.388 . S
C1040 C1039 1.366 . S
C1040 C1044 1.385 . S
C1041 H1016 0.951 . S
C1041 C1039 1.388 . S
C1041 C1042 1.366 . S
C1042 C1041 1.366 . S
C1042 C1043 1.414 . S
C1042 C1045 1.499 . S
C1043 H1017 0.950 . S
C1043 C1042 1.414 . S
C1043 C1044 1.374 . S
C1044 H1018 0.950 . S
C1044 C1040 1.385 . S
C1044 C1043 1.374 . S
C1045 C1042 1.499 . S
C1045 C1046 1.373 . S
C1045 C1047 1.389 . S
C1046 H1019 0.950 . S
C1046 C1032 1.377 . S
C1046 C1045 1.373 . S
C1047 C1031 1.377 . S
C1047 C1045 1.389 . S
C1047 C1048 1.524 . S
C1048 C1047 1.524 . S
C1048 C1049 1.397 . S
C1048 C1053 1.363 . S
C1049 H1020 0.950 . S
C1049 C1048 1.397 . S
C1049 C1050 1.334 . S
C1050 H1021 0.950 . S
C1050 C1049 1.334 . S
C1050 C1051 1.287 . S
C1051 C1050 1.287 . S
C1051 C1052 1.524 . S
C1051 H1054 0.999 . S
C1052 H1022 0.950 . S
C1052 C1051 1.524 . S
C1052 C1053 1.415 . S
C1053 H1023 0.950 . S
C1053 C1048 1.363 . S
C1053 C1052 1.415 . S
H1054 C1051 0.999 . S
H1055 C1036 0.913 . S
H1056 C1074 0.951 . S
H1057 C1076 0.951 . S
H1058 C1078 0.950 . S
H1059 C1079 0.950 . S
H1060 C1081 0.950 . S
H1061 C1084 0.950 . S
H1062 C1085 0.950 . S
H1063 C1087 0.950 1_455 S
H1064 C1088 0.950 . S
H1065 C1089 0.951 . S
H1066 C1091 0.951 . S
H1067 C1093 0.950 1_455 S
H1068 C1094 0.950 . S
H1069 C1096 0.950 . S
H1070 C1099 0.950 . S
H1071 C1100 0.950 . S
H1072 C1102 0.950 . S
H1073 C1103 0.950 . S
C1074 H1056 0.951 . S
C1074 C1075 1.366 . S
C1074 C1076 1.388 . S
C1075 C1074 1.366 . S
C1075 C1079 1.385 . S
C1076 H1057 0.951 . S
C1076 C1074 1.388 . S
C1076 C1077 1.366 . S
C1077 C1076 1.366 . S
C1077 C1078 1.414 . S
C1077 C1080 1.499 . S
C1078 H1058 0.950 . S
C1078 C1077 1.414 . S
C1078 C1079 1.374 . S
C1079 H1059 0.950 . S
C1079 C1075 1.385 . S
C1079 C1078 1.374 . S
C1080 C1077 1.499 . S
C1080 C1081 1.373 . S
C1080 C1082 1.389 . S
C1081 H1060 0.950 . S
C1081 C1080 1.373 . S
C1081 C1097 1.377 . S
C1082 C1080 1.389 . S
C1082 C1083 1.524 . S
C1082 C1096 1.377 . S
C1083 C1082 1.524 . S
C1083 C1084 1.397 . S
C1083 C1088 1.363 . S
C1084 H1061 0.950 . S
C1084 C1083 1.397 . S
C1084 C1085 1.334 . S
C1085 H1062 0.950 . S
C1085 C1084 1.334 . S
C1085 C1086 1.287 . S
C1086 C1085 1.287 . S
C1086 C1087 1.524 . S
C1086 H1105 0.913 . S
C1087 H1063 0.950 1_655 S
C1087 C1086 1.524 . S
C1087 C1088 1.415 . S
C1088 H1064 0.950 . S
C1088 C1083 1.363 . S
C1088 C1087 1.415 . S
C1089 H1065 0.951 . S
C1089 C1090 1.366 . S
C1089 C1091 1.388 . S
C1090 C1089 1.366 . S
C1090 C1094 1.385 1_655 S
C1091 H1066 0.951 . S
C1091 C1089 1.388 . S
C1091 C1092 1.366 . S
C1092 C1091 1.366 . S
C1092 C1093 1.414 . S
C1092 C1095 1.499 . S
C1093 H1067 0.950 1_655 S
C1093 C1092 1.414 . S
C1093 C1094 1.374 1_655 S
C1094 H1068 0.950 . S
C1094 C1090 1.385 1_455 S
C1094 C1093 1.374 1_455 S
C1095 C1092 1.499 . S
C1095 C1096 1.373 . S
C1095 C1097 1.389 . S
C1096 H1069 0.950 . S
C1096 C1082 1.377 . S
C1096 C1095 1.373 . S
C1097 C1081 1.377 . S
C1097 C1095 1.389 . S
C1097 C1098 1.524 . S
C1098 C1097 1.524 . S
C1098 C1099 1.397 . S
C1098 C1103 1.363 . S
C1099 H1070 0.950 . S
C1099 C1098 1.397 . S
C1099 C1100 1.334 1_545 S
C1100 H1071 0.950 . S
C1100 C1099 1.334 1_565 S
C1100 C1101 1.287 . S
C1101 C1100 1.287 . S
C1101 C1102 1.524 . S
C1101 H1104 0.999 . S
C1102 H1072 0.950 . S
C1102 C1101 1.524 . S
C1102 C1103 1.415 1_565 S
C1103 H1073 0.950 . S
C1103 C1098 1.363 . S
C1103 C1102 1.415 1_545 S
H1104 C1101 0.999 . S
H1105 C1086 0.913 . S
H1106 C1124 0.951 . S
H1107 C1126 0.951 . S
H1108 C1128 0.950 . S
H1109 C1129 0.950 . S
H1110 C1131 0.950 . S
H1111 C1134 0.950 . S
H1112 C1135 0.950 . S
H1113 C1137 0.950 . S
H1114 C1138 0.950 . S
H1115 C1139 0.951 . S
H1116 C1141 0.951 . S
H1117 C1143 0.950 . S
H1118 C1144 0.950 . S
H1119 C1146 0.950 . S
H1120 C1149 0.950 . S
H1121 C1150 0.950 . S
H1122 C1152 0.950 . S
H1123 C1153 0.950 . S
C1124 H1106 0.951 . S
C1124 C1125 1.366 . S
C1124 C1126 1.388 . S
C1125 C1124 1.366 . S
C1125 C1129 1.385 . S
C1126 H1107 0.951 . S
C1126 C1124 1.388 . S
C1126 C1127 1.366 . S
C1127 C1126 1.366 . S
C1127 C1128 1.414 . S
C1127 C1130 1.499 . S
C1128 H1108 0.950 . S
C1128 C1127 1.414 . S
C1128 C1129 1.374 . S
C1129 H1109 0.950 . S
C1129 C1125 1.385 . S
C1129 C1128 1.374 . S
C1130 C1127 1.499 . S
C1130 C1131 1.373 . S
C1130 C1132 1.389 . S
C1131 H1110 0.950 . S
C1131 C1130 1.373 . S
C1131 C1147 1.377 . S
C1132 C1130 1.389 . S
C1132 C1133 1.524 . S
C1132 C1146 1.377 . S
C1133 C1132 1.524 . S
C1133 C1134 1.397 . S
C1133 C1138 1.363 . S
C1134 H1111 0.950 . S
C1134 C1133 1.397 . S
C1134 C1135 1.334 . S
C1135 H1112 0.950 . S
C1135 C1134 1.334 . S
C1135 C1136 1.287 . S
C1136 C1135 1.287 . S
C1136 C1137 1.524 . S
C1136 H1155 0.913 . S
C1137 H1113 0.950 . S
C1137 C1136 1.524 . S
C1137 C1138 1.415 . S
C1138 H1114 0.950 . S
C1138 C1133 1.363 . S
C1138 C1137 1.415 . S
C1139 H1115 0.951 . S
C1139 C1140 1.366 . S
C1139 C1141 1.388 . S
C1140 C1139 1.366 . S
C1140 C1144 1.385 . S
C1141 H1116 0.951 . S
C1141 C1139 1.388 . S
C1141 C1142 1.366 . S
C1142 C1141 1.366 . S
C1142 C1143 1.414 . S
C1142 C1145 1.499 . S
C1143 H1117 0.950 . S
C1143 C1142 1.414 . S
C1143 C1144 1.374 . S
C1144 H1118 0.950 . S
C1144 C1140 1.385 . S
C1144 C1143 1.374 . S
C1145 C1142 1.499 . S
C1145 C1146 1.373 . S
C1145 C1147 1.389 . S
C1146 H1119 0.950 . S
C1146 C1132 1.377 . S
C1146 C1145 1.373 . S
C1147 C1131 1.377 . S
C1147 C1145 1.389 . S
C1147 C1148 1.524 . S
C1148 C1147 1.524 . S
C1148 C1149 1.397 . S
C1148 C1153 1.363 . S
C1149 H1120 0.950 . S
C1149 C1148 1.397 . S
C1149 C1150 1.334 . S
C1150 H1121 0.950 . S
C1150 C1149 1.334 . S
C1150 C1151 1.287 . S
C1151 C1150 1.287 . S
C1151 C1152 1.524 . S
C1151 H1154 0.999 . S
C1152 H1122 0.950 . S
C1152 C1151 1.524 . S
C1152 C1153 1.415 . S
C1153 H1123 0.950 . S
C1153 C1148 1.363 . S
C1153 C1152 1.415 . S
H1154 C1151 0.999 . S
H1155 C1136 0.913 . S
H1156 C1174 0.951 1_565 S
H1157 C1176 0.951 1_565 S
H1158 C1178 0.950 . S
H1159 C1179 0.950 . S
H1160 C1181 0.950 . S
H1161 C1184 0.950 . S
H1162 C1185 0.950 . S
H1163 C1187 0.950 . S
H1164 C1188 0.950 . S
H1165 C1189 0.951 . S
H1166 C1191 0.951 . S
H1167 C1193 0.950 . S
H1168 C1194 0.950 . S
H1169 C1196 0.950 1_565 S
H1170 C1199 0.950 . S
H1171 C1200 0.950 . S
H1172 C1202 0.950 . S
H1173 C1203 0.950 . S
C1174 H1156 0.951 1_545 S
C1174 C1175 1.366 . S
C1174 C1176 1.388 . S
C1175 C1174 1.366 . S
C1175 C1179 1.385 . S
C1176 H1157 0.951 1_545 S
C1176 C1174 1.388 . S
C1176 C1177 1.366 . S
C1177 C1176 1.366 . S
C1177 C1178 1.414 . S
C1177 C1180 1.499 . S
C1178 H1158 0.950 . S
C1178 C1177 1.414 . S
C1178 C1179 1.374 . S
C1179 H1159 0.950 . S
C1179 C1175 1.385 . S
C1179 C1178 1.374 . S
C1180 C1177 1.499 . S
C1180 C1181 1.373 . S
C1180 C1182 1.416 . S
C1181 H1160 0.950 . S
C1181 C1180 1.373 . S
C1181 C1197 1.377 . S
C1182 C1180 1.416 . S
C1182 C1183 1.488 1_545 S
C1182 C1196 1.386 . S
C1183 C1182 1.488 1_565 S
C1183 C1184 1.397 . S
C1183 C1188 1.363 . S
C1184 H1161 0.950 . S
C1184 C1183 1.397 . S
C1184 C1185 1.334 . S
C1185 H1162 0.950 . S
C1185 C1184 1.334 . S
C1185 C1186 1.287 . S
C1186 C1185 1.287 . S
C1186 C1187 1.524 . S
C1186 H1205 0.913 . S
C1187 H1163 0.950 . S
C1187 C1186 1.524 . S
C1187 C1188 1.415 . S
C1188 H1164 0.950 . S
C1188 C1183 1.363 . S
C1188 C1187 1.415 . S
C1189 H1165 0.951 . S
C1189 C1190 1.366 . S
C1189 C1191 1.388 . S
C1190 C1189 1.366 . S
C1190 C1194 1.385 . S
C1191 H1166 0.951 . S
C1191 C1189 1.388 . S
C1191 C1192 1.366 . S
C1192 C1191 1.366 . S
C1192 C1193 1.414 . S
C1192 C1195 1.499 . S
C1193 H1167 0.950 . S
C1193 C1192 1.414 . S
C1193 C1194 1.374 . S
C1194 H1168 0.950 . S
C1194 C1190 1.385 . S
C1194 C1193 1.374 . S
C1195 C1192 1.499 . S
C1195 C1196 1.373 . S
C1195 C1197 1.389 . S
C1196 H1169 0.950 1_545 S
C1196 C1182 1.386 . S
C1196 C1195 1.373 . S
C1197 C1181 1.377 . S
C1197 C1195 1.389 . S
C1197 C1198 1.524 . S
C1198 C1197 1.524 . S
C1198 C1199 1.397 . S
C1198 C1203 1.363 . S
C1199 H1170 0.950 . S
C1199 C1198 1.397 . S
C1199 C1200 1.334 . S
C1200 H1171 0.950 . S
C1200 C1199 1.334 . S
C1200 C1201 1.287 . S
C1201 C1200 1.287 . S
C1201 C1202 1.524 . S
C1201 H1204 0.999 . S
C1202 H1172 0.950 . S
C1202 C1201 1.524 . S
C1202 C1203 1.415 . S
C1203 H1173 0.950 . S
C1203 C1198 1.363 . S
C1203 C1202 1.415 . S
H1204 C1201 0.999 . S
H1205 C1186 0.913 . S
H1206 C1224 0.951 . S
H1207 C1226 0.951 . S
H1208 C1228 0.950 . S
H1209 C1229 0.950 . S
H1210 C1231 0.950 . S
H1211 C1234 0.950 . S
H1212 C1235 0.950 . S
H1213 C1237 0.950 . S
H1214 C1238 0.950 . S
H1215 C1239 0.951 . S
H1216 C1241 0.951 . S
H1217 C1243 0.950 . S
H1218 C1244 0.950 . S
H1219 C1246 0.950 . S
H1220 C1249 0.950 . S
H1221 C1250 0.950 . S
H1222 C1252 0.950 . S
H1223 C1253 0.950 . S
C1224 H1206 0.951 . S
C1224 C1225 1.366 . S
C1224 C1226 1.388 . S
C1225 C1224 1.366 . S
C1225 C1229 1.385 . S
C1226 H1207 0.951 . S
C1226 C1224 1.388 . S
C1226 C1227 1.366 . S
C1227 C1226 1.366 . S
C1227 C1228 1.414 . S
C1227 C1230 1.499 . S
C1228 H1208 0.950 . S
C1228 C1227 1.414 . S
C1228 C1229 1.374 . S
C1229 H1209 0.950 . S
C1229 C1225 1.385 . S
C1229 C1228 1.374 . S
C1230 C1227 1.499 . S
C1230 C1231 1.373 . S
C1230 C1232 1.389 . S
C1231 H1210 0.950 . S
C1231 C1230 1.373 . S
C1231 C1247 1.377 . S
C1232 C1230 1.389 . S
C1232 C1233 1.524 . S
C1232 C1246 1.377 . S
C1233 C1232 1.524 . S
C1233 C1234 1.397 . S
C1233 C1238 1.363 . S
C1234 H1211 0.950 . S
C1234 C1233 1.397 . S
C1234 C1235 1.334 . S
C1235 H1212 0.950 . S
C1235 C1234 1.334 . S
C1235 C1236 1.287 . S
C1236 C1235 1.287 . S
C1236 C1237 1.524 . S
C1236 H1255 0.913 . S
C1237 H1213 0.950 . S
C1237 C1236 1.524 . S
C1237 C1238 1.415 . S
C1238 H1214 0.950 . S
C1238 C1233 1.363 . S
C1238 C1237 1.415 . S
C1239 H1215 0.951 . S
C1239 C1240 1.366 . S
C1239 C1241 1.388 . S
C1240 C1239 1.366 . S
C1240 C1244 1.385 . S
C1241 H1216 0.951 . S
C1241 C1239 1.388 . S
C1241 C1242 1.366 . S
C1242 C1241 1.366 . S
C1242 C1243 1.414 . S
C1242 C1245 1.499 . S
C1243 H1217 0.950 . S
C1243 C1242 1.414 . S
C1243 C1244 1.374 . S
C1244 H1218 0.950 . S
C1244 C1240 1.385 . S
C1244 C1243 1.374 . S
C1245 C1242 1.499 . S
C1245 C1246 1.373 . S
C1245 C1247 1.389 . S
C1246 H1219 0.950 . S
C1246 C1232 1.377 . S
C1246 C1245 1.373 . S
C1247 C1231 1.377 . S
C1247 C1245 1.389 . S
C1247 C1248 1.524 . S
C1248 C1247 1.524 . S
C1248 C1249 1.397 . S
C1248 C1253 1.363 . S
C1249 H1220 0.950 . S
C1249 C1248 1.397 . S
C1249 C1250 1.334 . S
C1250 H1221 0.950 . S
C1250 C1249 1.334 . S
C1250 C1251 1.287 . S
C1251 C1250 1.287 . S
C1251 C1252 1.524 . S
C1251 H1254 0.999 . S
C1252 H1222 0.950 . S
C1252 C1251 1.524 . S
C1252 C1253 1.415 . S
C1253 H1223 0.950 . S
C1253 C1248 1.363 . S
C1253 C1252 1.415 . S
H1254 C1251 0.999 . S
H1255 C1236 0.913 . S
H1256 C1274 0.951 . S
H1257 C1276 0.951 . S
H1258 C1278 0.950 . S
H1259 C1279 0.950 . S
H1260 C1281 0.950 . S
H1261 C1284 0.950 . S
H1262 C1285 0.950 . S
H1263 C1287 0.950 . S
H1264 C1288 0.950 . S
H1265 C1289 0.951 1_455 S
H1266 C1291 0.951 . S
H1267 C1293 0.950 . S
H1268 C1294 0.950 . S
H1269 C1296 0.950 . S
H1270 C1299 0.950 1_655 S
H1271 C1300 0.950 . S
H1272 C1302 0.950 . S
H1273 C1303 0.950 . S
C1274 H1256 0.951 . S
C1274 C1275 1.366 . S
C1274 C1276 1.388 . S
C1275 C1274 1.366 . S
C1275 C1279 1.385 . S
C1276 H1257 0.951 . S
C1276 C1274 1.388 . S
C1276 C1277 1.366 . S
C1277 C1276 1.366 . S
C1277 C1278 1.414 . S
C1277 C1280 1.499 . S
C1278 H1258 0.950 . S
C1278 C1277 1.414 . S
C1278 C1279 1.374 . S
C1279 H1259 0.950 . S
C1279 C1275 1.385 . S
C1279 C1278 1.374 . S
C1280 C1277 1.499 . S
C1280 C1281 1.373 . S
C1280 C1282 1.389 . S
C1281 H1260 0.950 . S
C1281 C1280 1.373 . S
C1281 C1297 1.377 . S
C1282 C1280 1.389 . S
C1282 C1283 1.524 . S
C1282 C1296 1.377 . S
C1283 C1282 1.524 . S
C1283 C1284 1.397 . S
C1283 C1288 1.363 . S
C1284 H1261 0.950 . S
C1284 C1283 1.397 . S
C1284 C1285 1.334 . S
C1285 H1262 0.950 . S
C1285 C1284 1.334 . S
C1285 C1286 1.287 . S
C1286 C1285 1.287 . S
C1286 C1287 1.524 . S
C1286 H1305 0.913 . S
C1287 H1263 0.950 . S
C1287 C1286 1.524 . S
C1287 C1288 1.415 . S
C1288 H1264 0.950 . S
C1288 C1283 1.363 . S
C1288 C1287 1.415 . S
C1289 H1265 0.951 1_655 S
C1289 C1290 1.366 . S
C1289 C1291 1.388 . S
C1290 C1289 1.366 . S
C1290 C1294 1.385 . S
C1291 H1266 0.951 . S
C1291 C1289 1.388 . S
C1291 C1292 1.366 . S
C1292 C1291 1.366 . S
C1292 C1293 1.414 . S
C1292 C1295 1.499 . S
C1293 H1267 0.950 . S
C1293 C1292 1.414 . S
C1293 C1294 1.374 . S
C1294 H1268 0.950 . S
C1294 C1290 1.385 . S
C1294 C1293 1.374 . S
C1295 C1292 1.499 . S
C1295 C1296 1.373 . S
C1295 C1297 1.389 . S
C1296 H1269 0.950 . S
C1296 C1282 1.377 . S
C1296 C1295 1.373 . S
C1297 C1281 1.377 . S
C1297 C1295 1.389 . S
C1297 C1298 1.524 . S
C1298 C1297 1.524 . S
C1298 C1299 1.397 1_655 S
C1298 C1303 1.363 1_655 S
C1299 H1270 0.950 1_455 S
C1299 C1298 1.397 1_455 S
C1299 C1300 1.334 . S
C1300 H1271 0.950 . S
C1300 C1299 1.334 . S
C1300 C1301 1.287 . S
C1301 C1300 1.287 . S
C1301 C1302 1.524 . S
C1301 H1304 0.999 . S
C1302 H1272 0.950 . S
C1302 C1301 1.524 . S
C1302 C1303 1.415 . S
C1303 H1273 0.950 . S
C1303 C1298 1.363 1_455 S
C1303 C1302 1.415 . S
H1304 C1301 0.999 . S
H1305 C1286 0.913 . S
H1306 C1324 0.951 . S
H1307 C1326 0.951 . S
H1308 C1328 0.950 . S
H1309 C1329 0.950 . S
H1310 C1331 0.950 . S
H1311 C1334 0.950 . S
H1312 C1335 0.950 . S
H1313 C1337 0.950 . S
H1314 C1338 0.950 . S
H1315 C1339 0.951 . S
H1316 C1341 0.951 . S
H1317 C1343 0.950 . S
H1318 C1344 0.950 . S
H1319 C1346 0.950 . S
H1320 C1349 0.950 . S
H1321 C1350 0.950 . S
H1322 C1352 0.950 . S
H1323 C1353 0.950 . S
C1324 H1306 0.951 . S
C1324 C1325 1.366 . S
C1324 C1326 1.388 . S
C1325 C1324 1.366 . S
C1325 C1329 1.385 . S
C1326 H1307 0.951 . S
C1326 C1324 1.388 . S
C1326 C1327 1.366 . S
C1327 C1326 1.366 . S
C1327 C1328 1.414 . S
C1327 C1330 1.499 . S
C1328 H1308 0.950 . S
C1328 C1327 1.414 . S
C1328 C1329 1.374 . S
C1329 H1309 0.950 . S
C1329 C1325 1.385 . S
C1329 C1328 1.374 . S
C1330 C1327 1.499 . S
C1330 C1331 1.373 . S
C1330 C1332 1.389 . S
C1331 H1310 0.950 . S
C1331 C1330 1.373 . S
C1331 C1347 1.377 . S
C1332 C1330 1.389 . S
C1332 C1333 1.524 . S
C1332 C1346 1.377 . S
C1333 C1332 1.524 . S
C1333 C1334 1.397 . S
C1333 C1338 1.363 . S
C1334 H1311 0.950 . S
C1334 C1333 1.397 . S
C1334 C1335 1.334 . S
C1335 H1312 0.950 . S
C1335 C1334 1.334 . S
C1335 C1336 1.287 . S
C1336 C1335 1.287 . S
C1336 C1337 1.524 . S
C1336 H1355 0.913 . S
C1337 H1313 0.950 . S
C1337 C1336 1.524 . S
C1337 C1338 1.415 . S
C1338 H1314 0.950 . S
C1338 C1333 1.363 . S
C1338 C1337 1.415 . S
C1339 H1315 0.951 . S
C1339 C1340 1.366 . S
C1339 C1341 1.388 . S
C1340 C1339 1.366 . S
C1340 C1344 1.385 . S
C1341 H1316 0.951 . S
C1341 C1339 1.388 . S
C1341 C1342 1.366 . S
C1342 C1341 1.366 . S
C1342 C1343 1.414 . S
C1342 C1345 1.499 . S
C1343 H1317 0.950 . S
C1343 C1342 1.414 . S
C1343 C1344 1.374 . S
C1344 H1318 0.950 . S
C1344 C1340 1.385 . S
C1344 C1343 1.374 . S
C1345 C1342 1.499 . S
C1345 C1346 1.373 . S
C1345 C1347 1.389 . S
C1346 H1319 0.950 . S
C1346 C1332 1.377 . S
C1346 C1345 1.373 . S
C1347 C1331 1.377 . S
C1347 C1345 1.389 . S
C1347 C1348 1.524 . S
C1348 C1347 1.524 . S
C1348 C1349 1.397 . S
C1348 C1353 1.363 . S
C1349 H1320 0.950 . S
C1349 C1348 1.397 . S
C1349 C1350 1.334 . S
C1350 H1321 0.950 . S
C1350 C1349 1.334 . S
C1350 C1351 1.287 . S
C1351 C1350 1.287 . S
C1351 C1352 1.524 . S
C1351 H1354 0.999 . S
C1352 H1322 0.950 . S
C1352 C1351 1.524 . S
C1352 C1353 1.415 . S
C1353 H1323 0.950 . S
C1353 C1348 1.363 . S
C1353 C1352 1.415 . S
H1354 C1351 0.999 . S
H1355 C1336 0.913 . S
H1356 C1374 0.951 . S
H1357 C1376 0.951 . S
H1358 C1378 0.950 . S
H1359 C1379 0.950 . S
H1360 C1381 0.950 . S
H1361 C1384 0.950 . S
H1362 C1385 0.950 . S
H1363 C1387 0.950 . S
H1364 C1388 0.950 . S
H1365 C1389 0.951 . S
H1366 C1391 0.951 . S
H1367 C1393 0.950 . S
H1368 C1394 0.950 . S
H1369 C1396 0.950 . S
H1370 C1399 0.950 . S
H1371 C1400 0.950 . S
H1372 C1402 0.950 . S
H1373 C1403 0.950 . S
C1374 H1356 0.951 . S
C1374 C1375 1.366 . S
C1374 C1376 1.388 . S
C1375 C1374 1.366 . S
C1375 C1379 1.385 . S
C1376 H1357 0.951 . S
C1376 C1374 1.388 . S
C1376 C1377 1.366 . S
C1377 C1376 1.366 . S
C1377 C1378 1.414 . S
C1377 C1380 1.499 . S
C1378 H1358 0.950 . S
C1378 C1377 1.414 . S
C1378 C1379 1.374 . S
C1379 H1359 0.950 . S
C1379 C1375 1.385 . S
C1379 C1378 1.374 . S
C1380 C1377 1.499 . S
C1380 C1381 1.373 . S
C1380 C1382 1.389 . S
C1381 H1360 0.950 . S
C1381 C1380 1.373 . S
C1381 C1397 1.377 . S
C1382 C1380 1.389 . S
C1382 C1383 1.524 . S
C1382 C1396 1.377 . S
C1383 C1382 1.524 . S
C1383 C1384 1.397 1_545 S
C1383 C1388 1.363 . S
C1384 H1361 0.950 . S
C1384 C1383 1.397 1_565 S
C1384 C1385 1.334 . S
C1385 H1362 0.950 . S
C1385 C1384 1.334 . S
C1385 C1386 1.287 . S
C1386 C1385 1.287 . S
C1386 C1387 1.524 1_565 S
C1386 H1405 0.913 . S
C1387 H1363 0.950 . S
C1387 C1386 1.524 1_545 S
C1387 C1388 1.415 . S
C1388 H1364 0.950 . S
C1388 C1383 1.363 . S
C1388 C1387 1.415 . S
C1389 H1365 0.951 . S
C1389 C1390 1.366 . S
C1389 C1391 1.388 . S
C1390 C1389 1.366 . S
C1390 C1394 1.385 . S
C1391 H1366 0.951 . S
C1391 C1389 1.388 . S
C1391 C1392 1.366 . S
C1392 C1391 1.366 . S
C1392 C1393 1.414 . S
C1392 C1395 1.499 . S
C1393 H1367 0.950 . S
C1393 C1392 1.414 . S
C1393 C1394 1.374 . S
C1394 H1368 0.950 . S
C1394 C1390 1.385 . S
C1394 C1393 1.374 . S
C1395 C1392 1.499 . S
C1395 C1396 1.373 . S
C1395 C1397 1.389 . S
C1396 H1369 0.950 . S
C1396 C1382 1.377 . S
C1396 C1395 1.373 . S
C1397 C1381 1.377 . S
C1397 C1395 1.389 . S
C1397 C1398 1.524 . S
C1398 C1397 1.524 . S
C1398 C1399 1.397 . S
C1398 C1403 1.363 . S
C1399 H1370 0.950 . S
C1399 C1398 1.397 . S
C1399 C1400 1.334 . S
C1400 H1371 0.950 . S
C1400 C1399 1.334 . S
C1400 C1401 1.287 . S
C1401 C1400 1.287 . S
C1401 C1402 1.524 . S
C1401 H1404 0.999 . S
C1402 H1372 0.950 . S
C1402 C1401 1.524 . S
C1402 C1403 1.415 . S
C1403 H1373 0.950 . S
C1403 C1398 1.363 . S
C1403 C1402 1.415 . S
H1404 C1401 0.999 . S
H1405 C1386 0.913 . S
H1406 C1424 0.951 . S
H1407 C1426 0.951 . S
H1408 C1428 0.950 . S
H1409 C1429 0.950 . S
H1410 C1431 0.950 . S
H1411 C1434 0.950 . S
H1412 C1435 0.950 . S
H1413 C1437 0.950 . S
H1414 C1438 0.950 . S
H1415 C1439 0.951 . S
H1416 C1441 0.951 . S
H1417 C1443 0.950 . S
H1418 C1444 0.950 . S
H1419 C1446 0.950 . S
H1420 C1449 0.950 . S
H1421 C1450 0.950 . S
H1422 C1452 0.950 . S
H1423 C1453 0.950 . S
C1424 H1406 0.951 . S
C1424 C1425 1.366 . S
C1424 C1426 1.388 . S
C1425 C1424 1.366 . S
C1425 C1429 1.385 . S
C1426 H1407 0.951 . S
C1426 C1424 1.388 . S
C1426 C1427 1.366 . S
C1427 C1426 1.366 . S
C1427 C1428 1.414 . S
C1427 C1430 1.499 . S
C1428 H1408 0.950 . S
C1428 C1427 1.414 . S
C1428 C1429 1.374 . S
C1429 H1409 0.950 . S
C1429 C1425 1.385 . S
C1429 C1428 1.374 . S
C1430 C1427 1.499 . S
C1430 C1431 1.373 . S
C1430 C1432 1.389 . S
C1431 H1410 0.950 . S
C1431 C1430 1.373 . S
C1431 C1447 1.377 . S
C1432 C1430 1.389 . S
C1432 C1433 1.524 . S
C1432 C1446 1.377 . S
C1433 C1432 1.524 . S
C1433 C1434 1.397 . S
C1433 C1438 1.363 . S
C1434 H1411 0.950 . S
C1434 C1433 1.397 . S
C1434 C1435 1.334 . S
C1435 H1412 0.950 . S
C1435 C1434 1.334 . S
C1435 C1436 1.287 . S
C1436 C1435 1.287 . S
C1436 C1437 1.524 . S
C1436 H1455 0.913 . S
C1437 H1413 0.950 . S
C1437 C1436 1.524 . S
C1437 C1438 1.415 . S
C1438 H1414 0.950 . S
C1438 C1433 1.363 . S
C1438 C1437 1.415 . S
C1439 H1415 0.951 . S
C1439 C1440 1.366 . S
C1439 C1441 1.388 . S
C1440 C1439 1.366 . S
C1440 C1444 1.385 . S
C1441 H1416 0.951 . S
C1441 C1439 1.388 . S
C1441 C1442 1.366 . S
C1442 C1441 1.366 . S
C1442 C1443 1.414 . S
C1442 C1445 1.499 . S
C1443 H1417 0.950 . S
C1443 C1442 1.414 . S
C1443 C1444 1.374 . S
C1444 H1418 0.950 . S
C1444 C1440 1.385 . S
C1444 C1443 1.374 . S
C1445 C1442 1.499 . S
C1445 C1446 1.373 . S
C1445 C1447 1.389 . S
C1446 H1419 0.950 . S
C1446 C1432 1.377 . S
C1446 C1445 1.373 . S
C1447 C1431 1.377 . S
C1447 C1445 1.389 . S
C1447 C1448 1.524 . S
C1448 C1447 1.524 . S
C1448 C1449 1.397 . S
C1448 C1453 1.363 . S
C1449 H1420 0.950 . S
C1449 C1448 1.397 . S
C1449 C1450 1.334 . S
C1450 H1421 0.950 . S
C1450 C1449 1.334 . S
C1450 C1451 1.287 . S
C1451 C1450 1.287 . S
C1451 C1452 1.524 . S
C1451 H1454 0.999 . S
C1452 H1422 0.950 . S
C1452 C1451 1.524 . S
C1452 C1453 1.415 . S
C1453 H1423 0.950 . S
C1453 C1448 1.363 . S
C1453 C1452 1.415 . S
H1454 C1451 0.999 . S
H1455 C1436 0.913 . S
H1456 C1474 0.951 . S
H1457 C1476 0.951 . S
H1458 C1478 0.950 . S
H1459 C1479 0.950 . S
H1460 C1481 0.950 . S
H1461 C1484 0.950 . S
H1462 C1485 0.950 . S
H1463 C1487 0.950 . S
H1464 C1488 0.950 1_545 S
H1465 C1489 0.951 . S
H1466 C1491 0.951 . S
H1467 C1493 0.950 . S
H1468 C1494 0.950 . S
H1469 C1496 0.950 . S
H1470 C1499 0.950 . S
H1471 C1500 0.950 . S
H1472 C1502 0.950 . S
H1473 C1503 0.950 . S
C1474 H1456 0.951 . S
C1474 C1475 1.366 . S
C1474 C1476 1.388 . S
C1475 C1474 1.366 . S
C1475 C1479 1.385 . S
C1476 H1457 0.951 . S
C1476 C1474 1.388 . S
C1476 C1477 1.366 . S
C1477 C1476 1.366 . S
C1477 C1478 1.414 . S
C1477 C1480 1.499 . S
C1478 H1458 0.950 . S
C1478 C1477 1.414 . S
C1478 C1479 1.374 . S
C1479 H1459 0.950 . S
C1479 C1475 1.385 . S
C1479 C1478 1.374 . S
C1480 C1477 1.499 . S
C1480 C1481 1.373 . S
C1480 C1482 1.389 . S
C1481 H1460 0.950 . S
C1481 C1480 1.373 . S
C1481 C1497 1.377 . S
C1482 C1480 1.389 . S
C1482 C1483 1.524 . S
C1482 C1496 1.377 . S
C1483 C1482 1.524 . S
C1483 C1484 1.397 . S
C1483 C1488 1.363 . S
C1484 H1461 0.950 . S
C1484 C1483 1.397 . S
C1484 C1485 1.334 . S
C1485 H1462 0.950 . S
C1485 C1484 1.334 . S
C1485 C1486 1.287 . S
C1486 C1485 1.287 . S
C1486 C1487 1.524 1_565 S
C1486 H1505 0.913 . S
C1487 H1463 0.950 . S
C1487 C1486 1.524 1_545 S
C1487 C1488 1.415 1_545 S
C1488 H1464 0.950 1_565 S
C1488 C1483 1.363 . S
C1488 C1487 1.415 1_565 S
C1489 H1465 0.951 . S
C1489 C1490 1.366 1_565 S
C1489 C1491 1.388 . S
C1490 C1489 1.366 1_545 S
C1490 C1494 1.385 . S
C1491 H1466 0.951 . S
C1491 C1489 1.388 . S
C1491 C1492 1.366 . S
C1492 C1491 1.366 . S
C1492 C1493 1.414 1_565 S
C1492 C1495 1.499 . S
C1493 H1467 0.950 . S
C1493 C1492 1.414 1_545 S
C1493 C1494 1.374 . S
C1494 H1468 0.950 . S
C1494 C1490 1.385 . S
C1494 C1493 1.374 . S
C1495 C1492 1.499 . S
C1495 C1496 1.373 . S
C1495 C1497 1.389 . S
C1496 H1469 0.950 . S
C1496 C1482 1.377 . S
C1496 C1495 1.373 . S
C1497 C1481 1.377 . S
C1497 C1495 1.389 . S
C1497 C1498 1.524 1_554 S
C1498 C1497 1.524 1_556 S
C1498 C1499 1.397 . S
C1498 C1503 1.363 . S
C1499 H1470 0.950 . S
C1499 C1498 1.397 . S
C1499 C1500 1.334 . S
C1500 H1471 0.950 . S
C1500 C1499 1.334 . S
C1500 C1501 1.287 . S
C1501 C1500 1.287 . S
C1501 C1502 1.524 . S
C1501 H1504 0.999 . S
C1502 H1472 0.950 . S
C1502 C1501 1.524 . S
C1502 C1503 1.415 . S
C1503 H1473 0.950 . S
C1503 C1498 1.363 . S
C1503 C1502 1.415 . S
H1504 C1501 0.999 . S
H1505 C1486 0.913 . S
H1506 C1524 0.951 . S
H1507 C1526 0.951 . S
H1508 C1528 0.950 . S
H1509 C1529 0.950 . S
H1510 C1531 0.950 . S
H1511 C1534 0.950 . S
H1512 C1535 0.950 . S
H1513 C1537 0.950 . S
H1514 C1538 0.950 1_556 S
H1515 C1539 0.951 . S
H1516 C1541 0.951 . S
H1517 C1543 0.950 . S
H1518 C1544 0.950 . S
H1519 C1546 0.950 . S
H1520 C1549 0.950 . S
H1521 C1550 0.950 . S
H1522 C1552 0.950 . S
H1523 C1553 0.950 1_554 S
C1524 H1506 0.951 . S
C1524 C1525 1.366 1_556 S
C1524 C1526 1.388 . S
C1525 C1524 1.366 1_554 S
C1525 C1529 1.385 . S
C1526 H1507 0.951 . S
C1526 C1524 1.388 . S
C1526 C1527 1.366 1_556 S
C1527 C1526 1.366 1_554 S
C1527 C1528 1.414 . S
C1527 C1530 1.499 . S
C1528 H1508 0.950 . S
C1528 C1527 1.414 . S
C1528 C1529 1.374 . S
C1529 H1509 0.950 . S
C1529 C1525 1.385 . S
C1529 C1528 1.374 . S
C1530 C1527 1.499 . S
C1530 C1531 1.373 1_554 S
C1530 C1532 1.389 . S
C1531 H1510 0.950 . S
C1531 C1530 1.373 1_556 S
C1531 C1547 1.377 . S
C1532 C1530 1.389 . S
C1532 C1533 1.524 . S
C1532 C1546 1.377 . S
C1533 C1532 1.524 . S
C1533 C1534 1.397 . S
C1533 C1538 1.363 . S
C1534 H1511 0.950 . S
C1534 C1533 1.397 . S
C1534 C1535 1.334 . S
C1535 H1512 0.950 . S
C1535 C1534 1.334 . S
C1535 C1536 1.287 . S
C1536 C1535 1.287 . S
C1536 C1537 1.524 . S
C1536 H1555 0.913 . S
C1537 H1513 0.950 . S
C1537 C1536 1.524 . S
C1537 C1538 1.415 . S
C1538 H1514 0.950 1_554 S
C1538 C1533 1.363 . S
C1538 C1537 1.415 . S
C1539 H1515 0.951 . S
C1539 C1540 1.366 . S
C1539 C1541 1.388 . S
C1540 C1539 1.366 . S
C1540 C1544 1.385 1_554 S
C1541 H1516 0.951 . S
C1541 C1539 1.388 . S
C1541 C1542 1.366 . S
C1542 C1541 1.366 . S
C1542 C1543 1.414 1_554 S
C1542 C1545 1.499 . S
C1543 H1517 0.950 . S
C1543 C1542 1.414 1_556 S
C1543 C1544 1.374 . S
C1544 H1518 0.950 . S
C1544 C1540 1.385 1_556 S
C1544 C1543 1.374 . S
C1545 C1542 1.499 . S
C1545 C1546 1.373 . S
C1545 C1547 1.389 1_554 S
C1546 H1519 0.950 . S
C1546 C1532 1.377 . S
C1546 C1545 1.373 . S
C1547 C1531 1.377 . S
C1547 C1545 1.389 1_556 S
C1547 C1548 1.524 . S
C1548 C1547 1.524 . S
C1548 C1549 1.397 . S
C1548 C1553 1.363 . S
C1549 H1520 0.950 . S
C1549 C1548 1.397 . S
C1549 C1550 1.334 . S
C1550 H1521 0.950 . S
C1550 C1549 1.334 . S
C1550 C1551 1.287 . S
C1551 C1550 1.287 . S
C1551 C1552 1.524 . S
C1551 H1554 0.999 . S
C1552 H1522 0.950 . S
C1552 C1551 1.524 . S
C1552 C1553 1.415 . S
C1553 H1523 0.950 1_556 S
C1553 C1548 1.363 . S
C1553 C1552 1.415 . S
H1554 C1551 0.999 . S
H1555 C1536 0.913 . S
H1556 C1574 0.951 . S
H1557 C1576 0.951 . S
H1558 C1578 0.950 . S
H1559 C1579 0.950 . S
H1560 C1581 0.950 . S
H1561 C1584 0.950 . S
H1562 C1585 0.950 . S
H1563 C1587 0.950 . S
H1564 C1588 0.950 . S
H1565 C1589 0.951 . S
H1566 C1591 0.951 . S
H1567 C1593 0.950 . S
H1568 C1594 0.950 . S
H1569 C1596 0.950 . S
H1570 C1599 0.950 . S
H1571 C1600 0.950 . S
H1572 C1602 0.950 . S
H1573 C1603 0.950 . S
C1574 H1556 0.951 . S
C1574 C1575 1.366 . S
C1574 C1576 1.388 . S
C1575 C1574 1.366 . S
C1575 C1579 1.385 . S
C1576 H1557 0.951 . S
C1576 C1574 1.388 . S
C1576 C1577 1.366 . S
C1577 C1576 1.366 . S
C1577 C1578 1.414 . S
C1577 C1580 1.499 . S
C1578 H1558 0.950 . S
C1578 C1577 1.414 . S
C1578 C1579 1.374 . S
C1579 H1559 0.950 . S
C1579 C1575 1.385 . S
C1579 C1578 1.374 . S
C1580 C1577 1.499 . S
C1580 C1581 1.373 . S
C1580 C1582 1.389 . S
C1581 H1560 0.950 . S
C1581 C1580 1.373 . S
C1581 C1597 1.377 . S
C1582 C1580 1.389 . S
C1582 C1583 1.524 . S
C1582 C1596 1.377 . S
C1583 C1582 1.524 . S
C1583 C1584 1.397 . S
C1583 C1588 1.363 . S
C1584 H1561 0.950 . S
C1584 C1583 1.397 . S
C1584 C1585 1.334 . S
C1585 H1562 0.950 . S
C1585 C1584 1.334 . S
C1585 C1586 1.287 . S
C1586 C1585 1.287 . S
C1586 C1587 1.524 . S
C1586 H1605 0.913 . S
C1587 H1563 0.950 . S
C1587 C1586 1.524 . S
C1587 C1588 1.415 . S
C1588 H1564 0.950 . S
C1588 C1583 1.363 . S
C1588 C1587 1.415 . S
C1589 H1565 0.951 . S
C1589 C1590 1.366 . S
C1589 C1591 1.388 . S
C1590 C1589 1.366 . S
C1590 C1594 1.385 . S
C1591 H1566 0.951 . S
C1591 C1589 1.388 . S
C1591 C1592 1.366 . S
C1592 C1591 1.366 . S
C1592 C1593 1.414 . S
C1592 C1595 1.499 . S
C1593 H1567 0.950 . S
C1593 C1592 1.414 . S
C1593 C1594 1.374 . S
C1594 H1568 0.950 . S
C1594 C1590 1.385 . S
C1594 C1593 1.374 . S
C1595 C1592 1.499 . S
C1595 C1596 1.373 . S
C1595 C1597 1.389 . S
C1596 H1569 0.950 . S
C1596 C1582 1.377 . S
C1596 C1595 1.373 . S
C1597 C1581 1.377 . S
C1597 C1595 1.389 . S
C1597 C1598 1.524 . S
C1598 C1597 1.524 . S
C1598 C1599 1.397 . S
C1598 C1603 1.363 . S
C1599 H1570 0.950 . S
C1599 C1598 1.397 . S
C1599 C1600 1.334 . S
C1600 H1571 0.950 . S
C1600 C1599 1.334 . S
C1600 C1601 1.287 . S
C1601 C1600 1.287 . S
C1601 C1602 1.524 . S
C1601 H1604 0.999 . S
C1602 H1572 0.950 . S
C1602 C1601 1.524 . S
C1602 C1603 1.415 . S
C1603 H1573 0.950 . S
C1603 C1598 1.363 . S
C1603 C1602 1.415 . S
H1604 C1601 0.999 . S
H1605 C1586 0.913 . S
H1606 C1624 0.951 . S
H1607 C1626 0.951 . S
H1608 C1628 0.950 . S
H1609 C1629 0.950 . S
H1610 C1631 0.950 . S
H1611 C1634 0.950 . S
H1612 C1635 0.950 . S
H1613 C1637 0.950 . S
H1614 C1638 0.950 . S
H1615 C1639 0.951 . S
H1616 C1641 0.951 . S
H1617 C1643 0.950 . S
H1618 C1644 0.950 . S
H1619 C1646 0.950 . S
H1620 C1649 0.950 . S
H1621 C1650 0.950 . S
H1622 C1652 0.950 . S
H1623 C1653 0.950 . S
C1624 H1606 0.951 . S
C1624 C1625 1.366 . S
C1624 C1626 1.388 . S
C1625 C1624 1.366 . S
C1625 C1629 1.385 . S
C1626 H1607 0.951 . S
C1626 C1624 1.388 . S
C1626 C1627 1.366 . S
C1627 C1626 1.366 . S
C1627 C1628 1.414 . S
C1627 C1630 1.499 . S
C1628 H1608 0.950 . S
C1628 C1627 1.414 . S
C1628 C1629 1.374 . S
C1629 H1609 0.950 . S
C1629 C1625 1.385 . S
C1629 C1628 1.374 . S
C1630 C1627 1.499 . S
C1630 C1631 1.373 . S
C1630 C1632 1.389 . S
C1631 H1610 0.950 . S
C1631 C1630 1.373 . S
C1631 C1647 1.377 . S
C1632 C1630 1.389 . S
C1632 C1633 1.524 . S
C1632 C1646 1.377 . S
C1633 C1632 1.524 . S
C1633 C1634 1.397 . S
C1633 C1638 1.363 . S
C1634 H1611 0.950 . S
C1634 C1633 1.397 . S
C1634 C1635 1.334 . S
C1635 H1612 0.950 . S
C1635 C1634 1.334 . S
C1635 C1636 1.287 . S
C1636 C1635 1.287 . S
C1636 C1637 1.524 . S
C1636 H1655 0.913 . S
C1637 H1613 0.950 . S
C1637 C1636 1.524 . S
C1637 C1638 1.415 . S
C1638 H1614 0.950 . S
C1638 C1633 1.363 . S
C1638 C1637 1.415 . S
C1639 H1615 0.951 . S
C1639 C1640 1.366 . S
C1639 C1641 1.388 . S
C1640 C1639 1.366 . S
C1640 C1644 1.385 . S
C1641 H1616 0.951 . S
C1641 C1639 1.388 . S
C1641 C1642 1.366 . S
C1642 C1641 1.366 . S
C1642 C1643 1.414 . S
C1642 C1645 1.499 . S
C1643 H1617 0.950 . S
C1643 C1642 1.414 . S
C1643 C1644 1.374 . S
C1644 H1618 0.950 . S
C1644 C1640 1.385 . S
C1644 C1643 1.374 . S
C1645 C1642 1.499 . S
C1645 C1646 1.373 . S
C1645 C1647 1.389 . S
C1646 H1619 0.950 . S
C1646 C1632 1.377 . S
C1646 C1645 1.373 . S
C1647 C1631 1.377 . S
C1647 C1645 1.389 . S
C1647 C1648 1.524 . S
C1648 C1647 1.524 . S
C1648 C1649 1.397 . S
C1648 C1653 1.363 . S
C1649 H1620 0.950 . S
C1649 C1648 1.397 . S
C1649 C1650 1.334 . S
C1650 H1621 0.950 . S
C1650 C1649 1.334 . S
C1650 C1651 1.287 . S
C1651 C1650 1.287 . S
C1651 C1652 1.524 . S
C1651 H1654 0.999 . S
C1652 H1622 0.950 . S
C1652 C1651 1.524 . S
C1652 C1653 1.415 . S
C1653 H1623 0.950 . S
C1653 C1648 1.363 . S
C1653 C1652 1.415 . S
H1654 C1651 0.999 . S
H1655 C1636 0.913 . S
H1656 C1674 0.951 . S
H1657 C1676 0.951 . S
H1658 C1678 0.950 . S
H1659 C1679 0.950 . S
H1660 C1681 0.950 . S
H1661 C1684 0.950 . S
H1662 C1685 0.950 . S
H1663 C1687 0.950 . S
H1664 C1688 0.950 . S
H1665 C1689 0.951 . S
H1666 C1691 0.951 . S
H1667 C1693 0.950 . S
H1668 C1694 0.950 . S
H1669 C1696 0.950 . S
H1670 C1699 0.950 . S
H1671 C1700 0.950 . S
H1672 C1702 0.950 . S
H1673 C1703 0.950 . S
C1674 H1656 0.951 . S
C1674 C1675 1.366 . S
C1674 C1676 1.388 . S
C1675 C1674 1.366 . S
C1675 C1679 1.385 . S
C1676 H1657 0.951 . S
C1676 C1674 1.388 . S
C1676 C1677 1.366 . S
C1677 C1676 1.366 . S
C1677 C1678 1.414 . S
C1677 C1680 1.499 . S
C1678 H1658 0.950 . S
C1678 C1677 1.414 . S
C1678 C1679 1.374 . S
C1679 H1659 0.950 . S
C1679 C1675 1.385 . S
C1679 C1678 1.374 . S
C1680 C1677 1.499 . S
C1680 C1681 1.373 . S
C1680 C1682 1.389 . S
C1681 H1660 0.950 . S
C1681 C1680 1.373 . S
C1681 C1697 1.377 . S
C1682 C1680 1.389 . S
C1682 C1683 1.524 . S
C1682 C1696 1.377 . S
C1683 C1682 1.524 . S
C1683 C1684 1.397 . S
C1683 C1688 1.363 . S
C1684 H1661 0.950 . S
C1684 C1683 1.397 . S
C1684 C1685 1.334 . S
C1685 H1662 0.950 . S
C1685 C1684 1.334 . S
C1685 C1686 1.287 . S
C1686 C1685 1.287 . S
C1686 C1687 1.524 . S
C1686 H1705 0.913 . S
C1687 H1663 0.950 . S
C1687 C1686 1.524 . S
C1687 C1688 1.415 . S
C1688 H1664 0.950 . S
C1688 C1683 1.363 . S
C1688 C1687 1.415 . S
C1689 H1665 0.951 . S
C1689 C1690 1.366 . S
C1689 C1691 1.388 . S
C1690 C1689 1.366 . S
C1690 C1694 1.385 . S
C1691 H1666 0.951 . S
C1691 C1689 1.388 . S
C1691 C1692 1.366 . S
C1692 C1691 1.366 . S
C1692 C1693 1.414 . S
C1692 C1695 1.499 . S
C1693 H1667 0.950 . S
C1693 C1692 1.414 . S
C1693 C1694 1.374 . S
C1694 H1668 0.950 . S
C1694 C1690 1.385 . S
C1694 C1693 1.374 . S
C1695 C1692 1.499 . S
C1695 C1696 1.373 . S
C1695 C1697 1.389 . S
C1696 H1669 0.950 . S
C1696 C1682 1.377 . S
C1696 C1695 1.373 . S
C1697 C1681 1.377 . S
C1697 C1695 1.389 . S
C1697 C1698 1.524 . S
C1698 C1697 1.524 . S
C1698 C1699 1.397 . S
C1698 C1703 1.363 . S
C1699 H1670 0.950 . S
C1699 C1698 1.397 . S
C1699 C1700 1.334 . S
C1700 H1671 0.950 . S
C1700 C1699 1.334 . S
C1700 C1701 1.287 . S
C1701 C1700 1.287 . S
C1701 C1702 1.524 . S
C1701 H1704 0.999 . S
C1702 H1672 0.950 . S
C1702 C1701 1.524 . S
C1702 C1703 1.415 . S
C1703 H1673 0.950 . S
C1703 C1698 1.363 . S
C1703 C1702 1.415 . S
H1704 C1701 0.999 . S
H1705 C1686 0.913 . S
H1706 C1724 0.951 . S
H1707 C1726 0.951 . S
H1708 C1728 0.950 . S
H1709 C1729 0.950 . S
H1710 C1731 0.950 . S
H1711 C1734 0.950 . S
H1712 C1735 0.950 . S
H1713 C1737 0.950 . S
H1714 C1738 0.950 . S
H1715 C1739 0.951 . S
H1716 C1741 0.951 . S
H1717 C1743 0.950 . S
H1718 C1744 0.950 . S
H1719 C1746 0.950 . S
H1720 C1749 0.950 . S
H1721 C1750 0.950 . S
H1722 C1752 0.950 . S
H1723 C1753 0.950 . S
C1724 H1706 0.951 . S
C1724 C1725 1.366 . S
C1724 C1726 1.388 . S
C1725 C1724 1.366 . S
C1725 C1729 1.385 . S
C1726 H1707 0.951 . S
C1726 C1724 1.388 . S
C1726 C1727 1.366 . S
C1727 C1726 1.366 . S
C1727 C1728 1.414 . S
C1727 C1730 1.499 . S
C1728 H1708 0.950 . S
C1728 C1727 1.414 . S
C1728 C1729 1.374 . S
C1729 H1709 0.950 . S
C1729 C1725 1.385 . S
C1729 C1728 1.374 . S
C1730 C1727 1.499 . S
C1730 C1731 1.373 . S
C1730 C1732 1.389 . S
C1731 H1710 0.950 . S
C1731 C1730 1.373 . S
C1731 C1747 1.377 . S
C1732 C1730 1.389 . S
C1732 C1733 1.524 . S
C1732 C1746 1.377 . S
C1733 C1732 1.524 . S
C1733 C1734 1.397 . S
C1733 C1738 1.363 . S
C1734 H1711 0.950 . S
C1734 C1733 1.397 . S
C1734 C1735 1.334 . S
C1735 H1712 0.950 . S
C1735 C1734 1.334 . S
C1735 C1736 1.287 . S
C1736 C1735 1.287 . S
C1736 C1737 1.524 . S
C1736 H1755 0.913 . S
C1737 H1713 0.950 . S
C1737 C1736 1.524 . S
C1737 C1738 1.415 . S
C1738 H1714 0.950 . S
C1738 C1733 1.363 . S
C1738 C1737 1.415 . S
C1739 H1715 0.951 . S
C1739 C1740 1.366 . S
C1739 C1741 1.388 . S
C1740 C1739 1.366 . S
C1740 C1744 1.385 . S
C1741 H1716 0.951 . S
C1741 C1739 1.388 . S
C1741 C1742 1.366 . S
C1742 C1741 1.366 . S
C1742 C1743 1.414 . S
C1742 C1745 1.499 . S
C1743 H1717 0.950 . S
C1743 C1742 1.414 . S
C1743 C1744 1.374 . S
C1744 H1718 0.950 . S
C1744 C1740 1.385 . S
C1744 C1743 1.374 . S
C1745 C1742 1.499 . S
C1745 C1746 1.373 . S
C1745 C1747 1.389 . S
C1746 H1719 0.950 . S
C1746 C1732 1.377 . S
C1746 C1745 1.373 . S
C1747 C1731 1.377 . S
C1747 C1745 1.389 . S
C1747 C1748 1.524 . S
C1748 C1747 1.524 . S
C1748 C1749 1.397 . S
C1748 C1753 1.363 . S
C1749 H1720 0.950 . S
C1749 C1748 1.397 . S
C1749 C1750 1.334 . S
C1750 H1721 0.950 . S
C1750 C1749 1.334 . S
C1750 C1751 1.287 . S
C1751 C1750 1.287 . S
C1751 C1752 1.524 . S
C1751 H1754 0.999 . S
C1752 H1722 0.950 . S
C1752 C1751 1.524 . S
C1752 C1753 1.415 . S
C1753 H1723 0.950 . S
C1753 C1748 1.363 . S
C1753 C1752 1.415 . S
H1754 C1751 0.999 . S
H1755 C1736 0.913 . S
H1756 C1774 0.951 . S
H1757 C1776 0.951 . S
H1758 C1778 0.950 . S
H1759 C1779 0.950 . S
H1760 C1781 0.950 . S
H1761 C1784 0.950 . S
H1762 C1785 0.950 . S
H1763 C1787 0.950 . S
H1764 C1788 0.950 . S
H1765 C1789 0.951 . S
H1766 C1791 0.951 . S
H1767 C1793 0.950 . S
H1768 C1794 0.950 . S
H1769 C1796 0.950 . S
H1770 C1799 0.950 . S
H1771 C1800 0.950 . S
H1772 C1802 0.950 . S
H1773 C1803 0.950 . S
C1774 H1756 0.951 . S
C1774 C1775 1.366 . S
C1774 C1776 1.388 . S
C1775 C1774 1.366 . S
C1775 C1779 1.385 . S
C1776 H1757 0.951 . S
C1776 C1774 1.388 . S
C1776 C1777 1.366 . S
C1777 C1776 1.366 . S
C1777 C1778 1.414 . S
C1777 C1780 1.499 . S
C1778 H1758 0.950 . S
C1778 C1777 1.414 . S
C1778 C1779 1.374 . S
C1779 H1759 0.950 . S
C1779 C1775 1.385 . S
C1779 C1778 1.374 . S
C1780 C1777 1.499 . S
C1780 C1781 1.373 . S
C1780 C1782 1.389 . S
C1781 H1760 0.950 . S
C1781 C1780 1.373 . S
C1781 C1797 1.377 . S
C1782 C1780 1.389 . S
C1782 C1783 1.524 . S
C1782 C1796 1.377 . S
C1783 C1782 1.524 . S
C1783 C1784 1.397 . S
C1783 C1788 1.363 . S
C1784 H1761 0.950 . S
C1784 C1783 1.397 . S
C1784 C1785 1.334 . S
C1785 H1762 0.950 . S
C1785 C1784 1.334 . S
C1785 C1786 1.287 . S
C1786 C1785 1.287 . S
C1786 C1787 1.524 . S
C1786 H1805 0.913 . S
C1787 H1763 0.950 . S
C1787 C1786 1.524 . S
C1787 C1788 1.415 . S
C1788 H1764 0.950 . S
C1788 C1783 1.363 . S
C1788 C1787 1.415 . S
C1789 H1765 0.951 . S
C1789 C1790 1.366 . S
C1789 C1791 1.388 . S
C1790 C1789 1.366 . S
C1790 C1794 1.385 . S
C1791 H1766 0.951 . S
C1791 C1789 1.388 . S
C1791 C1792 1.366 . S
C1792 C1791 1.366 . S
C1792 C1793 1.414 . S
C1792 C1795 1.499 . S
C1793 H1767 0.950 . S
C1793 C1792 1.414 . S
C1793 C1794 1.374 . S
C1794 H1768 0.950 . S
C1794 C1790 1.385 . S
C1794 C1793 1.374 . S
C1795 C1792 1.499 . S
C1795 C1796 1.373 . S
C1795 C1797 1.389 . S
C1796 H1769 0.950 . S
C1796 C1782 1.377 . S
C1796 C1795 1.373 . S
C1797 C1781 1.377 . S
C1797 C1795 1.389 . S
C1797 C1798 1.524 . S
C1798 C1797 1.524 . S
C1798 C1799 1.397 . S
C1798 C1803 1.363 . S
C1799 H1770 0.950 . S
C1799 C1798 1.397 . S
C1799 C1800 1.334 . S
C1800 H1771 0.950 . S
C1800 C1799 1.334 . S
C1800 C1801 1.287 . S
C1801 C1800 1.287 . S
C1801 C1802 1.524 . S
C1801 H1804 0.999 . S
C1802 H1772 0.950 . S
C1802 C1801 1.524 . S
C1802 C1803 1.415 . S
C1803 H1773 0.950 . S
C1803 C1798 1.363 . S
C1803 C1802 1.415 . S
H1804 C1801 0.999 . S
H1805 C1786 0.913 . S
H1806 C1824 0.951 . S
H1807 C1826 0.951 . S
H1808 C1828 0.950 . S
H1809 C1829 0.950 . S
H1810 C1831 0.950 . S
H1811 C1834 0.950 . S
H1812 C1835 0.950 . S
H1813 C1837 0.950 . S
H1814 C1838 0.950 . S
H1815 C1839 0.951 . S
H1816 C1841 0.951 . S
H1817 C1843 0.950 . S
H1818 C1844 0.950 . S
H1819 C1846 0.950 . S
H1820 C1849 0.950 . S
H1821 C1850 0.950 . S
H1822 C1852 0.950 . S
H1823 C1853 0.950 . S
C1824 H1806 0.951 . S
C1824 C1825 1.366 . S
C1824 C1826 1.388 . S
C1825 C1824 1.366 . S
C1825 C1829 1.385 . S
C1826 H1807 0.951 . S
C1826 C1824 1.388 . S
C1826 C1827 1.366 . S
C1827 C1826 1.366 . S
C1827 C1828 1.414 . S
C1827 C1830 1.499 . S
C1828 H1808 0.950 . S
C1828 C1827 1.414 . S
C1828 C1829 1.374 . S
C1829 H1809 0.950 . S
C1829 C1825 1.385 . S
C1829 C1828 1.374 . S
C1830 C1827 1.499 . S
C1830 C1831 1.373 . S
C1830 C1832 1.389 . S
C1831 H1810 0.950 . S
C1831 C1830 1.373 . S
C1831 C1847 1.377 . S
C1832 C1830 1.389 . S
C1832 C1833 1.524 . S
C1832 C1846 1.377 . S
C1833 C1832 1.524 . S
C1833 C1834 1.397 . S
C1833 C1838 1.363 . S
C1834 H1811 0.950 . S
C1834 C1833 1.397 . S
C1834 C1835 1.334 . S
C1835 H1812 0.950 . S
C1835 C1834 1.334 . S
C1835 C1836 1.287 . S
C1836 C1835 1.287 . S
C1836 C1837 1.524 . S
C1836 H1855 0.913 . S
C1837 H1813 0.950 . S
C1837 C1836 1.524 . S
C1837 C1838 1.415 . S
C1838 H1814 0.950 . S
C1838 C1833 1.363 . S
C1838 C1837 1.415 . S
C1839 H1815 0.951 . S
C1839 C1840 1.366 . S
C1839 C1841 1.388 . S
C1840 C1839 1.366 . S
C1840 C1844 1.385 . S
C1841 H1816 0.951 . S
C1841 C1839 1.388 . S
C1841 C1842 1.366 . S
C1842 C1841 1.366 . S
C1842 C1843 1.414 . S
C1842 C1845 1.499 . S
C1843 H1817 0.950 . S
C1843 C1842 1.414 . S
C1843 C1844 1.374 . S
C1844 H1818 0.950 . S
C1844 C1840 1.385 . S
C1844 C1843 1.374 . S
C1845 C1842 1.499 . S
C1845 C1846 1.373 . S
C1845 C1847 1.389 . S
C1846 H1819 0.950 . S
C1846 C1832 1.377 . S
C1846 C1845 1.373 . S
C1847 C1831 1.377 . S
C1847 C1845 1.389 . S
C1847 C1848 1.524 . S
C1848 C1847 1.524 . S
C1848 C1849 1.397 . S
C1848 C1853 1.363 . S
C1849 H1820 0.950 . S
C1849 C1848 1.397 . S
C1849 C1850 1.334 . S
C1850 H1821 0.950 . S
C1850 C1849 1.334 . S
C1850 C1851 1.287 . S
C1851 C1850 1.287 . S
C1851 C1852 1.524 . S
C1851 H1854 0.999 . S
C1852 H1822 0.950 . S
C1852 C1851 1.524 . S
C1852 C1853 1.415 . S
C1853 H1823 0.950 . S
C1853 C1848 1.363 . S
C1853 C1852 1.415 . S
H1854 C1851 0.999 . S
H1855 C1836 0.913 . S
H1856 C1874 0.951 . S
H1857 C1876 0.951 . S
H1858 C1878 0.990 . S
H1859 C1879 0.950 . S
H1860 C1881 0.950 . S
H1861 C1884 0.950 . S
H1862 C1885 0.950 . S
H1863 C1887 0.950 . S
H1864 C1888 0.950 . S
H1865 C1889 0.940 1_655 S
H1866 C1891 0.955 . S
H1867 C1893 0.950 . S
H1868 C1894 0.950 . S
H1869 C1896 0.950 . S
H1870 C1899 0.950 . S
H1871 C1900 0.950 . S
H1872 C1902 0.950 . S
H1873 C1903 0.950 . S
C1874 H1856 0.951 . S
C1874 C1875 1.366 . S
C1874 C1876 1.388 . S
C1875 C1874 1.366 . S
C1875 C1879 1.385 1_455 S
C1876 H1857 0.951 . S
C1876 C1874 1.388 . S
C1876 C1877 1.366 . S
C1877 C1876 1.366 . S
C1877 C1878 1.380 1_455 S
C1877 C1880 1.499 . S
C1878 H1858 0.990 . S
C1878 C1877 1.380 1_655 S
C1878 C1879 1.371 . S
C1879 H1859 0.950 . S
C1879 C1875 1.385 1_655 S
C1879 C1878 1.371 . S
C1880 C1877 1.499 . S
C1880 C1881 1.373 1_455 S
C1880 C1882 1.389 . S
C1881 H1860 0.950 . S
C1881 C1880 1.373 1_655 S
C1881 C1897 1.377 . S
C1882 C1880 1.389 . S
C1882 C1883 1.524 . S
C1882 C1896 1.377 . S
C1883 C1882 1.524 . S
C1883 C1884 1.397 . S
C1883 C1888 1.363 . S
C1884 H1861 0.950 . S
C1884 C1883 1.397 . S
C1884 C1885 1.334 . S
C1885 H1862 0.950 . S
C1885 C1884 1.334 . S
C1885 C1886 1.287 . S
C1886 C1885 1.287 . S
C1886 C1887 1.524 . S
C1886 H1905 0.913 . S
C1887 H1863 0.950 . S
C1887 C1886 1.524 . S
C1887 C1888 1.415 . S
C1888 H1864 0.950 . S
C1888 C1883 1.363 . S
C1888 C1887 1.415 . S
C1889 H1865 0.940 1_455 S
C1889 C1890 1.376 . S
C1889 C1891 1.389 1_455 S
C1890 C1889 1.376 . S
C1890 C1894 1.385 . S
C1891 H1866 0.955 . S
C1891 C1889 1.389 1_655 S
C1891 C1892 1.361 1_655 S
C1892 C1891 1.361 1_455 S
C1892 C1893 1.414 . S
C1892 C1895 1.499 . S
C1893 H1867 0.950 . S
C1893 C1892 1.414 . S
C1893 C1894 1.374 . S
C1894 H1868 0.950 . S
C1894 C1890 1.385 . S
C1894 C1893 1.374 . S
C1895 C1892 1.499 . S
C1895 C1896 1.373 . S
C1895 C1897 1.389 1_455 S
C1896 H1869 0.950 . S
C1896 C1882 1.377 . S
C1896 C1895 1.373 . S
C1897 C1881 1.377 . S
C1897 C1895 1.389 1_655 S
C1897 C1898 1.524 . S
C1898 C1897 1.524 . S
C1898 C1899 1.397 . S
C1898 C1903 1.363 . S
C1899 H1870 0.950 . S
C1899 C1898 1.397 . S
C1899 C1900 1.334 . S
C1900 H1871 0.950 . S
C1900 C1899 1.334 . S
C1900 C1901 1.287 . S
C1901 C1900 1.287 . S
C1901 C1902 1.524 . S
C1901 H1904 0.999 . S
C1902 H1872 0.950 . S
C1902 C1901 1.524 . S
C1902 C1903 1.415 . S
C1903 H1873 0.950 . S
C1903 C1898 1.363 . S
C1903 C1902 1.415 . S
H1904 C1901 0.999 . S
H1905 C1886 0.913 . S
H1906 C1924 0.951 . S
H1907 C1926 0.951 . S
H1908 C1928 0.950 . S
H1909 C1929 0.950 . S
H1910 C1931 0.950 . S
H1911 C1934 0.950 . S
H1912 C1935 0.950 . S
H1913 C1937 0.950 . S
H1914 C1938 0.950 . S
H1915 C1939 0.951 . S
H1916 C1941 0.951 . S
H1917 C1943 0.950 . S
H1918 C1944 0.950 . S
H1919 C1946 0.950 . S
H1920 C1949 0.950 . S
H1921 C1950 0.950 . S
H1922 C1952 0.950 . S
H1923 C1953 0.950 . S
C1924 H1906 0.951 . S
C1924 C1925 1.366 . S
C1924 C1926 1.388 . S
C1925 C1924 1.366 . S
C1925 C1929 1.385 . S
C1926 H1907 0.951 . S
C1926 C1924 1.388 . S
C1926 C1927 1.366 . S
C1927 C1926 1.366 . S
C1927 C1928 1.414 . S
C1927 C1930 1.499 . S
C1928 H1908 0.950 . S
C1928 C1927 1.414 . S
C1928 C1929 1.374 . S
C1929 H1909 0.950 . S
C1929 C1925 1.385 . S
C1929 C1928 1.374 . S
C1930 C1927 1.499 . S
C1930 C1931 1.373 . S
C1930 C1932 1.389 . S
C1931 H1910 0.950 . S
C1931 C1930 1.373 . S
C1931 C1947 1.377 . S
C1932 C1930 1.389 . S
C1932 C1933 1.524 . S
C1932 C1946 1.377 . S
C1933 C1932 1.524 . S
C1933 C1934 1.397 . S
C1933 C1938 1.363 . S
C1934 H1911 0.950 . S
C1934 C1933 1.397 . S
C1934 C1935 1.334 . S
C1935 H1912 0.950 . S
C1935 C1934 1.334 . S
C1935 C1936 1.287 . S
C1936 C1935 1.287 . S
C1936 C1937 1.524 . S
C1936 H1955 0.913 . S
C1937 H1913 0.950 . S
C1937 C1936 1.524 . S
C1937 C1938 1.415 . S
C1938 H1914 0.950 . S
C1938 C1933 1.363 . S
C1938 C1937 1.415 . S
C1939 H1915 0.951 . S
C1939 C1940 1.366 . S
C1939 C1941 1.388 . S
C1940 C1939 1.366 . S
C1940 C1944 1.385 . S
C1941 H1916 0.951 . S
C1941 C1939 1.388 . S
C1941 C1942 1.366 . S
C1942 C1941 1.366 . S
C1942 C1943 1.414 . S
C1942 C1945 1.499 . S
C1943 H1917 0.950 . S
C1943 C1942 1.414 . S
C1943 C1944 1.374 . S
C1944 H1918 0.950 . S
C1944 C1940 1.385 . S
C1944 C1943 1.374 . S
C1945 C1942 1.499 . S
C1945 C1946 1.373 . S
C1945 C1947 1.389 . S
C1946 H1919 0.950 . S
C1946 C1932 1.377 . S
C1946 C1945 1.373 . S
C1947 C1931 1.377 . S
C1947 C1945 1.389 . S
C1947 C1948 1.524 . S
C1948 C1947 1.524 . S
C1948 C1949 1.397 . S
C1948 C1953 1.363 . S
C1949 H1920 0.950 . S
C1949 C1948 1.397 . S
C1949 C1950 1.334 . S
C1950 H1921 0.950 . S
C1950 C1949 1.334 . S
C1950 C1951 1.287 . S
C1951 C1950 1.287 . S
C1951 C1952 1.524 . S
C1951 H1954 0.999 . S
C1952 H1922 0.950 . S
C1952 C1951 1.524 . S
C1952 C1953 1.415 . S
C1953 H1923 0.950 . S
C1953 C1948 1.363 . S
C1953 C1952 1.415 . S
H1954 C1951 0.999 . S
H1955 C1936 0.913 . S
H1956 C1974 0.951 . S
H1957 C1976 0.951 . S
H1958 C1978 0.950 . S
H1959 C1979 0.950 . S
H1960 C1981 0.950 . S
H1961 C1984 0.950 . S
H1962 C1985 0.950 . S
H1963 C1987 0.950 . S
H1964 C1988 0.950 . S
H1965 C1989 0.951 . S
H1966 C1991 0.951 . S
H1967 C1993 0.950 . S
H1968 C1994 0.950 . S
H1969 C1996 0.950 . S
H1970 C1999 0.950 . S
H1971 C2000 0.950 . S
H1972 C2002 0.950 . S
H1973 C2003 0.950 . S
C1974 H1956 0.951 . S
C1974 C1975 1.366 . S
C1974 C1976 1.388 . S
C1975 C1974 1.366 . S
C1975 C1979 1.385 . S
C1976 H1957 0.951 . S
C1976 C1974 1.388 . S
C1976 C1977 1.366 . S
C1977 C1976 1.366 . S
C1977 C1978 1.414 . S
C1977 C1980 1.499 . S
C1978 H1958 0.950 . S
C1978 C1977 1.414 . S
C1978 C1979 1.374 . S
C1979 H1959 0.950 . S
C1979 C1975 1.385 . S
C1979 C1978 1.374 . S
C1980 C1977 1.499 . S
C1980 C1981 1.373 . S
C1980 C1982 1.389 . S
C1981 H1960 0.950 . S
C1981 C1980 1.373 . S
C1981 C1997 1.377 . S
C1982 C1980 1.389 . S
C1982 C1983 1.524 . S
C1982 C1996 1.377 . S
C1983 C1982 1.524 . S
C1983 C1984 1.397 . S
C1983 C1988 1.363 . S
C1984 H1961 0.950 . S
C1984 C1983 1.397 . S
C1984 C1985 1.334 . S
C1985 H1962 0.950 . S
C1985 C1984 1.334 . S
C1985 C1986 1.287 . S
C1986 C1985 1.287 . S
C1986 C1987 1.524 . S
C1986 H2005 0.913 . S
C1987 H1963 0.950 . S
C1987 C1986 1.524 . S
C1987 C1988 1.415 . S
C1988 H1964 0.950 . S
C1988 C1983 1.363 . S
C1988 C1987 1.415 . S
C1989 H1965 0.951 . S
C1989 C1990 1.366 . S
C1989 C1991 1.388 . S
C1990 C1989 1.366 . S
C1990 C1994 1.385 . S
C1991 H1966 0.951 . S
C1991 C1989 1.388 . S
C1991 C1992 1.366 . S
C1992 C1991 1.366 . S
C1992 C1993 1.414 . S
C1992 C1995 1.499 . S
C1993 H1967 0.950 . S
C1993 C1992 1.414 . S
C1993 C1994 1.374 . S
C1994 H1968 0.950 . S
C1994 C1990 1.385 . S
C1994 C1993 1.374 . S
C1995 C1992 1.499 . S
C1995 C1996 1.373 . S
C1995 C1997 1.389 . S
C1996 H1969 0.950 . S
C1996 C1982 1.377 . S
C1996 C1995 1.373 . S
C1997 C1981 1.377 . S
C1997 C1995 1.389 . S
C1997 C1998 1.524 . S
C1998 C1997 1.524 . S
C1998 C1999 1.397 . S
C1998 C2003 1.363 . S
C1999 H1970 0.950 . S
C1999 C1998 1.397 . S
C1999 C2000 1.334 . S
C2000 H1971 0.950 . S
C2000 C1999 1.334 . S
C2000 C2001 1.287 . S
C2001 C2000 1.287 . S
C2001 C2002 1.524 . S
C2001 H2004 0.999 . S
C2002 H1972 0.950 . S
C2002 C2001 1.524 . S
C2002 C2003 1.415 . S
C2003 H1973 0.950 . S
C2003 C1998 1.363 . S
C2003 C2002 1.415 . S
H2004 C2001 0.999 . S
H2005 C1986 0.913 . S
H2006 C2024 0.951 . S
H2007 C2026 0.951 . S
H2008 C2028 0.950 . S
H2009 C2029 0.950 . S
H2010 C2031 0.950 . S
H2011 C2034 0.950 . S
H2012 C2035 0.950 . S
H2013 C2037 0.950 . S
H2014 C2038 0.950 . S
H2015 C2039 0.951 . S
H2016 C2041 0.951 . S
H2017 C2043 0.950 . S
H2018 C2044 0.950 . S
H2019 C2046 0.950 . S
H2020 C2049 0.950 . S
H2021 C2050 0.950 . S
H2022 C2052 0.950 . S
H2023 C2053 0.950 . S
C2024 H2006 0.951 . S
C2024 C2025 1.366 . S
C2024 C2026 1.388 . S
C2025 C2024 1.366 . S
C2025 C2029 1.385 . S
C2026 H2007 0.951 . S
C2026 C2024 1.388 . S
C2026 C2027 1.366 . S
C2027 C2026 1.366 . S
C2027 C2028 1.414 . S
C2027 C2030 1.499 . S
C2028 H2008 0.950 . S
C2028 C2027 1.414 . S
C2028 C2029 1.374 . S
C2029 H2009 0.950 . S
C2029 C2025 1.385 . S
C2029 C2028 1.374 . S
C2030 C2027 1.499 . S
C2030 C2031 1.373 . S
C2030 C2032 1.389 . S
C2031 H2010 0.950 . S
C2031 C2030 1.373 . S
C2031 C2047 1.377 . S
C2032 C2030 1.389 . S
C2032 C2033 1.524 . S
C2032 C2046 1.377 . S
C2033 C2032 1.524 . S
C2033 C2034 1.397 . S
C2033 C2038 1.363 . S
C2034 H2011 0.950 . S
C2034 C2033 1.397 . S
C2034 C2035 1.334 . S
C2035 H2012 0.950 . S
C2035 C2034 1.334 . S
C2035 C2036 1.287 . S
C2036 C2035 1.287 . S
C2036 C2037 1.524 . S
C2036 H2055 0.913 . S
C2037 H2013 0.950 . S
C2037 C2036 1.524 . S
C2037 C2038 1.415 . S
C2038 H2014 0.950 . S
C2038 C2033 1.363 . S
C2038 C2037 1.415 . S
C2039 H2015 0.951 . S
C2039 C2040 1.366 . S
C2039 C2041 1.388 . S
C2040 C2039 1.366 . S
C2040 C2044 1.385 . S
C2041 H2016 0.951 . S
C2041 C2039 1.388 . S
C2041 C2042 1.366 . S
C2042 C2041 1.366 . S
C2042 C2043 1.414 . S
C2042 C2045 1.499 . S
C2043 H2017 0.950 . S
C2043 C2042 1.414 . S
C2043 C2044 1.374 . S
C2044 H2018 0.950 . S
C2044 C2040 1.385 . S
C2044 C2043 1.374 . S
C2045 C2042 1.499 . S
C2045 C2046 1.373 . S
C2045 C2047 1.389 . S
C2046 H2019 0.950 . S
C2046 C2032 1.377 . S
C2046 C2045 1.373 . S
C2047 C2031 1.377 . S
C2047 C2045 1.389 . S
C2047 C2048 1.524 . S
C2048 C2047 1.524 . S
C2048 C2049 1.397 . S
C2048 C2053 1.363 . S
C2049 H2020 0.950 . S
C2049 C2048 1.397 . S
C2049 C2050 1.334 . S
C2050 H2021 0.950 . S
C2050 C2049 1.334 . S
C2050 C2051 1.287 . S
C2051 C2050 1.287 . S
C2051 C2052 1.524 . S
C2051 H2054 0.999 . S
C2052 H2022 0.950 . S
C2052 C2051 1.524 . S
C2052 C2053 1.415 . S
C2053 H2023 0.950 . S
C2053 C2048 1.363 . S
C2053 C2052 1.415 . S
H2054 C2051 0.999 . S
H2055 C2036 0.913 . S
H2056 C2074 0.951 . S
H2057 C2076 0.951 . S
H2058 C2078 0.950 . S
H2059 C2079 0.950 . S
H2060 C2081 0.950 . S
H2061 C2084 0.918 1_455 S
H2062 C2085 0.950 . S
H2063 C2087 0.950 . S
H2064 C2088 0.950 . S
H2065 C2089 0.951 . S
H2066 C2091 0.951 . S
H2067 C2093 0.950 . S
H2068 C2094 0.950 . S
H2069 C2096 0.950 . S
H2070 C2099 0.950 . S
H2071 C2100 0.950 . S
H2072 C2102 0.950 . S
H2073 C2103 0.950 . S
C2074 H2056 0.951 . S
C2074 C2075 1.366 1_655 S
C2074 C2076 1.388 . S
C2075 C2074 1.366 1_455 S
C2075 C2079 1.385 . S
C2076 H2057 0.951 . S
C2076 C2074 1.388 . S
C2076 C2077 1.366 1_655 S
C2077 C2076 1.366 1_455 S
C2077 C2078 1.414 . S
C2077 C2080 1.499 . S
C2078 H2058 0.950 . S
C2078 C2077 1.414 . S
C2078 C2079 1.374 . S
C2079 H2059 0.950 . S
C2079 C2075 1.385 . S
C2079 C2078 1.374 . S
C2080 C2077 1.499 . S
C2080 C2081 1.373 . S
C2080 C2082 1.389 1_455 S
C2081 H2060 0.950 . S
C2081 C2080 1.373 . S
C2081 C2097 1.377 . S
C2082 C2080 1.389 1_655 S
C2082 C2083 1.524 . S
C2082 C2096 1.377 . S
C2083 C2082 1.524 . S
C2083 C2084 1.397 . S
C2083 C2088 1.363 . S
C2084 H2061 0.918 1_655 S
C2084 C2083 1.397 . S
C2084 C2085 1.334 . S
C2085 H2062 0.950 . S
C2085 C2084 1.334 . S
C2085 C2086 1.287 . S
C2086 C2085 1.287 . S
C2086 C2087 1.524 . S
C2086 H2105 0.913 . S
C2087 H2063 0.950 . S
C2087 C2086 1.524 . S
C2087 C2088 1.415 . S
C2088 H2064 0.950 . S
C2088 C2083 1.363 . S
C2088 C2087 1.415 . S
C2089 H2065 0.951 . S
C2089 C2090 1.366 . S
C2089 C2091 1.388 . S
C2090 C2089 1.366 . S
C2090 C2094 1.385 1_455 S
C2091 H2066 0.951 . S
C2091 C2089 1.388 . S
C2091 C2092 1.366 . S
C2092 C2091 1.366 . S
C2092 C2093 1.414 1_455 S
C2092 C2095 1.499 . S
C2093 H2067 0.950 . S
C2093 C2092 1.414 1_655 S
C2093 C2094 1.374 . S
C2094 H2068 0.950 . S
C2094 C2090 1.385 1_655 S
C2094 C2093 1.374 . S
C2095 C2092 1.499 . S
C2095 C2096 1.373 1_455 S
C2095 C2097 1.389 . S
C2096 H2069 0.950 . S
C2096 C2082 1.377 . S
C2096 C2095 1.373 1_655 S
C2097 C2081 1.377 . S
C2097 C2095 1.389 . S
C2097 C2098 1.524 . S
C2098 C2097 1.524 . S
C2098 C2099 1.397 . S
C2098 C2103 1.363 . S
C2099 H2070 0.950 . S
C2099 C2098 1.397 . S
C2099 C2100 1.334 . S
C2100 H2071 0.950 . S
C2100 C2099 1.334 . S
C2100 C2101 1.287 . S
C2101 C2100 1.287 . S
C2101 C2102 1.524 . S
C2101 H2104 0.999 . S
C2102 H2072 0.950 . S
C2102 C2101 1.524 . S
C2102 C2103 1.415 . S
C2103 H2073 0.950 . S
C2103 C2098 1.363 . S
C2103 C2102 1.415 . S
H2104 C2101 0.999 . S
H2105 C2086 0.913 . S
H2106 C2124 0.951 . S
H2107 C2126 0.951 . S
H2108 C2128 0.950 . S
H2109 C2129 0.950 . S
H2110 C2131 0.950 . S
H2111 C2134 0.950 . S
H2112 C2135 0.950 . S
H2113 C2137 0.950 . S
H2114 C2138 0.950 . S
H2115 C2139 0.951 . S
H2116 C2141 0.951 . S
H2117 C2143 0.950 . S
H2118 C2144 0.950 . S
H2119 C2146 0.950 . S
H2120 C2149 0.950 . S
H2121 C2150 0.950 . S
H2122 C2152 0.950 . S
H2123 C2153 0.950 . S
C2124 H2106 0.951 . S
C2124 C2125 1.366 . S
C2124 C2126 1.388 . S
C2125 C2124 1.366 . S
C2125 C2129 1.385 . S
C2126 H2107 0.951 . S
C2126 C2124 1.388 . S
C2126 C2127 1.366 . S
C2127 C2126 1.366 . S
C2127 C2128 1.414 . S
C2127 C2130 1.499 . S
C2128 H2108 0.950 . S
C2128 C2127 1.414 . S
C2128 C2129 1.374 . S
C2129 H2109 0.950 . S
C2129 C2125 1.385 . S
C2129 C2128 1.374 . S
C2130 C2127 1.499 . S
C2130 C2131 1.373 . S
C2130 C2132 1.389 . S
C2131 H2110 0.950 . S
C2131 C2130 1.373 . S
C2131 C2147 1.377 . S
C2132 C2130 1.389 . S
C2132 C2133 1.524 . S
C2132 C2146 1.377 . S
C2133 C2132 1.524 . S
C2133 C2134 1.397 . S
C2133 C2138 1.363 . S
C2134 H2111 0.950 . S
C2134 C2133 1.397 . S
C2134 C2135 1.334 . S
C2135 H2112 0.950 . S
C2135 C2134 1.334 . S
C2135 C2136 1.287 . S
C2136 C2135 1.287 . S
C2136 C2137 1.524 . S
C2136 H2155 0.913 . S
C2137 H2113 0.950 . S
C2137 C2136 1.524 . S
C2137 C2138 1.415 . S
C2138 H2114 0.950 . S
C2138 C2133 1.363 . S
C2138 C2137 1.415 . S
C2139 H2115 0.951 . S
C2139 C2140 1.366 . S
C2139 C2141 1.388 . S
C2140 C2139 1.366 . S
C2140 C2144 1.385 . S
C2141 H2116 0.951 . S
C2141 C2139 1.388 . S
C2141 C2142 1.366 . S
C2142 C2141 1.366 . S
C2142 C2143 1.414 . S
C2142 C2145 1.499 . S
C2143 H2117 0.950 . S
C2143 C2142 1.414 . S
C2143 C2144 1.374 . S
C2144 H2118 0.950 . S
C2144 C2140 1.385 . S
C2144 C2143 1.374 . S
C2145 C2142 1.499 . S
C2145 C2146 1.373 . S
C2145 C2147 1.389 . S
C2146 H2119 0.950 . S
C2146 C2132 1.377 . S
C2146 C2145 1.373 . S
C2147 C2131 1.377 . S
C2147 C2145 1.389 . S
C2147 C2148 1.524 . S
C2148 C2147 1.524 . S
C2148 C2149 1.397 . S
C2148 C2153 1.363 . S
C2149 H2120 0.950 . S
C2149 C2148 1.397 . S
C2149 C2150 1.334 . S
C2150 H2121 0.950 . S
C2150 C2149 1.334 . S
C2150 C2151 1.287 . S
C2151 C2150 1.287 . S
C2151 C2152 1.524 . S
C2151 H2154 0.999 . S
C2152 H2122 0.950 . S
C2152 C2151 1.524 . S
C2152 C2153 1.415 . S
C2153 H2123 0.950 . S
C2153 C2148 1.363 . S
C2153 C2152 1.415 . S
H2154 C2151 0.999 . S
H2155 C2136 0.913 . S
H2156 C2174 0.951 . S
H2157 C2176 0.951 . S
H2158 C2178 0.950 . S
H2159 C2179 0.950 . S
H2160 C2181 0.950 . S
H2161 C2184 0.950 . S
H2162 C2185 0.950 . S
H2163 C2187 0.950 1_554 S
H2164 C2188 0.950 . S
H2165 C2189 0.951 . S
H2166 C2191 0.951 . S
H2167 C2193 0.950 . S
H2168 C2194 0.935 1_554 S
H2169 C2196 0.950 . S
H2170 C2199 0.950 . S
H2171 C2200 0.950 . S
H2172 C2202 0.950 . S
H2173 C2203 0.950 . S
C2174 H2156 0.951 . S
C2174 C2175 1.366 . S
C2174 C2176 1.388 . S
C2175 C2174 1.366 . S
C2175 C2179 1.385 . S
C2176 H2157 0.951 . S
C2176 C2174 1.388 . S
C2176 C2177 1.366 . S
C2177 C2176 1.366 . S
C2177 C2178 1.414 . S
C2177 C2180 1.499 . S
C2178 H2158 0.950 . S
C2178 C2177 1.414 . S
C2178 C2179 1.374 . S
C2179 H2159 0.950 . S
C2179 C2175 1.385 . S
C2179 C2178 1.374 . S
C2180 C2177 1.499 . S
C2180 C2181 1.373 . S
C2180 C2182 1.389 . S
C2181 H2160 0.950 . S
C2181 C2180 1.373 . S
C2181 C2197 1.377 . S
C2182 C2180 1.389 . S
C2182 C2183 1.524 . S
C2182 C2196 1.377 . S
C2183 C2182 1.524 . S
C2183 C2184 1.397 . S
C2183 C2188 1.363 . S
C2184 H2161 0.950 . S
C2184 C2183 1.397 . S
C2184 C2185 1.334 . S
C2185 H2162 0.950 . S
C2185 C2184 1.334 . S
C2185 C2186 1.287 . S
C2186 C2185 1.287 . S
C2186 C2187 1.524 . S
C2186 H2205 0.913 . S
C2187 H2163 0.950 1_556 S
C2187 C2186 1.524 . S
C2187 C2188 1.415 . S
C2188 H2164 0.950 . S
C2188 C2183 1.363 . S
C2188 C2187 1.415 . S
C2189 H2165 0.951 . S
C2189 C2190 1.366 . S
C2189 C2191 1.388 . S
C2190 C2189 1.366 . S
C2190 C2194 1.392 . S
C2191 H2166 0.951 . S
C2191 C2189 1.388 . S
C2191 C2192 1.366 . S
C2192 C2191 1.366 . S
C2192 C2193 1.414 . S
C2192 C2195 1.499 . S
C2193 H2167 0.950 . S
C2193 C2192 1.414 . S
C2193 C2194 1.381 . S
C2194 H2168 0.935 1_556 S
C2194 C2190 1.392 . S
C2194 C2193 1.381 . S
C2195 C2192 1.499 . S
C2195 C2196 1.373 . S
C2195 C2197 1.389 . S
C2196 H2169 0.950 . S
C2196 C2182 1.377 . S
C2196 C2195 1.373 . S
C2197 C2181 1.377 . S
C2197 C2195 1.389 . S
C2197 C2198 1.524 . S
C2198 C2197 1.524 . S
C2198 C2199 1.397 . S
C2198 C2203 1.363 . S
C2199 H2170 0.950 . S
C2199 C2198 1.397 . S
C2199 C2200 1.334 . S
C2200 H2171 0.950 . S
C2200 C2199 1.334 . S
C2200 C2201 1.287 . S
C2201 C2200 1.287 . S
C2201 C2202 1.524 . S
C2201 H2204 0.999 . S
C2202 H2172 0.950 . S
C2202 C2201 1.524 . S
C2202 C2203 1.415 . S
C2203 H2173 0.950 . S
C2203 C2198 1.363 . S
C2203 C2202 1.415 . S
H2204 C2201 0.999 . S
H2205 C2186 0.913 . S
H2206 C2224 0.951 . S
H2207 C2226 0.951 . S
H2208 C2228 0.950 . S
H2209 C2229 0.950 . S
H2210 C2231 0.950 . S
H2211 C2234 0.950 . S
H2212 C2235 0.950 . S
H2213 C2237 0.950 . S
H2214 C2238 0.950 . S
H2215 C2239 0.951 . S
H2216 C2241 0.951 . S
H2217 C2243 0.950 . S
H2218 C2244 0.950 . S
H2219 C2246 0.950 . S
H2220 C2249 0.950 . S
H2221 C2250 0.950 . S
H2222 C2252 0.950 . S
H2223 C2253 0.950 . S
C2224 H2206 0.951 . S
C2224 C2225 1.366 . S
C2224 C2226 1.388 . S
C2225 C2224 1.366 . S
C2225 C2229 1.385 . S
C2226 H2207 0.951 . S
C2226 C2224 1.388 . S
C2226 C2227 1.366 . S
C2227 C2226 1.366 . S
C2227 C2228 1.414 . S
C2227 C2230 1.499 . S
C2228 H2208 0.950 . S
C2228 C2227 1.414 . S
C2228 C2229 1.374 . S
C2229 H2209 0.950 . S
C2229 C2225 1.385 . S
C2229 C2228 1.374 . S
C2230 C2227 1.499 . S
C2230 C2231 1.373 . S
C2230 C2232 1.389 . S
C2231 H2210 0.950 . S
C2231 C2230 1.373 . S
C2231 C2247 1.377 . S
C2232 C2230 1.389 . S
C2232 C2233 1.524 . S
C2232 C2246 1.377 . S
C2233 C2232 1.524 . S
C2233 C2234 1.397 . S
C2233 C2238 1.363 . S
C2234 H2211 0.950 . S
C2234 C2233 1.397 . S
C2234 C2235 1.334 . S
C2235 H2212 0.950 . S
C2235 C2234 1.334 . S
C2235 C2236 1.287 . S
C2236 C2235 1.287 . S
C2236 C2237 1.524 . S
C2236 H2255 0.913 . S
C2237 H2213 0.950 . S
C2237 C2236 1.524 . S
C2237 C2238 1.415 . S
C2238 H2214 0.950 . S
C2238 C2233 1.363 . S
C2238 C2237 1.415 . S
C2239 H2215 0.951 . S
C2239 C2240 1.366 . S
C2239 C2241 1.388 . S
C2240 C2239 1.366 . S
C2240 C2244 1.385 . S
C2241 H2216 0.951 . S
C2241 C2239 1.388 . S
C2241 C2242 1.366 . S
C2242 C2241 1.366 . S
C2242 C2243 1.414 . S
C2242 C2245 1.499 . S
C2243 H2217 0.950 . S
C2243 C2242 1.414 . S
C2243 C2244 1.374 . S
C2244 H2218 0.950 . S
C2244 C2240 1.385 . S
C2244 C2243 1.374 . S
C2245 C2242 1.499 . S
C2245 C2246 1.373 . S
C2245 C2247 1.389 . S
C2246 H2219 0.950 . S
C2246 C2232 1.377 . S
C2246 C2245 1.373 . S
C2247 C2231 1.377 . S
C2247 C2245 1.389 . S
C2247 C2248 1.524 . S
C2248 C2247 1.524 . S
C2248 C2249 1.397 . S
C2248 C2253 1.363 . S
C2249 H2220 0.950 . S
C2249 C2248 1.397 . S
C2249 C2250 1.334 . S
C2250 H2221 0.950 . S
C2250 C2249 1.334 . S
C2250 C2251 1.287 . S
C2251 C2250 1.287 . S
C2251 C2252 1.524 . S
C2251 H2254 0.999 . S
C2252 H2222 0.950 . S
C2252 C2251 1.524 . S
C2252 C2253 1.415 . S
C2253 H2223 0.950 . S
C2253 C2248 1.363 . S
C2253 C2252 1.415 . S
H2254 C2251 0.999 . S
H2255 C2236 0.913 . S
H2256 C2274 0.951 . S
H2257 C2276 0.951 . S
H2258 C2278 0.950 . S
H2259 C2279 0.950 . S
H2260 C2281 0.950 . S
H2261 C2284 0.950 1_565 S
H2262 C2285 0.950 . S
H2263 C2287 0.950 . S
H2264 C2288 0.950 . S
H2265 C2289 0.951 . S
H2266 C2291 0.951 . S
H2267 C2293 0.950 . S
H2268 C2294 0.950 . S
H2269 C2296 0.950 . S
H2270 C2299 0.950 . S
H2271 C2300 0.950 . S
H2272 C2302 0.950 . S
H2273 C2303 0.950 . S
C2274 H2256 0.951 . S
C2274 C2275 1.366 . S
C2274 C2276 1.388 . S
C2275 C2274 1.366 . S
C2275 C2279 1.385 1_545 S
C2276 H2257 0.951 . S
C2276 C2274 1.388 . S
C2276 C2277 1.366 . S
C2277 C2276 1.366 . S
C2277 C2278 1.414 1_545 S
C2277 C2280 1.499 . S
C2278 H2258 0.950 . S
C2278 C2277 1.414 1_565 S
C2278 C2279 1.374 . S
C2279 H2259 0.950 . S
C2279 C2275 1.385 1_565 S
C2279 C2278 1.374 . S
C2280 C2277 1.499 . S
C2280 C2281 1.373 1_545 S
C2280 C2282 1.389 . S
C2281 H2260 0.950 . S
C2281 C2280 1.373 1_565 S
C2281 C2297 1.377 1_565 S
C2282 C2280 1.389 . S
C2282 C2283 1.524 . S
C2282 C2296 1.377 . S
C2283 C2282 1.524 . S
C2283 C2284 1.397 . S
C2283 C2288 1.363 . S
C2284 H2261 0.950 1_545 S
C2284 C2283 1.397 . S
C2284 C2285 1.334 . S
C2285 H2262 0.950 . S
C2285 C2284 1.334 . S
C2285 C2286 1.287 . S
C2286 C2285 1.287 . S
C2286 C2287 1.524 . S
C2286 H2305 0.913 . S
C2287 H2263 0.950 . S
C2287 C2286 1.524 . S
C2287 C2288 1.415 . S
C2288 H2264 0.950 . S
C2288 C2283 1.363 . S
C2288 C2287 1.415 . S
C2289 H2265 0.951 . S
C2289 C2290 1.366 1_565 S
C2289 C2291 1.388 . S
C2290 C2289 1.366 1_545 S
C2290 C2294 1.385 . S
C2291 H2266 0.951 . S
C2291 C2289 1.388 . S
C2291 C2292 1.366 1_565 S
C2292 C2291 1.366 1_545 S
C2292 C2293 1.414 . S
C2292 C2295 1.499 . S
C2293 H2267 0.950 . S
C2293 C2292 1.414 . S
C2293 C2294 1.374 . S
C2294 H2268 0.950 . S
C2294 C2290 1.385 . S
C2294 C2293 1.374 . S
C2295 C2292 1.499 . S
C2295 C2296 1.373 . S
C2295 C2297 1.389 . S
C2296 H2269 0.950 . S
C2296 C2282 1.377 . S
C2296 C2295 1.373 . S
C2297 C2281 1.377 1_545 S
C2297 C2295 1.389 . S
C2297 C2298 1.524 1_545 S
C2298 C2297 1.524 1_565 S
C2298 C2299 1.397 1_565 S
C2298 C2303 1.363 . S
C2299 H2270 0.950 . S
C2299 C2298 1.397 1_545 S
C2299 C2300 1.334 1_455 S
C2300 H2271 0.950 . S
C2300 C2299 1.334 1_655 S
C2300 C2301 1.287 1_545 S
C2301 C2300 1.287 1_565 S
C2301 C2302 1.524 . S
C2301 H2304 0.999 . S
C2302 H2272 0.950 . S
C2302 C2301 1.524 . S
C2302 C2303 1.415 1_655 S
C2303 H2273 0.950 . S
C2303 C2298 1.363 . S
C2303 C2302 1.415 1_455 S
H2304 C2301 0.999 . S
H2305 C2286 0.913 . S
H2306 C2324 0.951 . S
H2307 C2326 0.951 . S
H2308 C2328 0.950 . S
H2309 C2329 0.950 . S
H2310 C2331 0.950 . S
H2311 C2334 0.950 . S
H2312 C2335 0.950 . S
H2313 C2337 0.950 . S
H2314 C2338 0.950 . S
H2315 C2339 0.951 . S
H2316 C2341 0.951 . S
H2317 C2343 0.950 . S
H2318 C2344 0.950 . S
H2319 C2346 0.950 . S
H2320 C2349 0.950 . S
H2321 C2350 0.950 . S
H2322 C2352 0.950 . S
H2323 C2353 0.950 . S
C2324 H2306 0.951 . S
C2324 C2325 1.366 . S
C2324 C2326 1.388 . S
C2325 C2324 1.366 . S
C2325 C2329 1.385 . S
C2326 H2307 0.951 . S
C2326 C2324 1.388 . S
C2326 C2327 1.366 . S
C2327 C2326 1.366 . S
C2327 C2328 1.414 . S
C2327 C2330 1.499 . S
C2328 H2308 0.950 . S
C2328 C2327 1.414 . S
C2328 C2329 1.374 . S
C2329 H2309 0.950 . S
C2329 C2325 1.385 . S
C2329 C2328 1.374 . S
C2330 C2327 1.499 . S
C2330 C2331 1.373 . S
C2330 C2332 1.389 . S
C2331 H2310 0.950 . S
C2331 C2330 1.373 . S
C2331 C2347 1.377 . S
C2332 C2330 1.389 . S
C2332 C2333 1.524 . S
C2332 C2346 1.377 . S
C2333 C2332 1.524 . S
C2333 C2334 1.397 . S
C2333 C2338 1.363 . S
C2334 H2311 0.950 . S
C2334 C2333 1.397 . S
C2334 C2335 1.334 . S
C2335 H2312 0.950 . S
C2335 C2334 1.334 . S
C2335 C2336 1.287 . S
C2336 C2335 1.287 . S
C2336 C2337 1.524 . S
C2336 H2355 0.913 . S
C2337 H2313 0.950 . S
C2337 C2336 1.524 . S
C2337 C2338 1.415 . S
C2338 H2314 0.950 . S
C2338 C2333 1.363 . S
C2338 C2337 1.415 . S
C2339 H2315 0.951 . S
C2339 C2340 1.366 . S
C2339 C2341 1.388 . S
C2340 C2339 1.366 . S
C2340 C2344 1.385 . S
C2341 H2316 0.951 . S
C2341 C2339 1.388 . S
C2341 C2342 1.366 . S
C2342 C2341 1.366 . S
C2342 C2343 1.414 . S
C2342 C2345 1.499 . S
C2343 H2317 0.950 . S
C2343 C2342 1.414 . S
C2343 C2344 1.374 . S
C2344 H2318 0.950 . S
C2344 C2340 1.385 . S
C2344 C2343 1.374 . S
C2345 C2342 1.499 . S
C2345 C2346 1.373 . S
C2345 C2347 1.389 . S
C2346 H2319 0.950 . S
C2346 C2332 1.377 . S
C2346 C2345 1.373 . S
C2347 C2331 1.377 . S
C2347 C2345 1.389 . S
C2347 C2348 1.524 . S
C2348 C2347 1.524 . S
C2348 C2349 1.397 . S
C2348 C2353 1.363 . S
C2349 H2320 0.950 . S
C2349 C2348 1.397 . S
C2349 C2350 1.334 . S
C2350 H2321 0.950 . S
C2350 C2349 1.334 . S
C2350 C2351 1.287 . S
C2351 C2350 1.287 . S
C2351 C2352 1.524 . S
C2351 H2354 0.999 . S
C2352 H2322 0.950 . S
C2352 C2351 1.524 . S
C2352 C2353 1.415 . S
C2353 H2323 0.950 . S
C2353 C2348 1.363 . S
C2353 C2352 1.415 . S
H2354 C2351 0.999 . S
H2355 C2336 0.913 . S
H2356 C2374 0.951 . S
H2357 C2376 0.951 . S
H2358 C2378 0.950 . S
H2359 C2379 0.950 . S
H2360 C2381 0.950 . S
H2361 C2384 0.950 . S
H2362 C2385 0.950 . S
H2363 C2387 0.950 . S
H2364 C2388 0.950 . S
H2365 C2389 0.951 . S
H2366 C2391 0.951 . S
H2367 C2393 0.950 . S
H2368 C2394 0.950 . S
H2369 C2396 0.950 . S
H2370 C2399 0.950 . S
H2371 C2400 0.950 . S
H2372 C2402 0.950 . S
H2373 C2403 0.950 . S
C2374 H2356 0.951 . S
C2374 C2375 1.366 . S
C2374 C2376 1.388 . S
C2375 C2374 1.366 . S
C2375 C2379 1.385 . S
C2376 H2357 0.951 . S
C2376 C2374 1.388 . S
C2376 C2377 1.366 . S
C2377 C2376 1.366 . S
C2377 C2378 1.414 . S
C2377 C2380 1.499 . S
C2378 H2358 0.950 . S
C2378 C2377 1.414 . S
C2378 C2379 1.374 . S
C2379 H2359 0.950 . S
C2379 C2375 1.385 . S
C2379 C2378 1.374 . S
C2380 C2377 1.499 . S
C2380 C2381 1.373 . S
C2380 C2382 1.389 . S
C2381 H2360 0.950 . S
C2381 C2380 1.373 . S
C2381 C2397 1.377 . S
C2382 C2380 1.389 . S
C2382 C2383 1.524 . S
C2382 C2396 1.377 . S
C2383 C2382 1.524 . S
C2383 C2384 1.397 . S
C2383 C2388 1.363 1_545 S
C2384 H2361 0.950 . S
C2384 C2383 1.397 . S
C2384 C2385 1.334 . S
C2385 H2362 0.950 . S
C2385 C2384 1.334 . S
C2385 C2386 1.287 1_545 S
C2386 C2385 1.287 1_565 S
C2386 C2387 1.524 . S
C2386 H2405 0.913 . S
C2387 H2363 0.950 . S
C2387 C2386 1.524 . S
C2387 C2388 1.415 . S
C2388 H2364 0.950 . S
C2388 C2383 1.363 1_565 S
C2388 C2387 1.415 . S
C2389 H2365 0.951 . S
C2389 C2390 1.366 . S
C2389 C2391 1.388 . S
C2390 C2389 1.366 . S
C2390 C2394 1.385 . S
C2391 H2366 0.951 . S
C2391 C2389 1.388 . S
C2391 C2392 1.366 . S
C2392 C2391 1.366 . S
C2392 C2393 1.414 . S
C2392 C2395 1.499 . S
C2393 H2367 0.950 . S
C2393 C2392 1.414 . S
C2393 C2394 1.374 . S
C2394 H2368 0.950 . S
C2394 C2390 1.385 . S
C2394 C2393 1.374 . S
C2395 C2392 1.499 . S
C2395 C2396 1.373 . S
C2395 C2397 1.389 . S
C2396 H2369 0.950 . S
C2396 C2382 1.377 . S
C2396 C2395 1.373 . S
C2397 C2381 1.377 . S
C2397 C2395 1.389 . S
C2397 C2398 1.524 . S
C2398 C2397 1.524 . S
C2398 C2399 1.397 . S
C2398 C2403 1.363 . S
C2399 H2370 0.950 . S
C2399 C2398 1.397 . S
C2399 C2400 1.334 . S
C2400 H2371 0.950 . S
C2400 C2399 1.334 . S
C2400 C2401 1.287 . S
C2401 C2400 1.287 . S
C2401 C2402 1.524 . S
C2401 H2404 0.999 . S
C2402 H2372 0.950 . S
C2402 C2401 1.524 . S
C2402 C2403 1.415 . S
C2403 H2373 0.950 . S
C2403 C2398 1.363 . S
C2403 C2402 1.415 . S
H2404 C2401 0.999 . S
H2405 C2386 0.913 . S
H2406 C2424 0.951 . S
H2407 C2426 0.951 . S
H2408 C2428 0.950 . S
H2409 C2429 0.950 . S
H2410 C2431 0.950 . S
H2411 C2434 0.950 . S
H2412 C2435 0.950 . S
H2413 C2437 0.950 . S
H2414 C2438 0.950 . S
H2415 C2439 0.951 . S
H2416 C2441 0.951 . S
H2417 C2443 0.950 . S
H2418 C2444 0.950 . S
H2419 C2446 0.950 . S
H2420 C2449 0.950 . S
H2421 C2450 0.950 . S
H2422 C2452 0.950 . S
H2423 C2453 0.950 . S
C2424 H2406 0.951 . S
C2424 C2425 1.366 . S
C2424 C2426 1.388 . S
C2425 C2424 1.366 . S
C2425 C2429 1.385 . S
C2426 H2407 0.951 . S
C2426 C2424 1.388 . S
C2426 C2427 1.366 . S
C2427 C2426 1.366 . S
C2427 C2428 1.414 . S
C2427 C2430 1.499 . S
C2428 H2408 0.950 . S
C2428 C2427 1.414 . S
C2428 C2429 1.374 . S
C2429 H2409 0.950 . S
C2429 C2425 1.385 . S
C2429 C2428 1.374 . S
C2430 C2427 1.499 . S
C2430 C2431 1.373 . S
C2430 C2432 1.389 . S
C2431 H2410 0.950 . S
C2431 C2430 1.373 . S
C2431 C2447 1.377 . S
C2432 C2430 1.389 . S
C2432 C2433 1.524 . S
C2432 C2446 1.377 . S
C2433 C2432 1.524 . S
C2433 C2434 1.397 . S
C2433 C2438 1.363 . S
C2434 H2411 0.950 . S
C2434 C2433 1.397 . S
C2434 C2435 1.334 . S
C2435 H2412 0.950 . S
C2435 C2434 1.334 . S
C2435 C2436 1.287 . S
C2436 C2435 1.287 . S
C2436 C2437 1.524 . S
C2436 H2455 0.913 . S
C2437 H2413 0.950 . S
C2437 C2436 1.524 . S
C2437 C2438 1.415 . S
C2438 H2414 0.950 . S
C2438 C2433 1.363 . S
C2438 C2437 1.415 . S
C2439 H2415 0.951 . S
C2439 C2440 1.366 . S
C2439 C2441 1.388 . S
C2440 C2439 1.366 . S
C2440 C2444 1.385 . S
C2441 H2416 0.951 . S
C2441 C2439 1.388 . S
C2441 C2442 1.366 . S
C2442 C2441 1.366 . S
C2442 C2443 1.414 . S
C2442 C2445 1.499 . S
C2443 H2417 0.950 . S
C2443 C2442 1.414 . S
C2443 C2444 1.374 . S
C2444 H2418 0.950 . S
C2444 C2440 1.385 . S
C2444 C2443 1.374 . S
C2445 C2442 1.499 . S
C2445 C2446 1.373 . S
C2445 C2447 1.389 . S
C2446 H2419 0.950 . S
C2446 C2432 1.377 . S
C2446 C2445 1.373 . S
C2447 C2431 1.377 . S
C2447 C2445 1.389 . S
C2447 C2448 1.524 . S
C2448 C2447 1.524 . S
C2448 C2449 1.397 . S
C2448 C2453 1.363 . S
C2449 H2420 0.950 . S
C2449 C2448 1.397 . S
C2449 C2450 1.334 . S
C2450 H2421 0.950 . S
C2450 C2449 1.334 . S
C2450 C2451 1.287 . S
C2451 C2450 1.287 . S
C2451 C2452 1.524 . S
C2451 H2454 0.999 . S
C2452 H2422 0.950 . S
C2452 C2451 1.524 . S
C2452 C2453 1.415 . S
C2453 H2423 0.950 . S
C2453 C2448 1.363 . S
C2453 C2452 1.415 . S
H2454 C2451 0.999 . S
H2455 C2436 0.913 . S
H2456 C2474 0.951 . S
H2457 C2476 0.967 . S
H2458 C2478 0.951 . S
H2459 C2479 0.950 . S
H2460 C2481 0.950 . S
H2461 C2484 0.950 . S
H2462 C2485 0.950 . S
H2463 C2487 0.950 . S
H2464 C2488 0.950 . S
H2465 C2489 0.951 . S
H2466 C2491 0.951 . S
H2467 C2493 0.950 . S
H2468 C2494 0.950 . S
H2469 C2496 0.950 . S
H2470 C2499 0.950 . S
H2471 C2500 0.950 . S
H2472 C2502 0.950 . S
H2473 C2503 0.950 . S
C2474 H2456 0.951 . S
C2474 C2475 1.366 . S
C2474 C2476 1.375 1_565 S
C2475 C2474 1.366 . S
C2475 C2479 1.385 . S
C2476 H2457 0.967 . S
C2476 C2474 1.375 1_545 S
C2476 C2477 1.366 . S
C2477 C2476 1.366 . S
C2477 C2478 1.416 . S
C2477 C2480 1.499 . S
C2478 H2458 0.951 . S
C2478 C2477 1.416 . S
C2478 C2479 1.372 1_545 S
C2479 H2459 0.950 . S
C2479 C2475 1.385 . S
C2479 C2478 1.372 1_565 S
C2480 C2477 1.499 . S
C2480 C2481 1.373 . S
C2480 C2482 1.389 1_545 S
C2481 H2460 0.950 . S
C2481 C2480 1.373 . S
C2481 C2497 1.377 . S
C2482 C2480 1.389 1_565 S
C2482 C2483 1.524 . S
C2482 C2496 1.377 . S
C2483 C2482 1.524 . S
C2483 C2484 1.397 . S
C2483 C2488 1.363 . S
C2484 H2461 0.950 . S
C2484 C2483 1.397 . S
C2484 C2485 1.334 . S
C2485 H2462 0.950 . S
C2485 C2484 1.334 . S
C2485 C2486 1.287 . S
C2486 C2485 1.287 . S
C2486 C2487 1.524 . S
C2486 H2505 0.913 . S
C2487 H2463 0.950 . S
C2487 C2486 1.524 . S
C2487 C2488 1.415 . S
C2488 H2464 0.950 . S
C2488 C2483 1.363 . S
C2488 C2487 1.415 . S
C2489 H2465 0.951 . S
C2489 C2490 1.366 . S
C2489 C2491 1.388 . S
C2490 C2489 1.366 . S
C2490 C2494 1.385 . S
C2491 H2466 0.951 . S
C2491 C2489 1.388 . S
C2491 C2492 1.366 . S
C2492 C2491 1.366 . S
C2492 C2493 1.414 . S
C2492 C2495 1.499 . S
C2493 H2467 0.950 . S
C2493 C2492 1.414 . S
C2493 C2494 1.374 . S
C2494 H2468 0.950 . S
C2494 C2490 1.385 . S
C2494 C2493 1.374 . S
C2495 C2492 1.499 . S
C2495 C2496 1.373 1_545 S
C2495 C2497 1.389 . S
C2496 H2469 0.950 . S
C2496 C2482 1.377 . S
C2496 C2495 1.373 1_565 S
C2497 C2481 1.377 . S
C2497 C2495 1.389 . S
C2497 C2498 1.524 . S
C2498 C2497 1.524 . S
C2498 C2499 1.397 . S
C2498 C2503 1.363 . S
C2499 H2470 0.950 . S
C2499 C2498 1.397 . S
C2499 C2500 1.334 . S
C2500 H2471 0.950 . S
C2500 C2499 1.334 . S
C2500 C2501 1.287 . S
C2501 C2500 1.287 . S
C2501 C2502 1.524 . S
C2501 H2504 0.999 . S
C2502 H2472 0.950 . S
C2502 C2501 1.524 . S
C2502 C2503 1.415 . S
C2503 H2473 0.950 . S
C2503 C2498 1.363 . S
C2503 C2502 1.415 . S
H2504 C2501 0.999 . S
H2505 C2486 0.913 . S
H2506 C2524 0.951 . S
H2507 C2526 0.951 . S
H2508 C2528 0.950 . S
H2509 C2529 0.950 . S
H2510 C2531 0.950 . S
H2511 C2534 0.950 . S
H2512 C2535 0.950 . S
H2513 C2537 0.950 . S
H2514 C2538 0.950 . S
H2515 C2539 0.951 . S
H2516 C2541 0.951 . S
H2517 C2543 0.950 . S
H2518 C2544 0.950 . S
H2519 C2546 0.950 . S
H2520 C2549 0.950 . S
H2521 C2550 0.950 . S
H2522 C2552 0.950 . S
H2523 C2553 0.950 . S
C2524 H2506 0.951 . S
C2524 C2525 1.366 . S
C2524 C2526 1.388 . S
C2525 C2524 1.366 . S
C2525 C2529 1.385 . S
C2526 H2507 0.951 . S
C2526 C2524 1.388 . S
C2526 C2527 1.366 . S
C2527 C2526 1.366 . S
C2527 C2528 1.414 . S
C2527 C2530 1.499 . S
C2528 H2508 0.950 . S
C2528 C2527 1.414 . S
C2528 C2529 1.374 . S
C2529 H2509 0.950 . S
C2529 C2525 1.385 . S
C2529 C2528 1.374 . S
C2530 C2527 1.499 . S
C2530 C2531 1.373 . S
C2530 C2532 1.389 . S
C2531 H2510 0.950 . S
C2531 C2530 1.373 . S
C2531 C2547 1.377 . S
C2532 C2530 1.389 . S
C2532 C2533 1.524 . S
C2532 C2546 1.377 . S
C2533 C2532 1.524 . S
C2533 C2534 1.397 . S
C2533 C2538 1.363 . S
C2534 H2511 0.950 . S
C2534 C2533 1.397 . S
C2534 C2535 1.334 . S
C2535 H2512 0.950 . S
C2535 C2534 1.334 . S
C2535 C2536 1.287 . S
C2536 C2535 1.287 . S
C2536 C2537 1.524 . S
C2536 H2555 0.913 . S
C2537 H2513 0.950 . S
C2537 C2536 1.524 . S
C2537 C2538 1.415 . S
C2538 H2514 0.950 . S
C2538 C2533 1.363 . S
C2538 C2537 1.415 . S
C2539 H2515 0.951 . S
C2539 C2540 1.366 . S
C2539 C2541 1.388 . S
C2540 C2539 1.366 . S
C2540 C2544 1.385 . S
C2541 H2516 0.951 . S
C2541 C2539 1.388 . S
C2541 C2542 1.366 . S
C2542 C2541 1.366 . S
C2542 C2543 1.414 . S
C2542 C2545 1.499 . S
C2543 H2517 0.950 . S
C2543 C2542 1.414 . S
C2543 C2544 1.374 . S
C2544 H2518 0.950 . S
C2544 C2540 1.385 . S
C2544 C2543 1.374 . S
C2545 C2542 1.499 . S
C2545 C2546 1.373 . S
C2545 C2547 1.389 . S
C2546 H2519 0.950 . S
C2546 C2532 1.377 . S
C2546 C2545 1.373 . S
C2547 C2531 1.377 . S
C2547 C2545 1.389 . S
C2547 C2548 1.524 . S
C2548 C2547 1.524 . S
C2548 C2549 1.397 . S
C2548 C2553 1.363 . S
C2549 H2520 0.950 . S
C2549 C2548 1.397 . S
C2549 C2550 1.334 . S
C2550 H2521 0.950 . S
C2550 C2549 1.334 . S
C2550 C2551 1.287 . S
C2551 C2550 1.287 . S
C2551 C2552 1.524 . S
C2551 H2554 0.999 . S
C2552 H2522 0.950 . S
C2552 C2551 1.524 . S
C2552 C2553 1.415 . S
C2553 H2523 0.950 . S
C2553 C2548 1.363 . S
C2553 C2552 1.415 . S
H2554 C2551 0.999 . S
H2555 C2536 0.913 . S
H2556 C2574 0.951 . S
H2557 C2576 0.951 . S
H2558 C2578 0.950 . S
H2559 C2579 0.950 . S
H2560 C2581 0.950 . S
H2561 C2584 0.950 . S
H2562 C2585 0.950 . S
H2563 C2587 0.950 . S
H2564 C2588 0.950 . S
H2565 C2589 0.951 . S
H2566 C2591 0.951 . S
H2567 C2593 0.950 . S
H2568 C2594 0.950 . S
H2569 C2596 0.950 . S
H2570 C2599 0.950 . S
H2571 C2600 0.950 . S
H2572 C2602 0.950 . S
H2573 C2603 0.953 . S
C2574 H2556 0.951 . S
C2574 C2575 1.366 . S
C2574 C2576 1.388 . S
C2575 C2574 1.366 . S
C2575 C2579 1.385 . S
C2576 H2557 0.951 . S
C2576 C2574 1.388 . S
C2576 C2577 1.366 . S
C2577 C2576 1.366 . S
C2577 C2578 1.414 . S
C2577 C2580 1.499 . S
C2578 H2558 0.950 . S
C2578 C2577 1.414 . S
C2578 C2579 1.374 . S
C2579 H2559 0.950 . S
C2579 C2575 1.385 . S
C2579 C2578 1.374 . S
C2580 C2577 1.499 . S
C2580 C2581 1.373 . S
C2580 C2582 1.389 . S
C2581 H2560 0.950 . S
C2581 C2580 1.373 . S
C2581 C2597 1.377 . S
C2582 C2580 1.389 . S
C2582 C2583 1.524 . S
C2582 C2596 1.377 . S
C2583 C2582 1.524 . S
C2583 C2584 1.397 . S
C2583 C2588 1.363 . S
C2584 H2561 0.950 . S
C2584 C2583 1.397 . S
C2584 C2585 1.334 . S
C2585 H2562 0.950 . S
C2585 C2584 1.334 . S
C2585 C2586 1.287 . S
C2586 C2585 1.287 . S
C2586 C2587 1.524 . S
C2586 H2605 0.913 . S
C2587 H2563 0.950 . S
C2587 C2586 1.524 . S
C2587 C2588 1.415 . S
C2588 H2564 0.950 . S
C2588 C2583 1.363 . S
C2588 C2587 1.415 . S
C2589 H2565 0.951 . S
C2589 C2590 1.366 . S
C2589 C2591 1.388 . S
C2590 C2589 1.366 . S
C2590 C2594 1.385 . S
C2591 H2566 0.951 . S
C2591 C2589 1.388 . S
C2591 C2592 1.366 . S
C2592 C2591 1.366 . S
C2592 C2593 1.414 . S
C2592 C2595 1.499 . S
C2593 H2567 0.950 . S
C2593 C2592 1.414 . S
C2593 C2594 1.374 . S
C2594 H2568 0.950 . S
C2594 C2590 1.385 . S
C2594 C2593 1.374 . S
C2595 C2592 1.499 . S
C2595 C2596 1.373 . S
C2595 C2597 1.389 . S
C2596 H2569 0.950 . S
C2596 C2582 1.377 . S
C2596 C2595 1.373 . S
C2597 C2581 1.377 . S
C2597 C2595 1.389 . S
C2597 C2598 1.524 . S
C2598 C2597 1.524 . S
C2598 C2599 1.397 1_545 S
C2598 C2603 1.363 . S
C2599 H2570 0.950 . S
C2599 C2598 1.397 1_565 S
C2599 C2600 1.334 . S
C2600 H2571 0.950 . S
C2600 C2599 1.334 . S
C2600 C2601 1.287 . S
C2601 C2600 1.287 . S
C2601 C2602 1.524 . S
C2601 H2604 0.999 . S
C2602 H2572 0.950 . S
C2602 C2601 1.524 . S
C2602 C2603 1.413 1_565 S
C2603 H2573 0.953 . S
C2603 C2598 1.363 . S
C2603 C2602 1.413 1_545 S
H2604 C2601 0.999 . S
H2605 C2586 0.913 . S
H2606 C2624 0.951 . S
H2607 C2626 0.951 . S
H2608 C2628 0.950 . S
H2609 C2629 0.950 . S
H2610 C2631 0.950 . S
H2611 C2634 0.950 . S
H2612 C2635 0.950 . S
H2613 C2637 0.950 . S
H2614 C2638 0.950 . S
H2615 C2639 0.951 . S
H2616 C2641 0.951 . S
H2617 C2643 0.950 . S
H2618 C2644 0.950 . S
H2619 C2646 0.950 . S
H2620 C2649 0.950 . S
H2621 C2650 0.950 . S
H2622 C2652 0.950 . S
H2623 C2653 0.950 . S
C2624 H2606 0.951 . S
C2624 C2625 1.366 . S
C2624 C2626 1.388 . S
C2625 C2624 1.366 . S
C2625 C2629 1.385 . S
C2626 H2607 0.951 . S
C2626 C2624 1.388 . S
C2626 C2627 1.366 . S
C2627 C2626 1.366 . S
C2627 C2628 1.414 . S
C2627 C2630 1.499 . S
C2628 H2608 0.950 . S
C2628 C2627 1.414 . S
C2628 C2629 1.374 . S
C2629 H2609 0.950 . S
C2629 C2625 1.385 . S
C2629 C2628 1.374 . S
C2630 C2627 1.499 . S
C2630 C2631 1.373 . S
C2630 C2632 1.389 . S
C2631 H2610 0.950 . S
C2631 C2630 1.373 . S
C2631 C2647 1.377 . S
C2632 C2630 1.389 . S
C2632 C2633 1.524 . S
C2632 C2646 1.377 . S
C2633 C2632 1.524 . S
C2633 C2634 1.397 . S
C2633 C2638 1.363 . S
C2634 H2611 0.950 . S
C2634 C2633 1.397 . S
C2634 C2635 1.334 . S
C2635 H2612 0.950 . S
C2635 C2634 1.334 . S
C2635 C2636 1.287 . S
C2636 C2635 1.287 . S
C2636 C2637 1.524 . S
C2636 H2655 0.913 . S
C2637 H2613 0.950 . S
C2637 C2636 1.524 . S
C2637 C2638 1.415 . S
C2638 H2614 0.950 . S
C2638 C2633 1.363 . S
C2638 C2637 1.415 . S
C2639 H2615 0.951 . S
C2639 C2640 1.366 . S
C2639 C2641 1.388 . S
C2640 C2639 1.366 . S
C2640 C2644 1.385 . S
C2641 H2616 0.951 . S
C2641 C2639 1.388 . S
C2641 C2642 1.366 . S
C2642 C2641 1.366 . S
C2642 C2643 1.414 . S
C2642 C2645 1.499 . S
C2643 H2617 0.950 . S
C2643 C2642 1.414 . S
C2643 C2644 1.374 . S
C2644 H2618 0.950 . S
C2644 C2640 1.385 . S
C2644 C2643 1.374 . S
C2645 C2642 1.499 . S
C2645 C2646 1.373 . S
C2645 C2647 1.389 . S
C2646 H2619 0.950 . S
C2646 C2632 1.377 . S
C2646 C2645 1.373 . S
C2647 C2631 1.377 . S
C2647 C2645 1.389 . S
C2647 C2648 1.524 . S
C2648 C2647 1.524 . S
C2648 C2649 1.397 . S
C2648 C2653 1.363 . S
C2649 H2620 0.950 . S
C2649 C2648 1.397 . S
C2649 C2650 1.334 . S
C2650 H2621 0.950 . S
C2650 C2649 1.334 . S
C2650 C2651 1.287 . S
C2651 C2650 1.287 . S
C2651 C2652 1.524 . S
C2651 H2654 0.999 . S
C2652 H2622 0.950 . S
C2652 C2651 1.524 . S
C2652 C2653 1.415 . S
C2653 H2623 0.950 . S
C2653 C2648 1.363 . S
C2653 C2652 1.415 . S
H2654 C2651 0.999 . S
H2655 C2636 0.913 . S
H2656 C2674 0.951 . S
H2657 C2676 0.951 . S
H2658 C2678 0.950 . S
H2659 C2679 0.950 . S
H2660 C2681 0.950 . S
H2661 C2684 0.950 . S
H2662 C2685 0.950 . S
H2663 C2687 0.950 1_556 S
H2664 C2688 0.950 . S
H2665 C2689 0.951 . S
H2666 C2691 0.951 . S
H2667 C2693 0.950 . S
H2668 C2694 0.950 . S
H2669 C2696 0.950 . S
H2670 C2699 0.950 . S
H2671 C2700 0.950 . S
H2672 C2702 0.950 . S
H2673 C2703 0.950 . S
C2674 H2656 0.951 . S
C2674 C2675 1.366 1_556 S
C2674 C2676 1.388 . S
C2675 C2674 1.366 1_554 S
C2675 C2679 1.385 . S
C2676 H2657 0.951 . S
C2676 C2674 1.388 . S
C2676 C2677 1.366 1_556 S
C2677 C2676 1.366 1_554 S
C2677 C2678 1.414 . S
C2677 C2680 1.499 . S
C2678 H2658 0.950 . S
C2678 C2677 1.414 . S
C2678 C2679 1.374 . S
C2679 H2659 0.950 . S
C2679 C2675 1.385 . S
C2679 C2678 1.374 . S
C2680 C2677 1.499 . S
C2680 C2681 1.373 . S
C2680 C2682 1.389 . S
C2681 H2660 0.950 . S
C2681 C2680 1.373 . S
C2681 C2697 1.377 . S
C2682 C2680 1.389 . S
C2682 C2683 1.524 . S
C2682 C2696 1.377 . S
C2683 C2682 1.524 . S
C2683 C2684 1.397 . S
C2683 C2688 1.363 1_554 S
C2684 H2661 0.950 . S
C2684 C2683 1.397 . S
C2684 C2685 1.334 . S
C2685 H2662 0.950 . S
C2685 C2684 1.334 . S
C2685 C2686 1.287 . S
C2686 C2685 1.287 . S
C2686 C2687 1.524 . S
C2686 H2705 0.913 . S
C2687 H2663 0.950 1_554 S
C2687 C2686 1.524 . S
C2687 C2688 1.415 1_554 S
C2688 H2664 0.950 . S
C2688 C2683 1.363 1_556 S
C2688 C2687 1.415 1_556 S
C2689 H2665 0.951 . S
C2689 C2690 1.366 . S
C2689 C2691 1.388 . S
C2690 C2689 1.366 . S
C2690 C2694 1.385 1_554 S
C2691 H2666 0.951 . S
C2691 C2689 1.388 . S
C2691 C2692 1.366 . S
C2692 C2691 1.366 . S
C2692 C2693 1.414 1_554 S
C2692 C2695 1.499 . S
C2693 H2667 0.950 . S
C2693 C2692 1.414 1_556 S
C2693 C2694 1.374 . S
C2694 H2668 0.950 . S
C2694 C2690 1.385 1_556 S
C2694 C2693 1.374 . S
C2695 C2692 1.499 . S
C2695 C2696 1.373 . S
C2695 C2697 1.389 . S
C2696 H2669 0.950 . S
C2696 C2682 1.377 . S
C2696 C2695 1.373 . S
C2697 C2681 1.377 . S
C2697 C2695 1.389 . S
C2697 C2698 1.524 1_554 S
C2698 C2697 1.524 1_556 S
C2698 C2699 1.397 . S
C2698 C2703 1.363 1_556 S
C2699 H2670 0.950 . S
C2699 C2698 1.397 . S
C2699 C2700 1.334 . S
C2700 H2671 0.950 . S
C2700 C2699 1.334 . S
C2700 C2701 1.287 . S
C2701 C2700 1.287 . S
C2701 C2702 1.524 1_556 S
C2701 H2704 0.999 . S
C2702 H2672 0.950 . S
C2702 C2701 1.524 1_554 S
C2702 C2703 1.415 . S
C2703 H2673 0.950 . S
C2703 C2698 1.363 1_554 S
C2703 C2702 1.415 . S
H2704 C2701 0.999 . S
H2705 C2686 0.913 . S
H2706 C2724 0.951 . S
H2707 C2726 0.951 . S
H2708 C2728 0.950 . S
H2709 C2729 0.950 . S
H2710 C2731 0.950 . S
H2711 C2734 0.950 . S
H2712 C2735 0.950 . S
H2713 C2737 0.950 . S
H2714 C2738 0.950 . S
H2715 C2739 0.951 . S
H2716 C2741 0.951 . S
H2717 C2743 0.950 . S
H2718 C2744 0.950 . S
H2719 C2746 0.950 1_556 S
H2720 C2749 0.950 . S
H2721 C2750 0.950 . S
H2722 C2752 0.950 . S
H2723 C2753 0.950 . S
C2724 H2706 0.951 . S
C2724 C2725 1.366 . S
C2724 C2726 1.388 . S
C2725 C2724 1.366 . S
C2725 C2729 1.385 . S
C2726 H2707 0.951 . S
C2726 C2724 1.388 . S
C2726 C2727 1.366 . S
C2727 C2726 1.366 . S
C2727 C2728 1.414 . S
C2727 C2730 1.499 . S
C2728 H2708 0.950 . S
C2728 C2727 1.414 . S
C2728 C2729 1.374 . S
C2729 H2709 0.950 . S
C2729 C2725 1.385 . S
C2729 C2728 1.374 . S
C2730 C2727 1.499 . S
C2730 C2731 1.373 . S
C2730 C2732 1.389 . S
C2731 H2710 0.950 . S
C2731 C2730 1.373 . S
C2731 C2747 1.377 . S
C2732 C2730 1.389 . S
C2732 C2733 1.524 1_554 S
C2732 C2746 1.377 . S
C2733 C2732 1.524 1_556 S
C2733 C2734 1.397 . S
C2733 C2738 1.363 . S
C2734 H2711 0.950 . S
C2734 C2733 1.397 . S
C2734 C2735 1.334 . S
C2735 H2712 0.950 . S
C2735 C2734 1.334 . S
C2735 C2736 1.287 . S
C2736 C2735 1.287 . S
C2736 C2737 1.524 . S
C2736 H2755 0.913 . S
C2737 H2713 0.950 . S
C2737 C2736 1.524 . S
C2737 C2738 1.415 . S
C2738 H2714 0.950 . S
C2738 C2733 1.363 . S
C2738 C2737 1.415 . S
C2739 H2715 0.951 . S
C2739 C2740 1.366 . S
C2739 C2741 1.388 . S
C2740 C2739 1.366 . S
C2740 C2744 1.385 . S
C2741 H2716 0.951 . S
C2741 C2739 1.388 . S
C2741 C2742 1.366 . S
C2742 C2741 1.366 . S
C2742 C2743 1.414 . S
C2742 C2745 1.499 . S
C2743 H2717 0.950 . S
C2743 C2742 1.414 . S
C2743 C2744 1.374 . S
C2744 H2718 0.950 . S
C2744 C2740 1.385 . S
C2744 C2743 1.374 . S
C2745 C2742 1.499 . S
C2745 C2746 1.373 . S
C2745 C2747 1.389 . S
C2746 H2719 0.950 1_554 S
C2746 C2732 1.377 . S
C2746 C2745 1.373 . S
C2747 C2731 1.377 . S
C2747 C2745 1.389 . S
C2747 C2748 1.524 . S
C2748 C2747 1.524 . S
C2748 C2749 1.397 . S
C2748 C2753 1.363 . S
C2749 H2720 0.950 . S
C2749 C2748 1.397 . S
C2749 C2750 1.334 . S
C2750 H2721 0.950 . S
C2750 C2749 1.334 . S
C2750 C2751 1.287 . S
C2751 C2750 1.287 . S
C2751 C2752 1.524 . S
C2751 H2754 0.999 . S
C2752 H2722 0.950 . S
C2752 C2751 1.524 . S
C2752 C2753 1.415 . S
C2753 H2723 0.950 . S
C2753 C2748 1.363 . S
C2753 C2752 1.415 . S
H2754 C2751 0.999 . S
H2755 C2736 0.913 . S
H2756 C2774 0.951 . S
H2757 C2776 0.951 . S
H2758 C2778 0.950 . S
H2759 C2779 0.950 . S
H2760 C2781 0.950 . S
H2761 C2784 0.950 . S
H2762 C2785 0.950 . S
H2763 C2787 0.950 . S
H2764 C2788 0.950 . S
H2765 C2789 0.951 . S
H2766 C2791 0.951 . S
H2767 C2793 0.950 . S
H2768 C2794 0.950 . S
H2769 C2796 0.950 . S
H2770 C2799 0.950 . S
H2771 C2800 0.950 . S
H2772 C2802 0.950 . S
H2773 C2803 0.950 . S
C2774 H2756 0.951 . S
C2774 C2775 1.366 . S
C2774 C2776 1.388 . S
C2775 C2774 1.366 . S
C2775 C2779 1.385 . S
C2776 H2757 0.951 . S
C2776 C2774 1.388 . S
C2776 C2777 1.366 . S
C2777 C2776 1.366 . S
C2777 C2778 1.414 . S
C2777 C2780 1.499 . S
C2778 H2758 0.950 . S
C2778 C2777 1.414 . S
C2778 C2779 1.374 . S
C2779 H2759 0.950 . S
C2779 C2775 1.385 . S
C2779 C2778 1.374 . S
C2780 C2777 1.499 . S
C2780 C2781 1.373 . S
C2780 C2782 1.389 . S
C2781 H2760 0.950 . S
C2781 C2780 1.373 . S
C2781 C2797 1.377 . S
C2782 C2780 1.389 . S
C2782 C2783 1.524 . S
C2782 C2796 1.377 . S
C2783 C2782 1.524 . S
C2783 C2784 1.397 . S
C2783 C2788 1.363 . S
C2784 H2761 0.950 . S
C2784 C2783 1.397 . S
C2784 C2785 1.334 . S
C2785 H2762 0.950 . S
C2785 C2784 1.334 . S
C2785 C2786 1.287 . S
C2786 C2785 1.287 . S
C2786 C2787 1.524 . S
C2786 H2805 0.913 . S
C2787 H2763 0.950 . S
C2787 C2786 1.524 . S
C2787 C2788 1.415 . S
C2788 H2764 0.950 . S
C2788 C2783 1.363 . S
C2788 C2787 1.415 . S
C2789 H2765 0.951 . S
C2789 C2790 1.366 . S
C2789 C2791 1.388 . S
C2790 C2789 1.366 . S
C2790 C2794 1.385 . S
C2791 H2766 0.951 . S
C2791 C2789 1.388 . S
C2791 C2792 1.366 . S
C2792 C2791 1.366 . S
C2792 C2793 1.414 . S
C2792 C2795 1.499 . S
C2793 H2767 0.950 . S
C2793 C2792 1.414 . S
C2793 C2794 1.374 . S
C2794 H2768 0.950 . S
C2794 C2790 1.385 . S
C2794 C2793 1.374 . S
C2795 C2792 1.499 . S
C2795 C2796 1.373 . S
C2795 C2797 1.389 . S
C2796 H2769 0.950 . S
C2796 C2782 1.377 . S
C2796 C2795 1.373 . S
C2797 C2781 1.377 . S
C2797 C2795 1.389 . S
C2797 C2798 1.524 . S
C2798 C2797 1.524 . S
C2798 C2799 1.397 . S
C2798 C2803 1.363 . S
C2799 H2770 0.950 . S
C2799 C2798 1.397 . S
C2799 C2800 1.334 . S
C2800 H2771 0.950 . S
C2800 C2799 1.334 . S
C2800 C2801 1.287 . S
C2801 C2800 1.287 . S
C2801 C2802 1.524 . S
C2801 H2804 0.999 . S
C2802 H2772 0.950 . S
C2802 C2801 1.524 . S
C2802 C2803 1.415 . S
C2803 H2773 0.950 . S
C2803 C2798 1.363 . S
C2803 C2802 1.415 . S
H2804 C2801 0.999 . S
H2805 C2786 0.913 . S
H2806 C2824 0.951 . S
H2807 C2826 0.951 . S
H2808 C2828 0.950 . S
H2809 C2829 0.950 . S
H2810 C2831 0.950 . S
H2811 C2834 0.950 . S
H2812 C2835 0.950 . S
H2813 C2837 0.950 . S
H2814 C2838 0.950 . S
H2815 C2839 0.951 . S
H2816 C2841 0.951 . S
H2817 C2843 0.950 . S
H2818 C2844 0.950 . S
H2819 C2846 0.950 . S
H2820 C2849 0.950 . S
H2821 C2850 0.950 . S
H2822 C2852 0.950 . S
H2823 C2853 0.950 . S
C2824 H2806 0.951 . S
C2824 C2825 1.366 . S
C2824 C2826 1.388 . S
C2825 C2824 1.366 . S
C2825 C2829 1.385 . S
C2826 H2807 0.951 . S
C2826 C2824 1.388 . S
C2826 C2827 1.366 . S
C2827 C2826 1.366 . S
C2827 C2828 1.414 . S
C2827 C2830 1.499 . S
C2828 H2808 0.950 . S
C2828 C2827 1.414 . S
C2828 C2829 1.374 . S
C2829 H2809 0.950 . S
C2829 C2825 1.385 . S
C2829 C2828 1.374 . S
C2830 C2827 1.499 . S
C2830 C2831 1.373 . S
C2830 C2832 1.389 . S
C2831 H2810 0.950 . S
C2831 C2830 1.373 . S
C2831 C2847 1.377 . S
C2832 C2830 1.389 . S
C2832 C2833 1.524 . S
C2832 C2846 1.377 . S
C2833 C2832 1.524 . S
C2833 C2834 1.397 . S
C2833 C2838 1.363 . S
C2834 H2811 0.950 . S
C2834 C2833 1.397 . S
C2834 C2835 1.334 . S
C2835 H2812 0.950 . S
C2835 C2834 1.334 . S
C2835 C2836 1.287 . S
C2836 C2835 1.287 . S
C2836 C2837 1.524 . S
C2836 H2855 0.913 . S
C2837 H2813 0.950 . S
C2837 C2836 1.524 . S
C2837 C2838 1.415 . S
C2838 H2814 0.950 . S
C2838 C2833 1.363 . S
C2838 C2837 1.415 . S
C2839 H2815 0.951 . S
C2839 C2840 1.366 . S
C2839 C2841 1.388 . S
C2840 C2839 1.366 . S
C2840 C2844 1.385 . S
C2841 H2816 0.951 . S
C2841 C2839 1.388 . S
C2841 C2842 1.366 . S
C2842 C2841 1.366 . S
C2842 C2843 1.414 . S
C2842 C2845 1.499 . S
C2843 H2817 0.950 . S
C2843 C2842 1.414 . S
C2843 C2844 1.374 . S
C2844 H2818 0.950 . S
C2844 C2840 1.385 . S
C2844 C2843 1.374 . S
C2845 C2842 1.499 . S
C2845 C2846 1.373 . S
C2845 C2847 1.389 . S
C2846 H2819 0.950 . S
C2846 C2832 1.377 . S
C2846 C2845 1.373 . S
C2847 C2831 1.377 . S
C2847 C2845 1.389 . S
C2847 C2848 1.524 . S
C2848 C2847 1.524 . S
C2848 C2849 1.397 . S
C2848 C2853 1.363 . S
C2849 H2820 0.950 . S
C2849 C2848 1.397 . S
C2849 C2850 1.334 . S
C2850 H2821 0.950 . S
C2850 C2849 1.334 . S
C2850 C2851 1.287 . S
C2851 C2850 1.287 . S
C2851 C2852 1.524 . S
C2851 H2854 0.999 . S
C2852 H2822 0.950 . S
C2852 C2851 1.524 . S
C2852 C2853 1.415 . S
C2853 H2823 0.950 . S
C2853 C2848 1.363 . S
C2853 C2852 1.415 . S
H2854 C2851 0.999 . S
H2855 C2836 0.913 . S
H2856 C2874 0.951 . S
H2857 C2876 0.951 . S
H2858 C2878 0.950 . S
H2859 C2879 0.950 . S
H2860 C2881 0.950 . S
H2861 C2884 0.950 . S
H2862 C2885 0.950 . S
H2863 C2887 0.950 . S
H2864 C2888 0.950 . S
H2865 C2889 0.951 . S
H2866 C2891 0.951 . S
H2867 C2893 0.950 . S
H2868 C2894 0.950 . S
H2869 C2896 0.950 . S
H2870 C2899 0.950 . S
H2871 C2900 0.950 . S
H2872 C2902 0.950 . S
H2873 C2903 0.950 . S
C2874 H2856 0.951 . S
C2874 C2875 1.366 . S
C2874 C2876 1.388 . S
C2875 C2874 1.366 . S
C2875 C2879 1.385 . S
C2876 H2857 0.951 . S
C2876 C2874 1.388 . S
C2876 C2877 1.366 . S
C2877 C2876 1.366 . S
C2877 C2878 1.414 . S
C2877 C2880 1.499 . S
C2878 H2858 0.950 . S
C2878 C2877 1.414 . S
C2878 C2879 1.374 . S
C2879 H2859 0.950 . S
C2879 C2875 1.385 . S
C2879 C2878 1.374 . S
C2880 C2877 1.499 . S
C2880 C2881 1.373 . S
C2880 C2882 1.389 . S
C2881 H2860 0.950 . S
C2881 C2880 1.373 . S
C2881 C2897 1.377 . S
C2882 C2880 1.389 . S
C2882 C2883 1.524 . S
C2882 C2896 1.377 . S
C2883 C2882 1.524 . S
C2883 C2884 1.397 . S
C2883 C2888 1.363 . S
C2884 H2861 0.950 . S
C2884 C2883 1.397 . S
C2884 C2885 1.334 . S
C2885 H2862 0.950 . S
C2885 C2884 1.334 . S
C2885 C2886 1.287 . S
C2886 C2885 1.287 . S
C2886 C2887 1.524 . S
C2886 H2905 0.913 . S
C2887 H2863 0.950 . S
C2887 C2886 1.524 . S
C2887 C2888 1.415 . S
C2888 H2864 0.950 . S
C2888 C2883 1.363 . S
C2888 C2887 1.415 . S
C2889 H2865 0.951 . S
C2889 C2890 1.366 . S
C2889 C2891 1.388 . S
C2890 C2889 1.366 . S
C2890 C2894 1.385 . S
C2891 H2866 0.951 . S
C2891 C2889 1.388 . S
C2891 C2892 1.366 . S
C2892 C2891 1.366 . S
C2892 C2893 1.414 . S
C2892 C2895 1.499 . S
C2893 H2867 0.950 . S
C2893 C2892 1.414 . S
C2893 C2894 1.374 . S
C2894 H2868 0.950 . S
C2894 C2890 1.385 . S
C2894 C2893 1.374 . S
C2895 C2892 1.499 . S
C2895 C2896 1.373 . S
C2895 C2897 1.389 . S
C2896 H2869 0.950 . S
C2896 C2882 1.377 . S
C2896 C2895 1.373 . S
C2897 C2881 1.377 . S
C2897 C2895 1.389 . S
C2897 C2898 1.524 . S
C2898 C2897 1.524 . S
C2898 C2899 1.397 . S
C2898 C2903 1.363 . S
C2899 H2870 0.950 . S
C2899 C2898 1.397 . S
C2899 C2900 1.334 . S
C2900 H2871 0.950 . S
C2900 C2899 1.334 . S
C2900 C2901 1.287 . S
C2901 C2900 1.287 . S
C2901 C2902 1.524 . S
C2901 H2904 0.999 . S
C2902 H2872 0.950 . S
C2902 C2901 1.524 . S
C2902 C2903 1.415 . S
C2903 H2873 0.950 . S
C2903 C2898 1.363 . S
C2903 C2902 1.415 . S
H2904 C2901 0.999 . S
H2905 C2886 0.913 . S
H2906 C2924 0.951 . S
H2907 C2926 0.951 . S
H2908 C2928 0.950 . S
H2909 C2929 0.950 . S
H2910 C2931 0.950 . S
H2911 C2934 0.950 . S
H2912 C2935 0.950 . S
H2913 C2937 0.950 1_545 S
H2914 C2938 0.950 . S
H2915 C2939 0.951 . S
H2916 C2941 0.951 . S
H2917 C2943 0.950 1_545 S
H2918 C2944 0.950 . S
H2919 C2946 0.950 . S
H2920 C2949 0.950 . S
H2921 C2950 0.950 . S
H2922 C2952 0.950 . S
H2923 C2953 0.950 . S
C2924 H2906 0.951 . S
C2924 C2925 1.366 . S
C2924 C2926 1.388 . S
C2925 C2924 1.366 . S
C2925 C2929 1.385 . S
C2926 H2907 0.951 . S
C2926 C2924 1.388 . S
C2926 C2927 1.366 . S
C2927 C2926 1.366 . S
C2927 C2928 1.414 . S
C2927 C2930 1.499 . S
C2928 H2908 0.950 . S
C2928 C2927 1.414 . S
C2928 C2929 1.374 . S
C2929 H2909 0.950 . S
C2929 C2925 1.385 . S
C2929 C2928 1.374 . S
C2930 C2927 1.499 . S
C2930 C2931 1.373 . S
C2930 C2932 1.389 . S
C2931 H2910 0.950 . S
C2931 C2930 1.373 . S
C2931 C2947 1.377 . S
C2932 C2930 1.389 . S
C2932 C2933 1.524 . S
C2932 C2946 1.377 . S
C2933 C2932 1.524 . S
C2933 C2934 1.397 . S
C2933 C2938 1.363 . S
C2934 H2911 0.950 . S
C2934 C2933 1.397 . S
C2934 C2935 1.334 . S
C2935 H2912 0.950 . S
C2935 C2934 1.334 . S
C2935 C2936 1.287 . S
C2936 C2935 1.287 . S
C2936 C2937 1.524 . S
C2936 H2955 0.913 . S
C2937 H2913 0.950 1_565 S
C2937 C2936 1.524 . S
C2937 C2938 1.415 . S
C2938 H2914 0.950 . S
C2938 C2933 1.363 . S
C2938 C2937 1.415 . S
C2939 H2915 0.951 . S
C2939 C2940 1.366 . S
C2939 C2941 1.388 . S
C2940 C2939 1.366 . S
C2940 C2944 1.385 1_565 S
C2941 H2916 0.951 . S
C2941 C2939 1.388 . S
C2941 C2942 1.366 . S
C2942 C2941 1.366 . S
C2942 C2943 1.414 . S
C2942 C2945 1.499 . S
C2943 H2917 0.950 1_565 S
C2943 C2942 1.414 . S
C2943 C2944 1.374 1_565 S
C2944 H2918 0.950 . S
C2944 C2940 1.385 1_545 S
C2944 C2943 1.374 1_545 S
C2945 C2942 1.499 . S
C2945 C2946 1.373 . S
C2945 C2947 1.389 . S
C2946 H2919 0.950 . S
C2946 C2932 1.377 . S
C2946 C2945 1.373 . S
C2947 C2931 1.377 . S
C2947 C2945 1.389 . S
C2947 C2948 1.524 . S
C2948 C2947 1.524 . S
C2948 C2949 1.397 . S
C2948 C2953 1.363 . S
C2949 H2920 0.950 . S
C2949 C2948 1.397 . S
C2949 C2950 1.334 . S
C2950 H2921 0.950 . S
C2950 C2949 1.334 . S
C2950 C2951 1.287 . S
C2951 C2950 1.287 . S
C2951 C2952 1.524 . S
C2951 H2954 0.999 . S
C2952 H2922 0.950 . S
C2952 C2951 1.524 . S
C2952 C2953 1.415 . S
C2953 H2923 0.950 . S
C2953 C2948 1.363 . S
C2953 C2952 1.415 . S
H2954 C2951 0.999 . S
H2955 C2936 0.913 . S
H2956 C2974 0.951 . S
H2957 C2976 0.951 . S
H2958 C2978 0.950 . S
H2959 C2979 0.950 . S
H2960 C2981 0.950 . S
H2961 C2984 0.950 . S
H2962 C2985 0.950 . S
H2963 C2987 0.950 . S
H2964 C2988 0.950 . S
H2965 C2989 0.951 . S
H2966 C2991 0.951 . S
H2967 C2993 0.950 . S
H2968 C2994 0.950 . S
H2969 C2996 0.950 . S
H2970 C2999 0.950 . S
H2971 C3000 0.950 . S
H2972 C3002 0.950 . S
H2973 C3003 0.950 . S
C2974 H2956 0.951 . S
C2974 C2975 1.366 . S
C2974 C2976 1.388 . S
C2975 C2974 1.366 . S
C2975 C2979 1.385 . S
C2976 H2957 0.951 . S
C2976 C2974 1.388 . S
C2976 C2977 1.366 . S
C2977 C2976 1.366 . S
C2977 C2978 1.414 . S
C2977 C2980 1.499 . S
C2978 H2958 0.950 . S
C2978 C2977 1.414 . S
C2978 C2979 1.374 . S
C2979 H2959 0.950 . S
C2979 C2975 1.385 . S
C2979 C2978 1.374 . S
C2980 C2977 1.499 . S
C2980 C2981 1.373 . S
C2980 C2982 1.389 . S
C2981 H2960 0.950 . S
C2981 C2980 1.373 . S
C2981 C2997 1.377 . S
C2982 C2980 1.389 . S
C2982 C2983 1.524 . S
C2982 C2996 1.377 . S
C2983 C2982 1.524 . S
C2983 C2984 1.397 . S
C2983 C2988 1.363 . S
C2984 H2961 0.950 . S
C2984 C2983 1.397 . S
C2984 C2985 1.334 . S
C2985 H2962 0.950 . S
C2985 C2984 1.334 . S
C2985 C2986 1.287 . S
C2986 C2985 1.287 . S
C2986 C2987 1.524 . S
C2986 H3005 0.913 . S
C2987 H2963 0.950 . S
C2987 C2986 1.524 . S
C2987 C2988 1.415 . S
C2988 H2964 0.950 . S
C2988 C2983 1.363 . S
C2988 C2987 1.415 . S
C2989 H2965 0.951 . S
C2989 C2990 1.366 . S
C2989 C2991 1.388 . S
C2990 C2989 1.366 . S
C2990 C2994 1.385 . S
C2991 H2966 0.951 . S
C2991 C2989 1.388 . S
C2991 C2992 1.366 . S
C2992 C2991 1.366 . S
C2992 C2993 1.414 . S
C2992 C2995 1.499 . S
C2993 H2967 0.950 . S
C2993 C2992 1.414 . S
C2993 C2994 1.374 . S
C2994 H2968 0.950 . S
C2994 C2990 1.385 . S
C2994 C2993 1.374 . S
C2995 C2992 1.499 . S
C2995 C2996 1.373 . S
C2995 C2997 1.389 . S
C2996 H2969 0.950 . S
C2996 C2982 1.377 . S
C2996 C2995 1.373 . S
C2997 C2981 1.377 . S
C2997 C2995 1.389 . S
C2997 C2998 1.524 . S
C2998 C2997 1.524 . S
C2998 C2999 1.397 . S
C2998 C3003 1.363 . S
C2999 H2970 0.950 . S
C2999 C2998 1.397 . S
C2999 C3000 1.334 . S
C3000 H2971 0.950 . S
C3000 C2999 1.334 . S
C3000 C3001 1.287 . S
C3001 C3000 1.287 . S
C3001 C3002 1.524 . S
C3001 H3004 0.999 . S
C3002 H2972 0.950 . S
C3002 C3001 1.524 . S
C3002 C3003 1.415 . S
C3003 H2973 0.950 . S
C3003 C2998 1.363 . S
C3003 C3002 1.415 . S
H3004 C3001 0.999 . S
H3005 C2986 0.913 . S
H3006 C3024 0.951 . S
H3007 C3026 0.951 . S
H3008 C3028 0.950 . S
H3009 C3029 0.950 . S
H3010 C3031 0.950 . S
H3011 C3034 0.950 . S
H3012 C3035 0.950 . S
H3013 C3037 0.950 . S
H3014 C3038 0.950 . S
H3015 C3039 0.951 . S
H3016 C3041 0.951 . S
H3017 C3043 0.950 . S
H3018 C3044 0.950 . S
H3019 C3046 0.950 . S
H3020 C3049 0.950 . S
H3021 C3050 0.950 . S
H3022 C3052 0.950 . S
H3023 C3053 0.950 . S
C3024 H3006 0.951 . S
C3024 C3025 1.366 . S
C3024 C3026 1.388 . S
C3025 C3024 1.366 . S
C3025 C3029 1.385 . S
C3026 H3007 0.951 . S
C3026 C3024 1.388 . S
C3026 C3027 1.366 . S
C3027 C3026 1.366 . S
C3027 C3028 1.414 . S
C3027 C3030 1.499 . S
C3028 H3008 0.950 . S
C3028 C3027 1.414 . S
C3028 C3029 1.374 . S
C3029 H3009 0.950 . S
C3029 C3025 1.385 . S
C3029 C3028 1.374 . S
C3030 C3027 1.499 . S
C3030 C3031 1.373 . S
C3030 C3032 1.389 . S
C3031 H3010 0.950 . S
C3031 C3030 1.373 . S
C3031 C3047 1.377 . S
C3032 C3030 1.389 . S
C3032 C3033 1.524 . S
C3032 C3046 1.377 . S
C3033 C3032 1.524 . S
C3033 C3034 1.397 . S
C3033 C3038 1.363 . S
C3034 H3011 0.950 . S
C3034 C3033 1.397 . S
C3034 C3035 1.334 . S
C3035 H3012 0.950 . S
C3035 C3034 1.334 . S
C3035 C3036 1.287 . S
C3036 C3035 1.287 . S
C3036 C3037 1.524 . S
C3036 H3055 0.913 . S
C3037 H3013 0.950 . S
C3037 C3036 1.524 . S
C3037 C3038 1.415 . S
C3038 H3014 0.950 . S
C3038 C3033 1.363 . S
C3038 C3037 1.415 . S
C3039 H3015 0.951 . S
C3039 C3040 1.366 . S
C3039 C3041 1.388 . S
C3040 C3039 1.366 . S
C3040 C3044 1.385 . S
C3041 H3016 0.951 . S
C3041 C3039 1.388 . S
C3041 C3042 1.366 . S
C3042 C3041 1.366 . S
C3042 C3043 1.414 . S
C3042 C3045 1.499 . S
C3043 H3017 0.950 . S
C3043 C3042 1.414 . S
C3043 C3044 1.374 . S
C3044 H3018 0.950 . S
C3044 C3040 1.385 . S
C3044 C3043 1.374 . S
C3045 C3042 1.499 . S
C3045 C3046 1.373 . S
C3045 C3047 1.389 . S
C3046 H3019 0.950 . S
C3046 C3032 1.377 . S
C3046 C3045 1.373 . S
C3047 C3031 1.377 . S
C3047 C3045 1.389 . S
C3047 C3048 1.524 . S
C3048 C3047 1.524 . S
C3048 C3049 1.397 . S
C3048 C3053 1.363 . S
C3049 H3020 0.950 . S
C3049 C3048 1.397 . S
C3049 C3050 1.334 . S
C3050 H3021 0.950 . S
C3050 C3049 1.334 . S
C3050 C3051 1.287 . S
C3051 C3050 1.287 . S
C3051 C3052 1.524 . S
C3051 H3054 0.999 . S
C3052 H3022 0.950 . S
C3052 C3051 1.524 . S
C3052 C3053 1.415 . S
C3053 H3023 0.950 . S
C3053 C3048 1.363 . S
C3053 C3052 1.415 . S
H3054 C3051 0.999 . S
H3055 C3036 0.913 . S
H3056 C3074 0.951 . S
H3057 C3076 0.951 . S
H3058 C3078 0.950 . S
H3059 C3079 0.950 . S
H3060 C3081 0.950 . S
H3061 C3084 0.950 . S
H3062 C3085 0.950 . S
H3063 C3087 0.950 . S
H3064 C3088 0.950 . S
H3065 C3089 0.951 . S
H3066 C3091 0.951 . S
H3067 C3093 0.950 . S
H3068 C3094 0.950 . S
H3069 C3096 0.950 . S
H3070 C3099 0.950 . S
H3071 C3100 0.950 . S
H3072 C3102 0.950 . S
H3073 C3103 0.950 . S
C3074 H3056 0.951 . S
C3074 C3075 1.366 . S
C3074 C3076 1.388 . S
C3075 C3074 1.366 . S
C3075 C3079 1.385 . S
C3076 H3057 0.951 . S
C3076 C3074 1.388 . S
C3076 C3077 1.366 . S
C3077 C3076 1.366 . S
C3077 C3078 1.414 . S
C3077 C3080 1.499 . S
C3078 H3058 0.950 . S
C3078 C3077 1.414 . S
C3078 C3079 1.374 . S
C3079 H3059 0.950 . S
C3079 C3075 1.385 . S
C3079 C3078 1.374 . S
C3080 C3077 1.499 . S
C3080 C3081 1.373 . S
C3080 C3082 1.389 . S
C3081 H3060 0.950 . S
C3081 C3080 1.373 . S
C3081 C3097 1.377 . S
C3082 C3080 1.389 . S
C3082 C3083 1.524 . S
C3082 C3096 1.377 . S
C3083 C3082 1.524 . S
C3083 C3084 1.397 . S
C3083 C3088 1.363 . S
C3084 H3061 0.950 . S
C3084 C3083 1.397 . S
C3084 C3085 1.334 . S
C3085 H3062 0.950 . S
C3085 C3084 1.334 . S
C3085 C3086 1.287 . S
C3086 C3085 1.287 . S
C3086 C3087 1.524 . S
C3086 H3105 0.913 . S
C3087 H3063 0.950 . S
C3087 C3086 1.524 . S
C3087 C3088 1.415 . S
C3088 H3064 0.950 . S
C3088 C3083 1.363 . S
C3088 C3087 1.415 . S
C3089 H3065 0.951 . S
C3089 C3090 1.366 . S
C3089 C3091 1.388 . S
C3090 C3089 1.366 . S
C3090 C3094 1.385 . S
C3091 H3066 0.951 . S
C3091 C3089 1.388 . S
C3091 C3092 1.366 . S
C3092 C3091 1.366 . S
C3092 C3093 1.414 . S
C3092 C3095 1.499 . S
C3093 H3067 0.950 . S
C3093 C3092 1.414 . S
C3093 C3094 1.374 . S
C3094 H3068 0.950 . S
C3094 C3090 1.385 . S
C3094 C3093 1.374 . S
C3095 C3092 1.499 . S
C3095 C3096 1.373 . S
C3095 C3097 1.389 . S
C3096 H3069 0.950 . S
C3096 C3082 1.377 . S
C3096 C3095 1.373 . S
C3097 C3081 1.377 . S
C3097 C3095 1.389 . S
C3097 C3098 1.524 . S
C3098 C3097 1.524 . S
C3098 C3099 1.397 . S
C3098 C3103 1.363 . S
C3099 H3070 0.950 . S
C3099 C3098 1.397 . S
C3099 C3100 1.334 . S
C3100 H3071 0.950 . S
C3100 C3099 1.334 . S
C3100 C3101 1.287 . S
C3101 C3100 1.287 . S
C3101 C3102 1.524 . S
C3101 H3104 0.999 . S
C3102 H3072 0.950 . S
C3102 C3101 1.524 . S
C3102 C3103 1.415 . S
C3103 H3073 0.950 . S
C3103 C3098 1.363 . S
C3103 C3102 1.415 . S
H3104 C3101 0.999 . S
H3105 C3086 0.913 . S
H3106 C3124 0.951 . S
H3107 C3126 0.951 . S
H3108 C3128 0.950 . S
H3109 C3129 0.950 . S
H3110 C3131 0.950 . S
H3111 C3134 0.950 . S
H3112 C3135 0.950 . S
H3113 C3137 0.950 . S
H3114 C3138 0.950 . S
H3115 C3139 0.951 . S
H3116 C3141 0.951 . S
H3117 C3143 0.950 . S
H3118 C3144 0.950 . S
H3119 C3146 0.950 . S
H3120 C3149 0.950 . S
H3121 C3150 0.950 . S
H3122 C3152 0.950 . S
H3123 C3153 0.950 . S
C3124 H3106 0.951 . S
C3124 C3125 1.366 . S
C3124 C3126 1.388 . S
C3125 C3124 1.366 . S
C3125 C3129 1.385 . S
C3126 H3107 0.951 . S
C3126 C3124 1.388 . S
C3126 C3127 1.366 . S
C3127 C3126 1.366 . S
C3127 C3128 1.414 . S
C3127 C3130 1.499 . S
C3128 H3108 0.950 . S
C3128 C3127 1.414 . S
C3128 C3129 1.374 . S
C3129 H3109 0.950 . S
C3129 C3125 1.385 . S
C3129 C3128 1.374 . S
C3130 C3127 1.499 . S
C3130 C3131 1.373 . S
C3130 C3132 1.389 . S
C3131 H3110 0.950 . S
C3131 C3130 1.373 . S
C3131 C3147 1.377 . S
C3132 C3130 1.389 . S
C3132 C3133 1.524 . S
C3132 C3146 1.377 . S
C3133 C3132 1.524 . S
C3133 C3134 1.397 . S
C3133 C3138 1.363 . S
C3134 H3111 0.950 . S
C3134 C3133 1.397 . S
C3134 C3135 1.334 . S
C3135 H3112 0.950 . S
C3135 C3134 1.334 . S
C3135 C3136 1.287 . S
C3136 C3135 1.287 . S
C3136 C3137 1.524 . S
C3136 H3155 0.913 . S
C3137 H3113 0.950 . S
C3137 C3136 1.524 . S
C3137 C3138 1.415 . S
C3138 H3114 0.950 . S
C3138 C3133 1.363 . S
C3138 C3137 1.415 . S
C3139 H3115 0.951 . S
C3139 C3140 1.366 . S
C3139 C3141 1.388 . S
C3140 C3139 1.366 . S
C3140 C3144 1.385 . S
C3141 H3116 0.951 . S
C3141 C3139 1.388 . S
C3141 C3142 1.366 . S
C3142 C3141 1.366 . S
C3142 C3143 1.414 . S
C3142 C3145 1.499 . S
C3143 H3117 0.950 . S
C3143 C3142 1.414 . S
C3143 C3144 1.374 . S
C3144 H3118 0.950 . S
C3144 C3140 1.385 . S
C3144 C3143 1.374 . S
C3145 C3142 1.499 . S
C3145 C3146 1.373 . S
C3145 C3147 1.389 . S
C3146 H3119 0.950 . S
C3146 C3132 1.377 . S
C3146 C3145 1.373 . S
C3147 C3131 1.377 . S
C3147 C3145 1.389 . S
C3147 C3148 1.524 . S
C3148 C3147 1.524 . S
C3148 C3149 1.397 . S
C3148 C3153 1.363 . S
C3149 H3120 0.950 . S
C3149 C3148 1.397 . S
C3149 C3150 1.334 . S
C3150 H3121 0.950 . S
C3150 C3149 1.334 . S
C3150 C3151 1.287 . S
C3151 C3150 1.287 . S
C3151 C3152 1.524 . S
C3151 H3154 0.999 . S
C3152 H3122 0.950 . S
C3152 C3151 1.524 . S
C3152 C3153 1.415 . S
C3153 H3123 0.950 . S
C3153 C3148 1.363 . S
C3153 C3152 1.415 . S
H3154 C3151 0.999 . S
H3155 C3136 0.913 . S
H3156 C3174 0.951 . S
H3157 C3176 0.951 . S
H3158 C3178 0.950 . S
H3159 C3179 0.950 . S
H3160 C3181 0.950 . S
H3161 C3184 0.950 . S
H3162 C3185 0.950 . S
H3163 C3187 0.950 . S
H3164 C3188 0.950 . S
H3165 C3189 0.951 . S
H3166 C3191 0.951 . S
H3167 C3193 0.950 . S
H3168 C3194 0.950 . S
H3169 C3196 0.950 . S
H3170 C3199 0.950 . S
H3171 C3200 0.950 . S
H3172 C3202 0.950 . S
H3173 C3203 0.950 . S
C3174 H3156 0.951 . S
C3174 C3175 1.366 . S
C3174 C3176 1.388 . S
C3175 C3174 1.366 . S
C3175 C3179 1.385 1_455 S
C3176 H3157 0.951 . S
C3176 C3174 1.388 . S
C3176 C3177 1.366 . S
C3177 C3176 1.366 . S
C3177 C3178 1.414 1_455 S
C3177 C3180 1.499 . S
C3178 H3158 0.950 . S
C3178 C3177 1.414 1_655 S
C3178 C3179 1.374 . S
C3179 H3159 0.950 . S
C3179 C3175 1.385 1_655 S
C3179 C3178 1.374 . S
C3180 C3177 1.499 . S
C3180 C3181 1.373 1_455 S
C3180 C3182 1.389 . S
C3181 H3160 0.950 . S
C3181 C3180 1.373 1_655 S
C3181 C3197 1.377 . S
C3182 C3180 1.389 . S
C3182 C3183 1.524 . S
C3182 C3196 1.377 . S
C3183 C3182 1.524 . S
C3183 C3184 1.397 . S
C3183 C3188 1.363 . S
C3184 H3161 0.950 . S
C3184 C3183 1.397 . S
C3184 C3185 1.334 . S
C3185 H3162 0.950 . S
C3185 C3184 1.334 . S
C3185 C3186 1.287 . S
C3186 C3185 1.287 . S
C3186 C3187 1.524 . S
C3186 H3205 0.913 . S
C3187 H3163 0.950 . S
C3187 C3186 1.524 . S
C3187 C3188 1.415 . S
C3188 H3164 0.950 . S
C3188 C3183 1.363 . S
C3188 C3187 1.415 . S
C3189 H3165 0.951 . S
C3189 C3190 1.366 1_655 S
C3189 C3191 1.388 . S
C3190 C3189 1.366 1_455 S
C3190 C3194 1.385 . S
C3191 H3166 0.951 . S
C3191 C3189 1.388 . S
C3191 C3192 1.366 1_655 S
C3192 C3191 1.366 1_455 S
C3192 C3193 1.414 . S
C3192 C3195 1.499 . S
C3193 H3167 0.950 . S
C3193 C3192 1.414 . S
C3193 C3194 1.374 . S
C3194 H3168 0.950 . S
C3194 C3190 1.385 . S
C3194 C3193 1.374 . S
C3195 C3192 1.499 . S
C3195 C3196 1.373 . S
C3195 C3197 1.389 1_455 S
C3196 H3169 0.950 . S
C3196 C3182 1.377 . S
C3196 C3195 1.373 . S
C3197 C3181 1.377 . S
C3197 C3195 1.389 1_655 S
C3197 C3198 1.524 . S
C3198 C3197 1.524 . S
C3198 C3199 1.397 . S
C3198 C3203 1.363 . S
C3199 H3170 0.950 . S
C3199 C3198 1.397 . S
C3199 C3200 1.334 . S
C3200 H3171 0.950 . S
C3200 C3199 1.334 . S
C3200 C3201 1.287 . S
C3201 C3200 1.287 . S
C3201 C3202 1.524 . S
C3201 H3204 0.999 . S
C3202 H3172 0.950 . S
C3202 C3201 1.524 . S
C3202 C3203 1.415 . S
C3203 H3173 0.950 . S
C3203 C3198 1.363 . S
C3203 C3202 1.415 . S
H3204 C3201 0.999 . S
H3205 C3186 0.913 . S
H3206 C3224 0.951 . S
H3207 C3226 0.951 . S
H3208 C3228 0.950 . S
H3209 C3229 0.950 . S
H3210 C3231 0.950 . S
H3211 C3234 0.950 . S
H3212 C3235 0.950 . S
H3213 C3237 0.950 . S
H3214 C3238 0.950 . S
H3215 C3239 0.951 . S
H3216 C3241 0.951 . S
H3217 C3243 0.950 . S
H3218 C3244 0.950 . S
H3219 C3246 0.950 . S
H3220 C3249 0.950 . S
H3221 C3250 0.950 . S
H3222 C3252 0.950 . S
H3223 C3253 0.950 . S
C3224 H3206 0.951 . S
C3224 C3225 1.366 . S
C3224 C3226 1.388 . S
C3225 C3224 1.366 . S
C3225 C3229 1.385 . S
C3226 H3207 0.951 . S
C3226 C3224 1.388 . S
C3226 C3227 1.366 . S
C3227 C3226 1.366 . S
C3227 C3228 1.414 . S
C3227 C3230 1.499 . S
C3228 H3208 0.950 . S
C3228 C3227 1.414 . S
C3228 C3229 1.374 . S
C3229 H3209 0.950 . S
C3229 C3225 1.385 . S
C3229 C3228 1.374 . S
C3230 C3227 1.499 . S
C3230 C3231 1.373 . S
C3230 C3232 1.389 . S
C3231 H3210 0.950 . S
C3231 C3230 1.373 . S
C3231 C3247 1.377 . S
C3232 C3230 1.389 . S
C3232 C3233 1.524 . S
C3232 C3246 1.377 . S
C3233 C3232 1.524 . S
C3233 C3234 1.397 . S
C3233 C3238 1.363 . S
C3234 H3211 0.950 . S
C3234 C3233 1.397 . S
C3234 C3235 1.334 . S
C3235 H3212 0.950 . S
C3235 C3234 1.334 . S
C3235 C3236 1.287 . S
C3236 C3235 1.287 . S
C3236 C3237 1.524 . S
C3236 H3255 0.913 . S
C3237 H3213 0.950 . S
C3237 C3236 1.524 . S
C3237 C3238 1.415 . S
C3238 H3214 0.950 . S
C3238 C3233 1.363 . S
C3238 C3237 1.415 . S
C3239 H3215 0.951 . S
C3239 C3240 1.366 . S
C3239 C3241 1.388 . S
C3240 C3239 1.366 . S
C3240 C3244 1.385 . S
C3241 H3216 0.951 . S
C3241 C3239 1.388 . S
C3241 C3242 1.366 . S
C3242 C3241 1.366 . S
C3242 C3243 1.414 . S
C3242 C3245 1.499 . S
C3243 H3217 0.950 . S
C3243 C3242 1.414 . S
C3243 C3244 1.374 . S
C3244 H3218 0.950 . S
C3244 C3240 1.385 . S
C3244 C3243 1.374 . S
C3245 C3242 1.499 . S
C3245 C3246 1.373 . S
C3245 C3247 1.389 . S
C3246 H3219 0.950 . S
C3246 C3232 1.377 . S
C3246 C3245 1.373 . S
C3247 C3231 1.377 . S
C3247 C3245 1.389 . S
C3247 C3248 1.524 . S
C3248 C3247 1.524 . S
C3248 C3249 1.397 . S
C3248 C3253 1.363 . S
C3249 H3220 0.950 . S
C3249 C3248 1.397 . S
C3249 C3250 1.334 . S
C3250 H3221 0.950 . S
C3250 C3249 1.334 . S
C3250 C3251 1.287 . S
C3251 C3250 1.287 . S
C3251 C3252 1.524 . S
C3251 H3254 0.999 . S
C3252 H3222 0.950 . S
C3252 C3251 1.524 . S
C3252 C3253 1.415 . S
C3253 H3223 0.950 . S
C3253 C3248 1.363 . S
C3253 C3252 1.415 . S
H3254 C3251 0.999 . S
H3255 C3236 0.913 . S
H3256 C3274 0.951 . S
H3257 C3276 0.951 . S
H3258 C3278 0.950 . S
H3259 C3279 0.950 . S
H3260 C3281 0.950 . S
H3261 C3284 0.950 . S
H3262 C3285 0.950 . S
H3263 C3287 0.950 . S
H3264 C3288 0.950 . S
H3265 C3289 0.951 . S
H3266 C3291 0.951 . S
H3267 C3293 0.950 . S
H3268 C3294 0.950 . S
H3269 C3296 0.950 . S
H3270 C3299 0.950 . S
H3271 C3300 0.950 . S
H3272 C3302 0.950 . S
H3273 C3303 0.950 . S
C3274 H3256 0.951 . S
C3274 C3275 1.366 . S
C3274 C3276 1.388 . S
C3275 C3274 1.366 . S
C3275 C3279 1.385 . S
C3276 H3257 0.951 . S
C3276 C3274 1.388 . S
C3276 C3277 1.366 . S
C3277 C3276 1.366 . S
C3277 C3278 1.414 . S
C3277 C3280 1.499 . S
C3278 H3258 0.950 . S
C3278 C3277 1.414 . S
C3278 C3279 1.374 . S
C3279 H3259 0.950 . S
C3279 C3275 1.385 . S
C3279 C3278 1.374 . S
C3280 C3277 1.499 . S
C3280 C3281 1.373 . S
C3280 C3282 1.389 . S
C3281 H3260 0.950 . S
C3281 C3280 1.373 . S
C3281 C3297 1.377 . S
C3282 C3280 1.389 . S
C3282 C3283 1.524 . S
C3282 C3296 1.377 . S
C3283 C3282 1.524 . S
C3283 C3284 1.397 . S
C3283 C3288 1.363 . S
C3284 H3261 0.950 . S
C3284 C3283 1.397 . S
C3284 C3285 1.334 . S
C3285 H3262 0.950 . S
C3285 C3284 1.334 . S
C3285 C3286 1.287 . S
C3286 C3285 1.287 . S
C3286 C3287 1.524 . S
C3286 H3305 0.913 . S
C3287 H3263 0.950 . S
C3287 C3286 1.524 . S
C3287 C3288 1.415 . S
C3288 H3264 0.950 . S
C3288 C3283 1.363 . S
C3288 C3287 1.415 . S
C3289 H3265 0.951 . S
C3289 C3290 1.366 . S
C3289 C3291 1.388 . S
C3290 C3289 1.366 . S
C3290 C3294 1.385 . S
C3291 H3266 0.951 . S
C3291 C3289 1.388 . S
C3291 C3292 1.366 . S
C3292 C3291 1.366 . S
C3292 C3293 1.414 . S
C3292 C3295 1.499 . S
C3293 H3267 0.950 . S
C3293 C3292 1.414 . S
C3293 C3294 1.374 . S
C3294 H3268 0.950 . S
C3294 C3290 1.385 . S
C3294 C3293 1.374 . S
C3295 C3292 1.499 . S
C3295 C3296 1.373 . S
C3295 C3297 1.389 . S
C3296 H3269 0.950 . S
C3296 C3282 1.377 . S
C3296 C3295 1.373 . S
C3297 C3281 1.377 . S
C3297 C3295 1.389 . S
C3297 C3298 1.524 . S
C3298 C3297 1.524 . S
C3298 C3299 1.397 . S
C3298 C3303 1.363 . S
C3299 H3270 0.950 . S
C3299 C3298 1.397 . S
C3299 C3300 1.334 . S
C3300 H3271 0.950 . S
C3300 C3299 1.334 . S
C3300 C3301 1.287 . S
C3301 C3300 1.287 . S
C3301 C3302 1.524 . S
C3301 H3304 0.999 . S
C3302 H3272 0.950 . S
C3302 C3301 1.524 . S
C3302 C3303 1.415 . S
C3303 H3273 0.950 . S
C3303 C3298 1.363 . S
C3303 C3302 1.415 . S
H3304 C3301 0.999 . S
H3305 C3286 0.913 . S
H3306 C3324 0.951 . S
H3307 C3326 0.951 . S
H3308 C3328 0.950 . S
H3309 C3329 0.950 . S
H3310 C3331 0.950 . S
H3311 C3334 0.950 . S
H3312 C3335 0.950 . S
H3313 C3337 0.950 . S
H3314 C3338 0.950 . S
H3315 C3339 0.951 . S
H3316 C3341 0.951 . S
H3317 C3343 0.950 . S
H3318 C3344 0.950 . S
H3319 C3346 0.950 . S
H3320 C3349 0.950 . S
H3321 C3350 0.950 . S
H3322 C3352 0.950 . S
H3323 C3353 0.950 . S
C3324 H3306 0.951 . S
C3324 C3325 1.366 . S
C3324 C3326 1.388 . S
C3325 C3324 1.366 . S
C3325 C3329 1.385 . S
C3326 H3307 0.951 . S
C3326 C3324 1.388 . S
C3326 C3327 1.366 . S
C3327 C3326 1.366 . S
C3327 C3328 1.414 . S
C3327 C3330 1.499 . S
C3328 H3308 0.950 . S
C3328 C3327 1.414 . S
C3328 C3329 1.374 . S
C3329 H3309 0.950 . S
C3329 C3325 1.385 . S
C3329 C3328 1.374 . S
C3330 C3327 1.499 . S
C3330 C3331 1.373 . S
C3330 C3332 1.389 . S
C3331 H3310 0.950 . S
C3331 C3330 1.373 . S
C3331 C3347 1.377 . S
C3332 C3330 1.389 . S
C3332 C3333 1.524 . S
C3332 C3346 1.377 . S
C3333 C3332 1.524 . S
C3333 C3334 1.397 . S
C3333 C3338 1.363 . S
C3334 H3311 0.950 . S
C3334 C3333 1.397 . S
C3334 C3335 1.334 . S
C3335 H3312 0.950 . S
C3335 C3334 1.334 . S
C3335 C3336 1.287 . S
C3336 C3335 1.287 . S
C3336 C3337 1.524 . S
C3336 H3355 0.913 . S
C3337 H3313 0.950 . S
C3337 C3336 1.524 . S
C3337 C3338 1.415 . S
C3338 H3314 0.950 . S
C3338 C3333 1.363 . S
C3338 C3337 1.415 . S
C3339 H3315 0.951 . S
C3339 C3340 1.366 . S
C3339 C3341 1.388 . S
C3340 C3339 1.366 . S
C3340 C3344 1.385 . S
C3341 H3316 0.951 . S
C3341 C3339 1.388 . S
C3341 C3342 1.366 . S
C3342 C3341 1.366 . S
C3342 C3343 1.414 . S
C3342 C3345 1.499 . S
C3343 H3317 0.950 . S
C3343 C3342 1.414 . S
C3343 C3344 1.374 . S
C3344 H3318 0.950 . S
C3344 C3340 1.385 . S
C3344 C3343 1.374 . S
C3345 C3342 1.499 . S
C3345 C3346 1.373 . S
C3345 C3347 1.389 . S
C3346 H3319 0.950 . S
C3346 C3332 1.377 . S
C3346 C3345 1.373 . S
C3347 C3331 1.377 . S
C3347 C3345 1.389 . S
C3347 C3348 1.524 . S
C3348 C3347 1.524 . S
C3348 C3349 1.397 . S
C3348 C3353 1.363 . S
C3349 H3320 0.950 . S
C3349 C3348 1.397 . S
C3349 C3350 1.334 . S
C3350 H3321 0.950 . S
C3350 C3349 1.334 . S
C3350 C3351 1.287 . S
C3351 C3350 1.287 . S
C3351 C3352 1.524 . S
C3351 H3354 0.999 . S
C3352 H3322 0.950 . S
C3352 C3351 1.524 . S
C3352 C3353 1.415 . S
C3353 H3323 0.950 . S
C3353 C3348 1.363 . S
C3353 C3352 1.415 . S
H3354 C3351 0.999 . S
H3355 C3336 0.913 . S
H3356 C3374 0.951 . S
H3357 C3376 0.951 . S
H3358 C3378 0.950 . S
H3359 C3379 0.950 . S
H3360 C3381 0.954 1_455 S
H3361 C3384 0.950 . S
H3362 C3385 0.950 . S
H3363 C3387 0.950 . S
H3364 C3388 0.950 . S
H3365 C3389 0.951 . S
H3366 C3391 0.951 . S
H3367 C3393 0.950 . S
H3368 C3394 0.950 . S
H3369 C3396 0.950 . S
H3370 C3399 0.950 . S
H3371 C3400 0.950 . S
H3372 C3402 0.950 . S
H3373 C3403 0.950 . S
C3374 H3356 0.951 . S
C3374 C3375 1.366 . S
C3374 C3376 1.388 . S
C3375 C3374 1.366 . S
C3375 C3379 1.385 1_655 S
C3376 H3357 0.951 . S
C3376 C3374 1.388 . S
C3376 C3377 1.366 . S
C3377 C3376 1.366 . S
C3377 C3378 1.414 1_655 S
C3377 C3380 1.499 . S
C3378 H3358 0.950 . S
C3378 C3377 1.414 1_455 S
C3378 C3379 1.374 . S
C3379 H3359 0.950 . S
C3379 C3375 1.385 1_455 S
C3379 C3378 1.374 . S
C3380 C3377 1.499 . S
C3380 C3381 1.378 . S
C3380 C3382 1.389 . S
C3381 H3360 0.954 1_655 S
C3381 C3380 1.378 . S
C3381 C3397 1.372 . S
C3382 C3380 1.389 . S
C3382 C3383 1.524 . S
C3382 C3396 1.377 . S
C3383 C3382 1.524 . S
C3383 C3384 1.397 1_655 S
C3383 C3388 1.363 . S
C3384 H3361 0.950 . S
C3384 C3383 1.397 1_455 S
C3384 C3385 1.334 . S
C3385 H3362 0.950 . S
C3385 C3384 1.334 . S
C3385 C3386 1.287 . S
C3386 C3385 1.287 . S
C3386 C3387 1.524 1_455 S
C3386 H3405 0.913 . S
C3387 H3363 0.950 . S
C3387 C3386 1.524 1_655 S
C3387 C3388 1.415 . S
C3388 H3364 0.950 . S
C3388 C3383 1.363 . S
C3388 C3387 1.415 . S
C3389 H3365 0.951 . S
C3389 C3390 1.363 1_455 S
C3389 C3391 1.388 . S
C3390 C3389 1.363 1_655 S
C3390 C3394 1.389 . S
C3391 H3366 0.951 . S
C3391 C3389 1.388 . S
C3391 C3392 1.366 1_455 S
C3392 C3391 1.366 1_655 S
C3392 C3393 1.414 . S
C3392 C3395 1.499 . S
C3393 H3367 0.950 . S
C3393 C3392 1.414 . S
C3393 C3394 1.374 . S
C3394 H3368 0.950 . S
C3394 C3390 1.389 . S
C3394 C3393 1.374 . S
C3395 C3392 1.499 . S
C3395 C3396 1.373 . S
C3395 C3397 1.389 . S
C3396 H3369 0.950 . S
C3396 C3382 1.377 . S
C3396 C3395 1.373 . S
C3397 C3381 1.372 . S
C3397 C3395 1.389 . S
C3397 C3398 1.524 . S
C3398 C3397 1.524 . S
C3398 C3399 1.397 . S
C3398 C3403 1.363 1_655 S
C3399 H3370 0.950 . S
C3399 C3398 1.397 . S
C3399 C3400 1.334 . S
C3400 H3371 0.950 . S
C3400 C3399 1.334 . S
C3400 C3401 1.287 . S
C3401 C3400 1.287 . S
C3401 C3402 1.524 1_655 S
C3401 H3404 0.999 . S
C3402 H3372 0.950 . S
C3402 C3401 1.524 1_455 S
C3402 C3403 1.415 . S
C3403 H3373 0.950 . S
C3403 C3398 1.363 1_455 S
C3403 C3402 1.415 . S
H3404 C3401 0.999 . S
H3405 C3386 0.913 . S
H3406 C3424 0.951 . S
H3407 C3426 0.951 . S
H3408 C3428 0.950 . S
H3409 C3429 0.950 . S
H3410 C3431 0.950 . S
H3411 C3434 0.950 . S
H3412 C3435 0.950 . S
H3413 C3437 0.950 . S
H3414 C3438 0.950 . S
H3415 C3439 0.951 . S
H3416 C3441 0.951 . S
H3417 C3443 0.950 . S
H3418 C3444 0.950 . S
H3419 C3446 0.950 . S
H3420 C3449 0.950 . S
H3421 C3450 0.950 . S
H3422 C3452 0.950 . S
H3423 C3453 0.950 . S
C3424 H3406 0.951 . S
C3424 C3425 1.366 . S
C3424 C3426 1.388 . S
C3425 C3424 1.366 . S
C3425 C3429 1.385 . S
C3426 H3407 0.951 . S
C3426 C3424 1.388 . S
C3426 C3427 1.366 . S
C3427 C3426 1.366 . S
C3427 C3428 1.414 . S
C3427 C3430 1.499 . S
C3428 H3408 0.950 . S
C3428 C3427 1.414 . S
C3428 C3429 1.374 . S
C3429 H3409 0.950 . S
C3429 C3425 1.385 . S
C3429 C3428 1.374 . S
C3430 C3427 1.499 . S
C3430 C3431 1.373 . S
C3430 C3432 1.389 . S
C3431 H3410 0.950 . S
C3431 C3430 1.373 . S
C3431 C3447 1.377 . S
C3432 C3430 1.389 . S
C3432 C3433 1.524 . S
C3432 C3446 1.377 . S
C3433 C3432 1.524 . S
C3433 C3434 1.397 . S
C3433 C3438 1.363 . S
C3434 H3411 0.950 . S
C3434 C3433 1.397 . S
C3434 C3435 1.334 . S
C3435 H3412 0.950 . S
C3435 C3434 1.334 . S
C3435 C3436 1.287 . S
C3436 C3435 1.287 . S
C3436 C3437 1.524 . S
C3436 H3455 0.913 . S
C3437 H3413 0.950 . S
C3437 C3436 1.524 . S
C3437 C3438 1.415 . S
C3438 H3414 0.950 . S
C3438 C3433 1.363 . S
C3438 C3437 1.415 . S
C3439 H3415 0.951 . S
C3439 C3440 1.366 . S
C3439 C3441 1.388 . S
C3440 C3439 1.366 . S
C3440 C3444 1.385 . S
C3441 H3416 0.951 . S
C3441 C3439 1.388 . S
C3441 C3442 1.366 . S
C3442 C3441 1.366 . S
C3442 C3443 1.414 . S
C3442 C3445 1.499 . S
C3443 H3417 0.950 . S
C3443 C3442 1.414 . S
C3443 C3444 1.374 . S
C3444 H3418 0.950 . S
C3444 C3440 1.385 . S
C3444 C3443 1.374 . S
C3445 C3442 1.499 . S
C3445 C3446 1.373 . S
C3445 C3447 1.389 . S
C3446 H3419 0.950 . S
C3446 C3432 1.377 . S
C3446 C3445 1.373 . S
C3447 C3431 1.377 . S
C3447 C3445 1.389 . S
C3447 C3448 1.524 . S
C3448 C3447 1.524 . S
C3448 C3449 1.397 . S
C3448 C3453 1.363 . S
C3449 H3420 0.950 . S
C3449 C3448 1.397 . S
C3449 C3450 1.334 . S
C3450 H3421 0.950 . S
C3450 C3449 1.334 . S
C3450 C3451 1.287 . S
C3451 C3450 1.287 . S
C3451 C3452 1.524 . S
C3451 H3454 0.999 . S
C3452 H3422 0.950 . S
C3452 C3451 1.524 . S
C3452 C3453 1.415 . S
C3453 H3423 0.950 . S
C3453 C3448 1.363 . S
C3453 C3452 1.415 . S
H3454 C3451 0.999 . S
H3455 C3436 0.913 . S
H3456 C3474 0.951 . S
H3457 C3476 0.951 . S
H3458 C3478 0.950 . S
H3459 C3479 0.950 . S
H3460 C3481 0.950 . S
H3461 C3484 0.950 . S
H3462 C3485 0.950 . S
H3463 C3487 0.950 . S
H3464 C3488 0.950 . S
H3465 C3489 0.951 . S
H3466 C3491 0.951 . S
H3467 C3493 0.950 . S
H3468 C3494 0.950 . S
H3469 C3496 0.950 . S
H3470 C3499 0.950 . S
H3471 C3500 0.950 . S
H3472 C3502 0.950 . S
H3473 C3503 0.950 . S
C3474 H3456 0.951 . S
C3474 C3475 1.366 . S
C3474 C3476 1.388 . S
C3475 C3474 1.366 . S
C3475 C3479 1.385 . S
C3476 H3457 0.951 . S
C3476 C3474 1.388 . S
C3476 C3477 1.366 . S
C3477 C3476 1.366 . S
C3477 C3478 1.414 . S
C3477 C3480 1.499 . S
C3478 H3458 0.950 . S
C3478 C3477 1.414 . S
C3478 C3479 1.374 . S
C3479 H3459 0.950 . S
C3479 C3475 1.385 . S
C3479 C3478 1.374 . S
C3480 C3477 1.499 . S
C3480 C3481 1.373 . S
C3480 C3482 1.389 . S
C3481 H3460 0.950 . S
C3481 C3480 1.373 . S
C3481 C3497 1.377 . S
C3482 C3480 1.389 . S
C3482 C3483 1.524 . S
C3482 C3496 1.377 . S
C3483 C3482 1.524 . S
C3483 C3484 1.397 . S
C3483 C3488 1.363 . S
C3484 H3461 0.950 . S
C3484 C3483 1.397 . S
C3484 C3485 1.334 . S
C3485 H3462 0.950 . S
C3485 C3484 1.334 . S
C3485 C3486 1.287 . S
C3486 C3485 1.287 . S
C3486 C3487 1.524 . S
C3486 H3505 0.913 . S
C3487 H3463 0.950 . S
C3487 C3486 1.524 . S
C3487 C3488 1.415 . S
C3488 H3464 0.950 . S
C3488 C3483 1.363 . S
C3488 C3487 1.415 . S
C3489 H3465 0.951 . S
C3489 C3490 1.366 . S
C3489 C3491 1.388 . S
C3490 C3489 1.366 . S
C3490 C3494 1.385 . S
C3491 H3466 0.951 . S
C3491 C3489 1.388 . S
C3491 C3492 1.366 . S
C3492 C3491 1.366 . S
C3492 C3493 1.414 . S
C3492 C3495 1.499 . S
C3493 H3467 0.950 . S
C3493 C3492 1.414 . S
C3493 C3494 1.374 . S
C3494 H3468 0.950 . S
C3494 C3490 1.385 . S
C3494 C3493 1.374 . S
C3495 C3492 1.499 . S
C3495 C3496 1.373 . S
C3495 C3497 1.389 . S
C3496 H3469 0.950 . S
C3496 C3482 1.377 . S
C3496 C3495 1.373 . S
C3497 C3481 1.377 . S
C3497 C3495 1.389 . S
C3497 C3498 1.524 . S
C3498 C3497 1.524 . S
C3498 C3499 1.397 . S
C3498 C3503 1.363 . S
C3499 H3470 0.950 . S
C3499 C3498 1.397 . S
C3499 C3500 1.334 . S
C3500 H3471 0.950 . S
C3500 C3499 1.334 . S
C3500 C3501 1.287 . S
C3501 C3500 1.287 . S
C3501 C3502 1.524 . S
C3501 H3504 0.999 . S
C3502 H3472 0.950 . S
C3502 C3501 1.524 . S
C3502 C3503 1.415 . S
C3503 H3473 0.950 . S
C3503 C3498 1.363 . S
C3503 C3502 1.415 . S
H3504 C3501 0.999 . S
H3505 C3486 0.913 . S
H3506 C3524 0.951 . S
H3507 C3526 0.951 . S
H3508 C3528 0.950 . S
H3509 C3529 0.950 . S
H3510 C3531 0.950 . S
H3511 C3534 0.950 . S
H3512 C3535 0.950 . S
H3513 C3537 0.950 . S
H3514 C3538 0.950 . S
H3515 C3539 0.951 . S
H3516 C3541 0.951 . S
H3517 C3543 0.950 . S
H3518 C3544 0.950 . S
H3519 C3546 0.950 . S
H3520 C3549 0.950 . S
H3521 C3550 0.950 . S
H3522 C3552 0.950 . S
H3523 C3553 0.950 . S
C3524 H3506 0.951 . S
C3524 C3525 1.366 . S
C3524 C3526 1.388 . S
C3525 C3524 1.366 . S
C3525 C3529 1.385 . S
C3526 H3507 0.951 . S
C3526 C3524 1.388 . S
C3526 C3527 1.366 . S
C3527 C3526 1.366 . S
C3527 C3528 1.414 . S
C3527 C3530 1.499 . S
C3528 H3508 0.950 . S
C3528 C3527 1.414 . S
C3528 C3529 1.374 . S
C3529 H3509 0.950 . S
C3529 C3525 1.385 . S
C3529 C3528 1.374 . S
C3530 C3527 1.499 . S
C3530 C3531 1.373 . S
C3530 C3532 1.389 . S
C3531 H3510 0.950 . S
C3531 C3530 1.373 . S
C3531 C3547 1.377 . S
C3532 C3530 1.389 . S
C3532 C3533 1.524 . S
C3532 C3546 1.377 . S
C3533 C3532 1.524 . S
C3533 C3534 1.397 . S
C3533 C3538 1.363 . S
C3534 H3511 0.950 . S
C3534 C3533 1.397 . S
C3534 C3535 1.334 . S
C3535 H3512 0.950 . S
C3535 C3534 1.334 . S
C3535 C3536 1.287 . S
C3536 C3535 1.287 . S
C3536 C3537 1.524 . S
C3536 H3555 0.913 . S
C3537 H3513 0.950 . S
C3537 C3536 1.524 . S
C3537 C3538 1.415 . S
C3538 H3514 0.950 . S
C3538 C3533 1.363 . S
C3538 C3537 1.415 . S
C3539 H3515 0.951 . S
C3539 C3540 1.366 . S
C3539 C3541 1.388 . S
C3540 C3539 1.366 . S
C3540 C3544 1.385 . S
C3541 H3516 0.951 . S
C3541 C3539 1.388 . S
C3541 C3542 1.366 . S
C3542 C3541 1.366 . S
C3542 C3543 1.414 . S
C3542 C3545 1.499 . S
C3543 H3517 0.950 . S
C3543 C3542 1.414 . S
C3543 C3544 1.374 . S
C3544 H3518 0.950 . S
C3544 C3540 1.385 . S
C3544 C3543 1.374 . S
C3545 C3542 1.499 . S
C3545 C3546 1.373 . S
C3545 C3547 1.389 . S
C3546 H3519 0.950 . S
C3546 C3532 1.377 . S
C3546 C3545 1.373 . S
C3547 C3531 1.377 . S
C3547 C3545 1.389 . S
C3547 C3548 1.524 . S
C3548 C3547 1.524 . S
C3548 C3549 1.397 . S
C3548 C3553 1.363 . S
C3549 H3520 0.950 . S
C3549 C3548 1.397 . S
C3549 C3550 1.334 . S
C3550 H3521 0.950 . S
C3550 C3549 1.334 . S
C3550 C3551 1.287 . S
C3551 C3550 1.287 . S
C3551 C3552 1.524 . S
C3551 H3554 0.999 . S
C3552 H3522 0.950 . S
C3552 C3551 1.524 . S
C3552 C3553 1.415 . S
C3553 H3523 0.950 . S
C3553 C3548 1.363 . S
C3553 C3552 1.415 . S
H3554 C3551 0.999 . S
H3555 C3536 0.913 . S
H3556 C3574 0.951 . S
H3557 C3576 0.951 . S
H3558 C3578 0.950 . S
H3559 C3579 0.950 . S
H3560 C3581 0.950 . S
H3561 C3584 0.950 . S
H3562 C3585 0.950 . S
H3563 C3587 0.950 . S
H3564 C3588 0.950 . S
H3565 C3589 0.951 . S
H3566 C3591 0.951 . S
H3567 C3593 0.950 . S
H3568 C3594 0.980 . S
H3569 C3596 0.950 . S
H3570 C3599 0.950 . S
H3571 C3600 0.950 . S
H3572 C3602 0.950 . S
H3573 C3603 0.950 . S
C3574 H3556 0.951 . S
C3574 C3575 1.366 . S
C3574 C3576 1.388 . S
C3575 C3574 1.366 . S
C3575 C3579 1.385 . S
C3576 H3557 0.951 . S
C3576 C3574 1.388 . S
C3576 C3577 1.366 . S
C3577 C3576 1.366 . S
C3577 C3578 1.414 . S
C3577 C3580 1.499 . S
C3578 H3558 0.950 . S
C3578 C3577 1.414 . S
C3578 C3579 1.374 . S
C3579 H3559 0.950 . S
C3579 C3575 1.385 . S
C3579 C3578 1.374 . S
C3580 C3577 1.499 . S
C3580 C3581 1.373 . S
C3580 C3582 1.389 . S
C3581 H3560 0.950 . S
C3581 C3580 1.373 . S
C3581 C3597 1.377 . S
C3582 C3580 1.389 . S
C3582 C3583 1.524 . S
C3582 C3596 1.377 . S
C3583 C3582 1.524 . S
C3583 C3584 1.397 . S
C3583 C3588 1.363 . S
C3584 H3561 0.950 . S
C3584 C3583 1.397 . S
C3584 C3585 1.334 . S
C3585 H3562 0.950 . S
C3585 C3584 1.334 . S
C3585 C3586 1.287 . S
C3586 C3585 1.287 . S
C3586 C3587 1.524 . S
C3586 H3605 0.913 . S
C3587 H3563 0.950 . S
C3587 C3586 1.524 . S
C3587 C3588 1.415 . S
C3588 H3564 0.950 . S
C3588 C3583 1.363 . S
C3588 C3587 1.415 . S
C3589 H3565 0.951 . S
C3589 C3590 1.366 . S
C3589 C3591 1.388 . S
C3590 C3589 1.366 . S
C3590 C3594 1.385 . S
C3591 H3566 0.951 . S
C3591 C3589 1.388 . S
C3591 C3592 1.366 . S
C3592 C3591 1.366 . S
C3592 C3593 1.414 . S
C3592 C3595 1.499 . S
C3593 H3567 0.950 . S
C3593 C3592 1.414 . S
C3593 C3594 1.374 . S
C3594 H3568 0.980 . S
C3594 C3590 1.385 . S
C3594 C3593 1.374 . S
C3595 C3592 1.499 . S
C3595 C3596 1.373 . S
C3595 C3597 1.389 . S
C3596 H3569 0.950 . S
C3596 C3582 1.377 . S
C3596 C3595 1.373 . S
C3597 C3581 1.377 . S
C3597 C3595 1.389 . S
C3597 C3598 1.524 . S
C3598 C3597 1.524 . S
C3598 C3599 1.397 . S
C3598 C3603 1.363 . S
C3599 H3570 0.950 . S
C3599 C3598 1.397 . S
C3599 C3600 1.334 . S
C3600 H3571 0.950 . S
C3600 C3599 1.334 . S
C3600 C3601 1.287 . S
C3601 C3600 1.287 . S
C3601 C3602 1.524 . S
C3601 H3604 0.999 . S
C3602 H3572 0.950 . S
C3602 C3601 1.524 . S
C3602 C3603 1.415 . S
C3603 H3573 0.950 . S
C3603 C3598 1.363 . S
C3603 C3602 1.415 . S
H3604 C3601 0.999 . S
H3605 C3586 0.913 . S
H3606 C3624 0.951 . S
H3607 C3626 0.951 . S
H3608 C3628 0.950 . S
H3609 C3629 0.950 . S
H3610 C3631 0.950 . S
H3611 C3634 0.950 . S
H3612 C3635 0.950 . S
H3613 C3637 0.950 . S
H3614 C3638 0.950 . S
H3615 C3639 0.951 . S
H3616 C3641 0.951 . S
H3617 C3643 0.950 . S
H3618 C3644 0.950 . S
H3619 C3646 0.950 . S
H3620 C3649 0.950 . S
H3621 C3650 0.950 . S
H3622 C3652 0.950 . S
H3623 C3653 0.950 . S
C3624 H3606 0.951 . S
C3624 C3625 1.366 . S
C3624 C3626 1.388 . S
C3625 C3624 1.366 . S
C3625 C3629 1.385 . S
C3626 H3607 0.951 . S
C3626 C3624 1.388 . S
C3626 C3627 1.366 . S
C3627 C3626 1.366 . S
C3627 C3628 1.414 . S
C3627 C3630 1.499 . S
C3628 H3608 0.950 . S
C3628 C3627 1.414 . S
C3628 C3629 1.374 . S
C3629 H3609 0.950 . S
C3629 C3625 1.385 . S
C3629 C3628 1.374 . S
C3630 C3627 1.499 . S
C3630 C3631 1.373 . S
C3630 C3632 1.389 . S
C3631 H3610 0.950 . S
C3631 C3630 1.373 . S
C3631 C3647 1.377 . S
C3632 C3630 1.389 . S
C3632 C3633 1.524 . S
C3632 C3646 1.377 . S
C3633 C3632 1.524 . S
C3633 C3634 1.397 . S
C3633 C3638 1.363 . S
C3634 H3611 0.950 . S
C3634 C3633 1.397 . S
C3634 C3635 1.334 . S
C3635 H3612 0.950 . S
C3635 C3634 1.334 . S
C3635 C3636 1.287 . S
C3636 C3635 1.287 . S
C3636 C3637 1.524 . S
C3636 H3655 0.913 . S
C3637 H3613 0.950 . S
C3637 C3636 1.524 . S
C3637 C3638 1.415 . S
C3638 H3614 0.950 . S
C3638 C3633 1.363 . S
C3638 C3637 1.415 . S
C3639 H3615 0.951 . S
C3639 C3640 1.366 . S
C3639 C3641 1.388 . S
C3640 C3639 1.366 . S
C3640 C3644 1.385 . S
C3641 H3616 0.951 . S
C3641 C3639 1.388 . S
C3641 C3642 1.366 . S
C3642 C3641 1.366 . S
C3642 C3643 1.414 . S
C3642 C3645 1.499 . S
C3643 H3617 0.950 . S
C3643 C3642 1.414 . S
C3643 C3644 1.374 . S
C3644 H3618 0.950 . S
C3644 C3640 1.385 . S
C3644 C3643 1.374 . S
C3645 C3642 1.499 . S
C3645 C3646 1.373 . S
C3645 C3647 1.389 . S
C3646 H3619 0.950 . S
C3646 C3632 1.377 . S
C3646 C3645 1.373 . S
C3647 C3631 1.377 . S
C3647 C3645 1.389 . S
C3647 C3648 1.524 . S
C3648 C3647 1.524 . S
C3648 C3649 1.397 . S
C3648 C3653 1.363 . S
C3649 H3620 0.950 . S
C3649 C3648 1.397 . S
C3649 C3650 1.334 . S
C3650 H3621 0.950 . S
C3650 C3649 1.334 . S
C3650 C3651 1.287 . S
C3651 C3650 1.287 . S
C3651 C3652 1.524 . S
C3651 H3654 0.999 . S
C3652 H3622 0.950 . S
C3652 C3651 1.524 . S
C3652 C3653 1.415 . S
C3653 H3623 0.950 . S
C3653 C3648 1.363 . S
C3653 C3652 1.415 . S
H3654 C3651 0.999 . S
H3655 C3636 0.913 . S
H3656 C3674 0.951 . S
H3657 C3676 0.951 . S
H3658 C3678 0.950 . S
H3659 C3679 0.950 . S
H3660 C3681 0.950 . S
H3661 C3684 0.950 . S
H3662 C3685 0.950 . S
H3663 C3687 0.950 . S
H3664 C3688 0.950 . S
H3665 C3689 0.951 . S
H3666 C3691 0.951 . S
H3667 C3693 0.950 . S
H3668 C3694 0.950 . S
H3669 C3696 0.950 . S
H3670 C3699 0.950 . S
H3671 C3700 0.950 . S
H3672 C3702 0.950 . S
H3673 C3703 0.950 . S
C3674 H3656 0.951 . S
C3674 C3675 1.366 . S
C3674 C3676 1.388 . S
C3675 C3674 1.366 . S
C3675 C3679 1.385 . S
C3676 H3657 0.951 . S
C3676 C3674 1.388 . S
C3676 C3677 1.366 . S
C3677 C3676 1.366 . S
C3677 C3678 1.414 . S
C3677 C3680 1.499 . S
C3678 H3658 0.950 . S
C3678 C3677 1.414 . S
C3678 C3679 1.374 . S
C3679 H3659 0.950 . S
C3679 C3675 1.385 . S
C3679 C3678 1.374 . S
C3680 C3677 1.499 . S
C3680 C3681 1.373 . S
C3680 C3682 1.389 . S
C3681 H3660 0.950 . S
C3681 C3680 1.373 . S
C3681 C3697 1.377 . S
C3682 C3680 1.389 . S
C3682 C3683 1.524 . S
C3682 C3696 1.377 . S
C3683 C3682 1.524 . S
C3683 C3684 1.397 . S
C3683 C3688 1.363 . S
C3684 H3661 0.950 . S
C3684 C3683 1.397 . S
C3684 C3685 1.334 . S
C3685 H3662 0.950 . S
C3685 C3684 1.334 . S
C3685 C3686 1.287 . S
C3686 C3685 1.287 . S
C3686 C3687 1.524 . S
C3686 H3705 0.913 . S
C3687 H3663 0.950 . S
C3687 C3686 1.524 . S
C3687 C3688 1.415 . S
C3688 H3664 0.950 . S
C3688 C3683 1.363 . S
C3688 C3687 1.415 . S
C3689 H3665 0.951 . S
C3689 C3690 1.366 . S
C3689 C3691 1.388 . S
C3690 C3689 1.366 . S
C3690 C3694 1.385 . S
C3691 H3666 0.951 . S
C3691 C3689 1.388 . S
C3691 C3692 1.366 . S
C3692 C3691 1.366 . S
C3692 C3693 1.414 . S
C3692 C3695 1.499 . S
C3693 H3667 0.950 . S
C3693 C3692 1.414 . S
C3693 C3694 1.374 . S
C3694 H3668 0.950 . S
C3694 C3690 1.385 . S
C3694 C3693 1.374 . S
C3695 C3692 1.499 . S
C3695 C3696 1.373 . S
C3695 C3697 1.389 . S
C3696 H3669 0.950 . S
C3696 C3682 1.377 . S
C3696 C3695 1.373 . S
C3697 C3681 1.377 . S
C3697 C3695 1.389 . S
C3697 C3698 1.524 . S
C3698 C3697 1.524 . S
C3698 C3699 1.397 . S
C3698 C3703 1.363 . S
C3699 H3670 0.950 . S
C3699 C3698 1.397 . S
C3699 C3700 1.334 . S
C3700 H3671 0.950 . S
C3700 C3699 1.334 . S
C3700 C3701 1.287 . S
C3701 C3700 1.287 . S
C3701 C3702 1.524 . S
C3701 H3704 0.999 . S
C3702 H3672 0.950 . S
C3702 C3701 1.524 . S
C3702 C3703 1.415 . S
C3703 H3673 0.950 . S
C3703 C3698 1.363 . S
C3703 C3702 1.415 . S
H3704 C3701 0.999 . S
H3705 C3686 0.913 . S
H3706 C3724 0.951 . S
H3707 C3726 0.951 . S
H3708 C3728 0.950 . S
H3709 C3729 0.950 . S
H3710 C3731 0.950 . S
H3711 C3734 0.950 . S
H3712 C3735 0.950 . S
H3713 C3737 0.950 . S
H3714 C3738 0.950 . S
H3715 C3739 0.951 . S
H3716 C3741 0.951 . S
H3717 C3743 0.950 . S
H3718 C3744 0.950 . S
H3719 C3746 0.950 . S
H3720 C3749 0.950 . S
H3721 C3750 0.950 . S
H3722 C3752 0.950 . S
H3723 C3753 0.950 . S
C3724 H3706 0.951 . S
C3724 C3725 1.366 . S
C3724 C3726 1.388 . S
C3725 C3724 1.366 . S
C3725 C3729 1.385 . S
C3726 H3707 0.951 . S
C3726 C3724 1.388 . S
C3726 C3727 1.366 . S
C3727 C3726 1.366 . S
C3727 C3728 1.414 . S
C3727 C3730 1.499 . S
C3728 H3708 0.950 . S
C3728 C3727 1.414 . S
C3728 C3729 1.374 . S
C3729 H3709 0.950 . S
C3729 C3725 1.385 . S
C3729 C3728 1.374 . S
C3730 C3727 1.499 . S
C3730 C3731 1.373 . S
C3730 C3732 1.389 . S
C3731 H3710 0.950 . S
C3731 C3730 1.373 . S
C3731 C3747 1.377 . S
C3732 C3730 1.389 . S
C3732 C3733 1.524 . S
C3732 C3746 1.377 . S
C3733 C3732 1.524 . S
C3733 C3734 1.397 . S
C3733 C3738 1.363 . S
C3734 H3711 0.950 . S
C3734 C3733 1.397 . S
C3734 C3735 1.334 . S
C3735 H3712 0.950 . S
C3735 C3734 1.334 . S
C3735 C3736 1.287 . S
C3736 C3735 1.287 . S
C3736 C3737 1.524 . S
C3736 H3755 0.913 . S
C3737 H3713 0.950 . S
C3737 C3736 1.524 . S
C3737 C3738 1.415 . S
C3738 H3714 0.950 . S
C3738 C3733 1.363 . S
C3738 C3737 1.415 . S
C3739 H3715 0.951 . S
C3739 C3740 1.366 . S
C3739 C3741 1.388 . S
C3740 C3739 1.366 . S
C3740 C3744 1.385 . S
C3741 H3716 0.951 . S
C3741 C3739 1.388 . S
C3741 C3742 1.366 . S
C3742 C3741 1.366 . S
C3742 C3743 1.414 . S
C3742 C3745 1.499 . S
C3743 H3717 0.950 . S
C3743 C3742 1.414 . S
C3743 C3744 1.374 . S
C3744 H3718 0.950 . S
C3744 C3740 1.385 . S
C3744 C3743 1.374 . S
C3745 C3742 1.499 . S
C3745 C3746 1.373 . S
C3745 C3747 1.389 . S
C3746 H3719 0.950 . S
C3746 C3732 1.377 . S
C3746 C3745 1.373 . S
C3747 C3731 1.377 . S
C3747 C3745 1.389 . S
C3747 C3748 1.524 . S
C3748 C3747 1.524 . S
C3748 C3749 1.397 . S
C3748 C3753 1.363 . S
C3749 H3720 0.950 . S
C3749 C3748 1.397 . S
C3749 C3750 1.334 . S
C3750 H3721 0.950 . S
C3750 C3749 1.334 . S
C3750 C3751 1.287 . S
C3751 C3750 1.287 . S
C3751 C3752 1.524 . S
C3751 H3754 0.999 . S
C3752 H3722 0.950 . S
C3752 C3751 1.524 . S
C3752 C3753 1.415 . S
C3753 H3723 0.950 . S
C3753 C3748 1.363 . S
C3753 C3752 1.415 . S
H3754 C3751 0.999 . S
H3755 C3736 0.913 . S
H3756 C3774 0.951 . S
H3757 C3776 0.951 . S
H3758 C3778 0.950 . S
H3759 C3779 0.950 . S
H3760 C3781 0.950 . S
H3761 C3784 0.950 . S
H3762 C3785 0.950 . S
H3763 C3787 0.950 . S
H3764 C3788 0.950 . S
H3765 C3789 0.951 . S
H3766 C3791 0.951 . S
H3767 C3793 0.950 . S
H3768 C3794 0.950 . S
H3769 C3796 0.950 . S
H3770 C3799 0.950 . S
H3771 C3800 0.950 . S
H3772 C3802 0.950 . S
H3773 C3803 0.950 . S
C3774 H3756 0.951 . S
C3774 C3775 1.366 . S
C3774 C3776 1.388 . S
C3775 C3774 1.366 . S
C3775 C3779 1.385 . S
C3776 H3757 0.951 . S
C3776 C3774 1.388 . S
C3776 C3777 1.366 . S
C3777 C3776 1.366 . S
C3777 C3778 1.414 . S
C3777 C3780 1.499 . S
C3778 H3758 0.950 . S
C3778 C3777 1.414 . S
C3778 C3779 1.374 . S
C3779 H3759 0.950 . S
C3779 C3775 1.385 . S
C3779 C3778 1.374 . S
C3780 C3777 1.499 . S
C3780 C3781 1.373 . S
C3780 C3782 1.389 . S
C3781 H3760 0.950 . S
C3781 C3780 1.373 . S
C3781 C3797 1.377 . S
C3782 C3780 1.389 . S
C3782 C3783 1.524 . S
C3782 C3796 1.377 . S
C3783 C3782 1.524 . S
C3783 C3784 1.397 . S
C3783 C3788 1.363 . S
C3784 H3761 0.950 . S
C3784 C3783 1.397 . S
C3784 C3785 1.334 . S
C3785 H3762 0.950 . S
C3785 C3784 1.334 . S
C3785 C3786 1.287 . S
C3786 C3785 1.287 . S
C3786 C3787 1.524 . S
C3786 H3805 0.913 . S
C3787 H3763 0.950 . S
C3787 C3786 1.524 . S
C3787 C3788 1.415 . S
C3788 H3764 0.950 . S
C3788 C3783 1.363 . S
C3788 C3787 1.415 . S
C3789 H3765 0.951 . S
C3789 C3790 1.366 . S
C3789 C3791 1.388 . S
C3790 C3789 1.366 . S
C3790 C3794 1.385 . S
C3791 H3766 0.951 . S
C3791 C3789 1.388 . S
C3791 C3792 1.366 . S
C3792 C3791 1.366 . S
C3792 C3793 1.414 . S
C3792 C3795 1.499 . S
C3793 H3767 0.950 . S
C3793 C3792 1.414 . S
C3793 C3794 1.374 . S
C3794 H3768 0.950 . S
C3794 C3790 1.385 . S
C3794 C3793 1.374 . S
C3795 C3792 1.499 . S
C3795 C3796 1.373 . S
C3795 C3797 1.389 . S
C3796 H3769 0.950 . S
C3796 C3782 1.377 . S
C3796 C3795 1.373 . S
C3797 C3781 1.377 . S
C3797 C3795 1.389 . S
C3797 C3798 1.524 . S
C3798 C3797 1.524 . S
C3798 C3799 1.397 . S
C3798 C3803 1.363 . S
C3799 H3770 0.950 . S
C3799 C3798 1.397 . S
C3799 C3800 1.334 . S
C3800 H3771 0.950 . S
C3800 C3799 1.334 . S
C3800 C3801 1.287 . S
C3801 C3800 1.287 . S
C3801 C3802 1.524 . S
C3801 H3804 0.999 . S
C3802 H3772 0.950 . S
C3802 C3801 1.524 . S
C3802 C3803 1.415 . S
C3803 H3773 0.950 . S
C3803 C3798 1.363 . S
C3803 C3802 1.415 . S
H3804 C3801 0.999 . S
H3805 C3786 0.913 . S
H3806 C3824 0.951 . S
H3807 C3826 0.951 . S
H3808 C3828 0.950 . S
H3809 C3829 0.950 . S
H3810 C3831 0.950 . S
H3811 C3834 0.950 . S
H3812 C3835 0.950 . S
H3813 C3837 0.950 . S
H3814 C3838 0.950 . S
H3815 C3839 0.951 . S
H3816 C3841 0.951 . S
H3817 C3843 0.950 . S
H3818 C3844 0.950 . S
H3819 C3846 0.950 . S
H3820 C3849 0.950 . S
H3821 C3850 0.950 . S
H3822 C3852 0.950 . S
H3823 C3853 0.950 . S
C3824 H3806 0.951 . S
C3824 C3825 1.366 . S
C3824 C3826 1.388 . S
C3825 C3824 1.366 . S
C3825 C3829 1.385 . S
C3826 H3807 0.951 . S
C3826 C3824 1.388 . S
C3826 C3827 1.366 . S
C3827 C3826 1.366 . S
C3827 C3828 1.414 . S
C3827 C3830 1.499 . S
C3828 H3808 0.950 . S
C3828 C3827 1.414 . S
C3828 C3829 1.374 . S
C3829 H3809 0.950 . S
C3829 C3825 1.385 . S
C3829 C3828 1.374 . S
C3830 C3827 1.499 . S
C3830 C3831 1.373 . S
C3830 C3832 1.389 . S
C3831 H3810 0.950 . S
C3831 C3830 1.373 . S
C3831 C3847 1.377 . S
C3832 C3830 1.389 . S
C3832 C3833 1.524 . S
C3832 C3846 1.377 . S
C3833 C3832 1.524 . S
C3833 C3834 1.397 . S
C3833 C3838 1.363 . S
C3834 H3811 0.950 . S
C3834 C3833 1.397 . S
C3834 C3835 1.334 . S
C3835 H3812 0.950 . S
C3835 C3834 1.334 . S
C3835 C3836 1.287 . S
C3836 C3835 1.287 . S
C3836 C3837 1.524 . S
C3836 H3855 0.913 . S
C3837 H3813 0.950 . S
C3837 C3836 1.524 . S
C3837 C3838 1.415 . S
C3838 H3814 0.950 . S
C3838 C3833 1.363 . S
C3838 C3837 1.415 . S
C3839 H3815 0.951 . S
C3839 C3840 1.366 . S
C3839 C3841 1.388 . S
C3840 C3839 1.366 . S
C3840 C3844 1.385 . S
C3841 H3816 0.951 . S
C3841 C3839 1.388 . S
C3841 C3842 1.366 . S
C3842 C3841 1.366 . S
C3842 C3843 1.414 . S
C3842 C3845 1.499 . S
C3843 H3817 0.950 . S
C3843 C3842 1.414 . S
C3843 C3844 1.374 . S
C3844 H3818 0.950 . S
C3844 C3840 1.385 . S
C3844 C3843 1.374 . S
C3845 C3842 1.499 . S
C3845 C3846 1.373 . S
C3845 C3847 1.389 . S
C3846 H3819 0.950 . S
C3846 C3832 1.377 . S
C3846 C3845 1.373 . S
C3847 C3831 1.377 . S
C3847 C3845 1.389 . S
C3847 C3848 1.524 . S
C3848 C3847 1.524 . S
C3848 C3849 1.397 . S
C3848 C3853 1.363 . S
C3849 H3820 0.950 . S
C3849 C3848 1.397 . S
C3849 C3850 1.334 . S
C3850 H3821 0.950 . S
C3850 C3849 1.334 . S
C3850 C3851 1.287 . S
C3851 C3850 1.287 . S
C3851 C3852 1.524 . S
C3851 H3854 0.999 . S
C3852 H3822 0.950 . S
C3852 C3851 1.524 . S
C3852 C3853 1.415 . S
C3853 H3823 0.950 . S
C3853 C3848 1.363 . S
C3853 C3852 1.415 . S
H3854 C3851 0.999 . S
H3855 C3836 0.913 . S
H3856 C3874 0.951 . S
H3857 C3876 0.951 . S
H3858 C3878 0.950 . S
H3859 C3879 0.950 . S
H3860 C3881 0.950 . S
H3861 C3884 0.950 . S
H3862 C3885 0.950 . S
H3863 C3887 0.950 . S
H3864 C3888 0.950 . S
H3865 C3889 0.951 . S
H3866 C3891 0.951 . S
H3867 C3893 0.950 . S
H3868 C3894 0.950 . S
H3869 C3896 0.950 . S
H3870 C3899 0.950 . S
H3871 C3900 0.950 . S
H3872 C3902 0.950 . S
H3873 C3903 0.950 . S
C3874 H3856 0.951 . S
C3874 C3875 1.366 . S
C3874 C3876 1.388 . S
C3875 C3874 1.366 . S
C3875 C3879 1.385 . S
C3876 H3857 0.951 . S
C3876 C3874 1.388 . S
C3876 C3877 1.366 . S
C3877 C3876 1.366 . S
C3877 C3878 1.414 . S
C3877 C3880 1.499 . S
C3878 H3858 0.950 . S
C3878 C3877 1.414 . S
C3878 C3879 1.374 . S
C3879 H3859 0.950 . S
C3879 C3875 1.385 . S
C3879 C3878 1.374 . S
C3880 C3877 1.499 . S
C3880 C3881 1.373 . S
C3880 C3882 1.389 . S
C3881 H3860 0.950 . S
C3881 C3880 1.373 . S
C3881 C3897 1.377 . S
C3882 C3880 1.389 . S
C3882 C3883 1.524 . S
C3882 C3896 1.377 . S
C3883 C3882 1.524 . S
C3883 C3884 1.397 . S
C3883 C3888 1.363 . S
C3884 H3861 0.950 . S
C3884 C3883 1.397 . S
C3884 C3885 1.334 . S
C3885 H3862 0.950 . S
C3885 C3884 1.334 . S
C3885 C3886 1.287 . S
C3886 C3885 1.287 . S
C3886 C3887 1.524 . S
C3886 H3905 0.913 . S
C3887 H3863 0.950 . S
C3887 C3886 1.524 . S
C3887 C3888 1.415 . S
C3888 H3864 0.950 . S
C3888 C3883 1.363 . S
C3888 C3887 1.415 . S
C3889 H3865 0.951 . S
C3889 C3890 1.366 . S
C3889 C3891 1.388 . S
C3890 C3889 1.366 . S
C3890 C3894 1.385 . S
C3891 H3866 0.951 . S
C3891 C3889 1.388 . S
C3891 C3892 1.366 . S
C3892 C3891 1.366 . S
C3892 C3893 1.414 . S
C3892 C3895 1.499 . S
C3893 H3867 0.950 . S
C3893 C3892 1.414 . S
C3893 C3894 1.374 . S
C3894 H3868 0.950 . S
C3894 C3890 1.385 . S
C3894 C3893 1.374 . S
C3895 C3892 1.499 . S
C3895 C3896 1.373 . S
C3895 C3897 1.389 . S
C3896 H3869 0.950 . S
C3896 C3882 1.377 . S
C3896 C3895 1.373 . S
C3897 C3881 1.377 . S
C3897 C3895 1.389 . S
C3897 C3898 1.524 . S
C3898 C3897 1.524 . S
C3898 C3899 1.397 . S
C3898 C3903 1.363 . S
C3899 H3870 0.950 . S
C3899 C3898 1.397 . S
C3899 C3900 1.334 . S
C3900 H3871 0.950 . S
C3900 C3899 1.334 . S
C3900 C3901 1.287 . S
C3901 C3900 1.287 . S
C3901 C3902 1.524 . S
C3901 H3904 0.999 . S
C3902 H3872 0.950 . S
C3902 C3901 1.524 . S
C3902 C3903 1.415 . S
C3903 H3873 0.950 . S
C3903 C3898 1.363 . S
C3903 C3902 1.415 . S
H3904 C3901 0.999 . S
H3905 C3886 0.913 . S
H3906 C3924 0.951 . S
H3907 C3926 0.951 . S
H3908 C3928 0.950 . S
H3909 C3929 0.950 . S
H3910 C3931 0.950 . S
H3911 C3934 0.950 . S
H3912 C3935 0.950 . S
H3913 C3937 0.950 . S
H3914 C3938 0.950 . S
H3915 C3939 0.951 . S
H3916 C3941 0.951 . S
H3917 C3943 0.950 . S
H3918 C3944 0.950 . S
H3919 C3946 0.950 . S
H3920 C3949 0.950 . S
H3921 C3950 0.950 . S
H3922 C3952 0.950 . S
H3923 C3953 0.950 . S
C3924 H3906 0.951 . S
C3924 C3925 1.366 . S
C3924 C3926 1.388 . S
C3925 C3924 1.366 . S
C3925 C3929 1.385 . S
C3926 H3907 0.951 . S
C3926 C3924 1.388 . S
C3926 C3927 1.366 . S
C3927 C3926 1.366 . S
C3927 C3928 1.414 . S
C3927 C3930 1.499 . S
C3928 H3908 0.950 . S
C3928 C3927 1.414 . S
C3928 C3929 1.374 . S
C3929 H3909 0.950 . S
C3929 C3925 1.385 . S
C3929 C3928 1.374 . S
C3930 C3927 1.499 . S
C3930 C3931 1.373 . S
C3930 C3932 1.389 . S
C3931 H3910 0.950 . S
C3931 C3930 1.373 . S
C3931 C3947 1.377 . S
C3932 C3930 1.389 . S
C3932 C3933 1.524 . S
C3932 C3946 1.377 . S
C3933 C3932 1.524 . S
C3933 C3934 1.397 . S
C3933 C3938 1.363 . S
C3934 H3911 0.950 . S
C3934 C3933 1.397 . S
C3934 C3935 1.334 . S
C3935 H3912 0.950 . S
C3935 C3934 1.334 . S
C3935 C3936 1.287 . S
C3936 C3935 1.287 . S
C3936 C3937 1.524 . S
C3936 H3955 0.913 . S
C3937 H3913 0.950 . S
C3937 C3936 1.524 . S
C3937 C3938 1.415 . S
C3938 H3914 0.950 . S
C3938 C3933 1.363 . S
C3938 C3937 1.415 . S
C3939 H3915 0.951 . S
C3939 C3940 1.366 . S
C3939 C3941 1.388 . S
C3940 C3939 1.366 . S
C3940 C3944 1.385 . S
C3941 H3916 0.951 . S
C3941 C3939 1.388 . S
C3941 C3942 1.366 . S
C3942 C3941 1.366 . S
C3942 C3943 1.414 . S
C3942 C3945 1.499 . S
C3943 H3917 0.950 . S
C3943 C3942 1.414 . S
C3943 C3944 1.374 . S
C3944 H3918 0.950 . S
C3944 C3940 1.385 . S
C3944 C3943 1.374 . S
C3945 C3942 1.499 . S
C3945 C3946 1.373 . S
C3945 C3947 1.389 . S
C3946 H3919 0.950 . S
C3946 C3932 1.377 . S
C3946 C3945 1.373 . S
C3947 C3931 1.377 . S
C3947 C3945 1.389 . S
C3947 C3948 1.524 . S
C3948 C3947 1.524 . S
C3948 C3949 1.397 . S
C3948 C3953 1.363 . S
C3949 H3920 0.950 . S
C3949 C3948 1.397 . S
C3949 C3950 1.334 . S
C3950 H3921 0.950 . S
C3950 C3949 1.334 . S
C3950 C3951 1.287 . S
C3951 C3950 1.287 . S
C3951 C3952 1.524 . S
C3951 H3954 0.999 . S
C3952 H3922 0.950 . S
C3952 C3951 1.524 . S
C3952 C3953 1.415 . S
C3953 H3923 0.950 . S
C3953 C3948 1.363 . S
C3953 C3952 1.415 . S
H3954 C3951 0.999 . S
H3955 C3936 0.913 . S
H3956 C3974 0.951 . S
H3957 C3976 0.951 . S
H3958 C3978 0.950 . S
H3959 C3979 0.950 . S
H3960 C3981 0.950 . S
H3961 C3984 0.950 . S
H3962 C3985 0.950 . S
H3963 C3987 0.950 . S
H3964 C3988 0.950 . S
H3965 C3989 0.951 . S
H3966 C3991 0.951 . S
H3967 C3993 0.950 . S
H3968 C3994 0.950 . S
H3969 C3996 0.950 . S
H3970 C3999 0.950 . S
H3971 C4000 0.950 . S
H3972 C4002 0.950 . S
H3973 C4003 0.950 . S
C3974 H3956 0.951 . S
C3974 C3975 1.366 . S
C3974 C3976 1.388 . S
C3975 C3974 1.366 . S
C3975 C3979 1.385 . S
C3976 H3957 0.951 . S
C3976 C3974 1.388 . S
C3976 C3977 1.366 . S
C3977 C3976 1.366 . S
C3977 C3978 1.414 . S
C3977 C3980 1.499 . S
C3978 H3958 0.950 . S
C3978 C3977 1.414 . S
C3978 C3979 1.374 . S
C3979 H3959 0.950 . S
C3979 C3975 1.385 . S
C3979 C3978 1.374 . S
C3980 C3977 1.499 . S
C3980 C3981 1.373 . S
C3980 C3982 1.389 . S
C3981 H3960 0.950 . S
C3981 C3980 1.373 . S
C3981 C3997 1.377 . S
C3982 C3980 1.389 . S
C3982 C3983 1.524 . S
C3982 C3996 1.377 . S
C3983 C3982 1.524 . S
C3983 C3984 1.397 . S
C3983 C3988 1.363 . S
C3984 H3961 0.950 . S
C3984 C3983 1.397 . S
C3984 C3985 1.334 . S
C3985 H3962 0.950 . S
C3985 C3984 1.334 . S
C3985 C3986 1.287 . S
C3986 C3985 1.287 . S
C3986 C3987 1.524 . S
C3986 H4005 0.913 . S
C3987 H3963 0.950 . S
C3987 C3986 1.524 . S
C3987 C3988 1.415 . S
C3988 H3964 0.950 . S
C3988 C3983 1.363 . S
C3988 C3987 1.415 . S
C3989 H3965 0.951 . S
C3989 C3990 1.366 . S
C3989 C3991 1.388 . S
C3990 C3989 1.366 . S
C3990 C3994 1.385 . S
C3991 H3966 0.951 . S
C3991 C3989 1.388 . S
C3991 C3992 1.366 . S
C3992 C3991 1.366 . S
C3992 C3993 1.414 . S
C3992 C3995 1.499 . S
C3993 H3967 0.950 . S
C3993 C3992 1.414 . S
C3993 C3994 1.374 . S
C3994 H3968 0.950 . S
C3994 C3990 1.385 . S
C3994 C3993 1.374 . S
C3995 C3992 1.499 . S
C3995 C3996 1.373 . S
C3995 C3997 1.389 . S
C3996 H3969 0.950 . S
C3996 C3982 1.377 . S
C3996 C3995 1.373 . S
C3997 C3981 1.377 . S
C3997 C3995 1.389 . S
C3997 C3998 1.524 . S
C3998 C3997 1.524 . S
C3998 C3999 1.397 . S
C3998 C4003 1.363 . S
C3999 H3970 0.950 . S
C3999 C3998 1.397 . S
C3999 C4000 1.334 . S
C4000 H3971 0.950 . S
C4000 C3999 1.334 . S
C4000 C4001 1.287 . S
C4001 C4000 1.287 . S
C4001 C4002 1.524 . S
C4001 H4004 0.999 . S
C4002 H3972 0.950 . S
C4002 C4001 1.524 . S
C4002 C4003 1.415 . S
C4003 H3973 0.950 . S
C4003 C3998 1.363 . S
C4003 C4002 1.415 . S
H4004 C4001 0.999 . S
H4005 C3986 0.913 . S
H4006 C4024 0.951 . S
H4007 C4026 0.951 . S
H4008 C4028 0.950 . S
H4009 C4029 0.950 . S
H4010 C4031 0.950 1_556 S
H4011 C4034 0.950 . S
H4012 C4035 0.950 . S
H4013 C4037 0.950 . S
H4014 C4038 0.950 . S
H4015 C4039 0.951 1_556 S
H4016 C4041 0.950 . S
H4017 C4043 0.950 . S
H4018 C4044 0.950 . S
H4019 C4046 0.950 . S
H4020 C4049 0.950 . S
H4021 C4050 0.950 . S
H4022 C4052 0.950 . S
H4023 C4053 0.950 . S
C4024 H4006 0.951 . S
C4024 C4025 1.366 . S
C4024 C4026 1.388 . S
C4025 C4024 1.366 . S
C4025 C4029 1.385 . S
C4026 H4007 0.951 . S
C4026 C4024 1.388 . S
C4026 C4027 1.366 . S
C4027 C4026 1.366 . S
C4027 C4028 1.414 . S
C4027 C4030 1.499 . S
C4028 H4008 0.950 . S
C4028 C4027 1.414 . S
C4028 C4029 1.374 . S
C4029 H4009 0.950 . S
C4029 C4025 1.385 . S
C4029 C4028 1.374 . S
C4030 C4027 1.499 . S
C4030 C4031 1.373 . S
C4030 C4032 1.389 . S
C4031 H4010 0.950 1_554 S
C4031 C4030 1.373 . S
C4031 C4047 1.377 . S
C4032 C4030 1.389 . S
C4032 C4033 1.524 . S
C4032 C4046 1.377 . S
C4033 C4032 1.524 . S
C4033 C4034 1.397 . S
C4033 C4038 1.363 . S
C4034 H4011 0.950 . S
C4034 C4033 1.397 . S
C4034 C4035 1.334 . S
C4035 H4012 0.950 . S
C4035 C4034 1.334 . S
C4035 C4036 1.287 . S
C4036 C4035 1.287 . S
C4036 C4037 1.524 . S
C4036 H4055 0.913 . S
C4037 H4013 0.950 . S
C4037 C4036 1.524 . S
C4037 C4038 1.415 . S
C4038 H4014 0.950 . S
C4038 C4033 1.363 . S
C4038 C4037 1.415 . S
C4039 H4015 0.951 1_554 S
C4039 C4040 1.366 . S
C4039 C4041 1.388 . S
C4040 C4039 1.366 . S
C4040 C4044 1.385 1_545 S
C4041 H4016 0.950 . S
C4041 C4039 1.388 . S
C4041 C4042 1.366 1_545 S
C4042 C4041 1.366 1_565 S
C4042 C4043 1.414 . S
C4042 C4045 1.499 . S
C4043 H4017 0.950 . S
C4043 C4042 1.414 . S
C4043 C4044 1.374 . S
C4044 H4018 0.950 . S
C4044 C4040 1.385 1_565 S
C4044 C4043 1.374 . S
C4045 C4042 1.499 . S
C4045 C4046 1.373 . S
C4045 C4047 1.389 . S
C4046 H4019 0.950 . S
C4046 C4032 1.377 . S
C4046 C4045 1.373 . S
C4047 C4031 1.377 . S
C4047 C4045 1.389 . S
C4047 C4048 1.524 1_554 S
C4048 C4047 1.524 1_556 S
C4048 C4049 1.397 . S
C4048 C4053 1.363 . S
C4049 H4020 0.950 . S
C4049 C4048 1.397 . S
C4049 C4050 1.334 . S
C4050 H4021 0.950 . S
C4050 C4049 1.334 . S
C4050 C4051 1.287 . S
C4051 C4050 1.287 . S
C4051 C4052 1.524 . S
C4051 H4054 0.999 . S
C4052 H4022 0.950 . S
C4052 C4051 1.524 . S
C4052 C4053 1.415 . S
C4053 H4023 0.950 . S
C4053 C4048 1.363 . S
C4053 C4052 1.415 . S
H4054 C4051 0.999 . S
H4055 C4036 0.913 . S
H4056 C4074 0.951 . S
H4057 C4076 0.951 . S
H4058 C4078 0.950 . S
H4059 C4079 0.950 . S
H4060 C4081 0.950 . S
H4061 C4084 0.950 . S
H4062 C4085 0.950 . S
H4063 C4087 0.950 . S
H4064 C4088 0.950 . S
H4065 C4089 0.951 . S
H4066 C4091 0.951 . S
H4067 C4093 0.950 . S
H4068 C4094 0.950 . S
H4069 C4096 0.950 . S
H4070 C4099 0.950 . S
H4071 C4100 0.950 . S
H4072 C4102 0.950 . S
H4073 C4103 0.950 . S
C4074 H4056 0.951 . S
C4074 C4075 1.366 . S
C4074 C4076 1.388 . S
C4075 C4074 1.366 . S
C4075 C4079 1.385 . S
C4076 H4057 0.951 . S
C4076 C4074 1.388 . S
C4076 C4077 1.366 . S
C4077 C4076 1.366 . S
C4077 C4078 1.414 . S
C4077 C4080 1.499 . S
C4078 H4058 0.950 . S
C4078 C4077 1.414 . S
C4078 C4079 1.374 . S
C4079 H4059 0.950 . S
C4079 C4075 1.385 . S
C4079 C4078 1.374 . S
C4080 C4077 1.499 . S
C4080 C4081 1.373 . S
C4080 C4082 1.389 . S
C4081 H4060 0.950 . S
C4081 C4080 1.373 . S
C4081 C4097 1.377 . S
C4082 C4080 1.389 . S
C4082 C4083 1.524 . S
C4082 C4096 1.377 . S
C4083 C4082 1.524 . S
C4083 C4084 1.397 . S
C4083 C4088 1.363 . S
C4084 H4061 0.950 . S
C4084 C4083 1.397 . S
C4084 C4085 1.334 . S
C4085 H4062 0.950 . S
C4085 C4084 1.334 . S
C4085 C4086 1.287 . S
C4086 C4085 1.287 . S
C4086 C4087 1.524 . S
C4086 H4105 0.913 . S
C4087 H4063 0.950 . S
C4087 C4086 1.524 . S
C4087 C4088 1.415 . S
C4088 H4064 0.950 . S
C4088 C4083 1.363 . S
C4088 C4087 1.415 . S
C4089 H4065 0.951 . S
C4089 C4090 1.366 . S
C4089 C4091 1.388 . S
C4090 C4089 1.366 . S
C4090 C4094 1.385 . S
C4091 H4066 0.951 . S
C4091 C4089 1.388 . S
C4091 C4092 1.366 . S
C4092 C4091 1.366 . S
C4092 C4093 1.414 . S
C4092 C4095 1.499 . S
C4093 H4067 0.950 . S
C4093 C4092 1.414 . S
C4093 C4094 1.374 . S
C4094 H4068 0.950 . S
C4094 C4090 1.385 . S
C4094 C4093 1.374 . S
C4095 C4092 1.499 . S
C4095 C4096 1.373 . S
C4095 C4097 1.389 . S
C4096 H4069 0.950 . S
C4096 C4082 1.377 . S
C4096 C4095 1.373 . S
C4097 C4081 1.377 . S
C4097 C4095 1.389 . S
C4097 C4098 1.524 . S
C4098 C4097 1.524 . S
C4098 C4099 1.397 . S
C4098 C4103 1.363 . S
C4099 H4070 0.950 . S
C4099 C4098 1.397 . S
C4099 C4100 1.334 . S
C4100 H4071 0.950 . S
C4100 C4099 1.334 . S
C4100 C4101 1.287 . S
C4101 C4100 1.287 . S
C4101 C4102 1.524 . S
C4101 H4104 0.999 . S
C4102 H4072 0.950 . S
C4102 C4101 1.524 . S
C4102 C4103 1.415 . S
C4103 H4073 0.950 . S
C4103 C4098 1.363 . S
C4103 C4102 1.415 . S
H4104 C4101 0.999 . S
H4105 C4086 0.913 . S
H4106 C4124 0.951 . S
H4107 C4126 0.951 . S
H4108 C4128 0.950 . S
H4109 C4129 0.950 . S
H4110 C4131 0.950 . S
H4111 C4134 0.950 1_556 S
H4112 C4135 0.950 1_556 S
H4113 C4137 0.950 . S
H4114 C4138 0.950 . S
H4115 C4139 0.951 . S
H4116 C4141 0.922 1_556 S
H4117 C4143 0.950 . S
H4118 C4144 0.950 . S
H4119 C4146 0.950 . S
H4120 C4149 0.950 . S
H4121 C4150 0.950 . S
H4122 C4152 0.950 . S
H4123 C4153 0.950 . S
C4124 H4106 0.951 . S
C4124 C4125 1.366 . S
C4124 C4126 1.388 . S
C4125 C4124 1.366 . S
C4125 C4129 1.385 1_554 S
C4126 H4107 0.951 . S
C4126 C4124 1.388 . S
C4126 C4127 1.366 . S
C4127 C4126 1.366 . S
C4127 C4128 1.414 1_554 S
C4127 C4130 1.499 . S
C4128 H4108 0.950 . S
C4128 C4127 1.414 1_556 S
C4128 C4129 1.374 . S
C4129 H4109 0.950 . S
C4129 C4125 1.385 1_556 S
C4129 C4128 1.374 . S
C4130 C4127 1.499 . S
C4130 C4131 1.373 . S
C4130 C4132 1.389 . S
C4131 H4110 0.950 . S
C4131 C4130 1.373 . S
C4131 C4147 1.377 . S
C4132 C4130 1.389 . S
C4132 C4133 1.524 . S
C4132 C4146 1.377 . S
C4133 C4132 1.524 . S
C4133 C4134 1.397 . S
C4133 C4138 1.363 . S
C4134 H4111 0.950 1_554 S
C4134 C4133 1.397 . S
C4134 C4135 1.334 . S
C4135 H4112 0.950 1_554 S
C4135 C4134 1.334 . S
C4135 C4136 1.287 . S
C4136 C4135 1.287 . S
C4136 C4137 1.524 . S
C4136 H4155 0.913 . S
C4137 H4113 0.950 . S
C4137 C4136 1.524 . S
C4137 C4138 1.415 . S
C4138 H4114 0.950 . S
C4138 C4133 1.363 . S
C4138 C4137 1.415 . S
C4139 H4115 0.951 . S
C4139 C4140 1.366 . S
C4139 C4141 1.388 . S
C4140 C4139 1.366 . S
C4140 C4144 1.385 . S
C4141 H4116 0.922 1_554 S
C4141 C4139 1.388 . S
C4141 C4142 1.366 . S
C4142 C4141 1.366 . S
C4142 C4143 1.414 . S
C4142 C4145 1.499 . S
C4143 H4117 0.950 . S
C4143 C4142 1.414 . S
C4143 C4144 1.374 . S
C4144 H4118 0.950 . S
C4144 C4140 1.385 . S
C4144 C4143 1.374 . S
C4145 C4142 1.499 . S
C4145 C4146 1.373 . S
C4145 C4147 1.389 . S
C4146 H4119 0.950 . S
C4146 C4132 1.377 . S
C4146 C4145 1.373 . S
C4147 C4131 1.377 . S
C4147 C4145 1.389 . S
C4147 C4148 1.524 . S
C4148 C4147 1.524 . S
C4148 C4149 1.397 . S
C4148 C4153 1.363 1_554 S
C4149 H4120 0.950 . S
C4149 C4148 1.397 . S
C4149 C4150 1.334 . S
C4150 H4121 0.950 . S
C4150 C4149 1.334 . S
C4150 C4151 1.287 . S
C4151 C4150 1.287 . S
C4151 C4152 1.524 1_554 S
C4151 H4154 0.999 . S
C4152 H4122 0.950 . S
C4152 C4151 1.524 1_556 S
C4152 C4153 1.415 . S
C4153 H4123 0.950 . S
C4153 C4148 1.363 1_556 S
C4153 C4152 1.415 . S
H4154 C4151 0.999 . S
H4155 C4136 0.913 . S
H4156 C4174 0.951 . S
H4157 C4176 0.951 . S
H4158 C4178 0.950 . S
H4159 C4179 0.950 . S
H4160 C4181 0.950 . S
H4161 C4184 0.950 . S
H4162 C4185 0.950 . S
H4163 C4187 0.950 . S
H4164 C4188 0.950 . S
H4165 C4189 0.951 . S
H4166 C4191 0.951 . S
H4167 C4193 0.950 . S
H4168 C4194 0.950 . S
H4169 C4196 0.950 . S
H4170 C4199 0.950 . S
H4171 C4200 0.950 . S
H4172 C4202 0.950 . S
H4173 C4203 0.950 . S
C4174 H4156 0.951 . S
C4174 C4175 1.366 . S
C4174 C4176 1.388 . S
C4175 C4174 1.366 . S
C4175 C4179 1.385 . S
C4176 H4157 0.951 . S
C4176 C4174 1.388 . S
C4176 C4177 1.366 . S
C4177 C4176 1.366 . S
C4177 C4178 1.414 . S
C4177 C4180 1.499 . S
C4178 H4158 0.950 . S
C4178 C4177 1.414 . S
C4178 C4179 1.374 . S
C4179 H4159 0.950 . S
C4179 C4175 1.385 . S
C4179 C4178 1.374 . S
C4180 C4177 1.499 . S
C4180 C4181 1.373 . S
C4180 C4182 1.389 . S
C4181 H4160 0.950 . S
C4181 C4180 1.373 . S
C4181 C4197 1.377 . S
C4182 C4180 1.389 . S
C4182 C4183 1.524 . S
C4182 C4196 1.377 . S
C4183 C4182 1.524 . S
C4183 C4184 1.397 . S
C4183 C4188 1.363 . S
C4184 H4161 0.950 . S
C4184 C4183 1.397 . S
C4184 C4185 1.334 . S
C4185 H4162 0.950 . S
C4185 C4184 1.334 . S
C4185 C4186 1.287 . S
C4186 C4185 1.287 . S
C4186 C4187 1.524 . S
C4186 H4205 0.913 . S
C4187 H4163 0.950 . S
C4187 C4186 1.524 . S
C4187 C4188 1.415 . S
C4188 H4164 0.950 . S
C4188 C4183 1.363 . S
C4188 C4187 1.415 . S
C4189 H4165 0.951 . S
C4189 C4190 1.366 . S
C4189 C4191 1.388 . S
C4190 C4189 1.366 . S
C4190 C4194 1.385 . S
C4191 H4166 0.951 . S
C4191 C4189 1.388 . S
C4191 C4192 1.366 . S
C4192 C4191 1.366 . S
C4192 C4193 1.414 . S
C4192 C4195 1.499 . S
C4193 H4167 0.950 . S
C4193 C4192 1.414 . S
C4193 C4194 1.374 . S
C4194 H4168 0.950 . S
C4194 C4190 1.385 . S
C4194 C4193 1.374 . S
C4195 C4192 1.499 . S
C4195 C4196 1.373 . S
C4195 C4197 1.389 . S
C4196 H4169 0.950 . S
C4196 C4182 1.377 . S
C4196 C4195 1.373 . S
C4197 C4181 1.377 . S
C4197 C4195 1.389 . S
C4197 C4198 1.524 . S
C4198 C4197 1.524 . S
C4198 C4199 1.397 . S
C4198 C4203 1.363 . S
C4199 H4170 0.950 . S
C4199 C4198 1.397 . S
C4199 C4200 1.334 . S
C4200 H4171 0.950 . S
C4200 C4199 1.334 . S
C4200 C4201 1.287 . S
C4201 C4200 1.287 . S
C4201 C4202 1.524 . S
C4201 H4204 0.999 . S
C4202 H4172 0.950 . S
C4202 C4201 1.524 . S
C4202 C4203 1.415 . S
C4203 H4173 0.950 . S
C4203 C4198 1.363 . S
C4203 C4202 1.415 . S
H4204 C4201 0.999 . S
H4205 C4186 0.913 . S
H4206 C4224 0.951 . S
H4207 C4226 0.951 . S
H4208 C4228 0.950 . S
H4209 C4229 0.950 . S
H4210 C4231 0.950 . S
H4211 C4234 0.950 . S
H4212 C4235 0.950 . S
H4213 C4237 0.950 . S
H4214 C4238 0.950 . S
H4215 C4239 0.951 . S
H4216 C4241 0.951 . S
H4217 C4243 0.950 . S
H4218 C4244 0.950 . S
H4219 C4246 0.950 . S
H4220 C4249 0.950 . S
H4221 C4250 0.950 . S
H4222 C4252 0.950 . S
H4223 C4253 0.950 . S
C4224 H4206 0.951 . S
C4224 C4225 1.366 . S
C4224 C4226 1.388 . S
C4225 C4224 1.366 . S
C4225 C4229 1.385 . S
C4226 H4207 0.951 . S
C4226 C4224 1.388 . S
C4226 C4227 1.366 . S
C4227 C4226 1.366 . S
C4227 C4228 1.414 . S
C4227 C4230 1.499 . S
C4228 H4208 0.950 . S
C4228 C4227 1.414 . S
C4228 C4229 1.374 . S
C4229 H4209 0.950 . S
C4229 C4225 1.385 . S
C4229 C4228 1.374 . S
C4230 C4227 1.499 . S
C4230 C4231 1.373 . S
C4230 C4232 1.389 . S
C4231 H4210 0.950 . S
C4231 C4230 1.373 . S
C4231 C4247 1.377 . S
C4232 C4230 1.389 . S
C4232 C4233 1.524 . S
C4232 C4246 1.377 . S
C4233 C4232 1.524 . S
C4233 C4234 1.397 . S
C4233 C4238 1.363 . S
C4234 H4211 0.950 . S
C4234 C4233 1.397 . S
C4234 C4235 1.334 . S
C4235 H4212 0.950 . S
C4235 C4234 1.334 . S
C4235 C4236 1.287 . S
C4236 C4235 1.287 . S
C4236 C4237 1.524 . S
C4236 H4255 0.970 . S
C4237 H4213 0.950 . S
C4237 C4236 1.524 . S
C4237 C4238 1.415 . S
C4238 H4214 0.950 . S
C4238 C4233 1.363 . S
C4238 C4237 1.415 . S
C4239 H4215 0.951 . S
C4239 C4240 1.366 . S
C4239 C4241 1.388 . S
C4240 C4239 1.366 . S
C4240 C4244 1.385 . S
C4241 H4216 0.951 . S
C4241 C4239 1.388 . S
C4241 C4242 1.366 . S
C4242 C4241 1.366 . S
C4242 C4243 1.414 . S
C4242 C4245 1.499 . S
C4243 H4217 0.950 . S
C4243 C4242 1.414 . S
C4243 C4244 1.374 . S
C4244 H4218 0.950 . S
C4244 C4240 1.385 . S
C4244 C4243 1.374 . S
C4245 C4242 1.499 . S
C4245 C4246 1.373 . S
C4245 C4247 1.389 . S
C4246 H4219 0.950 . S
C4246 C4232 1.377 . S
C4246 C4245 1.373 . S
C4247 C4231 1.377 . S
C4247 C4245 1.389 . S
C4247 C4248 1.524 . S
C4248 C4247 1.524 . S
C4248 C4249 1.397 . S
C4248 C4253 1.363 . S
C4249 H4220 0.950 . S
C4249 C4248 1.397 . S
C4249 C4250 1.334 . S
C4250 H4221 0.950 . S
C4250 C4249 1.334 . S
C4250 C4251 1.287 . S
C4251 C4250 1.287 . S
C4251 C4252 1.524 . S
C4251 H4254 0.999 . S
C4252 H4222 0.950 . S
C4252 C4251 1.524 . S
C4252 C4253 1.415 . S
C4253 H4223 0.950 . S
C4253 C4248 1.363 . S
C4253 C4252 1.415 . S
H4254 C4251 0.999 . S
H4255 C4236 0.970 . S
H4256 C4274 0.951 . S
H4257 C4276 0.951 . S
H4258 C4278 0.950 . S
H4259 C4279 0.950 . S
H4260 C4281 0.950 . S
H4261 C4284 0.950 . S
H4262 C4285 0.950 . S
H4263 C4287 0.950 . S
H4264 C4288 0.950 . S
H4265 C4289 0.951 . S
H4266 C4291 0.951 . S
H4267 C4293 0.950 . S
H4268 C4294 0.950 . S
H4269 C4296 0.950 . S
H4270 C4299 0.950 . S
H4271 C4300 0.950 . S
H4272 C4302 0.950 . S
H4273 C4303 0.950 . S
C4274 H4256 0.951 . S
C4274 C4275 1.366 . S
C4274 C4276 1.388 . S
C4275 C4274 1.366 . S
C4275 C4279 1.385 . S
C4276 H4257 0.951 . S
C4276 C4274 1.388 . S
C4276 C4277 1.366 . S
C4277 C4276 1.366 . S
C4277 C4278 1.414 . S
C4277 C4280 1.499 . S
C4278 H4258 0.950 . S
C4278 C4277 1.414 . S
C4278 C4279 1.374 . S
C4279 H4259 0.950 . S
C4279 C4275 1.385 . S
C4279 C4278 1.374 . S
C4280 C4277 1.499 . S
C4280 C4281 1.373 . S
C4280 C4282 1.389 . S
C4281 H4260 0.950 . S
C4281 C4280 1.373 . S
C4281 C4297 1.377 . S
C4282 C4280 1.389 . S
C4282 C4283 1.524 . S
C4282 C4296 1.377 . S
C4283 C4282 1.524 . S
C4283 C4284 1.397 . S
C4283 C4288 1.363 . S
C4284 H4261 0.950 . S
C4284 C4283 1.397 . S
C4284 C4285 1.334 . S
C4285 H4262 0.950 . S
C4285 C4284 1.334 . S
C4285 C4286 1.287 . S
C4286 C4285 1.287 . S
C4286 C4287 1.524 . S
C4286 H4305 0.913 . S
C4287 H4263 0.950 . S
C4287 C4286 1.524 . S
C4287 C4288 1.415 . S
C4288 H4264 0.950 . S
C4288 C4283 1.363 . S
C4288 C4287 1.415 . S
C4289 H4265 0.951 . S
C4289 C4290 1.366 . S
C4289 C4291 1.388 . S
C4290 C4289 1.366 . S
C4290 C4294 1.385 . S
C4291 H4266 0.951 . S
C4291 C4289 1.388 . S
C4291 C4292 1.366 . S
C4292 C4291 1.366 . S
C4292 C4293 1.414 . S
C4292 C4295 1.499 . S
C4293 H4267 0.950 . S
C4293 C4292 1.414 . S
C4293 C4294 1.374 . S
C4294 H4268 0.950 . S
C4294 C4290 1.385 . S
C4294 C4293 1.374 . S
C4295 C4292 1.499 . S
C4295 C4296 1.373 . S
C4295 C4297 1.389 . S
C4296 H4269 0.950 . S
C4296 C4282 1.377 . S
C4296 C4295 1.373 . S
C4297 C4281 1.377 . S
C4297 C4295 1.389 . S
C4297 C4298 1.524 . S
C4298 C4297 1.524 . S
C4298 C4299 1.397 . S
C4298 C4303 1.363 . S
C4299 H4270 0.950 . S
C4299 C4298 1.397 . S
C4299 C4300 1.334 . S
C4300 H4271 0.950 . S
C4300 C4299 1.334 . S
C4300 C4301 1.287 . S
C4301 C4300 1.287 . S
C4301 C4302 1.524 . S
C4301 H4304 0.999 . S
C4302 H4272 0.950 . S
C4302 C4301 1.524 . S
C4302 C4303 1.415 . S
C4303 H4273 0.950 . S
C4303 C4298 1.363 . S
C4303 C4302 1.415 . S
H4304 C4301 0.999 . S
H4305 C4286 0.913 . S
H4306 C4324 0.951 . S
H4307 C4326 0.951 . S
H4308 C4328 0.950 . S
H4309 C4329 0.950 . S
H4310 C4331 0.950 . S
H4311 C4334 0.950 . S
H4312 C4335 0.950 . S
H4313 C4337 0.950 . S
H4314 C4338 0.950 . S
H4315 C4339 0.951 . S
H4316 C4341 0.951 . S
H4317 C4343 0.950 . S
H4318 C4344 0.950 . S
H4319 C4346 0.950 . S
H4320 C4349 0.950 . S
H4321 C4350 0.950 . S
H4322 C4352 0.950 . S
H4323 C4353 0.950 . S
C4324 H4306 0.951 . S
C4324 C4325 1.366 . S
C4324 C4326 1.388 . S
C4325 C4324 1.366 . S
C4325 C4329 1.385 . S
C4326 H4307 0.951 . S
C4326 C4324 1.388 . S
C4326 C4327 1.366 . S
C4327 C4326 1.366 . S
C4327 C4328 1.414 . S
C4327 C4330 1.499 . S
C4328 H4308 0.950 . S
C4328 C4327 1.414 . S
C4328 C4329 1.374 . S
C4329 H4309 0.950 . S
C4329 C4325 1.385 . S
C4329 C4328 1.374 . S
C4330 C4327 1.499 . S
C4330 C4331 1.373 . S
C4330 C4332 1.389 . S
C4331 H4310 0.950 . S
C4331 C4330 1.373 . S
C4331 C4347 1.377 . S
C4332 C4330 1.389 . S
C4332 C4333 1.524 . S
C4332 C4346 1.377 . S
C4333 C4332 1.524 . S
C4333 C4334 1.397 . S
C4333 C4338 1.363 . S
C4334 H4311 0.950 . S
C4334 C4333 1.397 . S
C4334 C4335 1.334 . S
C4335 H4312 0.950 . S
C4335 C4334 1.334 . S
C4335 C4336 1.287 . S
C4336 C4335 1.287 . S
C4336 C4337 1.524 . S
C4336 H4355 0.913 . S
C4337 H4313 0.950 . S
C4337 C4336 1.524 . S
C4337 C4338 1.415 . S
C4338 H4314 0.950 . S
C4338 C4333 1.363 . S
C4338 C4337 1.415 . S
C4339 H4315 0.951 . S
C4339 C4340 1.366 . S
C4339 C4341 1.388 . S
C4340 C4339 1.366 . S
C4340 C4344 1.385 . S
C4341 H4316 0.951 . S
C4341 C4339 1.388 . S
C4341 C4342 1.366 . S
C4342 C4341 1.366 . S
C4342 C4343 1.414 . S
C4342 C4345 1.499 . S
C4343 H4317 0.950 . S
C4343 C4342 1.414 . S
C4343 C4344 1.374 . S
C4344 H4318 0.950 . S
C4344 C4340 1.385 . S
C4344 C4343 1.374 . S
C4345 C4342 1.499 . S
C4345 C4346 1.373 . S
C4345 C4347 1.389 . S
C4346 H4319 0.950 . S
C4346 C4332 1.377 . S
C4346 C4345 1.373 . S
C4347 C4331 1.377 . S
C4347 C4345 1.389 . S
C4347 C4348 1.524 . S
C4348 C4347 1.524 . S
C4348 C4349 1.397 . S
C4348 C4353 1.363 . S
C4349 H4320 0.950 . S
C4349 C4348 1.397 . S
C4349 C4350 1.334 . S
C4350 H4321 0.950 . S
C4350 C4349 1.334 . S
C4350 C4351 1.287 . S
C4351 C4350 1.287 . S
C4351 C4352 1.524 . S
C4351 H4354 0.999 . S
C4352 H4322 0.950 . S
C4352 C4351 1.524 . S
C4352 C4353 1.415 . S
C4353 H4323 0.950 . S
C4353 C4348 1.363 . S
C4353 C4352 1.415 . S
H4354 C4351 0.999 . S
H4355 C4336 0.913 . S
H4356 C4374 0.951 . S
H4357 C4376 0.951 . S
H4358 C4378 0.950 . S
H4359 C4379 0.950 . S
H4360 C4381 0.950 . S
H4361 C4384 0.950 . S
H4362 C4385 0.950 . S
H4363 C4387 0.950 . S
H4364 C4388 0.950 . S
H4365 C4389 0.951 . S
H4366 C4391 0.951 . S
H4367 C4393 0.950 . S
H4368 C4394 0.950 . S
H4369 C4396 0.950 . S
H4370 C4399 0.950 . S
H4371 C4400 0.950 . S
H4372 C4402 0.950 . S
H4373 C4403 0.950 . S
C4374 H4356 0.951 . S
C4374 C4375 1.366 . S
C4374 C4376 1.388 . S
C4375 C4374 1.366 . S
C4375 C4379 1.385 1_455 S
C4376 H4357 0.951 . S
C4376 C4374 1.388 . S
C4376 C4377 1.366 . S
C4377 C4376 1.366 . S
C4377 C4378 1.414 1_455 S
C4377 C4380 1.499 . S
C4378 H4358 0.950 . S
C4378 C4377 1.414 1_655 S
C4378 C4379 1.374 . S
C4379 H4359 0.950 . S
C4379 C4375 1.385 1_655 S
C4379 C4378 1.374 . S
C4380 C4377 1.499 . S
C4380 C4381 1.373 1_455 S
C4380 C4382 1.389 . S
C4381 H4360 0.950 . S
C4381 C4380 1.373 1_655 S
C4381 C4397 1.377 . S
C4382 C4380 1.389 . S
C4382 C4383 1.524 . S
C4382 C4396 1.377 . S
C4383 C4382 1.524 . S
C4383 C4384 1.397 . S
C4383 C4388 1.363 . S
C4384 H4361 0.950 . S
C4384 C4383 1.397 . S
C4384 C4385 1.334 . S
C4385 H4362 0.950 . S
C4385 C4384 1.334 . S
C4385 C4386 1.287 . S
C4386 C4385 1.287 . S
C4386 C4387 1.524 . S
C4386 H4405 0.913 . S
C4387 H4363 0.950 . S
C4387 C4386 1.524 . S
C4387 C4388 1.415 . S
C4388 H4364 0.950 . S
C4388 C4383 1.363 . S
C4388 C4387 1.415 . S
C4389 H4365 0.951 . S
C4389 C4390 1.366 1_655 S
C4389 C4391 1.388 . S
C4390 C4389 1.366 1_455 S
C4390 C4394 1.385 . S
C4391 H4366 0.951 . S
C4391 C4389 1.388 . S
C4391 C4392 1.366 1_655 S
C4392 C4391 1.366 1_455 S
C4392 C4393 1.414 . S
C4392 C4395 1.499 . S
C4393 H4367 0.950 . S
C4393 C4392 1.414 . S
C4393 C4394 1.374 . S
C4394 H4368 0.950 . S
C4394 C4390 1.385 . S
C4394 C4393 1.374 . S
C4395 C4392 1.499 . S
C4395 C4396 1.373 . S
C4395 C4397 1.389 1_455 S
C4396 H4369 0.950 . S
C4396 C4382 1.377 . S
C4396 C4395 1.373 . S
C4397 C4381 1.377 . S
C4397 C4395 1.389 1_655 S
C4397 C4398 1.524 . S
C4398 C4397 1.524 . S
C4398 C4399 1.397 . S
C4398 C4403 1.363 . S
C4399 H4370 0.950 . S
C4399 C4398 1.397 . S
C4399 C4400 1.334 . S
C4400 H4371 0.950 . S
C4400 C4399 1.334 . S
C4400 C4401 1.287 . S
C4401 C4400 1.287 . S
C4401 C4402 1.524 . S
C4401 H4404 0.999 . S
C4402 H4372 0.950 . S
C4402 C4401 1.524 . S
C4402 C4403 1.415 . S
C4403 H4373 0.950 . S
C4403 C4398 1.363 . S
C4403 C4402 1.415 . S
H4404 C4401 0.999 . S
H4405 C4386 0.913 . S
H4406 C4424 0.951 . S
H4407 C4426 0.951 . S
H4408 C4428 0.950 . S
H4409 C4429 0.950 . S
H4410 C4431 0.950 . S
H4411 C4434 0.950 . S
H4412 C4435 0.950 . S
H4413 C4437 0.950 . S
H4414 C4438 0.950 . S
H4415 C4439 0.951 . S
H4416 C4441 0.951 . S
H4417 C4443 0.950 . S
H4418 C4444 0.950 . S
H4419 C4446 0.950 . S
H4420 C4449 0.950 . S
H4421 C4450 0.950 . S
H4422 C4452 0.950 . S
H4423 C4453 0.950 . S
C4424 H4406 0.951 . S
C4424 C4425 1.366 . S
C4424 C4426 1.388 . S
C4425 C4424 1.366 . S
C4425 C4429 1.385 . S
C4426 H4407 0.951 . S
C4426 C4424 1.388 . S
C4426 C4427 1.366 . S
C4427 C4426 1.366 . S
C4427 C4428 1.414 . S
C4427 C4430 1.499 . S
C4428 H4408 0.950 . S
C4428 C4427 1.414 . S
C4428 C4429 1.374 . S
C4429 H4409 0.950 . S
C4429 C4425 1.385 . S
C4429 C4428 1.374 . S
C4430 C4427 1.499 . S
C4430 C4431 1.373 . S
C4430 C4432 1.389 . S
C4431 H4410 0.950 . S
C4431 C4430 1.373 . S
C4431 C4447 1.377 . S
C4432 C4430 1.389 . S
C4432 C4433 1.524 . S
C4432 C4446 1.377 . S
C4433 C4432 1.524 . S
C4433 C4434 1.397 . S
C4433 C4438 1.363 . S
C4434 H4411 0.950 . S
C4434 C4433 1.397 . S
C4434 C4435 1.334 . S
C4435 H4412 0.950 . S
C4435 C4434 1.334 . S
C4435 C4436 1.287 . S
C4436 C4435 1.287 . S
C4436 C4437 1.524 . S
C4436 H4455 0.913 . S
C4437 H4413 0.950 . S
C4437 C4436 1.524 . S
C4437 C4438 1.415 . S
C4438 H4414 0.950 . S
C4438 C4433 1.363 . S
C4438 C4437 1.415 . S
C4439 H4415 0.951 . S
C4439 C4440 1.366 . S
C4439 C4441 1.388 . S
C4440 C4439 1.366 . S
C4440 C4444 1.385 . S
C4441 H4416 0.951 . S
C4441 C4439 1.388 . S
C4441 C4442 1.366 . S
C4442 C4441 1.366 . S
C4442 C4443 1.414 . S
C4442 C4445 1.499 . S
C4443 H4417 0.950 . S
C4443 C4442 1.414 . S
C4443 C4444 1.374 . S
C4444 H4418 0.950 . S
C4444 C4440 1.385 . S
C4444 C4443 1.374 . S
C4445 C4442 1.499 . S
C4445 C4446 1.373 . S
C4445 C4447 1.389 . S
C4446 H4419 0.950 . S
C4446 C4432 1.377 . S
C4446 C4445 1.373 . S
C4447 C4431 1.377 . S
C4447 C4445 1.389 . S
C4447 C4448 1.524 . S
C4448 C4447 1.524 . S
C4448 C4449 1.397 . S
C4448 C4453 1.363 . S
C4449 H4420 0.950 . S
C4449 C4448 1.397 . S
C4449 C4450 1.334 . S
C4450 H4421 0.950 . S
C4450 C4449 1.334 . S
C4450 C4451 1.287 . S
C4451 C4450 1.287 . S
C4451 C4452 1.524 . S
C4451 H4454 0.999 . S
C4452 H4422 0.950 . S
C4452 C4451 1.524 . S
C4452 C4453 1.415 . S
C4453 H4423 0.950 . S
C4453 C4448 1.363 . S
C4453 C4452 1.415 . S
H4454 C4451 0.999 . S
H4455 C4436 0.913 . S
H4456 C4474 0.951 . S
H4457 C4476 0.951 . S
H4458 C4478 0.950 . S
H4459 C4479 0.950 . S
H4460 C4481 0.950 . S
H4461 C4484 0.950 . S
H4462 C4485 0.950 . S
H4463 C4487 0.950 . S
H4464 C4488 0.950 . S
H4465 C4489 0.951 . S
H4466 C4491 0.951 . S
H4467 C4493 0.950 . S
H4468 C4494 0.950 . S
H4469 C4496 0.950 . S
H4470 C4499 0.950 . S
H4471 C4500 0.950 . S
H4472 C4502 0.950 . S
H4473 C4503 0.950 . S
C4474 H4456 0.951 . S
C4474 C4475 1.366 . S
C4474 C4476 1.388 . S
C4475 C4474 1.366 . S
C4475 C4479 1.385 . S
C4476 H4457 0.951 . S
C4476 C4474 1.388 . S
C4476 C4477 1.366 . S
C4477 C4476 1.366 . S
C4477 C4478 1.414 . S
C4477 C4480 1.499 . S
C4478 H4458 0.950 . S
C4478 C4477 1.414 . S
C4478 C4479 1.374 . S
C4479 H4459 0.950 . S
C4479 C4475 1.385 . S
C4479 C4478 1.374 . S
C4480 C4477 1.499 . S
C4480 C4481 1.373 . S
C4480 C4482 1.389 . S
C4481 H4460 0.950 . S
C4481 C4480 1.373 . S
C4481 C4497 1.377 . S
C4482 C4480 1.389 . S
C4482 C4483 1.524 . S
C4482 C4496 1.377 . S
C4483 C4482 1.524 . S
C4483 C4484 1.397 . S
C4483 C4488 1.363 . S
C4484 H4461 0.950 . S
C4484 C4483 1.397 . S
C4484 C4485 1.334 . S
C4485 H4462 0.950 . S
C4485 C4484 1.334 . S
C4485 C4486 1.287 . S
C4486 C4485 1.287 . S
C4486 C4487 1.524 . S
C4486 H4505 0.913 . S
C4487 H4463 0.950 . S
C4487 C4486 1.524 . S
C4487 C4488 1.415 . S
C4488 H4464 0.950 . S
C4488 C4483 1.363 . S
C4488 C4487 1.415 . S
C4489 H4465 0.951 . S
C4489 C4490 1.366 . S
C4489 C4491 1.388 . S
C4490 C4489 1.366 . S
C4490 C4494 1.385 . S
C4491 H4466 0.951 . S
C4491 C4489 1.388 . S
C4491 C4492 1.366 . S
C4492 C4491 1.366 . S
C4492 C4493 1.414 . S
C4492 C4495 1.499 . S
C4493 H4467 0.950 . S
C4493 C4492 1.414 . S
C4493 C4494 1.374 . S
C4494 H4468 0.950 . S
C4494 C4490 1.385 . S
C4494 C4493 1.374 . S
C4495 C4492 1.499 . S
C4495 C4496 1.373 . S
C4495 C4497 1.389 . S
C4496 H4469 0.950 . S
C4496 C4482 1.377 . S
C4496 C4495 1.373 . S
C4497 C4481 1.377 . S
C4497 C4495 1.389 . S
C4497 C4498 1.524 . S
C4498 C4497 1.524 . S
C4498 C4499 1.397 . S
C4498 C4503 1.363 . S
C4499 H4470 0.950 . S
C4499 C4498 1.397 . S
C4499 C4500 1.334 . S
C4500 H4471 0.950 . S
C4500 C4499 1.334 . S
C4500 C4501 1.287 . S
C4501 C4500 1.287 . S
C4501 C4502 1.524 . S
C4501 H4504 0.999 . S
C4502 H4472 0.950 . S
C4502 C4501 1.524 . S
C4502 C4503 1.415 . S
C4503 H4473 0.950 . S
C4503 C4498 1.363 . S
C4503 C4502 1.415 . S
H4504 C4501 0.999 . S
H4505 C4486 0.913 . S
H4506 C4524 0.951 . S
H4507 C4526 0.951 . S
H4508 C4528 0.950 . S
H4509 C4529 0.950 . S
H4510 C4531 0.950 . S
H4511 C4534 0.950 . S
H4512 C4535 0.950 . S
H4513 C4537 0.950 . S
H4514 C4538 0.950 . S
H4515 C4539 0.951 . S
H4516 C4541 0.951 . S
H4517 C4543 0.950 . S
H4518 C4544 0.950 . S
H4519 C4546 0.950 . S
H4520 C4549 0.950 . S
H4521 C4550 0.950 . S
H4522 C4552 0.950 . S
H4523 C4553 0.950 . S
C4524 H4506 0.951 . S
C4524 C4525 1.366 . S
C4524 C4526 1.388 . S
C4525 C4524 1.366 . S
C4525 C4529 1.385 . S
C4526 H4507 0.951 . S
C4526 C4524 1.388 . S
C4526 C4527 1.366 . S
C4527 C4526 1.366 . S
C4527 C4528 1.414 . S
C4527 C4530 1.499 . S
C4528 H4508 0.950 . S
C4528 C4527 1.414 . S
C4528 C4529 1.374 . S
C4529 H4509 0.950 . S
C4529 C4525 1.385 . S
C4529 C4528 1.374 . S
C4530 C4527 1.499 . S
C4530 C4531 1.373 . S
C4530 C4532 1.389 . S
C4531 H4510 0.950 . S
C4531 C4530 1.373 . S
C4531 C4547 1.377 . S
C4532 C4530 1.389 . S
C4532 C4533 1.524 . S
C4532 C4546 1.377 . S
C4533 C4532 1.524 . S
C4533 C4534 1.397 . S
C4533 C4538 1.363 . S
C4534 H4511 0.950 . S
C4534 C4533 1.397 . S
C4534 C4535 1.334 . S
C4535 H4512 0.950 . S
C4535 C4534 1.334 . S
C4535 C4536 1.287 . S
C4536 C4535 1.287 . S
C4536 C4537 1.524 . S
C4536 H4555 0.913 . S
C4537 H4513 0.950 . S
C4537 C4536 1.524 . S
C4537 C4538 1.415 . S
C4538 H4514 0.950 . S
C4538 C4533 1.363 . S
C4538 C4537 1.415 . S
C4539 H4515 0.951 . S
C4539 C4540 1.366 . S
C4539 C4541 1.388 . S
C4540 C4539 1.366 . S
C4540 C4544 1.385 . S
C4541 H4516 0.951 . S
C4541 C4539 1.388 . S
C4541 C4542 1.366 . S
C4542 C4541 1.366 . S
C4542 C4543 1.414 . S
C4542 C4545 1.499 . S
C4543 H4517 0.950 . S
C4543 C4542 1.414 . S
C4543 C4544 1.374 . S
C4544 H4518 0.950 . S
C4544 C4540 1.385 . S
C4544 C4543 1.374 . S
C4545 C4542 1.499 . S
C4545 C4546 1.373 . S
C4545 C4547 1.389 . S
C4546 H4519 0.950 . S
C4546 C4532 1.377 . S
C4546 C4545 1.373 . S
C4547 C4531 1.377 . S
C4547 C4545 1.389 . S
C4547 C4548 1.524 . S
C4548 C4547 1.524 . S
C4548 C4549 1.397 . S
C4548 C4553 1.363 . S
C4549 H4520 0.950 . S
C4549 C4548 1.397 . S
C4549 C4550 1.334 . S
C4550 H4521 0.950 . S
C4550 C4549 1.334 . S
C4550 C4551 1.287 . S
C4551 C4550 1.287 . S
C4551 C4552 1.524 . S
C4551 H4554 0.999 . S
C4552 H4522 0.950 . S
C4552 C4551 1.524 . S
C4552 C4553 1.415 . S
C4553 H4523 0.950 . S
C4553 C4548 1.363 . S
C4553 C4552 1.415 . S
H4554 C4551 0.999 . S
H4555 C4536 0.913 . S
H4556 C4574 0.951 1_655 S
H4557 C4576 0.951 1_655 S
H4558 C4578 0.950 . S
H4559 C4579 0.950 . S
H4560 C4581 0.950 . S
H4561 C4584 0.950 . S
H4562 C4585 0.950 . S
H4563 C4587 0.950 . S
H4564 C4588 0.915 1_655 S
H4565 C4589 0.951 . S
H4566 C4591 0.951 . S
H4567 C4593 0.950 1_655 S
H4568 C4594 0.950 1_655 S
H4569 C4596 0.950 . S
H4570 C4599 0.950 . S
H4571 C4600 0.950 . S
H4572 C4602 0.950 . S
H4573 C4603 0.950 . S
C4574 H4556 0.951 1_455 S
C4574 C4575 1.366 . S
C4574 C4576 1.388 . S
C4575 C4574 1.366 . S
C4575 C4579 1.385 . S
C4576 H4557 0.951 1_455 S
C4576 C4574 1.388 . S
C4576 C4577 1.366 . S
C4577 C4576 1.366 . S
C4577 C4578 1.414 . S
C4577 C4580 1.499 . S
C4578 H4558 0.950 . S
C4578 C4577 1.414 . S
C4578 C4579 1.374 . S
C4579 H4559 0.950 . S
C4579 C4575 1.385 . S
C4579 C4578 1.374 . S
C4580 C4577 1.499 . S
C4580 C4581 1.373 . S
C4580 C4582 1.389 . S
C4581 H4560 0.950 . S
C4581 C4580 1.373 . S
C4581 C4597 1.377 . S
C4582 C4580 1.389 . S
C4582 C4583 1.524 . S
C4582 C4596 1.377 . S
C4583 C4582 1.524 . S
C4583 C4584 1.397 . S
C4583 C4588 1.363 . S
C4584 H4561 0.950 . S
C4584 C4583 1.397 . S
C4584 C4585 1.334 . S
C4585 H4562 0.950 . S
C4585 C4584 1.334 . S
C4585 C4586 1.287 . S
C4586 C4585 1.287 . S
C4586 C4587 1.524 . S
C4586 H4605 0.913 . S
C4587 H4563 0.950 . S
C4587 C4586 1.524 . S
C4587 C4588 1.415 . S
C4588 H4564 0.915 1_455 S
C4588 C4583 1.363 . S
C4588 C4587 1.415 . S
C4589 H4565 0.951 . S
C4589 C4590 1.366 . S
C4589 C4591 1.388 . S
C4590 C4589 1.366 . S
C4590 C4594 1.385 . S
C4591 H4566 0.951 . S
C4591 C4589 1.388 . S
C4591 C4592 1.366 . S
C4592 C4591 1.366 . S
C4592 C4593 1.414 . S
C4592 C4595 1.499 . S
C4593 H4567 0.950 1_455 S
C4593 C4592 1.414 . S
C4593 C4594 1.374 . S
C4594 H4568 0.950 1_455 S
C4594 C4590 1.385 . S
C4594 C4593 1.374 . S
C4595 C4592 1.499 . S
C4595 C4596 1.373 . S
C4595 C4597 1.389 . S
C4596 H4569 0.950 . S
C4596 C4582 1.377 . S
C4596 C4595 1.373 . S
C4597 C4581 1.377 . S
C4597 C4595 1.389 . S
C4597 C4598 1.524 . S
C4598 C4597 1.524 . S
C4598 C4599 1.397 1_455 S
C4598 C4603 1.363 . S
C4599 H4570 0.950 . S
C4599 C4598 1.397 1_655 S
C4599 C4600 1.334 . S
C4600 H4571 0.950 . S
C4600 C4599 1.334 . S
C4600 C4601 1.287 1_655 S
C4601 C4600 1.287 1_455 S
C4601 C4602 1.524 . S
C4601 H4604 0.999 1_455 S
C4602 H4572 0.950 . S
C4602 C4601 1.524 . S
C4602 C4603 1.415 . S
C4603 H4573 0.950 . S
C4603 C4598 1.363 . S
C4603 C4602 1.415 . S
H4604 C4601 0.999 1_655 S
H4605 C4586 0.913 . S
H4606 C4624 0.951 . S
H4607 C4626 0.951 . S
H4608 C4628 0.950 . S
H4609 C4629 0.950 . S
H4610 C4631 0.950 . S
H4611 C4634 0.950 . S
H4612 C4635 0.950 . S
H4613 C4637 0.950 . S
H4614 C4638 0.950 . S
H4615 C4639 0.951 . S
H4616 C4641 0.951 . S
H4617 C4643 0.950 . S
H4618 C4644 0.950 . S
H4619 C4646 0.950 . S
H4620 C4649 0.950 . S
H4621 C4650 0.950 . S
H4622 C4652 0.950 . S
H4623 C4653 0.950 . S
C4624 H4606 0.951 . S
C4624 C4625 1.366 . S
C4624 C4626 1.388 . S
C4625 C4624 1.366 . S
C4625 C4629 1.385 . S
C4626 H4607 0.951 . S
C4626 C4624 1.388 . S
C4626 C4627 1.366 . S
C4627 C4626 1.366 . S
C4627 C4628 1.414 . S
C4627 C4630 1.499 . S
C4628 H4608 0.950 . S
C4628 C4627 1.414 . S
C4628 C4629 1.374 . S
C4629 H4609 0.950 . S
C4629 C4625 1.385 . S
C4629 C4628 1.374 . S
C4630 C4627 1.499 . S
C4630 C4631 1.373 . S
C4630 C4632 1.389 . S
C4631 H4610 0.950 . S
C4631 C4630 1.373 . S
C4631 C4647 1.377 . S
C4632 C4630 1.389 . S
C4632 C4633 1.524 . S
C4632 C4646 1.377 . S
C4633 C4632 1.524 . S
C4633 C4634 1.397 . S
C4633 C4638 1.363 . S
C4634 H4611 0.950 . S
C4634 C4633 1.397 . S
C4634 C4635 1.334 . S
C4635 H4612 0.950 . S
C4635 C4634 1.334 . S
C4635 C4636 1.287 . S
C4636 C4635 1.287 . S
C4636 C4637 1.524 . S
C4636 H4655 0.913 . S
C4637 H4613 0.950 . S
C4637 C4636 1.524 . S
C4637 C4638 1.415 . S
C4638 H4614 0.950 . S
C4638 C4633 1.363 . S
C4638 C4637 1.415 . S
C4639 H4615 0.951 . S
C4639 C4640 1.366 . S
C4639 C4641 1.388 . S
C4640 C4639 1.366 . S
C4640 C4644 1.385 . S
C4641 H4616 0.951 . S
C4641 C4639 1.388 . S
C4641 C4642 1.366 . S
C4642 C4641 1.366 . S
C4642 C4643 1.414 . S
C4642 C4645 1.499 . S
C4643 H4617 0.950 . S
C4643 C4642 1.414 . S
C4643 C4644 1.374 . S
C4644 H4618 0.950 . S
C4644 C4640 1.385 . S
C4644 C4643 1.374 . S
C4645 C4642 1.499 . S
C4645 C4646 1.373 . S
C4645 C4647 1.389 . S
C4646 H4619 0.950 . S
C4646 C4632 1.377 . S
C4646 C4645 1.373 . S
C4647 C4631 1.377 . S
C4647 C4645 1.389 . S
C4647 C4648 1.524 . S
C4648 C4647 1.524 . S
C4648 C4649 1.397 . S
C4648 C4653 1.363 . S
C4649 H4620 0.950 . S
C4649 C4648 1.397 . S
C4649 C4650 1.334 . S
C4650 H4621 0.950 . S
C4650 C4649 1.334 . S
C4650 C4651 1.287 . S
C4651 C4650 1.287 . S
C4651 C4652 1.524 . S
C4651 H4654 0.999 . S
C4652 H4622 0.950 . S
C4652 C4651 1.524 . S
C4652 C4653 1.415 . S
C4653 H4623 0.950 . S
C4653 C4648 1.363 . S
C4653 C4652 1.415 . S
H4654 C4651 0.999 . S
H4655 C4636 0.913 . S
H4656 C4674 0.951 . S
H4657 C4676 0.951 . S
H4658 C4678 0.950 . S
H4659 C4679 0.950 . S
H4660 C4681 0.950 . S
H4661 C4684 0.950 . S
H4662 C4685 0.950 . S
H4663 C4687 0.950 . S
H4664 C4688 0.950 . S
H4665 C4689 0.951 . S
H4666 C4691 0.951 . S
H4667 C4693 0.950 . S
H4668 C4694 0.950 . S
H4669 C4696 0.950 . S
H4670 C4699 0.950 . S
H4671 C4700 0.950 . S
H4672 C4702 0.950 . S
H4673 C4703 0.950 . S
C4674 H4656 0.951 . S
C4674 C4675 1.366 . S
C4674 C4676 1.388 . S
C4675 C4674 1.366 . S
C4675 C4679 1.385 . S
C4676 H4657 0.951 . S
C4676 C4674 1.388 . S
C4676 C4677 1.366 . S
C4677 C4676 1.366 . S
C4677 C4678 1.414 . S
C4677 C4680 1.499 . S
C4678 H4658 0.950 . S
C4678 C4677 1.414 . S
C4678 C4679 1.374 . S
C4679 H4659 0.950 . S
C4679 C4675 1.385 . S
C4679 C4678 1.374 . S
C4680 C4677 1.499 . S
C4680 C4681 1.373 . S
C4680 C4682 1.389 . S
C4681 H4660 0.950 . S
C4681 C4680 1.373 . S
C4681 C4697 1.377 . S
C4682 C4680 1.389 . S
C4682 C4683 1.524 . S
C4682 C4696 1.377 . S
C4683 C4682 1.524 . S
C4683 C4684 1.397 . S
C4683 C4688 1.363 . S
C4684 H4661 0.950 . S
C4684 C4683 1.397 . S
C4684 C4685 1.334 . S
C4685 H4662 0.950 . S
C4685 C4684 1.334 . S
C4685 C4686 1.287 . S
C4686 C4685 1.287 . S
C4686 C4687 1.524 . S
C4686 H4705 0.913 . S
C4687 H4663 0.950 . S
C4687 C4686 1.524 . S
C4687 C4688 1.415 . S
C4688 H4664 0.950 . S
C4688 C4683 1.363 . S
C4688 C4687 1.415 . S
C4689 H4665 0.951 . S
C4689 C4690 1.366 . S
C4689 C4691 1.388 . S
C4690 C4689 1.366 . S
C4690 C4694 1.385 . S
C4691 H4666 0.951 . S
C4691 C4689 1.388 . S
C4691 C4692 1.366 . S
C4692 C4691 1.366 . S
C4692 C4693 1.414 . S
C4692 C4695 1.499 . S
C4693 H4667 0.950 . S
C4693 C4692 1.414 . S
C4693 C4694 1.374 . S
C4694 H4668 0.950 . S
C4694 C4690 1.385 . S
C4694 C4693 1.374 . S
C4695 C4692 1.499 . S
C4695 C4696 1.373 . S
C4695 C4697 1.389 . S
C4696 H4669 0.950 . S
C4696 C4682 1.377 . S
C4696 C4695 1.373 . S
C4697 C4681 1.377 . S
C4697 C4695 1.389 . S
C4697 C4698 1.524 . S
C4698 C4697 1.524 . S
C4698 C4699 1.397 . S
C4698 C4703 1.363 . S
C4699 H4670 0.950 . S
C4699 C4698 1.397 . S
C4699 C4700 1.334 . S
C4700 H4671 0.950 . S
C4700 C4699 1.334 . S
C4700 C4701 1.287 . S
C4701 C4700 1.287 . S
C4701 C4702 1.524 . S
C4701 H4704 0.999 . S
C4702 H4672 0.950 . S
C4702 C4701 1.524 . S
C4702 C4703 1.415 . S
C4703 H4673 0.950 . S
C4703 C4698 1.363 . S
C4703 C4702 1.415 . S
H4704 C4701 0.999 . S
H4705 C4686 0.913 . S
H4706 C4724 0.951 . S
H4707 C4726 0.951 . S
H4708 C4728 0.950 . S
H4709 C4729 0.950 . S
H4710 C4731 0.950 . S
H4711 C4734 0.950 . S
H4712 C4735 0.950 . S
H4713 C4737 0.950 . S
H4714 C4738 0.950 . S
H4715 C4739 0.951 . S
H4716 C4741 0.951 . S
H4717 C4743 0.950 . S
H4718 C4744 0.950 . S
H4719 C4746 0.950 . S
H4720 C4749 0.950 . S
H4721 C4750 0.950 . S
H4722 C4752 0.950 . S
H4723 C4753 0.950 . S
C4724 H4706 0.951 . S
C4724 C4725 1.366 . S
C4724 C4726 1.388 . S
C4725 C4724 1.366 . S
C4725 C4729 1.385 . S
C4726 H4707 0.951 . S
C4726 C4724 1.388 . S
C4726 C4727 1.366 . S
C4727 C4726 1.366 . S
C4727 C4728 1.414 . S
C4727 C4730 1.499 . S
C4728 H4708 0.950 . S
C4728 C4727 1.414 . S
C4728 C4729 1.374 . S
C4729 H4709 0.950 . S
C4729 C4725 1.385 . S
C4729 C4728 1.374 . S
C4730 C4727 1.499 . S
C4730 C4731 1.373 . S
C4730 C4732 1.389 . S
C4731 H4710 0.950 . S
C4731 C4730 1.373 . S
C4731 C4747 1.377 . S
C4732 C4730 1.389 . S
C4732 C4733 1.524 . S
C4732 C4746 1.377 . S
C4733 C4732 1.524 . S
C4733 C4734 1.397 . S
C4733 C4738 1.363 . S
C4734 H4711 0.950 . S
C4734 C4733 1.397 . S
C4734 C4735 1.334 . S
C4735 H4712 0.950 . S
C4735 C4734 1.334 . S
C4735 C4736 1.287 . S
C4736 C4735 1.287 . S
C4736 C4737 1.524 . S
C4736 H4755 0.913 . S
C4737 H4713 0.950 . S
C4737 C4736 1.524 . S
C4737 C4738 1.415 . S
C4738 H4714 0.950 . S
C4738 C4733 1.363 . S
C4738 C4737 1.415 . S
C4739 H4715 0.951 . S
C4739 C4740 1.366 . S
C4739 C4741 1.388 . S
C4740 C4739 1.366 . S
C4740 C4744 1.385 . S
C4741 H4716 0.951 . S
C4741 C4739 1.388 . S
C4741 C4742 1.366 . S
C4742 C4741 1.366 . S
C4742 C4743 1.414 . S
C4742 C4745 1.499 . S
C4743 H4717 0.950 . S
C4743 C4742 1.414 . S
C4743 C4744 1.374 . S
C4744 H4718 0.950 . S
C4744 C4740 1.385 . S
C4744 C4743 1.374 . S
C4745 C4742 1.499 . S
C4745 C4746 1.373 . S
C4745 C4747 1.389 . S
C4746 H4719 0.950 . S
C4746 C4732 1.377 . S
C4746 C4745 1.373 . S
C4747 C4731 1.377 . S
C4747 C4745 1.389 . S
C4747 C4748 1.524 . S
C4748 C4747 1.524 . S
C4748 C4749 1.397 . S
C4748 C4753 1.363 . S
C4749 H4720 0.950 . S
C4749 C4748 1.397 . S
C4749 C4750 1.334 . S
C4750 H4721 0.950 . S
C4750 C4749 1.334 . S
C4750 C4751 1.287 . S
C4751 C4750 1.287 . S
C4751 C4752 1.524 . S
C4751 H4754 0.999 . S
C4752 H4722 0.950 . S
C4752 C4751 1.524 . S
C4752 C4753 1.415 . S
C4753 H4723 0.950 . S
C4753 C4748 1.363 . S
C4753 C4752 1.415 . S
H4754 C4751 0.999 . S
H4755 C4736 0.913 . S
H4756 C4774 0.951 . S
H4757 C4776 0.951 . S
H4758 C4778 0.950 . S
H4759 C4779 0.950 . S
H4760 C4781 0.950 . S
H4761 C4784 0.950 . S
H4762 C4785 0.950 . S
H4763 C4787 0.950 . S
H4764 C4788 0.950 . S
H4765 C4789 0.951 . S
H4766 C4791 0.951 . S
H4767 C4793 0.983 . S
H4768 C4794 0.992 . S
H4769 C4796 0.950 . S
H4770 C4799 0.950 . S
H4771 C4800 0.950 . S
H4772 C4802 0.950 . S
H4773 C4803 0.950 . S
C4774 H4756 0.951 . S
C4774 C4775 1.366 . S
C4774 C4776 1.388 . S
C4775 C4774 1.366 . S
C4775 C4779 1.385 . S
C4776 H4757 0.951 . S
C4776 C4774 1.388 . S
C4776 C4777 1.366 . S
C4777 C4776 1.366 . S
C4777 C4778 1.414 . S
C4777 C4780 1.499 . S
C4778 H4758 0.950 . S
C4778 C4777 1.414 . S
C4778 C4779 1.374 . S
C4779 H4759 0.950 . S
C4779 C4775 1.385 . S
C4779 C4778 1.374 . S
C4780 C4777 1.499 . S
C4780 C4781 1.373 . S
C4780 C4782 1.389 . S
C4781 H4760 0.950 . S
C4781 C4780 1.373 . S
C4781 C4797 1.377 . S
C4782 C4780 1.389 . S
C4782 C4783 1.524 . S
C4782 C4796 1.377 . S
C4783 C4782 1.524 . S
C4783 C4784 1.397 . S
C4783 C4788 1.363 . S
C4784 H4761 0.950 . S
C4784 C4783 1.397 . S
C4784 C4785 1.334 . S
C4785 H4762 0.950 . S
C4785 C4784 1.334 . S
C4785 C4786 1.287 . S
C4786 C4785 1.287 . S
C4786 C4787 1.524 . S
C4786 H4805 0.913 . S
C4787 H4763 0.950 . S
C4787 C4786 1.524 . S
C4787 C4788 1.415 . S
C4788 H4764 0.950 . S
C4788 C4783 1.363 . S
C4788 C4787 1.415 . S
C4789 H4765 0.951 . S
C4789 C4790 1.366 . S
C4789 C4791 1.388 . S
C4790 C4789 1.366 . S
C4790 C4794 1.359 1_655 S
C4791 H4766 0.951 . S
C4791 C4789 1.388 . S
C4791 C4792 1.366 . S
C4792 C4791 1.366 . S
C4792 C4793 1.414 . S
C4792 C4795 1.499 . S
C4793 H4767 0.983 . S
C4793 C4792 1.414 . S
C4793 C4794 1.359 1_655 S
C4794 H4768 0.992 . S
C4794 C4790 1.359 1_455 S
C4794 C4793 1.359 1_455 S
C4795 C4792 1.499 . S
C4795 C4796 1.373 . S
C4795 C4797 1.389 . S
C4796 H4769 0.950 . S
C4796 C4782 1.377 . S
C4796 C4795 1.373 . S
C4797 C4781 1.377 . S
C4797 C4795 1.389 . S
C4797 C4798 1.524 . S
C4798 C4797 1.524 . S
C4798 C4799 1.397 . S
C4798 C4803 1.363 . S
C4799 H4770 0.950 . S
C4799 C4798 1.397 . S
C4799 C4800 1.334 . S
C4800 H4771 0.950 . S
C4800 C4799 1.334 . S
C4800 C4801 1.287 . S
C4801 C4800 1.287 . S
C4801 C4802 1.524 . S
C4801 H4804 0.999 . S
C4802 H4772 0.950 . S
C4802 C4801 1.524 . S
C4802 C4803 1.415 . S
C4803 H4773 0.950 . S
C4803 C4798 1.363 . S
C4803 C4802 1.415 . S
H4804 C4801 0.999 . S
H4805 C4786 0.913 . S
H4806 C4824 0.951 . S
H4807 C4826 0.951 . S
H4808 C4828 0.950 . S
H4809 C4829 0.950 . S
H4810 C4831 0.950 . S
H4811 C4834 0.950 . S
H4812 C4835 0.950 . S
H4813 C4837 0.950 . S
H4814 C4838 0.950 . S
H4815 C4839 0.951 . S
H4816 C4841 0.951 . S
H4817 C4843 0.950 . S
H4818 C4844 0.950 . S
H4819 C4846 0.950 . S
H4820 C4849 0.950 . S
H4821 C4850 0.950 . S
H4822 C4852 0.950 . S
H4823 C4853 0.950 . S
C4824 H4806 0.951 . S
C4824 C4825 1.366 . S
C4824 C4826 1.388 . S
C4825 C4824 1.366 . S
C4825 C4829 1.385 . S
C4826 H4807 0.951 . S
C4826 C4824 1.388 . S
C4826 C4827 1.366 . S
C4827 C4826 1.366 . S
C4827 C4828 1.414 . S
C4827 C4830 1.499 . S
C4828 H4808 0.950 . S
C4828 C4827 1.414 . S
C4828 C4829 1.374 . S
C4829 H4809 0.950 . S
C4829 C4825 1.385 . S
C4829 C4828 1.374 . S
C4830 C4827 1.499 . S
C4830 C4831 1.373 . S
C4830 C4832 1.389 . S
C4831 H4810 0.950 . S
C4831 C4830 1.373 . S
C4831 C4847 1.377 . S
C4832 C4830 1.389 . S
C4832 C4833 1.524 . S
C4832 C4846 1.377 . S
C4833 C4832 1.524 . S
C4833 C4834 1.397 . S
C4833 C4838 1.363 . S
C4834 H4811 0.950 . S
C4834 C4833 1.397 . S
C4834 C4835 1.334 . S
C4835 H4812 0.950 . S
C4835 C4834 1.334 . S
C4835 C4836 1.287 . S
C4836 C4835 1.287 . S
C4836 C4837 1.524 . S
C4836 H4855 0.913 . S
C4837 H4813 0.950 . S
C4837 C4836 1.524 . S
C4837 C4838 1.415 . S
C4838 H4814 0.950 . S
C4838 C4833 1.363 . S
C4838 C4837 1.415 . S
C4839 H4815 0.951 . S
C4839 C4840 1.366 . S
C4839 C4841 1.388 . S
C4840 C4839 1.366 . S
C4840 C4844 1.385 . S
C4841 H4816 0.951 . S
C4841 C4839 1.388 . S
C4841 C4842 1.366 . S
C4842 C4841 1.366 . S
C4842 C4843 1.414 . S
C4842 C4845 1.499 . S
C4843 H4817 0.950 . S
C4843 C4842 1.414 . S
C4843 C4844 1.374 . S
C4844 H4818 0.950 . S
C4844 C4840 1.385 . S
C4844 C4843 1.374 . S
C4845 C4842 1.499 . S
C4845 C4846 1.373 . S
C4845 C4847 1.389 . S
C4846 H4819 0.950 . S
C4846 C4832 1.377 . S
C4846 C4845 1.373 . S
C4847 C4831 1.377 . S
C4847 C4845 1.389 . S
C4847 C4848 1.524 . S
C4848 C4847 1.524 . S
C4848 C4849 1.397 . S
C4848 C4853 1.363 . S
C4849 H4820 0.950 . S
C4849 C4848 1.397 . S
C4849 C4850 1.334 . S
C4850 H4821 0.950 . S
C4850 C4849 1.334 . S
C4850 C4851 1.287 . S
C4851 C4850 1.287 . S
C4851 C4852 1.524 . S
C4851 H4854 0.999 . S
C4852 H4822 0.950 . S
C4852 C4851 1.524 . S
C4852 C4853 1.415 . S
C4853 H4823 0.950 . S
C4853 C4848 1.363 . S
C4853 C4852 1.415 . S
H4854 C4851 0.999 . S
H4855 C4836 0.913 . S
H4856 C4874 0.951 . S
H4857 C4876 0.951 . S
H4858 C4878 0.950 . S
H4859 C4879 0.950 . S
H4860 C4881 0.950 . S
H4861 C4884 0.950 . S
H4862 C4885 0.950 . S
H4863 C4887 0.950 . S
H4864 C4888 0.950 . S
H4865 C4889 0.951 . S
H4866 C4891 0.951 . S
H4867 C4893 0.950 . S
H4868 C4894 0.950 . S
H4869 C4896 0.950 . S
H4870 C4899 0.950 . S
H4871 C4900 0.950 . S
H4872 C4902 0.950 . S
H4873 C4903 0.950 . S
C4874 H4856 0.951 . S
C4874 C4875 1.366 . S
C4874 C4876 1.388 . S
C4875 C4874 1.366 . S
C4875 C4879 1.385 . S
C4876 H4857 0.951 . S
C4876 C4874 1.388 . S
C4876 C4877 1.366 . S
C4877 C4876 1.366 . S
C4877 C4878 1.414 . S
C4877 C4880 1.499 . S
C4878 H4858 0.950 . S
C4878 C4877 1.414 . S
C4878 C4879 1.374 . S
C4879 H4859 0.950 . S
C4879 C4875 1.385 . S
C4879 C4878 1.374 . S
C4880 C4877 1.499 . S
C4880 C4881 1.373 . S
C4880 C4882 1.389 . S
C4881 H4860 0.950 . S
C4881 C4880 1.373 . S
C4881 C4897 1.377 . S
C4882 C4880 1.389 . S
C4882 C4883 1.524 . S
C4882 C4896 1.377 . S
C4883 C4882 1.524 . S
C4883 C4884 1.397 . S
C4883 C4888 1.363 . S
C4884 H4861 0.950 . S
C4884 C4883 1.397 . S
C4884 C4885 1.334 . S
C4885 H4862 0.950 . S
C4885 C4884 1.334 . S
C4885 C4886 1.287 . S
C4886 C4885 1.287 . S
C4886 C4887 1.524 . S
C4886 H4905 0.913 . S
C4887 H4863 0.950 . S
C4887 C4886 1.524 . S
C4887 C4888 1.415 . S
C4888 H4864 0.950 . S
C4888 C4883 1.363 . S
C4888 C4887 1.415 . S
C4889 H4865 0.951 . S
C4889 C4890 1.366 . S
C4889 C4891 1.388 . S
C4890 C4889 1.366 . S
C4890 C4894 1.385 . S
C4891 H4866 0.951 . S
C4891 C4889 1.388 . S
C4891 C4892 1.366 . S
C4892 C4891 1.366 . S
C4892 C4893 1.414 . S
C4892 C4895 1.499 . S
C4893 H4867 0.950 . S
C4893 C4892 1.414 . S
C4893 C4894 1.374 . S
C4894 H4868 0.950 . S
C4894 C4890 1.385 . S
C4894 C4893 1.374 . S
C4895 C4892 1.499 . S
C4895 C4896 1.373 . S
C4895 C4897 1.389 . S
C4896 H4869 0.950 . S
C4896 C4882 1.377 . S
C4896 C4895 1.373 . S
C4897 C4881 1.377 . S
C4897 C4895 1.389 . S
C4897 C4898 1.524 . S
C4898 C4897 1.524 . S
C4898 C4899 1.397 . S
C4898 C4903 1.363 . S
C4899 H4870 0.950 . S
C4899 C4898 1.397 . S
C4899 C4900 1.334 . S
C4900 H4871 0.950 . S
C4900 C4899 1.334 . S
C4900 C4901 1.287 . S
C4901 C4900 1.287 . S
C4901 C4902 1.524 . S
C4901 H4904 0.999 . S
C4902 H4872 0.950 . S
C4902 C4901 1.524 . S
C4902 C4903 1.415 . S
C4903 H4873 0.950 . S
C4903 C4898 1.363 . S
C4903 C4902 1.415 . S
H4904 C4901 0.999 . S
H4905 C4886 0.913 . S
H4906 C4924 0.951 . S
H4907 C4926 0.951 . S
H4908 C4928 0.950 . S
H4909 C4929 0.950 . S
H4910 C4931 0.950 . S
H4911 C4934 0.950 . S
H4912 C4935 0.950 . S
H4913 C4937 0.950 . S
H4914 C4938 0.950 . S
H4915 C4939 0.951 . S
H4916 C4941 0.951 . S
H4917 C4943 0.950 . S
H4918 C4944 0.950 . S
H4919 C4946 0.950 . S
H4920 C4949 0.950 . S
H4921 C4950 0.950 . S
H4922 C4952 0.950 . S
H4923 C4953 0.950 . S
C4924 H4906 0.951 . S
C4924 C4925 1.366 . S
C4924 C4926 1.388 . S
C4925 C4924 1.366 . S
C4925 C4929 1.385 . S
C4926 H4907 0.951 . S
C4926 C4924 1.388 . S
C4926 C4927 1.366 . S
C4927 C4926 1.366 . S
C4927 C4928 1.414 . S
C4927 C4930 1.499 . S
C4928 H4908 0.950 . S
C4928 C4927 1.414 . S
C4928 C4929 1.374 . S
C4929 H4909 0.950 . S
C4929 C4925 1.385 . S
C4929 C4928 1.374 . S
C4930 C4927 1.499 . S
C4930 C4931 1.373 . S
C4930 C4932 1.389 . S
C4931 H4910 0.950 . S
C4931 C4930 1.373 . S
C4931 C4947 1.377 . S
C4932 C4930 1.389 . S
C4932 C4933 1.524 . S
C4932 C4946 1.377 . S
C4933 C4932 1.524 . S
C4933 C4934 1.397 . S
C4933 C4938 1.363 . S
C4934 H4911 0.950 . S
C4934 C4933 1.397 . S
C4934 C4935 1.334 . S
C4935 H4912 0.950 . S
C4935 C4934 1.334 . S
C4935 C4936 1.287 . S
C4936 C4935 1.287 . S
C4936 C4937 1.524 . S
C4936 H4955 0.913 . S
C4937 H4913 0.950 . S
C4937 C4936 1.524 . S
C4937 C4938 1.415 . S
C4938 H4914 0.950 . S
C4938 C4933 1.363 . S
C4938 C4937 1.415 . S
C4939 H4915 0.951 . S
C4939 C4940 1.366 . S
C4939 C4941 1.388 . S
C4940 C4939 1.366 . S
C4940 C4944 1.385 . S
C4941 H4916 0.951 . S
C4941 C4939 1.388 . S
C4941 C4942 1.366 . S
C4942 C4941 1.366 . S
C4942 C4943 1.414 . S
C4942 C4945 1.499 . S
C4943 H4917 0.950 . S
C4943 C4942 1.414 . S
C4943 C4944 1.374 . S
C4944 H4918 0.950 . S
C4944 C4940 1.385 . S
C4944 C4943 1.374 . S
C4945 C4942 1.499 . S
C4945 C4946 1.373 . S
C4945 C4947 1.389 . S
C4946 H4919 0.950 . S
C4946 C4932 1.377 . S
C4946 C4945 1.373 . S
C4947 C4931 1.377 . S
C4947 C4945 1.389 . S
C4947 C4948 1.524 . S
C4948 C4947 1.524 . S
C4948 C4949 1.397 . S
C4948 C4953 1.363 . S
C4949 H4920 0.950 . S
C4949 C4948 1.397 . S
C4949 C4950 1.334 . S
C4950 H4921 0.950 . S
C4950 C4949 1.334 . S
C4950 C4951 1.287 . S
C4951 C4950 1.287 . S
C4951 C4952 1.524 . S
C4951 H4954 0.999 . S
C4952 H4922 0.950 . S
C4952 C4951 1.524 . S
C4952 C4953 1.415 . S
C4953 H4923 0.950 . S
C4953 C4948 1.363 . S
C4953 C4952 1.415 . S
H4954 C4951 0.999 . S
H4955 C4936 0.913 . S
H4956 C4974 0.951 . S
H4957 C4976 0.951 . S
H4958 C4978 0.950 . S
H4959 C4979 0.950 . S
H4960 C4981 0.950 . S
H4961 C4984 0.950 . S
H4962 C4985 0.950 . S
H4963 C4987 0.950 . S
H4964 C4988 0.950 . S
H4965 C4989 0.951 1_455 S
H4966 C4991 0.951 . S
H4967 C4993 0.950 . S
H4968 C4994 0.950 . S
H4969 C4996 0.950 . S
H4970 C4999 0.950 . S
H4971 C5000 0.950 . S
H4972 C5002 0.950 . S
H4973 C5003 0.950 1_655 S
C4974 H4956 0.951 . S
C4974 C4975 1.366 . S
C4974 C4976 1.388 . S
C4975 C4974 1.366 . S
C4975 C4979 1.385 . S
C4976 H4957 0.951 . S
C4976 C4974 1.388 . S
C4976 C4977 1.366 . S
C4977 C4976 1.366 . S
C4977 C4978 1.414 . S
C4977 C4980 1.499 . S
C4978 H4958 0.950 . S
C4978 C4977 1.414 . S
C4978 C4979 1.374 . S
C4979 H4959 0.950 . S
C4979 C4975 1.385 . S
C4979 C4978 1.374 . S
C4980 C4977 1.499 . S
C4980 C4981 1.373 . S
C4980 C4982 1.389 . S
C4981 H4960 0.950 . S
C4981 C4980 1.373 . S
C4981 C4997 1.377 . S
C4982 C4980 1.389 . S
C4982 C4983 1.524 . S
C4982 C4996 1.377 . S
C4983 C4982 1.524 . S
C4983 C4984 1.397 . S
C4983 C4988 1.363 . S
C4984 H4961 0.950 . S
C4984 C4983 1.397 . S
C4984 C4985 1.334 . S
C4985 H4962 0.950 . S
C4985 C4984 1.334 . S
C4985 C4986 1.287 . S
C4986 C4985 1.287 . S
C4986 C4987 1.524 . S
C4986 H5005 0.913 . S
C4987 H4963 0.950 . S
C4987 C4986 1.524 . S
C4987 C4988 1.415 . S
C4988 H4964 0.950 . S
C4988 C4983 1.363 . S
C4988 C4987 1.415 . S
C4989 H4965 0.951 1_655 S
C4989 C4990 1.366 . S
C4989 C4991 1.388 . S
C4990 C4989 1.366 . S
C4990 C4994 1.385 . S
C4991 H4966 0.951 . S
C4991 C4989 1.388 . S
C4991 C4992 1.366 . S
C4992 C4991 1.366 . S
C4992 C4993 1.414 . S
C4992 C4995 1.499 . S
C4993 H4967 0.950 . S
C4993 C4992 1.414 . S
C4993 C4994 1.374 . S
C4994 H4968 0.950 . S
C4994 C4990 1.385 . S
C4994 C4993 1.374 . S
C4995 C4992 1.499 . S
C4995 C4996 1.373 . S
C4995 C4997 1.389 . S
C4996 H4969 0.950 . S
C4996 C4982 1.377 . S
C4996 C4995 1.373 . S
C4997 C4981 1.377 . S
C4997 C4995 1.389 . S
C4997 C4998 1.524 . S
C4998 C4997 1.524 . S
C4998 C4999 1.397 . S
C4998 C5003 1.363 1_655 S
C4999 H4970 0.950 . S
C4999 C4998 1.397 . S
C4999 C5000 1.334 1_655 S
C5000 H4971 0.950 . S
C5000 C4999 1.334 1_455 S
C5000 C5001 1.287 . S
C5001 C5000 1.287 . S
C5001 C5002 1.524 . S
C5001 H5004 0.999 . S
C5002 H4972 0.950 . S
C5002 C5001 1.524 . S
C5002 C5003 1.415 . S
C5003 H4973 0.950 1_455 S
C5003 C4998 1.363 1_455 S
C5003 C5002 1.415 . S
H5004 C5001 0.999 . S
H5005 C4986 0.913 . S
H5006 C5024 0.951 . S
H5007 C5026 0.951 . S
H5008 C5028 0.950 . S
H5009 C5029 0.950 . S
H5010 C5031 0.950 . S
H5011 C5034 0.950 . S
H5012 C5035 0.950 . S
H5013 C5037 0.950 . S
H5014 C5038 0.950 . S
H5015 C5039 0.951 . S
H5016 C5041 0.951 . S
H5017 C5043 0.950 . S
H5018 C5044 0.950 . S
H5019 C5046 0.950 . S
H5020 C5049 0.950 . S
H5021 C5050 0.950 . S
H5022 C5052 0.950 . S
H5023 C5053 0.950 . S
C5024 H5006 0.951 . S
C5024 C5025 1.366 . S
C5024 C5026 1.388 . S
C5025 C5024 1.366 . S
C5025 C5029 1.385 . S
C5026 H5007 0.951 . S
C5026 C5024 1.388 . S
C5026 C5027 1.366 . S
C5027 C5026 1.366 . S
C5027 C5028 1.414 . S
C5027 C5030 1.499 . S
C5028 H5008 0.950 . S
C5028 C5027 1.414 . S
C5028 C5029 1.374 . S
C5029 H5009 0.950 . S
C5029 C5025 1.385 . S
C5029 C5028 1.374 . S
C5030 C5027 1.499 . S
C5030 C5031 1.373 . S
C5030 C5032 1.389 . S
C5031 H5010 0.950 . S
C5031 C5030 1.373 . S
C5031 C5047 1.377 . S
C5032 C5030 1.389 . S
C5032 C5033 1.524 . S
C5032 C5046 1.377 . S
C5033 C5032 1.524 . S
C5033 C5034 1.397 . S
C5033 C5038 1.363 . S
C5034 H5011 0.950 . S
C5034 C5033 1.397 . S
C5034 C5035 1.334 . S
C5035 H5012 0.950 . S
C5035 C5034 1.334 . S
C5035 C5036 1.287 . S
C5036 C5035 1.287 . S
C5036 C5037 1.524 . S
C5036 H5055 0.913 . S
C5037 H5013 0.950 . S
C5037 C5036 1.524 . S
C5037 C5038 1.415 . S
C5038 H5014 0.950 . S
C5038 C5033 1.363 . S
C5038 C5037 1.415 . S
C5039 H5015 0.951 . S
C5039 C5040 1.366 . S
C5039 C5041 1.388 . S
C5040 C5039 1.366 . S
C5040 C5044 1.385 . S
C5041 H5016 0.951 . S
C5041 C5039 1.388 . S
C5041 C5042 1.366 . S
C5042 C5041 1.366 . S
C5042 C5043 1.414 . S
C5042 C5045 1.499 . S
C5043 H5017 0.950 . S
C5043 C5042 1.414 . S
C5043 C5044 1.374 . S
C5044 H5018 0.950 . S
C5044 C5040 1.385 . S
C5044 C5043 1.374 . S
C5045 C5042 1.499 . S
C5045 C5046 1.373 . S
C5045 C5047 1.389 . S
C5046 H5019 0.950 . S
C5046 C5032 1.377 . S
C5046 C5045 1.373 . S
C5047 C5031 1.377 . S
C5047 C5045 1.389 . S
C5047 C5048 1.524 . S
C5048 C5047 1.524 . S
C5048 C5049 1.397 . S
C5048 C5053 1.363 . S
C5049 H5020 0.950 . S
C5049 C5048 1.397 . S
C5049 C5050 1.334 . S
C5050 H5021 0.950 . S
C5050 C5049 1.334 . S
C5050 C5051 1.287 . S
C5051 C5050 1.287 . S
C5051 C5052 1.524 . S
C5051 H5054 0.999 . S
C5052 H5022 0.950 . S
C5052 C5051 1.524 . S
C5052 C5053 1.415 . S
C5053 H5023 0.950 . S
C5053 C5048 1.363 . S
C5053 C5052 1.415 . S
H5054 C5051 0.999 . S
H5055 C5036 0.913 . S
H5056 C5074 0.951 . S
H5057 C5076 0.951 . S
H5058 C5078 0.950 . S
H5059 C5079 0.950 . S
H5060 C5081 0.950 . S
H5061 C5084 0.950 . S
H5062 C5085 0.950 . S
H5063 C5087 0.950 . S
H5064 C5088 0.950 . S
H5065 C5089 0.951 . S
H5066 C5091 0.951 . S
H5067 C5093 0.950 . S
H5068 C5094 0.950 . S
H5069 C5096 0.950 . S
H5070 C5099 0.950 . S
H5071 C5100 0.950 . S
H5072 C5102 0.950 . S
H5073 C5103 0.950 . S
C5074 H5056 0.951 . S
C5074 C5075 1.366 . S
C5074 C5076 1.388 . S
C5075 C5074 1.366 . S
C5075 C5079 1.385 . S
C5076 H5057 0.951 . S
C5076 C5074 1.388 . S
C5076 C5077 1.366 . S
C5077 C5076 1.366 . S
C5077 C5078 1.414 . S
C5077 C5080 1.499 . S
C5078 H5058 0.950 . S
C5078 C5077 1.414 . S
C5078 C5079 1.374 . S
C5079 H5059 0.950 . S
C5079 C5075 1.385 . S
C5079 C5078 1.374 . S
C5080 C5077 1.499 . S
C5080 C5081 1.373 . S
C5080 C5082 1.389 . S
C5081 H5060 0.950 . S
C5081 C5080 1.373 . S
C5081 C5097 1.377 . S
C5082 C5080 1.389 . S
C5082 C5083 1.524 . S
C5082 C5096 1.377 . S
C5083 C5082 1.524 . S
C5083 C5084 1.397 . S
C5083 C5088 1.363 . S
C5084 H5061 0.950 . S
C5084 C5083 1.397 . S
C5084 C5085 1.334 . S
C5085 H5062 0.950 . S
C5085 C5084 1.334 . S
C5085 C5086 1.287 . S
C5086 C5085 1.287 . S
C5086 C5087 1.524 . S
C5086 H5105 0.913 . S
C5087 H5063 0.950 . S
C5087 C5086 1.524 . S
C5087 C5088 1.415 . S
C5088 H5064 0.950 . S
C5088 C5083 1.363 . S
C5088 C5087 1.415 . S
C5089 H5065 0.951 . S
C5089 C5090 1.366 . S
C5089 C5091 1.388 . S
C5090 C5089 1.366 . S
C5090 C5094 1.385 . S
C5091 H5066 0.951 . S
C5091 C5089 1.388 . S
C5091 C5092 1.366 . S
C5092 C5091 1.366 . S
C5092 C5093 1.414 . S
C5092 C5095 1.499 . S
C5093 H5067 0.950 . S
C5093 C5092 1.414 . S
C5093 C5094 1.374 . S
C5094 H5068 0.950 . S
C5094 C5090 1.385 . S
C5094 C5093 1.374 . S
C5095 C5092 1.499 . S
C5095 C5096 1.373 . S
C5095 C5097 1.389 . S
C5096 H5069 0.950 . S
C5096 C5082 1.377 . S
C5096 C5095 1.373 . S
C5097 C5081 1.377 . S
C5097 C5095 1.389 . S
C5097 C5098 1.524 . S
C5098 C5097 1.524 . S
C5098 C5099 1.397 . S
C5098 C5103 1.363 . S
C5099 H5070 0.950 . S
C5099 C5098 1.397 . S
C5099 C5100 1.334 . S
C5100 H5071 0.950 . S
C5100 C5099 1.334 . S
C5100 C5101 1.287 . S
C5101 C5100 1.287 . S
C5101 C5102 1.524 . S
C5101 H5104 0.999 . S
C5102 H5072 0.950 . S
C5102 C5101 1.524 . S
C5102 C5103 1.415 . S
C5103 H5073 0.950 . S
C5103 C5098 1.363 . S
C5103 C5102 1.415 . S
H5104 C5101 0.999 . S
H5105 C5086 0.913 . S
H5106 C5124 0.951 . S
H5107 C5126 0.951 . S
H5108 C5128 0.950 . S
H5109 C5129 0.950 . S
H5110 C5131 0.950 . S
H5111 C5134 0.950 . S
H5112 C5135 0.950 . S
H5113 C5137 0.950 . S
H5114 C5138 0.950 . S
H5115 C5139 0.951 . S
H5116 C5141 0.951 1_545 S
H5117 C5143 0.950 . S
H5118 C5144 0.950 . S
H5119 C5146 0.950 . S
H5120 C5149 0.950 . S
H5121 C5150 0.950 . S
H5122 C5152 0.950 . S
H5123 C5153 0.950 . S
C5124 H5106 0.951 . S
C5124 C5125 1.366 . S
C5124 C5126 1.388 . S
C5125 C5124 1.366 . S
C5125 C5129 1.385 . S
C5126 H5107 0.951 . S
C5126 C5124 1.388 . S
C5126 C5127 1.366 . S
C5127 C5126 1.366 . S
C5127 C5128 1.414 . S
C5127 C5130 1.499 . S
C5128 H5108 0.950 . S
C5128 C5127 1.414 . S
C5128 C5129 1.374 . S
C5129 H5109 0.950 . S
C5129 C5125 1.385 . S
C5129 C5128 1.374 . S
C5130 C5127 1.499 . S
C5130 C5131 1.373 . S
C5130 C5132 1.389 . S
C5131 H5110 0.950 . S
C5131 C5130 1.373 . S
C5131 C5147 1.377 . S
C5132 C5130 1.389 . S
C5132 C5133 1.524 . S
C5132 C5146 1.377 . S
C5133 C5132 1.524 . S
C5133 C5134 1.397 . S
C5133 C5138 1.363 . S
C5134 H5111 0.950 . S
C5134 C5133 1.397 . S
C5134 C5135 1.334 . S
C5135 H5112 0.950 . S
C5135 C5134 1.334 . S
C5135 C5136 1.287 . S
C5136 C5135 1.287 . S
C5136 C5137 1.524 . S
C5136 H5155 0.913 . S
C5137 H5113 0.950 . S
C5137 C5136 1.524 . S
C5137 C5138 1.415 . S
C5138 H5114 0.950 . S
C5138 C5133 1.363 . S
C5138 C5137 1.415 . S
C5139 H5115 0.951 . S
C5139 C5140 1.369 1_545 S
C5139 C5141 1.388 1_545 S
C5140 C5139 1.369 1_565 S
C5140 C5144 1.379 . S
C5141 H5116 0.951 1_565 S
C5141 C5139 1.388 1_565 S
C5141 C5142 1.366 . S
C5142 C5141 1.366 . S
C5142 C5143 1.414 . S
C5142 C5145 1.499 . S
C5143 H5117 0.950 . S
C5143 C5142 1.414 . S
C5143 C5144 1.374 . S
C5144 H5118 0.950 . S
C5144 C5140 1.379 . S
C5144 C5143 1.374 . S
C5145 C5142 1.499 . S
C5145 C5146 1.373 . S
C5145 C5147 1.389 . S
C5146 H5119 0.950 . S
C5146 C5132 1.377 . S
C5146 C5145 1.373 . S
C5147 C5131 1.377 . S
C5147 C5145 1.389 . S
C5147 C5148 1.524 . S
C5148 C5147 1.524 . S
C5148 C5149 1.397 . S
C5148 C5153 1.363 . S
C5149 H5120 0.950 . S
C5149 C5148 1.397 . S
C5149 C5150 1.334 . S
C5150 H5121 0.950 . S
C5150 C5149 1.334 . S
C5150 C5151 1.287 . S
C5151 C5150 1.287 . S
C5151 C5152 1.524 . S
C5151 H5154 0.999 . S
C5152 H5122 0.950 . S
C5152 C5151 1.524 . S
C5152 C5153 1.415 . S
C5153 H5123 0.950 . S
C5153 C5148 1.363 . S
C5153 C5152 1.415 . S
H5154 C5151 0.999 . S
H5155 C5136 0.913 . S
H5156 C5174 0.951 . S
H5157 C5176 0.951 . S
H5158 C5178 0.950 . S
H5159 C5179 0.950 . S
H5160 C5181 0.950 . S
H5161 C5184 0.950 . S
H5162 C5185 0.950 . S
H5163 C5187 0.950 . S
H5164 C5188 0.950 . S
H5165 C5189 0.951 . S
H5166 C5191 0.951 . S
H5167 C5193 0.950 . S
H5168 C5194 0.950 . S
H5169 C5196 0.950 . S
H5170 C5199 0.950 . S
H5171 C5200 0.950 . S
H5172 C5202 0.950 . S
H5173 C5203 0.950 . S
C5174 H5156 0.951 . S
C5174 C5175 1.366 . S
C5174 C5176 1.388 . S
C5175 C5174 1.366 . S
C5175 C5179 1.385 . S
C5176 H5157 0.951 . S
C5176 C5174 1.388 . S
C5176 C5177 1.366 . S
C5177 C5176 1.366 . S
C5177 C5178 1.414 . S
C5177 C5180 1.499 . S
C5178 H5158 0.950 . S
C5178 C5177 1.414 . S
C5178 C5179 1.374 . S
C5179 H5159 0.950 . S
C5179 C5175 1.385 . S
C5179 C5178 1.374 . S
C5180 C5177 1.499 . S
C5180 C5181 1.373 . S
C5180 C5182 1.389 . S
C5181 H5160 0.950 . S
C5181 C5180 1.373 . S
C5181 C5197 1.377 . S
C5182 C5180 1.389 . S
C5182 C5183 1.524 . S
C5182 C5196 1.377 . S
C5183 C5182 1.524 . S
C5183 C5184 1.397 . S
C5183 C5188 1.363 . S
C5184 H5161 0.950 . S
C5184 C5183 1.397 . S
C5184 C5185 1.334 . S
C5185 H5162 0.950 . S
C5185 C5184 1.334 . S
C5185 C5186 1.287 . S
C5186 C5185 1.287 . S
C5186 C5187 1.524 . S
C5186 H5205 0.913 . S
C5187 H5163 0.950 . S
C5187 C5186 1.524 . S
C5187 C5188 1.415 . S
C5188 H5164 0.950 . S
C5188 C5183 1.363 . S
C5188 C5187 1.415 . S
C5189 H5165 0.951 . S
C5189 C5190 1.366 . S
C5189 C5191 1.388 . S
C5190 C5189 1.366 . S
C5190 C5194 1.385 . S
C5191 H5166 0.951 . S
C5191 C5189 1.388 . S
C5191 C5192 1.366 . S
C5192 C5191 1.366 . S
C5192 C5193 1.414 . S
C5192 C5195 1.499 . S
C5193 H5167 0.950 . S
C5193 C5192 1.414 . S
C5193 C5194 1.374 . S
C5194 H5168 0.950 . S
C5194 C5190 1.385 . S
C5194 C5193 1.374 . S
C5195 C5192 1.499 . S
C5195 C5196 1.373 . S
C5195 C5197 1.389 . S
C5196 H5169 0.950 . S
C5196 C5182 1.377 . S
C5196 C5195 1.373 . S
C5197 C5181 1.377 . S
C5197 C5195 1.389 . S
C5197 C5198 1.524 . S
C5198 C5197 1.524 . S
C5198 C5199 1.397 . S
C5198 C5203 1.363 . S
C5199 H5170 0.950 . S
C5199 C5198 1.397 . S
C5199 C5200 1.334 . S
C5200 H5171 0.950 . S
C5200 C5199 1.334 . S
C5200 C5201 1.287 . S
C5201 C5200 1.287 . S
C5201 C5202 1.524 . S
C5201 H5204 0.999 . S
C5202 H5172 0.950 . S
C5202 C5201 1.524 . S
C5202 C5203 1.415 . S
C5203 H5173 0.950 . S
C5203 C5198 1.363 . S
C5203 C5202 1.415 . S
H5204 C5201 0.999 . S
H5205 C5186 0.913 . S
H5206 C5224 0.951 . S
H5207 C5226 0.951 . S
H5208 C5228 0.950 . S
H5209 C5229 0.950 . S
H5210 C5231 0.950 . S
H5211 C5234 0.950 . S
H5212 C5235 0.950 . S
H5213 C5237 0.950 . S
H5214 C5238 0.950 . S
H5215 C5239 0.951 . S
H5216 C5241 0.951 . S
H5217 C5243 0.956 . S
H5218 C5244 0.950 1_556 S
H5219 C5246 0.950 . S
H5220 C5249 0.950 . S
H5221 C5250 0.950 . S
H5222 C5252 0.950 . S
H5223 C5253 0.950 . S
C5224 H5206 0.951 . S
C5224 C5225 1.366 . S
C5224 C5226 1.388 . S
C5225 C5224 1.366 . S
C5225 C5229 1.385 1_556 S
C5226 H5207 0.951 . S
C5226 C5224 1.388 . S
C5226 C5227 1.366 1_556 S
C5227 C5226 1.366 1_554 S
C5227 C5228 1.414 . S
C5227 C5230 1.498 . S
C5228 H5208 0.950 . S
C5228 C5227 1.414 . S
C5228 C5229 1.374 . S
C5229 H5209 0.950 . S
C5229 C5225 1.385 1_554 S
C5229 C5228 1.374 . S
C5230 C5227 1.498 . S
C5230 C5231 1.373 1_554 S
C5230 C5232 1.389 . S
C5231 H5210 0.950 . S
C5231 C5230 1.373 1_556 S
C5231 C5247 1.377 . S
C5232 C5230 1.389 . S
C5232 C5233 1.524 . S
C5232 C5246 1.377 . S
C5233 C5232 1.524 . S
C5233 C5234 1.397 . S
C5233 C5238 1.363 . S
C5234 H5211 0.950 . S
C5234 C5233 1.397 . S
C5234 C5235 1.334 . S
C5235 H5212 0.950 . S
C5235 C5234 1.334 . S
C5235 C5236 1.287 . S
C5236 C5235 1.287 . S
C5236 C5237 1.524 . S
C5236 H5255 0.913 . S
C5237 H5213 0.950 . S
C5237 C5236 1.524 . S
C5237 C5238 1.415 . S
C5238 H5214 0.950 . S
C5238 C5233 1.363 . S
C5238 C5237 1.415 . S
C5239 H5215 0.951 . S
C5239 C5240 1.366 . S
C5239 C5241 1.388 . S
C5240 C5239 1.366 . S
C5240 C5244 1.385 . S
C5241 H5216 0.951 . S
C5241 C5239 1.388 . S
C5241 C5242 1.366 . S
C5242 C5241 1.366 . S
C5242 C5243 1.412 1_554 S
C5242 C5245 1.499 . S
C5243 H5217 0.956 . S
C5243 C5242 1.412 1_556 S
C5243 C5244 1.371 1_556 S
C5244 H5218 0.950 1_554 S
C5244 C5240 1.385 . S
C5244 C5243 1.371 1_554 S
C5245 C5242 1.499 . S
C5245 C5246 1.373 . S
C5245 C5247 1.389 1_554 S
C5246 H5219 0.950 . S
C5246 C5232 1.377 . S
C5246 C5245 1.373 . S
C5247 C5231 1.377 . S
C5247 C5245 1.389 1_556 S
C5247 C5248 1.524 . S
C5248 C5247 1.524 . S
C5248 C5249 1.397 . S
C5248 C5253 1.363 . S
C5249 H5220 0.950 . S
C5249 C5248 1.397 . S
C5249 C5250 1.334 . S
C5250 H5221 0.950 . S
C5250 C5249 1.334 . S
C5250 C5251 1.287 . S
C5251 C5250 1.287 . S
C5251 C5252 1.524 . S
C5251 H5254 0.999 . S
C5252 H5222 0.950 . S
C5252 C5251 1.524 . S
C5252 C5253 1.415 . S
C5253 H5223 0.950 . S
C5253 C5248 1.363 . S
C5253 C5252 1.415 . S
H5254 C5251 0.999 . S
H5255 C5236 0.913 . S
H5256 C5274 0.951 . S
H5257 C5276 0.951 . S
H5258 C5278 0.950 . S
H5259 C5279 0.950 . S
H5260 C5281 0.950 . S
H5261 C5284 0.950 . S
H5262 C5285 0.950 . S
H5263 C5287 0.950 . S
H5264 C5288 0.950 . S
H5265 C5289 0.951 . S
H5266 C5291 0.951 . S
H5267 C5293 0.950 . S
H5268 C5294 0.950 . S
H5269 C5296 0.950 . S
H5270 C5299 0.950 . S
H5271 C5300 0.950 . S
H5272 C5302 0.950 . S
H5273 C5303 0.950 . S
C5274 H5256 0.951 . S
C5274 C5275 1.366 . S
C5274 C5276 1.388 . S
C5275 C5274 1.366 . S
C5275 C5279 1.385 . S
C5276 H5257 0.951 . S
C5276 C5274 1.388 . S
C5276 C5277 1.366 . S
C5277 C5276 1.366 . S
C5277 C5278 1.414 . S
C5277 C5280 1.499 . S
C5278 H5258 0.950 . S
C5278 C5277 1.414 . S
C5278 C5279 1.374 . S
C5279 H5259 0.950 . S
C5279 C5275 1.385 . S
C5279 C5278 1.374 . S
C5280 C5277 1.499 . S
C5280 C5281 1.373 . S
C5280 C5282 1.389 . S
C5281 H5260 0.950 . S
C5281 C5280 1.373 . S
C5281 C5297 1.377 . S
C5282 C5280 1.389 . S
C5282 C5283 1.524 . S
C5282 C5296 1.377 . S
C5283 C5282 1.524 . S
C5283 C5284 1.397 . S
C5283 C5288 1.363 . S
C5284 H5261 0.950 . S
C5284 C5283 1.397 . S
C5284 C5285 1.334 . S
C5285 H5262 0.950 . S
C5285 C5284 1.334 . S
C5285 C5286 1.287 . S
C5286 C5285 1.287 . S
C5286 C5287 1.524 . S
C5286 H5305 0.913 . S
C5287 H5263 0.950 . S
C5287 C5286 1.524 . S
C5287 C5288 1.415 . S
C5288 H5264 0.950 . S
C5288 C5283 1.363 . S
C5288 C5287 1.415 . S
C5289 H5265 0.951 . S
C5289 C5290 1.366 . S
C5289 C5291 1.388 . S
C5290 C5289 1.366 . S
C5290 C5294 1.385 . S
C5291 H5266 0.951 . S
C5291 C5289 1.388 . S
C5291 C5292 1.366 . S
C5292 C5291 1.366 . S
C5292 C5293 1.414 . S
C5292 C5295 1.499 . S
C5293 H5267 0.950 . S
C5293 C5292 1.414 . S
C5293 C5294 1.374 . S
C5294 H5268 0.950 . S
C5294 C5290 1.385 . S
C5294 C5293 1.374 . S
C5295 C5292 1.499 . S
C5295 C5296 1.373 . S
C5295 C5297 1.389 . S
C5296 H5269 0.950 . S
C5296 C5282 1.377 . S
C5296 C5295 1.373 . S
C5297 C5281 1.377 . S
C5297 C5295 1.389 . S
C5297 C5298 1.524 . S
C5298 C5297 1.524 . S
C5298 C5299 1.397 . S
C5298 C5303 1.363 . S
C5299 H5270 0.950 . S
C5299 C5298 1.397 . S
C5299 C5300 1.334 . S
C5300 H5271 0.950 . S
C5300 C5299 1.334 . S
C5300 C5301 1.287 . S
C5301 C5300 1.287 . S
C5301 C5302 1.524 . S
C5301 H5304 0.999 . S
C5302 H5272 0.950 . S
C5302 C5301 1.524 . S
C5302 C5303 1.415 . S
C5303 H5273 0.950 . S
C5303 C5298 1.363 . S
C5303 C5302 1.415 . S
H5304 C5301 0.999 . S
H5305 C5286 0.913 . S
H5306 C5324 0.951 1_556 S
H5307 C5326 0.914 1_556 S
H5308 C5328 0.950 . S
H5309 C5329 0.950 . S
H5310 C5331 0.950 . S
H5311 C5334 0.950 . S
H5312 C5335 0.950 . S
H5313 C5337 0.950 . S
H5314 C5338 0.950 . S
H5315 C5339 0.951 . S
H5316 C5341 0.951 . S
H5317 C5343 0.950 . S
H5318 C5344 0.950 . S
H5319 C5346 0.985 . S
H5320 C5349 1.009 . S
H5321 C5350 0.950 . S
H5322 C5352 0.950 . S
H5323 C5353 0.950 . S
C5324 H5306 0.951 1_554 S
C5324 C5325 1.366 . S
C5324 C5326 1.392 . S
C5325 C5324 1.366 . S
C5325 C5329 1.385 . S
C5326 H5307 0.914 1_554 S
C5326 C5324 1.392 . S
C5326 C5327 1.399 . S
C5327 C5326 1.399 . S
C5327 C5328 1.414 . S
C5327 C5330 1.499 . S
C5328 H5308 0.950 . S
C5328 C5327 1.414 . S
C5328 C5329 1.374 . S
C5329 H5309 0.950 . S
C5329 C5325 1.385 . S
C5329 C5328 1.374 . S
C5330 C5327 1.499 . S
C5330 C5331 1.373 . S
C5330 C5332 1.389 . S
C5331 H5310 0.950 . S
C5331 C5330 1.373 . S
C5331 C5347 1.377 . S
C5332 C5330 1.389 . S
C5332 C5333 1.524 1_554 S
C5332 C5346 1.371 1_554 S
C5333 C5332 1.524 1_556 S
C5333 C5334 1.397 1_556 S
C5333 C5338 1.363 . S
C5334 H5311 0.950 . S
C5334 C5333 1.397 1_554 S
C5334 C5335 1.334 . S
C5335 H5312 0.950 . S
C5335 C5334 1.334 . S
C5335 C5336 1.287 1_554 S
C5336 C5335 1.287 1_556 S
C5336 C5337 1.524 . S
C5336 H5355 0.913 . S
C5337 H5313 0.950 . S
C5337 C5336 1.524 . S
C5337 C5338 1.415 . S
C5338 H5314 0.950 . S
C5338 C5333 1.363 . S
C5338 C5337 1.415 . S
C5339 H5315 0.951 . S
C5339 C5340 1.369 . S
C5339 C5341 1.388 . S
C5340 C5339 1.369 . S
C5340 C5344 1.382 1_554 S
C5341 H5316 0.951 . S
C5341 C5339 1.388 . S
C5341 C5342 1.366 . S
C5342 C5341 1.366 . S
C5342 C5343 1.414 1_554 S
C5342 C5345 1.499 . S
C5343 H5317 0.950 . S
C5343 C5342 1.414 1_556 S
C5343 C5344 1.374 . S
C5344 H5318 0.950 . S
C5344 C5340 1.382 1_556 S
C5344 C5343 1.374 . S
C5345 C5342 1.499 . S
C5345 C5346 1.347 1_554 S
C5345 C5347 1.389 . S
C5346 H5319 0.985 . S
C5346 C5332 1.371 1_556 S
C5346 C5345 1.347 1_556 S
C5347 C5331 1.377 . S
C5347 C5345 1.389 . S
C5347 C5348 1.524 . S
C5348 C5347 1.524 . S
C5348 C5349 1.397 . S
C5348 C5353 1.363 . S
C5349 H5320 1.009 . S
C5349 C5348 1.397 . S
C5349 C5350 1.334 . S
C5350 H5321 0.950 . S
C5350 C5349 1.334 . S
C5350 C5351 1.287 . S
C5351 C5350 1.287 . S
C5351 C5352 1.524 . S
C5351 H5354 0.999 . S
C5352 H5322 0.950 . S
C5352 C5351 1.524 . S
C5352 C5353 1.415 . S
C5353 H5323 0.950 . S
C5353 C5348 1.363 . S
C5353 C5352 1.415 . S
H5354 C5351 0.999 . S
H5355 C5336 0.913 . S
H5356 C5374 0.951 . S
H5357 C5376 0.951 . S
H5358 C5378 0.950 . S
H5359 C5379 0.950 . S
H5360 C5381 0.950 . S
H5361 C5384 0.950 . S
H5362 C5385 0.950 . S
H5363 C5387 0.950 . S
H5364 C5388 0.950 . S
H5365 C5389 0.951 . S
H5366 C5391 0.951 . S
H5367 C5393 0.950 . S
H5368 C5394 0.950 . S
H5369 C5396 0.950 . S
H5370 C5399 0.950 . S
H5371 C5400 0.950 . S
H5372 C5402 0.950 . S
H5373 C5403 0.950 . S
C5374 H5356 0.951 . S
C5374 C5375 1.366 . S
C5374 C5376 1.388 . S
C5375 C5374 1.366 . S
C5375 C5379 1.385 . S
C5376 H5357 0.951 . S
C5376 C5374 1.388 . S
C5376 C5377 1.366 . S
C5377 C5376 1.366 . S
C5377 C5378 1.414 . S
C5377 C5380 1.499 . S
C5378 H5358 0.950 . S
C5378 C5377 1.414 . S
C5378 C5379 1.374 . S
C5379 H5359 0.950 . S
C5379 C5375 1.385 . S
C5379 C5378 1.374 . S
C5380 C5377 1.499 . S
C5380 C5381 1.373 . S
C5380 C5382 1.389 . S
C5381 H5360 0.950 . S
C5381 C5380 1.373 . S
C5381 C5397 1.377 . S
C5382 C5380 1.389 . S
C5382 C5383 1.524 . S
C5382 C5396 1.377 . S
C5383 C5382 1.524 . S
C5383 C5384 1.397 . S
C5383 C5388 1.363 . S
C5384 H5361 0.950 . S
C5384 C5383 1.397 . S
C5384 C5385 1.334 . S
C5385 H5362 0.950 . S
C5385 C5384 1.334 . S
C5385 C5386 1.287 . S
C5386 C5385 1.287 . S
C5386 C5387 1.524 . S
C5386 H5405 0.913 . S
C5387 H5363 0.950 . S
C5387 C5386 1.524 . S
C5387 C5388 1.415 . S
C5388 H5364 0.950 . S
C5388 C5383 1.363 . S
C5388 C5387 1.415 . S
C5389 H5365 0.951 . S
C5389 C5390 1.366 . S
C5389 C5391 1.388 . S
C5390 C5389 1.366 . S
C5390 C5394 1.385 . S
C5391 H5366 0.951 . S
C5391 C5389 1.388 . S
C5391 C5392 1.366 . S
C5392 C5391 1.366 . S
C5392 C5393 1.414 . S
C5392 C5395 1.499 . S
C5393 H5367 0.950 . S
C5393 C5392 1.414 . S
C5393 C5394 1.374 . S
C5394 H5368 0.950 . S
C5394 C5390 1.385 . S
C5394 C5393 1.374 . S
C5395 C5392 1.499 . S
C5395 C5396 1.373 . S
C5395 C5397 1.389 . S
C5396 H5369 0.950 . S
C5396 C5382 1.377 . S
C5396 C5395 1.373 . S
C5397 C5381 1.377 . S
C5397 C5395 1.389 . S
C5397 C5398 1.524 . S
C5398 C5397 1.524 . S
C5398 C5399 1.397 . S
C5398 C5403 1.363 . S
C5399 H5370 0.950 . S
C5399 C5398 1.397 . S
C5399 C5400 1.334 . S
C5400 H5371 0.950 . S
C5400 C5399 1.334 . S
C5400 C5401 1.287 . S
C5401 C5400 1.287 . S
C5401 C5402 1.524 . S
C5401 H5404 0.999 . S
C5402 H5372 0.950 . S
C5402 C5401 1.524 . S
C5402 C5403 1.415 . S
C5403 H5373 0.950 . S
C5403 C5398 1.363 . S
C5403 C5402 1.415 . S
H5404 C5401 0.999 . S
H5405 C5386 0.913 . S
H5406 C5424 0.951 . S
H5407 C5426 0.951 . S
H5408 C5428 0.950 . S
H5409 C5429 0.950 . S
H5410 C5431 0.950 . S
H5411 C5434 0.950 . S
H5412 C5435 0.950 . S
H5413 C5437 0.950 . S
H5414 C5438 0.950 . S
H5415 C5439 0.951 . S
H5416 C5441 0.951 . S
H5417 C5443 0.950 . S
H5418 C5444 0.950 . S
H5419 C5446 0.950 . S
H5420 C5449 0.950 . S
H5421 C5450 0.950 . S
H5422 C5452 0.950 . S
H5423 C5453 0.950 . S
C5424 H5406 0.951 . S
C5424 C5425 1.366 . S
C5424 C5426 1.388 . S
C5425 C5424 1.366 . S
C5425 C5429 1.385 . S
C5426 H5407 0.951 . S
C5426 C5424 1.388 . S
C5426 C5427 1.366 . S
C5427 C5426 1.366 . S
C5427 C5428 1.414 . S
C5427 C5430 1.499 . S
C5428 H5408 0.950 . S
C5428 C5427 1.414 . S
C5428 C5429 1.374 . S
C5429 H5409 0.950 . S
C5429 C5425 1.385 . S
C5429 C5428 1.374 . S
C5430 C5427 1.499 . S
C5430 C5431 1.373 . S
C5430 C5432 1.389 . S
C5431 H5410 0.950 . S
C5431 C5430 1.373 . S
C5431 C5447 1.377 . S
C5432 C5430 1.389 . S
C5432 C5433 1.524 . S
C5432 C5446 1.377 . S
C5433 C5432 1.524 . S
C5433 C5434 1.397 . S
C5433 C5438 1.363 . S
C5434 H5411 0.950 . S
C5434 C5433 1.397 . S
C5434 C5435 1.334 . S
C5435 H5412 0.950 . S
C5435 C5434 1.334 . S
C5435 C5436 1.287 . S
C5436 C5435 1.287 . S
C5436 C5437 1.524 . S
C5436 H5455 0.913 . S
C5437 H5413 0.950 . S
C5437 C5436 1.524 . S
C5437 C5438 1.415 . S
C5438 H5414 0.950 . S
C5438 C5433 1.363 . S
C5438 C5437 1.415 . S
C5439 H5415 0.951 . S
C5439 C5440 1.366 . S
C5439 C5441 1.388 . S
C5440 C5439 1.366 . S
C5440 C5444 1.385 . S
C5441 H5416 0.951 . S
C5441 C5439 1.388 . S
C5441 C5442 1.366 . S
C5442 C5441 1.366 . S
C5442 C5443 1.414 . S
C5442 C5445 1.499 . S
C5443 H5417 0.950 . S
C5443 C5442 1.414 . S
C5443 C5444 1.374 . S
C5444 H5418 0.950 . S
C5444 C5440 1.385 . S
C5444 C5443 1.374 . S
C5445 C5442 1.499 . S
C5445 C5446 1.373 . S
C5445 C5447 1.389 . S
C5446 H5419 0.950 . S
C5446 C5432 1.377 . S
C5446 C5445 1.373 . S
C5447 C5431 1.377 . S
C5447 C5445 1.389 . S
C5447 C5448 1.524 . S
C5448 C5447 1.524 . S
C5448 C5449 1.397 . S
C5448 C5453 1.363 . S
C5449 H5420 0.950 . S
C5449 C5448 1.397 . S
C5449 C5450 1.334 . S
C5450 H5421 0.950 . S
C5450 C5449 1.334 . S
C5450 C5451 1.287 . S
C5451 C5450 1.287 . S
C5451 C5452 1.524 . S
C5451 H5454 0.999 . S
C5452 H5422 0.950 . S
C5452 C5451 1.524 . S
C5452 C5453 1.415 . S
C5453 H5423 0.950 . S
C5453 C5448 1.363 . S
C5453 C5452 1.415 . S
H5454 C5451 0.999 . S
H5455 C5436 0.913 . S
C675 C105 1.174 . S
C690 C352 1.167 1_556 S
C725 C65 1.230 . S
C740 C365 1.220 . S
C775 C73 1.262 . S
C790 C384 1.241 . S
C840 C415 1.969 . S
C825 C92 2.006 . S
C875 C17 1.862 . S
C890 C435 1.827 . S
C940 C452 0.723 . S
C925 C37 0.722 . S
C990 C465 1.502 . S
C975 C49 1.459 . S
C1025 C8 0.895 . S
C1040 C492 0.882 . S
C1090 C345 1.092 1_655 S
C1075 C231 1.099 . S
C1125 C241 1.380 . S
C1140 C375 1.350 . S
C1190 C377 1.683 . S
C1175 C273 1.676 . S
C1240 C412 0.741 . S
C1225 C171 0.741 . S
C1275 C227 1.020 . S
C1290 C432 1.011 . S
C1340 C445 1.787 . S
C1325 C245 1.732 . S
C1390 C475 1.170 . S
C1375 C269 1.195 . S
C1440 C485 1.139 . S
C1425 C175 1.137 . S
C1490 C355 1.565 . S
C1475 C162 1.590 . S
C1525 C289 1.862 . S
C1540 C505 1.851 . S
C1590 C535 1.595 . S
C1575 C330 1.602 . S
C1640 C552 1.095 . S
C1625 C317 1.107 . S
C1675 C120 1.952 . S
C1690 C495 1.937 . S
C1725 C134 1.203 . S
C1740 C382 1.177 . S
C1775 C331 1.875 . S
C1790 C565 1.867 . S
C1840 C592 0.783 . S
C1825 C303 0.787 . S
C1890 C342 1.198 . S
C1875 C59 1.233 . S
C1940 C577 1.257 . S
C1925 C107 1.264 . S
C1975 C91 1.271 . S
C1990 C395 1.290 . S
C2025 C78 2.054 . S
C2040 C564 2.009 . S
C2090 C424 1.869 . S
C2075 C7 1.866 . S
C2125 C51 0.763 . S
C2140 C522 0.761 . S
C2190 C457 1.528 1_556 S
C2175 C31 1.537 . S
C2240 C602 0.916 . S
C2225 C22 0.932 . S
C2290 C337 1.157 . S
C2275 C143 1.171 . S
C2340 C584 1.399 . S
C2325 C315 1.381 . S
C2375 C115 1.765 . S
C2390 C385 1.721 . S
C2425 C287 0.792 . S
C2440 C562 0.794 . S
C2475 C147 1.042 1_565 S
C2490 C422 1.063 . S
C2540 C517 1.816 . S
C2525 C311 1.822 . S
C2575 C119 1.201 . S
C2590 C464 1.211 . S
C2625 C283 1.194 . S
C2640 C597 1.174 . S
C2675 C190 1.633 . S
C2690 C344 1.601 . S
C2725 C177 1.892 . S
C2740 C497 1.886 . S
C2775 C260 1.631 . S
C2790 C444 1.627 . S
C2825 C247 1.156 . S
C2840 C542 1.143 . S
C2890 C604 1.968 . S
C2875 C274 1.994 . S
C2925 C218 1.226 . S
C2940 C392 1.202 1_565 S
C2990 C397 1.904 . S
C2975 C261 1.907 . S
C3040 C362 0.825 . S
C3025 C205 0.833 . S
C3075 C77 1.174 . S
C3090 C632 1.167 . S
C3140 C585 1.219 . S
C3125 C93 1.230 . S
C3175 C101 1.262 . S
C3190 C644 1.238 1_556 S
C3225 C64 2.005 . S
C3240 C575 1.969 . S
C3275 C45 1.863 . S
C3290 C515 1.827 . S
C3340 C532 0.723 . S
C3325 C9 0.722 . S
C3390 C545 1.501 1_655 S
C3375 C21 1.459 . S
C3440 C612 0.884 . S
C3425 C36 0.896 . S
C3490 C625 1.120 . S
C3475 C259 1.099 . S
C3525 C185 1.380 . S
C3540 C595 1.355 . S
C3590 C637 1.683 . S
C3575 C203 1.676 . S
C3640 C572 0.742 . S
C3625 C213 0.741 . S
C3690 C512 1.011 . S
C3675 C255 1.020 . S
C3725 C189 1.732 . S
C3740 C525 1.783 . S
C3790 C555 1.168 . S
C3775 C199 1.195 . S
C3825 C217 1.136 . S
C3840 C605 1.140 . S
C3890 C635 1.565 . S
C3875 C316 1.590 . S
C3925 C135 1.862 . S
C3940 C425 1.852 . S
C3990 C455 1.595 . S
C3975 C148 1.605 . S
C4040 C472 1.096 . S
C4025 C163 1.106 . S
C4090 C615 1.937 . S
C4075 C302 1.951 . S
C4125 C288 1.203 . S
C4140 C642 1.177 . S
C4190 C405 1.867 . S
C4175 C149 1.872 . S
C4240 C372 0.784 . S
C4225 C121 0.787 1_565 S
C4275 C87 1.234 . S
C4290 C622 1.197 . S
C4340 C357 1.256 . S
C4325 C79 1.264 . S
C4375 C63 1.273 . S
C4390 C655 1.289 . S
C4425 C106 2.054 . S
C4440 C404 2.009 . S
C4475 C35 1.866 . S
C4490 C504 1.869 1_556 S
C4540 C442 0.762 . S
C4525 C23 0.763 . S
C4575 C3 1.536 . S
C4590 C537 1.528 . S
C4625 C50 0.931 . S
C4640 C482 0.918 . S
C4690 C617 1.157 . S
C4675 C325 1.171 . S
C4725 C161 1.380 . S
C4740 C364 1.400 . S
C4790 C645 1.722 . S
C4775 C297 1.765 . S
C4825 C133 0.790 . S
C4840 C402 0.796 . S
C4875 C329 1.042 . S
C4890 C502 1.065 . S
C4940 C437 1.817 . S
C4925 C157 1.822 . S
C4975 C301 1.202 . S
C4990 C544 1.213 . S
C5040 C477 1.173 . S
C5025 C129 1.194 . S
C5090 C624 1.601 . S
C5075 C246 1.633 . S
C5140 C417 1.889 1_565 S
C5125 C219 1.892 . S
C5175 C232 1.632 . S
C5190 C524 1.628 . S
C5240 C462 1.142 . S
C5225 C191 1.156 . S
C5275 C204 1.994 . S
C5290 C484 1.967 . S
C5325 C176 1.227 . S
C5340 C652 1.203 . S
C5390 C557 1.904 . S
C5375 C233 1.907 1_565 S
C5440 C582 0.825 . S
C5425 C275 0.834 . S
