# Generated by pormake.
# Topology pyr, (3,6)-cn, num edge types: 1
# Building blocks:
#     Node 0, Type 0, BuildingBlock: OLANEW_clean_sbu_2, # of connection points: 3
#     Node 1, Type 0, BuildingBlock: OLANEW_clean_sbu_2, # of connection points: 3
#     Node 2, Type 0, BuildingBlock: OLANEW_clean_sbu_2, # of connection points: 3
#     Node 3, Type 0, BuildingBlock: OLANEW_clean_sbu_2, # of connection points: 3
#     Node 4, Type 0, BuildingBlock: OLANEW_clean_sbu_2, # of connection points: 3
#     Node 5, Type 0, BuildingBlock: OLANEW_clean_sbu_2, # of connection points: 3
#     Node 6, Type 0, BuildingBlock: OLANEW_clean_sbu_2, # of connection points: 3
#     Node 7, Type 0, BuildingBlock: OLANEW_clean_sbu_2, # of connection points: 3
#     Node 8, Type 1, BuildingBlock: FUNLAD_clean_sbu_0, # of connection points: 6
#     Node 9, Type 1, BuildingBlock: FUNLAD_clean_sbu_0, # of connection points: 6
#     Node 10, Type 1, BuildingBlock: FUNLAD_clean_sbu_0, # of connection points: 6
#     Node 11, Type 1, BuildingBlock: FUNLAD_clean_sbu_0, # of connection points: 6
#     Edge 12, Type (0, 1), BuildingBlock: XIVTED_clean_linker_0, # of connection points: 2
#     Edge 13, Type (0, 1), BuildingBlock: XIVTED_clean_linker_0, # of connection points: 2
#     Edge 14, Type (0, 1), BuildingBlock: XIVTED_clean_linker_0, # of connection points: 2
#     Edge 15, Type (0, 1), BuildingBlock: XIVTED_clean_linker_0, # of connection points: 2
#     Edge 16, Type (0, 1), BuildingBlock: XIVTED_clean_linker_0, # of connection points: 2
#     Edge 17, Type (0, 1), BuildingBlock: XIVTED_clean_linker_0, # of connection points: 2
#     Edge 18, Type (0, 1), BuildingBlock: XIVTED_clean_linker_0, # of connection points: 2
#     Edge 19, Type (0, 1), BuildingBlock: XIVTED_clean_linker_0, # of connection points: 2
#     Edge 20, Type (0, 1), BuildingBlock: XIVTED_clean_linker_0, # of connection points: 2
#     Edge 21, Type (0, 1), BuildingBlock: XIVTED_clean_linker_0, # of connection points: 2
#     Edge 22, Type (0, 1), BuildingBlock: XIVTED_clean_linker_0, # of connection points: 2
#     Edge 23, Type (0, 1), BuildingBlock: XIVTED_clean_linker_0, # of connection points: 2
#     Edge 24, Type (0, 1), BuildingBlock: XIVTED_clean_linker_0, # of connection points: 2
#     Edge 25, Type (0, 1), BuildingBlock: XIVTED_clean_linker_0, # of connection points: 2
#     Edge 26, Type (0, 1), BuildingBlock: XIVTED_clean_linker_0, # of connection points: 2
#     Edge 27, Type (0, 1), BuildingBlock: XIVTED_clean_linker_0, # of connection points: 2
#     Edge 28, Type (0, 1), BuildingBlock: XIVTED_clean_linker_0, # of connection points: 2
#     Edge 29, Type (0, 1), BuildingBlock: XIVTED_clean_linker_0, # of connection points: 2
#     Edge 30, Type (0, 1), BuildingBlock: XIVTED_clean_linker_0, # of connection points: 2
#     Edge 31, Type (0, 1), BuildingBlock: XIVTED_clean_linker_0, # of connection points: 2
#     Edge 32, Type (0, 1), BuildingBlock: XIVTED_clean_linker_0, # of connection points: 2
#     Edge 33, Type (0, 1), BuildingBlock: XIVTED_clean_linker_0, # of connection points: 2
#     Edge 34, Type (0, 1), BuildingBlock: XIVTED_clean_linker_0, # of connection points: 2
#     Edge 35, Type (0, 1), BuildingBlock: XIVTED_clean_linker_0, # of connection points: 2
# Relax obj value: 0.144
# Max RMSD: 0.170
# Mean RMSD: 0.117
data_MOF--net-pry--node1-OLANEW_clean_sbu_2--node2-FUNLAD_clean_sbu_0--edge1-XIVTED_clean_linker_0
_symmetry_space_group_name_H-M    P1
_symmetry_Int_Tables_number       1
_symmetry_cell_setting            triclinic
loop_
_symmetry_equiv_pos_as_xyz
'x, y, z'
_cell_length_a     38.164695
_cell_length_b     41.030495
_cell_length_c     41.005999
_cell_angle_alpha  93.883798
_cell_angle_beta   89.31443
_cell_angle_gamma 91.15624
loop_
_atom_site_label
_atom_site_type_symbol
_atom_site_fract_x
_atom_site_fract_y
_atom_site_fract_z
_atom_type_partial_charge
O0 O 0.22824 0.18202 0.16599 0.0
Cd1 Cd 0.17164 0.20782 0.18248 0.0
O2 O 0.23035 0.14489 0.20296 0.0
Cd3 Cd 0.18558 0.15143 0.23736 0.0
O4 O 0.15827 0.1389 0.28317 0.0
C5 C 0.15372 0.10884 0.28846 0.0
O6 O 0.1641 0.08665 0.266 0.0
C7 C 0.2433 0.15808 0.17806 0.0
C8 C 0.14928 0.26331 0.15106 0.0
O9 O 0.16651 0.26628 0.17779 0.0
O10 O 0.14366 0.23428 0.13835 0.0
O11 O 0.43412 0.89165 0.78006 0.0
Cd12 Cd 0.40576 0.86474 0.7313 0.0
O13 O 0.40935 0.93848 0.77223 0.0
Cd14 Cd 0.37877 0.92151 0.72933 0.0
O15 O 0.3357 0.92228 0.69458 0.0
C16 C 0.33023 0.94965 0.68296 0.0
O17 O 0.35137 0.97444 0.69123 0.0
C18 C 0.42932 0.92164 0.78883 0.0
C19 C 0.43501 0.80696 0.70341 0.0
O20 O 0.44332 0.83472 0.69263 0.0
O21 O 0.41381 0.80662 0.72788 0.0
O22 O 0.68844 0.54053 0.01152 0.0
Cd23 Cd 0.62926 0.55904 1.00241 0.0
O24 O 0.67976 0.50411 0.97079 0.0
Cd25 Cd 0.6902 0.45851 0.94232 0.0
O26 O 0.67699 0.4067 0.94266 0.0
C27 C 0.67655 0.3964 0.97119 0.0
O28 O 0.68578 0.41669 0.99592 0.0
C29 C 0.69973 0.51693 0.9929 0.0
C30 C 0.61156 0.54136 0.93796 0.0
O31 O 0.62909 0.56766 0.94569 0.0
O32 O 0.60144 0.52354 0.96091 0.0
O33 O 0.90029 0.63547 0.48319 0.0
Cd34 Cd 0.8731 0.58222 0.47109 0.0
O35 O 0.94939 0.62038 0.50497 0.0
Cd36 Cd 0.92497 0.57275 0.51145 0.0
O37 O 0.87465 0.55041 0.52333 0.0
C38 C 0.85882 0.56242 0.54864 0.0
O39 O 0.87541 0.58395 0.56832 0.0
C40 C 0.93078 0.64252 0.49403 0.0
C41 C 0.88873 0.5674 0.40567 0.0
O42 O 0.8612 0.58332 0.41427 0.0
O43 O 0.90791 0.5571 0.42812 0.0
O44 O 0.93472 0.86868 0.83828 0.0
Cd45 Cd 0.90668 0.84142 0.88497 0.0
O46 O 0.90469 0.91387 0.84812 0.0
Cd47 Cd 0.87216 0.9016 0.89037 0.0
O48 O 0.82809 0.91255 0.92438 0.0
C49 C 0.82111 0.94265 0.92978 0.0
O50 O 0.84094 0.96439 0.91583 0.0
C51 C 0.92723 0.89754 0.83105 0.0
C52 C 0.93448 0.7851 0.91096 0.0
O53 O 0.91623 0.78303 0.88481 0.0
O54 O 0.94113 0.81378 0.9241 0.0
O55 O 0.67147 0.12226 0.36704 0.0
Cd56 Cd 0.68642 0.13744 0.42441 0.0
O57 O 0.64683 0.16932 0.35938 0.0
Cd58 Cd 0.65266 0.1945 0.40795 0.0
O59 O 0.63826 0.23716 0.44028 0.0
C60 C 0.62144 0.25853 0.42613 0.0
O61 O 0.61487 0.25322 0.39481 0.0
C62 C 0.65574 0.14083 0.34856 0.0
C63 C 0.74861 0.11166 0.4471 0.0
O64 O 0.71983 0.095 0.4468 0.0
O65 O 0.74824 0.14012 0.43599 0.0
O66 O 0.47561 0.65284 0.11462 0.0
Cd67 Cd 0.45716 0.597 0.12467 0.0
O68 O 0.43192 0.67121 0.1457 0.0
Cd69 Cd 0.40078 0.62632 0.13883 0.0
O70 O 0.35212 0.60226 0.12258 0.0
C71 C 0.32454 0.61638 0.13319 0.0
O72 O 0.32768 0.6423 0.15367 0.0
C73 C 0.46028 0.67642 0.1302 0.0
C74 C 0.46999 0.5872 0.19019 0.0
O75 O 0.44149 0.59988 0.18151 0.0
O76 O 0.49224 0.5783 0.16785 0.0
O77 O 0.1106 0.46396 0.64015 0.0
Cd78 Cd 0.12948 0.44911 0.5829 0.0
O79 O 0.16003 0.48219 0.66291 0.0
Cd80 Cd 0.18735 0.44498 0.63405 0.0
O81 O 0.17827 0.39257 0.62617 0.0
C82 C 0.15734 0.38009 0.64642 0.0
O83 O 0.1445 0.39888 0.67072 0.0
C84 C 0.12687 0.47906 0.66379 0.0
C85 C 0.20007 0.4611 0.56877 0.0
O86 O 0.18859 0.43212 0.57298 0.0
O87 O 0.178 0.48429 0.57005 0.0
C88 C 0.06143 0.03093 0.50207 0.0
N89 N 0.0527 0.08337 0.59276 0.0
C90 C 0.08539 0.09426 0.58481 0.0
C91 C 0.09593 0.12628 0.5932 0.0
C92 C 0.07253 0.14778 0.60958 0.0
C93 C 0.03926 0.13579 0.61859 0.0
C94 C 0.02978 0.10321 0.6098 0.0
Zn95 Zn 0.03983 0.03733 0.57412 0.0
C96 C 0.9698 0.03279 0.54425 0.0
N97 N 0.01989 0.94198 0.53095 0.0
C98 C 0.0449 0.92415 0.51438 0.0
C99 C 0.98769 0.92894 0.53726 0.0
C100 C 0.97983 0.89651 0.52746 0.0
C101 C 0.00546 0.87722 0.51127 0.0
C102 C 0.03825 0.89141 0.50442 0.0
Zn103 Zn 0.0311 0.98781 0.55021 0.0
O104 O 0.05965 0.0507 0.52729 0.0
C105 C 0.10139 0.99337 0.57964 0.0
O106 O 0.05121 1.00148 0.50432 0.0
H107 H 0.96839 0.94343 0.55083 0.0
H108 H 0.1032 0.07837 0.57098 0.0
H109 H 0.07031 0.93508 0.50963 0.0
O110 O 0.08992 0.02176 0.58693 0.0
O111 O 0.08197 0.97264 0.56366 0.0
H112 H 0.00384 0.0941 0.6157 0.0
O113 O 0.01156 0.97419 0.59633 0.0
O114 O 0.0197 0.02291 0.62078 0.0
O115 O 0.98012 0.00387 0.53685 0.0
O116 O 0.98973 0.05259 0.56087 0.0
C117 C 0.01001 0.99308 0.62217 0.0
H118 H 0.12207 0.13425 0.58637 0.0
H119 H 0.02039 0.15165 0.63116 0.0
H120 H 0.9544 0.88631 0.53361 0.0
H121 H 0.05857 0.87728 0.49179 0.0
C122 C 0.60225 0.02318 0.04489 0.0
N123 N 0.55791 0.11485 0.04001 0.0
C124 C 0.5903 0.1262 0.04915 0.0
C125 C 0.60232 0.15673 0.04068 0.0
C126 C 0.58093 0.17597 0.02252 0.0
C127 C 0.54788 0.16348 0.01263 0.0
C128 C 0.53673 0.13265 0.02184 0.0
Zn129 Zn 0.54323 0.07037 0.05575 0.0
C130 C 0.51143 0.02524 0.00452 0.0
N131 N 0.51883 0.97732 0.0912 0.0
C132 C 0.54206 0.96298 0.11042 0.0
C133 C 0.48948 0.96104 0.08002 0.0
C134 C 0.48346 0.92853 0.08684 0.0
C135 C 0.5075 0.91301 0.10588 0.0
C136 C 0.53665 0.93075 0.11842 0.0
Zn137 Zn 0.53115 0.02222 0.07534 0.0
O138 O 0.59296 0.0521 0.04057 0.0
C139 C 0.56415 0.0663 0.12647 0.0
O140 O 0.58133 0.00442 0.05948 0.0
H141 H 0.47129 0.97292 0.06489 0.0
H142 H 0.6069 0.11165 0.06335 0.0
H143 H 0.56551 0.97613 0.11864 0.0
O144 O 0.56347 0.08532 0.10325 0.0
O145 O 0.55181 0.03743 0.12175 0.0
H146 H 0.51108 0.1231 0.01482 0.0
O147 O 0.48065 0.04081 0.09086 0.0
O148 O 0.49316 0.08806 0.07087 0.0
O149 O 0.51137 0.00723 0.02853 0.0
O150 O 0.523 0.05455 0.00857 0.0
C151 C 0.47176 0.06982 0.08568 0.0
H152 H 0.62822 0.16519 0.0483 0.0
H153 H 0.53057 0.17769 0.99868 0.0
H154 H 0.46057 0.91548 0.07696 0.0
H155 H 0.55583 0.91935 0.133 0.0
C156 C 0.54354 0.46889 0.54217 0.0
N157 N 0.5384 0.51229 0.63798 0.0
C158 C 0.5265 0.48484 0.6518 0.0
C159 C 0.53442 0.47988 0.68443 0.0
C160 C 0.55503 0.50328 0.7025 0.0
C161 C 0.56636 0.53142 0.6876 0.0
C162 C 0.55776 0.53544 0.65539 0.0
Zn163 Zn 0.52988 0.52248 0.59061 0.0
C164 C 0.59729 0.54805 0.56143 0.0
N165 N 0.51679 0.55187 0.49386 0.0
C166 C 0.50011 0.52907 0.47362 0.0
C167 C 0.52908 0.5805 0.48272 0.0
C168 C 0.52509 0.58684 0.44988 0.0
C169 C 0.50888 0.56323 0.4284 0.0
C170 C 0.49613 0.53415 0.44064 0.0
Zn171 Zn 0.5244 0.54077 0.54109 0.0
O172 O 0.54335 0.47444 0.57306 0.0
C173 C 0.45716 0.51432 0.56952 0.0
O174 O 0.53607 0.49182 0.52421 0.0
H175 H 0.54237 0.59822 0.49919 0.0
H176 H 0.51107 0.46678 0.63753 0.0
H177 H 0.49016 0.50664 0.48298 0.0
O178 O 0.47641 0.50796 0.59332 0.0
O179 O 0.47063 0.52815 0.54541 0.0
H180 H 0.56676 0.55727 0.64426 0.0
O181 O 0.51312 0.58964 0.55908 0.0
O182 O 0.51608 0.57075 0.60765 0.0
O183 O 0.57822 0.55287 0.53712 0.0
O184 O 0.58342 0.53665 0.58664 0.0
C185 C 0.51074 0.5944 0.59 0.0
H186 H 0.52508 0.45789 0.69519 0.0
H187 H 0.58155 0.55047 0.70086 0.0
H188 H 0.5353 0.60955 0.44121 0.0
H189 H 0.48305 0.51558 0.42486 0.0
C190 C 1.00103 0.58009 0.01693 0.0
N191 N 0.99544 0.53845 0.10876 0.0
C192 C 1.00037 0.56821 0.125 0.0
C193 C 0.98933 0.5733 0.15761 0.0
C194 C 0.97366 0.54734 0.17345 0.0
C195 C 0.96851 0.51718 0.15592 0.0
C196 C 0.97944 0.51331 0.12347 0.0
Zn197 Zn 0.01235 0.52827 0.06191 0.0
C198 C 0.954 0.49562 0.02296 0.0
N199 N 0.04519 0.50048 0.9648 0.0
C200 C 0.06839 0.52181 0.95191 0.0
C201 C 0.02952 0.47613 0.94568 0.0
C202 C 0.03554 0.47375 0.91192 0.0
C203 C 0.0584 0.49629 0.89778 0.0
C204 C 0.07582 0.51981 0.91854 0.0
Zn205 Zn 0.0292 0.51057 0.01205 0.0
O206 O 0.99548 0.57503 0.04691 0.0
C207 C 0.08658 0.54398 0.05294 0.0
O208 O 0.01504 0.55775 0.99849 0.0
H209 H 0.01108 0.45944 0.95633 0.0
H210 H 0.01316 0.58783 0.1128 0.0
H211 H 0.08014 0.5414 0.96724 0.0
O212 O 0.06141 0.54846 0.07311 0.0
O213 O 0.08096 0.52843 0.02551 0.0
H214 H 0.97533 0.48997 0.11008 0.0
O215 O 0.04358 0.46329 0.02566 0.0
O216 O 0.03075 0.48167 0.07572 0.0
O217 O 0.97698 0.49331 1.00026 0.0
O218 O 0.96268 0.50818 0.05084 0.0
C219 C 0.04245 0.45895 0.0561 0.0
H220 H 0.99371 0.59693 0.17049 0.0
H221 H 0.95599 0.49676 0.16719 0.0
H222 H 0.02125 0.45529 0.89707 0.0
H223 H 0.09446 0.53715 0.90914 0.0
H224 H 0.1359 0.14714 0.34391 0.0
H225 H 0.07187 0.9947 0.44411 0.0
H226 H 0.13699 0.04683 0.30484 0.0
H227 H 0.08124 0.09319 0.48763 0.0
H228 H 0.09316 0.01399 0.39221 0.0
H229 H 0.11307 0.12861 0.39587 0.0
C230 C 0.13121 0.12126 0.34616 0.0
C231 C 0.13848 0.09855 0.31986 0.0
C232 C 0.09059 0.03142 0.41309 0.0
C233 C 0.11235 0.07713 0.37938 0.0
C234 C 0.07841 0.02039 0.4428 0.0
C235 C 0.07475 0.0423 0.47041 0.0
C236 C 0.09912 0.06469 0.41073 0.0
C237 C 0.08367 0.07536 0.46708 0.0
C238 C 0.11827 0.11068 0.37588 0.0
C239 C 0.13191 0.06529 0.32434 0.0
N240 N 0.09536 0.08553 0.43784 0.0
N241 N 0.11928 0.05565 0.3534 0.0
H242 H 0.46045 0.89142 0.83851 0.0
H243 H 0.4998 0.05694 0.94856 0.0
H244 H 0.43367 0.98666 0.80884 0.0
H245 H 0.49715 0.96118 0.98624 0.0
H246 H 0.48215 0.032 0.89497 0.0
H247 H 0.48161 0.91704 0.89046 0.0
C248 C 0.45932 0.91772 0.84275 0.0
C249 C 0.44509 0.93685 0.81928 0.0
C250 C 0.48542 0.01652 0.91504 0.0
C251 C 0.46923 0.96637 0.87877 0.0
C252 C 0.49547 0.03074 0.94561 0.0
C253 C 0.49983 0.01119 0.97202 0.0
C254 C 0.48014 0.98248 0.91074 0.0
C255 C 0.49394 0.97731 0.9667 0.0
C256 C 0.47121 0.93232 0.8725 0.0
C257 C 0.44422 0.97088 0.82626 0.0
N258 N 0.48456 0.96407 0.93672 0.0
N259 N 0.45608 0.98452 0.85532 0.0
H260 H 0.64521 0.56267 0.88445 0.0
H261 H 0.51307 0.48446 0.75329 0.0
H262 H 0.56161 0.49771 0.91285 0.0
H263 H 0.61906 0.51408 0.73005 0.0
H264 H 0.528 0.48896 0.81165 0.0
H265 H 0.63322 0.54699 0.82728 0.0
C266 C 0.62425 0.54512 0.87862 0.0
C267 C 0.60424 0.5316 0.90338 0.0
C268 C 0.54805 0.49395 0.79364 0.0
C269 C 0.5903 0.51352 0.83787 0.0
C270 C 0.53961 0.49123 0.76041 0.0
C271 C 0.56471 0.49953 0.73692 0.0
C272 C 0.58163 0.50531 0.80317 0.0
C273 C 0.59868 0.50825 0.74743 0.0
C274 C 0.61759 0.53596 0.84597 0.0
C275 C 0.57761 0.50871 0.89441 0.0
N276 N 0.60598 0.5114 0.77975 0.0
N277 N 0.5711 0.50061 0.86227 0.0
H278 H 0.8619 0.59687 0.35385 0.0
H279 H 0.98811 0.50717 0.2215 0.0
H280 H 0.94028 0.52853 0.37861 0.0
H281 H 0.93427 0.59565 0.20404 0.0
H282 H 0.96666 0.51123 0.278 0.0
H283 H 0.88323 0.59272 0.29727 0.0
C284 C 0.88338 0.58076 0.34733 0.0
C285 C 0.89937 0.563 0.37096 0.0
C286 C 0.95966 0.52985 0.26189 0.0
C287 C 0.92392 0.55831 0.30641 0.0
C288 C 0.9718 0.52751 0.22968 0.0
C289 C 0.96282 0.5511 0.20819 0.0
C290 C 0.938 0.55575 0.27259 0.0
C291 C 0.94191 0.57711 0.21998 0.0
C292 C 0.89569 0.57861 0.3151 0.0
C293 C 0.92723 0.54267 0.36119 0.0
N294 N 0.92993 0.57862 0.2514 0.0
N295 N 0.9386 0.54084 0.32962 0.0
H296 H 0.27678 0.10247 0.19231 0.0
H297 H 0.44219 0.12845 0.07416 0.0
H298 H 0.28569 0.18299 0.13002 0.0
H299 H 0.42254 0.04067 0.12431 0.0
H300 H 0.3863 0.14984 0.0953 0.0
H301 H 0.33117 0.08081 0.16889 0.0
C302 C 0.29013 0.1157 0.17368 0.0
C303 C 0.27642 0.14476 0.16324 0.0
C304 C 0.39415 0.12586 0.10158 0.0
C305 C 0.33935 0.11982 0.13618 0.0
C306 C 0.42613 0.11359 0.08954 0.0
C307 C 0.43726 0.08264 0.09746 0.0
C308 C 0.3731 0.10722 0.12195 0.0
C309 C 0.41517 0.0646 0.11749 0.0
C310 C 0.32127 0.10317 0.16023 0.0
C311 C 0.29511 0.16054 0.13887 0.0
N312 N 0.38434 0.07719 0.12912 0.0
N313 N 0.32564 0.14796 0.12629 0.0
H314 H 0.30997 0.00606 0.65775 0.0
H315 H 0.12995 0.9325 0.58271 0.0
H316 H 0.27908 0.90468 0.66262 0.0
H317 H 0.15341 0.0354 0.60122 0.0
H318 H 0.18774 0.92025 0.60425 0.0
H319 H 0.25616 0.01543 0.62882 0.0
C320 C 0.29199 0.98566 0.65255 0.0
C321 C 0.29896 0.95458 0.66293 0.0
C322 C 0.18019 0.94547 0.6034 0.0
C323 C 0.23697 0.96524 0.62975 0.0
C324 C 0.14732 0.95247 0.59103 0.0
C325 C 0.13676 0.98501 0.59039 0.0
C326 C 0.20267 0.97122 0.61478 0.0
C327 C 0.16028 0.00995 0.6015 0.0
C328 C 0.26116 0.99107 0.63607 0.0
C329 C 0.27467 0.92909 0.65525 0.0
N330 N 0.19201 1.00253 0.61322 0.0
N331 N 0.24462 0.93501 0.63925 0.0
H332 H 0.735 0.51529 0.04992 0.0
H333 H 0.92007 0.4851 0.96406 0.0
H334 H 0.74575 0.49206 0.9462 0.0
H335 H 0.90254 0.48826 0.06841 0.0
H336 H 0.85634 0.48248 0.95619 0.0
H337 H 0.79613 0.50124 0.05681 0.0
C338 C 0.75019 0.5068 0.02864 0.0
C339 C 0.73532 0.5047 0.9975 0.0
C340 C 0.86654 0.48318 0.98076 0.0
C341 C 0.80563 0.48909 0.00499 0.0
C342 C 0.90289 0.48454 0.98525 0.0
C343 C 0.91661 0.48743 0.01694 0.0
C344 C 0.84397 0.48488 0.00818 0.0
C345 C 0.89315 0.48661 0.04352 0.0
C346 C 0.78509 0.49868 0.03255 0.0
C347 C 0.75612 0.49353 0.97071 0.0
N348 N 0.85808 0.48585 0.03855 0.0
N349 N 0.79043 0.48658 0.97499 0.0
H350 H 0.81827 0.57591 0.60312 0.0
H351 H 0.63845 0.55348 0.50691 0.0
H352 H 0.81242 0.5383 0.50239 0.0
H353 H 0.64346 0.55258 0.61197 0.0
H354 H 0.70258 0.55553 0.5044 0.0
H355 H 0.75416 0.57346 0.60672 0.0
C356 C 0.80351 0.56682 0.58189 0.0
C357 C 0.82066 0.55722 0.55245 0.0
C358 C 0.68957 0.55497 0.52798 0.0
C359 C 0.74755 0.5551 0.55618 0.0
C360 C 0.65303 0.55412 0.52946 0.0
C361 C 0.63566 0.55281 0.55969 0.0
C362 C 0.70881 0.55497 0.55697 0.0
C363 C 0.65585 0.55344 0.58814 0.0
C364 C 0.76699 0.5655 0.58394 0.0
C365 C 0.80028 0.54573 0.52564 0.0
N366 N 0.69139 0.55455 0.5861 0.0
N367 N 0.76476 0.54531 0.52805 0.0
H368 H 0.1453 0.32611 0.17815 0.0
H369 H 0.06176 0.40153 0.02222 0.0
H370 H 0.12001 0.26692 0.0903 0.0
H371 H 0.05654 0.44793 0.11973 0.0
H372 H 0.08816 0.35375 0.04453 0.0
H373 H 0.11883 0.37298 0.15481 0.0
C374 C 0.13441 0.32297 0.15385 0.0
C375 C 0.13492 0.29239 0.13623 0.0
C376 C 0.08108 0.37436 0.06101 0.0
C377 C 0.10446 0.34626 0.10922 0.0
C378 C 0.066 0.40167 0.0483 0.0
C379 C 0.05676 0.42888 0.06909 0.0
C380 C 0.08755 0.3744 0.09471 0.0
C381 C 0.06302 0.42757 0.10271 0.0
C382 C 0.11909 0.34976 0.14059 0.0
C383 C 0.12018 0.28995 0.10484 0.0
N384 N 0.07818 0.401 0.11437 0.0
N385 N 0.10569 0.31649 0.09232 0.0
H386 H 0.64747 0.35016 0.92729 0.0
H387 H 0.61256 0.22217 0.06358 0.0
H388 H 0.67518 0.36714 0.02888 0.0
H389 H 0.5773 0.20515 0.9642 0.0
H390 H 0.63629 0.27524 0.05041 0.0
H391 H 0.6229 0.29652 0.93922 0.0
C392 C 0.64858 0.34255 0.95203 0.0
C393 C 0.66338 0.36318 0.97715 0.0
C394 C 0.62334 0.26002 0.03141 0.0
C395 C 0.6352 0.30209 0.99094 0.0
C396 C 0.60988 0.22964 0.03891 0.0
C397 C 0.59321 0.20911 0.01486 0.0
C398 C 0.62026 0.27011 0.99955 0.0
C399 C 0.58986 0.22031 0.98347 0.0
C400 C 0.63442 0.31202 0.95883 0.0
C401 C 0.664 0.35213 0.00875 0.0
N402 N 0.60347 0.25004 0.97663 0.0
N403 N 0.6501 0.32241 0.01471 0.0
H404 H 0.89833 0.69368 0.46911 0.0
H405 H 0.04744 0.82568 0.52168 0.0
H406 H 0.99357 0.66886 0.51682 0.0
H407 H 0.94686 0.84895 0.48333 0.0
H408 H 0.03184 0.76744 0.51412 0.0
H409 H 0.91918 0.7499 0.46878 0.0
C410 C 0.92371 0.70003 0.47955 0.0
C411 C 0.9441 0.67651 0.49331 0.0
C412 C 0.01334 0.78531 0.50712 0.0
C413 C 0.96822 0.74121 0.49294 0.0
C414 C 0.02232 0.81848 0.51118 0.0
C415 C 0.99825 0.84207 0.50332 0.0
C416 C 0.98016 0.77581 0.49499 0.0
C417 C 0.96594 0.83152 0.49013 0.0
C418 C 0.93563 0.73222 0.47928 0.0
C419 C 0.9769 0.68624 0.50615 0.0
N420 N 0.95779 0.79918 0.48654 0.0
N421 N 0.9879 0.71797 0.50581 0.0
H422 H 0.4312 0.74579 0.72608 0.0
H423 H 0.50487 0.65342 0.56212 0.0
H424 H 0.46872 0.79758 0.64401 0.0
H425 H 0.49467 0.60889 0.65427 0.0
H426 H 0.48807 0.7059 0.5898 0.0
H427 H 0.45073 0.69469 0.69834 0.0
C428 C 0.44367 0.74645 0.70226 0.0
C429 C 0.44836 0.77606 0.6874 0.0
C430 C 0.48966 0.68461 0.60389 0.0
C431 C 0.47051 0.71743 0.65524 0.0
C432 C 0.49913 0.65465 0.5881 0.0
C433 C 0.50116 0.62665 0.60585 0.0
C434 C 0.48175 0.68646 0.63755 0.0
C435 C 0.49351 0.62975 0.63952 0.0
C436 C 0.45486 0.71724 0.68643 0.0
C437 C 0.46471 0.77534 0.65645 0.0
N438 N 0.484 0.65897 0.65416 0.0
N439 N 0.47499 0.74648 0.64129 0.0
H440 H 0.92881 0.96193 0.81724 0.0
H441 H 0.99948 0.92884 0.63415 0.0
H442 H 0.96111 0.86697 0.77777 0.0
H443 H 0.99492 0.02569 0.6819 0.0
H444 H 0.98215 0.90589 0.68542 0.0
H445 H 0.95012 0.98561 0.76744 0.0
C446 C 0.94058 0.94601 0.79819 0.0
C447 C 0.94306 0.91227 0.80184 0.0
C448 C 0.98498 0.93216 0.68477 0.0
C449 C 0.96723 0.93944 0.74423 0.0
C450 C 0.99472 0.94539 0.65538 0.0
C451 C 0.99863 0.9794 0.65351 0.0
C452 C 0.97859 0.95294 0.71272 0.0
C453 C 0.99224 0.99939 0.68208 0.0
C454 C 0.95279 0.95964 0.76972 0.0
C455 C 0.95871 0.89306 0.77621 0.0
N456 N 0.98236 0.98589 0.7104 0.0
N457 N 0.96987 0.90684 0.74844 0.0
H458 H 0.65496 0.07789 0.32055 0.0
H459 H 0.58459 0.12846 0.14793 0.0
H460 H 0.63392 0.17723 0.29943 0.0
H461 H 0.57893 0.02965 0.17793 0.0
H462 H 0.60953 0.14637 0.20099 0.0
H463 H 0.6344 0.05939 0.2658 0.0
C464 C 0.64634 0.09584 0.30435 0.0
C465 C 0.64604 0.12917 0.31472 0.0
C466 C 0.60283 0.12076 0.19596 0.0
C467 C 0.6225 0.10816 0.25207 0.0
C468 C 0.58862 0.11051 0.16564 0.0
C469 C 0.57944 0.07751 0.15849 0.0
C470 C 0.6083 0.09785 0.21927 0.0
C471 C 0.58538 0.05536 0.18243 0.0
C472 C 0.63443 0.08524 0.27317 0.0
C473 C 0.63444 0.15128 0.29264 0.0
N474 N 0.59947 0.06591 0.2117 0.0
N475 N 0.62317 0.1404 0.26244 0.0
H476 H 0.51877 0.54889 0.21661 0.0
H477 H 0.48277 0.61642 0.40084 0.0
H478 H 0.43779 0.61799 0.24315 0.0
H479 H 0.52693 0.52187 0.37633 0.0
H480 H 0.47446 0.62311 0.34239 0.0
H481 H 0.53013 0.54403 0.27481 0.0
C482 C 0.50344 0.56305 0.23467 0.0
C483 C 0.47717 0.58372 0.22509 0.0
C484 C 0.48604 0.60095 0.34986 0.0
C485 C 0.49036 0.57865 0.29143 0.0
C486 C 0.49096 0.59724 0.38309 0.0
C487 C 0.50536 0.5685 0.39327 0.0
C488 C 0.49617 0.57598 0.32674 0.0
C489 C 0.51541 0.54425 0.3694 0.0
C490 C 0.50988 0.56022 0.2678 0.0
C491 C 0.45809 0.60156 0.24949 0.0
N492 N 0.51073 0.54857 0.3372 0.0
N493 N 0.46518 0.59874 0.28155 0.0
H494 H 0.07055 0.44713 0.68888 0.0
H495 H 0.07034 0.54891 0.8606 0.0
H496 H 0.14264 0.52796 0.71005 0.0
H497 H 0.05674 0.44378 0.85192 0.0
H498 H 0.08153 0.54807 0.8019 0.0
H499 H 0.04851 0.45334 0.74534 0.0
C500 C 0.08101 0.46677 0.70514 0.0
C501 C 0.10851 0.48705 0.69497 0.0
C502 C 0.07584 0.52531 0.813 0.0
C503 C 0.08347 0.49415 0.75908 0.0
C504 C 0.06985 0.52559 0.84658 0.0
C505 C 0.06326 0.49624 0.86167 0.0
C506 C 0.07436 0.49562 0.79412 0.0
C507 C 0.0615 0.46706 0.84163 0.0
C508 C 0.06868 0.47003 0.73732 0.0
C509 C 0.12151 0.51179 0.71709 0.0
N510 N 0.06706 0.4675 0.80886 0.0
N511 N 0.1089 0.51465 0.74824 0.0
H512 H 0.77173 0.90492 0.96051 0.0
H513 H 0.65497 0.05898 0.01811 0.0
H514 H 0.80008 0.00509 0.94494 0.0
H515 H 0.62726 0.96046 0.04075 0.0
H516 H 0.70919 0.03914 0.99274 0.0
H517 H 0.71968 0.9241 0.99132 0.0
C518 C 0.76716 0.93091 0.96369 0.0
C519 C 0.79031 0.9534 0.94995 0.0
C520 C 0.69141 0.02179 1.00337 0.0
C521 C 0.73079 0.97548 0.98508 0.0
C522 C 0.66036 0.03314 0.01791 0.0
C523 C 0.63637 0.01136 0.03152 0.0
C524 C 0.69869 0.98829 1.00212 0.0
C525 C 0.64496 0.97814 0.03056 0.0
C526 C 0.73743 0.94184 0.98127 0.0
C527 C 0.78301 0.98679 0.95491 0.0
N528 N 0.67532 0.96758 0.01592 0.0
N529 N 0.75392 0.99674 0.97189 0.0
H530 H 0.76161 0.04905 0.46284 0.0
H531 H 0.94658 0.09545 0.54469 0.0
H532 H 0.80935 0.14531 0.46317 0.0
H533 H 0.91624 0.99601 0.51508 0.0
H534 H 0.89275 0.11421 0.52104 0.0
H535 H 0.8148 0.02922 0.48733 0.0
C536 C 0.78327 0.066 0.46799 0.0
C537 C 0.78101 0.09891 0.46086 0.0
C538 C 0.89782 0.08828 0.51976 0.0
C539 C 0.84172 0.07643 0.48928 0.0
C540 C 0.92848 0.0775 0.53344 0.0
C541 C 0.93603 0.04406 0.53185 0.0
C542 C 0.87419 0.06551 0.50465 0.0
C543 C 0.91156 0.02201 0.51681 0.0
C544 C 0.81362 0.05464 0.48193 0.0
C545 C 0.80993 0.11974 0.46809 0.0
N546 N 0.8817 0.03311 0.50385 0.0
N547 N 0.83894 0.10821 0.48206 0.0
H548 H 0.26094 0.63829 0.15503 0.0
H549 H 0.14953 0.52942 0.02246 0.0
H550 H 0.30847 0.56964 0.08416 0.0
H551 H 0.10453 0.58511 0.10519 0.0
H552 H 0.20816 0.54692 0.0414 0.0
H553 H 0.20343 0.62165 0.13411 0.0
C554 C 0.25929 0.61962 0.1351 0.0
C555 C 0.28958 0.60529 0.12137 0.0
C556 C 0.18538 0.55531 0.05529 0.0
C557 C 0.22363 0.58621 0.09708 0.0
C558 C 0.15196 0.54548 0.04443 0.0
C559 C 0.12212 0.55573 0.06233 0.0
C560 C 0.18884 0.5757 0.08408 0.0
C561 C 0.12677 0.57645 0.09067 0.0
C562 C 0.22639 0.61012 0.12314 0.0
C563 C 0.28577 0.58122 0.09555 0.0
N564 N 0.15944 0.5857 0.10064 0.0
N565 N 0.25336 0.57248 0.08414 0.0
H566 H 0.23255 0.51545 0.54641 0.0
H567 H 0.42188 0.47091 0.60666 0.0
H568 H 0.25383 0.42276 0.58521 0.0
H569 H 0.40654 0.53841 0.53201 0.0
H570 H 0.35912 0.4568 0.60483 0.0
H571 H 0.29558 0.52804 0.54599 0.0
C572 C 0.25051 0.49767 0.5546 0.0
C573 C 0.23802 0.46798 0.56573 0.0
C574 C 0.36961 0.47463 0.58883 0.0
C575 C 0.30985 0.48246 0.56594 0.0
C576 C 0.4053 0.48282 0.59 0.0
C577 C 0.41939 0.50583 0.56944 0.0
C578 C 0.34787 0.49001 0.56739 0.0
C579 C 0.39678 0.52044 0.5482 0.0
C580 C 0.28641 0.50485 0.55435 0.0
C581 C 0.2624 0.44583 0.57618 0.0
N582 N 0.36209 0.51244 0.54787 0.0
N583 N 0.29716 0.45366 0.57634 0.0
H584 H 0.936 0.72221 0.88375 0.0
H585 H 0.98362 0.63945 0.04869 0.0
H586 H 0.95845 0.77956 0.97338 0.0
H587 H 0.99584 0.59149 0.9524 0.0
H588 H 0.96844 0.68997 0.02326 0.0
H589 H 0.95214 0.67295 0.91005 0.0
C590 C 0.94445 0.7245 0.90893 0.0
C591 C 0.946 0.75519 0.92627 0.0
C592 C 0.97451 0.66833 0.00779 0.0
C593 C 0.96407 0.69856 0.95685 0.0
C594 C 0.98302 0.63947 0.02229 0.0
C595 C 0.9911 0.6111 1.00273 0.0
C596 C 0.9735 0.66869 0.9735 0.0
C597 C 0.98998 0.61268 0.96858 0.0
C598 C 0.95369 0.69632 0.92396 0.0
C599 C 0.95709 0.75649 0.95896 0.0
N600 N 0.98121 0.64079 0.95516 0.0
N601 N 0.96545 0.72861 0.97325 0.0
H602 H 0.49973 0.70211 0.08171 0.0
H603 H 0.50554 0.88389 0.16385 0.0
H604 H 0.45024 0.72769 0.17487 0.0
H605 H 0.50082 0.86278 0.05954 0.0
H606 H 0.49865 0.82514 0.17146 0.0
H607 H 0.51472 0.76003 0.07667 0.0
C608 C 0.49257 0.71983 0.10132 0.0
C609 C 0.47352 0.71026 0.12863 0.0
C610 C 0.49923 0.83347 0.14695 0.0
C611 C 0.49067 0.77606 0.1231 0.0
C612 C 0.50315 0.8668 0.14263 0.0
C613 C 0.50333 0.87794 0.11107 0.0
C614 C 0.49634 0.81128 0.11947 0.0
C615 C 0.50031 0.85502 0.08426 0.0
C616 C 0.50089 0.75279 0.09831 0.0
C617 C 0.46468 0.73418 0.15328 0.0
N618 N 0.49708 0.82267 0.08904 0.0
N619 N 0.47334 0.76604 0.14995 0.0
H620 H 0.17363 0.33606 0.59571 0.0
H621 H 0.06082 0.18856 0.66465 0.0
H622 H 0.11438 0.34555 0.68612 0.0
H623 H 0.10747 0.18661 0.56813 0.0
H624 H 0.08137 0.24541 0.67439 0.0
H625 H 0.15197 0.27988 0.58702 0.0
C626 C 0.15618 0.32629 0.61381 0.0
C627 C 0.14576 0.34555 0.64165 0.0
C628 C 0.08704 0.23246 0.65109 0.0
C629 C 0.12069 0.28121 0.63179 0.0
C630 C 0.07516 0.20012 0.64548 0.0
C631 C 0.08282 0.18268 0.6157 0.0
C632 C 0.10666 0.24734 0.62674 0.0
C633 C 0.10166 0.19882 0.59175 0.0
C634 C 0.14369 0.29422 0.60878 0.0
C635 C 0.12304 0.33157 0.66427 0.0
N636 N 0.11303 0.23011 0.59784 0.0
N637 N 0.11125 0.30022 0.65885 0.0
H638 H 0.58742 0.30891 0.40125 0.0
H639 H 0.56938 0.41588 0.57136 0.0
H640 H 0.62743 0.27749 0.49177 0.0
H641 H 0.54045 0.44836 0.47758 0.0
H642 H 0.58787 0.36381 0.54406 0.0
H643 H 0.56734 0.35887 0.43015 0.0
C644 C 0.59201 0.31248 0.42727 0.0
C645 C 0.60925 0.2889 0.44406 0.0
C646 C 0.57739 0.38236 0.52954 0.0
C647 C 0.58611 0.34647 0.47755 0.0
C648 C 0.56673 0.41203 0.5451 0.0
C649 C 0.5534 0.43659 0.52674 0.0
C650 C 0.57452 0.37721 0.49542 0.0
C651 C 0.55066 0.43026 0.49278 0.0
C652 C 0.5805 0.34113 0.44381 0.0
C653 C 0.61433 0.29503 0.47783 0.0
N654 N 0.56112 0.4013 0.47831 0.0
N655 N 0.60281 0.32324 0.49349 0.0
loop_
_geom_bond_atom_site_label_1
_geom_bond_atom_site_label_2
_geom_bond_distance
_geom_bond_site_symmetry_2
_ccdc_geom_bond_type
O0 Cd1 2.300 . S
O0 C7 1.275 . S
Cd1 O0 2.300 . S
Cd1 O9 2.381 . S
Cd1 O10 2.378 . S
O2 Cd3 2.385 . S
O2 C7 1.255 . S
Cd3 O2 2.385 . S
Cd3 O4 2.317 . S
O4 Cd3 2.317 . S
O4 C5 1.232 . S
C5 O4 1.232 . S
C5 O6 1.218 . S
O6 C5 1.218 . S
C7 O0 1.275 . S
C7 O2 1.255 . S
C8 O9 1.258 . S
C8 O10 1.256 . S
O9 Cd1 2.381 . S
O9 C8 1.258 . S
O10 Cd1 2.378 . S
O10 C8 1.256 . S
O11 Cd12 2.300 . S
O11 C18 1.275 . S
Cd12 O11 2.300 . S
Cd12 O20 2.381 . S
Cd12 O21 2.378 . S
O13 Cd14 2.385 . S
O13 C18 1.255 . S
Cd14 O13 2.385 . S
Cd14 O15 2.317 . S
O15 Cd14 2.317 . S
O15 C16 1.232 . S
C16 O15 1.232 . S
C16 O17 1.218 . S
O17 C16 1.218 . S
C18 O11 1.275 . S
C18 O13 1.255 . S
C19 O20 1.258 . S
C19 O21 1.256 . S
O20 Cd12 2.381 . S
O20 C19 1.258 . S
O21 Cd12 2.378 . S
O21 C19 1.256 . S
O22 Cd23 2.300 . S
O22 C29 1.275 . S
Cd23 O22 2.300 . S
Cd23 O31 2.381 . S
Cd23 O32 2.378 . S
O24 Cd25 2.385 . S
O24 C29 1.255 . S
Cd25 O24 2.385 . S
Cd25 O26 2.317 . S
O26 Cd25 2.317 . S
O26 C27 1.232 . S
C27 O26 1.232 . S
C27 O28 1.218 1_556 S
O28 C27 1.218 1_554 S
C29 O22 1.275 . S
C29 O24 1.255 . S
C30 O31 1.258 . S
C30 O32 1.256 . S
O31 Cd23 2.381 . S
O31 C30 1.258 . S
O32 Cd23 2.378 . S
O32 C30 1.256 . S
O33 Cd34 2.300 . S
O33 C40 1.275 . S
Cd34 O33 2.300 . S
Cd34 O42 2.381 . S
Cd34 O43 2.378 . S
O35 Cd36 2.385 . S
O35 C40 1.255 . S
Cd36 O35 2.385 . S
Cd36 O37 2.317 . S
O37 Cd36 2.317 . S
O37 C38 1.232 . S
C38 O37 1.232 . S
C38 O39 1.218 . S
O39 C38 1.218 . S
C40 O33 1.275 . S
C40 O35 1.255 . S
C41 O42 1.258 . S
C41 O43 1.256 . S
O42 Cd34 2.381 . S
O42 C41 1.258 . S
O43 Cd34 2.378 . S
O43 C41 1.256 . S
O44 Cd45 2.300 . S
O44 C51 1.275 . S
Cd45 O44 2.300 . S
Cd45 O53 2.381 . S
Cd45 O54 2.378 . S
O46 Cd47 2.385 . S
O46 C51 1.255 . S
Cd47 O46 2.385 . S
Cd47 O48 2.317 . S
O48 Cd47 2.317 . S
O48 C49 1.232 . S
C49 O48 1.232 . S
C49 O50 1.218 . S
O50 C49 1.218 . S
C51 O44 1.275 . S
C51 O46 1.255 . S
C52 O53 1.258 . S
C52 O54 1.256 . S
O53 Cd45 2.381 . S
O53 C52 1.258 . S
O54 Cd45 2.378 . S
O54 C52 1.256 . S
O55 Cd56 2.300 . S
O55 C62 1.275 . S
Cd56 O55 2.300 . S
Cd56 O64 2.381 . S
Cd56 O65 2.378 . S
O57 Cd58 2.385 . S
O57 C62 1.255 . S
Cd58 O57 2.385 . S
Cd58 O59 2.317 . S
O59 Cd58 2.317 . S
O59 C60 1.232 . S
C60 O59 1.232 . S
C60 O61 1.218 . S
O61 C60 1.218 . S
C62 O55 1.275 . S
C62 O57 1.255 . S
C63 O64 1.258 . S
C63 O65 1.256 . S
O64 Cd56 2.381 . S
O64 C63 1.258 . S
O65 Cd56 2.378 . S
O65 C63 1.256 . S
O66 Cd67 2.300 . S
O66 C73 1.275 . S
Cd67 O66 2.300 . S
Cd67 O75 2.381 . S
Cd67 O76 2.378 . S
O68 Cd69 2.385 . S
O68 C73 1.255 . S
Cd69 O68 2.385 . S
Cd69 O70 2.317 . S
O70 Cd69 2.317 . S
O70 C71 1.232 . S
C71 O70 1.232 . S
C71 O72 1.218 . S
O72 C71 1.218 . S
C73 O66 1.275 . S
C73 O68 1.255 . S
C74 O75 1.258 . S
C74 O76 1.256 . S
O75 Cd67 2.381 . S
O75 C74 1.258 . S
O76 Cd67 2.378 . S
O76 C74 1.256 . S
O77 Cd78 2.300 . S
O77 C84 1.275 . S
Cd78 O77 2.300 . S
Cd78 O86 2.381 . S
Cd78 O87 2.378 . S
O79 Cd80 2.385 . S
O79 C84 1.255 . S
Cd80 O79 2.385 . S
Cd80 O81 2.317 . S
O81 Cd80 2.317 . S
O81 C82 1.232 . S
C82 O81 1.232 . S
C82 O83 1.218 . S
O83 C82 1.218 . S
C84 O77 1.275 . S
C84 O79 1.255 . S
C85 O86 1.258 . S
C85 O87 1.256 . S
O86 Cd78 2.381 . S
O86 C85 1.258 . S
O87 Cd78 2.378 . S
O87 C85 1.256 . S
C88 O104 1.251 . S
C88 O106 1.254 . S
N89 C90 1.333 . S
N89 C94 1.307 . S
N89 Zn95 2.020 . S
C90 N89 1.333 . S
C90 C91 1.379 . S
C90 H108 0.952 . S
C91 C90 1.379 . S
C91 C92 1.390 . S
C91 H118 0.949 . S
C92 C91 1.390 . S
C92 C93 1.357 . S
C93 C92 1.357 . S
C93 C94 1.370 . S
C93 H119 0.950 . S
C94 N89 1.307 . S
C94 C93 1.370 . S
C94 H112 0.948 . S
Zn95 N89 2.020 . S
Zn95 O104 2.039 . S
Zn95 O110 2.034 . S
Zn95 O114 2.025 . S
Zn95 O116 2.024 1_455 S
C96 O115 1.246 . S
C96 O116 1.249 . S
N97 C98 1.307 1_655 S
N97 C99 1.333 . S
N97 Zn103 2.020 1_655 S
C98 N97 1.307 1_455 S
C98 C102 1.370 1_455 S
C98 H109 0.948 . S
C99 N97 1.333 . S
C99 C100 1.379 . S
C99 H107 0.952 . S
C100 C99 1.379 . S
C100 C101 1.390 . S
C100 H120 0.949 . S
C101 C100 1.390 . S
C101 C102 1.357 . S
C102 C98 1.370 1_655 S
C102 C101 1.357 . S
C102 H121 0.950 1_655 S
Zn103 N97 2.020 1_455 S
Zn103 O106 2.025 1_565 S
Zn103 O111 2.024 . S
Zn103 O113 2.039 1_455 S
Zn103 O115 2.034 1_465 S
O104 C88 1.251 . S
O104 Zn95 2.039 . S
C105 O110 1.246 1_565 S
C105 O111 1.249 . S
O106 C88 1.254 . S
O106 Zn103 2.025 1_545 S
H107 C99 0.952 . S
H108 C90 0.952 . S
H109 C98 0.948 . S
O110 Zn95 2.034 . S
O110 C105 1.246 1_545 S
O111 Zn103 2.024 . S
O111 C105 1.249 . S
H112 C94 0.948 . S
O113 Zn103 2.039 1_655 S
O113 C117 1.251 1_565 S
O114 Zn95 2.025 . S
O114 C117 1.254 1_455 S
O115 C96 1.246 . S
O115 Zn103 2.034 1_645 S
O116 Zn95 2.024 1_655 S
O116 C96 1.249 . S
C117 O113 1.251 1_545 S
C117 O114 1.254 1_655 S
H118 C91 0.949 . S
H119 C93 0.950 . S
H120 C100 0.949 . S
H121 C102 0.950 1_455 S
C122 O138 1.251 . S
C122 O140 1.254 1_545 S
N123 C124 1.333 . S
N123 C128 1.307 . S
N123 Zn129 2.020 . S
C124 N123 1.333 . S
C124 C125 1.379 . S
C124 H142 0.952 . S
C125 C124 1.379 . S
C125 C126 1.390 . S
C125 H152 0.949 . S
C126 C125 1.390 . S
C126 C127 1.357 . S
C127 C126 1.357 . S
C127 C128 1.370 . S
C127 H153 0.950 . S
C128 N123 1.307 . S
C128 C127 1.370 . S
C128 H146 0.948 . S
Zn129 N123 2.020 . S
Zn129 O138 2.039 . S
Zn129 O144 2.034 . S
Zn129 O148 2.025 . S
Zn129 O150 2.024 . S
C130 O149 1.246 1_545 S
C130 O150 1.249 . S
N131 C132 1.307 . S
N131 C133 1.333 . S
N131 Zn137 2.020 . S
C132 N131 1.307 . S
C132 C136 1.370 . S
C132 H143 0.948 . S
C133 N131 1.333 . S
C133 C134 1.379 . S
C133 H141 0.952 . S
C134 C133 1.379 . S
C134 C135 1.390 . S
C134 H154 0.949 . S
C135 C134 1.390 . S
C135 C136 1.357 . S
C136 C132 1.370 . S
C136 C135 1.357 . S
C136 H155 0.950 . S
Zn137 N131 2.020 . S
Zn137 O140 2.025 . S
Zn137 O145 2.024 1_565 S
Zn137 O147 2.039 1_565 S
Zn137 O149 2.034 . S
O138 C122 1.251 . S
O138 Zn129 2.039 . S
C139 O144 1.246 . S
C139 O145 1.249 . S
O140 C122 1.254 1_565 S
O140 Zn137 2.025 . S
H141 C133 0.952 . S
H142 C124 0.952 . S
H143 C132 0.948 . S
O144 Zn129 2.034 . S
O144 C139 1.246 . S
O145 Zn137 2.024 1_545 S
O145 C139 1.249 . S
H146 C128 0.948 . S
O147 Zn137 2.039 1_545 S
O147 C151 1.251 . S
O148 Zn129 2.025 . S
O148 C151 1.254 . S
O149 C130 1.246 1_565 S
O149 Zn137 2.034 . S
O150 Zn129 2.024 . S
O150 C130 1.249 . S
C151 O147 1.251 . S
C151 O148 1.254 . S
H152 C125 0.949 . S
H153 C127 0.950 . S
H154 C134 0.949 . S
H155 C136 0.950 . S
C156 O172 1.251 . S
C156 O174 1.254 . S
N157 C158 1.333 . S
N157 C162 1.307 . S
N157 Zn163 2.020 . S
C158 N157 1.333 . S
C158 C159 1.379 . S
C158 H176 0.952 . S
C159 C158 1.379 . S
C159 C160 1.390 . S
C159 H186 0.949 . S
C160 C159 1.390 . S
C160 C161 1.357 . S
C161 C160 1.357 . S
C161 C162 1.370 . S
C161 H187 0.950 . S
C162 N157 1.307 . S
C162 C161 1.370 . S
C162 H180 0.948 . S
Zn163 N157 2.020 . S
Zn163 O172 2.039 . S
Zn163 O178 2.034 . S
Zn163 O182 2.025 . S
Zn163 O184 2.024 . S
C164 O183 1.246 . S
C164 O184 1.249 . S
N165 C166 1.307 . S
N165 C167 1.333 . S
N165 Zn171 2.020 . S
C166 N165 1.307 . S
C166 C170 1.370 . S
C166 H177 0.948 . S
C167 N165 1.333 . S
C167 C168 1.379 . S
C167 H175 0.952 . S
C168 C167 1.379 . S
C168 C169 1.390 . S
C168 H188 0.949 . S
C169 C168 1.390 . S
C169 C170 1.357 . S
C170 C166 1.370 . S
C170 C169 1.357 . S
C170 H189 0.950 . S
Zn171 N165 2.020 . S
Zn171 O174 2.025 . S
Zn171 O179 2.024 . S
Zn171 O181 2.039 . S
Zn171 O183 2.034 . S
O172 C156 1.251 . S
O172 Zn163 2.039 . S
C173 O178 1.246 . S
C173 O179 1.249 . S
O174 C156 1.254 . S
O174 Zn171 2.025 . S
H175 C167 0.952 . S
H176 C158 0.952 . S
H177 C166 0.948 . S
O178 Zn163 2.034 . S
O178 C173 1.246 . S
O179 Zn171 2.024 . S
O179 C173 1.249 . S
H180 C162 0.948 . S
O181 Zn171 2.039 . S
O181 C185 1.251 . S
O182 Zn163 2.025 . S
O182 C185 1.254 . S
O183 C164 1.246 . S
O183 Zn171 2.034 . S
O184 Zn163 2.024 . S
O184 C164 1.249 . S
C185 O181 1.251 . S
C185 O182 1.254 . S
H186 C159 0.949 . S
H187 C161 0.950 . S
H188 C168 0.949 . S
H189 C170 0.950 . S
C190 O206 1.251 . S
C190 O208 1.254 1_554 S
N191 C192 1.333 . S
N191 C196 1.307 1_455 S
N191 Zn197 2.020 . S
C192 N191 1.333 . S
C192 C193 1.379 1_455 S
C192 H210 0.952 . S
C193 C192 1.379 1_655 S
C193 C194 1.390 . S
C193 H220 0.949 . S
C194 C193 1.390 . S
C194 C195 1.357 . S
C195 C194 1.357 . S
C195 C196 1.370 . S
C195 H221 0.950 . S
C196 N191 1.307 1_655 S
C196 C195 1.370 . S
C196 H214 0.948 . S
Zn197 N191 2.020 . S
Zn197 O206 2.039 . S
Zn197 O212 2.034 . S
Zn197 O216 2.025 . S
Zn197 O218 2.024 1_455 S
C198 O217 1.246 1_554 S
C198 O218 1.249 . S
N199 C200 1.307 . S
N199 C201 1.333 . S
N199 Zn205 2.020 . S
C200 N199 1.307 . S
C200 C204 1.370 . S
C200 H211 0.948 . S
C201 N199 1.333 . S
C201 C202 1.379 . S
C201 H209 0.952 . S
C202 C201 1.379 . S
C202 C203 1.390 . S
C202 H222 0.949 . S
C203 C202 1.390 . S
C203 C204 1.357 . S
C204 C200 1.370 . S
C204 C203 1.357 . S
C204 H223 0.950 . S
Zn205 N199 2.020 . S
Zn205 O208 2.025 . S
Zn205 O213 2.024 1_556 S
Zn205 O215 2.039 1_556 S
Zn205 O217 2.034 1_455 S
O206 C190 1.251 . S
O206 Zn197 2.039 . S
C207 O212 1.246 . S
C207 O213 1.249 . S
O208 C190 1.254 1_556 S
O208 Zn205 2.025 . S
H209 C201 0.952 . S
H210 C192 0.952 . S
H211 C200 0.948 . S
O212 Zn197 2.034 . S
O212 C207 1.246 . S
O213 Zn205 2.024 1_554 S
O213 C207 1.249 . S
H214 C196 0.948 . S
O215 Zn205 2.039 1_554 S
O215 C219 1.251 . S
O216 Zn197 2.025 . S
O216 C219 1.254 . S
O217 C198 1.246 1_556 S
O217 Zn205 2.034 1_655 S
O218 Zn197 2.024 1_655 S
O218 C198 1.249 . S
C219 O215 1.251 . S
C219 O216 1.254 . S
H220 C193 0.949 . S
H221 C195 0.950 . S
H222 C202 0.949 . S
H223 C204 0.950 . S
H224 C230 0.930 . S
H225 C234 0.930 . S
H226 C239 0.929 . S
H227 C237 0.929 . S
H228 C232 0.929 . S
H229 C238 0.929 . S
C230 H224 0.930 . S
C230 C231 1.367 . S
C230 C238 1.378 . S
C231 C230 1.367 . S
C231 C239 1.433 . S
C232 H228 0.929 . S
C232 C234 1.378 . S
C232 C236 1.350 . S
C233 C236 1.463 . S
C233 C238 1.350 . S
C233 N241 1.427 . S
C234 H225 0.930 . S
C234 C232 1.378 . S
C234 C235 1.367 . S
C235 C234 1.367 . S
C235 C237 1.433 . S
C236 C232 1.350 . S
C236 C233 1.463 . S
C236 N240 1.427 . S
C237 H227 0.929 . S
C237 C235 1.433 . S
C237 N240 1.384 . S
C238 H229 0.929 . S
C238 C230 1.378 . S
C238 C233 1.350 . S
C239 H226 0.929 . S
C239 C231 1.433 . S
C239 N241 1.384 . S
N240 C236 1.427 . S
N240 C237 1.384 . S
N241 C233 1.427 . S
N241 C239 1.384 . S
H242 C248 0.930 . S
H243 C252 0.930 . S
H244 C257 0.929 . S
H245 C255 0.929 . S
H246 C250 0.929 . S
H247 C256 0.929 . S
C248 H242 0.930 . S
C248 C249 1.367 . S
C248 C256 1.378 . S
C249 C248 1.367 . S
C249 C257 1.433 . S
C250 H246 0.929 . S
C250 C252 1.378 . S
C250 C254 1.350 1_545 S
C251 C254 1.463 . S
C251 C256 1.350 . S
C251 N259 1.427 . S
C252 H243 0.930 . S
C252 C250 1.378 . S
C252 C253 1.345 1_545 S
C253 C252 1.345 1_565 S
C253 C255 1.461 . S
C254 C250 1.350 1_565 S
C254 C251 1.463 . S
C254 N258 1.427 . S
C255 H245 0.929 . S
C255 C253 1.461 . S
C255 N258 1.384 . S
C256 H247 0.929 . S
C256 C248 1.378 . S
C256 C251 1.350 . S
C257 H244 0.929 . S
C257 C249 1.433 . S
C257 N259 1.384 . S
N258 C254 1.427 . S
N258 C255 1.384 . S
N259 C251 1.427 . S
N259 C257 1.384 . S
H260 C266 0.930 . S
H261 C270 0.930 . S
H262 C275 0.929 . S
H263 C273 0.929 . S
H264 C268 0.929 . S
H265 C274 0.929 . S
C266 H260 0.930 . S
C266 C267 1.367 . S
C266 C274 1.378 . S
C267 C266 1.367 . S
C267 C275 1.433 . S
C268 H264 0.929 . S
C268 C270 1.378 . S
C268 C272 1.350 . S
C269 C272 1.463 . S
C269 C274 1.350 . S
C269 N277 1.427 . S
C270 H261 0.930 . S
C270 C268 1.378 . S
C270 C271 1.367 . S
C271 C270 1.367 . S
C271 C273 1.433 . S
C272 C268 1.350 . S
C272 C269 1.463 . S
C272 N276 1.427 . S
C273 H263 0.929 . S
C273 C271 1.433 . S
C273 N276 1.384 . S
C274 H265 0.929 . S
C274 C266 1.378 . S
C274 C269 1.350 . S
C275 H262 0.929 . S
C275 C267 1.433 . S
C275 N277 1.384 . S
N276 C272 1.427 . S
N276 C273 1.384 . S
N277 C269 1.427 . S
N277 C275 1.384 . S
H278 C284 0.930 . S
H279 C288 0.930 . S
H280 C293 0.929 . S
H281 C291 0.929 . S
H282 C286 0.929 . S
H283 C292 0.929 . S
C284 H278 0.930 . S
C284 C285 1.367 . S
C284 C292 1.378 . S
C285 C284 1.367 . S
C285 C293 1.433 . S
C286 H282 0.929 . S
C286 C288 1.378 . S
C286 C290 1.350 . S
C287 C290 1.463 . S
C287 C292 1.350 . S
C287 N295 1.427 . S
C288 H279 0.930 . S
C288 C286 1.378 . S
C288 C289 1.367 . S
C289 C288 1.367 . S
C289 C291 1.433 . S
C290 C286 1.350 . S
C290 C287 1.463 . S
C290 N294 1.427 . S
C291 H281 0.929 . S
C291 C289 1.433 . S
C291 N294 1.384 . S
C292 H283 0.929 . S
C292 C284 1.378 . S
C292 C287 1.350 . S
C293 H280 0.929 . S
C293 C285 1.433 . S
C293 N295 1.384 . S
N294 C290 1.427 . S
N294 C291 1.384 . S
N295 C287 1.427 . S
N295 C293 1.384 . S
H296 C302 0.930 . S
H297 C306 0.930 . S
H298 C311 0.929 . S
H299 C309 0.929 . S
H300 C304 0.929 . S
H301 C310 0.929 . S
C302 H296 0.930 . S
C302 C303 1.367 . S
C302 C310 1.378 . S
C303 C302 1.367 . S
C303 C311 1.433 . S
C304 H300 0.929 . S
C304 C306 1.378 . S
C304 C308 1.350 . S
C305 C308 1.463 . S
C305 C310 1.350 . S
C305 N313 1.427 . S
C306 H297 0.930 . S
C306 C304 1.378 . S
C306 C307 1.367 . S
C307 C306 1.367 . S
C307 C309 1.433 . S
C308 C304 1.350 . S
C308 C305 1.463 . S
C308 N312 1.427 . S
C309 H299 0.929 . S
C309 C307 1.433 . S
C309 N312 1.384 . S
C310 H301 0.929 . S
C310 C302 1.378 . S
C310 C305 1.350 . S
C311 H298 0.929 . S
C311 C303 1.433 . S
C311 N313 1.384 . S
N312 C308 1.427 . S
N312 C309 1.384 . S
N313 C305 1.427 . S
N313 C311 1.384 . S
H314 C320 0.930 1_545 S
H315 C324 0.930 . S
H316 C329 0.929 . S
H317 C327 0.929 . S
H318 C322 0.929 . S
H319 C328 0.929 . S
C320 H314 0.930 1_565 S
C320 C321 1.367 . S
C320 C328 1.378 1_565 S
C321 C320 1.367 . S
C321 C329 1.433 . S
C322 H318 0.929 . S
C322 C324 1.378 . S
C322 C326 1.350 . S
C323 C326 1.463 . S
C323 C328 1.350 1_565 S
C323 N331 1.427 . S
C324 H315 0.930 . S
C324 C322 1.378 . S
C324 C325 1.367 . S
C325 C324 1.367 . S
C325 C327 1.433 1_565 S
C326 C322 1.350 . S
C326 C323 1.463 . S
C326 N330 1.427 1_565 S
C327 H317 0.929 . S
C327 C325 1.433 1_545 S
C327 N330 1.384 . S
C328 H319 0.929 . S
C328 C320 1.378 1_545 S
C328 C323 1.350 1_545 S
C329 H316 0.929 . S
C329 C321 1.433 . S
C329 N331 1.384 . S
N330 C326 1.427 1_545 S
N330 C327 1.384 . S
N331 C323 1.427 . S
N331 C329 1.384 . S
H332 C338 0.930 . S
H333 C342 0.930 . S
H334 C347 0.929 . S
H335 C345 0.929 . S
H336 C340 0.929 . S
H337 C346 0.929 . S
C338 H332 0.930 . S
C338 C339 1.367 . S
C338 C346 1.378 . S
C339 C338 1.367 . S
C339 C347 1.433 . S
C340 H336 0.929 . S
C340 C342 1.378 . S
C340 C344 1.350 . S
C341 C344 1.463 . S
C341 C346 1.350 . S
C341 N349 1.427 . S
C342 H333 0.930 . S
C342 C340 1.378 . S
C342 C343 1.367 . S
C343 C342 1.367 . S
C343 C345 1.433 1_556 S
C344 C340 1.350 . S
C344 C341 1.463 . S
C344 N348 1.428 . S
C345 H335 0.929 . S
C345 C343 1.433 1_554 S
C345 N348 1.383 1_554 S
C346 H337 0.929 . S
C346 C338 1.378 . S
C346 C341 1.350 . S
C347 H334 0.929 . S
C347 C339 1.433 . S
C347 N349 1.384 . S
N348 C344 1.428 . S
N348 C345 1.383 1_556 S
N349 C341 1.427 . S
N349 C347 1.384 . S
H350 C356 0.930 . S
H351 C360 0.930 . S
H352 C365 0.929 . S
H353 C363 0.929 . S
H354 C358 0.929 . S
H355 C364 0.929 . S
C356 H350 0.930 . S
C356 C357 1.367 . S
C356 C364 1.378 . S
C357 C356 1.367 . S
C357 C365 1.433 . S
C358 H354 0.929 . S
C358 C360 1.378 . S
C358 C362 1.350 . S
C359 C362 1.463 . S
C359 C364 1.350 . S
C359 N367 1.427 . S
C360 H351 0.930 . S
C360 C358 1.378 . S
C360 C361 1.367 . S
C361 C360 1.367 . S
C361 C363 1.433 . S
C362 C358 1.350 . S
C362 C359 1.463 . S
C362 N366 1.427 . S
C363 H353 0.929 . S
C363 C361 1.433 . S
C363 N366 1.384 . S
C364 H355 0.929 . S
C364 C356 1.378 . S
C364 C359 1.350 . S
C365 H352 0.929 . S
C365 C357 1.433 . S
C365 N367 1.384 . S
N366 C362 1.427 . S
N366 C363 1.384 . S
N367 C359 1.427 . S
N367 C365 1.384 . S
H368 C374 0.930 . S
H369 C378 0.930 . S
H370 C383 0.929 . S
H371 C381 0.929 . S
H372 C376 0.929 . S
H373 C382 0.929 . S
C374 H368 0.930 . S
C374 C375 1.367 . S
C374 C382 1.378 . S
C375 C374 1.367 . S
C375 C383 1.433 . S
C376 H372 0.929 . S
C376 C378 1.378 . S
C376 C380 1.350 . S
C377 C380 1.463 . S
C377 C382 1.350 . S
C377 N385 1.427 . S
C378 H369 0.930 . S
C378 C376 1.378 . S
C378 C379 1.367 . S
C379 C378 1.367 . S
C379 C381 1.433 . S
C380 C376 1.350 . S
C380 C377 1.463 . S
C380 N384 1.427 . S
C381 H371 0.929 . S
C381 C379 1.433 . S
C381 N384 1.384 . S
C382 H373 0.929 . S
C382 C374 1.378 . S
C382 C377 1.350 . S
C383 H370 0.929 . S
C383 C375 1.433 . S
C383 N385 1.384 . S
N384 C380 1.427 . S
N384 C381 1.384 . S
N385 C377 1.427 . S
N385 C383 1.384 . S
H386 C392 0.930 . S
H387 C396 0.930 . S
H388 C401 0.929 . S
H389 C399 0.929 . S
H390 C394 0.929 . S
H391 C400 0.929 . S
C392 H386 0.930 . S
C392 C393 1.367 1_556 S
C392 C400 1.378 . S
C393 C392 1.367 1_554 S
C393 C401 1.433 . S
C394 H390 0.929 . S
C394 C396 1.378 . S
C394 C398 1.350 . S
C395 C398 1.463 . S
C395 C400 1.350 1_554 S
C395 N403 1.427 . S
C396 H387 0.930 . S
C396 C394 1.378 . S
C396 C397 1.367 . S
C397 C396 1.367 . S
C397 C399 1.433 1_554 S
C398 C394 1.350 . S
C398 C395 1.463 . S
C398 N402 1.427 1_554 S
C399 H389 0.929 . S
C399 C397 1.433 1_556 S
C399 N402 1.384 . S
C400 H391 0.929 . S
C400 C392 1.378 . S
C400 C395 1.350 1_556 S
C401 H388 0.929 . S
C401 C393 1.433 . S
C401 N403 1.384 . S
N402 C398 1.427 1_556 S
N402 C399 1.384 . S
N403 C395 1.427 . S
N403 C401 1.384 . S
H404 C410 0.930 . S
H405 C414 0.930 . S
H406 C419 0.929 . S
H407 C417 0.929 . S
H408 C412 0.929 . S
H409 C418 0.929 . S
C410 H404 0.930 . S
C410 C411 1.367 . S
C410 C418 1.378 . S
C411 C410 1.367 . S
C411 C419 1.433 . S
C412 H408 0.929 . S
C412 C414 1.378 . S
C412 C416 1.350 . S
C413 C416 1.463 . S
C413 C418 1.350 . S
C413 N421 1.427 . S
C414 H405 0.930 . S
C414 C412 1.378 . S
C414 C415 1.367 . S
C415 C414 1.367 . S
C415 C417 1.433 . S
C416 C412 1.350 . S
C416 C413 1.463 . S
C416 N420 1.427 . S
C417 H407 0.929 . S
C417 C415 1.433 . S
C417 N420 1.384 . S
C418 H409 0.929 . S
C418 C410 1.378 . S
C418 C413 1.350 . S
C419 H406 0.929 . S
C419 C411 1.433 . S
C419 N421 1.384 . S
N420 C416 1.427 . S
N420 C417 1.384 . S
N421 C413 1.427 . S
N421 C419 1.384 . S
H422 C428 0.930 . S
H423 C432 0.930 . S
H424 C437 0.929 . S
H425 C435 0.929 . S
H426 C430 0.929 . S
H427 C436 0.929 . S
C428 H422 0.930 . S
C428 C429 1.367 . S
C428 C436 1.378 . S
C429 C428 1.367 . S
C429 C437 1.433 . S
C430 H426 0.929 . S
C430 C432 1.378 . S
C430 C434 1.350 . S
C431 C434 1.463 . S
C431 C436 1.350 . S
C431 N439 1.427 . S
C432 H423 0.930 . S
C432 C430 1.378 . S
C432 C433 1.367 . S
C433 C432 1.367 . S
C433 C435 1.433 . S
C434 C430 1.350 . S
C434 C431 1.463 . S
C434 N438 1.427 . S
C435 H425 0.929 . S
C435 C433 1.433 . S
C435 N438 1.384 . S
C436 H427 0.929 . S
C436 C428 1.378 . S
C436 C431 1.350 . S
C437 H424 0.929 . S
C437 C429 1.433 . S
C437 N439 1.384 . S
N438 C434 1.427 . S
N438 C435 1.384 . S
N439 C431 1.427 . S
N439 C437 1.384 . S
H440 C446 0.930 . S
H441 C450 0.930 . S
H442 C455 0.929 . S
H443 C453 0.929 . S
H444 C448 0.929 . S
H445 C454 0.929 1_545 S
C446 H440 0.930 . S
C446 C447 1.367 . S
C446 C454 1.378 . S
C447 C446 1.367 . S
C447 C455 1.433 . S
C448 H444 0.929 . S
C448 C450 1.378 . S
C448 C452 1.350 . S
C449 C452 1.463 . S
C449 C454 1.350 . S
C449 N457 1.427 . S
C450 H441 0.930 . S
C450 C448 1.378 . S
C450 C451 1.367 . S
C451 C450 1.367 . S
C451 C453 1.433 1_565 S
C452 C448 1.350 . S
C452 C449 1.463 . S
C452 N456 1.427 1_565 S
C453 H443 0.929 . S
C453 C451 1.433 1_545 S
C453 N456 1.384 . S
C454 H445 0.929 1_565 S
C454 C446 1.378 . S
C454 C449 1.350 . S
C455 H442 0.929 . S
C455 C447 1.433 . S
C455 N457 1.384 . S
N456 C452 1.427 1_545 S
N456 C453 1.384 . S
N457 C449 1.427 . S
N457 C455 1.384 . S
H458 C464 0.930 . S
H459 C468 0.930 . S
H460 C473 0.929 . S
H461 C471 0.929 . S
H462 C466 0.929 . S
H463 C472 0.929 . S
C464 H458 0.930 . S
C464 C465 1.367 . S
C464 C472 1.378 . S
C465 C464 1.367 . S
C465 C473 1.433 . S
C466 H462 0.929 . S
C466 C468 1.378 . S
C466 C470 1.350 . S
C467 C470 1.463 . S
C467 C472 1.350 . S
C467 N475 1.427 . S
C468 H459 0.930 . S
C468 C466 1.378 . S
C468 C469 1.367 . S
C469 C468 1.367 . S
C469 C471 1.433 . S
C470 C466 1.350 . S
C470 C467 1.463 . S
C470 N474 1.427 . S
C471 H461 0.929 . S
C471 C469 1.433 . S
C471 N474 1.384 . S
C472 H463 0.929 . S
C472 C464 1.378 . S
C472 C467 1.350 . S
C473 H460 0.929 . S
C473 C465 1.433 . S
C473 N475 1.384 . S
N474 C470 1.427 . S
N474 C471 1.384 . S
N475 C467 1.427 . S
N475 C473 1.384 . S
H476 C482 0.930 . S
H477 C486 0.930 . S
H478 C491 0.929 . S
H479 C489 0.929 . S
H480 C484 0.929 . S
H481 C490 0.929 . S
C482 H476 0.930 . S
C482 C483 1.367 . S
C482 C490 1.378 . S
C483 C482 1.367 . S
C483 C491 1.433 . S
C484 H480 0.929 . S
C484 C486 1.378 . S
C484 C488 1.350 . S
C485 C488 1.463 . S
C485 C490 1.350 . S
C485 N493 1.427 . S
C486 H477 0.930 . S
C486 C484 1.378 . S
C486 C487 1.367 . S
C487 C486 1.367 . S
C487 C489 1.433 . S
C488 C484 1.350 . S
C488 C485 1.463 . S
C488 N492 1.427 . S
C489 H479 0.929 . S
C489 C487 1.433 . S
C489 N492 1.384 . S
C490 H481 0.929 . S
C490 C482 1.378 . S
C490 C485 1.350 . S
C491 H478 0.929 . S
C491 C483 1.433 . S
C491 N493 1.384 . S
N492 C488 1.427 . S
N492 C489 1.384 . S
N493 C485 1.427 . S
N493 C491 1.384 . S
H494 C500 0.930 . S
H495 C504 0.930 . S
H496 C509 0.929 . S
H497 C507 0.929 . S
H498 C502 0.929 . S
H499 C508 0.929 . S
C500 H494 0.930 . S
C500 C501 1.367 . S
C500 C508 1.378 . S
C501 C500 1.367 . S
C501 C509 1.433 . S
C502 H498 0.929 . S
C502 C504 1.378 . S
C502 C506 1.350 . S
C503 C506 1.463 . S
C503 C508 1.350 . S
C503 N511 1.427 . S
C504 H495 0.930 . S
C504 C502 1.378 . S
C504 C505 1.367 . S
C505 C504 1.367 . S
C505 C507 1.433 . S
C506 C502 1.350 . S
C506 C503 1.463 . S
C506 N510 1.427 . S
C507 H497 0.929 . S
C507 C505 1.433 . S
C507 N510 1.384 . S
C508 H499 0.929 . S
C508 C500 1.378 . S
C508 C503 1.350 . S
C509 H496 0.929 . S
C509 C501 1.433 . S
C509 N511 1.384 . S
N510 C506 1.427 . S
N510 C507 1.384 . S
N511 C503 1.427 . S
N511 C509 1.384 . S
H512 C518 0.930 . S
H513 C522 0.930 . S
H514 C527 0.929 1_545 S
H515 C525 0.929 . S
H516 C520 0.929 1_556 S
H517 C526 0.943 . S
C518 H512 0.930 . S
C518 C519 1.367 . S
C518 C526 1.378 . S
C519 C518 1.367 . S
C519 C527 1.433 . S
C520 H516 0.929 1_554 S
C520 C522 1.378 . S
C520 C524 1.350 1_545 S
C521 C524 1.463 1_556 S
C521 C526 1.350 . S
C521 N529 1.449 . S
C522 H513 0.930 . S
C522 C520 1.378 . S
C522 C523 1.367 1_545 S
C523 C522 1.367 1_565 S
C523 C525 1.433 . S
C524 C520 1.350 1_565 S
C524 C521 1.463 1_554 S
C524 N528 1.427 . S
C525 H515 0.929 . S
C525 C523 1.433 . S
C525 N528 1.384 . S
C526 H517 0.943 . S
C526 C518 1.378 . S
C526 C521 1.350 . S
C527 H514 0.929 1_565 S
C527 C519 1.433 . S
C527 N529 1.391 . S
N528 C524 1.427 . S
N528 C525 1.384 . S
N529 C521 1.449 . S
N529 C527 1.391 . S
H530 C536 0.930 . S
H531 C540 0.930 . S
H532 C545 0.929 . S
H533 C543 0.929 . S
H534 C538 0.929 . S
H535 C544 0.929 . S
C536 H530 0.930 . S
C536 C537 1.367 . S
C536 C544 1.378 . S
C537 C536 1.367 . S
C537 C545 1.433 . S
C538 H534 0.929 . S
C538 C540 1.378 . S
C538 C542 1.350 . S
C539 C542 1.463 . S
C539 C544 1.350 . S
C539 N547 1.427 . S
C540 H531 0.930 . S
C540 C538 1.378 . S
C540 C541 1.367 . S
C541 C540 1.367 . S
C541 C543 1.433 . S
C542 C538 1.350 . S
C542 C539 1.463 . S
C542 N546 1.427 . S
C543 H533 0.929 . S
C543 C541 1.433 . S
C543 N546 1.384 . S
C544 H535 0.929 . S
C544 C536 1.378 . S
C544 C539 1.350 . S
C545 H532 0.929 . S
C545 C537 1.433 . S
C545 N547 1.384 . S
N546 C542 1.427 . S
N546 C543 1.384 . S
N547 C539 1.427 . S
N547 C545 1.384 . S
H548 C554 0.930 . S
H549 C558 0.930 . S
H550 C563 0.929 . S
H551 C561 0.929 . S
H552 C556 0.929 . S
H553 C562 0.929 . S
C554 H548 0.930 . S
C554 C555 1.367 . S
C554 C562 1.378 . S
C555 C554 1.367 . S
C555 C563 1.433 . S
C556 H552 0.929 . S
C556 C558 1.378 . S
C556 C560 1.350 . S
C557 C560 1.463 . S
C557 C562 1.350 . S
C557 N565 1.427 . S
C558 H549 0.930 . S
C558 C556 1.378 . S
C558 C559 1.367 . S
C559 C558 1.367 . S
C559 C561 1.433 . S
C560 C556 1.350 . S
C560 C557 1.463 . S
C560 N564 1.427 . S
C561 H551 0.929 . S
C561 C559 1.433 . S
C561 N564 1.384 . S
C562 H553 0.929 . S
C562 C554 1.378 . S
C562 C557 1.350 . S
C563 H550 0.929 . S
C563 C555 1.433 . S
C563 N565 1.384 . S
N564 C560 1.427 . S
N564 C561 1.384 . S
N565 C557 1.427 . S
N565 C563 1.384 . S
H566 C572 0.930 . S
H567 C576 0.930 . S
H568 C581 0.929 . S
H569 C579 0.929 . S
H570 C574 0.929 . S
H571 C580 0.929 . S
C572 H566 0.930 . S
C572 C573 1.367 . S
C572 C580 1.378 . S
C573 C572 1.367 . S
C573 C581 1.433 . S
C574 H570 0.929 . S
C574 C576 1.378 . S
C574 C578 1.350 . S
C575 C578 1.463 . S
C575 C580 1.350 . S
C575 N583 1.427 . S
C576 H567 0.930 . S
C576 C574 1.378 . S
C576 C577 1.367 . S
C577 C576 1.367 . S
C577 C579 1.433 . S
C578 C574 1.350 . S
C578 C575 1.463 . S
C578 N582 1.427 . S
C579 H569 0.929 . S
C579 C577 1.433 . S
C579 N582 1.384 . S
C580 H571 0.929 . S
C580 C572 1.378 . S
C580 C575 1.350 . S
C581 H568 0.929 . S
C581 C573 1.433 . S
C581 N583 1.384 . S
N582 C578 1.427 . S
N582 C579 1.384 . S
N583 C575 1.427 . S
N583 C581 1.384 . S
H584 C590 0.930 . S
H585 C594 0.930 . S
H586 C599 0.929 1_554 S
H587 C597 0.929 . S
H588 C592 0.929 . S
H589 C598 0.929 . S
C590 H584 0.930 . S
C590 C591 1.367 . S
C590 C598 1.378 . S
C591 C590 1.367 . S
C591 C599 1.433 . S
C592 H588 0.929 . S
C592 C594 1.378 . S
C592 C596 1.350 1_454 S
C593 C596 1.463 . S
C593 C598 1.350 . S
C593 N601 1.427 . S
C594 H585 0.930 . S
C594 C592 1.378 . S
C594 C595 1.367 1_554 S
C595 C594 1.367 1_556 S
C595 C597 1.433 1_455 S
C596 C592 1.350 1_656 S
C596 C593 1.463 . S
C596 N600 1.427 . S
C597 H587 0.929 . S
C597 C595 1.433 1_655 S
C597 N600 1.384 . S
C598 H589 0.929 . S
C598 C590 1.378 . S
C598 C593 1.350 . S
C599 H586 0.929 1_556 S
C599 C591 1.433 . S
C599 N601 1.384 . S
N600 C596 1.427 . S
N600 C597 1.384 . S
N601 C593 1.427 . S
N601 C599 1.384 . S
H602 C608 0.930 . S
H603 C612 0.930 . S
H604 C617 0.929 . S
H605 C615 0.929 . S
H606 C610 0.929 . S
H607 C616 0.929 . S
C608 H602 0.930 . S
C608 C609 1.367 . S
C608 C616 1.378 . S
C609 C608 1.367 . S
C609 C617 1.433 . S
C610 H606 0.929 . S
C610 C612 1.378 . S
C610 C614 1.350 . S
C611 C614 1.463 . S
C611 C616 1.350 . S
C611 N619 1.427 . S
C612 H603 0.930 . S
C612 C610 1.378 . S
C612 C613 1.367 . S
C613 C612 1.367 . S
C613 C615 1.433 . S
C614 C610 1.350 . S
C614 C611 1.463 . S
C614 N618 1.427 . S
C615 H605 0.929 . S
C615 C613 1.433 . S
C615 N618 1.384 . S
C616 H607 0.929 . S
C616 C608 1.378 . S
C616 C611 1.350 . S
C617 H604 0.929 . S
C617 C609 1.433 . S
C617 N619 1.384 . S
N618 C614 1.427 . S
N618 C615 1.384 . S
N619 C611 1.427 . S
N619 C617 1.384 . S
H620 C626 0.930 . S
H621 C630 0.930 . S
H622 C635 0.929 . S
H623 C633 0.929 . S
H624 C628 0.929 . S
H625 C634 0.929 . S
C626 H620 0.930 . S
C626 C627 1.367 . S
C626 C634 1.378 . S
C627 C626 1.367 . S
C627 C635 1.433 . S
C628 H624 0.929 . S
C628 C630 1.378 . S
C628 C632 1.350 . S
C629 C632 1.463 . S
C629 C634 1.350 . S
C629 N637 1.427 . S
C630 H621 0.930 . S
C630 C628 1.378 . S
C630 C631 1.367 . S
C631 C630 1.367 . S
C631 C633 1.433 . S
C632 C628 1.350 . S
C632 C629 1.463 . S
C632 N636 1.427 . S
C633 H623 0.929 . S
C633 C631 1.433 . S
C633 N636 1.384 . S
C634 H625 0.929 . S
C634 C626 1.378 . S
C634 C629 1.350 . S
C635 H622 0.929 . S
C635 C627 1.433 . S
C635 N637 1.384 . S
N636 C632 1.427 . S
N636 C633 1.384 . S
N637 C629 1.427 . S
N637 C635 1.384 . S
H638 C644 0.930 . S
H639 C648 0.930 . S
H640 C653 0.929 . S
H641 C651 0.929 . S
H642 C646 0.929 . S
H643 C652 0.929 . S
C644 H638 0.930 . S
C644 C645 1.367 . S
C644 C652 1.378 . S
C645 C644 1.367 . S
C645 C653 1.433 . S
C646 H642 0.929 . S
C646 C648 1.378 . S
C646 C650 1.350 . S
C647 C650 1.463 . S
C647 C652 1.350 . S
C647 N655 1.427 . S
C648 H639 0.930 . S
C648 C646 1.378 . S
C648 C649 1.367 . S
C649 C648 1.367 . S
C649 C651 1.433 . S
C650 C646 1.350 . S
C650 C647 1.463 . S
C650 N654 1.427 . S
C651 H641 0.929 . S
C651 C649 1.433 . S
C651 N654 1.384 . S
C652 H643 0.929 . S
C652 C644 1.378 . S
C652 C647 1.350 . S
C653 H640 0.929 . S
C653 C645 1.433 . S
C653 N655 1.384 . S
N654 C650 1.427 . S
N654 C651 1.384 . S
N655 C647 1.427 . S
N655 C653 1.384 . S
C231 C5 2.490 . S
C235 C88 2.647 . S
C249 C18 2.255 . S
C253 C130 2.391 1_566 S
C271 C160 0.816 . S
C267 C30 0.808 . S
C285 C41 0.826 . S
C289 C194 0.820 . S
C307 C151 2.119 . S
C303 C7 2.054 . S
C325 C105 2.134 . S
C321 C16 1.806 . S
C343 C198 1.379 1_556 S
C339 C29 1.252 . S
C361 C164 0.912 . S
C357 C38 0.897 . S
C375 C8 2.282 . S
C379 C219 2.277 . S
C397 C126 1.273 . S
C393 C27 1.036 1_554 S
C411 C40 1.057 . S
C415 C101 1.078 . S
C429 C19 1.760 . S
C433 C185 1.805 . S
C451 C117 2.431 1_565 S
C447 C51 2.378 . S
C465 C62 2.342 . S
C469 C139 2.472 . S
C483 C74 0.896 . S
C487 C169 0.905 . S
C501 C84 0.898 . S
C505 C203 0.925 . S
C519 C49 2.085 . S
C523 C122 2.215 1_565 S
C541 C96 1.841 . S
C537 C63 1.799 . S
C559 C207 1.316 . S
C555 C71 1.041 . S
C577 C173 1.022 . S
C573 C85 0.989 . S
C591 C52 2.256 . S
C595 C190 2.254 1_556 S
C613 C135 1.334 . S
C609 C73 1.222 . S
C631 C92 1.002 . S
C627 C82 0.844 . S
C645 C60 1.985 . S
C649 C156 2.337 . S
