# Generated by pormake.
# Topology anh, (6,3)-cn, num edge types: 1
# Building blocks:
#     Node 0, Type 0, BuildingBlock: GEDQOX_clean_sbu_0, # of connection points: 6
#     Node 1, Type 0, BuildingBlock: GEDQOX_clean_sbu_0, # of connection points: 6
#     Node 2, Type 0, BuildingBlock: GEDQOX_clean_sbu_0, # of connection points: 6
#     Node 3, Type 1, BuildingBlock: OLANEW_clean_sbu_2, # of connection points: 3
#     Node 4, Type 1, BuildingBlock: OLANEW_clean_sbu_2, # of connection points: 3
#     Node 5, Type 1, BuildingBlock: OLANEW_clean_sbu_2, # of connection points: 3
#     Node 6, Type 1, BuildingBlock: OLANEW_clean_sbu_2, # of connection points: 3
#     Node 7, Type 1, BuildingBlock: OLANEW_clean_sbu_2, # of connection points: 3
#     Node 8, Type 1, BuildingBlock: OLANEW_clean_sbu_2, # of connection points: 3
#     Edge 9, Type (0, 1), BuildingBlock: UVAHIK_clean_linker_0, # of connection points: 2
#     Edge 10, Type (0, 1), BuildingBlock: UVAHIK_clean_linker_0, # of connection points: 2
#     Edge 11, Type (0, 1), BuildingBlock: UVAHIK_clean_linker_0, # of connection points: 2
#     Edge 12, Type (0, 1), BuildingBlock: UVAHIK_clean_linker_0, # of connection points: 2
#     Edge 13, Type (0, 1), BuildingBlock: UVAHIK_clean_linker_0, # of connection points: 2
#     Edge 14, Type (0, 1), BuildingBlock: UVAHIK_clean_linker_0, # of connection points: 2
#     Edge 15, Type (0, 1), BuildingBlock: UVAHIK_clean_linker_0, # of connection points: 2
#     Edge 16, Type (0, 1), BuildingBlock: UVAHIK_clean_linker_0, # of connection points: 2
#     Edge 17, Type (0, 1), BuildingBlock: UVAHIK_clean_linker_0, # of connection points: 2
#     Edge 18, Type (0, 1), BuildingBlock: UVAHIK_clean_linker_0, # of connection points: 2
#     Edge 19, Type (0, 1), BuildingBlock: UVAHIK_clean_linker_0, # of connection points: 2
#     Edge 20, Type (0, 1), BuildingBlock: UVAHIK_clean_linker_0, # of connection points: 2
#     Edge 21, Type (0, 1), BuildingBlock: UVAHIK_clean_linker_0, # of connection points: 2
#     Edge 22, Type (0, 1), BuildingBlock: UVAHIK_clean_linker_0, # of connection points: 2
#     Edge 23, Type (0, 1), BuildingBlock: UVAHIK_clean_linker_0, # of connection points: 2
#     Edge 24, Type (0, 1), BuildingBlock: UVAHIK_clean_linker_0, # of connection points: 2
#     Edge 25, Type (0, 1), BuildingBlock: UVAHIK_clean_linker_0, # of connection points: 2
#     Edge 26, Type (0, 1), BuildingBlock: UVAHIK_clean_linker_0, # of connection points: 2
# Relax obj value: 0.112
# Max RMSD: 0.157
# Mean RMSD: 0.111
data_MOF--net-anh--node1-GEDQOX_clean_sbu_0--node2-OLANEW_clean_sbu_2--edge1-UVAHIK_clean_linker_0
_symmetry_space_group_name_H-M    P1
_symmetry_Int_Tables_number       1
_symmetry_cell_setting            triclinic
loop_
_symmetry_equiv_pos_as_xyz
'x, y, z'
_cell_length_a     46.002235
_cell_length_b     42.001897
_cell_length_c     65.001717
_cell_angle_alpha  92.805676
_cell_angle_beta   90.285753
_cell_angle_gamma 110.63734
loop_
_atom_site_label
_atom_site_type_symbol
_atom_site_fract_x
_atom_site_fract_y
_atom_site_fract_z
_atom_type_partial_charge
Nd0 Nd 0.04352 0.55475 0.13161 0.0
Nd1 Nd 0.0197 0.48154 0.14263 0.0
C2 C 0.07253 0.61483 0.1164 0.0
C3 C 0.10356 0.64132 0.11907 0.0
C4 C 0.12891 0.63345 0.12629 0.0
C5 C 0.15781 0.65925 0.13007 0.0
C6 C 0.16177 0.69342 0.12692 0.0
C7 C 0.13636 0.70106 0.11943 0.0
C8 C 0.10753 0.67522 0.11553 0.0
C9 C 0.03915 0.54586 0.17316 0.0
C10 C 0.09321 0.51418 0.13677 0.0
C11 C 0.99102 0.42265 0.15929 0.0
C12 C 0.959 0.39837 0.16129 0.0
C13 C 0.93494 0.40913 0.16831 0.0
C14 C 0.90492 0.38547 0.17035 0.0
C15 C 0.89828 0.35059 0.16531 0.0
C16 C 0.92242 0.34009 0.15803 0.0
C17 C 0.95244 0.3637 0.15612 0.0
C18 C 0.02389 0.49042 0.101 0.0
C19 C 0.96978 0.52111 0.13605 0.0
O20 O 0.07108 0.58594 0.10709 0.0
O21 O 0.05488 0.61066 0.13246 0.0
O22 O 0.03216 0.56924 0.1643 0.0
O23 O 0.04939 0.52911 0.16039 0.0
O24 O 0.08699 0.53912 0.12827 0.0
O25 O 0.07151 0.49035 0.14626 0.0
O26 O 0.99851 0.45219 0.16951 0.0
O27 O 1.00253 0.42496 0.14085 0.0
O28 O 0.03067 0.46679 0.10983 0.0
O29 O 0.01388 0.50725 0.11385 0.0
O30 O 0.976 0.49683 0.14535 0.0
O31 O 0.99165 0.54448 0.12635 0.0
H32 H 0.12621 0.60749 0.12939 0.0
H33 H 0.17679 0.65256 0.13607 0.0
H34 H 0.13874 0.72707 0.11665 0.0
H35 H 0.08818 0.68178 0.11005 0.0
H36 H 0.93931 0.43576 0.17236 0.0
H37 H 0.88706 0.3945 0.17621 0.0
H38 H 0.91813 0.31359 0.15363 0.0
H39 H 0.97059 0.35486 0.15058 0.0
Nd40 Nd 0.47303 0.999 0.5107 0.0
Nd41 Nd 0.5415 0.02055 0.50122 0.0
C42 C 0.4161 0.97008 0.5244 0.0
C43 C 0.39085 0.93699 0.52105 0.0
C44 C 0.36278 0.93078 0.53123 0.0
C45 C 0.33827 0.89974 0.52768 0.0
C46 C 0.34143 0.87434 0.51386 0.0
C47 C 0.36985 0.88063 0.50387 0.0
C48 C 0.39433 0.91171 0.50742 0.0
C49 C 0.48672 0.00898 0.46995 0.0
C50 C 0.50453 0.94017 0.50119 0.0
C51 C 0.5977 0.04791 0.4861 0.0
C52 C 0.62333 0.08088 0.48631 0.0
C53 C 0.64907 0.08417 0.47408 0.0
C54 C 0.67416 0.11496 0.4744 0.0
C55 C 0.674 0.1431 0.48703 0.0
C56 C 0.64784 0.13979 0.49909 0.0
C57 C 0.6227 0.10888 0.49875 0.0
C58 C 0.52825 0.00931 0.54187 0.0
C59 C 0.5103 0.07929 0.51211 0.0
O60 O 0.44099 0.96982 0.53411 0.0
O61 O 0.42254 0.98935 0.50863 0.0
O62 O 0.46556 0.01789 0.47908 0.0
O63 O 0.49864 0.99412 0.48192 0.0
O64 O 0.4821 0.9482 0.51014 0.0
O65 O 0.52867 0.9636 0.49342 0.0
O66 O 0.57224 0.04572 0.47611 0.0
O67 O 0.59235 0.03286 0.50354 0.0
O68 O 0.54954 1.00112 0.53235 0.0
O69 O 0.51601 0.02464 0.53037 0.0
O70 O 0.5325 0.0716 0.50255 0.0
O71 O 0.48641 0.05549 0.51985 0.0
H72 H 0.35976 0.95002 0.54184 0.0
H73 H 0.31688 0.89557 0.53584 0.0
H74 H 0.37297 0.86184 0.49296 0.0
H75 H 0.41585 0.91619 0.49935 0.0
H76 H 0.64984 0.06282 0.46432 0.0
H77 H 0.69362 0.11678 0.46463 0.0
H78 H 0.64705 0.16086 0.50908 0.0
H79 H 0.60293 0.1067 0.5083 0.0
Nd80 Nd 0.49022 0.50874 0.8452 0.0
Nd81 Nd 0.55604 0.54328 0.86396 0.0
C82 C 0.43836 0.48807 0.82256 0.0
C83 C 0.40731 0.49092 0.82258 0.0
C84 C 0.39542 0.49924 0.80454 0.0
C85 C 0.36528 0.50001 0.80385 0.0
C86 C 0.34635 0.49222 0.8212 0.0
C87 C 0.35865 0.48455 0.83939 0.0
C88 C 0.38884 0.48406 0.84011 0.0
C89 C 0.49291 0.51378 0.88754 0.0
C90 C 0.518 0.59193 0.85362 0.0
C91 C 0.60741 0.56547 0.88719 0.0
C92 C 0.63828 0.563 0.88947 0.0
C93 C 0.64561 0.5362 0.87989 0.0
C94 C 0.67573 0.53545 0.88186 0.0
C95 C 0.69887 0.56151 0.89342 0.0
C96 C 0.69117 0.5882 0.90294 0.0
C97 C 0.66119 0.58888 0.90099 0.0
C98 C 0.55295 0.53838 0.82158 0.0
C99 C 0.52896 0.46024 0.85436 0.0
O100 O 0.462 0.51559 0.81903 0.0
O101 O 0.44435 0.47016 0.83681 0.0
O102 O 0.47253 0.48886 0.87696 0.0
O103 O 0.5087 0.53618 0.8759 0.0
O104 O 0.49923 0.56595 0.8421 0.0
O105 O 0.53861 0.58802 0.8665 0.0
O106 O 0.58327 0.53874 0.89121 0.0
O107 O 0.60298 0.58096 0.87116 0.0
O108 O 0.57342 0.56334 0.83208 0.0
O109 O 0.53751 0.516 0.8333 0.0
O110 O 0.54765 0.48579 0.86629 0.0
O111 O 0.50845 0.4648 0.84166 0.0
H112 H 0.40932 0.50473 0.79086 0.0
H113 H 0.3568 0.50657 0.78969 0.0
H114 H 0.34468 0.47795 0.85297 0.0
H115 H 0.39745 0.47765 0.85428 0.0
H116 H 0.62815 0.51606 0.87084 0.0
H117 H 0.68084 0.51444 0.87445 0.0
H118 H 0.7085 0.60903 0.91159 0.0
H119 H 0.65597 0.60991 0.90832 0.0
O120 O 0.53111 0.05179 0.24185 0.0
Cd121 Cd 0.53591 0.05315 0.20441 0.0
O122 O 0.52957 0.99883 0.24229 0.0
Cd123 Cd 0.51559 0.98614 0.20986 0.0
O124 O 0.47653 0.95332 0.19032 0.0
C125 C 0.45009 0.95494 0.19448 0.0
O126 O 0.4485 0.97728 0.20889 0.0
C127 C 0.53153 0.02668 0.25186 0.0
C128 C 0.59359 0.10094 0.19482 0.0
O129 O 0.56935 0.10923 0.19604 0.0
O130 O 0.59047 0.06999 0.19783 0.0
O131 O 0.52711 0.50031 0.58919 0.0
Cd132 Cd 0.52136 0.49143 0.55173 0.0
O133 O 0.50526 0.53927 0.59296 0.0
Cd134 Cd 0.49973 0.54907 0.56072 0.0
O135 O 0.49263 0.58699 0.54126 0.0
C136 C 0.51589 0.61117 0.53506 0.0
O137 O 0.54396 0.61127 0.53902 0.0
C138 C 0.51761 0.51976 0.60076 0.0
C139 C 0.51992 0.42563 0.5406 0.0
O140 O 0.5455 0.45116 0.54107 0.0
O141 O 0.49499 0.43131 0.54498 0.0
O142 O 0.95834 0.4413 0.87307 0.0
Cd143 Cd 0.96011 0.43511 0.83564 0.0
O144 O 0.98419 0.49582 0.87074 0.0
Cd145 Cd 0.0123 0.54632 0.88371 0.0
O146 O 0.03804 0.59517 0.89975 0.0
C147 C 0.02492 0.61409 0.90852 0.0
O148 O 0.04205 0.64168 0.91929 0.0
C149 C 0.97193 0.47059 0.88182 0.0
C150 C 0.02122 0.44352 0.82588 0.0
O151 O 1.00158 0.41419 0.82968 0.0
O152 O 0.01169 0.46877 0.82606 0.0
O153 O 0.03743 0.50888 0.40363 0.0
Cd154 Cd 0.03594 0.50842 0.44122 0.0
O155 O 0.99234 0.51572 0.40048 0.0
Cd156 Cd 0.97682 0.50024 0.43138 0.0
O157 O 0.94128 0.4653 0.45002 0.0
C158 C 0.94224 0.43592 0.45275 0.0
O159 O 0.96586 0.42843 0.4456 0.0
C160 C 0.01714 0.51452 0.3925 0.0
C161 C 0.08441 0.56543 0.45789 0.0
O162 O 0.08828 0.53699 0.45403 0.0
O163 O 0.05745 0.56674 0.45425 0.0
O164 O 0.51631 0.99227 0.77317 0.0
Cd165 Cd 0.51674 0.9919 0.81077 0.0
O166 O 0.50129 0.03641 0.77099 0.0
Cd167 Cd 0.50587 0.05354 0.80354 0.0
O168 O 0.5136 0.0992 0.82373 0.0
C169 C 0.53561 0.12583 0.81882 0.0
O170 O 0.55303 0.12341 0.80329 0.0
C171 C 0.508 0.01214 0.76235 0.0
C172 C 0.51449 0.92784 0.82242 0.0
O173 O 0.48957 0.93363 0.81838 0.0
O174 O 0.54049 0.95249 0.82132 0.0
O175 O 0.56865 0.52603 0.1109 0.0
Cd176 Cd 0.59452 0.52385 0.14386 0.0
O177 O 0.52103 0.51955 0.12073 0.0
Cd178 Cd 0.47262 0.51837 0.11666 0.0
O179 O 0.42499 0.5204 0.11633 0.0
C180 C 0.40346 0.49996 0.12657 0.0
O181 O 0.40985 0.47728 0.13715 0.0
C182 C 0.54091 0.52387 0.10655 0.0
C183 C 0.65534 0.52285 0.13996 0.0
O184 O 0.63181 0.49516 0.14059 0.0
O185 O 0.65021 0.55096 0.14089 0.0
C186 C 0.13309 0.48806 0.14542 0.0
C187 C 0.12527 0.51325 0.1357 0.0
C188 C 0.16315 0.48698 0.14418 0.0
C189 C 0.24469 0.53965 0.13237 0.0
H190 H 0.25502 0.45201 0.12636 0.0
C191 C 0.36451 0.52669 0.11644 0.0
C192 C 0.37168 0.50177 0.12693 0.0
C193 C 0.33458 0.52836 0.11712 0.0
C194 C 0.25263 0.47672 0.12825 0.0
H195 H 0.14325 0.5571 0.117 0.0
H196 H 0.19539 0.555 0.11469 0.0
H197 H 0.203 0.45446 0.12847 0.0
H198 H 0.35273 0.45905 0.14638 0.0
H199 H 0.30091 0.46209 0.14765 0.0
H200 H 0.29439 0.56187 0.1321 0.0
C201 C 0.17843 0.53632 0.12353 0.0
C202 C 0.22271 0.47813 0.12949 0.0
C203 C 0.14838 0.53741 0.12478 0.0
C204 C 0.34812 0.47854 0.13804 0.0
C205 C 0.31824 0.48015 0.13868 0.0
C206 C 0.27464 0.53823 0.13109 0.0
C207 C 0.18626 0.51103 0.13317 0.0
C208 C 0.21827 0.50961 0.13166 0.0
C209 C 0.31101 0.50508 0.12825 0.0
C210 C 0.27905 0.50673 0.12911 0.0
H211 H 0.11599 0.4691 0.15403 0.0
H212 H 0.16834 0.46744 0.15208 0.0
H213 H 0.24231 0.56436 0.13432 0.0
H214 H 0.38203 0.54498 0.1077 0.0
H215 H 0.32981 0.54768 0.10871 0.0
C216 C 0.69702 0.20721 0.48783 0.0
C217 C 0.70116 0.17558 0.48756 0.0
C218 C 0.72267 0.23754 0.48738 0.0
C219 C 0.80857 0.2736 0.49538 0.0
H220 H 0.80362 0.34122 0.45836 0.0
C221 C 0.91658 0.37667 0.46438 0.0
C222 C 0.91549 0.40921 0.46159 0.0
C223 C 0.89034 0.35035 0.47065 0.0
C224 C 0.80526 0.32289 0.46904 0.0
H225 H 0.73564 0.15121 0.48741 0.0
H226 H 0.78014 0.20382 0.48611 0.0
H227 H 0.75772 0.2912 0.4635 0.0
H228 H 0.88623 0.43994 0.46402 0.0
H229 H 0.84044 0.39396 0.47503 0.0
H230 H 0.85638 0.30494 0.50046 0.0
C231 C 0.75715 0.20533 0.48686 0.0
C232 C 0.77891 0.29418 0.472 0.0
C233 C 0.73156 0.17508 0.48732 0.0
C234 C 0.88786 0.41515 0.46595 0.0
C235 C 0.86155 0.38875 0.47213 0.0
C236 C 0.83494 0.30227 0.49237 0.0
C237 C 0.75305 0.23695 0.4867 0.0
C238 C 0.78035 0.26889 0.48495 0.0
C239 C 0.86234 0.3559 0.47422 0.0
C240 C 0.83372 0.327 0.47892 0.0
H241 H 0.67393 0.20851 0.4879 0.0
H242 H 0.71868 0.26147 0.48749 0.0
H243 H 0.81036 0.25496 0.50577 0.0
H244 H 0.93748 0.37121 0.46118 0.0
H245 H 0.89168 0.32529 0.47192 0.0
C246 C 0.53972 0.65532 0.86019 0.0
C247 C 0.51576 0.62608 0.85214 0.0
C248 C 0.53833 0.68771 0.85801 0.0
C249 C 0.4989 0.73337 0.82691 0.0
H250 H 0.53373 0.80545 0.86929 0.0
C251 C 0.48579 0.8651 0.82432 0.0
C252 C 0.51333 0.89345 0.82759 0.0
C253 C 0.48507 0.83237 0.82819 0.0
C254 C 0.52404 0.78558 0.8573 0.0
H255 H 0.47111 0.60786 0.83596 0.0
H256 H 0.46815 0.66417 0.83275 0.0
H257 H 0.53363 0.74834 0.87468 0.0
H258 H 0.56151 0.90975 0.83793 0.0
H259 H 0.56008 0.85259 0.84499 0.0
H260 H 0.48889 0.77068 0.80974 0.0
C261 C 0.4885 0.66227 0.84024 0.0
C262 C 0.52409 0.75285 0.86032 0.0
C263 C 0.49009 0.6299 0.8422 0.0
C264 C 0.53995 0.88844 0.83524 0.0
C265 C 0.5391 0.85575 0.83937 0.0
C266 C 0.49852 0.76598 0.82403 0.0
C267 C 0.51276 0.69168 0.84794 0.0
C268 C 0.51173 0.72632 0.84509 0.0
C269 C 0.51175 0.82734 0.83567 0.0
C270 C 0.51128 0.79248 0.83912 0.0
H271 H 0.55995 0.65329 0.8678 0.0
H272 H 0.55772 0.70967 0.86383 0.0
H273 H 0.48972 0.7139 0.81465 0.0
H274 H 0.46489 0.86809 0.81842 0.0
H275 H 0.4636 0.81097 0.82537 0.0
C276 C 0.93104 0.54962 0.12951 0.0
C277 C 0.93748 0.52128 0.13599 0.0
C278 C 0.90064 0.54984 0.12964 0.0
C279 C 0.8184 0.49312 0.1286 0.0
H280 H 0.80319 0.57298 0.15085 0.0
C281 C 0.69351 0.49232 0.14138 0.0
C282 C 0.6875 0.52244 0.1386 0.0
C283 C 0.72391 0.49217 0.14074 0.0
C284 C 0.80694 0.55062 0.14425 0.0
H285 H 0.91676 0.47075 0.1475 0.0
H286 H 0.8638 0.47106 0.14753 0.0
H287 H 0.8561 0.57287 0.15009 0.0
H288 H 0.70883 0.57591 0.13257 0.0
H289 H 0.76158 0.57549 0.13081 0.0
H290 H 0.76944 0.471 0.12238 0.0
C291 C 0.88228 0.49313 0.14235 0.0
C292 C 0.83737 0.55055 0.1439 0.0
C293 C 0.91272 0.49306 0.14245 0.0
C294 C 0.71262 0.5523 0.1349 0.0
C295 C 0.74298 0.55208 0.13405 0.0
C296 C 0.78799 0.4933 0.12874 0.0
C297 C 0.87586 0.52156 0.13602 0.0
C298 C 0.84348 0.52176 0.13614 0.0
C299 C 0.74916 0.52207 0.13709 0.0
C300 C 0.78174 0.52201 0.13665 0.0
H301 H 0.94951 0.5718 0.12445 0.0
H302 H 0.89646 0.57202 0.1245 0.0
H303 H 0.82234 0.47069 0.12227 0.0
H304 H 0.67475 0.4689 0.14439 0.0
H305 H 0.7276 0.46866 0.14351 0.0
C306 C 0.2845 0.84149 0.5074 0.0
C307 C 0.315 0.84171 0.50959 0.0
C308 C 0.25971 0.81098 0.50301 0.0
C309 C 0.2419 0.72313 0.48116 0.0
H310 H 0.16248 0.70676 0.50697 0.0
C311 C 0.14021 0.59461 0.46909 0.0
C312 C 0.11051 0.59609 0.46573 0.0
C313 C 0.16517 0.62389 0.47555 0.0
C314 C 0.18443 0.71106 0.49949 0.0
H315 H 0.34318 0.80977 0.5093 0.0
H316 H 0.29992 0.75653 0.50165 0.0
H317 H 0.20604 0.75903 0.51615 0.0
H318 H 0.08369 0.62948 0.46682 0.0
H319 H 0.12724 0.68056 0.47793 0.0
H320 H 0.22026 0.6753 0.46439 0.0
C321 C 0.29525 0.78007 0.50302 0.0
C322 C 0.2094 0.74104 0.50475 0.0
C323 C 0.32006 0.8106 0.50741 0.0
C324 C 0.10624 0.62741 0.46931 0.0
C325 C 0.13119 0.65669 0.47579 0.0
C326 C 0.21694 0.69315 0.4759 0.0
C327 C 0.26477 0.77989 0.5007 0.0
C328 C 0.23841 0.74754 0.49557 0.0
C329 C 0.16103 0.65536 0.47883 0.0
C330 C 0.18784 0.68681 0.48492 0.0
H331 H 0.27982 0.86503 0.50864 0.0
H332 H 0.23663 0.81187 0.501 0.0
H333 H 0.26376 0.72752 0.47355 0.0
H334 H 0.1443 0.57087 0.46654 0.0
H335 H 0.18773 0.62185 0.47803 0.0
C336 C 0.51132 0.39899 0.84197 0.0
C337 C 0.5315 0.42603 0.85452 0.0
C338 C 0.51317 0.36655 0.84199 0.0
C339 C 0.56601 0.32109 0.85357 0.0
H340 H 0.48986 0.24232 0.84837 0.0
C341 C 0.56175 0.18923 0.82147 0.0
C342 C 0.53921 0.15973 0.82853 0.0
C343 C 0.56288 0.22154 0.82866 0.0
C344 C 0.51139 0.26391 0.85017 0.0
H345 H 0.56953 0.44006 0.87701 0.0
H346 H 0.57267 0.38308 0.87708 0.0
H347 H 0.48722 0.29893 0.8536 0.0
H348 H 0.50131 0.14109 0.84965 0.0
H349 H 0.50356 0.19756 0.86245 0.0
H350 H 0.59017 0.28596 0.85008 0.0
C351 C 0.55553 0.38721 0.86713 0.0
C352 C 0.50986 0.29647 0.85289 0.0
C353 C 0.55365 0.41981 0.86713 0.0
C354 C 0.51881 0.16329 0.84376 0.0
C355 C 0.51999 0.19567 0.85101 0.0
C356 C 0.56755 0.28846 0.85088 0.0
C357 C 0.5352 0.36017 0.8546 0.0
C358 C 0.53711 0.32551 0.85411 0.0
C359 C 0.54155 0.2252 0.84317 0.0
C360 C 0.54024 0.25951 0.84868 0.0
H361 H 0.49401 0.40278 0.832 0.0
H362 H 0.49756 0.34654 0.83184 0.0
H363 H 0.58745 0.34291 0.85441 0.0
H364 H 0.57789 0.18746 0.80977 0.0
H365 H 0.57957 0.24363 0.82209 0.0
C366 C 0.47526 0.87816 0.5056 0.0
C367 C 0.5027 0.9042 0.50031 0.0
C368 C 0.47413 0.84451 0.50612 0.0
C369 C 0.51646 0.78639 0.49023 0.0
H370 H 0.47351 0.7356 0.53605 0.0
C371 C 0.53735 0.66791 0.51933 0.0
C372 C 0.51164 0.6411 0.52612 0.0
C373 C 0.53403 0.69794 0.51322 0.0
C374 C 0.48521 0.7492 0.52298 0.0
H375 H 0.5503 0.91513 0.491 0.0
H376 H 0.54861 0.85669 0.49241 0.0
H377 H 0.47194 0.79197 0.5311 0.0
H378 H 0.46195 0.62426 0.5309 0.0
H379 H 0.45622 0.6767 0.52027 0.0
H380 H 0.53056 0.7438 0.48262 0.0
C381 C 0.52771 0.86205 0.49576 0.0
C382 C 0.48428 0.78157 0.5201 0.0
C383 C 0.52875 0.89567 0.49506 0.0
C384 C 0.48228 0.64445 0.52583 0.0
C385 C 0.479 0.67457 0.51986 0.0
C386 C 0.51757 0.75405 0.49322 0.0
C387 C 0.5005 0.83608 0.50156 0.0
C388 C 0.5001 0.80076 0.5038 0.0
C389 C 0.50495 0.70191 0.51388 0.0
C390 C 0.50215 0.73522 0.50972 0.0
H391 H 0.45466 0.88376 0.50955 0.0
H392 H 0.45258 0.82512 0.51025 0.0
H393 H 0.52849 0.80014 0.47731 0.0
H394 H 0.56028 0.66615 0.51931 0.0
H395 H 0.5545 0.71861 0.50882 0.0
C396 C 0.74601 0.55283 0.87827 0.0
C397 C 0.73115 0.56161 0.89534 0.0
C398 C 0.77724 0.55573 0.87979 0.0
C399 C 0.8486 0.60294 0.90991 0.0
H400 H 0.88001 0.53553 0.8858 0.0
C401 C 0.97509 0.61292 0.92399 0.0
C402 C 0.99087 0.60502 0.90721 0.0
C403 C 0.94304 0.60561 0.92267 0.0
C404 C 0.87164 0.55476 0.89243 0.0
H405 H 0.73701 0.57844 0.92768 0.0
H406 H 0.79135 0.58372 0.93025 0.0
H407 H 0.82449 0.52596 0.8831 0.0
H408 H 0.98577 0.58452 0.87562 0.0
H409 H 0.92978 0.57158 0.87328 0.0
H410 H 0.89556 0.63201 0.919 0.0
C411 C 0.77907 0.57522 0.9156 0.0
C412 C 0.83985 0.54924 0.8909 0.0
C413 C 0.74792 0.5722 0.91411 0.0
C414 C 0.97404 0.58979 0.88904 0.0
C415 C 0.94197 0.58254 0.88768 0.0
C416 C 0.88031 0.60852 0.91136 0.0
C417 C 0.79424 0.56757 0.89838 0.0
C418 C 0.82797 0.5732 0.89974 0.0
C419 C 0.9261 0.5906 0.90443 0.0
C420 C 0.89225 0.58444 0.90274 0.0
H421 H 0.73388 0.54488 0.86353 0.0
H422 H 0.78835 0.54985 0.86621 0.0
H423 H 0.84027 0.62222 0.91652 0.0
H424 H 0.98752 0.62466 0.93819 0.0
H425 H 0.93153 0.6117 0.93598 0.0
C426 C 0.19251 0.75125 0.14289 0.0
C427 C 0.19191 0.72111 0.13219 0.0
C428 C 0.22075 0.77689 0.14854 0.0
C429 C 0.30416 0.81032 0.13671 0.0
H430 H 0.31271 0.85261 0.19186 0.0
C431 C 0.42188 0.90242 0.172 0.0
C432 C 0.42119 0.93007 0.18484 0.0
C433 C 0.3942 0.87743 0.16449 0.0
C434 C 0.31062 0.84144 0.17631 0.0
H435 H 0.22055 0.69458 0.11868 0.0
H436 H 0.26998 0.73939 0.12865 0.0
H437 H 0.26403 0.80811 0.1809 0.0
H438 H 0.39088 0.95383 0.19915 0.0
H439 H 0.34287 0.91079 0.18581 0.0
H440 H 0.35081 0.84383 0.13212 0.0
C441 C 0.24854 0.74318 0.13259 0.0
C442 C 0.2827 0.81586 0.17004 0.0
C443 C 0.22025 0.7174 0.12705 0.0
C444 C 0.39229 0.93275 0.18944 0.0
C445 C 0.3647 0.90789 0.1819 0.0
C446 C 0.33214 0.83607 0.14297 0.0
C447 C 0.2491 0.7731 0.14355 0.0
C448 C 0.27906 0.80007 0.15015 0.0
C449 C 0.36524 0.8796 0.16963 0.0
C450 C 0.33566 0.85206 0.16283 0.0
H451 H 0.17112 0.75477 0.14728 0.0
H452 H 0.22037 0.79978 0.15678 0.0
H453 H 0.30199 0.79887 0.12122 0.0
H454 H 0.44375 0.89955 0.1682 0.0
H455 H 0.39549 0.85588 0.15521 0.0
C456 C 0.53927 0.14188 0.50882 0.0
C457 C 0.51233 0.11532 0.51435 0.0
C458 C 0.54084 0.1758 0.51074 0.0
C459 C 0.49133 0.2283 0.51347 0.0
H460 H 0.5642 0.29831 0.53833 0.0
C461 C 0.49184 0.36241 0.53793 0.0
C462 C 0.51927 0.39052 0.53575 0.0
C463 C 0.4915 0.32919 0.53427 0.0
C464 C 0.54386 0.27922 0.53105 0.0
H465 H 0.4659 0.10368 0.5262 0.0
H466 H 0.46866 0.16269 0.52946 0.0
H467 H 0.56296 0.23983 0.53387 0.0
H468 H 0.56775 0.40576 0.52758 0.0
H469 H 0.56699 0.34787 0.52072 0.0
H470 H 0.47224 0.26752 0.51048 0.0
C471 C 0.4885 0.15729 0.52356 0.0
C472 C 0.54314 0.24567 0.52855 0.0
C473 C 0.48703 0.12346 0.52181 0.0
C474 C 0.54625 0.38466 0.52949 0.0
C475 C 0.54586 0.35142 0.5257 0.0
C476 C 0.49212 0.26185 0.51583 0.0
C477 C 0.51539 0.18385 0.51802 0.0
C478 C 0.51675 0.21977 0.51992 0.0
C479 C 0.51853 0.32322 0.52818 0.0
C480 C 0.51827 0.28773 0.52484 0.0
H481 H 0.55919 0.13653 0.50302 0.0
H482 H 0.5618 0.1957 0.50623 0.0
H483 H 0.47085 0.20901 0.50646 0.0
H484 H 0.47069 0.36599 0.54284 0.0
H485 H 0.47014 0.30818 0.53666 0.0
C486 C 0.30015 0.50148 0.83734 0.0
C487 C 0.31356 0.49079 0.82018 0.0
C488 C 0.26877 0.49783 0.8369 0.0
C489 C 0.19839 0.46273 0.83587 0.0
H490 H 0.15947 0.48844 0.78958 0.0
C491 C 0.06561 0.42226 0.82648 0.0
C492 C 0.05427 0.44841 0.82252 0.0
C493 C 0.09728 0.42772 0.82505 0.0
C494 C 0.17009 0.48122 0.80261 0.0
H495 H 0.30432 0.46838 0.78892 0.0
H496 H 0.24974 0.46281 0.78805 0.0
H497 H 0.21538 0.499 0.78955 0.0
H498 H 0.0671 0.50042 0.81326 0.0
H499 H 0.12246 0.50977 0.81051 0.0
H500 H 0.15321 0.44481 0.84891 0.0
C501 C 0.26365 0.47405 0.80182 0.0
C502 C 0.20197 0.48707 0.80255 0.0
C503 C 0.29498 0.47737 0.80232 0.0
C504 C 0.07513 0.47978 0.81643 0.0
C505 C 0.10679 0.48511 0.81478 0.0
C506 C 0.16651 0.4565 0.83582 0.0
C507 C 0.25014 0.48375 0.81921 0.0
C508 C 0.21643 0.47797 0.81922 0.0
C509 C 0.11823 0.45932 0.81943 0.0
C510 C 0.15203 0.4657 0.81921 0.0
H511 H 0.31387 0.51257 0.8512 0.0
H512 H 0.25904 0.50599 0.85043 0.0
H513 H 0.20886 0.45515 0.84884 0.0
H514 H 0.05017 0.39779 0.8312 0.0
H515 H 0.10544 0.40727 0.82849 0.0
C516 C 0.83989 0.33311 0.16321 0.0
C517 C 0.86644 0.32519 0.16776 0.0
C518 C 0.81008 0.30917 0.16553 0.0
C519 C 0.76759 0.21693 0.16775 0.0
H520 H 0.70442 0.24412 0.19477 0.0
C521 C 0.6514 0.1183 0.19202 0.0
C522 C 0.62439 0.12648 0.1905 0.0
C523 C 0.68058 0.14267 0.18859 0.0
C524 C 0.72159 0.23614 0.1869 0.0
H525 H 0.88215 0.28587 0.17878 0.0
H526 H 0.83026 0.24407 0.18244 0.0
H527 H 0.75578 0.28648 0.1899 0.0
H528 H 0.60683 0.16657 0.18384 0.0
H529 H 0.6576 0.20882 0.17738 0.0
H530 H 0.73349 0.16672 0.16453 0.0
C531 C 0.83256 0.26871 0.17687 0.0
C532 C 0.75108 0.26045 0.18417 0.0
C533 C 0.86234 0.2927 0.17471 0.0
C534 C 0.62719 0.15948 0.18523 0.0
C535 C 0.65637 0.1838 0.18166 0.0
C536 C 0.73806 0.19267 0.17034 0.0
C537 C 0.80609 0.27666 0.1723 0.0
C538 C 0.77448 0.25107 0.17469 0.0
C539 C 0.68349 0.17578 0.18341 0.0
C540 C 0.7147 0.20188 0.18009 0.0
H541 H 0.84209 0.35764 0.15753 0.0
H542 H 0.79013 0.31592 0.16167 0.0
H543 H 0.78499 0.20901 0.16011 0.0
H544 H 0.6501 0.09318 0.19617 0.0
H545 H 0.70092 0.13567 0.19042 0.0
C546 C 0.02633 0.46724 0.06523 0.0
C547 C 0.02132 0.49209 0.07848 0.0
C548 C 0.0222 0.46757 0.04395 0.0
C549 C 0.98299 0.50079 0.00482 0.0
H550 H 0.03519 0.47152 0.96742 0.0
C551 C 0.9754 0.50376 0.91551 0.0
C552 C 0.97597 0.47439 0.90446 0.0
C553 C 0.98118 0.50784 0.93682 0.0
C554 C 0.02032 0.47958 0.97769 0.0
H555 H 0.00901 0.53739 0.07994 0.0
H556 H 1.00249 0.53853 0.04269 0.0
H557 H 0.0463 0.47635 0.00435 0.0
H558 H 0.98188 0.42579 0.90701 0.0
H559 H 0.99199 0.43287 0.94417 0.0
H560 H 0.95722 0.50423 0.97796 0.0
C561 C 0.00889 0.51828 0.04872 0.0
C562 C 0.02662 0.48227 0.99887 0.0
C563 C 0.01282 0.51779 0.07005 0.0
C564 C 0.98145 0.44875 0.91515 0.0
C565 C 0.98751 0.45294 0.93637 0.0
C566 C 0.97687 0.49839 0.98358 0.0
C567 C 0.01324 0.49297 0.0354 0.0
C568 C 0.00776 0.4924 0.01276 0.0
C569 C 0.98778 0.48267 0.9474 0.0
C570 C 0.9952 0.48725 0.96983 0.0
H571 H 0.03281 0.44707 0.07132 0.0
H572 H 0.02529 0.44735 0.03425 0.0
H573 H 0.96772 0.50826 0.01504 0.0
H574 H 0.97034 0.52346 0.90772 0.0
H575 H 0.9811 0.53095 0.94494 0.0
C576 C 0.48304 0.03397 0.43636 0.0
C577 C 0.49441 0.01346 0.44805 0.0
C578 C 0.49002 0.03775 0.4155 0.0
C579 C 0.50898 0.9935 0.37099 0.0
H580 H 0.53831 0.08186 0.34721 0.0
C581 C 0.54067 0.00531 0.28564 0.0
C582 C 0.5324 0.02893 0.27465 0.0
C583 C 0.53906 0.00554 0.3071 0.0
C584 C 0.52976 0.05694 0.35352 0.0
H585 H 0.52224 0.98117 0.44732 0.0
H586 H 0.5339 0.98722 0.41074 0.0
H587 H 0.52893 0.07816 0.38412 0.0
H588 H 0.51656 0.07178 0.27755 0.0
H589 H 0.51263 0.07145 0.31489 0.0
H590 H 0.50853 0.97194 0.34053 0.0
C591 C 0.51968 1.00041 0.41771 0.0
C592 C 0.52453 0.05489 0.37468 0.0
C593 C 0.51308 0.99702 0.43862 0.0
C594 C 0.52324 0.05336 0.2856 0.0
C595 C 0.52114 0.05324 0.30706 0.0
C596 C 0.51376 0.99547 0.34983 0.0
C597 C 0.50812 0.0207 0.40594 0.0
C598 C 0.51413 0.02315 0.3836 0.0
C599 C 0.5286 0.029 0.31808 0.0
C600 C 0.52426 0.02721 0.34077 0.0
H601 H 0.46871 0.04702 0.44332 0.0
H602 H 0.48067 0.05336 0.40672 0.0
H603 H 0.50053 0.96866 0.37744 0.0
H604 H 0.54815 0.9864 0.27765 0.0
H605 H 0.54579 0.98705 0.31504 0.0
C606 C 0.52531 0.50816 0.78922 0.0
C607 C 0.54965 0.53525 0.79893 0.0
C608 C 0.52184 0.50536 0.76777 0.0
C609 C 0.56464 0.53149 0.72017 0.0
H610 H 0.48282 0.51198 0.69551 0.0
C611 C 0.53871 0.50285 0.63251 0.0
C612 C 0.52096 0.51994 0.62346 0.0
C613 C 0.54221 0.50367 0.65395 0.0
C614 C 0.50581 0.51751 0.70218 0.0
H615 H 0.58951 0.58055 0.79397 0.0
H616 H 0.58359 0.57555 0.7564 0.0
H617 H 0.48923 0.51584 0.73297 0.0
H618 H 0.49272 0.55102 0.6299 0.0
H619 H 0.49871 0.55224 0.66721 0.0
H620 H 0.58125 0.53346 0.68935 0.0
C621 C 0.56729 0.55641 0.76536 0.0
C622 C 0.50944 0.51943 0.72361 0.0
C623 C 0.57059 0.55937 0.78684 0.0
C624 C 0.50657 0.53759 0.63633 0.0
C625 C 0.50984 0.53814 0.65773 0.0
C626 C 0.56096 0.52926 0.69872 0.0
C627 C 0.5428 0.52944 0.75561 0.0
C628 C 0.53891 0.52665 0.73284 0.0
C629 C 0.52777 0.5213 0.66677 0.0
C630 C 0.53154 0.52248 0.68951 0.0
H631 H 0.50883 0.48921 0.7982 0.0
H632 H 0.50291 0.48414 0.76067 0.0
H633 H 0.58759 0.5368 0.72686 0.0
H634 H 0.55011 0.48903 0.62305 0.0
H635 H 0.55596 0.49024 0.6605 0.0
C636 C 0.50432 0.02157 0.57441 0.0
C637 C 0.52264 0.00561 0.56408 0.0
C638 C 0.50054 0.01938 0.5957 0.0
C639 C 0.53792 1.00154 0.64224 0.0
H640 H 0.46076 0.99698 0.66791 0.0
C641 C 0.51924 0.98524 0.72944 0.0
C642 C 0.50675 0.0077 0.73957 0.0
C643 C 0.51936 0.98243 0.70791 0.0
C644 C 0.48248 0.99839 0.66094 0.0
H645 H 0.55032 0.97375 0.56762 0.0
H646 H 0.54313 0.96914 0.60459 0.0
H647 H 0.46402 0.99642 0.63042 0.0
H648 H 0.48386 0.04411 0.73497 0.0
H649 H 0.484 0.03902 0.69747 0.0
H650 H 0.55631 0.00338 0.67277 0.0
C651 C 0.53237 0.98417 0.59647 0.0
C652 C 0.48441 0.99819 0.63947 0.0
C653 C 0.53635 0.98662 0.57526 0.0
C654 C 0.49375 0.02663 0.72768 0.0
C655 C 0.49363 0.02358 0.70618 0.0
C656 C 0.53591 1.00146 0.66367 0.0
C657 C 0.51481 1.00093 0.60704 0.0
C658 C 0.51223 0.99999 0.62985 0.0
C659 C 0.50674 1.00174 0.69607 0.0
C660 C 0.50825 1.00013 0.67326 0.0
H661 H 0.49348 0.03636 0.56612 0.0
H662 H 0.48714 0.03291 0.60333 0.0
H663 H 0.55991 0.00363 0.63544 0.0
H664 H 0.52939 0.97026 0.73812 0.0
H665 H 0.52938 0.96515 0.70052 0.0
C666 C 0.47423 0.49283 0.92213 0.0
C667 C 0.49581 0.51669 0.91021 0.0
C668 C 0.4774 0.49521 0.94362 0.0
C669 C 0.53607 0.52735 0.9849 0.0
H670 H 0.46672 0.51942 0.0205 0.0
C671 C 0.55509 0.54825 0.07236 0.0
C672 C 0.53267 0.52676 0.08492 0.0
C673 C 0.54904 0.54885 0.05136 0.0
C674 C 0.48625 0.52127 0.01079 0.0
H675 H 0.53744 0.56187 0.91131 0.0
H676 H 0.5433 0.56569 0.94884 0.0
H677 H 0.45907 0.51633 0.98309 0.0
H678 H 0.48626 0.48909 0.08543 0.0
H679 H 0.47579 0.48944 0.04855 0.0
H680 H 0.56314 0.53123 0.01227 0.0
C681 C 0.52392 0.5452 0.94158 0.0
C682 C 0.48186 0.51961 0.98938 0.0
C683 C 0.52052 0.54308 0.92013 0.0
C684 C 0.50373 0.50639 0.07617 0.0
C685 C 0.4978 0.50659 0.05501 0.0
C686 C 0.54039 0.52861 0.00623 0.0
C687 C 0.50245 0.52123 0.95354 0.0
C688 C 0.5068 0.52283 0.97624 0.0
C689 C 0.52063 0.52741 0.04227 0.0
C690 C 0.51562 0.52585 0.01951 0.0
H691 H 0.45496 0.47224 0.91484 0.0
H692 H 0.46067 0.47624 0.95245 0.0
H693 H 0.55558 0.5293 0.97513 0.0
H694 H 0.57753 0.56442 0.07876 0.0
H695 H 0.56689 0.56591 0.04222 0.0
C696 C 0.02253 0.55874 0.20797 0.0
C697 C 0.03796 0.5418 0.19557 0.0
C698 C 0.02166 0.55569 0.22927 0.0
C699 C 0.03381 0.50294 0.27049 0.0
H700 H 0.03643 0.58145 0.3055 0.0
C701 C 0.04401 0.50836 0.35983 0.0
C702 C 0.02193 0.51899 0.37016 0.0
C703 C 0.04753 0.51137 0.33856 0.0
C704 C 0.03558 0.5593 0.29589 0.0
H705 H 0.06446 0.5082 0.19553 0.0
H706 H 0.0639 0.50367 0.23289 0.0
H707 H 0.04007 0.58611 0.26833 0.0
H708 H 0.9867 0.54169 0.36634 0.0
H709 H 0.99334 0.54754 0.32933 0.0
H710 H 0.02993 0.47648 0.29833 0.0
C711 C 0.05186 0.51878 0.22618 0.0
C712 C 0.03748 0.56185 0.27457 0.0
C713 C 0.05237 0.52151 0.20479 0.0
C714 C 1.00387 0.53321 0.35885 0.0
C715 C 0.00775 0.53671 0.33768 0.0
C716 C 0.03234 0.50055 0.29188 0.0
C717 C 0.0366 0.53599 0.23872 0.0
C718 C 0.03615 0.53357 0.26153 0.0
C719 C 0.02944 0.5256 0.32731 0.0
C720 C 0.03281 0.52859 0.30475 0.0
H721 H 0.01094 0.57427 0.20121 0.0
H722 H 0.00901 0.56863 0.23828 0.0
H723 H 0.0323 0.48049 0.26099 0.0
H724 H 0.05821 0.4972 0.36811 0.0
H725 H 0.06455 0.5028 0.33094 0.0
loop_
_geom_bond_atom_site_label_1
_geom_bond_atom_site_label_2
_geom_bond_distance
_geom_bond_site_symmetry_2
_ccdc_geom_bond_type
Nd0 C2 2.836 . S
Nd0 O20 2.500 . S
Nd0 O21 2.492 . S
Nd0 O22 2.487 . S
Nd0 O23 2.682 . S
Nd0 O24 2.410 . S
Nd0 O29 2.414 . S
Nd0 O31 2.424 1_455 S
Nd1 C11 2.836 . S
Nd1 O23 2.414 1_655 S
Nd1 O25 2.424 1_655 S
Nd1 O26 2.500 . S
Nd1 O27 2.492 . S
Nd1 O28 2.488 1_655 S
Nd1 O29 2.682 1_655 S
Nd1 O30 2.410 . S
C2 Nd0 2.836 . S
C2 C3 1.498 . S
C2 O20 1.258 . S
C2 O21 1.239 . S
C3 C2 1.498 . S
C3 C4 1.366 . S
C3 C8 1.407 . S
C4 C3 1.366 . S
C4 C5 1.392 . S
C4 H32 0.930 . S
C5 C4 1.392 . S
C5 C6 1.398 . S
C5 H33 0.929 . S
C6 C5 1.398 . S
C6 C7 1.352 . S
C7 C6 1.352 . S
C7 C8 1.384 . S
C7 H34 0.930 . S
C8 C3 1.407 . S
C8 C7 1.384 . S
C8 H35 0.929 . S
C9 O22 1.241 . S
C9 O23 1.273 . S
C10 O24 1.251 . S
C10 O25 1.268 . S
C11 Nd1 2.836 . S
C11 C12 1.498 . S
C11 O26 1.258 . S
C11 O27 1.239 . S
C12 C11 1.498 . S
C12 C13 1.366 . S
C12 C17 1.407 . S
C13 C12 1.366 . S
C13 C14 1.392 . S
C13 H36 0.930 . S
C14 C13 1.392 . S
C14 C15 1.398 . S
C14 H37 0.929 . S
C15 C14 1.398 . S
C15 C16 1.352 . S
C16 C15 1.352 . S
C16 C17 1.384 . S
C16 H38 0.930 . S
C17 C12 1.407 . S
C17 C16 1.384 . S
C17 H39 0.929 . S
C18 O28 1.251 . S
C18 O29 1.273 . S
C19 O30 1.251 . S
C19 O31 1.268 . S
O20 Nd0 2.500 . S
O20 C2 1.258 . S
O21 Nd0 2.492 . S
O21 C2 1.239 . S
O22 Nd0 2.487 . S
O22 C9 1.241 . S
O23 Nd0 2.682 . S
O23 Nd1 2.414 1_455 S
O23 C9 1.273 . S
O24 Nd0 2.410 . S
O24 C10 1.251 . S
O25 Nd1 2.424 1_455 S
O25 C10 1.268 . S
O26 Nd1 2.500 . S
O26 C11 1.258 . S
O27 Nd1 2.492 . S
O27 C11 1.239 . S
O28 Nd1 2.488 1_455 S
O28 C18 1.251 . S
O29 Nd0 2.414 . S
O29 Nd1 2.682 1_455 S
O29 C18 1.273 . S
O30 Nd1 2.410 . S
O30 C19 1.251 . S
O31 Nd0 2.424 1_655 S
O31 C19 1.268 . S
H32 C4 0.930 . S
H33 C5 0.929 . S
H34 C7 0.930 . S
H35 C8 0.929 . S
H36 C13 0.930 . S
H37 C14 0.929 . S
H38 C16 0.930 . S
H39 C17 0.929 . S
Nd40 C42 2.836 1_545 S
Nd40 O60 2.500 1_545 S
Nd40 O61 2.492 1_545 S
Nd40 O62 2.487 . S
Nd40 O63 2.682 . S
Nd40 O64 2.410 1_545 S
Nd40 O69 2.414 . S
Nd40 O71 2.424 . S
Nd41 C51 2.836 . S
Nd41 O63 2.414 . S
Nd41 O65 2.424 1_545 S
Nd41 O66 2.500 . S
Nd41 O67 2.492 . S
Nd41 O68 2.487 . S
Nd41 O69 2.682 . S
Nd41 O70 2.410 . S
C42 Nd40 2.836 1_565 S
C42 C43 1.498 . S
C42 O60 1.258 . S
C42 O61 1.239 . S
C43 C42 1.498 . S
C43 C44 1.366 . S
C43 C48 1.407 . S
C44 C43 1.366 . S
C44 C45 1.392 . S
C44 H72 0.930 . S
C45 C44 1.392 . S
C45 C46 1.398 . S
C45 H73 0.929 . S
C46 C45 1.398 . S
C46 C47 1.352 . S
C47 C46 1.352 . S
C47 C48 1.384 . S
C47 H74 0.930 . S
C48 C43 1.407 . S
C48 C47 1.384 . S
C48 H75 0.929 . S
C49 O62 1.241 . S
C49 O63 1.273 . S
C50 O64 1.251 . S
C50 O65 1.268 . S
C51 Nd41 2.836 . S
C51 C52 1.498 . S
C51 O66 1.258 . S
C51 O67 1.239 . S
C52 C51 1.498 . S
C52 C53 1.366 . S
C52 C57 1.407 . S
C53 C52 1.366 . S
C53 C54 1.392 . S
C53 H76 0.930 . S
C54 C53 1.392 . S
C54 C55 1.398 . S
C54 H77 0.929 . S
C55 C54 1.398 . S
C55 C56 1.352 . S
C56 C55 1.352 . S
C56 C57 1.384 . S
C56 H78 0.930 . S
C57 C52 1.407 . S
C57 C56 1.384 . S
C57 H79 0.929 . S
C58 O68 1.241 . S
C58 O69 1.273 . S
C59 O70 1.251 . S
C59 O71 1.268 . S
O60 Nd40 2.500 1_565 S
O60 C42 1.258 . S
O61 Nd40 2.492 1_565 S
O61 C42 1.239 . S
O62 Nd40 2.487 . S
O62 C49 1.241 . S
O63 Nd40 2.682 . S
O63 Nd41 2.414 . S
O63 C49 1.273 . S
O64 Nd40 2.410 1_565 S
O64 C50 1.251 . S
O65 Nd41 2.424 1_565 S
O65 C50 1.268 . S
O66 Nd41 2.500 . S
O66 C51 1.258 . S
O67 Nd41 2.492 . S
O67 C51 1.239 . S
O68 Nd41 2.487 . S
O68 C58 1.241 . S
O69 Nd40 2.414 . S
O69 Nd41 2.682 . S
O69 C58 1.273 . S
O70 Nd41 2.410 . S
O70 C59 1.251 . S
O71 Nd40 2.424 . S
O71 C59 1.268 . S
H72 C44 0.930 . S
H73 C45 0.929 . S
H74 C47 0.930 . S
H75 C48 0.929 . S
H76 C53 0.930 . S
H77 C54 0.929 . S
H78 C56 0.930 . S
H79 C57 0.929 . S
Nd80 C82 2.836 . S
Nd80 O100 2.500 . S
Nd80 O101 2.492 . S
Nd80 O102 2.487 . S
Nd80 O103 2.682 . S
Nd80 O104 2.410 . S
Nd80 O109 2.414 . S
Nd80 O111 2.424 . S
Nd81 C91 2.836 . S
Nd81 O103 2.414 . S
Nd81 O105 2.424 . S
Nd81 O106 2.500 . S
Nd81 O107 2.492 . S
Nd81 O108 2.487 . S
Nd81 O109 2.682 . S
Nd81 O110 2.410 . S
C82 Nd80 2.836 . S
C82 C83 1.498 . S
C82 O100 1.258 . S
C82 O101 1.239 . S
C83 C82 1.498 . S
C83 C84 1.366 . S
C83 C88 1.407 . S
C84 C83 1.366 . S
C84 C85 1.392 . S
C84 H112 0.930 . S
C85 C84 1.392 . S
C85 C86 1.398 . S
C85 H113 0.929 . S
C86 C85 1.398 . S
C86 C87 1.352 . S
C87 C86 1.352 . S
C87 C88 1.384 . S
C87 H114 0.930 . S
C88 C83 1.407 . S
C88 C87 1.384 . S
C88 H115 0.929 . S
C89 O102 1.241 . S
C89 O103 1.273 . S
C90 O104 1.251 . S
C90 O105 1.268 . S
C91 Nd81 2.836 . S
C91 C92 1.498 . S
C91 O106 1.258 . S
C91 O107 1.239 . S
C92 C91 1.498 . S
C92 C93 1.366 . S
C92 C97 1.407 . S
C93 C92 1.366 . S
C93 C94 1.392 . S
C93 H116 0.930 . S
C94 C93 1.392 . S
C94 C95 1.398 . S
C94 H117 0.929 . S
C95 C94 1.398 . S
C95 C96 1.352 . S
C96 C95 1.352 . S
C96 C97 1.384 . S
C96 H118 0.930 . S
C97 C92 1.407 . S
C97 C96 1.384 . S
C97 H119 0.929 . S
C98 O108 1.241 . S
C98 O109 1.273 . S
C99 O110 1.251 . S
C99 O111 1.268 . S
O100 Nd80 2.500 . S
O100 C82 1.258 . S
O101 Nd80 2.492 . S
O101 C82 1.239 . S
O102 Nd80 2.487 . S
O102 C89 1.241 . S
O103 Nd80 2.682 . S
O103 Nd81 2.414 . S
O103 C89 1.273 . S
O104 Nd80 2.410 . S
O104 C90 1.251 . S
O105 Nd81 2.424 . S
O105 C90 1.268 . S
O106 Nd81 2.500 . S
O106 C91 1.258 . S
O107 Nd81 2.492 . S
O107 C91 1.239 . S
O108 Nd81 2.487 . S
O108 C98 1.241 . S
O109 Nd80 2.414 . S
O109 Nd81 2.682 . S
O109 C98 1.273 . S
O110 Nd81 2.410 . S
O110 C99 1.251 . S
O111 Nd80 2.424 . S
O111 C99 1.268 . S
H112 C84 0.930 . S
H113 C85 0.929 . S
H114 C87 0.930 . S
H115 C88 0.929 . S
H116 C93 0.930 . S
H117 C94 0.929 . S
H118 C96 0.930 . S
H119 C97 0.929 . S
O120 Cd121 2.300 . S
O120 C127 1.275 . S
Cd121 O120 2.300 . S
Cd121 O129 2.381 . S
Cd121 O130 2.378 . S
O122 Cd123 2.362 1_545 S
O122 C127 1.277 . S
Cd123 O122 2.362 1_565 S
Cd123 O124 2.317 . S
O124 Cd123 2.317 . S
O124 C125 1.232 . S
C125 O124 1.232 . S
C125 O126 1.218 . S
O126 C125 1.218 . S
C127 O120 1.275 . S
C127 O122 1.277 . S
C128 O129 1.258 . S
C128 O130 1.256 . S
O129 Cd121 2.381 . S
O129 C128 1.258 . S
O130 Cd121 2.378 . S
O130 C128 1.256 . S
O131 Cd132 2.300 . S
O131 C138 1.275 . S
Cd132 O131 2.300 . S
Cd132 O140 2.381 . S
Cd132 O141 2.378 . S
O133 Cd134 2.385 . S
O133 C138 1.255 . S
Cd134 O133 2.385 . S
Cd134 O135 2.317 . S
O135 Cd134 2.317 . S
O135 C136 1.232 . S
C136 O135 1.232 . S
C136 O137 1.218 . S
O137 C136 1.218 . S
C138 O131 1.275 . S
C138 O133 1.255 . S
C139 O140 1.258 . S
C139 O141 1.256 . S
O140 Cd132 2.381 . S
O140 C139 1.258 . S
O141 Cd132 2.378 . S
O141 C139 1.256 . S
O142 Cd143 2.300 . S
O142 C149 1.275 . S
Cd143 O142 2.300 . S
Cd143 O151 2.381 . S
Cd143 O152 2.378 . S
O144 Cd145 2.385 1_455 S
O144 C149 1.255 . S
Cd145 O144 2.385 1_655 S
Cd145 O146 2.317 . S
O146 Cd145 2.317 . S
O146 C147 1.232 . S
C147 O146 1.232 . S
C147 O148 1.218 . S
O148 C147 1.218 . S
C149 O142 1.275 . S
C149 O144 1.255 . S
C150 O151 1.258 . S
C150 O152 1.256 . S
O151 Cd143 2.381 . S
O151 C150 1.258 . S
O152 Cd143 2.378 . S
O152 C150 1.256 . S
O153 Cd154 2.300 . S
O153 C160 1.275 1_455 S
Cd154 O153 2.300 . S
Cd154 O162 2.381 . S
Cd154 O163 2.378 . S
O155 Cd156 2.385 . S
O155 C160 1.255 . S
Cd156 O155 2.385 . S
Cd156 O157 2.317 . S
O157 Cd156 2.317 . S
O157 C158 1.232 . S
C158 O157 1.232 . S
C158 O159 1.218 . S
O159 C158 1.218 . S
C160 O153 1.275 1_655 S
C160 O155 1.255 . S
C161 O162 1.258 . S
C161 O163 1.256 . S
O162 Cd154 2.381 . S
O162 C161 1.258 . S
O163 Cd154 2.378 . S
O163 C161 1.256 . S
O164 Cd165 2.300 . S
O164 C171 1.275 1_565 S
Cd165 O164 2.300 . S
Cd165 O173 2.381 . S
Cd165 O174 2.378 . S
O166 Cd167 2.385 . S
O166 C171 1.255 . S
Cd167 O166 2.385 . S
Cd167 O168 2.317 . S
O168 Cd167 2.317 . S
O168 C169 1.232 . S
C169 O168 1.232 . S
C169 O170 1.218 . S
O170 C169 1.218 . S
C171 O164 1.275 1_545 S
C171 O166 1.255 . S
C172 O173 1.258 . S
C172 O174 1.256 . S
O173 Cd165 2.381 . S
O173 C172 1.258 . S
O174 Cd165 2.378 . S
O174 C172 1.256 . S
O175 Cd176 2.300 . S
O175 C182 1.275 . S
Cd176 O175 2.300 . S
Cd176 O184 2.381 . S
Cd176 O185 2.378 . S
O177 Cd178 2.385 . S
O177 C182 1.255 . S
Cd178 O177 2.385 . S
Cd178 O179 2.317 . S
O179 Cd178 2.317 . S
O179 C180 1.232 . S
C180 O179 1.232 . S
C180 O181 1.218 . S
O181 C180 1.218 . S
C182 O175 1.275 . S
C182 O177 1.255 . S
C183 O184 1.258 . S
C183 O185 1.256 . S
O184 Cd176 2.381 . S
O184 C183 1.258 . S
O185 Cd176 2.378 . S
O185 C183 1.256 . S
C186 C187 1.349 . S
C186 C188 1.327 . S
C186 H211 0.950 . S
C187 C186 1.349 . S
C187 C203 1.349 . S
C188 C186 1.327 . S
C188 C207 1.429 . S
C188 H212 0.950 . S
C189 C206 1.574 . S
C189 C208 1.368 . S
C189 H213 0.949 . S
H190 C194 0.949 . S
C191 C192 1.349 . S
C191 C193 1.327 . S
C191 H214 0.950 . S
C192 C191 1.349 . S
C192 C204 1.349 . S
C193 C191 1.327 . S
C193 C209 1.429 . S
C193 H215 0.950 . S
C194 H190 0.949 . S
C194 C202 1.574 . S
C194 C210 1.368 . S
H195 C203 0.950 . S
H196 C201 0.950 . S
H197 C202 0.949 . S
H198 C204 0.950 . S
H199 C205 0.950 . S
H200 C206 0.949 . S
C201 H196 0.950 . S
C201 C203 1.327 . S
C201 C207 1.429 . S
C202 C194 1.574 . S
C202 H197 0.949 . S
C202 C208 1.368 . S
C203 C187 1.349 . S
C203 H195 0.950 . S
C203 C201 1.327 . S
C204 C192 1.349 . S
C204 H198 0.950 . S
C204 C205 1.327 . S
C205 H199 0.950 . S
C205 C204 1.327 . S
C205 C209 1.429 . S
C206 C189 1.574 . S
C206 H200 0.949 . S
C206 C210 1.368 . S
C207 C188 1.429 . S
C207 C201 1.429 . S
C207 C208 1.523 . S
C208 C189 1.368 . S
C208 C202 1.368 . S
C208 C207 1.523 . S
C209 C193 1.429 . S
C209 C205 1.429 . S
C209 C210 1.523 . S
C210 C194 1.368 . S
C210 C206 1.368 . S
C210 C209 1.523 . S
H211 C186 0.950 . S
H212 C188 0.950 . S
H213 C189 0.949 . S
H214 C191 0.950 . S
H215 C193 0.950 . S
C216 C217 1.349 . S
C216 C218 1.327 . S
C216 H241 0.950 . S
C217 C216 1.349 . S
C217 C233 1.349 . S
C218 C216 1.327 . S
C218 C237 1.429 . S
C218 H242 0.950 . S
C219 C236 1.574 . S
C219 C238 1.368 . S
C219 H243 0.949 . S
H220 C224 0.949 . S
C221 C222 1.349 . S
C221 C223 1.327 . S
C221 H244 0.950 . S
C222 C221 1.349 . S
C222 C234 1.349 . S
C223 C221 1.327 . S
C223 C239 1.429 . S
C223 H245 0.950 . S
C224 H220 0.949 . S
C224 C232 1.574 . S
C224 C240 1.368 . S
H225 C233 0.950 . S
H226 C231 0.950 . S
H227 C232 0.949 . S
H228 C234 0.950 . S
H229 C235 0.950 . S
H230 C236 0.949 . S
C231 H226 0.950 . S
C231 C233 1.327 . S
C231 C237 1.429 . S
C232 C224 1.574 . S
C232 H227 0.949 . S
C232 C238 1.368 . S
C233 C217 1.349 . S
C233 H225 0.950 . S
C233 C231 1.327 . S
C234 C222 1.349 . S
C234 H228 0.950 . S
C234 C235 1.327 . S
C235 H229 0.950 . S
C235 C234 1.327 . S
C235 C239 1.429 . S
C236 C219 1.574 . S
C236 H230 0.949 . S
C236 C240 1.368 . S
C237 C218 1.429 . S
C237 C231 1.429 . S
C237 C238 1.523 . S
C238 C219 1.368 . S
C238 C232 1.368 . S
C238 C237 1.523 . S
C239 C223 1.429 . S
C239 C235 1.429 . S
C239 C240 1.523 . S
C240 C224 1.368 . S
C240 C236 1.368 . S
C240 C239 1.523 . S
H241 C216 0.950 . S
H242 C218 0.950 . S
H243 C219 0.949 . S
H244 C221 0.950 . S
H245 C223 0.950 . S
C246 C247 1.349 . S
C246 C248 1.327 . S
C246 H271 0.950 . S
C247 C246 1.349 . S
C247 C263 1.349 . S
C248 C246 1.327 . S
C248 C267 1.429 . S
C248 H272 0.950 . S
C249 C266 1.574 . S
C249 C268 1.368 . S
C249 H273 0.949 . S
H250 C254 0.949 . S
C251 C252 1.349 . S
C251 C253 1.327 . S
C251 H274 0.950 . S
C252 C251 1.349 . S
C252 C264 1.349 . S
C253 C251 1.327 . S
C253 C269 1.429 . S
C253 H275 0.950 . S
C254 H250 0.949 . S
C254 C262 1.574 . S
C254 C270 1.368 . S
H255 C263 0.950 . S
H256 C261 0.950 . S
H257 C262 0.949 . S
H258 C264 0.950 . S
H259 C265 0.950 . S
H260 C266 0.949 . S
C261 H256 0.950 . S
C261 C263 1.327 . S
C261 C267 1.429 . S
C262 C254 1.574 . S
C262 H257 0.949 . S
C262 C268 1.368 . S
C263 C247 1.349 . S
C263 H255 0.950 . S
C263 C261 1.327 . S
C264 C252 1.349 . S
C264 H258 0.950 . S
C264 C265 1.327 . S
C265 H259 0.950 . S
C265 C264 1.327 . S
C265 C269 1.429 . S
C266 C249 1.574 . S
C266 H260 0.949 . S
C266 C270 1.368 . S
C267 C248 1.429 . S
C267 C261 1.429 . S
C267 C268 1.523 . S
C268 C249 1.368 . S
C268 C262 1.368 . S
C268 C267 1.523 . S
C269 C253 1.429 . S
C269 C265 1.429 . S
C269 C270 1.523 . S
C270 C254 1.368 . S
C270 C266 1.368 . S
C270 C269 1.523 . S
H271 C246 0.950 . S
H272 C248 0.950 . S
H273 C249 0.949 . S
H274 C251 0.950 . S
H275 C253 0.950 . S
C276 C277 1.349 . S
C276 C278 1.327 . S
C276 H301 0.950 . S
C277 C276 1.349 . S
C277 C293 1.349 . S
C278 C276 1.327 . S
C278 C297 1.429 . S
C278 H302 0.950 . S
C279 C296 1.574 . S
C279 C298 1.368 . S
C279 H303 0.949 . S
H280 C284 0.949 . S
C281 C282 1.349 . S
C281 C283 1.327 . S
C281 H304 0.950 . S
C282 C281 1.349 . S
C282 C294 1.349 . S
C283 C281 1.327 . S
C283 C299 1.429 . S
C283 H305 0.950 . S
C284 H280 0.949 . S
C284 C292 1.574 . S
C284 C300 1.368 . S
H285 C293 0.950 . S
H286 C291 0.950 . S
H287 C292 0.949 . S
H288 C294 0.950 . S
H289 C295 0.950 . S
H290 C296 0.949 . S
C291 H286 0.950 . S
C291 C293 1.327 . S
C291 C297 1.429 . S
C292 C284 1.574 . S
C292 H287 0.949 . S
C292 C298 1.368 . S
C293 C277 1.349 . S
C293 H285 0.950 . S
C293 C291 1.327 . S
C294 C282 1.349 . S
C294 H288 0.950 . S
C294 C295 1.327 . S
C295 H289 0.950 . S
C295 C294 1.327 . S
C295 C299 1.429 . S
C296 C279 1.574 . S
C296 H290 0.949 . S
C296 C300 1.368 . S
C297 C278 1.429 . S
C297 C291 1.429 . S
C297 C298 1.523 . S
C298 C279 1.368 . S
C298 C292 1.368 . S
C298 C297 1.523 . S
C299 C283 1.429 . S
C299 C295 1.429 . S
C299 C300 1.523 . S
C300 C284 1.368 . S
C300 C296 1.368 . S
C300 C299 1.523 . S
H301 C276 0.950 . S
H302 C278 0.950 . S
H303 C279 0.949 . S
H304 C281 0.950 . S
H305 C283 0.950 . S
C306 C307 1.349 . S
C306 C308 1.327 . S
C306 H331 0.950 . S
C307 C306 1.349 . S
C307 C323 1.349 . S
C308 C306 1.327 . S
C308 C327 1.429 . S
C308 H332 0.950 . S
C309 C326 1.574 . S
C309 C328 1.368 . S
C309 H333 0.949 . S
H310 C314 0.949 . S
C311 C312 1.349 . S
C311 C313 1.327 . S
C311 H334 0.950 . S
C312 C311 1.349 . S
C312 C324 1.349 . S
C313 C311 1.327 . S
C313 C329 1.429 . S
C313 H335 0.950 . S
C314 H310 0.949 . S
C314 C322 1.574 . S
C314 C330 1.368 . S
H315 C323 0.950 . S
H316 C321 0.950 . S
H317 C322 0.949 . S
H318 C324 0.950 . S
H319 C325 0.950 . S
H320 C326 0.949 . S
C321 H316 0.950 . S
C321 C323 1.327 . S
C321 C327 1.429 . S
C322 C314 1.574 . S
C322 H317 0.949 . S
C322 C328 1.368 . S
C323 C307 1.349 . S
C323 H315 0.950 . S
C323 C321 1.327 . S
C324 C312 1.349 . S
C324 H318 0.950 . S
C324 C325 1.327 . S
C325 H319 0.950 . S
C325 C324 1.327 . S
C325 C329 1.429 . S
C326 C309 1.574 . S
C326 H320 0.949 . S
C326 C330 1.368 . S
C327 C308 1.429 . S
C327 C321 1.429 . S
C327 C328 1.523 . S
C328 C309 1.368 . S
C328 C322 1.368 . S
C328 C327 1.523 . S
C329 C313 1.429 . S
C329 C325 1.429 . S
C329 C330 1.523 . S
C330 C314 1.368 . S
C330 C326 1.368 . S
C330 C329 1.523 . S
H331 C306 0.950 . S
H332 C308 0.950 . S
H333 C309 0.949 . S
H334 C311 0.950 . S
H335 C313 0.950 . S
C336 C337 1.349 . S
C336 C338 1.327 . S
C336 H361 0.950 . S
C337 C336 1.349 . S
C337 C353 1.349 . S
C338 C336 1.327 . S
C338 C357 1.429 . S
C338 H362 0.950 . S
C339 C356 1.574 . S
C339 C358 1.368 . S
C339 H363 0.949 . S
H340 C344 0.949 . S
C341 C342 1.349 . S
C341 C343 1.327 . S
C341 H364 0.950 . S
C342 C341 1.349 . S
C342 C354 1.349 . S
C343 C341 1.327 . S
C343 C359 1.429 . S
C343 H365 0.950 . S
C344 H340 0.949 . S
C344 C352 1.574 . S
C344 C360 1.368 . S
H345 C353 0.950 . S
H346 C351 0.950 . S
H347 C352 0.949 . S
H348 C354 0.950 . S
H349 C355 0.950 . S
H350 C356 0.949 . S
C351 H346 0.950 . S
C351 C353 1.327 . S
C351 C357 1.429 . S
C352 C344 1.574 . S
C352 H347 0.949 . S
C352 C358 1.368 . S
C353 C337 1.349 . S
C353 H345 0.950 . S
C353 C351 1.327 . S
C354 C342 1.349 . S
C354 H348 0.950 . S
C354 C355 1.327 . S
C355 H349 0.950 . S
C355 C354 1.327 . S
C355 C359 1.429 . S
C356 C339 1.574 . S
C356 H350 0.949 . S
C356 C360 1.368 . S
C357 C338 1.429 . S
C357 C351 1.429 . S
C357 C358 1.523 . S
C358 C339 1.368 . S
C358 C352 1.368 . S
C358 C357 1.523 . S
C359 C343 1.429 . S
C359 C355 1.429 . S
C359 C360 1.523 . S
C360 C344 1.368 . S
C360 C356 1.368 . S
C360 C359 1.523 . S
H361 C336 0.950 . S
H362 C338 0.950 . S
H363 C339 0.949 . S
H364 C341 0.950 . S
H365 C343 0.950 . S
C366 C367 1.349 . S
C366 C368 1.327 . S
C366 H391 0.950 . S
C367 C366 1.349 . S
C367 C383 1.349 . S
C368 C366 1.327 . S
C368 C387 1.429 . S
C368 H392 0.950 . S
C369 C386 1.574 . S
C369 C388 1.368 . S
C369 H393 0.949 . S
H370 C374 0.949 . S
C371 C372 1.349 . S
C371 C373 1.327 . S
C371 H394 0.950 . S
C372 C371 1.349 . S
C372 C384 1.349 . S
C373 C371 1.327 . S
C373 C389 1.429 . S
C373 H395 0.950 . S
C374 H370 0.949 . S
C374 C382 1.574 . S
C374 C390 1.368 . S
H375 C383 0.950 . S
H376 C381 0.950 . S
H377 C382 0.949 . S
H378 C384 0.950 . S
H379 C385 0.950 . S
H380 C386 0.949 . S
C381 H376 0.950 . S
C381 C383 1.327 . S
C381 C387 1.429 . S
C382 C374 1.574 . S
C382 H377 0.949 . S
C382 C388 1.368 . S
C383 C367 1.349 . S
C383 H375 0.950 . S
C383 C381 1.327 . S
C384 C372 1.349 . S
C384 H378 0.950 . S
C384 C385 1.327 . S
C385 H379 0.950 . S
C385 C384 1.327 . S
C385 C389 1.429 . S
C386 C369 1.574 . S
C386 H380 0.949 . S
C386 C390 1.368 . S
C387 C368 1.429 . S
C387 C381 1.429 . S
C387 C388 1.523 . S
C388 C369 1.368 . S
C388 C382 1.368 . S
C388 C387 1.523 . S
C389 C373 1.429 . S
C389 C385 1.429 . S
C389 C390 1.523 . S
C390 C374 1.368 . S
C390 C386 1.368 . S
C390 C389 1.523 . S
H391 C366 0.950 . S
H392 C368 0.950 . S
H393 C369 0.949 . S
H394 C371 0.950 . S
H395 C373 0.950 . S
C396 C397 1.349 . S
C396 C398 1.327 . S
C396 H421 0.950 . S
C397 C396 1.349 . S
C397 C413 1.349 . S
C398 C396 1.327 . S
C398 C417 1.429 . S
C398 H422 0.950 . S
C399 C416 1.574 . S
C399 C418 1.368 . S
C399 H423 0.949 . S
H400 C404 0.949 . S
C401 C402 1.349 . S
C401 C403 1.327 . S
C401 H424 0.950 . S
C402 C401 1.349 . S
C402 C414 1.349 . S
C403 C401 1.327 . S
C403 C419 1.429 . S
C403 H425 0.950 . S
C404 H400 0.949 . S
C404 C412 1.574 . S
C404 C420 1.368 . S
H405 C413 0.950 . S
H406 C411 0.950 . S
H407 C412 0.949 . S
H408 C414 0.950 . S
H409 C415 0.950 . S
H410 C416 0.949 . S
C411 H406 0.950 . S
C411 C413 1.327 . S
C411 C417 1.429 . S
C412 C404 1.574 . S
C412 H407 0.949 . S
C412 C418 1.368 . S
C413 C397 1.349 . S
C413 H405 0.950 . S
C413 C411 1.327 . S
C414 C402 1.349 . S
C414 H408 0.950 . S
C414 C415 1.327 . S
C415 H409 0.950 . S
C415 C414 1.327 . S
C415 C419 1.429 . S
C416 C399 1.574 . S
C416 H410 0.949 . S
C416 C420 1.368 . S
C417 C398 1.429 . S
C417 C411 1.429 . S
C417 C418 1.523 . S
C418 C399 1.368 . S
C418 C412 1.368 . S
C418 C417 1.523 . S
C419 C403 1.429 . S
C419 C415 1.429 . S
C419 C420 1.523 . S
C420 C404 1.368 . S
C420 C416 1.368 . S
C420 C419 1.523 . S
H421 C396 0.950 . S
H422 C398 0.950 . S
H423 C399 0.949 . S
H424 C401 0.950 . S
H425 C403 0.950 . S
C426 C427 1.349 . S
C426 C428 1.327 . S
C426 H451 0.950 . S
C427 C426 1.349 . S
C427 C443 1.349 . S
C428 C426 1.327 . S
C428 C447 1.429 . S
C428 H452 0.950 . S
C429 C446 1.574 . S
C429 C448 1.368 . S
C429 H453 0.949 . S
H430 C434 0.949 . S
C431 C432 1.349 . S
C431 C433 1.327 . S
C431 H454 0.950 . S
C432 C431 1.349 . S
C432 C444 1.349 . S
C433 C431 1.327 . S
C433 C449 1.429 . S
C433 H455 0.950 . S
C434 H430 0.949 . S
C434 C442 1.574 . S
C434 C450 1.368 . S
H435 C443 0.950 . S
H436 C441 0.950 . S
H437 C442 0.949 . S
H438 C444 0.950 . S
H439 C445 0.950 . S
H440 C446 0.949 . S
C441 H436 0.950 . S
C441 C443 1.327 . S
C441 C447 1.429 . S
C442 C434 1.574 . S
C442 H437 0.949 . S
C442 C448 1.368 . S
C443 C427 1.349 . S
C443 H435 0.950 . S
C443 C441 1.327 . S
C444 C432 1.349 . S
C444 H438 0.950 . S
C444 C445 1.327 . S
C445 H439 0.950 . S
C445 C444 1.327 . S
C445 C449 1.429 . S
C446 C429 1.574 . S
C446 H440 0.949 . S
C446 C450 1.368 . S
C447 C428 1.429 . S
C447 C441 1.429 . S
C447 C448 1.523 . S
C448 C429 1.368 . S
C448 C442 1.368 . S
C448 C447 1.523 . S
C449 C433 1.429 . S
C449 C445 1.429 . S
C449 C450 1.523 . S
C450 C434 1.368 . S
C450 C446 1.368 . S
C450 C449 1.523 . S
H451 C426 0.950 . S
H452 C428 0.950 . S
H453 C429 0.949 . S
H454 C431 0.950 . S
H455 C433 0.950 . S
C456 C457 1.349 . S
C456 C458 1.327 . S
C456 H481 0.950 . S
C457 C456 1.349 . S
C457 C473 1.349 . S
C458 C456 1.327 . S
C458 C477 1.429 . S
C458 H482 0.950 . S
C459 C476 1.574 . S
C459 C478 1.368 . S
C459 H483 0.949 . S
H460 C464 0.949 . S
C461 C462 1.349 . S
C461 C463 1.327 . S
C461 H484 0.950 . S
C462 C461 1.349 . S
C462 C474 1.349 . S
C463 C461 1.327 . S
C463 C479 1.429 . S
C463 H485 0.950 . S
C464 H460 0.949 . S
C464 C472 1.574 . S
C464 C480 1.368 . S
H465 C473 0.950 . S
H466 C471 0.950 . S
H467 C472 0.949 . S
H468 C474 0.950 . S
H469 C475 0.950 . S
H470 C476 0.949 . S
C471 H466 0.950 . S
C471 C473 1.327 . S
C471 C477 1.429 . S
C472 C464 1.574 . S
C472 H467 0.949 . S
C472 C478 1.368 . S
C473 C457 1.349 . S
C473 H465 0.950 . S
C473 C471 1.327 . S
C474 C462 1.349 . S
C474 H468 0.950 . S
C474 C475 1.327 . S
C475 H469 0.950 . S
C475 C474 1.327 . S
C475 C479 1.429 . S
C476 C459 1.574 . S
C476 H470 0.949 . S
C476 C480 1.368 . S
C477 C458 1.429 . S
C477 C471 1.429 . S
C477 C478 1.523 . S
C478 C459 1.368 . S
C478 C472 1.368 . S
C478 C477 1.523 . S
C479 C463 1.429 . S
C479 C475 1.429 . S
C479 C480 1.523 . S
C480 C464 1.368 . S
C480 C476 1.368 . S
C480 C479 1.523 . S
H481 C456 0.950 . S
H482 C458 0.950 . S
H483 C459 0.949 . S
H484 C461 0.950 . S
H485 C463 0.950 . S
C486 C487 1.349 . S
C486 C488 1.327 . S
C486 H511 0.950 . S
C487 C486 1.349 . S
C487 C503 1.349 . S
C488 C486 1.327 . S
C488 C507 1.429 . S
C488 H512 0.950 . S
C489 C506 1.574 . S
C489 C508 1.368 . S
C489 H513 0.949 . S
H490 C494 0.949 . S
C491 C492 1.349 . S
C491 C493 1.327 . S
C491 H514 0.950 . S
C492 C491 1.349 . S
C492 C504 1.349 . S
C493 C491 1.327 . S
C493 C509 1.429 . S
C493 H515 0.950 . S
C494 H490 0.949 . S
C494 C502 1.574 . S
C494 C510 1.368 . S
H495 C503 0.950 . S
H496 C501 0.950 . S
H497 C502 0.949 . S
H498 C504 0.950 . S
H499 C505 0.950 . S
H500 C506 0.949 . S
C501 H496 0.950 . S
C501 C503 1.327 . S
C501 C507 1.429 . S
C502 C494 1.574 . S
C502 H497 0.949 . S
C502 C508 1.368 . S
C503 C487 1.349 . S
C503 H495 0.950 . S
C503 C501 1.327 . S
C504 C492 1.349 . S
C504 H498 0.950 . S
C504 C505 1.327 . S
C505 H499 0.950 . S
C505 C504 1.327 . S
C505 C509 1.429 . S
C506 C489 1.574 . S
C506 H500 0.949 . S
C506 C510 1.368 . S
C507 C488 1.429 . S
C507 C501 1.429 . S
C507 C508 1.523 . S
C508 C489 1.368 . S
C508 C502 1.368 . S
C508 C507 1.523 . S
C509 C493 1.429 . S
C509 C505 1.429 . S
C509 C510 1.523 . S
C510 C494 1.368 . S
C510 C506 1.368 . S
C510 C509 1.523 . S
H511 C486 0.950 . S
H512 C488 0.950 . S
H513 C489 0.949 . S
H514 C491 0.950 . S
H515 C493 0.950 . S
C516 C517 1.349 . S
C516 C518 1.327 . S
C516 H541 0.950 . S
C517 C516 1.349 . S
C517 C533 1.349 . S
C518 C516 1.327 . S
C518 C537 1.429 . S
C518 H542 0.950 . S
C519 C536 1.574 . S
C519 C538 1.368 . S
C519 H543 0.949 . S
H520 C524 0.949 . S
C521 C522 1.349 . S
C521 C523 1.327 . S
C521 H544 0.950 . S
C522 C521 1.349 . S
C522 C534 1.349 . S
C523 C521 1.327 . S
C523 C539 1.429 . S
C523 H545 0.950 . S
C524 H520 0.949 . S
C524 C532 1.574 . S
C524 C540 1.368 . S
H525 C533 0.950 . S
H526 C531 0.950 . S
H527 C532 0.949 . S
H528 C534 0.950 . S
H529 C535 0.950 . S
H530 C536 0.949 . S
C531 H526 0.950 . S
C531 C533 1.327 . S
C531 C537 1.429 . S
C532 C524 1.574 . S
C532 H527 0.949 . S
C532 C538 1.368 . S
C533 C517 1.349 . S
C533 H525 0.950 . S
C533 C531 1.327 . S
C534 C522 1.349 . S
C534 H528 0.950 . S
C534 C535 1.327 . S
C535 H529 0.950 . S
C535 C534 1.327 . S
C535 C539 1.429 . S
C536 C519 1.574 . S
C536 H530 0.949 . S
C536 C540 1.368 . S
C537 C518 1.429 . S
C537 C531 1.429 . S
C537 C538 1.523 . S
C538 C519 1.368 . S
C538 C532 1.368 . S
C538 C537 1.523 . S
C539 C523 1.429 . S
C539 C535 1.429 . S
C539 C540 1.523 . S
C540 C524 1.368 . S
C540 C536 1.368 . S
C540 C539 1.523 . S
H541 C516 0.950 . S
H542 C518 0.950 . S
H543 C519 0.949 . S
H544 C521 0.950 . S
H545 C523 0.950 . S
C546 C547 1.349 . S
C546 C548 1.327 . S
C546 H571 0.950 . S
C547 C546 1.349 . S
C547 C563 1.327 1_455 S
C548 C546 1.327 . S
C548 C567 1.429 . S
C548 H572 0.950 . S
C549 C566 1.573 . S
C549 C568 1.368 1_655 S
C549 H573 0.949 . S
H550 C554 0.949 . S
C551 C552 1.349 . S
C551 C553 1.327 . S
C551 H574 0.950 1_455 S
C552 C551 1.349 . S
C552 C564 1.349 . S
C553 C551 1.327 . S
C553 C569 1.429 . S
C553 H575 0.950 1_455 S
C554 H550 0.949 . S
C554 C562 1.574 . S
C554 C570 1.368 1_554 S
H555 C563 0.971 . S
H556 C561 0.950 . S
H557 C562 0.949 . S
H558 C564 0.950 . S
H559 C565 0.950 . S
H560 C566 0.970 1_556 S
C561 H556 0.950 . S
C561 C563 1.329 . S
C561 C567 1.429 1_655 S
C562 C554 1.574 . S
C562 H557 0.949 . S
C562 C568 1.368 . S
C563 C547 1.327 1_655 S
C563 H555 0.971 . S
C563 C561 1.329 . S
C564 C552 1.349 . S
C564 H558 0.950 . S
C564 C565 1.327 . S
C565 H559 0.950 . S
C565 C564 1.327 . S
C565 C569 1.429 . S
C566 C549 1.573 . S
C566 H560 0.970 1_554 S
C566 C570 1.347 1_654 S
C567 C548 1.429 . S
C567 C561 1.429 1_455 S
C567 C568 1.523 . S
C568 C549 1.368 1_455 S
C568 C562 1.368 . S
C568 C567 1.523 . S
C569 C553 1.429 . S
C569 C565 1.429 . S
C569 C570 1.523 . S
C570 C554 1.368 1_556 S
C570 C566 1.347 1_456 S
C570 C569 1.523 . S
H571 C546 0.950 . S
H572 C548 0.950 . S
H573 C549 0.949 . S
H574 C551 0.950 1_655 S
H575 C553 0.950 1_655 S
C576 C577 1.349 . S
C576 C578 1.327 . S
C576 H601 0.950 . S
C577 C576 1.349 . S
C577 C593 1.349 . S
C578 C576 1.327 . S
C578 C597 1.429 . S
C578 H602 0.950 . S
C579 C596 1.573 . S
C579 C598 1.368 1_565 S
C579 H603 0.950 . S
H580 C584 0.949 . S
C581 C582 1.349 . S
C581 C583 1.327 . S
C581 H604 0.950 1_545 S
C582 C581 1.349 . S
C582 C594 1.349 . S
C583 C581 1.327 . S
C583 C599 1.429 . S
C583 H605 0.950 1_545 S
C584 H580 0.949 . S
C584 C592 1.574 . S
C584 C600 1.368 . S
H585 C593 0.950 1_565 S
H586 C591 0.937 1_565 S
H587 C592 0.949 . S
H588 C594 0.950 . S
H589 C595 0.950 . S
H590 C596 0.948 . S
C591 H586 0.937 1_545 S
C591 C593 1.326 . S
C591 C597 1.443 . S
C592 C584 1.574 . S
C592 H587 0.949 . S
C592 C598 1.368 . S
C593 C577 1.349 . S
C593 H585 0.950 1_545 S
C593 C591 1.326 . S
C594 C582 1.349 . S
C594 H588 0.950 . S
C594 C595 1.327 . S
C595 H589 0.950 . S
C595 C594 1.327 . S
C595 C599 1.429 . S
C596 C579 1.573 . S
C596 H590 0.948 . S
C596 C600 1.370 1_565 S
C597 C578 1.429 . S
C597 C591 1.443 . S
C597 C598 1.523 . S
C598 C579 1.368 1_545 S
C598 C592 1.368 . S
C598 C597 1.523 . S
C599 C583 1.429 . S
C599 C595 1.429 . S
C599 C600 1.523 . S
C600 C584 1.368 . S
C600 C596 1.370 1_545 S
C600 C599 1.523 . S
H601 C576 0.950 . S
H602 C578 0.950 . S
H603 C579 0.950 . S
H604 C581 0.950 1_565 S
H605 C583 0.950 1_565 S
C606 C607 1.349 . S
C606 C608 1.327 . S
C606 H631 0.950 . S
C607 C606 1.349 . S
C607 C623 1.349 . S
C608 C606 1.327 . S
C608 C627 1.429 . S
C608 H632 0.950 . S
C609 C626 1.574 . S
C609 C628 1.368 . S
C609 H633 0.949 . S
H610 C614 0.949 . S
C611 C612 1.349 . S
C611 C613 1.327 . S
C611 H634 0.950 . S
C612 C611 1.349 . S
C612 C624 1.349 . S
C613 C611 1.327 . S
C613 C629 1.429 . S
C613 H635 0.950 . S
C614 H610 0.949 . S
C614 C622 1.574 . S
C614 C630 1.368 . S
H615 C623 0.950 . S
H616 C621 0.950 . S
H617 C622 0.949 . S
H618 C624 0.950 . S
H619 C625 0.950 . S
H620 C626 0.949 . S
C621 H616 0.950 . S
C621 C623 1.327 . S
C621 C627 1.429 . S
C622 C614 1.574 . S
C622 H617 0.949 . S
C622 C628 1.368 . S
C623 C607 1.349 . S
C623 H615 0.950 . S
C623 C621 1.327 . S
C624 C612 1.349 . S
C624 H618 0.950 . S
C624 C625 1.327 . S
C625 H619 0.950 . S
C625 C624 1.327 . S
C625 C629 1.429 . S
C626 C609 1.574 . S
C626 H620 0.949 . S
C626 C630 1.368 . S
C627 C608 1.429 . S
C627 C621 1.429 . S
C627 C628 1.523 . S
C628 C609 1.368 . S
C628 C622 1.368 . S
C628 C627 1.523 . S
C629 C613 1.429 . S
C629 C625 1.429 . S
C629 C630 1.523 . S
C630 C614 1.368 . S
C630 C626 1.368 . S
C630 C629 1.523 . S
H631 C606 0.950 . S
H632 C608 0.950 . S
H633 C609 0.949 . S
H634 C611 0.950 . S
H635 C613 0.950 . S
C636 C637 1.349 . S
C636 C638 1.327 . S
C636 H661 0.950 . S
C637 C636 1.349 . S
C637 C653 1.349 1_545 S
C638 C636 1.327 . S
C638 C657 1.429 . S
C638 H662 0.950 . S
C639 C656 1.574 . S
C639 C658 1.368 1_565 S
C639 H663 0.949 . S
H640 C644 0.949 . S
C641 C642 1.349 1_565 S
C641 C643 1.327 . S
C641 H664 0.950 . S
C642 C641 1.349 1_545 S
C642 C654 1.349 . S
C643 C641 1.327 . S
C643 C659 1.429 1_565 S
C643 H665 0.950 . S
C644 H640 0.949 . S
C644 C652 1.574 . S
C644 C660 1.368 . S
H645 C653 0.950 . S
H646 C651 0.950 . S
H647 C652 0.949 . S
H648 C654 0.950 . S
H649 C655 0.950 . S
H650 C656 0.949 . S
C651 H646 0.950 . S
C651 C653 1.327 . S
C651 C657 1.429 1_565 S
C652 C644 1.574 . S
C652 H647 0.949 . S
C652 C658 1.368 . S
C653 C637 1.349 1_565 S
C653 H645 0.950 . S
C653 C651 1.327 . S
C654 C642 1.349 . S
C654 H648 0.950 . S
C654 C655 1.327 . S
C655 H649 0.950 . S
C655 C654 1.327 . S
C655 C659 1.429 . S
C656 C639 1.574 . S
C656 H650 0.949 . S
C656 C660 1.368 1_565 S
C657 C638 1.429 . S
C657 C651 1.429 1_545 S
C657 C658 1.523 . S
C658 C639 1.368 1_545 S
C658 C652 1.368 . S
C658 C657 1.523 . S
C659 C643 1.429 1_545 S
C659 C655 1.429 . S
C659 C660 1.523 . S
C660 C644 1.368 . S
C660 C656 1.368 1_545 S
C660 C659 1.523 . S
H661 C636 0.950 . S
H662 C638 0.950 . S
H663 C639 0.949 . S
H664 C641 0.950 . S
H665 C643 0.950 . S
C666 C667 1.349 . S
C666 C668 1.327 . S
C666 H691 0.950 . S
C667 C666 1.349 . S
C667 C683 1.349 . S
C668 C666 1.327 . S
C668 C687 1.429 . S
C668 H692 0.950 . S
C669 C686 1.574 . S
C669 C688 1.368 . S
C669 H693 0.949 . S
H670 C674 0.949 1_554 S
C671 C672 1.349 . S
C671 C673 1.327 . S
C671 H694 0.950 . S
C672 C671 1.349 . S
C672 C684 1.349 . S
C673 C671 1.327 . S
C673 C689 1.429 . S
C673 H695 0.950 . S
C674 H670 0.949 1_556 S
C674 C682 1.574 . S
C674 C690 1.381 . S
H675 C683 0.950 . S
H676 C681 0.950 . S
H677 C682 0.949 . S
H678 C684 0.950 . S
H679 C685 0.950 . S
H680 C686 0.949 . S
C681 H676 0.950 . S
C681 C683 1.327 . S
C681 C687 1.429 . S
C682 C674 1.574 . S
C682 H677 0.949 . S
C682 C688 1.368 . S
C683 C667 1.349 . S
C683 H675 0.950 . S
C683 C681 1.327 . S
C684 C672 1.349 . S
C684 H678 0.950 . S
C684 C685 1.327 . S
C685 H679 0.950 . S
C685 C684 1.327 . S
C685 C689 1.429 . S
C686 C669 1.574 . S
C686 H680 0.949 . S
C686 C690 1.384 . S
C687 C668 1.429 . S
C687 C681 1.429 . S
C687 C688 1.523 . S
C688 C669 1.368 . S
C688 C682 1.368 . S
C688 C687 1.523 . S
C689 C673 1.429 . S
C689 C685 1.429 . S
C689 C690 1.486 1_554 S
C690 C674 1.381 . S
C690 C686 1.384 . S
C690 C689 1.486 1_556 S
H691 C666 0.950 . S
H692 C668 0.950 . S
H693 C669 0.949 . S
H694 C671 0.950 . S
H695 C673 0.950 . S
C696 C697 1.349 . S
C696 C698 1.327 . S
C696 H721 0.950 . S
C697 C696 1.349 . S
C697 C713 1.349 . S
C698 C696 1.327 . S
C698 C717 1.429 . S
C698 H722 0.950 1_455 S
C699 C716 1.574 . S
C699 C718 1.368 . S
C699 H723 0.949 . S
H700 C704 0.949 . S
C701 C702 1.366 . S
C701 C703 1.324 1_655 S
C701 H724 0.936 1_655 S
C702 C701 1.366 . S
C702 C714 1.349 . S
C703 C701 1.324 1_455 S
C703 C719 1.429 1_455 S
C703 H725 0.950 . S
C704 H700 0.949 . S
C704 C712 1.574 . S
C704 C720 1.371 . S
H705 C713 0.950 . S
H706 C711 0.950 . S
H707 C712 0.949 . S
H708 C714 0.950 . S
H709 C715 0.950 . S
H710 C716 0.949 . S
C711 H706 0.950 . S
C711 C713 1.327 . S
C711 C717 1.429 . S
C712 C704 1.574 . S
C712 H707 0.949 . S
C712 C718 1.368 1_655 S
C713 C697 1.349 . S
C713 H705 0.950 . S
C713 C711 1.327 . S
C714 C702 1.349 . S
C714 H708 0.950 . S
C714 C715 1.327 . S
C715 H709 0.950 . S
C715 C714 1.327 . S
C715 C719 1.429 . S
C716 C699 1.574 . S
C716 H710 0.949 . S
C716 C720 1.365 1_455 S
C717 C698 1.429 . S
C717 C711 1.429 . S
C717 C718 1.523 . S
C718 C699 1.368 . S
C718 C712 1.368 1_455 S
C718 C717 1.523 . S
C719 C703 1.429 1_655 S
C719 C715 1.429 . S
C719 C720 1.523 . S
C720 C704 1.371 . S
C720 C716 1.365 1_655 S
C720 C719 1.523 . S
H721 C696 0.950 . S
H722 C698 0.950 1_655 S
H723 C699 0.949 . S
H724 C701 0.936 1_455 S
H725 C703 0.950 . S
C187 C10 3.306 . S
C192 C180 2.952 . S
C217 C55 1.357 . S
C222 C158 1.165 . S
C247 C90 1.717 . S
C252 C172 1.683 . S
C277 C19 2.788 . S
C282 C183 2.737 . S
C312 C161 1.035 . S
C307 C46 1.044 . S
C342 C169 1.844 . S
C337 C99 2.148 . S
C367 C50 2.064 . S
C372 C136 1.787 . S
C397 C95 0.591 . S
C402 C147 0.716 . S
C427 C6 1.435 . S
C432 C125 1.215 . S
C462 C139 1.760 . S
C457 C59 1.801 . S
C492 C150 0.252 . S
C487 C86 0.293 . S
C517 C15 0.994 . S
C522 C128 0.978 . S
C552 C149 1.231 . S
C547 C18 1.262 . S
C577 C49 1.466 . S
C582 C127 1.453 . S
C607 C98 1.436 . S
C612 C138 1.408 . S
C642 C171 1.402 . S
C637 C58 1.409 . S
C672 C182 1.640 . S
C667 C89 1.644 . S
C697 C9 1.502 . S
C702 C160 1.482 . S
