# Generated by pormake.
# Topology pth, (4,4)-cn, num edge types: 1
# Building blocks:
#     Node 0, Type 0, BuildingBlock: AZAVOO_clean_sbu_0, # of connection points: 4
#     Node 1, Type 0, BuildingBlock: AZAVOO_clean_sbu_0, # of connection points: 4
#     Node 2, Type 0, BuildingBlock: AZAVOO_clean_sbu_0, # of connection points: 4
#     Node 3, Type 1, BuildingBlock: KOZSID_clean_sbu_0, # of connection points: 4
#     Node 4, Type 1, BuildingBlock: KOZSID_clean_sbu_0, # of connection points: 4
#     Node 5, Type 1, BuildingBlock: KOZSID_clean_sbu_0, # of connection points: 4
#     Edge 6, Type (0, 1), BuildingBlock: FUNLAD_clean_linker_1, # of connection points: 2
#     Edge 7, Type (0, 1), BuildingBlock: FUNLAD_clean_linker_1, # of connection points: 2
#     Edge 8, Type (0, 1), BuildingBlock: FUNLAD_clean_linker_1, # of connection points: 2
#     Edge 9, Type (0, 1), BuildingBlock: FUNLAD_clean_linker_1, # of connection points: 2
#     Edge 10, Type (0, 1), BuildingBlock: FUNLAD_clean_linker_1, # of connection points: 2
#     Edge 11, Type (0, 1), BuildingBlock: FUNLAD_clean_linker_1, # of connection points: 2
#     Edge 12, Type (0, 1), BuildingBlock: FUNLAD_clean_linker_1, # of connection points: 2
#     Edge 13, Type (0, 1), BuildingBlock: FUNLAD_clean_linker_1, # of connection points: 2
#     Edge 14, Type (0, 1), BuildingBlock: FUNLAD_clean_linker_1, # of connection points: 2
#     Edge 15, Type (0, 1), BuildingBlock: FUNLAD_clean_linker_1, # of connection points: 2
#     Edge 16, Type (0, 1), BuildingBlock: FUNLAD_clean_linker_1, # of connection points: 2
#     Edge 17, Type (0, 1), BuildingBlock: FUNLAD_clean_linker_1, # of connection points: 2
# Relax obj value: 0.066
# Max RMSD: 0.216
# Mean RMSD: 0.106
data_MOF--net-pth--node1-AZAVOO_clean_sbu_0--node2-KOZSID_clean_sbu_0--edge1-FUNLAD_clean_linker_1
_symmetry_space_group_name_H-M    P1
_symmetry_Int_Tables_number       1
_symmetry_cell_setting            triclinic
loop_
_symmetry_equiv_pos_as_xyz
'x, y, z'
_cell_length_a     27.388904
_cell_length_b     27.9608
_cell_length_c     61.53594
_cell_angle_alpha  88.262557
_cell_angle_beta   90.040265
_cell_angle_gamma 122.06091
loop_
_atom_site_label
_atom_site_type_symbol
_atom_site_fract_x
_atom_site_fract_y
_atom_site_fract_z
_atom_type_partial_charge
Mg0 Mg 0.12657 0.09009 0.04472 0.0
O1 O 0.05269 0.02328 0.02434 0.0
O2 O 0.02966 0.0666 0.99902 0.0
Mg3 Mg 0.08742 0.16194 0.00377 0.0
C4 C 0.02292 0.02183 0.00815 0.0
C5 C 0.15553 0.01931 0.07603 0.0
O6 O 0.20748 0.06155 0.07062 0.0
O7 O 0.06634 0.10858 0.06338 0.0
O8 O 0.04824 0.15549 0.03767 0.0
O9 O 0.19351 0.10031 0.02047 0.0
O10 O 0.15287 0.15051 0.01943 0.0
C11 C 0.04356 0.13644 0.0572 0.0
C12 C 0.18845 0.13946 0.01102 0.0
O13 O 0.11206 0.01914 0.06865 0.0
Mg14 Mg 0.98445 0.04188 0.37162 0.0
O15 O 0.06914 0.07642 0.3899 0.0
O16 O 0.08427 0.15087 0.40821 0.0
Mg17 Mg 0.0089 0.16303 0.40223 0.0
C18 C 0.09925 0.11685 0.40259 0.0
C19 C 0.97718 0.96809 0.33387 0.0
O20 O 0.93572 0.97684 0.32916 0.0
O21 O 0.02607 0.1157 0.34666 0.0
O22 O 0.03276 0.18544 0.36595 0.0
O23 O 0.93394 0.98636 0.40067 0.0
O24 O 0.95407 0.07324 0.39477 0.0
C25 C 0.03799 0.16626 0.34807 0.0
C26 C 0.93101 0.0284 0.40714 0.0
O27 O 0.00673 0.98951 0.35077 0.0
Mg28 Mg 0.05308 0.02744 0.69788 0.0
O29 O 0.10663 0.10064 0.72049 0.0
O30 O 0.04645 0.11768 0.73821 0.0
Mg31 Mg 0.95382 0.0522 0.72851 0.0
C32 C 0.09705 0.12847 0.73408 0.0
C33 C 0.13767 0.00746 0.67241 0.0
O34 O 0.0927 0.95593 0.67516 0.0
O35 O 0.03633 0.08284 0.67437 0.0
O36 O 0.96944 0.08759 0.69338 0.0
O37 O 0.03988 0.96454 0.7247 0.0
O38 O 0.98189 0.9957 0.71871 0.0
C39 C 0.99912 0.09703 0.67597 0.0
C40 C 0.99469 0.96519 0.73034 0.0
O41 O 0.13559 0.04844 0.67969 0.0
C42 C 0.12489 0.6662 0.16996 0.0
C43 C 0.17868 0.71134 0.16285 0.0
C44 C 0.21928 0.70637 0.17353 0.0
C45 C 0.18897 0.65992 0.18704 0.0
N46 N 0.13107 0.63387 0.18542 0.0
Co47 Co 0.07197 0.57043 0.20511 0.0
N48 N 0.13293 0.56964 0.22306 0.0
C49 C 0.19055 0.60361 0.22008 0.0
C50 C 0.22193 0.59365 0.23474 0.0
C51 C 0.18202 0.54961 0.24764 0.0
C52 C 0.12804 0.53501 0.24003 0.0
N53 N 0.01296 0.50793 0.22484 0.0
C54 C 0.01953 0.47908 0.2415 0.0
C55 C 0.96762 0.44352 0.25251 0.0
C56 C 0.92618 0.44617 0.24124 0.0
C57 C 0.9553 0.48472 0.22456 0.0
N58 N 0.01094 0.57055 0.1872 0.0
C59 C 0.95326 0.53438 0.18947 0.0
C60 C 0.92195 0.54464 0.17484 0.0
C61 C 0.96182 0.59095 0.16284 0.0
C62 C 0.01554 0.60704 0.17111 0.0
N63 N 0.07059 0.51348 0.18607 0.0
C64 C 0.06884 0.42821 0.16189 0.0
C65 C 0.01786 0.42157 0.17007 0.0
C66 C 0.01977 0.4644 0.1819 0.0
C67 C 0.12052 0.47862 0.16586 0.0
C68 C 0.12047 0.52041 0.17779 0.0
N69 N 0.07309 0.62708 0.22429 0.0
C70 C 0.02249 0.66273 0.24358 0.0
C71 C 0.07426 0.70774 0.2512 0.0
C72 C 0.12527 0.71127 0.24531 0.0
C73 C 0.12383 0.67117 0.23183 0.0
C74 C 0.02297 0.62347 0.23024 0.0
H75 H 0.16437 0.67695 0.2277 0.0
H76 H 0.9821 0.5906 0.22494 0.0
H77 H 0.9795 0.45621 0.18788 0.0
H78 H 0.16137 0.55758 0.18037 0.0
C79 C 0.21385 0.64415 0.20319 0.0
C80 C 0.06909 0.65838 0.16353 0.0
C81 C 0.07391 0.4839 0.24729 0.0
C82 C 0.92959 0.49675 0.20742 0.0
H83 H 0.18941 0.74698 0.15222 0.0
H84 H 0.2655 0.73556 0.17265 0.0
H85 H 0.26835 0.61503 0.23565 0.0
H86 H 0.19235 0.52987 0.26068 0.0
H87 H 0.96039 0.41803 0.26711 0.0
H88 H 0.88024 0.42214 0.2446 0.0
H89 H 0.87553 0.52281 0.17373 0.0
H90 H 0.95221 0.61165 0.1499 0.0
H91 H 0.97646 0.3833 0.16797 0.0
H92 H 0.16115 0.4858 0.15985 0.0
H93 H 0.9814 0.65679 0.24809 0.0
H94 H 0.16638 0.74528 0.25093 0.0
C95 C 0.47364 0.05473 0.56795 0.0
C96 C 0.42295 0.00372 0.57386 0.0
C97 C 0.41505 0.96484 0.55915 0.0
C98 C 0.46009 0.99325 0.54476 0.0
N99 N 0.49688 0.0477 0.54965 0.0
Co100 Co 0.56174 0.10338 0.53027 0.0
N101 N 0.56291 0.04294 0.51475 0.0
C102 C 0.51796 0.98985 0.5131 0.0
C103 C 0.52881 0.95864 0.49943 0.0
C104 C 0.58432 0.99462 0.49206 0.0
C105 C 0.60494 0.0456 0.50221 0.0
N106 N 0.62576 0.15824 0.51057 0.0
C107 C 0.6622 0.15108 0.49826 0.0
C108 C 0.69895 0.20002 0.48593 0.0
C109 C 0.68537 0.239 0.49114 0.0
C110 C 0.64099 0.21179 0.50611 0.0
N111 N 0.56085 0.16429 0.54562 0.0
C112 C 0.58646 0.21846 0.53829 0.0
C113 C 0.58049 0.25207 0.55234 0.0
C114 C 0.548 0.21681 0.56935 0.0
C115 C 0.53454 0.16267 0.56457 0.0
N116 N 0.61747 0.10596 0.55078 0.0
C117 C 0.70301 0.10856 0.57665 0.0
C118 C 0.70933 0.1587 0.56814 0.0
C119 C 0.66601 0.15643 0.55533 0.0
C120 C 0.65196 0.05742 0.57259 0.0
C121 C 0.60993 0.05694 0.55954 0.0
N122 N 0.5062 0.1009 0.50949 0.0
C123 C 0.47432 0.09604 0.47268 0.0
C124 C 0.42713 0.09853 0.47975 0.0
C125 C 0.42071 0.10251 0.50215 0.0
C126 C 0.46036 0.10338 0.51662 0.0
C127 C 0.51323 0.0973 0.48772 0.0
H128 H 0.45381 0.10634 0.53363 0.0
H129 H 0.54914 0.09547 0.48169 0.0
H130 H 0.6723 0.19553 0.54876 0.0
H131 H 0.57183 0.0168 0.55612 0.0
C132 C 0.47055 0.96927 0.52713 0.0
C133 C 0.49193 0.11061 0.57713 0.0
C134 C 0.66122 0.09796 0.49765 0.0
C135 C 0.62086 0.23754 0.51938 0.0
H136 H 0.39142 0.99445 0.58636 0.0
H137 H 0.37974 0.92124 0.55875 0.0
H138 H 0.50029 0.91477 0.49558 0.0
H139 H 0.60593 0.98434 0.48013 0.0
H140 H 0.73213 0.20728 0.47438 0.0
H141 H 0.70712 0.28268 0.48545 0.0
H142 H 0.5986 0.29712 0.55067 0.0
H143 H 0.53525 0.23003 0.58345 0.0
H144 H 0.74699 0.19951 0.5714 0.0
H145 H 0.64507 0.01779 0.57909 0.0
H146 H 0.48123 0.09318 0.45556 0.0
H147 H 0.38601 0.1055 0.50881 0.0
C148 C 0.70245 0.57611 0.8325 0.0
C149 C 0.73903 0.56237 0.8226 0.0
C150 C 0.73475 0.51833 0.83446 0.0
C151 C 0.69546 0.50689 0.85063 0.0
N152 N 0.67352 0.54023 0.84965 0.0
Co153 Co 0.60967 0.53222 0.86847 0.0
N154 N 0.60564 0.46914 0.88621 0.0
C155 C 0.64359 0.45227 0.8855 0.0
C156 C 0.63188 0.4099 0.90034 0.0
C157 C 0.5829 0.39827 0.91093 0.0
C158 C 0.56676 0.43373 0.90159 0.0
N159 N 0.54247 0.52085 0.88634 0.0
C160 C 0.50603 0.47755 0.90035 0.0
C161 C 0.45803 0.48041 0.90538 0.0
C162 C 0.46551 0.52761 0.89504 0.0
C163 C 0.51622 0.55014 0.88366 0.0
N164 N 0.61651 0.59791 0.85145 0.0
C165 C 0.58381 0.62032 0.85414 0.0
C166 C 0.59682 0.66387 0.83972 0.0
C167 C 0.64186 0.67096 0.82752 0.0
C168 C 0.65511 0.6323 0.83569 0.0
N169 N 0.55362 0.47775 0.84766 0.0
C170 C 0.47053 0.39807 0.8196 0.0
C171 C 0.47289 0.44811 0.82381 0.0
C172 C 0.51426 0.48685 0.83776 0.0
C173 C 0.51169 0.38952 0.82915 0.0
C174 C 0.55244 0.42945 0.84308 0.0
N175 N 0.66586 0.58721 0.88923 0.0
C176 C 0.69332 0.66343 0.9137 0.0
C177 C 0.74916 0.67413 0.91504 0.0
C178 C 0.76219 0.63972 0.90368 0.0
C179 C 0.72003 0.59625 0.89123 0.0
C180 C 0.65283 0.62031 0.9008 0.0
H181 H 0.73278 0.57139 0.88303 0.0
H182 H 0.6118 0.6159 0.90002 0.0
H183 H 0.51324 0.52375 0.84031 0.0
H184 H 0.58232 0.42018 0.8501 0.0
C185 C 0.6827 0.4693 0.8682 0.0
C186 C 0.70354 0.62846 0.82767 0.0
C187 C 0.51345 0.4309 0.90753 0.0
C188 C 0.53803 0.59628 0.86906 0.0
H189 H 0.76789 0.58291 0.80879 0.0
H190 H 0.75908 0.49847 0.83206 0.0
H191 H 0.65443 0.38795 0.90241 0.0
H192 H 0.56072 0.36609 0.92367 0.0
H193 H 0.4194 0.4505 0.91441 0.0
H194 H 0.43572 0.54192 0.89482 0.0
H195 H 0.57519 0.68677 0.83793 0.0
H196 H 0.66177 0.70079 0.81394 0.0
H197 H 0.4436 0.45818 0.81625 0.0
H198 H 0.51199 0.3517 0.82613 0.0
H199 H 0.68126 0.68967 0.92175 0.0
H200 H 0.80501 0.6466 0.90425 0.0
H201 H 0.99216 0.17131 0.06754 0.0
C202 C 0.01998 0.15706 0.07341 0.0
H203 H 0.07435 0.16221 0.09885 0.0
H204 H 0.08147 0.4 0.1067 0.0
H205 H 0.14093 0.42751 0.07406 0.0
H206 H 0.15698 0.35944 0.0559 0.0
H207 H 0.11246 0.26319 0.06996 0.0
C208 C 0.04399 0.17324 0.09302 0.0
C209 C 0.03873 0.21558 0.10527 0.0
C210 C 0.0678 0.27272 0.09748 0.0
C211 C 0.06139 0.31291 0.10868 0.0
C212 C 0.08726 0.36846 0.09955 0.0
C213 C 0.12116 0.38476 0.08068 0.0
C214 C 0.12998 0.34638 0.07041 0.0
C215 C 0.10375 0.29103 0.07861 0.0
H216 H 0.11221 0.38872 0.14718 0.0
C217 C 0.07041 0.38377 0.14967 0.0
H218 H 0.98136 0.33225 0.14274 0.0
H219 H 0.97896 0.11043 0.12479 0.0
H220 H 0.92308 0.08373 0.15852 0.0
H221 H 0.91563 0.15427 0.17893 0.0
H222 H 0.96362 0.25183 0.16574 0.0
C223 C 0.02404 0.33927 0.14083 0.0
C224 C 0.02903 0.29688 0.12846 0.0
C225 C 1.00089 0.24002 0.13645 0.0
C226 C 0.00565 0.19936 0.12481 0.0
C227 C 0.9769 0.14292 0.13308 0.0
C228 C 0.94474 0.12707 0.1524 0.0
C229 C 0.94051 0.16679 0.16389 0.0
C230 C 0.96819 0.22266 0.15611 0.0
H231 H 0.87244 0.9824 0.43526 0.0
C232 C 0.89822 0.02353 0.42703 0.0
H233 H 0.91763 0.10725 0.42444 0.0
H234 H 0.67191 0.04784 0.45246 0.0
H235 H 0.66623 0.05392 0.41341 0.0
H236 H 0.74281 0.06212 0.38956 0.0
H237 H 0.8252 0.06371 0.40474 0.0
C238 C 0.89367 0.06675 0.43321 0.0
C239 C 0.84651 0.0581 0.44798 0.0
C240 C 0.79889 0.05799 0.43887 0.0
C241 C 0.7553 0.05427 0.45264 0.0
C242 C 0.70728 0.05229 0.44295 0.0
C243 C 0.70319 0.05535 0.42046 0.0
C244 C 0.74624 0.0599 0.40704 0.0
C245 C 0.79347 0.061 0.41602 0.0
H246 H 0.74583 0.13733 0.48252 0.0
C247 C 0.71014 0.09853 0.48974 0.0
H248 H 0.68916 0.01481 0.50038 0.0
H249 H 0.93125 0.05584 0.47053 0.0
H250 H 0.93699 0.04915 0.50982 0.0
H251 H 0.86189 0.04364 0.53381 0.0
H252 H 0.78043 0.0446 0.51872 0.0
C253 C 0.71631 0.05185 0.49 0.0
C254 C 0.76006 0.05192 0.4756 0.0
C255 C 0.80671 0.05018 0.48468 0.0
C256 C 0.8501 0.05338 0.47084 0.0
C257 C 0.897 0.05309 0.48032 0.0
C258 C 0.90083 0.04938 0.50283 0.0
C259 C 0.85851 0.04624 0.51635 0.0
C260 C 0.81195 0.04674 0.50747 0.0
H261 H 0.92058 0.93567 0.75246 0.0
C262 C 0.95664 0.93098 0.74877 0.0
H263 H 0.99498 0.88363 0.75568 0.0
H264 H 0.84728 0.78729 0.84503 0.0
H265 H 0.94023 0.85652 0.85952 0.0
H266 H 0.021 0.92304 0.83503 0.0
H267 H 0.00946 0.92043 0.79584 0.0
C268 C 0.95985 0.88982 0.7591 0.0
C269 C 0.91194 0.84848 0.77392 0.0
C270 C 0.91922 0.85078 0.79673 0.0
C271 C 0.87238 0.81281 0.81085 0.0
C272 C 0.88116 0.81549 0.83357 0.0
C273 C 0.93432 0.85498 0.8421 0.0
C274 C 0.97982 0.89243 0.82831 0.0
C275 C 0.97263 0.89053 0.80587 0.0
H276 H 0.7778 0.6643 0.80583 0.0
C277 C 0.75113 0.67324 0.81574 0.0
H278 H 0.75417 0.74567 0.82916 0.0
H279 H 0.885 0.8286 0.73085 0.0
H280 H 0.79131 0.76213 0.71635 0.0
H281 H 0.70816 0.70148 0.74085 0.0
H282 H 0.71855 0.70628 0.77994 0.0
C283 C 0.77034 0.73064 0.81671 0.0
C284 C 0.81834 0.77277 0.80209 0.0
C285 C 0.81082 0.77113 0.77924 0.0
C286 C 0.85804 0.80798 0.76514 0.0
C287 C 0.85011 0.8032 0.74236 0.0
C288 C 0.7966 0.76494 0.7338 0.0
C289 C 0.74986 0.73067 0.74758 0.0
C290 C 0.75659 0.73357 0.77003 0.0
H291 H 0.18791 0.97434 0.09523 0.0
C292 C 0.14893 0.97137 0.0894 0.0
H293 H 0.0585 0.91899 0.08705 0.0
H294 H 0.05722 0.69247 0.09806 0.0
H295 H 0.02773 0.68868 0.06066 0.0
H296 H 0.02867 0.76952 0.04295 0.0
H297 H 0.05866 0.85446 0.06258 0.0
C298 C 0.09765 0.92365 0.09355 0.0
C299 C 0.094 0.87376 0.1048 0.0
C300 C 0.07654 0.82443 0.09307 0.0
C301 C 0.07704 0.77818 0.10314 0.0
C302 C 0.05876 0.72925 0.09109 0.0
C303 C 0.0415 0.72641 0.06962 0.0
C304 C 0.04194 0.77188 0.05967 0.0
C305 C 0.05924 0.82041 0.07115 0.0
H306 H 0.02809 0.70487 0.15615 0.0
C307 C 0.06452 0.70093 0.15231 0.0
H308 H 0.12661 0.72266 0.12642 0.0
H309 H 0.12077 0.95784 0.13298 0.0
H310 H 0.15159 0.96243 0.17025 0.0
H311 H 0.15957 0.88554 0.18689 0.0
H312 H 0.1359 0.80334 0.16659 0.0
C313 C 0.0999 0.73455 0.13477 0.0
C314 C 0.09541 0.78141 0.12489 0.0
C315 C 0.11169 0.83029 0.13681 0.0
C316 C 0.10973 0.87592 0.12689 0.0
C317 C 0.12359 0.923 0.13946 0.0
C318 C 0.14103 0.92604 0.1609 0.0
C319 C 0.14532 0.88266 0.1703 0.0
C320 C 0.13112 0.83539 0.15847 0.0
H321 H 0.17206 0.15369 0.42508 0.0
C322 C 0.15095 0.12252 0.41265 0.0
H323 H 0.14852 0.056 0.39631 0.0
H324 H 0.39855 0.1957 0.4504 0.0
H325 H 0.42373 0.2754 0.42596 0.0
H326 H 0.3552 0.26977 0.39858 0.0
H327 H 0.26052 0.18463 0.3958 0.0
C328 C 0.17017 0.08841 0.40823 0.0
C329 C 0.21562 0.08866 0.42169 0.0
C330 C 0.27187 0.13767 0.42235 0.0
C331 C 0.31239 0.13993 0.43745 0.0
C332 C 0.36682 0.19077 0.43873 0.0
C333 C 0.38177 0.23702 0.42485 0.0
C334 C 0.34311 0.23393 0.40948 0.0
C335 C 0.28876 0.18496 0.40817 0.0
H336 H 0.39746 0.09865 0.4462 0.0
C337 C 0.38662 0.0976 0.46329 0.0
H338 H 0.32273 0.09091 0.4849 0.0
H339 H 0.11293 0.98648 0.42359 0.0
H340 H 0.09011 0.90469 0.44629 0.0
H341 H 0.16198 0.90716 0.47118 0.0
H342 H 0.25707 0.99175 0.47362 0.0
C343 C 0.33738 0.09506 0.46822 0.0
C344 C 0.29743 0.09215 0.45114 0.0
C345 C 0.24246 0.04202 0.44953 0.0
C346 C 0.20142 0.0403 0.43487 0.0
C347 C 0.14621 0.99009 0.43415 0.0
C348 C 0.13242 0.94274 0.44714 0.0
C349 C 0.17285 0.94415 0.46118 0.0
C350 C 0.22723 0.99307 0.46245 0.0
H351 H 0.13662 0.1985 0.75681 0.0
C352 C 0.14526 0.17275 0.74654 0.0
H353 H 0.20728 0.15439 0.73657 0.0
H354 H 0.4223 0.3896 0.76317 0.0
H355 H 0.43259 0.39709 0.72387 0.0
H356 H 0.35707 0.32449 0.70103 0.0
H357 H 0.27068 0.24404 0.71735 0.0
C358 C 0.19764 0.17937 0.74685 0.0
C359 C 0.24433 0.22159 0.76083 0.0
C360 C 0.29502 0.26789 0.75105 0.0
C361 C 0.3388 0.30959 0.76423 0.0
C362 C 0.38814 0.35625 0.75398 0.0
C363 C 0.3945 0.3612 0.73142 0.0
C364 C 0.35197 0.32034 0.71856 0.0
C365 C 0.30263 0.27428 0.72815 0.0
H366 H 0.43566 0.32505 0.79807 0.0
C367 C 0.42673 0.3549 0.80512 0.0
H368 H 0.36337 0.37568 0.80914 0.0
H369 H 0.15724 0.13342 0.78512 0.0
H370 H 0.14768 0.12556 0.8244 0.0
H371 H 0.22198 0.19964 0.84715 0.0
H372 H 0.30663 0.28174 0.83069 0.0
C373 C 0.37582 0.34967 0.80107 0.0
C374 C 0.33202 0.30461 0.78719 0.0
C375 C 0.28209 0.2576 0.79701 0.0
C376 C 0.23859 0.21558 0.78386 0.0
C377 C 0.19057 0.16771 0.79421 0.0
C378 C 0.18478 0.16239 0.8168 0.0
C379 C 0.22663 0.20403 0.8296 0.0
C380 C 0.27492 0.25104 0.81993 0.0
H381 H 0.01034 0.12848 0.64156 0.0
C382 C 0.98456 0.11874 0.65633 0.0
H383 H 0.91031 0.11054 0.67069 0.0
H384 H 0.84278 0.24122 0.60876 0.0
H385 H 0.89073 0.31066 0.63643 0.0
H386 H 0.95044 0.30032 0.66391 0.0
H387 H 0.96232 0.22017 0.66395 0.0
C388 C 0.93597 0.11994 0.6559 0.0
C389 C 0.91336 0.13312 0.63606 0.0
C390 C 0.90816 0.18095 0.63579 0.0
C391 C 0.87441 0.18733 0.61973 0.0
C392 C 0.86837 0.23453 0.62041 0.0
C393 C 0.89563 0.27472 0.63622 0.0
C394 C 0.92919 0.26886 0.65171 0.0
C395 C 0.93545 0.22258 0.65161 0.0
H396 H 0.73367 0.07168 0.60131 0.0
C397 C 0.74762 0.10795 0.59026 0.0
H398 H 0.81997 0.1848 0.57803 0.0
H399 H 0.9156 0.03688 0.63105 0.0
H400 H 0.87435 0.9721 0.60166 0.0
H401 H 0.82238 0.98756 0.57228 0.0
H402 H 0.81032 0.06751 0.57245 0.0
C403 C 0.80414 0.14842 0.58911 0.0
C404 C 0.84618 0.14599 0.60384 0.0
C405 C 0.8559 0.10106 0.60284 0.0
C406 C 0.88833 0.09375 0.61925 0.0
C407 C 0.89333 0.04591 0.61869 0.0
C408 C 0.86962 0.00813 0.6019 0.0
C409 C 0.8402 0.01673 0.5854 0.0
C410 C 0.83325 0.06254 0.58578 0.0
H411 H 0.96469 0.92897 0.01043 0.0
C412 C 0.97959 0.96608 0.99979 0.0
H413 H 0.97527 0.99692 0.96864 0.0
H414 H 0.8576 0.71773 0.9589 0.0
H415 H 0.94879 0.73261 0.97093 0.0
H416 H 0.0274 0.8268 0.98158 0.0
H417 H 0.01463 0.9061 0.98092 0.0
C418 C 0.96033 0.95985 0.97931 0.0
C419 C 0.9156 0.90377 0.97087 0.0
C420 C 0.92535 0.85872 0.96995 0.0
C421 C 0.88153 0.80533 0.96226 0.0
C422 C 0.89054 0.7599 0.96333 0.0
C423 C 0.94254 0.76774 0.97039 0.0
C424 C 0.98667 0.82068 0.97649 0.0
C425 C 0.9785 0.8658 0.97625 0.0
H426 H 0.83905 0.74385 0.92022 0.0
C427 C 0.79524 0.72332 0.92666 0.0
H428 H 0.74147 0.72314 0.95126 0.0
H429 H 0.88164 0.98003 0.97097 0.0
H430 H 0.79297 0.96673 0.95677 0.0
H431 H 0.72077 0.87701 0.94057 0.0
H432 H 0.73642 0.79981 0.93876 0.0
C433 C 0.78484 0.74381 0.94443 0.0
C434 C 0.82986 0.79824 0.95387 0.0
C435 C 0.82064 0.8436 0.95439 0.0
C436 C 0.8631 0.896 0.96315 0.0
C437 C 0.85168 0.9398 0.96404 0.0
C438 C 0.80078 0.9327 0.95601 0.0
C439 C 0.76009 0.88217 0.94693 0.0
C440 C 0.76963 0.83805 0.94607 0.0
H441 H 0.95943 0.91417 0.30591 0.0
C442 C 0.9877 0.93281 0.31964 0.0
H443 H 0.05741 0.93937 0.33706 0.0
H444 H 0.01006 0.70623 0.30322 0.0
H445 H 0.98695 0.68415 0.34167 0.0
H446 H 0.98626 0.75297 0.36561 0.0
H447 H 0.00855 0.84426 0.35125 0.0
C448 C 0.02981 0.9225 0.32306 0.0
C449 C 0.03619 0.88363 0.30894 0.0
C450 C 0.02429 0.83091 0.31771 0.0
C451 C 0.02504 0.79132 0.30393 0.0
C452 C 0.01099 0.73822 0.31298 0.0
C453 C 0.99743 0.72489 0.33502 0.0
C454 C 0.99701 0.76363 0.3485 0.0
C455 C 0.01001 0.81596 0.34004 0.0
H456 H 0.11392 0.77365 0.27586 0.0
C457 C 0.07632 0.75025 0.26577 0.0
H458 H 0.99863 0.74275 0.25568 0.0
H459 H 0.07032 0.98429 0.28758 0.0
H460 H 0.09506 0.00691 0.24923 0.0
H461 H 0.09386 0.93728 0.22517 0.0
H462 H 0.06832 0.84474 0.23939 0.0
C463 C 0.03471 0.76203 0.26663 0.0
C464 C 0.03827 0.8048 0.28145 0.0
C465 C 0.05229 0.85828 0.27284 0.0
C466 C 0.05193 0.89802 0.28663 0.0
C467 C 0.06813 0.95186 0.27772 0.0
C468 C 0.08287 0.96556 0.25576 0.0
C469 C 0.08227 0.92639 0.24222 0.0
C470 C 0.06736 0.87337 0.25057 0.0
H471 H 0.18542 0.98002 0.65302 0.0
C472 C 0.1888 0.0164 0.66048 0.0
H473 H 0.24384 0.10326 0.66648 0.0
H474 H 0.46978 0.09729 0.64856 0.0
H475 H 0.47505 0.10973 0.68752 0.0
H476 H 0.39507 0.10528 0.70787 0.0
H477 H 0.30937 0.08862 0.68936 0.0
C478 C 0.23857 0.06676 0.65845 0.0
C479 C 0.28841 0.07297 0.64592 0.0
C480 C 0.3382 0.0827 0.65693 0.0
C481 C 0.38408 0.08457 0.64522 0.0
C482 C 0.43338 0.09469 0.65667 0.0
C483 C 0.43703 0.10206 0.67903 0.0
C484 C 0.39202 0.09961 0.69049 0.0
C485 C 0.34307 0.09002 0.67966 0.0
H486 H 0.45465 0.15245 0.59303 0.0
C487 C 0.45872 0.11592 0.59362 0.0
H488 H 0.43758 0.04489 0.6152 0.0
H489 H 0.20327 0.06245 0.61936 0.0
H490 H 0.19643 0.04796 0.58059 0.0
H491 H 0.27219 0.04411 0.56059 0.0
H492 H 0.35528 0.05576 0.57903 0.0
C493 C 0.42734 0.07626 0.61044 0.0
C494 C 0.3802 0.07674 0.62248 0.0
C495 C 0.33052 0.06778 0.61137 0.0
C496 C 0.28534 0.06724 0.62305 0.0
C497 C 0.23767 0.06095 0.61145 0.0
C498 C 0.23333 0.05296 0.58915 0.0
C499 C 0.27606 0.05101 0.57789 0.0
C500 C 0.324 0.05818 0.58876 0.0
H501 H 0.2149 0.204 0.98486 0.0
C502 C 0.22475 0.17439 0.99233 0.0
H503 H 0.2863 0.15124 0.99507 0.0
H504 H 0.35813 0.32865 0.90733 0.0
H505 H 0.27237 0.25286 0.89086 0.0
H506 H 0.2074 0.16377 0.91149 0.0
H507 H 0.22758 0.15025 0.94885 0.0
C508 C 0.27403 0.17807 0.98676 0.0
C509 C 0.31791 0.22699 0.97292 0.0
C510 C 0.3067 0.23345 0.95087 0.0
C511 C 0.34532 0.28406 0.93873 0.0
C512 C 0.33142 0.29045 0.9171 0.0
C513 C 0.2821 0.24737 0.90747 0.0
C514 C 0.24542 0.19727 0.9191 0.0
C515 C 0.25732 0.19018 0.94056 0.0
H516 H 0.4676 0.34196 0.91626 0.0
C517 C 0.47015 0.38148 0.91892 0.0
H518 H 0.44607 0.42026 0.94294 0.0
H519 H 0.35387 0.2275 0.01461 0.0
H520 H 0.44218 0.30104 0.03041 0.0
H521 H 0.51114 0.38685 0.00886 0.0
H522 H 0.49184 0.39987 0.97142 0.0
C523 C 0.43635 0.38088 0.93609 0.0
C524 C 0.3961 0.32734 0.94848 0.0
C525 C 0.4086 0.3198 0.97021 0.0
C526 C 0.3694 0.26973 0.98248 0.0
C527 C 0.38235 0.26418 0.00437 0.0
C528 C 0.43295 0.30615 0.01369 0.0
C529 C 0.47173 0.35449 0.00157 0.0
C530 C 0.45997 0.36148 0.98009 0.0
H531 H 0.04881 0.18229 0.3124 0.0
C532 C 0.05016 0.20093 0.32781 0.0
H533 H 0.05262 0.26857 0.34322 0.0
H534 H 0.12815 0.38866 0.24514 0.0
H535 H 0.21643 0.38875 0.24939 0.0
H536 H 0.22834 0.33889 0.28074 0.0
H537 H 0.15162 0.28771 0.3078 0.0
C538 C 0.05404 0.25096 0.3279 0.0
C539 C 0.0466 0.27738 0.30787 0.0
C540 C 0.09232 0.30804 0.29257 0.0
C541 C 0.08643 0.3389 0.27503 0.0
C542 C 0.13162 0.36696 0.25935 0.0
C543 C 0.1822 0.36683 0.26148 0.0
C544 C 0.18883 0.3386 0.2791 0.0
C545 C 0.14451 0.3094 0.29451 0.0
H546 H 0.11214 0.45235 0.26971 0.0
C547 C 0.07527 0.44102 0.25968 0.0
H548 H 0.99919 0.3683 0.24694 0.0
H549 H 0.94765 0.21572 0.33248 0.0
H550 H 0.85781 0.21157 0.3271 0.0
H551 H 0.84763 0.26508 0.29672 0.0
H552 H 0.92701 0.32286 0.27163 0.0
C553 C 0.034 0.383 0.25842 0.0
C554 C 0.03577 0.34088 0.2734 0.0
C555 C 0.98799 0.30556 0.28744 0.0
C556 C 0.99369 0.27434 0.30485 0.0
C557 C 0.94586 0.24063 0.31906 0.0
C558 C 0.89393 0.23768 0.31612 0.0
C559 C 0.88822 0.26784 0.29904 0.0
C560 C 0.93447 0.30136 0.28483 0.0
loop_
_geom_bond_atom_site_label_1
_geom_bond_atom_site_label_2
_geom_bond_distance
_geom_bond_site_symmetry_2
_ccdc_geom_bond_type
Mg0 O1 2.028 . S
Mg0 O7 1.986 . S
Mg0 O9 2.114 . S
Mg0 O10 2.251 . S
Mg0 O13 2.010 . S
O1 Mg0 2.028 . S
O1 C4 1.250 . S
O2 Mg3 2.028 . S
O2 C4 1.248 . S
Mg3 O2 2.028 . S
Mg3 O8 2.032 . S
Mg3 O10 2.079 . S
C4 O1 1.250 . S
C4 O2 1.248 . S
C5 O6 1.264 1_565 S
C5 O13 1.249 1_565 S
O6 C5 1.264 1_545 S
O7 Mg0 1.986 . S
O7 C11 1.246 . S
O8 Mg3 2.032 . S
O8 C11 1.259 . S
O9 Mg0 2.114 . S
O9 C12 1.252 . S
O10 Mg0 2.251 . S
O10 Mg3 2.079 . S
O10 C12 1.273 . S
C11 O7 1.246 . S
C11 O8 1.259 . S
C12 O9 1.252 . S
C12 O10 1.273 . S
O13 Mg0 2.010 . S
O13 C5 1.249 1_545 S
Mg14 O15 2.028 . S
Mg14 O21 1.986 . S
Mg14 O23 2.114 1_455 S
Mg14 O24 2.251 1_455 S
Mg14 O27 2.010 1_445 S
O15 Mg14 2.028 . S
O15 C18 1.250 . S
O16 Mg17 2.028 . S
O16 C18 1.248 . S
Mg17 O16 2.028 . S
Mg17 O22 2.032 . S
Mg17 O24 2.079 1_455 S
C18 O15 1.250 . S
C18 O16 1.248 . S
C19 O20 1.264 . S
C19 O27 1.249 . S
O20 C19 1.264 . S
O21 Mg14 1.986 . S
O21 C25 1.246 . S
O22 Mg17 2.032 . S
O22 C25 1.259 . S
O23 Mg14 2.114 1_655 S
O23 C26 1.252 . S
O24 Mg14 2.251 1_655 S
O24 Mg17 2.079 1_655 S
O24 C26 1.273 . S
C25 O21 1.246 . S
C25 O22 1.259 . S
C26 O23 1.252 . S
C26 O24 1.273 . S
O27 Mg14 2.010 1_665 S
O27 C19 1.249 . S
Mg28 O29 2.028 . S
Mg28 O35 1.986 . S
Mg28 O37 2.114 1_545 S
Mg28 O38 2.251 1_445 S
Mg28 O41 2.010 . S
O29 Mg28 2.028 . S
O29 C32 1.250 . S
O30 Mg31 2.028 1_455 S
O30 C32 1.248 . S
Mg31 O30 2.028 1_655 S
Mg31 O36 2.032 . S
Mg31 O38 2.079 1_545 S
C32 O29 1.250 . S
C32 O30 1.248 . S
C33 O34 1.264 . S
C33 O41 1.249 1_565 S
O34 C33 1.264 . S
O35 Mg28 1.986 . S
O35 C39 1.223 1_455 S
O36 Mg31 2.032 . S
O36 C39 1.269 . S
O37 Mg28 2.114 1_565 S
O37 C40 1.252 . S
O38 Mg28 2.251 1_665 S
O38 Mg31 2.079 1_565 S
O38 C40 1.273 1_655 S
C39 O35 1.223 1_655 S
C39 O36 1.269 . S
C40 O37 1.252 . S
C40 O38 1.273 1_455 S
O41 Mg28 2.010 . S
O41 C33 1.249 1_545 S
C42 C43 1.443 . S
C42 N46 1.376 . S
C42 C80 1.389 . S
C43 C42 1.443 . S
C43 C44 1.340 . S
C43 H83 0.951 . S
C44 C43 1.340 . S
C44 C45 1.439 . S
C44 H84 0.950 . S
C45 C44 1.439 . S
C45 N46 1.374 . S
C45 C79 1.395 . S
N46 C42 1.376 . S
N46 C45 1.374 . S
N46 Co47 2.008 . S
Co47 N46 2.008 . S
Co47 N48 1.995 . S
Co47 N53 2.008 1_455 S
Co47 N58 1.995 1_455 S
Co47 N63 2.282 . S
Co47 N69 2.282 . S
N48 Co47 1.995 . S
N48 C49 1.376 . S
N48 C52 1.383 . S
C49 N48 1.376 . S
C49 C50 1.446 . S
C49 C79 1.391 . S
C50 C49 1.446 . S
C50 C51 1.339 . S
C50 H85 0.949 . S
C51 C50 1.339 . S
C51 C52 1.439 . S
C51 H86 0.950 . S
C52 N48 1.383 . S
C52 C51 1.439 . S
C52 C81 1.392 . S
N53 Co47 2.008 1_655 S
N53 C54 1.376 . S
N53 C57 1.374 . S
C54 N53 1.376 . S
C54 C55 1.443 . S
C54 C81 1.389 1_655 S
C55 C54 1.443 . S
C55 C56 1.340 . S
C55 H87 0.951 . S
C56 C55 1.340 . S
C56 C57 1.439 . S
C56 H88 0.950 . S
C57 N53 1.374 . S
C57 C56 1.439 . S
C57 C82 1.395 . S
N58 Co47 1.995 1_655 S
N58 C59 1.376 . S
N58 C62 1.383 1_655 S
C59 N58 1.376 . S
C59 C60 1.446 . S
C59 C82 1.391 . S
C60 C59 1.446 . S
C60 C61 1.339 . S
C60 H89 0.949 . S
C61 C60 1.339 . S
C61 C62 1.439 1_655 S
C61 H90 0.950 . S
C62 N58 1.383 1_455 S
C62 C61 1.439 1_455 S
C62 C80 1.392 . S
N63 Co47 2.282 . S
N63 C66 1.332 . S
N63 C68 1.332 . S
C64 C65 1.386 . S
C64 C67 1.388 . S
C65 C64 1.386 . S
C65 C66 1.382 . S
C65 H91 0.950 1_455 S
C66 N63 1.332 . S
C66 C65 1.382 . S
C66 H77 0.952 1_455 S
C67 C64 1.388 . S
C67 C68 1.382 . S
C67 H92 0.950 . S
C68 N63 1.332 . S
C68 C67 1.382 . S
C68 H78 0.948 . S
N69 Co47 2.282 . S
N69 C73 1.332 . S
N69 C74 1.332 1_455 S
C70 C71 1.388 1_655 S
C70 C74 1.382 . S
C70 H93 0.950 . S
C71 C70 1.388 1_455 S
C71 C72 1.386 . S
C72 C71 1.386 . S
C72 C73 1.382 . S
C72 H94 0.950 . S
C73 N69 1.332 . S
C73 C72 1.382 . S
C73 H75 0.952 . S
C74 N69 1.332 1_655 S
C74 C70 1.382 . S
C74 H76 0.948 . S
H75 C73 0.952 . S
H76 C74 0.948 . S
H77 C66 0.952 1_655 S
H78 C68 0.948 . S
C79 C45 1.395 . S
C79 C49 1.391 . S
C80 C42 1.389 . S
C80 C62 1.392 . S
C81 C52 1.392 . S
C81 C54 1.389 1_455 S
C82 C57 1.395 . S
C82 C59 1.391 . S
H83 C43 0.951 . S
H84 C44 0.950 . S
H85 C50 0.949 . S
H86 C51 0.950 . S
H87 C55 0.951 . S
H88 C56 0.950 . S
H89 C60 0.949 . S
H90 C61 0.950 . S
H91 C65 0.950 1_655 S
H92 C67 0.950 . S
H93 C70 0.950 . S
H94 C72 0.950 . S
C95 C96 1.443 1_545 S
C95 N99 1.376 . S
C95 C133 1.389 . S
C96 C95 1.443 1_565 S
C96 C97 1.340 . S
C96 H136 0.951 . S
C97 C96 1.340 . S
C97 C98 1.439 . S
C97 H137 0.950 . S
C98 C97 1.439 . S
C98 N99 1.374 1_565 S
C98 C132 1.395 . S
N99 C95 1.376 . S
N99 C98 1.374 1_545 S
N99 Co100 2.008 . S
Co100 N99 2.008 . S
Co100 N101 1.995 . S
Co100 N106 2.008 . S
Co100 N111 1.995 . S
Co100 N116 2.282 . S
Co100 N122 2.282 . S
N101 Co100 1.995 . S
N101 C102 1.376 1_545 S
N101 C105 1.383 . S
C102 N101 1.376 1_565 S
C102 C103 1.446 . S
C102 C132 1.391 . S
C103 C102 1.446 . S
C103 C104 1.339 1_565 S
C103 H138 0.949 . S
C104 C103 1.339 1_545 S
C104 C105 1.439 . S
C104 H139 0.950 . S
C105 N101 1.383 . S
C105 C104 1.439 . S
C105 C134 1.392 . S
N106 Co100 2.008 . S
N106 C107 1.376 . S
N106 C110 1.374 . S
C107 N106 1.376 . S
C107 C108 1.443 . S
C107 C134 1.389 . S
C108 C107 1.443 . S
C108 C109 1.340 . S
C108 H140 0.951 . S
C109 C108 1.340 . S
C109 C110 1.439 . S
C109 H141 0.950 . S
C110 N106 1.374 . S
C110 C109 1.439 . S
C110 C135 1.395 . S
N111 Co100 1.995 . S
N111 C112 1.376 . S
N111 C115 1.383 . S
C112 N111 1.376 . S
C112 C113 1.446 . S
C112 C135 1.391 . S
C113 C112 1.446 . S
C113 C114 1.339 . S
C113 H142 0.949 . S
C114 C113 1.339 . S
C114 C115 1.439 . S
C114 H143 0.950 . S
C115 N111 1.383 . S
C115 C114 1.439 . S
C115 C133 1.392 . S
N116 Co100 2.282 . S
N116 C119 1.332 . S
N116 C121 1.332 . S
C117 C118 1.386 . S
C117 C120 1.388 . S
C118 C117 1.386 . S
C118 C119 1.382 . S
C118 H144 0.950 . S
C119 N116 1.332 . S
C119 C118 1.382 . S
C119 H130 0.952 . S
C120 C117 1.388 . S
C120 C121 1.382 . S
C120 H145 0.950 . S
C121 N116 1.332 . S
C121 C120 1.382 . S
C121 H131 0.948 . S
N122 Co100 2.282 . S
N122 C126 1.332 . S
N122 C127 1.332 . S
C123 C124 1.388 . S
C123 C127 1.382 . S
C123 H146 0.950 . S
C124 C123 1.388 . S
C124 C125 1.386 . S
C125 C124 1.386 . S
C125 C126 1.382 . S
C125 H147 0.950 . S
C126 N122 1.332 . S
C126 C125 1.382 . S
C126 H128 0.952 . S
C127 N122 1.332 . S
C127 C123 1.382 . S
C127 H129 0.948 . S
H128 C126 0.952 . S
H129 C127 0.948 . S
H130 C119 0.952 . S
H131 C121 0.948 . S
C132 C98 1.395 . S
C132 C102 1.391 . S
C133 C95 1.389 . S
C133 C115 1.392 . S
C134 C105 1.392 . S
C134 C107 1.389 . S
C135 C110 1.395 . S
C135 C112 1.391 . S
H136 C96 0.951 . S
H137 C97 0.950 . S
H138 C103 0.949 . S
H139 C104 0.950 . S
H140 C108 0.951 . S
H141 C109 0.950 . S
H142 C113 0.949 . S
H143 C114 0.950 . S
H144 C118 0.950 . S
H145 C120 0.950 . S
H146 C123 0.950 . S
H147 C125 0.950 . S
C148 C149 1.443 . S
C148 N152 1.376 . S
C148 C186 1.389 . S
C149 C148 1.443 . S
C149 C150 1.340 . S
C149 H189 0.951 . S
C150 C149 1.340 . S
C150 C151 1.439 . S
C150 H190 0.950 . S
C151 C150 1.439 . S
C151 N152 1.374 . S
C151 C185 1.395 . S
N152 C148 1.376 . S
N152 C151 1.374 . S
N152 Co153 2.008 . S
Co153 N152 2.008 . S
Co153 N154 1.995 . S
Co153 N159 2.008 . S
Co153 N164 1.995 . S
Co153 N169 2.282 . S
Co153 N175 2.282 . S
N154 Co153 1.995 . S
N154 C155 1.376 . S
N154 C158 1.383 . S
C155 N154 1.376 . S
C155 C156 1.446 . S
C155 C185 1.391 . S
C156 C155 1.446 . S
C156 C157 1.339 . S
C156 H191 0.949 . S
C157 C156 1.339 . S
C157 C158 1.439 . S
C157 H192 0.950 . S
C158 N154 1.383 . S
C158 C157 1.439 . S
C158 C187 1.392 . S
N159 Co153 2.008 . S
N159 C160 1.376 . S
N159 C163 1.374 . S
C160 N159 1.376 . S
C160 C161 1.443 . S
C160 C187 1.389 . S
C161 C160 1.443 . S
C161 C162 1.340 . S
C161 H193 0.951 . S
C162 C161 1.340 . S
C162 C163 1.439 . S
C162 H194 0.950 . S
C163 N159 1.374 . S
C163 C162 1.439 . S
C163 C188 1.395 . S
N164 Co153 1.995 . S
N164 C165 1.376 . S
N164 C168 1.383 . S
C165 N164 1.376 . S
C165 C166 1.446 . S
C165 C188 1.391 . S
C166 C165 1.446 . S
C166 C167 1.339 . S
C166 H195 0.949 . S
C167 C166 1.339 . S
C167 C168 1.439 . S
C167 H196 0.950 . S
C168 N164 1.383 . S
C168 C167 1.439 . S
C168 C186 1.392 . S
N169 Co153 2.282 . S
N169 C172 1.332 . S
N169 C174 1.332 . S
C170 C171 1.386 . S
C170 C173 1.388 . S
C171 C170 1.386 . S
C171 C172 1.382 . S
C171 H197 0.950 . S
C172 N169 1.332 . S
C172 C171 1.382 . S
C172 H183 0.952 . S
C173 C170 1.388 . S
C173 C174 1.382 . S
C173 H198 0.950 . S
C174 N169 1.332 . S
C174 C173 1.382 . S
C174 H184 0.948 . S
N175 Co153 2.282 . S
N175 C179 1.332 . S
N175 C180 1.332 . S
C176 C177 1.388 . S
C176 C180 1.382 . S
C176 H199 0.950 . S
C177 C176 1.388 . S
C177 C178 1.386 . S
C178 C177 1.386 . S
C178 C179 1.382 . S
C178 H200 0.950 . S
C179 N175 1.332 . S
C179 C178 1.382 . S
C179 H181 0.952 . S
C180 N175 1.332 . S
C180 C176 1.382 . S
C180 H182 0.948 . S
H181 C179 0.952 . S
H182 C180 0.948 . S
H183 C172 0.952 . S
H184 C174 0.948 . S
C185 C151 1.395 . S
C185 C155 1.391 . S
C186 C148 1.389 . S
C186 C168 1.392 . S
C187 C158 1.392 . S
C187 C160 1.389 . S
C188 C163 1.395 . S
C188 C165 1.391 . S
H189 C149 0.951 . S
H190 C150 0.950 . S
H191 C156 0.949 . S
H192 C157 0.950 . S
H193 C161 0.951 . S
H194 C162 0.950 . S
H195 C166 0.949 . S
H196 C167 0.950 . S
H197 C171 0.950 . S
H198 C173 0.950 . S
H199 C176 0.950 . S
H200 C178 0.950 . S
H201 C202 0.951 . S
C202 H201 0.951 . S
C202 C208 1.265 . S
H203 C208 0.950 . S
H204 C212 0.949 . S
H205 C213 0.950 . S
H206 C214 0.951 . S
H207 C215 0.951 . S
C208 C202 1.265 . S
C208 H203 0.950 . S
C208 C209 1.478 . S
C209 C208 1.478 . S
C209 C210 1.397 . S
C209 C226 1.394 . S
C210 C209 1.397 . S
C210 C211 1.438 . S
C210 C215 1.429 . S
C211 C210 1.438 . S
C211 C212 1.428 . S
C211 C224 1.394 . S
C212 H204 0.949 . S
C212 C211 1.428 . S
C212 C213 1.345 . S
C213 H205 0.950 . S
C213 C212 1.345 . S
C213 C214 1.424 . S
C214 H206 0.951 . S
C214 C213 1.424 . S
C214 C215 1.347 . S
C215 H207 0.951 . S
C215 C210 1.429 . S
C215 C214 1.347 . S
H216 C217 0.951 . S
C217 H216 0.951 . S
C217 C223 1.265 . S
H218 C223 0.928 1_655 S
H219 C227 0.949 . S
H220 C228 0.950 . S
H221 C229 0.951 . S
H222 C230 0.951 . S
C223 C217 1.265 . S
C223 H218 0.928 1_455 S
C223 C224 1.478 . S
C224 C211 1.394 . S
C224 C223 1.478 . S
C224 C225 1.397 . S
C225 C224 1.397 . S
C225 C226 1.438 . S
C225 C230 1.429 1_455 S
C226 C209 1.394 . S
C226 C225 1.438 . S
C226 C227 1.428 . S
C227 H219 0.949 . S
C227 C226 1.428 . S
C227 C228 1.345 1_455 S
C228 H220 0.950 . S
C228 C227 1.345 1_655 S
C228 C229 1.424 . S
C229 H221 0.951 . S
C229 C228 1.424 . S
C229 C230 1.347 . S
C230 H222 0.951 . S
C230 C225 1.429 1_655 S
C230 C229 1.347 . S
H231 C232 0.951 . S
C232 H231 0.951 . S
C232 C238 1.265 . S
H233 C238 0.950 . S
H234 C242 0.949 . S
H235 C243 0.950 . S
H236 C244 0.951 . S
H237 C245 0.951 . S
C238 C232 1.265 . S
C238 H233 0.950 . S
C238 C239 1.478 . S
C239 C238 1.478 . S
C239 C240 1.397 . S
C239 C256 1.394 . S
C240 C239 1.397 . S
C240 C241 1.438 . S
C240 C245 1.429 . S
C241 C240 1.438 . S
C241 C242 1.428 . S
C241 C254 1.394 . S
C242 H234 0.949 . S
C242 C241 1.428 . S
C242 C243 1.345 . S
C243 H235 0.950 . S
C243 C242 1.345 . S
C243 C244 1.424 . S
C244 H236 0.951 . S
C244 C243 1.424 . S
C244 C245 1.347 . S
C245 H237 0.951 . S
C245 C240 1.429 . S
C245 C244 1.347 . S
H246 C247 0.951 . S
C247 H246 0.951 . S
C247 C253 1.265 . S
H248 C253 0.950 . S
H249 C257 0.949 . S
H250 C258 0.950 . S
H251 C259 0.951 . S
H252 C260 0.951 . S
C253 C247 1.265 . S
C253 H248 0.950 . S
C253 C254 1.478 . S
C254 C241 1.394 . S
C254 C253 1.478 . S
C254 C255 1.397 . S
C255 C254 1.397 . S
C255 C256 1.438 . S
C255 C260 1.429 . S
C256 C239 1.394 . S
C256 C255 1.438 . S
C256 C257 1.428 . S
C257 H249 0.949 . S
C257 C256 1.428 . S
C257 C258 1.345 . S
C258 H250 0.950 . S
C258 C257 1.345 . S
C258 C259 1.424 . S
C259 H251 0.951 . S
C259 C258 1.424 . S
C259 C260 1.347 . S
C260 H252 0.951 . S
C260 C255 1.429 . S
C260 C259 1.347 . S
H261 C262 0.951 . S
C262 H261 0.951 . S
C262 C268 1.265 . S
H263 C268 0.950 . S
H264 C272 0.949 . S
H265 C273 0.950 . S
H266 C274 0.951 1_455 S
H267 C275 0.951 . S
C268 C262 1.265 . S
C268 H263 0.950 . S
C268 C269 1.478 . S
C269 C268 1.478 . S
C269 C270 1.397 . S
C269 C286 1.394 . S
C270 C269 1.397 . S
C270 C271 1.438 . S
C270 C275 1.429 . S
C271 C270 1.438 . S
C271 C272 1.428 . S
C271 C284 1.394 . S
C272 H264 0.949 . S
C272 C271 1.428 . S
C272 C273 1.345 . S
C273 H265 0.950 . S
C273 C272 1.345 . S
C273 C274 1.424 . S
C274 H266 0.951 1_655 S
C274 C273 1.424 . S
C274 C275 1.347 . S
C275 H267 0.951 . S
C275 C270 1.429 . S
C275 C274 1.347 . S
H276 C277 0.951 . S
C277 H276 0.951 . S
C277 C283 1.265 . S
H278 C283 0.950 . S
H279 C287 0.949 . S
H280 C288 0.950 . S
H281 C289 0.951 . S
H282 C290 0.951 . S
C283 C277 1.265 . S
C283 H278 0.950 . S
C283 C284 1.478 . S
C284 C271 1.394 . S
C284 C283 1.478 . S
C284 C285 1.397 . S
C285 C284 1.397 . S
C285 C286 1.438 . S
C285 C290 1.429 . S
C286 C269 1.394 . S
C286 C285 1.438 . S
C286 C287 1.428 . S
C287 H279 0.949 . S
C287 C286 1.428 . S
C287 C288 1.345 . S
C288 H280 0.950 . S
C288 C287 1.345 . S
C288 C289 1.424 . S
C289 H281 0.951 . S
C289 C288 1.424 . S
C289 C290 1.347 . S
C290 H282 0.951 . S
C290 C285 1.429 . S
C290 C289 1.347 . S
H291 C292 0.951 . S
C292 H291 0.951 . S
C292 C298 1.265 . S
H293 C298 0.950 . S
H294 C302 0.949 . S
H295 C303 0.950 . S
H296 C304 0.951 . S
H297 C305 0.951 . S
C298 C292 1.265 . S
C298 H293 0.950 . S
C298 C299 1.478 . S
C299 C298 1.478 . S
C299 C300 1.397 . S
C299 C316 1.394 . S
C300 C299 1.397 . S
C300 C301 1.438 . S
C300 C305 1.429 . S
C301 C300 1.438 . S
C301 C302 1.428 . S
C301 C314 1.394 . S
C302 H294 0.949 . S
C302 C301 1.428 . S
C302 C303 1.345 . S
C303 H295 0.950 . S
C303 C302 1.345 . S
C303 C304 1.424 . S
C304 H296 0.951 . S
C304 C303 1.424 . S
C304 C305 1.347 . S
C305 H297 0.951 . S
C305 C300 1.429 . S
C305 C304 1.347 . S
H306 C307 0.951 . S
C307 H306 0.951 . S
C307 C313 1.265 . S
H308 C313 0.950 . S
H309 C317 0.949 . S
H310 C318 0.950 . S
H311 C319 0.951 . S
H312 C320 0.951 . S
C313 C307 1.265 . S
C313 H308 0.950 . S
C313 C314 1.478 . S
C314 C301 1.394 . S
C314 C313 1.478 . S
C314 C315 1.397 . S
C315 C314 1.397 . S
C315 C316 1.438 . S
C315 C320 1.429 . S
C316 C299 1.394 . S
C316 C315 1.438 . S
C316 C317 1.428 . S
C317 H309 0.949 . S
C317 C316 1.428 . S
C317 C318 1.345 . S
C318 H310 0.950 . S
C318 C317 1.345 . S
C318 C319 1.424 . S
C319 H311 0.951 . S
C319 C318 1.424 . S
C319 C320 1.347 . S
C320 H312 0.951 . S
C320 C315 1.429 . S
C320 C319 1.347 . S
H321 C322 0.951 . S
C322 H321 0.951 . S
C322 C328 1.265 . S
H323 C328 0.950 . S
H324 C332 0.949 . S
H325 C333 0.950 . S
H326 C334 0.951 . S
H327 C335 0.951 . S
C328 C322 1.265 . S
C328 H323 0.950 . S
C328 C329 1.478 . S
C329 C328 1.478 . S
C329 C330 1.397 . S
C329 C346 1.394 . S
C330 C329 1.397 . S
C330 C331 1.438 . S
C330 C335 1.429 . S
C331 C330 1.438 . S
C331 C332 1.428 . S
C331 C344 1.394 . S
C332 H324 0.949 . S
C332 C331 1.428 . S
C332 C333 1.345 . S
C333 H325 0.950 . S
C333 C332 1.345 . S
C333 C334 1.424 . S
C334 H326 0.951 . S
C334 C333 1.424 . S
C334 C335 1.347 . S
C335 H327 0.951 . S
C335 C330 1.429 . S
C335 C334 1.347 . S
H336 C337 0.951 . S
C337 H336 0.951 . S
C337 C343 1.265 . S
H338 C343 0.950 . S
H339 C347 0.949 . S
H340 C348 0.950 . S
H341 C349 0.951 . S
H342 C350 0.951 . S
C343 C337 1.265 . S
C343 H338 0.950 . S
C343 C344 1.478 . S
C344 C331 1.394 . S
C344 C343 1.478 . S
C344 C345 1.397 . S
C345 C344 1.397 . S
C345 C346 1.438 . S
C345 C350 1.429 . S
C346 C329 1.394 . S
C346 C345 1.438 . S
C346 C347 1.428 . S
C347 H339 0.949 . S
C347 C346 1.428 . S
C347 C348 1.345 1_545 S
C348 H340 0.950 . S
C348 C347 1.345 1_565 S
C348 C349 1.424 . S
C349 H341 0.951 . S
C349 C348 1.424 . S
C349 C350 1.347 1_565 S
C350 H342 0.951 . S
C350 C345 1.429 . S
C350 C349 1.347 1_545 S
H351 C352 0.951 . S
C352 H351 0.951 . S
C352 C358 1.265 . S
H353 C358 0.950 . S
H354 C362 0.949 . S
H355 C363 0.950 . S
H356 C364 0.951 . S
H357 C365 0.951 . S
C358 C352 1.265 . S
C358 H353 0.950 . S
C358 C359 1.478 . S
C359 C358 1.478 . S
C359 C360 1.397 . S
C359 C376 1.394 . S
C360 C359 1.397 . S
C360 C361 1.438 . S
C360 C365 1.429 . S
C361 C360 1.438 . S
C361 C362 1.428 . S
C361 C374 1.394 . S
C362 H354 0.949 . S
C362 C361 1.428 . S
C362 C363 1.345 . S
C363 H355 0.950 . S
C363 C362 1.345 . S
C363 C364 1.424 . S
C364 H356 0.951 . S
C364 C363 1.424 . S
C364 C365 1.347 . S
C365 H357 0.951 . S
C365 C360 1.429 . S
C365 C364 1.347 . S
H366 C367 0.951 . S
C367 H366 0.951 . S
C367 C373 1.265 . S
H368 C373 0.950 . S
H369 C377 0.949 . S
H370 C378 0.950 . S
H371 C379 0.951 . S
H372 C380 0.951 . S
C373 C367 1.265 . S
C373 H368 0.950 . S
C373 C374 1.478 . S
C374 C361 1.394 . S
C374 C373 1.478 . S
C374 C375 1.397 . S
C375 C374 1.397 . S
C375 C376 1.438 . S
C375 C380 1.429 . S
C376 C359 1.394 . S
C376 C375 1.438 . S
C376 C377 1.428 . S
C377 H369 0.949 . S
C377 C376 1.428 . S
C377 C378 1.345 . S
C378 H370 0.950 . S
C378 C377 1.345 . S
C378 C379 1.424 . S
C379 H371 0.951 . S
C379 C378 1.424 . S
C379 C380 1.347 . S
C380 H372 0.951 . S
C380 C375 1.429 . S
C380 C379 1.347 . S
H381 C382 0.951 . S
C382 H381 0.951 . S
C382 C388 1.265 . S
H383 C388 0.950 . S
H384 C392 0.949 . S
H385 C393 0.950 . S
H386 C394 0.951 . S
H387 C395 0.951 . S
C388 C382 1.265 . S
C388 H383 0.950 . S
C388 C389 1.478 . S
C389 C388 1.478 . S
C389 C390 1.397 . S
C389 C406 1.394 . S
C390 C389 1.397 . S
C390 C391 1.438 . S
C390 C395 1.429 . S
C391 C390 1.438 . S
C391 C392 1.428 . S
C391 C404 1.394 . S
C392 H384 0.949 . S
C392 C391 1.428 . S
C392 C393 1.345 . S
C393 H385 0.950 . S
C393 C392 1.345 . S
C393 C394 1.424 . S
C394 H386 0.951 . S
C394 C393 1.424 . S
C394 C395 1.347 . S
C395 H387 0.951 . S
C395 C390 1.429 . S
C395 C394 1.347 . S
H396 C397 0.951 . S
C397 H396 0.951 . S
C397 C403 1.265 . S
H398 C403 0.950 . S
H399 C407 0.958 . S
H400 C408 0.950 . S
H401 C409 0.951 . S
H402 C410 0.951 . S
C403 C397 1.265 . S
C403 H398 0.950 . S
C403 C404 1.478 . S
C404 C391 1.394 . S
C404 C403 1.478 . S
C404 C405 1.397 . S
C405 C404 1.397 . S
C405 C406 1.438 . S
C405 C410 1.429 . S
C406 C389 1.394 . S
C406 C405 1.438 . S
C406 C407 1.408 1_545 S
C407 H399 0.958 . S
C407 C406 1.408 1_565 S
C407 C408 1.356 . S
C408 H400 0.950 . S
C408 C407 1.356 . S
C408 C409 1.424 . S
C409 H401 0.951 . S
C409 C408 1.424 . S
C409 C410 1.347 1_565 S
C410 H402 0.951 . S
C410 C405 1.429 . S
C410 C409 1.347 1_545 S
H411 C412 0.951 . S
C412 H411 0.951 . S
C412 C418 1.265 1_554 S
H413 C418 0.950 1_455 S
H414 C422 0.949 . S
H415 C423 0.950 . S
H416 C424 0.951 . S
H417 C425 0.951 . S
C418 C412 1.265 1_556 S
C418 H413 0.950 1_655 S
C418 C419 1.478 . S
C419 C418 1.478 . S
C419 C420 1.397 . S
C419 C436 1.394 . S
C420 C419 1.397 . S
C420 C421 1.438 . S
C420 C425 1.429 . S
C421 C420 1.438 . S
C421 C422 1.428 . S
C421 C434 1.394 . S
C422 H414 0.949 . S
C422 C421 1.428 . S
C422 C423 1.345 . S
C423 H415 0.950 . S
C423 C422 1.345 . S
C423 C424 1.424 . S
C424 H416 0.951 . S
C424 C423 1.424 . S
C424 C425 1.347 . S
C425 H417 0.951 . S
C425 C420 1.429 . S
C425 C424 1.347 . S
H426 C427 0.951 . S
C427 H426 0.951 . S
C427 C433 1.265 . S
H428 C433 0.950 . S
H429 C437 0.943 1_545 S
H430 C438 0.950 1_545 S
H431 C439 0.951 . S
H432 C440 0.951 . S
C433 C427 1.265 . S
C433 H428 0.950 . S
C433 C434 1.478 . S
C434 C421 1.394 . S
C434 C433 1.478 . S
C434 C435 1.397 . S
C435 C434 1.397 . S
C435 C436 1.438 . S
C435 C440 1.429 . S
C436 C419 1.394 . S
C436 C435 1.438 . S
C436 C437 1.428 . S
C437 H429 0.943 1_565 S
C437 C436 1.428 . S
C437 C438 1.345 . S
C438 H430 0.950 1_565 S
C438 C437 1.345 . S
C438 C439 1.424 . S
C439 H431 0.951 . S
C439 C438 1.424 . S
C439 C440 1.347 . S
C440 H432 0.951 . S
C440 C435 1.429 . S
C440 C439 1.347 . S
H441 C442 0.957 . S
C442 H441 0.957 . S
C442 C448 1.257 1_655 S
H443 C448 0.950 . S
H444 C452 0.949 . S
H445 C453 0.950 . S
H446 C454 0.951 . S
H447 C455 0.951 . S
C448 C442 1.257 1_455 S
C448 H443 0.950 . S
C448 C449 1.478 . S
C449 C448 1.478 . S
C449 C450 1.397 . S
C449 C466 1.394 . S
C450 C449 1.397 . S
C450 C451 1.444 1_455 S
C450 C455 1.429 1_455 S
C451 C450 1.444 1_655 S
C451 C452 1.425 . S
C451 C464 1.392 1_655 S
C452 H444 0.949 . S
C452 C451 1.425 . S
C452 C453 1.345 . S
C453 H445 0.950 . S
C453 C452 1.345 . S
C453 C454 1.424 . S
C454 H446 0.951 . S
C454 C453 1.424 . S
C454 C455 1.347 . S
C455 H447 0.951 . S
C455 C450 1.429 1_655 S
C455 C454 1.347 . S
H456 C457 0.951 . S
C457 H456 0.951 . S
C457 C463 1.265 . S
H458 C463 0.950 1_655 S
H459 C467 0.949 . S
H460 C468 0.950 . S
H461 C469 0.951 . S
H462 C470 0.951 . S
C463 C457 1.265 . S
C463 H458 0.950 1_455 S
C463 C464 1.478 . S
C464 C451 1.392 1_455 S
C464 C463 1.478 . S
C464 C465 1.397 . S
C465 C464 1.397 . S
C465 C466 1.438 . S
C465 C470 1.429 . S
C466 C449 1.394 . S
C466 C465 1.438 . S
C466 C467 1.428 . S
C467 H459 0.949 . S
C467 C466 1.428 . S
C467 C468 1.345 . S
C468 H460 0.950 . S
C468 C467 1.345 . S
C468 C469 1.424 . S
C469 H461 0.951 . S
C469 C468 1.424 . S
C469 C470 1.347 . S
C470 H462 0.951 . S
C470 C465 1.429 . S
C470 C469 1.347 . S
H471 C472 0.951 1_565 S
C472 H471 0.951 1_545 S
C472 C478 1.265 . S
H473 C478 0.950 . S
H474 C482 0.949 . S
H475 C483 0.950 . S
H476 C484 0.951 . S
H477 C485 0.951 . S
C478 C472 1.265 . S
C478 H473 0.950 . S
C478 C479 1.478 . S
C479 C478 1.478 . S
C479 C480 1.397 . S
C479 C496 1.394 . S
C480 C479 1.397 . S
C480 C481 1.438 . S
C480 C485 1.429 . S
C481 C480 1.438 . S
C481 C482 1.428 . S
C481 C494 1.394 . S
C482 H474 0.949 . S
C482 C481 1.428 . S
C482 C483 1.345 . S
C483 H475 0.950 . S
C483 C482 1.345 . S
C483 C484 1.424 . S
C484 H476 0.951 . S
C484 C483 1.424 . S
C484 C485 1.347 . S
C485 H477 0.951 . S
C485 C480 1.429 . S
C485 C484 1.347 . S
H486 C487 0.951 . S
C487 H486 0.951 . S
C487 C493 1.265 . S
H488 C493 0.950 . S
H489 C497 0.949 . S
H490 C498 0.950 . S
H491 C499 0.951 . S
H492 C500 0.951 . S
C493 C487 1.265 . S
C493 H488 0.950 . S
C493 C494 1.478 . S
C494 C481 1.394 . S
C494 C493 1.478 . S
C494 C495 1.397 . S
C495 C494 1.397 . S
C495 C496 1.438 . S
C495 C500 1.429 . S
C496 C479 1.394 . S
C496 C495 1.438 . S
C496 C497 1.428 . S
C497 H489 0.949 . S
C497 C496 1.428 . S
C497 C498 1.345 1_545 S
C498 H490 0.950 . S
C498 C497 1.345 1_565 S
C498 C499 1.424 . S
C499 H491 0.951 . S
C499 C498 1.424 . S
C499 C500 1.347 1_565 S
C500 H492 0.951 . S
C500 C495 1.429 . S
C500 C499 1.347 1_545 S
H501 C502 0.951 . S
C502 H501 0.951 . S
C502 C508 1.265 . S
H503 C508 0.950 . S
H504 C512 0.949 . S
H505 C513 0.950 . S
H506 C514 0.951 . S
H507 C515 0.951 . S
C508 C502 1.265 . S
C508 H503 0.950 . S
C508 C509 1.478 . S
C509 C508 1.478 . S
C509 C510 1.397 . S
C509 C526 1.394 . S
C510 C509 1.397 . S
C510 C511 1.438 . S
C510 C515 1.429 . S
C511 C510 1.438 . S
C511 C512 1.428 . S
C511 C524 1.394 . S
C512 H504 0.949 . S
C512 C511 1.428 . S
C512 C513 1.345 . S
C513 H505 0.950 . S
C513 C512 1.345 . S
C513 C514 1.424 . S
C514 H506 0.951 . S
C514 C513 1.424 . S
C514 C515 1.347 . S
C515 H507 0.951 . S
C515 C510 1.429 . S
C515 C514 1.347 . S
H516 C517 0.951 . S
C517 H516 0.951 . S
C517 C523 1.265 . S
H518 C523 0.950 . S
H519 C527 0.949 . S
H520 C528 0.950 . S
H521 C529 0.952 1_554 S
H522 C530 0.951 . S
C523 C517 1.265 . S
C523 H518 0.950 . S
C523 C524 1.478 . S
C524 C511 1.394 . S
C524 C523 1.478 . S
C524 C525 1.397 . S
C525 C524 1.397 . S
C525 C526 1.438 . S
C525 C530 1.429 . S
C526 C509 1.394 . S
C526 C525 1.438 . S
C526 C527 1.428 1_556 S
C527 H519 0.949 . S
C527 C526 1.428 1_554 S
C527 C528 1.345 . S
C528 H520 0.950 . S
C528 C527 1.345 . S
C528 C529 1.424 1_554 S
C529 H521 0.952 1_556 S
C529 C528 1.424 1_556 S
C529 C530 1.347 . S
C530 H522 0.951 . S
C530 C525 1.429 . S
C530 C529 1.347 . S
H531 C532 0.951 . S
C532 H531 0.951 . S
C532 C538 1.265 . S
H533 C538 0.950 . S
H534 C542 0.949 . S
H535 C543 0.950 . S
H536 C544 0.951 . S
H537 C545 0.951 . S
C538 C532 1.265 . S
C538 H533 0.950 . S
C538 C539 1.478 . S
C539 C538 1.478 . S
C539 C540 1.397 . S
C539 C556 1.394 . S
C540 C539 1.397 . S
C540 C541 1.438 . S
C540 C545 1.429 . S
C541 C540 1.438 . S
C541 C542 1.428 . S
C541 C554 1.394 . S
C542 H534 0.949 . S
C542 C541 1.428 . S
C542 C543 1.345 . S
C543 H535 0.950 . S
C543 C542 1.345 . S
C543 C544 1.424 . S
C544 H536 0.951 . S
C544 C543 1.424 . S
C544 C545 1.347 . S
C545 H537 0.951 . S
C545 C540 1.429 . S
C545 C544 1.347 . S
H546 C547 0.951 . S
C547 H546 0.951 . S
C547 C553 1.265 . S
H548 C553 0.950 1_655 S
H549 C557 0.949 . S
H550 C558 0.950 . S
H551 C559 0.951 . S
H552 C560 0.951 . S
C553 C547 1.265 . S
C553 H548 0.950 1_455 S
C553 C554 1.478 . S
C554 C541 1.394 . S
C554 C553 1.478 . S
C554 C555 1.405 . S
C555 C554 1.405 . S
C555 C556 1.449 . S
C555 C560 1.410 1_455 S
C556 C539 1.394 . S
C556 C555 1.449 . S
C556 C557 1.428 1_455 S
C557 H549 0.949 . S
C557 C556 1.428 1_655 S
C557 C558 1.345 . S
C558 H550 0.950 . S
C558 C557 1.345 . S
C558 C559 1.424 . S
C559 H551 0.951 . S
C559 C558 1.424 . S
C559 C560 1.347 . S
C560 H552 0.951 . S
C560 C555 1.410 1_655 S
C560 C559 1.347 . S
C217 C64 1.386 . S
C202 C11 1.373 . S
C232 C26 1.558 . S
C247 C134 1.557 . S
C262 C40 1.379 1_655 S
C277 C186 1.400 . S
C292 C5 1.192 . S
C307 C80 1.410 . S
C337 C124 1.520 . S
C322 C18 1.486 . S
C352 C32 1.366 . S
C367 C170 1.401 . S
C397 C117 1.276 . S
C382 C39 1.317 . S
C412 C4 1.407 1_665 S
C427 C177 1.418 . S
C457 C71 1.383 . S
C442 C19 1.136 . S
C487 C133 1.341 . S
C472 C33 1.126 1_545 S
C517 C187 1.420 . S
C502 C12 1.389 1_556 S
C532 C25 1.370 . S
C547 C81 1.381 . S
