# Generated by pormake.
# Topology gar, (4,6)-cn, num edge types: 1
# Building blocks:
#     Node 0, Type 0, BuildingBlock: KUFVIS_clean_sbu_0, # of connection points: 4
#     Node 1, Type 0, BuildingBlock: KUFVIS_clean_sbu_0, # of connection points: 4
#     Node 2, Type 0, BuildingBlock: KUFVIS_clean_sbu_0, # of connection points: 4
#     Node 3, Type 0, BuildingBlock: KUFVIS_clean_sbu_0, # of connection points: 4
#     Node 4, Type 0, BuildingBlock: KUFVIS_clean_sbu_0, # of connection points: 4
#     Node 5, Type 0, BuildingBlock: KUFVIS_clean_sbu_0, # of connection points: 4
#     Node 6, Type 0, BuildingBlock: KUFVIS_clean_sbu_0, # of connection points: 4
#     Node 7, Type 0, BuildingBlock: KUFVIS_clean_sbu_0, # of connection points: 4
#     Node 8, Type 0, BuildingBlock: KUFVIS_clean_sbu_0, # of connection points: 4
#     Node 9, Type 0, BuildingBlock: KUFVIS_clean_sbu_0, # of connection points: 4
#     Node 10, Type 0, BuildingBlock: KUFVIS_clean_sbu_0, # of connection points: 4
#     Node 11, Type 0, BuildingBlock: KUFVIS_clean_sbu_0, # of connection points: 4
#     Node 12, Type 0, BuildingBlock: KUFVIS_clean_sbu_0, # of connection points: 4
#     Node 13, Type 0, BuildingBlock: KUFVIS_clean_sbu_0, # of connection points: 4
#     Node 14, Type 0, BuildingBlock: KUFVIS_clean_sbu_0, # of connection points: 4
#     Node 15, Type 0, BuildingBlock: KUFVIS_clean_sbu_0, # of connection points: 4
#     Node 16, Type 0, BuildingBlock: KUFVIS_clean_sbu_0, # of connection points: 4
#     Node 17, Type 0, BuildingBlock: KUFVIS_clean_sbu_0, # of connection points: 4
#     Node 18, Type 0, BuildingBlock: KUFVIS_clean_sbu_0, # of connection points: 4
#     Node 19, Type 0, BuildingBlock: KUFVIS_clean_sbu_0, # of connection points: 4
#     Node 20, Type 0, BuildingBlock: KUFVIS_clean_sbu_0, # of connection points: 4
#     Node 21, Type 0, BuildingBlock: KUFVIS_clean_sbu_0, # of connection points: 4
#     Node 22, Type 0, BuildingBlock: KUFVIS_clean_sbu_0, # of connection points: 4
#     Node 23, Type 0, BuildingBlock: KUFVIS_clean_sbu_0, # of connection points: 4
#     Node 24, Type 1, BuildingBlock: NUHQIS_clean_sbu_0, # of connection points: 6
#     Node 25, Type 1, BuildingBlock: NUHQIS_clean_sbu_0, # of connection points: 6
#     Node 26, Type 1, BuildingBlock: NUHQIS_clean_sbu_0, # of connection points: 6
#     Node 27, Type 1, BuildingBlock: NUHQIS_clean_sbu_0, # of connection points: 6
#     Node 28, Type 1, BuildingBlock: NUHQIS_clean_sbu_0, # of connection points: 6
#     Node 29, Type 1, BuildingBlock: NUHQIS_clean_sbu_0, # of connection points: 6
#     Node 30, Type 1, BuildingBlock: NUHQIS_clean_sbu_0, # of connection points: 6
#     Node 31, Type 1, BuildingBlock: NUHQIS_clean_sbu_0, # of connection points: 6
#     Node 32, Type 1, BuildingBlock: NUHQIS_clean_sbu_0, # of connection points: 6
#     Node 33, Type 1, BuildingBlock: NUHQIS_clean_sbu_0, # of connection points: 6
#     Node 34, Type 1, BuildingBlock: NUHQIS_clean_sbu_0, # of connection points: 6
#     Node 35, Type 1, BuildingBlock: NUHQIS_clean_sbu_0, # of connection points: 6
#     Node 36, Type 1, BuildingBlock: NUHQIS_clean_sbu_0, # of connection points: 6
#     Node 37, Type 1, BuildingBlock: NUHQIS_clean_sbu_0, # of connection points: 6
#     Node 38, Type 1, BuildingBlock: NUHQIS_clean_sbu_0, # of connection points: 6
#     Node 39, Type 1, BuildingBlock: NUHQIS_clean_sbu_0, # of connection points: 6
#     Edge 40, Type (0, 1), BuildingBlock: XIVTED_clean_linker_0, # of connection points: 2
#     Edge 41, Type (0, 1), BuildingBlock: XIVTED_clean_linker_0, # of connection points: 2
#     Edge 42, Type (0, 1), BuildingBlock: XIVTED_clean_linker_0, # of connection points: 2
#     Edge 43, Type (0, 1), BuildingBlock: XIVTED_clean_linker_0, # of connection points: 2
#     Edge 44, Type (0, 1), BuildingBlock: XIVTED_clean_linker_0, # of connection points: 2
#     Edge 45, Type (0, 1), BuildingBlock: XIVTED_clean_linker_0, # of connection points: 2
#     Edge 46, Type (0, 1), BuildingBlock: XIVTED_clean_linker_0, # of connection points: 2
#     Edge 47, Type (0, 1), BuildingBlock: XIVTED_clean_linker_0, # of connection points: 2
#     Edge 48, Type (0, 1), BuildingBlock: XIVTED_clean_linker_0, # of connection points: 2
#     Edge 49, Type (0, 1), BuildingBlock: XIVTED_clean_linker_0, # of connection points: 2
#     Edge 50, Type (0, 1), BuildingBlock: XIVTED_clean_linker_0, # of connection points: 2
#     Edge 51, Type (0, 1), BuildingBlock: XIVTED_clean_linker_0, # of connection points: 2
#     Edge 52, Type (0, 1), BuildingBlock: XIVTED_clean_linker_0, # of connection points: 2
#     Edge 53, Type (0, 1), BuildingBlock: XIVTED_clean_linker_0, # of connection points: 2
#     Edge 54, Type (0, 1), BuildingBlock: XIVTED_clean_linker_0, # of connection points: 2
#     Edge 55, Type (0, 1), BuildingBlock: XIVTED_clean_linker_0, # of connection points: 2
#     Edge 56, Type (0, 1), BuildingBlock: XIVTED_clean_linker_0, # of connection points: 2
#     Edge 57, Type (0, 1), BuildingBlock: XIVTED_clean_linker_0, # of connection points: 2
#     Edge 58, Type (0, 1), BuildingBlock: XIVTED_clean_linker_0, # of connection points: 2
#     Edge 59, Type (0, 1), BuildingBlock: XIVTED_clean_linker_0, # of connection points: 2
#     Edge 60, Type (0, 1), BuildingBlock: XIVTED_clean_linker_0, # of connection points: 2
#     Edge 61, Type (0, 1), BuildingBlock: XIVTED_clean_linker_0, # of connection points: 2
#     Edge 62, Type (0, 1), BuildingBlock: XIVTED_clean_linker_0, # of connection points: 2
#     Edge 63, Type (0, 1), BuildingBlock: XIVTED_clean_linker_0, # of connection points: 2
#     Edge 64, Type (0, 1), BuildingBlock: XIVTED_clean_linker_0, # of connection points: 2
#     Edge 65, Type (0, 1), BuildingBlock: XIVTED_clean_linker_0, # of connection points: 2
#     Edge 66, Type (0, 1), BuildingBlock: XIVTED_clean_linker_0, # of connection points: 2
#     Edge 67, Type (0, 1), BuildingBlock: XIVTED_clean_linker_0, # of connection points: 2
#     Edge 68, Type (0, 1), BuildingBlock: XIVTED_clean_linker_0, # of connection points: 2
#     Edge 69, Type (0, 1), BuildingBlock: XIVTED_clean_linker_0, # of connection points: 2
#     Edge 70, Type (0, 1), BuildingBlock: XIVTED_clean_linker_0, # of connection points: 2
#     Edge 71, Type (0, 1), BuildingBlock: XIVTED_clean_linker_0, # of connection points: 2
#     Edge 72, Type (0, 1), BuildingBlock: XIVTED_clean_linker_0, # of connection points: 2
#     Edge 73, Type (0, 1), BuildingBlock: XIVTED_clean_linker_0, # of connection points: 2
#     Edge 74, Type (0, 1), BuildingBlock: XIVTED_clean_linker_0, # of connection points: 2
#     Edge 75, Type (0, 1), BuildingBlock: XIVTED_clean_linker_0, # of connection points: 2
#     Edge 76, Type (0, 1), BuildingBlock: XIVTED_clean_linker_0, # of connection points: 2
#     Edge 77, Type (0, 1), BuildingBlock: XIVTED_clean_linker_0, # of connection points: 2
#     Edge 78, Type (0, 1), BuildingBlock: XIVTED_clean_linker_0, # of connection points: 2
#     Edge 79, Type (0, 1), BuildingBlock: XIVTED_clean_linker_0, # of connection points: 2
#     Edge 80, Type (0, 1), BuildingBlock: XIVTED_clean_linker_0, # of connection points: 2
#     Edge 81, Type (0, 1), BuildingBlock: XIVTED_clean_linker_0, # of connection points: 2
#     Edge 82, Type (0, 1), BuildingBlock: XIVTED_clean_linker_0, # of connection points: 2
#     Edge 83, Type (0, 1), BuildingBlock: XIVTED_clean_linker_0, # of connection points: 2
#     Edge 84, Type (0, 1), BuildingBlock: XIVTED_clean_linker_0, # of connection points: 2
#     Edge 85, Type (0, 1), BuildingBlock: XIVTED_clean_linker_0, # of connection points: 2
#     Edge 86, Type (0, 1), BuildingBlock: XIVTED_clean_linker_0, # of connection points: 2
#     Edge 87, Type (0, 1), BuildingBlock: XIVTED_clean_linker_0, # of connection points: 2
#     Edge 88, Type (0, 1), BuildingBlock: XIVTED_clean_linker_0, # of connection points: 2
#     Edge 89, Type (0, 1), BuildingBlock: XIVTED_clean_linker_0, # of connection points: 2
#     Edge 90, Type (0, 1), BuildingBlock: XIVTED_clean_linker_0, # of connection points: 2
#     Edge 91, Type (0, 1), BuildingBlock: XIVTED_clean_linker_0, # of connection points: 2
#     Edge 92, Type (0, 1), BuildingBlock: XIVTED_clean_linker_0, # of connection points: 2
#     Edge 93, Type (0, 1), BuildingBlock: XIVTED_clean_linker_0, # of connection points: 2
#     Edge 94, Type (0, 1), BuildingBlock: XIVTED_clean_linker_0, # of connection points: 2
#     Edge 95, Type (0, 1), BuildingBlock: XIVTED_clean_linker_0, # of connection points: 2
#     Edge 96, Type (0, 1), BuildingBlock: XIVTED_clean_linker_0, # of connection points: 2
#     Edge 97, Type (0, 1), BuildingBlock: XIVTED_clean_linker_0, # of connection points: 2
#     Edge 98, Type (0, 1), BuildingBlock: XIVTED_clean_linker_0, # of connection points: 2
#     Edge 99, Type (0, 1), BuildingBlock: XIVTED_clean_linker_0, # of connection points: 2
#     Edge 100, Type (0, 1), BuildingBlock: XIVTED_clean_linker_0, # of connection points: 2
#     Edge 101, Type (0, 1), BuildingBlock: XIVTED_clean_linker_0, # of connection points: 2
#     Edge 102, Type (0, 1), BuildingBlock: XIVTED_clean_linker_0, # of connection points: 2
#     Edge 103, Type (0, 1), BuildingBlock: XIVTED_clean_linker_0, # of connection points: 2
#     Edge 104, Type (0, 1), BuildingBlock: XIVTED_clean_linker_0, # of connection points: 2
#     Edge 105, Type (0, 1), BuildingBlock: XIVTED_clean_linker_0, # of connection points: 2
#     Edge 106, Type (0, 1), BuildingBlock: XIVTED_clean_linker_0, # of connection points: 2
#     Edge 107, Type (0, 1), BuildingBlock: XIVTED_clean_linker_0, # of connection points: 2
#     Edge 108, Type (0, 1), BuildingBlock: XIVTED_clean_linker_0, # of connection points: 2
#     Edge 109, Type (0, 1), BuildingBlock: XIVTED_clean_linker_0, # of connection points: 2
#     Edge 110, Type (0, 1), BuildingBlock: XIVTED_clean_linker_0, # of connection points: 2
#     Edge 111, Type (0, 1), BuildingBlock: XIVTED_clean_linker_0, # of connection points: 2
#     Edge 112, Type (0, 1), BuildingBlock: XIVTED_clean_linker_0, # of connection points: 2
#     Edge 113, Type (0, 1), BuildingBlock: XIVTED_clean_linker_0, # of connection points: 2
#     Edge 114, Type (0, 1), BuildingBlock: XIVTED_clean_linker_0, # of connection points: 2
#     Edge 115, Type (0, 1), BuildingBlock: XIVTED_clean_linker_0, # of connection points: 2
#     Edge 116, Type (0, 1), BuildingBlock: XIVTED_clean_linker_0, # of connection points: 2
#     Edge 117, Type (0, 1), BuildingBlock: XIVTED_clean_linker_0, # of connection points: 2
#     Edge 118, Type (0, 1), BuildingBlock: XIVTED_clean_linker_0, # of connection points: 2
#     Edge 119, Type (0, 1), BuildingBlock: XIVTED_clean_linker_0, # of connection points: 2
#     Edge 120, Type (0, 1), BuildingBlock: XIVTED_clean_linker_0, # of connection points: 2
#     Edge 121, Type (0, 1), BuildingBlock: XIVTED_clean_linker_0, # of connection points: 2
#     Edge 122, Type (0, 1), BuildingBlock: XIVTED_clean_linker_0, # of connection points: 2
#     Edge 123, Type (0, 1), BuildingBlock: XIVTED_clean_linker_0, # of connection points: 2
#     Edge 124, Type (0, 1), BuildingBlock: XIVTED_clean_linker_0, # of connection points: 2
#     Edge 125, Type (0, 1), BuildingBlock: XIVTED_clean_linker_0, # of connection points: 2
#     Edge 126, Type (0, 1), BuildingBlock: XIVTED_clean_linker_0, # of connection points: 2
#     Edge 127, Type (0, 1), BuildingBlock: XIVTED_clean_linker_0, # of connection points: 2
#     Edge 128, Type (0, 1), BuildingBlock: XIVTED_clean_linker_0, # of connection points: 2
#     Edge 129, Type (0, 1), BuildingBlock: XIVTED_clean_linker_0, # of connection points: 2
#     Edge 130, Type (0, 1), BuildingBlock: XIVTED_clean_linker_0, # of connection points: 2
#     Edge 131, Type (0, 1), BuildingBlock: XIVTED_clean_linker_0, # of connection points: 2
#     Edge 132, Type (0, 1), BuildingBlock: XIVTED_clean_linker_0, # of connection points: 2
#     Edge 133, Type (0, 1), BuildingBlock: XIVTED_clean_linker_0, # of connection points: 2
#     Edge 134, Type (0, 1), BuildingBlock: XIVTED_clean_linker_0, # of connection points: 2
#     Edge 135, Type (0, 1), BuildingBlock: XIVTED_clean_linker_0, # of connection points: 2
# Relax obj value: 0.209
# Max RMSD: 0.319
# Mean RMSD: 0.136
data_MOF--net-gar--node1-KUFVIS_clean_sbu_0--node2-NUHQIS_clean_sbu_0--edge1-XIVTED_clean_linker_0
_symmetry_space_group_name_H-M    P1
_symmetry_Int_Tables_number       1
_symmetry_cell_setting            triclinic
loop_
_symmetry_equiv_pos_as_xyz
'x, y, z'
_cell_length_a     56.420992
_cell_length_b     59.281787
_cell_length_c     57.424657
_cell_angle_alpha  92.994704
_cell_angle_beta   96.409379
_cell_angle_gamma 100.37188
loop_
_atom_site_label
_atom_site_type_symbol
_atom_site_fract_x
_atom_site_fract_y
_atom_site_fract_z
_atom_type_partial_charge
Mn0 Mn 0.09015 0.28729 0.42602 0.0
Mn1 Mn 0.08722 0.32185 0.37993 0.0
C2 C 0.05114 0.29154 0.40533 0.0
C3 C 0.09128 0.24847 0.4431 0.0
C4 C 0.09615 0.34283 0.4312 0.0
O5 O 0.1257 0.29066 0.41425 0.0
O6 O 0.12047 0.31366 0.38484 0.0
C7 C 0.09135 0.28686 0.34253 0.0
N8 N 0.07917 0.3026 0.35131 0.0
C9 C 0.04859 0.29509 0.31768 0.0
C10 C 0.06094 0.27896 0.3082 0.0
C11 C 0.08236 0.27477 0.32073 0.0
C12 C 0.05838 0.30656 0.33952 0.0
H13 H 0.10778 0.28349 0.35207 0.0
C14 C 0.13367 0.30176 0.3968 0.0
O15 O 0.09826 0.26826 0.45496 0.0
O16 O 0.08465 0.25106 0.42115 0.0
N17 N 0.05683 0.33139 0.37186 0.0
C18 C 0.04702 0.34749 0.38337 0.0
C19 C 1.02561 0.35376 0.37308 0.0
C20 C 1.01462 0.34363 0.35095 0.0
C21 C 1.02527 0.32747 0.3392 0.0
C22 C 0.04678 0.32209 0.35021 0.0
H23 H 0.05534 0.35544 0.40035 0.0
O24 O 0.05328 0.2848 0.42648 0.0
O25 O 0.07184 0.29568 0.39677 0.0
O26 O 0.0959 0.3232 0.44066 0.0
O27 O 0.09446 0.34357 0.4088 0.0
C28 C 1.01526 0.31634 0.31709 0.0
C29 C 1.02685 0.30008 0.30639 0.0
H30 H 0.05406 0.26959 0.29139 0.0
H31 H 0.09192 0.26226 0.31359 0.0
H32 H 1.01755 0.36632 0.38223 0.0
H33 H 0.99796 0.34833 0.34318 0.0
H34 H 0.99855 0.32002 0.30826 0.0
H35 H 1.01886 0.29148 0.28948 0.0
Mn36 Mn 0.07536 0.79474 0.65998 0.0
Mn37 Mn 0.08769 0.83562 0.70616 0.0
C38 C 0.11642 0.80654 0.68086 0.0
C39 C 0.06865 0.75362 0.64169 0.0
C40 C 0.07864 0.84946 0.65507 0.0
O41 O 0.04019 0.79338 0.67335 0.0
O42 O 0.05219 0.82125 0.70277 0.0
C43 C 0.07841 0.80553 0.74508 0.0
N44 N 0.09366 0.82156 0.73495 0.0
C45 C 0.1254 0.82307 0.76703 0.0
C46 C 0.10997 0.8067 0.77784 0.0
C47 C 0.08639 0.79786 0.76679 0.0
C48 C 0.11639 0.83018 0.74545 0.0
H49 H 0.0603 0.79858 0.73666 0.0
C50 C 0.03546 0.80564 0.6914 0.0
O51 O 0.06358 0.77096 0.63051 0.0
O52 O 0.0755 0.7596 0.66382 0.0
N53 N 0.12112 0.8504 0.71209 0.0
C54 C 0.13436 0.86479 0.69855 0.0
C55 C 0.15865 0.87444 0.7067 0.0
C56 C 0.16908 0.86927 0.72868 0.0
C57 C 0.1551 0.85448 0.74232 0.0
C58 C 0.13091 0.8455 0.73337 0.0
H59 H 0.12652 0.86877 0.6816 0.0
O60 O 0.11247 0.79843 0.65908 0.0
O61 O 0.09643 0.8088 0.68931 0.0
O62 O 0.07497 0.82842 0.6456 0.0
O63 O 0.08269 0.85313 0.67748 0.0
C64 C 0.16439 0.84789 0.76421 0.0
C65 C 0.14955 0.8322 0.77656 0.0
H66 H 0.11611 0.80062 0.79452 0.0
H67 H 0.07442 0.78513 0.77497 0.0
H68 H 0.16935 0.88577 0.69603 0.0
H69 H 0.18789 0.87657 0.7348 0.0
H70 H 0.18304 0.8545 0.77153 0.0
H71 H 0.15702 0.82699 0.79319 0.0
Mn72 Mn 0.58802 0.79246 0.92857 0.0
Mn73 Mn 0.58646 0.82813 0.88332 0.0
C74 C 0.54924 0.79693 0.90722 0.0
C75 C 0.58872 0.7531 0.94502 0.0
C76 C 0.59403 0.84821 0.93492 0.0
O77 O 0.62387 0.79577 0.91733 0.0
O78 O 0.61968 0.81962 0.88855 0.0
C79 C 0.59175 0.79471 0.84486 0.0
N80 N 0.57945 0.81023 0.85386 0.0
C81 C 0.55157 0.80624 0.81834 0.0
C82 C 0.56409 0.79039 0.80861 0.0
C83 C 0.58419 0.78451 0.82199 0.0
C84 C 0.55995 0.81585 0.84122 0.0
H85 H 0.60724 0.79014 0.85502 0.0
C86 C 0.63241 0.80712 0.90026 0.0
O87 O 0.59554 0.77272 0.95723 0.0
O88 O 0.58242 0.75617 0.92314 0.0
N89 N 0.55627 0.83788 0.87493 0.0
C90 C 0.54493 0.85192 0.88753 0.0
C91 C 0.52382 0.8586 0.87703 0.0
C92 C 0.51479 0.85107 0.8536 0.0
C93 C 0.52687 0.8368 0.84091 0.0
C94 C 0.54781 0.83068 0.8523 0.0
H95 H 0.5518 0.85789 0.90551 0.0
O96 O 0.5511 0.78998 0.92831 0.0
O97 O 0.57021 0.8013 0.89904 0.0
O98 O 0.59353 0.82834 0.94403 0.0
O99 O 0.59293 0.84921 0.91261 0.0
C100 C 0.51861 0.82796 0.81759 0.0
C101 C 0.53087 0.81259 0.80635 0.0
H102 H 0.55829 0.78245 0.79099 0.0
H103 H 0.59386 0.77218 0.81467 0.0
H104 H 0.51456 0.86955 0.88698 0.0
H105 H 0.49841 0.85613 0.84562 0.0
H106 H 0.50262 0.83257 0.80825 0.0
H107 H 0.52407 0.80556 0.78858 0.0
Mn108 Mn 0.57849 0.29974 0.16258 0.0
Mn109 Mn 0.53266 0.29042 0.11809 0.0
C110 C 0.5655 0.26069 0.14258 0.0
C111 C 0.62117 0.30733 0.18083 0.0
C112 C 0.52287 0.29753 0.16995 0.0
O113 O 0.57896 0.33379 0.15 0.0
O114 O 0.54859 0.3246 0.12029 0.0
C115 C 0.5602 0.3001 0.07754 0.0
N116 N 0.54435 0.28549 0.08857 0.0
C117 C 0.53923 0.25634 0.05667 0.0
C118 C 0.55526 0.2712 0.04487 0.0
C119 C 0.56583 0.29315 0.05539 0.0
C120 C 0.53405 0.26432 0.07859 0.0
H121 H 0.56858 0.31692 0.08559 0.0
C122 C 0.56575 0.33975 0.13203 0.0
O123 O 0.60332 0.31137 0.19169 0.0
O124 O 0.61471 0.30036 0.15883 0.0
N125 N 0.51642 0.25896 0.11313 0.0
C126 C 0.50337 0.24587 0.12782 0.0
C127 C 0.49274 0.22296 0.12052 0.0
C128 C 0.49565 0.21372 0.09823 0.0
C129 C 0.50927 0.22746 0.08347 0.0
C130 C 0.51933 0.25023 0.09164 0.0
H131 H 0.50126 0.25275 0.14508 0.0
O132 O 0.5752 0.2645 0.16434 0.0
O133 O 0.5621 0.28002 0.13353 0.0
O134 O 0.54552 0.30003 0.17815 0.0
O135 O 0.51661 0.29445 0.14765 0.0
C136 C 0.51386 0.21923 0.06126 0.0
C137 C 0.52878 0.23367 0.04785 0.0
H138 H 0.55986 0.26581 0.0279 0.0
H139 H 0.57839 0.30465 0.04649 0.0
H140 H 0.48242 0.2124 0.1321 0.0
H141 H 0.48761 0.19597 0.09276 0.0
H142 H 0.50634 0.2017 0.05451 0.0
H143 H 0.5325 0.22703 0.03098 0.0
Mn144 Mn 0.13835 0.86156 0.17784 0.0
Mn145 Mn 0.10359 0.82854 0.13225 0.0
C146 C 0.1443 0.82484 0.1701 0.0
C147 C 0.17087 0.88932 0.1948 0.0
C148 C 0.08666 0.83513 0.17949 0.0
O149 O 0.12352 0.88449 0.15965 0.0
O150 O 0.10022 0.86144 0.13037 0.0
C151 C 0.13192 0.84822 0.09528 0.0
N152 N 0.12205 0.8296 0.10625 0.0
C153 C 0.13637 0.80384 0.07967 0.0
C154 C 0.14657 0.82273 0.068 0.0
C155 C 0.14441 0.84502 0.0759 0.0
C156 C 0.12429 0.80811 0.09898 0.0
H157 H 0.13028 0.86537 0.10128 0.0
C158 C 0.10818 0.88121 0.14131 0.0
O159 O 0.15073 0.88508 0.20397 0.0
O160 O 0.17184 0.87799 0.17499 0.0
N161 N 0.10418 0.79632 0.13075 0.0
C162 C 0.09315 0.77993 0.14383 0.0
C163 C 0.09343 0.75666 0.13809 0.0
C164 C 0.1046 0.75044 0.11869 0.0
C165 C 0.11534 0.76755 0.10516 0.0
C166 C 0.11439 0.79045 0.11166 0.0
H167 H 0.08431 0.78456 0.15862 0.0
O168 O 0.15167 0.83558 0.19061 0.0
O169 O 0.13435 0.83625 0.15398 0.0
O170 O 0.1058 0.84899 0.18835 0.0
O171 O 0.08357 0.82594 0.1585 0.0
C172 C 0.12719 0.76282 0.08563 0.0
C173 C 0.13781 0.78096 0.07297 0.0
H174 H 0.15616 0.82033 0.053 0.0
H175 H 0.1523 0.85969 0.06703 0.0
H176 H 0.08504 0.74355 0.14858 0.0
H177 H 0.10491 0.73249 0.1144 0.0
H178 H 0.12839 0.7453 0.08031 0.0
H179 H 0.14702 0.77712 0.05809 0.0
Mn180 Mn 0.51877 0.74228 0.4096 0.0
Mn181 Mn 0.50341 0.75257 0.35295 0.0
C182 C 0.47847 0.74142 0.39652 0.0
C183 C 0.53026 0.71716 0.43643 0.0
C184 C 0.52541 0.7901 0.3913 0.0
O185 O 0.54922 0.74097 0.39448 0.0
O186 O 0.53521 0.74275 0.35663 0.0
C187 C 0.4968 0.70452 0.33291 0.0
N188 N 0.4882 0.72442 0.33551 0.0
C189 C 0.45248 0.70941 0.30844 0.0
C190 C 0.46095 0.68874 0.30538 0.0
C191 C 0.48314 0.68624 0.3178 0.0
C192 C 0.46664 0.72681 0.32413 0.0
H193 H 0.51399 0.70269 0.34223 0.0
C194 C 0.55176 0.74017 0.37278 0.0
O195 O 0.53683 0.73925 0.44061 0.0
O196 O 0.51631 0.70968 0.41698 0.0
N197 N 0.47331 0.76255 0.34505 0.0
C198 C 0.46809 0.78381 0.34947 0.0
C199 C 0.44741 0.78977 0.33724 0.0
C200 C 0.43236 0.77387 0.32047 0.0
C201 C 0.43796 0.75205 0.31628 0.0
C202 C 0.45913 0.7473 0.3286 0.0
H203 H 0.47979 0.79628 0.36199 0.0
O204 O 0.48599 0.74278 0.41883 0.0
O205 O 0.4945 0.73914 0.38228 0.0
O206 O 0.52542 0.77715 0.40838 0.0
O207 O 0.51847 0.78263 0.36986 0.0
C208 C 0.42354 0.73493 0.30016 0.0
C209 C 0.43064 0.71351 0.29646 0.0
H210 H 0.4506 0.67471 0.29354 0.0
H211 H 0.48979 0.67034 0.31556 0.0
H212 H 0.44316 0.80663 0.34062 0.0
H213 H 0.41645 0.77854 0.31102 0.0
H214 H 0.40692 0.73803 0.29057 0.0
H215 H 0.41934 0.70042 0.28413 0.0
Mn216 Mn 0.62617 0.35095 0.6744 0.0
Mn217 Mn 0.5945 0.32146 0.62514 0.0
C218 C 0.63218 0.31458 0.66497 0.0
C219 C 0.65795 0.37785 0.69417 0.0
C220 C 0.57444 0.32284 0.67143 0.0
O221 O 0.61214 0.37523 0.65762 0.0
O222 O 0.59109 0.35451 0.62577 0.0
C223 C 0.62622 0.3452 0.59266 0.0
N224 N 0.61563 0.32537 0.60124 0.0
C225 C 0.63434 0.30263 0.57537 0.0
C226 C 0.64533 0.3228 0.56618 0.0
C227 C 0.6413 0.34419 0.57492 0.0
C228 C 0.61969 0.30473 0.59321 0.0
H229 H 0.62323 0.3617 0.59934 0.0
C230 C 0.59819 0.37345 0.63845 0.0
O231 O 0.63729 0.37272 0.70233 0.0
O232 O 0.65983 0.36801 0.67384 0.0
N233 N 0.59528 0.28938 0.62077 0.0
C234 C 0.58165 0.27145 0.63003 0.0
C235 C 0.58295 0.2488 0.62261 0.0
C236 C 0.59767 0.24478 0.60526 0.0
C237 C 0.61063 0.26346 0.59518 0.0
C238 C 0.60856 0.28566 0.60324 0.0
H239 H 0.57 0.2744 0.64312 0.0
O240 O 0.63908 0.32436 0.68594 0.0
O241 O 0.62347 0.32712 0.64916 0.0
O242 O 0.5928 0.33658 0.68231 0.0
O243 O 0.57254 0.31611 0.64965 0.0
C244 C 0.62531 0.26092 0.57728 0.0
C245 C 0.63727 0.2805 0.56747 0.0
H246 H 0.65688 0.32208 0.55241 0.0
H247 H 0.64977 0.35984 0.56796 0.0
H248 H 0.57261 0.23447 0.63025 0.0
H249 H 0.59871 0.22728 0.59966 0.0
H250 H 0.62743 0.24399 0.57084 0.0
H251 H 0.64849 0.27834 0.5537 0.0
Mn252 Mn 1.02271 0.24673 0.90548 0.0
Mn253 Mn 1.00679 0.25922 0.84975 0.0
C254 C 0.98285 0.24862 0.89366 0.0
C255 C 1.03204 0.22051 0.93191 0.0
C256 C 0.03358 0.29471 0.8882 0.0
O257 O 0.05158 0.24262 0.88877 0.0
O258 O 0.03669 0.24605 0.8514 0.0
C259 C 0.99436 0.2118 0.82736 0.0
N260 N 0.98822 0.23265 0.83173 0.0
C261 C 0.95068 0.22171 0.8061 0.0
C262 C 0.9566 0.2001 0.80124 0.0
C263 C 0.97846 0.19508 0.81204 0.0
C264 C 0.96705 0.23751 0.82181 0.0
H265 H 1.0113 0.20803 0.83544 0.0
C266 C 0.05306 0.2416 0.8668 0.0
O267 O 0.04086 0.24231 0.9359 0.0
O268 O 1.01742 0.21395 0.91265 0.0
N269 N 0.9782 0.27229 0.84453 0.0
C270 C 0.97503 0.29378 0.85142 0.0
C271 C 0.9544 0.3018 0.84173 0.0
C272 C 0.93745 0.28779 0.82479 0.0
C273 C 0.94101 0.26569 0.81805 0.0
C274 C 0.96202 0.25873 0.82815 0.0
H275 H 0.98827 0.30485 0.86399 0.0
O276 O 0.99093 0.24994 0.91585 0.0
O277 O 0.99809 0.24542 0.87892 0.0
O278 O 0.03248 0.28141 0.90492 0.0
O279 O 1.02546 0.288 0.86683 0.0
C280 C 0.92453 0.25029 0.80174 0.0
C281 C 0.92922 0.22821 0.79599 0.0
H282 H 0.94448 0.18723 0.78929 0.0
H283 H 0.98314 0.17843 0.80841 0.0
H284 H 0.9517 0.31883 0.8471 0.0
H285 H 0.92168 0.2941 0.81719 0.0
H286 H 0.90807 0.25517 0.79371 0.0
H287 H 0.91626 0.21641 0.78367 0.0
Mn288 Mn 0.53954 0.12217 0.3579 0.0
Mn289 Mn 0.49891 0.1089 0.39581 0.0
C290 C 0.53204 0.08541 0.37089 0.0
C291 C 0.54796 0.12425 0.31953 0.0
C292 C 0.54823 0.1399 0.40906 0.0
O293 O 0.51912 0.1471 0.35471 0.0
O294 O 0.48962 0.13359 0.37676 0.0
C295 C 0.45501 0.0894 0.36274 0.0
N296 N 0.4717 0.08685 0.381 0.0
C297 C 0.45299 0.04727 0.38294 0.0
C298 C 0.43555 0.04952 0.36424 0.0
C299 C 0.43657 0.07068 0.3541 0.0
C300 C 0.47083 0.06658 0.39094 0.0
H301 H 0.45586 0.10555 0.35471 0.0
C302 C 0.4986 0.14733 0.3621 0.0
O303 O 0.56233 0.13666 0.33656 0.0
O304 O 0.52858 0.1112 0.32481 0.0
N305 N 0.50628 0.0845 0.41435 0.0
C306 C 0.52533 0.08472 0.43125 0.0
C307 C 0.52727 0.0647 0.4428 0.0
C308 C 0.50967 0.04465 0.43682 0.0
C309 C 0.49023 0.04483 0.41938 0.0
C310 C 0.48908 0.06536 0.40867 0.0
H311 H 0.539 0.10001 0.43585 0.0
O312 O 0.55241 0.09296 0.36291 0.0
O313 O 0.51769 0.10008 0.37172 0.0
O314 O 0.55638 0.13676 0.3896 0.0
O315 O 0.52665 0.13122 0.41278 0.0
C316 C 0.47227 0.02527 0.41182 0.0
C317 C 0.45369 0.02648 0.39359 0.0
H318 H 0.42143 0.03506 0.35737 0.0
H319 H 0.42326 0.07251 0.33957 0.0
H320 H 0.54237 0.06468 0.45619 0.0
H321 H 0.51139 0.02918 0.44559 0.0
H322 H 0.47279 1.00911 0.41966 0.0
H323 H 0.44022 1.01123 0.38767 0.0
Mn324 Mn 0.35098 0.17748 0.54583 0.0
Mn325 Mn 0.33888 0.13276 0.50402 0.0
C326 C 0.30969 0.15617 0.53539 0.0
C327 C 0.35686 0.19472 0.58741 0.0
C328 C 0.34965 0.18308 0.49023 0.0
O329 O 0.38569 0.16633 0.54594 0.0
O330 O 0.37427 0.13742 0.51753 0.0
C331 C 0.34652 0.09459 0.53364 0.0
N332 N 0.33193 0.10409 0.51799 0.0
C333 C 0.29977 0.07109 0.51646 0.0
C334 C 0.31452 0.06091 0.53241 0.0
C335 C 0.33798 0.07274 0.54107 0.0
C336 C 0.30935 0.09281 0.50947 0.0
H337 H 0.36453 0.1036 0.54045 0.0
C338 C 0.3906 0.1492 0.53318 0.0
O339 O 0.36252 0.20626 0.56961 0.0
O340 O 0.34989 0.17291 0.58155 0.0
N341 N 0.30571 0.12573 0.49005 0.0
C342 C 0.29294 0.13886 0.47664 0.0
C343 C 0.26868 0.13003 0.46763 0.0
C344 C 0.2578 0.10782 0.47245 0.0
C345 C 0.27127 0.09465 0.48631 0.0
C346 C 0.29544 0.10429 0.49471 0.0
H347 H 0.30112 0.156 0.47299 0.0
O348 O 0.31438 0.17752 0.5435 0.0
O349 O 0.32935 0.14822 0.53216 0.0
O350 O 0.35301 0.1921 0.51176 0.0
O351 O 0.34496 0.16117 0.48627 0.0
C352 C 0.26145 0.07259 0.49268 0.0
C353 C 0.27569 0.06082 0.50772 0.0
H354 H 0.30792 0.04415 0.53836 0.0
H355 H 0.34942 0.06505 0.55351 0.0
H356 H 0.25835 0.14037 0.45707 0.0
H357 H 0.23901 0.10117 0.46565 0.0
H358 H 0.24281 0.06471 0.48647 0.0
H359 H 0.2678 0.04404 0.51283 0.0
Mn360 Mn 0.22372 0.07798 0.87031 0.0
Mn361 Mn 0.26977 0.09695 0.91279 0.0
C362 C 0.23632 0.11688 0.87861 0.0
C363 C 0.2096 0.0648 0.83182 0.0
C364 C 0.21976 0.07239 0.92123 0.0
O365 O 0.24032 0.05083 0.87539 0.0
O366 O 0.27495 0.06725 0.89837 0.0
C367 C 0.31251 0.1061 0.88678 0.0
N368 N 0.29748 0.11389 0.90101 0.0
C369 C 0.32061 0.15241 0.90333 0.0
C370 C 0.33634 0.1448 0.88873 0.0
C371 C 0.33227 0.12154 0.88043 0.0
C372 C 0.30139 0.13618 0.90932 0.0
H373 H 0.30935 0.08829 0.88022 0.0
C374 C 0.26161 0.05038 0.88535 0.0
O375 O 0.197 0.05893 0.84883 0.0
O376 O 0.23066 0.07817 0.83722 0.0
N377 N 0.2662 0.12592 0.92696 0.0
C378 C 0.24829 0.13082 0.93935 0.0
C379 C 0.24899 0.15357 0.94796 0.0
C380 C 0.26806 0.17104 0.94372 0.0
C381 C 0.28626 0.1656 0.93088 0.0
C382 C 0.28469 0.1426 0.92287 0.0
H383 H 0.2335 0.1175 0.94253 0.0
O384 O 0.21452 0.10885 0.86825 0.0
O385 O 0.24955 0.10166 0.88406 0.0
O386 O 0.20955 0.07365 0.90068 0.0
O387 O 0.24239 0.07976 0.92749 0.0
C388 C 0.30563 0.18218 0.92532 0.0
C389 C 0.32284 0.17557 0.91163 0.0
H390 H 0.35144 0.1567 0.88356 0.0
H391 H 0.34427 0.11555 0.86905 0.0
H392 H 0.23481 0.15765 0.95776 0.0
H393 H 0.26843 0.1886 0.95024 0.0
H394 H 0.30729 0.20011 0.93125 0.0
H395 H 0.33748 0.18852 0.90724 0.0
Mn396 Mn 0.34005 0.90838 0.05501 0.0
Mn397 Mn 0.3522 0.95382 0.02218 0.0
C398 C 0.37983 0.92437 0.05064 0.0
C399 C 0.33501 0.89503 0.09267 0.0
C400 C 0.33285 0.90492 1.00062 0.0
O401 O 0.30854 0.92133 0.05304 0.0
O402 O 0.31988 0.95247 0.03301 0.0
C403 C 0.35555 0.99149 0.05906 0.0
N404 N 0.36571 0.98099 0.04209 0.0
C405 C 0.40186 1.01025 0.0483 0.0
C406 C 0.39172 0.02143 0.06576 0.0
C407 C 0.36851 1.01196 0.07121 0.0
C408 C 0.38811 0.98986 0.03683 0.0
H409 H 0.3377 0.98429 0.06329 0.0
C410 C 0.30471 0.93994 0.0442 0.0
O411 O 0.32659 0.8819 0.0736 0.0
O412 O 0.34538 0.91578 0.08973 0.0
N413 N 0.38327 0.95737 1.01093 0.0
C414 C 0.39097 0.94384 0.99454 0.0
C415 C 0.41411 0.95059 0.98752 0.0
C416 C 0.42897 0.97129 0.99724 0.0
C417 C 0.42058 0.98503 1.01393 0.0
C418 C 0.39735 0.97743 0.02022 0.0
H419 H 0.37957 0.92799 0.98688 0.0
O420 O 0.37451 0.90337 0.05642 0.0
O421 O 0.36176 0.935 0.04714 0.0
O422 O 0.33246 0.89484 0.01991 0.0
O423 O 0.33907 0.9267 1.00012 0.0
C424 C 0.4345 1.0058 0.02483 0.0
C425 C 0.4252 1.01833 0.04209 0.0
H426 H 0.40167 0.03721 0.0752 0.0
H427 H 0.36061 0.02044 0.08473 0.0
H428 H 0.42046 0.93989 0.97463 0.0
H429 H 0.44685 0.97638 0.99186 0.0
H430 H 0.45255 1.01208 0.02036 0.0
H431 H 0.43625 0.03405 0.05066 0.0
Mn432 Mn 0.31956 0.41649 0.05367 0.0
Mn433 Mn 0.32616 0.46046 1.01717 0.0
C434 C 0.35975 0.43748 0.04853 0.0
C435 C 0.31532 0.39921 0.09243 0.0
C436 C 0.31553 0.40975 0.99765 0.0
O437 O 0.28436 0.42693 0.05037 0.0
O438 O 0.29295 0.45671 0.02802 0.0
C439 C 0.32526 0.49847 0.05256 0.0
N440 N 0.33628 0.48922 0.03545 0.0
C441 C 0.36887 0.52208 0.03982 0.0
C442 C 0.35751 0.5322 0.05703 0.0
C443 C 0.33569 0.52026 0.06354 0.0
C444 C 0.35754 0.50036 0.0294 0.0
H445 H 0.30877 0.4892 0.05798 0.0
C446 C 0.27831 0.44466 0.04025 0.0
O447 O 0.30868 0.38789 0.07214 0.0
O448 O 0.32325 0.42094 0.09047 0.0
N449 N 0.35704 0.46724 1.00555 0.0
C450 C 0.36655 0.45455 0.98974 0.0
C451 C 0.38882 0.46371 0.98205 0.0
C452 C 0.40103 0.48588 0.9905 0.0
C453 C 0.39079 0.49874 1.00652 0.0
C454 C 0.36841 0.48882 1.01337 0.0
H455 H 0.35733 0.43752 0.98306 0.0
O456 O 0.35636 0.41692 0.05584 0.0
O457 O 0.33958 0.44523 0.04433 0.0
O458 O 0.31563 0.40149 1.01811 0.0
O459 O 0.31686 0.4314 0.9957 0.0
C460 C 0.4022 0.52083 1.01632 0.0
C461 C 0.39129 0.53246 0.03302 0.0
H462 H 0.36559 0.54894 0.06565 0.0
H463 H 0.32702 0.52779 0.07708 0.0
H464 H 0.3966 0.45366 0.96969 0.0
H465 H 0.41834 0.49277 0.98474 0.0
H466 H 0.41958 0.52887 1.01145 0.0
H467 H 0.40046 0.54925 0.04076 0.0
Mn468 Mn 0.81192 0.21707 0.03893 0.0
Mn469 Mn 0.79838 0.17193 0.99783 0.0
C470 C 0.77339 0.19416 0.03302 0.0
C471 C 0.82568 0.23172 0.07828 0.0
C472 C 0.80157 0.22145 0.98535 0.0
O473 O 0.84556 0.21134 0.03306 0.0
O474 O 0.83395 0.18123 1.00594 0.0
C475 C 0.81592 0.13727 0.02722 0.0
N476 N 0.7978 0.14402 1.01315 0.0
C477 C 0.77066 0.10825 1.01604 0.0
C478 C 0.78908 0.10087 0.03045 0.0
C479 C 0.81178 0.11548 0.03613 0.0
C480 C 0.77582 0.13018 1.00775 0.0
H481 H 0.8334 0.14845 0.03161 0.0
C482 C 0.85021 0.19579 1.01891 0.0
O483 O 0.82609 0.24511 0.06104 0.0
O484 O 0.81803 0.21001 0.07253 0.0
N485 N 0.76451 0.16073 0.98822 0.0
C486 C 0.74841 0.17077 0.97483 0.0
C487 C 0.72477 0.15848 0.96775 0.0
C488 C 0.718 0.13595 0.9743 0.0
C489 C 0.73495 0.1259 0.98788 0.0
C490 C 0.75829 0.13892 0.99428 0.0
H491 H 0.75349 0.18806 0.96974 0.0
O492 O 0.77653 0.21497 0.04255 0.0
O493 O 0.79263 0.18754 0.02697 0.0
O494 O 0.8073 0.23094 1.00635 0.0
O495 O 0.79796 0.19972 0.98065 0.0
C496 C 0.72949 0.1036 0.99564 0.0
C497 C 0.74729 0.09483 1.00981 0.0
H498 H 0.78596 0.08408 0.03737 0.0
H499 H 0.82605 0.10995 0.04732 0.0
H500 H 0.71177 0.16639 0.9573 0.0
H501 H 0.69969 0.1266 0.96898 0.0
H502 H 0.71153 0.0932 0.99111 0.0
H503 H 0.74276 0.0778 1.01595 0.0
Mn504 Mn 0.14747 0.51218 0.24654 0.0
Mn505 Mn 0.19765 0.54922 0.27211 0.0
C506 C 0.15787 0.5478 0.23218 0.0
C507 C 0.12727 0.48252 0.21943 0.0
C508 C 0.14947 0.5438 0.29114 0.0
O509 O 0.16536 0.49117 0.26575 0.0
O510 O 0.19716 0.51774 0.28223 0.0
C511 C 0.23253 0.52816 0.24736 0.0
N512 N 0.2234 0.54704 0.25363 0.0
C513 C 0.25303 0.57171 0.23483 0.0
C514 C 0.26283 0.55255 0.22826 0.0
C515 C 0.25244 0.53066 0.23445 0.0
C516 C 0.23292 0.56809 0.24733 0.0
H517 H 0.2247 0.51132 0.25221 0.0
C518 C 0.18521 0.49713 0.27935 0.0
O519 O 0.11839 0.48745 0.23855 0.0
O520 O 0.14871 0.49378 0.21691 0.0
N521 N 0.2019 0.58072 0.26484 0.0
C522 C 0.19084 0.59755 0.27326 0.0
C523 C 0.19975 0.6206 0.26958 0.0
C524 C 0.2202 0.6262 0.25769 0.0
C525 C 0.23146 0.60866 0.2494 0.0
C526 C 0.22194 0.58601 0.25383 0.0
H527 H 0.17546 0.59346 0.2829 0.0
O528 O 0.13591 0.53619 0.22788 0.0
O529 O 0.17373 0.53805 0.24424 0.0
O530 O 0.13843 0.52754 0.27622 0.0
O531 O 0.17178 0.55302 0.29144 0.0
C532 C 0.25185 0.61277 0.23705 0.0
C533 C 0.26248 0.59428 0.22957 0.0
H534 H 0.27833 0.55444 0.21848 0.0
H535 H 0.25987 0.51578 0.2294 0.0
H536 H 0.19098 0.63405 0.27606 0.0
H537 H 0.22711 0.64402 0.25505 0.0
H538 H 0.25946 0.63009 0.23317 0.0
H539 H 0.27807 0.59763 0.21998 0.0
Mn540 Mn 0.82091 0.9166 0.55821 0.0
Mn541 Mn 0.82704 0.95971 0.52051 0.0
C542 C 0.86094 0.9375 0.55243 0.0
C543 C 0.81725 0.8998 0.5975 0.0
C544 C 0.81709 0.90879 0.50203 0.0
O545 O 0.78581 0.92721 0.55509 0.0
O546 O 0.79322 0.95485 0.52998 0.0
C547 C 0.82301 0.9981 0.55417 0.0
N548 N 0.83549 0.9888 0.53834 0.0
C549 C 0.86694 0.0226 0.54299 0.0
C550 C 0.85432 0.0326 0.55918 0.0
C551 C 0.8323 0.02025 0.56485 0.0
C552 C 0.8568 1.00046 0.53291 0.0
H553 H 0.80611 0.98871 0.55867 0.0
C554 C 0.77899 0.94358 0.5431 0.0
O555 O 0.81036 0.88828 0.57735 0.0
O556 O 0.82509 0.92148 0.59512 0.0
N557 N 0.85825 0.96741 0.50977 0.0
C558 C 0.86871 0.95505 0.49449 0.0
C559 C 0.89106 0.96484 0.48735 0.0
C560 C 0.90231 0.98731 0.49574 0.0
C561 C 0.89104 0.99985 0.51113 0.0
C562 C 0.86869 0.98925 0.51754 0.0
H563 H 0.86017 0.9378 0.48785 0.0
O564 O 0.85765 0.91704 0.56 0.0
O565 O 0.84072 0.94524 0.54827 0.0
O566 O 0.81641 0.90086 0.52266 0.0
O567 O 0.81935 0.93042 0.4997 0.0
C568 C 0.90135 0.0223 0.52072 0.0
C569 C 0.88936 0.03363 0.5367 0.0
H570 H 0.86145 0.04966 0.56749 0.0
H571 H 0.82252 0.0278 0.57744 0.0
H572 H 0.89962 0.95505 0.47543 0.0
H573 H 0.91966 0.99472 0.49037 0.0
H574 H 0.91868 0.03087 0.51618 0.0
H575 H 0.89763 0.05076 0.5442 0.0
Mn576 Mn 0.93169 1.0102 0.22136 0.0
Mn577 Mn 0.88957 0.98491 0.2539 0.0
C578 C 0.92115 0.97077 0.21804 0.0
C579 C 0.94269 0.0319 0.19074 0.0
C580 C 0.94181 1.00435 0.2732 0.0
O581 O 0.91665 0.03627 0.23383 0.0
O582 O 0.88467 1.0164 0.24849 0.0
C583 C 0.84584 0.98235 0.21951 0.0
N584 N 0.86004 0.97189 0.23456 0.0
C585 C 0.831 0.93645 0.22888 0.0
C586 C 0.81599 0.9468 0.21333 0.0
C587 C 0.82354 0.96981 0.20848 0.0
C588 C 0.8533 0.94962 0.23881 0.0
H589 H 0.85145 1.00015 0.2161 0.0
C590 C 0.8967 0.03505 0.24244 0.0
O591 O 0.95671 0.03289 0.21032 0.0
O592 O 0.92217 1.01731 0.1882 0.0
N593 N 0.89103 0.95409 0.26136 0.0
C594 C 0.90748 0.94678 0.27704 0.0
C595 C 0.90219 0.92453 0.28472 0.0
C596 C 0.87983 0.9102 0.27664 0.0
C597 C 0.86319 0.91801 0.26048 0.0
C598 C 0.86941 0.94038 0.25355 0.0
H599 H 0.92431 0.95799 0.28404 0.0
O600 O 0.94087 0.98095 0.21039 0.0
O601 O 0.90723 0.98399 0.22593 0.0
O602 O 0.94912 1.00811 0.25345 0.0
O603 O 0.91952 0.99748 0.2758 0.0
C604 C 0.84053 0.90461 0.25125 0.0
C605 C 0.82462 0.91368 0.23514 0.0
H606 H 0.79861 0.93728 0.20507 0.0
H607 H 0.81206 0.97793 0.1965 0.0
H608 H 0.91513 0.91859 0.29717 0.0
H609 H 0.87563 0.89321 0.28292 0.0
H610 H 0.83519 0.88727 0.25634 0.0
H611 H 0.80738 0.90311 0.22793 0.0
Mn612 Mn 0.30838 0.72213 0.54004 0.0
Mn613 Mn 0.29808 0.67798 0.49795 0.0
C614 C 0.27044 0.69833 0.53206 0.0
C615 C 0.32018 0.73576 0.57999 0.0
C616 C 0.30049 0.72772 0.48647 0.0
O617 O 0.34273 0.71762 0.53563 0.0
O618 O 0.33334 0.68798 0.50782 0.0
C619 C 0.31522 0.64309 0.52728 0.0
N620 N 0.29745 0.64972 0.51265 0.0
C621 C 0.27083 0.61329 0.51373 0.0
C622 C 0.2889 0.60602 0.5287 0.0
C623 C 0.31117 0.62102 0.53557 0.0
C624 C 0.27589 0.63549 0.50608 0.0
H625 H 0.33237 0.65456 0.53259 0.0
C626 C 0.34866 0.70261 0.5217 0.0
O627 O 0.321 0.7497 0.56323 0.0
O628 O 0.31313 0.71414 0.57346 0.0
N629 N 0.26466 0.66618 0.48674 0.0
C630 C 0.24873 0.67619 0.4731 0.0
C631 C 0.22546 0.66358 0.46499 0.0
C632 C 0.21887 0.64077 0.47082 0.0
C633 C 0.23565 0.63076 0.48469 0.0
C634 C 0.25863 0.64412 0.49214 0.0
H635 H 0.25366 0.69371 0.46859 0.0
O636 O 0.27253 0.71885 0.54205 0.0
O637 O 0.29037 0.69255 0.52679 0.0
O638 O 0.3049 0.73677 0.50772 0.0
O639 O 0.29779 0.70612 0.48134 0.0
C640 C 0.23032 0.60819 0.49178 0.0
C641 C 0.24785 0.59949 0.50638 0.0
H642 H 0.28584 0.58902 0.53516 0.0
H643 H 0.32517 0.61557 0.54719 0.0
H644 H 0.2126 0.67145 0.45434 0.0
H645 H 0.20083 0.63117 0.46473 0.0
H646 H 0.21264 0.5975 0.48643 0.0
H647 H 0.24341 0.58225 0.51201 0.0
Mn648 Mn 0.42788 0.51694 0.71648 0.0
Mn649 Mn 0.39237 0.49362 0.75596 0.0
C650 C 0.42176 0.47793 0.71958 0.0
C651 C 0.43362 0.53182 0.68085 0.0
C652 C 0.44411 0.51891 0.76887 0.0
O653 O 0.41004 0.54228 0.72542 0.0
O654 O 0.38409 0.52352 0.74804 0.0
C655 C 0.34508 0.48509 0.7258 0.0
N656 N 0.36207 0.4772 0.74029 0.0
C657 C 0.33655 0.43992 0.73921 0.0
C658 C 0.31871 0.44764 0.72433 0.0
C659 C 0.32308 0.47028 0.71746 0.0
C660 C 0.3583 0.45532 0.74655 0.0
H661 H 0.34829 0.50257 0.72074 0.0
C662 C 0.39215 0.54108 0.73729 0.0
O663 O 0.44892 0.53848 0.6995 0.0
O664 O 0.41452 0.51635 0.68266 0.0
N665 N 0.39776 0.4644 0.76573 0.0
C666 C 0.41698 0.45954 0.77986 0.0
C667 C 0.41548 0.43767 0.78851 0.0
C668 C 0.39405 0.4212 0.78299 0.0
C669 C 0.37443 0.42664 0.76861 0.0
C670 C 0.37702 0.44867 0.76041 0.0
H671 H 0.43327 0.47232 0.78469 0.0
O672 O 0.44009 0.48806 0.70982 0.0
O673 O 0.40703 0.49074 0.7265 0.0
O674 O 0.4486 0.52193 0.748 0.0
O675 O 0.42334 0.50971 0.77417 0.0
C676 C 0.35236 0.4111 0.76214 0.0
C677 C 0.33357 0.4176 0.74715 0.0
H678 H 0.30161 0.43634 0.71807 0.0
H679 H 0.30942 0.47635 0.70595 0.0
H680 H 0.43069 0.43361 0.79963 0.0
H681 H 0.39289 0.40442 0.78986 0.0
H682 H 0.34973 0.39403 0.76842 0.0
H683 H 0.31685 0.40536 0.74197 0.0
Mn684 Mn 0.65264 1.00178 0.71993 0.0
Mn685 Mn 0.70086 0.04031 0.74706 0.0
C686 C 0.65853 0.03952 0.70984 0.0
C687 C 0.63532 0.97336 0.69047 0.0
C688 C 0.65459 0.02539 0.76885 0.0
O689 O 0.67386 0.98124 0.73565 0.0
O690 O 0.70588 1.00849 0.75068 0.0
C691 C 0.73662 0.0304 0.71582 0.0
N692 N 0.72531 0.04576 0.72651 0.0
C693 C 0.75053 0.0776 0.71169 0.0
C694 C 0.76259 0.06213 0.70063 0.0
C695 C 0.75548 0.03839 0.70258 0.0
C696 C 0.7316 0.06857 0.72428 0.0
H697 H 0.73131 1.01217 0.71746 0.0
C698 C 0.69506 0.98758 0.74669 0.0
O699 O 0.62609 0.97497 0.71007 0.0
O700 O 0.65521 0.98765 0.68847 0.0
N701 N 0.69966 0.07228 0.74569 0.0
C702 C 0.68626 0.08491 0.75753 0.0
C703 C 0.69152 0.10901 0.75794 0.0
C704 C 0.71078 0.11991 0.74662 0.0
C705 C 0.72441 0.1066 0.73465 0.0
C706 C 0.71839 0.08264 0.73494 0.0
H707 H 0.67181 0.0767 0.76673 0.0
O708 O 0.63748 0.02619 0.70495 0.0
O709 O 0.67598 0.0303 0.71981 0.0
O710 O 0.64325 1.01177 0.75166 0.0
O711 O 0.67635 0.03627 0.76915 0.0
C712 C 0.74374 0.11613 0.7225 0.0
C713 C 0.75662 0.10164 0.7108 0.0
H714 H 0.7773 0.06826 0.6906 0.0
H715 H 0.76463 0.02634 0.69406 0.0
H716 H 0.68089 0.11918 0.76717 0.0
H717 H 0.71487 0.13851 0.74711 0.0
H718 H 0.74879 0.1346 0.72194 0.0
H719 H 0.77128 0.10916 0.70132 0.0
Mn720 Mn 0.85032 0.67601 0.05107 0.0
Mn721 Mn 0.83784 0.63119 1.00946 0.0
C722 C 0.80883 0.65561 0.03964 0.0
C723 C 0.85615 0.69291 0.09269 0.0
C724 C 0.84982 0.68139 0.99548 0.0
O725 O 0.88465 0.66403 0.05186 0.0
O726 O 0.87307 0.63527 0.02338 0.0
C727 C 0.844 0.59363 0.04043 0.0
N728 N 0.82987 0.60313 0.02435 0.0
C729 C 0.79615 0.57195 0.02506 0.0
C730 C 0.81041 0.56179 0.04149 0.0
C731 C 0.83443 0.5727 0.04922 0.0
C732 C 0.80671 0.59277 1.01681 0.0
H733 H 0.86242 0.60196 0.0466 0.0
C734 C 0.8894 0.64676 0.03923 0.0
O735 O 0.86291 0.70441 0.07518 0.0
O736 O 0.84798 0.67132 0.0865 0.0
N737 N 0.80477 0.62462 0.99511 0.0
C738 C 0.79299 0.63714 0.98003 0.0
C739 C 0.76864 0.62877 0.971 0.0
C740 C 0.75663 0.60762 0.97754 0.0
C741 C 0.76913 0.59498 0.99297 0.0
C742 C 0.79348 0.60406 1.0012 0.0
H743 H 0.80201 0.65348 0.97503 0.0
O744 O 0.81372 0.67688 0.04806 0.0
O745 O 0.82836 0.64736 0.03697 0.0
O746 O 0.85327 0.69043 1.01702 0.0
O747 O 0.84482 0.65944 0.99145 0.0
C748 C 0.75824 0.57391 1.00082 0.0
C749 C 0.77173 0.56242 1.01687 0.0
H750 H 0.80305 0.54571 0.04842 0.0
H751 H 0.84552 0.56503 0.06199 0.0
H752 H 0.7591 0.63866 0.95914 0.0
H753 H 0.73775 0.60135 0.97075 0.0
H754 H 0.7394 0.56654 0.99484 0.0
H755 H 0.76307 0.54637 0.02298 0.0
Mn756 Mn 0.03414 0.61573 0.83767 0.0
Mn757 Mn 0.99092 0.59458 0.87067 0.0
C758 C 1.02757 0.5771 0.84483 0.0
C759 C 0.04562 0.62513 0.80167 0.0
C760 C 0.03903 0.62482 0.89032 0.0
O761 O 1.01285 0.64001 0.83751 0.0
O762 O 0.98212 0.62162 0.85547 0.0
C763 C 0.9497 0.57872 0.83335 0.0
N764 N 0.96501 0.57407 0.8518 0.0
C765 C 0.94549 0.53425 0.84853 0.0
C766 C 0.92944 0.53864 0.82959 0.0
C767 C 0.93161 0.56096 0.82193 0.0
C768 C 0.96321 0.55262 0.85919 0.0
H769 H 0.95133 0.59582 0.82735 0.0
C770 C 0.99159 0.638 0.84376 0.0
O771 O 0.05829 0.635 0.82096 0.0
O772 O 1.02611 0.61022 0.80337 0.0
N773 N 0.99739 0.56782 0.88567 0.0
C774 C 1.01508 0.56614 0.90335 0.0
C775 C 1.0157 0.54483 0.91278 0.0
C776 C 0.99806 0.52551 0.90405 0.0
C777 C 0.97995 0.52766 0.88592 0.0
C778 C 0.9802 0.54935 0.87727 0.0
H779 H 1.02863 0.58093 0.91025 0.0
O780 O 0.04817 0.58683 0.83861 0.0
O781 O 1.01191 0.59038 0.84671 0.0
O782 O 0.04845 0.62543 0.87125 0.0
O783 O 1.01719 0.61498 0.8918 0.0
C784 C 0.96192 0.50905 0.87585 0.0
C785 C 0.9448 0.5123 0.85705 0.0
H786 H 0.9155 0.52498 0.82069 0.0
H787 H 0.91937 0.56446 0.80724 0.0
H788 H 1.02975 0.5433 0.92675 0.0
H789 H 0.99869 0.50908 0.91127 0.0
H790 H 0.96128 0.49209 0.88218 0.0
H791 H 0.93132 0.49776 0.84915 0.0
Mn792 Mn 0.84989 0.40013 0.55359 0.0
Mn793 Mn 0.86377 0.4458 0.52147 0.0
C794 C 0.88999 0.41503 0.54965 0.0
C795 C 0.84335 0.3866 0.59074 0.0
C796 C 0.84258 0.39747 0.49936 0.0
O797 O 0.81917 0.41409 0.55156 0.0
O798 O 0.83159 0.44555 0.53232 0.0
C799 C 0.86861 0.48334 0.55878 0.0
N800 N 0.87829 0.47251 0.54168 0.0
C801 C 0.91533 0.50064 0.54808 0.0
C802 C 0.90571 0.51216 0.56567 0.0
C803 C 0.88229 0.50342 0.5711 0.0
C804 C 0.90088 0.48066 0.53645 0.0
H805 H 0.85061 0.47671 0.56298 0.0
C806 C 0.81607 0.43306 0.54317 0.0
O807 O 0.83495 0.3738 0.57145 0.0
O808 O 0.85489 0.40707 0.58829 0.0
N809 N 0.89478 0.44826 0.51025 0.0
C810 C 0.90194 0.43436 0.49381 0.0
C811 C 0.92523 0.4403 0.48689 0.0
C812 C 0.94081 0.46057 0.49674 0.0
C813 C 0.93296 0.4747 0.51348 0.0
C814 C 0.90957 0.46789 0.51971 0.0
H815 H 0.88999 0.41885 0.48605 0.0
O816 O 0.88394 0.39401 0.55518 0.0
O817 O 0.87241 0.42627 0.54615 0.0
O818 O 0.84211 0.38714 0.51848 0.0
O819 O 0.84955 0.41918 0.49908 0.0
C820 C 0.94758 0.49508 0.5245 0.0
C821 C 0.93883 0.50797 0.54188 0.0
H822 H 0.91622 0.52763 0.57524 0.0
H823 H 0.87479 0.51216 0.58473 0.0
H824 H 0.93116 0.4293 0.47397 0.0
H825 H 0.9588 0.46503 0.49145 0.0
H826 H 0.96576 0.50078 0.52006 0.0
H827 H 0.95042 0.52336 0.55056 0.0
Mn828 Mn 0.72386 0.57643 0.37297 0.0
Mn829 Mn 0.76682 0.58788 0.41933 0.0
C830 C 0.73791 0.61401 0.38731 0.0
C831 C 0.71265 0.56953 0.33298 0.0
C832 C 0.71492 0.5638 0.42153 0.0
O833 O 0.73883 0.54791 0.37438 0.0
O834 O 0.7717 0.55976 0.40139 0.0
C835 C 0.8123 0.59902 0.39764 0.0
N836 N 0.79629 0.60558 0.41151 0.0
C837 C 0.8203 0.64369 0.419 0.0
C838 C 0.83699 0.63736 0.40473 0.0
C839 C 0.833 0.61492 0.39406 0.0
C840 C 0.80016 0.62701 0.42219 0.0
H841 H 0.80919 0.58186 0.38922 0.0
C842 C 0.75909 0.54531 0.38523 0.0
O843 O 0.69827 0.56141 0.34791 0.0
O844 O 0.73376 0.58157 0.34129 0.0
N845 N 0.76342 0.61528 0.43682 0.0
C846 C 0.74488 0.61905 0.4489 0.0
C847 C 0.74571 0.64088 0.46004 0.0
C848 C 0.76554 0.65863 0.45858 0.0
C849 C 0.78439 0.65437 0.44601 0.0
C850 C 0.78268 0.63221 0.43545 0.0
H851 H 0.72947 0.60554 0.44992 0.0
O852 O 0.71649 0.60816 0.37536 0.0
O853 O 0.74954 0.59729 0.39111 0.0
O854 O 0.70675 0.56787 0.40104 0.0
O855 O 0.73729 0.56965 0.42985 0.0
C856 C 0.80459 0.67137 0.44318 0.0
C857 C 0.82255 0.66602 0.42971 0.0
H858 H 0.85284 0.64966 0.4017 0.0
H859 H 0.84577 0.60992 0.38297 0.0
H860 H 0.73103 0.64406 0.46962 0.0
H861 H 0.76601 0.6755 0.46703 0.0
H862 H 0.80638 0.68867 0.4511 0.0
H863 H 0.83786 0.6793 0.42746 0.0
Tb864 Tb 0.0575 0.05641 0.03902 0.0
Eu865 Eu 0.1062 0.07903 0.07686 0.0
C866 C 0.10697 0.04312 0.03172 0.0
C867 C 0.07705 0.027 0.07849 0.0
C868 C 1.00125 0.06509 1.00829 0.0
C869 C 0.99478 0.10335 0.99896 0.0
C870 C 1.00855 0.08598 0.99819 0.0
C871 C 0.97927 0.06157 1.01809 0.0
C872 C 0.96565 0.07902 1.01907 0.0
C873 C 0.97355 0.10029 1.01002 0.0
C874 C 1.01813 0.0488 1.01237 0.0
O875 O 0.04955 0.08367 0.06183 0.0
O876 O 0.0739 0.08131 0.09564 0.0
O877 O 0.09458 0.10789 0.05708 0.0
O878 O 0.08121 0.08361 0.02456 0.0
C879 C 0.05335 0.08483 0.08477 0.0
O880 O 0.12778 0.08306 0.1114 0.0
O881 O 0.14328 0.09875 0.08194 0.0
O882 O 0.11761 0.06114 0.04584 0.0
O883 O 0.08327 0.03617 0.0282 0.0
O884 O 0.05823 0.0306 0.0645 0.0
O885 O 0.09772 0.04162 0.08238 0.0
C886 C 0.08739 0.10455 0.03444 0.0
O887 O 0.03924 0.054 1.0047 0.0
O888 O 1.0203 0.04209 0.03365 0.0
C889 C 0.16675 0.07645 0.1041 0.0
C890 C 0.19709 0.04447 0.09538 0.0
C891 C 0.17662 0.03818 0.10714 0.0
C892 C 0.1616 0.05393 0.11139 0.0
C893 C 0.18817 0.08321 0.09387 0.0
C894 C 0.20313 0.06739 0.0895 0.0
C895 C 0.14775 0.0909 0.10251 0.0
H896 H 1.00134 0.11956 0.99185 0.0
H897 H 1.02544 0.08938 0.99061 0.0
H898 H 0.97324 0.04572 0.02608 0.0
H899 H 0.94913 0.07602 0.02733 0.0
H900 H 0.17135 0.02067 0.1118 0.0
H901 H 0.14515 0.04795 0.11911 0.0
H902 H 0.19256 0.10035 0.08795 0.0
H903 H 0.21902 0.07292 0.08079 0.0
Tb904 Tb 0.3381 0.84707 0.31185 0.0
Eu905 Eu 0.29826 0.80475 0.28071 0.0
C906 C 0.2894 0.85583 0.29065 0.0
C907 C 0.30249 0.81062 0.33807 0.0
C908 C 0.39259 0.8932 0.33744 0.0
C909 C 0.42445 0.91625 0.3192 0.0
C910 C 0.40334 0.89939 0.31728 0.0
C911 C 0.40388 0.90295 0.35954 0.0
C912 C 0.42485 0.91982 0.36148 0.0
C913 C 0.43496 0.92724 0.34128 0.0
C914 C 0.3686 0.87841 0.33611 0.0
O915 O 0.35576 0.81866 0.30274 0.0
O916 O 0.32483 0.7877 0.30172 0.0
O917 O 0.32712 0.81774 0.25809 0.0
O918 O 0.33953 0.85451 0.27477 0.0
C919 C 0.34771 0.79728 0.30724 0.0
O920 O 0.29009 0.77741 0.25285 0.0
O921 O 0.26036 0.78944 0.26799 0.0
O922 O 0.28894 0.8393 0.27454 0.0
O923 O 0.30285 0.8568 0.31083 0.0
O924 O 0.32138 0.82745 0.33875 0.0
O925 O 0.28967 0.80103 0.31819 0.0
C926 C 0.33609 0.83951 0.25633 0.0
O927 O 0.35171 0.88222 0.3202 0.0
O928 O 0.36788 0.85656 0.33816 0.0
C929 C 0.25167 0.7523 0.24703 0.0
C930 C 0.22443 0.7088 0.23016 0.0
C931 C 0.2478 0.71083 0.24252 0.0
C932 C 0.26132 0.73241 0.2509 0.0
C933 C 0.22816 0.75028 0.23519 0.0
C934 C 0.2146 0.72871 0.22688 0.0
C935 C 0.26659 0.77537 0.25247 0.0
H936 H 0.43201 0.92129 0.30332 0.0
H937 H 0.39493 0.89188 0.30006 0.0
H938 H 0.39578 0.89832 0.37529 0.0
H939 H 0.43218 0.92802 0.37871 0.0
H940 H 0.25562 0.69572 0.24575 0.0
H941 H 0.27946 0.73356 0.25993 0.0
H942 H 0.22055 0.76549 0.23177 0.0
H943 H 0.19668 0.72767 0.21739 0.0
Tb944 Tb 0.57906 0.03908 0.52017 0.0
Eu945 Eu 0.59514 0.05837 0.57441 0.0
C946 C 0.56643 1.00803 0.56147 0.0
C947 C 0.54619 0.07257 0.54629 0.0
C948 C 0.5627 1.00029 0.4664 0.0
C949 C 0.5684 0.96082 0.46737 0.0
C950 C 0.56948 0.98231 0.47886 0.0
C951 C 0.55535 0.99675 0.44216 0.0
C952 C 0.55446 0.97522 0.43053 0.0
C953 C 0.56081 0.95693 0.44306 0.0
C954 C 0.56277 0.02245 0.47891 0.0
O955 O 0.60328 0.07137 0.51742 0.0
O956 O 0.60411 0.08921 0.55397 0.0
O957 O 0.62314 0.03508 0.56608 0.0
O958 O 0.61333 0.02502 0.52655 0.0
C959 C 0.60846 0.08971 0.53213 0.0
O960 O 0.62563 0.07337 0.60058 0.0
O961 O 0.58973 0.06394 0.61122 0.0
O962 O 0.56696 0.02667 0.57483 0.0
O963 O 0.57439 1.00928 0.54095 0.0
O964 O 0.54985 0.05907 0.52818 0.0
O965 O 0.56173 0.07544 0.56579 0.0
C966 C 0.62769 0.02453 0.54645 0.0
O967 O 0.54988 0.02145 0.49645 0.0
O968 O 0.58402 0.03555 0.48451 0.0
C969 C 0.61532 0.0982 0.62936 0.0
C970 C 0.6233 0.14492 0.64584 0.0
C971 C 0.64289 0.13334 0.64537 0.0
C972 C 0.6389 0.11013 0.63741 0.0
C973 C 0.59563 0.10954 0.6307 0.0
C974 C 0.59959 0.13263 0.639 0.0
C975 C 0.61196 0.07505 0.61724 0.0
H976 H 0.5729 0.9471 0.47775 0.0
H977 H 0.57519 0.98478 0.49762 0.0
H978 H 0.55012 1.01056 0.4323 0.0
H979 H 0.54877 0.97291 0.41178 0.0
H980 H 0.66132 0.14238 0.65068 0.0
H981 H 0.65437 0.10174 0.6366 0.0
H982 H 0.57724 0.1009 0.62449 0.0
H983 H 0.58415 0.14118 0.63894 0.0
Tb984 Tb 0.31224 0.30051 0.78501 0.0
Eu985 Eu 0.3628 0.28914 0.80796 0.0
C986 C 0.36128 0.33045 0.77347 0.0
C987 C 0.34126 0.27226 0.75221 0.0
C988 C 0.24811 0.29739 0.78152 0.0
C989 C 0.20445 0.28701 0.77983 0.0
C990 C 0.22493 0.29681 0.76971 0.0
C991 C 0.25072 0.28833 0.80353 0.0
C992 C 0.2304 0.27837 0.81351 0.0
C993 C 0.20703 0.27749 0.80175 0.0
C994 C 0.26986 0.30514 0.77038 0.0
O995 O 0.30428 0.2668 0.79889 0.0
O996 O 0.33467 0.27241 0.82892 0.0
O997 O 0.35453 0.31408 0.83709 0.0
O998 O 0.31575 0.31675 0.82195 0.0
C999 C 0.31319 0.26198 0.81964 0.0
O1000 O 0.38149 0.26183 0.81928 0.0
O1001 O 0.40089 0.29725 0.82281 0.0
O1002 O 0.37435 0.3175 0.78496 0.0
O1003 O 0.33768 0.32805 0.77331 0.0
O1004 O 0.32702 0.28767 0.75342 0.0
O1005 O 0.35309 0.26721 0.772 0.0
C1006 C 0.33393 0.32132 0.83945 0.0
O1007 O 0.28586 0.32147 0.78232 0.0
O1008 O 0.27981 0.28842 0.76288 0.0
C1009 C 0.4217 0.269 0.8101 0.0
C1010 C 0.4569 0.26476 0.78002 0.0
C1011 C 0.46337 0.27769 0.8018 0.0
C1012 C 0.44589 0.27974 0.81674 0.0
C1013 C 0.41555 0.25472 0.78916 0.0
C1014 C 0.43305 0.25251 0.77433 0.0
C1015 C 0.40265 0.27556 0.82301 0.0
H1016 H 0.18664 0.28689 0.77052 0.0
H1017 H 0.22271 0.30358 0.7526 0.0
H1018 H 0.26856 0.28843 0.81276 0.0
H1019 H 0.23306 0.27088 0.83019 0.0
H1020 H 0.48153 0.28756 0.80663 0.0
H1021 H 0.45093 0.29091 0.83274 0.0
H1022 H 0.39697 0.24623 0.78355 0.0
H1023 H 0.42762 0.24213 0.75786 0.0
Tb1024 Tb 0.0863 0.03374 0.52171 0.0
Eu1025 Eu 0.08378 0.06056 0.56934 0.0
C1026 C 0.13557 0.06639 0.54554 0.0
C1027 C 0.08932 1.00452 0.56837 0.0
C1028 C 0.08513 0.01999 0.4574 0.0
C1029 C 0.07548 1.00628 0.41643 0.0
C1030 C 0.08313 1.00248 0.4396 0.0
C1031 C 0.08236 0.04214 0.45154 0.0
C1032 C 0.07446 0.04589 0.42843 0.0
C1033 C 0.06951 0.02758 0.41101 0.0
C1034 C 0.08376 1.01358 0.4815 0.0
O1035 O 0.05008 1.01861 0.53196 0.0
O1036 O 0.0435 0.04757 0.5563 0.0
O1037 O 0.07834 0.089 0.54448 0.0
O1038 O 0.08388 0.06984 0.51053 0.0
C1039 C 0.03514 0.02783 0.544 0.0
O1040 O 0.06537 0.06685 0.59995 0.0
O1041 O 0.10137 0.08574 0.59778 0.0
O1042 O 0.12256 0.07419 0.56079 0.0
O1043 O 0.12561 0.0484 0.5309 0.0
O1044 O 0.0901 1.00517 0.54536 0.0
O1045 O 0.08842 0.02393 0.58074 0.0
C1046 C 0.08109 0.0893 0.52192 0.0
O1047 O 0.10359 1.01799 0.49624 0.0
O1048 O 0.06533 0.01915 0.49068 0.0
C1049 C 0.09298 0.07504 0.63468 0.0
C1050 C 0.11869 0.06501 0.67629 0.0
C1051 C 0.11829 0.08793 0.67146 0.0
C1052 C 0.10547 0.0929 0.6508 0.0
C1053 C 0.09236 0.05209 0.63997 0.0
C1054 C 0.10502 0.04709 0.66078 0.0
C1055 C 0.08432 0.08058 0.61109 0.0
H1056 H 0.07174 0.99185 0.40335 0.0
H1057 H 0.08513 0.98528 0.44389 0.0
H1058 H 0.08391 0.05586 0.46513 0.0
H1059 H 0.07023 0.06253 0.42457 0.0
H1060 H 0.12844 0.10201 0.68338 0.0
H1061 H 0.1063 0.11069 0.64685 0.0
H1062 H 0.08305 0.03805 0.62757 0.0
H1063 H 0.10513 0.0293 0.66416 0.0
Tb1064 Tb 0.32231 0.78181 0.8032 0.0
Eu1065 Eu 0.34444 0.83196 0.78769 0.0
C1066 C 0.32361 0.82524 0.83858 0.0
C1067 C 0.28588 0.80972 0.77557 0.0
C1068 C 0.31253 0.71957 0.80086 0.0
C1069 C 0.31131 0.67848 0.79987 0.0
C1070 C 0.30435 0.69819 0.80929 0.0
C1071 C 0.32739 0.72109 0.78281 0.0
C1072 C 0.33407 0.70152 0.77322 0.0
C1073 C 0.32645 0.68004 0.78187 0.0
C1074 C 0.30648 0.7406 0.81107 0.0
O1075 O 0.32781 0.77676 0.76603 0.0
O1076 O 0.35456 0.80905 0.75977 0.0
O1077 O 0.37845 0.82088 0.80565 0.0
O1078 O 0.36186 0.78498 0.81576 0.0
C1079 C 0.34229 0.78853 0.75267 0.0
O1080 O 0.34534 0.85831 0.76248 0.0
O1081 O 0.36831 0.86532 0.79574 0.0
O1082 O 0.32948 0.83891 0.82195 0.0
O1083 O 0.32078 0.80278 0.83514 0.0
O1084 O 0.28912 0.79607 0.79273 0.0
O1085 O 0.30502 0.82315 0.76908 0.0
C1086 C 0.38084 0.80187 0.81589 0.0
O1087 O 0.32432 0.75399 0.82411 0.0
O1088 O 0.29522 0.75213 0.79631 0.0
C1089 C 0.34863 0.89422 0.78281 0.0
C1090 C 0.33037 0.93091 0.80233 0.0
C1091 C 0.35437 0.93432 0.7968 0.0
C1092 C 0.36347 0.916 0.7871 0.0
C1093 C 0.32445 0.89102 0.78752 0.0
C1094 C 0.31539 0.90919 0.79715 0.0
C1095 C 0.359 0.87404 0.77731 0.0
H1096 H 0.30538 0.6622 0.80709 0.0
H1097 H 0.29297 0.6968 0.82335 0.0
H1098 H 0.33413 0.73748 0.77628 0.0
H1099 H 0.34536 0.7033 0.75911 0.0
H1100 H 0.36622 0.95095 0.80049 0.0
H1101 H 0.3823 0.91859 0.7839 0.0
H1102 H 0.31289 0.87416 0.78487 0.0
H1103 H 0.297 0.90588 0.80164 0.0
Tb1104 Tb 0.59036 0.04841 0.06254 0.0
Eu1105 Eu 0.56521 0.06047 1.01297 0.0
C1106 C 0.58569 1.01114 1.01695 0.0
C1107 C 0.62249 0.07535 0.02794 0.0
C1108 C 0.60351 0.051 0.12524 0.0
C1109 C 0.61366 0.06103 0.16707 0.0
C1110 C 0.61855 0.05044 0.14623 0.0
C1111 C 0.58374 0.06234 0.12516 0.0
C1112 C 0.57895 0.07297 0.14578 0.0
C1113 C 0.59373 0.07234 0.167 0.0
C1114 C 0.60896 0.04154 0.10286 0.0
O1115 O 0.58485 0.08468 0.07077 0.0
O1116 O 0.55835 0.08957 0.03908 0.0
O1117 O 0.53751 0.03491 0.02685 0.0
O1118 O 0.5516 0.04082 0.06579 0.0
C1119 C 0.57045 0.09746 0.06001 0.0
O1120 O 0.55703 0.08524 0.98789 0.0
O1121 O 0.54137 0.04937 0.98019 0.0
O1122 O 0.58153 0.02798 1.00338 0.0
O1123 O 0.58755 1.01526 0.04021 0.0
O1124 O 0.62093 0.05947 0.04307 0.0
O1125 O 0.60322 0.07969 1.01555 0.0
C1126 C 0.53496 0.03129 0.04866 0.0
O1127 O 0.5911 0.0272 0.09072 0.0
O1128 O 0.61908 0.05695 0.08991 0.0
C1129 C 0.55399 0.07004 0.94891 0.0
C1130 C 0.5712 0.06609 0.90513 0.0
C1131 C 0.5461 0.06194 0.90664 0.0
C1132 C 0.53755 0.06395 0.92845 0.0
C1133 C 0.579 0.07459 0.94738 0.0
C1134 C 0.58752 0.07273 0.92568 0.0
C1135 C 0.54531 0.06954 0.97198 0.0
H1136 H 0.62524 0.06017 0.18324 0.0
H1137 H 0.63405 0.04197 0.14646 0.0
H1138 H 0.57213 0.06323 0.10903 0.0
H1139 H 0.56378 0.08191 0.14503 0.0
H1140 H 0.53316 0.05687 0.89104 0.0
H1141 H 0.51819 0.06018 0.92942 0.0
H1142 H 0.59201 0.07891 0.96305 0.0
H1143 H 0.60696 0.07557 0.92515 0.0
Tb1144 Tb 0.34498 0.31744 0.30587 0.0
Eu1145 Eu 0.32013 0.27013 0.27824 0.0
C1146 C 0.34426 0.27102 0.33459 0.0
C1147 C 0.37811 0.29279 0.27287 0.0
C1148 C 0.34412 0.37553 0.32563 0.0
C1149 C 0.3156 0.39502 0.3438 0.0
C1150 C 0.33422 0.38222 0.34572 0.0
C1151 C 0.33624 0.38329 0.30387 0.0
C1152 C 0.31765 0.39595 0.30196 0.0
C1153 C 0.30654 0.40123 0.32172 0.0
C1154 C 0.35852 0.35699 0.32651 0.0
O1155 O 0.33393 0.32878 0.27023 0.0
O1156 O 0.31151 0.29581 0.25096 0.0
O1157 O 0.28824 0.27839 0.29679 0.0
O1158 O 0.30603 0.31427 0.31313 0.0
C1159 C 0.32118 0.31787 0.25079 0.0
O1160 O 0.30935 0.24852 0.24526 0.0
O1161 O 0.30326 0.23393 0.27799 0.0
O1162 O 0.33366 0.25894 0.3149 0.0
O1163 O 0.35167 0.29356 0.33407 0.0
O1164 O 0.37744 0.30862 0.29004 0.0
O1165 O 0.35865 0.27659 0.26665 0.0
C1166 C 0.28719 0.29685 0.31026 0.0
O1167 O 0.34925 0.33913 0.33689 0.0
O1168 O 0.36599 0.35077 0.30697 0.0
C1169 C 0.32107 0.21282 0.25189 0.0
C1170 C 0.35981 0.1902 0.26402 0.0
C1171 C 0.36303 0.2091 0.2502 0.0
C1172 C 0.34376 0.22028 0.24409 0.0
C1173 C 0.31692 0.19187 0.2624 0.0
C1174 C 0.33618 0.18059 0.2684 0.0
C1175 C 0.30539 0.22964 0.25597 0.0
H1176 H 0.30741 0.39894 0.35934 0.0
H1177 H 0.33982 0.37634 0.36266 0.0
H1178 H 0.34342 0.37851 0.28799 0.0
H1179 H 0.31142 0.401 0.28481 0.0
H1180 H 0.38093 0.21686 0.24635 0.0
H1181 H 0.34748 0.23624 0.23566 0.0
H1182 H 0.29955 0.18568 0.26842 0.0
H1183 H 0.33306 0.1656 0.27846 0.0
Tb1184 Tb 0.58233 0.53625 1.01657 0.0
Eu1185 Eu 0.58397 0.56022 0.06656 0.0
C1186 C 0.63343 0.56529 0.04217 0.0
C1187 C 0.5863 0.50415 0.06193 0.0
C1188 C 0.5817 0.52742 0.9523 0.0
C1189 C 0.58456 0.51996 0.91091 0.0
C1190 C 0.58965 0.51499 0.93429 0.0
C1191 C 0.57099 0.54641 0.94697 0.0
C1192 C 0.56524 0.55095 0.9237 0.0
C1193 C 0.57065 0.53691 0.9052 0.0
C1194 C 0.58063 0.51836 0.97556 0.0
O1195 O 0.54612 0.52174 0.02652 0.0
O1196 O 0.54291 0.5484 0.05528 0.0
O1197 O 0.58269 0.59087 0.04293 0.0
O1198 O 0.57549 0.57141 1.00677 0.0
C1199 C 0.5329 0.53009 0.04114 0.0
O1200 O 0.56983 0.56305 0.1002 0.0
O1201 O 0.60021 0.58826 0.09283 0.0
O1202 O 0.62439 0.56207 0.06221 0.0
O1203 O 0.61893 0.55878 0.0224 0.0
O1204 O 0.58791 0.50676 0.03913 0.0
O1205 O 0.58515 0.52252 0.07569 0.0
C1206 C 0.57904 0.59135 1.01975 0.0
O1207 O 0.60043 0.52247 0.99043 0.0
O1208 O 0.56168 0.52154 0.98543 0.0
C1209 C 0.60092 0.57658 0.13098 0.0
C1210 C 0.63016 0.5709 0.17226 0.0
C1211 C 0.62298 0.59209 0.16867 0.0
C1212 C 0.6084 0.59489 0.14813 0.0
C1213 C 0.6081 0.55542 0.13448 0.0
C1214 C 0.62251 0.55256 0.15504 0.0
C1215 C 0.58712 0.58002 0.10878 0.0
H1216 H 0.59017 0.50946 0.89733 0.0
H1217 H 0.59836 0.50051 0.93812 0.0
H1218 H 0.56499 0.55652 0.96064 0.0
H1219 H 0.55462 0.56419 0.92051 0.0
H1220 H 0.62844 0.60642 0.18182 0.0
H1221 H 0.60317 0.61139 0.14553 0.0
H1222 H 0.60282 0.54119 0.1212 0.0
H1223 H 0.628 0.53613 0.1573 0.0
Tb1224 Tb 0.8281 0.27961 0.29964 0.0
Eu1225 Eu 0.84839 0.33094 0.28674 0.0
C1226 C 0.82658 0.32255 0.33498 0.0
C1227 C 0.79042 0.30795 0.27239 0.0
C1228 C 0.82159 0.21792 0.30225 0.0
C1229 C 0.82086 0.17713 0.30386 0.0
C1230 C 0.81306 0.19703 0.31145 0.0
C1231 C 0.83785 0.21886 0.28542 0.0
C1232 C 0.84553 0.19906 0.27777 0.0
C1233 C 0.83724 0.17802 0.287 0.0
C1234 C 0.814 0.23898 0.31014 0.0
O1235 O 0.83395 0.27444 0.26297 0.0
O1236 O 0.85775 0.30884 0.25712 0.0
O1237 O 0.87892 0.3206 0.3115 0.0
O1238 O 0.86825 0.28182 0.30421 0.0
C1239 C 0.84715 0.2877 0.24976 0.0
O1240 O 0.85235 0.35826 0.26262 0.0
O1241 O 0.87201 0.36399 0.29757 0.0
O1242 O 0.8278 0.33589 0.31749 0.0
O1243 O 0.82927 0.30108 0.33211 0.0
O1244 O 0.79401 0.29081 0.2855 0.0
O1245 O 0.80866 0.3247 0.26989 0.0
C1246 C 0.88443 0.30004 0.31331 0.0
O1247 O 0.83081 0.25379 0.32295 0.0
O1248 O 0.80267 0.24874 0.29373 0.0
C1249 C 0.85435 0.39383 0.28345 0.0
C1250 C 0.83473 0.43043 0.30135 0.0
C1251 C 0.85976 0.43326 0.29964 0.0
C1252 C 0.86952 0.41501 0.29074 0.0
C1253 C 0.82927 0.39129 0.28429 0.0
C1254 C 0.81954 0.40944 0.29308 0.0
C1255 C 0.86478 0.37344 0.27876 0.0
H1256 H 0.8144 0.16116 0.31146 0.0
H1257 H 0.80056 0.19616 0.32454 0.0
H1258 H 0.84464 0.23495 0.27822 0.0
H1259 H 0.85784 0.20022 0.26451 0.0
H1260 H 0.87183 0.44933 0.30575 0.0
H1261 H 0.88896 0.41709 0.29052 0.0
H1262 H 0.81731 0.37489 0.27926 0.0
H1263 H 0.80027 0.40657 0.29456 0.0
Tb1264 Tb 0.09779 0.54351 0.55842 0.0
Eu1265 Eu 0.0677 0.55394 0.51054 0.0
C1266 C 0.08974 0.50487 0.51401 0.0
C1267 C 0.12402 0.57338 0.5227 0.0
C1268 C 0.11446 0.5493 0.61968 0.0
C1269 C 0.12556 0.56533 0.65998 0.0
C1270 C 0.13103 0.55327 0.6402 0.0
C1271 C 0.09271 0.55763 0.61898 0.0
C1272 C 0.08749 0.56988 0.63829 0.0
C1273 C 0.10362 0.57366 0.65912 0.0
C1274 C 0.1201 0.53907 0.59775 0.0
O1275 O 0.09093 0.57905 0.56772 0.0
O1276 O 0.06366 0.58423 0.53673 0.0
O1277 O 0.04425 0.52528 0.52511 0.0
O1278 O 0.05956 0.53374 0.5635 0.0
C1279 C 0.07615 0.5918 0.55759 0.0
O1280 O 0.03749 0.56717 0.49184 0.0
O1281 O 0.06146 0.5505 0.47268 0.0
O1282 O 0.08193 0.52039 0.50062 0.0
O1283 O 0.09547 0.51013 0.53702 0.0
O1284 O 0.12457 0.55544 0.53505 0.0
O1285 O 0.10339 0.57787 0.51335 0.0
C1286 C 0.04308 0.52221 0.54724 0.0
O1287 O 0.10278 0.52321 0.58687 0.0
O1288 O 0.12836 0.55417 0.58356 0.0
C1289 C 0.04518 0.57906 0.45397 0.0
C1290 C 0.05607 0.5961 0.41111 0.0
C1291 C 1.03223 0.58527 0.4136 0.0
C1292 C 1.02692 0.57647 0.4349 0.0
C1293 C 0.06747 0.59363 0.45283 0.0
C1294 C 0.07294 0.60207 0.43146 0.0
C1295 C 0.04357 0.56176 0.47129 0.0
H1296 H 0.13829 0.56799 0.67588 0.0
H1297 H 0.14812 0.54729 0.64084 0.0
H1298 H 0.07984 0.55512 0.60323 0.0
H1299 H 0.0708 0.5766 0.63674 0.0
H1300 H 1.01854 0.58116 0.39845 0.0
H1301 H 1.00949 0.56549 0.43561 0.0
H1302 H 0.08173 0.59596 0.46753 0.0
H1303 H 0.09142 0.61057 0.43042 0.0
Tb1304 Tb 0.81326 0.79652 0.2919 0.0
Eu1305 Eu 0.86514 0.78765 0.3133 0.0
C1306 C 0.86092 0.82679 0.27781 0.0
C1307 C 0.8438 0.76912 0.25868 0.0
C1308 C 0.74935 0.799 0.28869 0.0
C1309 C 0.70562 0.78938 0.28646 0.0
C1310 C 0.72644 0.79616 0.27563 0.0
C1311 C 0.75134 0.79603 0.31285 0.0
C1312 C 0.73061 0.7891 0.32365 0.0
C1313 C 0.70756 0.7851 0.31043 0.0
C1314 C 0.77105 0.80129 0.27675 0.0
O1315 O 0.80587 0.77255 0.31879 0.0
O1316 O 0.83851 0.75558 0.31639 0.0
O1317 O 0.84966 0.80267 0.3452 0.0
O1318 O 0.82117 0.81969 0.32525 0.0
C1319 C 0.81717 0.75554 0.32306 0.0
O1320 O 0.89061 0.76429 0.31892 0.0
O1321 O 0.89929 0.79867 0.33604 0.0
O1322 O 0.87377 0.82064 0.296 0.0
O1323 O 0.83786 0.81791 0.27213 0.0
O1324 O 0.82231 0.77157 0.26485 0.0
O1325 O 0.86356 0.77699 0.27366 0.0
C1326 C 0.83405 0.81688 0.34539 0.0
O1327 O 0.7885 0.81854 0.28449 0.0
O1328 O 0.77904 0.78213 0.2742 0.0
C1329 C 0.9312 0.78351 0.32137 0.0
C1330 C 0.97158 0.79049 0.29627 0.0
C1331 C 0.96462 0.8092 0.30795 0.0
C1332 C 0.94464 0.80576 0.3204 0.0
C1333 C 0.93924 0.76464 0.31116 0.0
C1334 C 0.9592 0.76811 0.29858 0.0
C1335 C 0.90751 0.78013 0.33047 0.0
H1336 H 0.68806 0.78687 0.27595 0.0
H1337 H 0.72469 0.79823 0.25691 0.0
H1338 H 0.769 0.79791 0.32311 0.0
H1339 H 0.73276 0.78575 0.34205 0.0
H1340 H 0.97374 0.82667 0.30634 0.0
H1341 H 0.93907 0.82068 0.32823 0.0
H1342 H 0.92937 0.74729 0.31192 0.0
H1343 H 0.96448 0.75338 0.29003 0.0
Tb1344 Tb 0.83292 0.34158 0.80879 0.0
Eu1345 Eu 0.79336 0.29764 0.77991 0.0
C1346 C 0.7828 0.34809 0.7892 0.0
C1347 C 0.80041 0.30523 0.83744 0.0
C1348 C 0.88683 0.39005 0.82515 0.0
C1349 C 0.90707 0.42488 0.80989 0.0
C1350 C 0.88606 0.40877 0.81128 0.0
C1351 C 0.90923 0.3874 0.83702 0.0
C1352 C 0.93032 0.4035 0.83556 0.0
C1353 C 0.9294 0.42268 0.82231 0.0
C1354 C 0.86422 0.37467 0.82926 0.0
O1355 O 0.85097 0.31356 0.79936 0.0
O1356 O 0.82141 0.28192 0.80048 0.0
O1357 O 0.82047 0.31065 0.75549 0.0
O1358 O 0.83281 0.34776 0.77141 0.0
C1359 C 0.8441 0.29233 0.80493 0.0
O1360 O 0.78468 0.26928 0.75317 0.0
O1361 O 0.75529 0.28127 0.76908 0.0
O1362 O 0.78256 0.33152 0.77321 0.0
O1363 O 0.79718 0.35003 0.80892 0.0
O1364 O 0.81903 0.32216 0.83711 0.0
O1365 O 0.78672 0.29524 0.81812 0.0
C1366 C 0.82953 0.33234 0.75339 0.0
O1367 O 0.84412 0.37706 0.8169 0.0
O1368 O 0.86519 0.35313 0.83158 0.0
C1369 C 0.74602 0.24412 0.74746 0.0
C1370 C 0.71801 0.20193 0.72737 0.0
C1371 C 0.74228 0.20328 0.73714 0.0
C1372 C 0.75618 0.22419 0.74708 0.0
C1373 C 0.72154 0.24263 0.73853 0.0
C1374 C 0.70761 0.22171 0.72864 0.0
C1375 C 0.76125 0.26703 0.75354 0.0
H1376 H 0.9055 0.43966 0.79991 0.0
H1377 H 0.86909 0.4115 0.8021 0.0
H1378 H 0.91032 0.37321 0.848 0.0
H1379 H 0.94724 0.40117 0.84517 0.0
H1380 H 0.75062 0.18819 0.7369 0.0
H1381 H 0.77504 0.22488 0.75377 0.0
H1382 H 0.71345 0.25788 0.73833 0.0
H1383 H 0.68898 0.2212 0.72125 0.0
Tb1384 Tb 0.84598 0.81794 0.81234 0.0
Eu1385 Eu 0.82045 0.7709 0.78457 0.0
C1386 C 0.84376 0.77102 0.84089 0.0
C1387 C 0.87836 0.79209 0.77869 0.0
C1388 C 0.8557 0.87877 0.82762 0.0
C1389 C 0.83039 0.90616 0.83722 0.0
C1390 C 0.84494 0.89039 0.84428 0.0
C1391 C 0.8538 0.88497 0.80429 0.0
C1392 C 0.83921 0.90058 0.79723 0.0
C1393 C 0.82635 0.91047 0.81338 0.0
C1394 C 0.86332 0.85696 0.83314 0.0
O1395 O 0.83444 0.83067 0.77737 0.0
O1396 O 0.81602 0.79704 0.75647 0.0
O1397 O 0.7891 0.78003 0.80385 0.0
O1398 O 0.80708 0.81618 0.81918 0.0
C1399 C 0.82397 0.81951 0.7571 0.0
O1400 O 0.80339 0.75111 0.75173 0.0
O1401 O 0.80633 0.73413 0.78377 0.0
O1402 O 0.83289 0.75913 0.8212 0.0
O1403 O 0.85157 0.79353 0.84043 0.0
O1404 O 0.87702 0.80916 0.79422 0.0
O1405 O 0.85948 0.77497 0.77389 0.0
C1406 C 0.78808 0.79892 0.81674 0.0
O1407 O 0.84669 0.84205 0.84071 0.0
O1408 O 0.87383 0.84729 0.81737 0.0
C1409 C 0.81568 0.71503 0.75088 0.0
C1410 C 0.85204 0.68846 0.75433 0.0
C1411 C 0.82805 0.67861 0.75737 0.0
C1412 C 0.80997 0.69193 0.75585 0.0
C1413 C 0.83831 0.72336 0.74347 0.0
C1414 C 0.85645 0.71016 0.74524 0.0
C1415 C 0.80233 0.73144 0.76099 0.0
H1416 H 0.82121 0.91395 0.85019 0.0
H1417 H 0.84617 0.8859 0.86237 0.0
H1418 H 0.86188 0.87636 0.79099 0.0
H1419 H 0.83651 0.90336 0.77871 0.0
H1420 H 0.82392 0.66157 0.7636 0.0
H1421 H 0.79254 0.68511 0.76143 0.0
H1422 H 0.84304 0.74106 0.7392 0.0
H1423 H 0.8746 0.71817 0.74237 0.0
Tb1424 Tb 0.55655 0.55686 0.54374 0.0
Eu1425 Eu 0.61126 0.57417 0.57545 0.0
C1426 C 0.60034 0.53697 0.52871 0.0
C1427 C 0.57765 0.524 0.57901 0.0
C1428 C 0.49952 0.57287 0.52205 0.0
C1429 C 0.46522 0.58932 0.53218 0.0
C1430 C 0.47747 0.57085 0.53159 0.0
C1431 C 0.50889 0.59363 0.51267 0.0
C1432 C 0.49648 0.61203 0.51303 0.0
C1433 C 0.47468 0.61017 0.52308 0.0
C1434 C 0.51385 0.55439 0.52463 0.0
O1435 O 0.56007 0.58631 0.56854 0.0
O1436 O 0.58316 0.57742 0.59947 0.0
O1437 O 0.60163 0.60424 0.556 0.0
O1438 O 0.57982 0.58089 0.52516 0.0
C1439 C 0.56307 0.58356 0.59091 0.0
O1440 O 0.63688 0.57632 0.60738 0.0
O1441 O 0.64941 0.59005 0.57588 0.0
O1442 O 0.61509 0.55275 0.54311 0.0
O1443 O 0.5765 0.53381 0.52727 0.0
O1444 O 0.5583 0.52949 0.56737 0.0
O1445 O 0.59933 0.53704 0.5812 0.0
C1446 C 0.59127 0.60124 0.53409 0.0
O1447 O 0.53245 0.55551 0.5128 0.0
O1448 O 0.51916 0.54945 0.54624 0.0
C1449 C 0.67234 0.56615 0.59553 0.0
C1450 C 0.70347 0.5349 0.58825 0.0
C1451 C 0.7128 0.55682 0.59968 0.0
C1452 C 0.69729 0.57249 0.60314 0.0
C1453 C 0.66309 0.54394 0.58504 0.0
C1454 C 0.67844 0.52853 0.58139 0.0
C1455 C 0.65566 0.5826 0.59624 0.0
H1456 H 0.44829 0.58729 0.53977 0.0
H1457 H 0.47005 0.55514 0.53918 0.0
H1458 H 0.52611 0.59592 0.5056 0.0
H1459 H 0.50429 0.62793 0.50603 0.0
H1460 H 0.73212 0.56212 0.60507 0.0
H1461 H 0.70481 0.5896 0.61113 0.0
H1462 H 0.64399 0.53867 0.57893 0.0
H1463 H 0.67076 0.51168 0.57277 0.0
Tb1464 Tb 0.07273 0.53145 0.03144 0.0
Eu1465 Eu 0.09938 0.56173 0.07887 0.0
C1466 C 0.0683 0.51088 0.08073 0.0
C1467 C 0.04454 0.56938 0.05567 0.0
C1468 C 0.05939 0.49498 0.9748 0.0
C1469 C 0.04572 0.46667 0.94186 0.0
C1470 C 0.04167 0.48482 0.95643 0.0
C1471 C 0.08188 0.48789 0.9776 0.0
C1472 C 0.086 0.46977 0.96298 0.0
C1473 C 0.06761 0.4584 0.94551 0.0
C1474 C 0.05319 0.51109 0.99228 0.0
O1475 O 0.10247 0.55783 0.02358 0.0
O1476 O 0.09823 0.58542 0.05037 0.0
O1477 O 0.12821 0.54188 0.06558 0.0
O1478 O 0.10463 0.51408 0.03926 0.0
C1479 C 0.10376 0.5796 0.02985 0.0
O1480 O 0.13295 0.58267 0.09614 0.0
O1481 O 0.10161 0.5757 0.1152 0.0
O1482 O 0.08547 0.52735 0.0909 0.0
O1483 O 0.05866 0.51069 0.05885 0.0
O1484 O 0.04669 0.55516 0.03761 0.0
O1485 O 0.06162 0.57299 0.07417 0.0
C1486 C 0.12586 0.52247 0.05201 0.0
O1487 O 0.04995 0.50301 1.01253 0.0
O1488 O 0.06612 0.53175 0.99466 0.0
C1489 C 0.12812 0.61153 0.12344 0.0
C1490 C 0.13998 0.65884 0.13704 0.0
C1491 C 0.12413 0.65071 0.11646 0.0
C1492 C 0.11825 0.62723 0.10971 0.0
C1493 C 0.14362 0.61944 0.14416 0.0
C1494 C 0.14948 0.64296 0.15095 0.0
C1495 C 0.1237 0.58716 0.11531 0.0
H1496 H 1.03105 0.45819 0.9288 0.0
H1497 H 1.02421 0.49014 0.9541 0.0
H1498 H 0.0958 0.49568 0.99169 0.0
H1499 H 0.10319 0.46404 0.96599 0.0
H1500 H 0.11622 0.66251 0.1056 0.0
H1501 H 0.1063 0.62134 0.09359 0.0
H1502 H 0.15155 0.6075 0.15482 0.0
H1503 H 0.16188 0.64879 0.16674 0.0
H1504 H 1.02238 0.17375 0.92503 0.0
H1505 H 0.0889 0.15003 0.04867 0.0
H1506 H 0.05897 0.22933 0.97518 0.0
H1507 H 0.07519 0.10215 0.98721 0.0
H1508 H 0.0753 0.17923 0.0242 0.0
H1509 H 0.03743 0.14644 0.95053 0.0
C1510 C 0.03346 0.18019 0.94148 0.0
C1511 C 0.03955 0.20381 0.94796 0.0
C1512 C 0.07553 0.16235 1.01617 0.0
C1513 C 0.05696 0.17272 0.97714 0.0
C1514 C 0.0834 0.14576 0.03005 0.0
C1515 C 0.08303 0.1236 0.02 0.0
C1516 C 0.06705 0.15649 0.99228 0.0
C1517 C 0.07561 0.11893 0.9958 0.0
C1518 C 0.04218 0.16463 0.95595 0.0
C1519 C 0.05397 0.21123 0.96949 0.0
N1520 N 0.06769 0.13514 0.98286 0.0
N1521 N 0.06222 0.1957 0.98338 0.0
H1522 H 0.17446 0.91116 0.23846 0.0
H1523 H 0.30436 0.88206 0.25645 0.0
H1524 H 0.21756 0.89709 0.1838 0.0
H1525 H 0.25308 0.87475 0.30701 0.0
H1526 H 0.28115 0.90715 0.23515 0.0
H1527 H 0.21093 0.918 0.26689 0.0
C1528 C 0.19174 0.91033 0.23224 0.0
C1529 C 0.19289 0.90244 0.20897 0.0
C1530 C 0.27539 0.90075 0.25134 0.0
C1531 C 0.23444 0.91019 0.24138 0.0
C1532 C 0.2886 0.88645 0.26347 0.0
C1533 C 0.28015 0.87609 0.28309 0.0
C1534 C 0.25328 0.90409 0.2586 0.0
C1535 C 0.25987 0.8823 0.29172 0.0
C1536 C 0.21254 0.91423 0.24853 0.0
C1537 C 0.21577 0.90234 0.20176 0.0
N1538 N 0.24665 0.89549 0.27901 0.0
N1539 N 0.23563 0.90548 0.21809 0.0
H1540 H 0.55317 0.81216 0.43076 0.0
H1541 H 0.52596 0.93484 0.4078 0.0
H1542 H 0.51633 0.82513 0.36413 0.0
H1543 H 0.59035 0.92544 0.45163 0.0
H1544 H 0.51998 0.8947 0.39243 0.0
H1545 H 0.56456 0.85358 0.44047 0.0
C1546 C 0.54747 0.8237 0.41816 0.0
C1547 C 0.5335 0.81514 0.39672 0.0
C1548 C 0.53555 0.90159 0.40522 0.0
C1549 C 0.54633 0.86251 0.40783 0.0
C1550 C 0.53908 0.92453 0.41394 0.0
C1551 C 0.55851 0.93353 0.43136 0.0
C1552 C 0.5513 0.88749 0.41427 0.0
C1553 C 0.57471 0.91914 0.43877 0.0
C1554 C 0.55412 0.84732 0.42366 0.0
C1555 C 0.5269 0.83094 0.38095 0.0
N1556 N 0.57053 0.89675 0.43047 0.0
N1557 N 0.53308 0.85391 0.38697 0.0
H1558 H 0.52787 0.29947 0.65672 0.0
H1559 H 0.50598 0.26567 0.78652 0.0
H1560 H 0.5794 0.32112 0.71882 0.0
H1561 H 0.44685 0.26899 0.73287 0.0
H1562 H 0.53459 0.27678 0.75836 0.0
H1563 H 0.49893 0.28019 0.6817 0.0
C1564 C 0.53304 0.30027 0.67553 0.0
C1565 C 0.55592 0.31222 0.68574 0.0
C1566 C 0.5153 0.27477 0.75272 0.0
C1567 C 0.52346 0.28977 0.71403 0.0
C1568 C 0.499 0.26844 0.76876 0.0
C1569 C 0.47403 0.26676 0.76217 0.0
C1570 C 0.50656 0.27938 0.72995 0.0
C1571 C 0.46595 0.27 0.73873 0.0
C1572 C 0.51663 0.2892 0.68969 0.0
C1573 C 0.56183 0.31249 0.71017 0.0
N1574 N 0.48221 0.27643 0.72349 0.0
N1575 N 0.54575 0.30138 0.72343 0.0
H1576 H 0.08223 0.89514 0.67168 0.0
H1577 H 0.08746 0.95919 0.54881 0.0
H1578 H 0.07707 0.85642 0.6052 0.0
H1579 H 0.08853 0.99473 0.61625 0.0
H1580 H 0.08444 0.92247 0.5679 0.0
H1581 H 0.08495 0.93062 0.6514 0.0
C1582 C 0.08153 0.89372 0.65273 0.0
C1583 C 0.07919 0.87162 0.64073 0.0
C1584 C 0.08539 0.93822 0.57867 0.0
C1585 C 0.0827 0.91441 0.61633 0.0
C1586 C 0.08723 0.9596 0.56765 0.0
C1587 C 0.08848 0.9811 0.58047 0.0
C1588 C 0.08475 0.9374 0.60324 0.0
C1589 C 0.0878 0.97931 0.60505 0.0
C1590 C 0.08317 0.91451 0.64099 0.0
C1591 C 0.07863 0.87234 0.61586 0.0
N1592 N 0.08606 0.95841 0.61526 0.0
N1593 N 0.08039 0.89292 0.60483 0.0
H1594 H 0.50918 0.8113 0.92294 0.0
H1595 H 0.4267 0.81171 0.80081 0.0
H1596 H 0.5305 0.78132 0.86066 0.0
H1597 H 0.39268 0.78797 0.86071 0.0
H1598 H 0.46662 0.8093 0.82218 0.0
H1599 H 0.4688 0.81134 0.90127 0.0
C1600 C 0.50564 0.80502 0.9046 0.0
C1601 C 0.52425 0.79739 0.89354 0.0
C1602 C 0.45047 0.80463 0.83069 0.0
C1603 C 0.47713 0.79742 0.86815 0.0
C1604 C 0.42748 0.80599 0.81844 0.0
C1605 C 0.40576 0.7998 0.82861 0.0
C1606 C 0.45242 0.79799 0.85398 0.0
C1607 C 0.40856 0.79267 0.85177 0.0
C1608 C 0.48239 0.80501 0.89219 0.0
C1609 C 0.51764 0.78869 0.86981 0.0
N1610 N 0.43115 0.79235 0.86362 0.0
N1611 N 0.49513 0.78938 0.85795 0.0
H1612 H 0.5564 0.21679 0.15916 0.0
H1613 H 0.55805 0.13689 0.03951 0.0
H1614 H 0.57393 0.24777 0.09584 0.0
H1615 H 0.57842 0.11485 0.10781 0.0
H1616 H 0.55653 0.1752 0.05805 0.0
H1617 H 0.5574 0.17874 0.14004 0.0
C1618 C 0.55988 0.21582 0.14101 0.0
C1619 C 0.56383 0.2364 0.12919 0.0
C1620 C 0.56128 0.16205 0.06912 0.0
C1621 C 0.56518 0.1911 0.10635 0.0
C1622 C 0.56206 0.13977 0.05842 0.0
C1623 C 0.56841 0.12164 0.07166 0.0
C1624 C 0.56619 0.167 0.09381 0.0
C1625 C 0.57345 0.12759 0.09633 0.0
C1626 C 0.56057 0.19371 0.13 0.0
C1627 C 0.56912 0.23295 0.1057 0.0
N1628 N 0.57198 0.14911 0.1063 0.0
N1629 N 0.56928 0.21125 0.09525 0.0
H1630 H 0.16651 0.33736 0.38249 0.0
H1631 H 0.24986 0.261 0.31825 0.0
H1632 H 0.15791 0.26441 0.38835 0.0
H1633 H 0.27175 0.33414 0.33333 0.0
H1634 H 0.21503 0.2617 0.34055 0.0
H1635 H 0.20279 0.33637 0.36263 0.0
C1636 C 0.17237 0.32106 0.38009 0.0
C1637 C 0.15875 0.30106 0.3881 0.0
C1638 C 0.22733 0.27767 0.33901 0.0
C1639 C 0.2011 0.29963 0.36356 0.0
C1640 C 0.24743 0.27736 0.32598 0.0
C1641 C 0.26443 0.29756 0.3233 0.0
C1642 C 0.22318 0.29846 0.34961 0.0
C1643 C 0.25961 0.31796 0.33442 0.0
C1644 C 0.19329 0.32052 0.36843 0.0
C1645 C 0.16765 0.28054 0.38342 0.0
N1646 N 0.23973 0.31786 0.34663 0.0
N1647 N 0.18773 0.28038 0.37146 0.0
H1648 H 0.97019 0.07426 0.19835 0.0
H1649 H 1.00509 0.07543 0.06833 0.0
H1650 H 0.93374 0.02438 0.14251 0.0
H1651 H 0.0549 0.09776 0.13137 0.0
H1652 H 0.97147 0.06935 0.09217 0.0
H1653 H 0.99249 0.09566 0.17005 0.0
C1654 C 0.96651 0.06809 0.17997 0.0
C1655 C 0.95068 0.04723 0.17273 0.0
C1656 C 0.98969 0.07614 0.10063 0.0
C1657 C 0.9762 0.07153 0.14044 0.0
C1658 C 1.00889 0.07971 0.08711 0.0
C1659 C 0.03287 0.08668 0.09804 0.0
C1660 C 0.99457 0.08002 0.12509 0.0
C1661 C 0.03674 0.09201 0.12234 0.0
C1662 C 0.97921 0.08033 0.16388 0.0
C1663 C 0.94608 0.04025 0.14873 0.0
N1664 N 1.01777 0.08834 0.13511 0.0
N1665 N 0.95929 0.05217 0.13337 0.0
H1666 H 0.31558 0.77493 0.48434 0.0
H1667 H 0.2729 0.76983 0.34518 0.0
H1668 H 0.27986 0.71358 0.4416 0.0
H1669 H 0.32151 0.82806 0.38299 0.0
H1670 H 0.27 0.75132 0.38211 0.0
H1671 H 0.3132 0.79682 0.44904 0.0
C1672 C 0.30704 0.76609 0.46772 0.0
C1673 C 0.29805 0.74228 0.46611 0.0
C1674 C 0.28114 0.76825 0.38238 0.0
C1675 C 0.2951 0.76722 0.42567 0.0
C1676 C 0.28266 0.77893 0.36125 0.0
C1677 C 0.29755 0.80056 0.36078 0.0
C1678 C 0.29452 0.77923 0.40337 0.0
C1679 C 0.30988 0.81134 0.38234 0.0
C1680 C 0.30575 0.77857 0.44754 0.0
C1681 C 0.28722 0.73182 0.44393 0.0
N1682 N 0.30821 0.80055 0.40266 0.0
N1683 N 0.2861 0.74427 0.42477 0.0
H1684 H 0.65156 0.96206 0.64918 0.0
H1685 H 0.58662 0.97071 0.55061 0.0
H1686 H 0.58712 0.95379 0.68417 0.0
H1687 H 0.54209 0.99569 0.59873 0.0
H1688 H 0.59777 0.94413 0.57915 0.0
H1689 H 0.62632 0.95364 0.61161 0.0
C1690 C 0.63205 0.95754 0.64898 0.0
C1691 C 0.62137 0.95953 0.66968 0.0
C1692 C 0.58508 0.95502 0.58324 0.0
C1693 C 0.59213 0.95012 0.62665 0.0
C1694 C 0.57843 0.97002 0.56681 0.0
C1695 C 0.56434 0.98618 0.57288 0.0
C1696 C 0.57774 0.95657 0.60578 0.0
C1697 C 0.55381 0.98412 0.59382 0.0
C1698 C 0.6175 0.95253 0.62741 0.0
C1699 C 0.59607 0.95307 0.6685 0.0
N1700 N 0.56127 0.97006 0.60985 0.0
N1701 N 0.58223 0.94952 0.64724 0.0
H1702 H 0.33342 0.36857 0.99104 0.0
H1703 H 0.30091 0.35 0.84864 0.0
H1704 H 0.30001 0.41626 0.95085 0.0
H1705 H 0.35899 0.32247 0.88496 0.0
H1706 H 0.29582 0.37014 0.88598 0.0
H1707 H 0.33808 0.34764 0.95386 0.0
C1708 C 0.32657 0.37454 0.97457 0.0
C1709 C 0.31593 0.39446 0.97482 0.0
C1710 C 0.30971 0.35971 0.88592 0.0
C1711 C 0.32135 0.36989 0.93099 0.0
C1712 C 0.31267 0.34803 0.86434 0.0
C1713 C 0.33063 0.33426 0.86287 0.0
C1714 C 0.32428 0.3575 0.9071 0.0
C1715 C 0.345 0.33281 0.88454 0.0
C1716 C 0.3295 0.36256 0.95309 0.0
C1717 C 0.30813 0.4011 0.9522 0.0
N1718 N 0.3414 0.3439 0.90534 0.0
N1719 N 0.31076 0.38897 0.93171 0.0
H1720 H 0.93629 1.01298 0.31963 0.0
H1721 H 0.07465 1.01327 0.36598 0.0
H1722 H 0.99006 1.00497 0.27342 0.0
H1723 H 1.02717 0.04345 0.40699 0.0
H1724 H 0.04345 1.00855 0.3319 0.0
H1725 H 0.96879 0.02162 0.35276 0.0
C1726 C 0.95485 1.01293 0.31649 0.0
C1727 C 0.96051 1.00837 0.29378 0.0
C1728 C 0.04004 1.01654 0.34828 0.0
C1729 C 0.99756 1.01822 0.33131 0.0
C1730 C 0.05785 0.01931 0.36763 0.0
C1731 C 0.05348 0.02887 0.38919 0.0
C1732 C 1.01761 0.02298 0.35075 0.0
C1733 C 1.03137 0.0363 0.39055 0.0
C1734 C 0.97338 1.01804 0.33531 0.0
C1735 C 0.98489 1.00859 0.29062 0.0
N1736 N 1.0141 0.03292 0.37165 0.0
N1737 N 1.00249 1.01336 0.30918 0.0
H1738 H 0.33844 0.7797 0.6003 0.0
H1739 H 0.32313 0.74514 0.73187 0.0
H1740 H 0.31478 0.71009 0.61798 0.0
H1741 H 0.36083 0.8116 0.71631 0.0
H1742 H 0.31949 0.73221 0.69022 0.0
H1743 H 0.34607 0.79209 0.64243 0.0
C1744 C 0.33493 0.767 0.61299 0.0
C1745 C 0.32593 0.74379 0.60546 0.0
C1746 C 0.32874 0.74957 0.69593 0.0
C1747 C 0.33447 0.7579 0.65386 0.0
C1748 C 0.33089 0.75698 0.7198 0.0
C1749 C 0.34236 0.77953 0.72782 0.0
C1750 C 0.33783 0.76486 0.67969 0.0
C1751 C 0.35193 0.79403 0.71111 0.0
C1752 C 0.33933 0.77408 0.63708 0.0
C1753 C 0.32174 0.72815 0.62284 0.0
N1754 N 0.34927 0.78654 0.68792 0.0
N1755 N 0.32588 0.73548 0.64608 0.0
H1756 H 0.6086 1.00528 0.77681 0.0
H1757 H 0.60872 0.09273 0.88745 0.0
H1758 H 0.67016 0.05729 0.80604 0.0
H1759 H 0.55558 0.03007 0.87186 0.0
H1760 H 0.62813 0.08288 0.85342 0.0
H1761 H 0.58618 1.01634 0.80833 0.0
C1762 C 0.61747 0.01891 0.78987 0.0
C1763 C 0.64134 0.03036 0.78873 0.0
C1764 C 0.61215 0.07133 0.85736 0.0
C1765 C 0.61564 0.04328 0.82447 0.0
C1766 C 0.60105 0.07696 0.87674 0.0
C1767 C 0.58072 0.06204 0.88263 0.0
C1768 C 0.60283 0.05064 0.84373 0.0
C1769 C 0.5712 0.04207 0.86788 0.0
C1770 C 0.60462 0.02524 0.80778 0.0
C1771 C 0.65184 0.04792 0.80614 0.0
N1772 N 0.58247 0.03683 0.84916 0.0
N1773 N 0.63888 0.05389 0.82319 0.0
H1774 H 0.29834 0.35335 0.10086 0.0
H1775 H 0.33739 0.3643 0.24301 0.0
H1776 H 0.33183 0.41755 0.13917 0.0
H1777 H 0.30016 0.3012 0.20475 0.0
H1778 H 0.33556 0.38377 0.2061 0.0
H1779 H 0.29892 0.33445 0.13809 0.0
C1780 C 0.30578 0.36369 0.117 0.0
C1781 C 0.31494 0.38749 0.11613 0.0
C1782 C 0.32766 0.36568 0.20564 0.0
C1783 C 0.31586 0.36518 0.16022 0.0
C1784 C 0.32863 0.35437 0.22702 0.0
C1785 C 0.31878 0.33068 0.22781 0.0
C1786 C 0.31685 0.35357 0.18405 0.0
C1787 C 0.30794 0.31934 0.20574 0.0
C1788 C 0.30613 0.35269 0.13854 0.0
C1789 C 0.32438 0.39934 0.13832 0.0
N1790 N 0.30736 0.33068 0.18525 0.0
N1791 N 0.32461 0.38824 0.15899 0.0
H1792 H 0.28091 0.96685 1.01677 0.0
H1793 H 0.21109 1.00922 0.11983 0.0
H1794 H 0.28045 0.93629 0.08329 0.0
H1795 H 0.21402 0.03902 0.05301 0.0
H1796 H 0.23317 0.98005 0.10603 0.0
H1797 H 0.2523 0.99019 0.02851 0.0
C1798 C 0.27438 0.96472 0.03371 0.0
C1799 C 0.28317 0.94963 0.0491 0.0
C1800 C 0.22893 0.99296 0.0944 0.0
C1801 C 0.25073 0.9769 0.06301 0.0
C1802 C 0.21633 1.00962 0.10226 0.0
C1803 C 0.21095 0.02683 0.08769 0.0
C1804 C 0.2361 0.99341 0.07173 0.0
C1805 C 0.21824 0.02648 0.06509 0.0
C1806 C 0.25813 0.9782 0.04049 0.0
C1807 C 0.27403 0.94759 0.07082 0.0
N1808 N 0.23043 1.01013 0.05788 0.0
N1809 N 0.25856 0.96134 0.07729 0.0
H1810 H 0.79405 0.61587 0.062 0.0
H1811 H 0.65319 0.58964 1.00667 0.0
H1812 H 0.76442 0.66255 1.01732 0.0
H1813 H 0.6746 0.57025 0.07599 0.0
H1814 H 0.69482 0.61091 1.00584 0.0
H1815 H 0.75255 0.59401 0.06303 0.0
C1816 C 0.77892 0.62144 0.05211 0.0
C1817 C 0.78327 0.64106 0.03912 0.0
C1818 C 0.69052 0.60197 0.02124 0.0
C1819 C 0.7348 0.61564 0.04026 0.0
C1820 C 0.66658 0.5896 0.02173 0.0
C1821 C 0.65976 0.5778 0.04145 0.0
C1822 C 0.70865 0.6024 0.04037 0.0
C1823 C 0.67849 0.5789 0.06034 0.0
C1824 C 0.75505 0.60896 0.05288 0.0
C1825 C 0.7624 0.64748 0.02731 0.0
N1826 N 0.70179 0.59061 0.05921 0.0
N1827 N 0.73947 0.63477 0.02786 0.0
H1828 H 0.8048 0.53631 0.39762 0.0
H1829 H 0.79204 0.44459 0.28833 0.0
H1830 H 0.73788 0.51061 0.35222 0.0
H1831 H 0.85387 0.45682 0.34197 0.0
H1832 H 0.77312 0.47092 0.31075 0.0
H1833 H 0.8239 0.50823 0.37755 0.0
C1834 C 0.794 0.52457 0.38372 0.0
C1835 C 0.76976 0.52603 0.37643 0.0
C1836 C 0.79084 0.46788 0.31764 0.0
C1837 C 0.79162 0.49427 0.35323 0.0
C1838 C 0.80166 0.4529 0.30481 0.0
C1839 C 0.82449 0.44844 0.31336 0.0
C1840 C 0.80297 0.47861 0.33915 0.0
C1841 C 0.83635 0.45997 0.33463 0.0
C1842 C 0.80497 0.50865 0.3722 0.0
C1843 C 0.75668 0.51034 0.35832 0.0
N1844 N 0.8254 0.47452 0.34687 0.0
N1845 N 0.76786 0.4953 0.3472 0.0
H1846 H 0.90754 0.45179 0.58039 0.0
H1847 H 1.0281 0.48125 0.52281 0.0
H1848 H 0.92974 0.40494 0.53102 0.0
H1849 H 1.01574 0.52018 0.58439 0.0
H1850 H 0.99425 0.45122 0.52856 0.0
H1851 H 0.94867 0.47472 0.58575 0.0
C1852 C 0.92127 0.44631 0.57081 0.0
C1853 C 0.91528 0.42711 0.55453 0.0
C1854 C 0.99906 0.46609 0.5411 0.0
C1855 C 0.96218 0.45298 0.56065 0.0
C1856 C 1.01826 0.48335 0.53771 0.0
C1857 C 1.02435 0.50335 0.55295 0.0
C1858 C 0.9854 0.46899 0.55961 0.0
C1859 C 1.01141 0.50505 0.57219 0.0
C1860 C 0.94474 0.45925 0.57403 0.0
C1861 C 0.93365 0.42007 0.5432 0.0
N1862 N 0.99214 0.48823 0.57473 0.0
N1863 N 0.95624 0.43334 0.54607 0.0
H1864 H 0.45925 0.16105 0.3779 0.0
H1865 H 0.40392 0.18588 0.24953 0.0
H1866 H 0.49969 0.16328 0.31824 0.0
H1867 H 0.36489 0.18164 0.31017 0.0
H1868 H 0.44038 0.1805 0.27453 0.0
H1869 H 0.42629 0.17343 0.3539 0.0
C1870 C 0.46142 0.16466 0.35987 0.0
C1871 C 0.48213 0.16089 0.35 0.0
C1872 C 0.42377 0.18066 0.28227 0.0
C1873 C 0.44413 0.17443 0.32216 0.0
C1874 C 0.40295 0.18358 0.268 0.0
C1875 C 0.3812 0.18385 0.27767 0.0
C1876 C 0.42281 0.17815 0.30637 0.0
C1877 C 0.381 0.18093 0.30176 0.0
C1878 C 0.44249 0.17154 0.34609 0.0
C1879 C 0.48402 0.16596 0.32657 0.0
N1880 N 0.40145 0.17824 0.31523 0.0
N1881 N 0.46504 0.17211 0.3133 0.0
H1882 H 0.43135 0.15845 0.56967 0.0
H1883 H 0.50798 0.07017 0.5097 0.0
H1884 H 0.40769 0.11894 0.50346 0.0
H1885 H 0.53182 0.10377 0.57873 0.0
H1886 H 0.47256 0.08927 0.50719 0.0
H1887 H 0.46838 0.14097 0.57328 0.0
C1888 C 0.43377 0.14641 0.5557 0.0
C1889 C 0.41552 0.14069 0.53608 0.0
C1890 C 0.48544 0.09261 0.52298 0.0
C1891 C 0.45906 0.11985 0.54032 0.0
C1892 C 0.50601 0.08153 0.52446 0.0
C1893 C 0.5237 0.08486 0.54454 0.0
C1894 C 0.48169 0.10772 0.54162 0.0
C1895 C 0.51919 0.10021 0.56279 0.0
C1896 C 0.45515 0.13618 0.55787 0.0
C1897 C 0.42057 0.1244 0.51902 0.0
N1898 N 0.49908 0.11082 0.56089 0.0
N1899 N 0.44126 0.11491 0.52152 0.0
H1900 H 0.72416 0.65573 0.39535 0.0
H1901 H 0.83847 0.72069 0.33896 0.0
H1902 H 0.78106 0.62434 0.37122 0.0
H1903 H 0.77218 0.74758 0.33874 0.0
H1904 H 0.82106 0.68896 0.36052 0.0
H1905 H 0.74481 0.69308 0.38367 0.0
C1906 C 0.74137 0.65689 0.38838 0.0
C1907 C 0.75154 0.63721 0.38516 0.0
C1908 C 0.81029 0.7018 0.3558 0.0
C1909 C 0.77472 0.6792 0.3715 0.0
C1910 C 0.82019 0.71992 0.34339 0.0
C1911 C 0.80658 0.7366 0.33661 0.0
C1912 C 0.7865 0.70013 0.36142 0.0
C1913 C 0.78316 0.73488 0.34333 0.0
C1914 C 0.75301 0.67804 0.38162 0.0
C1915 C 0.77331 0.63927 0.37522 0.0
N1916 N 0.7737 0.71678 0.35523 0.0
N1917 N 0.78416 0.65984 0.36882 0.0
H1918 H 0.04293 0.54153 0.86759 0.0
H1919 H 0.94397 0.44828 0.78626 0.0
H1920 H 0.99374 0.55673 0.81014 0.0
H1921 H 0.9639 0.44009 0.85975 0.0
H1922 H 0.97385 0.48396 0.78965 0.0
H1923 H 1.02477 0.50023 0.85974 0.0
C1924 C 1.02858 0.53606 0.85318 0.0
C1925 C 1.0192 0.55229 0.83986 0.0
C1926 C 0.97196 0.47407 0.8049 0.0
C1927 C 0.99933 0.50579 0.83028 0.0
C1928 C 0.95482 0.45379 0.80304 0.0
C1929 C 0.95089 0.44146 0.8229 0.0
C1930 C 0.98547 0.48202 0.8267 0.0
C1931 C 0.96617 0.44906 0.84397 0.0
C1932 C 1.01834 0.51267 0.84868 0.0
C1933 C 1.00098 0.54462 0.8211 0.0
N1934 N 0.98261 0.46906 0.84542 0.0
N1935 N 0.99154 0.52193 0.81693 0.0
H1936 H 0.08063 0.88493 0.0993 0.0
H1937 H 0.0995 0.02079 0.12098 0.0
H1938 H 0.11507 0.92386 0.16373 0.0
H1939 H 0.05276 0.98392 0.06128 0.0
H1940 H 0.1031 0.98452 0.13747 0.0
H1941 H 0.06819 0.91997 0.08522 0.0
C1942 C 0.08543 0.90074 0.11052 0.0
C1943 C 0.09923 0.90152 0.13258 0.0
C1944 C 0.09179 0.98422 0.12089 0.0
C1945 C 0.08502 0.94138 0.11669 0.0
C1946 C 0.08975 1.00495 0.11148 0.0
C1947 C 0.07596 1.00523 0.08972 0.0
C1948 C 0.08031 0.96349 0.10824 0.0
C1949 C 0.06353 0.98431 0.07817 0.0
C1950 C 0.07827 0.92067 0.10251 0.0
C1951 C 0.10481 0.92242 0.14644 0.0
N1952 N 0.0663 0.96413 0.08743 0.0
N1953 N 0.09783 0.94147 0.1382 0.0
H1954 H 0.95986 0.28181 0.9084 0.0
H1955 H 0.84917 0.2471 0.80636 0.0
H1956 H 0.94852 0.21902 0.86404 0.0
H1957 H 0.87571 0.31468 0.84088 0.0
H1958 H 0.87769 0.23175 0.83428 0.0
H1959 H 0.91995 0.2883 0.89221 0.0
C1960 C 0.94872 0.26929 0.89538 0.0
C1961 C 0.95773 0.25064 0.88637 0.0
C1962 C 0.87692 0.24988 0.83584 0.0
C1963 C 0.91232 0.25772 0.86792 0.0
C1964 C 0.86095 0.25863 0.81982 0.0
C1965 C 0.86086 0.28229 0.82088 0.0
C1966 C 0.89223 0.26493 0.85324 0.0
C1967 C 0.87587 0.29651 0.83891 0.0
C1968 C 0.92599 0.27292 0.88617 0.0
C1969 C 0.94244 0.23429 0.87033 0.0
N1970 N 0.89094 0.28762 0.85433 0.0
N1971 N 0.92053 0.23845 0.86111 0.0
H1972 H 0.65712 0.29218 0.63575 0.0
H1973 H 0.59916 0.16861 0.67442 0.0
H1974 H 0.60856 0.28163 0.68861 0.0
H1975 H 0.65656 0.17837 0.63014 0.0
H1976 H 0.60307 0.21027 0.68017 0.0
H1977 H 0.65801 0.25072 0.63346 0.0
C1978 C 0.64644 0.28101 0.6466 0.0
C1979 C 0.63193 0.28989 0.66163 0.0
C1980 C 0.61501 0.20336 0.66937 0.0
C1981 C 0.63334 0.24303 0.65976 0.0
C1982 C 0.61272 0.17958 0.66606 0.0
C1983 C 0.62747 0.17006 0.65171 0.0
C1984 C 0.63201 0.21779 0.65806 0.0
C1985 C 0.64493 0.18504 0.64148 0.0
C1986 C 0.64716 0.25749 0.64555 0.0
C1987 C 0.61933 0.27513 0.67625 0.0
N1988 N 0.64656 0.20819 0.64464 0.0
N1989 N 0.62006 0.25238 0.67473 0.0
H1990 H 0.56242 0.72538 0.33011 0.0
H1991 H 0.69658 0.79538 0.35465 0.0
H1992 H 0.59585 0.7534 0.39937 0.0
H1993 H 0.66932 0.75185 0.29115 0.0
H1994 H 0.66054 0.77858 0.37207 0.0
H1995 H 0.60221 0.73232 0.31626 0.0
C1996 C 0.57823 0.73259 0.3425 0.0
C1997 C 0.57585 0.73919 0.3658 0.0
C1998 C 0.66256 0.77258 0.35439 0.0
C1999 C 0.62127 0.74759 0.35001 0.0
C2000 C 0.6831 0.78219 0.34442 0.0
C2001 C 0.68581 0.77523 0.32129 0.0
C2002 C 0.64452 0.75606 0.34106 0.0
C2003 C 0.66768 0.75818 0.30881 0.0
C2004 C 0.60094 0.73657 0.33459 0.0
C2005 C 0.5969 0.7482 0.38121 0.0
N2006 N 0.6477 0.74932 0.31879 0.0
N2007 N 0.61874 0.75259 0.37291 0.0
H2008 H 0.08185 0.20313 0.4214 0.0
H2009 H 0.08321 0.13416 0.54159 0.0
H2010 H 0.09756 0.23759 0.49062 0.0
H2011 H 0.08153 0.09941 0.47362 0.0
H2012 H 0.08594 0.17098 0.52317 0.0
H2013 H 0.07943 0.16575 0.43919 0.0
C2014 C 0.08486 0.20313 0.44035 0.0
C2015 C 0.09009 0.2245 0.45409 0.0
C2016 C 0.08492 0.15541 0.51208 0.0
C2017 C 0.08689 0.18008 0.47536 0.0
C2018 C 0.08324 0.13394 0.52273 0.0
C2019 C 0.08196 0.11262 0.50963 0.0
C2020 C 0.08514 0.15661 0.48752 0.0
C2021 C 0.08236 0.11472 0.48502 0.0
C2022 C 0.08345 0.1814 0.45064 0.0
C2023 C 0.0936 0.22223 0.47877 0.0
N2024 N 0.08376 0.13579 0.47507 0.0
N2025 N 0.09185 0.20098 0.48828 0.0
H2026 H 0.64557 0.33707 0.21852 0.0
H2027 H 0.75483 0.271 0.25297 0.0
H2028 H 0.6558 0.28038 0.17323 0.0
H2029 H 0.76769 0.34494 0.2612 0.0
H2030 H 0.7151 0.27129 0.2302 0.0
H2031 H 0.68613 0.33785 0.24019 0.0
C2032 C 0.65628 0.3248 0.21298 0.0
C2033 C 0.6469 0.30882 0.19356 0.0
C2034 C 0.72653 0.28747 0.23706 0.0
C2035 C 0.69375 0.30904 0.21938 0.0
C2036 C 0.74932 0.28734 0.2503 0.0
C2037 C 0.76511 0.30798 0.25936 0.0
C2038 C 0.71855 0.30836 0.23321 0.0
C2039 C 0.7565 0.32852 0.25476 0.0
C2040 C 0.67958 0.32527 0.22547 0.0
C2041 C 0.66203 0.29328 0.18771 0.0
N2042 N 0.73397 0.32816 0.24246 0.0
N2043 N 0.68423 0.29357 0.20062 0.0
H2044 H 0.59559 0.89156 0.9182 0.0
H2045 H 0.59021 0.96987 0.03849 0.0
H2046 H 0.59267 0.86114 0.98452 0.0
H2047 H 0.58587 0.99492 0.96951 0.0
H2048 H 0.59262 0.93149 0.02079 0.0
H2049 H 0.5938 0.92871 0.93753 0.0
C2050 C 0.59476 0.89234 0.93695 0.0
C2051 C 0.59448 0.87196 0.94916 0.0
C2052 C 0.59119 0.94528 1.00939 0.0
C2053 C 0.59225 0.91692 0.97247 0.0
C2054 C 0.58985 0.96763 1.01962 0.0
C2055 C 0.58786 0.98672 1.00592 0.0
C2056 C 0.59075 0.94105 0.98479 0.0
C2057 C 0.58741 0.98151 0.98136 0.0
C2058 C 0.59363 0.91412 0.94813 0.0
C2059 C 0.59316 0.8756 0.97373 0.0
N2060 N 0.58887 0.95979 0.97195 0.0
N2061 N 0.59215 0.89716 0.98426 0.0
H2062 H 1.02045 0.83482 0.72356 0.0
H2063 H 0.88869 0.76062 0.74408 0.0
H2064 H 0.99214 0.76956 0.68486 0.0
H2065 H 0.92181 0.82513 0.78187 0.0
H2066 H 0.92442 0.7627 0.72236 0.0
H2067 H 0.98427 0.83087 0.74358 0.0
C2068 C 1.0067 0.81952 0.71889 0.0
C2069 C 1.01042 0.80264 0.70177 0.0
C2070 C 0.92406 0.77643 0.73543 0.0
C2071 C 0.96684 0.79785 0.7261 0.0
C2072 C 0.90339 0.77522 0.74814 0.0
C2073 C 0.90146 0.79258 0.76555 0.0
C2074 C 0.94375 0.7953 0.73956 0.0
C2075 C 0.92175 0.81104 0.76909 0.0
C2076 C 0.98562 0.8173 0.7307 0.0
C2077 C 0.99087 0.78341 0.69742 0.0
N2078 N 0.94145 0.81183 0.7565 0.0
N2079 N 0.9704 0.78162 0.70933 0.0
H2080 H 0.23224 0.06751 0.96819 0.0
H2081 H 0.09547 0.02458 0.98636 0.0
H2082 H 0.17274 0.04997 0.91218 0.0
H2083 H 0.15431 0.0405 0.04296 0.0
H2084 H 0.12504 0.02295 0.95863 0.0
H2085 H 0.20569 0.04902 0.99534 0.0
C2086 C 0.21367 0.05974 0.96159 0.0
C2087 C 0.20455 0.06086 0.93803 0.0
C2088 C 0.13148 0.02621 0.97719 0.0
C2089 C 0.17421 0.03947 0.96881 0.0
C2090 C 0.11455 0.02688 0.99302 0.0
C2091 C 0.12262 0.03345 1.01674 0.0
C2092 C 0.15643 0.03243 0.9853 0.0
C2093 C 0.1475 0.03609 0.02458 0.0
C2094 C 0.19857 0.04901 0.97702 0.0
C2095 C 0.18045 0.05008 0.93032 0.0
N2096 N 0.16363 0.03619 1.0088 0.0
N2097 N 0.16608 0.0401 0.94572 0.0
H2098 H 0.85622 0.41178 0.63287 0.0
H2099 H 0.82212 0.30568 0.71167 0.0
H2100 H 0.8253 0.34298 0.60333 0.0
H2101 H 0.84572 0.37598 0.74024 0.0
H2102 H 0.8253 0.31849 0.67219 0.0
H2103 H 0.85404 0.39855 0.67221 0.0
C2104 C 0.84888 0.39385 0.63462 0.0
C2105 C 0.8409 0.37849 0.61464 0.0
C2106 C 0.82989 0.33111 0.68708 0.0
C2107 C 0.83851 0.36311 0.66002 0.0
C2108 C 0.8282 0.32381 0.70973 0.0
C2109 C 0.8337 0.33975 0.7295 0.0
C2110 C 0.83717 0.35457 0.68398 0.0
C2111 C 0.84136 0.36301 0.72566 0.0
C2112 C 0.84767 0.38631 0.65718 0.0
C2113 C 0.83159 0.35547 0.61816 0.0
N2114 N 0.84282 0.36969 0.70342 0.0
N2115 N 0.83072 0.34847 0.64038 0.0
H2116 H 0.59792 0.15005 0.41229 0.0
H2117 H 0.59404 0.12966 0.54435 0.0
H2118 H 0.53846 0.15457 0.45249 0.0
H2119 H 0.63608 0.1002 0.49676 0.0
H2120 H 0.58937 0.1596 0.51742 0.0
H2121 H 0.62532 0.15392 0.44883 0.0
C2122 C 0.59071 0.15267 0.42872 0.0
C2123 C 0.56562 0.15072 0.42944 0.0
C2124 C 0.60058 0.14722 0.51342 0.0
C2125 C 0.59689 0.15513 0.47111 0.0
C2126 C 0.60332 0.13015 0.5288 0.0
C2127 C 0.61465 0.11203 0.52218 0.0
C2128 C 0.60923 0.1459 0.49148 0.0
C2129 C 0.62651 0.11353 0.50201 0.0
C2130 C 0.60644 0.15497 0.44958 0.0
C2131 C 0.55752 0.15494 0.4512 0.0
N2132 N 0.62298 0.12986 0.48701 0.0
N2133 N 0.57302 0.15628 0.47127 0.0
H2134 H 0.88268 0.73454 0.1154 0.0
H2135 H 0.80916 0.73746 0.22876 0.0
H2136 H 0.8279 0.67747 0.12791 0.0
H2137 H 0.88284 0.77365 0.23169 0.0
H2138 H 0.81265 0.71903 0.19001 0.0
H2139 H 0.88035 0.75229 0.15485 0.0
C2140 C 0.87015 0.72558 0.1263 0.0
C2141 C 0.85568 0.70405 0.11771 0.0
C2142 C 0.82812 0.73099 0.19904 0.0
C2143 C 0.8523 0.72518 0.1638 0.0
C2144 C 0.82613 0.7417 0.22141 0.0
C2145 C 0.84573 0.75736 0.23429 0.0
C2146 C 0.84972 0.73616 0.1884 0.0
C2147 C 0.86713 0.76174 0.22305 0.0
C2148 C 0.86883 0.73585 0.14907 0.0
C2149 C 0.83974 0.69383 0.13331 0.0
N2150 N 0.86839 0.75157 0.20107 0.0
N2151 N 0.83834 0.70442 0.15503 0.0
H2152 H 0.16713 0.03565 0.81547 0.0
H2153 H 0.16624 0.08359 0.68931 0.0
H2154 H 0.22863 0.07915 0.79225 0.0
H2155 H 0.10702 0.03486 0.70957 0.0
H2156 H 0.19139 0.07789 0.7251 0.0
H2157 H 0.14709 0.03037 0.77515 0.0
C2158 C 0.17656 0.04382 0.80181 0.0
C2159 C 0.19934 0.05825 0.80722 0.0
C2160 C 0.17299 0.06824 0.72167 0.0
C2161 C 0.17646 0.05247 0.76119 0.0
C2162 C 0.1586 0.07163 0.70135 0.0
C2163 C 0.13444 0.06002 0.69686 0.0
C2164 C 0.16302 0.05336 0.73776 0.0
C2165 C 0.12554 0.04427 0.7126 0.0
C2166 C 0.16512 0.04078 0.7788 0.0
C2167 C 0.21091 0.06814 0.78886 0.0
N2168 N 0.13975 0.04164 0.7326 0.0
N2169 N 0.19915 0.06536 0.76668 0.0
H2170 H 0.83857 0.3506 0.48756 0.0
H2171 H 0.82145 0.36648 0.34858 0.0
H2172 H 0.83175 0.41444 0.45697 0.0
H2173 H 0.82795 0.30147 0.37672 0.0
H2174 H 0.82235 0.3833 0.3885 0.0
H2175 H 0.83185 0.33125 0.44768 0.0
C2176 C 0.83537 0.36051 0.47259 0.0
C2177 C 0.8359 0.38429 0.47583 0.0
C2178 C 0.82341 0.3653 0.386 0.0
C2179 C 0.82836 0.36227 0.43004 0.0
C2180 C 0.82283 0.35563 0.36309 0.0
C2181 C 0.82466 0.33246 0.35908 0.0
C2182 C 0.82597 0.35183 0.4053 0.0
C2183 C 0.82648 0.3194 0.37882 0.0
C2184 C 0.83165 0.34947 0.44978 0.0
C2185 C 0.83176 0.39617 0.45558 0.0
N2186 N 0.82724 0.32926 0.40099 0.0
N2187 N 0.82831 0.38512 0.43376 0.0
H2188 H 0.51746 0.10899 0.27976 0.0
H2189 H 0.62479 0.09852 0.20269 0.0
H2190 H 0.59277 0.13594 0.30475 0.0
H2191 H 0.54896 0.07057 0.18102 0.0
H2192 H 0.61374 0.11604 0.23861 0.0
H2193 H 0.52877 0.09985 0.24123 0.0
C2194 C 0.53638 0.11327 0.27699 0.0
C2195 C 0.55427 0.12292 0.29545 0.0
C2196 C 0.59956 0.10621 0.22586 0.0
C2197 C 0.56748 0.11207 0.25155 0.0
C2198 C 0.60586 0.09605 0.20551 0.0
C2199 C 0.58776 0.08307 0.18888 0.0
C2200 C 0.57502 0.10324 0.22954 0.0
C2201 C 0.56349 0.08067 0.19321 0.0
C2202 C 0.54287 0.10798 0.25501 0.0
C2203 C 0.57847 0.12839 0.29091 0.0
N2204 N 0.55787 0.09059 0.21312 0.0
N2205 N 0.58447 0.12253 0.26943 0.0
H2206 H 0.83991 0.66622 0.94806 0.0
H2207 H 0.8604 0.78919 0.88778 0.0
H2208 H 0.86045 0.73035 0.99041 0.0
H2209 H 0.83275 0.72394 0.84905 0.0
H2210 H 0.86241 0.76923 0.92458 0.0
H2211 H 0.83913 0.68739 0.91264 0.0
C2212 C 0.84444 0.68481 0.95026 0.0
C2213 C 0.85037 0.69593 0.97328 0.0
C2214 C 0.85596 0.75915 0.90809 0.0
C2215 C 0.84944 0.72134 0.93075 0.0
C2216 C 0.85487 0.77067 0.88671 0.0
C2217 C 0.84647 0.75868 0.86436 0.0
C2218 C 0.84874 0.73495 0.90794 0.0
C2219 C 0.83949 0.73446 0.86522 0.0
C2220 C 0.8439 0.69706 0.92955 0.0
C2221 C 0.8558 0.7204 0.97366 0.0
N2222 N 0.84083 0.72376 0.88611 0.0
N2223 N 0.85525 0.73197 0.95314 0.0
H2224 H 0.87352 0.19019 0.98089 0.0
H2225 H 0.95565 0.11483 0.04934 0.0
H2226 H 0.88244 0.1905 0.0564 0.0
H2227 H 0.96099 0.12938 0.97709 0.0
H2228 H 0.93125 0.14472 0.05298 0.0
H2229 H 0.90866 0.17154 0.97968 0.0
C2230 C 0.88348 0.18702 0.99728 0.0
C2231 C 0.87524 0.19194 1.01878 0.0
C2232 C 0.93798 0.14158 0.0364 0.0
C2233 C 0.91474 0.16966 1.01753 0.0
C2234 C 0.95169 0.12435 0.03424 0.0
C2235 C 0.96001 0.11936 1.01276 0.0
C2236 C 0.93224 0.15373 1.01684 0.0
C2237 C 0.95485 0.1326 0.99394 0.0
C2238 C 0.90341 0.1762 0.99659 0.0
C2239 C 0.88846 0.1872 0.0395 0.0
N2240 N 0.94102 0.14895 0.99633 0.0
N2241 N 0.90727 0.17583 0.03835 0.0
H2242 H 0.39727 0.4253 0.02632 0.0
H2243 H 0.49695 0.5419 0.06717 0.0
H2244 H 0.38169 0.48081 0.06969 0.0
H2245 H 0.50834 0.48873 1.01793 0.0
H2246 H 0.45567 0.52009 0.06926 0.0
H2247 H 0.43825 0.44765 0.02452 0.0
C2248 C 0.40236 0.44223 0.03545 0.0
C2249 C 0.38529 0.45129 0.04747 0.0
C2250 C 0.46716 0.51317 0.05796 0.0
C2251 C 0.4333 0.4773 0.046 0.0
C2252 C 0.49093 0.52574 0.0567 0.0
C2253 C 0.50673 0.51751 0.04224 0.0
C2254 C 0.45868 0.49178 0.0449 0.0
C2255 C 0.49726 0.49617 0.02929 0.0
C2256 C 0.42594 0.45511 0.0344 0.0
C2257 C 0.39365 0.47324 0.05947 0.0
N2258 N 0.47429 0.48425 0.03099 0.0
N2259 N 0.41672 0.48536 0.05836 0.0
H2260 H 0.34728 0.54211 0.75025 0.0
H2261 H 0.3717 0.67791 0.77021 0.0
H2262 H 0.41034 0.58582 0.7299 0.0
H2263 H 0.30125 0.63571 0.77269 0.0
H2264 H 0.38609 0.6443 0.75539 0.0
H2265 H 0.32985 0.57603 0.75827 0.0
C2266 C 0.3574 0.55885 0.74732 0.0
C2267 C 0.38044 0.56121 0.73969 0.0
C2268 C 0.36742 0.64242 0.75897 0.0
C2269 C 0.36064 0.60004 0.74897 0.0
C2270 C 0.35914 0.66162 0.76738 0.0
C2271 C 0.33517 0.65965 0.77266 0.0
C2272 C 0.35176 0.62098 0.7561 0.0
C2273 C 0.31994 0.63796 0.76916 0.0
C2274 C 0.34738 0.57819 0.75183 0.0
C2275 C 0.39257 0.58325 0.73588 0.0
N2276 N 0.32855 0.61941 0.76121 0.0
N2277 N 0.38264 0.60188 0.74085 0.0
H2278 H 0.26724 0.65824 0.55272 0.0
H2279 H 0.12928 0.61211 0.49846 0.0
H2280 H 0.22374 0.69958 0.51379 0.0
H2281 H 0.16955 0.57459 0.54606 0.0
H2282 H 0.16429 0.64347 0.50235 0.0
H2283 H 0.23166 0.62746 0.5508 0.0
C2284 C 0.25006 0.66077 0.54381 0.0
C2285 C 0.2484 0.68098 0.53267 0.0
C2286 C 0.16549 0.62837 0.51192 0.0
C2287 C 0.2077 0.64602 0.53036 0.0
C2288 C 0.14557 0.61032 0.50955 0.0
C2289 C 0.1464 0.59065 0.52203 0.0
C2290 C 0.18646 0.62683 0.52689 0.0
C2291 C 0.16806 0.58937 0.53608 0.0
C2292 C 0.22977 0.64327 0.54276 0.0
C2293 C 0.22572 0.68393 0.52208 0.0
N2294 N 0.18719 0.60727 0.5382 0.0
N2295 N 0.20626 0.66641 0.52081 0.0
H2296 H 0.69494 0.96708 0.78789 0.0
H2297 H 0.82589 0.93983 0.77794 0.0
H2298 H 0.72833 0.97119 0.72398 0.0
H2299 H 0.78162 0.90835 0.82854 0.0
H2300 H 0.79123 0.95496 0.76029 0.0
H2301 H 0.72671 0.94717 0.80494 0.0
C2302 C 0.70854 0.96305 0.77725 0.0
C2303 C 0.70907 0.97037 0.7545 0.0
C2304 C 0.78914 0.94475 0.77528 0.0
C2305 C 0.74572 0.94888 0.77399 0.0
C2306 C 0.80895 0.93617 0.78543 0.0
C2307 C 0.8067 0.92267 0.80471 0.0
C2308 C 0.76698 0.94009 0.78463 0.0
C2309 C 0.78436 0.91893 0.81392 0.0
C2310 C 0.72674 0.95199 0.787 0.0
C2311 C 0.72734 0.96555 0.74153 0.0
N2312 N 0.76533 0.9276 0.80379 0.0
N2313 N 0.74517 0.95533 0.75157 0.0
H2314 H 0.75095 0.96007 0.50757 0.0
H2315 H 0.65713 1.01136 0.58466 0.0
H2316 H 0.75018 0.94818 0.58074 0.0
H2317 H 0.64906 1.00678 0.50909 0.0
H2318 H 0.69138 0.9905 0.58456 0.0
H2319 H 0.71528 0.97824 0.50869 0.0
C2320 C 0.74322 0.96086 0.52396 0.0
C2321 C 0.75415 0.95171 0.54394 0.0
C2322 C 0.6822 0.99399 0.56793 0.0
C2323 C 0.71213 0.97415 0.54556 0.0
C2324 C 0.6624 1.00614 0.56794 0.0
C2325 C 0.64945 1.01137 0.54683 0.0
C2326 C 0.6901 0.98685 0.54664 0.0
C2327 C 0.65789 1.00355 0.52598 0.0
C2328 C 0.72258 0.97155 0.52457 0.0
C2329 C 0.74269 0.95418 0.56455 0.0
N2330 N 0.67731 0.99213 0.52648 0.0
N2331 N 0.72284 0.96513 0.56482 0.0
H2332 H 0.45214 0.45078 0.73782 0.0
H2333 H 0.34101 0.34747 0.73467 0.0
H2334 H 0.38075 0.44862 0.70128 0.0
H2335 H 0.40895 0.35231 0.77907 0.0
H2336 H 0.3597 0.3788 0.71308 0.0
H2337 H 0.44106 0.40961 0.74356 0.0
C2338 C 0.43428 0.44143 0.73069 0.0
C2339 C 0.41682 0.45295 0.72013 0.0
C2340 C 0.37066 0.37285 0.72733 0.0
C2341 C 0.40424 0.40632 0.72607 0.0
C2342 C 0.35992 0.35513 0.73983 0.0
C2343 C 0.37326 0.34792 0.75919 0.0
C2344 C 0.39476 0.38378 0.73458 0.0
C2345 C 0.3979 0.3578 0.76458 0.0
C2346 C 0.42798 0.41803 0.73387 0.0
C2347 C 0.39424 0.44029 0.71044 0.0
N2348 N 0.40778 0.37562 0.75263 0.0
N2349 N 0.38841 0.41765 0.71399 0.0
H2350 H 0.19378 0.56388 0.20582 0.0
H2351 H 0.17641 0.6919 0.2327 0.0
H2352 H 0.13342 0.58264 0.23692 0.0
H2353 H 0.24005 0.67358 0.20726 0.0
H2354 H 0.15515 0.65224 0.22355 0.0
H2355 H 0.20515 0.60359 0.19506 0.0
C2356 C 0.18294 0.57645 0.21027 0.0
C2357 C 0.16358 0.57064 0.22339 0.0
C2358 C 0.17364 0.65696 0.2196 0.0
C2359 C 0.17605 0.6156 0.21106 0.0
C2360 C 0.18577 0.67962 0.22479 0.0
C2361 C 0.21024 0.68585 0.22135 0.0
C2362 C 0.1861 0.64044 0.21097 0.0
C2363 C 0.22141 0.66929 0.21086 0.0
C2364 C 0.18921 0.59897 0.20395 0.0
C2365 C 0.14915 0.58692 0.22765 0.0
N2366 N 0.20935 0.64725 0.20633 0.0
N2367 N 0.15603 0.60888 0.22205 0.0
H2368 H 0.55632 0.72713 0.48017 0.0
H2369 H 0.58315 0.59991 0.4867 0.0
H2370 H 0.5269 0.67098 0.42812 0.0
H2371 H 0.59264 0.64654 0.54871 0.0
H2372 H 0.56962 0.62918 0.46325 0.0
H2373 H 0.57504 0.70051 0.50432 0.0
C2374 C 0.55368 0.7092 0.4739 0.0
C2375 C 0.54001 0.70121 0.45213 0.0
C2376 C 0.57486 0.63316 0.48194 0.0
C2377 C 0.56169 0.67099 0.47933 0.0
C2378 C 0.58278 0.61651 0.49534 0.0
C2379 C 0.58879 0.62075 0.51973 0.0
C2380 C 0.57289 0.65429 0.49295 0.0
C2381 C 0.58819 0.64263 0.52994 0.0
C2382 C 0.56441 0.69409 0.48764 0.0
C2383 C 0.5372 0.67787 0.4448 0.0
N2384 N 0.58007 0.65861 0.51649 0.0
N2385 N 0.54806 0.66363 0.45831 0.0
H2386 H 0.66035 0.39477 0.73973 0.0
H2387 H 0.7944 0.37524 0.7546 0.0
H2388 H 0.70467 0.38914 0.68389 0.0
H2389 H 0.74505 0.36358 0.80665 0.0
H2390 H 0.76813 0.39836 0.73417 0.0
H2391 H 0.69686 0.40177 0.76816 0.0
C2392 C 0.67783 0.39578 0.73333 0.0
C2393 C 0.67947 0.39037 0.70953 0.0
C2394 C 0.76338 0.3914 0.75046 0.0
C2395 C 0.7211 0.39823 0.74194 0.0
C2396 C 0.77836 0.37826 0.76211 0.0
C2397 C 0.77145 0.36731 0.78197 0.0
C2398 C 0.74106 0.39294 0.75843 0.0
C2399 C 0.75071 0.37168 0.7912 0.0
C2400 C 0.69866 0.39975 0.74962 0.0
C2401 C 0.70256 0.39249 0.70218 0.0
N2402 N 0.73581 0.38374 0.77897 0.0
N2403 N 0.72249 0.39566 0.71843 0.0
H2404 H 0.06148 0.31418 0.92865 0.0
H2405 H 0.05193 0.44211 0.89948 0.0
H2406 H 1.03 0.33131 0.86133 0.0
H2407 H 0.08738 0.42365 0.96441 0.0
H2408 H 0.04844 0.40257 0.88296 0.0
H2409 H 0.07567 0.35491 0.93985 0.0
C2410 C 0.05763 0.32651 0.91615 0.0
C2411 C 0.04415 0.3193 0.89416 0.0
C2412 C 0.05736 0.40732 0.90068 0.0
C2413 C 0.06031 0.36615 0.90697 0.0
C2414 C 0.0593 0.42986 0.91014 0.0
C2415 C 0.06968 0.43617 0.93349 0.0
C2416 C 0.06571 0.39097 0.91473 0.0
C2417 C 0.07933 0.4197 0.94632 0.0
C2418 C 0.06584 0.34982 0.92254 0.0
C2419 C 0.04011 0.33609 0.87856 0.0
N2420 N 0.0768 0.39782 0.93689 0.0
N2421 N 0.04787 0.35878 0.8854 0.0
H2422 H 0.04679 0.7999 0.17254 0.0
H2423 H 1.0151 0.82026 0.30347 0.0
H2424 H 0.08452 0.85509 0.22276 0.0
H2425 H 0.96977 0.77072 0.2519 0.0
H2426 H 0.04271 0.83084 0.27443 0.0
H2427 H 1.01924 0.78728 0.20142 0.0
C2428 C 0.04915 0.80947 0.18949 0.0
C2429 C 0.0681 0.82847 0.19528 0.0
C2430 C 1.02679 0.81756 0.26946 0.0
C2431 C 0.03701 0.81401 0.22832 0.0
C2432 C 1.01109 0.8115 0.28605 0.0
C2433 C 0.99011 0.79471 0.28001 0.0
C2434 C 1.02146 0.80677 0.24663 0.0
C2435 C 0.98589 0.78364 0.25731 0.0
C2436 C 0.03354 0.80219 0.20599 0.0
C2437 C 0.07035 0.84021 0.21753 0.0
N2438 N 1.00137 0.78998 0.24133 0.0
N2439 N 0.05509 0.83272 0.23322 0.0
H2440 H 0.59145 0.38349 0.15406 0.0
H2441 H 0.57519 0.45916 0.0393 0.0
H2442 H 0.55041 0.35483 0.08824 0.0
H2443 H 0.59331 0.49191 0.1092 0.0
H2444 H 0.57074 0.42129 0.05611 0.0
H2445 H 0.59672 0.42203 0.13815 0.0
C2446 C 0.58353 0.38494 0.13628 0.0
C2447 C 0.57023 0.3648 0.12294 0.0
C2448 C 0.57584 0.43666 0.06794 0.0
C2449 C 0.57683 0.41052 0.10376 0.0
C2450 C 0.57855 0.4587 0.05819 0.0
C2451 C 0.58487 0.47979 0.07238 0.0
C2452 C 0.57981 0.43461 0.09255 0.0
C2453 C 0.58852 0.47681 0.09699 0.0
C2454 C 0.58656 0.40735 0.12707 0.0
C2455 C 0.56072 0.36908 0.09979 0.0
N2456 N 0.58617 0.45523 0.10597 0.0
N2457 N 0.5643 0.39076 0.09122 0.0
H2458 H 1.01576 0.31534 0.41759 0.0
H2459 H 0.91057 0.26403 0.31078 0.0
H2460 H 1.02843 0.26821 0.36289 0.0
H2461 H 0.91528 0.33067 0.34649 0.0
H2462 H 0.95027 0.26136 0.3325 0.0
H2463 H 0.97602 0.31694 0.39557 0.0
C2464 C 1.01026 0.30527 0.40095 0.0
C2465 C 1.02625 0.29227 0.3919 0.0
C2466 C 0.94263 0.27658 0.33562 0.0
C2467 C 0.97952 0.29331 0.36655 0.0
C2468 C 0.91977 0.27812 0.32317 0.0
C2469 C 0.90908 0.2977 0.32643 0.0
C2470 C 0.95505 0.29441 0.35224 0.0
C2471 C 0.92243 0.31525 0.34298 0.0
C2472 C 0.98742 0.30621 0.38829 0.0
C2473 C 1.01734 0.2791 0.3704 0.0
N2474 N 0.94423 0.31309 0.35522 0.0
N2475 N 0.99486 0.27994 0.35863 0.0
H2476 H 0.08486 0.71511 0.66031 0.0
H2477 H 0.053 0.6275 0.54079 0.0
H2478 H 0.05291 0.73485 0.59479 0.0
H2479 H 0.09453 0.61203 0.6034 0.0
H2480 H 0.05082 0.66511 0.56034 0.0
H2481 H 0.08645 0.67733 0.64083 0.0
C2482 C 0.07795 0.71169 0.64186 0.0
C2483 C 0.06858 0.72909 0.62968 0.0
C2484 C 0.06042 0.65358 0.56997 0.0
C2485 C 0.07043 0.68416 0.6064 0.0
C2486 C 0.06166 0.63171 0.55867 0.0
C2487 C 0.07402 0.61561 0.56998 0.0
C2488 C 0.07138 0.66028 0.59335 0.0
C2489 C 0.08475 0.62317 0.59341 0.0
C2490 C 0.07897 0.68977 0.63057 0.0
C2491 C 0.06025 0.72263 0.60547 0.0
N2492 N 0.08311 0.64437 0.604 0.0
N2493 N 0.0613 0.7012 0.59498 0.0
H2494 H 0.6578 0.76977 0.89687 0.0
H2495 H 0.77204 0.83756 0.83604 0.0
H2496 H 0.66438 0.84062 0.88124 0.0
H2497 H 0.75089 0.7639 0.82764 0.0
H2498 H 0.73629 0.83931 0.85685 0.0
H2499 H 0.69432 0.76754 0.87704 0.0
C2500 C 0.66703 0.78509 0.88987 0.0
C2501 C 0.65743 0.80558 0.89151 0.0
C2502 C 0.73933 0.82268 0.8505 0.0
C2503 C 0.70042 0.80304 0.86794 0.0
C2504 C 0.76003 0.82164 0.83841 0.0
C2505 C 0.76514 0.80053 0.82938 0.0
C2506 C 0.72316 0.80244 0.85462 0.0
C2507 C 0.7482 0.78074 0.83371 0.0
C2508 C 0.688 0.78371 0.87814 0.0
C2509 C 0.67062 0.8244 0.88103 0.0
N2510 N 0.72856 0.78218 0.84591 0.0
N2511 N 0.691 0.82272 0.87017 0.0
H2512 H 0.44187 0.57542 0.66772 0.0
H2513 H 0.55317 0.54929 0.61993 0.0
H2514 H 0.44362 0.50542 0.64497 0.0
H2515 H 0.52271 0.60303 0.58662 0.0
H2516 H 0.51423 0.53559 0.63408 0.0
H2517 H 0.47054 0.58886 0.64004 0.0
C2518 C 0.44736 0.56295 0.65598 0.0
C2519 C 0.44045 0.53935 0.65836 0.0
C2520 C 0.51615 0.55039 0.62366 0.0
C2521 C 0.47395 0.55444 0.62811 0.0
C2522 C 0.53843 0.55849 0.61603 0.0
C2523 C 0.54117 0.57757 0.60252 0.0
C2524 C 0.49673 0.56177 0.61823 0.0
C2525 C 0.52128 0.58847 0.59735 0.0
C2526 C 0.46382 0.57059 0.64041 0.0
C2527 C 0.44842 0.52375 0.64334 0.0
N2528 N 0.49984 0.58063 0.60556 0.0
N2529 N 0.46552 0.53157 0.62935 0.0
H2530 H 0.77852 0.20687 0.94138 0.0
H2531 H 0.82189 0.32304 0.88156 0.0
H2532 H 0.8179 0.26827 0.98185 0.0
H2533 H 0.77122 0.2648 0.84623 0.0
H2534 H 0.82009 0.30436 0.91848 0.0
H2535 H 0.77536 0.22855 0.90693 0.0
C2536 C 0.78645 0.22501 0.94317 0.0
C2537 C 0.7986 0.23565 0.96481 0.0
C2538 C 0.80914 0.2958 0.90272 0.0
C2539 C 0.79517 0.26082 0.92465 0.0
C2540 C 0.81011 0.30646 0.88154 0.0
C2541 C 0.79672 0.29551 0.86053 0.0
C2542 C 0.79487 0.27385 0.90301 0.0
C2543 C 0.78184 0.27401 0.86183 0.0
C2544 C 0.78456 0.23744 0.92331 0.0
C2545 C 0.80835 0.25929 0.96566 0.0
N2546 N 0.78152 0.26385 0.88258 0.0
N2547 N 0.80665 0.27102 0.94583 0.0
H2548 H 0.07777 0.47071 0.21328 0.0
H2549 H 0.08624 0.47186 0.07773 0.0
H2550 H 0.14093 0.4649 0.17907 0.0
H2551 H 0.03967 0.50605 0.11579 0.0
H2552 H 0.09344 0.44927 0.11145 0.0
H2553 H 0.05275 0.46314 0.17513 0.0
C2554 C 0.08626 0.46688 0.1979 0.0
C2555 C 0.1116 0.46924 0.19917 0.0
C2556 C 0.08068 0.46087 0.11198 0.0
C2557 C 0.08308 0.46059 0.15566 0.0
C2558 C 0.07636 0.47357 0.09267 0.0
C2559 C 0.06244 0.49079 0.0942 0.0
C2560 C 0.07109 0.46568 0.13283 0.0
C2561 C 0.0505 0.49285 0.11406 0.0
C2562 C 0.07193 0.46262 0.17613 0.0
C2563 C 0.12153 0.46385 0.17874 0.0
N2564 N 0.05552 0.4808 0.13289 0.0
N2565 N 0.10732 0.46031 0.15769 0.0
H2566 H 0.80488 0.91729 0.45547 0.0
H2567 H 0.85125 0.81019 0.39186 0.0
H2568 H 0.83016 0.86482 0.49514 0.0
H2569 H 0.8094 0.85342 0.35387 0.0
H2570 H 0.84601 0.83047 0.42903 0.0
H2571 H 0.80828 0.89537 0.41892 0.0
C2572 C 0.81094 0.90103 0.45674 0.0
C2573 C 0.81685 0.8932 0.47923 0.0
C2574 C 0.83792 0.83561 0.41264 0.0
C2575 C 0.82156 0.86747 0.43586 0.0
C2576 C 0.84098 0.82396 0.39108 0.0
C2577 C 0.83088 0.82972 0.36892 0.0
C2578 C 0.82483 0.85385 0.41278 0.0
C2579 C 0.81769 0.84795 0.37 0.0
C2580 C 0.81297 0.88841 0.4355 0.0
C2581 C 0.8249 0.87182 0.47873 0.0
N2582 N 0.81528 0.85919 0.39112 0.0
N2583 N 0.82715 0.86006 0.45778 0.0
H2584 H 0.4458 0.54003 0.8128 0.0
H2585 H 0.55695 0.50109 0.87087 0.0
H2586 H 0.48916 0.5101 0.76684 0.0
H2587 H 0.55485 0.57335 0.88354 0.0
H2588 H 0.52894 0.49978 0.83539 0.0
H2589 H 0.48121 0.54812 0.8434 0.0
C2590 C 0.46276 0.53526 0.80921 0.0
C2591 C 0.46477 0.52448 0.78743 0.0
C2592 C 0.53496 0.51594 0.84592 0.0
C2593 C 0.50459 0.53322 0.82196 0.0
C2594 C 0.55126 0.51689 0.86616 0.0
C2595 C 0.55818 0.53732 0.8809 0.0
C2596 C 0.52489 0.53523 0.84071 0.0
C2597 C 0.5494 0.55692 0.87351 0.0
C2598 C 0.48287 0.54004 0.82645 0.0
C2599 C 0.48706 0.5186 0.78344 0.0
N2600 N 0.53262 0.55524 0.85428 0.0
N2601 N 0.50606 0.52267 0.80074 0.0
H2602 H 0.84201 0.27651 0.09709 0.0
H2603 H 0.83412 0.2433 0.23017 0.0
H2604 H 0.82395 0.20698 0.11716 0.0
H2605 H 0.86175 0.31218 0.21256 0.0
H2606 H 0.83127 0.22989 0.18884 0.0
H2607 H 0.85009 0.29015 0.13892 0.0
C2608 C 0.83989 0.26409 0.11024 0.0
C2609 C 0.83222 0.24053 0.10347 0.0
C2610 C 0.83815 0.24792 0.19397 0.0
C2611 C 0.8413 0.25607 0.15151 0.0
C2612 C 0.83983 0.25562 0.21768 0.0
C2613 C 0.84819 0.27897 0.22504 0.0
C2614 C 0.8446 0.26364 0.17719 0.0
C2615 C 0.85531 0.29402 0.20784 0.0
C2616 C 0.84451 0.2719 0.13415 0.0
C2617 C 0.82978 0.22529 0.1214 0.0
N2618 N 0.85315 0.28615 0.18477 0.0
N2619 N 0.83415 0.2333 0.14444 0.0
H2620 H 0.16543 0.57956 0.32474 0.0
H2621 H 0.09147 0.62691 0.3936 0.0
H2622 H 0.10075 0.53191 0.2945 0.0
H2623 H 0.04211 0.56211 0.37566 0.0
H2624 H 0.11423 0.61797 0.36165 0.0
H2625 H 0.14121 0.59766 0.3498 0.0
C2626 C 0.14609 0.57293 0.32328 0.0
C2627 C 0.13518 0.55404 0.30752 0.0
C2628 C 0.0984 0.60572 0.36471 0.0
C2629 C 0.107 0.57538 0.33568 0.0
C2630 C 0.08519 0.61099 0.38276 0.0
C2631 C 0.06516 0.59503 0.38784 0.0
C2632 C 0.09158 0.58427 0.35179 0.0
C2633 C 0.05743 0.57501 0.37267 0.0
C2634 C 0.13213 0.58361 0.33737 0.0
C2635 C 0.11003 0.5463 0.30647 0.0
N2636 N 0.07088 0.57005 0.35564 0.0
N2637 N 0.09686 0.55691 0.32046 0.0
H2638 H 0.8016 0.85386 0.60659 0.0
H2639 H 0.83812 0.86656 0.7494 0.0
H2640 H 0.83319 0.91883 0.64428 0.0
H2641 H 0.80543 0.80237 0.71066 0.0
H2642 H 0.83624 0.88586 0.7123 0.0
H2643 H 0.80263 0.83539 0.64406 0.0
C2644 C 0.80871 0.86446 0.62264 0.0
C2645 C 0.81721 0.88836 0.62146 0.0
C2646 C 0.82937 0.86756 0.71178 0.0
C2647 C 0.81861 0.86652 0.66597 0.0
C2648 C 0.83038 0.85634 0.73328 0.0
C2649 C 0.82182 0.83237 0.73402 0.0
C2650 C 0.81976 0.8551 0.69 0.0
C2651 C 0.81222 0.82071 0.71175 0.0
C2652 C 0.80933 0.85371 0.64434 0.0
C2653 C 0.82626 0.90053 0.64361 0.0
N2654 N 0.81153 0.83196 0.69119 0.0
N2655 N 0.82671 0.88966 0.66446 0.0
H2656 H 0.78885 0.45573 0.51399 0.0
H2657 H 0.73798 0.51888 0.61715 0.0
H2658 H 0.79682 0.4346 0.58469 0.0
H2659 H 0.70508 0.51443 0.54518 0.0
H2660 H 0.76275 0.49074 0.60602 0.0
H2661 H 0.76 0.47937 0.52516 0.0
C2662 C 0.78406 0.4557 0.53175 0.0
C2663 C 0.79498 0.44306 0.5484 0.0
C2664 C 0.75001 0.4959 0.59275 0.0
C2665 C 0.7628 0.47073 0.56156 0.0
C2666 C 0.73612 0.51206 0.59903 0.0
C2667 C 0.71954 0.51891 0.58204 0.0
C2668 C 0.74758 0.48696 0.56925 0.0
C2669 C 0.7176 0.50949 0.55881 0.0
C2670 C 0.76773 0.46926 0.53815 0.0
C2671 C 0.78847 0.44384 0.57127 0.0
N2672 N 0.73156 0.49414 0.55307 0.0
N2673 N 0.77307 0.45779 0.57732 0.0
H2674 H 0.29583 0.11159 0.54924 0.0
H2675 H 0.15501 0.11281 0.55487 0.0
H2676 H 0.2645 0.16819 0.5246 0.0
H2677 H 0.17637 0.04975 0.53266 0.0
H2678 H 0.1962 0.13377 0.55137 0.0
H2679 H 0.25458 0.08921 0.55022 0.0
C2680 C 0.28037 0.11916 0.5433 0.0
C2681 C 0.28417 0.14156 0.53537 0.0
C2682 C 0.19199 0.11533 0.54733 0.0
C2683 C 0.23599 0.11634 0.53857 0.0
C2684 C 0.16832 0.1032 0.54947 0.0
C2685 C 0.16164 0.07917 0.54415 0.0
C2686 C 0.21003 0.10358 0.54053 0.0
C2687 C 0.18021 0.06813 0.53699 0.0
C2688 C 0.25664 0.10641 0.54428 0.0
C2689 C 0.26292 0.15083 0.53005 0.0
N2690 N 0.20332 0.08023 0.53573 0.0
N2691 N 0.24013 0.13841 0.53184 0.0
H2692 H 0.30951 0.04582 0.89221 0.0
H2693 H 0.28555 0.9422 0.79456 0.0
H2694 H 0.23808 1.00953 0.86292 0.0
H2695 H 0.35406 0.96095 0.83902 0.0
H2696 H 0.2689 0.96922 0.81835 0.0
H2697 H 0.32718 1.01598 0.87318 0.0
C2698 C 0.29751 0.0314 0.8822 0.0
C2699 C 0.2723 0.03042 0.87874 0.0
C2700 C 0.28757 0.96741 0.82297 0.0
C2701 C 0.29238 0.99668 0.85674 0.0
C2702 C 0.2971 0.95205 0.80934 0.0
C2703 C 0.32115 0.94923 0.81493 0.0
C2704 C 0.30226 0.98025 0.84222 0.0
C2705 C 0.33548 0.96279 0.83398 0.0
C2706 C 0.30763 1.01447 0.87126 0.0
C2707 C 0.25764 1.01127 0.86569 0.0
N2708 N 0.32579 0.97777 0.84701 0.0
N2709 N 0.26793 0.99535 0.8549 0.0
H2710 H 0.39714 0.96188 0.08057 0.0
H2711 H 0.51596 0.99296 0.02084 0.0
H2712 H 0.41944 0.91484 0.03147 0.0
H2713 H 0.50791 0.02846 0.08618 0.0
H2714 H 0.48121 0.96365 0.02572 0.0
H2715 H 0.438 0.98547 0.08502 0.0
C2716 C 0.41082 0.95651 0.07085 0.0
C2717 C 0.40493 0.93703 0.05492 0.0
C2718 C 0.48709 0.97765 0.03918 0.0
C2719 C 0.45147 0.96361 0.06002 0.0
C2720 C 0.50679 0.99458 0.03628 0.0
C2721 C 0.51451 1.01337 0.05296 0.0
C2722 C 0.47455 0.97968 0.05868 0.0
C2723 C 0.50233 1.01431 0.07286 0.0
C2724 C 0.43413 0.96981 0.07356 0.0
C2725 C 0.42326 0.93017 0.04339 0.0
N2726 N 0.48257 0.99786 0.07498 0.0
N2727 N 0.44565 0.94376 0.04575 0.0
H2728 H 0.99411 0.65983 0.80295 0.0
H2729 H 0.85466 0.67013 0.79675 0.0
H2730 H 0.9505 0.64731 0.85977 0.0
H2731 H 0.8971 0.6876 0.73989 0.0
H2732 H 0.89025 0.6618 0.81965 0.0
H2733 H 0.96035 0.67284 0.78033 0.0
C2734 C 0.97774 0.66051 0.81098 0.0
C2735 C 0.97499 0.65226 0.8332 0.0
C2736 C 0.89186 0.66731 0.80211 0.0
C2737 C 0.93622 0.66642 0.8072 0.0
C2738 C 0.87133 0.67165 0.78875 0.0
C2739 C 0.87272 0.67934 0.76614 0.0
C2740 C 0.91415 0.67068 0.79297 0.0
C2741 C 0.89519 0.68174 0.75724 0.0
C2742 C 0.95836 0.66762 0.79791 0.0
C2743 C 0.9533 0.65329 0.84261 0.0
N2744 N 0.91508 0.67746 0.77071 0.0
N2745 N 0.93466 0.65991 0.82944 0.0
H2746 H 0.90577 0.61575 1.00999 0.0
H2747 H 1.03206 0.60206 0.08798 0.0
H2748 H 0.93037 0.65558 0.07589 0.0
H2749 H 1.00486 0.56619 0.02056 0.0
H2750 H 0.99662 0.6216 0.085 0.0
H2751 H 0.94192 0.59841 1.01452 0.0
C2752 C 0.91871 0.62119 0.02553 0.0
C2753 C 0.91406 0.63776 0.04241 0.0
C2754 C 0.9983 0.60947 0.07081 0.0
C2755 C 0.95738 0.61672 0.04796 0.0
C2756 C 1.0188 0.59809 0.0725 0.0
C2757 C 1.02224 0.58193 0.05457 0.0
C2758 C 0.98033 0.60504 0.05095 0.0
C2759 C 1.00372 0.57818 0.03508 0.0
C2760 C 0.93973 0.61097 0.0281 0.0
C2761 C 0.93247 0.64329 0.06203 0.0
N2762 N 0.98412 0.58936 0.03391 0.0
N2763 N 0.95285 0.63292 0.0642 0.0
H2764 H 0.27795 0.12936 0.86015 0.0
H2765 H 0.33069 0.24329 0.85874 0.0
H2766 H 0.21881 0.15686 0.8848 0.0
H2767 H 0.26598 0.2387 0.8094 0.0
H2768 H 0.31065 0.21014 0.87719 0.0
H2769 H 0.29593 0.16758 0.85005 0.0
C2770 C 0.2692 0.14365 0.86418 0.0
C2771 C 0.24773 0.14037 0.87465 0.0
C2772 C 0.30079 0.21677 0.86261 0.0
C2773 C 0.26713 0.18356 0.86144 0.0
C2774 C 0.31215 0.23555 0.85195 0.0
C2775 C 0.30013 0.24346 0.83215 0.0
C2776 C 0.2772 0.20598 0.85361 0.0
C2777 C 0.27602 0.23285 0.82435 0.0
C2778 C 0.27924 0.16529 0.85807 0.0
C2779 C 0.23593 0.15906 0.87758 0.0
N2780 N 0.26533 0.21437 0.835 0.0
N2781 N 0.24575 0.18006 0.87083 0.0
H2782 H 0.54524 0.04812 0.39266 0.0
H2783 H 0.43864 0.96184 0.31165 0.0
H2784 H 0.49505 0.06734 0.33844 0.0
H2785 H 0.47437 0.94126 0.37541 0.0
H2786 H 0.46569 0.99888 0.31763 0.0
H2787 H 0.52489 1.00745 0.38387 0.0
C2788 C 0.53006 0.0437 0.3789 0.0
C2789 C 0.52132 0.0609 0.36657 0.0
C2790 C 0.46782 0.98623 0.33026 0.0
C2791 C 0.49873 1.01507 0.35601 0.0
C2792 C 0.45253 0.96487 0.32667 0.0
C2793 C 0.45407 0.94833 0.34309 0.0
C2794 C 0.48482 0.99135 0.3505 0.0
C2795 C 0.47225 0.95364 0.36249 0.0
C2796 C 0.51852 0.02064 0.37388 0.0
C2797 C 0.50193 0.05453 0.34866 0.0
N2798 N 0.48681 0.97481 0.36581 0.0
N2799 N 0.49128 0.0322 0.34398 0.0
H2800 H 0.57185 0.37981 0.59653 0.0
H2801 H 0.60274 0.51547 0.61936 0.0
H2802 H 0.60705 0.41571 0.66224 0.0
H2803 H 0.54882 0.48239 0.56288 0.0
H2804 H 0.60397 0.47833 0.635 0.0
H2805 H 0.56249 0.41632 0.58328 0.0
C2806 C 0.57743 0.39524 0.60824 0.0
C2807 C 0.59055 0.39468 0.63042 0.0
C2808 C 0.59161 0.4791 0.61934 0.0
C2809 C 0.57996 0.4363 0.61538 0.0
C2810 C 0.59095 0.50031 0.61039 0.0
C2811 C 0.57574 0.50189 0.58979 0.0
C2812 C 0.5773 0.45915 0.60736 0.0
C2813 C 0.56073 0.4818 0.5789 0.0
C2814 C 0.57202 0.41603 0.60068 0.0
C2815 C 0.5972 0.41522 0.64487 0.0
N2816 N 0.56214 0.46108 0.58763 0.0
N2817 N 0.59202 0.43514 0.63702 0.0
H2818 H 0.45835 0.77642 0.41137 0.0
H2819 H 0.34756 0.75093 0.30887 0.0
H2820 H 0.44254 0.714 0.36606 0.0
H2821 H 0.38229 0.81738 0.34209 0.0
H2822 H 0.3735 0.73282 0.3368 0.0
H2823 H 0.41999 0.78616 0.39502 0.0
C2824 C 0.44655 0.76466 0.39809 0.0
C2825 C 0.45397 0.74516 0.38888 0.0
C2826 C 0.37505 0.75133 0.3381 0.0
C2827 C 0.41028 0.75602 0.3702 0.0
C2828 C 0.36057 0.76165 0.32205 0.0
C2829 C 0.36338 0.7857 0.32281 0.0
C2830 C 0.39175 0.76525 0.35532 0.0
C2831 C 0.38002 0.79885 0.34045 0.0
C2832 C 0.42468 0.77016 0.38881 0.0
C2833 C 0.43777 0.72987 0.37254 0.0
N2834 N 0.3935 0.78847 0.35598 0.0
N2835 N 0.41676 0.73589 0.36318 0.0
H2836 H 0.16625 0.80695 0.13526 0.0
H2837 H 0.14237 0.68046 0.18082 0.0
H2838 H 0.13324 0.79004 0.19775 0.0
H2839 H 0.15217 0.69399 0.10904 0.0
H2840 H 0.14928 0.72192 0.19102 0.0
H2841 H 0.17145 0.7668 0.12934 0.0
C2842 C 0.15998 0.79467 0.14758 0.0
C2843 C 0.14814 0.80122 0.16626 0.0
C2844 C 0.15011 0.71578 0.17308 0.0
C2845 C 0.15471 0.75594 0.16023 0.0
C2846 C 0.14629 0.69216 0.16728 0.0
C2847 C 0.14631 0.68381 0.14397 0.0
C2848 C 0.15414 0.73111 0.15548 0.0
C2849 C 0.15145 0.69973 0.12712 0.0
C2850 C 0.16316 0.77193 0.14439 0.0
C2851 C 0.14161 0.78524 0.18262 0.0
N2852 N 0.15501 0.72264 0.13317 0.0
N2853 N 0.14462 0.76319 0.17904 0.0
H2854 H 0.06026 0.2279 0.82243 0.0
H2855 H 0.19995 0.28025 0.84812 0.0
H2856 H 0.09789 0.24697 0.89232 0.0
H2857 H 0.16521 0.25009 0.77994 0.0
H2858 H 0.16385 0.26377 0.86531 0.0
H2859 H 0.09926 0.23061 0.80731 0.0
C2860 C 0.07675 0.23225 0.83466 0.0
C2861 C 0.07589 0.23777 0.85857 0.0
C2862 C 0.16419 0.26051 0.84663 0.0
C2863 C 0.12051 0.24124 0.84135 0.0
C2864 C 0.18484 0.26991 0.83678 0.0
C2865 C 0.18551 0.26677 0.81248 0.0
C2866 C 0.14391 0.24812 0.83206 0.0
C2867 C 0.16525 0.25343 0.79866 0.0
C2868 C 0.09902 0.23379 0.82601 0.0
C2869 C 0.09775 0.24286 0.8737 0.0
N2870 N 0.14515 0.2448 0.80862 0.0
N2871 N 0.11923 0.24496 0.86474 0.0
H2872 H 0.57613 0.70795 0.9227 0.0
H2873 H 0.58837 0.63654 0.04111 0.0
H2874 H 0.59795 0.74117 0.99206 0.0
H2875 H 0.57176 0.6024 0.97174 0.0
H2876 H 0.5908 0.67391 0.02371 0.0
H2877 H 0.57356 0.67015 0.93963 0.0
C2878 C 0.58048 0.7076 0.94151 0.0
C2879 C 0.58742 0.7288 0.95553 0.0
C2880 C 0.58654 0.65837 1.0121 0.0
C2881 C 0.58421 0.68377 0.97583 0.0
C2882 C 0.58504 0.63657 0.02218 0.0
C2883 C 0.57964 0.61521 1.00837 0.0
C2884 C 0.58261 0.65993 0.98745 0.0
C2885 C 0.57585 0.61768 0.9837 0.0
C2886 C 0.57896 0.6856 0.95131 0.0
C2887 C 0.5926 0.726 0.97999 0.0
N2888 N 0.57734 0.63907 0.97436 0.0
N2889 N 0.59086 0.7045 0.98903 0.0
H2890 H 0.12606 0.78769 0.72323 0.0
H2891 H 0.24107 0.78521 0.78434 0.0
H2892 H 0.16369 0.82595 0.67255 0.0
H2893 H 0.27108 0.83332 0.73692 0.0
H2894 H 0.20073 0.78368 0.76324 0.0
H2895 H 0.16483 0.78826 0.74708 0.0
C2896 C 0.14251 0.79645 0.71711 0.0
C2897 C 0.14099 0.80736 0.69589 0.0
C2898 C 0.21582 0.79487 0.75731 0.0
C2899 C 0.18721 0.80741 0.72341 0.0
C2900 C 0.2393 0.79569 0.76958 0.0
C2901 C 0.26019 0.80953 0.76288 0.0
C2902 C 0.2124 0.80795 0.73765 0.0
C2903 C 0.25594 0.82241 0.74318 0.0
C2904 C 0.1651 0.79654 0.73079 0.0
C2905 C 0.1635 0.8176 0.68886 0.0
N2906 N 0.23293 0.82125 0.73146 0.0
N2907 N 0.18529 0.81755 0.70249 0.0
H2908 H 0.09591 0.38579 0.41419 0.0
H2909 H 0.09874 0.46483 0.53558 0.0
H2910 H 0.09751 0.3558 0.48092 0.0
H2911 H 0.08487 0.4879 0.46646 0.0
H2912 H 0.10071 0.42646 0.51756 0.0
H2913 H 0.09449 0.42287 0.43387 0.0
C2914 C 0.09614 0.38668 0.43309 0.0
C2915 C 0.09694 0.36651 0.44537 0.0
C2916 C 0.09728 0.43984 0.50622 0.0
C2917 C 0.0953 0.41121 0.46901 0.0
C2918 C 0.0962 0.46213 0.51661 0.0
C2919 C 0.09167 0.48058 0.50291 0.0
C2920 C 0.09408 0.43516 0.4815 0.0
C2921 C 0.08846 0.47492 0.47825 0.0
C2922 C 0.09524 0.40837 0.44446 0.0
C2923 C 0.09706 0.37017 0.47012 0.0
N2924 N 0.08982 0.4533 0.46867 0.0
N2925 N 0.09632 0.39166 0.48085 0.0
H2926 H 0.5253 0.31277 0.21829 0.0
H2927 H 0.38172 0.26876 0.23063 0.0
H2928 H 0.47253 0.28181 0.1603 0.0
H2929 H 0.4269 0.31826 0.28189 0.0
H2930 H 0.41575 0.27027 0.2072 0.0
H2931 H 0.49203 0.31215 0.24322 0.0
C2932 C 0.50688 0.30576 0.21058 0.0
C2933 C 0.50248 0.29742 0.18653 0.0
C2934 C 0.41848 0.28081 0.2236 0.0
C2935 C 0.46311 0.29628 0.21604 0.0
C2936 C 0.39877 0.27988 0.23733 0.0
C2937 C 0.40062 0.29328 0.25893 0.0
C2938 C 0.44132 0.29503 0.23107 0.0
C2939 C 0.42388 0.30741 0.2657 0.0
C2940 C 0.48762 0.30546 0.22504 0.0
C2941 C 0.47757 0.28864 0.17838 0.0
N2942 N 0.44292 0.30775 0.25215 0.0
N2943 N 0.45941 0.28817 0.19281 0.0
H2944 H 0.72377 0.54971 0.46603 0.0
H2945 H 0.58557 0.52813 0.48174 0.0
H2946 H 0.66617 0.54887 0.40948 0.0
H2947 H 0.64218 0.52072 0.5361 0.0
H2948 H 0.61343 0.52529 0.45251 0.0
H2949 H 0.6938 0.53087 0.48979 0.0
C2950 C 0.70488 0.5455 0.45857 0.0
C2951 C 0.69744 0.55144 0.43595 0.0
C2952 C 0.61959 0.52355 0.47076 0.0
C2953 C 0.66305 0.52973 0.46293 0.0
C2954 C 0.60353 0.52486 0.48738 0.0
C2955 C 0.61195 0.52531 0.51128 0.0
C2956 C 0.64407 0.52301 0.47836 0.0
C2957 C 0.63534 0.52105 0.51778 0.0
C2958 C 0.68778 0.53454 0.47205 0.0
C2959 C 0.67275 0.54511 0.42702 0.0
N2960 N 0.65088 0.52074 0.50147 0.0
N2961 N 0.65643 0.53492 0.44065 0.0
H2962 H 0.34826 0.92065 0.1346 0.0
H2963 H 0.32849 0.81328 0.21438 0.0
H2964 H 0.32109 0.85086 0.10604 0.0
H2965 H 0.34923 0.88377 0.24301 0.0
H2966 H 0.32795 0.82648 0.17481 0.0
H2967 H 0.35006 0.90733 0.17416 0.0
C2968 C 0.34253 0.90248 0.13661 0.0
C2969 C 0.33445 0.88687 0.11681 0.0
C2970 C 0.33276 0.83908 0.18971 0.0
C2971 C 0.33675 0.87138 0.16247 0.0
C2972 C 0.33324 0.83156 0.21244 0.0
C2973 C 0.33895 0.8474 0.2323 0.0
C2974 C 0.33805 0.86271 0.18655 0.0
C2975 C 0.3448 0.87086 0.22838 0.0
C2976 C 0.34363 0.89488 0.1593 0.0
C2977 C 0.32733 0.86355 0.1207 0.0
N2978 N 0.34411 0.87777 0.20604 0.0
N2979 N 0.32873 0.85653 0.14302 0.0
H2980 H 1.02682 0.63537 0.93389 0.0
H2981 H 0.12069 0.57601 0.98727 0.0
H2982 H 0.08845 0.63059 0.8968 0.0
H2983 H 0.09129 0.62189 0.03218 0.0
H2984 H 0.11331 0.59963 0.95461 0.0
H2985 H 0.05261 0.63561 0.97099 0.0
C2986 C 0.04592 0.63507 0.93358 0.0
C2987 C 0.05533 0.63223 0.91228 0.0
C2988 C 0.10924 0.60497 0.97182 0.0
C2989 C 0.08467 0.63201 0.95442 0.0
C2990 C 0.11332 0.5914 0.9904 0.0
C2991 C 0.10594 0.59667 1.01219 0.0
C2992 C 0.09705 0.62336 0.97503 0.0
C2993 C 0.09679 0.61697 1.01547 0.0
C2994 C 0.06068 0.63533 0.95475 0.0
C2995 C 0.08031 0.6323 0.91285 0.0
N2996 N 0.09181 0.62921 0.99683 0.0
N2997 N 0.09398 0.63132 0.93361 0.0
H2998 H 0.35503 0.175 0.6309 0.0
H2999 H 0.33084 0.28631 0.70701 0.0
H3000 H 0.3562 0.24058 0.60193 0.0
H3001 H 0.35843 0.23154 0.74071 0.0
H3002 H 0.33554 0.26832 0.66852 0.0
H3003 H 0.35214 0.19314 0.67 0.0
C3004 C 0.35479 0.19323 0.63256 0.0
C3005 C 0.35616 0.20599 0.61239 0.0
C3006 C 0.34057 0.2601 0.68425 0.0
C3007 C 0.35204 0.22732 0.65827 0.0
C3008 C 0.3378 0.27044 0.70654 0.0
C3009 C 0.34413 0.26076 0.72791 0.0
C3010 C 0.34931 0.23925 0.68244 0.0
C3011 C 0.35319 0.24002 0.72523 0.0
C3012 C 0.35311 0.20368 0.65518 0.0
C3013 C 0.35549 0.2297 0.61648 0.0
N3014 N 0.35522 0.23006 0.70333 0.0
N3015 N 0.35327 0.23929 0.63846 0.0
H3016 H 0.733 0.59254 0.29791 0.0
H3017 H 0.62386 0.53493 0.2001 0.0
H3018 H 0.67379 0.53926 0.31052 0.0
H3019 H 0.67082 0.59981 0.19389 0.0
H3020 H 0.64758 0.53127 0.23754 0.0
H3021 H 0.71587 0.59016 0.25655 0.0
C3022 C 0.71661 0.58012 0.29189 0.0
C3023 C 0.70455 0.5663 0.30763 0.0
C3024 C 0.65279 0.54622 0.22789 0.0
C3025 C 0.685 0.56352 0.26063 0.0
C3026 C 0.63935 0.54827 0.20652 0.0
C3027 C 0.64528 0.56783 0.1941 0.0
C3028 C 0.67234 0.56381 0.2368 0.0
C3029 C 0.66543 0.58467 0.2032 0.0
C3030 C 0.70682 0.57884 0.26836 0.0
C3031 C 0.68344 0.55045 0.29898 0.0
N3032 N 0.6782 0.58234 0.22411 0.0
N3033 N 0.67422 0.5496 0.27606 0.0
H3034 H 0.32366 0.92145 0.95767 0.0
H3035 H 0.31912 0.80381 0.87992 0.0
H3036 H 0.32967 0.85788 0.98919 0.0
H3037 H 0.32363 0.87053 0.85226 0.0
H3038 H 0.31888 0.82175 0.9194 0.0
H3039 H 0.31926 0.90157 0.919 0.0
C3040 C 0.3239 0.90319 0.95658 0.0
C3041 C 0.32723 0.89148 0.97708 0.0
C3042 C 0.31977 0.83242 0.90467 0.0
C3043 C 0.3222 0.8683 0.93194 0.0
C3044 C 0.3198 0.82219 0.88202 0.0
C3045 C 0.32139 0.8356 0.86249 0.0
C3046 C 0.32118 0.85631 0.90799 0.0
C3047 C 0.3224 0.85937 0.86659 0.0
C3048 C 0.32141 0.89182 0.93427 0.0
C3049 C 0.32712 0.86772 0.97406 0.0
N3050 N 0.3223 0.86886 0.88873 0.0
N3051 N 0.32481 0.85697 0.95197 0.0
H3052 H 1.01886 0.6185 0.7589 0.0
H3053 H 0.13234 0.60638 0.69128 0.0
H3054 H 0.09254 0.63769 0.79274 0.0
H3055 H 0.059 0.5685 0.67375 0.0
H3056 H 0.11883 0.6271 0.72415 0.0
H3057 H 0.03426 0.61218 0.7216 0.0
C3058 C 0.03831 0.62188 0.75831 0.0
C3059 C 0.05452 0.62801 0.77884 0.0
C3060 C 0.10579 0.61442 0.71281 0.0
C3061 C 0.07221 0.62013 0.73663 0.0
C3062 C 0.11349 0.60243 0.69433 0.0
C3063 C 0.09673 0.58582 0.67969 0.0
C3064 C 0.0812 0.60979 0.71634 0.0
C3065 C 0.07247 0.5815 0.68421 0.0
C3066 C 0.04709 0.61816 0.7371 0.0
C3067 C 0.07952 0.63263 0.7772 0.0
N3068 N 0.06548 0.59344 0.70206 0.0
N3069 N 0.08772 0.62801 0.75644 0.0
H3070 H 0.33949 0.16754 0.44299 0.0
H3071 H 0.36044 0.28969 0.38135 0.0
H3072 H 0.36035 0.23202 0.48471 0.0
H3073 H 0.33367 0.224 0.34319 0.0
H3074 H 0.36222 0.27018 0.41841 0.0
H3075 H 0.33897 0.1883 0.40733 0.0
C3076 C 0.34412 0.18612 0.445 0.0
C3077 C 0.35008 0.19747 0.46793 0.0
C3078 C 0.35603 0.25991 0.40199 0.0
C3079 C 0.34944 0.22239 0.42509 0.0
C3080 C 0.35508 0.27117 0.38046 0.0
C3081 C 0.347 0.25891 0.35819 0.0
C3082 C 0.34895 0.23572 0.40209 0.0
C3083 C 0.34018 0.23471 0.35928 0.0
C3084 C 0.34374 0.19814 0.42415 0.0
C3085 C 0.35565 0.22191 0.46805 0.0
N3086 N 0.34135 0.22427 0.38033 0.0
N3087 N 0.35524 0.23325 0.44738 0.0
H3088 H 0.38025 0.70168 0.56115 0.0
H3089 H 0.4652 0.63822 0.48814 0.0
H3090 H 0.37378 0.69447 0.48551 0.0
H3091 H 0.45472 0.62687 0.56018 0.0
H3092 H 0.44045 0.66816 0.48897 0.0
H3093 H 0.41668 0.68422 0.56285 0.0
C3094 C 0.38707 0.69725 0.54494 0.0
C3095 C 0.37405 0.69939 0.52316 0.0
C3096 C 0.44382 0.65929 0.50468 0.0
C3097 C 0.41519 0.67916 0.52493 0.0
C3098 C 0.45798 0.64226 0.50423 0.0
C3099 C 0.46167 0.62979 0.524 0.0
C3100 C 0.43345 0.66402 0.5251 0.0
C3101 C 0.45186 0.63573 0.54439 0.0
C3102 C 0.40763 0.68703 0.5459 0.0
C3103 C 0.38332 0.693 0.50264 0.0
N3104 N 0.43806 0.65231 0.54437 0.0
N3105 N 0.40318 0.68294 0.50402 0.0
H3106 H 0.88226 0.98128 0.57257 0.0
H3107 H 1.01217 0.98506 0.52252 0.0
H3108 H 0.89921 0.92501 0.53135 0.0
H3109 H 0.99762 0.04019 0.56735 0.0
H3110 H 0.97102 0.96367 0.52483 0.0
H3111 H 0.92356 1.00312 0.57074 0.0
C3112 C 0.89451 0.97352 0.56289 0.0
C3113 C 0.88651 0.95135 0.5514 0.0
C3114 C 0.97669 0.98045 0.53418 0.0
C3115 C 0.9349 0.97653 0.54953 0.0
C3116 C 1.00042 0.99287 0.53282 0.0
C3117 C 1.00901 1.01483 0.54468 0.0
C3118 C 0.9607 0.98972 0.54755 0.0
C3119 C 0.9923 0.02351 0.55777 0.0
C3120 C 0.91833 0.98604 0.56197 0.0
C3121 C 0.90401 0.94213 0.54005 0.0
N3122 N 0.96931 1.0111 0.5588 0.0
N3123 N 0.92692 0.9547 0.53918 0.0
H3124 H 0.85103 0.03852 0.25159 0.0
H3125 H 0.88331 0.17429 0.27909 0.0
H3126 H 0.92021 0.0797 0.24208 0.0
H3127 H 0.81096 0.1344 0.27694 0.0
H3128 H 0.89727 0.13982 0.26566 0.0
H3129 H 0.83604 0.07351 0.26085 0.0
C3130 C 0.86307 0.05494 0.25137 0.0
C3131 C 0.88701 0.0562 0.24629 0.0
C3132 C 0.87832 0.13863 0.26802 0.0
C3133 C 0.86993 0.0963 0.25695 0.0
C3134 C 0.87032 0.1583 0.27563 0.0
C3135 C 0.84592 0.15718 0.27912 0.0
C3136 C 0.86185 0.11767 0.26404 0.0
C3137 C 0.82999 0.13595 0.27478 0.0
C3138 C 0.85446 0.07491 0.25661 0.0
C3139 C 0.90166 0.07794 0.24598 0.0
N3140 N 0.83826 0.11699 0.2675 0.0
N3141 N 0.89293 0.09718 0.25145 0.0
H3142 H 0.76927 0.15441 0.05453 0.0
H3143 H 0.63187 0.11044 0.99928 0.0
H3144 H 0.72681 0.19687 1.01596 0.0
H3145 H 0.66639 0.07668 0.05484 0.0
H3146 H 0.66812 0.14029 1.00244 0.0
H3147 H 0.73272 0.12483 0.05395 0.0
C3148 C 0.75212 0.15746 0.04602 0.0
C3149 C 0.75098 0.1776 0.03456 0.0
C3150 C 0.66778 0.12634 1.01392 0.0
C3151 C 0.7093 0.14403 0.03375 0.0
C3152 C 0.64717 0.1091 1.01198 0.0
C3153 C 0.64595 0.091 0.02694 0.0
C3154 C 0.68748 0.12552 0.03084 0.0
C3155 C 0.66647 0.09026 0.04295 0.0
C3156 C 0.7313 0.14066 0.04576 0.0
C3157 C 0.72838 0.18124 0.02448 0.0
N3158 N 0.68638 0.10733 0.04453 0.0
N3159 N 0.70843 0.16437 0.02389 0.0
H3160 H 0.21609 0.50256 0.32 0.0
H3161 H 0.26717 0.3901 0.28827 0.0
H3162 H 0.18155 0.45182 0.26417 0.0
H3163 H 0.29638 0.43698 0.34887 0.0
H3164 H 0.23299 0.41005 0.28177 0.0
H3165 H 0.24217 0.47623 0.33396 0.0
C3166 C 0.2137 0.48566 0.31093 0.0
C3167 C 0.19685 0.47945 0.29071 0.0
C3168 C 0.24672 0.41587 0.29663 0.0
C3169 C 0.22703 0.44937 0.30633 0.0
C3170 C 0.26635 0.40462 0.30023 0.0
C3171 C 0.28487 0.41221 0.31887 0.0
C3172 C 0.24568 0.43501 0.31165 0.0
C3173 C 0.28257 0.43066 0.3342 0.0
C3174 C 0.22864 0.47064 0.31889 0.0
C3175 C 0.19435 0.4573 0.27979 0.0
N3176 N 0.26349 0.44163 0.33007 0.0
N3177 N 0.20962 0.44318 0.28748 0.0
H3178 H 0.23123 0.42289 0.05137 0.0
H3179 H 0.17575 0.54031 0.06117 0.0
H3180 H 0.26958 0.48883 0.03565 0.0
H3181 H 0.12766 0.47577 0.04023 0.0
H3182 H 0.2107 0.52099 0.05881 0.0
H3183 H 0.19449 0.44028 0.05402 0.0
C3184 C 0.2323 0.44095 0.04865 0.0
C3185 C 0.25444 0.45401 0.04326 0.0
C3186 C 0.19255 0.51088 0.0548 0.0
C3187 C 0.21146 0.47467 0.04684 0.0
C3188 C 0.17229 0.52204 0.05618 0.0
C3189 C 0.14799 0.5101 0.05082 0.0
C3190 C 0.18933 0.48698 0.04864 0.0
C3191 C 0.14563 0.48616 0.04445 0.0
C3192 C 0.21101 0.45097 0.05008 0.0
C3193 C 0.25361 0.47753 0.0399 0.0
N3194 N 0.16564 0.4756 0.04378 0.0
N3195 N 0.23314 0.48683 0.04196 0.0
H3196 H 0.95118 0.94448 0.23785 0.0
H3197 H 0.84105 0.84108 0.23681 0.0
H3198 H 0.88075 0.94049 0.19858 0.0
H3199 H 0.90833 0.8495 0.28313 0.0
H3200 H 0.85992 0.87081 0.21347 0.0
H3201 H 0.94053 0.90363 0.24458 0.0
C3202 C 0.9336 0.93477 0.23032 0.0
C3203 C 0.91625 0.94578 0.21873 0.0
C3204 C 0.87069 0.8659 0.22852 0.0
C3205 C 0.90406 0.89938 0.226 0.0
C3206 C 0.85985 0.84907 0.24204 0.0
C3207 C 0.87285 0.84341 0.26252 0.0
C3208 C 0.89459 0.87737 0.23567 0.0
C3209 C 0.89737 0.85383 0.26792 0.0
C3210 C 0.92755 0.91152 0.23408 0.0
C3211 C 0.8941 0.93261 0.20856 0.0
N3212 N 0.90733 0.87063 0.25481 0.0
N3213 N 0.88839 0.91008 0.21282 0.0
H3214 H 0.69183 0.06114 0.6836 0.0
H3215 H 0.67088 0.18229 0.73147 0.0
H3216 H 0.6315 0.07134 0.72004 0.0
H3217 H 0.73245 0.17154 0.69693 0.0
H3218 H 0.65008 0.14341 0.71725 0.0
H3219 H 0.70026 0.10233 0.67764 0.0
C3220 C 0.68032 0.07216 0.69021 0.0
C3221 C 0.66187 0.0634 0.70345 0.0
C3222 C 0.66797 0.14969 0.71242 0.0
C3223 C 0.67116 0.11016 0.69675 0.0
C3224 C 0.67985 0.1719 0.72054 0.0
C3225 C 0.70373 0.17987 0.716 0.0
C3226 C 0.68014 0.13534 0.69983 0.0
C3227 C 0.71437 0.16576 0.70153 0.0
C3228 C 0.68494 0.09557 0.68664 0.0
C3229 C 0.64655 0.07785 0.71058 0.0
N3230 N 0.70266 0.14406 0.69427 0.0
N3231 N 0.65194 0.10072 0.70773 0.0
loop_
_geom_bond_atom_site_label_1
_geom_bond_atom_site_label_2
_geom_bond_distance
_geom_bond_site_symmetry_2
_ccdc_geom_bond_type
Mn0 O5 2.095 . S
Mn0 O15 2.162 . S
Mn0 O16 2.297 . S
Mn0 O24 2.385 . S
Mn0 O25 2.209 . S
Mn0 O26 2.094 . S
Mn1 O6 2.121 . S
Mn1 N8 2.257 . S
Mn1 N17 2.282 . S
Mn1 O25 2.215 . S
Mn1 O27 2.117 . S
C2 O24 1.234 . S
C2 O25 1.283 . S
C3 O15 1.281 . S
C3 O16 1.236 . S
C4 O26 1.240 . S
C4 O27 1.264 . S
O5 Mn0 2.095 . S
O5 C14 1.250 . S
O6 Mn1 2.121 . S
O6 C14 1.258 . S
C7 N8 1.326 . S
C7 C11 1.460 . S
C7 H13 0.929 . S
N8 Mn1 2.257 . S
N8 C7 1.326 . S
N8 C12 1.362 . S
C9 C10 1.258 . S
C9 C12 1.431 . S
C9 C29 1.449 1_455 S
C10 C9 1.258 . S
C10 C11 1.477 . S
C10 H30 0.931 . S
C11 C7 1.460 . S
C11 C10 1.477 . S
C11 H31 0.930 . S
C12 N8 1.362 . S
C12 C9 1.431 . S
C12 C22 1.476 . S
H13 C7 0.929 . S
C14 O5 1.250 . S
C14 O6 1.258 . S
O15 Mn0 2.162 . S
O15 C3 1.281 . S
O16 Mn0 2.297 . S
O16 C3 1.236 . S
N17 Mn1 2.282 . S
N17 C18 1.328 . S
N17 C22 1.318 . S
C18 N17 1.328 . S
C18 C19 1.457 1_455 S
C18 H23 0.929 . S
C19 C18 1.457 1_655 S
C19 C20 1.291 . S
C19 H32 0.931 . S
C20 C19 1.291 . S
C20 C21 1.373 . S
C20 H33 0.929 . S
C21 C20 1.373 . S
C21 C22 1.396 1_655 S
C21 C28 1.403 . S
C22 C12 1.476 . S
C22 N17 1.318 . S
C22 C21 1.396 1_455 S
H23 C18 0.929 . S
O24 Mn0 2.385 . S
O24 C2 1.234 . S
O25 Mn0 2.209 . S
O25 Mn1 2.215 . S
O25 C2 1.283 . S
O26 Mn0 2.094 . S
O26 C4 1.240 . S
O27 Mn1 2.117 . S
O27 C4 1.264 . S
C28 C21 1.403 . S
C28 C29 1.399 . S
C28 H34 0.929 . S
C29 C9 1.449 1_655 S
C29 C28 1.399 . S
C29 H35 0.930 . S
H30 C10 0.931 . S
H31 C11 0.930 . S
H32 C19 0.931 . S
H33 C20 0.929 . S
H34 C28 0.929 . S
H35 C29 0.930 . S
Mn36 O41 2.095 . S
Mn36 O51 2.162 . S
Mn36 O52 2.297 . S
Mn36 O60 2.385 . S
Mn36 O61 2.209 . S
Mn36 O62 2.094 . S
Mn37 O42 2.121 . S
Mn37 N44 2.257 . S
Mn37 N53 2.282 . S
Mn37 O61 2.215 . S
Mn37 O63 2.117 . S
C38 O60 1.234 . S
C38 O61 1.283 . S
C39 O51 1.281 . S
C39 O52 1.236 . S
C40 O62 1.240 . S
C40 O63 1.264 . S
O41 Mn36 2.095 . S
O41 C50 1.250 . S
O42 Mn37 2.121 . S
O42 C50 1.258 . S
C43 N44 1.326 . S
C43 C47 1.460 . S
C43 H49 0.929 . S
N44 Mn37 2.257 . S
N44 C43 1.326 . S
N44 C48 1.362 . S
C45 C46 1.258 . S
C45 C48 1.431 . S
C45 C65 1.449 . S
C46 C45 1.258 . S
C46 C47 1.477 . S
C46 H66 0.931 . S
C47 C43 1.460 . S
C47 C46 1.477 . S
C47 H67 0.930 . S
C48 N44 1.362 . S
C48 C45 1.431 . S
C48 C58 1.476 . S
H49 C43 0.929 . S
C50 O41 1.250 . S
C50 O42 1.258 . S
O51 Mn36 2.162 . S
O51 C39 1.281 . S
O52 Mn36 2.297 . S
O52 C39 1.236 . S
N53 Mn37 2.282 . S
N53 C54 1.328 . S
N53 C58 1.318 . S
C54 N53 1.328 . S
C54 C55 1.457 . S
C54 H59 0.929 . S
C55 C54 1.457 . S
C55 C56 1.291 . S
C55 H68 0.931 . S
C56 C55 1.291 . S
C56 C57 1.373 . S
C56 H69 0.929 . S
C57 C56 1.373 . S
C57 C58 1.396 . S
C57 C64 1.403 . S
C58 C48 1.476 . S
C58 N53 1.318 . S
C58 C57 1.396 . S
H59 C54 0.929 . S
O60 Mn36 2.385 . S
O60 C38 1.234 . S
O61 Mn36 2.209 . S
O61 Mn37 2.215 . S
O61 C38 1.283 . S
O62 Mn36 2.094 . S
O62 C40 1.240 . S
O63 Mn37 2.117 . S
O63 C40 1.264 . S
C64 C57 1.403 . S
C64 C65 1.399 . S
C64 H70 0.929 . S
C65 C45 1.449 . S
C65 C64 1.399 . S
C65 H71 0.930 . S
H66 C46 0.931 . S
H67 C47 0.930 . S
H68 C55 0.931 . S
H69 C56 0.929 . S
H70 C64 0.929 . S
H71 C65 0.930 . S
Mn72 O77 2.095 . S
Mn72 O87 2.162 . S
Mn72 O88 2.297 . S
Mn72 O96 2.385 . S
Mn72 O97 2.209 . S
Mn72 O98 2.094 . S
Mn73 O78 2.121 . S
Mn73 N80 2.257 . S
Mn73 N89 2.282 . S
Mn73 O97 2.215 . S
Mn73 O99 2.117 . S
C74 O96 1.234 . S
C74 O97 1.283 . S
C75 O87 1.281 . S
C75 O88 1.236 . S
C76 O98 1.240 . S
C76 O99 1.264 . S
O77 Mn72 2.095 . S
O77 C86 1.250 . S
O78 Mn73 2.121 . S
O78 C86 1.258 . S
C79 N80 1.326 . S
C79 C83 1.460 . S
C79 H85 0.929 . S
N80 Mn73 2.257 . S
N80 C79 1.326 . S
N80 C84 1.362 . S
C81 C82 1.258 . S
C81 C84 1.431 . S
C81 C101 1.449 . S
C82 C81 1.258 . S
C82 C83 1.477 . S
C82 H102 0.931 . S
C83 C79 1.460 . S
C83 C82 1.477 . S
C83 H103 0.930 . S
C84 N80 1.362 . S
C84 C81 1.431 . S
C84 C94 1.476 . S
H85 C79 0.929 . S
C86 O77 1.250 . S
C86 O78 1.258 . S
O87 Mn72 2.162 . S
O87 C75 1.281 . S
O88 Mn72 2.297 . S
O88 C75 1.236 . S
N89 Mn73 2.282 . S
N89 C90 1.328 . S
N89 C94 1.318 . S
C90 N89 1.328 . S
C90 C91 1.457 . S
C90 H95 0.929 . S
C91 C90 1.457 . S
C91 C92 1.291 . S
C91 H104 0.931 . S
C92 C91 1.291 . S
C92 C93 1.373 . S
C92 H105 0.929 . S
C93 C92 1.373 . S
C93 C94 1.396 . S
C93 C100 1.403 . S
C94 C84 1.476 . S
C94 N89 1.318 . S
C94 C93 1.396 . S
H95 C90 0.929 . S
O96 Mn72 2.385 . S
O96 C74 1.234 . S
O97 Mn72 2.209 . S
O97 Mn73 2.215 . S
O97 C74 1.283 . S
O98 Mn72 2.094 . S
O98 C76 1.240 . S
O99 Mn73 2.117 . S
O99 C76 1.264 . S
C100 C93 1.403 . S
C100 C101 1.399 . S
C100 H106 0.929 . S
C101 C81 1.449 . S
C101 C100 1.399 . S
C101 H107 0.930 . S
H102 C82 0.931 . S
H103 C83 0.930 . S
H104 C91 0.931 . S
H105 C92 0.929 . S
H106 C100 0.929 . S
H107 C101 0.930 . S
Mn108 O113 2.095 . S
Mn108 O123 2.162 . S
Mn108 O124 2.297 . S
Mn108 O132 2.385 . S
Mn108 O133 2.209 . S
Mn108 O134 2.094 . S
Mn109 O114 2.121 . S
Mn109 N116 2.257 . S
Mn109 N125 2.282 . S
Mn109 O133 2.215 . S
Mn109 O135 2.117 . S
C110 O132 1.234 . S
C110 O133 1.283 . S
C111 O123 1.281 . S
C111 O124 1.236 . S
C112 O134 1.240 . S
C112 O135 1.264 . S
O113 Mn108 2.095 . S
O113 C122 1.250 . S
O114 Mn109 2.121 . S
O114 C122 1.258 . S
C115 N116 1.326 . S
C115 C119 1.460 . S
C115 H121 0.929 . S
N116 Mn109 2.257 . S
N116 C115 1.326 . S
N116 C120 1.362 . S
C117 C118 1.258 . S
C117 C120 1.431 . S
C117 C137 1.449 . S
C118 C117 1.258 . S
C118 C119 1.477 . S
C118 H138 0.931 . S
C119 C115 1.460 . S
C119 C118 1.477 . S
C119 H139 0.930 . S
C120 N116 1.362 . S
C120 C117 1.431 . S
C120 C130 1.476 . S
H121 C115 0.929 . S
C122 O113 1.250 . S
C122 O114 1.258 . S
O123 Mn108 2.162 . S
O123 C111 1.281 . S
O124 Mn108 2.297 . S
O124 C111 1.236 . S
N125 Mn109 2.282 . S
N125 C126 1.328 . S
N125 C130 1.318 . S
C126 N125 1.328 . S
C126 C127 1.457 . S
C126 H131 0.929 . S
C127 C126 1.457 . S
C127 C128 1.291 . S
C127 H140 0.931 . S
C128 C127 1.291 . S
C128 C129 1.373 . S
C128 H141 0.929 . S
C129 C128 1.373 . S
C129 C130 1.396 . S
C129 C136 1.403 . S
C130 C120 1.476 . S
C130 N125 1.318 . S
C130 C129 1.396 . S
H131 C126 0.929 . S
O132 Mn108 2.385 . S
O132 C110 1.234 . S
O133 Mn108 2.209 . S
O133 Mn109 2.215 . S
O133 C110 1.283 . S
O134 Mn108 2.094 . S
O134 C112 1.240 . S
O135 Mn109 2.117 . S
O135 C112 1.264 . S
C136 C129 1.403 . S
C136 C137 1.399 . S
C136 H142 0.929 . S
C137 C117 1.449 . S
C137 C136 1.399 . S
C137 H143 0.930 . S
H138 C118 0.931 . S
H139 C119 0.930 . S
H140 C127 0.931 . S
H141 C128 0.929 . S
H142 C136 0.929 . S
H143 C137 0.930 . S
Mn144 O149 2.095 . S
Mn144 O159 2.162 . S
Mn144 O160 2.297 . S
Mn144 O168 2.385 . S
Mn144 O169 2.209 . S
Mn144 O170 2.094 . S
Mn145 O150 2.121 . S
Mn145 N152 2.257 . S
Mn145 N161 2.282 . S
Mn145 O169 2.215 . S
Mn145 O171 2.117 . S
C146 O168 1.234 . S
C146 O169 1.283 . S
C147 O159 1.281 . S
C147 O160 1.236 . S
C148 O170 1.240 . S
C148 O171 1.264 . S
O149 Mn144 2.095 . S
O149 C158 1.250 . S
O150 Mn145 2.121 . S
O150 C158 1.258 . S
C151 N152 1.326 . S
C151 C155 1.460 . S
C151 H157 0.929 . S
N152 Mn145 2.257 . S
N152 C151 1.326 . S
N152 C156 1.362 . S
C153 C154 1.258 . S
C153 C156 1.431 . S
C153 C173 1.449 . S
C154 C153 1.258 . S
C154 C155 1.477 . S
C154 H174 0.931 . S
C155 C151 1.460 . S
C155 C154 1.477 . S
C155 H175 0.930 . S
C156 N152 1.362 . S
C156 C153 1.431 . S
C156 C166 1.476 . S
H157 C151 0.929 . S
C158 O149 1.250 . S
C158 O150 1.258 . S
O159 Mn144 2.162 . S
O159 C147 1.281 . S
O160 Mn144 2.297 . S
O160 C147 1.236 . S
N161 Mn145 2.282 . S
N161 C162 1.328 . S
N161 C166 1.318 . S
C162 N161 1.328 . S
C162 C163 1.457 . S
C162 H167 0.929 . S
C163 C162 1.457 . S
C163 C164 1.291 . S
C163 H176 0.931 . S
C164 C163 1.291 . S
C164 C165 1.373 . S
C164 H177 0.929 . S
C165 C164 1.373 . S
C165 C166 1.396 . S
C165 C172 1.403 . S
C166 C156 1.476 . S
C166 N161 1.318 . S
C166 C165 1.396 . S
H167 C162 0.929 . S
O168 Mn144 2.385 . S
O168 C146 1.234 . S
O169 Mn144 2.209 . S
O169 Mn145 2.215 . S
O169 C146 1.283 . S
O170 Mn144 2.094 . S
O170 C148 1.240 . S
O171 Mn145 2.117 . S
O171 C148 1.264 . S
C172 C165 1.403 . S
C172 C173 1.399 . S
C172 H178 0.929 . S
C173 C153 1.449 . S
C173 C172 1.399 . S
C173 H179 0.930 . S
H174 C154 0.931 . S
H175 C155 0.930 . S
H176 C163 0.931 . S
H177 C164 0.929 . S
H178 C172 0.929 . S
H179 C173 0.930 . S
Mn180 O185 2.095 . S
Mn180 O195 2.162 . S
Mn180 O196 2.297 . S
Mn180 O204 2.385 . S
Mn180 O205 2.209 . S
Mn180 O206 2.094 . S
Mn181 O186 2.121 . S
Mn181 N188 2.257 . S
Mn181 N197 2.282 . S
Mn181 O205 2.215 . S
Mn181 O207 2.117 . S
C182 O204 1.234 . S
C182 O205 1.283 . S
C183 O195 1.281 . S
C183 O196 1.236 . S
C184 O206 1.240 . S
C184 O207 1.264 . S
O185 Mn180 2.095 . S
O185 C194 1.250 . S
O186 Mn181 2.121 . S
O186 C194 1.258 . S
C187 N188 1.326 . S
C187 C191 1.460 . S
C187 H193 0.929 . S
N188 Mn181 2.257 . S
N188 C187 1.326 . S
N188 C192 1.362 . S
C189 C190 1.258 . S
C189 C192 1.431 . S
C189 C209 1.449 . S
C190 C189 1.258 . S
C190 C191 1.477 . S
C190 H210 0.931 . S
C191 C187 1.460 . S
C191 C190 1.477 . S
C191 H211 0.930 . S
C192 N188 1.362 . S
C192 C189 1.431 . S
C192 C202 1.476 . S
H193 C187 0.929 . S
C194 O185 1.250 . S
C194 O186 1.258 . S
O195 Mn180 2.162 . S
O195 C183 1.281 . S
O196 Mn180 2.297 . S
O196 C183 1.236 . S
N197 Mn181 2.282 . S
N197 C198 1.328 . S
N197 C202 1.318 . S
C198 N197 1.328 . S
C198 C199 1.457 . S
C198 H203 0.929 . S
C199 C198 1.457 . S
C199 C200 1.291 . S
C199 H212 0.931 . S
C200 C199 1.291 . S
C200 C201 1.373 . S
C200 H213 0.929 . S
C201 C200 1.373 . S
C201 C202 1.396 . S
C201 C208 1.403 . S
C202 C192 1.476 . S
C202 N197 1.318 . S
C202 C201 1.396 . S
H203 C198 0.929 . S
O204 Mn180 2.385 . S
O204 C182 1.234 . S
O205 Mn180 2.209 . S
O205 Mn181 2.215 . S
O205 C182 1.283 . S
O206 Mn180 2.094 . S
O206 C184 1.240 . S
O207 Mn181 2.117 . S
O207 C184 1.264 . S
C208 C201 1.403 . S
C208 C209 1.399 . S
C208 H214 0.929 . S
C209 C189 1.449 . S
C209 C208 1.399 . S
C209 H215 0.930 . S
H210 C190 0.931 . S
H211 C191 0.930 . S
H212 C199 0.931 . S
H213 C200 0.929 . S
H214 C208 0.929 . S
H215 C209 0.930 . S
Mn216 O221 2.095 . S
Mn216 O231 2.162 . S
Mn216 O232 2.297 . S
Mn216 O240 2.385 . S
Mn216 O241 2.209 . S
Mn216 O242 2.094 . S
Mn217 O222 2.121 . S
Mn217 N224 2.257 . S
Mn217 N233 2.282 . S
Mn217 O241 2.215 . S
Mn217 O243 2.117 . S
C218 O240 1.234 . S
C218 O241 1.283 . S
C219 O231 1.281 . S
C219 O232 1.236 . S
C220 O242 1.240 . S
C220 O243 1.264 . S
O221 Mn216 2.095 . S
O221 C230 1.250 . S
O222 Mn217 2.121 . S
O222 C230 1.258 . S
C223 N224 1.326 . S
C223 C227 1.460 . S
C223 H229 0.929 . S
N224 Mn217 2.257 . S
N224 C223 1.326 . S
N224 C228 1.362 . S
C225 C226 1.258 . S
C225 C228 1.431 . S
C225 C245 1.449 . S
C226 C225 1.258 . S
C226 C227 1.477 . S
C226 H246 0.931 . S
C227 C223 1.460 . S
C227 C226 1.477 . S
C227 H247 0.930 . S
C228 N224 1.362 . S
C228 C225 1.431 . S
C228 C238 1.476 . S
H229 C223 0.929 . S
C230 O221 1.250 . S
C230 O222 1.258 . S
O231 Mn216 2.162 . S
O231 C219 1.281 . S
O232 Mn216 2.297 . S
O232 C219 1.236 . S
N233 Mn217 2.282 . S
N233 C234 1.328 . S
N233 C238 1.318 . S
C234 N233 1.328 . S
C234 C235 1.457 . S
C234 H239 0.929 . S
C235 C234 1.457 . S
C235 C236 1.291 . S
C235 H248 0.931 . S
C236 C235 1.291 . S
C236 C237 1.373 . S
C236 H249 0.929 . S
C237 C236 1.373 . S
C237 C238 1.396 . S
C237 C244 1.403 . S
C238 C228 1.476 . S
C238 N233 1.318 . S
C238 C237 1.396 . S
H239 C234 0.929 . S
O240 Mn216 2.385 . S
O240 C218 1.234 . S
O241 Mn216 2.209 . S
O241 Mn217 2.215 . S
O241 C218 1.283 . S
O242 Mn216 2.094 . S
O242 C220 1.240 . S
O243 Mn217 2.117 . S
O243 C220 1.264 . S
C244 C237 1.403 . S
C244 C245 1.399 . S
C244 H250 0.929 . S
C245 C225 1.449 . S
C245 C244 1.399 . S
C245 H251 0.930 . S
H246 C226 0.931 . S
H247 C227 0.930 . S
H248 C235 0.931 . S
H249 C236 0.929 . S
H250 C244 0.929 . S
H251 C245 0.930 . S
Mn252 O257 2.064 1_655 S
Mn252 O267 2.159 1_655 S
Mn252 O268 2.293 . S
Mn252 O276 2.418 . S
Mn252 O277 2.223 . S
Mn252 O278 2.098 1_655 S
Mn253 O258 2.121 1_655 S
Mn253 N260 2.257 . S
Mn253 N269 2.282 . S
Mn253 O277 2.215 . S
Mn253 O279 2.117 1_655 S
C254 O276 1.234 . S
C254 O277 1.283 . S
C255 O267 1.281 1_655 S
C255 O268 1.236 . S
C256 O278 1.240 . S
C256 O279 1.264 . S
O257 Mn252 2.064 1_455 S
O257 C266 1.250 . S
O258 Mn253 2.121 1_455 S
O258 C266 1.258 . S
C259 N260 1.326 . S
C259 C263 1.460 . S
C259 H265 0.929 1_655 S
N260 Mn253 2.257 . S
N260 C259 1.326 . S
N260 C264 1.362 . S
C261 C262 1.258 . S
C261 C264 1.431 . S
C261 C281 1.449 . S
C262 C261 1.258 . S
C262 C263 1.477 . S
C262 H282 0.931 . S
C263 C259 1.460 . S
C263 C262 1.477 . S
C263 H283 0.930 . S
C264 N260 1.362 . S
C264 C261 1.431 . S
C264 C274 1.476 . S
H265 C259 0.929 1_455 S
C266 O257 1.250 . S
C266 O258 1.258 . S
O267 Mn252 2.159 1_455 S
O267 C255 1.281 1_455 S
O268 Mn252 2.293 . S
O268 C255 1.236 . S
N269 Mn253 2.282 . S
N269 C270 1.328 . S
N269 C274 1.318 . S
C270 N269 1.328 . S
C270 C271 1.457 . S
C270 H275 0.929 . S
C271 C270 1.457 . S
C271 C272 1.291 . S
C271 H284 0.931 . S
C272 C271 1.291 . S
C272 C273 1.373 . S
C272 H285 0.929 . S
C273 C272 1.373 . S
C273 C274 1.396 . S
C273 C280 1.403 . S
C274 C264 1.476 . S
C274 N269 1.318 . S
C274 C273 1.396 . S
H275 C270 0.929 . S
O276 Mn252 2.418 . S
O276 C254 1.234 . S
O277 Mn252 2.223 . S
O277 Mn253 2.215 . S
O277 C254 1.283 . S
O278 Mn252 2.098 1_455 S
O278 C256 1.240 . S
O279 Mn253 2.117 1_455 S
O279 C256 1.264 . S
C280 C273 1.403 . S
C280 C281 1.399 . S
C280 H286 0.929 . S
C281 C261 1.449 . S
C281 C280 1.399 . S
C281 H287 0.930 . S
H282 C262 0.931 . S
H283 C263 0.930 . S
H284 C271 0.931 . S
H285 C272 0.929 . S
H286 C280 0.929 . S
H287 C281 0.930 . S
Mn288 O293 2.095 . S
Mn288 O303 2.162 . S
Mn288 O304 2.297 . S
Mn288 O312 2.385 . S
Mn288 O313 2.209 . S
Mn288 O314 2.094 . S
Mn289 O294 2.121 . S
Mn289 N296 2.257 . S
Mn289 N305 2.282 . S
Mn289 O313 2.215 . S
Mn289 O315 2.117 . S
C290 O312 1.234 . S
C290 O313 1.283 . S
C291 O303 1.281 . S
C291 O304 1.236 . S
C292 O314 1.240 . S
C292 O315 1.264 . S
O293 Mn288 2.095 . S
O293 C302 1.250 . S
O294 Mn289 2.121 . S
O294 C302 1.258 . S
C295 N296 1.326 . S
C295 C299 1.460 . S
C295 H301 0.929 . S
N296 Mn289 2.257 . S
N296 C295 1.326 . S
N296 C300 1.362 . S
C297 C298 1.258 . S
C297 C300 1.431 . S
C297 C317 1.449 1_545 S
C298 C297 1.258 . S
C298 C299 1.477 . S
C298 H318 0.931 . S
C299 C295 1.460 . S
C299 C298 1.477 . S
C299 H319 0.930 . S
C300 N296 1.362 . S
C300 C297 1.431 . S
C300 C310 1.476 . S
H301 C295 0.929 . S
C302 O293 1.250 . S
C302 O294 1.258 . S
O303 Mn288 2.162 . S
O303 C291 1.281 . S
O304 Mn288 2.297 . S
O304 C291 1.236 . S
N305 Mn289 2.282 . S
N305 C306 1.328 . S
N305 C310 1.318 . S
C306 N305 1.328 . S
C306 C307 1.457 1_545 S
C306 H311 0.929 . S
C307 C306 1.457 1_565 S
C307 C308 1.291 . S
C307 H320 0.931 . S
C308 C307 1.291 . S
C308 C309 1.373 . S
C308 H321 0.929 . S
C309 C308 1.373 . S
C309 C310 1.396 1_565 S
C309 C316 1.403 . S
C310 C300 1.476 . S
C310 N305 1.318 . S
C310 C309 1.396 1_545 S
H311 C306 0.929 . S
O312 Mn288 2.385 . S
O312 C290 1.234 . S
O313 Mn288 2.209 . S
O313 Mn289 2.215 . S
O313 C290 1.283 . S
O314 Mn288 2.094 . S
O314 C292 1.240 . S
O315 Mn289 2.117 . S
O315 C292 1.264 . S
C316 C309 1.403 . S
C316 C317 1.399 . S
C316 H322 0.929 . S
C317 C297 1.449 1_565 S
C317 C316 1.399 . S
C317 H323 0.930 . S
H318 C298 0.931 . S
H319 C299 0.930 . S
H320 C307 0.931 . S
H321 C308 0.929 . S
H322 C316 0.929 . S
H323 C317 0.930 . S
Mn324 O329 2.095 . S
Mn324 O339 2.162 . S
Mn324 O340 2.297 . S
Mn324 O348 2.385 . S
Mn324 O349 2.209 . S
Mn324 O350 2.094 . S
Mn325 O330 2.121 . S
Mn325 N332 2.257 . S
Mn325 N341 2.282 . S
Mn325 O349 2.215 . S
Mn325 O351 2.117 . S
C326 O348 1.234 . S
C326 O349 1.283 . S
C327 O339 1.281 . S
C327 O340 1.236 . S
C328 O350 1.240 . S
C328 O351 1.264 . S
O329 Mn324 2.095 . S
O329 C338 1.250 . S
O330 Mn325 2.121 . S
O330 C338 1.258 . S
C331 N332 1.326 . S
C331 C335 1.460 . S
C331 H337 0.929 . S
N332 Mn325 2.257 . S
N332 C331 1.326 . S
N332 C336 1.362 . S
C333 C334 1.258 . S
C333 C336 1.431 . S
C333 C353 1.449 . S
C334 C333 1.258 . S
C334 C335 1.477 . S
C334 H354 0.931 . S
C335 C331 1.460 . S
C335 C334 1.477 . S
C335 H355 0.930 . S
C336 N332 1.362 . S
C336 C333 1.431 . S
C336 C346 1.476 . S
H337 C331 0.929 . S
C338 O329 1.250 . S
C338 O330 1.258 . S
O339 Mn324 2.162 . S
O339 C327 1.281 . S
O340 Mn324 2.297 . S
O340 C327 1.236 . S
N341 Mn325 2.282 . S
N341 C342 1.328 . S
N341 C346 1.318 . S
C342 N341 1.328 . S
C342 C343 1.457 . S
C342 H347 0.929 . S
C343 C342 1.457 . S
C343 C344 1.291 . S
C343 H356 0.931 . S
C344 C343 1.291 . S
C344 C345 1.373 . S
C344 H357 0.929 . S
C345 C344 1.373 . S
C345 C346 1.396 . S
C345 C352 1.403 . S
C346 C336 1.476 . S
C346 N341 1.318 . S
C346 C345 1.396 . S
H347 C342 0.929 . S
O348 Mn324 2.385 . S
O348 C326 1.234 . S
O349 Mn324 2.209 . S
O349 Mn325 2.215 . S
O349 C326 1.283 . S
O350 Mn324 2.094 . S
O350 C328 1.240 . S
O351 Mn325 2.117 . S
O351 C328 1.264 . S
C352 C345 1.403 . S
C352 C353 1.399 . S
C352 H358 0.929 . S
C353 C333 1.449 . S
C353 C352 1.399 . S
C353 H359 0.930 . S
H354 C334 0.931 . S
H355 C335 0.930 . S
H356 C343 0.931 . S
H357 C344 0.929 . S
H358 C352 0.929 . S
H359 C353 0.930 . S
Mn360 O365 2.095 . S
Mn360 O375 2.162 . S
Mn360 O376 2.297 . S
Mn360 O384 2.385 . S
Mn360 O385 2.209 . S
Mn360 O386 2.094 . S
Mn361 O366 2.121 . S
Mn361 N368 2.257 . S
Mn361 N377 2.282 . S
Mn361 O385 2.215 . S
Mn361 O387 2.117 . S
C362 O384 1.234 . S
C362 O385 1.283 . S
C363 O375 1.281 . S
C363 O376 1.236 . S
C364 O386 1.240 . S
C364 O387 1.264 . S
O365 Mn360 2.095 . S
O365 C374 1.250 . S
O366 Mn361 2.121 . S
O366 C374 1.258 . S
C367 N368 1.326 . S
C367 C371 1.460 . S
C367 H373 0.929 . S
N368 Mn361 2.257 . S
N368 C367 1.326 . S
N368 C372 1.362 . S
C369 C370 1.258 . S
C369 C372 1.431 . S
C369 C389 1.449 . S
C370 C369 1.258 . S
C370 C371 1.477 . S
C370 H390 0.931 . S
C371 C367 1.460 . S
C371 C370 1.477 . S
C371 H391 0.930 . S
C372 N368 1.362 . S
C372 C369 1.431 . S
C372 C382 1.476 . S
H373 C367 0.929 . S
C374 O365 1.250 . S
C374 O366 1.258 . S
O375 Mn360 2.162 . S
O375 C363 1.281 . S
O376 Mn360 2.297 . S
O376 C363 1.236 . S
N377 Mn361 2.282 . S
N377 C378 1.328 . S
N377 C382 1.318 . S
C378 N377 1.328 . S
C378 C379 1.457 . S
C378 H383 0.929 . S
C379 C378 1.457 . S
C379 C380 1.291 . S
C379 H392 0.931 . S
C380 C379 1.291 . S
C380 C381 1.373 . S
C380 H393 0.929 . S
C381 C380 1.373 . S
C381 C382 1.396 . S
C381 C388 1.403 . S
C382 C372 1.476 . S
C382 N377 1.318 . S
C382 C381 1.396 . S
H383 C378 0.929 . S
O384 Mn360 2.385 . S
O384 C362 1.234 . S
O385 Mn360 2.209 . S
O385 Mn361 2.215 . S
O385 C362 1.283 . S
O386 Mn360 2.094 . S
O386 C364 1.240 . S
O387 Mn361 2.117 . S
O387 C364 1.264 . S
C388 C381 1.403 . S
C388 C389 1.399 . S
C388 H394 0.929 . S
C389 C369 1.449 . S
C389 C388 1.399 . S
C389 H395 0.930 . S
H390 C370 0.931 . S
H391 C371 0.930 . S
H392 C379 0.931 . S
H393 C380 0.929 . S
H394 C388 0.929 . S
H395 C389 0.930 . S
Mn396 O401 2.095 . S
Mn396 O411 2.162 . S
Mn396 O412 2.297 . S
Mn396 O420 2.385 . S
Mn396 O421 2.209 . S
Mn396 O422 2.094 . S
Mn397 O402 2.121 . S
Mn397 N404 2.257 . S
Mn397 N413 2.305 . S
Mn397 O421 2.215 . S
Mn397 O423 2.099 1_554 S
C398 O420 1.234 . S
C398 O421 1.283 . S
C399 O411 1.281 . S
C399 O412 1.236 . S
C400 O422 1.240 . S
C400 O423 1.255 1_554 S
O401 Mn396 2.095 . S
O401 C410 1.250 . S
O402 Mn397 2.121 . S
O402 C410 1.258 . S
C403 N404 1.326 . S
C403 C407 1.460 . S
C403 H409 0.929 . S
N404 Mn397 2.257 . S
N404 C403 1.326 . S
N404 C408 1.362 . S
C405 C406 1.258 . S
C405 C408 1.431 . S
C405 C425 1.449 . S
C406 C405 1.258 . S
C406 C407 1.477 . S
C406 H426 0.931 1_565 S
C407 C403 1.460 . S
C407 C406 1.477 . S
C407 H427 0.930 1_565 S
C408 N404 1.362 . S
C408 C405 1.431 . S
C408 C418 1.476 . S
H409 C403 0.929 . S
C410 O401 1.250 . S
C410 O402 1.258 . S
O411 Mn396 2.162 . S
O411 C399 1.281 . S
O412 Mn396 2.297 . S
O412 C399 1.236 . S
N413 Mn397 2.305 . S
N413 C414 1.308 1_554 S
N413 C418 1.318 . S
C414 N413 1.308 1_556 S
C414 C415 1.457 . S
C414 H419 0.929 . S
C415 C414 1.457 . S
C415 C416 1.291 . S
C415 H428 0.931 . S
C416 C415 1.291 . S
C416 C417 1.373 . S
C416 H429 0.929 . S
C417 C416 1.373 . S
C417 C418 1.396 1_556 S
C417 C424 1.403 . S
C418 C408 1.476 . S
C418 N413 1.318 . S
C418 C417 1.396 1_554 S
H419 C414 0.929 . S
O420 Mn396 2.385 . S
O420 C398 1.234 . S
O421 Mn396 2.209 . S
O421 Mn397 2.215 . S
O421 C398 1.283 . S
O422 Mn396 2.094 . S
O422 C400 1.240 . S
O423 Mn397 2.099 1_556 S
O423 C400 1.255 1_556 S
C424 C417 1.403 . S
C424 C425 1.388 1_556 S
C424 H430 0.941 . S
C425 C405 1.449 . S
C425 C424 1.388 1_554 S
C425 H431 0.930 1_565 S
H426 C406 0.931 1_545 S
H427 C407 0.930 1_545 S
H428 C415 0.931 . S
H429 C416 0.929 . S
H430 C424 0.941 . S
H431 C425 0.930 1_545 S
Mn432 O437 2.095 . S
Mn432 O447 2.162 . S
Mn432 O448 2.297 . S
Mn432 O456 2.385 . S
Mn432 O457 2.209 . S
Mn432 O458 2.114 . S
Mn433 O438 2.121 1_556 S
Mn433 N440 2.257 1_556 S
Mn433 N449 2.282 . S
Mn433 O457 2.215 1_556 S
Mn433 O459 2.117 . S
C434 O456 1.234 . S
C434 O457 1.283 . S
C435 O447 1.281 . S
C435 O448 1.236 . S
C436 O458 1.218 1_556 S
C436 O459 1.264 . S
O437 Mn432 2.095 . S
O437 C446 1.250 . S
O438 Mn433 2.121 1_554 S
O438 C446 1.258 . S
C439 N440 1.326 . S
C439 C443 1.460 . S
C439 H445 0.929 . S
N440 Mn433 2.257 1_554 S
N440 C439 1.326 . S
N440 C444 1.362 1_554 S
C441 C442 1.258 1_556 S
C441 C444 1.431 . S
C441 C461 1.449 . S
C442 C441 1.258 1_554 S
C442 C443 1.477 . S
C442 H462 0.931 . S
C443 C439 1.460 . S
C443 C442 1.477 . S
C443 H463 0.930 . S
C444 N440 1.362 1_556 S
C444 C441 1.431 . S
C444 C454 1.476 . S
H445 C439 0.929 . S
C446 O437 1.250 . S
C446 O438 1.258 . S
O447 Mn432 2.162 . S
O447 C435 1.281 . S
O448 Mn432 2.297 . S
O448 C435 1.236 . S
N449 Mn433 2.282 . S
N449 C450 1.328 . S
N449 C454 1.318 . S
C450 N449 1.328 . S
C450 C451 1.457 . S
C450 H455 0.929 . S
C451 C450 1.457 . S
C451 C452 1.291 . S
C451 H464 0.931 . S
C452 C451 1.291 . S
C452 C453 1.373 . S
C452 H465 0.929 . S
C453 C452 1.373 . S
C453 C454 1.396 . S
C453 C460 1.403 . S
C454 C444 1.476 . S
C454 N449 1.318 . S
C454 C453 1.396 . S
H455 C450 0.929 . S
O456 Mn432 2.385 . S
O456 C434 1.234 . S
O457 Mn432 2.209 . S
O457 Mn433 2.215 1_554 S
O457 C434 1.283 . S
O458 Mn432 2.114 . S
O458 C436 1.218 1_554 S
O459 Mn433 2.117 . S
O459 C436 1.264 . S
C460 C453 1.403 . S
C460 C461 1.399 . S
C460 H466 0.929 . S
C461 C441 1.449 . S
C461 C460 1.399 . S
C461 H467 0.930 . S
H462 C442 0.931 . S
H463 C443 0.930 . S
H464 C451 0.931 . S
H465 C452 0.929 . S
H466 C460 0.929 . S
H467 C461 0.930 . S
Mn468 O473 2.095 1_554 S
Mn468 O483 2.162 . S
Mn468 O484 2.297 . S
Mn468 O492 2.385 . S
Mn468 O493 2.209 1_554 S
Mn468 O494 2.094 1_554 S
Mn469 O474 2.121 . S
Mn469 N476 2.257 . S
Mn469 N485 2.282 . S
Mn469 O493 2.215 . S
Mn469 O495 2.117 . S
C470 O492 1.234 1_556 S
C470 O493 1.283 . S
C471 O483 1.281 . S
C471 O484 1.236 . S
C472 O494 1.240 . S
C472 O495 1.264 . S
O473 Mn468 2.095 1_556 S
O473 C482 1.250 . S
O474 Mn469 2.121 . S
O474 C482 1.258 . S
C475 N476 1.326 . S
C475 C479 1.460 . S
C475 H481 0.929 . S
N476 Mn469 2.257 . S
N476 C475 1.326 . S
N476 C480 1.362 . S
C477 C478 1.258 . S
C477 C480 1.431 . S
C477 C497 1.449 . S
C478 C477 1.258 . S
C478 C479 1.477 . S
C478 H498 0.931 . S
C479 C475 1.460 . S
C479 C478 1.477 . S
C479 H499 0.930 . S
C480 N476 1.362 . S
C480 C477 1.431 . S
C480 C490 1.476 . S
H481 C475 0.929 . S
C482 O473 1.250 . S
C482 O474 1.258 . S
O483 Mn468 2.162 . S
O483 C471 1.281 . S
O484 Mn468 2.297 . S
O484 C471 1.236 . S
N485 Mn469 2.282 . S
N485 C486 1.328 . S
N485 C490 1.318 . S
C486 N485 1.328 . S
C486 C487 1.457 . S
C486 H491 0.929 . S
C487 C486 1.457 . S
C487 C488 1.291 . S
C487 H500 0.931 . S
C488 C487 1.291 . S
C488 C489 1.373 . S
C488 H501 0.929 . S
C489 C488 1.373 . S
C489 C490 1.396 . S
C489 C496 1.403 . S
C490 C480 1.476 . S
C490 N485 1.318 . S
C490 C489 1.396 . S
H491 C486 0.929 . S
O492 Mn468 2.385 . S
O492 C470 1.234 1_554 S
O493 Mn468 2.209 1_556 S
O493 Mn469 2.215 . S
O493 C470 1.283 . S
O494 Mn468 2.094 1_556 S
O494 C472 1.240 . S
O495 Mn469 2.117 . S
O495 C472 1.264 . S
C496 C489 1.403 . S
C496 C497 1.399 . S
C496 H502 0.929 . S
C497 C477 1.449 . S
C497 C496 1.399 . S
C497 H503 0.930 . S
H498 C478 0.931 . S
H499 C479 0.930 . S
H500 C487 0.931 . S
H501 C488 0.929 . S
H502 C496 0.929 . S
H503 C497 0.930 . S
Mn504 O509 2.095 . S
Mn504 O519 2.162 . S
Mn504 O520 2.297 . S
Mn504 O528 2.385 . S
Mn504 O529 2.209 . S
Mn504 O530 2.094 . S
Mn505 O510 2.121 . S
Mn505 N512 2.257 . S
Mn505 N521 2.282 . S
Mn505 O529 2.215 . S
Mn505 O531 2.117 . S
C506 O528 1.234 . S
C506 O529 1.283 . S
C507 O519 1.281 . S
C507 O520 1.236 . S
C508 O530 1.240 . S
C508 O531 1.264 . S
O509 Mn504 2.095 . S
O509 C518 1.250 . S
O510 Mn505 2.121 . S
O510 C518 1.258 . S
C511 N512 1.326 . S
C511 C515 1.460 . S
C511 H517 0.929 . S
N512 Mn505 2.257 . S
N512 C511 1.326 . S
N512 C516 1.362 . S
C513 C514 1.258 . S
C513 C516 1.431 . S
C513 C533 1.449 . S
C514 C513 1.258 . S
C514 C515 1.477 . S
C514 H534 0.931 . S
C515 C511 1.460 . S
C515 C514 1.477 . S
C515 H535 0.930 . S
C516 N512 1.362 . S
C516 C513 1.431 . S
C516 C526 1.476 . S
H517 C511 0.929 . S
C518 O509 1.250 . S
C518 O510 1.258 . S
O519 Mn504 2.162 . S
O519 C507 1.281 . S
O520 Mn504 2.297 . S
O520 C507 1.236 . S
N521 Mn505 2.282 . S
N521 C522 1.328 . S
N521 C526 1.318 . S
C522 N521 1.328 . S
C522 C523 1.457 . S
C522 H527 0.929 . S
C523 C522 1.457 . S
C523 C524 1.291 . S
C523 H536 0.931 . S
C524 C523 1.291 . S
C524 C525 1.373 . S
C524 H537 0.929 . S
C525 C524 1.373 . S
C525 C526 1.396 . S
C525 C532 1.403 . S
C526 C516 1.476 . S
C526 N521 1.318 . S
C526 C525 1.396 . S
H527 C522 0.929 . S
O528 Mn504 2.385 . S
O528 C506 1.234 . S
O529 Mn504 2.209 . S
O529 Mn505 2.215 . S
O529 C506 1.283 . S
O530 Mn504 2.094 . S
O530 C508 1.240 . S
O531 Mn505 2.117 . S
O531 C508 1.264 . S
C532 C525 1.403 . S
C532 C533 1.399 . S
C532 H538 0.929 . S
C533 C513 1.449 . S
C533 C532 1.399 . S
C533 H539 0.930 . S
H534 C514 0.931 . S
H535 C515 0.930 . S
H536 C523 0.931 . S
H537 C524 0.929 . S
H538 C532 0.929 . S
H539 C533 0.930 . S
Mn540 O545 2.095 . S
Mn540 O555 2.162 . S
Mn540 O556 2.297 . S
Mn540 O564 2.385 . S
Mn540 O565 2.209 . S
Mn540 O566 2.094 . S
Mn541 O546 2.121 . S
Mn541 N548 2.257 . S
Mn541 N557 2.282 . S
Mn541 O565 2.215 . S
Mn541 O567 2.117 . S
C542 O564 1.234 . S
C542 O565 1.283 . S
C543 O555 1.281 . S
C543 O556 1.236 . S
C544 O566 1.240 . S
C544 O567 1.264 . S
O545 Mn540 2.095 . S
O545 C554 1.250 . S
O546 Mn541 2.121 . S
O546 C554 1.258 . S
C547 N548 1.326 . S
C547 C551 1.460 1_565 S
C547 H553 0.929 . S
N548 Mn541 2.257 . S
N548 C547 1.326 . S
N548 C552 1.362 . S
C549 C550 1.258 . S
C549 C552 1.431 1_545 S
C549 C569 1.449 . S
C550 C549 1.258 . S
C550 C551 1.477 . S
C550 H570 0.931 . S
C551 C547 1.460 1_545 S
C551 C550 1.477 . S
C551 H571 0.930 . S
C552 N548 1.362 . S
C552 C549 1.431 1_565 S
C552 C562 1.476 . S
H553 C547 0.929 . S
C554 O545 1.250 . S
C554 O546 1.258 . S
O555 Mn540 2.162 . S
O555 C543 1.281 . S
O556 Mn540 2.297 . S
O556 C543 1.236 . S
N557 Mn541 2.282 . S
N557 C558 1.328 . S
N557 C562 1.318 . S
C558 N557 1.328 . S
C558 C559 1.457 . S
C558 H563 0.929 . S
C559 C558 1.457 . S
C559 C560 1.291 . S
C559 H572 0.931 . S
C560 C559 1.291 . S
C560 C561 1.373 . S
C560 H573 0.929 . S
C561 C560 1.373 . S
C561 C562 1.396 . S
C561 C568 1.403 . S
C562 C552 1.476 . S
C562 N557 1.318 . S
C562 C561 1.396 . S
H563 C558 0.929 . S
O564 Mn540 2.385 . S
O564 C542 1.234 . S
O565 Mn540 2.209 . S
O565 Mn541 2.215 . S
O565 C542 1.283 . S
O566 Mn540 2.094 . S
O566 C544 1.240 . S
O567 Mn541 2.117 . S
O567 C544 1.264 . S
C568 C561 1.403 . S
C568 C569 1.399 1_565 S
C568 H574 0.930 . S
C569 C549 1.449 . S
C569 C568 1.399 1_545 S
C569 H575 0.930 . S
H570 C550 0.931 . S
H571 C551 0.930 . S
H572 C559 0.931 . S
H573 C560 0.929 . S
H574 C568 0.930 . S
H575 C569 0.930 . S
Mn576 O581 2.095 1_565 S
Mn576 O591 2.162 1_565 S
Mn576 O592 2.297 . S
Mn576 O600 2.385 . S
Mn576 O601 2.209 . S
Mn576 O602 2.094 1_565 S
Mn577 O582 2.121 1_565 S
Mn577 N584 2.257 . S
Mn577 N593 2.282 . S
Mn577 O601 2.215 . S
Mn577 O603 2.117 1_565 S
C578 O600 1.234 . S
C578 O601 1.283 . S
C579 O591 1.281 . S
C579 O592 1.236 1_545 S
C580 O602 1.240 . S
C580 O603 1.264 . S
O581 Mn576 2.095 1_545 S
O581 C590 1.250 . S
O582 Mn577 2.121 1_545 S
O582 C590 1.258 . S
C583 N584 1.326 . S
C583 C587 1.460 . S
C583 H589 0.929 1_565 S
N584 Mn577 2.257 . S
N584 C583 1.326 . S
N584 C588 1.362 . S
C585 C586 1.258 . S
C585 C588 1.431 . S
C585 C605 1.449 . S
C586 C585 1.258 . S
C586 C587 1.477 . S
C586 H606 0.931 . S
C587 C583 1.460 . S
C587 C586 1.477 . S
C587 H607 0.930 . S
C588 N584 1.362 . S
C588 C585 1.431 . S
C588 C598 1.476 . S
H589 C583 0.929 1_545 S
C590 O581 1.250 . S
C590 O582 1.258 . S
O591 Mn576 2.162 1_545 S
O591 C579 1.281 . S
O592 Mn576 2.297 . S
O592 C579 1.236 1_565 S
N593 Mn577 2.282 . S
N593 C594 1.328 . S
N593 C598 1.318 . S
C594 N593 1.328 . S
C594 C595 1.457 . S
C594 H599 0.929 . S
C595 C594 1.457 . S
C595 C596 1.291 . S
C595 H608 0.931 . S
C596 C595 1.291 . S
C596 C597 1.373 . S
C596 H609 0.929 . S
C597 C596 1.373 . S
C597 C598 1.396 . S
C597 C604 1.403 . S
C598 C588 1.476 . S
C598 N593 1.318 . S
C598 C597 1.396 . S
H599 C594 0.929 . S
O600 Mn576 2.385 . S
O600 C578 1.234 . S
O601 Mn576 2.209 . S
O601 Mn577 2.215 . S
O601 C578 1.283 . S
O602 Mn576 2.094 1_545 S
O602 C580 1.240 . S
O603 Mn577 2.117 1_545 S
O603 C580 1.264 . S
C604 C597 1.403 . S
C604 C605 1.399 . S
C604 H610 0.929 . S
C605 C585 1.449 . S
C605 C604 1.399 . S
C605 H611 0.930 . S
H606 C586 0.931 . S
H607 C587 0.930 . S
H608 C595 0.931 . S
H609 C596 0.929 . S
H610 C604 0.929 . S
H611 C605 0.930 . S
Mn612 O617 2.095 . S
Mn612 O627 2.162 . S
Mn612 O628 2.297 . S
Mn612 O636 2.385 . S
Mn612 O637 2.209 . S
Mn612 O638 2.094 . S
Mn613 O618 2.121 . S
Mn613 N620 2.257 . S
Mn613 N629 2.282 . S
Mn613 O637 2.215 . S
Mn613 O639 2.117 . S
C614 O636 1.234 . S
C614 O637 1.283 . S
C615 O627 1.281 . S
C615 O628 1.236 . S
C616 O638 1.240 . S
C616 O639 1.264 . S
O617 Mn612 2.095 . S
O617 C626 1.250 . S
O618 Mn613 2.121 . S
O618 C626 1.258 . S
C619 N620 1.326 . S
C619 C623 1.460 . S
C619 H625 0.929 . S
N620 Mn613 2.257 . S
N620 C619 1.326 . S
N620 C624 1.362 . S
C621 C622 1.258 . S
C621 C624 1.431 . S
C621 C641 1.449 . S
C622 C621 1.258 . S
C622 C623 1.477 . S
C622 H642 0.931 . S
C623 C619 1.460 . S
C623 C622 1.477 . S
C623 H643 0.930 . S
C624 N620 1.362 . S
C624 C621 1.431 . S
C624 C634 1.476 . S
H625 C619 0.929 . S
C626 O617 1.250 . S
C626 O618 1.258 . S
O627 Mn612 2.162 . S
O627 C615 1.281 . S
O628 Mn612 2.297 . S
O628 C615 1.236 . S
N629 Mn613 2.282 . S
N629 C630 1.328 . S
N629 C634 1.318 . S
C630 N629 1.328 . S
C630 C631 1.457 . S
C630 H635 0.929 . S
C631 C630 1.457 . S
C631 C632 1.291 . S
C631 H644 0.931 . S
C632 C631 1.291 . S
C632 C633 1.373 . S
C632 H645 0.929 . S
C633 C632 1.373 . S
C633 C634 1.396 . S
C633 C640 1.403 . S
C634 C624 1.476 . S
C634 N629 1.318 . S
C634 C633 1.396 . S
H635 C630 0.929 . S
O636 Mn612 2.385 . S
O636 C614 1.234 . S
O637 Mn612 2.209 . S
O637 Mn613 2.215 . S
O637 C614 1.283 . S
O638 Mn612 2.094 . S
O638 C616 1.240 . S
O639 Mn613 2.117 . S
O639 C616 1.264 . S
C640 C633 1.403 . S
C640 C641 1.399 . S
C640 H646 0.929 . S
C641 C621 1.449 . S
C641 C640 1.399 . S
C641 H647 0.930 . S
H642 C622 0.931 . S
H643 C623 0.930 . S
H644 C631 0.931 . S
H645 C632 0.929 . S
H646 C640 0.929 . S
H647 C641 0.930 . S
Mn648 O653 2.095 . S
Mn648 O663 2.162 . S
Mn648 O664 2.297 . S
Mn648 O672 2.385 . S
Mn648 O673 2.209 . S
Mn648 O674 2.094 . S
Mn649 O654 2.121 . S
Mn649 N656 2.257 . S
Mn649 N665 2.282 . S
Mn649 O673 2.215 . S
Mn649 O675 2.117 . S
C650 O672 1.234 . S
C650 O673 1.283 . S
C651 O663 1.281 . S
C651 O664 1.236 . S
C652 O674 1.240 . S
C652 O675 1.264 . S
O653 Mn648 2.095 . S
O653 C662 1.250 . S
O654 Mn649 2.121 . S
O654 C662 1.258 . S
C655 N656 1.326 . S
C655 C659 1.460 . S
C655 H661 0.929 . S
N656 Mn649 2.257 . S
N656 C655 1.326 . S
N656 C660 1.362 . S
C657 C658 1.258 . S
C657 C660 1.431 . S
C657 C677 1.449 . S
C658 C657 1.258 . S
C658 C659 1.477 . S
C658 H678 0.931 . S
C659 C655 1.460 . S
C659 C658 1.477 . S
C659 H679 0.930 . S
C660 N656 1.362 . S
C660 C657 1.431 . S
C660 C670 1.476 . S
H661 C655 0.929 . S
C662 O653 1.250 . S
C662 O654 1.258 . S
O663 Mn648 2.162 . S
O663 C651 1.281 . S
O664 Mn648 2.297 . S
O664 C651 1.236 . S
N665 Mn649 2.282 . S
N665 C666 1.328 . S
N665 C670 1.318 . S
C666 N665 1.328 . S
C666 C667 1.457 . S
C666 H671 0.929 . S
C667 C666 1.457 . S
C667 C668 1.291 . S
C667 H680 0.931 . S
C668 C667 1.291 . S
C668 C669 1.373 . S
C668 H681 0.929 . S
C669 C668 1.373 . S
C669 C670 1.396 . S
C669 C676 1.403 . S
C670 C660 1.476 . S
C670 N665 1.318 . S
C670 C669 1.396 . S
H671 C666 0.929 . S
O672 Mn648 2.385 . S
O672 C650 1.234 . S
O673 Mn648 2.209 . S
O673 Mn649 2.215 . S
O673 C650 1.283 . S
O674 Mn648 2.094 . S
O674 C652 1.240 . S
O675 Mn649 2.117 . S
O675 C652 1.264 . S
C676 C669 1.403 . S
C676 C677 1.399 . S
C676 H682 0.929 . S
C677 C657 1.449 . S
C677 C676 1.399 . S
C677 H683 0.930 . S
H678 C658 0.931 . S
H679 C659 0.930 . S
H680 C667 0.931 . S
H681 C668 0.929 . S
H682 C676 0.929 . S
H683 C677 0.930 . S
Mn684 O689 2.095 1_545 S
Mn684 O699 2.162 . S
Mn684 O700 2.297 . S
Mn684 O708 2.385 . S
Mn684 O709 2.209 . S
Mn684 O710 2.094 . S
Mn685 O690 2.121 1_545 S
Mn685 N692 2.257 . S
Mn685 N701 2.282 . S
Mn685 O709 2.215 . S
Mn685 O711 2.117 . S
C686 O708 1.234 . S
C686 O709 1.283 . S
C687 O699 1.281 . S
C687 O700 1.236 . S
C688 O710 1.240 . S
C688 O711 1.264 . S
O689 Mn684 2.095 1_565 S
O689 C698 1.250 . S
O690 Mn685 2.121 1_565 S
O690 C698 1.258 . S
C691 N692 1.326 . S
C691 C695 1.460 . S
C691 H697 0.929 . S
N692 Mn685 2.257 . S
N692 C691 1.326 . S
N692 C696 1.362 . S
C693 C694 1.258 . S
C693 C696 1.431 . S
C693 C713 1.449 . S
C694 C693 1.258 . S
C694 C695 1.477 . S
C694 H714 0.931 . S
C695 C691 1.460 . S
C695 C694 1.477 . S
C695 H715 0.930 . S
C696 N692 1.362 . S
C696 C693 1.431 . S
C696 C706 1.476 . S
H697 C691 0.929 . S
C698 O689 1.250 . S
C698 O690 1.258 . S
O699 Mn684 2.162 . S
O699 C687 1.281 . S
O700 Mn684 2.297 . S
O700 C687 1.236 . S
N701 Mn685 2.282 . S
N701 C702 1.328 . S
N701 C706 1.318 . S
C702 N701 1.328 . S
C702 C703 1.457 . S
C702 H707 0.929 . S
C703 C702 1.457 . S
C703 C704 1.291 . S
C703 H716 0.931 . S
C704 C703 1.291 . S
C704 C705 1.373 . S
C704 H717 0.929 . S
C705 C704 1.373 . S
C705 C706 1.396 . S
C705 C712 1.403 . S
C706 C696 1.476 . S
C706 N701 1.318 . S
C706 C705 1.396 . S
H707 C702 0.929 . S
O708 Mn684 2.385 . S
O708 C686 1.234 . S
O709 Mn684 2.209 . S
O709 Mn685 2.215 . S
O709 C686 1.283 . S
O710 Mn684 2.094 . S
O710 C688 1.240 . S
O711 Mn685 2.117 . S
O711 C688 1.264 . S
C712 C705 1.403 . S
C712 C713 1.399 . S
C712 H718 0.929 . S
C713 C693 1.449 . S
C713 C712 1.399 . S
C713 H719 0.930 . S
H714 C694 0.931 . S
H715 C695 0.930 . S
H716 C703 0.931 . S
H717 C704 0.929 . S
H718 C712 0.929 . S
H719 C713 0.930 . S
Mn720 O725 2.095 . S
Mn720 O735 2.162 . S
Mn720 O736 2.297 . S
Mn720 O744 2.385 . S
Mn720 O745 2.209 . S
Mn720 O746 2.094 1_554 S
Mn721 O726 2.121 1_556 S
Mn721 N728 2.257 . S
Mn721 N737 2.282 . S
Mn721 O745 2.215 1_556 S
Mn721 O747 2.117 . S
C722 O744 1.234 . S
C722 O745 1.283 . S
C723 O735 1.281 . S
C723 O736 1.236 . S
C724 O746 1.240 . S
C724 O747 1.264 . S
O725 Mn720 2.095 . S
O725 C734 1.250 . S
O726 Mn721 2.121 1_554 S
O726 C734 1.258 . S
C727 N728 1.326 . S
C727 C731 1.460 . S
C727 H733 0.929 1_556 S
N728 Mn721 2.257 . S
N728 C727 1.326 . S
N728 C732 1.362 . S
C729 C730 1.258 . S
C729 C732 1.431 . S
C729 C749 1.449 . S
C730 C729 1.258 . S
C730 C731 1.477 . S
C730 H750 0.931 . S
C731 C727 1.460 . S
C731 C730 1.477 . S
C731 H751 0.930 1_556 S
C732 N728 1.362 . S
C732 C729 1.431 . S
C732 C742 1.476 . S
H733 C727 0.929 1_554 S
C734 O725 1.250 . S
C734 O726 1.258 . S
O735 Mn720 2.162 . S
O735 C723 1.281 . S
O736 Mn720 2.297 . S
O736 C723 1.236 . S
N737 Mn721 2.282 . S
N737 C738 1.328 . S
N737 C742 1.318 . S
C738 N737 1.328 . S
C738 C739 1.457 . S
C738 H743 0.929 . S
C739 C738 1.457 . S
C739 C740 1.291 . S
C739 H752 0.931 . S
C740 C739 1.291 . S
C740 C741 1.373 . S
C740 H753 0.929 . S
C741 C740 1.373 . S
C741 C742 1.396 . S
C741 C748 1.403 . S
C742 C732 1.476 . S
C742 N737 1.318 . S
C742 C741 1.396 . S
H743 C738 0.929 . S
O744 Mn720 2.385 . S
O744 C722 1.234 . S
O745 Mn720 2.209 . S
O745 Mn721 2.215 1_554 S
O745 C722 1.283 . S
O746 Mn720 2.094 1_556 S
O746 C724 1.240 . S
O747 Mn721 2.117 . S
O747 C724 1.264 . S
C748 C741 1.403 . S
C748 C749 1.399 . S
C748 H754 0.929 . S
C749 C729 1.449 . S
C749 C748 1.399 . S
C749 H755 0.930 . S
H750 C730 0.931 . S
H751 C731 0.930 1_554 S
H752 C739 0.931 . S
H753 C740 0.929 . S
H754 C748 0.929 . S
H755 C749 0.930 . S
Mn756 O761 2.095 1_455 S
Mn756 O771 2.162 . S
Mn756 O772 2.297 1_455 S
Mn756 O780 2.387 1_455 S
Mn756 O781 2.209 1_455 S
Mn756 O782 2.094 . S
Mn757 O762 2.121 . S
Mn757 N764 2.257 . S
Mn757 N773 2.282 . S
Mn757 O781 2.215 . S
Mn757 O783 2.117 . S
C758 O780 1.280 . S
C758 O781 1.283 . S
C759 O771 1.281 . S
C759 O772 1.236 1_455 S
C760 O782 1.240 . S
C760 O783 1.264 1_455 S
O761 Mn756 2.095 1_655 S
O761 C770 1.250 . S
O762 Mn757 2.121 . S
O762 C770 1.258 . S
C763 N764 1.326 . S
C763 C767 1.460 . S
C763 H769 0.929 . S
N764 Mn757 2.257 . S
N764 C763 1.326 . S
N764 C768 1.362 . S
C765 C766 1.258 . S
C765 C768 1.431 . S
C765 C785 1.449 . S
C766 C765 1.258 . S
C766 C767 1.477 . S
C766 H786 0.931 . S
C767 C763 1.460 . S
C767 C766 1.477 . S
C767 H787 0.930 . S
C768 N764 1.362 . S
C768 C765 1.431 . S
C768 C778 1.476 . S
H769 C763 0.929 . S
C770 O761 1.250 . S
C770 O762 1.258 . S
O771 Mn756 2.162 . S
O771 C759 1.281 . S
O772 Mn756 2.297 1_655 S
O772 C759 1.236 1_655 S
N773 Mn757 2.282 . S
N773 C774 1.328 . S
N773 C778 1.318 . S
C774 N773 1.328 . S
C774 C775 1.457 . S
C774 H779 0.929 . S
C775 C774 1.457 . S
C775 C776 1.291 . S
C775 H788 0.931 . S
C776 C775 1.291 . S
C776 C777 1.373 . S
C776 H789 0.929 . S
C777 C776 1.373 . S
C777 C778 1.396 . S
C777 C784 1.403 . S
C778 C768 1.476 . S
C778 N773 1.318 . S
C778 C777 1.396 . S
H779 C774 0.929 . S
O780 Mn756 2.387 1_655 S
O780 C758 1.280 . S
O781 Mn756 2.209 1_655 S
O781 Mn757 2.215 . S
O781 C758 1.283 . S
O782 Mn756 2.094 . S
O782 C760 1.240 . S
O783 Mn757 2.117 . S
O783 C760 1.264 1_655 S
C784 C777 1.403 . S
C784 C785 1.399 . S
C784 H790 0.929 . S
C785 C765 1.449 . S
C785 C784 1.399 . S
C785 H791 0.930 . S
H786 C766 0.931 . S
H787 C767 0.930 . S
H788 C775 0.931 . S
H789 C776 0.929 . S
H790 C784 0.929 . S
H791 C785 0.930 . S
Mn792 O797 2.095 . S
Mn792 O807 2.162 . S
Mn792 O808 2.297 . S
Mn792 O816 2.385 . S
Mn792 O817 2.209 . S
Mn792 O818 2.094 . S
Mn793 O798 2.121 . S
Mn793 N800 2.257 . S
Mn793 N809 2.282 . S
Mn793 O817 2.215 . S
Mn793 O819 2.117 . S
C794 O816 1.234 . S
C794 O817 1.283 . S
C795 O807 1.281 . S
C795 O808 1.236 . S
C796 O818 1.240 . S
C796 O819 1.264 . S
O797 Mn792 2.095 . S
O797 C806 1.250 . S
O798 Mn793 2.121 . S
O798 C806 1.258 . S
C799 N800 1.326 . S
C799 C803 1.460 . S
C799 H805 0.929 . S
N800 Mn793 2.257 . S
N800 C799 1.326 . S
N800 C804 1.362 . S
C801 C802 1.258 . S
C801 C804 1.431 . S
C801 C821 1.449 . S
C802 C801 1.258 . S
C802 C803 1.477 . S
C802 H822 0.931 . S
C803 C799 1.460 . S
C803 C802 1.477 . S
C803 H823 0.930 . S
C804 N800 1.362 . S
C804 C801 1.431 . S
C804 C814 1.476 . S
H805 C799 0.929 . S
C806 O797 1.250 . S
C806 O798 1.258 . S
O807 Mn792 2.162 . S
O807 C795 1.281 . S
O808 Mn792 2.297 . S
O808 C795 1.236 . S
N809 Mn793 2.282 . S
N809 C810 1.328 . S
N809 C814 1.318 . S
C810 N809 1.328 . S
C810 C811 1.457 . S
C810 H815 0.929 . S
C811 C810 1.457 . S
C811 C812 1.291 . S
C811 H824 0.931 . S
C812 C811 1.291 . S
C812 C813 1.373 . S
C812 H825 0.929 . S
C813 C812 1.373 . S
C813 C814 1.396 . S
C813 C820 1.403 . S
C814 C804 1.476 . S
C814 N809 1.318 . S
C814 C813 1.396 . S
H815 C810 0.929 . S
O816 Mn792 2.385 . S
O816 C794 1.234 . S
O817 Mn792 2.209 . S
O817 Mn793 2.215 . S
O817 C794 1.283 . S
O818 Mn792 2.094 . S
O818 C796 1.240 . S
O819 Mn793 2.117 . S
O819 C796 1.264 . S
C820 C813 1.403 . S
C820 C821 1.399 . S
C820 H826 0.929 . S
C821 C801 1.449 . S
C821 C820 1.399 . S
C821 H827 0.930 . S
H822 C802 0.931 . S
H823 C803 0.930 . S
H824 C811 0.931 . S
H825 C812 0.929 . S
H826 C820 0.929 . S
H827 C821 0.930 . S
Mn828 O833 2.095 . S
Mn828 O843 2.162 . S
Mn828 O844 2.297 . S
Mn828 O852 2.385 . S
Mn828 O853 2.209 . S
Mn828 O854 2.094 . S
Mn829 O834 2.121 . S
Mn829 N836 2.257 . S
Mn829 N845 2.282 . S
Mn829 O853 2.215 . S
Mn829 O855 2.117 . S
C830 O852 1.234 . S
C830 O853 1.283 . S
C831 O843 1.281 . S
C831 O844 1.236 . S
C832 O854 1.240 . S
C832 O855 1.264 . S
O833 Mn828 2.095 . S
O833 C842 1.250 . S
O834 Mn829 2.121 . S
O834 C842 1.258 . S
C835 N836 1.326 . S
C835 C839 1.460 . S
C835 H841 0.929 . S
N836 Mn829 2.257 . S
N836 C835 1.326 . S
N836 C840 1.362 . S
C837 C838 1.258 . S
C837 C840 1.431 . S
C837 C857 1.449 . S
C838 C837 1.258 . S
C838 C839 1.477 . S
C838 H858 0.931 . S
C839 C835 1.460 . S
C839 C838 1.477 . S
C839 H859 0.930 . S
C840 N836 1.362 . S
C840 C837 1.431 . S
C840 C850 1.476 . S
H841 C835 0.929 . S
C842 O833 1.250 . S
C842 O834 1.258 . S
O843 Mn828 2.162 . S
O843 C831 1.281 . S
O844 Mn828 2.297 . S
O844 C831 1.236 . S
N845 Mn829 2.282 . S
N845 C846 1.328 . S
N845 C850 1.318 . S
C846 N845 1.328 . S
C846 C847 1.457 . S
C846 H851 0.929 . S
C847 C846 1.457 . S
C847 C848 1.291 . S
C847 H860 0.931 . S
C848 C847 1.291 . S
C848 C849 1.373 . S
C848 H861 0.929 . S
C849 C848 1.373 . S
C849 C850 1.396 . S
C849 C856 1.403 . S
C850 C840 1.476 . S
C850 N845 1.318 . S
C850 C849 1.396 . S
H851 C846 0.929 . S
O852 Mn828 2.385 . S
O852 C830 1.234 . S
O853 Mn828 2.209 . S
O853 Mn829 2.215 . S
O853 C830 1.283 . S
O854 Mn828 2.094 . S
O854 C832 1.240 . S
O855 Mn829 2.117 . S
O855 C832 1.264 . S
C856 C849 1.403 . S
C856 C857 1.399 . S
C856 H862 0.929 . S
C857 C837 1.449 . S
C857 C856 1.399 . S
C857 H863 0.930 . S
H858 C838 0.931 . S
H859 C839 0.930 . S
H860 C847 0.931 . S
H861 C848 0.929 . S
H862 C856 0.929 . S
H863 C857 0.930 . S
Tb864 C874 2.825 1_454 S
Tb864 O875 2.347 . S
Tb864 O878 2.360 1_554 S
Tb864 O883 2.418 1_554 S
Tb864 O884 2.384 1_545 S
Tb864 O887 2.479 1_454 S
Tb864 O888 2.471 1_455 S
Eu865 O876 2.418 . S
Eu865 O877 2.384 . S
Eu865 O880 2.479 . S
Eu865 O881 2.471 . S
Eu865 O882 2.327 1_554 S
Eu865 O885 2.366 1_545 S
Eu865 C895 2.825 . S
C866 O882 1.280 . S
C866 O883 1.265 . S
C867 O884 1.255 . S
C867 O885 1.265 . S
C868 C870 1.380 . S
C868 C871 1.374 . S
C868 C874 1.507 . S
C869 C870 1.384 . S
C869 C873 1.387 . S
C869 H896 0.930 . S
C870 C868 1.380 . S
C870 C869 1.384 . S
C870 H897 0.931 . S
C871 C868 1.374 . S
C871 C872 1.390 . S
C871 H898 0.930 1_556 S
C872 C871 1.390 . S
C872 C873 1.391 . S
C872 H899 0.930 . S
C873 C869 1.387 . S
C873 C872 1.391 . S
C874 Tb864 2.825 1_656 S
C874 C868 1.507 . S
C874 O887 1.238 . S
C874 O888 1.247 1_556 S
O875 Tb864 2.347 . S
O875 C879 1.259 . S
O876 Eu865 2.418 . S
O876 C879 1.265 . S
O877 Eu865 2.384 . S
O877 C886 1.255 . S
O878 Tb864 2.360 1_556 S
O878 C886 1.249 1_556 S
C879 O875 1.259 . S
C879 O876 1.265 . S
O880 Eu865 2.479 . S
O880 C895 1.238 . S
O881 Eu865 2.471 . S
O881 C895 1.247 . S
O882 Eu865 2.327 1_556 S
O882 C866 1.280 . S
O883 Tb864 2.418 1_556 S
O883 C866 1.265 . S
O884 Tb864 2.384 1_565 S
O884 C867 1.255 . S
O885 Eu865 2.366 1_565 S
O885 C867 1.265 . S
C886 O877 1.255 . S
C886 O878 1.249 1_554 S
O887 Tb864 2.479 1_656 S
O887 C874 1.238 . S
O888 Tb864 2.471 1_655 S
O888 C874 1.247 1_554 S
C889 C892 1.380 . S
C889 C893 1.374 1_545 S
C889 C895 1.507 . S
C890 C891 1.387 1_565 S
C890 C894 1.391 . S
C891 C890 1.387 1_545 S
C891 C892 1.384 . S
C891 H900 0.930 . S
C892 C889 1.380 . S
C892 C891 1.384 . S
C892 H901 0.931 . S
C893 C889 1.374 1_565 S
C893 C894 1.390 . S
C893 H902 0.930 . S
C894 C890 1.391 . S
C894 C893 1.390 . S
C894 H903 0.930 . S
C895 Eu865 2.825 . S
C895 O880 1.238 . S
C895 O881 1.247 . S
C895 C889 1.507 . S
H896 C869 0.930 . S
H897 C870 0.931 . S
H898 C871 0.930 1_554 S
H899 C872 0.930 . S
H900 C891 0.930 . S
H901 C892 0.931 . S
H902 C893 0.930 . S
H903 C894 0.930 . S
Tb904 C914 2.825 . S
Tb904 O915 2.347 . S
Tb904 O918 2.366 . S
Tb904 O923 2.418 . S
Tb904 O924 2.384 . S
Tb904 O927 2.479 . S
Tb904 O928 2.471 . S
Eu905 O916 2.418 . S
Eu905 O917 2.384 . S
Eu905 O920 2.479 . S
Eu905 O921 2.471 . S
Eu905 O922 2.347 . S
Eu905 O925 2.366 . S
Eu905 C935 2.825 . S
C906 O922 1.259 . S
C906 O923 1.265 . S
C907 O924 1.255 . S
C907 O925 1.265 . S
C908 C910 1.380 . S
C908 C911 1.374 . S
C908 C914 1.507 . S
C909 C910 1.384 . S
C909 C913 1.387 . S
C909 H936 0.930 . S
C910 C908 1.380 . S
C910 C909 1.384 . S
C910 H937 0.931 . S
C911 C908 1.374 . S
C911 C912 1.390 . S
C911 H938 0.930 . S
C912 C911 1.390 . S
C912 C913 1.391 . S
C912 H939 0.930 . S
C913 C909 1.387 . S
C913 C912 1.391 . S
C914 Tb904 2.825 . S
C914 C908 1.507 . S
C914 O927 1.238 . S
C914 O928 1.247 . S
O915 Tb904 2.347 . S
O915 C919 1.259 . S
O916 Eu905 2.418 . S
O916 C919 1.265 . S
O917 Eu905 2.384 . S
O917 C926 1.255 . S
O918 Tb904 2.366 . S
O918 C926 1.265 . S
C919 O915 1.259 . S
C919 O916 1.265 . S
O920 Eu905 2.479 . S
O920 C935 1.238 . S
O921 Eu905 2.471 . S
O921 C935 1.247 . S
O922 Eu905 2.347 . S
O922 C906 1.259 . S
O923 Tb904 2.418 . S
O923 C906 1.265 . S
O924 Tb904 2.384 . S
O924 C907 1.255 . S
O925 Eu905 2.366 . S
O925 C907 1.265 . S
C926 O917 1.255 . S
C926 O918 1.265 . S
O927 Tb904 2.479 . S
O927 C914 1.238 . S
O928 Tb904 2.471 . S
O928 C914 1.247 . S
C929 C932 1.380 . S
C929 C933 1.374 . S
C929 C935 1.507 . S
C930 C931 1.387 . S
C930 C934 1.391 . S
C931 C930 1.387 . S
C931 C932 1.384 . S
C931 H940 0.930 . S
C932 C929 1.380 . S
C932 C931 1.384 . S
C932 H941 0.931 . S
C933 C929 1.374 . S
C933 C934 1.390 . S
C933 H942 0.930 . S
C934 C930 1.391 . S
C934 C933 1.390 . S
C934 H943 0.930 . S
C935 Eu905 2.825 . S
C935 O920 1.238 . S
C935 O921 1.247 . S
C935 C929 1.507 . S
H936 C909 0.930 . S
H937 C910 0.931 . S
H938 C911 0.930 . S
H939 C912 0.930 . S
H940 C931 0.930 . S
H941 C932 0.931 . S
H942 C933 0.930 . S
H943 C934 0.930 . S
Tb944 C954 2.825 1_545 S
Tb944 O955 2.347 . S
Tb944 O958 2.366 . S
Tb944 O963 2.418 . S
Tb944 O964 2.384 . S
Tb944 O967 2.479 1_545 S
Tb944 O968 2.471 1_545 S
Eu945 O956 2.418 . S
Eu945 O957 2.384 . S
Eu945 O960 2.479 . S
Eu945 O961 2.471 . S
Eu945 O962 2.347 . S
Eu945 O965 2.366 . S
Eu945 C975 2.825 . S
C946 O962 1.259 . S
C946 O963 1.265 . S
C947 O964 1.255 . S
C947 O965 1.265 . S
C948 C950 1.380 . S
C948 C951 1.374 . S
C948 C954 1.507 . S
C949 C950 1.384 . S
C949 C953 1.387 . S
C949 H976 0.930 . S
C950 C948 1.380 . S
C950 C949 1.384 . S
C950 H977 0.931 . S
C951 C948 1.374 . S
C951 C952 1.390 . S
C951 H978 0.930 . S
C952 C951 1.390 . S
C952 C953 1.391 . S
C952 H979 0.930 . S
C953 C949 1.387 . S
C953 C952 1.391 . S
C954 Tb944 2.825 1_565 S
C954 C948 1.507 . S
C954 O967 1.238 . S
C954 O968 1.247 . S
O955 Tb944 2.347 . S
O955 C959 1.259 . S
O956 Eu945 2.418 . S
O956 C959 1.265 . S
O957 Eu945 2.384 . S
O957 C966 1.255 . S
O958 Tb944 2.366 . S
O958 C966 1.265 . S
C959 O955 1.259 . S
C959 O956 1.265 . S
O960 Eu945 2.479 . S
O960 C975 1.238 . S
O961 Eu945 2.471 . S
O961 C975 1.247 . S
O962 Eu945 2.347 . S
O962 C946 1.259 . S
O963 Tb944 2.418 . S
O963 C946 1.265 . S
O964 Tb944 2.384 . S
O964 C947 1.255 . S
O965 Eu945 2.366 . S
O965 C947 1.265 . S
C966 O957 1.255 . S
C966 O958 1.265 . S
O967 Tb944 2.479 1_565 S
O967 C954 1.238 . S
O968 Tb944 2.471 1_565 S
O968 C954 1.247 . S
C969 C972 1.380 . S
C969 C973 1.374 . S
C969 C975 1.507 . S
C970 C971 1.387 . S
C970 C974 1.391 . S
C971 C970 1.387 . S
C971 C972 1.384 . S
C971 H980 0.930 . S
C972 C969 1.380 . S
C972 C971 1.384 . S
C972 H981 0.931 . S
C973 C969 1.374 . S
C973 C974 1.390 . S
C973 H982 0.930 . S
C974 C970 1.391 . S
C974 C973 1.390 . S
C974 H983 0.930 . S
C975 Eu945 2.825 . S
C975 O960 1.238 . S
C975 O961 1.247 . S
C975 C969 1.507 . S
H976 C949 0.930 . S
H977 C950 0.931 . S
H978 C951 0.930 . S
H979 C952 0.930 . S
H980 C971 0.930 . S
H981 C972 0.931 . S
H982 C973 0.930 . S
H983 C974 0.930 . S
Tb984 C994 2.825 . S
Tb984 O995 2.347 . S
Tb984 O998 2.366 . S
Tb984 O1003 2.418 . S
Tb984 O1004 2.384 . S
Tb984 O1007 2.479 . S
Tb984 O1008 2.471 . S
Eu985 O996 2.418 . S
Eu985 O997 2.384 . S
Eu985 O1000 2.479 . S
Eu985 O1001 2.471 . S
Eu985 O1002 2.347 . S
Eu985 O1005 2.366 . S
Eu985 C1015 2.825 . S
C986 O1002 1.259 . S
C986 O1003 1.265 . S
C987 O1004 1.255 . S
C987 O1005 1.265 . S
C988 C990 1.380 . S
C988 C991 1.374 . S
C988 C994 1.507 . S
C989 C990 1.384 . S
C989 C993 1.387 . S
C989 H1016 0.930 . S
C990 C988 1.380 . S
C990 C989 1.384 . S
C990 H1017 0.931 . S
C991 C988 1.374 . S
C991 C992 1.390 . S
C991 H1018 0.930 . S
C992 C991 1.390 . S
C992 C993 1.391 . S
C992 H1019 0.930 . S
C993 C989 1.387 . S
C993 C992 1.391 . S
C994 Tb984 2.825 . S
C994 C988 1.507 . S
C994 O1007 1.238 . S
C994 O1008 1.247 . S
O995 Tb984 2.347 . S
O995 C999 1.259 . S
O996 Eu985 2.418 . S
O996 C999 1.265 . S
O997 Eu985 2.384 . S
O997 C1006 1.255 . S
O998 Tb984 2.366 . S
O998 C1006 1.265 . S
C999 O995 1.259 . S
C999 O996 1.265 . S
O1000 Eu985 2.479 . S
O1000 C1015 1.238 . S
O1001 Eu985 2.471 . S
O1001 C1015 1.247 . S
O1002 Eu985 2.347 . S
O1002 C986 1.259 . S
O1003 Tb984 2.418 . S
O1003 C986 1.265 . S
O1004 Tb984 2.384 . S
O1004 C987 1.255 . S
O1005 Eu985 2.366 . S
O1005 C987 1.265 . S
C1006 O997 1.255 . S
C1006 O998 1.265 . S
O1007 Tb984 2.479 . S
O1007 C994 1.238 . S
O1008 Tb984 2.471 . S
O1008 C994 1.247 . S
C1009 C1012 1.380 . S
C1009 C1013 1.374 . S
C1009 C1015 1.507 . S
C1010 C1011 1.387 . S
C1010 C1014 1.391 . S
C1011 C1010 1.387 . S
C1011 C1012 1.384 . S
C1011 H1020 0.930 . S
C1012 C1009 1.380 . S
C1012 C1011 1.384 . S
C1012 H1021 0.931 . S
C1013 C1009 1.374 . S
C1013 C1014 1.390 . S
C1013 H1022 0.930 . S
C1014 C1010 1.391 . S
C1014 C1013 1.390 . S
C1014 H1023 0.930 . S
C1015 Eu985 2.825 . S
C1015 O1000 1.238 . S
C1015 O1001 1.247 . S
C1015 C1009 1.507 . S
H1016 C989 0.930 . S
H1017 C990 0.931 . S
H1018 C991 0.930 . S
H1019 C992 0.930 . S
H1020 C1011 0.930 . S
H1021 C1012 0.931 . S
H1022 C1013 0.930 . S
H1023 C1014 0.930 . S
Tb1024 C1034 2.825 . S
Tb1024 O1035 2.347 . S
Tb1024 O1038 2.366 . S
Tb1024 O1043 2.418 . S
Tb1024 O1044 2.384 1_545 S
Tb1024 O1047 2.479 . S
Tb1024 O1048 2.471 . S
Eu1025 O1036 2.418 . S
Eu1025 O1037 2.384 . S
Eu1025 O1040 2.479 . S
Eu1025 O1041 2.471 . S
Eu1025 O1042 2.347 . S
Eu1025 O1045 2.366 . S
Eu1025 C1055 2.825 . S
C1026 O1042 1.259 . S
C1026 O1043 1.265 . S
C1027 O1044 1.257 . S
C1027 O1045 1.226 1_565 S
C1028 C1030 1.380 . S
C1028 C1031 1.374 1_455 S
C1028 C1034 1.507 . S
C1029 C1030 1.384 . S
C1029 C1033 1.387 . S
C1029 H1056 0.930 . S
C1030 C1028 1.380 . S
C1030 C1029 1.384 . S
C1030 H1057 0.931 . S
C1031 C1028 1.374 1_655 S
C1031 C1032 1.390 . S
C1031 H1058 0.930 . S
C1032 C1031 1.390 . S
C1032 C1033 1.391 1_655 S
C1032 H1059 0.930 . S
C1033 C1029 1.387 . S
C1033 C1032 1.391 1_455 S
C1034 Tb1024 2.825 . S
C1034 C1028 1.507 . S
C1034 O1047 1.238 . S
C1034 O1048 1.247 . S
O1035 Tb1024 2.347 . S
O1035 C1039 1.259 . S
O1036 Eu1025 2.418 . S
O1036 C1039 1.265 . S
O1037 Eu1025 2.384 . S
O1037 C1046 1.255 . S
O1038 Tb1024 2.366 . S
O1038 C1046 1.265 . S
C1039 O1035 1.259 . S
C1039 O1036 1.265 . S
O1040 Eu1025 2.479 . S
O1040 C1055 1.238 . S
O1041 Eu1025 2.471 . S
O1041 C1055 1.247 . S
O1042 Eu1025 2.347 . S
O1042 C1026 1.259 . S
O1043 Tb1024 2.418 . S
O1043 C1026 1.265 . S
O1044 Tb1024 2.384 1_565 S
O1044 C1027 1.257 . S
O1045 Eu1025 2.366 . S
O1045 C1027 1.226 1_545 S
C1046 O1037 1.255 . S
C1046 O1038 1.265 . S
O1047 Tb1024 2.479 . S
O1047 C1034 1.238 . S
O1048 Tb1024 2.471 . S
O1048 C1034 1.247 . S
C1049 C1052 1.380 . S
C1049 C1053 1.374 . S
C1049 C1055 1.507 . S
C1050 C1051 1.387 . S
C1050 C1054 1.391 . S
C1051 C1050 1.387 . S
C1051 C1052 1.384 . S
C1051 H1060 0.930 . S
C1052 C1049 1.380 . S
C1052 C1051 1.384 . S
C1052 H1061 0.931 . S
C1053 C1049 1.374 . S
C1053 C1054 1.390 . S
C1053 H1062 0.930 . S
C1054 C1050 1.391 . S
C1054 C1053 1.390 . S
C1054 H1063 0.930 . S
C1055 Eu1025 2.825 . S
C1055 O1040 1.238 . S
C1055 O1041 1.247 . S
C1055 C1049 1.507 . S
H1056 C1029 0.930 . S
H1057 C1030 0.931 . S
H1058 C1031 0.930 . S
H1059 C1032 0.930 . S
H1060 C1051 0.930 . S
H1061 C1052 0.931 . S
H1062 C1053 0.930 . S
H1063 C1054 0.930 . S
Tb1064 C1074 2.825 . S
Tb1064 O1075 2.347 . S
Tb1064 O1078 2.366 . S
Tb1064 O1083 2.418 . S
Tb1064 O1084 2.384 . S
Tb1064 O1087 2.479 . S
Tb1064 O1088 2.471 . S
Eu1065 O1076 2.418 . S
Eu1065 O1077 2.384 . S
Eu1065 O1080 2.479 . S
Eu1065 O1081 2.471 . S
Eu1065 O1082 2.347 . S
Eu1065 O1085 2.366 . S
Eu1065 C1095 2.825 . S
C1066 O1082 1.259 . S
C1066 O1083 1.265 . S
C1067 O1084 1.255 . S
C1067 O1085 1.265 . S
C1068 C1070 1.380 . S
C1068 C1071 1.374 . S
C1068 C1074 1.507 . S
C1069 C1070 1.384 . S
C1069 C1073 1.387 . S
C1069 H1096 0.930 . S
C1070 C1068 1.380 . S
C1070 C1069 1.384 . S
C1070 H1097 0.931 . S
C1071 C1068 1.374 . S
C1071 C1072 1.390 . S
C1071 H1098 0.930 . S
C1072 C1071 1.390 . S
C1072 C1073 1.391 . S
C1072 H1099 0.930 . S
C1073 C1069 1.387 . S
C1073 C1072 1.391 . S
C1074 Tb1064 2.825 . S
C1074 C1068 1.507 . S
C1074 O1087 1.238 . S
C1074 O1088 1.247 . S
O1075 Tb1064 2.347 . S
O1075 C1079 1.259 . S
O1076 Eu1065 2.418 . S
O1076 C1079 1.265 . S
O1077 Eu1065 2.384 . S
O1077 C1086 1.255 . S
O1078 Tb1064 2.366 . S
O1078 C1086 1.265 . S
C1079 O1075 1.259 . S
C1079 O1076 1.265 . S
O1080 Eu1065 2.479 . S
O1080 C1095 1.238 . S
O1081 Eu1065 2.471 . S
O1081 C1095 1.247 . S
O1082 Eu1065 2.347 . S
O1082 C1066 1.259 . S
O1083 Tb1064 2.418 . S
O1083 C1066 1.265 . S
O1084 Tb1064 2.384 . S
O1084 C1067 1.255 . S
O1085 Eu1065 2.366 . S
O1085 C1067 1.265 . S
C1086 O1077 1.255 . S
C1086 O1078 1.265 . S
O1087 Tb1064 2.479 . S
O1087 C1074 1.238 . S
O1088 Tb1064 2.471 . S
O1088 C1074 1.247 . S
C1089 C1092 1.380 . S
C1089 C1093 1.374 . S
C1089 C1095 1.507 . S
C1090 C1091 1.387 . S
C1090 C1094 1.391 . S
C1091 C1090 1.387 . S
C1091 C1092 1.384 . S
C1091 H1100 0.930 . S
C1092 C1089 1.380 . S
C1092 C1091 1.384 . S
C1092 H1101 0.931 . S
C1093 C1089 1.374 . S
C1093 C1094 1.390 . S
C1093 H1102 0.930 . S
C1094 C1090 1.391 . S
C1094 C1093 1.390 . S
C1094 H1103 0.930 . S
C1095 Eu1065 2.825 . S
C1095 O1080 1.238 . S
C1095 O1081 1.247 . S
C1095 C1089 1.507 . S
H1096 C1069 0.930 . S
H1097 C1070 0.931 . S
H1098 C1071 0.930 . S
H1099 C1072 0.930 . S
H1100 C1091 0.930 . S
H1101 C1092 0.931 . S
H1102 C1093 0.930 . S
H1103 C1094 0.930 . S
Tb1104 C1114 2.825 . S
Tb1104 O1115 2.347 . S
Tb1104 O1118 2.366 . S
Tb1104 O1123 2.418 1_545 S
Tb1104 O1124 2.384 . S
Tb1104 O1127 2.479 . S
Tb1104 O1128 2.471 . S
Eu1105 O1116 2.418 1_556 S
Eu1105 O1117 2.384 1_556 S
Eu1105 O1120 2.479 . S
Eu1105 O1121 2.471 . S
Eu1105 O1122 2.347 1_556 S
Eu1105 O1125 2.366 1_556 S
Eu1105 C1135 2.825 . S
C1106 O1122 1.259 1_565 S
C1106 O1123 1.265 . S
C1107 O1124 1.255 . S
C1107 O1125 1.265 . S
C1108 C1110 1.380 . S
C1108 C1111 1.374 . S
C1108 C1114 1.507 . S
C1109 C1110 1.384 1_565 S
C1109 C1113 1.387 1_565 S
C1109 H1136 0.930 . S
C1110 C1108 1.380 . S
C1110 C1109 1.384 1_545 S
C1110 H1137 0.931 1_545 S
C1111 C1108 1.374 . S
C1111 C1112 1.390 . S
C1111 H1138 0.930 . S
C1112 C1111 1.390 . S
C1112 C1113 1.391 . S
C1112 H1139 0.930 . S
C1113 C1109 1.387 1_545 S
C1113 C1112 1.391 . S
C1114 Tb1104 2.825 . S
C1114 C1108 1.507 . S
C1114 O1127 1.238 . S
C1114 O1128 1.247 . S
O1115 Tb1104 2.347 . S
O1115 C1119 1.259 . S
O1116 Eu1105 2.418 1_554 S
O1116 C1119 1.265 . S
O1117 Eu1105 2.384 1_554 S
O1117 C1126 1.255 . S
O1118 Tb1104 2.366 . S
O1118 C1126 1.265 . S
C1119 O1115 1.259 . S
C1119 O1116 1.265 . S
O1120 Eu1105 2.479 . S
O1120 C1135 1.238 . S
O1121 Eu1105 2.471 . S
O1121 C1135 1.247 . S
O1122 Eu1105 2.347 1_554 S
O1122 C1106 1.259 1_545 S
O1123 Tb1104 2.418 1_565 S
O1123 C1106 1.265 . S
O1124 Tb1104 2.384 . S
O1124 C1107 1.255 . S
O1125 Eu1105 2.366 1_554 S
O1125 C1107 1.265 . S
C1126 O1117 1.255 . S
C1126 O1118 1.265 . S
O1127 Tb1104 2.479 . S
O1127 C1114 1.238 . S
O1128 Tb1104 2.471 . S
O1128 C1114 1.247 . S
C1129 C1132 1.380 . S
C1129 C1133 1.374 . S
C1129 C1135 1.507 . S
C1130 C1131 1.387 . S
C1130 C1134 1.391 . S
C1131 C1130 1.387 . S
C1131 C1132 1.384 . S
C1131 H1140 0.930 . S
C1132 C1129 1.380 . S
C1132 C1131 1.384 . S
C1132 H1141 0.931 . S
C1133 C1129 1.374 . S
C1133 C1134 1.390 . S
C1133 H1142 0.930 . S
C1134 C1130 1.391 . S
C1134 C1133 1.390 . S
C1134 H1143 0.930 . S
C1135 Eu1105 2.825 . S
C1135 O1120 1.238 . S
C1135 O1121 1.247 . S
C1135 C1129 1.507 . S
H1136 C1109 0.930 . S
H1137 C1110 0.931 1_565 S
H1138 C1111 0.930 . S
H1139 C1112 0.930 . S
H1140 C1131 0.930 . S
H1141 C1132 0.931 . S
H1142 C1133 0.930 . S
H1143 C1134 0.930 . S
Tb1144 C1154 2.825 . S
Tb1144 O1155 2.347 . S
Tb1144 O1158 2.366 . S
Tb1144 O1163 2.418 . S
Tb1144 O1164 2.384 . S
Tb1144 O1167 2.479 . S
Tb1144 O1168 2.471 . S
Eu1145 O1156 2.418 . S
Eu1145 O1157 2.384 . S
Eu1145 O1160 2.479 . S
Eu1145 O1161 2.471 . S
Eu1145 O1162 2.347 . S
Eu1145 O1165 2.366 . S
Eu1145 C1175 2.825 . S
C1146 O1162 1.259 . S
C1146 O1163 1.265 . S
C1147 O1164 1.255 . S
C1147 O1165 1.265 . S
C1148 C1150 1.380 . S
C1148 C1151 1.374 . S
C1148 C1154 1.507 . S
C1149 C1150 1.384 . S
C1149 C1153 1.387 . S
C1149 H1176 0.930 . S
C1150 C1148 1.380 . S
C1150 C1149 1.384 . S
C1150 H1177 0.931 . S
C1151 C1148 1.374 . S
C1151 C1152 1.390 . S
C1151 H1178 0.930 . S
C1152 C1151 1.390 . S
C1152 C1153 1.391 . S
C1152 H1179 0.930 . S
C1153 C1149 1.387 . S
C1153 C1152 1.391 . S
C1154 Tb1144 2.825 . S
C1154 C1148 1.507 . S
C1154 O1167 1.238 . S
C1154 O1168 1.247 . S
O1155 Tb1144 2.347 . S
O1155 C1159 1.259 . S
O1156 Eu1145 2.418 . S
O1156 C1159 1.265 . S
O1157 Eu1145 2.384 . S
O1157 C1166 1.255 . S
O1158 Tb1144 2.366 . S
O1158 C1166 1.265 . S
C1159 O1155 1.259 . S
C1159 O1156 1.265 . S
O1160 Eu1145 2.479 . S
O1160 C1175 1.238 . S
O1161 Eu1145 2.471 . S
O1161 C1175 1.247 . S
O1162 Eu1145 2.347 . S
O1162 C1146 1.259 . S
O1163 Tb1144 2.418 . S
O1163 C1146 1.265 . S
O1164 Tb1144 2.384 . S
O1164 C1147 1.255 . S
O1165 Eu1145 2.366 . S
O1165 C1147 1.265 . S
C1166 O1157 1.255 . S
C1166 O1158 1.265 . S
O1167 Tb1144 2.479 . S
O1167 C1154 1.238 . S
O1168 Tb1144 2.471 . S
O1168 C1154 1.247 . S
C1169 C1172 1.380 . S
C1169 C1173 1.374 . S
C1169 C1175 1.507 . S
C1170 C1171 1.387 . S
C1170 C1174 1.391 . S
C1171 C1170 1.387 . S
C1171 C1172 1.384 . S
C1171 H1180 0.930 . S
C1172 C1169 1.380 . S
C1172 C1171 1.384 . S
C1172 H1181 0.931 . S
C1173 C1169 1.374 . S
C1173 C1174 1.390 . S
C1173 H1182 0.930 . S
C1174 C1170 1.391 . S
C1174 C1173 1.390 . S
C1174 H1183 0.930 . S
C1175 Eu1145 2.825 . S
C1175 O1160 1.238 . S
C1175 O1161 1.247 . S
C1175 C1169 1.507 . S
H1176 C1149 0.930 . S
H1177 C1150 0.931 . S
H1178 C1151 0.930 . S
H1179 C1152 0.930 . S
H1180 C1171 0.930 . S
H1181 C1172 0.931 . S
H1182 C1173 0.930 . S
H1183 C1174 0.930 . S
Tb1184 C1194 2.825 . S
Tb1184 O1195 2.347 1_556 S
Tb1184 O1198 2.366 . S
Tb1184 O1203 2.418 . S
Tb1184 O1204 2.384 1_556 S
Tb1184 O1207 2.479 . S
Tb1184 O1208 2.471 . S
Eu1185 O1196 2.418 . S
Eu1185 O1197 2.384 . S
Eu1185 O1200 2.479 . S
Eu1185 O1201 2.471 . S
Eu1185 O1202 2.347 . S
Eu1185 O1205 2.366 . S
Eu1185 C1215 2.825 . S
C1186 O1202 1.259 . S
C1186 O1203 1.265 1_554 S
C1187 O1204 1.255 . S
C1187 O1205 1.265 . S
C1188 C1190 1.380 . S
C1188 C1191 1.374 . S
C1188 C1194 1.507 . S
C1189 C1190 1.384 . S
C1189 C1193 1.387 . S
C1189 H1216 0.930 . S
C1190 C1188 1.380 . S
C1190 C1189 1.384 . S
C1190 H1217 0.931 . S
C1191 C1188 1.374 . S
C1191 C1192 1.390 . S
C1191 H1218 0.930 . S
C1192 C1191 1.390 . S
C1192 C1193 1.391 . S
C1192 H1219 0.930 . S
C1193 C1189 1.387 . S
C1193 C1192 1.391 . S
C1194 Tb1184 2.825 . S
C1194 C1188 1.507 . S
C1194 O1207 1.238 . S
C1194 O1208 1.247 . S
O1195 Tb1184 2.347 1_554 S
O1195 C1199 1.259 . S
O1196 Eu1185 2.418 . S
O1196 C1199 1.265 . S
O1197 Eu1185 2.384 . S
O1197 C1206 1.255 . S
O1198 Tb1184 2.366 . S
O1198 C1206 1.265 1_556 S
C1199 O1195 1.259 . S
C1199 O1196 1.265 . S
O1200 Eu1185 2.479 . S
O1200 C1215 1.238 . S
O1201 Eu1185 2.471 . S
O1201 C1215 1.247 . S
O1202 Eu1185 2.347 . S
O1202 C1186 1.259 . S
O1203 Tb1184 2.418 . S
O1203 C1186 1.265 1_556 S
O1204 Tb1184 2.384 1_554 S
O1204 C1187 1.255 . S
O1205 Eu1185 2.366 . S
O1205 C1187 1.265 . S
C1206 O1197 1.255 . S
C1206 O1198 1.265 1_554 S
O1207 Tb1184 2.479 . S
O1207 C1194 1.238 . S
O1208 Tb1184 2.471 . S
O1208 C1194 1.247 . S
C1209 C1212 1.380 . S
C1209 C1213 1.374 . S
C1209 C1215 1.507 . S
C1210 C1211 1.387 . S
C1210 C1214 1.391 . S
C1211 C1210 1.387 . S
C1211 C1212 1.384 . S
C1211 H1220 0.930 . S
C1212 C1209 1.380 . S
C1212 C1211 1.384 . S
C1212 H1221 0.931 . S
C1213 C1209 1.374 . S
C1213 C1214 1.390 . S
C1213 H1222 0.930 . S
C1214 C1210 1.391 . S
C1214 C1213 1.390 . S
C1214 H1223 0.930 . S
C1215 Eu1185 2.825 . S
C1215 O1200 1.238 . S
C1215 O1201 1.247 . S
C1215 C1209 1.507 . S
H1216 C1189 0.930 . S
H1217 C1190 0.931 . S
H1218 C1191 0.930 . S
H1219 C1192 0.930 . S
H1220 C1211 0.930 . S
H1221 C1212 0.931 . S
H1222 C1213 0.930 . S
H1223 C1214 0.930 . S
Tb1224 C1234 2.825 . S
Tb1224 O1235 2.347 . S
Tb1224 O1238 2.366 . S
Tb1224 O1243 2.418 . S
Tb1224 O1244 2.384 . S
Tb1224 O1247 2.479 . S
Tb1224 O1248 2.471 . S
Eu1225 O1236 2.418 . S
Eu1225 O1237 2.384 . S
Eu1225 O1240 2.479 . S
Eu1225 O1241 2.471 . S
Eu1225 O1242 2.347 . S
Eu1225 O1245 2.366 . S
Eu1225 C1255 2.825 . S
C1226 O1242 1.259 . S
C1226 O1243 1.265 . S
C1227 O1244 1.255 . S
C1227 O1245 1.265 . S
C1228 C1230 1.380 . S
C1228 C1231 1.374 . S
C1228 C1234 1.507 . S
C1229 C1230 1.384 . S
C1229 C1233 1.387 . S
C1229 H1256 0.930 . S
C1230 C1228 1.380 . S
C1230 C1229 1.384 . S
C1230 H1257 0.931 . S
C1231 C1228 1.374 . S
C1231 C1232 1.390 . S
C1231 H1258 0.930 . S
C1232 C1231 1.390 . S
C1232 C1233 1.391 . S
C1232 H1259 0.930 . S
C1233 C1229 1.387 . S
C1233 C1232 1.391 . S
C1234 Tb1224 2.825 . S
C1234 C1228 1.507 . S
C1234 O1247 1.238 . S
C1234 O1248 1.247 . S
O1235 Tb1224 2.347 . S
O1235 C1239 1.259 . S
O1236 Eu1225 2.418 . S
O1236 C1239 1.265 . S
O1237 Eu1225 2.384 . S
O1237 C1246 1.255 . S
O1238 Tb1224 2.366 . S
O1238 C1246 1.265 . S
C1239 O1235 1.259 . S
C1239 O1236 1.265 . S
O1240 Eu1225 2.479 . S
O1240 C1255 1.238 . S
O1241 Eu1225 2.471 . S
O1241 C1255 1.247 . S
O1242 Eu1225 2.347 . S
O1242 C1226 1.259 . S
O1243 Tb1224 2.418 . S
O1243 C1226 1.265 . S
O1244 Tb1224 2.384 . S
O1244 C1227 1.255 . S
O1245 Eu1225 2.366 . S
O1245 C1227 1.265 . S
C1246 O1237 1.255 . S
C1246 O1238 1.265 . S
O1247 Tb1224 2.479 . S
O1247 C1234 1.238 . S
O1248 Tb1224 2.471 . S
O1248 C1234 1.247 . S
C1249 C1252 1.380 . S
C1249 C1253 1.374 . S
C1249 C1255 1.507 . S
C1250 C1251 1.387 . S
C1250 C1254 1.391 . S
C1251 C1250 1.387 . S
C1251 C1252 1.384 . S
C1251 H1260 0.930 . S
C1252 C1249 1.380 . S
C1252 C1251 1.384 . S
C1252 H1261 0.931 . S
C1253 C1249 1.374 . S
C1253 C1254 1.390 . S
C1253 H1262 0.930 . S
C1254 C1250 1.391 . S
C1254 C1253 1.390 . S
C1254 H1263 0.930 . S
C1255 Eu1225 2.825 . S
C1255 O1240 1.238 . S
C1255 O1241 1.247 . S
C1255 C1249 1.507 . S
H1256 C1229 0.930 . S
H1257 C1230 0.931 . S
H1258 C1231 0.930 . S
H1259 C1232 0.930 . S
H1260 C1251 0.930 . S
H1261 C1252 0.931 . S
H1262 C1253 0.930 . S
H1263 C1254 0.930 . S
Tb1264 C1274 2.825 . S
Tb1264 O1275 2.347 . S
Tb1264 O1278 2.366 . S
Tb1264 O1283 2.418 . S
Tb1264 O1284 2.384 . S
Tb1264 O1287 2.479 . S
Tb1264 O1288 2.471 . S
Eu1265 O1276 2.418 . S
Eu1265 O1277 2.384 . S
Eu1265 O1280 2.479 . S
Eu1265 O1281 2.471 . S
Eu1265 O1282 2.347 . S
Eu1265 O1285 2.366 . S
Eu1265 C1295 2.825 . S
C1266 O1282 1.259 . S
C1266 O1283 1.265 . S
C1267 O1284 1.255 . S
C1267 O1285 1.265 . S
C1268 C1270 1.380 . S
C1268 C1271 1.374 . S
C1268 C1274 1.507 . S
C1269 C1270 1.384 . S
C1269 C1273 1.387 . S
C1269 H1296 0.930 . S
C1270 C1268 1.380 . S
C1270 C1269 1.384 . S
C1270 H1297 0.931 . S
C1271 C1268 1.374 . S
C1271 C1272 1.390 . S
C1271 H1298 0.930 . S
C1272 C1271 1.390 . S
C1272 C1273 1.391 . S
C1272 H1299 0.930 . S
C1273 C1269 1.387 . S
C1273 C1272 1.391 . S
C1274 Tb1264 2.825 . S
C1274 C1268 1.507 . S
C1274 O1287 1.238 . S
C1274 O1288 1.247 . S
O1275 Tb1264 2.347 . S
O1275 C1279 1.259 . S
O1276 Eu1265 2.418 . S
O1276 C1279 1.265 . S
O1277 Eu1265 2.384 . S
O1277 C1286 1.255 . S
O1278 Tb1264 2.366 . S
O1278 C1286 1.265 . S
C1279 O1275 1.259 . S
C1279 O1276 1.265 . S
O1280 Eu1265 2.479 . S
O1280 C1295 1.238 . S
O1281 Eu1265 2.471 . S
O1281 C1295 1.247 . S
O1282 Eu1265 2.347 . S
O1282 C1266 1.259 . S
O1283 Tb1264 2.418 . S
O1283 C1266 1.265 . S
O1284 Tb1264 2.384 . S
O1284 C1267 1.255 . S
O1285 Eu1265 2.366 . S
O1285 C1267 1.265 . S
C1286 O1277 1.255 . S
C1286 O1278 1.265 . S
O1287 Tb1264 2.479 . S
O1287 C1274 1.238 . S
O1288 Tb1264 2.471 . S
O1288 C1274 1.247 . S
C1289 C1292 1.380 . S
C1289 C1293 1.374 . S
C1289 C1295 1.507 . S
C1290 C1291 1.387 . S
C1290 C1294 1.391 . S
C1291 C1290 1.387 . S
C1291 C1292 1.384 . S
C1291 H1300 0.930 . S
C1292 C1289 1.380 . S
C1292 C1291 1.384 . S
C1292 H1301 0.931 . S
C1293 C1289 1.374 . S
C1293 C1294 1.390 . S
C1293 H1302 0.930 . S
C1294 C1290 1.391 . S
C1294 C1293 1.390 . S
C1294 H1303 0.930 . S
C1295 Eu1265 2.825 . S
C1295 O1280 1.238 . S
C1295 O1281 1.247 . S
C1295 C1289 1.507 . S
H1296 C1269 0.930 . S
H1297 C1270 0.931 . S
H1298 C1271 0.930 . S
H1299 C1272 0.930 . S
H1300 C1291 0.930 . S
H1301 C1292 0.931 . S
H1302 C1293 0.930 . S
H1303 C1294 0.930 . S
Tb1304 C1314 2.825 . S
Tb1304 O1315 2.347 . S
Tb1304 O1318 2.366 . S
Tb1304 O1323 2.418 . S
Tb1304 O1324 2.384 . S
Tb1304 O1327 2.479 . S
Tb1304 O1328 2.471 . S
Eu1305 O1316 2.418 . S
Eu1305 O1317 2.384 . S
Eu1305 O1320 2.479 . S
Eu1305 O1321 2.471 . S
Eu1305 O1322 2.347 . S
Eu1305 O1325 2.366 . S
Eu1305 C1335 2.825 . S
C1306 O1322 1.259 . S
C1306 O1323 1.265 . S
C1307 O1324 1.255 . S
C1307 O1325 1.265 . S
C1308 C1310 1.380 . S
C1308 C1311 1.374 . S
C1308 C1314 1.507 . S
C1309 C1310 1.384 . S
C1309 C1313 1.387 . S
C1309 H1336 0.930 . S
C1310 C1308 1.380 . S
C1310 C1309 1.384 . S
C1310 H1337 0.931 . S
C1311 C1308 1.374 . S
C1311 C1312 1.390 . S
C1311 H1338 0.930 . S
C1312 C1311 1.390 . S
C1312 C1313 1.391 . S
C1312 H1339 0.930 . S
C1313 C1309 1.387 . S
C1313 C1312 1.391 . S
C1314 Tb1304 2.825 . S
C1314 C1308 1.507 . S
C1314 O1327 1.238 . S
C1314 O1328 1.247 . S
O1315 Tb1304 2.347 . S
O1315 C1319 1.259 . S
O1316 Eu1305 2.418 . S
O1316 C1319 1.265 . S
O1317 Eu1305 2.384 . S
O1317 C1326 1.255 . S
O1318 Tb1304 2.366 . S
O1318 C1326 1.265 . S
C1319 O1315 1.259 . S
C1319 O1316 1.265 . S
O1320 Eu1305 2.479 . S
O1320 C1335 1.238 . S
O1321 Eu1305 2.471 . S
O1321 C1335 1.247 . S
O1322 Eu1305 2.347 . S
O1322 C1306 1.259 . S
O1323 Tb1304 2.418 . S
O1323 C1306 1.265 . S
O1324 Tb1304 2.384 . S
O1324 C1307 1.255 . S
O1325 Eu1305 2.366 . S
O1325 C1307 1.265 . S
C1326 O1317 1.255 . S
C1326 O1318 1.265 . S
O1327 Tb1304 2.479 . S
O1327 C1314 1.238 . S
O1328 Tb1304 2.471 . S
O1328 C1314 1.247 . S
C1329 C1332 1.380 . S
C1329 C1333 1.374 . S
C1329 C1335 1.507 . S
C1330 C1331 1.387 . S
C1330 C1334 1.391 . S
C1331 C1330 1.387 . S
C1331 C1332 1.384 . S
C1331 H1340 0.930 . S
C1332 C1329 1.380 . S
C1332 C1331 1.384 . S
C1332 H1341 0.931 . S
C1333 C1329 1.374 . S
C1333 C1334 1.390 . S
C1333 H1342 0.930 . S
C1334 C1330 1.391 . S
C1334 C1333 1.390 . S
C1334 H1343 0.930 . S
C1335 Eu1305 2.825 . S
C1335 O1320 1.238 . S
C1335 O1321 1.247 . S
C1335 C1329 1.507 . S
H1336 C1309 0.930 . S
H1337 C1310 0.931 . S
H1338 C1311 0.930 . S
H1339 C1312 0.930 . S
H1340 C1331 0.930 . S
H1341 C1332 0.931 . S
H1342 C1333 0.930 . S
H1343 C1334 0.930 . S
Tb1344 C1354 2.825 . S
Tb1344 O1355 2.347 . S
Tb1344 O1358 2.366 . S
Tb1344 O1363 2.418 . S
Tb1344 O1364 2.384 . S
Tb1344 O1367 2.479 . S
Tb1344 O1368 2.471 . S
Eu1345 O1356 2.418 . S
Eu1345 O1357 2.384 . S
Eu1345 O1360 2.479 . S
Eu1345 O1361 2.471 . S
Eu1345 O1362 2.347 . S
Eu1345 O1365 2.366 . S
Eu1345 C1375 2.825 . S
C1346 O1362 1.259 . S
C1346 O1363 1.265 . S
C1347 O1364 1.255 . S
C1347 O1365 1.265 . S
C1348 C1350 1.380 . S
C1348 C1351 1.374 . S
C1348 C1354 1.507 . S
C1349 C1350 1.384 . S
C1349 C1353 1.387 . S
C1349 H1376 0.930 . S
C1350 C1348 1.380 . S
C1350 C1349 1.384 . S
C1350 H1377 0.931 . S
C1351 C1348 1.374 . S
C1351 C1352 1.390 . S
C1351 H1378 0.930 . S
C1352 C1351 1.390 . S
C1352 C1353 1.391 . S
C1352 H1379 0.930 . S
C1353 C1349 1.387 . S
C1353 C1352 1.391 . S
C1354 Tb1344 2.825 . S
C1354 C1348 1.507 . S
C1354 O1367 1.238 . S
C1354 O1368 1.247 . S
O1355 Tb1344 2.347 . S
O1355 C1359 1.259 . S
O1356 Eu1345 2.418 . S
O1356 C1359 1.265 . S
O1357 Eu1345 2.384 . S
O1357 C1366 1.255 . S
O1358 Tb1344 2.366 . S
O1358 C1366 1.265 . S
C1359 O1355 1.259 . S
C1359 O1356 1.265 . S
O1360 Eu1345 2.479 . S
O1360 C1375 1.238 . S
O1361 Eu1345 2.471 . S
O1361 C1375 1.247 . S
O1362 Eu1345 2.347 . S
O1362 C1346 1.259 . S
O1363 Tb1344 2.418 . S
O1363 C1346 1.265 . S
O1364 Tb1344 2.384 . S
O1364 C1347 1.255 . S
O1365 Eu1345 2.366 . S
O1365 C1347 1.265 . S
C1366 O1357 1.255 . S
C1366 O1358 1.265 . S
O1367 Tb1344 2.479 . S
O1367 C1354 1.238 . S
O1368 Tb1344 2.471 . S
O1368 C1354 1.247 . S
C1369 C1372 1.380 . S
C1369 C1373 1.374 . S
C1369 C1375 1.507 . S
C1370 C1371 1.387 . S
C1370 C1374 1.391 . S
C1371 C1370 1.387 . S
C1371 C1372 1.384 . S
C1371 H1380 0.930 . S
C1372 C1369 1.380 . S
C1372 C1371 1.384 . S
C1372 H1381 0.931 . S
C1373 C1369 1.374 . S
C1373 C1374 1.390 . S
C1373 H1382 0.930 . S
C1374 C1370 1.391 . S
C1374 C1373 1.390 . S
C1374 H1383 0.930 . S
C1375 Eu1345 2.825 . S
C1375 O1360 1.238 . S
C1375 O1361 1.247 . S
C1375 C1369 1.507 . S
H1376 C1349 0.930 . S
H1377 C1350 0.931 . S
H1378 C1351 0.930 . S
H1379 C1352 0.930 . S
H1380 C1371 0.930 . S
H1381 C1372 0.931 . S
H1382 C1373 0.930 . S
H1383 C1374 0.930 . S
Tb1384 C1394 2.825 . S
Tb1384 O1395 2.347 . S
Tb1384 O1398 2.366 . S
Tb1384 O1403 2.418 . S
Tb1384 O1404 2.384 . S
Tb1384 O1407 2.479 . S
Tb1384 O1408 2.471 . S
Eu1385 O1396 2.418 . S
Eu1385 O1397 2.384 . S
Eu1385 O1400 2.479 . S
Eu1385 O1401 2.471 . S
Eu1385 O1402 2.347 . S
Eu1385 O1405 2.366 . S
Eu1385 C1415 2.825 . S
C1386 O1402 1.259 . S
C1386 O1403 1.265 . S
C1387 O1404 1.255 . S
C1387 O1405 1.265 . S
C1388 C1390 1.380 . S
C1388 C1391 1.374 . S
C1388 C1394 1.507 . S
C1389 C1390 1.384 . S
C1389 C1393 1.387 . S
C1389 H1416 0.930 . S
C1390 C1388 1.380 . S
C1390 C1389 1.384 . S
C1390 H1417 0.931 . S
C1391 C1388 1.374 . S
C1391 C1392 1.390 . S
C1391 H1418 0.930 . S
C1392 C1391 1.390 . S
C1392 C1393 1.391 . S
C1392 H1419 0.930 . S
C1393 C1389 1.387 . S
C1393 C1392 1.391 . S
C1394 Tb1384 2.825 . S
C1394 C1388 1.507 . S
C1394 O1407 1.238 . S
C1394 O1408 1.247 . S
O1395 Tb1384 2.347 . S
O1395 C1399 1.259 . S
O1396 Eu1385 2.418 . S
O1396 C1399 1.265 . S
O1397 Eu1385 2.384 . S
O1397 C1406 1.255 . S
O1398 Tb1384 2.366 . S
O1398 C1406 1.265 . S
C1399 O1395 1.259 . S
C1399 O1396 1.265 . S
O1400 Eu1385 2.479 . S
O1400 C1415 1.238 . S
O1401 Eu1385 2.471 . S
O1401 C1415 1.247 . S
O1402 Eu1385 2.347 . S
O1402 C1386 1.259 . S
O1403 Tb1384 2.418 . S
O1403 C1386 1.265 . S
O1404 Tb1384 2.384 . S
O1404 C1387 1.255 . S
O1405 Eu1385 2.366 . S
O1405 C1387 1.265 . S
C1406 O1397 1.255 . S
C1406 O1398 1.265 . S
O1407 Tb1384 2.479 . S
O1407 C1394 1.238 . S
O1408 Tb1384 2.471 . S
O1408 C1394 1.247 . S
C1409 C1412 1.380 . S
C1409 C1413 1.374 . S
C1409 C1415 1.507 . S
C1410 C1411 1.387 . S
C1410 C1414 1.391 . S
C1411 C1410 1.387 . S
C1411 C1412 1.384 . S
C1411 H1420 0.930 . S
C1412 C1409 1.380 . S
C1412 C1411 1.384 . S
C1412 H1421 0.931 . S
C1413 C1409 1.374 . S
C1413 C1414 1.390 . S
C1413 H1422 0.930 . S
C1414 C1410 1.391 . S
C1414 C1413 1.390 . S
C1414 H1423 0.930 . S
C1415 Eu1385 2.825 . S
C1415 O1400 1.238 . S
C1415 O1401 1.247 . S
C1415 C1409 1.507 . S
H1416 C1389 0.930 . S
H1417 C1390 0.931 . S
H1418 C1391 0.930 . S
H1419 C1392 0.930 . S
H1420 C1411 0.930 . S
H1421 C1412 0.931 . S
H1422 C1413 0.930 . S
H1423 C1414 0.930 . S
Tb1424 C1434 2.825 . S
Tb1424 O1435 2.347 . S
Tb1424 O1438 2.366 . S
Tb1424 O1443 2.418 . S
Tb1424 O1444 2.384 . S
Tb1424 O1447 2.479 . S
Tb1424 O1448 2.471 . S
Eu1425 O1436 2.418 . S
Eu1425 O1437 2.384 . S
Eu1425 O1440 2.479 . S
Eu1425 O1441 2.471 . S
Eu1425 O1442 2.347 . S
Eu1425 O1445 2.366 . S
Eu1425 C1455 2.825 . S
C1426 O1442 1.259 . S
C1426 O1443 1.265 . S
C1427 O1444 1.255 . S
C1427 O1445 1.265 . S
C1428 C1430 1.380 . S
C1428 C1431 1.374 . S
C1428 C1434 1.507 . S
C1429 C1430 1.384 . S
C1429 C1433 1.387 . S
C1429 H1456 0.930 . S
C1430 C1428 1.380 . S
C1430 C1429 1.384 . S
C1430 H1457 0.931 . S
C1431 C1428 1.374 . S
C1431 C1432 1.390 . S
C1431 H1458 0.930 . S
C1432 C1431 1.390 . S
C1432 C1433 1.391 . S
C1432 H1459 0.930 . S
C1433 C1429 1.387 . S
C1433 C1432 1.391 . S
C1434 Tb1424 2.825 . S
C1434 C1428 1.507 . S
C1434 O1447 1.238 . S
C1434 O1448 1.247 . S
O1435 Tb1424 2.347 . S
O1435 C1439 1.259 . S
O1436 Eu1425 2.418 . S
O1436 C1439 1.265 . S
O1437 Eu1425 2.384 . S
O1437 C1446 1.255 . S
O1438 Tb1424 2.366 . S
O1438 C1446 1.265 . S
C1439 O1435 1.259 . S
C1439 O1436 1.265 . S
O1440 Eu1425 2.479 . S
O1440 C1455 1.238 . S
O1441 Eu1425 2.471 . S
O1441 C1455 1.247 . S
O1442 Eu1425 2.347 . S
O1442 C1426 1.259 . S
O1443 Tb1424 2.418 . S
O1443 C1426 1.265 . S
O1444 Tb1424 2.384 . S
O1444 C1427 1.255 . S
O1445 Eu1425 2.366 . S
O1445 C1427 1.265 . S
C1446 O1437 1.255 . S
C1446 O1438 1.265 . S
O1447 Tb1424 2.479 . S
O1447 C1434 1.238 . S
O1448 Tb1424 2.471 . S
O1448 C1434 1.247 . S
C1449 C1452 1.380 . S
C1449 C1453 1.374 . S
C1449 C1455 1.507 . S
C1450 C1451 1.387 . S
C1450 C1454 1.391 . S
C1451 C1450 1.387 . S
C1451 C1452 1.384 . S
C1451 H1460 0.930 . S
C1452 C1449 1.380 . S
C1452 C1451 1.384 . S
C1452 H1461 0.931 . S
C1453 C1449 1.374 . S
C1453 C1454 1.390 . S
C1453 H1462 0.930 . S
C1454 C1450 1.391 . S
C1454 C1453 1.390 . S
C1454 H1463 0.930 . S
C1455 Eu1425 2.825 . S
C1455 O1440 1.238 . S
C1455 O1441 1.247 . S
C1455 C1449 1.507 . S
H1456 C1429 0.930 . S
H1457 C1430 0.931 . S
H1458 C1431 0.930 . S
H1459 C1432 0.930 . S
H1460 C1451 0.930 . S
H1461 C1452 0.931 . S
H1462 C1453 0.930 . S
H1463 C1454 0.930 . S
Tb1464 C1474 2.825 . S
Tb1464 O1475 2.347 1_554 S
Tb1464 O1478 2.366 . S
Tb1464 O1483 2.418 . S
Tb1464 O1484 2.384 . S
Tb1464 O1487 2.479 . S
Tb1464 O1488 2.471 1_554 S
Eu1465 O1476 2.418 1_554 S
Eu1465 O1477 2.384 . S
Eu1465 O1480 2.479 . S
Eu1465 O1481 2.471 . S
Eu1465 O1482 2.347 . S
Eu1465 O1485 2.366 . S
Eu1465 C1495 2.825 . S
C1466 O1482 1.259 . S
C1466 O1483 1.265 . S
C1467 O1484 1.255 . S
C1467 O1485 1.265 . S
C1468 C1470 1.380 1_556 S
C1468 C1471 1.374 . S
C1468 C1474 1.507 1_556 S
C1469 C1470 1.384 1_556 S
C1469 C1473 1.387 . S
C1469 H1496 0.930 1_556 S
C1470 C1468 1.380 1_554 S
C1470 C1469 1.384 1_554 S
C1470 H1497 0.931 . S
C1471 C1468 1.374 . S
C1471 C1472 1.390 . S
C1471 H1498 0.930 . S
C1472 C1471 1.390 . S
C1472 C1473 1.391 . S
C1472 H1499 0.930 . S
C1473 C1469 1.387 . S
C1473 C1472 1.391 . S
C1474 Tb1464 2.825 . S
C1474 C1468 1.507 1_554 S
C1474 O1487 1.238 . S
C1474 O1488 1.247 1_554 S
O1475 Tb1464 2.347 1_556 S
O1475 C1479 1.259 . S
O1476 Eu1465 2.418 1_556 S
O1476 C1479 1.265 . S
O1477 Eu1465 2.384 . S
O1477 C1486 1.255 . S
O1478 Tb1464 2.366 . S
O1478 C1486 1.265 . S
C1479 O1475 1.259 . S
C1479 O1476 1.265 . S
O1480 Eu1465 2.479 . S
O1480 C1495 1.238 . S
O1481 Eu1465 2.471 . S
O1481 C1495 1.247 . S
O1482 Eu1465 2.347 . S
O1482 C1466 1.259 . S
O1483 Tb1464 2.418 . S
O1483 C1466 1.265 . S
O1484 Tb1464 2.384 . S
O1484 C1467 1.255 . S
O1485 Eu1465 2.366 . S
O1485 C1467 1.265 . S
C1486 O1477 1.255 . S
C1486 O1478 1.265 . S
O1487 Tb1464 2.479 . S
O1487 C1474 1.238 . S
O1488 Tb1464 2.471 1_556 S
O1488 C1474 1.247 1_556 S
C1489 C1492 1.380 . S
C1489 C1493 1.374 . S
C1489 C1495 1.507 . S
C1490 C1491 1.387 . S
C1490 C1494 1.391 . S
C1491 C1490 1.387 . S
C1491 C1492 1.384 . S
C1491 H1500 0.930 . S
C1492 C1489 1.380 . S
C1492 C1491 1.384 . S
C1492 H1501 0.931 . S
C1493 C1489 1.374 . S
C1493 C1494 1.390 . S
C1493 H1502 0.930 . S
C1494 C1490 1.391 . S
C1494 C1493 1.390 . S
C1494 H1503 0.930 . S
C1495 Eu1465 2.825 . S
C1495 O1480 1.238 . S
C1495 O1481 1.247 . S
C1495 C1489 1.507 . S
H1496 C1469 0.930 1_554 S
H1497 C1470 0.931 . S
H1498 C1471 0.930 . S
H1499 C1472 0.930 . S
H1500 C1491 0.930 . S
H1501 C1492 0.931 . S
H1502 C1493 0.930 . S
H1503 C1494 0.930 . S
H1504 C1510 0.930 . S
H1505 C1514 0.930 . S
H1506 C1519 0.929 . S
H1507 C1517 0.929 . S
H1508 C1512 0.929 . S
H1509 C1518 0.929 . S
C1510 H1504 0.930 . S
C1510 C1511 1.371 . S
C1510 C1518 1.378 . S
C1511 C1510 1.371 . S
C1511 C1519 1.421 1_655 S
C1512 H1508 0.929 . S
C1512 C1514 1.378 1_556 S
C1512 C1516 1.350 . S
C1513 C1516 1.463 . S
C1513 C1518 1.350 1_455 S
C1513 N1521 1.427 . S
C1514 H1505 0.930 . S
C1514 C1512 1.378 1_554 S
C1514 C1515 1.367 1_554 S
C1515 C1514 1.367 1_556 S
C1515 C1517 1.433 . S
C1516 C1512 1.350 . S
C1516 C1513 1.463 . S
C1516 N1520 1.427 . S
C1517 H1507 0.929 . S
C1517 C1515 1.433 . S
C1517 N1520 1.384 . S
C1518 H1509 0.929 . S
C1518 C1510 1.378 . S
C1518 C1513 1.350 1_655 S
C1519 H1506 0.929 . S
C1519 C1511 1.421 1_455 S
C1519 N1521 1.384 . S
N1520 C1516 1.427 . S
N1520 C1517 1.384 . S
N1521 C1513 1.427 . S
N1521 C1519 1.384 . S
H1522 C1528 0.930 . S
H1523 C1532 0.930 . S
H1524 C1537 0.929 . S
H1525 C1535 0.929 . S
H1526 C1530 0.929 . S
H1527 C1536 0.929 . S
C1528 H1522 0.930 . S
C1528 C1529 1.367 . S
C1528 C1536 1.378 . S
C1529 C1528 1.367 . S
C1529 C1537 1.433 . S
C1530 H1526 0.929 . S
C1530 C1532 1.378 . S
C1530 C1534 1.350 . S
C1531 C1534 1.463 . S
C1531 C1536 1.350 . S
C1531 N1539 1.427 . S
C1532 H1523 0.930 . S
C1532 C1530 1.378 . S
C1532 C1533 1.367 . S
C1533 C1532 1.367 . S
C1533 C1535 1.433 . S
C1534 C1530 1.350 . S
C1534 C1531 1.463 . S
C1534 N1538 1.427 . S
C1535 H1525 0.929 . S
C1535 C1533 1.433 . S
C1535 N1538 1.384 . S
C1536 H1527 0.929 . S
C1536 C1528 1.378 . S
C1536 C1531 1.350 . S
C1537 H1524 0.929 . S
C1537 C1529 1.433 . S
C1537 N1539 1.384 . S
N1538 C1534 1.427 . S
N1538 C1535 1.384 . S
N1539 C1531 1.427 . S
N1539 C1537 1.384 . S
H1540 C1546 0.930 . S
H1541 C1550 0.930 . S
H1542 C1555 0.929 . S
H1543 C1553 0.929 . S
H1544 C1548 0.929 . S
H1545 C1554 0.929 . S
C1546 H1540 0.930 . S
C1546 C1547 1.367 . S
C1546 C1554 1.378 . S
C1547 C1546 1.367 . S
C1547 C1555 1.433 . S
C1548 H1544 0.929 . S
C1548 C1550 1.378 . S
C1548 C1552 1.350 . S
C1549 C1552 1.463 . S
C1549 C1554 1.350 . S
C1549 N1557 1.427 . S
C1550 H1541 0.930 . S
C1550 C1548 1.378 . S
C1550 C1551 1.367 . S
C1551 C1550 1.367 . S
C1551 C1553 1.433 . S
C1552 C1548 1.350 . S
C1552 C1549 1.463 . S
C1552 N1556 1.427 . S
C1553 H1543 0.929 . S
C1553 C1551 1.433 . S
C1553 N1556 1.384 . S
C1554 H1545 0.929 . S
C1554 C1546 1.378 . S
C1554 C1549 1.350 . S
C1555 H1542 0.929 . S
C1555 C1547 1.433 . S
C1555 N1557 1.384 . S
N1556 C1552 1.427 . S
N1556 C1553 1.384 . S
N1557 C1549 1.427 . S
N1557 C1555 1.384 . S
H1558 C1564 0.930 . S
H1559 C1568 0.930 . S
H1560 C1573 0.929 . S
H1561 C1571 0.929 . S
H1562 C1566 0.929 . S
H1563 C1572 0.929 . S
C1564 H1558 0.930 . S
C1564 C1565 1.367 . S
C1564 C1572 1.378 . S
C1565 C1564 1.367 . S
C1565 C1573 1.433 . S
C1566 H1562 0.929 . S
C1566 C1568 1.378 . S
C1566 C1570 1.350 . S
C1567 C1570 1.463 . S
C1567 C1572 1.350 . S
C1567 N1575 1.427 . S
C1568 H1559 0.930 . S
C1568 C1566 1.378 . S
C1568 C1569 1.367 . S
C1569 C1568 1.367 . S
C1569 C1571 1.433 . S
C1570 C1566 1.350 . S
C1570 C1567 1.463 . S
C1570 N1574 1.427 . S
C1571 H1561 0.929 . S
C1571 C1569 1.433 . S
C1571 N1574 1.384 . S
C1572 H1563 0.929 . S
C1572 C1564 1.378 . S
C1572 C1567 1.350 . S
C1573 H1560 0.929 . S
C1573 C1565 1.433 . S
C1573 N1575 1.384 . S
N1574 C1570 1.427 . S
N1574 C1571 1.384 . S
N1575 C1567 1.427 . S
N1575 C1573 1.384 . S
H1576 C1582 0.930 . S
H1577 C1586 0.930 . S
H1578 C1591 0.929 . S
H1579 C1589 0.929 . S
H1580 C1584 0.929 . S
H1581 C1590 0.929 . S
C1582 H1576 0.930 . S
C1582 C1583 1.367 . S
C1582 C1590 1.378 . S
C1583 C1582 1.367 . S
C1583 C1591 1.433 . S
C1584 H1580 0.929 . S
C1584 C1586 1.378 . S
C1584 C1588 1.350 . S
C1585 C1588 1.463 . S
C1585 C1590 1.350 . S
C1585 N1593 1.427 . S
C1586 H1577 0.930 . S
C1586 C1584 1.378 . S
C1586 C1587 1.367 . S
C1587 C1586 1.367 . S
C1587 C1589 1.433 . S
C1588 C1584 1.350 . S
C1588 C1585 1.463 . S
C1588 N1592 1.427 . S
C1589 H1579 0.929 . S
C1589 C1587 1.433 . S
C1589 N1592 1.384 . S
C1590 H1581 0.929 . S
C1590 C1582 1.378 . S
C1590 C1585 1.350 . S
C1591 H1578 0.929 . S
C1591 C1583 1.433 . S
C1591 N1593 1.384 . S
N1592 C1588 1.427 . S
N1592 C1589 1.384 . S
N1593 C1585 1.427 . S
N1593 C1591 1.384 . S
H1594 C1600 0.930 . S
H1595 C1604 0.930 . S
H1596 C1609 0.929 . S
H1597 C1607 0.929 . S
H1598 C1602 0.929 . S
H1599 C1608 0.929 . S
C1600 H1594 0.930 . S
C1600 C1601 1.367 . S
C1600 C1608 1.378 . S
C1601 C1600 1.367 . S
C1601 C1609 1.433 . S
C1602 H1598 0.929 . S
C1602 C1604 1.378 . S
C1602 C1606 1.350 . S
C1603 C1606 1.463 . S
C1603 C1608 1.350 . S
C1603 N1611 1.427 . S
C1604 H1595 0.930 . S
C1604 C1602 1.378 . S
C1604 C1605 1.367 . S
C1605 C1604 1.367 . S
C1605 C1607 1.433 . S
C1606 C1602 1.350 . S
C1606 C1603 1.463 . S
C1606 N1610 1.427 . S
C1607 H1597 0.929 . S
C1607 C1605 1.433 . S
C1607 N1610 1.384 . S
C1608 H1599 0.929 . S
C1608 C1600 1.378 . S
C1608 C1603 1.350 . S
C1609 H1596 0.929 . S
C1609 C1601 1.433 . S
C1609 N1611 1.384 . S
N1610 C1606 1.427 . S
N1610 C1607 1.384 . S
N1611 C1603 1.427 . S
N1611 C1609 1.384 . S
H1612 C1618 0.930 . S
H1613 C1622 0.930 . S
H1614 C1627 0.929 . S
H1615 C1625 0.929 . S
H1616 C1620 0.929 . S
H1617 C1626 0.929 . S
C1618 H1612 0.930 . S
C1618 C1619 1.367 . S
C1618 C1626 1.378 . S
C1619 C1618 1.367 . S
C1619 C1627 1.433 . S
C1620 H1616 0.929 . S
C1620 C1622 1.378 . S
C1620 C1624 1.350 . S
C1621 C1624 1.463 . S
C1621 C1626 1.350 . S
C1621 N1629 1.427 . S
C1622 H1613 0.930 . S
C1622 C1620 1.378 . S
C1622 C1623 1.367 . S
C1623 C1622 1.367 . S
C1623 C1625 1.433 . S
C1624 C1620 1.350 . S
C1624 C1621 1.463 . S
C1624 N1628 1.427 . S
C1625 H1615 0.929 . S
C1625 C1623 1.433 . S
C1625 N1628 1.384 . S
C1626 H1617 0.929 . S
C1626 C1618 1.378 . S
C1626 C1621 1.350 . S
C1627 H1614 0.929 . S
C1627 C1619 1.433 . S
C1627 N1629 1.384 . S
N1628 C1624 1.427 . S
N1628 C1625 1.384 . S
N1629 C1621 1.427 . S
N1629 C1627 1.384 . S
H1630 C1636 0.930 . S
H1631 C1640 0.930 . S
H1632 C1645 0.929 . S
H1633 C1643 0.929 . S
H1634 C1638 0.929 . S
H1635 C1644 0.929 . S
C1636 H1630 0.930 . S
C1636 C1637 1.367 . S
C1636 C1644 1.378 . S
C1637 C1636 1.367 . S
C1637 C1645 1.433 . S
C1638 H1634 0.929 . S
C1638 C1640 1.378 . S
C1638 C1642 1.350 . S
C1639 C1642 1.463 . S
C1639 C1644 1.350 . S
C1639 N1647 1.427 . S
C1640 H1631 0.930 . S
C1640 C1638 1.378 . S
C1640 C1641 1.367 . S
C1641 C1640 1.367 . S
C1641 C1643 1.433 . S
C1642 C1638 1.350 . S
C1642 C1639 1.463 . S
C1642 N1646 1.427 . S
C1643 H1633 0.929 . S
C1643 C1641 1.433 . S
C1643 N1646 1.384 . S
C1644 H1635 0.929 . S
C1644 C1636 1.378 . S
C1644 C1639 1.350 . S
C1645 H1632 0.929 . S
C1645 C1637 1.433 . S
C1645 N1647 1.384 . S
N1646 C1642 1.427 . S
N1646 C1643 1.384 . S
N1647 C1639 1.427 . S
N1647 C1645 1.384 . S
H1648 C1654 0.930 . S
H1649 C1658 0.930 1_565 S
H1650 C1663 0.929 . S
H1651 C1661 0.929 . S
H1652 C1656 0.928 1_565 S
H1653 C1662 0.929 . S
C1654 H1648 0.930 . S
C1654 C1655 1.367 . S
C1654 C1662 1.378 . S
C1655 C1654 1.367 . S
C1655 C1663 1.433 1_545 S
C1656 H1652 0.928 1_545 S
C1656 C1658 1.365 1_655 S
C1656 C1660 1.363 . S
C1657 C1660 1.463 . S
C1657 C1662 1.350 . S
C1657 N1665 1.427 1_545 S
C1658 H1649 0.930 1_545 S
C1658 C1656 1.365 1_455 S
C1658 C1659 1.367 . S
C1659 C1658 1.367 . S
C1659 C1661 1.433 . S
C1660 C1656 1.363 . S
C1660 C1657 1.463 . S
C1660 N1664 1.427 . S
C1661 H1651 0.929 . S
C1661 C1659 1.433 . S
C1661 N1664 1.384 1_455 S
C1662 H1653 0.929 . S
C1662 C1654 1.378 . S
C1662 C1657 1.350 . S
C1663 H1650 0.929 . S
C1663 C1655 1.433 1_565 S
C1663 N1665 1.384 . S
N1664 C1660 1.427 . S
N1664 C1661 1.384 1_655 S
N1665 C1657 1.427 1_565 S
N1665 C1663 1.384 . S
H1666 C1672 0.930 . S
H1667 C1676 0.930 . S
H1668 C1681 0.929 . S
H1669 C1679 0.929 . S
H1670 C1674 0.929 . S
H1671 C1680 0.929 . S
C1672 H1666 0.930 . S
C1672 C1673 1.367 . S
C1672 C1680 1.378 . S
C1673 C1672 1.367 . S
C1673 C1681 1.433 . S
C1674 H1670 0.929 . S
C1674 C1676 1.378 . S
C1674 C1678 1.350 . S
C1675 C1678 1.463 . S
C1675 C1680 1.350 . S
C1675 N1683 1.427 . S
C1676 H1667 0.930 . S
C1676 C1674 1.378 . S
C1676 C1677 1.367 . S
C1677 C1676 1.367 . S
C1677 C1679 1.433 . S
C1678 C1674 1.350 . S
C1678 C1675 1.463 . S
C1678 N1682 1.427 . S
C1679 H1669 0.929 . S
C1679 C1677 1.433 . S
C1679 N1682 1.384 . S
C1680 H1671 0.929 . S
C1680 C1672 1.378 . S
C1680 C1675 1.350 . S
C1681 H1668 0.929 . S
C1681 C1673 1.433 . S
C1681 N1683 1.384 . S
N1682 C1678 1.427 . S
N1682 C1679 1.384 . S
N1683 C1675 1.427 . S
N1683 C1681 1.384 . S
H1684 C1690 0.930 . S
H1685 C1694 0.930 . S
H1686 C1699 0.929 . S
H1687 C1697 0.929 . S
H1688 C1692 0.929 . S
H1689 C1698 0.929 . S
C1690 H1684 0.930 . S
C1690 C1691 1.367 . S
C1690 C1698 1.378 . S
C1691 C1690 1.367 . S
C1691 C1699 1.433 1_545 S
C1692 H1688 0.929 . S
C1692 C1694 1.378 . S
C1692 C1696 1.350 . S
C1693 C1696 1.463 . S
C1693 C1698 1.350 . S
C1693 N1701 1.427 . S
C1694 H1685 0.930 . S
C1694 C1692 1.378 . S
C1694 C1695 1.367 . S
C1695 C1694 1.367 . S
C1695 C1697 1.433 . S
C1696 C1692 1.350 . S
C1696 C1693 1.463 . S
C1696 N1700 1.427 . S
C1697 H1687 0.929 . S
C1697 C1695 1.433 . S
C1697 N1700 1.384 . S
C1698 H1689 0.929 . S
C1698 C1690 1.378 . S
C1698 C1693 1.350 . S
C1699 H1686 0.929 . S
C1699 C1691 1.433 1_565 S
C1699 N1701 1.384 1_565 S
N1700 C1696 1.427 . S
N1700 C1697 1.384 . S
N1701 C1693 1.427 . S
N1701 C1699 1.384 1_545 S
H1702 C1708 0.930 . S
H1703 C1712 0.930 . S
H1704 C1717 0.929 . S
H1705 C1715 0.929 . S
H1706 C1710 0.929 . S
H1707 C1716 0.929 . S
C1708 H1702 0.930 . S
C1708 C1709 1.367 . S
C1708 C1716 1.378 . S
C1709 C1708 1.367 . S
C1709 C1717 1.433 . S
C1710 H1706 0.929 . S
C1710 C1712 1.378 . S
C1710 C1714 1.350 . S
C1711 C1714 1.463 . S
C1711 C1716 1.350 . S
C1711 N1719 1.427 . S
C1712 H1703 0.930 . S
C1712 C1710 1.378 . S
C1712 C1713 1.367 . S
C1713 C1712 1.367 . S
C1713 C1715 1.433 . S
C1714 C1710 1.350 . S
C1714 C1711 1.463 . S
C1714 N1718 1.427 . S
C1715 H1705 0.929 . S
C1715 C1713 1.433 . S
C1715 N1718 1.384 . S
C1716 H1707 0.929 . S
C1716 C1708 1.378 . S
C1716 C1711 1.350 . S
C1717 H1704 0.929 . S
C1717 C1709 1.433 . S
C1717 N1719 1.384 . S
N1718 C1714 1.427 . S
N1718 C1715 1.384 . S
N1719 C1711 1.427 . S
N1719 C1717 1.384 . S
H1720 C1726 0.930 . S
H1721 C1730 0.930 . S
H1722 C1735 0.929 . S
H1723 C1733 0.929 . S
H1724 C1728 0.929 1_455 S
H1725 C1734 0.929 . S
C1726 H1720 0.930 . S
C1726 C1727 1.367 . S
C1726 C1734 1.378 . S
C1727 C1726 1.367 . S
C1727 C1735 1.433 . S
C1728 H1724 0.929 1_655 S
C1728 C1730 1.378 1_655 S
C1728 C1732 1.350 . S
C1729 C1732 1.463 . S
C1729 C1734 1.350 . S
C1729 N1737 1.427 . S
C1730 H1721 0.930 . S
C1730 C1728 1.378 1_455 S
C1730 C1731 1.369 1_455 S
C1731 C1730 1.369 1_655 S
C1731 C1733 1.429 . S
C1732 C1728 1.350 . S
C1732 C1729 1.463 . S
C1732 N1736 1.427 . S
C1733 H1723 0.929 . S
C1733 C1731 1.429 . S
C1733 N1736 1.384 . S
C1734 H1725 0.929 . S
C1734 C1726 1.378 . S
C1734 C1729 1.350 . S
C1735 H1722 0.929 . S
C1735 C1727 1.433 . S
C1735 N1737 1.384 . S
N1736 C1732 1.427 . S
N1736 C1733 1.384 . S
N1737 C1729 1.427 . S
N1737 C1735 1.384 . S
H1738 C1744 0.930 . S
H1739 C1748 0.930 . S
H1740 C1753 0.929 . S
H1741 C1751 0.929 . S
H1742 C1746 0.929 . S
H1743 C1752 0.929 . S
C1744 H1738 0.930 . S
C1744 C1745 1.367 . S
C1744 C1752 1.378 . S
C1745 C1744 1.367 . S
C1745 C1753 1.433 . S
C1746 H1742 0.929 . S
C1746 C1748 1.378 . S
C1746 C1750 1.350 . S
C1747 C1750 1.463 . S
C1747 C1752 1.350 . S
C1747 N1755 1.427 . S
C1748 H1739 0.930 . S
C1748 C1746 1.378 . S
C1748 C1749 1.367 . S
C1749 C1748 1.367 . S
C1749 C1751 1.433 . S
C1750 C1746 1.350 . S
C1750 C1747 1.463 . S
C1750 N1754 1.427 . S
C1751 H1741 0.929 . S
C1751 C1749 1.433 . S
C1751 N1754 1.384 . S
C1752 H1743 0.929 . S
C1752 C1744 1.378 . S
C1752 C1747 1.350 . S
C1753 H1740 0.929 . S
C1753 C1745 1.433 . S
C1753 N1755 1.384 . S
N1754 C1750 1.427 . S
N1754 C1751 1.384 . S
N1755 C1747 1.427 . S
N1755 C1753 1.384 . S
H1756 C1762 0.930 . S
H1757 C1766 0.930 . S
H1758 C1771 0.929 . S
H1759 C1769 0.929 . S
H1760 C1764 0.929 . S
H1761 C1770 0.929 . S
C1762 H1756 0.930 . S
C1762 C1763 1.367 . S
C1762 C1770 1.378 . S
C1763 C1762 1.367 . S
C1763 C1771 1.433 1_545 S
C1764 H1760 0.929 . S
C1764 C1766 1.378 . S
C1764 C1768 1.350 . S
C1765 C1768 1.463 . S
C1765 C1770 1.350 . S
C1765 N1773 1.427 . S
C1766 H1757 0.930 . S
C1766 C1764 1.378 . S
C1766 C1767 1.367 . S
C1767 C1766 1.367 . S
C1767 C1769 1.433 . S
C1768 C1764 1.350 . S
C1768 C1765 1.463 . S
C1768 N1772 1.427 . S
C1769 H1759 0.929 . S
C1769 C1767 1.433 . S
C1769 N1772 1.384 . S
C1770 H1761 0.929 . S
C1770 C1762 1.378 . S
C1770 C1765 1.350 . S
C1771 H1758 0.929 . S
C1771 C1763 1.433 1_565 S
C1771 N1773 1.384 1_565 S
N1772 C1768 1.427 . S
N1772 C1769 1.384 . S
N1773 C1765 1.427 . S
N1773 C1771 1.384 1_545 S
H1774 C1780 0.930 . S
H1775 C1784 0.930 . S
H1776 C1789 0.929 . S
H1777 C1787 0.929 . S
H1778 C1782 0.929 . S
H1779 C1788 0.929 . S
C1780 H1774 0.930 . S
C1780 C1781 1.367 . S
C1780 C1788 1.378 . S
C1781 C1780 1.367 . S
C1781 C1789 1.433 . S
C1782 H1778 0.929 . S
C1782 C1784 1.378 . S
C1782 C1786 1.350 . S
C1783 C1786 1.463 . S
C1783 C1788 1.350 . S
C1783 N1791 1.427 . S
C1784 H1775 0.930 . S
C1784 C1782 1.378 . S
C1784 C1785 1.367 . S
C1785 C1784 1.367 . S
C1785 C1787 1.433 . S
C1786 C1782 1.350 . S
C1786 C1783 1.463 . S
C1786 N1790 1.427 . S
C1787 H1777 0.929 . S
C1787 C1785 1.433 . S
C1787 N1790 1.384 . S
C1788 H1779 0.929 . S
C1788 C1780 1.378 . S
C1788 C1783 1.350 . S
C1789 H1776 0.929 . S
C1789 C1781 1.433 . S
C1789 N1791 1.384 . S
N1790 C1786 1.427 . S
N1790 C1787 1.384 . S
N1791 C1783 1.427 . S
N1791 C1789 1.384 . S
H1792 C1798 0.930 . S
H1793 C1802 0.930 1_545 S
H1794 C1807 0.929 . S
H1795 C1805 0.929 . S
H1796 C1800 0.929 . S
H1797 C1806 0.929 . S
C1798 H1792 0.930 . S
C1798 C1799 1.367 . S
C1798 C1806 1.378 . S
C1799 C1798 1.367 . S
C1799 C1807 1.433 . S
C1800 H1796 0.929 . S
C1800 C1802 1.378 . S
C1800 C1804 1.350 . S
C1801 C1804 1.463 . S
C1801 C1806 1.350 . S
C1801 N1809 1.427 . S
C1802 H1793 0.930 1_565 S
C1802 C1800 1.378 . S
C1802 C1803 1.367 . S
C1803 C1802 1.367 . S
C1803 C1805 1.433 . S
C1804 C1800 1.350 . S
C1804 C1801 1.463 . S
C1804 N1808 1.427 . S
C1805 H1795 0.929 . S
C1805 C1803 1.433 . S
C1805 N1808 1.384 . S
C1806 H1797 0.929 . S
C1806 C1798 1.378 . S
C1806 C1801 1.350 . S
C1807 H1794 0.929 . S
C1807 C1799 1.433 . S
C1807 N1809 1.384 . S
N1808 C1804 1.427 . S
N1808 C1805 1.384 . S
N1809 C1801 1.427 . S
N1809 C1807 1.384 . S
H1810 C1816 0.930 . S
H1811 C1820 0.930 1_556 S
H1812 C1825 0.929 . S
H1813 C1823 0.929 . S
H1814 C1818 0.929 1_556 S
H1815 C1824 0.929 . S
C1816 H1810 0.930 . S
C1816 C1817 1.367 . S
C1816 C1824 1.378 . S
C1817 C1816 1.367 . S
C1817 C1825 1.433 1_554 S
C1818 H1814 0.929 1_554 S
C1818 C1820 1.378 . S
C1818 C1822 1.350 . S
C1819 C1822 1.463 . S
C1819 C1824 1.350 . S
C1819 N1827 1.412 1_554 S
C1820 H1811 0.930 1_554 S
C1820 C1818 1.378 . S
C1820 C1821 1.367 . S
C1821 C1820 1.367 . S
C1821 C1823 1.433 . S
C1822 C1818 1.350 . S
C1822 C1819 1.463 . S
C1822 N1826 1.427 . S
C1823 H1813 0.929 . S
C1823 C1821 1.433 . S
C1823 N1826 1.384 . S
C1824 H1815 0.929 . S
C1824 C1816 1.378 . S
C1824 C1819 1.350 . S
C1825 H1812 0.929 . S
C1825 C1817 1.433 1_556 S
C1825 N1827 1.387 . S
N1826 C1822 1.427 . S
N1826 C1823 1.384 . S
N1827 C1819 1.412 1_556 S
N1827 C1825 1.387 . S
H1828 C1834 0.930 . S
H1829 C1838 0.930 . S
H1830 C1843 0.929 . S
H1831 C1841 0.929 . S
H1832 C1836 0.929 . S
H1833 C1842 0.929 . S
C1834 H1828 0.930 . S
C1834 C1835 1.367 . S
C1834 C1842 1.378 . S
C1835 C1834 1.367 . S
C1835 C1843 1.433 . S
C1836 H1832 0.929 . S
C1836 C1838 1.378 . S
C1836 C1840 1.350 . S
C1837 C1840 1.463 . S
C1837 C1842 1.350 . S
C1837 N1845 1.427 . S
C1838 H1829 0.930 . S
C1838 C1836 1.378 . S
C1838 C1839 1.367 . S
C1839 C1838 1.367 . S
C1839 C1841 1.433 . S
C1840 C1836 1.350 . S
C1840 C1837 1.463 . S
C1840 N1844 1.427 . S
C1841 H1831 0.929 . S
C1841 C1839 1.433 . S
C1841 N1844 1.384 . S
C1842 H1833 0.929 . S
C1842 C1834 1.378 . S
C1842 C1837 1.350 . S
C1843 H1830 0.929 . S
C1843 C1835 1.433 . S
C1843 N1845 1.384 . S
N1844 C1840 1.427 . S
N1844 C1841 1.384 . S
N1845 C1837 1.427 . S
N1845 C1843 1.384 . S
H1846 C1852 0.930 . S
H1847 C1856 0.930 . S
H1848 C1861 0.929 . S
H1849 C1859 0.929 . S
H1850 C1854 0.929 . S
H1851 C1860 0.929 . S
C1852 H1846 0.930 . S
C1852 C1853 1.367 . S
C1852 C1860 1.378 . S
C1853 C1852 1.367 . S
C1853 C1861 1.433 . S
C1854 H1850 0.929 . S
C1854 C1856 1.378 . S
C1854 C1858 1.350 . S
C1855 C1858 1.463 . S
C1855 C1860 1.350 . S
C1855 N1863 1.427 . S
C1856 H1847 0.930 . S
C1856 C1854 1.378 . S
C1856 C1857 1.367 . S
C1857 C1856 1.367 . S
C1857 C1859 1.433 . S
C1858 C1854 1.350 . S
C1858 C1855 1.463 . S
C1858 N1862 1.427 . S
C1859 H1849 0.929 . S
C1859 C1857 1.433 . S
C1859 N1862 1.384 . S
C1860 H1851 0.929 . S
C1860 C1852 1.378 . S
C1860 C1855 1.350 . S
C1861 H1848 0.929 . S
C1861 C1853 1.433 . S
C1861 N1863 1.384 . S
N1862 C1858 1.427 . S
N1862 C1859 1.384 . S
N1863 C1855 1.427 . S
N1863 C1861 1.384 . S
H1864 C1870 0.930 . S
H1865 C1874 0.930 . S
H1866 C1879 0.929 . S
H1867 C1877 0.929 . S
H1868 C1872 0.929 . S
H1869 C1878 0.929 . S
C1870 H1864 0.930 . S
C1870 C1871 1.367 . S
C1870 C1878 1.378 . S
C1871 C1870 1.367 . S
C1871 C1879 1.433 . S
C1872 H1868 0.929 . S
C1872 C1874 1.378 . S
C1872 C1876 1.350 . S
C1873 C1876 1.463 . S
C1873 C1878 1.350 . S
C1873 N1881 1.427 . S
C1874 H1865 0.930 . S
C1874 C1872 1.378 . S
C1874 C1875 1.367 . S
C1875 C1874 1.367 . S
C1875 C1877 1.433 . S
C1876 C1872 1.350 . S
C1876 C1873 1.463 . S
C1876 N1880 1.427 . S
C1877 H1867 0.929 . S
C1877 C1875 1.433 . S
C1877 N1880 1.384 . S
C1878 H1869 0.929 . S
C1878 C1870 1.378 . S
C1878 C1873 1.350 . S
C1879 H1866 0.929 . S
C1879 C1871 1.433 . S
C1879 N1881 1.384 . S
N1880 C1876 1.427 . S
N1880 C1877 1.384 . S
N1881 C1873 1.427 . S
N1881 C1879 1.384 . S
H1882 C1888 0.930 . S
H1883 C1892 0.930 . S
H1884 C1897 0.929 . S
H1885 C1895 0.929 . S
H1886 C1890 0.929 . S
H1887 C1896 0.929 . S
C1888 H1882 0.930 . S
C1888 C1889 1.367 . S
C1888 C1896 1.378 . S
C1889 C1888 1.367 . S
C1889 C1897 1.433 . S
C1890 H1886 0.929 . S
C1890 C1892 1.378 . S
C1890 C1894 1.350 . S
C1891 C1894 1.463 . S
C1891 C1896 1.350 . S
C1891 N1899 1.427 . S
C1892 H1883 0.930 . S
C1892 C1890 1.378 . S
C1892 C1893 1.367 . S
C1893 C1892 1.367 . S
C1893 C1895 1.433 . S
C1894 C1890 1.350 . S
C1894 C1891 1.463 . S
C1894 N1898 1.427 . S
C1895 H1885 0.929 . S
C1895 C1893 1.433 . S
C1895 N1898 1.384 . S
C1896 H1887 0.929 . S
C1896 C1888 1.378 . S
C1896 C1891 1.350 . S
C1897 H1884 0.929 . S
C1897 C1889 1.433 . S
C1897 N1899 1.384 . S
N1898 C1894 1.427 . S
N1898 C1895 1.384 . S
N1899 C1891 1.427 . S
N1899 C1897 1.384 . S
H1900 C1906 0.930 . S
H1901 C1910 0.930 . S
H1902 C1915 0.929 . S
H1903 C1913 0.929 . S
H1904 C1908 0.929 . S
H1905 C1914 0.929 . S
C1906 H1900 0.930 . S
C1906 C1907 1.367 . S
C1906 C1914 1.378 . S
C1907 C1906 1.367 . S
C1907 C1915 1.433 . S
C1908 H1904 0.929 . S
C1908 C1910 1.378 . S
C1908 C1912 1.350 . S
C1909 C1912 1.463 . S
C1909 C1914 1.350 . S
C1909 N1917 1.427 . S
C1910 H1901 0.930 . S
C1910 C1908 1.378 . S
C1910 C1911 1.367 . S
C1911 C1910 1.367 . S
C1911 C1913 1.433 . S
C1912 C1908 1.350 . S
C1912 C1909 1.463 . S
C1912 N1916 1.427 . S
C1913 H1903 0.929 . S
C1913 C1911 1.433 . S
C1913 N1916 1.384 . S
C1914 H1905 0.929 . S
C1914 C1906 1.378 . S
C1914 C1909 1.350 . S
C1915 H1902 0.929 . S
C1915 C1907 1.433 . S
C1915 N1917 1.384 . S
N1916 C1912 1.427 . S
N1916 C1913 1.384 . S
N1917 C1909 1.427 . S
N1917 C1915 1.384 . S
H1918 C1924 0.930 . S
H1919 C1928 0.930 . S
H1920 C1933 0.929 . S
H1921 C1931 0.929 . S
H1922 C1926 0.929 . S
H1923 C1932 0.929 . S
C1924 H1918 0.930 . S
C1924 C1925 1.367 . S
C1924 C1932 1.378 . S
C1925 C1924 1.367 . S
C1925 C1933 1.433 . S
C1926 H1922 0.929 . S
C1926 C1928 1.378 . S
C1926 C1930 1.350 . S
C1927 C1930 1.463 . S
C1927 C1932 1.350 . S
C1927 N1935 1.427 . S
C1928 H1919 0.930 . S
C1928 C1926 1.378 . S
C1928 C1929 1.367 . S
C1929 C1928 1.367 . S
C1929 C1931 1.433 . S
C1930 C1926 1.350 . S
C1930 C1927 1.463 . S
C1930 N1934 1.427 . S
C1931 H1921 0.929 . S
C1931 C1929 1.433 . S
C1931 N1934 1.384 . S
C1932 H1923 0.929 . S
C1932 C1924 1.378 . S
C1932 C1927 1.350 . S
C1933 H1920 0.929 . S
C1933 C1925 1.433 . S
C1933 N1935 1.384 . S
N1934 C1930 1.427 . S
N1934 C1931 1.384 . S
N1935 C1927 1.427 . S
N1935 C1933 1.384 . S
H1936 C1942 0.930 . S
H1937 C1946 0.930 . S
H1938 C1951 0.929 . S
H1939 C1949 0.929 . S
H1940 C1944 0.929 . S
H1941 C1950 0.929 . S
C1942 H1936 0.930 . S
C1942 C1943 1.367 . S
C1942 C1950 1.378 . S
C1943 C1942 1.367 . S
C1943 C1951 1.433 . S
C1944 H1940 0.929 . S
C1944 C1946 1.378 . S
C1944 C1948 1.350 . S
C1945 C1948 1.463 . S
C1945 C1950 1.350 . S
C1945 N1953 1.427 . S
C1946 H1937 0.930 . S
C1946 C1944 1.378 . S
C1946 C1947 1.367 . S
C1947 C1946 1.367 . S
C1947 C1949 1.433 . S
C1948 C1944 1.350 . S
C1948 C1945 1.463 . S
C1948 N1952 1.427 . S
C1949 H1939 0.929 . S
C1949 C1947 1.433 . S
C1949 N1952 1.384 . S
C1950 H1941 0.929 . S
C1950 C1942 1.378 . S
C1950 C1945 1.350 . S
C1951 H1938 0.929 . S
C1951 C1943 1.433 . S
C1951 N1953 1.384 . S
N1952 C1948 1.427 . S
N1952 C1949 1.384 . S
N1953 C1945 1.427 . S
N1953 C1951 1.384 . S
H1954 C1960 0.930 . S
H1955 C1964 0.930 . S
H1956 C1969 0.929 . S
H1957 C1967 0.929 . S
H1958 C1962 0.929 . S
H1959 C1968 0.929 . S
C1960 H1954 0.930 . S
C1960 C1961 1.367 . S
C1960 C1968 1.378 . S
C1961 C1960 1.367 . S
C1961 C1969 1.433 . S
C1962 H1958 0.929 . S
C1962 C1964 1.378 . S
C1962 C1966 1.350 . S
C1963 C1966 1.463 . S
C1963 C1968 1.350 . S
C1963 N1971 1.427 . S
C1964 H1955 0.930 . S
C1964 C1962 1.378 . S
C1964 C1965 1.367 . S
C1965 C1964 1.367 . S
C1965 C1967 1.433 . S
C1966 C1962 1.350 . S
C1966 C1963 1.463 . S
C1966 N1970 1.427 . S
C1967 H1957 0.929 . S
C1967 C1965 1.433 . S
C1967 N1970 1.384 . S
C1968 H1959 0.929 . S
C1968 C1960 1.378 . S
C1968 C1963 1.350 . S
C1969 H1956 0.929 . S
C1969 C1961 1.433 . S
C1969 N1971 1.384 . S
N1970 C1966 1.427 . S
N1970 C1967 1.384 . S
N1971 C1963 1.427 . S
N1971 C1969 1.384 . S
H1972 C1978 0.930 . S
H1973 C1982 0.930 . S
H1974 C1987 0.929 . S
H1975 C1985 0.929 . S
H1976 C1980 0.929 . S
H1977 C1986 0.929 . S
C1978 H1972 0.930 . S
C1978 C1979 1.367 . S
C1978 C1986 1.378 . S
C1979 C1978 1.367 . S
C1979 C1987 1.433 . S
C1980 H1976 0.929 . S
C1980 C1982 1.378 . S
C1980 C1984 1.350 . S
C1981 C1984 1.463 . S
C1981 C1986 1.350 . S
C1981 N1989 1.427 . S
C1982 H1973 0.930 . S
C1982 C1980 1.378 . S
C1982 C1983 1.367 . S
C1983 C1982 1.367 . S
C1983 C1985 1.433 . S
C1984 C1980 1.350 . S
C1984 C1981 1.463 . S
C1984 N1988 1.427 . S
C1985 H1975 0.929 . S
C1985 C1983 1.433 . S
C1985 N1988 1.384 . S
C1986 H1977 0.929 . S
C1986 C1978 1.378 . S
C1986 C1981 1.350 . S
C1987 H1974 0.929 . S
C1987 C1979 1.433 . S
C1987 N1989 1.384 . S
N1988 C1984 1.427 . S
N1988 C1985 1.384 . S
N1989 C1981 1.427 . S
N1989 C1987 1.384 . S
H1990 C1996 0.930 . S
H1991 C2000 0.930 . S
H1992 C2005 0.929 . S
H1993 C2003 0.929 . S
H1994 C1998 0.929 . S
H1995 C2004 0.929 . S
C1996 H1990 0.930 . S
C1996 C1997 1.367 . S
C1996 C2004 1.378 . S
C1997 C1996 1.367 . S
C1997 C2005 1.433 . S
C1998 H1994 0.929 . S
C1998 C2000 1.378 . S
C1998 C2002 1.350 . S
C1999 C2002 1.463 . S
C1999 C2004 1.350 . S
C1999 N2007 1.427 . S
C2000 H1991 0.930 . S
C2000 C1998 1.378 . S
C2000 C2001 1.367 . S
C2001 C2000 1.367 . S
C2001 C2003 1.433 . S
C2002 C1998 1.350 . S
C2002 C1999 1.463 . S
C2002 N2006 1.427 . S
C2003 H1993 0.929 . S
C2003 C2001 1.433 . S
C2003 N2006 1.384 . S
C2004 H1995 0.929 . S
C2004 C1996 1.378 . S
C2004 C1999 1.350 . S
C2005 H1992 0.929 . S
C2005 C1997 1.433 . S
C2005 N2007 1.384 . S
N2006 C2002 1.427 . S
N2006 C2003 1.384 . S
N2007 C1999 1.427 . S
N2007 C2005 1.384 . S
H2008 C2014 0.930 . S
H2009 C2018 0.930 . S
H2010 C2023 0.929 . S
H2011 C2021 0.929 . S
H2012 C2016 0.929 . S
H2013 C2022 0.929 . S
C2014 H2008 0.930 . S
C2014 C2015 1.367 . S
C2014 C2022 1.378 . S
C2015 C2014 1.367 . S
C2015 C2023 1.433 . S
C2016 H2012 0.929 . S
C2016 C2018 1.378 . S
C2016 C2020 1.350 . S
C2017 C2020 1.463 . S
C2017 C2022 1.350 . S
C2017 N2025 1.427 . S
C2018 H2009 0.930 . S
C2018 C2016 1.378 . S
C2018 C2019 1.367 . S
C2019 C2018 1.367 . S
C2019 C2021 1.433 . S
C2020 C2016 1.350 . S
C2020 C2017 1.463 . S
C2020 N2024 1.427 . S
C2021 H2011 0.929 . S
C2021 C2019 1.433 . S
C2021 N2024 1.384 . S
C2022 H2013 0.929 . S
C2022 C2014 1.378 . S
C2022 C2017 1.350 . S
C2023 H2010 0.929 . S
C2023 C2015 1.433 . S
C2023 N2025 1.384 . S
N2024 C2020 1.427 . S
N2024 C2021 1.384 . S
N2025 C2017 1.427 . S
N2025 C2023 1.384 . S
H2026 C2032 0.930 . S
H2027 C2036 0.930 . S
H2028 C2041 0.929 . S
H2029 C2039 0.929 . S
H2030 C2034 0.929 . S
H2031 C2040 0.929 . S
C2032 H2026 0.930 . S
C2032 C2033 1.367 . S
C2032 C2040 1.378 . S
C2033 C2032 1.367 . S
C2033 C2041 1.433 . S
C2034 H2030 0.929 . S
C2034 C2036 1.378 . S
C2034 C2038 1.350 . S
C2035 C2038 1.463 . S
C2035 C2040 1.350 . S
C2035 N2043 1.427 . S
C2036 H2027 0.930 . S
C2036 C2034 1.378 . S
C2036 C2037 1.367 . S
C2037 C2036 1.367 . S
C2037 C2039 1.433 . S
C2038 C2034 1.350 . S
C2038 C2035 1.463 . S
C2038 N2042 1.427 . S
C2039 H2029 0.929 . S
C2039 C2037 1.433 . S
C2039 N2042 1.384 . S
C2040 H2031 0.929 . S
C2040 C2032 1.378 . S
C2040 C2035 1.350 . S
C2041 H2028 0.929 . S
C2041 C2033 1.433 . S
C2041 N2043 1.384 . S
N2042 C2038 1.427 . S
N2042 C2039 1.384 . S
N2043 C2035 1.427 . S
N2043 C2041 1.384 . S
H2044 C2050 0.930 . S
H2045 C2054 0.930 . S
H2046 C2059 0.929 . S
H2047 C2057 0.929 . S
H2048 C2052 0.929 . S
H2049 C2058 0.929 . S
C2050 H2044 0.930 . S
C2050 C2051 1.367 . S
C2050 C2058 1.378 . S
C2051 C2050 1.367 . S
C2051 C2059 1.433 . S
C2052 H2048 0.929 . S
C2052 C2054 1.378 1_556 S
C2052 C2056 1.350 . S
C2053 C2056 1.463 . S
C2053 C2058 1.350 . S
C2053 N2061 1.427 . S
C2054 H2045 0.930 . S
C2054 C2052 1.378 1_554 S
C2054 C2055 1.367 1_554 S
C2055 C2054 1.367 1_556 S
C2055 C2057 1.433 . S
C2056 C2052 1.350 . S
C2056 C2053 1.463 . S
C2056 N2060 1.427 . S
C2057 H2047 0.929 . S
C2057 C2055 1.433 . S
C2057 N2060 1.384 . S
C2058 H2049 0.929 . S
C2058 C2050 1.378 . S
C2058 C2053 1.350 . S
C2059 H2046 0.929 . S
C2059 C2051 1.433 . S
C2059 N2061 1.384 . S
N2060 C2056 1.427 . S
N2060 C2057 1.384 . S
N2061 C2053 1.427 . S
N2061 C2059 1.384 . S
H2062 C2068 0.930 . S
H2063 C2072 0.930 . S
H2064 C2077 0.929 . S
H2065 C2075 0.929 . S
H2066 C2070 0.929 . S
H2067 C2076 0.929 . S
C2068 H2062 0.930 . S
C2068 C2069 1.367 . S
C2068 C2076 1.378 . S
C2069 C2068 1.367 . S
C2069 C2077 1.433 . S
C2070 H2066 0.929 . S
C2070 C2072 1.378 . S
C2070 C2074 1.350 . S
C2071 C2074 1.463 . S
C2071 C2076 1.350 . S
C2071 N2079 1.427 . S
C2072 H2063 0.930 . S
C2072 C2070 1.378 . S
C2072 C2073 1.367 . S
C2073 C2072 1.367 . S
C2073 C2075 1.433 . S
C2074 C2070 1.350 . S
C2074 C2071 1.463 . S
C2074 N2078 1.427 . S
C2075 H2065 0.929 . S
C2075 C2073 1.433 . S
C2075 N2078 1.384 . S
C2076 H2067 0.929 . S
C2076 C2068 1.378 . S
C2076 C2071 1.350 . S
C2077 H2064 0.929 . S
C2077 C2069 1.433 . S
C2077 N2079 1.384 . S
N2078 C2074 1.427 . S
N2078 C2075 1.384 . S
N2079 C2071 1.427 . S
N2079 C2077 1.384 . S
H2080 C2086 0.930 . S
H2081 C2090 0.930 1_565 S
H2082 C2095 0.929 . S
H2083 C2093 0.929 . S
H2084 C2088 0.929 . S
H2085 C2094 0.929 . S
C2086 H2080 0.930 . S
C2086 C2087 1.367 . S
C2086 C2094 1.378 . S
C2087 C2086 1.367 . S
C2087 C2095 1.433 . S
C2088 H2084 0.929 . S
C2088 C2090 1.378 . S
C2088 C2092 1.350 . S
C2089 C2092 1.463 . S
C2089 C2094 1.350 . S
C2089 N2097 1.427 . S
C2090 H2081 0.930 1_545 S
C2090 C2088 1.378 . S
C2090 C2091 1.367 . S
C2091 C2090 1.367 . S
C2091 C2093 1.433 . S
C2092 C2088 1.350 . S
C2092 C2089 1.463 . S
C2092 N2096 1.427 . S
C2093 H2083 0.929 . S
C2093 C2091 1.433 . S
C2093 N2096 1.384 . S
C2094 H2085 0.929 . S
C2094 C2086 1.378 . S
C2094 C2089 1.350 . S
C2095 H2082 0.929 . S
C2095 C2087 1.433 . S
C2095 N2097 1.384 . S
N2096 C2092 1.427 . S
N2096 C2093 1.384 . S
N2097 C2089 1.427 . S
N2097 C2095 1.384 . S
H2098 C2104 0.930 . S
H2099 C2108 0.930 . S
H2100 C2113 0.929 . S
H2101 C2111 0.929 . S
H2102 C2106 0.929 . S
H2103 C2112 0.929 . S
C2104 H2098 0.930 . S
C2104 C2105 1.367 . S
C2104 C2112 1.378 . S
C2105 C2104 1.367 . S
C2105 C2113 1.433 . S
C2106 H2102 0.929 . S
C2106 C2108 1.378 . S
C2106 C2110 1.350 . S
C2107 C2110 1.463 . S
C2107 C2112 1.350 . S
C2107 N2115 1.427 . S
C2108 H2099 0.930 . S
C2108 C2106 1.378 . S
C2108 C2109 1.367 . S
C2109 C2108 1.367 . S
C2109 C2111 1.433 . S
C2110 C2106 1.350 . S
C2110 C2107 1.463 . S
C2110 N2114 1.427 . S
C2111 H2101 0.929 . S
C2111 C2109 1.433 . S
C2111 N2114 1.384 . S
C2112 H2103 0.929 . S
C2112 C2104 1.378 . S
C2112 C2107 1.350 . S
C2113 H2100 0.929 . S
C2113 C2105 1.433 . S
C2113 N2115 1.384 . S
N2114 C2110 1.427 . S
N2114 C2111 1.384 . S
N2115 C2107 1.427 . S
N2115 C2113 1.384 . S
H2116 C2122 0.930 . S
H2117 C2126 0.930 . S
H2118 C2131 0.929 . S
H2119 C2129 0.929 . S
H2120 C2124 0.929 . S
H2121 C2130 0.929 . S
C2122 H2116 0.930 . S
C2122 C2123 1.367 . S
C2122 C2130 1.378 . S
C2123 C2122 1.367 . S
C2123 C2131 1.433 . S
C2124 H2120 0.929 . S
C2124 C2126 1.378 . S
C2124 C2128 1.350 . S
C2125 C2128 1.463 . S
C2125 C2130 1.350 . S
C2125 N2133 1.427 . S
C2126 H2117 0.930 . S
C2126 C2124 1.378 . S
C2126 C2127 1.367 . S
C2127 C2126 1.367 . S
C2127 C2129 1.433 . S
C2128 C2124 1.350 . S
C2128 C2125 1.463 . S
C2128 N2132 1.427 . S
C2129 H2119 0.929 . S
C2129 C2127 1.433 . S
C2129 N2132 1.384 . S
C2130 H2121 0.929 . S
C2130 C2122 1.378 . S
C2130 C2125 1.350 . S
C2131 H2118 0.929 . S
C2131 C2123 1.433 . S
C2131 N2133 1.384 . S
N2132 C2128 1.427 . S
N2132 C2129 1.384 . S
N2133 C2125 1.427 . S
N2133 C2131 1.384 . S
H2134 C2140 0.930 . S
H2135 C2144 0.930 . S
H2136 C2149 0.929 . S
H2137 C2147 0.929 . S
H2138 C2142 0.929 . S
H2139 C2148 0.929 . S
C2140 H2134 0.930 . S
C2140 C2141 1.367 . S
C2140 C2148 1.378 . S
C2141 C2140 1.367 . S
C2141 C2149 1.433 . S
C2142 H2138 0.929 . S
C2142 C2144 1.378 . S
C2142 C2146 1.350 . S
C2143 C2146 1.463 . S
C2143 C2148 1.350 . S
C2143 N2151 1.427 . S
C2144 H2135 0.930 . S
C2144 C2142 1.378 . S
C2144 C2145 1.367 . S
C2145 C2144 1.367 . S
C2145 C2147 1.433 . S
C2146 C2142 1.350 . S
C2146 C2143 1.463 . S
C2146 N2150 1.427 . S
C2147 H2137 0.929 . S
C2147 C2145 1.433 . S
C2147 N2150 1.384 . S
C2148 H2139 0.929 . S
C2148 C2140 1.378 . S
C2148 C2143 1.350 . S
C2149 H2136 0.929 . S
C2149 C2141 1.433 . S
C2149 N2151 1.384 . S
N2150 C2146 1.427 . S
N2150 C2147 1.384 . S
N2151 C2143 1.427 . S
N2151 C2149 1.384 . S
H2152 C2158 0.930 . S
H2153 C2162 0.930 . S
H2154 C2167 0.929 . S
H2155 C2165 0.929 . S
H2156 C2160 0.929 . S
H2157 C2166 0.929 . S
C2158 H2152 0.930 . S
C2158 C2159 1.367 . S
C2158 C2166 1.378 . S
C2159 C2158 1.367 . S
C2159 C2167 1.433 . S
C2160 H2156 0.929 . S
C2160 C2162 1.378 . S
C2160 C2164 1.350 . S
C2161 C2164 1.463 . S
C2161 C2166 1.350 . S
C2161 N2169 1.427 . S
C2162 H2153 0.930 . S
C2162 C2160 1.378 . S
C2162 C2163 1.367 . S
C2163 C2162 1.367 . S
C2163 C2165 1.433 . S
C2164 C2160 1.350 . S
C2164 C2161 1.463 . S
C2164 N2168 1.427 . S
C2165 H2155 0.929 . S
C2165 C2163 1.433 . S
C2165 N2168 1.384 . S
C2166 H2157 0.929 . S
C2166 C2158 1.378 . S
C2166 C2161 1.350 . S
C2167 H2154 0.929 . S
C2167 C2159 1.433 . S
C2167 N2169 1.384 . S
N2168 C2164 1.427 . S
N2168 C2165 1.384 . S
N2169 C2161 1.427 . S
N2169 C2167 1.384 . S
H2170 C2176 0.930 . S
H2171 C2180 0.930 . S
H2172 C2185 0.929 . S
H2173 C2183 0.929 . S
H2174 C2178 0.929 . S
H2175 C2184 0.929 . S
C2176 H2170 0.930 . S
C2176 C2177 1.367 . S
C2176 C2184 1.378 . S
C2177 C2176 1.367 . S
C2177 C2185 1.433 . S
C2178 H2174 0.929 . S
C2178 C2180 1.378 . S
C2178 C2182 1.350 . S
C2179 C2182 1.463 . S
C2179 C2184 1.350 . S
C2179 N2187 1.427 . S
C2180 H2171 0.930 . S
C2180 C2178 1.378 . S
C2180 C2181 1.367 . S
C2181 C2180 1.367 . S
C2181 C2183 1.433 . S
C2182 C2178 1.350 . S
C2182 C2179 1.463 . S
C2182 N2186 1.427 . S
C2183 H2173 0.929 . S
C2183 C2181 1.433 . S
C2183 N2186 1.384 . S
C2184 H2175 0.929 . S
C2184 C2176 1.378 . S
C2184 C2179 1.350 . S
C2185 H2172 0.929 . S
C2185 C2177 1.433 . S
C2185 N2187 1.384 . S
N2186 C2182 1.427 . S
N2186 C2183 1.384 . S
N2187 C2179 1.427 . S
N2187 C2185 1.384 . S
H2188 C2194 0.930 . S
H2189 C2198 0.930 . S
H2190 C2203 0.929 . S
H2191 C2201 0.929 . S
H2192 C2196 0.929 . S
H2193 C2202 0.929 . S
C2194 H2188 0.930 . S
C2194 C2195 1.367 . S
C2194 C2202 1.378 . S
C2195 C2194 1.367 . S
C2195 C2203 1.433 . S
C2196 H2192 0.929 . S
C2196 C2198 1.378 . S
C2196 C2200 1.350 . S
C2197 C2200 1.463 . S
C2197 C2202 1.350 . S
C2197 N2205 1.427 . S
C2198 H2189 0.930 . S
C2198 C2196 1.378 . S
C2198 C2199 1.367 . S
C2199 C2198 1.367 . S
C2199 C2201 1.433 1_545 S
C2200 C2196 1.350 . S
C2200 C2197 1.463 . S
C2200 N2204 1.427 . S
C2201 H2191 0.929 . S
C2201 C2199 1.433 1_565 S
C2201 N2204 1.384 1_565 S
C2202 H2193 0.929 . S
C2202 C2194 1.378 . S
C2202 C2197 1.350 . S
C2203 H2190 0.929 . S
C2203 C2195 1.433 . S
C2203 N2205 1.384 . S
N2204 C2200 1.427 . S
N2204 C2201 1.384 1_545 S
N2205 C2197 1.427 . S
N2205 C2203 1.384 . S
H2206 C2212 0.930 . S
H2207 C2216 0.930 . S
H2208 C2221 0.929 . S
H2209 C2219 0.929 . S
H2210 C2214 0.929 . S
H2211 C2220 0.929 . S
C2212 H2206 0.930 . S
C2212 C2213 1.367 . S
C2212 C2220 1.378 . S
C2213 C2212 1.367 . S
C2213 C2221 1.433 . S
C2214 H2210 0.929 . S
C2214 C2216 1.378 . S
C2214 C2218 1.350 . S
C2215 C2218 1.463 . S
C2215 C2220 1.350 . S
C2215 N2223 1.427 . S
C2216 H2207 0.930 . S
C2216 C2214 1.378 . S
C2216 C2217 1.367 . S
C2217 C2216 1.367 . S
C2217 C2219 1.433 . S
C2218 C2214 1.350 . S
C2218 C2215 1.463 . S
C2218 N2222 1.427 . S
C2219 H2209 0.929 . S
C2219 C2217 1.433 . S
C2219 N2222 1.384 . S
C2220 H2211 0.929 . S
C2220 C2212 1.378 . S
C2220 C2215 1.350 . S
C2221 H2208 0.929 . S
C2221 C2213 1.433 . S
C2221 N2223 1.384 . S
N2222 C2218 1.427 . S
N2222 C2219 1.384 . S
N2223 C2215 1.427 . S
N2223 C2221 1.384 . S
H2224 C2230 0.930 . S
H2225 C2234 0.930 . S
H2226 C2239 0.929 . S
H2227 C2237 0.929 . S
H2228 C2232 0.929 1_554 S
H2229 C2238 0.929 . S
C2230 H2224 0.930 . S
C2230 C2231 1.367 . S
C2230 C2238 1.378 . S
C2231 C2230 1.367 . S
C2231 C2239 1.433 1_556 S
C2232 H2228 0.929 1_556 S
C2232 C2234 1.378 . S
C2232 C2236 1.350 . S
C2233 C2236 1.463 . S
C2233 C2238 1.350 . S
C2233 N2241 1.427 1_556 S
C2234 H2225 0.930 . S
C2234 C2232 1.378 . S
C2234 C2235 1.367 . S
C2235 C2234 1.367 . S
C2235 C2237 1.433 . S
C2236 C2232 1.350 . S
C2236 C2233 1.463 . S
C2236 N2240 1.427 . S
C2237 H2227 0.929 . S
C2237 C2235 1.433 . S
C2237 N2240 1.384 . S
C2238 H2229 0.929 . S
C2238 C2230 1.378 . S
C2238 C2233 1.350 . S
C2239 H2226 0.929 . S
C2239 C2231 1.433 1_554 S
C2239 N2241 1.384 . S
N2240 C2236 1.427 . S
N2240 C2237 1.384 . S
N2241 C2233 1.427 1_554 S
N2241 C2239 1.384 . S
H2242 C2248 0.930 1_556 S
H2243 C2252 0.930 . S
H2244 C2257 0.929 . S
H2245 C2255 0.929 1_556 S
H2246 C2250 0.929 . S
H2247 C2256 0.929 1_556 S
C2248 H2242 0.930 1_554 S
C2248 C2249 1.367 . S
C2248 C2256 1.378 . S
C2249 C2248 1.367 . S
C2249 C2257 1.433 . S
C2250 H2246 0.929 . S
C2250 C2252 1.378 . S
C2250 C2254 1.350 . S
C2251 C2254 1.463 . S
C2251 C2256 1.350 . S
C2251 N2259 1.427 . S
C2252 H2243 0.930 . S
C2252 C2250 1.378 . S
C2252 C2253 1.367 . S
C2253 C2252 1.367 . S
C2253 C2255 1.433 . S
C2254 C2250 1.350 . S
C2254 C2251 1.463 . S
C2254 N2258 1.427 . S
C2255 H2245 0.929 1_554 S
C2255 C2253 1.433 . S
C2255 N2258 1.384 . S
C2256 H2247 0.929 1_554 S
C2256 C2248 1.378 . S
C2256 C2251 1.350 . S
C2257 H2244 0.929 . S
C2257 C2249 1.433 . S
C2257 N2259 1.384 . S
N2258 C2254 1.427 . S
N2258 C2255 1.384 . S
N2259 C2251 1.427 . S
N2259 C2257 1.384 . S
H2260 C2266 0.930 . S
H2261 C2270 0.930 . S
H2262 C2275 0.929 . S
H2263 C2273 0.929 . S
H2264 C2268 0.929 . S
H2265 C2274 0.929 . S
C2266 H2260 0.930 . S
C2266 C2267 1.367 . S
C2266 C2274 1.378 . S
C2267 C2266 1.367 . S
C2267 C2275 1.433 . S
C2268 H2264 0.929 . S
C2268 C2270 1.378 . S
C2268 C2272 1.350 . S
C2269 C2272 1.463 . S
C2269 C2274 1.350 . S
C2269 N2277 1.427 . S
C2270 H2261 0.930 . S
C2270 C2268 1.378 . S
C2270 C2271 1.367 . S
C2271 C2270 1.367 . S
C2271 C2273 1.433 . S
C2272 C2268 1.350 . S
C2272 C2269 1.463 . S
C2272 N2276 1.427 . S
C2273 H2263 0.929 . S
C2273 C2271 1.433 . S
C2273 N2276 1.384 . S
C2274 H2265 0.929 . S
C2274 C2266 1.378 . S
C2274 C2269 1.350 . S
C2275 H2262 0.929 . S
C2275 C2267 1.433 . S
C2275 N2277 1.384 . S
N2276 C2272 1.427 . S
N2276 C2273 1.384 . S
N2277 C2269 1.427 . S
N2277 C2275 1.384 . S
H2278 C2284 0.930 . S
H2279 C2288 0.930 . S
H2280 C2293 0.929 . S
H2281 C2291 0.929 . S
H2282 C2286 0.929 . S
H2283 C2292 0.929 . S
C2284 H2278 0.930 . S
C2284 C2285 1.367 . S
C2284 C2292 1.378 . S
C2285 C2284 1.367 . S
C2285 C2293 1.433 . S
C2286 H2282 0.929 . S
C2286 C2288 1.378 . S
C2286 C2290 1.350 . S
C2287 C2290 1.463 . S
C2287 C2292 1.350 . S
C2287 N2295 1.427 . S
C2288 H2279 0.930 . S
C2288 C2286 1.378 . S
C2288 C2289 1.367 . S
C2289 C2288 1.367 . S
C2289 C2291 1.433 . S
C2290 C2286 1.350 . S
C2290 C2287 1.463 . S
C2290 N2294 1.427 . S
C2291 H2281 0.929 . S
C2291 C2289 1.433 . S
C2291 N2294 1.384 . S
C2292 H2283 0.929 . S
C2292 C2284 1.378 . S
C2292 C2287 1.350 . S
C2293 H2280 0.929 . S
C2293 C2285 1.433 . S
C2293 N2295 1.384 . S
N2294 C2290 1.427 . S
N2294 C2291 1.384 . S
N2295 C2287 1.427 . S
N2295 C2293 1.384 . S
H2296 C2302 0.930 . S
H2297 C2306 0.930 . S
H2298 C2311 0.929 . S
H2299 C2309 0.929 . S
H2300 C2304 0.929 . S
H2301 C2310 0.929 . S
C2302 H2296 0.930 . S
C2302 C2303 1.367 . S
C2302 C2310 1.378 . S
C2303 C2302 1.367 . S
C2303 C2311 1.433 . S
C2304 H2300 0.929 . S
C2304 C2306 1.378 . S
C2304 C2308 1.350 . S
C2305 C2308 1.463 . S
C2305 C2310 1.350 . S
C2305 N2313 1.427 . S
C2306 H2297 0.930 . S
C2306 C2304 1.378 . S
C2306 C2307 1.367 . S
C2307 C2306 1.367 . S
C2307 C2309 1.433 . S
C2308 C2304 1.350 . S
C2308 C2305 1.463 . S
C2308 N2312 1.427 . S
C2309 H2299 0.929 . S
C2309 C2307 1.433 . S
C2309 N2312 1.384 . S
C2310 H2301 0.929 . S
C2310 C2302 1.378 . S
C2310 C2305 1.350 . S
C2311 H2298 0.929 . S
C2311 C2303 1.433 . S
C2311 N2313 1.384 . S
N2312 C2308 1.427 . S
N2312 C2309 1.384 . S
N2313 C2305 1.427 . S
N2313 C2311 1.384 . S
H2314 C2320 0.930 . S
H2315 C2324 0.930 1_545 S
H2316 C2329 0.929 . S
H2317 C2327 0.929 . S
H2318 C2322 0.929 . S
H2319 C2328 0.929 . S
C2320 H2314 0.930 . S
C2320 C2321 1.367 . S
C2320 C2328 1.378 . S
C2321 C2320 1.367 . S
C2321 C2329 1.433 . S
C2322 H2318 0.929 . S
C2322 C2324 1.378 . S
C2322 C2326 1.350 . S
C2323 C2326 1.463 . S
C2323 C2328 1.350 . S
C2323 N2331 1.427 . S
C2324 H2315 0.930 1_565 S
C2324 C2322 1.378 . S
C2324 C2325 1.367 . S
C2325 C2324 1.367 . S
C2325 C2327 1.433 . S
C2326 C2322 1.350 . S
C2326 C2323 1.463 . S
C2326 N2330 1.427 . S
C2327 H2317 0.929 . S
C2327 C2325 1.433 . S
C2327 N2330 1.384 . S
C2328 H2319 0.929 . S
C2328 C2320 1.378 . S
C2328 C2323 1.350 . S
C2329 H2316 0.929 . S
C2329 C2321 1.433 . S
C2329 N2331 1.384 . S
N2330 C2326 1.427 . S
N2330 C2327 1.384 . S
N2331 C2323 1.427 . S
N2331 C2329 1.384 . S
H2332 C2338 0.930 . S
H2333 C2342 0.930 . S
H2334 C2347 0.929 . S
H2335 C2345 0.929 . S
H2336 C2340 0.929 . S
H2337 C2346 0.929 . S
C2338 H2332 0.930 . S
C2338 C2339 1.367 . S
C2338 C2346 1.378 . S
C2339 C2338 1.367 . S
C2339 C2347 1.433 . S
C2340 H2336 0.929 . S
C2340 C2342 1.378 . S
C2340 C2344 1.350 . S
C2341 C2344 1.463 . S
C2341 C2346 1.350 . S
C2341 N2349 1.427 . S
C2342 H2333 0.930 . S
C2342 C2340 1.378 . S
C2342 C2343 1.367 . S
C2343 C2342 1.367 . S
C2343 C2345 1.433 . S
C2344 C2340 1.350 . S
C2344 C2341 1.463 . S
C2344 N2348 1.427 . S
C2345 H2335 0.929 . S
C2345 C2343 1.433 . S
C2345 N2348 1.384 . S
C2346 H2337 0.929 . S
C2346 C2338 1.378 . S
C2346 C2341 1.350 . S
C2347 H2334 0.929 . S
C2347 C2339 1.433 . S
C2347 N2349 1.384 . S
N2348 C2344 1.427 . S
N2348 C2345 1.384 . S
N2349 C2341 1.427 . S
N2349 C2347 1.384 . S
H2350 C2356 0.930 . S
H2351 C2360 0.930 . S
H2352 C2365 0.929 . S
H2353 C2363 0.929 . S
H2354 C2358 0.929 . S
H2355 C2364 0.929 . S
C2356 H2350 0.930 . S
C2356 C2357 1.367 . S
C2356 C2364 1.378 . S
C2357 C2356 1.367 . S
C2357 C2365 1.433 . S
C2358 H2354 0.929 . S
C2358 C2360 1.378 . S
C2358 C2362 1.350 . S
C2359 C2362 1.463 . S
C2359 C2364 1.350 . S
C2359 N2367 1.427 . S
C2360 H2351 0.930 . S
C2360 C2358 1.378 . S
C2360 C2361 1.367 . S
C2361 C2360 1.367 . S
C2361 C2363 1.433 . S
C2362 C2358 1.350 . S
C2362 C2359 1.463 . S
C2362 N2366 1.427 . S
C2363 H2353 0.929 . S
C2363 C2361 1.433 . S
C2363 N2366 1.384 . S
C2364 H2355 0.929 . S
C2364 C2356 1.378 . S
C2364 C2359 1.350 . S
C2365 H2352 0.929 . S
C2365 C2357 1.433 . S
C2365 N2367 1.384 . S
N2366 C2362 1.427 . S
N2366 C2363 1.384 . S
N2367 C2359 1.427 . S
N2367 C2365 1.384 . S
H2368 C2374 0.930 . S
H2369 C2378 0.930 . S
H2370 C2383 0.929 . S
H2371 C2381 0.929 . S
H2372 C2376 0.929 . S
H2373 C2382 0.929 . S
C2374 H2368 0.930 . S
C2374 C2375 1.367 . S
C2374 C2382 1.378 . S
C2375 C2374 1.367 . S
C2375 C2383 1.433 . S
C2376 H2372 0.929 . S
C2376 C2378 1.378 . S
C2376 C2380 1.350 . S
C2377 C2380 1.463 . S
C2377 C2382 1.350 . S
C2377 N2385 1.427 . S
C2378 H2369 0.930 . S
C2378 C2376 1.378 . S
C2378 C2379 1.367 . S
C2379 C2378 1.367 . S
C2379 C2381 1.433 . S
C2380 C2376 1.350 . S
C2380 C2377 1.463 . S
C2380 N2384 1.427 . S
C2381 H2371 0.929 . S
C2381 C2379 1.433 . S
C2381 N2384 1.384 . S
C2382 H2373 0.929 . S
C2382 C2374 1.378 . S
C2382 C2377 1.350 . S
C2383 H2370 0.929 . S
C2383 C2375 1.433 . S
C2383 N2385 1.384 . S
N2384 C2380 1.427 . S
N2384 C2381 1.384 . S
N2385 C2377 1.427 . S
N2385 C2383 1.384 . S
H2386 C2392 0.930 . S
H2387 C2396 0.930 . S
H2388 C2401 0.929 . S
H2389 C2399 0.929 . S
H2390 C2394 0.929 . S
H2391 C2400 0.929 . S
C2392 H2386 0.930 . S
C2392 C2393 1.367 . S
C2392 C2400 1.378 . S
C2393 C2392 1.367 . S
C2393 C2401 1.433 . S
C2394 H2390 0.929 . S
C2394 C2396 1.378 . S
C2394 C2398 1.350 . S
C2395 C2398 1.463 . S
C2395 C2400 1.350 . S
C2395 N2403 1.427 . S
C2396 H2387 0.930 . S
C2396 C2394 1.378 . S
C2396 C2397 1.367 . S
C2397 C2396 1.367 . S
C2397 C2399 1.433 . S
C2398 C2394 1.350 . S
C2398 C2395 1.463 . S
C2398 N2402 1.427 . S
C2399 H2389 0.929 . S
C2399 C2397 1.433 . S
C2399 N2402 1.384 . S
C2400 H2391 0.929 . S
C2400 C2392 1.378 . S
C2400 C2395 1.350 . S
C2401 H2388 0.929 . S
C2401 C2393 1.433 . S
C2401 N2403 1.384 . S
N2402 C2398 1.427 . S
N2402 C2399 1.384 . S
N2403 C2395 1.427 . S
N2403 C2401 1.384 . S
H2404 C2410 0.930 . S
H2405 C2414 0.930 . S
H2406 C2419 0.929 1_655 S
H2407 C2417 0.929 . S
H2408 C2412 0.929 . S
H2409 C2418 0.929 . S
C2410 H2404 0.930 . S
C2410 C2411 1.367 . S
C2410 C2418 1.378 . S
C2411 C2410 1.367 . S
C2411 C2419 1.433 . S
C2412 H2408 0.929 . S
C2412 C2414 1.378 . S
C2412 C2416 1.350 . S
C2413 C2416 1.463 . S
C2413 C2418 1.350 . S
C2413 N2421 1.427 . S
C2414 H2405 0.930 . S
C2414 C2412 1.378 . S
C2414 C2415 1.367 . S
C2415 C2414 1.367 . S
C2415 C2417 1.433 . S
C2416 C2412 1.350 . S
C2416 C2413 1.463 . S
C2416 N2420 1.427 . S
C2417 H2407 0.929 . S
C2417 C2415 1.433 . S
C2417 N2420 1.384 . S
C2418 H2409 0.929 . S
C2418 C2410 1.378 . S
C2418 C2413 1.350 . S
C2419 H2406 0.929 1_455 S
C2419 C2411 1.433 . S
C2419 N2421 1.384 . S
N2420 C2416 1.427 . S
N2420 C2417 1.384 . S
N2421 C2413 1.427 . S
N2421 C2419 1.384 . S
H2422 C2428 0.930 . S
H2423 C2432 0.930 . S
H2424 C2437 0.929 . S
H2425 C2435 0.929 . S
H2426 C2430 0.929 . S
H2427 C2436 0.929 . S
C2428 H2422 0.930 . S
C2428 C2429 1.367 . S
C2428 C2436 1.378 . S
C2429 C2428 1.367 . S
C2429 C2437 1.433 . S
C2430 H2426 0.929 . S
C2430 C2432 1.378 . S
C2430 C2434 1.350 . S
C2431 C2434 1.463 1_455 S
C2431 C2436 1.350 . S
C2431 N2439 1.427 . S
C2432 H2423 0.930 . S
C2432 C2430 1.378 . S
C2432 C2433 1.367 . S
C2433 C2432 1.367 . S
C2433 C2435 1.433 . S
C2434 C2430 1.350 . S
C2434 C2431 1.463 1_655 S
C2434 N2438 1.427 . S
C2435 H2425 0.929 . S
C2435 C2433 1.433 . S
C2435 N2438 1.384 . S
C2436 H2427 0.929 . S
C2436 C2428 1.378 . S
C2436 C2431 1.350 . S
C2437 H2424 0.929 . S
C2437 C2429 1.433 . S
C2437 N2439 1.384 . S
N2438 C2434 1.427 . S
N2438 C2435 1.384 . S
N2439 C2431 1.427 . S
N2439 C2437 1.384 . S
H2440 C2446 0.930 . S
H2441 C2450 0.930 . S
H2442 C2455 0.929 . S
H2443 C2453 0.929 . S
H2444 C2448 0.929 . S
H2445 C2454 0.929 . S
C2446 H2440 0.930 . S
C2446 C2447 1.367 . S
C2446 C2454 1.378 . S
C2447 C2446 1.367 . S
C2447 C2455 1.433 . S
C2448 H2444 0.929 . S
C2448 C2450 1.378 . S
C2448 C2452 1.350 . S
C2449 C2452 1.463 . S
C2449 C2454 1.350 . S
C2449 N2457 1.427 . S
C2450 H2441 0.930 . S
C2450 C2448 1.378 . S
C2450 C2451 1.367 . S
C2451 C2450 1.367 . S
C2451 C2453 1.433 . S
C2452 C2448 1.350 . S
C2452 C2449 1.463 . S
C2452 N2456 1.427 . S
C2453 H2443 0.929 . S
C2453 C2451 1.433 . S
C2453 N2456 1.384 . S
C2454 H2445 0.929 . S
C2454 C2446 1.378 . S
C2454 C2449 1.350 . S
C2455 H2442 0.929 . S
C2455 C2447 1.433 . S
C2455 N2457 1.384 . S
N2456 C2452 1.427 . S
N2456 C2453 1.384 . S
N2457 C2449 1.427 . S
N2457 C2455 1.384 . S
H2458 C2464 0.930 . S
H2459 C2468 0.930 . S
H2460 C2473 0.929 . S
H2461 C2471 0.929 . S
H2462 C2466 0.929 . S
H2463 C2472 0.929 . S
C2464 H2458 0.930 . S
C2464 C2465 1.367 . S
C2464 C2472 1.378 . S
C2465 C2464 1.367 . S
C2465 C2473 1.433 . S
C2466 H2462 0.929 . S
C2466 C2468 1.378 . S
C2466 C2470 1.350 . S
C2467 C2470 1.463 . S
C2467 C2472 1.350 . S
C2467 N2475 1.427 . S
C2468 H2459 0.930 . S
C2468 C2466 1.378 . S
C2468 C2469 1.367 . S
C2469 C2468 1.367 . S
C2469 C2471 1.433 . S
C2470 C2466 1.350 . S
C2470 C2467 1.463 . S
C2470 N2474 1.427 . S
C2471 H2461 0.929 . S
C2471 C2469 1.433 . S
C2471 N2474 1.384 . S
C2472 H2463 0.929 . S
C2472 C2464 1.378 . S
C2472 C2467 1.350 . S
C2473 H2460 0.929 . S
C2473 C2465 1.433 . S
C2473 N2475 1.384 . S
N2474 C2470 1.427 . S
N2474 C2471 1.384 . S
N2475 C2467 1.427 . S
N2475 C2473 1.384 . S
H2476 C2482 0.930 . S
H2477 C2486 0.930 . S
H2478 C2491 0.929 . S
H2479 C2489 0.929 . S
H2480 C2484 0.929 . S
H2481 C2490 0.929 . S
C2482 H2476 0.930 . S
C2482 C2483 1.367 . S
C2482 C2490 1.378 . S
C2483 C2482 1.367 . S
C2483 C2491 1.433 . S
C2484 H2480 0.929 . S
C2484 C2486 1.378 . S
C2484 C2488 1.350 . S
C2485 C2488 1.463 . S
C2485 C2490 1.350 . S
C2485 N2493 1.427 . S
C2486 H2477 0.930 . S
C2486 C2484 1.378 . S
C2486 C2487 1.367 . S
C2487 C2486 1.367 . S
C2487 C2489 1.433 . S
C2488 C2484 1.350 . S
C2488 C2485 1.463 . S
C2488 N2492 1.427 . S
C2489 H2479 0.929 . S
C2489 C2487 1.433 . S
C2489 N2492 1.384 . S
C2490 H2481 0.929 . S
C2490 C2482 1.378 . S
C2490 C2485 1.350 . S
C2491 H2478 0.929 . S
C2491 C2483 1.433 . S
C2491 N2493 1.384 . S
N2492 C2488 1.427 . S
N2492 C2489 1.384 . S
N2493 C2485 1.427 . S
N2493 C2491 1.384 . S
H2494 C2500 0.930 . S
H2495 C2504 0.930 . S
H2496 C2509 0.929 . S
H2497 C2507 0.929 . S
H2498 C2502 0.929 . S
H2499 C2508 0.929 . S
C2500 H2494 0.930 . S
C2500 C2501 1.367 . S
C2500 C2508 1.378 . S
C2501 C2500 1.367 . S
C2501 C2509 1.433 . S
C2502 H2498 0.929 . S
C2502 C2504 1.378 . S
C2502 C2506 1.350 . S
C2503 C2506 1.463 . S
C2503 C2508 1.350 . S
C2503 N2511 1.427 . S
C2504 H2495 0.930 . S
C2504 C2502 1.378 . S
C2504 C2505 1.367 . S
C2505 C2504 1.367 . S
C2505 C2507 1.433 . S
C2506 C2502 1.350 . S
C2506 C2503 1.463 . S
C2506 N2510 1.427 . S
C2507 H2497 0.929 . S
C2507 C2505 1.433 . S
C2507 N2510 1.384 . S
C2508 H2499 0.929 . S
C2508 C2500 1.378 . S
C2508 C2503 1.350 . S
C2509 H2496 0.929 . S
C2509 C2501 1.433 . S
C2509 N2511 1.384 . S
N2510 C2506 1.427 . S
N2510 C2507 1.384 . S
N2511 C2503 1.427 . S
N2511 C2509 1.384 . S
H2512 C2518 0.930 . S
H2513 C2522 0.930 . S
H2514 C2527 0.929 . S
H2515 C2525 0.929 . S
H2516 C2520 0.929 . S
H2517 C2526 0.929 . S
C2518 H2512 0.930 . S
C2518 C2519 1.367 . S
C2518 C2526 1.378 . S
C2519 C2518 1.367 . S
C2519 C2527 1.433 . S
C2520 H2516 0.929 . S
C2520 C2522 1.378 . S
C2520 C2524 1.350 . S
C2521 C2524 1.463 . S
C2521 C2526 1.350 . S
C2521 N2529 1.427 . S
C2522 H2513 0.930 . S
C2522 C2520 1.378 . S
C2522 C2523 1.367 . S
C2523 C2522 1.367 . S
C2523 C2525 1.433 . S
C2524 C2520 1.350 . S
C2524 C2521 1.463 . S
C2524 N2528 1.427 . S
C2525 H2515 0.929 . S
C2525 C2523 1.433 . S
C2525 N2528 1.384 . S
C2526 H2517 0.929 . S
C2526 C2518 1.378 . S
C2526 C2521 1.350 . S
C2527 H2514 0.929 . S
C2527 C2519 1.433 . S
C2527 N2529 1.384 . S
N2528 C2524 1.427 . S
N2528 C2525 1.384 . S
N2529 C2521 1.427 . S
N2529 C2527 1.384 . S
H2530 C2536 0.930 . S
H2531 C2540 0.930 . S
H2532 C2545 0.929 . S
H2533 C2543 0.929 . S
H2534 C2538 0.929 . S
H2535 C2544 0.929 . S
C2536 H2530 0.930 . S
C2536 C2537 1.367 . S
C2536 C2544 1.378 . S
C2537 C2536 1.367 . S
C2537 C2545 1.433 . S
C2538 H2534 0.929 . S
C2538 C2540 1.378 . S
C2538 C2542 1.350 . S
C2539 C2542 1.463 . S
C2539 C2544 1.350 . S
C2539 N2547 1.427 . S
C2540 H2531 0.930 . S
C2540 C2538 1.378 . S
C2540 C2541 1.367 . S
C2541 C2540 1.367 . S
C2541 C2543 1.433 . S
C2542 C2538 1.350 . S
C2542 C2539 1.463 . S
C2542 N2546 1.427 . S
C2543 H2533 0.929 . S
C2543 C2541 1.433 . S
C2543 N2546 1.384 . S
C2544 H2535 0.929 . S
C2544 C2536 1.378 . S
C2544 C2539 1.350 . S
C2545 H2532 0.929 . S
C2545 C2537 1.433 . S
C2545 N2547 1.384 . S
N2546 C2542 1.427 . S
N2546 C2543 1.384 . S
N2547 C2539 1.427 . S
N2547 C2545 1.384 . S
H2548 C2554 0.930 . S
H2549 C2558 0.930 . S
H2550 C2563 0.929 . S
H2551 C2561 0.929 . S
H2552 C2556 0.929 . S
H2553 C2562 0.929 . S
C2554 H2548 0.930 . S
C2554 C2555 1.367 . S
C2554 C2562 1.378 . S
C2555 C2554 1.367 . S
C2555 C2563 1.433 . S
C2556 H2552 0.929 . S
C2556 C2558 1.378 . S
C2556 C2560 1.350 . S
C2557 C2560 1.463 . S
C2557 C2562 1.350 . S
C2557 N2565 1.427 . S
C2558 H2549 0.930 . S
C2558 C2556 1.378 . S
C2558 C2559 1.367 . S
C2559 C2558 1.367 . S
C2559 C2561 1.433 . S
C2560 C2556 1.350 . S
C2560 C2557 1.463 . S
C2560 N2564 1.427 . S
C2561 H2551 0.929 . S
C2561 C2559 1.433 . S
C2561 N2564 1.384 . S
C2562 H2553 0.929 . S
C2562 C2554 1.378 . S
C2562 C2557 1.350 . S
C2563 H2550 0.929 . S
C2563 C2555 1.433 . S
C2563 N2565 1.384 . S
N2564 C2560 1.427 . S
N2564 C2561 1.384 . S
N2565 C2557 1.427 . S
N2565 C2563 1.384 . S
H2566 C2572 0.930 . S
H2567 C2576 0.930 . S
H2568 C2581 0.929 . S
H2569 C2579 0.929 . S
H2570 C2574 0.929 . S
H2571 C2580 0.929 . S
C2572 H2566 0.930 . S
C2572 C2573 1.367 . S
C2572 C2580 1.378 . S
C2573 C2572 1.367 . S
C2573 C2581 1.433 . S
C2574 H2570 0.929 . S
C2574 C2576 1.378 . S
C2574 C2578 1.350 . S
C2575 C2578 1.463 . S
C2575 C2580 1.350 . S
C2575 N2583 1.427 . S
C2576 H2567 0.930 . S
C2576 C2574 1.378 . S
C2576 C2577 1.367 . S
C2577 C2576 1.367 . S
C2577 C2579 1.433 . S
C2578 C2574 1.350 . S
C2578 C2575 1.463 . S
C2578 N2582 1.427 . S
C2579 H2569 0.929 . S
C2579 C2577 1.433 . S
C2579 N2582 1.384 . S
C2580 H2571 0.929 . S
C2580 C2572 1.378 . S
C2580 C2575 1.350 . S
C2581 H2568 0.929 . S
C2581 C2573 1.433 . S
C2581 N2583 1.384 . S
N2582 C2578 1.427 . S
N2582 C2579 1.384 . S
N2583 C2575 1.427 . S
N2583 C2581 1.384 . S
H2584 C2590 0.930 . S
H2585 C2594 0.930 . S
H2586 C2599 0.929 . S
H2587 C2597 0.929 . S
H2588 C2592 0.929 . S
H2589 C2598 0.929 . S
C2590 H2584 0.930 . S
C2590 C2591 1.367 . S
C2590 C2598 1.378 . S
C2591 C2590 1.367 . S
C2591 C2599 1.433 . S
C2592 H2588 0.929 . S
C2592 C2594 1.378 . S
C2592 C2596 1.350 . S
C2593 C2596 1.463 . S
C2593 C2598 1.350 . S
C2593 N2601 1.427 . S
C2594 H2585 0.930 . S
C2594 C2592 1.378 . S
C2594 C2595 1.367 . S
C2595 C2594 1.367 . S
C2595 C2597 1.433 . S
C2596 C2592 1.350 . S
C2596 C2593 1.463 . S
C2596 N2600 1.427 . S
C2597 H2587 0.929 . S
C2597 C2595 1.433 . S
C2597 N2600 1.384 . S
C2598 H2589 0.929 . S
C2598 C2590 1.378 . S
C2598 C2593 1.350 . S
C2599 H2586 0.929 . S
C2599 C2591 1.433 . S
C2599 N2601 1.384 . S
N2600 C2596 1.427 . S
N2600 C2597 1.384 . S
N2601 C2593 1.427 . S
N2601 C2599 1.384 . S
H2602 C2608 0.930 . S
H2603 C2612 0.930 . S
H2604 C2617 0.929 . S
H2605 C2615 0.929 . S
H2606 C2610 0.929 . S
H2607 C2616 0.929 . S
C2608 H2602 0.930 . S
C2608 C2609 1.367 . S
C2608 C2616 1.378 . S
C2609 C2608 1.367 . S
C2609 C2617 1.433 . S
C2610 H2606 0.929 . S
C2610 C2612 1.378 . S
C2610 C2614 1.350 . S
C2611 C2614 1.463 . S
C2611 C2616 1.350 . S
C2611 N2619 1.427 . S
C2612 H2603 0.930 . S
C2612 C2610 1.378 . S
C2612 C2613 1.367 . S
C2613 C2612 1.367 . S
C2613 C2615 1.433 . S
C2614 C2610 1.350 . S
C2614 C2611 1.463 . S
C2614 N2618 1.427 . S
C2615 H2605 0.929 . S
C2615 C2613 1.433 . S
C2615 N2618 1.384 . S
C2616 H2607 0.929 . S
C2616 C2608 1.378 . S
C2616 C2611 1.350 . S
C2617 H2604 0.929 . S
C2617 C2609 1.433 . S
C2617 N2619 1.384 . S
N2618 C2614 1.427 . S
N2618 C2615 1.384 . S
N2619 C2611 1.427 . S
N2619 C2617 1.384 . S
H2620 C2626 0.930 . S
H2621 C2630 0.930 . S
H2622 C2635 0.929 . S
H2623 C2633 0.929 . S
H2624 C2628 0.929 . S
H2625 C2634 0.929 . S
C2626 H2620 0.930 . S
C2626 C2627 1.367 . S
C2626 C2634 1.378 . S
C2627 C2626 1.367 . S
C2627 C2635 1.433 . S
C2628 H2624 0.929 . S
C2628 C2630 1.378 . S
C2628 C2632 1.350 . S
C2629 C2632 1.463 . S
C2629 C2634 1.350 . S
C2629 N2637 1.427 . S
C2630 H2621 0.930 . S
C2630 C2628 1.378 . S
C2630 C2631 1.367 . S
C2631 C2630 1.367 . S
C2631 C2633 1.433 . S
C2632 C2628 1.350 . S
C2632 C2629 1.463 . S
C2632 N2636 1.427 . S
C2633 H2623 0.929 . S
C2633 C2631 1.433 . S
C2633 N2636 1.384 . S
C2634 H2625 0.929 . S
C2634 C2626 1.378 . S
C2634 C2629 1.350 . S
C2635 H2622 0.929 . S
C2635 C2627 1.433 . S
C2635 N2637 1.384 . S
N2636 C2632 1.427 . S
N2636 C2633 1.384 . S
N2637 C2629 1.427 . S
N2637 C2635 1.384 . S
H2638 C2644 0.930 . S
H2639 C2648 0.930 . S
H2640 C2653 0.929 . S
H2641 C2651 0.929 . S
H2642 C2646 0.929 . S
H2643 C2652 0.929 . S
C2644 H2638 0.930 . S
C2644 C2645 1.367 . S
C2644 C2652 1.378 . S
C2645 C2644 1.367 . S
C2645 C2653 1.433 . S
C2646 H2642 0.929 . S
C2646 C2648 1.378 . S
C2646 C2650 1.350 . S
C2647 C2650 1.463 . S
C2647 C2652 1.350 . S
C2647 N2655 1.427 . S
C2648 H2639 0.930 . S
C2648 C2646 1.378 . S
C2648 C2649 1.367 . S
C2649 C2648 1.367 . S
C2649 C2651 1.433 . S
C2650 C2646 1.350 . S
C2650 C2647 1.463 . S
C2650 N2654 1.427 . S
C2651 H2641 0.929 . S
C2651 C2649 1.433 . S
C2651 N2654 1.384 . S
C2652 H2643 0.929 . S
C2652 C2644 1.378 . S
C2652 C2647 1.350 . S
C2653 H2640 0.929 . S
C2653 C2645 1.433 . S
C2653 N2655 1.384 . S
N2654 C2650 1.427 . S
N2654 C2651 1.384 . S
N2655 C2647 1.427 . S
N2655 C2653 1.384 . S
H2656 C2662 0.930 . S
H2657 C2666 0.930 . S
H2658 C2671 0.929 . S
H2659 C2669 0.929 . S
H2660 C2664 0.929 . S
H2661 C2670 0.929 . S
C2662 H2656 0.930 . S
C2662 C2663 1.367 . S
C2662 C2670 1.378 . S
C2663 C2662 1.367 . S
C2663 C2671 1.433 . S
C2664 H2660 0.929 . S
C2664 C2666 1.378 . S
C2664 C2668 1.350 . S
C2665 C2668 1.463 . S
C2665 C2670 1.350 . S
C2665 N2673 1.427 . S
C2666 H2657 0.930 . S
C2666 C2664 1.378 . S
C2666 C2667 1.367 . S
C2667 C2666 1.367 . S
C2667 C2669 1.433 . S
C2668 C2664 1.350 . S
C2668 C2665 1.463 . S
C2668 N2672 1.427 . S
C2669 H2659 0.929 . S
C2669 C2667 1.433 . S
C2669 N2672 1.384 . S
C2670 H2661 0.929 . S
C2670 C2662 1.378 . S
C2670 C2665 1.350 . S
C2671 H2658 0.929 . S
C2671 C2663 1.433 . S
C2671 N2673 1.384 . S
N2672 C2668 1.427 . S
N2672 C2669 1.384 . S
N2673 C2665 1.427 . S
N2673 C2671 1.384 . S
H2674 C2680 0.930 . S
H2675 C2684 0.930 . S
H2676 C2689 0.929 . S
H2677 C2687 0.929 . S
H2678 C2682 0.929 . S
H2679 C2688 0.929 . S
C2680 H2674 0.930 . S
C2680 C2681 1.367 . S
C2680 C2688 1.378 . S
C2681 C2680 1.367 . S
C2681 C2689 1.433 . S
C2682 H2678 0.929 . S
C2682 C2684 1.378 . S
C2682 C2686 1.350 . S
C2683 C2686 1.463 . S
C2683 C2688 1.350 . S
C2683 N2691 1.427 . S
C2684 H2675 0.930 . S
C2684 C2682 1.378 . S
C2684 C2685 1.367 . S
C2685 C2684 1.367 . S
C2685 C2687 1.433 . S
C2686 C2682 1.350 . S
C2686 C2683 1.463 . S
C2686 N2690 1.427 . S
C2687 H2677 0.929 . S
C2687 C2685 1.433 . S
C2687 N2690 1.384 . S
C2688 H2679 0.929 . S
C2688 C2680 1.378 . S
C2688 C2683 1.350 . S
C2689 H2676 0.929 . S
C2689 C2681 1.433 . S
C2689 N2691 1.384 . S
N2690 C2686 1.427 . S
N2690 C2687 1.384 . S
N2691 C2683 1.427 . S
N2691 C2689 1.384 . S
H2692 C2698 0.930 . S
H2693 C2702 0.930 . S
H2694 C2707 0.929 . S
H2695 C2705 0.929 . S
H2696 C2700 0.929 . S
H2697 C2706 0.929 1_545 S
C2698 H2692 0.930 . S
C2698 C2699 1.367 . S
C2698 C2706 1.378 1_545 S
C2699 C2698 1.367 . S
C2699 C2707 1.433 1_545 S
C2700 H2696 0.929 . S
C2700 C2702 1.378 . S
C2700 C2704 1.350 . S
C2701 C2704 1.463 . S
C2701 C2706 1.350 . S
C2701 N2709 1.427 . S
C2702 H2693 0.930 . S
C2702 C2700 1.378 . S
C2702 C2703 1.367 . S
C2703 C2702 1.367 . S
C2703 C2705 1.433 . S
C2704 C2700 1.350 . S
C2704 C2701 1.463 . S
C2704 N2708 1.427 . S
C2705 H2695 0.929 . S
C2705 C2703 1.433 . S
C2705 N2708 1.384 . S
C2706 H2697 0.929 1_565 S
C2706 C2698 1.378 1_565 S
C2706 C2701 1.350 . S
C2707 H2694 0.929 . S
C2707 C2699 1.433 1_565 S
C2707 N2709 1.384 . S
N2708 C2704 1.427 . S
N2708 C2705 1.384 . S
N2709 C2701 1.427 . S
N2709 C2707 1.384 . S
H2710 C2716 0.930 . S
H2711 C2720 0.930 . S
H2712 C2725 0.929 . S
H2713 C2723 0.929 . S
H2714 C2718 0.929 . S
H2715 C2724 0.929 . S
C2716 H2710 0.930 . S
C2716 C2717 1.367 . S
C2716 C2724 1.378 . S
C2717 C2716 1.367 . S
C2717 C2725 1.433 . S
C2718 H2714 0.929 . S
C2718 C2720 1.378 . S
C2718 C2722 1.350 . S
C2719 C2722 1.463 . S
C2719 C2724 1.350 . S
C2719 N2727 1.427 . S
C2720 H2711 0.930 . S
C2720 C2718 1.378 . S
C2720 C2721 1.367 1_565 S
C2721 C2720 1.367 1_545 S
C2721 C2723 1.433 . S
C2722 C2718 1.350 . S
C2722 C2719 1.463 . S
C2722 N2726 1.427 . S
C2723 H2713 0.929 . S
C2723 C2721 1.433 . S
C2723 N2726 1.384 1_545 S
C2724 H2715 0.929 . S
C2724 C2716 1.378 . S
C2724 C2719 1.350 . S
C2725 H2712 0.929 . S
C2725 C2717 1.433 . S
C2725 N2727 1.384 . S
N2726 C2722 1.427 . S
N2726 C2723 1.384 1_565 S
N2727 C2719 1.427 . S
N2727 C2725 1.384 . S
H2728 C2734 0.930 . S
H2729 C2738 0.930 . S
H2730 C2743 0.929 . S
H2731 C2741 0.929 . S
H2732 C2736 0.929 . S
H2733 C2742 0.929 . S
C2734 H2728 0.930 . S
C2734 C2735 1.367 . S
C2734 C2742 1.378 . S
C2735 C2734 1.367 . S
C2735 C2743 1.433 . S
C2736 H2732 0.929 . S
C2736 C2738 1.378 . S
C2736 C2740 1.350 . S
C2737 C2740 1.463 . S
C2737 C2742 1.350 . S
C2737 N2745 1.427 . S
C2738 H2729 0.930 . S
C2738 C2736 1.378 . S
C2738 C2739 1.367 . S
C2739 C2738 1.367 . S
C2739 C2741 1.433 . S
C2740 C2736 1.350 . S
C2740 C2737 1.463 . S
C2740 N2744 1.427 . S
C2741 H2731 0.929 . S
C2741 C2739 1.433 . S
C2741 N2744 1.384 . S
C2742 H2733 0.929 . S
C2742 C2734 1.378 . S
C2742 C2737 1.350 . S
C2743 H2730 0.929 . S
C2743 C2735 1.433 . S
C2743 N2745 1.384 . S
N2744 C2740 1.427 . S
N2744 C2741 1.384 . S
N2745 C2737 1.427 . S
N2745 C2743 1.384 . S
H2746 C2752 0.930 1_556 S
H2747 C2756 0.930 . S
H2748 C2761 0.929 . S
H2749 C2759 0.929 1_556 S
H2750 C2754 0.929 . S
H2751 C2760 0.929 1_556 S
C2752 H2746 0.930 1_554 S
C2752 C2753 1.367 . S
C2752 C2760 1.378 . S
C2753 C2752 1.367 . S
C2753 C2761 1.433 . S
C2754 H2750 0.929 . S
C2754 C2756 1.378 . S
C2754 C2758 1.350 . S
C2755 C2758 1.463 . S
C2755 C2760 1.350 . S
C2755 N2763 1.427 . S
C2756 H2747 0.930 . S
C2756 C2754 1.378 . S
C2756 C2757 1.367 . S
C2757 C2756 1.367 . S
C2757 C2759 1.433 . S
C2758 C2754 1.350 . S
C2758 C2755 1.463 . S
C2758 N2762 1.427 . S
C2759 H2749 0.929 1_554 S
C2759 C2757 1.433 . S
C2759 N2762 1.384 . S
C2760 H2751 0.929 1_554 S
C2760 C2752 1.378 . S
C2760 C2755 1.350 . S
C2761 H2748 0.929 . S
C2761 C2753 1.433 . S
C2761 N2763 1.384 . S
N2762 C2758 1.427 . S
N2762 C2759 1.384 . S
N2763 C2755 1.427 . S
N2763 C2761 1.384 . S
H2764 C2770 0.930 . S
H2765 C2774 0.930 . S
H2766 C2779 0.929 . S
H2767 C2777 0.929 . S
H2768 C2772 0.929 . S
H2769 C2778 0.929 . S
C2770 H2764 0.930 . S
C2770 C2771 1.367 . S
C2770 C2778 1.378 . S
C2771 C2770 1.367 . S
C2771 C2779 1.433 . S
C2772 H2768 0.929 . S
C2772 C2774 1.378 . S
C2772 C2776 1.350 . S
C2773 C2776 1.463 . S
C2773 C2778 1.350 . S
C2773 N2781 1.427 . S
C2774 H2765 0.930 . S
C2774 C2772 1.378 . S
C2774 C2775 1.367 . S
C2775 C2774 1.367 . S
C2775 C2777 1.433 . S
C2776 C2772 1.350 . S
C2776 C2773 1.463 . S
C2776 N2780 1.427 . S
C2777 H2767 0.929 . S
C2777 C2775 1.433 . S
C2777 N2780 1.384 . S
C2778 H2769 0.929 . S
C2778 C2770 1.378 . S
C2778 C2773 1.350 . S
C2779 H2766 0.929 . S
C2779 C2771 1.433 . S
C2779 N2781 1.384 . S
N2780 C2776 1.427 . S
N2780 C2777 1.384 . S
N2781 C2773 1.427 . S
N2781 C2779 1.384 . S
H2782 C2788 0.930 . S
H2783 C2792 0.930 . S
H2784 C2797 0.929 . S
H2785 C2795 0.929 . S
H2786 C2790 0.929 . S
H2787 C2796 0.929 . S
C2788 H2782 0.930 . S
C2788 C2789 1.367 . S
C2788 C2796 1.378 1_545 S
C2789 C2788 1.367 . S
C2789 C2797 1.433 . S
C2790 H2786 0.929 . S
C2790 C2792 1.378 . S
C2790 C2794 1.350 . S
C2791 C2794 1.463 . S
C2791 C2796 1.350 . S
C2791 N2799 1.427 . S
C2792 H2783 0.930 . S
C2792 C2790 1.378 . S
C2792 C2793 1.367 . S
C2793 C2792 1.367 . S
C2793 C2795 1.433 . S
C2794 C2790 1.350 . S
C2794 C2791 1.463 . S
C2794 N2798 1.427 . S
C2795 H2785 0.929 . S
C2795 C2793 1.433 . S
C2795 N2798 1.384 . S
C2796 H2787 0.929 . S
C2796 C2788 1.378 1_565 S
C2796 C2791 1.350 . S
C2797 H2784 0.929 . S
C2797 C2789 1.433 . S
C2797 N2799 1.384 1_545 S
N2798 C2794 1.427 . S
N2798 C2795 1.384 . S
N2799 C2791 1.427 . S
N2799 C2797 1.384 1_565 S
H2800 C2806 0.930 . S
H2801 C2810 0.930 . S
H2802 C2815 0.929 . S
H2803 C2813 0.929 . S
H2804 C2808 0.929 . S
H2805 C2814 0.929 . S
C2806 H2800 0.930 . S
C2806 C2807 1.367 . S
C2806 C2814 1.378 . S
C2807 C2806 1.367 . S
C2807 C2815 1.433 . S
C2808 H2804 0.929 . S
C2808 C2810 1.378 . S
C2808 C2812 1.350 . S
C2809 C2812 1.463 . S
C2809 C2814 1.350 . S
C2809 N2817 1.427 . S
C2810 H2801 0.930 . S
C2810 C2808 1.378 . S
C2810 C2811 1.367 . S
C2811 C2810 1.367 . S
C2811 C2813 1.433 . S
C2812 C2808 1.350 . S
C2812 C2809 1.463 . S
C2812 N2816 1.427 . S
C2813 H2803 0.929 . S
C2813 C2811 1.433 . S
C2813 N2816 1.384 . S
C2814 H2805 0.929 . S
C2814 C2806 1.378 . S
C2814 C2809 1.350 . S
C2815 H2802 0.929 . S
C2815 C2807 1.433 . S
C2815 N2817 1.384 . S
N2816 C2812 1.427 . S
N2816 C2813 1.384 . S
N2817 C2809 1.427 . S
N2817 C2815 1.384 . S
H2818 C2824 0.930 . S
H2819 C2828 0.930 . S
H2820 C2833 0.929 . S
H2821 C2831 0.929 . S
H2822 C2826 0.929 . S
H2823 C2832 0.929 . S
C2824 H2818 0.930 . S
C2824 C2825 1.367 . S
C2824 C2832 1.378 . S
C2825 C2824 1.367 . S
C2825 C2833 1.433 . S
C2826 H2822 0.929 . S
C2826 C2828 1.378 . S
C2826 C2830 1.350 . S
C2827 C2830 1.463 . S
C2827 C2832 1.350 . S
C2827 N2835 1.427 . S
C2828 H2819 0.930 . S
C2828 C2826 1.378 . S
C2828 C2829 1.367 . S
C2829 C2828 1.367 . S
C2829 C2831 1.433 . S
C2830 C2826 1.350 . S
C2830 C2827 1.463 . S
C2830 N2834 1.427 . S
C2831 H2821 0.929 . S
C2831 C2829 1.433 . S
C2831 N2834 1.384 . S
C2832 H2823 0.929 . S
C2832 C2824 1.378 . S
C2832 C2827 1.350 . S
C2833 H2820 0.929 . S
C2833 C2825 1.433 . S
C2833 N2835 1.384 . S
N2834 C2830 1.427 . S
N2834 C2831 1.384 . S
N2835 C2827 1.427 . S
N2835 C2833 1.384 . S
H2836 C2842 0.930 . S
H2837 C2846 0.930 . S
H2838 C2851 0.929 . S
H2839 C2849 0.929 . S
H2840 C2844 0.929 . S
H2841 C2850 0.929 . S
C2842 H2836 0.930 . S
C2842 C2843 1.367 . S
C2842 C2850 1.378 . S
C2843 C2842 1.367 . S
C2843 C2851 1.433 . S
C2844 H2840 0.929 . S
C2844 C2846 1.378 . S
C2844 C2848 1.350 . S
C2845 C2848 1.463 . S
C2845 C2850 1.350 . S
C2845 N2853 1.427 . S
C2846 H2837 0.930 . S
C2846 C2844 1.378 . S
C2846 C2847 1.367 . S
C2847 C2846 1.367 . S
C2847 C2849 1.433 . S
C2848 C2844 1.350 . S
C2848 C2845 1.463 . S
C2848 N2852 1.427 . S
C2849 H2839 0.929 . S
C2849 C2847 1.433 . S
C2849 N2852 1.384 . S
C2850 H2841 0.929 . S
C2850 C2842 1.378 . S
C2850 C2845 1.350 . S
C2851 H2838 0.929 . S
C2851 C2843 1.433 . S
C2851 N2853 1.384 . S
N2852 C2848 1.427 . S
N2852 C2849 1.384 . S
N2853 C2845 1.427 . S
N2853 C2851 1.384 . S
H2854 C2860 0.930 . S
H2855 C2864 0.930 . S
H2856 C2869 0.929 . S
H2857 C2867 0.929 . S
H2858 C2862 0.929 . S
H2859 C2868 0.929 . S
C2860 H2854 0.930 . S
C2860 C2861 1.367 . S
C2860 C2868 1.378 . S
C2861 C2860 1.367 . S
C2861 C2869 1.433 . S
C2862 H2858 0.929 . S
C2862 C2864 1.378 . S
C2862 C2866 1.350 . S
C2863 C2866 1.463 . S
C2863 C2868 1.350 . S
C2863 N2871 1.427 . S
C2864 H2855 0.930 . S
C2864 C2862 1.378 . S
C2864 C2865 1.367 . S
C2865 C2864 1.367 . S
C2865 C2867 1.433 . S
C2866 C2862 1.350 . S
C2866 C2863 1.463 . S
C2866 N2870 1.427 . S
C2867 H2857 0.929 . S
C2867 C2865 1.433 . S
C2867 N2870 1.384 . S
C2868 H2859 0.929 . S
C2868 C2860 1.378 . S
C2868 C2863 1.350 . S
C2869 H2856 0.929 . S
C2869 C2861 1.433 . S
C2869 N2871 1.384 . S
N2870 C2866 1.427 . S
N2870 C2867 1.384 . S
N2871 C2863 1.427 . S
N2871 C2869 1.384 . S
H2872 C2878 0.930 . S
H2873 C2882 0.896 1_554 S
H2874 C2887 0.929 . S
H2875 C2885 0.929 . S
H2876 C2880 0.929 . S
H2877 C2886 0.929 . S
C2878 H2872 0.930 . S
C2878 C2879 1.367 . S
C2878 C2886 1.378 . S
C2879 C2878 1.367 . S
C2879 C2887 1.433 . S
C2880 H2876 0.929 . S
C2880 C2882 1.378 . S
C2880 C2884 1.350 . S
C2881 C2884 1.463 . S
C2881 C2886 1.350 . S
C2881 N2889 1.427 . S
C2882 H2873 0.896 1_556 S
C2882 C2880 1.378 . S
C2882 C2883 1.367 . S
C2883 C2882 1.367 . S
C2883 C2885 1.433 . S
C2884 C2880 1.350 . S
C2884 C2881 1.463 . S
C2884 N2888 1.427 . S
C2885 H2875 0.929 . S
C2885 C2883 1.433 . S
C2885 N2888 1.384 . S
C2886 H2877 0.929 . S
C2886 C2878 1.378 . S
C2886 C2881 1.350 . S
C2887 H2874 0.929 . S
C2887 C2879 1.433 . S
C2887 N2889 1.384 . S
N2888 C2884 1.427 . S
N2888 C2885 1.384 . S
N2889 C2881 1.427 . S
N2889 C2887 1.384 . S
H2890 C2896 0.930 . S
H2891 C2900 0.930 . S
H2892 C2905 0.929 . S
H2893 C2903 0.929 . S
H2894 C2898 0.929 . S
H2895 C2904 0.929 . S
C2896 H2890 0.930 . S
C2896 C2897 1.367 . S
C2896 C2904 1.378 . S
C2897 C2896 1.367 . S
C2897 C2905 1.433 . S
C2898 H2894 0.929 . S
C2898 C2900 1.378 . S
C2898 C2902 1.350 . S
C2899 C2902 1.463 . S
C2899 C2904 1.350 . S
C2899 N2907 1.427 . S
C2900 H2891 0.930 . S
C2900 C2898 1.378 . S
C2900 C2901 1.367 . S
C2901 C2900 1.367 . S
C2901 C2903 1.433 . S
C2902 C2898 1.350 . S
C2902 C2899 1.463 . S
C2902 N2906 1.427 . S
C2903 H2893 0.929 . S
C2903 C2901 1.433 . S
C2903 N2906 1.384 . S
C2904 H2895 0.929 . S
C2904 C2896 1.378 . S
C2904 C2899 1.350 . S
C2905 H2892 0.929 . S
C2905 C2897 1.433 . S
C2905 N2907 1.384 . S
N2906 C2902 1.427 . S
N2906 C2903 1.384 . S
N2907 C2899 1.427 . S
N2907 C2905 1.384 . S
H2908 C2914 0.930 . S
H2909 C2918 0.930 . S
H2910 C2923 0.929 . S
H2911 C2921 0.929 . S
H2912 C2916 0.929 . S
H2913 C2922 0.929 . S
C2914 H2908 0.930 . S
C2914 C2915 1.367 . S
C2914 C2922 1.378 . S
C2915 C2914 1.367 . S
C2915 C2923 1.433 . S
C2916 H2912 0.929 . S
C2916 C2918 1.378 . S
C2916 C2920 1.350 . S
C2917 C2920 1.463 . S
C2917 C2922 1.350 . S
C2917 N2925 1.427 . S
C2918 H2909 0.930 . S
C2918 C2916 1.378 . S
C2918 C2919 1.367 . S
C2919 C2918 1.367 . S
C2919 C2921 1.433 . S
C2920 C2916 1.350 . S
C2920 C2917 1.463 . S
C2920 N2924 1.427 . S
C2921 H2911 0.929 . S
C2921 C2919 1.433 . S
C2921 N2924 1.384 . S
C2922 H2913 0.929 . S
C2922 C2914 1.378 . S
C2922 C2917 1.350 . S
C2923 H2910 0.929 . S
C2923 C2915 1.433 . S
C2923 N2925 1.384 . S
N2924 C2920 1.427 . S
N2924 C2921 1.384 . S
N2925 C2917 1.427 . S
N2925 C2923 1.384 . S
H2926 C2932 0.930 . S
H2927 C2936 0.930 . S
H2928 C2941 0.929 . S
H2929 C2939 0.929 . S
H2930 C2934 0.929 . S
H2931 C2940 0.929 . S
C2932 H2926 0.930 . S
C2932 C2933 1.367 . S
C2932 C2940 1.378 . S
C2933 C2932 1.367 . S
C2933 C2941 1.433 . S
C2934 H2930 0.929 . S
C2934 C2936 1.378 . S
C2934 C2938 1.350 . S
C2935 C2938 1.463 . S
C2935 C2940 1.350 . S
C2935 N2943 1.427 . S
C2936 H2927 0.930 . S
C2936 C2934 1.378 . S
C2936 C2937 1.367 . S
C2937 C2936 1.367 . S
C2937 C2939 1.433 . S
C2938 C2934 1.350 . S
C2938 C2935 1.463 . S
C2938 N2942 1.427 . S
C2939 H2929 0.929 . S
C2939 C2937 1.433 . S
C2939 N2942 1.384 . S
C2940 H2931 0.929 . S
C2940 C2932 1.378 . S
C2940 C2935 1.350 . S
C2941 H2928 0.929 . S
C2941 C2933 1.433 . S
C2941 N2943 1.384 . S
N2942 C2938 1.427 . S
N2942 C2939 1.384 . S
N2943 C2935 1.427 . S
N2943 C2941 1.384 . S
H2944 C2950 0.930 . S
H2945 C2954 0.930 . S
H2946 C2959 0.929 . S
H2947 C2957 0.929 . S
H2948 C2952 0.929 . S
H2949 C2958 0.929 . S
C2950 H2944 0.930 . S
C2950 C2951 1.367 . S
C2950 C2958 1.378 . S
C2951 C2950 1.367 . S
C2951 C2959 1.433 . S
C2952 H2948 0.929 . S
C2952 C2954 1.378 . S
C2952 C2956 1.350 . S
C2953 C2956 1.463 . S
C2953 C2958 1.350 . S
C2953 N2961 1.427 . S
C2954 H2945 0.930 . S
C2954 C2952 1.378 . S
C2954 C2955 1.367 . S
C2955 C2954 1.367 . S
C2955 C2957 1.433 . S
C2956 C2952 1.350 . S
C2956 C2953 1.463 . S
C2956 N2960 1.427 . S
C2957 H2947 0.929 . S
C2957 C2955 1.433 . S
C2957 N2960 1.384 . S
C2958 H2949 0.929 . S
C2958 C2950 1.378 . S
C2958 C2953 1.350 . S
C2959 H2946 0.929 . S
C2959 C2951 1.433 . S
C2959 N2961 1.384 . S
N2960 C2956 1.427 . S
N2960 C2957 1.384 . S
N2961 C2953 1.427 . S
N2961 C2959 1.384 . S
H2962 C2968 0.930 . S
H2963 C2972 0.930 . S
H2964 C2977 0.929 . S
H2965 C2975 0.929 . S
H2966 C2970 0.929 . S
H2967 C2976 0.929 . S
C2968 H2962 0.930 . S
C2968 C2969 1.367 . S
C2968 C2976 1.378 . S
C2969 C2968 1.367 . S
C2969 C2977 1.433 . S
C2970 H2966 0.929 . S
C2970 C2972 1.378 . S
C2970 C2974 1.350 . S
C2971 C2974 1.463 . S
C2971 C2976 1.350 . S
C2971 N2979 1.427 . S
C2972 H2963 0.930 . S
C2972 C2970 1.378 . S
C2972 C2973 1.367 . S
C2973 C2972 1.367 . S
C2973 C2975 1.433 . S
C2974 C2970 1.350 . S
C2974 C2971 1.463 . S
C2974 N2978 1.427 . S
C2975 H2965 0.929 . S
C2975 C2973 1.433 . S
C2975 N2978 1.384 . S
C2976 H2967 0.929 . S
C2976 C2968 1.378 . S
C2976 C2971 1.350 . S
C2977 H2964 0.929 . S
C2977 C2969 1.433 . S
C2977 N2979 1.384 . S
N2978 C2974 1.427 . S
N2978 C2975 1.384 . S
N2979 C2971 1.427 . S
N2979 C2977 1.384 . S
H2980 C2986 0.930 . S
H2981 C2990 0.930 . S
H2982 C2995 0.929 . S
H2983 C2993 0.929 . S
H2984 C2988 0.929 . S
H2985 C2994 0.929 . S
C2986 H2980 0.930 . S
C2986 C2987 1.367 . S
C2986 C2994 1.378 . S
C2987 C2986 1.367 . S
C2987 C2995 1.433 . S
C2988 H2984 0.929 . S
C2988 C2990 1.378 . S
C2988 C2992 1.350 . S
C2989 C2992 1.463 . S
C2989 C2994 1.350 . S
C2989 N2997 1.427 . S
C2990 H2981 0.930 . S
C2990 C2988 1.378 . S
C2990 C2991 1.367 . S
C2991 C2990 1.367 . S
C2991 C2993 1.433 . S
C2992 C2988 1.350 . S
C2992 C2989 1.463 . S
C2992 N2996 1.427 . S
C2993 H2983 0.929 . S
C2993 C2991 1.433 . S
C2993 N2996 1.384 . S
C2994 H2985 0.929 . S
C2994 C2986 1.378 . S
C2994 C2989 1.350 . S
C2995 H2982 0.929 . S
C2995 C2987 1.433 . S
C2995 N2997 1.384 . S
N2996 C2992 1.427 . S
N2996 C2993 1.384 . S
N2997 C2989 1.427 . S
N2997 C2995 1.384 . S
H2998 C3004 0.930 . S
H2999 C3008 0.930 . S
H3000 C3013 0.929 . S
H3001 C3011 0.929 . S
H3002 C3006 0.929 . S
H3003 C3012 0.929 . S
C3004 H2998 0.930 . S
C3004 C3005 1.367 . S
C3004 C3012 1.378 . S
C3005 C3004 1.367 . S
C3005 C3013 1.433 . S
C3006 H3002 0.929 . S
C3006 C3008 1.378 . S
C3006 C3010 1.350 . S
C3007 C3010 1.463 . S
C3007 C3012 1.350 . S
C3007 N3015 1.427 . S
C3008 H2999 0.930 . S
C3008 C3006 1.378 . S
C3008 C3009 1.367 . S
C3009 C3008 1.367 . S
C3009 C3011 1.433 . S
C3010 C3006 1.350 . S
C3010 C3007 1.463 . S
C3010 N3014 1.427 . S
C3011 H3001 0.929 . S
C3011 C3009 1.433 . S
C3011 N3014 1.384 . S
C3012 H3003 0.929 . S
C3012 C3004 1.378 . S
C3012 C3007 1.350 . S
C3013 H3000 0.929 . S
C3013 C3005 1.433 . S
C3013 N3015 1.384 . S
N3014 C3010 1.427 . S
N3014 C3011 1.384 . S
N3015 C3007 1.427 . S
N3015 C3013 1.384 . S
H3016 C3022 0.930 . S
H3017 C3026 0.930 . S
H3018 C3031 0.929 . S
H3019 C3029 0.929 . S
H3020 C3024 0.929 . S
H3021 C3030 0.929 . S
C3022 H3016 0.930 . S
C3022 C3023 1.367 . S
C3022 C3030 1.378 . S
C3023 C3022 1.367 . S
C3023 C3031 1.433 . S
C3024 H3020 0.929 . S
C3024 C3026 1.378 . S
C3024 C3028 1.350 . S
C3025 C3028 1.463 . S
C3025 C3030 1.350 . S
C3025 N3033 1.427 . S
C3026 H3017 0.930 . S
C3026 C3024 1.378 . S
C3026 C3027 1.367 . S
C3027 C3026 1.367 . S
C3027 C3029 1.433 . S
C3028 C3024 1.350 . S
C3028 C3025 1.463 . S
C3028 N3032 1.427 . S
C3029 H3019 0.929 . S
C3029 C3027 1.433 . S
C3029 N3032 1.384 . S
C3030 H3021 0.929 . S
C3030 C3022 1.378 . S
C3030 C3025 1.350 . S
C3031 H3018 0.929 . S
C3031 C3023 1.433 . S
C3031 N3033 1.384 . S
N3032 C3028 1.427 . S
N3032 C3029 1.384 . S
N3033 C3025 1.427 . S
N3033 C3031 1.384 . S
H3034 C3040 0.930 . S
H3035 C3044 0.930 . S
H3036 C3049 0.929 . S
H3037 C3047 0.929 . S
H3038 C3042 0.929 . S
H3039 C3048 0.929 . S
C3040 H3034 0.930 . S
C3040 C3041 1.367 . S
C3040 C3048 1.378 . S
C3041 C3040 1.367 . S
C3041 C3049 1.433 . S
C3042 H3038 0.929 . S
C3042 C3044 1.378 . S
C3042 C3046 1.350 . S
C3043 C3046 1.463 . S
C3043 C3048 1.350 . S
C3043 N3051 1.427 . S
C3044 H3035 0.930 . S
C3044 C3042 1.378 . S
C3044 C3045 1.367 . S
C3045 C3044 1.367 . S
C3045 C3047 1.433 . S
C3046 C3042 1.350 . S
C3046 C3043 1.463 . S
C3046 N3050 1.427 . S
C3047 H3037 0.929 . S
C3047 C3045 1.433 . S
C3047 N3050 1.384 . S
C3048 H3039 0.929 . S
C3048 C3040 1.378 . S
C3048 C3043 1.350 . S
C3049 H3036 0.929 . S
C3049 C3041 1.433 . S
C3049 N3051 1.384 . S
N3050 C3046 1.427 . S
N3050 C3047 1.384 . S
N3051 C3043 1.427 . S
N3051 C3049 1.384 . S
H3052 C3058 0.930 1_655 S
H3053 C3062 0.930 . S
H3054 C3067 0.929 . S
H3055 C3065 0.962 . S
H3056 C3060 0.929 . S
H3057 C3066 0.929 1_655 S
C3058 H3052 0.930 1_455 S
C3058 C3059 1.367 . S
C3058 C3066 1.378 . S
C3059 C3058 1.367 . S
C3059 C3067 1.433 . S
C3060 H3056 0.929 . S
C3060 C3062 1.378 . S
C3060 C3064 1.350 . S
C3061 C3064 1.463 . S
C3061 C3066 1.350 . S
C3061 N3069 1.427 . S
C3062 H3053 0.930 . S
C3062 C3060 1.378 . S
C3062 C3063 1.367 . S
C3063 C3062 1.367 . S
C3063 C3065 1.390 1_455 S
C3064 C3060 1.350 . S
C3064 C3061 1.463 . S
C3064 N3068 1.430 1_455 S
C3065 H3055 0.962 . S
C3065 C3063 1.390 1_655 S
C3065 N3068 1.395 . S
C3066 H3057 0.929 1_455 S
C3066 C3058 1.378 . S
C3066 C3061 1.350 . S
C3067 H3054 0.929 . S
C3067 C3059 1.433 . S
C3067 N3069 1.384 . S
N3068 C3064 1.430 1_655 S
N3068 C3065 1.395 . S
N3069 C3061 1.427 . S
N3069 C3067 1.384 . S
H3070 C3076 0.930 . S
H3071 C3080 0.930 . S
H3072 C3085 0.929 . S
H3073 C3083 0.929 . S
H3074 C3078 0.929 . S
H3075 C3084 0.929 . S
C3076 H3070 0.930 . S
C3076 C3077 1.367 . S
C3076 C3084 1.378 . S
C3077 C3076 1.367 . S
C3077 C3085 1.433 . S
C3078 H3074 0.929 . S
C3078 C3080 1.378 . S
C3078 C3082 1.350 . S
C3079 C3082 1.463 . S
C3079 C3084 1.350 . S
C3079 N3087 1.427 . S
C3080 H3071 0.930 . S
C3080 C3078 1.378 . S
C3080 C3081 1.367 . S
C3081 C3080 1.367 . S
C3081 C3083 1.433 . S
C3082 C3078 1.350 . S
C3082 C3079 1.463 . S
C3082 N3086 1.427 . S
C3083 H3073 0.929 . S
C3083 C3081 1.433 . S
C3083 N3086 1.384 . S
C3084 H3075 0.929 . S
C3084 C3076 1.378 . S
C3084 C3079 1.350 . S
C3085 H3072 0.929 . S
C3085 C3077 1.433 . S
C3085 N3087 1.384 . S
N3086 C3082 1.427 . S
N3086 C3083 1.384 . S
N3087 C3079 1.427 . S
N3087 C3085 1.384 . S
H3088 C3094 0.930 . S
H3089 C3098 0.930 . S
H3090 C3103 0.929 . S
H3091 C3101 0.929 . S
H3092 C3096 0.929 . S
H3093 C3102 0.929 . S
C3094 H3088 0.930 . S
C3094 C3095 1.367 . S
C3094 C3102 1.378 . S
C3095 C3094 1.367 . S
C3095 C3103 1.433 . S
C3096 H3092 0.929 . S
C3096 C3098 1.378 . S
C3096 C3100 1.350 . S
C3097 C3100 1.463 . S
C3097 C3102 1.350 . S
C3097 N3105 1.427 . S
C3098 H3089 0.930 . S
C3098 C3096 1.378 . S
C3098 C3099 1.367 . S
C3099 C3098 1.367 . S
C3099 C3101 1.433 . S
C3100 C3096 1.350 . S
C3100 C3097 1.463 . S
C3100 N3104 1.427 . S
C3101 H3091 0.929 . S
C3101 C3099 1.433 . S
C3101 N3104 1.384 . S
C3102 H3093 0.929 . S
C3102 C3094 1.378 . S
C3102 C3097 1.350 . S
C3103 H3090 0.929 . S
C3103 C3095 1.433 . S
C3103 N3105 1.384 . S
N3104 C3100 1.427 . S
N3104 C3101 1.384 . S
N3105 C3097 1.427 . S
N3105 C3103 1.384 . S
H3106 C3112 0.930 . S
H3107 C3116 0.930 . S
H3108 C3121 0.929 . S
H3109 C3119 0.929 . S
H3110 C3114 0.929 . S
H3111 C3120 0.929 . S
C3112 H3106 0.930 . S
C3112 C3113 1.367 . S
C3112 C3120 1.378 . S
C3113 C3112 1.367 . S
C3113 C3121 1.433 . S
C3114 H3110 0.929 . S
C3114 C3116 1.378 . S
C3114 C3118 1.350 . S
C3115 C3118 1.463 . S
C3115 C3120 1.350 . S
C3115 N3123 1.427 . S
C3116 H3107 0.930 . S
C3116 C3114 1.378 . S
C3116 C3117 1.367 1_565 S
C3117 C3116 1.367 1_545 S
C3117 C3119 1.433 . S
C3118 C3114 1.350 . S
C3118 C3115 1.463 . S
C3118 N3122 1.427 . S
C3119 H3109 0.929 . S
C3119 C3117 1.433 . S
C3119 N3122 1.384 1_545 S
C3120 H3111 0.929 . S
C3120 C3112 1.378 . S
C3120 C3115 1.350 . S
C3121 H3108 0.929 . S
C3121 C3113 1.433 . S
C3121 N3123 1.384 . S
N3122 C3118 1.427 . S
N3122 C3119 1.384 1_565 S
N3123 C3115 1.427 . S
N3123 C3121 1.384 . S
H3124 C3130 0.930 . S
H3125 C3134 0.930 . S
H3126 C3139 0.929 . S
H3127 C3137 0.929 . S
H3128 C3132 0.929 . S
H3129 C3138 0.929 . S
C3130 H3124 0.930 . S
C3130 C3131 1.367 . S
C3130 C3138 1.378 . S
C3131 C3130 1.367 . S
C3131 C3139 1.433 . S
C3132 H3128 0.929 . S
C3132 C3134 1.378 . S
C3132 C3136 1.350 . S
C3133 C3136 1.463 . S
C3133 C3138 1.350 . S
C3133 N3141 1.427 . S
C3134 H3125 0.930 . S
C3134 C3132 1.378 . S
C3134 C3135 1.367 . S
C3135 C3134 1.367 . S
C3135 C3137 1.433 . S
C3136 C3132 1.350 . S
C3136 C3133 1.463 . S
C3136 N3140 1.427 . S
C3137 H3127 0.929 . S
C3137 C3135 1.433 . S
C3137 N3140 1.384 . S
C3138 H3129 0.929 . S
C3138 C3130 1.378 . S
C3138 C3133 1.350 . S
C3139 H3126 0.929 . S
C3139 C3131 1.433 . S
C3139 N3141 1.384 . S
N3140 C3136 1.427 . S
N3140 C3137 1.384 . S
N3141 C3133 1.427 . S
N3141 C3139 1.384 . S
H3142 C3148 0.930 . S
H3143 C3152 0.930 . S
H3144 C3157 0.929 . S
H3145 C3155 0.929 . S
H3146 C3150 0.929 . S
H3147 C3156 0.929 . S
C3148 H3142 0.930 . S
C3148 C3149 1.367 . S
C3148 C3156 1.378 . S
C3149 C3148 1.367 . S
C3149 C3157 1.433 1_556 S
C3150 H3146 0.929 . S
C3150 C3152 1.378 . S
C3150 C3154 1.350 . S
C3151 C3154 1.463 . S
C3151 C3156 1.350 1_554 S
C3151 N3159 1.427 . S
C3152 H3143 0.930 . S
C3152 C3150 1.378 . S
C3152 C3153 1.367 . S
C3153 C3152 1.367 . S
C3153 C3155 1.433 . S
C3154 C3150 1.350 . S
C3154 C3151 1.463 . S
C3154 N3158 1.427 . S
C3155 H3145 0.929 . S
C3155 C3153 1.433 . S
C3155 N3158 1.384 . S
C3156 H3147 0.929 . S
C3156 C3148 1.378 . S
C3156 C3151 1.350 1_556 S
C3157 H3144 0.929 . S
C3157 C3149 1.433 1_554 S
C3157 N3159 1.384 . S
N3158 C3154 1.427 . S
N3158 C3155 1.384 . S
N3159 C3151 1.427 . S
N3159 C3157 1.384 . S
H3160 C3166 0.930 . S
H3161 C3170 0.930 . S
H3162 C3175 0.929 . S
H3163 C3173 0.929 . S
H3164 C3168 0.929 . S
H3165 C3174 0.929 . S
C3166 H3160 0.930 . S
C3166 C3167 1.367 . S
C3166 C3174 1.378 . S
C3167 C3166 1.367 . S
C3167 C3175 1.433 . S
C3168 H3164 0.929 . S
C3168 C3170 1.378 . S
C3168 C3172 1.350 . S
C3169 C3172 1.463 . S
C3169 C3174 1.350 . S
C3169 N3177 1.427 . S
C3170 H3161 0.930 . S
C3170 C3168 1.378 . S
C3170 C3171 1.367 . S
C3171 C3170 1.367 . S
C3171 C3173 1.433 . S
C3172 C3168 1.350 . S
C3172 C3169 1.463 . S
C3172 N3176 1.427 . S
C3173 H3163 0.929 . S
C3173 C3171 1.433 . S
C3173 N3176 1.384 . S
C3174 H3165 0.929 . S
C3174 C3166 1.378 . S
C3174 C3169 1.350 . S
C3175 H3162 0.929 . S
C3175 C3167 1.433 . S
C3175 N3177 1.384 . S
N3176 C3172 1.427 . S
N3176 C3173 1.384 . S
N3177 C3169 1.427 . S
N3177 C3175 1.384 . S
H3178 C3184 0.930 . S
H3179 C3188 0.930 . S
H3180 C3193 0.929 . S
H3181 C3191 0.929 1_556 S
H3182 C3186 0.929 . S
H3183 C3192 0.918 1_556 S
C3184 H3178 0.930 . S
C3184 C3185 1.367 . S
C3184 C3192 1.378 . S
C3185 C3184 1.367 . S
C3185 C3193 1.433 . S
C3186 H3182 0.929 . S
C3186 C3188 1.378 . S
C3186 C3190 1.350 . S
C3187 C3190 1.463 . S
C3187 C3192 1.350 . S
C3187 N3195 1.427 . S
C3188 H3179 0.930 . S
C3188 C3186 1.378 . S
C3188 C3189 1.367 . S
C3189 C3188 1.367 . S
C3189 C3191 1.433 . S
C3190 C3186 1.350 . S
C3190 C3187 1.463 . S
C3190 N3194 1.427 . S
C3191 H3181 0.929 1_554 S
C3191 C3189 1.433 . S
C3191 N3194 1.384 . S
C3192 H3183 0.918 1_554 S
C3192 C3184 1.378 . S
C3192 C3187 1.350 . S
C3193 H3180 0.929 . S
C3193 C3185 1.433 . S
C3193 N3195 1.384 . S
N3194 C3190 1.427 . S
N3194 C3191 1.384 . S
N3195 C3187 1.427 . S
N3195 C3193 1.384 . S
H3196 C3202 0.930 . S
H3197 C3206 0.930 . S
H3198 C3211 0.929 . S
H3199 C3209 0.929 . S
H3200 C3204 0.929 . S
H3201 C3210 0.929 . S
C3202 H3196 0.930 . S
C3202 C3203 1.367 . S
C3202 C3210 1.378 . S
C3203 C3202 1.367 . S
C3203 C3211 1.433 . S
C3204 H3200 0.929 . S
C3204 C3206 1.378 . S
C3204 C3208 1.350 . S
C3205 C3208 1.463 . S
C3205 C3210 1.350 . S
C3205 N3213 1.427 . S
C3206 H3197 0.930 . S
C3206 C3204 1.378 . S
C3206 C3207 1.367 . S
C3207 C3206 1.367 . S
C3207 C3209 1.433 . S
C3208 C3204 1.350 . S
C3208 C3205 1.463 . S
C3208 N3212 1.427 . S
C3209 H3199 0.929 . S
C3209 C3207 1.433 . S
C3209 N3212 1.384 . S
C3210 H3201 0.929 . S
C3210 C3202 1.378 . S
C3210 C3205 1.350 . S
C3211 H3198 0.929 . S
C3211 C3203 1.433 . S
C3211 N3213 1.384 . S
N3212 C3208 1.427 . S
N3212 C3209 1.384 . S
N3213 C3205 1.427 . S
N3213 C3211 1.384 . S
H3214 C3220 0.930 . S
H3215 C3224 0.930 . S
H3216 C3229 0.929 . S
H3217 C3227 0.929 . S
H3218 C3222 0.929 . S
H3219 C3228 0.929 . S
C3220 H3214 0.930 . S
C3220 C3221 1.367 . S
C3220 C3228 1.378 . S
C3221 C3220 1.367 . S
C3221 C3229 1.433 . S
C3222 H3218 0.929 . S
C3222 C3224 1.378 . S
C3222 C3226 1.350 . S
C3223 C3226 1.463 . S
C3223 C3228 1.350 . S
C3223 N3231 1.427 . S
C3224 H3215 0.930 . S
C3224 C3222 1.378 . S
C3224 C3225 1.367 . S
C3225 C3224 1.367 . S
C3225 C3227 1.433 . S
C3226 C3222 1.350 . S
C3226 C3223 1.463 . S
C3226 N3230 1.427 . S
C3227 H3217 0.929 . S
C3227 C3225 1.433 . S
C3227 N3230 1.384 . S
C3228 H3219 0.929 . S
C3228 C3220 1.378 . S
C3228 C3223 1.350 . S
C3229 H3216 0.929 . S
C3229 C3221 1.433 . S
C3229 N3231 1.384 . S
N3230 C3226 1.427 . S
N3230 C3227 1.384 . S
N3231 C3223 1.427 . S
N3231 C3229 1.384 . S
C1511 C255 1.743 . S
C1515 C886 1.745 1_556 S
C1529 C147 1.181 . S
C1533 C906 1.163 . S
C1547 C184 0.677 . S
C1551 C953 0.669 . S
C1569 C1010 1.071 . S
C1565 C220 1.072 . S
C1583 C40 2.545 . S
C1587 C1027 2.577 . S
C1605 C1086 1.841 . S
C1601 C74 1.835 . S
C1623 C1119 2.723 . S
C1619 C110 2.714 . S
C1637 C14 2.396 . S
C1641 C1166 2.417 . S
C1659 C879 1.549 . S
C1655 C579 1.526 . S
C1673 C616 1.540 . S
C1677 C907 1.537 . S
C1695 C946 0.556 . S
C1691 C687 0.535 . S
C1713 C1006 2.197 . S
C1709 C436 2.173 . S
C1727 C580 0.417 . S
C1731 C1033 0.458 1_655 S
C1749 C1079 2.339 . S
C1745 C615 2.351 . S
C1767 C1130 0.552 . S
C1763 C688 0.563 . S
C1785 C1159 2.343 . S
C1781 C435 2.344 . S
C1803 C890 1.686 . S
C1799 C410 1.698 . S
C1817 C722 2.247 . S
C1821 C1186 2.226 . S
C1839 C1250 1.317 . S
C1835 C842 1.365 . S
C1857 C1286 1.399 1_655 S
C1853 C794 1.416 . S
C1871 C302 1.385 . S
C1875 C1170 1.382 . S
C1889 C338 2.542 . S
C1893 C947 2.604 . S
C1907 C830 1.467 . S
C1911 C1319 1.496 . S
C1929 C1353 0.445 . S
C1925 C758 0.383 . S
C1947 C867 1.749 . S
C1943 C158 1.624 . S
C1965 C1359 1.105 . S
C1961 C254 1.122 . S
C1979 C218 0.683 . S
C1983 C970 0.672 . S
C1997 C194 0.982 . S
C2001 C1313 1.042 . S
C2019 C1046 2.498 . S
C2015 C3 2.507 . S
C2033 C111 1.750 . S
C2037 C1227 1.734 . S
C2055 C1106 2.626 1_556 S
C2051 C76 2.620 . S
C2073 C1387 2.499 . S
C2069 C50 2.437 1_655 S
C2091 C866 1.568 . S
C2087 C364 1.572 . S
C2109 C1366 1.417 . S
C2105 C795 1.434 . S
C2123 C292 0.548 . S
C2127 C959 0.518 . S
C2141 C723 2.118 . S
C2145 C1307 2.122 . S
C2159 C363 0.393 . S
C2163 C1050 0.405 . S
C2181 C1226 2.310 . S
C2177 C796 2.307 . S
C2195 C291 0.445 . S
C2199 C1113 0.524 . S
C2213 C724 2.325 . S
C2217 C1386 2.319 . S
C2231 C482 1.696 . S
C2235 C873 1.789 . S
C2249 C434 2.239 . S
C2253 C1199 2.221 . S
C2267 C662 1.201 . S
C2271 C1073 1.304 . S
C2285 C614 1.415 . S
C2289 C1267 1.407 . S
C2307 C1393 1.347 . S
C2303 C698 1.208 . S
C2321 C554 2.528 . S
C2325 C966 2.601 1_565 S
C2343 C986 1.418 . S
C2339 C650 1.386 . S
C2361 C930 0.418 . S
C2357 C506 0.359 . S
C2375 C183 1.732 . S
C2379 C1446 1.738 . S
C2397 C1346 1.173 . S
C2393 C219 1.188 . S
C2411 C256 0.676 . S
C2415 C1473 0.669 . S
C2429 C148 1.071 . S
C2433 C1330 1.069 . S
C2447 C122 2.568 . S
C2451 C1187 2.610 . S
C2469 C1246 1.781 . S
C2465 C2 1.772 1_655 S
C2487 C1279 2.589 . S
C2483 C39 2.591 . S
C2505 C1406 2.476 . S
C2501 C86 2.458 . S
C2523 C1439 1.571 . S
C2519 C651 1.541 . S
C2537 C472 1.532 . S
C2541 C1347 1.530 . S
C2559 C1466 0.581 . S
C2555 C507 0.553 . S
C2577 C1326 2.201 . S
C2573 C544 2.172 . S
C2595 C1193 0.436 . S
C2591 C652 0.417 . S
C2609 C471 2.337 . S
C2613 C1239 2.325 . S
C2631 C1290 0.580 . S
C2627 C508 0.587 . S
C2645 C543 2.357 . S
C2649 C1399 2.359 . S
C2667 C1450 1.712 . S
C2663 C806 1.712 . S
C2681 C326 2.231 . S
C2685 C1026 2.215 . S
C2703 C1090 1.300 . S
C2699 C374 1.351 . S
C2721 C1126 1.418 . S
C2717 C398 1.439 . S
C2739 C1410 1.355 . S
C2735 C770 1.366 . S
C2753 C734 2.532 . S
C2757 C1467 2.596 1_655 S
C2775 C999 1.484 . S
C2771 C362 1.449 . S
C2793 C913 0.416 . S
C2789 C290 0.373 . S
C2807 C230 1.617 . S
C2811 C1427 1.746 . S
C2829 C919 1.128 . S
C2825 C182 1.134 . S
C2843 C146 0.675 . S
C2847 C1490 0.681 . S
C2861 C266 1.006 . S
C2865 C993 1.048 . S
C2879 C75 2.562 . S
C2883 C1206 2.551 1_556 S
C2901 C1067 1.860 . S
C2897 C38 1.859 . S
C2915 C4 2.567 . S
C2919 C1266 2.574 . S
C2933 C112 2.450 . S
C2937 C1147 2.412 . S
C2955 C1426 1.559 . S
C2951 C832 1.566 . S
C2969 C399 1.446 . S
C2973 C926 1.429 . S
C2991 C1479 0.537 . S
C2987 C760 0.550 . S
C3005 C327 2.116 . S
C3009 C987 2.121 . S
C3023 C831 0.425 . S
C3027 C1210 0.448 . S
C3045 C1066 2.305 . S
C3041 C400 2.301 1_556 S
C3059 C759 0.467 . S
C3063 C1273 0.544 . S
C3081 C1146 2.325 . S
C3077 C328 2.328 . S
C3099 C1433 1.796 . S
C3095 C626 1.702 . S
C3117 C1039 2.223 1_655 S
C3113 C542 2.242 . S
C3131 C590 1.168 . S
C3135 C1233 1.275 . S
C3153 C1107 1.394 . S
C3149 C470 1.412 . S
C3167 C518 1.185 . S
C3171 C1153 1.327 . S
C3185 C446 2.520 . S
C3189 C1486 2.590 . S
C3207 C1306 1.419 . S
C3203 C578 1.382 . S
C3225 C1370 0.404 . S
C3221 C686 0.339 . S
