# Generated by pormake.
# Topology ctn, (3,4)-cn, num edge types: 1
# Building blocks:
#     Node 0, Type 0, BuildingBlock: WUSLED_clean_sbu_0, # of connection points: 3
#     Node 1, Type 0, BuildingBlock: WUSLED_clean_sbu_0, # of connection points: 3
#     Node 2, Type 0, BuildingBlock: WUSLED_clean_sbu_0, # of connection points: 3
#     Node 3, Type 0, BuildingBlock: WUSLED_clean_sbu_0, # of connection points: 3
#     Node 4, Type 0, BuildingBlock: WUSLED_clean_sbu_0, # of connection points: 3
#     Node 5, Type 0, BuildingBlock: WUSLED_clean_sbu_0, # of connection points: 3
#     Node 6, Type 0, BuildingBlock: WUSLED_clean_sbu_0, # of connection points: 3
#     Node 7, Type 0, BuildingBlock: WUSLED_clean_sbu_0, # of connection points: 3
#     Node 8, Type 0, BuildingBlock: WUSLED_clean_sbu_0, # of connection points: 3
#     Node 9, Type 0, BuildingBlock: WUSLED_clean_sbu_0, # of connection points: 3
#     Node 10, Type 0, BuildingBlock: WUSLED_clean_sbu_0, # of connection points: 3
#     Node 11, Type 0, BuildingBlock: WUSLED_clean_sbu_0, # of connection points: 3
#     Node 12, Type 0, BuildingBlock: WUSLED_clean_sbu_0, # of connection points: 3
#     Node 13, Type 0, BuildingBlock: WUSLED_clean_sbu_0, # of connection points: 3
#     Node 14, Type 0, BuildingBlock: WUSLED_clean_sbu_0, # of connection points: 3
#     Node 15, Type 0, BuildingBlock: WUSLED_clean_sbu_0, # of connection points: 3
#     Node 16, Type 1, BuildingBlock: AZAVOO_clean_sbu_0, # of connection points: 4
#     Node 17, Type 1, BuildingBlock: AZAVOO_clean_sbu_0, # of connection points: 4
#     Node 18, Type 1, BuildingBlock: AZAVOO_clean_sbu_0, # of connection points: 4
#     Node 19, Type 1, BuildingBlock: AZAVOO_clean_sbu_0, # of connection points: 4
#     Node 20, Type 1, BuildingBlock: AZAVOO_clean_sbu_0, # of connection points: 4
#     Node 21, Type 1, BuildingBlock: AZAVOO_clean_sbu_0, # of connection points: 4
#     Node 22, Type 1, BuildingBlock: AZAVOO_clean_sbu_0, # of connection points: 4
#     Node 23, Type 1, BuildingBlock: AZAVOO_clean_sbu_0, # of connection points: 4
#     Node 24, Type 1, BuildingBlock: AZAVOO_clean_sbu_0, # of connection points: 4
#     Node 25, Type 1, BuildingBlock: AZAVOO_clean_sbu_0, # of connection points: 4
#     Node 26, Type 1, BuildingBlock: AZAVOO_clean_sbu_0, # of connection points: 4
#     Node 27, Type 1, BuildingBlock: AZAVOO_clean_sbu_0, # of connection points: 4
#     Edge 28, Type (0, 1), BuildingBlock: EZIPEK_clean_linker_0, # of connection points: 2
#     Edge 29, Type (0, 1), BuildingBlock: EZIPEK_clean_linker_0, # of connection points: 2
#     Edge 30, Type (0, 1), BuildingBlock: EZIPEK_clean_linker_0, # of connection points: 2
#     Edge 31, Type (0, 1), BuildingBlock: EZIPEK_clean_linker_0, # of connection points: 2
#     Edge 32, Type (0, 1), BuildingBlock: EZIPEK_clean_linker_0, # of connection points: 2
#     Edge 33, Type (0, 1), BuildingBlock: EZIPEK_clean_linker_0, # of connection points: 2
#     Edge 34, Type (0, 1), BuildingBlock: EZIPEK_clean_linker_0, # of connection points: 2
#     Edge 35, Type (0, 1), BuildingBlock: EZIPEK_clean_linker_0, # of connection points: 2
#     Edge 36, Type (0, 1), BuildingBlock: EZIPEK_clean_linker_0, # of connection points: 2
#     Edge 37, Type (0, 1), BuildingBlock: EZIPEK_clean_linker_0, # of connection points: 2
#     Edge 38, Type (0, 1), BuildingBlock: EZIPEK_clean_linker_0, # of connection points: 2
#     Edge 39, Type (0, 1), BuildingBlock: EZIPEK_clean_linker_0, # of connection points: 2
#     Edge 40, Type (0, 1), BuildingBlock: EZIPEK_clean_linker_0, # of connection points: 2
#     Edge 41, Type (0, 1), BuildingBlock: EZIPEK_clean_linker_0, # of connection points: 2
#     Edge 42, Type (0, 1), BuildingBlock: EZIPEK_clean_linker_0, # of connection points: 2
#     Edge 43, Type (0, 1), BuildingBlock: EZIPEK_clean_linker_0, # of connection points: 2
#     Edge 44, Type (0, 1), BuildingBlock: EZIPEK_clean_linker_0, # of connection points: 2
#     Edge 45, Type (0, 1), BuildingBlock: EZIPEK_clean_linker_0, # of connection points: 2
#     Edge 46, Type (0, 1), BuildingBlock: EZIPEK_clean_linker_0, # of connection points: 2
#     Edge 47, Type (0, 1), BuildingBlock: EZIPEK_clean_linker_0, # of connection points: 2
#     Edge 48, Type (0, 1), BuildingBlock: EZIPEK_clean_linker_0, # of connection points: 2
#     Edge 49, Type (0, 1), BuildingBlock: EZIPEK_clean_linker_0, # of connection points: 2
#     Edge 50, Type (0, 1), BuildingBlock: EZIPEK_clean_linker_0, # of connection points: 2
#     Edge 51, Type (0, 1), BuildingBlock: EZIPEK_clean_linker_0, # of connection points: 2
#     Edge 52, Type (0, 1), BuildingBlock: EZIPEK_clean_linker_0, # of connection points: 2
#     Edge 53, Type (0, 1), BuildingBlock: EZIPEK_clean_linker_0, # of connection points: 2
#     Edge 54, Type (0, 1), BuildingBlock: EZIPEK_clean_linker_0, # of connection points: 2
#     Edge 55, Type (0, 1), BuildingBlock: EZIPEK_clean_linker_0, # of connection points: 2
#     Edge 56, Type (0, 1), BuildingBlock: EZIPEK_clean_linker_0, # of connection points: 2
#     Edge 57, Type (0, 1), BuildingBlock: EZIPEK_clean_linker_0, # of connection points: 2
#     Edge 58, Type (0, 1), BuildingBlock: EZIPEK_clean_linker_0, # of connection points: 2
#     Edge 59, Type (0, 1), BuildingBlock: EZIPEK_clean_linker_0, # of connection points: 2
#     Edge 60, Type (0, 1), BuildingBlock: EZIPEK_clean_linker_0, # of connection points: 2
#     Edge 61, Type (0, 1), BuildingBlock: EZIPEK_clean_linker_0, # of connection points: 2
#     Edge 62, Type (0, 1), BuildingBlock: EZIPEK_clean_linker_0, # of connection points: 2
#     Edge 63, Type (0, 1), BuildingBlock: EZIPEK_clean_linker_0, # of connection points: 2
#     Edge 64, Type (0, 1), BuildingBlock: EZIPEK_clean_linker_0, # of connection points: 2
#     Edge 65, Type (0, 1), BuildingBlock: EZIPEK_clean_linker_0, # of connection points: 2
#     Edge 66, Type (0, 1), BuildingBlock: EZIPEK_clean_linker_0, # of connection points: 2
#     Edge 67, Type (0, 1), BuildingBlock: EZIPEK_clean_linker_0, # of connection points: 2
#     Edge 68, Type (0, 1), BuildingBlock: EZIPEK_clean_linker_0, # of connection points: 2
#     Edge 69, Type (0, 1), BuildingBlock: EZIPEK_clean_linker_0, # of connection points: 2
#     Edge 70, Type (0, 1), BuildingBlock: EZIPEK_clean_linker_0, # of connection points: 2
#     Edge 71, Type (0, 1), BuildingBlock: EZIPEK_clean_linker_0, # of connection points: 2
#     Edge 72, Type (0, 1), BuildingBlock: EZIPEK_clean_linker_0, # of connection points: 2
#     Edge 73, Type (0, 1), BuildingBlock: EZIPEK_clean_linker_0, # of connection points: 2
#     Edge 74, Type (0, 1), BuildingBlock: EZIPEK_clean_linker_0, # of connection points: 2
#     Edge 75, Type (0, 1), BuildingBlock: EZIPEK_clean_linker_0, # of connection points: 2
# Relax obj value: 0.002
# Max RMSD: 0.043
# Mean RMSD: 0.026
data_MOF--net-ctn--node1-WUSLED_clean_sbu_0--node2-AZAVOO_clean_sbu_0--edge1-EZIPEK_clean_linker_0
_symmetry_space_group_name_H-M    P1
_symmetry_Int_Tables_number       1
_symmetry_cell_setting            triclinic
loop_
_symmetry_equiv_pos_as_xyz
'x, y, z'
_cell_length_a     54.977989
_cell_length_b     56.534093
_cell_length_c     56.400441
_cell_angle_alpha  90.717948
_cell_angle_beta   92.4968
_cell_angle_gamma 93.023316
loop_
_atom_site_label
_atom_site_type_symbol
_atom_site_fract_x
_atom_site_fract_y
_atom_site_fract_z
_atom_type_partial_charge
C0 C 1.00343 0.05659 0.08528 0.0
C1 C 1.0144 0.0434 0.10339 0.0
C2 C 0.97906 0.0474 0.12744 0.0
C3 C 1.00229 0.03887 0.12437 0.0
C4 C 0.96793 0.0601 0.10911 0.0
C5 C 0.98003 0.06466 0.08821 0.0
U6 U 0.05291 0.04869 0.03973 0.0
O7 O 0.05044 0.05312 1.00098 0.0
O8 O 0.07616 0.07598 0.02291 0.0
C9 C 0.066 0.07163 1.00167 0.0
C10 C 0.01629 0.06305 0.06368 0.0
C11 C 0.05858 0.09263 0.98848 0.0
C12 C 0.02842 0.12071 0.97646 0.0
C13 C 0.0346 0.10015 0.9885 0.0
C14 C 0.07003 0.12635 0.96425 0.0
C15 C 0.0462 0.13404 0.96446 0.0
C16 C 0.07614 0.10578 0.97612 0.0
C17 C 0.09767 0.9988 0.04703 0.0
C18 C 0.13242 0.99369 0.02245 0.0
C19 C 0.12322 0.96543 0.05319 0.0
C20 C 0.10324 0.97819 0.05924 0.0
C21 C 0.13797 0.97306 0.03478 0.0
C22 C 0.11234 1.00649 0.02853 0.0
C23 C 0.07677 0.01206 0.05425 0.0
O24 O 0.03884 0.07176 0.06704 0.0
O25 O 1.0135 0.0479 0.04578 0.0
O26 O 0.05719 1.01017 0.03998 0.0
O27 O 0.08194 0.03381 0.06209 0.0
H28 H 0.03244 0.03698 0.10145 0.0
H29 H 1.01117 0.02909 0.13837 0.0
H30 H 0.95006 0.06686 0.11119 0.0
H31 H 0.97128 0.07488 0.07446 0.0
H32 H 1.00999 0.12653 0.97695 0.0
H33 H 0.02079 0.09034 0.99806 0.0
H34 H 0.08399 0.1365 0.9552 0.0
H35 H 0.09473 0.10032 0.97594 0.0
H36 H 0.14366 0.99987 1.00824 0.0
H37 H 0.12726 0.9496 0.06292 0.0
H38 H 0.09216 0.97201 0.07358 0.0
H39 H 0.10832 0.0224 0.01893 0.0
C40 C 0.29543 0.76348 0.17444 0.0
C41 C 0.31588 0.76879 0.16088 0.0
C42 C 0.29268 0.79611 0.13704 0.0
C43 C 0.31448 0.78499 0.14227 0.0
C44 C 0.27264 0.79151 0.15117 0.0
C45 C 0.274 0.77535 0.16967 0.0
U46 U 0.31951 0.72987 0.22973 0.0
O47 O 0.29839 0.71272 0.25756 0.0
O48 O 0.3203 0.6913 0.23479 0.0
C49 C 0.30442 0.69134 0.25154 0.0
C50 C 0.29498 0.74423 0.19202 0.0
C51 C 0.28439 0.67292 0.24956 0.0
C52 C 0.24278 0.65945 0.2376 0.0
C53 C 0.26195 0.67688 0.23772 0.0
C54 C 0.2685 0.63386 0.26057 0.0
C55 C 0.2459 0.63791 0.24924 0.0
C56 C 0.28757 0.65121 0.2607 0.0
C57 C 0.37721 0.75207 0.26667 0.0
C58 C 0.41494 0.73723 0.28375 0.0
C59 C 0.39322 0.76582 0.30576 0.0
C60 C 0.37551 0.76621 0.28719 0.0
C61 C 0.41313 0.75143 0.30413 0.0
C62 C 0.39718 0.73756 0.26518 0.0
C63 C 0.35904 0.75373 0.2465 0.0
O64 O 0.31207 0.72884 0.1911 0.0
O65 O 0.28989 0.75013 0.21381 0.0
O66 O 0.33688 0.75885 0.25196 0.0
O67 O 0.35919 0.73756 0.22953 0.0
H68 H 0.33266 0.75991 0.16411 0.0
H69 H 0.33007 0.78819 0.13143 0.0
H70 H 0.25561 0.79979 0.14729 0.0
H71 H 0.25797 0.77147 0.17974 0.0
H72 H 0.22541 0.66292 0.22889 0.0
H73 H 0.25915 0.69354 0.22899 0.0
H74 H 0.27119 0.61741 0.26973 0.0
H75 H 0.30471 0.64784 0.26994 0.0
H76 H 0.43026 0.72612 0.28213 0.0
H77 H 0.39159 0.77699 0.32129 0.0
H78 H 0.36062 0.77785 0.2888 0.0
H79 H 0.3993 0.72667 0.24955 0.0
C80 C 0.98075 0.43668 1.00046 0.0
C81 C 1.00116 0.42435 1.00752 0.0
C82 C 0.98838 0.39146 0.97992 0.0
C83 C 1.00541 0.40253 0.99681 0.0
C84 C 0.97012 0.40604 0.97069 0.0
C85 C 0.96588 0.42788 0.9813 0.0
U86 U 0.99027 0.48312 0.05092 0.0
O87 O 0.98703 0.52182 0.04984 0.0
O88 O 0.96287 0.50002 0.0717 0.0
C89 C 0.96819 0.52121 0.06343 0.0
C90 C 0.97462 0.45859 0.01278 0.0
C91 C 0.94723 0.53468 0.05521 0.0
C92 C 0.90921 0.53804 0.03192 0.0
C93 C 0.92961 0.52522 0.03838 0.0
C94 C 0.92407 0.56993 0.05873 0.0
C95 C 0.90626 0.56043 0.04219 0.0
C96 C 0.94438 0.55716 0.06516 0.0
C97 C 0.04212 0.47642 0.09859 0.0
C98 C 0.04871 0.50046 0.13468 0.0
C99 C 0.07814 0.472 0.12445 0.0
C100 C 0.06398 0.46551 0.10395 0.0
C101 C 0.07067 0.48954 0.13995 0.0
C102 C 0.03453 0.49397 0.11408 0.0
C103 C 0.02767 0.46906 0.07682 0.0
O104 O 0.96548 0.4556 0.03374 0.0
O105 O 0.99083 0.4765 0.01235 0.0
O106 O 0.02993 0.48305 0.05851 0.0
O107 O 1.00503 0.46136 0.0797 0.0
H108 H 1.01383 0.43158 0.02135 0.0
H109 H 0.02235 0.39488 1.00191 0.0
H110 H 0.95885 0.40097 0.95512 0.0
H111 H 0.95083 0.43785 0.97455 0.0
H112 H 0.8956 0.5304 0.0192 0.0
H113 H 0.93149 0.50786 0.03053 0.0
H114 H 0.92207 0.58713 0.06688 0.0
H115 H 0.95773 0.56473 0.0782 0.0
H116 H 0.04266 0.51404 0.14643 0.0
H117 H 0.095 0.4634 0.12819 0.0
H118 H 0.07013 0.45193 0.09224 0.0
H119 H 0.01771 0.50261 0.11023 0.0
C120 C 0.72599 0.76291 0.17708 0.0
C121 C 0.7507 0.75957 0.17328 0.0
C122 C 0.73931 0.73391 0.13913 0.0
C123 C 0.75728 0.74511 0.15451 0.0
C124 C 0.71465 0.73738 0.14282 0.0
C125 C 0.70806 0.75169 0.16169 0.0
U126 U 0.73399 0.81715 0.21926 0.0
O127 O 0.70603 0.83938 0.23347 0.0
O128 O 0.7296 0.81972 0.25771 0.0
C129 C 0.71069 0.83296 0.25545 0.0
C130 C 0.71848 0.77763 0.19707 0.0
C131 C 0.6894 0.8258 0.26929 0.0
C132 C 0.66449 0.79577 0.28899 0.0
C133 C 0.68338 0.80187 0.27396 0.0
C134 C 0.65672 0.83729 0.29406 0.0
C135 C 0.65131 0.81347 0.29945 0.0
C136 C 0.67566 0.84339 0.27914 0.0
C137 C 0.78876 0.86205 0.212 0.0
C138 C 0.81097 0.88763 0.24149 0.0
C139 C 0.81687 0.89378 0.20003 0.0
C140 C 0.79965 0.8753 0.19421 0.0
C141 C 0.82517 0.89862 0.22386 0.0
C142 C 0.79363 0.86911 0.23571 0.0
C143 C 0.77321 0.84068 0.2053 0.0
O144 O 0.73285 0.77828 0.21635 0.0
O145 O 0.71052 0.79846 0.19149 0.0
O146 O 0.75119 0.84411 0.19644 0.0
O147 O 0.77383 0.82295 0.22015 0.0
H148 H 0.7649 0.7681 0.18481 0.0
H149 H 0.7764 0.74277 0.15187 0.0
H150 H 0.70053 0.72902 0.13106 0.0
H151 H 0.68892 0.75402 0.16429 0.0
H152 H 0.66055 0.7773 0.29297 0.0
H153 H 0.69364 0.78797 0.26647 0.0
H154 H 0.64674 0.85117 0.30197 0.0
H155 H 0.68 0.86193 0.27575 0.0
H156 H 0.81264 0.89311 0.25987 0.0
H157 H 0.8236 0.90403 0.18545 0.0
H158 H 0.79509 0.87115 0.17569 0.0
H159 H 0.7842 0.86018 0.24981 0.0
C160 C 1.00782 0.97943 0.43217 0.0
C161 C 0.01992 0.98985 0.41315 0.0
C162 C 0.98137 0.99142 0.39034 0.0
C163 C 1.00679 0.99574 0.39238 0.0
C164 C 0.96921 0.98169 0.40962 0.0
C165 C 0.98235 0.97568 0.43032 0.0
U166 U 0.06069 0.98483 0.47959 0.0
O167 O 0.06045 0.97759 0.51786 0.0
O168 O 0.08289 0.95696 0.4949 0.0
C169 C 0.07447 0.95954 0.51618 0.0
C170 C 0.02137 0.97138 0.45358 0.0
C171 C 0.06649 0.9374 0.52802 0.0
C172 C 0.03492 0.9103 0.54292 0.0
C173 C 0.04177 0.93145 0.53164 0.0
C174 C 0.0773 0.90073 0.54708 0.0
C175 C 0.05264 0.89469 0.55057 0.0
C176 C 0.08415 0.9219 0.53597 0.0
C177 C 0.10813 0.03787 0.47631 0.0
C178 C 0.14502 0.0445 0.50153 0.0
C179 C 0.13363 0.07406 0.47295 0.0
C180 C 0.113 0.05982 0.46571 0.0
C181 C 0.14976 0.06658 0.49095 0.0
C182 C 0.12428 0.03023 0.49427 0.0
C183 C 0.08609 0.0235 0.4682 0.0
O184 O 0.04302 0.96339 0.45028 0.0
O185 O 0.02084 0.98486 0.47268 0.0
O186 O 0.06759 0.02354 0.4822 0.0
O187 O 0.08959 1.00244 0.45926 0.0
H188 H 0.03954 0.99306 0.41417 0.0
H189 H 0.01649 1.00331 0.37773 0.0
H190 H 0.94961 0.9783 0.40842 0.0
H191 H 0.97265 0.96769 0.44477 0.0
H192 H 1.01579 0.9059 0.54536 0.0
H193 H 0.02776 0.94304 0.52564 0.0
H194 H 0.09123 0.8889 0.55275 0.0
H195 H 0.10331 0.92613 0.53342 0.0
H196 H 0.15728 0.03844 0.51545 0.0
H197 H 0.13695 0.091 0.46459 0.0
H198 H 0.10077 0.06601 0.45181 0.0
H199 H 0.12082 0.01332 0.50266 0.0
C200 C 0.21737 0.778 0.83522 0.0
C201 C 0.23688 0.77067 0.84974 0.0
C202 C 0.23179 0.80339 0.87729 0.0
C203 C 0.24405 0.7833 0.87067 0.0
C204 C 0.21253 0.81087 0.86257 0.0
C205 C 0.20538 0.79826 0.84169 0.0
U206 U 0.22172 0.72734 0.78959 0.0
O207 O 0.19231 0.70533 0.77115 0.0
O208 O 0.21683 0.72814 0.75064 0.0
C209 C 0.19687 0.7142 0.75025 0.0
C210 C 0.20904 0.76471 0.81346 0.0
C211 C 0.17555 0.72168 0.7355 0.0
C212 C 0.15883 0.74387 0.70224 0.0
C213 C 0.17847 0.73869 0.71765 0.0
C214 C 0.13276 0.7155 0.72232 0.0
C215 C 0.13591 0.73209 0.70427 0.0
C216 C 0.15238 0.71028 0.73771 0.0
C217 C 0.27362 0.68379 0.79857 0.0
C218 C 0.28991 0.65813 0.76894 0.0
C219 C 0.30476 0.65651 0.80952 0.0
C220 C 0.28845 0.67346 0.81586 0.0
C221 C 0.30807 0.65053 0.78542 0.0
C222 C 0.27356 0.67515 0.77522 0.0
C223 C 0.25922 0.70398 0.80526 0.0
O224 O 0.22389 0.76594 0.79583 0.0
O225 O 0.19954 0.7432 0.81656 0.0
O226 O 0.23681 0.69904 0.81156 0.0
O227 O 0.26116 0.72267 0.7917 0.0
H228 H 0.24637 0.75509 0.84501 0.0
H229 H 0.2589 0.77723 0.88187 0.0
H230 H 0.20283 0.82627 0.86744 0.0
H231 H 0.19031 0.80419 0.83068 0.0
H232 H 0.16166 0.75662 0.68832 0.0
H233 H 0.19608 0.74761 0.71516 0.0
H234 H 0.11525 0.70611 0.72407 0.0
H235 H 0.14952 0.69684 0.75098 0.0
H236 H 0.28779 0.65114 0.75107 0.0
H237 H 0.31477 0.64839 0.82386 0.0
H238 H 0.28775 0.67878 0.83433 0.0
H239 H 0.26106 0.68173 0.76177 0.0
C240 C 0.97181 0.58673 0.52362 0.0
C241 C 0.99626 0.59552 0.52529 0.0
C242 C 0.98472 0.62967 0.54821 0.0
C243 C 1.00267 0.61686 0.53757 0.0
C244 C 0.96036 0.6209 0.54644 0.0
C245 C 0.95398 0.5996 0.5343 0.0
U246 U 0.97711 0.53869 0.47489 0.0
O247 O 0.97195 0.49991 0.47742 0.0
O248 O 0.94773 0.51937 0.45371 0.0
C249 C 0.95242 0.49884 0.46307 0.0
C250 C 0.96428 0.56419 0.51117 0.0
C251 C 0.93121 0.48462 0.47122 0.0
C252 C 0.89663 0.47893 0.49649 0.0
C253 C 0.91683 0.49282 0.48929 0.0
C254 C 0.90504 0.44859 0.46769 0.0
C255 C 0.89064 0.45669 0.48573 0.0
C256 C 0.92516 0.46245 0.4605 0.0
C257 C 0.02757 0.54553 0.42942 0.0
C258 C 0.03952 0.51498 0.40204 0.0
C259 C 0.05636 0.55526 0.39902 0.0
C260 C 0.04275 0.56214 0.41807 0.0
C261 C 0.05505 0.53161 0.391 0.0
C262 C 0.02584 0.5219 0.42115 0.0
C263 C 1.01436 0.55329 0.45012 0.0
O264 O 0.95464 0.56603 0.48959 0.0
O265 O 0.97934 0.54694 0.51319 0.0
O266 O 0.01652 0.54044 0.46929 0.0
O267 O 0.99202 0.55977 0.44571 0.0
H268 H 1.01032 0.58594 0.51712 0.0
H269 H 0.02155 0.62346 0.53863 0.0
H270 H 0.94626 0.63061 0.55443 0.0
H271 H 0.93504 0.59316 0.53323 0.0
H272 H 0.88571 0.48547 0.51043 0.0
H273 H 0.92122 0.50992 0.49776 0.0
H274 H 0.90071 0.43151 0.45919 0.0
H275 H 0.93601 0.45585 0.44652 0.0
H276 H 0.03827 0.49666 0.39606 0.0
H277 H 0.06822 0.56833 0.39073 0.0
H278 H 0.04432 0.58043 0.42416 0.0
H279 H 1.01417 0.50882 0.42964 0.0
C280 C 0.78488 0.76609 0.85118 0.0
C281 C 0.79059 0.74261 0.84618 0.0
C282 C 0.78482 0.73206 0.88739 0.0
C283 C 0.79052 0.72568 0.8642 0.0
C284 C 0.77951 0.75555 0.89238 0.0
C285 C 0.7795 0.77238 0.87444 0.0
U286 U 0.80742 0.79966 0.796 0.0
O287 O 0.78562 0.8141 0.7663 0.0
O288 O 0.80882 0.83797 0.78966 0.0
C289 C 0.79233 0.83616 0.77206 0.0
C290 C 0.78344 0.78427 0.83259 0.0
C291 C 0.77277 0.85304 0.77276 0.0
C292 C 0.7518 0.88518 0.754 0.0
C293 C 0.76866 0.86754 0.75316 0.0
C294 C 0.7422 0.87357 0.79388 0.0
C295 C 0.73876 0.88863 0.7745 0.0
C296 C 0.75915 0.85589 0.79304 0.0
C297 C 0.86588 0.78267 0.7661 0.0
C298 C 0.88018 0.79907 0.72924 0.0
C299 C 0.90624 0.77489 0.75297 0.0
C300 C 0.88796 0.77175 0.76932 0.0
C301 C 0.90363 0.79006 0.73327 0.0
C302 C 0.8619 0.79599 0.7457 0.0
C303 C 0.84718 0.7794 0.78395 0.0
O304 O 0.80028 0.80166 0.83411 0.0
O305 O 0.77829 0.77679 0.81068 0.0
O306 O 0.82517 0.77224 0.7759 0.0
O307 O 0.84708 0.79621 0.80023 0.0
H308 H 0.79487 0.73731 0.82839 0.0
H309 H 0.79472 0.70763 0.86006 0.0
H310 H 0.7751 0.76079 0.91016 0.0
H311 H 0.77499 0.79033 0.8787 0.0
H312 H 0.74942 0.89662 0.7389 0.0
H313 H 0.77898 0.86563 0.73738 0.0
H314 H 0.73232 0.87599 0.80986 0.0
H315 H 0.76207 0.84485 0.80836 0.0
H316 H 0.87507 0.80798 0.71316 0.0
H317 H 0.92208 0.76465 0.75582 0.0
H318 H 0.89103 0.76048 0.78445 0.0
H319 H 0.84451 0.80375 0.74229 0.0
C320 C 0.28516 0.26721 0.35333 0.0
C321 C 0.29011 0.24346 0.34864 0.0
C322 C 0.28489 0.23382 0.39016 0.0
C323 C 0.28995 0.22686 0.36696 0.0
C324 C 0.28039 0.25757 0.39486 0.0
C325 C 0.28047 0.27408 0.37662 0.0
U326 U 0.30741 0.29993 0.29749 0.0
O327 O 0.28545 0.31373 0.26755 0.0
O328 O 0.30855 0.33811 0.29046 0.0
C329 C 0.29208 0.33591 0.27287 0.0
C330 C 0.28361 0.28505 0.3344 0.0
C331 C 0.27247 0.35275 0.27317 0.0
C332 C 0.25125 0.38421 0.25346 0.0
C333 C 0.26807 0.36651 0.25307 0.0
C334 C 0.24223 0.37413 0.29389 0.0
C335 C 0.23852 0.38847 0.27399 0.0
C336 C 0.25914 0.35638 0.2935 0.0
C337 C 0.36588 0.28288 0.26773 0.0
C338 C 0.37991 0.299 0.23065 0.0
C339 C 0.40625 0.27525 0.25454 0.0
C340 C 0.38806 0.27214 0.27099 0.0
C341 C 0.40345 0.29021 0.23471 0.0
C342 C 0.36172 0.29596 0.2472 0.0
C343 C 0.34729 0.27971 0.2857 0.0
O344 O 0.30036 0.30254 0.33559 0.0
O345 O 0.27845 0.27718 0.31261 0.0
O346 O 0.3253 0.27229 0.27783 0.0
O347 O 0.34711 0.29676 0.30172 0.0
H348 H 0.29383 0.23768 0.33084 0.0
H349 H 0.29352 0.20859 0.36303 0.0
H350 H 0.27647 0.26326 0.41264 0.0
H351 H 0.27654 0.29224 0.38066 0.0
H352 H 0.24868 0.39509 0.23797 0.0
H353 H 0.27817 0.364 0.23723 0.0
H354 H 0.2326 0.37719 0.3099 0.0
H355 H 0.26227 0.34594 0.3092 0.0
H356 H 0.37467 0.30771 0.2145 0.0
H357 H 0.42219 0.26515 0.25744 0.0
H358 H 0.39127 0.26104 0.28622 0.0
H359 H 0.34425 0.30356 0.24377 0.0
C360 C 0.48228 0.93845 0.50232 0.0
C361 C 0.50684 0.93309 0.50059 0.0
C362 C 0.49459 0.89736 0.47757 0.0
C363 C 0.51294 0.91275 0.4882 0.0
C364 C 0.4701 0.90281 0.47919 0.0
C365 C 0.46401 0.92321 0.49142 0.0
U366 U 0.4902 0.98396 0.55382 0.0
O367 O 0.48605 0.02251 0.55359 0.0
O368 O 0.46229 0.99973 0.57492 0.0
C369 C 0.46718 0.0212 0.56714 0.0
C370 C 0.47519 0.95966 0.51539 0.0
C371 C 0.44598 0.0344 0.55911 0.0
C372 C 0.40988 0.03901 0.53331 0.0
C373 C 0.43023 0.02626 0.54009 0.0
C374 C 0.421 0.06813 0.56433 0.0
C375 C 0.40514 0.06003 0.54545 0.0
C376 C 0.44125 0.05543 0.57107 0.0
C377 C 0.54283 0.97787 0.60081 0.0
C378 C 0.5495 1.0018 0.63695 0.0
C379 C 0.57892 0.9734 0.62653 0.0
C380 C 0.56472 0.96697 0.60606 0.0
C381 C 0.57148 0.99089 0.64212 0.0
C382 C 0.53526 0.99535 0.61638 0.0
C383 C 0.52832 0.97054 0.57908 0.0
O384 O 0.46631 0.95579 0.53634 0.0
O385 O 0.49035 0.97843 0.51515 0.0
O386 O 0.52997 0.98488 0.561 0.0
O387 O 0.50592 0.9622 0.58211 0.0
H388 H 0.52126 0.94452 0.50892 0.0
H389 H 0.53193 0.90878 0.48721 0.0
H390 H 0.45569 0.89111 0.47121 0.0
H391 H 0.44498 0.927 0.49254 0.0
H392 H 0.39777 0.03246 0.51876 0.0
H393 H 0.43359 1.01003 0.53065 0.0
H394 H 0.41759 0.08425 0.57394 0.0
H395 H 0.45317 0.06197 0.58579 0.0
H396 H 0.54347 0.01533 0.64878 0.0
H397 H 0.59581 0.96481 0.6302 0.0
H398 H 0.57085 0.95344 0.59428 0.0
H399 H 0.51841 1.00397 0.61262 0.0
C400 C 0.2293 0.26201 0.68148 0.0
C401 C 0.24452 0.27147 0.66419 0.0
C402 C 0.24205 0.23352 0.64298 0.0
C403 C 0.25082 0.25731 0.64504 0.0
C404 C 0.22695 0.2241 0.66035 0.0
C405 C 0.22061 0.23825 0.67942 0.0
U406 U 0.23678 0.31619 0.72408 0.0
O407 O 0.20857 0.33711 0.73947 0.0
O408 O 0.23306 0.31749 0.76282 0.0
C409 C 0.21371 0.33017 0.7612 0.0
C410 C 0.22218 0.27645 0.70176 0.0
C411 C 0.19297 0.32206 0.77546 0.0
C412 C 0.15052 0.30838 0.77916 0.0
C413 C 0.16995 0.31512 0.76497 0.0
C414 C 0.17683 0.31514 0.81443 0.0
C415 C 0.15386 0.30831 0.80401 0.0
C416 C 0.19617 0.322 0.80029 0.0
C417 C 0.28904 0.36404 0.71733 0.0
C418 C 0.32304 0.38437 0.73988 0.0
C419 C 0.30025 0.4056 0.71009 0.0
C420 C 0.28524 0.38519 0.7051 0.0
C421 C 0.31949 0.40523 0.72726 0.0
C422 C 0.30801 0.36397 0.73495 0.0
C423 C 0.27474 0.3418 0.71017 0.0
O424 O 0.23744 0.27739 0.72037 0.0
O425 O 0.21343 0.29707 0.69666 0.0
O426 O 0.25244 0.34399 0.70133 0.0
O427 O 0.27646 0.3237 0.72445 0.0
H428 H 0.25149 0.28974 0.66551 0.0
H429 H 0.26256 0.26486 0.63184 0.0
H430 H 0.2201 0.20578 0.65913 0.0
H431 H 0.20889 0.23063 0.6926 0.0
H432 H 0.13291 0.30315 0.77081 0.0
H433 H 0.16693 0.31499 0.74586 0.0
H434 H 0.17976 0.31518 0.83356 0.0
H435 H 0.21368 0.32738 0.80879 0.0
H436 H 0.33789 0.38371 0.75308 0.0
H437 H 0.29733 0.4215 0.70007 0.0
H438 H 0.27106 0.38581 0.69122 0.0
H439 H 0.31172 0.34798 0.74454 0.0
C440 C 0.79476 0.25892 0.67093 0.0
C441 C 0.80693 0.28128 0.67445 0.0
C442 C 0.79185 0.29351 0.63548 0.0
C443 C 0.80544 0.29851 0.65681 0.0
C444 C 0.78017 0.27101 0.63187 0.0
C445 C 0.78164 0.25387 0.64943 0.0
U446 U 0.82032 0.22882 0.72744 0.0
O447 O 0.80022 0.21281 0.75658 0.0
O448 O 0.82179 0.1906 0.73427 0.0
C449 C 0.80625 0.19124 0.7513 0.0
C450 C 0.79458 0.24077 0.68949 0.0
C451 C 0.7862 0.17283 0.75016 0.0
C452 C 0.74476 0.15883 0.7382 0.0
C453 C 0.76392 0.17622 0.7378 0.0
C454 C 0.77019 0.13435 0.76277 0.0
C455 C 0.74775 0.13785 0.75085 0.0
C456 C 0.78924 0.15169 0.76241 0.0
C457 C 0.87922 0.25276 0.76073 0.0
C458 C 0.90293 0.23089 0.78956 0.0
C459 C 0.91258 0.27242 0.78425 0.0
C460 C 0.89329 0.27326 0.76731 0.0
C461 C 0.91951 0.2507 0.79418 0.0
C462 C 0.88355 0.23173 0.77264 0.0
C463 C 0.86014 0.25378 0.74159 0.0
O464 O 0.81188 0.22563 0.68894 0.0
O465 O 0.79025 0.24798 0.71108 0.0
O466 O 0.8383 0.25868 0.74818 0.0
O467 O 0.85973 0.23678 0.72543 0.0
H468 H 0.81719 0.2855 0.69093 0.0
H469 H 0.81444 0.31585 0.65994 0.0
H470 H 0.76951 0.26688 0.61559 0.0
H471 H 0.77213 0.23675 0.64639 0.0
H472 H 0.72752 0.16187 0.729 0.0
H473 H 0.76123 0.19242 0.7282 0.0
H474 H 0.77279 0.11833 0.7727 0.0
H475 H 0.80628 0.14876 0.77205 0.0
H476 H 0.90427 0.21457 0.7991 0.0
H477 H 0.92155 0.28918 0.78954 0.0
H478 H 0.88936 0.29006 0.75933 0.0
H479 H 0.87194 0.21592 0.76887 0.0
C480 C 0.5028 0.5555 0.58513 0.0
C481 C 0.5013 0.53211 0.59336 0.0
C482 C 0.47853 0.54468 0.62698 0.0
C483 C 0.48916 0.52672 0.61416 0.0
C484 C 0.48005 0.56797 0.61868 0.0
C485 C 0.49204 0.57331 0.59792 0.0
U486 U 0.55146 0.54728 0.53873 0.0
O487 O 0.54908 0.55342 0.5002 0.0
O488 O 0.57574 0.57438 0.52298 0.0
C489 C 0.56529 0.57142 0.50167 0.0
C490 C 0.5156 0.56201 0.5635 0.0
C491 C 0.55915 0.59344 0.48931 0.0
C492 C 0.53054 0.61843 0.46851 0.0
C493 C 0.53539 0.59738 0.48037 0.0
C494 C 0.57298 0.63181 0.47443 0.0
C495 C 0.54933 0.63585 0.4656 0.0
C496 C 0.57784 0.61082 0.48608 0.0
C497 C 0.59514 0.49634 0.54453 0.0
C498 C 0.63029 0.49181 0.52033 0.0
C499 C 0.62075 0.46298 0.55047 0.0
C500 C 0.60059 0.47552 0.55643 0.0
C501 C 0.63579 0.47104 0.53245 0.0
C502 C 0.61004 0.5044 0.52634 0.0
C503 C 0.57438 0.50964 0.55201 0.0
O504 O 0.53836 0.57007 0.5669 0.0
O505 O 0.51225 0.5474 0.54518 0.0
O506 O 0.55491 0.50861 0.53756 0.0
O507 O 0.5799 0.53103 0.56067 0.0
H508 H 0.50961 0.51811 0.58382 0.0
H509 H 0.48828 0.50868 0.62042 0.0
H510 H 0.47205 0.58205 0.62841 0.0
H511 H 0.49304 0.59145 0.59189 0.0
H512 H 0.51218 0.62124 0.46178 0.0
H513 H 0.52059 0.58428 0.48254 0.0
H514 H 0.58772 0.64502 0.47234 0.0
H515 H 0.5963 0.60817 0.49264 0.0
H516 H 0.64176 0.49831 0.50644 0.0
H517 H 0.62476 0.44705 0.56004 0.0
H518 H 0.58937 0.46908 0.57056 0.0
H519 H 0.60615 0.5205 0.51701 0.0
C520 C 0.50797 0.47895 0.93283 0.0
C521 C 0.50423 0.50303 0.92882 0.0
C522 C 0.48273 0.49296 0.89102 0.0
C523 C 0.4916 0.50996 0.90811 0.0
C524 C 0.48628 0.46893 0.89516 0.0
C525 C 0.49874 0.46201 0.91589 0.0
U526 U 0.5602 0.48476 0.98092 0.0
O527 O 0.55976 0.47728 0.01912 0.0
O528 O 0.5826 0.45703 0.99621 0.0
C529 C 0.574 0.4594 0.01744 0.0
C530 C 0.52135 0.47095 0.95438 0.0
C531 C 0.56618 0.43713 0.02914 0.0
C532 C 0.53477 0.40965 0.04373 0.0
C533 C 0.54147 0.43087 0.0325 0.0
C534 C 0.57728 0.40061 0.04834 0.0
C535 C 0.55263 0.39428 0.0516 0.0
C536 C 0.58397 0.42185 0.03726 0.0
C537 C 0.60727 0.53824 0.97794 0.0
C538 C 0.6429 0.54625 1.00459 0.0
C539 C 0.63388 0.57339 0.97287 0.0
C540 C 0.6133 0.55904 0.96573 0.0
C541 C 0.6488 0.56719 0.99238 0.0
C542 C 0.62222 0.53184 0.99741 0.0
C543 C 0.58534 0.52369 0.96981 0.0
O544 O 0.54314 0.46331 0.95114 0.0
O545 O 0.52049 0.48416 0.97367 0.0
O546 O 0.56679 0.5235 0.98376 0.0
O547 O 0.58909 0.50271 0.96083 0.0
H548 H 0.51121 0.51648 0.94156 0.0
H549 H 0.48913 0.5286 0.90519 0.0
H550 H 0.47967 0.45557 0.88217 0.0
H551 H 0.50135 0.44336 0.91862 0.0
H552 H 0.51565 0.40503 0.046 0.0
H553 H 0.52736 0.44228 0.02636 0.0
H554 H 0.59131 0.38897 0.05418 0.0
H555 H 0.60312 0.42632 0.03492 0.0
H556 H 0.65422 0.54118 0.01968 0.0
H557 H 0.63811 0.58944 0.96324 0.0
H558 H 0.60202 0.56425 0.95065 0.0
H559 H 0.61786 0.51581 1.00703 0.0
C560 C 0.72066 0.27658 0.33647 0.0
C561 C 0.72935 0.26441 0.35644 0.0
C562 C 0.73485 0.30149 0.37894 0.0
C563 C 0.7363 0.27679 0.37755 0.0
C564 C 0.72664 0.3137 0.35888 0.0
C565 C 0.71956 0.30132 0.33783 0.0
U566 U 0.72276 0.226 0.2902 0.0
O567 O 0.69269 0.2055 0.27122 0.0
O568 O 0.71848 0.22742 0.25114 0.0
C569 C 0.69816 0.21403 0.25042 0.0
C570 C 0.71203 0.2639 0.31434 0.0
C571 C 0.67771 0.2222 0.2352 0.0
C572 C 0.63623 0.23515 0.22963 0.0
C573 C 0.65607 0.22965 0.24471 0.0
C574 C 0.65961 0.22662 0.19542 0.0
C575 C 0.63778 0.23341 0.20487 0.0
C576 C 0.67935 0.22105 0.21044 0.0
C577 C 0.77132 0.17896 0.29959 0.0
C578 C 0.7932 0.15593 0.27144 0.0
C579 C 0.79292 0.14457 0.31269 0.0
C580 C 0.77831 0.16343 0.31759 0.0
C581 C 0.80091 0.14097 0.28968 0.0
C582 C 0.77849 0.17478 0.27633 0.0
C583 C 0.7584 0.2003 0.30605 0.0
O584 O 0.72718 0.26455 0.29694 0.0
O585 O 0.70097 0.24292 0.31678 0.0
O586 O 0.73576 0.19688 0.31237 0.0
O587 O 0.76173 0.21899 0.29269 0.0
H588 H 0.73048 0.24534 0.35581 0.0
H589 H 0.74261 0.26709 0.39287 0.0
H590 H 0.72538 0.33275 0.35966 0.0
H591 H 0.71294 0.31105 0.32264 0.0
H592 H 0.61952 0.24029 0.23725 0.0
H593 H 0.6543 0.23072 0.26373 0.0
H594 H 0.66113 0.22509 0.17638 0.0
H595 H 0.69578 0.21528 0.2027 0.0
H596 H 0.7992 0.15345 0.25358 0.0
H597 H 0.7987 0.13325 0.32699 0.0
H598 H 0.77308 0.16633 0.33566 0.0
H599 H 0.77333 0.18644 0.26209 0.0
C600 C 0.47373 0.08553 0.02694 0.0
C601 C 0.49123 0.10165 0.01794 0.0
C602 C 0.48613 0.12881 0.05106 0.0
C603 C 0.4974 0.12317 0.02995 0.0
C604 C 0.46907 0.11242 0.06025 0.0
C605 C 0.46293 0.09097 0.04828 0.0
U606 U 0.47825 0.03861 0.97713 0.0
O607 O 0.47272 0.99981 0.97883 0.0
O608 O 0.44861 0.01997 0.95567 0.0
C609 C 0.45316 0.99919 0.96453 0.0
C610 C 0.46578 0.06337 0.0141 0.0
C611 C 0.43187 0.9849 0.97241 0.0
C612 C 0.39853 0.97783 0.99893 0.0
C613 C 0.41871 0.99187 0.9919 0.0
C614 C 0.40448 0.94986 0.96706 0.0
C615 C 0.39134 0.95668 0.98656 0.0
C616 C 0.42458 0.96385 0.96006 0.0
C617 C 0.52884 0.04576 0.93187 0.0
C618 C 0.53842 0.01612 0.90244 0.0
C619 C 0.5596 0.05483 0.90315 0.0
C620 C 0.54615 0.06164 0.92234 0.0
C621 C 0.55601 0.03198 0.89318 0.0
C622 C 0.52489 0.02297 0.9217 0.0
C623 C 0.51569 0.05333 0.95268 0.0
O624 O 0.45623 0.06581 0.99255 0.0
O625 O 0.48072 0.04601 0.01566 0.0
O626 O 0.51766 0.04006 0.97157 0.0
O627 O 0.49344 0.06009 0.94839 0.0
H628 H 0.49977 0.09775 1.00149 0.0
H629 H 0.51056 0.13564 0.02257 0.0
H630 H 0.46014 0.11648 0.07644 0.0
H631 H 0.4494 0.07876 0.05549 0.0
H632 H 0.38858 0.98338 0.01401 0.0
H633 H 0.42406 1.00809 1.00163 0.0
H634 H 0.39921 0.93363 0.95731 0.0
H635 H 0.43448 0.95821 0.94497 0.0
H636 H 0.53538 0.99843 0.89494 0.0
H637 H 0.57307 0.0673 0.89625 0.0
H638 H 0.54945 0.07929 0.92992 0.0
H639 H 0.51157 1.01048 0.9288 0.0
Mg640 Mg 0.25422 0.8742 0.01863 0.0
O641 O 0.29074 0.8951 0.01286 0.0
O642 O 0.31867 0.86812 1.00838 0.0
Mg643 Mg 0.30115 0.83085 0.01357 0.0
C644 C 0.31249 0.88958 1.00893 0.0
C645 C 0.21296 0.9073 0.0243 0.0
O646 O 0.2079 0.88956 0.03839 0.0
O647 O 0.25121 0.8625 0.97936 0.0
O648 O 0.2777 0.83363 0.97887 0.0
O649 O 0.26102 0.87353 0.05831 0.0
O650 O 0.27238 0.84615 0.03361 0.0
C651 C 0.26121 0.84561 0.96878 0.0
C652 C 0.27123 0.85371 0.05511 0.0
O653 O 0.23208 0.90712 0.01237 0.0
Mg654 Mg 0.15652 0.52039 0.27632 0.0
O655 O 0.13418 0.51424 0.24076 0.0
O656 O 0.16129 0.51374 0.2123 0.0
Mg657 Mg 0.19994 0.52139 0.22884 0.0
C658 C 0.13939 0.51198 0.21899 0.0
C659 C 0.12455 0.5208 0.31875 0.0
O660 O 0.14444 0.53354 0.32526 0.0
O661 O 0.16958 0.48222 0.27541 0.0
O662 O 0.19835 0.48586 0.24847 0.0
O663 O 0.15597 0.55998 0.27327 0.0
O664 O 0.18502 0.53886 0.25964 0.0
C665 C 0.18684 0.47386 0.26387 0.0
C666 C 0.1765 0.55934 0.26296 0.0
O667 O 0.12315 0.51087 0.29829 0.0
Mg668 Mg 0.7859 0.65626 0.02414 0.0
O669 O 0.74987 0.63327 0.0183 0.0
O670 O 0.71994 0.65846 0.01378 0.0
Mg671 Mg 0.73583 0.69667 0.01848 0.0
C672 C 0.7274 0.63745 0.01442 0.0
C673 C 0.8296 0.6253 0.03028 0.0
O674 O 0.83532 0.64391 0.04396 0.0
O675 O 0.78507 0.66649 0.98467 0.0
O676 O 0.75644 0.69336 0.984 0.0
O677 O 0.78209 0.65816 0.0638 0.0
O678 O 0.76719 0.68379 0.03874 0.0
C679 C 0.77293 0.68221 0.97398 0.0
C680 C 0.77018 0.67704 0.06029 0.0
O681 O 0.80928 0.62419 0.01848 0.0
Mg682 Mg 0.90795 0.03631 0.25501 0.0
O683 O 0.8871 1.00011 0.24648 0.0
O684 O 0.9162 0.97487 0.23966 0.0
Mg685 Mg 0.95399 0.99423 0.2413 0.0
C686 C 0.89384 0.97934 0.24163 0.0
C687 C 0.87326 0.07481 0.26539 0.0
O688 O 0.89112 0.08529 0.25407 0.0
O689 O 0.92105 0.02293 0.29166 0.0
O690 O 0.951 0.99985 0.28157 0.0
O691 O 0.90689 0.04645 0.21656 0.0
O692 O 0.93687 0.02769 0.23376 0.0
C693 C 0.93868 1.00983 0.2972 0.0
C694 C 0.92756 0.03677 0.21486 0.0
O695 O 0.87401 0.05274 0.26956 0.0
Mg696 Mg 0.28563 0.15654 0.52641 0.0
O697 O 0.25019 0.13297 0.51948 0.0
O698 O 0.21969 0.15752 0.51524 0.0
Mg699 Mg 0.23482 0.19591 0.52156 0.0
C700 C 0.22766 0.13672 0.5154 0.0
C701 C 0.32872 0.12496 0.53326 0.0
O702 O 0.33321 0.14219 0.54892 0.0
O703 O 0.285 0.16802 0.4873 0.0
O704 O 0.25577 0.19424 0.48711 0.0
O705 O 0.28143 0.15671 0.56593 0.0
O706 O 0.2665 0.18349 0.54213 0.0
C707 C 0.27261 0.18375 0.47693 0.0
C708 C 0.26957 0.17575 0.56335 0.0
O709 O 0.30947 0.12501 0.51986 0.0
Mg710 Mg 0.41005 0.53932 0.75579 0.0
O711 O 0.38712 0.50423 0.74777 0.0
O712 O 0.41405 0.47681 0.74086 0.0
Mg713 Mg 0.4529 0.49381 0.74213 0.0
C714 C 0.39219 0.48289 0.74294 0.0
C715 C 0.37628 0.57924 0.76159 0.0
O716 O 0.3925 0.58642 0.74646 0.0
O717 O 0.42294 0.52605 0.79265 0.0
O718 O 0.45125 0.50118 0.78227 0.0
O719 O 0.40947 0.5488 0.71709 0.0
O720 O 0.4377 0.52803 0.73453 0.0
C721 C 0.43994 0.51214 0.79801 0.0
C722 C 0.42922 0.53753 0.71552 0.0
O723 O 0.37743 0.55851 0.77005 0.0
Mg724 Mg 0.75395 0.37413 0.51961 0.0
O725 O 0.79013 0.39534 0.51312 0.0
O726 O 0.81878 0.36883 0.5105 0.0
Mg727 Mg 0.80169 0.3316 0.51695 0.0
C728 C 0.8121 0.39011 0.50989 0.0
C729 C 0.71222 0.40666 0.52368 0.0
O730 O 0.70765 0.38944 0.53851 0.0
O731 O 0.75137 0.36077 0.48089 0.0
O732 O 0.77894 0.33289 0.48158 0.0
O733 O 0.76072 0.37594 0.5591 0.0
O734 O 0.77223 0.34685 0.53645 0.0
C735 C 0.76214 0.34404 0.4709 0.0
C736 C 0.77096 0.35592 0.55739 0.0
O737 O 0.73131 0.40637 0.51171 0.0
Mg738 Mg 0.65745 0.02095 0.77846 0.0
O739 O 0.63518 0.01512 0.74286 0.0
O740 O 0.66227 0.01437 0.7144 0.0
Mg741 Mg 0.70095 0.02162 0.73103 0.0
C742 C 0.64037 0.01284 0.72109 0.0
C743 C 0.62568 0.02021 0.82128 0.0
O744 O 0.64625 0.03128 0.82871 0.0
O745 O 0.67007 0.98261 0.77744 0.0
O746 O 0.69886 0.98604 0.75049 0.0
O747 O 0.65738 0.06058 0.77551 0.0
O748 O 0.68619 0.03915 0.76188 0.0
C749 C 0.68722 0.9741 0.76585 0.0
C750 C 0.6779 0.05973 0.76521 0.0
O751 O 0.62381 1.01177 0.80018 0.0
Mg752 Mg 0.04011 0.26654 0.90359 0.0
O753 O 1.00787 0.25939 0.87673 0.0
O754 O 0.9749 0.24765 0.89619 0.0
Mg755 Mg 0.98686 0.24513 0.93568 0.0
C756 C 0.98528 0.25293 0.87701 0.0
C757 C 0.08304 0.27752 0.87167 0.0
O758 O 0.09072 0.26039 0.88512 0.0
O759 O 0.02402 0.30091 0.91699 0.0
O760 O 0.99388 0.2856 0.93863 0.0
O761 O 0.05055 0.22873 0.90131 0.0
O762 O 0.02531 0.24183 0.9272 0.0
C763 C 1.00683 0.30326 0.93131 0.0
C764 C 0.03671 0.22447 0.91889 0.0
O765 O 0.06203 0.2852 0.87475 0.0
Mg766 Mg 0.54266 0.76965 0.40286 0.0
O767 O 0.50807 0.76143 0.37911 0.0
O768 O 0.47808 0.75081 0.40293 0.0
Mg769 Mg 0.49424 0.74908 0.44115 0.0
C770 C 0.48579 0.75529 0.38236 0.0
C771 C 0.58384 0.78275 0.37031 0.0
O772 O 0.59357 0.76862 0.38596 0.0
O773 O 0.52758 0.80413 0.41692 0.0
O774 O 0.50087 0.78974 0.44274 0.0
O775 O 0.55355 0.73207 0.40093 0.0
O776 O 0.53145 0.7454 0.42865 0.0
C777 C 0.51245 0.8071 0.43318 0.0
C778 C 0.54333 0.72816 0.42083 0.0
O779 O 0.56171 0.78787 0.37206 0.0
Mg780 Mg 1.00121 0.76065 0.61849 0.0
O781 O 0.03734 0.75272 0.63884 0.0
O782 O 0.06409 0.74452 0.61147 0.0
Mg783 Mg 0.045 0.74485 0.57441 0.0
C784 C 0.05865 0.74738 0.63307 0.0
C785 C 0.96359 0.77179 0.65601 0.0
O786 O 0.95042 0.75807 0.64089 0.0
O787 O 0.01734 0.79669 0.606 0.0
O788 O 0.04099 0.78521 0.57705 0.0
O789 O 0.9882 0.7222 0.6187 0.0
O790 O 1.00957 0.73834 0.59037 0.0
C791 C 0.03136 0.8014 0.58894 0.0
C792 C 0.99873 0.71977 0.5988 0.0
O793 O 0.98589 0.77686 0.65201 0.0
Mg794 Mg 0.50141 0.26063 0.12025 0.0
O795 O 0.5374 0.25289 0.141 0.0
O796 O 0.56453 0.24472 0.11396 0.0
Mg797 Mg 0.54565 0.24443 0.07676 0.0
C798 C 0.55884 0.24773 0.13546 0.0
C799 C 0.46355 0.27186 0.15753 0.0
O800 O 0.45053 0.2578 0.14258 0.0
O801 O 0.51768 0.29654 0.10754 0.0
O802 O 0.5415 0.28481 0.07882 0.0
O803 O 0.48815 0.22227 0.12063 0.0
O804 O 0.51006 0.238 0.09247 0.0
C805 C 0.53176 0.3011 0.0905 0.0
C806 C 0.49893 0.21958 0.1009 0.0
O807 O 0.48579 0.27713 0.15348 0.0
C808 C 0.22393 0.81146 0.92016 0.0
C809 C 0.23836 0.81595 0.90027 0.0
C810 C 0.26688 0.84183 0.92491 0.0
C811 C 0.25206 0.83784 0.94461 0.0
N812 N 0.21447 0.82227 0.96036 0.0
N813 N 0.27099 0.83833 0.88227 0.0
C814 C 0.22986 0.82384 0.94196 0.0
C815 C 0.2591 0.83204 0.90223 0.0
N816 N 0.20524 0.79446 0.91852 0.0
N817 N 0.28861 0.85464 0.92804 0.0
H818 H 0.26589 0.83131 0.86548 0.0
H819 H 0.2847 0.85172 0.88194 0.0
H820 H 0.29413 0.86319 0.94404 0.0
H821 H 0.30169 0.85592 0.91527 0.0
H822 H 0.19586 0.78825 0.93302 0.0
H823 H 0.20018 0.78513 0.90286 0.0
H824 H 0.1968 0.81466 0.95873 0.0
H825 H 0.21856 0.83018 0.97694 0.0
C826 C 0.0642 0.53041 0.34769 0.0
C827 C 0.0707 0.52451 0.37143 0.0
C828 C 0.10897 0.50935 0.35822 0.0
C829 C 0.10428 0.51878 0.33539 0.0
N830 N 0.078 0.53967 0.30844 0.0
N831 N 0.09982 0.50948 0.3999 0.0
C832 C 0.08185 0.52934 0.32997 0.0
C833 C 0.09312 0.51399 0.37683 0.0
N834 N 0.04108 0.53696 0.34214 0.0
N835 N 0.12847 0.49561 0.36195 0.0
H836 H 0.08855 0.51221 0.41398 0.0
H837 H 0.11714 0.50454 0.40532 0.0
H838 H 0.14017 0.49164 0.34854 0.0
H839 H 0.13167 0.4863 0.37749 0.0
H840 H 0.03437 0.53924 0.32482 0.0
H841 H 0.02786 0.53803 0.35478 0.0
H842 H 0.0634 0.55016 0.30447 0.0
H843 H 0.09029 0.53912 0.29491 0.0
C844 C 0.76205 0.70082 0.91049 0.0
C845 C 0.78398 0.7144 0.90678 0.0
C846 C 0.801 0.70247 0.94549 0.0
C847 C 0.77879 0.68941 0.94952 0.0
N848 N 0.74098 0.67095 0.93386 0.0
N849 N 0.82636 0.72326 0.91737 0.0
C850 C 0.76024 0.68687 0.93126 0.0
C851 C 0.80418 0.71348 0.92317 0.0
N852 N 0.7426 0.70215 0.89471 0.0
N853 N 0.81838 0.70576 0.96349 0.0
H854 H 0.82909 0.73164 0.90125 0.0
H855 H 0.84241 0.72123 0.92745 0.0
H856 H 0.817 0.69782 0.97998 0.0
H857 H 0.83352 0.71753 0.96266 0.0
H858 H 0.72519 0.69502 0.89775 0.0
H859 H 0.74355 0.71156 0.87895 0.0
H860 H 0.72783 0.66661 0.92046 0.0
H861 H 0.73945 0.6604 0.94884 0.0
C862 C 0.96451 0.02014 0.36081 0.0
C863 C 0.96768 0.99638 0.36763 0.0
C864 C 0.94556 0.98227 0.33095 0.0
C865 C 0.94572 1.00584 0.32257 0.0
N866 N 0.95753 0.0473 0.32858 0.0
N867 N 0.9636 0.95457 0.35807 0.0
C868 C 0.95551 0.02488 0.33735 0.0
C869 C 0.95865 0.97734 0.35248 0.0
N870 N 0.96976 0.03817 0.37689 0.0
N871 N 0.93246 0.96466 0.31846 0.0
H872 H 0.97326 0.95014 0.37356 0.0
H873 H 0.95991 0.94025 0.34644 0.0
H874 H 0.92238 0.96778 0.3028 0.0
H875 H 0.92959 0.94755 0.32477 0.0
H876 H 0.96549 0.05563 0.37384 0.0
H877 H 0.97638 0.03531 0.39418 0.0
H878 H 0.96715 0.06133 0.33749 0.0
H879 H 0.95116 0.0516 0.31159 0.0
C880 C 0.23135 0.21146 0.60444 0.0
C881 C 0.24892 0.2183 0.62279 0.0
C882 C 0.2802 0.19829 0.60154 0.0
C883 C 0.26217 0.18962 0.58428 0.0
N884 N 0.21975 0.18421 0.5719 0.0
N885 N 0.28886 0.21432 0.64125 0.0
C886 C 0.23749 0.1952 0.58644 0.0
C887 C 0.273 0.21053 0.62206 0.0
N888 N 0.20903 0.22106 0.60379 0.0
N889 N 0.30438 0.19599 0.5978 0.0
H890 H 0.28429 0.22323 0.6566 0.0
H891 H 0.30572 0.20676 0.64279 0.0
H892 H 0.31067 0.18776 0.58278 0.0
H893 H 0.31834 0.20427 0.60847 0.0
H894 H 0.19644 0.21875 0.58951 0.0
H895 H 0.20388 0.23304 0.61661 0.0
H896 H 0.20117 0.18563 0.57411 0.0
H897 H 0.22363 0.17178 0.55903 0.0
C898 C 0.44135 0.53253 0.6495 0.0
C899 C 0.46651 0.53963 0.64966 0.0
C900 C 0.46726 0.54517 0.69286 0.0
C901 C 0.44236 0.5369 0.69299 0.0
N902 N 0.40699 0.51848 0.67204 0.0
N903 N 0.50468 0.54761 0.67159 0.0
C904 C 0.42976 0.52933 0.67145 0.0
C905 C 0.47986 0.5442 0.67142 0.0
N906 N 0.42837 0.52957 0.62835 0.0
N907 N 0.47848 0.5556 0.71276 0.0
H908 H 0.51448 0.54742 0.65616 0.0
H909 H 0.5157 0.54842 0.6871 0.0
H910 H 0.46983 0.55781 0.72864 0.0
H911 H 0.49566 0.5643 0.71288 0.0
H912 H 0.40945 0.5272 0.62696 0.0
H913 H 0.43643 0.53097 0.61198 0.0
H914 H 0.39788 0.51031 0.65732 0.0
H915 H 0.39799 0.51578 0.68775 0.0
C916 C 0.80614 0.31741 0.60064 0.0
C917 C 0.78815 0.3121 0.61736 0.0
C918 C 0.75919 0.33578 0.59504 0.0
C919 C 0.77751 0.34217 0.57888 0.0
N920 N 0.81973 0.34306 0.56908 0.0
N921 N 0.74985 0.32072 0.63382 0.0
C922 C 0.80141 0.33415 0.58251 0.0
C923 C 0.76544 0.32282 0.61564 0.0
N924 N 0.82737 0.30587 0.60159 0.0
N925 N 0.73541 0.3406 0.58998 0.0
H926 H 0.75378 0.31124 0.64915 0.0
H927 H 0.73418 0.33023 0.63473 0.0
H928 H 0.72958 0.34921 0.5747 0.0
H929 H 0.72099 0.33397 0.59976 0.0
H930 H 0.84 0.30689 0.58836 0.0
H931 H 0.83165 0.29395 0.61492 0.0
H932 H 0.83802 0.33975 0.57229 0.0
H933 H 0.81684 0.35561 0.55602 0.0
C934 C 0.58816 0.9822 0.68323 0.0
C935 C 0.58707 0.99777 0.66369 0.0
C936 C 0.6168 0.02541 0.68467 0.0
C937 C 0.62039 1.0084 0.70262 0.0
N938 N 0.61107 0.96956 0.71814 0.0
N939 N 0.60222 0.03312 0.64447 0.0
C940 C 0.60632 0.98657 0.70181 0.0
C941 C 0.6018 0.01918 0.6641 0.0
N942 N 0.57151 0.96343 0.68418 0.0
N943 N 0.62718 0.04781 0.68768 0.0
H944 H 0.59137 0.02931 0.62913 0.0
H945 H 0.61467 0.04744 0.64268 0.0
H946 H 0.63765 0.05312 0.70286 0.0
H947 H 0.62339 0.06171 0.6764 0.0
H948 H 0.56968 0.95282 0.69902 0.0
H949 H 0.55803 0.95971 0.67087 0.0
H950 H 0.60355 0.95228 0.71685 0.0
H951 H 0.62393 0.97218 0.73219 0.0
C952 C 0.94823 0.22817 0.82246 0.0
C953 C 0.94196 0.24946 0.81115 0.0
C954 C 0.96932 0.27187 0.83974 0.0
C955 C 0.97076 0.2515 0.8541 0.0
N956 N 0.9626 0.20932 0.85831 0.0
N957 N 0.96448 0.28477 0.7994 0.0
C958 C 0.96048 0.22934 0.84525 0.0
C959 C 0.95756 0.26972 0.81686 0.0
N960 N 0.94671 0.20743 0.80973 0.0
N961 N 0.9784 0.2935 0.84803 0.0
H962 H 0.95978 0.281 0.78155 0.0
H963 H 0.97757 0.29866 0.80222 0.0
H964 H 0.98666 0.29615 0.86493 0.0
H965 H 0.97566 0.30907 0.83879 0.0
H966 H 0.9531 0.19163 0.81623 0.0
H967 H 0.94254 0.20707 0.79148 0.0
H968 H 0.95306 0.19337 0.85373 0.0
H969 H 0.97274 0.20895 0.87434 0.0
C970 C 0.49769 0.8722 0.4406 0.0
C971 C 0.50084 0.8749 0.46565 0.0
C972 C 0.51631 0.83507 0.46805 0.0
C973 C 0.51004 0.83116 0.44356 0.0
N974 N 0.49247 0.84514 0.40678 0.0
N975 N 0.50964 0.85754 0.50376 0.0
C976 C 0.50026 0.84956 0.42982 0.0
C977 C 0.50929 0.85599 0.47953 0.0
N978 N 0.49276 0.89142 0.42709 0.0
N979 N 0.52972 0.8191 0.4802 0.0
H980 H 0.50445 0.87243 0.51296 0.0
H981 H 0.51296 0.84327 0.51472 0.0
H982 H 0.53579 0.80383 0.4723 0.0
H983 H 0.53699 0.82219 0.4974 0.0
H984 H 0.49269 0.8912 0.40863 0.0
H985 H 0.49082 0.90822 0.4344 0.0
H986 H 0.48266 0.85693 0.39663 0.0
H987 H 0.49422 0.82887 0.39832 0.0
C988 C 0.12285 0.31808 0.8337 0.0
C989 C 0.13347 0.30093 0.81935 0.0
C990 C 0.10625 0.26989 0.83537 0.0
C991 C 0.09841 0.28637 0.85225 0.0
N992 N 0.10104 0.3259 0.86917 0.0
N993 N 0.13734 0.25994 0.80837 0.0
C994 C 0.10697 0.31049 0.85173 0.0
C995 C 0.12561 0.27667 0.82054 0.0
N996 N 0.12767 0.34164 0.82981 0.0
N997 N 0.09469 0.24792 0.83305 0.0
H998 H 0.15163 0.2641 0.79733 0.0
H999 H 0.13426 0.2418 0.81072 0.0
H1000 H 0.07999 0.24257 0.84317 0.0
H1001 H 0.09794 0.23597 0.81949 0.0
H1002 H 0.11861 0.35501 0.83801 0.0
H1003 H 0.13915 0.34779 0.81671 0.0
H1004 H 0.10901 0.34296 0.8713 0.0
H1005 H 0.08955 0.32109 0.88272 0.0
C1006 C 0.55528 0.663 0.43154 0.0
C1007 C 0.5448 0.65866 0.45357 0.0
C1008 C 0.53404 0.70035 0.45581 0.0
C1009 C 0.54561 0.70494 0.43388 0.0
N1010 N 0.57791 0.69193 0.40949 0.0
N1011 N 0.52698 0.6736 0.48857 0.0
C1012 C 0.55912 0.68664 0.42394 0.0
C1013 C 0.53459 0.67736 0.46608 0.0
N1014 N 0.56217 0.64451 0.41801 0.0
N1015 N 0.52383 0.7181 0.46787 0.0
H1016 H 0.52677 0.65706 0.49656 0.0
H1017 H 0.52212 0.68699 0.49999 0.0
H1018 H 0.53012 0.73573 0.46709 0.0
H1019 H 0.51039 0.71504 0.48009 0.0
H1020 H 0.56793 0.64663 0.40076 0.0
H1021 H 0.55969 0.62689 0.42312 0.0
H1022 H 0.58903 0.67915 0.40304 0.0
H1023 H 0.58547 0.70905 0.40768 0.0
C1024 C 0.94721 0.78415 0.71993 0.0
C1025 C 0.92404 0.79366 0.7158 0.0
C1026 C 0.93275 0.79738 0.67375 0.0
C1027 C 0.95204 0.78179 0.677 0.0
N1028 N 0.9788 0.76128 0.70398 0.0
N1029 N 0.90944 0.82627 0.69333 0.0
C1030 C 0.95997 0.77581 0.70036 0.0
C1031 C 0.92057 0.80529 0.69388 0.0
N1032 N 0.95841 0.78615 0.74197 0.0
N1033 N 0.92604 0.80476 0.65158 0.0
H1034 H 0.90488 0.83476 0.70895 0.0
H1035 H 0.90825 0.8367 0.67826 0.0
H1036 H 0.93555 0.80077 0.63655 0.0
H1037 H 0.91036 0.81397 0.64815 0.0
H1038 H 0.97628 0.78151 0.74559 0.0
H1039 H 0.95078 0.79545 0.75568 0.0
H1040 H 0.98339 0.75449 0.72059 0.0
H1041 H 0.98867 0.7547 0.69021 0.0
C1042 C 0.05077 0.86737 0.58569 0.0
C1043 C 0.04543 0.87143 0.56122 0.0
C1044 C 0.02631 0.83131 0.55699 0.0
C1045 C 0.03458 0.82618 0.58049 0.0
N1046 N 0.05672 0.83854 0.61672 0.0
N1047 N 0.03133 0.85603 0.52264 0.0
C1048 C 0.04721 0.84406 0.59482 0.0
C1049 C 0.03396 0.85309 0.54663 0.0
N1050 N 0.05875 0.88592 0.60027 0.0
N1051 N 1.0105 0.81559 0.54478 0.0
H1052 H 0.03684 0.8716 0.51422 0.0
H1053 H 0.02568 0.84232 0.51083 0.0
H1054 H 1.00403 0.79966 0.55194 0.0
H1055 H 1.00185 0.81941 0.52858 0.0
H1056 H 0.06064 0.88467 0.61865 0.0
H1057 H 0.06148 0.90317 0.59418 0.0
H1058 H 0.06846 0.85002 0.62694 0.0
H1059 H 0.05428 0.82177 0.62401 0.0
C1060 C 0.10946 0.71852 0.66862 0.0
C1061 C 0.11564 0.73598 0.68648 0.0
C1062 C 0.08523 0.76164 0.66872 0.0
C1063 C 0.07768 0.74335 0.65206 0.0
N1064 N 0.07929 0.70252 0.63936 0.0
N1065 N 0.10688 0.77247 0.70607 0.0
C1066 C 0.08888 0.72126 0.65291 0.0
C1067 C 0.10275 0.75706 0.68728 0.0
N1068 N 0.12376 0.69965 0.66611 0.0
N1069 N 0.07657 0.78374 0.66618 0.0
H1070 H 0.11969 0.76978 0.71982 0.0
H1071 H 0.09624 0.78683 0.70904 0.0
H1072 H 0.06403 0.78792 0.65269 0.0
H1073 H 0.08337 0.79845 0.67614 0.0
H1074 H 0.12183 0.68783 0.65175 0.0
H1075 H 0.13899 0.69693 0.67722 0.0
H1076 H 0.08494 0.68532 0.64121 0.0
H1077 H 0.06407 0.70361 0.62784 0.0
C1078 C 0.98677 0.6741 0.54856 0.0
C1079 C 0.99099 0.65277 0.56063 0.0
C1080 C 1.00419 0.6757 0.59669 0.0
C1081 C 0.99709 0.69677 0.58545 0.0
N1082 N 0.97731 0.71526 0.55185 0.0
N1083 N 1.00158 0.63267 0.59675 0.0
C1084 C 0.98743 0.69583 0.5616 0.0
C1085 C 0.99922 0.6534 0.58485 0.0
N1086 N 0.98226 0.6736 0.52452 0.0
N1087 N 0.01637 0.67706 0.61835 0.0
H1088 H 0.99878 0.61607 0.5885 0.0
H1089 H 1.00471 0.63186 0.61505 0.0
H1090 H 0.02042 0.69304 0.62747 0.0
H1091 H 0.02433 0.6627 0.62636 0.0
H1092 H 0.98171 0.68882 0.51433 0.0
H1093 H 0.98131 0.65796 0.51442 0.0
H1094 H 0.96762 0.71481 0.53555 0.0
H1095 H 0.97632 0.73132 0.56093 0.0
C1096 C 0.85369 0.92429 0.25321 0.0
C1097 C 0.84673 0.91644 0.22966 0.0
C1098 C 0.87247 0.94907 0.21443 0.0
C1099 C 0.87548 0.95931 0.23747 0.0
N1100 N 0.86821 0.95693 0.27925 0.0
N1101 N 0.86727 0.912 0.19309 0.0
C1102 C 0.86568 0.94709 0.25699 0.0
C1103 C 0.86105 0.92613 0.2114 0.0
N1104 N 0.85378 0.90839 0.27118 0.0
N1105 N 0.88018 0.96136 0.19524 0.0
H1106 H 0.863 0.89377 0.19277 0.0
H1107 H 0.87951 0.91761 0.18044 0.0
H1108 H 0.88762 0.9787 0.19667 0.0
H1109 H 0.87665 0.9552 0.17785 0.0
H1110 H 0.86051 0.91257 0.28836 0.0
H1111 H 0.85127 0.89021 0.26778 0.0
H1112 H 0.85939 0.94969 0.29368 0.0
H1113 H 0.87744 0.97328 0.2828 0.0
C1114 C 0.84356 0.12681 0.29305 0.0
C1115 C 0.81883 0.12268 0.28507 0.0
C1116 C 0.82918 0.08569 0.26536 0.0
C1117 C 0.85368 0.08938 0.27425 0.0
N1118 N 0.88271 0.11016 0.30132 0.0
N1119 N 0.78703 0.09618 0.26767 0.0
C1120 C 0.86038 0.10896 0.28958 0.0
C1121 C 0.8113 0.10144 0.27247 0.0
N1122 N 0.85126 0.14822 0.30305 0.0
N1123 N 0.82321 0.06788 0.24919 0.0
H1124 H 0.77354 0.1074 0.27247 0.0
H1125 H 0.78012 0.0799 0.26075 0.0
H1126 H 0.83568 0.05588 0.24373 0.0
H1127 H 0.8064 0.06597 0.23995 0.0
H1128 H 0.86956 0.15324 0.3067 0.0
H1129 H 0.83962 0.16185 0.30587 0.0
H1130 H 0.88777 0.12269 0.31456 0.0
H1131 H 0.89529 0.09711 0.29959 0.0
C1132 C 0.37266 0.92629 0.01371 0.0
C1133 C 0.37011 0.94136 0.99391 0.0
C1134 C 0.32936 0.92292 0.98415 0.0
C1135 C 0.33145 0.90862 1.0046 0.0
N1136 N 0.3527 0.90019 0.04156 0.0
N1137 N 0.3444 0.9576 0.96321 0.0
C1138 C 0.35242 0.91137 0.0202 0.0
C1139 C 0.3479 0.94079 0.98006 0.0
N1140 N 0.39473 0.92551 0.02575 0.0
N1141 N 0.31037 0.91861 0.96794 0.0
H1142 H 0.35761 0.97088 0.95972 0.0
H1143 H 0.32772 0.95969 0.95422 0.0
H1144 H 0.2965 0.90563 0.97013 0.0
H1145 H 0.30936 0.92655 0.95139 0.0
H1146 H 0.39856 0.91294 0.03852 0.0
H1147 H 0.40991 0.93634 0.02175 0.0
H1148 H 0.36631 0.90339 0.0548 0.0
H1149 H 0.33813 0.88929 0.04697 0.0
C1150 C 0.23182 0.43041 0.28665 0.0
C1151 C 0.22278 0.40915 0.27491 0.0
C1152 C 0.18742 0.42954 0.25868 0.0
C1153 C 0.19651 0.45069 0.27046 0.0
N1154 N 0.22368 0.47004 0.30013 0.0
N1155 N 0.18978 0.38689 0.25407 0.0
C1156 C 0.21749 0.45064 0.28599 0.0
C1157 C 0.1998 0.40822 0.26231 0.0
N1158 N 0.25471 0.43172 0.29727 0.0
N1159 N 0.16751 0.43009 0.24337 0.0
H1160 H 0.19846 0.37106 0.2565 0.0
H1161 H 0.17215 0.38452 0.24662 0.0
H1162 H 0.15761 0.44521 0.24113 0.0
H1163 H 0.1615 0.41607 0.23209 0.0
H1164 H 0.2635 0.44748 0.30354 0.0
H1165 H 0.26581 0.41735 0.2983 0.0
H1166 H 0.23731 0.47034 0.31356 0.0
H1167 H 0.21363 0.4852 0.29994 0.0
C1168 C 0.17116 0.09565 0.52021 0.0
C1169 C 0.17139 0.08229 0.49874 0.0
C1170 C 0.20971 0.10351 0.48875 0.0
C1171 C 0.20982 0.11632 0.51057 0.0
N1172 N 0.19419 0.12051 0.54953 0.0
N1173 N 0.19319 0.06975 0.46506 0.0
C1174 C 0.19159 0.11112 0.52706 0.0
C1175 C 0.19145 0.08505 0.48379 0.0
N1176 N 0.15098 0.09434 0.53357 0.0
N1177 N 0.22635 0.10969 0.47229 0.0
H1178 H 0.18013 0.05607 0.46096 0.0
H1179 H 0.20852 0.06924 0.45489 0.0
H1180 H 0.24022 0.12281 0.47539 0.0
H1181 H 0.22544 0.10301 0.45497 0.0
H1182 H 0.14856 0.10568 0.54786 0.0
H1183 H 0.13573 0.08309 0.52931 0.0
H1184 H 0.18279 0.11567 0.56312 0.0
H1185 H 0.20929 0.13136 0.55525 0.0
C1186 C 0.7155 0.11807 0.7749 0.0
C1187 C 0.72715 0.1199 0.75303 0.0
C1188 C 0.7019 0.08558 0.73744 0.0
C1189 C 0.69308 0.08162 0.76042 0.0
N1190 N 0.69478 0.09227 0.80222 0.0
N1191 N 0.73303 0.10447 0.71378 0.0
C1192 C 0.70051 0.09753 0.77945 0.0
C1193 C 0.72066 0.1035 0.73427 0.0
N1194 N 0.71868 0.13609 0.79132 0.0
N1195 N 0.69184 0.07264 0.71854 0.0
H1196 H 0.74655 0.11757 0.71068 0.0
H1197 H 0.73109 0.0914 0.70056 0.0
H1198 H 0.67774 0.05982 0.72032 0.0
H1199 H 0.69575 0.07612 0.70099 0.0
H1200 H 0.70866 0.1369 0.80653 0.0
H1201 H 0.72959 0.15139 0.78858 0.0
H1202 H 0.70211 0.10187 0.81697 0.0
H1203 H 0.68465 0.07705 0.80678 0.0
C1204 C 0.36271 0.07133 0.55351 0.0
C1205 C 0.38324 0.07353 0.53915 0.0
C1206 C 0.36384 0.1048 0.51637 0.0
C1207 C 0.34523 0.105 0.53299 0.0
N1208 N 0.32641 0.08881 0.56743 0.0
N1209 N 0.40409 0.09241 0.50717 0.0
C1210 C 0.34438 0.08817 0.55144 0.0
C1211 C 0.38385 0.09005 0.52038 0.0
N1212 N 0.36069 0.05293 0.56894 0.0
N1213 N 0.36238 0.11882 0.49684 0.0
H1214 H 0.41877 0.08156 0.50926 0.0
H1215 H 0.40704 0.1059 0.49508 0.0
H1216 H 0.34814 0.13003 0.4937 0.0
H1217 H 0.37403 0.11801 0.48284 0.0
H1218 H 0.3452 0.04888 0.57836 0.0
H1219 H 0.37386 0.04037 0.57086 0.0
H1220 H 0.32635 0.07915 0.58301 0.0
H1221 H 0.31192 0.09995 0.56562 0.0
C1222 C 0.65638 0.44077 0.50818 0.0
C1223 C 0.65764 0.45777 0.52701 0.0
C1224 C 0.69731 0.44399 0.54096 0.0
C1225 C 0.69577 0.42663 0.52249 0.0
N1226 N 0.67718 0.41165 0.48555 0.0
N1227 N 0.68132 0.47945 0.5578 0.0
C1228 C 0.6764 0.42617 0.50503 0.0
C1229 C 0.67884 0.46064 0.54226 0.0
N1230 N 0.63556 0.43784 0.49406 0.0
N1231 N 0.71605 0.44397 0.55773 0.0
H1232 H 0.66805 0.49187 0.55918 0.0
H1233 H 0.69722 0.48395 0.56791 0.0
H1234 H 0.73056 0.43289 0.55655 0.0
H1235 H 0.71675 0.45409 0.57331 0.0
H1236 H 0.63222 0.42402 0.4818 0.0
H1237 H 0.62083 0.4486 0.49549 0.0
H1238 H 0.66486 0.41191 0.47103 0.0
H1239 H 0.69149 0.4006 0.48301 0.0
C1240 C 0.76507 0.32482 0.40622 0.0
C1241 C 0.74121 0.31445 0.40174 0.0
C1242 C 0.73046 0.32476 0.44225 0.0
C1243 C 0.75406 0.33591 0.44649 0.0
N1244 N 0.79209 0.35079 0.43135 0.0
N1245 N 0.69971 0.30862 0.41345 0.0
C1246 C 0.77086 0.3372 0.42808 0.0
C1247 C 0.72343 0.31576 0.41913 0.0
N1248 N 0.78239 0.32223 0.38984 0.0
N1249 N 0.71525 0.32148 0.46063 0.0
H1250 H 0.69398 0.30146 0.39688 0.0
H1251 H 0.68539 0.31159 0.42441 0.0
H1252 H 0.71959 0.32768 0.47785 0.0
H1253 H 0.69909 0.31099 0.4593 0.0
H1254 H 0.8008 0.32695 0.39308 0.0
H1255 H 0.77863 0.31383 0.37341 0.0
H1256 H 0.80407 0.35443 0.41792 0.0
H1257 H 0.79671 0.36024 0.44706 0.0
C1258 C 0.59225 1.01177 0.8781 0.0
C1259 C 0.5713 0.02488 0.87333 0.0
C1260 C 0.58402 0.03193 0.83267 0.0
C1261 C 0.60499 0.01881 0.83745 0.0
N1262 N 0.62593 0.99139 0.86224 0.0
N1263 N 0.54411 0.04251 0.84488 0.0
C1264 C 0.60805 1.00715 0.85943 0.0
C1265 C 0.56616 0.03329 0.85015 0.0
N1266 N 0.59768 1.00471 0.90073 0.0
N1267 N 0.58188 0.04429 0.81207 0.0
H1268 H 0.53077 0.04386 0.85737 0.0
H1269 H 0.53818 0.04683 0.82777 0.0
H1270 H 0.59435 0.04361 0.79872 0.0
H1271 H 0.56863 0.05649 0.80883 0.0
H1272 H 0.61414 0.99764 0.90596 0.0
H1273 H 0.58634 1.00732 0.91477 0.0
H1274 H 0.62776 0.98056 0.87694 0.0
H1275 H 0.63756 0.98749 0.84875 0.0
C1276 C 0.3039 0.21543 0.42626 0.0
C1277 C 0.28375 0.21646 0.40982 0.0
C1278 C 0.25976 0.18914 0.43432 0.0
C1279 C 0.27834 0.19148 0.45258 0.0
N1280 N 0.31793 0.20777 0.46664 0.0
N1281 N 0.24218 0.20475 0.39791 0.0
C1282 C 0.3006 0.20449 0.4486 0.0
C1283 C 0.26168 0.20314 0.41359 0.0
N1284 N 0.32617 0.225 0.42047 0.0
N1285 N 0.24041 0.17331 0.43682 0.0
H1286 H 0.24313 0.21425 0.38221 0.0
H1287 H 0.22471 0.19783 0.40104 0.0
H1288 H 0.23875 0.16271 0.45175 0.0
H1289 H 0.2273 0.16906 0.42335 0.0
H1290 H 0.34217 0.22284 0.43059 0.0
H1291 H 0.32902 0.23331 0.40433 0.0
H1292 H 0.33312 0.21948 0.4658 0.0
H1293 H 0.31643 0.19997 0.48319 0.0
C1294 C 0.4454 0.49512 0.86348 0.0
C1295 C 0.47077 0.50025 0.86815 0.0
C1296 C 0.47355 0.51849 0.82905 0.0
C1297 C 0.44917 0.51031 0.8231 0.0
N1298 N 0.4121 0.48931 0.83384 0.0
N1299 N 0.50982 0.51407 0.85414 0.0
C1300 C 0.43502 0.4984 0.84018 0.0
C1301 C 0.48505 0.51137 0.85066 0.0
N1302 N 0.43119 0.48752 0.88145 0.0
N1303 N 0.48558 0.53353 0.81419 0.0
H1304 H 0.5191 0.50893 0.86959 0.0
H1305 H 0.52142 0.51951 0.84091 0.0
H1306 H 0.47758 0.53943 0.79836 0.0
H1307 H 0.50245 0.54204 0.81865 0.0
H1308 H 0.41224 0.48567 0.87987 0.0
H1309 H 0.43821 0.485 0.89867 0.0
H1310 H 0.4019 0.47808 0.84455 0.0
H1311 H 0.40385 0.49176 0.81712 0.0
C1312 C 0.74188 0.69419 0.11847 0.0
C1313 C 0.74643 0.71917 0.11867 0.0
C1314 C 0.76836 0.71603 0.08193 0.0
C1315 C 0.76169 0.69139 0.08037 0.0
N1316 N 0.73828 0.6578 0.09504 0.0
N1317 N 0.75933 0.75437 0.09788 0.0
C1318 C 0.74739 0.68065 0.09808 0.0
C1319 C 0.75825 0.73024 0.09956 0.0
N1320 N 0.73307 0.68329 0.13806 0.0
N1321 N 0.78546 0.72574 0.06751 0.0
H1322 H 0.75194 0.76544 0.11031 0.0
H1323 H 0.7654 0.76324 0.08299 0.0
H1324 H 0.79437 0.71592 0.05512 0.0
H1325 H 0.7928 0.74305 0.06964 0.0
H1326 H 0.73187 0.66496 0.13994 0.0
H1327 H 0.72893 0.69256 0.15334 0.0
H1328 H 0.72563 0.64985 0.10607 0.0
H1329 H 0.74159 0.64744 0.08021 0.0
C1330 C 0.95526 0.02192 0.15572 0.0
C1331 C 0.96676 0.04415 0.15031 0.0
C1332 C 0.95193 0.06151 0.18678 0.0
C1333 C 0.94146 0.03897 0.19283 0.0
N1334 N 0.93656 0.99694 0.18527 0.0
N1335 N 0.98006 0.08392 0.1625 0.0
C1336 C 0.94424 0.01891 0.17798 0.0
C1337 C 0.96618 0.06364 0.16636 0.0
N1338 N 0.95409 1.00395 0.13919 0.0
N1339 N 0.94819 0.08098 0.20054 0.0
H1340 H 0.99077 0.08612 0.1478 0.0
H1341 H 0.98267 0.09781 0.17478 0.0
H1342 H 0.93941 0.08008 0.21655 0.0
H1343 H 0.95253 0.09828 0.19546 0.0
H1344 H 0.94365 0.9882 0.14087 0.0
H1345 H 0.96213 1.00544 0.12283 0.0
H1346 H 0.94035 0.98127 0.17662 0.0
H1347 H 0.92787 0.99431 0.2011 0.0
C1348 C 0.27591 0.80042 0.09547 0.0
C1349 C 0.28963 0.81052 0.11527 0.0
C1350 C 0.29485 0.84798 0.09391 0.0
C1351 C 0.27848 0.83873 0.07548 0.0
N1352 N 0.24939 0.80752 0.06135 0.0
N1353 N 0.31049 0.8445 0.13462 0.0
C1354 C 0.26805 0.81525 0.07685 0.0
C1355 C 0.29876 0.83447 0.11482 0.0
N1356 N 0.27056 0.77653 0.09431 0.0
N1357 N 0.30717 0.86932 0.09112 0.0
H1358 H 0.31406 0.83498 0.15001 0.0
H1359 H 0.31518 0.86253 0.13639 0.0
H1360 H 0.30489 0.8795 0.07597 0.0
H1361 H 0.32115 0.87595 0.10279 0.0
H1362 H 0.2629 0.76785 0.07915 0.0
H1363 H 0.27596 0.76503 0.10764 0.0
H1364 H 0.2394 0.79153 0.06323 0.0
H1365 H 0.242 0.81801 0.0481 0.0
C1366 C 0.10082 0.51802 0.16195 0.0
C1367 C 0.08623 0.49652 0.16154 0.0
C1368 C 0.10553 0.48547 0.19969 0.0
C1369 C 0.11944 0.50739 0.20051 0.0
N1370 N 0.12594 0.54683 0.18555 0.0
N1371 N 0.07088 0.46211 0.18206 0.0
C1372 C 0.11574 0.52436 0.18255 0.0
C1373 C 0.08741 0.48097 0.18109 0.0
N1374 N 0.1012 0.53193 0.1423 0.0
N1375 N 0.11041 0.4685 0.21603 0.0
H1376 H 0.05742 0.45831 0.16874 0.0
H1377 H 0.06911 0.4515 0.1969 0.0
H1378 H 0.12325 0.47121 0.23007 0.0
H1379 H 0.10301 0.45117 0.21474 0.0
H1380 H 0.11357 0.54633 0.14052 0.0
H1381 H 0.09043 0.52803 0.12693 0.0
H1382 H 0.12204 0.5607 0.17426 0.0
H1383 H 0.13635 0.55223 0.20074 0.0
C1384 C 0.43424 0.73245 0.33909 0.0
C1385 C 0.43248 0.75189 0.32353 0.0
C1386 C 0.46489 0.77401 0.34713 0.0
C1387 C 0.46801 0.75388 0.3616 0.0
N1388 N 0.45914 0.71228 0.36816 0.0
N1389 N 0.4494 0.78918 0.30973 0.0
C1390 C 0.45364 0.73261 0.35668 0.0
C1391 C 0.44882 0.77207 0.32665 0.0
N1392 N 0.41693 0.71417 0.33757 0.0
N1393 N 0.47629 0.79535 0.35355 0.0
H1394 H 0.43796 0.78838 0.29446 0.0
H1395 H 0.46271 0.803 0.30973 0.0
H1396 H 0.48784 0.79776 0.36861 0.0
H1397 H 0.47253 0.81116 0.3452 0.0
H1398 H 0.41569 0.70082 0.35009 0.0
H1399 H 0.40252 0.71336 0.32488 0.0
H1400 H 0.45095 0.69572 0.3636 0.0
H1401 H 0.47359 0.71151 0.38068 0.0
C1402 C 1.01055 0.35226 0.97761 0.0
C1403 C 0.99084 0.36619 0.97034 0.0
C1404 C 0.98046 0.33723 0.93804 0.0
C1405 C 1.00298 0.32667 0.94238 0.0
N1406 N 0.04045 0.325 0.9662 0.0
N1407 N 0.94912 0.35838 0.95624 0.0
C1408 C 0.01847 0.33467 0.96194 0.0
C1409 C 0.97331 0.35515 0.95382 0.0
N1410 N 0.01808 0.35206 1.00096 0.0
N1411 N 0.9658 0.33017 0.9188 0.0
H1412 H 0.94292 0.36742 0.97086 0.0
H1413 H 0.93533 0.34915 0.94612 0.0
H1414 H 0.97052 0.31709 0.90687 0.0
H1415 H 0.95021 0.33886 0.91365 0.0
H1416 H 0.03092 0.34068 1.0077 0.0
H1417 H 1.00841 0.36027 0.014 0.0
H1418 H 0.05316 0.33186 0.9791 0.0
H1419 H 0.04675 0.31154 0.95565 0.0
C1420 C 0.60993 0.7963 0.3099 0.0
C1421 C 0.63293 0.80716 0.3173 0.0
C1422 C 0.6208 0.80671 0.35864 0.0
C1423 C 0.59923 0.79309 0.35163 0.0
N1424 N 0.57418 0.7726 0.32086 0.0
N1425 N 0.66176 0.81988 0.349 0.0
C1426 C 0.59388 0.78743 0.32729 0.0
C1427 C 0.63874 0.81172 0.34176 0.0
N1428 N 0.60327 0.79486 0.28627 0.0
N1429 N 0.62384 0.81544 0.38136 0.0
H1430 H 0.67553 0.82369 0.33727 0.0
H1431 H 0.66786 0.82095 0.36675 0.0
H1432 H 0.61082 0.81252 0.39408 0.0
H1433 H 0.63797 0.8275 0.38692 0.0
H1434 H 0.58581 0.78941 0.27983 0.0
H1435 H 0.61465 0.80104 0.27311 0.0
H1436 H 0.57094 0.7656 0.30379 0.0
H1437 H 0.56195 0.76582 0.333 0.0
C1438 C 0.0449 0.17821 0.96682 0.0
C1439 C 0.04059 0.15698 0.95332 0.0
C1440 C 0.02933 0.18007 0.91823 0.0
C1441 C 0.03656 0.20126 0.93101 0.0
N1442 N 0.05516 0.22031 0.96646 0.0
N1443 N 0.03018 0.13717 0.91591 0.0
C1444 C 0.04514 0.20033 0.95513 0.0
C1445 C 0.03308 0.15775 0.92894 0.0
N1446 N 0.04879 0.17722 0.99089 0.0
N1447 N 0.01828 0.18136 0.89613 0.0
H1448 H 0.03187 0.12052 0.92341 0.0
H1449 H 0.0275 0.13659 0.89753 0.0
H1450 H 1.01522 0.19742 0.88791 0.0
H1451 H 1.01035 0.16673 0.88677 0.0
H1452 H 0.04926 0.19209 1.00203 0.0
H1453 H 0.04941 0.16133 1.00004 0.0
H1454 H 0.06427 0.22015 0.98303 0.0
H1455 H 0.05655 0.23684 0.95852 0.0
C1456 C 0.44709 0.28458 0.22136 0.0
C1457 C 0.4238 0.29382 0.21716 0.0
C1458 C 0.4324 0.29725 0.17506 0.0
C1459 C 0.45188 0.2819 0.17843 0.0
N1460 N 0.47891 0.26189 0.20558 0.0
N1461 N 0.40882 0.32607 0.19439 0.0
C1462 C 0.45991 0.2762 0.20185 0.0
C1463 C 0.42016 0.30521 0.19513 0.0
N1464 N 0.4583 0.28687 0.24337 0.0
N1465 N 0.42556 0.30434 0.15282 0.0
H1466 H 0.40422 0.33466 0.20994 0.0
H1467 H 0.40749 0.33634 0.17922 0.0
H1468 H 0.43508 0.3003 0.13781 0.0
H1469 H 0.40977 0.31336 0.14932 0.0
H1470 H 0.47623 0.28243 0.24701 0.0
H1471 H 0.45059 0.29621 0.257 0.0
H1472 H 0.48359 0.25528 0.22225 0.0
H1473 H 0.48883 0.25529 0.19186 0.0
C1474 C 0.55073 0.36716 0.08687 0.0
C1475 C 0.5456 0.37101 0.06233 0.0
C1476 C 0.52691 0.33071 0.0582 0.0
C1477 C 0.53497 0.32581 0.08182 0.0
N1478 N 0.55666 0.33861 0.11816 0.0
N1479 N 0.53206 0.35524 0.02373 0.0
C1480 C 0.5473 0.34389 0.09613 0.0
C1481 C 0.53447 0.35248 0.04776 0.0
N1482 N 0.55837 0.38587 0.1014 0.0
N1483 N 0.51136 0.31479 0.04595 0.0
H1484 H 0.53752 0.3708 0.01526 0.0
H1485 H 0.52668 0.34141 0.01197 0.0
H1486 H 0.50493 0.29887 0.05316 0.0
H1487 H 0.50285 0.31843 0.02963 0.0
H1488 H 0.56007 0.38475 0.1198 0.0
H1489 H 0.56099 0.40309 0.09521 0.0
H1490 H 0.56821 0.35025 0.1284 0.0
H1491 H 0.55431 0.32188 0.12555 0.0
C1492 C 0.60351 0.21735 0.17735 0.0
C1493 C 0.61617 0.23722 0.18865 0.0
C1494 C 0.58853 0.26375 0.16789 0.0
C1495 C 0.57774 0.24407 0.15462 0.0
N1496 N 0.57647 0.20229 0.14492 0.0
N1497 N 0.6226 0.27953 0.19327 0.0
C1498 C 0.58568 0.22091 0.15886 0.0
C1499 C 0.60906 0.2605 0.18369 0.0
N1500 N 0.60803 0.19502 0.18484 0.0
N1501 N 0.57924 0.28558 0.16529 0.0
H1502 H 0.63755 0.27782 0.20503 0.0
H1503 H 0.62018 0.29696 0.18835 0.0
H1504 H 0.56503 0.28886 0.15314 0.0
H1505 H 0.58444 0.30009 0.17624 0.0
H1506 H 0.59761 0.17992 0.1792 0.0
H1507 H 0.62086 0.19171 0.19841 0.0
H1508 H 0.58362 0.1856 0.14513 0.0
H1509 H 0.56269 0.20387 0.13186 0.0
C1510 C 0.50548 0.15435 0.08446 0.0
C1511 C 0.49099 0.15241 0.063 0.0
C1512 C 0.48425 0.19502 0.06508 0.0
C1513 C 0.49698 0.19655 0.08762 0.0
N1514 N 0.5175 0.1773 0.12013 0.0
N1515 N 0.46377 0.16987 0.03435 0.0
C1516 C 0.50694 0.17608 0.09772 0.0
C1517 C 0.47979 0.17252 0.05359 0.0
N1518 N 0.5184 0.13555 0.09179 0.0
N1519 N 0.47604 0.21502 0.0547 0.0
H1520 H 0.4601 0.15379 0.02531 0.0
H1521 H 0.45264 0.18307 0.02835 0.0
H1522 H 0.47665 0.2315 0.06323 0.0
H1523 H 0.46976 0.21563 0.03705 0.0
H1524 H 0.53132 0.13645 0.10586 0.0
H1525 H 0.51769 0.11942 0.08252 0.0
H1526 H 0.52259 0.16254 0.1296 0.0
H1527 H 0.51986 0.19304 0.12998 0.0
C1528 C 0.33664 0.44051 0.75162 0.0
C1529 C 0.33706 0.42612 0.73085 0.0
C1530 C 0.37056 0.45172 0.71647 0.0
C1531 C 0.37211 0.4644 0.73845 0.0
N1532 N 0.35872 0.46882 0.77839 0.0
N1533 N 0.35683 0.41572 0.69509 0.0
C1534 C 0.35559 0.45838 0.75639 0.0
C1535 C 0.35464 0.43114 0.71367 0.0
N1536 N 0.31787 0.43738 0.76657 0.0
N1537 N 0.38377 0.45978 0.69795 0.0
H1538 H 0.34558 0.40041 0.69233 0.0
H1539 H 0.37114 0.41698 0.68359 0.0
H1540 H 0.39547 0.47489 0.69915 0.0
H1541 H 0.38137 0.45285 0.68075 0.0
H1542 H 0.31508 0.44888 0.78065 0.0
H1543 H 0.30383 0.42437 0.76369 0.0
H1544 H 0.34902 0.46327 0.79295 0.0
H1545 H 0.37244 0.48178 0.78268 0.0
C1546 C 0.3309 0.62675 0.75455 0.0
C1547 C 0.32875 0.63498 0.77826 0.0
C1548 C 0.35967 0.60721 0.79115 0.0
C1549 C 0.3577 0.59599 0.76847 0.0
N1550 N 0.3393 0.59398 0.72885 0.0
N1551 N 0.3565 0.64444 0.8117 0.0
C1552 C 0.34254 0.60536 0.75033 0.0
C1553 C 0.3473 0.62836 0.79495 0.0
N1554 N 0.32678 0.64155 0.73608 0.0
N1555 N 0.3738 0.59817 0.80899 0.0
H1556 H 0.35152 0.662 0.81162 0.0
H1557 H 0.37155 0.64156 0.82296 0.0
H1558 H 0.38384 0.58322 0.80678 0.0
H1559 H 0.37385 0.60446 0.82645 0.0
H1560 H 0.33004 0.63712 0.71854 0.0
H1561 H 0.32436 0.65955 0.73888 0.0
H1562 H 0.32679 0.59922 0.71576 0.0
H1563 H 0.34734 0.5781 0.72512 0.0
C1564 C 0.87107 0.42858 0.51457 0.0
C1565 C 0.86933 0.4416 0.49325 0.0
C1566 C 0.82941 0.42153 0.48312 0.0
C1567 C 0.83071 0.40926 0.50492 0.0
N1568 N 0.84993 0.40504 0.54372 0.0
N1569 N 0.84497 0.45426 0.45968 0.0
C1570 C 0.85072 0.41399 0.52135 0.0
C1571 C 0.84787 0.43925 0.47829 0.0
N1572 N 0.89251 0.42942 0.52786 0.0
N1573 N 0.81122 0.41546 0.46651 0.0
H1574 H 0.85813 0.46738 0.45563 0.0
H1575 H 0.82874 0.45512 0.44958 0.0
H1576 H 0.79729 0.4027 0.46937 0.0
H1577 H 0.8109 0.42172 0.44922 0.0
H1578 H 0.89585 0.41825 0.54204 0.0
H1579 H 0.90774 0.44006 0.52365 0.0
H1580 H 0.86279 0.40971 0.55731 0.0
H1581 H 0.83507 0.39473 0.5494 0.0
C1582 C 0.7001 0.90852 0.76296 0.0
C1583 C 0.72287 0.90916 0.77592 0.0
C1584 C 0.71722 0.95029 0.78813 0.0
C1585 C 0.69657 0.95074 0.77223 0.0
N1586 N 0.6681 0.93084 0.74413 0.0
N1587 N 0.75426 0.93112 0.79955 0.0
C1588 C 0.68774 0.9299 0.75973 0.0
C1589 C 0.73159 0.93008 0.78847 0.0
N1590 N 0.69028 0.8874 0.75396 0.0
N1591 N 0.7231 0.9693 0.80289 0.0
H1592 H 0.76537 0.91674 0.80038 0.0
H1593 H 0.76289 0.9467 0.80647 0.0
H1594 H 0.713 0.98442 0.80292 0.0
H1595 H 0.73646 0.96925 0.81654 0.0
H1596 H 0.67278 0.8852 0.74617 0.0
H1597 H 0.69895 0.87154 0.7561 0.0
H1598 H 0.66233 0.91714 0.73238 0.0
H1599 H 0.65818 0.94598 0.74219 0.0
C1600 C 0.69142 0.58374 0.98615 0.0
C1601 C 0.6704 0.58305 0.99994 0.0
C1602 C 0.68951 0.61448 0.02606 0.0
C1603 C 0.70898 0.61736 1.01043 0.0
N1604 N 0.72723 0.60653 0.97395 0.0
N1605 N 0.64813 0.59924 0.03171 0.0
C1606 C 0.70977 0.6023 0.99014 0.0
C1607 C 0.66916 0.5987 0.01967 0.0
N1608 N 0.69395 0.56644 0.96943 0.0
N1609 N 0.69077 0.62645 0.04733 0.0
H1610 H 0.63295 0.58778 0.02781 0.0
H1611 H 0.64504 0.61215 0.04439 0.0
H1612 H 0.70545 0.63802 0.05264 0.0
H1613 H 0.67847 0.62329 0.06061 0.0
H1614 H 0.7099 0.5645 0.96047 0.0
H1615 H 0.68082 0.55266 0.96604 0.0
H1616 H 0.72706 0.59797 0.95748 0.0
H1617 H 0.74091 0.61997 0.97607 0.0
C1618 C 0.21883 0.60374 0.23228 0.0
C1619 C 0.22526 0.61998 0.25119 0.0
C1620 C 0.19884 0.59717 0.27746 0.0
C1621 C 0.19151 0.58138 0.25831 0.0
N1622 N 0.19036 0.57264 0.21638 0.0
N1623 N 0.21684 0.6357 0.28967 0.0
C1624 C 0.20027 0.58559 0.23534 0.0
C1625 C 0.21368 0.61785 0.27307 0.0
N1626 N 0.23107 0.60512 0.21172 0.0
N1627 N 0.19318 0.59167 0.30019 0.0
H1628 H 0.2277 0.65107 0.28708 0.0
H1629 H 0.20685 0.63632 0.30492 0.0
H1630 H 0.18317 0.57634 0.30464 0.0
H1631 H 0.20045 0.60118 0.31502 0.0
H1632 H 0.22923 0.59221 0.19835 0.0
H1633 H 0.24434 0.61849 0.20868 0.0
H1634 H 0.19422 0.57627 0.19884 0.0
H1635 H 0.17646 0.55961 0.2181 0.0
C1636 C 0.88286 0.5882 0.01616 0.0
C1637 C 0.88412 0.57384 0.03663 0.0
C1638 C 0.84703 0.59059 0.05092 0.0
C1639 C 0.846 0.60523 0.03068 0.0
N1640 N 0.85934 0.6147 0.9917 0.0
N1641 N 0.86482 0.55718 0.07057 0.0
C1642 C 0.86272 0.60285 0.01245 0.0
C1643 C 0.8653 0.57371 0.05308 0.0
N1644 N 0.90153 0.58864 1.0009 0.0
N1645 N 0.83092 0.59336 0.06843 0.0
H1646 H 0.87798 0.54464 0.07263 0.0
H1647 H 0.85043 0.55452 0.0818 0.0
H1648 H 0.81641 0.60449 0.06679 0.0
H1649 H 0.83249 0.58553 0.08499 0.0
H1650 H 0.90327 0.60063 0.98715 0.0
H1651 H 0.91622 0.57777 1.00278 0.0
H1652 H 0.86942 0.61212 0.97677 0.0
H1653 H 0.845 0.62583 0.98871 0.0
C1654 C 0.15762 0.94255 1.00999 0.0
C1655 C 0.15943 0.95936 0.029 0.0
C1656 C 0.19889 0.94464 0.04238 0.0
C1657 C 0.19684 0.92754 0.02367 0.0
N1658 N 0.17763 0.91338 0.98669 0.0
N1659 N 0.18385 0.9803 0.05978 0.0
C1660 C 0.17731 0.92764 1.00642 0.0
C1661 C 0.18081 0.96166 0.04406 0.0
N1662 N 0.13659 0.94004 0.99614 0.0
N1663 N 0.21771 0.94404 0.05899 0.0
H1664 H 0.1709 0.993 0.0614 0.0
H1665 H 0.19992 0.98438 0.06976 0.0
H1666 H 0.23192 0.93265 0.05757 0.0
H1667 H 0.21874 0.95397 0.0747 0.0
H1668 H 0.13287 0.92635 0.98379 0.0
H1669 H 0.12205 0.95096 0.99792 0.0
H1670 H 0.1652 0.91408 0.9723 0.0
H1671 H 0.19169 0.90213 0.98382 0.0
loop_
_geom_bond_atom_site_label_1
_geom_bond_atom_site_label_2
_geom_bond_distance
_geom_bond_site_symmetry_2
_ccdc_geom_bond_type
C0 C1 1.264 . S
C0 C5 1.479 . S
C0 C10 1.465 . S
C1 C0 1.264 . S
C1 C3 1.339 . S
C1 H28 0.931 1_545 S
C2 C3 1.395 . S
C2 C4 1.320 . S
C3 C1 1.339 . S
C3 C2 1.395 . S
C3 H29 0.929 1_545 S
C4 C2 1.320 . S
C4 C5 1.405 . S
C4 H30 0.930 . S
C5 C0 1.479 . S
C5 C4 1.405 . S
C5 H31 0.931 . S
U6 O7 2.454 . S
U6 O8 2.458 1_554 S
U6 C9 2.984 1_554 S
U6 C10 2.847 1_455 S
U6 C23 2.882 1_545 S
U6 O24 2.441 1_455 S
U6 O25 2.420 . S
U6 O26 2.455 1_554 S
U6 O27 2.449 1_545 S
O7 U6 2.454 . S
O7 C9 1.353 1_554 S
O8 U6 2.458 1_556 S
O8 C9 1.286 . S
C9 U6 2.984 1_556 S
C9 O7 1.353 1_556 S
C9 O8 1.286 . S
C9 C11 1.363 . S
C10 C0 1.465 . S
C10 U6 2.847 1_655 S
C10 O24 1.249 . S
C10 O25 1.202 1_655 S
C11 C9 1.363 . S
C11 C13 1.408 . S
C11 C16 1.342 . S
C12 C13 1.310 . S
C12 C15 1.461 . S
C12 H32 0.932 1_455 S
C13 C11 1.408 . S
C13 C12 1.310 . S
C13 H33 0.930 1_455 S
C14 C15 1.474 . S
C14 C16 1.285 . S
C14 H34 0.929 . S
C15 C12 1.461 . S
C15 C14 1.474 . S
C16 C11 1.342 . S
C16 C14 1.285 . S
C16 H35 0.930 . S
C17 C20 1.424 . S
C17 C22 1.245 1_554 S
C17 C23 1.428 . S
C18 C21 1.260 1_556 S
C18 C22 1.477 . S
C18 H36 0.932 . S
C19 C20 1.384 . S
C19 C21 1.479 . S
C19 H37 0.929 . S
C20 C17 1.424 . S
C20 C19 1.384 . S
C20 H38 0.928 . S
C21 C18 1.260 1_554 S
C21 C19 1.479 . S
C22 C17 1.245 1_556 S
C22 C18 1.477 . S
C22 H39 0.932 1_565 S
C23 U6 2.882 1_565 S
C23 C17 1.428 . S
C23 O26 1.301 1_564 S
C23 O27 1.282 . S
O24 U6 2.441 1_655 S
O24 C10 1.249 . S
O25 U6 2.420 . S
O25 C10 1.202 1_455 S
O26 U6 2.455 1_556 S
O26 C23 1.301 1_546 S
O27 U6 2.449 1_565 S
O27 C23 1.282 . S
H28 C1 0.931 1_565 S
H29 C3 0.929 1_565 S
H30 C4 0.930 . S
H31 C5 0.931 . S
H32 C12 0.932 1_655 S
H33 C13 0.930 1_655 S
H34 C14 0.929 . S
H35 C16 0.930 . S
H36 C18 0.932 . S
H37 C19 0.929 . S
H38 C20 0.928 . S
H39 C22 0.932 1_545 S
C40 C41 1.264 . S
C40 C45 1.479 . S
C40 C50 1.465 . S
C41 C40 1.264 . S
C41 C43 1.339 . S
C41 H68 0.931 . S
C42 C43 1.395 . S
C42 C44 1.320 . S
C43 C41 1.339 . S
C43 C42 1.395 . S
C43 H69 0.929 . S
C44 C42 1.320 . S
C44 C45 1.405 . S
C44 H70 0.930 . S
C45 C40 1.479 . S
C45 C44 1.405 . S
C45 H71 0.931 . S
U46 O47 2.454 . S
U46 O48 2.458 . S
U46 C49 2.984 . S
U46 C50 2.847 . S
U46 C63 2.882 . S
U46 O64 2.441 . S
U46 O65 2.420 . S
U46 O66 2.455 . S
U46 O67 2.449 . S
O47 U46 2.454 . S
O47 C49 1.353 . S
O48 U46 2.458 . S
O48 C49 1.286 . S
C49 U46 2.984 . S
C49 O47 1.353 . S
C49 O48 1.286 . S
C49 C51 1.363 . S
C50 C40 1.465 . S
C50 U46 2.847 . S
C50 O64 1.249 . S
C50 O65 1.202 . S
C51 C49 1.363 . S
C51 C53 1.408 . S
C51 C56 1.342 . S
C52 C53 1.310 . S
C52 C55 1.461 . S
C52 H72 0.932 . S
C53 C51 1.408 . S
C53 C52 1.310 . S
C53 H73 0.930 . S
C54 C55 1.474 . S
C54 C56 1.285 . S
C54 H74 0.929 . S
C55 C52 1.461 . S
C55 C54 1.474 . S
C56 C51 1.342 . S
C56 C54 1.285 . S
C56 H75 0.930 . S
C57 C60 1.424 . S
C57 C62 1.245 . S
C57 C63 1.428 . S
C58 C61 1.260 . S
C58 C62 1.477 . S
C58 H76 0.932 . S
C59 C60 1.384 . S
C59 C61 1.479 . S
C59 H77 0.929 . S
C60 C57 1.424 . S
C60 C59 1.384 . S
C60 H78 0.928 . S
C61 C58 1.260 . S
C61 C59 1.479 . S
C62 C57 1.245 . S
C62 C58 1.477 . S
C62 H79 0.932 . S
C63 U46 2.882 . S
C63 C57 1.428 . S
C63 O66 1.301 . S
C63 O67 1.282 . S
O64 U46 2.441 . S
O64 C50 1.249 . S
O65 U46 2.420 . S
O65 C50 1.202 . S
O66 U46 2.455 . S
O66 C63 1.301 . S
O67 U46 2.449 . S
O67 C63 1.282 . S
H68 C41 0.931 . S
H69 C43 0.929 . S
H70 C44 0.930 . S
H71 C45 0.931 . S
H72 C52 0.932 . S
H73 C53 0.930 . S
H74 C54 0.929 . S
H75 C56 0.930 . S
H76 C58 0.932 . S
H77 C59 0.929 . S
H78 C60 0.928 . S
H79 C62 0.932 . S
C80 C81 1.264 1_655 S
C80 C85 1.479 . S
C80 C90 1.465 1_556 S
C81 C80 1.264 1_455 S
C81 C83 1.339 . S
C81 H108 0.931 1_556 S
C82 C83 1.381 1_655 S
C82 C84 1.338 . S
C83 C81 1.339 . S
C83 C82 1.381 1_455 S
C83 H109 0.929 . S
C84 C82 1.338 . S
C84 C85 1.405 . S
C84 H110 0.930 . S
C85 C80 1.479 . S
C85 C84 1.405 . S
C85 H111 0.931 . S
U86 O87 2.454 . S
U86 O88 2.458 . S
U86 C89 2.984 . S
U86 C90 2.847 . S
U86 C103 2.882 1_655 S
U86 O104 2.441 . S
U86 O105 2.420 1_655 S
U86 O106 2.458 . S
U86 O107 2.449 1_655 S
O87 U86 2.454 . S
O87 C89 1.353 . S
O88 U86 2.458 . S
O88 C89 1.286 . S
C89 U86 2.984 . S
C89 O87 1.353 . S
C89 O88 1.286 . S
C89 C91 1.363 . S
C90 C80 1.465 1_554 S
C90 U86 2.847 . S
C90 O104 1.249 . S
C90 O105 1.202 1_655 S
C91 C89 1.363 . S
C91 C93 1.408 . S
C91 C96 1.342 . S
C92 C93 1.310 . S
C92 C95 1.461 . S
C92 H112 0.932 1_554 S
C93 C91 1.408 . S
C93 C92 1.310 . S
C93 H113 0.903 1_554 S
C94 C95 1.474 . S
C94 C96 1.285 . S
C94 H114 0.929 . S
C95 C92 1.461 . S
C95 C94 1.474 . S
C96 C91 1.342 . S
C96 C94 1.285 . S
C96 H115 0.930 . S
C97 C100 1.424 . S
C97 C102 1.245 . S
C97 C103 1.428 . S
C98 C101 1.260 . S
C98 C102 1.477 . S
C98 H116 0.932 . S
C99 C100 1.384 . S
C99 C101 1.479 . S
C99 H117 0.929 . S
C100 C97 1.424 . S
C100 C99 1.384 . S
C100 H118 0.928 . S
C101 C98 1.260 . S
C101 C99 1.479 . S
C102 C97 1.245 . S
C102 C98 1.477 . S
C102 H119 0.932 . S
C103 U86 2.882 1_455 S
C103 C97 1.428 . S
C103 O106 1.293 1_455 S
C103 O107 1.282 . S
O104 U86 2.441 . S
O104 C90 1.249 . S
O105 U86 2.420 1_455 S
O105 C90 1.202 1_455 S
O106 U86 2.458 . S
O106 C103 1.293 1_655 S
O107 U86 2.449 1_455 S
O107 C103 1.282 . S
H108 C81 0.931 1_554 S
H109 C83 0.929 . S
H110 C84 0.930 . S
H111 C85 0.931 . S
H112 C92 0.932 1_556 S
H113 C93 0.903 1_556 S
H114 C94 0.929 . S
H115 C96 0.930 . S
H116 C98 0.932 . S
H117 C99 0.929 . S
H118 C100 0.928 . S
H119 C102 0.932 . S
C120 C121 1.264 . S
C120 C125 1.479 . S
C120 C130 1.465 . S
C121 C120 1.264 . S
C121 C123 1.339 . S
C121 H148 0.931 . S
C122 C123 1.395 . S
C122 C124 1.320 . S
C123 C121 1.339 . S
C123 C122 1.395 . S
C123 H149 0.929 . S
C124 C122 1.320 . S
C124 C125 1.405 . S
C124 H150 0.930 . S
C125 C120 1.479 . S
C125 C124 1.405 . S
C125 H151 0.931 . S
U126 O127 2.454 . S
U126 O128 2.458 . S
U126 C129 2.984 . S
U126 C130 2.847 . S
U126 C143 2.882 . S
U126 O144 2.441 . S
U126 O145 2.420 . S
U126 O146 2.455 . S
U126 O147 2.449 . S
O127 U126 2.454 . S
O127 C129 1.353 . S
O128 U126 2.458 . S
O128 C129 1.286 . S
C129 U126 2.984 . S
C129 O127 1.353 . S
C129 O128 1.286 . S
C129 C131 1.363 . S
C130 C120 1.465 . S
C130 U126 2.847 . S
C130 O144 1.249 . S
C130 O145 1.202 . S
C131 C129 1.363 . S
C131 C133 1.408 . S
C131 C136 1.342 . S
C132 C133 1.310 . S
C132 C135 1.461 . S
C132 H152 0.932 . S
C133 C131 1.408 . S
C133 C132 1.310 . S
C133 H153 0.930 . S
C134 C135 1.474 . S
C134 C136 1.285 . S
C134 H154 0.929 . S
C135 C132 1.461 . S
C135 C134 1.474 . S
C136 C131 1.342 . S
C136 C134 1.285 . S
C136 H155 0.930 . S
C137 C140 1.424 . S
C137 C142 1.245 . S
C137 C143 1.428 . S
C138 C141 1.260 . S
C138 C142 1.477 . S
C138 H156 0.932 . S
C139 C140 1.384 . S
C139 C141 1.479 . S
C139 H157 0.929 . S
C140 C137 1.424 . S
C140 C139 1.384 . S
C140 H158 0.928 . S
C141 C138 1.260 . S
C141 C139 1.479 . S
C142 C137 1.245 . S
C142 C138 1.477 . S
C142 H159 0.932 . S
C143 U126 2.882 . S
C143 C137 1.428 . S
C143 O146 1.301 . S
C143 O147 1.282 . S
O144 U126 2.441 . S
O144 C130 1.249 . S
O145 U126 2.420 . S
O145 C130 1.202 . S
O146 U126 2.455 . S
O146 C143 1.301 . S
O147 U126 2.449 . S
O147 C143 1.282 . S
H148 C121 0.931 . S
H149 C123 0.929 . S
H150 C124 0.930 . S
H151 C125 0.931 . S
H152 C132 0.932 . S
H153 C133 0.930 . S
H154 C134 0.929 . S
H155 C136 0.930 . S
H156 C138 0.932 . S
H157 C139 0.929 . S
H158 C140 0.928 . S
H159 C142 0.932 . S
C160 C161 1.264 1_665 S
C160 C165 1.479 . S
C160 C170 1.465 1_655 S
C161 C160 1.264 1_445 S
C161 C163 1.339 1_455 S
C161 H188 0.931 . S
C162 C163 1.395 1_565 S
C162 C164 1.320 . S
C163 C161 1.339 1_655 S
C163 C162 1.395 1_545 S
C163 H189 0.929 . S
C164 C162 1.320 . S
C164 C165 1.405 . S
C164 H190 0.930 . S
C165 C160 1.479 . S
C165 C164 1.405 . S
C165 H191 0.931 . S
U166 O167 2.454 . S
U166 O168 2.458 . S
U166 C169 2.984 . S
U166 C170 2.847 . S
U166 C183 2.882 1_565 S
U166 O184 2.441 . S
U166 O185 2.393 1_565 S
U166 O186 2.455 . S
U166 O187 2.449 1_565 S
O167 U166 2.454 . S
O167 C169 1.353 . S
O168 U166 2.458 . S
O168 C169 1.286 . S
C169 U166 2.984 . S
C169 O167 1.353 . S
C169 O168 1.286 . S
C169 C171 1.363 . S
C170 C160 1.465 1_455 S
C170 U166 2.847 . S
C170 O184 1.249 . S
C170 O185 1.171 1_565 S
C171 C169 1.363 . S
C171 C173 1.408 . S
C171 C176 1.342 . S
C172 C173 1.310 . S
C172 C175 1.461 . S
C172 H192 0.931 1_455 S
C173 C171 1.408 . S
C173 C172 1.310 . S
C173 H193 0.930 . S
C174 C175 1.474 . S
C174 C176 1.285 . S
C174 H194 0.929 . S
C175 C172 1.461 . S
C175 C174 1.474 . S
C176 C171 1.342 . S
C176 C174 1.285 . S
C176 H195 0.930 . S
C177 C180 1.424 . S
C177 C182 1.245 . S
C177 C183 1.428 . S
C178 C181 1.260 . S
C178 C182 1.477 . S
C178 H196 0.932 . S
C179 C180 1.384 . S
C179 C181 1.479 . S
C179 H197 0.929 . S
C180 C177 1.424 . S
C180 C179 1.384 . S
C180 H198 0.928 . S
C181 C178 1.260 . S
C181 C179 1.479 . S
C182 C177 1.245 . S
C182 C178 1.477 . S
C182 H199 0.932 . S
C183 U166 2.882 1_545 S
C183 C177 1.428 . S
C183 O186 1.301 1_545 S
C183 O187 1.282 . S
O184 U166 2.441 . S
O184 C170 1.249 . S
O185 U166 2.393 1_545 S
O185 C170 1.171 1_545 S
O186 U166 2.455 . S
O186 C183 1.301 1_565 S
O187 U166 2.449 1_545 S
O187 C183 1.282 . S
H188 C161 0.931 . S
H189 C163 0.929 . S
H190 C164 0.930 . S
H191 C165 0.931 . S
H192 C172 0.931 1_655 S
H193 C173 0.930 . S
H194 C174 0.929 . S
H195 C176 0.930 . S
H196 C178 0.932 . S
H197 C179 0.929 . S
H198 C180 0.928 . S
H199 C182 0.932 . S
C200 C201 1.264 . S
C200 C205 1.479 . S
C200 C210 1.465 . S
C201 C200 1.264 . S
C201 C203 1.339 . S
C201 H228 0.931 . S
C202 C203 1.395 . S
C202 C204 1.320 . S
C203 C201 1.339 . S
C203 C202 1.395 . S
C203 H229 0.929 . S
C204 C202 1.320 . S
C204 C205 1.405 . S
C204 H230 0.930 . S
C205 C200 1.479 . S
C205 C204 1.405 . S
C205 H231 0.931 . S
U206 O207 2.454 . S
U206 O208 2.458 . S
U206 C209 2.984 . S
U206 C210 2.847 . S
U206 C223 2.882 . S
U206 O224 2.441 . S
U206 O225 2.420 . S
U206 O226 2.455 . S
U206 O227 2.449 . S
O207 U206 2.454 . S
O207 C209 1.353 . S
O208 U206 2.458 . S
O208 C209 1.286 . S
C209 U206 2.984 . S
C209 O207 1.353 . S
C209 O208 1.286 . S
C209 C211 1.363 . S
C210 C200 1.465 . S
C210 U206 2.847 . S
C210 O224 1.249 . S
C210 O225 1.202 . S
C211 C209 1.363 . S
C211 C213 1.408 . S
C211 C216 1.342 . S
C212 C213 1.310 . S
C212 C215 1.461 . S
C212 H232 0.932 . S
C213 C211 1.408 . S
C213 C212 1.310 . S
C213 H233 0.930 . S
C214 C215 1.474 . S
C214 C216 1.285 . S
C214 H234 0.929 . S
C215 C212 1.461 . S
C215 C214 1.474 . S
C216 C211 1.342 . S
C216 C214 1.285 . S
C216 H235 0.930 . S
C217 C220 1.424 . S
C217 C222 1.245 . S
C217 C223 1.428 . S
C218 C221 1.260 . S
C218 C222 1.477 . S
C218 H236 0.932 . S
C219 C220 1.384 . S
C219 C221 1.479 . S
C219 H237 0.929 . S
C220 C217 1.424 . S
C220 C219 1.384 . S
C220 H238 0.928 . S
C221 C218 1.260 . S
C221 C219 1.479 . S
C222 C217 1.245 . S
C222 C218 1.477 . S
C222 H239 0.932 . S
C223 U206 2.882 . S
C223 C217 1.428 . S
C223 O226 1.301 . S
C223 O227 1.282 . S
O224 U206 2.441 . S
O224 C210 1.249 . S
O225 U206 2.420 . S
O225 C210 1.202 . S
O226 U206 2.455 . S
O226 C223 1.301 . S
O227 U206 2.449 . S
O227 C223 1.282 . S
H228 C201 0.931 . S
H229 C203 0.929 . S
H230 C204 0.930 . S
H231 C205 0.931 . S
H232 C212 0.932 . S
H233 C213 0.930 . S
H234 C214 0.929 . S
H235 C216 0.930 . S
H236 C218 0.932 . S
H237 C219 0.929 . S
H238 C220 0.928 . S
H239 C222 0.932 . S
C240 C241 1.264 1_655 S
C240 C245 1.479 . S
C240 C250 1.465 . S
C241 C240 1.264 1_455 S
C241 C243 1.339 . S
C241 H268 0.931 . S
C242 C243 1.395 1_655 S
C242 C244 1.320 . S
C243 C241 1.339 . S
C243 C242 1.395 1_455 S
C243 H269 0.929 . S
C244 C242 1.320 . S
C244 C245 1.405 . S
C244 H270 0.930 . S
C245 C240 1.479 . S
C245 C244 1.405 . S
C245 H271 0.931 . S
U246 O247 2.454 . S
U246 O248 2.458 . S
U246 C249 2.984 . S
U246 C250 2.847 . S
U246 C263 2.882 1_655 S
U246 O264 2.441 . S
U246 O265 2.420 . S
U246 O266 2.455 . S
U246 O267 2.449 1_655 S
O247 U246 2.454 . S
O247 C249 1.353 . S
O248 U246 2.458 . S
O248 C249 1.286 . S
C249 U246 2.984 . S
C249 O247 1.353 . S
C249 O248 1.286 . S
C249 C251 1.363 . S
C250 C240 1.465 . S
C250 U246 2.847 . S
C250 O264 1.249 . S
C250 O265 1.202 . S
C251 C249 1.363 . S
C251 C253 1.408 . S
C251 C256 1.342 . S
C252 C253 1.310 . S
C252 C255 1.461 . S
C252 H272 0.932 . S
C253 C251 1.408 . S
C253 C252 1.310 . S
C253 H273 0.930 . S
C254 C255 1.474 . S
C254 C256 1.285 . S
C254 H274 0.929 . S
C255 C252 1.461 . S
C255 C254 1.474 . S
C256 C251 1.342 . S
C256 C254 1.285 . S
C256 H275 0.930 . S
C257 C260 1.424 . S
C257 C262 1.245 . S
C257 C263 1.428 . S
C258 C261 1.260 . S
C258 C262 1.477 . S
C258 H276 0.932 . S
C259 C260 1.384 . S
C259 C261 1.479 . S
C259 H277 0.929 . S
C260 C257 1.424 . S
C260 C259 1.384 . S
C260 H278 0.928 . S
C261 C258 1.260 . S
C261 C259 1.479 . S
C262 C257 1.245 . S
C262 C258 1.477 . S
C262 H279 0.929 . S
C263 U246 2.882 1_455 S
C263 C257 1.428 . S
C263 O266 1.301 1_455 S
C263 O267 1.282 . S
O264 U246 2.441 . S
O264 C250 1.249 . S
O265 U246 2.420 . S
O265 C250 1.202 . S
O266 U246 2.455 . S
O266 C263 1.301 1_655 S
O267 U246 2.449 1_455 S
O267 C263 1.282 . S
H268 C241 0.931 . S
H269 C243 0.929 . S
H270 C244 0.930 . S
H271 C245 0.931 . S
H272 C252 0.932 . S
H273 C253 0.930 . S
H274 C254 0.929 . S
H275 C256 0.930 . S
H276 C258 0.932 . S
H277 C259 0.929 . S
H278 C260 0.928 . S
H279 C262 0.929 . S
C280 C281 1.264 . S
C280 C285 1.479 . S
C280 C290 1.465 . S
C281 C280 1.264 . S
C281 C283 1.339 . S
C281 H308 0.931 . S
C282 C283 1.395 . S
C282 C284 1.320 . S
C283 C281 1.339 . S
C283 C282 1.395 . S
C283 H309 0.929 . S
C284 C282 1.320 . S
C284 C285 1.405 . S
C284 H310 0.930 . S
C285 C280 1.479 . S
C285 C284 1.405 . S
C285 H311 0.931 . S
U286 O287 2.454 . S
U286 O288 2.458 . S
U286 C289 2.984 . S
U286 C290 2.847 . S
U286 C303 2.882 . S
U286 O304 2.441 . S
U286 O305 2.420 . S
U286 O306 2.455 . S
U286 O307 2.449 . S
O287 U286 2.454 . S
O287 C289 1.353 . S
O288 U286 2.458 . S
O288 C289 1.286 . S
C289 U286 2.984 . S
C289 O287 1.353 . S
C289 O288 1.286 . S
C289 C291 1.363 . S
C290 C280 1.465 . S
C290 U286 2.847 . S
C290 O304 1.249 . S
C290 O305 1.202 . S
C291 C289 1.363 . S
C291 C293 1.408 . S
C291 C296 1.342 . S
C292 C293 1.310 . S
C292 C295 1.461 . S
C292 H312 0.932 . S
C293 C291 1.408 . S
C293 C292 1.310 . S
C293 H313 0.930 . S
C294 C295 1.474 . S
C294 C296 1.285 . S
C294 H314 0.929 . S
C295 C292 1.461 . S
C295 C294 1.474 . S
C296 C291 1.342 . S
C296 C294 1.285 . S
C296 H315 0.930 . S
C297 C300 1.424 . S
C297 C302 1.245 . S
C297 C303 1.428 . S
C298 C301 1.260 . S
C298 C302 1.477 . S
C298 H316 0.932 . S
C299 C300 1.384 . S
C299 C301 1.479 . S
C299 H317 0.929 . S
C300 C297 1.424 . S
C300 C299 1.384 . S
C300 H318 0.928 . S
C301 C298 1.260 . S
C301 C299 1.479 . S
C302 C297 1.245 . S
C302 C298 1.477 . S
C302 H319 0.932 . S
C303 U286 2.882 . S
C303 C297 1.428 . S
C303 O306 1.301 . S
C303 O307 1.282 . S
O304 U286 2.441 . S
O304 C290 1.249 . S
O305 U286 2.420 . S
O305 C290 1.202 . S
O306 U286 2.455 . S
O306 C303 1.301 . S
O307 U286 2.449 . S
O307 C303 1.282 . S
H308 C281 0.931 . S
H309 C283 0.929 . S
H310 C284 0.930 . S
H311 C285 0.931 . S
H312 C292 0.932 . S
H313 C293 0.930 . S
H314 C294 0.929 . S
H315 C296 0.930 . S
H316 C298 0.932 . S
H317 C299 0.929 . S
H318 C300 0.928 . S
H319 C302 0.932 . S
C320 C321 1.264 . S
C320 C325 1.479 . S
C320 C330 1.465 . S
C321 C320 1.264 . S
C321 C323 1.339 . S
C321 H348 0.931 . S
C322 C323 1.395 . S
C322 C324 1.320 . S
C323 C321 1.339 . S
C323 C322 1.395 . S
C323 H349 0.929 . S
C324 C322 1.320 . S
C324 C325 1.405 . S
C324 H350 0.930 . S
C325 C320 1.479 . S
C325 C324 1.405 . S
C325 H351 0.931 . S
U326 O327 2.454 . S
U326 O328 2.458 . S
U326 C329 2.984 . S
U326 C330 2.847 . S
U326 C343 2.882 . S
U326 O344 2.441 . S
U326 O345 2.420 . S
U326 O346 2.455 . S
U326 O347 2.449 . S
O327 U326 2.454 . S
O327 C329 1.353 . S
O328 U326 2.458 . S
O328 C329 1.286 . S
C329 U326 2.984 . S
C329 O327 1.353 . S
C329 O328 1.286 . S
C329 C331 1.363 . S
C330 C320 1.465 . S
C330 U326 2.847 . S
C330 O344 1.249 . S
C330 O345 1.202 . S
C331 C329 1.363 . S
C331 C333 1.408 . S
C331 C336 1.342 . S
C332 C333 1.310 . S
C332 C335 1.461 . S
C332 H352 0.932 . S
C333 C331 1.408 . S
C333 C332 1.310 . S
C333 H353 0.930 . S
C334 C335 1.474 . S
C334 C336 1.285 . S
C334 H354 0.929 . S
C335 C332 1.461 . S
C335 C334 1.474 . S
C336 C331 1.342 . S
C336 C334 1.285 . S
C336 H355 0.930 . S
C337 C340 1.424 . S
C337 C342 1.245 . S
C337 C343 1.428 . S
C338 C341 1.260 . S
C338 C342 1.477 . S
C338 H356 0.932 . S
C339 C340 1.384 . S
C339 C341 1.479 . S
C339 H357 0.929 . S
C340 C337 1.424 . S
C340 C339 1.384 . S
C340 H358 0.928 . S
C341 C338 1.260 . S
C341 C339 1.479 . S
C342 C337 1.245 . S
C342 C338 1.477 . S
C342 H359 0.932 . S
C343 U326 2.882 . S
C343 C337 1.428 . S
C343 O346 1.301 . S
C343 O347 1.282 . S
O344 U326 2.441 . S
O344 C330 1.249 . S
O345 U326 2.420 . S
O345 C330 1.202 . S
O346 U326 2.455 . S
O346 C343 1.301 . S
O347 U326 2.449 . S
O347 C343 1.282 . S
H348 C321 0.931 . S
H349 C323 0.929 . S
H350 C324 0.930 . S
H351 C325 0.931 . S
H352 C332 0.932 . S
H353 C333 0.930 . S
H354 C334 0.929 . S
H355 C336 0.930 . S
H356 C338 0.932 . S
H357 C339 0.929 . S
H358 C340 0.928 . S
H359 C342 0.932 . S
C360 C361 1.264 . S
C360 C365 1.479 . S
C360 C370 1.465 . S
C361 C360 1.264 . S
C361 C363 1.339 . S
C361 H388 0.931 . S
C362 C363 1.395 . S
C362 C364 1.320 . S
C363 C361 1.339 . S
C363 C362 1.395 . S
C363 H389 0.929 . S
C364 C362 1.320 . S
C364 C365 1.405 . S
C364 H390 0.930 . S
C365 C360 1.479 . S
C365 C364 1.405 . S
C365 H391 0.931 . S
U366 O367 2.454 . S
U366 O368 2.458 1_565 S
U366 C369 2.984 1_565 S
U366 C370 2.847 . S
U366 C383 2.882 . S
U366 O384 2.441 . S
U366 O385 2.420 . S
U366 O386 2.455 . S
U366 O387 2.449 . S
O367 U366 2.454 . S
O367 C369 1.353 1_565 S
O368 U366 2.458 1_545 S
O368 C369 1.286 . S
C369 U366 2.984 1_545 S
C369 O367 1.353 1_545 S
C369 O368 1.286 . S
C369 C371 1.363 . S
C370 C360 1.465 . S
C370 U366 2.847 . S
C370 O384 1.249 . S
C370 O385 1.202 . S
C371 C369 1.363 . S
C371 C373 1.408 . S
C371 C376 1.342 . S
C372 C373 1.310 . S
C372 C375 1.461 . S
C372 H392 0.932 . S
C373 C371 1.408 . S
C373 C372 1.310 . S
C373 H393 0.930 . S
C374 C375 1.474 . S
C374 C376 1.285 . S
C374 H394 0.929 . S
C375 C372 1.461 . S
C375 C374 1.474 . S
C376 C371 1.342 . S
C376 C374 1.285 . S
C376 H395 0.930 . S
C377 C380 1.424 . S
C377 C382 1.245 . S
C377 C383 1.428 . S
C378 C381 1.260 . S
C378 C382 1.477 . S
C378 H396 0.932 1_565 S
C379 C380 1.384 . S
C379 C381 1.479 . S
C379 H397 0.929 . S
C380 C377 1.424 . S
C380 C379 1.384 . S
C380 H398 0.928 . S
C381 C378 1.260 . S
C381 C379 1.479 . S
C382 C377 1.245 . S
C382 C378 1.477 . S
C382 H399 0.932 1_565 S
C383 U366 2.882 . S
C383 C377 1.428 . S
C383 O386 1.301 . S
C383 O387 1.282 . S
O384 U366 2.441 . S
O384 C370 1.249 . S
O385 U366 2.420 . S
O385 C370 1.202 . S
O386 U366 2.455 . S
O386 C383 1.301 . S
O387 U366 2.449 . S
O387 C383 1.282 . S
H388 C361 0.931 . S
H389 C363 0.929 . S
H390 C364 0.930 . S
H391 C365 0.931 . S
H392 C372 0.932 . S
H393 C373 0.930 . S
H394 C374 0.929 . S
H395 C376 0.930 . S
H396 C378 0.932 1_545 S
H397 C379 0.929 . S
H398 C380 0.928 . S
H399 C382 0.932 1_545 S
C400 C401 1.264 . S
C400 C405 1.479 . S
C400 C410 1.465 . S
C401 C400 1.264 . S
C401 C403 1.339 . S
C401 H428 0.931 . S
C402 C403 1.395 . S
C402 C404 1.320 . S
C403 C401 1.339 . S
C403 C402 1.395 . S
C403 H429 0.929 . S
C404 C402 1.320 . S
C404 C405 1.405 . S
C404 H430 0.930 . S
C405 C400 1.479 . S
C405 C404 1.405 . S
C405 H431 0.931 . S
U406 O407 2.454 . S
U406 O408 2.458 . S
U406 C409 2.984 . S
U406 C410 2.847 . S
U406 C423 2.882 . S
U406 O424 2.441 . S
U406 O425 2.420 . S
U406 O426 2.455 . S
U406 O427 2.449 . S
O407 U406 2.454 . S
O407 C409 1.353 . S
O408 U406 2.458 . S
O408 C409 1.286 . S
C409 U406 2.984 . S
C409 O407 1.353 . S
C409 O408 1.286 . S
C409 C411 1.363 . S
C410 C400 1.465 . S
C410 U406 2.847 . S
C410 O424 1.249 . S
C410 O425 1.202 . S
C411 C409 1.363 . S
C411 C413 1.408 . S
C411 C416 1.342 . S
C412 C413 1.310 . S
C412 C415 1.461 . S
C412 H432 0.932 . S
C413 C411 1.408 . S
C413 C412 1.310 . S
C413 H433 0.930 . S
C414 C415 1.474 . S
C414 C416 1.285 . S
C414 H434 0.929 . S
C415 C412 1.461 . S
C415 C414 1.474 . S
C416 C411 1.342 . S
C416 C414 1.285 . S
C416 H435 0.930 . S
C417 C420 1.424 . S
C417 C422 1.245 . S
C417 C423 1.428 . S
C418 C421 1.260 . S
C418 C422 1.477 . S
C418 H436 0.932 . S
C419 C420 1.384 . S
C419 C421 1.479 . S
C419 H437 0.929 . S
C420 C417 1.424 . S
C420 C419 1.384 . S
C420 H438 0.928 . S
C421 C418 1.260 . S
C421 C419 1.479 . S
C422 C417 1.245 . S
C422 C418 1.477 . S
C422 H439 0.932 . S
C423 U406 2.882 . S
C423 C417 1.428 . S
C423 O426 1.301 . S
C423 O427 1.282 . S
O424 U406 2.441 . S
O424 C410 1.249 . S
O425 U406 2.420 . S
O425 C410 1.202 . S
O426 U406 2.455 . S
O426 C423 1.301 . S
O427 U406 2.449 . S
O427 C423 1.282 . S
H428 C401 0.931 . S
H429 C403 0.929 . S
H430 C404 0.930 . S
H431 C405 0.931 . S
H432 C412 0.932 . S
H433 C413 0.930 . S
H434 C414 0.929 . S
H435 C416 0.930 . S
H436 C418 0.932 . S
H437 C419 0.929 . S
H438 C420 0.928 . S
H439 C422 0.932 . S
C440 C441 1.264 . S
C440 C445 1.479 . S
C440 C450 1.465 . S
C441 C440 1.264 . S
C441 C443 1.339 . S
C441 H468 0.931 . S
C442 C443 1.395 . S
C442 C444 1.320 . S
C443 C441 1.339 . S
C443 C442 1.395 . S
C443 H469 0.929 . S
C444 C442 1.320 . S
C444 C445 1.405 . S
C444 H470 0.930 . S
C445 C440 1.479 . S
C445 C444 1.405 . S
C445 H471 0.931 . S
U446 O447 2.454 . S
U446 O448 2.458 . S
U446 C449 2.984 . S
U446 C450 2.847 . S
U446 C463 2.882 . S
U446 O464 2.441 . S
U446 O465 2.420 . S
U446 O466 2.455 . S
U446 O467 2.449 . S
O447 U446 2.454 . S
O447 C449 1.353 . S
O448 U446 2.458 . S
O448 C449 1.286 . S
C449 U446 2.984 . S
C449 O447 1.353 . S
C449 O448 1.286 . S
C449 C451 1.363 . S
C450 C440 1.465 . S
C450 U446 2.847 . S
C450 O464 1.249 . S
C450 O465 1.202 . S
C451 C449 1.363 . S
C451 C453 1.408 . S
C451 C456 1.342 . S
C452 C453 1.310 . S
C452 C455 1.461 . S
C452 H472 0.932 . S
C453 C451 1.408 . S
C453 C452 1.310 . S
C453 H473 0.930 . S
C454 C455 1.474 . S
C454 C456 1.285 . S
C454 H474 0.929 . S
C455 C452 1.461 . S
C455 C454 1.474 . S
C456 C451 1.342 . S
C456 C454 1.285 . S
C456 H475 0.930 . S
C457 C460 1.424 . S
C457 C462 1.245 . S
C457 C463 1.428 . S
C458 C461 1.260 . S
C458 C462 1.477 . S
C458 H476 0.932 . S
C459 C460 1.384 . S
C459 C461 1.479 . S
C459 H477 0.929 . S
C460 C457 1.424 . S
C460 C459 1.384 . S
C460 H478 0.928 . S
C461 C458 1.260 . S
C461 C459 1.479 . S
C462 C457 1.245 . S
C462 C458 1.477 . S
C462 H479 0.932 . S
C463 U446 2.882 . S
C463 C457 1.428 . S
C463 O466 1.301 . S
C463 O467 1.282 . S
O464 U446 2.441 . S
O464 C450 1.249 . S
O465 U446 2.420 . S
O465 C450 1.202 . S
O466 U446 2.455 . S
O466 C463 1.301 . S
O467 U446 2.449 . S
O467 C463 1.282 . S
H468 C441 0.931 . S
H469 C443 0.929 . S
H470 C444 0.930 . S
H471 C445 0.931 . S
H472 C452 0.932 . S
H473 C453 0.930 . S
H474 C454 0.929 . S
H475 C456 0.930 . S
H476 C458 0.932 . S
H477 C459 0.929 . S
H478 C460 0.928 . S
H479 C462 0.932 . S
C480 C481 1.264 . S
C480 C485 1.479 . S
C480 C490 1.465 . S
C481 C480 1.264 . S
C481 C483 1.339 . S
C481 H508 0.931 . S
C482 C483 1.395 . S
C482 C484 1.320 . S
C483 C481 1.339 . S
C483 C482 1.395 . S
C483 H509 0.929 . S
C484 C482 1.320 . S
C484 C485 1.405 . S
C484 H510 0.930 . S
C485 C480 1.479 . S
C485 C484 1.405 . S
C485 H511 0.931 . S
U486 O487 2.454 . S
U486 O488 2.458 . S
U486 C489 2.984 . S
U486 C490 2.847 . S
U486 C503 2.882 . S
U486 O504 2.441 . S
U486 O505 2.420 . S
U486 O506 2.455 . S
U486 O507 2.449 . S
O487 U486 2.454 . S
O487 C489 1.353 . S
O488 U486 2.458 . S
O488 C489 1.286 . S
C489 U486 2.984 . S
C489 O487 1.353 . S
C489 O488 1.286 . S
C489 C491 1.363 . S
C490 C480 1.465 . S
C490 U486 2.847 . S
C490 O504 1.249 . S
C490 O505 1.202 . S
C491 C489 1.363 . S
C491 C493 1.408 . S
C491 C496 1.342 . S
C492 C493 1.310 . S
C492 C495 1.461 . S
C492 H512 0.932 . S
C493 C491 1.408 . S
C493 C492 1.310 . S
C493 H513 0.930 . S
C494 C495 1.474 . S
C494 C496 1.285 . S
C494 H514 0.929 . S
C495 C492 1.461 . S
C495 C494 1.474 . S
C496 C491 1.342 . S
C496 C494 1.285 . S
C496 H515 0.930 . S
C497 C500 1.424 . S
C497 C502 1.245 . S
C497 C503 1.428 . S
C498 C501 1.260 . S
C498 C502 1.477 . S
C498 H516 0.932 . S
C499 C500 1.384 . S
C499 C501 1.479 . S
C499 H517 0.929 . S
C500 C497 1.424 . S
C500 C499 1.384 . S
C500 H518 0.928 . S
C501 C498 1.260 . S
C501 C499 1.479 . S
C502 C497 1.245 . S
C502 C498 1.477 . S
C502 H519 0.932 . S
C503 U486 2.882 . S
C503 C497 1.428 . S
C503 O506 1.301 . S
C503 O507 1.282 . S
O504 U486 2.441 . S
O504 C490 1.249 . S
O505 U486 2.420 . S
O505 C490 1.202 . S
O506 U486 2.455 . S
O506 C503 1.301 . S
O507 U486 2.449 . S
O507 C503 1.282 . S
H508 C481 0.931 . S
H509 C483 0.929 . S
H510 C484 0.930 . S
H511 C485 0.931 . S
H512 C492 0.932 . S
H513 C493 0.930 . S
H514 C494 0.929 . S
H515 C496 0.930 . S
H516 C498 0.932 . S
H517 C499 0.929 . S
H518 C500 0.928 . S
H519 C502 0.932 . S
C520 C521 1.264 . S
C520 C525 1.479 . S
C520 C530 1.465 . S
C521 C520 1.264 . S
C521 C523 1.339 . S
C521 H548 0.931 . S
C522 C523 1.395 . S
C522 C524 1.320 . S
C523 C521 1.339 . S
C523 C522 1.395 . S
C523 H549 0.929 . S
C524 C522 1.320 . S
C524 C525 1.405 . S
C524 H550 0.930 . S
C525 C520 1.479 . S
C525 C524 1.405 . S
C525 H551 0.931 . S
U526 O527 2.454 . S
U526 O528 2.433 1_556 S
U526 C529 2.984 . S
U526 C530 2.847 . S
U526 C543 2.882 . S
U526 O544 2.441 . S
U526 O545 2.420 . S
U526 O546 2.455 . S
U526 O547 2.449 . S
O527 U526 2.454 . S
O527 C529 1.353 . S
O528 U526 2.433 1_554 S
O528 C529 1.284 1_554 S
C529 U526 2.984 . S
C529 O527 1.353 . S
C529 O528 1.284 1_556 S
C529 C531 1.363 1_556 S
C530 C520 1.465 . S
C530 U526 2.847 . S
C530 O544 1.249 . S
C530 O545 1.202 . S
C531 C529 1.363 1_554 S
C531 C533 1.408 . S
C531 C536 1.342 . S
C532 C533 1.310 . S
C532 C535 1.461 . S
C532 H552 0.932 . S
C533 C531 1.408 . S
C533 C532 1.310 . S
C533 H553 0.930 1_554 S
C534 C535 1.474 . S
C534 C536 1.285 . S
C534 H554 0.929 . S
C535 C532 1.461 . S
C535 C534 1.474 . S
C536 C531 1.342 . S
C536 C534 1.285 . S
C536 H555 0.930 . S
C537 C540 1.424 . S
C537 C542 1.244 . S
C537 C543 1.428 . S
C538 C541 1.228 1_554 S
C538 C542 1.478 1_554 S
C538 H556 0.969 . S
C539 C540 1.384 . S
C539 C541 1.479 . S
C539 H557 0.929 . S
C540 C537 1.424 . S
C540 C539 1.384 . S
C540 H558 0.928 . S
C541 C538 1.228 1_556 S
C541 C539 1.479 . S
C542 C537 1.244 . S
C542 C538 1.478 1_556 S
C542 H559 0.933 1_556 S
C543 U526 2.882 . S
C543 C537 1.428 . S
C543 O546 1.301 . S
C543 O547 1.282 . S
O544 U526 2.441 . S
O544 C530 1.249 . S
O545 U526 2.420 . S
O545 C530 1.202 . S
O546 U526 2.455 . S
O546 C543 1.301 . S
O547 U526 2.449 . S
O547 C543 1.282 . S
H548 C521 0.931 . S
H549 C523 0.929 . S
H550 C524 0.930 . S
H551 C525 0.931 . S
H552 C532 0.932 . S
H553 C533 0.930 1_556 S
H554 C534 0.929 . S
H555 C536 0.930 . S
H556 C538 0.969 . S
H557 C539 0.929 . S
H558 C540 0.928 . S
H559 C542 0.933 1_554 S
C560 C561 1.264 . S
C560 C565 1.479 . S
C560 C570 1.465 . S
C561 C560 1.264 . S
C561 C563 1.339 . S
C561 H588 0.931 . S
C562 C563 1.395 . S
C562 C564 1.320 . S
C563 C561 1.339 . S
C563 C562 1.395 . S
C563 H589 0.929 . S
C564 C562 1.320 . S
C564 C565 1.405 . S
C564 H590 0.930 . S
C565 C560 1.479 . S
C565 C564 1.405 . S
C565 H591 0.931 . S
U566 O567 2.454 . S
U566 O568 2.458 . S
U566 C569 2.984 . S
U566 C570 2.847 . S
U566 C583 2.882 . S
U566 O584 2.441 . S
U566 O585 2.420 . S
U566 O586 2.455 . S
U566 O587 2.449 . S
O567 U566 2.454 . S
O567 C569 1.353 . S
O568 U566 2.458 . S
O568 C569 1.286 . S
C569 U566 2.984 . S
C569 O567 1.353 . S
C569 O568 1.286 . S
C569 C571 1.363 . S
C570 C560 1.465 . S
C570 U566 2.847 . S
C570 O584 1.249 . S
C570 O585 1.202 . S
C571 C569 1.363 . S
C571 C573 1.408 . S
C571 C576 1.342 . S
C572 C573 1.310 . S
C572 C575 1.461 . S
C572 H592 0.932 . S
C573 C571 1.408 . S
C573 C572 1.310 . S
C573 H593 0.930 . S
C574 C575 1.474 . S
C574 C576 1.285 . S
C574 H594 0.929 . S
C575 C572 1.461 . S
C575 C574 1.474 . S
C576 C571 1.342 . S
C576 C574 1.285 . S
C576 H595 0.930 . S
C577 C580 1.424 . S
C577 C582 1.245 . S
C577 C583 1.428 . S
C578 C581 1.260 . S
C578 C582 1.477 . S
C578 H596 0.932 . S
C579 C580 1.384 . S
C579 C581 1.479 . S
C579 H597 0.929 . S
C580 C577 1.424 . S
C580 C579 1.384 . S
C580 H598 0.928 . S
C581 C578 1.260 . S
C581 C579 1.479 . S
C582 C577 1.245 . S
C582 C578 1.477 . S
C582 H599 0.932 . S
C583 U566 2.882 . S
C583 C577 1.428 . S
C583 O586 1.301 . S
C583 O587 1.282 . S
O584 U566 2.441 . S
O584 C570 1.249 . S
O585 U566 2.420 . S
O585 C570 1.202 . S
O586 U566 2.455 . S
O586 C583 1.301 . S
O587 U566 2.449 . S
O587 C583 1.282 . S
H588 C561 0.931 . S
H589 C563 0.929 . S
H590 C564 0.930 . S
H591 C565 0.931 . S
H592 C572 0.932 . S
H593 C573 0.930 . S
H594 C574 0.929 . S
H595 C576 0.930 . S
H596 C578 0.932 . S
H597 C579 0.929 . S
H598 C580 0.928 . S
H599 C582 0.932 . S
C600 C601 1.264 . S
C600 C605 1.479 . S
C600 C610 1.465 . S
C601 C600 1.264 . S
C601 C603 1.339 . S
C601 H628 0.931 . S
C602 C603 1.395 . S
C602 C604 1.320 . S
C603 C601 1.339 . S
C603 C602 1.395 . S
C603 H629 0.929 . S
C604 C602 1.320 . S
C604 C605 1.405 . S
C604 H630 0.930 . S
C605 C600 1.479 . S
C605 C604 1.405 . S
C605 H631 0.931 . S
U606 O607 2.454 . S
U606 O608 2.458 1_545 S
U606 C609 2.984 1_545 S
U606 C610 2.847 1_556 S
U606 C623 2.882 . S
U606 O624 2.441 1_556 S
U606 O625 2.434 . S
U606 O626 2.455 . S
U606 O627 2.449 . S
O607 U606 2.454 . S
O607 C609 1.353 1_545 S
O608 U606 2.458 1_565 S
O608 C609 1.286 . S
C609 U606 2.984 1_565 S
C609 O607 1.353 1_565 S
C609 O608 1.286 . S
C609 C611 1.363 . S
C610 C600 1.465 . S
C610 U606 2.847 1_554 S
C610 O624 1.249 . S
C610 O625 1.180 1_554 S
C611 C609 1.363 . S
C611 C613 1.408 1_556 S
C611 C616 1.342 . S
C612 C613 1.310 . S
C612 C615 1.461 1_554 S
C612 H632 0.932 . S
C613 C611 1.408 1_554 S
C613 C612 1.310 . S
C613 H633 0.930 . S
C614 C615 1.474 . S
C614 C616 1.285 . S
C614 H634 0.929 . S
C615 C612 1.461 1_556 S
C615 C614 1.474 . S
C616 C611 1.342 . S
C616 C614 1.285 . S
C616 H635 0.930 . S
C617 C620 1.424 . S
C617 C622 1.245 1_545 S
C617 C623 1.428 . S
C618 C621 1.260 1_565 S
C618 C622 1.477 . S
C618 H636 0.932 . S
C619 C620 1.384 . S
C619 C621 1.479 . S
C619 H637 0.929 . S
C620 C617 1.424 . S
C620 C619 1.384 . S
C620 H638 0.928 . S
C621 C618 1.260 1_545 S
C621 C619 1.479 . S
C622 C617 1.245 1_565 S
C622 C618 1.477 . S
C622 H639 0.932 . S
C623 U606 2.882 . S
C623 C617 1.428 . S
C623 O626 1.301 . S
C623 O627 1.282 . S
O624 U606 2.441 1_554 S
O624 C610 1.249 . S
O625 U606 2.434 . S
O625 C610 1.180 1_556 S
O626 U606 2.455 . S
O626 C623 1.301 . S
O627 U606 2.449 . S
O627 C623 1.282 . S
H628 C601 0.931 . S
H629 C603 0.929 . S
H630 C604 0.930 . S
H631 C605 0.931 . S
H632 C612 0.932 . S
H633 C613 0.930 . S
H634 C614 0.929 . S
H635 C616 0.930 . S
H636 C618 0.932 . S
H637 C619 0.929 . S
H638 C620 0.928 . S
H639 C622 0.932 . S
Mg640 O641 2.028 . S
Mg640 O647 1.986 1_554 S
Mg640 O649 2.114 . S
Mg640 O650 2.251 . S
Mg640 O653 2.010 . S
O641 Mg640 2.028 . S
O641 C644 1.249 1_554 S
O642 Mg643 2.028 . S
O642 C644 1.248 . S
Mg643 O642 2.028 . S
Mg643 O648 2.032 . S
Mg643 O650 2.079 1_556 S
C644 O641 1.249 1_556 S
C644 O642 1.248 . S
C645 O646 1.264 . S
C645 O653 1.249 . S
O646 C645 1.264 . S
O647 Mg640 1.986 1_556 S
O647 C651 1.246 . S
O648 Mg643 2.032 . S
O648 C651 1.259 . S
O649 Mg640 2.114 . S
O649 C652 1.252 . S
O650 Mg640 2.251 . S
O650 Mg643 2.079 1_554 S
O650 C652 1.273 . S
C651 O647 1.246 . S
C651 O648 1.259 . S
C652 O649 1.252 . S
C652 O650 1.273 . S
O653 Mg640 2.010 . S
O653 C645 1.249 . S
Mg654 O655 2.028 . S
Mg654 O661 1.986 . S
Mg654 O663 2.114 . S
Mg654 O664 2.251 . S
Mg654 O667 2.010 . S
O655 Mg654 2.028 . S
O655 C658 1.250 . S
O656 Mg657 2.028 . S
O656 C658 1.248 . S
Mg657 O656 2.028 . S
Mg657 O662 2.032 . S
Mg657 O664 2.079 . S
C658 O655 1.250 . S
C658 O656 1.248 . S
C659 O660 1.264 . S
C659 O667 1.249 . S
O660 C659 1.264 . S
O661 Mg654 1.986 . S
O661 C665 1.246 . S
O662 Mg657 2.032 . S
O662 C665 1.259 . S
O663 Mg654 2.114 . S
O663 C666 1.252 . S
O664 Mg654 2.251 . S
O664 Mg657 2.079 . S
O664 C666 1.273 . S
C665 O661 1.246 . S
C665 O662 1.259 . S
C666 O663 1.252 . S
C666 O664 1.273 . S
O667 Mg654 2.010 . S
O667 C659 1.249 . S
Mg668 O669 2.033 . S
Mg668 O675 1.986 1_554 S
Mg668 O677 2.114 . S
Mg668 O678 2.251 . S
Mg668 O681 2.010 . S
O669 Mg668 2.033 . S
O669 C672 1.246 1_554 S
O670 Mg671 2.028 . S
O670 C672 1.248 . S
Mg671 O670 2.028 . S
Mg671 O676 2.032 . S
Mg671 O678 2.079 1_556 S
C672 O669 1.246 1_556 S
C672 O670 1.248 . S
C673 O674 1.264 . S
C673 O681 1.249 . S
O674 C673 1.264 . S
O675 Mg668 1.986 1_556 S
O675 C679 1.246 . S
O676 Mg671 2.032 . S
O676 C679 1.259 . S
O677 Mg668 2.114 . S
O677 C680 1.252 . S
O678 Mg668 2.251 . S
O678 Mg671 2.079 1_554 S
O678 C680 1.273 . S
C679 O675 1.246 . S
C679 O676 1.259 . S
C680 O677 1.252 . S
C680 O678 1.273 . S
O681 Mg668 2.010 . S
O681 C673 1.249 . S
Mg682 O683 2.055 . S
Mg682 O689 1.986 . S
Mg682 O691 2.114 . S
Mg682 O692 2.251 . S
Mg682 O695 2.010 . S
O683 Mg682 2.055 . S
O683 C686 1.213 1_545 S
O684 Mg685 2.028 . S
O684 C686 1.248 . S
Mg685 O684 2.028 . S
Mg685 O690 2.032 . S
Mg685 O692 2.079 1_565 S
C686 O683 1.213 1_565 S
C686 O684 1.248 . S
C687 O688 1.264 . S
C687 O695 1.249 . S
O688 C687 1.264 . S
O689 Mg682 1.986 . S
O689 C693 1.246 . S
O690 Mg685 2.032 . S
O690 C693 1.259 1_565 S
O691 Mg682 2.114 . S
O691 C694 1.252 . S
O692 Mg682 2.251 . S
O692 Mg685 2.079 1_545 S
O692 C694 1.273 . S
C693 O689 1.246 . S
C693 O690 1.259 1_545 S
C694 O691 1.252 . S
C694 O692 1.273 . S
O695 Mg682 2.010 . S
O695 C687 1.249 . S
Mg696 O697 2.028 . S
Mg696 O703 1.986 . S
Mg696 O705 2.114 . S
Mg696 O706 2.251 . S
Mg696 O709 2.010 . S
O697 Mg696 2.028 . S
O697 C700 1.250 . S
O698 Mg699 2.028 . S
O698 C700 1.248 . S
Mg699 O698 2.028 . S
Mg699 O704 2.032 . S
Mg699 O706 2.079 . S
C700 O697 1.250 . S
C700 O698 1.248 . S
C701 O702 1.264 . S
C701 O709 1.249 . S
O702 C701 1.264 . S
O703 Mg696 1.986 . S
O703 C707 1.246 . S
O704 Mg699 2.032 . S
O704 C707 1.259 . S
O705 Mg696 2.114 . S
O705 C708 1.252 . S
O706 Mg696 2.251 . S
O706 Mg699 2.079 . S
O706 C708 1.273 . S
C707 O703 1.246 . S
C707 O704 1.259 . S
C708 O705 1.252 . S
C708 O706 1.273 . S
O709 Mg696 2.010 . S
O709 C701 1.249 . S
Mg710 O711 2.028 . S
Mg710 O717 1.986 . S
Mg710 O719 2.114 . S
Mg710 O720 2.251 . S
Mg710 O723 2.010 . S
O711 Mg710 2.028 . S
O711 C714 1.250 . S
O712 Mg713 2.028 . S
O712 C714 1.248 . S
Mg713 O712 2.028 . S
Mg713 O718 2.032 . S
Mg713 O720 2.079 . S
C714 O711 1.250 . S
C714 O712 1.248 . S
C715 O716 1.264 . S
C715 O723 1.249 . S
O716 C715 1.264 . S
O717 Mg710 1.986 . S
O717 C721 1.246 . S
O718 Mg713 2.032 . S
O718 C721 1.259 . S
O719 Mg710 2.114 . S
O719 C722 1.252 . S
O720 Mg710 2.251 . S
O720 Mg713 2.079 . S
O720 C722 1.273 . S
C721 O717 1.246 . S
C721 O718 1.259 . S
C722 O719 1.252 . S
C722 O720 1.273 . S
O723 Mg710 2.010 . S
O723 C715 1.249 . S
Mg724 O725 2.028 . S
Mg724 O731 1.986 . S
Mg724 O733 2.114 . S
Mg724 O734 2.251 . S
Mg724 O737 2.010 . S
O725 Mg724 2.028 . S
O725 C728 1.250 . S
O726 Mg727 2.028 . S
O726 C728 1.248 . S
Mg727 O726 2.028 . S
Mg727 O732 2.032 . S
Mg727 O734 2.079 . S
C728 O725 1.250 . S
C728 O726 1.248 . S
C729 O730 1.264 . S
C729 O737 1.249 . S
O730 C729 1.264 . S
O731 Mg724 1.986 . S
O731 C735 1.246 . S
O732 Mg727 2.032 . S
O732 C735 1.259 . S
O733 Mg724 2.114 . S
O733 C736 1.252 . S
O734 Mg724 2.251 . S
O734 Mg727 2.079 . S
O734 C736 1.273 . S
C735 O731 1.246 . S
C735 O732 1.259 . S
C736 O733 1.252 . S
C736 O734 1.273 . S
O737 Mg724 2.010 . S
O737 C729 1.249 . S
Mg738 O739 2.028 1_545 S
Mg738 O745 1.986 1_545 S
Mg738 O747 2.114 . S
Mg738 O748 2.251 . S
Mg738 O751 2.010 . S
O739 Mg738 2.028 1_565 S
O739 C742 1.250 . S
O740 Mg741 2.028 . S
O740 C742 1.248 . S
Mg741 O740 2.028 . S
Mg741 O746 2.032 . S
Mg741 O748 2.079 1_565 S
C742 O739 1.250 . S
C742 O740 1.248 . S
C743 O744 1.264 . S
C743 O751 1.249 . S
O744 C743 1.264 . S
O745 Mg738 1.986 1_565 S
O745 C749 1.246 . S
O746 Mg741 2.032 . S
O746 C749 1.259 . S
O747 Mg738 2.114 . S
O747 C750 1.252 . S
O748 Mg738 2.251 . S
O748 Mg741 2.079 1_545 S
O748 C750 1.273 . S
C749 O745 1.246 . S
C749 O746 1.259 . S
C750 O747 1.252 . S
C750 O748 1.273 . S
O751 Mg738 2.010 . S
O751 C743 1.249 . S
Mg752 O753 2.028 . S
Mg752 O759 1.986 . S
Mg752 O761 2.114 . S
Mg752 O762 2.251 . S
Mg752 O765 2.010 . S
O753 Mg752 2.028 . S
O753 C756 1.250 1_455 S
O754 Mg755 2.028 . S
O754 C756 1.248 . S
Mg755 O754 2.028 . S
Mg755 O760 2.032 . S
Mg755 O762 2.079 1_655 S
C756 O753 1.250 1_655 S
C756 O754 1.248 . S
C757 O758 1.264 . S
C757 O765 1.249 . S
O758 C757 1.264 . S
O759 Mg752 1.986 . S
O759 C763 1.246 . S
O760 Mg755 2.032 . S
O760 C763 1.259 1_655 S
O761 Mg752 2.114 . S
O761 C764 1.252 . S
O762 Mg752 2.251 . S
O762 Mg755 2.079 1_455 S
O762 C764 1.273 . S
C763 O759 1.246 . S
C763 O760 1.259 1_455 S
C764 O761 1.252 . S
C764 O762 1.273 . S
O765 Mg752 2.010 . S
O765 C757 1.249 . S
Mg766 O767 2.028 . S
Mg766 O773 1.986 . S
Mg766 O775 2.114 . S
Mg766 O776 2.251 . S
Mg766 O779 2.010 . S
O767 Mg766 2.028 . S
O767 C770 1.250 . S
O768 Mg769 2.028 . S
O768 C770 1.248 . S
Mg769 O768 2.028 . S
Mg769 O774 2.032 . S
Mg769 O776 2.079 . S
C770 O767 1.250 . S
C770 O768 1.248 . S
C771 O772 1.264 . S
C771 O779 1.249 . S
O772 C771 1.264 . S
O773 Mg766 1.986 . S
O773 C777 1.246 . S
O774 Mg769 2.032 . S
O774 C777 1.259 . S
O775 Mg766 2.114 . S
O775 C778 1.252 . S
O776 Mg766 2.251 . S
O776 Mg769 2.079 . S
O776 C778 1.273 . S
C777 O773 1.246 . S
C777 O774 1.259 . S
C778 O775 1.252 . S
C778 O776 1.273 . S
O779 Mg766 2.010 . S
O779 C771 1.249 . S
Mg780 O781 2.028 1_655 S
Mg780 O787 1.998 . S
Mg780 O789 2.114 . S
Mg780 O790 2.251 1_655 S
Mg780 O793 2.010 . S
O781 Mg780 2.028 1_455 S
O781 C784 1.250 . S
O782 Mg783 2.028 . S
O782 C784 1.248 . S
Mg783 O782 2.028 . S
Mg783 O788 2.032 . S
Mg783 O790 2.079 . S
C784 O781 1.250 . S
C784 O782 1.248 . S
C785 O786 1.264 . S
C785 O793 1.249 . S
O786 C785 1.264 . S
O787 Mg780 1.998 . S
O787 C791 1.213 1_655 S
O788 Mg783 2.032 . S
O788 C791 1.259 . S
O789 Mg780 2.114 . S
O789 C792 1.252 . S
O790 Mg780 2.251 1_455 S
O790 Mg783 2.079 . S
O790 C792 1.273 1_455 S
C791 O787 1.213 1_455 S
C791 O788 1.259 . S
C792 O789 1.252 . S
C792 O790 1.273 1_655 S
O793 Mg780 2.010 . S
O793 C785 1.249 . S
Mg794 O795 2.028 . S
Mg794 O801 1.986 . S
Mg794 O803 2.114 . S
Mg794 O804 2.251 . S
Mg794 O807 2.010 . S
O795 Mg794 2.028 . S
O795 C798 1.250 . S
O796 Mg797 2.028 . S
O796 C798 1.248 . S
Mg797 O796 2.028 . S
Mg797 O802 2.032 . S
Mg797 O804 2.079 . S
C798 O795 1.250 . S
C798 O796 1.248 . S
C799 O800 1.264 . S
C799 O807 1.249 . S
O800 C799 1.264 . S
O801 Mg794 1.986 . S
O801 C805 1.246 . S
O802 Mg797 2.032 . S
O802 C805 1.259 . S
O803 Mg794 2.114 . S
O803 C806 1.252 . S
O804 Mg794 2.251 . S
O804 Mg797 2.079 . S
O804 C806 1.273 . S
C805 O801 1.246 . S
C805 O802 1.259 . S
C806 O803 1.252 . S
C806 O804 1.273 . S
O807 Mg794 2.010 . S
O807 C799 1.249 . S
C808 C809 1.363 . S
C808 C814 1.379 . S
C808 N816 1.356 . S
C809 C808 1.363 . S
C809 C815 1.363 . S
C810 C811 1.363 . S
C810 C815 1.379 . S
C810 N817 1.356 . S
C811 C810 1.363 . S
C811 C814 1.363 . S
N812 C814 1.356 . S
N812 H824 0.984 . S
N812 H825 0.985 . S
N813 C815 1.356 . S
N813 H818 0.984 . S
N813 H819 0.985 . S
C814 C808 1.379 . S
C814 C811 1.363 . S
C814 N812 1.356 . S
C815 C809 1.363 . S
C815 C810 1.379 . S
C815 N813 1.356 . S
N816 C808 1.356 . S
N816 H822 0.984 . S
N816 H823 0.984 . S
N817 C810 1.356 . S
N817 H820 0.984 . S
N817 H821 0.985 . S
H818 N813 0.984 . S
H819 N813 0.985 . S
H820 N817 0.984 . S
H821 N817 0.985 . S
H822 N816 0.984 . S
H823 N816 0.984 . S
H824 N812 0.984 . S
H825 N812 0.985 . S
C826 C827 1.363 . S
C826 C832 1.379 . S
C826 N834 1.356 . S
C827 C826 1.363 . S
C827 C833 1.363 . S
C828 C829 1.363 . S
C828 C833 1.379 . S
C828 N835 1.356 . S
C829 C828 1.363 . S
C829 C832 1.363 . S
N830 C832 1.356 . S
N830 H842 0.984 . S
N830 H843 0.985 . S
N831 C833 1.356 . S
N831 H836 0.984 . S
N831 H837 0.985 . S
C832 C826 1.379 . S
C832 C829 1.363 . S
C832 N830 1.356 . S
C833 C827 1.363 . S
C833 C828 1.379 . S
C833 N831 1.356 . S
N834 C826 1.356 . S
N834 H840 0.984 . S
N834 H841 0.984 . S
N835 C828 1.356 . S
N835 H838 0.984 . S
N835 H839 0.985 . S
H836 N831 0.984 . S
H837 N831 0.985 . S
H838 N835 0.984 . S
H839 N835 0.985 . S
H840 N834 0.984 . S
H841 N834 0.984 . S
H842 N830 0.984 . S
H843 N830 0.985 . S
C844 C845 1.363 . S
C844 C850 1.379 . S
C844 N852 1.356 . S
C845 C844 1.363 . S
C845 C851 1.363 . S
C846 C847 1.363 . S
C846 C851 1.379 . S
C846 N853 1.356 . S
C847 C846 1.363 . S
C847 C850 1.363 . S
N848 C850 1.356 . S
N848 H860 0.984 . S
N848 H861 0.985 . S
N849 C851 1.356 . S
N849 H854 0.984 . S
N849 H855 0.985 . S
C850 C844 1.379 . S
C850 C847 1.363 . S
C850 N848 1.356 . S
C851 C845 1.363 . S
C851 C846 1.379 . S
C851 N849 1.356 . S
N852 C844 1.356 . S
N852 H858 0.984 . S
N852 H859 0.984 . S
N853 C846 1.356 . S
N853 H856 0.984 . S
N853 H857 0.985 . S
H854 N849 0.984 . S
H855 N849 0.985 . S
H856 N853 0.984 . S
H857 N853 0.985 . S
H858 N852 0.984 . S
H859 N852 0.984 . S
H860 N848 0.984 . S
H861 N848 0.985 . S
C862 C863 1.363 1_545 S
C862 C868 1.379 . S
C862 N870 1.356 . S
C863 C862 1.363 1_565 S
C863 C869 1.363 . S
C864 C865 1.363 1_565 S
C864 C869 1.379 . S
C864 N871 1.356 . S
C865 C864 1.363 1_545 S
C865 C868 1.363 . S
N866 C868 1.356 . S
N866 H878 0.984 . S
N866 H879 0.985 . S
N867 C869 1.356 . S
N867 H872 0.984 . S
N867 H873 0.985 . S
C868 C862 1.379 . S
C868 C865 1.363 . S
C868 N866 1.356 . S
C869 C863 1.363 . S
C869 C864 1.379 . S
C869 N867 1.356 . S
N870 C862 1.356 . S
N870 H876 0.984 . S
N870 H877 0.984 . S
N871 C864 1.356 . S
N871 H874 0.984 . S
N871 H875 0.985 . S
H872 N867 0.984 . S
H873 N867 0.985 . S
H874 N871 0.984 . S
H875 N871 0.985 . S
H876 N870 0.984 . S
H877 N870 0.984 . S
H878 N866 0.984 . S
H879 N866 0.985 . S
C880 C881 1.363 . S
C880 C886 1.379 . S
C880 N888 1.356 . S
C881 C880 1.363 . S
C881 C887 1.363 . S
C882 C883 1.363 . S
C882 C887 1.379 . S
C882 N889 1.356 . S
C883 C882 1.363 . S
C883 C886 1.363 . S
N884 C886 1.356 . S
N884 H896 0.984 . S
N884 H897 0.985 . S
N885 C887 1.356 . S
N885 H890 0.984 . S
N885 H891 0.985 . S
C886 C880 1.379 . S
C886 C883 1.363 . S
C886 N884 1.356 . S
C887 C881 1.363 . S
C887 C882 1.379 . S
C887 N885 1.356 . S
N888 C880 1.356 . S
N888 H894 0.984 . S
N888 H895 0.984 . S
N889 C882 1.356 . S
N889 H892 0.984 . S
N889 H893 0.985 . S
H890 N885 0.984 . S
H891 N885 0.985 . S
H892 N889 0.984 . S
H893 N889 0.985 . S
H894 N888 0.984 . S
H895 N888 0.984 . S
H896 N884 0.984 . S
H897 N884 0.985 . S
C898 C899 1.363 . S
C898 C904 1.379 . S
C898 N906 1.356 . S
C899 C898 1.363 . S
C899 C905 1.363 . S
C900 C901 1.363 . S
C900 C905 1.379 . S
C900 N907 1.356 . S
C901 C900 1.363 . S
C901 C904 1.363 . S
N902 C904 1.356 . S
N902 H914 0.984 . S
N902 H915 0.985 . S
N903 C905 1.356 . S
N903 H908 0.984 . S
N903 H909 0.985 . S
C904 C898 1.379 . S
C904 C901 1.363 . S
C904 N902 1.356 . S
C905 C899 1.363 . S
C905 C900 1.379 . S
C905 N903 1.356 . S
N906 C898 1.356 . S
N906 H912 0.984 . S
N906 H913 0.984 . S
N907 C900 1.356 . S
N907 H910 0.984 . S
N907 H911 0.985 . S
H908 N903 0.984 . S
H909 N903 0.985 . S
H910 N907 0.984 . S
H911 N907 0.985 . S
H912 N906 0.984 . S
H913 N906 0.984 . S
H914 N902 0.984 . S
H915 N902 0.985 . S
C916 C917 1.363 . S
C916 C922 1.379 . S
C916 N924 1.356 . S
C917 C916 1.363 . S
C917 C923 1.363 . S
C918 C919 1.363 . S
C918 C923 1.379 . S
C918 N925 1.356 . S
C919 C918 1.363 . S
C919 C922 1.363 . S
N920 C922 1.356 . S
N920 H932 0.984 . S
N920 H933 0.985 . S
N921 C923 1.356 . S
N921 H926 0.984 . S
N921 H927 0.985 . S
C922 C916 1.379 . S
C922 C919 1.363 . S
C922 N920 1.356 . S
C923 C917 1.363 . S
C923 C918 1.379 . S
C923 N921 1.356 . S
N924 C916 1.356 . S
N924 H930 0.984 . S
N924 H931 0.984 . S
N925 C918 1.356 . S
N925 H928 0.984 . S
N925 H929 0.985 . S
H926 N921 0.984 . S
H927 N921 0.985 . S
H928 N925 0.984 . S
H929 N925 0.985 . S
H930 N924 0.984 . S
H931 N924 0.984 . S
H932 N920 0.984 . S
H933 N920 0.985 . S
C934 C935 1.363 . S
C934 C940 1.379 . S
C934 N942 1.356 . S
C935 C934 1.363 . S
C935 C941 1.363 1_565 S
C936 C937 1.363 1_545 S
C936 C941 1.379 . S
C936 N943 1.356 . S
C937 C936 1.363 1_565 S
C937 C940 1.363 . S
N938 C940 1.356 . S
N938 H950 0.984 . S
N938 H951 0.985 . S
N939 C941 1.356 . S
N939 H944 0.984 . S
N939 H945 0.985 . S
C940 C934 1.379 . S
C940 C937 1.363 . S
C940 N938 1.356 . S
C941 C935 1.363 1_545 S
C941 C936 1.379 . S
C941 N939 1.356 . S
N942 C934 1.356 . S
N942 H948 0.984 . S
N942 H949 0.984 . S
N943 C936 1.356 . S
N943 H946 0.984 . S
N943 H947 0.985 . S
H944 N939 0.984 . S
H945 N939 0.985 . S
H946 N943 0.984 . S
H947 N943 0.985 . S
H948 N942 0.984 . S
H949 N942 0.984 . S
H950 N938 0.984 . S
H951 N938 0.985 . S
C952 C953 1.363 . S
C952 C958 1.379 . S
C952 N960 1.356 . S
C953 C952 1.363 . S
C953 C959 1.363 . S
C954 C955 1.363 . S
C954 C959 1.379 . S
C954 N961 1.356 . S
C955 C954 1.363 . S
C955 C958 1.363 . S
N956 C958 1.356 . S
N956 H968 0.984 . S
N956 H969 0.985 . S
N957 C959 1.356 . S
N957 H962 0.984 . S
N957 H963 0.985 . S
C958 C952 1.379 . S
C958 C955 1.363 . S
C958 N956 1.356 . S
C959 C953 1.363 . S
C959 C954 1.379 . S
C959 N957 1.356 . S
N960 C952 1.356 . S
N960 H966 0.984 . S
N960 H967 0.984 . S
N961 C954 1.356 . S
N961 H964 0.984 . S
N961 H965 0.985 . S
H962 N957 0.984 . S
H963 N957 0.985 . S
H964 N961 0.984 . S
H965 N961 0.985 . S
H966 N960 0.984 . S
H967 N960 0.984 . S
H968 N956 0.984 . S
H969 N956 0.985 . S
C970 C971 1.363 . S
C970 C976 1.379 . S
C970 N978 1.356 . S
C971 C970 1.363 . S
C971 C977 1.363 . S
C972 C973 1.363 . S
C972 C977 1.379 . S
C972 N979 1.356 . S
C973 C972 1.363 . S
C973 C976 1.363 . S
N974 C976 1.356 . S
N974 H986 0.984 . S
N974 H987 0.985 . S
N975 C977 1.356 . S
N975 H980 0.984 . S
N975 H981 0.985 . S
C976 C970 1.379 . S
C976 C973 1.363 . S
C976 N974 1.356 . S
C977 C971 1.363 . S
C977 C972 1.379 . S
C977 N975 1.356 . S
N978 C970 1.356 . S
N978 H984 0.984 . S
N978 H985 0.984 . S
N979 C972 1.356 . S
N979 H982 0.984 . S
N979 H983 0.985 . S
H980 N975 0.984 . S
H981 N975 0.985 . S
H982 N979 0.984 . S
H983 N979 0.985 . S
H984 N978 0.984 . S
H985 N978 0.984 . S
H986 N974 0.984 . S
H987 N974 0.985 . S
C988 C989 1.363 . S
C988 C994 1.379 . S
C988 N996 1.356 . S
C989 C988 1.363 . S
C989 C995 1.363 . S
C990 C991 1.363 . S
C990 C995 1.379 . S
C990 N997 1.356 . S
C991 C990 1.363 . S
C991 C994 1.363 . S
N992 C994 1.356 . S
N992 H1004 0.984 . S
N992 H1005 0.985 . S
N993 C995 1.356 . S
N993 H998 0.984 . S
N993 H999 0.985 . S
C994 C988 1.379 . S
C994 C991 1.363 . S
C994 N992 1.356 . S
C995 C989 1.363 . S
C995 C990 1.379 . S
C995 N993 1.356 . S
N996 C988 1.356 . S
N996 H1002 0.984 . S
N996 H1003 0.984 . S
N997 C990 1.356 . S
N997 H1000 0.984 . S
N997 H1001 0.985 . S
H998 N993 0.984 . S
H999 N993 0.985 . S
H1000 N997 0.984 . S
H1001 N997 0.985 . S
H1002 N996 0.984 . S
H1003 N996 0.984 . S
H1004 N992 0.984 . S
H1005 N992 0.985 . S
C1006 C1007 1.363 . S
C1006 C1012 1.379 . S
C1006 N1014 1.356 . S
C1007 C1006 1.363 . S
C1007 C1013 1.363 . S
C1008 C1009 1.363 . S
C1008 C1013 1.379 . S
C1008 N1015 1.356 . S
C1009 C1008 1.363 . S
C1009 C1012 1.363 . S
N1010 C1012 1.356 . S
N1010 H1022 0.984 . S
N1010 H1023 0.985 . S
N1011 C1013 1.356 . S
N1011 H1016 0.984 . S
N1011 H1017 0.985 . S
C1012 C1006 1.379 . S
C1012 C1009 1.363 . S
C1012 N1010 1.356 . S
C1013 C1007 1.363 . S
C1013 C1008 1.379 . S
C1013 N1011 1.356 . S
N1014 C1006 1.356 . S
N1014 H1020 0.984 . S
N1014 H1021 0.984 . S
N1015 C1008 1.356 . S
N1015 H1018 0.984 . S
N1015 H1019 0.985 . S
H1016 N1011 0.984 . S
H1017 N1011 0.985 . S
H1018 N1015 0.984 . S
H1019 N1015 0.985 . S
H1020 N1014 0.984 . S
H1021 N1014 0.984 . S
H1022 N1010 0.984 . S
H1023 N1010 0.985 . S
C1024 C1025 1.363 . S
C1024 C1030 1.379 . S
C1024 N1032 1.356 . S
C1025 C1024 1.363 . S
C1025 C1031 1.363 . S
C1026 C1027 1.363 . S
C1026 C1031 1.379 . S
C1026 N1033 1.356 . S
C1027 C1026 1.363 . S
C1027 C1030 1.363 . S
N1028 C1030 1.356 . S
N1028 H1040 0.984 . S
N1028 H1041 0.985 . S
N1029 C1031 1.356 . S
N1029 H1034 0.984 . S
N1029 H1035 0.985 . S
C1030 C1024 1.379 . S
C1030 C1027 1.363 . S
C1030 N1028 1.356 . S
C1031 C1025 1.363 . S
C1031 C1026 1.379 . S
C1031 N1029 1.356 . S
N1032 C1024 1.356 . S
N1032 H1038 0.984 . S
N1032 H1039 0.984 . S
N1033 C1026 1.356 . S
N1033 H1036 0.984 . S
N1033 H1037 0.985 . S
H1034 N1029 0.984 . S
H1035 N1029 0.985 . S
H1036 N1033 0.984 . S
H1037 N1033 0.985 . S
H1038 N1032 0.984 . S
H1039 N1032 0.984 . S
H1040 N1028 0.984 . S
H1041 N1028 0.985 . S
C1042 C1043 1.363 . S
C1042 C1048 1.379 . S
C1042 N1050 1.356 . S
C1043 C1042 1.363 . S
C1043 C1049 1.363 . S
C1044 C1045 1.363 . S
C1044 C1049 1.379 . S
C1044 N1051 1.356 . S
C1045 C1044 1.363 . S
C1045 C1048 1.363 . S
N1046 C1048 1.356 . S
N1046 H1058 0.984 . S
N1046 H1059 0.985 . S
N1047 C1049 1.356 . S
N1047 H1052 0.984 . S
N1047 H1053 0.985 . S
C1048 C1042 1.379 . S
C1048 C1045 1.363 . S
C1048 N1046 1.356 . S
C1049 C1043 1.363 . S
C1049 C1044 1.379 . S
C1049 N1047 1.356 . S
N1050 C1042 1.356 . S
N1050 H1056 0.984 . S
N1050 H1057 0.984 . S
N1051 C1044 1.356 . S
N1051 H1054 0.984 . S
N1051 H1055 0.985 1_455 S
H1052 N1047 0.984 . S
H1053 N1047 0.985 . S
H1054 N1051 0.984 . S
H1055 N1051 0.985 1_655 S
H1056 N1050 0.984 . S
H1057 N1050 0.984 . S
H1058 N1046 0.984 . S
H1059 N1046 0.985 . S
C1060 C1061 1.363 . S
C1060 C1066 1.379 . S
C1060 N1068 1.356 . S
C1061 C1060 1.363 . S
C1061 C1067 1.363 . S
C1062 C1063 1.363 . S
C1062 C1067 1.379 . S
C1062 N1069 1.356 . S
C1063 C1062 1.363 . S
C1063 C1066 1.363 . S
N1064 C1066 1.356 . S
N1064 H1076 0.984 . S
N1064 H1077 0.985 . S
N1065 C1067 1.356 . S
N1065 H1070 0.984 . S
N1065 H1071 0.985 . S
C1066 C1060 1.379 . S
C1066 C1063 1.363 . S
C1066 N1064 1.356 . S
C1067 C1061 1.363 . S
C1067 C1062 1.379 . S
C1067 N1065 1.356 . S
N1068 C1060 1.356 . S
N1068 H1074 0.984 . S
N1068 H1075 0.984 . S
N1069 C1062 1.356 . S
N1069 H1072 0.984 . S
N1069 H1073 0.985 . S
H1070 N1065 0.984 . S
H1071 N1065 0.985 . S
H1072 N1069 0.984 . S
H1073 N1069 0.985 . S
H1074 N1068 0.984 . S
H1075 N1068 0.984 . S
H1076 N1064 0.984 . S
H1077 N1064 0.985 . S
C1078 C1079 1.363 . S
C1078 C1084 1.379 . S
C1078 N1086 1.356 . S
C1079 C1078 1.363 . S
C1079 C1085 1.363 . S
C1080 C1081 1.363 . S
C1080 C1085 1.379 . S
C1080 N1087 1.356 . S
C1081 C1080 1.363 . S
C1081 C1084 1.363 . S
N1082 C1084 1.356 . S
N1082 H1094 0.984 . S
N1082 H1095 0.985 . S
N1083 C1085 1.356 . S
N1083 H1088 0.984 . S
N1083 H1089 0.985 . S
C1084 C1078 1.379 . S
C1084 C1081 1.363 . S
C1084 N1082 1.356 . S
C1085 C1079 1.363 . S
C1085 C1080 1.379 . S
C1085 N1083 1.356 . S
N1086 C1078 1.356 . S
N1086 H1092 0.984 . S
N1086 H1093 0.984 . S
N1087 C1080 1.356 . S
N1087 H1090 0.984 . S
N1087 H1091 0.985 . S
H1088 N1083 0.984 . S
H1089 N1083 0.985 . S
H1090 N1087 0.984 . S
H1091 N1087 0.985 . S
H1092 N1086 0.984 . S
H1093 N1086 0.984 . S
H1094 N1082 0.984 . S
H1095 N1082 0.985 . S
C1096 C1097 1.363 . S
C1096 C1102 1.379 . S
C1096 N1104 1.356 . S
C1097 C1096 1.363 . S
C1097 C1103 1.363 . S
C1098 C1099 1.363 . S
C1098 C1103 1.379 . S
C1098 N1105 1.356 . S
C1099 C1098 1.363 . S
C1099 C1102 1.363 . S
N1100 C1102 1.356 . S
N1100 H1112 0.984 . S
N1100 H1113 0.985 . S
N1101 C1103 1.356 . S
N1101 H1106 0.984 . S
N1101 H1107 0.985 . S
C1102 C1096 1.379 . S
C1102 C1099 1.363 . S
C1102 N1100 1.356 . S
C1103 C1097 1.363 . S
C1103 C1098 1.379 . S
C1103 N1101 1.356 . S
N1104 C1096 1.356 . S
N1104 H1110 0.984 . S
N1104 H1111 0.984 . S
N1105 C1098 1.356 . S
N1105 H1108 0.984 . S
N1105 H1109 0.985 . S
H1106 N1101 0.984 . S
H1107 N1101 0.985 . S
H1108 N1105 0.984 . S
H1109 N1105 0.985 . S
H1110 N1104 0.984 . S
H1111 N1104 0.984 . S
H1112 N1100 0.984 . S
H1113 N1100 0.985 . S
C1114 C1115 1.363 . S
C1114 C1120 1.379 . S
C1114 N1122 1.356 . S
C1115 C1114 1.363 . S
C1115 C1121 1.363 . S
C1116 C1117 1.363 . S
C1116 C1121 1.379 . S
C1116 N1123 1.356 . S
C1117 C1116 1.363 . S
C1117 C1120 1.363 . S
N1118 C1120 1.356 . S
N1118 H1130 0.984 . S
N1118 H1131 0.985 . S
N1119 C1121 1.356 . S
N1119 H1124 0.984 . S
N1119 H1125 0.985 . S
C1120 C1114 1.379 . S
C1120 C1117 1.363 . S
C1120 N1118 1.356 . S
C1121 C1115 1.363 . S
C1121 C1116 1.379 . S
C1121 N1119 1.356 . S
N1122 C1114 1.356 . S
N1122 H1128 0.984 . S
N1122 H1129 0.984 . S
N1123 C1116 1.356 . S
N1123 H1126 0.984 . S
N1123 H1127 0.985 . S
H1124 N1119 0.984 . S
H1125 N1119 0.985 . S
H1126 N1123 0.984 . S
H1127 N1123 0.985 . S
H1128 N1122 0.984 . S
H1129 N1122 0.984 . S
H1130 N1118 0.984 . S
H1131 N1118 0.985 . S
C1132 C1133 1.363 1_554 S
C1132 C1138 1.379 . S
C1132 N1140 1.356 . S
C1133 C1132 1.363 1_556 S
C1133 C1139 1.363 . S
C1134 C1135 1.363 . S
C1134 C1139 1.379 . S
C1134 N1141 1.356 . S
C1135 C1134 1.363 . S
C1135 C1138 1.363 1_556 S
N1136 C1138 1.356 . S
N1136 H1148 0.984 . S
N1136 H1149 0.985 . S
N1137 C1139 1.356 . S
N1137 H1142 0.984 . S
N1137 H1143 0.985 . S
C1138 C1132 1.379 . S
C1138 C1135 1.363 1_554 S
C1138 N1136 1.356 . S
C1139 C1133 1.363 . S
C1139 C1134 1.379 . S
C1139 N1137 1.356 . S
N1140 C1132 1.356 . S
N1140 H1146 0.984 . S
N1140 H1147 0.984 . S
N1141 C1134 1.356 . S
N1141 H1144 0.984 . S
N1141 H1145 0.985 . S
H1142 N1137 0.984 . S
H1143 N1137 0.985 . S
H1144 N1141 0.984 . S
H1145 N1141 0.985 . S
H1146 N1140 0.984 . S
H1147 N1140 0.984 . S
H1148 N1136 0.984 . S
H1149 N1136 0.985 . S
C1150 C1151 1.363 . S
C1150 C1156 1.379 . S
C1150 N1158 1.356 . S
C1151 C1150 1.363 . S
C1151 C1157 1.363 . S
C1152 C1153 1.363 . S
C1152 C1157 1.379 . S
C1152 N1159 1.356 . S
C1153 C1152 1.363 . S
C1153 C1156 1.363 . S
N1154 C1156 1.356 . S
N1154 H1166 0.984 . S
N1154 H1167 0.985 . S
N1155 C1157 1.356 . S
N1155 H1160 0.984 . S
N1155 H1161 0.985 . S
C1156 C1150 1.379 . S
C1156 C1153 1.363 . S
C1156 N1154 1.356 . S
C1157 C1151 1.363 . S
C1157 C1152 1.379 . S
C1157 N1155 1.356 . S
N1158 C1150 1.356 . S
N1158 H1164 0.984 . S
N1158 H1165 0.984 . S
N1159 C1152 1.356 . S
N1159 H1162 0.984 . S
N1159 H1163 0.985 . S
H1160 N1155 0.984 . S
H1161 N1155 0.985 . S
H1162 N1159 0.984 . S
H1163 N1159 0.985 . S
H1164 N1158 0.984 . S
H1165 N1158 0.984 . S
H1166 N1154 0.984 . S
H1167 N1154 0.985 . S
C1168 C1169 1.363 . S
C1168 C1174 1.379 . S
C1168 N1176 1.356 . S
C1169 C1168 1.363 . S
C1169 C1175 1.363 . S
C1170 C1171 1.363 . S
C1170 C1175 1.379 . S
C1170 N1177 1.356 . S
C1171 C1170 1.363 . S
C1171 C1174 1.363 . S
N1172 C1174 1.356 . S
N1172 H1184 0.984 . S
N1172 H1185 0.985 . S
N1173 C1175 1.356 . S
N1173 H1178 0.984 . S
N1173 H1179 0.985 . S
C1174 C1168 1.379 . S
C1174 C1171 1.363 . S
C1174 N1172 1.356 . S
C1175 C1169 1.363 . S
C1175 C1170 1.379 . S
C1175 N1173 1.356 . S
N1176 C1168 1.356 . S
N1176 H1182 0.984 . S
N1176 H1183 0.984 . S
N1177 C1170 1.356 . S
N1177 H1180 0.984 . S
N1177 H1181 0.985 . S
H1178 N1173 0.984 . S
H1179 N1173 0.985 . S
H1180 N1177 0.984 . S
H1181 N1177 0.985 . S
H1182 N1176 0.984 . S
H1183 N1176 0.984 . S
H1184 N1172 0.984 . S
H1185 N1172 0.985 . S
C1186 C1187 1.363 . S
C1186 C1192 1.379 . S
C1186 N1194 1.356 . S
C1187 C1186 1.363 . S
C1187 C1193 1.363 . S
C1188 C1189 1.363 . S
C1188 C1193 1.379 . S
C1188 N1195 1.356 . S
C1189 C1188 1.363 . S
C1189 C1192 1.363 . S
N1190 C1192 1.356 . S
N1190 H1202 0.984 . S
N1190 H1203 0.985 . S
N1191 C1193 1.356 . S
N1191 H1196 0.984 . S
N1191 H1197 0.985 . S
C1192 C1186 1.379 . S
C1192 C1189 1.363 . S
C1192 N1190 1.356 . S
C1193 C1187 1.363 . S
C1193 C1188 1.379 . S
C1193 N1191 1.356 . S
N1194 C1186 1.356 . S
N1194 H1200 0.984 . S
N1194 H1201 0.984 . S
N1195 C1188 1.356 . S
N1195 H1198 0.984 . S
N1195 H1199 0.985 . S
H1196 N1191 0.984 . S
H1197 N1191 0.985 . S
H1198 N1195 0.984 . S
H1199 N1195 0.985 . S
H1200 N1194 0.984 . S
H1201 N1194 0.984 . S
H1202 N1190 0.984 . S
H1203 N1190 0.985 . S
C1204 C1205 1.363 . S
C1204 C1210 1.379 . S
C1204 N1212 1.356 . S
C1205 C1204 1.363 . S
C1205 C1211 1.363 . S
C1206 C1207 1.363 . S
C1206 C1211 1.379 . S
C1206 N1213 1.356 . S
C1207 C1206 1.363 . S
C1207 C1210 1.363 . S
N1208 C1210 1.356 . S
N1208 H1220 0.984 . S
N1208 H1221 0.985 . S
N1209 C1211 1.356 . S
N1209 H1214 0.984 . S
N1209 H1215 0.985 . S
C1210 C1204 1.379 . S
C1210 C1207 1.363 . S
C1210 N1208 1.356 . S
C1211 C1205 1.363 . S
C1211 C1206 1.379 . S
C1211 N1209 1.356 . S
N1212 C1204 1.356 . S
N1212 H1218 0.984 . S
N1212 H1219 0.984 . S
N1213 C1206 1.356 . S
N1213 H1216 0.984 . S
N1213 H1217 0.985 . S
H1214 N1209 0.984 . S
H1215 N1209 0.985 . S
H1216 N1213 0.984 . S
H1217 N1213 0.985 . S
H1218 N1212 0.984 . S
H1219 N1212 0.984 . S
H1220 N1208 0.984 . S
H1221 N1208 0.985 . S
C1222 C1223 1.363 . S
C1222 C1228 1.379 . S
C1222 N1230 1.356 . S
C1223 C1222 1.363 . S
C1223 C1229 1.363 . S
C1224 C1225 1.363 . S
C1224 C1229 1.379 . S
C1224 N1231 1.356 . S
C1225 C1224 1.363 . S
C1225 C1228 1.363 . S
N1226 C1228 1.356 . S
N1226 H1238 0.984 . S
N1226 H1239 0.985 . S
N1227 C1229 1.356 . S
N1227 H1232 0.984 . S
N1227 H1233 0.985 . S
C1228 C1222 1.379 . S
C1228 C1225 1.363 . S
C1228 N1226 1.356 . S
C1229 C1223 1.363 . S
C1229 C1224 1.379 . S
C1229 N1227 1.356 . S
N1230 C1222 1.356 . S
N1230 H1236 0.984 . S
N1230 H1237 0.984 . S
N1231 C1224 1.356 . S
N1231 H1234 0.984 . S
N1231 H1235 0.985 . S
H1232 N1227 0.984 . S
H1233 N1227 0.985 . S
H1234 N1231 0.984 . S
H1235 N1231 0.985 . S
H1236 N1230 0.984 . S
H1237 N1230 0.984 . S
H1238 N1226 0.984 . S
H1239 N1226 0.985 . S
C1240 C1241 1.363 . S
C1240 C1246 1.379 . S
C1240 N1248 1.356 . S
C1241 C1240 1.363 . S
C1241 C1247 1.363 . S
C1242 C1243 1.363 . S
C1242 C1247 1.379 . S
C1242 N1249 1.356 . S
C1243 C1242 1.363 . S
C1243 C1246 1.363 . S
N1244 C1246 1.356 . S
N1244 H1256 0.984 . S
N1244 H1257 0.985 . S
N1245 C1247 1.356 . S
N1245 H1250 0.984 . S
N1245 H1251 0.985 . S
C1246 C1240 1.379 . S
C1246 C1243 1.363 . S
C1246 N1244 1.356 . S
C1247 C1241 1.363 . S
C1247 C1242 1.379 . S
C1247 N1245 1.356 . S
N1248 C1240 1.356 . S
N1248 H1254 0.984 . S
N1248 H1255 0.984 . S
N1249 C1242 1.356 . S
N1249 H1252 0.984 . S
N1249 H1253 0.985 . S
H1250 N1245 0.984 . S
H1251 N1245 0.985 . S
H1252 N1249 0.984 . S
H1253 N1249 0.985 . S
H1254 N1248 0.984 . S
H1255 N1248 0.984 . S
H1256 N1244 0.984 . S
H1257 N1244 0.985 . S
C1258 C1259 1.363 1_565 S
C1258 C1264 1.379 . S
C1258 N1266 1.356 . S
C1259 C1258 1.363 1_545 S
C1259 C1265 1.363 . S
C1260 C1261 1.363 . S
C1260 C1265 1.379 . S
C1260 N1267 1.356 . S
C1261 C1260 1.363 . S
C1261 C1264 1.363 1_545 S
N1262 C1264 1.356 . S
N1262 H1274 0.984 . S
N1262 H1275 0.985 . S
N1263 C1265 1.356 . S
N1263 H1268 0.984 . S
N1263 H1269 0.985 . S
C1264 C1258 1.379 . S
C1264 C1261 1.363 1_565 S
C1264 N1262 1.356 . S
C1265 C1259 1.363 . S
C1265 C1260 1.379 . S
C1265 N1263 1.356 . S
N1266 C1258 1.356 . S
N1266 H1272 0.984 . S
N1266 H1273 0.984 . S
N1267 C1260 1.356 . S
N1267 H1270 0.984 . S
N1267 H1271 0.985 . S
H1268 N1263 0.984 . S
H1269 N1263 0.985 . S
H1270 N1267 0.984 . S
H1271 N1267 0.985 . S
H1272 N1266 0.984 . S
H1273 N1266 0.984 . S
H1274 N1262 0.984 . S
H1275 N1262 0.985 . S
C1276 C1277 1.363 . S
C1276 C1282 1.379 . S
C1276 N1284 1.356 . S
C1277 C1276 1.363 . S
C1277 C1283 1.363 . S
C1278 C1279 1.363 . S
C1278 C1283 1.379 . S
C1278 N1285 1.356 . S
C1279 C1278 1.363 . S
C1279 C1282 1.363 . S
N1280 C1282 1.356 . S
N1280 H1292 0.984 . S
N1280 H1293 0.985 . S
N1281 C1283 1.356 . S
N1281 H1286 0.984 . S
N1281 H1287 0.985 . S
C1282 C1276 1.379 . S
C1282 C1279 1.363 . S
C1282 N1280 1.356 . S
C1283 C1277 1.363 . S
C1283 C1278 1.379 . S
C1283 N1281 1.356 . S
N1284 C1276 1.356 . S
N1284 H1290 0.984 . S
N1284 H1291 0.984 . S
N1285 C1278 1.356 . S
N1285 H1288 0.984 . S
N1285 H1289 0.985 . S
H1286 N1281 0.984 . S
H1287 N1281 0.985 . S
H1288 N1285 0.984 . S
H1289 N1285 0.985 . S
H1290 N1284 0.984 . S
H1291 N1284 0.984 . S
H1292 N1280 0.984 . S
H1293 N1280 0.985 . S
C1294 C1295 1.363 . S
C1294 C1300 1.379 . S
C1294 N1302 1.356 . S
C1295 C1294 1.363 . S
C1295 C1301 1.363 . S
C1296 C1297 1.363 . S
C1296 C1301 1.379 . S
C1296 N1303 1.356 . S
C1297 C1296 1.363 . S
C1297 C1300 1.363 . S
N1298 C1300 1.356 . S
N1298 H1310 0.984 . S
N1298 H1311 0.985 . S
N1299 C1301 1.356 . S
N1299 H1304 0.984 . S
N1299 H1305 0.985 . S
C1300 C1294 1.379 . S
C1300 C1297 1.363 . S
C1300 N1298 1.356 . S
C1301 C1295 1.363 . S
C1301 C1296 1.379 . S
C1301 N1299 1.356 . S
N1302 C1294 1.356 . S
N1302 H1308 0.984 . S
N1302 H1309 0.984 . S
N1303 C1296 1.356 . S
N1303 H1306 0.984 . S
N1303 H1307 0.985 . S
H1304 N1299 0.984 . S
H1305 N1299 0.985 . S
H1306 N1303 0.984 . S
H1307 N1303 0.985 . S
H1308 N1302 0.984 . S
H1309 N1302 0.984 . S
H1310 N1298 0.984 . S
H1311 N1298 0.985 . S
C1312 C1313 1.363 . S
C1312 C1318 1.379 . S
C1312 N1320 1.356 . S
C1313 C1312 1.363 . S
C1313 C1319 1.363 . S
C1314 C1315 1.363 . S
C1314 C1319 1.379 . S
C1314 N1321 1.356 . S
C1315 C1314 1.363 . S
C1315 C1318 1.363 . S
N1316 C1318 1.356 . S
N1316 H1328 0.984 . S
N1316 H1329 0.985 . S
N1317 C1319 1.356 . S
N1317 H1322 0.984 . S
N1317 H1323 0.985 . S
C1318 C1312 1.379 . S
C1318 C1315 1.363 . S
C1318 N1316 1.356 . S
C1319 C1313 1.363 . S
C1319 C1314 1.379 . S
C1319 N1317 1.356 . S
N1320 C1312 1.356 . S
N1320 H1326 0.984 . S
N1320 H1327 0.984 . S
N1321 C1314 1.356 . S
N1321 H1324 0.984 . S
N1321 H1325 0.985 . S
H1322 N1317 0.984 . S
H1323 N1317 0.985 . S
H1324 N1321 0.984 . S
H1325 N1321 0.985 . S
H1326 N1320 0.984 . S
H1327 N1320 0.984 . S
H1328 N1316 0.984 . S
H1329 N1316 0.985 . S
C1330 C1331 1.363 . S
C1330 C1336 1.379 . S
C1330 N1338 1.356 1_545 S
C1331 C1330 1.363 . S
C1331 C1337 1.363 . S
C1332 C1333 1.363 . S
C1332 C1337 1.379 . S
C1332 N1339 1.356 . S
C1333 C1332 1.363 . S
C1333 C1336 1.363 . S
N1334 C1336 1.356 1_565 S
N1334 H1346 0.984 . S
N1334 H1347 0.985 . S
N1335 C1337 1.356 . S
N1335 H1340 0.984 . S
N1335 H1341 0.985 . S
C1336 C1330 1.379 . S
C1336 C1333 1.363 . S
C1336 N1334 1.356 1_545 S
C1337 C1331 1.363 . S
C1337 C1332 1.379 . S
C1337 N1335 1.356 . S
N1338 C1330 1.356 1_565 S
N1338 H1344 0.984 . S
N1338 H1345 0.984 . S
N1339 C1332 1.356 . S
N1339 H1342 0.984 . S
N1339 H1343 0.985 . S
H1340 N1335 0.984 . S
H1341 N1335 0.985 . S
H1342 N1339 0.984 . S
H1343 N1339 0.985 . S
H1344 N1338 0.984 . S
H1345 N1338 0.984 . S
H1346 N1334 0.984 . S
H1347 N1334 0.985 . S
C1348 C1349 1.363 . S
C1348 C1354 1.379 . S
C1348 N1356 1.356 . S
C1349 C1348 1.363 . S
C1349 C1355 1.363 . S
C1350 C1351 1.363 . S
C1350 C1355 1.379 . S
C1350 N1357 1.356 . S
C1351 C1350 1.363 . S
C1351 C1354 1.363 . S
N1352 C1354 1.356 . S
N1352 H1364 0.984 . S
N1352 H1365 0.985 . S
N1353 C1355 1.356 . S
N1353 H1358 0.984 . S
N1353 H1359 0.985 . S
C1354 C1348 1.379 . S
C1354 C1351 1.363 . S
C1354 N1352 1.356 . S
C1355 C1349 1.363 . S
C1355 C1350 1.379 . S
C1355 N1353 1.356 . S
N1356 C1348 1.356 . S
N1356 H1362 0.984 . S
N1356 H1363 0.984 . S
N1357 C1350 1.356 . S
N1357 H1360 0.984 . S
N1357 H1361 0.985 . S
H1358 N1353 0.984 . S
H1359 N1353 0.985 . S
H1360 N1357 0.984 . S
H1361 N1357 0.985 . S
H1362 N1356 0.984 . S
H1363 N1356 0.984 . S
H1364 N1352 0.984 . S
H1365 N1352 0.985 . S
C1366 C1367 1.363 . S
C1366 C1372 1.379 . S
C1366 N1374 1.356 . S
C1367 C1366 1.363 . S
C1367 C1373 1.363 . S
C1368 C1369 1.363 . S
C1368 C1373 1.379 . S
C1368 N1375 1.356 . S
C1369 C1368 1.363 . S
C1369 C1372 1.363 . S
N1370 C1372 1.356 . S
N1370 H1382 0.984 . S
N1370 H1383 0.985 . S
N1371 C1373 1.356 . S
N1371 H1376 0.984 . S
N1371 H1377 0.985 . S
C1372 C1366 1.379 . S
C1372 C1369 1.363 . S
C1372 N1370 1.356 . S
C1373 C1367 1.363 . S
C1373 C1368 1.379 . S
C1373 N1371 1.356 . S
N1374 C1366 1.356 . S
N1374 H1380 0.984 . S
N1374 H1381 0.984 . S
N1375 C1368 1.356 . S
N1375 H1378 0.984 . S
N1375 H1379 0.985 . S
H1376 N1371 0.984 . S
H1377 N1371 0.985 . S
H1378 N1375 0.984 . S
H1379 N1375 0.985 . S
H1380 N1374 0.984 . S
H1381 N1374 0.984 . S
H1382 N1370 0.984 . S
H1383 N1370 0.985 . S
C1384 C1385 1.363 . S
C1384 C1390 1.379 . S
C1384 N1392 1.356 . S
C1385 C1384 1.363 . S
C1385 C1391 1.363 . S
C1386 C1387 1.363 . S
C1386 C1391 1.379 . S
C1386 N1393 1.356 . S
C1387 C1386 1.363 . S
C1387 C1390 1.363 . S
N1388 C1390 1.356 . S
N1388 H1400 0.984 . S
N1388 H1401 0.985 . S
N1389 C1391 1.356 . S
N1389 H1394 0.984 . S
N1389 H1395 0.985 . S
C1390 C1384 1.379 . S
C1390 C1387 1.363 . S
C1390 N1388 1.356 . S
C1391 C1385 1.363 . S
C1391 C1386 1.379 . S
C1391 N1389 1.356 . S
N1392 C1384 1.356 . S
N1392 H1398 0.984 . S
N1392 H1399 0.984 . S
N1393 C1386 1.356 . S
N1393 H1396 0.984 . S
N1393 H1397 0.985 . S
H1394 N1389 0.984 . S
H1395 N1389 0.985 . S
H1396 N1393 0.984 . S
H1397 N1393 0.985 . S
H1398 N1392 0.984 . S
H1399 N1392 0.984 . S
H1400 N1388 0.984 . S
H1401 N1388 0.985 . S
C1402 C1403 1.363 . S
C1402 C1408 1.379 . S
C1402 N1410 1.356 . S
C1403 C1402 1.363 . S
C1403 C1409 1.363 1_455 S
C1404 C1405 1.363 1_655 S
C1404 C1409 1.379 . S
C1404 N1411 1.356 . S
C1405 C1404 1.363 1_455 S
C1405 C1408 1.363 . S
N1406 C1408 1.356 . S
N1406 H1418 0.984 . S
N1406 H1419 0.985 . S
N1407 C1409 1.356 . S
N1407 H1412 0.984 . S
N1407 H1413 0.985 . S
C1408 C1402 1.379 . S
C1408 C1405 1.363 . S
C1408 N1406 1.356 . S
C1409 C1403 1.363 1_655 S
C1409 C1404 1.379 . S
C1409 N1407 1.356 . S
N1410 C1402 1.356 . S
N1410 H1416 0.984 . S
N1410 H1417 0.984 . S
N1411 C1404 1.356 . S
N1411 H1414 0.984 . S
N1411 H1415 0.985 . S
H1412 N1407 0.984 . S
H1413 N1407 0.985 . S
H1414 N1411 0.984 . S
H1415 N1411 0.985 . S
H1416 N1410 0.984 . S
H1417 N1410 0.984 . S
H1418 N1406 0.984 . S
H1419 N1406 0.985 . S
C1420 C1421 1.363 . S
C1420 C1426 1.379 . S
C1420 N1428 1.356 . S
C1421 C1420 1.363 . S
C1421 C1427 1.363 . S
C1422 C1423 1.363 . S
C1422 C1427 1.379 . S
C1422 N1429 1.356 . S
C1423 C1422 1.363 . S
C1423 C1426 1.363 . S
N1424 C1426 1.356 . S
N1424 H1436 0.984 . S
N1424 H1437 0.985 . S
N1425 C1427 1.356 . S
N1425 H1430 0.984 . S
N1425 H1431 0.985 . S
C1426 C1420 1.379 . S
C1426 C1423 1.363 . S
C1426 N1424 1.356 . S
C1427 C1421 1.363 . S
C1427 C1422 1.379 . S
C1427 N1425 1.356 . S
N1428 C1420 1.356 . S
N1428 H1434 0.984 . S
N1428 H1435 0.984 . S
N1429 C1422 1.356 . S
N1429 H1432 0.984 . S
N1429 H1433 0.985 . S
H1430 N1425 0.984 . S
H1431 N1425 0.985 . S
H1432 N1429 0.984 . S
H1433 N1429 0.985 . S
H1434 N1428 0.984 . S
H1435 N1428 0.984 . S
H1436 N1424 0.984 . S
H1437 N1424 0.985 . S
C1438 C1439 1.363 . S
C1438 C1444 1.379 . S
C1438 N1446 1.356 . S
C1439 C1438 1.363 . S
C1439 C1445 1.363 . S
C1440 C1441 1.363 . S
C1440 C1445 1.379 . S
C1440 N1447 1.356 . S
C1441 C1440 1.363 . S
C1441 C1444 1.363 . S
N1442 C1444 1.356 . S
N1442 H1454 0.984 . S
N1442 H1455 0.985 . S
N1443 C1445 1.356 . S
N1443 H1448 0.984 . S
N1443 H1449 0.985 . S
C1444 C1438 1.379 . S
C1444 C1441 1.363 . S
C1444 N1442 1.356 . S
C1445 C1439 1.363 . S
C1445 C1440 1.379 . S
C1445 N1443 1.356 . S
N1446 C1438 1.356 . S
N1446 H1452 0.984 . S
N1446 H1453 0.984 . S
N1447 C1440 1.356 . S
N1447 H1450 0.984 . S
N1447 H1451 0.985 . S
H1448 N1443 0.984 . S
H1449 N1443 0.985 . S
H1450 N1447 0.984 . S
H1451 N1447 0.985 . S
H1452 N1446 0.984 . S
H1453 N1446 0.984 . S
H1454 N1442 0.984 . S
H1455 N1442 0.985 . S
C1456 C1457 1.363 . S
C1456 C1462 1.379 . S
C1456 N1464 1.356 . S
C1457 C1456 1.363 . S
C1457 C1463 1.363 . S
C1458 C1459 1.363 . S
C1458 C1463 1.379 . S
C1458 N1465 1.356 . S
C1459 C1458 1.363 . S
C1459 C1462 1.363 . S
N1460 C1462 1.356 . S
N1460 H1472 0.984 . S
N1460 H1473 0.985 . S
N1461 C1463 1.356 . S
N1461 H1466 0.984 . S
N1461 H1467 0.985 . S
C1462 C1456 1.379 . S
C1462 C1459 1.363 . S
C1462 N1460 1.356 . S
C1463 C1457 1.363 . S
C1463 C1458 1.379 . S
C1463 N1461 1.356 . S
N1464 C1456 1.356 . S
N1464 H1470 0.984 . S
N1464 H1471 0.984 . S
N1465 C1458 1.356 . S
N1465 H1468 0.984 . S
N1465 H1469 0.985 . S
H1466 N1461 0.984 . S
H1467 N1461 0.985 . S
H1468 N1465 0.984 . S
H1469 N1465 0.985 . S
H1470 N1464 0.984 . S
H1471 N1464 0.984 . S
H1472 N1460 0.984 . S
H1473 N1460 0.985 . S
C1474 C1475 1.363 . S
C1474 C1480 1.379 . S
C1474 N1482 1.356 . S
C1475 C1474 1.363 . S
C1475 C1481 1.363 . S
C1476 C1477 1.363 . S
C1476 C1481 1.379 . S
C1476 N1483 1.356 . S
C1477 C1476 1.363 . S
C1477 C1480 1.363 . S
N1478 C1480 1.356 . S
N1478 H1490 0.984 . S
N1478 H1491 0.985 . S
N1479 C1481 1.356 . S
N1479 H1484 0.984 . S
N1479 H1485 0.985 . S
C1480 C1474 1.379 . S
C1480 C1477 1.363 . S
C1480 N1478 1.356 . S
C1481 C1475 1.363 . S
C1481 C1476 1.379 . S
C1481 N1479 1.356 . S
N1482 C1474 1.356 . S
N1482 H1488 0.984 . S
N1482 H1489 0.984 . S
N1483 C1476 1.356 . S
N1483 H1486 0.984 . S
N1483 H1487 0.985 . S
H1484 N1479 0.984 . S
H1485 N1479 0.985 . S
H1486 N1483 0.984 . S
H1487 N1483 0.985 . S
H1488 N1482 0.984 . S
H1489 N1482 0.984 . S
H1490 N1478 0.984 . S
H1491 N1478 0.985 . S
C1492 C1493 1.363 . S
C1492 C1498 1.379 . S
C1492 N1500 1.356 . S
C1493 C1492 1.363 . S
C1493 C1499 1.363 . S
C1494 C1495 1.363 . S
C1494 C1499 1.379 . S
C1494 N1501 1.356 . S
C1495 C1494 1.363 . S
C1495 C1498 1.363 . S
N1496 C1498 1.356 . S
N1496 H1508 0.984 . S
N1496 H1509 0.985 . S
N1497 C1499 1.356 . S
N1497 H1502 0.984 . S
N1497 H1503 0.985 . S
C1498 C1492 1.379 . S
C1498 C1495 1.363 . S
C1498 N1496 1.356 . S
C1499 C1493 1.363 . S
C1499 C1494 1.379 . S
C1499 N1497 1.356 . S
N1500 C1492 1.356 . S
N1500 H1506 0.984 . S
N1500 H1507 0.984 . S
N1501 C1494 1.356 . S
N1501 H1504 0.984 . S
N1501 H1505 0.985 . S
H1502 N1497 0.984 . S
H1503 N1497 0.985 . S
H1504 N1501 0.984 . S
H1505 N1501 0.985 . S
H1506 N1500 0.984 . S
H1507 N1500 0.984 . S
H1508 N1496 0.984 . S
H1509 N1496 0.985 . S
C1510 C1511 1.363 . S
C1510 C1516 1.379 . S
C1510 N1518 1.356 . S
C1511 C1510 1.363 . S
C1511 C1517 1.363 . S
C1512 C1513 1.363 . S
C1512 C1517 1.379 . S
C1512 N1519 1.356 . S
C1513 C1512 1.363 . S
C1513 C1516 1.363 . S
N1514 C1516 1.356 . S
N1514 H1526 0.984 . S
N1514 H1527 0.985 . S
N1515 C1517 1.356 . S
N1515 H1520 0.984 . S
N1515 H1521 0.985 . S
C1516 C1510 1.379 . S
C1516 C1513 1.363 . S
C1516 N1514 1.356 . S
C1517 C1511 1.363 . S
C1517 C1512 1.379 . S
C1517 N1515 1.356 . S
N1518 C1510 1.356 . S
N1518 H1524 0.984 . S
N1518 H1525 0.984 . S
N1519 C1512 1.356 . S
N1519 H1522 0.984 . S
N1519 H1523 0.985 . S
H1520 N1515 0.984 . S
H1521 N1515 0.985 . S
H1522 N1519 0.984 . S
H1523 N1519 0.985 . S
H1524 N1518 0.984 . S
H1525 N1518 0.984 . S
H1526 N1514 0.984 . S
H1527 N1514 0.985 . S
C1528 C1529 1.363 . S
C1528 C1534 1.379 . S
C1528 N1536 1.356 . S
C1529 C1528 1.363 . S
C1529 C1535 1.363 . S
C1530 C1531 1.363 . S
C1530 C1535 1.379 . S
C1530 N1537 1.356 . S
C1531 C1530 1.363 . S
C1531 C1534 1.363 . S
N1532 C1534 1.356 . S
N1532 H1544 0.984 . S
N1532 H1545 0.985 . S
N1533 C1535 1.356 . S
N1533 H1538 0.984 . S
N1533 H1539 0.985 . S
C1534 C1528 1.379 . S
C1534 C1531 1.363 . S
C1534 N1532 1.356 . S
C1535 C1529 1.363 . S
C1535 C1530 1.379 . S
C1535 N1533 1.356 . S
N1536 C1528 1.356 . S
N1536 H1542 0.984 . S
N1536 H1543 0.984 . S
N1537 C1530 1.356 . S
N1537 H1540 0.984 . S
N1537 H1541 0.985 . S
H1538 N1533 0.984 . S
H1539 N1533 0.985 . S
H1540 N1537 0.984 . S
H1541 N1537 0.985 . S
H1542 N1536 0.984 . S
H1543 N1536 0.984 . S
H1544 N1532 0.984 . S
H1545 N1532 0.985 . S
C1546 C1547 1.363 . S
C1546 C1552 1.379 . S
C1546 N1554 1.356 . S
C1547 C1546 1.363 . S
C1547 C1553 1.363 . S
C1548 C1549 1.363 . S
C1548 C1553 1.379 . S
C1548 N1555 1.356 . S
C1549 C1548 1.363 . S
C1549 C1552 1.363 . S
N1550 C1552 1.356 . S
N1550 H1562 0.984 . S
N1550 H1563 0.985 . S
N1551 C1553 1.356 . S
N1551 H1556 0.984 . S
N1551 H1557 0.985 . S
C1552 C1546 1.379 . S
C1552 C1549 1.363 . S
C1552 N1550 1.356 . S
C1553 C1547 1.363 . S
C1553 C1548 1.379 . S
C1553 N1551 1.356 . S
N1554 C1546 1.356 . S
N1554 H1560 0.984 . S
N1554 H1561 0.984 . S
N1555 C1548 1.356 . S
N1555 H1558 0.984 . S
N1555 H1559 0.985 . S
H1556 N1551 0.984 . S
H1557 N1551 0.985 . S
H1558 N1555 0.984 . S
H1559 N1555 0.985 . S
H1560 N1554 0.984 . S
H1561 N1554 0.984 . S
H1562 N1550 0.984 . S
H1563 N1550 0.985 . S
C1564 C1565 1.363 . S
C1564 C1570 1.379 . S
C1564 N1572 1.356 . S
C1565 C1564 1.363 . S
C1565 C1571 1.363 . S
C1566 C1567 1.363 . S
C1566 C1571 1.379 . S
C1566 N1573 1.356 . S
C1567 C1566 1.363 . S
C1567 C1570 1.363 . S
N1568 C1570 1.356 . S
N1568 H1580 0.984 . S
N1568 H1581 0.985 . S
N1569 C1571 1.356 . S
N1569 H1574 0.984 . S
N1569 H1575 0.985 . S
C1570 C1564 1.379 . S
C1570 C1567 1.363 . S
C1570 N1568 1.356 . S
C1571 C1565 1.363 . S
C1571 C1566 1.379 . S
C1571 N1569 1.356 . S
N1572 C1564 1.356 . S
N1572 H1578 0.984 . S
N1572 H1579 0.984 . S
N1573 C1566 1.356 . S
N1573 H1576 0.984 . S
N1573 H1577 0.985 . S
H1574 N1569 0.984 . S
H1575 N1569 0.985 . S
H1576 N1573 0.984 . S
H1577 N1573 0.985 . S
H1578 N1572 0.984 . S
H1579 N1572 0.984 . S
H1580 N1568 0.984 . S
H1581 N1568 0.985 . S
C1582 C1583 1.363 . S
C1582 C1588 1.379 . S
C1582 N1590 1.356 . S
C1583 C1582 1.363 . S
C1583 C1589 1.363 . S
C1584 C1585 1.363 . S
C1584 C1589 1.379 . S
C1584 N1591 1.356 . S
C1585 C1584 1.363 . S
C1585 C1588 1.363 . S
N1586 C1588 1.356 . S
N1586 H1598 0.984 . S
N1586 H1599 0.985 . S
N1587 C1589 1.356 . S
N1587 H1592 0.984 . S
N1587 H1593 0.985 . S
C1588 C1582 1.379 . S
C1588 C1585 1.363 . S
C1588 N1586 1.356 . S
C1589 C1583 1.363 . S
C1589 C1584 1.379 . S
C1589 N1587 1.356 . S
N1590 C1582 1.356 . S
N1590 H1596 0.984 . S
N1590 H1597 0.984 . S
N1591 C1584 1.356 . S
N1591 H1594 0.984 . S
N1591 H1595 0.985 . S
H1592 N1587 0.984 . S
H1593 N1587 0.985 . S
H1594 N1591 0.984 . S
H1595 N1591 0.985 . S
H1596 N1590 0.984 . S
H1597 N1590 0.984 . S
H1598 N1586 0.984 . S
H1599 N1586 0.985 . S
C1600 C1601 1.363 . S
C1600 C1606 1.379 . S
C1600 N1608 1.356 . S
C1601 C1600 1.363 . S
C1601 C1607 1.363 1_556 S
C1602 C1603 1.363 1_554 S
C1602 C1607 1.379 . S
C1602 N1609 1.356 . S
C1603 C1602 1.363 1_556 S
C1603 C1606 1.363 . S
N1604 C1606 1.356 . S
N1604 H1616 0.984 . S
N1604 H1617 0.985 . S
N1605 C1607 1.356 . S
N1605 H1610 0.984 . S
N1605 H1611 0.985 . S
C1606 C1600 1.379 . S
C1606 C1603 1.363 . S
C1606 N1604 1.356 . S
C1607 C1601 1.363 1_554 S
C1607 C1602 1.379 . S
C1607 N1605 1.356 . S
N1608 C1600 1.356 . S
N1608 H1614 0.984 . S
N1608 H1615 0.984 . S
N1609 C1602 1.356 . S
N1609 H1612 0.984 . S
N1609 H1613 0.985 . S
H1610 N1605 0.984 . S
H1611 N1605 0.985 . S
H1612 N1609 0.984 . S
H1613 N1609 0.985 . S
H1614 N1608 0.984 . S
H1615 N1608 0.984 . S
H1616 N1604 0.984 . S
H1617 N1604 0.985 . S
C1618 C1619 1.363 . S
C1618 C1624 1.379 . S
C1618 N1626 1.356 . S
C1619 C1618 1.363 . S
C1619 C1625 1.363 . S
C1620 C1621 1.363 . S
C1620 C1625 1.379 . S
C1620 N1627 1.356 . S
C1621 C1620 1.363 . S
C1621 C1624 1.363 . S
N1622 C1624 1.356 . S
N1622 H1634 0.984 . S
N1622 H1635 0.985 . S
N1623 C1625 1.356 . S
N1623 H1628 0.984 . S
N1623 H1629 0.985 . S
C1624 C1618 1.379 . S
C1624 C1621 1.363 . S
C1624 N1622 1.356 . S
C1625 C1619 1.363 . S
C1625 C1620 1.379 . S
C1625 N1623 1.356 . S
N1626 C1618 1.356 . S
N1626 H1632 0.984 . S
N1626 H1633 0.984 . S
N1627 C1620 1.356 . S
N1627 H1630 0.984 . S
N1627 H1631 0.985 . S
H1628 N1623 0.984 . S
H1629 N1623 0.985 . S
H1630 N1627 0.984 . S
H1631 N1627 0.985 . S
H1632 N1626 0.984 . S
H1633 N1626 0.984 . S
H1634 N1622 0.984 . S
H1635 N1622 0.985 . S
C1636 C1637 1.396 . S
C1636 C1642 1.375 1_554 S
C1636 N1644 1.335 1_554 S
C1637 C1636 1.396 . S
C1637 C1643 1.363 . S
C1638 C1639 1.363 . S
C1638 C1643 1.379 . S
C1638 N1645 1.356 . S
C1639 C1638 1.363 . S
C1639 C1642 1.363 1_554 S
N1640 C1642 1.356 . S
N1640 H1652 0.984 . S
N1640 H1653 0.985 . S
N1641 C1643 1.356 . S
N1641 H1646 0.984 . S
N1641 H1647 0.985 . S
C1642 C1636 1.375 1_556 S
C1642 C1639 1.363 1_556 S
C1642 N1640 1.356 . S
C1643 C1637 1.363 . S
C1643 C1638 1.379 . S
C1643 N1641 1.356 . S
N1644 C1636 1.335 1_556 S
N1644 H1650 0.984 . S
N1644 H1651 0.984 . S
N1645 C1638 1.356 . S
N1645 H1648 0.984 . S
N1645 H1649 0.985 . S
H1646 N1641 0.984 . S
H1647 N1641 0.985 . S
H1648 N1645 0.984 . S
H1649 N1645 0.985 . S
H1650 N1644 0.984 . S
H1651 N1644 0.984 . S
H1652 N1640 0.984 . S
H1653 N1640 0.985 . S
C1654 C1655 1.363 1_556 S
C1654 C1660 1.379 . S
C1654 N1662 1.356 . S
C1655 C1654 1.363 1_554 S
C1655 C1661 1.363 . S
C1656 C1657 1.363 . S
C1656 C1661 1.379 . S
C1656 N1663 1.356 . S
C1657 C1656 1.363 . S
C1657 C1660 1.363 1_554 S
N1658 C1660 1.356 . S
N1658 H1670 0.984 . S
N1658 H1671 0.985 . S
N1659 C1661 1.356 . S
N1659 H1664 0.984 . S
N1659 H1665 0.985 . S
C1660 C1654 1.379 . S
C1660 C1657 1.363 1_556 S
C1660 N1658 1.356 . S
C1661 C1655 1.363 . S
C1661 C1656 1.379 . S
C1661 N1659 1.356 . S
N1662 C1654 1.356 . S
N1662 H1668 0.984 . S
N1662 H1669 0.984 . S
N1663 C1656 1.356 . S
N1663 H1666 0.984 . S
N1663 H1667 0.985 . S
H1664 N1659 0.984 . S
H1665 N1659 0.985 . S
H1666 N1663 0.984 . S
H1667 N1663 0.985 . S
H1668 N1662 0.984 . S
H1669 N1662 0.984 . S
H1670 N1658 0.984 . S
H1671 N1658 0.985 . S
C811 C651 1.435 . S
C809 C202 1.437 . S
C829 C659 1.272 . S
C827 C261 1.562 . S
C845 C282 1.460 . S
C847 C679 1.443 . S
C865 C693 1.505 . S
C863 C162 1.513 . S
C883 C708 1.509 . S
C881 C402 1.493 . S
C901 C722 1.536 . S
C899 C482 1.532 . S
C917 C442 1.560 . S
C919 C736 1.572 . S
C937 C742 1.446 . S
C935 C381 1.493 . S
C953 C461 1.561 . S
C955 C756 1.531 . S
C973 C777 1.504 . S
C971 C362 1.512 . S
C989 C415 1.432 . S
C991 C757 1.206 . S
C1009 C778 1.565 . S
C1007 C495 1.559 . S
C1025 C301 1.538 . S
C1027 C785 1.243 . S
C1043 C175 1.530 . S
C1045 C791 1.515 . S
C1061 C215 1.475 . S
C1063 C784 1.425 . S
C1079 C242 1.464 . S
C1081 C792 1.469 . S
C1097 C141 1.519 . S
C1099 C686 1.487 . S
C1115 C581 1.510 . S
C1117 C687 1.271 . S
C1135 C644 1.462 . S
C1133 C615 1.517 . S
C1153 C665 1.441 . S
C1151 C335 1.471 . S
C1169 C181 1.534 . S
C1171 C700 1.504 . S
C1189 C750 1.514 . S
C1187 C455 1.515 . S
C1207 C701 1.175 . S
C1205 C375 1.412 . S
C1225 C729 1.306 . S
C1223 C501 1.624 . S
C1243 C735 1.435 . S
C1241 C562 1.437 . S
C1259 C621 1.562 . S
C1261 C743 1.272 . S
C1277 C322 1.460 . S
C1279 C707 1.443 . S
C1297 C721 1.505 . S
C1295 C522 1.513 . S
C1313 C122 1.493 . S
C1315 C680 1.509 . S
C1333 C694 1.536 . S
C1331 C2 1.532 . S
C1351 C652 1.572 . S
C1349 C42 1.560 . S
C1369 C658 1.446 . S
C1367 C101 1.493 . S
C1385 C61 1.561 . S
C1387 C770 1.531 . S
C1403 C82 1.508 1_455 S
C1405 C763 1.504 . S
C1421 C135 1.432 . S
C1423 C771 1.206 . S
C1439 C15 1.559 . S
C1441 C764 1.565 . S
C1459 C799 1.243 . S
C1457 C341 1.538 . S
C1477 C805 1.515 . S
C1475 C535 1.530 . S
C1495 C798 1.425 . S
C1493 C575 1.475 . S
C1511 C602 1.464 . S
C1513 C806 1.469 . S
C1529 C421 1.519 . S
C1531 C714 1.487 . S
C1549 C715 1.271 . S
C1547 C221 1.509 . S
C1567 C728 1.461 . S
C1565 C255 1.517 . S
C1585 C749 1.442 . S
C1583 C295 1.471 . S
C1601 C541 1.534 . S
C1603 C672 1.504 . S
C1621 C666 1.514 . S
C1619 C55 1.515 . S
C1637 C95 1.412 . S
C1639 C673 1.175 . S
C1657 C645 1.306 . S
C1655 C21 1.624 . S
