# Generated by pormake.
# Topology zzz, (3,6)-cn, num edge types: 1
# Building blocks:
#     Node 0, Type 0, BuildingBlock: OLANEW_clean_sbu_2, # of connection points: 3
#     Node 1, Type 0, BuildingBlock: OLANEW_clean_sbu_2, # of connection points: 3
#     Node 2, Type 0, BuildingBlock: OLANEW_clean_sbu_2, # of connection points: 3
#     Node 3, Type 0, BuildingBlock: OLANEW_clean_sbu_2, # of connection points: 3
#     Node 4, Type 0, BuildingBlock: OLANEW_clean_sbu_2, # of connection points: 3
#     Node 5, Type 0, BuildingBlock: OLANEW_clean_sbu_2, # of connection points: 3
#     Node 6, Type 0, BuildingBlock: OLANEW_clean_sbu_2, # of connection points: 3
#     Node 7, Type 0, BuildingBlock: OLANEW_clean_sbu_2, # of connection points: 3
#     Node 8, Type 1, BuildingBlock: CUWYAW_clean_sbu_0, # of connection points: 6
#     Node 9, Type 1, BuildingBlock: CUWYAW_clean_sbu_0, # of connection points: 6
#     Node 10, Type 1, BuildingBlock: CUWYAW_clean_sbu_0, # of connection points: 6
#     Node 11, Type 1, BuildingBlock: CUWYAW_clean_sbu_0, # of connection points: 6
#     Edge 12, Type (0, 1), BuildingBlock: MIFKUJ_clean_linker_0, # of connection points: 2
#     Edge 13, Type (0, 1), BuildingBlock: MIFKUJ_clean_linker_0, # of connection points: 2
#     Edge 14, Type (0, 1), BuildingBlock: MIFKUJ_clean_linker_0, # of connection points: 2
#     Edge 15, Type (0, 1), BuildingBlock: MIFKUJ_clean_linker_0, # of connection points: 2
#     Edge 16, Type (0, 1), BuildingBlock: MIFKUJ_clean_linker_0, # of connection points: 2
#     Edge 17, Type (0, 1), BuildingBlock: MIFKUJ_clean_linker_0, # of connection points: 2
#     Edge 18, Type (0, 1), BuildingBlock: MIFKUJ_clean_linker_0, # of connection points: 2
#     Edge 19, Type (0, 1), BuildingBlock: MIFKUJ_clean_linker_0, # of connection points: 2
#     Edge 20, Type (0, 1), BuildingBlock: MIFKUJ_clean_linker_0, # of connection points: 2
#     Edge 21, Type (0, 1), BuildingBlock: MIFKUJ_clean_linker_0, # of connection points: 2
#     Edge 22, Type (0, 1), BuildingBlock: MIFKUJ_clean_linker_0, # of connection points: 2
#     Edge 23, Type (0, 1), BuildingBlock: MIFKUJ_clean_linker_0, # of connection points: 2
#     Edge 24, Type (0, 1), BuildingBlock: MIFKUJ_clean_linker_0, # of connection points: 2
#     Edge 25, Type (0, 1), BuildingBlock: MIFKUJ_clean_linker_0, # of connection points: 2
#     Edge 26, Type (0, 1), BuildingBlock: MIFKUJ_clean_linker_0, # of connection points: 2
#     Edge 27, Type (0, 1), BuildingBlock: MIFKUJ_clean_linker_0, # of connection points: 2
#     Edge 28, Type (0, 1), BuildingBlock: MIFKUJ_clean_linker_0, # of connection points: 2
#     Edge 29, Type (0, 1), BuildingBlock: MIFKUJ_clean_linker_0, # of connection points: 2
#     Edge 30, Type (0, 1), BuildingBlock: MIFKUJ_clean_linker_0, # of connection points: 2
#     Edge 31, Type (0, 1), BuildingBlock: MIFKUJ_clean_linker_0, # of connection points: 2
#     Edge 32, Type (0, 1), BuildingBlock: MIFKUJ_clean_linker_0, # of connection points: 2
#     Edge 33, Type (0, 1), BuildingBlock: MIFKUJ_clean_linker_0, # of connection points: 2
#     Edge 34, Type (0, 1), BuildingBlock: MIFKUJ_clean_linker_0, # of connection points: 2
#     Edge 35, Type (0, 1), BuildingBlock: MIFKUJ_clean_linker_0, # of connection points: 2
# Relax obj value: 0.201
# Max RMSD: 0.151
# Mean RMSD: 0.142
data_MOF--net-zzz--node1-OLANEW_clean_sbu_2--node2-CUWYAW_clean_sbu_0--edge1-MIFKUJ_clean_linker_0
_symmetry_space_group_name_H-M    P1
_symmetry_Int_Tables_number       1
_symmetry_cell_setting            triclinic
loop_
_symmetry_equiv_pos_as_xyz
'x, y, z'
_cell_length_a     70.990116
_cell_length_b     71.2167
_cell_length_c     20.370087
_cell_angle_alpha  89.829256
_cell_angle_beta   89.873609
_cell_angle_gamma 89.969623
loop_
_atom_site_label
_atom_site_type_symbol
_atom_site_fract_x
_atom_site_fract_y
_atom_site_fract_z
_atom_type_partial_charge
O0 O 0.74118 0.54292 0.22098 0.0
Cd1 Cd 0.71201 0.54775 0.28209 0.0
O2 O 0.73952 0.51522 0.26654 0.0
Cd3 Cd 0.75117 0.48921 0.30534 0.0
O4 O 0.7726 0.48243 0.37708 0.0
C5 C 0.77769 0.4968 0.40929 0.0
O6 O 0.76926 0.5129 0.39759 0.0
C7 C 0.74831 0.52676 0.22983 0.0
C8 C 0.68145 0.53761 0.20546 0.0
O9 O 0.68608 0.5549 0.21195 0.0
O10 O 0.6911 0.52515 0.23596 0.0
O11 O 0.02843 0.72851 0.19863 0.0
Cd12 Cd 0.03048 0.69852 0.25659 0.0
O13 O 0.02722 0.73938 0.29841 0.0
Cd14 Cd 0.0221 0.7603 0.37338 0.0
O15 O 0.0107 0.78004 0.44372 0.0
C16 C 0.99299 0.78253 0.44591 0.0
O17 O 0.98213 0.77282 0.4064 0.0
C18 C 0.02717 0.74246 0.23693 0.0
C19 C 0.02146 0.66869 0.17524 0.0
O20 O 0.00863 0.6771 0.20834 0.0
O21 O 0.03851 0.67438 0.1811 0.0
O22 O 0.76056 0.95561 0.17627 0.0
Cd23 Cd 0.79062 0.94369 0.21772 0.0
O24 O 0.76023 0.97727 0.25227 0.0
Cd25 Cd 0.74914 0.00071 0.31009 0.0
O26 O 0.72515 0.01067 0.3672 0.0
C27 C 0.72092 0.00128 0.41825 0.0
O28 O 0.73208 0.98752 0.4367 0.0
C29 C 0.75216 0.96919 0.20417 0.0
C30 C 0.82141 0.95368 0.13999 0.0
O31 O 0.81129 0.93933 0.12611 0.0
O32 O 0.81689 0.96342 0.19044 0.0
O33 O 0.53095 0.7593 0.16415 0.0
Cd34 Cd 0.54259 0.78777 0.21714 0.0
O35 O 0.5103 0.75754 0.24374 0.0
Cd36 Cd 0.49124 0.74167 0.30649 0.0
O37 O 0.48504 0.71674 0.36378 0.0
C38 C 0.48716 0.71652 0.42566 0.0
O39 O 0.49179 0.7321 0.45599 0.0
C40 C 0.51763 0.75051 0.19235 0.0
C41 C 0.53568 0.82053 0.14655 0.0
O42 O 0.55042 0.81061 0.13563 0.0
O43 O 0.52406 0.81483 0.19057 0.0
O44 O 0.27569 0.53909 0.14186 0.0
Cd45 Cd 0.30628 0.54529 0.09121 0.0
O46 O 0.27226 0.51672 0.06961 0.0
Cd47 Cd 0.25786 0.49371 0.02032 0.0
O48 O 0.23628 0.47977 0.96285 0.0
C49 C 0.22189 0.47333 0.99234 0.0
O50 O 0.22126 0.47395 0.05677 0.0
C51 C 0.26563 0.52617 0.11732 0.0
C52 C 0.3358 0.53623 0.17513 0.0
O53 O 0.32811 0.55252 0.17619 0.0
O54 O 0.32954 0.52416 0.13403 0.0
O55 O 0.97165 0.27669 0.10283 0.0
Cd56 Cd 0.97152 0.30539 0.03748 0.0
O57 O 0.99914 0.27327 0.0565 0.0
Cd58 Cd 0.0257 0.26055 0.02531 0.0
O59 O 0.03573 0.23664 0.96892 0.0
C60 C 0.02287 0.22951 0.93362 0.0
O61 O 0.00629 0.23771 0.93194 0.0
C62 C 0.98651 0.267 0.09542 0.0
C63 C 0.98578 0.33403 0.11451 0.0
O64 O 0.96797 0.33196 0.10711 0.0
O65 O 0.99687 0.32285 0.08398 0.0
O66 O 0.23526 0.97083 0.08111 0.0
Cd67 Cd 0.203 0.96557 0.04261 0.0
O68 O 0.23921 0.99497 0.01552 0.0
Cd69 Cd 0.2527 0.02066 0.97892 0.0
O70 O 0.25341 0.05089 0.9415 0.0
C71 C 0.26507 0.05799 0.90028 0.0
O72 O 0.25291 0.05136 0.94234 0.0
C73 C 0.24567 0.98401 0.05944 0.0
C74 C 0.17587 0.97174 0.1402 0.0
O75 O 0.18427 0.95588 0.13504 0.0
O76 O 0.18035 0.98476 0.09946 0.0
O77 O 0.48435 0.23186 0.10931 0.0
Cd78 Cd 0.47647 0.20421 0.04452 0.0
O79 O 0.46155 0.24847 0.06481 0.0
Cd80 Cd 0.45679 0.23038 0.98049 0.0
O81 O 0.46063 0.25119 0.90291 0.0
C82 C 0.47679 0.25885 0.90138 0.0
O83 O 0.49014 0.25197 0.93908 0.0
C84 C 0.47458 0.2468 0.10704 0.0
C85 C 0.47391 0.17375 0.13017 0.0
O86 O 0.48924 0.17726 0.09916 0.0
O87 O 0.45965 0.18435 0.11925 0.0
C88 C 0.98988 0.03193 0.49794 0.0
Eu89 Eu 0.99645 0.01344 0.60577 0.0
C90 C 0.99223 0.05089 0.47009 0.0
C91 C 0.9769 0.05908 0.43756 0.0
C92 C 0.97816 0.07727 0.41246 0.0
C93 C 0.99487 0.08764 0.41894 0.0
C94 C 0.01032 0.07942 0.45129 0.0
C95 C 0.00898 0.0612 0.47713 0.0
C96 C 0.97009 0.00554 0.6975 0.0
C97 C 0.01543 0.04078 0.71741 0.0
C98 C 0.00851 0.98155 0.86133 0.0
Eu99 Eu 0.01054 0.99678 0.74553 0.0
C100 C 0.01175 0.96295 0.89159 0.0
C101 C 0.02921 0.95368 0.8872 0.0
C102 C 0.03144 0.93569 0.91413 0.0
C103 C 0.01621 0.92658 0.94485 0.0
C104 C 0.99886 0.93595 0.9496 0.0
C105 C 0.99672 0.954 0.92375 0.0
C106 C 0.03832 0.99566 0.65274 0.0
C107 C 0.99734 0.96906 0.62535 0.0
O108 O 0.00493 0.02149 0.50646 0.0
O109 O 0.97783 0.03065 0.54644 0.0
O110 O 0.96764 0.00289 0.63514 0.0
O111 O 0.986 0.01275 0.7084 0.0
O112 O 0.01096 0.03796 0.65501 0.0
O113 O 0.01426 0.02762 0.76332 0.0
O114 O 0.99424 0.98244 0.82067 0.0
O115 O 0.02323 0.99119 0.84108 0.0
O116 O 0.04062 0.98931 0.71216 0.0
O117 O 0.02184 0.00176 0.64816 0.0
O118 O 0.99971 0.9717 0.68926 0.0
O119 O 0.99768 0.98276 0.5812 0.0
H120 H 0.96384 0.05139 0.43186 0.0
H121 H 0.9661 0.08316 0.38719 0.0
H122 H 0.02331 0.0872 0.4574 0.0
H123 H 0.02093 0.05525 0.50283 0.0
H124 H 0.04104 0.96019 0.86246 0.0
H125 H 0.04496 0.92872 0.90977 0.0
H126 H 0.98695 0.92933 0.97369 0.0
H127 H 0.9832 0.96094 0.92815 0.0
C128 C 0.47366 0.98996 0.50432 0.0
Eu129 Eu 0.48691 0.99801 0.62011 0.0
C130 C 0.45573 0.98981 0.46877 0.0
C131 C 0.45481 0.98101 0.40749 0.0
C132 C 0.43819 0.98152 0.37099 0.0
C133 C 0.42223 0.99093 0.39521 0.0
C134 C 0.42308 -0.00056 0.45741 0.0
C135 C 0.43974 0.99888 0.49398 0.0
C136 C 0.49796 0.97391 0.71476 0.0
C137 C 0.45409 0.00987 0.72713 0.0
C138 C 0.51354 0.02433 0.8629 0.0
Eu139 Eu 0.49774 0.01618 0.75147 0.0
C140 C 0.53201 0.02032 0.89266 0.0
C141 C 0.54102 0.03415 0.9299 0.0
C142 C 0.55884 0.0308 0.95668 0.0
C143 C 0.56798 0.01347 0.94696 0.0
C144 C 0.55882 -0.0004 0.90963 0.0
C145 C 0.54107 0.00302 0.88247 0.0
C146 C 0.48777 0.04008 0.65405 0.0
C147 C 0.53033 0.00408 0.64697 0.0
O148 O 0.48019 0.00651 0.52031 0.0
O149 O 0.47566 0.97751 0.55115 0.0
O150 O 0.50185 0.97154 0.653 0.0
O151 O 0.48766 0.9881 0.72309 0.0
O152 O 0.45847 0.00584 0.66533 0.0
O153 O 0.46704 0.01276 0.77239 0.0
O154 O 0.50226 0.00996 0.85487 0.0
O155 O 0.51371 0.03567 0.81224 0.0
O156 O 0.48343 0.04296 0.71522 0.0
O157 O 0.49774 0.02563 0.64858 0.0
O158 O 0.52562 0.0058 0.70954 0.0
O159 O 0.5175 0.0034 0.60027 0.0
H160 H 0.46707 0.97401 0.38731 0.0
H161 H 0.43798 0.975 0.32303 0.0
H162 H 0.41094 0.00664 0.4775 0.0
H163 H 0.44022 0.00575 0.5413 0.0
H164 H 0.53434 0.04765 0.93771 0.0
H165 H 0.56557 0.04193 0.98407 0.0
H166 H 0.56527 0.98601 0.90177 0.0
H167 H 0.53446 0.99215 0.85338 0.0
C168 C 0.51751 0.47305 0.53181 0.0
Eu169 Eu 0.51034 0.48769 0.64582 0.0
C170 C 0.51491 0.45428 0.50209 0.0
C171 C 0.52814 0.43991 0.51338 0.0
C172 C 0.52559 0.42211 0.48649 0.0
C173 C 0.50983 0.41824 0.44729 0.0
C174 C 0.49668 0.43262 0.43538 0.0
C175 C 0.4992 0.45047 0.46245 0.0
C176 C 0.53649 0.49707 0.73595 0.0
C177 C 0.49726 0.45394 0.74436 0.0
C178 C 0.48961 0.50632 0.90567 0.0
Eu179 Eu 0.49483 0.49791 0.78279 0.0
C180 C 0.48578 0.52389 0.94128 0.0
C181 C 0.4746 0.53813 0.91352 0.0
C182 C 0.47372 0.55588 0.94275 0.0
C183 C 0.48428 0.55976 -0.00056 0.0
C184 C 0.49487 0.54527 0.02838 0.0
C185 C 0.49555 0.52748 -0.00034 0.0
C186 C 0.46988 0.50096 0.68319 0.0
C187 C 0.50522 0.53079 0.68064 0.0
O188 O 0.50231 0.48297 0.54369 0.0
O189 O 0.52987 0.47411 0.57921 0.0
O190 O 0.53755 0.50193 0.67466 0.0
O191 O 0.52207 0.48722 0.74644 0.0
O192 O 0.50404 0.459 0.68655 0.0
O193 O 0.49265 0.46627 0.7902 0.0
O194 O 0.5062 0.50569 0.87768 0.0
O195 O 0.47622 0.49959 0.8682 0.0
O196 O 0.47016 0.51226 0.73305 0.0
O197 O 0.48198 0.48818 0.69006 0.0
O198 O 0.50562 0.52565 0.74316 0.0
O199 O 0.50406 0.51836 0.63276 0.0
H200 H 0.54053 0.44237 0.54308 0.0
H201 H 0.53615 0.41144 0.49562 0.0
H202 H 0.48431 0.43003 0.4057 0.0
H203 H 0.4888 0.46125 0.45261 0.0
H204 H 0.4672 0.5358 0.8678 0.0
H205 H 0.46563 0.56686 0.91905 0.0
H206 H 0.50308 0.54787 0.07219 0.0
H207 H 0.50442 0.51676 0.02143 0.0
C208 C 0.02545 0.5052 0.48647 0.0
Eu209 Eu 0.01054 0.49971 0.60201 0.0
C210 C 0.04449 0.50563 0.45784 0.0
C211 C 0.04826 0.51763 0.4048 0.0
C212 C 0.06631 0.51841 0.37735 0.0
C213 C 0.08092 0.50717 0.4025 0.0
C214 C 0.07712 0.49521 0.45599 0.0
C215 C 0.05905 0.49447 0.48345 0.0
C216 C 0.00422 0.52566 0.69531 0.0
C217 C 0.04235 0.48464 0.70782 0.0
C218 C 0.98325 0.4784 0.85162 0.0
Eu219 Eu 0.99875 0.48402 0.7373 0.0
C220 C 0.9646 0.4822 0.88012 0.0
C221 C 0.9577 0.47072 0.9307 0.0
C222 C 0.93971 0.4738 0.95664 0.0
C223 C 0.92834 0.4884 0.93226 0.0
C224 C 0.93532 0.49985 0.88144 0.0
C225 C 0.95332 0.49683 0.85575 0.0
C226 C 0.0046 0.45856 0.64144 0.0
C227 C 0.96686 0.49869 0.63386 0.0
O228 O 0.01928 0.48886 0.50686 0.0
O229 O 0.02136 0.51882 0.52702 0.0
O230 O 1.00015 0.52825 0.63385 0.0
O231 O 0.01244 0.51016 0.70393 0.0
O232 O 0.03797 0.48837 0.64582 0.0
O233 O 0.02962 0.48446 0.75502 0.0
O234 O 0.99355 0.49313 0.83757 0.0
O235 O 0.98373 0.46567 0.8055 0.0
O236 O 0.00941 0.45556 0.70211 0.0
O237 O 0.99642 0.47409 0.63566 0.0
O238 O 0.97188 0.49648 0.69587 0.0
O239 O 0.97928 0.49804 0.58543 0.0
H240 H 0.03721 0.52636 0.38444 0.0
H241 H 0.06877 0.52762 0.3358 0.0
H242 H 0.08813 0.48651 0.47678 0.0
H243 H 0.05642 0.48511 0.52439 0.0
H244 H 0.96621 0.45935 0.94998 0.0
H245 H 0.93477 0.46486 0.99619 0.0
H246 H 0.92678 0.51104 0.86105 0.0
H247 H 0.95836 0.50584 0.81658 0.0
H248 H 0.15058 0.00064 0.14872 0.0
H249 H 0.12645 0.00553 0.23273 0.0
H250 H 0.14461 0.95517 0.33261 0.0
H251 H 0.16826 0.94983 0.24735 0.0
H252 H 0.10826 0.95608 0.33289 0.0
H253 H 0.15628 0.00105 0.38586 0.0
H254 H 0.17813 0.02735 0.36531 0.0
H255 H 0.13143 0.06352 0.32076 0.0
H256 H 0.10932 0.03736 0.34024 0.0
H257 H 0.0689 0.97293 0.64705 0.0
H258 H 0.09172 0.9701 0.55721 0.0
H259 H 0.0624 0.01332 0.44934 0.0
H260 H 0.03953 0.01618 0.53948 0.0
H261 H 0.10285 0.01685 0.45011 0.0
H262 H 0.05483 0.97118 0.40813 0.0
H263 H 0.03403 0.94503 0.44005 0.0
H264 H 0.08216 0.90953 0.47033 0.0
H265 H 0.10332 0.93572 0.44099 0.0
C266 C 0.14945 0.99062 0.18863 0.0
C267 C 0.16139 0.97489 0.19151 0.0
C268 C 0.13568 0.99348 0.23686 0.0
C269 C 0.13385 0.98089 0.28977 0.0
C270 C 0.14571 0.9651 0.29239 0.0
C271 C 0.15928 0.96209 0.24369 0.0
C272 C 0.11957 0.98405 0.34227 0.0
C273 C 0.10726 0.96932 0.3589 0.0
C274 C 0.1179 0.00144 0.37555 0.0
C275 C 0.13117 0.01719 0.36381 0.0
C276 C 0.15069 0.01457 0.37118 0.0
C277 C 0.16311 0.02946 0.35982 0.0
C278 C 0.15617 0.04708 0.34155 0.0
C279 C 0.13679 0.04986 0.33479 0.0
C280 C 0.1243 0.03501 0.34604 0.0
C281 C 0.06737 0.98185 0.60423 0.0
C282 C 0.05231 0.99455 0.59943 0.0
C283 C 0.08037 0.98021 0.55302 0.0
C284 C 0.07862 0.99137 0.49645 0.0
C285 C 0.06393 0.00452 0.49248 0.0
C286 C 0.05078 0.006 0.54349 0.0
C287 C 0.09186 0.98885 0.44084 0.0
C288 C 0.10388 0.00368 0.42367 0.0
C289 C 0.09342 0.97149 0.40764 0.0
C290 C 0.08069 0.9555 0.42294 0.0
C291 C 0.06101 0.95785 0.42209 0.0
C292 C 0.04914 0.94302 0.43978 0.0
C293 C 0.05676 0.92561 0.45718 0.0
C294 C 0.07627 0.92302 0.45688 0.0
C295 C 0.08822 0.93788 0.43987 0.0
H296 H 0.04756 0.91414 0.47082 0.0
H297 H 0.16582 0.05859 0.33279 0.0
H298 H 0.44629 0.1675 0.2212 0.0
H299 H 0.44597 0.14374 0.30825 0.0
H300 H 0.4989 0.12182 0.23796 0.0
H301 H 0.49946 0.14565 0.15106 0.0
H302 H 0.47136 0.09382 0.27046 0.0
H303 H 0.50025 0.14933 0.3629 0.0
H304 H 0.50139 0.18296 0.39115 0.0
H305 H 0.45125 0.17691 0.50762 0.0
H306 H 0.44968 0.14327 0.47926 0.0
H307 H 0.50521 0.04094 0.53583 0.0
H308 H 0.49978 0.06262 0.44525 0.0
H309 H 0.45536 0.08945 0.55579 0.0
H310 H 0.46147 0.06815 0.64842 0.0
H311 H 0.47549 0.11496 0.50192 0.0
H312 H 0.446 0.06021 0.41464 0.0
H313 H 0.44261 0.02702 0.38358 0.0
H314 H 0.49112 0.03126 0.25837 0.0
H315 H 0.49469 0.06464 0.28806 0.0
C316 C 0.45778 0.15752 0.22385 0.0
C317 C 0.47295 0.15849 0.17944 0.0
C318 C 0.45759 0.144 0.27372 0.0
C319 C 0.47248 0.13116 0.27968 0.0
C320 C 0.4873 0.13165 0.23407 0.0
C321 C 0.48762 0.1453 0.18464 0.0
C322 C 0.47296 0.11763 0.33494 0.0
C323 C 0.47242 0.09838 0.3211 0.0
C324 C 0.47371 0.12367 0.40094 0.0
C325 C 0.47473 0.14385 0.41837 0.0
C326 C 0.48938 0.15521 0.39408 0.0
C327 C 0.49012 0.17426 0.4102 0.0
C328 C 0.47637 0.18208 0.45099 0.0
C329 C 0.46188 0.17084 0.47593 0.0
C330 C 0.46106 0.15178 0.45989 0.0
C331 C 0.4942 0.0514 0.54071 0.0
C332 C 0.48374 0.05291 0.59901 0.0
C333 C 0.49098 0.0637 0.48857 0.0
C334 C 0.47687 0.07747 0.49285 0.0
C335 C 0.46628 0.07891 0.55112 0.0
C336 C 0.46975 0.06677 0.60396 0.0
C337 C 0.47401 0.09095 0.43782 0.0
C338 C 0.47418 0.11027 0.45152 0.0
C339 C 0.47265 0.08496 0.37167 0.0
C340 C 0.47069 0.06487 0.354 0.0
C341 C 0.45602 0.05403 0.38081 0.0
C342 C 0.45405 0.03518 0.36337 0.0
C343 C 0.46672 0.02695 0.31947 0.0
C344 C 0.48133 0.03763 0.29248 0.0
C345 C 0.48328 0.05655 0.30933 0.0
H346 H 0.46516 0.01234 0.30612 0.0
H347 H 0.47696 0.19683 0.46341 0.0
H348 H 0.34902 0.55732 0.27643 0.0
H349 H 0.37405 0.5494 0.35325 0.0
H350 H 0.38304 0.49677 0.25352 0.0
H351 H 0.35751 0.5044 0.17717 0.0
H352 H 0.38297 0.49161 0.3828 0.0
H353 H 0.41863 0.532 0.23817 0.0
H354 H 0.4239 0.56028 0.17012 0.0
H355 H 0.41485 0.59532 0.33848 0.0
H356 H 0.40936 0.56723 0.40718 0.0
H357 H 0.46622 0.47747 0.57802 0.0
H358 H 0.44592 0.4819 0.48184 0.0
H359 H 0.42465 0.53334 0.56508 0.0
H360 H 0.44552 0.52951 0.65936 0.0
H361 H 0.43438 0.53667 0.43097 0.0
H362 H 0.39926 0.49459 0.5758 0.0
H363 H 0.39528 0.46549 0.64028 0.0
H364 H 0.40356 0.43258 0.46628 0.0
H365 H 0.40783 0.46151 0.40091 0.0
C366 C 0.35637 0.5441 0.2705 0.0
C367 C 0.35132 0.53152 0.22056 0.0
C368 C 0.37079 0.53964 0.31423 0.0
C369 C 0.38069 0.52265 0.30835 0.0
C370 C 0.37566 0.51 0.2587 0.0
C371 C 0.36109 0.5144 0.21511 0.0
C372 C 0.39579 0.51798 0.35589 0.0
C373 C 0.39439 0.50131 0.39258 0.0
C374 C 0.41065 0.53063 0.36893 0.0
C375 C 0.41379 0.54755 0.32786 0.0
C376 C 0.41776 0.54575 0.26056 0.0
C377 C 0.42077 0.56173 0.22188 0.0
C378 C 0.41976 0.57958 0.24999 0.0
C379 C 0.41568 0.58148 0.31679 0.0
C380 C 0.41271 0.56554 0.35567 0.0
C381 C 0.45741 0.48986 0.57516 0.0
C382 C 0.45754 0.50325 0.6257 0.0
C383 C 0.44576 0.49231 0.52049 0.0
C384 C 0.43393 0.50807 0.51609 0.0
C385 C 0.43399 0.52134 0.56681 0.0
C386 C 0.44574 0.51901 0.621 0.0
C387 C 0.4211 0.51069 0.45956 0.0
C388 C 0.42301 0.52693 0.42094 0.0
C389 C 0.40682 0.49755 0.44447 0.0
C390 C 0.40406 0.48019 0.48365 0.0
C391 C 0.40037 0.48114 0.5514 0.0
C392 C 0.39803 0.46468 0.58808 0.0
C393 C 0.39922 0.44719 0.55743 0.0
C394 C 0.40267 0.44613 0.48998 0.0
C395 C 0.40503 0.46255 0.45309 0.0
H396 H 0.39741 0.43446 0.58591 0.0
H397 H 0.42211 0.59194 0.22001 0.0
H398 H 0.01944 0.33349 0.17861 0.0
H399 H 0.02994 0.35508 0.26473 0.0
H400 H 0.97954 0.38807 0.2388 0.0
H401 H 0.96868 0.36629 0.15414 0.0
H402 H 0.01747 0.40858 0.25411 0.0
H403 H 0.97593 0.3601 0.35019 0.0
H404 H 0.96769 0.32702 0.37207 0.0
H405 H 0.02148 0.31825 0.46325 0.0
H406 H 0.03012 0.35125 0.44098 0.0
H407 H 0.98926 0.46097 0.52066 0.0
H408 H 0.9941 0.44014 0.42792 0.0
H409 H 0.03277 0.40678 0.54283 0.0
H410 H 0.02753 0.42762 0.63727 0.0
H411 H 0.0095 0.38482 0.48188 0.0
H412 H 0.04995 0.43276 0.40733 0.0
H413 H 0.06156 0.46459 0.38288 0.0
H414 H 0.01492 0.4739 0.25297 0.0
H415 H 0.00319 0.44191 0.27572 0.0
C416 C 0.01076 0.34552 0.19058 0.0
C417 C 0.9932 0.34821 0.1601 0.0
C418 C 0.01677 0.35779 0.23965 0.0
C419 C 0.00548 0.37308 0.25776 0.0
C420 C 0.98844 0.37634 0.22504 0.0
C421 C 0.98222 0.36388 0.17706 0.0
C422 C 0.01046 0.38478 0.31464 0.0
C423 C 0.01577 0.40347 0.304 0.0
C424 C 0.00903 0.37776 0.37939 0.0
C425 C 0.00375 0.35802 0.39316 0.0
C426 C 0.98606 0.35106 0.37432 0.0
C427 C 0.9813 0.33234 0.38691 0.0
C428 C 0.99408 0.32052 0.41882 0.0
C429 C 0.01161 0.32741 0.4384 0.0
C430 C 0.01644 0.34611 0.42582 0.0
C431 C 0.99893 0.4493 0.52608 0.0
C432 C 0.00806 0.44588 0.58593 0.0
C433 C 0.00185 0.43749 0.47276 0.0
C434 C 0.01416 0.42213 0.4778 0.0
C435 C 0.02335 0.41866 0.53769 0.0
C436 C 0.02032 0.43048 0.59152 0.0
C437 C 0.01591 0.409 0.42179 0.0
C438 C 0.01178 0.38996 0.43231 0.0
C439 C 0.0189 0.41561 0.35695 0.0
C440 C 0.02565 0.43497 0.34352 0.0
C441 C 0.0421 0.44163 0.37386 0.0
C442 C 0.04872 0.4597 0.36021 0.0
C443 C 0.03891 0.47135 0.31684 0.0
C444 C 0.02251 0.46487 0.28662 0.0
C445 C 0.01593 0.44672 0.29953 0.0
H446 H 0.04407 0.48533 0.30636 0.0
H447 H 0.99037 0.30603 0.42854 0.0
H448 H 0.8504 0.97723 0.1712 0.0
H449 H 0.8777 0.98536 0.1035 0.0
H450 H 0.85655 0.95022 0.94791 0.0
H451 H 0.82968 0.94143 0.01648 0.0
H452 H 0.89243 0.94535 0.95691 0.0
H453 H 0.85237 -0.00011 0.94839 0.0
H454 H 0.83372 0.02603 0.99401 0.0
H455 H 0.88324 0.04825 0.08616 0.0
H456 H 0.90215 0.0221 0.04172 0.0
H457 H 0.93939 0.98347 0.68116 0.0
H458 H 0.91623 0.97414 0.76389 0.0
H459 H 0.94665 0.00527 0.91091 0.0
H460 H 0.96983 0.0149 0.82764 0.0
H461 H 0.90859 0.01205 0.91435 0.0
H462 H 0.94902 0.95817 0.9079 0.0
H463 H 0.96664 0.93257 0.85397 0.0
H464 H 0.91492 0.90931 0.78214 0.0
H465 H 0.89703 0.93496 0.8343 0.0
C466 C 0.85158 0.97125 0.12254 0.0
C467 C 0.83785 0.95877 0.099 0.0
C468 C 0.86717 0.97596 0.08377 0.0
C469 C 0.86907 0.96864 0.02009 0.0
C470 C 0.85543 0.95604 0.99684 0.0
C471 C 0.84003 0.95109 0.03599 0.0
C472 C 0.88516 0.97414 0.9773 0.0
C473 C 0.89584 0.95994 0.94717 0.0
C474 C 0.88996 0.99318 0.9657 0.0
C475 C 0.87862 0.00893 0.99235 0.0
C476 C 0.85925 0.01027 0.97879 0.0
C477 C 0.84864 0.0251 0.00436 0.0
C478 C 0.85728 0.03876 0.04312 0.0
C479 C 0.87656 0.03764 0.05623 0.0
C480 C 0.88723 0.02283 0.03083 0.0
C481 C 0.94117 0.98829 0.73115 0.0
C482 C 0.95642 -0.0002 0.74824 0.0
C483 C 0.928 0.98286 0.77843 0.0
C484 C 0.92987 0.9888 0.84371 0.0
C485 C 0.94502 0.00045 0.86084 0.0
C486 C 0.95825 0.00589 0.81343 0.0
C487 C 0.91558 0.98327 0.89327 0.0
C488 C 0.90528 0.99746 0.92469 0.0
C489 C 0.91096 0.96423 0.90524 0.0
C490 C 0.9217 0.94859 0.8747 0.0
C491 C 0.94143 0.94767 0.88024 0.0
C492 C 0.95146 0.93315 0.85005 0.0
C493 C 0.94192 0.91935 0.81469 0.0
C494 C 0.9223 0.92001 0.80954 0.0
C495 C 0.91221 0.93454 0.83944 0.0
H496 H 0.94971 0.90813 0.79133 0.0
H497 H 0.84904 0.05023 0.06287 0.0
H498 H 0.555 0.83364 0.03997 0.0
H499 H 0.54918 0.86239 0.97797 0.0
H500 H 0.50321 0.8762 0.1082 0.0
H501 H 0.50861 0.84709 0.16941 0.0
H502 H 0.49286 0.88215 0.9883 0.0
H503 H 0.54594 0.90006 0.11361 0.0
H504 H 0.57768 0.8978 0.16181 0.0
H505 H 0.6023 0.89881 0.96911 0.0
H506 H 0.57068 0.9008 0.91963 0.0
H507 H 0.48469 0.9728 0.84032 0.0
H508 H 0.49206 0.94942 0.92507 0.0
H509 H 0.53085 0.92226 0.79248 0.0
H510 H 0.52342 0.9455 0.70744 0.0
H511 H 0.54416 0.92603 0.92546 0.0
H512 H 0.48901 0.90481 0.80404 0.0
H513 H 0.4568 0.90877 0.761 0.0
H514 H 0.43576 0.91637 0.95696 0.0
H515 H 0.46792 0.91267 0.00106 0.0
C516 C 0.54369 0.84282 0.0556 0.0
C517 C 0.53227 0.8381 0.10961 0.0
C518 C 0.54046 0.85934 0.02038 0.0
C519 C 0.52596 0.87165 0.03907 0.0
C520 C 0.51452 0.86696 0.093 0.0
C521 C 0.51763 0.85032 0.12793 0.0
C522 C 0.52226 0.88895 0.00032 0.0
C523 C 0.50403 0.89192 0.97576 0.0
C524 C 0.53683 0.9017 0.98345 0.0
C525 C 0.5559 0.90042 0.01288 0.0
C526 C 0.55811 0.89964 0.08146 0.0
C527 C 0.57609 0.89844 0.10902 0.0
C528 C 0.59199 0.89812 0.06855 0.0
C529 C 0.58996 0.89904 0.0004 0.0
C530 C 0.57201 0.90023 0.97257 0.0
C531 C 0.49491 0.96194 0.82957 0.0
C532 C 0.50336 0.96077 0.76729 0.0
C533 C 0.4991 0.94863 0.8779 0.0
C534 C 0.51188 0.93409 0.86468 0.0
C535 C 0.52094 0.9334 0.80347 0.0
C536 C 0.51662 0.94658 0.75492 0.0
C537 C 0.51497 0.91886 0.91289 0.0
C538 C 0.53304 0.91632 0.93905 0.0
C539 C 0.50022 0.9067 0.9322 0.0
C540 C 0.48087 0.90866 0.90575 0.0
C541 C 0.47753 0.90745 0.83788 0.0
C542 C 0.45928 0.90963 0.81331 0.0
C543 C 0.44425 0.91287 0.8562 0.0
C544 C 0.44742 0.91388 0.92379 0.0
C545 C 0.46565 0.91173 0.9486 0.0
H546 H 0.43013 0.91456 0.83709 0.0
H547 H 0.6059 0.8972 0.08999 0.0
H548 H 0.67764 0.50496 0.13792 0.0
H549 H 0.65329 0.49709 0.05793 0.0
H550 H 0.62518 0.54961 0.09852 0.0
H551 H 0.65022 0.55801 0.17515 0.0
H552 H 0.61867 0.49061 0.05633 0.0
H553 H 0.60351 0.56705 0.96862 0.0
H554 H 0.62044 0.59711 0.95599 0.0
H555 H 0.67302 0.56756 0.94162 0.0
H556 H 0.65639 0.53733 0.95329 0.0
H557 H 0.53638 0.48768 0.8658 0.0
H558 H 0.56056 0.49449 0.94693 0.0
H559 H 0.59598 0.5177 0.79415 0.0
H560 H 0.57076 0.51302 0.71464 0.0
H561 H 0.60039 0.53789 0.88893 0.0
H562 H 0.60165 0.47115 0.87088 0.0
H563 H 0.58868 0.43902 0.87026 0.0
H564 H 0.57153 0.44503 0.07137 0.0
H565 H 0.5842 0.47728 0.07297 0.0
C566 C 0.66622 0.51478 0.12973 0.0
C567 C 0.66588 0.53218 0.16193 0.0
C568 C 0.65228 0.51026 0.08418 0.0
C569 C 0.63757 0.52291 0.07101 0.0
C570 C 0.63669 0.53986 0.10611 0.0
C571 C 0.65092 0.54462 0.1502 0.0
C572 C 0.62345 0.51861 0.01947 0.0
C573 C 0.61471 0.50092 0.01956 0.0
C574 C 0.61862 0.53183 0.97022 0.0
C575 C 0.62871 0.54995 0.96251 0.0
C576 C 0.61868 0.56698 0.96251 0.0
C577 C 0.62822 0.58404 0.95557 0.0
C578 C 0.6478 0.58425 0.94823 0.0
C579 C 0.65787 0.56739 0.94755 0.0
C580 C 0.64839 0.55029 0.95439 0.0
C581 C 0.54911 0.49472 0.84999 0.0
C582 C 0.55149 0.5003 0.78439 0.0
C583 C 0.56316 0.4982 0.89614 0.0
C584 C 0.58035 0.50632 0.87681 0.0
C585 C 0.58285 0.51152 0.8107 0.0
C586 C 0.56847 0.50875 0.76512 0.0
C587 C 0.59553 0.50984 0.92549 0.0
C588 C 0.60441 0.52746 0.92521 0.0
C589 C 0.60117 0.49618 0.97234 0.0
C590 C 0.59375 0.47669 0.97185 0.0
C591 C 0.59504 0.46565 0.91488 0.0
C592 C 0.58774 0.44742 0.91436 0.0
C593 C 0.57924 0.44001 0.97069 0.0
C594 C 0.5781 0.45079 0.02775 0.0
C595 C 0.58536 0.46904 0.02852 0.0
H596 H 0.57358 0.4259 0.97018 0.0
H597 H 0.65516 0.59747 0.94292 0.0
H598 H 0.04574 0.6478 0.1017 0.0
H599 H 0.03795 0.62343 0.02244 0.0
H600 H 0.97888 0.63012 0.06662 0.0
H601 H 0.98657 0.65447 0.14699 0.0
H602 H 0.98847 0.59303 0.0519 0.0
H603 H 0.99531 0.65008 0.93222 0.0
H604 H 0.01053 0.67968 0.89823 0.0
H605 H 0.05822 0.64893 0.8256 0.0
H606 H 0.04341 0.61915 0.86003 0.0
H607 H 0.98667 0.55943 0.6835 0.0
H608 H 0.98388 0.58393 0.76709 0.0
H609 H 0.01304 0.54846 0.90576 0.0
H610 H 0.01593 0.52399 0.82239 0.0
H611 H 0.01218 0.60221 0.82458 0.0
H612 H 0.99696 0.55677 0.05746 0.0
H613 H 0.97872 0.52837 0.08589 0.0
H614 H 0.94157 0.53869 0.92364 0.0
H615 H 0.95951 0.56706 0.89443 0.0
C616 C 0.03109 0.64404 0.09496 0.0
C617 C 0.01675 0.65318 0.13016 0.0
C618 C 0.02667 0.63012 0.04956 0.0
C619 C 0.00783 0.62519 0.03808 0.0
C620 C 0.9935 0.63379 0.07474 0.0
C621 C 0.99792 0.64773 0.12038 0.0
C622 C 0.00325 0.61159 0.98577 0.0
C623 C 0.99358 0.59503 0.00215 0.0
C624 C 0.00936 0.61453 0.92038 0.0
C625 C 0.0183 0.63239 0.89913 0.0
C626 C 0.0091 0.64964 0.9094 0.0
C627 C 0.01765 0.66645 0.89 0.0
C628 C 0.03535 0.66619 0.85988 0.0
C629 C 0.04452 0.64911 0.84896 0.0
C630 C 0.03604 0.63226 0.86834 0.0
C631 C 0.99232 0.55682 0.73204 0.0
C632 C 0.00151 0.53986 0.74668 0.0
C633 C 0.99071 0.57079 0.77964 0.0
C634 C 0.99813 0.56794 0.84265 0.0
C635 C 0.00694 0.55082 0.85773 0.0
C636 C 0.00863 0.53688 0.81008 0.0
C637 C 0.99805 0.58333 0.8912 0.0
C638 C 0.00688 0.60025 0.87413 0.0
C639 C 0.9907 0.58092 0.95525 0.0
C640 C 0.97968 0.56397 0.97351 0.0
C641 C 0.98486 0.553 0.02804 0.0
C642 C 0.97459 0.53685 0.04416 0.0
C643 C 0.95904 0.53164 0.00641 0.0
C644 C 0.95369 0.5426 0.95261 0.0
C645 C 0.96393 0.55869 0.93615 0.0
H646 H 0.95112 0.51914 0.01893 0.0
H647 H 0.04194 0.67922 0.8449 0.0
H648 H 0.00793 0.23627 0.06182 0.0
H649 H 0.01134 0.20687 0.12087 0.0
H650 H 0.9715 0.22612 0.26611 0.0
H651 H 0.96902 0.25625 0.20869 0.0
H652 H 0.99876 0.20805 0.32519 0.0
H653 H 0.95925 0.19612 0.14368 0.0
H654 H 0.94905 0.19593 0.02819 0.0
H655 H 0.99478 0.15923 0.97854 0.0
H656 H 0.00582 0.15976 0.09354 0.0
H657 H 0.96937 0.11604 0.43233 0.0
H658 H 0.9702 0.14714 0.38098 0.0
H659 H 0.02309 0.13348 0.28836 0.0
H660 H 0.02265 0.10243 0.34133 0.0
H661 H 0.99002 0.14833 0.20405 0.0
H662 H 0.02861 0.16191 0.39479 0.0
H663 H 0.03513 0.16188 0.51366 0.0
H664 H 0.98506 0.19424 0.54829 0.0
H665 H 0.97817 0.19436 0.42956 0.0
C666 C 1.00039 0.23462 0.10715 0.0
C667 C 0.9886 0.2489 0.13098 0.0
C668 C 0.00204 0.21755 0.14048 0.0
C669 C 0.99155 0.21416 0.19775 0.0
C670 C 0.97979 0.22841 0.2221 0.0
C671 C 0.97829 0.24558 0.18894 0.0
C672 C 0.99257 0.19562 0.23124 0.0
C673 C 0.99669 0.19503 0.29866 0.0
C674 C 0.98994 0.17855 0.19669 0.0
C675 C 0.98352 0.17821 0.12725 0.0
C676 C 0.96733 0.18822 0.10806 0.0
C677 C 0.96143 0.18807 0.04265 0.0
C678 C 0.97141 0.17772 0.99601 0.0
C679 C 0.98727 0.16742 0.01474 0.0
C680 C 0.99337 0.16766 0.08001 0.0
C681 C 0.9813 0.11974 0.40171 0.0
C682 C 0.99601 0.10686 0.39109 0.0
C683 C 0.98173 0.13748 0.37244 0.0
C684 C 0.99669 0.14252 0.33099 0.0
C685 C 0.01145 0.12978 0.32036 0.0
C686 C 0.01124 0.11215 0.35087 0.0
C687 C 0.99645 0.16091 0.2972 0.0
C688 C 0.9923 0.16142 0.22996 0.0
C689 C 0.99857 0.17788 0.33211 0.0
C690 C 0.0028 0.17802 0.40338 0.0
C691 C 0.01893 0.16892 0.4278 0.0
C692 C 0.02273 0.16894 0.49511 0.0
C693 C 0.0105 0.17802 0.53852 0.0
C694 C 0.99451 0.1872 0.51462 0.0
C695 C 0.99068 0.18727 0.4473 0.0
H696 H 0.01343 0.17796 0.59065 0.0
H697 H 0.9668 0.17757 0.9454 0.0
H698 H 0.25715 0.97446 0.182 0.0
H699 H 0.28817 0.97886 0.23067 0.0
H700 H 0.308 0.00435 0.05089 0.0
H701 H 0.27723 0.99891 0.00059 0.0
H702 H 0.3337 0.98251 0.09549 0.0
H703 H 0.29758 0.03119 0.1901 0.0
H704 H 0.2706 0.04599 0.24615 0.0
H705 H 0.28109 0.01259 0.41807 0.0
H706 H 0.30799 0.99739 0.36274 0.0
H707 H 0.40091 0.0221 0.37116 0.0
H708 H 0.3725 0.02442 0.30376 0.0
H709 H 0.37611 0.96518 0.26119 0.0
H710 H 0.40468 0.96291 0.32758 0.0
H711 H 0.33982 0.00991 0.3179 0.0
H712 H 0.35695 0.9554 0.11145 0.0
H713 H 0.38429 0.9445 0.0472 0.0
H714 H 0.41319 0.99619 0.08658 0.0
H715 H 0.38591 0.00755 0.15015 0.0
C716 C 0.2681 0.98103 0.15282 0.0
C717 C 0.26455 0.98692 0.08816 0.0
C718 C 0.28579 0.9837 0.18091 0.0
C719 C 0.30027 0.99248 0.14521 0.0
C720 C 0.29694 0.99789 0.07987 0.0
C721 C 0.27924 0.99507 0.0515 0.0
C722 C 0.31899 0.99543 0.17596 0.0
C723 C 0.33508 0.98854 0.14399 0.0
C724 C 0.32088 0.00392 0.23837 0.0
C725 C 0.30474 0.01306 0.27206 0.0
C726 C 0.29406 0.02691 0.23971 0.0
C727 C 0.27879 0.03538 0.27138 0.0
C728 C 0.27412 0.03021 0.33559 0.0
C729 C 0.28473 0.01658 0.36832 0.0
C730 C 0.30001 0.00805 0.33686 0.0
C731 C 0.39559 0.00958 0.34748 0.0
C732 C 0.40495 0.99231 0.35473 0.0
C733 C 0.37942 0.01093 0.30876 0.0
C734 C 0.37226 0.99503 0.27667 0.0
C735 C 0.38158 0.97775 0.28411 0.0
C736 C 0.39785 0.97643 0.32233 0.0
C737 C 0.35448 0.99626 0.23851 0.0
C738 C 0.33853 0.00398 0.26913 0.0
C739 C 0.35285 0.98902 0.17403 0.0
C740 C 0.36943 0.98224 0.13631 0.0
C741 C 0.36912 0.96447 0.10633 0.0
C742 C 0.38461 0.95821 0.06998 0.0
C743 C 0.4005 0.96961 0.06303 0.0
C744 C 0.40091 0.98733 0.09227 0.0
C745 C 0.38544 0.99367 0.12858 0.0
H746 H 0.41248 0.96474 0.03485 0.0
H747 H 0.26228 0.03679 0.36002 0.0
H748 H 0.49481 0.24668 0.22181 0.0
H749 H 0.50318 0.27399 0.28934 0.0
H750 H 0.4735 0.31032 0.15512 0.0
H751 H 0.46481 0.2833 0.08842 0.0
H752 H 0.51293 0.32068 0.18985 0.0
H753 H 0.45222 0.30195 0.28781 0.0
H754 H 0.43176 0.27868 0.34262 0.0
H755 H 0.47211 0.27274 0.49805 0.0
H756 H 0.49281 0.29598 0.44407 0.0
H757 H 0.49859 0.40968 0.3227 0.0
H758 H 0.49527 0.3786 0.27384 0.0
H759 H 0.5128 0.35296 0.45595 0.0
H760 H 0.51555 0.38405 0.50588 0.0
H761 H 0.48439 0.33413 0.40728 0.0
H762 H 0.54223 0.35574 0.32818 0.0
H763 H 0.56621 0.37624 0.278 0.0
H764 H 0.53779 0.37305 0.09278 0.0
H765 H 0.51305 0.35328 0.14234 0.0
C766 C 0.48999 0.26048 0.20705 0.0
C767 C 0.47909 0.26285 0.15001 0.0
C768 C 0.49476 0.27602 0.24558 0.0
C769 C 0.48895 0.29409 0.22689 0.0
C770 C 0.47811 0.29645 0.17012 0.0
C771 C 0.47307 0.28098 0.13234 0.0
C772 C 0.49425 0.31076 0.26552 0.0
C773 C 0.50662 0.3238 0.23714 0.0
C774 C 0.48675 0.31417 0.32861 0.0
C775 C 0.47413 0.30052 0.36159 0.0
C776 C 0.45676 0.2956 0.3335 0.0
C777 C 0.4451 0.28246 0.3645 0.0
C778 C 0.45065 0.2742 0.4237 0.0
C779 C 0.46784 0.27913 0.45214 0.0
C780 C 0.47951 0.29233 0.42151 0.0
C781 C 0.50154 0.39743 0.35258 0.0
C782 C 0.50739 0.39933 0.41808 0.0
C783 C 0.49986 0.37968 0.32439 0.0
C784 C 0.50409 0.36346 0.36093 0.0
C785 C 0.50959 0.36528 0.42673 0.0
C786 C 0.51128 0.38305 0.455 0.0
C787 C 0.50248 0.34468 0.33026 0.0
C788 C 0.4909 0.33113 0.36024 0.0
C789 C 0.51119 0.34058 0.26928 0.0
C790 C 0.5256 0.35316 0.2394 0.0
C791 C 0.54084 0.3597 0.27704 0.0
C792 C 0.55457 0.37123 0.24867 0.0
C793 C 0.55341 0.3761 0.18235 0.0
C794 C 0.5385 0.36948 0.14431 0.0
C795 C 0.52459 0.35814 0.17258 0.0
H796 H 0.56413 0.38492 0.16032 0.0
H797 H 0.44162 0.26402 0.44759 0.0
H798 H 0.25399 0.53009 0.24379 0.0
H799 H 0.22243 0.5249 0.2886 0.0
H800 H 0.20264 0.50911 0.09637 0.0
H801 H 0.23395 0.51522 0.05095 0.0
H802 H 0.1779 0.53046 0.15033 0.0
H803 H 0.2107 0.47587 0.21938 0.0
H804 H 0.23625 0.45733 0.26961 0.0
H805 H 0.22475 0.48251 0.45675 0.0
H806 H 0.19928 0.50141 0.40744 0.0
H807 H 0.10376 0.47766 0.37 0.0
H808 H 0.13479 0.47888 0.31728 0.0
H809 H 0.13228 0.53942 0.31616 0.0
H810 H 0.10118 0.53824 0.36772 0.0
H811 H 0.16745 0.49204 0.35069 0.0
H812 H 0.15407 0.55721 0.18381 0.0
H813 H 0.12769 0.57205 0.12445 0.0
H814 H 0.09893 0.51908 0.11637 0.0
H815 H 0.12524 0.50387 0.17486 0.0
C816 C 0.24292 0.52542 0.21119 0.0
C817 C 0.24661 0.52245 0.14422 0.0
C818 C 0.22491 0.52233 0.23691 0.0
C819 C 0.21021 0.51616 0.19623 0.0
C820 C 0.21379 0.51359 0.129 0.0
C821 C 0.2318 0.51676 0.10322 0.0
C822 C 0.19102 0.51294 0.22358 0.0
C823 C 0.17564 0.52203 0.19407 0.0
C824 C 0.18789 0.50152 0.27961 0.0
C825 C 0.20319 0.49018 0.30957 0.0
C826 C 0.21371 0.47757 0.27114 0.0
C827 C 0.22816 0.46697 0.29947 0.0
C828 C 0.23215 0.46877 0.36629 0.0
C829 C 0.22166 0.48114 0.40497 0.0
C830 C 0.2072 0.49179 0.37688 0.0
C831 C 0.1099 0.49122 0.35876 0.0
C832 C 0.1 0.50786 0.37257 0.0
C833 C 0.12761 0.4919 0.32856 0.0
C834 C 0.13578 0.50923 0.31175 0.0
C835 C 0.1261 0.52587 0.32712 0.0
C836 C 0.10834 0.52519 0.35671 0.0
C837 C 0.15445 0.50997 0.27847 0.0
C838 C 0.16972 0.50042 0.30684 0.0
C839 C 0.15737 0.52045 0.22011 0.0
C840 C 0.14156 0.52945 0.18429 0.0
C841 C 0.14215 0.54872 0.16913 0.0
C842 C 0.1272 0.55719 0.13568 0.0
C843 C 0.11162 0.54653 0.11683 0.0
C844 C 0.11098 0.52734 0.13121 0.0
C845 C 0.12589 0.51879 0.16459 0.0
H846 H 0.10006 0.55312 0.09098 0.0
H847 H 0.24334 0.46055 0.38813 0.0
H848 H 0.04298 0.77472 0.28333 0.0
H849 H 0.04161 0.80605 0.2341 0.0
H850 H 0.00526 0.78485 0.08154 0.0
H851 H 0.00764 0.75333 0.12867 0.0
H852 H 0.02821 0.80587 0.02682 0.0
H853 H 0.9906 0.81439 0.21954 0.0
H854 H 0.98234 0.81449 0.33692 0.0
H855 H 0.02742 0.85302 0.37585 0.0
H856 H 0.03617 0.85293 0.25857 0.0
H857 H 0.99374 0.89622 0.92261 0.0
H858 H 0.99645 0.86474 0.97101 0.0
H859 H 0.04572 0.88232 0.07796 0.0
H860 H 0.04324 0.91376 0.02882 0.0
H861 H 0.01683 0.86388 0.1549 0.0
H862 H 0.05207 0.85593 0.95474 0.0
H863 H 0.05695 0.85682 0.83496 0.0
H864 H 0.01194 0.81733 0.80862 0.0
H865 H 0.00639 0.81663 0.92815 0.0
C866 C 0.03452 0.77685 0.23976 0.0
C867 C 0.02527 0.76167 0.21009 0.0
C868 C 0.03367 0.7948 0.21166 0.0
C869 C 0.02305 0.79805 0.15445 0.0
C870 C 0.0136 0.78283 0.12546 0.0
C871 C 0.01488 0.76481 0.15255 0.0
C872 C 0.02236 0.81705 0.12313 0.0
C873 C 0.02541 0.81847 0.05498 0.0
C874 C 0.01914 0.83371 0.15954 0.0
C875 C 0.0142 0.83344 0.23035 0.0
C876 C 0.9989 0.82271 0.25321 0.0
C877 C 0.99412 0.82279 0.31978 0.0
C878 C 0.00443 0.83366 0.36394 0.0
C879 C 0.01951 0.84453 0.34161 0.0
C880 C 0.02439 0.84447 0.27509 0.0
C881 C 0.00519 0.89331 0.95624 0.0
C882 C 0.01829 0.90737 0.97209 0.0
C883 C 0.00676 0.87535 0.9836 0.0
C884 C 0.02131 0.87123 0.0279 0.0
C885 C 0.03442 0.88524 0.04376 0.0
C886 C 0.03305 0.90312 0.01552 0.0
C887 C 0.02248 0.85247 0.05932 0.0
C888 C 0.01958 0.85117 0.12725 0.0
C889 C 0.02538 0.83591 0.02255 0.0
C890 C 0.02866 0.83641 0.95051 0.0
C891 C 0.04303 0.84763 0.92342 0.0
C892 C 0.04593 0.84808 0.85551 0.0
C893 C 0.0347 0.83721 0.81418 0.0
C894 C 0.0206 0.8258 0.84068 0.0
C895 C 0.01754 0.8254 0.90851 0.0
H896 H 0.03698 0.83757 0.76163 0.0
H897 H 1.00072 0.83375 0.4154 0.0
H898 H 0.72332 0.98601 0.27313 0.0
H899 H 0.69339 0.99723 0.23152 0.0
H900 H 0.70599 0.97235 0.04332 0.0
H901 H 0.73735 0.96396 0.08235 0.0
H902 H 0.68922 0.00222 0.01999 0.0
H903 H 0.675 0.95245 0.17898 0.0
H904 H 0.67592 0.93806 0.28934 0.0
H905 H 0.64847 0.9865 0.37041 0.0
H906 H 0.64761 0.00127 0.2607 0.0
H907 H 0.59746 0.99411 0.8917 0.0
H908 H 0.6284 0.98794 0.93875 0.0
H909 H 0.61314 0.0194 0.11157 0.0
H910 H 0.58173 0.0247 0.06653 0.0
H911 H 0.63094 0.98894 0.14645 0.0
H912 H 0.64283 0.03772 0.98973 0.0
H913 H 0.64187 0.05314 0.88122 0.0
H914 H 0.67353 0.00768 0.79771 0.0
H915 H 0.67449 0.99187 0.90559 0.0
C916 C 0.72029 0.984 0.22195 0.0
C917 C 0.73328 0.97507 0.18035 0.0
C918 C 0.70269 0.9897 0.19864 0.0
C919 C 0.69706 0.98538 0.13432 0.0
C920 C 0.70988 0.97601 0.09306 0.0
C921 C 0.72781 0.97105 0.11562 0.0
C922 C 0.67794 0.99049 0.10956 0.0
C923 C 0.67649 0.99902 0.04741 0.0
C924 C 0.66122 0.98711 0.14612 0.0
C925 C 0.66136 0.978 0.21173 0.0
C926 C 0.66921 0.96004 0.22039 0.0
C927 C 0.66974 0.95184 0.28284 0.0
C928 C 0.66233 0.9614 0.33688 0.0
C929 C 0.65427 0.97914 0.32855 0.0
C930 C 0.65372 0.98742 0.26625 0.0
C931 C 0.60055 -0.00046 0.94008 0.0
C932 C 0.58702 0.00994 0.9752 0.0
C933 C 0.61839 0.99622 0.96658 0.0
C934 C 0.62326 0.00348 0.02829 0.0
C935 C 0.60977 0.01374 0.06371 0.0
C936 C 0.59186 0.01692 0.03752 0.0
C937 C 0.64231 8e-05 0.0563 0.0
C938 C 0.6437 0.99204 0.11911 0.0
C939 C 0.65898 0.00395 0.02051 0.0
C940 C 0.6586 0.01354 0.95568 0.0
C941 C 0.64949 0.03095 0.94815 0.0
C942 C 0.64896 0.03977 0.88676 0.0
C943 C 0.6576 0.03137 0.83257 0.0
C944 C 0.66684 0.01416 0.83972 0.0
C945 C 0.6674 0.00528 0.901 0.0
H946 H 0.65716 0.03821 0.78507 0.0
H947 H 0.66279 0.95505 0.38519 0.0
H948 H 0.54028 0.72413 0.13714 0.0
H949 H 0.5319 0.69231 0.10366 0.0
H950 H 0.47418 0.7024 0.16045 0.0
H951 H 0.48259 0.7343 0.19437 0.0
H952 H 0.48452 0.66917 0.20276 0.0
H953 H 0.48789 0.70067 0.99747 0.0
H954 H 0.50096 0.72033 0.90863 0.0
H955 H 0.54736 0.68215 0.88663 0.0
H956 H 0.53475 0.66241 0.97615 0.0
H957 H 0.45568 0.58446 0.0273 0.0
H958 H 0.45874 0.61736 0.06252 0.0
H959 H 0.51923 0.61184 0.06062 0.0
H960 H 0.51627 0.57906 0.02658 0.0
H961 H 0.50378 0.64329 0.98695 0.0
H962 H 0.50017 0.61324 0.20057 0.0
H963 H 0.48535 0.59358 0.28613 0.0
H964 H 0.4367 0.6294 0.286 0.0
H965 H 0.45115 0.64919 0.19986 0.0
C966 C 0.52577 0.7196 0.14207 0.0
C967 C 0.51215 0.73159 0.16934 0.0
C968 C 0.52097 0.70142 0.12275 0.0
C969 C 0.50235 0.69495 0.12897 0.0
C970 C 0.48865 0.70701 0.15549 0.0
C971 C 0.4935 0.72519 0.17526 0.0
C972 C 0.49739 0.67546 0.10919 0.0
C973 C 0.48844 0.66364 0.15507 0.0
C974 C 0.50259 0.66811 0.04715 0.0
C975 C 0.51044 0.68014 0.99403 0.0
C976 C 0.50099 0.69656 0.9742 0.0
C977 C 0.5083 0.70771 0.92361 0.0
C978 C 0.525 0.70252 0.89209 0.0
C979 C 0.53443 0.68617 0.91114 0.0
C980 C 0.5272 0.67499 0.9618 0.0
C981 C 0.46959 0.59028 0.03501 0.0
C982 C 0.48574 0.57923 0.02454 0.0
C983 C 0.47132 0.60899 0.05526 0.0
C984 C 0.48922 0.61696 0.0642 0.0
C985 C 0.50531 0.60591 0.05413 0.0
C986 C 0.50359 0.58718 0.03506 0.0
C987 C 0.49139 0.63707 0.08093 0.0
C988 C 0.49974 0.64897 0.03432 0.0
C989 C 0.48539 0.64452 0.14175 0.0
C990 C 0.47664 0.63255 0.19315 0.0
C991 C 0.48623 0.61681 0.21825 0.0
C992 C 0.47792 0.60568 0.26702 0.0
C993 C 0.46008 0.61022 0.29135 0.0
C994 C 0.45052 0.62591 0.26706 0.0
C995 C 0.45876 0.63709 0.2183 0.0
H996 H 0.45369 0.60161 0.3291 0.0
H997 H 0.53061 0.71113 0.85281 0.0
H998 H 0.76184 0.49211 0.19496 0.0
H999 H 0.79229 0.48471 0.14521 0.0
H1000 H 0.80677 0.54353 0.145 0.0
H1001 H 0.77642 0.55097 0.19582 0.0
H1002 H 0.81451 0.5282 0.02897 0.0
H1003 H 0.82964 0.5127 0.25464 0.0
H1004 H 0.82746 0.49706 0.36244 0.0
H1005 H 0.82801 0.44312 0.26883 0.0
H1006 H 0.8306 0.45848 0.16039 0.0
H1007 H 0.91249 0.52196 0.96631 0.0
H1008 H 0.88127 0.52745 0.01318 0.0
H1009 H 0.86987 0.46797 0.00752 0.0
H1010 H 0.90122 0.46238 0.96114 0.0
H1011 H 0.85984 0.48237 0.12239 0.0
H1012 H 0.84912 0.49861 0.89672 0.0
H1013 H 0.85696 0.51501 0.79337 0.0
H1014 H 0.84935 0.56825 0.88817 0.0
H1015 H 0.84168 0.55218 0.99229 0.0
C1016 C 0.77171 0.50341 0.1862 0.0
C1017 C 0.7669 0.52208 0.20092 0.0
C1018 C 0.78908 0.49917 0.15721 0.0
C1019 C 0.80195 0.51353 0.14213 0.0
C1020 C 0.7971 0.5322 0.15634 0.0
C1021 C 0.77976 0.53643 0.18539 0.0
C1022 C 0.82014 0.5092 0.1092 0.0
C1023 C 0.8245 0.51831 0.04975 0.0
C1024 C 0.83299 0.49593 0.1351 0.0
C1025 C 0.83006 0.48672 0.19954 0.0
C1026 C 0.82903 0.49751 0.25706 0.0
C1027 C 0.82782 0.48869 0.31829 0.0
C1028 C 0.82744 0.4691 0.32251 0.0
C1029 C 0.82826 0.45829 0.26548 0.0
C1030 C 0.82968 0.46704 0.20417 0.0
C1031 C 0.90326 0.51008 0.97439 0.0
C1032 C 0.90928 0.49175 0.95989 0.0
C1033 C 0.8854 0.51323 0.00109 0.0
C1034 C 0.87311 0.49815 0.01295 0.0
C1035 C 0.87911 0.47982 -0.00136 0.0
C1036 C 0.89703 0.47664 0.97236 0.0
C1037 C 0.85428 0.50145 0.0426 0.0
C1038 C 0.84977 0.49212 0.10123 0.0
C1039 C 0.84133 0.51451 0.01587 0.0
C1040 C 0.84499 0.52419 0.95248 0.0
C1041 C 0.84916 0.51382 0.89556 0.0
C1042 C 0.85359 0.52305 0.83687 0.0
C1043 C 0.8538 0.54266 0.83441 0.0
C1044 C 0.84926 0.55307 0.89028 0.0
C1045 C 0.84483 0.5439 0.9491 0.0
H1046 H 0.85749 0.5498 0.78924 0.0
H1047 H 0.82669 0.46225 0.36989 0.0
H1048 H 0.99562 0.20577 0.89144 0.0
H1049 H 0.99952 0.17438 0.84689 0.0
H1050 H 0.05997 0.18032 0.85711 0.0
H1051 H 0.05609 0.2117 0.90457 0.0
H1052 H 0.01409 0.16036 0.74204 0.0
H1053 H 0.07939 0.13667 0.88758 0.0
H1054 H 0.09618 0.144 0.99037 0.0
H1055 H 0.04456 0.16343 0.07706 0.0
H1056 H 0.02753 0.15601 0.97509 0.0
H1057 H 0.03083 0.06779 0.6389 0.0
H1058 H 0.03843 0.10011 0.66862 0.0
H1059 H 0.02056 0.08918 0.86779 0.0
H1060 H 0.01373 0.05662 0.83906 0.0
H1061 H 0.04942 0.11227 0.86859 0.0
H1062 H 0.98984 0.1091 0.7529 0.0
H1063 H 0.97022 0.09945 0.65903 0.0
H1064 H 0.00485 0.13199 0.52845 0.0
H1065 H 0.02478 0.14176 0.62177 0.0
C1066 C 0.00977 0.2005 0.88369 0.0
C1067 C 0.02557 0.21116 0.90162 0.0
C1068 C 0.01198 0.18254 0.85801 0.0
C1069 C 0.03003 0.17491 0.84906 0.0
C1070 C 0.04589 0.1858 0.86461 0.0
C1071 C 0.04368 0.20373 0.89146 0.0
C1072 C 0.03189 0.15528 0.82599 0.0
C1073 C 0.02199 0.14992 0.76945 0.0
C1074 C 0.04211 0.14156 0.86178 0.0
C1075 C 0.05222 0.14601 0.92345 0.0
C1076 C 0.07164 0.14248 0.92864 0.0
C1077 C 0.08121 0.14665 0.98675 0.0
C1078 C 0.07146 0.15424 0.04014 0.0
C1079 C 0.05212 0.15762 0.03562 0.0
C1080 C 0.04251 0.15345 0.97767 0.0
C1081 C 0.02873 0.07223 0.68922 0.0
C1082 C 0.02145 0.05979 0.73654 0.0
C1083 C 0.03309 0.09069 0.70611 0.0
C1084 C 0.02972 0.09715 0.7701 0.0
C1085 C 0.02328 0.08449 0.81811 0.0
C1086 C 0.01928 0.06592 0.80156 0.0
C1087 C 0.03125 0.11738 0.78592 0.0
C1088 C 0.04186 0.12284 0.84064 0.0
C1089 C 0.02123 0.13112 0.74974 0.0
C1090 C 0.00882 0.12606 0.69409 0.0
C1091 C 0.99324 0.11422 0.70416 0.0
C1092 C 0.98209 0.10872 0.65113 0.0
C1093 C 0.98632 0.11509 0.58788 0.0
C1094 C 0.00161 0.12711 0.57755 0.0
C1095 C 0.01281 0.13266 0.63049 0.0
H1096 H 0.97773 0.11069 0.54697 0.0
H1097 H 0.07889 0.15747 0.08505 0.0
H1098 H 0.2827 0.06003 0.78486 0.0
H1099 H 0.31358 0.04753 0.75519 0.0
H1100 H 0.31904 0.02347 0.94911 0.0
H1101 H 0.2875 0.03504 0.97728 0.0
H1102 H 0.34518 0.05695 0.7998 0.0
H1103 H 0.3532 0.98851 0.94869 0.0
H1104 H 0.33344 0.96333 0.99565 0.0
H1105 H 0.29174 0.97285 0.84696 0.0
H1106 H 0.31151 0.99765 0.79766 0.0
H1107 H 0.43981 0.02686 0.83617 0.0
H1108 H 0.40674 0.03091 0.86638 0.0
H1109 H 0.38981 0.00047 0.6938 0.0
H1110 H 0.42299 0.99662 0.66211 0.0
H1111 H 0.36981 0.99235 0.83154 0.0
H1112 H 0.38534 0.03996 0.66701 0.0
H1113 H 0.40589 0.06485 0.62238 0.0
H1114 H 0.39936 0.09646 0.80019 0.0
H1115 H 0.37904 0.07155 0.84632 0.0
C1116 C 0.29032 0.05163 0.82046 0.0
C1117 C 0.28265 0.04821 0.88269 0.0
C1118 C 0.30803 0.0446 0.80374 0.0
C1119 C 0.31873 0.03443 0.84965 0.0
C1120 C 0.31096 0.03084 0.91211 0.0
C1121 C 0.29293 0.03746 0.92826 0.0
C1122 C 0.33841 0.02889 0.83277 0.0
C1123 C 0.35038 0.04275 0.80644 0.0
C1124 C 0.34552 0.01044 0.84218 0.0
C1125 C 0.33376 0.9951 0.86989 0.0
C1126 C 0.33988 0.98515 0.92568 0.0
C1127 C 0.32867 0.97096 0.95278 0.0
C1128 C 0.31127 0.96663 0.92469 0.0
C1129 C 0.30517 0.9763 0.86888 0.0
C1130 C 0.31639 0.99039 0.84121 0.0
C1131 C 0.4291 0.02085 0.80481 0.0
C1132 C 0.43404 0.0115 0.74649 0.0
C1133 C 0.41022 0.02312 0.82238 0.0
C1134 C 0.39592 0.01587 0.78255 0.0
C1135 C 0.40072 0.006 0.72541 0.0
C1136 C 0.41965 0.00397 0.70713 0.0
C1137 C 0.37601 0.02031 0.79761 0.0
C1138 C 0.36428 0.00641 0.8244 0.0
C1139 C 0.36898 0.03866 0.78846 0.0
C1140 C 0.38085 0.05382 0.76033 0.0
C1141 C 0.38842 0.05214 0.69678 0.0
C1142 C 0.40001 0.06626 0.67118 0.0
C1143 C 0.40397 0.0822 0.70849 0.0
C1144 C 0.3963 0.08409 0.77138 0.0
C1145 C 0.38474 0.06998 0.79727 0.0
H1146 H 0.41295 0.09312 0.68861 0.0
H1147 H 0.30257 0.95572 0.94602 0.0
H1148 H 0.45011 0.28141 0.84433 0.0
H1149 H 0.45406 0.31394 0.80835 0.0
H1150 H 0.5136 0.31048 0.84875 0.0
H1151 H 0.50971 0.27811 0.88603 0.0
H1152 H 0.49939 0.34028 0.9051 0.0
H1153 H 0.49629 0.31361 0.68915 0.0
H1154 H 0.48304 0.29501 0.59831 0.0
H1155 H 0.43294 0.3288 0.60108 0.0
H1156 H 0.44581 0.34749 0.69232 0.0
H1157 H 0.50887 0.42495 0.66694 0.0
H1158 H 0.50543 0.39146 0.68708 0.0
H1159 H 0.47619 0.40303 0.86848 0.0
H1160 H 0.48001 0.43679 0.84954 0.0
H1161 H 0.47629 0.36905 0.69833 0.0
H1162 H 0.48625 0.36943 0.97896 0.0
H1163 H 0.50155 0.38903 0.06314 0.0
H1164 H 0.54273 0.40723 0.92198 0.0
H1165 H 0.52777 0.38761 0.83718 0.0
C1166 C 0.46412 0.28744 0.84428 0.0
C1167 C 0.47958 0.27721 0.86848 0.0
C1168 C 0.46636 0.30605 0.82359 0.0
C1169 C 0.48413 0.31468 0.82594 0.0
C1170 C 0.49974 0.30416 0.84693 0.0
C1171 C 0.49749 0.28562 0.86795 0.0
C1172 C 0.48625 0.33502 0.81152 0.0
C1173 C 0.49438 0.34652 0.85973 0.0
C1174 C 0.4798 0.34323 0.75232 0.0
C1175 C 0.47194 0.33182 0.69804 0.0
C1176 C 0.48237 0.31696 0.67079 0.0
C1177 C 0.47495 0.30643 0.6191 0.0
C1178 C 0.45713 0.31069 0.59411 0.0
C1179 C 0.44672 0.32551 0.62058 0.0
C1180 C 0.45409 0.33608 0.6722 0.0
C1181 C 0.5017 0.42046 0.7113 0.0
C1182 C 0.49482 0.4336 0.75696 0.0
C1183 C 0.49968 0.40125 0.72251 0.0
C1184 C 0.49071 0.39471 0.7795 0.0
C1185 C 0.48345 0.40776 0.82463 0.0
C1186 C 0.48561 0.42705 0.81371 0.0
C1187 C 0.48935 0.37421 0.7919 0.0
C1188 C 0.4813 0.36273 0.74358 0.0
C1189 C 0.49622 0.36595 0.85036 0.0
C1190 C 0.50577 0.3772 0.90164 0.0
C1191 C 0.49862 0.37754 0.96602 0.0
C1192 C 0.50719 0.38871 0.01375 0.0
C1193 C 0.52302 0.39946 -0.00222 0.0
C1194 C 0.53041 0.39897 0.93419 0.0
C1195 C 0.52188 0.38785 0.88626 0.0
H1196 H 0.52963 0.40809 0.03482 0.0
H1197 H 0.45137 0.30253 0.5542 0.0
H1198 H 0.18614 0.46866 0.03832 0.0
H1199 H 0.15761 0.46443 0.97414 0.0
H1200 H 0.19073 0.4616 0.79644 0.0
H1201 H 0.21943 0.46651 0.86053 0.0
H1202 H 0.16333 0.48479 0.77891 0.0
H1203 H 0.16625 0.42234 0.8579 0.0
H1204 H 0.17018 0.39669 0.93824 0.0
H1205 H 0.12162 0.41596 0.04449 0.0
H1206 H 0.11753 0.44189 0.96536 0.0
H1207 H 0.07213 0.47666 0.62586 0.0
H1208 H 0.10442 0.46865 0.65786 0.0
H1209 H 0.0892 0.47487 0.86185 0.0
H1210 H 0.05709 0.48253 0.83066 0.0
H1211 H 0.10993 0.44372 0.84295 0.0
H1212 H 0.11259 0.50997 0.7737 0.0
H1213 H 0.10858 0.535 0.69081 0.0
H1214 H 0.14699 0.50659 0.56163 0.0
H1215 H 0.15109 0.48132 0.64366 0.0
C1216 C 0.18743 0.46676 0.98575 0.0
C1217 C 0.20503 0.46796 0.95446 0.0
C1218 C 0.17107 0.46424 0.94902 0.0
C1219 C 0.17201 0.46245 0.8804 0.0
C1220 C 0.18966 0.46291 0.84929 0.0
C1221 C 0.20604 0.46568 0.88598 0.0
C1222 C 0.15439 0.46191 0.84133 0.0
C1223 C 0.15182 0.47547 0.79187 0.0
C1224 C 0.13932 0.44978 0.85802 0.0
C1225 C 0.14163 0.43413 0.9057 0.0
C1226 C 0.15647 0.42118 0.89859 0.0
C1227 C 0.15872 0.40658 0.94392 0.0
C1228 C 0.14617 0.4047 0.99646 0.0
C1229 C 0.13132 0.41742 0.00373 0.0
C1230 C 0.12901 0.43205 0.95857 0.0
C1231 C 0.0757 0.47638 0.67744 0.0
C1232 C 0.06205 0.4803 0.72565 0.0
C1233 C 0.09414 0.47176 0.69565 0.0
C1234 C 0.0992 0.4712 0.76225 0.0
C1235 C 0.08556 0.47507 0.8102 0.0
C1236 C 0.06721 0.47955 0.79218 0.0
C1237 C 0.11873 0.46715 0.78333 0.0
C1238 C 0.12165 0.45267 0.82908 0.0
C1239 C 0.13415 0.47829 0.76288 0.0
C1240 C 0.13201 0.4937 0.71444 0.0
C1241 C 0.12013 0.50905 0.72751 0.0
C1242 C 0.11784 0.52327 0.68072 0.0
C1243 C 0.12748 0.52235 0.62091 0.0
C1244 C 0.13951 0.50727 0.60793 0.0
C1245 C 0.14184 0.49301 0.65457 0.0
H1246 H 0.12567 0.53335 0.58469 0.0
H1247 H 0.14794 0.39339 0.03151 0.0
H1248 H 0.00962 0.80106 0.54716 0.0
H1249 H 1.00053 0.83167 0.59041 0.0
H1250 H 0.95035 0.83095 0.47147 0.0
H1251 H 0.9591 0.80003 0.42915 0.0
H1252 H 0.97635 0.85948 0.44118 0.0
H1253 H 0.94462 0.83495 0.62596 0.0
H1254 H 0.93877 0.81596 0.72513 0.0
H1255 H 0.98404 0.8439 0.82423 0.0
H1256 H 0.99079 0.86247 0.72484 0.0
H1257 H 0.97389 0.95734 0.52753 0.0
H1258 H 0.96526 0.92481 0.50208 0.0
H1259 H 0.00452 0.90507 0.64869 0.0
H1260 H 0.01232 0.93739 0.67627 0.0
H1261 H 0.97386 0.88732 0.66362 0.0
H1262 H 0.01251 0.90196 0.47117 0.0
H1263 H 0.02157 0.91875 0.36959 0.0
H1264 H 0.96685 0.90843 0.28829 0.0
H1265 H 0.95754 0.8914 0.38898 0.0
C1266 C 0.99632 0.80712 0.53194 0.0
C1267 C 0.98527 0.79839 0.48374 0.0
C1268 C 0.99107 0.82454 0.55708 0.0
C1269 C 0.97481 0.83354 0.53384 0.0
C1270 C 0.9629 0.82413 0.49011 0.0
C1271 C 0.96796 0.8065 0.46593 0.0
C1272 C 0.97271 0.85391 0.54445 0.0
C1273 C 0.97537 0.86563 0.48976 0.0
C1274 C 0.97182 0.86176 0.60794 0.0
C1275 C 0.96829 0.85007 0.66737 0.0
C1276 C 0.95358 0.83684 0.66839 0.0
C1277 C 0.95011 0.82612 0.72475 0.0
C1278 C 0.96112 0.82863 0.7808 0.0
C1279 C 0.97564 0.84184 0.78058 0.0
C1280 C 0.97931 0.85245 0.72415 0.0
C1281 C 0.98079 0.94597 0.55354 0.0
C1282 C 0.99371 0.94975 0.60383 0.0
C1283 C 0.97588 0.92742 0.539 0.0
C1284 C 0.98426 0.91246 0.57339 0.0
C1285 C 0.99768 0.91635 0.622 0.0
C1286 C 0.00222 0.93481 0.6375 0.0
C1287 C 0.97891 0.89267 0.56087 0.0
C1288 C 0.97462 0.88115 0.61506 0.0
C1289 C 0.9789 0.88484 0.49716 0.0
C1290 C 0.98424 0.89571 0.4379 0.0
C1291 C 0.00236 0.90347 0.43189 0.0
C1292 C 0.00756 0.91296 0.37445 0.0
C1293 C 0.99475 0.91481 0.32287 0.0
C1294 C 0.97673 0.90707 0.32841 0.0
C1295 C 0.97151 0.89745 0.38552 0.0
H1296 H 0.99881 0.92216 0.27846 0.0
H1297 H 0.95834 0.82039 0.8245 0.0
H1298 H 0.6908 0.02167 0.37455 0.0
H1299 H 0.65943 0.02333 0.42337 0.0
H1300 H 0.67804 0.98874 0.58505 0.0
H1301 H 0.70937 0.98665 0.53559 0.0
H1302 H 0.64619 0.97601 0.5411 0.0
H1303 H 0.6682 0.03613 0.60574 0.0
H1304 H 0.68279 0.06735 0.59325 0.0
H1305 H 0.63943 0.08358 0.45784 0.0
H1306 H 0.6247 0.05236 0.46885 0.0
H1307 H 0.56039 0.99464 0.72419 0.0
H1308 H 0.59384 0.99489 0.69318 0.0
H1309 H 0.57907 0.01368 0.49857 0.0
H1310 H 0.54568 0.01305 0.52844 0.0
H1311 H 0.60954 0.03478 0.57003 0.0
H1312 H 0.58951 0.97225 0.50397 0.0
H1313 H 0.57525 0.9412 0.52429 0.0
H1314 H 0.61603 0.93015 0.67494 0.0
H1315 H 0.63036 0.96128 0.65611 0.0
C1316 C 0.68832 0.01468 0.42107 0.0
C1317 C 0.70258 0.00407 0.45133 0.0
C1318 C 0.67037 0.01568 0.44907 0.0
C1319 C 0.6664 0.00631 0.50828 0.0
C1320 C 0.68076 0.99607 0.53933 0.0
C1321 C 0.69868 0.99495 0.51111 0.0
C1322 C 0.647 0.00627 0.53556 0.0
C1323 C 0.63834 0.98891 0.54857 0.0
C1324 C 0.63662 0.02305 0.54471 0.0
C1325 C 0.64544 0.04184 0.53768 0.0
C1326 C 0.66186 0.0463 0.57286 0.0
C1327 C 0.67014 0.06401 0.56614 0.0
C1328 C 0.66207 0.07743 0.52466 0.0
C1329 C 0.64567 0.07317 0.48991 0.0
C1330 C 0.63734 0.05547 0.49643 0.0
C1331 C 0.56429 0.99875 0.67473 0.0
C1332 C 0.55044 0.00374 0.62858 0.0
C1333 C 0.58335 0.99888 0.65719 0.0
C1334 C 0.58881 0.00434 0.59371 0.0
C1335 C 0.57506 0.00947 0.54782 0.0
C1336 C 0.55601 0.00898 0.56486 0.0
C1337 C 0.60889 0.0046 0.57463 0.0
C1338 C 0.61759 0.02197 0.56316 0.0
C1339 C 0.61941 0.98788 0.56804 0.0
C1340 C 0.61084 0.96917 0.57921 0.0
C1341 C 0.59531 0.96328 0.54189 0.0
C1342 C 0.58724 0.94565 0.55302 0.0
C1343 C 0.59469 0.93373 0.60103 0.0
C1344 C 0.61025 0.93941 0.63787 0.0
C1345 C 0.61836 0.95703 0.62696 0.0
H1346 H 0.58843 0.92008 0.60957 0.0
H1347 H 0.66849 0.09113 0.51953 0.0
H1348 H 0.48851 0.71067 0.55868 0.0
H1349 H 0.4902 0.68046 0.61619 0.0
H1350 H 0.48739 0.65156 0.43045 0.0
H1351 H 0.48503 0.68146 0.37325 0.0
H1352 H 0.46635 0.63446 0.51487 0.0
H1353 H 0.53005 0.65965 0.51847 0.0
H1354 H 0.55418 0.68325 0.54606 0.0
H1355 H 0.54074 0.6775 0.75081 0.0
H1356 H 0.51641 0.65398 0.7243 0.0
H1357 H 0.50607 0.54647 0.55847 0.0
H1358 H 0.50222 0.57945 0.52965 0.0
H1359 H 0.49911 0.59396 0.7348 0.0
H1360 H 0.50314 0.56082 0.76452 0.0
H1361 H 0.52053 0.61953 0.65951 0.0
H1362 H 0.4586 0.59218 0.65469 0.0
H1363 H 0.43453 0.56871 0.62499 0.0
H1364 H 0.44587 0.57825 0.42048 0.0
H1365 H 0.46983 0.60185 0.44886 0.0
C1366 C 0.48808 0.69785 0.53027 0.0
C1367 C 0.48671 0.69845 0.46144 0.0
C1368 C 0.48918 0.68061 0.56315 0.0
C1369 C 0.48926 0.66375 0.52757 0.0
C1370 C 0.48739 0.66437 0.45901 0.0
C1371 C 0.48604 0.68152 0.42631 0.0
C1372 C 0.49141 0.64531 0.56068 0.0
C1373 C 0.47827 0.63123 0.54623 0.0
C1374 C 0.5066 0.64119 0.60344 0.0
C1375 C 0.52128 0.65523 0.61935 0.0
C1376 C 0.53217 0.66351 0.56932 0.0
C1377 C 0.5459 0.67685 0.58477 0.0
C1378 C 0.54896 0.68191 0.65013 0.0
C1379 C 0.53834 0.67359 0.7002 0.0
C1380 C 0.52459 0.66024 0.685 0.0
C1381 C 0.50475 0.55663 0.59766 0.0
C1382 C 0.50476 0.55098 0.66381 0.0
C1383 C 0.5025 0.57549 0.58104 0.0
C1384 C 0.50006 0.58905 0.63011 0.0
C1385 C 0.50089 0.58365 0.69629 0.0
C1386 C 0.50317 0.56472 0.71308 0.0
C1387 C 0.49588 0.60869 0.61135 0.0
C1388 C 0.50852 0.62293 0.62888 0.0
C1389 C 0.4803 0.61303 0.57107 0.0
C1390 C 0.46595 0.59878 0.55389 0.0
C1391 C 0.45595 0.58923 0.60339 0.0
C1392 C 0.44228 0.57597 0.58678 0.0
C1393 C 0.43852 0.57216 0.52087 0.0
C1394 C 0.44858 0.58141 0.47144 0.0
C1395 C 0.46216 0.59477 0.48773 0.0
H1396 H 0.42777 0.56211 0.50812 0.0
H1397 H 0.55958 0.69224 0.66198 0.0
H1398 H 0.79602 0.46576 0.45642 0.0
H1399 H 0.82644 0.46507 0.5128 0.0
H1400 H 0.82775 0.52566 0.51228 0.0
H1401 H 0.7973 0.52644 0.45789 0.0
H1402 H 0.85799 0.47704 0.46138 0.0
H1403 H 0.85326 0.54267 0.6267 0.0
H1404 H 0.8299 0.5584 0.69767 0.0
H1405 H 0.80259 0.5056 0.73407 0.0
H1406 H 0.82567 0.4896 0.66273 0.0
H1407 H 0.95033 0.50828 0.51697 0.0
H1408 H 0.91667 0.50808 0.49131 0.0
H1409 H 0.90405 0.49163 0.69072 0.0
H1410 H 0.93743 0.49243 0.7172 0.0
H1411 H 0.87865 0.51507 0.65185 0.0
H1412 H 0.90648 0.45941 0.56278 0.0
H1413 H 0.92899 0.44102 0.4967 0.0
H1414 H 0.90921 0.46798 0.32106 0.0
H1415 H 0.88677 0.48676 0.38622 0.0
C1416 C 0.80261 0.47891 0.4698 0.0
C1417 C 0.79439 0.49614 0.45215 0.0
C1418 C 0.81998 0.4785 0.50191 0.0
C1419 C 0.82936 0.4953 0.51683 0.0
C1420 C 0.82066 0.51251 0.50232 0.0
C1421 C 0.80326 0.51293 0.47082 0.0
C1422 C 0.84905 0.49499 0.54058 0.0
C1423 C 0.8625 0.48522 0.50339 0.0
C1424 C 0.85489 0.50549 0.59566 0.0
C1425 C 0.84113 0.51498 0.63922 0.0
C1426 C 0.84229 0.53443 0.64996 0.0
C1427 C 0.82903 0.5434 0.6899 0.0
C1428 C 0.81476 0.53301 0.7203 0.0
C1429 C 0.81363 0.51364 0.71041 0.0
C1430 C 0.82672 0.50463 0.66992 0.0
C1431 C 0.94035 0.50482 0.55546 0.0
C1432 C 0.94656 0.50025 0.61894 0.0
C1433 C 0.92114 0.50462 0.5407 0.0
C1434 C 0.90786 0.49945 0.58878 0.0
C1435 C 0.91401 0.49561 0.65278 0.0
C1436 C 0.93315 0.49605 0.66778 0.0
C1437 C 0.88766 0.49734 0.57202 0.0
C1438 C 0.87415 0.50672 0.61027 0.0
C1439 C 0.88169 0.48602 0.51891 0.0
C1440 C 0.89507 0.47463 0.4795 0.0
C1441 C 0.90702 0.46151 0.51012 0.0
C1442 C 0.91976 0.45101 0.47282 0.0
C1443 C 0.92057 0.45337 0.40475 0.0
C1444 C 0.90859 0.46619 0.37381 0.0
C1445 C 0.89585 0.47677 0.4109 0.0
H1446 H 0.93044 0.44522 0.37597 0.0
H1447 H 0.8046 0.53996 0.75161 0.0
loop_
_geom_bond_atom_site_label_1
_geom_bond_atom_site_label_2
_geom_bond_distance
_geom_bond_site_symmetry_2
_ccdc_geom_bond_type
O0 Cd1 2.300 . S
O0 C7 1.275 . S
Cd1 O0 2.300 . S
Cd1 O9 2.381 . S
Cd1 O10 2.378 . S
O2 Cd3 2.385 . S
O2 C7 1.255 . S
Cd3 O2 2.385 . S
Cd3 O4 2.317 . S
O4 Cd3 2.317 . S
O4 C5 1.232 . S
C5 O4 1.232 . S
C5 O6 1.218 . S
O6 C5 1.218 . S
C7 O0 1.275 . S
C7 O2 1.255 . S
C8 O9 1.258 . S
C8 O10 1.256 . S
O9 Cd1 2.381 . S
O9 C8 1.258 . S
O10 Cd1 2.378 . S
O10 C8 1.256 . S
O11 Cd12 2.300 1_655 S
O11 C18 1.275 1_655 S
Cd12 O11 2.300 1_455 S
Cd12 O20 2.381 1_455 S
Cd12 O21 2.378 . S
O13 Cd14 2.385 . S
O13 C18 1.255 . S
Cd14 O13 2.385 . S
Cd14 O15 2.317 . S
O15 Cd14 2.317 . S
O15 C16 1.232 . S
C16 O15 1.232 . S
C16 O17 1.218 . S
O17 C16 1.218 . S
C18 O11 1.275 1_455 S
C18 O13 1.255 . S
C19 O20 1.258 1_455 S
C19 O21 1.256 . S
O20 Cd12 2.381 1_655 S
O20 C19 1.258 1_655 S
O21 Cd12 2.378 . S
O21 C19 1.256 . S
O22 Cd23 2.300 1_565 S
O22 C29 1.275 1_565 S
Cd23 O22 2.300 1_545 S
Cd23 O31 2.381 1_545 S
Cd23 O32 2.378 . S
O24 Cd25 2.385 . S
O24 C29 1.255 . S
Cd25 O24 2.385 . S
Cd25 O26 2.317 . S
O26 Cd25 2.317 . S
O26 C27 1.232 . S
C27 O26 1.232 . S
C27 O28 1.218 . S
O28 C27 1.218 . S
C29 O22 1.275 1_545 S
C29 O24 1.255 . S
C30 O31 1.258 1_545 S
C30 O32 1.256 . S
O31 Cd23 2.381 1_565 S
O31 C30 1.258 1_565 S
O32 Cd23 2.378 . S
O32 C30 1.256 . S
O33 Cd34 2.300 . S
O33 C40 1.275 . S
Cd34 O33 2.300 . S
Cd34 O42 2.381 . S
Cd34 O43 2.378 . S
O35 Cd36 2.385 . S
O35 C40 1.255 . S
Cd36 O35 2.385 . S
Cd36 O37 2.317 . S
O37 Cd36 2.317 . S
O37 C38 1.232 . S
C38 O37 1.232 . S
C38 O39 1.218 . S
O39 C38 1.218 . S
C40 O33 1.275 . S
C40 O35 1.255 . S
C41 O42 1.258 . S
C41 O43 1.256 . S
O42 Cd34 2.381 . S
O42 C41 1.258 . S
O43 Cd34 2.378 . S
O43 C41 1.256 . S
O44 Cd45 2.300 . S
O44 C51 1.275 . S
Cd45 O44 2.300 . S
Cd45 O53 2.381 . S
Cd45 O54 2.378 . S
O46 Cd47 2.385 . S
O46 C51 1.255 . S
Cd47 O46 2.385 . S
Cd47 O48 2.317 1_554 S
O48 Cd47 2.317 1_556 S
O48 C49 1.232 . S
C49 O48 1.232 . S
C49 O50 1.218 . S
O50 C49 1.218 . S
C51 O44 1.275 . S
C51 O46 1.255 . S
C52 O53 1.258 . S
C52 O54 1.256 . S
O53 Cd45 2.381 . S
O53 C52 1.258 . S
O54 Cd45 2.378 . S
O54 C52 1.256 . S
O55 Cd56 2.300 1_655 S
O55 C62 1.275 1_655 S
Cd56 O55 2.300 1_455 S
Cd56 O64 2.381 1_455 S
Cd56 O65 2.378 . S
O57 Cd58 2.385 . S
O57 C62 1.255 . S
Cd58 O57 2.385 . S
Cd58 O59 2.317 1_554 S
O59 Cd58 2.317 1_556 S
O59 C60 1.232 . S
C60 O59 1.232 . S
C60 O61 1.218 . S
O61 C60 1.218 . S
C62 O55 1.275 1_455 S
C62 O57 1.255 . S
C63 O64 1.258 1_455 S
C63 O65 1.256 . S
O64 Cd56 2.381 1_655 S
O64 C63 1.258 1_655 S
O65 Cd56 2.378 . S
O65 C63 1.256 . S
O66 Cd67 2.300 1_565 S
O66 C73 1.275 1_565 S
Cd67 O66 2.300 1_545 S
Cd67 O75 2.381 1_545 S
Cd67 O76 2.378 . S
O68 Cd69 2.385 . S
O68 C73 1.255 . S
Cd69 O68 2.385 . S
Cd69 O70 2.317 1_554 S
O70 Cd69 2.317 1_556 S
O70 C71 1.232 . S
C71 O70 1.232 . S
C71 O72 1.218 . S
O72 C71 1.218 . S
C73 O66 1.275 1_545 S
C73 O68 1.255 . S
C74 O75 1.258 1_545 S
C74 O76 1.256 . S
O75 Cd67 2.381 1_565 S
O75 C74 1.258 1_565 S
O76 Cd67 2.378 . S
O76 C74 1.256 . S
O77 Cd78 2.300 . S
O77 C84 1.275 . S
Cd78 O77 2.300 . S
Cd78 O86 2.381 . S
Cd78 O87 2.378 . S
O79 Cd80 2.385 . S
O79 C84 1.255 . S
Cd80 O79 2.385 . S
Cd80 O81 2.317 1_554 S
O81 Cd80 2.317 1_556 S
O81 C82 1.232 . S
C82 O81 1.232 . S
C82 O83 1.218 . S
O83 C82 1.218 . S
C84 O77 1.275 . S
C84 O79 1.255 . S
C85 O86 1.258 . S
C85 O87 1.256 . S
O86 Cd78 2.381 . S
O86 C85 1.258 . S
O87 Cd78 2.378 . S
O87 C85 1.256 . S
C88 Eu89 2.835 . S
C88 C90 1.500 . S
C88 O108 1.251 . S
C88 O109 1.260 . S
Eu89 C88 2.835 . S
Eu89 O108 2.470 . S
Eu89 O109 2.480 . S
Eu89 O110 2.430 . S
Eu89 O111 2.670 1_545 S
Eu89 O112 2.394 . S
Eu89 O117 2.355 1_655 S
Eu89 O119 2.374 1_545 S
C90 C88 1.500 . S
C90 C91 1.377 . S
C90 C95 1.406 . S
C91 C90 1.377 . S
C91 C92 1.395 . S
C91 H120 0.931 . S
C92 C91 1.395 . S
C92 C93 1.383 . S
C92 H121 0.931 . S
C93 C92 1.383 . S
C93 C94 1.394 . S
C94 C93 1.394 . S
C94 C95 1.380 . S
C94 H122 0.931 1_655 S
C95 C90 1.406 . S
C95 C94 1.380 . S
C95 H123 0.900 1_655 S
C96 O110 1.280 . S
C96 O111 1.256 1_545 S
C97 O112 1.251 1_455 S
C97 O113 1.251 . S
C98 Eu99 2.835 . S
C98 C100 1.500 . S
C98 O114 1.264 . S
C98 O115 1.260 . S
Eu99 C98 2.835 . S
Eu99 O111 2.355 1_455 S
Eu99 O113 2.374 1_565 S
Eu99 O114 2.476 . S
Eu99 O115 2.480 . S
Eu99 O116 2.430 . S
Eu99 O117 2.670 1_565 S
Eu99 O118 2.394 . S
C100 C98 1.500 . S
C100 C101 1.377 . S
C100 C105 1.418 . S
C101 C100 1.377 . S
C101 C102 1.395 . S
C101 H124 0.931 . S
C102 C101 1.395 . S
C102 C103 1.383 . S
C102 H125 0.931 . S
C103 C102 1.383 . S
C103 C104 1.394 . S
C104 C103 1.394 . S
C104 C105 1.382 . S
C104 H126 0.931 1_455 S
C105 C100 1.418 . S
C105 C104 1.382 . S
C105 H127 0.887 1_455 S
C106 O116 1.272 . S
C106 O117 1.261 1_565 S
C107 O118 1.251 1_655 S
C107 O119 1.251 . S
O108 C88 1.251 . S
O108 Eu89 2.470 . S
O109 C88 1.260 . S
O109 Eu89 2.480 . S
O110 Eu89 2.430 . S
O110 C96 1.280 . S
O111 Eu89 2.670 1_565 S
O111 C96 1.256 1_565 S
O111 Eu99 2.355 1_655 S
O112 Eu89 2.394 . S
O112 C97 1.251 1_655 S
O113 C97 1.251 . S
O113 Eu99 2.374 1_545 S
O114 C98 1.264 . S
O114 Eu99 2.476 . S
O115 C98 1.260 . S
O115 Eu99 2.480 . S
O116 Eu99 2.430 . S
O116 C106 1.272 . S
O117 Eu89 2.355 1_455 S
O117 Eu99 2.670 1_545 S
O117 C106 1.261 1_545 S
O118 Eu99 2.394 . S
O118 C107 1.251 1_455 S
O119 Eu89 2.374 1_565 S
O119 C107 1.251 . S
H120 C91 0.931 . S
H121 C92 0.931 . S
H122 C94 0.931 1_455 S
H123 C95 0.900 1_455 S
H124 C101 0.931 . S
H125 C102 0.931 . S
H126 C104 0.931 1_655 S
H127 C105 0.887 1_655 S
C128 Eu129 2.835 . S
C128 C130 1.500 . S
C128 O148 1.263 1_565 S
C128 O149 1.260 . S
Eu129 C128 2.835 . S
Eu129 O148 2.475 1_565 S
Eu129 O149 2.480 . S
Eu129 O150 2.430 . S
Eu129 O151 2.670 . S
Eu129 O152 2.394 . S
Eu129 O157 2.355 1_565 S
Eu129 O159 2.374 . S
C130 C128 1.500 . S
C130 C131 1.377 . S
C130 C135 1.405 . S
C131 C130 1.377 . S
C131 C132 1.395 . S
C131 H160 0.931 . S
C132 C131 1.395 . S
C132 C133 1.383 . S
C132 H161 0.931 . S
C133 C132 1.383 . S
C133 C134 1.394 . S
C134 C133 1.394 . S
C134 C135 1.380 . S
C134 H162 0.931 1_565 S
C135 C130 1.405 . S
C135 C134 1.380 . S
C135 H163 0.901 1_565 S
C136 O150 1.259 . S
C136 O151 1.270 . S
C137 O152 1.251 1_545 S
C137 O153 1.251 . S
C138 Eu139 2.835 . S
C138 C140 1.500 . S
C138 O154 1.263 . S
C138 O155 1.260 . S
Eu139 C138 2.835 . S
Eu139 O151 2.355 1_545 S
Eu139 O153 2.374 . S
Eu139 O154 2.475 . S
Eu139 O155 2.480 . S
Eu139 O156 2.430 . S
Eu139 O157 2.670 . S
Eu139 O158 2.394 . S
C140 C138 1.500 . S
C140 C141 1.377 . S
C140 C145 1.417 . S
C141 C140 1.377 . S
C141 C142 1.395 . S
C141 H164 0.931 . S
C142 C141 1.395 . S
C142 C143 1.383 . S
C142 H165 0.931 . S
C143 C142 1.383 . S
C143 C144 1.394 . S
C144 C143 1.394 . S
C144 C145 1.381 . S
C144 H166 0.931 1_545 S
C145 C140 1.417 . S
C145 C144 1.381 . S
C145 H167 0.889 1_545 S
C146 O156 1.259 . S
C146 O157 1.270 . S
C147 O158 1.251 1_565 S
C147 O159 1.251 . S
O148 C128 1.263 1_545 S
O148 Eu129 2.475 1_545 S
O149 C128 1.260 . S
O149 Eu129 2.480 . S
O150 Eu129 2.430 . S
O150 C136 1.259 . S
O151 Eu129 2.670 . S
O151 C136 1.270 . S
O151 Eu139 2.355 1_565 S
O152 Eu129 2.394 . S
O152 C137 1.251 1_565 S
O153 C137 1.251 . S
O153 Eu139 2.374 . S
O154 C138 1.263 . S
O154 Eu139 2.475 . S
O155 C138 1.260 . S
O155 Eu139 2.480 . S
O156 Eu139 2.430 . S
O156 C146 1.259 . S
O157 Eu129 2.355 1_545 S
O157 Eu139 2.670 . S
O157 C146 1.270 . S
O158 Eu139 2.394 . S
O158 C147 1.251 1_545 S
O159 Eu129 2.374 . S
O159 C147 1.251 . S
H160 C131 0.931 . S
H161 C132 0.931 . S
H162 C134 0.931 1_545 S
H163 C135 0.901 1_545 S
H164 C141 0.931 . S
H165 C142 0.931 . S
H166 C144 0.931 1_565 S
H167 C145 0.889 1_565 S
C168 Eu169 2.835 . S
C168 C170 1.500 . S
C168 O188 1.257 . S
C168 O189 1.260 . S
Eu169 C168 2.835 . S
Eu169 O188 2.473 . S
Eu169 O189 2.480 . S
Eu169 O190 2.430 . S
Eu169 O191 2.670 . S
Eu169 O192 2.394 . S
Eu169 O197 2.355 . S
Eu169 O199 2.374 . S
C170 C168 1.500 . S
C170 C171 1.377 . S
C170 C175 1.377 . S
C171 C170 1.377 . S
C171 C172 1.395 . S
C171 H200 0.931 . S
C172 C171 1.395 . S
C172 C173 1.383 . S
C172 H201 0.931 . S
C173 C172 1.383 . S
C173 C174 1.394 . S
C174 C173 1.394 . S
C174 C175 1.378 . S
C174 H202 0.931 . S
C175 C170 1.377 . S
C175 C174 1.378 . S
C175 H203 0.931 . S
C176 O190 1.259 . S
C176 O191 1.270 . S
C177 O192 1.251 . S
C177 O193 1.251 . S
C178 Eu179 2.835 . S
C178 C180 1.500 . S
C178 O194 1.257 . S
C178 O195 1.260 . S
Eu179 C178 2.835 . S
Eu179 O191 2.355 . S
Eu179 O193 2.374 . S
Eu179 O194 2.473 . S
Eu179 O195 2.480 . S
Eu179 O196 2.430 . S
Eu179 O197 2.670 . S
Eu179 O198 2.394 . S
C180 C178 1.500 . S
C180 C181 1.377 . S
C180 C185 1.377 . S
C181 C180 1.377 . S
C181 C182 1.395 . S
C181 H204 0.931 . S
C182 C181 1.395 . S
C182 C183 1.383 . S
C182 H205 0.931 . S
C183 C182 1.383 . S
C183 C184 1.394 . S
C184 C183 1.394 . S
C184 C185 1.378 . S
C184 H206 0.931 . S
C185 C180 1.377 . S
C185 C184 1.378 . S
C185 H207 0.931 . S
C186 O196 1.259 . S
C186 O197 1.270 . S
C187 O198 1.251 . S
C187 O199 1.251 . S
O188 C168 1.257 . S
O188 Eu169 2.473 . S
O189 C168 1.260 . S
O189 Eu169 2.480 . S
O190 Eu169 2.430 . S
O190 C176 1.259 . S
O191 Eu169 2.670 . S
O191 C176 1.270 . S
O191 Eu179 2.355 . S
O192 Eu169 2.394 . S
O192 C177 1.251 . S
O193 C177 1.251 . S
O193 Eu179 2.374 . S
O194 C178 1.257 . S
O194 Eu179 2.473 . S
O195 C178 1.260 . S
O195 Eu179 2.480 . S
O196 Eu179 2.430 . S
O196 C186 1.259 . S
O197 Eu169 2.355 . S
O197 Eu179 2.670 . S
O197 C186 1.270 . S
O198 Eu179 2.394 . S
O198 C187 1.251 . S
O199 Eu169 2.374 . S
O199 C187 1.251 . S
H200 C171 0.931 . S
H201 C172 0.931 . S
H202 C174 0.931 . S
H203 C175 0.931 . S
H204 C181 0.931 . S
H205 C182 0.931 . S
H206 C184 0.931 . S
H207 C185 0.931 . S
C208 Eu209 2.835 . S
C208 C210 1.500 . S
C208 O228 1.257 . S
C208 O229 1.260 . S
Eu209 C208 2.835 . S
Eu209 O228 2.473 . S
Eu209 O229 2.480 . S
Eu209 O230 2.430 . S
Eu209 O231 2.670 1_455 S
Eu209 O232 2.394 . S
Eu209 O237 2.355 . S
Eu209 O239 2.374 1_455 S
C210 C208 1.500 . S
C210 C211 1.377 . S
C210 C215 1.377 . S
C211 C210 1.377 . S
C211 C212 1.395 . S
C211 H240 0.931 . S
C212 C211 1.395 . S
C212 C213 1.383 . S
C212 H241 0.931 . S
C213 C212 1.383 . S
C213 C214 1.394 . S
C214 C213 1.394 . S
C214 C215 1.378 . S
C214 H242 0.931 . S
C215 C210 1.377 . S
C215 C214 1.378 . S
C215 H243 0.931 . S
C216 O230 1.280 . S
C216 O231 1.255 1_455 S
C217 O232 1.251 . S
C217 O233 1.251 . S
C218 Eu219 2.835 . S
C218 C220 1.500 . S
C218 O234 1.257 . S
C218 O235 1.260 . S
Eu219 C218 2.835 . S
Eu219 O231 2.355 . S
Eu219 O233 2.374 1_655 S
Eu219 O234 2.473 . S
Eu219 O235 2.480 . S
Eu219 O236 2.430 . S
Eu219 O237 2.670 1_655 S
Eu219 O238 2.394 . S
C220 C218 1.500 . S
C220 C221 1.377 . S
C220 C225 1.377 . S
C221 C220 1.377 . S
C221 C222 1.395 . S
C221 H244 0.931 . S
C222 C221 1.395 . S
C222 C223 1.383 . S
C222 H245 0.931 . S
C223 C222 1.383 . S
C223 C224 1.394 . S
C224 C223 1.394 . S
C224 C225 1.378 . S
C224 H246 0.931 . S
C225 C220 1.377 . S
C225 C224 1.378 . S
C225 H247 0.931 . S
C226 O236 1.273 . S
C226 O237 1.260 1_655 S
C227 O238 1.251 . S
C227 O239 1.251 . S
O228 C208 1.257 . S
O228 Eu209 2.473 . S
O229 C208 1.260 . S
O229 Eu209 2.480 . S
O230 Eu209 2.430 . S
O230 C216 1.280 . S
O231 Eu209 2.670 1_655 S
O231 C216 1.255 1_655 S
O231 Eu219 2.355 . S
O232 Eu209 2.394 . S
O232 C217 1.251 . S
O233 C217 1.251 . S
O233 Eu219 2.374 1_455 S
O234 C218 1.257 . S
O234 Eu219 2.473 . S
O235 C218 1.260 . S
O235 Eu219 2.480 . S
O236 Eu219 2.430 . S
O236 C226 1.273 . S
O237 Eu209 2.355 . S
O237 Eu219 2.670 1_455 S
O237 C226 1.260 1_455 S
O238 Eu219 2.394 . S
O238 C227 1.251 . S
O239 Eu209 2.374 1_655 S
O239 C227 1.251 . S
H240 C211 0.931 . S
H241 C212 0.931 . S
H242 C214 0.931 . S
H243 C215 0.931 . S
H244 C221 0.931 . S
H245 C222 0.931 . S
H246 C224 0.931 . S
H247 C225 0.931 . S
H248 C266 0.951 . S
H249 C268 0.951 . S
H250 C270 0.950 . S
H251 C271 0.950 . S
H252 C273 0.950 . S
H253 C276 0.950 . S
H254 C277 0.950 . S
H255 C279 0.950 . S
H256 C280 0.950 . S
H257 C281 0.951 . S
H258 C283 0.951 . S
H259 C285 0.950 . S
H260 C286 0.950 . S
H261 C288 0.950 . S
H262 C291 0.950 . S
H263 C292 0.950 . S
H264 C294 0.950 . S
H265 C295 0.950 . S
C266 H248 0.951 . S
C266 C267 1.383 . S
C266 C268 1.388 . S
C267 C266 1.383 . S
C267 C271 1.368 1_545 S
C268 H249 0.951 . S
C268 C266 1.388 . S
C268 C269 1.366 . S
C269 C268 1.366 . S
C269 C270 1.414 1_545 S
C269 C272 1.499 . S
C270 H250 0.950 . S
C270 C269 1.414 1_565 S
C270 C271 1.374 . S
C271 H251 0.950 . S
C271 C267 1.368 1_565 S
C271 C270 1.374 . S
C272 C269 1.499 . S
C272 C273 1.373 1_545 S
C272 C274 1.389 . S
C273 H252 0.950 . S
C273 C272 1.373 1_565 S
C273 C289 1.377 . S
C274 C272 1.389 . S
C274 C275 1.524 . S
C274 C288 1.377 . S
C275 C274 1.524 . S
C275 C276 1.397 . S
C275 C280 1.363 . S
C276 H253 0.950 . S
C276 C275 1.397 . S
C276 C277 1.334 . S
C277 H254 0.950 . S
C277 C276 1.334 . S
C277 C278 1.287 . S
C278 C277 1.287 . S
C278 C279 1.524 . S
C278 H297 0.913 . S
C279 H255 0.950 . S
C279 C278 1.524 . S
C279 C280 1.415 . S
C280 H256 0.950 . S
C280 C275 1.363 . S
C280 C279 1.415 . S
C281 H257 0.951 . S
C281 C282 1.340 1_565 S
C281 C283 1.388 . S
C282 C281 1.340 1_545 S
C282 C286 1.411 . S
C283 H258 0.951 . S
C283 C281 1.388 . S
C283 C284 1.363 . S
C284 C283 1.363 . S
C284 C285 1.416 1_565 S
C284 C287 1.499 1_565 S
C285 H259 0.950 . S
C285 C284 1.416 1_545 S
C285 C286 1.374 . S
C286 H260 0.950 . S
C286 C282 1.411 . S
C286 C285 1.374 . S
C287 C284 1.499 1_545 S
C287 C288 1.381 . S
C287 C289 1.382 1_545 S
C288 H261 0.950 . S
C288 C274 1.377 . S
C288 C287 1.381 . S
C289 C273 1.377 . S
C289 C287 1.382 1_565 S
C289 C290 1.524 . S
C290 C289 1.524 . S
C290 C291 1.397 . S
C290 C295 1.363 . S
C291 H262 0.950 . S
C291 C290 1.397 . S
C291 C292 1.334 . S
C292 H263 0.950 . S
C292 C291 1.334 . S
C292 C293 1.287 . S
C293 C292 1.287 . S
C293 C294 1.524 . S
C293 H296 0.999 . S
C294 H264 0.950 . S
C294 C293 1.524 . S
C294 C295 1.415 . S
C295 H265 0.950 . S
C295 C290 1.363 . S
C295 C294 1.415 . S
H296 C293 0.999 . S
H297 C278 0.913 . S
H298 C316 0.951 . S
H299 C318 0.951 . S
H300 C320 0.950 . S
H301 C321 0.950 . S
H302 C323 0.950 . S
H303 C326 0.950 . S
H304 C327 0.950 . S
H305 C329 0.950 . S
H306 C330 0.950 . S
H307 C331 0.951 . S
H308 C333 0.951 . S
H309 C335 0.950 . S
H310 C336 0.950 . S
H311 C338 0.950 . S
H312 C341 0.950 . S
H313 C342 0.950 . S
H314 C344 0.950 . S
H315 C345 0.950 . S
C316 H298 0.951 . S
C316 C317 1.366 . S
C316 C318 1.388 . S
C317 C316 1.366 . S
C317 C321 1.385 . S
C318 H299 0.951 . S
C318 C316 1.388 . S
C318 C319 1.366 . S
C319 C318 1.366 . S
C319 C320 1.414 . S
C319 C322 1.499 . S
C320 H300 0.950 . S
C320 C319 1.414 . S
C320 C321 1.374 . S
C321 H301 0.950 . S
C321 C317 1.385 . S
C321 C320 1.374 . S
C322 C319 1.499 . S
C322 C323 1.373 . S
C322 C324 1.389 . S
C323 H302 0.950 . S
C323 C322 1.373 . S
C323 C339 1.377 . S
C324 C322 1.389 . S
C324 C325 1.524 . S
C324 C338 1.377 . S
C325 C324 1.524 . S
C325 C326 1.397 . S
C325 C330 1.363 . S
C326 H303 0.950 . S
C326 C325 1.397 . S
C326 C327 1.334 . S
C327 H304 0.950 . S
C327 C326 1.334 . S
C327 C328 1.287 . S
C328 C327 1.287 . S
C328 C329 1.524 . S
C328 H347 0.913 . S
C329 H305 0.950 . S
C329 C328 1.524 . S
C329 C330 1.415 . S
C330 H306 0.950 . S
C330 C325 1.363 . S
C330 C329 1.415 . S
C331 H307 0.951 . S
C331 C332 1.366 . S
C331 C333 1.388 . S
C332 C331 1.366 . S
C332 C336 1.385 . S
C333 H308 0.951 . S
C333 C331 1.388 . S
C333 C334 1.366 . S
C334 C333 1.366 . S
C334 C335 1.414 . S
C334 C337 1.499 . S
C335 H309 0.950 . S
C335 C334 1.414 . S
C335 C336 1.374 . S
C336 H310 0.950 . S
C336 C332 1.385 . S
C336 C335 1.374 . S
C337 C334 1.499 . S
C337 C338 1.373 . S
C337 C339 1.389 . S
C338 H311 0.950 . S
C338 C324 1.377 . S
C338 C337 1.373 . S
C339 C323 1.377 . S
C339 C337 1.389 . S
C339 C340 1.524 . S
C340 C339 1.524 . S
C340 C341 1.397 . S
C340 C345 1.363 . S
C341 H312 0.950 . S
C341 C340 1.397 . S
C341 C342 1.334 . S
C342 H313 0.950 . S
C342 C341 1.334 . S
C342 C343 1.287 . S
C343 C342 1.287 . S
C343 C344 1.524 . S
C343 H346 0.999 . S
C344 H314 0.950 . S
C344 C343 1.524 . S
C344 C345 1.415 . S
C345 H315 0.950 . S
C345 C340 1.363 . S
C345 C344 1.415 . S
H346 C343 0.999 . S
H347 C328 0.913 . S
H348 C366 0.951 . S
H349 C368 0.951 . S
H350 C370 0.950 . S
H351 C371 0.950 . S
H352 C373 0.950 . S
H353 C376 0.950 . S
H354 C377 0.950 . S
H355 C379 0.950 . S
H356 C380 0.950 . S
H357 C381 0.951 . S
H358 C383 0.951 . S
H359 C385 0.950 . S
H360 C386 0.950 . S
H361 C388 0.950 . S
H362 C391 0.950 . S
H363 C392 0.950 . S
H364 C394 0.950 . S
H365 C395 0.950 . S
C366 H348 0.951 . S
C366 C367 1.366 . S
C366 C368 1.388 . S
C367 C366 1.366 . S
C367 C371 1.385 . S
C368 H349 0.951 . S
C368 C366 1.388 . S
C368 C369 1.366 . S
C369 C368 1.366 . S
C369 C370 1.414 . S
C369 C372 1.499 . S
C370 H350 0.950 . S
C370 C369 1.414 . S
C370 C371 1.374 . S
C371 H351 0.950 . S
C371 C367 1.385 . S
C371 C370 1.374 . S
C372 C369 1.499 . S
C372 C373 1.373 . S
C372 C374 1.389 . S
C373 H352 0.950 . S
C373 C372 1.373 . S
C373 C389 1.377 . S
C374 C372 1.389 . S
C374 C375 1.524 . S
C374 C388 1.377 . S
C375 C374 1.524 . S
C375 C376 1.397 . S
C375 C380 1.363 . S
C376 H353 0.950 . S
C376 C375 1.397 . S
C376 C377 1.334 . S
C377 H354 0.950 . S
C377 C376 1.334 . S
C377 C378 1.287 . S
C378 C377 1.287 . S
C378 C379 1.524 . S
C378 H397 0.913 . S
C379 H355 0.950 . S
C379 C378 1.524 . S
C379 C380 1.415 . S
C380 H356 0.950 . S
C380 C375 1.363 . S
C380 C379 1.415 . S
C381 H357 0.951 . S
C381 C382 1.366 . S
C381 C383 1.388 . S
C382 C381 1.366 . S
C382 C386 1.385 . S
C383 H358 0.951 . S
C383 C381 1.388 . S
C383 C384 1.366 . S
C384 C383 1.366 . S
C384 C385 1.414 . S
C384 C387 1.499 . S
C385 H359 0.950 . S
C385 C384 1.414 . S
C385 C386 1.374 . S
C386 H360 0.950 . S
C386 C382 1.385 . S
C386 C385 1.374 . S
C387 C384 1.499 . S
C387 C388 1.373 . S
C387 C389 1.389 . S
C388 H361 0.950 . S
C388 C374 1.377 . S
C388 C387 1.373 . S
C389 C373 1.377 . S
C389 C387 1.389 . S
C389 C390 1.524 . S
C390 C389 1.524 . S
C390 C391 1.397 . S
C390 C395 1.363 . S
C391 H362 0.950 . S
C391 C390 1.397 . S
C391 C392 1.334 . S
C392 H363 0.950 . S
C392 C391 1.334 . S
C392 C393 1.287 . S
C393 C392 1.287 . S
C393 C394 1.524 . S
C393 H396 0.999 . S
C394 H364 0.950 . S
C394 C393 1.524 . S
C394 C395 1.415 . S
C395 H365 0.950 . S
C395 C390 1.363 . S
C395 C394 1.415 . S
H396 C393 0.999 . S
H397 C378 0.913 . S
H398 C416 0.951 . S
H399 C418 0.951 . S
H400 C420 0.950 . S
H401 C421 0.950 . S
H402 C423 0.950 . S
H403 C426 0.950 . S
H404 C427 0.950 . S
H405 C429 0.950 1_455 S
H406 C430 0.997 . S
H407 C431 0.951 . S
H408 C433 0.951 . S
H409 C435 0.950 . S
H410 C436 0.950 . S
H411 C438 0.950 . S
H412 C441 0.950 . S
H413 C442 0.950 . S
H414 C444 0.943 1_655 S
H415 C445 0.937 1_655 S
C416 H398 0.951 . S
C416 C417 1.382 . S
C416 C418 1.388 . S
C417 C416 1.382 . S
C417 C421 1.368 1_455 S
C418 H399 0.951 . S
C418 C416 1.388 . S
C418 C419 1.360 1_455 S
C419 C418 1.360 1_655 S
C419 C420 1.419 . S
C419 C422 1.498 . S
C420 H400 0.950 . S
C420 C419 1.419 . S
C420 C421 1.374 . S
C421 H401 0.950 . S
C421 C417 1.368 1_655 S
C421 C420 1.374 . S
C422 C419 1.498 . S
C422 C423 1.367 1_655 S
C422 C424 1.394 . S
C423 H402 0.950 . S
C423 C422 1.367 1_455 S
C423 C439 1.377 . S
C424 C422 1.394 . S
C424 C425 1.524 . S
C424 C438 1.377 . S
C425 C424 1.524 . S
C425 C426 1.397 . S
C425 C430 1.335 1_655 S
C426 H403 0.950 . S
C426 C425 1.397 . S
C426 C427 1.334 . S
C427 H404 0.950 . S
C427 C426 1.334 . S
C427 C428 1.287 . S
C428 C427 1.287 . S
C428 C429 1.524 . S
C428 H447 0.913 . S
C429 H405 0.950 1_655 S
C429 C428 1.524 . S
C429 C430 1.399 1_655 S
C430 H406 0.997 . S
C430 C425 1.335 1_455 S
C430 C429 1.399 1_455 S
C431 H407 0.951 . S
C431 C432 1.341 1_655 S
C431 C433 1.388 . S
C432 C431 1.341 1_455 S
C432 C436 1.411 . S
C433 H408 0.951 . S
C433 C431 1.388 . S
C433 C434 1.366 1_655 S
C434 C433 1.366 1_455 S
C434 C435 1.414 . S
C434 C437 1.499 . S
C435 H409 0.950 . S
C435 C434 1.414 . S
C435 C436 1.374 . S
C436 H410 0.950 . S
C436 C432 1.411 . S
C436 C435 1.374 . S
C437 C434 1.499 . S
C437 C438 1.373 1_455 S
C437 C439 1.389 . S
C438 H411 0.950 . S
C438 C424 1.377 . S
C438 C437 1.373 1_655 S
C439 C423 1.377 . S
C439 C437 1.389 . S
C439 C440 1.524 . S
C440 C439 1.524 . S
C440 C441 1.397 . S
C440 C445 1.372 . S
C441 H412 0.950 . S
C441 C440 1.397 . S
C441 C442 1.334 . S
C442 H413 0.950 . S
C442 C441 1.334 . S
C442 C443 1.287 . S
C443 C442 1.287 . S
C443 C444 1.524 . S
C443 H446 0.999 . S
C444 H414 0.943 1_455 S
C444 C443 1.524 . S
C444 C445 1.420 . S
C445 H415 0.937 1_455 S
C445 C440 1.372 . S
C445 C444 1.420 . S
H446 C443 0.999 . S
H447 C428 0.913 . S
H448 C466 0.951 . S
H449 C468 0.951 . S
H450 C470 0.950 . S
H451 C471 0.950 . S
H452 C473 0.950 1_554 S
H453 C476 0.950 . S
H454 C477 0.950 . S
H455 C479 0.950 . S
H456 C480 0.950 . S
H457 C481 0.951 . S
H458 C483 0.951 . S
H459 C485 0.950 . S
H460 C486 0.950 . S
H461 C488 0.950 . S
H462 C491 0.950 . S
H463 C492 0.950 . S
H464 C494 0.950 . S
H465 C495 0.950 . S
C466 H448 0.951 . S
C466 C467 1.360 1_545 S
C466 C468 1.388 . S
C467 C466 1.360 1_565 S
C467 C471 1.391 . S
C468 H449 0.951 . S
C468 C466 1.388 . S
C468 C469 1.373 . S
C469 C468 1.373 . S
C469 C470 1.406 1_545 S
C469 C472 1.499 . S
C470 H450 0.950 . S
C470 C469 1.406 1_565 S
C470 C471 1.374 . S
C471 H451 0.950 . S
C471 C467 1.391 . S
C471 C470 1.374 . S
C472 C469 1.499 . S
C472 C473 1.358 1_544 S
C472 C474 1.404 . S
C473 H452 0.950 1_556 S
C473 C472 1.358 1_566 S
C473 C489 1.377 . S
C474 C472 1.404 . S
C474 C475 1.524 . S
C474 C488 1.377 1_554 S
C475 C474 1.524 . S
C475 C476 1.397 . S
C475 C480 1.363 . S
C476 H453 0.950 . S
C476 C475 1.397 . S
C476 C477 1.334 . S
C477 H454 0.950 . S
C477 C476 1.334 . S
C477 C478 1.287 . S
C478 C477 1.287 . S
C478 C479 1.524 . S
C478 H497 0.913 . S
C479 H455 0.950 . S
C479 C478 1.524 . S
C479 C480 1.415 . S
C480 H456 0.950 . S
C480 C475 1.363 . S
C480 C479 1.415 . S
C481 H457 0.951 . S
C481 C482 1.376 . S
C481 C483 1.388 . S
C482 C481 1.376 . S
C482 C486 1.376 1_565 S
C483 H458 0.951 . S
C483 C481 1.388 . S
C483 C484 1.366 . S
C484 C483 1.366 . S
C484 C485 1.414 1_565 S
C484 C487 1.499 . S
C485 H459 0.950 . S
C485 C484 1.414 1_545 S
C485 C486 1.374 . S
C486 H460 0.950 . S
C486 C482 1.376 1_545 S
C486 C485 1.374 . S
C487 C484 1.499 . S
C487 C488 1.373 1_565 S
C487 C489 1.389 . S
C488 H461 0.950 . S
C488 C474 1.377 1_556 S
C488 C487 1.373 1_545 S
C489 C473 1.377 . S
C489 C487 1.389 . S
C489 C490 1.524 . S
C490 C489 1.524 . S
C490 C491 1.397 . S
C490 C495 1.363 . S
C491 H462 0.950 . S
C491 C490 1.397 . S
C491 C492 1.334 . S
C492 H463 0.950 . S
C492 C491 1.334 . S
C492 C493 1.287 . S
C493 C492 1.287 . S
C493 C494 1.524 . S
C493 H496 0.999 . S
C494 H464 0.950 . S
C494 C493 1.524 . S
C494 C495 1.415 . S
C495 H465 0.950 . S
C495 C490 1.363 . S
C495 C494 1.415 . S
H496 C493 0.999 . S
H497 C478 0.913 . S
H498 C516 0.951 . S
H499 C518 0.951 . S
H500 C520 0.950 . S
H501 C521 0.950 . S
H502 C523 0.950 1_554 S
H503 C526 0.950 . S
H504 C527 0.950 . S
H505 C529 0.950 . S
H506 C530 0.950 . S
H507 C531 0.951 . S
H508 C533 0.951 . S
H509 C535 0.950 . S
H510 C536 0.950 . S
H511 C538 0.950 . S
H512 C541 0.950 . S
H513 C542 0.950 . S
H514 C544 0.950 . S
H515 C545 0.950 . S
C516 H498 0.951 . S
C516 C517 1.366 . S
C516 C518 1.388 . S
C517 C516 1.366 . S
C517 C521 1.385 . S
C518 H499 0.951 . S
C518 C516 1.388 . S
C518 C519 1.366 . S
C519 C518 1.366 . S
C519 C520 1.414 . S
C519 C522 1.499 . S
C520 H500 0.950 . S
C520 C519 1.414 . S
C520 C521 1.374 . S
C521 H501 0.950 . S
C521 C517 1.385 . S
C521 C520 1.374 . S
C522 C519 1.499 . S
C522 C523 1.373 1_554 S
C522 C524 1.389 . S
C523 H502 0.950 1_556 S
C523 C522 1.373 1_556 S
C523 C539 1.377 . S
C524 C522 1.389 . S
C524 C525 1.524 . S
C524 C538 1.377 1_554 S
C525 C524 1.524 . S
C525 C526 1.397 . S
C525 C530 1.363 . S
C526 H503 0.950 . S
C526 C525 1.397 . S
C526 C527 1.334 . S
C527 H504 0.950 . S
C527 C526 1.334 . S
C527 C528 1.287 . S
C528 C527 1.287 . S
C528 C529 1.524 . S
C528 H547 0.913 . S
C529 H505 0.950 . S
C529 C528 1.524 . S
C529 C530 1.415 . S
C530 H506 0.950 . S
C530 C525 1.363 . S
C530 C529 1.415 . S
C531 H507 0.951 . S
C531 C532 1.366 . S
C531 C533 1.388 . S
C532 C531 1.366 . S
C532 C536 1.385 . S
C533 H508 0.951 . S
C533 C531 1.388 . S
C533 C534 1.366 . S
C534 C533 1.366 . S
C534 C535 1.414 . S
C534 C537 1.499 . S
C535 H509 0.950 . S
C535 C534 1.414 . S
C535 C536 1.374 . S
C536 H510 0.950 . S
C536 C532 1.385 . S
C536 C535 1.374 . S
C537 C534 1.499 . S
C537 C538 1.373 . S
C537 C539 1.389 . S
C538 H511 0.950 . S
C538 C524 1.377 1_556 S
C538 C537 1.373 . S
C539 C523 1.377 . S
C539 C537 1.389 . S
C539 C540 1.524 . S
C540 C539 1.524 . S
C540 C541 1.397 . S
C540 C545 1.363 . S
C541 H512 0.950 . S
C541 C540 1.397 . S
C541 C542 1.334 . S
C542 H513 0.950 . S
C542 C541 1.334 . S
C542 C543 1.287 . S
C543 C542 1.287 . S
C543 C544 1.524 . S
C543 H546 0.999 . S
C544 H514 0.950 . S
C544 C543 1.524 . S
C544 C545 1.415 . S
C545 H515 0.950 . S
C545 C540 1.363 . S
C545 C544 1.415 . S
H546 C543 0.999 . S
H547 C528 0.913 . S
H548 C566 0.951 . S
H549 C568 0.951 . S
H550 C570 0.950 . S
H551 C571 0.950 . S
H552 C573 0.950 . S
H553 C576 0.950 . S
H554 C577 0.950 . S
H555 C579 0.950 . S
H556 C580 0.950 . S
H557 C581 0.951 . S
H558 C583 0.951 . S
H559 C585 0.950 . S
H560 C586 0.950 . S
H561 C588 0.950 . S
H562 C591 0.950 . S
H563 C592 0.950 . S
H564 C594 0.950 . S
H565 C595 0.950 . S
C566 H548 0.951 . S
C566 C567 1.366 . S
C566 C568 1.388 . S
C567 C566 1.366 . S
C567 C571 1.385 . S
C568 H549 0.951 . S
C568 C566 1.388 . S
C568 C569 1.366 . S
C569 C568 1.366 . S
C569 C570 1.414 . S
C569 C572 1.499 . S
C570 H550 0.950 . S
C570 C569 1.414 . S
C570 C571 1.374 . S
C571 H551 0.950 . S
C571 C567 1.385 . S
C571 C570 1.374 . S
C572 C569 1.499 . S
C572 C573 1.373 . S
C572 C574 1.389 1_554 S
C573 H552 0.950 . S
C573 C572 1.373 . S
C573 C589 1.377 1_554 S
C574 C572 1.389 1_556 S
C574 C575 1.524 . S
C574 C588 1.377 . S
C575 C574 1.524 . S
C575 C576 1.397 1_556 S
C575 C580 1.363 . S
C576 H553 0.950 . S
C576 C575 1.397 1_554 S
C576 C577 1.334 . S
C577 H554 0.950 . S
C577 C576 1.334 . S
C577 C578 1.287 1_554 S
C578 C577 1.287 1_556 S
C578 C579 1.524 . S
C578 H597 0.913 . S
C579 H555 0.950 . S
C579 C578 1.524 . S
C579 C580 1.415 . S
C580 H556 0.950 . S
C580 C575 1.363 . S
C580 C579 1.415 . S
C581 H557 0.951 . S
C581 C582 1.366 . S
C581 C583 1.388 . S
C582 C581 1.366 . S
C582 C586 1.385 . S
C583 H558 0.951 . S
C583 C581 1.388 . S
C583 C584 1.366 . S
C584 C583 1.366 . S
C584 C585 1.414 . S
C584 C587 1.499 . S
C585 H559 0.950 . S
C585 C584 1.414 . S
C585 C586 1.374 . S
C586 H560 0.950 . S
C586 C582 1.385 . S
C586 C585 1.374 . S
C587 C584 1.499 . S
C587 C588 1.373 . S
C587 C589 1.389 . S
C588 H561 0.950 . S
C588 C574 1.377 . S
C588 C587 1.373 . S
C589 C573 1.377 1_556 S
C589 C587 1.389 . S
C589 C590 1.524 1_556 S
C590 C589 1.524 1_554 S
C590 C591 1.397 1_554 S
C590 C595 1.363 . S
C591 H562 0.950 . S
C591 C590 1.397 1_556 S
C591 C592 1.334 . S
C592 H563 0.950 . S
C592 C591 1.334 . S
C592 C593 1.287 1_556 S
C593 C592 1.287 1_554 S
C593 C594 1.524 . S
C593 H596 0.999 . S
C594 H564 0.950 . S
C594 C593 1.524 . S
C594 C595 1.415 . S
C595 H565 0.950 . S
C595 C590 1.363 . S
C595 C594 1.415 . S
H596 C593 0.999 . S
H597 C578 0.913 . S
H598 C616 0.951 . S
H599 C618 0.951 . S
H600 C620 0.950 . S
H601 C621 0.950 . S
H602 C623 0.950 . S
H603 C626 0.950 1_655 S
H604 C627 0.950 . S
H605 C629 0.950 . S
H606 C630 0.950 . S
H607 C631 0.951 . S
H608 C633 0.951 . S
H609 C635 0.950 . S
H610 C636 0.950 . S
H611 C638 0.950 . S
H612 C641 0.950 1_455 S
H613 C642 0.950 . S
H614 C644 0.950 . S
H615 C645 0.950 . S
C616 H598 0.951 . S
C616 C617 1.350 1_455 S
C616 C618 1.388 . S
C617 C616 1.350 1_655 S
C617 C621 1.400 . S
C618 H599 0.951 . S
C618 C616 1.388 . S
C618 C619 1.333 1_455 S
C619 C618 1.333 1_655 S
C619 C620 1.446 . S
C619 C622 1.500 . S
C620 H600 0.950 . S
C620 C619 1.446 . S
C620 C621 1.374 . S
C621 H601 0.950 . S
C621 C617 1.400 . S
C621 C620 1.374 . S
C622 C619 1.500 . S
C622 C623 1.373 . S
C622 C624 1.389 1_654 S
C623 H602 0.950 . S
C623 C622 1.373 . S
C623 C639 1.377 . S
C624 C622 1.389 1_456 S
C624 C625 1.524 . S
C624 C638 1.377 . S
C625 C624 1.524 . S
C625 C626 1.397 . S
C625 C630 1.363 . S
C626 H603 0.950 1_455 S
C626 C625 1.397 . S
C626 C627 1.334 . S
C627 H604 0.950 . S
C627 C626 1.334 . S
C627 C628 1.287 . S
C628 C627 1.287 . S
C628 C629 1.524 . S
C628 H647 0.913 . S
C629 H605 0.950 . S
C629 C628 1.524 . S
C629 C630 1.415 . S
C630 H606 0.950 . S
C630 C625 1.363 . S
C630 C629 1.415 . S
C631 H607 0.951 . S
C631 C632 1.398 . S
C631 C633 1.388 . S
C632 C631 1.398 . S
C632 C636 1.352 1_655 S
C633 H608 0.951 . S
C633 C631 1.388 . S
C633 C634 1.381 . S
C634 C633 1.381 . S
C634 C635 1.399 1_655 S
C634 C637 1.498 1_655 S
C635 H609 0.950 . S
C635 C634 1.399 1_455 S
C635 C636 1.374 . S
C636 H610 0.950 . S
C636 C632 1.352 1_455 S
C636 C635 1.374 . S
C637 C634 1.498 1_455 S
C637 C638 1.378 . S
C637 C639 1.384 1_456 S
C638 H611 0.950 . S
C638 C624 1.377 . S
C638 C637 1.378 . S
C639 C623 1.377 . S
C639 C637 1.384 1_654 S
C639 C640 1.524 . S
C640 C639 1.524 . S
C640 C641 1.397 . S
C640 C645 1.363 . S
C641 H612 0.950 1_655 S
C641 C640 1.397 . S
C641 C642 1.334 . S
C642 H613 0.950 . S
C642 C641 1.334 . S
C642 C643 1.287 . S
C643 C642 1.287 . S
C643 C644 1.524 . S
C643 H646 0.999 . S
C644 H614 0.950 . S
C644 C643 1.524 . S
C644 C645 1.415 . S
C645 H615 0.950 . S
C645 C640 1.363 . S
C645 C644 1.415 . S
H646 C643 0.999 . S
H647 C628 0.913 . S
H648 C666 0.951 . S
H649 C668 0.951 . S
H650 C670 0.950 . S
H651 C671 0.950 . S
H652 C673 0.950 . S
H653 C676 0.950 . S
H654 C677 0.950 . S
H655 C679 0.950 . S
H656 C680 0.950 . S
H657 C681 0.951 . S
H658 C683 0.951 . S
H659 C685 0.950 1_455 S
H660 C686 0.950 1_455 S
H661 C688 0.950 . S
H662 C691 0.950 1_455 S
H663 C692 0.950 1_455 S
H664 C694 0.950 . S
H665 C695 0.950 . S
C666 H648 0.951 . S
C666 C667 1.366 . S
C666 C668 1.388 . S
C667 C666 1.366 . S
C667 C671 1.385 1_455 S
C668 H649 0.951 . S
C668 C666 1.388 . S
C668 C669 1.366 1_455 S
C669 C668 1.366 1_655 S
C669 C670 1.414 . S
C669 C672 1.499 . S
C670 H650 0.950 . S
C670 C669 1.414 . S
C670 C671 1.374 . S
C671 H651 0.950 . S
C671 C667 1.385 1_655 S
C671 C670 1.374 . S
C672 C669 1.499 . S
C672 C673 1.373 . S
C672 C674 1.389 . S
C673 H652 0.950 . S
C673 C672 1.373 . S
C673 C689 1.377 . S
C674 C672 1.389 . S
C674 C675 1.524 . S
C674 C688 1.377 . S
C675 C674 1.524 . S
C675 C676 1.397 . S
C675 C680 1.363 1_655 S
C676 H653 0.950 . S
C676 C675 1.397 . S
C676 C677 1.334 . S
C677 H654 0.950 . S
C677 C676 1.334 . S
C677 C678 1.279 1_655 S
C678 C677 1.279 1_455 S
C678 C679 1.532 . S
C678 H697 0.915 1_554 S
C679 H655 0.950 . S
C679 C678 1.532 . S
C679 C680 1.415 . S
C680 H656 0.950 . S
C680 C675 1.363 1_455 S
C680 C679 1.415 . S
C681 H657 0.951 . S
C681 C682 1.366 . S
C681 C683 1.388 . S
C682 C681 1.366 . S
C682 C686 1.385 . S
C683 H658 0.951 . S
C683 C681 1.388 . S
C683 C684 1.366 . S
C684 C683 1.366 . S
C684 C685 1.414 . S
C684 C687 1.499 . S
C685 H659 0.950 1_655 S
C685 C684 1.414 . S
C685 C686 1.374 . S
C686 H660 0.950 1_655 S
C686 C682 1.385 . S
C686 C685 1.374 . S
C687 C684 1.499 . S
C687 C688 1.373 . S
C687 C689 1.389 . S
C688 H661 0.950 . S
C688 C674 1.377 . S
C688 C687 1.373 . S
C689 C673 1.377 . S
C689 C687 1.389 . S
C689 C690 1.524 . S
C690 C689 1.524 . S
C690 C691 1.397 . S
C690 C695 1.363 . S
C691 H662 0.950 1_655 S
C691 C690 1.397 . S
C691 C692 1.334 . S
C692 H663 0.950 1_655 S
C692 C691 1.334 . S
C692 C693 1.287 . S
C693 C692 1.287 . S
C693 C694 1.524 . S
C693 H696 0.999 . S
C694 H664 0.950 . S
C694 C693 1.524 . S
C694 C695 1.415 . S
C695 H665 0.950 . S
C695 C690 1.363 . S
C695 C694 1.415 . S
H696 C693 0.999 . S
H697 C678 0.915 1_556 S
H698 C716 0.951 . S
H699 C718 0.951 . S
H700 C720 0.949 . S
H701 C721 0.950 . S
H702 C723 0.950 . S
H703 C726 0.950 . S
H704 C727 0.950 . S
H705 C729 0.950 . S
H706 C730 0.950 . S
H707 C731 0.951 . S
H708 C733 0.951 . S
H709 C735 0.950 . S
H710 C736 0.950 . S
H711 C738 0.950 1_545 S
H712 C741 0.950 . S
H713 C742 0.950 . S
H714 C744 0.950 . S
H715 C745 0.950 . S
C716 H698 0.951 . S
C716 C717 1.366 1_565 S
C716 C718 1.388 . S
C717 C716 1.366 1_545 S
C717 C721 1.385 . S
C718 H699 0.951 . S
C718 C716 1.388 . S
C718 C719 1.366 . S
C719 C718 1.366 . S
C719 C720 1.411 1_565 S
C719 C722 1.499 . S
C720 H700 0.949 . S
C720 C719 1.411 1_545 S
C720 C721 1.376 . S
C721 H701 0.950 . S
C721 C717 1.385 . S
C721 C720 1.376 . S
C722 C719 1.499 . S
C722 C723 1.373 . S
C722 C724 1.389 1_565 S
C723 H702 0.950 . S
C723 C722 1.373 . S
C723 C739 1.377 . S
C724 C722 1.389 1_545 S
C724 C725 1.524 . S
C724 C738 1.377 1_545 S
C725 C724 1.524 . S
C725 C726 1.397 . S
C725 C730 1.363 . S
C726 H703 0.950 . S
C726 C725 1.397 . S
C726 C727 1.334 . S
C727 H704 0.950 . S
C727 C726 1.334 . S
C727 C728 1.287 . S
C728 C727 1.287 . S
C728 C729 1.524 . S
C728 H747 0.913 . S
C729 H705 0.950 . S
C729 C728 1.524 . S
C729 C730 1.415 . S
C730 H706 0.950 . S
C730 C725 1.363 . S
C730 C729 1.415 . S
C731 H707 0.951 . S
C731 C732 1.366 . S
C731 C733 1.388 . S
C732 C731 1.366 . S
C732 C736 1.385 . S
C733 H708 0.951 . S
C733 C731 1.388 . S
C733 C734 1.366 . S
C734 C733 1.366 . S
C734 C735 1.414 . S
C734 C737 1.499 . S
C735 H709 0.950 . S
C735 C734 1.414 . S
C735 C736 1.374 . S
C736 H710 0.950 . S
C736 C732 1.385 . S
C736 C735 1.374 . S
C737 C734 1.499 . S
C737 C738 1.373 . S
C737 C739 1.389 . S
C738 H711 0.950 1_565 S
C738 C724 1.377 1_565 S
C738 C737 1.373 . S
C739 C723 1.377 . S
C739 C737 1.389 . S
C739 C740 1.524 . S
C740 C739 1.524 . S
C740 C741 1.397 . S
C740 C745 1.363 . S
C741 H712 0.950 . S
C741 C740 1.397 . S
C741 C742 1.334 . S
C742 H713 0.950 . S
C742 C741 1.334 . S
C742 C743 1.287 . S
C743 C742 1.287 . S
C743 C744 1.524 . S
C743 H746 0.999 . S
C744 H714 0.950 . S
C744 C743 1.524 . S
C744 C745 1.415 . S
C745 H715 0.950 . S
C745 C740 1.363 . S
C745 C744 1.415 . S
H746 C743 0.999 . S
H747 C728 0.913 . S
H748 C766 0.951 . S
H749 C768 0.951 . S
H750 C770 0.950 . S
H751 C771 0.950 . S
H752 C773 0.950 . S
H753 C776 0.950 . S
H754 C777 0.950 . S
H755 C779 0.950 . S
H756 C780 0.950 . S
H757 C781 0.951 . S
H758 C783 0.951 . S
H759 C785 0.950 . S
H760 C786 0.950 . S
H761 C788 0.950 . S
H762 C791 0.950 . S
H763 C792 0.950 . S
H764 C794 0.950 . S
H765 C795 0.950 . S
C766 H748 0.951 . S
C766 C767 1.366 . S
C766 C768 1.388 . S
C767 C766 1.366 . S
C767 C771 1.385 . S
C768 H749 0.951 . S
C768 C766 1.388 . S
C768 C769 1.366 . S
C769 C768 1.366 . S
C769 C770 1.414 . S
C769 C772 1.499 . S
C770 H750 0.950 . S
C770 C769 1.414 . S
C770 C771 1.374 . S
C771 H751 0.950 . S
C771 C767 1.385 . S
C771 C770 1.374 . S
C772 C769 1.499 . S
C772 C773 1.373 . S
C772 C774 1.389 . S
C773 H752 0.950 . S
C773 C772 1.373 . S
C773 C789 1.377 . S
C774 C772 1.389 . S
C774 C775 1.524 . S
C774 C788 1.377 . S
C775 C774 1.524 . S
C775 C776 1.397 . S
C775 C780 1.363 . S
C776 H753 0.950 . S
C776 C775 1.397 . S
C776 C777 1.334 . S
C777 H754 0.950 . S
C777 C776 1.334 . S
C777 C778 1.287 . S
C778 C777 1.287 . S
C778 C779 1.524 . S
C778 H797 0.913 . S
C779 H755 0.950 . S
C779 C778 1.524 . S
C779 C780 1.415 . S
C780 H756 0.950 . S
C780 C775 1.363 . S
C780 C779 1.415 . S
C781 H757 0.951 . S
C781 C782 1.366 . S
C781 C783 1.388 . S
C782 C781 1.366 . S
C782 C786 1.385 . S
C783 H758 0.951 . S
C783 C781 1.388 . S
C783 C784 1.366 . S
C784 C783 1.366 . S
C784 C785 1.414 . S
C784 C787 1.499 . S
C785 H759 0.950 . S
C785 C784 1.414 . S
C785 C786 1.374 . S
C786 H760 0.950 . S
C786 C782 1.385 . S
C786 C785 1.374 . S
C787 C784 1.499 . S
C787 C788 1.373 . S
C787 C789 1.389 . S
C788 H761 0.950 . S
C788 C774 1.377 . S
C788 C787 1.373 . S
C789 C773 1.377 . S
C789 C787 1.389 . S
C789 C790 1.524 . S
C790 C789 1.524 . S
C790 C791 1.397 . S
C790 C795 1.363 . S
C791 H762 0.950 . S
C791 C790 1.397 . S
C791 C792 1.334 . S
C792 H763 0.950 . S
C792 C791 1.334 . S
C792 C793 1.287 . S
C793 C792 1.287 . S
C793 C794 1.524 . S
C793 H796 0.999 . S
C794 H764 0.950 . S
C794 C793 1.524 . S
C794 C795 1.415 . S
C795 H765 0.950 . S
C795 C790 1.363 . S
C795 C794 1.415 . S
H796 C793 0.999 . S
H797 C778 0.913 . S
H798 C816 0.951 . S
H799 C818 0.951 . S
H800 C820 0.950 . S
H801 C821 0.950 . S
H802 C823 0.950 . S
H803 C826 0.950 . S
H804 C827 0.950 . S
H805 C829 0.950 . S
H806 C830 0.950 . S
H807 C831 0.951 . S
H808 C833 0.951 . S
H809 C835 0.950 . S
H810 C836 0.950 . S
H811 C838 0.950 . S
H812 C841 0.950 . S
H813 C842 0.950 . S
H814 C844 0.950 . S
H815 C845 0.950 . S
C816 H798 0.951 . S
C816 C817 1.366 . S
C816 C818 1.388 . S
C817 C816 1.366 . S
C817 C821 1.385 . S
C818 H799 0.951 . S
C818 C816 1.388 . S
C818 C819 1.366 . S
C819 C818 1.366 . S
C819 C820 1.414 . S
C819 C822 1.499 . S
C820 H800 0.950 . S
C820 C819 1.414 . S
C820 C821 1.374 . S
C821 H801 0.950 . S
C821 C817 1.385 . S
C821 C820 1.374 . S
C822 C819 1.499 . S
C822 C823 1.373 . S
C822 C824 1.389 . S
C823 H802 0.950 . S
C823 C822 1.373 . S
C823 C839 1.377 . S
C824 C822 1.389 . S
C824 C825 1.524 . S
C824 C838 1.377 . S
C825 C824 1.524 . S
C825 C826 1.397 . S
C825 C830 1.363 . S
C826 H803 0.950 . S
C826 C825 1.397 . S
C826 C827 1.334 . S
C827 H804 0.950 . S
C827 C826 1.334 . S
C827 C828 1.287 . S
C828 C827 1.287 . S
C828 C829 1.524 . S
C828 H847 0.913 . S
C829 H805 0.950 . S
C829 C828 1.524 . S
C829 C830 1.415 . S
C830 H806 0.950 . S
C830 C825 1.363 . S
C830 C829 1.415 . S
C831 H807 0.951 . S
C831 C832 1.366 . S
C831 C833 1.388 . S
C832 C831 1.366 . S
C832 C836 1.385 . S
C833 H808 0.951 . S
C833 C831 1.388 . S
C833 C834 1.366 . S
C834 C833 1.366 . S
C834 C835 1.414 . S
C834 C837 1.499 . S
C835 H809 0.950 . S
C835 C834 1.414 . S
C835 C836 1.374 . S
C836 H810 0.950 . S
C836 C832 1.385 . S
C836 C835 1.374 . S
C837 C834 1.499 . S
C837 C838 1.373 . S
C837 C839 1.389 . S
C838 H811 0.950 . S
C838 C824 1.377 . S
C838 C837 1.373 . S
C839 C823 1.377 . S
C839 C837 1.389 . S
C839 C840 1.524 . S
C840 C839 1.524 . S
C840 C841 1.397 . S
C840 C845 1.363 . S
C841 H812 0.950 . S
C841 C840 1.397 . S
C841 C842 1.334 . S
C842 H813 0.950 . S
C842 C841 1.334 . S
C842 C843 1.287 . S
C843 C842 1.287 . S
C843 C844 1.524 . S
C843 H846 0.999 . S
C844 H814 0.950 . S
C844 C843 1.524 . S
C844 C845 1.415 . S
C845 H815 0.950 . S
C845 C840 1.363 . S
C845 C844 1.415 . S
H846 C843 0.999 . S
H847 C828 0.913 . S
H848 C866 0.951 . S
H849 C868 0.951 . S
H850 C870 0.950 . S
H851 C871 0.950 . S
H852 C873 0.950 . S
H853 C876 0.950 . S
H854 C877 0.950 . S
H855 C879 0.950 . S
H856 C880 0.950 . S
H857 C881 0.948 . S
H858 C883 0.951 1_655 S
H859 C885 0.950 . S
H860 C886 0.950 . S
H861 C888 0.950 . S
H862 C891 0.950 . S
H863 C892 0.950 . S
H864 C894 0.948 . S
H865 C895 0.950 1_655 S
C866 H848 0.951 . S
C866 C867 1.366 1_455 S
C866 C868 1.388 . S
C867 C866 1.366 1_655 S
C867 C871 1.385 . S
C868 H849 0.951 . S
C868 C866 1.388 . S
C868 C869 1.366 . S
C869 C868 1.366 . S
C869 C870 1.414 1_455 S
C869 C872 1.499 . S
C870 H850 0.950 . S
C870 C869 1.414 1_655 S
C870 C871 1.374 . S
C871 H851 0.950 . S
C871 C867 1.385 . S
C871 C870 1.374 . S
C872 C869 1.499 . S
C872 C873 1.373 . S
C872 C874 1.389 . S
C873 H852 0.950 . S
C873 C872 1.373 . S
C873 C889 1.377 1_554 S
C874 C872 1.389 . S
C874 C875 1.524 . S
C874 C888 1.377 . S
C875 C874 1.524 . S
C875 C876 1.397 1_455 S
C875 C880 1.363 . S
C876 H853 0.950 . S
C876 C875 1.397 1_655 S
C876 C877 1.334 . S
C877 H854 0.950 . S
C877 C876 1.334 . S
C877 C878 1.287 . S
C878 C877 1.287 . S
C878 C879 1.524 1_655 S
C878 H897 0.913 . S
C879 H855 0.950 . S
C879 C878 1.524 1_455 S
C879 C880 1.415 . S
C880 H856 0.950 . S
C880 C875 1.363 . S
C880 C879 1.415 . S
C881 H857 0.948 . S
C881 C882 1.366 . S
C881 C883 1.388 . S
C882 C881 1.366 . S
C882 C886 1.385 . S
C883 H858 0.951 1_455 S
C883 C881 1.388 . S
C883 C884 1.366 . S
C884 C883 1.366 . S
C884 C885 1.414 1_556 S
C884 C887 1.499 1_556 S
C885 H859 0.950 . S
C885 C884 1.414 1_554 S
C885 C886 1.374 1_554 S
C886 H860 0.950 . S
C886 C882 1.385 . S
C886 C885 1.374 1_556 S
C887 C884 1.499 1_554 S
C887 C888 1.373 . S
C887 C889 1.389 1_554 S
C888 H861 0.950 . S
C888 C874 1.377 . S
C888 C887 1.373 . S
C889 C873 1.377 1_556 S
C889 C887 1.389 1_556 S
C889 C890 1.524 . S
C890 C889 1.524 . S
C890 C891 1.397 . S
C890 C895 1.363 . S
C891 H862 0.950 . S
C891 C890 1.397 . S
C891 C892 1.334 . S
C892 H863 0.950 . S
C892 C891 1.334 . S
C892 C893 1.287 . S
C893 C892 1.287 . S
C893 C894 1.524 . S
C893 H896 0.999 . S
C894 H864 0.948 . S
C894 C893 1.524 . S
C894 C895 1.415 . S
C895 H865 0.950 1_455 S
C895 C890 1.363 . S
C895 C894 1.415 . S
H896 C893 0.999 . S
H897 C878 0.913 . S
H898 C916 0.951 . S
H899 C918 0.951 . S
H900 C920 0.950 . S
H901 C921 0.950 . S
H902 C923 0.950 . S
H903 C926 0.950 . S
H904 C927 0.950 . S
H905 C929 0.950 . S
H906 C930 0.950 . S
H907 C931 0.951 . S
H908 C933 0.951 . S
H909 C935 0.950 . S
H910 C936 0.950 1_554 S
H911 C938 0.950 1_565 S
H912 C941 0.950 . S
H913 C942 0.950 . S
H914 C944 0.950 . S
H915 C945 0.950 . S
C916 H898 0.951 . S
C916 C917 1.366 1_545 S
C916 C918 1.388 . S
C917 C916 1.366 1_565 S
C917 C921 1.385 . S
C918 H899 0.951 . S
C918 C916 1.388 . S
C918 C919 1.366 . S
C919 C918 1.366 . S
C919 C920 1.414 1_545 S
C919 C922 1.499 . S
C920 H900 0.950 . S
C920 C919 1.414 1_565 S
C920 C921 1.374 . S
C921 H901 0.950 . S
C921 C917 1.385 . S
C921 C920 1.374 . S
C922 C919 1.499 . S
C922 C923 1.373 . S
C922 C924 1.389 1_545 S
C923 H902 0.950 . S
C923 C922 1.373 . S
C923 C939 1.377 . S
C924 C922 1.389 1_565 S
C924 C925 1.524 . S
C924 C938 1.377 1_565 S
C925 C924 1.524 . S
C925 C926 1.397 . S
C925 C930 1.363 . S
C926 H903 0.950 . S
C926 C925 1.397 . S
C926 C927 1.334 . S
C927 H904 0.950 . S
C927 C926 1.334 . S
C927 C928 1.287 . S
C928 C927 1.287 . S
C928 C929 1.524 . S
C928 H947 0.913 . S
C929 H905 0.950 . S
C929 C928 1.524 . S
C929 C930 1.415 . S
C930 H906 0.950 . S
C930 C925 1.363 . S
C930 C929 1.415 . S
C931 H907 0.951 . S
C931 C932 1.366 . S
C931 C933 1.388 . S
C932 C931 1.366 . S
C932 C936 1.385 . S
C933 H908 0.951 . S
C933 C931 1.388 . S
C933 C934 1.366 . S
C934 C933 1.366 . S
C934 C935 1.414 1_556 S
C934 C937 1.499 1_556 S
C935 H909 0.950 . S
C935 C934 1.414 1_554 S
C935 C936 1.374 1_554 S
C936 H910 0.950 1_556 S
C936 C932 1.385 . S
C936 C935 1.374 1_556 S
C937 C934 1.499 1_554 S
C937 C938 1.373 . S
C937 C939 1.389 . S
C938 H911 0.950 1_545 S
C938 C924 1.377 1_545 S
C938 C937 1.373 . S
C939 C923 1.377 . S
C939 C937 1.389 . S
C939 C940 1.524 1_554 S
C940 C939 1.524 1_556 S
C940 C941 1.397 . S
C940 C945 1.363 . S
C941 H912 0.950 . S
C941 C940 1.397 . S
C941 C942 1.334 . S
C942 H913 0.950 . S
C942 C941 1.334 . S
C942 C943 1.287 . S
C943 C942 1.287 . S
C943 C944 1.524 . S
C943 H946 0.999 . S
C944 H914 0.950 . S
C944 C943 1.524 . S
C944 C945 1.415 . S
C945 H915 0.950 . S
C945 C940 1.363 . S
C945 C944 1.415 . S
H946 C943 0.999 . S
H947 C928 0.913 . S
H948 C966 0.951 . S
H949 C968 0.951 . S
H950 C970 0.950 . S
H951 C971 0.950 . S
H952 C973 0.950 . S
H953 C976 0.950 1_554 S
H954 C977 0.950 . S
H955 C979 0.950 . S
H956 C980 0.950 . S
H957 C981 0.951 . S
H958 C983 0.951 1_554 S
H959 C985 0.950 . S
H960 C986 0.950 . S
H961 C988 0.950 . S
H962 C991 0.950 . S
H963 C992 0.950 . S
H964 C994 0.950 . S
H965 C995 0.950 . S
C966 H948 0.951 . S
C966 C967 1.366 . S
C966 C968 1.388 . S
C967 C966 1.366 . S
C967 C971 1.385 . S
C968 H949 0.951 . S
C968 C966 1.388 . S
C968 C969 1.366 . S
C969 C968 1.366 . S
C969 C970 1.414 . S
C969 C972 1.499 . S
C970 H950 0.950 . S
C970 C969 1.414 . S
C970 C971 1.374 . S
C971 H951 0.950 . S
C971 C967 1.385 . S
C971 C970 1.374 . S
C972 C969 1.499 . S
C972 C973 1.373 . S
C972 C974 1.389 . S
C973 H952 0.950 . S
C973 C972 1.373 . S
C973 C989 1.377 . S
C974 C972 1.389 . S
C974 C975 1.524 1_554 S
C974 C988 1.377 1_554 S
C975 C974 1.524 1_556 S
C975 C976 1.397 . S
C975 C980 1.363 . S
C976 H953 0.950 1_556 S
C976 C975 1.397 . S
C976 C977 1.334 . S
C977 H954 0.950 . S
C977 C976 1.334 . S
C977 C978 1.287 . S
C978 C977 1.287 . S
C978 C979 1.524 . S
C978 H997 0.913 . S
C979 H955 0.950 . S
C979 C978 1.524 . S
C979 C980 1.415 . S
C980 H956 0.950 . S
C980 C975 1.363 . S
C980 C979 1.415 . S
C981 H957 0.951 . S
C981 C982 1.366 . S
C981 C983 1.388 . S
C982 C981 1.366 . S
C982 C986 1.385 . S
C983 H958 0.951 1_556 S
C983 C981 1.388 . S
C983 C984 1.366 . S
C984 C983 1.366 . S
C984 C985 1.414 . S
C984 C987 1.499 1_556 S
C985 H959 0.950 . S
C985 C984 1.414 . S
C985 C986 1.374 . S
C986 H960 0.950 . S
C986 C982 1.385 . S
C986 C985 1.374 . S
C987 C984 1.499 1_554 S
C987 C988 1.373 1_554 S
C987 C989 1.389 . S
C988 H961 0.950 . S
C988 C974 1.377 1_556 S
C988 C987 1.373 1_556 S
C989 C973 1.377 . S
C989 C987 1.389 . S
C989 C990 1.524 . S
C990 C989 1.524 . S
C990 C991 1.397 . S
C990 C995 1.363 . S
C991 H962 0.950 . S
C991 C990 1.397 . S
C991 C992 1.334 . S
C992 H963 0.950 . S
C992 C991 1.334 . S
C992 C993 1.287 . S
C993 C992 1.287 . S
C993 C994 1.524 . S
C993 H996 0.999 . S
C994 H964 0.950 . S
C994 C993 1.524 . S
C994 C995 1.415 . S
C995 H965 0.950 . S
C995 C990 1.363 . S
C995 C994 1.415 . S
H996 C993 0.999 . S
H997 C978 0.913 . S
H998 C1016 0.951 . S
H999 C1018 0.951 . S
H1000 C1020 0.950 . S
H1001 C1021 0.950 . S
H1002 C1023 0.950 . S
H1003 C1026 0.950 . S
H1004 C1027 0.950 . S
H1005 C1029 0.950 . S
H1006 C1030 0.950 . S
H1007 C1031 0.951 . S
H1008 C1033 0.951 1_554 S
H1009 C1035 0.950 . S
H1010 C1036 0.950 . S
H1011 C1038 0.950 . S
H1012 C1041 0.950 . S
H1013 C1042 0.950 . S
H1014 C1044 0.950 1_554 S
H1015 C1045 0.950 . S
C1016 H998 0.951 . S
C1016 C1017 1.366 . S
C1016 C1018 1.388 . S
C1017 C1016 1.366 . S
C1017 C1021 1.385 . S
C1018 H999 0.951 . S
C1018 C1016 1.388 . S
C1018 C1019 1.366 . S
C1019 C1018 1.366 . S
C1019 C1020 1.414 . S
C1019 C1022 1.499 . S
C1020 H1000 0.950 . S
C1020 C1019 1.414 . S
C1020 C1021 1.374 . S
C1021 H1001 0.950 . S
C1021 C1017 1.385 . S
C1021 C1020 1.374 . S
C1022 C1019 1.499 . S
C1022 C1023 1.373 . S
C1022 C1024 1.389 . S
C1023 H1002 0.950 . S
C1023 C1022 1.373 . S
C1023 C1039 1.377 . S
C1024 C1022 1.389 . S
C1024 C1025 1.524 . S
C1024 C1038 1.377 . S
C1025 C1024 1.524 . S
C1025 C1026 1.397 . S
C1025 C1030 1.363 . S
C1026 H1003 0.950 . S
C1026 C1025 1.397 . S
C1026 C1027 1.334 . S
C1027 H1004 0.950 . S
C1027 C1026 1.334 . S
C1027 C1028 1.287 . S
C1028 C1027 1.287 . S
C1028 C1029 1.524 . S
C1028 H1047 0.913 . S
C1029 H1005 0.950 . S
C1029 C1028 1.524 . S
C1029 C1030 1.415 . S
C1030 H1006 0.950 . S
C1030 C1025 1.363 . S
C1030 C1029 1.415 . S
C1031 H1007 0.951 . S
C1031 C1032 1.366 . S
C1031 C1033 1.388 . S
C1032 C1031 1.366 . S
C1032 C1036 1.385 . S
C1033 H1008 0.951 1_556 S
C1033 C1031 1.388 . S
C1033 C1034 1.366 . S
C1034 C1033 1.366 . S
C1034 C1035 1.414 . S
C1034 C1037 1.499 1_556 S
C1035 H1009 0.950 . S
C1035 C1034 1.414 . S
C1035 C1036 1.374 . S
C1036 H1010 0.950 . S
C1036 C1032 1.385 . S
C1036 C1035 1.374 . S
C1037 C1034 1.499 1_554 S
C1037 C1038 1.373 . S
C1037 C1039 1.389 . S
C1038 H1011 0.950 . S
C1038 C1024 1.377 . S
C1038 C1037 1.373 . S
C1039 C1023 1.377 . S
C1039 C1037 1.389 . S
C1039 C1040 1.524 1_554 S
C1040 C1039 1.524 1_556 S
C1040 C1041 1.397 . S
C1040 C1045 1.363 1_556 S
C1041 H1012 0.950 . S
C1041 C1040 1.397 . S
C1041 C1042 1.334 . S
C1042 H1013 0.950 . S
C1042 C1041 1.334 . S
C1042 C1043 1.287 . S
C1043 C1042 1.287 . S
C1043 C1044 1.524 . S
C1043 H1046 0.999 . S
C1044 H1014 0.950 1_556 S
C1044 C1043 1.524 . S
C1044 C1045 1.415 1_556 S
C1045 H1015 0.950 . S
C1045 C1040 1.363 1_554 S
C1045 C1044 1.415 1_554 S
H1046 C1043 0.999 . S
H1047 C1028 0.913 . S
H1048 C1066 0.951 . S
H1049 C1068 0.951 . S
H1050 C1070 0.950 . S
H1051 C1071 0.950 . S
H1052 C1073 0.950 . S
H1053 C1076 0.950 . S
H1054 C1077 0.950 . S
H1055 C1079 0.950 . S
H1056 C1080 0.950 . S
H1057 C1081 0.951 . S
H1058 C1083 0.951 . S
H1059 C1085 0.950 . S
H1060 C1086 0.952 . S
H1061 C1088 0.950 . S
H1062 C1091 0.950 . S
H1063 C1092 0.950 . S
H1064 C1094 0.950 . S
H1065 C1095 0.955 1_455 S
C1066 H1048 0.951 . S
C1066 C1067 1.366 1_655 S
C1066 C1068 1.388 . S
C1067 C1066 1.366 1_455 S
C1067 C1071 1.385 . S
C1068 H1049 0.951 . S
C1068 C1066 1.388 . S
C1068 C1069 1.366 1_655 S
C1069 C1068 1.366 1_455 S
C1069 C1070 1.414 . S
C1069 C1072 1.499 . S
C1070 H1050 0.950 . S
C1070 C1069 1.414 . S
C1070 C1071 1.374 . S
C1071 H1051 0.950 . S
C1071 C1067 1.385 . S
C1071 C1070 1.374 . S
C1072 C1069 1.499 . S
C1072 C1073 1.373 1_455 S
C1072 C1074 1.389 . S
C1073 H1052 0.950 . S
C1073 C1072 1.373 1_655 S
C1073 C1089 1.377 . S
C1074 C1072 1.389 . S
C1074 C1075 1.524 . S
C1074 C1088 1.377 . S
C1075 C1074 1.524 . S
C1075 C1076 1.397 . S
C1075 C1080 1.363 . S
C1076 H1053 0.950 . S
C1076 C1075 1.397 . S
C1076 C1077 1.334 . S
C1077 H1054 0.950 . S
C1077 C1076 1.334 . S
C1077 C1078 1.287 1_556 S
C1078 C1077 1.287 1_554 S
C1078 C1079 1.524 . S
C1078 H1097 0.913 . S
C1079 H1055 0.950 . S
C1079 C1078 1.524 . S
C1079 C1080 1.415 1_554 S
C1080 H1056 0.950 . S
C1080 C1075 1.363 . S
C1080 C1079 1.415 1_556 S
C1081 H1057 0.951 . S
C1081 C1082 1.366 . S
C1081 C1083 1.388 . S
C1082 C1081 1.366 . S
C1082 C1086 1.382 1_455 S
C1083 H1058 0.951 . S
C1083 C1081 1.388 . S
C1083 C1084 1.366 . S
C1084 C1083 1.366 . S
C1084 C1085 1.414 1_455 S
C1084 C1087 1.499 . S
C1085 H1059 0.950 . S
C1085 C1084 1.414 1_655 S
C1085 C1086 1.374 . S
C1086 H1060 0.952 . S
C1086 C1082 1.382 1_655 S
C1086 C1085 1.374 . S
C1087 C1084 1.499 . S
C1087 C1088 1.373 . S
C1087 C1089 1.389 1_455 S
C1088 H1061 0.950 . S
C1088 C1074 1.377 . S
C1088 C1087 1.373 . S
C1089 C1073 1.377 . S
C1089 C1087 1.389 1_655 S
C1089 C1090 1.524 . S
C1090 C1089 1.524 . S
C1090 C1091 1.397 . S
C1090 C1095 1.363 . S
C1091 H1062 0.950 . S
C1091 C1090 1.397 . S
C1091 C1092 1.334 . S
C1092 H1063 0.950 . S
C1092 C1091 1.334 . S
C1092 C1093 1.287 . S
C1093 C1092 1.287 . S
C1093 C1094 1.524 . S
C1093 H1096 0.999 . S
C1094 H1064 0.950 . S
C1094 C1093 1.524 . S
C1094 C1095 1.415 . S
C1095 H1065 0.955 1_655 S
C1095 C1090 1.363 . S
C1095 C1094 1.415 . S
H1096 C1093 0.999 . S
H1097 C1078 0.913 . S
H1098 C1116 0.951 . S
H1099 C1118 0.951 . S
H1100 C1120 0.950 . S
H1101 C1121 0.950 . S
H1102 C1123 0.950 . S
H1103 C1126 0.950 . S
H1104 C1127 0.950 1_554 S
H1105 C1129 0.950 . S
H1106 C1130 0.950 . S
H1107 C1131 0.951 . S
H1108 C1133 0.951 . S
H1109 C1135 0.950 . S
H1110 C1136 0.950 . S
H1111 C1138 0.950 . S
H1112 C1141 0.950 . S
H1113 C1142 0.950 . S
H1114 C1144 0.950 . S
H1115 C1145 0.950 . S
C1116 H1098 0.951 . S
C1116 C1117 1.366 1_565 S
C1116 C1118 1.388 . S
C1117 C1116 1.366 1_545 S
C1117 C1121 1.385 . S
C1118 H1099 0.951 . S
C1118 C1116 1.388 . S
C1118 C1119 1.366 1_565 S
C1119 C1118 1.366 1_545 S
C1119 C1120 1.414 . S
C1119 C1122 1.499 . S
C1120 H1100 0.950 . S
C1120 C1119 1.414 . S
C1120 C1121 1.374 . S
C1121 H1101 0.950 . S
C1121 C1117 1.385 . S
C1121 C1120 1.374 . S
C1122 C1119 1.499 . S
C1122 C1123 1.373 . S
C1122 C1124 1.389 1_545 S
C1123 H1102 0.950 . S
C1123 C1122 1.373 . S
C1123 C1139 1.377 . S
C1124 C1122 1.389 1_565 S
C1124 C1125 1.524 . S
C1124 C1138 1.377 . S
C1125 C1124 1.524 . S
C1125 C1126 1.397 . S
C1125 C1130 1.363 . S
C1126 H1103 0.950 . S
C1126 C1125 1.397 . S
C1126 C1127 1.334 . S
C1127 H1104 0.950 1_556 S
C1127 C1126 1.334 . S
C1127 C1128 1.287 . S
C1128 C1127 1.287 . S
C1128 C1129 1.524 . S
C1128 H1147 0.913 . S
C1129 H1105 0.950 . S
C1129 C1128 1.524 . S
C1129 C1130 1.415 . S
C1130 H1106 0.950 . S
C1130 C1125 1.363 . S
C1130 C1129 1.415 . S
C1131 H1107 0.951 . S
C1131 C1132 1.366 . S
C1131 C1133 1.388 . S
C1132 C1131 1.366 . S
C1132 C1136 1.385 1_545 S
C1133 H1108 0.951 . S
C1133 C1131 1.388 . S
C1133 C1134 1.366 . S
C1134 C1133 1.366 . S
C1134 C1135 1.414 1_545 S
C1134 C1137 1.499 . S
C1135 H1109 0.950 . S
C1135 C1134 1.414 1_565 S
C1135 C1136 1.374 . S
C1136 H1110 0.950 . S
C1136 C1132 1.385 1_565 S
C1136 C1135 1.374 . S
C1137 C1134 1.499 . S
C1137 C1138 1.373 1_545 S
C1137 C1139 1.389 . S
C1138 H1111 0.950 . S
C1138 C1124 1.377 . S
C1138 C1137 1.373 1_565 S
C1139 C1123 1.377 . S
C1139 C1137 1.389 . S
C1139 C1140 1.524 . S
C1140 C1139 1.524 . S
C1140 C1141 1.397 . S
C1140 C1145 1.363 . S
C1141 H1112 0.950 . S
C1141 C1140 1.397 . S
C1141 C1142 1.334 . S
C1142 H1113 0.950 . S
C1142 C1141 1.334 . S
C1142 C1143 1.287 . S
C1143 C1142 1.287 . S
C1143 C1144 1.524 . S
C1143 H1146 0.999 . S
C1144 H1114 0.950 . S
C1144 C1143 1.524 . S
C1144 C1145 1.415 . S
C1145 H1115 0.950 . S
C1145 C1140 1.363 . S
C1145 C1144 1.415 . S
H1146 C1143 0.999 . S
H1147 C1128 0.913 . S
H1148 C1166 0.951 . S
H1149 C1168 0.951 . S
H1150 C1170 0.950 . S
H1151 C1171 0.950 . S
H1152 C1173 0.950 . S
H1153 C1176 0.950 . S
H1154 C1177 0.950 . S
H1155 C1179 0.950 . S
H1156 C1180 0.950 . S
H1157 C1181 0.951 . S
H1158 C1183 0.951 . S
H1159 C1185 0.950 . S
H1160 C1186 0.950 . S
H1161 C1188 0.950 . S
H1162 C1191 0.950 . S
H1163 C1192 0.950 . S
H1164 C1194 0.950 . S
H1165 C1195 0.950 . S
C1166 H1148 0.951 . S
C1166 C1167 1.366 . S
C1166 C1168 1.388 . S
C1167 C1166 1.366 . S
C1167 C1171 1.385 . S
C1168 H1149 0.951 . S
C1168 C1166 1.388 . S
C1168 C1169 1.366 . S
C1169 C1168 1.366 . S
C1169 C1170 1.414 . S
C1169 C1172 1.499 . S
C1170 H1150 0.950 . S
C1170 C1169 1.414 . S
C1170 C1171 1.374 . S
C1171 H1151 0.950 . S
C1171 C1167 1.385 . S
C1171 C1170 1.374 . S
C1172 C1169 1.499 . S
C1172 C1173 1.373 . S
C1172 C1174 1.389 . S
C1173 H1152 0.950 . S
C1173 C1172 1.373 . S
C1173 C1189 1.377 . S
C1174 C1172 1.389 . S
C1174 C1175 1.524 . S
C1174 C1188 1.377 . S
C1175 C1174 1.524 . S
C1175 C1176 1.397 . S
C1175 C1180 1.363 . S
C1176 H1153 0.950 . S
C1176 C1175 1.397 . S
C1176 C1177 1.334 . S
C1177 H1154 0.950 . S
C1177 C1176 1.334 . S
C1177 C1178 1.287 . S
C1178 C1177 1.287 . S
C1178 C1179 1.524 . S
C1178 H1197 0.913 . S
C1179 H1155 0.950 . S
C1179 C1178 1.524 . S
C1179 C1180 1.415 . S
C1180 H1156 0.950 . S
C1180 C1175 1.363 . S
C1180 C1179 1.415 . S
C1181 H1157 0.951 . S
C1181 C1182 1.366 . S
C1181 C1183 1.388 . S
C1182 C1181 1.366 . S
C1182 C1186 1.385 . S
C1183 H1158 0.951 . S
C1183 C1181 1.388 . S
C1183 C1184 1.366 . S
C1184 C1183 1.366 . S
C1184 C1185 1.414 . S
C1184 C1187 1.499 . S
C1185 H1159 0.950 . S
C1185 C1184 1.414 . S
C1185 C1186 1.374 . S
C1186 H1160 0.950 . S
C1186 C1182 1.385 . S
C1186 C1185 1.374 . S
C1187 C1184 1.499 . S
C1187 C1188 1.373 . S
C1187 C1189 1.389 . S
C1188 H1161 0.950 . S
C1188 C1174 1.377 . S
C1188 C1187 1.373 . S
C1189 C1173 1.377 . S
C1189 C1187 1.389 . S
C1189 C1190 1.524 . S
C1190 C1189 1.524 . S
C1190 C1191 1.397 . S
C1190 C1195 1.363 . S
C1191 H1162 0.950 . S
C1191 C1190 1.397 . S
C1191 C1192 1.334 . S
C1192 H1163 0.950 . S
C1192 C1191 1.334 . S
C1192 C1193 1.287 . S
C1193 C1192 1.287 . S
C1193 C1194 1.524 . S
C1193 H1196 0.999 . S
C1194 H1164 0.950 . S
C1194 C1193 1.524 . S
C1194 C1195 1.415 . S
C1195 H1165 0.950 . S
C1195 C1190 1.363 . S
C1195 C1194 1.415 . S
H1196 C1193 0.999 . S
H1197 C1178 0.913 . S
H1198 C1216 0.951 . S
H1199 C1218 0.951 . S
H1200 C1220 0.950 . S
H1201 C1221 0.950 . S
H1202 C1223 0.950 . S
H1203 C1226 0.950 . S
H1204 C1227 0.950 . S
H1205 C1229 0.950 . S
H1206 C1230 0.950 1_556 S
H1207 C1231 0.951 . S
H1208 C1233 0.951 . S
H1209 C1235 0.950 . S
H1210 C1236 0.950 . S
H1211 C1238 0.950 . S
H1212 C1241 0.950 . S
H1213 C1242 0.950 . S
H1214 C1244 0.950 . S
H1215 C1245 0.950 . S
C1216 H1198 0.951 . S
C1216 C1217 1.366 . S
C1216 C1218 1.388 . S
C1217 C1216 1.366 . S
C1217 C1221 1.385 . S
C1218 H1199 0.951 . S
C1218 C1216 1.388 . S
C1218 C1219 1.366 . S
C1219 C1218 1.366 . S
C1219 C1220 1.414 . S
C1219 C1222 1.499 . S
C1220 H1200 0.950 . S
C1220 C1219 1.414 . S
C1220 C1221 1.374 . S
C1221 H1201 0.950 . S
C1221 C1217 1.385 . S
C1221 C1220 1.374 . S
C1222 C1219 1.499 . S
C1222 C1223 1.373 . S
C1222 C1224 1.389 . S
C1223 H1202 0.950 . S
C1223 C1222 1.373 . S
C1223 C1239 1.377 . S
C1224 C1222 1.389 . S
C1224 C1225 1.524 . S
C1224 C1238 1.377 . S
C1225 C1224 1.524 . S
C1225 C1226 1.397 . S
C1225 C1230 1.363 1_556 S
C1226 H1203 0.950 . S
C1226 C1225 1.397 . S
C1226 C1227 1.334 1_556 S
C1227 H1204 0.950 . S
C1227 C1226 1.334 1_554 S
C1227 C1228 1.287 . S
C1228 C1227 1.287 . S
C1228 C1229 1.524 . S
C1228 H1247 0.913 . S
C1229 H1205 0.950 . S
C1229 C1228 1.524 . S
C1229 C1230 1.415 . S
C1230 H1206 0.950 1_554 S
C1230 C1225 1.363 1_554 S
C1230 C1229 1.415 . S
C1231 H1207 0.951 . S
C1231 C1232 1.366 . S
C1231 C1233 1.388 . S
C1232 C1231 1.366 . S
C1232 C1236 1.385 . S
C1233 H1208 0.951 . S
C1233 C1231 1.388 . S
C1233 C1234 1.366 . S
C1234 C1233 1.366 . S
C1234 C1235 1.414 . S
C1234 C1237 1.499 . S
C1235 H1209 0.950 . S
C1235 C1234 1.414 . S
C1235 C1236 1.374 . S
C1236 H1210 0.950 . S
C1236 C1232 1.385 . S
C1236 C1235 1.374 . S
C1237 C1234 1.499 . S
C1237 C1238 1.373 . S
C1237 C1239 1.389 . S
C1238 H1211 0.950 . S
C1238 C1224 1.377 . S
C1238 C1237 1.373 . S
C1239 C1223 1.377 . S
C1239 C1237 1.389 . S
C1239 C1240 1.524 . S
C1240 C1239 1.524 . S
C1240 C1241 1.397 . S
C1240 C1245 1.363 . S
C1241 H1212 0.950 . S
C1241 C1240 1.397 . S
C1241 C1242 1.334 . S
C1242 H1213 0.950 . S
C1242 C1241 1.334 . S
C1242 C1243 1.287 . S
C1243 C1242 1.287 . S
C1243 C1244 1.524 . S
C1243 H1246 0.999 . S
C1244 H1214 0.950 . S
C1244 C1243 1.524 . S
C1244 C1245 1.415 . S
C1245 H1215 0.950 . S
C1245 C1240 1.363 . S
C1245 C1244 1.415 . S
H1246 C1243 0.999 . S
H1247 C1228 0.913 . S
H1248 C1266 0.951 . S
H1249 C1268 0.951 . S
H1250 C1270 0.950 . S
H1251 C1271 0.950 . S
H1252 C1273 0.950 . S
H1253 C1276 0.950 . S
H1254 C1277 0.950 . S
H1255 C1279 0.950 . S
H1256 C1280 0.950 . S
H1257 C1281 0.951 . S
H1258 C1283 0.951 . S
H1259 C1285 0.950 . S
H1260 C1286 0.950 . S
H1261 C1288 0.949 1_455 S
H1262 C1291 0.950 . S
H1263 C1292 0.950 . S
H1264 C1294 0.950 . S
H1265 C1295 0.950 . S
C1266 H1248 0.951 . S
C1266 C1267 1.321 1_455 S
C1266 C1268 1.388 . S
C1267 C1266 1.321 1_655 S
C1267 C1271 1.434 . S
C1268 H1249 0.951 . S
C1268 C1266 1.388 . S
C1268 C1269 1.366 1_455 S
C1269 C1268 1.366 1_655 S
C1269 C1270 1.414 . S
C1269 C1272 1.499 . S
C1270 H1250 0.950 . S
C1270 C1269 1.414 . S
C1270 C1271 1.374 . S
C1271 H1251 0.950 . S
C1271 C1267 1.434 . S
C1271 C1270 1.374 . S
C1272 C1269 1.499 . S
C1272 C1273 1.373 . S
C1272 C1274 1.398 . S
C1273 H1252 0.950 . S
C1273 C1272 1.373 . S
C1273 C1289 1.377 . S
C1274 C1272 1.398 . S
C1274 C1275 1.521 1_655 S
C1274 C1288 1.376 . S
C1275 C1274 1.521 1_455 S
C1275 C1276 1.397 1_455 S
C1275 C1280 1.363 . S
C1276 H1253 0.950 . S
C1276 C1275 1.397 1_655 S
C1276 C1277 1.334 . S
C1277 H1254 0.950 . S
C1277 C1276 1.334 . S
C1277 C1278 1.249 1_655 S
C1278 C1277 1.249 1_455 S
C1278 C1279 1.564 . S
C1278 H1297 0.917 . S
C1279 H1255 0.950 . S
C1279 C1278 1.564 . S
C1279 C1280 1.415 . S
C1280 H1256 0.950 . S
C1280 C1275 1.363 . S
C1280 C1279 1.415 . S
C1281 H1257 0.951 . S
C1281 C1282 1.366 . S
C1281 C1283 1.388 . S
C1282 C1281 1.366 . S
C1282 C1286 1.385 1_655 S
C1283 H1258 0.951 . S
C1283 C1281 1.388 . S
C1283 C1284 1.366 . S
C1284 C1283 1.366 . S
C1284 C1285 1.414 1_655 S
C1284 C1287 1.499 . S
C1285 H1259 0.950 . S
C1285 C1284 1.414 1_455 S
C1285 C1286 1.374 . S
C1286 H1260 0.950 . S
C1286 C1282 1.385 1_455 S
C1286 C1285 1.374 . S
C1287 C1284 1.499 . S
C1287 C1288 1.375 . S
C1287 C1289 1.389 . S
C1288 H1261 0.949 1_655 S
C1288 C1274 1.376 . S
C1288 C1287 1.375 . S
C1289 C1273 1.377 . S
C1289 C1287 1.389 . S
C1289 C1290 1.524 . S
C1290 C1289 1.524 . S
C1290 C1291 1.397 1_655 S
C1290 C1295 1.363 . S
C1291 H1262 0.950 . S
C1291 C1290 1.397 1_455 S
C1291 C1292 1.334 . S
C1292 H1263 0.950 . S
C1292 C1291 1.334 . S
C1292 C1293 1.287 1_455 S
C1293 C1292 1.287 1_655 S
C1293 C1294 1.524 . S
C1293 H1296 0.999 . S
C1294 H1264 0.950 . S
C1294 C1293 1.524 . S
C1294 C1295 1.415 . S
C1295 H1265 0.950 . S
C1295 C1290 1.363 . S
C1295 C1294 1.415 . S
H1296 C1293 0.999 . S
H1297 C1278 0.917 . S
H1298 C1316 0.951 . S
H1299 C1318 0.951 . S
H1300 C1320 0.950 . S
H1301 C1321 0.950 . S
H1302 C1323 0.950 . S
H1303 C1326 0.950 . S
H1304 C1327 0.950 . S
H1305 C1329 0.950 . S
H1306 C1330 0.950 . S
H1307 C1331 0.951 . S
H1308 C1333 0.951 . S
H1309 C1335 0.950 . S
H1310 C1336 0.950 . S
H1311 C1338 0.950 . S
H1312 C1341 0.950 . S
H1313 C1342 0.950 . S
H1314 C1344 0.950 . S
H1315 C1345 0.950 . S
C1316 H1298 0.951 . S
C1316 C1317 1.366 1_545 S
C1316 C1318 1.388 . S
C1317 C1316 1.366 1_565 S
C1317 C1321 1.385 . S
C1318 H1299 0.951 . S
C1318 C1316 1.388 . S
C1318 C1319 1.366 1_545 S
C1319 C1318 1.366 1_565 S
C1319 C1320 1.414 . S
C1319 C1322 1.499 . S
C1320 H1300 0.950 . S
C1320 C1319 1.414 . S
C1320 C1321 1.374 . S
C1321 H1301 0.950 . S
C1321 C1317 1.385 . S
C1321 C1320 1.374 . S
C1322 C1319 1.499 . S
C1322 C1323 1.373 . S
C1322 C1324 1.389 1_565 S
C1323 H1302 0.950 . S
C1323 C1322 1.373 . S
C1323 C1339 1.377 . S
C1324 C1322 1.389 1_545 S
C1324 C1325 1.524 . S
C1324 C1338 1.377 . S
C1325 C1324 1.524 . S
C1325 C1326 1.397 . S
C1325 C1330 1.363 . S
C1326 H1303 0.950 . S
C1326 C1325 1.397 . S
C1326 C1327 1.334 . S
C1327 H1304 0.950 . S
C1327 C1326 1.334 . S
C1327 C1328 1.287 . S
C1328 C1327 1.287 . S
C1328 C1329 1.524 . S
C1328 H1347 0.913 . S
C1329 H1305 0.950 . S
C1329 C1328 1.524 . S
C1329 C1330 1.415 . S
C1330 H1306 0.950 . S
C1330 C1325 1.363 . S
C1330 C1329 1.415 . S
C1331 H1307 0.951 . S
C1331 C1332 1.366 . S
C1331 C1333 1.388 . S
C1332 C1331 1.366 . S
C1332 C1336 1.385 1_565 S
C1333 H1308 0.951 . S
C1333 C1331 1.388 . S
C1333 C1334 1.366 . S
C1334 C1333 1.366 . S
C1334 C1335 1.414 1_565 S
C1334 C1337 1.499 . S
C1335 H1309 0.950 . S
C1335 C1334 1.414 1_545 S
C1335 C1336 1.374 . S
C1336 H1310 0.950 . S
C1336 C1332 1.385 1_545 S
C1336 C1335 1.374 . S
C1337 C1334 1.499 . S
C1337 C1338 1.373 1_565 S
C1337 C1339 1.389 . S
C1338 H1311 0.950 . S
C1338 C1324 1.377 . S
C1338 C1337 1.373 1_545 S
C1339 C1323 1.377 . S
C1339 C1337 1.389 . S
C1339 C1340 1.524 . S
C1340 C1339 1.524 . S
C1340 C1341 1.397 . S
C1340 C1345 1.363 . S
C1341 H1312 0.950 . S
C1341 C1340 1.397 . S
C1341 C1342 1.334 . S
C1342 H1313 0.950 . S
C1342 C1341 1.334 . S
C1342 C1343 1.287 . S
C1343 C1342 1.287 . S
C1343 C1344 1.524 . S
C1343 H1346 0.999 . S
C1344 H1314 0.950 . S
C1344 C1343 1.524 . S
C1344 C1345 1.415 . S
C1345 H1315 0.950 . S
C1345 C1340 1.363 . S
C1345 C1344 1.415 . S
H1346 C1343 0.999 . S
H1347 C1328 0.913 . S
H1348 C1366 0.951 . S
H1349 C1368 0.951 . S
H1350 C1370 0.950 . S
H1351 C1371 0.950 . S
H1352 C1373 0.950 . S
H1353 C1376 0.950 . S
H1354 C1377 0.950 . S
H1355 C1379 0.950 . S
H1356 C1380 0.950 . S
H1357 C1381 0.951 . S
H1358 C1383 0.951 . S
H1359 C1385 0.950 . S
H1360 C1386 0.950 . S
H1361 C1388 0.950 . S
H1362 C1391 0.950 . S
H1363 C1392 0.950 . S
H1364 C1394 0.950 . S
H1365 C1395 0.950 . S
C1366 H1348 0.951 . S
C1366 C1367 1.366 . S
C1366 C1368 1.388 . S
C1367 C1366 1.366 . S
C1367 C1371 1.385 . S
C1368 H1349 0.951 . S
C1368 C1366 1.388 . S
C1368 C1369 1.366 . S
C1369 C1368 1.366 . S
C1369 C1370 1.414 . S
C1369 C1372 1.499 . S
C1370 H1350 0.950 . S
C1370 C1369 1.414 . S
C1370 C1371 1.374 . S
C1371 H1351 0.950 . S
C1371 C1367 1.385 . S
C1371 C1370 1.374 . S
C1372 C1369 1.499 . S
C1372 C1373 1.373 . S
C1372 C1374 1.389 . S
C1373 H1352 0.950 . S
C1373 C1372 1.373 . S
C1373 C1389 1.377 . S
C1374 C1372 1.389 . S
C1374 C1375 1.524 . S
C1374 C1388 1.377 . S
C1375 C1374 1.524 . S
C1375 C1376 1.397 . S
C1375 C1380 1.363 . S
C1376 H1353 0.950 . S
C1376 C1375 1.397 . S
C1376 C1377 1.334 . S
C1377 H1354 0.950 . S
C1377 C1376 1.334 . S
C1377 C1378 1.287 . S
C1378 C1377 1.287 . S
C1378 C1379 1.524 . S
C1378 H1397 0.913 . S
C1379 H1355 0.950 . S
C1379 C1378 1.524 . S
C1379 C1380 1.415 . S
C1380 H1356 0.950 . S
C1380 C1375 1.363 . S
C1380 C1379 1.415 . S
C1381 H1357 0.951 . S
C1381 C1382 1.366 . S
C1381 C1383 1.388 . S
C1382 C1381 1.366 . S
C1382 C1386 1.385 . S
C1383 H1358 0.951 . S
C1383 C1381 1.388 . S
C1383 C1384 1.366 . S
C1384 C1383 1.366 . S
C1384 C1385 1.414 . S
C1384 C1387 1.499 . S
C1385 H1359 0.950 . S
C1385 C1384 1.414 . S
C1385 C1386 1.374 . S
C1386 H1360 0.950 . S
C1386 C1382 1.385 . S
C1386 C1385 1.374 . S
C1387 C1384 1.499 . S
C1387 C1388 1.373 . S
C1387 C1389 1.389 . S
C1388 H1361 0.950 . S
C1388 C1374 1.377 . S
C1388 C1387 1.373 . S
C1389 C1373 1.377 . S
C1389 C1387 1.389 . S
C1389 C1390 1.524 . S
C1390 C1389 1.524 . S
C1390 C1391 1.397 . S
C1390 C1395 1.363 . S
C1391 H1362 0.950 . S
C1391 C1390 1.397 . S
C1391 C1392 1.334 . S
C1392 H1363 0.950 . S
C1392 C1391 1.334 . S
C1392 C1393 1.287 . S
C1393 C1392 1.287 . S
C1393 C1394 1.524 . S
C1393 H1396 0.999 . S
C1394 H1364 0.950 . S
C1394 C1393 1.524 . S
C1394 C1395 1.415 . S
C1395 H1365 0.950 . S
C1395 C1390 1.363 . S
C1395 C1394 1.415 . S
H1396 C1393 0.999 . S
H1397 C1378 0.913 . S
H1398 C1416 0.951 . S
H1399 C1418 0.951 . S
H1400 C1420 0.950 . S
H1401 C1421 0.950 . S
H1402 C1423 0.950 . S
H1403 C1426 0.950 . S
H1404 C1427 0.950 . S
H1405 C1429 0.950 . S
H1406 C1430 0.950 . S
H1407 C1431 0.951 . S
H1408 C1433 0.951 . S
H1409 C1435 0.950 . S
H1410 C1436 0.950 . S
H1411 C1438 0.950 . S
H1412 C1441 0.950 . S
H1413 C1442 0.950 . S
H1414 C1444 0.950 . S
H1415 C1445 0.950 . S
C1416 H1398 0.951 . S
C1416 C1417 1.366 . S
C1416 C1418 1.388 . S
C1417 C1416 1.366 . S
C1417 C1421 1.385 . S
C1418 H1399 0.951 . S
C1418 C1416 1.388 . S
C1418 C1419 1.366 . S
C1419 C1418 1.366 . S
C1419 C1420 1.414 . S
C1419 C1422 1.499 . S
C1420 H1400 0.950 . S
C1420 C1419 1.414 . S
C1420 C1421 1.374 . S
C1421 H1401 0.950 . S
C1421 C1417 1.385 . S
C1421 C1420 1.374 . S
C1422 C1419 1.499 . S
C1422 C1423 1.373 . S
C1422 C1424 1.389 . S
C1423 H1402 0.950 . S
C1423 C1422 1.373 . S
C1423 C1439 1.377 . S
C1424 C1422 1.389 . S
C1424 C1425 1.524 . S
C1424 C1438 1.377 . S
C1425 C1424 1.524 . S
C1425 C1426 1.397 . S
C1425 C1430 1.363 . S
C1426 H1403 0.950 . S
C1426 C1425 1.397 . S
C1426 C1427 1.334 . S
C1427 H1404 0.950 . S
C1427 C1426 1.334 . S
C1427 C1428 1.287 . S
C1428 C1427 1.287 . S
C1428 C1429 1.524 . S
C1428 H1447 0.913 . S
C1429 H1405 0.950 . S
C1429 C1428 1.524 . S
C1429 C1430 1.415 . S
C1430 H1406 0.950 . S
C1430 C1425 1.363 . S
C1430 C1429 1.415 . S
C1431 H1407 0.951 . S
C1431 C1432 1.366 . S
C1431 C1433 1.388 . S
C1432 C1431 1.366 . S
C1432 C1436 1.385 . S
C1433 H1408 0.951 . S
C1433 C1431 1.388 . S
C1433 C1434 1.366 . S
C1434 C1433 1.366 . S
C1434 C1435 1.414 . S
C1434 C1437 1.499 . S
C1435 H1409 0.950 . S
C1435 C1434 1.414 . S
C1435 C1436 1.374 . S
C1436 H1410 0.950 . S
C1436 C1432 1.385 . S
C1436 C1435 1.374 . S
C1437 C1434 1.499 . S
C1437 C1438 1.373 . S
C1437 C1439 1.389 . S
C1438 H1411 0.950 . S
C1438 C1424 1.377 . S
C1438 C1437 1.373 . S
C1439 C1423 1.377 . S
C1439 C1437 1.389 . S
C1439 C1440 1.524 . S
C1440 C1439 1.524 . S
C1440 C1441 1.397 . S
C1440 C1445 1.363 . S
C1441 H1412 0.950 . S
C1441 C1440 1.397 . S
C1441 C1442 1.334 . S
C1442 H1413 0.950 . S
C1442 C1441 1.334 . S
C1442 C1443 1.287 . S
C1443 C1442 1.287 . S
C1443 C1444 1.524 . S
C1443 H1446 0.999 . S
C1444 H1414 0.950 . S
C1444 C1443 1.524 . S
C1444 C1445 1.415 . S
C1445 H1415 0.950 . S
C1445 C1440 1.363 . S
C1445 C1444 1.415 . S
H1446 C1443 0.999 . S
H1447 C1428 0.913 . S
C267 C74 1.707 . S
C282 C106 1.762 1_545 S
C332 C146 1.767 . S
C317 C85 1.703 . S
C382 C186 1.767 . S
C367 C52 1.703 . S
C432 C226 1.763 1_455 S
C417 C63 1.706 . S
C482 C96 1.764 1_565 S
C467 C30 1.704 1_565 S
C517 C41 1.703 . S
C532 C136 1.767 . S
C567 C8 1.703 . S
C582 C176 1.766 . S
C617 C19 1.702 1_655 S
C632 C216 1.763 1_655 S
C682 C93 0.414 . S
C667 C62 0.415 . S
C732 C133 0.413 . S
C717 C73 0.419 . S
C782 C173 0.413 . S
C767 C84 0.420 . S
C817 C51 0.420 . S
C832 C213 0.411 . S
C867 C18 0.471 1_655 S
C882 C103 0.414 . S
C932 C143 0.413 . S
C917 C29 0.470 1_565 S
C982 C183 0.415 . S
C967 C40 0.474 . S
C1017 C7 0.474 . S
C1032 C223 0.418 . S
C1067 C60 1.587 . S
C1082 C97 2.027 . S
C1117 C71 1.586 . S
C1132 C137 2.029 . S
C1182 C177 2.029 . S
C1167 C82 1.585 . S
C1232 C217 2.029 . S
C1217 C49 1.584 . S
C1267 C16 1.596 1_655 S
C1282 C107 2.032 . S
C1332 C147 2.029 . S
C1317 C27 1.622 1_565 S
C1382 C187 2.030 . S
C1367 C38 1.621 . S
C1417 C5 1.621 . S
C1432 C227 2.033 . S
