# Generated by pormake.
# Topology ocu, (6,8)-cn, num edge types: 1
# Building blocks:
#     Node 0, Type 0, BuildingBlock: BETDEL_clean_sbu_0, # of connection points: 6
#     Node 1, Type 0, BuildingBlock: BETDEL_clean_sbu_0, # of connection points: 6
#     Node 2, Type 0, BuildingBlock: BETDEL_clean_sbu_0, # of connection points: 6
#     Node 3, Type 0, BuildingBlock: BETDEL_clean_sbu_0, # of connection points: 6
#     Node 4, Type 0, BuildingBlock: BETDEL_clean_sbu_0, # of connection points: 6
#     Node 5, Type 0, BuildingBlock: BETDEL_clean_sbu_0, # of connection points: 6
#     Node 6, Type 0, BuildingBlock: BETDEL_clean_sbu_0, # of connection points: 6
#     Node 7, Type 0, BuildingBlock: BETDEL_clean_sbu_0, # of connection points: 6
#     Node 8, Type 1, BuildingBlock: GIZVER_clean_sbu_0, # of connection points: 8
#     Node 9, Type 1, BuildingBlock: GIZVER_clean_sbu_0, # of connection points: 8
#     Node 10, Type 1, BuildingBlock: GIZVER_clean_sbu_0, # of connection points: 8
#     Node 11, Type 1, BuildingBlock: GIZVER_clean_sbu_0, # of connection points: 8
#     Node 12, Type 1, BuildingBlock: GIZVER_clean_sbu_0, # of connection points: 8
#     Node 13, Type 1, BuildingBlock: GIZVER_clean_sbu_0, # of connection points: 8
#     Edge 14, Type (0, 1), BuildingBlock: XIVTED_clean_linker_0, # of connection points: 2
#     Edge 15, Type (0, 1), BuildingBlock: XIVTED_clean_linker_0, # of connection points: 2
#     Edge 16, Type (0, 1), BuildingBlock: XIVTED_clean_linker_0, # of connection points: 2
#     Edge 17, Type (0, 1), BuildingBlock: XIVTED_clean_linker_0, # of connection points: 2
#     Edge 18, Type (0, 1), BuildingBlock: XIVTED_clean_linker_0, # of connection points: 2
#     Edge 19, Type (0, 1), BuildingBlock: XIVTED_clean_linker_0, # of connection points: 2
#     Edge 20, Type (0, 1), BuildingBlock: XIVTED_clean_linker_0, # of connection points: 2
#     Edge 21, Type (0, 1), BuildingBlock: XIVTED_clean_linker_0, # of connection points: 2
#     Edge 22, Type (0, 1), BuildingBlock: XIVTED_clean_linker_0, # of connection points: 2
#     Edge 23, Type (0, 1), BuildingBlock: XIVTED_clean_linker_0, # of connection points: 2
#     Edge 24, Type (0, 1), BuildingBlock: XIVTED_clean_linker_0, # of connection points: 2
#     Edge 25, Type (0, 1), BuildingBlock: XIVTED_clean_linker_0, # of connection points: 2
#     Edge 26, Type (0, 1), BuildingBlock: XIVTED_clean_linker_0, # of connection points: 2
#     Edge 27, Type (0, 1), BuildingBlock: XIVTED_clean_linker_0, # of connection points: 2
#     Edge 28, Type (0, 1), BuildingBlock: XIVTED_clean_linker_0, # of connection points: 2
#     Edge 29, Type (0, 1), BuildingBlock: XIVTED_clean_linker_0, # of connection points: 2
#     Edge 30, Type (0, 1), BuildingBlock: XIVTED_clean_linker_0, # of connection points: 2
#     Edge 31, Type (0, 1), BuildingBlock: XIVTED_clean_linker_0, # of connection points: 2
#     Edge 32, Type (0, 1), BuildingBlock: XIVTED_clean_linker_0, # of connection points: 2
#     Edge 33, Type (0, 1), BuildingBlock: XIVTED_clean_linker_0, # of connection points: 2
#     Edge 34, Type (0, 1), BuildingBlock: XIVTED_clean_linker_0, # of connection points: 2
#     Edge 35, Type (0, 1), BuildingBlock: XIVTED_clean_linker_0, # of connection points: 2
#     Edge 36, Type (0, 1), BuildingBlock: XIVTED_clean_linker_0, # of connection points: 2
#     Edge 37, Type (0, 1), BuildingBlock: XIVTED_clean_linker_0, # of connection points: 2
#     Edge 38, Type (0, 1), BuildingBlock: XIVTED_clean_linker_0, # of connection points: 2
#     Edge 39, Type (0, 1), BuildingBlock: XIVTED_clean_linker_0, # of connection points: 2
#     Edge 40, Type (0, 1), BuildingBlock: XIVTED_clean_linker_0, # of connection points: 2
#     Edge 41, Type (0, 1), BuildingBlock: XIVTED_clean_linker_0, # of connection points: 2
#     Edge 42, Type (0, 1), BuildingBlock: XIVTED_clean_linker_0, # of connection points: 2
#     Edge 43, Type (0, 1), BuildingBlock: XIVTED_clean_linker_0, # of connection points: 2
#     Edge 44, Type (0, 1), BuildingBlock: XIVTED_clean_linker_0, # of connection points: 2
#     Edge 45, Type (0, 1), BuildingBlock: XIVTED_clean_linker_0, # of connection points: 2
#     Edge 46, Type (0, 1), BuildingBlock: XIVTED_clean_linker_0, # of connection points: 2
#     Edge 47, Type (0, 1), BuildingBlock: XIVTED_clean_linker_0, # of connection points: 2
#     Edge 48, Type (0, 1), BuildingBlock: XIVTED_clean_linker_0, # of connection points: 2
#     Edge 49, Type (0, 1), BuildingBlock: XIVTED_clean_linker_0, # of connection points: 2
#     Edge 50, Type (0, 1), BuildingBlock: XIVTED_clean_linker_0, # of connection points: 2
#     Edge 51, Type (0, 1), BuildingBlock: XIVTED_clean_linker_0, # of connection points: 2
#     Edge 52, Type (0, 1), BuildingBlock: XIVTED_clean_linker_0, # of connection points: 2
#     Edge 53, Type (0, 1), BuildingBlock: XIVTED_clean_linker_0, # of connection points: 2
#     Edge 54, Type (0, 1), BuildingBlock: XIVTED_clean_linker_0, # of connection points: 2
#     Edge 55, Type (0, 1), BuildingBlock: XIVTED_clean_linker_0, # of connection points: 2
#     Edge 56, Type (0, 1), BuildingBlock: XIVTED_clean_linker_0, # of connection points: 2
#     Edge 57, Type (0, 1), BuildingBlock: XIVTED_clean_linker_0, # of connection points: 2
#     Edge 58, Type (0, 1), BuildingBlock: XIVTED_clean_linker_0, # of connection points: 2
#     Edge 59, Type (0, 1), BuildingBlock: XIVTED_clean_linker_0, # of connection points: 2
#     Edge 60, Type (0, 1), BuildingBlock: XIVTED_clean_linker_0, # of connection points: 2
#     Edge 61, Type (0, 1), BuildingBlock: XIVTED_clean_linker_0, # of connection points: 2
# Relax obj value: 0.134
# Max RMSD: 0.274
# Mean RMSD: 0.184
data_MOF--net-ocu--node1-BETDEL_clean_sbu_0--node2-GIZVER_clean_sbu_0--edge1-XIVTED_clean_linker_0
_symmetry_space_group_name_H-M    P1
_symmetry_Int_Tables_number       1
_symmetry_cell_setting            triclinic
loop_
_symmetry_equiv_pos_as_xyz
'x, y, z'
_cell_length_a     41.161235
_cell_length_b     43.532198
_cell_length_c     30.116542
_cell_angle_alpha  91.013628
_cell_angle_beta   91.938303
_cell_angle_gamma 105.82535
loop_
_atom_site_label
_atom_site_type_symbol
_atom_site_fract_x
_atom_site_fract_y
_atom_site_fract_z
_atom_type_partial_charge
Dy0 Dy 0.28532 0.25877 0.28761 0.0
C1 C 0.21954 0.28839 0.13522 0.0
C2 C 0.31206 0.23391 0.35809 0.0
Dy3 Dy 0.24601 0.26133 0.20386 0.0
O4 O 0.32735 0.25976 0.33812 0.0
O5 O 0.28199 0.22233 0.34024 0.0
O6 O 0.31452 0.3101 0.28174 0.0
O7 O 0.29903 0.28127 0.22393 0.0
C8 C 0.31328 0.30937 0.23845 0.0
C9 C 0.21851 0.2103 0.25242 0.0
O10 O 0.2793 0.23344 0.17381 0.0
O11 O 0.30247 0.22421 0.24177 0.0
O12 O 0.20478 0.26115 0.15236 0.0
O13 O 0.24914 0.2999 0.15445 0.0
O14 O 0.21704 0.20992 0.20912 0.0
O15 O 0.23234 0.23841 0.26731 0.0
O16 O 0.25211 0.28673 0.31782 0.0
O17 O 0.22833 0.2952 0.25005 0.0
C18 C 0.29866 0.21943 0.19781 0.0
C19 C 0.23231 0.30026 0.2939 0.0
Dy20 Dy 0.79253 0.24335 0.26241 0.0
C21 C 0.69217 0.30574 0.22776 0.0
C22 C 0.8377 0.21395 0.2953 0.0
Dy23 Dy 0.7424 0.28099 0.25475 0.0
O24 O 0.83573 0.22188 0.25415 0.0
O25 O 0.81503 0.22188 0.31823 0.0
O26 O 0.77968 0.22269 0.19258 0.0
O27 O 0.74274 0.23411 0.22971 0.0
C28 C 0.74895 0.22521 0.19181 0.0
C29 C 0.78388 0.29702 0.32745 0.0
O30 O 0.7106 0.23842 0.28677 0.0
O31 O 0.75412 0.21769 0.30995 0.0
O32 O 0.70533 0.3087 0.26783 0.0
O33 O 0.70752 0.29067 0.20179 0.0
O34 O 0.75257 0.29786 0.32591 0.0
O35 O 0.79164 0.28978 0.28933 0.0
O36 O 0.82489 0.28813 0.23521 0.0
O37 O 0.78194 0.309 0.20989 0.0
C38 C 0.72219 0.21831 0.31064 0.0
C39 C 0.81423 0.30917 0.21174 0.0
Dy40 Dy 0.74673 0.76401 0.29129 0.0
C41 C 0.8045 0.72504 0.13769 0.0
C42 C 0.72467 0.79443 0.35917 0.0
Dy43 Dy 0.78363 0.75621 0.20564 0.0
O44 O 0.71077 0.76508 0.34557 0.0
O45 O 0.75123 0.80663 0.33656 0.0
O46 O 0.7132 0.71392 0.28185 0.0
O47 O 0.73219 0.74128 0.22676 0.0
C48 C 0.7162 0.71402 0.2389 0.0
C49 C 0.81478 0.80584 0.25878 0.0
O50 O 0.7501 0.78445 0.17575 0.0
O51 O 0.72863 0.79634 0.24259 0.0
O52 O 0.81787 0.7549 0.14934 0.0
O53 O 0.77927 0.71267 0.16243 0.0
O54 O 0.81806 0.80592 0.21586 0.0
O55 O 0.79817 0.77866 0.27028 0.0
O56 O 0.78097 0.73621 0.32109 0.0
O57 O 0.80243 0.72438 0.25418 0.0
C58 C 0.73177 0.7996 0.19877 0.0
C59 C 0.79956 0.72127 0.29803 0.0
Dy60 Dy 0.29081 0.74215 0.22469 0.0
C61 C 0.2201 0.82392 0.29896 0.0
C62 C 0.32187 0.70433 0.17994 0.0
Dy63 Dy 0.24628 0.78586 0.24755 0.0
O64 O 0.3315 0.71724 0.21908 0.0
O65 O 0.29516 0.7119 0.16528 0.0
O66 O 0.31877 0.75441 0.29157 0.0
O67 O 0.29864 0.78753 0.25934 0.0
C68 C 0.31293 0.78227 0.2947 0.0
C69 C 0.22399 0.74691 0.17672 0.0
O70 O 0.28464 0.8199 0.20846 0.0
O71 O 0.30744 0.78187 0.17663 0.0
O72 O 0.20973 0.8151 0.25819 0.0
O73 O 0.24416 0.8117 0.31144 0.0
O74 O 0.21857 0.77495 0.18109 0.0
O75 O 0.23813 0.74065 0.21184 0.0
O76 O 0.25336 0.70798 0.26398 0.0
O77 O 0.22685 0.74437 0.29264 0.0
C78 C 0.30477 0.81154 0.17993 0.0
C79 C 0.23163 0.71538 0.29081 0.0
Dy80 Dy 0.29629 0.73491 0.77331 0.0
C81 C 0.21646 0.80671 0.68927 0.0
C82 C 0.33725 0.71307 0.82816 0.0
Dy83 Dy 0.2513 0.77411 0.73887 0.0
O84 O 0.34205 0.71805 0.78624 0.0
O85 O 0.30935 0.71861 0.83991 0.0
O86 O 0.29135 0.70608 0.7095 0.0
O87 O 0.25197 0.72453 0.72821 0.0
C88 C 0.26243 0.71053 0.6971 0.0
C89 C 0.28621 0.79639 0.81571 0.0
O90 O 0.21271 0.73848 0.77524 0.0
O91 O 0.2506 0.71687 0.81388 0.0
O92 O 0.24605 0.81884 0.70806 0.0
O93 O 0.20543 0.77666 0.69796 0.0
O94 O 0.25673 0.80053 0.80582 0.0
O95 O 0.29578 0.78375 0.78283 0.0
O96 O 0.33249 0.77529 0.74223 0.0
O97 O 0.29319 0.78272 0.69073 0.0
C98 C 0.21952 0.71909 0.80539 0.0
C99 C 0.32502 0.78707 0.70441 0.0
Dy100 Dy 0.252 0.26045 0.78759 0.0
C101 C 0.30371 0.21597 0.63136 0.0
C102 C 0.23308 0.29242 0.85635 0.0
Dy103 Dy 0.28403 0.24784 0.69974 0.0
O104 O 0.22071 0.26209 0.84696 0.0
O105 O 0.25638 0.30494 0.82888 0.0
O106 O 0.21437 0.21186 0.78045 0.0
O107 O 0.23365 0.237 0.72428 0.0
C108 C 0.21591 0.21081 0.73737 0.0
C109 C 0.31914 0.298 0.74934 0.0
O110 O 0.24895 0.27524 0.67128 0.0
O111 O 0.2369 0.29475 0.7395 0.0
O112 O 0.31769 0.24566 0.64315 0.0
O113 O 0.27824 0.20415 0.65604 0.0
O114 O 0.32055 0.29705 0.70622 0.0
O115 O 0.3022 0.27155 0.76268 0.0
O116 O 0.28746 0.23366 0.81633 0.0
O117 O 0.29941 0.21385 0.74837 0.0
C118 C 0.23549 0.29447 0.69509 0.0
C119 C 0.30103 0.21442 0.79281 0.0
Dy120 Dy 0.79372 0.2292 0.72158 0.0
C121 C 0.7174 0.30372 0.80774 0.0
C122 C 0.81716 0.19624 0.65929 0.0
Dy123 Dy 0.74908 0.27083 0.75462 0.0
O124 O 0.81974 0.19214 0.7019 0.0
O125 O 0.80235 0.21834 0.65111 0.0
O126 O 0.82714 0.23921 0.78386 0.0
O127 O 0.80237 0.27249 0.7616 0.0
C128 C 0.81964 0.26578 0.79338 0.0
C129 C 0.72482 0.23278 0.68272 0.0
O130 O 0.78257 0.30745 0.71375 0.0
O131 O 0.81022 0.27343 0.68067 0.0
O132 O 0.70288 0.28444 0.77512 0.0
O133 O 0.7494 0.30564 0.81076 0.0
O134 O 0.71804 0.26 0.68942 0.0
O135 O 0.741 0.22699 0.716 0.0
O136 O 0.75601 0.19349 0.75964 0.0
O137 O 0.74086 0.2312 0.80327 0.0
C138 C 0.8043 0.30185 0.68529 0.0
C139 C 0.74072 0.20121 0.79449 0.0
Dy140 Dy 0.78837 0.75327 0.78845 0.0
C141 C 0.72302 0.78212 0.63315 0.0
C142 C 0.8133 0.72516 0.85714 0.0
Dy143 Dy 0.75021 0.75787 0.70374 0.0
O144 O 0.82783 0.75329 0.84241 0.0
O145 O 0.78488 0.71317 0.83523 0.0
O146 O 0.81807 0.8048 0.78466 0.0
O147 O 0.80268 0.77706 0.72592 0.0
C148 C 0.81677 0.80487 0.74136 0.0
C149 C 0.72247 0.70581 0.75013 0.0
O150 O 0.78439 0.73082 0.67368 0.0
O151 O 0.80673 0.72038 0.74157 0.0
O152 O 0.7075 0.75713 0.65465 0.0
O153 O 0.75361 0.79327 0.64958 0.0
O154 O 0.72169 0.70617 0.70691 0.0
O155 O 0.73585 0.73368 0.76601 0.0
O156 O 0.75279 0.77856 0.81823 0.0
O157 O 0.73488 0.79342 0.75023 0.0
C158 C 0.8036 0.71654 0.6975 0.0
C159 C 0.73603 0.79521 0.79455 0.0
Co160 Co 0.05405 0.94743 0.50374 0.0
Co161 Co 0.05029 0.98062 0.57685 0.0
Co162 Co 1.01817 1.00655 0.49692 0.0
O163 O 0.05589 0.99086 0.51781 0.0
H164 H 0.0777 1.00576 0.51359 0.0
O165 O 0.98045 0.02142 0.47498 0.0
Co166 Co 0.97917 0.06403 0.48349 0.0
Co167 Co 0.98742 0.02852 0.41463 0.0
H168 H 0.95893 1.00603 0.47877 0.0
O169 O 0.08593 0.97602 0.61172 0.0
O170 O 0.05005 0.93841 0.56768 0.0
O171 O 1.00877 0.9817 0.60286 0.0
O172 O 0.98342 0.97656 0.53587 0.0
O173 O 0.02843 0.03901 0.54534 0.0
O174 O 0.97241 0.10232 0.48996 0.0
O175 O 0.93485 0.05503 0.47148 0.0
O176 O 0.02632 0.07883 0.50178 0.0
O177 O 0.05279 0.03719 0.45888 0.0
O178 O 0.02995 0.02717 0.39091 0.0
O179 O 0.98909 0.07119 0.41998 0.0
O180 O 0.95341 0.03334 0.37614 0.0
C181 C 0.08892 0.9237 0.49391 0.0
C182 C 0.99574 0.94522 0.45764 0.0
C183 C 0.98221 0.97289 0.57812 0.0
C184 C 0.07574 0.94685 0.59594 0.0
C185 C 0.94136 0.08528 0.48203 0.0
C186 C 0.03718 0.06856 0.53722 0.0
C187 C 0.05536 0.03934 0.41662 0.0
C188 C 0.96557 0.06305 0.38876 0.0
O189 O 0.05688 0.90899 0.49121 0.0
O190 O 0.09908 0.95356 0.50746 0.0
O191 O 1.00759 0.97423 0.44823 0.0
O192 O 1.00607 0.9349 0.49325 0.0
Co193 Co 0.56042 0.94751 0.97181 0.0
Co194 Co 0.57008 0.97376 0.04999 0.0
Co195 Co 0.52093 0.01045 0.99476 0.0
O196 O 0.56116 0.99058 0.99574 0.0
H197 H 0.58148 1.00611 0.9873 0.0
O198 O 0.48018 0.02985 0.99358 0.0
Co199 Co 0.47862 0.07136 0.02071 0.0
Co200 Co 0.47455 0.05055 0.94207 0.0
H201 H 0.45952 0.01357 -0.00122 0.0
O202 O 0.61321 0.97106 0.06822 0.0
O203 O 0.57216 0.93281 0.03243 0.0
O204 O 0.53441 0.96834 0.09093 0.0
O205 O 0.49953 0.98785 0.04836 0.0
O206 O 0.54854 0.04754 0.03214 0.0
O207 O 0.4744 0.10723 0.04827 0.0
O208 O 0.43313 0.06205 0.03483 0.0
O209 O 0.52634 0.08739 0.01229 0.0
O210 O 0.54292 0.03293 0.94114 0.0
O211 O 0.51177 0.05942 0.90407 0.0
O212 O 0.46616 0.08848 0.96139 0.0
O213 O 0.43255 0.04816 0.91851 0.0
C214 C 0.59514 0.92534 0.94288 0.0
C215 C 0.48886 0.94393 0.96557 0.0
C216 C 0.5059 0.97356 0.08292 0.0
C217 C 0.60139 0.94153 0.05451 0.0
C218 C 0.44292 0.09133 0.05165 0.0
C219 C 0.55084 0.07731 0.02778 0.0
C220 C 0.53856 0.0507 0.90948 0.0
C221 C 0.43948 0.07734 0.9343 0.0
O222 O 0.56368 0.90984 0.94803 0.0
O223 O 0.60526 0.95538 0.95638 0.0
O224 O 0.4933 0.97353 0.95744 0.0
O225 O 0.51267 0.93311 0.98163 0.0
Co226 Co 0.05383 0.4464 0.98345 0.0
Co227 Co 0.06496 0.48016 0.05868 0.0
Co228 Co 1.01606 0.50666 0.9943 0.0
O229 O 0.05618 0.4896 -0.00029 0.0
H230 H 0.07609 0.50438 0.98871 0.0
O231 O 0.97611 0.52398 0.98909 0.0
Co232 Co 0.97976 0.56759 0.00553 0.0
Co233 Co 0.96727 0.53363 0.93018 0.0
H234 H 0.95613 0.50949 0.00038 0.0
O235 O 0.10708 0.47517 0.07803 0.0
O236 O 0.06334 0.43795 0.04618 0.0
O237 O 0.02976 0.47894 0.09955 0.0
O238 O 0.99259 0.48265 0.04583 0.0
O239 O 0.04119 0.54315 0.03433 0.0
O240 O 0.97899 0.60664 0.02158 0.0
O241 O 0.93598 0.56163 0.01907 0.0
O242 O 0.02651 0.57981 0.99494 0.0
O243 O 0.03936 0.53094 0.94284 0.0
O244 O 1.00264 0.53608 0.88936 0.0
O245 O 0.96917 0.57583 0.94323 0.0
O246 O 0.92513 0.5388 0.91159 0.0
C247 C 0.08775 0.42276 0.96345 0.0
C248 C 0.98643 0.44104 0.96498 0.0
C249 C 0.99962 0.47604 0.08552 0.0
C250 C 0.09347 0.44579 0.06487 0.0
C251 C 0.94726 0.59241 0.02685 0.0
C252 C 0.04701 0.57194 0.02201 0.0
C253 C 0.0327 0.53924 0.90384 0.0
C254 C 0.93883 0.56806 0.92523 0.0
O255 O 0.05607 0.40762 0.96745 0.0
O256 O 0.09791 0.45352 0.97161 0.0
O257 O 0.99111 0.47009 0.95419 0.0
O258 O 1.00683 0.43335 0.99241 0.0
Co259 Co 0.55312 0.43824 0.99681 0.0
Co260 Co 0.55257 0.47359 0.06758 0.0
Co261 Co 0.52256 0.5019 0.9926 0.0
O262 O 0.55845 0.48222 0.00804 0.0
H263 H 0.5808 0.49578 0.00316 0.0
O264 O 0.48636 0.52144 0.97809 0.0
Co265 Co 0.49163 0.56441 0.99666 0.0
Co266 Co 0.48937 0.53329 0.9192 0.0
H267 H 0.46416 0.50755 0.98314 0.0
O268 O 0.58531 0.4654 0.10292 0.0
O269 O 0.54485 0.42994 0.06068 0.0
O270 O 0.51414 0.48064 0.09734 0.0
O271 O 0.48787 0.47254 0.03169 0.0
O272 O 0.53939 0.53255 0.04307 0.0
O273 O 0.4919 0.60325 0.01373 0.0
O274 O 0.44712 0.56094 -0.00288 0.0
O275 O 0.53927 0.57368 0.00206 0.0
O276 O 0.55697 0.5311 0.95288 0.0
O277 O 0.52907 0.53165 0.8886 0.0
O278 O 0.49386 0.57559 0.93372 0.0
O279 O 0.45327 0.54274 0.88971 0.0
C280 C 0.58554 0.41096 0.99212 0.0
C281 C 0.4952 0.44186 0.94896 0.0
C282 C 0.48707 0.47068 0.07403 0.0
C283 C 0.56793 0.43626 0.09274 0.0
C284 C 0.45944 0.59025 0.01227 0.0
C285 C 0.55091 0.56199 0.03539 0.0
C286 C 0.55662 0.5374 0.91138 0.0
C287 C 0.46688 0.57068 0.90817 0.0
O288 O 0.55313 0.39836 0.98636 0.0
O289 O 0.59716 0.44081 0.00518 0.0
O290 O 0.50635 0.47147 0.94219 0.0
O291 O 0.50582 0.42966 0.98274 0.0
Co292 Co 0.08355 0.46969 0.51951 0.0
Co293 Co 0.06017 0.46642 0.44078 0.0
Co294 Co 0.02068 0.5109 0.49746 0.0
O295 O 0.03944 0.4714 0.49318 0.0
H296 H 0.02204 0.45201 0.4986 0.0
O297 O 1.00163 0.55013 0.50142 0.0
Co298 Co 0.95666 0.55106 0.47655 0.0
Co299 Co 0.98211 0.55535 0.55493 0.0
H300 H 0.01872 0.56953 0.49518 0.0
O301 O 0.05919 0.42695 0.41646 0.0
O302 O 0.1011 0.45876 0.46007 0.0
O303 O 0.06936 0.5029 0.4045 0.0
O304 O 0.047 0.53394 0.4469 0.0
O305 O 0.98185 0.4888 0.45677 0.0
O306 O 0.9175 0.55494 0.45185 0.0
O307 O 0.96612 0.59364 0.46156 0.0
O308 O 0.94042 0.50596 0.48589 0.0
O309 O 0.99419 0.48778 0.54789 0.0
O310 O 0.97268 0.51884 0.59135 0.0
O311 O 0.94068 0.56236 0.53663 0.0
O312 O 0.9829 0.59498 0.57875 0.0
C313 C 0.10449 0.43583 0.54984 0.0
C314 C 0.09071 0.53643 0.53137 0.0
C315 C 0.06385 0.52956 0.41357 0.0
C316 C 0.08997 0.43363 0.43307 0.0
C317 C 0.93434 0.58463 0.44744 0.0
C318 C 0.95098 0.48411 0.46691 0.0
C319 C 0.97741 0.49199 0.58136 0.0
C320 C 0.95191 0.58784 0.56286 0.0
O321 O 0.1216 0.46552 0.54653 0.0
O322 O 0.07338 0.42681 0.53312 0.0
O323 O 0.05947 0.53326 0.53847 0.0
O324 O 0.10055 0.51468 0.51117 0.0
Co325 Co 0.57829 0.96943 0.51152 0.0
Co326 Co 0.54848 0.96469 0.43246 0.0
Co327 Co 0.5149 1.00556 0.49618 0.0
O328 O 0.53421 0.96898 0.48917 0.0
H329 H 0.51791 0.94919 0.49588 0.0
O330 O 0.49545 0.04203 0.50424 0.0
Co331 Co 0.45217 0.04287 0.48005 0.0
Co332 Co 0.47874 0.04431 0.56085 0.0
H333 H 0.51219 0.06194 0.49922 0.0
O334 O 0.5513 0.92565 0.41067 0.0
O335 O 0.59145 0.96295 0.44967 0.0
O336 O 0.55253 1.00006 0.39489 0.0
O337 O 0.54159 0.03145 0.44841 0.0
O338 O 0.47852 0.98391 0.45223 0.0
O339 O 0.41373 0.04836 0.45753 0.0
O340 O 0.46285 0.08551 0.47421 0.0
O341 O 0.43534 0.9973 0.48148 0.0
O342 O 0.4883 0.97934 0.54324 0.0
O343 O 0.47195 0.00715 0.59669 0.0
O344 O 0.4369 0.04751 0.54117 0.0
O345 O 0.47565 0.08303 0.58436 0.0
C346 C 0.60042 0.93518 0.53214 0.0
C347 C 0.58247 0.03456 0.5303 0.0
C348 C 0.55241 0.02735 0.41013 0.0
C349 C 0.58176 0.93549 0.42815 0.0
C350 C 0.43134 0.07819 0.45987 0.0
C351 C 0.44728 0.97742 0.46039 0.0
C352 C 0.47476 0.98104 0.58024 0.0
C353 C 0.44596 0.0742 0.56445 0.0
O354 O 0.61765 0.96512 0.53252 0.0
O355 O 0.56852 0.92713 0.51958 0.0
O356 O 0.55147 0.0272 0.54002 0.0
O357 O 0.59426 0.01515 0.50787 0.0
H358 H 0.18418 0.15038 0.22279 0.0
H359 H 0.1035 0.09065 0.45632 0.0
H360 H 0.20747 0.20902 0.34269 0.0
H361 H 0.07498 0.03939 0.3309 0.0
H362 H 0.1465 0.13146 0.41864 0.0
H363 H 0.14888 0.10724 0.26475 0.0
C364 C 0.18199 0.15416 0.25808 0.0
C365 C 0.19871 0.18352 0.27909 0.0
C366 C 0.13108 0.11107 0.39953 0.0
C367 C 0.15794 0.13383 0.32785 0.0
C368 C 0.10671 0.08758 0.42112 0.0
C369 C 0.08545 0.06143 0.39682 0.0
C370 C 0.1344 0.10832 0.35334 0.0
C371 C 0.09058 0.05908 0.3511 0.0
C372 C 0.16175 0.12944 0.28213 0.0
C373 C 0.19499 0.18683 0.32507 0.0
N374 N 0.11426 0.08215 0.33101 0.0
N375 N 0.17489 0.16238 0.34786 0.0
H376 H 0.82872 0.17767 0.3682 0.0
H377 H 0.99532 0.12568 0.37401 0.0
H378 H 0.89627 0.20833 0.26117 0.0
H379 H 0.8989 0.05442 0.37006 0.0
H380 H 0.96625 0.16613 0.35293 0.0
H381 H 0.86255 0.14205 0.39225 0.0
C382 C 0.85098 0.17723 0.35028 0.0
C383 C 0.85979 0.19549 0.31252 0.0
C384 C 0.95175 0.14155 0.35658 0.0
C385 C 0.89825 0.15577 0.34005 0.0
C386 C 0.96812 0.11864 0.36838 0.0
C387 C 0.9493 0.08686 0.37297 0.0
C388 C 0.91651 0.13249 0.35113 0.0
C389 C 0.91418 0.07866 0.36594 0.0
C390 C 0.87 0.15695 0.36385 0.0
C391 C 0.88871 0.19423 0.29022 0.0
N392 N 0.89873 0.10154 0.35588 0.0
N393 N 0.90717 0.17456 0.30443 0.0
H394 H 0.82164 0.80075 0.34831 0.0
H395 H 0.97298 0.96015 0.37736 0.0
H396 H 0.85928 0.86289 0.2405 0.0
H397 H 0.95371 0.88583 0.47404 0.0
H398 H 0.92604 0.92836 0.33082 0.0
H399 H 0.86405 0.83574 0.39881 0.0
C400 C 0.83861 0.82199 0.33539 0.0
C401 C 0.83726 0.82891 0.29014 0.0
C402 C 0.93205 0.91896 0.36218 0.0
C403 C 0.88575 0.8688 0.34759 0.0
C404 C 0.95886 0.93709 0.38887 0.0
C405 C 0.9674 0.92551 0.42961 0.0
C406 C 0.91341 0.88905 0.37629 0.0
C407 C 0.94812 0.89552 0.44274 0.0
C408 C 0.86289 0.84181 0.36418 0.0
C409 C 0.85968 0.85669 0.27513 0.0
N410 N 0.92192 0.87826 0.41608 0.0
N411 N 0.88317 0.87561 0.30381 0.0
H412 H 0.24874 0.85765 0.37372 0.0
H413 H 0.07436 0.8621 0.46411 0.0
H414 H 0.15643 0.83035 0.29264 0.0
H415 H 0.15747 0.94729 0.48442 0.0
H416 H 0.10961 0.83907 0.4181 0.0
H417 H 0.21995 0.88235 0.42868 0.0
C418 C 0.22253 0.85717 0.36743 0.0
C419 C 0.20467 0.84205 0.32894 0.0
C420 C 0.12017 0.86261 0.43326 0.0
C421 C 0.17198 0.86888 0.3915 0.0
C422 C 0.10026 0.87575 0.45975 0.0
C423 C 0.1128 0.90703 0.47715 0.0
C424 C 0.15296 0.88058 0.42488 0.0
C425 C 0.14675 0.92328 0.47101 0.0
C426 C 0.20631 0.87115 0.39862 0.0
C427 C 0.17093 0.84192 0.32193 0.0
N428 N 0.16579 0.90992 0.44477 0.0
N429 N 0.1554 0.85472 0.35342 0.0
H430 H 0.23882 0.86857 0.66711 0.0
H431 H 0.05766 0.88195 0.58219 0.0
H432 H 0.15079 0.7873 0.65791 0.0
H433 H 0.14001 0.96135 0.63056 0.0
H434 H 0.09339 0.84602 0.59584 0.0
H435 H 0.20495 0.90192 0.63713 0.0
C436 C 0.21236 0.85773 0.65831 0.0
C437 C 0.19725 0.82542 0.66559 0.0
C438 C 0.10348 0.87132 0.60341 0.0
C439 C 0.15842 0.86331 0.63192 0.0
C440 C 0.08317 0.89175 0.59584 0.0
C441 C 0.09586 0.92454 0.6058 0.0
C442 C 0.13663 0.88397 0.62068 0.0
C443 C 0.12908 0.93616 0.62302 0.0
C444 C 0.19306 0.87675 0.64136 0.0
C445 C 0.16311 0.81231 0.65314 0.0
N446 N 0.14832 0.91586 0.62989 0.0
N447 N 0.14457 0.83148 0.63728 0.0
H448 H 0.20944 0.21333 0.64763 0.0
H449 H 0.05473 0.05686 0.62168 0.0
H450 H 0.16754 0.15677 0.75887 0.0
H451 H 0.07876 0.12805 0.52093 0.0
H452 H 0.09946 0.09024 0.67029 0.0
H453 H 0.16591 0.17874 0.59847 0.0
C454 C 0.19119 0.19343 0.66166 0.0
C455 C 0.19186 0.18792 0.7074 0.0
C456 C 0.09489 0.09863 0.63764 0.0
C457 C 0.14199 0.1484 0.65133 0.0
C458 C 0.0694 0.07961 0.6098 0.0
C459 C 0.06306 0.08975 0.56715 0.0
C460 C 0.11446 0.1279 0.62266 0.0
C461 C 0.08273 0.11944 0.55362 0.0
C462 C 0.16626 0.17384 0.63358 0.0
C463 C 0.16776 0.1618 0.72379 0.0
N464 N 0.10776 0.13746 0.58128 0.0
N465 N 0.14366 0.14296 0.6957 0.0
H466 H 0.83288 0.215 0.57554 0.0
H467 H 0.87867 0.05503 0.50835 0.0
H468 H 0.82695 0.13704 0.66416 0.0
H469 H 0.94139 0.14771 0.47448 0.0
H470 H 0.83971 0.08089 0.54305 0.0
H471 H 0.85459 0.18577 0.51828 0.0
C472 C 0.83584 0.19157 0.58266 0.0
C473 C 0.8288 0.17842 0.62457 0.0
C474 C 0.86152 0.09537 0.52682 0.0
C475 C 0.85209 0.14488 0.55937 0.0
C476 C 0.88358 0.08073 0.5068 0.0
C477 C 0.91357 0.09948 0.4897 0.0
C478 C 0.86935 0.12876 0.52872 0.0
C479 C 0.91882 0.13261 0.48836 0.0
C480 C 0.84799 0.17501 0.55007 0.0
C481 C 0.83272 0.14805 0.63237 0.0
N482 N 0.89705 0.14638 0.50834 0.0
N483 N 0.84418 0.13219 0.59992 0.0
H484 H 0.82521 0.806 0.65106 0.0
H485 H 0.96407 0.97574 0.66388 0.0
H486 H 0.85356 0.86447 0.77064 0.0
H487 H 0.93119 0.92324 0.54026 0.0
H488 H 0.92042 0.93687 0.70177 0.0
H489 H 0.86067 0.84939 0.60866 0.0
C490 C 0.83865 0.82806 0.66836 0.0
C491 C 0.83647 0.83153 0.71458 0.0
C492 C 0.92232 0.93393 0.66627 0.0
C493 C 0.87735 0.88131 0.66621 0.0
C494 C 0.94723 0.95628 0.64449 0.0
C495 C 0.95141 0.95284 0.59873 0.0
C496 C 0.90144 0.90741 0.64246 0.0
C497 C 0.92877 0.92702 0.57548 0.0
C498 C 0.85893 0.85283 0.6441 0.0
C499 C 0.85456 0.86063 0.73516 0.0
N500 N 0.90508 0.90507 0.59768 0.0
N501 N 0.87431 0.8842 0.71097 0.0
H502 H 0.2875 0.18938 0.11395 0.0
H503 H 0.4586 0.13529 0.12023 0.0
H504 H 0.3544 0.20208 0.23009 0.0
H505 H 0.37409 0.08542 0.03455 0.0
H506 H 0.42284 0.16464 0.15514 0.0
H507 H 0.32024 0.15628 0.07896 0.0
C508 C 0.30901 0.18533 0.13218 0.0
C509 C 0.31794 0.19878 0.17535 0.0
C510 C 0.41191 0.1472 0.12889 0.0
C511 C 0.35609 0.16099 0.13482 0.0
C512 C 0.4324 0.13032 0.10879 0.0
C513 C 0.41949 0.1074 0.07447 0.0
C514 C 0.37802 0.1421 0.11416 0.0
C515 C 0.38519 0.10242 0.06122 0.0
C516 C 0.32764 0.16624 0.11216 0.0
C517 C 0.3462 0.19234 0.197 0.0
N518 N 0.36584 0.11979 0.08065 0.0
N519 N 0.36424 0.17438 0.17651 0.0
H520 H 0.80504 0.35682 0.15772 0.0
H521 H 1.0029 0.4458 0.16395 0.0
H522 H 0.88227 0.32381 0.22699 0.0
H523 H 0.93182 0.46645 0.068 0.0
H524 H 0.95618 0.40816 0.19845 0.0
H525 H 0.84916 0.40293 0.13305 0.0
C526 C 0.83118 0.35918 0.16758 0.0
C527 C 0.83999 0.33626 0.19407 0.0
C528 C 0.95078 0.42121 0.17013 0.0
C529 C 0.89018 0.38901 0.16695 0.0
C530 C 0.97744 0.44292 0.15062 0.0
C531 C 0.97138 0.45889 0.11251 0.0
C532 C 0.91786 0.41546 0.15144 0.0
C533 C 0.93774 0.45428 0.09694 0.0
C534 C 0.85626 0.38552 0.15371 0.0
C535 C 0.87422 0.34062 0.20621 0.0
N536 N 0.91225 0.43265 0.11613 0.0
N537 N 0.89798 0.36645 0.19261 0.0
H538 H 0.74899 0.83526 0.12385 0.0
H539 H 0.57479 0.88057 0.08477 0.0
H540 H 0.67031 0.80942 0.21813 0.0
H541 H 0.66975 0.94856 0.06024 0.0
H542 H 0.60598 0.84523 0.11865 0.0
H543 H 0.7172 0.86831 0.08572 0.0
C544 C 0.72497 0.83634 0.13643 0.0
C545 C 0.71255 0.81956 0.17459 0.0
C546 C 0.61994 0.86775 0.10538 0.0
C547 C 0.67542 0.85678 0.13007 0.0
C548 C 0.60215 0.88781 0.08565 0.0
C549 C 0.61959 0.91767 0.06946 0.0
C550 C 0.65554 0.87703 0.10783 0.0
C551 C 0.65518 0.92584 0.07224 0.0
C552 C 0.70688 0.85529 0.11467 0.0
C553 C 0.68115 0.82206 0.18917 0.0
N554 N 0.67189 0.90566 0.09063 0.0
N555 N 0.66361 0.83994 0.16676 0.0
H556 H 0.18257 0.75318 0.10655 0.0
H557 H 0.09717 0.56511 0.08056 0.0
H558 H 0.21916 0.68311 0.17713 0.0
H559 H 0.06618 0.63533 0.0027 0.0
H560 H 0.14487 0.60747 0.11205 0.0
H561 H 0.14306 0.70998 0.06319 0.0
C562 C 0.18258 0.72871 0.11247 0.0
C563 C 0.20385 0.72167 0.14575 0.0
C564 C 0.12776 0.61355 0.08781 0.0
C565 C 0.15847 0.67208 0.0968 0.0
C566 C 0.10048 0.58936 0.06988 0.0
C567 C 0.07737 0.59668 0.03931 0.0
C568 C 0.13189 0.6453 0.07524 0.0
C569 C 0.08312 0.62854 0.02647 0.0
C570 C 0.15998 0.70403 0.08782 0.0
C571 C 0.20298 0.68956 0.15197 0.0
N572 N 0.10959 0.65165 0.04473 0.0
N573 N 0.18036 0.66593 0.12812 0.0
H574 H 0.34239 0.78225 0.84722 0.0
H575 H 0.42929 0.95738 0.94176 0.0
H576 H 0.28722 0.85287 0.85958 0.0
H577 H 0.47254 0.87839 0.96023 0.0
H578 H 0.37633 0.91971 0.9147 0.0
H579 H 0.38898 0.81651 0.89219 0.0
C580 C 0.3398 0.80474 0.86035 0.0
C581 C 0.31087 0.81467 0.84987 0.0
C582 C 0.39729 0.91061 0.92514 0.0
C583 C 0.36477 0.85473 0.90031 0.0
C584 C 0.42764 0.93211 0.9404 0.0
C585 C 0.45569 0.92113 0.95276 0.0
C586 C 0.39499 0.87787 0.92169 0.0
C587 C 0.45179 0.88806 0.95079 0.0
C588 C 0.36653 0.82441 0.88588 0.0
C589 C 0.30902 0.84424 0.86722 0.0
N590 N 0.42222 0.86771 0.93503 0.0
N591 N 0.33591 0.86352 0.89102 0.0
H592 H 0.17801 0.27063 0.90663 0.0
H593 H 0.15596 0.44552 0.95127 0.0
H594 H 0.25178 0.35696 0.87138 0.0
H595 H 0.07553 0.35807 0.95556 0.0
H596 H 0.19564 0.41391 0.93632 0.0
H597 H 0.14527 0.30303 0.94145 0.0
C598 C 0.18764 0.29642 0.90705 0.0
C599 C 0.21733 0.31121 0.88563 0.0
C600 C 0.1693 0.40173 0.94067 0.0
C601 C 0.17981 0.34835 0.92452 0.0
C602 C 0.14662 0.41973 0.94892 0.0
C603 C 0.11225 0.40445 0.95377 0.0
C604 C 0.15751 0.36825 0.93762 0.0
C605 C 0.10167 0.37094 0.95124 0.0
C606 C 0.16885 0.3149 0.92661 0.0
C607 C 0.2288 0.34467 0.88723 0.0
N608 N 0.12416 0.35401 0.94322 0.0
N609 N 0.20977 0.36218 0.90579 0.0
H610 H 0.69613 0.20882 0.85573 0.0
H611 H 0.59791 0.03389 0.90114 0.0
H612 H 0.72847 0.13592 0.78453 0.0
H613 H 0.54729 0.10451 0.86141 0.0
H614 H 0.65091 0.06818 0.8737 0.0
H615 H 0.64716 0.16805 0.87938 0.0
C616 C 0.69344 0.18418 0.84578 0.0
C617 C 0.71623 0.17586 0.81742 0.0
C618 C 0.62791 0.07563 0.87043 0.0
C619 C 0.66016 0.12929 0.84463 0.0
C620 C 0.59773 0.05618 0.88583 0.0
C621 C 0.56818 0.06651 0.88392 0.0
C622 C 0.62841 0.1057 0.85429 0.0
C623 C 0.56937 0.09557 0.86375 0.0
C624 C 0.66529 0.16105 0.85902 0.0
C625 C 0.71133 0.14338 0.80603 0.0
N626 N 0.59919 0.11448 0.85064 0.0
N627 N 0.68355 0.12109 0.81954 0.0
H628 H 0.87913 0.74085 0.88869 0.0
H629 H 0.87033 0.55733 0.91726 0.0
H630 H 0.7864 0.66483 0.88487 0.0
H631 H 0.96315 0.63316 0.92962 0.0
H632 H 0.83863 0.59723 0.91444 0.0
H633 H 0.90964 0.70322 0.91533 0.0
C634 C 0.86509 0.71644 0.89458 0.0
C635 C 0.83035 0.70574 0.88397 0.0
C636 C 0.86593 0.6052 0.91795 0.0
C637 C 0.86501 0.66251 0.91324 0.0
C638 C 0.88404 0.58241 0.91912 0.0
C639 C 0.91941 0.59198 0.92296 0.0
C640 C 0.88333 0.63786 0.92001 0.0
C641 C 0.93587 0.62478 0.92615 0.0
C642 C 0.88252 0.6949 0.90945 0.0
C643 C 0.8133 0.67393 0.89218 0.0
N644 N 0.91771 0.64657 0.92419 0.0
N645 N 0.83089 0.6533 0.90561 0.0
H646 H 0.15303 0.27313 0.10662 0.0
H647 H 0.16192 0.45645 0.07525 0.0
H648 H 0.2461 0.34854 0.10625 0.0
H649 H 0.06922 0.38063 0.06061 0.0
H650 H 0.19355 0.41652 0.07976 0.0
H651 H 0.12234 0.31075 0.0805 0.0
C652 C 0.16709 0.2974 0.09997 0.0
C653 C 0.20205 0.30789 0.10911 0.0
C654 C 0.16629 0.40855 0.0754 0.0
C655 C 0.16715 0.35119 0.0804 0.0
C656 C 0.14821 0.43137 0.07326 0.0
C657 C 0.11286 0.42183 0.06823 0.0
C658 C 0.14891 0.3759 0.07315 0.0
C659 C 0.09645 0.38901 0.06495 0.0
C660 C 0.14955 0.31894 0.08537 0.0
C661 C 0.21906 0.33957 0.1 0.0
N662 N 0.11458 0.36721 0.06787 0.0
N663 N 0.20139 0.36023 0.08685 0.0
H664 H 0.22266 0.67688 0.87046 0.0
H665 H 0.02919 0.5773 0.8331 0.0
H666 H 0.15236 0.70439 0.78022 0.0
H667 H 0.10037 0.55043 0.92263 0.0
H668 H 0.07475 0.6219 0.80925 0.0
H669 H 0.1779 0.63016 0.88952 0.0
C670 C 0.19768 0.67338 0.85511 0.0
C671 C 0.19131 0.69458 0.82359 0.0
C672 C 0.08044 0.606 0.83373 0.0
C673 C 0.14008 0.64068 0.84458 0.0
C674 C 0.05451 0.58024 0.84696 0.0
C675 C 0.06085 0.56026 0.88034 0.0
C676 C 0.11284 0.61175 0.85402 0.0
C677 C 0.0942 0.56539 0.89714 0.0
C678 C 0.17219 0.6465 0.86572 0.0
C679 C 0.15842 0.68877 0.80482 0.0
N680 N 0.11883 0.59085 0.88421 0.0
N681 N 0.13408 0.66222 0.81539 0.0
H682 H 0.32671 0.21997 0.87993 0.0
H683 H 0.39701 0.06575 0.86063 0.0
H684 H 0.32111 0.16351 0.75941 0.0
H685 H 0.43413 0.13698 0.96518 0.0
H686 H 0.36387 0.09881 0.82846 0.0
H687 H 0.36061 0.18801 0.91611 0.0
C688 C 0.33234 0.20078 0.86106 0.0
C689 C 0.32073 0.19454 0.81632 0.0
C690 C 0.37919 0.10739 0.85843 0.0
C691 C 0.35965 0.1576 0.85797 0.0
C692 C 0.39821 0.08835 0.87717 0.0
C693 C 0.41879 0.09836 0.91596 0.0
C694 C 0.37992 0.13692 0.87851 0.0
C695 C 0.41893 0.12818 0.93522 0.0
C696 C 0.35193 0.18265 0.88177 0.0
C697 C 0.3293 0.16942 0.79379 0.0
N698 N 0.39972 0.14628 0.91648 0.0
N699 N 0.34789 0.15194 0.81479 0.0
H700 H 0.86476 0.25898 0.85879 0.0
H701 H 0.93592 0.44721 0.90648 0.0
H702 H 0.8204 0.32855 0.80019 0.0
H703 H 0.9722 0.37663 0.97663 0.0
H704 H 0.89164 0.40409 0.86972 0.0
H705 H 0.90241 0.30161 0.90532 0.0
C706 C 0.8627 0.28317 0.85613 0.0
C707 C 0.8396 0.29029 0.8255 0.0
C708 C 0.90916 0.39808 0.89341 0.0
C709 C 0.88276 0.33924 0.87809 0.0
C710 C 0.93448 0.4227 0.91436 0.0
C711 C 0.95801 0.41558 0.94445 0.0
C712 C 0.90747 0.3661 0.90239 0.0
C713 C 0.95477 0.38334 0.95352 0.0
C714 C 0.8842 0.30752 0.88261 0.0
C715 C 0.83788 0.32201 0.82338 0.0
N716 N 0.93019 0.35985 0.93235 0.0
N717 N 0.85941 0.34536 0.84897 0.0
H718 H 0.70875 0.78762 0.8775 0.0
H719 H 0.64956 0.94849 0.88893 0.0
H720 H 0.71943 0.84934 0.76552 0.0
H721 H 0.5943 0.86241 0.95059 0.0
H722 H 0.68456 0.91791 0.85302 0.0
H723 H 0.67608 0.81976 0.91417 0.0
C724 C 0.70454 0.80807 0.86067 0.0
C725 C 0.71701 0.81553 0.81806 0.0
C726 C 0.66486 0.90579 0.87459 0.0
C727 C 0.67983 0.85315 0.86073 0.0
C728 C 0.64498 0.9233 0.89537 0.0
C729 C 0.61869 0.90813 0.92288 0.0
C730 C 0.65928 0.87293 0.88232 0.0
C731 C 0.61401 0.87523 0.92954 0.0
C732 C 0.6857 0.82637 0.88165 0.0
C733 C 0.71032 0.84241 0.79815 0.0
N734 N 0.63412 0.85896 0.9099 0.0
N735 N 0.69258 0.86028 0.81968 0.0
H736 H 0.78214 0.66134 0.11679 0.0
H737 H 0.96234 0.65726 0.03368 0.0
H738 H 0.86342 0.74542 0.09451 0.0
H739 H 0.87922 0.57233 0.04254 0.0
H740 H 0.9245 0.68977 0.04979 0.0
H741 H 0.81454 0.62846 0.08222 0.0
C742 C 0.80654 0.67292 0.10377 0.0
C743 C 0.82037 0.70606 0.1089 0.0
C744 C 0.91441 0.66404 0.04819 0.0
C745 C 0.85773 0.66865 0.07012 0.0
C746 C 0.93611 0.64537 0.03933 0.0
C747 C 0.92409 0.61192 0.03756 0.0
C748 C 0.88036 0.64929 0.05598 0.0
C749 C 0.88967 0.59801 0.04426 0.0
C750 C 0.82507 0.65413 0.08423 0.0
C751 C 0.85197 0.7199 0.09145 0.0
N752 N 0.86904 0.61677 0.05361 0.0
N753 N 0.86979 0.70108 0.07337 0.0
H754 H 0.36108 0.80554 0.13958 0.0
H755 H 0.44354 0.9846 0.08662 0.0
H756 H 0.30916 0.87563 0.17616 0.0
H757 H 0.50145 0.92194 0.13465 0.0
H758 H 0.39186 0.94621 0.11005 0.0
H759 H 0.41024 0.84857 0.12243 0.0
C760 C 0.35966 0.82994 0.14319 0.0
C761 C 0.33099 0.83698 0.15978 0.0
C762 C 0.41604 0.94136 0.11616 0.0
C763 C 0.38747 0.88625 0.14059 0.0
C764 C 0.44551 0.96323 0.10313 0.0
C765 C 0.47682 0.95628 0.10827 0.0
C766 C 0.41805 0.91224 0.13341 0.0
C767 C 0.47793 0.92828 0.12987 0.0
C768 C 0.38797 0.85446 0.13398 0.0
C769 C 0.33083 0.86917 0.1637 0.0
N770 N 0.44883 0.90692 0.14074 0.0
N771 N 0.3588 0.89278 0.15422 0.0
H772 H 0.684 0.22864 0.18547 0.0
H773 H 0.61405 0.06889 0.04235 0.0
H774 H 0.75148 0.18019 0.12764 0.0
H775 H 0.55906 0.14 0.05229 0.0
H776 H 0.66418 0.1075 0.07602 0.0
H777 H 0.63732 0.19511 0.13943 0.0
C778 C 0.68911 0.2113 0.16249 0.0
C779 C 0.72173 0.20738 0.16016 0.0
C780 C 0.64122 0.11471 0.07036 0.0
C781 C 0.66809 0.16811 0.10827 0.0
C782 C 0.61255 0.09266 0.05135 0.0
C783 C 0.58219 0.10112 0.04471 0.0
C784 C 0.63936 0.14524 0.08367 0.0
C785 C 0.58186 0.13237 0.05674 0.0
C786 C 0.66241 0.19208 0.1363 0.0
C787 C 0.72675 0.18412 0.13028 0.0
N788 N 0.60982 0.15311 0.07615 0.0
N789 N 0.7001 0.16501 0.10593 0.0
H790 H 0.68698 0.64689 0.71802 0.0
H791 H 0.61101 0.58201 0.95159 0.0
H792 H 0.71266 0.70252 0.8404 0.0
H793 H 0.57134 0.53961 0.82366 0.0
H794 H 0.65527 0.6216 0.91408 0.0
H795 H 0.6513 0.60315 0.75875 0.0
C796 C 0.68528 0.64985 0.75358 0.0
C797 C 0.70268 0.67854 0.77573 0.0
C798 C 0.63714 0.60333 0.89433 0.0
C799 C 0.6617 0.62825 0.8229 0.0
C800 C 0.61209 0.58051 0.91575 0.0
C801 C 0.58738 0.55739 0.89074 0.0
C802 C 0.6377 0.60282 0.84762 0.0
C803 C 0.58976 0.55699 0.84431 0.0
C804 C 0.66485 0.62481 0.77687 0.0
C805 C 0.69962 0.68085 0.82196 0.0
N806 N 0.61425 0.57934 0.82437 0.0
N807 N 0.67941 0.65611 0.84399 0.0
H808 H 0.4047 0.72473 0.82307 0.0
H809 H 0.39913 0.56188 0.90137 0.0
H810 H 0.32009 0.67455 0.89834 0.0
H811 H 0.49422 0.63482 0.91473 0.0
H812 H 0.36951 0.60344 0.90217 0.0
H813 H 0.43977 0.69513 0.86028 0.0
C814 C 0.39385 0.70791 0.84825 0.0
C815 C 0.35958 0.70114 0.85715 0.0
C816 C 0.39685 0.61027 0.90559 0.0
C817 C 0.39879 0.66711 0.8986 0.0
C818 C 0.41369 0.5867 0.90405 0.0
C819 C 0.44901 0.59527 0.90656 0.0
C820 C 0.41563 0.64243 0.90833 0.0
C821 C 0.46688 0.62755 0.91169 0.0
C822 C 0.41382 0.6913 0.86969 0.0
C823 C 0.34646 0.67978 0.89037 0.0
N824 N 0.44995 0.65019 0.91145 0.0
N825 N 0.36593 0.66254 0.90908 0.0
H826 H 0.32379 0.29698 0.83916 0.0
H827 H 0.47388 0.45722 0.86763 0.0
H828 H 0.36478 0.35393 0.72784 0.0
H829 H 0.45314 0.38286 0.9642 0.0
H830 H 0.42803 0.42462 0.81926 0.0
H831 H 0.36457 0.33399 0.88886 0.0
C832 C 0.34123 0.31749 0.82522 0.0
C833 C 0.34126 0.32233 0.77933 0.0
C834 C 0.43354 0.41554 0.85106 0.0
C835 C 0.38803 0.36462 0.836 0.0
C836 C 0.45961 0.43407 0.87872 0.0
C837 C 0.4674 0.42258 0.91987 0.0
C838 C 0.41494 0.38552 0.86495 0.0
C839 C 0.44814 0.3925 0.93259 0.0
C840 C 0.36457 0.3385 0.85361 0.0
C841 C 0.36419 0.34935 0.76305 0.0
N842 N 0.42273 0.375 0.9052 0.0
N843 N 0.38691 0.36952 0.79145 0.0
H844 H 0.6497 0.2904 0.81612 0.0
H845 H 0.65447 0.43125 0.98568 0.0
H846 H 0.74449 0.34964 0.87189 0.0
H847 H 0.56911 0.34788 0.96794 0.0
H848 H 0.6891 0.40284 0.94612 0.0
H849 H 0.61986 0.31328 0.87069 0.0
C850 C 0.66418 0.30835 0.83984 0.0
C851 C 0.69948 0.31838 0.83951 0.0
C852 C 0.66295 0.39064 0.95173 0.0
C853 C 0.66566 0.34454 0.90209 0.0
C854 C 0.64322 0.40676 0.97445 0.0
C855 C 0.60869 0.39213 0.97922 0.0
C856 C 0.64779 0.35999 0.93342 0.0
C857 C 0.59545 0.36033 0.96423 0.0
C858 C 0.64721 0.32117 0.87125 0.0
C859 C 0.71716 0.34147 0.87112 0.0
N860 N 0.61487 0.34553 0.94125 0.0
N861 N 0.70001 0.35409 0.90103 0.0
H862 H 0.66032 0.34019 0.27755 0.0
H863 H 0.55386 0.37306 0.06823 0.0
H864 H 0.65776 0.29536 0.14798 0.0
H865 H 0.5944 0.44022 0.17679 0.0
H866 H 0.57205 0.33201 0.10879 0.0
H867 H 0.61571 0.3636 0.25159 0.0
C868 C 0.65004 0.33505 0.24379 0.0
C869 C 0.66323 0.3169 0.21419 0.0
C870 C 0.57626 0.35561 0.12392 0.0
C871 C 0.61251 0.34299 0.18481 0.0
C872 C 0.56618 0.37902 0.10078 0.0
C873 C 0.57403 0.41024 0.11859 0.0
C874 C 0.59363 0.36364 0.16517 0.0
C875 C 0.58905 0.41663 0.16133 0.0
C876 C 0.62454 0.34815 0.22919 0.0
C877 C 0.64873 0.31011 0.17123 0.0
N878 N 0.59878 0.39354 0.18306 0.0
N879 N 0.62433 0.32366 0.15745 0.0
H880 H 0.71112 0.71697 0.14908 0.0
H881 H 0.57451 0.54752 0.11607 0.0
H882 H 0.67607 0.65478 0.25775 0.0
H883 H 0.58998 0.62221 0.02013 0.0
H884 H 0.61852 0.58239 0.16486 0.0
H885 H 0.67408 0.67784 0.09779 0.0
C886 C 0.69583 0.69488 0.16207 0.0
C887 C 0.69635 0.6891 0.20769 0.0
C888 C 0.61232 0.59103 0.13305 0.0
C889 C 0.65382 0.64439 0.14928 0.0
C890 C 0.58729 0.57118 0.10517 0.0
C891 C 0.57841 0.58215 0.06419 0.0
C892 C 0.62875 0.62188 0.11959 0.0
C893 C 0.59581 0.61293 0.05164 0.0
C894 C 0.67461 0.67264 0.1328 0.0
C895 C 0.67614 0.66013 0.22278 0.0
N896 N 0.62014 0.63176 0.0793 0.0
N897 N 0.65547 0.63882 0.19358 0.0
H898 H 0.38486 0.69907 0.19866 0.0
H899 H 0.38995 0.5753 0.0065 0.0
H900 H 0.30113 0.66919 0.10299 0.0
H901 H 0.47853 0.6468 0.05825 0.0
H902 H 0.35442 0.60345 0.04538 0.0
H903 H 0.4174 0.67217 0.15328 0.0
C904 C 0.3733 0.68662 0.1682 0.0
C905 C 0.34047 0.68634 0.15427 0.0
C906 C 0.38165 0.61297 0.04763 0.0
C907 C 0.37734 0.65566 0.10242 0.0
C908 C 0.40187 0.597 0.0256 0.0
C909 C 0.4372 0.60855 0.02966 0.0
C910 C 0.3971 0.64007 0.07442 0.0
C911 C 0.45142 0.63689 0.05445 0.0
C912 C 0.3919 0.67152 0.14221 0.0
C913 C 0.32653 0.66994 0.11457 0.0
N914 N 0.43133 0.6514 0.07643 0.0
N915 N 0.34507 0.65501 0.0899 0.0
H916 H 0.32234 0.30949 0.14807 0.0
H917 H 0.47227 0.47204 0.16167 0.0
H918 H 0.35333 0.3677 0.26747 0.0
H919 H 0.43315 0.42342 0.03711 0.0
H920 H 0.4273 0.43478 0.19986 0.0
H921 H 0.36098 0.351 0.10596 0.0
C922 C 0.33705 0.33109 0.16538 0.0
C923 C 0.33465 0.33501 0.21148 0.0
C924 C 0.42821 0.43235 0.16412 0.0
C925 C 0.37919 0.38259 0.1635 0.0
C926 C 0.45393 0.45375 0.14219 0.0
C927 C 0.45663 0.451 0.09599 0.0
C928 C 0.40497 0.40746 0.14 0.0
C929 C 0.432 0.42667 0.07269 0.0
C930 C 0.35913 0.35479 0.1413 0.0
C931 C 0.35439 0.36351 0.23208 0.0
N932 N 0.40748 0.40566 0.09496 0.0
N933 N 0.37588 0.38598 0.2081 0.0
H934 H 0.79678 0.69071 0.61097 0.0
H935 H 0.96406 0.63027 0.63365 0.0
H936 H 0.85704 0.69709 0.73243 0.0
H937 H 0.88694 0.58908 0.53268 0.0
H938 H 0.92766 0.66035 0.66412 0.0
H939 H 0.83112 0.65889 0.57645 0.0
C940 C 0.81715 0.68554 0.63046 0.0
C941 C 0.82375 0.69681 0.67498 0.0
C942 C 0.91853 0.64482 0.63525 0.0
C943 C 0.86366 0.66055 0.63515 0.0
C944 C 0.9395 0.62755 0.6175 0.0
C945 C 0.92889 0.60678 0.58018 0.0
C946 C 0.8864 0.64213 0.61556 0.0
C947 C 0.89642 0.60464 0.56137 0.0
C948 C 0.8367 0.66722 0.61068 0.0
C949 C 0.85062 0.68906 0.69823 0.0
N950 N 0.87649 0.62215 0.57901 0.0
N951 N 0.86949 0.67183 0.67811 0.0
H952 H 0.32673 0.80594 0.61822 0.0
H953 H 0.45813 0.97031 0.66733 0.0
H954 H 0.38295 0.82404 0.74409 0.0
H955 H 0.45253 0.92291 0.53888 0.0
H956 H 0.42539 0.91955 0.6974 0.0
H957 H 0.368 0.85188 0.58796 0.0
C958 C 0.34798 0.8193 0.63916 0.0
C959 C 0.3516 0.81129 0.6835 0.0
C960 C 0.43183 0.92042 0.66278 0.0
C961 C 0.39779 0.86383 0.64991 0.0
C962 C 0.45029 0.94924 0.64568 0.0
C963 C 0.45798 0.95073 0.60069 0.0
C964 C 0.42037 0.89346 0.63427 0.0
C965 C 0.44728 0.92277 0.57387 0.0
C966 C 0.37141 0.84535 0.622 0.0
C967 C 0.37945 0.82934 0.70955 0.0
N968 N 0.42852 0.89535 0.59093 0.0
N969 N 0.40124 0.85522 0.69257 0.0
H970 H 0.20512 0.28661 0.61054 0.0
H971 H 0.15143 0.44974 0.61832 0.0
H972 H 0.22068 0.34839 0.72731 0.0
H973 H 0.09725 0.37114 0.53207 0.0
H974 H 0.18238 0.41517 0.65283 0.0
H975 H 0.17136 0.31918 0.5755 0.0
C976 C 0.20173 0.30712 0.62874 0.0
C977 C 0.21605 0.3147 0.67207 0.0
C978 C 0.16362 0.40531 0.62655 0.0
C979 C 0.17741 0.35231 0.6318 0.0
C980 C 0.14587 0.42509 0.60671 0.0
C981 C 0.12133 0.41339 0.57238 0.0
C982 C 0.1577 0.37347 0.61148 0.0
C983 C 0.11553 0.38115 0.55879 0.0
C984 C 0.18219 0.32556 0.60878 0.0
C985 C 0.21028 0.34146 0.69397 0.0
N986 N 0.13379 0.36244 0.57799 0.0
N987 N 0.19181 0.3593 0.67358 0.0
H988 H 0.74167 0.17839 0.66274 0.0
H989 H 0.56356 0.0877 0.55545 0.0
H990 H 0.66695 0.2282 0.63102 0.0
H991 H 0.65179 0.05393 0.5384 0.0
H992 H 0.60006 0.13889 0.58409 0.0
H993 H 0.70905 0.13256 0.61789 0.0
C994 C 0.71871 0.17996 0.64548 0.0
C995 C 0.70717 0.20728 0.6503 0.0
C996 C 0.61145 0.1204 0.57364 0.0
C997 C 0.66889 0.15421 0.60007 0.0
C998 C 0.59064 0.09107 0.55755 0.0
C999 C 0.60462 0.06631 0.54493 0.0
C1000 C 0.64649 0.12487 0.57799 0.0
C1001 C 0.6399 0.07225 0.54792 0.0
C1002 C 0.7 0.15366 0.62 0.0
C1003 C 0.67685 0.20767 0.62791 0.0
N1004 N 0.65957 0.10075 0.56473 0.0
N1005 N 0.65841 0.18127 0.6043 0.0
H1006 H 0.8523 0.30751 0.32864 0.0
H1007 H 0.88348 0.4635 0.48441 0.0
H1008 H 0.77299 0.33366 0.39719 0.0
H1009 H 0.96328 0.43299 0.42316 0.0
H1010 H 0.84344 0.41304 0.45987 0.0
H1011 H 0.89412 0.34952 0.37075 0.0
C1012 C 0.84375 0.32174 0.35319 0.0
C1013 C 0.80916 0.31746 0.35901 0.0
C1014 C 0.86976 0.41729 0.45212 0.0
C1015 C 0.85677 0.36591 0.4068 0.0
C1016 C 0.89265 0.44617 0.46599 0.0
C1017 C 0.92673 0.45281 0.45515 0.0
C1018 C 0.88099 0.39492 0.42702 0.0
C1019 C 0.93719 0.4292 0.43176 0.0
C1020 C 0.86761 0.34581 0.37712 0.0
C1021 C 0.79943 0.33639 0.3914 0.0
N1022 N 0.91435 0.4015 0.41811 0.0
N1023 N 0.8231 0.36014 0.41361 0.0
H1024 H 0.74866 0.85719 0.3852 0.0
H1025 H 0.5631 0.87082 0.41688 0.0
H1026 H 0.66173 0.7757 0.39257 0.0
H1027 H 0.65102 0.95124 0.43795 0.0
H1028 H 0.59969 0.83536 0.41402 0.0
H1029 H 0.71511 0.89156 0.41268 0.0
C1030 C 0.72272 0.84644 0.39365 0.0
C1031 C 0.70773 0.81367 0.38602 0.0
C1032 C 0.61109 0.86072 0.4195 0.0
C1033 C 0.66906 0.85284 0.41639 0.0
C1034 C 0.5902 0.88105 0.42066 0.0
C1035 C 0.60411 0.91409 0.4268 0.0
C1036 C 0.6463 0.87352 0.42367 0.0
C1037 C 0.63933 0.92592 0.43256 0.0
C1038 C 0.70354 0.86609 0.40916 0.0
C1039 C 0.67414 0.80091 0.39762 0.0
N1040 N 0.65929 0.90568 0.43028 0.0
N1041 N 0.65574 0.82062 0.41144 0.0
H1042 H 0.23109 0.65262 0.29021 0.0
H1043 H 0.0658 0.5925 0.42879 0.0
H1044 H 0.17737 0.71763 0.34048 0.0
H1045 H 0.10585 0.53123 0.34471 0.0
H1046 H 0.10648 0.63898 0.39969 0.0
H1047 H 0.18717 0.60808 0.3164 0.0
C1048 C 0.21024 0.65763 0.30719 0.0
C1049 C 0.20786 0.68898 0.31289 0.0
C1050 C 0.10598 0.61534 0.38729 0.0
C1051 C 0.1571 0.63779 0.34255 0.0
C1052 C 0.08264 0.58878 0.40362 0.0
C1053 C 0.08265 0.55781 0.38959 0.0
C1054 C 0.12958 0.6108 0.35709 0.0
C1055 C 0.10507 0.55455 0.35689 0.0
C1056 C 0.18496 0.63208 0.32178 0.0
C1057 C 0.18022 0.69385 0.33532 0.0
N1058 N 0.12789 0.58069 0.34222 0.0
N1059 N 0.15579 0.66845 0.34928 0.0
H1060 H 0.28305 0.17845 0.39868 0.0
H1061 H 0.45985 0.14308 0.45904 0.0
H1062 H 0.37918 0.24746 0.38279 0.0
H1063 H 0.36429 0.07109 0.44186 0.0
H1064 H 0.43054 0.18436 0.44594 0.0
H1065 H 0.31238 0.14232 0.43225 0.0
C1066 C 0.31033 0.18625 0.40314 0.0
C1067 C 0.32882 0.21572 0.38744 0.0
C1068 C 0.41608 0.1595 0.44513 0.0
C1069 C 0.36255 0.17431 0.42485 0.0
C1070 C 0.43278 0.13593 0.45228 0.0
C1071 C 0.41458 0.10354 0.45066 0.0
C1072 C 0.38095 0.15055 0.43667 0.0
C1073 C 0.37947 0.09569 0.44263 0.0
C1074 C 0.32707 0.16554 0.422 0.0
C1075 C 0.36406 0.22478 0.39423 0.0
N1076 N 0.36385 0.11901 0.43586 0.0
N1077 N 0.37991 0.2039 0.41186 0.0
H1078 H 0.75153 0.8379 0.59276 0.0
H1079 H 0.57307 0.87027 0.53429 0.0
H1080 H 0.65607 0.76772 0.608 0.0
H1081 H 0.66791 0.94354 0.54864 0.0
H1082 H 0.60341 0.82978 0.54676 0.0
H1083 H 0.72153 0.87356 0.55922 0.0
C1084 C 0.72428 0.82975 0.58813 0.0
C1085 C 0.70613 0.80011 0.6037 0.0
C1086 C 0.61751 0.85474 0.54712 0.0
C1087 C 0.67167 0.8409 0.56634 0.0
C1088 C 0.60021 0.87786 0.54035 0.0
C1089 C 0.61791 0.91038 0.54132 0.0
C1090 C 0.65272 0.86424 0.55468 0.0
C1091 C 0.65313 0.91881 0.5484 0.0
C1092 C 0.70715 0.85018 0.56931 0.0
C1093 C 0.67091 0.79057 0.59674 0.0
N1094 N 0.66934 0.8959 0.55492 0.0
N1095 N 0.65471 0.81115 0.57913 0.0
H1096 H 0.66045 0.21884 0.33961 0.0
H1097 H 0.59848 0.03016 0.34625 0.0
H1098 H 0.72703 0.15822 0.32528 0.0
H1099 H 0.55139 0.08928 0.42405 0.0
H1100 H 0.63979 0.07816 0.32303 0.0
H1101 H 0.61535 0.17223 0.35995 0.0
C1102 C 0.66567 0.1958 0.34145 0.0
C1103 C 0.69738 0.19221 0.3309 0.0
C1104 C 0.62015 0.08053 0.34483 0.0
C1105 C 0.64602 0.13919 0.35245 0.0
C1106 C 0.5963 0.05323 0.35761 0.0
C1107 C 0.57173 0.05577 0.38755 0.0
C1108 C 0.61907 0.11044 0.36162 0.0
C1109 C 0.57018 0.08631 0.40128 0.0
C1110 C 0.63997 0.16933 0.35276 0.0
C1111 C 0.70298 0.16197 0.33355 0.0
N1112 N 0.59379 0.11259 0.38839 0.0
N1113 N 0.67731 0.13643 0.34353 0.0
H1114 H 0.78674 0.68967 0.37715 0.0
H1115 H 0.96018 0.63965 0.39999 0.0
H1116 H 0.85911 0.70937 0.27405 0.0
H1117 H 0.86705 0.58132 0.44942 0.0
H1118 H 0.92817 0.67371 0.36436 0.0
H1119 H 0.82023 0.65802 0.41479 0.0
C1120 C 0.80971 0.68752 0.36247 0.0
C1121 C 0.81982 0.70215 0.32203 0.0
C1122 C 0.91485 0.65353 0.38325 0.0
C1123 C 0.85893 0.6664 0.36578 0.0
C1124 C 0.93315 0.63417 0.40382 0.0
C1125 C 0.91641 0.60739 0.42778 0.0
C1126 C 0.87962 0.64671 0.38765 0.0
C1127 C 0.88117 0.60152 0.43123 0.0
C1128 C 0.8288 0.66936 0.38397 0.0
C1129 C 0.85 0.69835 0.30485 0.0
N1130 N 0.86413 0.62101 0.41184 0.0
N1131 N 0.86852 0.68118 0.32686 0.0
H1132 H 0.35951 0.78171 0.36237 0.0
H1133 H 0.37918 0.96242 0.44111 0.0
H1134 H 0.3054 0.84224 0.2992 0.0
H1135 H 0.46397 0.92196 0.44292 0.0
H1136 H 0.34348 0.91216 0.40775 0.0
H1137 H 0.39042 0.82763 0.41029 0.0
C1138 C 0.35364 0.80437 0.35921 0.0
C1139 C 0.32957 0.80808 0.32715 0.0
C1140 C 0.36984 0.91429 0.41596 0.0
C1141 C 0.36417 0.86009 0.38184 0.0
C1142 C 0.39016 0.94285 0.43503 0.0
C1143 C 0.42465 0.94647 0.44413 0.0
C1144 C 0.38399 0.88902 0.40684 0.0
C1145 C 0.43759 0.9203 0.43571 0.0
C1146 C 0.37128 0.83047 0.38637 0.0
C1147 C 0.32317 0.83806 0.32406 0.0
N1148 N 0.41725 0.89264 0.41745 0.0
N1149 N 0.34026 0.86284 0.3511 0.0
H1150 H 0.18027 0.32137 0.25797 0.0
H1151 H 0.15277 0.42867 0.46698 0.0
H1152 H 0.23884 0.32622 0.38059 0.0
H1153 H 0.07969 0.3944 0.35889 0.0
H1154 H 0.18829 0.39666 0.43538 0.0
H1155 H 0.14754 0.35348 0.29299 0.0
C1156 C 0.18647 0.32921 0.2923 0.0
C1157 C 0.21263 0.32069 0.31606 0.0
C1158 C 0.16443 0.3962 0.41871 0.0
C1159 C 0.17463 0.3584 0.35702 0.0
C1160 C 0.14414 0.4146 0.4367 0.0
C1161 C 0.11289 0.4145 0.41583 0.0
C1162 C 0.15386 0.37793 0.37898 0.0
C1163 C 0.10329 0.39545 0.37664 0.0
C1164 C 0.16753 0.34762 0.31246 0.0
C1165 C 0.21897 0.33191 0.36072 0.0
N1166 N 0.12356 0.37839 0.35963 0.0
N1167 N 0.20033 0.3502 0.37958 0.0
H1168 H 0.27976 0.15262 0.60838 0.0
H1169 H 0.46466 0.13873 0.57794 0.0
H1170 H 0.36558 0.23437 0.59496 0.0
H1171 H 0.37703 0.05881 0.55162 0.0
H1172 H 0.42805 0.17429 0.58009 0.0
H1173 H 0.31321 0.11801 0.58126 0.0
C1174 C 0.30539 0.16335 0.59863 0.0
C1175 C 0.32015 0.1963 0.60449 0.0
C1176 C 0.41676 0.14902 0.57357 0.0
C1177 C 0.35872 0.15691 0.5746 0.0
C1178 C 0.43763 0.12865 0.57285 0.0
C1179 C 0.42376 0.09572 0.56543 0.0
C1180 C 0.38161 0.13633 0.56776 0.0
C1181 C 0.38866 0.08404 0.55801 0.0
C1182 C 0.32451 0.14358 0.58332 0.0
C1183 C 0.35335 0.20903 0.59131 0.0
N1184 N 0.36869 0.10428 0.55998 0.0
N1185 N 0.37176 0.18924 0.57781 0.0
H1186 H 0.85286 0.30133 0.62531 0.0
H1187 H 0.93588 0.48978 0.65119 0.0
H1188 H 0.81024 0.36533 0.70043 0.0
H1189 H 0.97104 0.42901 0.56034 0.0
H1190 H 0.89304 0.44314 0.67503 0.0
H1191 H 0.89786 0.34714 0.60329 0.0
C1192 C 0.85263 0.32501 0.63665 0.0
C1193 C 0.82773 0.32943 0.66491 0.0
C1194 C 0.91031 0.43998 0.65014 0.0
C1195 C 0.8796 0.38183 0.6406 0.0
C1196 C 0.93506 0.46658 0.63681 0.0
C1197 C 0.957 0.46345 0.60339 0.0
C1198 C 0.90744 0.40998 0.62997 0.0
C1199 C 0.95467 0.43267 0.58611 0.0
C1200 C 0.8785 0.35113 0.62432 0.0
C1201 C 0.82881 0.3607 0.67858 0.0
N1202 N 0.93008 0.40717 0.59931 0.0
N1203 N 0.85449 0.38566 0.66659 0.0
H1204 H 0.27573 0.66652 0.63943 0.0
H1205 H 0.08019 0.58949 0.57246 0.0
H1206 H 0.19585 0.70638 0.67978 0.0
H1207 H 0.15989 0.54971 0.53058 0.0
H1208 H 0.12277 0.63525 0.60584 0.0
H1209 H 0.2345 0.62674 0.5928 0.0
C1210 C 0.2496 0.66717 0.63796 0.0
C1211 C 0.23911 0.68956 0.6638 0.0
C1212 C 0.13098 0.61662 0.58911 0.0
C1213 C 0.19174 0.64398 0.61095 0.0
C1214 C 0.10664 0.59039 0.57006 0.0
C1215 C 0.11637 0.56543 0.54905 0.0
C1216 C 0.16541 0.61795 0.58736 0.0
C1217 C 0.15111 0.56821 0.54668 0.0
C1218 C 0.22604 0.6444 0.61147 0.0
C1219 C 0.20497 0.6894 0.66059 0.0
N1220 N 0.17431 0.59383 0.5659 0.0
N1221 N 0.18247 0.66677 0.63504 0.0
loop_
_geom_bond_atom_site_label_1
_geom_bond_atom_site_label_2
_geom_bond_distance
_geom_bond_site_symmetry_2
_ccdc_geom_bond_type
Dy0 O4 2.398 . S
Dy0 O5 2.491 . S
Dy0 O6 2.403 . S
Dy0 O7 2.664 . S
Dy0 O11 2.326 . S
Dy0 O15 2.310 . S
Dy0 O16 2.351 . S
C1 O12 1.185 . S
C1 O13 1.355 . S
C2 O4 1.185 . S
C2 O5 1.355 . S
Dy3 O7 2.310 . S
Dy3 O10 2.351 . S
Dy3 O12 2.398 . S
Dy3 O13 2.491 . S
Dy3 O14 2.403 . S
Dy3 O15 2.664 . S
Dy3 O17 2.326 . S
O4 Dy0 2.398 . S
O4 C2 1.185 . S
O5 Dy0 2.491 . S
O5 C2 1.355 . S
O6 Dy0 2.403 . S
O6 C8 1.254 . S
O7 Dy0 2.664 . S
O7 Dy3 2.310 . S
O7 C8 1.268 . S
C8 O6 1.254 . S
C8 O7 1.268 . S
C9 O14 1.254 . S
C9 O15 1.268 . S
O10 Dy3 2.351 . S
O10 C18 1.249 . S
O11 Dy0 2.326 . S
O11 C18 1.267 . S
O12 C1 1.185 . S
O12 Dy3 2.398 . S
O13 C1 1.355 . S
O13 Dy3 2.491 . S
O14 Dy3 2.403 . S
O14 C9 1.254 . S
O15 Dy0 2.310 . S
O15 Dy3 2.664 . S
O15 C9 1.268 . S
O16 Dy0 2.351 . S
O16 C19 1.249 . S
O17 Dy3 2.326 . S
O17 C19 1.267 . S
C18 O10 1.249 . S
C18 O11 1.267 . S
C19 O16 1.249 . S
C19 O17 1.267 . S
Dy20 O24 2.398 . S
Dy20 O25 2.491 . S
Dy20 O26 2.403 . S
Dy20 O27 2.664 . S
Dy20 O31 2.326 . S
Dy20 O35 2.310 . S
Dy20 O36 2.351 . S
C21 O32 1.185 . S
C21 O33 1.355 . S
C22 O24 1.185 . S
C22 O25 1.355 . S
Dy23 O27 2.310 . S
Dy23 O30 2.351 . S
Dy23 O32 2.398 . S
Dy23 O33 2.491 . S
Dy23 O34 2.403 . S
Dy23 O35 2.664 . S
Dy23 O37 2.326 . S
O24 Dy20 2.398 . S
O24 C22 1.185 . S
O25 Dy20 2.491 . S
O25 C22 1.355 . S
O26 Dy20 2.403 . S
O26 C28 1.254 . S
O27 Dy20 2.664 . S
O27 Dy23 2.310 . S
O27 C28 1.268 . S
C28 O26 1.254 . S
C28 O27 1.268 . S
C29 O34 1.254 . S
C29 O35 1.268 . S
O30 Dy23 2.351 . S
O30 C38 1.249 . S
O31 Dy20 2.326 . S
O31 C38 1.267 . S
O32 C21 1.185 . S
O32 Dy23 2.398 . S
O33 C21 1.355 . S
O33 Dy23 2.491 . S
O34 Dy23 2.403 . S
O34 C29 1.254 . S
O35 Dy20 2.310 . S
O35 Dy23 2.664 . S
O35 C29 1.268 . S
O36 Dy20 2.351 . S
O36 C39 1.249 . S
O37 Dy23 2.326 . S
O37 C39 1.267 . S
C38 O30 1.249 . S
C38 O31 1.267 . S
C39 O36 1.249 . S
C39 O37 1.267 . S
Dy40 O44 2.398 . S
Dy40 O45 2.491 . S
Dy40 O46 2.403 . S
Dy40 O47 2.664 . S
Dy40 O51 2.326 . S
Dy40 O55 2.310 . S
Dy40 O56 2.351 . S
C41 O52 1.185 . S
C41 O53 1.355 . S
C42 O44 1.185 . S
C42 O45 1.355 . S
Dy43 O47 2.310 . S
Dy43 O50 2.351 . S
Dy43 O52 2.398 . S
Dy43 O53 2.491 . S
Dy43 O54 2.403 . S
Dy43 O55 2.664 . S
Dy43 O57 2.326 . S
O44 Dy40 2.398 . S
O44 C42 1.185 . S
O45 Dy40 2.491 . S
O45 C42 1.355 . S
O46 Dy40 2.403 . S
O46 C48 1.254 . S
O47 Dy40 2.664 . S
O47 Dy43 2.310 . S
O47 C48 1.268 . S
C48 O46 1.254 . S
C48 O47 1.268 . S
C49 O54 1.254 . S
C49 O55 1.268 . S
O50 Dy43 2.351 . S
O50 C58 1.249 . S
O51 Dy40 2.326 . S
O51 C58 1.267 . S
O52 C41 1.185 . S
O52 Dy43 2.398 . S
O53 C41 1.355 . S
O53 Dy43 2.491 . S
O54 Dy43 2.403 . S
O54 C49 1.254 . S
O55 Dy40 2.310 . S
O55 Dy43 2.664 . S
O55 C49 1.268 . S
O56 Dy40 2.351 . S
O56 C59 1.249 . S
O57 Dy43 2.326 . S
O57 C59 1.267 . S
C58 O50 1.249 . S
C58 O51 1.267 . S
C59 O56 1.249 . S
C59 O57 1.267 . S
Dy60 O64 2.398 . S
Dy60 O65 2.491 . S
Dy60 O66 2.403 . S
Dy60 O67 2.664 . S
Dy60 O71 2.326 . S
Dy60 O75 2.310 . S
Dy60 O76 2.351 . S
C61 O72 1.185 . S
C61 O73 1.355 . S
C62 O64 1.185 . S
C62 O65 1.355 . S
Dy63 O67 2.310 . S
Dy63 O70 2.351 . S
Dy63 O72 2.398 . S
Dy63 O73 2.491 . S
Dy63 O74 2.403 . S
Dy63 O75 2.664 . S
Dy63 O77 2.326 . S
O64 Dy60 2.398 . S
O64 C62 1.185 . S
O65 Dy60 2.491 . S
O65 C62 1.355 . S
O66 Dy60 2.403 . S
O66 C68 1.254 . S
O67 Dy60 2.664 . S
O67 Dy63 2.310 . S
O67 C68 1.268 . S
C68 O66 1.254 . S
C68 O67 1.268 . S
C69 O74 1.254 . S
C69 O75 1.268 . S
O70 Dy63 2.351 . S
O70 C78 1.249 . S
O71 Dy60 2.326 . S
O71 C78 1.267 . S
O72 C61 1.185 . S
O72 Dy63 2.398 . S
O73 C61 1.355 . S
O73 Dy63 2.491 . S
O74 Dy63 2.403 . S
O74 C69 1.254 . S
O75 Dy60 2.310 . S
O75 Dy63 2.664 . S
O75 C69 1.268 . S
O76 Dy60 2.351 . S
O76 C79 1.249 . S
O77 Dy63 2.326 . S
O77 C79 1.267 . S
C78 O70 1.249 . S
C78 O71 1.267 . S
C79 O76 1.249 . S
C79 O77 1.267 . S
Dy80 O84 2.398 . S
Dy80 O85 2.491 . S
Dy80 O86 2.403 . S
Dy80 O87 2.664 . S
Dy80 O91 2.326 . S
Dy80 O95 2.310 . S
Dy80 O96 2.351 . S
C81 O92 1.185 . S
C81 O93 1.355 . S
C82 O84 1.185 . S
C82 O85 1.355 . S
Dy83 O87 2.310 . S
Dy83 O90 2.351 . S
Dy83 O92 2.398 . S
Dy83 O93 2.491 . S
Dy83 O94 2.403 . S
Dy83 O95 2.664 . S
Dy83 O97 2.326 . S
O84 Dy80 2.398 . S
O84 C82 1.185 . S
O85 Dy80 2.491 . S
O85 C82 1.355 . S
O86 Dy80 2.403 . S
O86 C88 1.254 . S
O87 Dy80 2.664 . S
O87 Dy83 2.310 . S
O87 C88 1.268 . S
C88 O86 1.254 . S
C88 O87 1.268 . S
C89 O94 1.254 . S
C89 O95 1.268 . S
O90 Dy83 2.351 . S
O90 C98 1.249 . S
O91 Dy80 2.326 . S
O91 C98 1.267 . S
O92 C81 1.185 . S
O92 Dy83 2.398 . S
O93 C81 1.355 . S
O93 Dy83 2.491 . S
O94 Dy83 2.403 . S
O94 C89 1.254 . S
O95 Dy80 2.310 . S
O95 Dy83 2.664 . S
O95 C89 1.268 . S
O96 Dy80 2.351 . S
O96 C99 1.249 . S
O97 Dy83 2.326 . S
O97 C99 1.267 . S
C98 O90 1.249 . S
C98 O91 1.267 . S
C99 O96 1.249 . S
C99 O97 1.267 . S
Dy100 O104 2.398 . S
Dy100 O105 2.491 . S
Dy100 O106 2.403 . S
Dy100 O107 2.664 . S
Dy100 O111 2.326 . S
Dy100 O115 2.310 . S
Dy100 O116 2.351 . S
C101 O112 1.185 . S
C101 O113 1.355 . S
C102 O104 1.185 . S
C102 O105 1.355 . S
Dy103 O107 2.310 . S
Dy103 O110 2.351 . S
Dy103 O112 2.398 . S
Dy103 O113 2.491 . S
Dy103 O114 2.403 . S
Dy103 O115 2.664 . S
Dy103 O117 2.326 . S
O104 Dy100 2.398 . S
O104 C102 1.185 . S
O105 Dy100 2.491 . S
O105 C102 1.355 . S
O106 Dy100 2.403 . S
O106 C108 1.254 . S
O107 Dy100 2.664 . S
O107 Dy103 2.310 . S
O107 C108 1.268 . S
C108 O106 1.254 . S
C108 O107 1.268 . S
C109 O114 1.254 . S
C109 O115 1.268 . S
O110 Dy103 2.351 . S
O110 C118 1.249 . S
O111 Dy100 2.326 . S
O111 C118 1.267 . S
O112 C101 1.185 . S
O112 Dy103 2.398 . S
O113 C101 1.355 . S
O113 Dy103 2.491 . S
O114 Dy103 2.403 . S
O114 C109 1.254 . S
O115 Dy100 2.310 . S
O115 Dy103 2.664 . S
O115 C109 1.268 . S
O116 Dy100 2.351 . S
O116 C119 1.249 . S
O117 Dy103 2.326 . S
O117 C119 1.267 . S
C118 O110 1.249 . S
C118 O111 1.267 . S
C119 O116 1.249 . S
C119 O117 1.267 . S
Dy120 O124 2.398 . S
Dy120 O125 2.491 . S
Dy120 O126 2.403 . S
Dy120 O127 2.664 . S
Dy120 O131 2.326 . S
Dy120 O135 2.310 . S
Dy120 O136 2.351 . S
C121 O132 1.185 . S
C121 O133 1.355 . S
C122 O124 1.185 . S
C122 O125 1.355 . S
Dy123 O127 2.310 . S
Dy123 O130 2.351 . S
Dy123 O132 2.398 . S
Dy123 O133 2.491 . S
Dy123 O134 2.403 . S
Dy123 O135 2.664 . S
Dy123 O137 2.326 . S
O124 Dy120 2.398 . S
O124 C122 1.185 . S
O125 Dy120 2.491 . S
O125 C122 1.355 . S
O126 Dy120 2.403 . S
O126 C128 1.254 . S
O127 Dy120 2.664 . S
O127 Dy123 2.310 . S
O127 C128 1.268 . S
C128 O126 1.254 . S
C128 O127 1.268 . S
C129 O134 1.254 . S
C129 O135 1.268 . S
O130 Dy123 2.351 . S
O130 C138 1.249 . S
O131 Dy120 2.326 . S
O131 C138 1.267 . S
O132 C121 1.185 . S
O132 Dy123 2.398 . S
O133 C121 1.355 . S
O133 Dy123 2.491 . S
O134 Dy123 2.403 . S
O134 C129 1.254 . S
O135 Dy120 2.310 . S
O135 Dy123 2.664 . S
O135 C129 1.268 . S
O136 Dy120 2.351 . S
O136 C139 1.249 . S
O137 Dy123 2.326 . S
O137 C139 1.267 . S
C138 O130 1.249 . S
C138 O131 1.267 . S
C139 O136 1.249 . S
C139 O137 1.267 . S
Dy140 O144 2.398 . S
Dy140 O145 2.491 . S
Dy140 O146 2.403 . S
Dy140 O147 2.664 . S
Dy140 O151 2.326 . S
Dy140 O155 2.310 . S
Dy140 O156 2.351 . S
C141 O152 1.185 . S
C141 O153 1.355 . S
C142 O144 1.185 . S
C142 O145 1.355 . S
Dy143 O147 2.310 . S
Dy143 O150 2.351 . S
Dy143 O152 2.398 . S
Dy143 O153 2.491 . S
Dy143 O154 2.403 . S
Dy143 O155 2.664 . S
Dy143 O157 2.326 . S
O144 Dy140 2.398 . S
O144 C142 1.185 . S
O145 Dy140 2.491 . S
O145 C142 1.355 . S
O146 Dy140 2.403 . S
O146 C148 1.254 . S
O147 Dy140 2.664 . S
O147 Dy143 2.310 . S
O147 C148 1.268 . S
C148 O146 1.254 . S
C148 O147 1.268 . S
C149 O154 1.254 . S
C149 O155 1.268 . S
O150 Dy143 2.351 . S
O150 C158 1.249 . S
O151 Dy140 2.326 . S
O151 C158 1.267 . S
O152 C141 1.185 . S
O152 Dy143 2.398 . S
O153 C141 1.355 . S
O153 Dy143 2.491 . S
O154 Dy143 2.403 . S
O154 C149 1.254 . S
O155 Dy140 2.310 . S
O155 Dy143 2.664 . S
O155 C149 1.268 . S
O156 Dy140 2.351 . S
O156 C159 1.249 . S
O157 Dy143 2.326 . S
O157 C159 1.267 . S
C158 O150 1.249 . S
C158 O151 1.267 . S
C159 O156 1.249 . S
C159 O157 1.267 . S
Co160 O163 2.042 . S
Co160 O170 2.264 . S
Co160 O189 2.286 . S
Co160 O190 2.069 . S
Co160 O192 2.015 1_455 S
Co161 O163 2.122 . S
Co161 O169 2.073 . S
Co161 O170 2.327 . S
Co161 O171 1.976 1_455 S
Co162 O163 2.090 1_545 S
Co162 O165 2.084 1_455 S
Co162 O172 2.109 1_445 S
Co162 O173 2.145 . S
Co162 O177 2.113 . S
Co162 O191 2.142 1_445 S
O163 Co160 2.042 . S
O163 Co161 2.122 . S
O163 Co162 2.090 1_565 S
O163 H164 0.980 . S
H164 O163 0.980 . S
O165 Co162 2.084 1_655 S
O165 Co166 2.042 . S
O165 Co167 2.122 . S
O165 H168 0.980 . S
Co166 O165 2.042 . S
Co166 O174 2.286 . S
Co166 O175 2.069 . S
Co166 O176 2.015 1_655 S
Co166 O179 2.264 . S
Co167 O165 2.122 . S
Co167 O178 1.976 1_655 S
Co167 O179 2.327 . S
Co167 O180 2.073 . S
H168 O165 0.980 . S
O169 Co161 2.073 . S
O169 C184 1.245 . S
O170 Co160 2.264 . S
O170 Co161 2.327 . S
O170 C184 1.257 . S
O171 Co161 1.976 1_655 S
O171 C183 1.251 . S
O172 Co162 2.109 1_665 S
O172 C183 1.274 . S
O173 Co162 2.145 . S
O173 C186 1.246 . S
O174 Co166 2.286 . S
O174 C185 1.259 . S
O175 Co166 2.069 . S
O175 C185 1.289 . S
O176 Co166 2.015 1_455 S
O176 C186 1.257 . S
O177 Co162 2.113 . S
O177 C187 1.274 . S
O178 Co167 1.976 1_455 S
O178 C187 1.251 . S
O179 Co166 2.264 . S
O179 Co167 2.327 . S
O179 C188 1.257 . S
O180 Co167 2.073 . S
O180 C188 1.245 . S
C181 O189 1.259 . S
C181 O190 1.289 . S
C182 O191 1.246 . S
C182 O192 1.257 . S
C183 O171 1.251 . S
C183 O172 1.274 . S
C184 O169 1.245 . S
C184 O170 1.257 . S
C185 O174 1.259 . S
C185 O175 1.289 . S
C186 O173 1.246 . S
C186 O176 1.257 . S
C187 O177 1.274 . S
C187 O178 1.251 . S
C188 O179 1.257 . S
C188 O180 1.245 . S
O189 Co160 2.286 . S
O189 C181 1.259 . S
O190 Co160 2.069 . S
O190 C181 1.289 . S
O191 Co162 2.142 1_665 S
O191 C182 1.246 . S
O192 Co160 2.015 1_655 S
O192 C182 1.257 . S
Co193 O196 2.042 1_556 S
Co193 O203 2.264 1_556 S
Co193 O222 2.286 . S
Co193 O223 2.069 . S
Co193 O225 2.015 . S
Co194 O196 2.122 . S
Co194 O202 2.073 . S
Co194 O203 2.327 . S
Co194 O204 1.976 . S
Co195 O196 2.087 1_545 S
Co195 O198 2.087 1_554 S
Co195 O205 2.111 1_545 S
Co195 O206 2.144 . S
Co195 O210 2.111 1_554 S
Co195 O224 2.143 1_544 S
O196 Co193 2.042 1_554 S
O196 Co194 2.122 . S
O196 Co195 2.087 1_565 S
O196 H197 0.980 . S
H197 O196 0.980 . S
O198 Co195 2.087 1_556 S
O198 Co199 2.042 1_556 S
O198 Co200 2.122 . S
O198 H201 0.980 . S
Co199 O198 2.042 1_554 S
Co199 O207 2.286 . S
Co199 O208 2.069 . S
Co199 O209 2.015 . S
Co199 O212 2.264 1_554 S
Co200 O198 2.122 . S
Co200 O211 1.976 . S
Co200 O212 2.327 . S
Co200 O213 2.073 . S
H201 O198 0.980 . S
O202 Co194 2.073 . S
O202 C217 1.245 . S
O203 Co193 2.264 1_554 S
O203 Co194 2.327 . S
O203 C217 1.257 . S
O204 Co194 1.976 . S
O204 C216 1.251 . S
O205 Co195 2.111 1_565 S
O205 C216 1.274 . S
O206 Co195 2.144 . S
O206 C219 1.246 . S
O207 Co199 2.286 . S
O207 C218 1.259 . S
O208 Co199 2.069 . S
O208 C218 1.289 . S
O209 Co199 2.015 . S
O209 C219 1.257 . S
O210 Co195 2.111 1_556 S
O210 C220 1.274 . S
O211 Co200 1.976 . S
O211 C220 1.251 . S
O212 Co199 2.264 1_556 S
O212 Co200 2.327 . S
O212 C221 1.257 . S
O213 Co200 2.073 . S
O213 C221 1.245 . S
C214 O222 1.259 . S
C214 O223 1.289 . S
C215 O224 1.246 . S
C215 O225 1.257 . S
C216 O204 1.251 . S
C216 O205 1.274 . S
C217 O202 1.245 . S
C217 O203 1.257 . S
C218 O207 1.259 . S
C218 O208 1.289 . S
C219 O206 1.246 . S
C219 O209 1.257 . S
C220 O210 1.274 . S
C220 O211 1.251 . S
C221 O212 1.257 . S
C221 O213 1.245 . S
O222 Co193 2.286 . S
O222 C214 1.259 . S
O223 Co193 2.069 . S
O223 C214 1.289 . S
O224 Co195 2.143 1_566 S
O224 C215 1.246 . S
O225 Co193 2.015 . S
O225 C215 1.257 . S
Co226 O229 2.042 1_556 S
Co226 O236 2.264 1_556 S
Co226 O255 2.286 . S
Co226 O256 2.069 . S
Co226 O258 2.015 1_455 S
Co227 O229 2.122 . S
Co227 O235 2.073 . S
Co227 O236 2.327 . S
Co227 O237 1.976 1_455 S
Co228 O229 2.090 . S
Co228 O231 2.084 1_454 S
Co228 O238 2.109 1_455 S
Co228 O239 2.145 . S
Co228 O243 2.113 1_554 S
Co228 O257 2.142 1_454 S
O229 Co226 2.042 1_554 S
O229 Co227 2.122 . S
O229 Co228 2.090 . S
O229 H230 0.980 . S
H230 O229 0.980 . S
O231 Co228 2.084 1_656 S
O231 Co232 2.042 1_556 S
O231 Co233 2.122 . S
O231 H234 0.980 . S
Co232 O231 2.042 1_554 S
Co232 O240 2.286 . S
Co232 O241 2.069 . S
Co232 O242 2.015 1_655 S
Co232 O245 2.264 1_554 S
Co233 O231 2.122 . S
Co233 O244 1.976 1_655 S
Co233 O245 2.327 . S
Co233 O246 2.073 . S
H234 O231 0.980 . S
O235 Co227 2.073 . S
O235 C250 1.245 . S
O236 Co226 2.264 1_554 S
O236 Co227 2.327 . S
O236 C250 1.257 . S
O237 Co227 1.976 1_655 S
O237 C249 1.251 . S
O238 Co228 2.109 1_655 S
O238 C249 1.274 . S
O239 Co228 2.145 . S
O239 C252 1.246 . S
O240 Co232 2.286 . S
O240 C251 1.259 . S
O241 Co232 2.069 . S
O241 C251 1.289 . S
O242 Co232 2.015 1_455 S
O242 C252 1.257 . S
O243 Co228 2.113 1_556 S
O243 C253 1.274 . S
O244 Co233 1.976 1_455 S
O244 C253 1.251 . S
O245 Co232 2.264 1_556 S
O245 Co233 2.327 . S
O245 C254 1.257 . S
O246 Co233 2.073 . S
O246 C254 1.245 . S
C247 O255 1.259 . S
C247 O256 1.289 . S
C248 O257 1.246 . S
C248 O258 1.257 . S
C249 O237 1.251 . S
C249 O238 1.274 . S
C250 O235 1.245 . S
C250 O236 1.257 . S
C251 O240 1.259 . S
C251 O241 1.289 . S
C252 O239 1.246 . S
C252 O242 1.257 . S
C253 O243 1.274 . S
C253 O244 1.251 . S
C254 O245 1.257 . S
C254 O246 1.245 . S
O255 Co226 2.286 . S
O255 C247 1.259 . S
O256 Co226 2.069 . S
O256 C247 1.289 . S
O257 Co228 2.142 1_656 S
O257 C248 1.246 . S
O258 Co226 2.015 1_655 S
O258 C248 1.257 . S
Co259 O262 2.042 1_556 S
Co259 O269 2.264 1_556 S
Co259 O288 2.286 . S
Co259 O289 2.069 . S
Co259 O291 2.015 . S
Co260 O262 2.122 . S
Co260 O268 2.073 . S
Co260 O269 2.327 . S
Co260 O270 1.976 . S
Co261 O262 2.087 . S
Co261 O264 2.087 1_554 S
Co261 O271 2.111 . S
Co261 O272 2.143 . S
Co261 O276 2.111 1_554 S
Co261 O290 2.143 1_554 S
O262 Co259 2.042 1_554 S
O262 Co260 2.122 . S
O262 Co261 2.087 . S
O262 H263 0.980 . S
H263 O262 0.980 . S
O264 Co261 2.087 1_556 S
O264 Co265 2.042 1_556 S
O264 Co266 2.122 . S
O264 H267 0.980 . S
Co265 O264 2.042 1_554 S
Co265 O273 2.286 . S
Co265 O274 2.069 . S
Co265 O275 2.015 . S
Co265 O278 2.264 1_554 S
Co266 O264 2.122 . S
Co266 O277 1.976 . S
Co266 O278 2.327 . S
Co266 O279 2.073 . S
H267 O264 0.980 . S
O268 Co260 2.073 . S
O268 C283 1.245 . S
O269 Co259 2.264 1_554 S
O269 Co260 2.327 . S
O269 C283 1.257 . S
O270 Co260 1.976 . S
O270 C282 1.251 . S
O271 Co261 2.111 . S
O271 C282 1.274 . S
O272 Co261 2.143 . S
O272 C285 1.246 . S
O273 Co265 2.286 . S
O273 C284 1.259 . S
O274 Co265 2.069 . S
O274 C284 1.289 . S
O275 Co265 2.015 . S
O275 C285 1.257 . S
O276 Co261 2.111 1_556 S
O276 C286 1.274 . S
O277 Co266 1.976 . S
O277 C286 1.251 . S
O278 Co265 2.264 1_556 S
O278 Co266 2.327 . S
O278 C287 1.257 . S
O279 Co266 2.073 . S
O279 C287 1.245 . S
C280 O288 1.259 . S
C280 O289 1.289 . S
C281 O290 1.246 . S
C281 O291 1.257 . S
C282 O270 1.251 . S
C282 O271 1.274 . S
C283 O268 1.245 . S
C283 O269 1.257 . S
C284 O273 1.259 . S
C284 O274 1.289 . S
C285 O272 1.246 . S
C285 O275 1.257 . S
C286 O276 1.274 . S
C286 O277 1.251 . S
C287 O278 1.257 . S
C287 O279 1.245 . S
O288 Co259 2.286 . S
O288 C280 1.259 . S
O289 Co259 2.069 . S
O289 C280 1.289 . S
O290 Co261 2.143 1_556 S
O290 C281 1.246 . S
O291 Co259 2.015 . S
O291 C281 1.257 . S
Co292 O295 2.042 . S
Co292 O302 2.264 . S
Co292 O321 2.286 . S
Co292 O322 2.069 . S
Co292 O324 2.015 . S
Co293 O295 2.122 . S
Co293 O301 2.073 . S
Co293 O302 2.327 . S
Co293 O303 1.976 . S
Co294 O295 2.090 . S
Co294 O297 2.084 1_455 S
Co294 O304 2.112 . S
Co294 O305 2.142 1_455 S
Co294 O309 2.110 1_455 S
Co294 O323 2.145 . S
O295 Co292 2.042 . S
O295 Co293 2.122 . S
O295 Co294 2.090 . S
O295 H296 0.980 . S
H296 O295 0.980 . S
O297 Co294 2.084 1_655 S
O297 Co298 2.042 . S
O297 Co299 2.122 . S
O297 H300 0.980 . S
Co298 O297 2.042 . S
Co298 O306 2.286 . S
Co298 O307 2.069 . S
Co298 O308 2.015 . S
Co298 O311 2.264 . S
Co299 O297 2.122 . S
Co299 O310 1.976 . S
Co299 O311 2.327 . S
Co299 O312 2.073 . S
H300 O297 0.980 . S
O301 Co293 2.073 . S
O301 C316 1.245 . S
O302 Co292 2.264 . S
O302 Co293 2.327 . S
O302 C316 1.257 . S
O303 Co293 1.976 . S
O303 C315 1.251 . S
O304 Co294 2.112 . S
O304 C315 1.274 . S
O305 Co294 2.142 1_655 S
O305 C318 1.246 . S
O306 Co298 2.286 . S
O306 C317 1.259 . S
O307 Co298 2.069 . S
O307 C317 1.289 . S
O308 Co298 2.015 . S
O308 C318 1.257 . S
O309 Co294 2.110 1_655 S
O309 C319 1.274 . S
O310 Co299 1.976 . S
O310 C319 1.251 . S
O311 Co298 2.264 . S
O311 Co299 2.327 . S
O311 C320 1.257 . S
O312 Co299 2.073 . S
O312 C320 1.245 . S
C313 O321 1.259 . S
C313 O322 1.289 . S
C314 O323 1.246 . S
C314 O324 1.257 . S
C315 O303 1.251 . S
C315 O304 1.274 . S
C316 O301 1.245 . S
C316 O302 1.257 . S
C317 O306 1.259 . S
C317 O307 1.289 . S
C318 O305 1.246 . S
C318 O308 1.257 . S
C319 O309 1.274 . S
C319 O310 1.251 . S
C320 O311 1.257 . S
C320 O312 1.245 . S
O321 Co292 2.286 . S
O321 C313 1.259 . S
O322 Co292 2.069 . S
O322 C313 1.289 . S
O323 Co294 2.145 . S
O323 C314 1.246 . S
O324 Co292 2.015 . S
O324 C314 1.257 . S
Co325 O328 2.042 . S
Co325 O335 2.264 . S
Co325 O354 2.286 . S
Co325 O355 2.069 . S
Co325 O357 2.015 1_565 S
Co326 O328 2.122 . S
Co326 O334 2.073 . S
Co326 O335 2.327 . S
Co326 O336 1.976 1_565 S
Co327 O328 2.087 1_545 S
Co327 O330 2.087 . S
Co327 O337 2.111 . S
Co327 O338 2.143 1_545 S
Co327 O342 2.111 1_545 S
Co327 O356 2.144 . S
O328 Co325 2.042 . S
O328 Co326 2.122 . S
O328 Co327 2.087 1_565 S
O328 H329 0.980 . S
H329 O328 0.980 . S
O330 Co327 2.087 . S
O330 Co331 2.042 . S
O330 Co332 2.122 . S
O330 H333 0.980 . S
Co331 O330 2.042 . S
Co331 O339 2.286 . S
Co331 O340 2.069 . S
Co331 O341 2.015 1_545 S
Co331 O344 2.264 . S
Co332 O330 2.122 . S
Co332 O343 1.976 1_545 S
Co332 O344 2.327 . S
Co332 O345 2.073 . S
H333 O330 0.980 . S
O334 Co326 2.073 . S
O334 C349 1.245 . S
O335 Co325 2.264 . S
O335 Co326 2.327 . S
O335 C349 1.257 . S
O336 Co326 1.976 1_545 S
O336 C348 1.251 . S
O337 Co327 2.111 . S
O337 C348 1.274 . S
O338 Co327 2.143 1_565 S
O338 C351 1.246 . S
O339 Co331 2.286 . S
O339 C350 1.259 . S
O340 Co331 2.069 . S
O340 C350 1.289 . S
O341 Co331 2.015 1_565 S
O341 C351 1.257 . S
O342 Co327 2.111 1_565 S
O342 C352 1.274 . S
O343 Co332 1.976 1_565 S
O343 C352 1.251 . S
O344 Co331 2.264 . S
O344 Co332 2.327 . S
O344 C353 1.257 . S
O345 Co332 2.073 . S
O345 C353 1.245 . S
C346 O354 1.259 . S
C346 O355 1.289 . S
C347 O356 1.246 . S
C347 O357 1.257 . S
C348 O336 1.251 . S
C348 O337 1.274 . S
C349 O334 1.245 . S
C349 O335 1.257 . S
C350 O339 1.259 . S
C350 O340 1.289 . S
C351 O338 1.246 . S
C351 O341 1.257 . S
C352 O342 1.274 . S
C352 O343 1.251 . S
C353 O344 1.257 . S
C353 O345 1.245 . S
O354 Co325 2.286 . S
O354 C346 1.259 . S
O355 Co325 2.069 . S
O355 C346 1.289 . S
O356 Co327 2.144 . S
O356 C347 1.246 . S
O357 Co325 2.015 1_545 S
O357 C347 1.257 . S
H358 C364 0.930 . S
H359 C368 0.930 . S
H360 C373 0.929 . S
H361 C371 0.929 . S
H362 C366 0.929 . S
H363 C372 0.929 . S
C364 H358 0.930 . S
C364 C365 1.367 . S
C364 C372 1.378 . S
C365 C364 1.367 . S
C365 C373 1.433 . S
C366 H362 0.929 . S
C366 C368 1.378 . S
C366 C370 1.350 . S
C367 C370 1.463 . S
C367 C372 1.350 . S
C367 N375 1.427 . S
C368 H359 0.930 . S
C368 C366 1.378 . S
C368 C369 1.367 . S
C369 C368 1.367 . S
C369 C371 1.433 . S
C370 C366 1.350 . S
C370 C367 1.463 . S
C370 N374 1.427 . S
C371 H361 0.929 . S
C371 C369 1.433 . S
C371 N374 1.384 . S
C372 H363 0.929 . S
C372 C364 1.378 . S
C372 C367 1.350 . S
C373 H360 0.929 . S
C373 C365 1.433 . S
C373 N375 1.384 . S
N374 C370 1.427 . S
N374 C371 1.384 . S
N375 C367 1.427 . S
N375 C373 1.384 . S
H376 C382 0.930 . S
H377 C386 0.930 . S
H378 C391 0.929 . S
H379 C389 0.929 . S
H380 C384 0.929 . S
H381 C390 0.929 . S
C382 H376 0.930 . S
C382 C383 1.367 . S
C382 C390 1.378 . S
C383 C382 1.367 . S
C383 C391 1.433 . S
C384 H380 0.929 . S
C384 C386 1.378 . S
C384 C388 1.350 . S
C385 C388 1.463 . S
C385 C390 1.350 . S
C385 N393 1.427 . S
C386 H377 0.930 . S
C386 C384 1.378 . S
C386 C387 1.367 . S
C387 C386 1.367 . S
C387 C389 1.433 . S
C388 C384 1.350 . S
C388 C385 1.463 . S
C388 N392 1.427 . S
C389 H379 0.929 . S
C389 C387 1.433 . S
C389 N392 1.384 . S
C390 H381 0.929 . S
C390 C382 1.378 . S
C390 C385 1.350 . S
C391 H378 0.929 . S
C391 C383 1.433 . S
C391 N393 1.384 . S
N392 C388 1.427 . S
N392 C389 1.384 . S
N393 C385 1.427 . S
N393 C391 1.384 . S
H394 C400 0.930 . S
H395 C404 0.930 . S
H396 C409 0.929 . S
H397 C407 0.929 . S
H398 C402 0.929 . S
H399 C408 0.929 . S
C400 H394 0.930 . S
C400 C401 1.367 . S
C400 C408 1.378 . S
C401 C400 1.367 . S
C401 C409 1.433 . S
C402 H398 0.929 . S
C402 C404 1.378 . S
C402 C406 1.350 . S
C403 C406 1.463 . S
C403 C408 1.350 . S
C403 N411 1.427 . S
C404 H395 0.930 . S
C404 C402 1.378 . S
C404 C405 1.367 . S
C405 C404 1.367 . S
C405 C407 1.433 . S
C406 C402 1.350 . S
C406 C403 1.463 . S
C406 N410 1.427 . S
C407 H397 0.929 . S
C407 C405 1.433 . S
C407 N410 1.384 . S
C408 H399 0.929 . S
C408 C400 1.378 . S
C408 C403 1.350 . S
C409 H396 0.929 . S
C409 C401 1.433 . S
C409 N411 1.384 . S
N410 C406 1.427 . S
N410 C407 1.384 . S
N411 C403 1.427 . S
N411 C409 1.384 . S
H412 C418 0.930 . S
H413 C422 0.930 . S
H414 C427 0.929 . S
H415 C425 0.929 . S
H416 C420 0.929 . S
H417 C426 0.929 . S
C418 H412 0.930 . S
C418 C419 1.367 . S
C418 C426 1.378 . S
C419 C418 1.367 . S
C419 C427 1.433 . S
C420 H416 0.929 . S
C420 C422 1.378 . S
C420 C424 1.350 . S
C421 C424 1.463 . S
C421 C426 1.350 . S
C421 N429 1.427 . S
C422 H413 0.930 . S
C422 C420 1.378 . S
C422 C423 1.367 . S
C423 C422 1.367 . S
C423 C425 1.433 . S
C424 C420 1.350 . S
C424 C421 1.463 . S
C424 N428 1.427 . S
C425 H415 0.929 . S
C425 C423 1.433 . S
C425 N428 1.384 . S
C426 H417 0.929 . S
C426 C418 1.378 . S
C426 C421 1.350 . S
C427 H414 0.929 . S
C427 C419 1.433 . S
C427 N429 1.384 . S
N428 C424 1.427 . S
N428 C425 1.384 . S
N429 C421 1.427 . S
N429 C427 1.384 . S
H430 C436 0.930 . S
H431 C440 0.930 . S
H432 C445 0.929 . S
H433 C443 0.929 . S
H434 C438 0.929 . S
H435 C444 0.929 . S
C436 H430 0.930 . S
C436 C437 1.367 . S
C436 C444 1.378 . S
C437 C436 1.367 . S
C437 C445 1.433 . S
C438 H434 0.929 . S
C438 C440 1.378 . S
C438 C442 1.350 . S
C439 C442 1.463 . S
C439 C444 1.350 . S
C439 N447 1.427 . S
C440 H431 0.930 . S
C440 C438 1.378 . S
C440 C441 1.367 . S
C441 C440 1.367 . S
C441 C443 1.433 . S
C442 C438 1.350 . S
C442 C439 1.463 . S
C442 N446 1.427 . S
C443 H433 0.929 . S
C443 C441 1.433 . S
C443 N446 1.384 . S
C444 H435 0.929 . S
C444 C436 1.378 . S
C444 C439 1.350 . S
C445 H432 0.929 . S
C445 C437 1.433 . S
C445 N447 1.384 . S
N446 C442 1.427 . S
N446 C443 1.384 . S
N447 C439 1.427 . S
N447 C445 1.384 . S
H448 C454 0.930 . S
H449 C458 0.930 . S
H450 C463 0.929 . S
H451 C461 0.929 . S
H452 C456 0.929 . S
H453 C462 0.929 . S
C454 H448 0.930 . S
C454 C455 1.367 . S
C454 C462 1.378 . S
C455 C454 1.367 . S
C455 C463 1.433 . S
C456 H452 0.929 . S
C456 C458 1.378 . S
C456 C460 1.350 . S
C457 C460 1.463 . S
C457 C462 1.350 . S
C457 N465 1.427 . S
C458 H449 0.930 . S
C458 C456 1.378 . S
C458 C459 1.367 . S
C459 C458 1.367 . S
C459 C461 1.433 . S
C460 C456 1.350 . S
C460 C457 1.463 . S
C460 N464 1.427 . S
C461 H451 0.929 . S
C461 C459 1.433 . S
C461 N464 1.384 . S
C462 H453 0.929 . S
C462 C454 1.378 . S
C462 C457 1.350 . S
C463 H450 0.929 . S
C463 C455 1.433 . S
C463 N465 1.384 . S
N464 C460 1.427 . S
N464 C461 1.384 . S
N465 C457 1.427 . S
N465 C463 1.384 . S
H466 C472 0.930 . S
H467 C476 0.930 . S
H468 C481 0.929 . S
H469 C479 0.929 . S
H470 C474 0.929 . S
H471 C480 0.929 . S
C472 H466 0.930 . S
C472 C473 1.367 . S
C472 C480 1.378 . S
C473 C472 1.367 . S
C473 C481 1.433 . S
C474 H470 0.929 . S
C474 C476 1.378 . S
C474 C478 1.350 . S
C475 C478 1.463 . S
C475 C480 1.350 . S
C475 N483 1.427 . S
C476 H467 0.930 . S
C476 C474 1.378 . S
C476 C477 1.367 . S
C477 C476 1.367 . S
C477 C479 1.433 . S
C478 C474 1.350 . S
C478 C475 1.463 . S
C478 N482 1.427 . S
C479 H469 0.929 . S
C479 C477 1.433 . S
C479 N482 1.384 . S
C480 H471 0.929 . S
C480 C472 1.378 . S
C480 C475 1.350 . S
C481 H468 0.929 . S
C481 C473 1.433 . S
C481 N483 1.384 . S
N482 C478 1.427 . S
N482 C479 1.384 . S
N483 C475 1.427 . S
N483 C481 1.384 . S
H484 C490 0.930 . S
H485 C494 0.930 . S
H486 C499 0.929 . S
H487 C497 0.929 . S
H488 C492 0.929 . S
H489 C498 0.929 . S
C490 H484 0.930 . S
C490 C491 1.367 . S
C490 C498 1.378 . S
C491 C490 1.367 . S
C491 C499 1.433 . S
C492 H488 0.929 . S
C492 C494 1.378 . S
C492 C496 1.350 . S
C493 C496 1.463 . S
C493 C498 1.350 . S
C493 N501 1.427 . S
C494 H485 0.930 . S
C494 C492 1.378 . S
C494 C495 1.367 . S
C495 C494 1.367 . S
C495 C497 1.433 . S
C496 C492 1.350 . S
C496 C493 1.463 . S
C496 N500 1.427 . S
C497 H487 0.929 . S
C497 C495 1.433 . S
C497 N500 1.384 . S
C498 H489 0.929 . S
C498 C490 1.378 . S
C498 C493 1.350 . S
C499 H486 0.929 . S
C499 C491 1.433 . S
C499 N501 1.384 . S
N500 C496 1.427 . S
N500 C497 1.384 . S
N501 C493 1.427 . S
N501 C499 1.384 . S
H502 C508 0.930 . S
H503 C512 0.930 . S
H504 C517 0.929 . S
H505 C515 0.929 . S
H506 C510 0.929 . S
H507 C516 0.929 . S
C508 H502 0.930 . S
C508 C509 1.367 . S
C508 C516 1.378 . S
C509 C508 1.367 . S
C509 C517 1.433 . S
C510 H506 0.929 . S
C510 C512 1.378 . S
C510 C514 1.350 . S
C511 C514 1.463 . S
C511 C516 1.350 . S
C511 N519 1.427 . S
C512 H503 0.930 . S
C512 C510 1.378 . S
C512 C513 1.367 . S
C513 C512 1.367 . S
C513 C515 1.433 . S
C514 C510 1.350 . S
C514 C511 1.463 . S
C514 N518 1.427 . S
C515 H505 0.929 . S
C515 C513 1.433 . S
C515 N518 1.384 . S
C516 H507 0.929 . S
C516 C508 1.378 . S
C516 C511 1.350 . S
C517 H504 0.929 . S
C517 C509 1.433 . S
C517 N519 1.384 . S
N518 C514 1.427 . S
N518 C515 1.384 . S
N519 C511 1.427 . S
N519 C517 1.384 . S
H520 C526 0.930 . S
H521 C530 0.930 . S
H522 C535 0.929 . S
H523 C533 0.929 . S
H524 C528 0.929 . S
H525 C534 0.929 . S
C526 H520 0.930 . S
C526 C527 1.367 . S
C526 C534 1.378 . S
C527 C526 1.367 . S
C527 C535 1.433 . S
C528 H524 0.929 . S
C528 C530 1.378 . S
C528 C532 1.350 . S
C529 C532 1.463 . S
C529 C534 1.350 . S
C529 N537 1.427 . S
C530 H521 0.930 . S
C530 C528 1.378 . S
C530 C531 1.367 . S
C531 C530 1.367 . S
C531 C533 1.433 . S
C532 C528 1.350 . S
C532 C529 1.463 . S
C532 N536 1.427 . S
C533 H523 0.929 . S
C533 C531 1.433 . S
C533 N536 1.384 . S
C534 H525 0.929 . S
C534 C526 1.378 . S
C534 C529 1.350 . S
C535 H522 0.929 . S
C535 C527 1.433 . S
C535 N537 1.384 . S
N536 C532 1.427 . S
N536 C533 1.384 . S
N537 C529 1.427 . S
N537 C535 1.384 . S
H538 C544 0.930 . S
H539 C548 0.930 . S
H540 C553 0.929 . S
H541 C551 0.929 . S
H542 C546 0.929 . S
H543 C552 0.929 . S
C544 H538 0.930 . S
C544 C545 1.367 . S
C544 C552 1.378 . S
C545 C544 1.367 . S
C545 C553 1.433 . S
C546 H542 0.929 . S
C546 C548 1.378 . S
C546 C550 1.350 . S
C547 C550 1.463 . S
C547 C552 1.350 . S
C547 N555 1.427 . S
C548 H539 0.930 . S
C548 C546 1.378 . S
C548 C549 1.367 . S
C549 C548 1.367 . S
C549 C551 1.433 . S
C550 C546 1.350 . S
C550 C547 1.463 . S
C550 N554 1.427 . S
C551 H541 0.929 . S
C551 C549 1.433 . S
C551 N554 1.384 . S
C552 H543 0.929 . S
C552 C544 1.378 . S
C552 C547 1.350 . S
C553 H540 0.929 . S
C553 C545 1.433 . S
C553 N555 1.384 . S
N554 C550 1.427 . S
N554 C551 1.384 . S
N555 C547 1.427 . S
N555 C553 1.384 . S
H556 C562 0.930 . S
H557 C566 0.930 . S
H558 C571 0.929 . S
H559 C569 0.954 . S
H560 C564 0.929 . S
H561 C570 0.929 . S
C562 H556 0.930 . S
C562 C563 1.367 . S
C562 C570 1.378 . S
C563 C562 1.367 . S
C563 C571 1.433 . S
C564 H560 0.929 . S
C564 C566 1.378 . S
C564 C568 1.350 . S
C565 C568 1.463 . S
C565 C570 1.350 . S
C565 N573 1.427 . S
C566 H557 0.930 . S
C566 C564 1.378 . S
C566 C567 1.367 . S
C567 C566 1.367 . S
C567 C569 1.433 . S
C568 C564 1.350 . S
C568 C565 1.463 . S
C568 N572 1.427 . S
C569 H559 0.954 . S
C569 C567 1.433 . S
C569 N572 1.384 . S
C570 H561 0.929 . S
C570 C562 1.378 . S
C570 C565 1.350 . S
C571 H558 0.929 . S
C571 C563 1.433 . S
C571 N573 1.384 . S
N572 C568 1.427 . S
N572 C569 1.384 . S
N573 C565 1.427 . S
N573 C571 1.384 . S
H574 C580 0.930 . S
H575 C584 0.930 . S
H576 C589 0.929 . S
H577 C587 0.929 . S
H578 C582 0.929 . S
H579 C588 0.929 . S
C580 H574 0.930 . S
C580 C581 1.367 . S
C580 C588 1.378 . S
C581 C580 1.367 . S
C581 C589 1.433 . S
C582 H578 0.929 . S
C582 C584 1.378 . S
C582 C586 1.350 . S
C583 C586 1.463 . S
C583 C588 1.350 . S
C583 N591 1.427 . S
C584 H575 0.930 . S
C584 C582 1.378 . S
C584 C585 1.367 . S
C585 C584 1.367 . S
C585 C587 1.433 . S
C586 C582 1.350 . S
C586 C583 1.463 . S
C586 N590 1.427 . S
C587 H577 0.929 . S
C587 C585 1.433 . S
C587 N590 1.384 . S
C588 H579 0.929 . S
C588 C580 1.378 . S
C588 C583 1.350 . S
C589 H576 0.929 . S
C589 C581 1.433 . S
C589 N591 1.384 . S
N590 C586 1.427 . S
N590 C587 1.384 . S
N591 C583 1.427 . S
N591 C589 1.384 . S
H592 C598 0.930 . S
H593 C602 0.930 . S
H594 C607 0.929 . S
H595 C605 0.929 . S
H596 C600 0.929 . S
H597 C606 0.929 . S
C598 H592 0.930 . S
C598 C599 1.367 . S
C598 C606 1.378 . S
C599 C598 1.367 . S
C599 C607 1.433 . S
C600 H596 0.929 . S
C600 C602 1.378 . S
C600 C604 1.350 . S
C601 C604 1.463 . S
C601 C606 1.350 . S
C601 N609 1.427 . S
C602 H593 0.930 . S
C602 C600 1.378 . S
C602 C603 1.367 . S
C603 C602 1.367 . S
C603 C605 1.433 . S
C604 C600 1.350 . S
C604 C601 1.463 . S
C604 N608 1.427 . S
C605 H595 0.929 . S
C605 C603 1.433 . S
C605 N608 1.384 . S
C606 H597 0.929 . S
C606 C598 1.378 . S
C606 C601 1.350 . S
C607 H594 0.929 . S
C607 C599 1.433 . S
C607 N609 1.384 . S
N608 C604 1.427 . S
N608 C605 1.384 . S
N609 C601 1.427 . S
N609 C607 1.384 . S
H610 C616 0.930 . S
H611 C620 0.930 . S
H612 C625 0.929 . S
H613 C623 0.929 . S
H614 C618 0.929 . S
H615 C624 0.929 . S
C616 H610 0.930 . S
C616 C617 1.367 . S
C616 C624 1.378 . S
C617 C616 1.367 . S
C617 C625 1.433 . S
C618 H614 0.929 . S
C618 C620 1.378 . S
C618 C622 1.350 . S
C619 C622 1.463 . S
C619 C624 1.350 . S
C619 N627 1.427 . S
C620 H611 0.930 . S
C620 C618 1.378 . S
C620 C621 1.367 . S
C621 C620 1.367 . S
C621 C623 1.433 . S
C622 C618 1.350 . S
C622 C619 1.463 . S
C622 N626 1.427 . S
C623 H613 0.929 . S
C623 C621 1.433 . S
C623 N626 1.384 . S
C624 H615 0.929 . S
C624 C616 1.378 . S
C624 C619 1.350 . S
C625 H612 0.929 . S
C625 C617 1.433 . S
C625 N627 1.384 . S
N626 C622 1.427 . S
N626 C623 1.384 . S
N627 C619 1.427 . S
N627 C625 1.384 . S
H628 C634 0.930 . S
H629 C638 0.930 . S
H630 C643 0.929 . S
H631 C641 0.929 . S
H632 C636 0.929 . S
H633 C642 0.929 . S
C634 H628 0.930 . S
C634 C635 1.367 . S
C634 C642 1.378 . S
C635 C634 1.367 . S
C635 C643 1.433 . S
C636 H632 0.929 . S
C636 C638 1.378 . S
C636 C640 1.350 . S
C637 C640 1.463 . S
C637 C642 1.350 . S
C637 N645 1.427 . S
C638 H629 0.930 . S
C638 C636 1.378 . S
C638 C639 1.367 . S
C639 C638 1.367 . S
C639 C641 1.433 . S
C640 C636 1.350 . S
C640 C637 1.463 . S
C640 N644 1.427 . S
C641 H631 0.929 . S
C641 C639 1.433 . S
C641 N644 1.384 . S
C642 H633 0.929 . S
C642 C634 1.378 . S
C642 C637 1.350 . S
C643 H630 0.929 . S
C643 C635 1.433 . S
C643 N645 1.384 . S
N644 C640 1.427 . S
N644 C641 1.384 . S
N645 C637 1.427 . S
N645 C643 1.384 . S
H646 C652 0.930 . S
H647 C656 0.930 . S
H648 C661 0.929 . S
H649 C659 0.929 . S
H650 C654 0.929 . S
H651 C660 0.929 . S
C652 H646 0.930 . S
C652 C653 1.367 . S
C652 C660 1.378 . S
C653 C652 1.367 . S
C653 C661 1.433 . S
C654 H650 0.929 . S
C654 C656 1.378 . S
C654 C658 1.350 . S
C655 C658 1.463 . S
C655 C660 1.350 . S
C655 N663 1.427 . S
C656 H647 0.930 . S
C656 C654 1.378 . S
C656 C657 1.367 . S
C657 C656 1.367 . S
C657 C659 1.433 . S
C658 C654 1.350 . S
C658 C655 1.463 . S
C658 N662 1.427 . S
C659 H649 0.929 . S
C659 C657 1.433 . S
C659 N662 1.384 . S
C660 H651 0.929 . S
C660 C652 1.378 . S
C660 C655 1.350 . S
C661 H648 0.929 . S
C661 C653 1.433 . S
C661 N663 1.384 . S
N662 C658 1.427 . S
N662 C659 1.384 . S
N663 C655 1.427 . S
N663 C661 1.384 . S
H664 C670 0.930 . S
H665 C674 0.930 . S
H666 C679 0.929 . S
H667 C677 0.929 . S
H668 C672 0.929 . S
H669 C678 0.929 . S
C670 H664 0.930 . S
C670 C671 1.367 . S
C670 C678 1.378 . S
C671 C670 1.367 . S
C671 C679 1.433 . S
C672 H668 0.929 . S
C672 C674 1.378 . S
C672 C676 1.350 . S
C673 C676 1.463 . S
C673 C678 1.350 . S
C673 N681 1.427 . S
C674 H665 0.930 . S
C674 C672 1.378 . S
C674 C675 1.367 . S
C675 C674 1.367 . S
C675 C677 1.433 . S
C676 C672 1.350 . S
C676 C673 1.463 . S
C676 N680 1.427 . S
C677 H667 0.929 . S
C677 C675 1.433 . S
C677 N680 1.384 . S
C678 H669 0.929 . S
C678 C670 1.378 . S
C678 C673 1.350 . S
C679 H666 0.929 . S
C679 C671 1.433 . S
C679 N681 1.384 . S
N680 C676 1.427 . S
N680 C677 1.384 . S
N681 C673 1.427 . S
N681 C679 1.384 . S
H682 C688 0.930 . S
H683 C692 0.930 . S
H684 C697 0.929 . S
H685 C695 0.929 . S
H686 C690 0.929 . S
H687 C696 0.929 . S
C688 H682 0.930 . S
C688 C689 1.367 . S
C688 C696 1.378 . S
C689 C688 1.367 . S
C689 C697 1.433 . S
C690 H686 0.929 . S
C690 C692 1.378 . S
C690 C694 1.350 . S
C691 C694 1.463 . S
C691 C696 1.350 . S
C691 N699 1.427 . S
C692 H683 0.930 . S
C692 C690 1.378 . S
C692 C693 1.367 . S
C693 C692 1.367 . S
C693 C695 1.433 . S
C694 C690 1.350 . S
C694 C691 1.463 . S
C694 N698 1.427 . S
C695 H685 0.929 . S
C695 C693 1.433 . S
C695 N698 1.384 . S
C696 H687 0.929 . S
C696 C688 1.378 . S
C696 C691 1.350 . S
C697 H684 0.929 . S
C697 C689 1.433 . S
C697 N699 1.384 . S
N698 C694 1.427 . S
N698 C695 1.384 . S
N699 C691 1.427 . S
N699 C697 1.384 . S
H700 C706 0.930 . S
H701 C710 0.930 . S
H702 C715 0.929 . S
H703 C713 0.929 . S
H704 C708 0.929 . S
H705 C714 0.929 . S
C706 H700 0.930 . S
C706 C707 1.367 . S
C706 C714 1.378 . S
C707 C706 1.367 . S
C707 C715 1.433 . S
C708 H704 0.929 . S
C708 C710 1.378 . S
C708 C712 1.350 . S
C709 C712 1.463 . S
C709 C714 1.350 . S
C709 N717 1.427 . S
C710 H701 0.930 . S
C710 C708 1.378 . S
C710 C711 1.367 . S
C711 C710 1.367 . S
C711 C713 1.433 . S
C712 C708 1.350 . S
C712 C709 1.463 . S
C712 N716 1.427 . S
C713 H703 0.929 . S
C713 C711 1.433 . S
C713 N716 1.384 . S
C714 H705 0.929 . S
C714 C706 1.378 . S
C714 C709 1.350 . S
C715 H702 0.929 . S
C715 C707 1.433 . S
C715 N717 1.384 . S
N716 C712 1.427 . S
N716 C713 1.384 . S
N717 C709 1.427 . S
N717 C715 1.384 . S
H718 C724 0.930 . S
H719 C728 0.930 . S
H720 C733 0.929 . S
H721 C731 0.929 . S
H722 C726 0.929 . S
H723 C732 0.929 . S
C724 H718 0.930 . S
C724 C725 1.367 . S
C724 C732 1.378 . S
C725 C724 1.367 . S
C725 C733 1.433 . S
C726 H722 0.929 . S
C726 C728 1.378 . S
C726 C730 1.350 . S
C727 C730 1.463 . S
C727 C732 1.350 . S
C727 N735 1.427 . S
C728 H719 0.930 . S
C728 C726 1.378 . S
C728 C729 1.367 . S
C729 C728 1.367 . S
C729 C731 1.433 . S
C730 C726 1.350 . S
C730 C727 1.463 . S
C730 N734 1.427 . S
C731 H721 0.929 . S
C731 C729 1.433 . S
C731 N734 1.384 . S
C732 H723 0.929 . S
C732 C724 1.378 . S
C732 C727 1.350 . S
C733 H720 0.929 . S
C733 C725 1.433 . S
C733 N735 1.384 . S
N734 C730 1.427 . S
N734 C731 1.384 . S
N735 C727 1.427 . S
N735 C733 1.384 . S
H736 C742 0.930 . S
H737 C746 0.930 . S
H738 C751 0.929 . S
H739 C749 0.929 . S
H740 C744 0.929 . S
H741 C750 0.929 . S
C742 H736 0.930 . S
C742 C743 1.367 . S
C742 C750 1.378 . S
C743 C742 1.367 . S
C743 C751 1.433 . S
C744 H740 0.929 . S
C744 C746 1.378 . S
C744 C748 1.350 . S
C745 C748 1.463 . S
C745 C750 1.350 . S
C745 N753 1.427 . S
C746 H737 0.930 . S
C746 C744 1.378 . S
C746 C747 1.367 . S
C747 C746 1.367 . S
C747 C749 1.433 . S
C748 C744 1.350 . S
C748 C745 1.463 . S
C748 N752 1.427 . S
C749 H739 0.929 . S
C749 C747 1.433 . S
C749 N752 1.384 . S
C750 H741 0.929 . S
C750 C742 1.378 . S
C750 C745 1.350 . S
C751 H738 0.929 . S
C751 C743 1.433 . S
C751 N753 1.384 . S
N752 C748 1.427 . S
N752 C749 1.384 . S
N753 C745 1.427 . S
N753 C751 1.384 . S
H754 C760 0.930 . S
H755 C764 0.930 . S
H756 C769 0.929 . S
H757 C767 0.929 . S
H758 C762 0.929 . S
H759 C768 0.929 . S
C760 H754 0.930 . S
C760 C761 1.367 . S
C760 C768 1.378 . S
C761 C760 1.367 . S
C761 C769 1.433 . S
C762 H758 0.929 . S
C762 C764 1.378 . S
C762 C766 1.350 . S
C763 C766 1.463 . S
C763 C768 1.350 . S
C763 N771 1.427 . S
C764 H755 0.930 . S
C764 C762 1.378 . S
C764 C765 1.367 . S
C765 C764 1.367 . S
C765 C767 1.433 . S
C766 C762 1.350 . S
C766 C763 1.463 . S
C766 N770 1.427 . S
C767 H757 0.929 . S
C767 C765 1.433 . S
C767 N770 1.384 . S
C768 H759 0.929 . S
C768 C760 1.378 . S
C768 C763 1.350 . S
C769 H756 0.929 . S
C769 C761 1.433 . S
C769 N771 1.384 . S
N770 C766 1.427 . S
N770 C767 1.384 . S
N771 C763 1.427 . S
N771 C769 1.384 . S
H772 C778 0.930 . S
H773 C782 0.930 . S
H774 C787 0.929 . S
H775 C785 0.929 . S
H776 C780 0.929 . S
H777 C786 0.929 . S
C778 H772 0.930 . S
C778 C779 1.367 . S
C778 C786 1.378 . S
C779 C778 1.367 . S
C779 C787 1.433 . S
C780 H776 0.929 . S
C780 C782 1.378 . S
C780 C784 1.350 . S
C781 C784 1.463 . S
C781 C786 1.350 . S
C781 N789 1.427 . S
C782 H773 0.930 . S
C782 C780 1.378 . S
C782 C783 1.367 . S
C783 C782 1.367 . S
C783 C785 1.433 . S
C784 C780 1.350 . S
C784 C781 1.463 . S
C784 N788 1.427 . S
C785 H775 0.929 . S
C785 C783 1.433 . S
C785 N788 1.384 . S
C786 H777 0.929 . S
C786 C778 1.378 . S
C786 C781 1.350 . S
C787 H774 0.929 . S
C787 C779 1.433 . S
C787 N789 1.384 . S
N788 C784 1.427 . S
N788 C785 1.384 . S
N789 C781 1.427 . S
N789 C787 1.384 . S
H790 C796 0.930 . S
H791 C800 0.930 . S
H792 C805 0.929 . S
H793 C803 0.929 . S
H794 C798 0.929 . S
H795 C804 0.929 . S
C796 H790 0.930 . S
C796 C797 1.367 . S
C796 C804 1.378 . S
C797 C796 1.367 . S
C797 C805 1.433 . S
C798 H794 0.929 . S
C798 C800 1.378 . S
C798 C802 1.350 . S
C799 C802 1.463 . S
C799 C804 1.350 . S
C799 N807 1.427 . S
C800 H791 0.930 . S
C800 C798 1.378 . S
C800 C801 1.367 . S
C801 C800 1.367 . S
C801 C803 1.433 . S
C802 C798 1.350 . S
C802 C799 1.463 . S
C802 N806 1.427 . S
C803 H793 0.929 . S
C803 C801 1.433 . S
C803 N806 1.384 . S
C804 H795 0.929 . S
C804 C796 1.378 . S
C804 C799 1.350 . S
C805 H792 0.929 . S
C805 C797 1.433 . S
C805 N807 1.384 . S
N806 C802 1.427 . S
N806 C803 1.384 . S
N807 C799 1.427 . S
N807 C805 1.384 . S
H808 C814 0.930 . S
H809 C818 0.930 . S
H810 C823 0.929 . S
H811 C821 0.929 . S
H812 C816 0.929 . S
H813 C822 0.929 . S
C814 H808 0.930 . S
C814 C815 1.367 . S
C814 C822 1.378 . S
C815 C814 1.367 . S
C815 C823 1.433 . S
C816 H812 0.929 . S
C816 C818 1.378 . S
C816 C820 1.350 . S
C817 C820 1.463 . S
C817 C822 1.350 . S
C817 N825 1.427 . S
C818 H809 0.930 . S
C818 C816 1.378 . S
C818 C819 1.367 . S
C819 C818 1.367 . S
C819 C821 1.433 . S
C820 C816 1.350 . S
C820 C817 1.463 . S
C820 N824 1.427 . S
C821 H811 0.929 . S
C821 C819 1.433 . S
C821 N824 1.384 . S
C822 H813 0.929 . S
C822 C814 1.378 . S
C822 C817 1.350 . S
C823 H810 0.929 . S
C823 C815 1.433 . S
C823 N825 1.384 . S
N824 C820 1.427 . S
N824 C821 1.384 . S
N825 C817 1.427 . S
N825 C823 1.384 . S
H826 C832 0.930 . S
H827 C836 0.930 . S
H828 C841 0.929 . S
H829 C839 0.929 . S
H830 C834 0.929 . S
H831 C840 0.929 . S
C832 H826 0.930 . S
C832 C833 1.367 . S
C832 C840 1.378 . S
C833 C832 1.367 . S
C833 C841 1.433 . S
C834 H830 0.929 . S
C834 C836 1.378 . S
C834 C838 1.350 . S
C835 C838 1.463 . S
C835 C840 1.350 . S
C835 N843 1.427 . S
C836 H827 0.930 . S
C836 C834 1.378 . S
C836 C837 1.367 . S
C837 C836 1.367 . S
C837 C839 1.433 . S
C838 C834 1.350 . S
C838 C835 1.463 . S
C838 N842 1.427 . S
C839 H829 0.929 . S
C839 C837 1.433 . S
C839 N842 1.384 . S
C840 H831 0.929 . S
C840 C832 1.378 . S
C840 C835 1.350 . S
C841 H828 0.929 . S
C841 C833 1.433 . S
C841 N843 1.384 . S
N842 C838 1.427 . S
N842 C839 1.384 . S
N843 C835 1.427 . S
N843 C841 1.384 . S
H844 C850 0.930 . S
H845 C854 0.930 . S
H846 C859 0.929 . S
H847 C857 0.929 . S
H848 C852 0.929 . S
H849 C858 0.929 . S
C850 H844 0.930 . S
C850 C851 1.367 . S
C850 C858 1.378 . S
C851 C850 1.367 . S
C851 C859 1.433 . S
C852 H848 0.929 . S
C852 C854 1.378 . S
C852 C856 1.350 . S
C853 C856 1.463 . S
C853 C858 1.350 . S
C853 N861 1.427 . S
C854 H845 0.930 . S
C854 C852 1.378 . S
C854 C855 1.367 . S
C855 C854 1.367 . S
C855 C857 1.433 . S
C856 C852 1.350 . S
C856 C853 1.463 . S
C856 N860 1.427 . S
C857 H847 0.929 . S
C857 C855 1.433 . S
C857 N860 1.384 . S
C858 H849 0.929 . S
C858 C850 1.378 . S
C858 C853 1.350 . S
C859 H846 0.929 . S
C859 C851 1.433 . S
C859 N861 1.384 . S
N860 C856 1.427 . S
N860 C857 1.384 . S
N861 C853 1.427 . S
N861 C859 1.384 . S
H862 C868 0.930 . S
H863 C872 0.930 . S
H864 C877 0.929 . S
H865 C875 0.929 . S
H866 C870 0.929 . S
H867 C876 0.929 . S
C868 H862 0.930 . S
C868 C869 1.367 . S
C868 C876 1.378 . S
C869 C868 1.367 . S
C869 C877 1.433 . S
C870 H866 0.929 . S
C870 C872 1.378 . S
C870 C874 1.350 . S
C871 C874 1.463 . S
C871 C876 1.350 . S
C871 N879 1.427 . S
C872 H863 0.930 . S
C872 C870 1.378 . S
C872 C873 1.367 . S
C873 C872 1.367 . S
C873 C875 1.433 . S
C874 C870 1.350 . S
C874 C871 1.463 . S
C874 N878 1.427 . S
C875 H865 0.929 . S
C875 C873 1.433 . S
C875 N878 1.384 . S
C876 H867 0.929 . S
C876 C868 1.378 . S
C876 C871 1.350 . S
C877 H864 0.929 . S
C877 C869 1.433 . S
C877 N879 1.384 . S
N878 C874 1.427 . S
N878 C875 1.384 . S
N879 C871 1.427 . S
N879 C877 1.384 . S
H880 C886 0.930 . S
H881 C890 0.930 . S
H882 C895 0.929 . S
H883 C893 0.929 . S
H884 C888 0.929 . S
H885 C894 0.929 . S
C886 H880 0.930 . S
C886 C887 1.367 . S
C886 C894 1.378 . S
C887 C886 1.367 . S
C887 C895 1.433 . S
C888 H884 0.929 . S
C888 C890 1.378 . S
C888 C892 1.350 . S
C889 C892 1.463 . S
C889 C894 1.350 . S
C889 N897 1.427 . S
C890 H881 0.930 . S
C890 C888 1.378 . S
C890 C891 1.367 . S
C891 C890 1.367 . S
C891 C893 1.433 . S
C892 C888 1.350 . S
C892 C889 1.463 . S
C892 N896 1.427 . S
C893 H883 0.929 . S
C893 C891 1.433 . S
C893 N896 1.384 . S
C894 H885 0.929 . S
C894 C886 1.378 . S
C894 C889 1.350 . S
C895 H882 0.929 . S
C895 C887 1.433 . S
C895 N897 1.384 . S
N896 C892 1.427 . S
N896 C893 1.384 . S
N897 C889 1.427 . S
N897 C895 1.384 . S
H898 C904 0.930 . S
H899 C908 0.930 . S
H900 C913 0.929 . S
H901 C911 0.929 . S
H902 C906 0.929 . S
H903 C912 0.929 . S
C904 H898 0.930 . S
C904 C905 1.367 . S
C904 C912 1.378 . S
C905 C904 1.367 . S
C905 C913 1.433 . S
C906 H902 0.929 . S
C906 C908 1.378 . S
C906 C910 1.350 . S
C907 C910 1.463 . S
C907 C912 1.350 . S
C907 N915 1.427 . S
C908 H899 0.930 . S
C908 C906 1.378 . S
C908 C909 1.367 . S
C909 C908 1.367 . S
C909 C911 1.433 . S
C910 C906 1.350 . S
C910 C907 1.463 . S
C910 N914 1.427 . S
C911 H901 0.929 . S
C911 C909 1.433 . S
C911 N914 1.384 . S
C912 H903 0.929 . S
C912 C904 1.378 . S
C912 C907 1.350 . S
C913 H900 0.929 . S
C913 C905 1.433 . S
C913 N915 1.384 . S
N914 C910 1.427 . S
N914 C911 1.384 . S
N915 C907 1.427 . S
N915 C913 1.384 . S
H916 C922 0.930 . S
H917 C926 0.930 . S
H918 C931 0.929 . S
H919 C929 0.929 . S
H920 C924 0.929 . S
H921 C930 0.929 . S
C922 H916 0.930 . S
C922 C923 1.367 . S
C922 C930 1.378 . S
C923 C922 1.367 . S
C923 C931 1.433 . S
C924 H920 0.929 . S
C924 C926 1.378 . S
C924 C928 1.350 . S
C925 C928 1.463 . S
C925 C930 1.350 . S
C925 N933 1.427 . S
C926 H917 0.930 . S
C926 C924 1.378 . S
C926 C927 1.367 . S
C927 C926 1.367 . S
C927 C929 1.433 . S
C928 C924 1.350 . S
C928 C925 1.463 . S
C928 N932 1.427 . S
C929 H919 0.929 . S
C929 C927 1.433 . S
C929 N932 1.384 . S
C930 H921 0.929 . S
C930 C922 1.378 . S
C930 C925 1.350 . S
C931 H918 0.929 . S
C931 C923 1.433 . S
C931 N933 1.384 . S
N932 C928 1.427 . S
N932 C929 1.384 . S
N933 C925 1.427 . S
N933 C931 1.384 . S
H934 C940 0.930 . S
H935 C944 0.930 . S
H936 C949 0.929 . S
H937 C947 0.929 . S
H938 C942 0.929 . S
H939 C948 0.929 . S
C940 H934 0.930 . S
C940 C941 1.367 . S
C940 C948 1.378 . S
C941 C940 1.367 . S
C941 C949 1.433 . S
C942 H938 0.929 . S
C942 C944 1.378 . S
C942 C946 1.350 . S
C943 C946 1.463 . S
C943 C948 1.350 . S
C943 N951 1.427 . S
C944 H935 0.930 . S
C944 C942 1.378 . S
C944 C945 1.367 . S
C945 C944 1.367 . S
C945 C947 1.433 . S
C946 C942 1.350 . S
C946 C943 1.463 . S
C946 N950 1.427 . S
C947 H937 0.929 . S
C947 C945 1.433 . S
C947 N950 1.384 . S
C948 H939 0.929 . S
C948 C940 1.378 . S
C948 C943 1.350 . S
C949 H936 0.929 . S
C949 C941 1.433 . S
C949 N951 1.384 . S
N950 C946 1.427 . S
N950 C947 1.384 . S
N951 C943 1.427 . S
N951 C949 1.384 . S
H952 C958 0.930 . S
H953 C962 0.930 . S
H954 C967 0.929 . S
H955 C965 0.929 . S
H956 C960 0.929 . S
H957 C966 0.929 . S
C958 H952 0.930 . S
C958 C959 1.367 . S
C958 C966 1.378 . S
C959 C958 1.367 . S
C959 C967 1.433 . S
C960 H956 0.929 . S
C960 C962 1.378 . S
C960 C964 1.350 . S
C961 C964 1.463 . S
C961 C966 1.350 . S
C961 N969 1.427 . S
C962 H953 0.930 . S
C962 C960 1.378 . S
C962 C963 1.367 . S
C963 C962 1.367 . S
C963 C965 1.433 . S
C964 C960 1.350 . S
C964 C961 1.463 . S
C964 N968 1.427 . S
C965 H955 0.929 . S
C965 C963 1.433 . S
C965 N968 1.384 . S
C966 H957 0.929 . S
C966 C958 1.378 . S
C966 C961 1.350 . S
C967 H954 0.929 . S
C967 C959 1.433 . S
C967 N969 1.384 . S
N968 C964 1.427 . S
N968 C965 1.384 . S
N969 C961 1.427 . S
N969 C967 1.384 . S
H970 C976 0.930 . S
H971 C980 0.930 . S
H972 C985 0.929 . S
H973 C983 0.929 . S
H974 C978 0.929 . S
H975 C984 0.929 . S
C976 H970 0.930 . S
C976 C977 1.367 . S
C976 C984 1.378 . S
C977 C976 1.367 . S
C977 C985 1.433 . S
C978 H974 0.929 . S
C978 C980 1.378 . S
C978 C982 1.350 . S
C979 C982 1.463 . S
C979 C984 1.350 . S
C979 N987 1.427 . S
C980 H971 0.930 . S
C980 C978 1.378 . S
C980 C981 1.367 . S
C981 C980 1.367 . S
C981 C983 1.433 . S
C982 C978 1.350 . S
C982 C979 1.463 . S
C982 N986 1.427 . S
C983 H973 0.929 . S
C983 C981 1.433 . S
C983 N986 1.384 . S
C984 H975 0.929 . S
C984 C976 1.378 . S
C984 C979 1.350 . S
C985 H972 0.929 . S
C985 C977 1.433 . S
C985 N987 1.384 . S
N986 C982 1.427 . S
N986 C983 1.384 . S
N987 C979 1.427 . S
N987 C985 1.384 . S
H988 C994 0.930 . S
H989 C998 0.930 . S
H990 C1003 0.929 . S
H991 C1001 0.929 . S
H992 C996 0.929 . S
H993 C1002 0.929 . S
C994 H988 0.930 . S
C994 C995 1.367 . S
C994 C1002 1.378 . S
C995 C994 1.367 . S
C995 C1003 1.433 . S
C996 H992 0.929 . S
C996 C998 1.378 . S
C996 C1000 1.350 . S
C997 C1000 1.463 . S
C997 C1002 1.350 . S
C997 N1005 1.427 . S
C998 H989 0.930 . S
C998 C996 1.378 . S
C998 C999 1.367 . S
C999 C998 1.367 . S
C999 C1001 1.433 . S
C1000 C996 1.350 . S
C1000 C997 1.463 . S
C1000 N1004 1.427 . S
C1001 H991 0.929 . S
C1001 C999 1.433 . S
C1001 N1004 1.384 . S
C1002 H993 0.929 . S
C1002 C994 1.378 . S
C1002 C997 1.350 . S
C1003 H990 0.929 . S
C1003 C995 1.433 . S
C1003 N1005 1.384 . S
N1004 C1000 1.427 . S
N1004 C1001 1.384 . S
N1005 C997 1.427 . S
N1005 C1003 1.384 . S
H1006 C1012 0.930 . S
H1007 C1016 0.930 . S
H1008 C1021 0.929 . S
H1009 C1019 0.929 . S
H1010 C1014 0.929 . S
H1011 C1020 0.929 . S
C1012 H1006 0.930 . S
C1012 C1013 1.367 . S
C1012 C1020 1.378 . S
C1013 C1012 1.367 . S
C1013 C1021 1.433 . S
C1014 H1010 0.929 . S
C1014 C1016 1.378 . S
C1014 C1018 1.350 . S
C1015 C1018 1.463 . S
C1015 C1020 1.350 . S
C1015 N1023 1.427 . S
C1016 H1007 0.930 . S
C1016 C1014 1.378 . S
C1016 C1017 1.367 . S
C1017 C1016 1.367 . S
C1017 C1019 1.433 . S
C1018 C1014 1.350 . S
C1018 C1015 1.463 . S
C1018 N1022 1.427 . S
C1019 H1009 0.929 . S
C1019 C1017 1.433 . S
C1019 N1022 1.384 . S
C1020 H1011 0.929 . S
C1020 C1012 1.378 . S
C1020 C1015 1.350 . S
C1021 H1008 0.929 . S
C1021 C1013 1.433 . S
C1021 N1023 1.384 . S
N1022 C1018 1.427 . S
N1022 C1019 1.384 . S
N1023 C1015 1.427 . S
N1023 C1021 1.384 . S
H1024 C1030 0.930 . S
H1025 C1034 0.930 . S
H1026 C1039 0.929 . S
H1027 C1037 0.929 . S
H1028 C1032 0.929 . S
H1029 C1038 0.929 . S
C1030 H1024 0.930 . S
C1030 C1031 1.367 . S
C1030 C1038 1.378 . S
C1031 C1030 1.367 . S
C1031 C1039 1.433 . S
C1032 H1028 0.929 . S
C1032 C1034 1.378 . S
C1032 C1036 1.350 . S
C1033 C1036 1.463 . S
C1033 C1038 1.350 . S
C1033 N1041 1.427 . S
C1034 H1025 0.930 . S
C1034 C1032 1.378 . S
C1034 C1035 1.367 . S
C1035 C1034 1.367 . S
C1035 C1037 1.433 . S
C1036 C1032 1.350 . S
C1036 C1033 1.463 . S
C1036 N1040 1.427 . S
C1037 H1027 0.929 . S
C1037 C1035 1.433 . S
C1037 N1040 1.384 . S
C1038 H1029 0.929 . S
C1038 C1030 1.378 . S
C1038 C1033 1.350 . S
C1039 H1026 0.929 . S
C1039 C1031 1.433 . S
C1039 N1041 1.384 . S
N1040 C1036 1.427 . S
N1040 C1037 1.384 . S
N1041 C1033 1.427 . S
N1041 C1039 1.384 . S
H1042 C1048 0.930 . S
H1043 C1052 0.930 . S
H1044 C1057 0.929 . S
H1045 C1055 0.929 . S
H1046 C1050 0.929 . S
H1047 C1056 0.929 . S
C1048 H1042 0.930 . S
C1048 C1049 1.367 . S
C1048 C1056 1.378 . S
C1049 C1048 1.367 . S
C1049 C1057 1.433 . S
C1050 H1046 0.929 . S
C1050 C1052 1.378 . S
C1050 C1054 1.350 . S
C1051 C1054 1.463 . S
C1051 C1056 1.350 . S
C1051 N1059 1.427 . S
C1052 H1043 0.930 . S
C1052 C1050 1.378 . S
C1052 C1053 1.367 . S
C1053 C1052 1.367 . S
C1053 C1055 1.433 . S
C1054 C1050 1.350 . S
C1054 C1051 1.463 . S
C1054 N1058 1.427 . S
C1055 H1045 0.929 . S
C1055 C1053 1.433 . S
C1055 N1058 1.384 . S
C1056 H1047 0.929 . S
C1056 C1048 1.378 . S
C1056 C1051 1.350 . S
C1057 H1044 0.929 . S
C1057 C1049 1.433 . S
C1057 N1059 1.384 . S
N1058 C1054 1.427 . S
N1058 C1055 1.384 . S
N1059 C1051 1.427 . S
N1059 C1057 1.384 . S
H1060 C1066 0.930 . S
H1061 C1070 0.930 . S
H1062 C1075 0.929 . S
H1063 C1073 0.929 . S
H1064 C1068 0.929 . S
H1065 C1074 0.929 . S
C1066 H1060 0.930 . S
C1066 C1067 1.367 . S
C1066 C1074 1.378 . S
C1067 C1066 1.367 . S
C1067 C1075 1.433 . S
C1068 H1064 0.929 . S
C1068 C1070 1.378 . S
C1068 C1072 1.350 . S
C1069 C1072 1.463 . S
C1069 C1074 1.350 . S
C1069 N1077 1.427 . S
C1070 H1061 0.930 . S
C1070 C1068 1.378 . S
C1070 C1071 1.367 . S
C1071 C1070 1.367 . S
C1071 C1073 1.433 . S
C1072 C1068 1.350 . S
C1072 C1069 1.463 . S
C1072 N1076 1.427 . S
C1073 H1063 0.929 . S
C1073 C1071 1.433 . S
C1073 N1076 1.384 . S
C1074 H1065 0.929 . S
C1074 C1066 1.378 . S
C1074 C1069 1.350 . S
C1075 H1062 0.929 . S
C1075 C1067 1.433 . S
C1075 N1077 1.384 . S
N1076 C1072 1.427 . S
N1076 C1073 1.384 . S
N1077 C1069 1.427 . S
N1077 C1075 1.384 . S
H1078 C1084 0.930 . S
H1079 C1088 0.930 . S
H1080 C1093 0.929 . S
H1081 C1091 0.929 . S
H1082 C1086 0.929 . S
H1083 C1092 0.929 . S
C1084 H1078 0.930 . S
C1084 C1085 1.367 . S
C1084 C1092 1.378 . S
C1085 C1084 1.367 . S
C1085 C1093 1.433 . S
C1086 H1082 0.929 . S
C1086 C1088 1.378 . S
C1086 C1090 1.350 . S
C1087 C1090 1.463 . S
C1087 C1092 1.350 . S
C1087 N1095 1.427 . S
C1088 H1079 0.930 . S
C1088 C1086 1.378 . S
C1088 C1089 1.367 . S
C1089 C1088 1.367 . S
C1089 C1091 1.433 . S
C1090 C1086 1.350 . S
C1090 C1087 1.463 . S
C1090 N1094 1.427 . S
C1091 H1081 0.929 . S
C1091 C1089 1.433 . S
C1091 N1094 1.384 . S
C1092 H1083 0.929 . S
C1092 C1084 1.378 . S
C1092 C1087 1.350 . S
C1093 H1080 0.929 . S
C1093 C1085 1.433 . S
C1093 N1095 1.384 . S
N1094 C1090 1.427 . S
N1094 C1091 1.384 . S
N1095 C1087 1.427 . S
N1095 C1093 1.384 . S
H1096 C1102 0.930 . S
H1097 C1106 0.930 . S
H1098 C1111 0.929 . S
H1099 C1109 0.929 . S
H1100 C1104 0.929 . S
H1101 C1110 0.929 . S
C1102 H1096 0.930 . S
C1102 C1103 1.367 . S
C1102 C1110 1.378 . S
C1103 C1102 1.367 . S
C1103 C1111 1.433 . S
C1104 H1100 0.929 . S
C1104 C1106 1.378 . S
C1104 C1108 1.350 . S
C1105 C1108 1.463 . S
C1105 C1110 1.350 . S
C1105 N1113 1.427 . S
C1106 H1097 0.930 . S
C1106 C1104 1.378 . S
C1106 C1107 1.367 . S
C1107 C1106 1.367 . S
C1107 C1109 1.433 . S
C1108 C1104 1.350 . S
C1108 C1105 1.463 . S
C1108 N1112 1.427 . S
C1109 H1099 0.929 . S
C1109 C1107 1.433 . S
C1109 N1112 1.384 . S
C1110 H1101 0.929 . S
C1110 C1102 1.378 . S
C1110 C1105 1.350 . S
C1111 H1098 0.929 . S
C1111 C1103 1.433 . S
C1111 N1113 1.384 . S
N1112 C1108 1.427 . S
N1112 C1109 1.384 . S
N1113 C1105 1.427 . S
N1113 C1111 1.384 . S
H1114 C1120 0.930 . S
H1115 C1124 0.930 . S
H1116 C1129 0.929 . S
H1117 C1127 0.929 . S
H1118 C1122 0.929 . S
H1119 C1128 0.929 . S
C1120 H1114 0.930 . S
C1120 C1121 1.367 . S
C1120 C1128 1.378 . S
C1121 C1120 1.367 . S
C1121 C1129 1.433 . S
C1122 H1118 0.929 . S
C1122 C1124 1.378 . S
C1122 C1126 1.350 . S
C1123 C1126 1.463 . S
C1123 C1128 1.350 . S
C1123 N1131 1.427 . S
C1124 H1115 0.930 . S
C1124 C1122 1.378 . S
C1124 C1125 1.367 . S
C1125 C1124 1.367 . S
C1125 C1127 1.433 . S
C1126 C1122 1.350 . S
C1126 C1123 1.463 . S
C1126 N1130 1.427 . S
C1127 H1117 0.929 . S
C1127 C1125 1.433 . S
C1127 N1130 1.384 . S
C1128 H1119 0.929 . S
C1128 C1120 1.378 . S
C1128 C1123 1.350 . S
C1129 H1116 0.929 . S
C1129 C1121 1.433 . S
C1129 N1131 1.384 . S
N1130 C1126 1.427 . S
N1130 C1127 1.384 . S
N1131 C1123 1.427 . S
N1131 C1129 1.384 . S
H1132 C1138 0.930 . S
H1133 C1142 0.930 . S
H1134 C1147 0.929 . S
H1135 C1145 0.929 . S
H1136 C1140 0.929 . S
H1137 C1146 0.929 . S
C1138 H1132 0.930 . S
C1138 C1139 1.367 . S
C1138 C1146 1.378 . S
C1139 C1138 1.367 . S
C1139 C1147 1.433 . S
C1140 H1136 0.929 . S
C1140 C1142 1.378 . S
C1140 C1144 1.350 . S
C1141 C1144 1.463 . S
C1141 C1146 1.350 . S
C1141 N1149 1.427 . S
C1142 H1133 0.930 . S
C1142 C1140 1.378 . S
C1142 C1143 1.367 . S
C1143 C1142 1.367 . S
C1143 C1145 1.433 . S
C1144 C1140 1.350 . S
C1144 C1141 1.463 . S
C1144 N1148 1.427 . S
C1145 H1135 0.929 . S
C1145 C1143 1.433 . S
C1145 N1148 1.384 . S
C1146 H1137 0.929 . S
C1146 C1138 1.378 . S
C1146 C1141 1.350 . S
C1147 H1134 0.929 . S
C1147 C1139 1.433 . S
C1147 N1149 1.384 . S
N1148 C1144 1.427 . S
N1148 C1145 1.384 . S
N1149 C1141 1.427 . S
N1149 C1147 1.384 . S
H1150 C1156 0.930 . S
H1151 C1160 0.930 . S
H1152 C1165 0.929 . S
H1153 C1163 0.929 . S
H1154 C1158 0.929 . S
H1155 C1164 0.929 . S
C1156 H1150 0.930 . S
C1156 C1157 1.367 . S
C1156 C1164 1.378 . S
C1157 C1156 1.367 . S
C1157 C1165 1.433 . S
C1158 H1154 0.929 . S
C1158 C1160 1.378 . S
C1158 C1162 1.350 . S
C1159 C1162 1.463 . S
C1159 C1164 1.350 . S
C1159 N1167 1.427 . S
C1160 H1151 0.930 . S
C1160 C1158 1.378 . S
C1160 C1161 1.367 . S
C1161 C1160 1.367 . S
C1161 C1163 1.433 . S
C1162 C1158 1.350 . S
C1162 C1159 1.463 . S
C1162 N1166 1.427 . S
C1163 H1153 0.929 . S
C1163 C1161 1.433 . S
C1163 N1166 1.384 . S
C1164 H1155 0.929 . S
C1164 C1156 1.378 . S
C1164 C1159 1.350 . S
C1165 H1152 0.929 . S
C1165 C1157 1.433 . S
C1165 N1167 1.384 . S
N1166 C1162 1.427 . S
N1166 C1163 1.384 . S
N1167 C1159 1.427 . S
N1167 C1165 1.384 . S
H1168 C1174 0.930 . S
H1169 C1178 0.930 . S
H1170 C1183 0.929 . S
H1171 C1181 0.929 . S
H1172 C1176 0.929 . S
H1173 C1182 0.929 . S
C1174 H1168 0.930 . S
C1174 C1175 1.367 . S
C1174 C1182 1.378 . S
C1175 C1174 1.367 . S
C1175 C1183 1.433 . S
C1176 H1172 0.929 . S
C1176 C1178 1.378 . S
C1176 C1180 1.350 . S
C1177 C1180 1.463 . S
C1177 C1182 1.350 . S
C1177 N1185 1.427 . S
C1178 H1169 0.930 . S
C1178 C1176 1.378 . S
C1178 C1179 1.367 . S
C1179 C1178 1.367 . S
C1179 C1181 1.433 . S
C1180 C1176 1.350 . S
C1180 C1177 1.463 . S
C1180 N1184 1.427 . S
C1181 H1171 0.929 . S
C1181 C1179 1.433 . S
C1181 N1184 1.384 . S
C1182 H1173 0.929 . S
C1182 C1174 1.378 . S
C1182 C1177 1.350 . S
C1183 H1170 0.929 . S
C1183 C1175 1.433 . S
C1183 N1185 1.384 . S
N1184 C1180 1.427 . S
N1184 C1181 1.384 . S
N1185 C1177 1.427 . S
N1185 C1183 1.384 . S
H1186 C1192 0.930 . S
H1187 C1196 0.930 . S
H1188 C1201 0.929 . S
H1189 C1199 0.929 . S
H1190 C1194 0.929 . S
H1191 C1200 0.929 . S
C1192 H1186 0.930 . S
C1192 C1193 1.367 . S
C1192 C1200 1.378 . S
C1193 C1192 1.367 . S
C1193 C1201 1.433 . S
C1194 H1190 0.929 . S
C1194 C1196 1.378 . S
C1194 C1198 1.350 . S
C1195 C1198 1.463 . S
C1195 C1200 1.350 . S
C1195 N1203 1.427 . S
C1196 H1187 0.930 . S
C1196 C1194 1.378 . S
C1196 C1197 1.367 . S
C1197 C1196 1.367 . S
C1197 C1199 1.433 . S
C1198 C1194 1.350 . S
C1198 C1195 1.463 . S
C1198 N1202 1.427 . S
C1199 H1189 0.929 . S
C1199 C1197 1.433 . S
C1199 N1202 1.384 . S
C1200 H1191 0.929 . S
C1200 C1192 1.378 . S
C1200 C1195 1.350 . S
C1201 H1188 0.929 . S
C1201 C1193 1.433 . S
C1201 N1203 1.384 . S
N1202 C1198 1.427 . S
N1202 C1199 1.384 . S
N1203 C1195 1.427 . S
N1203 C1201 1.384 . S
H1204 C1210 0.930 . S
H1205 C1214 0.930 . S
H1206 C1219 0.929 . S
H1207 C1217 0.929 . S
H1208 C1212 0.929 . S
H1209 C1218 0.929 . S
C1210 H1204 0.930 . S
C1210 C1211 1.367 . S
C1210 C1218 1.378 . S
C1211 C1210 1.367 . S
C1211 C1219 1.433 . S
C1212 H1208 0.929 . S
C1212 C1214 1.378 . S
C1212 C1216 1.350 . S
C1213 C1216 1.463 . S
C1213 C1218 1.350 . S
C1213 N1221 1.427 . S
C1214 H1205 0.930 . S
C1214 C1212 1.378 . S
C1214 C1215 1.367 . S
C1215 C1214 1.367 . S
C1215 C1217 1.433 . S
C1216 C1212 1.350 . S
C1216 C1213 1.463 . S
C1216 N1220 1.427 . S
C1217 H1207 0.929 . S
C1217 C1215 1.433 . S
C1217 N1220 1.384 . S
C1218 H1209 0.929 . S
C1218 C1210 1.378 . S
C1218 C1213 1.350 . S
C1219 H1206 0.929 . S
C1219 C1211 1.433 . S
C1219 N1221 1.384 . S
N1220 C1216 1.427 . S
N1220 C1217 1.384 . S
N1221 C1213 1.427 . S
N1221 C1219 1.384 . S
C369 C187 1.352 . S
C365 C9 1.440 . S
C387 C188 1.521 . S
C383 C22 1.565 . S
C405 C182 1.078 . S
C401 C49 1.079 . S
C419 C61 1.002 . S
C423 C181 0.999 . S
C437 C81 1.562 . S
C441 C184 1.534 . S
C459 C186 1.071 . S
C455 C108 1.084 . S
C473 C122 1.006 . S
C477 C185 1.003 . S
C491 C148 1.442 . S
C495 C183 1.347 . S
C513 C218 2.222 . S
C509 C18 2.176 . S
C527 C39 1.507 . S
C531 C249 1.493 . S
C549 C217 2.073 . S
C545 C58 2.112 . S
C567 C252 1.010 . S
C563 C69 1.024 . S
C581 C89 1.258 . S
C585 C215 1.253 . S
C603 C247 1.328 . S
C599 C102 1.335 . S
C617 C139 1.259 . S
C621 C220 1.287 . S
C635 C142 1.262 . S
C639 C254 1.217 . S
C653 C1 1.262 . S
C657 C250 1.216 . S
C671 C98 1.501 . S
C675 C253 1.498 . S
C693 C221 2.072 . S
C689 C119 2.112 . S
C711 C248 1.019 . S
C707 C128 1.017 . S
C725 C159 2.168 . S
C729 C214 2.225 . S
C743 C41 1.334 . S
C747 C251 1.322 . S
C765 C216 1.286 . S
C761 C78 1.260 . S
C779 C28 1.257 . S
C783 C219 1.250 . S
C797 C149 1.445 . S
C801 C286 1.354 . S
C815 C82 1.211 . S
C819 C287 1.187 . S
C837 C281 1.103 . S
C833 C109 1.134 . S
C855 C280 1.415 . S
C851 C121 1.395 . S
C869 C21 1.219 . S
C873 C283 1.183 . S
C891 C285 1.107 . S
C887 C48 1.129 . S
C905 C62 1.389 . S
C909 C284 1.415 . S
C923 C8 1.448 . S
C927 C282 1.341 . S
C941 C158 2.319 . S
C945 C320 2.262 . S
C963 C352 1.265 . S
C959 C99 1.269 . S
C977 C118 2.008 . S
C981 C313 2.024 . S
C995 C129 1.306 . S
C999 C347 1.302 . S
C1017 C318 1.039 . S
C1013 C29 1.044 . S
C1031 C42 1.517 . S
C1035 C349 1.472 . S
C1053 C315 1.550 . S
C1049 C79 1.516 . S
C1071 C350 1.250 . S
C1067 C2 1.240 . S
C1089 C346 1.250 . S
C1085 C141 1.241 . S
C1103 C38 1.264 . S
C1107 C348 1.264 . S
C1121 C59 2.013 . S
C1125 C317 2.025 . S
C1143 C351 1.295 . S
C1139 C68 1.296 . S
C1157 C19 2.322 . S
C1161 C316 2.272 . S
C1175 C101 1.517 . S
C1179 C353 1.472 . S
C1197 C319 1.537 . S
C1193 C138 1.530 . S
C1215 C314 1.049 . S
C1211 C88 1.033 . S
