# Generated by pormake.
# Topology dag, (6,3)-cn, num edge types: 1
# Building blocks:
#     Node 0, Type 0, BuildingBlock: IZENUY_clean_sbu_0, # of connection points: 6
#     Node 1, Type 0, BuildingBlock: IZENUY_clean_sbu_0, # of connection points: 6
#     Node 2, Type 0, BuildingBlock: IZENUY_clean_sbu_0, # of connection points: 6
#     Node 3, Type 0, BuildingBlock: IZENUY_clean_sbu_0, # of connection points: 6
#     Node 4, Type 1, BuildingBlock: WUSLED_clean_sbu_0, # of connection points: 3
#     Node 5, Type 1, BuildingBlock: WUSLED_clean_sbu_0, # of connection points: 3
#     Node 6, Type 1, BuildingBlock: WUSLED_clean_sbu_0, # of connection points: 3
#     Node 7, Type 1, BuildingBlock: WUSLED_clean_sbu_0, # of connection points: 3
#     Node 8, Type 1, BuildingBlock: WUSLED_clean_sbu_0, # of connection points: 3
#     Node 9, Type 1, BuildingBlock: WUSLED_clean_sbu_0, # of connection points: 3
#     Node 10, Type 1, BuildingBlock: WUSLED_clean_sbu_0, # of connection points: 3
#     Node 11, Type 1, BuildingBlock: WUSLED_clean_sbu_0, # of connection points: 3
#     Edge 12, Type (0, 1), BuildingBlock: TEMPAE_clean_linker_10, # of connection points: 2
#     Edge 13, Type (0, 1), BuildingBlock: TEMPAE_clean_linker_10, # of connection points: 2
#     Edge 14, Type (0, 1), BuildingBlock: TEMPAE_clean_linker_10, # of connection points: 2
#     Edge 15, Type (0, 1), BuildingBlock: TEMPAE_clean_linker_10, # of connection points: 2
#     Edge 16, Type (0, 1), BuildingBlock: TEMPAE_clean_linker_10, # of connection points: 2
#     Edge 17, Type (0, 1), BuildingBlock: TEMPAE_clean_linker_10, # of connection points: 2
#     Edge 18, Type (0, 1), BuildingBlock: TEMPAE_clean_linker_10, # of connection points: 2
#     Edge 19, Type (0, 1), BuildingBlock: TEMPAE_clean_linker_10, # of connection points: 2
#     Edge 20, Type (0, 1), BuildingBlock: TEMPAE_clean_linker_10, # of connection points: 2
#     Edge 21, Type (0, 1), BuildingBlock: TEMPAE_clean_linker_10, # of connection points: 2
#     Edge 22, Type (0, 1), BuildingBlock: TEMPAE_clean_linker_10, # of connection points: 2
#     Edge 23, Type (0, 1), BuildingBlock: TEMPAE_clean_linker_10, # of connection points: 2
#     Edge 24, Type (0, 1), BuildingBlock: TEMPAE_clean_linker_10, # of connection points: 2
#     Edge 25, Type (0, 1), BuildingBlock: TEMPAE_clean_linker_10, # of connection points: 2
#     Edge 26, Type (0, 1), BuildingBlock: TEMPAE_clean_linker_10, # of connection points: 2
#     Edge 27, Type (0, 1), BuildingBlock: TEMPAE_clean_linker_10, # of connection points: 2
#     Edge 28, Type (0, 1), BuildingBlock: TEMPAE_clean_linker_10, # of connection points: 2
#     Edge 29, Type (0, 1), BuildingBlock: TEMPAE_clean_linker_10, # of connection points: 2
#     Edge 30, Type (0, 1), BuildingBlock: TEMPAE_clean_linker_10, # of connection points: 2
#     Edge 31, Type (0, 1), BuildingBlock: TEMPAE_clean_linker_10, # of connection points: 2
#     Edge 32, Type (0, 1), BuildingBlock: TEMPAE_clean_linker_10, # of connection points: 2
#     Edge 33, Type (0, 1), BuildingBlock: TEMPAE_clean_linker_10, # of connection points: 2
#     Edge 34, Type (0, 1), BuildingBlock: TEMPAE_clean_linker_10, # of connection points: 2
#     Edge 35, Type (0, 1), BuildingBlock: TEMPAE_clean_linker_10, # of connection points: 2
# Relax obj value: 0.246
# Max RMSD: 0.191
# Mean RMSD: 0.158
data_MOF--net-dag--node1-IZENUY_clean_sbu_0--node2-WUSLED_clean_sbu_0--edge1-TEMPAE_clean_linker_10
_symmetry_space_group_name_H-M    P1
_symmetry_Int_Tables_number       1
_symmetry_cell_setting            triclinic
loop_
_symmetry_equiv_pos_as_xyz
'x, y, z'
_cell_length_a     50.04781
_cell_length_b     52.365312
_cell_length_c     44.223372
_cell_angle_alpha  94.884388
_cell_angle_beta   90.406088
_cell_angle_gamma 90.244899
loop_
_atom_site_label
_atom_site_type_symbol
_atom_site_fract_x
_atom_site_fract_y
_atom_site_fract_z
_atom_type_partial_charge
Fe0 Fe 0.1875 0.85588 0.089 0.0
Fe1 Fe 0.13353 0.87091 0.06318 0.0
O2 O 0.15668 0.84675 0.07088 0.0
Fe3 Fe 0.149 0.81396 0.0609 0.0
O4 O 0.16505 0.80258 0.09492 0.0
O5 O 0.18002 0.83772 0.12083 0.0
O6 O 0.174 0.88393 0.11117 0.0
C7 C 0.15039 0.88838 0.11996 0.0
C8 C 0.20247 0.81434 0.04766 0.0
O9 O 0.13069 0.8809 0.10349 0.0
C10 C 0.13069 0.83966 0.01035 0.0
O11 O 0.19708 0.87494 0.05818 0.0
O12 O 0.15896 0.89539 0.05788 0.0
O13 O 0.17903 0.80938 0.03841 0.0
O14 O 0.20682 0.82946 0.0709 0.0
C15 C 0.09927 0.83083 0.07841 0.0
O16 O 0.13473 0.86203 0.02272 0.0
O17 O 0.13176 0.82009 0.02538 0.0
C18 C 0.18343 0.89375 0.05098 0.0
O19 O 0.10368 0.85142 0.06648 0.0
O20 O 0.11798 0.81539 0.08224 0.0
C21 C 0.17331 0.8144 0.11953 0.0
Fe22 Fe 0.6867 0.65294 0.48712 0.0
Fe23 Fe 0.64587 0.69436 0.51036 0.0
O24 O 0.6552 0.6617 0.503 0.0
Fe25 Fe 0.63256 0.6371 0.51107 0.0
O26 O 0.65805 0.61324 0.51733 0.0
O27 O 0.69562 0.63465 0.51893 0.0
O28 O 0.70514 0.67989 0.50638 0.0
C29 C 0.69908 0.69666 0.52739 0.0
C30 C 0.65017 0.61908 0.4553 0.0
O31 O 0.67517 0.70215 0.53356 0.0
C32 C 0.59701 0.67466 0.49291 0.0
O33 O 0.68029 0.67017 0.45421 0.0
O34 O 0.66182 0.70501 0.47635 0.0
O35 O 0.6301 0.62623 0.471 0.0
O36 O 0.67372 0.62442 0.46459 0.0
C37 C 0.62938 0.66982 0.5622 0.0
O38 O 0.61534 0.69015 0.48768 0.0
O39 O 0.60208 0.65539 0.50703 0.0
C40 C 0.67169 0.69266 0.4532 0.0
O41 O 0.62859 0.6886 0.54581 0.0
O42 O 0.63406 0.64722 0.55115 0.0
C43 C 0.68222 0.61547 0.52539 0.0
Fe44 Fe 0.85837 0.19272 0.01857 0.0
Fe45 Fe 0.87274 0.13597 0.02104 0.0
O46 O 0.85031 0.15981 0.01026 0.0
Fe47 Fe 0.82001 0.15054 0.99128 0.0
O48 O 0.82852 0.16764 0.95893 0.0
O49 O 0.84246 0.20334 0.98416 0.0
O50 O 0.88929 0.18951 0.99711 0.0
C51 C 0.9078 0.17444 0.00312 0.0
C52 C 0.80469 0.19353 0.0312 0.0
O53 O 0.90309 0.15529 0.01783 0.0
C54 C 0.8223 0.11406 0.03155 0.0
O55 O 0.87568 0.18787 0.05455 0.0
O56 O 0.86935 0.14701 0.06083 0.0
O57 O 0.80044 0.17761 0.00845 0.0
O58 O 0.82817 0.1985 0.04059 0.0
C59 C 0.85837 0.11642 0.964 0.0
O60 O 0.84697 0.11189 0.02628 0.0
O61 O 0.80911 0.13232 0.02227 0.0
C62 C 0.87491 0.16956 0.07159 0.0
O63 O 0.87732 0.12358 0.98183 0.0
O64 O 0.83433 0.12215 0.97024 0.0
C65 C 0.83527 0.19081 0.9597 0.0
Fe66 Fe 0.3728 0.36884 0.56459 0.0
Fe67 Fe 0.32055 0.35201 0.59289 0.0
O68 O 0.35103 0.34407 0.57399 0.0
Fe69 Fe 0.35941 0.31138 0.56488 0.0
O70 O 0.3956 0.31594 0.56976 0.0
O71 O 0.40041 0.35666 0.58587 0.0
O72 O 0.3653 0.38996 0.59867 0.0
C73 C 0.35534 0.38521 0.62389 0.0
C74 C 0.37582 0.33245 0.51305 0.0
O75 O 0.33823 0.36758 0.62544 0.0
C76 C 0.30374 0.31344 0.55204 0.0
O77 O 0.34701 0.38308 0.54217 0.0
O78 O 0.31581 0.38273 0.57658 0.0
O79 O 0.36172 0.3155 0.52427 0.0
O80 O 0.38423 0.35188 0.52937 0.0
C81 C 0.33786 0.30889 0.62136 0.0
O82 O 0.30124 0.33678 0.56136 0.0
O83 O 0.32447 0.30094 0.5582 0.0
C84 C 0.32488 0.39091 0.55265 0.0
O85 O 0.3192 0.32304 0.61329 0.0
O86 O 0.3582 0.305 0.60488 0.0
C87 C 0.40931 0.33413 0.58259 0.0
C88 C 0.01981 0.17507 0.31222 0.0
C89 C 0.01408 0.15254 0.29376 0.0
C90 C 0.98131 0.17529 0.26524 0.0
C91 C 0.99497 0.15263 0.27055 0.0
C92 C 0.98657 0.19762 0.28441 0.0
C93 C 0.00572 0.1975 0.30766 0.0
U94 U 0.07692 0.14126 0.34771 0.0
O95 O 0.11779 0.15368 0.36002 0.0
O96 O 0.09111 0.14078 0.39507 0.0
C97 C 0.11476 0.14992 0.38881 0.0
C98 C 0.04146 0.17558 0.33501 0.0
C99 C 0.12703 0.16907 0.4111 0.0
C100 C 0.14012 0.21283 0.42808 0.0
C101 C 0.12455 0.19561 0.40916 0.0
C102 C 0.15982 0.17716 0.45152 0.0
C103 C 0.15852 0.20363 0.44874 0.0
C104 C 0.14417 0.1601 0.43297 0.0
C105 C 0.08619 0.07127 0.30971 0.0
C106 C 0.12384 0.04443 0.29316 0.0
C107 C 0.07875 0.02737 0.28921 0.0
C108 C 0.0689 0.05054 0.30232 0.0
C109 C 0.10613 0.02446 0.28347 0.0
C110 C 0.1139 0.06785 0.30614 0.0
C111 C 0.07406 0.09675 0.31578 0.0
O112 O 0.03825 0.16022 0.35675 0.0
O113 O 0.06567 0.17472 0.32368 0.0
O114 O 0.08743 0.11648 0.30711 0.0
O115 O 0.06145 0.10158 0.34159 0.0
H116 H 0.02475 0.13499 0.29695 0.0
H117 H 0.9911 0.13501 0.25651 0.0
H118 H 0.9766 0.21543 0.28079 0.0
H119 H 0.00996 0.21507 0.32162 0.0
H120 H 0.13882 0.23317 0.42545 0.0
H121 H 0.11146 0.20292 0.39233 0.0
H122 H 0.17364 0.16958 0.46744 0.0
H123 H 0.14637 0.13971 0.43479 0.0
H124 H 0.14503 0.04259 0.28866 0.0
H125 H 0.06478 0.01221 0.28177 0.0
H126 H 0.04749 0.05282 0.30472 0.0
H127 H 0.12763 0.08364 0.31162 0.0
C128 C 0.40089 0.57273 0.82251 0.0
C129 C 0.41441 0.56949 0.79473 0.0
C130 C 0.39557 0.52654 0.78538 0.0
C131 C 0.41161 0.54655 0.77618 0.0
C132 C 0.38303 0.52946 0.81369 0.0
C133 C 0.38559 0.55244 0.83204 0.0
U134 U 0.42569 0.64187 0.84632 0.0
O135 O 0.40184 0.67635 0.85707 0.0
O136 O 0.42785 0.66202 0.89219 0.0
C137 C 0.41064 0.6795 0.8852 0.0
C138 C 0.40056 0.59752 0.84093 0.0
C139 C 0.39116 0.68852 0.90821 0.0
C140 C 0.34584 0.69122 0.92729 0.0
C141 C 0.365 0.6788 0.90844 0.0
C142 C 0.37922 0.72225 0.94658 0.0
C143 C 0.35263 0.71354 0.94585 0.0
C144 C 0.39827 0.70983 0.92792 0.0
C145 C 0.48843 0.6555 0.79249 0.0
C146 C 0.52212 0.6844 0.77572 0.0
C147 C 0.51763 0.64134 0.75119 0.0
C148 C 0.49677 0.63643 0.77063 0.0
C149 C 0.53053 0.6654 0.75346 0.0
C150 C 0.50116 0.67945 0.79509 0.0
C151 C 0.46586 0.65061 0.81186 0.0
O152 O 0.42083 0.60247 0.85962 0.0
O153 O 0.39315 0.61739 0.8267 0.0
O154 O 0.4691 0.64084 0.83804 0.0
O155 O 0.44112 0.65474 0.80352 0.0
H156 H 0.42637 0.58492 0.78701 0.0
H157 H 0.42144 0.5446 0.75436 0.0
H158 H 0.37035 0.51437 0.82102 0.0
H159 H 0.3749 0.55467 0.85332 0.0
H160 H 0.32546 0.68414 0.9262 0.0
H161 H 0.35917 0.66241 0.89319 0.0
H162 H 0.38514 0.73912 0.96099 0.0
H163 H 0.41838 0.7176 0.9279 0.0
H164 H 0.53171 0.70305 0.77815 0.0
H165 H 0.52318 0.62648 0.73386 0.0
H166 H 0.48688 0.6179 0.76829 0.0
H167 H 0.49475 0.69436 0.81193 0.0
C168 C 0.75184 0.9037 0.13897 0.0
C169 C 0.77387 0.90588 0.11986 0.0
C170 C 0.76162 0.9499 0.11216 0.0
C171 C 0.77867 0.92873 0.10652 0.0
C172 C 0.73913 0.94732 0.1306 0.0
C173 C 0.73434 0.92442 0.14394 0.0
U174 U 0.77925 0.84118 0.16169 0.0
O175 O 0.78065 0.8244 0.20549 0.0
O176 O 0.7608 0.8033 0.16636 0.0
C177 C 0.76733 0.80372 0.19526 0.0
C178 C 0.74809 0.88052 0.15521 0.0
C179 C 0.74792 0.79347 0.21609 0.0
C180 C 0.71416 0.79905 0.25549 0.0
C181 C 0.72892 0.8089 0.23213 0.0
C182 C 0.73648 0.75822 0.24598 0.0
C183 C 0.71844 0.77383 0.263 0.0
C184 C 0.75098 0.76793 0.22266 0.0
C185 C 0.85096 0.8283 0.12802 0.0
C186 C 0.89115 0.80818 0.14588 0.0
C187 C 0.88986 0.82328 0.0956 0.0
C188 C 0.86355 0.83123 0.10033 0.0
C189 C 0.90419 0.81226 0.11858 0.0
C190 C 0.86465 0.8161 0.15057 0.0
C191 C 0.8253 0.84142 0.13366 0.0
O192 O 0.74612 0.85882 0.13801 0.0
O193 O 0.76405 0.87901 0.1787 0.0
O194 O 0.82147 0.8525 0.16106 0.0
O195 O 0.80371 0.83056 0.12121 0.0
H196 H 0.78765 0.89008 0.11574 0.0
H197 H 0.79593 0.92993 0.09205 0.0
H198 H 0.72574 0.96329 0.1356 0.0
H199 H 0.71733 0.92311 0.15874 0.0
H200 H 0.70048 0.81143 0.26866 0.0
H201 H 0.72636 0.82873 0.22752 0.0
H202 H 0.74025 0.73882 0.25166 0.0
H203 H 0.76567 0.7558 0.21071 0.0
H204 H 0.90173 0.79961 0.1639 0.0
H205 H 0.89946 0.82709 0.07456 0.0
H206 H 0.85344 0.84088 0.08282 0.0
H207 H 0.8553 0.81368 0.17217 0.0
C208 C 0.74502 0.40274 0.62255 0.0
C209 C 0.72486 0.40787 0.60181 0.0
C210 C 0.74333 0.45064 0.59869 0.0
C211 C 0.72404 0.43182 0.58989 0.0
C212 C 0.76394 0.44508 0.61858 0.0
C213 C 0.76479 0.42125 0.63039 0.0
U214 U 0.73405 0.33668 0.66212 0.0
O215 O 0.75341 0.33663 0.70666 0.0
O216 O 0.76897 0.31185 0.66821 0.0
C217 C 0.7715 0.31984 0.69709 0.0
C218 C 0.74528 0.37932 0.63841 0.0
C219 C 0.77939 0.30137 0.71858 0.0
C220 C 0.81277 0.28974 0.75488 0.0
C221 C 0.80519 0.30378 0.73091 0.0
C222 C 0.76908 0.2695 0.75366 0.0
C223 C 0.79463 0.27291 0.76704 0.0
C224 C 0.7614 0.28382 0.72964 0.0
C225 C 0.66065 0.3138 0.6426 0.0
C226 C 0.61694 0.29354 0.6366 0.0
C227 C 0.62387 0.33608 0.62034 0.0
C228 C 0.65076 0.33534 0.62945 0.0
C229 C 0.6065 0.31536 0.62441 0.0
C230 C 0.64371 0.29281 0.64555 0.0
C231 C 0.68764 0.31308 0.65588 0.0
O232 O 0.73331 0.37886 0.66468 0.0
O233 O 0.74893 0.35677 0.62356 0.0
O234 O 0.69323 0.33067 0.67804 0.0
O235 O 0.70768 0.30812 0.63724 0.0
H236 H 0.70942 0.39378 0.59566 0.0
H237 H 0.70786 0.436 0.5747 0.0
H238 H 0.7788 0.45949 0.6258 0.0
H239 H 0.78043 0.41755 0.6465 0.0
H240 H 0.83268 0.2925 0.7644 0.0
H241 H 0.81926 0.31736 0.72273 0.0
H242 H 0.75467 0.2567 0.76267 0.0
H243 H 0.74128 0.28191 0.7205 0.0
H244 H 0.60419 0.27738 0.64041 0.0
H245 H 0.61658 0.35301 0.61054 0.0
H246 H 0.66358 0.35173 0.62693 0.0
H247 H 0.651 0.27607 0.65579 0.0
C248 C 0.5186 0.32377 0.27403 0.0
C249 C 0.51444 0.34491 0.29525 0.0
C250 C 0.47922 0.32166 0.31908 0.0
C251 C 0.49493 0.34381 0.31769 0.0
C252 C 0.48287 0.30084 0.29738 0.0
C253 C 0.50245 0.3019 0.27502 0.0
U254 U 0.57564 0.35873 0.23926 0.0
O255 O 0.617 0.3472 0.22877 0.0
O256 O 0.59049 0.35849 0.19235 0.0
C257 C 0.61442 0.35073 0.19982 0.0
C258 C 0.54059 0.32384 0.25195 0.0
C259 C 0.62857 0.33275 0.17806 0.0
C260 C 0.63565 0.29099 0.15067 0.0
C261 C 0.62031 0.30732 0.17059 0.0
C262 C 0.6673 0.32544 0.14573 0.0
C263 C 0.65955 0.29981 0.13812 0.0
C264 C 0.65195 0.34163 0.16524 0.0
C265 C 0.58414 0.42943 0.27468 0.0
C266 C 0.62209 0.4568 0.29029 0.0
C267 C 0.57717 0.47393 0.29261 0.0
C268 C 0.56707 0.45034 0.28064 0.0
C269 C 0.60459 0.47704 0.29865 0.0
C270 C 0.6119 0.433 0.27843 0.0
C271 C 0.57184 0.40382 0.26961 0.0
O272 O 0.53727 0.3387 0.22971 0.0
O273 O 0.56467 0.32562 0.26401 0.0
O274 O 0.58514 0.38459 0.27955 0.0
O275 O 0.55954 0.39805 0.24356 0.0
H276 H 0.5267 0.36199 0.29491 0.0
H277 H 0.49248 0.36 0.33437 0.0
H278 H 0.47108 0.28353 0.29828 0.0
H279 H 0.50541 0.28541 0.2589 0.0
H280 H 0.62879 0.27151 0.14517 0.0
H281 H 0.60227 0.30009 0.18029 0.0
H282 H 0.68575 0.33298 0.1374 0.0
H283 H 0.65873 0.36116 0.17085 0.0
H284 H 0.6433 0.45881 0.29499 0.0
H285 H 0.56336 0.48932 0.29894 0.0
H286 H 0.54563 0.44797 0.278 0.0
H287 H 0.62547 0.41709 0.27397 0.0
C288 C 0.15504 0.20148 0.93066 0.0
C289 C 0.14611 0.17995 0.94466 0.0
C290 C 0.10209 0.19924 0.95207 0.0
C291 C 0.11985 0.17883 0.95522 0.0
C292 C 0.11151 0.22116 0.93912 0.0
C293 C 0.13773 0.22221 0.92845 0.0
U294 U 0.22391 0.17233 0.91616 0.0
O295 O 0.24639 0.16557 0.87374 0.0
O296 O 0.26335 0.19061 0.91145 0.0
C297 C 0.26611 0.18092 0.88322 0.0
C298 C 0.18167 0.20196 0.91668 0.0
C299 C 0.27633 0.19807 0.86104 0.0
C300 C 0.2708 0.23213 0.82723 0.0
C301 C 0.26106 0.21805 0.85058 0.0
C302 C 0.31117 0.20675 0.82521 0.0
C303 C 0.29573 0.22617 0.81382 0.0
C304 C 0.30159 0.19294 0.84857 0.0
C305 C 0.23265 0.10893 0.95877 0.0
C306 C 0.24936 0.06556 0.9477 0.0
C307 C 0.23195 0.07868 0.99753 0.0
C308 C 0.22721 0.10317 0.98849 0.0
C309 C 0.24227 0.05932 0.97696 0.0
C310 C 0.24459 0.09019 0.93864 0.0
C311 C 0.22105 0.13264 0.94856 0.0
O312 O 0.20199 0.2063 0.93544 0.0
O313 O 0.18613 0.18339 0.89546 0.0
O314 O 0.21283 0.1322 0.92023 0.0
O315 O 0.23104 0.15487 0.95934 0.0
H316 H 0.15925 0.16379 0.94675 0.0
H317 H 0.11332 0.16184 0.96551 0.0
H318 H 0.09832 0.23711 0.93616 0.0
H319 H 0.14427 0.23897 0.91771 0.0
H320 H 0.2584 0.24692 0.81882 0.0
H321 H 0.24145 0.22229 0.85986 0.0
H322 H 0.33056 0.20192 0.81564 0.0
H323 H 0.3137 0.17766 0.85636 0.0
H324 H 0.25757 0.05109 0.93145 0.0
H325 H 0.22587 0.07448 0.02005 0.0
H326 H 0.21764 0.11719 0.00425 0.0
H327 H 0.24891 0.09413 0.91552 0.0
C328 C 0.24815 0.5966 0.43688 0.0
C329 C 0.26807 0.59651 0.45939 0.0
C330 C 0.25884 0.55144 0.46582 0.0
C331 C 0.27321 0.57427 0.47386 0.0
C332 C 0.23848 0.55187 0.44369 0.0
C333 C 0.23321 0.57423 0.42942 0.0
U334 U 0.27485 0.65894 0.41216 0.0
O335 O 0.27599 0.67471 0.36777 0.0
O336 O 0.25629 0.69647 0.40605 0.0
C337 C 0.26269 0.69545 0.37717 0.0
C338 C 0.24408 0.61934 0.41979 0.0
C339 C 0.24336 0.70532 0.35564 0.0
C340 C 0.21489 0.69915 0.3107 0.0
C341 C 0.22858 0.68904 0.33477 0.0
C342 C 0.229 0.74195 0.32934 0.0
C343 C 0.21558 0.72563 0.3074 0.0
C344 C 0.24284 0.73186 0.35315 0.0
C345 C 0.3469 0.67328 0.44517 0.0
C346 C 0.38712 0.69154 0.42507 0.0
C347 C 0.38675 0.6792 0.47666 0.0
C348 C 0.3601 0.67157 0.47298 0.0
C349 C 0.40067 0.6885 0.45245 0.0
C350 C 0.36027 0.68413 0.42148 0.0
C351 C 0.32116 0.65981 0.44043 0.0
O352 O 0.24202 0.6414 0.43622 0.0
O353 O 0.25976 0.62055 0.39625 0.0
O354 O 0.31694 0.64782 0.41349 0.0
O355 O 0.29975 0.67089 0.45242 0.0
H356 H 0.27996 0.61355 0.46545 0.0
H357 H 0.28863 0.57495 0.49121 0.0
H358 H 0.22717 0.53472 0.43657 0.0
H359 H 0.21788 0.57387 0.41197 0.0
H360 H 0.20461 0.68624 0.29401 0.0
H361 H 0.22871 0.6685 0.33619 0.0
H362 H 0.23011 0.76237 0.32706 0.0
H363 H 0.25436 0.74473 0.36875 0.0
H364 H 0.39762 0.69865 0.40613 0.0
H365 H 0.39696 0.67635 0.49779 0.0
H366 H 0.35023 0.66294 0.49136 0.0
H367 H 0.35046 0.68558 0.39979 0.0
C368 C 0.88749 0.93343 0.75529 0.0
C369 C 0.90753 0.94075 0.77676 0.0
C370 C 0.88264 0.97933 0.79313 0.0
C371 C 0.90518 0.96362 0.79545 0.0
C372 C 0.86302 0.97219 0.7711 0.0
C373 C 0.86549 0.94949 0.75229 0.0
U374 U 0.92028 0.86876 0.73493 0.0
O375 O 0.90286 0.83029 0.7262 0.0
O376 O 0.92566 0.84696 0.69042 0.0
C377 C 0.91056 0.82784 0.69775 0.0
C378 C 0.88853 0.90865 0.73689 0.0
C379 C 0.88989 0.8185 0.67554 0.0
C380 C 0.84414 0.81851 0.65662 0.0
C381 C 0.86453 0.82985 0.67513 0.0
C382 C 0.87465 0.78525 0.6375 0.0
C383 C 0.84887 0.79579 0.63809 0.0
C384 C 0.89493 0.79646 0.65617 0.0
C385 C 0.98465 0.86105 0.78639 0.0
C386 C 0.01089 0.82578 0.80318 0.0
C387 C 0.0232 0.8697 0.81908 0.0
C388 C 1.00198 0.87837 0.80237 0.0
C389 C 0.02796 0.84332 0.81997 0.0
C390 C 0.98925 0.83461 0.78651 0.0
C391 C 0.96085 0.87194 0.77286 0.0
O392 O 0.9087 0.90555 0.71809 0.0
O393 O 0.88392 0.88844 0.7518 0.0
O394 O 0.93738 0.86272 0.77963 0.0
O395 O 0.96242 0.87892 0.74507 0.0
H396 H 0.92464 0.92852 0.77948 0.0
H397 H 0.92047 0.96857 0.81243 0.0
H398 H 0.84556 0.98403 0.76872 0.0
H399 H 0.8499 0.94417 0.7358 0.0
H400 H 0.82451 0.82717 0.65724 0.0
H401 H 0.86027 0.84694 0.68983 0.0
H402 H 0.87881 0.76768 0.62363 0.0
H403 H 0.91434 0.7874 0.65626 0.0
H404 H 0.01399 0.80534 0.80331 0.0
H405 H 0.0352 0.88386 0.83237 0.0
H406 H 0.99847 0.89882 0.80293 0.0
H407 H 0.97589 0.82091 0.77442 0.0
C408 C 0.12486 0.90196 0.1668 0.0
C409 C 0.14634 0.90563 0.14756 0.0
C410 C 0.12088 0.91866 0.19292 0.0
C411 C 0.13805 0.9401 0.19898 0.0
C412 C 0.16037 0.94324 0.18015 0.0
C413 C 0.16448 0.9257 0.15492 0.0
C414 C 0.09777 0.91388 0.21342 0.0
C415 C 0.1793 0.96569 0.18592 0.0
C416 C 0.10481 1.00039 0.23301 0.0
C417 C 0.11504 1.00271 0.26262 0.0
C418 C 0.11232 0.98013 0.21225 0.0
C419 C 0.13017 0.96136 0.22151 0.0
C420 C 0.14065 0.96355 0.25151 0.0
C421 C 0.13309 0.98446 0.27177 0.0
C422 C 0.10136 0.97903 0.18023 0.0
C423 C 0.15904 0.9435 0.26252 0.0
H424 H 0.11125 0.88601 0.16147 0.0
H425 H 0.18133 0.92832 0.14019 0.0
H426 H 0.10403 0.91692 0.23759 0.0
H427 H 0.08153 0.92764 0.2097 0.0
H428 H 0.08965 0.89412 0.20902 0.0
H429 H 0.19467 0.96621 0.16797 0.0
H430 H 0.16806 0.98397 0.18717 0.0
H431 H 0.1896 0.96459 0.20805 0.0
H432 H 0.09105 0.01474 0.22598 0.0
H433 H 0.14082 0.98628 0.29482 0.0
H434 H 0.08941 0.96127 0.17524 0.0
H435 H 0.11805 0.9785 0.1638 0.0
H436 H 0.0885 0.99571 0.17644 0.0
H437 H 0.14719 0.9261 0.26623 0.0
H438 H 0.16913 0.95026 0.28421 0.0
H439 H 0.17445 0.9378 0.2454 0.0
C440 C 0.59182 0.66608 0.59709 0.0
C441 C 0.61833 0.6732 0.59273 0.0
C442 C 0.58073 0.66821 0.62612 0.0
C443 C 0.59672 0.67751 0.6513 0.0
C444 C 0.62341 0.68537 0.64679 0.0
C445 C 0.63396 0.68314 0.61732 0.0
C446 C 0.55201 0.66013 0.62987 0.0
C447 C 0.64097 0.69534 0.67307 0.0
C448 C 0.55224 0.69425 0.71833 0.0
C449 C 0.55167 0.67082 0.73155 0.0
C450 C 0.56924 0.69785 0.69396 0.0
C451 C 0.58549 0.67735 0.68222 0.0
C452 C 0.58689 0.65466 0.6974 0.0
C453 C 0.56999 0.65171 0.72194 0.0
C454 C 0.56815 0.72283 0.67935 0.0
C455 C 0.60426 0.63239 0.68618 0.0
H456 H 0.57984 0.65868 0.57773 0.0
H457 H 0.65449 0.68868 0.61356 0.0
H458 H 0.55089 0.64487 0.64576 0.0
H459 H 0.54024 0.67665 0.6398 0.0
H460 H 0.54255 0.65288 0.60799 0.0
H461 H 0.65986 0.70383 0.66536 0.0
H462 H 0.63026 0.71001 0.68792 0.0
H463 H 0.64604 0.6794 0.68704 0.0
H464 H 0.5383 0.70925 0.72572 0.0
H465 H 0.5703 0.63389 0.73273 0.0
H466 H 0.55494 0.72052 0.65904 0.0
H467 H 0.58826 0.7285 0.67181 0.0
H468 H 0.56009 0.73853 0.69512 0.0
H469 H 0.59307 0.6202 0.6686 0.0
H470 H 0.60953 0.62039 0.70487 0.0
H471 H 0.62296 0.63884 0.67585 0.0
C472 C 0.80735 0.06895 0.02361 0.0
C473 C 0.80831 0.0919 0.04226 0.0
C474 C 0.79726 0.04644 0.03442 0.0
C475 C 0.78838 0.04688 0.0648 0.0
C476 C 0.78872 0.07031 0.08345 0.0
C477 C 0.7986 0.09267 0.07185 0.0
C478 C 0.79662 0.0221 0.01349 0.0
C479 C 0.7799 0.0715 0.11608 0.0
C480 C 0.7481 0.98985 0.08804 0.0
C481 C 0.76811 0.9749 0.10012 0.0
C482 C 0.75428 0.01347 0.0767 0.0
C483 C 0.78104 0.02242 0.0777 0.0
C484 C 0.80121 0.00754 0.09022 0.0
C485 C 0.79452 0.984 0.10115 0.0
C486 C 0.73229 0.02865 0.06322 0.0
C487 C 0.83003 0.01626 0.0916 0.0
H488 H 0.81504 0.06854 1.0007 0.0
H489 H 0.79979 0.11046 0.08627 0.0
H490 H 0.80719 0.00649 0.02402 0.0
H491 H 0.77559 0.01581 0.00955 0.0
H492 H 0.8059 0.02465 0.99119 0.0
H493 H 0.77965 0.09144 0.1269 0.0
H494 H 0.75964 0.06306 0.11759 0.0
H495 H 0.79368 0.05999 0.12918 0.0
H496 H 0.72767 0.98288 0.08695 0.0
H497 H 0.81004 0.97279 0.11089 0.0
H498 H 0.73641 0.03056 0.0389 0.0
H499 H 0.73165 0.04829 0.07475 0.0
H500 H 0.71237 0.01951 0.0651 0.0
H501 H 0.8381 0.01573 0.06825 0.0
H502 H 0.84272 0.00395 0.10502 0.0
H503 H 0.83161 0.03633 0.10175 0.0
C504 C 0.45673 0.33458 0.5669 0.0
C505 C 0.43772 0.3298 0.58877 0.0
C506 C 0.48404 0.33067 0.57223 0.0
C507 C 0.49245 0.3219 0.60019 0.0
C508 C 0.4731 0.31653 0.62209 0.0
C509 C 0.44587 0.32052 0.61606 0.0
C510 C 0.50391 0.33601 0.548 0.0
C511 C 0.48115 0.30724 0.65218 0.0
C512 C 0.5631 0.29549 0.6047 0.0
C513 C 0.57733 0.31695 0.61766 0.0
C514 C 0.53542 0.29663 0.59932 0.0
C515 C 0.52157 0.31978 0.60704 0.0
C516 C 0.53575 0.34136 0.62042 0.0
C517 C 0.56339 0.33972 0.62546 0.0
C518 C 0.52103 0.27313 0.58521 0.0
C519 C 0.52178 0.36638 0.62912 0.0
H520 H 0.45017 0.34143 0.54561 0.0
H521 H 0.43095 0.31668 0.63278 0.0
H522 H 0.51899 0.35023 0.55727 0.0
H523 H 0.51476 0.31816 0.54055 0.0
H524 H 0.49418 0.3434 0.52785 0.0
H525 H 0.46366 0.30103 0.6651 0.0
H526 H 0.49528 0.29099 0.64882 0.0
H527 H 0.49162 0.32291 0.66607 0.0
H528 H 0.57368 0.27784 0.59844 0.0
H529 H 0.57404 0.35623 0.63605 0.0
H530 H 0.51249 0.27713 0.56289 0.0
H531 H 0.50413 0.26815 0.59974 0.0
H532 H 0.53443 0.25628 0.58184 0.0
H533 H 0.51505 0.37494 0.60828 0.0
H534 H 0.53499 0.38039 0.64234 0.0
H535 H 0.50377 0.3631 0.64278 0.0
C536 C 0.6257 0.60405 0.40784 0.0
C537 C 0.64655 0.60091 0.42837 0.0
C538 C 0.62165 0.58624 0.38267 0.0
C539 C 0.63806 0.56423 0.37894 0.0
C540 C 0.65979 0.56155 0.39908 0.0
C541 C 0.66405 0.5802 0.4233 0.0
C542 C 0.59914 0.59042 0.36081 0.0
C543 C 0.67778 0.53841 0.3959 0.0
C544 C 0.60301 0.50357 0.3475 0.0
C545 C 0.61378 0.49954 0.3184 0.0
C546 C 0.61096 0.52448 0.36727 0.0
C547 C 0.62983 0.54217 0.35751 0.0
C548 C 0.64083 0.53826 0.32802 0.0
C549 C 0.63282 0.51671 0.30879 0.0
C550 C 0.59937 0.52744 0.39884 0.0
C551 C 0.66032 0.55713 0.31644 0.0
H552 H 0.61256 0.62043 0.41149 0.0
H553 H 0.68035 0.57795 0.43913 0.0
H554 H 0.60573 0.58597 0.33705 0.0
H555 H 0.5823 0.57735 0.36492 0.0
H556 H 0.59172 0.61045 0.36345 0.0
H557 H 0.69283 0.53856 0.4145 0.0
H558 H 0.66572 0.52056 0.39582 0.0
H559 H 0.68845 0.53779 0.37396 0.0
H560 H 0.58851 0.49002 0.35494 0.0
H561 H 0.641 0.51355 0.28616 0.0
H562 H 0.58811 0.54565 0.40215 0.0
H563 H 0.61571 0.5283 0.416 0.0
H564 H 0.58569 0.51142 0.4032 0.0
H565 H 0.64943 0.57477 0.31166 0.0
H566 H 0.67021 0.5493 0.29525 0.0
H567 H 0.67588 0.56278 0.33372 0.0
C568 C 0.95627 0.1741 0.01634 0.0
C569 C 0.93589 0.18074 0.99656 0.0
C570 C 0.9832 0.17897 0.01026 0.0
C571 C 0.99003 0.1902 0.98334 0.0
C572 C 0.96948 0.19734 0.96352 0.0
C573 C 0.94259 0.1928 0.97057 0.0
C574 C 0.00434 0.17202 0.03263 0.0
C575 C 0.97593 0.20885 0.93429 0.0
C576 C 0.06016 0.21773 0.97614 0.0
C577 C 0.07348 0.19708 0.96061 0.0
C578 C 0.03299 0.21585 0.98368 0.0
C579 C 0.01871 0.19293 0.9751 0.0
C580 C 0.03204 0.17215 0.95919 0.0
C581 C 0.05923 0.17442 0.95233 0.0
C582 C 0.01965 0.23826 1.00111 0.0
C583 C 0.01762 0.14736 0.94958 0.0
H584 H 0.95111 0.16519 0.0368 0.0
H585 H 0.92686 0.19789 0.95524 0.0
H586 H 0.01929 0.15903 0.02119 0.0
H587 H 0.0151 0.18961 0.04177 0.0
H588 H 0.99577 0.16255 0.05194 0.0
H589 H 0.95772 0.21504 0.92247 0.0
H590 H 0.98947 0.22559 0.93873 0.0
H591 H 0.98655 0.19449 0.91892 0.0
H592 H 0.0711 0.23524 0.98278 0.0
H593 H 0.06927 0.15853 0.93994 0.0
H594 H 0.01206 0.23234 0.02299 0.0
H595 H 1.00218 0.2446 0.98816 0.0
H596 H 0.03345 0.25481 0.00588 0.0
H597 H 0.0121 0.13762 0.96997 0.0
H598 H 0.03005 0.13408 0.93472 0.0
H599 H 0.99885 0.15123 0.9373 0.0
C600 C 0.30989 0.41417 0.50844 0.0
C601 C 0.3115 0.41272 0.53985 0.0
C602 C 0.29782 0.4353 0.49629 0.0
C603 C 0.28842 0.45602 0.51605 0.0
C604 C 0.28946 0.45428 0.54783 0.0
C605 C 0.30053 0.43243 0.55931 0.0
C606 C 0.29539 0.4356 0.46232 0.0
C607 C 0.27926 0.47563 0.56977 0.0
C608 C 0.29277 0.52164 0.48569 0.0
C609 C 0.26596 0.52711 0.47941 0.0
C610 C 0.30009 0.49881 0.49795 0.0
C611 C 0.28025 0.4805 0.50362 0.0
C612 C 0.25309 0.48582 0.49753 0.0
C613 C 0.24629 0.50902 0.48551 0.0
C614 C 0.3292 0.49429 0.50487 0.0
C615 C 0.23116 0.46684 0.50268 0.0
H616 H 0.31787 0.39868 0.49339 0.0
H617 H 0.30156 0.43122 0.58365 0.0
H618 H 0.2746 0.44034 0.45601 0.0
H619 H 0.30865 0.45066 0.45442 0.0
H620 H 0.30082 0.41689 0.45024 0.0
H621 H 0.28491 0.47292 0.59363 0.0
H622 H 0.28711 0.49445 0.56398 0.0
H623 H 0.25715 0.47633 0.5682 0.0
H624 H 0.30829 0.53506 0.48054 0.0
H625 H 0.22547 0.51299 0.48105 0.0
H626 H 0.33651 0.47748 0.49037 0.0
H627 H 0.33162 0.48994 0.52887 0.0
H628 H 0.34196 0.51109 0.50097 0.0
H629 H 0.22978 0.45267 0.48259 0.0
H630 H 0.21148 0.47643 0.5056 0.0
H631 H 0.23522 0.45617 0.52281 0.0
C632 C 0.09616 0.85004 0.9731 0.0
C633 C 0.11939 0.83671 0.97946 0.0
C634 C 0.08398 0.84671 0.94442 0.0
C635 C 0.09576 0.83017 0.92124 0.0
C636 C 0.11938 0.81671 0.92756 0.0
C637 C 0.13073 0.81985 0.95687 0.0
C638 C 0.0584 0.86087 0.93898 0.0
C639 C 0.13297 0.79952 0.90329 0.0
C640 C 0.04483 0.81468 0.85885 0.0
C641 C 0.04931 0.83491 0.8406 0.0
C642 C 0.06191 0.81086 0.88344 0.0
C643 C 0.08343 0.82808 0.89035 0.0
C644 C 0.08974 0.84659 0.86999 0.0
C645 C 0.07281 0.84954 0.84518 0.0
C646 C 0.05544 0.78985 0.90356 0.0
C647 C 0.11268 0.86517 0.87595 0.0
H648 H 0.08717 0.86266 0.99089 0.0
H649 H 0.1487 0.80952 0.96202 0.0
H650 H 0.06111 0.87335 0.92017 0.0
H651 H 0.04223 0.84695 0.93212 0.0
H652 H 0.05183 0.87292 0.95944 0.0
H653 H 0.14887 0.78775 0.91282 0.0
H654 H 0.11826 0.78661 0.89081 0.0
H655 H 0.14221 0.81144 0.88657 0.0
H656 H 0.02698 0.80297 0.85541 0.0
H657 H 0.07711 0.86455 0.83046 0.0
H658 H 0.04466 0.79816 0.92389 0.0
H659 H 0.07394 0.78081 0.91146 0.0
H660 H 0.04259 0.77479 0.89163 0.0
H661 H 0.10602 0.88137 0.89191 0.0
H662 H 0.11936 0.8731 0.85473 0.0
H663 H 0.12996 0.85603 0.88645 0.0
C664 C 0.87736 0.0758 0.94006 0.0
C665 C 0.86359 0.09865 0.93715 0.0
C666 C 0.88009 0.05756 0.9151 0.0
C667 C 0.86979 0.06284 0.88634 0.0
C668 C 0.85675 0.08644 0.88317 0.0
C669 C 0.85325 0.10381 0.90882 0.0
C670 C 0.89335 0.03233 0.91969 0.0
C671 C 0.84586 0.0931 0.85294 0.0
C672 C 0.89897 0.02042 0.82076 0.0
C673 C 0.87865 1.00211 0.81499 0.0
C674 C 0.89571 0.04119 0.84274 0.0
C675 C 0.87196 0.04318 0.86002 0.0
C676 C 0.85105 0.02518 0.85351 0.0
C677 C 0.85462 0.00497 0.83099 0.0
C678 C 0.91778 0.06084 0.84778 0.0
C679 C 0.82547 0.02615 0.87145 0.0
H680 H 0.885 0.07176 0.96215 0.0
H681 H 0.84253 0.12154 0.90674 0.0
H682 H 0.88002 0.01619 0.91139 0.0
H683 H 0.912 0.03053 0.90631 0.0
H684 H 0.89836 0.03039 0.94389 0.0
H685 H 0.8407 0.11373 0.85319 0.0
H686 H 0.86056 0.08837 0.83467 0.0
H687 H 0.82754 0.08165 0.84724 0.0
H688 H 0.9174 0.01847 0.80807 0.0
H689 H 0.83894 0.99073 0.82673 0.0
H690 H 0.92703 0.0595 0.87044 0.0
H691 H 0.90951 0.08045 0.8474 0.0
H692 H 0.93362 0.05816 0.83033 0.0
H693 H 0.82895 0.01718 0.89298 0.0
H694 H 0.80906 0.01549 0.85882 0.0
H695 H 0.81883 0.0461 0.87736 0.0
C696 C 0.38415 0.30533 0.46379 0.0
C697 C 0.38555 0.32901 0.48121 0.0
C698 C 0.39636 0.30196 0.43503 0.0
C699 C 0.41043 0.32264 0.42364 0.0
C700 C 0.41075 0.34681 0.44056 0.0
C701 C 0.39826 0.34969 0.46888 0.0
C702 C 0.39509 0.27604 0.41739 0.0
C703 C 0.42503 0.36957 0.4292 0.0
C704 C 0.47081 0.31283 0.3725 0.0
C705 C 0.46074 0.31956 0.34472 0.0
C706 C 0.4542 0.31231 0.3979 0.0
C707 C 0.42687 0.31892 0.39552 0.0
C708 C 0.41643 0.32489 0.36707 0.0
C709 C 0.43353 0.32508 0.34191 0.0
C710 C 0.46625 0.30586 0.42769 0.0
C711 C 0.38737 0.3316 0.36341 0.0
H712 H 0.3743 0.28925 0.47298 0.0
H713 H 0.39911 0.36823 0.48179 0.0
H714 H 0.38952 0.27805 0.39338 0.0
H715 H 0.4151 0.267 0.41742 0.0
H716 H 0.38051 0.26305 0.42719 0.0
H717 H 0.42409 0.38685 0.44556 0.0
H718 H 0.44635 0.3649 0.42487 0.0
H719 H 0.41598 0.37425 0.4074 0.0
H720 H 0.49188 0.30846 0.37447 0.0
H721 H 0.42583 0.33013 0.32024 0.0
H722 H 0.45435 0.29064 0.43734 0.0
H723 H 0.46579 0.32304 0.44421 0.0
H724 H 0.48726 0.2993 0.42523 0.0
H725 H 0.3747 0.3151 0.3685 0.0
H726 H 0.38258 0.33667 0.34009 0.0
H727 H 0.38197 0.34797 0.37978 0.0
C728 C 0.18309 0.93976 0.0405 0.0
C729 C 0.19655 0.91623 0.03899 0.0
C730 C 0.19482 0.96159 0.02993 0.0
C731 C 0.2206 0.95996 0.017 0.0
C732 C 0.23443 0.93631 0.01543 0.0
C733 C 0.22232 0.91474 0.02672 0.0
C734 C 0.17948 0.98647 0.03258 0.0
C735 C 0.26214 0.93385 1.0024 0.0
C736 C 0.23115 0.01288 0.96503 0.0
C737 C 0.2423 0.0323 0.9851 0.0
C738 C 0.22599 0.98839 0.97441 0.0
C739 C 0.23225 0.98312 0.00453 0.0
C740 C 0.24577 1.00191 0.02396 0.0
C741 C 0.25035 0.02637 0.01414 0.0
C742 C 0.21192 0.96881 0.95282 0.0
C743 C 0.25368 0.99697 0.05591 0.0
H744 H 0.16332 0.9413 0.05034 0.0
H745 H 0.23294 0.89669 0.02571 0.0
H746 H 0.19113 1.00141 0.04632 0.0
H747 H 0.17641 0.99331 0.00974 0.0
H748 H 0.15966 0.98453 0.04332 0.0
H749 H 0.26802 0.91348 0.99754 0.0
H750 H 0.26365 0.94364 0.98119 0.0
H751 H 0.27664 0.9432 0.01895 0.0
H752 H 0.22475 0.01729 0.94261 0.0
H753 H 0.25936 0.04117 0.02963 0.0
H754 H 0.19098 0.96651 0.9603 0.0
H755 H 0.22174 0.94987 0.95297 0.0
H756 H 0.21162 0.97453 0.9292 0.0
H757 H 0.23644 1.00114 0.07115 0.0
H758 H 0.27058 0.00954 0.06428 0.0
H759 H 0.25947 0.9767 0.05745 0.0
C760 C 0.56163 0.69725 0.46464 0.0
C761 C 0.56871 0.68019 0.48607 0.0
C762 C 0.53461 0.70152 0.45765 0.0
C763 C 0.51432 0.68881 0.47289 0.0
C764 C 0.52142 0.67217 0.49518 0.0
C765 C 0.54844 0.66796 0.50134 0.0
C766 C 0.52779 0.71961 0.434 0.0
C767 C 0.50048 0.65823 0.51203 0.0
C768 C 0.44154 0.70909 0.47664 0.0
C769 C 0.42995 0.69152 0.45472 0.0
C770 C 0.46933 0.70963 0.48145 0.0
C771 C 0.48563 0.69155 0.46466 0.0
C772 C 0.47393 0.67416 0.44201 0.0
C773 C 0.44624 0.67461 0.43704 0.0
C774 C 0.48111 0.7288 0.50532 0.0
C775 C 0.4905 0.65438 0.42385 0.0
H776 H 0.5772 0.70686 0.45293 0.0
H777 H 0.55367 0.655 0.51828 0.0
H778 H 0.51347 0.71048 0.41708 0.0
H779 H 0.51797 0.73687 0.44508 0.0
H780 H 0.54578 0.72577 0.42191 0.0
H781 H 0.50931 0.64715 0.52994 0.0
H782 H 0.48592 0.67203 0.52277 0.0
H783 H 0.48922 0.6448 0.4958 0.0
H784 H 0.42878 0.72206 0.49036 0.0
H785 H 0.4371 0.66084 0.42034 0.0
H786 H 0.49807 0.73913 0.49579 0.0
H787 H 0.48906 0.71867 0.52447 0.0
H788 H 0.46614 0.74305 0.51431 0.0
H789 H 0.50521 0.66412 0.41006 0.0
H790 H 0.47808 0.64126 0.40842 0.0
H791 H 0.50191 0.64274 0.43928 0.0
C792 C 0.34477 0.40551 0.67587 0.0
C793 C 0.36221 0.40235 0.65117 0.0
C794 C 0.35032 0.42358 0.7005 0.0
C795 C 0.37396 0.43857 0.70048 0.0
C796 C 0.39234 0.43427 0.67644 0.0
C797 C 0.38616 0.41638 0.652 0.0
C798 C 0.33023 0.42753 0.72571 0.0
C799 C 0.41829 0.44907 0.67616 0.0
C800 C 0.37565 0.50655 0.73749 0.0
C801 C 0.38986 0.5037 0.76432 0.0
C802 C 0.36944 0.48528 0.71723 0.0
C803 C 0.37828 0.46063 0.72358 0.0
C804 C 0.39254 0.45761 0.75084 0.0
C805 C 0.39781 0.47922 0.7712 0.0
C806 C 0.35373 0.48926 0.68874 0.0
C807 C 0.40232 0.43168 0.7584 0.0
H808 H 0.32629 0.3946 0.67541 0.0
H809 H 0.40001 0.41358 0.63327 0.0
H810 H 0.34032 0.42857 0.74818 0.0
H811 H 0.31983 0.44602 0.72391 0.0
H812 H 0.31502 0.41196 0.7247 0.0
H813 H 0.43053 0.44329 0.65589 0.0
H814 H 0.4142 0.46991 0.67656 0.0
H815 H 0.43015 0.44598 0.69682 0.0
H816 H 0.36917 0.5255 0.73254 0.0
H817 H 0.40857 0.4771 0.79219 0.0
H818 H 0.33593 0.4765 0.68705 0.0
H819 H 0.36623 0.48415 0.66852 0.0
H820 H 0.34699 0.50939 0.68806 0.0
H821 H 0.385 0.41941 0.76318 0.0
H822 H 0.41582 0.43305 0.77853 0.0
H823 H 0.41309 0.42193 0.73886 0.0
C824 C 0.05061 0.8408 0.07764 0.0
C825 C 0.07118 0.82417 0.08496 0.0
C826 C 0.02381 0.83517 0.08311 0.0
C827 C 0.01721 0.81239 0.09646 0.0
C828 C 0.03774 0.79525 0.10346 0.0
C829 C 0.06453 0.80131 0.09756 0.0
C830 C 1.00257 0.85386 0.07492 0.0
C831 C 0.0314 0.77034 0.11671 0.0
C832 C 0.95114 0.81761 0.13764 0.0
C833 C 0.93331 0.80779 0.11495 0.0
C834 C 0.97878 0.81773 0.13255 0.0
C835 C 0.98885 0.80752 0.10423 0.0
C836 C 0.97107 0.79585 0.08208 0.0
C837 C 0.94346 0.7964 0.08757 0.0
C838 C 0.99705 0.83035 0.15675 0.0
C839 C 0.98088 0.78424 0.05181 0.0
H840 H 0.05538 0.85839 0.06754 0.0
H841 H 0.08023 0.78817 0.10285 0.0
H842 H 0.98771 0.84403 0.05918 0.0
H843 H 0.99175 0.86125 0.09564 0.0
H844 H 0.011 0.8704 0.06396 0.0
H845 H 0.04964 0.76089 0.12474 0.0
H846 H 0.01733 0.77349 0.13593 0.0
H847 H 0.02149 0.75713 0.09909 0.0
H848 H 0.94339 0.82665 0.15872 0.0
H849 H 0.92974 0.78859 0.07005 0.0
H850 H 0.00552 0.8482 0.1488 0.0
H851 H 0.01402 0.81755 0.16106 0.0
H852 H 0.98648 0.83527 0.17845 0.0
H853 H 0.98345 0.79963 0.0363 0.0
H854 H 0.96636 0.77003 0.04115 0.0
H855 H 1.00046 0.77473 0.05408 0.0
C856 C 0.68366 0.56875 0.5312 0.0
C857 C 0.69546 0.59304 0.53702 0.0
C858 C 0.69528 0.54694 0.54172 0.0
C859 C 0.71915 0.54937 0.55904 0.0
C860 C 0.73135 0.5738 0.56493 0.0
C861 C 0.71951 0.59538 0.55345 0.0
C862 C 0.68175 0.52125 0.53454 0.0
C863 C 0.75693 0.57718 0.58308 0.0
C864 C 0.72504 0.49432 0.60844 0.0
C865 C 0.74019 0.47697 0.59004 0.0
C866 C 0.7199 0.51895 0.59978 0.0
C867 C 0.73008 0.52622 0.57196 0.0
C868 C 0.74706 0.50928 0.55441 0.0
C869 C 0.75178 0.48465 0.56359 0.0
C870 C 0.70224 0.5366 0.61951 0.0
C871 C 0.75892 0.51647 0.52504 0.0
H872 H 0.66528 0.56667 0.51806 0.0
H873 H 0.72879 0.61409 0.5578 0.0
H874 H 0.69585 0.5076 0.52265 0.0
H875 H 0.67582 0.51314 0.5559 0.0
H876 H 0.66367 0.52257 0.52006 0.0
H877 H 0.7607 0.5976 0.59098 0.0
H878 H 0.75655 0.56577 0.60309 0.0
H879 H 0.77389 0.57024 0.56864 0.0
H880 H 0.71652 0.48829 0.62919 0.0
H881 H 0.76389 0.47118 0.54972 0.0
H882 H 0.68246 0.53808 0.60832 0.0
H883 H 0.71103 0.55615 0.62248 0.0
H884 H 0.69916 0.52959 0.64225 0.0
H885 H 0.74391 0.51287 0.50657 0.0
H886 H 0.77693 0.50489 0.51888 0.0
H887 H 0.76443 0.53708 0.52641 0.0
C888 C 0.90165 0.19495 0.11184 0.0
C889 C 0.88533 0.17367 0.1031 0.0
C890 C 0.91462 0.19728 0.14021 0.0
C891 C 0.91104 0.17801 0.16042 0.0
C892 C 0.89307 0.15751 0.15259 0.0
C893 C 0.8806 0.15546 0.12393 0.0
C894 C 0.93329 0.21964 0.14789 0.0
C895 C 0.88764 0.13733 0.17419 0.0
C896 C 0.96991 0.16356 0.21062 0.0
C897 C 0.9628 0.17589 0.23878 0.0
C898 C 0.95319 0.16421 0.18514 0.0
C899 C 0.92859 0.17744 0.18774 0.0
C900 C 0.92114 0.18986 0.21613 0.0
C901 C 0.93845 0.18911 0.24126 0.0
C902 C 0.96202 0.15087 0.15527 0.0
C903 C 0.89522 0.20434 0.22001 0.0
H904 H 0.90532 0.20922 0.09596 0.0
H905 H 0.86759 0.13925 0.11757 0.0
H906 H 0.92862 0.22905 0.17064 0.0
H907 H 0.95416 0.21264 0.1487 0.0
H908 H 0.93206 0.23415 0.13102 0.0
H909 H 0.87319 0.12256 0.16467 0.0
H910 H 0.90652 0.12772 0.17984 0.0
H911 H 0.8795 0.14654 0.1957 0.0
H912 H 0.98891 0.15375 0.20831 0.0
H913 H 0.93277 0.19867 0.26296 0.0
H914 H 0.96358 0.16497 0.13798 0.0
H915 H 0.94695 0.13628 0.14694 0.0
H916 H 0.98164 0.14126 0.1571 0.0
H917 H 0.89774 0.22358 0.21167 0.0
H918 H 0.88924 0.20698 0.24422 0.0
H919 H 0.87878 0.19439 0.20671 0.0
C920 C 0.16283 0.77785 0.15082 0.0
C921 C 0.17729 0.80031 0.14687 0.0
C922 C 0.16653 0.7646 0.17692 0.0
C923 C 0.18546 0.7738 0.19928 0.0
C924 C 0.20018 0.7964 0.19522 0.0
C925 C 0.1957 0.80949 0.1693 0.0
C926 C 0.14977 0.74112 0.18081 0.0
C927 C 0.2212 0.80644 0.21791 0.0
C928 C 0.18601 0.75535 0.28078 0.0
C929 C 0.20533 0.736 0.2794 0.0
C930 C 0.1782 0.76684 0.25448 0.0
C931 C 0.1908 0.7595 0.22649 0.0
C932 C 0.21012 0.73974 0.22506 0.0
C933 C 0.2168 0.72795 0.25144 0.0
C934 C 0.15686 0.78718 0.25672 0.0
C935 C 0.2243 0.73146 0.19586 0.0
H936 H 0.14832 0.77085 0.13374 0.0
H937 H 0.2071 0.82673 0.1663 0.0
H938 H 0.16243 0.72503 0.18706 0.0
H939 H 0.1355 0.74547 0.19961 0.0
H940 H 0.13825 0.73478 0.15993 0.0
H941 H 0.23081 0.82433 0.21146 0.0
H942 H 0.21222 0.81032 0.24068 0.0
H943 H 0.23688 0.79173 0.21981 0.0
H944 H 0.17717 0.76157 0.30246 0.0
H945 H 0.23193 0.71314 0.25049 0.0
H946 H 0.14103 0.78239 0.23944 0.0
H947 H 0.16558 0.80591 0.25194 0.0
H948 H 0.14756 0.78929 0.27952 0.0
H949 H 0.20997 0.72147 0.17961 0.0
H950 H 0.24116 0.71829 0.19945 0.0
H951 H 0.23217 0.74836 0.18519 0.0
C952 C 0.7203 0.73803 0.54654 0.0
C953 C 0.72063 0.71121 0.54391 0.0
C954 C 0.74129 0.75217 0.56117 0.0
C955 C 0.76259 0.73912 0.57435 0.0
C956 C 0.76257 0.71196 0.57234 0.0
C957 C 0.74182 0.69831 0.55657 0.0
C958 C 0.74103 0.78102 0.56176 0.0
C959 C 0.78414 0.69733 0.58735 0.0
C960 C 0.82933 0.77295 0.59066 0.0
C961 C 0.82658 0.78204 0.62124 0.0
C962 C 0.80853 0.75922 0.575 0.0
C963 C 0.78473 0.75389 0.59051 0.0
C964 C 0.78206 0.76275 0.6215 0.0
C965 C 0.80285 0.77701 0.63633 0.0
C966 C 0.81193 0.75056 0.54181 0.0
C967 C 0.75727 0.75719 0.63909 0.0
H968 H 0.70396 0.74791 0.53638 0.0
H969 H 0.74184 0.67752 0.55467 0.0
H970 H 0.74358 0.78984 0.5853 0.0
H971 H 0.75808 0.78748 0.54837 0.0
H972 H 0.72223 0.78828 0.55217 0.0
H973 H 0.78121 0.67625 0.58365 0.0
H974 H 0.80403 0.70225 0.57852 0.0
H975 H 0.78436 0.70291 0.61213 0.0
H976 H 0.84765 0.77685 0.57892 0.0
H977 H 0.80081 0.7837 0.66008 0.0
H978 H 0.7956 0.75845 0.52834 0.0
H979 H 0.81052 0.72937 0.53831 0.0
H980 H 0.8314 0.75671 0.53288 0.0
H981 H 0.74051 0.76897 0.63157 0.0
H982 H 0.76016 0.76163 0.66392 0.0
H983 H 0.75132 0.73676 0.63477 0.0
C984 C 0.78517 0.22301 0.07308 0.0
C985 C 0.78186 0.20807 0.04542 0.0
C986 C 0.76384 0.23716 0.08644 0.0
C987 C 0.73852 0.23647 0.07184 0.0
C988 C 0.73507 0.22151 0.04386 0.0
C989 C 0.75671 0.20748 0.03104 0.0
C990 C 0.76841 0.25291 0.11624 0.0
C991 C 0.70866 0.22072 0.02712 0.0
C992 C 0.68042 0.25659 0.12369 0.0
C993 C 0.67721 0.28247 0.11835 0.0
C994 C 0.69928 0.24103 0.10751 0.0
C995 C 0.71584 0.25164 0.0859 0.0
C996 C 0.71181 0.27732 0.07928 0.0
C997 C 0.69246 0.29227 0.0953 0.0
C998 C 0.70219 0.21345 0.1144 0.0
C999 C 0.72888 0.28964 0.0565 0.0
H1000 H 0.80447 0.22362 0.08441 0.0
H1001 H 0.75396 0.19628 0.00947 0.0
H1002 H 0.76294 0.27318 0.114 0.0
H1003 H 0.75538 0.24572 0.13389 0.0
H1004 H 0.78951 0.25226 0.12411 0.0
H1005 H 0.70841 0.2062 0.00728 0.0
H1006 H 0.69216 0.21642 0.04255 0.0
H1007 H 0.70462 0.23979 0.01893 0.0
H1008 H 0.66897 0.24863 0.14137 0.0
H1009 H 0.68973 0.31194 0.09011 0.0
H1010 H 0.72145 0.21101 0.12639 0.0
H1011 H 0.70254 0.20068 0.09305 0.0
H1012 H 0.68573 0.20719 0.12883 0.0
H1013 H 0.74818 0.2957 0.06743 0.0
H1014 H 0.71915 0.30687 0.04842 0.0
H1015 H 0.73335 0.27607 0.03657 0.0
C1016 C 0.30839 0.28869 0.65779 0.0
C1017 C 0.33422 0.29542 0.64917 0.0
C1018 C 0.30391 0.27732 0.68491 0.0
C1019 C 0.32566 0.2733 0.70456 0.0
C1020 C 0.35185 0.28012 0.696 0.0
C1021 C 0.35589 0.29072 0.66813 0.0
C1022 C 0.27578 0.26972 0.69255 0.0
C1023 C 0.37556 0.27635 0.71636 0.0
C1024 C 0.30429 0.2654 0.78588 0.0
C1025 C 0.30497 0.2387 0.78669 0.0
C1026 C 0.31244 0.27704 0.75986 0.0
C1027 C 0.32074 0.26159 0.73372 0.0
C1028 C 0.32203 0.23466 0.73477 0.0
C1029 C 0.31426 0.22362 0.76121 0.0
C1030 C 0.31183 0.30587 0.76018 0.0
C1031 C 0.33006 0.21717 0.70748 0.0
H1032 H 0.29158 0.2922 0.64313 0.0
H1033 H 0.37585 0.29612 0.66164 0.0
H1034 H 0.27527 0.24953 0.69842 0.0
H1035 H 0.26879 0.28191 0.71265 0.0
H1036 H 0.26156 0.27176 0.6735 0.0
H1037 H 0.39405 0.28519 0.7081 0.0
H1038 H 0.37151 0.28474 0.73977 0.0
H1039 H 0.37909 0.25556 0.71754 0.0
H1040 H 0.2975 0.27719 0.80565 0.0
H1041 H 0.31459 0.20294 0.76154 0.0
H1042 H 0.2957 0.31164 0.74488 0.0
H1043 H 0.33098 0.31311 0.75161 0.0
H1044 H 0.30828 0.31525 0.78328 0.0
H1045 H 0.31245 0.21378 0.69226 0.0
H1046 H 0.33705 0.19832 0.71416 0.0
H1047 H 0.34607 0.22573 0.69434 0.0
C1048 C 0.68519 0.69142 0.39878 0.0
C1049 C 0.67431 0.70507 0.42445 0.0
C1050 C 0.68894 0.70302 0.37171 0.0
C1051 C 0.68179 0.729 0.37019 0.0
C1052 C 0.66976 0.7426 0.39557 0.0
C1053 C 0.6661 0.73045 0.42239 0.0
C1054 C 0.70158 0.6877 0.34512 0.0
C1055 C 0.66111 0.77008 0.39457 0.0
C1056 C 0.72397 0.76472 0.31663 0.0
C1057 C 0.70741 0.76469 0.29104 0.0
C1058 C 0.71542 0.75389 0.34282 0.0
C1059 C 0.68972 0.74255 0.34332 0.0
C1060 C 0.67259 0.74303 0.3177 0.0
C1061 C 0.68171 0.7541 0.29169 0.0
C1062 C 0.73422 0.75399 0.3697 0.0
C1063 C 0.64513 0.73102 0.3173 0.0
H1064 H 0.69123 0.67166 0.3999 0.0
H1065 H 0.6572 0.74102 0.4419 0.0
H1066 H 0.68961 0.68935 0.32418 0.0
H1067 H 0.72179 0.69548 0.34116 0.0
H1068 H 0.70348 0.66708 0.34891 0.0
H1069 H 0.65436 0.77866 0.41705 0.0
H1070 H 0.67771 0.7819 0.38669 0.0
H1071 H 0.64438 0.77097 0.3781 0.0
H1072 H 0.74392 0.77282 0.31587 0.0
H1073 H 0.66909 0.75387 0.27164 0.0
H1074 H 0.7392 0.734 0.37408 0.0
H1075 H 0.7244 0.76299 0.39034 0.0
H1076 H 0.7531 0.76451 0.3661 0.0
H1077 H 0.64703 0.70985 0.31575 0.0
H1078 H 0.6329 0.73632 0.29775 0.0
H1079 H 0.63438 0.73686 0.33861 0.0
C1080 C 0.85074 0.20353 0.90999 0.0
C1081 C 0.83105 0.20411 0.93228 0.0
C1082 C 0.84604 0.21438 0.88249 0.0
C1083 C 0.82102 0.22591 0.87735 0.0
C1084 C 0.80117 0.22658 0.9001 0.0
C1085 C 0.80644 0.2156 0.92736 0.0
C1086 C 0.86787 0.2136 0.85907 0.0
C1087 C 0.7742 0.23849 0.89543 0.0
C1088 C 0.81441 0.27483 0.81924 0.0
C1089 C 0.80201 0.26041 0.79481 0.0
C1090 C 0.82121 0.26371 0.84596 0.0
C1091 C 0.81551 0.23749 0.84837 0.0
C1092 C 0.80342 0.22268 0.8236 0.0
C1093 C 0.79667 0.23437 0.79714 0.0
C1094 C 0.83392 0.28017 0.87189 0.0
C1095 C 0.79766 0.19451 0.82506 0.0
H1096 H 0.86968 0.19436 0.914 0.0
H1097 H 0.79118 0.2156 0.94466 0.0
H1098 H 0.85992 0.20651 0.8364 0.0
H1099 H 0.87566 0.23327 0.85727 0.0
H1100 H 0.88476 0.2012 0.86496 0.0
H1101 H 0.76157 0.23876 0.91601 0.0
H1102 H 0.77665 0.25843 0.88916 0.0
H1103 H 0.76353 0.22753 0.8764 0.0
H1104 H 0.8183 0.29506 0.81771 0.0
H1105 H 0.78742 0.2231 0.77815 0.0
H1106 H 0.8529 0.27146 0.87891 0.0
H1107 H 0.82046 0.28129 0.89179 0.0
H1108 H 0.83816 0.29995 0.86587 0.0
H1109 H 0.81661 0.18415 0.82842 0.0
H1110 H 0.78768 0.18582 0.80412 0.0
H1111 H 0.78473 0.19162 0.84477 0.0
C1112 C 0.2695 0.2791 0.5533 0.0
C1113 C 0.28044 0.29935 0.53868 0.0
C1114 C 0.24769 0.26492 0.54059 0.0
C1115 C 0.23739 0.27046 0.51196 0.0
C1116 C 0.24836 0.29112 0.49728 0.0
C1117 C 0.26946 0.30567 0.51116 0.0
C1118 C 0.23605 0.24371 0.55755 0.0
C1119 C 0.23824 0.29747 0.4666 0.0
C1120 C 0.20548 0.21505 0.46346 0.0
C1121 C 0.17824 0.22101 0.4653 0.0
C1122 C 0.22481 0.23102 0.47845 0.0
C1123 C 0.21674 0.25338 0.49623 0.0
C1124 C 0.18918 0.25938 0.49852 0.0
C1125 C 0.17023 0.24324 0.48271 0.0
C1126 C 0.25395 0.22414 0.47481 0.0
C1127 C 0.1797 0.28246 0.5182 0.0
H1128 H 0.27793 0.27449 0.57482 0.0
H1129 H 0.27803 0.32141 0.5 0.0
H1130 H 0.21392 0.24497 0.55796 0.0
H1131 H 0.24129 0.22487 0.5458 0.0
H1132 H 0.24362 0.24437 0.58129 0.0
H1133 H 0.2505 0.31253 0.45703 0.0
H1134 H 0.23823 0.28007 0.45039 0.0
H1135 H 0.21733 0.3043 0.46857 0.0
H1136 H 0.21174 0.19801 0.44973 0.0
H1137 H 0.14913 0.24772 0.48438 0.0
H1138 H 0.26305 0.2215 0.49726 0.0
H1139 H 0.26489 0.24002 0.46518 0.0
H1140 H 0.2569 0.2063 0.45976 0.0
H1141 H 0.18435 0.27987 0.54232 0.0
H1142 H 0.15785 0.28551 0.51588 0.0
H1143 H 0.19035 0.29999 0.51242 0.0
C1144 C 0.22324 0.78968 0.00302 0.0
C1145 C 0.2252 0.80049 0.03303 0.0
C1146 C 0.24481 0.77635 0.9892 0.0
C1147 C 0.26853 0.77321 0.0061 0.0
C1148 C 0.27063 0.78418 0.03636 0.0
C1149 C 0.24904 0.79791 0.04937 0.0
C1150 C 0.24226 0.76564 0.95653 0.0
C1151 C 0.29575 0.7816 0.05494 0.0
C1152 C 0.31203 0.71686 0.97878 0.0
C1153 C 0.33184 0.72884 0.96272 0.0
C1154 C 0.29168 0.73122 0.99367 0.0
C1155 C 0.29101 0.75811 0.99217 0.0
C1156 C 0.31136 0.77039 0.97666 0.0
C1157 C 0.33144 0.75558 0.962 0.0
C1158 C 0.27075 0.7176 0.01082 0.0
C1159 C 0.31146 0.79899 0.97431 0.0
H1160 H 0.20495 0.79189 0.99023 0.0
H1161 H 0.25067 0.80625 0.0726 0.0
H1162 H 0.25888 0.77286 0.94306 0.0
H1163 H 0.24379 0.74444 0.95508 0.0
H1164 H 0.22301 0.77086 0.94608 0.0
H1165 H 0.29319 0.78905 0.07903 0.0
H1166 H 0.30192 0.76123 0.05422 0.0
H1167 H 0.31224 0.79241 0.04516 0.0
H1168 H 0.31249 0.69625 0.97973 0.0
H1169 H 0.34648 0.76494 0.94922 0.0
H1170 H 0.25086 0.71984 1.00014 0.0
H1171 H 0.26961 0.72635 0.03453 0.0
H1172 H 0.27496 0.69683 0.01126 0.0
H1173 H 0.29766 0.80348 0.95576 0.0
H1174 H 0.33169 0.80612 0.969 0.0
H1175 H 0.30453 0.80962 0.99554 0.0
loop_
_geom_bond_atom_site_label_1
_geom_bond_atom_site_label_2
_geom_bond_distance
_geom_bond_site_symmetry_2
_ccdc_geom_bond_type
Fe0 O2 1.918 . S
Fe0 O5 1.997 . S
Fe0 O6 2.002 . S
Fe0 O11 1.976 . S
Fe0 O14 1.996 . S
Fe1 O2 1.918 . S
Fe1 O9 1.997 . S
Fe1 O12 1.996 . S
Fe1 O16 1.976 . S
Fe1 O19 2.002 . S
O2 Fe0 1.918 . S
O2 Fe1 1.918 . S
O2 Fe3 1.918 . S
Fe3 O2 1.918 . S
Fe3 O4 2.002 . S
Fe3 O13 1.976 . S
Fe3 O17 1.996 . S
Fe3 O20 1.997 . S
O4 Fe3 2.002 . S
O4 C21 1.295 . S
O5 Fe0 1.997 . S
O5 C21 1.235 . S
O6 Fe0 2.002 . S
O6 C7 1.295 . S
C7 O6 1.295 . S
C7 O9 1.235 . S
C8 O13 1.287 . S
C8 O14 1.255 . S
O9 Fe1 1.997 . S
O9 C7 1.235 . S
C10 O16 1.292 . S
C10 O17 1.261 . S
O11 Fe0 1.976 . S
O11 C18 1.287 . S
O12 Fe1 1.996 . S
O12 C18 1.255 . S
O13 Fe3 1.976 . S
O13 C8 1.287 . S
O14 Fe0 1.996 . S
O14 C8 1.255 . S
C15 O19 1.295 . S
C15 O20 1.235 . S
O16 Fe1 1.976 . S
O16 C10 1.292 . S
O17 Fe3 1.996 . S
O17 C10 1.261 . S
C18 O11 1.287 . S
C18 O12 1.255 . S
O19 Fe1 2.002 . S
O19 C15 1.295 . S
O20 Fe3 1.997 . S
O20 C15 1.235 . S
C21 O4 1.295 . S
C21 O5 1.235 . S
Fe22 O24 1.918 . S
Fe22 O27 1.997 . S
Fe22 O28 2.002 . S
Fe22 O33 1.976 . S
Fe22 O36 1.996 . S
Fe23 O24 1.918 . S
Fe23 O31 1.997 . S
Fe23 O34 1.996 . S
Fe23 O38 1.976 . S
Fe23 O41 2.002 . S
O24 Fe22 1.918 . S
O24 Fe23 1.918 . S
O24 Fe25 1.918 . S
Fe25 O24 1.918 . S
Fe25 O26 2.002 . S
Fe25 O35 1.976 . S
Fe25 O39 1.996 . S
Fe25 O42 1.997 . S
O26 Fe25 2.002 . S
O26 C43 1.295 . S
O27 Fe22 1.997 . S
O27 C43 1.235 . S
O28 Fe22 2.002 . S
O28 C29 1.295 . S
C29 O28 1.295 . S
C29 O31 1.235 . S
C30 O35 1.287 . S
C30 O36 1.255 . S
O31 Fe23 1.997 . S
O31 C29 1.235 . S
C32 O38 1.287 . S
C32 O39 1.255 . S
O33 Fe22 1.976 . S
O33 C40 1.287 . S
O34 Fe23 1.996 . S
O34 C40 1.255 . S
O35 Fe25 1.976 . S
O35 C30 1.287 . S
O36 Fe22 1.996 . S
O36 C30 1.255 . S
C37 O41 1.295 . S
C37 O42 1.235 . S
O38 Fe23 1.976 . S
O38 C32 1.287 . S
O39 Fe25 1.996 . S
O39 C32 1.255 . S
C40 O33 1.287 . S
C40 O34 1.255 . S
O41 Fe23 2.002 . S
O41 C37 1.295 . S
O42 Fe25 1.997 . S
O42 C37 1.235 . S
C43 O26 1.295 . S
C43 O27 1.235 . S
Fe44 O46 1.918 . S
Fe44 O49 1.997 1_554 S
Fe44 O50 2.002 . S
Fe44 O55 1.976 . S
Fe44 O58 1.996 . S
Fe45 O46 1.918 . S
Fe45 O53 1.997 . S
Fe45 O56 1.996 . S
Fe45 O60 1.976 . S
Fe45 O63 2.002 1_554 S
O46 Fe44 1.918 . S
O46 Fe45 1.918 . S
O46 Fe47 1.918 1_554 S
Fe47 O46 1.918 1_556 S
Fe47 O48 2.002 . S
Fe47 O57 1.976 1_556 S
Fe47 O61 1.996 1_556 S
Fe47 O64 1.997 . S
O48 Fe47 2.002 . S
O48 C65 1.295 . S
O49 Fe44 1.997 1_556 S
O49 C65 1.235 . S
O50 Fe44 2.002 . S
O50 C51 1.295 1_554 S
C51 O50 1.295 1_556 S
C51 O53 1.235 1_556 S
C52 O57 1.287 . S
C52 O58 1.255 . S
O53 Fe45 1.997 . S
O53 C51 1.235 1_554 S
C54 O60 1.287 . S
C54 O61 1.255 . S
O55 Fe44 1.976 . S
O55 C62 1.287 . S
O56 Fe45 1.996 . S
O56 C62 1.255 . S
O57 Fe47 1.976 1_554 S
O57 C52 1.287 . S
O58 Fe44 1.996 . S
O58 C52 1.255 . S
C59 O63 1.295 . S
C59 O64 1.235 . S
O60 Fe45 1.976 . S
O60 C54 1.287 . S
O61 Fe47 1.996 1_554 S
O61 C54 1.255 . S
C62 O55 1.287 . S
C62 O56 1.255 . S
O63 Fe45 2.002 1_556 S
O63 C59 1.295 . S
O64 Fe47 1.997 . S
O64 C59 1.235 . S
C65 O48 1.295 . S
C65 O49 1.235 . S
Fe66 O68 1.918 . S
Fe66 O71 1.997 . S
Fe66 O72 2.002 . S
Fe66 O77 1.976 . S
Fe66 O80 1.996 . S
Fe67 O68 1.918 . S
Fe67 O75 1.997 . S
Fe67 O78 1.996 . S
Fe67 O82 1.976 . S
Fe67 O85 2.002 . S
O68 Fe66 1.918 . S
O68 Fe67 1.918 . S
O68 Fe69 1.918 . S
Fe69 O68 1.918 . S
Fe69 O70 2.002 . S
Fe69 O79 1.976 . S
Fe69 O83 1.996 . S
Fe69 O86 1.997 . S
O70 Fe69 2.002 . S
O70 C87 1.295 . S
O71 Fe66 1.997 . S
O71 C87 1.235 . S
O72 Fe66 2.002 . S
O72 C73 1.295 . S
C73 O72 1.295 . S
C73 O75 1.235 . S
C74 O79 1.287 . S
C74 O80 1.255 . S
O75 Fe67 1.997 . S
O75 C73 1.235 . S
C76 O82 1.287 . S
C76 O83 1.255 . S
O77 Fe66 1.976 . S
O77 C84 1.287 . S
O78 Fe67 1.996 . S
O78 C84 1.255 . S
O79 Fe69 1.976 . S
O79 C74 1.287 . S
O80 Fe66 1.996 . S
O80 C74 1.255 . S
C81 O85 1.295 . S
C81 O86 1.235 . S
O82 Fe67 1.976 . S
O82 C76 1.287 . S
O83 Fe69 1.996 . S
O83 C76 1.255 . S
C84 O77 1.287 . S
C84 O78 1.255 . S
O85 Fe67 2.002 . S
O85 C81 1.295 . S
O86 Fe69 1.997 . S
O86 C81 1.235 . S
C87 O70 1.295 . S
C87 O71 1.235 . S
C88 C89 1.264 1_455 S
C88 C93 1.466 1_455 S
C88 C98 1.465 . S
C89 C88 1.264 1_655 S
C89 C91 1.339 . S
C89 H116 0.931 1_655 S
C90 C91 1.395 . S
C90 C92 1.320 . S
C91 C89 1.339 . S
C91 C90 1.395 . S
C91 H117 0.929 . S
C92 C90 1.320 . S
C92 C93 1.436 . S
C92 H118 0.930 . S
C93 C88 1.466 1_655 S
C93 C92 1.436 . S
C93 H119 0.914 1_655 S
U94 O95 2.454 . S
U94 O96 2.458 . S
U94 C97 2.984 . S
U94 C98 2.847 . S
U94 C111 2.882 . S
U94 O112 2.441 . S
U94 O113 2.420 . S
U94 O114 2.455 . S
U94 O115 2.449 . S
O95 U94 2.454 . S
O95 C97 1.353 . S
O96 U94 2.458 . S
O96 C97 1.286 . S
C97 U94 2.984 . S
C97 O95 1.353 . S
C97 O96 1.286 . S
C97 C99 1.363 . S
C98 C88 1.465 . S
C98 U94 2.847 . S
C98 O112 1.249 . S
C98 O113 1.202 . S
C99 C97 1.363 . S
C99 C101 1.408 . S
C99 C104 1.342 . S
C100 C101 1.310 . S
C100 C103 1.461 . S
C100 H120 0.932 . S
C101 C99 1.408 . S
C101 C100 1.310 . S
C101 H121 0.930 . S
C102 C103 1.474 . S
C102 C104 1.285 . S
C102 H122 0.929 . S
C103 C100 1.461 . S
C103 C102 1.474 . S
C104 C99 1.342 . S
C104 C102 1.285 . S
C104 H123 0.930 . S
C105 C108 1.424 . S
C105 C110 1.245 . S
C105 C111 1.428 . S
C106 C109 1.260 . S
C106 C110 1.477 . S
C106 H124 0.932 . S
C107 C108 1.384 . S
C107 C109 1.479 . S
C107 H125 0.929 . S
C108 C105 1.424 . S
C108 C107 1.384 . S
C108 H126 0.928 . S
C109 C106 1.260 . S
C109 C107 1.479 . S
C110 C105 1.245 . S
C110 C106 1.477 . S
C110 H127 0.932 . S
C111 U94 2.882 . S
C111 C105 1.428 . S
C111 O114 1.301 . S
C111 O115 1.282 . S
O112 U94 2.441 . S
O112 C98 1.249 . S
O113 U94 2.420 . S
O113 C98 1.202 . S
O114 U94 2.455 . S
O114 C111 1.301 . S
O115 U94 2.449 . S
O115 C111 1.282 . S
H116 C89 0.931 1_455 S
H117 C91 0.929 . S
H118 C92 0.930 . S
H119 C93 0.914 1_455 S
H120 C100 0.932 . S
H121 C101 0.930 . S
H122 C102 0.929 . S
H123 C104 0.930 . S
H124 C106 0.932 . S
H125 C107 0.929 . S
H126 C108 0.928 . S
H127 C110 0.932 . S
C128 C129 1.264 . S
C128 C133 1.479 . S
C128 C138 1.465 . S
C129 C128 1.264 . S
C129 C131 1.339 . S
C129 H156 0.931 . S
C130 C131 1.395 . S
C130 C132 1.320 . S
C131 C129 1.339 . S
C131 C130 1.395 . S
C131 H157 0.929 . S
C132 C130 1.320 . S
C132 C133 1.405 . S
C132 H158 0.930 . S
C133 C128 1.479 . S
C133 C132 1.405 . S
C133 H159 0.931 . S
U134 O135 2.454 . S
U134 O136 2.458 . S
U134 C137 2.984 . S
U134 C138 2.847 . S
U134 C151 2.882 . S
U134 O152 2.441 . S
U134 O153 2.420 . S
U134 O154 2.455 . S
U134 O155 2.449 . S
O135 U134 2.454 . S
O135 C137 1.353 . S
O136 U134 2.458 . S
O136 C137 1.286 . S
C137 U134 2.984 . S
C137 O135 1.353 . S
C137 O136 1.286 . S
C137 C139 1.363 . S
C138 C128 1.465 . S
C138 U134 2.847 . S
C138 O152 1.249 . S
C138 O153 1.202 . S
C139 C137 1.363 . S
C139 C141 1.408 . S
C139 C144 1.342 . S
C140 C141 1.310 . S
C140 C143 1.461 . S
C140 H160 0.932 . S
C141 C139 1.408 . S
C141 C140 1.310 . S
C141 H161 0.930 . S
C142 C143 1.474 . S
C142 C144 1.285 . S
C142 H162 0.929 . S
C143 C140 1.461 . S
C143 C142 1.474 . S
C144 C139 1.342 . S
C144 C142 1.285 . S
C144 H163 0.930 . S
C145 C148 1.424 . S
C145 C150 1.245 . S
C145 C151 1.428 . S
C146 C149 1.260 . S
C146 C150 1.477 . S
C146 H164 0.932 . S
C147 C148 1.384 . S
C147 C149 1.479 . S
C147 H165 0.929 . S
C148 C145 1.424 . S
C148 C147 1.384 . S
C148 H166 0.928 . S
C149 C146 1.260 . S
C149 C147 1.479 . S
C150 C145 1.245 . S
C150 C146 1.477 . S
C150 H167 0.932 . S
C151 U134 2.882 . S
C151 C145 1.428 . S
C151 O154 1.301 . S
C151 O155 1.282 . S
O152 U134 2.441 . S
O152 C138 1.249 . S
O153 U134 2.420 . S
O153 C138 1.202 . S
O154 U134 2.455 . S
O154 C151 1.301 . S
O155 U134 2.449 . S
O155 C151 1.282 . S
H156 C129 0.931 . S
H157 C131 0.929 . S
H158 C132 0.930 . S
H159 C133 0.931 . S
H160 C140 0.932 . S
H161 C141 0.930 . S
H162 C142 0.929 . S
H163 C144 0.930 . S
H164 C146 0.932 . S
H165 C147 0.929 . S
H166 C148 0.928 . S
H167 C150 0.932 . S
C168 C169 1.264 . S
C168 C173 1.479 . S
C168 C178 1.465 . S
C169 C168 1.264 . S
C169 C171 1.339 . S
C169 H196 0.931 . S
C170 C171 1.395 . S
C170 C172 1.320 . S
C171 C169 1.339 . S
C171 C170 1.395 . S
C171 H197 0.929 . S
C172 C170 1.320 . S
C172 C173 1.405 . S
C172 H198 0.930 . S
C173 C168 1.479 . S
C173 C172 1.405 . S
C173 H199 0.931 . S
U174 O175 2.454 . S
U174 O176 2.458 . S
U174 C177 2.984 . S
U174 C178 2.847 . S
U174 C191 2.882 . S
U174 O192 2.441 . S
U174 O193 2.420 . S
U174 O194 2.455 . S
U174 O195 2.449 . S
O175 U174 2.454 . S
O175 C177 1.353 . S
O176 U174 2.458 . S
O176 C177 1.286 . S
C177 U174 2.984 . S
C177 O175 1.353 . S
C177 O176 1.286 . S
C177 C179 1.363 . S
C178 C168 1.465 . S
C178 U174 2.847 . S
C178 O192 1.249 . S
C178 O193 1.202 . S
C179 C177 1.363 . S
C179 C181 1.408 . S
C179 C184 1.342 . S
C180 C181 1.310 . S
C180 C183 1.461 . S
C180 H200 0.932 . S
C181 C179 1.408 . S
C181 C180 1.310 . S
C181 H201 0.930 . S
C182 C183 1.474 . S
C182 C184 1.285 . S
C182 H202 0.929 . S
C183 C180 1.461 . S
C183 C182 1.474 . S
C184 C179 1.342 . S
C184 C182 1.285 . S
C184 H203 0.930 . S
C185 C188 1.424 . S
C185 C190 1.245 . S
C185 C191 1.428 . S
C186 C189 1.260 . S
C186 C190 1.477 . S
C186 H204 0.932 . S
C187 C188 1.384 . S
C187 C189 1.479 . S
C187 H205 0.929 . S
C188 C185 1.424 . S
C188 C187 1.384 . S
C188 H206 0.928 . S
C189 C186 1.260 . S
C189 C187 1.479 . S
C190 C185 1.245 . S
C190 C186 1.477 . S
C190 H207 0.932 . S
C191 U174 2.882 . S
C191 C185 1.428 . S
C191 O194 1.301 . S
C191 O195 1.282 . S
O192 U174 2.441 . S
O192 C178 1.249 . S
O193 U174 2.420 . S
O193 C178 1.202 . S
O194 U174 2.455 . S
O194 C191 1.301 . S
O195 U174 2.449 . S
O195 C191 1.282 . S
H196 C169 0.931 . S
H197 C171 0.929 . S
H198 C172 0.930 . S
H199 C173 0.931 . S
H200 C180 0.932 . S
H201 C181 0.930 . S
H202 C182 0.929 . S
H203 C184 0.930 . S
H204 C186 0.932 . S
H205 C187 0.929 . S
H206 C188 0.928 . S
H207 C190 0.932 . S
C208 C209 1.264 . S
C208 C213 1.479 . S
C208 C218 1.465 . S
C209 C208 1.264 . S
C209 C211 1.339 . S
C209 H236 0.931 . S
C210 C211 1.395 . S
C210 C212 1.320 . S
C211 C209 1.339 . S
C211 C210 1.395 . S
C211 H237 0.929 . S
C212 C210 1.320 . S
C212 C213 1.405 . S
C212 H238 0.930 . S
C213 C208 1.479 . S
C213 C212 1.405 . S
C213 H239 0.931 . S
U214 O215 2.454 . S
U214 O216 2.458 . S
U214 C217 2.984 . S
U214 C218 2.847 . S
U214 C231 2.882 . S
U214 O232 2.441 . S
U214 O233 2.420 . S
U214 O234 2.455 . S
U214 O235 2.449 . S
O215 U214 2.454 . S
O215 C217 1.353 . S
O216 U214 2.458 . S
O216 C217 1.286 . S
C217 U214 2.984 . S
C217 O215 1.353 . S
C217 O216 1.286 . S
C217 C219 1.363 . S
C218 C208 1.465 . S
C218 U214 2.847 . S
C218 O232 1.249 . S
C218 O233 1.202 . S
C219 C217 1.363 . S
C219 C221 1.408 . S
C219 C224 1.342 . S
C220 C221 1.310 . S
C220 C223 1.461 . S
C220 H240 0.932 . S
C221 C219 1.408 . S
C221 C220 1.310 . S
C221 H241 0.930 . S
C222 C223 1.474 . S
C222 C224 1.285 . S
C222 H242 0.929 . S
C223 C220 1.461 . S
C223 C222 1.474 . S
C224 C219 1.342 . S
C224 C222 1.285 . S
C224 H243 0.930 . S
C225 C228 1.424 . S
C225 C230 1.245 . S
C225 C231 1.428 . S
C226 C229 1.260 . S
C226 C230 1.477 . S
C226 H244 0.932 . S
C227 C228 1.384 . S
C227 C229 1.479 . S
C227 H245 0.929 . S
C228 C225 1.424 . S
C228 C227 1.384 . S
C228 H246 0.928 . S
C229 C226 1.260 . S
C229 C227 1.479 . S
C230 C225 1.245 . S
C230 C226 1.477 . S
C230 H247 0.932 . S
C231 U214 2.882 . S
C231 C225 1.428 . S
C231 O234 1.301 . S
C231 O235 1.282 . S
O232 U214 2.441 . S
O232 C218 1.249 . S
O233 U214 2.420 . S
O233 C218 1.202 . S
O234 U214 2.455 . S
O234 C231 1.301 . S
O235 U214 2.449 . S
O235 C231 1.282 . S
H236 C209 0.931 . S
H237 C211 0.929 . S
H238 C212 0.930 . S
H239 C213 0.931 . S
H240 C220 0.932 . S
H241 C221 0.930 . S
H242 C222 0.929 . S
H243 C224 0.930 . S
H244 C226 0.932 . S
H245 C227 0.929 . S
H246 C228 0.928 . S
H247 C230 0.932 . S
C248 C249 1.264 . S
C248 C253 1.479 . S
C248 C258 1.465 . S
C249 C248 1.264 . S
C249 C251 1.339 . S
C249 H276 0.931 . S
C250 C251 1.395 . S
C250 C252 1.320 . S
C251 C249 1.339 . S
C251 C250 1.395 . S
C251 H277 0.929 . S
C252 C250 1.320 . S
C252 C253 1.405 . S
C252 H278 0.930 . S
C253 C248 1.479 . S
C253 C252 1.405 . S
C253 H279 0.931 . S
U254 O255 2.454 . S
U254 O256 2.458 . S
U254 C257 2.984 . S
U254 C258 2.847 . S
U254 C271 2.882 . S
U254 O272 2.441 . S
U254 O273 2.420 . S
U254 O274 2.455 . S
U254 O275 2.449 . S
O255 U254 2.454 . S
O255 C257 1.353 . S
O256 U254 2.458 . S
O256 C257 1.286 . S
C257 U254 2.984 . S
C257 O255 1.353 . S
C257 O256 1.286 . S
C257 C259 1.363 . S
C258 C248 1.465 . S
C258 U254 2.847 . S
C258 O272 1.249 . S
C258 O273 1.202 . S
C259 C257 1.363 . S
C259 C261 1.408 . S
C259 C264 1.342 . S
C260 C261 1.310 . S
C260 C263 1.461 . S
C260 H280 0.932 . S
C261 C259 1.408 . S
C261 C260 1.310 . S
C261 H281 0.930 . S
C262 C263 1.474 . S
C262 C264 1.285 . S
C262 H282 0.929 . S
C263 C260 1.461 . S
C263 C262 1.474 . S
C264 C259 1.342 . S
C264 C262 1.285 . S
C264 H283 0.930 . S
C265 C268 1.424 . S
C265 C270 1.245 . S
C265 C271 1.428 . S
C266 C269 1.260 . S
C266 C270 1.477 . S
C266 H284 0.932 . S
C267 C268 1.384 . S
C267 C269 1.479 . S
C267 H285 0.929 . S
C268 C265 1.424 . S
C268 C267 1.384 . S
C268 H286 0.928 . S
C269 C266 1.260 . S
C269 C267 1.479 . S
C270 C265 1.245 . S
C270 C266 1.477 . S
C270 H287 0.932 . S
C271 U254 2.882 . S
C271 C265 1.428 . S
C271 O274 1.301 . S
C271 O275 1.282 . S
O272 U254 2.441 . S
O272 C258 1.249 . S
O273 U254 2.420 . S
O273 C258 1.202 . S
O274 U254 2.455 . S
O274 C271 1.301 . S
O275 U254 2.449 . S
O275 C271 1.282 . S
H276 C249 0.931 . S
H277 C251 0.929 . S
H278 C252 0.930 . S
H279 C253 0.931 . S
H280 C260 0.932 . S
H281 C261 0.930 . S
H282 C262 0.929 . S
H283 C264 0.930 . S
H284 C266 0.932 . S
H285 C267 0.929 . S
H286 C268 0.928 . S
H287 C270 0.932 . S
C288 C289 1.264 . S
C288 C293 1.479 . S
C288 C298 1.465 . S
C289 C288 1.264 . S
C289 C291 1.339 . S
C289 H316 0.931 . S
C290 C291 1.395 . S
C290 C292 1.320 . S
C291 C289 1.339 . S
C291 C290 1.395 . S
C291 H317 0.929 . S
C292 C290 1.320 . S
C292 C293 1.405 . S
C292 H318 0.930 . S
C293 C288 1.479 . S
C293 C292 1.405 . S
C293 H319 0.931 . S
U294 O295 2.454 . S
U294 O296 2.458 . S
U294 C297 2.984 . S
U294 C298 2.847 . S
U294 C311 2.882 . S
U294 O312 2.441 . S
U294 O313 2.420 . S
U294 O314 2.455 . S
U294 O315 2.449 . S
O295 U294 2.454 . S
O295 C297 1.353 . S
O296 U294 2.458 . S
O296 C297 1.286 . S
C297 U294 2.984 . S
C297 O295 1.353 . S
C297 O296 1.286 . S
C297 C299 1.363 . S
C298 C288 1.465 . S
C298 U294 2.847 . S
C298 O312 1.249 . S
C298 O313 1.202 . S
C299 C297 1.363 . S
C299 C301 1.408 . S
C299 C304 1.342 . S
C300 C301 1.310 . S
C300 C303 1.461 . S
C300 H320 0.932 . S
C301 C299 1.408 . S
C301 C300 1.310 . S
C301 H321 0.930 . S
C302 C303 1.474 . S
C302 C304 1.285 . S
C302 H322 0.929 . S
C303 C300 1.461 . S
C303 C302 1.474 . S
C304 C299 1.342 . S
C304 C302 1.285 . S
C304 H323 0.930 . S
C305 C308 1.424 . S
C305 C310 1.245 . S
C305 C311 1.428 . S
C306 C309 1.260 . S
C306 C310 1.477 . S
C306 H324 0.932 . S
C307 C308 1.384 . S
C307 C309 1.479 . S
C307 H325 0.929 . S
C308 C305 1.424 . S
C308 C307 1.384 . S
C308 H326 0.928 . S
C309 C306 1.260 . S
C309 C307 1.479 . S
C310 C305 1.245 . S
C310 C306 1.477 . S
C310 H327 0.932 . S
C311 U294 2.882 . S
C311 C305 1.428 . S
C311 O314 1.301 . S
C311 O315 1.282 . S
O312 U294 2.441 . S
O312 C298 1.249 . S
O313 U294 2.420 . S
O313 C298 1.202 . S
O314 U294 2.455 . S
O314 C311 1.301 . S
O315 U294 2.449 . S
O315 C311 1.282 . S
H316 C289 0.931 . S
H317 C291 0.929 . S
H318 C292 0.930 . S
H319 C293 0.931 . S
H320 C300 0.932 . S
H321 C301 0.930 . S
H322 C302 0.929 . S
H323 C304 0.930 . S
H324 C306 0.932 . S
H325 C307 0.929 . S
H326 C308 0.928 . S
H327 C310 0.932 . S
C328 C329 1.264 . S
C328 C333 1.479 . S
C328 C338 1.465 . S
C329 C328 1.264 . S
C329 C331 1.339 . S
C329 H356 0.931 . S
C330 C331 1.395 . S
C330 C332 1.320 . S
C331 C329 1.339 . S
C331 C330 1.395 . S
C331 H357 0.929 . S
C332 C330 1.320 . S
C332 C333 1.405 . S
C332 H358 0.930 . S
C333 C328 1.479 . S
C333 C332 1.405 . S
C333 H359 0.931 . S
U334 O335 2.454 . S
U334 O336 2.458 . S
U334 C337 2.984 . S
U334 C338 2.847 . S
U334 C351 2.882 . S
U334 O352 2.441 . S
U334 O353 2.420 . S
U334 O354 2.455 . S
U334 O355 2.449 . S
O335 U334 2.454 . S
O335 C337 1.353 . S
O336 U334 2.458 . S
O336 C337 1.286 . S
C337 U334 2.984 . S
C337 O335 1.353 . S
C337 O336 1.286 . S
C337 C339 1.363 . S
C338 C328 1.465 . S
C338 U334 2.847 . S
C338 O352 1.249 . S
C338 O353 1.202 . S
C339 C337 1.363 . S
C339 C341 1.408 . S
C339 C344 1.342 . S
C340 C341 1.310 . S
C340 C343 1.461 . S
C340 H360 0.932 . S
C341 C339 1.408 . S
C341 C340 1.310 . S
C341 H361 0.930 . S
C342 C343 1.474 . S
C342 C344 1.285 . S
C342 H362 0.929 . S
C343 C340 1.461 . S
C343 C342 1.474 . S
C344 C339 1.342 . S
C344 C342 1.285 . S
C344 H363 0.930 . S
C345 C348 1.424 . S
C345 C350 1.245 . S
C345 C351 1.428 . S
C346 C349 1.260 . S
C346 C350 1.477 . S
C346 H364 0.932 . S
C347 C348 1.384 . S
C347 C349 1.479 . S
C347 H365 0.929 . S
C348 C345 1.424 . S
C348 C347 1.384 . S
C348 H366 0.928 . S
C349 C346 1.260 . S
C349 C347 1.479 . S
C350 C345 1.245 . S
C350 C346 1.477 . S
C350 H367 0.932 . S
C351 U334 2.882 . S
C351 C345 1.428 . S
C351 O354 1.301 . S
C351 O355 1.282 . S
O352 U334 2.441 . S
O352 C338 1.249 . S
O353 U334 2.420 . S
O353 C338 1.202 . S
O354 U334 2.455 . S
O354 C351 1.301 . S
O355 U334 2.449 . S
O355 C351 1.282 . S
H356 C329 0.931 . S
H357 C331 0.929 . S
H358 C332 0.930 . S
H359 C333 0.931 . S
H360 C340 0.932 . S
H361 C341 0.930 . S
H362 C342 0.929 . S
H363 C344 0.930 . S
H364 C346 0.932 . S
H365 C347 0.929 . S
H366 C348 0.928 . S
H367 C350 0.932 . S
C368 C369 1.264 . S
C368 C373 1.479 . S
C368 C378 1.465 . S
C369 C368 1.264 . S
C369 C371 1.339 . S
C369 H396 0.931 . S
C370 C371 1.395 . S
C370 C372 1.320 . S
C371 C369 1.339 . S
C371 C370 1.395 . S
C371 H397 0.929 . S
C372 C370 1.320 . S
C372 C373 1.405 . S
C372 H398 0.930 . S
C373 C368 1.479 . S
C373 C372 1.405 . S
C373 H399 0.931 . S
U374 O375 2.454 . S
U374 O376 2.458 . S
U374 C377 2.984 . S
U374 C378 2.847 . S
U374 C391 2.882 . S
U374 O392 2.441 . S
U374 O393 2.420 . S
U374 O394 2.455 . S
U374 O395 2.449 . S
O375 U374 2.454 . S
O375 C377 1.353 . S
O376 U374 2.458 . S
O376 C377 1.286 . S
C377 U374 2.984 . S
C377 O375 1.353 . S
C377 O376 1.286 . S
C377 C379 1.363 . S
C378 C368 1.465 . S
C378 U374 2.847 . S
C378 O392 1.249 . S
C378 O393 1.202 . S
C379 C377 1.363 . S
C379 C381 1.408 . S
C379 C384 1.342 . S
C380 C381 1.310 . S
C380 C383 1.461 . S
C380 H400 0.932 . S
C381 C379 1.408 . S
C381 C380 1.310 . S
C381 H401 0.930 . S
C382 C383 1.474 . S
C382 C384 1.285 . S
C382 H402 0.929 . S
C383 C380 1.461 . S
C383 C382 1.474 . S
C384 C379 1.342 . S
C384 C382 1.285 . S
C384 H403 0.930 . S
C385 C388 1.432 . S
C385 C390 1.245 . S
C385 C391 1.428 . S
C386 C389 1.260 . S
C386 C390 1.477 1_455 S
C386 H404 0.932 . S
C387 C388 1.371 1_455 S
C387 C389 1.479 . S
C387 H405 0.929 . S
C388 C385 1.432 . S
C388 C387 1.371 1_655 S
C388 H406 0.933 . S
C389 C386 1.260 . S
C389 C387 1.479 . S
C390 C385 1.245 . S
C390 C386 1.477 1_655 S
C390 H407 0.932 . S
C391 U374 2.882 . S
C391 C385 1.428 . S
C391 O394 1.301 . S
C391 O395 1.282 . S
O392 U374 2.441 . S
O392 C378 1.249 . S
O393 U374 2.420 . S
O393 C378 1.202 . S
O394 U374 2.455 . S
O394 C391 1.301 . S
O395 U374 2.449 . S
O395 C391 1.282 . S
H396 C369 0.931 . S
H397 C371 0.929 . S
H398 C372 0.930 . S
H399 C373 0.931 . S
H400 C380 0.932 . S
H401 C381 0.930 . S
H402 C382 0.929 . S
H403 C384 0.930 . S
H404 C386 0.932 . S
H405 C387 0.929 . S
H406 C388 0.933 . S
H407 C390 0.932 . S
C408 C409 1.391 . S
C408 C410 1.394 . S
C408 H424 0.931 . S
C409 C408 1.391 . S
C409 C413 1.376 . S
C410 C408 1.394 . S
C410 C411 1.369 . S
C410 C414 1.531 . S
C411 C410 1.369 . S
C411 C412 1.410 . S
C411 C419 1.503 . S
C412 C411 1.410 . S
C412 C413 1.392 . S
C412 C415 1.511 . S
C413 C409 1.376 . S
C413 C412 1.392 . S
C413 H425 0.929 . S
C414 C410 1.531 . S
C414 H426 0.960 . S
C414 H427 0.962 . S
C414 H428 0.960 . S
C415 C412 1.511 . S
C415 H429 0.961 . S
C415 H430 0.961 . S
C415 H431 0.961 . S
C416 C417 1.370 . S
C416 C418 1.363 . S
C416 H432 0.940 . S
C417 C416 1.370 . S
C417 C421 1.408 . S
C418 C416 1.363 . S
C418 C419 1.370 . S
C418 C422 1.524 . S
C419 C411 1.503 . S
C419 C418 1.370 . S
C419 C420 1.403 . S
C420 C419 1.403 . S
C420 C421 1.404 . S
C420 C423 1.539 . S
C421 C417 1.408 . S
C421 C420 1.404 . S
C421 H433 0.930 . S
C422 C418 1.524 . S
C422 H434 0.956 . S
C422 H435 0.961 . S
C422 H436 0.961 . S
C423 C420 1.539 . S
C423 H437 0.958 . S
C423 H438 0.961 . S
C423 H439 0.960 . S
H424 C408 0.931 . S
H425 C413 0.929 . S
H426 C414 0.960 . S
H427 C414 0.962 . S
H428 C414 0.960 . S
H429 C415 0.961 . S
H430 C415 0.961 . S
H431 C415 0.961 . S
H432 C416 0.940 . S
H433 C421 0.930 . S
H434 C422 0.956 . S
H435 C422 0.961 . S
H436 C422 0.961 . S
H437 C423 0.958 . S
H438 C423 0.961 . S
H439 C423 0.960 . S
C440 C441 1.391 . S
C440 C442 1.394 . S
C440 H456 0.931 . S
C441 C440 1.391 . S
C441 C445 1.376 . S
C442 C440 1.394 . S
C442 C443 1.369 . S
C442 C446 1.531 . S
C443 C442 1.369 . S
C443 C444 1.410 . S
C443 C451 1.503 . S
C444 C443 1.410 . S
C444 C445 1.392 . S
C444 C447 1.511 . S
C445 C441 1.376 . S
C445 C444 1.392 . S
C445 H457 0.929 . S
C446 C442 1.531 . S
C446 H458 0.960 . S
C446 H459 0.962 . S
C446 H460 0.960 . S
C447 C444 1.511 . S
C447 H461 0.961 . S
C447 H462 0.961 . S
C447 H463 0.961 . S
C448 C449 1.370 . S
C448 C450 1.363 . S
C448 H464 0.931 . S
C449 C448 1.370 . S
C449 C453 1.408 . S
C450 C448 1.363 . S
C450 C451 1.370 . S
C450 C454 1.524 . S
C451 C443 1.503 . S
C451 C450 1.370 . S
C451 C452 1.403 . S
C452 C451 1.403 . S
C452 C453 1.404 . S
C452 C455 1.539 . S
C453 C449 1.408 . S
C453 C452 1.404 . S
C453 H465 0.930 . S
C454 C450 1.524 . S
C454 H466 0.956 . S
C454 H467 0.961 . S
C454 H468 0.961 . S
C455 C452 1.539 . S
C455 H469 0.958 . S
C455 H470 0.961 . S
C455 H471 0.960 . S
H456 C440 0.931 . S
H457 C445 0.929 . S
H458 C446 0.960 . S
H459 C446 0.962 . S
H460 C446 0.960 . S
H461 C447 0.961 . S
H462 C447 0.961 . S
H463 C447 0.961 . S
H464 C448 0.931 . S
H465 C453 0.930 . S
H466 C454 0.956 . S
H467 C454 0.961 . S
H468 C454 0.961 . S
H469 C455 0.958 . S
H470 C455 0.961 . S
H471 C455 0.960 . S
C472 C473 1.391 . S
C472 C474 1.394 . S
C472 H488 0.931 . S
C473 C472 1.391 . S
C473 C477 1.376 . S
C474 C472 1.394 . S
C474 C475 1.369 . S
C474 C478 1.531 . S
C475 C474 1.369 . S
C475 C476 1.410 . S
C475 C483 1.503 . S
C476 C475 1.410 . S
C476 C477 1.392 . S
C476 C479 1.511 . S
C477 C473 1.376 . S
C477 C476 1.392 . S
C477 H489 0.929 . S
C478 C474 1.531 . S
C478 H490 0.960 . S
C478 H491 0.962 . S
C478 H492 0.960 1_554 S
C479 C476 1.511 . S
C479 H493 0.961 . S
C479 H494 0.961 . S
C479 H495 0.961 . S
C480 C481 1.370 . S
C480 C482 1.363 1_565 S
C480 H496 0.931 . S
C481 C480 1.370 . S
C481 C485 1.408 . S
C482 C480 1.363 1_545 S
C482 C483 1.370 . S
C482 C486 1.524 . S
C483 C475 1.503 . S
C483 C482 1.370 . S
C483 C484 1.403 1_545 S
C484 C483 1.403 1_565 S
C484 C485 1.404 . S
C484 C487 1.539 . S
C485 C481 1.408 . S
C485 C484 1.404 . S
C485 H497 0.930 . S
C486 C482 1.524 . S
C486 H498 0.956 . S
C486 H499 0.961 . S
C486 H500 0.961 . S
C487 C484 1.539 . S
C487 H501 0.958 . S
C487 H502 0.961 . S
C487 H503 0.960 1_565 S
H488 C472 0.931 . S
H489 C477 0.929 . S
H490 C478 0.960 . S
H491 C478 0.962 . S
H492 C478 0.960 1_556 S
H493 C479 0.961 . S
H494 C479 0.961 . S
H495 C479 0.961 . S
H496 C480 0.931 . S
H497 C485 0.930 . S
H498 C486 0.956 . S
H499 C486 0.961 . S
H500 C486 0.961 . S
H501 C487 0.958 . S
H502 C487 0.961 . S
H503 C487 0.960 1_545 S
C504 C505 1.391 . S
C504 C506 1.394 . S
C504 H520 0.931 . S
C505 C504 1.391 . S
C505 C509 1.376 . S
C506 C504 1.394 . S
C506 C507 1.369 . S
C506 C510 1.531 . S
C507 C506 1.369 . S
C507 C508 1.410 . S
C507 C515 1.503 . S
C508 C507 1.410 . S
C508 C509 1.392 . S
C508 C511 1.511 . S
C509 C505 1.376 . S
C509 C508 1.392 . S
C509 H521 0.929 . S
C510 C506 1.531 . S
C510 H522 0.960 . S
C510 H523 0.962 . S
C510 H524 0.960 . S
C511 C508 1.511 . S
C511 H525 0.961 . S
C511 H526 0.961 . S
C511 H527 0.961 . S
C512 C513 1.370 . S
C512 C514 1.363 . S
C512 H528 0.931 . S
C513 C512 1.370 . S
C513 C517 1.408 . S
C514 C512 1.363 . S
C514 C515 1.370 . S
C514 C518 1.524 . S
C515 C507 1.503 . S
C515 C514 1.370 . S
C515 C516 1.403 . S
C516 C515 1.403 . S
C516 C517 1.404 . S
C516 C519 1.539 . S
C517 C513 1.408 . S
C517 C516 1.404 . S
C517 H529 0.930 . S
C518 C514 1.524 . S
C518 H530 0.956 . S
C518 H531 0.961 . S
C518 H532 0.961 . S
C519 C516 1.539 . S
C519 H533 0.958 . S
C519 H534 0.961 . S
C519 H535 0.960 . S
H520 C504 0.931 . S
H521 C509 0.929 . S
H522 C510 0.960 . S
H523 C510 0.962 . S
H524 C510 0.960 . S
H525 C511 0.961 . S
H526 C511 0.961 . S
H527 C511 0.961 . S
H528 C512 0.931 . S
H529 C517 0.930 . S
H530 C518 0.956 . S
H531 C518 0.961 . S
H532 C518 0.961 . S
H533 C519 0.958 . S
H534 C519 0.961 . S
H535 C519 0.960 . S
C536 C537 1.391 . S
C536 C538 1.394 . S
C536 H552 0.931 . S
C537 C536 1.391 . S
C537 C541 1.376 . S
C538 C536 1.394 . S
C538 C539 1.369 . S
C538 C542 1.531 . S
C539 C538 1.369 . S
C539 C540 1.410 . S
C539 C547 1.503 . S
C540 C539 1.410 . S
C540 C541 1.392 . S
C540 C543 1.511 . S
C541 C537 1.376 . S
C541 C540 1.392 . S
C541 H553 0.929 . S
C542 C538 1.531 . S
C542 H554 0.960 . S
C542 H555 0.962 . S
C542 H556 0.960 . S
C543 C540 1.511 . S
C543 H557 0.961 . S
C543 H558 0.961 . S
C543 H559 0.961 . S
C544 C545 1.370 . S
C544 C546 1.363 . S
C544 H560 0.931 . S
C545 C544 1.370 . S
C545 C549 1.408 . S
C546 C544 1.363 . S
C546 C547 1.370 . S
C546 C550 1.524 . S
C547 C539 1.503 . S
C547 C546 1.370 . S
C547 C548 1.403 . S
C548 C547 1.403 . S
C548 C549 1.404 . S
C548 C551 1.539 . S
C549 C545 1.408 . S
C549 C548 1.404 . S
C549 H561 0.930 . S
C550 C546 1.524 . S
C550 H562 0.956 . S
C550 H563 0.961 . S
C550 H564 0.961 . S
C551 C548 1.539 . S
C551 H565 0.958 . S
C551 H566 0.961 . S
C551 H567 0.960 . S
H552 C536 0.931 . S
H553 C541 0.929 . S
H554 C542 0.960 . S
H555 C542 0.962 . S
H556 C542 0.960 . S
H557 C543 0.961 . S
H558 C543 0.961 . S
H559 C543 0.961 . S
H560 C544 0.931 . S
H561 C549 0.930 . S
H562 C550 0.956 . S
H563 C550 0.961 . S
H564 C550 0.961 . S
H565 C551 0.958 . S
H566 C551 0.961 . S
H567 C551 0.960 . S
C568 C569 1.391 1_554 S
C568 C570 1.394 . S
C568 H584 0.931 . S
C569 C568 1.391 1_556 S
C569 C573 1.376 . S
C570 C568 1.394 . S
C570 C571 1.369 1_554 S
C570 C574 1.535 . S
C571 C570 1.369 1_556 S
C571 C572 1.410 . S
C571 C579 1.503 1_655 S
C572 C571 1.410 . S
C572 C573 1.392 . S
C572 C575 1.511 . S
C573 C569 1.376 . S
C573 C572 1.392 . S
C573 H585 0.929 . S
C574 C570 1.535 . S
C574 H586 0.955 1_655 S
C574 H587 0.961 1_655 S
C574 H588 0.963 . S
C575 C572 1.511 . S
C575 H589 0.961 . S
C575 H590 0.961 . S
C575 H591 0.961 . S
C576 C577 1.370 . S
C576 C578 1.363 . S
C576 H592 0.931 . S
C577 C576 1.370 . S
C577 C581 1.408 . S
C578 C576 1.363 . S
C578 C579 1.370 . S
C578 C582 1.524 1_556 S
C579 C571 1.503 1_455 S
C579 C578 1.370 . S
C579 C580 1.403 . S
C580 C579 1.403 . S
C580 C581 1.404 . S
C580 C583 1.539 . S
C581 C577 1.408 . S
C581 C580 1.404 . S
C581 H593 0.930 . S
C582 C578 1.524 1_554 S
C582 H594 0.956 1_455 S
C582 H595 0.961 1_454 S
C582 H596 0.961 . S
C583 C580 1.539 . S
C583 H597 0.958 . S
C583 H598 0.961 . S
C583 H599 0.960 . S
H584 C568 0.931 . S
H585 C573 0.929 . S
H586 C574 0.955 1_455 S
H587 C574 0.961 1_455 S
H588 C574 0.963 . S
H589 C575 0.961 . S
H590 C575 0.961 . S
H591 C575 0.961 . S
H592 C576 0.931 . S
H593 C581 0.930 . S
H594 C582 0.956 1_655 S
H595 C582 0.961 1_656 S
H596 C582 0.961 . S
H597 C583 0.958 . S
H598 C583 0.961 . S
H599 C583 0.960 . S
C600 C601 1.391 . S
C600 C602 1.394 . S
C600 H616 0.931 . S
C601 C600 1.391 . S
C601 C605 1.376 . S
C602 C600 1.394 . S
C602 C603 1.369 . S
C602 C606 1.531 . S
C603 C602 1.369 . S
C603 C604 1.410 . S
C603 C611 1.503 . S
C604 C603 1.410 . S
C604 C605 1.392 . S
C604 C607 1.511 . S
C605 C601 1.376 . S
C605 C604 1.392 . S
C605 H617 0.929 . S
C606 C602 1.531 . S
C606 H618 0.960 . S
C606 H619 0.962 . S
C606 H620 0.960 . S
C607 C604 1.511 . S
C607 H621 0.961 . S
C607 H622 0.961 . S
C607 H623 0.961 . S
C608 C609 1.370 . S
C608 C610 1.363 . S
C608 H624 0.931 . S
C609 C608 1.370 . S
C609 C613 1.408 . S
C610 C608 1.363 . S
C610 C611 1.370 . S
C610 C614 1.524 . S
C611 C603 1.503 . S
C611 C610 1.370 . S
C611 C612 1.403 . S
C612 C611 1.403 . S
C612 C613 1.404 . S
C612 C615 1.539 . S
C613 C609 1.408 . S
C613 C612 1.404 . S
C613 H625 0.930 . S
C614 C610 1.524 . S
C614 H626 0.956 . S
C614 H627 0.961 . S
C614 H628 0.961 . S
C615 C612 1.539 . S
C615 H629 0.958 . S
C615 H630 0.961 . S
C615 H631 0.960 . S
H616 C600 0.931 . S
H617 C605 0.929 . S
H618 C606 0.960 . S
H619 C606 0.962 . S
H620 C606 0.960 . S
H621 C607 0.961 . S
H622 C607 0.961 . S
H623 C607 0.961 . S
H624 C608 0.931 . S
H625 C613 0.930 . S
H626 C614 0.956 . S
H627 C614 0.961 . S
H628 C614 0.961 . S
H629 C615 0.958 . S
H630 C615 0.961 . S
H631 C615 0.960 . S
C632 C633 1.391 . S
C632 C634 1.394 . S
C632 H648 0.931 . S
C633 C632 1.391 . S
C633 C637 1.376 . S
C634 C632 1.394 . S
C634 C635 1.369 . S
C634 C638 1.531 . S
C635 C634 1.369 . S
C635 C636 1.410 . S
C635 C643 1.503 . S
C636 C635 1.410 . S
C636 C637 1.392 . S
C636 C639 1.511 . S
C637 C633 1.376 . S
C637 C636 1.392 . S
C637 H649 0.929 . S
C638 C634 1.531 . S
C638 H650 0.960 . S
C638 H651 0.962 . S
C638 H652 0.960 . S
C639 C636 1.511 . S
C639 H653 0.961 . S
C639 H654 0.961 . S
C639 H655 0.961 . S
C640 C641 1.370 . S
C640 C642 1.363 . S
C640 H656 0.931 . S
C641 C640 1.370 . S
C641 C645 1.408 . S
C642 C640 1.363 . S
C642 C643 1.370 . S
C642 C646 1.524 . S
C643 C635 1.503 . S
C643 C642 1.370 . S
C643 C644 1.403 . S
C644 C643 1.403 . S
C644 C645 1.404 . S
C644 C647 1.539 . S
C645 C641 1.408 . S
C645 C644 1.404 . S
C645 H657 0.930 . S
C646 C642 1.524 . S
C646 H658 0.956 . S
C646 H659 0.961 . S
C646 H660 0.961 . S
C647 C644 1.539 . S
C647 H661 0.958 . S
C647 H662 0.961 . S
C647 H663 0.960 . S
H648 C632 0.931 . S
H649 C637 0.929 . S
H650 C638 0.960 . S
H651 C638 0.962 . S
H652 C638 0.960 . S
H653 C639 0.961 . S
H654 C639 0.961 . S
H655 C639 0.961 . S
H656 C640 0.931 . S
H657 C645 0.930 . S
H658 C646 0.956 . S
H659 C646 0.961 . S
H660 C646 0.961 . S
H661 C647 0.958 . S
H662 C647 0.961 . S
H663 C647 0.960 . S
C664 C665 1.391 . S
C664 C666 1.394 . S
C664 H680 0.931 . S
C665 C664 1.391 . S
C665 C669 1.376 . S
C666 C664 1.394 . S
C666 C667 1.369 . S
C666 C670 1.531 . S
C667 C666 1.369 . S
C667 C668 1.410 . S
C667 C675 1.503 . S
C668 C667 1.410 . S
C668 C669 1.392 . S
C668 C671 1.511 . S
C669 C665 1.376 . S
C669 C668 1.392 . S
C669 H681 0.929 . S
C670 C666 1.531 . S
C670 H682 0.960 . S
C670 H683 0.962 . S
C670 H684 0.960 . S
C671 C668 1.511 . S
C671 H685 0.961 . S
C671 H686 0.961 . S
C671 H687 0.961 . S
C672 C673 1.370 . S
C672 C674 1.363 . S
C672 H688 0.931 . S
C673 C672 1.370 . S
C673 C677 1.408 . S
C674 C672 1.363 . S
C674 C675 1.370 . S
C674 C678 1.524 . S
C675 C667 1.503 . S
C675 C674 1.370 . S
C675 C676 1.403 . S
C676 C675 1.403 . S
C676 C677 1.404 . S
C676 C679 1.539 . S
C677 C673 1.408 . S
C677 C676 1.404 . S
C677 H689 0.930 1_545 S
C678 C674 1.524 . S
C678 H690 0.956 . S
C678 H691 0.961 . S
C678 H692 0.961 . S
C679 C676 1.539 . S
C679 H693 0.958 . S
C679 H694 0.961 . S
C679 H695 0.960 . S
H680 C664 0.931 . S
H681 C669 0.929 . S
H682 C670 0.960 . S
H683 C670 0.962 . S
H684 C670 0.960 . S
H685 C671 0.961 . S
H686 C671 0.961 . S
H687 C671 0.961 . S
H688 C672 0.931 . S
H689 C677 0.930 1_565 S
H690 C678 0.956 . S
H691 C678 0.961 . S
H692 C678 0.961 . S
H693 C679 0.958 . S
H694 C679 0.961 . S
H695 C679 0.960 . S
C696 C697 1.391 . S
C696 C698 1.394 . S
C696 H712 0.931 . S
C697 C696 1.391 . S
C697 C701 1.376 . S
C698 C696 1.394 . S
C698 C699 1.369 . S
C698 C702 1.531 . S
C699 C698 1.369 . S
C699 C700 1.410 . S
C699 C707 1.503 . S
C700 C699 1.410 . S
C700 C701 1.392 . S
C700 C703 1.511 . S
C701 C697 1.376 . S
C701 C700 1.392 . S
C701 H713 0.929 . S
C702 C698 1.531 . S
C702 H714 0.960 . S
C702 H715 0.962 . S
C702 H716 0.960 . S
C703 C700 1.511 . S
C703 H717 0.961 . S
C703 H718 0.961 . S
C703 H719 0.961 . S
C704 C705 1.370 . S
C704 C706 1.363 . S
C704 H720 0.931 . S
C705 C704 1.370 . S
C705 C709 1.408 . S
C706 C704 1.363 . S
C706 C707 1.370 . S
C706 C710 1.524 . S
C707 C699 1.503 . S
C707 C706 1.370 . S
C707 C708 1.403 . S
C708 C707 1.403 . S
C708 C709 1.404 . S
C708 C711 1.539 . S
C709 C705 1.408 . S
C709 C708 1.404 . S
C709 H721 0.930 . S
C710 C706 1.524 . S
C710 H722 0.956 . S
C710 H723 0.961 . S
C710 H724 0.961 . S
C711 C708 1.539 . S
C711 H725 0.958 . S
C711 H726 0.961 . S
C711 H727 0.960 . S
H712 C696 0.931 . S
H713 C701 0.929 . S
H714 C702 0.960 . S
H715 C702 0.962 . S
H716 C702 0.960 . S
H717 C703 0.961 . S
H718 C703 0.961 . S
H719 C703 0.961 . S
H720 C704 0.931 . S
H721 C709 0.930 . S
H722 C710 0.956 . S
H723 C710 0.961 . S
H724 C710 0.961 . S
H725 C711 0.958 . S
H726 C711 0.961 . S
H727 C711 0.960 . S
C728 C729 1.391 . S
C728 C730 1.394 . S
C728 H744 0.931 . S
C729 C728 1.391 . S
C729 C733 1.376 . S
C730 C728 1.394 . S
C730 C731 1.369 . S
C730 C734 1.531 . S
C731 C730 1.369 . S
C731 C732 1.410 . S
C731 C739 1.503 . S
C732 C731 1.410 . S
C732 C733 1.392 . S
C732 C735 1.511 1_554 S
C733 C729 1.376 . S
C733 C732 1.392 . S
C733 H745 0.929 . S
C734 C730 1.531 . S
C734 H746 0.960 1_565 S
C734 H747 0.962 . S
C734 H748 0.960 . S
C735 C732 1.511 1_556 S
C735 H749 0.961 . S
C735 H750 0.961 . S
C735 H751 0.961 1_556 S
C736 C737 1.370 . S
C736 C738 1.363 1_545 S
C736 H752 0.931 . S
C737 C736 1.370 . S
C737 C741 1.408 1_556 S
C738 C736 1.363 1_565 S
C738 C739 1.370 1_556 S
C738 C742 1.524 . S
C739 C731 1.503 . S
C739 C738 1.370 1_554 S
C739 C740 1.384 1_565 S
C740 C739 1.384 1_545 S
C740 C741 1.439 . S
C740 C743 1.524 1_545 S
C741 C737 1.408 1_554 S
C741 C740 1.439 . S
C741 H753 0.930 . S
C742 C738 1.524 . S
C742 H754 0.956 . S
C742 H755 0.961 . S
C742 H756 0.961 . S
C743 C740 1.524 1_565 S
C743 H757 0.949 1_565 S
C743 H758 0.961 . S
C743 H759 0.960 . S
H744 C728 0.931 . S
H745 C733 0.929 . S
H746 C734 0.960 1_545 S
H747 C734 0.962 . S
H748 C734 0.960 . S
H749 C735 0.961 . S
H750 C735 0.961 . S
H751 C735 0.961 1_554 S
H752 C736 0.931 . S
H753 C741 0.930 . S
H754 C742 0.956 . S
H755 C742 0.961 . S
H756 C742 0.961 . S
H757 C743 0.949 1_545 S
H758 C743 0.961 . S
H759 C743 0.960 . S
C760 C761 1.391 . S
C760 C762 1.394 . S
C760 H776 0.931 . S
C761 C760 1.391 . S
C761 C765 1.376 . S
C762 C760 1.394 . S
C762 C763 1.369 . S
C762 C766 1.531 . S
C763 C762 1.369 . S
C763 C764 1.410 . S
C763 C771 1.503 . S
C764 C763 1.410 . S
C764 C765 1.392 . S
C764 C767 1.511 . S
C765 C761 1.376 . S
C765 C764 1.392 . S
C765 H777 0.929 . S
C766 C762 1.531 . S
C766 H778 0.960 . S
C766 H779 0.962 . S
C766 H780 0.960 . S
C767 C764 1.511 . S
C767 H781 0.961 . S
C767 H782 0.961 . S
C767 H783 0.961 . S
C768 C769 1.370 . S
C768 C770 1.363 . S
C768 H784 0.931 . S
C769 C768 1.370 . S
C769 C773 1.408 . S
C770 C768 1.363 . S
C770 C771 1.370 . S
C770 C774 1.524 . S
C771 C763 1.503 . S
C771 C770 1.370 . S
C771 C772 1.403 . S
C772 C771 1.403 . S
C772 C773 1.404 . S
C772 C775 1.539 . S
C773 C769 1.408 . S
C773 C772 1.404 . S
C773 H785 0.930 . S
C774 C770 1.524 . S
C774 H786 0.956 . S
C774 H787 0.961 . S
C774 H788 0.961 . S
C775 C772 1.539 . S
C775 H789 0.958 . S
C775 H790 0.961 . S
C775 H791 0.960 . S
H776 C760 0.931 . S
H777 C765 0.929 . S
H778 C766 0.960 . S
H779 C766 0.962 . S
H780 C766 0.960 . S
H781 C767 0.961 . S
H782 C767 0.961 . S
H783 C767 0.961 . S
H784 C768 0.931 . S
H785 C773 0.930 . S
H786 C774 0.956 . S
H787 C774 0.961 . S
H788 C774 0.961 . S
H789 C775 0.958 . S
H790 C775 0.961 . S
H791 C775 0.960 . S
C792 C793 1.391 . S
C792 C794 1.394 . S
C792 H808 0.931 . S
C793 C792 1.391 . S
C793 C797 1.376 . S
C794 C792 1.394 . S
C794 C795 1.369 . S
C794 C798 1.531 . S
C795 C794 1.369 . S
C795 C796 1.410 . S
C795 C803 1.503 . S
C796 C795 1.410 . S
C796 C797 1.392 . S
C796 C799 1.511 . S
C797 C793 1.376 . S
C797 C796 1.392 . S
C797 H809 0.929 . S
C798 C794 1.531 . S
C798 H810 0.960 . S
C798 H811 0.962 . S
C798 H812 0.960 . S
C799 C796 1.511 . S
C799 H813 0.961 . S
C799 H814 0.961 . S
C799 H815 0.961 . S
C800 C801 1.370 . S
C800 C802 1.363 . S
C800 H816 0.931 . S
C801 C800 1.370 . S
C801 C805 1.408 . S
C802 C800 1.363 . S
C802 C803 1.370 . S
C802 C806 1.524 . S
C803 C795 1.503 . S
C803 C802 1.370 . S
C803 C804 1.403 . S
C804 C803 1.403 . S
C804 C805 1.404 . S
C804 C807 1.539 . S
C805 C801 1.408 . S
C805 C804 1.404 . S
C805 H817 0.930 . S
C806 C802 1.524 . S
C806 H818 0.956 . S
C806 H819 0.961 . S
C806 H820 0.961 . S
C807 C804 1.539 . S
C807 H821 0.958 . S
C807 H822 0.961 . S
C807 H823 0.960 . S
H808 C792 0.931 . S
H809 C797 0.929 . S
H810 C798 0.960 . S
H811 C798 0.962 . S
H812 C798 0.960 . S
H813 C799 0.961 . S
H814 C799 0.961 . S
H815 C799 0.961 . S
H816 C800 0.931 . S
H817 C805 0.930 . S
H818 C806 0.956 . S
H819 C806 0.961 . S
H820 C806 0.961 . S
H821 C807 0.958 . S
H822 C807 0.961 . S
H823 C807 0.960 . S
C824 C825 1.391 . S
C824 C826 1.394 . S
C824 H840 0.931 . S
C825 C824 1.391 . S
C825 C829 1.376 . S
C826 C824 1.394 . S
C826 C827 1.369 . S
C826 C830 1.531 1_455 S
C827 C826 1.369 . S
C827 C828 1.410 . S
C827 C835 1.503 1_455 S
C828 C827 1.410 . S
C828 C829 1.392 . S
C828 C831 1.511 . S
C829 C825 1.376 . S
C829 C828 1.392 . S
C829 H841 0.929 . S
C830 C826 1.531 1_655 S
C830 H842 0.960 . S
C830 H843 0.962 . S
C830 H844 0.960 1_655 S
C831 C828 1.511 . S
C831 H845 0.961 . S
C831 H846 0.961 . S
C831 H847 0.961 . S
C832 C833 1.370 . S
C832 C834 1.363 . S
C832 H848 0.931 . S
C833 C832 1.370 . S
C833 C837 1.408 . S
C834 C832 1.363 . S
C834 C835 1.370 . S
C834 C838 1.524 . S
C835 C827 1.503 1_655 S
C835 C834 1.370 . S
C835 C836 1.403 . S
C836 C835 1.403 . S
C836 C837 1.404 . S
C836 C839 1.539 . S
C837 C833 1.408 . S
C837 C836 1.404 . S
C837 H849 0.930 . S
C838 C834 1.524 . S
C838 H850 0.956 . S
C838 H851 0.940 1_655 S
C838 H852 0.961 . S
C839 C836 1.539 . S
C839 H853 0.958 . S
C839 H854 0.961 . S
C839 H855 0.960 . S
H840 C824 0.931 . S
H841 C829 0.929 . S
H842 C830 0.960 . S
H843 C830 0.962 . S
H844 C830 0.960 1_455 S
H845 C831 0.961 . S
H846 C831 0.961 . S
H847 C831 0.961 . S
H848 C832 0.931 . S
H849 C837 0.930 . S
H850 C838 0.956 . S
H851 C838 0.940 1_455 S
H852 C838 0.961 . S
H853 C839 0.958 . S
H854 C839 0.961 . S
H855 C839 0.960 . S
C856 C857 1.391 . S
C856 C858 1.394 . S
C856 H872 0.931 . S
C857 C856 1.391 . S
C857 C861 1.376 . S
C858 C856 1.394 . S
C858 C859 1.369 . S
C858 C862 1.531 . S
C859 C858 1.369 . S
C859 C860 1.410 . S
C859 C867 1.503 . S
C860 C859 1.410 . S
C860 C861 1.392 . S
C860 C863 1.511 . S
C861 C857 1.376 . S
C861 C860 1.392 . S
C861 H873 0.929 . S
C862 C858 1.531 . S
C862 H874 0.960 . S
C862 H875 0.962 . S
C862 H876 0.960 . S
C863 C860 1.511 . S
C863 H877 0.961 . S
C863 H878 0.961 . S
C863 H879 0.961 . S
C864 C865 1.370 . S
C864 C866 1.363 . S
C864 H880 0.931 . S
C865 C864 1.370 . S
C865 C869 1.408 . S
C866 C864 1.363 . S
C866 C867 1.370 . S
C866 C870 1.524 . S
C867 C859 1.503 . S
C867 C866 1.370 . S
C867 C868 1.403 . S
C868 C867 1.403 . S
C868 C869 1.404 . S
C868 C871 1.539 . S
C869 C865 1.408 . S
C869 C868 1.404 . S
C869 H881 0.930 . S
C870 C866 1.524 . S
C870 H882 0.956 . S
C870 H883 0.961 . S
C870 H884 0.961 . S
C871 C868 1.539 . S
C871 H885 0.958 . S
C871 H886 0.961 . S
C871 H887 0.960 . S
H872 C856 0.931 . S
H873 C861 0.929 . S
H874 C862 0.960 . S
H875 C862 0.962 . S
H876 C862 0.960 . S
H877 C863 0.961 . S
H878 C863 0.961 . S
H879 C863 0.961 . S
H880 C864 0.931 . S
H881 C869 0.930 . S
H882 C870 0.956 . S
H883 C870 0.961 . S
H884 C870 0.961 . S
H885 C871 0.958 . S
H886 C871 0.961 . S
H887 C871 0.960 . S
C888 C889 1.391 . S
C888 C890 1.394 . S
C888 H904 0.931 . S
C889 C888 1.391 . S
C889 C893 1.376 . S
C890 C888 1.394 . S
C890 C891 1.369 . S
C890 C894 1.531 . S
C891 C890 1.369 . S
C891 C892 1.410 . S
C891 C899 1.503 . S
C892 C891 1.410 . S
C892 C893 1.392 . S
C892 C895 1.511 . S
C893 C889 1.376 . S
C893 C892 1.392 . S
C893 H905 0.929 . S
C894 C890 1.531 . S
C894 H906 0.960 . S
C894 H907 0.962 . S
C894 H908 0.960 . S
C895 C892 1.511 . S
C895 H909 0.961 . S
C895 H910 0.961 . S
C895 H911 0.961 . S
C896 C897 1.370 . S
C896 C898 1.363 . S
C896 H912 0.931 . S
C897 C896 1.370 . S
C897 C901 1.408 . S
C898 C896 1.363 . S
C898 C899 1.370 . S
C898 C902 1.524 . S
C899 C891 1.503 . S
C899 C898 1.370 . S
C899 C900 1.403 . S
C900 C899 1.403 . S
C900 C901 1.404 . S
C900 C903 1.539 . S
C901 C897 1.408 . S
C901 C900 1.404 . S
C901 H913 0.930 . S
C902 C898 1.524 . S
C902 H914 0.956 . S
C902 H915 0.961 . S
C902 H916 0.961 . S
C903 C900 1.539 . S
C903 H917 0.958 . S
C903 H918 0.961 . S
C903 H919 0.960 . S
H904 C888 0.931 . S
H905 C893 0.929 . S
H906 C894 0.960 . S
H907 C894 0.962 . S
H908 C894 0.960 . S
H909 C895 0.961 . S
H910 C895 0.961 . S
H911 C895 0.961 . S
H912 C896 0.931 . S
H913 C901 0.930 . S
H914 C902 0.956 . S
H915 C902 0.961 . S
H916 C902 0.961 . S
H917 C903 0.958 . S
H918 C903 0.961 . S
H919 C903 0.960 . S
C920 C921 1.391 . S
C920 C922 1.394 . S
C920 H936 0.931 . S
C921 C920 1.391 . S
C921 C925 1.376 . S
C922 C920 1.394 . S
C922 C923 1.369 . S
C922 C926 1.531 . S
C923 C922 1.369 . S
C923 C924 1.410 . S
C923 C931 1.503 . S
C924 C923 1.410 . S
C924 C925 1.392 . S
C924 C927 1.511 . S
C925 C921 1.376 . S
C925 C924 1.392 . S
C925 H937 0.929 . S
C926 C922 1.531 . S
C926 H938 0.960 . S
C926 H939 0.962 . S
C926 H940 0.960 . S
C927 C924 1.511 . S
C927 H941 0.961 . S
C927 H942 0.961 . S
C927 H943 0.961 . S
C928 C929 1.370 . S
C928 C930 1.363 . S
C928 H944 0.931 . S
C929 C928 1.370 . S
C929 C933 1.408 . S
C930 C928 1.363 . S
C930 C931 1.370 . S
C930 C934 1.524 . S
C931 C923 1.503 . S
C931 C930 1.370 . S
C931 C932 1.403 . S
C932 C931 1.403 . S
C932 C933 1.404 . S
C932 C935 1.539 . S
C933 C929 1.408 . S
C933 C932 1.404 . S
C933 H945 0.930 . S
C934 C930 1.524 . S
C934 H946 0.956 . S
C934 H947 0.961 . S
C934 H948 0.961 . S
C935 C932 1.539 . S
C935 H949 0.958 . S
C935 H950 0.961 . S
C935 H951 0.960 . S
H936 C920 0.931 . S
H937 C925 0.929 . S
H938 C926 0.960 . S
H939 C926 0.962 . S
H940 C926 0.960 . S
H941 C927 0.961 . S
H942 C927 0.961 . S
H943 C927 0.961 . S
H944 C928 0.931 . S
H945 C933 0.930 . S
H946 C934 0.956 . S
H947 C934 0.961 . S
H948 C934 0.961 . S
H949 C935 0.958 . S
H950 C935 0.961 . S
H951 C935 0.960 . S
C952 C953 1.391 . S
C952 C954 1.394 . S
C952 H968 0.931 . S
C953 C952 1.391 . S
C953 C957 1.376 . S
C954 C952 1.394 . S
C954 C955 1.369 . S
C954 C958 1.531 . S
C955 C954 1.369 . S
C955 C956 1.410 . S
C955 C963 1.503 . S
C956 C955 1.410 . S
C956 C957 1.392 . S
C956 C959 1.511 . S
C957 C953 1.376 . S
C957 C956 1.392 . S
C957 H969 0.929 . S
C958 C954 1.531 . S
C958 H970 0.960 . S
C958 H971 0.962 . S
C958 H972 0.960 . S
C959 C956 1.511 . S
C959 H973 0.961 . S
C959 H974 0.961 . S
C959 H975 0.961 . S
C960 C961 1.370 . S
C960 C962 1.363 . S
C960 H976 0.931 . S
C961 C960 1.370 . S
C961 C965 1.408 . S
C962 C960 1.363 . S
C962 C963 1.370 . S
C962 C966 1.524 . S
C963 C955 1.503 . S
C963 C962 1.370 . S
C963 C964 1.403 . S
C964 C963 1.403 . S
C964 C965 1.404 . S
C964 C967 1.539 . S
C965 C961 1.408 . S
C965 C964 1.404 . S
C965 H977 0.930 . S
C966 C962 1.524 . S
C966 H978 0.956 . S
C966 H979 0.961 . S
C966 H980 0.961 . S
C967 C964 1.539 . S
C967 H981 0.958 . S
C967 H982 0.961 . S
C967 H983 0.960 . S
H968 C952 0.931 . S
H969 C957 0.929 . S
H970 C958 0.960 . S
H971 C958 0.962 . S
H972 C958 0.960 . S
H973 C959 0.961 . S
H974 C959 0.961 . S
H975 C959 0.961 . S
H976 C960 0.931 . S
H977 C965 0.930 . S
H978 C966 0.956 . S
H979 C966 0.961 . S
H980 C966 0.961 . S
H981 C967 0.958 . S
H982 C967 0.961 . S
H983 C967 0.960 . S
C984 C985 1.391 . S
C984 C986 1.394 . S
C984 H1000 0.931 . S
C985 C984 1.391 . S
C985 C989 1.376 . S
C986 C984 1.394 . S
C986 C987 1.369 . S
C986 C990 1.531 . S
C987 C986 1.369 . S
C987 C988 1.410 . S
C987 C995 1.503 . S
C988 C987 1.410 . S
C988 C989 1.392 . S
C988 C991 1.511 . S
C989 C985 1.376 . S
C989 C988 1.392 . S
C989 H1001 0.929 . S
C990 C986 1.531 . S
C990 H1002 0.960 . S
C990 H1003 0.962 . S
C990 H1004 0.960 . S
C991 C988 1.511 . S
C991 H1005 0.961 . S
C991 H1006 0.961 . S
C991 H1007 0.961 . S
C992 C993 1.370 . S
C992 C994 1.363 . S
C992 H1008 0.931 . S
C993 C992 1.370 . S
C993 C997 1.408 . S
C994 C992 1.363 . S
C994 C995 1.370 . S
C994 C998 1.524 . S
C995 C987 1.503 . S
C995 C994 1.370 . S
C995 C996 1.403 . S
C996 C995 1.403 . S
C996 C997 1.404 . S
C996 C999 1.539 . S
C997 C993 1.408 . S
C997 C996 1.404 . S
C997 H1009 0.930 . S
C998 C994 1.524 . S
C998 H1010 0.956 . S
C998 H1011 0.961 . S
C998 H1012 0.961 . S
C999 C996 1.539 . S
C999 H1013 0.958 . S
C999 H1014 0.961 . S
C999 H1015 0.960 . S
H1000 C984 0.931 . S
H1001 C989 0.929 . S
H1002 C990 0.960 . S
H1003 C990 0.962 . S
H1004 C990 0.960 . S
H1005 C991 0.961 . S
H1006 C991 0.961 . S
H1007 C991 0.961 . S
H1008 C992 0.931 . S
H1009 C997 0.930 . S
H1010 C998 0.956 . S
H1011 C998 0.961 . S
H1012 C998 0.961 . S
H1013 C999 0.958 . S
H1014 C999 0.961 . S
H1015 C999 0.960 . S
C1016 C1017 1.391 . S
C1016 C1018 1.394 . S
C1016 H1032 0.931 . S
C1017 C1016 1.391 . S
C1017 C1021 1.376 . S
C1018 C1016 1.394 . S
C1018 C1019 1.369 . S
C1018 C1022 1.531 . S
C1019 C1018 1.369 . S
C1019 C1020 1.410 . S
C1019 C1027 1.503 . S
C1020 C1019 1.410 . S
C1020 C1021 1.392 . S
C1020 C1023 1.511 . S
C1021 C1017 1.376 . S
C1021 C1020 1.392 . S
C1021 H1033 0.929 . S
C1022 C1018 1.531 . S
C1022 H1034 0.960 . S
C1022 H1035 0.962 . S
C1022 H1036 0.960 . S
C1023 C1020 1.511 . S
C1023 H1037 0.961 . S
C1023 H1038 0.961 . S
C1023 H1039 0.961 . S
C1024 C1025 1.370 . S
C1024 C1026 1.363 . S
C1024 H1040 0.931 . S
C1025 C1024 1.370 . S
C1025 C1029 1.408 . S
C1026 C1024 1.363 . S
C1026 C1027 1.370 . S
C1026 C1030 1.524 . S
C1027 C1019 1.503 . S
C1027 C1026 1.370 . S
C1027 C1028 1.403 . S
C1028 C1027 1.403 . S
C1028 C1029 1.404 . S
C1028 C1031 1.539 . S
C1029 C1025 1.408 . S
C1029 C1028 1.404 . S
C1029 H1041 0.930 . S
C1030 C1026 1.524 . S
C1030 H1042 0.956 . S
C1030 H1043 0.961 . S
C1030 H1044 0.961 . S
C1031 C1028 1.539 . S
C1031 H1045 0.958 . S
C1031 H1046 0.961 . S
C1031 H1047 0.960 . S
H1032 C1016 0.931 . S
H1033 C1021 0.929 . S
H1034 C1022 0.960 . S
H1035 C1022 0.962 . S
H1036 C1022 0.960 . S
H1037 C1023 0.961 . S
H1038 C1023 0.961 . S
H1039 C1023 0.961 . S
H1040 C1024 0.931 . S
H1041 C1029 0.930 . S
H1042 C1030 0.956 . S
H1043 C1030 0.961 . S
H1044 C1030 0.961 . S
H1045 C1031 0.958 . S
H1046 C1031 0.961 . S
H1047 C1031 0.960 . S
C1048 C1049 1.391 . S
C1048 C1050 1.394 . S
C1048 H1064 0.931 . S
C1049 C1048 1.391 . S
C1049 C1053 1.376 . S
C1050 C1048 1.394 . S
C1050 C1051 1.369 . S
C1050 C1054 1.531 . S
C1051 C1050 1.369 . S
C1051 C1052 1.410 . S
C1051 C1059 1.503 . S
C1052 C1051 1.410 . S
C1052 C1053 1.392 . S
C1052 C1055 1.511 . S
C1053 C1049 1.376 . S
C1053 C1052 1.392 . S
C1053 H1065 0.929 . S
C1054 C1050 1.531 . S
C1054 H1066 0.960 . S
C1054 H1067 0.962 . S
C1054 H1068 0.960 . S
C1055 C1052 1.511 . S
C1055 H1069 0.961 . S
C1055 H1070 0.961 . S
C1055 H1071 0.961 . S
C1056 C1057 1.370 . S
C1056 C1058 1.363 . S
C1056 H1072 0.931 . S
C1057 C1056 1.370 . S
C1057 C1061 1.408 . S
C1058 C1056 1.363 . S
C1058 C1059 1.370 . S
C1058 C1062 1.524 . S
C1059 C1051 1.503 . S
C1059 C1058 1.370 . S
C1059 C1060 1.403 . S
C1060 C1059 1.403 . S
C1060 C1061 1.404 . S
C1060 C1063 1.539 . S
C1061 C1057 1.408 . S
C1061 C1060 1.404 . S
C1061 H1073 0.930 . S
C1062 C1058 1.524 . S
C1062 H1074 0.956 . S
C1062 H1075 0.961 . S
C1062 H1076 0.961 . S
C1063 C1060 1.539 . S
C1063 H1077 0.958 . S
C1063 H1078 0.961 . S
C1063 H1079 0.960 . S
H1064 C1048 0.931 . S
H1065 C1053 0.929 . S
H1066 C1054 0.960 . S
H1067 C1054 0.962 . S
H1068 C1054 0.960 . S
H1069 C1055 0.961 . S
H1070 C1055 0.961 . S
H1071 C1055 0.961 . S
H1072 C1056 0.931 . S
H1073 C1061 0.930 . S
H1074 C1062 0.956 . S
H1075 C1062 0.961 . S
H1076 C1062 0.961 . S
H1077 C1063 0.958 . S
H1078 C1063 0.961 . S
H1079 C1063 0.960 . S
C1080 C1081 1.391 . S
C1080 C1082 1.394 . S
C1080 H1096 0.931 . S
C1081 C1080 1.391 . S
C1081 C1085 1.376 . S
C1082 C1080 1.394 . S
C1082 C1083 1.369 . S
C1082 C1086 1.531 . S
C1083 C1082 1.369 . S
C1083 C1084 1.410 . S
C1083 C1091 1.503 . S
C1084 C1083 1.410 . S
C1084 C1085 1.392 . S
C1084 C1087 1.511 . S
C1085 C1081 1.376 . S
C1085 C1084 1.392 . S
C1085 H1097 0.929 . S
C1086 C1082 1.531 . S
C1086 H1098 0.960 . S
C1086 H1099 0.962 . S
C1086 H1100 0.960 . S
C1087 C1084 1.511 . S
C1087 H1101 0.961 . S
C1087 H1102 0.961 . S
C1087 H1103 0.961 . S
C1088 C1089 1.370 . S
C1088 C1090 1.363 . S
C1088 H1104 0.931 . S
C1089 C1088 1.370 . S
C1089 C1093 1.408 . S
C1090 C1088 1.363 . S
C1090 C1091 1.370 . S
C1090 C1094 1.524 . S
C1091 C1083 1.503 . S
C1091 C1090 1.370 . S
C1091 C1092 1.403 . S
C1092 C1091 1.403 . S
C1092 C1093 1.404 . S
C1092 C1095 1.539 . S
C1093 C1089 1.408 . S
C1093 C1092 1.404 . S
C1093 H1105 0.930 . S
C1094 C1090 1.524 . S
C1094 H1106 0.956 . S
C1094 H1107 0.961 . S
C1094 H1108 0.961 . S
C1095 C1092 1.539 . S
C1095 H1109 0.958 . S
C1095 H1110 0.961 . S
C1095 H1111 0.960 . S
H1096 C1080 0.931 . S
H1097 C1085 0.929 . S
H1098 C1086 0.960 . S
H1099 C1086 0.962 . S
H1100 C1086 0.960 . S
H1101 C1087 0.961 . S
H1102 C1087 0.961 . S
H1103 C1087 0.961 . S
H1104 C1088 0.931 . S
H1105 C1093 0.930 . S
H1106 C1094 0.956 . S
H1107 C1094 0.961 . S
H1108 C1094 0.961 . S
H1109 C1095 0.958 . S
H1110 C1095 0.961 . S
H1111 C1095 0.960 . S
C1112 C1113 1.391 . S
C1112 C1114 1.394 . S
C1112 H1128 0.931 . S
C1113 C1112 1.391 . S
C1113 C1117 1.376 . S
C1114 C1112 1.394 . S
C1114 C1115 1.369 . S
C1114 C1118 1.531 . S
C1115 C1114 1.369 . S
C1115 C1116 1.410 . S
C1115 C1123 1.503 . S
C1116 C1115 1.410 . S
C1116 C1117 1.392 . S
C1116 C1119 1.511 . S
C1117 C1113 1.376 . S
C1117 C1116 1.392 . S
C1117 H1129 0.929 . S
C1118 C1114 1.531 . S
C1118 H1130 0.960 . S
C1118 H1131 0.962 . S
C1118 H1132 0.960 . S
C1119 C1116 1.511 . S
C1119 H1133 0.961 . S
C1119 H1134 0.961 . S
C1119 H1135 0.961 . S
C1120 C1121 1.370 . S
C1120 C1122 1.363 . S
C1120 H1136 0.931 . S
C1121 C1120 1.370 . S
C1121 C1125 1.408 . S
C1122 C1120 1.363 . S
C1122 C1123 1.370 . S
C1122 C1126 1.524 . S
C1123 C1115 1.503 . S
C1123 C1122 1.370 . S
C1123 C1124 1.403 . S
C1124 C1123 1.403 . S
C1124 C1125 1.404 . S
C1124 C1127 1.539 . S
C1125 C1121 1.408 . S
C1125 C1124 1.404 . S
C1125 H1137 0.930 . S
C1126 C1122 1.524 . S
C1126 H1138 0.956 . S
C1126 H1139 0.961 . S
C1126 H1140 0.961 . S
C1127 C1124 1.539 . S
C1127 H1141 0.958 . S
C1127 H1142 0.961 . S
C1127 H1143 0.960 . S
H1128 C1112 0.931 . S
H1129 C1117 0.929 . S
H1130 C1118 0.960 . S
H1131 C1118 0.962 . S
H1132 C1118 0.960 . S
H1133 C1119 0.961 . S
H1134 C1119 0.961 . S
H1135 C1119 0.961 . S
H1136 C1120 0.931 . S
H1137 C1125 0.930 . S
H1138 C1126 0.956 . S
H1139 C1126 0.961 . S
H1140 C1126 0.961 . S
H1141 C1127 0.958 . S
H1142 C1127 0.961 . S
H1143 C1127 0.960 . S
C1144 C1145 1.391 1_556 S
C1144 C1146 1.394 . S
C1144 H1160 0.931 . S
C1145 C1144 1.391 1_554 S
C1145 C1149 1.376 . S
C1146 C1144 1.394 . S
C1146 C1147 1.369 . S
C1146 C1150 1.531 . S
C1147 C1146 1.369 . S
C1147 C1148 1.410 1_556 S
C1147 C1155 1.503 . S
C1148 C1147 1.410 1_554 S
C1148 C1149 1.392 . S
C1148 C1151 1.511 . S
C1149 C1145 1.376 . S
C1149 C1148 1.392 . S
C1149 H1161 0.929 . S
C1150 C1146 1.531 . S
C1150 H1162 0.960 . S
C1150 H1163 0.962 . S
C1150 H1164 0.960 . S
C1151 C1148 1.511 . S
C1151 H1165 0.961 . S
C1151 H1166 0.961 . S
C1151 H1167 0.961 . S
C1152 C1153 1.370 . S
C1152 C1154 1.363 . S
C1152 H1168 0.931 . S
C1153 C1152 1.370 . S
C1153 C1157 1.408 . S
C1154 C1152 1.363 . S
C1154 C1155 1.370 . S
C1154 C1158 1.524 1_556 S
C1155 C1147 1.503 . S
C1155 C1154 1.370 . S
C1155 C1156 1.403 . S
C1156 C1155 1.403 . S
C1156 C1157 1.404 . S
C1156 C1159 1.539 . S
C1157 C1153 1.408 . S
C1157 C1156 1.404 . S
C1157 H1169 0.930 . S
C1158 C1154 1.524 1_554 S
C1158 H1170 0.956 1_554 S
C1158 H1171 0.961 . S
C1158 H1172 0.961 . S
C1159 C1156 1.539 . S
C1159 H1173 0.958 . S
C1159 H1174 0.961 . S
C1159 H1175 0.960 . S
H1160 C1144 0.931 . S
H1161 C1149 0.929 . S
H1162 C1150 0.960 . S
H1163 C1150 0.962 . S
H1164 C1150 0.960 . S
H1165 C1151 0.961 . S
H1166 C1151 0.961 . S
H1167 C1151 0.961 . S
H1168 C1152 0.931 . S
H1169 C1157 0.930 . S
H1170 C1158 0.956 1_556 S
H1171 C1158 0.961 . S
H1172 C1158 0.961 . S
H1173 C1159 0.958 . S
H1174 C1159 0.961 . S
H1175 C1159 0.960 . S
C409 C7 1.698 . S
C417 C109 1.553 1_565 S
C441 C37 1.677 . S
C449 C149 1.471 . S
C473 C54 1.828 . S
C481 C170 1.646 . S
C513 C229 1.534 . S
C505 C87 1.550 . S
C545 C269 1.499 . S
C537 C30 1.630 . S
C569 C51 1.577 . S
C577 C290 1.484 . S
C601 C84 1.920 . S
C609 C330 1.774 . S
C633 C10 1.610 1_556 S
C641 C389 1.434 . S
C665 C59 1.648 . S
C673 C370 1.529 1_545 S
C705 C250 1.418 . S
C697 C74 1.541 . S
C737 C309 1.724 . S
C729 C18 1.924 . S
C761 C32 1.564 . S
C769 C349 1.434 . S
C801 C130 1.540 . S
C793 C73 1.638 . S
C825 C15 1.599 . S
C833 C189 1.540 . S
C865 C210 1.858 . S
C857 C43 1.894 . S
C897 C90 1.438 . S
C889 C62 1.565 . S
C929 C343 1.564 . S
C921 C21 1.657 . S
C961 C383 1.381 . S
C953 C29 1.439 . S
C985 C52 1.324 . S
C993 C263 1.301 . S
C1025 C303 1.567 . S
C1017 C81 1.650 . S
C1057 C183 1.551 . S
C1049 C40 1.573 . S
C1081 C65 1.575 . S
C1089 C223 1.528 . S
C1121 C103 1.344 . S
C1113 C76 1.366 . S
C1153 C143 1.398 . S
C1145 C8 1.432 . S
