# Generated by pormake.
# Topology pto, (3,4)-cn, num edge types: 1
# Building blocks:
#     Node 0, Type 0, BuildingBlock: OLANEW_clean_sbu_2, # of connection points: 3
#     Node 1, Type 0, BuildingBlock: OLANEW_clean_sbu_2, # of connection points: 3
#     Node 2, Type 0, BuildingBlock: OLANEW_clean_sbu_2, # of connection points: 3
#     Node 3, Type 0, BuildingBlock: OLANEW_clean_sbu_2, # of connection points: 3
#     Node 4, Type 0, BuildingBlock: OLANEW_clean_sbu_2, # of connection points: 3
#     Node 5, Type 0, BuildingBlock: OLANEW_clean_sbu_2, # of connection points: 3
#     Node 6, Type 0, BuildingBlock: OLANEW_clean_sbu_2, # of connection points: 3
#     Node 7, Type 0, BuildingBlock: OLANEW_clean_sbu_2, # of connection points: 3
#     Node 8, Type 1, BuildingBlock: NAWXER_clean_sbu_0, # of connection points: 4
#     Node 9, Type 1, BuildingBlock: NAWXER_clean_sbu_0, # of connection points: 4
#     Node 10, Type 1, BuildingBlock: NAWXER_clean_sbu_0, # of connection points: 4
#     Node 11, Type 1, BuildingBlock: NAWXER_clean_sbu_0, # of connection points: 4
#     Node 12, Type 1, BuildingBlock: NAWXER_clean_sbu_0, # of connection points: 4
#     Node 13, Type 1, BuildingBlock: NAWXER_clean_sbu_0, # of connection points: 4
#     Edge 14, Type (0, 1), BuildingBlock: CIFDUS_clean_linker_0, # of connection points: 2
#     Edge 15, Type (0, 1), BuildingBlock: CIFDUS_clean_linker_0, # of connection points: 2
#     Edge 16, Type (0, 1), BuildingBlock: CIFDUS_clean_linker_0, # of connection points: 2
#     Edge 17, Type (0, 1), BuildingBlock: CIFDUS_clean_linker_0, # of connection points: 2
#     Edge 18, Type (0, 1), BuildingBlock: CIFDUS_clean_linker_0, # of connection points: 2
#     Edge 19, Type (0, 1), BuildingBlock: CIFDUS_clean_linker_0, # of connection points: 2
#     Edge 20, Type (0, 1), BuildingBlock: CIFDUS_clean_linker_0, # of connection points: 2
#     Edge 21, Type (0, 1), BuildingBlock: CIFDUS_clean_linker_0, # of connection points: 2
#     Edge 22, Type (0, 1), BuildingBlock: CIFDUS_clean_linker_0, # of connection points: 2
#     Edge 23, Type (0, 1), BuildingBlock: CIFDUS_clean_linker_0, # of connection points: 2
#     Edge 24, Type (0, 1), BuildingBlock: CIFDUS_clean_linker_0, # of connection points: 2
#     Edge 25, Type (0, 1), BuildingBlock: CIFDUS_clean_linker_0, # of connection points: 2
#     Edge 26, Type (0, 1), BuildingBlock: CIFDUS_clean_linker_0, # of connection points: 2
#     Edge 27, Type (0, 1), BuildingBlock: CIFDUS_clean_linker_0, # of connection points: 2
#     Edge 28, Type (0, 1), BuildingBlock: CIFDUS_clean_linker_0, # of connection points: 2
#     Edge 29, Type (0, 1), BuildingBlock: CIFDUS_clean_linker_0, # of connection points: 2
#     Edge 30, Type (0, 1), BuildingBlock: CIFDUS_clean_linker_0, # of connection points: 2
#     Edge 31, Type (0, 1), BuildingBlock: CIFDUS_clean_linker_0, # of connection points: 2
#     Edge 32, Type (0, 1), BuildingBlock: CIFDUS_clean_linker_0, # of connection points: 2
#     Edge 33, Type (0, 1), BuildingBlock: CIFDUS_clean_linker_0, # of connection points: 2
#     Edge 34, Type (0, 1), BuildingBlock: CIFDUS_clean_linker_0, # of connection points: 2
#     Edge 35, Type (0, 1), BuildingBlock: CIFDUS_clean_linker_0, # of connection points: 2
#     Edge 36, Type (0, 1), BuildingBlock: CIFDUS_clean_linker_0, # of connection points: 2
#     Edge 37, Type (0, 1), BuildingBlock: CIFDUS_clean_linker_0, # of connection points: 2
# Relax obj value: 0.013
# Max RMSD: 0.128
# Mean RMSD: 0.055
data_MOF--net-pto--node1-OLANEW_clean_sbu_2--node2-NAWXER_clean_sbu_0--edge1-CIFDUS_clean_linker_0
_symmetry_space_group_name_H-M    P1
_symmetry_Int_Tables_number       1
_symmetry_cell_setting            triclinic
loop_
_symmetry_equiv_pos_as_xyz
'x, y, z'
_cell_length_a     39.379712
_cell_length_b     38.872699
_cell_length_c     35.595494
_cell_angle_alpha  93.134874
_cell_angle_beta   90.425039
_cell_angle_gamma 103.72781
loop_
_atom_site_label
_atom_site_type_symbol
_atom_site_fract_x
_atom_site_fract_y
_atom_site_fract_z
_atom_type_partial_charge
O0 O 0.32219 0.38715 0.23409 0.0
Cd1 Cd 0.2873 0.38278 0.2903 0.0
O2 O 0.33596 0.44524 0.2314 0.0
Cd3 Cd 0.29917 0.45444 0.27463 0.0
O4 O 0.25647 0.47483 0.29955 0.0
C5 C 0.2268 0.46452 0.283 0.0
O6 O 0.22352 0.4415 0.25397 0.0
C7 C 0.33898 0.4148 0.21901 0.0
C8 C 0.28896 0.31729 0.31743 0.0
O9 O 0.26301 0.32083 0.29731 0.0
O10 O 0.31338 0.34495 0.3259 0.0
O11 O 0.38631 0.98999 0.82343 0.0
Cd12 Cd 0.34533 0.01846 0.79319 0.0
O13 O 0.34813 0.93878 0.81987 0.0
Cd14 Cd 0.3229 0.88316 0.82915 0.0
O15 O 0.28658 0.83064 0.82775 0.0
C16 C 0.2812 0.8122 0.79671 0.0
O17 O 0.29848 0.8248 0.76705 0.0
C18 C 0.3782 0.95739 0.83044 0.0
C19 C 0.34587 0.01525 0.71482 0.0
O20 O 0.36796 0.03929 0.73424 0.0
O21 O 0.32408 0.99213 0.7325 0.0
O22 O 0.774 0.80602 0.35595 0.0
Cd23 Cd 0.76577 0.75469 0.31126 0.0
O24 O 0.72833 0.82411 0.336 0.0
Cd25 Cd 0.71557 0.79052 0.28431 0.0
O26 O 0.69056 0.79096 0.22932 0.0
C27 C 0.69382 0.82144 0.21643 0.0
O28 O 0.71289 0.84921 0.23572 0.0
C29 C 0.75366 0.82696 0.35922 0.0
C30 C 0.8241 0.72529 0.30881 0.0
O31 O 0.81978 0.74774 0.28523 0.0
O32 O 0.80095 0.71681 0.33394 0.0
O33 O 0.83981 0.35471 0.78963 0.0
Cd34 Cd 0.78904 0.30636 0.80151 0.0
O35 O 0.83896 0.37813 0.84716 0.0
Cd36 Cd 0.78879 0.34313 0.86003 0.0
O37 O 0.73284 0.32806 0.87079 0.0
C38 C 0.71365 0.34286 0.8515 0.0
O39 O 0.72826 0.36412 0.82562 0.0
C40 C 0.85334 0.37818 0.81527 0.0
C41 C 0.78813 0.24381 0.75888 0.0
O42 O 0.76965 0.26494 0.74885 0.0
O43 O 0.8071 0.25231 0.7889 0.0
O44 O 0.83331 0.79046 0.64393 0.0
Cd45 Cd 0.83016 0.72698 0.64542 0.0
O46 O 0.79007 0.78031 0.68309 0.0
Cd47 Cd 0.74991 0.79188 0.72063 0.0
O48 O 0.71187 0.79969 0.76264 0.0
C49 C 0.68878 0.77374 0.77387 0.0
O50 O 0.68751 0.74161 0.75943 0.0
C51 C 0.81074 0.80186 0.6631 0.0
C52 C 0.88798 0.70876 0.67701 0.0
O53 O 0.88586 0.71239 0.64155 0.0
O54 O 0.86317 0.71467 0.6976 0.0
O55 O 0.80381 0.32663 0.31459 0.0
Cd56 Cd 0.75664 0.28534 0.34454 0.0
O57 O 0.76514 0.34685 0.28349 0.0
Cd58 Cd 0.74592 0.38302 0.24827 0.0
O59 O 0.71716 0.40159 0.20396 0.0
C60 C 0.7181 0.38667 0.17146 0.0
O61 O 0.7373 0.3634 0.16687 0.0
C62 C 0.79694 0.34827 0.2918 0.0
C63 C 0.7757 0.22842 0.37643 0.0
O64 O 0.76073 0.22471 0.34386 0.0
O65 O 0.78244 0.2592 0.39358 0.0
O66 O 0.27666 0.32697 0.80625 0.0
Cd67 Cd 0.23074 0.31419 0.75745 0.0
O68 O 0.31641 0.35818 0.77059 0.0
Cd69 Cd 0.28547 0.33621 0.71984 0.0
O70 O 0.27447 0.29909 0.67031 0.0
C71 C 0.29924 0.30219 0.64713 0.0
O72 O 0.32739 0.32791 0.65368 0.0
C73 C 0.30694 0.34701 0.80268 0.0
C74 C 0.20353 0.37366 0.75055 0.0
O75 O 0.19277 0.35161 0.77583 0.0
O76 O 0.22687 0.36739 0.72805 0.0
O77 O 0.29072 0.8147 0.16677 0.0
Cd78 Cd 0.24065 0.81389 0.20794 0.0
O79 O 0.27997 0.85267 0.12721 0.0
Cd80 Cd 0.22749 0.84566 0.14891 0.0
O81 O 0.17929 0.80835 0.16269 0.0
C82 C 0.16447 0.78467 0.13787 0.0
O83 O 0.17711 0.78523 0.1038 0.0
C84 C 0.29959 0.83358 0.13875 0.0
C85 C 0.24649 0.87465 0.25614 0.0
O86 O 0.26218 0.85046 0.26384 0.0
O87 O 0.22841 0.87049 0.22544 0.0
C88 C 0.95695 0.51361 0.26672 0.0
C89 C 0.03827 0.62294 0.23325 0.0
O90 O 0.97503 0.5311 0.29463 0.0
Zn91 Zn 0.0139 0.57902 0.30635 0.0
O92 O 0.96091 0.52558 0.23406 0.0
Zn93 Zn 0.99744 0.5677 0.24807 0.0
O94 O 0.03942 0.54573 0.26515 0.0
O95 O 0.05338 0.56172 0.32482 0.0
O96 O 0.01885 0.60002 0.21055 0.0
O97 O 0.03839 0.61756 0.26845 0.0
O98 O 0.98896 0.60639 0.3391 0.0
O99 O 0.96978 0.59965 0.28004 0.0
C100 C 0.05841 0.54506 0.29437 0.0
C101 C 0.9686 0.6126 0.31373 0.0
C102 C 0.02022 0.54184 0.80862 0.0
C103 C 0.12345 0.63998 0.80593 0.0
O104 O 0.03416 0.56407 0.83511 0.0
Zn105 Zn 0.07171 0.59041 0.80679 0.0
O106 O 0.03373 0.54409 0.77581 0.0
Zn107 Zn 0.0782 0.57836 0.74965 0.0
O108 O 0.10545 0.54558 0.73339 0.0
O109 O 0.10157 0.55112 0.7951 0.0
O110 O 0.11677 0.62339 0.77355 0.0
O111 O 0.10398 0.62938 0.83325 0.0
O112 O 0.0437 0.61554 0.7683 0.0
O113 O 0.05617 0.59852 0.71101 0.0
C114 C 0.11231 0.53648 0.76576 0.0
C115 C 0.04012 0.61619 0.73248 0.0
C116 C 0.34505 0.07206 0.50516 0.0
C117 C 0.3286 0.14648 0.40443 0.0
O118 O 0.31269 0.0679 0.49592 0.0
Zn119 Zn 0.28232 0.08728 0.45481 0.0
O120 O 0.36844 0.09158 0.48616 0.0
Zn121 Zn 0.33741 0.10576 0.45144 0.0
O122 O 0.31156 0.13618 0.48894 0.0
O123 O 0.25497 0.11114 0.48824 0.0
O124 O 0.3572 0.14097 0.41648 0.0
O125 O 0.29956 0.12788 0.41591 0.0
O126 O 0.2591 0.04585 0.42338 0.0
O127 O 0.31633 0.05837 0.41737 0.0
C128 C 0.2807 0.13586 0.50039 0.0
C129 C 0.28606 0.03843 0.40893 0.0
C130 C 0.56566 0.81871 0.04051 0.0
C131 C 0.49329 0.85199 0.94323 0.0
O132 O 0.54384 0.79194 0.02467 0.0
Zn133 Zn 0.50427 0.78173 0.98121 0.0
O134 O 0.56666 0.84956 0.02974 0.0
Zn135 Zn 0.53031 0.83621 0.9912 0.0
O136 O 0.4837 0.81899 0.0222 0.0
O137 O 0.46239 0.76175 0.00868 0.0
O138 O 0.51767 0.87242 0.96312 0.0
O139 O 0.48627 0.81844 0.9472 0.0
O140 O 0.52198 0.75253 0.94377 0.0
O141 O 0.55273 0.808 0.94886 0.0
C142 C 0.46021 0.79047 0.02637 0.0
C143 C 0.54738 0.77663 0.93325 0.0
C144 C 0.81866 0.99657 0.60179 0.0
C145 C 0.81339 0.08811 0.51483 0.0
O146 O 0.78725 0.99867 0.59462 0.0
Zn147 Zn 0.76148 0.03085 0.56245 0.0
O148 O 0.84409 0.01899 0.58871 0.0
Zn149 Zn 0.81679 0.04432 0.56051 0.0
O150 O 0.79552 0.07388 0.60289 0.0
O151 O 0.73814 0.0554 0.59874 0.0
O152 O 0.84067 0.08148 0.52905 0.0
O153 O 0.78312 0.07111 0.52481 0.0
O154 O 0.7332 0.99551 0.52818 0.0
O155 O 0.79006 0.00282 0.52018 0.0
C156 C 0.76518 0.07588 0.61417 0.0
C157 C 0.75842 0.98679 0.51109 0.0
C158 C 0.56247 0.41089 0.04173 0.0
C159 C 0.46613 0.39625 0.95049 0.0
O160 O 0.54387 0.37907 0.03728 0.0
Zn161 Zn 0.4984 0.34996 0.00675 0.0
O162 O 0.55406 0.43563 0.02461 0.0
Zn163 Zn 0.51405 0.40525 0.9969 0.0
O164 O 0.47676 0.39195 0.04053 0.0
O165 O 0.46572 0.3341 0.04585 0.0
O166 O 0.48894 0.4247 0.95947 0.0
O167 O 0.46719 0.36756 0.96607 0.0
O168 O 0.51806 0.31579 0.97837 0.0
O169 O 0.53879 0.37107 0.96298 0.0
C170 C 0.46058 0.36415 0.05654 0.0
C171 C 0.53846 0.33799 0.95884 0.0
H172 H 0.16275 0.45068 0.2495 0.0
H173 H 0.22435 0.51428 0.34033 0.0
H174 H 0.17668 0.54337 0.35404 0.0
H175 H 0.11845 0.55325 0.33735 0.0
H176 H 0.05917 0.49035 0.24451 0.0
H177 H 0.10482 0.45852 0.2347 0.0
C178 C 0.16578 0.47071 0.27252 0.0
C179 C 0.19719 0.48036 0.29369 0.0
C180 C 0.13861 0.48765 0.27981 0.0
C181 C 0.20048 0.50636 0.32347 0.0
C182 C 0.17323 0.52308 0.33129 0.0
C183 C 0.11546 0.53232 0.3153 0.0
C184 C 0.08553 0.52441 0.29155 0.0
C185 C 0.14231 0.51432 0.30926 0.0
C186 C 0.08208 0.49729 0.26295 0.0
C187 C 0.10817 0.47897 0.2573 0.0
H188 H 0.23824 0.78033 0.85112 0.0
H189 H 0.26394 0.76719 0.73433 0.0
H190 H 0.21824 0.71248 0.72722 0.0
H191 H 0.16976 0.66927 0.75341 0.0
H192 H 0.14357 0.68236 0.87004 0.0
H193 H 0.19068 0.73601 0.87786 0.0
C194 C 0.23399 0.76542 0.82416 0.0
C195 C 0.2545 0.77802 0.7933 0.0
C196 C 0.20746 0.73395 0.82015 0.0
C197 C 0.24856 0.75826 0.75858 0.0
C198 C 0.22237 0.72692 0.75443 0.0
C199 C 0.17439 0.68374 0.78061 0.0
C200 C 0.153 0.67176 0.81103 0.0
C201 C 0.20147 0.71467 0.78492 0.0
C202 C 0.15954 0.69091 0.84608 0.0
C203 C 0.18649 0.72166 0.8506 0.0
H204 H 0.84976 0.68939 0.36207 0.0
H205 H 0.86612 0.72385 0.24892 0.0
H206 H 0.91321 0.69333 0.24154 0.0
H207 H 0.94763 0.65452 0.26563 0.0
H208 H 0.93406 0.62121 0.3792 0.0
H209 H 0.88823 0.65401 0.38828 0.0
C210 C 0.86378 0.69032 0.33589 0.0
C211 C 0.85418 0.7086 0.30594 0.0
C212 C 0.89126 0.67297 0.33194 0.0
C213 C 0.87288 0.70996 0.27238 0.0
C214 C 0.89979 0.69245 0.26808 0.0
C215 C 0.93476 0.65456 0.29248 0.0
C216 C 0.94382 0.63517 0.32158 0.0
C217 C 0.90885 0.67353 0.29744 0.0
C218 C 0.92746 0.63598 0.35642 0.0
C219 C 0.90118 0.65455 0.36149 0.0
H220 H 0.88787 0.43166 0.86387 0.0
H221 H 0.89053 0.38744 0.75028 0.0
H222 H 0.94222 0.43416 0.73818 0.0
H223 H 0.98645 0.48785 0.75973 0.0
H224 H 0.98347 0.53166 0.87347 0.0
H225 H 0.93208 0.4848 0.88548 0.0
C226 C 0.89973 0.43212 0.83644 0.0
C227 C 0.88523 0.406 0.80804 0.0
C228 C 0.92939 0.45907 0.82964 0.0
C229 C 0.90108 0.40714 0.7727 0.0
C230 C 0.93065 0.4339 0.76572 0.0
C231 C 0.97456 0.4872 0.78715 0.0
C232 C 0.98886 0.51335 0.81561 0.0
C233 C 0.94497 0.46006 0.79396 0.0
C234 C 0.9731 0.51195 0.851 0.0
C235 C 0.94367 0.48512 0.85793 0.0
H236 H 0.34699 0.29714 0.33996 0.0
H237 H 0.23564 0.25847 0.32196 0.0
H238 H 0.23874 0.20076 0.34382 0.0
H239 H 0.27246 0.16263 0.37142 0.0
H240 H 0.38399 0.20086 0.38878 0.0
H241 H 0.38154 0.25715 0.36285 0.0
C242 C 0.32341 0.27606 0.34085 0.0
C243 C 0.29104 0.28219 0.3299 0.0
C244 C 0.32546 0.24282 0.35297 0.0
C245 C 0.26082 0.25447 0.33049 0.0
C246 C 0.26258 0.22146 0.34292 0.0
C247 C 0.29636 0.18305 0.36905 0.0
C248 C 0.32832 0.17758 0.38231 0.0
C249 C 0.29469 0.21549 0.35461 0.0
C250 C 0.35903 0.20428 0.37875 0.0
C251 C 0.35761 0.23662 0.36422 0.0
H252 H 0.38394 0.88852 0.83077 0.0
H253 H 0.42957 0.99401 0.87838 0.0
H254 H 0.47056 0.97124 0.91579 0.0
H255 H 0.49197 0.92116 0.93708 0.0
H256 H 0.4451 0.81526 0.89116 0.0
H257 H 0.40585 0.83834 0.85151 0.0
C258 C 0.40231 0.9064 0.84986 0.0
C259 C 0.40307 0.94277 0.85234 0.0
C260 C 0.42573 0.89309 0.8716 0.0
C261 C 0.42826 0.96581 0.87602 0.0
C262 C 0.45172 0.95284 0.89752 0.0
C263 C 0.47338 0.90315 0.91818 0.0
C264 C 0.47149 0.86656 0.9172 0.0
C265 C 0.45053 0.9165 0.89577 0.0
C266 C 0.4471 0.84358 0.89261 0.0
C267 C 0.42456 0.85673 0.86991 0.0
H268 H 0.70831 0.8657 0.38364 0.0
H269 H 0.81257 0.85208 0.40304 0.0
H270 H 0.82328 0.9008 0.45129 0.0
H271 H 0.80332 0.94766 0.48726 0.0
H272 H 0.69833 0.95978 0.46977 0.0
H273 H 0.68762 0.91116 0.42126 0.0
C274 C 0.73339 0.87336 0.39842 0.0
C275 C 0.75968 0.8554 0.38959 0.0
C276 C 0.73926 0.90116 0.42631 0.0
C277 C 0.79188 0.86541 0.40931 0.0
C278 C 0.79806 0.89334 0.43681 0.0
C279 C 0.77814 0.93977 0.4727 0.0
C280 C 0.75174 0.95747 0.4818 0.0
C281 C 0.77201 0.9115 0.44537 0.0
C282 C 0.71906 0.94658 0.46319 0.0
C283 C 0.71295 0.91883 0.43547 0.0
H284 H 0.67307 0.29683 0.89769 0.0
H285 H 0.67145 0.38401 0.82806 0.0
H286 H 0.61435 0.38703 0.85181 0.0
H287 H 0.56856 0.37005 0.89803 0.0
H288 H 0.56916 0.28276 0.96753 0.0
H289 H 0.62255 0.27415 0.93762 0.0
C290 C 0.65998 0.31614 0.88734 0.0
C291 C 0.67684 0.34059 0.86168 0.0
C292 C 0.627 0.3178 0.90116 0.0
C293 C 0.65928 0.36507 0.84806 0.0
C294 C 0.62661 0.36691 0.86169 0.0
C295 C 0.58001 0.34867 0.90606 0.0
C296 C 0.56526 0.32734 0.93517 0.0
C297 C 0.61078 0.34416 0.88907 0.0
C298 C 0.58002 0.29947 0.94508 0.0
C299 C 0.61074 0.29477 0.92824 0.0
H300 H 0.39445 0.052 0.66872 0.0
H301 H 0.29232 0.9802 0.66787 0.0
H302 H 0.28473 0.98829 0.60108 0.0
H303 H 0.30422 0.02107 0.54511 0.0
H304 H 0.40647 0.09263 0.54563 0.0
H305 H 0.41714 0.07876 0.61011 0.0
C306 C 0.37073 0.03776 0.65378 0.0
C307 C 0.34377 0.01599 0.67337 0.0
C308 C 0.3665 0.04257 0.61536 0.0
C309 C 0.31341 0.99729 0.65353 0.0
C310 C 0.30898 0.00198 0.61534 0.0
C311 C 0.32909 0.03318 0.5591 0.0
C312 C 0.35429 0.05823 0.54078 0.0
C313 C 0.33492 0.02536 0.59628 0.0
C314 C 0.38656 0.07332 0.5591 0.0
C315 C 0.3926 0.0656 0.5961 0.0
H316 H 0.6481 0.77081 0.17314 0.0
H317 H 0.6958 0.88312 0.18248 0.0
H318 H 0.66117 0.89216 0.12845 0.0
H319 H 0.61565 0.86863 0.0799 0.0
H320 H 0.56775 0.75633 0.07093 0.0
H321 H 0.60411 0.747 0.12327 0.0
C322 C 0.65111 0.79724 0.16322 0.0
C323 C 0.67444 0.82622 0.182 0.0
C324 C 0.63091 0.80236 0.13222 0.0
C325 C 0.67798 0.86029 0.16868 0.0
C326 C 0.65813 0.86554 0.13777 0.0
C327 C 0.61324 0.8421 0.08929 0.0
C328 C 0.58884 0.81331 0.07153 0.0
C329 C 0.63422 0.83684 0.11957 0.0
C330 C 0.5862 0.77907 0.08406 0.0
C331 C 0.60701 0.77365 0.11406 0.0
H332 H 0.73625 0.20544 0.71237 0.0
H333 H 0.83977 0.20817 0.75489 0.0
H334 H 0.84119 0.1553 0.71506 0.0
H335 H 0.81412 0.11004 0.66598 0.0
H336 H 0.70941 0.10528 0.6257 0.0
H337 H 0.7071 0.15688 0.66722 0.0
C338 C 0.75906 0.19436 0.71292 0.0
C339 C 0.78803 0.21086 0.73614 0.0
C340 C 0.75942 0.16357 0.69049 0.0
C341 C 0.81719 0.19595 0.73715 0.0
C342 C 0.81804 0.16577 0.71436 0.0
C343 C 0.79068 0.12012 0.66656 0.0
C344 C 0.76209 0.10406 0.64263 0.0
C345 C 0.78945 0.14959 0.69065 0.0
C346 C 0.73173 0.11712 0.64395 0.0
C347 C 0.73048 0.14676 0.6675 0.0
H348 H 0.35335 0.35418 0.18874 0.0
H349 H 0.37779 0.46757 0.17841 0.0
H350 H 0.4173 0.46169 0.12719 0.0
H351 H 0.44519 0.42455 0.08581 0.0
H352 H 0.42107 0.31122 0.09639 0.0
H353 H 0.38107 0.31701 0.14718 0.0
C354 C 0.36723 0.37767 0.17529 0.0
C355 C 0.36254 0.41129 0.18748 0.0
C356 C 0.38999 0.37413 0.14595 0.0
C357 C 0.38085 0.44137 0.16967 0.0
C358 C 0.40348 0.43804 0.14036 0.0
C359 C 0.4312 0.40105 0.09916 0.0
C360 C 0.43619 0.36748 0.08726 0.0
C361 C 0.4083 0.40457 0.12836 0.0
C362 C 0.41779 0.33738 0.10496 0.0
C363 C 0.39489 0.34067 0.13401 0.0
H364 H 0.93863 0.68478 0.63969 0.0
H365 H 0.90277 0.70426 0.75139 0.0
H366 H 0.94809 0.67927 0.77847 0.0
H367 H 0.99567 0.64887 0.7703 0.0
H368 H 0.03028 0.62754 0.65848 0.0
H369 H 0.98777 0.65643 0.63167 0.0
C370 C 0.94093 0.68389 0.66999 0.0
C371 C 0.91725 0.69628 0.69345 0.0
C372 C 0.96671 0.66898 0.68537 0.0
C373 C 0.92055 0.6948 0.73265 0.0
C374 C 0.94645 0.68047 0.74818 0.0
C375 C 0.99416 0.65079 0.74007 0.0
C376 C 0.01607 0.63591 0.71646 0.0
C377 C 0.96933 0.66701 0.72478 0.0
C378 C 0.01365 0.63861 0.67734 0.0
C379 C 0.98933 0.65512 0.66195 0.0
H380 H 0.85709 0.37873 0.32886 0.0
H381 H 0.8016 0.38063 0.22446 0.0
H382 H 0.84707 0.4314 0.20634 0.0
H383 H 0.90147 0.47736 0.2221 0.0
H384 H 0.95575 0.47426 0.3273 0.0
H385 H 0.91229 0.42158 0.34277 0.0
C386 C 0.85508 0.39002 0.30195 0.0
C387 C 0.82556 0.37662 0.27853 0.0
C388 C 0.88121 0.41904 0.29183 0.0
C389 C 0.82339 0.3914 0.24368 0.0
C390 C 0.8496 0.42018 0.23313 0.0
C391 C 0.90389 0.46489 0.24819 0.0
C392 C 0.93164 0.47995 0.27362 0.0
C393 C 0.87837 0.43465 0.25732 0.0
C394 C 0.93445 0.46351 0.30737 0.0
C395 C 0.90962 0.43331 0.31629 0.0
H396 H 0.17081 0.40475 0.8046 0.0
H397 H 0.20532 0.41427 0.69008 0.0
H398 H 0.18095 0.46617 0.68485 0.0
H399 H 0.14841 0.50787 0.7124 0.0
H400 H 0.11612 0.49948 0.82786 0.0
H401 H 0.14135 0.44835 0.83321 0.0
C402 C 0.17295 0.41817 0.77848 0.0
C403 C 0.18951 0.40551 0.74765 0.0
C404 C 0.1594 0.44828 0.77589 0.0
C405 C 0.1926 0.42348 0.71419 0.0
C406 C 0.17866 0.45313 0.71118 0.0
C407 C 0.14707 0.49497 0.73879 0.0
C408 C 0.13025 0.5074 0.76961 0.0
C409 C 0.16183 0.46565 0.74179 0.0
C410 C 0.12899 0.49055 0.80371 0.0
C411 C 0.14327 0.46118 0.80677 0.0
H412 H 0.14107 0.77012 0.20793 0.0
H413 H 0.12545 0.73065 0.09186 0.0
H414 H 0.08363 0.67751 0.11069 0.0
H415 H 0.05403 0.64063 0.16083 0.0
H416 H 0.07217 0.68045 0.27676 0.0
H417 H 0.1104 0.73487 0.25717 0.0
C418 C 0.12828 0.75012 0.18664 0.0
C419 C 0.13648 0.75433 0.14858 0.0
C420 C 0.10488 0.71942 0.19767 0.0
C421 C 0.11968 0.72804 0.12141 0.0
C422 C 0.09582 0.69757 0.13216 0.0
C423 C 0.06623 0.66131 0.18173 0.0
C424 C 0.06042 0.65624 0.22019 0.0
C425 C 0.08865 0.69269 0.17031 0.0
C426 C 0.07641 0.68336 0.24695 0.0
C427 C 0.09825 0.71464 0.23582 0.0
H428 H 0.86257 0.85944 0.64968 0.0
H429 H 0.75161 0.82678 0.66752 0.0
H430 H 0.74526 0.88601 0.65536 0.0
H431 H 0.76999 0.94492 0.6329 0.0
H432 H 0.88055 0.97733 0.61208 0.0
H433 H 0.88831 0.92063 0.63249 0.0
C434 C 0.8371 0.86551 0.65144 0.0
C435 C 0.8077 0.83884 0.66013 0.0
C436 C 0.83351 0.89954 0.64355 0.0
C437 C 0.77485 0.847 0.66217 0.0
C438 C 0.77111 0.88082 0.65466 0.0
C439 C 0.79592 0.93989 0.63338 0.0
C440 C 0.82457 0.96529 0.62058 0.0
C441 C 0.80011 0.90702 0.6445 0.0
C442 C 0.85799 0.95829 0.62167 0.0
C443 C 0.86244 0.92575 0.63313 0.0
H444 H 0.67971 0.43677 0.16804 0.0
H445 H 0.70338 0.34722 0.10547 0.0
H446 H 0.6592 0.34926 0.0581 0.0
H447 H 0.61003 0.37231 0.03768 0.0
H448 H 0.58621 0.46259 0.09779 0.0
H449 H 0.63458 0.46484 0.14274 0.0
C450 C 0.67545 0.418 0.1438 0.0
C451 C 0.69448 0.39152 0.14067 0.0
C452 C 0.64993 0.41937 0.11637 0.0
C453 C 0.689 0.36771 0.10881 0.0
C454 C 0.66365 0.36877 0.08168 0.0
C455 C 0.61584 0.39281 0.06035 0.0
C456 C 0.59465 0.41703 0.06489 0.0
C457 C 0.64343 0.39385 0.0857 0.0
C458 C 0.60241 0.44377 0.09389 0.0
C459 C 0.62984 0.44484 0.11964 0.0
H460 H 0.24785 0.24228 0.62834 0.0
H461 H 0.34877 0.30234 0.59447 0.0
H462 H 0.3508 0.25686 0.54548 0.0
H463 H 0.32594 0.19909 0.51439 0.0
H464 H 0.22521 0.13778 0.54658 0.0
H465 H 0.22096 0.18489 0.5939 0.0
C466 C 0.27012 0.24553 0.61001 0.0
C467 C 0.29825 0.27564 0.61536 0.0
C468 C 0.27127 0.21903 0.58174 0.0
C469 C 0.32684 0.27946 0.59124 0.0
C470 C 0.32809 0.2534 0.56317 0.0
C471 C 0.30295 0.19592 0.53169 0.0
C472 C 0.27611 0.16476 0.5273 0.0
C473 C 0.30077 0.2229 0.55859 0.0
C474 C 0.24628 0.16147 0.5495 0.0
C475 C 0.24391 0.18835 0.5766 0.0
H476 H 0.32821 0.77685 0.12944 0.0
H477 H 0.34201 0.88582 0.10143 0.0
H478 H 0.39385 0.88217 0.06547 0.0
H479 H 0.43413 0.84773 0.04084 0.0
H480 H 0.418 0.73731 0.06395 0.0
H481 H 0.3679 0.74163 0.10297 0.0
C482 C 0.34281 0.79985 0.11571 0.0
C483 C 0.33162 0.83169 0.11831 0.0
C484 C 0.3719 0.79718 0.09411 0.0
C485 C 0.35024 0.8611 0.09983 0.0
C486 C 0.37981 0.85901 0.07929 0.0
C487 C 0.4198 0.82463 0.05462 0.0
C488 C 0.42988 0.79231 0.04988 0.0
C489 C 0.39071 0.82714 0.07608 0.0
C490 C 0.41068 0.76245 0.06725 0.0
C491 C 0.38214 0.76497 0.08958 0.0
H492 H 0.82545 0.22814 0.42991 0.0
H493 H 0.74097 0.15944 0.36446 0.0
H494 H 0.74671 0.10919 0.4002 0.0
H495 H 0.77229 0.086 0.4536 0.0
H496 H 0.85914 0.15307 0.51679 0.0
H497 H 0.85633 0.20273 0.47815 0.0
C498 C 0.80861 0.20205 0.42327 0.0
C499 C 0.78253 0.19755 0.39496 0.0
C500 C 0.81243 0.1731 0.44356 0.0
C501 C 0.7612 0.16357 0.38617 0.0
C502 C 0.76436 0.13485 0.40668 0.0
C503 C 0.7909 0.1114 0.45848 0.0
C504 C 0.81565 0.11616 0.48808 0.0
C505 C 0.78936 0.1395 0.43594 0.0
C506 C 0.83994 0.1489 0.49401 0.0
C507 C 0.83816 0.1773 0.47212 0.0
H508 H 0.36786 0.39842 0.81021 0.0
H509 H 0.30172 0.31378 0.86839 0.0
H510 H 0.34454 0.32291 0.91988 0.0
H511 H 0.4021 0.35214 0.94662 0.0
H512 H 0.46809 0.43818 0.89066 0.0
H513 H 0.42384 0.43156 0.84019 0.0
C514 C 0.36275 0.38216 0.83429 0.0
C515 C 0.33177 0.35519 0.83521 0.0
C516 C 0.38745 0.38772 0.86411 0.0
C517 C 0.32532 0.33466 0.86684 0.0
C518 C 0.34985 0.33977 0.89631 0.0
C519 C 0.40672 0.36959 0.92346 0.0
C520 C 0.43842 0.39529 0.92202 0.0
C521 C 0.3812 0.36578 0.89492 0.0
C522 C 0.44385 0.41816 0.89229 0.0
C523 C 0.41864 0.41426 0.86339 0.0
H524 H 0.29776 0.90323 0.30796 0.0
H525 H 0.20015 0.91672 0.26277 0.0
H526 H 0.20276 0.96766 0.30718 0.0
H527 H 0.23304 0.00861 0.35905 0.0
H528 H 0.33294 0.99769 0.40036 0.0
H529 H 0.3292 0.94557 0.35752 0.0
C530 C 0.27706 0.91732 0.30788 0.0
C531 C 0.24872 0.90612 0.28228 0.0
C532 C 0.27914 0.94705 0.33289 0.0
C533 C 0.2223 0.92489 0.28216 0.0
C534 C 0.22372 0.95395 0.30762 0.0
C535 C 0.25385 0.99466 0.3587 0.0
C536 C 0.28309 0.00678 0.38297 0.0
C537 C 0.252 0.96526 0.33317 0.0
C538 C 0.31019 0.98886 0.38188 0.0
C539 C 0.30805 0.95905 0.35743 0.0
H540 H 0.63616 0.7246 0.80396 0.0
H541 H 0.68633 0.83645 0.81059 0.0
H542 H 0.64709 0.84674 0.86024 0.0
H543 H 0.59918 0.82437 0.90193 0.0
H544 H 0.54798 0.71289 0.89599 0.0
H545 H 0.58709 0.70212 0.84581 0.0
C546 C 0.63848 0.75123 0.81623 0.0
C547 C 0.66425 0.77969 0.80353 0.0
C548 C 0.61573 0.75705 0.8449 0.0
C549 C 0.66681 0.81403 0.81974 0.0
C550 C 0.64438 0.81997 0.8482 0.0
C551 C 0.59649 0.79763 0.8898 0.0
C552 C 0.57071 0.76945 0.90285 0.0
C553 C 0.61887 0.7917 0.86103 0.0
C554 C 0.5676 0.73506 0.88653 0.0
C555 C 0.58996 0.7289 0.85784 0.0
loop_
_geom_bond_atom_site_label_1
_geom_bond_atom_site_label_2
_geom_bond_distance
_geom_bond_site_symmetry_2
_ccdc_geom_bond_type
O0 Cd1 2.300 . S
O0 C7 1.275 . S
Cd1 O0 2.300 . S
Cd1 O9 2.381 . S
Cd1 O10 2.378 . S
O2 Cd3 2.385 . S
O2 C7 1.255 . S
Cd3 O2 2.385 . S
Cd3 O4 2.317 . S
O4 Cd3 2.317 . S
O4 C5 1.232 . S
C5 O4 1.232 . S
C5 O6 1.218 . S
O6 C5 1.218 . S
C7 O0 1.275 . S
C7 O2 1.255 . S
C8 O9 1.258 . S
C8 O10 1.256 . S
O9 Cd1 2.381 . S
O9 C8 1.258 . S
O10 Cd1 2.378 . S
O10 C8 1.256 . S
O11 Cd12 2.300 . S
O11 C18 1.275 . S
Cd12 O11 2.300 . S
Cd12 O20 2.381 . S
Cd12 O21 2.378 . S
O13 Cd14 2.385 . S
O13 C18 1.255 . S
Cd14 O13 2.385 . S
Cd14 O15 2.317 . S
O15 Cd14 2.317 . S
O15 C16 1.232 . S
C16 O15 1.232 . S
C16 O17 1.218 . S
O17 C16 1.218 . S
C18 O11 1.275 . S
C18 O13 1.255 . S
C19 O20 1.258 . S
C19 O21 1.256 . S
O20 Cd12 2.381 . S
O20 C19 1.258 . S
O21 Cd12 2.378 . S
O21 C19 1.256 . S
O22 Cd23 2.300 . S
O22 C29 1.275 . S
Cd23 O22 2.300 . S
Cd23 O31 2.381 . S
Cd23 O32 2.378 . S
O24 Cd25 2.385 . S
O24 C29 1.255 . S
Cd25 O24 2.385 . S
Cd25 O26 2.317 . S
O26 Cd25 2.317 . S
O26 C27 1.232 . S
C27 O26 1.232 . S
C27 O28 1.218 . S
O28 C27 1.218 . S
C29 O22 1.275 . S
C29 O24 1.255 . S
C30 O31 1.258 . S
C30 O32 1.256 . S
O31 Cd23 2.381 . S
O31 C30 1.258 . S
O32 Cd23 2.378 . S
O32 C30 1.256 . S
O33 Cd34 2.300 . S
O33 C40 1.275 . S
Cd34 O33 2.300 . S
Cd34 O42 2.381 . S
Cd34 O43 2.378 . S
O35 Cd36 2.385 . S
O35 C40 1.255 . S
Cd36 O35 2.385 . S
Cd36 O37 2.317 . S
O37 Cd36 2.317 . S
O37 C38 1.232 . S
C38 O37 1.232 . S
C38 O39 1.218 . S
O39 C38 1.218 . S
C40 O33 1.275 . S
C40 O35 1.255 . S
C41 O42 1.258 . S
C41 O43 1.256 . S
O42 Cd34 2.381 . S
O42 C41 1.258 . S
O43 Cd34 2.378 . S
O43 C41 1.256 . S
O44 Cd45 2.300 . S
O44 C51 1.275 . S
Cd45 O44 2.300 . S
Cd45 O53 2.381 . S
Cd45 O54 2.378 . S
O46 Cd47 2.385 . S
O46 C51 1.255 . S
Cd47 O46 2.385 . S
Cd47 O48 2.317 . S
O48 Cd47 2.317 . S
O48 C49 1.232 . S
C49 O48 1.232 . S
C49 O50 1.218 . S
O50 C49 1.218 . S
C51 O44 1.275 . S
C51 O46 1.255 . S
C52 O53 1.258 . S
C52 O54 1.256 . S
O53 Cd45 2.381 . S
O53 C52 1.258 . S
O54 Cd45 2.378 . S
O54 C52 1.256 . S
O55 Cd56 2.300 . S
O55 C62 1.275 . S
Cd56 O55 2.300 . S
Cd56 O64 2.381 . S
Cd56 O65 2.378 . S
O57 Cd58 2.385 . S
O57 C62 1.255 . S
Cd58 O57 2.385 . S
Cd58 O59 2.317 . S
O59 Cd58 2.317 . S
O59 C60 1.232 . S
C60 O59 1.232 . S
C60 O61 1.218 . S
O61 C60 1.218 . S
C62 O55 1.275 . S
C62 O57 1.255 . S
C63 O64 1.258 . S
C63 O65 1.256 . S
O64 Cd56 2.381 . S
O64 C63 1.258 . S
O65 Cd56 2.378 . S
O65 C63 1.256 . S
O66 Cd67 2.300 . S
O66 C73 1.275 . S
Cd67 O66 2.300 . S
Cd67 O75 2.381 . S
Cd67 O76 2.378 . S
O68 Cd69 2.385 . S
O68 C73 1.255 . S
Cd69 O68 2.385 . S
Cd69 O70 2.317 . S
O70 Cd69 2.317 . S
O70 C71 1.232 . S
C71 O70 1.232 . S
C71 O72 1.218 . S
O72 C71 1.218 . S
C73 O66 1.275 . S
C73 O68 1.255 . S
C74 O75 1.258 . S
C74 O76 1.256 . S
O75 Cd67 2.381 . S
O75 C74 1.258 . S
O76 Cd67 2.378 . S
O76 C74 1.256 . S
O77 Cd78 2.300 . S
O77 C84 1.275 . S
Cd78 O77 2.300 . S
Cd78 O86 2.381 . S
Cd78 O87 2.378 . S
O79 Cd80 2.385 . S
O79 C84 1.255 . S
Cd80 O79 2.385 . S
Cd80 O81 2.317 . S
O81 Cd80 2.317 . S
O81 C82 1.232 . S
C82 O81 1.232 . S
C82 O83 1.218 . S
O83 C82 1.218 . S
C84 O77 1.275 . S
C84 O79 1.255 . S
C85 O86 1.258 . S
C85 O87 1.256 . S
O86 Cd78 2.381 . S
O86 C85 1.258 . S
O87 Cd78 2.378 . S
O87 C85 1.256 . S
C88 O90 1.247 . S
C88 O92 1.271 . S
C89 O96 1.247 . S
C89 O97 1.258 . S
O90 C88 1.247 . S
O90 Zn91 2.028 1_655 S
Zn91 O90 2.028 1_455 S
Zn91 O95 2.035 . S
Zn91 O97 2.035 . S
Zn91 O98 2.028 1_455 S
O92 C88 1.271 . S
O92 Zn93 2.016 1_655 S
Zn93 O92 2.016 1_455 S
Zn93 O94 2.028 . S
Zn93 O96 2.028 . S
Zn93 O99 2.062 . S
O94 Zn93 2.028 . S
O94 C100 1.247 . S
O95 Zn91 2.035 . S
O95 C100 1.258 . S
O96 C89 1.247 . S
O96 Zn93 2.028 . S
O97 C89 1.258 . S
O97 Zn91 2.035 . S
O98 Zn91 2.028 1_655 S
O98 C101 1.247 . S
O99 Zn93 2.062 . S
O99 C101 1.244 1_455 S
C100 O94 1.247 . S
C100 O95 1.258 . S
C101 O98 1.247 . S
C101 O99 1.244 1_655 S
C102 O104 1.247 . S
C102 O106 1.258 . S
C103 O110 1.247 . S
C103 O111 1.258 . S
O104 C102 1.247 . S
O104 Zn105 2.028 1_655 S
Zn105 O104 2.028 1_455 S
Zn105 O109 2.035 . S
Zn105 O111 2.035 . S
Zn105 O112 2.028 1_455 S
O106 C102 1.258 . S
O106 Zn107 2.035 1_655 S
Zn107 O106 2.035 1_455 S
Zn107 O108 2.028 . S
Zn107 O110 2.028 . S
Zn107 O113 2.035 1_455 S
O108 Zn107 2.028 . S
O108 C114 1.247 . S
O109 Zn105 2.035 . S
O109 C114 1.258 . S
O110 C103 1.247 . S
O110 Zn107 2.028 . S
O111 C103 1.258 . S
O111 Zn105 2.035 . S
O112 Zn105 2.028 1_655 S
O112 C115 1.247 . S
O113 Zn107 2.035 1_655 S
O113 C115 1.258 . S
C114 O108 1.247 . S
C114 O109 1.258 . S
C115 O112 1.247 . S
C115 O113 1.258 . S
C116 O118 1.247 . S
C116 O120 1.258 . S
C117 O124 1.247 . S
C117 O125 1.258 . S
O118 C116 1.247 . S
O118 Zn119 2.028 . S
Zn119 O118 2.028 . S
Zn119 O123 2.035 . S
Zn119 O125 2.035 . S
Zn119 O126 2.028 . S
O120 C116 1.258 . S
O120 Zn121 2.035 . S
Zn121 O120 2.035 . S
Zn121 O122 2.028 . S
Zn121 O124 2.028 . S
Zn121 O127 2.035 . S
O122 Zn121 2.028 . S
O122 C128 1.247 . S
O123 Zn119 2.035 . S
O123 C128 1.258 . S
O124 C117 1.247 . S
O124 Zn121 2.028 . S
O125 C117 1.258 . S
O125 Zn119 2.035 . S
O126 Zn119 2.028 . S
O126 C129 1.247 . S
O127 Zn121 2.035 . S
O127 C129 1.258 . S
C128 O122 1.247 . S
C128 O123 1.258 . S
C129 O126 1.247 . S
C129 O127 1.258 . S
C130 O132 1.247 . S
C130 O134 1.258 . S
C131 O138 1.247 . S
C131 O139 1.258 . S
O132 C130 1.247 . S
O132 Zn133 2.028 . S
Zn133 O132 2.028 . S
Zn133 O137 2.035 . S
Zn133 O139 2.035 1_554 S
Zn133 O140 2.028 1_554 S
O134 C130 1.258 . S
O134 Zn135 2.035 . S
Zn135 O134 2.035 . S
Zn135 O136 2.028 . S
Zn135 O138 2.028 1_554 S
Zn135 O141 2.035 1_554 S
O136 Zn135 2.028 . S
O136 C142 1.247 . S
O137 Zn133 2.035 . S
O137 C142 1.258 . S
O138 C131 1.247 . S
O138 Zn135 2.028 1_556 S
O139 C131 1.258 . S
O139 Zn133 2.035 1_556 S
O140 Zn133 2.028 1_556 S
O140 C143 1.247 . S
O141 Zn135 2.035 1_556 S
O141 C143 1.258 . S
C142 O136 1.247 . S
C142 O137 1.258 . S
C143 O140 1.247 . S
C143 O141 1.258 . S
C144 O146 1.247 . S
C144 O148 1.258 . S
C145 O152 1.247 . S
C145 O153 1.258 . S
O146 C144 1.247 . S
O146 Zn147 2.050 . S
Zn147 O146 2.050 . S
Zn147 O151 2.014 1_565 S
Zn147 O153 2.014 1_565 S
Zn147 O154 2.049 . S
O148 C144 1.258 . S
O148 Zn149 2.035 1_565 S
Zn149 O148 2.035 1_545 S
Zn149 O150 2.028 . S
Zn149 O152 2.028 . S
Zn149 O155 2.035 1_545 S
O150 Zn149 2.028 . S
O150 C156 1.247 . S
O151 Zn147 2.014 1_545 S
O151 C156 1.258 . S
O152 C145 1.247 . S
O152 Zn149 2.028 . S
O153 C145 1.258 . S
O153 Zn147 2.014 1_545 S
O154 Zn147 2.049 . S
O154 C157 1.247 . S
O155 Zn149 2.035 1_565 S
O155 C157 1.258 . S
C156 O150 1.247 . S
C156 O151 1.258 . S
C157 O154 1.247 . S
C157 O155 1.258 . S
C158 O160 1.247 . S
C158 O162 1.258 . S
C159 O166 1.247 . S
C159 O167 1.258 . S
O160 C158 1.247 . S
O160 Zn161 2.028 . S
Zn161 O160 2.028 . S
Zn161 O165 2.035 . S
Zn161 O167 2.035 1_554 S
Zn161 O168 2.028 1_554 S
O162 C158 1.258 . S
O162 Zn163 2.035 . S
Zn163 O162 2.035 . S
Zn163 O164 2.028 . S
Zn163 O166 2.028 1_554 S
Zn163 O169 2.035 1_554 S
O164 Zn163 2.028 . S
O164 C170 1.247 . S
O165 Zn161 2.035 . S
O165 C170 1.258 . S
O166 C159 1.247 . S
O166 Zn163 2.028 1_556 S
O167 C159 1.258 . S
O167 Zn161 2.035 1_556 S
O168 Zn161 2.028 1_556 S
O168 C171 1.247 . S
O169 Zn163 2.035 1_556 S
O169 C171 1.258 . S
C170 O164 1.247 . S
C170 O165 1.258 . S
C171 O168 1.247 . S
C171 O169 1.258 . S
H172 C178 0.930 . S
H173 C181 0.930 . S
H174 C182 0.930 . S
H175 C183 0.930 . S
H176 C186 0.930 . S
H177 C187 0.930 . S
C178 H172 0.930 . S
C178 C179 1.355 . S
C178 C180 1.415 . S
C179 C178 1.355 . S
C179 C181 1.419 . S
C180 C178 1.415 . S
C180 C185 1.425 . S
C180 C187 1.409 . S
C181 H173 0.930 . S
C181 C179 1.419 . S
C181 C182 1.362 . S
C182 H174 0.930 . S
C182 C181 1.362 . S
C182 C185 1.409 . S
C183 H175 0.930 . S
C183 C184 1.355 . S
C183 C185 1.415 . S
C184 C183 1.355 . S
C184 C186 1.419 . S
C185 C180 1.425 . S
C185 C182 1.409 . S
C185 C183 1.415 . S
C186 H176 0.930 . S
C186 C184 1.419 . S
C186 C187 1.362 . S
C187 H177 0.930 . S
C187 C180 1.409 . S
C187 C186 1.362 . S
H188 C194 0.930 . S
H189 C197 0.930 . S
H190 C198 0.930 . S
H191 C199 0.930 . S
H192 C202 0.930 . S
H193 C203 0.930 . S
C194 H188 0.930 . S
C194 C195 1.355 . S
C194 C196 1.415 . S
C195 C194 1.355 . S
C195 C197 1.419 . S
C196 C194 1.415 . S
C196 C201 1.425 . S
C196 C203 1.409 . S
C197 H189 0.930 . S
C197 C195 1.419 . S
C197 C198 1.362 . S
C198 H190 0.930 . S
C198 C197 1.362 . S
C198 C201 1.409 . S
C199 H191 0.930 . S
C199 C200 1.355 . S
C199 C201 1.415 . S
C200 C199 1.355 . S
C200 C202 1.419 . S
C201 C196 1.425 . S
C201 C198 1.409 . S
C201 C199 1.415 . S
C202 H192 0.930 . S
C202 C200 1.419 . S
C202 C203 1.362 . S
C203 H193 0.930 . S
C203 C196 1.409 . S
C203 C202 1.362 . S
H204 C210 0.930 . S
H205 C213 0.930 . S
H206 C214 0.930 . S
H207 C215 0.930 . S
H208 C218 0.930 . S
H209 C219 0.930 . S
C210 H204 0.930 . S
C210 C211 1.355 . S
C210 C212 1.415 . S
C211 C210 1.355 . S
C211 C213 1.419 . S
C212 C210 1.415 . S
C212 C217 1.425 . S
C212 C219 1.409 . S
C213 H205 0.930 . S
C213 C211 1.419 . S
C213 C214 1.362 . S
C214 H206 0.930 . S
C214 C213 1.362 . S
C214 C217 1.409 . S
C215 H207 0.930 . S
C215 C216 1.355 . S
C215 C217 1.415 . S
C216 C215 1.355 . S
C216 C218 1.419 . S
C217 C212 1.425 . S
C217 C214 1.409 . S
C217 C215 1.415 . S
C218 H208 0.930 . S
C218 C216 1.419 . S
C218 C219 1.362 . S
C219 H209 0.930 . S
C219 C212 1.409 . S
C219 C218 1.362 . S
H220 C226 0.930 . S
H221 C229 0.930 . S
H222 C230 0.930 . S
H223 C231 0.930 . S
H224 C234 0.930 . S
H225 C235 0.930 . S
C226 H220 0.930 . S
C226 C227 1.355 . S
C226 C228 1.415 . S
C227 C226 1.355 . S
C227 C229 1.419 . S
C228 C226 1.415 . S
C228 C233 1.425 . S
C228 C235 1.409 . S
C229 H221 0.930 . S
C229 C227 1.419 . S
C229 C230 1.362 . S
C230 H222 0.930 . S
C230 C229 1.362 . S
C230 C233 1.409 . S
C231 H223 0.930 . S
C231 C232 1.355 . S
C231 C233 1.415 . S
C232 C231 1.355 . S
C232 C234 1.419 . S
C233 C228 1.425 . S
C233 C230 1.409 . S
C233 C231 1.415 . S
C234 H224 0.930 . S
C234 C232 1.419 . S
C234 C235 1.362 . S
C235 H225 0.930 . S
C235 C228 1.409 . S
C235 C234 1.362 . S
H236 C242 0.930 . S
H237 C245 0.930 . S
H238 C246 0.930 . S
H239 C247 0.930 . S
H240 C250 0.930 . S
H241 C251 0.930 . S
C242 H236 0.930 . S
C242 C243 1.355 . S
C242 C244 1.415 . S
C243 C242 1.355 . S
C243 C245 1.419 . S
C244 C242 1.415 . S
C244 C249 1.425 . S
C244 C251 1.409 . S
C245 H237 0.930 . S
C245 C243 1.419 . S
C245 C246 1.362 . S
C246 H238 0.930 . S
C246 C245 1.362 . S
C246 C249 1.409 . S
C247 H239 0.930 . S
C247 C248 1.355 . S
C247 C249 1.415 . S
C248 C247 1.355 . S
C248 C250 1.419 . S
C249 C244 1.425 . S
C249 C246 1.409 . S
C249 C247 1.415 . S
C250 H240 0.930 . S
C250 C248 1.419 . S
C250 C251 1.362 . S
C251 H241 0.930 . S
C251 C244 1.409 . S
C251 C250 1.362 . S
H252 C258 0.930 . S
H253 C261 0.930 . S
H254 C262 0.930 . S
H255 C263 0.930 . S
H256 C266 0.930 . S
H257 C267 0.930 . S
C258 H252 0.930 . S
C258 C259 1.355 . S
C258 C260 1.415 . S
C259 C258 1.355 . S
C259 C261 1.419 . S
C260 C258 1.415 . S
C260 C265 1.425 . S
C260 C267 1.409 . S
C261 H253 0.930 . S
C261 C259 1.419 . S
C261 C262 1.362 . S
C262 H254 0.930 . S
C262 C261 1.362 . S
C262 C265 1.409 . S
C263 H255 0.930 . S
C263 C264 1.355 . S
C263 C265 1.415 . S
C264 C263 1.355 . S
C264 C266 1.419 . S
C265 C260 1.425 . S
C265 C262 1.409 . S
C265 C263 1.415 . S
C266 H256 0.930 . S
C266 C264 1.419 . S
C266 C267 1.362 . S
C267 H257 0.930 . S
C267 C260 1.409 . S
C267 C266 1.362 . S
H268 C274 0.930 . S
H269 C277 0.930 . S
H270 C278 0.930 . S
H271 C279 0.930 . S
H272 C282 0.930 . S
H273 C283 0.930 . S
C274 H268 0.930 . S
C274 C275 1.355 . S
C274 C276 1.415 . S
C275 C274 1.355 . S
C275 C277 1.419 . S
C276 C274 1.415 . S
C276 C281 1.425 . S
C276 C283 1.409 . S
C277 H269 0.930 . S
C277 C275 1.419 . S
C277 C278 1.362 . S
C278 H270 0.930 . S
C278 C277 1.362 . S
C278 C281 1.409 . S
C279 H271 0.930 . S
C279 C280 1.355 . S
C279 C281 1.415 . S
C280 C279 1.355 . S
C280 C282 1.419 . S
C281 C276 1.425 . S
C281 C278 1.409 . S
C281 C279 1.415 . S
C282 H272 0.930 . S
C282 C280 1.419 . S
C282 C283 1.362 . S
C283 H273 0.930 . S
C283 C276 1.409 . S
C283 C282 1.362 . S
H284 C290 0.930 . S
H285 C293 0.930 . S
H286 C294 0.930 . S
H287 C295 0.930 . S
H288 C298 0.930 . S
H289 C299 0.930 . S
C290 H284 0.930 . S
C290 C291 1.355 . S
C290 C292 1.415 . S
C291 C290 1.355 . S
C291 C293 1.419 . S
C292 C290 1.415 . S
C292 C297 1.425 . S
C292 C299 1.409 . S
C293 H285 0.930 . S
C293 C291 1.419 . S
C293 C294 1.362 . S
C294 H286 0.930 . S
C294 C293 1.362 . S
C294 C297 1.409 . S
C295 H287 0.930 . S
C295 C296 1.355 . S
C295 C297 1.415 . S
C296 C295 1.355 . S
C296 C298 1.419 . S
C297 C292 1.425 . S
C297 C294 1.409 . S
C297 C295 1.415 . S
C298 H288 0.930 . S
C298 C296 1.419 . S
C298 C299 1.362 . S
C299 H289 0.930 . S
C299 C292 1.409 . S
C299 C298 1.362 . S
H300 C306 0.930 . S
H301 C309 0.930 . S
H302 C310 0.930 . S
H303 C311 0.930 . S
H304 C314 0.930 . S
H305 C315 0.930 . S
C306 H300 0.930 . S
C306 C307 1.355 1_545 S
C306 C308 1.415 . S
C307 C306 1.355 1_565 S
C307 C309 1.419 . S
C308 C306 1.415 . S
C308 C313 1.425 . S
C308 C315 1.409 . S
C309 H301 0.930 . S
C309 C307 1.419 . S
C309 C310 1.362 . S
C310 H302 0.930 . S
C310 C309 1.362 . S
C310 C313 1.409 1_565 S
C311 H303 0.930 . S
C311 C312 1.355 . S
C311 C313 1.415 . S
C312 C311 1.355 . S
C312 C314 1.419 . S
C313 C308 1.425 . S
C313 C310 1.409 1_545 S
C313 C311 1.415 . S
C314 H304 0.930 . S
C314 C312 1.419 . S
C314 C315 1.362 . S
C315 H305 0.930 . S
C315 C308 1.409 . S
C315 C314 1.362 . S
H316 C322 0.930 . S
H317 C325 0.930 . S
H318 C326 0.930 . S
H319 C327 0.930 . S
H320 C330 0.930 . S
H321 C331 0.930 . S
C322 H316 0.930 . S
C322 C323 1.355 . S
C322 C324 1.415 . S
C323 C322 1.355 . S
C323 C325 1.419 . S
C324 C322 1.415 . S
C324 C329 1.425 . S
C324 C331 1.409 . S
C325 H317 0.930 . S
C325 C323 1.419 . S
C325 C326 1.362 . S
C326 H318 0.930 . S
C326 C325 1.362 . S
C326 C329 1.409 . S
C327 H319 0.930 . S
C327 C328 1.355 . S
C327 C329 1.415 . S
C328 C327 1.355 . S
C328 C330 1.419 . S
C329 C324 1.425 . S
C329 C326 1.409 . S
C329 C327 1.415 . S
C330 H320 0.930 . S
C330 C328 1.419 . S
C330 C331 1.362 . S
C331 H321 0.930 . S
C331 C324 1.409 . S
C331 C330 1.362 . S
H332 C338 0.930 . S
H333 C341 0.930 . S
H334 C342 0.930 . S
H335 C343 0.930 . S
H336 C346 0.930 . S
H337 C347 0.930 . S
C338 H332 0.930 . S
C338 C339 1.355 . S
C338 C340 1.415 . S
C339 C338 1.355 . S
C339 C341 1.419 . S
C340 C338 1.415 . S
C340 C345 1.425 . S
C340 C347 1.409 . S
C341 H333 0.930 . S
C341 C339 1.419 . S
C341 C342 1.362 . S
C342 H334 0.930 . S
C342 C341 1.362 . S
C342 C345 1.409 . S
C343 H335 0.930 . S
C343 C344 1.355 . S
C343 C345 1.415 . S
C344 C343 1.355 . S
C344 C346 1.419 . S
C345 C340 1.425 . S
C345 C342 1.409 . S
C345 C343 1.415 . S
C346 H336 0.930 . S
C346 C344 1.419 . S
C346 C347 1.362 . S
C347 H337 0.930 . S
C347 C340 1.409 . S
C347 C346 1.362 . S
H348 C354 0.930 . S
H349 C357 0.930 . S
H350 C358 0.930 . S
H351 C359 0.930 . S
H352 C362 0.930 . S
H353 C363 0.930 . S
C354 H348 0.930 . S
C354 C355 1.355 . S
C354 C356 1.415 . S
C355 C354 1.355 . S
C355 C357 1.419 . S
C356 C354 1.415 . S
C356 C361 1.425 . S
C356 C363 1.409 . S
C357 H349 0.930 . S
C357 C355 1.419 . S
C357 C358 1.362 . S
C358 H350 0.930 . S
C358 C357 1.362 . S
C358 C361 1.409 . S
C359 H351 0.930 . S
C359 C360 1.355 . S
C359 C361 1.415 . S
C360 C359 1.355 . S
C360 C362 1.419 . S
C361 C356 1.425 . S
C361 C358 1.409 . S
C361 C359 1.415 . S
C362 H352 0.930 . S
C362 C360 1.419 . S
C362 C363 1.362 . S
C363 H353 0.930 . S
C363 C356 1.409 . S
C363 C362 1.362 . S
H364 C370 0.930 . S
H365 C373 0.930 . S
H366 C374 0.930 . S
H367 C375 0.930 . S
H368 C378 0.930 . S
H369 C379 0.930 . S
C370 H364 0.930 . S
C370 C371 1.355 . S
C370 C372 1.415 . S
C371 C370 1.355 . S
C371 C373 1.419 . S
C372 C370 1.415 . S
C372 C377 1.425 . S
C372 C379 1.409 . S
C373 H365 0.930 . S
C373 C371 1.419 . S
C373 C374 1.362 . S
C374 H366 0.930 . S
C374 C373 1.362 . S
C374 C377 1.409 . S
C375 H367 0.930 . S
C375 C376 1.355 . S
C375 C377 1.415 . S
C376 C375 1.355 . S
C376 C378 1.419 . S
C377 C372 1.425 . S
C377 C374 1.409 . S
C377 C375 1.415 . S
C378 H368 0.930 . S
C378 C376 1.419 . S
C378 C379 1.362 . S
C379 H369 0.930 . S
C379 C372 1.409 . S
C379 C378 1.362 . S
H380 C386 0.930 . S
H381 C389 0.930 . S
H382 C390 0.930 . S
H383 C391 0.930 . S
H384 C394 0.930 . S
H385 C395 0.930 . S
C386 H380 0.930 . S
C386 C387 1.355 . S
C386 C388 1.415 . S
C387 C386 1.355 . S
C387 C389 1.419 . S
C388 C386 1.415 . S
C388 C393 1.425 . S
C388 C395 1.409 . S
C389 H381 0.930 . S
C389 C387 1.419 . S
C389 C390 1.362 . S
C390 H382 0.930 . S
C390 C389 1.362 . S
C390 C393 1.409 . S
C391 H383 0.930 . S
C391 C392 1.355 . S
C391 C393 1.415 . S
C392 C391 1.355 . S
C392 C394 1.419 . S
C393 C388 1.425 . S
C393 C390 1.409 . S
C393 C391 1.415 . S
C394 H384 0.930 . S
C394 C392 1.419 . S
C394 C395 1.362 . S
C395 H385 0.930 . S
C395 C388 1.409 . S
C395 C394 1.362 . S
H396 C402 0.930 . S
H397 C405 0.930 . S
H398 C406 0.930 . S
H399 C407 0.930 . S
H400 C410 0.930 . S
H401 C411 0.930 . S
C402 H396 0.930 . S
C402 C403 1.355 . S
C402 C404 1.415 . S
C403 C402 1.355 . S
C403 C405 1.419 . S
C404 C402 1.415 . S
C404 C409 1.425 . S
C404 C411 1.409 . S
C405 H397 0.930 . S
C405 C403 1.419 . S
C405 C406 1.362 . S
C406 H398 0.930 . S
C406 C405 1.362 . S
C406 C409 1.409 . S
C407 H399 0.930 . S
C407 C408 1.355 . S
C407 C409 1.415 . S
C408 C407 1.355 . S
C408 C410 1.419 . S
C409 C404 1.425 . S
C409 C406 1.409 . S
C409 C407 1.415 . S
C410 H400 0.930 . S
C410 C408 1.419 . S
C410 C411 1.362 . S
C411 H401 0.930 . S
C411 C404 1.409 . S
C411 C410 1.362 . S
H412 C418 0.930 . S
H413 C421 0.930 . S
H414 C422 0.930 . S
H415 C423 0.930 . S
H416 C426 0.930 . S
H417 C427 0.930 . S
C418 H412 0.930 . S
C418 C419 1.355 . S
C418 C420 1.415 . S
C419 C418 1.355 . S
C419 C421 1.419 . S
C420 C418 1.415 . S
C420 C425 1.425 . S
C420 C427 1.409 . S
C421 H413 0.930 . S
C421 C419 1.419 . S
C421 C422 1.362 . S
C422 H414 0.930 . S
C422 C421 1.362 . S
C422 C425 1.409 . S
C423 H415 0.930 . S
C423 C424 1.355 . S
C423 C425 1.415 . S
C424 C423 1.355 . S
C424 C426 1.419 . S
C425 C420 1.425 . S
C425 C422 1.409 . S
C425 C423 1.415 . S
C426 H416 0.930 . S
C426 C424 1.419 . S
C426 C427 1.362 . S
C427 H417 0.930 . S
C427 C420 1.409 . S
C427 C426 1.362 . S
H428 C434 0.930 . S
H429 C437 0.930 . S
H430 C438 0.930 . S
H431 C439 0.930 . S
H432 C442 0.930 . S
H433 C443 0.930 . S
C434 H428 0.930 . S
C434 C435 1.355 . S
C434 C436 1.415 . S
C435 C434 1.355 . S
C435 C437 1.419 . S
C436 C434 1.415 . S
C436 C441 1.425 . S
C436 C443 1.409 . S
C437 H429 0.930 . S
C437 C435 1.419 . S
C437 C438 1.362 . S
C438 H430 0.930 . S
C438 C437 1.362 . S
C438 C441 1.409 . S
C439 H431 0.930 . S
C439 C440 1.355 . S
C439 C441 1.415 . S
C440 C439 1.355 . S
C440 C442 1.419 . S
C441 C436 1.425 . S
C441 C438 1.409 . S
C441 C439 1.415 . S
C442 H432 0.930 . S
C442 C440 1.419 . S
C442 C443 1.362 . S
C443 H433 0.930 . S
C443 C436 1.409 . S
C443 C442 1.362 . S
H444 C450 0.930 . S
H445 C453 0.930 . S
H446 C454 0.930 . S
H447 C455 0.930 . S
H448 C458 0.930 . S
H449 C459 0.930 . S
C450 H444 0.930 . S
C450 C451 1.355 . S
C450 C452 1.415 . S
C451 C450 1.355 . S
C451 C453 1.419 . S
C452 C450 1.415 . S
C452 C457 1.425 . S
C452 C459 1.409 . S
C453 H445 0.930 . S
C453 C451 1.419 . S
C453 C454 1.362 . S
C454 H446 0.930 . S
C454 C453 1.362 . S
C454 C457 1.409 . S
C455 H447 0.930 . S
C455 C456 1.355 . S
C455 C457 1.415 . S
C456 C455 1.355 . S
C456 C458 1.419 . S
C457 C452 1.425 . S
C457 C454 1.409 . S
C457 C455 1.415 . S
C458 H448 0.930 . S
C458 C456 1.419 . S
C458 C459 1.362 . S
C459 H449 0.930 . S
C459 C452 1.409 . S
C459 C458 1.362 . S
H460 C466 0.930 . S
H461 C469 0.930 . S
H462 C470 0.930 . S
H463 C471 0.930 . S
H464 C474 0.930 . S
H465 C475 0.930 . S
C466 H460 0.930 . S
C466 C467 1.355 . S
C466 C468 1.415 . S
C467 C466 1.355 . S
C467 C469 1.419 . S
C468 C466 1.415 . S
C468 C473 1.425 . S
C468 C475 1.409 . S
C469 H461 0.930 . S
C469 C467 1.419 . S
C469 C470 1.362 . S
C470 H462 0.930 . S
C470 C469 1.362 . S
C470 C473 1.409 . S
C471 H463 0.930 . S
C471 C472 1.355 . S
C471 C473 1.415 . S
C472 C471 1.355 . S
C472 C474 1.419 . S
C473 C468 1.425 . S
C473 C470 1.409 . S
C473 C471 1.415 . S
C474 H464 0.930 . S
C474 C472 1.419 . S
C474 C475 1.362 . S
C475 H465 0.930 . S
C475 C468 1.409 . S
C475 C474 1.362 . S
H476 C482 0.930 . S
H477 C485 0.930 . S
H478 C486 0.930 . S
H479 C487 0.930 . S
H480 C490 0.930 . S
H481 C491 0.930 . S
C482 H476 0.930 . S
C482 C483 1.355 . S
C482 C484 1.415 . S
C483 C482 1.355 . S
C483 C485 1.419 . S
C484 C482 1.415 . S
C484 C489 1.425 . S
C484 C491 1.409 . S
C485 H477 0.930 . S
C485 C483 1.419 . S
C485 C486 1.362 . S
C486 H478 0.930 . S
C486 C485 1.362 . S
C486 C489 1.409 . S
C487 H479 0.930 . S
C487 C488 1.355 . S
C487 C489 1.415 . S
C488 C487 1.355 . S
C488 C490 1.419 . S
C489 C484 1.425 . S
C489 C486 1.409 . S
C489 C487 1.415 . S
C490 H480 0.930 . S
C490 C488 1.419 . S
C490 C491 1.362 . S
C491 H481 0.930 . S
C491 C484 1.409 . S
C491 C490 1.362 . S
H492 C498 0.930 . S
H493 C501 0.930 . S
H494 C502 0.930 . S
H495 C503 0.930 . S
H496 C506 0.930 . S
H497 C507 0.930 . S
C498 H492 0.930 . S
C498 C499 1.355 . S
C498 C500 1.415 . S
C499 C498 1.355 . S
C499 C501 1.419 . S
C500 C498 1.415 . S
C500 C505 1.425 . S
C500 C507 1.409 . S
C501 H493 0.930 . S
C501 C499 1.419 . S
C501 C502 1.362 . S
C502 H494 0.930 . S
C502 C501 1.362 . S
C502 C505 1.409 . S
C503 H495 0.930 . S
C503 C504 1.355 . S
C503 C505 1.415 . S
C504 C503 1.355 . S
C504 C506 1.419 . S
C505 C500 1.425 . S
C505 C502 1.409 . S
C505 C503 1.415 . S
C506 H496 0.930 . S
C506 C504 1.419 . S
C506 C507 1.362 . S
C507 H497 0.930 . S
C507 C500 1.409 . S
C507 C506 1.362 . S
H508 C514 0.930 . S
H509 C517 0.930 . S
H510 C518 0.930 . S
H511 C519 0.930 . S
H512 C522 0.930 . S
H513 C523 0.930 . S
C514 H508 0.930 . S
C514 C515 1.355 . S
C514 C516 1.415 . S
C515 C514 1.355 . S
C515 C517 1.419 . S
C516 C514 1.415 . S
C516 C521 1.425 . S
C516 C523 1.409 . S
C517 H509 0.930 . S
C517 C515 1.419 . S
C517 C518 1.362 . S
C518 H510 0.930 . S
C518 C517 1.362 . S
C518 C521 1.409 . S
C519 H511 0.930 . S
C519 C520 1.355 . S
C519 C521 1.415 . S
C520 C519 1.355 . S
C520 C522 1.419 . S
C521 C516 1.425 . S
C521 C518 1.409 . S
C521 C519 1.415 . S
C522 H512 0.930 . S
C522 C520 1.419 . S
C522 C523 1.362 . S
C523 H513 0.930 . S
C523 C516 1.409 . S
C523 C522 1.362 . S
H524 C530 0.930 . S
H525 C533 0.930 . S
H526 C534 0.930 . S
H527 C535 0.930 . S
H528 C538 0.930 . S
H529 C539 0.930 . S
C530 H524 0.930 . S
C530 C531 1.355 . S
C530 C532 1.415 1_565 S
C531 C530 1.355 . S
C531 C533 1.419 . S
C532 C530 1.415 1_545 S
C532 C537 1.425 . S
C532 C539 1.409 . S
C533 H525 0.930 . S
C533 C531 1.419 . S
C533 C534 1.362 . S
C534 H526 0.930 . S
C534 C533 1.362 . S
C534 C537 1.409 1_565 S
C535 H527 0.930 . S
C535 C536 1.355 . S
C535 C537 1.415 . S
C536 C535 1.355 . S
C536 C538 1.419 . S
C537 C532 1.425 . S
C537 C534 1.409 1_545 S
C537 C535 1.415 . S
C538 H528 0.930 . S
C538 C536 1.419 . S
C538 C539 1.362 . S
C539 H529 0.930 . S
C539 C532 1.409 . S
C539 C538 1.362 . S
H540 C546 0.930 . S
H541 C549 0.930 . S
H542 C550 0.930 . S
H543 C551 0.930 . S
H544 C554 0.930 . S
H545 C555 0.930 . S
C546 H540 0.930 . S
C546 C547 1.355 . S
C546 C548 1.415 . S
C547 C546 1.355 . S
C547 C549 1.419 . S
C548 C546 1.415 . S
C548 C553 1.425 . S
C548 C555 1.409 . S
C549 H541 0.930 . S
C549 C547 1.419 . S
C549 C550 1.362 . S
C550 H542 0.930 . S
C550 C549 1.362 . S
C550 C553 1.409 . S
C551 H543 0.930 . S
C551 C552 1.355 . S
C551 C553 1.415 . S
C552 C551 1.355 . S
C552 C554 1.419 . S
C553 C548 1.425 . S
C553 C550 1.409 . S
C553 C551 1.415 . S
C554 H544 0.930 . S
C554 C552 1.419 . S
C554 C555 1.362 . S
C555 H545 0.930 . S
C555 C548 1.409 . S
C555 C554 1.362 . S
C184 C100 1.647 . S
C179 C5 1.453 . S
C200 C103 1.461 . S
C195 C16 1.298 . S
C216 C101 1.723 . S
C211 C30 1.736 . S
C232 C102 1.580 . S
C227 C40 1.531 . S
C248 C117 1.452 . S
C243 C8 1.450 . S
C264 C131 1.379 . S
C259 C18 1.287 . S
C275 C29 1.666 . S
C280 C157 1.702 . S
C296 C171 1.554 . S
C291 C38 1.424 . S
C312 C116 1.436 . S
C307 C19 1.419 . S
C323 C27 1.488 . S
C328 C130 1.562 . S
C344 C156 1.529 . S
C339 C41 1.500 . S
C360 C170 1.626 . S
C355 C7 1.530 . S
C371 C52 1.544 . S
C376 C115 1.602 . S
C392 C88 1.680 . S
C387 C62 1.679 . S
C403 C74 1.405 . S
C408 C114 1.410 . S
C419 C82 1.235 . S
C424 C89 1.459 . S
C440 C144 1.790 . S
C435 C51 1.713 . S
C456 C158 1.665 . S
C451 C60 1.446 . S
C472 C128 1.442 . S
C467 C71 1.260 . S
C483 C84 1.388 . S
C488 C142 1.429 . S
C504 C145 1.646 . S
C499 C63 1.645 . S
C520 C159 1.504 . S
C515 C73 1.495 . S
C536 C129 1.495 . S
C531 C85 1.511 . S
C547 C49 1.250 . S
C552 C143 1.579 . S
