# Generated by pormake.
# Topology iac, (4,6)-cn, num edge types: 1
# Building blocks:
#     Node 0, Type 0, BuildingBlock: CEKHIL_clean_sbu_0, # of connection points: 4
#     Node 1, Type 0, BuildingBlock: CEKHIL_clean_sbu_0, # of connection points: 4
#     Node 2, Type 0, BuildingBlock: CEKHIL_clean_sbu_0, # of connection points: 4
#     Node 3, Type 0, BuildingBlock: CEKHIL_clean_sbu_0, # of connection points: 4
#     Node 4, Type 0, BuildingBlock: CEKHIL_clean_sbu_0, # of connection points: 4
#     Node 5, Type 0, BuildingBlock: CEKHIL_clean_sbu_0, # of connection points: 4
#     Node 6, Type 0, BuildingBlock: CEKHIL_clean_sbu_0, # of connection points: 4
#     Node 7, Type 0, BuildingBlock: CEKHIL_clean_sbu_0, # of connection points: 4
#     Node 8, Type 0, BuildingBlock: CEKHIL_clean_sbu_0, # of connection points: 4
#     Node 9, Type 0, BuildingBlock: CEKHIL_clean_sbu_0, # of connection points: 4
#     Node 10, Type 0, BuildingBlock: CEKHIL_clean_sbu_0, # of connection points: 4
#     Node 11, Type 0, BuildingBlock: CEKHIL_clean_sbu_0, # of connection points: 4
#     Node 12, Type 0, BuildingBlock: CEKHIL_clean_sbu_0, # of connection points: 4
#     Node 13, Type 0, BuildingBlock: CEKHIL_clean_sbu_0, # of connection points: 4
#     Node 14, Type 0, BuildingBlock: CEKHIL_clean_sbu_0, # of connection points: 4
#     Node 15, Type 0, BuildingBlock: CEKHIL_clean_sbu_0, # of connection points: 4
#     Node 16, Type 0, BuildingBlock: CEKHIL_clean_sbu_0, # of connection points: 4
#     Node 17, Type 0, BuildingBlock: CEKHIL_clean_sbu_0, # of connection points: 4
#     Node 18, Type 0, BuildingBlock: CEKHIL_clean_sbu_0, # of connection points: 4
#     Node 19, Type 0, BuildingBlock: CEKHIL_clean_sbu_0, # of connection points: 4
#     Node 20, Type 0, BuildingBlock: CEKHIL_clean_sbu_0, # of connection points: 4
#     Node 21, Type 0, BuildingBlock: CEKHIL_clean_sbu_0, # of connection points: 4
#     Node 22, Type 0, BuildingBlock: CEKHIL_clean_sbu_0, # of connection points: 4
#     Node 23, Type 0, BuildingBlock: CEKHIL_clean_sbu_0, # of connection points: 4
#     Node 24, Type 1, BuildingBlock: FUNLAD_clean_sbu_0, # of connection points: 6
#     Node 25, Type 1, BuildingBlock: FUNLAD_clean_sbu_0, # of connection points: 6
#     Node 26, Type 1, BuildingBlock: FUNLAD_clean_sbu_0, # of connection points: 6
#     Node 27, Type 1, BuildingBlock: FUNLAD_clean_sbu_0, # of connection points: 6
#     Node 28, Type 1, BuildingBlock: FUNLAD_clean_sbu_0, # of connection points: 6
#     Node 29, Type 1, BuildingBlock: FUNLAD_clean_sbu_0, # of connection points: 6
#     Node 30, Type 1, BuildingBlock: FUNLAD_clean_sbu_0, # of connection points: 6
#     Node 31, Type 1, BuildingBlock: FUNLAD_clean_sbu_0, # of connection points: 6
#     Node 32, Type 1, BuildingBlock: FUNLAD_clean_sbu_0, # of connection points: 6
#     Node 33, Type 1, BuildingBlock: FUNLAD_clean_sbu_0, # of connection points: 6
#     Node 34, Type 1, BuildingBlock: FUNLAD_clean_sbu_0, # of connection points: 6
#     Node 35, Type 1, BuildingBlock: FUNLAD_clean_sbu_0, # of connection points: 6
#     Node 36, Type 1, BuildingBlock: FUNLAD_clean_sbu_0, # of connection points: 6
#     Node 37, Type 1, BuildingBlock: FUNLAD_clean_sbu_0, # of connection points: 6
#     Node 38, Type 1, BuildingBlock: FUNLAD_clean_sbu_0, # of connection points: 6
#     Node 39, Type 1, BuildingBlock: FUNLAD_clean_sbu_0, # of connection points: 6
#     Edge 40, Type (0, 1), BuildingBlock: UVAHIK_clean_linker_0, # of connection points: 2
#     Edge 41, Type (0, 1), BuildingBlock: UVAHIK_clean_linker_0, # of connection points: 2
#     Edge 42, Type (0, 1), BuildingBlock: UVAHIK_clean_linker_0, # of connection points: 2
#     Edge 43, Type (0, 1), BuildingBlock: UVAHIK_clean_linker_0, # of connection points: 2
#     Edge 44, Type (0, 1), BuildingBlock: UVAHIK_clean_linker_0, # of connection points: 2
#     Edge 45, Type (0, 1), BuildingBlock: UVAHIK_clean_linker_0, # of connection points: 2
#     Edge 46, Type (0, 1), BuildingBlock: UVAHIK_clean_linker_0, # of connection points: 2
#     Edge 47, Type (0, 1), BuildingBlock: UVAHIK_clean_linker_0, # of connection points: 2
#     Edge 48, Type (0, 1), BuildingBlock: UVAHIK_clean_linker_0, # of connection points: 2
#     Edge 49, Type (0, 1), BuildingBlock: UVAHIK_clean_linker_0, # of connection points: 2
#     Edge 50, Type (0, 1), BuildingBlock: UVAHIK_clean_linker_0, # of connection points: 2
#     Edge 51, Type (0, 1), BuildingBlock: UVAHIK_clean_linker_0, # of connection points: 2
#     Edge 52, Type (0, 1), BuildingBlock: UVAHIK_clean_linker_0, # of connection points: 2
#     Edge 53, Type (0, 1), BuildingBlock: UVAHIK_clean_linker_0, # of connection points: 2
#     Edge 54, Type (0, 1), BuildingBlock: UVAHIK_clean_linker_0, # of connection points: 2
#     Edge 55, Type (0, 1), BuildingBlock: UVAHIK_clean_linker_0, # of connection points: 2
#     Edge 56, Type (0, 1), BuildingBlock: UVAHIK_clean_linker_0, # of connection points: 2
#     Edge 57, Type (0, 1), BuildingBlock: UVAHIK_clean_linker_0, # of connection points: 2
#     Edge 58, Type (0, 1), BuildingBlock: UVAHIK_clean_linker_0, # of connection points: 2
#     Edge 59, Type (0, 1), BuildingBlock: UVAHIK_clean_linker_0, # of connection points: 2
#     Edge 60, Type (0, 1), BuildingBlock: UVAHIK_clean_linker_0, # of connection points: 2
#     Edge 61, Type (0, 1), BuildingBlock: UVAHIK_clean_linker_0, # of connection points: 2
#     Edge 62, Type (0, 1), BuildingBlock: UVAHIK_clean_linker_0, # of connection points: 2
#     Edge 63, Type (0, 1), BuildingBlock: UVAHIK_clean_linker_0, # of connection points: 2
#     Edge 64, Type (0, 1), BuildingBlock: UVAHIK_clean_linker_0, # of connection points: 2
#     Edge 65, Type (0, 1), BuildingBlock: UVAHIK_clean_linker_0, # of connection points: 2
#     Edge 66, Type (0, 1), BuildingBlock: UVAHIK_clean_linker_0, # of connection points: 2
#     Edge 67, Type (0, 1), BuildingBlock: UVAHIK_clean_linker_0, # of connection points: 2
#     Edge 68, Type (0, 1), BuildingBlock: UVAHIK_clean_linker_0, # of connection points: 2
#     Edge 69, Type (0, 1), BuildingBlock: UVAHIK_clean_linker_0, # of connection points: 2
#     Edge 70, Type (0, 1), BuildingBlock: UVAHIK_clean_linker_0, # of connection points: 2
#     Edge 71, Type (0, 1), BuildingBlock: UVAHIK_clean_linker_0, # of connection points: 2
#     Edge 72, Type (0, 1), BuildingBlock: UVAHIK_clean_linker_0, # of connection points: 2
#     Edge 73, Type (0, 1), BuildingBlock: UVAHIK_clean_linker_0, # of connection points: 2
#     Edge 74, Type (0, 1), BuildingBlock: UVAHIK_clean_linker_0, # of connection points: 2
#     Edge 75, Type (0, 1), BuildingBlock: UVAHIK_clean_linker_0, # of connection points: 2
#     Edge 76, Type (0, 1), BuildingBlock: UVAHIK_clean_linker_0, # of connection points: 2
#     Edge 77, Type (0, 1), BuildingBlock: UVAHIK_clean_linker_0, # of connection points: 2
#     Edge 78, Type (0, 1), BuildingBlock: UVAHIK_clean_linker_0, # of connection points: 2
#     Edge 79, Type (0, 1), BuildingBlock: UVAHIK_clean_linker_0, # of connection points: 2
#     Edge 80, Type (0, 1), BuildingBlock: UVAHIK_clean_linker_0, # of connection points: 2
#     Edge 81, Type (0, 1), BuildingBlock: UVAHIK_clean_linker_0, # of connection points: 2
#     Edge 82, Type (0, 1), BuildingBlock: UVAHIK_clean_linker_0, # of connection points: 2
#     Edge 83, Type (0, 1), BuildingBlock: UVAHIK_clean_linker_0, # of connection points: 2
#     Edge 84, Type (0, 1), BuildingBlock: UVAHIK_clean_linker_0, # of connection points: 2
#     Edge 85, Type (0, 1), BuildingBlock: UVAHIK_clean_linker_0, # of connection points: 2
#     Edge 86, Type (0, 1), BuildingBlock: UVAHIK_clean_linker_0, # of connection points: 2
#     Edge 87, Type (0, 1), BuildingBlock: UVAHIK_clean_linker_0, # of connection points: 2
#     Edge 88, Type (0, 1), BuildingBlock: UVAHIK_clean_linker_0, # of connection points: 2
#     Edge 89, Type (0, 1), BuildingBlock: UVAHIK_clean_linker_0, # of connection points: 2
#     Edge 90, Type (0, 1), BuildingBlock: UVAHIK_clean_linker_0, # of connection points: 2
#     Edge 91, Type (0, 1), BuildingBlock: UVAHIK_clean_linker_0, # of connection points: 2
#     Edge 92, Type (0, 1), BuildingBlock: UVAHIK_clean_linker_0, # of connection points: 2
#     Edge 93, Type (0, 1), BuildingBlock: UVAHIK_clean_linker_0, # of connection points: 2
#     Edge 94, Type (0, 1), BuildingBlock: UVAHIK_clean_linker_0, # of connection points: 2
#     Edge 95, Type (0, 1), BuildingBlock: UVAHIK_clean_linker_0, # of connection points: 2
#     Edge 96, Type (0, 1), BuildingBlock: UVAHIK_clean_linker_0, # of connection points: 2
#     Edge 97, Type (0, 1), BuildingBlock: UVAHIK_clean_linker_0, # of connection points: 2
#     Edge 98, Type (0, 1), BuildingBlock: UVAHIK_clean_linker_0, # of connection points: 2
#     Edge 99, Type (0, 1), BuildingBlock: UVAHIK_clean_linker_0, # of connection points: 2
#     Edge 100, Type (0, 1), BuildingBlock: UVAHIK_clean_linker_0, # of connection points: 2
#     Edge 101, Type (0, 1), BuildingBlock: UVAHIK_clean_linker_0, # of connection points: 2
#     Edge 102, Type (0, 1), BuildingBlock: UVAHIK_clean_linker_0, # of connection points: 2
#     Edge 103, Type (0, 1), BuildingBlock: UVAHIK_clean_linker_0, # of connection points: 2
#     Edge 104, Type (0, 1), BuildingBlock: UVAHIK_clean_linker_0, # of connection points: 2
#     Edge 105, Type (0, 1), BuildingBlock: UVAHIK_clean_linker_0, # of connection points: 2
#     Edge 106, Type (0, 1), BuildingBlock: UVAHIK_clean_linker_0, # of connection points: 2
#     Edge 107, Type (0, 1), BuildingBlock: UVAHIK_clean_linker_0, # of connection points: 2
#     Edge 108, Type (0, 1), BuildingBlock: UVAHIK_clean_linker_0, # of connection points: 2
#     Edge 109, Type (0, 1), BuildingBlock: UVAHIK_clean_linker_0, # of connection points: 2
#     Edge 110, Type (0, 1), BuildingBlock: UVAHIK_clean_linker_0, # of connection points: 2
#     Edge 111, Type (0, 1), BuildingBlock: UVAHIK_clean_linker_0, # of connection points: 2
#     Edge 112, Type (0, 1), BuildingBlock: UVAHIK_clean_linker_0, # of connection points: 2
#     Edge 113, Type (0, 1), BuildingBlock: UVAHIK_clean_linker_0, # of connection points: 2
#     Edge 114, Type (0, 1), BuildingBlock: UVAHIK_clean_linker_0, # of connection points: 2
#     Edge 115, Type (0, 1), BuildingBlock: UVAHIK_clean_linker_0, # of connection points: 2
#     Edge 116, Type (0, 1), BuildingBlock: UVAHIK_clean_linker_0, # of connection points: 2
#     Edge 117, Type (0, 1), BuildingBlock: UVAHIK_clean_linker_0, # of connection points: 2
#     Edge 118, Type (0, 1), BuildingBlock: UVAHIK_clean_linker_0, # of connection points: 2
#     Edge 119, Type (0, 1), BuildingBlock: UVAHIK_clean_linker_0, # of connection points: 2
#     Edge 120, Type (0, 1), BuildingBlock: UVAHIK_clean_linker_0, # of connection points: 2
#     Edge 121, Type (0, 1), BuildingBlock: UVAHIK_clean_linker_0, # of connection points: 2
#     Edge 122, Type (0, 1), BuildingBlock: UVAHIK_clean_linker_0, # of connection points: 2
#     Edge 123, Type (0, 1), BuildingBlock: UVAHIK_clean_linker_0, # of connection points: 2
#     Edge 124, Type (0, 1), BuildingBlock: UVAHIK_clean_linker_0, # of connection points: 2
#     Edge 125, Type (0, 1), BuildingBlock: UVAHIK_clean_linker_0, # of connection points: 2
#     Edge 126, Type (0, 1), BuildingBlock: UVAHIK_clean_linker_0, # of connection points: 2
#     Edge 127, Type (0, 1), BuildingBlock: UVAHIK_clean_linker_0, # of connection points: 2
#     Edge 128, Type (0, 1), BuildingBlock: UVAHIK_clean_linker_0, # of connection points: 2
#     Edge 129, Type (0, 1), BuildingBlock: UVAHIK_clean_linker_0, # of connection points: 2
#     Edge 130, Type (0, 1), BuildingBlock: UVAHIK_clean_linker_0, # of connection points: 2
#     Edge 131, Type (0, 1), BuildingBlock: UVAHIK_clean_linker_0, # of connection points: 2
#     Edge 132, Type (0, 1), BuildingBlock: UVAHIK_clean_linker_0, # of connection points: 2
#     Edge 133, Type (0, 1), BuildingBlock: UVAHIK_clean_linker_0, # of connection points: 2
#     Edge 134, Type (0, 1), BuildingBlock: UVAHIK_clean_linker_0, # of connection points: 2
#     Edge 135, Type (0, 1), BuildingBlock: UVAHIK_clean_linker_0, # of connection points: 2
# Relax obj value: 0.298
# Max RMSD: 0.267
# Mean RMSD: 0.128
data_MOF--net-iac--node1-CEKHIL_clean_sbu_0--node2-FUNLAD_clean_sbu_0--edge1-UVAHIK_clean_linker_0
_symmetry_space_group_name_H-M    P1
_symmetry_Int_Tables_number       1
_symmetry_cell_setting            triclinic
loop_
_symmetry_equiv_pos_as_xyz
'x, y, z'
_cell_length_a     70.812678
_cell_length_b     67.885335
_cell_length_c     73.294626
_cell_angle_alpha  90.014606
_cell_angle_beta   91.981272
_cell_angle_gamma 90.641999
loop_
_atom_site_label
_atom_site_type_symbol
_atom_site_fract_x
_atom_site_fract_y
_atom_site_fract_z
_atom_type_partial_charge
Co0 Co 0.01271 0.26071 0.1665 0.0
O1 O 0.98898 0.25301 0.17595 0.0
O2 O 0.01592 0.23716 0.18116 0.0
C3 C 0.01122 0.29282 0.17289 0.0
O4 O 0.03993 0.26495 0.15926 0.0
Co5 Co 0.01373 0.28903 0.13327 0.0
O6 O 0.04109 0.29072 0.14002 0.0
C7 C 0.00262 0.24771 0.12744 0.0
C8 C 0.9978 0.23823 0.18338 0.0
C9 C 0.04918 0.27793 0.15024 0.0
O10 O 0.00691 0.24416 0.14428 0.0
O11 O 0.00334 0.26493 0.12039 0.0
O12 O 0.0168 0.28053 0.18551 0.0
O13 O 0.00477 0.2851 0.15778 0.0
Co14 Co 0.02597 0.76514 0.38483 0.0
O15 O 0.05316 0.76374 0.3871 0.0
O16 O 0.03611 0.7541 0.36283 0.0
C17 C 0.02408 0.79617 0.3959 0.0
O18 O 0.99786 0.76508 0.37698 0.0
Co19 Co 0.00126 0.77151 0.41869 0.0
O20 O 0.98023 0.77423 0.40044 0.0
C21 C 0.02061 0.73372 0.41326 0.0
C22 C 0.05273 0.7565 0.37069 0.0
C23 C 0.98185 0.76957 0.38372 0.0
O24 O 0.02373 0.73812 0.39649 0.0
O25 O 0.01374 0.74589 0.42453 0.0
O26 O 0.02786 0.79341 0.37885 0.0
O27 O 0.02287 0.78044 0.40558 0.0
Co28 Co 0.51756 0.73719 0.64017 0.0
O29 O 0.49211 0.73763 0.64805 0.0
O30 O 0.51653 0.72594 0.66431 0.0
C31 C 0.51941 0.76776 0.6292 0.0
O32 O 0.5458 0.73535 0.63669 0.0
Co33 Co 0.52538 0.74022 0.59891 0.0
O34 O 0.55181 0.74488 0.60803 0.0
C35 C 0.50822 0.70426 0.61315 0.0
C36 C 0.49845 0.72909 0.66285 0.0
C37 C 0.55726 0.74077 0.62434 0.0
O38 O 0.51251 0.71044 0.62933 0.0
O39 O 0.51078 0.71466 0.59886 0.0
O40 O 0.5215 0.76468 0.64667 0.0
O41 O 0.51367 0.7528 0.61948 0.0
Co42 Co 0.53276 0.26013 0.88437 0.0
O43 O 0.56005 0.25987 0.88581 0.0
O44 O 0.54265 0.25057 0.86167 0.0
C45 C 0.52973 0.29056 0.89665 0.0
O46 O 0.50448 0.25921 0.87727 0.0
Co47 Co 0.50899 0.26338 0.91917 0.0
O48 O 0.48724 0.26606 0.90165 0.0
C49 C 0.52975 0.227 0.91159 0.0
C50 C 0.55939 0.25329 0.86917 0.0
C51 C 0.48854 0.26257 0.88465 0.0
O52 O 0.53199 0.23246 0.89493 0.0
O53 O 0.52282 0.23819 0.92366 0.0
O54 O 0.53321 0.28867 0.87943 0.0
O55 O 0.52963 0.2744 0.90583 0.0
Co56 Co 0.14725 0.98977 0.27032 0.0
O57 O 0.14874 0.96164 0.27285 0.0
O58 O 0.16939 0.98037 0.25857 0.0
C59 C 0.14056 0.99692 0.29934 0.0
O60 O 0.15086 0.01903 0.26557 0.0
Co61 Co 0.10949 0.0115 0.27618 0.0
O62 O 0.1258 0.03548 0.27547 0.0
C63 C 0.11425 0.98872 0.24253 0.0
C64 C 0.16409 0.96288 0.26368 0.0
C65 C 0.14239 0.03515 0.26924 0.0
O66 O 0.13187 0.98653 0.24683 0.0
O67 O 0.10256 0.99668 0.25318 0.0
O68 O 0.15791 0.99361 0.29505 0.0
O69 O 0.1279 0.9935 0.2866 0.0
Co70 Co 0.27531 0.90169 0.52874 0.0
O71 O 0.2489 0.89888 0.53361 0.0
O72 O 0.26586 0.92625 0.53795 0.0
C73 C 0.27376 0.88719 0.5011 0.0
O74 O 0.30251 0.9105 0.52461 0.0
Co75 Co 0.30085 0.86527 0.5229 0.0
O76 O 0.31874 0.88512 0.51358 0.0
C77 C 0.28901 0.87567 0.56001 0.0
C78 C 0.2496 0.91723 0.53862 0.0
C79 C 0.31728 0.90334 0.51736 0.0
O80 O 0.28187 0.89201 0.55425 0.0
O81 O 0.296 0.86279 0.5495 0.0
O82 O 0.26935 0.90564 0.50269 0.0
O83 O 0.27738 0.878 0.51617 0.0
Co84 Co 0.39752 0.01971 0.76493 0.0
O85 O 0.39868 0.048 0.76336 0.0
O86 O 0.37506 0.02925 0.75243 0.0
C87 C 0.40681 0.01673 0.79441 0.0
O88 O 0.39061 0.99052 0.76483 0.0
Co89 Co 0.43333 0.99471 0.77322 0.0
O90 O 0.41469 0.9733 0.77735 0.0
C91 C 0.42741 0.01251 0.73687 0.0
C92 C 0.38228 0.04679 0.75486 0.0
C93 C 0.3976 0.97452 0.77148 0.0
O94 O 0.41064 0.01764 0.74101 0.0
O95 O 0.43908 0.00448 0.74824 0.0
O96 O 0.38939 0.02113 0.79011 0.0
O97 O 0.41823 0.0166 0.78105 0.0
Co98 Co 0.31467 0.12481 0.00318 0.0
O99 O 0.34097 0.11865 0.00338 0.0
O100 O 0.31931 0.103 0.01936 0.0
C101 C 0.30939 0.12796 0.97309 0.0
O102 O 0.28632 0.12637 0.00577 0.0
Co103 Co 0.30082 0.16581 0.99019 0.0
O104 O 0.27539 0.15329 0.99114 0.0
C105 C 0.32147 0.16241 0.02526 0.0
C106 C 0.33691 0.10509 0.01519 0.0
C107 C 0.27272 0.13697 -0.0007 0.0
O108 O 0.31982 0.1436 0.024 0.0
O109 O 0.31607 0.17414 0.0125 0.0
O110 O 0.31001 0.11052 0.98042 0.0
O111 O 0.31469 0.1424 0.98367 0.0
Co112 Co 0.7726 0.39007 0.02617 0.0
O113 O 0.7457 0.38747 0.02793 0.0
O114 O 0.76219 0.41451 0.03484 0.0
C115 C 0.77426 0.37629 -0.00164 0.0
O116 O 0.80037 0.39838 0.02512 0.0
Co117 Co 0.79768 0.35274 0.02269 0.0
O118 O 0.81729 0.37232 0.01642 0.0
C119 C 0.7834 0.36404 0.05861 0.0
C120 C 0.74579 0.40568 0.0333 0.0
C121 C 0.81586 0.3906 0.02 0.0
O122 O 0.77641 0.38007 0.05199 0.0
O123 O 0.79117 0.35091 0.04893 0.0
O124 O 0.76972 0.39471 -0.00016 0.0
O125 O 0.77578 0.36665 0.01346 0.0
Co126 Co 0.89739 0.51367 0.26172 0.0
O127 O 0.89812 0.54198 0.25952 0.0
O128 O 0.87274 0.52308 0.25452 0.0
C129 C 0.91371 0.51153 0.28849 0.0
O130 O 0.89037 0.48462 0.2636 0.0
Co131 Co 0.93321 0.48767 0.26264 0.0
O132 O 0.91593 0.46702 0.27179 0.0
C133 C 0.91939 0.50519 0.22782 0.0
C134 C 0.88021 0.54064 0.25506 0.0
C135 C 0.89812 0.46864 0.26939 0.0
O136 O 0.9043 0.51111 0.23533 0.0
O137 O 0.93294 0.49671 0.23664 0.0
O138 O 0.89581 0.51571 0.28821 0.0
O139 O 0.92134 0.51063 0.27278 0.0
Co140 Co 0.8117 0.59633 0.50033 0.0
O141 O 0.83697 0.58707 0.50311 0.0
O142 O 0.81262 0.57566 0.51847 0.0
C143 C 0.80972 0.59671 0.46984 0.0
O144 O 0.78365 0.60195 0.50041 0.0
Co145 Co 0.80414 0.63702 0.48235 0.0
O146 O 0.77714 0.62879 0.48337 0.0
C147 C 0.82227 0.63503 0.51882 0.0
C148 C 0.8306 0.57524 0.51544 0.0
C149 C 0.77193 0.61386 0.49256 0.0
O150 O 0.81749 0.61674 0.51972 0.0
O151 O 0.81998 0.64535 0.50432 0.0
O152 O 0.80691 0.58029 0.47853 0.0
O153 O 0.8157 0.61145 0.47965 0.0
Co154 Co 0.64551 0.49237 0.76344 0.0
O155 O 0.64748 0.46492 0.76975 0.0
O156 O 0.66791 0.48161 0.7533 0.0
C157 C 0.63823 0.50357 0.79118 0.0
O158 O 0.64897 0.52061 0.75485 0.0
Co159 Co 0.60778 0.51488 0.76562 0.0
O160 O 0.62402 0.5386 0.7625 0.0
C161 C 0.61289 0.48663 0.73573 0.0
C162 C 0.66289 0.465 0.76061 0.0
C163 C 0.64064 0.53722 0.75652 0.0
O164 O 0.63044 0.4851 0.74057 0.0
O165 O 0.60116 0.49666 0.74473 0.0
O166 O 0.65572 0.50008 0.78753 0.0
O167 O 0.62579 0.49834 0.77876 0.0
Co168 Co 0.98389 0.81064 0.87785 0.0
O169 O 0.01055 0.81619 0.8795 0.0
O170 O 0.99568 0.80097 0.85631 0.0
C171 C 0.97534 0.84075 0.88706 0.0
O172 O 0.9568 0.8029 0.87093 0.0
Co173 Co 0.95856 0.81263 0.9116 0.0
O174 O 0.93723 0.80836 0.89382 0.0
C175 C 0.98472 0.77941 0.90712 0.0
C176 C 0.01137 0.80802 0.86353 0.0
C177 C 0.94019 0.80305 0.87751 0.0
O178 O 0.98786 0.78472 0.89064 0.0
O179 O 0.97502 0.78963 0.91804 0.0
O180 O 0.97938 0.83786 0.8701 0.0
O181 O 0.97765 0.82592 0.89783 0.0
Co182 Co 0.01539 0.26488 0.64912 0.0
O183 O 0.98828 0.26459 0.64666 0.0
O184 O 0.00439 0.25579 0.67166 0.0
C185 C 0.01947 0.2951 0.63688 0.0
O186 O 0.04359 0.26411 0.65656 0.0
Co187 Co 0.03918 0.26761 0.61414 0.0
O188 O 0.06012 0.27301 0.63211 0.0
C189 C 0.01949 0.23046 0.62317 0.0
C190 C 0.98803 0.25839 0.66336 0.0
C191 C 0.05922 0.269 0.64906 0.0
O192 O 0.01599 0.23705 0.63919 0.0
O193 O 0.02696 0.24105 0.61082 0.0
O194 O 0.01548 0.29333 0.65398 0.0
O195 O 0.01915 0.27893 0.62768 0.0
Co196 Co 0.48595 0.31551 0.37368 0.0
O197 O 0.5129 0.31791 0.37486 0.0
O198 O 0.4967 0.29736 0.3566 0.0
C199 C 0.48088 0.34817 0.37277 0.0
O200 O 0.45811 0.30943 0.36849 0.0
Co201 Co 0.46223 0.33254 0.40471 0.0
O202 O 0.44031 0.32519 0.38857 0.0
C203 C 0.48278 0.29539 0.41053 0.0
C204 C 0.513 0.3046 0.36217 0.0
C205 C 0.44198 0.31421 0.37463 0.0
O206 O 0.48695 0.29508 0.39358 0.0
O207 O 0.47438 0.30982 0.41789 0.0
O208 O 0.48449 0.33873 0.3579 0.0
O209 O 0.48178 0.33794 0.38761 0.0
Co210 Co 0.50791 0.76014 0.15121 0.0
O211 O 0.48087 0.75743 0.14851 0.0
O212 O 0.49764 0.74888 0.17319 0.0
C213 C 0.50913 0.79135 0.14039 0.0
O214 O 0.5359 0.76142 0.1592 0.0
Co215 Co 0.53248 0.76809 0.11746 0.0
O216 O 0.55287 0.77313 0.13611 0.0
C217 C 0.51691 0.72804 0.12406 0.0
C218 C 0.48112 0.7506 0.16503 0.0
C219 C 0.55157 0.76763 0.15265 0.0
O220 O 0.51125 0.73316 0.13992 0.0
O221 O 0.52401 0.74026 0.1128 0.0
O222 O 0.50542 0.78817 0.15738 0.0
O223 O 0.51063 0.77581 0.13049 0.0
Co224 Co 0.89654 -0.00181 0.79649 0.0
O225 O 0.8992 0.02603 0.79224 0.0
O226 O 0.87413 0.00792 0.78395 0.0
C227 C 0.90701 -0.00031 0.82588 0.0
O228 O 0.88791 0.96974 0.799 0.0
Co229 Co 0.93014 0.97143 0.80746 0.0
O230 O 0.91104 0.95008 0.8097 0.0
C231 C 0.92449 0.98414 0.76901 0.0
C232 C 0.88218 0.0252 0.78505 0.0
C233 C 0.89399 0.95285 0.80431 0.0
O234 O 0.90855 0.99194 0.77263 0.0
O235 O 0.93569 0.97687 0.78127 0.0
O236 O 0.8895 0.00352 0.82151 0.0
O237 O 0.91775 0.99604 0.81243 0.0
Co238 Co 0.78291 0.10751 0.48566 0.0
O239 O 0.80903 0.10435 0.48066 0.0
O240 O 0.7909 0.08127 0.49267 0.0
C241 C 0.77483 0.12168 0.45882 0.0
O242 O 0.75523 0.10573 0.4921 0.0
Co243 Co 0.7666 0.15005 0.48709 0.0
O244 O 0.74214 0.13568 0.48887 0.0
C245 C 0.79028 0.13514 0.5177 0.0
C246 C 0.80739 0.08658 0.4869 0.0
C247 C 0.74091 0.11726 0.4922 0.0
O248 O 0.78956 0.11766 0.51091 0.0
O249 O 0.78401 0.15036 0.50927 0.0
O250 O 0.77591 0.10261 0.45992 0.0
O251 O 0.78033 0.13123 0.47325 0.0
Co252 Co 0.65304 0.0092 0.30239 0.0
O253 O 0.65104 0.98093 0.30161 0.0
O254 O 0.67616 -0.00162 0.29381 0.0
C255 C 0.64112 0.01279 0.33022 0.0
O256 O 0.66073 0.03804 0.3018 0.0
Co257 Co 0.61765 0.03579 0.30535 0.0
O258 O 0.63629 0.05777 0.30728 0.0
C259 C 0.6272 0.01871 0.2697 0.0
C260 C 0.66825 0.98121 0.29601 0.0
C261 C 0.65366 0.0552 0.30402 0.0
O262 O 0.64256 0.01147 0.27662 0.0
O263 O 0.61485 0.02726 0.27921 0.0
O264 O 0.65875 0.00814 0.32866 0.0
O265 O 0.63108 0.01341 0.31523 0.0
Co266 Co 0.76049 0.86642 0.99027 0.0
O267 O 0.73802 0.86421 0.00412 0.0
O268 O 0.75654 0.8907 0.00302 0.0
C269 C 0.74698 0.85351 0.96476 0.0
O270 O 0.78387 0.87514 0.97734 0.0
Co271 Co 0.78119 0.83164 0.97388 0.0
O272 O 0.79761 0.85117 0.96182 0.0
C273 C 0.7867 0.84072 0.01321 0.0
C274 C 0.74113 0.88251 0.00864 0.0
C275 C 0.79656 0.86911 0.96665 0.0
O276 O 0.77635 0.85604 0.01121 0.0
O277 O 0.78944 0.8285 0.00027 0.0
O278 O 0.74519 0.87206 0.96856 0.0
O279 O 0.75633 0.84303 0.97668 0.0
Co280 Co 0.27933 0.61621 0.98708 0.0
O281 O 0.30637 0.61651 0.98622 0.0
O282 O 0.28923 0.59128 0.99576 0.0
C283 C 0.27391 0.62906 0.95914 0.0
O284 O 0.25119 0.61057 0.98931 0.0
Co285 Co 0.25732 0.65593 0.98462 0.0
O286 O 0.23491 0.63817 0.98285 0.0
C287 C 0.27697 0.64442 0.01909 0.0
C288 C 0.30581 0.5986 0.99236 0.0
C289 C 0.23556 0.61986 0.98669 0.0
O290 O 0.28048 0.62725 0.01265 0.0
O291 O 0.2698 0.65836 0.00943 0.0
O292 O 0.27737 0.61038 0.96082 0.0
O293 O 0.27571 0.63932 0.97386 0.0
Co294 Co 0.15332 0.50801 0.80785 0.0
O295 O 0.15123 0.47984 0.80568 0.0
O296 O 0.17548 0.49783 0.79668 0.0
C297 C 0.1441 0.50928 0.83692 0.0
O298 O 0.16093 0.53697 0.80826 0.0
Co299 Co 0.11854 0.53399 0.81572 0.0
O300 O 0.13722 0.55593 0.81738 0.0
C301 C 0.12376 0.51838 0.77856 0.0
C302 C 0.16787 0.4805 0.79879 0.0
C303 C 0.15412 0.55385 0.81232 0.0
O304 O 0.1402 0.51178 0.78326 0.0
O305 O 0.11246 0.52585 0.78988 0.0
O306 O 0.16151 0.50518 0.83351 0.0
O307 O 0.13278 0.51104 0.82288 0.0
Co308 Co 0.2418 0.39092 0.49617 0.0
O309 O 0.22167 0.40362 0.50827 0.0
O310 O 0.24901 0.41779 0.5017 0.0
C311 C 0.22344 0.37719 0.47384 0.0
O312 O 0.26568 0.38312 0.48376 0.0
Co313 Co 0.24386 0.34553 0.49222 0.0
O314 O 0.26767 0.35048 0.47935 0.0
C315 C 0.25394 0.36457 0.5276 0.0
C316 C 0.2324 0.41928 0.50853 0.0
C317 C 0.27437 0.3679 0.47809 0.0
O318 O 0.25287 0.3817 0.52022 0.0
O319 O 0.2492 0.34863 0.51918 0.0
O320 O 0.22916 0.39538 0.47258 0.0
O321 O 0.22787 0.36833 0.48895 0.0
Co322 Co 0.39771 0.50038 0.29928 0.0
O323 O 0.39884 0.52844 0.29569 0.0
O324 O 0.37435 0.50923 0.28793 0.0
C325 C 0.40937 0.50132 0.32829 0.0
O326 O 0.39054 0.47152 0.30152 0.0
Co327 Co 0.43303 0.47514 0.30798 0.0
O328 O 0.41502 0.45278 0.31066 0.0
C329 C 0.42564 0.49009 0.27059 0.0
C330 C 0.38158 0.52688 0.28919 0.0
C331 C 0.39759 0.45486 0.30627 0.0
O332 O 0.40896 0.49555 0.27475 0.0
O333 O 0.43787 0.48364 0.28233 0.0
O334 O 0.39156 0.5045 0.32476 0.0
O335 O 0.41965 0.49879 0.31429 0.0
C336 C 0.9959 0.03246 0.00144 0.0
N337 N 0.97477 0.00667 0.04788 0.0
C338 C 0.95886 0.01597 0.04179 0.0
C339 C 0.94214 0.00525 0.03875 0.0
C340 C 0.9419 0.9849 0.04227 0.0
C341 C 0.95767 0.97653 0.05133 0.0
C342 C 0.97415 0.98774 0.05391 0.0
Zn343 Zn 0.00012 0.01743 0.03996 0.0
C344 C 0.01914 0.98578 0.01823 0.0
N345 N 0.05231 0.03662 0.01904 0.0
C346 C 0.05264 0.05387 0.00963 0.0
C347 C 0.06848 0.02678 0.02331 0.0
C348 C 0.08595 0.03465 0.01868 0.0
C349 C 0.08677 0.0527 0.00932 0.0
C350 C 0.06975 0.0621 0.00445 0.0
Zn351 Zn 0.02723 0.02628 0.02794 0.0
O352 O 0.98687 0.02641 0.01503 0.0
C353 C 0.00725 0.05851 0.04807 0.0
O354 O 0.01373 0.0343 0.00293 0.0
H355 H 0.06789 0.01304 0.03075 0.0
H356 H 0.95967 0.03107 0.03714 0.0
H357 H 0.03961 0.06149 0.00642 0.0
O358 O 0.99519 0.04512 0.05144 0.0
O359 O 0.02163 0.05438 0.03893 0.0
H360 H 0.98698 0.98062 0.05868 0.0
O361 O 0.04054 0.01742 0.05314 0.0
O362 O 0.01354 0.00827 0.06448 0.0
O363 O 0.03214 -0.00143 0.01641 0.0
O364 O 0.0051 0.98986 0.02778 0.0
C365 C 0.03139 0.01004 0.06617 0.0
H366 H 0.93032 0.01237 0.03182 0.0
H367 H 0.95789 0.961 0.05473 0.0
H368 H 0.09865 0.02697 0.02297 0.0
H369 H 0.06961 0.07582 -0.00307 0.0
C370 C 0.30066 0.74517 0.25068 0.0
N371 N 0.24821 0.725 0.22981 0.0
C372 C 0.25293 0.73397 0.21401 0.0
C373 C 0.24898 0.7248 0.19731 0.0
C374 C 0.24017 0.70616 0.19687 0.0
C375 C 0.23449 0.69773 0.2133 0.0
C376 C 0.23863 0.7075 0.22974 0.0
Zn377 Zn 0.25888 0.73643 0.25363 0.0
C378 C 0.27539 0.70427 0.27728 0.0
N379 N 0.28339 0.75897 0.30309 0.0
C380 C 0.29412 0.77568 0.30226 0.0
C381 C 0.27809 0.75143 0.31934 0.0
C382 C 0.28265 0.76144 0.33555 0.0
C383 C 0.29274 0.77937 0.33498 0.0
C384 C 0.299 0.78615 0.31812 0.0
Zn385 Zn 0.27249 0.74723 0.27944 0.0
O386 O 0.28596 0.73942 0.24165 0.0
C387 C 0.25631 0.77951 0.25565 0.0
O388 O 0.29923 0.74985 0.26736 0.0
H389 H 0.26951 0.73816 0.31965 0.0
H390 H 0.2607 0.74778 0.2144 0.0
H391 H 0.29815 0.78142 0.28917 0.0
O392 O 0.25158 0.76528 0.24514 0.0
O393 O 0.26521 0.77594 0.2706 0.0
H394 H 0.23502 0.70066 0.2425 0.0
O395 O 0.24542 0.74433 0.29137 0.0
O396 O 0.23211 0.73353 0.26578 0.0
O397 O 0.27983 0.71849 0.28792 0.0
O398 O 0.26635 0.70772 0.26237 0.0
C399 C 0.23073 0.73831 0.28245 0.0
H400 H 0.25386 0.7317 0.18499 0.0
H401 H 0.22753 0.68344 0.21349 0.0
H402 H 0.27736 0.75578 0.34823 0.0
H403 H 0.30702 0.79976 0.31713 0.0
C404 C 0.50999 0.03593 0.56274 0.0
N405 N 0.5396 0.99011 0.53905 0.0
C406 C 0.54678 0.9868 0.5562 0.0
C407 C 0.55227 0.96791 0.56147 0.0
C408 C 0.55066 0.95231 0.54885 0.0
C409 C 0.54401 0.95642 0.53099 0.0
C410 C 0.53831 0.97542 0.52643 0.0
Zn411 Zn 0.52989 0.01729 0.53217 0.0
C412 C 0.48997 0.01477 0.51713 0.0
N413 N 0.50875 0.07355 0.51731 0.0
C414 C 0.51315 0.08913 0.5284 0.0
C415 C 0.49983 0.0761 0.50077 0.0
C416 C 0.49571 0.095 0.49444 0.0
C417 C 0.50091 0.11141 0.50524 0.0
C418 C 0.50935 0.10829 0.52259 0.0
Zn419 Zn 0.51803 0.04633 0.52455 0.0
O420 O 0.51883 0.02065 0.55813 0.0
C421 C 0.55829 0.04836 0.53905 0.0
O422 O 0.50768 0.04986 0.55131 0.0
H423 H 0.49657 0.06349 0.49215 0.0
H424 H 0.54782 -0.00128 0.56599 0.0
H425 H 0.52024 0.08674 0.54151 0.0
O426 O 0.55568 0.02999 0.54117 0.0
O427 O 0.54476 0.05877 0.53271 0.0
H428 H 0.53254 0.97834 0.51287 0.0
O429 O 0.52853 0.04244 0.49781 0.0
O430 O 0.54096 0.01438 0.50637 0.0
O431 O 0.49164 0.03341 0.51638 0.0
O432 O 0.50394 0.00459 0.52281 0.0
C433 C 0.53834 0.02745 0.49424 0.0
H434 H 0.55702 0.9655 0.57547 0.0
H435 H 0.54285 0.94502 0.52067 0.0
H436 H 0.48936 0.09677 0.4809 0.0
H437 H 0.51336 0.12054 0.53142 0.0
C438 C 0.28702 0.22721 0.74798 0.0
N439 N 0.2569 0.2413 0.79373 0.0
C440 C 0.24526 0.22589 0.78902 0.0
C441 C 0.23816 0.21354 0.80238 0.0
C442 C 0.24334 0.21684 0.82078 0.0
C443 C 0.25465 0.23344 0.82531 0.0
C444 C 0.26124 0.24558 0.8115 0.0
Zn445 Zn 0.26957 0.25626 0.77341 0.0
C446 C 0.31041 0.26478 0.78186 0.0
N447 N 0.29598 0.28468 0.72925 0.0
C448 C 0.29452 0.27717 0.71206 0.0
C449 C 0.30481 0.30229 0.73274 0.0
C450 C 0.31165 0.31359 0.71846 0.0
C451 C 0.30982 0.30638 0.70058 0.0
C452 C 0.30157 0.28775 0.69746 0.0
Zn453 Zn 0.28339 0.27012 0.7499 0.0
O454 O 0.27783 0.22897 0.76245 0.0
C455 C 0.24254 0.26166 0.74156 0.0
O456 O 0.29152 0.24258 0.73919 0.0
H457 H 0.30601 0.30789 0.74654 0.0
H458 H 0.24207 0.22263 0.7748 0.0
H459 H 0.2873 0.26326 0.70957 0.0
O460 O 0.24397 0.25518 0.75778 0.0
O461 O 0.25715 0.26881 0.73425 0.0
H462 H 0.27051 0.2579 0.81493 0.0
O463 O 0.27504 0.29739 0.76096 0.0
O464 O 0.26125 0.28361 0.78415 0.0
O465 O 0.30926 0.27128 0.76559 0.0
O466 O 0.29567 0.2577 0.78897 0.0
C467 C 0.26568 0.29901 0.77534 0.0
H468 H 0.22927 0.20112 0.79826 0.0
H469 H 0.25929 0.23645 0.83927 0.0
H470 H 0.31785 0.32799 0.72125 0.0
H471 H 0.29965 0.28195 0.68374 0.0
C472 C 0.06525 0.99767 0.53866 0.0
N473 N 0.04298 0.02963 0.49425 0.0
C474 C 0.05789 0.04225 0.49692 0.0
C475 C 0.06717 0.05008 0.48201 0.0
C476 C 0.0611 0.04476 0.46421 0.0
C477 C 0.04491 0.03271 0.46192 0.0
C478 C 0.03602 0.02531 0.47719 0.0
Zn479 Zn 0.03304 0.01411 0.51578 0.0
C480 C 0.02838 0.97131 0.50603 0.0
N481 N 0.01378 0.98044 0.56058 0.0
C482 C 0.02198 0.98401 0.57732 0.0
C483 C 0.99787 0.96911 0.5586 0.0
C484 C 0.98886 0.96197 0.57396 0.0
C485 C 0.99643 0.96644 0.59144 0.0
C486 C 0.01355 0.97705 0.593 0.0
Zn487 Zn 0.02364 0.99573 0.53889 0.0
O488 O 0.06142 0.00871 0.52505 0.0
C489 C 0.02766 0.03884 0.54817 0.0
O490 O 0.05181 0.99 0.54735 0.0
H491 H 0.9916 0.96644 0.54515 0.0
H492 H 0.06319 0.04549 0.51062 0.0
H493 H 0.03451 0.99323 0.57861 0.0
O494 O 0.03237 0.03988 0.53163 0.0
O495 O 0.02372 0.02211 0.55493 0.0
H496 H 0.02418 0.01521 0.47538 0.0
O497 O 0.99564 0.00142 0.53009 0.0
O498 O 0.00455 0.01914 0.50684 0.0
O499 O 0.0234 0.96983 0.5225 0.0
O500 O 0.03333 0.98804 0.49997 0.0
C501 C 0.9914 0.0116 0.51605 0.0
H502 H 0.07942 0.05954 0.48441 0.0
H503 H 0.03983 0.02795 0.44851 0.0
H504 H 0.97576 0.9537 0.5722 0.0
H505 H 0.01974 0.98105 0.60622 0.0
C506 C 0.26567 0.7781 0.73071 0.0
N507 N 0.30522 0.74391 0.7604 0.0
C508 C 0.30837 0.73209 0.74586 0.0
C509 C 0.32587 0.72307 0.74423 0.0
C510 C 0.34021 0.72636 0.75766 0.0
C511 C 0.33646 0.73842 0.7726 0.0
C512 C 0.31879 0.74704 0.77373 0.0
Zn513 Zn 0.27972 0.75679 0.76349 0.0
C514 C 0.28469 0.79851 0.77659 0.0
N515 N 0.22714 0.78403 0.7726 0.0
C516 C 0.21295 0.78176 0.75976 0.0
C517 C 0.22415 0.79299 0.78882 0.0
C518 C 0.20611 0.79918 0.79302 0.0
C519 C 0.19098 0.79628 0.78034 0.0
C520 C 0.1947 0.78789 0.76332 0.0
Zn521 Zn 0.25267 0.77161 0.76858 0.0
O522 O 0.27909 0.76712 0.73633 0.0
C523 C 0.24766 0.7297 0.75623 0.0
O524 O 0.25242 0.78207 0.74135 0.0
H525 H 0.23564 0.79461 0.79884 0.0
H526 H 0.29735 0.72976 0.73548 0.0
H527 H 0.21566 0.77457 0.74695 0.0
O528 O 0.26556 0.73038 0.75562 0.0
O529 O 0.23883 0.74515 0.76043 0.0
H530 H 0.31593 0.7563 0.7853 0.0
O531 O 0.25328 0.76076 0.79585 0.0
O532 O 0.28006 0.74652 0.79032 0.0
O533 O 0.26677 0.79789 0.77688 0.0
O534 O 0.29355 0.78331 0.77175 0.0
C535 C 0.26686 0.74985 0.8011 0.0
H536 H 0.32833 0.71407 0.73236 0.0
H537 H 0.3471 0.74121 0.78329 0.0
H538 H 0.20393 0.80531 0.80641 0.0
H539 H 0.18355 0.78564 0.75302 0.0
C540 C 0.53761 0.97206 0.04315 0.0
N541 N 0.55851 0.02855 0.05526 0.0
C542 C 0.55069 0.02656 0.07184 0.0
C543 C 0.55991 0.03417 0.08739 0.0
C544 C 0.57747 0.04374 0.08591 0.0
C545 C 0.58491 0.04627 0.06856 0.0
C546 C 0.57506 0.03861 0.05328 0.0
Zn547 Zn 0.54606 0.01404 0.03375 0.0
C548 C 0.57509 0.99436 0.01155 0.0
N549 N 0.52092 0.98271 0.98876 0.0
C550 C 0.50531 0.9715 0.99188 0.0
C551 C 0.52651 0.98634 0.97152 0.0
C552 C 0.51549 0.97976 0.95655 0.0
C553 C 0.49859 0.96927 0.95936 0.0
C554 C 0.49393 0.96453 0.97731 0.0
Zn555 Zn 0.53388 0.99722 0.01014 0.0
O556 O 0.54426 0.98803 0.04991 0.0
C557 C 0.50487 0.01593 0.03316 0.0
O558 O 0.53226 0.97161 0.02644 0.0
H559 H 0.53896 0.9953 0.96936 0.0
H560 H 0.53765 0.01833 0.07314 0.0
H561 H 0.50109 0.96882 0.00571 0.0
O562 O 0.51928 0.02217 0.04225 0.0
O563 O 0.50705 0.00572 0.0189 0.0
H564 H 0.58097 0.04005 0.03994 0.0
O565 O 0.53563 0.02338 0.99401 0.0
O566 O 0.54756 0.03981 0.01753 0.0
O567 O 0.56082 0.98845 0.00198 0.0
O568 O 0.57274 0.00542 0.02523 0.0
C569 C 0.54204 0.03943 0.00084 0.0
H570 H 0.55386 0.0316 0.10056 0.0
H571 H 0.59842 0.0536 0.06692 0.0
H572 H 0.51956 0.98399 0.94298 0.0
H573 H 0.4812 0.95623 0.9801 0.0
C574 C 0.23659 0.22222 0.25188 0.0
N575 N 0.28262 0.24578 0.22407 0.0
C576 C 0.28912 0.22705 0.223 0.0
C577 C 0.30109 0.22177 0.2091 0.0
C578 C 0.30668 0.23601 0.19635 0.0
C579 C 0.30033 0.2554 0.19833 0.0
C580 C 0.28807 0.25989 0.21212 0.0
Zn581 Zn 0.26422 0.2535 0.24352 0.0
C582 C 0.22992 0.27233 0.22723 0.0
N583 N 0.22633 0.27174 0.2839 0.0
C584 C 0.22423 0.26048 0.29904 0.0
C585 C 0.21688 0.28895 0.28162 0.0
C586 C 0.20523 0.29576 0.29516 0.0
C587 C 0.20363 0.28503 0.31144 0.0
C588 C 0.21303 0.26693 0.3131 0.0
Zn589 Zn 0.24468 0.2634 0.26462 0.0
O590 O 0.25034 0.22571 0.2416 0.0
C591 C 0.27931 0.24508 0.2808 0.0
O592 O 0.23143 0.23546 0.26284 0.0
H593 H 0.21873 0.29772 0.26949 0.0
H594 H 0.28472 0.21608 0.23272 0.0
H595 H 0.23175 0.24677 0.30051 0.0
O596 O 0.28283 0.24272 0.26406 0.0
O597 O 0.26393 0.25309 0.28502 0.0
H598 H 0.2827 0.27468 0.2131 0.0
O599 O 0.25815 0.29127 0.26651 0.0
O600 O 0.27807 0.28128 0.24635 0.0
O601 O 0.22611 0.27371 0.24397 0.0
O602 O 0.24534 0.26451 0.22284 0.0
C603 C 0.27271 0.29444 0.25728 0.0
H604 H 0.30535 0.20657 0.20804 0.0
H605 H 0.30453 0.26701 0.18914 0.0
H606 H 0.198 0.30958 0.29306 0.0
H607 H 0.21251 0.25824 0.32545 0.0
C608 C 0.56322 0.49361 0.03099 0.0
N609 N 0.53933 0.52701 0.98872 0.0
C610 C 0.55442 0.53949 0.99079 0.0
C611 C 0.5631 0.54726 0.97553 0.0
C612 C 0.55637 0.54192 0.95794 0.0
C613 C 0.54008 0.52991 0.95627 0.0
C614 C 0.53171 0.52266 0.9719 0.0
Zn615 Zn 0.53017 0.51211 0.01102 0.0
C616 C 0.52213 0.46938 0.00199 0.0
N617 N 0.51295 0.4801 0.05802 0.0
C618 C 0.52443 0.48104 0.07327 0.0
C619 C 0.49492 0.47305 0.05883 0.0
C620 C 0.48727 0.4685 0.07567 0.0
C621 C 0.49841 0.47078 0.09181 0.0
C622 C 0.51755 0.47605 0.09026 0.0
Zn623 Zn 0.52176 0.49433 0.03504 0.0
O624 O 0.5585 0.50468 0.01768 0.0
C625 C 0.52948 0.53701 0.04403 0.0
O626 O 0.55047 0.48678 0.0411 0.0
H627 H 0.48601 0.47217 0.04658 0.0
H628 H 0.56031 0.54273 0.00428 0.0
H629 H 0.53865 0.48685 0.07254 0.0
O630 O 0.53281 0.53793 0.02713 0.0
O631 O 0.5249 0.52054 0.05092 0.0
H632 H 0.5197 0.51272 0.97056 0.0
O633 O 0.49341 0.50228 0.02827 0.0
O634 O 0.50178 0.51944 0.00446 0.0
O635 O 0.51855 0.46836 0.01888 0.0
O636 O 0.52724 0.48581 0.99531 0.0
C637 C 0.48891 0.51303 0.01465 0.0
H638 H 0.5754 0.55675 0.97752 0.0
H639 H 0.53446 0.52516 0.94305 0.0
H640 H 0.47245 0.4645 0.07601 0.0
H641 H 0.52697 0.47734 0.10215 0.0
C642 C 0.77125 0.27811 0.23481 0.0
N643 N 0.80954 0.24123 0.2638 0.0
C644 C 0.81318 0.2302 0.24885 0.0
C645 C 0.83031 0.22033 0.2478 0.0
C646 C 0.84384 0.22199 0.26221 0.0
C647 C 0.83975 0.23355 0.2774 0.0
C648 C 0.82241 0.24301 0.27795 0.0
Zn649 Zn 0.7838 0.25386 0.26653 0.0
C650 C 0.78747 0.29407 0.28309 0.0
N651 N 0.73013 0.27934 0.27445 0.0
C652 C 0.71647 0.27749 0.26103 0.0
C653 C 0.72619 0.28652 0.29118 0.0
C654 C 0.70767 0.29101 0.29532 0.0
C655 C 0.69305 0.28821 0.28207 0.0
C656 C 0.69774 0.28194 0.26454 0.0
Zn657 Zn 0.7561 0.26776 0.27084 0.0
O658 O 0.78466 0.26693 0.24019 0.0
C659 C 0.75246 0.22747 0.25464 0.0
O660 O 0.75737 0.28077 0.24501 0.0
H661 H 0.73726 0.28779 0.30167 0.0
H662 H 0.80271 0.22892 0.2378 0.0
H663 H 0.71994 0.2717 0.24783 0.0
O664 O 0.77038 0.22835 0.25562 0.0
O665 O 0.74306 0.24226 0.25954 0.0
H666 H 0.81914 0.25159 0.28984 0.0
O667 O 0.75494 0.25431 0.29671 0.0
O668 O 0.78247 0.24098 0.29262 0.0
O669 O 0.76952 0.29322 0.2822 0.0
O670 O 0.79686 0.27948 0.27767 0.0
C671 C 0.7682 0.24324 0.30236 0.0
H672 H 0.83309 0.21178 0.23573 0.0
H673 H 0.84979 0.23511 0.28881 0.0
H674 H 0.70477 0.29553 0.3091 0.0
H675 H 0.68698 0.27987 0.25383 0.0
C676 C 0.04551 0.47788 0.54253 0.0
N677 N 0.04687 0.53588 0.56148 0.0
C678 C 0.03864 0.52851 0.57655 0.0
C679 C 0.04438 0.53511 0.59386 0.0
C680 C 0.05891 0.54927 0.59571 0.0
C681 C 0.06644 0.55746 0.57992 0.0
C682 C 0.06008 0.55058 0.56279 0.0
Zn683 Zn 0.04151 0.52164 0.53736 0.0
C684 C 0.07702 0.51642 0.51726 0.0
N685 N 0.03143 0.49001 0.48778 0.0
C686 C 0.01868 0.47485 0.48734 0.0
C687 C 0.03847 0.49748 0.47218 0.0
C688 C 0.03164 0.4907 0.45522 0.0
C689 C 0.01736 0.47616 0.45435 0.0
C690 C 0.01139 0.46768 0.47067 0.0
Zn691 Zn 0.03703 0.50448 0.51175 0.0
O692 O 0.04651 0.49432 0.55082 0.0
C693 C 0.0017 0.50946 0.53249 0.0
O694 O 0.04188 0.47759 0.52544 0.0
H695 H 0.04853 0.50959 0.47285 0.0
H696 H 0.02836 0.51665 0.57526 0.0
H697 H 0.01331 0.46909 0.49993 0.0
O698 O 0.01287 0.51894 0.54325 0.0
O699 O 0.00787 0.50234 0.51785 0.0
H700 H 0.06642 0.55625 0.55062 0.0
O701 O 0.03221 0.53161 0.49828 0.0
O702 O 0.0364 0.5487 0.52354 0.0
O703 O 0.06621 0.50679 0.50618 0.0
O704 O 0.07019 0.52399 0.53138 0.0
C705 C 0.03294 0.54816 0.50639 0.0
H706 H 0.03842 0.52817 0.60569 0.0
H707 H 0.07762 0.56848 0.58083 0.0
H708 H 0.03649 0.49781 0.44299 0.0
H709 H 0.00054 0.4563 0.47056 0.0
C710 C 0.77767 0.71968 0.25531 0.0
N711 N 0.75123 0.74075 0.30081 0.0
C712 C 0.7407 0.7239 0.29923 0.0
C713 C 0.73781 0.71213 0.31445 0.0
C714 C 0.74592 0.71774 0.33142 0.0
C715 C 0.7549 0.73627 0.33302 0.0
C716 C 0.75749 0.7476 0.3174 0.0
Zn717 Zn 0.76169 0.75211 0.27752 0.0
C718 C 0.80333 0.76172 0.28228 0.0
N719 N 0.78486 0.773 0.22838 0.0
C720 C 0.7806 0.76204 0.21324 0.0
C721 C 0.79527 0.78992 0.22741 0.0
C722 C 0.80147 0.79662 0.21056 0.0
C723 C 0.79694 0.78569 0.19468 0.0
C724 C 0.78669 0.768 0.19629 0.0
Zn725 Zn 0.77446 0.76299 0.2522 0.0
O726 O 0.76921 0.72315 0.26993 0.0
C727 C 0.73282 0.7537 0.24744 0.0
O728 O 0.78151 0.7339 0.24482 0.0
H729 H 0.79851 0.79838 0.23966 0.0
H730 H 0.73596 0.71865 0.2859 0.0
H731 H 0.77225 0.74869 0.21425 0.0
O732 O 0.73479 0.74882 0.26411 0.0
O733 O 0.74716 0.7599 0.2391 0.0
H734 H 0.76578 0.76107 0.31832 0.0
O735 O 0.76744 0.79196 0.26002 0.0
O736 O 0.75437 0.78104 0.28489 0.0
O737 O 0.80148 0.76608 0.26545 0.0
O738 O 0.78894 0.75575 0.29072 0.0
C739 C 0.75868 0.79532 0.27454 0.0
H740 H 0.73094 0.69791 0.31254 0.0
H741 H 0.76111 0.74125 0.34595 0.0
H742 H 0.80925 0.81041 0.20992 0.0
H743 H 0.78324 0.75884 0.18452 0.0
C744 C 0.80518 0.24908 0.7448 0.0
N745 N 0.7531 0.22848 0.72354 0.0
C746 C 0.75717 0.23829 0.70796 0.0
C747 C 0.75528 0.2288 0.69112 0.0
C748 C 0.74948 0.20898 0.69047 0.0
C749 C 0.74386 0.19974 0.70652 0.0
C750 C 0.7456 0.20992 0.72304 0.0
Zn751 Zn 0.76364 0.23931 0.74773 0.0
C752 C 0.78126 0.20626 0.76997 0.0
N753 N 0.78862 0.25958 0.79776 0.0
C754 C 0.79943 0.27625 0.79716 0.0
C755 C 0.78417 0.25115 0.81389 0.0
C756 C 0.78992 0.26009 0.83033 0.0
C757 C 0.8003 0.27785 0.83009 0.0
C758 C 0.80548 0.28565 0.81324 0.0
Zn759 Zn 0.77732 0.24871 0.77397 0.0
O760 O 0.79053 0.24384 0.73541 0.0
C761 C 0.76005 0.28194 0.75191 0.0
O762 O 0.8037 0.25239 0.76172 0.0
H763 H 0.77553 0.23792 0.81401 0.0
H764 H 0.76334 0.25292 0.70871 0.0
H765 H 0.80279 0.28269 0.78416 0.0
O766 O 0.75526 0.26838 0.74067 0.0
O767 O 0.76943 0.27754 0.76639 0.0
H768 H 0.74239 0.20243 0.73559 0.0
O769 O 0.75057 0.24477 0.78614 0.0
O770 O 0.73708 0.23492 0.76028 0.0
O771 O 0.78528 0.21991 0.78133 0.0
O772 O 0.77222 0.21038 0.75522 0.0
C773 C 0.73585 0.23889 0.77717 0.0
H774 H 0.75991 0.2363 0.67899 0.0
H775 H 0.73928 0.18446 0.70644 0.0
H776 H 0.78541 0.25371 0.84302 0.0
H777 H 0.81364 0.2992 0.81248 0.0
C778 C 0.74098 0.71968 0.73722 0.0
N779 N 0.78585 0.74491 0.70916 0.0
C780 C 0.79416 0.72694 0.70933 0.0
C781 C 0.80566 0.72144 0.69514 0.0
C782 C 0.80857 0.73457 0.68067 0.0
C783 C 0.80044 0.75332 0.68128 0.0
C784 C 0.78904 0.75819 0.69569 0.0
Zn785 Zn 0.76753 0.75205 0.72879 0.0
C786 C 0.73213 0.76921 0.71284 0.0
N787 N 0.72932 0.76825 0.76946 0.0
C788 C 0.72769 0.75604 0.78402 0.0
C789 C 0.71933 0.78521 0.76809 0.0
C790 C 0.70769 0.79086 0.78211 0.0
C791 C 0.70658 0.7791 0.79783 0.0
C792 C 0.71647 0.76124 0.79845 0.0
Zn793 Zn 0.74774 0.76105 0.74994 0.0
O794 O 0.75461 0.72358 0.72691 0.0
C795 C 0.78332 0.74419 0.76587 0.0
O796 O 0.73558 0.73271 0.74826 0.0
H797 H 0.72077 0.79465 0.75632 0.0
H798 H 0.79145 0.71665 0.72022 0.0
H799 H 0.73563 0.74253 0.78475 0.0
O800 O 0.78676 0.74199 0.74911 0.0
O801 O 0.76771 0.75162 0.77021 0.0
H802 H 0.78236 0.77243 0.69589 0.0
O803 O 0.75999 0.78936 0.75162 0.0
O804 O 0.78041 0.78048 0.73142 0.0
O805 O 0.72841 0.77046 0.7296 0.0
O806 O 0.74792 0.76229 0.70838 0.0
C807 C 0.77439 0.79331 0.74239 0.0
H808 H 0.81147 0.70676 0.69509 0.0
H809 H 0.80251 0.76395 0.67049 0.0
H810 H 0.70013 0.8046 0.78088 0.0
H811 H 0.71641 0.75181 0.81035 0.0
C812 C 0.50022 0.50575 0.50484 0.0
N813 N 0.48527 0.46069 0.53976 0.0
C814 C 0.46802 0.46924 0.54016 0.0
C815 C 0.45163 0.45782 0.53773 0.0
C816 C 0.45307 0.43747 0.53471 0.0
C817 C 0.47099 0.42884 0.5358 0.0
C818 C 0.48701 0.4408 0.53844 0.0
Zn819 Zn 0.50835 0.47817 0.53579 0.0
C820 C 0.53095 0.46133 0.50544 0.0
N821 N 0.5563 0.51332 0.52336 0.0
C822 C 0.55414 0.53279 0.51949 0.0
C823 C 0.57357 0.5048 0.5234 0.0
C824 C 0.58954 0.51589 0.5193 0.0
C825 C 0.58775 0.53593 0.51483 0.0
C826 C 0.56974 0.54441 0.5151 0.0
Zn827 Zn 0.53338 0.49606 0.52848 0.0
O828 O 0.4927 0.4933 0.51534 0.0
C829 C 0.50993 0.51422 0.55736 0.0
O830 O 0.51757 0.51027 0.50735 0.0
H831 H 0.57497 0.4893 0.52647 0.0
H832 H 0.46696 0.48509 0.54099 0.0
H833 H 0.54026 0.53926 0.51955 0.0
O834 O 0.49987 0.49868 0.5555 0.0
O835 O 0.52442 0.51654 0.54779 0.0
H836 H 0.50088 0.43432 0.53815 0.0
O837 O 0.54878 0.48133 0.54957 0.0
O838 O 0.52423 0.463 0.5562 0.0
O839 O 0.54188 0.47588 0.50883 0.0
O840 O 0.51681 0.45849 0.51535 0.0
C841 C 0.54141 0.46797 0.55928 0.0
H842 H 0.43808 0.46508 0.53683 0.0
H843 H 0.47264 0.41316 0.53371 0.0
H844 H 0.60316 0.50878 0.51968 0.0
H845 H 0.56763 0.55974 0.51159 0.0
C846 C 0.00763 0.53362 0.06236 0.0
N847 N 0.0409 0.48534 0.05181 0.0
C848 C 0.04993 0.4896 0.06805 0.0
C849 C 0.05421 0.47468 0.08048 0.0
C850 C 0.0489 0.45523 0.07625 0.0
C851 C 0.04074 0.45103 0.05891 0.0
C852 C 0.03688 0.46644 0.04678 0.0
Zn853 Zn 0.0303 0.50838 0.03715 0.0
C854 C 0.99076 0.50032 0.02281 0.0
N855 N 0.00681 0.55804 0.01014 0.0
C856 C 0.00951 0.57606 0.01793 0.0
C857 C -0.00036 0.55606 0.99276 0.0
C858 C 0.99574 0.57273 0.9822 0.0
C859 C -0.00072 0.59154 0.98963 0.0
C860 C 0.00585 0.59306 0.00789 0.0
Zn861 Zn 0.01691 0.53435 0.02406 0.0
O862 O 0.01814 0.51868 0.06117 0.0
C863 C 0.05662 0.54235 0.03761 0.0
O864 O 0.00457 0.54423 0.04833 0.0
H865 H 0.99767 0.54155 0.98685 0.0
H866 H 0.05274 0.50474 0.07193 0.0
H867 H 0.01538 0.57727 0.03171 0.0
O868 O 0.05543 0.52455 0.04273 0.0
O869 O 0.04225 0.55038 0.03008 0.0
H870 H 0.02971 0.4634 0.0338 0.0
O871 O 0.02927 0.52402 -2e-05 0.0
O872 O 0.04237 0.49828 0.01315 0.0
O873 O 0.99192 0.51824 0.01794 0.0
O874 O 0.00487 0.49231 0.03092 0.0
C875 C 0.03956 0.50885 -0.00097 0.0
H876 H 0.06026 0.47853 0.0938 0.0
H877 H 0.03653 0.43614 0.05517 0.0
H878 H 0.99047 0.57092 0.96824 0.0
H879 H 0.00909 0.60721 0.01412 0.0
C880 C 0.00201 0.23082 0.09712 0.0
C881 C 0.9976 0.23076 0.11565 0.0
C882 C -0.0002 0.21364 0.08673 0.0
C883 C 0.97766 0.16451 0.08448 0.0
H884 H 0.0254 0.14769 0.06572 0.0
C885 C 0.99214 0.08327 0.06801 0.0
C886 C 0.00427 0.07898 0.05385 0.0
C887 C 0.98942 0.10276 0.07334 0.0
C888 C 0.0118 0.15224 0.07045 0.0
H889 H 0.9861 0.21329 0.13752 0.0
H890 H 0.98195 0.18342 0.11926 0.0
H891 H 0.02261 0.18081 0.07781 0.0
H892 H 0.02253 0.09163 0.03366 0.0
H893 H 0.01726 0.12558 0.04243 0.0
H894 H 0.96678 0.13597 0.07716 0.0
C895 C 0.98725 0.19665 0.11283 0.0
C896 C 0.01025 0.17124 0.0774 0.0
C897 C 0.98977 0.21367 0.12329 0.0
C898 C 0.01332 0.0945 0.04484 0.0
C899 C 0.01033 0.11397 0.04992 0.0
C900 C 0.9791 0.14557 0.07725 0.0
C901 C 0.99279 0.19632 0.09464 0.0
C902 C 0.9933 0.17738 0.08482 0.0
C903 C 0.99852 0.11837 0.06437 0.0
C904 C 0.99634 0.13905 0.07053 0.0
H905 H 0.00809 0.2438 0.09092 0.0
H906 H 0.00413 0.21369 0.07269 0.0
H907 H 0.96442 0.169 0.0901 0.0
H908 H 0.98502 0.07155 0.07519 0.0
H909 H 0.9805 0.10553 0.08474 0.0
C910 C 0.08804 0.75478 0.3705 0.0
C911 C 0.07044 0.75192 0.36136 0.0
C912 C 0.10487 0.75135 0.36165 0.0
C913 C 0.12462 0.74813 0.31568 0.0
H914 H 0.1675 0.72564 0.34223 0.0
C915 C 0.19554 0.73238 0.28124 0.0
C916 C 0.21214 0.73757 0.29129 0.0
C917 C 0.17795 0.73256 0.28945 0.0
C918 C 0.15572 0.73209 0.33464 0.0
H919 H 0.05676 0.74294 0.33574 0.0
H920 H 0.0862 0.73677 0.32027 0.0
H921 H 0.13737 0.72853 0.35704 0.0
H922 H 0.22322 0.7468 0.31795 0.0
H923 H 0.19265 0.74718 0.33216 0.0
H924 H 0.14306 0.75185 0.29333 0.0
C925 C 0.08697 0.74189 0.33427 0.0
C926 C 0.13841 0.73375 0.34315 0.0
C927 C 0.07008 0.7453 0.34317 0.0
C928 C 0.21075 0.74267 0.30979 0.0
C929 C 0.19319 0.74278 0.31799 0.0
C930 C 0.14194 0.74645 0.30715 0.0
C931 C 0.1046 0.74496 0.34338 0.0
C932 C 0.12268 0.74202 0.33387 0.0
C933 C 0.17653 0.73784 0.30791 0.0
C934 C 0.15779 0.73862 0.3166 0.0
H935 H 0.08886 0.75994 0.3845 0.0
H936 H 0.11813 0.75417 0.36904 0.0
H937 H 0.1129 0.7548 0.30817 0.0
H938 H 0.19608 0.72836 0.26697 0.0
H939 H 0.16545 0.72845 0.28132 0.0
C940 C 0.53905 0.79846 0.63059 0.0
C941 C 0.52656 0.78588 0.62075 0.0
C942 C 0.54658 0.81515 0.62231 0.0
C943 C 0.55242 0.83868 0.57685 0.0
H944 H 0.55466 0.88687 0.6053 0.0
C945 C 0.54293 0.91619 0.54772 0.0
C946 C 0.55436 0.9317 0.55473 0.0
C947 C 0.54473 0.8972 0.5547 0.0
C948 C 0.5545 0.87345 0.59729 0.0
H949 H 0.51214 0.78072 0.59462 0.0
H950 H 0.52451 0.81034 0.58036 0.0
H951 H 0.5471 0.85588 0.62013 0.0
H952 H 0.57757 0.93896 0.57381 0.0
H953 H 0.58003 0.9058 0.58659 0.0
H954 H 0.55857 0.85672 0.55376 0.0
C955 C 0.52902 0.80708 0.59429 0.0
C956 C 0.55017 0.85566 0.60577 0.0
C957 C 0.52172 0.79023 0.6025 0.0
C958 C 0.56823 0.9275 0.56837 0.0
C959 C 0.56979 0.90852 0.57559 0.0
C960 C 0.55648 0.85654 0.56833 0.0
C961 C 0.54156 0.81974 0.60409 0.0
C962 C 0.54856 0.83814 0.59555 0.0
C963 C 0.55778 0.89333 0.56904 0.0
C964 C 0.55708 0.87412 0.57841 0.0
H965 H 0.54328 0.79523 0.64461 0.0
H966 H 0.55641 0.82439 0.63017 0.0
H967 H 0.55178 0.82539 0.56867 0.0
H968 H 0.53186 0.91881 0.53749 0.0
H969 H 0.53511 0.88578 0.54962 0.0
C970 C 0.471 0.26322 0.85404 0.0
C971 C 0.47076 0.26211 0.87321 0.0
C972 C 0.45404 0.26323 0.84354 0.0
C973 C 0.40378 0.24852 0.84498 0.0
H974 H 0.39577 0.28761 0.80706 0.0
C975 C 0.32998 0.2602 0.81081 0.0
C976 C 0.32888 0.2649 0.79213 0.0
C977 C 0.34748 0.25982 0.82032 0.0
C978 C 0.39782 0.27638 0.81739 0.0
H979 H 0.45239 0.25984 0.89625 0.0
H980 H 0.42306 0.25964 0.87799 0.0
H981 H 0.42615 0.28635 0.82376 0.0
H982 H 0.34539 0.27281 0.7688 0.0
H983 H 0.37584 0.27163 0.78519 0.0
H984 H 0.37567 0.23828 0.83855 0.0
C985 C 0.43632 0.26053 0.87107 0.0
C986 C 0.41526 0.2757 0.82699 0.0
C987 C 0.45318 0.26077 0.88155 0.0
C988 C 0.34569 0.26926 0.78321 0.0
C989 C 0.36319 0.26869 0.79267 0.0
C990 C 0.38643 0.24905 0.83527 0.0
C991 C 0.43651 0.26182 0.85196 0.0
C992 C 0.41838 0.26189 0.84101 0.0
C993 C 0.36437 0.26392 0.81137 0.0
C994 C 0.3831 0.26311 0.82144 0.0
H995 H 0.48426 0.26431 0.84717 0.0
H996 H 0.45464 0.26414 0.82882 0.0
H997 H 0.40583 0.23752 0.85554 0.0
H998 H 0.31731 0.25686 0.81813 0.0
H999 H 0.3477 0.25645 0.83476 0.0
C1000 C 0.01512 0.81681 0.42212 0.0
C1001 C 0.02211 0.81574 0.40444 0.0
C1002 C 0.01541 0.83454 0.43165 0.0
C1003 C 0.01952 0.88835 0.42815 0.0
H1004 H 0.03813 0.88358 0.47837 0.0
C1005 C 0.03362 0.95581 0.4756 0.0
C1006 C 0.02811 0.95393 0.4938 0.0
C1007 C 0.03313 0.93954 0.46389 0.0
C1008 C 0.0327 0.88517 0.46445 0.0
H1009 H 0.03402 0.83268 0.3825 0.0
H1010 H 0.0346 0.86403 0.39936 0.0
H1011 H 0.03638 0.85459 0.45888 0.0
H1012 H 0.01762 0.93347 0.51388 0.0
H1013 H 0.01661 0.90513 0.49343 0.0
H1014 H 0.0157 0.919 0.43387 0.0
C1015 C 0.02887 0.85099 0.40575 0.0
C1016 C 0.03174 0.86855 0.45326 0.0
C1017 C 0.02854 0.83309 0.39611 0.0
C1018 C 0.02207 0.93541 0.5 0.0
C1019 C 0.02158 0.91914 0.48828 0.0
C1020 C 0.02045 0.90505 0.43941 0.0
C1021 C 0.02279 0.85171 0.42383 0.0
C1022 C 0.02486 0.86986 0.43508 0.0
C1023 C 0.02714 0.921 0.4701 0.0
C1024 C 0.02681 0.90357 0.45778 0.0
H1025 H 0.00985 0.80378 0.42888 0.0
H1026 H 0.01018 0.83471 0.44536 0.0
H1027 H 0.0141 0.88978 0.41422 0.0
H1028 H 0.03835 0.96988 0.47036 0.0
H1029 H 0.0377 0.94144 0.45005 0.0
C1030 C 0.49182 0.7141 0.69337 0.0
C1031 C 0.48529 0.72213 0.67666 0.0
C1032 C 0.47894 0.70723 0.70607 0.0
C1033 C 0.42882 0.69199 0.70961 0.0
H1034 H 0.43199 0.71557 0.75778 0.0
C1035 C 0.3752 0.73094 0.75802 0.0
C1036 C 0.35939 0.7185 0.7554 0.0
C1037 C 0.3931 0.72461 0.75351 0.0
C1038 C 0.43096 0.70868 0.74444 0.0
H1039 H 0.46028 0.72901 0.66002 0.0
H1040 H 0.43805 0.71724 0.68198 0.0
H1041 H 0.45931 0.71713 0.73839 0.0
H1042 H 0.35005 0.68909 0.74759 0.0
H1043 H 0.38147 0.67782 0.73992 0.0
H1044 H 0.40008 0.68521 0.71472 0.0
C1045 C 0.45302 0.71597 0.68529 0.0
C1046 C 0.44669 0.70939 0.73343 0.0
C1047 C 0.46578 0.72297 0.67279 0.0
C1048 C 0.36199 0.6991 0.7494 0.0
C1049 C 0.37998 0.69266 0.74506 0.0
C1050 C 0.4131 0.69143 0.7205 0.0
C1051 C 0.45941 0.70802 0.70205 0.0
C1052 C 0.44533 0.7021 0.71551 0.0
C1053 C 0.39563 0.70561 0.74638 0.0
C1054 C 0.41363 0.70084 0.73761 0.0
H1055 H 0.50681 0.71323 0.69667 0.0
H1056 H 0.4842 0.70127 0.71895 0.0
H1057 H 0.42757 0.68585 0.69597 0.0
H1058 H 0.37361 0.74602 0.76249 0.0
H1059 H 0.40467 0.73516 0.75443 0.0
C1060 C 0.53189 0.19033 0.90633 0.0
C1061 C 0.5349 0.2069 0.91761 0.0
C1062 C 0.53389 0.17125 0.91356 0.0
C1063 C 0.53172 0.14644 0.95834 0.0
H1064 H 0.55311 0.10138 0.93437 0.0
C1065 C 0.54825 0.07565 -0.00222 0.0
C1066 C 0.54256 0.05767 0.9897 0.0
C1067 C 0.54786 0.09307 0.98766 0.0
C1068 C 0.54695 0.11382 0.94114 0.0
H1069 H 0.54396 0.21658 0.94474 0.0
H1070 H 0.54798 0.1837 0.95708 0.0
H1071 H 0.55197 0.13332 0.91867 0.0
H1072 H 0.53254 0.04385 0.96441 0.0
H1073 H 0.5319 0.07444 0.9467 0.0
H1074 H 0.5268 0.12722 0.9808 0.0
C1075 C 0.54337 0.18521 0.94291 0.0
C1076 C 0.54628 0.13208 0.93215 0.0
C1077 C 0.54119 0.20409 0.93579 0.0
C1078 C 0.53696 0.05747 0.97108 0.0
C1079 C 0.53668 0.07495 0.96089 0.0
C1080 C 0.53246 0.12833 0.96729 0.0
C1081 C 0.53906 0.16854 0.93213 0.0
C1082 C 0.53896 0.14869 0.94082 0.0
C1083 C 0.54185 0.09299 0.96917 0.0
C1084 C 0.54034 0.11188 0.95896 0.0
H1085 H 0.52701 0.1921 0.89226 0.0
H1086 H 0.53053 0.1587 0.90488 0.0
H1087 H 0.52544 0.15874 0.96523 0.0
H1088 H 0.55276 0.07635 0.01204 0.0
H1089 H 0.55222 0.10668 0.99436 0.0
C1090 C 0.07969 0.26335 0.16165 0.0
C1091 C 0.07006 0.27831 0.15206 0.0
C1092 C 0.09929 0.26429 0.16428 0.0
C1093 C 0.14186 0.2656 0.16193 0.0
H1094 H 0.16133 0.31518 0.18149 0.0
C1095 C 0.21618 0.27085 0.1953 0.0
C1096 C 0.21569 0.27825 0.21319 0.0
C1097 C 0.2009 0.27376 0.18302 0.0
C1098 C 0.15616 0.30131 0.17585 0.0
H1099 H 0.07359 0.30577 0.13727 0.0
H1100 H 0.10783 0.30737 0.14194 0.0
H1101 H 0.12907 0.31327 0.16879 0.0
H1102 H 0.19964 0.29581 0.23178 0.0
H1103 H 0.17314 0.30085 0.21047 0.0
H1104 H 0.16852 0.25334 0.17004 0.0
C1105 C 0.10015 0.29497 0.14746 0.0
C1106 C 0.13774 0.30023 0.16845 0.0
C1107 C 0.08054 0.29399 0.14475 0.0
C1108 C 0.20035 0.28979 0.21813 0.0
C1109 C 0.18522 0.29283 0.20584 0.0
C1110 C 0.16029 0.26668 0.16928 0.0
C1111 C 0.1097 0.28025 0.15743 0.0
C1112 C 0.13017 0.28218 0.16206 0.0
C1113 C 0.18504 0.2843 0.18837 0.0
C1114 C 0.16736 0.28437 0.17696 0.0
H1115 H 0.07209 0.25104 0.16743 0.0
H1116 H 0.1062 0.25287 0.17227 0.0
H1117 H 0.13648 0.25157 0.15683 0.0
H1118 H 0.22786 0.26194 0.1911 0.0
H1119 H 0.20118 0.26716 0.16957 0.0
C1120 C 0.12017 0.98078 0.20982 0.0
C1121 C 0.10738 0.98335 0.22387 0.0
C1122 C 0.1136 0.97866 0.19171 0.0
C1123 C 0.07113 0.96875 0.16216 0.0
H1124 H 0.09306 0.00764 0.13019 0.0
C1125 C 0.03123 0.99791 0.09838 0.0
C1126 C 0.04142 0.0034 0.08305 0.0
C1127 C 0.04067 0.99194 0.11444 0.0
C1128 C 0.087 0.99638 0.13873 0.0
H1129 H 0.07765 0.98418 0.23008 0.0
H1130 H 0.06625 0.9804 0.19856 0.0
H1131 H 0.1074 0.00208 0.16034 0.0
H1132 H 0.06949 0.00634 0.07233 0.0
H1133 H 0.08596 0.99556 0.10027 0.0
H1134 H 0.05053 0.96326 0.14068 0.0
C1135 C 0.08134 0.98011 0.20152 0.0
C1136 C 0.09524 0.99321 0.15604 0.0
C1137 C 0.08789 0.98243 0.21957 0.0
C1138 C 0.06124 0.0024 0.08399 0.0
C1139 C 0.07068 0.99626 0.10002 0.0
C1140 C 0.06297 0.9718 0.14478 0.0
C1141 C 0.09412 0.97881 0.18736 0.0
C1142 C 0.0871 0.97974 0.1681 0.0
C1143 C 0.06052 0.99114 0.11551 0.0
C1144 C 0.0705 0.98605 0.13304 0.0
H1145 H 0.13528 0.98133 0.21267 0.0
H1146 H 0.12375 0.9775 0.18106 0.0
H1147 H 0.06471 0.95811 0.17113 0.0
H1148 H 0.01594 -0.00147 0.0981 0.0
H1149 H 0.03237 0.98847 0.12618 0.0
C1150 C 0.28143 0.85756 0.48308 0.0
C1151 C 0.27636 0.87749 0.48339 0.0
C1152 C 0.28416 0.848 0.46661 0.0
C1153 C 0.29456 0.8561 0.41846 0.0
H1154 H 0.27453 0.8029 0.41316 0.0
C1155 C 0.29149 0.81213 0.35055 0.0
C1156 C 0.29494 0.79179 0.35157 0.0
C1157 C 0.29096 0.82347 0.36641 0.0
C1158 C 0.28045 0.81764 0.41452 0.0
H1159 H 0.27027 0.90314 0.46669 0.0
H1160 H 0.27488 0.88624 0.4376 0.0
H1161 H 0.26906 0.82133 0.44088 0.0
H1162 H 0.30181 0.76767 0.36991 0.0
H1163 H 0.30088 0.78749 0.39765 0.0
H1164 H 0.30582 0.85233 0.39192 0.0
C1165 C 0.27689 0.87812 0.45023 0.0
C1166 C 0.27725 0.82822 0.43037 0.0
C1167 C 0.27413 0.88775 0.46683 0.0
C1168 C 0.29879 0.78323 0.36872 0.0
C1169 C 0.29824 0.79457 0.38458 0.0
C1170 C 0.29773 0.84548 0.40252 0.0
C1171 C 0.28182 0.8581 0.45 0.0
C1172 C 0.28443 0.84748 0.43262 0.0
C1173 C 0.29382 0.81469 0.3836 0.0
C1174 C 0.29084 0.82607 0.40048 0.0
H1175 H 0.28333 0.84924 0.49561 0.0
H1176 H 0.28828 0.83268 0.46691 0.0
H1177 H 0.30039 0.87086 0.41989 0.0
H1178 H 0.28822 0.81914 0.33757 0.0
H1179 H 0.28738 0.8389 0.36524 0.0
C1180 C 0.44937 0.00574 0.71179 0.0
C1181 C 0.43365 0.01586 0.71807 0.0
C1182 C 0.45567 0.00896 0.69425 0.0
C1183 C 0.4573 0.04499 0.65773 0.0
H1184 H 0.47031 -0.00033 0.62869 0.0
C1185 C 0.48716 0.05004 0.58459 0.0
C1186 C 0.50146 0.03658 0.58082 0.0
C1187 C 0.47764 0.04882 0.601 0.0
C1188 C 0.4669 0.01249 0.63668 0.0
H1189 H 0.41228 0.03743 0.71085 0.0
H1190 H 0.42357 0.04324 0.68002 0.0
H1191 H 0.45522 0.99476 0.65769 0.0
H1192 H 0.51778 0.0121 0.59168 0.0
H1193 H 0.50156 0.01029 0.62027 0.0
H1194 H 0.46951 0.0627 0.63687 0.0
C1195 C 0.43087 0.03276 0.6888 0.0
C1196 C 0.45818 0.00966 0.65323 0.0
C1197 C 0.42437 0.02934 0.70636 0.0
C1198 C 0.50666 0.02254 0.59407 0.0
C1199 C 0.49726 0.02139 0.61041 0.0
C1200 C 0.46616 0.04784 0.64114 0.0
C1201 C 0.44653 0.02251 0.68259 0.0
C1202 C 0.45368 0.02584 0.66411 0.0
C1203 C 0.48232 0.03416 0.61388 0.0
C1204 C 0.47146 0.03157 0.63067 0.0
H1205 H 0.45683 0.99523 0.72042 0.0
H1206 H 0.46792 0.00104 0.68988 0.0
H1207 H 0.45402 0.0577 0.66593 0.0
H1208 H 0.48284 0.06101 0.57461 0.0
H1209 H 0.46618 0.05887 0.60329 0.0
C1210 C 0.29438 0.15081 0.95055 0.0
C1211 C 0.29882 0.13147 0.95575 0.0
C1212 C 0.28236 0.15427 0.93551 0.0
C1213 C 0.26888 0.1386 0.8916 0.0
H1214 H 0.22537 0.17192 0.89772 0.0
C1215 C 0.24027 0.18171 0.83095 0.0
C1216 C 0.23902 0.20194 0.8349 0.0
C1217 C 0.24031 0.1678 0.84496 0.0
C1218 C 0.23738 0.16252 0.89574 0.0
H1219 H 0.29486 0.10057 0.94882 0.0
H1220 H 0.2744 0.10684 0.92172 0.0
H1221 H 0.24122 0.15722 0.92445 0.0
H1222 H 0.23449 0.22313 0.85641 0.0
H1223 H 0.23562 0.19917 0.88087 0.0
H1224 H 0.26648 0.14535 0.86325 0.0
C1225 C 0.27987 0.11916 0.92976 0.0
C1226 C 0.24633 0.15402 0.91101 0.0
C1227 C 0.29164 0.11564 0.94512 0.0
C1228 C 0.23601 0.20773 0.85295 0.0
C1229 C 0.23632 0.19386 0.86698 0.0
C1230 C 0.26015 0.14736 0.87635 0.0
C1231 C 0.27487 0.13849 0.92515 0.0
C1232 C 0.26262 0.14277 0.90907 0.0
C1233 C 0.23941 0.17383 0.86324 0.0
C1234 C 0.24491 0.16027 0.87836 0.0
H1235 H 0.29979 0.16332 0.95834 0.0
H1236 H 0.27898 0.16933 0.93188 0.0
H1237 H 0.2815 0.13001 0.88988 0.0
H1238 H 0.2426 0.17664 0.81721 0.0
H1239 H 0.24225 0.15245 0.84156 0.0
C1240 C 0.14961 0.00997 0.3305 0.0
C1241 C 0.13576 0.00648 0.31665 0.0
C1242 C 0.14486 0.0192 0.34677 0.0
C1243 C 0.10837 0.05004 0.36717 0.0
H1244 H 0.12196 0.02277 0.41208 0.0
C1245 C 0.06416 0.05298 0.43101 0.0
C1246 C 0.07275 0.0495 0.44826 0.0
C1247 C 0.0749 0.05323 0.41539 0.0
C1248 C 0.1184 0.03096 0.39978 0.0
H1249 H 0.10615 0.01011 0.30888 0.0
H1250 H 0.09793 0.02617 0.33712 0.0
H1251 H 0.13541 0.01234 0.38365 0.0
H1252 H 0.09969 0.04531 0.46273 0.0
H1253 H 0.11845 0.04652 0.4356 0.0
H1254 H 0.09095 0.06833 0.38322 0.0
C1255 C 0.11248 0.02197 0.33539 0.0
C1256 C 0.12609 0.02489 0.38345 0.0
C1257 C 0.11717 0.0126 0.31927 0.0
C1258 C 0.09255 0.04806 0.4497 0.0
C1259 C 0.10332 0.04847 0.43409 0.0
C1260 C 0.10077 0.05622 0.38353 0.0
C1261 C 0.12623 0.0253 0.34935 0.0
C1262 C 0.12065 0.03393 0.36691 0.0
C1263 C 0.09453 0.05018 0.41668 0.0
C1264 C 0.10519 0.0463 0.39995 0.0
H1265 H 0.16407 0.00547 0.32882 0.0
H1266 H 0.15573 0.02159 0.35732 0.0
H1267 H 0.10419 0.05748 0.35462 0.0
H1268 H 0.04899 0.05455 0.42946 0.0
H1269 H 0.06759 0.05453 0.40223 0.0
C1270 C 0.30137 0.85712 0.58698 0.0
C1271 C 0.2882 0.87045 0.57951 0.0
C1272 C 0.29879 0.84882 0.60409 0.0
C1273 C 0.27252 0.85152 0.64655 0.0
H1274 H 0.27982 0.79494 0.64634 0.0
C1275 C 0.25275 0.80158 0.70718 0.0
C1276 C 0.26632 0.78756 0.71258 0.0
C1277 C 0.25446 0.81199 0.69085 0.0
C1278 C 0.27787 0.81074 0.64669 0.0
H1279 H 0.26272 0.88665 0.58461 0.0
H1280 H 0.25808 0.87192 0.61469 0.0
H1281 H 0.28548 0.81393 0.61891 0.0
H1282 H 0.29203 0.77314 0.70484 0.0
H1283 H 0.29501 0.79127 0.67644 0.0
H1284 H 0.26495 0.84822 0.67446 0.0
C1285 C 0.27044 0.86798 0.60726 0.0
C1286 C 0.28115 0.82164 0.63099 0.0
C1287 C 0.2731 0.87644 0.59008 0.0
C1288 C 0.28131 0.78378 0.70106 0.0
C1289 C 0.28298 0.79414 0.68475 0.0
C1290 C 0.26923 0.84057 0.66233 0.0
C1291 C 0.28289 0.85352 0.61408 0.0
C1292 C 0.27877 0.84218 0.6308 0.0
C1293 C 0.26971 0.80853 0.67957 0.0
C1294 C 0.27209 0.82009 0.66261 0.0
H1295 H 0.31332 0.85247 0.57927 0.0
H1296 H 0.30892 0.83815 0.60922 0.0
H1297 H 0.27061 0.86733 0.64681 0.0
H1298 H 0.24102 0.80484 0.71574 0.0
H1299 H 0.24388 0.82279 0.6871 0.0
C1300 C 0.43092 0.00154 0.81534 0.0
C1301 C 0.41254 0.00874 0.81246 0.0
C1302 C 0.4363 0.99285 0.83188 0.0
C1303 C 0.427 0.99305 0.88003 0.0
H1304 H 0.45795 0.94622 0.88051 0.0
C1305 C 0.46555 0.96895 0.94592 0.0
C1306 C 0.48494 0.96559 0.94386 0.0
C1307 C 0.45312 0.96916 0.93072 0.0
C1308 C 0.4493 0.95928 0.88062 0.0
H1309 H 0.38543 0.01272 0.82474 0.0
H1310 H 0.39509 0.99785 0.85407 0.0
H1311 H 0.4427 0.95716 0.85195 0.0
H1312 H 0.5061 0.95802 0.92444 0.0
H1313 H 0.4846 0.95904 0.89789 0.0
H1314 H 0.43441 0.99592 0.90839 0.0
C1315 C 0.40519 -0.0012 0.84333 0.0
C1316 C 0.44056 0.96551 0.8643 0.0
C1317 C 0.3997 0.00734 0.82661 0.0
C1318 C 0.49132 0.96102 0.92644 0.0
C1319 C 0.47891 0.96135 0.91124 0.0
C1320 C 0.43586 0.98691 0.89634 0.0
C1321 C 0.4235 0.99132 0.84602 0.0
C1322 C 0.42986 0.98282 0.86375 0.0
C1323 C 0.4598 0.96614 0.91312 0.0
C1324 C 0.44763 0.97033 0.89669 0.0
H1325 H 0.44119 0.00248 0.80476 0.0
H1326 H 0.45063 0.9876 0.83372 0.0
H1327 H 0.41892 0.0065 0.87996 0.0
H1328 H 0.46012 0.97264 0.9591 0.0
H1329 H 0.43841 0.97255 0.93267 0.0
C1330 C 0.33892 0.15874 0.05533 0.0
C1331 C 0.32927 0.17079 0.04258 0.0
C1332 C 0.34484 0.16619 0.07236 0.0
C1333 C 0.34923 0.21261 0.09974 0.0
H1334 H 0.33377 0.17864 0.13918 0.0
C1335 C 0.31404 0.23941 0.16329 0.0
C1336 C 0.31778 0.23041 0.18031 0.0
C1337 C 0.32292 0.233 0.14775 0.0
C1338 C 0.33866 0.18816 0.12842 0.0
H1339 H 0.31913 0.20035 0.03735 0.0
H1340 H 0.32882 0.21315 0.06719 0.0
H1341 H 0.33567 0.16525 0.10859 0.0
H1342 H 0.33476 0.20827 0.19436 0.0
H1343 H 0.34963 0.19646 0.16684 0.0
H1344 H 0.35069 0.23587 0.11951 0.0
C1345 C 0.33223 0.19806 0.06397 0.0
C1346 C 0.33976 0.1805 0.11083 0.0
C1347 C 0.32649 0.19067 0.04688 0.0
C1348 C 0.33123 0.21529 0.18145 0.0
C1349 C 0.3399 0.20864 0.16576 0.0
C1350 C 0.34794 0.22031 0.11731 0.0
C1351 C 0.34108 0.18579 0.07708 0.0
C1352 C 0.34422 0.19285 0.09614 0.0
C1353 C 0.33555 0.21724 0.14873 0.0
C1354 C 0.34184 0.20833 0.13161 0.0
H1355 H 0.34159 0.14342 0.0523 0.0
H1356 H 0.35191 0.15643 0.08202 0.0
H1357 H 0.35318 0.22239 0.0888 0.0
H1358 H 0.30351 0.25077 0.16167 0.0
H1359 H 0.31899 0.23963 0.13474 0.0
C1360 C 0.23772 0.14193 -0.00171 0.0
C1361 C 0.25323 0.12929 0.00043 0.0
C1362 C 0.2193 0.13437 -0.00166 0.0
C1363 C 0.19165 0.09015 0.98823 0.0
H1364 H 0.15543 0.1111 0.02141 0.0
C1365 C 0.12101 0.05072 0.00153 0.0
C1366 C 0.10526 0.06216 0.00557 0.0
C1367 C 0.13871 0.05956 -0.0005 0.0
C1368 C 0.16521 0.10531 0.01177 0.0
H1369 H 0.26163 0.09885 0.00417 0.0
H1370 H 0.22942 0.08569 0.00398 0.0
H1371 H 0.187 0.12563 0.02065 0.0
H1372 H 0.09581 0.09205 0.01016 0.0
H1373 H 0.1263 0.10747 0.00558 0.0
H1374 H 0.1699 0.07008 0.97903 0.0
C1375 C 0.23158 0.10141 0.00239 0.0
C1376 C 0.18331 0.11359 0.01145 0.0
C1377 C 0.24997 0.10899 0.00266 0.0
C1378 C 0.10752 0.08273 0.00685 0.0
C1379 C 0.12513 0.09159 0.00453 0.0
C1380 C 0.17345 0.08206 0.98833 0.0
C1381 C 0.21613 0.11403 0.00018 0.0
C1382 C 0.19672 0.10592 -0.00015 0.0
C1383 C 0.14103 0.0801 0.0012 0.0
C1384 C 0.16006 0.08939 0.00026 0.0
H1385 H 0.23981 0.15763 0.99652 0.0
H1386 H 0.20755 0.14434 0.99657 0.0
H1387 H 0.20176 0.08417 0.97901 0.0
H1388 H 0.11976 0.03488 0.00013 0.0
H1389 H 0.15064 0.05019 -0.00289 0.0
C1390 C 0.72758 0.43533 0.04306 0.0
C1391 C 0.72784 0.41596 0.03627 0.0
C1392 C 0.71041 0.44525 0.04445 0.0
C1393 C 0.66378 0.4469 0.02248 0.0
H1394 H 0.64663 0.47262 0.06608 0.0
C1395 C 0.5966 0.49322 0.02095 0.0
C1396 C 0.58324 0.48793 0.03389 0.0
C1397 C 0.61512 0.48645 0.0226 0.0
C1398 C 0.65131 0.46552 0.05382 0.0
H1399 H 0.71028 0.39165 0.0261 0.0
H1400 H 0.68058 0.40903 0.02824 0.0
H1401 H 0.6776 0.45652 0.06664 0.0
H1402 H 0.57914 0.47217 0.05922 0.0
H1403 H 0.6117 0.46043 0.06214 0.0
H1404 H 0.63768 0.45572 0.00961 0.0
C1405 C 0.69359 0.41653 0.0325 0.0
C1406 C 0.66901 0.45645 0.05412 0.0
C1407 C 0.71062 0.40657 0.03134 0.0
C1408 C 0.58907 0.47643 0.04898 0.0
C1409 C 0.60771 0.4698 0.05071 0.0
C1410 C 0.64632 0.45619 0.0221 0.0
C1411 C 0.69333 0.43603 0.0388 0.0
C1412 C 0.67525 0.44682 0.0385 0.0
C1413 C 0.62078 0.47439 0.0373 0.0
C1414 C 0.6398 0.46543 0.03779 0.0
H1415 H 0.74063 0.44292 0.047 0.0
H1416 H 0.71055 0.46031 0.04933 0.0
H1417 H 0.66833 0.43968 0.01022 0.0
H1418 H 0.59264 0.50215 0.00921 0.0
H1419 H 0.62496 0.49038 0.01217 0.0
C1420 C 0.86608 0.4536 0.27371 0.0
C1421 C 0.88582 0.45154 0.27357 0.0
C1422 C 0.85448 0.4376 0.27798 0.0
C1423 C 0.85532 0.38791 0.29923 0.0
H1424 H 0.80946 0.37967 0.26965 0.0
C1425 C 0.81727 0.31296 0.29032 0.0
C1426 C 0.79746 0.31255 0.28837 0.0
C1427 C 0.82705 0.33084 0.29224 0.0
C1428 C 0.82202 0.38195 0.27828 0.0
H1429 H 0.90881 0.431 0.27788 0.0
H1430 H 0.88856 0.403 0.28487 0.0
H1431 H 0.82859 0.40912 0.26511 0.0
H1432 H 0.77228 0.33048 0.28812 0.0
H1433 H 0.78941 0.36177 0.29147 0.0
H1434 H 0.84899 0.36028 0.31191 0.0
C1435 C 0.88206 0.41709 0.28204 0.0
C1436 C 0.83302 0.39883 0.27567 0.0
C1437 C 0.89367 0.43312 0.27787 0.0
C1438 C 0.78755 0.33031 0.28952 0.0
C1439 C 0.79735 0.34823 0.29132 0.0
C1440 C 0.84435 0.37095 0.30177 0.0
C1441 C 0.86232 0.41913 0.28212 0.0
C1442 C 0.84996 0.40187 0.2859 0.0
C1443 C 0.81722 0.3487 0.29217 0.0
C1444 C 0.82773 0.36766 0.29113 0.0
H1445 H 0.85955 0.46762 0.27065 0.0
H1446 H 0.83936 0.43975 0.27816 0.0
H1447 H 0.8681 0.38998 0.30759 0.0
H1448 H 0.82532 0.29951 0.28958 0.0
H1449 H 0.84235 0.33073 0.29275 0.0
C1450 C 0.83893 0.54365 0.53138 0.0
C1451 C 0.84376 0.56288 0.52609 0.0
C1452 C 0.85268 0.53149 0.53957 0.0
C1453 C 0.90073 0.53258 0.56129 0.0
H1454 H 0.91119 0.48841 0.52984 0.0
C1455 C 0.96786 0.50322 0.52339 0.0
C1456 C 0.98177 0.50676 0.53711 0.0
C1457 C 0.94879 0.50271 0.52764 0.0
C1458 C 0.90843 0.50058 0.53889 0.0
H1459 H 0.86597 0.58509 0.52626 0.0
H1460 H 0.88966 0.56426 0.54073 0.0
H1461 H 0.87988 0.50306 0.52863 0.0
H1462 H 0.98695 0.51052 0.56624 0.0
H1463 H 0.95373 0.509 0.57377 0.0
H1464 H 0.92962 0.53176 0.57012 0.0
C1465 C 0.87548 0.55836 0.53858 0.0
C1466 C 0.89039 0.50875 0.5384 0.0
C1467 C 0.86199 0.57023 0.53009 0.0
C1468 C 0.97643 0.50826 0.55532 0.0
C1469 C 0.9574 0.50736 0.55963 0.0
C1470 C 0.91877 0.52458 0.56165 0.0
C1471 C 0.87114 0.53873 0.543 0.0
C1472 C 0.88684 0.52568 0.54867 0.0
C1473 C 0.94328 0.50539 0.54576 0.0
C1474 C 0.92317 0.50935 0.54954 0.0
H1475 H 0.82489 0.53775 0.52837 0.0
H1476 H 0.84907 0.51636 0.54276 0.0
H1477 H 0.89822 0.54547 0.56955 0.0
H1478 H 0.97163 0.50186 0.50924 0.0
H1479 H 0.9384 0.50145 0.5165 0.0
C1480 C 0.1692 0.05471 0.25656 0.0
C1481 C 0.15219 0.05413 0.2659 0.0
C1482 C 0.17834 0.07266 0.25333 0.0
C1483 C 0.17007 0.12648 0.25194 0.0
H1484 H 0.22461 0.1302 0.25813 0.0
C1485 C 0.20997 0.20023 0.2608 0.0
C1486 C 0.22675 0.20291 0.25137 0.0
C1487 C 0.20082 0.18194 0.26082 0.0
C1488 C 0.2094 0.12932 0.25611 0.0
H1489 H 0.13158 0.072 0.27937 0.0
H1490 H 0.1477 0.10316 0.27409 0.0
H1491 H 0.20877 0.0984 0.26174 0.0
H1492 H 0.24704 0.18854 0.23446 0.0
H1493 H 0.23104 0.15641 0.23464 0.0
H1494 H 0.1707 0.15751 0.24679 0.0
C1495 C 0.15377 0.08981 0.26887 0.0
C1496 C 0.20031 0.11111 0.25816 0.0
C1497 C 0.14458 0.07189 0.27201 0.0
C1498 C 0.23413 0.18692 0.24184 0.0
C1499 C 0.22503 0.16853 0.24201 0.0
C1500 C 0.17914 0.14468 0.25001 0.0
C1501 C 0.17073 0.09042 0.25946 0.0
C1502 C 0.18052 0.10953 0.25631 0.0
C1503 C 0.20831 0.16587 0.25154 0.0
C1504 C 0.19887 0.14632 0.25229 0.0
H1505 H 0.17541 0.04132 0.25158 0.0
H1506 H 0.19127 0.07263 0.24586 0.0
H1507 H 0.15484 0.12571 0.25005 0.0
H1508 H 0.20391 0.21225 0.26827 0.0
H1509 H 0.18807 0.18026 0.26846 0.0
C1510 C 0.33331 0.9367 0.51792 0.0
C1511 C 0.33379 0.91638 0.51415 0.0
C1512 C 0.34947 0.94852 0.51599 0.0
C1513 C 0.40073 0.94442 0.51828 0.0
H1514 H 0.40188 0.99531 0.49431 0.0
C1515 C 0.47105 0.98453 0.50939 0.0
C1516 C 0.47169 0.00489 0.51276 0.0
C1517 C 0.45377 0.97458 0.50742 0.0
C1518 C 0.40175 0.98121 0.50122 0.0
H1519 H 0.35149 0.8928 0.50463 0.0
H1520 H 0.37947 0.91331 0.50146 0.0
H1521 H 0.3721 0.97664 0.49523 0.0
H1522 H 0.45472 0.03096 0.51597 0.0
H1523 H 0.42444 0.01348 0.51307 0.0
H1524 H 0.43002 0.94895 0.52479 0.0
C1525 C 0.36668 0.92006 0.50605 0.0
C1526 C 0.38472 0.97054 0.50171 0.0
C1527 C 0.35058 0.90833 0.50783 0.0
C1528 C 0.45466 0.01526 0.51334 0.0
C1529 C 0.4373 0.00523 0.51161 0.0
C1530 C 0.41763 0.95509 0.51796 0.0
C1531 C 0.36641 0.94017 0.51041 0.0
C1532 C 0.38413 0.95196 0.5101 0.0
C1533 C 0.43667 0.98468 0.50908 0.0
C1534 C 0.41845 0.97354 0.50928 0.0
H1535 H 0.32059 0.94342 0.5227 0.0
H1536 H 0.34892 0.964 0.51947 0.0
H1537 H 0.40061 0.9303 0.52517 0.0
H1538 H 0.48396 0.97618 0.50864 0.0
H1539 H 0.45384 0.95886 0.50495 0.0
C1540 C 0.8497 0.5563 0.24529 0.0
C1541 C 0.86871 0.55827 0.25123 0.0
C1542 C 0.83853 0.57294 0.24255 0.0
C1543 C 0.81539 0.60908 0.25049 0.0
H1544 H 0.83638 0.65797 0.23233 0.0
C1545 C 0.78283 0.6846 0.26445 0.0
C1546 C 0.78437 0.69962 0.25138 0.0
C1547 C 0.79119 0.66635 0.26177 0.0
C1548 C 0.83015 0.64438 0.23715 0.0
H1549 H 0.89103 0.5792 0.25861 0.0
H1550 H 0.87147 0.60821 0.25421 0.0
H1551 H 0.85511 0.62817 0.2319 0.0
H1552 H 0.79495 0.70688 0.22475 0.0
H1553 H 0.80923 0.67486 0.21991 0.0
H1554 H 0.79038 0.62527 0.25563 0.0
C1555 C 0.86524 0.59385 0.25134 0.0
C1556 C 0.84102 0.62734 0.23714 0.0
C1557 C 0.87644 0.57721 0.25399 0.0
C1558 C 0.79365 0.69566 0.23516 0.0
C1559 C 0.80194 0.67735 0.23243 0.0
C1560 C 0.80449 0.6261 0.25042 0.0
C1561 C 0.84609 0.59191 0.24577 0.0
C1562 C 0.83392 0.60957 0.24415 0.0
C1563 C 0.80119 0.66264 0.2459 0.0
C1564 C 0.81188 0.64405 0.24409 0.0
H1565 H 0.84338 0.54189 0.24291 0.0
H1566 H 0.82392 0.57093 0.23798 0.0
H1567 H 0.80951 0.59569 0.25611 0.0
H1568 H 0.77578 0.68717 0.27711 0.0
H1569 H 0.7905 0.65547 0.27253 0.0
C1570 C 0.66921 0.42967 0.76784 0.0
C1571 C 0.674 0.44692 0.75841 0.0
C1572 C 0.67968 0.41256 0.76582 0.0
C1573 C 0.71167 0.38732 0.73534 0.0
H1574 H 0.72555 0.35794 0.77904 0.0
C1575 C 0.73957 0.30701 0.73589 0.0
C1576 C 0.75352 0.30239 0.74928 0.0
C1577 C 0.73153 0.32576 0.73538 0.0
C1578 C 0.72195 0.36607 0.76671 0.0
H1579 H 0.69335 0.45972 0.73928 0.0
H1580 H 0.71166 0.42971 0.73575 0.0
H1581 H 0.70802 0.38839 0.78162 0.0
H1582 H 0.77093 0.31425 0.77175 0.0
H1583 H 0.75704 0.34683 0.77072 0.0
H1584 H 0.72562 0.36482 0.72045 0.0
C1585 C 0.69976 0.42946 0.74465 0.0
C1586 C 0.71172 0.38339 0.76818 0.0
C1587 C 0.68936 0.44666 0.74677 0.0
C1588 C 0.76004 0.31722 0.7614 0.0
C1589 C 0.75203 0.33588 0.76088 0.0
C1590 C 0.72182 0.36985 0.73385 0.0
C1591 C 0.69509 0.41228 0.75425 0.0
C1592 C 0.70638 0.39415 0.75253 0.0
C1593 C 0.73729 0.34018 0.74825 0.0
C1594 C 0.72705 0.35905 0.74954 0.0
H1595 H 0.6574 0.42939 0.77685 0.0
H1596 H 0.67561 0.39946 0.77323 0.0
H1597 H 0.70763 0.39529 0.72303 0.0
H1598 H 0.73427 0.2959 0.72635 0.0
H1599 H 0.72015 0.32864 0.72551 0.0
C1600 C 0.96214 0.86221 0.9104 0.0
C1601 C 0.97314 0.86036 0.89498 0.0
C1602 C 0.96519 0.87796 0.92237 0.0
C1603 C 0.99224 0.92437 0.93118 0.0
H1604 H 0.99784 0.90211 0.97983 0.0
C1605 C 0.02856 0.96747 0.9905 0.0
C1606 C 0.018 0.96823 0.00637 0.0
C1607 C 0.0238 0.95389 0.97672 0.0
C1608 C 0.99624 0.90859 0.96636 0.0
H1609 H 0.99445 0.87434 0.87876 0.0
H1610 H 8e-05 0.90182 0.89986 0.0
H1611 H 0.98511 0.88184 0.95491 0.0
H1612 H 0.99527 0.95431 0.02095 0.0
H1613 H 0.98717 0.93054 -0.00292 0.0
H1614 H 0.00357 0.95114 0.94279 0.0
C1615 C 0.98897 0.89128 0.90267 0.0
C1616 C 0.98879 0.89704 0.95209 0.0
C1617 C 0.98569 0.87561 0.89052 0.0
C1618 C 0.00368 0.95409 0.00888 0.0
C1619 C -0.00099 0.94047 0.99517 0.0
C1620 C -0.00027 0.93596 0.94552 0.0
C1621 C 0.97956 0.89187 0.91926 0.0
C1622 C 0.98659 0.90482 0.93436 0.0
C1623 C 0.00855 0.94073 0.97869 0.0
C1624 C 0.00173 0.92817 0.96326 0.0
H1625 H 0.95231 0.85062 0.91402 0.0
H1626 H 0.95731 0.87838 0.93477 0.0
H1627 H 0.99072 0.93075 0.91767 0.0
H1628 H 0.03963 0.97822 0.98814 0.0
H1629 H 0.03161 0.95414 0.96427 0.0
C1630 C 0.9687 0.25421 0.6914 0.0
C1631 C 0.96978 0.25521 0.67232 0.0
C1632 C 0.95107 0.25299 0.69956 0.0
C1633 C 0.90007 0.26283 0.68918 0.0
H1634 H 0.89226 0.2328 0.73329 0.0
C1635 C 0.82576 0.24825 0.71749 0.0
C1636 C 0.82396 0.25042 0.73642 0.0
C1637 C 0.84361 0.2488 0.70981 0.0
C1638 C 0.89426 0.24138 0.72104 0.0
H1639 H 0.9533 0.25476 0.64682 0.0
H1640 H 0.92286 0.252 0.66088 0.0
H1641 H 0.92333 0.23319 0.71983 0.0
H1642 H 0.83959 0.2549 0.76212 0.0
H1643 H 0.87063 0.25578 0.74872 0.0
H1644 H 0.87093 0.27077 0.69028 0.0
C1645 C 0.93544 0.25283 0.66968 0.0
C1646 C 0.91211 0.24165 0.71334 0.0
C1647 C 0.95297 0.25426 0.66158 0.0
C1648 C 0.84043 0.25321 0.74747 0.0
C1649 C 0.85825 0.25357 0.73982 0.0
C1650 C 0.88223 0.26241 0.69679 0.0
C1651 C 0.93417 0.25258 0.68878 0.0
C1652 C 0.91525 0.25235 0.69725 0.0
C1653 C 0.86008 0.25133 0.72091 0.0
C1654 C 0.87909 0.25168 0.71281 0.0
H1655 H 0.98141 0.255 0.70003 0.0
H1656 H 0.95069 0.25297 0.71431 0.0
H1657 H 0.90198 0.27162 0.67705 0.0
H1658 H 0.81339 0.24602 0.70858 0.0
H1659 H 0.84454 0.24688 0.6952 0.0
C1660 C 0.49592 0.26141 0.4145 0.0
C1661 C 0.48687 0.27779 0.42187 0.0
C1662 C 0.4984 0.24427 0.4248 0.0
C1663 C 0.47774 0.21748 0.46279 0.0
H1664 H 0.52377 0.18713 0.46215 0.0
C1665 C 0.48244 0.13695 0.48774 0.0
C1666 C 0.4988 0.13161 0.49786 0.0
C1667 C 0.48113 0.15555 0.47969 0.0
C1668 C 0.51088 0.19554 0.46259 0.0
H1669 H 0.47393 0.28916 0.44613 0.0
H1670 H 0.47836 0.25929 0.46402 0.0
H1671 H 0.52204 0.2185 0.44592 0.0
H1672 H 0.52656 0.14163 0.50759 0.0
H1673 H 0.52417 0.17418 0.49371 0.0
H1674 H 0.46657 0.19453 0.47945 0.0
C1675 C 0.48329 0.25966 0.4502 0.0
C1676 C 0.50984 0.21338 0.45316 0.0
C1677 C 0.48087 0.27681 0.43995 0.0
C1678 C 0.51368 0.14539 0.50005 0.0
C1679 C 0.51241 0.16393 0.49193 0.0
C1680 C 0.47875 0.19959 0.47214 0.0
C1681 C 0.49183 0.24312 0.44265 0.0
C1682 C 0.49323 0.2245 0.45312 0.0
C1683 C 0.49622 0.16913 0.48151 0.0
C1684 C 0.4953 0.18841 0.47208 0.0
H1685 H 0.50075 0.26165 0.40064 0.0
H1686 H 0.50492 0.23169 0.41858 0.0
H1687 H 0.46468 0.22564 0.46284 0.0
H1688 H 0.47071 0.12668 0.48593 0.0
H1689 H 0.46853 0.15911 0.47162 0.0
C1690 C 0.58632 0.77414 0.15712 0.0
C1691 C 0.56927 0.76715 0.16418 0.0
C1692 C 0.60339 0.77211 0.16699 0.0
C1693 C 0.62488 0.76384 0.21277 0.0
H1694 H 0.66731 0.74601 0.1853 0.0
C1695 C 0.69787 0.74673 0.24732 0.0
C1696 C 0.71389 0.7532 0.2381 0.0
C1697 C 0.67987 0.74734 0.2388 0.0
C1698 C 0.65569 0.75119 0.19316 0.0
H1699 H 0.55686 0.7532 0.18763 0.0
H1700 H 0.58685 0.74972 0.20494 0.0
H1701 H 0.63653 0.74978 0.16999 0.0
H1702 H 0.72352 0.76524 0.21259 0.0
H1703 H 0.69226 0.76651 0.19785 0.0
H1704 H 0.64417 0.76553 0.23592 0.0
C1705 C 0.58687 0.75676 0.19168 0.0
C1706 C 0.63801 0.75333 0.18438 0.0
C1707 C 0.5697 0.75873 0.18174 0.0
C1708 C 0.71152 0.76003 0.22008 0.0
C1709 C 0.69356 0.76067 0.21158 0.0
C1710 C 0.64263 0.76177 0.22158 0.0
C1711 C 0.60395 0.76308 0.18423 0.0
C1712 C 0.62245 0.75992 0.194 0.0
C1713 C 0.67748 0.75443 0.22084 0.0
C1714 C 0.65832 0.75564 0.21182 0.0
H1715 H 0.58662 0.78089 0.14375 0.0
H1716 H 0.61623 0.77753 0.16102 0.0
H1717 H 0.6132 0.76906 0.22054 0.0
H1718 H 0.69918 0.74134 0.26122 0.0
H1719 H 0.66785 0.74217 0.24626 0.0
C1720 C 0.01414 0.20381 0.60014 0.0
C1721 C 0.01535 0.20957 0.61857 0.0
C1722 C 0.01191 0.18406 0.59536 0.0
C1723 C 0.02227 0.13457 0.61185 0.0
H1724 H 0.99321 0.11998 0.56799 0.0
C1725 C 0.02202 0.0564 0.57771 0.0
C1726 C 0.02547 0.05709 0.55891 0.0
C1727 C 0.0187 0.07375 0.5874 0.0
C1728 C 0.00133 0.12382 0.5803 0.0
H1729 H 0.01457 0.19905 0.64647 0.0
H1730 H 0.01074 0.16418 0.63801 0.0
H1731 H 0.98958 0.15265 0.58113 0.0
H1732 H 0.02842 0.07657 0.53567 0.0
H1733 H 0.02247 0.10662 0.5525 0.0
H1734 H 0.03431 0.10571 0.61065 0.0
C1735 C 0.01159 0.17513 0.62732 0.0
C1736 C -0.00073 0.1425 0.58783 0.0
C1737 C 0.01367 0.19507 0.63215 0.0
C1738 C 0.02581 0.07547 0.55012 0.0
C1739 C 0.02226 0.09269 0.55971 0.0
C1740 C 0.02423 0.11574 0.60436 0.0
C1741 C 0.01087 0.16944 0.60884 0.0
C1742 C 0.01026 0.14838 0.60326 0.0
C1743 C 0.01847 0.09201 0.57838 0.0
C1744 C 0.01429 0.1105 0.58813 0.0
H1745 H 0.01525 0.21457 0.5893 0.0
H1746 H 0.01171 0.18021 0.58101 0.0
H1747 H 0.03099 0.13869 0.6237 0.0
H1748 H 0.02168 0.04245 0.58487 0.0
H1749 H 0.01586 0.07287 0.60181 0.0
C1750 C 0.53129 0.28605 0.33905 0.0
C1751 C 0.5309 0.29911 0.3539 0.0
C1752 C 0.54832 0.28235 0.33055 0.0
C1753 C 0.60037 0.28817 0.33761 0.0
H1754 H 0.60097 0.28876 0.2847 0.0
C1755 C 0.66783 0.30448 0.29978 0.0
C1756 C 0.67302 0.29009 0.28715 0.0
C1757 C 0.64973 0.30437 0.30669 0.0
C1758 C 0.60092 0.28842 0.29948 0.0
H1759 H 0.54803 0.31822 0.37171 0.0
H1760 H 0.57733 0.31213 0.35683 0.0
H1761 H 0.57071 0.28932 0.29993 0.0
H1762 H 0.66281 0.26491 0.2712 0.0
H1763 H 0.63095 0.26524 0.2829 0.0
H1764 H 0.63055 0.28808 0.33715 0.0
C1765 C 0.56472 0.3044 0.35186 0.0
C1766 C 0.58365 0.28861 0.3082 0.0
C1767 C 0.54783 0.30801 0.36034 0.0
C1768 C 0.65927 0.27635 0.28075 0.0
C1769 C 0.64105 0.27643 0.2875 0.0
C1770 C 0.61755 0.28826 0.32892 0.0
C1771 C 0.5652 0.29164 0.3368 0.0
C1772 C 0.58322 0.28892 0.32739 0.0
C1773 C 0.63635 0.29007 0.30092 0.0
C1774 C 0.61799 0.28878 0.30981 0.0
H1775 H 0.51843 0.27898 0.3338 0.0
H1776 H 0.54825 0.27231 0.31906 0.0
H1777 H 0.60055 0.28788 0.35239 0.0
H1778 H 0.6779 0.31554 0.30469 0.0
H1779 H 0.64627 0.31526 0.31682 0.0
C1780 C 0.5136 0.82806 0.14368 0.0
C1781 C 0.51176 0.81121 0.13258 0.0
C1782 C 0.51602 0.84672 0.13579 0.0
C1783 C 0.50643 0.87344 0.0931 0.0
H1784 H 0.54828 0.90797 0.10762 0.0
C1785 C 0.52975 0.93632 0.04679 0.0
C1786 C 0.53537 0.95437 0.05473 0.0
C1787 C 0.52662 0.91981 0.05766 0.0
C1788 C 0.53635 0.89865 0.10358 0.0
H1789 H 0.51102 0.80064 0.10461 0.0
H1790 H 0.51494 0.83299 0.09099 0.0
H1791 H 0.54266 0.87761 0.12475 0.0
H1792 H 0.5424 0.96918 0.08035 0.0
H1793 H 0.53664 0.94035 0.0994 0.0
H1794 H 0.49999 0.89424 0.07201 0.0
C1795 C 0.51452 0.83187 0.10572 0.0
C1796 C 0.53315 0.88129 0.1134 0.0
C1797 C 0.51238 0.81333 0.11355 0.0
C1798 C 0.53812 0.95545 0.0738 0.0
C1799 C 0.53488 0.93891 0.08472 0.0
C1800 C 0.50951 0.8908 0.08342 0.0
C1801 C 0.5163 0.84877 0.11671 0.0
C1802 C 0.51843 0.8683 0.10795 0.0
C1803 C 0.52888 0.92094 0.07678 0.0
C1804 C 0.52478 0.90339 0.08822 0.0
H1805 H 0.51323 0.82683 0.15839 0.0
H1806 H 0.51735 0.85954 0.14455 0.0
H1807 H 0.49478 0.86385 0.0888 0.0
H1808 H 0.52765 0.93492 0.03213 0.0
H1809 H 0.52247 0.9061 0.05103 0.0
C1810 C 0.90558 0.796 0.87233 0.0
C1811 C 0.92414 0.79513 0.86619 0.0
C1812 C 0.89066 0.78713 0.8623 0.0
C1813 C 0.86351 0.75774 0.84399 0.0
H1814 H 0.8617 0.7631 0.79131 0.0
C1815 C 0.79645 0.74823 0.79776 0.0
C1816 C 0.79854 0.74132 0.77986 0.0
C1817 C 0.81217 0.75018 0.80967 0.0
C1818 C 0.86217 0.76109 0.80598 0.0
H1819 H 0.94154 0.78429 0.8446 0.0
H1820 H 0.91561 0.76869 0.82727 0.0
H1821 H 0.88827 0.77699 0.80893 0.0
H1822 H 0.81832 0.72892 0.76114 0.0
H1823 H 0.84568 0.73213 0.78204 0.0
H1824 H 0.83696 0.74238 0.84093 0.0
C1825 C 0.91252 0.77646 0.83971 0.0
C1826 C 0.8774 0.76912 0.8161 0.0
C1827 C 0.92741 0.78541 0.84967 0.0
C1828 C 0.81628 0.73456 0.77475 0.0
C1829 C 0.83198 0.73649 0.78668 0.0
C1830 C 0.84818 0.74976 0.83384 0.0
C1831 C 0.89399 0.77713 0.84594 0.0
C1832 C 0.87816 0.76774 0.83523 0.0
C1833 C 0.83023 0.74521 0.80391 0.0
C1834 C 0.84729 0.75154 0.81474 0.0
H1835 H 0.90255 0.80339 0.88498 0.0
H1836 H 0.8765 0.78823 0.8673 0.0
H1837 H 0.86384 0.75613 0.8587 0.0
H1838 H 0.78294 0.75346 0.80215 0.0
H1839 H 0.81037 0.75695 0.82287 0.0
C1840 C 0.90325 0.0064 0.85918 0.0
C1841 C 0.91487 0.00169 0.84469 0.0
C1842 C 0.91116 0.01004 0.87663 0.0
C1843 C 0.95542 0.00369 0.9048 0.0
H1844 H 0.936 0.04691 0.933 0.0
C1845 C 0.99627 0.03429 0.96744 0.0
C1846 C 0.98599 0.03437 0.98349 0.0
C1847 C 0.98695 0.03198 0.95047 0.0
C1848 C 0.9415 0.03478 0.92525 0.0
H1849 H 0.94378 0.99672 0.83715 0.0
H1850 H 0.95756 0.00347 0.86727 0.0
H1851 H 0.92059 0.03806 0.90371 0.0
H1852 H 0.95782 0.03359 0.99428 0.0
H1853 H 0.94155 0.02994 0.96451 0.0
H1854 H 0.97656 0.00073 0.92615 0.0
C1855 C 0.94233 0.004 0.8654 0.0
C1856 C 0.93261 0.02959 0.90857 0.0
C1857 C 0.93444 0.00022 0.84805 0.0
C1858 C 0.96613 0.03353 0.98214 0.0
C1859 C 0.9568 0.03147 0.96513 0.0
C1860 C 0.9644 0.00904 0.92131 0.0
C1861 C 0.93084 0.00914 0.87988 0.0
C1862 C 0.93956 0.01405 0.89808 0.0
C1863 C 0.96718 0.02997 0.94923 0.0
C1864 C 0.95761 0.0247 0.93163 0.0
H1865 H 0.88811 0.0076 0.85698 0.0
H1866 H 0.90187 0.01366 0.88754 0.0
H1867 H 0.9609 0.99136 0.89732 0.0
H1868 H 0.01157 0.03489 0.96803 0.0
H1869 H 0.99523 0.03112 0.93835 0.0
C1870 C 0.80352 0.15507 0.54367 0.0
C1871 C 0.79499 0.13755 0.53727 0.0
C1872 C 0.80268 0.16023 0.56205 0.0
C1873 C 0.7843 0.14374 0.60717 0.0
H1874 H 0.77253 0.19921 0.61061 0.0
C1875 C 0.76447 0.18103 0.67479 0.0
C1876 C 0.75248 0.19735 0.67384 0.0
C1877 C 0.77038 0.17207 0.65887 0.0
C1878 C 0.77545 0.18361 0.60987 0.0
H1879 H 0.7804 0.11083 0.54512 0.0
H1880 H 0.77804 0.12016 0.57691 0.0
H1881 H 0.78406 0.18636 0.58249 0.0
H1882 H 0.73628 0.21641 0.65576 0.0
H1883 H 0.74564 0.20009 0.62786 0.0
H1884 H 0.77435 0.14088 0.63427 0.0
C1885 C 0.78585 0.12979 0.56807 0.0
C1886 C 0.7826 0.17628 0.5938 0.0
C1887 C 0.7872 0.12439 0.54978 0.0
C1888 C 0.74558 0.20387 0.65677 0.0
C1889 C 0.75117 0.19466 0.64084 0.0
C1890 C 0.77679 0.15104 0.6232 0.0
C1891 C 0.79267 0.14829 0.5742 0.0
C1892 C 0.78704 0.15622 0.59214 0.0
C1893 C 0.76418 0.17909 0.64166 0.0
C1894 C 0.7721 0.17106 0.62468 0.0
H1895 H 0.80978 0.16535 0.53426 0.0
H1896 H 0.8088 0.17421 0.56643 0.0
H1897 H 0.78772 0.12826 0.60652 0.0
H1898 H 0.7702 0.17594 0.68784 0.0
H1899 H 0.78053 0.1603 0.6601 0.0
C1900 C 0.64083 0.0095 0.36415 0.0
C1901 C 0.63282 0.01708 0.34787 0.0
C1902 C 0.63163 0.01182 0.38057 0.0
C1903 C 0.59698 0.04097 0.40413 0.0
H1904 H 0.58415 0.99217 0.42847 0.0
C1905 C 0.54412 0.03877 0.46232 0.0
C1906 C 0.54815 0.02589 0.47688 0.0
C1907 C 0.55456 0.03798 0.44649 0.0
C1908 C 0.58785 0.00599 0.42207 0.0
H1909 H 0.6096 0.03394 0.33606 0.0
H1910 H 0.59385 0.03841 0.3648 0.0
H1911 H 0.604 0.99143 0.40202 0.0
H1912 H 0.56623 0.00207 0.4863 0.0
H1913 H 0.5847 0.00114 0.45917 0.0
H1914 H 0.58121 0.05566 0.42432 0.0
C1915 C 0.60706 0.03051 0.36483 0.0
C1916 C 0.59921 0.00552 0.40692 0.0
C1917 C 0.61603 0.02785 0.3484 0.0
C1918 C 0.56262 0.01208 0.47524 0.0
C1919 C 0.5732 0.01149 0.4596 0.0
C1920 C 0.58586 0.0415 0.41949 0.0
C1921 C 0.61455 0.02213 0.38095 0.0
C1922 C 0.60376 0.02297 0.39777 0.0
C1923 C 0.56938 0.02446 0.44504 0.0
C1924 C 0.58107 0.02399 0.42859 0.0
H1925 H 0.65376 0.00112 0.36406 0.0
H1926 H 0.63766 0.00531 0.39291 0.0
H1927 H 0.60037 0.05462 0.39725 0.0
H1928 H 0.53301 0.04954 0.4632 0.0
H1929 H 0.551 0.04796 0.4354 0.0
C1930 C 0.79165 0.84895 0.04635 0.0
C1931 C 0.79575 0.83699 0.03136 0.0
C1932 C 0.79909 0.84463 0.06373 0.0
C1933 C 0.81996 0.83534 0.0994 0.0
H1934 H 0.81067 0.78051 0.11124 0.0
C1935 C 0.81962 0.80201 0.17337 0.0
C1936 C 0.80206 0.79281 0.17635 0.0
C1937 C 0.82438 0.80779 0.15574 0.0
C1938 C 0.81368 0.79579 0.10808 0.0
H1939 H 0.812 0.81192 0.02272 0.0
H1940 H 0.825 0.80442 0.05312 0.0
H1941 H 0.80996 0.79078 0.07948 0.0
H1942 H 0.77538 0.78361 0.16331 0.0
H1943 H 0.78393 0.79308 0.13279 0.0
H1944 H 0.82235 0.84036 0.12831 0.0
C1945 C 0.81578 0.81696 0.05141 0.0
C1946 C 0.81341 0.80169 0.08989 0.0
C1947 C 0.80828 0.82124 0.03401 0.0
C1948 C 0.78926 0.79002 0.16147 0.0
C1949 C 0.7941 0.7955 0.14397 0.0
C1950 C 0.82031 0.82939 0.11767 0.0
C1951 C 0.81086 0.8283 0.06654 0.0
C1952 C 0.81569 0.82166 0.08537 0.0
C1953 C 0.81175 0.80421 0.14091 0.0
C1954 C 0.81629 0.80972 0.1221 0.0
H1955 H 0.78217 0.86129 0.0448 0.0
H1956 H 0.79479 0.8535 0.07512 0.0
H1957 H 0.82205 0.8508 0.09629 0.0
H1958 H 0.8298 0.80433 0.18455 0.0
H1959 H 0.83802 0.81466 0.15363 0.0
C1960 C 0.91697 0.98647 0.73525 0.0
C1961 C 0.92982 0.98215 0.74972 0.0
C1962 C 0.92164 0.98274 0.71717 0.0
C1963 C 0.95393 0.95269 0.6903 0.0
H1964 H 0.94458 0.99129 0.6522 0.0
C1965 C 0.99498 0.95594 0.62415 0.0
C1966 C 0.98565 0.96222 0.608 0.0
C1967 C 0.98549 0.95529 0.64052 0.0
C1968 C 0.94696 0.98017 0.6626 0.0
H1969 H 0.95796 0.97122 0.7564 0.0
H1970 H 0.96607 0.96506 0.72508 0.0
H1971 H 0.93315 0.99717 0.68272 0.0
H1972 H 0.95878 0.97177 0.59615 0.0
H1973 H 0.94215 0.97039 0.62473 0.0
H1974 H 0.96819 0.93595 0.67032 0.0
C1975 C 0.95223 0.97086 0.72768 0.0
C1976 C 0.94044 0.98357 0.68009 0.0
C1977 C 0.9476 0.97458 0.74566 0.0
C1978 C 0.96633 0.96673 0.60834 0.0
C1979 C 0.95686 0.96617 0.62474 0.0
C1980 C 0.96045 0.9493 0.67284 0.0
C1981 C 0.93922 0.9746 0.71325 0.0
C1982 C 0.94427 0.97009 0.69423 0.0
C1983 C 0.96649 0.96099 0.64109 0.0
C1984 C 0.95741 0.96321 0.6589 0.0
H1985 H 0.90314 0.99226 0.73788 0.0
H1986 H 0.91133 0.98578 0.7063 0.0
H1987 H 0.95673 0.94181 0.70083 0.0
H1988 H 0.00982 0.95221 0.62424 0.0
H1989 H 0.99335 0.95134 0.6529 0.0
C1990 C 0.76649 0.15268 0.44268 0.0
C1991 C 0.76805 0.13209 0.44228 0.0
C1992 C 0.76192 0.16308 0.42682 0.0
C1993 C 0.76665 0.15935 0.37766 0.0
H1994 H 0.74007 0.20898 0.37836 0.0
C1995 C 0.74842 0.22943 0.32699 0.0
C1996 C 0.7661 0.23129 0.31897 0.0
C1997 C 0.74584 0.21617 0.34127 0.0
C1998 C 0.7473 0.19504 0.3778 0.0
H1999 H 0.76508 0.10608 0.42523 0.0
H2000 H 0.75694 0.12438 0.39729 0.0
H2001 H 0.73833 0.18671 0.40429 0.0
H2002 H 0.79511 0.22129 0.32006 0.0
H2003 H 0.79079 0.1987 0.34536 0.0
H2004 H 0.77558 0.16763 0.35116 0.0
C2005 C 0.7595 0.13244 0.4099 0.0
C2006 C 0.74644 0.18235 0.39272 0.0
C2007 C 0.76408 0.12198 0.42586 0.0
C2008 C 0.78129 0.22013 0.32591 0.0
C2009 C 0.77875 0.207 0.34026 0.0
C2010 C 0.7674 0.17197 0.36268 0.0
C2011 C 0.75875 0.15315 0.41017 0.0
C2012 C 0.75663 0.16469 0.39307 0.0
C2013 C 0.76092 0.20461 0.34789 0.0
C2014 C 0.75826 0.19025 0.36284 0.0
H2015 H 0.76941 0.1609 0.45514 0.0
H2016 H 0.76178 0.17902 0.4275 0.0
H2017 H 0.77474 0.14591 0.37751 0.0
H2018 H 0.73639 0.23772 0.32182 0.0
H2019 H 0.73191 0.21461 0.34678 0.0
C2020 C 0.63943 0.01464 0.23817 0.0
C2021 C 0.62466 0.0197 0.2496 0.0
C2022 C 0.63825 0.01912 0.21953 0.0
C2023 C 0.61521 0.05416 0.18828 0.0
H2024 H 0.62399 0.01613 0.15016 0.0
C2025 C 0.57983 0.05726 0.11756 0.0
C2026 C 0.58866 0.0488 0.10267 0.0
C2027 C 0.5889 0.05762 0.13474 0.0
C2028 C 0.62198 0.02712 0.1606 0.0
H2029 H 0.59653 0.03216 0.25011 0.0
H2030 H 0.59455 0.03981 0.21777 0.0
H2031 H 0.63029 0.00718 0.182 0.0
H2032 H 0.61452 0.03572 0.09359 0.0
H2033 H 0.63053 0.03663 0.12363 0.0
H2034 H 0.60636 0.07392 0.16701 0.0
C2035 C 0.60719 0.03281 0.22329 0.0
C2036 C 0.62549 0.02192 0.17883 0.0
C2037 C 0.60828 0.02824 0.2418 0.0
C2038 C 0.60739 0.04236 0.10486 0.0
C2039 C 0.61648 0.04269 0.12208 0.0
C2040 C 0.61181 0.0594 0.17008 0.0
C2041 C 0.62236 0.02883 0.21211 0.0
C2042 C 0.62144 0.03515 0.19282 0.0
C2043 C 0.60699 0.04951 0.13733 0.0
C2044 C 0.61449 0.04569 0.15609 0.0
H2045 H 0.65224 0.00804 0.24371 0.0
H2046 H 0.65006 0.01576 0.21111 0.0
H2047 H 0.61239 0.06478 0.19886 0.0
H2048 H 0.56546 0.06251 0.11616 0.0
H2049 H 0.58113 0.0629 0.14619 0.0
C2050 C 0.73021 0.8562 0.93448 0.0
C2051 C 0.7366 0.84449 0.94913 0.0
C2052 C 0.71971 0.84783 0.91995 0.0
C2053 C 0.71048 0.79974 0.89773 0.0
H2054 H 0.67624 0.83115 0.86761 0.0
C2055 C 0.68952 0.77325 0.82692 0.0
C2056 C 0.69749 0.78646 0.81445 0.0
C2057 C 0.68586 0.77936 0.84463 0.0
C2058 C 0.68548 0.82208 0.87608 0.0
H2059 H 0.7365 0.81505 0.96055 0.0
H2060 H 0.71764 0.80048 0.9355 0.0
H2061 H 0.68707 0.84341 0.89756 0.0
H2062 H 0.70558 0.81707 0.81025 0.0
H2063 H 0.69872 0.8277 0.84079 0.0
H2064 H 0.70927 0.77869 0.87608 0.0
C2065 C 0.72119 0.81601 0.93486 0.0
C2066 C 0.69189 0.82916 0.89312 0.0
C2067 C 0.73202 0.82433 0.94922 0.0
C2068 C 0.69941 0.80643 0.81936 0.0
C2069 C 0.69547 0.81259 0.83695 0.0
C2070 C 0.70382 0.79254 0.88089 0.0
C2071 C 0.71506 0.82761 0.91993 0.0
C2072 C 0.7052 0.8185 0.90374 0.0
C2073 C 0.68975 0.79887 0.85003 0.0
C2074 C 0.69196 0.80403 0.86956 0.0
H2075 H 0.73354 0.87181 0.93413 0.0
H2076 H 0.71568 0.85718 0.90854 0.0
H2077 H 0.72082 0.79113 0.90536 0.0
H2078 H 0.68729 0.75788 0.82341 0.0
H2079 H 0.68123 0.76857 0.85446 0.0
C2080 C 0.83037 0.87575 0.95977 0.0
C2081 C 0.81225 0.8829 0.96301 0.0
C2082 C 0.84623 0.88793 0.96268 0.0
C2083 C 0.86185 0.93896 0.9761 0.0
H2084 H 0.89568 0.91074 0.00935 0.0
C2085 C 0.90832 0.97819 0.03145 0.0
C2086 C 0.92719 0.97211 0.03331 0.0
C2087 C 0.8953 0.9675 0.02049 0.0
C2088 C 0.88652 0.91881 -7e-05 0.0
H2089 H 0.79629 0.90908 0.96901 0.0
H2090 H 0.82377 0.9301 0.97433 0.0
H2091 H 0.87224 0.89255 0.99097 0.0
H2092 H 0.94712 0.94991 0.0251 0.0
H2093 H 0.92437 0.93114 0.00649 0.0
H2094 H 0.8758 0.96532 0.98575 0.0
C2095 C 0.82593 0.91518 0.96968 0.0
C2096 C 0.87318 0.90837 0.98924 0.0
C2097 C 0.81012 0.90305 0.96673 0.0
C2098 C 0.93259 0.95477 0.02443 0.0
C2099 C 0.9196 0.94408 0.01358 0.0
C2100 C 0.87517 0.94942 0.98689 0.0
C2101 C 0.84418 0.9074 0.96885 0.0
C2102 C 0.86043 0.91833 0.97745 0.0
C2103 C 0.90092 0.95049 0.01125 0.0
C2104 C 0.88739 0.93945 -0.00085 0.0
H2105 H 0.83247 0.86034 0.95668 0.0
H2106 H 0.86014 0.88169 0.96143 0.0
H2107 H 0.85236 0.94705 0.96703 0.0
H2108 H 0.9037 0.99141 0.03817 0.0
H2109 H 0.88087 0.97257 0.01918 0.0
C2110 C 0.32373 0.56919 0.0042 0.0
C2111 C 0.32333 0.5871 0.99459 0.0
C2112 C 0.34054 0.55854 0.00602 0.0
C2113 C 0.38602 0.55159 0.98444 0.0
H2114 H 0.40523 0.53616 0.03243 0.0
C2115 C 0.46419 0.53298 -0.00188 0.0
C2116 C 0.46895 0.51855 0.01116 0.0
C2117 C 0.44548 0.53897 0.99554 0.0
C2118 C 0.39995 0.54 0.01887 0.0
H2119 H 0.34012 0.60779 0.97921 0.0
H2120 H 0.36918 0.58917 0.9822 0.0
H2121 H 0.37385 0.55053 0.02902 0.0
H2122 H 0.45769 0.49866 0.03136 0.0
H2123 H 0.42498 0.50878 0.02655 0.0
H2124 H 0.41198 0.54117 0.9742 0.0
C2125 C 0.35659 0.58333 0.98833 0.0
C2126 C 0.38198 0.54827 0.01696 0.0
C2127 C 0.33995 0.59407 0.98675 0.0
C2128 C 0.45451 0.50992 0.02127 0.0
C2129 C 0.43576 0.5158 0.01859 0.0
C2130 C 0.40388 0.54317 0.98631 0.0
C2131 C 0.35708 0.56548 -0.00203 0.0
C2132 C 0.37504 0.55455 -0.00022 0.0
C2133 C 0.43103 0.53055 0.00581 0.0
C2134 C 0.41127 0.53769 0.00361 0.0
H2135 H 0.31112 0.56348 0.01039 0.0
H2136 H 0.34057 0.54479 0.01352 0.0
H2137 H 0.38088 0.55605 0.97099 0.0
H2138 H 0.47499 0.54 0.99017 0.0
H2139 H 0.44246 0.5506 0.9858 0.0
C2140 C 0.18411 0.5703 0.80268 0.0
C2141 C 0.16556 0.57178 0.80877 0.0
C2142 C 0.19382 0.58701 0.79667 0.0
C2143 C 0.19273 0.64177 0.79665 0.0
H2144 H 0.2212 0.63654 0.75264 0.0
C2145 C 0.21799 0.70984 0.75867 0.0
C2146 C 0.23752 0.71052 0.75579 0.0
C2147 C 0.20914 0.69212 0.76315 0.0
C2148 C 0.21335 0.63816 0.76496 0.0
H2149 H 0.14301 0.59222 0.81403 0.0
H2150 H 0.15972 0.62112 0.80335 0.0
H2151 H 0.20678 0.60735 0.76618 0.0
H2152 H 0.26266 0.69279 0.7536 0.0
H2153 H 0.24705 0.66176 0.76124 0.0
H2154 H 0.19903 0.67259 0.79525 0.0
C2155 C 0.16693 0.60713 0.8034 0.0
C2156 C 0.2052 0.62146 0.77281 0.0
C2157 C 0.15729 0.59049 0.8095 0.0
C2158 C 0.24761 0.69278 0.75578 0.0
C2159 C 0.23869 0.675 0.76018 0.0
C2160 C 0.20069 0.65844 0.78871 0.0
C2161 C 0.18517 0.60556 0.79657 0.0
C2162 C 0.1947 0.62309 0.78871 0.0
C2163 C 0.21957 0.67469 0.76471 0.0
C2164 C 0.21097 0.65684 0.77273 0.0
H2165 H 0.19097 0.55615 0.80202 0.0
H2166 H 0.208 0.58533 0.79186 0.0
H2167 H 0.18509 0.64355 0.80908 0.0
H2168 H 0.20975 0.72319 0.75862 0.0
H2169 H 0.19428 0.69219 0.76619 0.0
C2170 C 0.23128 0.45597 0.50674 0.0
C2171 C 0.22503 0.43827 0.51456 0.0
C2172 C 0.22126 0.47335 0.50925 0.0
C2173 C 0.18514 0.49666 0.50183 0.0
H2174 H 0.15723 0.50795 0.5451 0.0
C2175 C 0.10595 0.50679 0.50094 0.0
C2176 C 0.09756 0.51775 0.51465 0.0
C2177 C 0.12559 0.50566 0.50038 0.0
C2178 C 0.16512 0.50552 0.53292 0.0
H2179 H 0.20485 0.42509 0.53256 0.0
H2180 H 0.18758 0.45529 0.53718 0.0
H2181 H 0.18681 0.49021 0.54799 0.0
H2182 H 0.10313 0.5377 0.53744 0.0
H2183 H 0.1374 0.5357 0.53641 0.0
H2184 H 0.1628 0.51085 0.48663 0.0
C2185 C 0.20006 0.4559 0.52906 0.0
C2186 C 0.18203 0.49525 0.5346 0.0
C2187 C 0.20984 0.43854 0.52629 0.0
C2188 C 0.10918 0.52883 0.52688 0.0
C2189 C 0.12881 0.52773 0.5263 0.0
C2190 C 0.1682 0.50693 0.50014 0.0
C2191 C 0.20513 0.47327 0.5199 0.0
C2192 C 0.19156 0.48967 0.51897 0.0
C2193 C 0.13721 0.51552 0.5135 0.0
C2194 C 0.15746 0.51039 0.51556 0.0
H2195 H 0.24299 0.4561 0.49761 0.0
H2196 H 0.22546 0.48656 0.50209 0.0
H2197 H 0.19217 0.49257 0.48952 0.0
H2198 H 0.09738 0.49821 0.49125 0.0
H2199 H 0.13159 0.49594 0.49045 0.0
C2200 C 0.88853 0.91693 0.79844 0.0
C2201 C 0.88116 0.93565 0.8019 0.0
C2202 C 0.87654 0.90143 0.79287 0.0
C2203 C 0.82834 0.88234 0.79201 0.0
H2204 H 0.84004 0.86022 0.74499 0.0
C2205 C 0.77742 0.8272 0.75563 0.0
C2206 C 0.78548 0.81146 0.74634 0.0
C2207 C 0.78863 0.84308 0.76181 0.0
C2208 C 0.83667 0.86596 0.75825 0.0
H2209 H 0.8554 0.95247 0.80347 0.0
H2210 H 0.83439 0.9251 0.79428 0.0
H2211 H 0.8609 0.88516 0.75893 0.0
H2212 H 0.81149 0.80018 0.73586 0.0
H2213 H 0.83114 0.82739 0.74713 0.0
H2214 H 0.80451 0.86276 0.79179 0.0
C2215 C 0.84946 0.92259 0.79562 0.0
C2216 C 0.84862 0.88029 0.76619 0.0
C2217 C 0.86147 0.93821 0.80084 0.0
C2218 C 0.80483 0.81222 0.74279 0.0
C2219 C 0.8161 0.8279 0.74926 0.0
C2220 C 0.81655 0.86771 0.78425 0.0
C2221 C 0.85696 0.90426 0.79104 0.0
C2222 C 0.84454 0.88861 0.78311 0.0
C2223 C 0.80822 0.8434 0.75914 0.0
C2224 C 0.82052 0.85934 0.76722 0.0
H2225 H 0.90363 0.91452 0.79904 0.0
H2226 H 0.88259 0.88735 0.78953 0.0
H2227 H 0.82496 0.88854 0.80511 0.0
H2228 H 0.76251 0.82704 0.75849 0.0
H2229 H 0.78194 0.85496 0.76893 0.0
C2230 C 0.70629 0.12121 0.49691 0.0
C2231 C 0.7224 0.10927 0.49773 0.0
C2232 C 0.68921 0.11445 0.50363 0.0
C2233 C 0.6631 0.0694 0.51592 0.0
H2234 H 0.63287 0.10595 0.5429 0.0
C2235 C 0.59294 0.04463 0.54565 0.0
C2236 C 0.57758 0.05682 0.541 0.0
C2237 C 0.61146 0.05135 0.54362 0.0
C2238 C 0.64114 0.0956 0.53537 0.0
H2239 H 0.73299 0.0806 0.50594 0.0
H2240 H 0.70313 0.06884 0.51775 0.0
H2241 H 0.6635 0.11658 0.53195 0.0
H2242 H 0.56967 0.08614 0.53201 0.0
H2243 H 0.60196 0.09781 0.52847 0.0
H2244 H 0.64063 0.04852 0.51909 0.0
C2245 C 0.70373 0.08342 0.51178 0.0
C2246 C 0.65864 0.10169 0.52903 0.0
C2247 C 0.72086 0.09017 0.50501 0.0
C2248 C 0.58117 0.07636 0.53567 0.0
C2249 C 0.59971 0.08307 0.53368 0.0
C2250 C 0.64562 0.0633 0.52229 0.0
C2251 C 0.68779 0.09559 0.51138 0.0
C2252 C 0.66969 0.08875 0.519 0.0
C2253 C 0.61501 0.0704 0.53698 0.0
C2254 C 0.63433 0.07641 0.53188 0.0
H2255 H 0.70689 0.13595 0.49128 0.0
H2256 H 0.67708 0.12403 0.50274 0.0
H2257 H 0.67115 0.05914 0.50807 0.0
H2258 H 0.59067 0.02954 0.54992 0.0
H2259 H 0.62299 0.04138 0.54663 0.0
C2260 C 0.17114 0.44401 0.801 0.0
C2261 C 0.17826 0.46225 0.79513 0.0
C2262 C 0.18171 0.42693 0.79929 0.0
C2263 C 0.21964 0.40457 0.77417 0.0
H2264 H 0.22493 0.37063 0.81657 0.0
C2265 C 0.26598 0.3357 0.77272 0.0
C2266 C 0.25861 0.31852 0.78061 0.0
C2267 C 0.25775 0.35395 0.77575 0.0
C2268 C 0.22345 0.37981 0.80455 0.0
H2269 H 0.20177 0.47682 0.78232 0.0
H2270 H 0.22016 0.44678 0.77904 0.0
H2271 H 0.20681 0.40086 0.81845 0.0
H2272 H 0.23725 0.30708 0.79839 0.0
H2273 H 0.22256 0.33882 0.80332 0.0
H2274 H 0.23572 0.38335 0.76004 0.0
C2275 C 0.20642 0.44579 0.78506 0.0
C2276 C 0.2131 0.39715 0.80564 0.0
C2277 C 0.19592 0.46296 0.78695 0.0
C2278 C 0.24331 0.32008 0.7922 0.0
C2279 C 0.23493 0.33831 0.79506 0.0
C2280 C 0.22983 0.38714 0.773 0.0
C2281 C 0.19955 0.42768 0.79151 0.0
C2282 C 0.211 0.40962 0.79043 0.0
C2283 C 0.2418 0.35542 0.78655 0.0
C2284 C 0.23178 0.37447 0.78815 0.0
H2285 H 0.15758 0.44297 0.80736 0.0
H2286 H 0.17596 0.4131 0.80413 0.0
H2287 H 0.2181 0.41384 0.7622 0.0
H2288 H 0.27789 0.33499 0.76386 0.0
H2289 H 0.26372 0.36686 0.76934 0.0
C2290 C 0.3764 0.563 0.29204 0.0
C2291 C 0.37002 0.54452 0.28559 0.0
C2292 C 0.36452 0.57925 0.29111 0.0
C2293 C 0.3238 0.60074 0.26771 0.0
H2294 H 0.31764 0.62877 0.31322 0.0
C2295 C 0.27539 0.6681 0.27076 0.0
C2296 C 0.28244 0.68423 0.28103 0.0
C2297 C 0.28392 0.64969 0.27236 0.0
C2298 C 0.31933 0.62128 0.30035 0.0
H2299 H 0.34656 0.52876 0.27227 0.0
H2300 H 0.32592 0.55749 0.27017 0.0
H2301 H 0.33766 0.59982 0.31269 0.0
H2302 H 0.30346 0.69354 0.30154 0.0
H2303 H 0.31868 0.66172 0.30394 0.0
H2304 H 0.30623 0.62259 0.25511 0.0
C2305 C 0.34005 0.55922 0.27616 0.0
C2306 C 0.33074 0.60466 0.30008 0.0
C2307 C 0.35184 0.54283 0.27736 0.0
C2308 C 0.29763 0.68137 0.29352 0.0
C2309 C 0.30632 0.66304 0.29493 0.0
C2310 C 0.31261 0.61757 0.26789 0.0
C2311 C 0.34615 0.57742 0.28345 0.0
C2312 C 0.33326 0.5944 0.28373 0.0
C2313 C 0.29985 0.64706 0.28408 0.0
C2314 C 0.31041 0.62821 0.28418 0.0
H2315 H 0.39031 0.56477 0.29848 0.0
H2316 H 0.36961 0.59322 0.29661 0.0
H2317 H 0.3256 0.59309 0.25492 0.0
H2318 H 0.26359 0.66983 0.26111 0.0
H2319 H 0.27825 0.63764 0.26411 0.0
C2320 C 0.49734 0.67554 0.5938 0.0
C2321 C 0.50048 0.68401 0.61115 0.0
C2322 C 0.49149 0.6559 0.5921 0.0
C2323 C 0.49751 0.61018 0.61669 0.0
H2324 H 0.46758 0.58897 0.57578 0.0
C2325 C 0.48573 0.53223 0.57494 0.0
C2326 C 0.50453 0.53014 0.56971 0.0
C2327 C 0.48038 0.549 0.58454 0.0
C2328 C 0.47558 0.59461 0.58756 0.0
H2329 H 0.49853 0.67887 0.64031 0.0
H2330 H 0.48848 0.64459 0.63726 0.0
H2331 H 0.4654 0.62395 0.58346 0.0
H2332 H 0.53263 0.54322 0.57129 0.0
H2333 H 0.52339 0.57209 0.58827 0.0
H2334 H 0.50868 0.58118 0.61995 0.0
C2335 C 0.49076 0.6531 0.62501 0.0
C2336 C 0.47449 0.61462 0.59183 0.0
C2337 C 0.4966 0.67273 0.62672 0.0
C2338 C 0.51804 0.54445 0.57511 0.0
C2339 C 0.51279 0.5609 0.58494 0.0
C2340 C 0.49871 0.59026 0.61233 0.0
C2341 C 0.48864 0.64434 0.60771 0.0
C2342 C 0.48611 0.62274 0.60591 0.0
C2343 C 0.49388 0.56354 0.58938 0.0
C2344 C 0.48842 0.58255 0.59722 0.0
H2345 H 0.50003 0.68385 0.58153 0.0
H2346 H 0.4902 0.64949 0.57858 0.0
H2347 H 0.50671 0.61599 0.62756 0.0
H2348 H 0.47503 0.52141 0.57088 0.0
H2349 H 0.4657 0.55084 0.5878 0.0
C2350 C 0.59472 0.25242 0.86807 0.0
C2351 C 0.57696 0.24953 0.85925 0.0
C2352 C 0.61138 0.24945 0.85876 0.0
C2353 C 0.63025 0.24736 0.81231 0.0
H2354 H 0.67355 0.22416 0.8376 0.0
C2355 C 0.70063 0.23279 0.77626 0.0
C2356 C 0.71739 0.2376 0.78623 0.0
C2357 C 0.68316 0.23265 0.78473 0.0
C2358 C 0.66166 0.23082 0.83036 0.0
H2359 H 0.56281 0.24109 0.83369 0.0
H2360 H 0.59194 0.23577 0.81743 0.0
H2361 H 0.64376 0.22678 0.85304 0.0
H2362 H 0.72884 0.24581 0.81304 0.0
H2363 H 0.69853 0.24568 0.82769 0.0
H2364 H 0.64825 0.25158 0.78968 0.0
C2365 C 0.59297 0.24053 0.83153 0.0
C2366 C 0.64454 0.23232 0.83923 0.0
C2367 C 0.57626 0.24346 0.84089 0.0
C2368 C 0.71626 0.24197 0.80492 0.0
C2369 C 0.69884 0.24179 0.81338 0.0
C2370 C 0.6474 0.24585 0.80342 0.0
C2371 C 0.61076 0.24352 0.84035 0.0
C2372 C 0.62866 0.24084 0.83043 0.0
C2373 C 0.68202 0.23725 0.80339 0.0
C2374 C 0.66341 0.23778 0.81241 0.0
H2375 H 0.59581 0.25716 0.88218 0.0
H2376 H 0.62477 0.2522 0.86594 0.0
H2377 H 0.61841 0.2542 0.80516 0.0
H2378 H 0.70096 0.22934 0.76185 0.0
H2379 H 0.67054 0.22888 0.77665 0.0
C2380 C 0.00419 0.32719 0.16437 0.0
C2381 C 0.01586 0.31388 0.17383 0.0
C2382 C 0.01027 0.34648 0.16166 0.0
C2383 C 0.05329 0.37123 0.15186 0.0
H2384 H 0.01948 0.41552 0.14629 0.0
C2385 C 0.06477 0.43821 0.103 0.0
C2386 C 0.0491 0.44022 0.09084 0.0
C2387 C 0.06376 0.42564 0.11809 0.0
C2388 C 0.02922 0.40341 0.14801 0.0
H2389 H 0.04256 0.31023 0.18872 0.0
H2390 H 0.05354 0.34413 0.18348 0.0
H2391 H 0.01158 0.38866 0.16691 0.0
H2392 H 0.02018 0.43077 0.08488 0.0
H2393 H 0.01848 0.4089 0.11105 0.0
H2394 H 0.07024 0.38543 0.13194 0.0
C2395 C 0.03955 0.33968 0.17849 0.0
C2396 C 0.02474 0.38811 0.15982 0.0
C2397 C 0.03325 0.3204 0.18155 0.0
C2398 C 0.03257 0.42928 0.09385 0.0
C2399 C 0.03148 0.41703 0.10899 0.0
C2400 C 0.05782 0.38662 0.14007 0.0
C2401 C 0.02832 0.35269 0.16804 0.0
C2402 C 0.03614 0.37135 0.16099 0.0
C2403 C 0.04693 0.41532 0.12138 0.0
C2404 C 0.04522 0.40222 0.13729 0.0
H2405 H 0.99077 0.32238 0.15826 0.0
H2406 H 0.00141 0.35606 0.15331 0.0
H2407 H 0.06229 0.35842 0.15243 0.0
H2408 H 0.07766 0.44654 0.10096 0.0
H2409 H 0.0759 0.42436 0.12741 0.0
C2410 C 0.94655 0.76875 0.38009 0.0
C2411 C 0.96429 0.76866 0.37199 0.0
C2412 C 0.92987 0.76756 0.36942 0.0
C2413 C 0.9092 0.77717 0.32393 0.0
H2414 H 0.86985 0.74122 0.33922 0.0
C2415 C 0.83863 0.76613 0.2821 0.0
C2416 C 0.82212 0.76302 0.29188 0.0
C2417 C 0.85641 0.76654 0.29111 0.0
C2418 C 0.88055 0.75156 0.33486 0.0
H2419 H 0.97826 0.76748 0.34614 0.0
H2420 H 0.94887 0.76568 0.3274 0.0
H2421 H 0.90008 0.74237 0.35604 0.0
H2422 H 0.81134 0.75839 0.31889 0.0
H2423 H 0.84213 0.75969 0.33464 0.0
H2424 H 0.88951 0.78678 0.30304 0.0
C2425 C 0.94805 0.7666 0.3421 0.0
C2426 C 0.89794 0.75212 0.34447 0.0
C2427 C 0.96486 0.76754 0.35284 0.0
C2428 C 0.82377 0.76067 0.31091 0.0
C2429 C 0.8415 0.76126 0.31994 0.0
C2430 C 0.89169 0.77676 0.31439 0.0
C2431 C 0.93038 0.76643 0.35032 0.0
C2432 C 0.9124 0.76506 0.33925 0.0
C2433 C 0.8581 0.76401 0.31016 0.0
C2434 C 0.87704 0.76408 0.31985 0.0
H2435 H 0.94548 0.76956 0.39477 0.0
H2436 H 0.91649 0.76771 0.37616 0.0
H2437 H 0.92003 0.78741 0.31968 0.0
H2438 H 0.83788 0.76789 0.2674 0.0
H2439 H 0.86883 0.76846 0.28307 0.0
C2440 C 0.52093 0.30996 0.92386 0.0
C2441 C 0.52648 0.30971 0.90565 0.0
C2442 C 0.51928 0.3277 0.93323 0.0
C2443 C 0.51516 0.38171 0.92792 0.0
H2444 H 0.53523 0.38177 0.97784 0.0
C2445 C 0.52507 0.45282 0.97159 0.0
C2446 C 0.52095 0.45158 0.99021 0.0
C2447 C 0.52485 0.43594 0.96063 0.0
C2448 C 0.52933 0.38197 0.96401 0.0
H2449 H 0.53407 0.328 0.88275 0.0
H2450 H 0.53137 0.35924 0.89928 0.0
H2451 H 0.53655 0.35191 0.95967 0.0
H2452 H 0.51288 0.43162 0.01175 0.0
H2453 H 0.51236 0.40221 0.99261 0.0
H2454 H 0.50806 0.41193 0.93236 0.0
C2455 C 0.52816 0.3456 0.90624 0.0
C2456 C 0.5301 0.36483 0.95356 0.0
C2457 C 0.52976 0.32773 0.89679 0.0
C2458 C 0.51623 0.4331 -0.00249 0.0
C2459 C 0.51604 0.41622 0.98654 0.0
C2460 C 0.5144 0.39894 0.93842 0.0
C2461 C 0.52326 0.34574 0.92471 0.0
C2462 C 0.52287 0.36438 0.93543 0.0
C2463 C 0.52055 0.41738 0.96801 0.0
C2464 C 0.52135 0.39922 0.95665 0.0
H2465 H 0.5181 0.29638 0.93107 0.0
H2466 H 0.51502 0.32725 0.94728 0.0
H2467 H 0.50935 0.38184 0.91405 0.0
H2468 H 0.52876 0.46683 0.9655 0.0
H2469 H 0.52856 0.43736 0.94647 0.0
C2470 C 0.9683 0.21944 0.18759 0.0
C2471 C 0.98711 0.22315 0.19317 0.0
C2472 C 0.95678 0.20755 0.198 0.0
C2473 C 0.95036 0.19796 0.24548 0.0
H2474 H 0.90453 0.17491 0.22391 0.0
C2475 C 0.86411 0.19315 0.25474 0.0
C2476 C 0.86253 0.21261 0.26096 0.0
C2477 C 0.88189 0.18518 0.25177 0.0
C2478 C 0.91729 0.18074 0.23054 0.0
H2479 H 0.00923 0.21626 0.21322 0.0
H2480 H 0.98874 0.1956 0.23199 0.0
H2481 H 0.93322 0.17502 0.20692 0.0
H2482 H 0.87822 0.2387 0.26973 0.0
H2483 H 0.90895 0.22533 0.26394 0.0
H2484 H 0.93432 0.20416 0.26893 0.0
C2485 C 0.98298 0.20187 0.21943 0.0
C2486 C 0.93378 0.18095 0.22065 0.0
C2487 C 0.99468 0.21364 0.20874 0.0
C2488 C 0.87902 0.2236 0.26505 0.0
C2489 C 0.89671 0.21578 0.26187 0.0
C2490 C 0.93397 0.19739 0.25554 0.0
C2491 C 0.96373 0.19921 0.21442 0.0
C2492 C 0.94993 0.19118 0.22735 0.0
C2493 C 0.8984 0.19666 0.25468 0.0
C2494 C 0.91683 0.19038 0.24752 0.0
H2495 H 0.96222 0.22641 0.17548 0.0
H2496 H 0.94202 0.20616 0.19379 0.0
H2497 H 0.96265 0.20568 0.2512 0.0
H2498 H 0.85159 0.18424 0.2518 0.0
H2499 H 0.88262 0.1703 0.24655 0.0
C2500 C 0.02337 0.69691 0.40916 0.0
C2501 C 0.02452 0.71372 0.42037 0.0
C2502 C 0.02442 0.67801 0.41694 0.0
C2503 C 0.01556 0.65364 0.4608 0.0
H2504 H 0.04451 0.61019 0.44258 0.0
C2505 C 0.03145 0.585 0.5043 0.0
C2506 C 0.03057 0.56652 0.49568 0.0
C2507 C 0.03 0.60229 0.49402 0.0
C2508 C 0.03616 0.62212 0.44769 0.0
H2509 H 0.02924 0.72395 0.44824 0.0
H2510 H 0.03131 0.69139 0.46157 0.0
H2511 H 0.04395 0.64152 0.42598 0.0
H2512 H 0.02731 0.55173 0.46946 0.0
H2513 H 0.02466 0.58192 0.45159 0.0
H2514 H 0.00785 0.63451 0.48254 0.0
C2515 C 0.02899 0.69262 0.44693 0.0
C2516 C 0.03585 0.64003 0.43818 0.0
C2517 C 0.02789 0.71131 0.43925 0.0
C2518 C 0.02805 0.56573 0.47655 0.0
C2519 C 0.02666 0.58303 0.46627 0.0
C2520 C 0.01586 0.63583 0.47026 0.0
C2521 C 0.02666 0.67575 0.436 0.0
C2522 C 0.02585 0.6561 0.44488 0.0
C2523 C 0.02767 0.60151 0.47488 0.0
C2524 C 0.02643 0.61997 0.46403 0.0
H2525 H 0.0208 0.69834 0.39457 0.0
H2526 H 0.02267 0.66523 0.40817 0.0
H2527 H 0.00733 0.66561 0.46607 0.0
H2528 H 0.03347 0.58614 0.51898 0.0
H2529 H 0.03107 0.61631 0.50106 0.0
C2530 C 0.58219 0.74879 0.64805 0.0
C2531 C 0.57727 0.74437 0.62977 0.0
C2532 C 0.60055 0.75472 0.65301 0.0
C2533 C 0.64918 0.75047 0.64287 0.0
H2534 H 0.65535 0.79898 0.67054 0.0
C2535 C 0.71957 0.7686 0.68043 0.0
C2536 C 0.7173 0.77361 0.69883 0.0
C2537 C 0.7042 0.76937 0.66794 0.0
C2538 C 0.6539 0.78541 0.66282 0.0
H2539 H 0.58787 0.74203 0.60243 0.0
H2540 H 0.62039 0.75173 0.61138 0.0
H2541 H 0.62452 0.79028 0.65676 0.0
H2542 H 0.69763 0.78493 0.71822 0.0
H2543 H 0.67097 0.78588 0.69675 0.0
H2544 H 0.6781 0.74474 0.65001 0.0
C2545 C 0.60981 0.7509 0.6217 0.0
C2546 C 0.63629 0.7805 0.6549 0.0
C2547 C 0.59128 0.74533 0.61663 0.0
C2548 C 0.69982 0.78082 0.70417 0.0
C2549 C 0.68452 0.78153 0.69175 0.0
C2550 C 0.66676 0.75521 0.65104 0.0
C2551 C 0.61443 0.75603 0.63986 0.0
C2552 C 0.63367 0.76269 0.6454 0.0
C2553 C 0.68633 0.77518 0.67364 0.0
C2554 C 0.66913 0.77239 0.6617 0.0
H2555 H 0.57169 0.74839 0.65846 0.0
H2556 H 0.60392 0.75838 0.66715 0.0
H2557 H 0.64741 0.73664 0.63559 0.0
H2558 H 0.73292 0.76314 0.67587 0.0
H2559 H 0.70614 0.7647 0.654 0.0
C2560 C 0.61756 0.46378 0.70931 0.0
C2561 C 0.60606 0.47697 0.71857 0.0
C2562 C 0.61146 0.45568 0.69254 0.0
C2563 C 0.60122 0.45371 0.65199 0.0
H2564 H 0.5479 0.44618 0.63999 0.0
C2565 C 0.56928 0.46895 0.58107 0.0
C2566 C 0.55202 0.46015 0.57538 0.0
C2567 C 0.57763 0.46436 0.59802 0.0
C2568 C 0.56291 0.44772 0.64305 0.0
H2569 H 0.57889 0.4915 0.71768 0.0
H2570 H 0.56856 0.47794 0.6884 0.0
H2571 H 0.5584 0.44978 0.67166 0.0
H2572 H 0.53092 0.43822 0.58224 0.0
H2573 H 0.54582 0.42976 0.61166 0.0
H2574 H 0.60572 0.45158 0.62336 0.0
C2575 C 0.58211 0.47342 0.69419 0.0
C2576 C 0.5689 0.45012 0.66126 0.0
C2577 C 0.58813 0.48138 0.71097 0.0
C2578 C 0.5441 0.44545 0.58635 0.0
C2579 C 0.55259 0.4407 0.60327 0.0
C2580 C 0.59525 0.45105 0.63378 0.0
C2581 C 0.59378 0.46067 0.68463 0.0
C2582 C 0.58801 0.45406 0.66588 0.0
C2583 C 0.56905 0.45068 0.60964 0.0
C2584 C 0.57592 0.44893 0.629 0.0
H2585 H 0.63139 0.45989 0.71488 0.0
H2586 H 0.6207 0.4457 0.68568 0.0
H2587 H 0.61605 0.45667 0.655 0.0
H2588 H 0.57581 0.48029 0.57293 0.0
H2589 H 0.59017 0.47256 0.60246 0.0
C2590 C 0.78579 0.34774 0.9809 0.0
C2591 C 0.7795 0.36728 0.98099 0.0
C2592 C 0.79089 0.33888 0.96471 0.0
C2593 C 0.80438 0.3489 0.91744 0.0
H2594 H 0.78656 0.29522 0.90963 0.0
C2595 C 0.80062 0.3095 0.84754 0.0
C2596 C 0.80393 0.28912 0.84717 0.0
C2597 C 0.8011 0.31971 0.86407 0.0
C2598 C 0.79196 0.31007 0.91173 0.0
H2599 H 0.77379 0.39299 0.96426 0.0
H2600 H 0.78235 0.37726 0.93566 0.0
H2601 H 0.7797 0.312 0.93783 0.0
H2602 H 0.81185 0.26378 0.8636 0.0
H2603 H 0.81269 0.28165 0.89254 0.0
H2604 H 0.81624 0.34698 0.89098 0.0
C2605 C 0.78359 0.36894 0.94824 0.0
C2606 C 0.78797 0.31972 0.92788 0.0
C2607 C 0.77855 0.37789 0.96455 0.0
C2608 C 0.8089 0.27941 0.86352 0.0
C2609 C 0.80938 0.28962 0.88006 0.0
C2610 C 0.80833 0.33922 0.90119 0.0
C2611 C 0.78966 0.34928 0.94817 0.0
C2612 C 0.79411 0.33924 0.93092 0.0
C2613 C 0.80487 0.30973 0.88054 0.0
C2614 C 0.80211 0.31972 0.89818 0.0
H2615 H 0.78678 0.33919 0.99336 0.0
H2616 H 0.79582 0.32384 0.96517 0.0
H2617 H 0.80946 0.36387 0.9195 0.0
H2618 H 0.79655 0.31737 0.8352 0.0
H2619 H 0.7974 0.33515 0.86403 0.0
C2620 C 0.93399 0.49685 0.19849 0.0
C2621 C 0.92184 0.50886 0.20819 0.0
C2622 C 0.93842 0.50145 0.18063 0.0
C2623 C 0.94432 0.54338 0.15074 0.0
H2624 H 0.95344 0.50208 0.11566 0.0
C2625 C 0.98179 0.54957 0.07966 0.0
C2626 C 0.9971 0.53654 0.07919 0.0
C2627 C 0.96961 0.54916 0.09435 0.0
C2628 C 0.95076 0.5138 0.12524 0.0
H2629 H 0.9042 0.53476 0.20658 0.0
H2630 H 0.9122 0.54299 0.17512 0.0
H2631 H 0.93519 0.49465 0.14247 0.0
H2632 H 0.01246 0.51401 0.09441 0.0
H2633 H 0.99119 0.51324 0.11971 0.0
H2634 H 0.9606 0.5623 0.13358 0.0
C2635 C 0.91822 0.52998 0.18146 0.0
C2636 C 0.94036 0.50957 0.14056 0.0
C2637 C 0.91356 0.5252 0.19938 0.0
C2638 C 0.00071 0.52411 0.09421 0.0
C2639 C 0.98852 0.52358 0.10868 0.0
C2640 C 0.95465 0.54766 0.13524 0.0
C2641 C 0.93092 0.51827 0.17203 0.0
C2642 C 0.93778 0.52406 0.1539 0.0
C2643 C 0.97256 0.53561 0.10859 0.0
C2644 C 0.95859 0.53265 0.12283 0.0
H2645 H 0.94052 0.48412 0.20488 0.0
H2646 H 0.94845 0.49227 0.17385 0.0
H2647 H 0.94261 0.55482 0.16083 0.0
H2648 H 0.97864 0.55931 0.06828 0.0
H2649 H 0.95739 0.55863 0.09412 0.0
C2650 C 0.81203 0.61341 0.44013 0.0
C2651 C 0.80259 0.59991 0.45111 0.0
C2652 C 0.80358 0.6199 0.42384 0.0
C2653 C 0.75767 0.6322 0.40616 0.0
H2654 H 0.78572 0.64587 0.36338 0.0
C2655 C 0.73397 0.68895 0.34961 0.0
C2656 C 0.74834 0.70279 0.34602 0.0
C2657 C 0.73777 0.67267 0.36083 0.0
C2658 C 0.77764 0.64201 0.37516 0.0
H2659 H 0.77735 0.58193 0.45365 0.0
H2660 H 0.7622 0.59377 0.4251 0.0
H2661 H 0.79818 0.62118 0.38462 0.0
H2662 H 0.77773 0.71067 0.35188 0.0
H2663 H 0.78415 0.68267 0.37155 0.0
H2664 H 0.73766 0.65396 0.39716 0.0
C2665 C 0.77628 0.599 0.42898 0.0
C2666 C 0.78471 0.62784 0.38723 0.0
C2667 C 0.78497 0.59215 0.44517 0.0
C2668 C 0.76625 0.70051 0.35454 0.0
C2669 C 0.77005 0.68426 0.36555 0.0
C2670 C 0.75055 0.64641 0.39402 0.0
C2671 C 0.78536 0.6133 0.41843 0.0
C2672 C 0.77527 0.62354 0.40329 0.0
C2673 C 0.75604 0.66991 0.36836 0.0
C2674 C 0.76101 0.65209 0.37894 0.0
H2675 H 0.82557 0.61965 0.44458 0.0
H2676 H 0.8108 0.63113 0.41612 0.0
H2677 H 0.75018 0.62921 0.41852 0.0
H2678 H 0.72001 0.69039 0.34327 0.0
H2679 H 0.72671 0.66186 0.36299 0.0
C2680 C 0.64619 0.5174 0.82226 0.0
C2681 C 0.63281 0.51362 0.80806 0.0
C2682 C 0.64065 0.52592 0.83859 0.0
C2683 C 0.60177 0.55294 0.85985 0.0
H2684 H 0.61714 0.52409 0.90338 0.0
C2685 C 0.55819 0.55019 0.92455 0.0
C2686 C 0.56737 0.54687 0.94157 0.0
C2687 C 0.56851 0.55136 0.90866 0.0
C2688 C 0.61301 0.53269 0.8915 0.0
H2689 H 0.60333 0.5165 0.79951 0.0
H2690 H 0.59371 0.53125 0.82793 0.0
H2691 H 0.6313 0.51648 0.87458 0.0
H2692 H 0.59486 0.54358 0.95527 0.0
H2693 H 0.61279 0.54644 0.92776 0.0
H2694 H 0.58307 0.5688 0.87673 0.0
C2695 C 0.60847 0.52778 0.82646 0.0
C2696 C 0.62115 0.52827 0.87493 0.0
C2697 C 0.61397 0.51915 0.81023 0.0
C2698 C 0.58724 0.54624 0.94247 0.0
C2699 C 0.59756 0.5476 0.92662 0.0
C2700 C 0.59369 0.55746 0.87646 0.0
C2701 C 0.62168 0.53097 0.84093 0.0
C2702 C 0.61522 0.53794 0.85884 0.0
C2703 C 0.58828 0.54939 0.90945 0.0
C2704 C 0.59883 0.54699 0.89239 0.0
H2705 H 0.66084 0.51339 0.82092 0.0
H2706 H 0.65116 0.52833 0.84948 0.0
H2707 H 0.59713 0.56084 0.84769 0.0
H2708 H 0.54294 0.55115 0.92338 0.0
H2709 H 0.56084 0.55268 0.89569 0.0
C2710 C 0.76874 0.3684 0.08908 0.0
C2711 C 0.78282 0.3603 0.07841 0.0
C2712 C 0.76752 0.3631 0.10747 0.0
C2713 C 0.79445 0.34051 0.14605 0.0
H2714 H 0.7459 0.31967 0.16019 0.0
C2715 C 0.78751 0.28667 0.20598 0.0
C2716 C 0.77212 0.28889 0.21735 0.0
C2717 C 0.78864 0.29771 0.18996 0.0
C2718 C 0.7595 0.32572 0.15659 0.0
H2719 H 0.80727 0.34127 0.07882 0.0
H2720 H 0.80518 0.3322 0.11069 0.0
H2721 H 0.74843 0.33665 0.13103 0.0
H2722 H 0.74578 0.30436 0.22078 0.0
H2723 H 0.74788 0.32366 0.19298 0.0
H2724 H 0.80563 0.32928 0.17141 0.0
C2725 C 0.79506 0.34255 0.10496 0.0
C2726 C 0.76091 0.3355 0.13992 0.0
C2727 C 0.79613 0.3476 0.08663 0.0
C2728 C 0.75781 0.30222 0.21228 0.0
C2729 C 0.75896 0.31326 0.19631 0.0
C2730 C 0.79303 0.33081 0.16273 0.0
C2731 C 0.78057 0.34994 0.11549 0.0
C2732 C 0.77849 0.34255 0.13431 0.0
C2733 C 0.77443 0.31121 0.18501 0.0
C2734 C 0.77563 0.3229 0.16799 0.0
H2735 H 0.75832 0.37824 0.08307 0.0
H2736 H 0.75625 0.36906 0.11536 0.0
H2737 H 0.80814 0.34604 0.14213 0.0
H2738 H 0.79875 0.27651 0.2095 0.0
H2739 H 0.80058 0.29553 0.18137 0.0
C2740 C 0.91521 0.50356 0.32193 0.0
C2741 C 0.92422 0.50545 0.30524 0.0
C2742 C 0.92533 0.49721 0.33754 0.0
C2743 C 0.97381 0.49468 0.35691 0.0
H2744 H 0.95242 0.45751 0.39087 0.0
C2745 C 0.01669 0.47094 0.42043 0.0
C2746 C 0.00701 0.47212 0.43679 0.0
C2747 C 0.00674 0.47102 0.40364 0.0
C2748 C 0.95856 0.46794 0.38153 0.0
H2749 H 0.9508 0.5021 0.29175 0.0
H2750 H 0.96835 0.49105 0.31886 0.0
H2751 H 0.93436 0.46656 0.36315 0.0
H2752 H 0.97927 0.47319 0.4484 0.0
H2753 H 0.96197 0.47346 0.41922 0.0
H2754 H 0.99774 0.49656 0.37535 0.0
C2755 C 0.95356 0.49461 0.31998 0.0
C2756 C 0.94819 0.47315 0.36571 0.0
C2757 C 0.94347 0.50088 0.30444 0.0
C2758 C 0.98715 0.47203 0.43605 0.0
C2759 C 0.97721 0.47221 0.41928 0.0
C2760 C 0.98411 0.48953 0.3727 0.0
C2761 C 0.94464 0.49275 0.33672 0.0
C2762 C 0.95567 0.4867 0.35331 0.0
C2763 C 0.98692 0.47242 0.40288 0.0
C2764 C 0.97657 0.47623 0.38529 0.0
H2765 H 0.90036 0.50691 0.32292 0.0
H2766 H 0.91814 0.49612 0.35031 0.0
H2767 H 0.97984 0.50538 0.34775 0.0
H2768 H 0.03199 0.4707 0.4206 0.0
H2769 H 0.01461 0.47071 0.39123 0.0
C2770 C 0.82587 0.63716 0.5528 0.0
C2771 C 0.82971 0.64494 0.53556 0.0
C2772 C 0.83101 0.64762 0.56862 0.0
C2773 C 0.84015 0.69887 0.58315 0.0
H2774 H 0.8456 0.67361 0.63042 0.0
C2775 C 0.8105 0.73226 0.64684 0.0
C2776 C 0.81837 0.72805 0.66422 0.0
C2777 C 0.81814 0.72425 0.63128 0.0
C2778 C 0.84455 0.68105 0.61736 0.0
H2779 H 0.84335 0.66895 0.52139 0.0
H2780 H 0.85296 0.68688 0.54903 0.0
H2781 H 0.849 0.65427 0.60286 0.0
H2782 H 0.8411 0.71306 0.67889 0.0
H2783 H 0.85467 0.69913 0.65154 0.0
H2784 H 0.83581 0.72566 0.59764 0.0
C2785 C 0.84534 0.67307 0.55035 0.0
C2786 C 0.8462 0.66986 0.60151 0.0
C2787 C 0.83988 0.66276 0.5345 0.0
C2788 C 0.83461 0.71635 0.66565 0.0
C2789 C 0.84236 0.70839 0.65001 0.0
C2790 C 0.83882 0.7101 0.59898 0.0
C2791 C 0.84043 0.66595 0.5676 0.0
C2792 C 0.84306 0.67843 0.58421 0.0
C2793 C 0.83393 0.71188 0.63267 0.0
C2794 C 0.84 0.70113 0.61625 0.0
H2795 H 0.81805 0.62345 0.55407 0.0
H2796 H 0.82668 0.64174 0.58157 0.0
H2797 H 0.83763 0.70609 0.57014 0.0
H2798 H 0.7978 0.74092 0.64527 0.0
H2799 H 0.81097 0.72693 0.61825 0.0
C2800 C 0.74542 0.58986 0.4958 0.0
C2801 C 0.75157 0.60944 0.49361 0.0
C2802 C 0.7262 0.58533 0.49608 0.0
C2803 C 0.68232 0.59972 0.51045 0.0
H2804 H 0.65978 0.56741 0.47166 0.0
C2805 C 0.60686 0.56746 0.51538 0.0
C2806 C 0.60459 0.54772 0.50979 0.0
C2807 C 0.6232 0.57812 0.51129 0.0
C2808 C 0.66586 0.57633 0.48267 0.0
H2809 H 0.74246 0.63967 0.49025 0.0
H2810 H 0.70857 0.63166 0.49144 0.0
H2811 H 0.69194 0.58018 0.46901 0.0
H2812 H 0.61737 0.52407 0.49476 0.0
H2813 H 0.64607 0.54214 0.48852 0.0
H2814 H 0.65695 0.5948 0.52482 0.0
C2815 C 0.71879 0.61994 0.49262 0.0
C2816 C 0.68416 0.58376 0.48103 0.0
C2817 C 0.73809 0.62446 0.49194 0.0
C2818 C 0.61879 0.5391 0.49962 0.0
C2819 C 0.63516 0.54964 0.49573 0.0
C2820 C 0.6641 0.592 0.51228 0.0
C2821 C 0.71279 0.60032 0.49453 0.0
C2822 C 0.69261 0.59515 0.49506 0.0
C2823 C 0.63768 0.56924 0.50163 0.0
C2824 C 0.65584 0.57976 0.49861 0.0
H2825 H 0.75547 0.57797 0.49694 0.0
H2826 H 0.72176 0.57011 0.49762 0.0
H2827 H 0.68875 0.60838 0.52148 0.0
H2828 H 0.59626 0.57456 0.52331 0.0
H2829 H 0.62454 0.59325 0.51586 0.0
C2830 C 0.23008 0.94761 0.54042 0.0
C2831 C 0.23233 0.92743 0.54387 0.0
C2832 C 0.21267 0.95657 0.5431 0.0
C2833 C 0.16193 0.94275 0.5465 0.0
H2834 H 0.15625 -0.00177 0.55741 0.0
C2835 C 0.08901 0.97666 0.55523 0.0
C2836 C 0.08506 0.99251 0.54342 0.0
C2837 C 0.10751 0.97014 0.55801 0.0
C2838 C 0.15769 0.98271 0.55438 0.0
H2839 H 0.21884 0.90109 0.55411 0.0
H2840 H 0.18892 0.91683 0.55981 0.0
H2841 H 0.18781 0.98386 0.55806 0.0
H2842 H 0.09757 0.0147 0.52612 0.0
H2843 H 0.13003 0.00341 0.53127 0.0
H2844 H 0.13182 0.94158 0.54309 0.0
C2845 C 0.20014 0.92566 0.55419 0.0
C2846 C 0.17575 0.97447 0.55464 0.0
C2847 C 0.21735 0.91663 0.55109 0.0
C2848 C 0.10015 0.00238 0.53523 0.0
C2849 C 0.11872 0.99601 0.53824 0.0
C2850 C 0.14394 0.95089 0.54657 0.0
C2851 C 0.19731 0.94559 0.54964 0.0
C2852 C 0.17813 0.95438 0.55054 0.0
C2853 C 0.12249 0.9795 0.54927 0.0
C2854 C 0.14164 0.97096 0.55035 0.0
H2855 H 0.24143 0.95623 0.53477 0.0
H2856 H 0.21109 0.97188 0.53927 0.0
H2857 H 0.16307 0.9274 0.54274 0.0
H2858 H 0.07772 0.96876 0.56178 0.0
H2859 H 0.11009 0.95746 0.56668 0.0
C2860 C 0.36549 0.9585 0.77044 0.0
C2861 C 0.3852 0.95691 0.7728 0.0
C2862 C 0.35376 0.94203 0.7726 0.0
C2863 C 0.35337 0.89183 0.79277 0.0
H2864 H 0.31 0.8838 0.75975 0.0
C2865 C 0.31497 0.81712 0.78222 0.0
C2866 C 0.29516 0.8171 0.78031 0.0
C2867 C 0.3251 0.83485 0.78362 0.0
C2868 C 0.3219 0.886 0.76925 0.0
H2869 H 0.40805 0.93665 0.77895 0.0
H2870 H 0.38768 0.9079 0.78218 0.0
H2871 H 0.32948 0.91338 0.75695 0.0
H2872 H 0.27036 0.83561 0.77904 0.0
H2873 H 0.28814 0.86664 0.78134 0.0
H2874 H 0.34605 0.86405 0.80464 0.0
C2875 C 0.38121 0.92196 0.77914 0.0
C2876 C 0.33307 0.90295 0.76765 0.0
C2877 C 0.39292 0.93843 0.77713 0.0
C2878 C 0.28563 0.83515 0.7805 0.0
C2879 C 0.29579 0.8529 0.7817 0.0
C2880 C 0.34228 0.8748 0.79425 0.0
C2881 C 0.36148 0.92356 0.77703 0.0
C2882 C 0.34907 0.90598 0.77927 0.0
C2883 C 0.31563 0.85292 0.78296 0.0
C2884 C 0.32654 0.87164 0.7824 0.0
H2885 H 0.35906 0.97254 0.76727 0.0
H2886 H 0.33861 0.94386 0.77109 0.0
H2887 H 0.36535 0.89388 0.80219 0.0
H2888 H 0.32272 0.80345 0.78216 0.0
H2889 H 0.34039 0.83442 0.78444 0.0
C2890 C 0.34754 0.07713 0.03519 0.0
C2891 C 0.3519 0.09348 0.02427 0.0
C2892 C 0.36202 0.06634 0.0438 0.0
C2893 C 0.41285 0.06917 0.05693 0.0
H2894 H 0.41396 0.01396 0.04359 0.0
C2895 C 0.4699 0.01527 0.02805 0.0
C2896 C 0.48574 0.02028 0.0392 0.0
C2897 C 0.45185 0.02036 0.03319 0.0
C2898 C 0.41379 0.0293 0.04765 0.0
H2899 H 0.37462 0.11169 0.01415 0.0
H2900 H 0.39971 0.09294 0.02898 0.0
H2901 H 0.38455 0.0321 0.03983 0.0
H2902 H 0.49504 0.03321 0.06511 0.0
H2903 H 0.46339 0.04204 0.07415 0.0
H2904 H 0.44237 0.06702 0.06309 0.0
C2905 C 0.3852 0.08851 0.0311 0.0
C2906 C 0.3969 0.03962 0.04568 0.0
C2907 C 0.37084 0.09909 0.02239 0.0
C2908 C 0.4831 0.0295 0.05607 0.0
C2909 C 0.46499 0.03448 0.06128 0.0
C2910 C 0.42973 0.05892 0.0588 0.0
C2911 C 0.38097 0.07199 0.04181 0.0
C2912 C 0.39664 0.05992 0.04924 0.0
C2913 C 0.44922 0.03044 0.04966 0.0
C2914 C 0.43061 0.03919 0.0531 0.0
H2915 H 0.33301 0.07255 0.03691 0.0
H2916 H 0.35843 0.05359 0.0519 0.0
H2917 H 0.41287 0.08476 0.06011 0.0
H2918 H 0.47147 0.00801 0.01503 0.0
H2919 H 0.44009 0.01732 0.02373 0.0
C2920 C 0.64351 0.57403 0.75561 0.0
C2921 C 0.65083 0.55548 0.75142 0.0
C2922 C 0.65341 0.59125 0.75143 0.0
C2923 C 0.70139 0.60954 0.74199 0.0
H2924 H 0.67436 0.65675 0.72765 0.0
C2925 C 0.73864 0.68434 0.72705 0.0
C2926 C 0.73108 0.7004 0.73633 0.0
C2927 C 0.72912 0.66614 0.72659 0.0
C2928 C 0.68209 0.64367 0.73164 0.0
H2929 H 0.67418 0.54054 0.73913 0.0
H2930 H 0.69128 0.57062 0.73153 0.0
H2931 H 0.65706 0.62576 0.73075 0.0
H2932 H 0.70753 0.71007 0.75216 0.0
H2933 H 0.69099 0.67851 0.7512 0.0
H2934 H 0.72642 0.62763 0.74295 0.0
C2935 C 0.67803 0.57183 0.73837 0.0
C2936 C 0.67218 0.62594 0.7335 0.0
C2937 C 0.66817 0.55458 0.74266 0.0
C2938 C 0.71377 0.69799 0.74492 0.0
C2939 C 0.7042 0.67995 0.74427 0.0
C2940 C 0.71133 0.62728 0.73998 0.0
C2941 C 0.67083 0.59037 0.74282 0.0
C2942 C 0.68164 0.60875 0.7391 0.0
C2943 C 0.71178 0.66382 0.73516 0.0
C2944 C 0.7017 0.64459 0.73519 0.0
H2945 H 0.63026 0.5753 0.76246 0.0
H2946 H 0.64759 0.60525 0.75536 0.0
H2947 H 0.70911 0.59665 0.74651 0.0
H2948 H 0.75196 0.68577 0.72031 0.0
H2949 H 0.73523 0.65392 0.71944 0.0
C2950 C 0.85089 0.39391 0.01811 0.0
C2951 C 0.83317 0.40296 0.01899 0.0
C2952 C 0.86742 0.40519 0.01781 0.0
C2953 C 0.88707 0.45302 0.0062 0.0
H2954 H 0.92737 0.43882 0.04074 0.0
C2955 C 0.95591 0.49932 0.01589 0.0
C2956 C 0.97275 0.48931 0.02015 0.0
C2957 C 0.93862 0.48919 0.01497 0.0
C2958 C 0.91642 0.44281 0.03078 0.0
H2959 H 0.81895 0.43108 0.01976 0.0
H2960 H 0.84811 0.45091 0.01895 0.0
H2961 H 0.8975 0.42078 0.04065 0.0
H2962 H 0.9848 0.46068 0.026 0.0
H2963 H 0.95478 0.44287 0.02374 0.0
H2964 H 0.90614 0.47472 0.99597 0.0
C2965 C 0.84901 0.435 0.01862 0.0
C2966 C 0.89926 0.43255 0.03085 0.0
C2967 C 0.83238 0.42366 0.01917 0.0
C2968 C 0.97204 0.46884 0.02284 0.0
C2969 C 0.95479 0.45867 0.02169 0.0
C2970 C 0.90437 0.46317 0.00597 0.0
C2971 C 0.86668 0.42581 0.01818 0.0
C2972 C 0.88447 0.43747 0.01851 0.0
C2973 C 0.9378 0.46876 0.01809 0.0
C2974 C 0.91931 0.45811 0.01821 0.0
H2975 H 0.85208 0.37801 0.01795 0.0
H2976 H 0.88085 0.39775 0.01726 0.0
H2977 H 0.87591 0.45697 0.99645 0.0
H2978 H 0.95598 0.51513 0.01384 0.0
H2979 H 0.92584 0.49751 0.01237 0.0
C2980 C 0.37934 0.08337 0.75312 0.0
C2981 C 0.37217 0.06458 0.74856 0.0
C2982 C 0.36932 0.10022 0.74807 0.0
C2983 C 0.3494 0.13456 0.73012 0.0
H2984 H 0.29552 0.13288 0.73784 0.0
C2985 C 0.30535 0.20536 0.72752 0.0
C2986 C 0.29352 0.20756 0.74238 0.0
C2987 C 0.3132 0.18704 0.72373 0.0
C2988 C 0.31055 0.1336 0.73557 0.0
H2989 H 0.34926 0.04868 0.7345 0.0
H2990 H 0.33187 0.07814 0.72542 0.0
H2991 H 0.31361 0.10267 0.73999 0.0
H2992 H 0.27986 0.19203 0.7643 0.0
H2993 H 0.29374 0.16041 0.75794 0.0
H2994 H 0.34655 0.16569 0.72691 0.0
C2995 C 0.34507 0.07986 0.7332 0.0
C2996 C 0.3209 0.11622 0.73659 0.0
C2997 C 0.35506 0.06298 0.73835 0.0
C2998 C 0.28897 0.19089 0.75278 0.0
C2999 C 0.29682 0.17265 0.74902 0.0
C3000 C 0.33906 0.15196 0.72923 0.0
C3001 C 0.35195 0.09868 0.73823 0.0
C3002 C 0.34056 0.11658 0.73443 0.0
C3003 C 0.30937 0.17058 0.73471 0.0
C3004 C 0.31962 0.15177 0.73251 0.0
H3005 H 0.39248 0.08509 0.76099 0.0
H3006 H 0.3749 0.11442 0.75246 0.0
H3007 H 0.36445 0.13531 0.72801 0.0
H3008 H 0.30902 0.2179 0.71917 0.0
H3009 H 0.3226 0.18588 0.71244 0.0
C3010 C 0.16817 0.92642 0.26431 0.0
C3011 C 0.17482 0.9451 0.25914 0.0
C3012 C 0.17819 0.90952 0.26014 0.0
C3013 C 0.19655 0.87537 0.24155 0.0
H3014 H 0.25061 0.87495 0.25194 0.0
C3015 C 0.23869 0.80386 0.23594 0.0
C3016 C 0.25043 0.79987 0.25132 0.0
C3017 C 0.23138 0.82272 0.23317 0.0
C3018 C 0.23553 0.87486 0.24891 0.0
H3019 H 0.19713 0.96073 0.24543 0.0
H3020 H 0.21471 0.93108 0.23814 0.0
H3021 H 0.23333 0.90569 0.25451 0.0
H3022 H 0.26457 0.8128 0.27527 0.0
H3023 H 0.25167 0.84547 0.27058 0.0
H3024 H 0.19852 0.84441 0.23685 0.0
C3025 C 0.20177 0.92957 0.2455 0.0
C3026 C 0.22566 0.8925 0.25021 0.0
C3027 C 0.19168 0.94653 0.24963 0.0
C3028 C 0.25549 0.81534 0.26332 0.0
C3029 C 0.2482 0.83416 0.26055 0.0
C3030 C 0.2064 0.85775 0.24024 0.0
C3031 C 0.19511 0.91089 0.25072 0.0
C3032 C 0.20598 0.89282 0.24704 0.0
C3033 C 0.2357 0.83796 0.24569 0.0
C3034 C 0.22592 0.85718 0.24437 0.0
H3035 H 0.15525 0.92481 0.27167 0.0
H3036 H 0.17286 0.89539 0.26465 0.0
H3037 H 0.18144 0.87521 0.23872 0.0
H3038 H 0.23464 0.79228 0.22637 0.0
H3039 H 0.22199 0.82527 0.22145 0.0
C3040 C 0.47111 0.37887 0.38744 0.0
C3041 C 0.4814 0.36971 0.37393 0.0
C3042 C 0.47665 0.39737 0.39399 0.0
C3043 C 0.52201 0.41811 0.40439 0.0
H3044 H 0.49166 0.45233 0.43357 0.0
C3045 C 0.54347 0.45823 0.47404 0.0
C3046 C 0.53143 0.45129 0.48759 0.0
C3047 C 0.53994 0.4532 0.4557 0.0
C3048 C 0.5004 0.44318 0.42526 0.0
H3049 H 0.50387 0.37343 0.35489 0.0
H3050 H 0.51387 0.4058 0.3666 0.0
H3051 H 0.47808 0.43818 0.40534 0.0
H3052 H 0.50745 0.43208 0.49274 0.0
H3053 H 0.50139 0.42344 0.46086 0.0
H3054 H 0.54387 0.4221 0.42512 0.0
C3055 C 0.5015 0.39876 0.3721 0.0
C3056 C 0.49268 0.43514 0.40912 0.0
C3057 C 0.49571 0.38031 0.36532 0.0
C3058 C 0.51692 0.43782 0.48267 0.0
C3059 C 0.51329 0.43304 0.46442 0.0
C3060 C 0.52979 0.42631 0.42048 0.0
C3061 C 0.49283 0.40679 0.38735 0.0
C3062 C 0.50294 0.42139 0.39925 0.0
C3063 C 0.52427 0.44133 0.45078 0.0
C3064 C 0.51858 0.43784 0.43155 0.0
H3065 H 0.46 0.37091 0.39421 0.0
H3066 H 0.46963 0.40306 0.40575 0.0
H3067 H 0.5303 0.40752 0.39716 0.0
H3068 H 0.55478 0.46863 0.47738 0.0
H3069 H 0.54873 0.45945 0.44532 0.0
C3070 C 0.44618 0.74502 0.16393 0.0
C3071 C 0.4632 0.74654 0.17429 0.0
C3072 C 0.42888 0.74352 0.17246 0.0
C3073 C 0.40664 0.73409 0.21713 0.0
H3074 H 0.36526 0.76304 0.19428 0.0
C3075 C 0.33605 0.74856 0.25272 0.0
C3076 C 0.31934 0.74564 0.24207 0.0
C3077 C 0.35372 0.74817 0.24471 0.0
C3078 C 0.37661 0.75473 0.20075 0.0
H3079 H 0.47547 0.74709 0.20177 0.0
H3080 H 0.44519 0.74493 0.21676 0.0
H3081 H 0.39579 0.76273 0.18009 0.0
H3082 H 0.30814 0.74016 0.2146 0.0
H3083 H 0.33893 0.73972 0.20062 0.0
H3084 H 0.38735 0.7265 0.23802 0.0
C3085 C 0.4452 0.74456 0.202 0.0
C3086 C 0.39415 0.75446 0.19258 0.0
C3087 C 0.46259 0.74583 0.19341 0.0
C3088 C 0.32071 0.74252 0.2232 0.0
C3089 C 0.33836 0.74233 0.21517 0.0
C3090 C 0.38909 0.73451 0.2254 0.0
C3091 C 0.42807 0.74379 0.19162 0.0
C3092 C 0.40941 0.74403 0.20056 0.0
C3093 C 0.35508 0.74506 0.22583 0.0
C3094 C 0.37384 0.74476 0.21725 0.0
H3095 H 0.44618 0.74532 0.14915 0.0
H3096 H 0.4161 0.74239 0.16397 0.0
H3097 H 0.41794 0.72571 0.22359 0.0
H3098 H 0.33553 0.75095 0.2673 0.0
H3099 H 0.36632 0.75052 0.25327 0.0
C3100 C 0.99774 0.74572 0.90156 0.0
C3101 C 0.99164 0.76015 0.91374 0.0
C3102 C 0.00216 0.72681 0.90785 0.0
C3103 C 0.01198 0.6983 0.95033 0.0
H3104 H 0.98742 0.65498 0.92397 0.0
C3105 C 0.99132 0.62716 0.9858 0.0
C3106 C 0.99766 0.60952 0.97822 0.0
C3107 C 0.9924 0.64474 0.97607 0.0
C3108 C 0.99455 0.66692 0.93131 0.0
H3109 H 0.98644 0.76636 0.94219 0.0
H3110 H 0.99387 0.73362 0.953 0.0
H3111 H 0.98804 0.68784 0.91022 0.0
H3112 H 0.00922 0.59636 0.95407 0.0
H3113 H 0.01051 0.62717 0.93683 0.0
H3114 H 0.01763 0.67762 0.97178 0.0
C3115 C 0.9954 0.73681 0.93865 0.0
C3116 C 0.99502 0.68567 0.92344 0.0
C3117 C 0.99094 0.75558 0.93239 0.0
C3118 C 0.00406 0.60966 0.96024 0.0
C3119 C 0.00493 0.62727 0.95041 0.0
C3120 C 0.01133 0.67967 0.95824 0.0
C3121 C 0.00072 0.72209 0.92643 0.0
C3122 C 0.00323 0.70167 0.93314 0.0
C3123 C -0.00039 0.645 0.95848 0.0
C3124 C 0.00213 0.66398 0.94903 0.0
H3125 H 0.99847 0.74881 0.8871 0.0
H3126 H 0.00639 0.71579 0.89816 0.0
H3127 H 0.01878 0.71023 0.95796 0.0
H3128 H 0.98591 0.62749 -0.00056 0.0
H3129 H 0.98783 0.65821 0.98241 0.0
C3130 C 0.07883 0.26074 0.67749 0.0
C3131 C 0.0773 0.26929 0.66003 0.0
C3132 C 0.09643 0.25983 0.68688 0.0
C3133 C 0.14774 0.26124 0.67814 0.0
H3134 H 0.15377 0.27079 0.73014 0.0
C3135 C 0.22132 0.27001 0.71443 0.0
C3136 C 0.2238 0.2615 0.73182 0.0
C3137 C 0.20335 0.27059 0.70582 0.0
C3138 C 0.15231 0.26786 0.71564 0.0
H3139 H 0.09304 0.28445 0.6392 0.0
H3140 H 0.12331 0.28308 0.65554 0.0
H3141 H 0.1224 0.2726 0.71535 0.0
H3142 H 0.20932 0.24661 0.75362 0.0
H3143 H 0.17821 0.24743 0.73853 0.0
H3144 H 0.17758 0.25654 0.67836 0.0
C3145 C 0.1111 0.2766 0.66183 0.0
C3146 C 0.1343 0.26889 0.70717 0.0
C3147 C 0.09364 0.27747 0.6525 0.0
C3148 C 0.20795 0.25336 0.74025 0.0
C3149 C 0.19004 0.25395 0.73166 0.0
C3150 C 0.16571 0.26022 0.68659 0.0
C3151 C 0.11284 0.26747 0.67899 0.0
C3152 C 0.13182 0.26574 0.68828 0.0
C3153 C 0.18746 0.26269 0.71439 0.0
C3154 C 0.16826 0.2636 0.70543 0.0
H3155 H 0.06656 0.25429 0.6837 0.0
H3156 H 0.09728 0.25265 0.70006 0.0
H3157 H 0.14631 0.25834 0.66362 0.0
H3158 H 0.2332 0.27648 0.70758 0.0
H3159 H 0.20186 0.2776 0.69258 0.0
C3160 C 0.52149 0.70196 0.10068 0.0
C3161 C 0.51644 0.70698 0.11849 0.0
C3162 C 0.52324 0.68237 0.09554 0.0
C3163 C 0.5093 0.63178 0.10445 0.0
H3164 H 0.55454 0.62037 0.07813 0.0
C3165 C 0.52389 0.55472 0.07344 0.0
C3166 C 0.52999 0.5551 0.05536 0.0
C3167 C 0.52323 0.5721 0.08369 0.0
C3168 C 0.54181 0.6233 0.0854 0.0
H3169 H 0.50836 0.69504 0.14458 0.0
H3170 H 0.51122 0.66039 0.13533 0.0
H3171 H 0.55071 0.65282 0.0916 0.0
H3172 H 0.54051 0.57399 0.03403 0.0
H3173 H 0.53934 0.60417 0.05181 0.0
H3174 H 0.50013 0.60237 0.09767 0.0
C3175 C 0.51398 0.67191 0.12553 0.0
C3176 C 0.53964 0.64186 0.09316 0.0
C3177 C 0.51232 0.69172 0.13079 0.0
C3178 C 0.53578 0.57315 0.04791 0.0
C3179 C 0.53521 0.59046 0.05816 0.0
C3180 C 0.51145 0.61313 0.0966 0.0
C3181 C 0.51992 0.66713 0.10796 0.0
C3182 C 0.52314 0.64649 0.10229 0.0
C3183 C 0.52881 0.59018 0.07612 0.0
C3184 C 0.52749 0.60891 0.08653 0.0
H3185 H 0.52452 0.7132 0.09068 0.0
H3186 H 0.52739 0.67913 0.08177 0.0
H3187 H 0.49644 0.63499 0.1114 0.0
H3188 H 0.51931 0.54105 0.07959 0.0
H3189 H 0.51838 0.57138 0.09753 0.0
C3190 C 0.04455 0.81947 0.85985 0.0
C3191 C 0.02927 0.80753 0.85385 0.0
C3192 C 0.06143 0.8195 0.85061 0.0
C3193 C 0.08223 0.80516 0.80672 0.0
H3194 H 0.12917 0.80961 0.83536 0.0
C3195 C 0.15645 0.78746 0.78038 0.0
C3196 C 0.17131 0.80047 0.78551 0.0
C3197 C 0.13841 0.78997 0.78707 0.0
C3198 C 0.11616 0.8086 0.82717 0.0
H3199 H 0.01962 0.78616 0.83353 0.0
H3200 H 0.04941 0.7856 0.81771 0.0
H3201 H 0.09927 0.80978 0.85067 0.0
H3202 H 0.17847 0.82709 0.80077 0.0
H3203 H 0.14705 0.83113 0.81282 0.0
H3204 H 0.09943 0.80323 0.78326 0.0
C3205 C 0.04821 0.79536 0.82929 0.0
C3206 C 0.09899 0.80874 0.83592 0.0
C3207 C 0.03119 0.79554 0.83843 0.0
C3208 C 0.16748 0.81655 0.79685 0.0
C3209 C 0.14949 0.81893 0.8037 0.0
C3210 C 0.09946 0.80476 0.79798 0.0
C3211 C 0.06355 0.80735 0.83529 0.0
C3212 C 0.08179 0.80708 0.82582 0.0
C3213 C 0.13492 0.80542 0.79918 0.0
C3214 C 0.11657 0.80655 0.80814 0.0
H3215 H 0.04341 0.82906 0.87157 0.0
H3216 H 0.07275 0.82925 0.85539 0.0
H3217 H 0.06927 0.80414 0.79847 0.0
H3218 H 0.15891 0.77475 0.77189 0.0
H3219 H 0.12744 0.77926 0.7835 0.0
C3220 C 0.02515 0.33168 0.63847 0.0
C3221 C 0.02451 0.31407 0.62837 0.0
C3222 C 0.02924 0.34962 0.62992 0.0
C3223 C 0.02671 0.3727 0.58461 0.0
H3224 H 0.06085 0.4122 0.60577 0.0
C3225 C 0.04699 0.4411 0.54371 0.0
C3226 C 0.04695 0.45924 0.55291 0.0
C3227 C 0.04618 0.42344 0.55343 0.0
C3228 C 0.05116 0.40138 0.59976 0.0
H3229 H 0.02815 0.30135 0.60157 0.0
H3230 H 0.0353 0.33245 0.58679 0.0
H3231 H 0.05529 0.38138 0.6222 0.0
H3232 H 0.04681 0.47309 0.5796 0.0
H3233 H 0.04506 0.44226 0.59653 0.0
H3234 H 0.02225 0.39259 0.56237 0.0
C3235 C 0.03242 0.33251 0.60121 0.0
C3236 C 0.04798 0.38376 0.60917 0.0
C3237 C 0.02841 0.31467 0.60972 0.0
C3238 C 0.04688 0.45934 0.5721 0.0
C3239 C 0.04595 0.44165 0.58182 0.0
C3240 C 0.02981 0.39027 0.57527 0.0
C3241 C 0.03265 0.35021 0.61113 0.0
C3242 C 0.03582 0.36919 0.6016 0.0
C3243 C 0.04515 0.42351 0.57257 0.0
C3244 C 0.04216 0.40478 0.58265 0.0
H3245 H 0.02224 0.33164 0.65288 0.0
H3246 H 0.02924 0.36306 0.63789 0.0
H3247 H 0.01696 0.36193 0.57859 0.0
H3248 H 0.04721 0.44051 0.52895 0.0
H3249 H 0.04603 0.40971 0.5459 0.0
C3250 C 0.42554 0.29297 0.35083 0.0
C3251 C 0.42464 0.30521 0.36625 0.0
C3252 C 0.40936 0.28317 0.34395 0.0
C3253 C 0.35737 0.28486 0.34422 0.0
H3254 H 0.36047 0.23153 0.32559 0.0
C3255 C 0.29177 0.24825 0.31295 0.0
C3256 C 0.29444 0.24221 0.29489 0.0
C3257 C 0.30729 0.25121 0.32492 0.0
C3258 C 0.35941 0.24638 0.33083 0.0
H3259 H 0.40593 0.31679 0.38645 0.0
H3260 H 0.37792 0.29958 0.37459 0.0
H3261 H 0.38863 0.2475 0.33936 0.0
H3262 H 0.31515 0.23206 0.27597 0.0
H3263 H 0.34217 0.23739 0.2968 0.0
H3264 H 0.32836 0.284 0.33539 0.0
C3265 C 0.39105 0.29775 0.36765 0.0
C3266 C 0.37553 0.25558 0.33859 0.0
C3267 C 0.40715 0.30762 0.37446 0.0
C3268 C 0.31264 0.23694 0.28974 0.0
C3269 C 0.32816 0.23993 0.30172 0.0
C3270 C 0.3413 0.27566 0.33657 0.0
C3271 C 0.39197 0.28534 0.35238 0.0
C3272 C 0.37473 0.27504 0.34509 0.0
C3273 C 0.32571 0.24815 0.31905 0.0
C3274 C 0.34219 0.25644 0.32954 0.0
H3275 H 0.43877 0.29079 0.34416 0.0
H3276 H 0.41046 0.27399 0.33195 0.0
H3277 H 0.35632 0.29995 0.34883 0.0
H3278 H 0.27788 0.25216 0.31743 0.0
H3279 H 0.30498 0.25714 0.33838 0.0
C3280 C 0.40644 0.50333 0.36222 0.0
C3281 C 0.41781 0.50201 0.34696 0.0
C3282 C 0.41471 0.50499 0.37979 0.0
C3283 C 0.46037 0.49793 0.40551 0.0
H3284 H 0.43802 0.53198 0.44119 0.0
C3285 C 0.49957 0.51766 0.47265 0.0
C3286 C 0.48971 0.51199 0.48814 0.0
C3287 C 0.49015 0.51891 0.45565 0.0
C3288 C 0.44437 0.52245 0.43132 0.0
H3289 H 0.44669 0.50142 0.33805 0.0
H3290 H 0.46105 0.50486 0.36842 0.0
H3291 H 0.42271 0.52806 0.41095 0.0
H3292 H 0.46206 0.50483 0.49831 0.0
H3293 H 0.44553 0.50757 0.46859 0.0
H3294 H 0.48219 0.49266 0.42578 0.0
C3295 C 0.44578 0.50411 0.36703 0.0
C3296 C 0.43556 0.52005 0.41407 0.0
C3297 C 0.43754 0.50224 0.34956 0.0
C3298 C 0.47001 0.50921 0.48658 0.0
C3299 C 0.46055 0.51078 0.46961 0.0
C3300 C 0.46929 0.50057 0.42261 0.0
C3301 C 0.4345 0.50554 0.38239 0.0
C3302 C 0.44349 0.50778 0.40093 0.0
C3303 C 0.47068 0.51486 0.45391 0.0
C3304 C 0.4614 0.51288 0.43563 0.0
H3305 H 0.39118 0.50315 0.3606 0.0
H3306 H 0.40558 0.50574 0.39131 0.0
H3307 H 0.46666 0.48799 0.39595 0.0
H3308 H 0.51476 0.5198 0.4734 0.0
H3309 H 0.49821 0.52226 0.44372 0.0
C3310 C 0.27608 0.66676 0.04595 0.0
C3311 C 0.27834 0.64765 0.03904 0.0
C3312 C 0.27207 0.6696 0.0642 0.0
C3313 C 0.24511 0.66549 0.09542 0.0
H3314 H 0.27534 0.65407 0.13913 0.0
C3315 C 0.23442 0.70446 0.16306 0.0
C3316 C 0.23899 0.69489 0.17957 0.0
C3317 C 0.23688 0.69498 0.14645 0.0
C3318 C 0.2665 0.6569 0.12709 0.0
H3319 H 0.28023 0.61671 0.04633 0.0
H3320 H 0.27357 0.62189 0.07859 0.0
H3321 H 0.28672 0.64454 0.10925 0.0
H3322 H 0.24852 0.66742 0.19169 0.0
H3323 H 0.25232 0.65066 0.16261 0.0
H3324 H 0.22493 0.67794 0.11295 0.0
C3325 C 0.27461 0.63452 0.06963 0.0
C3326 C 0.27311 0.65155 0.11004 0.0
C3327 C 0.27849 0.63161 0.05122 0.0
C3328 C 0.24478 0.67515 0.17917 0.0
C3329 C 0.2472 0.66563 0.16253 0.0
C3330 C 0.2384 0.6706 0.1124 0.0
C3331 C 0.27049 0.65344 0.07595 0.0
C3332 C 0.26272 0.65644 0.0941 0.0
C3333 C 0.24387 0.67568 0.14599 0.0
C3334 C 0.24931 0.667 0.12839 0.0
H3335 H 0.27618 0.67948 0.03703 0.0
H3336 H 0.26928 0.68437 0.06895 0.0
H3337 H 0.23674 0.66907 0.08323 0.0
H3338 H 0.22973 0.71959 0.16296 0.0
H3339 H 0.23431 0.70325 0.134 0.0
C3340 C 0.12015 0.52084 0.85825 0.0
C3341 C 0.13716 0.51104 0.85553 0.0
C3342 C 0.11221 0.52086 0.87535 0.0
C3343 C 0.10835 0.49113 0.9159 0.0
H3344 H 0.08537 0.538 0.93517 0.0
C3345 C 0.06607 0.49321 0.98276 0.0
C3346 C 0.05009 0.50532 0.98234 0.0
C3347 C 0.07805 0.4929 0.96797 0.0
C3348 C 0.09158 0.52474 0.92988 0.0
H3349 H 0.1595 0.49396 0.86855 0.0
H3350 H 0.14529 0.4937 0.89867 0.0
H3351 H 0.10539 0.54069 0.90891 0.0
H3352 H 0.03331 0.52541 0.96563 0.0
H3353 H 0.05387 0.52449 0.93977 0.0
H3354 H 0.09401 0.47509 0.93658 0.0
C3355 C 0.13825 0.50144 0.8875 0.0
C3356 C 0.10314 0.52633 0.91495 0.0
C3357 C 0.14641 0.5017 0.87036 0.0
C3358 C 0.04563 0.51609 0.96644 0.0
C3359 C 0.05751 0.51571 0.9517 0.0
C3360 C 0.09667 0.48952 0.93085 0.0
C3361 C 0.12097 0.51087 0.89005 0.0
C3362 C 0.11126 0.50949 0.90754 0.0
C3363 C 0.07418 0.50466 0.95255 0.0
C3364 C 0.08777 0.50626 0.93767 0.0
H3365 H 0.11273 0.52818 0.84707 0.0
H3366 H 0.09878 0.52807 0.87688 0.0
H3367 H 0.11434 0.4779 0.91033 0.0
H3368 H 0.0699 0.48478 0.99485 0.0
H3369 H 0.09078 0.48421 0.969 0.0
C3370 C 0.2599 0.34547 0.55622 0.0
C3371 C 0.26241 0.36286 0.54621 0.0
C3372 C 0.26954 0.34278 0.57289 0.0
C3373 C 0.2956 0.36826 0.6105 0.0
H3374 H 0.31211 0.31493 0.62021 0.0
C3375 C 0.30367 0.33635 0.68213 0.0
C3376 C 0.31397 0.31904 0.6849 0.0
C3377 C 0.30346 0.34569 0.66517 0.0
C3378 C 0.30815 0.33007 0.61772 0.0
H3379 H 0.27654 0.39141 0.54613 0.0
H3380 H 0.29367 0.38654 0.57528 0.0
H3381 H 0.29911 0.32321 0.59038 0.0
H3382 H 0.33387 0.29911 0.67323 0.0
H3383 H 0.3345 0.31605 0.64386 0.0
H3384 H 0.30485 0.37513 0.6379 0.0
C3385 C 0.28409 0.37507 0.57024 0.0
C3386 C 0.30028 0.33471 0.60062 0.0
C3387 C 0.27427 0.37785 0.55357 0.0
C3388 C 0.32568 0.31237 0.67123 0.0
C3389 C 0.32586 0.32199 0.6544 0.0
C3390 C 0.30375 0.36368 0.62762 0.0
C3391 C 0.28212 0.35731 0.57987 0.0
C3392 C 0.29313 0.35358 0.59708 0.0
C3393 C 0.31381 0.338 0.65079 0.0
C3394 C 0.3094 0.3443 0.63168 0.0
H3395 H 0.25067 0.33376 0.55105 0.0
H3396 H 0.26722 0.32919 0.58025 0.0
H3397 H 0.29038 0.383 0.60813 0.0
H3398 H 0.29446 0.34166 0.69252 0.0
H3399 H 0.29391 0.35786 0.66299 0.0
C3400 C 0.44989 0.49231 0.24692 0.0
C3401 C 0.43088 0.48983 0.25128 0.0
C3402 C 0.4556 0.48929 0.22915 0.0
C3403 C 0.43849 0.48301 0.18094 0.0
H3404 H 0.48786 0.45947 0.17685 0.0
C3405 C 0.47419 0.45742 0.11343 0.0
C3406 C 0.48982 0.46981 0.11011 0.0
C3407 C 0.46547 0.45786 0.1303 0.0
C3408 C 0.47398 0.46586 0.17785 0.0
H3409 H 0.40276 0.4829 0.24037 0.0
H3410 H 0.41282 0.47702 0.20924 0.0
H3411 H 0.47518 0.46466 0.20693 0.0
H3412 H 0.50814 0.49264 0.12221 0.0
H3413 H 0.49366 0.49237 0.15168 0.0
H3414 H 0.43749 0.48389 0.1516 0.0
C3415 C 0.42329 0.48166 0.21951 0.0
C3416 C 0.46678 0.4691 0.19504 0.0
C3417 C 0.41751 0.48504 0.23733 0.0
C3418 C 0.49661 0.48237 0.12424 0.0
C3419 C 0.48818 0.48247 0.14113 0.0
C3420 C 0.44562 0.47945 0.16367 0.0
C3421 C 0.44251 0.48328 0.21532 0.0
C3422 C 0.44919 0.47827 0.19686 0.0
C3423 C 0.47248 0.47038 0.14423 0.0
C3424 C 0.46359 0.47127 0.16208 0.0
H3425 H 0.46046 0.49624 0.25738 0.0
H3426 H 0.4704 0.49139 0.22635 0.0
H3427 H 0.42496 0.49016 0.18179 0.0
H3428 H 0.46864 0.44739 0.10303 0.0
H3429 H 0.45338 0.44835 0.13254 0.0
C3430 C 0.27574 0.63248 0.92535 0.0
C3431 C 0.26795 0.63828 0.9418 0.0
C3432 C 0.27246 0.64362 0.90952 0.0
C3433 C 0.25934 0.69458 0.89677 0.0
H3434 H 0.26083 0.67388 0.84757 0.0
C3435 C 0.25179 0.74193 0.83074 0.0
C3436 C 0.26626 0.73886 0.81843 0.0
C3437 C 0.25005 0.72962 0.84591 0.0
C3438 C 0.26034 0.6798 0.86128 0.0
H3439 H 0.24927 0.65894 0.95438 0.0
H3440 H 0.24266 0.6776 0.92675 0.0
H3441 H 0.25977 0.65112 0.87333 0.0
H3442 H 0.29054 0.72085 0.81264 0.0
H3443 H 0.2873 0.69941 0.83892 0.0
H3444 H 0.25979 0.72326 0.88458 0.0
C3445 C 0.25206 0.66517 0.92609 0.0
C3446 C 0.25984 0.66681 0.87602 0.0
C3447 C 0.25572 0.65437 0.94193 0.0
C3448 C 0.27923 0.72365 0.82185 0.0
C3449 C 0.2773 0.71122 0.83678 0.0
C3450 C 0.25954 0.70753 0.88202 0.0
C3451 C 0.26101 0.66047 0.90987 0.0
C3452 C 0.25968 0.67404 0.89399 0.0
C3453 C 0.26256 0.71391 0.84877 0.0
C3454 C 0.26043 0.70025 0.8642 0.0
H3455 H 0.28527 0.62012 0.92499 0.0
H3456 H 0.27971 0.6396 0.89732 0.0
H3457 H 0.25963 0.70077 0.91039 0.0
H3458 H 0.24158 0.7535 0.82843 0.0
H3459 H 0.23862 0.73197 0.85508 0.0
C3460 C 0.13184 0.51886 0.74549 0.0
C3461 C 0.11819 0.51958 0.75896 0.0
C3462 C 0.12699 0.5236 0.72736 0.0
C3463 C 0.09152 0.5521 0.70091 0.0
H3464 H 0.10911 0.52318 0.65931 0.0
C3465 C 0.05633 0.55519 0.62922 0.0
C3466 C 0.06766 0.55321 0.61399 0.0
C3467 C 0.06439 0.5545 0.64684 0.0
C3468 C 0.10439 0.53166 0.67077 0.0
H3469 H 0.08849 0.52438 0.76371 0.0
H3470 H 0.08005 0.53221 0.73216 0.0
H3471 H 0.11924 0.5133 0.69007 0.0
H3472 H 0.09643 0.55034 0.60521 0.0
H3473 H 0.11055 0.54943 0.63604 0.0
H3474 H 0.07633 0.57016 0.68164 0.0
C3475 C 0.09459 0.5286 0.73567 0.0
C3476 C 0.11013 0.52593 0.68839 0.0
C3477 C 0.09941 0.52394 0.75373 0.0
C3478 C 0.08736 0.55201 0.61669 0.0
C3479 C 0.09542 0.55125 0.63433 0.0
C3480 C 0.08577 0.5578 0.68331 0.0
C3481 C 0.10842 0.52908 0.72241 0.0
C3482 C 0.10344 0.53585 0.70365 0.0
C3483 C 0.08393 0.55176 0.64957 0.0
C3484 C 0.09187 0.54742 0.66808 0.0
H3485 H 0.14644 0.51563 0.74909 0.0
H3486 H 0.13795 0.52381 0.71741 0.0
H3487 H 0.08649 0.56033 0.7124 0.0
H3488 H 0.04112 0.55628 0.6275 0.0
H3489 H 0.05514 0.55488 0.65831 0.0
C3490 C 0.21029 0.37643 0.44184 0.0
C3491 C 0.21292 0.36712 0.4588 0.0
C3492 C 0.20115 0.36655 0.42731 0.0
C3493 C 0.19272 0.3163 0.41079 0.0
H3494 H 0.16634 0.34388 0.3714 0.0
C3495 C 0.18516 0.28154 0.3401 0.0
C3496 C 0.19411 0.29364 0.32732 0.0
C3497 C 0.17945 0.28934 0.35666 0.0
C3498 C 0.17343 0.3359 0.3824 0.0
H3499 H 0.20721 0.34058 0.47422 0.0
H3500 H 0.191 0.32336 0.44888 0.0
H3501 H 0.17155 0.3601 0.40093 0.0
H3502 H 0.20278 0.32377 0.32157 0.0
H3503 H 0.19247 0.33724 0.35 0.0
H3504 H 0.1954 0.29249 0.39205 0.0
C3505 C 0.1963 0.33817 0.44669 0.0
C3506 C 0.17653 0.34521 0.39925 0.0
C3507 C 0.20559 0.34802 0.4612 0.0
C3508 C 0.19573 0.31397 0.33085 0.0
C3509 C 0.1898 0.32176 0.34724 0.0
C3510 C 0.1895 0.30696 0.39401 0.0
C3511 C 0.1943 0.34718 0.42948 0.0
C3512 C 0.18705 0.33587 0.41332 0.0
C3513 C 0.18231 0.30942 0.36061 0.0
C3514 C 0.18066 0.31704 0.37939 0.0
H3515 H 0.21576 0.39117 0.43962 0.0
H3516 H 0.20018 0.37383 0.41417 0.0
H3517 H 0.20097 0.30869 0.42126 0.0
H3518 H 0.18326 0.2659 0.33765 0.0
H3519 H 0.17355 0.27954 0.3667 0.0
C3520 C 0.30774 0.35676 0.47971 0.0
C3521 C 0.29438 0.37068 0.47368 0.0
C3522 C 0.3268 0.36212 0.48188 0.0
C3523 C 0.35292 0.40768 0.49277 0.0
H3524 H 0.39641 0.37348 0.49461 0.0
C3525 C 0.4187 0.42862 0.53606 0.0
C3526 C 0.43626 0.42599 0.52815 0.0
C3527 C 0.40237 0.4201 0.52811 0.0
C3528 C 0.38443 0.38327 0.49405 0.0
H3529 H 0.29074 0.40003 0.46264 0.0
H3530 H 0.32411 0.40906 0.4655 0.0
H3531 H 0.36702 0.36222 0.47932 0.0
H3532 H 0.45061 0.41189 0.50606 0.0
H3533 H 0.42209 0.39717 0.4921 0.0
H3534 H 0.37022 0.4288 0.50723 0.0
C3535 C 0.31981 0.39434 0.4694 0.0
C3536 C 0.36756 0.37677 0.48537 0.0
C3537 C 0.30072 0.38911 0.46755 0.0
C3538 C 0.43729 0.41395 0.51261 0.0
C3539 C 0.42094 0.40554 0.50458 0.0
C3540 C 0.36972 0.41417 0.50133 0.0
C3541 C 0.33283 0.38138 0.47778 0.0
C3542 C 0.35153 0.38884 0.48482 0.0
C3543 C 0.40322 0.40895 0.51197 0.0
C3544 C 0.38559 0.40195 0.50236 0.0
H3545 H 0.30325 0.34246 0.4846 0.0
H3546 H 0.3364 0.35172 0.48833 0.0
H3547 H 0.34082 0.41728 0.49299 0.0
H3548 H 0.41754 0.43765 0.54815 0.0
H3549 H 0.389 0.4226 0.53442 0.0
C3550 C 0.82449 0.05663 0.49861 0.0
C3551 C 0.82386 0.07345 0.48748 0.0
C3552 C 0.84103 0.0455 0.50016 0.0
C3553 C 0.88685 0.03691 0.47848 0.0
H3554 H 0.90591 0.02799 0.52796 0.0
C3555 C 0.96603 0.02772 0.49673 0.0
C3556 C 0.97129 0.01477 0.51091 0.0
C3557 C 0.94695 0.03136 0.49266 0.0
C3558 C 0.90069 0.03 0.51403 0.0
H3559 H 0.8396 0.09127 0.46854 0.0
H3560 H 0.8682 0.072 0.4712 0.0
H3561 H 0.8738 0.03973 0.52275 0.0
H3562 H 0.96062 0.99488 0.53146 0.0
H3563 H 0.92744 0.00107 0.5242 0.0
H3564 H 0.91392 0.0277 0.46978 0.0
C3565 C 0.85604 0.06728 0.47872 0.0
C3566 C 0.88225 0.0367 0.51105 0.0
C3567 C 0.83969 0.07845 0.47734 0.0
C3568 C 0.95707 0.00511 0.52056 0.0
C3569 C 0.93803 0.0087 0.51645 0.0
C3570 C 0.90527 0.03017 0.48144 0.0
C3571 C 0.85705 0.0509 0.49038 0.0
C3572 C 0.87532 0.04072 0.49328 0.0
C3573 C 0.93274 0.02206 0.50263 0.0
C3574 C 0.91256 0.02712 0.49928 0.0
H3575 H 0.81247 0.05245 0.50656 0.0
H3576 H 0.8414 0.03288 0.50919 0.0
H3577 H 0.88178 0.03961 0.4646 0.0
H3578 H 0.97665 0.03538 0.48905 0.0
H3579 H 0.94336 0.04193 0.48207 0.0
C3580 C 0.68462 0.07041 0.29577 0.0
C3581 C 0.66553 0.07265 0.30001 0.0
C3582 C 0.69492 0.0862 0.2888 0.0
C3583 C 0.68763 0.13203 0.2632 0.0
H3584 H 0.73884 0.14507 0.27969 0.0
C3585 C 0.72289 0.20724 0.25219 0.0
C3586 C 0.74266 0.20843 0.2513 0.0
C3587 C 0.71388 0.18902 0.25411 0.0
C3588 C 0.7247 0.14136 0.2746 0.0
H3589 H 0.64267 0.09364 0.30123 0.0
H3590 H 0.66074 0.12116 0.28925 0.0
H3591 H 0.72262 0.11699 0.29299 0.0
H3592 H 0.76827 0.19136 0.24963 0.0
H3593 H 0.75245 0.15949 0.25268 0.0
H3594 H 0.68958 0.15655 0.245 0.0
C3595 C 0.66758 0.10706 0.291 0.0
C3596 C 0.71538 0.12535 0.28234 0.0
C3597 C 0.65731 0.09133 0.29807 0.0
C3598 C 0.75303 0.19094 0.25047 0.0
C3599 C 0.744 0.17269 0.25239 0.0
C3600 C 0.69697 0.14798 0.2554 0.0
C3601 C 0.68632 0.10451 0.28586 0.0
C3602 C 0.69662 0.12079 0.27699 0.0
C3603 C 0.72446 0.17164 0.25511 0.0
C3604 C 0.71548 0.15306 0.26127 0.0
H3605 H 0.69143 0.05625 0.29713 0.0
H3606 H 0.70936 0.08383 0.28498 0.0
H3607 H 0.67329 0.12856 0.25853 0.0
H3608 H 0.71447 0.22044 0.25273 0.0
H3609 H 0.69882 0.18877 0.2562 0.0
C3610 C 0.72891 0.91475 0.01929 0.0
C3611 C 0.72606 0.89445 0.01628 0.0
C3612 C 0.71345 0.9271 0.02128 0.0
C3613 C 0.66832 0.93141 0.00081 0.0
H3614 H 0.65372 0.96694 0.03909 0.0
C3615 C 0.5959 0.9683 -0.00026 0.0
C3616 C 0.594 0.98646 0.00856 0.0
C3617 C 0.61328 0.95881 0.00019 0.0
C3618 C 0.65783 0.95742 0.02809 0.0
H3619 H 0.70508 0.87087 0.01502 0.0
H3620 H 0.67817 0.89254 0.01816 0.0
H3621 H 0.68178 0.94657 0.0437 0.0
H3622 H 0.60898 0.00977 0.02345 0.0
H3623 H 0.63955 0.99365 0.02351 0.0
H3624 H 0.64497 0.94242 0.98488 0.0
C3625 C 0.69232 0.89882 0.01892 0.0
C3626 C 0.67375 0.94566 0.03087 0.0
C3627 C 0.70773 0.88646 0.01718 0.0
C3628 C 0.61005 0.99566 0.01668 0.0
C3629 C 0.6275 0.98632 0.01688 0.0
C3630 C 0.65268 0.94339 -0.00212 0.0
C3631 C 0.69506 0.91926 0.02014 0.0
C3632 C 0.67881 0.93232 0.01737 0.0
C3633 C 0.62918 0.96747 0.0092 0.0
C3634 C 0.64698 0.95626 0.01161 0.0
H3635 H 0.7429 0.92129 0.01875 0.0
H3636 H 0.71578 0.94287 0.02224 0.0
H3637 H 0.67229 0.92142 0.9901 0.0
H3638 H 0.58372 0.96081 0.9935 0.0
H3639 H 0.61393 0.94422 0.9943 0.0
C3640 C 0.36546 0.4393 0.30616 0.0
C3641 C 0.38513 0.4373 0.30501 0.0
C3642 C 0.35338 0.42328 0.30252 0.0
C3643 C 0.35005 0.38018 0.27405 0.0
H3644 H 0.30913 0.3634 0.30444 0.0
C3645 C 0.30358 0.31234 0.25584 0.0
C3646 C 0.28462 0.31211 0.26087 0.0
C3647 C 0.3157 0.32774 0.26134 0.0
C3648 C 0.32026 0.36812 0.29562 0.0
H3649 H 0.4076 0.41683 0.29977 0.0
H3650 H 0.38635 0.38888 0.29298 0.0
H3651 H 0.33085 0.38944 0.31514 0.0
H3652 H 0.26325 0.32828 0.27491 0.0
H3653 H 0.28415 0.35569 0.28376 0.0
H3654 H 0.33921 0.35964 0.25418 0.0
C3655 C 0.38039 0.40285 0.29684 0.0
C3656 C 0.33279 0.38289 0.30186 0.0
C3657 C 0.39252 0.41878 0.30084 0.0
C3658 C 0.27782 0.32802 0.27088 0.0
C3659 C 0.28988 0.34362 0.27613 0.0
C3660 C 0.33735 0.36568 0.26766 0.0
C3661 C 0.36072 0.40508 0.29733 0.0
C3662 C 0.34783 0.38897 0.29116 0.0
C3663 C 0.30909 0.34349 0.27174 0.0
C3664 C 0.32231 0.35938 0.27837 0.0
H3665 H 0.35938 0.45339 0.30942 0.0
H3666 H 0.33825 0.42536 0.30292 0.0
H3667 H 0.36136 0.38489 0.26542 0.0
H3668 H 0.30932 0.30018 0.24831 0.0
H3669 H 0.33042 0.32688 0.25793 0.0
C3670 C 0.20025 0.6188 0.98536 0.0
C3671 C 0.21744 0.60958 0.98998 0.0
C3672 C 0.18315 0.61067 0.9907 0.0
C3673 C 0.16365 0.57847 0.02577 0.0
H3674 H 0.1182 0.58116 0.99486 0.0
C3675 C 0.09173 0.54218 0.04273 0.0
C3676 C 0.07526 0.55233 0.03731 0.0
C3677 C 0.10953 0.54965 0.03855 0.0
C3678 C 0.13072 0.58056 0.00375 0.0
H3679 H 0.23002 0.58402 0.00315 0.0
H3680 H 0.2 0.56966 0.01231 0.0
H3681 H 0.14836 0.59142 0.98282 0.0
H3682 H 0.06465 0.57911 0.02467 0.0
H3683 H 0.0957 0.59224 0.01762 0.0
H3684 H 0.14589 0.56749 0.04668 0.0
C3685 C 0.19988 0.58339 0.00477 0.0
C3686 C 0.14802 0.58635 0.99682 0.0
C3687 C 0.21705 0.59151 -0.00063 0.0
C3688 C 0.07703 0.57084 0.02892 0.0
C3689 C 0.09481 0.57828 0.02472 0.0
C3690 C 0.14631 0.57261 0.0327 0.0
C3691 C 0.18278 0.59309 0.0008 0.0
C3692 C 0.16465 0.58555 0.00779 0.0
C3693 C 0.11118 0.56741 0.02886 0.0
C3694 C 0.12964 0.57379 0.0218 0.0
H3695 H 0.2 0.63269 0.97808 0.0
H3696 H 0.17027 0.61861 0.98754 0.0
H3697 H 0.17617 0.57794 0.03465 0.0
H3698 H 0.09086 0.52789 0.04924 0.0
H3699 H 0.12188 0.54095 0.04192 0.0
C3700 C 0.696 0.96297 0.28451 0.0
C3701 C 0.67866 0.9628 0.29328 0.0
C3702 C 0.7062 0.94559 0.28276 0.0
C3703 C 0.71345 0.89762 0.30415 0.0
H3704 H 0.73084 0.88086 0.25711 0.0
C3705 C 0.7385 0.81862 0.29143 0.0
C3706 C 0.75249 0.8155 0.27865 0.0
C3707 C 0.73127 0.83743 0.29401 0.0
C3708 C 0.72645 0.88547 0.27044 0.0
H3709 H 0.65837 0.94436 0.30703 0.0
H3710 H 0.67633 0.91412 0.30418 0.0
H3711 H 0.71478 0.91227 0.25973 0.0
H3712 H 0.77054 0.82977 0.2592 0.0
H3713 H 0.7584 0.86271 0.26415 0.0
H3714 H 0.72524 0.87107 0.315 0.0
C3715 C 0.68199 0.92767 0.29866 0.0
C3716 C 0.71716 0.90343 0.27188 0.0
C3717 C 0.67167 0.94494 0.30016 0.0
C3718 C 0.75963 0.83169 0.26903 0.0
C3719 C 0.75257 0.85055 0.27178 0.0
C3720 C 0.72295 0.8798 0.30278 0.0
C3721 C 0.69938 0.92785 0.29003 0.0
C3722 C 0.71031 0.90949 0.28869 0.0
C3723 C 0.73803 0.85361 0.28405 0.0
C3724 C 0.7293 0.87332 0.28584 0.0
H3725 H 0.70172 0.97653 0.27907 0.0
H3726 H 0.71961 0.94609 0.27608 0.0
H3727 H 0.70853 0.90214 0.31733 0.0
H3728 H 0.73263 0.80642 0.29898 0.0
H3729 H 0.7199 0.83911 0.30337 0.0
C3730 C 0.85383 0.0424 0.77155 0.0
C3731 C 0.8717 0.04333 0.78052 0.0
C3732 C 0.84291 0.05937 0.76953 0.0
C3733 C 0.83447 0.10529 0.79264 0.0
H3734 H 0.81288 0.12435 0.74674 0.0
C3735 C 0.80327 0.18282 0.7858 0.0
C3736 C 0.78852 0.18616 0.77293 0.0
C3737 C 0.81183 0.16442 0.78701 0.0
C3738 C 0.81845 0.11904 0.75975 0.0
H3739 H 0.89241 0.06284 0.7938 0.0
H3740 H 0.8732 0.0923 0.79053 0.0
H3741 H 0.8312 0.09406 0.74732 0.0
H3742 H 0.77048 0.17256 0.75186 0.0
H3743 H 0.78488 0.1402 0.75447 0.0
H3744 H 0.82151 0.1298 0.80527 0.0
C3745 C 0.86769 0.07848 0.78507 0.0
C3746 C 0.82905 0.10177 0.76001 0.0
C3747 C 0.87871 0.06163 0.78682 0.0
C3748 C 0.78192 0.17046 0.76185 0.0
C3749 C 0.79031 0.15196 0.76323 0.0
C3750 C 0.82363 0.12233 0.79246 0.0
C3751 C 0.84958 0.07742 0.77673 0.0
C3752 C 0.83742 0.09498 0.77641 0.0
C3753 C 0.80565 0.1488 0.77556 0.0
C3754 C 0.81577 0.12967 0.77596 0.0
H3755 H 0.84808 0.02849 0.76656 0.0
H3756 H 0.82897 0.05824 0.76303 0.0
H3757 H 0.84054 0.10012 0.80552 0.0
H3758 H 0.80878 0.19466 0.79443 0.0
H3759 H 0.82378 0.16272 0.79647 0.0
loop_
_geom_bond_atom_site_label_1
_geom_bond_atom_site_label_2
_geom_bond_distance
_geom_bond_site_symmetry_2
_ccdc_geom_bond_type
Co0 O1 2.216 . S
Co0 O2 2.091 . S
Co0 O4 2.004 . S
Co0 O10 2.021 . S
Co0 O12 2.137 . S
Co0 O13 2.244 . S
O1 Co0 2.216 . S
O1 C8 1.247 . S
O2 Co0 2.091 . S
O2 C8 1.261 . S
C3 O12 1.247 . S
C3 O13 1.272 . S
O4 Co0 2.004 . S
O4 C9 1.259 . S
Co5 O6 2.061 . S
Co5 O11 2.052 . S
Co5 O13 2.135 . S
O6 Co5 2.061 . S
O6 C9 1.235 . S
C7 O10 1.238 . S
C7 O11 1.241 . S
C8 O1 1.247 . S
C8 O2 1.261 . S
C9 O4 1.259 . S
C9 O6 1.235 . S
O10 Co0 2.021 . S
O10 C7 1.238 . S
O11 Co5 2.052 . S
O11 C7 1.241 . S
O12 Co0 2.137 . S
O12 C3 1.247 . S
O13 Co0 2.244 . S
O13 C3 1.272 . S
O13 Co5 2.135 . S
Co14 O15 2.216 . S
Co14 O16 2.091 . S
Co14 O18 2.004 . S
Co14 O24 2.021 . S
Co14 O26 2.137 . S
Co14 O27 2.244 . S
O15 Co14 2.216 . S
O15 C22 1.247 . S
O16 Co14 2.091 . S
O16 C22 1.261 . S
C17 O26 1.247 . S
C17 O27 1.272 . S
O18 Co14 2.004 . S
O18 C23 1.259 1_455 S
Co19 O20 2.061 . S
Co19 O25 2.052 1_655 S
Co19 O27 2.135 1_655 S
O20 Co19 2.061 . S
O20 C23 1.235 . S
C21 O24 1.238 . S
C21 O25 1.241 . S
C22 O15 1.247 . S
C22 O16 1.261 . S
C23 O18 1.259 1_655 S
C23 O20 1.235 . S
O24 Co14 2.021 . S
O24 C21 1.238 . S
O25 Co19 2.052 1_455 S
O25 C21 1.241 . S
O26 Co14 2.137 . S
O26 C17 1.247 . S
O27 Co14 2.244 . S
O27 C17 1.272 . S
O27 Co19 2.135 1_455 S
Co28 O29 2.216 . S
Co28 O30 2.091 . S
Co28 O32 2.004 . S
Co28 O38 2.021 . S
Co28 O40 2.137 . S
Co28 O41 2.244 . S
O29 Co28 2.216 . S
O29 C36 1.247 . S
O30 Co28 2.091 . S
O30 C36 1.261 . S
C31 O40 1.247 . S
C31 O41 1.272 . S
O32 Co28 2.004 . S
O32 C37 1.259 . S
Co33 O34 2.061 . S
Co33 O39 2.052 . S
Co33 O41 2.135 . S
O34 Co33 2.061 . S
O34 C37 1.235 . S
C35 O38 1.238 . S
C35 O39 1.241 . S
C36 O29 1.247 . S
C36 O30 1.261 . S
C37 O32 1.259 . S
C37 O34 1.235 . S
O38 Co28 2.021 . S
O38 C35 1.238 . S
O39 Co33 2.052 . S
O39 C35 1.241 . S
O40 Co28 2.137 . S
O40 C31 1.247 . S
O41 Co28 2.244 . S
O41 C31 1.272 . S
O41 Co33 2.135 . S
Co42 O43 2.216 . S
Co42 O44 2.091 . S
Co42 O46 2.004 . S
Co42 O52 2.021 . S
Co42 O54 2.137 . S
Co42 O55 2.244 . S
O43 Co42 2.216 . S
O43 C50 1.247 . S
O44 Co42 2.091 . S
O44 C50 1.261 . S
C45 O54 1.247 . S
C45 O55 1.272 . S
O46 Co42 2.004 . S
O46 C51 1.259 . S
Co47 O48 2.061 . S
Co47 O53 2.052 . S
Co47 O55 2.135 . S
O48 Co47 2.061 . S
O48 C51 1.235 . S
C49 O52 1.238 . S
C49 O53 1.241 . S
C50 O43 1.247 . S
C50 O44 1.261 . S
C51 O46 1.259 . S
C51 O48 1.235 . S
O52 Co42 2.021 . S
O52 C49 1.238 . S
O53 Co47 2.052 . S
O53 C49 1.241 . S
O54 Co42 2.137 . S
O54 C45 1.247 . S
O55 Co42 2.244 . S
O55 C45 1.272 . S
O55 Co47 2.135 . S
Co56 O57 2.216 1_545 S
Co56 O58 2.091 1_545 S
Co56 O60 2.004 . S
Co56 O66 2.021 . S
Co56 O68 2.137 . S
Co56 O69 2.244 . S
O57 Co56 2.216 1_565 S
O57 C64 1.247 . S
O58 Co56 2.091 1_565 S
O58 C64 1.261 . S
C59 O68 1.247 . S
C59 O69 1.272 . S
O60 Co56 2.004 . S
O60 C65 1.259 . S
Co61 O62 2.061 . S
Co61 O67 2.052 . S
Co61 O69 2.135 . S
O62 Co61 2.061 . S
O62 C65 1.235 . S
C63 O66 1.238 . S
C63 O67 1.241 . S
C64 O57 1.247 . S
C64 O58 1.261 . S
C65 O60 1.259 . S
C65 O62 1.235 . S
O66 Co56 2.021 . S
O66 C63 1.238 . S
O67 Co61 2.052 . S
O67 C63 1.241 . S
O68 Co56 2.137 . S
O68 C59 1.247 . S
O69 Co56 2.244 . S
O69 C59 1.272 . S
O69 Co61 2.135 . S
Co70 O71 2.216 . S
Co70 O72 2.091 . S
Co70 O74 2.004 . S
Co70 O80 2.021 . S
Co70 O82 2.137 . S
Co70 O83 2.244 . S
O71 Co70 2.216 . S
O71 C78 1.247 . S
O72 Co70 2.091 . S
O72 C78 1.261 . S
C73 O82 1.247 . S
C73 O83 1.272 . S
O74 Co70 2.004 . S
O74 C79 1.259 . S
Co75 O76 2.061 . S
Co75 O81 2.052 . S
Co75 O83 2.135 . S
O76 Co75 2.061 . S
O76 C79 1.235 . S
C77 O80 1.238 . S
C77 O81 1.241 . S
C78 O71 1.247 . S
C78 O72 1.261 . S
C79 O74 1.259 . S
C79 O76 1.235 . S
O80 Co70 2.021 . S
O80 C77 1.238 . S
O81 Co75 2.052 . S
O81 C77 1.241 . S
O82 Co70 2.137 . S
O82 C73 1.247 . S
O83 Co70 2.244 . S
O83 C73 1.272 . S
O83 Co75 2.135 . S
Co84 O85 2.216 . S
Co84 O86 2.091 . S
Co84 O88 2.004 1_545 S
Co84 O94 2.021 . S
Co84 O96 2.137 . S
Co84 O97 2.244 . S
O85 Co84 2.216 . S
O85 C92 1.247 . S
O86 Co84 2.091 . S
O86 C92 1.261 . S
C87 O96 1.247 . S
C87 O97 1.272 . S
O88 Co84 2.004 1_565 S
O88 C93 1.259 . S
Co89 O90 2.061 . S
Co89 O95 2.052 . S
Co89 O97 2.135 1_565 S
O90 Co89 2.061 . S
O90 C93 1.235 . S
C91 O94 1.238 . S
C91 O95 1.241 1_545 S
C92 O85 1.247 . S
C92 O86 1.261 . S
C93 O88 1.259 . S
C93 O90 1.235 . S
O94 Co84 2.021 . S
O94 C91 1.238 . S
O95 Co89 2.052 . S
O95 C91 1.241 1_565 S
O96 Co84 2.137 . S
O96 C87 1.247 . S
O97 Co84 2.244 . S
O97 C87 1.272 . S
O97 Co89 2.135 1_545 S
Co98 O99 2.216 . S
Co98 O100 2.091 . S
Co98 O102 2.004 . S
Co98 O108 2.021 . S
Co98 O110 2.137 1_554 S
Co98 O111 2.244 . S
O99 Co98 2.216 . S
O99 C106 1.247 . S
O100 Co98 2.091 . S
O100 C106 1.261 . S
C101 O110 1.247 . S
C101 O111 1.272 1_556 S
O102 Co98 2.004 . S
O102 C107 1.259 . S
Co103 O104 2.061 . S
Co103 O109 2.052 . S
Co103 O111 2.135 . S
O104 Co103 2.061 . S
O104 C107 1.235 . S
C105 O108 1.238 . S
C105 O109 1.241 . S
C106 O99 1.247 . S
C106 O100 1.261 . S
C107 O102 1.259 . S
C107 O104 1.235 . S
O108 Co98 2.021 . S
O108 C105 1.238 . S
O109 Co103 2.052 . S
O109 C105 1.241 . S
O110 Co98 2.137 1_556 S
O110 C101 1.247 . S
O111 Co98 2.244 . S
O111 C101 1.272 1_554 S
O111 Co103 2.135 . S
Co112 O113 2.216 . S
Co112 O114 2.091 . S
Co112 O116 2.004 . S
Co112 O122 2.021 . S
Co112 O124 2.137 . S
Co112 O125 2.244 . S
O113 Co112 2.216 . S
O113 C120 1.247 . S
O114 Co112 2.091 . S
O114 C120 1.261 . S
C115 O124 1.247 . S
C115 O125 1.272 . S
O116 Co112 2.004 . S
O116 C121 1.259 . S
Co117 O118 2.061 . S
Co117 O123 2.052 . S
Co117 O125 2.135 . S
O118 Co117 2.061 . S
O118 C121 1.235 . S
C119 O122 1.238 . S
C119 O123 1.241 . S
C120 O113 1.247 . S
C120 O114 1.261 . S
C121 O116 1.259 . S
C121 O118 1.235 . S
O122 Co112 2.021 . S
O122 C119 1.238 . S
O123 Co117 2.052 . S
O123 C119 1.241 . S
O124 Co112 2.137 . S
O124 C115 1.247 . S
O125 Co112 2.244 . S
O125 C115 1.272 . S
O125 Co117 2.135 . S
Co126 O127 2.216 . S
Co126 O128 2.091 . S
Co126 O130 2.004 . S
Co126 O136 2.021 . S
Co126 O138 2.137 . S
Co126 O139 2.244 . S
O127 Co126 2.216 . S
O127 C134 1.247 . S
O128 Co126 2.091 . S
O128 C134 1.261 . S
C129 O138 1.247 . S
C129 O139 1.272 . S
O130 Co126 2.004 . S
O130 C135 1.259 . S
Co131 O132 2.061 . S
Co131 O137 2.052 . S
Co131 O139 2.135 . S
O132 Co131 2.061 . S
O132 C135 1.235 . S
C133 O136 1.238 . S
C133 O137 1.241 . S
C134 O127 1.247 . S
C134 O128 1.261 . S
C135 O130 1.259 . S
C135 O132 1.235 . S
O136 Co126 2.021 . S
O136 C133 1.238 . S
O137 Co131 2.052 . S
O137 C133 1.241 . S
O138 Co126 2.137 . S
O138 C129 1.247 . S
O139 Co126 2.244 . S
O139 C129 1.272 . S
O139 Co131 2.135 . S
Co140 O141 2.216 . S
Co140 O142 2.091 . S
Co140 O144 2.004 . S
Co140 O150 2.021 . S
Co140 O152 2.137 . S
Co140 O153 2.244 . S
O141 Co140 2.216 . S
O141 C148 1.247 . S
O142 Co140 2.091 . S
O142 C148 1.261 . S
C143 O152 1.247 . S
C143 O153 1.272 . S
O144 Co140 2.004 . S
O144 C149 1.259 . S
Co145 O146 2.061 . S
Co145 O151 2.052 . S
Co145 O153 2.135 . S
O146 Co145 2.061 . S
O146 C149 1.235 . S
C147 O150 1.238 . S
C147 O151 1.241 . S
C148 O141 1.247 . S
C148 O142 1.261 . S
C149 O144 1.259 . S
C149 O146 1.235 . S
O150 Co140 2.021 . S
O150 C147 1.238 . S
O151 Co145 2.052 . S
O151 C147 1.241 . S
O152 Co140 2.137 . S
O152 C143 1.247 . S
O153 Co140 2.244 . S
O153 C143 1.272 . S
O153 Co145 2.135 . S
Co154 O155 2.216 . S
Co154 O156 2.091 . S
Co154 O158 2.004 . S
Co154 O164 2.021 . S
Co154 O166 2.137 . S
Co154 O167 2.244 . S
O155 Co154 2.216 . S
O155 C162 1.247 . S
O156 Co154 2.091 . S
O156 C162 1.261 . S
C157 O166 1.247 . S
C157 O167 1.272 . S
O158 Co154 2.004 . S
O158 C163 1.259 . S
Co159 O160 2.061 . S
Co159 O165 2.052 . S
Co159 O167 2.135 . S
O160 Co159 2.061 . S
O160 C163 1.235 . S
C161 O164 1.238 . S
C161 O165 1.241 . S
C162 O155 1.247 . S
C162 O156 1.261 . S
C163 O158 1.259 . S
C163 O160 1.235 . S
O164 Co154 2.021 . S
O164 C161 1.238 . S
O165 Co159 2.052 . S
O165 C161 1.241 . S
O166 Co154 2.137 . S
O166 C157 1.247 . S
O167 Co154 2.244 . S
O167 C157 1.272 . S
O167 Co159 2.135 . S
Co168 O169 2.216 . S
Co168 O170 2.091 . S
Co168 O172 2.004 1_455 S
Co168 O178 2.021 . S
Co168 O180 2.137 . S
Co168 O181 2.244 1_455 S
O169 Co168 2.216 . S
O169 C176 1.247 . S
O170 Co168 2.091 . S
O170 C176 1.261 . S
C171 O180 1.246 . S
C171 O181 1.272 1_455 S
O172 Co168 2.004 1_655 S
O172 C177 1.259 . S
Co173 O174 2.061 . S
Co173 O179 2.052 . S
Co173 O181 2.135 . S
O174 Co173 2.061 . S
O174 C177 1.235 . S
C175 O178 1.238 1_655 S
C175 O179 1.241 . S
C176 O169 1.247 . S
C176 O170 1.261 . S
C177 O172 1.259 . S
C177 O174 1.235 . S
O178 Co168 2.021 . S
O178 C175 1.238 1_455 S
O179 Co173 2.052 . S
O179 C175 1.241 . S
O180 Co168 2.137 . S
O180 C171 1.246 . S
O181 Co168 2.244 1_655 S
O181 C171 1.272 1_655 S
O181 Co173 2.135 . S
Co182 O183 2.216 1_455 S
Co182 O184 2.111 . S
Co182 O186 2.004 . S
Co182 O192 2.021 . S
Co182 O194 2.137 . S
Co182 O195 2.244 . S
O183 Co182 2.216 1_655 S
O183 C190 1.247 . S
O184 Co182 2.111 . S
O184 C190 1.238 1_455 S
C185 O194 1.247 . S
C185 O195 1.272 . S
O186 Co182 2.004 . S
O186 C191 1.259 . S
Co187 O188 2.061 . S
Co187 O193 2.052 . S
Co187 O195 2.135 . S
O188 Co187 2.061 . S
O188 C191 1.235 . S
C189 O192 1.238 . S
C189 O193 1.241 . S
C190 O183 1.247 . S
C190 O184 1.238 1_655 S
C191 O186 1.259 . S
C191 O188 1.235 . S
O192 Co182 2.021 . S
O192 C189 1.238 . S
O193 Co187 2.052 . S
O193 C189 1.241 . S
O194 Co182 2.137 . S
O194 C185 1.247 . S
O195 Co182 2.244 . S
O195 C185 1.272 . S
O195 Co187 2.135 . S
Co196 O197 2.216 . S
Co196 O198 2.091 . S
Co196 O200 2.004 . S
Co196 O206 2.021 . S
Co196 O208 2.137 . S
Co196 O209 2.244 . S
O197 Co196 2.216 . S
O197 C204 1.247 . S
O198 Co196 2.091 . S
O198 C204 1.261 . S
C199 O208 1.247 . S
C199 O209 1.272 . S
O200 Co196 2.004 . S
O200 C205 1.259 . S
Co201 O202 2.061 . S
Co201 O207 2.052 . S
Co201 O209 2.135 . S
O202 Co201 2.061 . S
O202 C205 1.235 . S
C203 O206 1.238 . S
C203 O207 1.241 . S
C204 O197 1.247 . S
C204 O198 1.261 . S
C205 O200 1.259 . S
C205 O202 1.235 . S
O206 Co196 2.021 . S
O206 C203 1.238 . S
O207 Co201 2.052 . S
O207 C203 1.241 . S
O208 Co196 2.137 . S
O208 C199 1.247 . S
O209 Co196 2.244 . S
O209 C199 1.272 . S
O209 Co201 2.135 . S
Co210 O211 2.216 . S
Co210 O212 2.091 . S
Co210 O214 2.004 . S
Co210 O220 2.021 . S
Co210 O222 2.137 . S
Co210 O223 2.244 . S
O211 Co210 2.216 . S
O211 C218 1.247 . S
O212 Co210 2.091 . S
O212 C218 1.261 . S
C213 O222 1.247 . S
C213 O223 1.272 . S
O214 Co210 2.004 . S
O214 C219 1.259 . S
Co215 O216 2.061 . S
Co215 O221 2.052 . S
Co215 O223 2.135 . S
O216 Co215 2.061 . S
O216 C219 1.235 . S
C217 O220 1.238 . S
C217 O221 1.241 . S
C218 O211 1.247 . S
C218 O212 1.261 . S
C219 O214 1.259 . S
C219 O216 1.235 . S
O220 Co210 2.021 . S
O220 C217 1.238 . S
O221 Co215 2.052 . S
O221 C217 1.241 . S
O222 Co210 2.137 . S
O222 C213 1.247 . S
O223 Co210 2.244 . S
O223 C213 1.272 . S
O223 Co215 2.135 . S
Co224 O225 2.216 . S
Co224 O226 2.091 . S
Co224 O228 2.004 1_545 S
Co224 O234 2.021 . S
Co224 O236 2.137 . S
Co224 O237 2.237 1_545 S
O225 Co224 2.216 . S
O225 C232 1.247 . S
O226 Co224 2.091 . S
O226 C232 1.261 . S
C227 O236 1.247 . S
C227 O237 1.265 1_545 S
O228 Co224 2.004 1_565 S
O228 C233 1.259 . S
Co229 O230 2.061 . S
Co229 O235 2.052 . S
Co229 O237 2.153 . S
O230 Co229 2.061 . S
O230 C233 1.235 . S
C231 O234 1.238 . S
C231 O235 1.241 1_545 S
C232 O225 1.247 . S
C232 O226 1.261 . S
C233 O228 1.259 . S
C233 O230 1.235 . S
O234 Co224 2.021 . S
O234 C231 1.238 . S
O235 Co229 2.052 . S
O235 C231 1.241 1_565 S
O236 Co224 2.137 . S
O236 C227 1.247 . S
O237 Co224 2.237 1_565 S
O237 C227 1.265 1_565 S
O237 Co229 2.153 . S
Co238 O239 2.216 . S
Co238 O240 2.091 . S
Co238 O242 2.004 . S
Co238 O248 2.021 . S
Co238 O250 2.137 . S
Co238 O251 2.244 . S
O239 Co238 2.216 . S
O239 C246 1.247 . S
O240 Co238 2.091 . S
O240 C246 1.261 . S
C241 O250 1.247 . S
C241 O251 1.272 . S
O242 Co238 2.004 . S
O242 C247 1.259 . S
Co243 O244 2.061 . S
Co243 O249 2.052 . S
Co243 O251 2.135 . S
O244 Co243 2.061 . S
O244 C247 1.235 . S
C245 O248 1.238 . S
C245 O249 1.241 . S
C246 O239 1.247 . S
C246 O240 1.261 . S
C247 O242 1.259 . S
C247 O244 1.235 . S
O248 Co238 2.021 . S
O248 C245 1.238 . S
O249 Co243 2.052 . S
O249 C245 1.241 . S
O250 Co238 2.137 . S
O250 C241 1.247 . S
O251 Co238 2.244 . S
O251 C241 1.272 . S
O251 Co243 2.135 . S
Co252 O253 2.216 1_545 S
Co252 O254 2.091 1_545 S
Co252 O256 2.004 . S
Co252 O262 2.021 . S
Co252 O264 2.137 . S
Co252 O265 2.244 . S
O253 Co252 2.216 1_565 S
O253 C260 1.247 . S
O254 Co252 2.091 1_565 S
O254 C260 1.261 . S
C255 O264 1.247 . S
C255 O265 1.272 . S
O256 Co252 2.004 . S
O256 C261 1.259 . S
Co257 O258 2.061 . S
Co257 O263 2.052 . S
Co257 O265 2.135 . S
O258 Co257 2.061 . S
O258 C261 1.235 . S
C259 O262 1.238 . S
C259 O263 1.241 . S
C260 O253 1.247 . S
C260 O254 1.261 . S
C261 O256 1.259 . S
C261 O258 1.235 . S
O262 Co252 2.021 . S
O262 C259 1.238 . S
O263 Co257 2.052 . S
O263 C259 1.241 . S
O264 Co252 2.137 . S
O264 C255 1.247 . S
O265 Co252 2.244 . S
O265 C255 1.272 . S
O265 Co257 2.135 . S
Co266 O267 2.216 . S
Co266 O268 2.091 . S
Co266 O270 2.004 . S
Co266 O276 2.021 . S
Co266 O278 2.137 1_554 S
Co266 O279 2.244 . S
O267 Co266 2.216 . S
O267 C274 1.247 . S
O268 Co266 2.091 . S
O268 C274 1.261 . S
C269 O278 1.247 . S
C269 O279 1.272 1_556 S
O270 Co266 2.004 . S
O270 C275 1.259 . S
Co271 O272 2.061 . S
Co271 O277 2.052 . S
Co271 O279 2.135 . S
O272 Co271 2.061 . S
O272 C275 1.235 . S
C273 O276 1.238 . S
C273 O277 1.241 . S
C274 O267 1.247 . S
C274 O268 1.261 . S
C275 O270 1.259 . S
C275 O272 1.235 . S
O276 Co266 2.021 . S
O276 C273 1.238 . S
O277 Co271 2.052 . S
O277 C273 1.241 . S
O278 Co266 2.137 1_556 S
O278 C269 1.247 . S
O279 Co266 2.244 . S
O279 C269 1.272 1_554 S
O279 Co271 2.135 . S
Co280 O281 2.218 . S
Co280 O282 2.087 1_556 S
Co280 O284 2.004 . S
Co280 O290 2.021 1_556 S
Co280 O292 2.137 . S
Co280 O293 2.244 . S
O281 Co280 2.218 . S
O281 C288 1.241 1_556 S
O282 Co280 2.087 1_554 S
O282 C288 1.261 . S
C283 O292 1.247 . S
C283 O293 1.272 . S
O284 Co280 2.004 . S
O284 C289 1.259 . S
Co285 O286 2.059 1_556 S
Co285 O291 2.012 1_556 S
Co285 O293 2.163 . S
O286 Co285 2.059 1_554 S
O286 C289 1.233 1_554 S
C287 O290 1.238 . S
C287 O291 1.241 . S
C288 O281 1.241 1_554 S
C288 O282 1.261 . S
C289 O284 1.259 . S
C289 O286 1.233 1_556 S
O290 Co280 2.021 1_554 S
O290 C287 1.238 . S
O291 Co285 2.012 1_554 S
O291 C287 1.241 . S
O292 Co280 2.137 . S
O292 C283 1.247 . S
O293 Co280 2.244 . S
O293 C283 1.272 . S
O293 Co285 2.163 . S
Co294 O295 2.216 . S
Co294 O296 2.091 . S
Co294 O298 2.004 . S
Co294 O304 2.021 . S
Co294 O306 2.137 . S
Co294 O307 2.244 . S
O295 Co294 2.216 . S
O295 C302 1.247 . S
O296 Co294 2.091 . S
O296 C302 1.261 . S
C297 O306 1.247 . S
C297 O307 1.272 . S
O298 Co294 2.004 . S
O298 C303 1.259 . S
Co299 O300 2.061 . S
Co299 O305 2.052 . S
Co299 O307 2.135 . S
O300 Co299 2.061 . S
O300 C303 1.235 . S
C301 O304 1.238 . S
C301 O305 1.241 . S
C302 O295 1.247 . S
C302 O296 1.261 . S
C303 O298 1.259 . S
C303 O300 1.235 . S
O304 Co294 2.021 . S
O304 C301 1.238 . S
O305 Co299 2.052 . S
O305 C301 1.241 . S
O306 Co294 2.137 . S
O306 C297 1.247 . S
O307 Co294 2.244 . S
O307 C297 1.272 . S
O307 Co299 2.135 . S
Co308 O309 2.216 . S
Co308 O310 2.091 . S
Co308 O312 2.004 . S
Co308 O318 2.021 . S
Co308 O320 2.137 . S
Co308 O321 2.244 . S
O309 Co308 2.216 . S
O309 C316 1.247 . S
O310 Co308 2.091 . S
O310 C316 1.261 . S
C311 O320 1.247 . S
C311 O321 1.272 . S
O312 Co308 2.004 . S
O312 C317 1.259 . S
Co313 O314 2.061 . S
Co313 O319 2.052 . S
Co313 O321 2.135 . S
O314 Co313 2.061 . S
O314 C317 1.235 . S
C315 O318 1.238 . S
C315 O319 1.241 . S
C316 O309 1.247 . S
C316 O310 1.261 . S
C317 O312 1.259 . S
C317 O314 1.235 . S
O318 Co308 2.021 . S
O318 C315 1.238 . S
O319 Co313 2.052 . S
O319 C315 1.241 . S
O320 Co308 2.137 . S
O320 C311 1.247 . S
O321 Co308 2.244 . S
O321 C311 1.272 . S
O321 Co313 2.135 . S
Co322 O323 2.216 . S
Co322 O324 2.091 . S
Co322 O326 2.004 . S
Co322 O332 2.021 . S
Co322 O334 2.137 . S
Co322 O335 2.244 . S
O323 Co322 2.216 . S
O323 C330 1.247 . S
O324 Co322 2.091 . S
O324 C330 1.261 . S
C325 O334 1.247 . S
C325 O335 1.272 . S
O326 Co322 2.004 . S
O326 C331 1.259 . S
Co327 O328 2.061 . S
Co327 O333 2.052 . S
Co327 O335 2.135 . S
O328 Co327 2.061 . S
O328 C331 1.235 . S
C329 O332 1.238 . S
C329 O333 1.241 . S
C330 O323 1.247 . S
C330 O324 1.261 . S
C331 O326 1.259 . S
C331 O328 1.235 . S
O332 Co322 2.021 . S
O332 C329 1.238 . S
O333 Co327 2.052 . S
O333 C329 1.241 . S
O334 Co322 2.137 . S
O334 C325 1.247 . S
O335 Co322 2.244 . S
O335 C325 1.272 . S
O335 Co327 2.135 . S
C336 O352 1.252 1_455 S
C336 O354 1.254 . S
N337 C338 1.333 1_565 S
N337 C342 1.307 . S
N337 Zn343 2.020 1_665 S
C338 N337 1.333 1_545 S
C338 C339 1.379 1_545 S
C338 H356 0.952 . S
C339 C338 1.379 1_565 S
C339 C340 1.390 . S
C339 H366 0.949 1_565 S
C340 C339 1.390 . S
C340 C341 1.357 . S
C341 C340 1.357 . S
C341 C342 1.370 . S
C341 H367 0.950 . S
C342 N337 1.307 . S
C342 C341 1.370 . S
C342 H360 0.948 . S
Zn343 N337 2.020 1_445 S
Zn343 O352 2.038 1_454 S
Zn343 O358 2.034 . S
Zn343 O362 2.025 1_545 S
Zn343 O364 2.024 1_545 S
C344 O363 1.246 . S
C344 O364 1.249 . S
N345 C346 1.307 1_554 S
N345 C347 1.333 . S
N345 Zn351 2.020 . S
C346 N345 1.307 1_556 S
C346 C350 1.370 . S
C346 H357 0.948 . S
C347 N345 1.333 . S
C347 C348 1.379 . S
C347 H355 0.952 . S
C348 C347 1.379 . S
C348 C349 1.403 . S
C348 H368 0.949 . S
C349 C348 1.403 . S
C349 C350 1.350 1_554 S
C350 C346 1.370 . S
C350 C349 1.350 1_556 S
C350 H369 0.950 . S
Zn351 N345 2.020 . S
Zn351 O354 2.025 1_554 S
Zn351 O359 2.024 . S
Zn351 O361 2.039 . S
Zn351 O363 2.034 1_545 S
O352 C336 1.252 1_655 S
O352 Zn343 2.038 1_656 S
C353 O358 1.246 . S
C353 O359 1.249 . S
O354 C336 1.254 . S
O354 Zn351 2.025 1_556 S
H355 C347 0.952 . S
H356 C338 0.952 . S
H357 C346 0.948 . S
O358 Zn343 2.034 . S
O358 C353 1.246 . S
O359 Zn351 2.024 . S
O359 C353 1.249 . S
H360 C342 0.948 . S
O361 Zn351 2.039 . S
O361 C365 1.246 1_545 S
O362 Zn343 2.025 1_565 S
O362 C365 1.257 . S
O363 C344 1.246 . S
O363 Zn351 2.034 1_565 S
O364 Zn343 2.024 1_565 S
O364 C344 1.249 . S
C365 O361 1.246 1_565 S
C365 O362 1.257 . S
H366 C339 0.949 1_545 S
H367 C341 0.950 . S
H368 C348 0.949 . S
H369 C350 0.950 . S
C370 O386 1.251 . S
C370 O388 1.254 . S
N371 C372 1.333 . S
N371 C376 1.307 . S
N371 Zn377 2.020 . S
C372 N371 1.333 . S
C372 C373 1.379 . S
C372 H390 0.952 . S
C373 C372 1.379 . S
C373 C374 1.390 . S
C373 H400 0.949 . S
C374 C373 1.390 . S
C374 C375 1.357 . S
C375 C374 1.357 . S
C375 C376 1.370 . S
C375 H401 0.950 . S
C376 N371 1.307 . S
C376 C375 1.370 . S
C376 H394 0.948 . S
Zn377 N371 2.020 . S
Zn377 O386 2.039 . S
Zn377 O392 2.034 . S
Zn377 O396 2.025 . S
Zn377 O398 2.024 . S
C378 O397 1.246 . S
C378 O398 1.249 . S
N379 C380 1.307 . S
N379 C381 1.333 . S
N379 Zn385 2.020 . S
C380 N379 1.307 . S
C380 C384 1.370 . S
C380 H391 0.948 . S
C381 N379 1.333 . S
C381 C382 1.379 . S
C381 H389 0.952 . S
C382 C381 1.379 . S
C382 C383 1.390 . S
C382 H402 0.949 . S
C383 C382 1.390 . S
C383 C384 1.357 . S
C384 C380 1.370 . S
C384 C383 1.357 . S
C384 H403 0.950 . S
Zn385 N379 2.020 . S
Zn385 O388 2.025 . S
Zn385 O393 2.024 . S
Zn385 O395 2.039 . S
Zn385 O397 2.034 . S
O386 C370 1.251 . S
O386 Zn377 2.039 . S
C387 O392 1.246 . S
C387 O393 1.249 . S
O388 C370 1.254 . S
O388 Zn385 2.025 . S
H389 C381 0.952 . S
H390 C372 0.952 . S
H391 C380 0.948 . S
O392 Zn377 2.034 . S
O392 C387 1.246 . S
O393 Zn385 2.024 . S
O393 C387 1.249 . S
H394 C376 0.948 . S
O395 Zn385 2.039 . S
O395 C399 1.251 . S
O396 Zn377 2.025 . S
O396 C399 1.254 . S
O397 C378 1.246 . S
O397 Zn385 2.034 . S
O398 Zn377 2.024 . S
O398 C378 1.249 . S
C399 O395 1.251 . S
C399 O396 1.254 . S
H400 C373 0.949 . S
H401 C375 0.950 . S
H402 C382 0.949 . S
H403 C384 0.950 . S
C404 O420 1.251 . S
C404 O422 1.254 . S
N405 C406 1.333 . S
N405 C410 1.307 . S
N405 Zn411 2.020 . S
C406 N405 1.333 . S
C406 C407 1.379 . S
C406 H424 0.952 . S
C407 C406 1.379 . S
C407 C408 1.390 . S
C407 H434 0.949 . S
C408 C407 1.390 . S
C408 C409 1.357 . S
C409 C408 1.357 . S
C409 C410 1.370 . S
C409 H435 0.950 . S
C410 N405 1.307 . S
C410 C409 1.370 . S
C410 H428 0.948 . S
Zn411 N405 2.020 . S
Zn411 O420 2.039 1_565 S
Zn411 O426 2.034 1_565 S
Zn411 O430 2.025 . S
Zn411 O432 2.024 . S
C412 O431 1.246 1_565 S
C412 O432 1.249 . S
N413 C414 1.307 . S
N413 C415 1.333 . S
N413 Zn419 2.020 . S
C414 N413 1.307 . S
C414 C418 1.370 . S
C414 H425 0.948 . S
C415 N413 1.333 . S
C415 C416 1.379 . S
C415 H423 0.952 . S
C416 C415 1.379 . S
C416 C417 1.390 . S
C416 H436 0.949 . S
C417 C416 1.390 . S
C417 C418 1.357 . S
C418 C414 1.370 . S
C418 C417 1.357 . S
C418 H437 0.950 . S
Zn419 N413 2.020 . S
Zn419 O422 2.025 . S
Zn419 O427 2.024 . S
Zn419 O429 2.039 . S
Zn419 O431 2.034 . S
O420 C404 1.251 . S
O420 Zn411 2.039 1_545 S
C421 O426 1.246 . S
C421 O427 1.249 . S
O422 C404 1.254 . S
O422 Zn419 2.025 . S
H423 C415 0.952 . S
H424 C406 0.952 . S
H425 C414 0.948 . S
O426 Zn411 2.034 1_545 S
O426 C421 1.246 . S
O427 Zn419 2.024 . S
O427 C421 1.249 . S
H428 C410 0.948 . S
O429 Zn419 2.039 . S
O429 C433 1.251 . S
O430 Zn411 2.025 . S
O430 C433 1.254 1_565 S
O431 C412 1.246 1_545 S
O431 Zn419 2.034 . S
O432 Zn411 2.024 . S
O432 C412 1.249 . S
C433 O429 1.251 . S
C433 O430 1.254 1_545 S
H434 C407 0.949 . S
H435 C409 0.950 . S
H436 C416 0.949 . S
H437 C418 0.950 . S
C438 O454 1.251 . S
C438 O456 1.254 . S
N439 C440 1.333 . S
N439 C444 1.307 . S
N439 Zn445 2.020 . S
C440 N439 1.333 . S
C440 C441 1.379 . S
C440 H458 0.952 . S
C441 C440 1.379 . S
C441 C442 1.390 . S
C441 H468 0.949 . S
C442 C441 1.390 . S
C442 C443 1.357 . S
C443 C442 1.357 . S
C443 C444 1.370 . S
C443 H469 0.950 . S
C444 N439 1.307 . S
C444 C443 1.370 . S
C444 H462 0.948 . S
Zn445 N439 2.020 . S
Zn445 O454 2.039 . S
Zn445 O460 2.034 . S
Zn445 O464 2.025 . S
Zn445 O466 2.024 . S
C446 O465 1.246 . S
C446 O466 1.249 . S
N447 C448 1.307 . S
N447 C449 1.333 . S
N447 Zn453 2.020 . S
C448 N447 1.307 . S
C448 C452 1.370 . S
C448 H459 0.948 . S
C449 N447 1.333 . S
C449 C450 1.379 . S
C449 H457 0.952 . S
C450 C449 1.379 . S
C450 C451 1.390 . S
C450 H470 0.949 . S
C451 C450 1.390 . S
C451 C452 1.357 . S
C452 C448 1.370 . S
C452 C451 1.357 . S
C452 H471 0.950 . S
Zn453 N447 2.020 . S
Zn453 O456 2.025 . S
Zn453 O461 2.024 . S
Zn453 O463 2.039 . S
Zn453 O465 2.034 . S
O454 C438 1.251 . S
O454 Zn445 2.039 . S
C455 O460 1.246 . S
C455 O461 1.249 . S
O456 C438 1.254 . S
O456 Zn453 2.025 . S
H457 C449 0.952 . S
H458 C440 0.952 . S
H459 C448 0.948 . S
O460 Zn445 2.034 . S
O460 C455 1.246 . S
O461 Zn453 2.024 . S
O461 C455 1.249 . S
H462 C444 0.948 . S
O463 Zn453 2.039 . S
O463 C467 1.251 . S
O464 Zn445 2.025 . S
O464 C467 1.254 . S
O465 C446 1.246 . S
O465 Zn453 2.034 . S
O466 Zn445 2.024 . S
O466 C446 1.249 . S
C467 O463 1.251 . S
C467 O464 1.254 . S
H468 C441 0.949 . S
H469 C443 0.950 . S
H470 C450 0.949 . S
H471 C452 0.950 . S
C472 O488 1.251 1_565 S
C472 O490 1.254 . S
N473 C474 1.333 . S
N473 C478 1.307 . S
N473 Zn479 2.020 . S
C474 N473 1.333 . S
C474 C475 1.379 . S
C474 H492 0.952 . S
C475 C474 1.379 . S
C475 C476 1.390 . S
C475 H502 0.949 . S
C476 C475 1.390 . S
C476 C477 1.357 . S
C477 C476 1.357 . S
C477 C478 1.370 . S
C477 H503 0.950 . S
C478 N473 1.307 . S
C478 C477 1.370 . S
C478 H496 0.948 . S
Zn479 N473 2.020 . S
Zn479 O488 2.039 . S
Zn479 O494 2.034 . S
Zn479 O498 2.050 . S
Zn479 O500 2.024 1_545 S
C480 O499 1.246 . S
C480 O500 1.249 . S
N481 C482 1.307 . S
N481 C483 1.333 1_455 S
N481 Zn487 2.020 1_565 S
C482 N481 1.307 . S
C482 C486 1.370 . S
C482 H493 0.935 1_565 S
C483 N481 1.333 1_655 S
C483 C484 1.379 . S
C483 H491 0.952 . S
C484 C483 1.379 . S
C484 C485 1.390 . S
C484 H504 0.949 . S
C485 C484 1.390 . S
C485 C486 1.357 1_655 S
C486 C482 1.370 . S
C486 C485 1.357 1_455 S
C486 H505 0.950 . S
Zn487 N481 2.020 1_545 S
Zn487 O490 2.025 1_545 S
Zn487 O495 2.024 . S
Zn487 O497 2.039 1_455 S
Zn487 O499 2.034 1_545 S
O488 C472 1.251 1_545 S
O488 Zn479 2.039 . S
C489 O494 1.246 . S
C489 O495 1.249 . S
O490 C472 1.254 . S
O490 Zn487 2.025 1_565 S
H491 C483 0.952 . S
H492 C474 0.952 . S
H493 C482 0.935 1_545 S
O494 Zn479 2.034 . S
O494 C489 1.246 . S
O495 Zn487 2.024 . S
O495 C489 1.249 . S
H496 C478 0.948 . S
O497 Zn487 2.039 1_655 S
O497 C501 1.251 . S
O498 Zn479 2.050 . S
O498 C501 1.237 1_455 S
O499 C480 1.246 . S
O499 Zn487 2.034 1_565 S
O500 Zn479 2.024 1_565 S
O500 C480 1.249 . S
C501 O497 1.251 . S
C501 O498 1.237 1_655 S
H502 C475 0.949 . S
H503 C477 0.950 . S
H504 C484 0.949 . S
H505 C486 0.950 . S
C506 O522 1.251 . S
C506 O524 1.254 . S
N507 C508 1.333 . S
N507 C512 1.307 . S
N507 Zn513 2.020 . S
C508 N507 1.333 . S
C508 C509 1.379 . S
C508 H526 0.952 . S
C509 C508 1.379 . S
C509 C510 1.390 . S
C509 H536 0.949 . S
C510 C509 1.390 . S
C510 C511 1.357 . S
C511 C510 1.357 . S
C511 C512 1.370 . S
C511 H537 0.950 . S
C512 N507 1.307 . S
C512 C511 1.370 . S
C512 H530 0.948 . S
Zn513 N507 2.020 . S
Zn513 O522 2.039 . S
Zn513 O528 2.034 . S
Zn513 O532 2.025 . S
Zn513 O534 2.024 . S
C514 O533 1.246 . S
C514 O534 1.249 . S
N515 C516 1.307 . S
N515 C517 1.333 . S
N515 Zn521 2.020 . S
C516 N515 1.307 . S
C516 C520 1.370 . S
C516 H527 0.948 . S
C517 N515 1.333 . S
C517 C518 1.379 . S
C517 H525 0.952 . S
C518 C517 1.379 . S
C518 C519 1.390 . S
C518 H538 0.949 . S
C519 C518 1.390 . S
C519 C520 1.357 . S
C520 C516 1.370 . S
C520 C519 1.357 . S
C520 H539 0.950 . S
Zn521 N515 2.020 . S
Zn521 O524 2.025 . S
Zn521 O529 2.024 . S
Zn521 O531 2.039 . S
Zn521 O533 2.034 . S
O522 C506 1.251 . S
O522 Zn513 2.039 . S
C523 O528 1.246 . S
C523 O529 1.249 . S
O524 C506 1.254 . S
O524 Zn521 2.025 . S
H525 C517 0.952 . S
H526 C508 0.952 . S
H527 C516 0.948 . S
O528 Zn513 2.034 . S
O528 C523 1.246 . S
O529 Zn521 2.024 . S
O529 C523 1.249 . S
H530 C512 0.948 . S
O531 Zn521 2.039 . S
O531 C535 1.251 . S
O532 Zn513 2.025 . S
O532 C535 1.254 . S
O533 C514 1.246 . S
O533 Zn521 2.034 . S
O534 Zn513 2.024 . S
O534 C514 1.249 . S
C535 O531 1.251 . S
C535 O532 1.254 . S
H536 C509 0.949 . S
H537 C511 0.950 . S
H538 C518 0.949 . S
H539 C520 0.950 . S
C540 O556 1.251 . S
C540 O558 1.254 . S
N541 C542 1.333 . S
N541 C546 1.307 . S
N541 Zn547 2.020 . S
C542 N541 1.333 . S
C542 C543 1.379 . S
C542 H560 0.952 . S
C543 C542 1.379 . S
C543 C544 1.390 . S
C543 H570 0.949 . S
C544 C543 1.390 . S
C544 C545 1.357 . S
C545 C544 1.357 . S
C545 C546 1.370 . S
C545 H571 0.950 . S
C546 N541 1.307 . S
C546 C545 1.370 . S
C546 H564 0.948 . S
Zn547 N541 2.020 . S
Zn547 O556 2.039 1_545 S
Zn547 O562 2.034 . S
Zn547 O566 2.025 . S
Zn547 O568 2.024 . S
C548 O567 1.246 . S
C548 O568 1.249 1_565 S
N549 C550 1.307 . S
N549 C551 1.333 1_565 S
N549 Zn555 2.020 1_566 S
C550 N549 1.307 . S
C550 C554 1.370 . S
C550 H561 0.948 . S
C551 N549 1.333 1_545 S
C551 C552 1.379 . S
C551 H559 0.952 . S
C552 C551 1.379 . S
C552 C553 1.390 1_545 S
C552 H572 0.949 . S
C553 C552 1.390 1_565 S
C553 C554 1.357 . S
C554 C550 1.370 . S
C554 C553 1.357 . S
C554 H573 0.950 . S
Zn555 N549 2.020 1_544 S
Zn555 O558 2.025 1_545 S
Zn555 O563 2.024 . S
Zn555 O565 2.039 1_554 S
Zn555 O567 2.034 1_545 S
O556 C540 1.251 . S
O556 Zn547 2.039 1_565 S
C557 O562 1.246 . S
C557 O563 1.249 . S
O558 C540 1.254 . S
O558 Zn555 2.025 1_565 S
H559 C551 0.952 . S
H560 C542 0.952 . S
H561 C550 0.948 . S
O562 Zn547 2.034 . S
O562 C557 1.246 . S
O563 Zn555 2.024 . S
O563 C557 1.249 . S
H564 C546 0.948 . S
O565 Zn555 2.039 1_556 S
O565 C569 1.251 1_556 S
O566 Zn547 2.025 . S
O566 C569 1.254 . S
O567 C548 1.246 . S
O567 Zn555 2.034 1_565 S
O568 Zn547 2.024 . S
O568 C548 1.249 1_545 S
C569 O565 1.251 1_554 S
C569 O566 1.254 . S
H570 C543 0.949 . S
H571 C545 0.950 . S
H572 C552 0.949 . S
H573 C554 0.950 . S
C574 O590 1.251 . S
C574 O592 1.254 . S
N575 C576 1.333 . S
N575 C580 1.307 . S
N575 Zn581 2.020 . S
C576 N575 1.333 . S
C576 C577 1.379 . S
C576 H594 0.952 . S
C577 C576 1.379 . S
C577 C578 1.390 . S
C577 H604 0.949 . S
C578 C577 1.390 . S
C578 C579 1.357 . S
C579 C578 1.357 . S
C579 C580 1.370 . S
C579 H605 0.950 . S
C580 N575 1.307 . S
C580 C579 1.370 . S
C580 H598 0.948 . S
Zn581 N575 2.020 . S
Zn581 O590 2.039 . S
Zn581 O596 2.034 . S
Zn581 O600 2.025 . S
Zn581 O602 2.024 . S
C582 O601 1.246 . S
C582 O602 1.249 . S
N583 C584 1.307 . S
N583 C585 1.333 . S
N583 Zn589 2.020 . S
C584 N583 1.307 . S
C584 C588 1.370 . S
C584 H595 0.948 . S
C585 N583 1.333 . S
C585 C586 1.379 . S
C585 H593 0.952 . S
C586 C585 1.379 . S
C586 C587 1.390 . S
C586 H606 0.949 . S
C587 C586 1.390 . S
C587 C588 1.357 . S
C588 C584 1.370 . S
C588 C587 1.357 . S
C588 H607 0.950 . S
Zn589 N583 2.020 . S
Zn589 O592 2.025 . S
Zn589 O597 2.024 . S
Zn589 O599 2.039 . S
Zn589 O601 2.034 . S
O590 C574 1.251 . S
O590 Zn581 2.039 . S
C591 O596 1.246 . S
C591 O597 1.249 . S
O592 C574 1.254 . S
O592 Zn589 2.025 . S
H593 C585 0.952 . S
H594 C576 0.952 . S
H595 C584 0.948 . S
O596 Zn581 2.034 . S
O596 C591 1.246 . S
O597 Zn589 2.024 . S
O597 C591 1.249 . S
H598 C580 0.948 . S
O599 Zn589 2.039 . S
O599 C603 1.251 . S
O600 Zn581 2.025 . S
O600 C603 1.254 . S
O601 C582 1.246 . S
O601 Zn589 2.034 . S
O602 Zn581 2.024 . S
O602 C582 1.249 . S
C603 O599 1.251 . S
C603 O600 1.254 . S
H604 C577 0.949 . S
H605 C579 0.950 . S
H606 C586 0.949 . S
H607 C588 0.950 . S
C608 O624 1.251 . S
C608 O626 1.254 . S
N609 C610 1.333 . S
N609 C614 1.307 . S
N609 Zn615 2.020 1_556 S
C610 N609 1.333 . S
C610 C611 1.379 . S
C610 H628 0.952 . S
C611 C610 1.379 . S
C611 C612 1.390 . S
C611 H638 0.949 . S
C612 C611 1.390 . S
C612 C613 1.357 . S
C613 C612 1.357 . S
C613 C614 1.370 . S
C613 H639 0.950 . S
C614 N609 1.307 . S
C614 C613 1.370 . S
C614 H632 0.948 . S
Zn615 N609 2.020 1_554 S
Zn615 O624 2.039 . S
Zn615 O630 2.034 . S
Zn615 O634 2.029 . S
Zn615 O636 2.024 1_554 S
C616 O635 1.246 . S
C616 O636 1.249 1_554 S
N617 C618 1.307 . S
N617 C619 1.333 . S
N617 Zn623 2.020 . S
C618 N617 1.307 . S
C618 C622 1.370 . S
C618 H629 0.948 . S
C619 N617 1.333 . S
C619 C620 1.379 . S
C619 H627 0.952 . S
C620 C619 1.379 . S
C620 C621 1.390 . S
C620 H640 0.949 . S
C621 C620 1.390 . S
C621 C622 1.357 . S
C622 C618 1.370 . S
C622 C621 1.357 . S
C622 H641 0.950 . S
Zn623 N617 2.020 . S
Zn623 O626 2.025 . S
Zn623 O631 2.024 . S
Zn623 O633 2.039 . S
Zn623 O635 2.034 . S
O624 C608 1.251 . S
O624 Zn615 2.039 . S
C625 O630 1.246 . S
C625 O631 1.249 . S
O626 C608 1.254 . S
O626 Zn623 2.025 . S
H627 C619 0.952 . S
H628 C610 0.952 . S
H629 C618 0.948 . S
O630 Zn615 2.034 . S
O630 C625 1.246 . S
O631 Zn623 2.024 . S
O631 C625 1.249 . S
H632 C614 0.948 . S
O633 Zn623 2.039 . S
O633 C637 1.251 . S
O634 Zn615 2.029 . S
O634 C637 1.304 . S
O635 C616 1.246 . S
O635 Zn623 2.034 . S
O636 Zn615 2.024 1_556 S
O636 C616 1.249 1_556 S
C637 O633 1.251 . S
C637 O634 1.304 . S
H638 C611 0.949 . S
H639 C613 0.950 . S
H640 C620 0.949 . S
H641 C622 0.950 . S
C642 O658 1.251 . S
C642 O660 1.254 . S
N643 C644 1.333 . S
N643 C648 1.307 . S
N643 Zn649 2.020 . S
C644 N643 1.333 . S
C644 C645 1.379 . S
C644 H662 0.952 . S
C645 C644 1.379 . S
C645 C646 1.390 . S
C645 H672 0.949 . S
C646 C645 1.390 . S
C646 C647 1.357 . S
C647 C646 1.357 . S
C647 C648 1.370 . S
C647 H673 0.950 . S
C648 N643 1.307 . S
C648 C647 1.370 . S
C648 H666 0.948 . S
Zn649 N643 2.020 . S
Zn649 O658 2.039 . S
Zn649 O664 2.034 . S
Zn649 O668 2.025 . S
Zn649 O670 2.024 . S
C650 O669 1.246 . S
C650 O670 1.249 . S
N651 C652 1.307 . S
N651 C653 1.333 . S
N651 Zn657 2.020 . S
C652 N651 1.307 . S
C652 C656 1.370 . S
C652 H663 0.948 . S
C653 N651 1.333 . S
C653 C654 1.379 . S
C653 H661 0.952 . S
C654 C653 1.379 . S
C654 C655 1.390 . S
C654 H674 0.949 . S
C655 C654 1.390 . S
C655 C656 1.357 . S
C656 C652 1.370 . S
C656 C655 1.357 . S
C656 H675 0.950 . S
Zn657 N651 2.020 . S
Zn657 O660 2.025 . S
Zn657 O665 2.024 . S
Zn657 O667 2.039 . S
Zn657 O669 2.034 . S
O658 C642 1.251 . S
O658 Zn649 2.039 . S
C659 O664 1.246 . S
C659 O665 1.249 . S
O660 C642 1.254 . S
O660 Zn657 2.025 . S
H661 C653 0.952 . S
H662 C644 0.952 . S
H663 C652 0.948 . S
O664 Zn649 2.034 . S
O664 C659 1.246 . S
O665 Zn657 2.024 . S
O665 C659 1.249 . S
H666 C648 0.948 . S
O667 Zn657 2.039 . S
O667 C671 1.251 . S
O668 Zn649 2.025 . S
O668 C671 1.254 . S
O669 C650 1.246 . S
O669 Zn657 2.034 . S
O670 Zn649 2.024 . S
O670 C650 1.249 . S
C671 O667 1.251 . S
C671 O668 1.254 . S
H672 C645 0.949 . S
H673 C647 0.950 . S
H674 C654 0.949 . S
H675 C656 0.950 . S
C676 O692 1.251 . S
C676 O694 1.254 . S
N677 C678 1.333 . S
N677 C682 1.307 . S
N677 Zn683 2.020 . S
C678 N677 1.333 . S
C678 C679 1.379 . S
C678 H696 0.952 . S
C679 C678 1.379 . S
C679 C680 1.390 . S
C679 H706 0.949 . S
C680 C679 1.390 . S
C680 C681 1.357 . S
C681 C680 1.357 . S
C681 C682 1.370 . S
C681 H707 0.950 . S
C682 N677 1.307 . S
C682 C681 1.370 . S
C682 H700 0.948 . S
Zn683 N677 2.020 . S
Zn683 O692 2.039 . S
Zn683 O698 2.034 . S
Zn683 O702 2.025 . S
Zn683 O704 2.024 . S
C684 O703 1.246 . S
C684 O704 1.249 . S
N685 C686 1.307 1_455 S
N685 C687 1.333 . S
N685 Zn691 2.020 . S
C686 N685 1.307 1_655 S
C686 C690 1.370 . S
C686 H697 0.948 . S
C687 N685 1.333 . S
C687 C688 1.379 . S
C687 H695 0.952 . S
C688 C687 1.379 . S
C688 C689 1.390 1_455 S
C688 H708 0.949 . S
C689 C688 1.390 1_655 S
C689 C690 1.357 . S
C690 C686 1.370 . S
C690 C689 1.357 . S
C690 H709 0.950 . S
Zn691 N685 2.020 . S
Zn691 O694 2.025 . S
Zn691 O699 2.024 1_455 S
Zn691 O701 2.039 . S
Zn691 O703 2.034 . S
O692 C676 1.251 . S
O692 Zn683 2.039 . S
C693 O698 1.246 1_655 S
C693 O699 1.249 . S
O694 C676 1.254 . S
O694 Zn691 2.025 . S
H695 C687 0.952 . S
H696 C678 0.952 . S
H697 C686 0.948 . S
O698 Zn683 2.034 . S
O698 C693 1.246 1_455 S
O699 Zn691 2.024 1_655 S
O699 C693 1.249 . S
H700 C682 0.948 . S
O701 Zn691 2.039 . S
O701 C705 1.251 . S
O702 Zn683 2.025 . S
O702 C705 1.254 . S
O703 C684 1.246 . S
O703 Zn691 2.034 . S
O704 Zn683 2.024 . S
O704 C684 1.249 . S
C705 O701 1.251 . S
C705 O702 1.254 . S
H706 C679 0.949 . S
H707 C681 0.950 . S
H708 C688 0.949 . S
H709 C690 0.950 . S
C710 O726 1.251 . S
C710 O728 1.254 . S
N711 C712 1.333 . S
N711 C716 1.307 . S
N711 Zn717 2.020 . S
C712 N711 1.333 . S
C712 C713 1.379 . S
C712 H730 0.952 . S
C713 C712 1.379 . S
C713 C714 1.390 . S
C713 H740 0.949 . S
C714 C713 1.390 . S
C714 C715 1.357 . S
C715 C714 1.357 . S
C715 C716 1.370 . S
C715 H741 0.950 . S
C716 N711 1.307 . S
C716 C715 1.370 . S
C716 H734 0.948 . S
Zn717 N711 2.020 . S
Zn717 O726 2.039 . S
Zn717 O732 2.034 . S
Zn717 O736 2.025 . S
Zn717 O738 2.024 . S
C718 O737 1.246 . S
C718 O738 1.249 . S
N719 C720 1.307 . S
N719 C721 1.333 . S
N719 Zn725 2.020 . S
C720 N719 1.307 . S
C720 C724 1.370 . S
C720 H731 0.948 . S
C721 N719 1.333 . S
C721 C722 1.379 . S
C721 H729 0.952 . S
C722 C721 1.379 . S
C722 C723 1.390 . S
C722 H742 0.949 . S
C723 C722 1.390 . S
C723 C724 1.357 . S
C724 C720 1.370 . S
C724 C723 1.357 . S
C724 H743 0.950 . S
Zn725 N719 2.020 . S
Zn725 O728 2.025 . S
Zn725 O733 2.024 . S
Zn725 O735 2.039 . S
Zn725 O737 2.034 . S
O726 C710 1.251 . S
O726 Zn717 2.039 . S
C727 O732 1.246 . S
C727 O733 1.249 . S
O728 C710 1.254 . S
O728 Zn725 2.025 . S
H729 C721 0.952 . S
H730 C712 0.952 . S
H731 C720 0.948 . S
O732 Zn717 2.034 . S
O732 C727 1.246 . S
O733 Zn725 2.024 . S
O733 C727 1.249 . S
H734 C716 0.948 . S
O735 Zn725 2.039 . S
O735 C739 1.251 . S
O736 Zn717 2.025 . S
O736 C739 1.254 . S
O737 C718 1.246 . S
O737 Zn725 2.034 . S
O738 Zn717 2.024 . S
O738 C718 1.249 . S
C739 O735 1.251 . S
C739 O736 1.254 . S
H740 C713 0.949 . S
H741 C715 0.950 . S
H742 C722 0.949 . S
H743 C724 0.950 . S
C744 O760 1.251 . S
C744 O762 1.254 . S
N745 C746 1.333 . S
N745 C750 1.307 . S
N745 Zn751 2.020 . S
C746 N745 1.333 . S
C746 C747 1.379 . S
C746 H764 0.952 . S
C747 C746 1.379 . S
C747 C748 1.390 . S
C747 H774 0.949 . S
C748 C747 1.390 . S
C748 C749 1.357 . S
C749 C748 1.357 . S
C749 C750 1.370 . S
C749 H775 0.950 . S
C750 N745 1.307 . S
C750 C749 1.370 . S
C750 H768 0.948 . S
Zn751 N745 2.020 . S
Zn751 O760 2.039 . S
Zn751 O766 2.034 . S
Zn751 O770 2.025 . S
Zn751 O772 2.024 . S
C752 O771 1.246 . S
C752 O772 1.249 . S
N753 C754 1.307 . S
N753 C755 1.333 . S
N753 Zn759 2.020 . S
C754 N753 1.307 . S
C754 C758 1.370 . S
C754 H765 0.948 . S
C755 N753 1.333 . S
C755 C756 1.379 . S
C755 H763 0.952 . S
C756 C755 1.379 . S
C756 C757 1.390 . S
C756 H776 0.949 . S
C757 C756 1.390 . S
C757 C758 1.357 . S
C758 C754 1.370 . S
C758 C757 1.357 . S
C758 H777 0.950 . S
Zn759 N753 2.020 . S
Zn759 O762 2.025 . S
Zn759 O767 2.024 . S
Zn759 O769 2.039 . S
Zn759 O771 2.034 . S
O760 C744 1.251 . S
O760 Zn751 2.039 . S
C761 O766 1.246 . S
C761 O767 1.249 . S
O762 C744 1.254 . S
O762 Zn759 2.025 . S
H763 C755 0.952 . S
H764 C746 0.952 . S
H765 C754 0.948 . S
O766 Zn751 2.034 . S
O766 C761 1.246 . S
O767 Zn759 2.024 . S
O767 C761 1.249 . S
H768 C750 0.948 . S
O769 Zn759 2.039 . S
O769 C773 1.251 . S
O770 Zn751 2.025 . S
O770 C773 1.254 . S
O771 C752 1.246 . S
O771 Zn759 2.034 . S
O772 Zn751 2.024 . S
O772 C752 1.249 . S
C773 O769 1.251 . S
C773 O770 1.254 . S
H774 C747 0.949 . S
H775 C749 0.950 . S
H776 C756 0.949 . S
H777 C758 0.950 . S
C778 O794 1.251 . S
C778 O796 1.254 . S
N779 C780 1.333 . S
N779 C784 1.307 . S
N779 Zn785 2.020 . S
C780 N779 1.333 . S
C780 C781 1.379 . S
C780 H798 0.952 . S
C781 C780 1.379 . S
C781 C782 1.390 . S
C781 H808 0.949 . S
C782 C781 1.390 . S
C782 C783 1.357 . S
C783 C782 1.357 . S
C783 C784 1.370 . S
C783 H809 0.950 . S
C784 N779 1.307 . S
C784 C783 1.370 . S
C784 H802 0.948 . S
Zn785 N779 2.020 . S
Zn785 O794 2.039 . S
Zn785 O800 2.034 . S
Zn785 O804 2.025 . S
Zn785 O806 2.024 . S
C786 O805 1.246 . S
C786 O806 1.249 . S
N787 C788 1.307 . S
N787 C789 1.333 . S
N787 Zn793 2.020 . S
C788 N787 1.307 . S
C788 C792 1.370 . S
C788 H799 0.948 . S
C789 N787 1.333 . S
C789 C790 1.379 . S
C789 H797 0.952 . S
C790 C789 1.379 . S
C790 C791 1.390 . S
C790 H810 0.949 . S
C791 C790 1.390 . S
C791 C792 1.357 . S
C792 C788 1.370 . S
C792 C791 1.357 . S
C792 H811 0.950 . S
Zn793 N787 2.020 . S
Zn793 O796 2.025 . S
Zn793 O801 2.024 . S
Zn793 O803 2.039 . S
Zn793 O805 2.034 . S
O794 C778 1.251 . S
O794 Zn785 2.039 . S
C795 O800 1.246 . S
C795 O801 1.249 . S
O796 C778 1.254 . S
O796 Zn793 2.025 . S
H797 C789 0.952 . S
H798 C780 0.952 . S
H799 C788 0.948 . S
O800 Zn785 2.034 . S
O800 C795 1.246 . S
O801 Zn793 2.024 . S
O801 C795 1.249 . S
H802 C784 0.948 . S
O803 Zn793 2.039 . S
O803 C807 1.251 . S
O804 Zn785 2.025 . S
O804 C807 1.254 . S
O805 C786 1.246 . S
O805 Zn793 2.034 . S
O806 Zn785 2.024 . S
O806 C786 1.249 . S
C807 O803 1.251 . S
C807 O804 1.254 . S
H808 C781 0.949 . S
H809 C783 0.950 . S
H810 C790 0.949 . S
H811 C792 0.950 . S
C812 O828 1.251 . S
C812 O830 1.254 . S
N813 C814 1.333 . S
N813 C818 1.307 . S
N813 Zn819 2.020 . S
C814 N813 1.333 . S
C814 C815 1.379 . S
C814 H832 0.952 . S
C815 C814 1.379 . S
C815 C816 1.390 . S
C815 H842 0.949 . S
C816 C815 1.390 . S
C816 C817 1.357 . S
C817 C816 1.357 . S
C817 C818 1.370 . S
C817 H843 0.950 . S
C818 N813 1.307 . S
C818 C817 1.370 . S
C818 H836 0.948 . S
Zn819 N813 2.020 . S
Zn819 O828 2.039 . S
Zn819 O834 2.034 . S
Zn819 O838 2.025 . S
Zn819 O840 2.024 . S
C820 O839 1.246 . S
C820 O840 1.249 . S
N821 C822 1.307 . S
N821 C823 1.333 . S
N821 Zn827 2.020 . S
C822 N821 1.307 . S
C822 C826 1.370 . S
C822 H833 0.948 . S
C823 N821 1.333 . S
C823 C824 1.379 . S
C823 H831 0.952 . S
C824 C823 1.379 . S
C824 C825 1.390 . S
C824 H844 0.949 . S
C825 C824 1.390 . S
C825 C826 1.357 . S
C826 C822 1.370 . S
C826 C825 1.357 . S
C826 H845 0.950 . S
Zn827 N821 2.020 . S
Zn827 O830 2.025 . S
Zn827 O835 2.024 . S
Zn827 O837 2.039 . S
Zn827 O839 2.034 . S
O828 C812 1.251 . S
O828 Zn819 2.039 . S
C829 O834 1.246 . S
C829 O835 1.249 . S
O830 C812 1.254 . S
O830 Zn827 2.025 . S
H831 C823 0.952 . S
H832 C814 0.952 . S
H833 C822 0.948 . S
O834 Zn819 2.034 . S
O834 C829 1.246 . S
O835 Zn827 2.024 . S
O835 C829 1.249 . S
H836 C818 0.948 . S
O837 Zn827 2.039 . S
O837 C841 1.251 . S
O838 Zn819 2.025 . S
O838 C841 1.254 . S
O839 C820 1.246 . S
O839 Zn827 2.034 . S
O840 Zn819 2.024 . S
O840 C820 1.249 . S
C841 O837 1.251 . S
C841 O838 1.254 . S
H842 C815 0.949 . S
H843 C817 0.950 . S
H844 C824 0.949 . S
H845 C826 0.950 . S
C846 O862 1.251 . S
C846 O864 1.254 . S
N847 C848 1.333 . S
N847 C852 1.307 . S
N847 Zn853 2.020 . S
C848 N847 1.333 . S
C848 C849 1.379 . S
C848 H866 0.952 . S
C849 C848 1.379 . S
C849 C850 1.390 . S
C849 H876 0.949 . S
C850 C849 1.390 . S
C850 C851 1.357 . S
C851 C850 1.357 . S
C851 C852 1.370 . S
C851 H877 0.950 . S
C852 N847 1.307 . S
C852 C851 1.370 . S
C852 H870 0.948 . S
Zn853 N847 2.020 . S
Zn853 O862 2.039 . S
Zn853 O868 2.034 . S
Zn853 O872 2.026 . S
Zn853 O874 2.024 . S
C854 O873 1.246 . S
C854 O874 1.249 1_655 S
N855 C856 1.307 . S
N855 C857 1.333 1_554 S
N855 Zn861 2.020 . S
C856 N855 1.307 . S
C856 C860 1.370 . S
C856 H867 0.948 . S
C857 N855 1.333 1_556 S
C857 C858 1.393 . S
C857 H865 0.952 . S
C858 C857 1.393 . S
C858 C859 1.384 1_455 S
C858 H878 0.942 1_455 S
C859 C858 1.384 1_655 S
C859 C860 1.348 1_656 S
C860 C856 1.370 . S
C860 C859 1.348 1_454 S
C860 H879 0.950 . S
Zn861 N855 2.020 . S
Zn861 O864 2.025 . S
Zn861 O869 2.024 . S
Zn861 O871 2.039 1_554 S
Zn861 O873 2.034 1_455 S
O862 C846 1.251 . S
O862 Zn853 2.039 . S
C863 O868 1.246 . S
C863 O869 1.249 . S
O864 C846 1.254 . S
O864 Zn861 2.025 . S
H865 C857 0.952 . S
H866 C848 0.952 . S
H867 C856 0.948 . S
O868 Zn853 2.034 . S
O868 C863 1.246 . S
O869 Zn861 2.024 . S
O869 C863 1.249 . S
H870 C852 0.948 . S
O871 Zn861 2.039 1_556 S
O871 C875 1.251 . S
O872 Zn853 2.026 . S
O872 C875 1.254 1_554 S
O873 C854 1.246 . S
O873 Zn861 2.034 1_655 S
O874 Zn853 2.024 . S
O874 C854 1.249 1_455 S
C875 O871 1.251 . S
C875 O872 1.254 1_556 S
H876 C849 0.949 . S
H877 C851 0.950 . S
H878 C858 0.942 1_655 S
H879 C860 0.950 . S
C880 C881 1.349 . S
C880 C882 1.327 . S
C880 H905 0.950 . S
C881 C880 1.349 . S
C881 C897 1.349 . S
C882 C880 1.327 . S
C882 C901 1.429 . S
C882 H906 0.950 . S
C883 C900 1.574 . S
C883 C902 1.368 . S
C883 H907 0.949 . S
H884 C888 0.949 . S
C885 C886 1.349 . S
C885 C887 1.327 . S
C885 H908 0.950 . S
C886 C885 1.349 . S
C886 C898 1.349 . S
C887 C885 1.327 . S
C887 C903 1.429 . S
C887 H909 0.950 . S
C888 H884 0.949 . S
C888 C896 1.574 . S
C888 C904 1.368 . S
H889 C897 0.950 . S
H890 C895 0.950 . S
H891 C896 0.949 . S
H892 C898 0.950 . S
H893 C899 0.950 . S
H894 C900 0.949 . S
C895 H890 0.950 . S
C895 C897 1.327 . S
C895 C901 1.429 . S
C896 C888 1.574 . S
C896 H891 0.949 . S
C896 C902 1.368 . S
C897 C881 1.349 . S
C897 H889 0.950 . S
C897 C895 1.327 . S
C898 C886 1.349 . S
C898 H892 0.950 . S
C898 C899 1.327 . S
C899 H893 0.950 . S
C899 C898 1.327 . S
C899 C903 1.429 . S
C900 C883 1.574 . S
C900 H894 0.949 . S
C900 C904 1.368 . S
C901 C882 1.429 . S
C901 C895 1.429 . S
C901 C902 1.523 . S
C902 C883 1.368 . S
C902 C896 1.368 . S
C902 C901 1.523 . S
C903 C887 1.429 . S
C903 C899 1.429 . S
C903 C904 1.523 . S
C904 C888 1.368 . S
C904 C900 1.368 . S
C904 C903 1.523 . S
H905 C880 0.950 . S
H906 C882 0.950 . S
H907 C883 0.949 . S
H908 C885 0.950 . S
H909 C887 0.950 . S
C910 C911 1.349 . S
C910 C912 1.327 . S
C910 H935 0.950 . S
C911 C910 1.349 . S
C911 C927 1.349 . S
C912 C910 1.327 . S
C912 C931 1.429 . S
C912 H936 0.950 . S
C913 C930 1.574 . S
C913 C932 1.368 . S
C913 H937 0.949 . S
H914 C918 0.949 . S
C915 C916 1.349 . S
C915 C917 1.327 . S
C915 H938 0.950 . S
C916 C915 1.349 . S
C916 C928 1.349 . S
C917 C915 1.327 . S
C917 C933 1.429 . S
C917 H939 0.950 . S
C918 H914 0.949 . S
C918 C926 1.574 . S
C918 C934 1.368 . S
H919 C927 0.950 . S
H920 C925 0.950 . S
H921 C926 0.949 . S
H922 C928 0.950 . S
H923 C929 0.950 . S
H924 C930 0.949 . S
C925 H920 0.950 . S
C925 C927 1.327 . S
C925 C931 1.429 . S
C926 C918 1.574 . S
C926 H921 0.949 . S
C926 C932 1.368 . S
C927 C911 1.349 . S
C927 H919 0.950 . S
C927 C925 1.327 . S
C928 C916 1.349 . S
C928 H922 0.950 . S
C928 C929 1.327 . S
C929 H923 0.950 . S
C929 C928 1.327 . S
C929 C933 1.429 . S
C930 C913 1.574 . S
C930 H924 0.949 . S
C930 C934 1.368 . S
C931 C912 1.429 . S
C931 C925 1.429 . S
C931 C932 1.523 . S
C932 C913 1.368 . S
C932 C926 1.368 . S
C932 C931 1.523 . S
C933 C917 1.429 . S
C933 C929 1.429 . S
C933 C934 1.523 . S
C934 C918 1.368 . S
C934 C930 1.368 . S
C934 C933 1.523 . S
H935 C910 0.950 . S
H936 C912 0.950 . S
H937 C913 0.949 . S
H938 C915 0.950 . S
H939 C917 0.950 . S
C940 C941 1.349 . S
C940 C942 1.327 . S
C940 H965 0.950 . S
C941 C940 1.349 . S
C941 C957 1.349 . S
C942 C940 1.327 . S
C942 C961 1.429 . S
C942 H966 0.950 . S
C943 C960 1.574 . S
C943 C962 1.368 . S
C943 H967 0.949 . S
H944 C948 0.949 . S
C945 C946 1.349 . S
C945 C947 1.327 . S
C945 H968 0.950 . S
C946 C945 1.349 . S
C946 C958 1.349 . S
C947 C945 1.327 . S
C947 C963 1.429 . S
C947 H969 0.950 . S
C948 H944 0.949 . S
C948 C956 1.574 . S
C948 C964 1.368 . S
H949 C957 0.950 . S
H950 C955 0.950 . S
H951 C956 0.949 . S
H952 C958 0.950 . S
H953 C959 0.950 . S
H954 C960 0.949 . S
C955 H950 0.950 . S
C955 C957 1.327 . S
C955 C961 1.429 . S
C956 C948 1.574 . S
C956 H951 0.949 . S
C956 C962 1.368 . S
C957 C941 1.349 . S
C957 H949 0.950 . S
C957 C955 1.327 . S
C958 C946 1.349 . S
C958 H952 0.950 . S
C958 C959 1.327 . S
C959 H953 0.950 . S
C959 C958 1.327 . S
C959 C963 1.429 . S
C960 C943 1.574 . S
C960 H954 0.949 . S
C960 C964 1.368 . S
C961 C942 1.429 . S
C961 C955 1.429 . S
C961 C962 1.523 . S
C962 C943 1.368 . S
C962 C956 1.368 . S
C962 C961 1.523 . S
C963 C947 1.429 . S
C963 C959 1.429 . S
C963 C964 1.523 . S
C964 C948 1.368 . S
C964 C960 1.368 . S
C964 C963 1.523 . S
H965 C940 0.950 . S
H966 C942 0.950 . S
H967 C943 0.949 . S
H968 C945 0.950 . S
H969 C947 0.950 . S
C970 C971 1.349 . S
C970 C972 1.327 . S
C970 H995 0.950 . S
C971 C970 1.349 . S
C971 C987 1.349 . S
C972 C970 1.327 . S
C972 C991 1.429 . S
C972 H996 0.950 . S
C973 C990 1.574 . S
C973 C992 1.368 . S
C973 H997 0.949 . S
H974 C978 0.949 . S
C975 C976 1.349 . S
C975 C977 1.327 . S
C975 H998 0.950 . S
C976 C975 1.349 . S
C976 C988 1.349 . S
C977 C975 1.327 . S
C977 C993 1.429 . S
C977 H999 0.950 . S
C978 H974 0.949 . S
C978 C986 1.574 . S
C978 C994 1.368 . S
H979 C987 0.950 . S
H980 C985 0.950 . S
H981 C986 0.949 . S
H982 C988 0.950 . S
H983 C989 0.950 . S
H984 C990 0.949 . S
C985 H980 0.950 . S
C985 C987 1.327 . S
C985 C991 1.429 . S
C986 C978 1.574 . S
C986 H981 0.949 . S
C986 C992 1.368 . S
C987 C971 1.349 . S
C987 H979 0.950 . S
C987 C985 1.327 . S
C988 C976 1.349 . S
C988 H982 0.950 . S
C988 C989 1.327 . S
C989 H983 0.950 . S
C989 C988 1.327 . S
C989 C993 1.429 . S
C990 C973 1.574 . S
C990 H984 0.949 . S
C990 C994 1.368 . S
C991 C972 1.429 . S
C991 C985 1.429 . S
C991 C992 1.523 . S
C992 C973 1.368 . S
C992 C986 1.368 . S
C992 C991 1.523 . S
C993 C977 1.429 . S
C993 C989 1.429 . S
C993 C994 1.523 . S
C994 C978 1.368 . S
C994 C990 1.368 . S
C994 C993 1.523 . S
H995 C970 0.950 . S
H996 C972 0.950 . S
H997 C973 0.949 . S
H998 C975 0.950 . S
H999 C977 0.950 . S
C1000 C1001 1.349 . S
C1000 C1002 1.327 . S
C1000 H1025 0.950 . S
C1001 C1000 1.349 . S
C1001 C1017 1.349 . S
C1002 C1000 1.327 . S
C1002 C1021 1.429 . S
C1002 H1026 0.950 . S
C1003 C1020 1.574 . S
C1003 C1022 1.368 . S
C1003 H1027 0.949 1_455 S
H1004 C1008 0.949 . S
C1005 C1006 1.349 . S
C1005 C1007 1.327 . S
C1005 H1028 0.950 1_455 S
C1006 C1005 1.349 . S
C1006 C1018 1.349 . S
C1007 C1005 1.327 . S
C1007 C1023 1.429 . S
C1007 H1029 0.950 1_455 S
C1008 H1004 0.949 . S
C1008 C1016 1.574 . S
C1008 C1024 1.368 . S
H1009 C1017 0.983 . S
H1010 C1015 0.950 1_655 S
H1011 C1016 0.949 . S
H1012 C1018 0.950 . S
H1013 C1019 0.950 . S
H1014 C1020 0.949 1_655 S
C1015 H1010 0.950 1_455 S
C1015 C1017 1.327 . S
C1015 C1021 1.429 . S
C1016 C1008 1.574 . S
C1016 H1011 0.949 . S
C1016 C1022 1.368 . S
C1017 C1001 1.349 . S
C1017 H1009 0.983 . S
C1017 C1015 1.327 . S
C1018 C1006 1.349 . S
C1018 H1012 0.950 . S
C1018 C1019 1.327 . S
C1019 H1013 0.950 . S
C1019 C1018 1.327 . S
C1019 C1023 1.429 . S
C1020 C1003 1.574 . S
C1020 H1014 0.949 1_455 S
C1020 C1024 1.368 . S
C1021 C1002 1.429 . S
C1021 C1015 1.429 . S
C1021 C1022 1.523 . S
C1022 C1003 1.368 . S
C1022 C1016 1.368 . S
C1022 C1021 1.523 . S
C1023 C1007 1.429 . S
C1023 C1019 1.429 . S
C1023 C1024 1.523 . S
C1024 C1008 1.368 . S
C1024 C1020 1.368 . S
C1024 C1023 1.523 . S
H1025 C1000 0.950 . S
H1026 C1002 0.950 . S
H1027 C1003 0.949 1_655 S
H1028 C1005 0.950 1_655 S
H1029 C1007 0.950 1_655 S
C1030 C1031 1.349 . S
C1030 C1032 1.327 . S
C1030 H1055 0.950 . S
C1031 C1030 1.349 . S
C1031 C1047 1.349 . S
C1032 C1030 1.327 . S
C1032 C1051 1.429 . S
C1032 H1056 0.950 . S
C1033 C1050 1.574 . S
C1033 C1052 1.368 . S
C1033 H1057 0.949 . S
H1034 C1038 0.949 . S
C1035 C1036 1.349 . S
C1035 C1037 1.327 . S
C1035 H1058 0.950 . S
C1036 C1035 1.349 . S
C1036 C1048 1.349 . S
C1037 C1035 1.327 . S
C1037 C1053 1.429 . S
C1037 H1059 0.950 . S
C1038 H1034 0.949 . S
C1038 C1046 1.574 . S
C1038 C1054 1.368 . S
H1039 C1047 0.950 . S
H1040 C1045 0.950 . S
H1041 C1046 0.949 . S
H1042 C1048 0.950 . S
H1043 C1049 0.950 . S
H1044 C1050 0.949 . S
C1045 H1040 0.950 . S
C1045 C1047 1.327 . S
C1045 C1051 1.429 . S
C1046 C1038 1.574 . S
C1046 H1041 0.949 . S
C1046 C1052 1.368 . S
C1047 C1031 1.349 . S
C1047 H1039 0.950 . S
C1047 C1045 1.327 . S
C1048 C1036 1.349 . S
C1048 H1042 0.950 . S
C1048 C1049 1.327 . S
C1049 H1043 0.950 . S
C1049 C1048 1.327 . S
C1049 C1053 1.429 . S
C1050 C1033 1.574 . S
C1050 H1044 0.949 . S
C1050 C1054 1.368 . S
C1051 C1032 1.429 . S
C1051 C1045 1.429 . S
C1051 C1052 1.523 . S
C1052 C1033 1.368 . S
C1052 C1046 1.368 . S
C1052 C1051 1.523 . S
C1053 C1037 1.429 . S
C1053 C1049 1.429 . S
C1053 C1054 1.523 . S
C1054 C1038 1.368 . S
C1054 C1050 1.368 . S
C1054 C1053 1.523 . S
H1055 C1030 0.950 . S
H1056 C1032 0.950 . S
H1057 C1033 0.949 . S
H1058 C1035 0.950 . S
H1059 C1037 0.950 . S
C1060 C1061 1.349 . S
C1060 C1062 1.327 . S
C1060 H1085 0.950 . S
C1061 C1060 1.349 . S
C1061 C1077 1.349 . S
C1062 C1060 1.327 . S
C1062 C1081 1.429 . S
C1062 H1086 0.950 . S
C1063 C1080 1.574 . S
C1063 C1082 1.368 . S
C1063 H1087 0.949 . S
H1064 C1068 0.949 . S
C1065 C1066 1.322 1_554 S
C1065 C1067 1.327 1_554 S
C1065 H1088 0.950 . S
C1066 C1065 1.322 1_556 S
C1066 C1078 1.407 . S
C1067 C1065 1.327 1_556 S
C1067 C1083 1.429 . S
C1067 H1089 0.950 1_556 S
C1068 H1064 0.949 . S
C1068 C1076 1.574 . S
C1068 C1084 1.368 . S
H1069 C1077 0.950 . S
H1070 C1075 0.950 . S
H1071 C1076 0.949 . S
H1072 C1078 0.950 . S
H1073 C1079 0.950 . S
H1074 C1080 0.949 . S
C1075 H1070 0.950 . S
C1075 C1077 1.327 . S
C1075 C1081 1.429 . S
C1076 C1068 1.574 . S
C1076 H1071 0.949 . S
C1076 C1082 1.368 . S
C1077 C1061 1.349 . S
C1077 H1069 0.950 . S
C1077 C1075 1.327 . S
C1078 C1066 1.407 . S
C1078 H1072 0.950 . S
C1078 C1079 1.327 . S
C1079 H1073 0.950 . S
C1079 C1078 1.327 . S
C1079 C1083 1.429 . S
C1080 C1063 1.574 . S
C1080 H1074 0.949 . S
C1080 C1084 1.368 . S
C1081 C1062 1.429 . S
C1081 C1075 1.429 . S
C1081 C1082 1.523 . S
C1082 C1063 1.368 . S
C1082 C1076 1.368 . S
C1082 C1081 1.523 . S
C1083 C1067 1.429 . S
C1083 C1079 1.429 . S
C1083 C1084 1.523 . S
C1084 C1068 1.368 . S
C1084 C1080 1.368 . S
C1084 C1083 1.523 . S
H1085 C1060 0.950 . S
H1086 C1062 0.950 . S
H1087 C1063 0.949 . S
H1088 C1065 0.950 . S
H1089 C1067 0.950 1_554 S
C1090 C1091 1.349 . S
C1090 C1092 1.327 . S
C1090 H1115 0.950 . S
C1091 C1090 1.349 . S
C1091 C1107 1.349 . S
C1092 C1090 1.327 . S
C1092 C1111 1.429 . S
C1092 H1116 0.950 . S
C1093 C1110 1.574 . S
C1093 C1112 1.368 . S
C1093 H1117 0.949 . S
H1094 C1098 0.949 . S
C1095 C1096 1.349 . S
C1095 C1097 1.327 . S
C1095 H1118 0.950 . S
C1096 C1095 1.349 . S
C1096 C1108 1.349 . S
C1097 C1095 1.327 . S
C1097 C1113 1.429 . S
C1097 H1119 0.950 . S
C1098 H1094 0.949 . S
C1098 C1106 1.574 . S
C1098 C1114 1.368 . S
H1099 C1107 0.950 . S
H1100 C1105 0.950 . S
H1101 C1106 0.949 . S
H1102 C1108 0.950 . S
H1103 C1109 0.950 . S
H1104 C1110 0.949 . S
C1105 H1100 0.950 . S
C1105 C1107 1.327 . S
C1105 C1111 1.429 . S
C1106 C1098 1.574 . S
C1106 H1101 0.949 . S
C1106 C1112 1.368 . S
C1107 C1091 1.349 . S
C1107 H1099 0.950 . S
C1107 C1105 1.327 . S
C1108 C1096 1.349 . S
C1108 H1102 0.950 . S
C1108 C1109 1.327 . S
C1109 H1103 0.950 . S
C1109 C1108 1.327 . S
C1109 C1113 1.429 . S
C1110 C1093 1.574 . S
C1110 H1104 0.949 . S
C1110 C1114 1.368 . S
C1111 C1092 1.429 . S
C1111 C1105 1.429 . S
C1111 C1112 1.523 . S
C1112 C1093 1.368 . S
C1112 C1106 1.368 . S
C1112 C1111 1.523 . S
C1113 C1097 1.429 . S
C1113 C1109 1.429 . S
C1113 C1114 1.523 . S
C1114 C1098 1.368 . S
C1114 C1110 1.368 . S
C1114 C1113 1.523 . S
H1115 C1090 0.950 . S
H1116 C1092 0.950 . S
H1117 C1093 0.949 . S
H1118 C1095 0.950 . S
H1119 C1097 0.950 . S
C1120 C1121 1.349 . S
C1120 C1122 1.327 . S
C1120 H1145 0.950 . S
C1121 C1120 1.349 . S
C1121 C1137 1.349 1_545 S
C1122 C1120 1.327 . S
C1122 C1141 1.429 . S
C1122 H1146 0.950 . S
C1123 C1140 1.574 . S
C1123 C1142 1.368 1_565 S
C1123 H1147 0.949 . S
H1124 C1128 0.949 . S
C1125 C1126 1.349 . S
C1125 C1127 1.327 . S
C1125 H1148 0.950 . S
C1126 C1125 1.349 . S
C1126 C1138 1.349 1_565 S
C1127 C1125 1.327 . S
C1127 C1143 1.429 1_565 S
C1127 H1149 0.950 . S
C1128 H1124 0.949 . S
C1128 C1136 1.574 . S
C1128 C1144 1.368 . S
H1129 C1137 0.950 . S
H1130 C1135 0.950 . S
H1131 C1136 0.949 . S
H1132 C1138 0.950 . S
H1133 C1139 0.950 . S
H1134 C1140 0.949 . S
C1135 H1130 0.950 . S
C1135 C1137 1.327 . S
C1135 C1141 1.429 1_565 S
C1136 C1128 1.574 . S
C1136 H1131 0.949 . S
C1136 C1142 1.368 . S
C1137 C1121 1.349 1_565 S
C1137 H1129 0.950 . S
C1137 C1135 1.327 . S
C1138 C1126 1.349 1_545 S
C1138 H1132 0.950 . S
C1138 C1139 1.327 . S
C1139 H1133 0.950 . S
C1139 C1138 1.327 . S
C1139 C1143 1.429 . S
C1140 C1123 1.574 . S
C1140 H1134 0.949 . S
C1140 C1144 1.368 1_565 S
C1141 C1122 1.429 . S
C1141 C1135 1.429 1_545 S
C1141 C1142 1.523 . S
C1142 C1123 1.368 1_545 S
C1142 C1136 1.368 . S
C1142 C1141 1.523 . S
C1143 C1127 1.429 1_545 S
C1143 C1139 1.429 . S
C1143 C1144 1.523 . S
C1144 C1128 1.368 . S
C1144 C1140 1.368 1_545 S
C1144 C1143 1.523 . S
H1145 C1120 0.950 . S
H1146 C1122 0.950 . S
H1147 C1123 0.949 . S
H1148 C1125 0.950 . S
H1149 C1127 0.950 . S
C1150 C1151 1.349 . S
C1150 C1152 1.327 . S
C1150 H1175 0.950 . S
C1151 C1150 1.349 . S
C1151 C1167 1.349 . S
C1152 C1150 1.327 . S
C1152 C1171 1.429 . S
C1152 H1176 0.950 . S
C1153 C1170 1.574 . S
C1153 C1172 1.368 . S
C1153 H1177 0.949 . S
H1154 C1158 0.949 . S
C1155 C1156 1.349 . S
C1155 C1157 1.327 . S
C1155 H1178 0.950 . S
C1156 C1155 1.349 . S
C1156 C1168 1.349 . S
C1157 C1155 1.327 . S
C1157 C1173 1.429 . S
C1157 H1179 0.950 . S
C1158 H1154 0.949 . S
C1158 C1166 1.574 . S
C1158 C1174 1.368 . S
H1159 C1167 0.950 . S
H1160 C1165 0.950 . S
H1161 C1166 0.949 . S
H1162 C1168 0.950 . S
H1163 C1169 0.950 . S
H1164 C1170 0.949 . S
C1165 H1160 0.950 . S
C1165 C1167 1.327 . S
C1165 C1171 1.429 . S
C1166 C1158 1.574 . S
C1166 H1161 0.949 . S
C1166 C1172 1.368 . S
C1167 C1151 1.349 . S
C1167 H1159 0.950 . S
C1167 C1165 1.327 . S
C1168 C1156 1.349 . S
C1168 H1162 0.950 . S
C1168 C1169 1.327 . S
C1169 H1163 0.950 . S
C1169 C1168 1.327 . S
C1169 C1173 1.429 . S
C1170 C1153 1.574 . S
C1170 H1164 0.949 . S
C1170 C1174 1.368 . S
C1171 C1152 1.429 . S
C1171 C1165 1.429 . S
C1171 C1172 1.523 . S
C1172 C1153 1.368 . S
C1172 C1166 1.368 . S
C1172 C1171 1.523 . S
C1173 C1157 1.429 . S
C1173 C1169 1.429 . S
C1173 C1174 1.523 . S
C1174 C1158 1.368 . S
C1174 C1170 1.368 . S
C1174 C1173 1.523 . S
H1175 C1150 0.950 . S
H1176 C1152 0.950 . S
H1177 C1153 0.949 . S
H1178 C1155 0.950 . S
H1179 C1157 0.950 . S
C1180 C1181 1.349 1_565 S
C1180 C1182 1.327 . S
C1180 H1205 0.950 . S
C1181 C1180 1.349 1_545 S
C1181 C1197 1.349 . S
C1182 C1180 1.327 . S
C1182 C1201 1.429 1_565 S
C1182 H1206 0.950 . S
C1183 C1200 1.574 . S
C1183 C1202 1.368 . S
C1183 H1207 0.949 . S
H1184 C1188 0.928 1_565 S
C1185 C1186 1.349 . S
C1185 C1187 1.327 . S
C1185 H1208 0.950 . S
C1186 C1185 1.349 . S
C1186 C1198 1.349 . S
C1187 C1185 1.327 . S
C1187 C1203 1.429 . S
C1187 H1209 0.950 . S
C1188 H1184 0.928 1_545 S
C1188 C1196 1.572 1_545 S
C1188 C1204 1.395 . S
H1189 C1197 0.950 . S
H1190 C1195 0.950 . S
H1191 C1196 0.979 . S
H1192 C1198 0.950 1_565 S
H1193 C1199 0.950 1_565 S
H1194 C1200 0.949 . S
C1195 H1190 0.950 . S
C1195 C1197 1.327 . S
C1195 C1201 1.429 . S
C1196 C1188 1.572 1_565 S
C1196 H1191 0.979 . S
C1196 C1202 1.338 1_565 S
C1197 C1181 1.349 . S
C1197 H1189 0.950 . S
C1197 C1195 1.327 . S
C1198 C1186 1.349 . S
C1198 H1192 0.950 1_545 S
C1198 C1199 1.327 . S
C1199 H1193 0.950 1_545 S
C1199 C1198 1.327 . S
C1199 C1203 1.429 . S
C1200 C1183 1.574 . S
C1200 H1194 0.949 . S
C1200 C1204 1.368 . S
C1201 C1182 1.429 1_545 S
C1201 C1195 1.429 . S
C1201 C1202 1.523 . S
C1202 C1183 1.368 . S
C1202 C1196 1.338 1_545 S
C1202 C1201 1.523 . S
C1203 C1187 1.429 . S
C1203 C1199 1.429 . S
C1203 C1204 1.523 . S
C1204 C1188 1.395 . S
C1204 C1200 1.368 . S
C1204 C1203 1.523 . S
H1205 C1180 0.950 . S
H1206 C1182 0.950 . S
H1207 C1183 0.949 . S
H1208 C1185 0.950 . S
H1209 C1187 0.950 . S
C1210 C1211 1.349 . S
C1210 C1212 1.327 . S
C1210 H1235 0.950 . S
C1211 C1210 1.349 . S
C1211 C1227 1.349 . S
C1212 C1210 1.327 . S
C1212 C1231 1.429 . S
C1212 H1236 0.950 . S
C1213 C1230 1.574 . S
C1213 C1232 1.368 . S
C1213 H1237 0.949 . S
H1214 C1218 0.949 . S
C1215 C1216 1.349 . S
C1215 C1217 1.327 . S
C1215 H1238 0.950 . S
C1216 C1215 1.349 . S
C1216 C1228 1.349 . S
C1217 C1215 1.327 . S
C1217 C1233 1.429 . S
C1217 H1239 0.950 . S
C1218 H1214 0.949 . S
C1218 C1226 1.574 . S
C1218 C1234 1.368 . S
H1219 C1227 0.950 . S
H1220 C1225 0.950 . S
H1221 C1226 0.949 . S
H1222 C1228 0.950 . S
H1223 C1229 0.950 . S
H1224 C1230 0.949 . S
C1225 H1220 0.950 . S
C1225 C1227 1.327 . S
C1225 C1231 1.429 . S
C1226 C1218 1.574 . S
C1226 H1221 0.949 . S
C1226 C1232 1.368 . S
C1227 C1211 1.349 . S
C1227 H1219 0.950 . S
C1227 C1225 1.327 . S
C1228 C1216 1.349 . S
C1228 H1222 0.950 . S
C1228 C1229 1.327 . S
C1229 H1223 0.950 . S
C1229 C1228 1.327 . S
C1229 C1233 1.429 . S
C1230 C1213 1.574 . S
C1230 H1224 0.949 . S
C1230 C1234 1.368 . S
C1231 C1212 1.429 . S
C1231 C1225 1.429 . S
C1231 C1232 1.523 . S
C1232 C1213 1.368 . S
C1232 C1226 1.368 . S
C1232 C1231 1.523 . S
C1233 C1217 1.429 . S
C1233 C1229 1.429 . S
C1233 C1234 1.523 . S
C1234 C1218 1.368 . S
C1234 C1230 1.368 . S
C1234 C1233 1.523 . S
H1235 C1210 0.950 . S
H1236 C1212 0.950 . S
H1237 C1213 0.949 . S
H1238 C1215 0.950 . S
H1239 C1217 0.950 . S
C1240 C1241 1.349 . S
C1240 C1242 1.327 . S
C1240 H1265 0.950 1_545 S
C1241 C1240 1.349 . S
C1241 C1257 1.349 . S
C1242 C1240 1.327 . S
C1242 C1261 1.429 . S
C1242 H1266 0.950 1_545 S
C1243 C1260 1.574 . S
C1243 C1262 1.368 . S
C1243 H1267 0.949 . S
H1244 C1248 0.949 . S
C1245 C1246 1.349 . S
C1245 C1247 1.327 . S
C1245 H1268 0.950 . S
C1246 C1245 1.349 . S
C1246 C1258 1.349 . S
C1247 C1245 1.327 . S
C1247 C1263 1.429 . S
C1247 H1269 0.950 . S
C1248 H1244 0.949 . S
C1248 C1256 1.574 . S
C1248 C1264 1.368 . S
H1249 C1257 0.950 . S
H1250 C1255 0.950 . S
H1251 C1256 0.988 . S
H1252 C1258 0.950 . S
H1253 C1259 0.950 . S
H1254 C1260 0.949 . S
C1255 H1250 0.950 . S
C1255 C1257 1.327 . S
C1255 C1261 1.429 . S
C1256 C1248 1.574 . S
C1256 H1251 0.988 . S
C1256 C1262 1.368 . S
C1257 C1241 1.349 . S
C1257 H1249 0.950 . S
C1257 C1255 1.327 . S
C1258 C1246 1.349 . S
C1258 H1252 0.950 . S
C1258 C1259 1.327 . S
C1259 H1253 0.950 . S
C1259 C1258 1.327 . S
C1259 C1263 1.429 . S
C1260 C1243 1.574 . S
C1260 H1254 0.949 . S
C1260 C1264 1.368 . S
C1261 C1242 1.429 . S
C1261 C1255 1.429 . S
C1261 C1262 1.523 . S
C1262 C1243 1.368 . S
C1262 C1256 1.368 . S
C1262 C1261 1.523 . S
C1263 C1247 1.429 . S
C1263 C1259 1.429 . S
C1263 C1264 1.523 . S
C1264 C1248 1.368 . S
C1264 C1260 1.368 . S
C1264 C1263 1.523 . S
H1265 C1240 0.950 1_565 S
H1266 C1242 0.950 1_565 S
H1267 C1243 0.949 . S
H1268 C1245 0.950 . S
H1269 C1247 0.950 . S
C1270 C1271 1.349 . S
C1270 C1272 1.327 . S
C1270 H1295 0.950 . S
C1271 C1270 1.349 . S
C1271 C1287 1.349 . S
C1272 C1270 1.327 . S
C1272 C1291 1.429 . S
C1272 H1296 0.950 . S
C1273 C1290 1.574 . S
C1273 C1292 1.368 . S
C1273 H1297 0.949 . S
H1274 C1278 0.949 . S
C1275 C1276 1.349 . S
C1275 C1277 1.327 . S
C1275 H1298 0.950 . S
C1276 C1275 1.349 . S
C1276 C1288 1.349 . S
C1277 C1275 1.327 . S
C1277 C1293 1.429 . S
C1277 H1299 0.950 . S
C1278 H1274 0.949 . S
C1278 C1286 1.574 . S
C1278 C1294 1.368 . S
H1279 C1287 0.950 . S
H1280 C1285 0.950 . S
H1281 C1286 0.949 . S
H1282 C1288 0.950 . S
H1283 C1289 0.950 . S
H1284 C1290 0.949 . S
C1285 H1280 0.950 . S
C1285 C1287 1.327 . S
C1285 C1291 1.429 . S
C1286 C1278 1.574 . S
C1286 H1281 0.949 . S
C1286 C1292 1.368 . S
C1287 C1271 1.349 . S
C1287 H1279 0.950 . S
C1287 C1285 1.327 . S
C1288 C1276 1.349 . S
C1288 H1282 0.950 . S
C1288 C1289 1.327 . S
C1289 H1283 0.950 . S
C1289 C1288 1.327 . S
C1289 C1293 1.429 . S
C1290 C1273 1.574 . S
C1290 H1284 0.949 . S
C1290 C1294 1.368 . S
C1291 C1272 1.429 . S
C1291 C1285 1.429 . S
C1291 C1292 1.523 . S
C1292 C1273 1.368 . S
C1292 C1286 1.368 . S
C1292 C1291 1.523 . S
C1293 C1277 1.429 . S
C1293 C1289 1.429 . S
C1293 C1294 1.523 . S
C1294 C1278 1.368 . S
C1294 C1290 1.368 . S
C1294 C1293 1.523 . S
H1295 C1270 0.950 . S
H1296 C1272 0.950 . S
H1297 C1273 0.949 . S
H1298 C1275 0.950 . S
H1299 C1277 0.950 . S
C1300 C1301 1.349 1_565 S
C1300 C1302 1.327 . S
C1300 H1325 0.950 . S
C1301 C1300 1.349 1_545 S
C1301 C1317 1.349 . S
C1302 C1300 1.327 . S
C1302 C1321 1.429 1_565 S
C1302 H1326 0.950 . S
C1303 C1320 1.574 . S
C1303 C1322 1.333 1_545 S
C1303 H1327 0.949 . S
H1304 C1308 0.949 . S
C1305 C1306 1.381 . S
C1305 C1307 1.321 1_565 S
C1305 H1328 0.925 1_565 S
C1306 C1305 1.381 . S
C1306 C1318 1.349 . S
C1307 C1305 1.321 1_545 S
C1307 C1323 1.429 1_545 S
C1307 H1329 0.950 . S
C1308 H1304 0.949 . S
C1308 C1316 1.574 . S
C1308 C1324 1.368 . S
H1309 C1317 0.950 . S
H1310 C1315 0.950 . S
H1311 C1316 0.949 . S
H1312 C1318 0.950 . S
H1313 C1319 0.950 . S
H1314 C1320 0.949 . S
C1315 H1310 0.950 . S
C1315 C1317 1.327 . S
C1315 C1321 1.429 . S
C1316 C1308 1.574 . S
C1316 H1311 0.949 . S
C1316 C1322 1.411 . S
C1317 C1301 1.349 . S
C1317 H1309 0.950 . S
C1317 C1315 1.327 . S
C1318 C1306 1.349 . S
C1318 H1312 0.950 . S
C1318 C1319 1.327 . S
C1319 H1313 0.950 . S
C1319 C1318 1.327 . S
C1319 C1323 1.429 . S
C1320 C1303 1.574 . S
C1320 H1314 0.949 . S
C1320 C1324 1.368 1_545 S
C1321 C1302 1.429 1_545 S
C1321 C1315 1.429 . S
C1321 C1322 1.516 1_545 S
C1322 C1303 1.333 1_565 S
C1322 C1316 1.411 . S
C1322 C1321 1.516 1_565 S
C1323 C1307 1.429 1_565 S
C1323 C1319 1.429 . S
C1323 C1324 1.523 . S
C1324 C1308 1.368 . S
C1324 C1320 1.368 1_565 S
C1324 C1323 1.523 . S
H1325 C1300 0.950 . S
H1326 C1302 0.950 . S
H1327 C1303 0.949 . S
H1328 C1305 0.925 1_545 S
H1329 C1307 0.950 . S
C1330 C1331 1.349 . S
C1330 C1332 1.327 . S
C1330 H1355 0.950 . S
C1331 C1330 1.349 . S
C1331 C1347 1.349 . S
C1332 C1330 1.327 . S
C1332 C1351 1.429 . S
C1332 H1356 0.950 . S
C1333 C1350 1.574 . S
C1333 C1352 1.368 . S
C1333 H1357 0.949 . S
H1334 C1338 0.949 . S
C1335 C1336 1.349 . S
C1335 C1337 1.327 . S
C1335 H1358 0.950 . S
C1336 C1335 1.349 . S
C1336 C1348 1.349 . S
C1337 C1335 1.327 . S
C1337 C1353 1.429 . S
C1337 H1359 0.950 . S
C1338 H1334 0.949 . S
C1338 C1346 1.574 . S
C1338 C1354 1.368 . S
H1339 C1347 0.950 . S
H1340 C1345 0.950 . S
H1341 C1346 0.949 . S
H1342 C1348 0.950 . S
H1343 C1349 0.950 . S
H1344 C1350 0.949 . S
C1345 H1340 0.950 . S
C1345 C1347 1.327 . S
C1345 C1351 1.429 . S
C1346 C1338 1.574 . S
C1346 H1341 0.949 . S
C1346 C1352 1.368 . S
C1347 C1331 1.349 . S
C1347 H1339 0.950 . S
C1347 C1345 1.327 . S
C1348 C1336 1.349 . S
C1348 H1342 0.950 . S
C1348 C1349 1.327 . S
C1349 H1343 0.950 . S
C1349 C1348 1.327 . S
C1349 C1353 1.429 . S
C1350 C1333 1.574 . S
C1350 H1344 0.949 . S
C1350 C1354 1.368 . S
C1351 C1332 1.429 . S
C1351 C1345 1.429 . S
C1351 C1352 1.523 . S
C1352 C1333 1.368 . S
C1352 C1346 1.368 . S
C1352 C1351 1.523 . S
C1353 C1337 1.429 . S
C1353 C1349 1.429 . S
C1353 C1354 1.523 . S
C1354 C1338 1.368 . S
C1354 C1350 1.368 . S
C1354 C1353 1.523 . S
H1355 C1330 0.950 . S
H1356 C1332 0.950 . S
H1357 C1333 0.949 . S
H1358 C1335 0.950 . S
H1359 C1337 0.950 . S
C1360 C1361 1.349 . S
C1360 C1362 1.327 . S
C1360 H1385 0.950 . S
C1361 C1360 1.349 . S
C1361 C1377 1.349 . S
C1362 C1360 1.327 . S
C1362 C1381 1.429 . S
C1362 H1386 0.950 . S
C1363 C1380 1.574 . S
C1363 C1382 1.368 1_556 S
C1363 H1387 0.949 . S
H1364 C1368 0.949 . S
C1365 C1366 1.349 . S
C1365 C1367 1.327 . S
C1365 H1388 0.950 . S
C1366 C1365 1.349 . S
C1366 C1378 1.349 1_556 S
C1367 C1365 1.327 . S
C1367 C1383 1.429 1_556 S
C1367 H1389 0.950 . S
C1368 H1364 0.949 . S
C1368 C1376 1.574 . S
C1368 C1384 1.368 . S
H1369 C1377 0.950 1_556 S
H1370 C1375 0.921 1_556 S
H1371 C1376 0.949 . S
H1372 C1378 0.950 . S
H1373 C1379 0.950 . S
H1374 C1380 0.949 . S
C1375 H1370 0.921 1_554 S
C1375 C1377 1.332 . S
C1375 C1381 1.452 . S
C1376 C1368 1.574 . S
C1376 H1371 0.949 . S
C1376 C1382 1.368 . S
C1377 C1361 1.349 . S
C1377 H1369 0.950 1_554 S
C1377 C1375 1.332 . S
C1378 C1366 1.349 1_554 S
C1378 H1372 0.950 . S
C1378 C1379 1.327 . S
C1379 H1373 0.950 . S
C1379 C1378 1.327 . S
C1379 C1383 1.429 . S
C1380 C1363 1.574 . S
C1380 H1374 0.949 . S
C1380 C1384 1.368 1_556 S
C1381 C1362 1.429 . S
C1381 C1375 1.452 . S
C1381 C1382 1.523 . S
C1382 C1363 1.368 1_554 S
C1382 C1376 1.368 . S
C1382 C1381 1.523 . S
C1383 C1367 1.429 1_554 S
C1383 C1379 1.429 . S
C1383 C1384 1.523 . S
C1384 C1368 1.368 . S
C1384 C1380 1.368 1_554 S
C1384 C1383 1.523 . S
H1385 C1360 0.950 . S
H1386 C1362 0.950 . S
H1387 C1363 0.949 . S
H1388 C1365 0.950 . S
H1389 C1367 0.950 . S
C1390 C1391 1.349 . S
C1390 C1392 1.327 . S
C1390 H1415 0.950 . S
C1391 C1390 1.349 . S
C1391 C1407 1.349 . S
C1392 C1390 1.327 . S
C1392 C1411 1.429 . S
C1392 H1416 0.950 . S
C1393 C1410 1.574 . S
C1393 C1412 1.368 . S
C1393 H1417 0.949 . S
H1394 C1398 0.949 . S
C1395 C1396 1.349 . S
C1395 C1397 1.327 . S
C1395 H1418 0.950 . S
C1396 C1395 1.349 . S
C1396 C1408 1.349 . S
C1397 C1395 1.327 . S
C1397 C1413 1.429 . S
C1397 H1419 0.950 . S
C1398 H1394 0.949 . S
C1398 C1406 1.574 . S
C1398 C1414 1.368 . S
H1399 C1407 0.950 . S
H1400 C1405 0.950 . S
H1401 C1406 0.949 . S
H1402 C1408 0.950 . S
H1403 C1409 0.950 . S
H1404 C1410 0.949 . S
C1405 H1400 0.950 . S
C1405 C1407 1.327 . S
C1405 C1411 1.429 . S
C1406 C1398 1.574 . S
C1406 H1401 0.949 . S
C1406 C1412 1.368 . S
C1407 C1391 1.349 . S
C1407 H1399 0.950 . S
C1407 C1405 1.327 . S
C1408 C1396 1.349 . S
C1408 H1402 0.950 . S
C1408 C1409 1.327 . S
C1409 H1403 0.950 . S
C1409 C1408 1.327 . S
C1409 C1413 1.429 . S
C1410 C1393 1.574 . S
C1410 H1404 0.949 . S
C1410 C1414 1.368 . S
C1411 C1392 1.429 . S
C1411 C1405 1.429 . S
C1411 C1412 1.523 . S
C1412 C1393 1.368 . S
C1412 C1406 1.368 . S
C1412 C1411 1.523 . S
C1413 C1397 1.429 . S
C1413 C1409 1.429 . S
C1413 C1414 1.523 . S
C1414 C1398 1.368 . S
C1414 C1410 1.368 . S
C1414 C1413 1.523 . S
H1415 C1390 0.950 . S
H1416 C1392 0.950 . S
H1417 C1393 0.949 . S
H1418 C1395 0.950 . S
H1419 C1397 0.950 . S
C1420 C1421 1.349 . S
C1420 C1422 1.327 . S
C1420 H1445 0.950 . S
C1421 C1420 1.349 . S
C1421 C1437 1.349 . S
C1422 C1420 1.327 . S
C1422 C1441 1.429 . S
C1422 H1446 0.950 . S
C1423 C1440 1.574 . S
C1423 C1442 1.368 . S
C1423 H1447 0.949 . S
H1424 C1428 0.949 . S
C1425 C1426 1.349 . S
C1425 C1427 1.327 . S
C1425 H1448 0.950 . S
C1426 C1425 1.349 . S
C1426 C1438 1.349 . S
C1427 C1425 1.327 . S
C1427 C1443 1.429 . S
C1427 H1449 0.950 . S
C1428 H1424 0.949 . S
C1428 C1436 1.574 . S
C1428 C1444 1.368 . S
H1429 C1437 0.950 . S
H1430 C1435 0.950 . S
H1431 C1436 0.949 . S
H1432 C1438 0.950 . S
H1433 C1439 0.950 . S
H1434 C1440 0.949 . S
C1435 H1430 0.950 . S
C1435 C1437 1.327 . S
C1435 C1441 1.429 . S
C1436 C1428 1.574 . S
C1436 H1431 0.949 . S
C1436 C1442 1.368 . S
C1437 C1421 1.349 . S
C1437 H1429 0.950 . S
C1437 C1435 1.327 . S
C1438 C1426 1.349 . S
C1438 H1432 0.950 . S
C1438 C1439 1.327 . S
C1439 H1433 0.950 . S
C1439 C1438 1.327 . S
C1439 C1443 1.429 . S
C1440 C1423 1.574 . S
C1440 H1434 0.949 . S
C1440 C1444 1.368 . S
C1441 C1422 1.429 . S
C1441 C1435 1.429 . S
C1441 C1442 1.523 . S
C1442 C1423 1.368 . S
C1442 C1436 1.368 . S
C1442 C1441 1.523 . S
C1443 C1427 1.429 . S
C1443 C1439 1.429 . S
C1443 C1444 1.523 . S
C1444 C1428 1.368 . S
C1444 C1440 1.368 . S
C1444 C1443 1.523 . S
H1445 C1420 0.950 . S
H1446 C1422 0.950 . S
H1447 C1423 0.949 . S
H1448 C1425 0.950 . S
H1449 C1427 0.950 . S
C1450 C1451 1.349 . S
C1450 C1452 1.327 . S
C1450 H1475 0.950 . S
C1451 C1450 1.349 . S
C1451 C1467 1.349 . S
C1452 C1450 1.327 . S
C1452 C1471 1.429 . S
C1452 H1476 0.950 . S
C1453 C1470 1.574 . S
C1453 C1472 1.368 . S
C1453 H1477 0.949 . S
H1454 C1458 0.949 . S
C1455 C1456 1.349 . S
C1455 C1457 1.327 . S
C1455 H1478 0.950 . S
C1456 C1455 1.349 . S
C1456 C1468 1.349 . S
C1457 C1455 1.327 . S
C1457 C1473 1.429 . S
C1457 H1479 0.950 . S
C1458 H1454 0.949 . S
C1458 C1466 1.574 . S
C1458 C1474 1.368 . S
H1459 C1467 0.950 . S
H1460 C1465 0.950 . S
H1461 C1466 0.949 . S
H1462 C1468 0.950 . S
H1463 C1469 0.950 . S
H1464 C1470 0.949 . S
C1465 H1460 0.950 . S
C1465 C1467 1.327 . S
C1465 C1471 1.429 . S
C1466 C1458 1.574 . S
C1466 H1461 0.949 . S
C1466 C1472 1.368 . S
C1467 C1451 1.349 . S
C1467 H1459 0.950 . S
C1467 C1465 1.327 . S
C1468 C1456 1.349 . S
C1468 H1462 0.950 . S
C1468 C1469 1.327 . S
C1469 H1463 0.950 . S
C1469 C1468 1.327 . S
C1469 C1473 1.429 . S
C1470 C1453 1.574 . S
C1470 H1464 0.949 . S
C1470 C1474 1.368 . S
C1471 C1452 1.429 . S
C1471 C1465 1.429 . S
C1471 C1472 1.523 . S
C1472 C1453 1.368 . S
C1472 C1466 1.368 . S
C1472 C1471 1.523 . S
C1473 C1457 1.429 . S
C1473 C1469 1.429 . S
C1473 C1474 1.523 . S
C1474 C1458 1.368 . S
C1474 C1470 1.368 . S
C1474 C1473 1.523 . S
H1475 C1450 0.950 . S
H1476 C1452 0.950 . S
H1477 C1453 0.949 . S
H1478 C1455 0.950 . S
H1479 C1457 0.950 . S
C1480 C1481 1.349 . S
C1480 C1482 1.327 . S
C1480 H1505 0.950 . S
C1481 C1480 1.349 . S
C1481 C1497 1.349 . S
C1482 C1480 1.327 . S
C1482 C1501 1.429 . S
C1482 H1506 0.950 . S
C1483 C1500 1.574 . S
C1483 C1502 1.368 . S
C1483 H1507 0.949 . S
H1484 C1488 0.949 . S
C1485 C1486 1.349 . S
C1485 C1487 1.327 . S
C1485 H1508 0.950 . S
C1486 C1485 1.349 . S
C1486 C1498 1.349 . S
C1487 C1485 1.327 . S
C1487 C1503 1.429 . S
C1487 H1509 0.950 . S
C1488 H1484 0.949 . S
C1488 C1496 1.574 . S
C1488 C1504 1.368 . S
H1489 C1497 0.950 . S
H1490 C1495 0.950 . S
H1491 C1496 0.949 . S
H1492 C1498 0.950 . S
H1493 C1499 0.950 . S
H1494 C1500 0.949 . S
C1495 H1490 0.950 . S
C1495 C1497 1.327 . S
C1495 C1501 1.429 . S
C1496 C1488 1.574 . S
C1496 H1491 0.949 . S
C1496 C1502 1.368 . S
C1497 C1481 1.349 . S
C1497 H1489 0.950 . S
C1497 C1495 1.327 . S
C1498 C1486 1.349 . S
C1498 H1492 0.950 . S
C1498 C1499 1.327 . S
C1499 H1493 0.950 . S
C1499 C1498 1.327 . S
C1499 C1503 1.429 . S
C1500 C1483 1.574 . S
C1500 H1494 0.949 . S
C1500 C1504 1.368 . S
C1501 C1482 1.429 . S
C1501 C1495 1.429 . S
C1501 C1502 1.523 . S
C1502 C1483 1.368 . S
C1502 C1496 1.368 . S
C1502 C1501 1.523 . S
C1503 C1487 1.429 . S
C1503 C1499 1.429 . S
C1503 C1504 1.523 . S
C1504 C1488 1.368 . S
C1504 C1500 1.368 . S
C1504 C1503 1.523 . S
H1505 C1480 0.950 . S
H1506 C1482 0.950 . S
H1507 C1483 0.949 . S
H1508 C1485 0.950 . S
H1509 C1487 0.950 . S
C1510 C1511 1.349 . S
C1510 C1512 1.327 . S
C1510 H1535 0.950 . S
C1511 C1510 1.349 . S
C1511 C1527 1.349 . S
C1512 C1510 1.327 . S
C1512 C1531 1.429 . S
C1512 H1536 0.950 . S
C1513 C1530 1.574 . S
C1513 C1532 1.368 . S
C1513 H1537 0.949 . S
H1514 C1518 0.949 . S
C1515 C1516 1.349 . S
C1515 C1517 1.327 . S
C1515 H1538 0.950 . S
C1516 C1515 1.349 . S
C1516 C1528 1.349 . S
C1517 C1515 1.327 . S
C1517 C1533 1.429 . S
C1517 H1539 0.950 . S
C1518 H1514 0.949 . S
C1518 C1526 1.574 . S
C1518 C1534 1.368 . S
H1519 C1527 0.950 . S
H1520 C1525 0.950 . S
H1521 C1526 0.949 . S
H1522 C1528 0.950 . S
H1523 C1529 0.950 . S
H1524 C1530 0.949 . S
C1525 H1520 0.950 . S
C1525 C1527 1.327 . S
C1525 C1531 1.429 . S
C1526 C1518 1.574 . S
C1526 H1521 0.949 . S
C1526 C1532 1.368 . S
C1527 C1511 1.349 . S
C1527 H1519 0.950 . S
C1527 C1525 1.327 . S
C1528 C1516 1.349 . S
C1528 H1522 0.950 . S
C1528 C1529 1.327 . S
C1529 H1523 0.950 . S
C1529 C1528 1.327 . S
C1529 C1533 1.429 . S
C1530 C1513 1.574 . S
C1530 H1524 0.949 . S
C1530 C1534 1.368 . S
C1531 C1512 1.429 . S
C1531 C1525 1.429 . S
C1531 C1532 1.523 . S
C1532 C1513 1.368 . S
C1532 C1526 1.368 . S
C1532 C1531 1.523 . S
C1533 C1517 1.429 . S
C1533 C1529 1.429 . S
C1533 C1534 1.523 . S
C1534 C1518 1.368 . S
C1534 C1530 1.368 . S
C1534 C1533 1.523 . S
H1535 C1510 0.950 . S
H1536 C1512 0.950 . S
H1537 C1513 0.949 . S
H1538 C1515 0.950 . S
H1539 C1517 0.950 . S
C1540 C1541 1.349 . S
C1540 C1542 1.327 . S
C1540 H1565 0.950 . S
C1541 C1540 1.349 . S
C1541 C1557 1.349 . S
C1542 C1540 1.327 . S
C1542 C1561 1.429 . S
C1542 H1566 0.950 . S
C1543 C1560 1.574 . S
C1543 C1562 1.368 . S
C1543 H1567 0.949 . S
H1544 C1548 0.949 . S
C1545 C1546 1.349 . S
C1545 C1547 1.327 . S
C1545 H1568 0.950 . S
C1546 C1545 1.349 . S
C1546 C1558 1.349 . S
C1547 C1545 1.327 . S
C1547 C1563 1.429 . S
C1547 H1569 0.950 . S
C1548 H1544 0.949 . S
C1548 C1556 1.574 . S
C1548 C1564 1.368 . S
H1549 C1557 0.950 . S
H1550 C1555 0.950 . S
H1551 C1556 0.949 . S
H1552 C1558 0.950 . S
H1553 C1559 0.950 . S
H1554 C1560 0.949 . S
C1555 H1550 0.950 . S
C1555 C1557 1.327 . S
C1555 C1561 1.429 . S
C1556 C1548 1.574 . S
C1556 H1551 0.949 . S
C1556 C1562 1.368 . S
C1557 C1541 1.349 . S
C1557 H1549 0.950 . S
C1557 C1555 1.327 . S
C1558 C1546 1.349 . S
C1558 H1552 0.950 . S
C1558 C1559 1.327 . S
C1559 H1553 0.950 . S
C1559 C1558 1.327 . S
C1559 C1563 1.429 . S
C1560 C1543 1.574 . S
C1560 H1554 0.949 . S
C1560 C1564 1.368 . S
C1561 C1542 1.429 . S
C1561 C1555 1.429 . S
C1561 C1562 1.523 . S
C1562 C1543 1.368 . S
C1562 C1556 1.368 . S
C1562 C1561 1.523 . S
C1563 C1547 1.429 . S
C1563 C1559 1.429 . S
C1563 C1564 1.523 . S
C1564 C1548 1.368 . S
C1564 C1560 1.368 . S
C1564 C1563 1.523 . S
H1565 C1540 0.950 . S
H1566 C1542 0.950 . S
H1567 C1543 0.949 . S
H1568 C1545 0.950 . S
H1569 C1547 0.950 . S
C1570 C1571 1.349 . S
C1570 C1572 1.327 . S
C1570 H1595 0.950 . S
C1571 C1570 1.349 . S
C1571 C1587 1.349 . S
C1572 C1570 1.327 . S
C1572 C1591 1.429 . S
C1572 H1596 0.950 . S
C1573 C1590 1.574 . S
C1573 C1592 1.368 . S
C1573 H1597 0.949 . S
H1574 C1578 0.949 . S
C1575 C1576 1.349 . S
C1575 C1577 1.327 . S
C1575 H1598 0.950 . S
C1576 C1575 1.349 . S
C1576 C1588 1.349 . S
C1577 C1575 1.327 . S
C1577 C1593 1.429 . S
C1577 H1599 0.950 . S
C1578 H1574 0.949 . S
C1578 C1586 1.574 . S
C1578 C1594 1.368 . S
H1579 C1587 0.950 . S
H1580 C1585 0.950 . S
H1581 C1586 0.949 . S
H1582 C1588 0.950 . S
H1583 C1589 0.950 . S
H1584 C1590 0.949 . S
C1585 H1580 0.950 . S
C1585 C1587 1.327 . S
C1585 C1591 1.429 . S
C1586 C1578 1.574 . S
C1586 H1581 0.949 . S
C1586 C1592 1.368 . S
C1587 C1571 1.349 . S
C1587 H1579 0.950 . S
C1587 C1585 1.327 . S
C1588 C1576 1.349 . S
C1588 H1582 0.950 . S
C1588 C1589 1.327 . S
C1589 H1583 0.950 . S
C1589 C1588 1.327 . S
C1589 C1593 1.429 . S
C1590 C1573 1.574 . S
C1590 H1584 0.949 . S
C1590 C1594 1.368 . S
C1591 C1572 1.429 . S
C1591 C1585 1.429 . S
C1591 C1592 1.523 . S
C1592 C1573 1.368 . S
C1592 C1586 1.368 . S
C1592 C1591 1.523 . S
C1593 C1577 1.429 . S
C1593 C1589 1.429 . S
C1593 C1594 1.523 . S
C1594 C1578 1.368 . S
C1594 C1590 1.368 . S
C1594 C1593 1.523 . S
H1595 C1570 0.950 . S
H1596 C1572 0.950 . S
H1597 C1573 0.949 . S
H1598 C1575 0.950 . S
H1599 C1577 0.950 . S
C1600 C1601 1.345 . S
C1600 C1602 1.327 . S
C1600 H1625 0.950 . S
C1601 C1600 1.345 . S
C1601 C1617 1.354 1_655 S
C1602 C1600 1.327 . S
C1602 C1621 1.429 1_655 S
C1602 H1626 0.950 . S
C1603 C1620 1.574 . S
C1603 C1622 1.368 . S
C1603 H1627 0.949 . S
H1604 C1608 0.966 . S
C1605 C1606 1.339 1_556 S
C1605 C1607 1.327 . S
C1605 H1628 0.950 1_556 S
C1606 C1605 1.339 1_554 S
C1606 C1618 1.331 1_554 S
C1607 C1605 1.327 . S
C1607 C1623 1.429 . S
C1607 H1629 0.950 . S
C1608 H1604 0.966 . S
C1608 C1616 1.577 . S
C1608 C1624 1.347 1_655 S
H1609 C1617 0.950 . S
H1610 C1615 0.950 . S
H1611 C1616 0.949 . S
H1612 C1618 0.950 . S
H1613 C1619 0.950 1_655 S
H1614 C1620 0.949 . S
C1615 H1610 0.950 . S
C1615 C1617 1.327 . S
C1615 C1621 1.429 . S
C1616 C1608 1.577 . S
C1616 H1611 0.949 . S
C1616 C1622 1.368 1_655 S
C1617 C1601 1.354 1_455 S
C1617 H1609 0.950 . S
C1617 C1615 1.327 . S
C1618 C1606 1.331 1_556 S
C1618 H1612 0.950 . S
C1618 C1619 1.327 . S
C1619 H1613 0.950 1_455 S
C1619 C1618 1.327 . S
C1619 C1623 1.429 . S
C1620 C1603 1.574 . S
C1620 H1614 0.949 . S
C1620 C1624 1.368 . S
C1621 C1602 1.429 1_455 S
C1621 C1615 1.429 . S
C1621 C1622 1.523 . S
C1622 C1603 1.368 . S
C1622 C1616 1.368 1_455 S
C1622 C1621 1.523 . S
C1623 C1607 1.429 . S
C1623 C1619 1.429 . S
C1623 C1624 1.523 . S
C1624 C1608 1.347 1_455 S
C1624 C1620 1.368 . S
C1624 C1623 1.523 . S
H1625 C1600 0.950 . S
H1626 C1602 0.950 . S
H1627 C1603 0.949 . S
H1628 C1605 0.950 1_554 S
H1629 C1607 0.950 . S
C1630 C1631 1.349 . S
C1630 C1632 1.327 . S
C1630 H1655 0.950 . S
C1631 C1630 1.349 . S
C1631 C1647 1.349 . S
C1632 C1630 1.327 . S
C1632 C1651 1.429 . S
C1632 H1656 0.950 . S
C1633 C1650 1.574 . S
C1633 C1652 1.368 . S
C1633 H1657 0.949 . S
H1634 C1638 0.949 . S
C1635 C1636 1.349 . S
C1635 C1637 1.327 . S
C1635 H1658 0.950 . S
C1636 C1635 1.349 . S
C1636 C1648 1.349 . S
C1637 C1635 1.327 . S
C1637 C1653 1.429 . S
C1637 H1659 0.950 . S
C1638 H1634 0.949 . S
C1638 C1646 1.574 . S
C1638 C1654 1.368 . S
H1639 C1647 0.950 . S
H1640 C1645 0.950 . S
H1641 C1646 0.949 . S
H1642 C1648 0.950 . S
H1643 C1649 0.950 . S
H1644 C1650 0.949 . S
C1645 H1640 0.950 . S
C1645 C1647 1.327 . S
C1645 C1651 1.429 . S
C1646 C1638 1.574 . S
C1646 H1641 0.949 . S
C1646 C1652 1.368 . S
C1647 C1631 1.349 . S
C1647 H1639 0.950 . S
C1647 C1645 1.327 . S
C1648 C1636 1.349 . S
C1648 H1642 0.950 . S
C1648 C1649 1.327 . S
C1649 H1643 0.950 . S
C1649 C1648 1.327 . S
C1649 C1653 1.429 . S
C1650 C1633 1.574 . S
C1650 H1644 0.949 . S
C1650 C1654 1.368 . S
C1651 C1632 1.429 . S
C1651 C1645 1.429 . S
C1651 C1652 1.523 . S
C1652 C1633 1.368 . S
C1652 C1646 1.368 . S
C1652 C1651 1.523 . S
C1653 C1637 1.429 . S
C1653 C1649 1.429 . S
C1653 C1654 1.523 . S
C1654 C1638 1.368 . S
C1654 C1650 1.368 . S
C1654 C1653 1.523 . S
H1655 C1630 0.950 . S
H1656 C1632 0.950 . S
H1657 C1633 0.949 . S
H1658 C1635 0.950 . S
H1659 C1637 0.950 . S
C1660 C1661 1.349 . S
C1660 C1662 1.327 . S
C1660 H1685 0.950 . S
C1661 C1660 1.349 . S
C1661 C1677 1.349 . S
C1662 C1660 1.327 . S
C1662 C1681 1.429 . S
C1662 H1686 0.950 . S
C1663 C1680 1.574 . S
C1663 C1682 1.368 . S
C1663 H1687 0.949 . S
H1664 C1668 0.949 . S
C1665 C1666 1.349 . S
C1665 C1667 1.327 . S
C1665 H1688 0.950 . S
C1666 C1665 1.349 . S
C1666 C1678 1.349 . S
C1667 C1665 1.327 . S
C1667 C1683 1.429 . S
C1667 H1689 0.950 . S
C1668 H1664 0.949 . S
C1668 C1676 1.574 . S
C1668 C1684 1.368 . S
H1669 C1677 0.950 . S
H1670 C1675 0.950 . S
H1671 C1676 0.949 . S
H1672 C1678 0.950 . S
H1673 C1679 0.950 . S
H1674 C1680 0.949 . S
C1675 H1670 0.950 . S
C1675 C1677 1.327 . S
C1675 C1681 1.429 . S
C1676 C1668 1.574 . S
C1676 H1671 0.949 . S
C1676 C1682 1.368 . S
C1677 C1661 1.349 . S
C1677 H1669 0.950 . S
C1677 C1675 1.327 . S
C1678 C1666 1.349 . S
C1678 H1672 0.950 . S
C1678 C1679 1.327 . S
C1679 H1673 0.950 . S
C1679 C1678 1.327 . S
C1679 C1683 1.429 . S
C1680 C1663 1.574 . S
C1680 H1674 0.949 . S
C1680 C1684 1.368 . S
C1681 C1662 1.429 . S
C1681 C1675 1.429 . S
C1681 C1682 1.523 . S
C1682 C1663 1.368 . S
C1682 C1676 1.368 . S
C1682 C1681 1.523 . S
C1683 C1667 1.429 . S
C1683 C1679 1.429 . S
C1683 C1684 1.523 . S
C1684 C1668 1.368 . S
C1684 C1680 1.368 . S
C1684 C1683 1.523 . S
H1685 C1660 0.950 . S
H1686 C1662 0.950 . S
H1687 C1663 0.949 . S
H1688 C1665 0.950 . S
H1689 C1667 0.950 . S
C1690 C1691 1.349 . S
C1690 C1692 1.327 . S
C1690 H1715 0.950 . S
C1691 C1690 1.349 . S
C1691 C1707 1.349 . S
C1692 C1690 1.327 . S
C1692 C1711 1.429 . S
C1692 H1716 0.950 . S
C1693 C1710 1.574 . S
C1693 C1712 1.368 . S
C1693 H1717 0.949 . S
H1694 C1698 0.949 . S
C1695 C1696 1.349 . S
C1695 C1697 1.327 . S
C1695 H1718 0.950 . S
C1696 C1695 1.349 . S
C1696 C1708 1.349 . S
C1697 C1695 1.327 . S
C1697 C1713 1.429 . S
C1697 H1719 0.950 . S
C1698 H1694 0.949 . S
C1698 C1706 1.574 . S
C1698 C1714 1.368 . S
H1699 C1707 0.950 . S
H1700 C1705 0.950 . S
H1701 C1706 0.949 . S
H1702 C1708 0.950 . S
H1703 C1709 0.950 . S
H1704 C1710 0.949 . S
C1705 H1700 0.950 . S
C1705 C1707 1.327 . S
C1705 C1711 1.429 . S
C1706 C1698 1.574 . S
C1706 H1701 0.949 . S
C1706 C1712 1.368 . S
C1707 C1691 1.349 . S
C1707 H1699 0.950 . S
C1707 C1705 1.327 . S
C1708 C1696 1.349 . S
C1708 H1702 0.950 . S
C1708 C1709 1.327 . S
C1709 H1703 0.950 . S
C1709 C1708 1.327 . S
C1709 C1713 1.429 . S
C1710 C1693 1.574 . S
C1710 H1704 0.949 . S
C1710 C1714 1.368 . S
C1711 C1692 1.429 . S
C1711 C1705 1.429 . S
C1711 C1712 1.523 . S
C1712 C1693 1.368 . S
C1712 C1706 1.368 . S
C1712 C1711 1.523 . S
C1713 C1697 1.429 . S
C1713 C1709 1.429 . S
C1713 C1714 1.523 . S
C1714 C1698 1.368 . S
C1714 C1710 1.368 . S
C1714 C1713 1.523 . S
H1715 C1690 0.950 . S
H1716 C1692 0.950 . S
H1717 C1693 0.949 . S
H1718 C1695 0.950 . S
H1719 C1697 0.950 . S
C1720 C1721 1.349 . S
C1720 C1722 1.327 . S
C1720 H1745 0.950 . S
C1721 C1720 1.349 . S
C1721 C1737 1.349 . S
C1722 C1720 1.327 . S
C1722 C1741 1.429 . S
C1722 H1746 0.950 . S
C1723 C1740 1.574 . S
C1723 C1742 1.368 . S
C1723 H1747 0.949 . S
H1724 C1728 0.949 . S
C1725 C1726 1.349 . S
C1725 C1727 1.327 . S
C1725 H1748 0.950 . S
C1726 C1725 1.349 . S
C1726 C1738 1.349 . S
C1727 C1725 1.327 . S
C1727 C1743 1.429 . S
C1727 H1749 0.950 . S
C1728 H1724 0.949 . S
C1728 C1736 1.574 . S
C1728 C1744 1.368 . S
H1729 C1737 0.959 . S
H1730 C1735 0.950 . S
H1731 C1736 0.949 . S
H1732 C1738 0.950 . S
H1733 C1739 0.950 . S
H1734 C1740 0.949 . S
C1735 H1730 0.950 . S
C1735 C1737 1.327 . S
C1735 C1741 1.429 . S
C1736 C1728 1.574 . S
C1736 H1731 0.949 . S
C1736 C1742 1.368 . S
C1737 C1721 1.349 . S
C1737 H1729 0.959 . S
C1737 C1735 1.327 . S
C1738 C1726 1.349 . S
C1738 H1732 0.950 . S
C1738 C1739 1.327 . S
C1739 H1733 0.950 . S
C1739 C1738 1.327 . S
C1739 C1743 1.429 . S
C1740 C1723 1.574 . S
C1740 H1734 0.949 . S
C1740 C1744 1.368 . S
C1741 C1722 1.429 . S
C1741 C1735 1.429 . S
C1741 C1742 1.523 . S
C1742 C1723 1.368 . S
C1742 C1736 1.368 . S
C1742 C1741 1.523 . S
C1743 C1727 1.429 . S
C1743 C1739 1.429 . S
C1743 C1744 1.523 . S
C1744 C1728 1.368 . S
C1744 C1740 1.368 . S
C1744 C1743 1.523 . S
H1745 C1720 0.950 . S
H1746 C1722 0.950 . S
H1747 C1723 0.949 . S
H1748 C1725 0.950 . S
H1749 C1727 0.950 . S
C1750 C1751 1.349 . S
C1750 C1752 1.327 . S
C1750 H1775 0.950 . S
C1751 C1750 1.349 . S
C1751 C1767 1.349 . S
C1752 C1750 1.327 . S
C1752 C1771 1.429 . S
C1752 H1776 0.950 . S
C1753 C1770 1.574 . S
C1753 C1772 1.368 . S
C1753 H1777 0.949 . S
H1754 C1758 0.949 . S
C1755 C1756 1.349 . S
C1755 C1757 1.327 . S
C1755 H1778 0.950 . S
C1756 C1755 1.349 . S
C1756 C1768 1.349 . S
C1757 C1755 1.327 . S
C1757 C1773 1.429 . S
C1757 H1779 0.950 . S
C1758 H1754 0.949 . S
C1758 C1766 1.574 . S
C1758 C1774 1.368 . S
H1759 C1767 0.950 . S
H1760 C1765 0.950 . S
H1761 C1766 0.949 . S
H1762 C1768 0.950 . S
H1763 C1769 0.950 . S
H1764 C1770 0.949 . S
C1765 H1760 0.950 . S
C1765 C1767 1.327 . S
C1765 C1771 1.429 . S
C1766 C1758 1.574 . S
C1766 H1761 0.949 . S
C1766 C1772 1.368 . S
C1767 C1751 1.349 . S
C1767 H1759 0.950 . S
C1767 C1765 1.327 . S
C1768 C1756 1.349 . S
C1768 H1762 0.950 . S
C1768 C1769 1.327 . S
C1769 H1763 0.950 . S
C1769 C1768 1.327 . S
C1769 C1773 1.429 . S
C1770 C1753 1.574 . S
C1770 H1764 0.949 . S
C1770 C1774 1.368 . S
C1771 C1752 1.429 . S
C1771 C1765 1.429 . S
C1771 C1772 1.523 . S
C1772 C1753 1.368 . S
C1772 C1766 1.368 . S
C1772 C1771 1.523 . S
C1773 C1757 1.429 . S
C1773 C1769 1.429 . S
C1773 C1774 1.523 . S
C1774 C1758 1.368 . S
C1774 C1770 1.368 . S
C1774 C1773 1.523 . S
H1775 C1750 0.950 . S
H1776 C1752 0.950 . S
H1777 C1753 0.949 . S
H1778 C1755 0.950 . S
H1779 C1757 0.950 . S
C1780 C1781 1.349 . S
C1780 C1782 1.327 . S
C1780 H1805 0.950 . S
C1781 C1780 1.349 . S
C1781 C1797 1.349 . S
C1782 C1780 1.327 . S
C1782 C1801 1.429 . S
C1782 H1806 0.950 . S
C1783 C1800 1.574 . S
C1783 C1802 1.368 . S
C1783 H1807 0.949 . S
H1784 C1788 0.949 . S
C1785 C1786 1.349 . S
C1785 C1787 1.327 . S
C1785 H1808 0.950 . S
C1786 C1785 1.349 . S
C1786 C1798 1.349 . S
C1787 C1785 1.327 . S
C1787 C1803 1.429 . S
C1787 H1809 0.950 . S
C1788 H1784 0.949 . S
C1788 C1796 1.574 . S
C1788 C1804 1.368 . S
H1789 C1797 0.950 . S
H1790 C1795 0.950 . S
H1791 C1796 0.949 . S
H1792 C1798 0.950 . S
H1793 C1799 0.950 . S
H1794 C1800 0.949 . S
C1795 H1790 0.950 . S
C1795 C1797 1.327 . S
C1795 C1801 1.429 . S
C1796 C1788 1.574 . S
C1796 H1791 0.949 . S
C1796 C1802 1.368 . S
C1797 C1781 1.349 . S
C1797 H1789 0.950 . S
C1797 C1795 1.327 . S
C1798 C1786 1.349 . S
C1798 H1792 0.950 . S
C1798 C1799 1.327 . S
C1799 H1793 0.950 . S
C1799 C1798 1.327 . S
C1799 C1803 1.429 . S
C1800 C1783 1.574 . S
C1800 H1794 0.949 . S
C1800 C1804 1.368 . S
C1801 C1782 1.429 . S
C1801 C1795 1.429 . S
C1801 C1802 1.523 . S
C1802 C1783 1.368 . S
C1802 C1796 1.368 . S
C1802 C1801 1.523 . S
C1803 C1787 1.429 . S
C1803 C1799 1.429 . S
C1803 C1804 1.523 . S
C1804 C1788 1.368 . S
C1804 C1800 1.368 . S
C1804 C1803 1.523 . S
H1805 C1780 0.950 . S
H1806 C1782 0.950 . S
H1807 C1783 0.949 . S
H1808 C1785 0.950 . S
H1809 C1787 0.950 . S
C1810 C1811 1.349 . S
C1810 C1812 1.327 . S
C1810 H1835 0.950 . S
C1811 C1810 1.349 . S
C1811 C1827 1.349 . S
C1812 C1810 1.327 . S
C1812 C1831 1.429 . S
C1812 H1836 0.950 . S
C1813 C1830 1.574 . S
C1813 C1832 1.368 . S
C1813 H1837 0.949 . S
H1814 C1818 0.949 . S
C1815 C1816 1.349 . S
C1815 C1817 1.327 . S
C1815 H1838 0.950 . S
C1816 C1815 1.349 . S
C1816 C1828 1.349 . S
C1817 C1815 1.327 . S
C1817 C1833 1.429 . S
C1817 H1839 0.950 . S
C1818 H1814 0.949 . S
C1818 C1826 1.574 . S
C1818 C1834 1.368 . S
H1819 C1827 0.950 . S
H1820 C1825 0.950 . S
H1821 C1826 0.949 . S
H1822 C1828 0.950 . S
H1823 C1829 0.950 . S
H1824 C1830 0.949 . S
C1825 H1820 0.950 . S
C1825 C1827 1.327 . S
C1825 C1831 1.429 . S
C1826 C1818 1.574 . S
C1826 H1821 0.949 . S
C1826 C1832 1.368 . S
C1827 C1811 1.349 . S
C1827 H1819 0.950 . S
C1827 C1825 1.327 . S
C1828 C1816 1.349 . S
C1828 H1822 0.950 . S
C1828 C1829 1.327 . S
C1829 H1823 0.950 . S
C1829 C1828 1.327 . S
C1829 C1833 1.429 . S
C1830 C1813 1.574 . S
C1830 H1824 0.949 . S
C1830 C1834 1.368 . S
C1831 C1812 1.429 . S
C1831 C1825 1.429 . S
C1831 C1832 1.523 . S
C1832 C1813 1.368 . S
C1832 C1826 1.368 . S
C1832 C1831 1.523 . S
C1833 C1817 1.429 . S
C1833 C1829 1.429 . S
C1833 C1834 1.523 . S
C1834 C1818 1.368 . S
C1834 C1830 1.368 . S
C1834 C1833 1.523 . S
H1835 C1810 0.950 . S
H1836 C1812 0.950 . S
H1837 C1813 0.949 . S
H1838 C1815 0.950 . S
H1839 C1817 0.950 . S
C1840 C1841 1.349 . S
C1840 C1842 1.327 . S
C1840 H1865 0.950 . S
C1841 C1840 1.349 . S
C1841 C1857 1.349 1_545 S
C1842 C1840 1.327 . S
C1842 C1861 1.429 . S
C1842 H1866 0.950 . S
C1843 C1860 1.579 . S
C1843 C1862 1.368 1_565 S
C1843 H1867 0.949 . S
H1844 C1848 0.949 . S
C1845 C1846 1.349 . S
C1845 C1847 1.327 1_455 S
C1845 H1868 0.950 1_545 S
C1846 C1845 1.349 . S
C1846 C1858 1.349 1_455 S
C1847 C1845 1.327 1_655 S
C1847 C1863 1.429 . S
C1847 H1869 0.951 1_545 S
C1848 H1844 0.949 . S
C1848 C1856 1.574 . S
C1848 C1864 1.368 . S
H1849 C1857 0.950 . S
H1850 C1855 0.950 . S
H1851 C1856 0.949 . S
H1852 C1858 0.950 . S
H1853 C1859 0.950 . S
H1854 C1860 0.979 . S
C1855 H1850 0.950 . S
C1855 C1857 1.327 . S
C1855 C1861 1.429 1_565 S
C1856 C1848 1.574 . S
C1856 H1851 0.949 . S
C1856 C1862 1.368 . S
C1857 C1841 1.349 1_565 S
C1857 H1849 0.950 . S
C1857 C1855 1.327 . S
C1858 C1846 1.349 1_655 S
C1858 H1852 0.950 . S
C1858 C1859 1.327 . S
C1859 H1853 0.950 . S
C1859 C1858 1.327 . S
C1859 C1863 1.429 . S
C1860 C1843 1.579 . S
C1860 H1854 0.979 . S
C1860 C1864 1.332 1_565 S
C1861 C1842 1.429 . S
C1861 C1855 1.429 1_545 S
C1861 C1862 1.523 . S
C1862 C1843 1.368 1_545 S
C1862 C1856 1.368 . S
C1862 C1861 1.523 . S
C1863 C1847 1.429 . S
C1863 C1859 1.429 . S
C1863 C1864 1.523 . S
C1864 C1848 1.368 . S
C1864 C1860 1.332 1_545 S
C1864 C1863 1.523 . S
H1865 C1840 0.950 . S
H1866 C1842 0.950 . S
H1867 C1843 0.949 . S
H1868 C1845 0.950 1_565 S
H1869 C1847 0.951 1_565 S
C1870 C1871 1.349 . S
C1870 C1872 1.327 . S
C1870 H1895 0.950 . S
C1871 C1870 1.349 . S
C1871 C1887 1.349 . S
C1872 C1870 1.327 . S
C1872 C1891 1.429 . S
C1872 H1896 0.950 . S
C1873 C1890 1.574 . S
C1873 C1892 1.368 . S
C1873 H1897 0.949 . S
H1874 C1878 0.949 . S
C1875 C1876 1.349 . S
C1875 C1877 1.327 . S
C1875 H1898 0.950 . S
C1876 C1875 1.349 . S
C1876 C1888 1.349 . S
C1877 C1875 1.327 . S
C1877 C1893 1.429 . S
C1877 H1899 0.950 . S
C1878 H1874 0.949 . S
C1878 C1886 1.574 . S
C1878 C1894 1.368 . S
H1879 C1887 0.950 . S
H1880 C1885 0.950 . S
H1881 C1886 0.949 . S
H1882 C1888 0.950 . S
H1883 C1889 0.950 . S
H1884 C1890 0.949 . S
C1885 H1880 0.950 . S
C1885 C1887 1.327 . S
C1885 C1891 1.429 . S
C1886 C1878 1.574 . S
C1886 H1881 0.949 . S
C1886 C1892 1.368 . S
C1887 C1871 1.349 . S
C1887 H1879 0.950 . S
C1887 C1885 1.327 . S
C1888 C1876 1.349 . S
C1888 H1882 0.950 . S
C1888 C1889 1.327 . S
C1889 H1883 0.950 . S
C1889 C1888 1.327 . S
C1889 C1893 1.429 . S
C1890 C1873 1.574 . S
C1890 H1884 0.949 . S
C1890 C1894 1.368 . S
C1891 C1872 1.429 . S
C1891 C1885 1.429 . S
C1891 C1892 1.523 . S
C1892 C1873 1.368 . S
C1892 C1886 1.368 . S
C1892 C1891 1.523 . S
C1893 C1877 1.429 . S
C1893 C1889 1.429 . S
C1893 C1894 1.523 . S
C1894 C1878 1.368 . S
C1894 C1890 1.368 . S
C1894 C1893 1.523 . S
H1895 C1870 0.950 . S
H1896 C1872 0.950 . S
H1897 C1873 0.949 . S
H1898 C1875 0.950 . S
H1899 C1877 0.950 . S
C1900 C1901 1.349 1_565 S
C1900 C1902 1.327 . S
C1900 H1925 0.950 . S
C1901 C1900 1.349 1_545 S
C1901 C1917 1.349 . S
C1902 C1900 1.327 . S
C1902 C1921 1.429 1_565 S
C1902 H1926 0.950 . S
C1903 C1920 1.574 . S
C1903 C1922 1.368 . S
C1903 H1927 0.949 . S
H1904 C1908 0.949 . S
C1905 C1906 1.386 . S
C1905 C1907 1.327 . S
C1905 H1928 0.950 . S
C1906 C1905 1.386 . S
C1906 C1918 1.315 1_545 S
C1907 C1905 1.327 . S
C1907 C1923 1.429 . S
C1907 H1929 0.950 . S
C1908 H1904 0.949 . S
C1908 C1916 1.574 . S
C1908 C1924 1.368 1_565 S
H1909 C1917 0.950 . S
H1910 C1915 0.950 . S
H1911 C1916 0.949 . S
H1912 C1918 0.950 . S
H1913 C1919 0.950 . S
H1914 C1920 0.949 . S
C1915 H1910 0.950 . S
C1915 C1917 1.327 . S
C1915 C1921 1.429 . S
C1916 C1908 1.574 . S
C1916 H1911 0.949 . S
C1916 C1922 1.368 1_565 S
C1917 C1901 1.349 . S
C1917 H1909 0.950 . S
C1917 C1915 1.327 . S
C1918 C1906 1.315 1_565 S
C1918 H1912 0.950 . S
C1918 C1919 1.327 . S
C1919 H1913 0.950 . S
C1919 C1918 1.327 . S
C1919 C1923 1.429 1_565 S
C1920 C1903 1.574 . S
C1920 H1914 0.949 . S
C1920 C1924 1.368 . S
C1921 C1902 1.429 1_545 S
C1921 C1915 1.429 . S
C1921 C1922 1.523 . S
C1922 C1903 1.368 . S
C1922 C1916 1.368 1_545 S
C1922 C1921 1.523 . S
C1923 C1907 1.429 . S
C1923 C1919 1.429 1_545 S
C1923 C1924 1.523 . S
C1924 C1908 1.368 1_545 S
C1924 C1920 1.368 . S
C1924 C1923 1.523 . S
H1925 C1900 0.950 . S
H1926 C1902 0.950 . S
H1927 C1903 0.949 . S
H1928 C1905 0.950 . S
H1929 C1907 0.950 . S
C1930 C1931 1.349 . S
C1930 C1932 1.327 . S
C1930 H1955 0.950 . S
C1931 C1930 1.349 . S
C1931 C1947 1.349 . S
C1932 C1930 1.327 . S
C1932 C1951 1.429 . S
C1932 H1956 0.950 . S
C1933 C1950 1.574 . S
C1933 C1952 1.368 . S
C1933 H1957 0.949 . S
H1934 C1938 0.949 . S
C1935 C1936 1.349 . S
C1935 C1937 1.327 . S
C1935 H1958 0.950 . S
C1936 C1935 1.349 . S
C1936 C1948 1.349 . S
C1937 C1935 1.327 . S
C1937 C1953 1.429 . S
C1937 H1959 0.950 . S
C1938 H1934 0.949 . S
C1938 C1946 1.574 . S
C1938 C1954 1.368 . S
H1939 C1947 0.950 . S
H1940 C1945 0.950 . S
H1941 C1946 0.949 . S
H1942 C1948 0.950 . S
H1943 C1949 0.950 . S
H1944 C1950 0.949 . S
C1945 H1940 0.950 . S
C1945 C1947 1.327 . S
C1945 C1951 1.429 . S
C1946 C1938 1.574 . S
C1946 H1941 0.949 . S
C1946 C1952 1.368 . S
C1947 C1931 1.349 . S
C1947 H1939 0.950 . S
C1947 C1945 1.327 . S
C1948 C1936 1.349 . S
C1948 H1942 0.950 . S
C1948 C1949 1.327 . S
C1949 H1943 0.950 . S
C1949 C1948 1.327 . S
C1949 C1953 1.429 . S
C1950 C1933 1.574 . S
C1950 H1944 0.949 . S
C1950 C1954 1.368 . S
C1951 C1932 1.429 . S
C1951 C1945 1.429 . S
C1951 C1952 1.523 . S
C1952 C1933 1.368 . S
C1952 C1946 1.368 . S
C1952 C1951 1.523 . S
C1953 C1937 1.429 . S
C1953 C1949 1.429 . S
C1953 C1954 1.523 . S
C1954 C1938 1.368 . S
C1954 C1950 1.368 . S
C1954 C1953 1.523 . S
H1955 C1930 0.950 . S
H1956 C1932 0.950 . S
H1957 C1933 0.949 . S
H1958 C1935 0.950 . S
H1959 C1937 0.950 . S
C1960 C1961 1.349 . S
C1960 C1962 1.327 . S
C1960 H1985 0.950 . S
C1961 C1960 1.349 . S
C1961 C1977 1.349 1_545 S
C1962 C1960 1.327 . S
C1962 C1981 1.401 1_545 S
C1962 H1986 0.950 . S
C1963 C1980 1.574 . S
C1963 C1982 1.368 . S
C1963 H1987 0.949 . S
H1964 C1968 0.949 . S
C1965 C1966 1.349 . S
C1965 C1967 1.327 . S
C1965 H1988 0.950 . S
C1966 C1965 1.349 . S
C1966 C1978 1.356 . S
C1967 C1965 1.327 . S
C1967 C1983 1.429 . S
C1967 H1989 0.950 . S
C1968 H1964 0.949 . S
C1968 C1976 1.574 . S
C1968 C1984 1.368 1_545 S
H1969 C1977 0.950 . S
H1970 C1975 0.950 . S
H1971 C1976 0.949 . S
H1972 C1978 0.944 1_545 S
H1973 C1979 0.950 . S
H1974 C1980 0.949 . S
C1975 H1970 0.950 . S
C1975 C1977 1.327 . S
C1975 C1981 1.451 . S
C1976 C1968 1.574 . S
C1976 H1971 0.949 . S
C1976 C1982 1.368 1_545 S
C1977 C1961 1.349 1_565 S
C1977 H1969 0.950 . S
C1977 C1975 1.327 . S
C1978 C1966 1.356 . S
C1978 H1972 0.944 1_565 S
C1978 C1979 1.326 1_565 S
C1979 H1973 0.950 . S
C1979 C1978 1.326 1_545 S
C1979 C1983 1.429 1_545 S
C1980 C1963 1.574 . S
C1980 H1974 0.949 . S
C1980 C1984 1.368 . S
C1981 C1962 1.401 1_565 S
C1981 C1975 1.451 . S
C1981 C1982 1.528 . S
C1982 C1963 1.368 . S
C1982 C1976 1.368 1_565 S
C1982 C1981 1.528 . S
C1983 C1967 1.429 . S
C1983 C1979 1.429 1_565 S
C1983 C1984 1.523 . S
C1984 C1968 1.368 1_565 S
C1984 C1980 1.368 . S
C1984 C1983 1.523 . S
H1985 C1960 0.950 . S
H1986 C1962 0.950 . S
H1987 C1963 0.949 . S
H1988 C1965 0.950 . S
H1989 C1967 0.950 . S
C1990 C1991 1.349 . S
C1990 C1992 1.327 . S
C1990 H2015 0.950 . S
C1991 C1990 1.349 . S
C1991 C2007 1.349 . S
C1992 C1990 1.327 . S
C1992 C2011 1.429 . S
C1992 H2016 0.950 . S
C1993 C2010 1.574 . S
C1993 C2012 1.368 . S
C1993 H2017 0.949 . S
H1994 C1998 0.949 . S
C1995 C1996 1.349 . S
C1995 C1997 1.327 . S
C1995 H2018 0.950 . S
C1996 C1995 1.349 . S
C1996 C2008 1.349 . S
C1997 C1995 1.327 . S
C1997 C2013 1.429 . S
C1997 H2019 0.950 . S
C1998 H1994 0.949 . S
C1998 C2006 1.574 . S
C1998 C2014 1.368 . S
H1999 C2007 0.950 . S
H2000 C2005 0.950 . S
H2001 C2006 0.949 . S
H2002 C2008 0.950 . S
H2003 C2009 0.950 . S
H2004 C2010 0.949 . S
C2005 H2000 0.950 . S
C2005 C2007 1.327 . S
C2005 C2011 1.429 . S
C2006 C1998 1.574 . S
C2006 H2001 0.949 . S
C2006 C2012 1.368 . S
C2007 C1991 1.349 . S
C2007 H1999 0.950 . S
C2007 C2005 1.327 . S
C2008 C1996 1.349 . S
C2008 H2002 0.950 . S
C2008 C2009 1.327 . S
C2009 H2003 0.950 . S
C2009 C2008 1.327 . S
C2009 C2013 1.429 . S
C2010 C1993 1.574 . S
C2010 H2004 0.949 . S
C2010 C2014 1.368 . S
C2011 C1992 1.429 . S
C2011 C2005 1.429 . S
C2011 C2012 1.523 . S
C2012 C1993 1.368 . S
C2012 C2006 1.368 . S
C2012 C2011 1.523 . S
C2013 C1997 1.429 . S
C2013 C2009 1.429 . S
C2013 C2014 1.523 . S
C2014 C1998 1.368 . S
C2014 C2010 1.368 . S
C2014 C2013 1.523 . S
H2015 C1990 0.950 . S
H2016 C1992 0.950 . S
H2017 C1993 0.949 . S
H2018 C1995 0.950 . S
H2019 C1997 0.950 . S
C2020 C2021 1.349 1_565 S
C2020 C2022 1.335 . S
C2020 H2045 0.950 . S
C2021 C2020 1.349 1_545 S
C2021 C2037 1.349 . S
C2022 C2020 1.335 . S
C2022 C2041 1.384 1_565 S
C2022 H2046 0.990 . S
C2023 C2040 1.574 . S
C2023 C2042 1.368 . S
C2023 H2047 0.949 . S
H2024 C2028 0.949 1_565 S
C2025 C2026 1.349 . S
C2025 C2027 1.327 . S
C2025 H2048 0.950 . S
C2026 C2025 1.349 . S
C2026 C2038 1.349 . S
C2027 C2025 1.327 . S
C2027 C2043 1.429 . S
C2027 H2049 0.950 . S
C2028 H2024 0.949 1_545 S
C2028 C2036 1.574 . S
C2028 C2044 1.368 . S
H2029 C2037 0.950 . S
H2030 C2035 0.950 . S
H2031 C2036 0.949 1_565 S
H2032 C2038 0.950 . S
H2033 C2039 0.950 . S
H2034 C2040 0.949 . S
C2035 H2030 0.950 . S
C2035 C2037 1.327 . S
C2035 C2041 1.429 . S
C2036 C2028 1.574 . S
C2036 H2031 0.949 1_545 S
C2036 C2042 1.368 . S
C2037 C2021 1.349 . S
C2037 H2029 0.950 . S
C2037 C2035 1.327 . S
C2038 C2026 1.349 . S
C2038 H2032 0.950 . S
C2038 C2039 1.327 . S
C2039 H2033 0.950 . S
C2039 C2038 1.327 . S
C2039 C2043 1.429 . S
C2040 C2023 1.574 . S
C2040 H2034 0.949 . S
C2040 C2044 1.368 . S
C2041 C2022 1.384 1_545 S
C2041 C2035 1.429 . S
C2041 C2042 1.523 . S
C2042 C2023 1.368 . S
C2042 C2036 1.368 . S
C2042 C2041 1.523 . S
C2043 C2027 1.429 . S
C2043 C2039 1.429 . S
C2043 C2044 1.523 . S
C2044 C2028 1.368 . S
C2044 C2040 1.368 . S
C2044 C2043 1.523 . S
H2045 C2020 0.950 . S
H2046 C2022 0.990 . S
H2047 C2023 0.949 . S
H2048 C2025 0.950 . S
H2049 C2027 0.950 . S
C2050 C2051 1.349 . S
C2050 C2052 1.327 . S
C2050 H2075 0.950 . S
C2051 C2050 1.349 . S
C2051 C2067 1.349 . S
C2052 C2050 1.327 . S
C2052 C2071 1.429 . S
C2052 H2076 0.950 . S
C2053 C2070 1.574 . S
C2053 C2072 1.368 . S
C2053 H2077 0.949 . S
H2054 C2058 0.949 . S
C2055 C2056 1.349 . S
C2055 C2057 1.327 . S
C2055 H2078 0.950 . S
C2056 C2055 1.349 . S
C2056 C2068 1.349 . S
C2057 C2055 1.327 . S
C2057 C2073 1.429 . S
C2057 H2079 0.950 . S
C2058 H2054 0.949 . S
C2058 C2066 1.574 . S
C2058 C2074 1.368 . S
H2059 C2067 0.950 . S
H2060 C2065 0.950 . S
H2061 C2066 0.949 . S
H2062 C2068 0.950 . S
H2063 C2069 0.950 . S
H2064 C2070 0.949 . S
C2065 H2060 0.950 . S
C2065 C2067 1.327 . S
C2065 C2071 1.429 . S
C2066 C2058 1.574 . S
C2066 H2061 0.949 . S
C2066 C2072 1.368 . S
C2067 C2051 1.349 . S
C2067 H2059 0.950 . S
C2067 C2065 1.327 . S
C2068 C2056 1.349 . S
C2068 H2062 0.950 . S
C2068 C2069 1.327 . S
C2069 H2063 0.950 . S
C2069 C2068 1.327 . S
C2069 C2073 1.429 . S
C2070 C2053 1.574 . S
C2070 H2064 0.949 . S
C2070 C2074 1.368 . S
C2071 C2052 1.429 . S
C2071 C2065 1.429 . S
C2071 C2072 1.523 . S
C2072 C2053 1.368 . S
C2072 C2066 1.368 . S
C2072 C2071 1.523 . S
C2073 C2057 1.429 . S
C2073 C2069 1.429 . S
C2073 C2074 1.523 . S
C2074 C2058 1.368 . S
C2074 C2070 1.368 . S
C2074 C2073 1.523 . S
H2075 C2050 0.950 . S
H2076 C2052 0.950 . S
H2077 C2053 0.949 . S
H2078 C2055 0.950 . S
H2079 C2057 0.950 . S
C2080 C2081 1.349 . S
C2080 C2082 1.327 . S
C2080 H2105 0.950 . S
C2081 C2080 1.349 . S
C2081 C2097 1.349 . S
C2082 C2080 1.327 . S
C2082 C2101 1.429 . S
C2082 H2106 0.950 . S
C2083 C2100 1.574 . S
C2083 C2102 1.368 . S
C2083 H2107 0.949 . S
H2084 C2088 0.949 . S
C2085 C2086 1.349 . S
C2085 C2087 1.327 . S
C2085 H2108 0.950 1_565 S
C2086 C2085 1.349 . S
C2086 C2098 1.349 . S
C2087 C2085 1.327 . S
C2087 C2103 1.429 . S
C2087 H2109 0.950 . S
C2088 H2084 0.949 . S
C2088 C2096 1.574 . S
C2088 C2104 1.368 . S
H2089 C2097 0.950 . S
H2090 C2095 0.950 . S
H2091 C2096 0.949 . S
H2092 C2098 0.950 . S
H2093 C2099 0.950 . S
H2094 C2100 0.949 . S
C2095 H2090 0.950 . S
C2095 C2097 1.327 . S
C2095 C2101 1.429 . S
C2096 C2088 1.574 . S
C2096 H2091 0.949 . S
C2096 C2102 1.368 . S
C2097 C2081 1.349 . S
C2097 H2089 0.950 . S
C2097 C2095 1.327 . S
C2098 C2086 1.349 . S
C2098 H2092 0.950 . S
C2098 C2099 1.327 . S
C2099 H2093 0.950 . S
C2099 C2098 1.327 . S
C2099 C2103 1.429 . S
C2100 C2083 1.574 . S
C2100 H2094 0.949 . S
C2100 C2104 1.368 . S
C2101 C2082 1.429 . S
C2101 C2095 1.429 . S
C2101 C2102 1.523 . S
C2102 C2083 1.368 . S
C2102 C2096 1.368 . S
C2102 C2101 1.523 . S
C2103 C2087 1.429 . S
C2103 C2099 1.429 . S
C2103 C2104 1.523 . S
C2104 C2088 1.368 . S
C2104 C2100 1.368 . S
C2104 C2103 1.523 . S
H2105 C2080 0.950 . S
H2106 C2082 0.950 . S
H2107 C2083 0.949 . S
H2108 C2085 0.950 1_545 S
H2109 C2087 0.950 . S
C2110 C2111 1.349 . S
C2110 C2112 1.327 . S
C2110 H2135 0.950 . S
C2111 C2110 1.349 . S
C2111 C2127 1.349 1_554 S
C2112 C2110 1.327 . S
C2112 C2131 1.429 . S
C2112 H2136 0.950 . S
C2113 C2130 1.574 . S
C2113 C2132 1.368 1_556 S
C2113 H2137 0.949 . S
H2114 C2118 0.949 . S
C2115 C2116 1.349 1_556 S
C2115 C2117 1.327 . S
C2115 H2138 0.950 . S
C2116 C2115 1.349 1_554 S
C2116 C2128 1.349 . S
C2117 C2115 1.327 . S
C2117 C2133 1.429 1_556 S
C2117 H2139 0.950 . S
C2118 H2114 0.949 . S
C2118 C2126 1.574 . S
C2118 C2134 1.368 . S
H2119 C2127 0.950 . S
H2120 C2125 0.950 . S
H2121 C2126 0.949 . S
H2122 C2128 0.950 . S
H2123 C2129 0.950 . S
H2124 C2130 0.949 . S
C2125 H2120 0.950 . S
C2125 C2127 1.327 . S
C2125 C2131 1.429 1_556 S
C2126 C2118 1.574 . S
C2126 H2121 0.949 . S
C2126 C2132 1.368 . S
C2127 C2111 1.349 1_556 S
C2127 H2119 0.950 . S
C2127 C2125 1.327 . S
C2128 C2116 1.349 . S
C2128 H2122 0.950 . S
C2128 C2129 1.327 . S
C2129 H2123 0.950 . S
C2129 C2128 1.327 . S
C2129 C2133 1.429 . S
C2130 C2113 1.574 . S
C2130 H2124 0.949 . S
C2130 C2134 1.368 1_556 S
C2131 C2112 1.429 . S
C2131 C2125 1.429 1_554 S
C2131 C2132 1.523 . S
C2132 C2113 1.368 1_554 S
C2132 C2126 1.368 . S
C2132 C2131 1.523 . S
C2133 C2117 1.429 1_554 S
C2133 C2129 1.429 . S
C2133 C2134 1.523 . S
C2134 C2118 1.368 . S
C2134 C2130 1.368 1_554 S
C2134 C2133 1.523 . S
H2135 C2110 0.950 . S
H2136 C2112 0.950 . S
H2137 C2113 0.949 . S
H2138 C2115 0.950 . S
H2139 C2117 0.950 . S
C2140 C2141 1.349 . S
C2140 C2142 1.327 . S
C2140 H2165 0.950 . S
C2141 C2140 1.349 . S
C2141 C2157 1.349 . S
C2142 C2140 1.327 . S
C2142 C2161 1.429 . S
C2142 H2166 0.950 . S
C2143 C2160 1.574 . S
C2143 C2162 1.368 . S
C2143 H2167 0.949 . S
H2144 C2148 0.949 . S
C2145 C2146 1.349 . S
C2145 C2147 1.327 . S
C2145 H2168 0.950 . S
C2146 C2145 1.349 . S
C2146 C2158 1.349 . S
C2147 C2145 1.327 . S
C2147 C2163 1.429 . S
C2147 H2169 0.950 . S
C2148 H2144 0.949 . S
C2148 C2156 1.574 . S
C2148 C2164 1.368 . S
H2149 C2157 0.950 . S
H2150 C2155 0.950 . S
H2151 C2156 0.949 . S
H2152 C2158 0.950 . S
H2153 C2159 0.950 . S
H2154 C2160 0.949 . S
C2155 H2150 0.950 . S
C2155 C2157 1.327 . S
C2155 C2161 1.429 . S
C2156 C2148 1.574 . S
C2156 H2151 0.949 . S
C2156 C2162 1.368 . S
C2157 C2141 1.349 . S
C2157 H2149 0.950 . S
C2157 C2155 1.327 . S
C2158 C2146 1.349 . S
C2158 H2152 0.950 . S
C2158 C2159 1.327 . S
C2159 H2153 0.950 . S
C2159 C2158 1.327 . S
C2159 C2163 1.429 . S
C2160 C2143 1.574 . S
C2160 H2154 0.949 . S
C2160 C2164 1.368 . S
C2161 C2142 1.429 . S
C2161 C2155 1.429 . S
C2161 C2162 1.523 . S
C2162 C2143 1.368 . S
C2162 C2156 1.368 . S
C2162 C2161 1.523 . S
C2163 C2147 1.429 . S
C2163 C2159 1.429 . S
C2163 C2164 1.523 . S
C2164 C2148 1.368 . S
C2164 C2160 1.368 . S
C2164 C2163 1.523 . S
H2165 C2140 0.950 . S
H2166 C2142 0.950 . S
H2167 C2143 0.949 . S
H2168 C2145 0.950 . S
H2169 C2147 0.950 . S
C2170 C2171 1.349 . S
C2170 C2172 1.327 . S
C2170 H2195 0.950 . S
C2171 C2170 1.349 . S
C2171 C2187 1.349 . S
C2172 C2170 1.327 . S
C2172 C2191 1.429 . S
C2172 H2196 0.950 . S
C2173 C2190 1.574 . S
C2173 C2192 1.368 . S
C2173 H2197 0.949 . S
H2174 C2178 0.949 . S
C2175 C2176 1.349 . S
C2175 C2177 1.327 . S
C2175 H2198 0.950 . S
C2176 C2175 1.349 . S
C2176 C2188 1.349 . S
C2177 C2175 1.327 . S
C2177 C2193 1.429 . S
C2177 H2199 0.950 . S
C2178 H2174 0.949 . S
C2178 C2186 1.574 . S
C2178 C2194 1.368 . S
H2179 C2187 0.950 . S
H2180 C2185 0.950 . S
H2181 C2186 0.949 . S
H2182 C2188 0.950 . S
H2183 C2189 0.950 . S
H2184 C2190 0.949 . S
C2185 H2180 0.950 . S
C2185 C2187 1.327 . S
C2185 C2191 1.429 . S
C2186 C2178 1.574 . S
C2186 H2181 0.949 . S
C2186 C2192 1.368 . S
C2187 C2171 1.349 . S
C2187 H2179 0.950 . S
C2187 C2185 1.327 . S
C2188 C2176 1.349 . S
C2188 H2182 0.950 . S
C2188 C2189 1.327 . S
C2189 H2183 0.950 . S
C2189 C2188 1.327 . S
C2189 C2193 1.429 . S
C2190 C2173 1.574 . S
C2190 H2184 0.949 . S
C2190 C2194 1.368 . S
C2191 C2172 1.429 . S
C2191 C2185 1.429 . S
C2191 C2192 1.523 . S
C2192 C2173 1.368 . S
C2192 C2186 1.368 . S
C2192 C2191 1.523 . S
C2193 C2177 1.429 . S
C2193 C2189 1.429 . S
C2193 C2194 1.523 . S
C2194 C2178 1.368 . S
C2194 C2190 1.368 . S
C2194 C2193 1.523 . S
H2195 C2170 0.950 . S
H2196 C2172 0.950 . S
H2197 C2173 0.949 . S
H2198 C2175 0.950 . S
H2199 C2177 0.950 . S
C2200 C2201 1.349 . S
C2200 C2202 1.327 . S
C2200 H2225 0.950 . S
C2201 C2200 1.349 . S
C2201 C2217 1.349 . S
C2202 C2200 1.327 . S
C2202 C2221 1.429 . S
C2202 H2226 0.950 . S
C2203 C2220 1.574 . S
C2203 C2222 1.368 . S
C2203 H2227 0.949 . S
H2204 C2208 0.949 . S
C2205 C2206 1.349 . S
C2205 C2207 1.327 . S
C2205 H2228 0.950 . S
C2206 C2205 1.349 . S
C2206 C2218 1.349 . S
C2207 C2205 1.327 . S
C2207 C2223 1.429 . S
C2207 H2229 0.950 . S
C2208 H2204 0.949 . S
C2208 C2216 1.574 . S
C2208 C2224 1.368 . S
H2209 C2217 0.950 . S
H2210 C2215 0.950 . S
H2211 C2216 0.949 . S
H2212 C2218 0.950 . S
H2213 C2219 0.950 . S
H2214 C2220 0.949 . S
C2215 H2210 0.950 . S
C2215 C2217 1.327 . S
C2215 C2221 1.429 . S
C2216 C2208 1.574 . S
C2216 H2211 0.949 . S
C2216 C2222 1.368 . S
C2217 C2201 1.349 . S
C2217 H2209 0.950 . S
C2217 C2215 1.327 . S
C2218 C2206 1.349 . S
C2218 H2212 0.950 . S
C2218 C2219 1.327 . S
C2219 H2213 0.950 . S
C2219 C2218 1.327 . S
C2219 C2223 1.429 . S
C2220 C2203 1.574 . S
C2220 H2214 0.949 . S
C2220 C2224 1.368 . S
C2221 C2202 1.429 . S
C2221 C2215 1.429 . S
C2221 C2222 1.523 . S
C2222 C2203 1.368 . S
C2222 C2216 1.368 . S
C2222 C2221 1.523 . S
C2223 C2207 1.429 . S
C2223 C2219 1.429 . S
C2223 C2224 1.523 . S
C2224 C2208 1.368 . S
C2224 C2220 1.368 . S
C2224 C2223 1.523 . S
H2225 C2200 0.950 . S
H2226 C2202 0.950 . S
H2227 C2203 0.949 . S
H2228 C2205 0.950 . S
H2229 C2207 0.950 . S
C2230 C2231 1.349 . S
C2230 C2232 1.327 . S
C2230 H2255 0.950 . S
C2231 C2230 1.349 . S
C2231 C2247 1.349 . S
C2232 C2230 1.327 . S
C2232 C2251 1.429 . S
C2232 H2256 0.950 . S
C2233 C2250 1.574 . S
C2233 C2252 1.368 . S
C2233 H2257 0.949 . S
H2234 C2238 0.949 . S
C2235 C2236 1.349 . S
C2235 C2237 1.327 . S
C2235 H2258 0.950 . S
C2236 C2235 1.349 . S
C2236 C2248 1.349 . S
C2237 C2235 1.327 . S
C2237 C2253 1.429 . S
C2237 H2259 0.950 . S
C2238 H2234 0.949 . S
C2238 C2246 1.574 . S
C2238 C2254 1.368 . S
H2239 C2247 0.950 . S
H2240 C2245 0.950 . S
H2241 C2246 0.949 . S
H2242 C2248 0.950 . S
H2243 C2249 0.950 . S
H2244 C2250 0.949 . S
C2245 H2240 0.950 . S
C2245 C2247 1.327 . S
C2245 C2251 1.429 . S
C2246 C2238 1.574 . S
C2246 H2241 0.949 . S
C2246 C2252 1.368 . S
C2247 C2231 1.349 . S
C2247 H2239 0.950 . S
C2247 C2245 1.327 . S
C2248 C2236 1.349 . S
C2248 H2242 0.950 . S
C2248 C2249 1.327 . S
C2249 H2243 0.950 . S
C2249 C2248 1.327 . S
C2249 C2253 1.429 . S
C2250 C2233 1.574 . S
C2250 H2244 0.949 . S
C2250 C2254 1.368 . S
C2251 C2232 1.429 . S
C2251 C2245 1.429 . S
C2251 C2252 1.523 . S
C2252 C2233 1.368 . S
C2252 C2246 1.368 . S
C2252 C2251 1.523 . S
C2253 C2237 1.429 . S
C2253 C2249 1.429 . S
C2253 C2254 1.523 . S
C2254 C2238 1.368 . S
C2254 C2250 1.368 . S
C2254 C2253 1.523 . S
H2255 C2230 0.950 . S
H2256 C2232 0.950 . S
H2257 C2233 0.949 . S
H2258 C2235 0.950 . S
H2259 C2237 0.950 . S
C2260 C2261 1.349 . S
C2260 C2262 1.327 . S
C2260 H2285 0.950 . S
C2261 C2260 1.349 . S
C2261 C2277 1.349 . S
C2262 C2260 1.327 . S
C2262 C2281 1.429 . S
C2262 H2286 0.950 . S
C2263 C2280 1.574 . S
C2263 C2282 1.368 . S
C2263 H2287 0.949 . S
H2264 C2268 0.949 . S
C2265 C2266 1.349 . S
C2265 C2267 1.327 . S
C2265 H2288 0.950 . S
C2266 C2265 1.349 . S
C2266 C2278 1.349 . S
C2267 C2265 1.327 . S
C2267 C2283 1.429 . S
C2267 H2289 0.950 . S
C2268 H2264 0.949 . S
C2268 C2276 1.574 . S
C2268 C2284 1.368 . S
H2269 C2277 0.950 . S
H2270 C2275 0.950 . S
H2271 C2276 0.949 . S
H2272 C2278 0.950 . S
H2273 C2279 0.950 . S
H2274 C2280 0.949 . S
C2275 H2270 0.950 . S
C2275 C2277 1.327 . S
C2275 C2281 1.429 . S
C2276 C2268 1.574 . S
C2276 H2271 0.949 . S
C2276 C2282 1.368 . S
C2277 C2261 1.349 . S
C2277 H2269 0.950 . S
C2277 C2275 1.327 . S
C2278 C2266 1.349 . S
C2278 H2272 0.950 . S
C2278 C2279 1.327 . S
C2279 H2273 0.950 . S
C2279 C2278 1.327 . S
C2279 C2283 1.429 . S
C2280 C2263 1.574 . S
C2280 H2274 0.949 . S
C2280 C2284 1.368 . S
C2281 C2262 1.429 . S
C2281 C2275 1.429 . S
C2281 C2282 1.523 . S
C2282 C2263 1.368 . S
C2282 C2276 1.368 . S
C2282 C2281 1.523 . S
C2283 C2267 1.429 . S
C2283 C2279 1.429 . S
C2283 C2284 1.523 . S
C2284 C2268 1.368 . S
C2284 C2280 1.368 . S
C2284 C2283 1.523 . S
H2285 C2260 0.950 . S
H2286 C2262 0.950 . S
H2287 C2263 0.949 . S
H2288 C2265 0.950 . S
H2289 C2267 0.950 . S
C2290 C2291 1.349 . S
C2290 C2292 1.327 . S
C2290 H2315 0.950 . S
C2291 C2290 1.349 . S
C2291 C2307 1.349 . S
C2292 C2290 1.327 . S
C2292 C2311 1.429 . S
C2292 H2316 0.950 . S
C2293 C2310 1.574 . S
C2293 C2312 1.368 . S
C2293 H2317 0.949 . S
H2294 C2298 0.949 . S
C2295 C2296 1.349 . S
C2295 C2297 1.327 . S
C2295 H2318 0.950 . S
C2296 C2295 1.349 . S
C2296 C2308 1.349 . S
C2297 C2295 1.327 . S
C2297 C2313 1.429 . S
C2297 H2319 0.950 . S
C2298 H2294 0.949 . S
C2298 C2306 1.574 . S
C2298 C2314 1.368 . S
H2299 C2307 0.950 . S
H2300 C2305 0.950 . S
H2301 C2306 0.949 . S
H2302 C2308 0.950 . S
H2303 C2309 0.950 . S
H2304 C2310 0.949 . S
C2305 H2300 0.950 . S
C2305 C2307 1.327 . S
C2305 C2311 1.429 . S
C2306 C2298 1.574 . S
C2306 H2301 0.949 . S
C2306 C2312 1.368 . S
C2307 C2291 1.349 . S
C2307 H2299 0.950 . S
C2307 C2305 1.327 . S
C2308 C2296 1.349 . S
C2308 H2302 0.950 . S
C2308 C2309 1.327 . S
C2309 H2303 0.950 . S
C2309 C2308 1.327 . S
C2309 C2313 1.429 . S
C2310 C2293 1.574 . S
C2310 H2304 0.949 . S
C2310 C2314 1.368 . S
C2311 C2292 1.429 . S
C2311 C2305 1.429 . S
C2311 C2312 1.523 . S
C2312 C2293 1.368 . S
C2312 C2306 1.368 . S
C2312 C2311 1.523 . S
C2313 C2297 1.429 . S
C2313 C2309 1.429 . S
C2313 C2314 1.523 . S
C2314 C2298 1.368 . S
C2314 C2310 1.368 . S
C2314 C2313 1.523 . S
H2315 C2290 0.950 . S
H2316 C2292 0.950 . S
H2317 C2293 0.949 . S
H2318 C2295 0.950 . S
H2319 C2297 0.950 . S
C2320 C2321 1.349 . S
C2320 C2322 1.327 . S
C2320 H2345 0.950 . S
C2321 C2320 1.349 . S
C2321 C2337 1.349 . S
C2322 C2320 1.327 . S
C2322 C2341 1.429 . S
C2322 H2346 0.950 . S
C2323 C2340 1.574 . S
C2323 C2342 1.368 . S
C2323 H2347 0.949 . S
H2324 C2328 0.949 . S
C2325 C2326 1.349 . S
C2325 C2327 1.327 . S
C2325 H2348 0.950 . S
C2326 C2325 1.349 . S
C2326 C2338 1.349 . S
C2327 C2325 1.327 . S
C2327 C2343 1.429 . S
C2327 H2349 0.950 . S
C2328 H2324 0.949 . S
C2328 C2336 1.574 . S
C2328 C2344 1.368 . S
H2329 C2337 0.950 . S
H2330 C2335 0.950 . S
H2331 C2336 0.949 . S
H2332 C2338 0.950 . S
H2333 C2339 0.950 . S
H2334 C2340 0.949 . S
C2335 H2330 0.950 . S
C2335 C2337 1.327 . S
C2335 C2341 1.429 . S
C2336 C2328 1.574 . S
C2336 H2331 0.949 . S
C2336 C2342 1.368 . S
C2337 C2321 1.349 . S
C2337 H2329 0.950 . S
C2337 C2335 1.327 . S
C2338 C2326 1.349 . S
C2338 H2332 0.950 . S
C2338 C2339 1.327 . S
C2339 H2333 0.950 . S
C2339 C2338 1.327 . S
C2339 C2343 1.429 . S
C2340 C2323 1.574 . S
C2340 H2334 0.949 . S
C2340 C2344 1.368 . S
C2341 C2322 1.429 . S
C2341 C2335 1.429 . S
C2341 C2342 1.523 . S
C2342 C2323 1.368 . S
C2342 C2336 1.368 . S
C2342 C2341 1.523 . S
C2343 C2327 1.429 . S
C2343 C2339 1.429 . S
C2343 C2344 1.523 . S
C2344 C2328 1.368 . S
C2344 C2340 1.368 . S
C2344 C2343 1.523 . S
H2345 C2320 0.950 . S
H2346 C2322 0.950 . S
H2347 C2323 0.949 . S
H2348 C2325 0.950 . S
H2349 C2327 0.950 . S
C2350 C2351 1.349 . S
C2350 C2352 1.327 . S
C2350 H2375 0.950 . S
C2351 C2350 1.349 . S
C2351 C2367 1.349 . S
C2352 C2350 1.327 . S
C2352 C2371 1.429 . S
C2352 H2376 0.950 . S
C2353 C2370 1.574 . S
C2353 C2372 1.368 . S
C2353 H2377 0.949 . S
H2354 C2358 0.949 . S
C2355 C2356 1.349 . S
C2355 C2357 1.327 . S
C2355 H2378 0.950 . S
C2356 C2355 1.349 . S
C2356 C2368 1.349 . S
C2357 C2355 1.327 . S
C2357 C2373 1.429 . S
C2357 H2379 0.950 . S
C2358 H2354 0.949 . S
C2358 C2366 1.574 . S
C2358 C2374 1.368 . S
H2359 C2367 0.950 . S
H2360 C2365 0.950 . S
H2361 C2366 0.949 . S
H2362 C2368 0.950 . S
H2363 C2369 0.950 . S
H2364 C2370 0.949 . S
C2365 H2360 0.950 . S
C2365 C2367 1.327 . S
C2365 C2371 1.429 . S
C2366 C2358 1.574 . S
C2366 H2361 0.949 . S
C2366 C2372 1.368 . S
C2367 C2351 1.349 . S
C2367 H2359 0.950 . S
C2367 C2365 1.327 . S
C2368 C2356 1.349 . S
C2368 H2362 0.950 . S
C2368 C2369 1.327 . S
C2369 H2363 0.950 . S
C2369 C2368 1.327 . S
C2369 C2373 1.429 . S
C2370 C2353 1.574 . S
C2370 H2364 0.949 . S
C2370 C2374 1.368 . S
C2371 C2352 1.429 . S
C2371 C2365 1.429 . S
C2371 C2372 1.523 . S
C2372 C2353 1.368 . S
C2372 C2366 1.368 . S
C2372 C2371 1.523 . S
C2373 C2357 1.429 . S
C2373 C2369 1.429 . S
C2373 C2374 1.523 . S
C2374 C2358 1.368 . S
C2374 C2370 1.368 . S
C2374 C2373 1.523 . S
H2375 C2350 0.950 . S
H2376 C2352 0.950 . S
H2377 C2353 0.949 . S
H2378 C2355 0.950 . S
H2379 C2357 0.950 . S
C2380 C2381 1.349 . S
C2380 C2382 1.327 . S
C2380 H2405 0.950 . S
C2381 C2380 1.349 . S
C2381 C2397 1.349 . S
C2382 C2380 1.327 . S
C2382 C2401 1.429 . S
C2382 H2406 0.950 . S
C2383 C2400 1.574 . S
C2383 C2402 1.368 . S
C2383 H2407 0.949 . S
H2384 C2388 0.949 . S
C2385 C2386 1.349 . S
C2385 C2387 1.327 . S
C2385 H2408 0.950 . S
C2386 C2385 1.349 . S
C2386 C2398 1.349 . S
C2387 C2385 1.327 . S
C2387 C2403 1.429 . S
C2387 H2409 0.950 . S
C2388 H2384 0.949 . S
C2388 C2396 1.574 . S
C2388 C2404 1.368 . S
H2389 C2397 0.950 . S
H2390 C2395 0.950 . S
H2391 C2396 0.949 . S
H2392 C2398 0.950 . S
H2393 C2399 0.950 . S
H2394 C2400 0.949 . S
C2395 H2390 0.950 . S
C2395 C2397 1.327 . S
C2395 C2401 1.429 . S
C2396 C2388 1.574 . S
C2396 H2391 0.949 . S
C2396 C2402 1.368 . S
C2397 C2381 1.349 . S
C2397 H2389 0.950 . S
C2397 C2395 1.327 . S
C2398 C2386 1.349 . S
C2398 H2392 0.950 . S
C2398 C2399 1.327 . S
C2399 H2393 0.950 . S
C2399 C2398 1.327 . S
C2399 C2403 1.429 . S
C2400 C2383 1.574 . S
C2400 H2394 0.949 . S
C2400 C2404 1.368 . S
C2401 C2382 1.429 . S
C2401 C2395 1.429 . S
C2401 C2402 1.523 . S
C2402 C2383 1.368 . S
C2402 C2396 1.368 . S
C2402 C2401 1.523 . S
C2403 C2387 1.429 . S
C2403 C2399 1.429 . S
C2403 C2404 1.523 . S
C2404 C2388 1.368 . S
C2404 C2400 1.368 . S
C2404 C2403 1.523 . S
H2405 C2380 0.950 . S
H2406 C2382 0.950 . S
H2407 C2383 0.949 . S
H2408 C2385 0.950 . S
H2409 C2387 0.950 . S
C2410 C2411 1.349 . S
C2410 C2412 1.327 . S
C2410 H2435 0.950 . S
C2411 C2410 1.349 . S
C2411 C2427 1.349 . S
C2412 C2410 1.327 . S
C2412 C2431 1.429 . S
C2412 H2436 0.950 . S
C2413 C2430 1.574 . S
C2413 C2432 1.368 . S
C2413 H2437 0.949 . S
H2414 C2418 0.949 . S
C2415 C2416 1.349 . S
C2415 C2417 1.327 . S
C2415 H2438 0.950 . S
C2416 C2415 1.349 . S
C2416 C2428 1.349 . S
C2417 C2415 1.327 . S
C2417 C2433 1.429 . S
C2417 H2439 0.950 . S
C2418 H2414 0.949 . S
C2418 C2426 1.574 . S
C2418 C2434 1.368 . S
H2419 C2427 0.950 . S
H2420 C2425 0.950 . S
H2421 C2426 0.949 . S
H2422 C2428 0.950 . S
H2423 C2429 0.950 . S
H2424 C2430 0.949 . S
C2425 H2420 0.950 . S
C2425 C2427 1.327 . S
C2425 C2431 1.429 . S
C2426 C2418 1.574 . S
C2426 H2421 0.949 . S
C2426 C2432 1.368 . S
C2427 C2411 1.349 . S
C2427 H2419 0.950 . S
C2427 C2425 1.327 . S
C2428 C2416 1.349 . S
C2428 H2422 0.950 . S
C2428 C2429 1.327 . S
C2429 H2423 0.950 . S
C2429 C2428 1.327 . S
C2429 C2433 1.429 . S
C2430 C2413 1.574 . S
C2430 H2424 0.949 . S
C2430 C2434 1.368 . S
C2431 C2412 1.429 . S
C2431 C2425 1.429 . S
C2431 C2432 1.523 . S
C2432 C2413 1.368 . S
C2432 C2426 1.368 . S
C2432 C2431 1.523 . S
C2433 C2417 1.429 . S
C2433 C2429 1.429 . S
C2433 C2434 1.523 . S
C2434 C2418 1.368 . S
C2434 C2430 1.368 . S
C2434 C2433 1.523 . S
H2435 C2410 0.950 . S
H2436 C2412 0.950 . S
H2437 C2413 0.949 . S
H2438 C2415 0.950 . S
H2439 C2417 0.950 . S
C2440 C2441 1.349 . S
C2440 C2442 1.327 . S
C2440 H2465 0.950 . S
C2441 C2440 1.349 . S
C2441 C2457 1.349 . S
C2442 C2440 1.327 . S
C2442 C2461 1.429 . S
C2442 H2466 0.950 . S
C2443 C2460 1.574 . S
C2443 C2462 1.368 . S
C2443 H2467 0.949 . S
H2444 C2448 0.949 . S
C2445 C2446 1.326 1_556 S
C2445 C2447 1.327 . S
C2445 H2468 0.950 . S
C2446 C2445 1.326 1_554 S
C2446 C2458 1.347 . S
C2447 C2445 1.327 . S
C2447 C2463 1.429 . S
C2447 H2469 0.950 . S
C2448 H2444 0.949 . S
C2448 C2456 1.574 . S
C2448 C2464 1.368 . S
H2449 C2457 0.950 . S
H2450 C2455 0.950 . S
H2451 C2456 0.949 . S
H2452 C2458 0.952 . S
H2453 C2459 0.950 . S
H2454 C2460 0.949 . S
C2455 H2450 0.950 . S
C2455 C2457 1.327 . S
C2455 C2461 1.429 . S
C2456 C2448 1.574 . S
C2456 H2451 0.949 . S
C2456 C2462 1.368 . S
C2457 C2441 1.349 . S
C2457 H2449 0.950 . S
C2457 C2455 1.327 . S
C2458 C2446 1.347 . S
C2458 H2452 0.952 . S
C2458 C2459 1.325 1_554 S
C2459 H2453 0.950 . S
C2459 C2458 1.325 1_556 S
C2459 C2463 1.429 . S
C2460 C2443 1.574 . S
C2460 H2454 0.949 . S
C2460 C2464 1.368 . S
C2461 C2442 1.429 . S
C2461 C2455 1.429 . S
C2461 C2462 1.523 . S
C2462 C2443 1.368 . S
C2462 C2456 1.368 . S
C2462 C2461 1.523 . S
C2463 C2447 1.429 . S
C2463 C2459 1.429 . S
C2463 C2464 1.523 . S
C2464 C2448 1.368 . S
C2464 C2460 1.368 . S
C2464 C2463 1.523 . S
H2465 C2440 0.950 . S
H2466 C2442 0.950 . S
H2467 C2443 0.949 . S
H2468 C2445 0.950 . S
H2469 C2447 0.950 . S
C2470 C2471 1.332 1_655 S
C2470 C2472 1.327 . S
C2470 H2495 0.950 . S
C2471 C2470 1.332 1_455 S
C2471 C2487 1.341 1_455 S
C2472 C2470 1.327 . S
C2472 C2491 1.429 . S
C2472 H2496 0.950 . S
C2473 C2490 1.574 . S
C2473 C2492 1.368 . S
C2473 H2497 0.949 . S
H2474 C2478 0.949 . S
C2475 C2476 1.349 . S
C2475 C2477 1.327 . S
C2475 H2498 0.950 . S
C2476 C2475 1.349 . S
C2476 C2488 1.349 . S
C2477 C2475 1.327 . S
C2477 C2493 1.429 . S
C2477 H2499 0.950 . S
C2478 H2474 0.949 . S
C2478 C2486 1.574 . S
C2478 C2494 1.368 . S
H2479 C2487 0.950 1_455 S
H2480 C2485 0.950 . S
H2481 C2486 0.949 . S
H2482 C2488 0.950 . S
H2483 C2489 0.950 . S
H2484 C2490 0.949 . S
C2485 H2480 0.950 . S
C2485 C2487 1.327 . S
C2485 C2491 1.429 . S
C2486 C2478 1.574 . S
C2486 H2481 0.949 . S
C2486 C2492 1.368 . S
C2487 C2471 1.341 1_655 S
C2487 H2479 0.950 1_655 S
C2487 C2485 1.327 . S
C2488 C2476 1.349 . S
C2488 H2482 0.950 . S
C2488 C2489 1.327 . S
C2489 H2483 0.950 . S
C2489 C2488 1.327 . S
C2489 C2493 1.429 . S
C2490 C2473 1.574 . S
C2490 H2484 0.949 . S
C2490 C2494 1.368 . S
C2491 C2472 1.429 . S
C2491 C2485 1.429 . S
C2491 C2492 1.523 . S
C2492 C2473 1.368 . S
C2492 C2486 1.368 . S
C2492 C2491 1.523 . S
C2493 C2477 1.429 . S
C2493 C2489 1.429 . S
C2493 C2494 1.523 . S
C2494 C2478 1.368 . S
C2494 C2490 1.368 . S
C2494 C2493 1.523 . S
H2495 C2470 0.950 . S
H2496 C2472 0.950 . S
H2497 C2473 0.949 . S
H2498 C2475 0.950 . S
H2499 C2477 0.950 . S
C2500 C2501 1.349 . S
C2500 C2502 1.327 . S
C2500 H2525 0.950 . S
C2501 C2500 1.349 . S
C2501 C2517 1.349 . S
C2502 C2500 1.327 . S
C2502 C2521 1.429 . S
C2502 H2526 0.950 . S
C2503 C2520 1.574 . S
C2503 C2522 1.368 . S
C2503 H2527 0.949 . S
H2504 C2508 0.949 . S
C2505 C2506 1.349 . S
C2505 C2507 1.327 . S
C2505 H2528 0.950 . S
C2506 C2505 1.349 . S
C2506 C2518 1.349 . S
C2507 C2505 1.327 . S
C2507 C2523 1.429 . S
C2507 H2529 0.950 . S
C2508 H2504 0.949 . S
C2508 C2516 1.574 . S
C2508 C2524 1.368 . S
H2509 C2517 0.950 . S
H2510 C2515 0.950 . S
H2511 C2516 0.949 . S
H2512 C2518 0.950 . S
H2513 C2519 0.950 . S
H2514 C2520 0.949 . S
C2515 H2510 0.950 . S
C2515 C2517 1.327 . S
C2515 C2521 1.429 . S
C2516 C2508 1.574 . S
C2516 H2511 0.949 . S
C2516 C2522 1.368 . S
C2517 C2501 1.349 . S
C2517 H2509 0.950 . S
C2517 C2515 1.327 . S
C2518 C2506 1.349 . S
C2518 H2512 0.950 . S
C2518 C2519 1.327 . S
C2519 H2513 0.950 . S
C2519 C2518 1.327 . S
C2519 C2523 1.429 . S
C2520 C2503 1.574 . S
C2520 H2514 0.949 . S
C2520 C2524 1.368 . S
C2521 C2502 1.429 . S
C2521 C2515 1.429 . S
C2521 C2522 1.523 . S
C2522 C2503 1.368 . S
C2522 C2516 1.368 . S
C2522 C2521 1.523 . S
C2523 C2507 1.429 . S
C2523 C2519 1.429 . S
C2523 C2524 1.523 . S
C2524 C2508 1.368 . S
C2524 C2520 1.368 . S
C2524 C2523 1.523 . S
H2525 C2500 0.950 . S
H2526 C2502 0.950 . S
H2527 C2503 0.949 . S
H2528 C2505 0.950 . S
H2529 C2507 0.950 . S
C2530 C2531 1.349 . S
C2530 C2532 1.327 . S
C2530 H2555 0.950 . S
C2531 C2530 1.349 . S
C2531 C2547 1.349 . S
C2532 C2530 1.327 . S
C2532 C2551 1.429 . S
C2532 H2556 0.950 . S
C2533 C2550 1.574 . S
C2533 C2552 1.368 . S
C2533 H2557 0.949 . S
H2534 C2538 0.949 . S
C2535 C2536 1.349 . S
C2535 C2537 1.327 . S
C2535 H2558 0.950 . S
C2536 C2535 1.349 . S
C2536 C2548 1.349 . S
C2537 C2535 1.327 . S
C2537 C2553 1.429 . S
C2537 H2559 0.950 . S
C2538 H2534 0.949 . S
C2538 C2546 1.574 . S
C2538 C2554 1.368 . S
H2539 C2547 0.950 . S
H2540 C2545 0.950 . S
H2541 C2546 0.949 . S
H2542 C2548 0.950 . S
H2543 C2549 0.950 . S
H2544 C2550 0.949 . S
C2545 H2540 0.950 . S
C2545 C2547 1.327 . S
C2545 C2551 1.429 . S
C2546 C2538 1.574 . S
C2546 H2541 0.949 . S
C2546 C2552 1.368 . S
C2547 C2531 1.349 . S
C2547 H2539 0.950 . S
C2547 C2545 1.327 . S
C2548 C2536 1.349 . S
C2548 H2542 0.950 . S
C2548 C2549 1.327 . S
C2549 H2543 0.950 . S
C2549 C2548 1.327 . S
C2549 C2553 1.429 . S
C2550 C2533 1.574 . S
C2550 H2544 0.949 . S
C2550 C2554 1.368 . S
C2551 C2532 1.429 . S
C2551 C2545 1.429 . S
C2551 C2552 1.523 . S
C2552 C2533 1.368 . S
C2552 C2546 1.368 . S
C2552 C2551 1.523 . S
C2553 C2537 1.429 . S
C2553 C2549 1.429 . S
C2553 C2554 1.523 . S
C2554 C2538 1.368 . S
C2554 C2550 1.368 . S
C2554 C2553 1.523 . S
H2555 C2530 0.950 . S
H2556 C2532 0.950 . S
H2557 C2533 0.949 . S
H2558 C2535 0.950 . S
H2559 C2537 0.950 . S
C2560 C2561 1.349 . S
C2560 C2562 1.327 . S
C2560 H2585 0.950 . S
C2561 C2560 1.349 . S
C2561 C2577 1.349 . S
C2562 C2560 1.327 . S
C2562 C2581 1.429 . S
C2562 H2586 0.950 . S
C2563 C2580 1.574 . S
C2563 C2582 1.368 . S
C2563 H2587 0.949 . S
H2564 C2568 0.949 . S
C2565 C2566 1.349 . S
C2565 C2567 1.327 . S
C2565 H2588 0.950 . S
C2566 C2565 1.349 . S
C2566 C2578 1.349 . S
C2567 C2565 1.327 . S
C2567 C2583 1.429 . S
C2567 H2589 0.950 . S
C2568 H2564 0.949 . S
C2568 C2576 1.574 . S
C2568 C2584 1.368 . S
H2569 C2577 0.950 . S
H2570 C2575 0.950 . S
H2571 C2576 0.949 . S
H2572 C2578 0.950 . S
H2573 C2579 0.950 . S
H2574 C2580 0.949 . S
C2575 H2570 0.950 . S
C2575 C2577 1.327 . S
C2575 C2581 1.429 . S
C2576 C2568 1.574 . S
C2576 H2571 0.949 . S
C2576 C2582 1.368 . S
C2577 C2561 1.349 . S
C2577 H2569 0.950 . S
C2577 C2575 1.327 . S
C2578 C2566 1.349 . S
C2578 H2572 0.950 . S
C2578 C2579 1.327 . S
C2579 H2573 0.950 . S
C2579 C2578 1.327 . S
C2579 C2583 1.429 . S
C2580 C2563 1.574 . S
C2580 H2574 0.949 . S
C2580 C2584 1.368 . S
C2581 C2562 1.429 . S
C2581 C2575 1.429 . S
C2581 C2582 1.523 . S
C2582 C2563 1.368 . S
C2582 C2576 1.368 . S
C2582 C2581 1.523 . S
C2583 C2567 1.429 . S
C2583 C2579 1.429 . S
C2583 C2584 1.523 . S
C2584 C2568 1.368 . S
C2584 C2580 1.368 . S
C2584 C2583 1.523 . S
H2585 C2560 0.950 . S
H2586 C2562 0.950 . S
H2587 C2563 0.949 . S
H2588 C2565 0.950 . S
H2589 C2567 0.950 . S
C2590 C2591 1.349 . S
C2590 C2592 1.327 . S
C2590 H2615 0.950 1_556 S
C2591 C2590 1.349 . S
C2591 C2607 1.349 . S
C2592 C2590 1.327 . S
C2592 C2611 1.429 . S
C2592 H2616 0.950 . S
C2593 C2610 1.574 . S
C2593 C2612 1.368 . S
C2593 H2617 0.949 . S
H2594 C2598 0.949 . S
C2595 C2596 1.349 . S
C2595 C2597 1.327 . S
C2595 H2618 0.950 . S
C2596 C2595 1.349 . S
C2596 C2608 1.349 . S
C2597 C2595 1.327 . S
C2597 C2613 1.429 . S
C2597 H2619 0.950 . S
C2598 H2594 0.949 . S
C2598 C2606 1.574 . S
C2598 C2614 1.368 . S
H2599 C2607 0.950 . S
H2600 C2605 0.950 . S
H2601 C2606 0.949 . S
H2602 C2608 0.950 . S
H2603 C2609 0.950 . S
H2604 C2610 0.949 . S
C2605 H2600 0.950 . S
C2605 C2607 1.327 . S
C2605 C2611 1.429 . S
C2606 C2598 1.574 . S
C2606 H2601 0.949 . S
C2606 C2612 1.368 . S
C2607 C2591 1.349 . S
C2607 H2599 0.950 . S
C2607 C2605 1.327 . S
C2608 C2596 1.349 . S
C2608 H2602 0.950 . S
C2608 C2609 1.327 . S
C2609 H2603 0.950 . S
C2609 C2608 1.327 . S
C2609 C2613 1.429 . S
C2610 C2593 1.574 . S
C2610 H2604 0.949 . S
C2610 C2614 1.368 . S
C2611 C2592 1.429 . S
C2611 C2605 1.429 . S
C2611 C2612 1.523 . S
C2612 C2593 1.368 . S
C2612 C2606 1.368 . S
C2612 C2611 1.523 . S
C2613 C2597 1.429 . S
C2613 C2609 1.429 . S
C2613 C2614 1.523 . S
C2614 C2598 1.368 . S
C2614 C2610 1.368 . S
C2614 C2613 1.523 . S
H2615 C2590 0.950 1_554 S
H2616 C2592 0.950 . S
H2617 C2593 0.949 . S
H2618 C2595 0.950 . S
H2619 C2597 0.950 . S
C2620 C2621 1.349 . S
C2620 C2622 1.327 . S
C2620 H2645 0.950 . S
C2621 C2620 1.349 . S
C2621 C2637 1.349 . S
C2622 C2620 1.327 . S
C2622 C2641 1.429 . S
C2622 H2646 0.950 . S
C2623 C2640 1.574 . S
C2623 C2642 1.368 . S
C2623 H2647 0.949 . S
H2624 C2628 0.949 . S
C2625 C2626 1.349 . S
C2625 C2627 1.327 1_455 S
C2625 H2648 0.950 . S
C2626 C2625 1.349 . S
C2626 C2638 1.349 1_455 S
C2627 C2625 1.327 1_655 S
C2627 C2643 1.429 . S
C2627 H2649 0.950 . S
C2628 H2624 0.949 . S
C2628 C2636 1.574 . S
C2628 C2644 1.368 . S
H2629 C2637 0.950 . S
H2630 C2635 0.950 . S
H2631 C2636 0.949 . S
H2632 C2638 0.950 . S
H2633 C2639 0.950 . S
H2634 C2640 0.949 . S
C2635 H2630 0.950 . S
C2635 C2637 1.327 . S
C2635 C2641 1.429 . S
C2636 C2628 1.574 . S
C2636 H2631 0.949 . S
C2636 C2642 1.368 . S
C2637 C2621 1.349 . S
C2637 H2629 0.950 . S
C2637 C2635 1.327 . S
C2638 C2626 1.349 1_655 S
C2638 H2632 0.950 . S
C2638 C2639 1.327 . S
C2639 H2633 0.950 . S
C2639 C2638 1.327 . S
C2639 C2643 1.429 . S
C2640 C2623 1.574 . S
C2640 H2634 0.949 . S
C2640 C2644 1.368 . S
C2641 C2622 1.429 . S
C2641 C2635 1.429 . S
C2641 C2642 1.523 . S
C2642 C2623 1.368 . S
C2642 C2636 1.368 . S
C2642 C2641 1.523 . S
C2643 C2627 1.429 . S
C2643 C2639 1.429 . S
C2643 C2644 1.523 . S
C2644 C2628 1.368 . S
C2644 C2640 1.368 . S
C2644 C2643 1.523 . S
H2645 C2620 0.950 . S
H2646 C2622 0.950 . S
H2647 C2623 0.949 . S
H2648 C2625 0.950 . S
H2649 C2627 0.950 . S
C2650 C2651 1.349 . S
C2650 C2652 1.327 . S
C2650 H2675 0.950 . S
C2651 C2650 1.349 . S
C2651 C2667 1.349 . S
C2652 C2650 1.327 . S
C2652 C2671 1.429 . S
C2652 H2676 0.950 . S
C2653 C2670 1.574 . S
C2653 C2672 1.368 . S
C2653 H2677 0.949 . S
H2654 C2658 0.949 . S
C2655 C2656 1.349 . S
C2655 C2657 1.327 . S
C2655 H2678 0.950 . S
C2656 C2655 1.349 . S
C2656 C2668 1.349 . S
C2657 C2655 1.327 . S
C2657 C2673 1.429 . S
C2657 H2679 0.950 . S
C2658 H2654 0.949 . S
C2658 C2666 1.574 . S
C2658 C2674 1.368 . S
H2659 C2667 0.950 . S
H2660 C2665 0.950 . S
H2661 C2666 0.949 . S
H2662 C2668 0.950 . S
H2663 C2669 0.950 . S
H2664 C2670 0.949 . S
C2665 H2660 0.950 . S
C2665 C2667 1.327 . S
C2665 C2671 1.429 . S
C2666 C2658 1.574 . S
C2666 H2661 0.949 . S
C2666 C2672 1.368 . S
C2667 C2651 1.349 . S
C2667 H2659 0.950 . S
C2667 C2665 1.327 . S
C2668 C2656 1.349 . S
C2668 H2662 0.950 . S
C2668 C2669 1.327 . S
C2669 H2663 0.950 . S
C2669 C2668 1.327 . S
C2669 C2673 1.429 . S
C2670 C2653 1.574 . S
C2670 H2664 0.949 . S
C2670 C2674 1.368 . S
C2671 C2652 1.429 . S
C2671 C2665 1.429 . S
C2671 C2672 1.523 . S
C2672 C2653 1.368 . S
C2672 C2666 1.368 . S
C2672 C2671 1.523 . S
C2673 C2657 1.429 . S
C2673 C2669 1.429 . S
C2673 C2674 1.523 . S
C2674 C2658 1.368 . S
C2674 C2670 1.368 . S
C2674 C2673 1.523 . S
H2675 C2650 0.950 . S
H2676 C2652 0.950 . S
H2677 C2653 0.949 . S
H2678 C2655 0.950 . S
H2679 C2657 0.950 . S
C2680 C2681 1.349 . S
C2680 C2682 1.327 . S
C2680 H2705 0.950 . S
C2681 C2680 1.349 . S
C2681 C2697 1.349 . S
C2682 C2680 1.327 . S
C2682 C2701 1.429 . S
C2682 H2706 0.950 . S
C2683 C2700 1.574 . S
C2683 C2702 1.368 . S
C2683 H2707 0.949 . S
H2684 C2688 0.949 . S
C2685 C2686 1.349 . S
C2685 C2687 1.327 . S
C2685 H2708 0.950 . S
C2686 C2685 1.349 . S
C2686 C2698 1.349 . S
C2687 C2685 1.327 . S
C2687 C2703 1.429 . S
C2687 H2709 0.950 . S
C2688 H2684 0.949 . S
C2688 C2696 1.574 . S
C2688 C2704 1.368 . S
H2689 C2697 0.950 . S
H2690 C2695 0.950 . S
H2691 C2696 0.949 . S
H2692 C2698 0.950 . S
H2693 C2699 0.950 . S
H2694 C2700 0.949 . S
C2695 H2690 0.950 . S
C2695 C2697 1.327 . S
C2695 C2701 1.429 . S
C2696 C2688 1.574 . S
C2696 H2691 0.949 . S
C2696 C2702 1.368 . S
C2697 C2681 1.349 . S
C2697 H2689 0.950 . S
C2697 C2695 1.327 . S
C2698 C2686 1.349 . S
C2698 H2692 0.950 . S
C2698 C2699 1.327 . S
C2699 H2693 0.950 . S
C2699 C2698 1.327 . S
C2699 C2703 1.429 . S
C2700 C2683 1.574 . S
C2700 H2694 0.949 . S
C2700 C2704 1.368 . S
C2701 C2682 1.429 . S
C2701 C2695 1.429 . S
C2701 C2702 1.523 . S
C2702 C2683 1.368 . S
C2702 C2696 1.368 . S
C2702 C2701 1.523 . S
C2703 C2687 1.429 . S
C2703 C2699 1.429 . S
C2703 C2704 1.523 . S
C2704 C2688 1.368 . S
C2704 C2700 1.368 . S
C2704 C2703 1.523 . S
H2705 C2680 0.950 . S
H2706 C2682 0.950 . S
H2707 C2683 0.949 . S
H2708 C2685 0.950 . S
H2709 C2687 0.950 . S
C2710 C2711 1.349 . S
C2710 C2712 1.327 . S
C2710 H2735 0.950 . S
C2711 C2710 1.349 . S
C2711 C2727 1.349 . S
C2712 C2710 1.327 . S
C2712 C2731 1.429 . S
C2712 H2736 0.950 . S
C2713 C2730 1.574 . S
C2713 C2732 1.368 . S
C2713 H2737 0.949 . S
H2714 C2718 0.949 . S
C2715 C2716 1.349 . S
C2715 C2717 1.327 . S
C2715 H2738 0.950 . S
C2716 C2715 1.349 . S
C2716 C2728 1.349 . S
C2717 C2715 1.327 . S
C2717 C2733 1.429 . S
C2717 H2739 0.950 . S
C2718 H2714 0.949 . S
C2718 C2726 1.574 . S
C2718 C2734 1.368 . S
H2719 C2727 0.950 . S
H2720 C2725 0.950 . S
H2721 C2726 0.949 . S
H2722 C2728 0.950 . S
H2723 C2729 0.950 . S
H2724 C2730 0.949 . S
C2725 H2720 0.950 . S
C2725 C2727 1.327 . S
C2725 C2731 1.429 . S
C2726 C2718 1.574 . S
C2726 H2721 0.949 . S
C2726 C2732 1.368 . S
C2727 C2711 1.349 . S
C2727 H2719 0.950 . S
C2727 C2725 1.327 . S
C2728 C2716 1.349 . S
C2728 H2722 0.950 . S
C2728 C2729 1.327 . S
C2729 H2723 0.950 . S
C2729 C2728 1.327 . S
C2729 C2733 1.429 . S
C2730 C2713 1.574 . S
C2730 H2724 0.949 . S
C2730 C2734 1.368 . S
C2731 C2712 1.429 . S
C2731 C2725 1.429 . S
C2731 C2732 1.523 . S
C2732 C2713 1.368 . S
C2732 C2726 1.368 . S
C2732 C2731 1.523 . S
C2733 C2717 1.429 . S
C2733 C2729 1.429 . S
C2733 C2734 1.523 . S
C2734 C2718 1.368 . S
C2734 C2730 1.368 . S
C2734 C2733 1.523 . S
H2735 C2710 0.950 . S
H2736 C2712 0.950 . S
H2737 C2713 0.949 . S
H2738 C2715 0.950 . S
H2739 C2717 0.950 . S
C2740 C2741 1.349 . S
C2740 C2742 1.327 . S
C2740 H2765 0.950 . S
C2741 C2740 1.349 . S
C2741 C2757 1.349 . S
C2742 C2740 1.327 . S
C2742 C2761 1.429 . S
C2742 H2766 0.950 . S
C2743 C2760 1.574 . S
C2743 C2762 1.368 . S
C2743 H2767 0.949 . S
H2744 C2748 0.949 . S
C2745 C2746 1.349 . S
C2745 C2747 1.327 . S
C2745 H2768 0.950 1_655 S
C2746 C2745 1.349 . S
C2746 C2758 1.349 . S
C2747 C2745 1.327 . S
C2747 C2763 1.429 . S
C2747 H2769 0.950 . S
C2748 H2744 0.949 . S
C2748 C2756 1.574 . S
C2748 C2764 1.368 . S
H2749 C2757 0.950 . S
H2750 C2755 0.950 . S
H2751 C2756 0.949 . S
H2752 C2758 0.950 . S
H2753 C2759 0.950 . S
H2754 C2760 0.949 . S
C2755 H2750 0.950 . S
C2755 C2757 1.327 . S
C2755 C2761 1.429 . S
C2756 C2748 1.574 . S
C2756 H2751 0.949 . S
C2756 C2762 1.368 . S
C2757 C2741 1.349 . S
C2757 H2749 0.950 . S
C2757 C2755 1.327 . S
C2758 C2746 1.349 . S
C2758 H2752 0.950 . S
C2758 C2759 1.327 . S
C2759 H2753 0.950 . S
C2759 C2758 1.327 . S
C2759 C2763 1.429 . S
C2760 C2743 1.574 . S
C2760 H2754 0.949 . S
C2760 C2764 1.368 . S
C2761 C2742 1.429 . S
C2761 C2755 1.429 . S
C2761 C2762 1.523 . S
C2762 C2743 1.368 . S
C2762 C2756 1.368 . S
C2762 C2761 1.523 . S
C2763 C2747 1.429 . S
C2763 C2759 1.429 . S
C2763 C2764 1.523 . S
C2764 C2748 1.368 . S
C2764 C2760 1.368 . S
C2764 C2763 1.523 . S
H2765 C2740 0.950 . S
H2766 C2742 0.950 . S
H2767 C2743 0.949 . S
H2768 C2745 0.950 1_455 S
H2769 C2747 0.950 . S
C2770 C2771 1.349 . S
C2770 C2772 1.327 . S
C2770 H2795 0.950 . S
C2771 C2770 1.349 . S
C2771 C2787 1.349 . S
C2772 C2770 1.327 . S
C2772 C2791 1.429 . S
C2772 H2796 0.950 . S
C2773 C2790 1.574 . S
C2773 C2792 1.368 . S
C2773 H2797 0.949 . S
H2774 C2778 0.949 . S
C2775 C2776 1.349 . S
C2775 C2777 1.327 . S
C2775 H2798 0.950 . S
C2776 C2775 1.349 . S
C2776 C2788 1.349 . S
C2777 C2775 1.327 . S
C2777 C2793 1.429 . S
C2777 H2799 0.950 . S
C2778 H2774 0.949 . S
C2778 C2786 1.574 . S
C2778 C2794 1.368 . S
H2779 C2787 0.950 . S
H2780 C2785 0.950 . S
H2781 C2786 0.949 . S
H2782 C2788 0.950 . S
H2783 C2789 0.950 . S
H2784 C2790 0.949 . S
C2785 H2780 0.950 . S
C2785 C2787 1.327 . S
C2785 C2791 1.429 . S
C2786 C2778 1.574 . S
C2786 H2781 0.949 . S
C2786 C2792 1.368 . S
C2787 C2771 1.349 . S
C2787 H2779 0.950 . S
C2787 C2785 1.327 . S
C2788 C2776 1.349 . S
C2788 H2782 0.950 . S
C2788 C2789 1.327 . S
C2789 H2783 0.950 . S
C2789 C2788 1.327 . S
C2789 C2793 1.429 . S
C2790 C2773 1.574 . S
C2790 H2784 0.949 . S
C2790 C2794 1.368 . S
C2791 C2772 1.429 . S
C2791 C2785 1.429 . S
C2791 C2792 1.523 . S
C2792 C2773 1.368 . S
C2792 C2786 1.368 . S
C2792 C2791 1.523 . S
C2793 C2777 1.429 . S
C2793 C2789 1.429 . S
C2793 C2794 1.523 . S
C2794 C2778 1.368 . S
C2794 C2790 1.368 . S
C2794 C2793 1.523 . S
H2795 C2770 0.950 . S
H2796 C2772 0.950 . S
H2797 C2773 0.949 . S
H2798 C2775 0.950 . S
H2799 C2777 0.950 . S
C2800 C2801 1.349 . S
C2800 C2802 1.327 . S
C2800 H2825 0.950 . S
C2801 C2800 1.349 . S
C2801 C2817 1.349 . S
C2802 C2800 1.327 . S
C2802 C2821 1.429 . S
C2802 H2826 0.950 . S
C2803 C2820 1.574 . S
C2803 C2822 1.368 . S
C2803 H2827 0.949 . S
H2804 C2808 0.949 . S
C2805 C2806 1.349 . S
C2805 C2807 1.327 . S
C2805 H2828 0.950 . S
C2806 C2805 1.349 . S
C2806 C2818 1.349 . S
C2807 C2805 1.327 . S
C2807 C2823 1.429 . S
C2807 H2829 0.950 . S
C2808 H2804 0.949 . S
C2808 C2816 1.574 . S
C2808 C2824 1.368 . S
H2809 C2817 0.950 . S
H2810 C2815 0.950 . S
H2811 C2816 0.949 . S
H2812 C2818 0.950 . S
H2813 C2819 0.950 . S
H2814 C2820 0.949 . S
C2815 H2810 0.950 . S
C2815 C2817 1.327 . S
C2815 C2821 1.429 . S
C2816 C2808 1.574 . S
C2816 H2811 0.949 . S
C2816 C2822 1.368 . S
C2817 C2801 1.349 . S
C2817 H2809 0.950 . S
C2817 C2815 1.327 . S
C2818 C2806 1.349 . S
C2818 H2812 0.950 . S
C2818 C2819 1.327 . S
C2819 H2813 0.950 . S
C2819 C2818 1.327 . S
C2819 C2823 1.429 . S
C2820 C2803 1.574 . S
C2820 H2814 0.949 . S
C2820 C2824 1.368 . S
C2821 C2802 1.429 . S
C2821 C2815 1.429 . S
C2821 C2822 1.523 . S
C2822 C2803 1.368 . S
C2822 C2816 1.368 . S
C2822 C2821 1.523 . S
C2823 C2807 1.429 . S
C2823 C2819 1.429 . S
C2823 C2824 1.523 . S
C2824 C2808 1.368 . S
C2824 C2820 1.368 . S
C2824 C2823 1.523 . S
H2825 C2800 0.950 . S
H2826 C2802 0.950 . S
H2827 C2803 0.949 . S
H2828 C2805 0.950 . S
H2829 C2807 0.950 . S
C2830 C2831 1.349 . S
C2830 C2832 1.327 . S
C2830 H2855 0.950 . S
C2831 C2830 1.349 . S
C2831 C2847 1.349 . S
C2832 C2830 1.327 . S
C2832 C2851 1.429 . S
C2832 H2856 0.950 . S
C2833 C2850 1.574 . S
C2833 C2852 1.368 . S
C2833 H2857 0.949 . S
H2834 C2838 0.949 . S
C2835 C2836 1.349 . S
C2835 C2837 1.327 . S
C2835 H2858 0.950 . S
C2836 C2835 1.349 . S
C2836 C2848 1.357 . S
C2837 C2835 1.327 . S
C2837 C2853 1.429 . S
C2837 H2859 0.950 . S
C2838 H2834 0.949 . S
C2838 C2846 1.574 . S
C2838 C2854 1.368 . S
H2839 C2847 0.950 . S
H2840 C2845 0.950 . S
H2841 C2846 0.949 . S
H2842 C2848 0.935 1_545 S
H2843 C2849 0.958 . S
H2844 C2850 0.949 . S
C2845 H2840 0.950 . S
C2845 C2847 1.327 . S
C2845 C2851 1.429 . S
C2846 C2838 1.574 . S
C2846 H2841 0.949 . S
C2846 C2852 1.368 . S
C2847 C2831 1.349 . S
C2847 H2839 0.950 . S
C2847 C2845 1.327 . S
C2848 C2836 1.357 . S
C2848 H2842 0.935 1_565 S
C2848 C2849 1.334 . S
C2849 H2843 0.958 . S
C2849 C2848 1.334 . S
C2849 C2853 1.429 . S
C2850 C2833 1.574 . S
C2850 H2844 0.949 . S
C2850 C2854 1.368 . S
C2851 C2832 1.429 . S
C2851 C2845 1.429 . S
C2851 C2852 1.523 . S
C2852 C2833 1.368 . S
C2852 C2846 1.368 . S
C2852 C2851 1.523 . S
C2853 C2837 1.429 . S
C2853 C2849 1.429 . S
C2853 C2854 1.523 . S
C2854 C2838 1.368 . S
C2854 C2850 1.368 . S
C2854 C2853 1.523 . S
H2855 C2830 0.950 . S
H2856 C2832 0.950 . S
H2857 C2833 0.949 . S
H2858 C2835 0.950 . S
H2859 C2837 0.950 . S
C2860 C2861 1.349 . S
C2860 C2862 1.327 . S
C2860 H2885 0.950 . S
C2861 C2860 1.349 . S
C2861 C2877 1.349 . S
C2862 C2860 1.327 . S
C2862 C2881 1.429 . S
C2862 H2886 0.950 . S
C2863 C2880 1.574 . S
C2863 C2882 1.368 . S
C2863 H2887 0.949 . S
H2864 C2868 0.949 . S
C2865 C2866 1.349 . S
C2865 C2867 1.327 . S
C2865 H2888 0.950 . S
C2866 C2865 1.349 . S
C2866 C2878 1.349 . S
C2867 C2865 1.327 . S
C2867 C2883 1.429 . S
C2867 H2889 0.950 . S
C2868 H2864 0.949 . S
C2868 C2876 1.574 . S
C2868 C2884 1.368 . S
H2869 C2877 0.950 . S
H2870 C2875 0.950 . S
H2871 C2876 0.949 . S
H2872 C2878 0.950 . S
H2873 C2879 0.950 . S
H2874 C2880 0.949 . S
C2875 H2870 0.950 . S
C2875 C2877 1.327 . S
C2875 C2881 1.429 . S
C2876 C2868 1.574 . S
C2876 H2871 0.949 . S
C2876 C2882 1.368 . S
C2877 C2861 1.349 . S
C2877 H2869 0.950 . S
C2877 C2875 1.327 . S
C2878 C2866 1.349 . S
C2878 H2872 0.950 . S
C2878 C2879 1.327 . S
C2879 H2873 0.950 . S
C2879 C2878 1.327 . S
C2879 C2883 1.429 . S
C2880 C2863 1.574 . S
C2880 H2874 0.949 . S
C2880 C2884 1.368 . S
C2881 C2862 1.429 . S
C2881 C2875 1.429 . S
C2881 C2882 1.523 . S
C2882 C2863 1.368 . S
C2882 C2876 1.368 . S
C2882 C2881 1.523 . S
C2883 C2867 1.429 . S
C2883 C2879 1.429 . S
C2883 C2884 1.523 . S
C2884 C2868 1.368 . S
C2884 C2880 1.368 . S
C2884 C2883 1.523 . S
H2885 C2860 0.950 . S
H2886 C2862 0.950 . S
H2887 C2863 0.949 . S
H2888 C2865 0.950 . S
H2889 C2867 0.950 . S
C2890 C2891 1.349 . S
C2890 C2892 1.327 . S
C2890 H2915 0.950 . S
C2891 C2890 1.349 . S
C2891 C2907 1.349 . S
C2892 C2890 1.327 . S
C2892 C2911 1.429 . S
C2892 H2916 0.950 . S
C2893 C2910 1.574 . S
C2893 C2912 1.368 . S
C2893 H2917 0.949 . S
H2894 C2898 0.949 . S
C2895 C2896 1.349 . S
C2895 C2897 1.327 . S
C2895 H2918 0.950 . S
C2896 C2895 1.349 . S
C2896 C2908 1.349 . S
C2897 C2895 1.327 . S
C2897 C2913 1.429 . S
C2897 H2919 0.950 . S
C2898 H2894 0.949 . S
C2898 C2906 1.574 . S
C2898 C2914 1.368 . S
H2899 C2907 0.923 1_556 S
H2900 C2905 0.972 . S
H2901 C2906 0.949 . S
H2902 C2908 0.950 . S
H2903 C2909 0.950 . S
H2904 C2910 0.949 . S
C2905 H2900 0.972 . S
C2905 C2907 1.327 . S
C2905 C2911 1.429 . S
C2906 C2898 1.574 . S
C2906 H2901 0.949 . S
C2906 C2912 1.368 . S
C2907 C2891 1.349 . S
C2907 H2899 0.923 1_554 S
C2907 C2905 1.327 . S
C2908 C2896 1.349 . S
C2908 H2902 0.950 . S
C2908 C2909 1.327 . S
C2909 H2903 0.950 . S
C2909 C2908 1.327 . S
C2909 C2913 1.429 . S
C2910 C2893 1.574 . S
C2910 H2904 0.949 . S
C2910 C2914 1.368 . S
C2911 C2892 1.429 . S
C2911 C2905 1.429 . S
C2911 C2912 1.523 . S
C2912 C2893 1.368 . S
C2912 C2906 1.368 . S
C2912 C2911 1.523 . S
C2913 C2897 1.429 . S
C2913 C2909 1.429 . S
C2913 C2914 1.523 . S
C2914 C2898 1.368 . S
C2914 C2910 1.368 . S
C2914 C2913 1.523 . S
H2915 C2890 0.950 . S
H2916 C2892 0.950 . S
H2917 C2893 0.949 . S
H2918 C2895 0.950 . S
H2919 C2897 0.950 . S
C2920 C2921 1.349 . S
C2920 C2922 1.327 . S
C2920 H2945 0.950 . S
C2921 C2920 1.349 . S
C2921 C2937 1.349 . S
C2922 C2920 1.327 . S
C2922 C2941 1.429 . S
C2922 H2946 0.950 . S
C2923 C2940 1.574 . S
C2923 C2942 1.368 . S
C2923 H2947 0.949 . S
H2924 C2928 0.949 . S
C2925 C2926 1.349 . S
C2925 C2927 1.327 . S
C2925 H2948 0.950 . S
C2926 C2925 1.349 . S
C2926 C2938 1.349 . S
C2927 C2925 1.327 . S
C2927 C2943 1.429 . S
C2927 H2949 0.950 . S
C2928 H2924 0.949 . S
C2928 C2936 1.574 . S
C2928 C2944 1.368 . S
H2929 C2937 0.950 . S
H2930 C2935 0.950 . S
H2931 C2936 0.949 . S
H2932 C2938 0.950 . S
H2933 C2939 0.950 . S
H2934 C2940 0.949 . S
C2935 H2930 0.950 . S
C2935 C2937 1.327 . S
C2935 C2941 1.429 . S
C2936 C2928 1.574 . S
C2936 H2931 0.949 . S
C2936 C2942 1.368 . S
C2937 C2921 1.349 . S
C2937 H2929 0.950 . S
C2937 C2935 1.327 . S
C2938 C2926 1.349 . S
C2938 H2932 0.950 . S
C2938 C2939 1.327 . S
C2939 H2933 0.950 . S
C2939 C2938 1.327 . S
C2939 C2943 1.429 . S
C2940 C2923 1.574 . S
C2940 H2934 0.949 . S
C2940 C2944 1.368 . S
C2941 C2922 1.429 . S
C2941 C2935 1.429 . S
C2941 C2942 1.523 . S
C2942 C2923 1.368 . S
C2942 C2936 1.368 . S
C2942 C2941 1.523 . S
C2943 C2927 1.429 . S
C2943 C2939 1.429 . S
C2943 C2944 1.523 . S
C2944 C2928 1.368 . S
C2944 C2940 1.368 . S
C2944 C2943 1.523 . S
H2945 C2920 0.950 . S
H2946 C2922 0.950 . S
H2947 C2923 0.949 . S
H2948 C2925 0.950 . S
H2949 C2927 0.950 . S
C2950 C2951 1.349 . S
C2950 C2952 1.327 . S
C2950 H2975 0.950 . S
C2951 C2950 1.349 . S
C2951 C2967 1.349 . S
C2952 C2950 1.327 . S
C2952 C2971 1.429 . S
C2952 H2976 0.950 . S
C2953 C2970 1.574 . S
C2953 C2972 1.368 . S
C2953 H2977 0.949 . S
H2954 C2958 0.949 . S
C2955 C2956 1.330 1_556 S
C2955 C2957 1.322 1_556 S
C2955 H2978 0.975 . S
C2956 C2955 1.330 1_554 S
C2956 C2968 1.349 . S
C2957 C2955 1.322 1_554 S
C2957 C2973 1.429 . S
C2957 H2979 0.950 1_554 S
C2958 H2954 0.949 . S
C2958 C2966 1.574 . S
C2958 C2974 1.368 . S
H2959 C2967 0.950 . S
H2960 C2965 0.950 . S
H2961 C2966 0.949 . S
H2962 C2968 0.950 . S
H2963 C2969 0.950 . S
H2964 C2970 0.949 1_556 S
C2965 H2960 0.950 . S
C2965 C2967 1.327 . S
C2965 C2971 1.429 . S
C2966 C2958 1.574 . S
C2966 H2961 0.949 . S
C2966 C2972 1.368 . S
C2967 C2951 1.349 . S
C2967 H2959 0.950 . S
C2967 C2965 1.327 . S
C2968 C2956 1.349 . S
C2968 H2962 0.950 . S
C2968 C2969 1.327 . S
C2969 H2963 0.950 . S
C2969 C2968 1.327 . S
C2969 C2973 1.429 . S
C2970 C2953 1.574 . S
C2970 H2964 0.949 1_554 S
C2970 C2974 1.368 . S
C2971 C2952 1.429 . S
C2971 C2965 1.429 . S
C2971 C2972 1.523 . S
C2972 C2953 1.368 . S
C2972 C2966 1.368 . S
C2972 C2971 1.523 . S
C2973 C2957 1.429 . S
C2973 C2969 1.429 . S
C2973 C2974 1.523 . S
C2974 C2958 1.368 . S
C2974 C2970 1.368 . S
C2974 C2973 1.523 . S
H2975 C2950 0.950 . S
H2976 C2952 0.950 . S
H2977 C2953 0.949 . S
H2978 C2955 0.975 . S
H2979 C2957 0.950 1_556 S
C2980 C2981 1.349 . S
C2980 C2982 1.327 . S
C2980 H3005 0.950 . S
C2981 C2980 1.349 . S
C2981 C2997 1.349 . S
C2982 C2980 1.327 . S
C2982 C3001 1.429 . S
C2982 H3006 0.950 . S
C2983 C3000 1.574 . S
C2983 C3002 1.368 . S
C2983 H3007 0.949 . S
H2984 C2988 0.949 . S
C2985 C2986 1.349 . S
C2985 C2987 1.327 . S
C2985 H3008 0.950 . S
C2986 C2985 1.349 . S
C2986 C2998 1.349 . S
C2987 C2985 1.327 . S
C2987 C3003 1.429 . S
C2987 H3009 0.950 . S
C2988 H2984 0.949 . S
C2988 C2996 1.574 . S
C2988 C3004 1.368 . S
H2989 C2997 0.950 . S
H2990 C2995 0.950 . S
H2991 C2996 0.949 . S
H2992 C2998 0.950 . S
H2993 C2999 0.950 . S
H2994 C3000 0.949 . S
C2995 H2990 0.950 . S
C2995 C2997 1.327 . S
C2995 C3001 1.429 . S
C2996 C2988 1.574 . S
C2996 H2991 0.949 . S
C2996 C3002 1.368 . S
C2997 C2981 1.349 . S
C2997 H2989 0.950 . S
C2997 C2995 1.327 . S
C2998 C2986 1.349 . S
C2998 H2992 0.950 . S
C2998 C2999 1.327 . S
C2999 H2993 0.950 . S
C2999 C2998 1.327 . S
C2999 C3003 1.429 . S
C3000 C2983 1.574 . S
C3000 H2994 0.949 . S
C3000 C3004 1.368 . S
C3001 C2982 1.429 . S
C3001 C2995 1.429 . S
C3001 C3002 1.523 . S
C3002 C2983 1.368 . S
C3002 C2996 1.368 . S
C3002 C3001 1.523 . S
C3003 C2987 1.429 . S
C3003 C2999 1.429 . S
C3003 C3004 1.523 . S
C3004 C2988 1.368 . S
C3004 C3000 1.368 . S
C3004 C3003 1.523 . S
H3005 C2980 0.950 . S
H3006 C2982 0.950 . S
H3007 C2983 0.949 . S
H3008 C2985 0.950 . S
H3009 C2987 0.950 . S
C3010 C3011 1.349 . S
C3010 C3012 1.327 . S
C3010 H3035 0.950 . S
C3011 C3010 1.349 . S
C3011 C3027 1.349 . S
C3012 C3010 1.327 . S
C3012 C3031 1.429 . S
C3012 H3036 0.950 . S
C3013 C3030 1.574 . S
C3013 C3032 1.368 . S
C3013 H3037 0.949 . S
H3014 C3018 0.949 . S
C3015 C3016 1.349 . S
C3015 C3017 1.327 . S
C3015 H3038 0.950 . S
C3016 C3015 1.349 . S
C3016 C3028 1.349 . S
C3017 C3015 1.327 . S
C3017 C3033 1.429 . S
C3017 H3039 0.950 . S
C3018 H3014 0.949 . S
C3018 C3026 1.574 . S
C3018 C3034 1.368 . S
H3019 C3027 0.950 . S
H3020 C3025 0.950 . S
H3021 C3026 0.949 . S
H3022 C3028 0.950 . S
H3023 C3029 0.950 . S
H3024 C3030 0.949 . S
C3025 H3020 0.950 . S
C3025 C3027 1.327 . S
C3025 C3031 1.429 . S
C3026 C3018 1.574 . S
C3026 H3021 0.949 . S
C3026 C3032 1.368 . S
C3027 C3011 1.349 . S
C3027 H3019 0.950 . S
C3027 C3025 1.327 . S
C3028 C3016 1.349 . S
C3028 H3022 0.950 . S
C3028 C3029 1.327 . S
C3029 H3023 0.950 . S
C3029 C3028 1.327 . S
C3029 C3033 1.429 . S
C3030 C3013 1.574 . S
C3030 H3024 0.949 . S
C3030 C3034 1.368 . S
C3031 C3012 1.429 . S
C3031 C3025 1.429 . S
C3031 C3032 1.523 . S
C3032 C3013 1.368 . S
C3032 C3026 1.368 . S
C3032 C3031 1.523 . S
C3033 C3017 1.429 . S
C3033 C3029 1.429 . S
C3033 C3034 1.523 . S
C3034 C3018 1.368 . S
C3034 C3030 1.368 . S
C3034 C3033 1.523 . S
H3035 C3010 0.950 . S
H3036 C3012 0.950 . S
H3037 C3013 0.949 . S
H3038 C3015 0.950 . S
H3039 C3017 0.950 . S
C3040 C3041 1.349 . S
C3040 C3042 1.327 . S
C3040 H3065 0.950 . S
C3041 C3040 1.349 . S
C3041 C3057 1.349 . S
C3042 C3040 1.327 . S
C3042 C3061 1.429 . S
C3042 H3066 0.950 . S
C3043 C3060 1.574 . S
C3043 C3062 1.368 . S
C3043 H3067 0.949 . S
H3044 C3048 0.949 . S
C3045 C3046 1.349 . S
C3045 C3047 1.327 . S
C3045 H3068 0.950 . S
C3046 C3045 1.349 . S
C3046 C3058 1.349 . S
C3047 C3045 1.327 . S
C3047 C3063 1.429 . S
C3047 H3069 0.950 . S
C3048 H3044 0.949 . S
C3048 C3056 1.574 . S
C3048 C3064 1.368 . S
H3049 C3057 0.950 . S
H3050 C3055 0.950 . S
H3051 C3056 0.949 . S
H3052 C3058 0.950 . S
H3053 C3059 0.950 . S
H3054 C3060 0.949 . S
C3055 H3050 0.950 . S
C3055 C3057 1.327 . S
C3055 C3061 1.429 . S
C3056 C3048 1.574 . S
C3056 H3051 0.949 . S
C3056 C3062 1.368 . S
C3057 C3041 1.349 . S
C3057 H3049 0.950 . S
C3057 C3055 1.327 . S
C3058 C3046 1.349 . S
C3058 H3052 0.950 . S
C3058 C3059 1.327 . S
C3059 H3053 0.950 . S
C3059 C3058 1.327 . S
C3059 C3063 1.429 . S
C3060 C3043 1.574 . S
C3060 H3054 0.949 . S
C3060 C3064 1.368 . S
C3061 C3042 1.429 . S
C3061 C3055 1.429 . S
C3061 C3062 1.523 . S
C3062 C3043 1.368 . S
C3062 C3056 1.368 . S
C3062 C3061 1.523 . S
C3063 C3047 1.429 . S
C3063 C3059 1.429 . S
C3063 C3064 1.523 . S
C3064 C3048 1.368 . S
C3064 C3060 1.368 . S
C3064 C3063 1.523 . S
H3065 C3040 0.950 . S
H3066 C3042 0.950 . S
H3067 C3043 0.949 . S
H3068 C3045 0.950 . S
H3069 C3047 0.950 . S
C3070 C3071 1.349 . S
C3070 C3072 1.327 . S
C3070 H3095 0.950 . S
C3071 C3070 1.349 . S
C3071 C3087 1.349 . S
C3072 C3070 1.327 . S
C3072 C3091 1.429 . S
C3072 H3096 0.950 . S
C3073 C3090 1.574 . S
C3073 C3092 1.368 . S
C3073 H3097 0.949 . S
H3074 C3078 0.949 . S
C3075 C3076 1.349 . S
C3075 C3077 1.327 . S
C3075 H3098 0.950 . S
C3076 C3075 1.349 . S
C3076 C3088 1.349 . S
C3077 C3075 1.327 . S
C3077 C3093 1.429 . S
C3077 H3099 0.950 . S
C3078 H3074 0.949 . S
C3078 C3086 1.574 . S
C3078 C3094 1.368 . S
H3079 C3087 0.950 . S
H3080 C3085 0.950 . S
H3081 C3086 0.949 . S
H3082 C3088 0.950 . S
H3083 C3089 0.950 . S
H3084 C3090 0.949 . S
C3085 H3080 0.950 . S
C3085 C3087 1.327 . S
C3085 C3091 1.429 . S
C3086 C3078 1.574 . S
C3086 H3081 0.949 . S
C3086 C3092 1.368 . S
C3087 C3071 1.349 . S
C3087 H3079 0.950 . S
C3087 C3085 1.327 . S
C3088 C3076 1.349 . S
C3088 H3082 0.950 . S
C3088 C3089 1.327 . S
C3089 H3083 0.950 . S
C3089 C3088 1.327 . S
C3089 C3093 1.429 . S
C3090 C3073 1.574 . S
C3090 H3084 0.949 . S
C3090 C3094 1.368 . S
C3091 C3072 1.429 . S
C3091 C3085 1.429 . S
C3091 C3092 1.523 . S
C3092 C3073 1.368 . S
C3092 C3086 1.368 . S
C3092 C3091 1.523 . S
C3093 C3077 1.429 . S
C3093 C3089 1.429 . S
C3093 C3094 1.523 . S
C3094 C3078 1.368 . S
C3094 C3090 1.368 . S
C3094 C3093 1.523 . S
H3095 C3070 0.950 . S
H3096 C3072 0.950 . S
H3097 C3073 0.949 . S
H3098 C3075 0.950 . S
H3099 C3077 0.950 . S
C3100 C3101 1.353 . S
C3100 C3102 1.327 . S
C3100 H3125 0.950 . S
C3101 C3100 1.353 . S
C3101 C3117 1.345 1_455 S
C3102 C3100 1.327 . S
C3102 C3121 1.410 1_455 S
C3102 H3126 0.950 . S
C3103 C3120 1.574 . S
C3103 C3122 1.368 . S
C3103 H3127 0.949 . S
H3104 C3108 0.949 . S
C3105 C3106 1.349 . S
C3105 C3107 1.327 . S
C3105 H3128 0.951 1_556 S
C3106 C3105 1.349 . S
C3106 C3118 1.349 1_655 S
C3107 C3105 1.327 . S
C3107 C3123 1.429 . S
C3107 H3129 0.950 . S
C3108 H3104 0.949 . S
C3108 C3116 1.574 . S
C3108 C3124 1.368 1_455 S
H3109 C3117 0.950 . S
H3110 C3115 0.950 . S
H3111 C3116 0.949 . S
H3112 C3118 0.950 . S
H3113 C3119 0.950 . S
H3114 C3120 0.949 . S
C3115 H3110 0.950 . S
C3115 C3117 1.327 . S
C3115 C3121 1.447 . S
C3116 C3108 1.574 . S
C3116 H3111 0.949 . S
C3116 C3122 1.368 1_455 S
C3117 C3101 1.345 1_655 S
C3117 H3109 0.950 . S
C3117 C3115 1.327 . S
C3118 C3106 1.349 1_455 S
C3118 H3112 0.950 . S
C3118 C3119 1.327 . S
C3119 H3113 0.950 . S
C3119 C3118 1.327 . S
C3119 C3123 1.429 1_455 S
C3120 C3103 1.574 . S
C3120 H3114 0.949 . S
C3120 C3124 1.368 . S
C3121 C3102 1.410 1_655 S
C3121 C3115 1.447 . S
C3121 C3122 1.524 . S
C3122 C3103 1.368 . S
C3122 C3116 1.368 1_655 S
C3122 C3121 1.524 . S
C3123 C3107 1.429 . S
C3123 C3119 1.429 1_655 S
C3123 C3124 1.523 . S
C3124 C3108 1.368 1_655 S
C3124 C3120 1.368 . S
C3124 C3123 1.523 . S
H3125 C3100 0.950 . S
H3126 C3102 0.950 . S
H3127 C3103 0.949 . S
H3128 C3105 0.951 1_554 S
H3129 C3107 0.950 . S
C3130 C3131 1.349 . S
C3130 C3132 1.327 . S
C3130 H3155 0.950 . S
C3131 C3130 1.349 . S
C3131 C3147 1.349 . S
C3132 C3130 1.327 . S
C3132 C3151 1.429 . S
C3132 H3156 0.950 . S
C3133 C3150 1.574 . S
C3133 C3152 1.368 . S
C3133 H3157 0.949 . S
H3134 C3138 0.949 . S
C3135 C3136 1.349 . S
C3135 C3137 1.327 . S
C3135 H3158 0.950 . S
C3136 C3135 1.349 . S
C3136 C3148 1.349 . S
C3137 C3135 1.327 . S
C3137 C3153 1.429 . S
C3137 H3159 0.950 . S
C3138 H3134 0.949 . S
C3138 C3146 1.574 . S
C3138 C3154 1.368 . S
H3139 C3147 0.950 . S
H3140 C3145 0.950 . S
H3141 C3146 0.949 . S
H3142 C3148 0.950 . S
H3143 C3149 0.950 . S
H3144 C3150 0.949 . S
C3145 H3140 0.950 . S
C3145 C3147 1.327 . S
C3145 C3151 1.429 . S
C3146 C3138 1.574 . S
C3146 H3141 0.949 . S
C3146 C3152 1.368 . S
C3147 C3131 1.349 . S
C3147 H3139 0.950 . S
C3147 C3145 1.327 . S
C3148 C3136 1.349 . S
C3148 H3142 0.950 . S
C3148 C3149 1.327 . S
C3149 H3143 0.950 . S
C3149 C3148 1.327 . S
C3149 C3153 1.429 . S
C3150 C3133 1.574 . S
C3150 H3144 0.949 . S
C3150 C3154 1.368 . S
C3151 C3132 1.429 . S
C3151 C3145 1.429 . S
C3151 C3152 1.523 . S
C3152 C3133 1.368 . S
C3152 C3146 1.368 . S
C3152 C3151 1.523 . S
C3153 C3137 1.429 . S
C3153 C3149 1.429 . S
C3153 C3154 1.523 . S
C3154 C3138 1.368 . S
C3154 C3150 1.368 . S
C3154 C3153 1.523 . S
H3155 C3130 0.950 . S
H3156 C3132 0.950 . S
H3157 C3133 0.949 . S
H3158 C3135 0.950 . S
H3159 C3137 0.950 . S
C3160 C3161 1.349 . S
C3160 C3162 1.327 . S
C3160 H3185 0.950 . S
C3161 C3160 1.349 . S
C3161 C3177 1.349 . S
C3162 C3160 1.327 . S
C3162 C3181 1.429 . S
C3162 H3186 0.950 . S
C3163 C3180 1.574 . S
C3163 C3182 1.368 . S
C3163 H3187 0.949 . S
H3164 C3168 0.949 . S
C3165 C3166 1.349 . S
C3165 C3167 1.327 . S
C3165 H3188 0.950 . S
C3166 C3165 1.349 . S
C3166 C3178 1.349 . S
C3167 C3165 1.327 . S
C3167 C3183 1.429 . S
C3167 H3189 0.950 . S
C3168 H3164 0.949 . S
C3168 C3176 1.574 . S
C3168 C3184 1.368 . S
H3169 C3177 0.950 . S
H3170 C3175 0.950 . S
H3171 C3176 0.949 . S
H3172 C3178 0.950 . S
H3173 C3179 0.950 . S
H3174 C3180 0.949 . S
C3175 H3170 0.950 . S
C3175 C3177 1.327 . S
C3175 C3181 1.429 . S
C3176 C3168 1.574 . S
C3176 H3171 0.949 . S
C3176 C3182 1.368 . S
C3177 C3161 1.349 . S
C3177 H3169 0.950 . S
C3177 C3175 1.327 . S
C3178 C3166 1.349 . S
C3178 H3172 0.950 . S
C3178 C3179 1.327 . S
C3179 H3173 0.950 . S
C3179 C3178 1.327 . S
C3179 C3183 1.429 . S
C3180 C3163 1.574 . S
C3180 H3174 0.949 . S
C3180 C3184 1.368 . S
C3181 C3162 1.429 . S
C3181 C3175 1.429 . S
C3181 C3182 1.523 . S
C3182 C3163 1.368 . S
C3182 C3176 1.368 . S
C3182 C3181 1.523 . S
C3183 C3167 1.429 . S
C3183 C3179 1.429 . S
C3183 C3184 1.523 . S
C3184 C3168 1.368 . S
C3184 C3180 1.368 . S
C3184 C3183 1.523 . S
H3185 C3160 0.950 . S
H3186 C3162 0.950 . S
H3187 C3163 0.949 . S
H3188 C3165 0.950 . S
H3189 C3167 0.950 . S
C3190 C3191 1.349 . S
C3190 C3192 1.327 . S
C3190 H3215 0.950 . S
C3191 C3190 1.349 . S
C3191 C3207 1.349 . S
C3192 C3190 1.327 . S
C3192 C3211 1.429 . S
C3192 H3216 0.950 . S
C3193 C3210 1.574 . S
C3193 C3212 1.368 . S
C3193 H3217 0.949 . S
H3194 C3198 0.949 . S
C3195 C3196 1.349 . S
C3195 C3197 1.327 . S
C3195 H3218 0.950 . S
C3196 C3195 1.349 . S
C3196 C3208 1.349 . S
C3197 C3195 1.327 . S
C3197 C3213 1.429 . S
C3197 H3219 0.950 . S
C3198 H3194 0.949 . S
C3198 C3206 1.574 . S
C3198 C3214 1.368 . S
H3199 C3207 0.950 . S
H3200 C3205 0.950 . S
H3201 C3206 0.949 . S
H3202 C3208 0.950 . S
H3203 C3209 0.950 . S
H3204 C3210 0.949 . S
C3205 H3200 0.950 . S
C3205 C3207 1.327 . S
C3205 C3211 1.429 . S
C3206 C3198 1.574 . S
C3206 H3201 0.949 . S
C3206 C3212 1.368 . S
C3207 C3191 1.349 . S
C3207 H3199 0.950 . S
C3207 C3205 1.327 . S
C3208 C3196 1.349 . S
C3208 H3202 0.950 . S
C3208 C3209 1.327 . S
C3209 H3203 0.950 . S
C3209 C3208 1.327 . S
C3209 C3213 1.429 . S
C3210 C3193 1.574 . S
C3210 H3204 0.949 . S
C3210 C3214 1.368 . S
C3211 C3192 1.429 . S
C3211 C3205 1.429 . S
C3211 C3212 1.523 . S
C3212 C3193 1.368 . S
C3212 C3206 1.368 . S
C3212 C3211 1.523 . S
C3213 C3197 1.429 . S
C3213 C3209 1.429 . S
C3213 C3214 1.523 . S
C3214 C3198 1.368 . S
C3214 C3210 1.368 . S
C3214 C3213 1.523 . S
H3215 C3190 0.950 . S
H3216 C3192 0.950 . S
H3217 C3193 0.949 . S
H3218 C3195 0.950 . S
H3219 C3197 0.950 . S
C3220 C3221 1.349 . S
C3220 C3222 1.327 . S
C3220 H3245 0.950 . S
C3221 C3220 1.349 . S
C3221 C3237 1.349 . S
C3222 C3220 1.327 . S
C3222 C3241 1.429 . S
C3222 H3246 0.950 . S
C3223 C3240 1.574 . S
C3223 C3242 1.368 . S
C3223 H3247 0.949 1_455 S
H3224 C3228 0.949 . S
C3225 C3226 1.349 . S
C3225 C3227 1.327 . S
C3225 H3248 0.950 1_455 S
C3226 C3225 1.349 . S
C3226 C3238 1.349 . S
C3227 C3225 1.327 . S
C3227 C3243 1.429 . S
C3227 H3249 0.950 1_455 S
C3228 H3224 0.949 . S
C3228 C3236 1.574 . S
C3228 C3244 1.368 . S
H3229 C3237 0.914 1_655 S
H3230 C3235 0.950 1_655 S
H3231 C3236 0.949 . S
H3232 C3238 0.950 . S
H3233 C3239 0.950 . S
H3234 C3240 0.949 1_655 S
C3235 H3230 0.950 1_455 S
C3235 C3237 1.327 . S
C3235 C3241 1.429 . S
C3236 C3228 1.574 . S
C3236 H3231 0.949 . S
C3236 C3242 1.368 . S
C3237 C3221 1.349 . S
C3237 H3229 0.914 1_455 S
C3237 C3235 1.327 . S
C3238 C3226 1.349 . S
C3238 H3232 0.950 . S
C3238 C3239 1.327 . S
C3239 H3233 0.950 . S
C3239 C3238 1.327 . S
C3239 C3243 1.429 . S
C3240 C3223 1.574 . S
C3240 H3234 0.949 1_455 S
C3240 C3244 1.368 . S
C3241 C3222 1.429 . S
C3241 C3235 1.429 . S
C3241 C3242 1.523 . S
C3242 C3223 1.368 . S
C3242 C3236 1.368 . S
C3242 C3241 1.523 . S
C3243 C3227 1.429 . S
C3243 C3239 1.429 . S
C3243 C3244 1.523 . S
C3244 C3228 1.368 . S
C3244 C3240 1.368 . S
C3244 C3243 1.523 . S
H3245 C3220 0.950 . S
H3246 C3222 0.950 . S
H3247 C3223 0.949 1_655 S
H3248 C3225 0.950 1_655 S
H3249 C3227 0.950 1_655 S
C3250 C3251 1.349 . S
C3250 C3252 1.327 . S
C3250 H3275 0.950 . S
C3251 C3250 1.349 . S
C3251 C3267 1.349 . S
C3252 C3250 1.327 . S
C3252 C3271 1.429 . S
C3252 H3276 0.950 . S
C3253 C3270 1.574 . S
C3253 C3272 1.368 . S
C3253 H3277 0.949 . S
H3254 C3258 0.949 . S
C3255 C3256 1.349 . S
C3255 C3257 1.327 . S
C3255 H3278 0.950 . S
C3256 C3255 1.349 . S
C3256 C3268 1.349 . S
C3257 C3255 1.327 . S
C3257 C3273 1.429 . S
C3257 H3279 0.950 . S
C3258 H3254 0.949 . S
C3258 C3266 1.574 . S
C3258 C3274 1.368 . S
H3259 C3267 0.950 . S
H3260 C3265 0.950 . S
H3261 C3266 0.949 . S
H3262 C3268 0.950 . S
H3263 C3269 0.950 . S
H3264 C3270 0.949 . S
C3265 H3260 0.950 . S
C3265 C3267 1.327 . S
C3265 C3271 1.429 . S
C3266 C3258 1.574 . S
C3266 H3261 0.949 . S
C3266 C3272 1.368 . S
C3267 C3251 1.349 . S
C3267 H3259 0.950 . S
C3267 C3265 1.327 . S
C3268 C3256 1.349 . S
C3268 H3262 0.950 . S
C3268 C3269 1.327 . S
C3269 H3263 0.950 . S
C3269 C3268 1.327 . S
C3269 C3273 1.429 . S
C3270 C3253 1.574 . S
C3270 H3264 0.949 . S
C3270 C3274 1.368 . S
C3271 C3252 1.429 . S
C3271 C3265 1.429 . S
C3271 C3272 1.523 . S
C3272 C3253 1.368 . S
C3272 C3266 1.368 . S
C3272 C3271 1.523 . S
C3273 C3257 1.429 . S
C3273 C3269 1.429 . S
C3273 C3274 1.523 . S
C3274 C3258 1.368 . S
C3274 C3270 1.368 . S
C3274 C3273 1.523 . S
H3275 C3250 0.950 . S
H3276 C3252 0.950 . S
H3277 C3253 0.949 . S
H3278 C3255 0.950 . S
H3279 C3257 0.950 . S
C3280 C3281 1.349 . S
C3280 C3282 1.327 . S
C3280 H3305 0.950 . S
C3281 C3280 1.349 . S
C3281 C3297 1.349 . S
C3282 C3280 1.327 . S
C3282 C3301 1.429 . S
C3282 H3306 0.950 . S
C3283 C3300 1.574 . S
C3283 C3302 1.368 . S
C3283 H3307 0.949 . S
H3284 C3288 0.949 . S
C3285 C3286 1.349 . S
C3285 C3287 1.327 . S
C3285 H3308 0.950 . S
C3286 C3285 1.349 . S
C3286 C3298 1.349 . S
C3287 C3285 1.327 . S
C3287 C3303 1.429 . S
C3287 H3309 0.950 . S
C3288 H3284 0.949 . S
C3288 C3296 1.574 . S
C3288 C3304 1.368 . S
H3289 C3297 0.950 . S
H3290 C3295 0.950 . S
H3291 C3296 0.949 . S
H3292 C3298 0.950 . S
H3293 C3299 0.950 . S
H3294 C3300 0.949 . S
C3295 H3290 0.950 . S
C3295 C3297 1.327 . S
C3295 C3301 1.429 . S
C3296 C3288 1.574 . S
C3296 H3291 0.949 . S
C3296 C3302 1.368 . S
C3297 C3281 1.349 . S
C3297 H3289 0.950 . S
C3297 C3295 1.327 . S
C3298 C3286 1.349 . S
C3298 H3292 0.950 . S
C3298 C3299 1.327 . S
C3299 H3293 0.950 . S
C3299 C3298 1.327 . S
C3299 C3303 1.429 . S
C3300 C3283 1.574 . S
C3300 H3294 0.949 . S
C3300 C3304 1.368 . S
C3301 C3282 1.429 . S
C3301 C3295 1.429 . S
C3301 C3302 1.523 . S
C3302 C3283 1.368 . S
C3302 C3296 1.368 . S
C3302 C3301 1.523 . S
C3303 C3287 1.429 . S
C3303 C3299 1.429 . S
C3303 C3304 1.523 . S
C3304 C3288 1.368 . S
C3304 C3300 1.368 . S
C3304 C3303 1.523 . S
H3305 C3280 0.950 . S
H3306 C3282 0.950 . S
H3307 C3283 0.949 . S
H3308 C3285 0.950 . S
H3309 C3287 0.950 . S
C3310 C3311 1.349 . S
C3310 C3312 1.327 . S
C3310 H3335 0.950 . S
C3311 C3310 1.349 . S
C3311 C3327 1.349 . S
C3312 C3310 1.327 . S
C3312 C3331 1.429 . S
C3312 H3336 0.950 . S
C3313 C3330 1.574 . S
C3313 C3332 1.368 . S
C3313 H3337 0.949 . S
H3314 C3318 0.949 . S
C3315 C3316 1.349 . S
C3315 C3317 1.327 . S
C3315 H3338 0.950 . S
C3316 C3315 1.349 . S
C3316 C3328 1.349 . S
C3317 C3315 1.327 . S
C3317 C3333 1.429 . S
C3317 H3339 0.950 . S
C3318 H3314 0.949 . S
C3318 C3326 1.574 . S
C3318 C3334 1.368 . S
H3319 C3327 0.950 . S
H3320 C3325 0.950 . S
H3321 C3326 0.949 . S
H3322 C3328 0.950 . S
H3323 C3329 0.950 . S
H3324 C3330 0.949 . S
C3325 H3320 0.950 . S
C3325 C3327 1.327 . S
C3325 C3331 1.429 . S
C3326 C3318 1.574 . S
C3326 H3321 0.949 . S
C3326 C3332 1.368 . S
C3327 C3311 1.349 . S
C3327 H3319 0.950 . S
C3327 C3325 1.327 . S
C3328 C3316 1.349 . S
C3328 H3322 0.950 . S
C3328 C3329 1.327 . S
C3329 H3323 0.950 . S
C3329 C3328 1.327 . S
C3329 C3333 1.429 . S
C3330 C3313 1.574 . S
C3330 H3324 0.949 . S
C3330 C3334 1.368 . S
C3331 C3312 1.429 . S
C3331 C3325 1.429 . S
C3331 C3332 1.523 . S
C3332 C3313 1.368 . S
C3332 C3326 1.368 . S
C3332 C3331 1.523 . S
C3333 C3317 1.429 . S
C3333 C3329 1.429 . S
C3333 C3334 1.523 . S
C3334 C3318 1.368 . S
C3334 C3330 1.368 . S
C3334 C3333 1.523 . S
H3335 C3310 0.950 . S
H3336 C3312 0.950 . S
H3337 C3313 0.949 . S
H3338 C3315 0.950 . S
H3339 C3317 0.950 . S
C3340 C3341 1.349 . S
C3340 C3342 1.327 . S
C3340 H3365 0.950 . S
C3341 C3340 1.349 . S
C3341 C3357 1.349 . S
C3342 C3340 1.327 . S
C3342 C3361 1.429 . S
C3342 H3366 0.950 . S
C3343 C3360 1.574 . S
C3343 C3362 1.368 . S
C3343 H3367 0.949 . S
H3344 C3348 0.949 . S
C3345 C3346 1.349 . S
C3345 C3347 1.327 . S
C3345 H3368 0.950 . S
C3346 C3345 1.349 . S
C3346 C3358 1.349 . S
C3347 C3345 1.327 . S
C3347 C3363 1.429 . S
C3347 H3369 0.950 . S
C3348 H3344 0.949 . S
C3348 C3356 1.574 . S
C3348 C3364 1.368 . S
H3349 C3357 0.950 . S
H3350 C3355 0.950 . S
H3351 C3356 0.949 . S
H3352 C3358 0.950 . S
H3353 C3359 0.950 . S
H3354 C3360 0.949 . S
C3355 H3350 0.950 . S
C3355 C3357 1.327 . S
C3355 C3361 1.429 . S
C3356 C3348 1.574 . S
C3356 H3351 0.949 . S
C3356 C3362 1.368 . S
C3357 C3341 1.349 . S
C3357 H3349 0.950 . S
C3357 C3355 1.327 . S
C3358 C3346 1.349 . S
C3358 H3352 0.950 . S
C3358 C3359 1.327 . S
C3359 H3353 0.950 . S
C3359 C3358 1.327 . S
C3359 C3363 1.429 . S
C3360 C3343 1.574 . S
C3360 H3354 0.949 . S
C3360 C3364 1.368 . S
C3361 C3342 1.429 . S
C3361 C3355 1.429 . S
C3361 C3362 1.523 . S
C3362 C3343 1.368 . S
C3362 C3356 1.368 . S
C3362 C3361 1.523 . S
C3363 C3347 1.429 . S
C3363 C3359 1.429 . S
C3363 C3364 1.523 . S
C3364 C3348 1.368 . S
C3364 C3360 1.368 . S
C3364 C3363 1.523 . S
H3365 C3340 0.950 . S
H3366 C3342 0.950 . S
H3367 C3343 0.949 . S
H3368 C3345 0.950 . S
H3369 C3347 0.950 . S
C3370 C3371 1.349 . S
C3370 C3372 1.327 . S
C3370 H3395 0.950 . S
C3371 C3370 1.349 . S
C3371 C3387 1.349 . S
C3372 C3370 1.327 . S
C3372 C3391 1.429 . S
C3372 H3396 0.950 . S
C3373 C3390 1.574 . S
C3373 C3392 1.368 . S
C3373 H3397 0.949 . S
H3374 C3378 0.949 . S
C3375 C3376 1.349 . S
C3375 C3377 1.327 . S
C3375 H3398 0.950 . S
C3376 C3375 1.349 . S
C3376 C3388 1.349 . S
C3377 C3375 1.327 . S
C3377 C3393 1.429 . S
C3377 H3399 0.950 . S
C3378 H3374 0.949 . S
C3378 C3386 1.574 . S
C3378 C3394 1.368 . S
H3379 C3387 0.950 . S
H3380 C3385 0.950 . S
H3381 C3386 0.949 . S
H3382 C3388 0.950 . S
H3383 C3389 0.950 . S
H3384 C3390 0.949 . S
C3385 H3380 0.950 . S
C3385 C3387 1.327 . S
C3385 C3391 1.429 . S
C3386 C3378 1.574 . S
C3386 H3381 0.949 . S
C3386 C3392 1.368 . S
C3387 C3371 1.349 . S
C3387 H3379 0.950 . S
C3387 C3385 1.327 . S
C3388 C3376 1.349 . S
C3388 H3382 0.950 . S
C3388 C3389 1.327 . S
C3389 H3383 0.950 . S
C3389 C3388 1.327 . S
C3389 C3393 1.429 . S
C3390 C3373 1.574 . S
C3390 H3384 0.949 . S
C3390 C3394 1.368 . S
C3391 C3372 1.429 . S
C3391 C3385 1.429 . S
C3391 C3392 1.523 . S
C3392 C3373 1.368 . S
C3392 C3386 1.368 . S
C3392 C3391 1.523 . S
C3393 C3377 1.429 . S
C3393 C3389 1.429 . S
C3393 C3394 1.523 . S
C3394 C3378 1.368 . S
C3394 C3390 1.368 . S
C3394 C3393 1.523 . S
H3395 C3370 0.950 . S
H3396 C3372 0.950 . S
H3397 C3373 0.949 . S
H3398 C3375 0.950 . S
H3399 C3377 0.950 . S
C3400 C3401 1.349 . S
C3400 C3402 1.327 . S
C3400 H3425 0.950 . S
C3401 C3400 1.349 . S
C3401 C3417 1.349 . S
C3402 C3400 1.327 . S
C3402 C3421 1.429 . S
C3402 H3426 0.950 . S
C3403 C3420 1.574 . S
C3403 C3422 1.368 . S
C3403 H3427 0.949 . S
H3404 C3408 0.949 . S
C3405 C3406 1.349 . S
C3405 C3407 1.327 . S
C3405 H3428 0.950 . S
C3406 C3405 1.349 . S
C3406 C3418 1.349 . S
C3407 C3405 1.327 . S
C3407 C3423 1.429 . S
C3407 H3429 0.950 . S
C3408 H3404 0.949 . S
C3408 C3416 1.574 . S
C3408 C3424 1.368 . S
H3409 C3417 0.950 . S
H3410 C3415 0.950 . S
H3411 C3416 0.949 . S
H3412 C3418 0.950 . S
H3413 C3419 0.950 . S
H3414 C3420 0.949 . S
C3415 H3410 0.950 . S
C3415 C3417 1.327 . S
C3415 C3421 1.429 . S
C3416 C3408 1.574 . S
C3416 H3411 0.949 . S
C3416 C3422 1.368 . S
C3417 C3401 1.349 . S
C3417 H3409 0.950 . S
C3417 C3415 1.327 . S
C3418 C3406 1.349 . S
C3418 H3412 0.950 . S
C3418 C3419 1.327 . S
C3419 H3413 0.950 . S
C3419 C3418 1.327 . S
C3419 C3423 1.429 . S
C3420 C3403 1.574 . S
C3420 H3414 0.949 . S
C3420 C3424 1.368 . S
C3421 C3402 1.429 . S
C3421 C3415 1.429 . S
C3421 C3422 1.523 . S
C3422 C3403 1.368 . S
C3422 C3416 1.368 . S
C3422 C3421 1.523 . S
C3423 C3407 1.429 . S
C3423 C3419 1.429 . S
C3423 C3424 1.523 . S
C3424 C3408 1.368 . S
C3424 C3420 1.368 . S
C3424 C3423 1.523 . S
H3425 C3400 0.950 . S
H3426 C3402 0.950 . S
H3427 C3403 0.949 . S
H3428 C3405 0.950 . S
H3429 C3407 0.950 . S
C3430 C3431 1.349 . S
C3430 C3432 1.327 . S
C3430 H3455 0.950 . S
C3431 C3430 1.349 . S
C3431 C3447 1.349 . S
C3432 C3430 1.327 . S
C3432 C3451 1.429 . S
C3432 H3456 0.950 . S
C3433 C3450 1.574 . S
C3433 C3452 1.368 . S
C3433 H3457 0.949 . S
H3434 C3438 0.949 . S
C3435 C3436 1.349 . S
C3435 C3437 1.327 . S
C3435 H3458 0.950 . S
C3436 C3435 1.349 . S
C3436 C3448 1.349 . S
C3437 C3435 1.327 . S
C3437 C3453 1.429 . S
C3437 H3459 0.950 . S
C3438 H3434 0.949 . S
C3438 C3446 1.574 . S
C3438 C3454 1.368 . S
H3439 C3447 0.950 . S
H3440 C3445 0.950 . S
H3441 C3446 0.949 . S
H3442 C3448 0.950 . S
H3443 C3449 0.950 . S
H3444 C3450 0.949 . S
C3445 H3440 0.950 . S
C3445 C3447 1.327 . S
C3445 C3451 1.429 . S
C3446 C3438 1.574 . S
C3446 H3441 0.949 . S
C3446 C3452 1.368 . S
C3447 C3431 1.349 . S
C3447 H3439 0.950 . S
C3447 C3445 1.327 . S
C3448 C3436 1.349 . S
C3448 H3442 0.950 . S
C3448 C3449 1.327 . S
C3449 H3443 0.950 . S
C3449 C3448 1.327 . S
C3449 C3453 1.429 . S
C3450 C3433 1.574 . S
C3450 H3444 0.949 . S
C3450 C3454 1.368 . S
C3451 C3432 1.429 . S
C3451 C3445 1.429 . S
C3451 C3452 1.523 . S
C3452 C3433 1.368 . S
C3452 C3446 1.368 . S
C3452 C3451 1.523 . S
C3453 C3437 1.429 . S
C3453 C3449 1.429 . S
C3453 C3454 1.523 . S
C3454 C3438 1.368 . S
C3454 C3450 1.368 . S
C3454 C3453 1.523 . S
H3455 C3430 0.950 . S
H3456 C3432 0.950 . S
H3457 C3433 0.949 . S
H3458 C3435 0.950 . S
H3459 C3437 0.950 . S
C3460 C3461 1.349 . S
C3460 C3462 1.327 . S
C3460 H3485 0.950 . S
C3461 C3460 1.349 . S
C3461 C3477 1.349 . S
C3462 C3460 1.327 . S
C3462 C3481 1.429 . S
C3462 H3486 0.950 . S
C3463 C3480 1.574 . S
C3463 C3482 1.368 . S
C3463 H3487 0.949 . S
H3464 C3468 0.949 . S
C3465 C3466 1.349 . S
C3465 C3467 1.327 . S
C3465 H3488 0.950 . S
C3466 C3465 1.349 . S
C3466 C3478 1.349 . S
C3467 C3465 1.327 . S
C3467 C3483 1.429 . S
C3467 H3489 0.950 . S
C3468 H3464 0.949 . S
C3468 C3476 1.574 . S
C3468 C3484 1.368 . S
H3469 C3477 0.950 . S
H3470 C3475 0.950 . S
H3471 C3476 0.949 . S
H3472 C3478 0.950 . S
H3473 C3479 0.950 . S
H3474 C3480 0.949 . S
C3475 H3470 0.950 . S
C3475 C3477 1.327 . S
C3475 C3481 1.429 . S
C3476 C3468 1.574 . S
C3476 H3471 0.949 . S
C3476 C3482 1.368 . S
C3477 C3461 1.349 . S
C3477 H3469 0.950 . S
C3477 C3475 1.327 . S
C3478 C3466 1.349 . S
C3478 H3472 0.950 . S
C3478 C3479 1.327 . S
C3479 H3473 0.950 . S
C3479 C3478 1.327 . S
C3479 C3483 1.429 . S
C3480 C3463 1.574 . S
C3480 H3474 0.949 . S
C3480 C3484 1.368 . S
C3481 C3462 1.429 . S
C3481 C3475 1.429 . S
C3481 C3482 1.523 . S
C3482 C3463 1.368 . S
C3482 C3476 1.368 . S
C3482 C3481 1.523 . S
C3483 C3467 1.429 . S
C3483 C3479 1.429 . S
C3483 C3484 1.523 . S
C3484 C3468 1.368 . S
C3484 C3480 1.368 . S
C3484 C3483 1.523 . S
H3485 C3460 0.950 . S
H3486 C3462 0.950 . S
H3487 C3463 0.949 . S
H3488 C3465 0.950 . S
H3489 C3467 0.950 . S
C3490 C3491 1.349 . S
C3490 C3492 1.327 . S
C3490 H3515 0.950 . S
C3491 C3490 1.349 . S
C3491 C3507 1.349 . S
C3492 C3490 1.327 . S
C3492 C3511 1.429 . S
C3492 H3516 0.950 . S
C3493 C3510 1.574 . S
C3493 C3512 1.368 . S
C3493 H3517 0.949 . S
H3494 C3498 0.949 . S
C3495 C3496 1.349 . S
C3495 C3497 1.327 . S
C3495 H3518 0.950 . S
C3496 C3495 1.349 . S
C3496 C3508 1.349 . S
C3497 C3495 1.327 . S
C3497 C3513 1.429 . S
C3497 H3519 0.950 . S
C3498 H3494 0.949 . S
C3498 C3506 1.574 . S
C3498 C3514 1.368 . S
H3499 C3507 0.950 . S
H3500 C3505 0.950 . S
H3501 C3506 0.949 . S
H3502 C3508 0.950 . S
H3503 C3509 0.950 . S
H3504 C3510 0.949 . S
C3505 H3500 0.950 . S
C3505 C3507 1.327 . S
C3505 C3511 1.429 . S
C3506 C3498 1.574 . S
C3506 H3501 0.949 . S
C3506 C3512 1.368 . S
C3507 C3491 1.349 . S
C3507 H3499 0.950 . S
C3507 C3505 1.327 . S
C3508 C3496 1.349 . S
C3508 H3502 0.950 . S
C3508 C3509 1.327 . S
C3509 H3503 0.950 . S
C3509 C3508 1.327 . S
C3509 C3513 1.429 . S
C3510 C3493 1.574 . S
C3510 H3504 0.949 . S
C3510 C3514 1.368 . S
C3511 C3492 1.429 . S
C3511 C3505 1.429 . S
C3511 C3512 1.523 . S
C3512 C3493 1.368 . S
C3512 C3506 1.368 . S
C3512 C3511 1.523 . S
C3513 C3497 1.429 . S
C3513 C3509 1.429 . S
C3513 C3514 1.523 . S
C3514 C3498 1.368 . S
C3514 C3510 1.368 . S
C3514 C3513 1.523 . S
H3515 C3490 0.950 . S
H3516 C3492 0.950 . S
H3517 C3493 0.949 . S
H3518 C3495 0.950 . S
H3519 C3497 0.950 . S
C3520 C3521 1.349 . S
C3520 C3522 1.327 . S
C3520 H3545 0.950 . S
C3521 C3520 1.349 . S
C3521 C3537 1.349 . S
C3522 C3520 1.327 . S
C3522 C3541 1.429 . S
C3522 H3546 0.950 . S
C3523 C3540 1.574 . S
C3523 C3542 1.368 . S
C3523 H3547 0.949 . S
H3524 C3528 0.949 . S
C3525 C3526 1.349 . S
C3525 C3527 1.327 . S
C3525 H3548 0.950 . S
C3526 C3525 1.349 . S
C3526 C3538 1.349 . S
C3527 C3525 1.327 . S
C3527 C3543 1.429 . S
C3527 H3549 0.950 . S
C3528 H3524 0.949 . S
C3528 C3536 1.574 . S
C3528 C3544 1.368 . S
H3529 C3537 0.950 . S
H3530 C3535 0.950 . S
H3531 C3536 0.949 . S
H3532 C3538 0.950 . S
H3533 C3539 0.950 . S
H3534 C3540 0.949 . S
C3535 H3530 0.950 . S
C3535 C3537 1.327 . S
C3535 C3541 1.429 . S
C3536 C3528 1.574 . S
C3536 H3531 0.949 . S
C3536 C3542 1.368 . S
C3537 C3521 1.349 . S
C3537 H3529 0.950 . S
C3537 C3535 1.327 . S
C3538 C3526 1.349 . S
C3538 H3532 0.950 . S
C3538 C3539 1.327 . S
C3539 H3533 0.950 . S
C3539 C3538 1.327 . S
C3539 C3543 1.429 . S
C3540 C3523 1.574 . S
C3540 H3534 0.949 . S
C3540 C3544 1.368 . S
C3541 C3522 1.429 . S
C3541 C3535 1.429 . S
C3541 C3542 1.523 . S
C3542 C3523 1.368 . S
C3542 C3536 1.368 . S
C3542 C3541 1.523 . S
C3543 C3527 1.429 . S
C3543 C3539 1.429 . S
C3543 C3544 1.523 . S
C3544 C3528 1.368 . S
C3544 C3540 1.368 . S
C3544 C3543 1.523 . S
H3545 C3520 0.950 . S
H3546 C3522 0.950 . S
H3547 C3523 0.949 . S
H3548 C3525 0.950 . S
H3549 C3527 0.950 . S
C3550 C3551 1.349 . S
C3550 C3552 1.327 . S
C3550 H3575 0.950 . S
C3551 C3550 1.349 . S
C3551 C3567 1.349 . S
C3552 C3550 1.327 . S
C3552 C3571 1.429 . S
C3552 H3576 0.950 . S
C3553 C3570 1.574 . S
C3553 C3572 1.368 . S
C3553 H3577 0.949 . S
H3554 C3558 0.949 . S
C3555 C3556 1.349 . S
C3555 C3557 1.327 . S
C3555 H3578 0.950 . S
C3556 C3555 1.349 . S
C3556 C3568 1.349 . S
C3557 C3555 1.327 . S
C3557 C3573 1.429 . S
C3557 H3579 0.950 . S
C3558 H3554 0.949 . S
C3558 C3566 1.574 . S
C3558 C3574 1.368 . S
H3559 C3567 0.950 . S
H3560 C3565 0.950 . S
H3561 C3566 0.949 . S
H3562 C3568 0.950 . S
H3563 C3569 0.950 . S
H3564 C3570 0.949 . S
C3565 H3560 0.950 . S
C3565 C3567 1.327 . S
C3565 C3571 1.429 . S
C3566 C3558 1.574 . S
C3566 H3561 0.949 . S
C3566 C3572 1.368 . S
C3567 C3551 1.349 . S
C3567 H3559 0.950 . S
C3567 C3565 1.327 . S
C3568 C3556 1.349 . S
C3568 H3562 0.950 . S
C3568 C3569 1.327 . S
C3569 H3563 0.950 . S
C3569 C3568 1.327 . S
C3569 C3573 1.429 . S
C3570 C3553 1.574 . S
C3570 H3564 0.949 . S
C3570 C3574 1.368 . S
C3571 C3552 1.429 . S
C3571 C3565 1.429 . S
C3571 C3572 1.523 . S
C3572 C3553 1.368 . S
C3572 C3566 1.368 . S
C3572 C3571 1.523 . S
C3573 C3557 1.429 . S
C3573 C3569 1.429 . S
C3573 C3574 1.523 . S
C3574 C3558 1.368 . S
C3574 C3570 1.368 . S
C3574 C3573 1.523 . S
H3575 C3550 0.950 . S
H3576 C3552 0.950 . S
H3577 C3553 0.949 . S
H3578 C3555 0.950 . S
H3579 C3557 0.950 . S
C3580 C3581 1.349 . S
C3580 C3582 1.327 . S
C3580 H3605 0.950 . S
C3581 C3580 1.349 . S
C3581 C3597 1.349 . S
C3582 C3580 1.327 . S
C3582 C3601 1.429 . S
C3582 H3606 0.950 . S
C3583 C3600 1.574 . S
C3583 C3602 1.368 . S
C3583 H3607 0.949 . S
H3584 C3588 0.949 . S
C3585 C3586 1.349 . S
C3585 C3587 1.327 . S
C3585 H3608 0.950 . S
C3586 C3585 1.349 . S
C3586 C3598 1.349 . S
C3587 C3585 1.327 . S
C3587 C3603 1.429 . S
C3587 H3609 0.950 . S
C3588 H3584 0.949 . S
C3588 C3596 1.574 . S
C3588 C3604 1.368 . S
H3589 C3597 0.950 . S
H3590 C3595 0.950 . S
H3591 C3596 0.949 . S
H3592 C3598 0.950 . S
H3593 C3599 0.950 . S
H3594 C3600 0.949 . S
C3595 H3590 0.950 . S
C3595 C3597 1.327 . S
C3595 C3601 1.429 . S
C3596 C3588 1.574 . S
C3596 H3591 0.949 . S
C3596 C3602 1.368 . S
C3597 C3581 1.349 . S
C3597 H3589 0.950 . S
C3597 C3595 1.327 . S
C3598 C3586 1.349 . S
C3598 H3592 0.950 . S
C3598 C3599 1.327 . S
C3599 H3593 0.950 . S
C3599 C3598 1.327 . S
C3599 C3603 1.429 . S
C3600 C3583 1.574 . S
C3600 H3594 0.949 . S
C3600 C3604 1.368 . S
C3601 C3582 1.429 . S
C3601 C3595 1.429 . S
C3601 C3602 1.523 . S
C3602 C3583 1.368 . S
C3602 C3596 1.368 . S
C3602 C3601 1.523 . S
C3603 C3587 1.429 . S
C3603 C3599 1.429 . S
C3603 C3604 1.523 . S
C3604 C3588 1.368 . S
C3604 C3600 1.368 . S
C3604 C3603 1.523 . S
H3605 C3580 0.950 . S
H3606 C3582 0.950 . S
H3607 C3583 0.949 . S
H3608 C3585 0.950 . S
H3609 C3587 0.950 . S
C3610 C3611 1.349 . S
C3610 C3612 1.327 . S
C3610 H3635 0.950 . S
C3611 C3610 1.349 . S
C3611 C3627 1.349 . S
C3612 C3610 1.327 . S
C3612 C3631 1.429 . S
C3612 H3636 0.950 . S
C3613 C3630 1.574 . S
C3613 C3632 1.368 . S
C3613 H3637 0.949 1_554 S
H3614 C3618 0.949 . S
C3615 C3616 1.334 1_556 S
C3615 C3617 1.327 1_556 S
C3615 H3638 0.966 . S
C3616 C3615 1.334 1_554 S
C3616 C3628 1.360 . S
C3617 C3615 1.327 1_554 S
C3617 C3633 1.439 . S
C3617 H3639 0.939 1_554 S
C3618 H3614 0.949 . S
C3618 C3626 1.574 . S
C3618 C3634 1.368 . S
H3619 C3627 0.914 1_556 S
H3620 C3625 0.950 1_556 S
H3621 C3626 0.949 . S
H3622 C3628 0.922 1_545 S
H3623 C3629 0.950 . S
H3624 C3630 0.949 1_556 S
C3625 H3620 0.950 1_554 S
C3625 C3627 1.327 . S
C3625 C3631 1.429 . S
C3626 C3618 1.574 . S
C3626 H3621 0.949 . S
C3626 C3632 1.368 . S
C3627 C3611 1.349 . S
C3627 H3619 0.914 1_554 S
C3627 C3625 1.327 . S
C3628 C3616 1.360 . S
C3628 H3622 0.922 1_565 S
C3628 C3629 1.344 . S
C3629 H3623 0.950 . S
C3629 C3628 1.344 . S
C3629 C3633 1.429 . S
C3630 C3613 1.574 . S
C3630 H3624 0.949 1_554 S
C3630 C3634 1.368 . S
C3631 C3612 1.429 . S
C3631 C3625 1.429 . S
C3631 C3632 1.523 . S
C3632 C3613 1.368 . S
C3632 C3626 1.368 . S
C3632 C3631 1.523 . S
C3633 C3617 1.439 . S
C3633 C3629 1.429 . S
C3633 C3634 1.523 . S
C3634 C3618 1.368 . S
C3634 C3630 1.368 . S
C3634 C3633 1.523 . S
H3635 C3610 0.950 . S
H3636 C3612 0.950 . S
H3637 C3613 0.949 1_556 S
H3638 C3615 0.966 . S
H3639 C3617 0.939 1_556 S
C3640 C3641 1.349 . S
C3640 C3642 1.327 . S
C3640 H3665 0.950 . S
C3641 C3640 1.349 . S
C3641 C3657 1.349 . S
C3642 C3640 1.327 . S
C3642 C3661 1.429 . S
C3642 H3666 0.950 . S
C3643 C3660 1.574 . S
C3643 C3662 1.368 . S
C3643 H3667 0.949 . S
H3644 C3648 0.949 . S
C3645 C3646 1.349 . S
C3645 C3647 1.327 . S
C3645 H3668 0.950 . S
C3646 C3645 1.349 . S
C3646 C3658 1.349 . S
C3647 C3645 1.327 . S
C3647 C3663 1.429 . S
C3647 H3669 0.950 . S
C3648 H3644 0.949 . S
C3648 C3656 1.574 . S
C3648 C3664 1.368 . S
H3649 C3657 0.950 . S
H3650 C3655 0.950 . S
H3651 C3656 0.949 . S
H3652 C3658 0.950 . S
H3653 C3659 0.950 . S
H3654 C3660 0.949 . S
C3655 H3650 0.950 . S
C3655 C3657 1.327 . S
C3655 C3661 1.429 . S
C3656 C3648 1.574 . S
C3656 H3651 0.949 . S
C3656 C3662 1.368 . S
C3657 C3641 1.349 . S
C3657 H3649 0.950 . S
C3657 C3655 1.327 . S
C3658 C3646 1.349 . S
C3658 H3652 0.950 . S
C3658 C3659 1.327 . S
C3659 H3653 0.950 . S
C3659 C3658 1.327 . S
C3659 C3663 1.429 . S
C3660 C3643 1.574 . S
C3660 H3654 0.949 . S
C3660 C3664 1.368 . S
C3661 C3642 1.429 . S
C3661 C3655 1.429 . S
C3661 C3662 1.523 . S
C3662 C3643 1.368 . S
C3662 C3656 1.368 . S
C3662 C3661 1.523 . S
C3663 C3647 1.429 . S
C3663 C3659 1.429 . S
C3663 C3664 1.523 . S
C3664 C3648 1.368 . S
C3664 C3660 1.368 . S
C3664 C3663 1.523 . S
H3665 C3640 0.950 . S
H3666 C3642 0.950 . S
H3667 C3643 0.949 . S
H3668 C3645 0.950 . S
H3669 C3647 0.950 . S
C3670 C3671 1.357 . S
C3670 C3672 1.327 . S
C3670 H3695 0.950 . S
C3671 C3670 1.357 . S
C3671 C3687 1.343 1_554 S
C3672 C3670 1.327 . S
C3672 C3691 1.429 . S
C3672 H3696 0.950 . S
C3673 C3690 1.572 1_556 S
C3673 C3692 1.362 1_556 S
C3673 H3697 0.956 . S
H3674 C3678 0.949 . S
C3675 C3676 1.349 . S
C3675 C3677 1.327 . S
C3675 H3698 0.950 . S
C3676 C3675 1.349 . S
C3676 C3688 1.349 . S
C3677 C3675 1.327 . S
C3677 C3693 1.429 . S
C3677 H3699 0.950 . S
C3678 H3674 0.949 . S
C3678 C3686 1.574 . S
C3678 C3694 1.368 . S
H3679 C3687 0.950 . S
H3680 C3685 0.950 . S
H3681 C3686 0.949 . S
H3682 C3688 0.950 . S
H3683 C3689 0.950 . S
H3684 C3690 0.949 1_556 S
C3685 H3680 0.950 . S
C3685 C3687 1.327 . S
C3685 C3691 1.429 1_556 S
C3686 C3678 1.574 . S
C3686 H3681 0.949 . S
C3686 C3692 1.368 . S
C3687 C3671 1.343 1_556 S
C3687 H3679 0.950 . S
C3687 C3685 1.327 . S
C3688 C3676 1.349 . S
C3688 H3682 0.950 . S
C3688 C3689 1.327 . S
C3689 H3683 0.950 . S
C3689 C3688 1.327 . S
C3689 C3693 1.429 . S
C3690 C3673 1.572 1_554 S
C3690 H3684 0.949 1_554 S
C3690 C3694 1.368 . S
C3691 C3672 1.429 . S
C3691 C3685 1.429 1_554 S
C3691 C3692 1.523 . S
C3692 C3673 1.362 1_554 S
C3692 C3686 1.368 . S
C3692 C3691 1.523 . S
C3693 C3677 1.429 . S
C3693 C3689 1.429 . S
C3693 C3694 1.523 . S
C3694 C3678 1.368 . S
C3694 C3690 1.368 . S
C3694 C3693 1.523 . S
H3695 C3670 0.950 . S
H3696 C3672 0.950 . S
H3697 C3673 0.956 . S
H3698 C3675 0.950 . S
H3699 C3677 0.950 . S
C3700 C3701 1.349 . S
C3700 C3702 1.327 . S
C3700 H3725 0.950 . S
C3701 C3700 1.349 . S
C3701 C3717 1.349 . S
C3702 C3700 1.327 . S
C3702 C3721 1.429 . S
C3702 H3726 0.950 . S
C3703 C3720 1.574 . S
C3703 C3722 1.368 . S
C3703 H3727 0.949 . S
H3704 C3708 0.949 . S
C3705 C3706 1.349 . S
C3705 C3707 1.327 . S
C3705 H3728 0.950 . S
C3706 C3705 1.349 . S
C3706 C3718 1.349 . S
C3707 C3705 1.327 . S
C3707 C3723 1.429 . S
C3707 H3729 0.950 . S
C3708 H3704 0.949 . S
C3708 C3716 1.574 . S
C3708 C3724 1.368 . S
H3709 C3717 0.950 . S
H3710 C3715 0.950 . S
H3711 C3716 0.949 . S
H3712 C3718 0.950 . S
H3713 C3719 0.950 . S
H3714 C3720 0.949 . S
C3715 H3710 0.950 . S
C3715 C3717 1.327 . S
C3715 C3721 1.429 . S
C3716 C3708 1.574 . S
C3716 H3711 0.949 . S
C3716 C3722 1.368 . S
C3717 C3701 1.349 . S
C3717 H3709 0.950 . S
C3717 C3715 1.327 . S
C3718 C3706 1.349 . S
C3718 H3712 0.950 . S
C3718 C3719 1.327 . S
C3719 H3713 0.950 . S
C3719 C3718 1.327 . S
C3719 C3723 1.429 . S
C3720 C3703 1.574 . S
C3720 H3714 0.949 . S
C3720 C3724 1.368 . S
C3721 C3702 1.429 . S
C3721 C3715 1.429 . S
C3721 C3722 1.523 . S
C3722 C3703 1.368 . S
C3722 C3716 1.368 . S
C3722 C3721 1.523 . S
C3723 C3707 1.429 . S
C3723 C3719 1.429 . S
C3723 C3724 1.523 . S
C3724 C3708 1.368 . S
C3724 C3720 1.368 . S
C3724 C3723 1.523 . S
H3725 C3700 0.950 . S
H3726 C3702 0.950 . S
H3727 C3703 0.949 . S
H3728 C3705 0.950 . S
H3729 C3707 0.950 . S
C3730 C3731 1.349 . S
C3730 C3732 1.327 . S
C3730 H3755 0.950 . S
C3731 C3730 1.349 . S
C3731 C3747 1.349 . S
C3732 C3730 1.327 . S
C3732 C3751 1.429 . S
C3732 H3756 0.950 . S
C3733 C3750 1.574 . S
C3733 C3752 1.368 . S
C3733 H3757 0.949 . S
H3734 C3738 0.949 . S
C3735 C3736 1.349 . S
C3735 C3737 1.327 . S
C3735 H3758 0.950 . S
C3736 C3735 1.349 . S
C3736 C3748 1.349 . S
C3737 C3735 1.327 . S
C3737 C3753 1.429 . S
C3737 H3759 0.950 . S
C3738 H3734 0.949 . S
C3738 C3746 1.574 . S
C3738 C3754 1.368 . S
H3739 C3747 0.950 . S
H3740 C3745 0.950 . S
H3741 C3746 0.949 . S
H3742 C3748 0.950 . S
H3743 C3749 0.950 . S
H3744 C3750 0.949 . S
C3745 H3740 0.950 . S
C3745 C3747 1.327 . S
C3745 C3751 1.429 . S
C3746 C3738 1.574 . S
C3746 H3741 0.949 . S
C3746 C3752 1.368 . S
C3747 C3731 1.349 . S
C3747 H3739 0.950 . S
C3747 C3745 1.327 . S
C3748 C3736 1.349 . S
C3748 H3742 0.950 . S
C3748 C3749 1.327 . S
C3749 H3743 0.950 . S
C3749 C3748 1.327 . S
C3749 C3753 1.429 . S
C3750 C3733 1.574 . S
C3750 H3744 0.949 . S
C3750 C3754 1.368 . S
C3751 C3732 1.429 . S
C3751 C3745 1.429 . S
C3751 C3752 1.523 . S
C3752 C3733 1.368 . S
C3752 C3746 1.368 . S
C3752 C3751 1.523 . S
C3753 C3737 1.429 . S
C3753 C3749 1.429 . S
C3753 C3754 1.523 . S
C3754 C3738 1.368 . S
C3754 C3750 1.368 . S
C3754 C3753 1.523 . S
H3755 C3730 0.950 . S
H3756 C3732 0.950 . S
H3757 C3733 0.949 . S
H3758 C3735 0.950 . S
H3759 C3737 0.950 . S
C886 C353 0.934 . S
C881 C7 0.927 . S
C911 C22 1.805 . S
C916 C399 1.796 . S
C941 C31 0.848 . S
C946 C408 0.845 . S
C976 C446 1.606 . S
C971 C51 1.625 . S
C1001 C17 1.582 . S
C1006 C480 1.560 . S
C1036 C510 0.693 . S
C1031 C36 0.691 . S
C1066 C569 1.562 1_556 S
C1061 C49 1.564 . S
C1091 C9 0.872 . S
C1096 C582 0.871 . S
C1121 C63 1.254 . S
C1126 C365 1.261 . S
C1151 C73 1.088 . S
C1156 C383 1.079 . S
C1186 C404 1.584 . S
C1181 C91 1.564 . S
C1216 C442 0.641 . S
C1211 C101 0.631 . S
C1241 C59 1.211 . S
C1246 C476 1.195 . S
C1276 C506 1.509 . S
C1271 C77 1.495 . S
C1306 C553 1.124 . S
C1301 C87 1.137 . S
C1336 C578 0.556 . S
C1331 C105 0.573 . S
C1366 C349 0.536 1_556 S
C1361 C107 0.543 . S
C1396 C608 1.525 . S
C1391 C120 1.526 . S
C1421 C135 1.271 . S
C1426 C650 1.268 . S
C1456 C693 0.496 . S
C1451 C148 0.484 . S
C1481 C65 1.225 . S
C1486 C574 1.215 . S
C1516 C412 1.377 . S
C1511 C79 1.376 . S
C1541 C134 1.241 . S
C1546 C710 1.243 . S
C1576 C761 1.468 . S
C1571 C162 1.471 . S
C1601 C171 0.881 1_655 S
C1606 C344 0.905 . S
C1636 C744 1.742 . S
C1631 C190 1.747 . S
C1661 C203 0.818 . S
C1666 C417 0.823 . S
C1691 C219 1.563 . S
C1696 C727 1.543 . S
C1726 C489 1.508 . S
C1721 C189 1.481 . S
C1756 C655 0.661 . S
C1751 C204 0.659 . S
C1786 C540 1.527 . S
C1781 C213 1.537 . S
C1816 C795 0.811 . S
C1811 C177 0.818 . S
C1846 C336 1.202 . S
C1841 C227 1.215 . S
C1871 C245 1.024 . S
C1876 C748 1.043 . S
C1906 C433 1.528 . S
C1901 C255 1.541 . S
C1931 C273 0.632 . S
C1936 C723 0.609 . S
C1961 C231 1.142 . S
C1966 C485 1.158 . S
C1991 C241 1.464 . S
C1996 C671 1.451 . S
C2026 C544 1.088 . S
C2021 C259 1.069 . S
C2051 C269 0.506 . S
C2056 C791 0.521 . S
C2081 C275 0.508 . S
C2086 C340 0.510 . S
C2111 C288 1.485 . S
C2116 C637 1.479 . S
C2141 C303 1.220 . S
C2146 C523 1.212 . S
C2171 C316 0.434 . S
C2176 C684 0.448 . S
C2206 C807 1.165 . S
C2201 C233 1.177 . S
C2236 C421 1.321 . S
C2231 C247 1.324 . S
C2266 C467 1.200 . S
C2261 C302 1.202 . S
C2296 C378 1.424 . S
C2291 C330 1.429 . S
C2321 C35 0.927 . S
C2326 C829 0.934 . S
C2356 C773 1.796 . S
C2351 C50 1.805 . S
C2386 C850 0.845 . S
C2381 C3 0.848 . S
C2411 C23 1.625 . S
C2416 C718 1.606 . S
C2441 C45 1.582 . S
C2446 C616 1.581 . S
C2476 C646 0.693 . S
C2471 C8 0.718 . S
C2506 C705 1.587 . S
C2501 C21 1.564 . S
C2536 C786 0.871 . S
C2531 C37 0.872 . S
C2566 C841 1.259 . S
C2561 C161 1.254 . S
C2591 C115 1.088 1_556 S
C2596 C757 1.079 . S
C2621 C133 1.564 . S
C2626 C846 1.584 . S
C2656 C714 0.641 . S
C2651 C143 0.631 . S
C2686 C612 1.195 . S
C2681 C157 1.210 . S
C2711 C119 1.495 . S
C2716 C642 1.509 . S
C2746 C689 1.124 . S
C2741 C129 1.137 . S
C2771 C147 0.573 . S
C2776 C782 0.556 . S
C2806 C825 0.541 . S
C2801 C149 0.543 . S
C2836 C472 1.525 . S
C2831 C78 1.526 . S
C2866 C514 1.268 . S
C2861 C93 1.271 . S
C2891 C106 0.484 . S
C2896 C557 0.496 . S
C2926 C778 1.215 . S
C2921 C163 1.225 . S
C2951 C121 1.375 . S
C2956 C854 1.376 . S
C2986 C438 1.243 . S
C2981 C92 1.241 . S
C3016 C387 1.468 . S
C3011 C64 1.471 . S
C3041 C199 0.880 . S
C3046 C820 0.877 . S
C3076 C370 1.742 . S
C3071 C218 1.747 . S
C3106 C859 0.831 . S
C3101 C175 0.814 1_455 S
C3131 C191 1.563 . S
C3136 C455 1.543 . S
C3161 C217 1.481 . S
C3166 C625 1.508 . S
C3191 C176 0.658 . S
C3196 C519 0.655 . S
C3221 C185 1.537 . S
C3226 C676 1.527 . S
C3251 C205 0.813 . S
C3256 C591 0.810 . S
C3286 C812 1.202 . S
C3281 C325 1.215 . S
C3311 C287 1.024 . S
C3316 C374 1.037 . S
C3346 C875 1.524 . S
C3341 C297 1.541 . S
C3371 C315 0.633 . S
C3376 C451 0.609 . S
C3401 C329 1.142 . S
C3406 C621 1.157 . S
C3436 C535 1.451 . S
C3431 C283 1.470 . S
C3461 C301 1.069 . S
C3466 C680 1.088 . S
C3496 C587 0.521 . S
C3491 C311 0.507 . S
C3526 C816 0.510 . S
C3521 C317 0.509 . S
C3556 C501 1.480 . S
C3551 C246 1.483 . S
C3581 C261 1.220 . S
C3586 C659 1.212 . S
C3616 C548 0.448 . S
C3611 C274 0.434 . S
C3646 C603 1.165 . S
C3641 C331 1.177 . S
C3671 C289 1.323 1_554 S
C3676 C863 1.320 . S
C3706 C739 1.200 . S
C3701 C260 1.202 . S
C3736 C752 1.424 . S
C3731 C232 1.429 . S
