# Generated by pormake.
# Topology gar, (4,6)-cn, num edge types: 1
# Building blocks:
#     Node 0, Type 0, BuildingBlock: TATPOV_clean_sbu_0, # of connection points: 4
#     Node 1, Type 0, BuildingBlock: TATPOV_clean_sbu_0, # of connection points: 4
#     Node 2, Type 0, BuildingBlock: TATPOV_clean_sbu_0, # of connection points: 4
#     Node 3, Type 0, BuildingBlock: TATPOV_clean_sbu_0, # of connection points: 4
#     Node 4, Type 0, BuildingBlock: TATPOV_clean_sbu_0, # of connection points: 4
#     Node 5, Type 0, BuildingBlock: TATPOV_clean_sbu_0, # of connection points: 4
#     Node 6, Type 0, BuildingBlock: TATPOV_clean_sbu_0, # of connection points: 4
#     Node 7, Type 0, BuildingBlock: TATPOV_clean_sbu_0, # of connection points: 4
#     Node 8, Type 0, BuildingBlock: TATPOV_clean_sbu_0, # of connection points: 4
#     Node 9, Type 0, BuildingBlock: TATPOV_clean_sbu_0, # of connection points: 4
#     Node 10, Type 0, BuildingBlock: TATPOV_clean_sbu_0, # of connection points: 4
#     Node 11, Type 0, BuildingBlock: TATPOV_clean_sbu_0, # of connection points: 4
#     Node 12, Type 0, BuildingBlock: TATPOV_clean_sbu_0, # of connection points: 4
#     Node 13, Type 0, BuildingBlock: TATPOV_clean_sbu_0, # of connection points: 4
#     Node 14, Type 0, BuildingBlock: TATPOV_clean_sbu_0, # of connection points: 4
#     Node 15, Type 0, BuildingBlock: TATPOV_clean_sbu_0, # of connection points: 4
#     Node 16, Type 0, BuildingBlock: TATPOV_clean_sbu_0, # of connection points: 4
#     Node 17, Type 0, BuildingBlock: TATPOV_clean_sbu_0, # of connection points: 4
#     Node 18, Type 0, BuildingBlock: TATPOV_clean_sbu_0, # of connection points: 4
#     Node 19, Type 0, BuildingBlock: TATPOV_clean_sbu_0, # of connection points: 4
#     Node 20, Type 0, BuildingBlock: TATPOV_clean_sbu_0, # of connection points: 4
#     Node 21, Type 0, BuildingBlock: TATPOV_clean_sbu_0, # of connection points: 4
#     Node 22, Type 0, BuildingBlock: TATPOV_clean_sbu_0, # of connection points: 4
#     Node 23, Type 0, BuildingBlock: TATPOV_clean_sbu_0, # of connection points: 4
#     Node 24, Type 1, BuildingBlock: KUMBOL_clean_sbu_1, # of connection points: 6
#     Node 25, Type 1, BuildingBlock: KUMBOL_clean_sbu_1, # of connection points: 6
#     Node 26, Type 1, BuildingBlock: KUMBOL_clean_sbu_1, # of connection points: 6
#     Node 27, Type 1, BuildingBlock: KUMBOL_clean_sbu_1, # of connection points: 6
#     Node 28, Type 1, BuildingBlock: KUMBOL_clean_sbu_1, # of connection points: 6
#     Node 29, Type 1, BuildingBlock: KUMBOL_clean_sbu_1, # of connection points: 6
#     Node 30, Type 1, BuildingBlock: KUMBOL_clean_sbu_1, # of connection points: 6
#     Node 31, Type 1, BuildingBlock: KUMBOL_clean_sbu_1, # of connection points: 6
#     Node 32, Type 1, BuildingBlock: KUMBOL_clean_sbu_1, # of connection points: 6
#     Node 33, Type 1, BuildingBlock: KUMBOL_clean_sbu_1, # of connection points: 6
#     Node 34, Type 1, BuildingBlock: KUMBOL_clean_sbu_1, # of connection points: 6
#     Node 35, Type 1, BuildingBlock: KUMBOL_clean_sbu_1, # of connection points: 6
#     Node 36, Type 1, BuildingBlock: KUMBOL_clean_sbu_1, # of connection points: 6
#     Node 37, Type 1, BuildingBlock: KUMBOL_clean_sbu_1, # of connection points: 6
#     Node 38, Type 1, BuildingBlock: KUMBOL_clean_sbu_1, # of connection points: 6
#     Node 39, Type 1, BuildingBlock: KUMBOL_clean_sbu_1, # of connection points: 6
#     Edge 40, Type (0, 1), BuildingBlock: AJUNOK_clean_linker_0, # of connection points: 2
#     Edge 41, Type (0, 1), BuildingBlock: AJUNOK_clean_linker_0, # of connection points: 2
#     Edge 42, Type (0, 1), BuildingBlock: AJUNOK_clean_linker_0, # of connection points: 2
#     Edge 43, Type (0, 1), BuildingBlock: AJUNOK_clean_linker_0, # of connection points: 2
#     Edge 44, Type (0, 1), BuildingBlock: AJUNOK_clean_linker_0, # of connection points: 2
#     Edge 45, Type (0, 1), BuildingBlock: AJUNOK_clean_linker_0, # of connection points: 2
#     Edge 46, Type (0, 1), BuildingBlock: AJUNOK_clean_linker_0, # of connection points: 2
#     Edge 47, Type (0, 1), BuildingBlock: AJUNOK_clean_linker_0, # of connection points: 2
#     Edge 48, Type (0, 1), BuildingBlock: AJUNOK_clean_linker_0, # of connection points: 2
#     Edge 49, Type (0, 1), BuildingBlock: AJUNOK_clean_linker_0, # of connection points: 2
#     Edge 50, Type (0, 1), BuildingBlock: AJUNOK_clean_linker_0, # of connection points: 2
#     Edge 51, Type (0, 1), BuildingBlock: AJUNOK_clean_linker_0, # of connection points: 2
#     Edge 52, Type (0, 1), BuildingBlock: AJUNOK_clean_linker_0, # of connection points: 2
#     Edge 53, Type (0, 1), BuildingBlock: AJUNOK_clean_linker_0, # of connection points: 2
#     Edge 54, Type (0, 1), BuildingBlock: AJUNOK_clean_linker_0, # of connection points: 2
#     Edge 55, Type (0, 1), BuildingBlock: AJUNOK_clean_linker_0, # of connection points: 2
#     Edge 56, Type (0, 1), BuildingBlock: AJUNOK_clean_linker_0, # of connection points: 2
#     Edge 57, Type (0, 1), BuildingBlock: AJUNOK_clean_linker_0, # of connection points: 2
#     Edge 58, Type (0, 1), BuildingBlock: AJUNOK_clean_linker_0, # of connection points: 2
#     Edge 59, Type (0, 1), BuildingBlock: AJUNOK_clean_linker_0, # of connection points: 2
#     Edge 60, Type (0, 1), BuildingBlock: AJUNOK_clean_linker_0, # of connection points: 2
#     Edge 61, Type (0, 1), BuildingBlock: AJUNOK_clean_linker_0, # of connection points: 2
#     Edge 62, Type (0, 1), BuildingBlock: AJUNOK_clean_linker_0, # of connection points: 2
#     Edge 63, Type (0, 1), BuildingBlock: AJUNOK_clean_linker_0, # of connection points: 2
#     Edge 64, Type (0, 1), BuildingBlock: AJUNOK_clean_linker_0, # of connection points: 2
#     Edge 65, Type (0, 1), BuildingBlock: AJUNOK_clean_linker_0, # of connection points: 2
#     Edge 66, Type (0, 1), BuildingBlock: AJUNOK_clean_linker_0, # of connection points: 2
#     Edge 67, Type (0, 1), BuildingBlock: AJUNOK_clean_linker_0, # of connection points: 2
#     Edge 68, Type (0, 1), BuildingBlock: AJUNOK_clean_linker_0, # of connection points: 2
#     Edge 69, Type (0, 1), BuildingBlock: AJUNOK_clean_linker_0, # of connection points: 2
#     Edge 70, Type (0, 1), BuildingBlock: AJUNOK_clean_linker_0, # of connection points: 2
#     Edge 71, Type (0, 1), BuildingBlock: AJUNOK_clean_linker_0, # of connection points: 2
#     Edge 72, Type (0, 1), BuildingBlock: AJUNOK_clean_linker_0, # of connection points: 2
#     Edge 73, Type (0, 1), BuildingBlock: AJUNOK_clean_linker_0, # of connection points: 2
#     Edge 74, Type (0, 1), BuildingBlock: AJUNOK_clean_linker_0, # of connection points: 2
#     Edge 75, Type (0, 1), BuildingBlock: AJUNOK_clean_linker_0, # of connection points: 2
#     Edge 76, Type (0, 1), BuildingBlock: AJUNOK_clean_linker_0, # of connection points: 2
#     Edge 77, Type (0, 1), BuildingBlock: AJUNOK_clean_linker_0, # of connection points: 2
#     Edge 78, Type (0, 1), BuildingBlock: AJUNOK_clean_linker_0, # of connection points: 2
#     Edge 79, Type (0, 1), BuildingBlock: AJUNOK_clean_linker_0, # of connection points: 2
#     Edge 80, Type (0, 1), BuildingBlock: AJUNOK_clean_linker_0, # of connection points: 2
#     Edge 81, Type (0, 1), BuildingBlock: AJUNOK_clean_linker_0, # of connection points: 2
#     Edge 82, Type (0, 1), BuildingBlock: AJUNOK_clean_linker_0, # of connection points: 2
#     Edge 83, Type (0, 1), BuildingBlock: AJUNOK_clean_linker_0, # of connection points: 2
#     Edge 84, Type (0, 1), BuildingBlock: AJUNOK_clean_linker_0, # of connection points: 2
#     Edge 85, Type (0, 1), BuildingBlock: AJUNOK_clean_linker_0, # of connection points: 2
#     Edge 86, Type (0, 1), BuildingBlock: AJUNOK_clean_linker_0, # of connection points: 2
#     Edge 87, Type (0, 1), BuildingBlock: AJUNOK_clean_linker_0, # of connection points: 2
#     Edge 88, Type (0, 1), BuildingBlock: AJUNOK_clean_linker_0, # of connection points: 2
#     Edge 89, Type (0, 1), BuildingBlock: AJUNOK_clean_linker_0, # of connection points: 2
#     Edge 90, Type (0, 1), BuildingBlock: AJUNOK_clean_linker_0, # of connection points: 2
#     Edge 91, Type (0, 1), BuildingBlock: AJUNOK_clean_linker_0, # of connection points: 2
#     Edge 92, Type (0, 1), BuildingBlock: AJUNOK_clean_linker_0, # of connection points: 2
#     Edge 93, Type (0, 1), BuildingBlock: AJUNOK_clean_linker_0, # of connection points: 2
#     Edge 94, Type (0, 1), BuildingBlock: AJUNOK_clean_linker_0, # of connection points: 2
#     Edge 95, Type (0, 1), BuildingBlock: AJUNOK_clean_linker_0, # of connection points: 2
#     Edge 96, Type (0, 1), BuildingBlock: AJUNOK_clean_linker_0, # of connection points: 2
#     Edge 97, Type (0, 1), BuildingBlock: AJUNOK_clean_linker_0, # of connection points: 2
#     Edge 98, Type (0, 1), BuildingBlock: AJUNOK_clean_linker_0, # of connection points: 2
#     Edge 99, Type (0, 1), BuildingBlock: AJUNOK_clean_linker_0, # of connection points: 2
#     Edge 100, Type (0, 1), BuildingBlock: AJUNOK_clean_linker_0, # of connection points: 2
#     Edge 101, Type (0, 1), BuildingBlock: AJUNOK_clean_linker_0, # of connection points: 2
#     Edge 102, Type (0, 1), BuildingBlock: AJUNOK_clean_linker_0, # of connection points: 2
#     Edge 103, Type (0, 1), BuildingBlock: AJUNOK_clean_linker_0, # of connection points: 2
#     Edge 104, Type (0, 1), BuildingBlock: AJUNOK_clean_linker_0, # of connection points: 2
#     Edge 105, Type (0, 1), BuildingBlock: AJUNOK_clean_linker_0, # of connection points: 2
#     Edge 106, Type (0, 1), BuildingBlock: AJUNOK_clean_linker_0, # of connection points: 2
#     Edge 107, Type (0, 1), BuildingBlock: AJUNOK_clean_linker_0, # of connection points: 2
#     Edge 108, Type (0, 1), BuildingBlock: AJUNOK_clean_linker_0, # of connection points: 2
#     Edge 109, Type (0, 1), BuildingBlock: AJUNOK_clean_linker_0, # of connection points: 2
#     Edge 110, Type (0, 1), BuildingBlock: AJUNOK_clean_linker_0, # of connection points: 2
#     Edge 111, Type (0, 1), BuildingBlock: AJUNOK_clean_linker_0, # of connection points: 2
#     Edge 112, Type (0, 1), BuildingBlock: AJUNOK_clean_linker_0, # of connection points: 2
#     Edge 113, Type (0, 1), BuildingBlock: AJUNOK_clean_linker_0, # of connection points: 2
#     Edge 114, Type (0, 1), BuildingBlock: AJUNOK_clean_linker_0, # of connection points: 2
#     Edge 115, Type (0, 1), BuildingBlock: AJUNOK_clean_linker_0, # of connection points: 2
#     Edge 116, Type (0, 1), BuildingBlock: AJUNOK_clean_linker_0, # of connection points: 2
#     Edge 117, Type (0, 1), BuildingBlock: AJUNOK_clean_linker_0, # of connection points: 2
#     Edge 118, Type (0, 1), BuildingBlock: AJUNOK_clean_linker_0, # of connection points: 2
#     Edge 119, Type (0, 1), BuildingBlock: AJUNOK_clean_linker_0, # of connection points: 2
#     Edge 120, Type (0, 1), BuildingBlock: AJUNOK_clean_linker_0, # of connection points: 2
#     Edge 121, Type (0, 1), BuildingBlock: AJUNOK_clean_linker_0, # of connection points: 2
#     Edge 122, Type (0, 1), BuildingBlock: AJUNOK_clean_linker_0, # of connection points: 2
#     Edge 123, Type (0, 1), BuildingBlock: AJUNOK_clean_linker_0, # of connection points: 2
#     Edge 124, Type (0, 1), BuildingBlock: AJUNOK_clean_linker_0, # of connection points: 2
#     Edge 125, Type (0, 1), BuildingBlock: AJUNOK_clean_linker_0, # of connection points: 2
#     Edge 126, Type (0, 1), BuildingBlock: AJUNOK_clean_linker_0, # of connection points: 2
#     Edge 127, Type (0, 1), BuildingBlock: AJUNOK_clean_linker_0, # of connection points: 2
#     Edge 128, Type (0, 1), BuildingBlock: AJUNOK_clean_linker_0, # of connection points: 2
#     Edge 129, Type (0, 1), BuildingBlock: AJUNOK_clean_linker_0, # of connection points: 2
#     Edge 130, Type (0, 1), BuildingBlock: AJUNOK_clean_linker_0, # of connection points: 2
#     Edge 131, Type (0, 1), BuildingBlock: AJUNOK_clean_linker_0, # of connection points: 2
#     Edge 132, Type (0, 1), BuildingBlock: AJUNOK_clean_linker_0, # of connection points: 2
#     Edge 133, Type (0, 1), BuildingBlock: AJUNOK_clean_linker_0, # of connection points: 2
#     Edge 134, Type (0, 1), BuildingBlock: AJUNOK_clean_linker_0, # of connection points: 2
#     Edge 135, Type (0, 1), BuildingBlock: AJUNOK_clean_linker_0, # of connection points: 2
# Relax obj value: 0.120
# Max RMSD: 0.205
# Mean RMSD: 0.136
data_MOF--net-gar--node1-TATPOV_clean_sbu_0--node2-KUMBOL_clean_sbu_1--edge1-AJUNOK_clean_linker_0
_symmetry_space_group_name_H-M    P1
_symmetry_Int_Tables_number       1
_symmetry_cell_setting            triclinic
loop_
_symmetry_equiv_pos_as_xyz
'x, y, z'
_cell_length_a     45.872563
_cell_length_b     45.785013
_cell_length_c     42.473559
_cell_angle_alpha  97.506236
_cell_angle_beta   98.288604
_cell_angle_gamma 104.72857
loop_
_atom_site_label
_atom_site_type_symbol
_atom_site_fract_x
_atom_site_fract_y
_atom_site_fract_z
_atom_type_partial_charge
Zn0 Zn 0.03925 0.33852 0.40485 0.0
Zn1 Zn 0.07585 0.34382 0.364 0.0
O2 O 0.08244 0.38959 0.3956 0.0
O3 O 0.05067 0.37945 0.4297 0.0
O4 O 0.12213 0.34202 0.34638 0.0
O5 O 0.04959 0.30723 0.42724 0.0
O6 O 0.07356 0.30456 0.38612 0.0
C7 C 0.07022 0.39874 0.4195 0.0
C8 C 1.00071 0.32795 0.34328 0.0
O9 O 0.02729 0.33439 0.33377 0.0
O10 O 1.00027 0.32688 0.37277 0.0
C11 C 0.13051 0.32756 0.32199 0.0
O12 O 0.10849 0.31196 0.29785 0.0
C13 C 0.06448 0.29392 0.41048 0.0
Zn14 Zn 0.03728 0.73292 0.74448 0.0
Zn15 Zn 0.04208 0.76906 0.70439 0.0
O16 O 1.00096 0.77464 0.72406 0.0
O17 O 0.99648 0.7431 0.75855 0.0
O18 O 0.04899 0.80353 0.67898 0.0
O19 O 0.08527 0.75021 0.76653 0.0
O20 O 0.08923 0.77768 0.72835 0.0
C21 C 0.98565 0.76199 0.7443 0.0
C22 C 0.0324 0.70222 0.67637 0.0
O23 O 0.03454 0.72922 0.67025 0.0
O24 O 0.03186 0.69793 0.70532 0.0
C25 C 0.02913 0.80943 0.6586 0.0
O26 O 1.00075 0.79191 0.65178 0.0
C27 C 0.10259 0.76778 0.75164 0.0
Zn28 Zn 0.54008 0.84231 0.90622 0.0
Zn29 Zn 0.57494 0.84314 0.86376 0.0
O30 O 0.58449 0.88975 0.89496 0.0
O31 O 0.5561 0.88221 0.93264 0.0
O32 O 0.61837 0.83548 0.84402 0.0
O33 O 0.54673 0.80925 0.92765 0.0
O34 O 0.57265 0.80567 0.8883 0.0
C35 C 0.57538 0.90013 0.92075 0.0
C36 C 0.50046 0.83195 0.84514 0.0
O37 O 0.52613 0.83365 0.83432 0.0
O38 O 0.50119 0.83488 0.87524 0.0
C39 C 0.63699 0.84215 0.82365 0.0
O40 O 0.63135 0.86096 0.80427 0.0
C41 C 0.56243 0.79569 0.91241 0.0
Zn42 Zn 0.53742 0.22991 0.2471 0.0
Zn43 Zn 0.54247 0.26755 0.20951 0.0
O44 O 0.50009 0.27251 0.22679 0.0
O45 O 0.49832 0.2441 0.26411 0.0
O46 O 0.55074 0.3022 0.1854 0.0
O47 O 0.58643 0.24432 0.26701 0.0
O48 O 0.58994 0.27771 0.23462 0.0
C49 C 0.48617 0.26169 0.24881 0.0
C50 C 0.53213 0.20112 0.17785 0.0
O51 O 0.53564 0.22894 0.17399 0.0
O52 O 0.53029 0.19493 0.20604 0.0
C53 C 0.53269 0.31498 0.17077 0.0
O54 O 0.50291 0.30391 0.16811 0.0
C55 C 0.60355 0.26505 0.25518 0.0
Zn56 Zn 0.12918 0.82137 0.08765 0.0
Zn57 Zn 0.09049 0.81544 0.12298 0.0
O58 O 0.08464 0.85745 0.10338 0.0
O59 O 0.11735 0.86243 0.07098 0.0
O60 O 0.05529 0.80971 0.14583 0.0
O61 O 0.11337 0.77132 0.06781 0.0
O62 O 0.07993 0.7677 0.09954 0.0
C63 C 0.09751 0.87311 0.08344 0.0
C64 C 0.15698 0.8253 0.15703 0.0
O65 O 0.12887 0.82089 0.15993 0.0
O66 O 0.16381 0.82856 0.12939 0.0
C67 C 0.05176 0.82829 0.16889 0.0
O68 O 0.0737 0.85351 0.18145 0.0
C69 C 0.09276 0.75393 0.07969 0.0
Zn70 Zn 0.48382 0.77947 0.50048 0.0
Zn71 Zn 0.52095 0.78559 0.46243 0.0
O72 O 0.53044 0.83289 0.48661 0.0
O73 O 0.50057 0.82856 0.5222 0.0
O74 O 0.55586 0.79164 0.43807 0.0
O75 O 0.49615 0.73779 0.51435 0.0
O76 O 0.52894 0.74424 0.48203 0.0
C77 C 0.51924 0.84621 0.50852 0.0
C78 C 0.45312 0.77774 0.43253 0.0
O79 O 0.48049 0.77981 0.42764 0.0
O80 O 0.44788 0.7753 0.46089 0.0
C81 C 0.55519 0.78737 0.40782 0.0
O82 O 0.52862 0.7788 0.38794 0.0
C83 C 0.51645 0.72803 0.50176 0.0
Zn84 Zn 0.62685 0.31893 0.58562 0.0
Zn85 Zn 0.58947 0.31297 0.62192 0.0
O86 O 0.58237 0.35511 0.60298 0.0
O87 O 0.6145 0.36023 0.5699 0.0
O88 O 0.55552 0.30665 0.64649 0.0
O89 O 0.61164 0.269 0.56616 0.0
O90 O 0.57749 0.26503 0.59712 0.0
C91 C 0.59473 0.37073 0.58274 0.0
C92 C 0.65698 0.32232 0.65402 0.0
O93 O 0.62924 0.31868 0.65821 0.0
O94 O 0.66238 0.32518 0.6258 0.0
C95 C 0.55003 0.32611 0.66725 0.0
O96 O 0.56885 0.35388 0.67574 0.0
C97 C 0.59056 0.25147 0.5773 0.0
Zn98 Zn 0.98433 0.27974 1.0007 0.0
Zn99 Zn 0.02176 0.28579 0.96332 0.0
O100 O 0.03268 0.33347 0.98604 0.0
O101 O 1.00183 0.3294 0.02065 0.0
O102 O 0.05736 0.28988 0.94036 0.0
O103 O 0.99572 0.23841 0.01627 0.0
O104 O 0.02794 0.24431 0.98336 0.0
C105 C 0.02111 0.34692 0.00739 0.0
C106 C 0.95393 0.27704 0.9328 0.0
O107 O 0.9816 0.28048 0.92829 0.0
O108 O 0.94833 0.2738 0.96087 0.0
C109 C 0.05885 0.2967 0.91258 0.0
O110 O 0.03496 0.30164 0.89537 0.0
C111 C 0.01558 0.22832 0.00331 0.0
Zn112 Zn 0.44587 1.00036 0.33744 0.0
Zn113 Zn 0.40877 0.047 0.32921 0.0
O114 O 0.43394 0.05317 0.37205 0.0
O115 O 0.41735 1.00446 0.37 0.0
O116 O 0.38669 0.07696 0.33373 0.0
O117 O 0.45303 0.01851 0.29729 0.0
O118 O 0.42989 0.05515 0.29324 0.0
C119 C 0.42911 0.03069 0.3867 0.0
C120 C 0.37777 0.9802 0.31583 0.0
O121 O 0.37671 1.00723 0.31414 0.0
O122 O 0.4021 0.97396 0.32767 0.0
C123 C 0.35949 0.0693 0.33869 0.0
O124 O 0.34784 0.04203 0.34538 0.0
C125 C 0.44618 0.03903 0.28282 0.0
Zn126 Zn 0.25224 0.23807 0.5226 0.0
Zn127 Zn 0.28687 0.20383 0.52639 0.0
O128 O 0.29475 0.223 0.48386 0.0
O129 O 0.26733 0.25575 0.48381 0.0
O130 O 0.32045 0.18411 0.53229 0.0
O131 O 0.26664 0.26047 0.56952 0.0
O132 O 0.29466 0.22852 0.57376 0.0
C133 C 0.28546 0.24345 0.47071 0.0
C134 C 0.22023 0.17235 0.51716 0.0
O135 O 0.24712 0.16891 0.52084 0.0
O136 O 0.21669 0.19881 0.51581 0.0
C137 C 0.32296 0.16002 0.51584 0.0
O138 O 0.30079 0.14421 0.49193 0.0
C139 C 0.28459 0.24966 0.58707 0.0
Zn140 Zn 0.12163 0.11209 0.80734 0.0
Zn141 Zn 0.15081 0.07184 0.80485 0.0
O142 O 0.13062 0.06383 0.84679 0.0
O143 O 0.10387 0.09717 0.84643 0.0
O144 O 0.17705 0.04348 0.801 0.0
O145 O 0.10172 0.09762 0.759 0.0
O146 O 0.12442 0.06083 0.75749 0.0
C147 C 0.11246 0.07674 0.85979 0.0
C148 C 0.18519 0.14053 0.81331 0.0
O149 O 0.18509 0.11247 0.80917 0.0
O150 O 0.16049 0.14758 0.81519 0.0
C151 C 0.18379 0.02497 0.81863 0.0
O152 O 0.17094 0.0205 0.84393 0.0
C153 C 0.10747 0.07506 0.74292 0.0
Zn154 Zn 0.35845 0.92808 0.00467 0.0
Zn155 Zn 0.32083 0.95159 1.00024 0.0
O156 O 0.31677 0.92776 0.95592 0.0
O157 O 0.36641 0.93714 0.96135 0.0
O158 O 0.28764 0.97088 0.99883 0.0
O159 O 0.32845 0.88872 0.00785 0.0
O160 O 0.31588 0.92536 0.03552 0.0
C161 C 0.34029 0.92765 0.9434 0.0
C162 C 0.38158 0.98384 0.03492 0.0
O163 O 0.3611 0.98552 0.01227 0.0
O164 O 0.37841 0.95884 0.04526 0.0
C165 C 0.29199 0.99816 0.9939 0.0
O166 O 0.31812 0.01259 0.98673 0.0
C167 C 0.31882 0.8983 0.03245 0.0
Zn168 Zn 0.36516 0.36487 0.05878 0.0
Zn169 Zn 0.32836 0.39743 0.05642 0.0
O170 O 0.31906 0.37277 0.00863 0.0
O171 O 0.35042 0.34387 0.01166 0.0
O172 O 0.29567 0.41933 0.05437 0.0
O173 O 0.35116 0.34547 0.09662 0.0
O174 O 0.32138 0.37598 0.09769 0.0
C175 C 0.33059 0.35306 0.99473 0.0
C176 C 0.3962 0.42968 0.06579 0.0
O177 O 0.36889 0.43203 0.062 0.0
O178 O 0.4008 0.40365 0.0669 0.0
C179 C 0.29842 0.44341 0.04194 0.0
O180 O 0.32375 0.45492 0.03149 0.0
C181 C 0.33203 0.35586 0.11 0.0
Zn182 Zn 0.75709 0.17211 0.08483 0.0
Zn183 Zn 0.79332 0.1467 0.08713 0.0
O184 O 0.79673 0.16926 0.04917 0.0
O185 O 0.78746 0.20878 0.07575 0.0
O186 O 0.82496 0.12627 0.08729 0.0
O187 O 0.75513 0.16232 0.12993 0.0
O188 O 0.80387 0.17485 0.1298 0.0
C189 C 0.79581 0.19692 0.05122 0.0
C190 C 0.7319 0.11556 0.05638 0.0
O191 O 0.75222 0.11451 0.07955 0.0
O192 O 0.73386 0.14052 0.04626 0.0
C193 C 0.81921 0.0976 0.07915 0.0
O194 O 0.79066 0.08047 0.07326 0.0
C195 C 0.78215 0.17474 0.14506 0.0
Zn196 Zn 0.18619 0.60372 0.2451 0.0
Zn197 Zn 0.20958 0.56546 0.24948 0.0
O198 O 0.17844 0.55433 0.27774 0.0
O199 O 0.18464 0.60347 0.29231 0.0
O200 O 0.22928 0.53388 0.24994 0.0
O201 O 0.15153 0.57613 0.21422 0.0
O202 O 0.19081 0.56042 0.20272 0.0
C203 C 0.17539 0.57623 0.29722 0.0
C204 C 0.24379 0.62526 0.25092 0.0
O205 O 0.24123 0.60581 0.26959 0.0
O206 O 0.22405 0.61914 0.22552 0.0
C207 C 0.25758 0.53699 0.25158 0.0
O208 O 0.2762 0.56412 0.25185 0.0
C209 C 0.16397 0.56266 0.19448 0.0
Zn210 Zn 0.86056 0.86051 0.55582 0.0
Zn211 Zn 0.82724 0.89553 0.55323 0.0
O212 O 0.81984 0.87108 0.50591 0.0
O213 O 0.84621 0.83765 0.50981 0.0
O214 O 0.79408 0.91591 0.54596 0.0
O215 O 0.84646 0.84258 0.59404 0.0
O216 O 0.81869 0.87508 0.59498 0.0
C217 C 0.82894 0.84927 0.49249 0.0
C218 C 0.89428 0.92562 0.56296 0.0
O219 O 0.8678 0.9301 0.56024 0.0
O220 O 0.89662 0.89858 0.56261 0.0
C221 C 0.78889 0.9375 0.56418 0.0
O222 O 0.80713 0.94938 0.59219 0.0
C223 C 0.8282 0.85435 0.60743 0.0
Zn224 Zn 0.99419 0.99265 0.27246 0.0
Zn225 Zn 0.96075 0.02863 0.27265 0.0
O226 O 0.98348 0.03716 0.3209 0.0
O227 O 1.01455 1.00792 0.31999 0.0
O228 O 0.94058 0.0624 0.27465 0.0
O229 O 1.01429 1.00719 0.23507 0.0
O230 O 0.98368 0.03678 0.23262 0.0
C231 C 1.0036 0.02661 0.3359 0.0
C232 C 0.92877 0.96102 0.26399 0.0
O233 O 0.92589 0.98815 0.26651 0.0
O234 O 0.95512 0.9569 0.26418 0.0
C235 C 0.91227 0.05965 0.27378 0.0
O236 O 0.89313 0.03219 0.27019 0.0
C237 C 1.00445 0.02672 0.22142 0.0
Zn238 Zn 0.24102 0.67905 0.56819 0.0
Zn239 Zn 0.2931 0.65419 0.58885 0.0
O240 O 0.30326 0.68035 0.55438 0.0
O241 O 0.25647 0.65917 0.52964 0.0
O242 O 0.32555 0.63485 0.5921 0.0
O243 O 0.25438 0.68623 0.6178 0.0
O244 O 0.29922 0.67775 0.63087 0.0
C245 C 0.2841 0.67136 0.52821 0.0
C246 C 0.23132 0.61587 0.55786 0.0
O247 O 0.2523 0.6211 0.58244 0.0
O248 O 0.2325 0.6361 0.54005 0.0
C249 C 0.32221 0.60633 0.58778 0.0
O250 O 0.29497 0.58731 0.58579 0.0
C251 C 0.27696 0.68627 0.63898 0.0
Zn252 Zn 0.49459 0.49579 0.77343 0.0
Zn253 Zn 0.46088 0.5312 0.77355 0.0
O254 O 0.48513 0.54143 0.82174 0.0
O255 O 0.51355 0.50939 0.8211 0.0
O256 O 0.43835 0.56339 0.77374 0.0
O257 O 0.51531 0.51093 0.7368 0.0
O258 O 0.483 0.53873 0.733 0.0
C259 C 0.50433 0.5297 0.83667 0.0
C260 C 0.43017 0.46293 0.76504 0.0
O261 O 0.42683 0.48989 0.76822 0.0
O262 O 0.45665 0.45948 0.76444 0.0
C263 C 0.41234 0.55974 0.78199 0.0
O264 O 0.39922 0.53369 0.79049 0.0
C265 C 0.50442 0.52942 0.72237 0.0
Zn266 Zn 0.66786 0.09084 0.74835 0.0
Zn267 Zn 0.69871 0.0584 0.74464 0.0
O268 O 0.67325 0.04868 0.77951 0.0
O269 O 0.688 0.09787 0.79524 0.0
O270 O 0.71774 0.02586 0.74316 0.0
O271 O 0.68095 0.1024 0.7065 0.0
O272 O 0.67667 0.05357 0.69914 0.0
C273 C 0.68003 0.07148 0.80222 0.0
C274 C 0.72808 0.12352 0.75159 0.0
O275 O 0.73254 0.09922 0.76014 0.0
O276 O 0.70188 0.12284 0.73621 0.0
C277 C 0.74526 0.02826 0.74072 0.0
O278 O 0.76208 0.05352 0.73365 0.0
C279 C 0.67607 0.0774 0.68721 0.0
Zn280 Zn 0.74808 0.73854 0.02149 0.0
Zn281 Zn 0.78536 0.70611 0.02391 0.0
O282 O 0.79232 0.72657 0.98209 0.0
O283 O 0.76069 0.75518 0.9813 0.0
O284 O 0.81933 0.68627 0.02813 0.0
O285 O 0.76338 0.76089 0.06882 0.0
O286 O 0.79262 0.72987 0.07144 0.0
C287 C 0.7802 0.74503 0.96833 0.0
C288 C 0.71837 0.67305 0.01561 0.0
O289 O 0.74571 0.67083 0.01825 0.0
O290 O 0.71335 0.69898 0.01503 0.0
C291 C 0.81829 0.6596 0.01444 0.0
O292 O 0.79274 0.64219 0.99588 0.0
C293 C 0.78186 0.75004 0.08565 0.0
Zn294 Zn 0.92772 0.50169 0.81616 0.0
Zn295 Zn 0.90202 0.53695 0.82878 0.0
O296 O 0.93281 0.54218 0.86867 0.0
O297 O 0.9302 0.4934 0.8612 0.0
O298 O 0.88203 0.56893 0.83721 0.0
O299 O 0.96145 0.53425 0.80572 0.0
O300 O 0.91914 0.54482 0.78793 0.0
C301 C 0.93763 0.51908 0.87972 0.0
C302 C 0.86876 0.47563 0.7981 0.0
O303 O 0.87028 0.49574 0.82224 0.0
O304 O 0.89027 0.47997 0.78227 0.0
C305 C 0.85469 0.56262 0.84183 0.0
O306 O 0.84129 0.53502 0.84654 0.0
C307 C 0.94652 0.54537 0.78544 0.0
Zn308 Zn 0.85913 0.42828 0.51456 0.0
Zn309 Zn 0.82416 0.45553 0.5022 0.0
O310 O 0.8166 0.42388 0.46264 0.0
O311 O 0.86409 0.42177 0.46862 0.0
O312 O 0.79068 0.47419 0.49518 0.0
O313 O 0.82811 0.39683 0.5296 0.0
O314 O 0.81795 0.44004 0.54384 0.0
C315 C 0.83796 0.41599 0.45106 0.0
C316 C 0.88651 0.48847 0.53119 0.0
O317 O 0.86535 0.48738 0.50784 0.0
O318 O 0.88387 0.46612 0.54607 0.0
C319 C 0.79488 0.50198 0.49248 0.0
O320 O 0.82168 0.51781 0.48804 0.0
C321 C 0.81736 0.41315 0.54854 0.0
Zn322 Zn 0.6166 0.60871 0.30474 0.0
Zn323 Zn 0.64917 0.57218 0.30594 0.0
O324 O 0.62776 0.56478 0.34698 0.0
O325 O 0.60175 0.59869 0.34691 0.0
O326 O 0.66848 0.53811 0.30124 0.0
O327 O 0.59177 0.59052 0.25888 0.0
O328 O 0.62643 0.56543 0.25756 0.0
C329 C 0.61026 0.57829 0.36034 0.0
C330 C 0.68268 0.63774 0.30963 0.0
O331 O 0.68534 0.61126 0.31299 0.0
O332 O 0.65635 0.64229 0.30553 0.0
C333 C 0.6938 0.53737 0.31713 0.0
O334 O 0.70923 0.56047 0.34015 0.0
C335 C 0.60444 0.57368 0.24273 0.0
C336 C 0.99601 0.96056 0.99545 0.0
C337 C 0.96809 0.93487 0.03346 0.0
C338 C 0.98603 0.96165 0.02512 0.0
C339 C 0.96044 0.90699 0.01202 0.0
C340 C 0.98805 0.93241 0.97396 0.0
C341 C 0.9706 0.90572 0.98255 0.0
N342 N 1.01275 0.98684 0.98731 0.0
C343 C 0.01919 0.98664 0.95683 0.0
C344 C 0.99747 0.93186 0.94414 0.0
C345 C 1.01227 0.95915 0.93511 0.0
Gd346 Gd 0.10039 0.0716 0.05711 0.0
Gd347 Gd 0.01807 0.03123 0.02472 0.0
N348 N 0.99406 0.98883 0.04593 0.0
C349 C 0.95832 0.93683 0.06321 0.0
C350 C 0.984 0.99093 0.07463 0.0
C351 C 0.96641 0.965 0.08393 0.0
H352 H 0.98779 0.0128 0.0894 0.0
H353 H 0.95854 0.9669 0.10674 0.0
H354 H 0.13225 0.08712 0.99204 0.0
H355 H 0.02807 1.00747 0.94813 0.0
H356 H 0.16153 0.13213 0.97332 0.0
H357 H 0.94449 0.91674 0.07037 0.0
H358 H 0.94674 0.88619 0.01806 0.0
H359 H 0.0883 0.09882 0.13194 0.0
H360 H 0.993 0.91046 0.92786 0.0
H361 H 0.01788 0.95911 0.9112 0.0
H362 H 0.1703 0.21599 0.05749 0.0
H363 H 0.96464 0.88386 0.96656 0.0
H364 H 0.12094 0.19599 0.14695 0.0
H365 H 0.09582 0.14851 0.16546 0.0
N366 N 0.1052 0.11728 0.09235 0.0
C367 C 0.12196 0.14299 0.08326 0.0
C368 C 0.09735 0.11897 0.12225 0.0
C369 C 0.1174 0.174 0.1319 0.0
C370 C 0.10265 0.14731 0.14208 0.0
C371 C 0.12823 0.17203 0.10282 0.0
H372 H 0.14971 0.22074 0.10736 0.0
N373 N 0.12525 0.1127 0.03444 0.0
C374 C 0.1329 0.14052 0.05415 0.0
C375 C 0.16109 0.16364 0.01546 0.0
C376 C 0.15084 0.16678 0.04489 0.0
C377 C 0.13571 0.10948 0.006 0.0
C378 C 0.15336 0.13488 0.99589 0.0
O379 O 0.04374 0.99787 0.04739 0.0
O380 O 0.09563 0.01904 0.05309 0.0
O381 O 0.1464 0.07427 0.05134 0.0
O382 O 0.13601 0.07903 0.0995 0.0
O383 O 0.02616 0.05687 0.07594 0.0
O384 O 0.07309 0.05129 0.09398 0.0
O385 O 0.07381 0.10505 0.03559 0.0
O386 O 0.02213 0.08355 0.03122 0.0
O387 O 0.97181 0.0283 0.03025 0.0
O388 O 0.98296 0.02418 0.98235 0.0
O389 O 0.09166 0.04522 0.00603 0.0
O390 O 0.04579 0.05316 0.98885 0.0
C391 C 0.07216 0.99501 0.0533 0.0
C392 C 0.046 0.0531 0.09943 0.0
C393 C 0.17776 0.05946 0.09037 0.0
C394 C 0.21732 0.03718 0.07548 0.0
C395 C 0.20161 0.03256 0.12722 0.0
C396 C 0.18033 0.04883 0.11988 0.0
C397 C 0.22008 0.02668 0.1051 0.0
C398 C 0.1966 0.05391 0.06856 0.0
C399 C 0.15687 0.07761 0.08203 0.0
C400 C 0.15702 0.19553 0.06452 0.0
C401 C 0.14531 0.1982 0.09303 0.0
H402 H 0.17477 0.18333 0.00751 0.0
C403 C 0.04523 0.1078 0.03085 0.0
C404 C 0.07235 0.05023 0.98293 0.0
C405 C 0.94141 0.04374 0.99036 0.0
C406 C 0.90192 0.06639 0.00349 0.0
C407 C 0.91464 0.06556 0.95021 0.0
C408 C 0.93678 0.05065 0.95906 0.0
C409 C 0.89695 0.07326 0.97236 0.0
C410 C 0.92406 0.05198 0.01254 0.0
C411 C 0.96187 0.02546 0.99945 0.0
H412 H 0.2038 0.02451 0.15005 0.0
H413 H 0.16622 0.05329 0.13728 0.0
H414 H 0.23636 0.01386 0.11102 0.0
H415 H 0.19553 0.06304 0.04621 0.0
H416 H 0.9108 0.07063 0.92603 0.0
H417 H 0.94974 0.04402 0.94134 0.0
H418 H 0.87932 0.08422 0.96525 0.0
H419 H 0.92685 0.04623 0.03661 0.0
C420 C 0.34101 0.74615 0.22356 0.0
C421 C 0.29381 0.7145 0.18898 0.0
C422 C 0.31002 0.74129 0.21153 0.0
C423 C 0.30882 0.69252 0.1797 0.0
C424 C 0.35634 0.7245 0.21361 0.0
C425 C 0.34001 0.69752 0.19196 0.0
N426 N 0.35642 0.77245 0.24436 0.0
C427 C 0.38728 0.77947 0.25458 0.0
C428 C 0.38785 0.73089 0.22529 0.0
C429 C 0.40345 0.75868 0.24562 0.0
Gd430 Gd 0.28087 0.8069 0.33215 0.0
Gd431 Gd 0.3283 0.80571 0.25999 0.0
N432 N 0.29623 0.76331 0.22066 0.0
C433 C 0.26324 0.71098 0.1755 0.0
C434 C 0.26724 0.76095 0.20498 0.0
C435 C 0.25011 0.73459 0.18312 0.0
H436 H 0.25725 0.77947 0.2073 0.0
H437 H 0.22702 0.73294 0.17139 0.0
H438 H 0.35461 0.84288 0.37682 0.0
H439 H 0.39951 0.80138 0.26921 0.0
H440 H 0.37761 0.88252 0.42362 0.0
H441 H 0.25006 0.6908 0.15808 0.0
H442 H 0.29668 0.67187 0.16247 0.0
H443 H 0.21206 0.8159 0.30692 0.0
H444 H 0.40045 0.71485 0.2182 0.0
H445 H 0.42793 0.76423 0.25414 0.0
H446 H 0.29745 0.92755 0.44384 0.0
H447 H 0.35141 0.68061 0.18411 0.0
H448 H 0.2012 0.89108 0.37063 0.0
H449 H 0.1807 0.84958 0.32305 0.0
N450 N 0.25037 0.83877 0.34429 0.0
C451 C 0.2622 0.86137 0.37047 0.0
C452 C 0.22157 0.8344 0.32724 0.0
C453 C 0.2152 0.87649 0.3635 0.0
C454 C 0.20359 0.85321 0.33654 0.0
C455 C 0.24482 0.88086 0.3808 0.0
H456 H 0.24454 0.91952 0.41594 0.0
N457 N 0.30956 0.84888 0.37321 0.0
C458 C 0.29237 0.86613 0.38583 0.0
C459 C 0.33621 0.89569 0.4265 0.0
C460 C 0.30543 0.89026 0.41244 0.0
C461 C 0.34001 0.85505 0.38642 0.0
C462 C 0.35358 0.87813 0.41327 0.0
O463 O 0.319 0.76264 0.27988 0.0
O464 O 0.276 0.77206 0.28929 0.0
O465 O 0.28277 0.78224 0.37144 0.0
O466 O 0.238 0.78268 0.34514 0.0
O467 O 0.28385 0.8205 0.2498 0.0
O468 O 0.2506 0.79817 0.28175 0.0
O469 O 0.29083 0.85118 0.31607 0.0
O470 O 0.3337 0.84404 0.30105 0.0
O471 O 0.3305 0.82101 0.21462 0.0
O472 O 0.37044 0.83827 0.25403 0.0
O473 O 0.32698 0.79532 0.34506 0.0
O474 O 0.35956 0.80644 0.3079 0.0
C475 C 0.29327 0.75369 0.28955 0.0
C476 C 0.25608 0.81296 0.25735 0.0
C477 C 0.23856 0.75676 0.39109 0.0
C478 C 0.24435 0.72964 0.43515 0.0
C479 C 0.19557 0.73922 0.41751 0.0
C480 C 0.20795 0.75426 0.39389 0.0
C481 C 0.21373 0.72677 0.43815 0.0
C482 C 0.25663 0.74442 0.41176 0.0
C483 C 0.25315 0.77502 0.36942 0.0
C484 C 0.28775 0.90896 0.42349 0.0
C485 C 0.25762 0.90441 0.40759 0.0
H486 H 0.34697 0.91387 0.44703 0.0
C487 C 0.31436 0.86052 0.30292 0.0
C488 C 0.35414 0.79836 0.33604 0.0
C489 C 0.37458 0.85583 0.20275 0.0
C490 C 0.37176 0.87653 0.15332 0.0
C491 C 0.41908 0.89257 0.19264 0.0
C492 C 0.40524 0.87346 0.21258 0.0
C493 C 0.40238 0.89417 0.16301 0.0
C494 C 0.35803 0.85729 0.17294 0.0
C495 C 0.35865 0.83789 0.22422 0.0
H496 H 0.17202 0.73729 0.41987 0.0
H497 H 0.19394 0.76445 0.37841 0.0
H498 H 0.20395 0.71473 0.45616 0.0
H499 H 0.28031 0.7461 0.40974 0.0
H500 H 0.44266 0.90631 0.20025 0.0
H501 H 0.41826 0.87283 0.23575 0.0
H502 H 0.41321 0.90916 0.14775 0.0
H503 H 0.33421 0.84404 0.16513 0.0
C504 C 0.62321 0.10346 0.48327 0.0
C505 C 0.66287 0.14229 0.52213 0.0
C506 C 0.64015 0.11382 0.51449 0.0
C507 C 0.66706 0.16101 0.4986 0.0
C508 C 0.62901 0.12136 0.45905 0.0
C509 C 0.65019 0.15057 0.46714 0.0
N510 N 0.603 0.07497 0.47598 0.0
C511 C 0.59141 0.06149 0.44438 0.0
C512 C 0.61437 0.10887 0.42712 0.0
C513 C 0.59612 0.07853 0.41965 0.0
Gd514 Gd 0.5139 0.0446 0.56862 0.0
Gd515 Gd 0.59316 0.05195 0.52129 0.0
N516 N 0.63569 0.09531 0.53689 0.0
C517 C 0.68135 0.15072 0.55293 0.0
C518 C 0.65551 0.10218 0.56576 0.0
C519 C 0.67808 0.13022 0.57459 0.0
H520 H 0.65472 0.08583 0.58169 0.0
H521 H 0.69322 0.13578 0.59789 0.0
H522 H 0.46569 1.01059 0.49918 0.0
H523 H 0.57774 0.0378 0.43821 0.0
H524 H 0.42464 0.96249 0.47816 0.0
H525 H 0.69901 0.1724 0.55973 0.0
H526 H 0.68405 0.18315 0.50419 0.0
H527 H 0.53481 0.04573 0.64947 0.0
H528 H 0.61815 0.12195 0.40786 0.0
H529 H 0.5858 0.06821 0.39483 0.0
H530 H 0.41704 0.91153 0.56971 0.0
H531 H 0.65453 0.16481 0.44892 0.0
H532 H 0.48303 0.96153 0.67042 0.0
H533 H 0.52227 0.01148 0.6881 0.0
N534 N 0.5049 0.01455 0.60879 0.0
C535 C 0.48198 0.9879 0.5989 0.0
C536 C 0.51863 0.02351 0.64064 0.0
C537 C 0.48884 0.97627 0.65295 0.0
C538 C 0.51113 1.00436 0.663 0.0
C539 C 0.47369 0.96787 0.62071 0.0
H540 H 0.44379 0.92464 0.62629 0.0
N541 N 0.47468 1.00019 0.54621 0.0
C542 C 0.46638 0.98061 0.56689 0.0
C543 C 0.42791 0.94639 0.52367 0.0
C544 C 0.44286 0.953 0.55602 0.0
C545 C 0.45978 0.9943 0.51492 0.0
C546 C 0.43632 0.96721 0.50308 0.0
O547 O 0.5885 0.0996 0.54458 0.0
O548 O 0.54121 0.09414 0.5626 0.0
O549 O 0.47329 0.05936 0.55257 0.0
O550 O 0.49439 0.06671 0.60412 0.0
O551 O 0.56782 0.04717 0.56002 0.0
O552 O 0.55568 0.06072 0.60557 0.0
O553 O 0.52447 0.99754 0.55337 0.0
O554 O 0.56151 1.00264 0.51972 0.0
O555 O 0.63196 0.03735 0.54275 0.0
O556 O 0.6056 0.01569 0.4946 0.0
O557 O 0.52008 0.0461 0.5185 0.0
O558 O 0.55335 0.04635 0.48374 0.0
C559 C 0.56706 0.11148 0.55542 0.0
C560 C 0.57689 0.05684 0.5906 0.0
C561 C 0.44981 0.08401 0.59237 0.0
C562 C 0.4117 0.11071 0.58036 0.0
C563 C 0.42694 0.10393 0.63537 0.0
C564 C 0.44722 0.08842 0.6251 0.0
C565 C 0.4093 0.1152 0.61312 0.0
C566 C 0.4317 0.09482 0.56985 0.0
C567 C 0.47274 0.06982 0.58253 0.0
C568 C 0.43502 0.93288 0.57764 0.0
C569 C 0.45033 0.94032 0.60986 0.0
H570 H 0.40972 0.92539 0.51442 0.0
C571 C 0.54031 0.98546 0.53354 0.0
C572 C 0.52671 0.04705 0.48994 0.0
C573 C 0.65658 0.01506 0.5046 0.0
C574 C 0.69904 0.9927 0.50708 0.0
C575 C 0.68532 0.016 0.46098 0.0
C576 C 0.66189 0.02356 0.47485 0.0
C577 C 0.70375 1.00046 0.47689 0.0
C578 C 0.67527 0.99992 0.52073 0.0
C579 C 0.62909 0.01737 0.51675 0.0
H580 H 0.42513 0.10747 0.66061 0.0
H581 H 0.46106 0.08014 0.64284 0.0
H582 H 0.3938 0.12753 0.62143 0.0
H583 H 0.43385 0.09189 0.54461 0.0
H584 H 0.68902 0.02191 0.43773 0.0
H585 H 0.64734 0.03503 0.46187 0.0
H586 H 0.7219 0.9948 0.4658 0.0
H587 H 0.67052 0.9927 0.54326 0.0
C588 C 0.23905 0.33053 0.7236 0.0
C589 C 0.20233 0.28308 0.69496 0.0
C590 C 0.22538 0.29939 0.72162 0.0
C591 C 0.19396 0.29827 0.66995 0.0
C592 C 0.23022 0.34598 0.69887 0.0
C593 C 0.2078 0.32965 0.67194 0.0
N594 N 0.26112 0.34566 0.7496 0.0
C595 C 0.27474 0.37633 0.7528 0.0
C596 C 0.24449 0.37737 0.70175 0.0
C597 C 0.26678 0.3926 0.7289 0.0
Gd598 Gd 0.34302 0.28443 0.79508 0.0
Gd599 Gd 0.27254 0.3166 0.78858 0.0
N600 N 0.23408 0.28528 0.74617 0.0
C601 C 0.18773 0.25222 0.69471 0.0
C602 C 0.21772 0.25626 0.74749 0.0
C603 C 0.19503 0.23894 0.72145 0.0
H604 H 0.22085 0.2469 0.76914 0.0
H605 H 0.18258 0.21567 0.72244 0.0
H606 H 0.38775 0.35799 0.82156 0.0
H607 H 0.29108 0.3885 0.77424 0.0
H608 H 0.42566 0.38727 0.86898 0.0
H609 H 0.16987 0.2389 0.67471 0.0
H610 H 0.17642 0.28608 0.64921 0.0
H611 H 0.32096 0.21264 0.80911 0.0
H612 H 0.2384 0.39005 0.68322 0.0
H613 H 0.27765 0.41694 0.73157 0.0
H614 H 0.43584 0.31265 0.93594 0.0
H615 H 0.20092 0.34111 0.65258 0.0
H616 H 0.37312 0.20929 0.89985 0.0
H617 H 0.33354 0.18343 0.85145 0.0
N618 N 0.35213 0.25483 0.834 0.0
C619 C 0.37427 0.26953 0.86015 0.0
C620 C 0.33767 0.22433 0.83053 0.0
C621 C 0.36749 0.22232 0.88148 0.0
C622 C 0.34503 0.20764 0.85427 0.0
C623 C 0.3824 0.2536 0.88473 0.0
H624 H 0.41135 0.25746 0.93098 0.0
N625 N 0.37884 0.31604 0.83952 0.0
C626 C 0.388 0.30093 0.86301 0.0
C627 C 0.42363 0.34826 0.89275 0.0
C628 C 0.41035 0.31678 0.89045 0.0
C629 C 0.39275 0.34645 0.84108 0.0
C630 C 0.41493 0.36309 0.86784 0.0
O631 O 0.28789 0.30506 0.74064 0.0
O632 O 0.3095 0.2659 0.74755 0.0
O633 O 0.3842 0.29748 0.77422 0.0
O634 O 0.3646 0.2498 0.78003 0.0
O635 O 0.26936 0.27214 0.80831 0.0
O636 O 0.29818 0.24798 0.78026 0.0
O637 O 0.32554 0.29461 0.84206 0.0
O638 O 0.30863 0.33589 0.83362 0.0
O639 O 0.23444 0.30461 0.81488 0.0
O640 O 0.25146 0.35104 0.80456 0.0
O641 O 0.34598 0.32677 0.77265 0.0
O642 O 0.31769 0.35385 0.79765 0.0
C643 C 0.29788 0.28224 0.72858 0.0
C644 C 0.27587 0.24708 0.79638 0.0
C645 C 0.41017 0.25969 0.75682 0.0
C646 C 0.45236 0.26921 0.72771 0.0
C647 C 0.43441 0.21963 0.74346 0.0
C648 C 0.4124 0.22976 0.75753 0.0
C649 C 0.45423 0.23917 0.72847 0.0
C650 C 0.43043 0.27962 0.74213 0.0
C651 C 0.38602 0.26931 0.77052 0.0
C652 C 0.4187 0.30083 0.91474 0.0
C653 C 0.40478 0.26937 0.9119 0.0
H654 H 0.44089 0.36123 0.91342 0.0
C655 C 0.31716 0.31872 0.85343 0.0
C656 C 0.33982 0.35274 0.78137 0.0
C657 C 0.20934 0.34343 0.83292 0.0
C658 C 0.16662 0.33557 0.86144 0.0
C659 C 0.18763 0.3853 0.84745 0.0
C660 C 0.2089 0.37405 0.83322 0.0
C661 C 0.16661 0.36621 0.86155 0.0
C662 C 0.18799 0.32397 0.84707 0.0
C663 C 0.23186 0.3325 0.81713 0.0
H664 H 0.43599 0.19652 0.74402 0.0
H665 H 0.39704 0.21408 0.76885 0.0
H666 H 0.47119 0.23089 0.71753 0.0
H667 H 0.42878 0.3027 0.74124 0.0
H668 H 0.18732 0.40883 0.84737 0.0
H669 H 0.22493 0.38942 0.82226 0.0
H670 H 0.14993 0.37523 0.87223 0.0
H671 H 0.1878 0.30019 0.84675 0.0
C672 C 0.02742 0.11681 0.60713 0.0
C673 C 0.07359 0.15623 0.63479 0.0
C674 C 0.05796 0.13238 0.60868 0.0
C675 C 0.05831 0.16362 0.65972 0.0
C676 C 1.01167 0.12514 0.63148 0.0
C677 C 0.02742 0.14816 0.65804 0.0
N678 N 1.0126 0.09492 0.58092 0.0
C679 C 0.98159 0.0825 0.57633 0.0
C680 C 0.98026 0.11087 0.62786 0.0
C681 C 0.96507 0.08982 0.5999 0.0
Gd682 Gd 0.07301 0.01273 0.53213 0.0
Gd683 Gd 0.04223 0.08555 0.54213 0.0
N684 N 0.0723 0.12452 0.58439 0.0
C685 C 0.10407 0.17206 0.63493 0.0
C686 C 0.10131 0.14126 0.58334 0.0
C687 C 0.11788 0.16472 0.60891 0.0
H688 H 0.11167 0.13669 0.56279 0.0
H689 H 0.14113 0.17739 0.60832 0.0
H690 H 0.99823 0.96932 0.50583 0.0
H691 H 0.96927 0.06809 0.55383 0.0
H692 H 0.968 0.9329 0.4579 0.0
H693 H 0.11691 0.19035 0.65466 0.0
H694 H 0.07001 0.18165 0.68011 0.0
H695 H 0.14365 0.03597 0.51658 0.0
H696 H 0.96731 0.1168 0.64591 0.0
H697 H 0.94052 0.07974 0.59612 0.0
H698 H 0.04049 0.92504 0.38888 0.0
H699 H 0.01571 0.15467 0.67706 0.0
H700 H 0.14426 0.98697 0.42404 0.0
H701 H 0.17151 0.0247 0.47322 0.0
N702 N 0.1006 1.00678 0.49118 0.0
C703 C 0.08522 0.98525 0.46485 0.0
C704 C 0.13122 0.02053 0.49466 0.0
C705 C 0.13175 0.9923 0.44275 0.0
C706 C 0.1472 0.01374 0.47038 0.0
C707 C 0.10044 0.97769 0.43973 0.0
H708 H 0.09548 0.94962 0.39306 0.0
N709 N 0.03976 0.97863 0.48742 0.0
C710 C 0.054 0.97104 0.46273 0.0
C711 C 1.00623 0.93584 0.43331 0.0
C712 C 0.03754 0.94938 0.43509 0.0
C713 C 1.00937 0.96485 0.48603 0.0
C714 C 0.99211 0.94363 0.45887 0.0
O715 O 0.07428 0.07983 0.58627 0.0
O716 O 0.06608 0.02795 0.58286 0.0
O717 O 0.06851 0.96522 0.53614 0.0
O718 O 0.11215 0.99976 0.55447 0.0
O719 O 0.08375 0.08752 0.51952 0.0
O720 O 0.1098 0.05856 0.54571 0.0
O721 O 0.06223 0.03356 0.48778 0.0
O722 O 0.0206 0.04873 0.49782 0.0
O723 O 0.05384 0.11943 0.51028 0.0
O724 O 1.01157 0.11233 0.53002 0.0
O725 O 0.03043 1.00671 0.55362 0.0
O726 O 1.00457 0.04099 0.53758 0.0
C727 C 0.07367 0.05562 0.60019 0.0
C728 C 0.10955 0.08188 0.53054 0.0
C729 C 0.1036 0.95397 0.57668 0.0
C730 C 0.0893 0.91262 0.60707 0.0
C731 C 0.1428 0.94024 0.61167 0.0
C732 C 0.13451 0.95843 0.59015 0.0
C733 C 0.12036 0.91741 0.62006 0.0
C734 C 0.08077 0.93087 0.58524 0.0
C735 C 0.09685 0.97091 0.55072 0.0
C736 C 0.05276 0.94179 0.41015 0.0
C737 C 0.08409 0.95581 0.41251 0.0
H738 H 0.99281 0.91913 0.41246 0.0
C739 C 0.03694 0.04041 0.47716 0.0
C740 C 1.00554 0.01605 0.54961 0.0
C741 C 0.01942 0.15097 0.49657 0.0
C742 C 0.02762 0.1906 0.46321 0.0
C743 C 0.98186 0.17928 0.48708 0.0
C744 C 0.99155 0.15683 0.50109 0.0
C745 C 0.99971 0.19606 0.46826 0.0
C746 C 0.0377 0.16809 0.47765 0.0
C747 C 0.02884 0.12742 0.51254 0.0
H748 H 0.16675 0.94352 0.62147 0.0
H749 H 0.15245 0.97547 0.58325 0.0
H750 H 0.12727 0.90314 0.63648 0.0
H751 H 0.05682 0.92657 0.57455 0.0
H752 H 0.96049 0.18377 0.49094 0.0
H753 H 0.97717 0.14417 0.5157 0.0
H754 H 0.99186 0.21376 0.45793 0.0
H755 H 0.05936 0.16401 0.47418 0.0
C756 C 0.24548 0.7324 0.84825 0.0
C757 C 0.20957 0.68994 0.80941 0.0
C758 C 0.2367 0.71446 0.81718 0.0
C759 C 0.19118 0.68377 0.83272 0.0
C760 C 0.22733 0.72535 0.87187 0.0
C761 C 0.20015 0.70121 0.86387 0.0
N762 N 0.27203 0.75577 0.85577 0.0
C763 C 0.28267 0.77111 0.88687 0.0
C764 C 0.23719 0.74243 0.90315 0.0
C765 C 0.26514 0.76509 0.91075 0.0
Gd766 Gd 0.30804 0.84218 0.76806 0.0
Gd767 Gd 0.29892 0.76084 0.8131 0.0
N768 N 0.25496 0.72032 0.79487 0.0
C769 C 0.20212 0.67167 0.77866 0.0
C770 C 0.24933 0.70085 0.76617 0.0
C771 C 0.22238 0.67684 0.75714 0.0
H772 H 0.26609 0.70283 0.75086 0.0
H773 H 0.2177 0.66183 0.734 0.0
H774 H 0.34095 0.89849 0.83182 0.0
H775 H 0.305 0.78742 0.89406 0.0
H776 H 0.39081 0.93681 0.85226 0.0
H777 H 0.18144 0.65272 0.7718 0.0
H778 H 0.17023 0.66512 0.82708 0.0
H779 H 0.30317 0.82308 0.6856 0.0
H780 H 0.22381 0.7377 0.92186 0.0
H781 H 0.27351 0.77757 0.93521 0.0
H782 H 0.44328 0.93329 0.76279 0.0
H783 H 0.18589 0.69574 0.88171 0.0
H784 H 0.38959 0.86715 0.66393 0.0
H785 H 0.33723 0.83232 0.64667 0.0
N786 N 0.33702 0.84928 0.72657 0.0
C787 C 0.36485 0.87067 0.736 0.0
C788 C 0.32651 0.83689 0.69447 0.0
C789 C 0.37502 0.86248 0.68166 0.0
C790 C 0.34555 0.84269 0.67184 0.0
C791 C 0.38474 0.87736 0.71381 0.0
H792 H 0.42883 0.9046 0.70725 0.0
N793 N 0.35312 0.88167 0.78829 0.0
C794 C 0.37292 0.88748 0.76741 0.0
C795 C 0.40802 0.92759 0.80852 0.0
C796 C 0.40111 0.91052 0.77721 0.0
C797 C 0.35852 0.90018 0.81756 0.0
C798 C 0.38637 0.92273 0.8286 0.0
O799 O 0.25205 0.76839 0.79154 0.0
O800 O 0.25774 0.81287 0.76726 0.0
O801 O 0.29329 0.88273 0.78493 0.0
O802 O 0.28612 0.86253 0.73327 0.0
O803 O 0.30688 0.78561 0.77386 0.0
O804 O 0.29342 0.80105 0.73 0.0
O805 O 0.35507 0.83396 0.7899 0.0
O806 O 0.34813 0.78743 0.80982 0.0
O807 O 0.31663 0.72249 0.79399 0.0
O808 O 0.32029 0.73927 0.84618 0.0
O809 O 0.29405 0.82625 0.81264 0.0
O810 O 0.31816 0.80407 0.84785 0.0
C811 C 0.24046 0.78806 0.77633 0.0
C812 C 0.29637 0.77832 0.74335 0.0
C813 C 0.2684 0.90652 0.74434 0.0
C814 C 0.24485 0.9473 0.75553 0.0
C815 C 0.24656 0.92756 0.70016 0.0
C816 C 0.26181 0.90721 0.71111 0.0
C817 C 0.23793 0.94743 0.7222 0.0
C818 C 0.25992 0.92661 0.76664 0.0
C819 C 0.28283 0.88375 0.75487 0.0
C820 C 0.42142 0.91593 0.75554 0.0
C821 C 0.41323 0.89948 0.72395 0.0
H822 H 0.42953 0.94527 0.81701 0.0
C823 C 0.36608 0.81261 0.8025 0.0
C824 C 0.31336 0.82883 0.83913 0.0
C825 C 0.34541 0.70117 0.83505 0.0
C826 C 0.36991 0.66092 0.82505 0.0
C827 C 0.37722 0.68875 0.87939 0.0
C828 C 0.35852 0.70613 0.86811 0.0
C829 C 0.38299 0.66624 0.85795 0.0
C830 C 0.35114 0.67839 0.81338 0.0
C831 C 0.32599 0.72005 0.824 0.0
H832 H 0.24124 0.92778 0.67455 0.0
H833 H 0.26815 0.89182 0.69343 0.0
H834 H 0.22562 0.96283 0.7132 0.0
H835 H 0.26485 0.92614 0.7923 0.0
H836 H 0.38723 0.69272 0.90478 0.0
H837 H 0.35454 0.72358 0.88544 0.0
H838 H 0.39747 0.65267 0.86704 0.0
H839 H 0.34111 0.67419 0.78791 0.0
C840 C 0.59896 1.00988 0.11364 0.0
C841 C 0.6293 0.05337 0.15428 0.0
C842 C 0.60513 0.04051 0.12741 0.0
C843 C 0.64646 0.03495 0.16724 0.0
C844 C 0.61689 0.99162 0.12597 0.0
C845 C 0.64038 1.00421 0.15302 0.0
N846 N 0.57682 0.99838 0.08689 0.0
C847 C 0.57175 0.96916 0.07094 0.0
C848 C 0.6113 0.96139 0.11017 0.0
C849 C 0.58866 0.95016 0.08248 0.0
Gd850 Gd 0.5525 0.08402 0.99719 0.0
Gd851 Gd 0.54928 0.03103 0.06838 0.0
N852 N 0.58949 0.05825 0.11286 0.0
C853 C 0.6366 0.0847 0.16646 0.0
C854 C 0.59865 0.0894 0.12337 0.0
C855 C 0.62142 0.10283 0.15067 0.0
H856 H 0.59015 0.10482 0.11043 0.0
H857 H 0.62797 0.12741 0.15883 0.0
H858 H 0.53108 0.02179 0.93756 0.0
H859 H 0.55445 0.96037 0.04929 0.0
H860 H 0.48456 0.991 0.89905 0.0
H861 H 0.65489 0.09534 0.18705 0.0
H862 H 0.66512 0.04452 0.18769 0.0
H863 H 0.55021 0.15632 0.00873 0.0
H864 H 0.62467 0.94671 0.11884 0.0
H865 H 0.5844 0.92695 0.06983 0.0
H866 H 0.42028 0.05878 0.89736 0.0
H867 H 0.65439 0.9905 0.16275 0.0
H868 H 0.46404 0.1606 0.95818 0.0
H869 H 0.51388 0.18624 0.99445 0.0
N870 N 0.52072 0.11431 0.98193 0.0
C871 C 0.49443 0.10022 0.96029 0.0
C872 C 0.52833 0.14496 0.99328 0.0
C873 C 0.47986 0.1474 0.96446 0.0
C874 C 0.50793 0.16195 0.98502 0.0
C875 C 0.473 0.11622 0.95137 0.0
H876 H 0.42894 0.11266 0.92235 0.0
N877 N 0.51129 0.05564 0.95513 0.0
C878 C 0.48938 0.06979 0.94665 0.0
C879 C 0.46042 0.02512 0.90723 0.0
C880 C 0.46299 0.05468 0.92311 0.0
C881 C 0.51077 0.02897 0.93648 0.0
C882 C 0.48497 0.0126 0.91322 0.0
O883 O 0.59486 0.0424 0.0556 0.0
O884 O 0.58866 0.08601 0.04016 0.0
O885 O 0.56982 0.08612 0.9538 0.0
O886 O 0.58559 0.12681 0.99223 0.0
O887 O 0.5405 0.07768 0.08262 0.0
O888 O 0.55168 0.11207 0.04643 0.0
O889 O 0.50722 0.07382 0.01182 0.0
O890 O 0.52359 0.03532 0.0226 0.0
O891 O 0.51317 0.03112 0.09555 0.0
O892 O 0.51936 0.98798 0.0742 0.0
O893 O 0.5659 0.03828 0.98553 0.0
O894 O 0.54797 1.00317 0.01888 0.0
C895 C 0.60478 0.06624 0.04262 0.0
C896 C 0.54339 0.10514 0.07414 0.0
C897 C 0.60502 0.12873 0.94181 0.0
C898 C 0.63325 0.1222 0.89921 0.0
C899 C 0.6319 0.17306 0.92192 0.0
C900 C 0.61366 0.16051 0.94312 0.0
C901 C 0.64219 0.15402 0.90026 0.0
C902 C 0.61409 0.10966 0.91919 0.0
C903 C 0.58574 0.11458 0.96285 0.0
C904 C 0.44086 0.07009 0.91514 0.0
C905 C 0.44585 0.10081 0.92928 0.0
H906 H 0.44063 0.01273 0.88884 0.0
C907 C 0.50174 0.04841 0.02221 0.0
C908 C 0.56004 1.01021 0.99321 0.0
C909 C 0.5011 0.98994 0.12317 0.0
C910 C 0.48339 0.99548 0.17348 0.0
C911 C 0.50248 0.95215 0.15801 0.0
C912 C 0.50817 0.9629 0.12957 0.0
C913 C 0.48998 0.9684 0.18 0.0
C914 C 0.48864 1.00606 0.14522 0.0
C915 C 0.50526 1.00139 0.09334 0.0
H916 H 0.63814 0.19749 0.92246 0.0
H917 H 0.60602 0.17541 0.96008 0.0
H918 H 0.65695 0.16396 0.88441 0.0
H919 H 0.60726 0.08494 0.91783 0.0
H920 H 0.50771 0.93127 0.16296 0.0
H921 H 0.5178 0.95001 0.11267 0.0
H922 H 0.48562 0.96006 0.20208 0.0
H923 H 0.48282 0.02683 0.14044 0.0
C924 C 0.4034 0.35788 0.33826 0.0
C925 C 0.42968 0.38142 0.29821 0.0
C926 C 0.40246 0.36576 0.30753 0.0
C927 C 0.4578 0.38795 0.31945 0.0
C928 C 0.43171 0.36409 0.35936 0.0
C929 C 0.45886 0.37893 0.34971 0.0
N930 N 0.37671 0.34376 0.34728 0.0
C931 C 0.37674 0.33712 0.3777 0.0
C932 C 0.43198 0.35518 0.3896 0.0
C933 C 0.40436 0.34228 0.39912 0.0
Gd934 Gd 0.28798 0.25854 0.26888 0.0
Gd935 Gd 0.33221 0.3374 0.3093 0.0
N936 N 0.37499 0.35859 0.28702 0.0
C937 C 0.42783 0.39053 0.26797 0.0
C938 C 0.373 0.36919 0.25844 0.0
C939 C 0.39928 0.38468 0.24816 0.0
H940 H 0.35121 0.36777 0.24447 0.0
H941 H 0.39738 0.39287 0.22537 0.0
H942 H 0.26272 0.23522 0.33463 0.0
H943 H 0.35566 0.32851 0.38597 0.0
H944 H 0.21434 0.21184 0.35055 0.0
H945 H 0.44819 0.40285 0.2601 0.0
H946 H 0.47892 0.39992 0.31266 0.0
H947 H 0.27039 0.26507 0.19004 0.0
H948 H 0.45346 0.35845 0.40582 0.0
H949 H 0.40433 0.33648 0.42302 0.0
H950 H 0.13961 0.19708 0.2547 0.0
H951 H 0.48085 0.38382 0.36562 0.0
H952 H 0.17367 0.22954 0.16065 0.0
H953 H 0.22444 0.25283 0.14807 0.0
N954 N 0.24592 0.25225 0.22742 0.0
C955 C 0.21816 0.23844 0.2345 0.0
C956 C 0.24837 0.25698 0.19666 0.0
C957 C 0.19374 0.23572 0.17948 0.0
C958 C 0.22234 0.24915 0.1724 0.0
C959 C 0.19137 0.22982 0.21061 0.0
H960 H 0.14234 0.20843 0.20037 0.0
N961 N 0.24267 0.24042 0.28838 0.0
C962 C 0.21652 0.23224 0.26564 0.0
C963 C 0.18732 0.21052 0.30428 0.0
C964 C 0.18814 0.21721 0.27317 0.0
C965 C 0.24206 0.23236 0.31811 0.0
C966 C 0.21447 0.218 0.3268 0.0
O967 O 0.36456 0.30593 0.30037 0.0
O968 O 0.33783 0.26752 0.25835 0.0
O969 O 0.28874 0.21447 0.28069 0.0
O970 O 0.27532 0.21913 0.23086 0.0
O971 O 0.3064 0.33105 0.25735 0.0
O972 O 0.31228 0.28581 0.23541 0.0
O973 O 0.25668 0.29087 0.27763 0.0
O974 O 0.28301 0.32722 0.32142 0.0
O975 O 0.32884 0.38051 0.29721 0.0
O976 O 0.34413 0.37723 0.34714 0.0
O977 O 0.31193 0.26322 0.32159 0.0
O978 O 0.30999 0.31031 0.34426 0.0
C979 C 0.36455 0.28428 0.27627 0.0
C980 C 0.31018 0.3132 0.23229 0.0
C981 C 0.29647 0.17898 0.24 0.0
C982 C 0.31635 0.1374 0.25247 0.0
C983 C 0.31611 0.15112 0.19934 0.0
C984 C 0.30293 0.17448 0.20863 0.0
C985 C 0.32284 0.13246 0.22126 0.0
C986 C 0.30311 0.16035 0.26155 0.0
C987 C 0.28049 0.2009 0.2505 0.0
C988 C 0.16156 0.20875 0.24936 0.0
C989 C 0.16316 0.21513 0.21828 0.0
H990 H 0.16598 0.19889 0.31089 0.0
C991 C 0.25645 0.31137 0.30272 0.0
C992 C 0.3104 0.28228 0.34707 0.0
C993 C 0.31886 0.41473 0.33686 0.0
C994 C 0.29462 0.4532 0.32323 0.0
C995 C 0.29412 0.43825 0.37574 0.0
C996 C 0.31055 0.41748 0.36747 0.0
C997 C 0.28601 0.4561 0.35358 0.0
C998 C 0.31085 0.43267 0.31493 0.0
C999 C 0.33697 0.39458 0.32714 0.0
H1000 H 0.32097 0.14742 0.17519 0.0
H1001 H 0.29748 0.18856 0.1913 0.0
H1002 H 0.33324 0.1145 0.21406 0.0
H1003 H 0.29742 0.1633 0.28553 0.0
H1004 H 0.2878 0.44062 0.39932 0.0
H1005 H 0.31685 0.40387 0.38493 0.0
H1006 H 0.27339 0.47231 0.3601 0.0
H1007 H 0.3173 0.4308 0.29126 0.0
C1008 C 0.52664 0.61849 0.10657 0.0
C1009 C 0.57424 0.65419 0.13654 0.0
C1010 C 0.55792 0.63201 0.10925 0.0
C1011 C 0.55887 0.66214 0.1612 0.0
C1012 C 0.51118 0.62643 0.1313 0.0
C1013 C 0.52747 0.64826 0.15862 0.0
N1014 N 0.5114 0.59731 0.07997 0.0
C1015 C 0.48071 0.58362 0.07624 0.0
C1016 C 0.47977 0.61215 0.12787 0.0
C1017 C 0.46447 0.59071 0.10018 0.0
Gd1018 Gd 0.57238 0.5163 0.03475 0.0
Gd1019 Gd 0.54057 0.58674 0.04151 0.0
N1020 N 0.57233 0.62344 0.08521 0.0
C1021 C 0.60546 0.66804 0.13805 0.0
C1022 C 0.60227 0.63832 0.08573 0.0
C1023 C 0.61942 0.66031 0.11234 0.0
H1024 H 0.6129 0.6344 0.06538 0.0
H1025 H 0.64326 0.67173 0.11269 0.0
H1026 H 0.49947 0.46991 0.01122 0.0
H1027 H 0.46855 0.56772 0.0545 0.0
H1028 H 0.46921 0.4311 0.96495 0.0
H1029 H 0.61877 0.68525 0.15855 0.0
H1030 H 0.57105 0.67911 0.18233 0.0
H1031 H 0.6436 0.53744 0.01945 0.0
H1032 H 0.46708 0.61763 0.14636 0.0
H1033 H 0.44013 0.57979 0.09713 0.0
H1034 H 0.54059 0.42329 0.89445 0.0
H1035 H 0.51594 0.65466 0.17785 0.0
H1036 H 0.64417 0.48633 0.92798 0.0
H1037 H 0.67142 0.52513 0.97638 0.0
N1038 N 0.60068 0.50741 0.99489 0.0
C1039 C 0.58526 0.48567 0.96874 0.0
C1040 C 0.63123 0.52137 0.99795 0.0
C1041 C 0.6317 0.49206 0.94659 0.0
C1042 C 0.64716 0.51406 0.9738 0.0
C1043 C 0.60042 0.47748 0.94382 0.0
H1044 H 0.59536 0.4484 0.89772 0.0
N1045 N 0.53987 0.48034 0.991 0.0
C1046 C 0.5541 0.47166 0.96679 0.0
C1047 C 0.50673 0.43454 0.9392 0.0
C1048 C 0.53773 0.44885 0.94003 0.0
C1049 C 0.51005 0.46538 0.99096 0.0
C1050 C 0.49294 0.44264 0.96494 0.0
O1051 O 0.55258 0.57049 0.08896 0.0
O1052 O 0.592 0.54944 0.08229 0.0
O1053 O 0.55919 0.47512 0.05642 0.0
O1054 O 0.6063 0.49347 0.04835 0.0
O1055 O 0.58367 0.58948 0.02053 0.0
O1056 O 0.60929 0.56093 0.04778 0.0
O1057 O 0.5603 0.53363 0.98782 0.0
O1058 O 0.5194 0.55115 0.99663 0.0
O1059 O 0.55386 0.62482 0.01545 0.0
O1060 O 0.50728 0.60979 0.02587 0.0
O1061 O 0.53039 0.51317 0.05731 0.0
O1062 O 0.50354 0.54171 0.03163 0.0
C1063 C 0.57576 0.56089 0.1011 0.0
C1064 C 0.60926 0.58324 0.03141 0.0
C1065 C 0.59651 0.44695 0.06972 0.0
C1066 C 0.58951 0.40515 0.0999 0.0
C1067 C 0.63062 0.41441 0.06908 0.0
C1068 C 0.6217 0.43917 0.05945 0.0
C1069 C 0.6146 0.39739 0.08913 0.0
C1070 C 0.58018 0.4298 0.08981 0.0
C1071 C 0.58683 0.47203 0.05792 0.0
C1072 C 0.55283 0.44074 0.91518 0.0
C1073 C 0.58404 0.45501 0.91706 0.0
H1074 H 0.4934 0.41687 0.9191 0.0
C1075 C 0.5357 0.54155 0.97685 0.0
C1076 C 0.50463 0.51993 0.04865 0.0
C1077 C 0.517 0.65197 0.99697 0.0
C1078 C 0.52605 0.69178 0.96421 0.0
C1079 C 0.47759 0.67703 0.98261 0.0
C1080 C 0.48764 0.65554 0.99815 0.0
C1081 C 0.49663 0.69504 0.96568 0.0
C1082 C 0.53646 0.67037 0.98012 0.0
C1083 C 0.52638 0.62851 0.01287 0.0
H1084 H 0.64987 0.40829 0.06084 0.0
H1085 H 0.63422 0.45192 0.0435 0.0
H1086 H 0.62173 0.378 0.09615 0.0
H1087 H 0.56066 0.43573 0.0978 0.0
H1088 H 0.455 0.67975 0.98377 0.0
H1089 H 0.47232 0.6417 0.01109 0.0
H1090 H 0.48855 0.71193 0.95399 0.0
H1091 H 0.55926 0.66798 0.97914 0.0
C1092 C 0.74739 0.23189 0.34452 0.0
C1093 C 0.70994 0.19131 0.3049 0.0
C1094 C 0.7379 0.2147 0.3131 0.0
C1095 C 0.69184 0.18489 0.32842 0.0
C1096 C 0.72937 0.22474 0.36824 0.0
C1097 C 0.70158 0.20141 0.35996 0.0
N1098 N 0.7744 0.25471 0.35219 0.0
C1099 C 0.7857 0.26895 0.38363 0.0
C1100 C 0.74004 0.24074 0.39991 0.0
C1101 C 0.76848 0.26261 0.40769 0.0
Gd1102 Gd 0.80798 0.34404 0.26902 0.0
Gd1103 Gd 0.80108 0.25993 0.30908 0.0
N1104 N 0.7556 0.22122 0.29037 0.0
C1105 C 0.70092 0.17491 0.2732 0.0
C1106 C 0.74742 0.20475 0.25977 0.0
C1107 C 0.7198 0.18161 0.25059 0.0
H1108 H 0.762 0.20954 0.24244 0.0
H1109 H 0.71313 0.1689 0.22613 0.0
H1110 H 0.83935 0.399 0.33409 0.0
H1111 H 0.80841 0.28452 0.39106 0.0
H1112 H 0.88582 0.44258 0.35235 0.0
H1113 H 0.67951 0.1569 0.266 0.0
H1114 H 0.67033 0.16695 0.32253 0.0
H1115 H 0.79793 0.33284 0.18542 0.0
H1116 H 0.72689 0.23573 0.41876 0.0
H1117 H 0.77745 0.27421 0.4324 0.0
H1118 H 0.93642 0.44498 0.26106 0.0
H1119 H 0.68751 0.19576 0.37792 0.0
H1120 H 0.8833 0.37864 0.16206 0.0
H1121 H 0.83067 0.34412 0.14518 0.0
N1122 N 0.8332 0.35704 0.22589 0.0
C1123 C 0.86079 0.37861 0.23523 0.0
C1124 C 0.82137 0.34679 0.1936 0.0
C1125 C 0.86932 0.37305 0.18012 0.0
C1126 C 0.83966 0.35356 0.17048 0.0
C1127 C 0.8797 0.38694 0.21255 0.0
H1128 H 0.92261 0.41622 0.20551 0.0
N1129 N 0.85037 0.38657 0.2884 0.0
C1130 C 0.86907 0.39447 0.26696 0.0
C1131 C 0.90175 0.43686 0.30725 0.0
C1132 C 0.89569 0.4195 0.27613 0.0
C1133 C 0.8557 0.40387 0.31839 0.0
C1134 C 0.88159 0.42905 0.32843 0.0
O1135 O 0.75366 0.26627 0.28786 0.0
O1136 O 0.75882 0.31324 0.26921 0.0
O1137 O 0.79297 0.38298 0.28858 0.0
O1138 O 0.77438 0.35801 0.23916 0.0
O1139 O 0.80805 0.28599 0.27052 0.0
O1140 O 0.80162 0.30612 0.22869 0.0
O1141 O 0.85561 0.33716 0.29203 0.0
O1142 O 0.8496 0.28631 0.30193 0.0
O1143 O 0.81571 0.21912 0.29152 0.0
O1144 O 0.82526 0.24128 0.34298 0.0
O1145 O 0.79616 0.32424 0.31213 0.0
O1146 O 0.82122 0.30191 0.3454 0.0
C1147 C 0.74173 0.28703 0.2756 0.0
C1148 C 0.80291 0.28165 0.2394 0.0
C1149 C 0.77072 0.40832 0.25025 0.0
C1150 C 0.74768 0.45003 0.25688 0.0
C1151 C 0.7631 0.43585 0.20614 0.0
C1152 C 0.77368 0.413 0.21867 0.0
C1153 C 0.74975 0.45409 0.22503 0.0
C1154 C 0.75837 0.42732 0.26954 0.0
C1155 C 0.77448 0.38061 0.26136 0.0
C1156 C 0.91538 0.42646 0.25409 0.0
C1157 C 0.90759 0.40998 0.2225 0.0
H1158 H 0.92189 0.45632 0.31513 0.0
C1159 C 0.86716 0.31404 0.29959 0.0
C1160 C 0.81619 0.32687 0.33793 0.0
C1161 C 0.84426 0.19832 0.33307 0.0
C1162 C 0.87073 0.15965 0.32409 0.0
C1163 C 0.87033 0.18215 0.37878 0.0
C1164 C 0.85279 0.2002 0.36668 0.0
C1165 C 0.87942 0.162 0.35759 0.0
C1166 C 0.85299 0.17768 0.31164 0.0
C1167 C 0.82823 0.2197 0.32151 0.0
H1168 H 0.76464 0.43897 0.18156 0.0
H1169 H 0.78294 0.39826 0.20327 0.0
H1170 H 0.7411 0.47143 0.21489 0.0
H1171 H 0.75547 0.42335 0.2937 0.0
H1172 H 0.87698 0.1839 0.40461 0.0
H1173 H 0.84628 0.21592 0.38384 0.0
H1174 H 0.89311 0.148 0.36729 0.0
H1175 H 0.84674 0.17613 0.28572 0.0
C1176 C 0.10174 0.50633 0.61389 0.0
C1177 C 0.13057 0.5475 0.65778 0.0
C1178 C 0.10616 0.53554 0.63104 0.0
C1179 C 0.15016 0.52976 0.66684 0.0
C1180 C 0.12172 0.48867 0.62262 0.0
C1181 C 0.14582 0.50048 0.64924 0.0
N1182 N 0.07892 0.49571 0.58762 0.0
C1183 C 0.07463 0.46777 0.56909 0.0
C1184 C 0.11738 0.4599 0.60382 0.0
C1185 C 0.09371 0.44941 0.57694 0.0
Gd1186 Gd 0.05975 0.58669 0.50123 0.0
Gd1187 Gd 0.05024 0.52863 0.57288 0.0
N1188 N 0.08777 0.55279 0.62054 0.0
C1189 C 0.13517 0.57722 0.67426 0.0
C1190 C 0.09321 0.58233 0.63623 0.0
C1191 C 0.11631 0.59464 0.66347 0.0
H1192 H 0.08124 0.59764 0.62778 0.0
H1193 H 0.12018 0.61803 0.67546 0.0
H1194 H 0.04839 0.52963 0.43388 0.0
H1195 H 0.05653 0.45963 0.54808 0.0
H1196 H 1.00679 0.50382 0.38818 0.0
H1197 H 0.15362 0.58716 0.69485 0.0
H1198 H 0.16907 0.53869 0.68713 0.0
H1199 H 0.05102 0.65581 0.52244 0.0
H1200 H 0.13236 0.44574 0.60965 0.0
H1201 H 0.09029 0.4273 0.5621 0.0
H1202 H 0.93674 0.56564 0.38967 0.0
H1203 H 0.16144 0.48726 0.65621 0.0
H1204 H 0.96714 0.65959 0.46632 0.0
H1205 H 1.01182 0.68318 0.51057 0.0
N1206 N 0.02905 0.6178 0.48516 0.0
C1207 C 1.00579 0.60531 0.45949 0.0
C1208 C 0.03179 0.64568 0.50292 0.0
C1209 C 0.98462 0.64786 0.47105 0.0
C1210 C 1.00972 0.6612 0.49613 0.0
C1211 C 0.98242 0.61957 0.45231 0.0
H1212 H 0.93885 0.61518 0.42181 0.0
N1213 N 0.02685 0.56351 0.45048 0.0
C1214 C 1.00447 0.57717 0.44174 0.0
C1215 C 0.98025 0.5355 0.39717 0.0
C1216 C 0.97994 0.56291 0.41577 0.0
C1217 C 0.02882 0.53851 0.43029 0.0
C1218 C 1.0054 0.52396 0.40369 0.0
O1219 O 0.09722 0.54259 0.56348 0.0
O1220 O 0.08553 0.58369 0.54884 0.0
O1221 O 0.10164 0.58977 0.48307 0.0
O1222 O 0.0867 0.63055 0.49326 0.0
O1223 O 0.04062 0.5751 0.58608 0.0
O1224 O 0.0557 0.61077 0.55172 0.0
O1225 O 1.01023 0.57052 0.50419 0.0
O1226 O 0.03388 0.54441 0.53028 0.0
O1227 O 1.01051 0.52777 0.5942 0.0
O1228 O 0.01918 0.48495 0.57635 0.0
O1229 O 0.06782 0.53846 0.48849 0.0
O1230 O 0.04829 0.5032 0.52172 0.0
C1231 C 0.1045 0.56684 0.55055 0.0
C1232 C 0.04486 0.60298 0.57815 0.0
C1233 C 0.112 0.62628 0.44927 0.0
C1234 C 0.12227 0.61196 0.39595 0.0
C1235 C 0.12196 0.66433 0.41463 0.0
C1236 C 0.11521 0.65641 0.44384 0.0
C1237 C 0.12566 0.64231 0.39084 0.0
C1238 C 0.11542 0.60401 0.42511 0.0
C1239 C 0.10586 0.61845 0.48039 0.0
C1240 C 0.95609 0.57658 0.40909 0.0
C1241 C 0.95734 0.60485 0.42731 0.0
H1242 H 0.96188 0.52382 0.37697 0.0
C1243 C 1.00799 0.54976 0.52143 0.0
C1244 C 0.06079 0.51036 0.49618 0.0
C1245 C 0.99695 0.48807 0.62329 0.0
C1246 C 0.98303 0.49851 0.67554 0.0
C1247 C 0.99222 0.44968 0.65803 0.0
C1248 C 0.99852 0.45894 0.62909 0.0
C1249 C 0.98444 0.4694 0.68125 0.0
C1250 C 0.98901 0.50772 0.6467 0.0
C1251 C 1.00294 0.49823 0.59296 0.0
H1252 H 0.12465 0.68763 0.41056 0.0
H1253 H 0.11269 0.67386 0.46226 0.0
H1254 H 0.1317 0.64909 0.36859 0.0
H1255 H 0.11293 0.58057 0.42883 0.0
H1256 H 0.99323 0.42717 0.66241 0.0
H1257 H 1.00445 0.44334 0.61129 0.0
H1258 H 0.97938 0.46195 0.70354 0.0
H1259 H 0.98723 0.53015 0.64258 0.0
C1260 C 0.74116 0.83139 0.22198 0.0
C1261 C 0.70257 0.78523 0.19323 0.0
C1262 C 0.72551 0.8008 0.22021 0.0
C1263 C 0.69661 0.80047 0.16744 0.0
C1264 C 0.73481 0.84697 0.19649 0.0
C1265 C 0.71273 0.83124 0.16904 0.0
N1266 N 0.76261 0.8459 0.24872 0.0
C1267 C 0.77739 0.87634 0.25224 0.0
C1268 C 0.75072 0.87794 0.19945 0.0
C1269 C 0.7719 0.89275 0.2276 0.0
Gd1270 Gd 0.84218 0.78349 0.29332 0.0
Gd1271 Gd 0.77165 0.81591 0.28768 0.0
N1272 N 0.73227 0.78652 0.2453 0.0
C1273 C 0.68573 0.75513 0.19345 0.0
C1274 C 0.71398 0.75848 0.24701 0.0
C1275 C 0.69099 0.74196 0.22083 0.0
H1276 H 0.71624 0.74929 0.26896 0.0
H1277 H 0.67695 0.71937 0.22205 0.0
H1278 H 0.88692 0.85744 0.31827 0.0
H1279 H 0.79297 0.8882 0.27432 0.0
H1280 H 0.9231 0.88826 0.36609 0.0
H1281 H 0.6678 0.74239 0.17326 0.0
H1282 H 0.67922 0.78883 0.14638 0.0
H1283 H 0.824 0.71175 0.30745 0.0
H1284 H 0.74648 0.89075 0.1804 0.0
H1285 H 0.78384 0.91685 0.23043 0.0
H1286 H 0.9341 0.81581 0.43547 0.0
H1287 H 0.70763 0.84279 0.14912 0.0
H1288 H 0.87672 0.7107 0.3988 0.0
H1289 H 0.83838 0.68333 0.34992 0.0
N1290 N 0.85335 0.75479 0.33248 0.0
C1291 C 0.87467 0.77035 0.35896 0.0
C1292 C 0.84041 0.72397 0.32893 0.0
C1293 C 0.87045 0.72332 0.38027 0.0
C1294 C 0.84871 0.70778 0.35278 0.0
C1295 C 0.88369 0.75496 0.38368 0.0
H1296 H 0.91221 0.76016 0.43052 0.0
N1297 N 0.87754 0.81626 0.33765 0.0
C1298 C 0.88689 0.80193 0.3618 0.0
C1299 C 0.9211 0.85016 0.39125 0.0
C1300 C 0.90861 0.81862 0.38941 0.0
C1301 C 0.89123 0.84662 0.33854 0.0
C1302 C 0.91264 0.86412 0.3655 0.0
O1303 O 0.78636 0.80342 0.23954 0.0
O1304 O 0.80783 0.76424 0.24662 0.0
O1305 O 0.88292 0.79733 0.27197 0.0
O1306 O 0.86408 0.74939 0.27737 0.0
O1307 O 0.76675 0.76994 0.30493 0.0
O1308 O 0.79781 0.74593 0.27976 0.0
O1309 O 0.82334 0.79179 0.33951 0.0
O1310 O 0.80812 0.83423 0.3326 0.0
O1311 O 0.73507 0.80447 0.31585 0.0
O1312 O 0.74989 0.85021 0.30304 0.0
O1313 O 0.84423 0.82553 0.27042 0.0
O1314 O 0.8173 0.85227 0.29784 0.0
C1315 C 0.79546 0.77998 0.22755 0.0
C1316 C 0.77401 0.74502 0.29377 0.0
C1317 C 0.90923 0.76029 0.25346 0.0
C1318 C 0.95216 0.77171 0.22568 0.0
C1319 C 0.93339 0.72071 0.23773 0.0
C1320 C 0.91114 0.73004 0.25217 0.0
C1321 C 0.95379 0.74141 0.22441 0.0
C1322 C 0.92997 0.78129 0.24031 0.0
C1323 C 0.8851 0.76928 0.2678 0.0
C1324 C 0.91751 0.80332 0.4141 0.0
C1325 C 0.90514 0.77161 0.41122 0.0
H1326 H 0.9379 0.86375 0.412 0.0
C1327 C 0.81595 0.81619 0.35172 0.0
C1328 C 0.83823 0.85141 0.2799 0.0
C1329 C 0.70967 0.84278 0.3343 0.0
C1330 C 0.66535 0.83374 0.36057 0.0
C1331 C 0.69164 0.88547 0.35537 0.0
C1332 C 0.7122 0.87433 0.33969 0.0
C1333 C 0.66832 0.86532 0.36579 0.0
C1334 C 0.68611 0.8223 0.34488 0.0
C1335 C 0.73171 0.83203 0.31742 0.0
H1336 H 0.93473 0.69736 0.23674 0.0
H1337 H 0.89537 0.7135 0.26222 0.0
H1338 H 0.97092 0.73383 0.21307 0.0
H1339 H 0.92863 0.80467 0.24095 0.0
H1340 H 0.6937 0.90979 0.35933 0.0
H1341 H 0.73014 0.89052 0.3318 0.0
H1342 H 0.65232 0.87435 0.37774 0.0
H1343 H 0.68374 0.79786 0.34074 0.0
C1344 C 0.84982 0.25031 0.72023 0.0
C1345 C 0.80572 0.21969 0.68026 0.0
C1346 C 0.81899 0.24406 0.70658 0.0
C1347 C 0.82395 0.20249 0.66749 0.0
C1348 C 0.86783 0.23221 0.7083 0.0
C1349 C 0.85488 0.20865 0.68154 0.0
N1350 N 0.86175 0.27278 0.7465 0.0
C1351 C 0.89108 0.27801 0.76242 0.0
C1352 C 0.89818 0.23781 0.72416 0.0
C1353 C 0.90978 0.26069 0.75148 0.0
Gd1354 Gd 0.77713 0.29536 0.8311 0.0
Gd1355 Gd 0.83018 0.30232 0.76206 0.0
N1356 N 0.80165 0.26038 0.72038 0.0
C1357 C 0.77433 0.21264 0.66808 0.0
C1358 C 0.77065 0.25236 0.70925 0.0
C1359 C 0.75669 0.22885 0.68289 0.0
H1360 H 0.75588 0.26295 0.72058 0.0
H1361 H 0.73218 0.22301 0.67429 0.0
H1362 H 0.84129 0.31471 0.89377 0.0
H1363 H 0.90026 0.29602 0.78317 0.0
H1364 H 0.86938 0.35932 0.93406 0.0
H1365 H 0.76335 0.19417 0.64788 0.0
H1366 H 0.81414 0.18382 0.64722 0.0
H1367 H 0.70697 0.30268 0.81226 0.0
H1368 H 0.91271 0.22432 0.71577 0.0
H1369 H 0.93313 0.26509 0.76404 0.0
H1370 H 0.80216 0.42387 0.93538 0.0
H1371 H 0.86845 0.19465 0.67192 0.0
H1372 H 0.70352 0.38696 0.86622 0.0
H1373 H 0.67872 0.34056 0.82478 0.0
N1374 N 0.74699 0.3269 0.84675 0.0
C1375 C 0.76079 0.35178 0.87012 0.0
C1376 C 0.71784 0.32261 0.83071 0.0
C1377 C 0.71587 0.37015 0.86113 0.0
C1378 C 0.70179 0.34404 0.83772 0.0
C1379 C 0.74571 0.37432 0.87767 0.0
H1380 H 0.74986 0.41813 0.90693 0.0
N1381 N 0.80433 0.33296 0.87753 0.0
C1382 C 0.79044 0.35511 0.88576 0.0
C1383 C 0.83471 0.38295 0.9266 0.0
C1384 C 0.8055 0.38095 0.90996 0.0
C1385 C 0.83161 0.33361 0.89608 0.0
C1386 C 0.84747 0.3588 0.92015 0.0
O1387 O 0.82047 0.2566 0.77502 0.0
O1388 O 0.77853 0.2673 0.78529 0.0
O1389 O 0.77561 0.25832 0.85793 0.0
O1390 O 0.73348 0.26769 0.83853 0.0
O1391 O 0.78458 0.31486 0.74943 0.0
O1392 O 0.74893 0.29579 0.78116 0.0
O1393 O 0.78921 0.34199 0.81862 0.0
O1394 O 0.83169 0.33235 0.80787 0.0
O1395 O 0.82836 0.32922 0.72498 0.0
O1396 O 0.87319 0.33106 0.75292 0.0
O1397 O 0.82423 0.28476 0.84366 0.0
O1398 O 0.85874 0.30774 0.81267 0.0
C1399 C 0.79513 0.24808 0.78522 0.0
C1400 C 0.7563 0.30902 0.75599 0.0
C1401 C 0.7352 0.24732 0.88686 0.0
C1402 C 0.74331 0.23457 0.94035 0.0
C1403 C 0.69488 0.24286 0.91861 0.0
C1404 C 0.70548 0.24847 0.89022 0.0
C1405 C 0.71363 0.23573 0.94361 0.0
C1406 C 0.75397 0.2401 0.91202 0.0
C1407 C 0.74613 0.25193 0.85668 0.0
C1408 C 0.7908 0.40375 0.91713 0.0
C1409 C 0.76097 0.40043 0.90103 0.0
H1410 H 0.84704 0.40243 0.9453 0.0
C1411 C 0.81502 0.35121 0.80937 0.0
C1412 C 0.85261 0.29347 0.83737 0.0
C1413 C 0.87212 0.36076 0.70959 0.0
C1414 C 0.86503 0.38701 0.6648 0.0
C1415 C 0.91613 0.38613 0.6882 0.0
C1416 C 0.90384 0.36867 0.71024 0.0
C1417 C 0.89675 0.39525 0.66537 0.0
C1418 C 0.85292 0.3704 0.68715 0.0
C1419 C 0.85805 0.33959 0.72924 0.0
H1420 H 0.67215 0.24423 0.92125 0.0
H1421 H 0.69043 0.25362 0.87094 0.0
H1422 H 0.70508 0.23117 0.96548 0.0
H1423 H 0.77691 0.23883 0.9098 0.0
H1424 H 0.94053 0.39194 0.68829 0.0
H1425 H 0.91889 0.36072 0.72706 0.0
H1426 H 0.9063 0.40786 0.64762 0.0
H1427 H 0.82828 0.36397 0.68598 0.0
C1428 C 0.89958 0.86713 0.84267 0.0
C1429 C 0.92589 0.8965 0.80613 0.0
C1430 C 0.89924 0.87685 0.81284 0.0
C1431 C 0.95262 0.90659 0.82976 0.0
C1432 C 0.92693 0.8761 0.86575 0.0
C1433 C 0.95333 0.89582 0.85909 0.0
N1434 N 0.87355 0.84822 0.84869 0.0
C1435 C 0.87313 0.83886 0.87791 0.0
C1436 C 0.92702 0.86479 0.89477 0.0
C1437 C 0.89993 0.84652 0.90111 0.0
Gd1438 Gd 0.79059 0.75779 0.76896 0.0
Gd1439 Gd 0.83046 0.83891 0.80786 0.0
N1440 N 0.87343 0.8659 0.78985 0.0
C1441 C 0.92532 0.9044 0.77537 0.0
C1442 C 0.8726 0.87411 0.76011 0.0
C1443 C 0.89854 0.89303 0.75221 0.0
H1444 H 0.85187 0.86703 0.74275 0.0
H1445 H 0.89768 0.89924 0.72843 0.0
H1446 H 0.7734 0.72134 0.83064 0.0
H1447 H 0.85229 0.82616 0.88411 0.0
H1448 H 0.72738 0.69368 0.84894 0.0
H1449 H 0.94548 0.91906 0.76921 0.0
H1450 H 0.97337 0.92145 0.82495 0.0
H1451 H 0.76654 0.76617 0.69199 0.0
H1452 H 0.94781 0.87017 0.91246 0.0
H1453 H 0.89962 0.8386 0.92401 0.0
H1454 H 0.64466 0.68894 0.76359 0.0
H1455 H 0.97474 0.90246 0.87598 0.0
H1456 H 0.66915 0.73377 0.67151 0.0
H1457 H 0.7178 0.75777 0.65508 0.0
N1458 N 0.74592 0.74901 0.73011 0.0
C1459 C 0.71953 0.73324 0.73847 0.0
C1460 C 0.74562 0.75664 0.70007 0.0
C1461 C 0.69052 0.73712 0.6878 0.0
C1462 C 0.71795 0.75119 0.67866 0.0
C1463 C 0.69107 0.72722 0.71763 0.0
H1464 H 0.642 0.70713 0.71173 0.0
N1465 N 0.74856 0.73032 0.78842 0.0
C1466 C 0.72093 0.72346 0.76828 0.0
C1467 C 0.69637 0.69675 0.80709 0.0
C1468 C 0.694 0.70697 0.77742 0.0
C1469 C 0.75122 0.71872 0.81636 0.0
C1470 C 0.72517 0.70231 0.82643 0.0
O1471 O 0.86682 0.81308 0.79544 0.0
O1472 O 0.84049 0.76899 0.75975 0.0
O1473 O 0.80261 0.71727 0.77992 0.0
O1474 O 0.78265 0.71975 0.72999 0.0
O1475 O 0.80527 0.83224 0.75597 0.0
O1476 O 0.81122 0.78682 0.73443 0.0
O1477 O 0.75457 0.78411 0.78156 0.0
O1478 O 0.78094 0.82839 0.81676 0.0
O1479 O 0.8208 0.88004 0.79536 0.0
O1480 O 0.83722 0.87715 0.84615 0.0
O1481 O 0.81378 0.76495 0.82182 0.0
O1482 O 0.80774 0.81076 0.84209 0.0
C1483 C 0.86695 0.78858 0.77477 0.0
C1484 C 0.80836 0.81394 0.73102 0.0
C1485 C 0.79604 0.67377 0.73848 0.0
C1486 C 0.81013 0.62995 0.75404 0.0
C1487 C 0.80837 0.63835 0.69861 0.0
C1488 C 0.79971 0.66503 0.70673 0.0
C1489 C 0.81407 0.62101 0.72233 0.0
C1490 C 0.79983 0.65552 0.7615 0.0
C1491 C 0.79407 0.7042 0.74955 0.0
C1492 C 0.66563 0.70129 0.75681 0.0
C1493 C 0.66414 0.71157 0.72715 0.0
H1494 H 0.6762 0.68404 0.81497 0.0
C1495 C 0.75458 0.80889 0.80173 0.0
C1496 C 0.80821 0.78295 0.84546 0.0
C1497 C 0.82646 0.92403 0.83609 0.0
C1498 C 0.80712 0.96579 0.8229 0.0
C1499 C 0.82454 0.96359 0.87891 0.0
C1500 C 0.83176 0.93644 0.8691 0.0
C1501 C 0.81181 0.9781 0.85586 0.0
C1502 C 0.81484 0.93914 0.81306 0.0
C1503 C 0.82788 0.89316 0.82575 0.0
H1504 H 0.81177 0.63175 0.67429 0.0
H1505 H 0.79725 0.67943 0.68876 0.0
H1506 H 0.82217 0.60114 0.71615 0.0
H1507 H 0.79636 0.66215 0.78587 0.0
H1508 H 0.82796 0.97288 0.90435 0.0
H1509 H 0.84028 0.92461 0.88729 0.0
H1510 H 0.80521 0.99858 0.86366 0.0
H1511 H 0.80964 0.9291 0.78757 0.0
C1512 C 0.49187 0.46042 0.48846 0.0
C1513 C 0.46822 0.43148 0.52699 0.0
C1514 C 0.48558 0.45908 0.51968 0.0
C1515 C 0.45672 0.40551 0.50275 0.0
C1516 C 0.48018 0.43416 0.46418 0.0
C1517 C 0.46258 0.40689 0.47155 0.0
N1518 N 0.50827 0.48748 0.48156 0.0
C1519 C 0.51296 0.48965 0.45074 0.0
C1520 C 0.48576 0.43619 0.43294 0.0
C1521 C 0.50221 0.46399 0.4262 0.0
Gd1522 Gd 0.59937 0.57104 0.558 0.0
Gd1523 Gd 0.51676 0.5293 0.52336 0.0
N1524 N 0.49654 0.48467 0.5429 0.0
C1525 C 0.46251 0.43084 0.55842 0.0
C1526 C 0.49001 0.4844 0.57319 0.0
C1527 C 0.47347 0.45745 0.58162 0.0
H1528 H 0.49605 0.50507 0.59042 0.0
H1529 H 0.46841 0.45747 0.60574 0.0
H1530 H 0.62932 0.58874 0.49303 0.0
H1531 H 0.52306 0.51127 0.44408 0.0
H1532 H 0.65558 0.63474 0.47359 0.0
H1533 H 0.44921 0.41005 0.56487 0.0
H1534 H 0.44304 0.38421 0.50784 0.0
H1535 H 0.59205 0.59535 0.63537 0.0
H1536 H 0.47689 0.41661 0.41368 0.0
H1537 H 0.50573 0.46594 0.40181 0.0
H1538 H 0.66737 0.71664 0.56121 0.0
H1539 H 0.45313 0.38666 0.45329 0.0
H1540 H 0.62733 0.69229 0.65539 0.0
H1541 H 0.60321 0.64385 0.67242 0.0
N1542 N 0.60686 0.61571 0.59597 0.0
C1543 C 0.6224 0.64206 0.587 0.0
C1544 C 0.60102 0.6161 0.62666 0.0
C1545 C 0.62237 0.67097 0.63878 0.0
C1546 C 0.60821 0.64369 0.64827 0.0
C1547 C 0.63038 0.67038 0.60823 0.0
H1548 H 0.65255 0.71911 0.61447 0.0
N1549 N 0.62251 0.61334 0.53606 0.0
C1550 C 0.63074 0.64079 0.55652 0.0
C1551 C 0.65545 0.66546 0.51652 0.0
C1552 C 0.64712 0.66765 0.54701 0.0
C1553 C 0.63229 0.61086 0.50723 0.0
C1554 C 0.64823 0.63687 0.49667 0.0
O1555 O 0.54437 0.4943 0.53755 0.0
O1556 O 0.59247 0.52037 0.5661 0.0
O1557 O 0.64199 0.56621 0.54604 0.0
O1558 O 0.63964 0.58317 0.59558 0.0
O1559 O 0.52506 0.55441 0.57517 0.0
O1560 O 0.57246 0.55055 0.59461 0.0
O1561 O 0.57253 0.60564 0.54071 0.0
O1562 O 0.5216 0.58085 0.52138 0.0
O1563 O 0.47288 0.52977 0.53587 0.0
O1564 O 0.47706 0.51898 0.48576 0.0
O1565 O 0.58929 0.54515 0.50625 0.0
O1566 O 0.54352 0.55288 0.48826 0.0
C1567 C 0.57094 0.49392 0.55479 0.0
C1568 C 0.54521 0.55218 0.59937 0.0
C1569 C 0.67768 0.55845 0.58687 0.0
C1570 C 0.71831 0.53648 0.57553 0.0
C1571 C 0.70419 0.53807 0.62847 0.0
C1572 C 0.68178 0.55228 0.61849 0.0
C1573 C 0.7223 0.5299 0.60699 0.0
C1574 C 0.696 0.55059 0.56567 0.0
C1575 C 0.65661 0.57543 0.5758 0.0
C1576 C 0.65481 0.69578 0.56814 0.0
C1577 C 0.64638 0.69716 0.59855 0.0
H1578 H 0.66806 0.6856 0.50839 0.0
C1579 C 0.54442 0.60665 0.5286 0.0
C1580 C 0.57043 0.55078 0.48306 0.0
C1581 C 0.43798 0.541 0.49615 0.0
C1582 C 0.39931 0.56499 0.50944 0.0
C1583 C 0.41033 0.56127 0.4552 0.0
C1584 C 0.43236 0.54641 0.46428 0.0
C1585 C 0.39374 0.57054 0.4777 0.0
C1586 C 0.42149 0.55046 0.51862 0.0
C1587 C 0.45909 0.52348 0.5057 0.0
H1588 H 0.70745 0.53327 0.65281 0.0
H1589 H 0.66797 0.55857 0.63544 0.0
H1590 H 0.73946 0.51868 0.61494 0.0
H1591 H 0.69364 0.55647 0.54163 0.0
H1592 H 0.40592 0.56537 0.43068 0.0
H1593 H 0.44463 0.53887 0.44631 0.0
H1594 H 0.37651 0.58191 0.47036 0.0
H1595 H 0.42581 0.54652 0.54331 0.0
C1596 C 0.11792 0.6074 0.98168 0.0
C1597 C 0.16133 0.64518 0.01761 0.0
C1598 C 0.13786 0.61732 0.01163 0.0
C1599 C 0.16345 0.66402 0.99409 0.0
C1600 C 0.1211 0.6259 0.95761 0.0
C1601 C 0.14334 0.65449 0.96427 0.0
N1602 N 0.09694 0.57916 0.9754 0.0
C1603 C 0.0807 0.5673 0.94474 0.0
C1604 C 0.10262 0.61473 0.92704 0.0
C1605 C 0.08276 0.58515 0.92045 0.0
Gd1606 Gd 1.01482 0.54587 0.06288 0.0
Gd1607 Gd 0.09582 0.55424 0.02051 0.0
N1608 N 0.13503 0.59932 0.03462 0.0
C1609 C 0.18243 0.65295 0.04683 0.0
C1610 C 0.15726 0.60504 0.06137 0.0
C1611 C 0.18083 0.63237 0.06846 0.0
H1612 H 0.15754 0.58798 0.07643 0.0
H1613 H 0.19808 0.6372 0.09016 0.0
H1614 H 0.96274 0.51235 0.99547 0.0
H1615 H 0.06645 0.54396 0.93818 0.0
H1616 H 0.92309 0.46348 0.97464 0.0
H1617 H 0.20082 0.67411 0.05224 0.0
H1618 H 0.18105 0.68572 0.99843 0.0
H1619 H 0.02709 0.55342 0.14585 0.0
H1620 H 0.10439 0.62831 0.90797 0.0
H1621 H 0.06938 0.57585 0.89644 0.0
H1622 H 0.91536 0.41498 0.06744 0.0
H1623 H 0.14582 0.66903 0.94609 0.0
H1624 H 0.97639 0.46969 0.16875 0.0
H1625 H 1.01293 0.52121 0.18593 0.0
N1626 N 1.00239 0.51887 0.10505 0.0
C1627 C 0.98046 0.4915 0.09527 0.0
C1628 C 1.01253 0.53028 0.13742 0.0
C1629 C 0.9833 0.48336 0.15071 0.0
C1630 C 1.00401 0.51235 0.16051 0.0
C1631 C 0.97046 0.47304 0.11797 0.0
H1632 H 0.93957 0.43083 0.12469 0.0
N1633 N 0.9751 0.50129 0.04134 0.0
C1634 C 0.96647 0.48254 0.06272 0.0
C1635 C 0.92776 0.44756 0.02012 0.0
C1636 C 0.94261 0.455 0.05249 0.0
C1637 C 0.9589 0.4954 0.01061 0.0
C1638 C 0.93558 0.46816 0.99923 0.0
O1639 O 0.08981 0.60173 0.04362 0.0
O1640 O 0.04362 0.59651 0.06358 0.0
O1641 O 0.97273 0.5582 0.04482 0.0
O1642 O 0.99708 0.57251 0.09562 0.0
O1643 O 0.07123 0.55316 0.05944 0.0
O1644 O 0.05382 0.55314 0.103 0.0
O1645 O 0.02551 0.49914 0.04506 0.0
O1646 O 0.0681 0.50305 0.01829 0.0
O1647 O 0.12753 0.53307 0.04608 0.0
O1648 O 0.13185 0.54452 0.99827 0.0
O1649 O 0.03064 0.55866 0.01756 0.0
O1650 O 0.05317 0.53168 0.98576 0.0
C1651 C 0.06942 0.61389 0.05649 0.0
C1652 C 0.07709 0.55372 0.08986 0.0
C1653 C 0.95099 0.58673 0.08402 0.0
C1654 C 0.91133 0.61169 0.07226 0.0
C1655 C 0.92916 0.60751 0.12755 0.0
C1656 C 0.94947 0.59218 0.11703 0.0
C1657 C 0.91021 0.61739 0.10527 0.0
C1658 C 0.93162 0.59623 0.06146 0.0
C1659 C 0.97374 0.57223 0.07403 0.0
C1660 C 0.93351 0.43626 0.07495 0.0
C1661 C 0.94729 0.4453 0.10757 0.0
H1662 H 0.90934 0.42664 0.01139 0.0
C1663 C 0.04436 0.48652 0.02969 0.0
C1664 C 0.02846 0.53845 0.99203 0.0
C1665 C 0.14816 0.50287 0.01021 0.0
C1666 C 0.18634 0.47528 0.00766 0.0
C1667 C 0.13957 0.45921 0.96749 0.0
C1668 C 0.12952 0.48274 0.98266 0.0
C1669 C 0.16808 0.45566 0.97974 0.0
C1670 C 0.17628 0.4987 0.02306 0.0
C1671 C 0.14173 0.53155 0.02155 0.0
H1672 H 0.92825 0.61187 0.15299 0.0
H1673 H 0.96414 0.58479 0.13481 0.0
H1674 H 0.89462 0.62954 0.11373 0.0
H1675 H 0.93278 0.59234 0.03597 0.0
H1676 H 0.12561 0.44424 0.94579 0.0
H1677 H 0.10796 0.48615 0.97203 0.0
H1678 H 0.17604 0.43777 0.9674 0.0
H1679 H 0.19106 0.51468 0.04381 0.0
C1680 C 1.00322 0.17377 0.02135 0.0
C1681 C 0.02378 0.19792 0.01069 0.0
C1682 C 1.01008 0.14557 0.02732 0.0
C1683 C 0.03847 0.13908 0.02403 0.0
H1684 H 0.98101 0.17637 0.02471 0.0
H1685 H 0.99267 0.12858 0.03493 0.0
S1686 S 0.10106 0.19405 0.99666 0.0
N1687 N 0.07425 0.21215 0.99688 0.0
N1688 N 0.08721 0.16114 0.00853 0.0
C1689 C 0.05928 0.16323 0.01357 0.0
C1690 C 0.05201 0.19166 0.00686 0.0
C1691 C 0.17585 0.802 0.20513 0.0
C1692 C 0.18144 0.82425 0.1848 0.0
C1693 C 0.19949 0.79885 0.22908 0.0
C1694 C 0.22991 0.81795 0.2341 0.0
H1695 H 0.15323 0.78611 0.20174 0.0
H1696 H 0.19406 0.78067 0.24305 0.0
S1697 S 0.25611 0.8818 0.18977 0.0
N1698 N 0.2196 0.86674 0.17306 0.0
N1699 N 0.26322 0.86138 0.21771 0.0
C1700 C 0.23537 0.84082 0.21458 0.0
C1701 C 0.2115 0.8438 0.19015 0.0
C1702 C 0.51504 0.89753 0.54081 0.0
C1703 C 0.52568 0.88195 0.51552 0.0
C1704 C 0.51947 0.93019 0.54632 0.0
C1705 C 0.53479 0.9499 0.5269 0.0
H1706 H 0.50298 0.88433 0.5567 0.0
H1707 H 0.51088 0.94007 0.56636 0.0
S1708 S 0.565 0.92163 0.45549 0.0
N1709 N 0.55106 0.8901 0.46968 0.0
N1710 N 0.55901 0.94987 0.47974 0.0
C1711 C 0.54502 0.93455 0.50123 0.0
C1712 C 0.54059 0.9014 0.49566 0.0
C1713 C 0.49792 0.29206 0.66426 0.0
C1714 C 0.52263 0.31644 0.68176 0.0
C1715 C 0.47369 0.27857 0.67872 0.0
C1716 C 0.47339 0.28891 0.71118 0.0
H1717 H 0.49789 0.28241 0.63955 0.0
H1718 H 0.45593 0.25877 0.66499 0.0
S1719 S 0.53066 0.3539 0.76659 0.0
N1720 N 0.54396 0.35208 0.73246 0.0
N1721 N 0.498 0.32644 0.75975 0.0
C1722 C 0.49659 0.31468 0.72831 0.0
C1723 C 0.52141 0.32853 0.71355 0.0
C1724 C 0.04625 0.86569 0.66051 0.0
C1725 C 0.03856 0.8359 0.64257 0.0
C1726 C 0.06004 0.89115 0.64741 0.0
C1727 C 0.06676 0.88748 0.61614 0.0
H1728 H 0.04281 0.86919 0.68528 0.0
H1729 H 0.06729 0.91363 0.66253 0.0
S1730 S 0.05109 0.81418 0.55961 0.0
N1731 N 0.03809 0.80405 0.59205 0.0
N1732 N 0.06423 0.85199 0.5674 0.0
C1733 C 0.05804 0.85792 0.59753 0.0
C1734 C 0.04393 0.83202 0.61084 0.0
C1735 C 0.45573 0.84663 0.81274 0.0
C1736 C 0.46804 0.82411 0.82517 0.0
C1737 C 0.42333 0.84267 0.8046 0.0
C1738 C 0.4011 0.81636 0.80915 0.0
H1739 H 0.47123 0.86829 0.81091 0.0
H1740 H 0.4158 0.86101 0.79581 0.0
S1741 S 0.42107 0.7507 0.8417 0.0
N1742 N 0.45469 0.77453 0.84161 0.0
N1743 N 0.3953 0.76714 0.82696 0.0
C1744 C 0.41337 0.79358 0.82105 0.0
C1745 C 0.4461 0.79748 0.82891 0.0
C1746 C 0.53535 0.14751 0.15634 0.0
C1747 C 0.53309 0.17659 0.15043 0.0
C1748 C 0.53837 0.12494 0.13177 0.0
C1749 C 0.53962 0.13005 0.0997 0.0
H1750 H 0.53524 0.14212 0.18041 0.0
H1751 H 0.54015 0.10331 0.13835 0.0
S1752 S 0.53335 0.20175 0.0707 0.0
N1753 N 0.53131 0.20864 0.10931 0.0
N1754 N 0.53726 0.16677 0.0639 0.0
C1755 C 0.53708 0.15893 0.0935 0.0
C1756 C 0.53378 0.1819 0.11848 0.0
C1757 C 0.16944 0.31118 0.28957 0.0
C1758 C 0.16405 0.32577 0.31917 0.0
C1759 C 0.19848 0.30682 0.28486 0.0
C1760 C 0.22523 0.31685 0.30921 0.0
H1761 H 0.15065 0.30258 0.26917 0.0
H1762 H 0.19987 0.2954 0.26136 0.0
S1763 S 0.2255 0.35463 0.39264 0.0
N1764 N 0.18969 0.34902 0.37426 0.0
N1765 N 0.24345 0.34127 0.36544 0.0
C1766 C 0.22052 0.3313 0.3392 0.0
C1767 C 0.19059 0.33561 0.34413 0.0
C1768 C 1.00015 0.04921 0.16935 0.0
C1769 C 0.01672 0.03665 0.19207 0.0
C1770 C 1.01034 0.05569 0.14035 0.0
C1771 C 0.03738 0.04956 0.13229 0.0
H1772 H 0.97865 0.05326 0.17348 0.0
H1773 H 0.99626 0.06463 0.12353 0.0
S1774 S 0.09171 0.02135 0.18593 0.0
N1775 N 0.06362 0.02201 0.20604 0.0
N1776 N 0.08217 0.03334 0.15195 0.0
C1777 C 0.05498 0.0387 0.15577 0.0
C1778 C 0.04475 0.03235 0.1853 0.0
C1779 C 0.29854 0.71659 0.50309 0.0
C1780 C 0.2885 0.68447 0.49934 0.0
C1781 C 0.28563 0.73171 0.48068 0.0
C1782 C 0.2629 0.71473 0.45436 0.0
H1783 H 0.3128 0.73011 0.52546 0.0
H1784 H 0.2913 0.75653 0.48544 0.0
S1785 S 0.23549 0.63094 0.42968 0.0
N1786 N 0.25978 0.63648 0.46403 0.0
N1787 N 0.23569 0.6653 0.4219 0.0
C1788 C 0.25647 0.68296 0.4478 0.0
C1789 C 0.26972 0.66763 0.4702 0.0
C1790 C 0.64734 0.0991 0.648 0.0
C1791 C 0.65963 0.07482 0.65462 0.0
C1792 C 0.62084 0.0935 0.62526 0.0
C1793 C 0.60769 0.06422 0.60702 0.0
H1794 H 0.65589 0.12167 0.66291 0.0
H1795 H 0.60989 0.11169 0.62287 0.0
S1796 S 0.63416 0.99476 0.61023 0.0
N1797 N 0.65925 0.02169 0.63782 0.0
N1798 N 0.60929 0.01154 0.59401 0.0
C1799 C 0.62146 0.04067 0.61059 0.0
C1800 C 0.64808 0.04611 0.6343 0.0
C1801 C 0.33638 0.32041 0.94469 0.0
C1802 C 0.3238 0.34299 0.95857 0.0
C1803 C 0.33344 0.31235 0.91104 0.0
C1804 C 0.31851 0.32697 0.88924 0.0
H1805 H 0.34902 0.30888 0.95998 0.0
H1806 H 0.3433 0.29459 0.90224 0.0
S1807 S 0.27841 0.38535 0.91226 0.0
N1808 N 0.29329 0.37809 0.9472 0.0
N1809 N 0.28851 0.36348 0.88415 0.0
C1810 C 0.30485 0.34888 0.9026 0.0
C1811 C 0.30735 0.35676 0.93705 0.0
C1812 C 0.04032 0.0299 0.38705 0.0
C1813 C 1.01234 0.0335 0.37207 0.0
C1814 C 0.04807 0.03289 0.42077 0.0
C1815 C 0.02798 0.03898 0.44141 0.0
H1816 H 0.05643 0.02445 0.37254 0.0
H1817 H 0.07011 0.03013 0.43059 0.0
S1818 S 0.95165 0.05052 0.41471 0.0
N1819 N 0.96445 0.04408 0.38077 0.0
N1820 N 0.97879 0.04901 0.44406 0.0
C1821 C 1.00004 0.04311 0.42687 0.0
C1822 C 0.99229 0.04052 0.39235 0.0
C1823 C 0.25498 0.71316 0.67915 0.0
C1824 C 0.27931 0.70154 0.67199 0.0
C1825 C 0.25993 0.73698 0.70478 0.0
C1826 C 0.28868 0.74824 0.72487 0.0
H1827 H 0.23289 0.70612 0.66307 0.0
H1828 H 0.24183 0.74783 0.70779 0.0
S1829 S 0.35772 0.72137 0.7212 0.0
N1830 N 0.33175 0.69965 0.69037 0.0
N1831 N 0.34053 0.74447 0.73936 0.0
C1832 C 0.31201 0.73442 0.72072 0.0
C1833 C 0.30729 0.71055 0.69417 0.0
C1834 C 0.63645 0.06517 0.82897 0.0
C1835 C 0.66825 0.06988 0.83187 0.0
C1836 C 0.62476 0.08118 0.85201 0.0
C1837 C 0.64476 0.10173 0.87833 0.0
H1838 H 0.62109 0.05263 0.80678 0.0
H1839 H 0.60045 0.07939 0.84792 0.0
S1840 S 0.72836 0.11466 0.90121 0.0
N1841 N 0.71854 0.09121 0.86599 0.0
N1842 N 0.69623 0.1207 0.91001 0.0
C1843 C 0.67582 0.10301 0.88385 0.0
C1844 C 0.68769 0.08685 0.86045 0.0
C1845 C 0.3298 0.31771 0.14798 0.0
C1846 C 0.32331 0.34472 0.14021 0.0
C1847 C 0.32458 0.30745 0.17705 0.0
C1848 C 0.31274 0.32369 0.20026 0.0
H1849 H 0.33949 0.30436 0.13156 0.0
H1850 H 0.3306 0.2868 0.18159 0.0
S1851 S 0.2904 0.39518 0.19186 0.0
N1852 N 0.30323 0.3871 0.15827 0.0
N1853 N 0.29322 0.36764 0.21264 0.0
C1854 C 0.30512 0.35022 0.19249 0.0
C1855 C 0.31045 0.36075 0.1627 0.0
C1856 C 0.28709 0.03081 0.04164 0.0
C1857 C 0.27438 0.01548 0.00992 0.0
C1858 C 0.2684 0.03868 0.06245 0.0
C1859 C 0.23661 0.03152 0.05198 0.0
H1860 H 0.31122 0.03455 0.05118 0.0
H1861 H 0.27872 0.04942 0.0872 0.0
S1862 S 0.19315 0.99452 0.96965 0.0
N1863 N 0.22908 0.99521 0.96801 0.0
N1864 N 0.19352 0.01101 0.00678 0.0
C1865 C 0.22394 0.01819 0.01946 0.0
C1866 C 0.24302 1.00978 0.99848 0.0
C1867 C 0.66338 0.64387 0.99819 0.0
C1868 C 0.69231 0.64645 0.01635 0.0
C1869 C 0.63706 0.62239 0.00231 0.0
C1870 C 0.63839 0.60288 0.02522 0.0
H1871 H 0.66093 0.65921 0.98123 0.0
H1872 H 0.61531 0.62186 0.98803 0.0
S1873 S 0.70872 0.60093 0.07944 0.0
N1874 N 0.72103 0.6275 0.05786 0.0
N1875 N 0.67131 0.58769 0.06644 0.0
C1876 C 0.66734 0.60473 0.04311 0.0
C1877 C 0.69434 0.62636 0.03846 0.0
C1878 C 0.68935 0.48832 0.28131 0.0
C1879 C 0.70703 0.51239 0.30631 0.0
C1880 C 0.70236 0.46706 0.26649 0.0
C1881 C 0.73332 0.46898 0.27639 0.0
H1882 H 0.66559 0.48657 0.27204 0.0
H1883 H 0.68846 0.44972 0.24636 0.0
S1884 S 0.78867 0.5245 0.34296 0.0
N1885 N 0.75665 0.53491 0.34202 0.0
N1886 N 0.78072 0.49407 0.3143 0.0
C1887 C 0.75071 0.49115 0.3028 0.0
C1888 C 0.73764 0.51316 0.31775 0.0
C1889 C 0.92973 0.53631 0.54213 0.0
C1890 C 0.91764 0.5049 0.53001 0.0
C1891 C 0.9603 0.55088 0.54122 0.0
C1892 C 0.97905 0.53402 0.5288 0.0
H1893 H 0.91557 0.5495 0.55198 0.0
H1894 H 0.96917 0.57541 0.5496 0.0
S1895 S 0.95678 0.45202 0.49183 0.0
N1896 N 0.92567 0.45796 0.50348 0.0
N1897 N 0.98322 0.48529 0.5027 0.0
C1898 C 0.9671 0.50275 0.51679 0.0
C1899 C 0.93617 0.48816 0.51709 0.0
C1900 C 0.34973 0.11733 0.32958 0.0
C1901 C 0.33988 0.08522 0.32294 0.0
C1902 C 0.34152 0.13418 0.30662 0.0
C1903 C 0.32332 0.11921 0.27654 0.0
H1904 H 0.3661 0.12928 0.35134 0.0
H1905 H 0.35067 0.15894 0.31175 0.0
S1906 S 0.28896 0.03599 0.24905 0.0
N1907 N 0.30937 0.03913 0.28534 0.0
N1908 N 0.2927 0.07141 0.24255 0.0
C1909 C 0.31134 0.08739 0.27061 0.0
C1910 C 0.31979 0.07015 0.29391 0.0
C1911 C 0.34661 0.11684 0.51964 0.0
C1912 C 0.34916 0.1484 0.52666 0.0
C1913 C 0.36868 0.10466 0.53516 0.0
C1914 C 0.39374 0.12383 0.55784 0.0
H1915 H 0.32651 0.10121 0.50384 0.0
H1916 H 0.36502 0.08003 0.53117 0.0
S1917 S 0.4143 0.20822 0.57999 0.0
N1918 N 0.38125 0.19889 0.5545 0.0
N1919 N 0.42271 0.17563 0.58307 0.0
C1920 C 0.39817 0.15551 0.56264 0.0
C1921 C 0.37578 0.16794 0.54722 0.0
C1922 C 0.70892 0.67194 0.27532 0.0
C1923 C 0.70915 0.66217 0.30539 0.0
C1924 C 0.73174 0.69728 0.27103 0.0
C1925 C 0.75434 0.71496 0.29718 0.0
H1926 H 0.69067 0.66013 0.25506 0.0
H1927 H 0.73076 0.70397 0.24746 0.0
S1928 S 0.76769 0.69637 0.37941 0.0
N1929 N 0.73665 0.66925 0.36032 0.0
N1930 N 0.77774 0.71894 0.35315 0.0
C1931 C 0.75574 0.70457 0.32691 0.0
C1932 C 0.73345 0.67772 0.33084 0.0
C1933 C 0.87035 0.42287 0.79854 0.0
C1934 C 0.85283 0.44395 0.79862 0.0
C1935 C 0.85771 0.39287 0.80189 0.0
C1936 C 0.82702 0.38281 0.80528 0.0
H1937 H 0.89442 0.42982 0.79686 0.0
H1938 H 0.87239 0.3777 0.80235 0.0
S1939 S 0.77173 0.42932 0.80822 0.0
N1940 N 0.80383 0.45349 0.80378 0.0
N1941 N 0.77927 0.396 0.80902 0.0
C1942 C 0.80915 0.40361 0.80567 0.0
C1943 C 0.8223 0.43456 0.80272 0.0
C1944 C 0.10962 0.92543 0.06061 0.0
C1945 C 0.09022 0.90393 0.07557 0.0
C1946 C 0.10398 0.95402 0.05406 0.0
C1947 C 0.07799 0.96363 0.06108 0.0
H1948 H 0.12998 0.92036 0.05411 0.0
H1949 H 0.12034 0.96874 0.04289 0.0
S1950 S 0.01977 0.9175 0.10159 0.0
N1951 N 0.04371 0.89626 0.09808 0.0
N1952 N 0.03306 0.94805 0.08551 0.0
C1953 C 0.05837 0.94236 0.07605 0.0
C1954 C 0.06442 0.9135 0.08328 0.0
C1955 C 0.89755 0.26508 0.90606 0.0
C1956 C 0.92876 0.27991 0.90673 0.0
C1957 C 0.87349 0.26928 0.8836 0.0
C1958 C 0.87907 0.28911 0.86087 0.0
H1959 H 0.89155 0.24999 0.92315 0.0
H1960 H 0.85015 0.25693 0.88431 0.0
S1961 S 0.95638 0.33673 0.85498 0.0
N1962 N 0.96352 0.31687 0.88351 0.0
N1963 N 0.91881 0.32586 0.84287 0.0
C1964 C 0.91017 0.30476 0.8619 0.0
C1965 C 0.93472 0.29993 0.8843 0.0
C1966 C 0.60729 0.20091 0.56761 0.0
C1967 C 0.5836 0.21559 0.57017 0.0
C1968 C 0.60202 0.16812 0.56312 0.0
C1969 C 0.57257 0.14718 0.56049 0.0
H1970 H 0.63059 0.21501 0.56986 0.0
H1971 H 0.62156 0.15916 0.5622 0.0
S1972 S 0.50146 0.1722 0.56213 0.0
N1973 N 0.52866 0.20499 0.56793 0.0
N1974 N 0.51889 0.14482 0.55874 0.0
C1975 C 0.54859 0.16151 0.56229 0.0
C1976 C 0.55399 0.19491 0.56729 0.0
C1977 C 0.58382 0.79341 0.36199 0.0
C1978 C 0.58436 0.79376 0.39529 0.0
C1979 C 0.61097 0.80331 0.35011 0.0
C1980 C 0.63948 0.81366 0.37108 0.0
H1981 H 0.56223 0.78703 0.34513 0.0
H1982 H 0.60948 0.80496 0.32474 0.0
S1983 S 0.65434 0.81533 0.45932 0.0
N1984 N 0.61667 0.8024 0.44851 0.0
N1985 N 0.66742 0.82099 0.42573 0.0
C1986 C 0.64071 0.81196 0.40387 0.0
C1987 C 0.61319 0.80203 0.41612 0.0
C1988 C 0.0411 0.23837 0.39939 0.0
C1989 C 0.06537 0.26335 0.41631 0.0
C1990 C 0.03152 0.21212 0.413 0.0
C1991 C 0.04588 0.21018 0.44395 0.0
H1992 H 0.02712 0.24059 0.37745 0.0
H1993 H 1.01064 0.1948 0.40094 0.0
S1994 S 0.11432 0.26703 0.49475 0.0
N1995 N 0.10636 0.28286 0.46296 0.0
N1996 N 0.0887 0.23315 0.4885 0.0
C1997 C 0.0726 0.23329 0.45908 0.0
C1998 C 0.08218 0.26013 0.44529 0.0
C1999 C 0.65286 0.2481 0.25108 0.0
C2000 C 0.63895 0.27119 0.26149 0.0
C2001 C 0.68546 0.25309 0.25558 0.0
C2002 C 0.70653 0.28163 0.27065 0.0
H2003 H 0.6383 0.22582 0.23882 0.0
H2004 H 0.69421 0.23443 0.2466 0.0
S2005 S 0.68328 0.34899 0.30604 0.0
N2006 N 0.65013 0.32345 0.2899 0.0
N2007 N 0.71024 0.33255 0.29833 0.0
C2008 C 0.69298 0.30467 0.28175 0.0
C2009 C 0.65981 0.29961 0.27718 0.0
C2010 C 0.55658 0.9462 0.92254 0.0
C2011 C 0.57996 0.93327 0.9339 0.0
C2012 C 0.55006 0.97056 0.94155 0.0
C2013 C 0.5679 0.98502 0.97222 0.0
H2014 H 0.54081 0.93509 0.90013 0.0
H2015 H 0.52914 0.97574 0.93279 0.0
S2016 S 0.63063 0.95917 0.01464 0.0
N2017 N 0.61924 0.93528 0.97969 0.0
N2018 N 0.60956 0.98352 0.01347 0.0
C2019 C 0.59183 0.97283 0.98366 0.0
C2020 C 0.5974 0.94676 0.965 0.0
C2021 C 0.92598 0.74809 0.74087 0.0
C2022 C 0.95555 0.76927 0.75145 0.0
C2023 C 0.89826 0.7546 0.74809 0.0
C2024 C 0.89783 0.78251 0.76718 0.0
H2025 H 0.92409 0.72609 0.72658 0.0
H2026 H 0.87678 0.73711 0.73874 0.0
S2027 S 0.96957 0.84484 0.80306 0.0
N2028 N 0.98228 0.81905 0.78274 0.0
N2029 N 0.93194 0.83069 0.79762 0.0
C2030 C 0.92759 0.80344 0.77836 0.0
C2031 C 0.95562 0.79704 0.77027 0.0
C2032 C 0.10539 0.04321 0.90399 0.0
C2033 C 0.10205 0.06943 0.89107 0.0
C2034 C 0.09569 0.03687 0.93339 0.0
C2035 C 0.08172 0.05613 0.95101 0.0
H2036 H 0.11558 0.02743 0.89134 0.0
H2037 H 0.09891 0.01657 0.94225 0.0
S2038 S 0.07026 0.12904 0.93002 0.0
N2039 N 0.08584 0.11594 0.90055 0.0
N2040 N 0.06678 0.10331 0.95406 0.0
C2041 C 0.07848 0.08234 0.93851 0.0
C2042 C 0.08885 0.08915 0.90917 0.0
C2043 C 0.83106 0.42969 0.60735 0.0
C2044 C 0.81668 0.40594 0.58088 0.0
C2045 C 0.84501 0.4232 0.63596 0.0
C2046 C 0.84413 0.39292 0.63879 0.0
H2047 H 0.83502 0.45353 0.60471 0.0
H2048 H 0.8585 0.44197 0.65491 0.0
S2049 S 0.80245 0.32257 0.57958 0.0
N2050 N 0.7972 0.3511 0.56145 0.0
N2051 N 0.82302 0.33871 0.61578 0.0
C2052 C 0.826 0.36881 0.61442 0.0
C2053 C 0.81208 0.37543 0.58524 0.0
C2054 C 0.47128 0.01429 0.41369 0.0
C2055 C 0.4514 0.03307 0.41501 0.0
C2056 C 0.49674 0.01983 0.43778 0.0
C2057 C 0.50226 0.04378 0.46379 0.0
H2058 H 0.46787 0.99599 0.3934 0.0
H2059 H 0.51182 1.00508 0.43638 0.0
S2060 S 0.45633 0.09792 0.47914 0.0
N2061 N 0.43827 0.07569 0.44433 0.0
N2062 N 0.48628 0.08554 0.4908 0.0
C2063 C 0.48228 0.06211 0.46595 0.0
C2064 C 0.45662 0.05682 0.44115 0.0
C2065 C 0.78386 0.78569 0.13731 0.0
C2066 C 0.78773 0.75805 0.12198 0.0
C2067 C 0.78648 0.79254 0.17116 0.0
C2068 C 0.79266 0.77191 0.19147 0.0
H2069 H 0.77864 0.80225 0.12299 0.0
H2070 H 0.78367 0.81434 0.18144 0.0
S2071 S 0.80271 0.69529 0.1636 0.0
N2072 N 0.79709 0.70934 0.13006 0.0
N2073 N 0.80153 0.72195 0.19318 0.0
C2074 C 0.79641 0.74408 0.17645 0.0
C2075 C 0.79406 0.73723 0.14198 0.0
C2076 C 0.10092 0.09353 0.68975 0.0
C2077 C 0.09825 0.06871 0.70665 0.0
C2078 C 0.09376 0.08904 0.65573 0.0
C2079 C 0.08228 0.05956 0.63662 0.0
H2080 H 0.10953 0.11684 0.70293 0.0
H2081 H 0.09791 0.109 0.64438 0.0
S2082 S 0.07124 0.98646 0.66879 0.0
N2083 N 0.08453 0.01327 0.70143 0.0
N2084 N 0.06913 1.00478 0.63791 0.0
C2085 C 0.07955 0.03442 0.65328 0.0
C2086 C 0.08791 0.039 0.68802 0.0
C2087 C 0.85633 0.39009 0.40652 0.0
C2088 C 0.8316 0.39643 0.4195 0.0
C2089 C 0.85116 0.36745 0.37956 0.0
C2090 C 0.82121 0.35194 0.36397 0.0
H2091 H 0.87985 0.40177 0.41799 0.0
H2092 H 0.87058 0.36218 0.37068 0.0
S2093 S 0.74871 0.35853 0.38843 0.0
N2094 N 0.77596 0.38417 0.41518 0.0
N2095 N 0.76661 0.34265 0.36303 0.0
C2096 C 0.79627 0.35836 0.37586 0.0
C2097 C 0.80138 0.38068 0.40392 0.0
C2098 C 0.48136 0.05016 0.24552 0.0
C2099 C 0.45136 0.03815 0.25011 0.0
C2100 C 0.49118 0.03779 0.21861 0.0
C2101 C 0.47113 0.01303 0.19637 0.0
H2102 H 0.49804 0.06681 0.26437 0.0
H2103 H 0.51509 0.04573 0.21664 0.0
S2104 S 0.38909 0.97742 0.19462 0.0
N2105 N 0.40052 1.00333 0.22815 0.0
N2106 N 0.4194 0.98012 0.17726 0.0
C2107 C 0.4403 1.0032 0.19871 0.0
C2108 C 0.4302 0.0159 0.22586 0.0
C2109 C 0.81511 0.75264 0.92619 0.0
C2110 C 0.78734 0.75371 0.9365 0.0
C2111 C 0.82176 0.76154 0.89658 0.0
C2112 C 0.80103 0.77204 0.87614 0.0
H2113 H 0.83204 0.74532 0.9413 0.0
H2114 H 0.84355 0.76083 0.88999 0.0
S2115 S 0.72364 0.77532 0.88926 0.0
N2116 N 0.73781 0.76323 0.92147 0.0
N2117 N 0.75079 0.78072 0.86729 0.0
C2118 C 0.77308 0.77253 0.88582 0.0
C2119 C 0.76611 0.76313 0.91547 0.0
C2120 C 0.83404 0.05872 0.04392 0.0
C2121 C 0.84288 0.08611 0.06653 0.0
C2122 C 0.85386 0.05203 0.02396 0.0
C2123 C 0.88285 0.07245 0.02642 0.0
H2124 H 0.81101 0.04349 0.03988 0.0
H2125 H 0.84611 0.03147 0.00567 0.0
S2126 S 0.91936 0.14362 0.08582 0.0
N2127 N 0.88442 0.13138 0.09343 0.0
N2128 N 0.92174 0.11806 0.05575 0.0
C2129 C 0.89327 0.09811 0.05094 0.0
C2130 C 0.87318 0.10512 0.0712 0.0
C2131 C 0.42049 0.47755 0.04514 0.0
C2132 C 0.42273 0.45624 0.06589 0.0
C2133 C 0.44688 0.4991 0.04049 0.0
C2134 C 0.47632 0.50032 0.05677 0.0
H2135 H 0.39848 0.47641 0.031 0.0
H2136 H 0.44428 0.51391 0.023 0.0
S2137 S 0.49367 0.45212 0.11712 0.0
N2138 N 0.45619 0.43949 0.10482 0.0
N2139 N 0.50535 0.4802 0.09722 0.0
C2140 C 0.47839 0.48037 0.07917 0.0
C2141 C 0.45173 0.45831 0.08344 0.0
C2142 C 0.37001 0.5811 0.79558 0.0
C2143 C 0.39855 0.58561 0.78559 0.0
C2144 C 0.35874 0.60589 0.80475 0.0
C2145 C 0.37557 0.63588 0.80409 0.0
H2146 H 0.35706 0.5585 0.79823 0.0
H2147 H 0.338 0.60185 0.81492 0.0
S2148 S 0.44907 0.66026 0.77588 0.0
N2149 N 0.44169 0.6226 0.77227 0.0
N2150 N 0.42002 0.66909 0.78978 0.0
C2151 C 0.40264 0.64071 0.79162 0.0
C2152 C 0.41431 0.61554 0.7823 0.0
C2153 C 0.18323 0.57713 0.5328 0.0
C2154 C 0.20064 0.599 0.55953 0.0
C2155 C 0.15142 0.56709 0.52942 0.0
C2156 C 0.1366 0.5801 0.55174 0.0
H2157 H 0.19419 0.56848 0.51409 0.0
H2158 H 0.13831 0.54955 0.5091 0.0
S2159 S 0.17181 0.63972 0.6242 0.0
N2160 N 0.20096 0.63357 0.60831 0.0
N2161 N 0.14077 0.61635 0.60034 0.0
C2162 C 0.15361 0.60237 0.57806 0.0
C2163 C 0.1859 0.61145 0.58239 0.0
C2164 C 0.74575 0.9943 0.78099 0.0
C2165 C 0.75961 1.0079 0.75691 0.0
C2166 C 0.76121 0.98005 0.80178 0.0
C2167 C 0.79071 0.97852 0.79883 0.0
H2168 H 0.72353 0.99621 0.78529 0.0
H2169 H 0.7504 0.97096 0.82086 0.0
S2170 S 0.83414 1.00421 0.73572 0.0
N2171 N 0.80254 0.01519 0.72852 0.0
N2172 N 0.83141 0.98672 0.76728 0.0
C2173 C 0.80367 0.98913 0.77305 0.0
C2174 C 0.78815 1.00438 0.75217 0.0
C2175 C 0.74655 0.93804 0.52063 0.0
C2176 C 0.76358 0.95008 0.55211 0.0
C2177 C 0.72463 0.95113 0.50684 0.0
C2178 C 0.71888 0.97673 0.52395 0.0
H2179 H 0.75074 0.91887 0.50595 0.0
H2180 H 0.71267 0.94165 0.48225 0.0
S2181 S 0.75393 0.01471 0.60836 0.0
N2182 N 0.77087 0.98739 0.60106 0.0
N2183 N 0.7294 0.01204 0.57488 0.0
C2184 C 0.73408 0.98785 0.55611 0.0
C2185 C 0.75661 0.97458 0.57021 0.0
C2186 C 0.38021 0.43741 0.78158 0.0
C2187 C 0.40439 0.43545 0.76503 0.0
C2188 C 0.35888 0.41077 0.7863 0.0
C2189 C 0.36053 0.38117 0.77404 0.0
H2190 H 0.37866 0.45961 0.7924 0.0
H2191 H 0.34176 0.4135 0.80062 0.0
S2192 S 0.41858 0.36396 0.72687 0.0
N2193 N 0.4279 0.40168 0.73528 0.0
N2194 N 0.38793 0.35215 0.74286 0.0
C2195 C 0.38395 0.37921 0.75619 0.0
C2196 C 0.40575 0.40614 0.75197 0.0
C2197 C 0.28689 0.66985 0.27868 0.0
C2198 C 0.25586 0.65739 0.26504 0.0
C2199 C 0.2987 0.70148 0.28858 0.0
C2200 C 0.27955 0.72092 0.28528 0.0
H2201 H 0.3022 0.65536 0.28025 0.0
H2202 H 0.32312 0.7109 0.29759 0.0
S2203 S 0.19561 0.69819 0.25454 0.0
N2204 N 0.20544 0.66587 0.25176 0.0
N2205 N 0.22768 0.72527 0.27003 0.0
C2206 C 0.24801 0.70833 0.27376 0.0
C2207 C 0.23612 0.6764 0.26364 0.0
C2208 C 0.55396 0.6924 0.5106 0.0
C2209 C 0.52419 0.69727 0.50882 0.0
C2210 C 0.56061 0.66421 0.51742 0.0
C2211 C 0.53791 0.638 0.52204 0.0
H2212 H 0.57268 0.71081 0.5071 0.0
H2213 H 0.5839 0.66287 0.5184 0.0
S2214 S 0.45617 0.63676 0.51843 0.0
N2215 N 0.47194 0.67158 0.5121 0.0
N2216 N 0.48387 0.61993 0.52321 0.0
C2217 C 0.5082 0.6425 0.51969 0.0
C2218 C 0.5016 0.67132 0.51364 0.0
C2219 C 0.67716 0.31396 0.71139 0.0
C2220 C 0.68262 0.3207 0.68074 0.0
C2221 C 0.70061 0.31033 0.73536 0.0
C2222 C 0.73108 0.31342 0.73037 0.0
H2223 H 0.65435 0.31097 0.71685 0.0
H2224 H 0.69456 0.30486 0.75796 0.0
S2225 S 0.75764 0.32968 0.65378 0.0
N2226 N 0.72129 0.32944 0.6469 0.0
N2227 N 0.76447 0.32288 0.6909 0.0
C2228 C 0.73668 0.32008 0.69969 0.0
C2229 C 0.71288 0.32363 0.67537 0.0
C2230 C 0.04315 0.40174 0.99423 0.0
C2231 C 0.02802 0.38268 0.01434 0.0
C2232 C 0.04818 0.43447 0.99919 0.0
C2233 C 0.03838 0.45084 0.02455 0.0
H2234 H 0.051 0.39124 0.97396 0.0
H2235 H 0.0597 0.44705 0.98253 0.0
S2236 S 1.00076 0.41315 0.08662 0.0
N2237 N 1.00496 0.3841 0.0621 0.0
N2238 N 1.01474 0.44422 0.07168 0.0
C2239 C 0.02378 0.43209 0.04516 0.0
C2240 C 0.01858 0.39878 0.04004 0.0
C2241 C 0.02544 0.82612 0.21631 0.0
C2242 C 0.02387 0.8197 0.18273 0.0
C2243 C 1.00066 0.81254 0.23032 0.0
C2244 C 0.97375 0.79261 0.21098 0.0
H2245 H 0.04659 0.83983 0.23199 0.0
H2246 H 1.00331 0.8159 0.25641 0.0
S2247 S 0.95615 0.77322 0.12182 0.0
N2248 N 0.99177 0.79548 0.13035 0.0
N2249 N 0.94516 0.77039 0.15691 0.0
C2250 C 0.97089 0.78833 0.17736 0.0
C2251 C 0.99605 0.80179 0.16313 0.0
C2252 C 0.52845 0.34886 0.12953 0.0
C2253 C 0.54583 0.34158 0.15596 0.0
C2254 C 0.54215 0.37127 0.11248 0.0
C2255 C 0.5735 0.38699 0.12159 0.0
H2256 H 0.50464 0.33609 0.12091 0.0
H2257 H 0.52866 0.37501 0.09104 0.0
S2258 S 0.62738 0.38098 0.1926 0.0
N2259 N 0.59502 0.35505 0.19291 0.0
N2260 N 0.62022 0.39742 0.16115 0.0
C2261 C 0.5903 0.38188 0.14953 0.0
C2262 C 0.57662 0.35902 0.16664 0.0
C2263 C 0.94625 0.29564 0.31771 0.0
C2264 C 0.96912 0.32408 0.32289 0.0
C2265 C 0.91424 0.29284 0.30927 0.0
C2266 C 0.90241 0.31842 0.30629 0.0
H2267 H 0.95306 0.27527 0.3218 0.0
H2268 H 0.89851 0.27016 0.30616 0.0
S2269 S 0.9523 0.39888 0.32167 0.0
N2270 N 0.97707 0.37861 0.32643 0.0
N2271 N 0.91792 0.37395 0.31184 0.0
C2272 C 0.92517 0.34709 0.31174 0.0
C2273 C 0.95788 0.34973 0.31978 0.0
C2274 C 0.04024 0.68167 0.62029 0.0
C2275 C 0.03327 0.67631 0.65072 0.0
C2276 C 0.04378 0.65816 0.59719 0.0
C2277 C 0.0399 0.62776 0.6028 0.0
H2278 H 0.04382 0.70451 0.61447 0.0
H2279 H 0.05005 0.6642 0.57493 0.0
S2280 S 0.02139 0.60132 0.67896 0.0
N2281 N 0.02327 0.63809 0.68541 0.0
N2282 N 0.02783 0.59398 0.64196 0.0
C2283 C 0.0322 0.62202 0.63306 0.0
C2284 C 0.02946 0.64613 0.65686 0.0
C2285 C 0.66875 0.80146 0.81529 0.0
C2286 C 0.6673 0.83236 0.82245 0.0
C2287 C 0.69615 0.79366 0.80837 0.0
C2288 C 0.72423 0.81614 0.80856 0.0
H2289 H 0.64821 0.78299 0.81385 0.0
H2290 H 0.69525 0.76967 0.80296 0.0
S2291 S 0.73368 0.90018 0.82549 0.0
N2292 N 0.69769 0.88519 0.82863 0.0
N2293 N 0.74767 0.87092 0.81686 0.0
C2294 C 0.72301 0.84683 0.81621 0.0
C2295 C 0.69528 0.85471 0.82266 0.0
C2296 C 0.49772 0.54722 0.66784 0.0
C2297 C 0.51618 0.53886 0.69271 0.0
C2298 C 0.50766 0.55267 0.63848 0.0
C2299 C 0.53646 0.54978 0.63235 0.0
H2300 H 0.47495 0.54855 0.67056 0.0
H2301 H 0.4921 0.55814 0.61994 0.0
S2302 S 0.59533 0.53287 0.69169 0.0
N2303 N 0.56612 0.53155 0.71055 0.0
N2304 N 0.58435 0.54076 0.65581 0.0
C2305 C 0.55566 0.54296 0.65784 0.0
C2306 C 0.54564 0.53771 0.6877 0.0
C2307 C 0.78334 0.1902 0.99134 0.0
C2308 C 0.79211 0.21 0.02155 0.0
C2309 C 0.76905 0.19902 0.96426 0.0
C2310 C 0.76325 0.22776 0.96677 0.0
H2311 H 0.78499 0.16685 0.98913 0.0
H2312 H 0.76069 0.18262 0.94191 0.0
S2313 S 0.78719 0.28996 0.03795 0.0
N2314 N 0.79833 0.26126 0.05065 0.0
N2315 N 0.77109 0.27753 0.99954 0.0
C2316 C 0.77456 0.24875 0.99565 0.0
C2317 C 0.78928 0.23997 0.02312 0.0
C2318 C 0.15007 0.58257 0.14665 0.0
C2319 C 0.15006 0.55681 0.1612 0.0
C2320 C 0.127 0.58084 0.12098 0.0
C2321 C 0.10532 0.55291 0.108 0.0
H2322 H 0.16562 0.60486 0.15759 0.0
H2323 H 0.12481 0.60179 0.1128 0.0
S2324 S 0.09517 0.4798 0.13868 0.0
N2325 N 0.12624 0.50338 0.16236 0.0
N2326 N 0.08404 0.49945 0.11159 0.0
C2327 C 0.1062 0.5266 0.12108 0.0
C2328 C 0.12879 0.52865 0.1482 0.0
C2329 C 0.81713 0.86003 0.43569 0.0
C2330 C 0.82231 0.83953 0.45655 0.0
C2331 C 0.8148 0.85229 0.40193 0.0
C2332 C 0.81738 0.82368 0.38754 0.0
H2333 H 0.81591 0.88263 0.44558 0.0
H2334 H 0.81152 0.86915 0.38711 0.0
S2335 S 0.82734 0.76062 0.43137 0.0
N2336 N 0.82767 0.7887 0.46009 0.0
N2337 N 0.82267 0.7739 0.39726 0.0
C2338 C 0.82128 0.80263 0.40818 0.0
C2339 C 0.82388 0.8106 0.44242 0.0
C2340 C 0.49961 0.51023 0.88844 0.0
C2341 C 0.51124 0.5347 0.87263 0.0
C2342 C 0.50687 0.51293 0.92223 0.0
C2343 C 0.52665 0.53991 0.94149 0.0
H2344 H 0.48476 0.48872 0.87451 0.0
H2345 H 0.49712 0.49368 0.93328 0.0
S2346 S 0.56325 0.61071 0.91237 0.0
N2347 N 0.54301 0.58712 0.87911 0.0
N2348 N 0.55758 0.59171 0.94248 0.0
C2349 C 0.5383 0.56462 0.92612 0.0
C2350 C 0.53038 0.56214 0.89172 0.0
C2351 C 0.80836 0.20584 0.19886 0.0
C2352 C 0.78636 0.20046 0.17061 0.0
C2353 C 0.81342 0.23225 0.22192 0.0
C2354 C 0.79591 0.25294 0.21738 0.0
H2355 H 0.82199 0.19003 0.20272 0.0
H2356 H 0.83171 0.23708 0.24264 0.0
S2357 S 0.74145 0.25247 0.1436 0.0
N2358 N 0.75169 0.22061 0.13639 0.0
N2359 N 0.75943 0.26886 0.18061 0.0
C2360 C 0.77505 0.2484 0.18842 0.0
C2361 C 0.77058 0.2223 0.16481 0.0
C2362 C 0.1275 0.57858 0.3137 0.0
C2363 C 0.15499 0.57059 0.32013 0.0
C2364 C 0.11386 0.58786 0.33895 0.0
C2365 C 0.12773 0.58961 0.37105 0.0
H2366 H 0.11857 0.58121 0.28949 0.0
H2367 H 0.09461 0.5972 0.33356 0.0
S2368 S 0.19256 0.55877 0.3985 0.0
N2369 N 0.19058 0.55619 0.35903 0.0
N2370 N 0.1648 0.57367 0.40725 0.0
C2371 C 0.15192 0.57621 0.37722 0.0
C2372 C 0.16581 0.56675 0.35134 0.0
C2373 C 0.82167 0.81504 0.64398 0.0
C2374 C 0.81925 0.84395 0.63779 0.0
C2375 C 0.81717 0.80538 0.67348 0.0
C2376 C 0.80981 0.82401 0.69858 0.0
H2377 H 0.82781 0.79977 0.626 0.0
H2378 H 0.82028 0.78324 0.67681 0.0
S2379 S 0.79966 0.9016 0.69485 0.0
N2380 N 0.80843 0.89109 0.65949 0.0
N2381 N 0.79878 0.87254 0.71433 0.0
C2382 C 0.80592 0.8525 0.69225 0.0
C2383 C 0.81095 0.86256 0.66217 0.0
C2384 C 0.74432 0.50754 0.5002 0.0
C2385 C 0.77632 0.51726 0.50978 0.0
C2386 C 0.72548 0.5144 0.52147 0.0
C2387 C 0.7383 0.53042 0.55306 0.0
H2388 H 0.73387 0.49326 0.47685 0.0
H2389 H 0.70082 0.50606 0.51367 0.0
S2390 S 0.82063 0.56074 0.58939 0.0
N2391 N 0.81997 0.54352 0.55252 0.0
N2392 N 0.78444 0.55715 0.59226 0.0
C2393 C 0.77018 0.54111 0.56242 0.0
C2394 C 0.78929 0.53432 0.54078 0.0
C2395 C 0.1944 0.12375 0.53597 0.0
C2396 C 0.1929 0.14649 0.51683 0.0
C2397 C 0.16756 0.10221 0.53974 0.0
C2398 C 0.13835 0.10233 0.52405 0.0
H2399 H 0.21627 0.12354 0.5494 0.0
H2400 H 0.16968 0.08607 0.55584 0.0
S2401 S 0.12283 0.15521 0.46805 0.0
N2402 N 0.16031 0.1665 0.48039 0.0
N2403 N 0.11041 0.12581 0.48594 0.0
C2404 C 0.13701 0.12401 0.50334 0.0
C2405 C 0.16411 0.14609 0.50012 0.0
C2406 C 0.19969 0.97653 0.81344 0.0
C2407 C 0.20433 1.00703 0.80847 0.0
C2408 C 0.21496 0.95744 0.79825 0.0
C2409 C 0.23537 0.9686 0.77807 0.0
H2410 H 0.18267 0.96679 0.82721 0.0
H2411 H 0.20917 0.93342 0.80045 0.0
S2412 S 0.26031 0.04803 0.76286 0.0
N2413 N 0.23404 0.04846 0.7856 0.0
N2414 N 0.26342 0.01268 0.75827 0.0
C2415 C 0.24255 0.9997 0.77573 0.0
C2416 C 0.22675 0.01892 0.79056 0.0
C2417 C 0.43562 0.9874 0.03515 0.0
C2418 C 0.41282 1.00271 0.03722 0.0
C2419 C 0.46435 1.00258 0.03024 0.0
C2420 C 0.47204 0.03399 0.02951 0.0
H2421 H 0.43068 0.96292 0.03494 0.0
H2422 H 0.48024 0.98927 0.02591 0.0
S2423 S 0.42047 0.08438 0.03246 0.0
N2424 N 0.39897 0.05041 0.03588 0.0
N2425 N 0.45479 0.08009 0.03014 0.0
C2426 C 0.4498 0.04988 0.03209 0.0
C2427 C 0.41978 0.03397 0.03536 0.0
C2428 C 0.8156 0.56503 0.79777 0.0
C2429 C 0.83643 0.58006 0.8263 0.0
C2430 C 0.80653 0.5816 0.77483 0.0
C2431 C 0.81789 0.61357 0.77995 0.0
H2432 H 0.80844 0.54021 0.79176 0.0
H2433 H 0.79146 0.56926 0.75242 0.0
S2434 S 0.87107 0.66359 0.85245 0.0
N2435 N 0.86679 0.62833 0.8597 0.0
N2436 N 0.84938 0.66008 0.81678 0.0
C2437 C 0.83721 0.6291 0.80947 0.0
C2438 C 0.84656 0.61211 0.83268 0.0
C2439 C 0.83992 0.61533 0.02007 0.0
C2440 C 0.84456 0.64724 0.02289 0.0
C2441 C 0.86308 0.60337 0.03357 0.0
C2442 C 0.89144 0.62302 0.04985 0.0
H2443 H 0.81769 0.59958 0.00937 0.0
H2444 H 0.85808 0.57889 0.03332 0.0
S2445 S 0.91717 0.70743 0.05908 0.0
N2446 N 0.88125 0.69786 0.03981 0.0
N2447 N 0.92469 0.67491 0.06472 0.0
C2448 C 0.89738 0.65455 0.05033 0.0
C2449 C 0.87388 0.66682 0.03697 0.0
C2450 C 0.21605 0.17023 0.77866 0.0
C2451 C 0.21231 0.16447 0.80978 0.0
C2452 C 0.23849 0.19591 0.77435 0.0
C2453 C 0.257 0.21723 0.80108 0.0
H2454 H 0.20069 0.15546 0.75755 0.0
H2455 H 0.23995 0.2002 0.75005 0.0
S2456 S 0.26004 0.20965 0.8871 0.0
N2457 N 0.23201 0.17959 0.86741 0.0
N2458 N 0.27313 0.22887 0.85935 0.0
C2459 C 0.25476 0.21076 0.83216 0.0
C2460 C 0.23253 0.18414 0.83653 0.0
C2461 C 0.33818 0.94444 0.33328 0.0
C2462 C 0.35038 0.95551 0.30751 0.0
C2463 C 0.32503 0.91331 0.33087 0.0
C2464 C 0.32405 0.89293 0.30282 0.0
H2465 H 0.34217 0.95921 0.35653 0.0
H2466 H 0.31794 0.90517 0.35193 0.0
S2467 S 0.34498 0.91298 0.22612 0.0
N2468 N 0.35523 0.94591 0.25143 0.0
N2469 N 0.32994 0.88654 0.24669 0.0
C2470 C 0.33258 0.90435 0.27564 0.0
C2471 C 0.34569 0.93614 0.278 0.0
C2472 C 0.56056 0.4041 0.5569 0.0
C2473 C 0.58806 0.40206 0.57603 0.0
C2474 C 0.55524 0.43286 0.55018 0.0
C2475 C 0.57671 0.46235 0.5623 0.0
H2476 H 0.54284 0.38306 0.54645 0.0
H2477 H 0.53383 0.43172 0.53496 0.0
S2478 S 0.65145 0.47119 0.61598 0.0
N2479 N 0.63638 0.43367 0.60799 0.0
N2480 N 0.62654 0.48607 0.59649 0.0
C2481 C 0.60389 0.46046 0.58204 0.0
C2482 C 0.60941 0.43124 0.5885 0.0
C2483 C 0.39765 0.77765 0.4119 0.0
C2484 C 0.42802 0.78125 0.40647 0.0
C2485 C 0.37438 0.78302 0.38928 0.0
C2486 C 0.37993 0.79273 0.3598 0.0
H2487 H 0.39168 0.77077 0.43411 0.0
H2488 H 0.35174 0.77967 0.39529 0.0
S2489 S 0.45584 0.80758 0.33413 0.0
N2490 N 0.46215 0.79593 0.369 0.0
N2491 N 0.41938 0.80712 0.32783 0.0
C2492 C 0.41033 0.79689 0.35435 0.0
C2493 C 0.43394 0.79091 0.37714 0.0
C2494 C 0.10179 0.70243 0.05363 0.0
C2495 C 0.08559 0.71799 0.07298 0.0
C2496 C 0.09677 0.66969 0.04873 0.0
C2497 C 0.07529 0.64964 0.06283 0.0
H2498 H 0.11885 0.71572 0.04205 0.0
H2499 H 0.10974 0.66003 0.03313 0.0
S2500 S 0.02641 0.67725 0.11608 0.0
N2501 N 0.04664 0.70916 0.1066 0.0
N2502 N 0.03756 0.64917 0.0975 0.0
C2503 C 0.05888 0.66485 0.08217 0.0
C2504 C 0.06394 0.69818 0.08721 0.0
C2505 C 0.08739 0.29374 0.8672 0.0
C2506 C 0.08794 0.30063 0.90054 0.0
C2507 C 0.1144 0.3013 0.85466 0.0
C2508 C 0.1426 0.31636 0.87507 0.0
H2509 H 0.06578 0.28373 0.85058 0.0
H2510 H 0.11282 0.29788 0.82867 0.0
S2511 S 0.15705 0.33689 0.96419 0.0
N2512 N 0.11965 0.32085 0.95402 0.0
N2513 N 0.17027 0.33553 0.93002 0.0
C2514 C 0.1439 0.32119 0.90855 0.0
C2515 C 0.11651 0.31327 0.92143 0.0
C2516 C 0.57652 0.76541 0.9528 0.0
C2517 C 0.56458 0.76621 0.92063 0.0
C2518 C 0.56737 0.73883 0.96601 0.0
C2519 C 0.54567 0.71265 0.94745 0.0
H2520 H 0.59038 0.78632 0.96871 0.0
H2521 H 0.57441 0.73999 0.99173 0.0
S2522 S 0.51054 0.70206 0.86124 0.0
N2523 N 0.53272 0.73776 0.86973 0.0
N2524 N 0.51544 0.68771 0.8947 0.0
C2525 C 0.53627 0.71214 0.91442 0.0
C2526 C 0.54573 0.73909 0.90092 0.0
C2527 C 0.15687 0.78641 0.73741 0.0
C2528 C 0.13798 0.77424 0.75905 0.0
C2529 C 0.18937 0.79072 0.74295 0.0
C2530 C 0.20529 0.78288 0.77034 0.0
H2531 H 0.1464 0.79238 0.71556 0.0
H2532 H 0.20212 0.8 0.72523 0.0
S2533 S 0.16806 0.75384 0.83673 0.0
N2534 N 0.13911 0.75654 0.81043 0.0
N2535 N 0.19898 0.76487 0.82082 0.0
C2536 C 0.1868 0.77138 0.79245 0.0
C2537 C 0.15378 0.76704 0.78685 0.0
C2538 C 0.09619 0.44991 0.45705 0.0
C2539 C 0.07216 0.43155 0.43223 0.0
C2540 C 0.09284 0.47605 0.47679 0.0
C2541 C 0.06507 0.48443 0.47318 0.0
H2542 H 0.11701 0.44306 0.46252 0.0
H2543 H 0.11167 0.48898 0.496 0.0
S2544 S 0.9946 0.44294 0.41333 0.0
N2545 N 0.01964 0.42393 0.40568 0.0
N2546 N 1.01295 0.47127 0.44345 0.0
C2547 C 0.04109 0.46635 0.44845 0.0
C2548 C 0.04476 0.4405 0.4279 0.0
C2549 C 0.45024 0.2777 0.28713 0.0
C2550 C 0.45533 0.26837 0.25549 0.0
C2551 C 0.42188 0.28341 0.29348 0.0
C2552 C 0.39567 0.27889 0.26891 0.0
H2553 H 0.46866 0.28109 0.30746 0.0
H2554 H 0.42035 0.29091 0.31829 0.0
S2555 S 0.39561 0.25496 0.18156 0.0
N2556 N 0.43057 0.25608 0.19908 0.0
N2557 N 0.37805 0.2647 0.21092 0.0
C2558 C 0.40043 0.26947 0.23723 0.0
C2559 C 0.42966 0.26479 0.23064 0.0
C2560 C 0.60402 0.54498 0.40459 0.0
C2561 C 0.60017 0.57107 0.39173 0.0
C2562 C 0.59445 0.53836 0.43392 0.0
C2563 C 0.58013 0.55721 0.45151 0.0
H2564 H 0.61447 0.52946 0.39191 0.0
H2565 H 0.59799 0.51812 0.44269 0.0
S2566 S 0.56796 0.63012 0.43122 0.0
N2567 N 0.58342 0.61727 0.40146 0.0
N2568 N 0.56477 0.60419 0.45504 0.0
C2569 C 0.57655 0.58342 0.43922 0.0
C2570 C 0.58675 0.59051 0.4099 0.0
C2571 C 0.31869 0.8992 0.09109 0.0
C2572 C 0.32464 0.88533 0.06197 0.0
C2573 C 0.33316 0.8953 0.12093 0.0
C2574 C 0.35399 0.87761 0.12233 0.0
H2575 H 0.30455 0.91489 0.0909 0.0
H2576 H 0.32929 0.9074 0.14295 0.0
S2577 S 0.3736 0.83224 0.05417 0.0
N2578 N 0.34968 0.84956 0.03705 0.0
N2579 N 0.377 0.84296 0.09346 0.0
C2580 C 0.35808 0.86149 0.09387 0.0
C2581 C 0.34318 0.86503 0.06351 0.0
C2582 C 0.97058 0.49981 0.91805 0.0
C2583 C 0.95702 0.52312 0.91115 0.0
C2584 C 0.99395 0.50509 0.94453 0.0
C2585 C 1.00364 0.53345 0.96524 0.0
H2586 H 0.96424 0.47781 0.9021 0.0
H2587 H 1.00453 0.48698 0.94884 0.0
S2588 S 0.97362 0.60086 0.95998 0.0
N2589 N 0.95349 0.57487 0.9285 0.0
N2590 N 0.9974 0.58453 0.97897 0.0
C2591 C 0.98933 0.55644 0.95982 0.0
C2592 C 0.96579 0.55125 0.93261 0.0
C2593 C 0.29786 0.23951 0.64413 0.0
C2594 C 0.29095 0.25939 0.6232 0.0
C2595 C 0.30025 0.24703 0.67798 0.0
C2596 C 0.29606 0.27487 0.69255 0.0
H2597 H 0.30049 0.21749 0.63424 0.0
H2598 H 0.30494 0.2306 0.69276 0.0
S2599 S 0.28239 0.33687 0.64889 0.0
N2600 N 0.28263 0.3092 0.61998 0.0
N2601 N 0.28835 0.32384 0.68298 0.0
C2602 C 0.29068 0.29549 0.6719 0.0
C2603 C 0.28782 0.28765 0.63752 0.0
C2604 C 0.61926 0.56781 0.18746 0.0
C2605 C 0.5963 0.56714 0.20648 0.0
C2606 C 0.61258 0.56541 0.15346 0.0
C2607 C 0.58265 0.56222 0.13702 0.0
H2608 H 0.64282 0.57131 0.19902 0.0
H2609 H 0.63116 0.56686 0.1401 0.0
S2610 S 0.51361 0.55491 0.17497 0.0
N2611 N 0.54203 0.56035 0.20573 0.0
N2612 N 0.52939 0.55549 0.14242 0.0
C2613 C 0.55937 0.56033 0.15569 0.0
C2614 C 0.56619 0.56287 0.19017 0.0
C2615 C 0.30758 0.89803 0.89215 0.0
C2616 C 0.33655 0.90776 0.91242 0.0
C2617 C 0.30035 0.87265 0.8676 0.0
C2618 C 0.3219 0.85638 0.86297 0.0
H2619 H 0.28985 0.90902 0.89639 0.0
H2620 H 0.27748 0.86502 0.85305 0.0
S2621 S 0.40207 0.87474 0.906 0.0
N2622 N 0.38807 0.90114 0.92352 0.0
N2623 N 0.37376 0.85268 0.87765 0.0
C2624 C 0.35135 0.86663 0.88168 0.0
C2625 C 0.35901 0.89285 0.90618 0.0
C2626 C 0.93391 0.52912 0.72648 0.0
C2627 C 0.95577 0.54555 0.75395 0.0
C2628 C 0.94314 0.51572 0.69959 0.0
C2629 C 0.9743 0.51891 0.69949 0.0
H2630 H 0.90961 0.52341 0.72716 0.0
H2631 H 0.92584 0.50078 0.67998 0.0
S2632 S 0.04018 0.5657 0.76192 0.0
N2633 N 1.00965 0.56877 0.77702 0.0
N2634 N 0.02702 0.54383 0.72592 0.0
C2635 C 0.99634 0.53847 0.72482 0.0
C2636 C 0.98699 0.55198 0.75224 0.0
C2637 C 0.29519 0.2826 0.43392 0.0
C2638 C 0.29497 0.25302 0.44009 0.0
C2639 C 0.30121 0.2919 0.40456 0.0
C2640 C 0.30725 0.27213 0.3794 0.0
H2641 H 0.29022 0.2988 0.45191 0.0
H2642 H 0.30032 0.31477 0.40139 0.0
S2643 S 0.30939 0.19194 0.3827 0.0
N2644 N 0.30149 0.2038 0.41811 0.0
N2645 N 0.31317 0.22132 0.36333 0.0
C2646 C 0.30795 0.24266 0.38553 0.0
C2647 C 0.30172 0.23313 0.41559 0.0
C2648 C 0.36488 0.61638 0.55818 0.0
C2649 C 0.34578 0.59598 0.57367 0.0
C2650 C 0.38251 0.60606 0.5379 0.0
C2651 C 0.38268 0.57537 0.53337 0.0
H2652 H 0.36467 0.64013 0.55965 0.0
H2653 H 0.39498 0.62202 0.52464 0.0
S2654 S 0.34081 0.51392 0.57241 0.0
N2655 N 0.33017 0.54445 0.58567 0.0
N2656 N 0.36532 0.52516 0.54851 0.0
C2657 C 0.36591 0.55519 0.55081 0.0
C2658 C 0.34696 0.56553 0.5708 0.0
C2659 C 0.921 0.97759 0.55125 0.0
C2660 C 0.92246 0.95083 0.56375 0.0
C2661 C 0.94779 0.99905 0.54728 0.0
C2662 C 0.97714 0.995 0.55641 0.0
H2663 H 0.89896 0.98124 0.54296 0.0
H2664 H 0.94519 0.01812 0.53571 0.0
S2665 S 0.99331 0.92928 0.59218 0.0
N2666 N 0.9557 0.92205 0.58621 0.0
N2667 N 1.00555 0.96219 0.57999 0.0
C2668 C 0.97873 0.9688 0.57019 0.0
C2669 C 0.9516 0.94688 0.57363 0.0
C2670 C 0.87003 0.08428 0.27835 0.0
C2671 C 0.90163 0.08731 0.28049 0.0
C2672 C 0.85958 0.10917 0.28944 0.0
C2673 C 0.88043 0.13769 0.30295 0.0
H2674 H 0.85332 0.0622 0.26964 0.0
H2675 H 0.83533 0.10553 0.28974 0.0
S2676 S 0.96476 0.15921 0.31096 0.0
N2677 N 0.95339 0.12245 0.29468 0.0
N2678 N 0.93316 0.16901 0.31527 0.0
C2679 C 0.91167 0.14185 0.30296 0.0
C2680 C 0.92246 0.11664 0.29183 0.0
C2681 C 0.68834 0.08807 0.07749 0.0
C2682 C 0.70158 0.0944 0.05054 0.0
C2683 C 0.65668 0.07902 0.07454 0.0
C2684 C 0.6376 0.07599 0.04468 0.0
H2685 H 0.70231 0.0927 0.10142 0.0
H2686 H 0.6472 0.07547 0.09598 0.0
S2687 S 0.66159 0.08301 0.96609 0.0
N2688 N 0.694 0.09267 0.99256 0.0
N2689 N 0.63371 0.07479 0.98694 0.0
C2690 C 0.6505 0.07961 0.01714 0.0
C2691 C 0.68281 0.08887 0.02011 0.0
C2692 C 0.24699 0.4861 0.26743 0.0
C2693 C 0.26878 0.51209 0.26217 0.0
C2694 C 0.25577 0.46635 0.28647 0.0
C2695 C 0.28658 0.47147 0.2998 0.0
H2696 H 0.22263 0.48212 0.25896 0.0
H2697 H 0.23832 0.44776 0.29189 0.0
S2698 S 0.35318 0.53034 0.28598 0.0
N2699 N 0.32293 0.53842 0.26698 0.0
N2700 N 0.33959 0.4996 0.30164 0.0
C2701 C 0.30901 0.49462 0.29133 0.0
C2702 C 0.30004 0.5154 0.2726 0.0
C2703 C 0.24823 0.44905 0.05385 0.0
C2704 C 0.27188 0.45589 0.03588 0.0
C2705 C 0.22105 0.45721 0.04585 0.0
C2706 C 0.21669 0.47205 0.01947 0.0
H2707 H 0.25033 0.4365 0.0736 0.0
H2708 H 0.20279 0.45061 0.05933 0.0
S2709 S 0.27169 0.49702 0.96611 0.0
N2710 N 0.28948 0.48006 0.99161 0.0
N2711 N 0.23817 0.49527 0.9768 0.0
C2712 C 0.24049 0.48042 0.00236 0.0
C2713 C 0.26821 0.47234 0.01052 0.0
C2714 C 0.88092 0.93598 0.28408 0.0
C2715 C 0.90242 0.93415 0.2638 0.0
C2716 C 0.85944 0.90937 0.28852 0.0
C2717 C 0.85829 0.88004 0.27236 0.0
H2718 H 0.88181 0.95788 0.29799 0.0
H2719 H 0.84454 0.91175 0.30571 0.0
S2720 S 0.90785 0.86363 0.21402 0.0
N2721 N 0.92004 0.90111 0.22609 0.0
N2722 N 0.87943 0.85157 0.23312 0.0
C2723 C 0.87873 0.87836 0.25069 0.0
C2724 C 0.90078 0.90525 0.24673 0.0
C2725 C 0.7347 0.17511 0.77941 0.0
C2726 C 0.74828 0.15341 0.76598 0.0
C2727 C 0.75081 0.20577 0.78754 0.0
C2728 C 0.78122 0.21548 0.78332 0.0
H2729 H 0.71079 0.16859 0.78183 0.0
H2730 H 0.73859 0.222 0.795 0.0
S2731 S 0.82804 0.16654 0.75286 0.0
N2732 N 0.79393 0.14253 0.75098 0.0
N2733 N 0.82556 0.20062 0.7683 0.0
C2734 C 0.79597 0.19351 0.77266 0.0
C2735 C 0.77912 0.16218 0.76355 0.0
loop_
_geom_bond_atom_site_label_1
_geom_bond_atom_site_label_2
_geom_bond_distance
_geom_bond_site_symmetry_2
_ccdc_geom_bond_type
Zn0 O3 2.031 . S
Zn0 O5 2.049 . S
Zn0 O10 2.067 1_455 S
Zn1 O2 1.962 . S
Zn1 O4 1.986 . S
Zn1 O6 1.996 . S
Zn1 O9 1.943 . S
O2 Zn1 1.962 . S
O2 C7 1.254 . S
O3 Zn0 2.031 . S
O3 C7 1.269 . S
O4 Zn1 1.986 . S
O4 C11 1.262 . S
O5 Zn0 2.049 . S
O5 C13 1.260 . S
O6 Zn1 1.996 . S
O6 C13 1.257 . S
C7 O2 1.254 . S
C7 O3 1.269 . S
C8 O9 1.249 . S
C8 O10 1.270 1_455 S
O9 Zn1 1.943 . S
O9 C8 1.249 . S
O10 Zn0 2.067 1_655 S
O10 C8 1.270 1_655 S
C11 O4 1.262 . S
C11 O12 1.232 . S
O12 C11 1.232 . S
C13 O5 1.260 . S
C13 O6 1.257 . S
Zn14 O17 2.031 1_455 S
Zn14 O19 2.049 . S
Zn14 O24 2.067 . S
Zn15 O16 1.962 1_455 S
Zn15 O18 1.986 . S
Zn15 O20 1.996 . S
Zn15 O23 1.943 . S
O16 Zn15 1.962 1_655 S
O16 C21 1.254 . S
O17 Zn14 2.031 1_655 S
O17 C21 1.269 . S
O18 Zn15 1.986 . S
O18 C25 1.262 . S
O19 Zn14 2.049 . S
O19 C27 1.260 . S
O20 Zn15 1.996 . S
O20 C27 1.257 . S
C21 O16 1.254 . S
C21 O17 1.269 . S
C22 O23 1.249 . S
C22 O24 1.270 . S
O23 Zn15 1.943 . S
O23 C22 1.249 . S
O24 Zn14 2.067 . S
O24 C22 1.270 . S
C25 O18 1.262 . S
C25 O26 1.232 . S
O26 C25 1.232 . S
C27 O19 1.260 . S
C27 O20 1.257 . S
Zn28 O31 2.031 . S
Zn28 O33 2.049 . S
Zn28 O38 2.067 . S
Zn29 O30 1.962 . S
Zn29 O32 1.986 . S
Zn29 O34 1.996 . S
Zn29 O37 1.943 . S
O30 Zn29 1.962 . S
O30 C35 1.254 . S
O31 Zn28 2.031 . S
O31 C35 1.269 . S
O32 Zn29 1.986 . S
O32 C39 1.262 . S
O33 Zn28 2.049 . S
O33 C41 1.260 . S
O34 Zn29 1.996 . S
O34 C41 1.257 . S
C35 O30 1.254 . S
C35 O31 1.269 . S
C36 O37 1.249 . S
C36 O38 1.270 . S
O37 Zn29 1.943 . S
O37 C36 1.249 . S
O38 Zn28 2.067 . S
O38 C36 1.270 . S
C39 O32 1.262 . S
C39 O40 1.232 . S
O40 C39 1.232 . S
C41 O33 1.260 . S
C41 O34 1.257 . S
Zn42 O45 2.031 . S
Zn42 O47 2.049 . S
Zn42 O52 2.067 . S
Zn43 O44 1.962 . S
Zn43 O46 1.986 . S
Zn43 O48 1.996 . S
Zn43 O51 1.943 . S
O44 Zn43 1.962 . S
O44 C49 1.254 . S
O45 Zn42 2.031 . S
O45 C49 1.269 . S
O46 Zn43 1.986 . S
O46 C53 1.262 . S
O47 Zn42 2.049 . S
O47 C55 1.260 . S
O48 Zn43 1.996 . S
O48 C55 1.257 . S
C49 O44 1.254 . S
C49 O45 1.269 . S
C50 O51 1.249 . S
C50 O52 1.270 . S
O51 Zn43 1.943 . S
O51 C50 1.249 . S
O52 Zn42 2.067 . S
O52 C50 1.270 . S
C53 O46 1.262 . S
C53 O54 1.232 . S
O54 C53 1.232 . S
C55 O47 1.260 . S
C55 O48 1.257 . S
Zn56 O59 2.031 . S
Zn56 O61 2.049 . S
Zn56 O66 2.067 . S
Zn57 O58 1.962 . S
Zn57 O60 1.986 . S
Zn57 O62 1.996 . S
Zn57 O65 1.943 . S
O58 Zn57 1.962 . S
O58 C63 1.254 . S
O59 Zn56 2.031 . S
O59 C63 1.269 . S
O60 Zn57 1.986 . S
O60 C67 1.262 . S
O61 Zn56 2.049 . S
O61 C69 1.260 . S
O62 Zn57 1.996 . S
O62 C69 1.257 . S
C63 O58 1.254 . S
C63 O59 1.269 . S
C64 O65 1.249 . S
C64 O66 1.270 . S
O65 Zn57 1.943 . S
O65 C64 1.249 . S
O66 Zn56 2.067 . S
O66 C64 1.270 . S
C67 O60 1.262 . S
C67 O68 1.232 . S
O68 C67 1.232 . S
C69 O61 1.260 . S
C69 O62 1.257 . S
Zn70 O73 2.031 . S
Zn70 O75 2.049 . S
Zn70 O80 2.067 . S
Zn71 O72 1.962 . S
Zn71 O74 1.986 . S
Zn71 O76 1.996 . S
Zn71 O79 1.943 . S
O72 Zn71 1.962 . S
O72 C77 1.254 . S
O73 Zn70 2.031 . S
O73 C77 1.269 . S
O74 Zn71 1.986 . S
O74 C81 1.262 . S
O75 Zn70 2.049 . S
O75 C83 1.260 . S
O76 Zn71 1.996 . S
O76 C83 1.257 . S
C77 O72 1.254 . S
C77 O73 1.269 . S
C78 O79 1.249 . S
C78 O80 1.270 . S
O79 Zn71 1.943 . S
O79 C78 1.249 . S
O80 Zn70 2.067 . S
O80 C78 1.270 . S
C81 O74 1.262 . S
C81 O82 1.232 . S
O82 C81 1.232 . S
C83 O75 1.260 . S
C83 O76 1.257 . S
Zn84 O87 2.031 . S
Zn84 O89 2.049 . S
Zn84 O94 2.067 . S
Zn85 O86 1.962 . S
Zn85 O88 1.986 . S
Zn85 O90 1.996 . S
Zn85 O93 1.943 . S
O86 Zn85 1.962 . S
O86 C91 1.254 . S
O87 Zn84 2.031 . S
O87 C91 1.269 . S
O88 Zn85 1.986 . S
O88 C95 1.262 . S
O89 Zn84 2.049 . S
O89 C97 1.260 . S
O90 Zn85 1.996 . S
O90 C97 1.257 . S
C91 O86 1.254 . S
C91 O87 1.269 . S
C92 O93 1.249 . S
C92 O94 1.270 . S
O93 Zn85 1.943 . S
O93 C92 1.249 . S
O94 Zn84 2.067 . S
O94 C92 1.270 . S
C95 O88 1.262 . S
C95 O96 1.232 . S
O96 C95 1.232 . S
C97 O89 1.260 . S
C97 O90 1.257 . S
Zn98 O101 2.031 1_554 S
Zn98 O103 2.049 . S
Zn98 O108 2.067 1_554 S
Zn99 O100 1.962 . S
Zn99 O102 1.986 . S
Zn99 O104 1.996 . S
Zn99 O107 1.943 1_455 S
O100 Zn99 1.962 . S
O100 C105 1.256 . S
O101 Zn98 2.031 1_556 S
O101 C105 1.269 1_655 S
O102 Zn99 1.986 . S
O102 C109 1.262 . S
O103 Zn98 2.049 . S
O103 C111 1.260 . S
O104 Zn99 1.996 . S
O104 C111 1.257 1_456 S
C105 O100 1.256 . S
C105 O101 1.269 1_455 S
C106 O107 1.249 . S
C106 O108 1.270 . S
O107 Zn99 1.943 1_655 S
O107 C106 1.249 . S
O108 Zn98 2.067 1_556 S
O108 C106 1.270 . S
C109 O102 1.262 . S
C109 O110 1.232 . S
O110 C109 1.232 . S
C111 O103 1.260 . S
C111 O104 1.257 1_654 S
Zn112 O115 2.031 . S
Zn112 O117 2.049 . S
Zn112 O122 2.067 . S
Zn113 O114 1.962 . S
Zn113 O116 1.986 . S
Zn113 O118 1.996 . S
Zn113 O121 1.943 1_545 S
O114 Zn113 1.962 . S
O114 C119 1.254 . S
O115 Zn112 2.031 . S
O115 C119 1.269 1_565 S
O116 Zn113 1.986 . S
O116 C123 1.262 . S
O117 Zn112 2.049 . S
O117 C125 1.260 . S
O118 Zn113 1.996 . S
O118 C125 1.257 1_545 S
C119 O114 1.254 . S
C119 O115 1.269 1_545 S
C120 O121 1.249 . S
C120 O122 1.270 . S
O121 Zn113 1.943 1_565 S
O121 C120 1.249 . S
O122 Zn112 2.067 . S
O122 C120 1.270 . S
C123 O116 1.262 . S
C123 O124 1.232 . S
O124 C123 1.232 . S
C125 O117 1.260 . S
C125 O118 1.257 1_565 S
Zn126 O129 2.031 . S
Zn126 O131 2.049 . S
Zn126 O136 2.067 . S
Zn127 O128 1.962 . S
Zn127 O130 1.986 . S
Zn127 O132 1.996 . S
Zn127 O135 1.943 . S
O128 Zn127 1.962 . S
O128 C133 1.254 . S
O129 Zn126 2.031 . S
O129 C133 1.269 . S
O130 Zn127 1.986 . S
O130 C137 1.262 . S
O131 Zn126 2.049 . S
O131 C139 1.260 . S
O132 Zn127 1.996 . S
O132 C139 1.257 . S
C133 O128 1.254 . S
C133 O129 1.269 . S
C134 O135 1.249 . S
C134 O136 1.270 . S
O135 Zn127 1.943 . S
O135 C134 1.249 . S
O136 Zn126 2.067 . S
O136 C134 1.270 . S
C137 O130 1.262 . S
C137 O138 1.232 . S
O138 C137 1.232 . S
C139 O131 1.260 . S
C139 O132 1.257 . S
Zn140 O143 2.031 . S
Zn140 O145 2.049 . S
Zn140 O150 2.067 . S
Zn141 O142 1.962 . S
Zn141 O144 1.986 . S
Zn141 O146 1.996 . S
Zn141 O149 1.943 . S
O142 Zn141 1.962 . S
O142 C147 1.254 . S
O143 Zn140 2.031 . S
O143 C147 1.269 . S
O144 Zn141 1.986 . S
O144 C151 1.262 . S
O145 Zn140 2.049 . S
O145 C153 1.260 . S
O146 Zn141 1.996 . S
O146 C153 1.257 . S
C147 O142 1.254 . S
C147 O143 1.269 . S
C148 O149 1.249 . S
C148 O150 1.270 . S
O149 Zn141 1.943 . S
O149 C148 1.249 . S
O150 Zn140 2.067 . S
O150 C148 1.270 . S
C151 O144 1.262 . S
C151 O152 1.232 . S
O152 C151 1.232 . S
C153 O145 1.260 . S
C153 O146 1.257 . S
Zn154 O157 2.031 1_554 S
Zn154 O159 2.049 . S
Zn154 O164 2.067 . S
Zn155 O156 1.962 . S
Zn155 O158 1.986 1_556 S
Zn155 O160 1.996 1_556 S
Zn155 O163 1.943 1_556 S
O156 Zn155 1.962 . S
O156 C161 1.254 . S
O157 Zn154 2.031 1_556 S
O157 C161 1.269 . S
O158 Zn155 1.986 1_554 S
O158 C165 1.262 1_554 S
O159 Zn154 2.049 . S
O159 C167 1.260 . S
O160 Zn155 1.996 1_554 S
O160 C167 1.257 . S
C161 O156 1.254 . S
C161 O157 1.269 . S
C162 O163 1.249 . S
C162 O164 1.270 . S
O163 Zn155 1.943 1_554 S
O163 C162 1.249 . S
O164 Zn154 2.067 . S
O164 C162 1.270 . S
C165 O158 1.262 1_556 S
C165 O166 1.232 . S
O166 C165 1.232 . S
C167 O159 1.260 . S
C167 O160 1.257 . S
Zn168 O171 2.031 . S
Zn168 O173 2.049 . S
Zn168 O178 2.067 . S
Zn169 O170 1.962 . S
Zn169 O172 1.986 . S
Zn169 O174 1.996 . S
Zn169 O177 1.943 . S
O170 Zn169 1.962 . S
O170 C175 1.254 1_554 S
O171 Zn168 2.031 . S
O171 C175 1.269 1_554 S
O172 Zn169 1.986 . S
O172 C179 1.262 . S
O173 Zn168 2.049 . S
O173 C181 1.260 . S
O174 Zn169 1.996 . S
O174 C181 1.257 . S
C175 O170 1.254 1_556 S
C175 O171 1.269 1_556 S
C176 O177 1.249 . S
C176 O178 1.270 . S
O177 Zn169 1.943 . S
O177 C176 1.249 . S
O178 Zn168 2.067 . S
O178 C176 1.270 . S
C179 O172 1.262 . S
C179 O180 1.232 . S
O180 C179 1.232 . S
C181 O173 1.260 . S
C181 O174 1.257 . S
Zn182 O185 2.031 . S
Zn182 O187 2.049 . S
Zn182 O192 2.067 . S
Zn183 O184 1.962 . S
Zn183 O186 1.986 . S
Zn183 O188 1.996 . S
Zn183 O191 1.943 . S
O184 Zn183 1.962 . S
O184 C189 1.254 . S
O185 Zn182 2.031 . S
O185 C189 1.269 . S
O186 Zn183 1.986 . S
O186 C193 1.262 . S
O187 Zn182 2.049 . S
O187 C195 1.260 . S
O188 Zn183 1.996 . S
O188 C195 1.257 . S
C189 O184 1.254 . S
C189 O185 1.269 . S
C190 O191 1.249 . S
C190 O192 1.270 . S
O191 Zn183 1.943 . S
O191 C190 1.249 . S
O192 Zn182 2.067 . S
O192 C190 1.270 . S
C193 O186 1.262 . S
C193 O194 1.232 . S
O194 C193 1.232 . S
C195 O187 1.260 . S
C195 O188 1.257 . S
Zn196 O199 2.031 . S
Zn196 O201 2.049 . S
Zn196 O206 2.067 . S
Zn197 O198 1.962 . S
Zn197 O200 1.986 . S
Zn197 O202 1.996 . S
Zn197 O205 1.943 . S
O198 Zn197 1.962 . S
O198 C203 1.254 . S
O199 Zn196 2.031 . S
O199 C203 1.269 . S
O200 Zn197 1.986 . S
O200 C207 1.262 . S
O201 Zn196 2.049 . S
O201 C209 1.260 . S
O202 Zn197 1.996 . S
O202 C209 1.257 . S
C203 O198 1.254 . S
C203 O199 1.269 . S
C204 O205 1.249 . S
C204 O206 1.270 . S
O205 Zn197 1.943 . S
O205 C204 1.249 . S
O206 Zn196 2.067 . S
O206 C204 1.270 . S
C207 O200 1.262 . S
C207 O208 1.232 . S
O208 C207 1.232 . S
C209 O201 1.260 . S
C209 O202 1.257 . S
Zn210 O213 2.031 . S
Zn210 O215 2.049 . S
Zn210 O220 2.067 . S
Zn211 O212 1.962 . S
Zn211 O214 1.986 . S
Zn211 O216 1.996 . S
Zn211 O219 1.943 . S
O212 Zn211 1.962 . S
O212 C217 1.254 . S
O213 Zn210 2.031 . S
O213 C217 1.269 . S
O214 Zn211 1.986 . S
O214 C221 1.262 . S
O215 Zn210 2.049 . S
O215 C223 1.260 . S
O216 Zn211 1.996 . S
O216 C223 1.257 . S
C217 O212 1.254 . S
C217 O213 1.269 . S
C218 O219 1.249 . S
C218 O220 1.270 . S
O219 Zn211 1.943 . S
O219 C218 1.249 . S
O220 Zn210 2.067 . S
O220 C218 1.270 . S
C221 O214 1.262 . S
C221 O222 1.232 . S
O222 C221 1.232 . S
C223 O215 1.260 . S
C223 O216 1.257 . S
Zn224 O227 2.031 . S
Zn224 O229 2.049 . S
Zn224 O234 2.067 . S
Zn225 O226 1.962 . S
Zn225 O228 1.986 . S
Zn225 O230 1.996 . S
Zn225 O233 1.943 1_545 S
O226 Zn225 1.962 . S
O226 C231 1.254 . S
O227 Zn224 2.031 . S
O227 C231 1.269 1_565 S
O228 Zn225 1.986 . S
O228 C235 1.262 . S
O229 Zn224 2.049 . S
O229 C237 1.260 1_565 S
O230 Zn225 1.996 . S
O230 C237 1.257 . S
C231 O226 1.254 . S
C231 O227 1.269 1_545 S
C232 O233 1.249 . S
C232 O234 1.270 . S
O233 Zn225 1.943 1_565 S
O233 C232 1.249 . S
O234 Zn224 2.067 . S
O234 C232 1.270 . S
C235 O228 1.262 . S
C235 O236 1.232 . S
O236 C235 1.232 . S
C237 O229 1.260 1_545 S
C237 O230 1.257 . S
Zn238 O241 2.031 . S
Zn238 O243 2.049 . S
Zn238 O248 2.067 . S
Zn239 O240 1.962 . S
Zn239 O242 1.986 . S
Zn239 O244 1.996 . S
Zn239 O247 1.943 . S
O240 Zn239 1.962 . S
O240 C245 1.254 . S
O241 Zn238 2.031 . S
O241 C245 1.269 . S
O242 Zn239 1.986 . S
O242 C249 1.262 . S
O243 Zn238 2.049 . S
O243 C251 1.260 . S
O244 Zn239 1.996 . S
O244 C251 1.257 . S
C245 O240 1.254 . S
C245 O241 1.269 . S
C246 O247 1.249 . S
C246 O248 1.270 . S
O247 Zn239 1.943 . S
O247 C246 1.249 . S
O248 Zn238 2.067 . S
O248 C246 1.270 . S
C249 O242 1.262 . S
C249 O250 1.232 . S
O250 C249 1.232 . S
C251 O243 1.260 . S
C251 O244 1.257 . S
Zn252 O255 2.031 . S
Zn252 O257 2.049 . S
Zn252 O262 2.067 . S
Zn253 O254 1.962 . S
Zn253 O256 1.986 . S
Zn253 O258 1.996 . S
Zn253 O261 1.943 . S
O254 Zn253 1.962 . S
O254 C259 1.254 . S
O255 Zn252 2.031 . S
O255 C259 1.269 . S
O256 Zn253 1.986 . S
O256 C263 1.262 . S
O257 Zn252 2.049 . S
O257 C265 1.260 . S
O258 Zn253 1.996 . S
O258 C265 1.257 . S
C259 O254 1.254 . S
C259 O255 1.269 . S
C260 O261 1.249 . S
C260 O262 1.270 . S
O261 Zn253 1.943 . S
O261 C260 1.249 . S
O262 Zn252 2.067 . S
O262 C260 1.270 . S
C263 O256 1.262 . S
C263 O264 1.232 . S
O264 C263 1.232 . S
C265 O257 1.260 . S
C265 O258 1.257 . S
Zn266 O269 2.031 . S
Zn266 O271 2.049 . S
Zn266 O276 2.067 . S
Zn267 O268 1.962 . S
Zn267 O270 1.986 . S
Zn267 O272 1.996 . S
Zn267 O275 1.943 . S
O268 Zn267 1.962 . S
O268 C273 1.254 . S
O269 Zn266 2.031 . S
O269 C273 1.269 . S
O270 Zn267 1.986 . S
O270 C277 1.262 . S
O271 Zn266 2.049 . S
O271 C279 1.260 . S
O272 Zn267 1.996 . S
O272 C279 1.257 . S
C273 O268 1.254 . S
C273 O269 1.269 . S
C274 O275 1.249 . S
C274 O276 1.270 . S
O275 Zn267 1.943 . S
O275 C274 1.249 . S
O276 Zn266 2.067 . S
O276 C274 1.270 . S
C277 O270 1.262 . S
C277 O278 1.232 . S
O278 C277 1.232 . S
C279 O271 1.260 . S
C279 O272 1.257 . S
Zn280 O283 2.031 1_554 S
Zn280 O285 2.049 . S
Zn280 O290 2.067 . S
Zn281 O282 1.962 1_554 S
Zn281 O284 1.986 . S
Zn281 O286 1.996 . S
Zn281 O289 1.943 . S
O282 Zn281 1.962 1_556 S
O282 C287 1.254 . S
O283 Zn280 2.031 1_556 S
O283 C287 1.269 . S
O284 Zn281 1.986 . S
O284 C291 1.262 . S
O285 Zn280 2.049 . S
O285 C293 1.260 . S
O286 Zn281 1.996 . S
O286 C293 1.257 . S
C287 O282 1.254 . S
C287 O283 1.269 . S
C288 O289 1.249 . S
C288 O290 1.270 . S
O289 Zn281 1.943 . S
O289 C288 1.249 . S
O290 Zn280 2.067 . S
O290 C288 1.270 . S
C291 O284 1.262 . S
C291 O292 1.232 1_554 S
O292 C291 1.232 1_556 S
C293 O285 1.260 . S
C293 O286 1.257 . S
Zn294 O297 2.031 . S
Zn294 O299 2.049 . S
Zn294 O304 2.067 . S
Zn295 O296 1.962 . S
Zn295 O298 1.986 . S
Zn295 O300 1.996 . S
Zn295 O303 1.943 . S
O296 Zn295 1.962 . S
O296 C301 1.254 . S
O297 Zn294 2.031 . S
O297 C301 1.269 . S
O298 Zn295 1.986 . S
O298 C305 1.262 . S
O299 Zn294 2.049 . S
O299 C307 1.260 . S
O300 Zn295 1.996 . S
O300 C307 1.257 . S
C301 O296 1.254 . S
C301 O297 1.269 . S
C302 O303 1.249 . S
C302 O304 1.270 . S
O303 Zn295 1.943 . S
O303 C302 1.249 . S
O304 Zn294 2.067 . S
O304 C302 1.270 . S
C305 O298 1.262 . S
C305 O306 1.232 . S
O306 C305 1.232 . S
C307 O299 1.260 . S
C307 O300 1.257 . S
Zn308 O311 2.031 . S
Zn308 O313 2.049 . S
Zn308 O318 2.067 . S
Zn309 O310 1.962 . S
Zn309 O312 1.986 . S
Zn309 O314 1.996 . S
Zn309 O317 1.943 . S
O310 Zn309 1.962 . S
O310 C315 1.254 . S
O311 Zn308 2.031 . S
O311 C315 1.269 . S
O312 Zn309 1.986 . S
O312 C319 1.262 . S
O313 Zn308 2.049 . S
O313 C321 1.260 . S
O314 Zn309 1.996 . S
O314 C321 1.257 . S
C315 O310 1.254 . S
C315 O311 1.269 . S
C316 O317 1.249 . S
C316 O318 1.270 . S
O317 Zn309 1.943 . S
O317 C316 1.249 . S
O318 Zn308 2.067 . S
O318 C316 1.270 . S
C319 O312 1.262 . S
C319 O320 1.232 . S
O320 C319 1.232 . S
C321 O313 1.260 . S
C321 O314 1.257 . S
Zn322 O325 2.031 . S
Zn322 O327 2.049 . S
Zn322 O332 2.067 . S
Zn323 O324 1.962 . S
Zn323 O326 1.986 . S
Zn323 O328 1.996 . S
Zn323 O331 1.943 . S
O324 Zn323 1.962 . S
O324 C329 1.254 . S
O325 Zn322 2.031 . S
O325 C329 1.269 . S
O326 Zn323 1.986 . S
O326 C333 1.262 . S
O327 Zn322 2.049 . S
O327 C335 1.260 . S
O328 Zn323 1.996 . S
O328 C335 1.257 . S
C329 O324 1.254 . S
C329 O325 1.269 . S
C330 O331 1.249 . S
C330 O332 1.270 . S
O331 Zn323 1.943 . S
O331 C330 1.249 . S
O332 Zn322 2.067 . S
O332 C330 1.270 . S
C333 O326 1.262 . S
C333 O334 1.232 . S
O334 C333 1.232 . S
C335 O327 1.260 . S
C335 O328 1.257 . S
C336 C338 1.422 1_556 S
C336 C340 1.415 . S
C336 N342 1.369 . S
C337 C338 1.421 . S
C337 C339 1.417 1_554 S
C337 C349 1.422 . S
C338 C336 1.422 1_554 S
C338 C337 1.421 . S
C338 N348 1.359 . S
C339 C337 1.417 1_556 S
C339 C341 1.329 . S
C339 H358 0.930 . S
C340 C336 1.415 . S
C340 C341 1.437 . S
C340 C344 1.413 . S
C341 C339 1.329 . S
C341 C340 1.437 . S
C341 H363 0.929 . S
N342 C336 1.369 . S
N342 C343 1.338 . S
N342 Gd347 2.622 1_566 S
C343 N342 1.338 . S
C343 C345 1.378 . S
C343 H355 0.929 . S
C344 C340 1.413 . S
C344 C345 1.348 . S
C344 H360 0.931 . S
C345 C343 1.378 . S
C345 C344 1.348 . S
C345 H361 0.930 . S
Gd346 N366 2.622 . S
Gd346 N373 2.570 . S
Gd346 O380 2.353 . S
Gd346 O381 2.468 . S
Gd346 O382 2.427 . S
Gd346 O384 2.388 . S
Gd346 O385 2.386 . S
Gd346 O389 2.307 . S
Gd346 C399 2.805 . S
Gd347 N342 2.622 1_544 S
Gd347 N348 2.570 1_545 S
Gd347 O379 2.386 1_645 S
Gd347 O383 2.307 1_655 S
Gd347 O386 2.353 1_655 S
Gd347 O387 2.468 . S
Gd347 O388 2.427 1_554 S
Gd347 O390 2.388 1_654 S
Gd347 C411 2.805 . S
N348 C338 1.359 . S
N348 Gd347 2.570 1_565 S
N348 C350 1.343 . S
C349 C337 1.422 . S
C349 C351 1.321 . S
C349 H357 0.931 . S
C350 N348 1.343 . S
C350 C351 1.390 . S
C350 H352 0.931 . S
C351 C349 1.321 . S
C351 C350 1.390 . S
C351 H353 0.930 . S
H352 C350 0.931 . S
H353 C351 0.930 . S
H354 C377 0.931 . S
H355 C343 0.929 . S
H356 C378 0.930 1_556 S
H357 C349 0.931 . S
H358 C339 0.930 . S
H359 C368 0.929 . S
H360 C344 0.931 . S
H361 C345 0.930 . S
H362 C400 0.930 . S
H363 C341 0.929 . S
H364 C369 0.931 . S
H365 C370 0.930 . S
N366 Gd346 2.622 . S
N366 C367 1.369 . S
N366 C368 1.338 . S
C367 N366 1.369 . S
C367 C371 1.415 . S
C367 C374 1.422 . S
C368 H359 0.929 . S
C368 N366 1.338 . S
C368 C370 1.378 . S
C369 H364 0.931 . S
C369 C370 1.348 . S
C369 C371 1.413 . S
C370 H365 0.930 . S
C370 C368 1.378 . S
C370 C369 1.348 . S
C371 C367 1.415 . S
C371 C369 1.413 . S
C371 C401 1.437 . S
H372 C401 0.929 . S
N373 Gd346 2.570 . S
N373 C374 1.359 . S
N373 C377 1.343 . S
C374 C367 1.422 . S
C374 N373 1.359 . S
C374 C376 1.421 . S
C375 C376 1.422 . S
C375 C378 1.321 . S
C375 H402 0.931 . S
C376 C374 1.421 . S
C376 C375 1.422 . S
C376 C400 1.417 . S
C377 H354 0.931 . S
C377 N373 1.343 . S
C377 C378 1.390 . S
C378 H356 0.930 1_554 S
C378 C375 1.321 . S
C378 C377 1.390 . S
O379 Gd347 2.386 1_465 S
O379 C391 1.265 . S
O380 Gd346 2.353 . S
O380 C391 1.242 1_545 S
O381 Gd346 2.468 . S
O381 C399 1.263 . S
O382 Gd346 2.427 . S
O382 C399 1.252 . S
O383 Gd347 2.307 1_455 S
O383 C392 1.261 . S
O384 Gd346 2.388 . S
O384 C392 1.252 . S
O385 Gd346 2.386 . S
O385 C403 1.265 . S
O386 Gd347 2.353 1_455 S
O386 C403 1.242 . S
O387 Gd347 2.468 . S
O387 C411 1.263 . S
O388 Gd347 2.427 1_556 S
O388 C411 1.252 1_556 S
O389 Gd346 2.307 . S
O389 C404 1.261 1_554 S
O390 Gd347 2.388 1_456 S
O390 C404 1.252 . S
C391 O379 1.265 . S
C391 O380 1.242 1_565 S
C392 O383 1.261 . S
C392 O384 1.252 . S
C393 C396 1.394 . S
C393 C398 1.370 . S
C393 C399 1.500 . S
C394 C397 1.383 . S
C394 C398 1.395 . S
C395 C396 1.396 . S
C395 C397 1.365 . S
C395 H412 0.929 . S
C396 C393 1.394 . S
C396 C395 1.396 . S
C396 H413 0.930 . S
C397 C394 1.383 . S
C397 C395 1.365 . S
C397 H414 0.931 . S
C398 C393 1.370 . S
C398 C394 1.395 . S
C398 H415 0.930 . S
C399 Gd346 2.805 . S
C399 O381 1.263 . S
C399 O382 1.252 . S
C399 C393 1.500 . S
C400 H362 0.930 . S
C400 C376 1.417 . S
C400 C401 1.329 . S
C401 C371 1.437 . S
C401 H372 0.929 . S
C401 C400 1.329 . S
H402 C375 0.931 . S
C403 O385 1.265 . S
C403 O386 1.242 . S
C404 O389 1.261 1_556 S
C404 O390 1.252 . S
C405 C408 1.394 1_554 S
C405 C410 1.370 . S
C405 C411 1.500 . S
C406 C409 1.383 1_554 S
C406 C410 1.395 . S
C407 C408 1.396 . S
C407 C409 1.365 . S
C407 H416 0.929 . S
C408 C405 1.394 1_556 S
C408 C407 1.396 . S
C408 H417 0.930 . S
C409 C406 1.383 1_556 S
C409 C407 1.365 . S
C409 H418 0.931 . S
C410 C405 1.370 . S
C410 C406 1.395 . S
C410 H419 0.930 . S
C411 Gd347 2.805 . S
C411 O387 1.263 . S
C411 O388 1.252 1_554 S
C411 C405 1.500 . S
H412 C395 0.929 . S
H413 C396 0.930 . S
H414 C397 0.931 . S
H415 C398 0.930 . S
H416 C407 0.929 . S
H417 C408 0.930 . S
H418 C409 0.931 . S
H419 C410 0.930 . S
C420 C422 1.422 . S
C420 C424 1.415 . S
C420 N426 1.369 . S
C421 C422 1.421 . S
C421 C423 1.417 . S
C421 C433 1.422 . S
C422 C420 1.422 . S
C422 C421 1.421 . S
C422 N432 1.359 . S
C423 C421 1.417 . S
C423 C425 1.329 . S
C423 H442 0.930 . S
C424 C420 1.415 . S
C424 C425 1.437 . S
C424 C428 1.413 . S
C425 C423 1.329 . S
C425 C424 1.437 . S
C425 H447 0.929 . S
N426 C420 1.369 . S
N426 C427 1.338 . S
N426 Gd431 2.622 . S
C427 N426 1.338 . S
C427 C429 1.378 . S
C427 H439 0.929 . S
C428 C424 1.413 . S
C428 C429 1.348 . S
C428 H444 0.931 . S
C429 C427 1.378 . S
C429 C428 1.348 . S
C429 H445 0.930 . S
Gd430 N450 2.622 . S
Gd430 N457 2.570 . S
Gd430 O464 2.353 . S
Gd430 O465 2.468 . S
Gd430 O466 2.427 . S
Gd430 O468 2.388 . S
Gd430 O469 2.386 . S
Gd430 O473 2.307 . S
Gd430 C483 2.805 . S
Gd431 N426 2.622 . S
Gd431 N432 2.570 . S
Gd431 O463 2.386 . S
Gd431 O467 2.307 . S
Gd431 O470 2.353 . S
Gd431 O471 2.468 . S
Gd431 O472 2.427 . S
Gd431 O474 2.388 . S
Gd431 C495 2.805 . S
N432 C422 1.359 . S
N432 Gd431 2.570 . S
N432 C434 1.343 . S
C433 C421 1.422 . S
C433 C435 1.321 . S
C433 H441 0.931 . S
C434 N432 1.343 . S
C434 C435 1.390 . S
C434 H436 0.931 . S
C435 C433 1.321 . S
C435 C434 1.390 . S
C435 H437 0.930 . S
H436 C434 0.931 . S
H437 C435 0.930 . S
H438 C461 0.931 . S
H439 C427 0.929 . S
H440 C462 0.930 . S
H441 C433 0.931 . S
H442 C423 0.930 . S
H443 C452 0.929 . S
H444 C428 0.931 . S
H445 C429 0.930 . S
H446 C484 0.930 . S
H447 C425 0.929 . S
H448 C453 0.931 . S
H449 C454 0.930 . S
N450 Gd430 2.622 . S
N450 C451 1.369 . S
N450 C452 1.338 . S
C451 N450 1.369 . S
C451 C455 1.415 . S
C451 C458 1.422 . S
C452 H443 0.929 . S
C452 N450 1.338 . S
C452 C454 1.378 . S
C453 H448 0.931 . S
C453 C454 1.348 . S
C453 C455 1.413 . S
C454 H449 0.930 . S
C454 C452 1.378 . S
C454 C453 1.348 . S
C455 C451 1.415 . S
C455 C453 1.413 . S
C455 C485 1.437 . S
H456 C485 0.929 . S
N457 Gd430 2.570 . S
N457 C458 1.359 . S
N457 C461 1.343 . S
C458 C451 1.422 . S
C458 N457 1.359 . S
C458 C460 1.421 . S
C459 C460 1.422 . S
C459 C462 1.321 . S
C459 H486 0.931 . S
C460 C458 1.421 . S
C460 C459 1.422 . S
C460 C484 1.417 . S
C461 H438 0.931 . S
C461 N457 1.343 . S
C461 C462 1.390 . S
C462 H440 0.930 . S
C462 C459 1.321 . S
C462 C461 1.390 . S
O463 Gd431 2.386 . S
O463 C475 1.265 . S
O464 Gd430 2.353 . S
O464 C475 1.242 . S
O465 Gd430 2.468 . S
O465 C483 1.263 . S
O466 Gd430 2.427 . S
O466 C483 1.252 . S
O467 Gd431 2.307 . S
O467 C476 1.261 . S
O468 Gd430 2.388 . S
O468 C476 1.252 . S
O469 Gd430 2.386 . S
O469 C487 1.265 . S
O470 Gd431 2.353 . S
O470 C487 1.242 . S
O471 Gd431 2.468 . S
O471 C495 1.263 . S
O472 Gd431 2.427 . S
O472 C495 1.252 . S
O473 Gd430 2.307 . S
O473 C488 1.261 . S
O474 Gd431 2.388 . S
O474 C488 1.252 . S
C475 O463 1.265 . S
C475 O464 1.242 . S
C476 O467 1.261 . S
C476 O468 1.252 . S
C477 C480 1.394 . S
C477 C482 1.370 . S
C477 C483 1.500 . S
C478 C481 1.383 . S
C478 C482 1.395 . S
C479 C480 1.396 . S
C479 C481 1.365 . S
C479 H496 0.929 . S
C480 C477 1.394 . S
C480 C479 1.396 . S
C480 H497 0.930 . S
C481 C478 1.383 . S
C481 C479 1.365 . S
C481 H498 0.931 . S
C482 C477 1.370 . S
C482 C478 1.395 . S
C482 H499 0.930 . S
C483 Gd430 2.805 . S
C483 O465 1.263 . S
C483 O466 1.252 . S
C483 C477 1.500 . S
C484 H446 0.930 . S
C484 C460 1.417 . S
C484 C485 1.329 . S
C485 C455 1.437 . S
C485 H456 0.929 . S
C485 C484 1.329 . S
H486 C459 0.931 . S
C487 O469 1.265 . S
C487 O470 1.242 . S
C488 O473 1.261 . S
C488 O474 1.252 . S
C489 C492 1.394 . S
C489 C494 1.370 . S
C489 C495 1.500 . S
C490 C493 1.383 . S
C490 C494 1.395 . S
C491 C492 1.396 . S
C491 C493 1.365 . S
C491 H500 0.929 . S
C492 C489 1.394 . S
C492 C491 1.396 . S
C492 H501 0.930 . S
C493 C490 1.383 . S
C493 C491 1.365 . S
C493 H502 0.931 . S
C494 C489 1.370 . S
C494 C490 1.395 . S
C494 H503 0.930 . S
C495 Gd431 2.805 . S
C495 O471 1.263 . S
C495 O472 1.252 . S
C495 C489 1.500 . S
H496 C479 0.929 . S
H497 C480 0.930 . S
H498 C481 0.931 . S
H499 C482 0.930 . S
H500 C491 0.929 . S
H501 C492 0.930 . S
H502 C493 0.931 . S
H503 C494 0.930 . S
C504 C506 1.422 . S
C504 C508 1.415 . S
C504 N510 1.369 . S
C505 C506 1.421 . S
C505 C507 1.417 . S
C505 C517 1.422 . S
C506 C504 1.422 . S
C506 C505 1.421 . S
C506 N516 1.359 . S
C507 C505 1.417 . S
C507 C509 1.329 . S
C507 H526 0.930 . S
C508 C504 1.415 . S
C508 C509 1.437 . S
C508 C512 1.413 . S
C509 C507 1.329 . S
C509 C508 1.437 . S
C509 H531 0.929 . S
N510 C504 1.369 . S
N510 C511 1.338 . S
N510 Gd515 2.622 . S
C511 N510 1.338 . S
C511 C513 1.378 . S
C511 H523 0.929 . S
C512 C508 1.413 . S
C512 C513 1.348 . S
C512 H528 0.931 . S
C513 C511 1.378 . S
C513 C512 1.348 . S
C513 H529 0.930 . S
Gd514 N534 2.622 . S
Gd514 N541 2.570 1_545 S
Gd514 O548 2.353 . S
Gd514 O549 2.468 . S
Gd514 O550 2.427 . S
Gd514 O552 2.388 . S
Gd514 O553 2.386 1_545 S
Gd514 O557 2.307 . S
Gd514 C567 2.805 . S
Gd515 N510 2.622 . S
Gd515 N516 2.570 . S
Gd515 O547 2.386 . S
Gd515 O551 2.307 . S
Gd515 O554 2.353 1_545 S
Gd515 O555 2.468 . S
Gd515 O556 2.427 . S
Gd515 O558 2.388 . S
Gd515 C579 2.805 . S
N516 C506 1.359 . S
N516 Gd515 2.570 . S
N516 C518 1.343 . S
C517 C505 1.422 . S
C517 C519 1.321 . S
C517 H525 0.931 . S
C518 N516 1.343 . S
C518 C519 1.390 . S
C518 H520 0.931 . S
C519 C517 1.321 . S
C519 C518 1.390 . S
C519 H521 0.930 . S
H520 C518 0.931 . S
H521 C519 0.930 . S
H522 C545 0.931 . S
H523 C511 0.929 . S
H524 C546 0.930 . S
H525 C517 0.931 . S
H526 C507 0.930 . S
H527 C536 0.929 . S
H528 C512 0.931 . S
H529 C513 0.930 . S
H530 C568 0.930 . S
H531 C509 0.929 . S
H532 C537 0.931 . S
H533 C538 0.930 . S
N534 Gd514 2.622 . S
N534 C535 1.369 1_545 S
N534 C536 1.338 . S
C535 N534 1.369 1_565 S
C535 C539 1.415 . S
C535 C542 1.422 . S
C536 H527 0.929 . S
C536 N534 1.338 . S
C536 C538 1.378 1_545 S
C537 H532 0.931 . S
C537 C538 1.348 . S
C537 C539 1.413 . S
C538 H533 0.930 . S
C538 C536 1.378 1_565 S
C538 C537 1.348 . S
C539 C535 1.415 . S
C539 C537 1.413 . S
C539 C569 1.437 . S
H540 C569 0.929 . S
N541 Gd514 2.570 1_565 S
N541 C542 1.359 . S
N541 C545 1.343 . S
C542 C535 1.422 . S
C542 N541 1.359 . S
C542 C544 1.421 . S
C543 C544 1.422 . S
C543 C546 1.321 . S
C543 H570 0.931 . S
C544 C542 1.421 . S
C544 C543 1.422 . S
C544 C568 1.417 . S
C545 H522 0.931 . S
C545 N541 1.343 . S
C545 C546 1.390 . S
C546 H524 0.930 . S
C546 C543 1.321 . S
C546 C545 1.390 . S
O547 Gd515 2.386 . S
O547 C559 1.265 . S
O548 Gd514 2.353 . S
O548 C559 1.242 . S
O549 Gd514 2.468 . S
O549 C567 1.263 . S
O550 Gd514 2.427 . S
O550 C567 1.252 . S
O551 Gd515 2.307 . S
O551 C560 1.261 . S
O552 Gd514 2.388 . S
O552 C560 1.252 . S
O553 Gd514 2.386 1_565 S
O553 C571 1.265 . S
O554 Gd515 2.353 1_565 S
O554 C571 1.242 . S
O555 Gd515 2.468 . S
O555 C579 1.263 . S
O556 Gd515 2.427 . S
O556 C579 1.252 . S
O557 Gd514 2.307 . S
O557 C572 1.261 . S
O558 Gd515 2.388 . S
O558 C572 1.252 . S
C559 O547 1.265 . S
C559 O548 1.242 . S
C560 O551 1.261 . S
C560 O552 1.252 . S
C561 C564 1.394 . S
C561 C566 1.370 . S
C561 C567 1.500 . S
C562 C565 1.383 . S
C562 C566 1.395 . S
C563 C564 1.396 . S
C563 C565 1.365 . S
C563 H580 0.929 . S
C564 C561 1.394 . S
C564 C563 1.396 . S
C564 H581 0.930 . S
C565 C562 1.383 . S
C565 C563 1.365 . S
C565 H582 0.931 . S
C566 C561 1.370 . S
C566 C562 1.395 . S
C566 H583 0.930 . S
C567 Gd514 2.805 . S
C567 O549 1.263 . S
C567 O550 1.252 . S
C567 C561 1.500 . S
C568 H530 0.930 . S
C568 C544 1.417 . S
C568 C569 1.329 . S
C569 C539 1.437 . S
C569 H540 0.929 . S
C569 C568 1.329 . S
H570 C543 0.931 . S
C571 O553 1.265 . S
C571 O554 1.242 . S
C572 O557 1.261 . S
C572 O558 1.252 . S
C573 C576 1.394 . S
C573 C578 1.370 . S
C573 C579 1.500 1_565 S
C574 C577 1.383 . S
C574 C578 1.395 . S
C575 C576 1.396 . S
C575 C577 1.365 . S
C575 H584 0.929 . S
C576 C573 1.394 . S
C576 C575 1.396 . S
C576 H585 0.930 . S
C577 C574 1.383 . S
C577 C575 1.365 . S
C577 H586 0.931 . S
C578 C573 1.370 . S
C578 C574 1.395 . S
C578 H587 0.930 . S
C579 Gd515 2.805 . S
C579 O555 1.263 . S
C579 O556 1.252 . S
C579 C573 1.500 1_545 S
H580 C563 0.929 . S
H581 C564 0.930 . S
H582 C565 0.931 . S
H583 C566 0.930 . S
H584 C575 0.929 . S
H585 C576 0.930 . S
H586 C577 0.931 . S
H587 C578 0.930 . S
C588 C590 1.422 . S
C588 C592 1.415 . S
C588 N594 1.369 . S
C589 C590 1.421 . S
C589 C591 1.417 . S
C589 C601 1.422 . S
C590 C588 1.422 . S
C590 C589 1.421 . S
C590 N600 1.359 . S
C591 C589 1.417 . S
C591 C593 1.329 . S
C591 H610 0.930 . S
C592 C588 1.415 . S
C592 C593 1.437 . S
C592 C596 1.413 . S
C593 C591 1.329 . S
C593 C592 1.437 . S
C593 H615 0.929 . S
N594 C588 1.369 . S
N594 C595 1.338 . S
N594 Gd599 2.622 . S
C595 N594 1.338 . S
C595 C597 1.378 . S
C595 H607 0.929 . S
C596 C592 1.413 . S
C596 C597 1.348 . S
C596 H612 0.931 . S
C597 C595 1.378 . S
C597 C596 1.348 . S
C597 H613 0.930 . S
Gd598 N618 2.622 . S
Gd598 N625 2.570 . S
Gd598 O632 2.353 . S
Gd598 O633 2.468 . S
Gd598 O634 2.427 . S
Gd598 O636 2.388 . S
Gd598 O637 2.386 . S
Gd598 O641 2.307 . S
Gd598 C651 2.805 . S
Gd599 N594 2.622 . S
Gd599 N600 2.570 . S
Gd599 O631 2.386 . S
Gd599 O635 2.307 . S
Gd599 O638 2.353 . S
Gd599 O639 2.468 . S
Gd599 O640 2.427 . S
Gd599 O642 2.388 . S
Gd599 C663 2.805 . S
N600 C590 1.359 . S
N600 Gd599 2.570 . S
N600 C602 1.343 . S
C601 C589 1.422 . S
C601 C603 1.321 . S
C601 H609 0.931 . S
C602 N600 1.343 . S
C602 C603 1.390 . S
C602 H604 0.931 . S
C603 C601 1.321 . S
C603 C602 1.390 . S
C603 H605 0.930 . S
H604 C602 0.931 . S
H605 C603 0.930 . S
H606 C629 0.931 . S
H607 C595 0.929 . S
H608 C630 0.930 . S
H609 C601 0.931 . S
H610 C591 0.930 . S
H611 C620 0.929 . S
H612 C596 0.931 . S
H613 C597 0.930 . S
H614 C652 0.930 . S
H615 C593 0.929 . S
H616 C621 0.931 . S
H617 C622 0.930 . S
N618 Gd598 2.622 . S
N618 C619 1.369 . S
N618 C620 1.338 . S
C619 N618 1.369 . S
C619 C623 1.415 . S
C619 C626 1.422 . S
C620 H611 0.929 . S
C620 N618 1.338 . S
C620 C622 1.378 . S
C621 H616 0.931 . S
C621 C622 1.348 . S
C621 C623 1.413 . S
C622 H617 0.930 . S
C622 C620 1.378 . S
C622 C621 1.348 . S
C623 C619 1.415 . S
C623 C621 1.413 . S
C623 C653 1.437 . S
H624 C653 0.929 . S
N625 Gd598 2.570 . S
N625 C626 1.359 . S
N625 C629 1.343 . S
C626 C619 1.422 . S
C626 N625 1.359 . S
C626 C628 1.421 . S
C627 C628 1.422 . S
C627 C630 1.321 . S
C627 H654 0.931 . S
C628 C626 1.421 . S
C628 C627 1.422 . S
C628 C652 1.417 . S
C629 H606 0.931 . S
C629 N625 1.343 . S
C629 C630 1.390 . S
C630 H608 0.930 . S
C630 C627 1.321 . S
C630 C629 1.390 . S
O631 Gd599 2.386 . S
O631 C643 1.265 . S
O632 Gd598 2.353 . S
O632 C643 1.242 . S
O633 Gd598 2.468 . S
O633 C651 1.263 . S
O634 Gd598 2.427 . S
O634 C651 1.252 . S
O635 Gd599 2.307 . S
O635 C644 1.261 . S
O636 Gd598 2.388 . S
O636 C644 1.252 . S
O637 Gd598 2.386 . S
O637 C655 1.265 . S
O638 Gd599 2.353 . S
O638 C655 1.242 . S
O639 Gd599 2.468 . S
O639 C663 1.263 . S
O640 Gd599 2.427 . S
O640 C663 1.252 . S
O641 Gd598 2.307 . S
O641 C656 1.261 . S
O642 Gd599 2.388 . S
O642 C656 1.252 . S
C643 O631 1.265 . S
C643 O632 1.242 . S
C644 O635 1.261 . S
C644 O636 1.252 . S
C645 C648 1.394 . S
C645 C650 1.370 . S
C645 C651 1.500 . S
C646 C649 1.383 . S
C646 C650 1.395 . S
C647 C648 1.396 . S
C647 C649 1.365 . S
C647 H664 0.929 . S
C648 C645 1.394 . S
C648 C647 1.396 . S
C648 H665 0.930 . S
C649 C646 1.383 . S
C649 C647 1.365 . S
C649 H666 0.931 . S
C650 C645 1.370 . S
C650 C646 1.395 . S
C650 H667 0.930 . S
C651 Gd598 2.805 . S
C651 O633 1.263 . S
C651 O634 1.252 . S
C651 C645 1.500 . S
C652 H614 0.930 . S
C652 C628 1.417 . S
C652 C653 1.329 . S
C653 C623 1.437 . S
C653 H624 0.929 . S
C653 C652 1.329 . S
H654 C627 0.931 . S
C655 O637 1.265 . S
C655 O638 1.242 . S
C656 O641 1.261 . S
C656 O642 1.252 . S
C657 C660 1.394 . S
C657 C662 1.370 . S
C657 C663 1.500 . S
C658 C661 1.383 . S
C658 C662 1.395 . S
C659 C660 1.396 . S
C659 C661 1.365 . S
C659 H668 0.929 . S
C660 C657 1.394 . S
C660 C659 1.396 . S
C660 H669 0.930 . S
C661 C658 1.383 . S
C661 C659 1.365 . S
C661 H670 0.931 . S
C662 C657 1.370 . S
C662 C658 1.395 . S
C662 H671 0.930 . S
C663 Gd599 2.805 . S
C663 O639 1.263 . S
C663 O640 1.252 . S
C663 C657 1.500 . S
H664 C647 0.929 . S
H665 C648 0.930 . S
H666 C649 0.931 . S
H667 C650 0.930 . S
H668 C659 0.929 . S
H669 C660 0.930 . S
H670 C661 0.931 . S
H671 C662 0.930 . S
C672 C674 1.422 . S
C672 C676 1.415 1_455 S
C672 N678 1.369 1_455 S
C673 C674 1.421 . S
C673 C675 1.417 . S
C673 C685 1.422 . S
C674 C672 1.422 . S
C674 C673 1.421 . S
C674 N684 1.359 . S
C675 C673 1.417 . S
C675 C677 1.329 . S
C675 H694 0.930 . S
C676 C672 1.415 1_655 S
C676 C677 1.437 1_655 S
C676 C680 1.413 . S
C677 C675 1.329 . S
C677 C676 1.437 1_455 S
C677 H699 0.929 . S
N678 C672 1.369 1_655 S
N678 C679 1.338 . S
N678 Gd683 2.622 1_655 S
C679 N678 1.338 . S
C679 C681 1.378 . S
C679 H691 0.929 . S
C680 C676 1.413 . S
C680 C681 1.348 . S
C680 H696 0.931 . S
C681 C679 1.378 . S
C681 C680 1.348 . S
C681 H697 0.930 . S
Gd682 N702 2.612 1_545 S
Gd682 N709 2.553 1_545 S
Gd682 O716 2.362 . S
Gd682 O717 2.446 1_545 S
Gd682 O718 2.406 1_545 S
Gd682 O720 2.404 . S
Gd682 O721 2.401 . S
Gd682 O725 2.315 . S
Gd682 C735 2.781 1_545 S
Gd683 N678 2.622 1_455 S
Gd683 N684 2.570 . S
Gd683 O715 2.386 . S
Gd683 O719 2.307 . S
Gd683 O722 2.353 . S
Gd683 O723 2.468 . S
Gd683 O724 2.427 1_455 S
Gd683 O726 2.388 1_455 S
Gd683 C747 2.805 . S
N684 C674 1.359 . S
N684 Gd683 2.570 . S
N684 C686 1.343 . S
C685 C673 1.422 . S
C685 C687 1.321 . S
C685 H693 0.931 . S
C686 N684 1.343 . S
C686 C687 1.390 . S
C686 H688 0.931 . S
C687 C685 1.321 . S
C687 C686 1.390 . S
C687 H689 0.930 . S
H688 C686 0.931 . S
H689 C687 0.930 . S
H690 C713 0.931 . S
H691 C679 0.929 . S
H692 C714 0.930 . S
H693 C685 0.931 . S
H694 C675 0.930 . S
H695 C704 0.929 1_545 S
H696 C680 0.931 . S
H697 C681 0.930 . S
H698 C736 0.930 . S
H699 C677 0.929 . S
H700 C705 0.931 . S
H701 C706 0.930 1_545 S
N702 Gd682 2.612 1_565 S
N702 C703 1.369 . S
N702 C704 1.338 . S
C703 N702 1.369 . S
C703 C707 1.415 . S
C703 C710 1.422 . S
C704 H695 0.929 1_565 S
C704 N702 1.338 . S
C704 C706 1.378 . S
C705 H700 0.931 . S
C705 C706 1.348 . S
C705 C707 1.413 . S
C706 H701 0.930 1_565 S
C706 C704 1.378 . S
C706 C705 1.348 . S
C707 C703 1.415 . S
C707 C705 1.413 . S
C707 C737 1.437 . S
H708 C737 0.929 . S
N709 Gd682 2.553 1_565 S
N709 C710 1.359 . S
N709 C713 1.343 1_455 S
C710 C703 1.422 . S
C710 N709 1.359 . S
C710 C712 1.421 . S
C711 C712 1.422 1_655 S
C711 C714 1.321 . S
C711 H738 0.931 . S
C712 C710 1.421 . S
C712 C711 1.422 1_455 S
C712 C736 1.417 . S
C713 H690 0.931 . S
C713 N709 1.343 1_655 S
C713 C714 1.390 . S
C714 H692 0.930 . S
C714 C711 1.321 . S
C714 C713 1.390 . S
O715 Gd683 2.386 . S
O715 C727 1.265 . S
O716 Gd682 2.362 . S
O716 C727 1.242 . S
O717 Gd682 2.446 1_565 S
O717 C735 1.263 . S
O718 Gd682 2.406 1_565 S
O718 C735 1.252 . S
O719 Gd683 2.307 . S
O719 C728 1.261 . S
O720 Gd682 2.404 . S
O720 C728 1.252 . S
O721 Gd682 2.401 . S
O721 C739 1.265 . S
O722 Gd683 2.353 . S
O722 C739 1.242 . S
O723 Gd683 2.468 . S
O723 C747 1.263 . S
O724 Gd683 2.427 1_655 S
O724 C747 1.252 1_655 S
O725 Gd682 2.315 . S
O725 C740 1.261 1_455 S
O726 Gd683 2.388 1_655 S
O726 C740 1.252 . S
C727 O715 1.265 . S
C727 O716 1.242 . S
C728 O719 1.261 . S
C728 O720 1.252 . S
C729 C732 1.394 . S
C729 C734 1.370 . S
C729 C735 1.500 . S
C730 C733 1.383 . S
C730 C734 1.395 . S
C731 C732 1.396 . S
C731 C733 1.365 . S
C731 H748 0.929 . S
C732 C729 1.394 . S
C732 C731 1.396 . S
C732 H749 0.930 . S
C733 C730 1.383 . S
C733 C731 1.365 . S
C733 H750 0.931 . S
C734 C729 1.370 . S
C734 C730 1.395 . S
C734 H751 0.930 . S
C735 Gd682 2.781 1_565 S
C735 O717 1.263 . S
C735 O718 1.252 . S
C735 C729 1.500 . S
C736 H698 0.930 . S
C736 C712 1.417 . S
C736 C737 1.329 . S
C737 C707 1.437 . S
C737 H708 0.929 . S
C737 C736 1.329 . S
H738 C711 0.931 . S
C739 O721 1.265 . S
C739 O722 1.242 . S
C740 O725 1.261 1_655 S
C740 O726 1.252 . S
C741 C744 1.394 1_455 S
C741 C746 1.370 . S
C741 C747 1.500 . S
C742 C745 1.387 1_455 S
C742 C746 1.395 . S
C743 C744 1.396 . S
C743 C745 1.363 . S
C743 H752 0.929 . S
C744 C741 1.394 1_655 S
C744 C743 1.396 . S
C744 H753 0.930 . S
C745 C742 1.387 1_655 S
C745 C743 1.363 . S
C745 H754 0.930 . S
C746 C741 1.370 . S
C746 C742 1.395 . S
C746 H755 0.930 . S
C747 Gd683 2.805 . S
C747 O723 1.263 . S
C747 O724 1.252 1_455 S
C747 C741 1.500 . S
H748 C731 0.929 . S
H749 C732 0.930 . S
H750 C733 0.931 . S
H751 C734 0.930 . S
H752 C743 0.929 . S
H753 C744 0.930 . S
H754 C745 0.930 . S
H755 C746 0.930 . S
C756 C758 1.422 . S
C756 C760 1.415 . S
C756 N762 1.369 . S
C757 C758 1.421 . S
C757 C759 1.417 . S
C757 C769 1.422 . S
C758 C756 1.422 . S
C758 C757 1.421 . S
C758 N768 1.359 . S
C759 C757 1.417 . S
C759 C761 1.329 . S
C759 H778 0.930 . S
C760 C756 1.415 . S
C760 C761 1.437 . S
C760 C764 1.413 . S
C761 C759 1.329 . S
C761 C760 1.437 . S
C761 H783 0.929 . S
N762 C756 1.369 . S
N762 C763 1.338 . S
N762 Gd767 2.622 . S
C763 N762 1.338 . S
C763 C765 1.378 . S
C763 H775 0.929 . S
C764 C760 1.413 . S
C764 C765 1.348 . S
C764 H780 0.931 . S
C765 C763 1.378 . S
C765 C764 1.348 . S
C765 H781 0.930 . S
Gd766 N786 2.622 . S
Gd766 N793 2.570 . S
Gd766 O800 2.353 . S
Gd766 O801 2.468 . S
Gd766 O802 2.427 . S
Gd766 O804 2.388 . S
Gd766 O805 2.386 . S
Gd766 O809 2.307 . S
Gd766 C819 2.805 . S
Gd767 N762 2.622 . S
Gd767 N768 2.570 . S
Gd767 O799 2.386 . S
Gd767 O803 2.307 . S
Gd767 O806 2.353 . S
Gd767 O807 2.468 . S
Gd767 O808 2.427 . S
Gd767 O810 2.388 . S
Gd767 C831 2.805 . S
N768 C758 1.359 . S
N768 Gd767 2.570 . S
N768 C770 1.343 . S
C769 C757 1.422 . S
C769 C771 1.321 . S
C769 H777 0.931 . S
C770 N768 1.343 . S
C770 C771 1.390 . S
C770 H772 0.931 . S
C771 C769 1.321 . S
C771 C770 1.390 . S
C771 H773 0.930 . S
H772 C770 0.931 . S
H773 C771 0.930 . S
H774 C797 0.931 . S
H775 C763 0.929 . S
H776 C798 0.930 . S
H777 C769 0.931 . S
H778 C759 0.930 . S
H779 C788 0.929 . S
H780 C764 0.931 . S
H781 C765 0.930 . S
H782 C820 0.930 . S
H783 C761 0.929 . S
H784 C789 0.931 . S
H785 C790 0.930 . S
N786 Gd766 2.622 . S
N786 C787 1.369 . S
N786 C788 1.338 . S
C787 N786 1.369 . S
C787 C791 1.415 . S
C787 C794 1.422 . S
C788 H779 0.929 . S
C788 N786 1.338 . S
C788 C790 1.378 . S
C789 H784 0.931 . S
C789 C790 1.348 . S
C789 C791 1.413 . S
C790 H785 0.930 . S
C790 C788 1.378 . S
C790 C789 1.348 . S
C791 C787 1.415 . S
C791 C789 1.413 . S
C791 C821 1.437 . S
H792 C821 0.929 . S
N793 Gd766 2.570 . S
N793 C794 1.359 . S
N793 C797 1.343 . S
C794 C787 1.422 . S
C794 N793 1.359 . S
C794 C796 1.421 . S
C795 C796 1.422 . S
C795 C798 1.321 . S
C795 H822 0.931 . S
C796 C794 1.421 . S
C796 C795 1.422 . S
C796 C820 1.417 . S
C797 H774 0.931 . S
C797 N793 1.343 . S
C797 C798 1.390 . S
C798 H776 0.930 . S
C798 C795 1.321 . S
C798 C797 1.390 . S
O799 Gd767 2.386 . S
O799 C811 1.265 . S
O800 Gd766 2.353 . S
O800 C811 1.242 . S
O801 Gd766 2.468 . S
O801 C819 1.263 . S
O802 Gd766 2.427 . S
O802 C819 1.252 . S
O803 Gd767 2.307 . S
O803 C812 1.261 . S
O804 Gd766 2.388 . S
O804 C812 1.252 . S
O805 Gd766 2.386 . S
O805 C823 1.265 . S
O806 Gd767 2.353 . S
O806 C823 1.242 . S
O807 Gd767 2.468 . S
O807 C831 1.263 . S
O808 Gd767 2.427 . S
O808 C831 1.252 . S
O809 Gd766 2.307 . S
O809 C824 1.261 . S
O810 Gd767 2.388 . S
O810 C824 1.252 . S
C811 O799 1.265 . S
C811 O800 1.242 . S
C812 O803 1.261 . S
C812 O804 1.252 . S
C813 C816 1.394 . S
C813 C818 1.370 . S
C813 C819 1.500 . S
C814 C817 1.383 . S
C814 C818 1.395 . S
C815 C816 1.396 . S
C815 C817 1.365 . S
C815 H832 0.929 . S
C816 C813 1.394 . S
C816 C815 1.396 . S
C816 H833 0.930 . S
C817 C814 1.383 . S
C817 C815 1.365 . S
C817 H834 0.931 . S
C818 C813 1.370 . S
C818 C814 1.395 . S
C818 H835 0.930 . S
C819 Gd766 2.805 . S
C819 O801 1.263 . S
C819 O802 1.252 . S
C819 C813 1.500 . S
C820 H782 0.930 . S
C820 C796 1.417 . S
C820 C821 1.329 . S
C821 C791 1.437 . S
C821 H792 0.929 . S
C821 C820 1.329 . S
H822 C795 0.931 . S
C823 O805 1.265 . S
C823 O806 1.242 . S
C824 O809 1.261 . S
C824 O810 1.252 . S
C825 C828 1.394 . S
C825 C830 1.370 . S
C825 C831 1.500 . S
C826 C829 1.383 . S
C826 C830 1.395 . S
C827 C828 1.396 . S
C827 C829 1.365 . S
C827 H836 0.929 . S
C828 C825 1.394 . S
C828 C827 1.396 . S
C828 H837 0.930 . S
C829 C826 1.383 . S
C829 C827 1.365 . S
C829 H838 0.931 . S
C830 C825 1.370 . S
C830 C826 1.395 . S
C830 H839 0.930 . S
C831 Gd767 2.805 . S
C831 O807 1.263 . S
C831 O808 1.252 . S
C831 C825 1.500 . S
H832 C815 0.929 . S
H833 C816 0.930 . S
H834 C817 0.931 . S
H835 C818 0.930 . S
H836 C827 0.929 . S
H837 C828 0.930 . S
H838 C829 0.931 . S
H839 C830 0.930 . S
C840 C842 1.422 . S
C840 C844 1.415 1_545 S
C840 N846 1.369 1_545 S
C841 C842 1.421 . S
C841 C843 1.417 . S
C841 C853 1.422 . S
C842 C840 1.422 . S
C842 C841 1.421 . S
C842 N852 1.359 . S
C843 C841 1.417 . S
C843 C845 1.329 . S
C843 H862 0.930 . S
C844 C840 1.415 1_565 S
C844 C845 1.437 1_565 S
C844 C848 1.413 . S
C845 C843 1.329 . S
C845 C844 1.437 1_545 S
C845 H867 0.929 1_545 S
N846 C840 1.369 1_565 S
N846 C847 1.338 . S
N846 Gd851 2.622 1_565 S
C847 N846 1.338 . S
C847 C849 1.378 . S
C847 H859 0.929 . S
C848 C844 1.413 . S
C848 C849 1.348 . S
C848 H864 0.931 . S
C849 C847 1.378 . S
C849 C848 1.348 . S
C849 H865 0.930 . S
Gd850 N870 2.622 . S
Gd850 N877 2.570 . S
Gd850 O884 2.353 1_556 S
Gd850 O885 2.468 . S
Gd850 O886 2.427 . S
Gd850 O888 2.388 1_556 S
Gd850 O889 2.386 1_556 S
Gd850 O893 2.307 . S
Gd850 C903 2.805 . S
Gd851 N846 2.622 1_545 S
Gd851 N852 2.570 . S
Gd851 O883 2.386 . S
Gd851 O887 2.307 . S
Gd851 O890 2.353 . S
Gd851 O891 2.468 . S
Gd851 O892 2.427 1_545 S
Gd851 O894 2.388 1_545 S
Gd851 C915 2.805 . S
N852 C842 1.359 . S
N852 Gd851 2.570 . S
N852 C854 1.343 . S
C853 C841 1.422 . S
C853 C855 1.321 . S
C853 H861 0.931 . S
C854 N852 1.343 . S
C854 C855 1.390 . S
C854 H856 0.931 . S
C855 C853 1.321 . S
C855 C854 1.390 . S
C855 H857 0.930 . S
H856 C854 0.931 . S
H857 C855 0.930 . S
H858 C881 0.931 . S
H859 C847 0.929 . S
H860 C882 0.897 1_565 S
H861 C853 0.931 . S
H862 C843 0.930 . S
H863 C872 0.929 1_554 S
H864 C848 0.931 . S
H865 C849 0.930 . S
H866 C904 0.930 . S
H867 C845 0.929 1_565 S
H868 C873 0.931 . S
H869 C874 0.930 . S
N870 Gd850 2.622 . S
N870 C871 1.369 . S
N870 C872 1.338 . S
C871 N870 1.369 . S
C871 C875 1.415 . S
C871 C878 1.422 . S
C872 H863 0.929 1_556 S
C872 N870 1.338 . S
C872 C874 1.378 . S
C873 H868 0.931 . S
C873 C874 1.348 . S
C873 C875 1.413 . S
C874 H869 0.930 . S
C874 C872 1.378 . S
C874 C873 1.348 . S
C875 C871 1.415 . S
C875 C873 1.413 . S
C875 C905 1.437 . S
H876 C905 0.929 . S
N877 Gd850 2.570 . S
N877 C878 1.359 . S
N877 C881 1.343 . S
C878 C871 1.422 . S
C878 N877 1.359 . S
C878 C880 1.421 . S
C879 C880 1.422 . S
C879 C882 1.347 . S
C879 H906 0.931 . S
C880 C878 1.421 . S
C880 C879 1.422 . S
C880 C904 1.417 . S
C881 H858 0.931 . S
C881 N877 1.343 . S
C881 C882 1.397 . S
C882 H860 0.897 1_545 S
C882 C879 1.347 . S
C882 C881 1.397 . S
O883 Gd851 2.386 . S
O883 C895 1.265 . S
O884 Gd850 2.353 1_554 S
O884 C895 1.242 . S
O885 Gd850 2.468 . S
O885 C903 1.263 . S
O886 Gd850 2.427 . S
O886 C903 1.252 . S
O887 Gd851 2.307 . S
O887 C896 1.261 . S
O888 Gd850 2.388 1_554 S
O888 C896 1.252 . S
O889 Gd850 2.386 1_554 S
O889 C907 1.265 . S
O890 Gd851 2.353 . S
O890 C907 1.242 . S
O891 Gd851 2.468 . S
O891 C915 1.263 . S
O892 Gd851 2.427 1_565 S
O892 C915 1.252 1_565 S
O893 Gd850 2.307 . S
O893 C908 1.261 1_546 S
O894 Gd851 2.388 1_565 S
O894 C908 1.252 . S
C895 O883 1.265 . S
C895 O884 1.242 . S
C896 O887 1.261 . S
C896 O888 1.252 . S
C897 C900 1.394 . S
C897 C902 1.370 . S
C897 C903 1.500 . S
C898 C901 1.383 . S
C898 C902 1.395 . S
C899 C900 1.396 . S
C899 C901 1.365 . S
C899 H916 0.929 . S
C900 C897 1.394 . S
C900 C899 1.396 . S
C900 H917 0.930 . S
C901 C898 1.383 . S
C901 C899 1.365 . S
C901 H918 0.931 . S
C902 C897 1.370 . S
C902 C898 1.395 . S
C902 H919 0.930 . S
C903 Gd850 2.805 . S
C903 O885 1.263 . S
C903 O886 1.252 . S
C903 C897 1.500 . S
C904 H866 0.930 . S
C904 C880 1.417 . S
C904 C905 1.329 . S
C905 C875 1.437 . S
C905 H876 0.929 . S
C905 C904 1.329 . S
H906 C879 0.931 . S
C907 O889 1.265 . S
C907 O890 1.242 . S
C908 O893 1.261 1_564 S
C908 O894 1.252 . S
C909 C912 1.394 . S
C909 C914 1.370 1_565 S
C909 C915 1.500 1_565 S
C910 C913 1.383 1_545 S
C910 C914 1.395 . S
C911 C912 1.396 . S
C911 C913 1.365 . S
C911 H920 0.929 . S
C912 C909 1.394 . S
C912 C911 1.396 . S
C912 H921 0.930 . S
C913 C910 1.383 1_565 S
C913 C911 1.365 . S
C913 H922 0.931 . S
C914 C909 1.370 1_545 S
C914 C910 1.395 . S
C914 H923 0.930 . S
C915 Gd851 2.805 . S
C915 O891 1.263 . S
C915 O892 1.252 1_545 S
C915 C909 1.500 1_545 S
H916 C899 0.929 . S
H917 C900 0.930 . S
H918 C901 0.931 . S
H919 C902 0.930 . S
H920 C911 0.929 . S
H921 C912 0.930 . S
H922 C913 0.931 . S
H923 C914 0.930 . S
C924 C926 1.422 . S
C924 C928 1.415 . S
C924 N930 1.369 . S
C925 C926 1.421 . S
C925 C927 1.417 . S
C925 C937 1.422 . S
C926 C924 1.422 . S
C926 C925 1.421 . S
C926 N936 1.359 . S
C927 C925 1.417 . S
C927 C929 1.329 . S
C927 H946 0.930 . S
C928 C924 1.415 . S
C928 C929 1.437 . S
C928 C932 1.413 . S
C929 C927 1.329 . S
C929 C928 1.437 . S
C929 H951 0.929 . S
N930 C924 1.369 . S
N930 C931 1.338 . S
N930 Gd935 2.622 . S
C931 N930 1.338 . S
C931 C933 1.378 . S
C931 H943 0.929 . S
C932 C928 1.413 . S
C932 C933 1.348 . S
C932 H948 0.931 . S
C933 C931 1.378 . S
C933 C932 1.348 . S
C933 H949 0.930 . S
Gd934 N954 2.622 . S
Gd934 N961 2.570 . S
Gd934 O968 2.353 . S
Gd934 O969 2.468 . S
Gd934 O970 2.427 . S
Gd934 O972 2.388 . S
Gd934 O973 2.386 . S
Gd934 O977 2.307 . S
Gd934 C987 2.805 . S
Gd935 N930 2.622 . S
Gd935 N936 2.570 . S
Gd935 O967 2.386 . S
Gd935 O971 2.307 . S
Gd935 O974 2.353 . S
Gd935 O975 2.468 . S
Gd935 O976 2.427 . S
Gd935 O978 2.388 . S
Gd935 C999 2.805 . S
N936 C926 1.359 . S
N936 Gd935 2.570 . S
N936 C938 1.343 . S
C937 C925 1.422 . S
C937 C939 1.321 . S
C937 H945 0.931 . S
C938 N936 1.343 . S
C938 C939 1.390 . S
C938 H940 0.931 . S
C939 C937 1.321 . S
C939 C938 1.390 . S
C939 H941 0.930 . S
H940 C938 0.931 . S
H941 C939 0.930 . S
H942 C965 0.931 . S
H943 C931 0.929 . S
H944 C966 0.930 . S
H945 C937 0.931 . S
H946 C927 0.930 . S
H947 C956 0.929 . S
H948 C932 0.931 . S
H949 C933 0.930 . S
H950 C988 0.930 . S
H951 C929 0.929 . S
H952 C957 0.931 . S
H953 C958 0.930 . S
N954 Gd934 2.622 . S
N954 C955 1.369 . S
N954 C956 1.338 . S
C955 N954 1.369 . S
C955 C959 1.415 . S
C955 C962 1.422 . S
C956 H947 0.929 . S
C956 N954 1.338 . S
C956 C958 1.378 . S
C957 H952 0.931 . S
C957 C958 1.348 . S
C957 C959 1.413 . S
C958 H953 0.930 . S
C958 C956 1.378 . S
C958 C957 1.348 . S
C959 C955 1.415 . S
C959 C957 1.413 . S
C959 C989 1.437 . S
H960 C989 0.929 . S
N961 Gd934 2.570 . S
N961 C962 1.359 . S
N961 C965 1.343 . S
C962 C955 1.422 . S
C962 N961 1.359 . S
C962 C964 1.421 . S
C963 C964 1.422 . S
C963 C966 1.321 . S
C963 H990 0.931 . S
C964 C962 1.421 . S
C964 C963 1.422 . S
C964 C988 1.417 . S
C965 H942 0.931 . S
C965 N961 1.343 . S
C965 C966 1.390 . S
C966 H944 0.930 . S
C966 C963 1.321 . S
C966 C965 1.390 . S
O967 Gd935 2.386 . S
O967 C979 1.265 . S
O968 Gd934 2.353 . S
O968 C979 1.242 . S
O969 Gd934 2.468 . S
O969 C987 1.263 . S
O970 Gd934 2.427 . S
O970 C987 1.252 . S
O971 Gd935 2.307 . S
O971 C980 1.261 . S
O972 Gd934 2.388 . S
O972 C980 1.252 . S
O973 Gd934 2.386 . S
O973 C991 1.265 . S
O974 Gd935 2.353 . S
O974 C991 1.242 . S
O975 Gd935 2.468 . S
O975 C999 1.263 . S
O976 Gd935 2.427 . S
O976 C999 1.252 . S
O977 Gd934 2.307 . S
O977 C992 1.261 . S
O978 Gd935 2.388 . S
O978 C992 1.252 . S
C979 O967 1.265 . S
C979 O968 1.242 . S
C980 O971 1.261 . S
C980 O972 1.252 . S
C981 C984 1.394 . S
C981 C986 1.370 . S
C981 C987 1.500 . S
C982 C985 1.383 . S
C982 C986 1.395 . S
C983 C984 1.396 . S
C983 C985 1.365 . S
C983 H1000 0.929 . S
C984 C981 1.394 . S
C984 C983 1.396 . S
C984 H1001 0.930 . S
C985 C982 1.383 . S
C985 C983 1.365 . S
C985 H1002 0.931 . S
C986 C981 1.370 . S
C986 C982 1.395 . S
C986 H1003 0.930 . S
C987 Gd934 2.805 . S
C987 O969 1.263 . S
C987 O970 1.252 . S
C987 C981 1.500 . S
C988 H950 0.930 . S
C988 C964 1.417 . S
C988 C989 1.329 . S
C989 C959 1.437 . S
C989 H960 0.929 . S
C989 C988 1.329 . S
H990 C963 0.931 . S
C991 O973 1.265 . S
C991 O974 1.242 . S
C992 O977 1.261 . S
C992 O978 1.252 . S
C993 C996 1.394 . S
C993 C998 1.370 . S
C993 C999 1.500 . S
C994 C997 1.383 . S
C994 C998 1.395 . S
C995 C996 1.396 . S
C995 C997 1.365 . S
C995 H1004 0.929 . S
C996 C993 1.394 . S
C996 C995 1.396 . S
C996 H1005 0.930 . S
C997 C994 1.383 . S
C997 C995 1.365 . S
C997 H1006 0.931 . S
C998 C993 1.370 . S
C998 C994 1.395 . S
C998 H1007 0.930 . S
C999 Gd935 2.805 . S
C999 O975 1.263 . S
C999 O976 1.252 . S
C999 C993 1.500 . S
H1000 C983 0.929 . S
H1001 C984 0.930 . S
H1002 C985 0.931 . S
H1003 C986 0.930 . S
H1004 C995 0.929 . S
H1005 C996 0.930 . S
H1006 C997 0.931 . S
H1007 C998 0.930 . S
C1008 C1010 1.422 . S
C1008 C1012 1.415 . S
C1008 N1014 1.369 . S
C1009 C1010 1.421 . S
C1009 C1011 1.417 . S
C1009 C1021 1.422 . S
C1010 C1008 1.422 . S
C1010 C1009 1.421 . S
C1010 N1020 1.359 . S
C1011 C1009 1.417 . S
C1011 C1013 1.329 . S
C1011 H1030 0.930 . S
C1012 C1008 1.415 . S
C1012 C1013 1.437 . S
C1012 C1016 1.413 . S
C1013 C1011 1.329 . S
C1013 C1012 1.437 . S
C1013 H1035 0.929 . S
N1014 C1008 1.369 . S
N1014 C1015 1.338 . S
N1014 Gd1019 2.622 . S
C1015 N1014 1.338 . S
C1015 C1017 1.378 . S
C1015 H1027 0.929 . S
C1016 C1012 1.413 . S
C1016 C1017 1.348 . S
C1016 H1032 0.931 . S
C1017 C1015 1.378 . S
C1017 C1016 1.348 . S
C1017 H1033 0.930 . S
Gd1018 N1038 2.622 1_554 S
Gd1018 N1045 2.570 1_554 S
Gd1018 O1052 2.353 . S
Gd1018 O1053 2.468 . S
Gd1018 O1054 2.427 . S
Gd1018 O1056 2.388 . S
Gd1018 O1057 2.386 1_554 S
Gd1018 O1061 2.307 . S
Gd1018 C1071 2.805 . S
Gd1019 N1014 2.622 . S
Gd1019 N1020 2.570 . S
Gd1019 O1051 2.386 . S
Gd1019 O1055 2.307 . S
Gd1019 O1058 2.353 1_554 S
Gd1019 O1059 2.468 . S
Gd1019 O1060 2.427 . S
Gd1019 O1062 2.388 . S
Gd1019 C1083 2.805 . S
N1020 C1010 1.359 . S
N1020 Gd1019 2.570 . S
N1020 C1022 1.343 . S
C1021 C1009 1.422 . S
C1021 C1023 1.321 . S
C1021 H1029 0.931 . S
C1022 N1020 1.343 . S
C1022 C1023 1.390 . S
C1022 H1024 0.931 . S
C1023 C1021 1.321 . S
C1023 C1022 1.390 . S
C1023 H1025 0.930 . S
H1024 C1022 0.931 . S
H1025 C1023 0.930 . S
H1026 C1049 0.931 . S
H1027 C1015 0.929 . S
H1028 C1050 0.930 . S
H1029 C1021 0.931 . S
H1030 C1011 0.930 . S
H1031 C1040 0.929 1_554 S
H1032 C1016 0.931 . S
H1033 C1017 0.930 . S
H1034 C1072 0.930 . S
H1035 C1013 0.929 . S
H1036 C1041 0.931 . S
H1037 C1042 0.930 . S
N1038 Gd1018 2.622 1_556 S
N1038 C1039 1.369 . S
N1038 C1040 1.338 . S
C1039 N1038 1.369 . S
C1039 C1043 1.415 . S
C1039 C1046 1.422 . S
C1040 H1031 0.929 1_556 S
C1040 N1038 1.338 . S
C1040 C1042 1.378 . S
C1041 H1036 0.931 . S
C1041 C1042 1.348 . S
C1041 C1043 1.413 . S
C1042 H1037 0.930 . S
C1042 C1040 1.378 . S
C1042 C1041 1.348 . S
C1043 C1039 1.415 . S
C1043 C1041 1.413 . S
C1043 C1073 1.437 . S
H1044 C1073 0.929 . S
N1045 Gd1018 2.570 1_556 S
N1045 C1046 1.359 . S
N1045 C1049 1.343 . S
C1046 C1039 1.422 . S
C1046 N1045 1.359 . S
C1046 C1048 1.421 . S
C1047 C1048 1.422 . S
C1047 C1050 1.321 . S
C1047 H1074 0.931 . S
C1048 C1046 1.421 . S
C1048 C1047 1.422 . S
C1048 C1072 1.417 . S
C1049 H1026 0.931 . S
C1049 N1045 1.343 . S
C1049 C1050 1.390 . S
C1050 H1028 0.930 . S
C1050 C1047 1.321 . S
C1050 C1049 1.390 . S
O1051 Gd1019 2.386 . S
O1051 C1063 1.265 . S
O1052 Gd1018 2.353 . S
O1052 C1063 1.242 . S
O1053 Gd1018 2.468 . S
O1053 C1071 1.263 . S
O1054 Gd1018 2.427 . S
O1054 C1071 1.252 . S
O1055 Gd1019 2.307 . S
O1055 C1064 1.261 . S
O1056 Gd1018 2.388 . S
O1056 C1064 1.252 . S
O1057 Gd1018 2.386 1_556 S
O1057 C1075 1.265 . S
O1058 Gd1019 2.353 1_556 S
O1058 C1075 1.242 . S
O1059 Gd1019 2.468 . S
O1059 C1083 1.263 . S
O1060 Gd1019 2.427 . S
O1060 C1083 1.252 . S
O1061 Gd1018 2.307 . S
O1061 C1076 1.261 . S
O1062 Gd1019 2.388 . S
O1062 C1076 1.252 . S
C1063 O1051 1.265 . S
C1063 O1052 1.242 . S
C1064 O1055 1.261 . S
C1064 O1056 1.252 . S
C1065 C1068 1.394 . S
C1065 C1070 1.370 . S
C1065 C1071 1.500 . S
C1066 C1069 1.383 . S
C1066 C1070 1.395 . S
C1067 C1068 1.396 . S
C1067 C1069 1.365 . S
C1067 H1084 0.929 . S
C1068 C1065 1.394 . S
C1068 C1067 1.396 . S
C1068 H1085 0.930 . S
C1069 C1066 1.383 . S
C1069 C1067 1.365 . S
C1069 H1086 0.931 . S
C1070 C1065 1.370 . S
C1070 C1066 1.395 . S
C1070 H1087 0.930 . S
C1071 Gd1018 2.805 . S
C1071 O1053 1.263 . S
C1071 O1054 1.252 . S
C1071 C1065 1.500 . S
C1072 H1034 0.930 . S
C1072 C1048 1.417 . S
C1072 C1073 1.329 . S
C1073 C1043 1.437 . S
C1073 H1044 0.929 . S
C1073 C1072 1.329 . S
H1074 C1047 0.931 . S
C1075 O1057 1.265 . S
C1075 O1058 1.242 . S
C1076 O1061 1.261 . S
C1076 O1062 1.252 . S
C1077 C1080 1.394 . S
C1077 C1082 1.370 . S
C1077 C1083 1.500 1_556 S
C1078 C1081 1.383 . S
C1078 C1082 1.395 . S
C1079 C1080 1.396 . S
C1079 C1081 1.365 . S
C1079 H1088 0.929 . S
C1080 C1077 1.394 . S
C1080 C1079 1.396 . S
C1080 H1089 0.930 . S
C1081 C1078 1.383 . S
C1081 C1079 1.365 . S
C1081 H1090 0.931 . S
C1082 C1077 1.370 . S
C1082 C1078 1.395 . S
C1082 H1091 0.930 . S
C1083 Gd1019 2.805 . S
C1083 O1059 1.263 . S
C1083 O1060 1.252 . S
C1083 C1077 1.500 1_554 S
H1084 C1067 0.929 . S
H1085 C1068 0.930 . S
H1086 C1069 0.931 . S
H1087 C1070 0.930 . S
H1088 C1079 0.929 . S
H1089 C1080 0.930 . S
H1090 C1081 0.931 . S
H1091 C1082 0.930 . S
C1092 C1094 1.422 . S
C1092 C1096 1.415 . S
C1092 N1098 1.369 . S
C1093 C1094 1.421 . S
C1093 C1095 1.417 . S
C1093 C1105 1.422 . S
C1094 C1092 1.422 . S
C1094 C1093 1.421 . S
C1094 N1104 1.359 . S
C1095 C1093 1.417 . S
C1095 C1097 1.329 . S
C1095 H1114 0.930 . S
C1096 C1092 1.415 . S
C1096 C1097 1.437 . S
C1096 C1100 1.413 . S
C1097 C1095 1.329 . S
C1097 C1096 1.437 . S
C1097 H1119 0.929 . S
N1098 C1092 1.369 . S
N1098 C1099 1.338 . S
N1098 Gd1103 2.622 . S
C1099 N1098 1.338 . S
C1099 C1101 1.378 . S
C1099 H1111 0.929 . S
C1100 C1096 1.413 . S
C1100 C1101 1.348 . S
C1100 H1116 0.931 . S
C1101 C1099 1.378 . S
C1101 C1100 1.348 . S
C1101 H1117 0.930 . S
Gd1102 N1122 2.622 . S
Gd1102 N1129 2.570 . S
Gd1102 O1136 2.353 . S
Gd1102 O1137 2.468 . S
Gd1102 O1138 2.427 . S
Gd1102 O1140 2.388 . S
Gd1102 O1141 2.386 . S
Gd1102 O1145 2.307 . S
Gd1102 C1155 2.805 . S
Gd1103 N1098 2.622 . S
Gd1103 N1104 2.570 . S
Gd1103 O1135 2.386 . S
Gd1103 O1139 2.307 . S
Gd1103 O1142 2.353 . S
Gd1103 O1143 2.468 . S
Gd1103 O1144 2.427 . S
Gd1103 O1146 2.388 . S
Gd1103 C1167 2.805 . S
N1104 C1094 1.359 . S
N1104 Gd1103 2.570 . S
N1104 C1106 1.343 . S
C1105 C1093 1.422 . S
C1105 C1107 1.321 . S
C1105 H1113 0.931 . S
C1106 N1104 1.343 . S
C1106 C1107 1.390 . S
C1106 H1108 0.931 . S
C1107 C1105 1.321 . S
C1107 C1106 1.390 . S
C1107 H1109 0.930 . S
H1108 C1106 0.931 . S
H1109 C1107 0.930 . S
H1110 C1133 0.931 . S
H1111 C1099 0.929 . S
H1112 C1134 0.930 . S
H1113 C1105 0.931 . S
H1114 C1095 0.930 . S
H1115 C1124 0.929 . S
H1116 C1100 0.931 . S
H1117 C1101 0.930 . S
H1118 C1156 0.930 . S
H1119 C1097 0.929 . S
H1120 C1125 0.931 . S
H1121 C1126 0.930 . S
N1122 Gd1102 2.622 . S
N1122 C1123 1.369 . S
N1122 C1124 1.338 . S
C1123 N1122 1.369 . S
C1123 C1127 1.415 . S
C1123 C1130 1.422 . S
C1124 H1115 0.929 . S
C1124 N1122 1.338 . S
C1124 C1126 1.378 . S
C1125 H1120 0.931 . S
C1125 C1126 1.348 . S
C1125 C1127 1.413 . S
C1126 H1121 0.930 . S
C1126 C1124 1.378 . S
C1126 C1125 1.348 . S
C1127 C1123 1.415 . S
C1127 C1125 1.413 . S
C1127 C1157 1.437 . S
H1128 C1157 0.929 . S
N1129 Gd1102 2.570 . S
N1129 C1130 1.359 . S
N1129 C1133 1.343 . S
C1130 C1123 1.422 . S
C1130 N1129 1.359 . S
C1130 C1132 1.421 . S
C1131 C1132 1.422 . S
C1131 C1134 1.321 . S
C1131 H1158 0.931 . S
C1132 C1130 1.421 . S
C1132 C1131 1.422 . S
C1132 C1156 1.417 . S
C1133 H1110 0.931 . S
C1133 N1129 1.343 . S
C1133 C1134 1.390 . S
C1134 H1112 0.930 . S
C1134 C1131 1.321 . S
C1134 C1133 1.390 . S
O1135 Gd1103 2.386 . S
O1135 C1147 1.265 . S
O1136 Gd1102 2.353 . S
O1136 C1147 1.242 . S
O1137 Gd1102 2.468 . S
O1137 C1155 1.263 . S
O1138 Gd1102 2.427 . S
O1138 C1155 1.252 . S
O1139 Gd1103 2.307 . S
O1139 C1148 1.261 . S
O1140 Gd1102 2.388 . S
O1140 C1148 1.252 . S
O1141 Gd1102 2.386 . S
O1141 C1159 1.265 . S
O1142 Gd1103 2.353 . S
O1142 C1159 1.242 . S
O1143 Gd1103 2.468 . S
O1143 C1167 1.263 . S
O1144 Gd1103 2.427 . S
O1144 C1167 1.252 . S
O1145 Gd1102 2.307 . S
O1145 C1160 1.261 . S
O1146 Gd1103 2.388 . S
O1146 C1160 1.252 . S
C1147 O1135 1.265 . S
C1147 O1136 1.242 . S
C1148 O1139 1.261 . S
C1148 O1140 1.252 . S
C1149 C1152 1.394 . S
C1149 C1154 1.370 . S
C1149 C1155 1.500 . S
C1150 C1153 1.383 . S
C1150 C1154 1.395 . S
C1151 C1152 1.396 . S
C1151 C1153 1.365 . S
C1151 H1168 0.929 . S
C1152 C1149 1.394 . S
C1152 C1151 1.396 . S
C1152 H1169 0.930 . S
C1153 C1150 1.383 . S
C1153 C1151 1.365 . S
C1153 H1170 0.931 . S
C1154 C1149 1.370 . S
C1154 C1150 1.395 . S
C1154 H1171 0.930 . S
C1155 Gd1102 2.805 . S
C1155 O1137 1.263 . S
C1155 O1138 1.252 . S
C1155 C1149 1.500 . S
C1156 H1118 0.930 . S
C1156 C1132 1.417 . S
C1156 C1157 1.329 . S
C1157 C1127 1.437 . S
C1157 H1128 0.929 . S
C1157 C1156 1.329 . S
H1158 C1131 0.931 . S
C1159 O1141 1.265 . S
C1159 O1142 1.242 . S
C1160 O1145 1.261 . S
C1160 O1146 1.252 . S
C1161 C1164 1.394 . S
C1161 C1166 1.370 . S
C1161 C1167 1.500 . S
C1162 C1165 1.383 . S
C1162 C1166 1.395 . S
C1163 C1164 1.396 . S
C1163 C1165 1.365 . S
C1163 H1172 0.929 . S
C1164 C1161 1.394 . S
C1164 C1163 1.396 . S
C1164 H1173 0.930 . S
C1165 C1162 1.383 . S
C1165 C1163 1.365 . S
C1165 H1174 0.931 . S
C1166 C1161 1.370 . S
C1166 C1162 1.395 . S
C1166 H1175 0.930 . S
C1167 Gd1103 2.805 . S
C1167 O1143 1.263 . S
C1167 O1144 1.252 . S
C1167 C1161 1.500 . S
H1168 C1151 0.929 . S
H1169 C1152 0.930 . S
H1170 C1153 0.931 . S
H1171 C1154 0.930 . S
H1172 C1163 0.929 . S
H1173 C1164 0.930 . S
H1174 C1165 0.931 . S
H1175 C1166 0.930 . S
C1176 C1178 1.422 . S
C1176 C1180 1.415 . S
C1176 N1182 1.369 . S
C1177 C1178 1.421 . S
C1177 C1179 1.417 . S
C1177 C1189 1.422 . S
C1178 C1176 1.422 . S
C1178 C1177 1.421 . S
C1178 N1188 1.359 . S
C1179 C1177 1.417 . S
C1179 C1181 1.329 . S
C1179 H1198 0.930 . S
C1180 C1176 1.415 . S
C1180 C1181 1.437 . S
C1180 C1184 1.413 . S
C1181 C1179 1.329 . S
C1181 C1180 1.437 . S
C1181 H1203 0.929 . S
N1182 C1176 1.369 . S
N1182 C1183 1.338 . S
N1182 Gd1187 2.622 . S
C1183 N1182 1.338 . S
C1183 C1185 1.378 . S
C1183 H1195 0.929 . S
C1184 C1180 1.413 . S
C1184 C1185 1.348 . S
C1184 H1200 0.931 . S
C1185 C1183 1.378 . S
C1185 C1184 1.348 . S
C1185 H1201 0.930 . S
Gd1186 N1206 2.622 1_455 S
Gd1186 N1213 2.570 1_455 S
Gd1186 O1220 2.353 . S
Gd1186 O1221 2.468 . S
Gd1186 O1222 2.427 . S
Gd1186 O1224 2.388 . S
Gd1186 O1225 2.386 1_455 S
Gd1186 O1229 2.307 . S
Gd1186 C1239 2.805 . S
Gd1187 N1182 2.622 . S
Gd1187 N1188 2.570 . S
Gd1187 O1219 2.386 . S
Gd1187 O1223 2.307 . S
Gd1187 O1226 2.353 1_455 S
Gd1187 O1227 2.468 . S
Gd1187 O1228 2.427 . S
Gd1187 O1230 2.388 . S
Gd1187 C1251 2.805 . S
N1188 C1178 1.359 . S
N1188 Gd1187 2.570 . S
N1188 C1190 1.343 . S
C1189 C1177 1.422 . S
C1189 C1191 1.321 . S
C1189 H1197 0.931 . S
C1190 N1188 1.343 . S
C1190 C1191 1.390 . S
C1190 H1192 0.931 . S
C1191 C1189 1.321 . S
C1191 C1190 1.390 . S
C1191 H1193 0.930 . S
H1192 C1190 0.931 . S
H1193 C1191 0.930 . S
H1194 C1217 0.931 1_455 S
H1195 C1183 0.929 . S
H1196 C1218 0.930 . S
H1197 C1189 0.931 . S
H1198 C1179 0.930 . S
H1199 C1208 0.929 . S
H1200 C1184 0.931 . S
H1201 C1185 0.930 . S
H1202 C1240 0.930 . S
H1203 C1181 0.929 . S
H1204 C1209 0.931 . S
H1205 C1210 0.930 . S
N1206 Gd1186 2.622 1_655 S
N1206 C1207 1.369 . S
N1206 C1208 1.338 1_655 S
C1207 N1206 1.369 . S
C1207 C1211 1.415 . S
C1207 C1214 1.422 . S
C1208 H1199 0.929 . S
C1208 N1206 1.338 1_455 S
C1208 C1210 1.378 1_455 S
C1209 H1204 0.931 . S
C1209 C1210 1.348 . S
C1209 C1211 1.413 . S
C1210 H1205 0.930 . S
C1210 C1208 1.378 1_655 S
C1210 C1209 1.348 . S
C1211 C1207 1.415 . S
C1211 C1209 1.413 . S
C1211 C1241 1.437 . S
H1212 C1241 0.929 . S
N1213 Gd1186 2.570 1_655 S
N1213 C1214 1.359 . S
N1213 C1217 1.343 . S
C1214 C1207 1.422 . S
C1214 N1213 1.359 . S
C1214 C1216 1.421 . S
C1215 C1216 1.422 . S
C1215 C1218 1.321 . S
C1215 H1242 0.931 . S
C1216 C1214 1.421 . S
C1216 C1215 1.422 . S
C1216 C1240 1.417 . S
C1217 H1194 0.931 1_655 S
C1217 N1213 1.343 . S
C1217 C1218 1.390 . S
C1218 H1196 0.930 . S
C1218 C1215 1.321 . S
C1218 C1217 1.390 . S
O1219 Gd1187 2.386 . S
O1219 C1231 1.265 . S
O1220 Gd1186 2.353 . S
O1220 C1231 1.242 . S
O1221 Gd1186 2.468 . S
O1221 C1239 1.263 . S
O1222 Gd1186 2.427 . S
O1222 C1239 1.252 . S
O1223 Gd1187 2.307 . S
O1223 C1232 1.261 . S
O1224 Gd1186 2.388 . S
O1224 C1232 1.252 . S
O1225 Gd1186 2.386 1_655 S
O1225 C1243 1.265 . S
O1226 Gd1187 2.353 1_655 S
O1226 C1243 1.242 . S
O1227 Gd1187 2.468 . S
O1227 C1251 1.263 . S
O1228 Gd1187 2.427 . S
O1228 C1251 1.252 . S
O1229 Gd1186 2.307 . S
O1229 C1244 1.261 . S
O1230 Gd1187 2.388 . S
O1230 C1244 1.252 . S
C1231 O1219 1.265 . S
C1231 O1220 1.242 . S
C1232 O1223 1.261 . S
C1232 O1224 1.252 . S
C1233 C1236 1.394 . S
C1233 C1238 1.370 . S
C1233 C1239 1.500 . S
C1234 C1237 1.383 . S
C1234 C1238 1.395 . S
C1235 C1236 1.396 . S
C1235 C1237 1.365 . S
C1235 H1252 0.929 . S
C1236 C1233 1.394 . S
C1236 C1235 1.396 . S
C1236 H1253 0.930 . S
C1237 C1234 1.383 . S
C1237 C1235 1.365 . S
C1237 H1254 0.931 . S
C1238 C1233 1.370 . S
C1238 C1234 1.395 . S
C1238 H1255 0.930 . S
C1239 Gd1186 2.805 . S
C1239 O1221 1.263 . S
C1239 O1222 1.252 . S
C1239 C1233 1.500 . S
C1240 H1202 0.930 . S
C1240 C1216 1.417 . S
C1240 C1241 1.329 . S
C1241 C1211 1.437 . S
C1241 H1212 0.929 . S
C1241 C1240 1.329 . S
H1242 C1215 0.931 . S
C1243 O1225 1.265 . S
C1243 O1226 1.242 . S
C1244 O1229 1.261 . S
C1244 O1230 1.252 . S
C1245 C1248 1.394 . S
C1245 C1250 1.370 . S
C1245 C1251 1.500 1_655 S
C1246 C1249 1.383 . S
C1246 C1250 1.395 . S
C1247 C1248 1.396 . S
C1247 C1249 1.365 . S
C1247 H1256 0.929 . S
C1248 C1245 1.394 . S
C1248 C1247 1.396 . S
C1248 H1257 0.930 . S
C1249 C1246 1.383 . S
C1249 C1247 1.365 . S
C1249 H1258 0.931 . S
C1250 C1245 1.370 . S
C1250 C1246 1.395 . S
C1250 H1259 0.930 . S
C1251 Gd1187 2.805 . S
C1251 O1227 1.263 . S
C1251 O1228 1.252 . S
C1251 C1245 1.500 1_455 S
H1252 C1235 0.929 . S
H1253 C1236 0.930 . S
H1254 C1237 0.931 . S
H1255 C1238 0.930 . S
H1256 C1247 0.929 . S
H1257 C1248 0.930 . S
H1258 C1249 0.931 . S
H1259 C1250 0.930 . S
C1260 C1262 1.422 . S
C1260 C1264 1.415 . S
C1260 N1266 1.369 . S
C1261 C1262 1.421 . S
C1261 C1263 1.417 . S
C1261 C1273 1.422 . S
C1262 C1260 1.422 . S
C1262 C1261 1.421 . S
C1262 N1272 1.359 . S
C1263 C1261 1.417 . S
C1263 C1265 1.329 . S
C1263 H1282 0.930 . S
C1264 C1260 1.415 . S
C1264 C1265 1.437 . S
C1264 C1268 1.413 . S
C1265 C1263 1.329 . S
C1265 C1264 1.437 . S
C1265 H1287 0.929 . S
N1266 C1260 1.369 . S
N1266 C1267 1.338 . S
N1266 Gd1271 2.622 . S
C1267 N1266 1.338 . S
C1267 C1269 1.378 . S
C1267 H1279 0.929 . S
C1268 C1264 1.413 . S
C1268 C1269 1.348 . S
C1268 H1284 0.931 . S
C1269 C1267 1.378 . S
C1269 C1268 1.348 . S
C1269 H1285 0.930 . S
Gd1270 N1290 2.622 . S
Gd1270 N1297 2.570 . S
Gd1270 O1304 2.353 . S
Gd1270 O1305 2.468 . S
Gd1270 O1306 2.427 . S
Gd1270 O1308 2.388 . S
Gd1270 O1309 2.386 . S
Gd1270 O1313 2.307 . S
Gd1270 C1323 2.805 . S
Gd1271 N1266 2.622 . S
Gd1271 N1272 2.570 . S
Gd1271 O1303 2.386 . S
Gd1271 O1307 2.307 . S
Gd1271 O1310 2.353 . S
Gd1271 O1311 2.468 . S
Gd1271 O1312 2.427 . S
Gd1271 O1314 2.388 . S
Gd1271 C1335 2.805 . S
N1272 C1262 1.359 . S
N1272 Gd1271 2.570 . S
N1272 C1274 1.343 . S
C1273 C1261 1.422 . S
C1273 C1275 1.321 . S
C1273 H1281 0.931 . S
C1274 N1272 1.343 . S
C1274 C1275 1.390 . S
C1274 H1276 0.931 . S
C1275 C1273 1.321 . S
C1275 C1274 1.390 . S
C1275 H1277 0.930 . S
H1276 C1274 0.931 . S
H1277 C1275 0.930 . S
H1278 C1301 0.931 . S
H1279 C1267 0.929 . S
H1280 C1302 0.930 . S
H1281 C1273 0.931 . S
H1282 C1263 0.930 . S
H1283 C1292 0.929 . S
H1284 C1268 0.931 . S
H1285 C1269 0.930 . S
H1286 C1324 0.930 . S
H1287 C1265 0.929 . S
H1288 C1293 0.931 . S
H1289 C1294 0.930 . S
N1290 Gd1270 2.622 . S
N1290 C1291 1.369 . S
N1290 C1292 1.338 . S
C1291 N1290 1.369 . S
C1291 C1295 1.415 . S
C1291 C1298 1.422 . S
C1292 H1283 0.929 . S
C1292 N1290 1.338 . S
C1292 C1294 1.378 . S
C1293 H1288 0.931 . S
C1293 C1294 1.348 . S
C1293 C1295 1.413 . S
C1294 H1289 0.930 . S
C1294 C1292 1.378 . S
C1294 C1293 1.348 . S
C1295 C1291 1.415 . S
C1295 C1293 1.413 . S
C1295 C1325 1.437 . S
H1296 C1325 0.929 . S
N1297 Gd1270 2.570 . S
N1297 C1298 1.359 . S
N1297 C1301 1.343 . S
C1298 C1291 1.422 . S
C1298 N1297 1.359 . S
C1298 C1300 1.421 . S
C1299 C1300 1.422 . S
C1299 C1302 1.321 . S
C1299 H1326 0.931 . S
C1300 C1298 1.421 . S
C1300 C1299 1.422 . S
C1300 C1324 1.417 . S
C1301 H1278 0.931 . S
C1301 N1297 1.343 . S
C1301 C1302 1.390 . S
C1302 H1280 0.930 . S
C1302 C1299 1.321 . S
C1302 C1301 1.390 . S
O1303 Gd1271 2.386 . S
O1303 C1315 1.265 . S
O1304 Gd1270 2.353 . S
O1304 C1315 1.242 . S
O1305 Gd1270 2.468 . S
O1305 C1323 1.263 . S
O1306 Gd1270 2.427 . S
O1306 C1323 1.252 . S
O1307 Gd1271 2.307 . S
O1307 C1316 1.261 . S
O1308 Gd1270 2.388 . S
O1308 C1316 1.252 . S
O1309 Gd1270 2.386 . S
O1309 C1327 1.265 . S
O1310 Gd1271 2.353 . S
O1310 C1327 1.242 . S
O1311 Gd1271 2.468 . S
O1311 C1335 1.263 . S
O1312 Gd1271 2.427 . S
O1312 C1335 1.252 . S
O1313 Gd1270 2.307 . S
O1313 C1328 1.261 . S
O1314 Gd1271 2.388 . S
O1314 C1328 1.252 . S
C1315 O1303 1.265 . S
C1315 O1304 1.242 . S
C1316 O1307 1.261 . S
C1316 O1308 1.252 . S
C1317 C1320 1.394 . S
C1317 C1322 1.370 . S
C1317 C1323 1.500 . S
C1318 C1321 1.383 . S
C1318 C1322 1.395 . S
C1319 C1320 1.396 . S
C1319 C1321 1.365 . S
C1319 H1336 0.929 . S
C1320 C1317 1.394 . S
C1320 C1319 1.396 . S
C1320 H1337 0.930 . S
C1321 C1318 1.383 . S
C1321 C1319 1.365 . S
C1321 H1338 0.931 . S
C1322 C1317 1.370 . S
C1322 C1318 1.395 . S
C1322 H1339 0.930 . S
C1323 Gd1270 2.805 . S
C1323 O1305 1.263 . S
C1323 O1306 1.252 . S
C1323 C1317 1.500 . S
C1324 H1286 0.930 . S
C1324 C1300 1.417 . S
C1324 C1325 1.329 . S
C1325 C1295 1.437 . S
C1325 H1296 0.929 . S
C1325 C1324 1.329 . S
H1326 C1299 0.931 . S
C1327 O1309 1.265 . S
C1327 O1310 1.242 . S
C1328 O1313 1.261 . S
C1328 O1314 1.252 . S
C1329 C1332 1.394 . S
C1329 C1334 1.370 . S
C1329 C1335 1.500 . S
C1330 C1333 1.383 . S
C1330 C1334 1.395 . S
C1331 C1332 1.396 . S
C1331 C1333 1.365 . S
C1331 H1340 0.929 . S
C1332 C1329 1.394 . S
C1332 C1331 1.396 . S
C1332 H1341 0.930 . S
C1333 C1330 1.383 . S
C1333 C1331 1.365 . S
C1333 H1342 0.931 . S
C1334 C1329 1.370 . S
C1334 C1330 1.395 . S
C1334 H1343 0.930 . S
C1335 Gd1271 2.805 . S
C1335 O1311 1.263 . S
C1335 O1312 1.252 . S
C1335 C1329 1.500 . S
H1336 C1319 0.929 . S
H1337 C1320 0.930 . S
H1338 C1321 0.931 . S
H1339 C1322 0.930 . S
H1340 C1331 0.929 . S
H1341 C1332 0.930 . S
H1342 C1333 0.931 . S
H1343 C1334 0.930 . S
C1344 C1346 1.422 . S
C1344 C1348 1.415 . S
C1344 N1350 1.369 . S
C1345 C1346 1.421 . S
C1345 C1347 1.417 . S
C1345 C1357 1.422 . S
C1346 C1344 1.422 . S
C1346 C1345 1.421 . S
C1346 N1356 1.359 . S
C1347 C1345 1.417 . S
C1347 C1349 1.329 . S
C1347 H1366 0.930 . S
C1348 C1344 1.415 . S
C1348 C1349 1.437 . S
C1348 C1352 1.413 . S
C1349 C1347 1.329 . S
C1349 C1348 1.437 . S
C1349 H1371 0.929 . S
N1350 C1344 1.369 . S
N1350 C1351 1.338 . S
N1350 Gd1355 2.622 . S
C1351 N1350 1.338 . S
C1351 C1353 1.378 . S
C1351 H1363 0.929 . S
C1352 C1348 1.413 . S
C1352 C1353 1.348 . S
C1352 H1368 0.931 . S
C1353 C1351 1.378 . S
C1353 C1352 1.348 . S
C1353 H1369 0.930 . S
Gd1354 N1374 2.622 . S
Gd1354 N1381 2.570 . S
Gd1354 O1388 2.353 . S
Gd1354 O1389 2.468 . S
Gd1354 O1390 2.427 . S
Gd1354 O1392 2.388 . S
Gd1354 O1393 2.386 . S
Gd1354 O1397 2.307 . S
Gd1354 C1407 2.805 . S
Gd1355 N1350 2.622 . S
Gd1355 N1356 2.570 . S
Gd1355 O1387 2.386 . S
Gd1355 O1391 2.307 . S
Gd1355 O1394 2.353 . S
Gd1355 O1395 2.468 . S
Gd1355 O1396 2.427 . S
Gd1355 O1398 2.388 . S
Gd1355 C1419 2.805 . S
N1356 C1346 1.359 . S
N1356 Gd1355 2.570 . S
N1356 C1358 1.343 . S
C1357 C1345 1.422 . S
C1357 C1359 1.321 . S
C1357 H1365 0.931 . S
C1358 N1356 1.343 . S
C1358 C1359 1.390 . S
C1358 H1360 0.931 . S
C1359 C1357 1.321 . S
C1359 C1358 1.390 . S
C1359 H1361 0.930 . S
H1360 C1358 0.931 . S
H1361 C1359 0.930 . S
H1362 C1385 0.931 . S
H1363 C1351 0.929 . S
H1364 C1386 0.930 . S
H1365 C1357 0.931 . S
H1366 C1347 0.930 . S
H1367 C1376 0.929 . S
H1368 C1352 0.931 . S
H1369 C1353 0.930 . S
H1370 C1408 0.930 . S
H1371 C1349 0.929 . S
H1372 C1377 0.931 . S
H1373 C1378 0.930 . S
N1374 Gd1354 2.622 . S
N1374 C1375 1.369 . S
N1374 C1376 1.338 . S
C1375 N1374 1.369 . S
C1375 C1379 1.415 . S
C1375 C1382 1.422 . S
C1376 H1367 0.929 . S
C1376 N1374 1.338 . S
C1376 C1378 1.378 . S
C1377 H1372 0.931 . S
C1377 C1378 1.348 . S
C1377 C1379 1.413 . S
C1378 H1373 0.930 . S
C1378 C1376 1.378 . S
C1378 C1377 1.348 . S
C1379 C1375 1.415 . S
C1379 C1377 1.413 . S
C1379 C1409 1.437 . S
H1380 C1409 0.929 . S
N1381 Gd1354 2.570 . S
N1381 C1382 1.359 . S
N1381 C1385 1.343 . S
C1382 C1375 1.422 . S
C1382 N1381 1.359 . S
C1382 C1384 1.421 . S
C1383 C1384 1.422 . S
C1383 C1386 1.321 . S
C1383 H1410 0.931 . S
C1384 C1382 1.421 . S
C1384 C1383 1.422 . S
C1384 C1408 1.417 . S
C1385 H1362 0.931 . S
C1385 N1381 1.343 . S
C1385 C1386 1.390 . S
C1386 H1364 0.930 . S
C1386 C1383 1.321 . S
C1386 C1385 1.390 . S
O1387 Gd1355 2.386 . S
O1387 C1399 1.265 . S
O1388 Gd1354 2.353 . S
O1388 C1399 1.242 . S
O1389 Gd1354 2.468 . S
O1389 C1407 1.263 . S
O1390 Gd1354 2.427 . S
O1390 C1407 1.252 . S
O1391 Gd1355 2.307 . S
O1391 C1400 1.261 . S
O1392 Gd1354 2.388 . S
O1392 C1400 1.252 . S
O1393 Gd1354 2.386 . S
O1393 C1411 1.265 . S
O1394 Gd1355 2.353 . S
O1394 C1411 1.242 . S
O1395 Gd1355 2.468 . S
O1395 C1419 1.263 . S
O1396 Gd1355 2.427 . S
O1396 C1419 1.252 . S
O1397 Gd1354 2.307 . S
O1397 C1412 1.261 . S
O1398 Gd1355 2.388 . S
O1398 C1412 1.252 . S
C1399 O1387 1.265 . S
C1399 O1388 1.242 . S
C1400 O1391 1.261 . S
C1400 O1392 1.252 . S
C1401 C1404 1.394 . S
C1401 C1406 1.370 . S
C1401 C1407 1.500 . S
C1402 C1405 1.383 . S
C1402 C1406 1.395 . S
C1403 C1404 1.396 . S
C1403 C1405 1.365 . S
C1403 H1420 0.929 . S
C1404 C1401 1.394 . S
C1404 C1403 1.396 . S
C1404 H1421 0.930 . S
C1405 C1402 1.383 . S
C1405 C1403 1.365 . S
C1405 H1422 0.931 . S
C1406 C1401 1.370 . S
C1406 C1402 1.395 . S
C1406 H1423 0.930 . S
C1407 Gd1354 2.805 . S
C1407 O1389 1.263 . S
C1407 O1390 1.252 . S
C1407 C1401 1.500 . S
C1408 H1370 0.930 . S
C1408 C1384 1.417 . S
C1408 C1409 1.329 . S
C1409 C1379 1.437 . S
C1409 H1380 0.929 . S
C1409 C1408 1.329 . S
H1410 C1383 0.931 . S
C1411 O1393 1.265 . S
C1411 O1394 1.242 . S
C1412 O1397 1.261 . S
C1412 O1398 1.252 . S
C1413 C1416 1.394 . S
C1413 C1418 1.370 . S
C1413 C1419 1.500 . S
C1414 C1417 1.383 . S
C1414 C1418 1.395 . S
C1415 C1416 1.396 . S
C1415 C1417 1.365 . S
C1415 H1424 0.929 . S
C1416 C1413 1.394 . S
C1416 C1415 1.396 . S
C1416 H1425 0.930 . S
C1417 C1414 1.383 . S
C1417 C1415 1.365 . S
C1417 H1426 0.931 . S
C1418 C1413 1.370 . S
C1418 C1414 1.395 . S
C1418 H1427 0.930 . S
C1419 Gd1355 2.805 . S
C1419 O1395 1.263 . S
C1419 O1396 1.252 . S
C1419 C1413 1.500 . S
H1420 C1403 0.929 . S
H1421 C1404 0.930 . S
H1422 C1405 0.931 . S
H1423 C1406 0.930 . S
H1424 C1415 0.929 . S
H1425 C1416 0.930 . S
H1426 C1417 0.931 . S
H1427 C1418 0.930 . S
C1428 C1430 1.422 . S
C1428 C1432 1.415 . S
C1428 N1434 1.369 . S
C1429 C1430 1.421 . S
C1429 C1431 1.417 . S
C1429 C1441 1.422 . S
C1430 C1428 1.422 . S
C1430 C1429 1.421 . S
C1430 N1440 1.359 . S
C1431 C1429 1.417 . S
C1431 C1433 1.329 . S
C1431 H1450 0.930 . S
C1432 C1428 1.415 . S
C1432 C1433 1.437 . S
C1432 C1436 1.413 . S
C1433 C1431 1.329 . S
C1433 C1432 1.437 . S
C1433 H1455 0.929 . S
N1434 C1428 1.369 . S
N1434 C1435 1.338 . S
N1434 Gd1439 2.622 . S
C1435 N1434 1.338 . S
C1435 C1437 1.378 . S
C1435 H1447 0.929 . S
C1436 C1432 1.413 . S
C1436 C1437 1.348 . S
C1436 H1452 0.931 . S
C1437 C1435 1.378 . S
C1437 C1436 1.348 . S
C1437 H1453 0.930 . S
Gd1438 N1458 2.622 . S
Gd1438 N1465 2.570 . S
Gd1438 O1472 2.353 . S
Gd1438 O1473 2.468 . S
Gd1438 O1474 2.427 . S
Gd1438 O1476 2.388 . S
Gd1438 O1477 2.386 . S
Gd1438 O1481 2.307 . S
Gd1438 C1491 2.805 . S
Gd1439 N1434 2.622 . S
Gd1439 N1440 2.570 . S
Gd1439 O1471 2.386 . S
Gd1439 O1475 2.307 . S
Gd1439 O1478 2.353 . S
Gd1439 O1479 2.468 . S
Gd1439 O1480 2.427 . S
Gd1439 O1482 2.388 . S
Gd1439 C1503 2.805 . S
N1440 C1430 1.359 . S
N1440 Gd1439 2.570 . S
N1440 C1442 1.343 . S
C1441 C1429 1.422 . S
C1441 C1443 1.321 . S
C1441 H1449 0.931 . S
C1442 N1440 1.343 . S
C1442 C1443 1.390 . S
C1442 H1444 0.931 . S
C1443 C1441 1.321 . S
C1443 C1442 1.390 . S
C1443 H1445 0.930 . S
H1444 C1442 0.931 . S
H1445 C1443 0.930 . S
H1446 C1469 0.931 . S
H1447 C1435 0.929 . S
H1448 C1470 0.930 . S
H1449 C1441 0.931 . S
H1450 C1431 0.930 . S
H1451 C1460 0.929 . S
H1452 C1436 0.931 . S
H1453 C1437 0.930 . S
H1454 C1492 0.930 . S
H1455 C1433 0.929 . S
H1456 C1461 0.931 . S
H1457 C1462 0.930 . S
N1458 Gd1438 2.622 . S
N1458 C1459 1.369 . S
N1458 C1460 1.338 . S
C1459 N1458 1.369 . S
C1459 C1463 1.415 . S
C1459 C1466 1.422 . S
C1460 H1451 0.929 . S
C1460 N1458 1.338 . S
C1460 C1462 1.378 . S
C1461 H1456 0.931 . S
C1461 C1462 1.348 . S
C1461 C1463 1.413 . S
C1462 H1457 0.930 . S
C1462 C1460 1.378 . S
C1462 C1461 1.348 . S
C1463 C1459 1.415 . S
C1463 C1461 1.413 . S
C1463 C1493 1.437 . S
H1464 C1493 0.929 . S
N1465 Gd1438 2.570 . S
N1465 C1466 1.359 . S
N1465 C1469 1.343 . S
C1466 C1459 1.422 . S
C1466 N1465 1.359 . S
C1466 C1468 1.421 . S
C1467 C1468 1.422 . S
C1467 C1470 1.321 . S
C1467 H1494 0.931 . S
C1468 C1466 1.421 . S
C1468 C1467 1.422 . S
C1468 C1492 1.417 . S
C1469 H1446 0.931 . S
C1469 N1465 1.343 . S
C1469 C1470 1.390 . S
C1470 H1448 0.930 . S
C1470 C1467 1.321 . S
C1470 C1469 1.390 . S
O1471 Gd1439 2.386 . S
O1471 C1483 1.265 . S
O1472 Gd1438 2.353 . S
O1472 C1483 1.242 . S
O1473 Gd1438 2.468 . S
O1473 C1491 1.263 . S
O1474 Gd1438 2.427 . S
O1474 C1491 1.252 . S
O1475 Gd1439 2.307 . S
O1475 C1484 1.261 . S
O1476 Gd1438 2.388 . S
O1476 C1484 1.252 . S
O1477 Gd1438 2.386 . S
O1477 C1495 1.265 . S
O1478 Gd1439 2.353 . S
O1478 C1495 1.242 . S
O1479 Gd1439 2.468 . S
O1479 C1503 1.263 . S
O1480 Gd1439 2.427 . S
O1480 C1503 1.252 . S
O1481 Gd1438 2.307 . S
O1481 C1496 1.261 . S
O1482 Gd1439 2.388 . S
O1482 C1496 1.252 . S
C1483 O1471 1.265 . S
C1483 O1472 1.242 . S
C1484 O1475 1.261 . S
C1484 O1476 1.252 . S
C1485 C1488 1.394 . S
C1485 C1490 1.370 . S
C1485 C1491 1.500 . S
C1486 C1489 1.383 . S
C1486 C1490 1.395 . S
C1487 C1488 1.396 . S
C1487 C1489 1.365 . S
C1487 H1504 0.929 . S
C1488 C1485 1.394 . S
C1488 C1487 1.396 . S
C1488 H1505 0.930 . S
C1489 C1486 1.383 . S
C1489 C1487 1.365 . S
C1489 H1506 0.931 . S
C1490 C1485 1.370 . S
C1490 C1486 1.395 . S
C1490 H1507 0.930 . S
C1491 Gd1438 2.805 . S
C1491 O1473 1.263 . S
C1491 O1474 1.252 . S
C1491 C1485 1.500 . S
C1492 H1454 0.930 . S
C1492 C1468 1.417 . S
C1492 C1493 1.329 . S
C1493 C1463 1.437 . S
C1493 H1464 0.929 . S
C1493 C1492 1.329 . S
H1494 C1467 0.931 . S
C1495 O1477 1.265 . S
C1495 O1478 1.242 . S
C1496 O1481 1.261 . S
C1496 O1482 1.252 . S
C1497 C1500 1.394 . S
C1497 C1502 1.370 . S
C1497 C1503 1.500 . S
C1498 C1501 1.383 . S
C1498 C1502 1.395 . S
C1499 C1500 1.396 . S
C1499 C1501 1.365 . S
C1499 H1508 0.929 . S
C1500 C1497 1.394 . S
C1500 C1499 1.396 . S
C1500 H1509 0.930 . S
C1501 C1498 1.383 . S
C1501 C1499 1.365 . S
C1501 H1510 0.931 . S
C1502 C1497 1.370 . S
C1502 C1498 1.395 . S
C1502 H1511 0.930 . S
C1503 Gd1439 2.805 . S
C1503 O1479 1.263 . S
C1503 O1480 1.252 . S
C1503 C1497 1.500 . S
H1504 C1487 0.929 . S
H1505 C1488 0.930 . S
H1506 C1489 0.931 . S
H1507 C1490 0.930 . S
H1508 C1499 0.929 . S
H1509 C1500 0.930 . S
H1510 C1501 0.931 . S
H1511 C1502 0.930 . S
C1512 C1514 1.422 . S
C1512 C1516 1.415 . S
C1512 N1518 1.369 . S
C1513 C1514 1.421 . S
C1513 C1515 1.417 . S
C1513 C1525 1.422 . S
C1514 C1512 1.422 . S
C1514 C1513 1.421 . S
C1514 N1524 1.359 . S
C1515 C1513 1.417 . S
C1515 C1517 1.329 . S
C1515 H1534 0.930 . S
C1516 C1512 1.415 . S
C1516 C1517 1.437 . S
C1516 C1520 1.413 . S
C1517 C1515 1.329 . S
C1517 C1516 1.437 . S
C1517 H1539 0.929 . S
N1518 C1512 1.369 . S
N1518 C1519 1.338 . S
N1518 Gd1523 2.622 . S
C1519 N1518 1.338 . S
C1519 C1521 1.378 . S
C1519 H1531 0.929 . S
C1520 C1516 1.413 . S
C1520 C1521 1.348 . S
C1520 H1536 0.931 . S
C1521 C1519 1.378 . S
C1521 C1520 1.348 . S
C1521 H1537 0.930 . S
Gd1522 N1542 2.622 . S
Gd1522 N1549 2.570 . S
Gd1522 O1556 2.353 . S
Gd1522 O1557 2.468 . S
Gd1522 O1558 2.427 . S
Gd1522 O1560 2.388 . S
Gd1522 O1561 2.386 . S
Gd1522 O1565 2.307 . S
Gd1522 C1575 2.805 . S
Gd1523 N1518 2.622 . S
Gd1523 N1524 2.570 . S
Gd1523 O1555 2.386 . S
Gd1523 O1559 2.307 . S
Gd1523 O1562 2.353 . S
Gd1523 O1563 2.468 . S
Gd1523 O1564 2.427 . S
Gd1523 O1566 2.388 . S
Gd1523 C1587 2.805 . S
N1524 C1514 1.359 . S
N1524 Gd1523 2.570 . S
N1524 C1526 1.343 . S
C1525 C1513 1.422 . S
C1525 C1527 1.321 . S
C1525 H1533 0.931 . S
C1526 N1524 1.343 . S
C1526 C1527 1.390 . S
C1526 H1528 0.931 . S
C1527 C1525 1.321 . S
C1527 C1526 1.390 . S
C1527 H1529 0.930 . S
H1528 C1526 0.931 . S
H1529 C1527 0.930 . S
H1530 C1553 0.931 . S
H1531 C1519 0.929 . S
H1532 C1554 0.930 . S
H1533 C1525 0.931 . S
H1534 C1515 0.930 . S
H1535 C1544 0.929 . S
H1536 C1520 0.931 . S
H1537 C1521 0.930 . S
H1538 C1576 0.930 . S
H1539 C1517 0.929 . S
H1540 C1545 0.931 . S
H1541 C1546 0.930 . S
N1542 Gd1522 2.622 . S
N1542 C1543 1.369 . S
N1542 C1544 1.338 . S
C1543 N1542 1.369 . S
C1543 C1547 1.415 . S
C1543 C1550 1.422 . S
C1544 H1535 0.929 . S
C1544 N1542 1.338 . S
C1544 C1546 1.378 . S
C1545 H1540 0.931 . S
C1545 C1546 1.348 . S
C1545 C1547 1.413 . S
C1546 H1541 0.930 . S
C1546 C1544 1.378 . S
C1546 C1545 1.348 . S
C1547 C1543 1.415 . S
C1547 C1545 1.413 . S
C1547 C1577 1.437 . S
H1548 C1577 0.929 . S
N1549 Gd1522 2.570 . S
N1549 C1550 1.359 . S
N1549 C1553 1.343 . S
C1550 C1543 1.422 . S
C1550 N1549 1.359 . S
C1550 C1552 1.421 . S
C1551 C1552 1.422 . S
C1551 C1554 1.321 . S
C1551 H1578 0.931 . S
C1552 C1550 1.421 . S
C1552 C1551 1.422 . S
C1552 C1576 1.417 . S
C1553 H1530 0.931 . S
C1553 N1549 1.343 . S
C1553 C1554 1.390 . S
C1554 H1532 0.930 . S
C1554 C1551 1.321 . S
C1554 C1553 1.390 . S
O1555 Gd1523 2.386 . S
O1555 C1567 1.265 . S
O1556 Gd1522 2.353 . S
O1556 C1567 1.242 . S
O1557 Gd1522 2.468 . S
O1557 C1575 1.263 . S
O1558 Gd1522 2.427 . S
O1558 C1575 1.252 . S
O1559 Gd1523 2.307 . S
O1559 C1568 1.261 . S
O1560 Gd1522 2.388 . S
O1560 C1568 1.252 . S
O1561 Gd1522 2.386 . S
O1561 C1579 1.265 . S
O1562 Gd1523 2.353 . S
O1562 C1579 1.242 . S
O1563 Gd1523 2.468 . S
O1563 C1587 1.263 . S
O1564 Gd1523 2.427 . S
O1564 C1587 1.252 . S
O1565 Gd1522 2.307 . S
O1565 C1580 1.261 . S
O1566 Gd1523 2.388 . S
O1566 C1580 1.252 . S
C1567 O1555 1.265 . S
C1567 O1556 1.242 . S
C1568 O1559 1.261 . S
C1568 O1560 1.252 . S
C1569 C1572 1.394 . S
C1569 C1574 1.370 . S
C1569 C1575 1.500 . S
C1570 C1573 1.383 . S
C1570 C1574 1.395 . S
C1571 C1572 1.396 . S
C1571 C1573 1.365 . S
C1571 H1588 0.929 . S
C1572 C1569 1.394 . S
C1572 C1571 1.396 . S
C1572 H1589 0.930 . S
C1573 C1570 1.383 . S
C1573 C1571 1.365 . S
C1573 H1590 0.931 . S
C1574 C1569 1.370 . S
C1574 C1570 1.395 . S
C1574 H1591 0.930 . S
C1575 Gd1522 2.805 . S
C1575 O1557 1.263 . S
C1575 O1558 1.252 . S
C1575 C1569 1.500 . S
C1576 H1538 0.930 . S
C1576 C1552 1.417 . S
C1576 C1577 1.329 . S
C1577 C1547 1.437 . S
C1577 H1548 0.929 . S
C1577 C1576 1.329 . S
H1578 C1551 0.931 . S
C1579 O1561 1.265 . S
C1579 O1562 1.242 . S
C1580 O1565 1.261 . S
C1580 O1566 1.252 . S
C1581 C1584 1.394 . S
C1581 C1586 1.370 . S
C1581 C1587 1.500 . S
C1582 C1585 1.383 . S
C1582 C1586 1.395 . S
C1583 C1584 1.396 . S
C1583 C1585 1.365 . S
C1583 H1592 0.929 . S
C1584 C1581 1.394 . S
C1584 C1583 1.396 . S
C1584 H1593 0.930 . S
C1585 C1582 1.383 . S
C1585 C1583 1.365 . S
C1585 H1594 0.931 . S
C1586 C1581 1.370 . S
C1586 C1582 1.395 . S
C1586 H1595 0.930 . S
C1587 Gd1523 2.805 . S
C1587 O1563 1.263 . S
C1587 O1564 1.252 . S
C1587 C1581 1.500 . S
H1588 C1571 0.929 . S
H1589 C1572 0.930 . S
H1590 C1573 0.931 . S
H1591 C1574 0.930 . S
H1592 C1583 0.929 . S
H1593 C1584 0.930 . S
H1594 C1585 0.931 . S
H1595 C1586 0.930 . S
C1596 C1598 1.422 1_556 S
C1596 C1600 1.415 . S
C1596 N1602 1.369 . S
C1597 C1598 1.421 . S
C1597 C1599 1.417 1_554 S
C1597 C1609 1.422 . S
C1598 C1596 1.422 1_554 S
C1598 C1597 1.421 . S
C1598 N1608 1.359 . S
C1599 C1597 1.417 1_556 S
C1599 C1601 1.329 . S
C1599 H1618 0.930 1_556 S
C1600 C1596 1.415 . S
C1600 C1601 1.437 . S
C1600 C1604 1.413 . S
C1601 C1599 1.329 . S
C1601 C1600 1.437 . S
C1601 H1623 0.929 . S
N1602 C1596 1.369 . S
N1602 C1603 1.338 . S
N1602 Gd1607 2.622 1_556 S
C1603 N1602 1.338 . S
C1603 C1605 1.378 . S
C1603 H1615 0.929 . S
C1604 C1600 1.413 . S
C1604 C1605 1.348 . S
C1604 H1620 0.931 . S
C1605 C1603 1.378 . S
C1605 C1604 1.348 . S
C1605 H1621 0.930 . S
Gd1606 N1626 2.617 1_455 S
Gd1606 N1633 2.556 1_455 S
Gd1606 O1640 2.359 . S
Gd1606 O1641 2.448 1_455 S
Gd1606 O1642 2.411 1_455 S
Gd1606 O1644 2.404 . S
Gd1606 O1645 2.399 . S
Gd1606 O1649 2.310 . S
Gd1606 C1659 2.785 1_455 S
Gd1607 N1602 2.622 1_554 S
Gd1607 N1608 2.570 . S
Gd1607 O1639 2.386 . S
Gd1607 O1643 2.307 . S
Gd1607 O1646 2.353 . S
Gd1607 O1647 2.468 . S
Gd1607 O1648 2.427 1_554 S
Gd1607 O1650 2.388 1_554 S
Gd1607 C1671 2.805 . S
N1608 C1598 1.359 . S
N1608 Gd1607 2.570 . S
N1608 C1610 1.343 . S
C1609 C1597 1.422 . S
C1609 C1611 1.321 . S
C1609 H1617 0.931 . S
C1610 N1608 1.343 . S
C1610 C1611 1.390 . S
C1610 H1612 0.931 . S
C1611 C1609 1.321 . S
C1611 C1610 1.390 . S
C1611 H1613 0.930 . S
H1612 C1610 0.931 . S
H1613 C1611 0.930 . S
H1614 C1637 0.931 . S
H1615 C1603 0.929 . S
H1616 C1638 0.930 1_556 S
H1617 C1609 0.931 . S
H1618 C1599 0.930 1_554 S
H1619 C1628 0.929 . S
H1620 C1604 0.931 . S
H1621 C1605 0.930 . S
H1622 C1660 0.930 . S
H1623 C1601 0.929 . S
H1624 C1629 0.931 . S
H1625 C1630 0.930 1_455 S
N1626 Gd1606 2.617 1_655 S
N1626 C1627 1.369 . S
N1626 C1628 1.338 1_655 S
C1627 N1626 1.369 . S
C1627 C1631 1.415 . S
C1627 C1634 1.422 . S
C1628 H1619 0.929 . S
C1628 N1626 1.338 1_455 S
C1628 C1630 1.378 1_455 S
C1629 H1624 0.931 . S
C1629 C1630 1.348 . S
C1629 C1631 1.413 . S
C1630 H1625 0.930 1_655 S
C1630 C1628 1.378 1_655 S
C1630 C1629 1.348 . S
C1631 C1627 1.415 . S
C1631 C1629 1.413 . S
C1631 C1661 1.437 . S
H1632 C1661 0.929 . S
N1633 Gd1606 2.556 1_655 S
N1633 C1634 1.359 . S
N1633 C1637 1.343 . S
C1634 C1627 1.422 . S
C1634 N1633 1.359 . S
C1634 C1636 1.421 . S
C1635 C1636 1.422 . S
C1635 C1638 1.321 . S
C1635 H1662 0.931 . S
C1636 C1634 1.421 . S
C1636 C1635 1.422 . S
C1636 C1660 1.417 . S
C1637 H1614 0.931 . S
C1637 N1633 1.343 . S
C1637 C1638 1.390 . S
C1638 H1616 0.930 1_554 S
C1638 C1635 1.321 . S
C1638 C1637 1.390 . S
O1639 Gd1607 2.386 . S
O1639 C1651 1.265 . S
O1640 Gd1606 2.359 . S
O1640 C1651 1.242 . S
O1641 Gd1606 2.448 1_655 S
O1641 C1659 1.263 . S
O1642 Gd1606 2.411 1_655 S
O1642 C1659 1.252 . S
O1643 Gd1607 2.307 . S
O1643 C1652 1.261 . S
O1644 Gd1606 2.404 . S
O1644 C1652 1.252 . S
O1645 Gd1606 2.399 . S
O1645 C1663 1.265 . S
O1646 Gd1607 2.353 . S
O1646 C1663 1.242 . S
O1647 Gd1607 2.468 . S
O1647 C1671 1.263 . S
O1648 Gd1607 2.427 1_556 S
O1648 C1671 1.252 1_556 S
O1649 Gd1606 2.310 . S
O1649 C1664 1.263 1_554 S
O1650 Gd1607 2.388 1_556 S
O1650 C1664 1.252 . S
C1651 O1639 1.265 . S
C1651 O1640 1.242 . S
C1652 O1643 1.261 . S
C1652 O1644 1.252 . S
C1653 C1656 1.394 . S
C1653 C1658 1.370 . S
C1653 C1659 1.500 . S
C1654 C1657 1.383 . S
C1654 C1658 1.395 . S
C1655 C1656 1.396 . S
C1655 C1657 1.365 . S
C1655 H1672 0.929 . S
C1656 C1653 1.394 . S
C1656 C1655 1.396 . S
C1656 H1673 0.930 . S
C1657 C1654 1.383 . S
C1657 C1655 1.365 . S
C1657 H1674 0.931 . S
C1658 C1653 1.370 . S
C1658 C1654 1.395 . S
C1658 H1675 0.930 . S
C1659 Gd1606 2.785 1_655 S
C1659 O1641 1.263 . S
C1659 O1642 1.252 . S
C1659 C1653 1.500 . S
C1660 H1622 0.930 . S
C1660 C1636 1.417 . S
C1660 C1661 1.329 . S
C1661 C1631 1.437 . S
C1661 H1632 0.929 . S
C1661 C1660 1.329 . S
H1662 C1635 0.931 . S
C1663 O1645 1.265 . S
C1663 O1646 1.242 . S
C1664 O1649 1.263 1_556 S
C1664 O1650 1.252 . S
C1665 C1668 1.394 . S
C1665 C1670 1.370 1_556 S
C1665 C1671 1.500 1_556 S
C1666 C1669 1.383 1_554 S
C1666 C1670 1.395 . S
C1667 C1668 1.396 . S
C1667 C1669 1.365 . S
C1667 H1676 0.929 . S
C1668 C1665 1.394 . S
C1668 C1667 1.396 . S
C1668 H1677 0.930 . S
C1669 C1666 1.383 1_556 S
C1669 C1667 1.365 . S
C1669 H1678 0.931 . S
C1670 C1665 1.370 1_554 S
C1670 C1666 1.395 . S
C1670 H1679 0.930 . S
C1671 Gd1607 2.805 . S
C1671 O1647 1.263 . S
C1671 O1648 1.252 1_554 S
C1671 C1665 1.500 1_554 S
H1672 C1655 0.929 . S
H1673 C1656 0.930 . S
H1674 C1657 0.931 . S
H1675 C1658 0.930 . S
H1676 C1667 0.929 . S
H1677 C1668 0.930 . S
H1678 C1669 0.931 . S
H1679 C1670 0.930 . S
C1680 C1681 1.369 1_655 S
C1680 C1682 1.419 1_655 S
C1680 H1684 0.930 . S
C1681 C1680 1.369 1_455 S
C1681 C1690 1.416 1_554 S
C1682 C1680 1.419 1_455 S
C1682 C1683 1.363 . S
C1682 H1685 0.929 1_455 S
C1683 C1682 1.363 . S
C1683 C1689 1.428 . S
H1684 C1680 0.930 . S
H1685 C1682 0.929 1_655 S
S1686 N1687 1.613 . S
S1686 N1688 1.610 . S
N1687 S1686 1.613 . S
N1687 C1690 1.374 . S
N1688 S1686 1.610 . S
N1688 C1689 1.351 1_556 S
C1689 C1683 1.428 . S
C1689 N1688 1.351 1_554 S
C1689 C1690 1.425 1_554 S
C1690 C1681 1.416 1_556 S
C1690 N1687 1.374 . S
C1690 C1689 1.425 1_556 S
C1691 C1692 1.369 . S
C1691 C1693 1.419 . S
C1691 H1695 0.930 . S
C1692 C1691 1.369 . S
C1692 C1701 1.429 . S
C1693 C1691 1.419 . S
C1693 C1694 1.363 . S
C1693 H1696 0.929 . S
C1694 C1693 1.363 . S
C1694 C1700 1.428 . S
H1695 C1691 0.930 . S
H1696 C1693 0.929 . S
S1697 N1698 1.613 . S
S1697 N1699 1.610 . S
N1698 S1697 1.613 . S
N1698 C1701 1.350 . S
N1699 S1697 1.610 . S
N1699 C1700 1.351 . S
C1700 C1694 1.428 . S
C1700 N1699 1.351 . S
C1700 C1701 1.434 . S
C1701 C1692 1.429 . S
C1701 N1698 1.350 . S
C1701 C1700 1.434 . S
C1702 C1703 1.369 . S
C1702 C1704 1.419 . S
C1702 H1706 0.930 . S
C1703 C1702 1.369 . S
C1703 C1712 1.429 . S
C1704 C1702 1.419 . S
C1704 C1705 1.363 . S
C1704 H1707 0.929 . S
C1705 C1704 1.363 . S
C1705 C1711 1.428 . S
H1706 C1702 0.930 . S
H1707 C1704 0.929 . S
S1708 N1709 1.613 . S
S1708 N1710 1.610 . S
N1709 S1708 1.613 . S
N1709 C1712 1.350 . S
N1710 S1708 1.610 . S
N1710 C1711 1.351 . S
C1711 C1705 1.428 . S
C1711 N1710 1.351 . S
C1711 C1712 1.434 . S
C1712 C1703 1.429 . S
C1712 N1709 1.350 . S
C1712 C1711 1.434 . S
C1713 C1714 1.369 . S
C1713 C1715 1.419 . S
C1713 H1717 0.930 . S
C1714 C1713 1.369 . S
C1714 C1723 1.429 . S
C1715 C1713 1.419 . S
C1715 C1716 1.363 . S
C1715 H1718 0.929 . S
C1716 C1715 1.363 . S
C1716 C1722 1.428 . S
H1717 C1713 0.930 . S
H1718 C1715 0.929 . S
S1719 N1720 1.613 . S
S1719 N1721 1.610 . S
N1720 S1719 1.613 . S
N1720 C1723 1.350 . S
N1721 S1719 1.610 . S
N1721 C1722 1.351 . S
C1722 C1716 1.428 . S
C1722 N1721 1.351 . S
C1722 C1723 1.434 . S
C1723 C1714 1.429 . S
C1723 N1720 1.350 . S
C1723 C1722 1.434 . S
C1724 C1725 1.369 . S
C1724 C1726 1.419 . S
C1724 H1728 0.930 . S
C1725 C1724 1.369 . S
C1725 C1734 1.429 . S
C1726 C1724 1.419 . S
C1726 C1727 1.363 . S
C1726 H1729 0.929 . S
C1727 C1726 1.363 . S
C1727 C1733 1.428 . S
H1728 C1724 0.930 . S
H1729 C1726 0.929 . S
S1730 N1731 1.613 . S
S1730 N1732 1.610 . S
N1731 S1730 1.613 . S
N1731 C1734 1.350 . S
N1732 S1730 1.610 . S
N1732 C1733 1.351 . S
C1733 C1727 1.428 . S
C1733 N1732 1.351 . S
C1733 C1734 1.434 . S
C1734 C1725 1.429 . S
C1734 N1731 1.350 . S
C1734 C1733 1.434 . S
C1735 C1736 1.369 . S
C1735 C1737 1.419 . S
C1735 H1739 0.930 . S
C1736 C1735 1.369 . S
C1736 C1745 1.429 . S
C1737 C1735 1.419 . S
C1737 C1738 1.363 . S
C1737 H1740 0.929 . S
C1738 C1737 1.363 . S
C1738 C1744 1.428 . S
H1739 C1735 0.930 . S
H1740 C1737 0.929 . S
S1741 N1742 1.613 . S
S1741 N1743 1.610 . S
N1742 S1741 1.613 . S
N1742 C1745 1.350 . S
N1743 S1741 1.610 . S
N1743 C1744 1.351 . S
C1744 C1738 1.428 . S
C1744 N1743 1.351 . S
C1744 C1745 1.434 . S
C1745 C1736 1.429 . S
C1745 N1742 1.350 . S
C1745 C1744 1.434 . S
C1746 C1747 1.369 . S
C1746 C1748 1.419 . S
C1746 H1750 0.930 . S
C1747 C1746 1.369 . S
C1747 C1756 1.429 . S
C1748 C1746 1.419 . S
C1748 C1749 1.363 . S
C1748 H1751 0.929 . S
C1749 C1748 1.363 . S
C1749 C1755 1.428 . S
H1750 C1746 0.930 . S
H1751 C1748 0.929 . S
S1752 N1753 1.613 . S
S1752 N1754 1.610 . S
N1753 S1752 1.613 . S
N1753 C1756 1.350 . S
N1754 S1752 1.610 . S
N1754 C1755 1.351 . S
C1755 C1749 1.428 . S
C1755 N1754 1.351 . S
C1755 C1756 1.434 . S
C1756 C1747 1.429 . S
C1756 N1753 1.350 . S
C1756 C1755 1.434 . S
C1757 C1758 1.369 . S
C1757 C1759 1.419 . S
C1757 H1761 0.930 . S
C1758 C1757 1.369 . S
C1758 C1767 1.429 . S
C1759 C1757 1.419 . S
C1759 C1760 1.363 . S
C1759 H1762 0.929 . S
C1760 C1759 1.363 . S
C1760 C1766 1.428 . S
H1761 C1757 0.930 . S
H1762 C1759 0.929 . S
S1763 N1764 1.613 . S
S1763 N1765 1.610 . S
N1764 S1763 1.613 . S
N1764 C1767 1.350 . S
N1765 S1763 1.610 . S
N1765 C1766 1.351 . S
C1766 C1760 1.428 . S
C1766 N1765 1.351 . S
C1766 C1767 1.434 . S
C1767 C1758 1.429 . S
C1767 N1764 1.350 . S
C1767 C1766 1.434 . S
C1768 C1769 1.369 . S
C1768 C1770 1.419 . S
C1768 H1772 0.930 . S
C1769 C1768 1.369 . S
C1769 C1778 1.429 1_655 S
C1770 C1768 1.419 . S
C1770 C1771 1.363 1_655 S
C1770 H1773 0.929 . S
C1771 C1770 1.363 1_455 S
C1771 C1777 1.428 . S
H1772 C1768 0.930 . S
H1773 C1770 0.929 . S
S1774 N1775 1.613 . S
S1774 N1776 1.610 . S
N1775 S1774 1.613 . S
N1775 C1778 1.350 . S
N1776 S1774 1.610 . S
N1776 C1777 1.351 . S
C1777 C1771 1.428 . S
C1777 N1776 1.351 . S
C1777 C1778 1.434 . S
C1778 C1769 1.429 1_455 S
C1778 N1775 1.350 . S
C1778 C1777 1.434 . S
C1779 C1780 1.369 . S
C1779 C1781 1.419 . S
C1779 H1783 0.930 . S
C1780 C1779 1.369 . S
C1780 C1789 1.429 . S
C1781 C1779 1.419 . S
C1781 C1782 1.363 . S
C1781 H1784 0.929 . S
C1782 C1781 1.363 . S
C1782 C1788 1.428 . S
H1783 C1779 0.930 . S
H1784 C1781 0.929 . S
S1785 N1786 1.613 . S
S1785 N1787 1.610 . S
N1786 S1785 1.613 . S
N1786 C1789 1.350 . S
N1787 S1785 1.610 . S
N1787 C1788 1.351 . S
C1788 C1782 1.428 . S
C1788 N1787 1.351 . S
C1788 C1789 1.434 . S
C1789 C1780 1.429 . S
C1789 N1786 1.350 . S
C1789 C1788 1.434 . S
C1790 C1791 1.369 . S
C1790 C1792 1.419 . S
C1790 H1794 0.930 . S
C1791 C1790 1.369 . S
C1791 C1800 1.429 . S
C1792 C1790 1.419 . S
C1792 C1793 1.363 . S
C1792 H1795 0.929 . S
C1793 C1792 1.363 . S
C1793 C1799 1.428 . S
H1794 C1790 0.930 . S
H1795 C1792 0.929 . S
S1796 N1797 1.613 1_565 S
S1796 N1798 1.610 . S
N1797 S1796 1.613 1_545 S
N1797 C1800 1.350 . S
N1798 S1796 1.610 . S
N1798 C1799 1.351 1_565 S
C1799 C1793 1.428 . S
C1799 N1798 1.351 1_545 S
C1799 C1800 1.434 . S
C1800 C1791 1.429 . S
C1800 N1797 1.350 . S
C1800 C1799 1.434 . S
C1801 C1802 1.369 . S
C1801 C1803 1.419 . S
C1801 H1805 0.930 . S
C1802 C1801 1.369 . S
C1802 C1811 1.429 . S
C1803 C1801 1.419 . S
C1803 C1804 1.363 . S
C1803 H1806 0.929 . S
C1804 C1803 1.363 . S
C1804 C1810 1.428 . S
H1805 C1801 0.930 . S
H1806 C1803 0.929 . S
S1807 N1808 1.613 . S
S1807 N1809 1.610 . S
N1808 S1807 1.613 . S
N1808 C1811 1.350 . S
N1809 S1807 1.610 . S
N1809 C1810 1.351 . S
C1810 C1804 1.428 . S
C1810 N1809 1.351 . S
C1810 C1811 1.434 . S
C1811 C1802 1.429 . S
C1811 N1808 1.350 . S
C1811 C1810 1.434 . S
C1812 C1813 1.369 1_455 S
C1812 C1814 1.419 . S
C1812 H1816 0.930 . S
C1813 C1812 1.369 1_655 S
C1813 C1822 1.429 . S
C1814 C1812 1.419 . S
C1814 C1815 1.363 . S
C1814 H1817 0.929 . S
C1815 C1814 1.363 . S
C1815 C1821 1.428 1_455 S
H1816 C1812 0.930 . S
H1817 C1814 0.929 . S
S1818 N1819 1.613 . S
S1818 N1820 1.610 . S
N1819 S1818 1.613 . S
N1819 C1822 1.350 . S
N1820 S1818 1.610 . S
N1820 C1821 1.351 . S
C1821 C1815 1.428 1_655 S
C1821 N1820 1.351 . S
C1821 C1822 1.434 . S
C1822 C1813 1.429 . S
C1822 N1819 1.350 . S
C1822 C1821 1.434 . S
C1823 C1824 1.369 . S
C1823 C1825 1.419 . S
C1823 H1827 0.930 . S
C1824 C1823 1.369 . S
C1824 C1833 1.429 . S
C1825 C1823 1.419 . S
C1825 C1826 1.363 . S
C1825 H1828 0.929 . S
C1826 C1825 1.363 . S
C1826 C1832 1.428 . S
H1827 C1823 0.930 . S
H1828 C1825 0.929 . S
S1829 N1830 1.613 . S
S1829 N1831 1.610 . S
N1830 S1829 1.613 . S
N1830 C1833 1.350 . S
N1831 S1829 1.610 . S
N1831 C1832 1.351 . S
C1832 C1826 1.428 . S
C1832 N1831 1.351 . S
C1832 C1833 1.434 . S
C1833 C1824 1.429 . S
C1833 N1830 1.350 . S
C1833 C1832 1.434 . S
C1834 C1835 1.369 . S
C1834 C1836 1.419 . S
C1834 H1838 0.930 . S
C1835 C1834 1.369 . S
C1835 C1844 1.429 . S
C1836 C1834 1.419 . S
C1836 C1837 1.363 . S
C1836 H1839 0.929 . S
C1837 C1836 1.363 . S
C1837 C1843 1.428 . S
H1838 C1834 0.930 . S
H1839 C1836 0.929 . S
S1840 N1841 1.613 . S
S1840 N1842 1.610 . S
N1841 S1840 1.613 . S
N1841 C1844 1.350 . S
N1842 S1840 1.610 . S
N1842 C1843 1.351 . S
C1843 C1837 1.428 . S
C1843 N1842 1.351 . S
C1843 C1844 1.434 . S
C1844 C1835 1.429 . S
C1844 N1841 1.350 . S
C1844 C1843 1.434 . S
C1845 C1846 1.369 . S
C1845 C1847 1.419 . S
C1845 H1849 0.930 . S
C1846 C1845 1.369 . S
C1846 C1855 1.429 . S
C1847 C1845 1.419 . S
C1847 C1848 1.363 . S
C1847 H1850 0.929 . S
C1848 C1847 1.363 . S
C1848 C1854 1.428 . S
H1849 C1845 0.930 . S
H1850 C1847 0.929 . S
S1851 N1852 1.613 . S
S1851 N1853 1.610 . S
N1852 S1851 1.613 . S
N1852 C1855 1.350 . S
N1853 S1851 1.610 . S
N1853 C1854 1.351 . S
C1854 C1848 1.428 . S
C1854 N1853 1.351 . S
C1854 C1855 1.434 . S
C1855 C1846 1.429 . S
C1855 N1852 1.350 . S
C1855 C1854 1.434 . S
C1856 C1857 1.369 . S
C1856 C1858 1.419 1_565 S
C1856 H1860 0.930 . S
C1857 C1856 1.369 . S
C1857 C1866 1.429 1_554 S
C1858 C1856 1.419 1_545 S
C1858 C1859 1.363 . S
C1858 H1861 0.929 . S
C1859 C1858 1.363 . S
C1859 C1865 1.428 . S
H1860 C1856 0.930 . S
H1861 C1858 0.929 . S
S1862 N1863 1.613 1_545 S
S1862 N1864 1.610 . S
N1863 S1862 1.613 1_565 S
N1863 C1866 1.350 . S
N1864 S1862 1.610 . S
N1864 C1865 1.351 1_556 S
C1865 C1859 1.428 . S
C1865 N1864 1.351 1_554 S
C1865 C1866 1.434 1_544 S
C1866 C1857 1.429 1_556 S
C1866 N1863 1.350 . S
C1866 C1865 1.434 1_566 S
C1867 C1868 1.369 1_556 S
C1867 C1869 1.419 . S
C1867 H1871 0.930 . S
C1868 C1867 1.369 1_554 S
C1868 C1877 1.429 . S
C1869 C1867 1.419 . S
C1869 C1870 1.363 1_556 S
C1869 H1872 0.929 . S
C1870 C1869 1.363 1_554 S
C1870 C1876 1.428 . S
H1871 C1867 0.930 . S
H1872 C1869 0.929 . S
S1873 N1874 1.613 . S
S1873 N1875 1.610 . S
N1874 S1873 1.613 . S
N1874 C1877 1.350 . S
N1875 S1873 1.610 . S
N1875 C1876 1.351 . S
C1876 C1870 1.428 . S
C1876 N1875 1.351 . S
C1876 C1877 1.434 . S
C1877 C1868 1.429 . S
C1877 N1874 1.350 . S
C1877 C1876 1.434 . S
C1878 C1879 1.369 . S
C1878 C1880 1.419 . S
C1878 H1882 0.930 . S
C1879 C1878 1.369 . S
C1879 C1888 1.429 . S
C1880 C1878 1.419 . S
C1880 C1881 1.363 . S
C1880 H1883 0.929 . S
C1881 C1880 1.363 . S
C1881 C1887 1.428 . S
H1882 C1878 0.930 . S
H1883 C1880 0.929 . S
S1884 N1885 1.613 . S
S1884 N1886 1.610 . S
N1885 S1884 1.613 . S
N1885 C1888 1.350 . S
N1886 S1884 1.610 . S
N1886 C1887 1.351 . S
C1887 C1881 1.428 . S
C1887 N1886 1.351 . S
C1887 C1888 1.434 . S
C1888 C1879 1.429 . S
C1888 N1885 1.350 . S
C1888 C1887 1.434 . S
C1889 C1890 1.369 . S
C1889 C1891 1.419 . S
C1889 H1893 0.930 . S
C1890 C1889 1.369 . S
C1890 C1899 1.429 . S
C1891 C1889 1.419 . S
C1891 C1892 1.363 . S
C1891 H1894 0.929 . S
C1892 C1891 1.363 . S
C1892 C1898 1.428 . S
H1893 C1889 0.930 . S
H1894 C1891 0.929 . S
S1895 N1896 1.613 . S
S1895 N1897 1.610 . S
N1896 S1895 1.613 . S
N1896 C1899 1.350 . S
N1897 S1895 1.610 . S
N1897 C1898 1.351 . S
C1898 C1892 1.428 . S
C1898 N1897 1.351 . S
C1898 C1899 1.434 . S
C1899 C1890 1.429 . S
C1899 N1896 1.350 . S
C1899 C1898 1.434 . S
C1900 C1901 1.369 . S
C1900 C1902 1.419 . S
C1900 H1904 0.930 . S
C1901 C1900 1.369 . S
C1901 C1910 1.429 . S
C1902 C1900 1.419 . S
C1902 C1903 1.363 . S
C1902 H1905 0.929 . S
C1903 C1902 1.363 . S
C1903 C1909 1.428 . S
H1904 C1900 0.930 . S
H1905 C1902 0.929 . S
S1906 N1907 1.613 . S
S1906 N1908 1.610 . S
N1907 S1906 1.613 . S
N1907 C1910 1.350 . S
N1908 S1906 1.610 . S
N1908 C1909 1.351 . S
C1909 C1903 1.428 . S
C1909 N1908 1.351 . S
C1909 C1910 1.434 . S
C1910 C1901 1.429 . S
C1910 N1907 1.350 . S
C1910 C1909 1.434 . S
C1911 C1912 1.369 . S
C1911 C1913 1.419 . S
C1911 H1915 0.930 . S
C1912 C1911 1.369 . S
C1912 C1921 1.429 . S
C1913 C1911 1.419 . S
C1913 C1914 1.363 . S
C1913 H1916 0.929 . S
C1914 C1913 1.363 . S
C1914 C1920 1.428 . S
H1915 C1911 0.930 . S
H1916 C1913 0.929 . S
S1917 N1918 1.613 . S
S1917 N1919 1.610 . S
N1918 S1917 1.613 . S
N1918 C1921 1.350 . S
N1919 S1917 1.610 . S
N1919 C1920 1.351 . S
C1920 C1914 1.428 . S
C1920 N1919 1.351 . S
C1920 C1921 1.434 . S
C1921 C1912 1.429 . S
C1921 N1918 1.350 . S
C1921 C1920 1.434 . S
C1922 C1923 1.369 . S
C1922 C1924 1.419 . S
C1922 H1926 0.930 . S
C1923 C1922 1.369 . S
C1923 C1932 1.429 . S
C1924 C1922 1.419 . S
C1924 C1925 1.363 . S
C1924 H1927 0.929 . S
C1925 C1924 1.363 . S
C1925 C1931 1.428 . S
H1926 C1922 0.930 . S
H1927 C1924 0.929 . S
S1928 N1929 1.613 . S
S1928 N1930 1.610 . S
N1929 S1928 1.613 . S
N1929 C1932 1.350 . S
N1930 S1928 1.610 . S
N1930 C1931 1.351 . S
C1931 C1925 1.428 . S
C1931 N1930 1.351 . S
C1931 C1932 1.434 . S
C1932 C1923 1.429 . S
C1932 N1929 1.350 . S
C1932 C1931 1.434 . S
C1933 C1934 1.369 . S
C1933 C1935 1.419 . S
C1933 H1937 0.930 . S
C1934 C1933 1.369 . S
C1934 C1943 1.429 . S
C1935 C1933 1.419 . S
C1935 C1936 1.363 . S
C1935 H1938 0.929 . S
C1936 C1935 1.363 . S
C1936 C1942 1.428 . S
H1937 C1933 0.930 . S
H1938 C1935 0.929 . S
S1939 N1940 1.613 . S
S1939 N1941 1.610 . S
N1940 S1939 1.613 . S
N1940 C1943 1.350 . S
N1941 S1939 1.610 . S
N1941 C1942 1.351 . S
C1942 C1936 1.428 . S
C1942 N1941 1.351 . S
C1942 C1943 1.434 . S
C1943 C1934 1.429 . S
C1943 N1940 1.350 . S
C1943 C1942 1.434 . S
C1944 C1945 1.369 . S
C1944 C1946 1.419 . S
C1944 H1948 0.930 . S
C1945 C1944 1.369 . S
C1945 C1954 1.429 . S
C1946 C1944 1.419 . S
C1946 C1947 1.363 . S
C1946 H1949 0.929 . S
C1947 C1946 1.363 . S
C1947 C1953 1.428 . S
H1948 C1944 0.930 . S
H1949 C1946 0.929 . S
S1950 N1951 1.613 . S
S1950 N1952 1.610 . S
N1951 S1950 1.613 . S
N1951 C1954 1.350 . S
N1952 S1950 1.610 . S
N1952 C1953 1.351 . S
C1953 C1947 1.428 . S
C1953 N1952 1.351 . S
C1953 C1954 1.434 . S
C1954 C1945 1.429 . S
C1954 N1951 1.350 . S
C1954 C1953 1.434 . S
C1955 C1956 1.369 . S
C1955 C1957 1.419 . S
C1955 H1959 0.930 . S
C1956 C1955 1.369 . S
C1956 C1965 1.429 . S
C1957 C1955 1.419 . S
C1957 C1958 1.363 . S
C1957 H1960 0.929 . S
C1958 C1957 1.363 . S
C1958 C1964 1.428 . S
H1959 C1955 0.930 . S
H1960 C1957 0.929 . S
S1961 N1962 1.613 . S
S1961 N1963 1.610 . S
N1962 S1961 1.613 . S
N1962 C1965 1.350 . S
N1963 S1961 1.610 . S
N1963 C1964 1.351 . S
C1964 C1958 1.428 . S
C1964 N1963 1.351 . S
C1964 C1965 1.434 . S
C1965 C1956 1.429 . S
C1965 N1962 1.350 . S
C1965 C1964 1.434 . S
C1966 C1967 1.369 . S
C1966 C1968 1.419 . S
C1966 H1970 0.930 . S
C1967 C1966 1.369 . S
C1967 C1976 1.429 . S
C1968 C1966 1.419 . S
C1968 C1969 1.363 . S
C1968 H1971 0.929 . S
C1969 C1968 1.363 . S
C1969 C1975 1.428 . S
H1970 C1966 0.930 . S
H1971 C1968 0.929 . S
S1972 N1973 1.613 . S
S1972 N1974 1.610 . S
N1973 S1972 1.613 . S
N1973 C1976 1.350 . S
N1974 S1972 1.610 . S
N1974 C1975 1.351 . S
C1975 C1969 1.428 . S
C1975 N1974 1.351 . S
C1975 C1976 1.434 . S
C1976 C1967 1.429 . S
C1976 N1973 1.350 . S
C1976 C1975 1.434 . S
C1977 C1978 1.369 . S
C1977 C1979 1.419 . S
C1977 H1981 0.930 . S
C1978 C1977 1.369 . S
C1978 C1987 1.429 . S
C1979 C1977 1.419 . S
C1979 C1980 1.363 . S
C1979 H1982 0.929 . S
C1980 C1979 1.363 . S
C1980 C1986 1.428 . S
H1981 C1977 0.930 . S
H1982 C1979 0.929 . S
S1983 N1984 1.613 . S
S1983 N1985 1.610 . S
N1984 S1983 1.613 . S
N1984 C1987 1.350 . S
N1985 S1983 1.610 . S
N1985 C1986 1.351 . S
C1986 C1980 1.428 . S
C1986 N1985 1.351 . S
C1986 C1987 1.434 . S
C1987 C1978 1.429 . S
C1987 N1984 1.350 . S
C1987 C1986 1.434 . S
C1988 C1989 1.369 . S
C1988 C1990 1.419 . S
C1988 H1992 0.930 . S
C1989 C1988 1.369 . S
C1989 C1998 1.429 . S
C1990 C1988 1.419 . S
C1990 C1991 1.363 . S
C1990 H1993 0.929 1_455 S
C1991 C1990 1.363 . S
C1991 C1997 1.428 . S
H1992 C1988 0.930 . S
H1993 C1990 0.929 1_655 S
S1994 N1995 1.613 . S
S1994 N1996 1.610 . S
N1995 S1994 1.613 . S
N1995 C1998 1.350 . S
N1996 S1994 1.610 . S
N1996 C1997 1.351 . S
C1997 C1991 1.428 . S
C1997 N1996 1.351 . S
C1997 C1998 1.434 . S
C1998 C1989 1.429 . S
C1998 N1995 1.350 . S
C1998 C1997 1.434 . S
C1999 C2000 1.369 . S
C1999 C2001 1.419 . S
C1999 H2003 0.930 . S
C2000 C1999 1.369 . S
C2000 C2009 1.429 . S
C2001 C1999 1.419 . S
C2001 C2002 1.363 . S
C2001 H2004 0.929 . S
C2002 C2001 1.363 . S
C2002 C2008 1.428 . S
H2003 C1999 0.930 . S
H2004 C2001 0.929 . S
S2005 N2006 1.613 . S
S2005 N2007 1.610 . S
N2006 S2005 1.613 . S
N2006 C2009 1.350 . S
N2007 S2005 1.610 . S
N2007 C2008 1.351 . S
C2008 C2002 1.428 . S
C2008 N2007 1.351 . S
C2008 C2009 1.434 . S
C2009 C2000 1.429 . S
C2009 N2006 1.350 . S
C2009 C2008 1.434 . S
C2010 C2011 1.369 . S
C2010 C2012 1.419 . S
C2010 H2014 0.930 . S
C2011 C2010 1.369 . S
C2011 C2020 1.429 . S
C2012 C2010 1.419 . S
C2012 C2013 1.363 . S
C2012 H2015 0.929 . S
C2013 C2012 1.363 . S
C2013 C2019 1.428 . S
H2014 C2010 0.930 . S
H2015 C2012 0.929 . S
S2016 N2017 1.613 1_554 S
S2016 N2018 1.610 . S
N2017 S2016 1.613 1_556 S
N2017 C2020 1.350 . S
N2018 S2016 1.610 . S
N2018 C2019 1.351 1_554 S
C2019 C2013 1.428 . S
C2019 N2018 1.351 1_556 S
C2019 C2020 1.434 . S
C2020 C2011 1.429 . S
C2020 N2017 1.350 . S
C2020 C2019 1.434 . S
C2021 C2022 1.369 . S
C2021 C2023 1.419 . S
C2021 H2025 0.930 . S
C2022 C2021 1.369 . S
C2022 C2031 1.429 . S
C2023 C2021 1.419 . S
C2023 C2024 1.363 . S
C2023 H2026 0.929 . S
C2024 C2023 1.363 . S
C2024 C2030 1.428 . S
H2025 C2021 0.930 . S
H2026 C2023 0.929 . S
S2027 N2028 1.613 . S
S2027 N2029 1.610 . S
N2028 S2027 1.613 . S
N2028 C2031 1.350 . S
N2029 S2027 1.610 . S
N2029 C2030 1.351 . S
C2030 C2024 1.428 . S
C2030 N2029 1.351 . S
C2030 C2031 1.434 . S
C2031 C2022 1.429 . S
C2031 N2028 1.350 . S
C2031 C2030 1.434 . S
C2032 C2033 1.369 . S
C2032 C2034 1.419 . S
C2032 H2036 0.930 . S
C2033 C2032 1.369 . S
C2033 C2042 1.429 . S
C2034 C2032 1.419 . S
C2034 C2035 1.363 . S
C2034 H2037 0.929 . S
C2035 C2034 1.363 . S
C2035 C2041 1.428 . S
H2036 C2032 0.930 . S
H2037 C2034 0.929 . S
S2038 N2039 1.613 . S
S2038 N2040 1.610 . S
N2039 S2038 1.613 . S
N2039 C2042 1.350 . S
N2040 S2038 1.610 . S
N2040 C2041 1.351 . S
C2041 C2035 1.428 . S
C2041 N2040 1.351 . S
C2041 C2042 1.434 . S
C2042 C2033 1.429 . S
C2042 N2039 1.350 . S
C2042 C2041 1.434 . S
C2043 C2044 1.369 . S
C2043 C2045 1.419 . S
C2043 H2047 0.930 . S
C2044 C2043 1.369 . S
C2044 C2053 1.429 . S
C2045 C2043 1.419 . S
C2045 C2046 1.363 . S
C2045 H2048 0.929 . S
C2046 C2045 1.363 . S
C2046 C2052 1.428 . S
H2047 C2043 0.930 . S
H2048 C2045 0.929 . S
S2049 N2050 1.613 . S
S2049 N2051 1.610 . S
N2050 S2049 1.613 . S
N2050 C2053 1.350 . S
N2051 S2049 1.610 . S
N2051 C2052 1.351 . S
C2052 C2046 1.428 . S
C2052 N2051 1.351 . S
C2052 C2053 1.434 . S
C2053 C2044 1.429 . S
C2053 N2050 1.350 . S
C2053 C2052 1.434 . S
C2054 C2055 1.369 . S
C2054 C2056 1.419 . S
C2054 H2058 0.930 1_545 S
C2055 C2054 1.369 . S
C2055 C2064 1.429 . S
C2056 C2054 1.419 . S
C2056 C2057 1.363 . S
C2056 H2059 0.929 . S
C2057 C2056 1.363 . S
C2057 C2063 1.428 . S
H2058 C2054 0.930 1_565 S
H2059 C2056 0.929 . S
S2060 N2061 1.613 . S
S2060 N2062 1.610 . S
N2061 S2060 1.613 . S
N2061 C2064 1.350 . S
N2062 S2060 1.610 . S
N2062 C2063 1.351 . S
C2063 C2057 1.428 . S
C2063 N2062 1.351 . S
C2063 C2064 1.434 . S
C2064 C2055 1.429 . S
C2064 N2061 1.350 . S
C2064 C2063 1.434 . S
C2065 C2066 1.369 . S
C2065 C2067 1.419 . S
C2065 H2069 0.930 . S
C2066 C2065 1.369 . S
C2066 C2075 1.429 . S
C2067 C2065 1.419 . S
C2067 C2068 1.363 . S
C2067 H2070 0.929 . S
C2068 C2067 1.363 . S
C2068 C2074 1.428 . S
H2069 C2065 0.930 . S
H2070 C2067 0.929 . S
S2071 N2072 1.613 . S
S2071 N2073 1.610 . S
N2072 S2071 1.613 . S
N2072 C2075 1.350 . S
N2073 S2071 1.610 . S
N2073 C2074 1.351 . S
C2074 C2068 1.428 . S
C2074 N2073 1.351 . S
C2074 C2075 1.434 . S
C2075 C2066 1.429 . S
C2075 N2072 1.350 . S
C2075 C2074 1.434 . S
C2076 C2077 1.369 . S
C2076 C2078 1.419 . S
C2076 H2080 0.930 . S
C2077 C2076 1.369 . S
C2077 C2086 1.429 . S
C2078 C2076 1.419 . S
C2078 C2079 1.363 . S
C2078 H2081 0.929 . S
C2079 C2078 1.363 . S
C2079 C2085 1.428 . S
H2080 C2076 0.930 . S
H2081 C2078 0.929 . S
S2082 N2083 1.613 . S
S2082 N2084 1.610 . S
N2083 S2082 1.613 . S
N2083 C2086 1.350 1_565 S
N2084 S2082 1.610 . S
N2084 C2085 1.351 1_565 S
C2085 C2079 1.428 . S
C2085 N2084 1.351 1_545 S
C2085 C2086 1.434 . S
C2086 C2077 1.429 . S
C2086 N2083 1.350 1_545 S
C2086 C2085 1.434 . S
C2087 C2088 1.369 . S
C2087 C2089 1.419 . S
C2087 H2091 0.930 . S
C2088 C2087 1.369 . S
C2088 C2097 1.429 . S
C2089 C2087 1.419 . S
C2089 C2090 1.363 . S
C2089 H2092 0.929 . S
C2090 C2089 1.363 . S
C2090 C2096 1.428 . S
H2091 C2087 0.930 . S
H2092 C2089 0.929 . S
S2093 N2094 1.613 . S
S2093 N2095 1.610 . S
N2094 S2093 1.613 . S
N2094 C2097 1.350 . S
N2095 S2093 1.610 . S
N2095 C2096 1.351 . S
C2096 C2090 1.428 . S
C2096 N2095 1.351 . S
C2096 C2097 1.434 . S
C2097 C2088 1.429 . S
C2097 N2094 1.350 . S
C2097 C2096 1.434 . S
C2098 C2099 1.369 . S
C2098 C2100 1.419 . S
C2098 H2102 0.930 . S
C2099 C2098 1.369 . S
C2099 C2108 1.429 1_545 S
C2100 C2098 1.419 . S
C2100 C2101 1.363 . S
C2100 H2103 0.929 . S
C2101 C2100 1.363 . S
C2101 C2107 1.428 1_545 S
H2102 C2098 0.930 . S
H2103 C2100 0.929 . S
S2104 N2105 1.613 . S
S2104 N2106 1.610 . S
N2105 S2104 1.613 . S
N2105 C2108 1.350 . S
N2106 S2104 1.610 . S
N2106 C2107 1.351 . S
C2107 C2101 1.428 1_565 S
C2107 N2106 1.351 . S
C2107 C2108 1.434 . S
C2108 C2099 1.429 1_565 S
C2108 N2105 1.350 . S
C2108 C2107 1.434 . S
C2109 C2110 1.369 . S
C2109 C2111 1.419 . S
C2109 H2113 0.930 . S
C2110 C2109 1.369 . S
C2110 C2119 1.429 . S
C2111 C2109 1.419 . S
C2111 C2112 1.363 . S
C2111 H2114 0.929 . S
C2112 C2111 1.363 . S
C2112 C2118 1.428 . S
H2113 C2109 0.930 . S
H2114 C2111 0.929 . S
S2115 N2116 1.613 . S
S2115 N2117 1.610 . S
N2116 S2115 1.613 . S
N2116 C2119 1.350 . S
N2117 S2115 1.610 . S
N2117 C2118 1.351 . S
C2118 C2112 1.428 . S
C2118 N2117 1.351 . S
C2118 C2119 1.434 . S
C2119 C2110 1.429 . S
C2119 N2116 1.350 . S
C2119 C2118 1.434 . S
C2120 C2121 1.369 . S
C2120 C2122 1.419 . S
C2120 H2124 0.930 . S
C2121 C2120 1.369 . S
C2121 C2130 1.429 . S
C2122 C2120 1.419 . S
C2122 C2123 1.363 . S
C2122 H2125 0.929 . S
C2123 C2122 1.363 . S
C2123 C2129 1.428 . S
H2124 C2120 0.930 . S
H2125 C2122 0.929 . S
S2126 N2127 1.613 . S
S2126 N2128 1.610 . S
N2127 S2126 1.613 . S
N2127 C2130 1.350 . S
N2128 S2126 1.610 . S
N2128 C2129 1.351 . S
C2129 C2123 1.428 . S
C2129 N2128 1.351 . S
C2129 C2130 1.434 . S
C2130 C2121 1.429 . S
C2130 N2127 1.350 . S
C2130 C2129 1.434 . S
C2131 C2132 1.369 . S
C2131 C2133 1.419 . S
C2131 H2135 0.930 . S
C2132 C2131 1.369 . S
C2132 C2141 1.429 . S
C2133 C2131 1.419 . S
C2133 C2134 1.363 . S
C2133 H2136 0.929 . S
C2134 C2133 1.363 . S
C2134 C2140 1.428 . S
H2135 C2131 0.930 . S
H2136 C2133 0.929 . S
S2137 N2138 1.613 . S
S2137 N2139 1.610 . S
N2138 S2137 1.613 . S
N2138 C2141 1.350 . S
N2139 S2137 1.610 . S
N2139 C2140 1.351 . S
C2140 C2134 1.428 . S
C2140 N2139 1.351 . S
C2140 C2141 1.434 . S
C2141 C2132 1.429 . S
C2141 N2138 1.350 . S
C2141 C2140 1.434 . S
C2142 C2143 1.369 . S
C2142 C2144 1.419 . S
C2142 H2146 0.930 . S
C2143 C2142 1.369 . S
C2143 C2152 1.429 . S
C2144 C2142 1.419 . S
C2144 C2145 1.363 . S
C2144 H2147 0.929 . S
C2145 C2144 1.363 . S
C2145 C2151 1.428 . S
H2146 C2142 0.930 . S
H2147 C2144 0.929 . S
S2148 N2149 1.613 . S
S2148 N2150 1.610 . S
N2149 S2148 1.613 . S
N2149 C2152 1.350 . S
N2150 S2148 1.610 . S
N2150 C2151 1.351 . S
C2151 C2145 1.428 . S
C2151 N2150 1.351 . S
C2151 C2152 1.434 . S
C2152 C2143 1.429 . S
C2152 N2149 1.350 . S
C2152 C2151 1.434 . S
C2153 C2154 1.369 . S
C2153 C2155 1.419 . S
C2153 H2157 0.930 . S
C2154 C2153 1.369 . S
C2154 C2163 1.429 . S
C2155 C2153 1.419 . S
C2155 C2156 1.363 . S
C2155 H2158 0.929 . S
C2156 C2155 1.363 . S
C2156 C2162 1.428 . S
H2157 C2153 0.930 . S
H2158 C2155 0.929 . S
S2159 N2160 1.613 . S
S2159 N2161 1.610 . S
N2160 S2159 1.613 . S
N2160 C2163 1.350 . S
N2161 S2159 1.610 . S
N2161 C2162 1.351 . S
C2162 C2156 1.428 . S
C2162 N2161 1.351 . S
C2162 C2163 1.434 . S
C2163 C2154 1.429 . S
C2163 N2160 1.350 . S
C2163 C2162 1.434 . S
C2164 C2165 1.373 . S
C2164 C2166 1.410 1_545 S
C2164 H2168 0.935 . S
C2165 C2164 1.373 . S
C2165 C2174 1.409 1_545 S
C2166 C2164 1.410 1_565 S
C2166 C2167 1.363 . S
C2166 H2169 0.929 . S
C2167 C2166 1.363 . S
C2167 C2173 1.428 . S
H2168 C2164 0.935 . S
H2169 C2166 0.929 . S
S2170 N2171 1.613 1_565 S
S2170 N2172 1.610 . S
N2171 S2170 1.613 1_545 S
N2171 C2174 1.343 1_545 S
N2172 S2170 1.610 . S
N2172 C2173 1.351 . S
C2173 C2167 1.428 . S
C2173 N2172 1.351 . S
C2173 C2174 1.466 . S
C2174 C2165 1.409 1_565 S
C2174 N2171 1.343 1_565 S
C2174 C2173 1.466 . S
C2175 C2176 1.369 . S
C2175 C2177 1.419 . S
C2175 H2179 0.930 . S
C2176 C2175 1.369 . S
C2176 C2185 1.429 . S
C2177 C2175 1.419 . S
C2177 C2178 1.363 . S
C2177 H2180 0.929 . S
C2178 C2177 1.363 . S
C2178 C2184 1.428 . S
H2179 C2175 0.930 . S
H2180 C2177 0.929 . S
S2181 N2182 1.613 . S
S2181 N2183 1.610 . S
N2182 S2181 1.613 . S
N2182 C2185 1.350 . S
N2183 S2181 1.610 . S
N2183 C2184 1.351 . S
C2184 C2178 1.428 . S
C2184 N2183 1.351 . S
C2184 C2185 1.434 . S
C2185 C2176 1.429 . S
C2185 N2182 1.350 . S
C2185 C2184 1.434 . S
C2186 C2187 1.369 . S
C2186 C2188 1.419 . S
C2186 H2190 0.930 . S
C2187 C2186 1.369 . S
C2187 C2196 1.429 . S
C2188 C2186 1.419 . S
C2188 C2189 1.363 . S
C2188 H2191 0.929 . S
C2189 C2188 1.363 . S
C2189 C2195 1.428 . S
H2190 C2186 0.930 . S
H2191 C2188 0.929 . S
S2192 N2193 1.613 . S
S2192 N2194 1.610 . S
N2193 S2192 1.613 . S
N2193 C2196 1.350 . S
N2194 S2192 1.610 . S
N2194 C2195 1.351 . S
C2195 C2189 1.428 . S
C2195 N2194 1.351 . S
C2195 C2196 1.434 . S
C2196 C2187 1.429 . S
C2196 N2193 1.350 . S
C2196 C2195 1.434 . S
C2197 C2198 1.369 . S
C2197 C2199 1.419 . S
C2197 H2201 0.930 . S
C2198 C2197 1.369 . S
C2198 C2207 1.429 . S
C2199 C2197 1.419 . S
C2199 C2200 1.363 . S
C2199 H2202 0.929 . S
C2200 C2199 1.363 . S
C2200 C2206 1.428 . S
H2201 C2197 0.930 . S
H2202 C2199 0.929 . S
S2203 N2204 1.613 . S
S2203 N2205 1.610 . S
N2204 S2203 1.613 . S
N2204 C2207 1.350 . S
N2205 S2203 1.610 . S
N2205 C2206 1.351 . S
C2206 C2200 1.428 . S
C2206 N2205 1.351 . S
C2206 C2207 1.434 . S
C2207 C2198 1.429 . S
C2207 N2204 1.350 . S
C2207 C2206 1.434 . S
C2208 C2209 1.369 . S
C2208 C2210 1.419 . S
C2208 H2212 0.930 . S
C2209 C2208 1.369 . S
C2209 C2218 1.429 . S
C2210 C2208 1.419 . S
C2210 C2211 1.363 . S
C2210 H2213 0.929 . S
C2211 C2210 1.363 . S
C2211 C2217 1.428 . S
H2212 C2208 0.930 . S
H2213 C2210 0.929 . S
S2214 N2215 1.613 . S
S2214 N2216 1.610 . S
N2215 S2214 1.613 . S
N2215 C2218 1.350 . S
N2216 S2214 1.610 . S
N2216 C2217 1.351 . S
C2217 C2211 1.428 . S
C2217 N2216 1.351 . S
C2217 C2218 1.434 . S
C2218 C2209 1.429 . S
C2218 N2215 1.350 . S
C2218 C2217 1.434 . S
C2219 C2220 1.369 . S
C2219 C2221 1.419 . S
C2219 H2223 0.930 . S
C2220 C2219 1.369 . S
C2220 C2229 1.429 . S
C2221 C2219 1.419 . S
C2221 C2222 1.363 . S
C2221 H2224 0.929 . S
C2222 C2221 1.363 . S
C2222 C2228 1.428 . S
H2223 C2219 0.930 . S
H2224 C2221 0.929 . S
S2225 N2226 1.613 . S
S2225 N2227 1.610 . S
N2226 S2225 1.613 . S
N2226 C2229 1.350 . S
N2227 S2225 1.610 . S
N2227 C2228 1.351 . S
C2228 C2222 1.428 . S
C2228 N2227 1.351 . S
C2228 C2229 1.434 . S
C2229 C2220 1.429 . S
C2229 N2226 1.350 . S
C2229 C2228 1.434 . S
C2230 C2231 1.369 1_556 S
C2230 C2232 1.419 . S
C2230 H2234 0.930 . S
C2231 C2230 1.369 1_554 S
C2231 C2240 1.429 . S
C2232 C2230 1.419 . S
C2232 C2233 1.363 1_556 S
C2232 H2235 0.929 . S
C2233 C2232 1.363 1_554 S
C2233 C2239 1.428 . S
H2234 C2230 0.930 . S
H2235 C2232 0.929 . S
S2236 N2237 1.613 . S
S2236 N2238 1.610 . S
N2237 S2236 1.613 . S
N2237 C2240 1.350 1_655 S
N2238 S2236 1.610 . S
N2238 C2239 1.351 1_655 S
C2239 C2233 1.428 . S
C2239 N2238 1.351 1_455 S
C2239 C2240 1.434 . S
C2240 C2231 1.429 . S
C2240 N2237 1.350 1_455 S
C2240 C2239 1.434 . S
C2241 C2242 1.369 . S
C2241 C2243 1.419 1_455 S
C2241 H2245 0.930 . S
C2242 C2241 1.369 . S
C2242 C2251 1.429 1_455 S
C2243 C2241 1.419 1_655 S
C2243 C2244 1.363 . S
C2243 H2246 0.929 . S
C2244 C2243 1.363 . S
C2244 C2250 1.428 . S
H2245 C2241 0.930 . S
H2246 C2243 0.929 . S
S2247 N2248 1.613 . S
S2247 N2249 1.610 . S
N2248 S2247 1.613 . S
N2248 C2251 1.350 . S
N2249 S2247 1.610 . S
N2249 C2250 1.351 . S
C2250 C2244 1.428 . S
C2250 N2249 1.351 . S
C2250 C2251 1.434 . S
C2251 C2242 1.429 1_655 S
C2251 N2248 1.350 . S
C2251 C2250 1.434 . S
C2252 C2253 1.369 . S
C2252 C2254 1.419 . S
C2252 H2256 0.930 . S
C2253 C2252 1.369 . S
C2253 C2262 1.429 . S
C2254 C2252 1.419 . S
C2254 C2255 1.363 . S
C2254 H2257 0.929 . S
C2255 C2254 1.363 . S
C2255 C2261 1.428 . S
H2256 C2252 0.930 . S
H2257 C2254 0.929 . S
S2258 N2259 1.613 . S
S2258 N2260 1.610 . S
N2259 S2258 1.613 . S
N2259 C2262 1.350 . S
N2260 S2258 1.610 . S
N2260 C2261 1.351 . S
C2261 C2255 1.428 . S
C2261 N2260 1.351 . S
C2261 C2262 1.434 . S
C2262 C2253 1.429 . S
C2262 N2259 1.350 . S
C2262 C2261 1.434 . S
C2263 C2264 1.369 . S
C2263 C2265 1.419 . S
C2263 H2267 0.930 . S
C2264 C2263 1.369 . S
C2264 C2273 1.429 . S
C2265 C2263 1.419 . S
C2265 C2266 1.363 . S
C2265 H2268 0.929 . S
C2266 C2265 1.363 . S
C2266 C2272 1.428 . S
H2267 C2263 0.930 . S
H2268 C2265 0.929 . S
S2269 N2270 1.613 . S
S2269 N2271 1.610 . S
N2270 S2269 1.613 . S
N2270 C2273 1.350 . S
N2271 S2269 1.610 . S
N2271 C2272 1.351 . S
C2272 C2266 1.428 . S
C2272 N2271 1.351 . S
C2272 C2273 1.434 . S
C2273 C2264 1.429 . S
C2273 N2270 1.350 . S
C2273 C2272 1.434 . S
C2274 C2275 1.369 . S
C2274 C2276 1.419 . S
C2274 H2278 0.930 1_455 S
C2275 C2274 1.369 . S
C2275 C2284 1.429 . S
C2276 C2274 1.419 . S
C2276 C2277 1.363 . S
C2276 H2279 0.929 . S
C2277 C2276 1.363 . S
C2277 C2283 1.428 . S
H2278 C2274 0.930 1_655 S
H2279 C2276 0.929 . S
S2280 N2281 1.613 . S
S2280 N2282 1.610 . S
N2281 S2280 1.613 . S
N2281 C2284 1.350 . S
N2282 S2280 1.610 . S
N2282 C2283 1.351 . S
C2283 C2277 1.428 . S
C2283 N2282 1.351 . S
C2283 C2284 1.434 . S
C2284 C2275 1.429 . S
C2284 N2281 1.350 . S
C2284 C2283 1.434 . S
C2285 C2286 1.369 . S
C2285 C2287 1.419 . S
C2285 H2289 0.930 . S
C2286 C2285 1.369 . S
C2286 C2295 1.429 . S
C2287 C2285 1.419 . S
C2287 C2288 1.363 . S
C2287 H2290 0.929 . S
C2288 C2287 1.363 . S
C2288 C2294 1.428 . S
H2289 C2285 0.930 . S
H2290 C2287 0.929 . S
S2291 N2292 1.613 . S
S2291 N2293 1.610 . S
N2292 S2291 1.613 . S
N2292 C2295 1.350 . S
N2293 S2291 1.610 . S
N2293 C2294 1.351 . S
C2294 C2288 1.428 . S
C2294 N2293 1.351 . S
C2294 C2295 1.434 . S
C2295 C2286 1.429 . S
C2295 N2292 1.350 . S
C2295 C2294 1.434 . S
C2296 C2297 1.369 . S
C2296 C2298 1.419 . S
C2296 H2300 0.930 . S
C2297 C2296 1.369 . S
C2297 C2306 1.429 . S
C2298 C2296 1.419 . S
C2298 C2299 1.363 . S
C2298 H2301 0.929 . S
C2299 C2298 1.363 . S
C2299 C2305 1.428 . S
H2300 C2296 0.930 . S
H2301 C2298 0.929 . S
S2302 N2303 1.613 . S
S2302 N2304 1.610 . S
N2303 S2302 1.613 . S
N2303 C2306 1.350 . S
N2304 S2302 1.610 . S
N2304 C2305 1.351 . S
C2305 C2299 1.428 . S
C2305 N2304 1.351 . S
C2305 C2306 1.434 . S
C2306 C2297 1.429 . S
C2306 N2303 1.350 . S
C2306 C2305 1.434 . S
C2307 C2308 1.369 1_556 S
C2307 C2309 1.419 . S
C2307 H2311 0.930 . S
C2308 C2307 1.369 1_554 S
C2308 C2317 1.429 . S
C2309 C2307 1.419 . S
C2309 C2310 1.363 . S
C2309 H2312 0.929 . S
C2310 C2309 1.363 . S
C2310 C2316 1.428 . S
H2311 C2307 0.930 . S
H2312 C2309 0.929 . S
S2313 N2314 1.613 . S
S2313 N2315 1.610 . S
N2314 S2313 1.613 . S
N2314 C2317 1.350 . S
N2315 S2313 1.610 . S
N2315 C2316 1.351 1_554 S
C2316 C2310 1.428 . S
C2316 N2315 1.351 1_556 S
C2316 C2317 1.434 1_556 S
C2317 C2308 1.429 . S
C2317 N2314 1.350 . S
C2317 C2316 1.434 1_554 S
C2318 C2319 1.369 . S
C2318 C2320 1.419 . S
C2318 H2322 0.930 . S
C2319 C2318 1.369 . S
C2319 C2328 1.429 . S
C2320 C2318 1.419 . S
C2320 C2321 1.363 . S
C2320 H2323 0.929 . S
C2321 C2320 1.363 . S
C2321 C2327 1.428 . S
H2322 C2318 0.930 . S
H2323 C2320 0.929 . S
S2324 N2325 1.613 . S
S2324 N2326 1.610 . S
N2325 S2324 1.613 . S
N2325 C2328 1.350 . S
N2326 S2324 1.610 . S
N2326 C2327 1.351 . S
C2327 C2321 1.428 . S
C2327 N2326 1.351 . S
C2327 C2328 1.434 . S
C2328 C2319 1.429 . S
C2328 N2325 1.350 . S
C2328 C2327 1.434 . S
C2329 C2330 1.369 . S
C2329 C2331 1.419 . S
C2329 H2333 0.930 . S
C2330 C2329 1.369 . S
C2330 C2339 1.429 . S
C2331 C2329 1.419 . S
C2331 C2332 1.363 . S
C2331 H2334 0.929 . S
C2332 C2331 1.363 . S
C2332 C2338 1.428 . S
H2333 C2329 0.930 . S
H2334 C2331 0.929 . S
S2335 N2336 1.613 . S
S2335 N2337 1.610 . S
N2336 S2335 1.613 . S
N2336 C2339 1.350 . S
N2337 S2335 1.610 . S
N2337 C2338 1.351 . S
C2338 C2332 1.428 . S
C2338 N2337 1.351 . S
C2338 C2339 1.434 . S
C2339 C2330 1.429 . S
C2339 N2336 1.350 . S
C2339 C2338 1.434 . S
C2340 C2341 1.369 . S
C2340 C2342 1.419 . S
C2340 H2344 0.930 . S
C2341 C2340 1.369 . S
C2341 C2350 1.429 . S
C2342 C2340 1.419 . S
C2342 C2343 1.363 . S
C2342 H2345 0.929 . S
C2343 C2342 1.363 . S
C2343 C2349 1.428 . S
H2344 C2340 0.930 . S
H2345 C2342 0.929 . S
S2346 N2347 1.613 . S
S2346 N2348 1.610 . S
N2347 S2346 1.613 . S
N2347 C2350 1.350 . S
N2348 S2346 1.610 . S
N2348 C2349 1.351 . S
C2349 C2343 1.428 . S
C2349 N2348 1.351 . S
C2349 C2350 1.434 . S
C2350 C2341 1.429 . S
C2350 N2347 1.350 . S
C2350 C2349 1.434 . S
C2351 C2352 1.369 . S
C2351 C2353 1.419 . S
C2351 H2355 0.930 . S
C2352 C2351 1.369 . S
C2352 C2361 1.429 . S
C2353 C2351 1.419 . S
C2353 C2354 1.363 . S
C2353 H2356 0.929 . S
C2354 C2353 1.363 . S
C2354 C2360 1.428 . S
H2355 C2351 0.930 . S
H2356 C2353 0.929 . S
S2357 N2358 1.613 . S
S2357 N2359 1.610 . S
N2358 S2357 1.613 . S
N2358 C2361 1.350 . S
N2359 S2357 1.610 . S
N2359 C2360 1.351 . S
C2360 C2354 1.428 . S
C2360 N2359 1.351 . S
C2360 C2361 1.434 . S
C2361 C2352 1.429 . S
C2361 N2358 1.350 . S
C2361 C2360 1.434 . S
C2362 C2363 1.369 . S
C2362 C2364 1.419 . S
C2362 H2366 0.930 . S
C2363 C2362 1.369 . S
C2363 C2372 1.429 . S
C2364 C2362 1.419 . S
C2364 C2365 1.363 . S
C2364 H2367 0.929 . S
C2365 C2364 1.363 . S
C2365 C2371 1.428 . S
H2366 C2362 0.930 . S
H2367 C2364 0.929 . S
S2368 N2369 1.613 . S
S2368 N2370 1.610 . S
N2369 S2368 1.613 . S
N2369 C2372 1.350 . S
N2370 S2368 1.610 . S
N2370 C2371 1.351 . S
C2371 C2365 1.428 . S
C2371 N2370 1.351 . S
C2371 C2372 1.434 . S
C2372 C2363 1.429 . S
C2372 N2369 1.350 . S
C2372 C2371 1.434 . S
C2373 C2374 1.369 . S
C2373 C2375 1.419 . S
C2373 H2377 0.930 . S
C2374 C2373 1.369 . S
C2374 C2383 1.429 . S
C2375 C2373 1.419 . S
C2375 C2376 1.363 . S
C2375 H2378 0.929 . S
C2376 C2375 1.363 . S
C2376 C2382 1.428 . S
H2377 C2373 0.930 . S
H2378 C2375 0.929 . S
S2379 N2380 1.613 . S
S2379 N2381 1.610 . S
N2380 S2379 1.613 . S
N2380 C2383 1.350 . S
N2381 S2379 1.610 . S
N2381 C2382 1.351 . S
C2382 C2376 1.428 . S
C2382 N2381 1.351 . S
C2382 C2383 1.434 . S
C2383 C2374 1.429 . S
C2383 N2380 1.350 . S
C2383 C2382 1.434 . S
C2384 C2385 1.369 . S
C2384 C2386 1.419 . S
C2384 H2388 0.930 . S
C2385 C2384 1.369 . S
C2385 C2394 1.429 . S
C2386 C2384 1.419 . S
C2386 C2387 1.363 . S
C2386 H2389 0.929 . S
C2387 C2386 1.363 . S
C2387 C2393 1.428 . S
H2388 C2384 0.930 . S
H2389 C2386 0.929 . S
S2390 N2391 1.613 . S
S2390 N2392 1.610 . S
N2391 S2390 1.613 . S
N2391 C2394 1.350 . S
N2392 S2390 1.610 . S
N2392 C2393 1.351 . S
C2393 C2387 1.428 . S
C2393 N2392 1.351 . S
C2393 C2394 1.434 . S
C2394 C2385 1.429 . S
C2394 N2391 1.350 . S
C2394 C2393 1.434 . S
C2395 C2396 1.369 . S
C2395 C2397 1.419 . S
C2395 H2399 0.930 . S
C2396 C2395 1.369 . S
C2396 C2405 1.429 . S
C2397 C2395 1.419 . S
C2397 C2398 1.363 . S
C2397 H2400 0.929 . S
C2398 C2397 1.363 . S
C2398 C2404 1.428 . S
H2399 C2395 0.930 . S
H2400 C2397 0.929 . S
S2401 N2402 1.613 . S
S2401 N2403 1.610 . S
N2402 S2401 1.613 . S
N2402 C2405 1.350 . S
N2403 S2401 1.610 . S
N2403 C2404 1.351 . S
C2404 C2398 1.428 . S
C2404 N2403 1.351 . S
C2404 C2405 1.434 . S
C2405 C2396 1.429 . S
C2405 N2402 1.350 . S
C2405 C2404 1.434 . S
C2406 C2407 1.369 . S
C2406 C2408 1.419 . S
C2406 H2410 0.930 . S
C2407 C2406 1.369 . S
C2407 C2416 1.429 1_565 S
C2408 C2406 1.419 . S
C2408 C2409 1.363 . S
C2408 H2411 0.929 . S
C2409 C2408 1.363 . S
C2409 C2415 1.428 . S
H2410 C2406 0.930 . S
H2411 C2408 0.929 . S
S2412 N2413 1.613 . S
S2412 N2414 1.610 1_545 S
N2413 S2412 1.613 . S
N2413 C2416 1.350 . S
N2414 S2412 1.610 1_565 S
N2414 C2415 1.351 . S
C2415 C2409 1.428 . S
C2415 N2414 1.351 . S
C2415 C2416 1.434 1_565 S
C2416 C2407 1.429 1_545 S
C2416 N2413 1.350 . S
C2416 C2415 1.434 1_545 S
C2417 C2418 1.369 . S
C2417 C2419 1.419 . S
C2417 H2421 0.930 . S
C2418 C2417 1.369 . S
C2418 C2427 1.429 1_565 S
C2419 C2417 1.419 . S
C2419 C2420 1.363 1_565 S
C2419 H2422 0.929 . S
C2420 C2419 1.363 1_545 S
C2420 C2426 1.428 . S
H2421 C2417 0.930 . S
H2422 C2419 0.929 . S
S2423 N2424 1.613 . S
S2423 N2425 1.610 . S
N2424 S2423 1.613 . S
N2424 C2427 1.350 . S
N2425 S2423 1.610 . S
N2425 C2426 1.351 . S
C2426 C2420 1.428 . S
C2426 N2425 1.351 . S
C2426 C2427 1.434 . S
C2427 C2418 1.429 1_545 S
C2427 N2424 1.350 . S
C2427 C2426 1.434 . S
C2428 C2429 1.369 . S
C2428 C2430 1.419 . S
C2428 H2432 0.930 . S
C2429 C2428 1.369 . S
C2429 C2438 1.429 . S
C2430 C2428 1.419 . S
C2430 C2431 1.363 . S
C2430 H2433 0.929 . S
C2431 C2430 1.363 . S
C2431 C2437 1.428 . S
H2432 C2428 0.930 . S
H2433 C2430 0.929 . S
S2434 N2435 1.613 . S
S2434 N2436 1.610 . S
N2435 S2434 1.613 . S
N2435 C2438 1.350 . S
N2436 S2434 1.610 . S
N2436 C2437 1.351 . S
C2437 C2431 1.428 . S
C2437 N2436 1.351 . S
C2437 C2438 1.434 . S
C2438 C2429 1.429 . S
C2438 N2435 1.350 . S
C2438 C2437 1.434 . S
C2439 C2440 1.369 . S
C2439 C2441 1.419 . S
C2439 H2443 0.930 . S
C2440 C2439 1.369 . S
C2440 C2449 1.429 . S
C2441 C2439 1.419 . S
C2441 C2442 1.363 . S
C2441 H2444 0.929 . S
C2442 C2441 1.363 . S
C2442 C2448 1.428 . S
H2443 C2439 0.930 . S
H2444 C2441 0.929 . S
S2445 N2446 1.613 . S
S2445 N2447 1.610 . S
N2446 S2445 1.613 . S
N2446 C2449 1.350 . S
N2447 S2445 1.610 . S
N2447 C2448 1.351 . S
C2448 C2442 1.428 . S
C2448 N2447 1.351 . S
C2448 C2449 1.434 . S
C2449 C2440 1.429 . S
C2449 N2446 1.350 . S
C2449 C2448 1.434 . S
C2450 C2451 1.369 . S
C2450 C2452 1.419 . S
C2450 H2454 0.930 . S
C2451 C2450 1.369 . S
C2451 C2460 1.429 . S
C2452 C2450 1.419 . S
C2452 C2453 1.363 . S
C2452 H2455 0.929 . S
C2453 C2452 1.363 . S
C2453 C2459 1.428 . S
H2454 C2450 0.930 . S
H2455 C2452 0.929 . S
S2456 N2457 1.613 . S
S2456 N2458 1.610 . S
N2457 S2456 1.613 . S
N2457 C2460 1.350 . S
N2458 S2456 1.610 . S
N2458 C2459 1.351 . S
C2459 C2453 1.428 . S
C2459 N2458 1.351 . S
C2459 C2460 1.434 . S
C2460 C2451 1.429 . S
C2460 N2457 1.350 . S
C2460 C2459 1.434 . S
C2461 C2462 1.369 . S
C2461 C2463 1.419 . S
C2461 H2465 0.930 . S
C2462 C2461 1.369 . S
C2462 C2471 1.429 . S
C2463 C2461 1.419 . S
C2463 C2464 1.363 . S
C2463 H2466 0.929 . S
C2464 C2463 1.363 . S
C2464 C2470 1.428 . S
H2465 C2461 0.930 . S
H2466 C2463 0.929 . S
S2467 N2468 1.613 . S
S2467 N2469 1.610 . S
N2468 S2467 1.613 . S
N2468 C2471 1.350 . S
N2469 S2467 1.610 . S
N2469 C2470 1.351 . S
C2470 C2464 1.428 . S
C2470 N2469 1.351 . S
C2470 C2471 1.434 . S
C2471 C2462 1.429 . S
C2471 N2468 1.350 . S
C2471 C2470 1.434 . S
C2472 C2473 1.369 . S
C2472 C2474 1.419 . S
C2472 H2476 0.930 . S
C2473 C2472 1.369 . S
C2473 C2482 1.429 . S
C2474 C2472 1.419 . S
C2474 C2475 1.363 . S
C2474 H2477 0.929 . S
C2475 C2474 1.363 . S
C2475 C2481 1.428 . S
H2476 C2472 0.930 . S
H2477 C2474 0.929 . S
S2478 N2479 1.613 . S
S2478 N2480 1.610 . S
N2479 S2478 1.613 . S
N2479 C2482 1.350 . S
N2480 S2478 1.610 . S
N2480 C2481 1.351 . S
C2481 C2475 1.428 . S
C2481 N2480 1.351 . S
C2481 C2482 1.434 . S
C2482 C2473 1.429 . S
C2482 N2479 1.350 . S
C2482 C2481 1.434 . S
C2483 C2484 1.369 . S
C2483 C2485 1.419 . S
C2483 H2487 0.930 . S
C2484 C2483 1.369 . S
C2484 C2493 1.429 . S
C2485 C2483 1.419 . S
C2485 C2486 1.363 . S
C2485 H2488 0.929 . S
C2486 C2485 1.363 . S
C2486 C2492 1.428 . S
H2487 C2483 0.930 . S
H2488 C2485 0.929 . S
S2489 N2490 1.613 . S
S2489 N2491 1.610 . S
N2490 S2489 1.613 . S
N2490 C2493 1.350 . S
N2491 S2489 1.610 . S
N2491 C2492 1.351 . S
C2492 C2486 1.428 . S
C2492 N2491 1.351 . S
C2492 C2493 1.434 . S
C2493 C2484 1.429 . S
C2493 N2490 1.350 . S
C2493 C2492 1.434 . S
C2494 C2495 1.369 . S
C2494 C2496 1.419 . S
C2494 H2498 0.930 . S
C2495 C2494 1.369 . S
C2495 C2504 1.429 . S
C2496 C2494 1.419 . S
C2496 C2497 1.363 . S
C2496 H2499 0.929 . S
C2497 C2496 1.363 . S
C2497 C2503 1.428 . S
H2498 C2494 0.930 . S
H2499 C2496 0.929 . S
S2500 N2501 1.613 . S
S2500 N2502 1.610 . S
N2501 S2500 1.613 . S
N2501 C2504 1.350 . S
N2502 S2500 1.610 . S
N2502 C2503 1.351 . S
C2503 C2497 1.428 . S
C2503 N2502 1.351 . S
C2503 C2504 1.434 . S
C2504 C2495 1.429 . S
C2504 N2501 1.350 . S
C2504 C2503 1.434 . S
C2505 C2506 1.369 . S
C2505 C2507 1.419 . S
C2505 H2509 0.930 . S
C2506 C2505 1.369 . S
C2506 C2515 1.429 . S
C2507 C2505 1.419 . S
C2507 C2508 1.363 . S
C2507 H2510 0.929 . S
C2508 C2507 1.363 . S
C2508 C2514 1.428 . S
H2509 C2505 0.930 . S
H2510 C2507 0.929 . S
S2511 N2512 1.613 . S
S2511 N2513 1.610 . S
N2512 S2511 1.613 . S
N2512 C2515 1.350 . S
N2513 S2511 1.610 . S
N2513 C2514 1.351 . S
C2514 C2508 1.428 . S
C2514 N2513 1.351 . S
C2514 C2515 1.434 . S
C2515 C2506 1.429 . S
C2515 N2512 1.350 . S
C2515 C2514 1.434 . S
C2516 C2517 1.369 . S
C2516 C2518 1.419 . S
C2516 H2520 0.930 . S
C2517 C2516 1.369 . S
C2517 C2526 1.429 . S
C2518 C2516 1.419 . S
C2518 C2519 1.363 . S
C2518 H2521 0.929 . S
C2519 C2518 1.363 . S
C2519 C2525 1.428 . S
H2520 C2516 0.930 . S
H2521 C2518 0.929 . S
S2522 N2523 1.613 . S
S2522 N2524 1.610 . S
N2523 S2522 1.613 . S
N2523 C2526 1.350 . S
N2524 S2522 1.610 . S
N2524 C2525 1.351 . S
C2525 C2519 1.428 . S
C2525 N2524 1.351 . S
C2525 C2526 1.434 . S
C2526 C2517 1.429 . S
C2526 N2523 1.350 . S
C2526 C2525 1.434 . S
C2527 C2528 1.369 . S
C2527 C2529 1.419 . S
C2527 H2531 0.930 . S
C2528 C2527 1.369 . S
C2528 C2537 1.429 . S
C2529 C2527 1.419 . S
C2529 C2530 1.363 . S
C2529 H2532 0.929 . S
C2530 C2529 1.363 . S
C2530 C2536 1.428 . S
H2531 C2527 0.930 . S
H2532 C2529 0.929 . S
S2533 N2534 1.613 . S
S2533 N2535 1.610 . S
N2534 S2533 1.613 . S
N2534 C2537 1.350 . S
N2535 S2533 1.610 . S
N2535 C2536 1.351 . S
C2536 C2530 1.428 . S
C2536 N2535 1.351 . S
C2536 C2537 1.434 . S
C2537 C2528 1.429 . S
C2537 N2534 1.350 . S
C2537 C2536 1.434 . S
C2538 C2539 1.369 . S
C2538 C2540 1.419 . S
C2538 H2542 0.930 . S
C2539 C2538 1.369 . S
C2539 C2548 1.429 . S
C2540 C2538 1.419 . S
C2540 C2541 1.363 . S
C2540 H2543 0.929 . S
C2541 C2540 1.363 . S
C2541 C2547 1.428 . S
H2542 C2538 0.930 . S
H2543 C2540 0.929 . S
S2544 N2545 1.613 1_655 S
S2544 N2546 1.610 1_655 S
N2545 S2544 1.613 1_455 S
N2545 C2548 1.350 . S
N2546 S2544 1.610 1_455 S
N2546 C2547 1.351 . S
C2547 C2541 1.428 . S
C2547 N2546 1.351 . S
C2547 C2548 1.434 . S
C2548 C2539 1.429 . S
C2548 N2545 1.350 . S
C2548 C2547 1.434 . S
C2549 C2550 1.369 . S
C2549 C2551 1.419 . S
C2549 H2553 0.930 . S
C2550 C2549 1.369 . S
C2550 C2559 1.429 . S
C2551 C2549 1.419 . S
C2551 C2552 1.363 . S
C2551 H2554 0.929 . S
C2552 C2551 1.363 . S
C2552 C2558 1.428 . S
H2553 C2549 0.930 . S
H2554 C2551 0.929 . S
S2555 N2556 1.613 . S
S2555 N2557 1.610 . S
N2556 S2555 1.613 . S
N2556 C2559 1.350 . S
N2557 S2555 1.610 . S
N2557 C2558 1.351 . S
C2558 C2552 1.428 . S
C2558 N2557 1.351 . S
C2558 C2559 1.434 . S
C2559 C2550 1.429 . S
C2559 N2556 1.350 . S
C2559 C2558 1.434 . S
C2560 C2561 1.369 . S
C2560 C2562 1.419 . S
C2560 H2564 0.930 . S
C2561 C2560 1.369 . S
C2561 C2570 1.429 . S
C2562 C2560 1.419 . S
C2562 C2563 1.363 . S
C2562 H2565 0.929 . S
C2563 C2562 1.363 . S
C2563 C2569 1.428 . S
H2564 C2560 0.930 . S
H2565 C2562 0.929 . S
S2566 N2567 1.613 . S
S2566 N2568 1.610 . S
N2567 S2566 1.613 . S
N2567 C2570 1.350 . S
N2568 S2566 1.610 . S
N2568 C2569 1.351 . S
C2569 C2563 1.428 . S
C2569 N2568 1.351 . S
C2569 C2570 1.434 . S
C2570 C2561 1.429 . S
C2570 N2567 1.350 . S
C2570 C2569 1.434 . S
C2571 C2572 1.369 . S
C2571 C2573 1.419 . S
C2571 H2575 0.930 . S
C2572 C2571 1.369 . S
C2572 C2581 1.429 . S
C2573 C2571 1.419 . S
C2573 C2574 1.363 . S
C2573 H2576 0.929 . S
C2574 C2573 1.363 . S
C2574 C2580 1.428 . S
H2575 C2571 0.930 . S
H2576 C2573 0.929 . S
S2577 N2578 1.613 . S
S2577 N2579 1.610 . S
N2578 S2577 1.613 . S
N2578 C2581 1.350 . S
N2579 S2577 1.610 . S
N2579 C2580 1.351 . S
C2580 C2574 1.428 . S
C2580 N2579 1.351 . S
C2580 C2581 1.434 . S
C2581 C2572 1.429 . S
C2581 N2578 1.350 . S
C2581 C2580 1.434 . S
C2582 C2583 1.369 . S
C2582 C2584 1.419 . S
C2582 H2586 0.930 . S
C2583 C2582 1.369 . S
C2583 C2592 1.429 . S
C2584 C2582 1.419 . S
C2584 C2585 1.363 . S
C2584 H2587 0.929 . S
C2585 C2584 1.363 . S
C2585 C2591 1.428 . S
H2586 C2582 0.930 . S
H2587 C2584 0.929 . S
S2588 N2589 1.613 . S
S2588 N2590 1.610 . S
N2589 S2588 1.613 . S
N2589 C2592 1.350 . S
N2590 S2588 1.610 . S
N2590 C2591 1.351 . S
C2591 C2585 1.428 . S
C2591 N2590 1.351 . S
C2591 C2592 1.434 . S
C2592 C2583 1.429 . S
C2592 N2589 1.350 . S
C2592 C2591 1.434 . S
C2593 C2594 1.369 . S
C2593 C2595 1.419 . S
C2593 H2597 0.930 . S
C2594 C2593 1.369 . S
C2594 C2603 1.429 . S
C2595 C2593 1.419 . S
C2595 C2596 1.363 . S
C2595 H2598 0.929 . S
C2596 C2595 1.363 . S
C2596 C2602 1.428 . S
H2597 C2593 0.930 . S
H2598 C2595 0.929 . S
S2599 N2600 1.613 . S
S2599 N2601 1.610 . S
N2600 S2599 1.613 . S
N2600 C2603 1.350 . S
N2601 S2599 1.610 . S
N2601 C2602 1.351 . S
C2602 C2596 1.428 . S
C2602 N2601 1.351 . S
C2602 C2603 1.434 . S
C2603 C2594 1.429 . S
C2603 N2600 1.350 . S
C2603 C2602 1.434 . S
C2604 C2605 1.369 . S
C2604 C2606 1.419 . S
C2604 H2608 0.930 . S
C2605 C2604 1.369 . S
C2605 C2614 1.429 . S
C2606 C2604 1.419 . S
C2606 C2607 1.363 . S
C2606 H2609 0.929 . S
C2607 C2606 1.363 . S
C2607 C2613 1.428 . S
H2608 C2604 0.930 . S
H2609 C2606 0.929 . S
S2610 N2611 1.613 . S
S2610 N2612 1.610 . S
N2611 S2610 1.613 . S
N2611 C2614 1.350 . S
N2612 S2610 1.610 . S
N2612 C2613 1.351 . S
C2613 C2607 1.428 . S
C2613 N2612 1.351 . S
C2613 C2614 1.434 . S
C2614 C2605 1.429 . S
C2614 N2611 1.350 . S
C2614 C2613 1.434 . S
C2615 C2616 1.369 . S
C2615 C2617 1.419 . S
C2615 H2619 0.930 . S
C2616 C2615 1.369 . S
C2616 C2625 1.429 . S
C2617 C2615 1.419 . S
C2617 C2618 1.363 . S
C2617 H2620 0.929 . S
C2618 C2617 1.363 . S
C2618 C2624 1.428 . S
H2619 C2615 0.930 . S
H2620 C2617 0.929 . S
S2621 N2622 1.613 . S
S2621 N2623 1.610 . S
N2622 S2621 1.613 . S
N2622 C2625 1.350 . S
N2623 S2621 1.610 . S
N2623 C2624 1.351 . S
C2624 C2618 1.428 . S
C2624 N2623 1.351 . S
C2624 C2625 1.434 . S
C2625 C2616 1.429 . S
C2625 N2622 1.350 . S
C2625 C2624 1.434 . S
C2626 C2627 1.369 . S
C2626 C2628 1.419 . S
C2626 H2630 0.930 . S
C2627 C2626 1.369 . S
C2627 C2636 1.429 . S
C2628 C2626 1.419 . S
C2628 C2629 1.363 . S
C2628 H2631 0.929 . S
C2629 C2628 1.363 . S
C2629 C2635 1.428 . S
H2630 C2626 0.930 . S
H2631 C2628 0.929 . S
S2632 N2633 1.613 1_455 S
S2632 N2634 1.610 1_455 S
N2633 S2632 1.613 1_655 S
N2633 C2636 1.350 . S
N2634 S2632 1.610 1_655 S
N2634 C2635 1.351 . S
C2635 C2629 1.428 . S
C2635 N2634 1.351 . S
C2635 C2636 1.434 . S
C2636 C2627 1.429 . S
C2636 N2633 1.350 . S
C2636 C2635 1.434 . S
C2637 C2638 1.369 . S
C2637 C2639 1.419 . S
C2637 H2641 0.930 . S
C2638 C2637 1.369 . S
C2638 C2647 1.429 . S
C2639 C2637 1.419 . S
C2639 C2640 1.363 . S
C2639 H2642 0.929 . S
C2640 C2639 1.363 . S
C2640 C2646 1.428 . S
H2641 C2637 0.930 . S
H2642 C2639 0.929 . S
S2643 N2644 1.613 . S
S2643 N2645 1.610 . S
N2644 S2643 1.613 . S
N2644 C2647 1.350 . S
N2645 S2643 1.610 . S
N2645 C2646 1.351 . S
C2646 C2640 1.428 . S
C2646 N2645 1.351 . S
C2646 C2647 1.434 . S
C2647 C2638 1.429 . S
C2647 N2644 1.350 . S
C2647 C2646 1.434 . S
C2648 C2649 1.369 . S
C2648 C2650 1.419 . S
C2648 H2652 0.930 . S
C2649 C2648 1.369 . S
C2649 C2658 1.429 . S
C2650 C2648 1.419 . S
C2650 C2651 1.363 . S
C2650 H2653 0.929 . S
C2651 C2650 1.363 . S
C2651 C2657 1.428 . S
H2652 C2648 0.930 . S
H2653 C2650 0.929 . S
S2654 N2655 1.613 . S
S2654 N2656 1.610 . S
N2655 S2654 1.613 . S
N2655 C2658 1.350 . S
N2656 S2654 1.610 . S
N2656 C2657 1.351 . S
C2657 C2651 1.428 . S
C2657 N2656 1.351 . S
C2657 C2658 1.434 . S
C2658 C2649 1.429 . S
C2658 N2655 1.350 . S
C2658 C2657 1.434 . S
C2659 C2660 1.369 . S
C2659 C2661 1.419 . S
C2659 H2663 0.930 . S
C2660 C2659 1.369 . S
C2660 C2669 1.429 . S
C2661 C2659 1.419 . S
C2661 C2662 1.363 . S
C2661 H2664 0.929 1_565 S
C2662 C2661 1.363 . S
C2662 C2668 1.428 . S
H2663 C2659 0.930 . S
H2664 C2661 0.929 1_545 S
S2665 N2666 1.613 . S
S2665 N2667 1.610 . S
N2666 S2665 1.613 . S
N2666 C2669 1.350 . S
N2667 S2665 1.610 . S
N2667 C2668 1.351 . S
C2668 C2662 1.428 . S
C2668 N2667 1.351 . S
C2668 C2669 1.434 . S
C2669 C2660 1.429 . S
C2669 N2666 1.350 . S
C2669 C2668 1.434 . S
C2670 C2671 1.369 . S
C2670 C2672 1.419 . S
C2670 H2674 0.930 . S
C2671 C2670 1.369 . S
C2671 C2680 1.429 . S
C2672 C2670 1.419 . S
C2672 C2673 1.363 . S
C2672 H2675 0.929 . S
C2673 C2672 1.363 . S
C2673 C2679 1.428 . S
H2674 C2670 0.930 . S
H2675 C2672 0.929 . S
S2676 N2677 1.613 . S
S2676 N2678 1.610 . S
N2677 S2676 1.613 . S
N2677 C2680 1.350 . S
N2678 S2676 1.610 . S
N2678 C2679 1.351 . S
C2679 C2673 1.428 . S
C2679 N2678 1.351 . S
C2679 C2680 1.434 . S
C2680 C2671 1.429 . S
C2680 N2677 1.350 . S
C2680 C2679 1.434 . S
C2681 C2682 1.369 . S
C2681 C2683 1.419 . S
C2681 H2685 0.930 . S
C2682 C2681 1.369 . S
C2682 C2691 1.429 . S
C2683 C2681 1.419 . S
C2683 C2684 1.363 . S
C2683 H2686 0.929 . S
C2684 C2683 1.363 . S
C2684 C2690 1.428 . S
H2685 C2681 0.930 . S
H2686 C2683 0.929 . S
S2687 N2688 1.613 1_556 S
S2687 N2689 1.610 . S
N2688 S2687 1.613 1_554 S
N2688 C2691 1.350 . S
N2689 S2687 1.610 . S
N2689 C2690 1.351 1_556 S
C2690 C2684 1.428 . S
C2690 N2689 1.351 1_554 S
C2690 C2691 1.434 . S
C2691 C2682 1.429 . S
C2691 N2688 1.350 . S
C2691 C2690 1.434 . S
C2692 C2693 1.369 . S
C2692 C2694 1.419 . S
C2692 H2696 0.930 . S
C2693 C2692 1.369 . S
C2693 C2702 1.429 . S
C2694 C2692 1.419 . S
C2694 C2695 1.363 . S
C2694 H2697 0.929 . S
C2695 C2694 1.363 . S
C2695 C2701 1.428 . S
H2696 C2692 0.930 . S
H2697 C2694 0.929 . S
S2698 N2699 1.613 . S
S2698 N2700 1.610 . S
N2699 S2698 1.613 . S
N2699 C2702 1.350 . S
N2700 S2698 1.610 . S
N2700 C2701 1.351 . S
C2701 C2695 1.428 . S
C2701 N2700 1.351 . S
C2701 C2702 1.434 . S
C2702 C2693 1.429 . S
C2702 N2699 1.350 . S
C2702 C2701 1.434 . S
C2703 C2704 1.369 . S
C2703 C2705 1.419 . S
C2703 H2707 0.930 . S
C2704 C2703 1.369 . S
C2704 C2713 1.429 . S
C2705 C2703 1.419 . S
C2705 C2706 1.363 . S
C2705 H2708 0.929 . S
C2706 C2705 1.363 . S
C2706 C2712 1.428 . S
H2707 C2703 0.930 . S
H2708 C2705 0.929 . S
S2709 N2710 1.613 . S
S2709 N2711 1.610 . S
N2710 S2709 1.613 . S
N2710 C2713 1.350 1_556 S
N2711 S2709 1.610 . S
N2711 C2712 1.351 1_556 S
C2712 C2706 1.428 . S
C2712 N2711 1.351 1_554 S
C2712 C2713 1.434 . S
C2713 C2704 1.429 . S
C2713 N2710 1.350 1_554 S
C2713 C2712 1.434 . S
C2714 C2715 1.369 . S
C2714 C2716 1.419 . S
C2714 H2718 0.930 . S
C2715 C2714 1.369 . S
C2715 C2724 1.429 . S
C2716 C2714 1.419 . S
C2716 C2717 1.363 . S
C2716 H2719 0.929 . S
C2717 C2716 1.363 . S
C2717 C2723 1.428 . S
H2718 C2714 0.930 . S
H2719 C2716 0.929 . S
S2720 N2721 1.613 . S
S2720 N2722 1.610 . S
N2721 S2720 1.613 . S
N2721 C2724 1.350 . S
N2722 S2720 1.610 . S
N2722 C2723 1.351 . S
C2723 C2717 1.428 . S
C2723 N2722 1.351 . S
C2723 C2724 1.434 . S
C2724 C2715 1.429 . S
C2724 N2721 1.350 . S
C2724 C2723 1.434 . S
C2725 C2726 1.369 . S
C2725 C2727 1.419 . S
C2725 H2729 0.930 . S
C2726 C2725 1.369 . S
C2726 C2735 1.429 . S
C2727 C2725 1.419 . S
C2727 C2728 1.363 . S
C2727 H2730 0.929 . S
C2728 C2727 1.363 . S
C2728 C2734 1.428 . S
H2729 C2725 0.930 . S
H2730 C2727 0.929 . S
S2731 N2732 1.613 . S
S2731 N2733 1.610 . S
N2732 S2731 1.613 . S
N2732 C2735 1.350 . S
N2733 S2731 1.610 . S
N2733 C2734 1.351 . S
C2734 C2728 1.428 . S
C2734 N2733 1.351 . S
C2734 C2735 1.434 . S
C2735 C2726 1.429 . S
C2735 N2732 1.350 . S
C2735 C2734 1.434 . S
C1681 C111 2.307 1_455 S
C1683 C403 2.295 . S
C1692 C64 1.926 . S
C1694 C476 2.019 . S
C1703 C77 1.900 . S
C1705 C571 1.913 . S
C1716 C646 1.199 . S
C1714 C95 1.279 . S
C1725 C25 1.287 . S
C1727 C730 1.196 . S
C1738 C823 1.981 . S
C1736 C36 1.834 . S
C1749 C896 2.001 . S
C1747 C50 1.911 . S
C1758 C11 2.204 . S
C1760 C991 2.227 . S
C1771 C392 1.773 . S
C1769 C237 1.805 . S
C1780 C245 0.945 . S
C1782 C478 0.902 . S
C1793 C560 1.143 . S
C1791 C279 1.064 . S
C1804 C655 1.604 . S
C1802 C175 1.607 . S
C1813 C231 1.577 . S
C1815 C739 1.576 . S
C1826 C812 1.146 . S
C1824 C251 1.063 . S
C1837 C898 0.935 . S
C1835 C273 0.972 . S
C1848 C980 1.778 . S
C1846 C181 1.815 . S
C1859 C394 1.160 . S
C1857 C165 1.157 1_554 S
C1868 C288 1.630 . S
C1870 C1064 1.702 . S
C1881 C1150 1.347 . S
C1879 C333 1.400 . S
C1892 C1243 0.820 . S
C1890 C316 0.796 . S
C1901 C123 1.135 . S
C1903 C982 1.143 . S
C1912 C137 1.380 . S
C1914 C562 1.326 . S
C1923 C330 1.635 . S
C1925 C1316 1.703 . S
C1936 C1411 0.831 . S
C1934 C302 0.825 . S
C1947 C391 2.401 . S
C1945 C63 2.380 . S
C1958 C1412 2.029 . S
C1956 C106 2.031 . S
C1967 C97 1.930 . S
C1969 C559 1.977 . S
C1978 C81 1.311 . S
C1980 C1330 1.228 . S
C1991 C742 1.278 . S
C1989 C13 1.290 . S
C2000 C55 1.926 . S
C2002 C1147 1.977 . S
C2013 C908 1.939 1_556 S
C2011 C35 1.893 . S
C2024 C1483 2.395 . S
C2022 C21 2.376 . S
C2035 C404 1.880 . S
C2033 C147 1.951 . S
C2046 C1414 0.905 . S
C2044 C321 0.923 . S
C2055 C119 1.169 . S
C2057 C572 1.171 . S
C2066 C293 1.626 . S
C2068 C1315 1.691 . S
C2077 C153 1.631 . S
C2079 C727 1.692 . S
C2090 C1160 1.188 . S
C2088 C315 1.176 . S
C2099 C125 0.930 1_545 S
C2101 C910 0.897 . S
C2110 C287 1.943 . S
C2112 C1496 1.868 . S
C2121 C193 1.128 . S
C2123 C406 1.192 . S
C2132 C176 1.699 . S
C2134 C1076 1.706 . S
C2143 C263 1.346 . S
C2145 C826 1.340 . S
C2154 C246 0.937 . S
C2156 C1231 0.981 . S
C2167 C1498 1.160 . S
C2165 C277 1.121 . S
C2176 C221 1.346 . S
C2178 C574 1.322 . S
C2189 C656 1.721 . S
C2187 C260 1.715 . S
C2200 C475 0.968 . S
C2198 C204 0.917 . S
C2209 C83 2.305 . S
C2211 C1579 2.293 . S
C2222 C1400 2.018 . S
C2220 C92 1.921 . S
C2231 C105 1.901 1_554 S
C2233 C1663 1.913 . S
C2242 C67 1.279 . S
C2244 C1318 1.197 . S
C2253 C53 1.288 . S
C2255 C1066 1.194 . S
C2266 C1159 1.982 . S
C2264 C8 1.838 1_655 S
C2277 C1232 2.000 . S
C2275 C22 1.904 . S
C2288 C1495 2.227 . S
C2286 C39 2.207 . S
C2299 C1568 1.774 . S
C2297 C265 1.805 . S
C2308 C189 0.938 . S
C2310 C1402 0.901 . S
C2321 C1652 1.144 . S
C2319 C209 1.055 . S
C2332 C1327 1.604 . S
C2330 C217 1.607 . S
C2343 C1075 1.574 . S
C2341 C259 1.579 . S
C2352 C195 1.048 . S
C2354 C1148 1.144 . S
C2365 C1234 0.936 . S
C2363 C203 0.972 . S
C2374 C223 1.813 . S
C2376 C1484 1.776 . S
C2387 C1570 1.155 . S
C2385 C319 1.149 . S
C2396 C134 1.629 . S
C2398 C728 1.704 . S
C2409 C814 1.342 . S
C2407 C151 1.399 1_565 S
C2420 C907 0.819 . S
C2418 C162 0.816 . S
C2431 C1486 1.149 . S
C2429 C305 1.143 . S
C2440 C291 1.381 . S
C2442 C1654 1.327 . S
C2453 C644 1.703 . S
C2451 C148 1.635 . S
C2464 C487 0.831 . S
C2462 C120 0.809 . S
C2473 C91 2.383 . S
C2475 C1567 2.399 . S
C2486 C488 2.029 . S
C2484 C78 2.032 . S
C2495 C69 1.928 . S
C2497 C1651 1.979 . S
C2506 C109 1.310 . S
C2508 C658 1.225 . S
C2517 C41 1.283 . S
C2519 C1078 1.268 . S
C2530 C811 1.977 . S
C2528 C27 1.923 . S
C2539 C7 1.895 . S
C2541 C1244 1.940 . S
C2550 C49 2.376 . S
C2552 C979 2.394 . S
C2563 C1580 1.880 . S
C2561 C329 1.952 . S
C2572 C167 0.918 . S
C2574 C490 0.894 . S
C2585 C1664 1.172 1_655 S
C2583 C301 1.166 . S
C2594 C139 1.625 . S
C2596 C643 1.688 . S
C2605 C335 1.628 . S
C2607 C1063 1.691 . S
C2618 C824 1.182 . S
C2616 C161 1.181 . S
C2627 C307 0.932 . S
C2629 C1246 0.910 . S
C2640 C992 1.870 . S
C2638 C133 1.942 . S
C2651 C1582 1.194 . S
C2649 C249 1.138 . S
C2662 C740 1.705 1_565 S
C2660 C218 1.699 . S
C2671 C235 1.342 . S
C2673 C1162 1.337 . S
C2684 C895 0.982 . S
C2682 C190 0.937 . S
C2693 C207 1.119 . S
C2695 C994 1.159 . S
C2704 C179 1.339 . S
C2706 C1666 1.315 . S
C2717 C1328 1.721 . S
C2715 C232 1.715 . S
C2728 C1399 0.963 . S
C2726 C274 0.934 . S
