# Generated by pormake.
# Topology llk, (3,12)-cn, num edge types: 1
# Building blocks:
#     Node 0, Type 0, BuildingBlock: WUSLED_clean_sbu_0, # of connection points: 3
#     Node 1, Type 0, BuildingBlock: WUSLED_clean_sbu_0, # of connection points: 3
#     Node 2, Type 0, BuildingBlock: WUSLED_clean_sbu_0, # of connection points: 3
#     Node 3, Type 0, BuildingBlock: WUSLED_clean_sbu_0, # of connection points: 3
#     Node 4, Type 0, BuildingBlock: WUSLED_clean_sbu_0, # of connection points: 3
#     Node 5, Type 0, BuildingBlock: WUSLED_clean_sbu_0, # of connection points: 3
#     Node 6, Type 0, BuildingBlock: WUSLED_clean_sbu_0, # of connection points: 3
#     Node 7, Type 0, BuildingBlock: WUSLED_clean_sbu_0, # of connection points: 3
#     Node 8, Type 0, BuildingBlock: WUSLED_clean_sbu_0, # of connection points: 3
#     Node 9, Type 0, BuildingBlock: WUSLED_clean_sbu_0, # of connection points: 3
#     Node 10, Type 0, BuildingBlock: WUSLED_clean_sbu_0, # of connection points: 3
#     Node 11, Type 0, BuildingBlock: WUSLED_clean_sbu_0, # of connection points: 3
#     Node 12, Type 0, BuildingBlock: WUSLED_clean_sbu_0, # of connection points: 3
#     Node 13, Type 0, BuildingBlock: WUSLED_clean_sbu_0, # of connection points: 3
#     Node 14, Type 0, BuildingBlock: WUSLED_clean_sbu_0, # of connection points: 3
#     Node 15, Type 0, BuildingBlock: WUSLED_clean_sbu_0, # of connection points: 3
#     Node 16, Type 0, BuildingBlock: WUSLED_clean_sbu_0, # of connection points: 3
#     Node 17, Type 0, BuildingBlock: WUSLED_clean_sbu_0, # of connection points: 3
#     Node 18, Type 0, BuildingBlock: WUSLED_clean_sbu_0, # of connection points: 3
#     Node 19, Type 0, BuildingBlock: WUSLED_clean_sbu_0, # of connection points: 3
#     Node 20, Type 0, BuildingBlock: WUSLED_clean_sbu_0, # of connection points: 3
#     Node 21, Type 0, BuildingBlock: WUSLED_clean_sbu_0, # of connection points: 3
#     Node 22, Type 0, BuildingBlock: WUSLED_clean_sbu_0, # of connection points: 3
#     Node 23, Type 0, BuildingBlock: WUSLED_clean_sbu_0, # of connection points: 3
#     Node 24, Type 1, BuildingBlock: EZIPEK_clean_sbu_0, # of connection points: 12
#     Node 25, Type 1, BuildingBlock: EZIPEK_clean_sbu_0, # of connection points: 12
#     Node 26, Type 1, BuildingBlock: EZIPEK_clean_sbu_0, # of connection points: 12
#     Node 27, Type 1, BuildingBlock: EZIPEK_clean_sbu_0, # of connection points: 12
#     Node 28, Type 1, BuildingBlock: EZIPEK_clean_sbu_0, # of connection points: 12
#     Node 29, Type 1, BuildingBlock: EZIPEK_clean_sbu_0, # of connection points: 12
#     Edge 30, Type (0, 1), BuildingBlock: ZUJKAS_clean_linker_0, # of connection points: 2
#     Edge 31, Type (0, 1), BuildingBlock: ZUJKAS_clean_linker_0, # of connection points: 2
#     Edge 32, Type (0, 1), BuildingBlock: ZUJKAS_clean_linker_0, # of connection points: 2
#     Edge 33, Type (0, 1), BuildingBlock: ZUJKAS_clean_linker_0, # of connection points: 2
#     Edge 34, Type (0, 1), BuildingBlock: ZUJKAS_clean_linker_0, # of connection points: 2
#     Edge 35, Type (0, 1), BuildingBlock: ZUJKAS_clean_linker_0, # of connection points: 2
#     Edge 36, Type (0, 1), BuildingBlock: ZUJKAS_clean_linker_0, # of connection points: 2
#     Edge 37, Type (0, 1), BuildingBlock: ZUJKAS_clean_linker_0, # of connection points: 2
#     Edge 38, Type (0, 1), BuildingBlock: ZUJKAS_clean_linker_0, # of connection points: 2
#     Edge 39, Type (0, 1), BuildingBlock: ZUJKAS_clean_linker_0, # of connection points: 2
#     Edge 40, Type (0, 1), BuildingBlock: ZUJKAS_clean_linker_0, # of connection points: 2
#     Edge 41, Type (0, 1), BuildingBlock: ZUJKAS_clean_linker_0, # of connection points: 2
#     Edge 42, Type (0, 1), BuildingBlock: ZUJKAS_clean_linker_0, # of connection points: 2
#     Edge 43, Type (0, 1), BuildingBlock: ZUJKAS_clean_linker_0, # of connection points: 2
#     Edge 44, Type (0, 1), BuildingBlock: ZUJKAS_clean_linker_0, # of connection points: 2
#     Edge 45, Type (0, 1), BuildingBlock: ZUJKAS_clean_linker_0, # of connection points: 2
#     Edge 46, Type (0, 1), BuildingBlock: ZUJKAS_clean_linker_0, # of connection points: 2
#     Edge 47, Type (0, 1), BuildingBlock: ZUJKAS_clean_linker_0, # of connection points: 2
#     Edge 48, Type (0, 1), BuildingBlock: ZUJKAS_clean_linker_0, # of connection points: 2
#     Edge 49, Type (0, 1), BuildingBlock: ZUJKAS_clean_linker_0, # of connection points: 2
#     Edge 50, Type (0, 1), BuildingBlock: ZUJKAS_clean_linker_0, # of connection points: 2
#     Edge 51, Type (0, 1), BuildingBlock: ZUJKAS_clean_linker_0, # of connection points: 2
#     Edge 52, Type (0, 1), BuildingBlock: ZUJKAS_clean_linker_0, # of connection points: 2
#     Edge 53, Type (0, 1), BuildingBlock: ZUJKAS_clean_linker_0, # of connection points: 2
#     Edge 54, Type (0, 1), BuildingBlock: ZUJKAS_clean_linker_0, # of connection points: 2
#     Edge 55, Type (0, 1), BuildingBlock: ZUJKAS_clean_linker_0, # of connection points: 2
#     Edge 56, Type (0, 1), BuildingBlock: ZUJKAS_clean_linker_0, # of connection points: 2
#     Edge 57, Type (0, 1), BuildingBlock: ZUJKAS_clean_linker_0, # of connection points: 2
#     Edge 58, Type (0, 1), BuildingBlock: ZUJKAS_clean_linker_0, # of connection points: 2
#     Edge 59, Type (0, 1), BuildingBlock: ZUJKAS_clean_linker_0, # of connection points: 2
#     Edge 60, Type (0, 1), BuildingBlock: ZUJKAS_clean_linker_0, # of connection points: 2
#     Edge 61, Type (0, 1), BuildingBlock: ZUJKAS_clean_linker_0, # of connection points: 2
#     Edge 62, Type (0, 1), BuildingBlock: ZUJKAS_clean_linker_0, # of connection points: 2
#     Edge 63, Type (0, 1), BuildingBlock: ZUJKAS_clean_linker_0, # of connection points: 2
#     Edge 64, Type (0, 1), BuildingBlock: ZUJKAS_clean_linker_0, # of connection points: 2
#     Edge 65, Type (0, 1), BuildingBlock: ZUJKAS_clean_linker_0, # of connection points: 2
#     Edge 66, Type (0, 1), BuildingBlock: ZUJKAS_clean_linker_0, # of connection points: 2
#     Edge 67, Type (0, 1), BuildingBlock: ZUJKAS_clean_linker_0, # of connection points: 2
#     Edge 68, Type (0, 1), BuildingBlock: ZUJKAS_clean_linker_0, # of connection points: 2
#     Edge 69, Type (0, 1), BuildingBlock: ZUJKAS_clean_linker_0, # of connection points: 2
#     Edge 70, Type (0, 1), BuildingBlock: ZUJKAS_clean_linker_0, # of connection points: 2
#     Edge 71, Type (0, 1), BuildingBlock: ZUJKAS_clean_linker_0, # of connection points: 2
#     Edge 72, Type (0, 1), BuildingBlock: ZUJKAS_clean_linker_0, # of connection points: 2
#     Edge 73, Type (0, 1), BuildingBlock: ZUJKAS_clean_linker_0, # of connection points: 2
#     Edge 74, Type (0, 1), BuildingBlock: ZUJKAS_clean_linker_0, # of connection points: 2
#     Edge 75, Type (0, 1), BuildingBlock: ZUJKAS_clean_linker_0, # of connection points: 2
#     Edge 76, Type (0, 1), BuildingBlock: ZUJKAS_clean_linker_0, # of connection points: 2
#     Edge 77, Type (0, 1), BuildingBlock: ZUJKAS_clean_linker_0, # of connection points: 2
#     Edge 78, Type (0, 1), BuildingBlock: ZUJKAS_clean_linker_0, # of connection points: 2
#     Edge 79, Type (0, 1), BuildingBlock: ZUJKAS_clean_linker_0, # of connection points: 2
#     Edge 80, Type (0, 1), BuildingBlock: ZUJKAS_clean_linker_0, # of connection points: 2
#     Edge 81, Type (0, 1), BuildingBlock: ZUJKAS_clean_linker_0, # of connection points: 2
#     Edge 82, Type (0, 1), BuildingBlock: ZUJKAS_clean_linker_0, # of connection points: 2
#     Edge 83, Type (0, 1), BuildingBlock: ZUJKAS_clean_linker_0, # of connection points: 2
#     Edge 84, Type (0, 1), BuildingBlock: ZUJKAS_clean_linker_0, # of connection points: 2
#     Edge 85, Type (0, 1), BuildingBlock: ZUJKAS_clean_linker_0, # of connection points: 2
#     Edge 86, Type (0, 1), BuildingBlock: ZUJKAS_clean_linker_0, # of connection points: 2
#     Edge 87, Type (0, 1), BuildingBlock: ZUJKAS_clean_linker_0, # of connection points: 2
#     Edge 88, Type (0, 1), BuildingBlock: ZUJKAS_clean_linker_0, # of connection points: 2
#     Edge 89, Type (0, 1), BuildingBlock: ZUJKAS_clean_linker_0, # of connection points: 2
#     Edge 90, Type (0, 1), BuildingBlock: ZUJKAS_clean_linker_0, # of connection points: 2
#     Edge 91, Type (0, 1), BuildingBlock: ZUJKAS_clean_linker_0, # of connection points: 2
#     Edge 92, Type (0, 1), BuildingBlock: ZUJKAS_clean_linker_0, # of connection points: 2
#     Edge 93, Type (0, 1), BuildingBlock: ZUJKAS_clean_linker_0, # of connection points: 2
#     Edge 94, Type (0, 1), BuildingBlock: ZUJKAS_clean_linker_0, # of connection points: 2
#     Edge 95, Type (0, 1), BuildingBlock: ZUJKAS_clean_linker_0, # of connection points: 2
#     Edge 96, Type (0, 1), BuildingBlock: ZUJKAS_clean_linker_0, # of connection points: 2
#     Edge 97, Type (0, 1), BuildingBlock: ZUJKAS_clean_linker_0, # of connection points: 2
#     Edge 98, Type (0, 1), BuildingBlock: ZUJKAS_clean_linker_0, # of connection points: 2
#     Edge 99, Type (0, 1), BuildingBlock: ZUJKAS_clean_linker_0, # of connection points: 2
#     Edge 100, Type (0, 1), BuildingBlock: ZUJKAS_clean_linker_0, # of connection points: 2
#     Edge 101, Type (0, 1), BuildingBlock: ZUJKAS_clean_linker_0, # of connection points: 2
# Relax obj value: 0.100
# Max RMSD: 0.151
# Mean RMSD: 0.127
data_MOF--net-llk--node1-WUSLED_clean_sbu_0--node2-EZIPEK_clean_sbu_0--edge1-ZUJKAS_clean_linker_0
_symmetry_space_group_name_H-M    P1
_symmetry_Int_Tables_number       1
_symmetry_cell_setting            triclinic
loop_
_symmetry_equiv_pos_as_xyz
'x, y, z'
_cell_length_a     72.254934
_cell_length_b     72.26868
_cell_length_c     72.294535
_cell_angle_alpha  90.007475
_cell_angle_beta   89.992276
_cell_angle_gamma 90.007718
loop_
_atom_site_label
_atom_site_type_symbol
_atom_site_fract_x
_atom_site_fract_y
_atom_site_fract_z
_atom_type_partial_charge
C0 C 1.0025 0.28001 0.20606 0.0
C1 C 0.00993 0.2969 0.21213 0.0
C2 C 1.00319 0.31103 0.18221 0.0
C3 C 0.01032 0.31225 0.20031 0.0
C4 C 0.99556 0.29407 0.17633 0.0
C5 C 0.99526 0.27873 0.18814 0.0
U6 U 1.00596 0.25847 0.25402 0.0
O7 O 0.98995 0.23576 0.26649 0.0
O8 O 0.01996 0.23275 0.26252 0.0
C9 C 1.0047 0.22542 0.26919 0.0
C10 C 1.00224 0.26366 0.21825 0.0
C11 C 1.00628 0.21544 0.28702 0.0
C12 C 0.0193 0.18936 0.30389 0.0
C13 C 0.01897 0.2008 0.28831 0.0
C14 C 0.9946 0.20733 0.31762 0.0
C15 C 0.00686 0.1922 0.31858 0.0
C16 C 0.99427 0.21882 0.30196 0.0
C17 C 0.01413 0.29442 0.29383 0.0
C18 C 1.00129 0.30376 0.32352 0.0
C19 C 0.03168 0.31447 0.31433 0.0
C20 C 0.03027 0.30442 0.29791 0.0
C21 C 0.01692 0.31483 0.32698 0.0
C22 C 0.99987 0.29367 0.30706 0.0
C23 C 0.01137 0.28779 0.27471 0.0
O24 O 0.01808 0.25951 0.22614 0.0
O25 O 0.98812 0.26262 0.22965 0.0
O26 O 0.99485 0.28157 0.27026 0.0
O27 O 0.02498 0.27844 0.26705 0.0
H28 H 0.01555 0.29817 0.22597 0.0
H29 H 0.01648 0.32498 0.20526 0.0
H30 H 0.98965 0.29267 0.16264 0.0
H31 H 0.98935 0.26584 0.18326 0.0
H32 H 0.02916 0.17808 0.30429 0.0
H33 H 0.02832 0.19784 0.27697 0.0
H34 H 0.98477 0.20987 0.32864 0.0
H35 H 0.98426 0.22995 0.30135 0.0
H36 H 0.98964 0.30381 0.33296 0.0
H37 H 0.04403 0.32262 0.31676 0.0
H38 H 0.04141 0.30532 0.28791 0.0
H39 H 0.98722 0.28613 0.30429 0.0
C40 C 0.8072 0.01025 0.27977 0.0
C41 C 0.80045 0.01469 0.29744 0.0
C42 C 0.83085 0.00877 0.31094 0.0
C43 C 0.81217 0.01402 0.31285 0.0
C44 C 0.83741 1.00403 0.2932 0.0
C45 C 0.82571 1.00481 0.27779 0.0
U46 U 0.75928 0.00968 0.25782 0.0
O47 O 0.74811 0.02743 0.23569 0.0
O48 O 0.74988 0.99734 0.23163 0.0
C49 C 0.74465 0.01335 0.22472 0.0
C50 C 0.79518 0.01136 0.26333 0.0
C51 C 0.72695 0.01378 0.21457 0.0
C52 C 0.71026 0.02354 0.18707 0.0
C53 C 0.72626 0.02361 0.19789 0.0
C54 C 0.6951 1.00394 0.20962 0.0
C55 C 0.69447 0.01363 0.19269 0.0
C56 C 0.71122 1.00403 0.22049 0.0
C57 C 0.71923 1.00224 0.29368 0.0
C58 C 0.68806 0.01409 0.29822 0.0
C59 C 0.69897 0.98818 0.31647 0.0
C60 C 0.71585 0.98874 0.30715 0.0
C61 C 0.68502 1.00116 0.31249 0.0
C62 C 0.70506 0.01466 0.2889 0.0
C63 C 0.73833 1.00436 0.28695 0.0
O64 O 0.78655 0.996 0.25883 0.0
O65 O 0.7845 0.02605 0.26239 0.0
O66 O 0.74342 0.02085 0.28118 0.0
O67 O 0.74521 0.99071 0.27709 0.0
H68 H 0.78617 0.01885 0.29929 0.0
H69 H 0.80665 0.01797 0.32621 0.0
H70 H 0.85158 0.99959 0.29121 0.0
H71 H 0.83113 1.0012 0.26429 0.0
H72 H 0.71048 0.03088 0.17401 0.0
H73 H 0.7383 0.03111 0.19301 0.0
H74 H 0.68315 0.99631 0.21447 0.0
H75 H 0.71145 0.99636 0.23336 0.0
H76 H 0.67751 0.02411 0.29463 0.0
H77 H 0.6973 0.97821 0.32752 0.0
H78 H 0.72666 0.97914 0.31117 0.0
H79 H 0.70734 0.0252 0.2785 0.0
C80 C 1.00387 0.80691 0.28328 0.0
C81 C 0.01116 0.80128 0.30038 0.0
C82 C 1.00425 0.83158 0.31371 0.0
C83 C 0.01137 0.81351 0.31544 0.0
C84 C 0.99673 0.83698 0.29656 0.0
C85 C 0.99658 0.82478 0.28152 0.0
U86 U 0.00786 0.75864 0.26191 0.0
O87 O 0.99237 0.74615 0.23883 0.0
O88 O 0.0224 0.75038 0.23641 0.0
C89 C 0.00731 0.74379 0.22868 0.0
C90 C 1.00396 0.79444 0.26711 0.0
C91 C 0.00916 0.72632 0.21812 0.0
C92 C 0.02176 0.71085 0.19097 0.0
C93 C 0.02127 0.72602 0.20295 0.0
C94 C 0.99843 0.6955 0.20944 0.0
C95 C 0.01008 0.69555 0.1938 0.0
C96 C 0.99792 0.71077 0.22146 0.0
C97 C 0.01534 0.71876 0.29776 0.0
C98 C 1.00483 0.68692 0.3005 0.0
C99 C 0.02846 0.69862 0.3212 0.0
C100 C 0.0278 0.71572 0.31229 0.0
C101 C 0.01664 0.68414 0.31576 0.0
C102 C 1.00417 0.70411 0.29157 0.0
C103 C 0.01275 0.73789 0.29127 0.0
O104 O 0.0199 0.78655 0.26334 0.0
O105 O 0.98989 0.78299 0.26588 0.0
O106 O 0.99635 0.74224 0.2847 0.0
O107 O 0.02653 0.74553 0.28217 0.0
H108 H 0.01683 0.78751 0.30203 0.0
H109 H 0.01744 0.80889 0.32833 0.0
H110 H 0.9908 0.85062 0.29476 0.0
H111 H 0.99079 0.82934 0.26846 0.0
H112 H 0.03115 0.71124 0.1793 0.0
H113 H 0.03002 0.73784 0.2 0.0
H114 H 0.9892 0.68397 0.212 0.0
H115 H 0.98837 0.71063 0.23301 0.0
H116 H 0.99574 0.67597 0.2958 0.0
H117 H 0.03753 0.69712 0.33303 0.0
H118 H 0.03641 0.72689 0.31737 0.0
H119 H 0.99446 0.70613 0.28033 0.0
C120 C 0.20565 0.01098 0.28202 0.0
C121 C 0.21223 0.01624 0.29953 0.0
C122 C 0.18171 0.01088 0.31307 0.0
C123 C 0.20038 0.01625 0.31488 0.0
C124 C 0.1753 1.00543 0.29548 0.0
C125 C 0.18713 1.00552 0.28015 0.0
U126 U 0.25376 0.00763 0.26055 0.0
O127 O 0.26605 0.02323 0.23746 0.0
O128 O 0.26262 0.99309 0.23523 0.0
C129 C 0.26896 0.00828 0.22747 0.0
C130 C 0.2179 0.01092 0.26567 0.0
C131 C 0.28667 0.00686 0.21717 0.0
C132 C 0.30337 0.99349 0.19112 0.0
C133 C 0.28817 0.99357 0.20309 0.0
C134 C 0.31638 0.01966 0.20744 0.0
C135 C 0.31748 0.00679 0.19283 0.0
C136 C 0.3011 0.01975 0.21945 0.0
C137 C 0.29312 1.0006 0.29759 0.0
C138 C 0.32157 0.01398 0.30968 0.0
C139 C 0.31312 0.98259 0.31777 0.0
C140 C 0.29731 0.984 0.30678 0.0
C141 C 0.32505 0.99779 0.3199 0.0
C142 C 0.30571 0.0154 0.29867 0.0
C143 C 0.27423 1.00318 0.29019 0.0
O144 O 0.22912 0.02516 0.26407 0.0
O145 O 0.226 0.99507 0.26201 0.0
O146 O 0.26681 0.98929 0.28107 0.0
O147 O 0.26988 0.0195 0.28341 0.0
H148 H 0.22652 0.02041 0.30132 0.0
H149 H 0.2058 0.02073 0.3281 0.0
H150 H 0.16116 1.00087 0.29356 0.0
H151 H 0.18182 1.00126 0.26679 0.0
H152 H 0.30389 0.98316 0.18027 0.0
H153 H 0.27721 0.98356 0.20093 0.0
H154 H 0.32694 0.03016 0.20912 0.0
H155 H 0.30032 0.03027 0.23008 0.0
H156 H 0.33045 0.02597 0.3111 0.0
H157 H 0.3156 0.96984 0.32524 0.0
H158 H 0.28778 0.97243 0.30634 0.0
H159 H 0.30282 0.02845 0.29188 0.0
C160 C 0.01014 0.73364 0.80617 0.0
C161 C 1.00213 0.71686 0.80053 0.0
C162 C 0.0086 0.70318 0.83075 0.0
C163 C 1.00133 0.70179 0.81271 0.0
C164 C 0.01677 0.72002 0.8362 0.0
C165 C 0.01749 0.73507 0.82405 0.0
U166 U 0.00871 0.75491 0.7577 0.0
O167 O 0.02636 0.77696 0.7461 0.0
O168 O 0.99631 0.78113 0.74847 0.0
C169 C 0.01224 0.78799 0.74294 0.0
C170 C 0.01111 0.74969 0.79362 0.0
C171 C 0.01243 0.79866 0.72548 0.0
C172 C 0.02422 0.82545 0.70887 0.0
C173 C 0.02493 0.81342 0.72397 0.0
C174 C 0.99886 0.80777 0.69598 0.0
C175 C 0.01095 0.82304 0.69485 0.0
C176 C 0.99953 0.79571 0.71122 0.0
C177 C 1.00074 0.71881 0.71777 0.0
C178 C 0.01426 0.70837 0.68874 0.0
C179 C 0.98326 0.69883 0.69712 0.0
C180 C 0.98444 0.70921 0.71335 0.0
C181 C 0.9984 0.69773 0.68498 0.0
C182 C 0.01546 0.71878 0.70503 0.0
C183 C 1.00306 0.72573 0.73685 0.0
O184 O 0.02558 0.75017 0.78264 0.0
O185 O 0.99563 0.75417 0.78519 0.0
O186 O 0.98952 0.73562 0.74392 0.0
O187 O 0.01962 0.73142 0.74185 0.0
H188 H 0.99644 0.71545 0.78674 0.0
H189 H 0.99478 0.68914 0.80807 0.0
H190 H 0.02281 0.72154 0.84982 0.0
H191 H 0.02387 0.74786 0.8286 0.0
H192 H 0.03396 0.83683 0.70829 0.0
H193 H 0.03497 0.81599 0.7348 0.0
H194 H 0.98844 0.80554 0.68545 0.0
H195 H 0.98969 0.78444 0.71209 0.0
H196 H 0.02619 0.70775 0.67968 0.0
H197 H 0.97074 0.69103 0.69444 0.0
H198 H 0.97295 0.70889 0.72298 0.0
H199 H 0.02826 0.72595 0.70808 0.0
C200 C 0.20787 0.00745 0.73293 0.0
C201 C 0.21398 1.00248 0.71516 0.0
C202 C 0.18326 0.00867 0.70243 0.0
C203 C 0.20179 1.00303 0.70008 0.0
C204 C 0.17737 0.01393 0.72025 0.0
C205 C 0.18953 0.01329 0.73531 0.0
U206 U 0.25625 0.0074 0.75464 0.0
O207 O 0.26588 0.02013 0.78057 0.0
O208 O 0.26697 0.98991 0.77725 0.0
C209 C 0.2707 1.00418 0.7879 0.0
C210 C 0.22028 0.0064 0.74913 0.0
C211 C 0.28812 1.00351 0.79866 0.0
C212 C 0.30425 0.99144 0.82563 0.0
C213 C 0.28912 0.99118 0.8136 0.0
C214 C 0.31818 0.01599 0.80762 0.0
C215 C 0.31883 1.00407 0.82304 0.0
C216 C 0.30291 0.01578 0.79556 0.0
C217 C 0.29666 0.01322 0.71863 0.0
C218 C 0.32538 0.99877 0.70854 0.0
C219 C 0.31793 0.02988 0.69861 0.0
C220 C 0.3016 0.02927 0.70889 0.0
C221 C 0.32966 0.0144 0.69777 0.0
C222 C 0.30897 0.99814 0.71883 0.0
C223 C 0.27748 0.01158 0.7255 0.0
O224 O 0.23067 0.99152 0.75023 0.0
O225 O 0.22928 0.02165 0.75325 0.0
O226 O 0.27078 0.02558 0.73499 0.0
O227 O 0.27196 0.99533 0.73159 0.0
H228 H 0.22811 0.99798 0.71299 0.0
H229 H 0.20681 0.9987 0.68665 0.0
H230 H 0.16335 0.01869 0.72259 0.0
H231 H 0.18458 0.0173 0.74888 0.0
H232 H 0.30443 0.98183 0.83712 0.0
H233 H 0.27788 0.98162 0.81629 0.0
H234 H 0.32915 0.02593 0.80524 0.0
H235 H 0.30246 0.02548 0.78415 0.0
H236 H 0.33413 0.98661 0.70811 0.0
H237 H 0.321 0.04223 0.69068 0.0
H238 H 0.29231 0.04103 0.70838 0.0
H239 H 0.3055 0.98551 0.72612 0.0
C240 C 1.00581 0.21815 0.72702 0.0
C241 C 0.9894 0.21629 0.7167 0.0
C242 C 1.00468 0.19501 0.69535 0.0
C243 C 0.98886 0.20486 0.70104 0.0
C244 C 0.02123 0.19745 0.7053 0.0
C245 C 0.02176 0.20881 0.72096 0.0
U246 U 1.00382 0.26011 0.76136 0.0
O247 O 0.02056 0.26327 0.78655 0.0
O248 O 0.99041 0.26072 0.78876 0.0
C249 C 1.00597 0.26457 0.79733 0.0
C250 C 1.00609 0.22754 0.74528 0.0
C251 C 1.00547 0.28097 0.80947 0.0
C252 C 0.99941 0.29463 0.83959 0.0
C253 C 0.99987 0.27917 0.82793 0.0
C254 C 0.01008 0.31396 0.81439 0.0
C255 C 1.00461 0.31224 0.83301 0.0
C256 C 0.01042 0.29851 0.80272 0.0
C257 C 0.99737 0.29762 0.72267 0.0
C258 C 0.98365 0.32132 0.70323 0.0
C259 C 0.00968 0.30348 0.69193 0.0
C260 C 0.00997 0.29342 0.70849 0.0
C261 C 0.99684 0.31791 0.68934 0.0
C262 C 0.98393 0.31127 0.71969 0.0
C263 C 0.99932 0.29013 0.7415 0.0
O264 O 0.02063 0.23781 0.7491 0.0
O265 O 0.99047 0.23462 0.75141 0.0
O266 O 0.01564 0.28366 0.7463 0.0
O267 O 0.98539 0.28047 0.7481 0.0
H268 H 0.97682 0.22318 0.72102 0.0
H269 H 0.97595 0.2035 0.69356 0.0
H270 H 0.03362 0.18992 0.7015 0.0
H271 H 0.03452 0.20972 0.72878 0.0
H272 H 0.9948 0.2928 0.85372 0.0
H273 H 0.99584 0.26578 0.83334 0.0
H274 H 0.0144 0.3272 0.80886 0.0
H275 H 0.01469 0.30023 0.78846 0.0
H276 H 0.97373 0.33246 0.70188 0.0
H277 H 0.01985 0.30032 0.68139 0.0
H278 H 0.02047 0.28291 0.71045 0.0
H279 H 0.9742 0.31486 0.73053 0.0
C280 C 0.73242 1.00481 0.80809 0.0
C281 C 0.71501 0.99876 0.80191 0.0
C282 C 0.70158 1.00525 0.83223 0.0
C283 C 0.69975 0.99892 0.81388 0.0
C284 C 0.71902 0.01162 0.83817 0.0
C285 C 0.73426 0.01136 0.82623 0.0
U286 U 0.75497 1.00586 0.76016 0.0
O287 O 0.78098 0.01905 0.75135 0.0
O288 O 0.77796 0.98884 0.74961 0.0
C289 C 0.7886 1.00326 0.74649 0.0
C290 C 0.74883 1.00416 0.79595 0.0
C291 C 0.79935 1.00311 0.72918 0.0
C292 C 0.82887 0.9974 0.71414 0.0
C293 C 0.81787 0.99745 0.73001 0.0
C294 C 0.80294 0.00869 0.69616 0.0
C295 C 0.8216 1.00299 0.69698 0.0
C296 C 0.79187 0.00871 0.71215 0.0
C297 C 0.71993 0.0121 0.71903 0.0
C298 C 0.71002 0.99797 0.6901 0.0
C299 C 0.70093 0.02939 0.69732 0.0
C300 C 0.71083 0.02846 0.71387 0.0
C301 C 0.69984 0.01393 0.6856 0.0
C302 C 0.71993 0.99702 0.70672 0.0
C303 C 0.72627 0.01017 0.73837 0.0
O304 O 0.75028 0.98946 0.78534 0.0
O305 O 0.75293 0.01962 0.78732 0.0
O306 O 0.73545 0.02413 0.74557 0.0
O307 O 0.73236 0.99388 0.74376 0.0
H308 H 0.71325 0.99372 0.78791 0.0
H309 H 0.68663 0.99374 0.80884 0.0
H310 H 0.72091 0.01694 0.85205 0.0
H311 H 0.74754 0.01621 0.83122 0.0
H312 H 0.84322 0.99328 0.71542 0.0
H313 H 0.82391 0.99319 0.74305 0.0
H314 H 0.79687 0.01296 0.68316 0.0
H315 H 0.77757 0.01312 0.71125 0.0
H316 H 0.70939 0.9858 0.68137 0.0
H317 H 0.69347 0.04198 0.69408 0.0
H318 H 0.71047 0.04024 0.72315 0.0
H319 H 0.72672 0.98416 0.71033 0.0
C320 C 0.20733 0.28146 0.00945 0.0
C321 C 0.21333 0.29864 1.00264 0.0
C322 C 0.18267 0.31184 0.00799 0.0
C323 C 0.20111 0.31368 1.00189 0.0
C324 C 0.17684 0.29457 0.01489 0.0
C325 C 0.18905 0.27956 0.01559 0.0
U326 U 0.25597 0.26062 0.00816 0.0
O327 O 0.26778 0.23877 0.0259 0.0
O328 O 0.26546 0.23443 0.9959 0.0
C329 C 0.27112 0.22773 0.01184 0.0
C330 C 0.21998 0.26549 0.01048 0.0
C331 C 0.28892 0.21769 0.01199 0.0
C332 C 0.30627 0.19086 0.02255 0.0
C333 C 0.29038 0.20186 0.02309 0.0
C334 C 0.31983 0.21158 1.0 0.0
C335 C 0.32117 0.19543 0.01088 0.0
C336 C 0.30384 0.22263 1.00055 0.0
C337 C 0.2958 0.29632 1.00025 0.0
C338 C 0.32767 0.29827 0.01087 0.0
C339 C 0.31644 0.31955 0.98753 0.0
C340 C 0.29916 0.31099 0.98805 0.0
C341 C 0.3308 0.3136 0.99924 0.0
C342 C 0.31028 0.28969 0.01137 0.0
C343 C 0.2766 0.28991 1.0024 0.0
O344 O 0.22848 0.26106 0.99503 0.0
O345 O 0.23095 0.26516 0.02496 0.0
O346 O 0.27161 0.28428 0.01896 0.0
O347 O 0.26966 0.27991 0.98889 0.0
H348 H 0.22745 0.30039 0.99789 0.0
H349 H 0.20605 0.32668 0.99631 0.0
H350 H 0.16289 0.29269 0.02002 0.0
H351 H 0.18421 0.26645 0.02101 0.0
H352 H 0.30658 0.17842 0.03089 0.0
H353 H 0.27897 0.19771 0.0319 0.0
H354 H 0.3311 0.21565 0.99101 0.0
H355 H 0.30303 0.23481 0.99186 0.0
H356 H 0.3385 0.2932 0.01989 0.0
H357 H 0.3182 0.33146 0.97862 0.0
H358 H 0.28812 0.31639 0.97946 0.0
H359 H 0.30799 0.27832 0.02088 0.0
C360 C 0.28081 0.80683 0.0075 0.0
C361 C 0.29868 0.80081 1.00283 0.0
C362 C 0.31103 0.83164 0.009 0.0
C363 C 0.31365 0.81311 1.00353 0.0
C364 C 0.2931 0.83745 0.01395 0.0
C365 C 0.27816 0.82517 0.01316 0.0
U366 U 0.25945 0.75836 0.00762 0.0
O367 O 0.23709 0.74744 0.98997 0.0
O368 O 0.23333 0.74903 0.02012 0.0
C369 C 0.22621 0.74402 1.00414 0.0
C370 C 0.26476 0.7943 1.00634 0.0
C371 C 0.21564 0.72658 1.00368 0.0
C372 C 0.18767 0.71074 0.99386 0.0
C373 C 0.19926 0.72617 0.99333 0.0
C374 C 0.20899 0.69543 0.01468 0.0
C375 C 0.19218 0.69531 1.0048 0.0
C376 C 0.22063 0.711 0.01419 0.0
C377 C 0.29479 0.71767 0.01434 0.0
C378 C 0.30474 0.6887 1.00029 0.0
C379 C 0.31308 0.69563 0.03197 0.0
C380 C 0.30344 0.71232 0.03088 0.0
C381 C 0.31439 0.68393 0.0165 0.0
C382 C 0.29508 0.70546 0.99918 0.0
C383 C 0.28843 0.73702 0.01245 0.0
O384 O 0.26399 0.78376 0.99154 0.0
O385 O 0.26054 0.78544 0.02163 0.0
O386 O 0.27882 0.74399 0.02624 0.0
O387 O 0.28268 0.74251 0.99608 0.0
H388 H 0.30104 0.78666 0.99848 0.0
H389 H 0.32719 0.80818 0.99944 0.0
H390 H 0.29059 0.85148 0.01857 0.0
H391 H 0.26448 0.83003 0.01694 0.0
H392 H 0.17504 0.71098 0.98579 0.0
H393 H 0.19518 0.73804 0.98512 0.0
H394 H 0.21284 0.68377 0.02326 0.0
H395 H 0.23323 0.71104 0.0223 0.0
H396 H 0.30557 0.68003 0.9881 0.0
H397 H 0.32012 0.6922 0.04475 0.0
H398 H 0.30357 0.72152 0.04272 0.0
H399 H 0.28865 0.70922 0.98619 0.0
C400 C 0.7344 0.20744 1.0043 0.0
C401 C 0.71684 0.21356 0.99865 0.0
C402 C 0.70384 0.18286 1.00431 0.0
C403 C 0.70173 0.20139 0.9986 0.0
C404 C 0.72148 0.17691 0.01012 0.0
C405 C 0.73657 0.18906 0.01007 0.0
U406 U 0.75538 0.25591 0.00777 0.0
O407 O 0.78044 0.26471 0.02279 0.0
O408 O 0.77873 0.26833 0.99265 0.0
C409 C 0.78847 0.27112 0.00778 0.0
C410 C 0.75052 0.22 1.00449 0.0
C411 C 0.79852 0.28888 0.00953 0.0
C412 C 0.82569 0.30511 0.02108 0.0
C413 C 0.81455 0.28932 0.02045 0.0
C414 C 0.80474 0.32069 1.00012 0.0
C415 C 0.8211 0.32097 0.01077 0.0
C416 C 0.79355 0.30479 0.9995 0.0
C417 C 0.71873 0.29546 0.01434 0.0
C418 C 0.71068 0.32563 1.00172 0.0
C419 C 0.69727 0.3155 0.0307 0.0
C420 C 0.70732 0.29906 0.02962 0.0
C421 C 0.69833 0.32867 0.01645 0.0
C422 C 0.72077 0.30911 1.00063 0.0
C423 C 0.72573 0.27644 0.01182 0.0
O424 O 0.75213 0.23121 0.99025 0.0
O425 O 0.75388 0.22817 0.02036 0.0
O426 O 0.73455 0.26891 0.02582 0.0
O427 O 0.73271 0.27205 0.99559 0.0
H428 H 0.71481 0.22774 0.99423 0.0
H429 H 0.68846 0.20646 0.99384 0.0
H430 H 0.72362 0.16289 0.01495 0.0
H431 H 0.74996 0.1841 0.01463 0.0
H432 H 0.83828 0.30462 0.02918 0.0
H433 H 0.81879 0.27716 0.02815 0.0
H434 H 0.80063 0.3327 0.99218 0.0
H435 H 0.78125 0.30485 0.99094 0.0
H436 H 0.71175 0.33552 0.99051 0.0
H437 H 0.6881 0.31759 0.04237 0.0
H438 H 0.70543 0.28872 0.04031 0.0
H439 H 0.72942 0.30669 0.98863 0.0
C440 C 0.80518 0.73398 0.01397 0.0
C441 C 0.79934 0.7168 0.00705 0.0
C442 C 0.82998 0.70368 0.01268 0.0
C443 C 0.81162 0.7018 1.00638 0.0
C444 C 0.83568 0.72096 0.01969 0.0
C445 C 0.8234 0.73593 0.0203 0.0
U446 U 0.75642 0.75424 0.0118 0.0
O447 O 0.74365 0.77567 0.02939 0.0
O448 O 0.74682 0.78039 0.99954 0.0
C449 C 0.74024 0.78668 0.01531 0.0
C450 C 0.79242 0.74988 0.01491 0.0
C451 C 0.72199 0.79612 0.01499 0.0
C452 C 0.70028 0.81683 0.03044 0.0
C453 C 0.71598 0.8055 0.03092 0.0
C454 C 0.69587 0.80931 0.99813 0.0
C455 C 0.6902 0.81919 0.01395 0.0
C456 C 0.71159 0.79792 0.99863 0.0
C457 C 0.7174 0.718 1.00276 0.0
C458 C 0.68533 0.71578 0.01269 0.0
C459 C 0.6973 0.69447 0.98975 0.0
C460 C 0.71448 0.70323 0.99057 0.0
C461 C 0.68263 0.70032 1.00111 0.0
C462 C 0.7026 0.72456 0.01352 0.0
C463 C 0.73647 0.72463 1.00532 0.0
O464 O 0.78422 0.75439 0.99932 0.0
O465 O 0.78113 0.74999 0.02914 0.0
O466 O 0.74104 0.73017 0.02203 0.0
O467 O 0.74352 0.73488 0.99206 0.0
H468 H 0.78528 0.715 1.00214 0.0
H469 H 0.80678 0.6888 1.00071 0.0
H470 H 0.84957 0.72288 0.02496 0.0
H471 H 0.82813 0.74905 0.02581 0.0
H472 H 0.69654 0.82438 0.04282 0.0
H473 H 0.72386 0.80463 0.04364 0.0
H474 H 0.68831 0.81059 0.98526 0.0
H475 H 0.71585 0.79097 0.98606 0.0
H476 H 0.67425 0.72078 0.02144 0.0
H477 H 0.69588 0.68247 0.98089 0.0
H478 H 0.72577 0.69789 0.98226 0.0
H479 H 0.70456 0.736 0.023 0.0
C480 C 0.50373 0.78131 0.70848 0.0
C481 C 0.51102 0.79835 0.7143 0.0
C482 C 0.50565 0.81153 0.68364 0.0
C483 C 0.512 0.81331 0.70199 0.0
C484 C 0.49823 0.79441 0.678 0.0
C485 C 0.49731 0.77948 0.69029 0.0
U486 U 0.5042 0.76033 0.75715 0.0
O487 O 0.51636 0.7341 0.76666 0.0
O488 O 0.48629 0.73836 0.76849 0.0
C489 C 0.50033 0.72734 0.77202 0.0
C490 C 0.50253 0.76538 0.72116 0.0
C491 C 0.49984 0.717 0.78967 0.0
C492 C 0.48722 0.69097 0.80688 0.0
C493 C 0.48683 0.70273 0.79155 0.0
C494 C 0.51331 0.70796 0.81924 0.0
C495 C 0.50069 0.69316 0.82075 0.0
C496 C 0.51294 0.71975 0.80379 0.0
C497 C 0.51137 0.79597 0.79745 0.0
C498 C 0.4973 0.80546 0.82654 0.0
C499 C 0.52846 0.81524 0.81908 0.0
C500 C 0.52758 0.80541 0.80248 0.0
C501 C 0.51309 0.81594 0.83097 0.0
C502 C 0.49641 0.79559 0.8099 0.0
C503 C 0.50949 0.78945 0.77817 0.0
O504 O 0.51784 0.76098 0.72993 0.0
O505 O 0.48784 0.76499 0.73187 0.0
O506 O 0.49303 0.78388 0.77273 0.0
O507 O 0.52315 0.77958 0.77131 0.0
H508 H 0.516 0.80006 0.72834 0.0
H509 H 0.51797 0.82619 0.70679 0.0
H510 H 0.49288 0.79257 0.66413 0.0
H511 H 0.49151 0.76647 0.68558 0.0
H512 H 0.47708 0.67996 0.80774 0.0
H513 H 0.47662 0.70032 0.78083 0.0
H514 H 0.5239 0.71 0.82963 0.0
H515 H 0.52318 0.73064 0.80265 0.0
H516 H 0.4852 0.80579 0.83538 0.0
H517 H 0.54094 0.82292 0.82225 0.0
H518 H 0.53927 0.80601 0.7931 0.0
H519 H 0.48368 0.78851 0.80639 0.0
C520 C 0.30597 0.50997 0.78101 0.0
C521 C 0.30005 0.5027 0.79801 0.0
C522 C 0.33023 0.50928 0.81169 0.0
C523 C 0.31208 0.50231 0.8132 0.0
C524 C 0.33594 0.51678 0.79463 0.0
C525 C 0.32393 0.51708 0.77945 0.0
U526 U 0.25774 0.50649 0.76003 0.0
O527 O 0.24512 0.52223 0.73722 0.0
O528 O 0.24905 0.49217 0.73457 0.0
C529 C 0.24245 0.50736 0.72704 0.0
C530 C 0.2936 0.51013 0.76481 0.0
C531 C 0.22474 0.5057 0.71686 0.0
C532 C 0.20834 0.49252 0.69058 0.0
C533 C 0.22365 0.49284 0.70236 0.0
C534 C 0.19443 0.51754 0.70794 0.0
C535 C 0.19372 0.50514 0.69292 0.0
C536 C 0.20983 0.51788 0.71977 0.0
C537 C 0.21837 0.49903 0.79648 0.0
C538 C 0.18666 0.50977 0.7999 0.0
C539 C 0.19857 0.48596 0.82026 0.0
C540 C 0.2155 0.48652 0.81101 0.0
C541 C 0.1841 0.49793 0.81517 0.0
C542 C 0.20368 0.51033 0.79063 0.0
C543 C 0.23739 0.50153 0.78966 0.0
O544 O 0.28559 0.49427 0.76093 0.0
O545 O 0.28224 0.52428 0.76376 0.0
O546 O 0.24175 0.51795 0.78312 0.0
O547 O 0.24479 0.48776 0.78035 0.0
H548 H 0.28619 0.49718 0.7995 0.0
H549 H 0.30725 0.49625 0.82602 0.0
H550 H 0.34967 0.52257 0.79302 0.0
H551 H 0.32869 0.52287 0.76647 0.0
H552 H 0.20811 0.48255 0.67939 0.0
H553 H 0.23498 0.48337 0.69975 0.0
H554 H 0.18344 0.5275 0.7101 0.0
H555 H 0.21031 0.52803 0.73078 0.0
H556 H 0.17571 0.51898 0.79547 0.0
H557 H 0.19724 0.47686 0.83208 0.0
H558 H 0.2267 0.4778 0.81583 0.0
H559 H 0.20556 0.52008 0.7794 0.0
C560 C 0.51327 0.30558 0.78055 0.0
C561 C 0.5058 0.29994 0.79758 0.0
C562 C 0.51293 0.33008 0.81113 0.0
C563 C 0.5056 0.31208 0.8127 0.0
C564 C 0.52059 0.33552 0.79405 0.0
C565 C 0.52072 0.3234 0.77894 0.0
U566 U 0.50918 0.25734 0.75917 0.0
O567 O 0.49514 0.24897 0.73341 0.0
O568 O 0.52509 0.2447 0.73649 0.0
C569 C 0.51036 0.24223 0.72607 0.0
C570 C 0.51332 0.29312 0.76437 0.0
C571 C 0.50868 0.22446 0.71601 0.0
C572 C 0.49794 0.20829 0.68848 0.0
C573 C 0.4984 0.22414 0.69956 0.0
C574 C 0.51777 0.19247 0.71032 0.0
C575 C 0.50779 0.19228 0.69355 0.0
C576 C 0.51821 0.2084 0.72145 0.0
C577 C 0.50052 0.21755 0.79503 0.0
C578 C 0.51288 0.1875 0.80387 0.0
C579 C 0.48288 0.19722 0.81519 0.0
C580 C 0.48448 0.21372 0.80528 0.0
C581 C 0.49737 0.18425 0.81516 0.0
C582 C 0.51448 0.20404 0.79392 0.0
C583 C 0.50351 0.23666 0.78844 0.0
O584 O 0.52729 0.28153 0.76339 0.0
O585 O 0.49738 0.28538 0.76031 0.0
O586 O 0.49 0.24449 0.7791 0.0
O587 O 0.52008 0.24094 0.78225 0.0
H588 H 0.5 0.28619 0.79912 0.0
H589 H 0.49941 0.30744 0.82553 0.0
H590 H 0.52666 0.34912 0.79237 0.0
H591 H 0.52665 0.32797 0.76596 0.0
H592 H 0.49035 0.20884 0.67558 0.0
H593 H 0.49109 0.2364 0.69497 0.0
H594 H 0.52534 0.18034 0.7148 0.0
H595 H 0.52627 0.20825 0.73408 0.0
H596 H 0.52431 0.1778 0.80361 0.0
H597 H 0.47061 0.19497 0.8235 0.0
H598 H 0.47356 0.22394 0.80645 0.0
H599 H 0.52705 0.20661 0.78618 0.0
C600 C 0.70777 0.51156 0.78123 0.0
C601 C 0.71426 0.505 0.79831 0.0
C602 C 0.68413 0.51093 0.81243 0.0
C603 C 0.70255 0.50466 0.81376 0.0
C604 C 0.67779 0.51757 0.79524 0.0
C605 C 0.6895 0.51785 0.77982 0.0
U606 U 0.75574 0.50885 0.75926 0.0
O607 O 0.76442 0.49628 0.73292 0.0
O608 O 0.7676 0.52624 0.73716 0.0
C609 C 0.77007 0.51212 0.72596 0.0
C610 C 0.71995 0.51222 0.76488 0.0
C611 C 0.78711 0.51195 0.7147 0.0
C612 C 0.80184 0.52043 0.68569 0.0
C613 C 0.78682 0.5214 0.69778 0.0
C614 C 0.81816 0.50092 0.70749 0.0
C615 C 0.8176 0.50996 0.6902 0.0
C616 C 0.80296 0.50184 0.71963 0.0
C617 C 0.79515 0.49972 0.79585 0.0
C618 C 0.82577 0.51151 0.80329 0.0
C619 C 0.81376 0.48474 0.81947 0.0
C620 C 0.79765 0.48558 0.80887 0.0
C621 C 0.82777 0.49807 0.81726 0.0
C622 C 0.80956 0.51237 0.7927 0.0
C623 C 0.77639 0.50254 0.7884 0.0
O624 O 0.73132 0.52638 0.76423 0.0
O625 O 0.72789 0.49653 0.76026 0.0
O626 O 0.76914 0.48919 0.77838 0.0
O627 O 0.77204 0.51925 0.78264 0.0
H628 H 0.72838 0.50013 0.79969 0.0
H629 H 0.70786 0.49926 0.82668 0.0
H630 H 0.66383 0.5228 0.79373 0.0
H631 H 0.68429 0.5231 0.76678 0.0
H632 H 0.80106 0.52785 0.67269 0.0
H633 H 0.77473 0.52929 0.69372 0.0
H634 H 0.83008 0.49271 0.71137 0.0
H635 H 0.80346 0.4944 0.73263 0.0
H636 H 0.83644 0.52178 0.80099 0.0
H637 H 0.81463 0.47433 0.8302 0.0
H638 H 0.78663 0.47579 0.81166 0.0
H639 H 0.80797 0.52343 0.78271 0.0
C640 C 0.5112 0.23467 0.30747 0.0
C641 C 0.50298 0.21796 0.30195 0.0
C642 C 0.51029 0.20403 0.33186 0.0
C643 C 0.50249 0.2028 0.31404 0.0
C644 C 0.51873 0.22078 0.33717 0.0
C645 C 0.51915 0.23593 0.3251 0.0
U646 U 0.50769 0.25611 0.2593 0.0
O647 O 0.49386 0.28194 0.25081 0.0
O648 O 0.52383 0.27869 0.24676 0.0
C649 C 0.50916 0.28916 0.24411 0.0
C650 C 0.51151 0.2509 0.29509 0.0
C651 C 0.50763 0.29905 0.22624 0.0
C652 C 0.49647 0.32612 0.20959 0.0
C653 C 0.49685 0.31518 0.22552 0.0
C654 C 0.51739 0.30479 0.19447 0.0
C655 C 0.50691 0.32124 0.1939 0.0
C656 C 0.51775 0.29379 0.21048 0.0
C657 C 0.49912 0.22038 0.21943 0.0
C658 C 0.51161 0.21191 0.18932 0.0
C659 C 0.48163 0.20036 0.19885 0.0
C660 C 0.48314 0.2101 0.21545 0.0
C661 C 0.49614 0.20059 0.18591 0.0
C662 C 0.51312 0.2217 0.20597 0.0
C663 C 0.50199 0.22686 0.23858 0.0
O664 O 0.52559 0.25178 0.28362 0.0
O665 O 0.49566 0.25513 0.28723 0.0
O666 O 0.48848 0.23628 0.24632 0.0
O667 O 0.51857 0.23293 0.243 0.0
H668 H 0.4968 0.21668 0.28836 0.0
H669 H 0.4957 0.19023 0.30951 0.0
H670 H 0.52519 0.22218 0.35061 0.0
H671 H 0.52567 0.24867 0.32957 0.0
H672 H 0.48846 0.33879 0.20983 0.0
H673 H 0.48908 0.31963 0.23755 0.0
H674 H 0.52542 0.30047 0.18258 0.0
H675 H 0.52619 0.28141 0.21062 0.0
H676 H 0.52306 0.21232 0.17966 0.0
H677 H 0.46939 0.19203 0.19648 0.0
H678 H 0.4722 0.20879 0.22562 0.0
H679 H 0.52565 0.22947 0.20865 0.0
C680 C 0.70739 0.51159 0.23333 0.0
C681 C 0.71357 0.50573 0.21588 0.0
C682 C 0.68301 0.51162 0.20268 0.0
C683 C 0.7015 0.50572 0.2007 0.0
C684 C 0.67702 0.51766 0.22021 0.0
C685 C 0.68908 0.51762 0.23536 0.0
U686 U 0.75559 0.5073 0.25464 0.0
O687 O 0.7682 0.52264 0.27774 0.0
O688 O 0.76393 0.49262 0.28004 0.0
C689 C 0.77056 0.50767 0.28782 0.0
C690 C 0.71979 0.51135 0.24954 0.0
C691 C 0.78817 0.50575 0.2981 0.0
C692 C 0.80376 0.49484 0.32588 0.0
C693 C 0.78806 0.4956 0.31463 0.0
C694 C 0.82032 0.51412 0.30407 0.0
C695 C 0.82008 0.50423 0.3209 0.0
C696 C 0.80451 0.51487 0.29277 0.0
C697 C 0.79525 0.49989 0.21848 0.0
C698 C 0.82714 0.51024 0.21566 0.0
C699 C 0.8151 0.4871 0.1946 0.0
C700 C 0.79808 0.4877 0.20369 0.0
C701 C 0.8297 0.49873 0.20014 0.0
C702 C 0.81003 0.51083 0.22477 0.0
C703 C 0.77619 0.5025 0.22516 0.0
O704 O 0.72762 0.49536 0.2532 0.0
O705 O 0.7313 0.52536 0.25087 0.0
O706 O 0.77194 0.51888 0.23186 0.0
O707 O 0.76857 0.48869 0.23423 0.0
H708 H 0.72769 0.50103 0.21403 0.0
H709 H 0.70657 0.50079 0.1875 0.0
H710 H 0.66301 0.52261 0.22223 0.0
H711 H 0.68409 0.52229 0.2487 0.0
H712 H 0.80287 0.48735 0.33882 0.0
H713 H 0.77557 0.48862 0.31913 0.0
H714 H 0.83269 0.52134 0.29967 0.0
H715 H 0.80498 0.52282 0.28007 0.0
H716 H 0.83819 0.51917 0.22044 0.0
H717 H 0.81642 0.47827 0.18258 0.0
H718 H 0.7868 0.47927 0.19853 0.0
H719 H 0.80817 0.52033 0.23621 0.0
C720 C 0.50584 0.70766 0.23275 0.0
C721 C 0.51005 0.71382 0.21481 0.0
C722 C 0.50422 0.68292 0.20244 0.0
C723 C 0.5093 0.70156 0.19982 0.0
C724 C 0.49972 0.67696 0.22045 0.0
C725 C 0.50056 0.6892 0.23542 0.0
U726 U 0.50536 0.75617 0.25384 0.0
O727 O 0.52338 0.76765 0.27563 0.0
O728 O 0.49333 0.76577 0.28009 0.0
C729 C 0.5094 0.77122 0.2867 0.0
C730 C 0.50709 0.72019 0.24881 0.0
C731 C 0.50994 0.78895 0.29689 0.0
C732 C 0.52297 0.80647 0.32249 0.0
C733 C 0.52324 0.79105 0.31085 0.0
C734 C 0.49642 0.81849 0.30599 0.0
C735 C 0.50933 0.8202 0.3205 0.0
C736 C 0.49667 0.80295 0.29432 0.0
C737 C 0.49755 0.7961 0.2182 0.0
C738 C 0.50831 0.8279 0.21596 0.0
C739 C 0.48444 0.81675 0.19523 0.0
C740 C 0.48504 0.79949 0.20381 0.0
C741 C 0.49635 0.83106 0.20089 0.0
C742 C 0.50892 0.81053 0.22456 0.0
C743 C 0.49967 0.77691 0.22463 0.0
O744 O 0.52175 0.73095 0.24931 0.0
O745 O 0.49175 0.72885 0.25331 0.0
O746 O 0.48614 0.77005 0.23468 0.0
O747 O 0.51623 0.77179 0.23019 0.0
H748 H 0.51409 0.72806 0.21243 0.0
H749 H 0.51305 0.70663 0.18623 0.0
H750 H 0.4954 0.66284 0.22299 0.0
H751 H 0.49714 0.68421 0.24914 0.0
H752 H 0.53334 0.8075 0.33326 0.0
H753 H 0.53359 0.78043 0.31312 0.0
H754 H 0.4857 0.82879 0.30411 0.0
H755 H 0.48622 0.80165 0.28366 0.0
H756 H 0.5175 0.83869 0.22081 0.0
H757 H 0.47528 0.81851 0.18351 0.0
H758 H 0.47626 0.78849 0.19863 0.0
H759 H 0.51866 0.80821 0.23571 0.0
C760 C 0.23314 0.50075 0.30597 0.0
C761 C 0.21928 0.51421 0.30366 0.0
C762 C 0.20216 0.50157 0.32985 0.0
C763 C 0.20399 0.51467 0.31557 0.0
C764 C 0.216 0.48806 0.332 0.0
C765 C 0.23135 0.4877 0.32021 0.0
U766 U 0.25528 0.5034 0.25794 0.0
O767 O 0.28206 0.51511 0.24944 0.0
O768 O 0.27679 0.48534 0.24602 0.0
C769 C 0.28841 0.49911 0.24353 0.0
C770 C 0.24942 0.49986 0.29362 0.0
C771 C 0.2992 0.49911 0.22622 0.0
C772 C 0.327 0.489 0.21025 0.0
C773 C 0.31524 0.48825 0.22554 0.0
C774 C 0.30654 0.51112 0.1956 0.0
C775 C 0.32301 0.50066 0.19521 0.0
C776 C 0.29474 0.51041 0.21104 0.0
C777 C 0.22002 0.51368 0.21801 0.0
C778 C 0.21602 0.50308 0.18635 0.0
C779 C 0.19689 0.5279 0.19826 0.0
C780 C 0.20617 0.52692 0.21515 0.0
C781 C 0.2013 0.51562 0.18381 0.0
C782 C 0.2253 0.50209 0.20334 0.0
C783 C 0.22653 0.51072 0.23707 0.0
O784 O 0.24974 0.48576 0.28217 0.0
O785 O 0.25466 0.51548 0.28589 0.0
O786 O 0.23687 0.52371 0.24451 0.0
O787 O 0.23163 0.49384 0.24154 0.0
H788 H 0.22023 0.52433 0.29265 0.0
H789 H 0.19346 0.52513 0.31344 0.0
H790 H 0.21511 0.4779 0.34297 0.0
H791 H 0.24186 0.4772 0.32222 0.0
H792 H 0.33934 0.48049 0.21028 0.0
H793 H 0.31892 0.47943 0.2371 0.0
H794 H 0.30309 0.52026 0.18425 0.0
H795 H 0.2824 0.51892 0.21129 0.0
H796 H 0.21997 0.49364 0.17541 0.0
H797 H 0.1855 0.53755 0.19699 0.0
H798 H 0.20179 0.53588 0.22635 0.0
H799 H 0.236 0.49177 0.20523 0.0
C800 C 0.78116 0.706 0.49993 0.0
C801 C 0.79836 0.71226 0.50644 0.0
C802 C 0.8121 0.68202 0.50029 0.0
C803 C 0.81368 0.70038 0.50665 0.0
C804 C 0.79482 0.67593 0.49362 0.0
C805 C 0.77952 0.6878 0.49347 0.0
U806 U 0.76003 0.75402 0.50448 0.0
O807 O 0.73755 0.76716 0.48868 0.0
O808 O 0.73428 0.76241 0.51854 0.0
C809 C 0.72705 0.76939 0.50338 0.0
C810 C 0.76488 0.71828 0.49986 0.0
C811 C 0.71685 0.78705 0.50528 0.0
C812 C 0.68927 0.80282 0.51648 0.0
C813 C 0.70064 0.78719 0.51594 0.0
C814 C 0.71037 0.81882 0.49599 0.0
C815 C 0.69381 0.81879 0.50633 0.0
C816 C 0.72178 0.80311 0.49546 0.0
C817 C 0.79717 0.79264 0.51385 0.0
C818 C 0.80328 0.82403 0.50339 0.0
C819 C 0.82113 0.81101 0.52858 0.0
C820 C 0.81089 0.79469 0.52738 0.0
C821 C 0.81786 0.82568 0.51623 0.0
C822 C 0.79303 0.80762 0.50218 0.0
C823 C 0.78973 0.77396 0.51059 0.0
O824 O 0.7607 0.72581 0.51587 0.0
O825 O 0.76403 0.73006 0.48605 0.0
O826 O 0.78339 0.77026 0.49394 0.0
O827 O 0.78007 0.76629 0.52396 0.0
H828 H 0.7999 0.72631 0.51146 0.0
H829 H 0.82667 0.70551 0.51207 0.0
H830 H 0.79313 0.66202 0.48832 0.0
H831 H 0.76638 0.68276 0.48829 0.0
H832 H 0.67654 0.80209 0.52436 0.0
H833 H 0.69642 0.77491 0.52346 0.0
H834 H 0.71443 0.83095 0.48818 0.0
H835 H 0.73421 0.80339 0.48709 0.0
H836 H 0.80019 0.83519 0.49388 0.0
H837 H 0.83236 0.81163 0.53848 0.0
H838 H 0.81443 0.78324 0.5364 0.0
H839 H 0.78247 0.80638 0.49162 0.0
C840 C 0.77838 0.30824 0.51298 0.0
C841 C 0.7954 0.30168 0.50631 0.0
C842 C 0.80952 0.33189 0.51166 0.0
C843 C 0.81082 0.3134 0.50561 0.0
C844 C 0.79238 0.33832 0.51837 0.0
C845 C 0.77698 0.3266 0.51901 0.0
U846 U 0.7572 0.2601 0.51103 0.0
O847 O 0.73585 0.24777 0.52899 0.0
O848 O 0.73076 0.25085 0.49916 0.0
C849 C 0.72448 0.24474 0.51511 0.0
C850 C 0.76216 0.29598 0.51413 0.0
C851 C 0.71468 0.22684 0.51501 0.0
C852 C 0.68799 0.20905 0.52509 0.0
C853 C 0.69866 0.22514 0.52578 0.0
C854 C 0.70944 0.1958 0.50302 0.0
C855 C 0.69311 0.1942 0.51359 0.0
C856 C 0.72016 0.21199 0.50373 0.0
C857 C 0.79331 0.22089 0.50131 0.0
C858 C 0.79693 0.18908 0.51163 0.0
C859 C 0.81686 0.20129 0.4876 0.0
C860 C 0.8076 0.21818 0.48852 0.0
C861 C 0.812 0.18667 0.49949 0.0
C862 C 0.78766 0.20608 0.51256 0.0
C863 C 0.7865 0.23986 0.50409 0.0
O864 O 0.75727 0.2879 0.49859 0.0
O865 O 0.76201 0.28468 0.52835 0.0
O866 O 0.78119 0.24436 0.52089 0.0
O867 O 0.7761 0.24697 0.49098 0.0
H868 H 0.79675 0.28749 0.50165 0.0
H869 H 0.8237 0.30802 0.50017 0.0
H870 H 0.79091 0.35235 0.52343 0.0
H871 H 0.76398 0.33186 0.52434 0.0
H872 H 0.67538 0.20851 0.53318 0.0
H873 H 0.69412 0.23649 0.53446 0.0
H874 H 0.7139 0.18457 0.49416 0.0
H875 H 0.73252 0.21301 0.49531 0.0
H876 H 0.79266 0.17801 0.52078 0.0
H877 H 0.82854 0.2001 0.47828 0.0
H878 H 0.81226 0.22949 0.47983 0.0
H879 H 0.7766 0.20786 0.52252 0.0
C880 C 0.2315 0.70923 0.50569 0.0
C881 C 0.21383 0.71492 0.49993 0.0
C882 C 0.20129 0.68421 0.50657 0.0
C883 C 0.19889 0.70253 0.50032 0.0
C884 C 0.21899 0.67875 0.51264 0.0
C885 C 0.23391 0.69111 0.51216 0.0
U886 U 0.25294 0.75777 0.50662 0.0
O887 O 0.27902 0.76728 0.51918 0.0
O888 O 0.27523 0.76905 0.48907 0.0
C889 C 0.28609 0.77249 0.50324 0.0
C890 C 0.24762 0.72181 0.50476 0.0
C891 C 0.29674 0.78998 0.50279 0.0
C892 C 0.32377 0.80641 0.49121 0.0
C893 C 0.31209 0.79101 0.49097 0.0
C894 C 0.30474 0.82044 0.51492 0.0
C895 C 0.32041 0.82131 0.5033 0.0
C896 C 0.29301 0.80491 0.51469 0.0
C897 C 0.21671 0.7976 0.51398 0.0
C898 C 0.21215 0.82887 0.50242 0.0
C899 C 0.19352 0.81753 0.52787 0.0
C900 C 0.20297 0.80072 0.52727 0.0
C901 C 0.19765 0.83168 0.51516 0.0
C902 C 0.22159 0.81194 0.5018 0.0
C903 C 0.22366 0.77858 0.5118 0.0
O904 O 0.24847 0.73259 0.49014 0.0
O905 O 0.25191 0.73042 0.52018 0.0
O906 O 0.23345 0.77169 0.52549 0.0
O907 O 0.22962 0.77362 0.49533 0.0
H908 H 0.21161 0.72888 0.49494 0.0
H909 H 0.18556 0.70723 0.49535 0.0
H910 H 0.22135 0.66492 0.51789 0.0
H911 H 0.2474 0.68647 0.51678 0.0
H912 H 0.33581 0.80633 0.4823 0.0
H913 H 0.31536 0.77958 0.48182 0.0
H914 H 0.30156 0.83171 0.52426 0.0
H915 H 0.28126 0.80444 0.52397 0.0
H916 H 0.21587 0.83957 0.49261 0.0
H917 H 0.18229 0.819 0.53767 0.0
H918 H 0.19886 0.78978 0.53667 0.0
H919 H 0.23219 0.80985 0.49141 0.0
C920 C 0.30751 0.23254 0.51138 0.0
C921 C 0.30111 0.21488 0.51637 0.0
C922 C 0.33198 0.20192 0.5116 0.0
C923 C 0.31323 0.19974 0.51653 0.0
C924 C 0.3382 0.21966 0.5064 0.0
C925 C 0.3261 0.23478 0.50633 0.0
U926 U 0.25918 0.2538 0.50776 0.0
O927 O 0.24684 0.27699 0.52317 0.0
O928 O 0.25063 0.27914 0.49308 0.0
C929 C 0.24425 0.287 0.50819 0.0
C930 C 0.29503 0.24871 0.51123 0.0
C931 C 0.2266 0.29724 0.50654 0.0
C932 C 0.21089 0.32515 0.49618 0.0
C933 C 0.22662 0.31394 0.49667 0.0
C934 C 0.19449 0.30295 0.51515 0.0
C935 C 0.19464 0.31996 0.50557 0.0
C936 C 0.21033 0.29168 0.51563 0.0
C937 C 0.21939 0.21771 0.50071 0.0
C938 C 0.18745 0.21504 0.51098 0.0
C939 C 0.19937 0.19414 0.48764 0.0
C940 C 0.21646 0.20306 0.48837 0.0
C941 C 0.18478 0.19968 0.49926 0.0
C942 C 0.20465 0.22399 0.51171 0.0
C943 C 0.23848 0.22433 0.50325 0.0
O944 O 0.28699 0.25224 0.49532 0.0
O945 O 0.28373 0.25022 0.5254 0.0
O946 O 0.24286 0.23108 0.51957 0.0
O947 O 0.24604 0.23332 0.48937 0.0
H948 H 0.28676 0.21282 0.52022 0.0
H949 H 0.30795 0.18638 0.5208 0.0
H950 H 0.3524 0.22186 0.50217 0.0
H951 H 0.33127 0.24826 0.50229 0.0
H952 H 0.21171 0.33824 0.48893 0.0
H953 H 0.23907 0.3186 0.48972 0.0
H954 H 0.18217 0.29839 0.52236 0.0
H955 H 0.20994 0.27884 0.52335 0.0
H956 H 0.17643 0.21982 0.51992 0.0
H957 H 0.19797 0.18223 0.47866 0.0
H958 H 0.2277 0.19792 0.47988 0.0
H959 H 0.20659 0.23532 0.52133 0.0
C960 C 1.00611 0.96385 0.5528 0.0
C961 C 0.00716 0.96485 0.46284 0.0
C962 C 1.00249 0.05397 0.5536 0.0
C963 C 1.00382 0.05482 0.46369 0.0
C964 C 0.95755 0.05171 0.5079 0.0
C965 C 0.96212 0.96252 0.5074 0.0
C966 C 0.04714 0.05677 0.50884 0.0
C967 C 0.05213 0.96709 0.50848 0.0
C968 C 0.05044 0.01159 0.46383 0.0
C969 C 0.96072 0.0082 0.46256 0.0
C970 C 0.04921 0.01078 0.55387 0.0
C971 C 0.95916 0.00724 0.5524 0.0
Eu972 Eu 0.00664 0.97429 0.50795 0.0
O973 O 0.9896 0.99224 0.49135 0.0
O974 O 0.02185 0.99372 0.52474 0.0
Eu975 Eu 0.97002 0.00763 0.50766 0.0
Eu976 Eu 0.03986 0.01132 0.50871 0.0
O977 O 0.98907 0.99195 0.52434 0.0
O978 O 0.02236 0.99397 0.49193 0.0
Eu979 Eu 1.00435 0.00902 0.5434 0.0
Eu980 Eu 1.00543 0.00974 0.47318 0.0
O981 O 0.98739 0.02483 0.52465 0.0
O982 O 0.98786 0.0252 0.4916 0.0
O983 O 0.02063 0.02691 0.49218 0.0
O984 O 0.02012 0.02653 0.52508 0.0
Eu985 Eu 1.00295 0.04445 0.50855 0.0
O986 O 0.00688 0.9585 0.53512 0.0
O987 O 0.0073 0.95904 0.48041 0.0
O988 O 1.00206 0.05965 0.53601 0.0
O989 O 1.00292 0.06024 0.48136 0.0
O990 O 0.95301 0.03383 0.50792 0.0
O991 O 0.95587 0.97986 0.507 0.0
O992 O 0.0538 0.03951 0.50854 0.0
O993 O 0.05672 0.98497 0.50849 0.0
O994 O 0.03289 0.01094 0.45807 0.0
O995 O 0.97841 0.00917 0.45728 0.0
O996 O 0.03152 0.00962 0.55919 0.0
O997 O 0.97666 0.00806 0.55839 0.0
O998 O 0.02926 0.06137 0.50911 0.0
O999 O 0.97478 0.05843 0.50795 0.0
O1000 O 0.03487 0.96038 0.50844 0.0
O1001 O 0.97993 0.9575 0.508 0.0
O1002 O 0.0066 0.98254 0.45746 0.0
O1003 O 1.00482 0.03726 0.45795 0.0
O1004 O 1.00512 0.98141 0.5586 0.0
O1005 O 1.00332 0.03632 0.55911 0.0
O1006 O 0.95399 0.00679 0.53466 0.0
O1007 O 0.95484 0.00738 0.48008 0.0
O1008 O 0.05503 0.01177 0.53633 0.0
O1009 O 0.05586 0.01181 0.48152 0.0
C1010 C 0.50449 0.96778 0.0575 0.0
C1011 C 0.5063 0.05708 0.04921 0.0
C1012 C 0.5059 0.9594 0.96815 0.0
C1013 C 0.50728 0.04876 0.95987 0.0
C1014 C 0.55191 1.00423 0.96461 0.0
C1015 C 0.55053 0.0102 0.05435 0.0
C1016 C 0.46194 0.0064 0.96303 0.0
C1017 C 0.46075 0.01193 0.05305 0.0
C1018 C 0.46267 0.0545 1.00506 0.0
C1019 C 0.55265 0.05177 1.00585 0.0
C1020 C 0.45999 0.96467 0.01097 0.0
C1021 C 0.54991 0.962 0.01224 0.0
Eu1022 Eu 0.50581 0.01145 0.0435 0.0
O1023 O 0.52308 0.02573 0.02387 0.0
O1024 O 0.48908 0.99385 0.02623 0.0
Eu1025 Eu 0.54138 0.00723 0.00931 0.0
Eu1026 Eu 0.4711 0.00927 0.00816 0.0
O1027 O 0.52204 0.99285 0.02681 0.0
O1028 O 0.49007 0.0266 0.02326 0.0
Eu1029 Eu 0.50521 0.97334 0.01187 0.0
Eu1030 Eu 0.50735 0.04317 1.00551 0.0
O1031 O 0.52244 0.98994 0.99411 0.0
O1032 O 0.52346 0.02265 0.99112 0.0
O1033 O 0.49057 0.02354 0.99065 0.0
O1034 O 0.48951 0.99087 0.99355 0.0
Eu1035 Eu 0.50676 1.00505 0.97381 0.0
O1036 O 0.50519 0.98581 0.06144 0.0
O1037 O 0.50568 0.04007 0.05641 0.0
O1038 O 0.50666 0.97641 0.96094 0.0
O1039 O 0.50724 0.03073 0.95591 0.0
O1040 O 0.55724 1.0052 0.98229 0.0
O1041 O 0.55647 0.00854 0.03691 0.0
O1042 O 0.45606 0.00823 0.98049 0.0
O1043 O 0.45527 0.01073 0.03541 0.0
O1044 O 0.48047 0.05946 1.00415 0.0
O1045 O 0.5352 0.05787 1.00481 0.0
O1046 O 0.47742 0.95865 0.01241 0.0
O1047 O 0.5321 0.95701 0.01306 0.0
O1048 O 0.47963 1.00478 0.95786 0.0
O1049 O 0.53437 1.00396 0.95872 0.0
O1050 O 0.47834 0.0126 0.05871 0.0
O1051 O 0.53284 0.01166 0.05952 0.0
O1052 O 0.50718 0.06107 0.0312 0.0
O1053 O 0.50739 0.05603 0.97687 0.0
O1054 O 0.50422 0.9605 0.04052 0.0
O1055 O 0.50513 0.95543 0.98617 0.0
O1056 O 0.55605 0.97942 0.01089 0.0
O1057 O 0.55769 0.03405 0.00752 0.0
O1058 O 0.4549 0.98237 0.0092 0.0
O1059 O 0.45648 0.03712 0.00667 0.0
C1060 C 0.00804 0.46271 0.05234 0.0
C1061 C 1.00431 0.4639 0.96268 0.0
C1062 C 0.00949 0.5526 0.05369 0.0
C1063 C 1.00629 0.55393 0.96374 0.0
C1064 C 0.96319 0.55438 0.01027 0.0
C1065 C 0.96088 0.46438 0.00934 0.0
C1066 C 0.05321 0.55202 0.00672 0.0
C1067 C 0.05077 0.46211 1.00565 0.0
C1068 C 0.04939 0.50788 0.96059 0.0
C1069 C 0.9602 0.50964 0.96524 0.0
C1070 C 0.05455 0.50712 0.05008 0.0
C1071 C 0.96484 0.50875 0.05528 0.0
Eu1072 Eu 1.00612 0.47328 0.00762 0.0
O1073 O 0.98935 0.4925 0.99224 0.0
O1074 O 0.02402 0.49118 0.02333 0.0
Eu1075 Eu 0.97192 0.50911 0.00978 0.0
Eu1076 Eu 0.04209 0.50734 1.00598 0.0
O1077 O 0.99105 0.4921 0.0251 0.0
O1078 O 0.02221 0.49158 0.99046 0.0
Eu1079 Eu 0.00906 0.5078 0.04296 0.0
Eu1080 Eu 1.0053 0.50881 0.97309 0.0
O1081 O 0.99195 0.52481 0.02541 0.0
O1082 O 0.99019 0.5254 0.99271 0.0
O1083 O 0.02307 0.52464 0.99095 0.0
O1084 O 0.02483 0.52409 0.02366 0.0
Eu1085 Eu 0.00794 0.5434 0.00852 0.0
O1086 O 0.00694 0.45742 0.03467 0.0
O1087 O 1.00495 0.45817 0.98022 0.0
O1088 O 0.00888 0.5585 0.03616 0.0
O1089 O 0.00729 0.55928 0.98141 0.0
O1090 O 0.95711 0.5369 0.01065 0.0
O1091 O 0.95572 0.48214 0.00992 0.0
O1092 O 0.0583 0.53427 1.0057 0.0
O1093 O 0.05687 0.47957 1.00537 0.0
O1094 O 0.03151 0.50871 0.95609 0.0
O1095 O 0.97755 0.5098 0.95899 0.0
O1096 O 0.03732 0.50769 0.05682 0.0
O1097 O 0.98273 0.50844 0.05981 0.0
O1098 O 0.03576 0.55809 0.0079 0.0
O1099 O 0.98095 0.55951 0.00947 0.0
O1100 O 0.033 0.45702 1.00636 0.0
O1101 O 0.97837 0.45838 0.00857 0.0
O1102 O 1.00415 0.48159 0.95721 0.0
O1103 O 1.00541 0.53639 0.95792 0.0
O1104 O 0.009 0.48024 0.0582 0.0
O1105 O 0.00981 0.53487 0.05894 0.0
O1106 O 0.95807 0.50887 0.03805 0.0
O1107 O 0.95514 0.50919 0.98304 0.0
O1108 O 0.05907 0.5067 0.0322 0.0
O1109 O 0.05609 0.50708 0.9778 0.0
C1110 C 0.50974 0.46067 0.05067 0.0
C1111 C 0.50307 0.55035 0.05288 0.0
C1112 C 0.51046 0.46297 0.96073 0.0
C1113 C 0.50406 0.55278 0.96301 0.0
C1114 C 0.55213 0.51065 0.96235 0.0
C1115 C 0.55101 0.50927 0.0524 0.0
C1116 C 0.46251 0.50447 0.96115 0.0
C1117 C 0.4612 0.50277 0.05097 0.0
C1118 C 0.45758 0.54687 0.00742 0.0
C1119 C 0.5469 0.5559 0.00803 0.0
C1120 C 0.46664 0.45753 1.00565 0.0
C1121 C 0.55597 0.46656 0.00673 0.0
Eu1122 Eu 0.5063 0.50577 0.04182 0.0
O1123 O 0.52132 0.52425 0.02386 0.0
O1124 O 0.49179 0.48828 0.02256 0.0
Eu1125 Eu 0.5417 0.51019 0.00726 0.0
Eu1126 Eu 0.47187 0.50325 1.0062 0.0
O1127 O 0.52458 0.49157 0.02304 0.0
O1128 O 0.48858 0.52099 0.02334 0.0
Eu1129 Eu 0.51027 0.47182 1.00597 0.0
Eu1130 Eu 0.50329 0.54159 0.00769 0.0
O1131 O 0.52495 0.49239 0.99018 0.0
O1132 O 0.52168 0.5251 0.99099 0.0
O1133 O 0.48897 0.52192 0.99047 0.0
O1134 O 0.49224 0.48911 0.98968 0.0
Eu1135 Eu 0.50717 0.5076 0.97174 0.0
O1136 O 0.50769 0.47806 0.05667 0.0
O1137 O 0.50475 0.53266 0.058 0.0
O1138 O 0.50884 0.48067 0.95561 0.0
O1139 O 0.50574 0.53537 0.95696 0.0
O1140 O 0.55755 0.51143 0.98003 0.0
O1141 O 0.55679 0.51101 0.0349 0.0
O1142 O 0.45668 0.50304 0.97865 0.0
O1143 O 0.45595 0.50196 0.03326 0.0
O1144 O 0.47454 0.55423 0.008 0.0
O1145 O 0.52883 0.5597 0.00848 0.0
O1146 O 0.48471 0.45373 1.00588 0.0
O1147 O 0.53901 0.4592 1.00619 0.0
O1148 O 0.48014 0.50622 0.95587 0.0
O1149 O 0.53461 0.50928 0.95662 0.0
O1150 O 0.47869 0.50413 0.05687 0.0
O1151 O 0.53341 0.50705 0.05765 0.0
O1152 O 0.50202 0.55636 0.03543 0.0
O1153 O 0.50274 0.55783 0.98076 0.0
O1154 O 0.51124 0.45563 0.03293 0.0
O1155 O 0.51145 0.45698 0.97821 0.0
O1156 O 0.55981 0.48463 0.00715 0.0
O1157 O 0.55432 0.53897 0.0074 0.0
O1158 O 0.45921 0.47447 1.00551 0.0
O1159 O 0.45375 0.52882 0.00657 0.0
C1160 C 0.00694 0.46254 0.55345 0.0
C1161 C 0.0076 0.45817 0.46428 0.0
C1162 C 0.00663 0.55258 0.54918 0.0
C1163 C 0.00801 0.54771 0.45947 0.0
C1164 C 0.96261 0.55069 0.50447 0.0
C1165 C 0.96175 0.46097 0.50809 0.0
C1166 C 0.0527 0.54996 0.50567 0.0
C1167 C 0.05166 0.45996 0.50875 0.0
C1168 C 0.05287 0.50375 0.46259 0.0
C1169 C 0.96286 0.5043 0.46114 0.0
C1170 C 0.05149 0.50688 0.55249 0.0
C1171 C 0.96165 0.50713 0.55129 0.0
Eu1172 Eu 0.00682 0.47053 0.50839 0.0
O1173 O 0.99068 0.48829 0.49081 0.0
O1174 O 0.02324 0.48969 0.52424 0.0
Eu1175 Eu 0.9721 0.50571 0.50631 0.0
Eu1176 Eu 0.04232 0.50509 0.50735 0.0
O1177 O 0.99032 0.48995 0.52382 0.0
O1178 O 0.02382 0.48804 0.49137 0.0
Eu1179 Eu 0.00669 0.50709 0.54186 0.0
Eu1180 Eu 0.00771 0.50353 0.47175 0.0
O1181 O 0.99076 0.52278 0.52211 0.0
O1182 O 0.9912 0.52107 0.48933 0.0
O1183 O 0.02405 0.5208 0.48976 0.0
O1184 O 0.02354 0.52251 0.52263 0.0
Eu1185 Eu 0.00758 0.54044 0.50492 0.0
O1186 O 0.0072 0.45634 0.5361 0.0
O1187 O 0.00697 0.45358 0.48214 0.0
O1188 O 0.00727 0.55722 0.53132 0.0
O1189 O 0.00821 0.5544 0.47672 0.0
O1190 O 0.95692 0.53313 0.50547 0.0
O1191 O 0.95638 0.47861 0.50688 0.0
O1192 O 0.05809 0.53229 0.5066 0.0
O1193 O 0.05753 0.47751 0.5081 0.0
O1194 O 0.03535 0.50305 0.45667 0.0
O1195 O 0.98057 0.50344 0.45586 0.0
O1196 O 0.03378 0.50764 0.55777 0.0
O1197 O 0.97922 0.5076 0.55702 0.0
O1198 O 0.03513 0.55574 0.50493 0.0
O1199 O 0.98028 0.5562 0.5039 0.0
O1200 O 0.03394 0.45465 0.50906 0.0
O1201 O 0.97931 0.4552 0.50903 0.0
O1202 O 0.00802 0.47544 0.45768 0.0
O1203 O 0.00775 0.52984 0.45488 0.0
O1204 O 0.00642 0.48033 0.55856 0.0
O1205 O 1.00622 0.5353 0.55579 0.0
O1206 O 0.95622 0.50642 0.53359 0.0
O1207 O 0.95697 0.50516 0.47867 0.0
O1208 O 0.05738 0.50582 0.53498 0.0
O1209 O 0.05817 0.50457 0.48027 0.0
C1210 C 0.50997 0.96014 0.54992 0.0
C1211 C 0.50627 0.96318 0.46001 0.0
C1212 C 0.51118 0.05004 0.55296 0.0
C1213 C 0.50748 0.05312 0.46308 0.0
C1214 C 0.46446 0.05219 0.50953 0.0
C1215 C 0.46302 0.96222 0.50736 0.0
C1216 C 0.55446 0.05084 0.50557 0.0
C1217 C 0.55317 0.96103 0.50323 0.0
C1218 C 0.55093 0.00736 0.45896 0.0
C1219 C 0.46173 0.00818 0.46389 0.0
C1220 C 0.55626 1.00517 0.54845 0.0
C1221 C 0.46657 1.00616 0.55375 0.0
Eu1222 Eu 0.50824 0.9714 0.50529 0.0
O1223 O 0.49124 0.99089 0.49042 0.0
O1224 O 0.5259 0.9893 0.52136 0.0
Eu1225 Eu 0.47372 0.00705 0.5083 0.0
Eu1226 Eu 0.54374 1.00607 0.50433 0.0
O1227 O 0.49304 0.98983 0.52315 0.0
O1228 O 0.52402 0.99036 0.48853 0.0
Eu1229 Eu 0.51079 1.00541 0.54135 0.0
Eu1230 Eu 0.50689 0.00781 0.47157 0.0
O1231 O 0.49354 0.02267 0.52424 0.0
O1232 O 0.4917 0.02389 0.49152 0.0
O1233 O 0.52454 0.02348 0.48969 0.0
O1234 O 0.52636 0.02226 0.52238 0.0
Eu1235 Eu 0.50931 0.04175 0.50766 0.0
O1236 O 0.50897 0.95509 0.53216 0.0
O1237 O 0.50715 0.95693 0.4774 0.0
O1238 O 0.51032 0.05627 0.53556 0.0
O1239 O 0.50844 0.05814 0.48085 0.0
O1240 O 0.45859 0.03464 0.5092 0.0
O1241 O 0.45781 0.97992 0.5087 0.0
O1242 O 0.55967 0.03315 0.50412 0.0
O1243 O 0.55888 0.97861 0.50303 0.0
O1244 O 0.53305 0.00824 0.45449 0.0
O1245 O 0.47905 0.00869 0.45756 0.0
O1246 O 0.53902 1.00516 0.55516 0.0
O1247 O 0.48445 1.00531 0.5583 0.0
O1248 O 0.53699 0.05675 0.50718 0.0
O1249 O 0.48217 0.05754 0.50922 0.0
O1250 O 0.5355 0.95554 0.50407 0.0
O1251 O 0.48051 0.95633 0.50581 0.0
O1252 O 0.5059 0.98101 0.45509 0.0
O1253 O 0.50673 0.03568 0.45694 0.0
O1254 O 0.51086 0.97758 0.55604 0.0
O1255 O 0.51163 0.0322 0.55787 0.0
O1256 O 0.45989 0.00701 0.53653 0.0
O1257 O 0.45682 0.00735 0.48171 0.0
O1258 O 0.5608 1.00532 0.53056 0.0
O1259 O 0.55767 0.00626 0.47614 0.0
H1260 H 0.16481 0.19024 0.5301 0.0
H1261 H 0.13945 0.16799 0.53218 0.0
H1262 H 0.14128 0.16013 0.47308 0.0
H1263 H 0.16599 0.18309 0.47072 0.0
H1264 H 0.106 0.16012 0.48598 0.0
H1265 H 0.14967 0.11304 0.52805 0.0
H1266 H 0.14658 0.13548 0.53822 0.0
H1267 H 0.15887 0.13326 0.51669 0.0
C1268 C 0.15952 0.18416 0.51747 0.0
C1269 C 0.16763 0.1883 0.50025 0.0
C1270 C 0.1452 0.17122 0.51873 0.0
C1271 C 0.13886 0.162 0.50286 0.0
C1272 C 0.14613 0.16691 0.48554 0.0
H1273 H 0.08372 0.05558 0.49889 0.0
H1274 H 0.1055 0.08143 0.49726 0.0
C1275 C 0.16034 0.17995 0.48424 0.0
C1276 C 0.12526 0.14669 0.5043 0.0
H1277 H 0.11844 0.10415 0.52372 0.0
C1278 C 0.10869 0.14788 0.49424 0.0
C1279 C 0.12898 0.13056 0.51479 0.0
C1280 C 0.14706 0.12786 0.52491 0.0
C1281 C 0.09566 0.13347 0.49451 0.0
C1282 C 0.09911 0.11762 0.5055 0.0
C1283 C 0.11574 0.11638 0.51544 0.0
C1284 C 0.08583 0.102 0.50663 0.0
C1285 C 0.07858 0.13515 0.4826 0.0
C1286 C 0.06764 0.1049 0.51276 0.0
C1287 C 0.05512 0.09019 0.51357 0.0
C1288 C 0.06063 0.0722 0.50855 0.0
C1289 C 0.07902 0.06924 0.50289 0.0
C1290 C 0.09148 0.08401 0.50192 0.0
H1291 H 0.08058 0.14529 0.47123 0.0
H1292 H 0.07472 0.1216 0.47647 0.0
H1293 H 0.06686 0.14004 0.49124 0.0
H1294 H 0.06311 0.11855 0.51698 0.0
H1295 H 0.04114 0.09293 0.51824 0.0
H1296 H 0.82271 0.16721 0.53022 0.0
H1297 H 0.84566 0.14247 0.53193 0.0
H1298 H 0.85206 0.14406 0.47265 0.0
H1299 H 0.82838 0.1681 0.47068 0.0
H1300 H 0.8533 0.109 0.48563 0.0
H1301 H 0.90021 0.15387 0.5266 0.0
H1302 H 0.8781 0.1503 0.53733 0.0
H1303 H 0.87951 0.16255 0.5157 0.0
C1304 C 0.82862 0.16199 0.51748 0.0
C1305 C 0.82384 0.16984 0.50031 0.0
C1306 C 0.84197 0.14803 0.51852 0.0
C1307 C 0.85098 0.14183 0.50248 0.0
C1308 C 0.84546 0.14882 0.48524 0.0
H1309 H 0.95842 0.08823 0.49768 0.0
H1310 H 0.93233 0.10977 0.49604 0.0
C1311 C 0.832 0.16265 0.48415 0.0
C1312 C 0.86664 0.12861 0.50365 0.0
H1313 H 0.9096 0.12274 0.52244 0.0
C1314 C 0.86562 0.11199 0.49367 0.0
C1315 C 0.88287 0.13273 0.51384 0.0
C1316 C 0.88538 0.1509 0.52383 0.0
C1317 C 0.88029 0.09925 0.49377 0.0
C1318 C 0.89622 0.10305 0.50454 0.0
C1319 C 0.89731 0.11976 0.51435 0.0
C1320 C 0.91201 0.08998 0.50567 0.0
C1321 C 0.87876 0.08209 0.48197 0.0
C1322 C 0.90931 0.07182 0.51196 0.0
C1323 C 0.92413 0.05946 0.51277 0.0
C1324 C 0.94204 0.06509 0.50758 0.0
C1325 C 0.94482 0.08345 0.50179 0.0
C1326 C 0.92992 0.09577 0.50081 0.0
H1327 H 0.86853 0.08392 0.47064 0.0
H1328 H 0.89232 0.07836 0.47578 0.0
H1329 H 0.87403 0.07037 0.49068 0.0
H1330 H 0.89573 0.0672 0.51632 0.0
H1331 H 0.92154 0.04549 0.51757 0.0
H1332 H 0.83132 0.84367 0.48571 0.0
H1333 H 0.85542 0.86731 0.48463 0.0
H1334 H 0.85882 0.86681 0.54418 0.0
H1335 H 0.83404 0.84381 0.54546 0.0
H1336 H 0.86111 0.90153 0.53056 0.0
H1337 H 0.9096 0.85563 0.49284 0.0
H1338 H 0.88807 0.85888 0.48091 0.0
H1339 H 0.88834 0.84729 0.50295 0.0
C1340 C 0.83686 0.84886 0.49862 0.0
C1341 C 0.83082 0.84169 0.51568 0.0
C1342 C 0.85088 0.86217 0.49795 0.0
C1343 C 0.8593 0.86841 0.5143 0.0
C1344 C 0.8527 0.86198 0.53138 0.0
H1345 H 0.96546 0.92654 0.51927 0.0
H1346 H 0.94076 0.90334 0.5216 0.0
C1347 C 0.83859 0.84877 0.53208 0.0
C1348 C 0.87513 0.88146 0.51359 0.0
H1349 H 0.91848 0.88726 0.49561 0.0
C1350 C 0.87369 0.89838 0.52298 0.0
C1351 C 0.89171 0.87716 0.50405 0.0
C1352 C 0.89465 0.85867 0.49478 0.0
C1353 C 0.88815 0.91134 0.52268 0.0
C1354 C 0.90432 0.90745 0.51232 0.0
C1355 C 0.90599 0.89031 0.50335 0.0
C1356 C 0.91947 0.92115 0.51033 0.0
C1357 C 0.88604 0.92898 0.53367 0.0
C1358 C 0.9158 0.9386 0.50271 0.0
C1359 C 0.92978 0.95184 0.50147 0.0
C1360 C 0.94784 0.94783 0.50755 0.0
C1361 C 0.95171 0.93006 0.51446 0.0
C1362 C 0.93761 0.91682 0.51585 0.0
H1363 H 0.87584 0.92734 0.54505 0.0
H1364 H 0.89945 0.93344 0.53969 0.0
H1365 H 0.88095 0.94012 0.52441 0.0
H1366 H 0.90206 0.94205 0.49782 0.0
H1367 H 0.92638 0.96528 0.49577 0.0
H1368 H 0.18235 0.85114 0.54399 0.0
H1369 H 0.15858 0.87509 0.54224 0.0
H1370 H 0.16254 0.87481 0.48272 0.0
H1371 H 0.18552 0.8501 0.48427 0.0
H1372 H 0.1568 0.90956 0.52861 0.0
H1373 H 0.10827 0.8642 0.49019 0.0
H1374 H 0.12934 0.85563 0.50043 0.0
H1375 H 0.12994 0.86745 0.47853 0.0
C1376 C 0.17814 0.85612 0.53051 0.0
C1377 C 0.18565 0.84842 0.51427 0.0
C1378 C 0.16464 0.86992 0.52954 0.0
C1379 C 0.15841 0.87639 0.51233 0.0
C1380 C 0.16676 0.86966 0.49614 0.0
H1381 H 0.08796 0.97306 0.49802 0.0
H1382 H 0.11369 0.95123 0.49886 0.0
C1383 C 0.18014 0.85572 0.49707 0.0
C1384 C 0.14278 0.88969 0.51141 0.0
H1385 H 0.09927 0.89553 0.49389 0.0
C1386 C 0.14422 0.9065 0.52103 0.0
C1387 C 0.12619 0.88551 0.50183 0.0
C1388 C 0.12321 0.86715 0.49232 0.0
C1389 C 0.12962 0.91933 0.52117 0.0
C1390 C 0.11333 0.91546 0.51099 0.0
C1391 C 0.11182 0.89857 0.50153 0.0
C1392 C 0.09758 0.92863 0.51012 0.0
C1393 C 0.13165 0.93667 0.53265 0.0
C1394 C 0.07975 0.92299 0.51545 0.0
C1395 C 0.06488 0.93537 0.51468 0.0
C1396 C 0.06761 0.95366 0.50865 0.0
C1397 C 0.08542 0.95916 0.50302 0.0
C1398 C 0.1002 0.94672 0.50359 0.0
H1399 H 0.14215 0.93491 0.54374 0.0
H1400 H 0.13628 0.94819 0.52362 0.0
H1401 H 0.1183 0.94065 0.53913 0.0
H1402 H 0.07737 0.90904 0.52041 0.0
H1403 H 0.05135 0.93069 0.51914 0.0
H1404 H 0.48577 0.16438 0.18603 0.0
H1405 H 0.48719 0.14226 0.16062 0.0
H1406 H 0.50776 0.18495 0.12436 0.0
H1407 H 0.50648 0.2073 0.14991 0.0
H1408 H 0.47005 0.14199 0.12677 0.0
H1409 H 0.54656 0.14446 0.11868 0.0
H1410 H 0.53485 0.15445 0.13834 0.0
H1411 H 0.535 0.16636 0.11652 0.0
C1412 C 0.49036 0.16918 0.17259 0.0
C1413 C 0.49597 0.18763 0.16997 0.0
C1414 C 0.49126 0.15647 0.15811 0.0
C1415 C 0.49782 0.16188 0.14068 0.0
C1416 C 0.50303 0.18039 0.13782 0.0
H1417 H 0.51277 0.09374 0.04178 0.0
H1418 H 0.5104 0.11989 0.06312 0.0
C1419 C 0.50223 0.19315 0.15239 0.0
C1420 C 0.49924 0.14794 0.1257 0.0
H1421 H 0.53014 0.12504 0.0982 0.0
C1422 C 0.48318 0.13834 0.12047 0.0
C1423 C 0.5164 0.1432 0.11751 0.0
C1424 C 0.53423 0.15251 0.12311 0.0
C1425 C 0.48382 0.124 0.10741 0.0
C1426 C 0.50101 0.11904 0.09952 0.0
C1427 C 0.517 0.12892 0.10434 0.0
C1428 C 0.50272 0.10318 0.08671 0.0
C1429 C 0.46613 0.11423 0.10216 0.0
C1430 C 0.4995 0.08512 0.09304 0.0
C1431 C 0.5009 0.07012 0.08093 0.0
C1432 C 0.50555 0.07291 0.06224 0.0
C1433 C 0.50904 0.09106 0.05604 0.0
C1434 C 0.50774 0.10604 0.0682 0.0
H1435 H 0.45371 0.12238 0.10609 0.0
H1436 H 0.46569 0.1115 0.08704 0.0
H1437 H 0.46548 0.10072 0.10943 0.0
H1438 H 0.49587 0.08265 0.10737 0.0
H1439 H 0.49811 0.05638 0.08622 0.0
H1440 H 0.84849 0.47052 0.183 0.0
H1441 H 0.87315 0.47329 0.16009 0.0
H1442 H 0.87437 0.53239 0.16834 0.0
H1443 H 0.84908 0.52985 0.19061 0.0
H1444 H 0.87196 0.52379 0.13238 0.0
H1445 H 0.92795 0.48235 0.16417 0.0
H1446 H 0.9067 0.46966 0.16243 0.0
H1447 H 0.90787 0.48982 0.17702 0.0
C1448 C 0.8541 0.4841 0.18006 0.0
C1449 C 0.84672 0.49997 0.18861 0.0
C1450 C 0.86836 0.48564 0.1671 0.0
C1451 C 0.87575 0.50303 0.16262 0.0
C1452 C 0.86893 0.51881 0.17165 0.0
H1453 H 0.97154 0.51789 0.09133 0.0
H1454 H 0.94984 0.51748 0.11717 0.0
C1455 C 0.85458 0.51731 0.18453 0.0
C1456 C 0.88945 0.50491 0.14744 0.0
H1457 H 0.93111 0.48901 0.13187 0.0
C1458 C 0.88498 0.51632 0.13235 0.0
C1459 C 0.90651 0.49531 0.14747 0.0
C1460 C 0.91264 0.48375 0.16373 0.0
C1461 C 0.8969 0.51808 0.11713 0.0
C1462 C 0.91355 0.50778 0.11677 0.0
C1463 C 0.91822 0.49671 0.13204 0.0
C1464 C 0.92645 0.50845 0.10081 0.0
C1465 C 0.89165 0.53116 0.10173 0.0
C1466 C 0.92053 0.50344 0.08299 0.0
C1467 C 0.93288 0.50382 0.06809 0.0
C1468 C 0.95147 0.5089 0.07082 0.0
C1469 C 0.95735 0.5138 0.08872 0.0
C1470 C 0.94496 0.51359 0.10354 0.0
H1471 H 0.88165 0.54181 0.10652 0.0
H1472 H 0.90402 0.53827 0.096 0.0
H1473 H 0.88497 0.52321 0.09042 0.0
H1474 H 0.90642 0.49899 0.08064 0.0
H1475 H 0.92795 0.49976 0.05453 0.0
H1476 H 0.4677 0.85048 0.18526 0.0
H1477 H 0.46989 0.87551 0.16268 0.0
H1478 H 0.52916 0.87672 0.16955 0.0
H1479 H 0.52723 0.851 0.19139 0.0
H1480 H 0.48306 0.91065 0.16254 0.0
H1481 H 0.5241 0.86675 0.11472 0.0
H1482 H 0.51301 0.8576 0.1351 0.0
H1483 H 0.53464 0.86979 0.13698 0.0
C1484 C 0.48122 0.85606 0.18199 0.0
C1485 C 0.49732 0.84846 0.1899 0.0
C1486 C 0.48243 0.87047 0.16917 0.0
C1487 C 0.49973 0.87765 0.16407 0.0
C1488 C 0.51571 0.87105 0.17293 0.0
H1489 H 0.51392 0.97476 0.0935 0.0
H1490 H 0.51292 0.95339 0.11963 0.0
C1491 C 0.51454 0.85651 0.18564 0.0
C1492 C 0.50104 0.89129 0.14879 0.0
H1493 H 0.51954 0.89788 0.10582 0.0
C1494 C 0.49106 0.9079 0.15015 0.0
C1495 C 0.51119 0.88749 0.13246 0.0
C1496 C 0.5212 0.86937 0.12958 0.0
C1497 C 0.49102 0.92086 0.13567 0.0
C1498 C 0.50162 0.91729 0.11958 0.0
C1499 C 0.51155 0.90066 0.11822 0.0
C1500 C 0.50225 0.93034 0.10375 0.0
C1501 C 0.47917 0.93796 0.13752 0.0
C1502 C 0.49717 0.92434 0.08599 0.0
C1503 C 0.498 0.93644 0.07093 0.0
C1504 C 0.50387 0.95483 0.07337 0.0
C1505 C 0.50909 0.96077 0.09116 0.0
C1506 C 0.50843 0.94859 0.10617 0.0
H1507 H 0.46809 0.93609 0.14802 0.0
H1508 H 0.48796 0.94972 0.14202 0.0
H1509 H 0.47264 0.94168 0.12413 0.0
H1510 H 0.49245 0.91028 0.08379 0.0
H1511 H 0.49383 0.93142 0.05744 0.0
H1512 H 0.18535 0.54447 0.16489 0.0
H1513 H 0.16136 0.54257 0.14115 0.0
H1514 H 0.16646 0.48312 0.14058 0.0
H1515 H 0.1897 0.48479 0.16501 0.0
H1516 H 0.1594 0.52895 0.10634 0.0
H1517 H 0.11217 0.48982 0.15248 0.0
H1518 H 0.13319 0.50047 0.16071 0.0
H1519 H 0.13401 0.47855 0.14893 0.0
C1520 C 0.18137 0.53098 0.15973 0.0
C1521 C 0.18927 0.51477 0.16711 0.0
C1522 C 0.16773 0.52993 0.14607 0.0
C1523 C 0.16176 0.51268 0.13946 0.0
C1524 C 0.1705 0.49656 0.14585 0.0
H1525 H 0.09035 0.49658 0.04399 0.0
H1526 H 0.11627 0.49792 0.06556 0.0
C1527 C 0.18403 0.49757 0.15963 0.0
C1528 C 0.14593 0.51157 0.12643 0.0
H1529 H 0.10262 0.49334 0.1213 0.0
C1530 C 0.14697 0.52117 0.10959 0.0
C1531 C 0.12956 0.50175 0.13089 0.0
C1532 C 0.12703 0.49222 0.14931 0.0
C1533 C 0.1322 0.52101 0.09697 0.0
C1534 C 0.11614 0.51056 0.10111 0.0
C1535 C 0.11501 0.50117 0.11805 0.0
C1536 C 0.10026 0.50933 0.08815 0.0
C1537 C 0.1338 0.5324 0.07954 0.0
C1538 C 0.08245 0.51457 0.09391 0.0
C1539 C 0.06748 0.51354 0.08168 0.0
C1540 C 0.07009 0.50732 0.06344 0.0
C1541 C 0.08789 0.50172 0.05786 0.0
C1542 C 0.10277 0.50257 0.07014 0.0
H1543 H 0.14419 0.54364 0.08105 0.0
H1544 H 0.13834 0.52335 0.068 0.0
H1545 H 0.1203 0.53868 0.07574 0.0
H1546 H 0.08017 0.5197 0.1078 0.0
H1547 H 0.05397 0.51799 0.08642 0.0
H1548 H 0.50002 0.81015 0.86626 0.0
H1549 H 0.49793 0.83295 0.89143 0.0
H1550 H 0.52325 0.87405 0.85642 0.0
H1551 H 0.52524 0.85159 0.83127 0.0
H1552 H 0.53022 0.85744 0.90672 0.0
H1553 H 0.47081 0.8949 0.87521 0.0
H1554 H 0.47595 0.87099 0.86999 0.0
H1555 H 0.48967 0.88911 0.86 0.0
C1556 C 0.50519 0.82403 0.86398 0.0
C1557 C 0.51287 0.82904 0.8468 0.0
C1558 C 0.50404 0.83698 0.87836 0.0
C1559 C 0.51034 0.85515 0.87566 0.0
C1560 C 0.51827 0.86009 0.85869 0.0
H1561 H 0.51227 0.96013 0.93077 0.0
H1562 H 0.51307 0.93398 0.90942 0.0
C1563 C 0.51953 0.84718 0.8444 0.0
C1564 C 0.50837 0.86925 0.89034 0.0
H1565 H 0.48556 0.90927 0.90067 0.0
C1566 C 0.52034 0.86869 0.90558 0.0
C1567 C 0.49552 0.88388 0.88864 0.0
C1568 C 0.48213 0.8848 0.87266 0.0
C1569 C 0.52024 0.88283 0.91893 0.0
C1570 C 0.50754 0.89765 0.9171 0.0
C1571 C 0.4953 0.89793 0.90203 0.0
C1572 C 0.50711 0.91336 0.93029 0.0
C1573 C 0.53422 0.88216 0.93442 0.0
C1574 C 0.50326 0.91048 0.94909 0.0
C1575 C 0.50287 0.92541 0.96139 0.0
C1576 C 0.50611 0.94356 0.95508 0.0
C1577 C 0.50968 0.94639 0.93615 0.0
C1578 C 0.51016 0.93144 0.9239 0.0
H1579 H 0.5458 0.87256 0.93127 0.0
H1580 H 0.54003 0.89612 0.9372 0.0
H1581 H 0.52733 0.87722 0.94722 0.0
H1582 H 0.50043 0.8967 0.95424 0.0
H1583 H 0.49989 0.92269 0.97581 0.0
H1584 H 0.16501 0.46961 0.8318 0.0
H1585 H 0.14054 0.47222 0.85495 0.0
H1586 H 0.14025 0.53151 0.84818 0.0
H1587 H 0.16534 0.52912 0.82567 0.0
H1588 H 0.14275 0.52187 0.88396 0.0
H1589 H 0.08583 0.48239 0.85125 0.0
H1590 H 0.10689 0.46932 0.85256 0.0
H1591 H 0.10598 0.48988 0.83853 0.0
C1592 C 0.15965 0.48321 0.83512 0.0
C1593 C 0.16722 0.49916 0.8269 0.0
C1594 C 0.14549 0.48465 0.84821 0.0
C1595 C 0.13842 0.50205 0.85317 0.0
C1596 C 0.14545 0.51794 0.8445 0.0
H1597 H 0.04309 0.51791 0.9247 0.0
H1598 H 0.06482 0.51731 0.8989 0.0
C1599 C 0.15968 0.51652 0.83148 0.0
C1600 C 0.12482 0.50379 0.86846 0.0
H1601 H 0.08279 0.48848 0.88364 0.0
C1602 C 0.12956 0.5147 0.88382 0.0
C1603 C 0.10755 0.49457 0.8682 0.0
C1604 C 0.10116 0.48354 0.85167 0.0
C1605 C 0.11768 0.51636 0.89908 0.0
C1606 C 0.10078 0.50647 0.89918 0.0
C1607 C 0.09586 0.49587 0.88366 0.0
C1608 C 0.08785 0.50715 0.91511 0.0
C1609 C 0.12324 0.52893 0.91481 0.0
C1610 C 0.09354 0.50156 0.93283 0.0
C1611 C 0.08117 0.50203 0.94771 0.0
C1612 C 0.06277 0.50782 0.94506 0.0
C1613 C 0.05711 0.51328 0.92725 0.0
C1614 C 0.06952 0.51296 0.91246 0.0
H1615 H 0.13358 0.53939 0.91032 0.0
H1616 H 0.11105 0.53626 0.92063 0.0
H1617 H 0.1296 0.52053 0.92597 0.0
H1618 H 0.1075 0.49661 0.93511 0.0
H1619 H 0.08593 0.49755 0.96119 0.0
H1620 H 0.48691 0.18484 0.85133 0.0
H1621 H 0.4883 0.15973 0.87379 0.0
H1622 H 0.50887 0.12287 0.8316 0.0
H1623 H 0.50763 0.14812 0.80893 0.0
H1624 H 0.47122 0.12591 0.87463 0.0
H1625 H 0.54771 0.11774 0.87204 0.0
H1626 H 0.53598 0.13724 0.86178 0.0
H1627 H 0.53611 0.11523 0.85021 0.0
C1628 C 0.49149 0.17134 0.84672 0.0
C1629 C 0.49712 0.16846 0.82832 0.0
C1630 C 0.49237 0.15702 0.85962 0.0
C1631 C 0.49894 0.13951 0.85445 0.0
C1632 C 0.50414 0.1364 0.83598 0.0
H1633 H 0.51331 0.04106 0.92323 0.0
H1634 H 0.51102 0.06231 0.89701 0.0
C1635 C 0.50336 0.1508 0.82304 0.0
C1636 C 0.50039 0.12473 0.86859 0.0
H1637 H 0.53131 0.09741 0.89167 0.0
C1638 C 0.48435 0.11963 0.87831 0.0
C1639 C 0.51755 0.11657 0.87337 0.0
C1640 C 0.53537 0.12204 0.86395 0.0
C1641 C 0.48502 0.10673 0.89278 0.0
C1642 C 0.50221 0.09885 0.89775 0.0
C1643 C 0.51818 0.10355 0.88778 0.0
C1644 C 0.50393 0.08612 0.91367 0.0
C1645 C 0.46737 0.1016 0.90269 0.0
C1646 C 0.50102 0.0926 0.93172 0.0
C1647 C 0.5024 0.08055 0.94677 0.0
C1648 C 0.50668 0.06176 0.94402 0.0
C1649 C 0.50987 0.0554 0.92588 0.0
C1650 C 0.50861 0.06751 0.91085 0.0
H1651 H 0.4549 0.10568 0.89467 0.0
H1652 H 0.46682 0.08648 0.90536 0.0
H1653 H 0.46691 0.10881 0.91624 0.0
H1654 H 0.49763 0.107 0.93415 0.0
H1655 H 0.49982 0.08594 0.96051 0.0
H1656 H 0.84693 0.46923 0.83303 0.0
H1657 H 0.86887 0.4708 0.85872 0.0
H1658 H 0.86628 0.5304 0.85743 0.0
H1659 H 0.84361 0.52898 0.83248 0.0
H1660 H 0.90255 0.48583 0.86294 0.0
H1661 H 0.85334 0.51998 0.91074 0.0
H1662 H 0.84623 0.51026 0.88888 0.0
H1663 H 0.85674 0.53283 0.8898 0.0
C1664 C 0.85097 0.48269 0.83825 0.0
C1665 C 0.84328 0.49897 0.8308 0.0
C1666 C 0.86358 0.48356 0.85288 0.0
C1667 C 0.86882 0.5007 0.86034 0.0
C1668 C 0.86203 0.517 0.85225 0.0
H1669 H 0.96283 0.52245 0.92998 0.0
H1670 H 0.94009 0.51981 0.90526 0.0
C1671 C 0.8493 0.51615 0.83773 0.0
C1672 C 0.88126 0.50153 0.87665 0.0
H1673 H 0.88489 0.51887 0.92048 0.0
C1674 C 0.89865 0.49297 0.87555 0.0
C1675 C 0.87599 0.51047 0.89328 0.0
C1676 C 0.85698 0.51874 0.89586 0.0
C1677 C 0.91114 0.49359 0.8904 0.0
C1678 C 0.90629 0.50347 0.90661 0.0
C1679 C 0.88868 0.51152 0.90795 0.0
C1680 C 0.91952 0.506 0.92208 0.0
C1681 C 0.92933 0.48348 0.88862 0.0
C1682 C 0.91514 0.5 0.94005 0.0
C1683 C 0.92808 0.50174 0.95439 0.0
C1684 C 0.94559 0.50947 0.95091 0.0
C1685 C 0.94959 0.51612 0.93306 0.0
C1686 C 0.93664 0.51453 0.91886 0.0
H1687 H 0.92848 0.47213 0.87828 0.0
H1688 H 0.94014 0.49331 0.8839 0.0
H1689 H 0.93374 0.47752 0.90208 0.0
H1690 H 0.9019 0.49354 0.94287 0.0
H1691 H 0.92461 0.49647 0.96798 0.0
H1692 H 0.66214 0.6914 0.03177 0.0
H1693 H 0.63654 0.66941 0.03371 0.0
H1694 H 0.63903 0.66108 0.9747 0.0
H1695 H 0.66399 0.68377 0.97247 0.0
H1696 H 0.60348 0.66125 0.98737 0.0
H1697 H 0.647 0.61442 0.02995 0.0
H1698 H 0.64371 0.63693 0.0399 0.0
H1699 H 0.65625 0.63458 0.01853 0.0
C1700 C 0.65694 0.68529 0.01912 0.0
C1701 C 0.66532 0.68918 1.00198 0.0
C1702 C 0.64247 0.67251 0.0203 0.0
C1703 C 0.63625 0.66321 1.00443 0.0
C1704 C 0.64377 0.66792 0.98717 0.0
H1705 H 0.58355 0.55621 0.9984 0.0
H1706 H 0.60445 0.58277 0.99755 0.0
C1707 C 0.65813 0.6808 0.98594 0.0
C1708 C 0.62266 0.64789 1.00583 0.0
H1709 H 0.61607 0.60515 0.02485 0.0
C1710 C 0.60619 0.649 0.9956 0.0
C1711 C 0.6264 0.63177 0.0163 0.0
C1712 C 0.64436 0.6292 0.02666 0.0
C1713 C 0.59332 0.63442 0.99558 0.0
C1714 C 0.59685 0.6185 1.00644 0.0
C1715 C 0.61332 0.61742 0.01666 0.0
C1716 C 0.58398 0.60251 0.00695 0.0
C1717 C 0.57637 0.63599 0.98348 0.0
C1718 C 0.56559 0.60473 0.01277 0.0
C1719 C 0.55355 0.58959 0.01314 0.0
C1720 C 0.55976 0.57187 0.00797 0.0
C1721 C 0.57831 0.56963 1.00253 0.0
C1722 C 0.59028 0.58481 1.002 0.0
H1723 H 0.57827 0.64645 0.97238 0.0
H1724 H 0.57294 0.6225 0.97697 0.0
H1725 H 0.56442 0.64037 0.99206 0.0
H1726 H 0.56055 0.61815 0.01715 0.0
H1727 H 0.53941 0.59178 0.01763 0.0
H1728 H 0.30869 0.64892 1.00269 0.0
H1729 H 0.33087 0.62318 1.00196 0.0
H1730 H 0.37141 0.65738 0.02934 0.0
H1731 H 0.34943 0.68291 0.03025 0.0
H1732 H 0.36455 0.62162 0.98514 0.0
H1733 H 0.37359 0.61113 0.06038 0.0
H1734 H 0.3549 0.62475 0.05095 0.0
H1735 H 0.37757 0.63472 0.05384 0.0
C1736 C 0.32229 0.65086 0.00868 0.0
C1737 C 0.32722 0.66787 0.01675 0.0
C1738 C 0.33492 0.63616 0.00829 0.0
C1739 C 0.35267 0.63823 0.01596 0.0
C1740 C 0.35762 0.65524 0.02388 0.0
H1741 H 0.45784 0.58376 0.0162 0.0
H1742 H 0.43141 0.60482 0.01779 0.0
C1743 C 0.34501 0.66985 0.02437 0.0
C1744 C 0.36648 0.62308 0.01484 0.0
H1745 H 0.39724 0.59832 0.04082 0.0
C1746 C 0.3715 0.61631 0.99733 0.0
C1747 C 0.37552 0.61612 0.03077 0.0
C1748 C 0.36998 0.62192 0.05005 0.0
C1749 C 0.38586 0.60337 0.99528 0.0
C1750 C 0.39535 0.59704 0.01114 0.0
C1751 C 0.39001 0.60338 0.02868 0.0
C1752 C 0.41124 0.58421 0.0098 0.0
C1753 C 0.39127 0.59703 0.97615 0.0
C1754 C 0.40857 0.56565 1.00485 0.0
C1755 C 0.42362 0.55353 1.00398 0.0
C1756 C 0.44164 0.55979 0.00801 0.0
C1757 C 0.44421 0.57847 0.01289 0.0
C1758 C 0.42913 0.59052 0.01387 0.0
H1759 H 0.38431 0.6052 0.96515 0.0
H1760 H 0.40649 0.59812 0.97426 0.0
H1761 H 0.3874 0.58227 0.97441 0.0
H1762 H 0.39481 0.56052 1.00182 0.0
H1763 H 0.4211 0.53926 1.00014 0.0
H1764 H 0.35019 0.32964 0.97082 0.0
H1765 H 0.37561 0.35172 0.97326 0.0
H1766 H 0.37672 0.34414 0.03243 0.0
H1767 H 0.35064 0.32274 0.03021 0.0
H1768 H 0.37532 0.37985 0.02369 0.0
H1769 H 0.43025 0.34678 0.98195 0.0
H1770 H 0.40904 0.34883 0.96924 0.0
H1771 H 0.40992 0.33439 0.98953 0.0
C1772 C 0.35593 0.33253 0.98435 0.0
C1773 C 0.34827 0.32448 1.00033 0.0
C1774 C 0.37065 0.345 0.98569 0.0
C1775 C 0.37823 0.34945 1.003 0.0
C1776 C 0.37114 0.34084 0.01891 0.0
H1777 H 0.4745 0.42154 0.01444 0.0
H1778 H 0.45331 0.39524 0.01487 0.0
C1779 C 0.35633 0.32846 0.01759 0.0
C1780 C 0.39227 0.36437 1.00466 0.0
H1781 H 0.4337 0.37938 0.98761 0.0
C1782 C 0.38819 0.37964 0.01597 0.0
C1783 C 0.40916 0.36402 0.99475 0.0
C1784 C 0.41495 0.34753 0.98335 0.0
C1785 C 0.40025 0.3948 0.01722 0.0
C1786 C 0.41662 0.39493 1.00647 0.0
C1787 C 0.421 0.37941 0.99562 0.0
C1788 C 0.42937 0.41103 1.00628 0.0
C1789 C 0.39539 0.41043 0.03019 0.0
C1790 C 0.42302 0.42864 1.00108 0.0
C1791 C 0.43506 0.44378 1.00097 0.0
C1792 C 0.4538 0.44154 1.00573 0.0
C1793 C 0.46018 0.42379 0.01062 0.0
C1794 C 0.44809 0.40871 0.0109 0.0
H1795 H 0.38585 0.40576 0.0413 0.0
H1796 H 0.40797 0.4164 0.0367 0.0
H1797 H 0.38829 0.42152 0.0223 0.0
H1798 H 0.40875 0.43067 0.99698 0.0
H1799 H 0.42972 0.45719 0.99693 0.0
H1800 H 0.70562 0.36506 0.00798 0.0
H1801 H 0.68343 0.39083 0.00706 0.0
H1802 H 0.63949 0.35353 0.02256 0.0
H1803 H 0.66143 0.32796 0.02368 0.0
H1804 H 0.65227 0.39518 0.9857 0.0
H1805 H 0.63281 0.39476 0.05972 0.0
H1806 H 0.65283 0.38257 0.05108 0.0
H1807 H 0.63014 0.3724 0.0493 0.0
C1808 C 0.69124 0.36244 0.01129 0.0
C1809 C 0.68532 0.34456 0.0162 0.0
C1810 C 0.6786 0.37714 0.01078 0.0
C1811 C 0.6599 0.37417 0.01517 0.0
C1812 C 0.65395 0.35627 0.01972 0.0
H1813 H 0.55516 0.42887 0.01095 0.0
H1814 H 0.58143 0.40769 0.01253 0.0
C1815 C 0.66653 0.34166 0.02035 0.0
C1816 C 0.64628 0.3895 0.01433 0.0
H1817 H 0.61203 0.41054 0.03917 0.0
C1818 C 0.64365 0.39875 0.99745 0.0
C1819 C 0.63509 0.39418 0.02971 0.0
C1820 C 0.63798 0.38559 0.04852 0.0
C1821 C 0.62954 0.41196 0.99533 0.0
C1822 C 0.61791 0.41604 0.01051 0.0
C1823 C 0.62089 0.40722 0.02752 0.0
C1824 C 0.60214 0.42899 0.00892 0.0
C1825 C 0.6267 0.42097 0.97672 0.0
C1826 C 0.60514 0.44799 1.00642 0.0
C1827 C 0.59016 0.46019 1.00555 0.0
C1828 C 0.57188 0.45359 0.00717 0.0
C1829 C 0.56899 0.43448 0.00957 0.0
C1830 C 0.58399 0.42233 0.01052 0.0
H1831 H 0.63486 0.4141 0.96566 0.0
H1832 H 0.61184 0.4207 0.97283 0.0
H1833 H 0.63107 0.43568 0.9775 0.0
H1834 H 0.61909 0.4534 1.00539 0.0
H1835 H 0.59294 0.4748 1.0037 0.0
H1836 H 0.98645 0.66203 0.68614 0.0
H1837 H 0.98788 0.6388 0.66172 0.0
H1838 H 0.01174 0.67903 0.62465 0.0
H1839 H 0.01054 0.70243 0.64923 0.0
H1840 H 0.97205 0.63755 0.62767 0.0
H1841 H 0.04869 0.63694 0.6214 0.0
H1842 H 0.03689 0.64832 0.64022 0.0
H1843 H 0.03828 0.65922 0.61791 0.0
C1844 C 0.9918 0.66604 0.67273 0.0
C1845 C 0.99834 0.6841 0.6696 0.0
C1846 C 0.9927 0.65269 0.65881 0.0
C1847 C 1.00017 0.65708 0.64145 0.0
C1848 C 1.00632 0.67522 0.63809 0.0
H1849 H 0.01398 0.58922 0.5429 0.0
H1850 H 0.0122 0.61478 0.56494 0.0
C1851 C 1.00555 0.68859 0.65209 0.0
C1852 C 1.00144 0.64252 0.62703 0.0
H1853 H 0.032 0.61824 0.60033 0.0
C1854 C 0.98516 0.63334 0.62169 0.0
C1855 C 0.01857 0.63701 0.61928 0.0
C1856 C 0.03664 0.64574 0.62508 0.0
C1857 C 0.98554 0.61882 0.60881 0.0
C1858 C 1.00266 0.61325 0.60119 0.0
C1859 C 0.01891 0.62258 0.60626 0.0
C1860 C 1.00397 0.59764 0.58802 0.0
C1861 C 0.96762 0.6096 0.60333 0.0
C1862 C 1.0002 0.5795 0.59382 0.0
C1863 C 1.00127 0.56479 0.58129 0.0
C1864 C 1.00608 0.568 0.5627 0.0
C1865 C 0.01009 0.58622 0.55705 0.0
C1866 C 0.00913 0.60087 0.56962 0.0
H1867 H 0.95537 0.61792 0.60745 0.0
H1868 H 0.96715 0.60726 0.58815 0.0
H1869 H 0.96666 0.59592 0.61023 0.0
H1870 H 0.99642 0.57673 0.60806 0.0
H1871 H 0.9981 0.55097 0.58614 0.0
H1872 H 0.3289 0.02553 0.66186 0.0
H1873 H 0.35362 0.02374 0.63898 0.0
H1874 H 0.39016 1.00046 0.68003 0.0
H1875 H 0.36522 1.00197 0.70306 0.0
H1876 H 0.38738 0.03987 0.63821 0.0
H1877 H 0.3948 0.96334 0.63834 0.0
H1878 H 0.37563 0.97494 0.64936 0.0
H1879 H 0.39783 0.97402 0.66055 0.0
C1880 C 0.34224 0.02019 0.66609 0.0
C1881 C 0.34515 0.01395 0.68429 0.0
C1882 C 0.35634 0.01909 0.65297 0.0
C1883 C 0.37366 0.01173 0.6577 0.0
C1884 C 0.37676 1.00579 0.67595 0.0
H1885 H 0.47304 0.99897 0.59041 0.0
H1886 H 0.45097 1.00044 0.61599 0.0
C1887 C 0.36256 0.00674 0.68911 0.0
C1888 C 0.38836 0.01054 0.64342 0.0
H1889 H 0.41578 0.98018 0.61969 0.0
C1890 C 0.3936 0.02682 0.63419 0.0
C1891 C 0.39645 0.99348 0.63816 0.0
C1892 C 0.39081 0.97541 0.64698 0.0
C1893 C 0.40663 0.02651 0.61981 0.0
C1894 C 0.41454 0.00945 0.61445 0.0
C1895 C 0.40963 0.99322 0.62387 0.0
C1896 C 0.42773 0.0082 0.59885 0.0
C1897 C 0.41192 0.04442 0.61048 0.0
C1898 C 0.42184 0.0118 0.58071 0.0
C1899 C 0.43438 0.01092 0.56601 0.0
C1900 C 0.45306 0.00646 0.5692 0.0
C1901 C 0.45881 1.00259 0.58742 0.0
C1902 C 0.44622 1.00337 0.60208 0.0
H1903 H 0.40768 0.05667 0.61875 0.0
H1904 H 0.4271 0.04505 0.60812 0.0
H1905 H 0.40497 0.04524 0.59682 0.0
H1906 H 0.40753 0.01532 0.57794 0.0
H1907 H 0.42944 0.01397 0.5522 0.0
H1908 H 0.96847 0.33333 0.66934 0.0
H1909 H 0.97072 0.35753 0.64587 0.0
H1910 H 0.03029 0.3552 0.64896 0.0
H1911 H 0.02817 0.33165 0.67308 0.0
H1912 H 0.01761 0.39033 0.65132 0.0
H1913 H 0.98455 0.35497 0.59188 0.0
H1914 H 0.97024 0.35518 0.61216 0.0
H1915 H 0.9918 0.34272 0.61238 0.0
C1916 C 0.98206 0.33788 0.66496 0.0
C1917 C 0.99814 0.33055 0.67315 0.0
C1918 C 0.98332 0.35159 0.65139 0.0
C1919 C 1.00067 0.35805 0.64553 0.0
C1920 C 0.01675 0.35037 0.65324 0.0
H1921 H 0.02012 0.42744 0.5505 0.0
H1922 H 0.01915 0.40292 0.57357 0.0
C1923 C 0.01551 0.33674 0.66689 0.0
C1924 C 1.00207 0.37357 0.63219 0.0
H1925 H 0.9892 0.38746 0.58897 0.0
C1926 C 0.01149 0.38968 0.63764 0.0
C1927 C 0.99419 0.37265 0.61431 0.0
C1928 C 0.98479 0.35539 0.60724 0.0
C1929 C 0.01316 0.40494 0.62574 0.0
C1930 C 1.00478 0.40422 0.60808 0.0
C1931 C 0.99545 0.38807 0.60259 0.0
C1932 C 1.00614 0.4197 0.59468 0.0
C1933 C 0.02423 0.42149 0.63205 0.0
C1934 C 0.99928 0.43741 0.59892 0.0
C1935 C 0.99999 0.45161 0.58575 0.0
C1936 C 0.00725 0.4482 0.56804 0.0
C1937 C 0.01425 0.4305 0.56396 0.0
C1938 C 0.01373 0.41644 0.57713 0.0
H1939 H 0.03373 0.41791 0.64359 0.0
H1940 H 0.03253 0.42732 0.62051 0.0
H1941 H 0.01463 0.43238 0.63704 0.0
H1942 H 0.99302 0.44013 0.61225 0.0
H1943 H 0.99434 0.46505 0.58924 0.0
H1944 H 0.66433 0.02643 0.68561 0.0
H1945 H 0.64167 0.02474 0.66069 0.0
H1946 H 0.68242 0.99944 0.62516 0.0
H1947 H 0.70524 1.00087 0.65027 0.0
H1948 H 0.64135 0.03975 0.62639 0.0
H1949 H 0.63999 0.96301 0.62165 0.0
H1950 H 0.65114 0.97506 0.64044 0.0
H1951 H 0.66244 0.97313 0.61836 0.0
C1952 C 0.66857 0.02069 0.67242 0.0
C1953 C 0.6866 0.01382 0.66989 0.0
C1954 C 0.65556 0.01965 0.65822 0.0
C1955 C 0.66025 0.01171 0.64115 0.0
C1956 C 0.67837 1.00523 0.63837 0.0
H1957 H 0.59289 0.99787 0.54195 0.0
H1958 H 0.61854 0.99953 0.56394 0.0
C1959 C 0.69141 1.00613 0.65267 0.0
C1960 C 0.646 0.01031 0.62644 0.0
H1961 H 0.62171 0.97946 0.60006 0.0
C1962 C 0.63709 0.02657 0.62062 0.0
C1963 C 0.64042 0.99307 0.61895 0.0
C1964 C 0.64885 0.97504 0.62526 0.0
C1965 C 0.62271 0.02607 0.60759 0.0
C1966 C 0.61704 0.00885 0.60028 0.0
C1967 C 0.62615 0.99262 0.60576 0.0
C1968 C 0.60142 0.00744 0.58715 0.0
C1969 C 0.61366 0.04393 0.60169 0.0
C1970 C 0.58328 0.01105 0.59306 0.0
C1971 C 0.56854 0.01002 0.58058 0.0
C1972 C 0.57172 1.00544 0.56193 0.0
C1973 C 0.58993 1.00157 0.55616 0.0
C1974 C 0.60462 1.00246 0.5687 0.0
H1975 H 0.62196 0.05621 0.6058 0.0
H1976 H 0.61162 0.04419 0.58647 0.0
H1977 H 0.59984 0.04503 0.60831 0.0
H1978 H 0.58055 0.01472 0.60733 0.0
H1979 H 0.55473 0.01312 0.5855 0.0
H1980 H 1.00569 0.30932 0.36293 0.0
H1981 H 1.00368 0.33261 0.38764 0.0
H1982 H 0.02599 0.37381 0.35074 0.0
H1983 H 0.02783 0.35086 0.32603 0.0
H1984 H 0.0346 0.3579 0.40173 0.0
H1985 H 0.97433 0.39395 0.3703 0.0
H1986 H 0.98016 0.37024 0.36491 0.0
H1987 H 0.99326 0.38884 0.35496 0.0
C1988 C 0.01021 0.32333 0.36013 0.0
C1989 C 0.01697 0.32824 0.34255 0.0
C1990 C 0.00911 0.33656 0.37424 0.0
C1991 C 0.01454 0.3549 0.37088 0.0
C1992 C 0.02163 0.35973 0.35351 0.0
H1993 H 0.0142 0.46003 0.42695 0.0
H1994 H 0.01586 0.43436 0.405 0.0
C1995 C 0.02284 0.34655 0.33948 0.0
C1996 C 0.01253 0.36923 0.38531 0.0
H1997 H 0.989 0.40888 0.39549 0.0
C1998 C 0.02454 0.36897 0.40053 0.0
C1999 C 0.99944 0.38365 0.38354 0.0
C2000 C 0.98593 0.38422 0.36763 0.0
C2001 C 0.02419 0.38316 0.41381 0.0
C2002 C 0.01118 0.3977 0.41195 0.0
C2003 C 0.99898 0.39775 0.39685 0.0
C2004 C 0.01015 0.41316 0.42536 0.0
C2005 C 0.03815 0.38278 0.42934 0.0
C2006 C 1.00609 0.40977 0.44402 0.0
C2007 C 1.00519 0.42439 0.45662 0.0
C2008 C 0.00814 0.44275 0.45077 0.0
C2009 C 0.01184 0.44611 0.43196 0.0
C2010 C 0.01282 0.43145 0.41939 0.0
H2011 H 0.05003 0.37358 0.42611 0.0
H2012 H 0.04351 0.39688 0.43228 0.0
H2013 H 0.03139 0.37748 0.44206 0.0
H2014 H 1.00353 0.39582 0.44883 0.0
H2015 H 1.00211 0.42126 0.47094 0.0
H2016 H 0.66727 0.03217 0.32523 0.0
H2017 H 0.64272 0.03377 0.34838 0.0
H2018 H 0.64114 0.97418 0.35106 0.0
H2019 H 0.66496 0.97241 0.32715 0.0
H2020 H 0.60689 0.98879 0.35335 0.0
H2021 H 0.65385 0.0246 0.40238 0.0
H2022 H 0.65076 0.03684 0.38101 0.0
H2023 H 0.66192 0.01458 0.381 0.0
C2024 C 0.66139 0.01938 0.33036 0.0
C2025 C 0.66829 1.00215 0.32447 0.0
C2026 C 0.64754 0.02034 0.34383 0.0
C2027 C 0.64051 1.00411 0.35186 0.0
C2028 C 0.64655 0.98689 0.34524 0.0
H2029 H 0.58697 0.99551 0.45907 0.0
H2030 H 0.60838 0.99446 0.43284 0.0
C2031 C 0.66026 0.98591 0.33165 0.0
C2032 C 0.6274 1.005 0.36763 0.0
H2033 H 0.62255 0.02145 0.41166 0.0
C2034 C 0.6103 0.99593 0.36611 0.0
C2035 C 0.63205 0.01399 0.38442 0.0
C2036 C 0.65071 0.02289 0.38743 0.0
C2037 C 0.59761 0.99577 0.38082 0.0
C2038 C 0.60197 1.00536 0.39734 0.0
C2039 C 0.61915 0.01427 0.39893 0.0
C2040 C 0.589 1.00618 0.41323 0.0
C2041 C 0.57989 0.98491 0.37868 0.0
C2042 C 0.57114 0.01345 0.41101 0.0
C2043 C 0.55885 0.01391 0.4259 0.0
C2044 C 0.56427 0.0074 0.44342 0.0
C2045 C 0.58236 1.00064 0.44577 0.0
C2046 C 0.5946 1.0 0.43079 0.0
H2047 H 0.58116 0.97412 0.3678 0.0
H2048 H 0.57589 0.97812 0.39186 0.0
H2049 H 0.5686 0.99444 0.37452 0.0
H2050 H 0.5667 0.01881 0.39775 0.0
H2051 H 0.54511 0.01948 0.42367 0.0
H2052 H 0.04509 0.66499 0.33207 0.0
H2053 H 0.04264 0.64009 0.35475 0.0
H2054 H 0.98336 0.63934 0.34777 0.0
H2055 H 0.98559 0.66487 0.32575 0.0
H2056 H 0.99277 0.64133 0.38356 0.0
H2057 H 0.03309 0.58538 0.35027 0.0
H2058 H 0.04597 0.60653 0.35195 0.0
H2059 H 0.02548 0.60564 0.33781 0.0
C2060 C 0.03153 0.65944 0.33524 0.0
C2061 C 0.01553 0.66701 0.32713 0.0
C2062 C 0.03018 0.64503 0.34806 0.0
C2063 C 0.01283 0.6377 0.35283 0.0
C2064 C 0.9969 0.64473 0.34423 0.0
H2065 H 0.99846 0.54137 0.42346 0.0
H2066 H 0.99877 0.56326 0.39779 0.0
C2067 C 0.99823 0.65922 0.33149 0.0
C2068 C 0.01118 0.62386 0.36791 0.0
H2069 H 0.02711 0.58193 0.38267 0.0
C2070 C 1.00014 0.62826 0.38329 0.0
C2071 C 0.02065 0.60674 0.36748 0.0
C2072 C 0.03181 0.60069 0.3509 0.0
C2073 C 0.99862 0.61619 0.39841 0.0
C2074 C 0.0088 0.59947 0.39837 0.0
C2075 C 0.0195 0.59487 0.38281 0.0
C2076 C 0.00835 0.5864 0.4142 0.0
C2077 C 0.9859 0.62137 0.41415 0.0
C2078 C 0.01374 0.5921 0.43198 0.0
C2079 C 0.01343 0.57963 0.44678 0.0
C2080 C 0.00802 0.56115 0.44399 0.0
C2081 C 1.0028 0.55547 0.42611 0.0
C2082 C 1.00296 0.56797 0.41139 0.0
H2083 H 0.97523 0.63151 0.4097 0.0
H2084 H 0.97882 0.609 0.41989 0.0
H2085 H 0.99414 0.62786 0.42536 0.0
H2086 H 0.0184 0.60613 0.43438 0.0
H2087 H 0.01772 0.58441 0.46032 0.0
H2088 H 0.36068 0.01082 0.31728 0.0
H2089 H 0.38403 0.01202 0.34188 0.0
H2090 H 0.34572 0.98597 0.37951 0.0
H2091 H 0.32249 0.98461 0.35509 0.0
H2092 H 0.38161 0.03008 0.3751 0.0
H2093 H 0.39169 0.955 0.38715 0.0
H2094 H 0.38 0.96387 0.36695 0.0
H2095 H 0.36791 0.96199 0.38864 0.0
C2096 C 0.35733 1.00521 0.33076 0.0
C2097 C 0.33982 0.99744 0.33418 0.0
C2098 C 0.37066 1.00587 0.34478 0.0
C2099 C 0.36672 0.99879 0.36244 0.0
C2100 C 0.34927 0.99103 0.36586 0.0
H2101 H 0.42512 0.99864 0.46806 0.0
H2102 H 0.40137 0.99719 0.44384 0.0
C2103 C 0.336 0.99026 0.35186 0.0
C2104 C 0.38044 1.0004 0.37761 0.0
H2105 H 0.40438 0.97537 0.40975 0.0
C2106 C 0.38668 0.01811 0.3826 0.0
C2107 C 0.38695 0.98477 0.38744 0.0
C2108 C 0.38144 0.96532 0.38218 0.0
C2109 C 0.3991 0.02063 0.39731 0.0
C2110 C 0.40552 1.00501 0.40716 0.0
C2111 C 0.39926 0.98731 0.40224 0.0
C2112 C 0.41951 0.00666 0.422 0.0
C2113 C 0.4051 0.03998 0.40236 0.0
C2114 C 0.43751 0.01242 0.41766 0.0
C2115 C 0.45106 0.01321 0.43136 0.0
C2116 C 0.44691 0.00823 0.44973 0.0
C2117 C 0.42876 1.00268 0.4541 0.0
C2118 C 0.4152 1.00178 0.44029 0.0
H2119 H 0.39565 0.0506 0.39651 0.0
H2120 H 0.40567 0.04172 0.41761 0.0
H2121 H 0.41918 0.04252 0.39677 0.0
H2122 H 0.44116 0.016 0.40357 0.0
H2123 H 0.46485 0.01761 0.42747 0.0
H2124 H 0.00925 0.15447 0.31713 0.0
H2125 H 0.00853 0.13248 0.34274 0.0
H2126 H 1.00215 0.17748 0.38138 0.0
H2127 H 1.00289 0.19967 0.35573 0.0
H2128 H 0.03214 0.12965 0.37256 0.0
H2129 H 0.96022 0.14276 0.39636 0.0
H2130 H 0.96875 0.15091 0.37435 0.0
H2131 H 0.97468 0.16295 0.39528 0.0
C2132 C 0.00781 0.15975 0.33107 0.0
C2133 C 1.0062 0.17889 0.33435 0.0
C2134 C 0.0073 0.14712 0.34571 0.0
C2135 C 1.00507 0.15327 0.36398 0.0
C2136 C 1.00349 0.17236 0.36737 0.0
H2137 H 1.00134 0.09251 0.46851 0.0
H2138 H 1.00207 0.11656 0.44474 0.0
C2139 C 1.00395 0.18504 0.35269 0.0
C2140 C 1.0049 0.13961 0.3794 0.0
H2141 H 0.97825 0.12224 0.41442 0.0
C2142 C 0.02034 0.12803 0.3817 0.0
C2143 C 0.98953 0.13753 0.39138 0.0
C2144 C 0.97227 0.14906 0.38918 0.0
C2145 C 0.02087 0.11448 0.39563 0.0
C2146 C 1.00541 0.11222 0.40744 0.0
C2147 C 0.99007 0.12397 0.40534 0.0
C2148 C 1.0048 0.09752 0.42183 0.0
C2149 C 0.0381 0.10287 0.39775 0.0
C2150 C 1.0058 0.07878 0.41684 0.0
C2151 C 1.0054 0.06494 0.43038 0.0
C2152 C 1.00389 0.06954 0.44926 0.0
C2153 C 1.00259 0.08837 0.45416 0.0
C2154 C 1.00298 0.10219 0.44058 0.0
H2155 H 0.05029 0.10951 0.39114 0.0
H2156 H 0.04128 0.10036 0.41256 0.0
H2157 H 0.03587 0.08927 0.39097 0.0
H2158 H 0.00683 0.07482 0.40243 0.0
H2159 H 1.00632 0.05064 0.42599 0.0
H2160 H 0.86735 0.01915 0.31249 0.0
H2161 H 0.88812 0.01837 0.33911 0.0
H2162 H 0.84368 0.99804 0.37334 0.0
H2163 H 0.82301 0.9979 0.34658 0.0
H2164 H 0.88594 0.03697 0.37167 0.0
H2165 H 0.88423 0.96136 0.38508 0.0
H2166 H 0.87529 0.97142 0.36406 0.0
H2167 H 0.86183 0.97209 0.38499 0.0
C2168 C 0.86203 0.01418 0.32558 0.0
C2169 C 0.84349 0.00843 0.32728 0.0
C2170 C 0.87391 0.0139 0.34085 0.0
C2171 C 0.86757 0.00787 0.35819 0.0
C2172 C 0.84902 1.00237 0.36003 0.0
H2173 H 0.92335 1.00153 0.46562 0.0
H2174 H 0.90016 1.00188 0.4409 0.0
C2175 C 0.83714 1.00254 0.34474 0.0
C2176 C 0.88032 0.00782 0.37435 0.0
H2177 H 0.89995 0.97989 0.40712 0.0
C2178 C 0.88901 0.02447 0.37939 0.0
C2179 C 0.8843 0.99152 0.38449 0.0
C2180 C 0.87607 0.97304 0.37931 0.0
C2181 C 0.90152 0.02528 0.39424 0.0
C2182 C 0.90561 0.00897 0.40423 0.0
C2183 C 0.89673 0.99238 0.39944 0.0
C2184 C 0.91963 0.00874 0.41924 0.0
C2185 C 0.91017 0.04362 0.39922 0.0
C2186 C 0.93828 0.01224 0.4152 0.0
C2187 C 0.95158 0.012 0.42924 0.0
C2188 C 0.94651 0.00823 0.44768 0.0
C2189 C 0.92778 1.00458 0.45164 0.0
C2190 C 0.91449 1.00473 0.43753 0.0
H2191 H 0.90231 0.05543 0.39333 0.0
H2192 H 0.91099 0.04533 0.41447 0.0
H2193 H 0.92446 0.04414 0.39362 0.0
H2194 H 0.94259 0.01509 0.40113 0.0
H2195 H 0.96583 0.01487 0.42559 0.0
H2196 H 0.99831 0.82438 0.35065 0.0
H2197 H 0.99895 0.84631 0.37648 0.0
H2198 H 0.01181 0.89063 0.33873 0.0
H2199 H 0.01157 0.86884 0.3129 0.0
H2200 H 0.02837 0.87035 0.38833 0.0
H2201 H 0.96584 0.90957 0.36706 0.0
H2202 H 0.97128 0.88695 0.35795 0.0
H2203 H 0.98306 0.90707 0.34931 0.0
C2204 C 1.00144 0.83876 0.34782 0.0
C2205 C 1.00475 0.84481 0.32959 0.0
C2206 C 1.0017 0.85129 0.36262 0.0
C2207 C 1.00514 0.87015 0.3595 0.0
C2208 C 0.00873 0.87621 0.34141 0.0
H2209 H 0.01096 0.96998 0.42541 0.0
H2210 H 0.01092 0.94654 0.4011 0.0
C2211 C 0.00853 0.86371 0.32664 0.0
C2212 C 1.00516 0.88353 0.37515 0.0
H2213 H 0.98364 0.92232 0.39149 0.0
C2214 C 0.01853 0.88165 0.38911 0.0
C2215 C 0.99232 0.89827 0.37612 0.0
C2216 C 0.97719 0.90057 0.36192 0.0
C2217 C 0.01974 0.89444 0.40375 0.0
C2218 C 0.00696 0.90928 0.40467 0.0
C2219 C 0.99347 0.911 0.39078 0.0
C2220 C 0.00746 0.92336 0.41971 0.0
C2221 C 0.03506 0.89225 0.41776 0.0
C2222 C 1.0054 0.9182 0.43833 0.0
C2223 C 1.0055 0.9316 0.45235 0.0
C2224 C 0.00746 0.95051 0.44804 0.0
C2225 C 0.00941 0.95561 0.42933 0.0
C2226 C 0.00939 0.9422 0.41536 0.0
H2227 H 0.04647 0.88345 0.4124 0.0
H2228 H 0.04086 0.9059 0.42179 0.0
H2229 H 0.02944 0.88552 0.43036 0.0
H2230 H 1.00345 0.90381 0.44203 0.0
H2231 H 1.0038 0.92711 0.46654 0.0
H2232 H 0.18941 1.00134 0.34916 0.0
H2233 H 0.16829 1.00135 0.37565 0.0
H2234 H 0.124 0.0203 0.34054 0.0
H2235 H 0.14503 0.02082 0.31409 0.0
H2236 H 0.14606 0.03189 0.39027 0.0
H2237 H 0.10345 0.97273 0.36596 0.0
H2238 H 0.12629 0.97747 0.35698 0.0
H2239 H 0.10682 0.99086 0.34928 0.0
C2240 C 0.17524 1.00571 0.34706 0.0
C2241 C 0.16896 0.01098 0.32937 0.0
C2242 C 0.16316 1.0056 0.36223 0.0
C2243 C 0.14452 0.01058 0.36002 0.0
C2244 C 0.13825 0.01607 0.34249 0.0
H2245 H 0.04591 0.0174 0.42667 0.0
H2246 H 0.06948 0.01732 0.40256 0.0
C2247 C 0.15031 0.01628 0.32735 0.0
C2248 C 0.13157 0.01014 0.376 0.0
H2249 H 0.09211 0.98945 0.39178 0.0
C2250 C 0.13433 0.02253 0.39071 0.0
C2251 C 0.1163 0.99792 0.37652 0.0
C2252 C 0.11305 0.98386 0.36144 0.0
C2253 C 0.12184 0.02346 0.40563 0.0
C2254 C 0.10641 0.01136 0.40605 0.0
C2255 C 0.10389 0.99875 0.39147 0.0
C2256 C 0.09233 0.0119 0.42111 0.0
C2257 C 0.12493 0.03784 0.42045 0.0
C2258 C 0.09726 0.0088 0.43967 0.0
C2259 C 0.08375 0.00894 0.45361 0.0
C2260 C 0.065 0.01195 0.44925 0.0
C2261 C 0.06016 0.01497 0.43062 0.0
C2262 C 0.07365 0.01494 0.41676 0.0
H2263 H 0.13436 0.04901 0.41568 0.0
H2264 H 0.11164 0.04417 0.42485 0.0
H2265 H 0.13135 0.03116 0.43269 0.0
H2266 H 0.1115 1.00599 0.44335 0.0
H2267 H 0.088 0.00638 0.46774 0.0
H2268 H 0.01252 0.86071 0.69762 0.0
H2269 H 0.01103 0.88359 0.67283 0.0
H2270 H 1.00459 0.83988 0.63274 0.0
H2271 H 1.00593 0.81682 0.65761 0.0
H2272 H 0.03405 0.88818 0.64359 0.0
H2273 H 0.96286 0.87436 0.61829 0.0
H2274 H 0.97138 0.86524 0.63991 0.0
H2275 H 0.97763 0.85439 0.61841 0.0
C2276 C 0.01081 0.85592 0.68352 0.0
C2277 C 0.00942 0.83689 0.67961 0.0
C2278 C 0.00989 0.86905 0.66935 0.0
C2279 C 0.00749 0.86354 0.65089 0.0
C2280 C 1.00603 0.84454 0.64689 0.0
H2281 H 1.00519 0.92617 0.54763 0.0
H2282 H 1.00583 0.90191 0.57116 0.0
C2283 C 0.00685 0.83135 0.66112 0.0
C2284 C 0.00721 0.87773 0.63592 0.0
H2285 H 0.98094 0.89541 0.60075 0.0
C2286 C 0.0224 0.88977 0.63427 0.0
C2287 C 0.99204 0.87983 0.62369 0.0
C2288 C 0.97497 0.86789 0.62521 0.0
C2289 C 0.0229 0.90371 0.62071 0.0
C2290 C 0.00769 0.90589 0.60858 0.0
C2291 C 0.99258 0.89374 0.61007 0.0
C2292 C 0.00717 0.92077 0.59434 0.0
C2293 C 0.03986 0.91582 0.6193 0.0
C2294 C 0.00748 0.93949 0.59953 0.0
C2295 C 0.00711 0.95347 0.58611 0.0
C2296 C 0.00638 0.94903 0.56715 0.0
C2297 C 1.00586 0.93021 0.56204 0.0
C2298 C 1.00618 0.91626 0.57549 0.0
H2299 H 0.052 0.90948 0.62627 0.0
H2300 H 0.04347 0.91854 0.60461 0.0
H2301 H 0.03701 0.9293 0.62608 0.0
H2302 H 0.00791 0.94332 0.61401 0.0
H2303 H 0.00744 0.96774 0.59064 0.0
H2304 H 0.14644 0.99914 0.70228 0.0
H2305 H 0.12475 1.00002 0.67636 0.0
H2306 H 0.16826 0.01919 0.64038 0.0
H2307 H 0.19004 0.01876 0.66631 0.0
H2308 H 0.11524 0.03132 0.65386 0.0
H2309 H 0.14599 0.97417 0.61255 0.0
H2310 H 0.15114 0.97749 0.63677 0.0
H2311 H 0.16172 0.99209 0.61968 0.0
C2312 C 0.15143 1.00371 0.68892 0.0
C2313 C 0.17007 0.0089 0.68648 0.0
C2314 C 0.139 1.00408 0.67407 0.0
C2315 C 0.14491 0.00946 0.65638 0.0
C2316 C 0.16346 0.01466 0.65383 0.0
H2317 H 0.08663 0.01715 0.55056 0.0
H2318 H 0.10988 0.01753 0.57516 0.0
C2319 C 0.17592 0.01437 0.6687 0.0
C2320 C 0.13149 0.01008 0.64079 0.0
H2321 H 0.12106 0.99044 0.59904 0.0
C2322 C 0.1165 0.02238 0.64188 0.0
C2323 C 0.13322 0.99849 0.6251 0.0
C2324 C 0.14878 0.98469 0.62341 0.0
C2325 C 0.10324 0.02349 0.62769 0.0
C2326 C 0.10473 0.01164 0.61214 0.0
C2327 C 0.11987 0.99949 0.61095 0.0
C2328 C 0.09054 0.0114 0.59717 0.0
C2329 C 0.08796 0.03763 0.62934 0.0
C2330 C 0.07194 0.00754 0.60126 0.0
C2331 C 0.05857 0.00741 0.58725 0.0
C2332 C 0.06351 0.01091 0.56873 0.0
C2333 C 0.08225 0.01443 0.56463 0.0
C2334 C 0.0956 0.01465 0.57869 0.0
H2335 H 0.09188 0.0491 0.63881 0.0
H2336 H 0.08438 0.04359 0.61565 0.0
H2337 H 0.07543 0.03088 0.6351 0.0
H2338 H 0.06774 1.00449 0.61531 0.0
H2339 H 0.04437 1.0044 0.59098 0.0
H2340 H 0.97688 0.17038 0.68755 0.0
H2341 H 0.97621 0.14672 0.66337 0.0
H2342 H 0.02963 0.16488 0.64395 0.0
H2343 H 0.0304 0.18864 0.66807 0.0
H2344 H 0.97784 0.14918 0.62532 0.0
H2345 H 0.03785 0.10965 0.65231 0.0
H2346 H 0.02641 0.12743 0.66559 0.0
H2347 H 0.04276 0.13359 0.64788 0.0
C2348 C 0.9884 0.16953 0.678 0.0
C2349 C 1.00374 0.1814 0.67984 0.0
C2350 C 0.98804 0.1559 0.66424 0.0
C2351 C 1.00302 0.15377 0.65205 0.0
C2352 C 0.01811 0.16594 0.65348 0.0
H2353 H 1.0036 0.09167 0.54898 0.0
H2354 H 1.00336 0.11555 0.57282 0.0
C2355 C 0.01851 0.17955 0.66727 0.0
C2356 C 1.00279 0.13884 0.63787 0.0
H2357 H 0.02622 0.10053 0.62297 0.0
C2358 C 0.9884 0.13853 0.62482 0.0
C2359 C 0.01641 0.12475 0.6374 0.0
C2360 C 0.03164 0.1237 0.65164 0.0
C2361 C 0.98743 0.12473 0.61114 0.0
C2362 C 1.0014 0.11102 0.61027 0.0
C2363 C 0.01561 0.11114 0.62352 0.0
C2364 C 1.00152 0.09641 0.59575 0.0
C2365 C 0.97126 0.12479 0.59793 0.0
C2366 C 1.00105 0.07762 0.60068 0.0
C2367 C 1.00131 0.06383 0.58705 0.0
C2368 C 1.00213 0.06855 0.56817 0.0
C2369 C 1.00278 0.08743 0.56333 0.0
C2370 C 1.00255 0.10117 0.57696 0.0
H2371 H 0.95939 0.1328 0.60352 0.0
H2372 H 0.97556 0.13133 0.58473 0.0
H2373 H 0.96654 0.11048 0.59489 0.0
H2374 H 1.00036 0.0736 0.6151 0.0
H2375 H 1.00084 0.04949 0.59137 0.0
H2376 H 0.82355 0.0291 0.66936 0.0
H2377 H 0.84497 0.02992 0.64306 0.0
H2378 H 0.86903 0.97836 0.66096 0.0
H2379 H 0.84734 0.97709 0.68678 0.0
H2380 H 0.88288 0.03132 0.64404 0.0
H2381 H 0.86041 0.96843 0.60651 0.0
H2382 H 0.84667 0.97889 0.62455 0.0
H2383 H 0.86575 0.96396 0.63032 0.0
C2384 C 0.83314 0.01774 0.66748 0.0
C2385 C 0.8337 1.00304 0.68023 0.0
C2386 C 0.84548 0.0183 0.65251 0.0
C2387 C 0.85849 1.0041 0.64988 0.0
C2388 C 0.85892 0.98931 0.66245 0.0
H2389 H 0.96263 0.00795 0.59029 0.0
H2390 H 0.93794 0.00775 0.61338 0.0
C2391 C 0.84661 0.98873 0.67737 0.0
C2392 C 0.87228 1.00513 0.6346 0.0
H2393 H 0.88979 0.98101 0.59787 0.0
C2394 C 0.88429 0.02039 0.63385 0.0
C2395 C 0.87401 0.99098 0.62115 0.0
C2396 C 0.8609 0.97473 0.62052 0.0
C2397 C 0.89828 0.02164 0.62039 0.0
C2398 C 0.90056 0.00707 0.6075 0.0
C2399 C 0.88821 0.99207 0.6079 0.0
C2400 C 0.91562 0.00715 0.59344 0.0
C2401 C 0.9104 0.03865 0.62 0.0
C2402 C 0.91135 0.00637 0.57452 0.0
C2403 C 0.92544 0.00636 0.56124 0.0
C2404 C 0.94419 0.007 0.56658 0.0
C2405 C 0.94841 0.00755 0.58559 0.0
C2406 C 0.93428 0.00756 0.59886 0.0
H2407 H 0.90375 0.05051 0.62719 0.0
H2408 H 0.92362 0.03559 0.62717 0.0
H2409 H 0.91361 0.04282 0.60557 0.0
H2410 H 0.89705 1.00594 0.57001 0.0
H2411 H 0.92158 1.00589 0.54678 0.0
H2412 H 0.35463 0.01319 0.1986 0.0
H2413 H 0.37929 0.01502 0.1753 0.0
H2414 H 0.3395 1.00403 0.13227 0.0
H2415 H 0.31481 1.0026 0.15529 0.0
H2416 H 0.39064 0.9876 0.14934 0.0
H2417 H 0.36579 0.05101 0.11395 0.0
H2418 H 0.35772 0.04422 0.1366 0.0
H2419 H 0.34859 0.03322 0.11625 0.0
C2420 C 0.35111 0.01133 0.18416 0.0
C2421 C 0.3327 0.00773 0.17886 0.0
C2422 C 0.36523 0.01229 0.17087 0.0
C2423 C 0.36122 0.00991 0.152 0.0
C2424 C 0.34291 1.00621 0.1467 0.0
H2425 H 0.42304 0.00831 0.04888 0.0
H2426 H 0.39942 0.00772 0.07311 0.0
C2427 C 0.32882 1.00517 0.15994 0.0
C2428 C 0.37615 0.01091 0.13783 0.0
H2429 H 0.38975 0.0342 0.09897 0.0
C2430 C 0.39054 0.99787 0.13841 0.0
C2431 C 0.37597 0.02427 0.12351 0.0
C2432 C 0.36129 0.03909 0.12257 0.0
C2433 C 0.40447 0.99752 0.1248 0.0
C2434 C 0.40424 0.01084 0.11042 0.0
C2435 C 0.38992 0.02397 0.10994 0.0
C2436 C 0.4187 0.01138 0.09571 0.0
C2437 C 0.419 0.98254 0.12566 0.0
C2438 C 0.43741 0.01396 0.10027 0.0
C2439 C 0.45098 0.01428 0.08645 0.0
C2440 C 0.44617 0.01217 0.06767 0.0
C2441 C 0.42734 0.00996 0.06313 0.0
C2442 C 0.41378 0.00961 0.07699 0.0
H2443 H 0.41442 0.97067 0.13429 0.0
H2444 H 0.42244 0.97736 0.11161 0.0
H2445 H 0.43179 0.98827 0.13192 0.0
H2446 H 0.44154 0.01582 0.11455 0.0
H2447 H 0.46527 0.01617 0.09055 0.0
H2448 H 0.9974 0.34775 0.19051 0.0
H2449 H 0.99824 0.37423 0.16939 0.0
H2450 H 0.01091 0.33774 0.12397 0.0
H2451 H 0.01051 0.31125 0.14496 0.0
H2452 H 0.02804 0.38637 0.14553 0.0
H2453 H 0.96486 0.36712 0.10627 0.0
H2454 H 0.97026 0.35743 0.12865 0.0
H2455 H 0.9818 0.34904 0.1083 0.0
C2456 C 1.00054 0.34533 0.17606 0.0
C2457 C 1.00377 0.32728 0.16946 0.0
C2458 C 1.00091 0.3605 0.164 0.0
C2459 C 1.00437 0.35792 0.14507 0.0
C2460 C 0.00785 0.34 0.13846 0.0
H2461 H 0.01106 0.4253 0.04684 0.0
H2462 H 0.01051 0.40078 0.06999 0.0
C2463 C 0.00755 0.32485 0.1505 0.0
C2464 C 1.0045 0.37394 0.1322 0.0
H2465 H 0.98296 0.3916 0.09404 0.0
C2466 C 0.01812 0.38762 0.13434 0.0
C2467 C 0.99154 0.37551 0.11762 0.0
C2468 C 0.97617 0.3616 0.1151 0.0
C2469 C 0.0195 0.40254 0.12192 0.0
C2470 C 0.00664 0.40402 0.10721 0.0
C2471 C 0.99285 0.39045 0.10527 0.0
C2472 C 0.00745 0.41923 0.09335 0.0
C2473 C 0.03509 0.41623 0.1243 0.0
C2474 C 1.00581 0.43784 0.09873 0.0
C2475 C 1.00621 0.45199 0.08549 0.0
C2476 C 0.00804 0.44781 0.06655 0.0
C2477 C 0.00959 0.42913 0.06125 0.0
C2478 C 0.00928 0.41503 0.07449 0.0
H2479 H 0.04639 0.41054 0.13304 0.0
H2480 H 0.04098 0.42032 0.11071 0.0
H2481 H 0.02971 0.42885 0.13119 0.0
H2482 H 1.00395 0.44142 0.11316 0.0
H2483 H 1.00481 0.46618 0.09011 0.0
H2484 H 0.67947 0.04195 0.17236 0.0
H2485 H 0.654 0.04043 0.15027 0.0
H2486 H 0.64566 0.98287 0.16355 0.0
H2487 H 0.67174 0.98405 0.18515 0.0
H2488 H 0.64599 0.98841 0.12663 0.0
H2489 H 0.59898 0.03942 0.15899 0.0
H2490 H 0.62155 0.04885 0.15478 0.0
H2491 H 0.61882 0.03007 0.17091 0.0
C2492 C 0.67225 0.02893 0.17061 0.0
C2493 C 0.67775 0.0131 0.18055 0.0
C2494 C 0.6575 0.02816 0.15812 0.0
C2495 C 0.64769 0.01161 0.15541 0.0
C2496 C 0.65293 0.99583 0.16548 0.0
H2497 H 0.54512 1.00591 0.09167 0.0
H2498 H 0.56845 1.00531 0.1161 0.0
C2499 C 0.66776 0.99657 0.17796 0.0
C2500 C 0.63262 0.01059 0.14137 0.0
H2501 H 0.59233 0.03119 0.12762 0.0
C2502 C 0.63418 0.99766 0.12694 0.0
C2503 C 0.61705 0.02248 0.14186 0.0
C2504 C 0.61387 0.03585 0.15757 0.0
C2505 C 0.62089 0.99663 0.11276 0.0
C2506 C 0.60582 0.00916 0.11275 0.0
C2507 C 0.604 0.02175 0.12745 0.0
C2508 C 0.59172 0.0094 0.09771 0.0
C2509 C 0.62302 0.98192 0.0981 0.0
C2510 C 0.59694 0.01214 0.07918 0.0
C2511 C 0.58363 0.01237 0.06511 0.0
C2512 C 0.56472 0.01016 0.06927 0.0
C2513 C 0.55951 0.00773 0.08789 0.0
C2514 C 0.57285 0.00736 0.10192 0.0
H2515 H 0.6317 0.97023 0.10304 0.0
H2516 H 0.60937 0.97638 0.09372 0.0
H2517 H 0.62994 0.98801 0.08582 0.0
H2518 H 0.61134 0.01425 0.0756 0.0
H2519 H 0.58817 0.01446 0.05099 0.0
H2520 H 0.00822 0.65797 0.20011 0.0
H2521 H 0.00831 0.63301 0.17706 0.0
H2522 H 0.01057 0.67344 0.13327 0.0
H2523 H 0.01052 0.69832 0.15608 0.0
H2524 H 0.98413 0.62513 0.14824 0.0
H2525 H 0.05401 0.64018 0.12049 0.0
H2526 H 0.04569 0.65002 0.14188 0.0
H2527 H 0.0389 0.65987 0.12005 0.0
C2528 C 0.00868 0.66153 0.18557 0.0
C2529 C 0.00964 0.68017 0.17998 0.0
C2530 C 0.00879 0.64725 0.1724 0.0
C2531 C 0.00987 0.65131 0.15342 0.0
C2532 C 0.01029 0.6699 0.14783 0.0
H2533 H 0.00988 0.59049 0.05 0.0
H2534 H 0.00965 0.61377 0.07454 0.0
C2535 C 0.01026 0.68414 0.16092 0.0
C2536 C 0.01031 0.63622 0.13936 0.0
H2537 H 0.03544 0.61931 0.10301 0.0
C2538 C 0.99542 0.62375 0.13845 0.0
C2539 C 0.02505 0.6344 0.12656 0.0
C2540 C 0.04191 0.64671 0.12736 0.0
C2541 C 0.99461 0.6099 0.12478 0.0
C2542 C 0.00922 0.60828 0.11182 0.0
C2543 C 0.0242 0.62061 0.11287 0.0
C2544 C 0.00922 0.59397 0.09698 0.0
C2545 C 0.97786 0.59746 0.12398 0.0
C2546 C 0.00931 0.57506 0.10139 0.0
C2547 C 0.00945 0.56166 0.08738 0.0
C2548 C 0.00961 0.56688 0.06859 0.0
C2549 C 0.00972 0.58588 0.06425 0.0
C2550 C 0.0096 0.59925 0.07829 0.0
H2551 H 0.96598 0.60335 0.13178 0.0
H2552 H 0.9735 0.59504 0.10945 0.0
H2553 H 0.98135 0.58388 0.13023 0.0
H2554 H 0.00941 0.57063 0.1157 0.0
H2555 H 0.00943 0.54722 0.09135 0.0
H2556 H 0.35627 0.00774 0.81671 0.0
H2557 H 0.38128 0.00815 0.83972 0.0
H2558 H 0.34104 1.00358 0.88352 0.0
H2559 H 0.31613 1.00304 0.86074 0.0
H2560 H 0.38879 0.03168 0.86883 0.0
H2561 H 0.37547 0.96108 0.89553 0.0
H2562 H 0.36523 0.96954 0.8744 0.0
H2563 H 0.3554 0.97566 0.89645 0.0
C2564 C 0.35277 0.00689 0.83125 0.0
C2565 C 0.33419 1.00508 0.83684 0.0
C2566 C 0.36708 0.00707 0.84439 0.0
C2567 C 0.36311 1.00544 0.86337 0.0
C2568 C 0.34454 1.00426 0.86897 0.0
H2569 H 0.42404 1.00597 0.96671 0.0
H2570 H 0.40076 1.00611 0.94217 0.0
C2571 C 0.33028 1.00398 0.85589 0.0
C2572 C 0.37825 1.00516 0.87739 0.0
H2573 H 0.39578 0.97994 0.91339 0.0
C2574 C 0.39042 0.02029 0.87847 0.0
C2575 C 0.38044 0.99029 0.88998 0.0
C2576 C 0.36856 0.97314 0.88895 0.0
C2577 C 0.4043 0.02121 0.89212 0.0
C2578 C 0.40624 0.00649 0.9049 0.0
C2579 C 0.39423 0.99127 0.90368 0.0
C2580 C 0.42055 0.00663 0.91973 0.0
C2581 C 0.41645 0.03816 0.89308 0.0
C2582 C 0.43947 0.00664 0.91532 0.0
C2583 C 0.45287 0.00651 0.92933 0.0
C2584 C 0.44766 0.00633 0.94812 0.0
C2585 C 0.42865 1.00618 0.95246 0.0
C2586 C 0.41528 1.00624 0.93843 0.0
H2587 H 0.41046 0.04996 0.88524 0.0
H2588 H 0.41863 0.04252 0.90765 0.0
H2589 H 0.43017 0.0349 0.887 0.0
H2590 H 0.4439 0.00658 0.90101 0.0
H2591 H 0.46733 0.00659 0.92537 0.0
H2592 H 0.99453 0.34804 0.82488 0.0
H2593 H 0.99524 0.37501 0.8453 0.0
H2594 H 0.01418 0.34059 0.89017 0.0
H2595 H 0.01441 0.31377 0.86968 0.0
H2596 H 0.97647 0.38208 0.87702 0.0
H2597 H 0.05168 0.38186 0.8916 0.0
H2598 H 0.04156 0.36813 0.87338 0.0
H2599 H 0.04095 0.36015 0.89697 0.0
C2600 C 0.99914 0.34623 0.83901 0.0
C2601 C 1.00454 0.32867 0.84554 0.0
C2602 C 0.99939 0.36166 0.85072 0.0
C2603 C 1.00509 0.35992 0.8692 0.0
C2604 C 0.01015 0.34239 0.87586 0.0
H2605 H 0.00951 0.42665 0.96721 0.0
H2606 H 0.00937 0.40259 0.94359 0.0
C2607 C 0.01001 0.32698 0.86416 0.0
C2608 C 1.00534 0.37631 0.88165 0.0
H2609 H 0.03295 0.40072 0.91129 0.0
C2610 C 0.98886 0.38629 0.88436 0.0
C2611 C 0.02155 0.38189 0.89116 0.0
C2612 C 0.03998 0.37257 0.888 0.0
C2613 C 0.988 0.4012 0.89683 0.0
C2614 C 1.00407 0.40636 0.90673 0.0
C2615 C 0.02062 0.39667 0.90374 0.0
C2616 C 1.00383 0.42124 0.92088 0.0
C2617 C 0.96978 0.41096 0.8998 0.0
C2618 C 1.00088 0.4398 0.91593 0.0
C2619 C 1.00098 0.45371 0.92945 0.0
C2620 C 1.00402 0.44929 0.94818 0.0
C2621 C 0.007 0.43064 0.95299 0.0
C2622 C 0.00699 0.41682 0.93949 0.0
H2623 H 0.95801 0.40325 0.8936 0.0
H2624 H 0.96708 0.4129 0.9148 0.0
H2625 H 0.97037 0.42486 0.8933 0.0
H2626 H 0.99867 0.44354 0.90159 0.0
H2627 H 0.99868 0.46789 0.92519 0.0
H2628 H 0.70149 0.9967 0.86923 0.0
H2629 H 0.67527 0.99675 0.89057 0.0
H2630 H 0.63886 0.01281 0.84618 0.0
H2631 H 0.66508 0.01325 0.82473 0.0
H2632 H 0.65073 0.02744 0.89855 0.0
H2633 H 0.61368 0.96648 0.86964 0.0
H2634 H 0.6378 0.97101 0.86489 0.0
H2635 H 0.62016 0.98417 0.85338 0.0
C2636 C 0.68796 1.00043 0.86397 0.0
C2637 C 0.68548 1.00501 0.8452 0.0
C2638 C 0.67296 1.00032 0.8762 0.0
C2639 C 0.65509 1.00459 0.86993 0.0
C2640 C 0.65249 0.00916 0.85124 0.0
H2641 H 0.54846 0.00804 0.92692 0.0
H2642 H 0.57319 0.00861 0.90381 0.0
C2643 C 0.66751 0.00936 0.83899 0.0
C2644 C 0.63933 1.00468 0.88311 0.0
H2645 H 0.59896 0.98257 0.89397 0.0
C2646 C 0.6394 0.01763 0.89757 0.0
C2647 C 0.62452 0.99196 0.88171 0.0
C2648 C 0.62398 0.9775 0.86667 0.0
C2649 C 0.62502 0.01827 0.91064 0.0
C2650 C 0.61039 1.00528 0.90951 0.0
C2651 C 0.6102 0.99248 0.89488 0.0
C2652 C 0.59534 1.00457 0.92354 0.0
C2653 C 0.62549 0.03311 0.92533 0.0
C2654 C 0.59949 1.00172 0.9423 0.0
C2655 C 0.58541 1.00146 0.95557 0.0
C2656 C 0.56678 1.00382 0.95037 0.0
C2657 C 0.56261 1.00617 0.93148 0.0
C2658 C 0.57675 0.00653 0.91822 0.0
H2659 H 0.63422 0.04503 0.92106 0.0
H2660 H 0.61136 0.03826 0.9285 0.0
H2661 H 0.6315 0.02728 0.9382 0.0
H2662 H 0.61367 0.99967 0.9467 0.0
H2663 H 0.58918 0.99939 0.96992 0.0
H2664 H 0.01342 0.66615 0.82326 0.0
H2665 H 0.01187 0.64015 0.8449 0.0
H2666 H 1.00107 0.67802 0.8897 0.0
H2667 H 1.00179 0.70396 0.86811 0.0
H2668 H 0.03326 0.63275 0.87519 0.0
H2669 H 0.96011 0.64058 0.89675 0.0
H2670 H 0.96957 0.65246 0.87693 0.0
H2671 H 0.97336 0.66134 0.89988 0.0
C2672 C 0.0104 0.66895 0.83766 0.0
C2673 C 0.00765 0.68722 0.84387 0.0
C2674 C 0.00966 0.65406 0.85005 0.0
C2675 C 1.00606 0.65707 0.86891 0.0
C2676 C 1.00347 0.67527 0.87518 0.0
H2677 H 1.00367 0.59148 0.96891 0.0
H2678 H 1.00379 0.61576 0.94541 0.0
C2679 C 1.00415 0.69015 0.86281 0.0
C2680 C 1.00556 0.64127 0.88213 0.0
H2681 H 0.97874 0.62037 0.91504 0.0
C2682 C 0.02127 0.62994 0.88378 0.0
C2683 C 0.98991 0.63756 0.89334 0.0
C2684 C 0.97221 0.64851 0.89154 0.0
C2685 C 0.02196 0.61539 0.89669 0.0
C2686 C 0.00645 0.61193 0.90812 0.0
C2687 C 0.99066 0.6231 0.90632 0.0
C2688 C 0.00642 0.597 0.92226 0.0
C2689 C 0.03948 0.60415 0.89837 0.0
C2690 C 0.00766 0.57832 0.91705 0.0
C2691 C 0.00757 0.56434 0.93047 0.0
C2692 C 1.00622 0.56874 0.94941 0.0
C2693 C 1.00483 0.5875 0.95452 0.0
C2694 C 1.00485 0.60144 0.94109 0.0
H2695 H 0.05141 0.61103 0.89152 0.0
H2696 H 0.04299 0.60172 0.91313 0.0
H2697 H 0.03738 0.59048 0.8917 0.0
H2698 H 0.00859 0.57455 0.90258 0.0
H2699 H 0.00862 0.55009 0.92595 0.0
H2700 H 0.18974 0.34854 0.01534 0.0
H2701 H 0.16792 0.37447 0.01465 0.0
H2702 H 0.12411 0.33736 0.99853 0.0
H2703 H 0.14581 0.31143 0.99881 0.0
H2704 H 0.14499 0.38736 0.98458 0.0
H2705 H 0.10357 0.36405 0.04495 0.0
H2706 H 0.12641 0.35517 0.04006 0.0
H2707 H 0.10678 0.34693 0.02722 0.0
C2708 C 0.17551 0.34589 0.01146 0.0
C2709 C 0.16955 0.32781 0.00725 0.0
C2710 C 0.16304 0.36073 0.01117 0.0
C2711 C 0.14433 0.3578 0.00682 0.0
C2712 C 0.1384 0.33988 1.0023 0.0
H2713 H 0.04518 0.42488 1.00059 0.0
H2714 H 0.0683 0.40025 1.00043 0.0
C2715 C 0.15084 0.32505 1.00252 0.0
C2716 C 0.13101 0.37347 0.00688 0.0
H2717 H 0.09168 0.38931 0.02778 0.0
C2718 C 0.13338 0.38788 0.99408 0.0
C2719 C 0.11587 0.37407 0.01928 0.0
C2720 C 0.11302 0.35933 0.03378 0.0
C2721 C 0.12073 0.40264 0.993 0.0
C2722 C 0.10552 0.40322 1.00537 0.0
C2723 C 0.10328 0.38886 0.01828 0.0
C2724 C 0.09163 0.41844 1.00506 0.0
C2725 C 0.12348 0.41716 0.97826 0.0
C2726 C 0.09699 0.43691 0.00787 0.0
C2727 C 0.08379 0.4511 0.00788 0.0
C2728 C 0.06488 0.4471 1.0053 0.0
C2729 C 0.05957 0.42855 1.00265 0.0
C2730 C 0.07279 0.4144 1.00254 0.0
H2731 H 0.13248 0.41208 0.96689 0.0
H2732 H 0.11003 0.4216 0.97229 0.0
H2733 H 0.13026 0.42945 0.98449 0.0
H2734 H 0.11137 0.44035 0.01032 0.0
H2735 H 0.08841 0.46517 0.01017 0.0
H2736 H 0.15468 0.697 0.0089 0.0
H2737 H 0.13258 0.67147 0.00964 0.0
H2738 H 0.17738 0.63238 1.00455 0.0
H2739 H 0.19969 0.65799 1.00385 0.0
H2740 H 0.12651 0.64553 0.98236 0.0
H2741 H 0.14778 0.61128 0.04781 0.0
H2742 H 0.15519 0.63434 0.04173 0.0
H2743 H 0.16602 0.61457 0.03125 0.0
C2744 C 0.15987 0.68298 0.00792 0.0
C2745 C 0.17896 0.67955 1.0062 0.0
C2746 C 0.14721 0.66839 0.00842 0.0
C2747 C 0.1533 0.64999 0.0073 0.0
C2748 C 0.17237 0.64644 1.0058 0.0
H2749 H 0.09075 0.54646 1.00386 0.0
H2750 H 0.11522 0.5698 1.00348 0.0
C2751 C 0.18511 0.66109 1.00536 0.0
C2752 C 0.13949 0.63473 0.0069 0.0
H2753 H 0.12462 0.59631 0.03014 0.0
C2754 C 0.1261 0.63477 0.99282 0.0
C2755 C 0.13902 0.62064 0.02049 0.0
C2756 C 0.15266 0.6202 0.03628 0.0
C2757 C 0.11226 0.62116 0.99195 0.0
C2758 C 0.11156 0.60727 1.00572 0.0
C2759 C 0.12514 0.607 0.01962 0.0
C2760 C 0.09664 0.59311 1.00609 0.0
C2761 C 0.09863 0.62165 0.97614 0.0
C2762 C 0.07805 0.59843 0.00795 0.0
C2763 C 0.06397 0.58513 0.00813 0.0
C2764 C 0.06819 0.56617 0.00659 0.0
C2765 C 0.0869 0.56089 1.00501 0.0
C2766 C 0.10096 0.57422 1.00482 0.0
H2767 H 0.10403 0.62976 0.96425 0.0
H2768 H 0.09525 0.60746 0.97129 0.0
H2769 H 0.08564 0.62832 0.98087 0.0
H2770 H 0.07441 0.6129 0.00935 0.0
H2771 H 0.04979 0.58978 0.00952 0.0
H2772 H 0.3384 0.17668 0.03908 0.0
H2773 H 0.36334 0.15404 0.03678 0.0
H2774 H 0.36663 0.16335 0.97797 0.0
H2775 H 0.34105 0.18547 0.98 0.0
H2776 H 0.36636 0.1269 0.98591 0.0
H2777 H 0.41816 0.16157 0.03036 0.0
H2778 H 0.39647 0.15833 0.04197 0.0
H2779 H 0.3977 0.17325 0.02207 0.0
C2780 C 0.34439 0.17395 0.02562 0.0
C2781 C 0.33762 0.18294 0.00971 0.0
C2782 C 0.35886 0.16113 0.02438 0.0
C2783 C 0.36711 0.15715 0.00725 0.0
C2784 C 0.36058 0.16627 0.99137 0.0
H2785 H 0.46806 0.09121 0.99677 0.0
H2786 H 0.44505 0.11597 0.9962 0.0
C2787 C 0.34605 0.17906 0.99258 0.0
C2788 C 0.38185 0.14278 1.00581 0.0
H2789 H 0.42373 0.12967 0.02347 0.0
C2790 C 0.37898 0.12759 0.99402 0.0
C2791 C 0.39845 0.14375 0.01618 0.0
C2792 C 0.40299 0.1602 0.02821 0.0
C2793 C 0.39197 0.11316 0.99268 0.0
C2794 C 0.40814 0.11368 1.00375 0.0
C2795 C 0.41125 0.12911 0.01516 0.0
C2796 C 0.422 0.0984 1.00372 0.0
C2797 C 0.38833 0.09762 0.97922 0.0
C2798 C 0.4168 0.08024 0.00829 0.0
C2799 C 0.42991 0.06597 0.00853 0.0
C2800 C 0.44862 0.06958 1.00443 0.0
C2801 C 0.45381 0.08784 1.00002 0.0
C2802 C 0.44066 0.10207 0.99968 0.0
H2803 H 0.37866 0.10195 0.96808 0.0
H2804 H 0.40137 0.09267 0.97276 0.0
H2805 H 0.38188 0.08586 0.9867 0.0
H2806 H 0.4026 0.07711 0.01193 0.0
H2807 H 0.42539 0.05216 0.01219 0.0
H2808 H 0.83041 0.34343 0.98145 0.0
H2809 H 0.85285 0.36877 0.98096 0.0
H2810 H 0.86373 0.36043 0.039 0.0
H2811 H 0.84074 0.33567 0.03982 0.0
H2812 H 0.86173 0.39678 0.03078 0.0
H2813 H 0.90837 0.36186 0.98086 0.0
H2814 H 0.88528 0.36504 0.9723 0.0
H2815 H 0.88927 0.35011 0.99181 0.0
C2816 C 0.83734 0.34715 0.9942 0.0
C2817 C 0.83382 0.33732 0.01065 0.0
C2818 C 0.8504 0.3615 0.99383 0.0
C2819 C 0.86036 0.36625 0.00984 0.0
C2820 C 0.8564 0.35692 0.02641 0.0
H2821 H 0.96419 0.42692 0.01491 0.0
H2822 H 0.9396 0.40371 0.01528 0.0
C2823 C 0.84331 0.34264 0.02681 0.0
C2824 C 0.87498 0.38083 0.00941 0.0
H2825 H 0.91588 0.3928 0.9888 0.0
C2826 C 0.87357 0.39591 0.0216 0.0
C2827 C 0.89063 0.37956 0.99765 0.0
C2828 C 0.89363 0.36319 0.98504 0.0
C2829 C 0.88722 0.40978 0.02226 0.0
C2830 C 0.90257 0.40882 0.01009 0.0
C2831 C 0.90405 0.39367 0.998 0.0
C2832 C 0.91745 0.42314 0.00994 0.0
C2833 C 0.88529 0.42506 0.03636 0.0
C2834 C 0.9133 0.44184 0.0066 0.0
C2835 C 0.92734 0.45521 1.00652 0.0
C2836 C 0.94594 0.45017 0.00951 0.0
C2837 C 0.95008 0.43137 0.01254 0.0
C2838 C 0.936 0.41804 0.01276 0.0
H2839 H 0.87598 0.42098 0.04789 0.0
H2840 H 0.89895 0.42896 0.04223 0.0
H2841 H 0.87924 0.43744 0.0296 0.0
H2842 H 0.8992 0.4461 1.00388 0.0
H2843 H 0.9236 0.46948 1.0039 0.0
H2844 H 0.68167 0.84351 0.98605 0.0
H2845 H 0.65735 0.86705 0.98564 0.0
H2846 H 0.63902 0.84925 0.03952 0.0
H2847 H 0.66323 0.82558 0.04001 0.0
H2848 H 0.61898 0.86465 0.98834 0.0
H2849 H 0.64809 0.90461 0.04707 0.0
H2850 H 0.66097 0.88676 0.03528 0.0
H2851 H 0.64378 0.88069 0.05221 0.0
C2852 C 0.67232 0.8444 0.99772 0.0
C2853 C 0.67453 0.83267 0.01312 0.0
C2854 C 0.65847 0.85796 0.9975 0.0
C2855 C 0.64655 0.86018 0.01269 0.0
C2856 C 0.64832 0.84812 0.02782 0.0
H2857 H 0.5442 0.92445 0.01493 0.0
H2858 H 0.56738 0.89986 0.01487 0.0
C2859 C 0.66218 0.83457 0.02807 0.0
C2860 C 0.63241 0.87519 0.01273 0.0
H2861 H 0.61859 0.91394 0.03611 0.0
C2862 C 0.61889 0.87543 0.99878 0.0
C2863 C 0.63246 0.88944 0.02619 0.0
C2864 C 0.64719 0.89054 0.04095 0.0
C2865 C 0.60528 0.88935 0.99807 0.0
C2866 C 0.605 0.90327 0.01186 0.0
C2867 C 0.61868 0.90317 0.02565 0.0
C2868 C 0.59083 0.91826 0.01206 0.0
C2869 C 0.59156 0.88922 0.98234 0.0
C2870 C 0.59627 0.93689 0.01104 0.0
C2871 C 0.58304 0.95106 0.01121 0.0
C2872 C 0.56403 0.94694 0.01252 0.0
C2873 C 0.55866 0.92824 0.01381 0.0
C2874 C 0.57191 0.91409 0.01365 0.0
H2875 H 0.59656 0.88079 0.9705 0.0
H2876 H 0.57833 0.88313 0.98721 0.0
H2877 H 0.58872 0.90349 0.97738 0.0
H2878 H 0.61078 0.94047 0.00991 0.0
H2879 H 0.58778 0.96524 0.01021 0.0
H2880 H 0.86702 0.70416 1.00407 0.0
H2881 H 0.88872 0.67822 1.00384 0.0
H2882 H 0.84471 0.64106 0.01934 0.0
H2883 H 0.82292 0.66697 0.01995 0.0
H2884 H 0.89753 0.65404 0.03366 0.0
H2885 H 0.86819 0.61579 0.97376 0.0
H2886 H 0.86271 0.63972 0.97839 0.0
H2887 H 0.85196 0.62167 0.99166 0.0
C2888 C 0.86192 0.69051 0.00755 0.0
C2889 C 0.84315 0.68773 0.01204 0.0
C2890 C 0.87435 0.67566 0.00731 0.0
C2891 C 0.86832 0.65766 0.01136 0.0
C2892 C 0.84962 0.65477 0.01581 0.0
H2893 H 0.92564 0.55128 0.01587 0.0
H2894 H 0.90266 0.57612 0.01676 0.0
C2895 C 0.83717 0.66963 0.01612 0.0
C2896 C 0.88174 0.64205 0.01145 0.0
H2897 H 0.89245 0.60119 0.99016 0.0
C2898 C 0.89645 0.6425 0.02412 0.0
C2899 C 0.88024 0.62694 0.99909 0.0
C2900 C 0.86503 0.62597 0.98483 0.0
C2901 C 0.90962 0.6282 0.02489 0.0
C2902 C 0.90832 0.61321 0.01233 0.0
C2903 C 0.89348 0.61267 0.99977 0.0
C2904 C 0.92235 0.59812 0.01181 0.0
C2905 C 0.92458 0.62911 0.03942 0.0
C2906 C 0.94107 0.60215 0.00847 0.0
C2907 C 0.95428 0.588 0.00804 0.0
C2908 C 0.94907 0.56941 0.01073 0.0
C2909 C 0.93023 0.56539 0.01377 0.0
C2910 C 0.91703 0.57959 0.01427 0.0
H2911 H 0.92053 0.63819 0.05115 0.0
H2912 H 0.92786 0.61515 0.04492 0.0
H2913 H 0.93734 0.63495 0.03318 0.0
H2914 H 0.94547 0.61626 1.00604 0.0
H2915 H 0.96858 0.59168 1.00544 0.0
H2916 H 0.34695 0.82523 0.01989 0.0
H2917 H 0.37272 0.84725 0.02055 0.0
H2918 H 0.33677 0.89011 0.99991 0.0
H2919 H 0.31106 0.86819 0.99878 0.0
H2920 H 0.38743 0.86927 0.99021 0.0
H2921 H 0.36003 0.91231 0.04769 0.0
H2922 H 0.35179 0.88917 0.04309 0.0
H2923 H 0.34409 0.90817 0.02906 0.0
C2924 C 0.34453 0.83929 0.01533 0.0
C2925 C 0.32684 0.84493 0.00939 0.0
C2926 C 0.35926 0.85188 0.01581 0.0
C2927 C 0.35657 0.87036 0.01054 0.0
C2928 C 0.33904 0.87599 1.00439 0.0
H2929 H 0.42297 0.9697 1.00415 0.0
H2930 H 0.39856 0.94635 1.00393 0.0
C2931 C 0.32434 0.86343 1.00382 0.0
C2932 C 0.37211 0.88377 0.01122 0.0
H2933 H 0.38629 0.92387 0.03181 0.0
C2934 C 0.38728 0.88115 0.99938 0.0
C2935 C 0.37181 0.89926 0.02316 0.0
C2936 C 0.35615 0.9024 0.0366 0.0
C2937 C 0.40196 0.89392 0.9988 0.0
C2938 C 0.40163 0.90948 0.01071 0.0
C2939 C 0.38652 0.91196 0.02267 0.0
C2940 C 0.41667 0.92353 0.0108 0.0
C2941 C 0.41737 0.89091 0.98504 0.0
C2942 C 0.43497 0.91853 0.01498 0.0
C2943 C 0.44903 0.93185 0.01505 0.0
C2944 C 0.44505 0.95052 0.01114 0.0
C2945 C 0.42662 0.9555 0.00724 0.0
C2946 C 0.4126 0.94215 0.0071 0.0
H2947 H 0.41314 0.88139 0.97374 0.0
H2948 H 0.4219 0.90421 0.97882 0.0
H2949 H 0.42941 0.88463 0.99222 0.0
H2950 H 0.43838 0.90433 0.01833 0.0
H2951 H 0.463 0.92748 0.01828 0.0
H2952 H 0.66747 0.18999 0.01325 0.0
H2953 H 0.6414 0.16834 0.01331 0.0
H2954 H 0.67764 0.12442 0.99566 0.0
H2955 H 0.70369 0.14597 0.99506 0.0
H2956 H 0.62776 0.14532 0.98289 0.0
H2957 H 0.65182 0.10419 0.04319 0.0
H2958 H 0.66046 0.12711 0.03823 0.0
H2959 H 0.66866 0.10761 0.0252 0.0
C2960 C 0.66991 0.17578 0.00917 0.0
C2961 C 0.6878 0.16977 1.00424 0.0
C2962 C 0.65498 0.1634 0.00933 0.0
C2963 C 0.65763 0.14472 1.00474 0.0
C2964 C 0.67535 0.1387 0.99959 0.0
H2965 H 0.58984 0.0459 1.00093 0.0
H2966 H 0.6146 0.06888 1.00023 0.0
C2967 C 0.69026 0.15107 0.99933 0.0
C2968 C 0.64186 0.13151 1.00516 0.0
H2969 H 0.62601 0.09255 0.02674 0.0
C2970 C 0.62729 0.13383 0.99253 0.0
C2971 C 0.64132 0.11652 0.01772 0.0
C2972 C 0.6563 0.11371 0.03198 0.0
C2973 C 0.61243 0.12127 0.99178 0.0
C2974 C 0.61188 0.10622 1.00434 0.0
C2975 C 0.62641 0.10404 0.01709 0.0
C2976 C 0.59656 0.09241 1.00438 0.0
C2977 C 0.59777 0.12392 0.97715 0.0
C2978 C 0.5781 0.0979 0.0071 0.0
C2979 C 0.56383 0.08478 0.00738 0.0
C2980 C 0.56772 0.06581 1.00521 0.0
C2981 C 0.58626 0.06035 1.00268 0.0
C2982 C 0.60048 0.07349 1.00227 0.0
H2983 H 0.60285 0.13265 0.96556 0.0
H2984 H 0.59312 0.11043 0.97145 0.0
H2985 H 0.58564 0.13096 0.98338 0.0
H2986 H 0.57474 0.11234 0.00926 0.0
H2987 H 0.54978 0.08951 0.00958 0.0
H2988 H 0.49759 0.65552 0.81871 0.0
H2989 H 0.49879 0.63303 0.84391 0.0
H2990 H 0.50834 0.6771 0.88295 0.0
H2991 H 0.50681 0.69983 0.85776 0.0
H2992 H 0.52824 0.6263 0.86931 0.0
H2993 H 0.46371 0.64844 0.90494 0.0
H2994 H 0.46898 0.65506 0.88144 0.0
H2995 H 0.48039 0.66634 0.90039 0.0
C2996 C 0.49974 0.6605 0.83268 0.0
C2997 C 0.50189 0.67954 0.83622 0.0
C2998 C 0.50055 0.64759 0.84706 0.0
C2999 C 0.5034 0.65338 0.86535 0.0
C3000 C 0.50584 0.67233 0.86897 0.0
H3001 H 0.50561 0.59038 0.96862 0.0
H3002 H 0.5062 0.61486 0.94531 0.0
C3003 C 0.50512 0.68529 0.85454 0.0
C3004 C 0.50398 0.63945 0.88049 0.0
H3005 H 0.48088 0.62449 0.91896 0.0
C3006 C 0.51791 0.62591 0.88019 0.0
C3007 C 0.49053 0.639 0.89471 0.0
C3008 C 0.47495 0.65287 0.89542 0.0
C3009 C 0.51881 0.61198 0.89374 0.0
C3010 C 0.50512 0.61127 0.90775 0.0
C3011 C 0.49134 0.62499 0.90821 0.0
C3012 C 0.5047 0.59627 0.9219 0.0
C3013 C 0.53461 0.59834 0.89307 0.0
C3014 C 0.50334 0.57763 0.91657 0.0
C3015 C 0.50307 0.56354 0.92987 0.0
C3016 C 0.50393 0.56778 0.94886 0.0
C3017 C 0.50492 0.58652 0.95416 0.0
C3018 C 0.50527 0.60058 0.94083 0.0
H3019 H 0.54658 0.60394 0.88521 0.0
H3020 H 0.53933 0.5946 0.9072 0.0
H3021 H 0.52993 0.58554 0.886 0.0
H3022 H 0.50238 0.57394 0.90208 0.0
H3023 H 0.50211 0.54933 0.9252 0.0
H3024 H 0.36743 0.50164 0.81138 0.0
H3025 H 0.38877 0.50096 0.8376 0.0
H3026 H 0.34396 0.51431 0.87463 0.0
H3027 H 0.32252 0.51542 0.84844 0.0
H3028 H 0.39617 0.5305 0.86336 0.0
H3029 H 0.36827 0.46762 0.89787 0.0
H3030 H 0.36333 0.47312 0.87401 0.0
H3031 H 0.35167 0.48528 0.89226 0.0
C3032 C 0.36209 0.50459 0.82506 0.0
C3033 C 0.3432 0.5086 0.82774 0.0
C3034 C 0.37431 0.50408 0.84005 0.0
C3035 C 0.36792 0.50737 0.85807 0.0
C3036 C 0.34912 0.51139 0.86086 0.0
H3037 H 0.42477 0.50776 0.96478 0.0
H3038 H 0.40163 0.50895 0.94009 0.0
C3039 C 0.33688 0.51198 0.84586 0.0
C3040 C 0.38108 0.50706 0.87384 0.0
H3041 H 0.39221 0.48362 0.91334 0.0
C3042 C 0.39533 0.52025 0.87429 0.0
C3043 C 0.37985 0.49376 0.88814 0.0
C3044 C 0.36506 0.47903 0.88809 0.0
C3045 C 0.40835 0.52056 0.88871 0.0
C3046 C 0.40739 0.507 0.90283 0.0
C3047 C 0.39297 0.49397 0.9025 0.0
C3048 C 0.42143 0.50594 0.91784 0.0
C3049 C 0.42282 0.53563 0.88884 0.0
C3050 C 0.44022 0.50346 0.91357 0.0
C3051 C 0.45349 0.50285 0.92762 0.0
C3052 C 0.44826 0.50447 0.94631 0.0
C3053 C 0.42934 0.50646 0.95057 0.0
C3054 C 0.41607 0.50716 0.93647 0.0
H3055 H 0.41839 0.54779 0.88055 0.0
H3056 H 0.42587 0.54029 0.90315 0.0
H3057 H 0.4358 0.53022 0.88266 0.0
H3058 H 0.44464 0.50197 0.89934 0.0
H3059 H 0.46787 0.50107 0.92378 0.0
H3060 H 0.50612 0.36746 0.81065 0.0
H3061 H 0.50614 0.38903 0.83667 0.0
H3062 H 0.51783 0.34407 0.87407 0.0
H3063 H 0.51862 0.32249 0.84802 0.0
H3064 H 0.48409 0.38997 0.86742 0.0
H3065 H 0.55749 0.38115 0.88825 0.0
H3066 H 0.54863 0.37265 0.86651 0.0
H3067 H 0.54454 0.35997 0.88752 0.0
C3068 C 0.50899 0.36215 0.82435 0.0
C3069 C 0.51254 0.34319 0.82714 0.0
C3070 C 0.50884 0.37451 0.83926 0.0
C3071 C 0.51229 0.36826 0.85732 0.0
C3072 C 0.51552 0.34932 0.86023 0.0
H3073 H 0.5151 0.4253 0.96398 0.0
H3074 H 0.51511 0.40217 0.93927 0.0
C3075 C 0.51573 0.33693 0.84531 0.0
C3076 C 0.51211 0.38157 0.87307 0.0
H3077 H 0.53866 0.39935 0.90799 0.0
C3078 C 0.49604 0.39204 0.87626 0.0
C3079 C 0.52769 0.38427 0.88466 0.0
C3080 C 0.54563 0.37405 0.88151 0.0
C3081 C 0.49507 0.405 0.89074 0.0
C3082 C 0.51069 0.40779 0.90222 0.0
C3083 C 0.52669 0.39719 0.89919 0.0
C3084 C 0.5108 0.42191 0.91721 0.0
C3085 C 0.47723 0.41541 0.8938 0.0
C3086 C 0.50867 0.44075 0.91301 0.0
C3087 C 0.50869 0.45404 0.92709 0.0
C3088 C 0.5109 0.44881 0.94574 0.0
C3089 C 0.51329 0.4299 0.94985 0.0
C3090 C 0.51332 0.41662 0.93572 0.0
H3091 H 0.4653 0.40834 0.88715 0.0
H3092 H 0.47429 0.417 0.90879 0.0
H3093 H 0.47845 0.42942 0.88766 0.0
H3094 H 0.50707 0.4452 0.8988 0.0
H3095 H 0.50688 0.46842 0.9233 0.0
H3096 H 0.64721 0.50206 0.81343 0.0
H3097 H 0.6264 0.50239 0.84006 0.0
H3098 H 0.67169 0.51841 0.87542 0.0
H3099 H 0.69249 0.51887 0.84871 0.0
H3100 H 0.62751 0.48207 0.872 0.0
H3101 H 0.63295 0.55697 0.88835 0.0
H3102 H 0.64132 0.5473 0.8669 0.0
H3103 H 0.65471 0.545 0.88773 0.0
C3104 C 0.65273 0.50592 0.82681 0.0
C3105 C 0.67154 0.5106 0.82883 0.0
C3106 C 0.64082 0.50596 0.84206 0.0
C3107 C 0.64738 0.51072 0.85971 0.0
C3108 C 0.6662 0.51507 0.86189 0.0
H3109 H 0.58962 0.51638 0.96643 0.0
H3110 H 0.61339 0.516 0.94224 0.0
C3111 C 0.67814 0.51508 0.84661 0.0
C3112 C 0.6345 0.51079 0.8758 0.0
H3113 H 0.6157 0.53853 0.90922 0.0
C3114 C 0.62494 0.49443 0.88012 0.0
C3115 C 0.63118 0.52689 0.88647 0.0
C3116 C 0.64044 0.54509 0.88208 0.0
C3117 C 0.61216 0.49373 0.89476 0.0
C3118 C 0.60865 0.50989 0.90524 0.0
C3119 C 0.61844 0.52616 0.90118 0.0
C3120 C 0.59427 0.51033 0.91994 0.0
C3121 C 0.60258 0.47566 0.89898 0.0
C3122 C 0.57561 0.50759 0.91538 0.0
C3123 C 0.56199 0.50786 0.92911 0.0
C3124 C 0.5667 0.51092 0.94777 0.0
C3125 C 0.58544 0.51391 0.95226 0.0
C3126 C 0.59907 0.51372 0.93845 0.0
H3127 H 0.61015 0.46368 0.89302 0.0
H3128 H 0.60118 0.47359 0.91414 0.0
H3129 H 0.58849 0.47588 0.89288 0.0
H3130 H 0.57155 0.50527 0.90114 0.0
H3131 H 0.54775 0.50553 0.92503 0.0
H3132 H 0.47818 0.34078 0.17846 0.0
H3133 H 0.4795 0.36322 0.15324 0.0
H3134 H 0.53777 0.35236 0.14641 0.0
H3135 H 0.53673 0.33039 0.17215 0.0
H3136 H 0.53051 0.38921 0.14712 0.0
H3137 H 0.48272 0.35495 0.09802 0.0
H3138 H 0.47256 0.35852 0.12038 0.0
H3139 H 0.49207 0.34323 0.11799 0.0
C3140 C 0.4913 0.34313 0.17161 0.0
C3141 C 0.50736 0.33372 0.17741 0.0
C3142 C 0.49198 0.35584 0.15701 0.0
C3143 C 0.50867 0.35933 0.1477 0.0
C3144 C 0.52469 0.34982 0.15329 0.0
H3145 H 0.51694 0.42365 0.04558 0.0
H3146 H 0.51754 0.39919 0.06891 0.0
C3147 C 0.52404 0.33712 0.16792 0.0
C3148 C 0.50961 0.37355 0.13278 0.0
H3149 H 0.4904 0.38643 0.09153 0.0
C3150 C 0.52183 0.38852 0.13491 0.0
C3151 C 0.49846 0.37259 0.1167 0.0
C3152 C 0.48585 0.35636 0.113 0.0
C3153 C 0.52289 0.40274 0.12166 0.0
C3154 C 0.51114 0.4022 0.10598 0.0
C3155 C 0.49926 0.38699 0.10363 0.0
C3156 C 0.51098 0.41724 0.09187 0.0
C3157 C 0.5368 0.41807 0.12448 0.0
C3158 C 0.50689 0.43556 0.09691 0.0
C3159 C 0.50662 0.44965 0.08361 0.0
C3160 C 0.51024 0.44572 0.06486 0.0
C3161 C 0.51411 0.42728 0.05983 0.0
C3162 C 0.51445 0.41323 0.07318 0.0
H3163 H 0.54818 0.41372 0.13386 0.0
H3164 H 0.5429 0.42258 0.11112 0.0
H3165 H 0.52978 0.43012 0.1309 0.0
H3166 H 0.5037 0.43897 0.11114 0.0
H3167 H 0.5034 0.46359 0.08804 0.0
H3168 H 0.69015 0.52054 0.16634 0.0
H3169 H 0.66851 0.52043 0.14025 0.0
H3170 H 0.62475 0.50219 0.17644 0.0
H3171 H 0.64627 0.50195 0.2025 0.0
H3172 H 0.64656 0.49072 0.12591 0.0
H3173 H 0.60306 0.54868 0.15136 0.0
H3174 H 0.62587 0.54399 0.16042 0.0
H3175 H 0.60643 0.53034 0.16778 0.0
C3176 C 0.67596 0.51635 0.16875 0.0
C3177 C 0.66997 0.51139 0.18663 0.0
C3178 C 0.66359 0.51639 0.15382 0.0
C3179 C 0.64495 0.5116 0.15645 0.0
C3180 C 0.63898 0.50634 0.17416 0.0
H3181 H 0.54617 0.5031 0.08955 0.0
H3182 H 0.5695 0.50356 0.11392 0.0
C3183 C 0.65132 0.50626 0.18907 0.0
C3184 C 0.63172 0.5119 0.14067 0.0
H3185 H 0.59162 0.53189 0.12558 0.0
C3186 C 0.63461 0.4998 0.12575 0.0
C3187 C 0.61614 0.52375 0.1405 0.0
C3188 C 0.61271 0.53756 0.15578 0.0
C3189 C 0.62203 0.49885 0.11091 0.0
C3190 C 0.60633 0.5106 0.11082 0.0
C3191 C 0.6036 0.52285 0.12566 0.0
C3192 C 0.59232 0.51016 0.0957 0.0
C3193 C 0.62534 0.48483 0.0958 0.0
C3194 C 0.59729 0.51391 0.07729 0.0
C3195 C 0.58395 0.51359 0.06322 0.0
C3196 C 0.56528 0.50969 0.06728 0.0
C3197 C 0.56035 0.50616 0.08581 0.0
C3198 C 0.57371 0.50642 0.09982 0.0
H3199 H 0.635 0.47375 0.10032 0.0
H3200 H 0.61216 0.47832 0.09132 0.0
H3201 H 0.63159 0.49187 0.08368 0.0
H3202 H 0.61147 0.51726 0.07381 0.0
H3203 H 0.58829 0.51652 0.04919 0.0
H3204 H 0.49275 0.68933 0.16669 0.0
H3205 H 0.49212 0.66746 0.14082 0.0
H3206 H 0.51376 0.62468 0.17624 0.0
H3207 H 0.51488 0.64646 0.20206 0.0
H3208 H 0.52264 0.64595 0.12561 0.0
H3209 H 0.46606 0.60189 0.1533 0.0
H3210 H 0.47039 0.62506 0.16163 0.0
H3211 H 0.4848 0.60623 0.16906 0.0
C3212 C 0.49754 0.67532 0.16898 0.0
C3213 C 0.50377 0.66968 0.18657 0.0
C3214 C 0.49707 0.66282 0.15418 0.0
C3215 C 0.50264 0.64439 0.15668 0.0
C3216 C 0.50905 0.63874 0.1741 0.0
H3217 H 0.50973 0.54537 0.08992 0.0
H3218 H 0.50966 0.56868 0.11434 0.0
C3219 C 0.50962 0.65123 0.18888 0.0
C3220 C 0.502 0.63106 0.14105 0.0
H3221 H 0.48184 0.59075 0.12682 0.0
C3222 C 0.51364 0.63394 0.12578 0.0
C3223 C 0.49028 0.61539 0.14135 0.0
C3224 C 0.47704 0.61196 0.15712 0.0
C3225 C 0.51427 0.62126 0.11102 0.0
C3226 C 0.50259 0.60551 0.11135 0.0
C3227 C 0.4908 0.60279 0.12656 0.0
C3228 C 0.50263 0.59148 0.09628 0.0
C3229 C 0.52788 0.62456 0.09553 0.0
C3230 C 0.49845 0.59645 0.07796 0.0
C3231 C 0.49857 0.58314 0.06388 0.0
C3232 C 0.50264 0.5645 0.06784 0.0
C3233 C 0.5065 0.55954 0.08628 0.0
C3234 C 0.50648 0.57288 0.10031 0.0
H3235 H 0.5391 0.63419 0.09975 0.0
H3236 H 0.53423 0.61137 0.09085 0.0
H3237 H 0.52053 0.63084 0.08361 0.0
H3238 H 0.49498 0.61062 0.07456 0.0
H3239 H 0.49536 0.58749 0.04991 0.0
H3240 H 0.31572 0.50152 0.15783 0.0
H3241 H 0.33824 0.50201 0.13237 0.0
H3242 H 0.38292 0.50384 0.17185 0.0
H3243 H 0.36064 0.50333 0.19722 0.0
H3244 H 0.36622 0.52741 0.12304 0.0
H3245 H 0.39634 0.45901 0.14026 0.0
H3246 H 0.37473 0.46698 0.14993 0.0
H3247 H 0.39637 0.47488 0.15936 0.0
C3248 C 0.33034 0.50215 0.16106 0.0
C3249 C 0.33638 0.50209 0.17957 0.0
C3250 C 0.34319 0.50237 0.14651 0.0
C3251 C 0.36229 0.50251 0.15021 0.0
C3252 C 0.36829 0.50318 0.16865 0.0
H3253 H 0.46496 0.50365 0.0888 0.0
H3254 H 0.44046 0.50386 0.11209 0.0
C3255 C 0.35551 0.5029 0.18315 0.0
C3256 C 0.37605 0.50193 0.13491 0.0
H3257 H 0.41294 0.4773 0.11847 0.0
C3258 C 0.37634 0.51638 0.12192 0.0
C3259 C 0.38924 0.48751 0.13345 0.0
C3260 C 0.3891 0.47112 0.14638 0.0
C3261 C 0.38983 0.51711 0.1079 0.0
C3262 C 0.40322 0.50284 0.10667 0.0
C3263 C 0.40274 0.48827 0.11949 0.0
C3264 C 0.41799 0.50285 0.09234 0.0
C3265 C 0.39 0.53342 0.09488 0.0
C3266 C 0.41354 0.50195 0.07347 0.0
C3267 C 0.42753 0.50181 0.06006 0.0
C3268 C 0.44633 0.50247 0.06524 0.0
C3269 C 0.4507 0.50315 0.08422 0.0
C3270 C 0.43669 0.50327 0.09759 0.0
H3271 H 0.38182 0.54522 0.10038 0.0
H3272 H 0.40438 0.53819 0.09224 0.0
H3273 H 0.38384 0.52923 0.08146 0.0
H3274 H 0.39923 0.50122 0.06909 0.0
H3275 H 0.42355 0.50121 0.04563 0.0
H3276 H 0.85516 0.51182 0.69653 0.0
H3277 H 0.88013 0.51102 0.67347 0.0
H3278 H 0.83989 0.50328 0.63014 0.0
H3279 H 0.81499 0.5041 0.65296 0.0
H3280 H 0.89054 0.48415 0.64753 0.0
H3281 H 0.86835 0.54844 0.61207 0.0
H3282 H 0.85954 0.54176 0.63446 0.0
H3283 H 0.85039 0.53138 0.61378 0.0
C3284 C 0.85166 0.50981 0.6821 0.0
C3285 C 0.83304 0.50831 0.67658 0.0
C3286 C 0.86594 0.50943 0.66893 0.0
C3287 C 0.86187 0.50754 0.65 0.0
C3288 C 0.84336 0.5053 0.64457 0.0
H3289 H 0.92391 0.50382 0.547 0.0
H3290 H 0.90022 0.5035 0.57119 0.0
C3291 C 0.82913 0.50576 0.65767 0.0
C3292 C 0.87687 0.50788 0.63586 0.0
H3293 H 0.89136 0.53048 0.5969 0.0
C3294 C 0.8908 0.49435 0.63654 0.0
C3295 C 0.87721 0.52119 0.62148 0.0
C3296 C 0.86318 0.53663 0.62045 0.0
C3297 C 0.90476 0.49348 0.62297 0.0
C3298 C 0.90499 0.50669 0.60849 0.0
C3299 C 0.89114 0.5203 0.60792 0.0
C3300 C 0.91951 0.50673 0.59385 0.0
C3301 C 0.91884 0.47809 0.62399 0.0
C3302 C 0.93824 0.50894 0.59847 0.0
C3303 C 0.95185 0.5091 0.58468 0.0
C3304 C 0.94705 0.50722 0.56588 0.0
C3305 C 0.9282 0.50528 0.56128 0.0
C3306 C 0.9146 0.50509 0.57511 0.0
H3307 H 0.91389 0.46642 0.6327 0.0
H3308 H 0.92218 0.47271 0.61 0.0
H3309 H 0.93177 0.48349 0.63026 0.0
H3310 H 0.94236 0.5107 0.61276 0.0
H3311 H 0.96615 0.51078 0.58884 0.0
H3312 H 0.51427 0.81063 0.64666 0.0
H3313 H 0.51506 0.83641 0.6248 0.0
H3314 H 0.50046 0.8742 0.66856 0.0
H3315 H 0.49928 0.84844 0.69051 0.0
H3316 H 0.48553 0.86132 0.61609 0.0
H3317 H 0.54678 0.89806 0.64465 0.0
H3318 H 0.54161 0.87425 0.6502 0.0
H3319 H 0.52886 0.89263 0.66102 0.0
C3320 C 0.5111 0.82438 0.65167 0.0
C3321 C 0.50669 0.82738 0.67041 0.0
C3322 C 0.51167 0.83914 0.63915 0.0
C3323 C 0.50802 0.85726 0.64508 0.0
C3324 C 0.50366 0.86037 0.66375 0.0
H3325 H 0.50575 0.96339 0.58757 0.0
H3326 H 0.50481 0.93859 0.61055 0.0
C3327 C 0.50303 0.84561 0.67629 0.0
C3328 C 0.50825 0.87276 0.63156 0.0
H3329 H 0.53065 0.91288 0.62035 0.0
C3330 C 0.49541 0.87258 0.61699 0.0
C3331 C 0.52107 0.8875 0.63283 0.0
C3332 C 0.53548 0.88815 0.64791 0.0
C3333 C 0.49493 0.88681 0.60374 0.0
C3334 C 0.50796 0.90142 0.60481 0.0
C3335 C 0.5207 0.90167 0.61949 0.0
C3336 C 0.50869 0.91647 0.59075 0.0
C3337 C 0.48018 0.88625 0.58897 0.0
C3338 C 0.5115 0.91236 0.57197 0.0
C3339 C 0.51195 0.9265 0.55875 0.0
C3340 C 0.50985 0.94514 0.56404 0.0
C3341 C 0.50744 0.94923 0.58293 0.0
C3342 C 0.50688 0.93505 0.59613 0.0
H3343 H 0.46823 0.87754 0.59322 0.0
H3344 H 0.47504 0.90035 0.5857 0.0
H3345 H 0.48608 0.88017 0.57618 0.0
H3346 H 0.51343 0.89819 0.56752 0.0
H3347 H 0.51405 0.92278 0.54439 0.0
H3348 H 0.19629 0.50271 0.65529 0.0
H3349 H 0.17133 0.50343 0.63255 0.0
H3350 H 0.13137 0.50994 0.67638 0.0
H3351 H 0.15638 0.50926 0.69931 0.0
H3352 H 0.14179 0.47986 0.62881 0.0
H3353 H 0.11715 0.55159 0.64122 0.0
H3354 H 0.13893 0.54317 0.6501 0.0
H3355 H 0.11761 0.53718 0.66145 0.0
C3356 C 0.18219 0.5042 0.66015 0.0
C3357 C 0.17835 0.50585 0.67917 0.0
C3358 C 0.16793 0.5047 0.6471 0.0
C3359 C 0.14947 0.50695 0.6527 0.0
C3360 C 0.14553 0.50859 0.67168 0.0
H3361 H 0.04623 0.50939 0.59008 0.0
H3362 H 0.0697 0.50908 0.61439 0.0
C3363 C 0.15984 0.50815 0.68478 0.0
C3364 C 0.13445 0.50702 0.63861 0.0
H3365 H 0.09961 0.53335 0.62039 0.0
C3366 C 0.13259 0.49158 0.62696 0.0
C3367 C 0.12241 0.52229 0.63621 0.0
C3368 C 0.12416 0.53958 0.64778 0.0
C3369 C 0.119 0.49092 0.61308 0.0
C3370 C 0.10709 0.50625 0.61055 0.0
C3371 C 0.10877 0.52162 0.62233 0.0
C3372 C 0.0929 0.50664 0.59565 0.0
C3373 C 0.11733 0.47368 0.60141 0.0
C3374 C 0.09813 0.50566 0.57697 0.0
C3375 C 0.08475 0.50582 0.56298 0.0
C3376 C 0.06579 0.50706 0.56734 0.0
C3377 C 0.06064 0.50834 0.58611 0.0
C3378 C 0.07406 0.5082 0.60008 0.0
H3379 H 0.124 0.46158 0.60813 0.0
H3380 H 0.10259 0.47029 0.59867 0.0
H3381 H 0.12429 0.47602 0.58793 0.0
H3382 H 0.11262 0.50482 0.5732 0.0
H3383 H 0.08931 0.50492 0.54874 0.0
H3384 H 0.4793 0.17787 0.67287 0.0
H3385 H 0.48063 0.15279 0.65028 0.0
H3386 H 0.53822 0.144 0.66316 0.0
H3387 H 0.53722 0.16962 0.68528 0.0
H3388 H 0.53244 0.14511 0.62618 0.0
H3389 H 0.48161 0.09748 0.65804 0.0
H3390 H 0.47233 0.12018 0.65422 0.0
H3391 H 0.49111 0.11706 0.67028 0.0
C3392 C 0.49228 0.17063 0.67094 0.0
C3393 C 0.50816 0.17585 0.68096 0.0
C3394 C 0.49295 0.1561 0.65814 0.0
C3395 C 0.50945 0.14627 0.65516 0.0
C3396 C 0.52528 0.15128 0.66528 0.0
H3397 H 0.51666 0.04438 0.59018 0.0
H3398 H 0.51706 0.06747 0.61489 0.0
C3399 C 0.52464 0.16585 0.67807 0.0
C3400 C 0.51041 0.13142 0.64085 0.0
H3401 H 0.49025 0.09098 0.6268 0.0
C3402 C 0.5233 0.13321 0.6264 0.0
C3403 C 0.49866 0.11574 0.6412 0.0
C3404 C 0.48528 0.11236 0.65687 0.0
C3405 C 0.52445 0.12004 0.61211 0.0
C3406 C 0.51212 0.1048 0.61201 0.0
C3407 C 0.49955 0.10276 0.62671 0.0
C3408 C 0.51205 0.09081 0.59684 0.0
C3409 C 0.53906 0.12247 0.59739 0.0
C3410 C 0.50889 0.09615 0.57842 0.0
C3411 C 0.50874 0.08298 0.5642 0.0
C3412 C 0.51153 0.06408 0.56808 0.0
C3413 C 0.51447 0.05876 0.58659 0.0
C3414 C 0.51469 0.07197 0.60079 0.0
H3415 H 0.55058 0.1314 0.60228 0.0
H3416 H 0.54485 0.10893 0.59301 0.0
H3417 H 0.53277 0.12923 0.58512 0.0
H3418 H 0.50635 0.11052 0.57504 0.0
H3419 H 0.50624 0.08765 0.55019 0.0
H3420 H 0.84363 0.53296 0.32923 0.0
H3421 H 0.86912 0.5332 0.35153 0.0
H3422 H 0.85831 0.47601 0.36459 0.0
H3423 H 0.8334 0.4754 0.34181 0.0
H3424 H 0.86783 0.52764 0.38853 0.0
H3425 H 0.91356 0.47496 0.35692 0.0
H3426 H 0.89433 0.48509 0.34464 0.0
H3427 H 0.89054 0.4665 0.36077 0.0
C3428 C 0.84693 0.5203 0.33652 0.0
C3429 C 0.83641 0.50415 0.33362 0.0
C3430 C 0.86142 0.52051 0.34942 0.0
C3431 C 0.86583 0.50456 0.35963 0.0
C3432 C 0.85547 0.4884 0.35666 0.0
H3433 H 0.92512 0.50058 0.46458 0.0
H3434 H 0.90188 0.50103 0.44003 0.0
C3435 C 0.84103 0.48815 0.34375 0.0
C3436 C 0.88068 0.50504 0.37397 0.0
H3437 H 0.92032 0.48343 0.38813 0.0
C3438 C 0.87937 0.51805 0.38837 0.0
C3439 C 0.8959 0.4927 0.37369 0.0
C3440 C 0.89881 0.47915 0.35808 0.0
C3441 C 0.89259 0.51878 0.40265 0.0
C3442 C 0.90735 0.50589 0.4028 0.0
C3443 C 0.90889 0.49316 0.38818 0.0
C3444 C 0.9215 0.50551 0.41784 0.0
C3445 C 0.89074 0.53359 0.41725 0.0
C3446 C 0.94037 0.5073 0.41358 0.0
C3447 C 0.95376 0.50683 0.42759 0.0
C3448 C 0.94859 0.50453 0.44624 0.0
C3449 C 0.92966 0.50256 0.45044 0.0
C3450 C 0.91629 0.50293 0.43639 0.0
H3451 H 0.88221 0.54539 0.41231 0.0
H3452 H 0.88382 0.52765 0.4296 0.0
H3453 H 0.9045 0.53893 0.42152 0.0
H3454 H 0.94477 0.50922 0.39938 0.0
H3455 H 0.96815 0.50844 0.42375 0.0
H3456 H 0.50281 0.85715 0.31378 0.0
H3457 H 0.50213 0.88253 0.33637 0.0
H3458 H 0.51237 0.84362 0.38039 0.0
H3459 H 0.51312 0.81834 0.35803 0.0
H3460 H 0.47983 0.88856 0.36709 0.0
H3461 H 0.55304 0.88148 0.38868 0.0
H3462 H 0.54396 0.87035 0.36826 0.0
H3463 H 0.54029 0.86028 0.39073 0.0
C3464 C 0.50485 0.85402 0.32828 0.0
C3465 C 0.5083 0.83574 0.33405 0.0
C3466 C 0.50452 0.86854 0.34117 0.0
C3467 C 0.50763 0.86505 0.36004 0.0
C3468 C 0.51049 0.84675 0.36586 0.0
H3469 H 0.50924 0.92541 0.46306 0.0
H3470 H 0.50906 0.90247 0.43825 0.0
C3471 C 0.51091 0.8323 0.35303 0.0
C3472 C 0.50769 0.88041 0.37378 0.0
H3473 H 0.53382 0.90026 0.40785 0.0
C3474 C 0.49169 0.89125 0.37588 0.0
C3475 C 0.52319 0.88395 0.38524 0.0
C3476 C 0.54116 0.87353 0.38302 0.0
C3477 C 0.49056 0.90509 0.38954 0.0
C3478 C 0.50592 0.90831 0.40126 0.0
C3479 C 0.52202 0.89769 0.39894 0.0
C3480 C 0.50553 0.92242 0.41624 0.0
C3481 C 0.47275 0.91576 0.39172 0.0
C3482 C 0.50374 0.94131 0.41212 0.0
C3483 C 0.50387 0.95453 0.42629 0.0
C3484 C 0.50584 0.94914 0.44492 0.0
C3485 C 0.50764 0.93016 0.44895 0.0
C3486 C 0.50756 0.91698 0.43476 0.0
H3487 H 0.46103 0.90891 0.38451 0.0
H3488 H 0.46915 0.91739 0.40656 0.0
H3489 H 0.4745 0.92978 0.38571 0.0
H3490 H 0.50249 0.94587 0.3979 0.0
H3491 H 0.50251 0.96899 0.42258 0.0
H3492 H 0.18654 0.53171 0.34672 0.0
H3493 H 0.16074 0.53215 0.3687 0.0
H3494 H 0.15515 0.47297 0.36341 0.0
H3495 H 0.18109 0.47241 0.34167 0.0
H3496 H 0.12476 0.52196 0.36585 0.0
H3497 H 0.15955 0.47873 0.41875 0.0
H3498 H 0.17173 0.4883 0.39919 0.0
H3499 H 0.15807 0.46763 0.39661 0.0
C3500 C 0.17974 0.51881 0.35017 0.0
C3501 C 0.18598 0.502 0.34259 0.0
C3502 C 0.16503 0.51907 0.36277 0.0
C3503 C 0.15623 0.50255 0.36802 0.0
C3504 C 0.16205 0.48583 0.36001 0.0
H3505 H 0.05007 0.49517 0.42566 0.0
H3506 H 0.07475 0.49505 0.40252 0.0
C3507 C 0.17685 0.48553 0.34754 0.0
C3508 C 0.141 0.50282 0.38188 0.0
H3509 H 0.12763 0.48493 0.42353 0.0
C3510 C 0.1254 0.5139 0.37849 0.0
C3511 C 0.14195 0.49253 0.39852 0.0
C3512 C 0.1588 0.48127 0.40361 0.0
C3513 C 0.11064 0.5148 0.39115 0.0
C3514 C 0.11131 0.50398 0.40747 0.0
C3515 C 0.12701 0.49306 0.41094 0.0
C3516 C 0.09616 0.50412 0.42142 0.0
C3517 C 0.09471 0.52767 0.38711 0.0
C3518 C 0.10002 0.50873 0.43988 0.0
C3519 C 0.086 0.50856 0.45321 0.0
C3520 C 0.06774 0.50379 0.44837 0.0
C3521 C 0.06391 0.4991 0.42986 0.0
C3522 C 0.078 0.49913 0.41656 0.0
H3523 H 0.09867 0.53863 0.37708 0.0
H3524 H 0.08315 0.51964 0.38098 0.0
H3525 H 0.08961 0.5344 0.39995 0.0
H3526 H 0.11392 0.51257 0.44399 0.0
H3527 H 0.08949 0.51233 0.46728 0.0
H3528 H 0.51439 0.16698 0.32405 0.0
H3529 H 0.51279 0.14086 0.34554 0.0
H3530 H 0.50378 0.17861 0.39084 0.0
H3531 H 0.50454 0.20469 0.36941 0.0
H3532 H 0.53459 0.1327 0.37533 0.0
H3533 H 0.46208 0.14208 0.39841 0.0
H3534 H 0.47143 0.15389 0.3785 0.0
H3535 H 0.47591 0.16247 0.40144 0.0
C3536 C 0.51177 0.16973 0.33854 0.0
C3537 C 0.50951 0.18801 0.34493 0.0
C3538 C 0.511 0.15477 0.35084 0.0
C3539 C 0.50786 0.15771 0.36979 0.0
C3540 C 0.50581 0.17592 0.37624 0.0
H3541 H 0.50544 0.09062 0.46893 0.0
H3542 H 0.50566 0.1153 0.44585 0.0
C3543 C 0.50652 0.19087 0.36397 0.0
C3544 C 0.50724 0.1418 0.38288 0.0
H3545 H 0.48051 0.12112 0.416 0.0
C3546 C 0.5227 0.13008 0.3841 0.0
C3547 C 0.49171 0.13834 0.39434 0.0
C3548 C 0.47427 0.14974 0.39302 0.0
C3549 C 0.52327 0.11534 0.3968 0.0
C3550 C 0.50787 0.11209 0.40846 0.0
C3551 C 0.49234 0.12368 0.40711 0.0
C3552 C 0.5077 0.09691 0.42235 0.0
C3553 C 0.54054 0.10367 0.39801 0.0
C3554 C 0.50855 0.07831 0.4168 0.0
C3555 C 0.5084 0.0641 0.42998 0.0
C3556 C 0.50737 0.06818 0.44901 0.0
C3557 C 0.50633 0.08687 0.45446 0.0
C3558 C 0.50642 0.10105 0.44127 0.0
H3559 H 0.55253 0.11043 0.39117 0.0
H3560 H 0.54418 0.10081 0.41266 0.0
H3561 H 0.53804 0.09022 0.39104 0.0
H3562 H 0.50923 0.07477 0.40226 0.0
H3563 H 0.50917 0.04992 0.4252 0.0
H3564 H 0.68444 0.84081 0.47678 0.0
H3565 H 0.66174 0.86592 0.47591 0.0
H3566 H 0.65023 0.85766 0.53384 0.0
H3567 H 0.67341 0.83312 0.53503 0.0
H3568 H 0.62478 0.86425 0.48262 0.0
H3569 H 0.65738 0.91304 0.5319 0.0
H3570 H 0.66963 0.89349 0.52234 0.0
H3571 H 0.65406 0.89041 0.54153 0.0
C3572 C 0.6774 0.84459 0.48945 0.0
C3573 C 0.68086 0.83491 0.506 0.0
C3574 C 0.66428 0.85886 0.48888 0.0
C3575 C 0.65438 0.86386 0.50485 0.0
C3576 C 0.6579 0.85434 0.52141 0.0
H3577 H 0.54937 0.92351 0.50866 0.0
H3578 H 0.57372 0.9 0.5086 0.0
C3579 C 0.67104 0.84012 0.52201 0.0
C3580 C 0.63985 0.87848 0.50402 0.0
H3581 H 0.62603 0.91922 0.52368 0.0
C3582 C 0.62511 0.87633 0.49153 0.0
C3583 C 0.64035 0.89436 0.51549 0.0
C3584 C 0.6563 0.8981 0.52844 0.0
C3585 C 0.61073 0.88941 0.49041 0.0
C3586 C 0.61086 0.90491 0.50239 0.0
C3587 C 0.62578 0.90724 0.51465 0.0
C3588 C 0.59589 0.91911 0.50221 0.0
C3589 C 0.59572 0.88664 0.47617 0.0
C3590 C 0.60024 0.93778 0.49908 0.0
C3591 C 0.58638 0.95129 0.49928 0.0
C3592 C 0.56778 0.94649 0.50266 0.0
C3593 C 0.56347 0.92775 0.50582 0.0
C3594 C 0.57739 0.91424 0.5057 0.0
H3595 H 0.6003 0.87729 0.46486 0.0
H3596 H 0.58349 0.88024 0.48289 0.0
H3597 H 0.59138 0.90004 0.47002 0.0
H3598 H 0.6144 0.94191 0.49641 0.0
H3599 H 0.59031 0.96553 0.49676 0.0
H3600 H 0.67444 0.1766 0.54157 0.0
H3601 H 0.65225 0.15128 0.53901 0.0
H3602 H 0.66226 0.14823 0.48029 0.0
H3603 H 0.68394 0.17417 0.4826 0.0
H3604 H 0.62565 0.14815 0.48801 0.0
H3605 H 0.66072 0.09655 0.53239 0.0
H3606 H 0.65717 0.11817 0.54405 0.0
H3607 H 0.6722 0.11717 0.52421 0.0
C3608 C 0.67196 0.17057 0.52809 0.0
C3609 C 0.68099 0.17751 0.51228 0.0
C3610 C 0.65941 0.1559 0.52669 0.0
C3611 C 0.65576 0.14763 0.5095 0.0
C3612 C 0.66494 0.1543 0.49373 0.0
H3613 H 0.59131 0.04607 0.49765 0.0
H3614 H 0.61575 0.06941 0.49759 0.0
C3615 C 0.67747 0.16904 0.4951 0.0
C3616 C 0.64161 0.13273 0.50789 0.0
H3617 H 0.62893 0.09062 0.52527 0.0
C3618 C 0.62645 0.1355 0.49605 0.0
C3619 C 0.64273 0.11609 0.51818 0.0
C3620 C 0.65918 0.1117 0.53027 0.0
C3621 C 0.61218 0.12235 0.49457 0.0
C3622 C 0.61286 0.10614 0.50555 0.0
C3623 C 0.62826 0.10314 0.51702 0.0
C3624 C 0.59779 0.09208 0.50532 0.0
C3625 C 0.59665 0.12587 0.48107 0.0
C3626 C 0.57953 0.09697 0.50988 0.0
C3627 C 0.56545 0.08365 0.50982 0.0
C3628 C 0.56935 0.06507 0.50545 0.0
C3629 C 0.58772 0.0602 0.5011 0.0
C3630 C 0.60176 0.07355 0.50106 0.0
H3631 H 0.60088 0.13572 0.47005 0.0
H3632 H 0.59194 0.11282 0.47446 0.0
H3633 H 0.58475 0.13205 0.48856 0.0
H3634 H 0.57619 0.11106 0.51369 0.0
H3635 H 0.55155 0.08793 0.51344 0.0
H3636 H 0.84855 0.6899 0.4925 0.0
H3637 H 0.87497 0.66867 0.49292 0.0
H3638 H 0.83896 0.624 0.50919 0.0
H3639 H 0.81255 0.64511 0.50916 0.0
H3640 H 0.88864 0.64607 0.52279 0.0
H3641 H 0.8658 0.6041 0.46267 0.0
H3642 H 0.85639 0.62671 0.46766 0.0
H3643 H 0.84866 0.60685 0.48047 0.0
C3644 C 0.84624 0.6756 0.49634 0.0
C3645 C 0.82833 0.66922 0.50068 0.0
C3646 C 0.86137 0.66347 0.49648 0.0
C3647 C 0.85889 0.6447 0.50081 0.0
C3648 C 0.84113 0.63835 0.50543 0.0
H3649 H 0.92526 0.54616 0.50936 0.0
H3650 H 0.90117 0.56972 0.50856 0.0
C3651 C 0.82602 0.65045 0.50535 0.0
C3652 C 0.87484 0.63174 0.50065 0.0
H3653 H 0.89104 0.59238 0.48009 0.0
C3654 C 0.88928 0.63441 0.51338 0.0
C3655 C 0.87562 0.61654 0.48834 0.0
C3656 C 0.86089 0.6134 0.47388 0.0
C3657 C 0.90417 0.62191 0.51454 0.0
C3658 C 0.90483 0.60656 0.50238 0.0
C3659 C 0.89052 0.60411 0.48945 0.0
C3660 C 0.91984 0.59249 0.50318 0.0
C3661 C 0.91871 0.62491 0.52922 0.0
C3662 C 0.93844 0.59738 0.50029 0.0
C3663 C 0.95237 0.58389 0.50081 0.0
C3664 C 0.94796 0.56518 0.50404 0.0
C3665 C 0.92927 0.56037 0.50679 0.0
C3666 C 0.91541 0.57385 0.50635 0.0
H3667 H 0.9138 0.6344 0.54027 0.0
H3668 H 0.92286 0.61159 0.53566 0.0
H3669 H 0.93116 0.63119 0.5228 0.0
H3670 H 0.94217 0.6116 0.49741 0.0
H3671 H 0.96656 0.58814 0.4985 0.0
H3672 H 0.33888 0.83794 0.4745 0.0
H3673 H 0.36265 0.86188 0.47603 0.0
H3674 H 0.35527 0.86561 0.53509 0.0
H3675 H 0.33211 0.84096 0.53382 0.0
H3676 H 0.36225 0.8972 0.48686 0.0
H3677 H 0.41042 0.85803 0.53188 0.0
H3678 H 0.39045 0.84746 0.52126 0.0
H3679 H 0.38792 0.86113 0.54192 0.0
C3680 C 0.34241 0.84367 0.48788 0.0
C3681 C 0.33367 0.83724 0.50407 0.0
C3682 C 0.35595 0.85751 0.4887 0.0
C3683 C 0.36112 0.86533 0.50572 0.0
C3684 C 0.35192 0.8595 0.52183 0.0
H3685 H 0.42618 0.96699 0.51548 0.0
H3686 H 0.40164 0.94379 0.51533 0.0
C3687 C 0.33843 0.84555 0.52104 0.0
C3688 C 0.3761 0.87956 0.50645 0.0
H3689 H 0.41817 0.88937 0.52585 0.0
C3690 C 0.37448 0.89546 0.49539 0.0
C3691 C 0.39226 0.87721 0.51732 0.0
C3692 C 0.39551 0.85996 0.52863 0.0
C3693 C 0.38838 0.9091 0.49501 0.0
C3694 C 0.40424 0.90705 0.50636 0.0
C3695 C 0.40596 0.89107 0.51729 0.0
C3696 C 0.41933 0.92116 0.50687 0.0
C3697 C 0.38615 0.92531 0.48204 0.0
C3698 C 0.43768 0.91614 0.50281 0.0
C3699 C 0.45188 0.92937 0.5031 0.0
C3700 C 0.44806 0.94798 0.50747 0.0
C3701 C 0.42969 0.95288 0.51182 0.0
C3702 C 0.41555 0.93962 0.51164 0.0
H3703 H 0.37631 0.92213 0.47066 0.0
H3704 H 0.38056 0.93729 0.48985 0.0
H3705 H 0.39961 0.9294 0.47588 0.0
H3706 H 0.44101 0.90198 0.49918 0.0
H3707 H 0.4658 0.92501 0.49968 0.0
H3708 H 0.18103 0.34127 0.47721 0.0
H3709 H 0.15634 0.3643 0.4785 0.0
H3710 H 0.14594 0.35018 0.5355 0.0
H3711 H 0.17119 0.32764 0.53458 0.0
H3712 H 0.11957 0.36186 0.48553 0.0
H3713 H 0.15327 0.40567 0.53879 0.0
H3714 H 0.16528 0.38717 0.52711 0.0
H3715 H 0.14978 0.38214 0.54593 0.0
C3716 C 0.17361 0.34312 0.49009 0.0
C3717 C 0.17833 0.33269 0.50586 0.0
C3718 C 0.15938 0.35624 0.49076 0.0
C3719 C 0.14949 0.35929 0.5072 0.0
C3720 C 0.15364 0.34841 0.52277 0.0
H3721 H 0.04656 0.42262 0.5138 0.0
H3722 H 0.06992 0.39824 0.51362 0.0
C3723 C 0.16794 0.33531 0.52214 0.0
C3724 C 0.13499 0.37395 0.50796 0.0
H3725 H 0.1227 0.41388 0.53019 0.0
C3726 C 0.12025 0.37323 0.49531 0.0
C3727 C 0.13601 0.38898 0.52051 0.0
C3728 C 0.15202 0.3912 0.53374 0.0
C3729 C 0.10647 0.38698 0.49495 0.0
C3730 C 0.10721 0.40171 0.50786 0.0
C3731 C 0.12202 0.40252 0.52041 0.0
C3732 C 0.09296 0.41662 0.50833 0.0
C3733 C 0.09153 0.38584 0.4804 0.0
C3734 C 0.09814 0.43521 0.50602 0.0
C3735 C 0.08481 0.44929 0.50629 0.0
C3736 C 0.06595 0.44509 0.50892 0.0
C3737 C 0.06087 0.42644 0.51154 0.0
C3738 C 0.07423 0.41241 0.51134 0.0
H3739 H 0.09574 0.3769 0.46863 0.0
H3740 H 0.07887 0.37978 0.48663 0.0
H3741 H 0.08802 0.39978 0.47497 0.0
H3742 H 0.11252 0.43884 0.50378 0.0
H3743 H 0.0893 0.46343 0.50425 0.0
H3744 H 0.32525 0.16583 0.50145 0.0
H3745 H 0.34669 0.13964 0.50222 0.0
H3746 H 0.38994 0.17553 0.52224 0.0
H3747 H 0.36843 0.20155 0.52238 0.0
H3748 H 0.37882 0.13425 0.48362 0.0
H3749 H 0.39299 0.13365 0.55889 0.0
H3750 H 0.37429 0.14685 0.54891 0.0
H3751 H 0.39757 0.15573 0.54853 0.0
C3752 C 0.33922 0.16812 0.50633 0.0
C3753 C 0.34502 0.18587 0.51194 0.0
C3754 C 0.35152 0.15313 0.50662 0.0
C3755 C 0.36987 0.15551 0.51259 0.0
C3756 C 0.37576 0.17322 0.51798 0.0
H3757 H 0.46951 0.0893 0.51587 0.0
H3758 H 0.44605 0.11366 0.51644 0.0
C3759 C 0.36347 0.18818 0.51779 0.0
C3760 C 0.38302 0.13962 0.51262 0.0
H3761 H 0.41321 0.11559 0.54 0.0
C3762 C 0.38621 0.13006 0.49599 0.0
C3763 C 0.39265 0.13409 0.52878 0.0
C3764 C 0.38908 0.14299 0.54733 0.0
C3765 C 0.39912 0.11553 0.49497 0.0
C3766 C 0.40901 0.11031 0.51102 0.0
C3767 C 0.40568 0.11969 0.52769 0.0
C3768 C 0.4231 0.09534 0.51073 0.0
C3769 C 0.40246 0.10617 0.47661 0.0
C3770 C 0.41794 0.07689 0.50754 0.0
C3771 C 0.43132 0.06286 0.50727 0.0
C3772 C 0.45015 0.06701 0.51014 0.0
C3773 C 0.4552 0.08554 0.51348 0.0
C3774 C 0.4418 0.09952 0.51386 0.0
H3775 H 0.39644 0.11412 0.46492 0.0
H3776 H 0.41752 0.10436 0.47413 0.0
H3777 H 0.396 0.09224 0.47678 0.0
H3778 H 0.40355 0.07333 0.50533 0.0
H3779 H 0.42687 0.04878 0.50467 0.0
H3780 H 0.84576 0.32355 0.51969 0.0
H3781 H 0.87248 0.3444 0.51929 0.0
H3782 H 0.83725 0.38938 0.5022 0.0
H3783 H 0.81054 0.36863 0.50221 0.0
H3784 H 0.88671 0.36665 0.48929 0.0
H3785 H 0.86382 0.40912 0.54906 0.0
H3786 H 0.85424 0.38658 0.54411 0.0
H3787 H 0.84682 0.40643 0.53113 0.0
C3788 C 0.8437 0.33783 0.51566 0.0
C3789 C 0.82593 0.34441 0.5111 0.0
C3790 C 0.85899 0.34974 0.51553 0.0
C3791 C 0.85679 0.36849 0.51099 0.0
C3792 C 0.83918 0.37504 0.50612 0.0
H3793 H 0.92457 0.46604 0.50263 0.0
H3794 H 0.90012 0.44283 0.50327 0.0
C3795 C 0.82391 0.36315 0.50618 0.0
C3796 C 0.8729 0.38124 0.51125 0.0
H3797 H 0.8894 0.42042 0.53187 0.0
C3798 C 0.88741 0.37834 0.49867 0.0
C3799 C 0.87375 0.39645 0.52354 0.0
C3800 C 0.85892 0.39981 0.53785 0.0
C3801 C 0.90247 0.39063 0.49761 0.0
C3802 C 0.9032 0.406 0.50975 0.0
C3803 C 0.88882 0.40868 0.52254 0.0
C3804 C 0.9184 0.41985 0.50905 0.0
C3805 C 0.91712 0.3874 0.4831 0.0
C3806 C 0.93687 0.4147 0.51223 0.0
C3807 C 0.951 0.42797 0.5118 0.0
C3808 C 0.9469 0.44672 0.50839 0.0
C3809 C 0.92833 0.45179 0.50535 0.0
C3810 C 0.91427 0.43851 0.5057 0.0
H3811 H 0.91221 0.37791 0.47204 0.0
H3812 H 0.92149 0.40064 0.47665 0.0
H3813 H 0.92943 0.381 0.48967 0.0
H3814 H 0.94035 0.40044 0.51525 0.0
H3815 H 0.96509 0.42354 0.51435 0.0
H3816 H 0.16461 0.69076 0.51479 0.0
H3817 H 0.13895 0.66861 0.51469 0.0
H3818 H 0.17639 0.62511 0.49854 0.0
H3819 H 0.20203 0.64714 0.49814 0.0
H3820 H 0.1262 0.64524 0.48462 0.0
H3821 H 0.15 0.6046 0.54531 0.0
H3822 H 0.15853 0.62755 0.54031 0.0
H3823 H 0.16708 0.608 0.52756 0.0
C3824 C 0.16741 0.67652 0.51105 0.0
C3825 C 0.18551 0.67079 0.50658 0.0
C3826 C 0.15271 0.66386 0.5111 0.0
C3827 C 0.15579 0.64515 0.50687 0.0
C3828 C 0.17374 0.6394 0.50221 0.0
H3829 H 0.09011 0.54499 0.50131 0.0
H3830 H 0.11437 0.5685 0.50127 0.0
C3831 C 0.18842 0.65204 0.50206 0.0
C3832 C 0.14024 0.63165 0.50707 0.0
H3833 H 0.12485 0.59229 0.52827 0.0
C3834 C 0.12581 0.63372 0.49423 0.0
C3835 C 0.13979 0.61661 0.51958 0.0
C3836 C 0.15458 0.61406 0.53409 0.0
C3837 C 0.11121 0.62085 0.49322 0.0
C3838 C 0.11078 0.60574 0.50571 0.0
C3839 C 0.12515 0.60382 0.51867 0.0
C3840 C 0.09576 0.59158 0.50543 0.0
C3841 C 0.09671 0.62326 0.47839 0.0
C3842 C 0.07715 0.59664 0.50794 0.0
C3843 C 0.06317 0.5832 0.50787 0.0
C3844 C 0.0675 0.56434 0.50552 0.0
C3845 C 0.08619 0.55933 0.5032 0.0
C3846 C 0.10013 0.57278 0.50316 0.0
H3847 H 0.10173 0.63222 0.46695 0.0
H3848 H 0.09248 0.60971 0.47252 0.0
H3849 H 0.08431 0.62995 0.48449 0.0
H3850 H 0.07344 0.61098 0.51019 0.0
H3851 H 0.04899 0.58761 0.5099 0.0
loop_
_geom_bond_atom_site_label_1
_geom_bond_atom_site_label_2
_geom_bond_distance
_geom_bond_site_symmetry_2
_ccdc_geom_bond_type
C0 C1 1.264 . S
C0 C5 1.479 . S
C0 C10 1.465 . S
C1 C0 1.264 . S
C1 C3 1.339 . S
C1 H28 0.931 . S
C2 C3 1.395 . S
C2 C4 1.320 . S
C3 C1 1.339 . S
C3 C2 1.395 . S
C3 H29 0.929 . S
C4 C2 1.320 . S
C4 C5 1.405 . S
C4 H30 0.930 1_655 S
C5 C0 1.479 . S
C5 C4 1.405 . S
C5 H31 0.931 . S
U6 O7 2.454 . S
U6 O8 2.458 . S
U6 C9 2.984 . S
U6 C10 2.847 . S
U6 C23 2.882 . S
U6 O24 2.441 . S
U6 O25 2.420 . S
U6 O26 2.455 . S
U6 O27 2.449 . S
O7 U6 2.454 . S
O7 C9 1.353 . S
O8 U6 2.458 . S
O8 C9 1.286 . S
C9 U6 2.984 . S
C9 O7 1.353 . S
C9 O8 1.286 . S
C9 C11 1.363 . S
C10 C0 1.465 . S
C10 U6 2.847 . S
C10 O24 1.249 . S
C10 O25 1.202 . S
C11 C9 1.363 . S
C11 C13 1.408 . S
C11 C16 1.343 . S
C12 C13 1.313 . S
C12 C15 1.458 1_655 S
C12 H32 0.931 . S
C13 C11 1.408 . S
C13 C12 1.313 . S
C13 H33 0.930 . S
C14 C15 1.476 . S
C14 C16 1.285 1_455 S
C14 H34 0.929 . S
C15 C12 1.458 1_455 S
C15 C14 1.476 . S
C16 C11 1.343 . S
C16 C14 1.285 1_655 S
C16 H35 0.929 1_655 S
C17 C20 1.424 . S
C17 C22 1.245 . S
C17 C23 1.428 . S
C18 C21 1.260 . S
C18 C22 1.477 . S
C18 H36 0.932 . S
C19 C20 1.384 . S
C19 C21 1.479 . S
C19 H37 0.929 . S
C20 C17 1.424 . S
C20 C19 1.384 . S
C20 H38 0.928 . S
C21 C18 1.260 . S
C21 C19 1.479 . S
C22 C17 1.245 . S
C22 C18 1.477 . S
C22 H39 0.932 . S
C23 U6 2.882 . S
C23 C17 1.428 . S
C23 O26 1.301 . S
C23 O27 1.282 . S
O24 U6 2.441 . S
O24 C10 1.249 . S
O25 U6 2.420 . S
O25 C10 1.202 . S
O26 U6 2.455 . S
O26 C23 1.301 . S
O27 U6 2.449 . S
O27 C23 1.282 . S
H28 C1 0.931 . S
H29 C3 0.929 . S
H30 C4 0.930 1_455 S
H31 C5 0.931 . S
H32 C12 0.931 . S
H33 C13 0.930 . S
H34 C14 0.929 . S
H35 C16 0.929 1_455 S
H36 C18 0.932 . S
H37 C19 0.929 . S
H38 C20 0.928 . S
H39 C22 0.932 . S
C40 C41 1.264 . S
C40 C45 1.479 . S
C40 C50 1.465 . S
C41 C40 1.264 . S
C41 C43 1.339 . S
C41 H68 0.931 . S
C42 C43 1.395 . S
C42 C44 1.320 . S
C43 C41 1.339 . S
C43 C42 1.395 . S
C43 H69 0.929 . S
C44 C42 1.320 . S
C44 C45 1.405 . S
C44 H70 0.928 1_545 S
C45 C40 1.479 . S
C45 C44 1.405 . S
C45 H71 0.931 . S
U46 O47 2.454 . S
U46 O48 2.458 . S
U46 C49 2.984 . S
U46 C50 2.847 . S
U46 C63 2.882 . S
U46 O64 2.441 . S
U46 O65 2.420 . S
U46 O66 2.455 . S
U46 O67 2.449 . S
O47 U46 2.454 . S
O47 C49 1.353 . S
O48 U46 2.458 . S
O48 C49 1.286 . S
C49 U46 2.984 . S
C49 O47 1.353 . S
C49 O48 1.286 . S
C49 C51 1.363 . S
C50 C40 1.465 . S
C50 U46 2.847 . S
C50 O64 1.249 . S
C50 O65 1.202 . S
C51 C49 1.363 . S
C51 C53 1.408 . S
C51 C56 1.342 . S
C52 C53 1.310 . S
C52 C55 1.464 . S
C52 H72 0.932 . S
C53 C51 1.408 . S
C53 C52 1.310 . S
C53 H73 0.930 . S
C54 C55 1.474 . S
C54 C56 1.287 . S
C54 H74 0.925 1_545 S
C55 C52 1.464 . S
C55 C54 1.474 . S
C56 C51 1.342 . S
C56 C54 1.287 . S
C56 H75 0.930 . S
C57 C60 1.424 . S
C57 C62 1.245 . S
C57 C63 1.428 . S
C58 C61 1.260 . S
C58 C62 1.477 . S
C58 H76 0.932 . S
C59 C60 1.384 . S
C59 C61 1.479 . S
C59 H77 0.929 . S
C60 C57 1.424 . S
C60 C59 1.384 . S
C60 H78 0.928 . S
C61 C58 1.260 . S
C61 C59 1.479 . S
C62 C57 1.245 . S
C62 C58 1.477 . S
C62 H79 0.932 . S
C63 U46 2.882 . S
C63 C57 1.428 . S
C63 O66 1.301 . S
C63 O67 1.282 . S
O64 U46 2.441 . S
O64 C50 1.249 . S
O65 U46 2.420 . S
O65 C50 1.202 . S
O66 U46 2.455 . S
O66 C63 1.301 . S
O67 U46 2.449 . S
O67 C63 1.282 . S
H68 C41 0.931 . S
H69 C43 0.929 . S
H70 C44 0.928 1_565 S
H71 C45 0.931 . S
H72 C52 0.932 . S
H73 C53 0.930 . S
H74 C54 0.925 1_565 S
H75 C56 0.930 . S
H76 C58 0.932 . S
H77 C59 0.929 . S
H78 C60 0.928 . S
H79 C62 0.932 . S
C80 C81 1.264 . S
C80 C85 1.479 . S
C80 C90 1.465 . S
C81 C80 1.264 . S
C81 C83 1.339 . S
C81 H108 0.931 . S
C82 C83 1.395 . S
C82 C84 1.320 . S
C83 C81 1.339 . S
C83 C82 1.395 . S
C83 H109 0.929 . S
C84 C82 1.320 . S
C84 C85 1.405 . S
C84 H110 0.930 1_655 S
C85 C80 1.479 . S
C85 C84 1.405 . S
C85 H111 0.931 . S
U86 O87 2.454 . S
U86 O88 2.458 . S
U86 C89 2.984 . S
U86 C90 2.847 . S
U86 C103 2.882 . S
U86 O104 2.441 . S
U86 O105 2.420 . S
U86 O106 2.455 . S
U86 O107 2.449 . S
O87 U86 2.454 . S
O87 C89 1.353 . S
O88 U86 2.458 . S
O88 C89 1.286 . S
C89 U86 2.984 . S
C89 O87 1.353 . S
C89 O88 1.286 . S
C89 C91 1.363 . S
C90 C80 1.465 . S
C90 U86 2.847 . S
C90 O104 1.249 . S
C90 O105 1.202 . S
C91 C89 1.363 . S
C91 C93 1.408 . S
C91 C96 1.344 . S
C92 C93 1.314 . S
C92 C95 1.458 1_655 S
C92 H112 0.931 . S
C93 C91 1.408 . S
C93 C92 1.314 . S
C93 H113 0.930 . S
C94 C95 1.474 . S
C94 C96 1.282 1_455 S
C94 H114 0.938 . S
C95 C92 1.458 1_455 S
C95 C94 1.474 . S
C96 C91 1.344 . S
C96 C94 1.282 1_655 S
C96 H115 0.929 1_655 S
C97 C100 1.424 . S
C97 C102 1.245 . S
C97 C103 1.428 . S
C98 C101 1.260 . S
C98 C102 1.477 . S
C98 H116 0.932 . S
C99 C100 1.384 . S
C99 C101 1.479 . S
C99 H117 0.929 . S
C100 C97 1.424 . S
C100 C99 1.384 . S
C100 H118 0.928 . S
C101 C98 1.260 . S
C101 C99 1.479 . S
C102 C97 1.245 . S
C102 C98 1.477 . S
C102 H119 0.932 . S
C103 U86 2.882 . S
C103 C97 1.428 . S
C103 O106 1.301 . S
C103 O107 1.282 . S
O104 U86 2.441 . S
O104 C90 1.249 . S
O105 U86 2.420 . S
O105 C90 1.202 . S
O106 U86 2.455 . S
O106 C103 1.301 . S
O107 U86 2.449 . S
O107 C103 1.282 . S
H108 C81 0.931 . S
H109 C83 0.929 . S
H110 C84 0.930 1_455 S
H111 C85 0.931 . S
H112 C92 0.931 . S
H113 C93 0.930 . S
H114 C94 0.938 . S
H115 C96 0.929 1_455 S
H116 C98 0.932 . S
H117 C99 0.929 . S
H118 C100 0.928 . S
H119 C102 0.932 . S
C120 C121 1.264 . S
C120 C125 1.479 . S
C120 C130 1.465 . S
C121 C120 1.264 . S
C121 C123 1.339 . S
C121 H148 0.931 . S
C122 C123 1.395 . S
C122 C124 1.320 . S
C123 C121 1.339 . S
C123 C122 1.395 . S
C123 H149 0.929 . S
C124 C122 1.320 . S
C124 C125 1.405 . S
C124 H150 0.930 1_565 S
C125 C120 1.479 . S
C125 C124 1.405 . S
C125 H151 0.931 . S
U126 O127 2.454 . S
U126 O128 2.458 . S
U126 C129 2.984 . S
U126 C130 2.847 . S
U126 C143 2.882 . S
U126 O144 2.441 . S
U126 O145 2.420 . S
U126 O146 2.455 . S
U126 O147 2.449 . S
O127 U126 2.454 . S
O127 C129 1.353 . S
O128 U126 2.458 . S
O128 C129 1.286 . S
C129 U126 2.984 . S
C129 O127 1.353 . S
C129 O128 1.286 . S
C129 C131 1.363 . S
C130 C120 1.465 . S
C130 U126 2.847 . S
C130 O144 1.249 . S
C130 O145 1.202 . S
C131 C129 1.363 . S
C131 C133 1.408 . S
C131 C136 1.349 . S
C132 C133 1.310 . S
C132 C135 1.460 1_565 S
C132 H152 0.934 . S
C133 C131 1.408 . S
C133 C132 1.310 . S
C133 H153 0.930 . S
C134 C135 1.474 . S
C134 C136 1.282 1_545 S
C134 H154 0.934 . S
C135 C132 1.460 1_545 S
C135 C134 1.474 . S
C136 C131 1.349 . S
C136 C134 1.282 1_565 S
C136 H155 0.929 . S
C137 C140 1.424 . S
C137 C142 1.245 . S
C137 C143 1.428 . S
C138 C141 1.260 . S
C138 C142 1.477 . S
C138 H156 0.932 . S
C139 C140 1.384 . S
C139 C141 1.479 . S
C139 H157 0.929 . S
C140 C137 1.424 . S
C140 C139 1.384 . S
C140 H158 0.928 . S
C141 C138 1.260 . S
C141 C139 1.479 . S
C142 C137 1.245 . S
C142 C138 1.477 . S
C142 H159 0.932 . S
C143 U126 2.882 . S
C143 C137 1.428 . S
C143 O146 1.301 . S
C143 O147 1.282 . S
O144 U126 2.441 . S
O144 C130 1.249 . S
O145 U126 2.420 . S
O145 C130 1.202 . S
O146 U126 2.455 . S
O146 C143 1.301 . S
O147 U126 2.449 . S
O147 C143 1.282 . S
H148 C121 0.931 . S
H149 C123 0.929 . S
H150 C124 0.930 1_545 S
H151 C125 0.931 . S
H152 C132 0.934 . S
H153 C133 0.930 . S
H154 C134 0.934 . S
H155 C136 0.929 . S
H156 C138 0.932 . S
H157 C139 0.929 . S
H158 C140 0.928 . S
H159 C142 0.932 . S
C160 C161 1.264 . S
C160 C165 1.479 . S
C160 C170 1.465 . S
C161 C160 1.264 . S
C161 C163 1.339 . S
C161 H188 0.931 . S
C162 C163 1.395 . S
C162 C164 1.320 . S
C163 C161 1.339 . S
C163 C162 1.395 . S
C163 H189 0.929 . S
C164 C162 1.320 . S
C164 C165 1.405 . S
C164 H190 0.930 1_655 S
C165 C160 1.479 . S
C165 C164 1.405 . S
C165 H191 0.931 . S
U166 O167 2.454 . S
U166 O168 2.458 . S
U166 C169 2.984 . S
U166 C170 2.847 . S
U166 C183 2.882 . S
U166 O184 2.441 . S
U166 O185 2.420 . S
U166 O186 2.455 . S
U166 O187 2.449 . S
O167 U166 2.454 . S
O167 C169 1.353 . S
O168 U166 2.458 . S
O168 C169 1.286 . S
C169 U166 2.984 . S
C169 O167 1.353 . S
C169 O168 1.286 . S
C169 C171 1.363 . S
C170 C160 1.465 . S
C170 U166 2.847 . S
C170 O184 1.249 . S
C170 O185 1.202 . S
C171 C169 1.363 . S
C171 C173 1.408 . S
C171 C176 1.342 . S
C172 C173 1.312 . S
C172 C175 1.458 1_655 S
C172 H192 0.931 . S
C173 C171 1.408 . S
C173 C172 1.312 . S
C173 H193 0.930 . S
C174 C175 1.476 . S
C174 C176 1.285 1_455 S
C174 H194 0.929 . S
C175 C172 1.458 1_455 S
C175 C174 1.476 . S
C176 C171 1.342 . S
C176 C174 1.285 1_655 S
C176 H195 0.929 1_655 S
C177 C180 1.424 . S
C177 C182 1.245 . S
C177 C183 1.428 . S
C178 C181 1.260 . S
C178 C182 1.477 . S
C178 H196 0.932 . S
C179 C180 1.384 . S
C179 C181 1.479 . S
C179 H197 0.929 . S
C180 C177 1.424 . S
C180 C179 1.384 . S
C180 H198 0.928 . S
C181 C178 1.260 . S
C181 C179 1.479 . S
C182 C177 1.245 . S
C182 C178 1.477 . S
C182 H199 0.932 . S
C183 U166 2.882 . S
C183 C177 1.428 . S
C183 O186 1.301 . S
C183 O187 1.282 . S
O184 U166 2.441 . S
O184 C170 1.249 . S
O185 U166 2.420 . S
O185 C170 1.202 . S
O186 U166 2.455 . S
O186 C183 1.301 . S
O187 U166 2.449 . S
O187 C183 1.282 . S
H188 C161 0.931 . S
H189 C163 0.929 . S
H190 C164 0.930 1_455 S
H191 C165 0.931 . S
H192 C172 0.931 . S
H193 C173 0.930 . S
H194 C174 0.929 . S
H195 C176 0.929 1_455 S
H196 C178 0.932 . S
H197 C179 0.929 . S
H198 C180 0.928 . S
H199 C182 0.932 . S
C200 C201 1.264 . S
C200 C205 1.479 . S
C200 C210 1.465 . S
C201 C200 1.264 . S
C201 C203 1.339 . S
C201 H228 0.931 . S
C202 C203 1.395 . S
C202 C204 1.320 . S
C203 C201 1.339 . S
C203 C202 1.395 . S
C203 H229 0.929 . S
C204 C202 1.320 . S
C204 C205 1.405 . S
C204 H230 0.930 1_545 S
C205 C200 1.479 . S
C205 C204 1.405 . S
C205 H231 0.931 . S
U206 O207 2.454 . S
U206 O208 2.458 . S
U206 C209 2.984 . S
U206 C210 2.847 . S
U206 C223 2.882 . S
U206 O224 2.441 . S
U206 O225 2.420 . S
U206 O226 2.455 . S
U206 O227 2.449 . S
O207 U206 2.454 . S
O207 C209 1.353 . S
O208 U206 2.458 . S
O208 C209 1.286 . S
C209 U206 2.984 . S
C209 O207 1.353 . S
C209 O208 1.286 . S
C209 C211 1.363 . S
C210 C200 1.465 . S
C210 U206 2.847 . S
C210 O224 1.249 . S
C210 O225 1.202 . S
C211 C209 1.363 . S
C211 C213 1.408 . S
C211 C216 1.342 . S
C212 C213 1.310 . S
C212 C215 1.465 . S
C212 H232 0.932 . S
C213 C211 1.408 . S
C213 C212 1.310 . S
C213 H233 0.930 . S
C214 C215 1.474 . S
C214 C216 1.288 . S
C214 H234 0.925 1_545 S
C215 C212 1.465 . S
C215 C214 1.474 . S
C216 C211 1.342 . S
C216 C214 1.288 . S
C216 H235 0.930 . S
C217 C220 1.424 . S
C217 C222 1.245 . S
C217 C223 1.428 . S
C218 C221 1.260 . S
C218 C222 1.477 . S
C218 H236 0.932 . S
C219 C220 1.384 . S
C219 C221 1.479 . S
C219 H237 0.929 . S
C220 C217 1.424 . S
C220 C219 1.384 . S
C220 H238 0.928 . S
C221 C218 1.260 . S
C221 C219 1.479 . S
C222 C217 1.245 . S
C222 C218 1.477 . S
C222 H239 0.932 . S
C223 U206 2.882 . S
C223 C217 1.428 . S
C223 O226 1.301 . S
C223 O227 1.282 . S
O224 U206 2.441 . S
O224 C210 1.249 . S
O225 U206 2.420 . S
O225 C210 1.202 . S
O226 U206 2.455 . S
O226 C223 1.301 . S
O227 U206 2.449 . S
O227 C223 1.282 . S
H228 C201 0.931 . S
H229 C203 0.929 . S
H230 C204 0.930 1_565 S
H231 C205 0.931 . S
H232 C212 0.932 . S
H233 C213 0.930 . S
H234 C214 0.925 1_565 S
H235 C216 0.930 . S
H236 C218 0.932 . S
H237 C219 0.929 . S
H238 C220 0.928 . S
H239 C222 0.932 . S
C240 C241 1.264 . S
C240 C245 1.479 . S
C240 C250 1.465 . S
C241 C240 1.264 . S
C241 C243 1.339 . S
C241 H268 0.931 . S
C242 C243 1.395 . S
C242 C244 1.320 . S
C243 C241 1.339 . S
C243 C242 1.395 . S
C243 H269 0.929 . S
C244 C242 1.320 . S
C244 C245 1.405 . S
C244 H270 0.930 1_655 S
C245 C240 1.479 . S
C245 C244 1.405 . S
C245 H271 0.931 . S
U246 O247 2.454 . S
U246 O248 2.458 . S
U246 C249 2.984 . S
U246 C250 2.847 . S
U246 C263 2.882 . S
U246 O264 2.441 . S
U246 O265 2.420 . S
U246 O266 2.455 . S
U246 O267 2.449 . S
O247 U246 2.454 . S
O247 C249 1.353 . S
O248 U246 2.458 . S
O248 C249 1.286 . S
C249 U246 2.984 . S
C249 O247 1.353 . S
C249 O248 1.286 . S
C249 C251 1.363 . S
C250 C240 1.465 . S
C250 U246 2.847 . S
C250 O264 1.249 . S
C250 O265 1.202 . S
C251 C249 1.363 . S
C251 C253 1.408 . S
C251 C256 1.343 . S
C252 C253 1.313 . S
C252 C255 1.458 1_655 S
C252 H272 0.931 . S
C253 C251 1.408 . S
C253 C252 1.313 . S
C253 H273 0.930 . S
C254 C255 1.476 . S
C254 C256 1.285 1_455 S
C254 H274 0.929 . S
C255 C252 1.458 1_455 S
C255 C254 1.476 . S
C256 C251 1.343 . S
C256 C254 1.285 1_655 S
C256 H275 0.929 1_655 S
C257 C260 1.424 . S
C257 C262 1.245 . S
C257 C263 1.428 . S
C258 C261 1.260 . S
C258 C262 1.477 . S
C258 H276 0.932 . S
C259 C260 1.384 . S
C259 C261 1.479 . S
C259 H277 0.929 . S
C260 C257 1.424 . S
C260 C259 1.384 . S
C260 H278 0.928 . S
C261 C258 1.260 . S
C261 C259 1.479 . S
C262 C257 1.245 . S
C262 C258 1.477 . S
C262 H279 0.932 . S
C263 U246 2.882 . S
C263 C257 1.428 . S
C263 O266 1.301 . S
C263 O267 1.282 . S
O264 U246 2.441 . S
O264 C250 1.249 . S
O265 U246 2.420 . S
O265 C250 1.202 . S
O266 U246 2.455 . S
O266 C263 1.301 . S
O267 U246 2.449 . S
O267 C263 1.282 . S
H268 C241 0.931 . S
H269 C243 0.929 . S
H270 C244 0.930 1_455 S
H271 C245 0.931 . S
H272 C252 0.931 . S
H273 C253 0.930 . S
H274 C254 0.929 . S
H275 C256 0.929 1_455 S
H276 C258 0.932 . S
H277 C259 0.929 . S
H278 C260 0.928 . S
H279 C262 0.932 . S
C280 C281 1.264 . S
C280 C285 1.479 . S
C280 C290 1.465 . S
C281 C280 1.264 . S
C281 C283 1.339 . S
C281 H308 0.931 . S
C282 C283 1.395 . S
C282 C284 1.320 . S
C283 C281 1.339 . S
C283 C282 1.395 . S
C283 H309 0.929 . S
C284 C282 1.320 . S
C284 C285 1.405 . S
C284 H310 0.931 1_545 S
C285 C280 1.479 . S
C285 C284 1.405 . S
C285 H311 0.931 . S
U286 O287 2.454 . S
U286 O288 2.458 . S
U286 C289 2.984 . S
U286 C290 2.847 . S
U286 C303 2.882 . S
U286 O304 2.441 . S
U286 O305 2.420 . S
U286 O306 2.455 . S
U286 O307 2.449 . S
O287 U286 2.454 . S
O287 C289 1.353 . S
O288 U286 2.458 . S
O288 C289 1.286 . S
C289 U286 2.984 . S
C289 O287 1.353 . S
C289 O288 1.286 . S
C289 C291 1.363 . S
C290 C280 1.465 . S
C290 U286 2.847 . S
C290 O304 1.249 . S
C290 O305 1.202 . S
C291 C289 1.363 . S
C291 C293 1.408 . S
C291 C296 1.342 . S
C292 C293 1.310 . S
C292 C295 1.465 . S
C292 H312 0.932 . S
C293 C291 1.408 . S
C293 C292 1.310 . S
C293 H313 0.930 . S
C294 C295 1.474 . S
C294 C296 1.288 . S
C294 H314 0.925 1_545 S
C295 C292 1.465 . S
C295 C294 1.474 . S
C296 C291 1.342 . S
C296 C294 1.288 . S
C296 H315 0.930 . S
C297 C300 1.424 . S
C297 C302 1.245 . S
C297 C303 1.428 . S
C298 C301 1.260 . S
C298 C302 1.477 . S
C298 H316 0.932 . S
C299 C300 1.384 . S
C299 C301 1.479 . S
C299 H317 0.929 . S
C300 C297 1.424 . S
C300 C299 1.384 . S
C300 H318 0.928 . S
C301 C298 1.260 . S
C301 C299 1.479 . S
C302 C297 1.245 . S
C302 C298 1.477 . S
C302 H319 0.932 . S
C303 U286 2.882 . S
C303 C297 1.428 . S
C303 O306 1.301 . S
C303 O307 1.282 . S
O304 U286 2.441 . S
O304 C290 1.249 . S
O305 U286 2.420 . S
O305 C290 1.202 . S
O306 U286 2.455 . S
O306 C303 1.301 . S
O307 U286 2.449 . S
O307 C303 1.282 . S
H308 C281 0.931 . S
H309 C283 0.929 . S
H310 C284 0.931 1_565 S
H311 C285 0.931 . S
H312 C292 0.932 . S
H313 C293 0.930 . S
H314 C294 0.925 1_565 S
H315 C296 0.930 . S
H316 C298 0.932 . S
H317 C299 0.929 . S
H318 C300 0.928 . S
H319 C302 0.932 . S
C320 C321 1.264 . S
C320 C325 1.479 . S
C320 C330 1.465 . S
C321 C320 1.264 . S
C321 C323 1.339 . S
C321 H348 0.931 . S
C322 C323 1.395 . S
C322 C324 1.320 . S
C323 C321 1.339 . S
C323 C322 1.395 . S
C323 H349 0.929 . S
C324 C322 1.320 . S
C324 C325 1.405 . S
C324 H350 0.929 . S
C325 C320 1.479 . S
C325 C324 1.405 . S
C325 H351 0.931 . S
U326 O327 2.454 . S
U326 O328 2.458 . S
U326 C329 2.984 . S
U326 C330 2.847 . S
U326 C343 2.882 . S
U326 O344 2.441 . S
U326 O345 2.420 . S
U326 O346 2.455 . S
U326 O347 2.449 . S
O327 U326 2.454 . S
O327 C329 1.353 . S
O328 U326 2.458 . S
O328 C329 1.286 . S
C329 U326 2.984 . S
C329 O327 1.353 . S
C329 O328 1.286 . S
C329 C331 1.363 . S
C330 C320 1.465 . S
C330 U326 2.847 . S
C330 O344 1.249 . S
C330 O345 1.202 . S
C331 C329 1.363 . S
C331 C333 1.408 . S
C331 C336 1.342 . S
C332 C333 1.310 . S
C332 C335 1.465 . S
C332 H352 0.932 . S
C333 C331 1.408 . S
C333 C332 1.310 . S
C333 H353 0.930 . S
C334 C335 1.474 . S
C334 C336 1.288 . S
C334 H354 0.925 1_554 S
C335 C332 1.465 . S
C335 C334 1.474 . S
C336 C331 1.342 . S
C336 C334 1.288 . S
C336 H355 0.930 . S
C337 C340 1.424 . S
C337 C342 1.245 . S
C337 C343 1.428 . S
C338 C341 1.260 . S
C338 C342 1.477 . S
C338 H356 0.932 . S
C339 C340 1.384 . S
C339 C341 1.479 . S
C339 H357 0.929 . S
C340 C337 1.424 . S
C340 C339 1.384 . S
C340 H358 0.928 . S
C341 C338 1.260 . S
C341 C339 1.479 . S
C342 C337 1.245 . S
C342 C338 1.477 . S
C342 H359 0.932 . S
C343 U326 2.882 . S
C343 C337 1.428 . S
C343 O346 1.301 . S
C343 O347 1.282 . S
O344 U326 2.441 . S
O344 C330 1.249 . S
O345 U326 2.420 . S
O345 C330 1.202 . S
O346 U326 2.455 . S
O346 C343 1.301 . S
O347 U326 2.449 . S
O347 C343 1.282 . S
H348 C321 0.931 . S
H349 C323 0.929 . S
H350 C324 0.929 . S
H351 C325 0.931 . S
H352 C332 0.932 . S
H353 C333 0.930 . S
H354 C334 0.925 1_556 S
H355 C336 0.930 . S
H356 C338 0.932 . S
H357 C339 0.929 . S
H358 C340 0.928 . S
H359 C342 0.932 . S
C360 C361 1.264 . S
C360 C365 1.479 . S
C360 C370 1.465 . S
C361 C360 1.264 . S
C361 C363 1.339 . S
C361 H388 0.931 . S
C362 C363 1.395 . S
C362 C364 1.320 . S
C363 C361 1.339 . S
C363 C362 1.395 . S
C363 H389 0.929 . S
C364 C362 1.320 . S
C364 C365 1.405 . S
C364 H390 0.928 1_554 S
C365 C360 1.479 . S
C365 C364 1.405 . S
C365 H391 0.931 . S
U366 O367 2.454 . S
U366 O368 2.458 . S
U366 C369 2.984 . S
U366 C370 2.847 . S
U366 C383 2.882 . S
U366 O384 2.441 . S
U366 O385 2.420 . S
U366 O386 2.455 . S
U366 O387 2.449 . S
O367 U366 2.454 . S
O367 C369 1.353 . S
O368 U366 2.458 . S
O368 C369 1.286 . S
C369 U366 2.984 . S
C369 O367 1.353 . S
C369 O368 1.286 . S
C369 C371 1.363 . S
C370 C360 1.465 . S
C370 U366 2.847 . S
C370 O384 1.249 . S
C370 O385 1.202 . S
C371 C369 1.363 . S
C371 C373 1.408 . S
C371 C376 1.342 . S
C372 C373 1.310 . S
C372 C375 1.464 . S
C372 H392 0.932 . S
C373 C371 1.408 . S
C373 C372 1.310 . S
C373 H393 0.930 . S
C374 C375 1.474 . S
C374 C376 1.287 . S
C374 H394 0.925 1_554 S
C375 C372 1.464 . S
C375 C374 1.474 . S
C376 C371 1.342 . S
C376 C374 1.287 . S
C376 H395 0.930 . S
C377 C380 1.424 . S
C377 C382 1.245 . S
C377 C383 1.428 . S
C378 C381 1.260 . S
C378 C382 1.477 . S
C378 H396 0.932 . S
C379 C380 1.384 . S
C379 C381 1.479 . S
C379 H397 0.929 . S
C380 C377 1.424 . S
C380 C379 1.384 . S
C380 H398 0.928 . S
C381 C378 1.260 . S
C381 C379 1.479 . S
C382 C377 1.245 . S
C382 C378 1.477 . S
C382 H399 0.932 . S
C383 U366 2.882 . S
C383 C377 1.428 . S
C383 O386 1.301 . S
C383 O387 1.282 . S
O384 U366 2.441 . S
O384 C370 1.249 . S
O385 U366 2.420 . S
O385 C370 1.202 . S
O386 U366 2.455 . S
O386 C383 1.301 . S
O387 U366 2.449 . S
O387 C383 1.282 . S
H388 C361 0.931 . S
H389 C363 0.929 . S
H390 C364 0.928 1_556 S
H391 C365 0.931 . S
H392 C372 0.932 . S
H393 C373 0.930 . S
H394 C374 0.925 1_556 S
H395 C376 0.930 . S
H396 C378 0.932 . S
H397 C379 0.929 . S
H398 C380 0.928 . S
H399 C382 0.932 . S
C400 C401 1.264 . S
C400 C405 1.479 . S
C400 C410 1.465 . S
C401 C400 1.264 . S
C401 C403 1.339 . S
C401 H428 0.931 . S
C402 C403 1.395 . S
C402 C404 1.320 . S
C403 C401 1.339 . S
C403 C402 1.395 . S
C403 H429 0.929 . S
C404 C402 1.320 . S
C404 C405 1.405 . S
C404 H430 0.930 1_554 S
C405 C400 1.479 . S
C405 C404 1.405 . S
C405 H431 0.931 . S
U406 O407 2.454 . S
U406 O408 2.458 . S
U406 C409 2.984 . S
U406 C410 2.847 . S
U406 C423 2.882 . S
U406 O424 2.441 . S
U406 O425 2.420 . S
U406 O426 2.455 . S
U406 O427 2.449 . S
O407 U406 2.454 . S
O407 C409 1.353 . S
O408 U406 2.458 . S
O408 C409 1.286 . S
C409 U406 2.984 . S
C409 O407 1.353 . S
C409 O408 1.286 . S
C409 C411 1.363 . S
C410 C400 1.465 . S
C410 U406 2.847 . S
C410 O424 1.249 . S
C410 O425 1.202 . S
C411 C409 1.363 . S
C411 C413 1.408 . S
C411 C416 1.342 . S
C412 C413 1.310 . S
C412 C415 1.465 . S
C412 H432 0.932 . S
C413 C411 1.408 . S
C413 C412 1.310 . S
C413 H433 0.930 . S
C414 C415 1.474 . S
C414 C416 1.288 . S
C414 H434 0.925 1_554 S
C415 C412 1.465 . S
C415 C414 1.474 . S
C416 C411 1.342 . S
C416 C414 1.288 . S
C416 H435 0.930 . S
C417 C420 1.424 . S
C417 C422 1.245 . S
C417 C423 1.428 . S
C418 C421 1.260 . S
C418 C422 1.477 . S
C418 H436 0.932 . S
C419 C420 1.384 . S
C419 C421 1.479 . S
C419 H437 0.929 . S
C420 C417 1.424 . S
C420 C419 1.384 . S
C420 H438 0.928 . S
C421 C418 1.260 . S
C421 C419 1.479 . S
C422 C417 1.245 . S
C422 C418 1.477 . S
C422 H439 0.932 . S
C423 U406 2.882 . S
C423 C417 1.428 . S
C423 O426 1.301 . S
C423 O427 1.282 . S
O424 U406 2.441 . S
O424 C410 1.249 . S
O425 U406 2.420 . S
O425 C410 1.202 . S
O426 U406 2.455 . S
O426 C423 1.301 . S
O427 U406 2.449 . S
O427 C423 1.282 . S
H428 C401 0.931 . S
H429 C403 0.929 . S
H430 C404 0.930 1_556 S
H431 C405 0.931 . S
H432 C412 0.932 . S
H433 C413 0.930 . S
H434 C414 0.925 1_556 S
H435 C416 0.930 . S
H436 C418 0.932 . S
H437 C419 0.929 . S
H438 C420 0.928 . S
H439 C422 0.932 . S
C440 C441 1.264 . S
C440 C445 1.479 . S
C440 C450 1.465 . S
C441 C440 1.264 . S
C441 C443 1.339 . S
C441 H468 0.931 . S
C442 C443 1.395 . S
C442 C444 1.320 . S
C443 C441 1.339 . S
C443 C442 1.395 . S
C443 H469 0.929 . S
C444 C442 1.320 . S
C444 C445 1.405 . S
C444 H470 0.929 1_554 S
C445 C440 1.479 . S
C445 C444 1.405 . S
C445 H471 0.931 . S
U446 O447 2.454 . S
U446 O448 2.458 . S
U446 C449 2.984 . S
U446 C450 2.847 . S
U446 C463 2.882 . S
U446 O464 2.441 . S
U446 O465 2.420 . S
U446 O466 2.455 . S
U446 O467 2.449 . S
O447 U446 2.454 . S
O447 C449 1.353 . S
O448 U446 2.458 . S
O448 C449 1.286 . S
C449 U446 2.984 . S
C449 O447 1.353 . S
C449 O448 1.286 . S
C449 C451 1.363 . S
C450 C440 1.465 . S
C450 U446 2.847 . S
C450 O464 1.249 . S
C450 O465 1.202 . S
C451 C449 1.363 . S
C451 C453 1.408 . S
C451 C456 1.342 . S
C452 C453 1.310 . S
C452 C455 1.463 . S
C452 H472 0.932 . S
C453 C451 1.408 . S
C453 C452 1.310 . S
C453 H473 0.930 . S
C454 C455 1.474 . S
C454 C456 1.286 . S
C454 H474 0.929 1_554 S
C455 C452 1.463 . S
C455 C454 1.474 . S
C456 C451 1.342 . S
C456 C454 1.286 . S
C456 H475 0.930 . S
C457 C460 1.424 . S
C457 C462 1.245 . S
C457 C463 1.428 . S
C458 C461 1.260 . S
C458 C462 1.477 . S
C458 H476 0.932 . S
C459 C460 1.384 . S
C459 C461 1.479 . S
C459 H477 0.929 . S
C460 C457 1.424 . S
C460 C459 1.384 . S
C460 H478 0.928 . S
C461 C458 1.260 . S
C461 C459 1.479 . S
C462 C457 1.245 . S
C462 C458 1.477 . S
C462 H479 0.932 . S
C463 U446 2.882 . S
C463 C457 1.428 . S
C463 O466 1.301 . S
C463 O467 1.282 . S
O464 U446 2.441 . S
O464 C450 1.249 . S
O465 U446 2.420 . S
O465 C450 1.202 . S
O466 U446 2.455 . S
O466 C463 1.301 . S
O467 U446 2.449 . S
O467 C463 1.282 . S
H468 C441 0.931 . S
H469 C443 0.929 . S
H470 C444 0.929 1_556 S
H471 C445 0.931 . S
H472 C452 0.932 . S
H473 C453 0.930 . S
H474 C454 0.929 1_556 S
H475 C456 0.930 . S
H476 C458 0.932 . S
H477 C459 0.929 . S
H478 C460 0.928 . S
H479 C462 0.932 . S
C480 C481 1.264 . S
C480 C485 1.479 . S
C480 C490 1.465 . S
C481 C480 1.264 . S
C481 C483 1.339 . S
C481 H508 0.931 . S
C482 C483 1.395 . S
C482 C484 1.320 . S
C483 C481 1.339 . S
C483 C482 1.395 . S
C483 H509 0.929 . S
C484 C482 1.320 . S
C484 C485 1.405 . S
C484 H510 0.930 . S
C485 C480 1.479 . S
C485 C484 1.405 . S
C485 H511 0.931 . S
U486 O487 2.454 . S
U486 O488 2.458 . S
U486 C489 2.984 . S
U486 C490 2.847 . S
U486 C503 2.882 . S
U486 O504 2.441 . S
U486 O505 2.420 . S
U486 O506 2.455 . S
U486 O507 2.449 . S
O487 U486 2.454 . S
O487 C489 1.353 . S
O488 U486 2.458 . S
O488 C489 1.286 . S
C489 U486 2.984 . S
C489 O487 1.353 . S
C489 O488 1.286 . S
C489 C491 1.363 . S
C490 C480 1.465 . S
C490 U486 2.847 . S
C490 O504 1.249 . S
C490 O505 1.202 . S
C491 C489 1.363 . S
C491 C493 1.408 . S
C491 C496 1.342 . S
C492 C493 1.310 . S
C492 C495 1.461 . S
C492 H512 0.932 . S
C493 C491 1.408 . S
C493 C492 1.310 . S
C493 H513 0.930 . S
C494 C495 1.474 . S
C494 C496 1.285 . S
C494 H514 0.929 . S
C495 C492 1.461 . S
C495 C494 1.474 . S
C496 C491 1.342 . S
C496 C494 1.285 . S
C496 H515 0.930 . S
C497 C500 1.424 . S
C497 C502 1.245 . S
C497 C503 1.428 . S
C498 C501 1.260 . S
C498 C502 1.477 . S
C498 H516 0.932 . S
C499 C500 1.384 . S
C499 C501 1.479 . S
C499 H517 0.929 . S
C500 C497 1.424 . S
C500 C499 1.384 . S
C500 H518 0.928 . S
C501 C498 1.260 . S
C501 C499 1.479 . S
C502 C497 1.245 . S
C502 C498 1.477 . S
C502 H519 0.932 . S
C503 U486 2.882 . S
C503 C497 1.428 . S
C503 O506 1.301 . S
C503 O507 1.282 . S
O504 U486 2.441 . S
O504 C490 1.249 . S
O505 U486 2.420 . S
O505 C490 1.202 . S
O506 U486 2.455 . S
O506 C503 1.301 . S
O507 U486 2.449 . S
O507 C503 1.282 . S
H508 C481 0.931 . S
H509 C483 0.929 . S
H510 C484 0.930 . S
H511 C485 0.931 . S
H512 C492 0.932 . S
H513 C493 0.930 . S
H514 C494 0.929 . S
H515 C496 0.930 . S
H516 C498 0.932 . S
H517 C499 0.929 . S
H518 C500 0.928 . S
H519 C502 0.932 . S
C520 C521 1.264 . S
C520 C525 1.479 . S
C520 C530 1.465 . S
C521 C520 1.264 . S
C521 C523 1.339 . S
C521 H548 0.931 . S
C522 C523 1.395 . S
C522 C524 1.320 . S
C523 C521 1.339 . S
C523 C522 1.395 . S
C523 H549 0.929 . S
C524 C522 1.320 . S
C524 C525 1.405 . S
C524 H550 0.930 . S
C525 C520 1.479 . S
C525 C524 1.405 . S
C525 H551 0.931 . S
U526 O527 2.454 . S
U526 O528 2.458 . S
U526 C529 2.984 . S
U526 C530 2.847 . S
U526 C543 2.882 . S
U526 O544 2.441 . S
U526 O545 2.420 . S
U526 O546 2.455 . S
U526 O547 2.449 . S
O527 U526 2.454 . S
O527 C529 1.353 . S
O528 U526 2.458 . S
O528 C529 1.286 . S
C529 U526 2.984 . S
C529 O527 1.353 . S
C529 O528 1.286 . S
C529 C531 1.363 . S
C530 C520 1.465 . S
C530 U526 2.847 . S
C530 O544 1.249 . S
C530 O545 1.202 . S
C531 C529 1.363 . S
C531 C533 1.408 . S
C531 C536 1.342 . S
C532 C533 1.310 . S
C532 C535 1.461 . S
C532 H552 0.932 . S
C533 C531 1.408 . S
C533 C532 1.310 . S
C533 H553 0.930 . S
C534 C535 1.474 . S
C534 C536 1.285 . S
C534 H554 0.929 . S
C535 C532 1.461 . S
C535 C534 1.474 . S
C536 C531 1.342 . S
C536 C534 1.285 . S
C536 H555 0.930 . S
C537 C540 1.424 . S
C537 C542 1.245 . S
C537 C543 1.428 . S
C538 C541 1.260 . S
C538 C542 1.477 . S
C538 H556 0.932 . S
C539 C540 1.384 . S
C539 C541 1.479 . S
C539 H557 0.929 . S
C540 C537 1.424 . S
C540 C539 1.384 . S
C540 H558 0.928 . S
C541 C538 1.260 . S
C541 C539 1.479 . S
C542 C537 1.245 . S
C542 C538 1.477 . S
C542 H559 0.932 . S
C543 U526 2.882 . S
C543 C537 1.428 . S
C543 O546 1.301 . S
C543 O547 1.282 . S
O544 U526 2.441 . S
O544 C530 1.249 . S
O545 U526 2.420 . S
O545 C530 1.202 . S
O546 U526 2.455 . S
O546 C543 1.301 . S
O547 U526 2.449 . S
O547 C543 1.282 . S
H548 C521 0.931 . S
H549 C523 0.929 . S
H550 C524 0.930 . S
H551 C525 0.931 . S
H552 C532 0.932 . S
H553 C533 0.930 . S
H554 C534 0.929 . S
H555 C536 0.930 . S
H556 C538 0.932 . S
H557 C539 0.929 . S
H558 C540 0.928 . S
H559 C542 0.932 . S
C560 C561 1.264 . S
C560 C565 1.479 . S
C560 C570 1.465 . S
C561 C560 1.264 . S
C561 C563 1.339 . S
C561 H588 0.931 . S
C562 C563 1.395 . S
C562 C564 1.320 . S
C563 C561 1.339 . S
C563 C562 1.395 . S
C563 H589 0.929 . S
C564 C562 1.320 . S
C564 C565 1.405 . S
C564 H590 0.930 . S
C565 C560 1.479 . S
C565 C564 1.405 . S
C565 H591 0.931 . S
U566 O567 2.454 . S
U566 O568 2.458 . S
U566 C569 2.984 . S
U566 C570 2.847 . S
U566 C583 2.882 . S
U566 O584 2.441 . S
U566 O585 2.420 . S
U566 O586 2.455 . S
U566 O587 2.449 . S
O567 U566 2.454 . S
O567 C569 1.353 . S
O568 U566 2.458 . S
O568 C569 1.286 . S
C569 U566 2.984 . S
C569 O567 1.353 . S
C569 O568 1.286 . S
C569 C571 1.363 . S
C570 C560 1.465 . S
C570 U566 2.847 . S
C570 O584 1.249 . S
C570 O585 1.202 . S
C571 C569 1.363 . S
C571 C573 1.408 . S
C571 C576 1.342 . S
C572 C573 1.310 . S
C572 C575 1.461 . S
C572 H592 0.932 . S
C573 C571 1.408 . S
C573 C572 1.310 . S
C573 H593 0.930 . S
C574 C575 1.474 . S
C574 C576 1.285 . S
C574 H594 0.929 . S
C575 C572 1.461 . S
C575 C574 1.474 . S
C576 C571 1.342 . S
C576 C574 1.285 . S
C576 H595 0.930 . S
C577 C580 1.424 . S
C577 C582 1.245 . S
C577 C583 1.428 . S
C578 C581 1.260 . S
C578 C582 1.477 . S
C578 H596 0.932 . S
C579 C580 1.384 . S
C579 C581 1.479 . S
C579 H597 0.929 . S
C580 C577 1.424 . S
C580 C579 1.384 . S
C580 H598 0.928 . S
C581 C578 1.260 . S
C581 C579 1.479 . S
C582 C577 1.245 . S
C582 C578 1.477 . S
C582 H599 0.932 . S
C583 U566 2.882 . S
C583 C577 1.428 . S
C583 O586 1.301 . S
C583 O587 1.282 . S
O584 U566 2.441 . S
O584 C570 1.249 . S
O585 U566 2.420 . S
O585 C570 1.202 . S
O586 U566 2.455 . S
O586 C583 1.301 . S
O587 U566 2.449 . S
O587 C583 1.282 . S
H588 C561 0.931 . S
H589 C563 0.929 . S
H590 C564 0.930 . S
H591 C565 0.931 . S
H592 C572 0.932 . S
H593 C573 0.930 . S
H594 C574 0.929 . S
H595 C576 0.930 . S
H596 C578 0.932 . S
H597 C579 0.929 . S
H598 C580 0.928 . S
H599 C582 0.932 . S
C600 C601 1.264 . S
C600 C605 1.479 . S
C600 C610 1.465 . S
C601 C600 1.264 . S
C601 C603 1.339 . S
C601 H628 0.931 . S
C602 C603 1.395 . S
C602 C604 1.320 . S
C603 C601 1.339 . S
C603 C602 1.395 . S
C603 H629 0.929 . S
C604 C602 1.320 . S
C604 C605 1.405 . S
C604 H630 0.930 . S
C605 C600 1.479 . S
C605 C604 1.405 . S
C605 H631 0.931 . S
U606 O607 2.454 . S
U606 O608 2.458 . S
U606 C609 2.984 . S
U606 C610 2.847 . S
U606 C623 2.882 . S
U606 O624 2.441 . S
U606 O625 2.420 . S
U606 O626 2.455 . S
U606 O627 2.449 . S
O607 U606 2.454 . S
O607 C609 1.353 . S
O608 U606 2.458 . S
O608 C609 1.286 . S
C609 U606 2.984 . S
C609 O607 1.353 . S
C609 O608 1.286 . S
C609 C611 1.363 . S
C610 C600 1.465 . S
C610 U606 2.847 . S
C610 O624 1.249 . S
C610 O625 1.202 . S
C611 C609 1.363 . S
C611 C613 1.408 . S
C611 C616 1.342 . S
C612 C613 1.310 . S
C612 C615 1.461 . S
C612 H632 0.932 . S
C613 C611 1.408 . S
C613 C612 1.310 . S
C613 H633 0.930 . S
C614 C615 1.474 . S
C614 C616 1.285 . S
C614 H634 0.929 . S
C615 C612 1.461 . S
C615 C614 1.474 . S
C616 C611 1.342 . S
C616 C614 1.285 . S
C616 H635 0.930 . S
C617 C620 1.424 . S
C617 C622 1.245 . S
C617 C623 1.428 . S
C618 C621 1.260 . S
C618 C622 1.477 . S
C618 H636 0.932 . S
C619 C620 1.384 . S
C619 C621 1.479 . S
C619 H637 0.929 . S
C620 C617 1.424 . S
C620 C619 1.384 . S
C620 H638 0.928 . S
C621 C618 1.260 . S
C621 C619 1.479 . S
C622 C617 1.245 . S
C622 C618 1.477 . S
C622 H639 0.932 . S
C623 U606 2.882 . S
C623 C617 1.428 . S
C623 O626 1.301 . S
C623 O627 1.282 . S
O624 U606 2.441 . S
O624 C610 1.249 . S
O625 U606 2.420 . S
O625 C610 1.202 . S
O626 U606 2.455 . S
O626 C623 1.301 . S
O627 U606 2.449 . S
O627 C623 1.282 . S
H628 C601 0.931 . S
H629 C603 0.929 . S
H630 C604 0.930 . S
H631 C605 0.931 . S
H632 C612 0.932 . S
H633 C613 0.930 . S
H634 C614 0.929 . S
H635 C616 0.930 . S
H636 C618 0.932 . S
H637 C619 0.929 . S
H638 C620 0.928 . S
H639 C622 0.932 . S
C640 C641 1.264 . S
C640 C645 1.479 . S
C640 C650 1.465 . S
C641 C640 1.264 . S
C641 C643 1.339 . S
C641 H668 0.931 . S
C642 C643 1.395 . S
C642 C644 1.320 . S
C643 C641 1.339 . S
C643 C642 1.395 . S
C643 H669 0.929 . S
C644 C642 1.320 . S
C644 C645 1.405 . S
C644 H670 0.930 . S
C645 C640 1.479 . S
C645 C644 1.405 . S
C645 H671 0.931 . S
U646 O647 2.454 . S
U646 O648 2.458 . S
U646 C649 2.984 . S
U646 C650 2.847 . S
U646 C663 2.882 . S
U646 O664 2.441 . S
U646 O665 2.420 . S
U646 O666 2.455 . S
U646 O667 2.449 . S
O647 U646 2.454 . S
O647 C649 1.353 . S
O648 U646 2.458 . S
O648 C649 1.286 . S
C649 U646 2.984 . S
C649 O647 1.353 . S
C649 O648 1.286 . S
C649 C651 1.363 . S
C650 C640 1.465 . S
C650 U646 2.847 . S
C650 O664 1.249 . S
C650 O665 1.202 . S
C651 C649 1.363 . S
C651 C653 1.408 . S
C651 C656 1.342 . S
C652 C653 1.310 . S
C652 C655 1.461 . S
C652 H672 0.932 . S
C653 C651 1.408 . S
C653 C652 1.310 . S
C653 H673 0.930 . S
C654 C655 1.474 . S
C654 C656 1.285 . S
C654 H674 0.929 . S
C655 C652 1.461 . S
C655 C654 1.474 . S
C656 C651 1.342 . S
C656 C654 1.285 . S
C656 H675 0.930 . S
C657 C660 1.424 . S
C657 C662 1.245 . S
C657 C663 1.428 . S
C658 C661 1.260 . S
C658 C662 1.477 . S
C658 H676 0.932 . S
C659 C660 1.384 . S
C659 C661 1.479 . S
C659 H677 0.929 . S
C660 C657 1.424 . S
C660 C659 1.384 . S
C660 H678 0.928 . S
C661 C658 1.260 . S
C661 C659 1.479 . S
C662 C657 1.245 . S
C662 C658 1.477 . S
C662 H679 0.932 . S
C663 U646 2.882 . S
C663 C657 1.428 . S
C663 O666 1.301 . S
C663 O667 1.282 . S
O664 U646 2.441 . S
O664 C650 1.249 . S
O665 U646 2.420 . S
O665 C650 1.202 . S
O666 U646 2.455 . S
O666 C663 1.301 . S
O667 U646 2.449 . S
O667 C663 1.282 . S
H668 C641 0.931 . S
H669 C643 0.929 . S
H670 C644 0.930 . S
H671 C645 0.931 . S
H672 C652 0.932 . S
H673 C653 0.930 . S
H674 C654 0.929 . S
H675 C656 0.930 . S
H676 C658 0.932 . S
H677 C659 0.929 . S
H678 C660 0.928 . S
H679 C662 0.932 . S
C680 C681 1.264 . S
C680 C685 1.479 . S
C680 C690 1.465 . S
C681 C680 1.264 . S
C681 C683 1.339 . S
C681 H708 0.931 . S
C682 C683 1.395 . S
C682 C684 1.320 . S
C683 C681 1.339 . S
C683 C682 1.395 . S
C683 H709 0.929 . S
C684 C682 1.320 . S
C684 C685 1.405 . S
C684 H710 0.930 . S
C685 C680 1.479 . S
C685 C684 1.405 . S
C685 H711 0.931 . S
U686 O687 2.454 . S
U686 O688 2.458 . S
U686 C689 2.984 . S
U686 C690 2.847 . S
U686 C703 2.882 . S
U686 O704 2.441 . S
U686 O705 2.420 . S
U686 O706 2.455 . S
U686 O707 2.449 . S
O687 U686 2.454 . S
O687 C689 1.353 . S
O688 U686 2.458 . S
O688 C689 1.286 . S
C689 U686 2.984 . S
C689 O687 1.353 . S
C689 O688 1.286 . S
C689 C691 1.363 . S
C690 C680 1.465 . S
C690 U686 2.847 . S
C690 O704 1.249 . S
C690 O705 1.202 . S
C691 C689 1.363 . S
C691 C693 1.408 . S
C691 C696 1.342 . S
C692 C693 1.310 . S
C692 C695 1.461 . S
C692 H712 0.932 . S
C693 C691 1.408 . S
C693 C692 1.310 . S
C693 H713 0.930 . S
C694 C695 1.474 . S
C694 C696 1.285 . S
C694 H714 0.929 . S
C695 C692 1.461 . S
C695 C694 1.474 . S
C696 C691 1.342 . S
C696 C694 1.285 . S
C696 H715 0.930 . S
C697 C700 1.424 . S
C697 C702 1.245 . S
C697 C703 1.428 . S
C698 C701 1.260 . S
C698 C702 1.477 . S
C698 H716 0.932 . S
C699 C700 1.384 . S
C699 C701 1.479 . S
C699 H717 0.929 . S
C700 C697 1.424 . S
C700 C699 1.384 . S
C700 H718 0.928 . S
C701 C698 1.260 . S
C701 C699 1.479 . S
C702 C697 1.245 . S
C702 C698 1.477 . S
C702 H719 0.932 . S
C703 U686 2.882 . S
C703 C697 1.428 . S
C703 O706 1.301 . S
C703 O707 1.282 . S
O704 U686 2.441 . S
O704 C690 1.249 . S
O705 U686 2.420 . S
O705 C690 1.202 . S
O706 U686 2.455 . S
O706 C703 1.301 . S
O707 U686 2.449 . S
O707 C703 1.282 . S
H708 C681 0.931 . S
H709 C683 0.929 . S
H710 C684 0.930 . S
H711 C685 0.931 . S
H712 C692 0.932 . S
H713 C693 0.930 . S
H714 C694 0.929 . S
H715 C696 0.930 . S
H716 C698 0.932 . S
H717 C699 0.929 . S
H718 C700 0.928 . S
H719 C702 0.932 . S
C720 C721 1.264 . S
C720 C725 1.479 . S
C720 C730 1.465 . S
C721 C720 1.264 . S
C721 C723 1.339 . S
C721 H748 0.931 . S
C722 C723 1.395 . S
C722 C724 1.320 . S
C723 C721 1.339 . S
C723 C722 1.395 . S
C723 H749 0.929 . S
C724 C722 1.320 . S
C724 C725 1.405 . S
C724 H750 0.930 . S
C725 C720 1.479 . S
C725 C724 1.405 . S
C725 H751 0.931 . S
U726 O727 2.454 . S
U726 O728 2.458 . S
U726 C729 2.984 . S
U726 C730 2.847 . S
U726 C743 2.882 . S
U726 O744 2.441 . S
U726 O745 2.420 . S
U726 O746 2.455 . S
U726 O747 2.449 . S
O727 U726 2.454 . S
O727 C729 1.353 . S
O728 U726 2.458 . S
O728 C729 1.286 . S
C729 U726 2.984 . S
C729 O727 1.353 . S
C729 O728 1.286 . S
C729 C731 1.363 . S
C730 C720 1.465 . S
C730 U726 2.847 . S
C730 O744 1.249 . S
C730 O745 1.202 . S
C731 C729 1.363 . S
C731 C733 1.408 . S
C731 C736 1.342 . S
C732 C733 1.310 . S
C732 C735 1.461 . S
C732 H752 0.932 . S
C733 C731 1.408 . S
C733 C732 1.310 . S
C733 H753 0.930 . S
C734 C735 1.474 . S
C734 C736 1.285 . S
C734 H754 0.929 . S
C735 C732 1.461 . S
C735 C734 1.474 . S
C736 C731 1.342 . S
C736 C734 1.285 . S
C736 H755 0.930 . S
C737 C740 1.424 . S
C737 C742 1.245 . S
C737 C743 1.428 . S
C738 C741 1.260 . S
C738 C742 1.477 . S
C738 H756 0.932 . S
C739 C740 1.384 . S
C739 C741 1.479 . S
C739 H757 0.929 . S
C740 C737 1.424 . S
C740 C739 1.384 . S
C740 H758 0.928 . S
C741 C738 1.260 . S
C741 C739 1.479 . S
C742 C737 1.245 . S
C742 C738 1.477 . S
C742 H759 0.932 . S
C743 U726 2.882 . S
C743 C737 1.428 . S
C743 O746 1.301 . S
C743 O747 1.282 . S
O744 U726 2.441 . S
O744 C730 1.249 . S
O745 U726 2.420 . S
O745 C730 1.202 . S
O746 U726 2.455 . S
O746 C743 1.301 . S
O747 U726 2.449 . S
O747 C743 1.282 . S
H748 C721 0.931 . S
H749 C723 0.929 . S
H750 C724 0.930 . S
H751 C725 0.931 . S
H752 C732 0.932 . S
H753 C733 0.930 . S
H754 C734 0.929 . S
H755 C736 0.930 . S
H756 C738 0.932 . S
H757 C739 0.929 . S
H758 C740 0.928 . S
H759 C742 0.932 . S
C760 C761 1.264 . S
C760 C765 1.479 . S
C760 C770 1.465 . S
C761 C760 1.264 . S
C761 C763 1.339 . S
C761 H788 0.931 . S
C762 C763 1.395 . S
C762 C764 1.320 . S
C763 C761 1.339 . S
C763 C762 1.395 . S
C763 H789 0.929 . S
C764 C762 1.320 . S
C764 C765 1.405 . S
C764 H790 0.930 . S
C765 C760 1.479 . S
C765 C764 1.405 . S
C765 H791 0.931 . S
U766 O767 2.454 . S
U766 O768 2.458 . S
U766 C769 2.984 . S
U766 C770 2.847 . S
U766 C783 2.882 . S
U766 O784 2.441 . S
U766 O785 2.420 . S
U766 O786 2.455 . S
U766 O787 2.449 . S
O767 U766 2.454 . S
O767 C769 1.353 . S
O768 U766 2.458 . S
O768 C769 1.286 . S
C769 U766 2.984 . S
C769 O767 1.353 . S
C769 O768 1.286 . S
C769 C771 1.363 . S
C770 C760 1.465 . S
C770 U766 2.847 . S
C770 O784 1.249 . S
C770 O785 1.202 . S
C771 C769 1.363 . S
C771 C773 1.408 . S
C771 C776 1.342 . S
C772 C773 1.310 . S
C772 C775 1.461 . S
C772 H792 0.932 . S
C773 C771 1.408 . S
C773 C772 1.310 . S
C773 H793 0.930 . S
C774 C775 1.474 . S
C774 C776 1.285 . S
C774 H794 0.929 . S
C775 C772 1.461 . S
C775 C774 1.474 . S
C776 C771 1.342 . S
C776 C774 1.285 . S
C776 H795 0.930 . S
C777 C780 1.424 . S
C777 C782 1.245 . S
C777 C783 1.428 . S
C778 C781 1.260 . S
C778 C782 1.477 . S
C778 H796 0.932 . S
C779 C780 1.384 . S
C779 C781 1.479 . S
C779 H797 0.929 . S
C780 C777 1.424 . S
C780 C779 1.384 . S
C780 H798 0.928 . S
C781 C778 1.260 . S
C781 C779 1.479 . S
C782 C777 1.245 . S
C782 C778 1.477 . S
C782 H799 0.932 . S
C783 U766 2.882 . S
C783 C777 1.428 . S
C783 O786 1.301 . S
C783 O787 1.282 . S
O784 U766 2.441 . S
O784 C770 1.249 . S
O785 U766 2.420 . S
O785 C770 1.202 . S
O786 U766 2.455 . S
O786 C783 1.301 . S
O787 U766 2.449 . S
O787 C783 1.282 . S
H788 C761 0.931 . S
H789 C763 0.929 . S
H790 C764 0.930 . S
H791 C765 0.931 . S
H792 C772 0.932 . S
H793 C773 0.930 . S
H794 C774 0.929 . S
H795 C776 0.930 . S
H796 C778 0.932 . S
H797 C779 0.929 . S
H798 C780 0.928 . S
H799 C782 0.932 . S
C800 C801 1.264 . S
C800 C805 1.479 . S
C800 C810 1.465 . S
C801 C800 1.264 . S
C801 C803 1.339 . S
C801 H828 0.931 . S
C802 C803 1.395 . S
C802 C804 1.320 . S
C803 C801 1.339 . S
C803 C802 1.395 . S
C803 H829 0.929 . S
C804 C802 1.320 . S
C804 C805 1.405 . S
C804 H830 0.930 . S
C805 C800 1.479 . S
C805 C804 1.405 . S
C805 H831 0.931 . S
U806 O807 2.454 . S
U806 O808 2.458 . S
U806 C809 2.984 . S
U806 C810 2.847 . S
U806 C823 2.882 . S
U806 O824 2.441 . S
U806 O825 2.420 . S
U806 O826 2.455 . S
U806 O827 2.449 . S
O807 U806 2.454 . S
O807 C809 1.353 . S
O808 U806 2.458 . S
O808 C809 1.286 . S
C809 U806 2.984 . S
C809 O807 1.353 . S
C809 O808 1.286 . S
C809 C811 1.363 . S
C810 C800 1.465 . S
C810 U806 2.847 . S
C810 O824 1.249 . S
C810 O825 1.202 . S
C811 C809 1.363 . S
C811 C813 1.408 . S
C811 C816 1.342 . S
C812 C813 1.310 . S
C812 C815 1.461 . S
C812 H832 0.932 . S
C813 C811 1.408 . S
C813 C812 1.310 . S
C813 H833 0.930 . S
C814 C815 1.474 . S
C814 C816 1.285 . S
C814 H834 0.929 . S
C815 C812 1.461 . S
C815 C814 1.474 . S
C816 C811 1.342 . S
C816 C814 1.285 . S
C816 H835 0.930 . S
C817 C820 1.424 . S
C817 C822 1.245 . S
C817 C823 1.428 . S
C818 C821 1.260 . S
C818 C822 1.477 . S
C818 H836 0.932 . S
C819 C820 1.384 . S
C819 C821 1.479 . S
C819 H837 0.929 . S
C820 C817 1.424 . S
C820 C819 1.384 . S
C820 H838 0.928 . S
C821 C818 1.260 . S
C821 C819 1.479 . S
C822 C817 1.245 . S
C822 C818 1.477 . S
C822 H839 0.932 . S
C823 U806 2.882 . S
C823 C817 1.428 . S
C823 O826 1.301 . S
C823 O827 1.282 . S
O824 U806 2.441 . S
O824 C810 1.249 . S
O825 U806 2.420 . S
O825 C810 1.202 . S
O826 U806 2.455 . S
O826 C823 1.301 . S
O827 U806 2.449 . S
O827 C823 1.282 . S
H828 C801 0.931 . S
H829 C803 0.929 . S
H830 C804 0.930 . S
H831 C805 0.931 . S
H832 C812 0.932 . S
H833 C813 0.930 . S
H834 C814 0.929 . S
H835 C816 0.930 . S
H836 C818 0.932 . S
H837 C819 0.929 . S
H838 C820 0.928 . S
H839 C822 0.932 . S
C840 C841 1.264 . S
C840 C845 1.479 . S
C840 C850 1.465 . S
C841 C840 1.264 . S
C841 C843 1.339 . S
C841 H868 0.931 . S
C842 C843 1.395 . S
C842 C844 1.320 . S
C843 C841 1.339 . S
C843 C842 1.395 . S
C843 H869 0.929 . S
C844 C842 1.320 . S
C844 C845 1.405 . S
C844 H870 0.930 . S
C845 C840 1.479 . S
C845 C844 1.405 . S
C845 H871 0.931 . S
U846 O847 2.454 . S
U846 O848 2.458 . S
U846 C849 2.984 . S
U846 C850 2.847 . S
U846 C863 2.882 . S
U846 O864 2.441 . S
U846 O865 2.420 . S
U846 O866 2.455 . S
U846 O867 2.449 . S
O847 U846 2.454 . S
O847 C849 1.353 . S
O848 U846 2.458 . S
O848 C849 1.286 . S
C849 U846 2.984 . S
C849 O847 1.353 . S
C849 O848 1.286 . S
C849 C851 1.363 . S
C850 C840 1.465 . S
C850 U846 2.847 . S
C850 O864 1.249 . S
C850 O865 1.202 . S
C851 C849 1.363 . S
C851 C853 1.408 . S
C851 C856 1.342 . S
C852 C853 1.310 . S
C852 C855 1.461 . S
C852 H872 0.932 . S
C853 C851 1.408 . S
C853 C852 1.310 . S
C853 H873 0.930 . S
C854 C855 1.474 . S
C854 C856 1.285 . S
C854 H874 0.929 . S
C855 C852 1.461 . S
C855 C854 1.474 . S
C856 C851 1.342 . S
C856 C854 1.285 . S
C856 H875 0.930 . S
C857 C860 1.424 . S
C857 C862 1.245 . S
C857 C863 1.428 . S
C858 C861 1.260 . S
C858 C862 1.477 . S
C858 H876 0.932 . S
C859 C860 1.384 . S
C859 C861 1.479 . S
C859 H877 0.929 . S
C860 C857 1.424 . S
C860 C859 1.384 . S
C860 H878 0.928 . S
C861 C858 1.260 . S
C861 C859 1.479 . S
C862 C857 1.245 . S
C862 C858 1.477 . S
C862 H879 0.932 . S
C863 U846 2.882 . S
C863 C857 1.428 . S
C863 O866 1.301 . S
C863 O867 1.282 . S
O864 U846 2.441 . S
O864 C850 1.249 . S
O865 U846 2.420 . S
O865 C850 1.202 . S
O866 U846 2.455 . S
O866 C863 1.301 . S
O867 U846 2.449 . S
O867 C863 1.282 . S
H868 C841 0.931 . S
H869 C843 0.929 . S
H870 C844 0.930 . S
H871 C845 0.931 . S
H872 C852 0.932 . S
H873 C853 0.930 . S
H874 C854 0.929 . S
H875 C856 0.930 . S
H876 C858 0.932 . S
H877 C859 0.929 . S
H878 C860 0.928 . S
H879 C862 0.932 . S
C880 C881 1.264 . S
C880 C885 1.479 . S
C880 C890 1.465 . S
C881 C880 1.264 . S
C881 C883 1.339 . S
C881 H908 0.931 . S
C882 C883 1.395 . S
C882 C884 1.320 . S
C883 C881 1.339 . S
C883 C882 1.395 . S
C883 H909 0.929 . S
C884 C882 1.320 . S
C884 C885 1.405 . S
C884 H910 0.930 . S
C885 C880 1.479 . S
C885 C884 1.405 . S
C885 H911 0.931 . S
U886 O887 2.454 . S
U886 O888 2.458 . S
U886 C889 2.984 . S
U886 C890 2.847 . S
U886 C903 2.882 . S
U886 O904 2.441 . S
U886 O905 2.420 . S
U886 O906 2.455 . S
U886 O907 2.449 . S
O887 U886 2.454 . S
O887 C889 1.353 . S
O888 U886 2.458 . S
O888 C889 1.286 . S
C889 U886 2.984 . S
C889 O887 1.353 . S
C889 O888 1.286 . S
C889 C891 1.363 . S
C890 C880 1.465 . S
C890 U886 2.847 . S
C890 O904 1.249 . S
C890 O905 1.202 . S
C891 C889 1.363 . S
C891 C893 1.408 . S
C891 C896 1.342 . S
C892 C893 1.310 . S
C892 C895 1.461 . S
C892 H912 0.932 . S
C893 C891 1.408 . S
C893 C892 1.310 . S
C893 H913 0.930 . S
C894 C895 1.474 . S
C894 C896 1.285 . S
C894 H914 0.929 . S
C895 C892 1.461 . S
C895 C894 1.474 . S
C896 C891 1.342 . S
C896 C894 1.285 . S
C896 H915 0.930 . S
C897 C900 1.424 . S
C897 C902 1.245 . S
C897 C903 1.428 . S
C898 C901 1.260 . S
C898 C902 1.477 . S
C898 H916 0.932 . S
C899 C900 1.384 . S
C899 C901 1.479 . S
C899 H917 0.929 . S
C900 C897 1.424 . S
C900 C899 1.384 . S
C900 H918 0.928 . S
C901 C898 1.260 . S
C901 C899 1.479 . S
C902 C897 1.245 . S
C902 C898 1.477 . S
C902 H919 0.932 . S
C903 U886 2.882 . S
C903 C897 1.428 . S
C903 O906 1.301 . S
C903 O907 1.282 . S
O904 U886 2.441 . S
O904 C890 1.249 . S
O905 U886 2.420 . S
O905 C890 1.202 . S
O906 U886 2.455 . S
O906 C903 1.301 . S
O907 U886 2.449 . S
O907 C903 1.282 . S
H908 C881 0.931 . S
H909 C883 0.929 . S
H910 C884 0.930 . S
H911 C885 0.931 . S
H912 C892 0.932 . S
H913 C893 0.930 . S
H914 C894 0.929 . S
H915 C896 0.930 . S
H916 C898 0.932 . S
H917 C899 0.929 . S
H918 C900 0.928 . S
H919 C902 0.932 . S
C920 C921 1.264 . S
C920 C925 1.479 . S
C920 C930 1.465 . S
C921 C920 1.264 . S
C921 C923 1.339 . S
C921 H948 0.931 . S
C922 C923 1.395 . S
C922 C924 1.320 . S
C923 C921 1.339 . S
C923 C922 1.395 . S
C923 H949 0.929 . S
C924 C922 1.320 . S
C924 C925 1.405 . S
C924 H950 0.930 . S
C925 C920 1.479 . S
C925 C924 1.405 . S
C925 H951 0.931 . S
U926 O927 2.454 . S
U926 O928 2.458 . S
U926 C929 2.984 . S
U926 C930 2.847 . S
U926 C943 2.882 . S
U926 O944 2.441 . S
U926 O945 2.420 . S
U926 O946 2.455 . S
U926 O947 2.449 . S
O927 U926 2.454 . S
O927 C929 1.353 . S
O928 U926 2.458 . S
O928 C929 1.286 . S
C929 U926 2.984 . S
C929 O927 1.353 . S
C929 O928 1.286 . S
C929 C931 1.363 . S
C930 C920 1.465 . S
C930 U926 2.847 . S
C930 O944 1.249 . S
C930 O945 1.202 . S
C931 C929 1.363 . S
C931 C933 1.408 . S
C931 C936 1.342 . S
C932 C933 1.310 . S
C932 C935 1.461 . S
C932 H952 0.932 . S
C933 C931 1.408 . S
C933 C932 1.310 . S
C933 H953 0.930 . S
C934 C935 1.474 . S
C934 C936 1.285 . S
C934 H954 0.929 . S
C935 C932 1.461 . S
C935 C934 1.474 . S
C936 C931 1.342 . S
C936 C934 1.285 . S
C936 H955 0.930 . S
C937 C940 1.424 . S
C937 C942 1.245 . S
C937 C943 1.428 . S
C938 C941 1.260 . S
C938 C942 1.477 . S
C938 H956 0.932 . S
C939 C940 1.384 . S
C939 C941 1.479 . S
C939 H957 0.929 . S
C940 C937 1.424 . S
C940 C939 1.384 . S
C940 H958 0.928 . S
C941 C938 1.260 . S
C941 C939 1.479 . S
C942 C937 1.245 . S
C942 C938 1.477 . S
C942 H959 0.932 . S
C943 U926 2.882 . S
C943 C937 1.428 . S
C943 O946 1.301 . S
C943 O947 1.282 . S
O944 U926 2.441 . S
O944 C930 1.249 . S
O945 U926 2.420 . S
O945 C930 1.202 . S
O946 U926 2.455 . S
O946 C943 1.301 . S
O947 U926 2.449 . S
O947 C943 1.282 . S
H948 C921 0.931 . S
H949 C923 0.929 . S
H950 C924 0.930 . S
H951 C925 0.931 . S
H952 C932 0.932 . S
H953 C933 0.930 . S
H954 C934 0.929 . S
H955 C936 0.930 . S
H956 C938 0.932 . S
H957 C939 0.929 . S
H958 C940 0.928 . S
H959 C942 0.932 . S
C960 O986 1.283 . S
C960 O1004 1.283 . S
C961 O987 1.283 . S
C961 O1002 1.283 . S
C962 O988 1.283 . S
C962 O1005 1.283 . S
C963 O989 1.283 . S
C963 O1003 1.283 . S
C964 O990 1.283 . S
C964 O999 1.283 . S
C965 O991 1.283 . S
C965 O1001 1.283 . S
C966 O992 1.283 . S
C966 O998 1.283 . S
C967 O993 1.283 . S
C967 O1000 1.283 . S
C968 O994 1.283 . S
C968 O1009 1.283 . S
C969 O995 1.283 . S
C969 O1007 1.283 . S
C970 O996 1.283 . S
C970 O1008 1.283 . S
C971 O997 1.283 . S
C971 O1006 1.283 . S
Eu972 O973 2.370 1_455 S
Eu972 O974 2.370 . S
Eu972 O977 2.370 1_455 S
Eu972 O978 2.370 . S
Eu972 O986 2.363 . S
Eu972 O987 2.363 . S
Eu972 O1000 2.363 . S
Eu972 O1001 2.363 1_455 S
O973 Eu972 2.370 1_655 S
O973 Eu975 2.359 1_565 S
O973 Eu980 2.360 1_665 S
O974 Eu972 2.370 . S
O974 Eu976 2.360 1_565 S
O974 Eu979 2.360 1_565 S
Eu975 O973 2.359 1_545 S
Eu975 O977 2.359 1_545 S
Eu975 O981 2.381 . S
Eu975 O982 2.381 . S
Eu975 O990 2.381 . S
Eu975 O991 2.345 1_545 S
Eu975 O1006 2.363 . S
Eu975 O1007 2.363 . S
Eu976 O974 2.360 1_545 S
Eu976 O978 2.360 1_545 S
Eu976 O983 2.380 . S
Eu976 O984 2.380 . S
Eu976 O992 2.379 . S
Eu976 O993 2.347 1_545 S
Eu976 O1008 2.363 . S
Eu976 O1009 2.363 . S
O977 Eu972 2.370 1_655 S
O977 Eu975 2.359 1_565 S
O977 Eu979 2.360 1_665 S
O978 Eu972 2.370 . S
O978 Eu976 2.360 1_565 S
O978 Eu980 2.360 1_565 S
Eu979 O974 2.360 1_545 S
Eu979 O977 2.360 1_445 S
Eu979 O981 2.381 1_455 S
Eu979 O984 2.381 . S
Eu979 O996 2.363 . S
Eu979 O997 2.363 1_455 S
Eu979 O1004 2.345 1_545 S
Eu979 O1005 2.381 . S
Eu980 O973 2.360 1_445 S
Eu980 O978 2.360 1_545 S
Eu980 O982 2.380 1_455 S
Eu980 O983 2.380 . S
Eu980 O994 2.363 . S
Eu980 O995 2.363 1_455 S
Eu980 O1002 2.346 1_545 S
Eu980 O1003 2.380 . S
O981 Eu975 2.381 . S
O981 Eu979 2.381 1_655 S
O981 Eu985 2.370 1_655 S
O982 Eu975 2.381 . S
O982 Eu980 2.380 1_655 S
O982 Eu985 2.370 1_655 S
O983 Eu976 2.380 . S
O983 Eu980 2.380 . S
O983 Eu985 2.370 . S
O984 Eu976 2.380 . S
O984 Eu979 2.381 . S
O984 Eu985 2.370 . S
Eu985 O981 2.370 1_455 S
Eu985 O982 2.370 1_455 S
Eu985 O983 2.370 . S
Eu985 O984 2.370 . S
Eu985 O988 2.363 . S
Eu985 O989 2.363 . S
Eu985 O998 2.363 . S
Eu985 O999 2.363 1_455 S
O986 C960 1.283 . S
O986 Eu972 2.363 . S
O987 C961 1.283 . S
O987 Eu972 2.363 . S
O988 C962 1.283 . S
O988 Eu985 2.363 . S
O989 C963 1.283 . S
O989 Eu985 2.363 . S
O990 C964 1.283 . S
O990 Eu975 2.381 . S
O991 C965 1.283 . S
O991 Eu975 2.345 1_565 S
O992 C966 1.283 . S
O992 Eu976 2.379 . S
O993 C967 1.283 . S
O993 Eu976 2.347 1_565 S
O994 C968 1.283 . S
O994 Eu980 2.363 . S
O995 C969 1.283 . S
O995 Eu980 2.363 1_655 S
O996 C970 1.283 . S
O996 Eu979 2.363 . S
O997 C971 1.283 . S
O997 Eu979 2.363 1_655 S
O998 C966 1.283 . S
O998 Eu985 2.363 . S
O999 C964 1.283 . S
O999 Eu985 2.363 1_655 S
O1000 C967 1.283 . S
O1000 Eu972 2.363 . S
O1001 C965 1.283 . S
O1001 Eu972 2.363 1_655 S
O1002 C961 1.283 . S
O1002 Eu980 2.346 1_565 S
O1003 C963 1.283 . S
O1003 Eu980 2.380 . S
O1004 C960 1.283 . S
O1004 Eu979 2.345 1_565 S
O1005 C962 1.283 . S
O1005 Eu979 2.381 . S
O1006 C971 1.283 . S
O1006 Eu975 2.363 . S
O1007 C969 1.283 . S
O1007 Eu975 2.363 . S
O1008 C970 1.283 . S
O1008 Eu976 2.363 . S
O1009 C968 1.283 . S
O1009 Eu976 2.363 . S
C1010 O1036 1.283 . S
C1010 O1054 1.283 . S
C1011 O1037 1.283 . S
C1011 O1052 1.283 . S
C1012 O1038 1.283 . S
C1012 O1055 1.283 . S
C1013 O1039 1.283 . S
C1013 O1053 1.283 . S
C1014 O1040 1.283 . S
C1014 O1049 1.283 . S
C1015 O1041 1.283 . S
C1015 O1051 1.283 . S
C1016 O1042 1.283 . S
C1016 O1048 1.283 . S
C1017 O1043 1.283 . S
C1017 O1050 1.283 . S
C1018 O1044 1.283 . S
C1018 O1059 1.283 . S
C1019 O1045 1.283 . S
C1019 O1057 1.283 . S
C1020 O1046 1.283 . S
C1020 O1058 1.283 . S
C1021 O1047 1.283 . S
C1021 O1056 1.283 . S
Eu1022 O1023 2.388 . S
Eu1022 O1024 2.352 1_545 S
Eu1022 O1027 2.352 1_545 S
Eu1022 O1028 2.388 . S
Eu1022 O1036 2.332 1_545 S
Eu1022 O1037 2.394 . S
Eu1022 O1050 2.363 . S
Eu1022 O1051 2.363 . S
O1023 Eu1022 2.388 . S
O1023 Eu1025 2.398 . S
O1023 Eu1030 2.380 . S
O1024 Eu1022 2.352 1_565 S
O1024 Eu1026 2.360 1_565 S
O1024 Eu1029 2.378 . S
Eu1025 O1023 2.398 . S
Eu1025 O1027 2.359 1_545 S
Eu1025 O1031 2.342 1_544 S
Eu1025 O1032 2.382 1_554 S
Eu1025 O1040 2.349 1_554 S
Eu1025 O1041 2.377 . S
Eu1025 O1056 2.330 1_545 S
Eu1025 O1057 2.396 . S
Eu1026 O1024 2.360 1_545 S
Eu1026 O1028 2.398 . S
Eu1026 O1033 2.381 1_554 S
Eu1026 O1034 2.343 1_544 S
Eu1026 O1042 2.348 1_554 S
Eu1026 O1043 2.378 . S
Eu1026 O1058 2.331 1_545 S
Eu1026 O1059 2.395 . S
O1027 Eu1022 2.352 1_565 S
O1027 Eu1025 2.359 1_565 S
O1027 Eu1029 2.378 . S
O1028 Eu1022 2.388 . S
O1028 Eu1026 2.398 . S
O1028 Eu1030 2.380 . S
Eu1029 O1024 2.378 . S
Eu1029 O1027 2.378 . S
Eu1029 O1031 2.363 1_554 S
Eu1029 O1034 2.363 1_554 S
Eu1029 O1046 2.363 . S
Eu1029 O1047 2.363 . S
Eu1029 O1054 2.375 . S
Eu1029 O1055 2.350 1_554 S
Eu1030 O1023 2.380 . S
Eu1030 O1028 2.380 . S
Eu1030 O1032 2.361 1_554 S
Eu1030 O1033 2.361 1_554 S
Eu1030 O1044 2.363 . S
Eu1030 O1045 2.363 . S
Eu1030 O1052 2.379 . S
Eu1030 O1053 2.347 1_554 S
O1031 Eu1025 2.342 1_566 S
O1031 Eu1029 2.363 1_556 S
O1031 Eu1035 2.350 1_565 S
O1032 Eu1025 2.382 1_556 S
O1032 Eu1030 2.361 1_556 S
O1032 Eu1035 2.391 . S
O1033 Eu1026 2.381 1_556 S
O1033 Eu1030 2.361 1_556 S
O1033 Eu1035 2.391 . S
O1034 Eu1026 2.343 1_566 S
O1034 Eu1029 2.363 1_556 S
O1034 Eu1035 2.350 1_565 S
Eu1035 O1031 2.350 1_545 S
Eu1035 O1032 2.391 . S
Eu1035 O1033 2.391 . S
Eu1035 O1034 2.350 1_545 S
Eu1035 O1038 2.329 1_545 S
Eu1035 O1039 2.397 . S
Eu1035 O1048 2.363 . S
Eu1035 O1049 2.363 . S
O1036 C1010 1.283 . S
O1036 Eu1022 2.332 1_565 S
O1037 C1011 1.283 . S
O1037 Eu1022 2.394 . S
O1038 C1012 1.283 . S
O1038 Eu1035 2.329 1_565 S
O1039 C1013 1.283 . S
O1039 Eu1035 2.397 . S
O1040 C1014 1.283 . S
O1040 Eu1025 2.349 1_556 S
O1041 C1015 1.283 . S
O1041 Eu1025 2.377 . S
O1042 C1016 1.283 . S
O1042 Eu1026 2.348 1_556 S
O1043 C1017 1.283 . S
O1043 Eu1026 2.378 . S
O1044 C1018 1.283 . S
O1044 Eu1030 2.363 . S
O1045 C1019 1.283 . S
O1045 Eu1030 2.363 . S
O1046 C1020 1.283 . S
O1046 Eu1029 2.363 . S
O1047 C1021 1.283 . S
O1047 Eu1029 2.363 . S
O1048 C1016 1.283 . S
O1048 Eu1035 2.363 . S
O1049 C1014 1.283 . S
O1049 Eu1035 2.363 . S
O1050 C1017 1.283 . S
O1050 Eu1022 2.363 . S
O1051 C1015 1.283 . S
O1051 Eu1022 2.363 . S
O1052 C1011 1.283 . S
O1052 Eu1030 2.379 . S
O1053 C1013 1.283 . S
O1053 Eu1030 2.347 1_556 S
O1054 C1010 1.283 . S
O1054 Eu1029 2.375 . S
O1055 C1012 1.283 . S
O1055 Eu1029 2.350 1_556 S
O1056 C1021 1.283 . S
O1056 Eu1025 2.330 1_565 S
O1057 C1019 1.283 . S
O1057 Eu1025 2.396 . S
O1058 C1020 1.283 . S
O1058 Eu1026 2.331 1_565 S
O1059 C1018 1.283 . S
O1059 Eu1026 2.395 . S
C1060 O1086 1.283 . S
C1060 O1104 1.283 . S
C1061 O1087 1.283 . S
C1061 O1102 1.283 . S
C1062 O1088 1.283 . S
C1062 O1105 1.283 . S
C1063 O1089 1.283 . S
C1063 O1103 1.283 . S
C1064 O1090 1.283 . S
C1064 O1099 1.283 . S
C1065 O1091 1.283 . S
C1065 O1101 1.283 . S
C1066 O1092 1.283 . S
C1066 O1098 1.283 . S
C1067 O1093 1.283 . S
C1067 O1100 1.283 . S
C1068 O1094 1.283 . S
C1068 O1109 1.283 . S
C1069 O1095 1.283 . S
C1069 O1107 1.283 . S
C1070 O1096 1.283 . S
C1070 O1108 1.283 . S
C1071 O1097 1.283 . S
C1071 O1106 1.283 . S
Eu1072 O1073 2.320 1_454 S
Eu1072 O1074 2.421 . S
Eu1072 O1077 2.372 1_455 S
Eu1072 O1078 2.370 1_554 S
Eu1072 O1086 2.407 . S
Eu1072 O1087 2.320 1_554 S
Eu1072 O1100 2.405 . S
Eu1072 O1101 2.321 1_455 S
O1073 Eu1072 2.320 1_656 S
O1073 Eu1075 2.346 1_556 S
O1073 Eu1080 2.345 1_655 S
O1074 Eu1072 2.421 . S
O1074 Eu1076 2.396 . S
O1074 Eu1079 2.394 . S
Eu1075 O1073 2.346 1_554 S
Eu1075 O1077 2.395 . S
Eu1075 O1081 2.395 . S
Eu1075 O1082 2.346 1_554 S
Eu1075 O1090 2.363 . S
Eu1075 O1091 2.363 . S
Eu1075 O1106 2.405 . S
Eu1075 O1107 2.321 1_554 S
Eu1076 O1074 2.396 . S
Eu1076 O1078 2.344 1_554 S
Eu1076 O1083 2.344 1_554 S
Eu1076 O1084 2.396 . S
Eu1076 O1092 2.363 . S
Eu1076 O1093 2.363 . S
Eu1076 O1108 2.407 . S
Eu1076 O1109 2.319 1_554 S
O1077 Eu1072 2.372 1_655 S
O1077 Eu1075 2.395 . S
O1077 Eu1079 2.346 1_655 S
O1078 Eu1072 2.370 1_556 S
O1078 Eu1076 2.344 1_556 S
O1078 Eu1080 2.396 . S
Eu1079 O1074 2.394 . S
Eu1079 O1077 2.346 1_455 S
Eu1079 O1081 2.346 1_455 S
Eu1079 O1084 2.394 . S
Eu1079 O1096 2.404 . S
Eu1079 O1097 2.322 1_455 S
Eu1079 O1104 2.363 . S
Eu1079 O1105 2.363 . S
Eu1080 O1073 2.345 1_455 S
Eu1080 O1078 2.396 . S
Eu1080 O1082 2.345 1_455 S
Eu1080 O1083 2.396 . S
Eu1080 O1094 2.405 . S
Eu1080 O1095 2.321 1_455 S
Eu1080 O1102 2.363 . S
Eu1080 O1103 2.363 . S
O1081 Eu1075 2.395 . S
O1081 Eu1079 2.346 1_655 S
O1081 Eu1085 2.372 1_655 S
O1082 Eu1075 2.346 1_556 S
O1082 Eu1080 2.345 1_655 S
O1082 Eu1085 2.321 1_656 S
O1083 Eu1076 2.344 1_556 S
O1083 Eu1080 2.396 . S
O1083 Eu1085 2.370 1_556 S
O1084 Eu1076 2.396 . S
O1084 Eu1079 2.394 . S
O1084 Eu1085 2.420 . S
Eu1085 O1081 2.372 1_455 S
Eu1085 O1082 2.321 1_454 S
Eu1085 O1083 2.370 1_554 S
Eu1085 O1084 2.420 . S
Eu1085 O1088 2.405 . S
Eu1085 O1089 2.321 1_554 S
Eu1085 O1098 2.404 . S
Eu1085 O1099 2.322 1_455 S
O1086 C1060 1.283 . S
O1086 Eu1072 2.407 . S
O1087 C1061 1.283 . S
O1087 Eu1072 2.320 1_556 S
O1088 C1062 1.283 . S
O1088 Eu1085 2.405 . S
O1089 C1063 1.283 . S
O1089 Eu1085 2.321 1_556 S
O1090 C1064 1.283 . S
O1090 Eu1075 2.363 . S
O1091 C1065 1.283 . S
O1091 Eu1075 2.363 . S
O1092 C1066 1.283 . S
O1092 Eu1076 2.363 . S
O1093 C1067 1.283 . S
O1093 Eu1076 2.363 . S
O1094 C1068 1.283 . S
O1094 Eu1080 2.405 . S
O1095 C1069 1.283 . S
O1095 Eu1080 2.321 1_655 S
O1096 C1070 1.283 . S
O1096 Eu1079 2.404 . S
O1097 C1071 1.283 . S
O1097 Eu1079 2.322 1_655 S
O1098 C1066 1.283 . S
O1098 Eu1085 2.404 . S
O1099 C1064 1.283 . S
O1099 Eu1085 2.322 1_655 S
O1100 C1067 1.283 . S
O1100 Eu1072 2.405 . S
O1101 C1065 1.283 . S
O1101 Eu1072 2.321 1_655 S
O1102 C1061 1.283 . S
O1102 Eu1080 2.363 . S
O1103 C1063 1.283 . S
O1103 Eu1080 2.363 . S
O1104 C1060 1.283 . S
O1104 Eu1079 2.363 . S
O1105 C1062 1.283 . S
O1105 Eu1079 2.363 . S
O1106 C1071 1.283 . S
O1106 Eu1075 2.405 . S
O1107 C1069 1.283 . S
O1107 Eu1075 2.321 1_556 S
O1108 C1070 1.283 . S
O1108 Eu1076 2.407 . S
O1109 C1068 1.283 . S
O1109 Eu1076 2.319 1_556 S
C1110 O1136 1.283 . S
C1110 O1154 1.283 . S
C1111 O1137 1.283 . S
C1111 O1152 1.283 . S
C1112 O1138 1.283 . S
C1112 O1155 1.283 . S
C1113 O1139 1.283 . S
C1113 O1153 1.283 . S
C1114 O1140 1.283 . S
C1114 O1149 1.283 . S
C1115 O1141 1.283 . S
C1115 O1151 1.283 . S
C1116 O1142 1.283 . S
C1116 O1148 1.283 . S
C1117 O1143 1.283 . S
C1117 O1150 1.283 . S
C1118 O1144 1.283 . S
C1118 O1159 1.283 . S
C1119 O1145 1.283 . S
C1119 O1157 1.283 . S
C1120 O1146 1.283 . S
C1120 O1158 1.283 . S
C1121 O1147 1.283 . S
C1121 O1156 1.283 . S
Eu1122 O1123 2.370 . S
Eu1122 O1124 2.370 . S
Eu1122 O1127 2.370 . S
Eu1122 O1128 2.370 . S
Eu1122 O1136 2.363 . S
Eu1122 O1137 2.363 . S
Eu1122 O1150 2.363 . S
Eu1122 O1151 2.363 . S
O1123 Eu1122 2.370 . S
O1123 Eu1125 2.386 . S
O1123 Eu1130 2.386 . S
O1124 Eu1122 2.370 . S
O1124 Eu1126 2.387 . S
O1124 Eu1129 2.387 . S
Eu1125 O1123 2.386 . S
Eu1125 O1127 2.386 . S
Eu1125 O1131 2.354 1_554 S
Eu1125 O1132 2.354 1_554 S
Eu1125 O1140 2.336 1_554 S
Eu1125 O1141 2.390 . S
Eu1125 O1156 2.363 . S
Eu1125 O1157 2.363 . S
Eu1126 O1124 2.387 . S
Eu1126 O1128 2.387 . S
Eu1126 O1133 2.354 1_554 S
Eu1126 O1134 2.354 1_554 S
Eu1126 O1142 2.335 1_554 S
Eu1126 O1143 2.391 . S
Eu1126 O1158 2.363 . S
Eu1126 O1159 2.363 . S
O1127 Eu1122 2.370 . S
O1127 Eu1125 2.386 . S
O1127 Eu1129 2.387 . S
O1128 Eu1122 2.370 . S
O1128 Eu1126 2.387 . S
O1128 Eu1130 2.386 . S
Eu1129 O1124 2.387 . S
Eu1129 O1127 2.387 . S
Eu1129 O1131 2.354 1_554 S
Eu1129 O1134 2.354 1_554 S
Eu1129 O1146 2.363 . S
Eu1129 O1147 2.363 . S
Eu1129 O1154 2.391 . S
Eu1129 O1155 2.335 1_554 S
Eu1130 O1123 2.386 . S
Eu1130 O1128 2.386 . S
Eu1130 O1132 2.354 1_554 S
Eu1130 O1133 2.354 1_554 S
Eu1130 O1144 2.363 . S
Eu1130 O1145 2.363 . S
Eu1130 O1152 2.390 . S
Eu1130 O1153 2.336 1_554 S
O1131 Eu1125 2.354 1_556 S
O1131 Eu1129 2.354 1_556 S
O1131 Eu1135 2.370 . S
O1132 Eu1125 2.354 1_556 S
O1132 Eu1130 2.354 1_556 S
O1132 Eu1135 2.370 . S
O1133 Eu1126 2.354 1_556 S
O1133 Eu1130 2.354 1_556 S
O1133 Eu1135 2.370 . S
O1134 Eu1126 2.354 1_556 S
O1134 Eu1129 2.354 1_556 S
O1134 Eu1135 2.370 . S
Eu1135 O1131 2.370 . S
Eu1135 O1132 2.370 . S
Eu1135 O1133 2.370 . S
Eu1135 O1134 2.370 . S
Eu1135 O1138 2.363 . S
Eu1135 O1139 2.363 . S
Eu1135 O1148 2.363 . S
Eu1135 O1149 2.363 . S
O1136 C1110 1.283 . S
O1136 Eu1122 2.363 . S
O1137 C1111 1.283 . S
O1137 Eu1122 2.363 . S
O1138 C1112 1.283 . S
O1138 Eu1135 2.363 . S
O1139 C1113 1.283 . S
O1139 Eu1135 2.363 . S
O1140 C1114 1.283 . S
O1140 Eu1125 2.336 1_556 S
O1141 C1115 1.283 . S
O1141 Eu1125 2.390 . S
O1142 C1116 1.283 . S
O1142 Eu1126 2.335 1_556 S
O1143 C1117 1.283 . S
O1143 Eu1126 2.391 . S
O1144 C1118 1.283 . S
O1144 Eu1130 2.363 . S
O1145 C1119 1.283 . S
O1145 Eu1130 2.363 . S
O1146 C1120 1.283 . S
O1146 Eu1129 2.363 . S
O1147 C1121 1.283 . S
O1147 Eu1129 2.363 . S
O1148 C1116 1.283 . S
O1148 Eu1135 2.363 . S
O1149 C1114 1.283 . S
O1149 Eu1135 2.363 . S
O1150 C1117 1.283 . S
O1150 Eu1122 2.363 . S
O1151 C1115 1.283 . S
O1151 Eu1122 2.363 . S
O1152 C1111 1.283 . S
O1152 Eu1130 2.390 . S
O1153 C1113 1.283 . S
O1153 Eu1130 2.336 1_556 S
O1154 C1110 1.283 . S
O1154 Eu1129 2.391 . S
O1155 C1112 1.283 . S
O1155 Eu1129 2.335 1_556 S
O1156 C1121 1.283 . S
O1156 Eu1125 2.363 . S
O1157 C1119 1.283 . S
O1157 Eu1125 2.363 . S
O1158 C1120 1.283 . S
O1158 Eu1126 2.363 . S
O1159 C1118 1.283 . S
O1159 Eu1126 2.363 . S
C1160 O1186 1.283 . S
C1160 O1204 1.283 . S
C1161 O1187 1.283 . S
C1161 O1202 1.283 . S
C1162 O1188 1.283 . S
C1162 O1205 1.283 . S
C1163 O1189 1.283 . S
C1163 O1203 1.283 . S
C1164 O1190 1.283 . S
C1164 O1199 1.283 . S
C1165 O1191 1.283 . S
C1165 O1201 1.283 . S
C1166 O1192 1.283 . S
C1166 O1198 1.283 . S
C1167 O1193 1.283 . S
C1167 O1200 1.283 . S
C1168 O1194 1.283 . S
C1168 O1209 1.283 . S
C1169 O1195 1.283 . S
C1169 O1207 1.283 . S
C1170 O1196 1.283 . S
C1170 O1208 1.283 . S
C1171 O1197 1.283 . S
C1171 O1206 1.283 . S
Eu1172 O1173 2.339 1_455 S
Eu1172 O1174 2.402 . S
Eu1172 O1177 2.339 1_455 S
Eu1172 O1178 2.402 . S
Eu1172 O1186 2.363 . S
Eu1172 O1187 2.363 . S
Eu1172 O1200 2.417 . S
Eu1172 O1201 2.309 1_455 S
O1173 Eu1172 2.339 1_655 S
O1173 Eu1175 2.370 . S
O1173 Eu1180 2.339 1_655 S
O1174 Eu1172 2.402 . S
O1174 Eu1176 2.370 . S
O1174 Eu1179 2.402 . S
Eu1175 O1173 2.370 . S
Eu1175 O1177 2.370 . S
Eu1175 O1181 2.370 . S
Eu1175 O1182 2.370 . S
Eu1175 O1190 2.363 . S
Eu1175 O1191 2.363 . S
Eu1175 O1206 2.363 . S
Eu1175 O1207 2.363 . S
Eu1176 O1174 2.370 . S
Eu1176 O1178 2.370 . S
Eu1176 O1183 2.370 . S
Eu1176 O1184 2.370 . S
Eu1176 O1192 2.363 . S
Eu1176 O1193 2.363 . S
Eu1176 O1208 2.363 . S
Eu1176 O1209 2.363 . S
O1177 Eu1172 2.339 1_655 S
O1177 Eu1175 2.370 . S
O1177 Eu1179 2.339 1_655 S
O1178 Eu1172 2.402 . S
O1178 Eu1176 2.370 . S
O1178 Eu1180 2.402 . S
Eu1179 O1174 2.402 . S
Eu1179 O1177 2.339 1_455 S
Eu1179 O1181 2.339 1_455 S
Eu1179 O1184 2.402 . S
Eu1179 O1196 2.417 . S
Eu1179 O1197 2.309 1_455 S
Eu1179 O1204 2.363 . S
Eu1179 O1205 2.363 . S
Eu1180 O1173 2.339 1_455 S
Eu1180 O1178 2.402 . S
Eu1180 O1182 2.339 1_455 S
Eu1180 O1183 2.402 . S
Eu1180 O1194 2.416 . S
Eu1180 O1195 2.310 1_455 S
Eu1180 O1202 2.363 . S
Eu1180 O1203 2.363 . S
O1181 Eu1175 2.370 . S
O1181 Eu1179 2.339 1_655 S
O1181 Eu1185 2.339 1_655 S
O1182 Eu1175 2.370 . S
O1182 Eu1180 2.339 1_655 S
O1182 Eu1185 2.339 1_655 S
O1183 Eu1176 2.370 . S
O1183 Eu1180 2.402 . S
O1183 Eu1185 2.402 . S
O1184 Eu1176 2.370 . S
O1184 Eu1179 2.402 . S
O1184 Eu1185 2.402 . S
Eu1185 O1181 2.339 1_455 S
Eu1185 O1182 2.339 1_455 S
Eu1185 O1183 2.402 . S
Eu1185 O1184 2.402 . S
Eu1185 O1188 2.363 . S
Eu1185 O1189 2.363 . S
Eu1185 O1198 2.416 . S
Eu1185 O1199 2.310 1_455 S
O1186 C1160 1.283 . S
O1186 Eu1172 2.363 . S
O1187 C1161 1.283 . S
O1187 Eu1172 2.363 . S
O1188 C1162 1.283 . S
O1188 Eu1185 2.363 . S
O1189 C1163 1.283 . S
O1189 Eu1185 2.363 . S
O1190 C1164 1.283 . S
O1190 Eu1175 2.363 . S
O1191 C1165 1.283 . S
O1191 Eu1175 2.363 . S
O1192 C1166 1.283 . S
O1192 Eu1176 2.363 . S
O1193 C1167 1.283 . S
O1193 Eu1176 2.363 . S
O1194 C1168 1.283 . S
O1194 Eu1180 2.416 . S
O1195 C1169 1.283 . S
O1195 Eu1180 2.310 1_655 S
O1196 C1170 1.283 . S
O1196 Eu1179 2.417 . S
O1197 C1171 1.283 . S
O1197 Eu1179 2.309 1_655 S
O1198 C1166 1.283 . S
O1198 Eu1185 2.416 . S
O1199 C1164 1.283 . S
O1199 Eu1185 2.310 1_655 S
O1200 C1167 1.283 . S
O1200 Eu1172 2.417 . S
O1201 C1165 1.283 . S
O1201 Eu1172 2.309 1_655 S
O1202 C1161 1.283 . S
O1202 Eu1180 2.363 . S
O1203 C1163 1.283 . S
O1203 Eu1180 2.363 . S
O1204 C1160 1.283 . S
O1204 Eu1179 2.363 . S
O1205 C1162 1.283 . S
O1205 Eu1179 2.363 . S
O1206 C1171 1.283 . S
O1206 Eu1175 2.363 . S
O1207 C1169 1.283 . S
O1207 Eu1175 2.363 . S
O1208 C1170 1.283 . S
O1208 Eu1176 2.363 . S
O1209 C1168 1.283 . S
O1209 Eu1176 2.363 . S
C1210 O1236 1.283 . S
C1210 O1254 1.283 . S
C1211 O1237 1.283 . S
C1211 O1252 1.283 . S
C1212 O1238 1.283 . S
C1212 O1255 1.283 . S
C1213 O1239 1.283 . S
C1213 O1253 1.283 . S
C1214 O1240 1.283 . S
C1214 O1249 1.283 . S
C1215 O1241 1.283 . S
C1215 O1251 1.283 . S
C1216 O1242 1.283 . S
C1216 O1248 1.283 . S
C1217 O1243 1.283 . S
C1217 O1250 1.283 . S
C1218 O1244 1.283 . S
C1218 O1259 1.283 . S
C1219 O1245 1.283 . S
C1219 O1257 1.283 . S
C1220 O1246 1.283 . S
C1220 O1258 1.283 . S
C1221 O1247 1.283 . S
C1221 O1256 1.283 . S
Eu1222 O1223 2.370 . S
Eu1222 O1224 2.370 . S
Eu1222 O1227 2.370 . S
Eu1222 O1228 2.370 . S
Eu1222 O1236 2.363 . S
Eu1222 O1237 2.363 . S
Eu1222 O1250 2.363 . S
Eu1222 O1251 2.363 . S
O1223 Eu1222 2.370 . S
O1223 Eu1225 2.349 1_565 S
O1223 Eu1230 2.349 1_565 S
O1224 Eu1222 2.370 . S
O1224 Eu1226 2.349 1_565 S
O1224 Eu1229 2.349 1_565 S
Eu1225 O1223 2.349 1_545 S
Eu1225 O1227 2.349 1_545 S
Eu1225 O1231 2.392 . S
Eu1225 O1232 2.392 . S
Eu1225 O1240 2.399 . S
Eu1225 O1241 2.327 1_545 S
Eu1225 O1256 2.363 . S
Eu1225 O1257 2.363 . S
Eu1226 O1224 2.349 1_545 S
Eu1226 O1228 2.349 1_545 S
Eu1226 O1233 2.392 . S
Eu1226 O1234 2.392 . S
Eu1226 O1242 2.400 . S
Eu1226 O1243 2.326 1_545 S
Eu1226 O1258 2.363 . S
Eu1226 O1259 2.363 . S
O1227 Eu1222 2.370 . S
O1227 Eu1225 2.349 1_565 S
O1227 Eu1229 2.349 1_565 S
O1228 Eu1222 2.370 . S
O1228 Eu1226 2.349 1_565 S
O1228 Eu1230 2.349 1_565 S
Eu1229 O1224 2.349 1_545 S
Eu1229 O1227 2.349 1_545 S
Eu1229 O1231 2.392 . S
Eu1229 O1234 2.392 . S
Eu1229 O1246 2.363 . S
Eu1229 O1247 2.363 . S
Eu1229 O1254 2.326 1_545 S
Eu1229 O1255 2.400 . S
Eu1230 O1223 2.349 1_545 S
Eu1230 O1228 2.349 1_545 S
Eu1230 O1232 2.392 . S
Eu1230 O1233 2.392 . S
Eu1230 O1244 2.363 . S
Eu1230 O1245 2.363 . S
Eu1230 O1252 2.327 1_545 S
Eu1230 O1253 2.399 . S
O1231 Eu1225 2.392 . S
O1231 Eu1229 2.392 . S
O1231 Eu1235 2.370 . S
O1232 Eu1225 2.392 . S
O1232 Eu1230 2.392 . S
O1232 Eu1235 2.370 . S
O1233 Eu1226 2.392 . S
O1233 Eu1230 2.392 . S
O1233 Eu1235 2.370 . S
O1234 Eu1226 2.392 . S
O1234 Eu1229 2.392 . S
O1234 Eu1235 2.370 . S
Eu1235 O1231 2.370 . S
Eu1235 O1232 2.370 . S
Eu1235 O1233 2.370 . S
Eu1235 O1234 2.370 . S
Eu1235 O1238 2.363 . S
Eu1235 O1239 2.363 . S
Eu1235 O1248 2.363 . S
Eu1235 O1249 2.363 . S
O1236 C1210 1.283 . S
O1236 Eu1222 2.363 . S
O1237 C1211 1.283 . S
O1237 Eu1222 2.363 . S
O1238 C1212 1.283 . S
O1238 Eu1235 2.363 . S
O1239 C1213 1.283 . S
O1239 Eu1235 2.363 . S
O1240 C1214 1.283 . S
O1240 Eu1225 2.399 . S
O1241 C1215 1.283 . S
O1241 Eu1225 2.327 1_565 S
O1242 C1216 1.283 . S
O1242 Eu1226 2.400 . S
O1243 C1217 1.283 . S
O1243 Eu1226 2.326 1_565 S
O1244 C1218 1.283 . S
O1244 Eu1230 2.363 . S
O1245 C1219 1.283 . S
O1245 Eu1230 2.363 . S
O1246 C1220 1.283 . S
O1246 Eu1229 2.363 . S
O1247 C1221 1.283 . S
O1247 Eu1229 2.363 . S
O1248 C1216 1.283 . S
O1248 Eu1235 2.363 . S
O1249 C1214 1.283 . S
O1249 Eu1235 2.363 . S
O1250 C1217 1.283 . S
O1250 Eu1222 2.363 . S
O1251 C1215 1.283 . S
O1251 Eu1222 2.363 . S
O1252 C1211 1.283 . S
O1252 Eu1230 2.327 1_565 S
O1253 C1213 1.283 . S
O1253 Eu1230 2.399 . S
O1254 C1210 1.283 . S
O1254 Eu1229 2.326 1_565 S
O1255 C1212 1.283 . S
O1255 Eu1229 2.400 . S
O1256 C1221 1.283 . S
O1256 Eu1225 2.363 . S
O1257 C1219 1.283 . S
O1257 Eu1225 2.363 . S
O1258 C1220 1.283 . S
O1258 Eu1226 2.363 . S
O1259 C1218 1.283 . S
O1259 Eu1226 2.363 . S
H1260 C1268 0.929 . S
H1261 C1270 0.930 . S
H1262 C1272 0.930 . S
H1263 C1275 0.929 . S
H1264 C1278 0.930 . S
H1265 C1280 0.960 . S
H1266 C1280 0.960 . S
H1267 C1280 0.960 . S
C1268 H1260 0.929 . S
C1268 C1269 1.377 . S
C1268 C1270 1.384 . S
C1269 C1268 1.377 . S
C1269 C1275 1.390 . S
C1270 H1261 0.930 . S
C1270 C1268 1.384 . S
C1270 C1271 1.372 . S
C1271 C1270 1.372 . S
C1271 C1272 1.400 . S
C1271 C1276 1.490 . S
C1272 H1262 0.930 . S
C1272 C1271 1.400 . S
C1272 C1275 1.386 . S
H1273 C1289 0.930 . S
H1274 C1290 0.931 . S
C1275 H1263 0.929 . S
C1275 C1269 1.390 . S
C1275 C1272 1.386 . S
C1276 C1271 1.490 . S
C1276 C1278 1.395 . S
C1276 C1279 1.403 . S
H1277 C1283 0.930 . S
C1278 H1264 0.930 . S
C1278 C1276 1.395 . S
C1278 C1281 1.403 . S
C1279 C1276 1.403 . S
C1279 C1280 1.524 . S
C1279 C1283 1.400 . S
C1280 H1265 0.960 . S
C1280 H1266 0.960 . S
C1280 H1267 0.960 . S
C1280 C1279 1.524 . S
C1281 C1278 1.403 . S
C1281 C1282 1.392 . S
C1281 C1285 1.495 . S
C1282 C1281 1.392 . S
C1282 C1283 1.385 . S
C1282 C1284 1.478 . S
C1283 H1277 0.930 . S
C1283 C1279 1.400 . S
C1283 C1282 1.385 . S
C1284 C1282 1.478 . S
C1284 C1286 1.381 . S
C1284 C1290 1.383 . S
C1285 C1281 1.495 . S
C1285 H1291 0.959 . S
C1285 H1292 0.961 . S
C1285 H1293 0.960 . S
C1286 C1284 1.381 . S
C1286 C1287 1.394 . S
C1286 H1294 0.930 . S
C1287 C1286 1.394 . S
C1287 C1288 1.383 . S
C1287 H1295 0.929 . S
C1288 C1287 1.383 . S
C1288 C1289 1.377 . S
C1289 H1273 0.930 . S
C1289 C1288 1.377 . S
C1289 C1290 1.379 . S
C1290 H1274 0.931 . S
C1290 C1284 1.383 . S
C1290 C1289 1.379 . S
H1291 C1285 0.959 . S
H1292 C1285 0.961 . S
H1293 C1285 0.960 . S
H1294 C1286 0.930 . S
H1295 C1287 0.929 . S
H1296 C1304 0.929 . S
H1297 C1306 0.930 . S
H1298 C1308 0.930 . S
H1299 C1311 0.929 . S
H1300 C1314 0.930 . S
H1301 C1316 0.960 . S
H1302 C1316 0.960 . S
H1303 C1316 0.960 . S
C1304 H1296 0.929 . S
C1304 C1305 1.377 . S
C1304 C1306 1.384 . S
C1305 C1304 1.377 . S
C1305 C1311 1.390 . S
C1306 H1297 0.930 . S
C1306 C1304 1.384 . S
C1306 C1307 1.372 . S
C1307 C1306 1.372 . S
C1307 C1308 1.400 . S
C1307 C1312 1.490 . S
C1308 H1298 0.930 . S
C1308 C1307 1.400 . S
C1308 C1311 1.386 . S
H1309 C1325 0.930 . S
H1310 C1326 0.931 . S
C1311 H1299 0.929 . S
C1311 C1305 1.390 . S
C1311 C1308 1.386 . S
C1312 C1307 1.490 . S
C1312 C1314 1.395 . S
C1312 C1315 1.403 . S
H1313 C1319 0.930 . S
C1314 H1300 0.930 . S
C1314 C1312 1.395 . S
C1314 C1317 1.403 . S
C1315 C1312 1.403 . S
C1315 C1316 1.524 . S
C1315 C1319 1.400 . S
C1316 H1301 0.960 . S
C1316 H1302 0.960 . S
C1316 H1303 0.960 . S
C1316 C1315 1.524 . S
C1317 C1314 1.403 . S
C1317 C1318 1.392 . S
C1317 C1321 1.495 . S
C1318 C1317 1.392 . S
C1318 C1319 1.385 . S
C1318 C1320 1.478 . S
C1319 H1313 0.930 . S
C1319 C1315 1.400 . S
C1319 C1318 1.385 . S
C1320 C1318 1.478 . S
C1320 C1322 1.381 . S
C1320 C1326 1.383 . S
C1321 C1317 1.495 . S
C1321 H1327 0.959 . S
C1321 H1328 0.961 . S
C1321 H1329 0.960 . S
C1322 C1320 1.381 . S
C1322 C1323 1.394 . S
C1322 H1330 0.930 . S
C1323 C1322 1.394 . S
C1323 C1324 1.383 . S
C1323 H1331 0.929 . S
C1324 C1323 1.383 . S
C1324 C1325 1.377 . S
C1325 H1309 0.930 . S
C1325 C1324 1.377 . S
C1325 C1326 1.379 . S
C1326 H1310 0.931 . S
C1326 C1320 1.383 . S
C1326 C1325 1.379 . S
H1327 C1321 0.959 . S
H1328 C1321 0.961 . S
H1329 C1321 0.960 . S
H1330 C1322 0.930 . S
H1331 C1323 0.929 . S
H1332 C1340 0.929 . S
H1333 C1342 0.930 . S
H1334 C1344 0.930 . S
H1335 C1347 0.929 . S
H1336 C1350 0.930 . S
H1337 C1352 0.960 . S
H1338 C1352 0.960 . S
H1339 C1352 0.960 . S
C1340 H1332 0.929 . S
C1340 C1341 1.377 . S
C1340 C1342 1.384 . S
C1341 C1340 1.377 . S
C1341 C1347 1.390 . S
C1342 H1333 0.930 . S
C1342 C1340 1.384 . S
C1342 C1343 1.372 . S
C1343 C1342 1.372 . S
C1343 C1344 1.400 . S
C1343 C1348 1.490 . S
C1344 H1334 0.930 . S
C1344 C1343 1.400 . S
C1344 C1347 1.386 . S
H1345 C1361 0.930 . S
H1346 C1362 0.931 . S
C1347 H1335 0.929 . S
C1347 C1341 1.390 . S
C1347 C1344 1.386 . S
C1348 C1343 1.490 . S
C1348 C1350 1.395 . S
C1348 C1351 1.403 . S
H1349 C1355 0.930 . S
C1350 H1336 0.930 . S
C1350 C1348 1.395 . S
C1350 C1353 1.403 . S
C1351 C1348 1.403 . S
C1351 C1352 1.524 . S
C1351 C1355 1.400 . S
C1352 H1337 0.960 . S
C1352 H1338 0.960 . S
C1352 H1339 0.960 . S
C1352 C1351 1.524 . S
C1353 C1350 1.403 . S
C1353 C1354 1.392 . S
C1353 C1357 1.495 . S
C1354 C1353 1.392 . S
C1354 C1355 1.385 . S
C1354 C1356 1.478 . S
C1355 H1349 0.930 . S
C1355 C1351 1.400 . S
C1355 C1354 1.385 . S
C1356 C1354 1.478 . S
C1356 C1358 1.381 . S
C1356 C1362 1.383 . S
C1357 C1353 1.495 . S
C1357 H1363 0.959 . S
C1357 H1364 0.961 . S
C1357 H1365 0.960 . S
C1358 C1356 1.381 . S
C1358 C1359 1.394 . S
C1358 H1366 0.930 . S
C1359 C1358 1.394 . S
C1359 C1360 1.383 . S
C1359 H1367 0.929 . S
C1360 C1359 1.383 . S
C1360 C1361 1.377 . S
C1361 H1345 0.930 . S
C1361 C1360 1.377 . S
C1361 C1362 1.379 . S
C1362 H1346 0.931 . S
C1362 C1356 1.383 . S
C1362 C1361 1.379 . S
H1363 C1357 0.959 . S
H1364 C1357 0.961 . S
H1365 C1357 0.960 . S
H1366 C1358 0.930 . S
H1367 C1359 0.929 . S
H1368 C1376 0.929 . S
H1369 C1378 0.930 . S
H1370 C1380 0.930 . S
H1371 C1383 0.929 . S
H1372 C1386 0.930 . S
H1373 C1388 0.960 . S
H1374 C1388 0.960 . S
H1375 C1388 0.960 . S
C1376 H1368 0.929 . S
C1376 C1377 1.377 . S
C1376 C1378 1.384 . S
C1377 C1376 1.377 . S
C1377 C1383 1.390 . S
C1378 H1369 0.930 . S
C1378 C1376 1.384 . S
C1378 C1379 1.372 . S
C1379 C1378 1.372 . S
C1379 C1380 1.400 . S
C1379 C1384 1.490 . S
C1380 H1370 0.930 . S
C1380 C1379 1.400 . S
C1380 C1383 1.386 . S
H1381 C1397 0.930 . S
H1382 C1398 0.931 . S
C1383 H1371 0.929 . S
C1383 C1377 1.390 . S
C1383 C1380 1.386 . S
C1384 C1379 1.490 . S
C1384 C1386 1.395 . S
C1384 C1387 1.403 . S
H1385 C1391 0.930 . S
C1386 H1372 0.930 . S
C1386 C1384 1.395 . S
C1386 C1389 1.403 . S
C1387 C1384 1.403 . S
C1387 C1388 1.524 . S
C1387 C1391 1.400 . S
C1388 H1373 0.960 . S
C1388 H1374 0.960 . S
C1388 H1375 0.960 . S
C1388 C1387 1.524 . S
C1389 C1386 1.403 . S
C1389 C1390 1.392 . S
C1389 C1393 1.495 . S
C1390 C1389 1.392 . S
C1390 C1391 1.385 . S
C1390 C1392 1.478 . S
C1391 H1385 0.930 . S
C1391 C1387 1.400 . S
C1391 C1390 1.385 . S
C1392 C1390 1.478 . S
C1392 C1394 1.381 . S
C1392 C1398 1.383 . S
C1393 C1389 1.495 . S
C1393 H1399 0.959 . S
C1393 H1400 0.961 . S
C1393 H1401 0.960 . S
C1394 C1392 1.381 . S
C1394 C1395 1.394 . S
C1394 H1402 0.930 . S
C1395 C1394 1.394 . S
C1395 C1396 1.383 . S
C1395 H1403 0.929 . S
C1396 C1395 1.383 . S
C1396 C1397 1.377 . S
C1397 H1381 0.930 . S
C1397 C1396 1.377 . S
C1397 C1398 1.379 . S
C1398 H1382 0.931 . S
C1398 C1392 1.383 . S
C1398 C1397 1.379 . S
H1399 C1393 0.959 . S
H1400 C1393 0.961 . S
H1401 C1393 0.960 . S
H1402 C1394 0.930 . S
H1403 C1395 0.929 . S
H1404 C1412 0.929 . S
H1405 C1414 0.930 . S
H1406 C1416 0.930 . S
H1407 C1419 0.929 . S
H1408 C1422 0.930 . S
H1409 C1424 0.960 . S
H1410 C1424 0.960 . S
H1411 C1424 0.960 . S
C1412 H1404 0.929 . S
C1412 C1413 1.377 . S
C1412 C1414 1.384 . S
C1413 C1412 1.377 . S
C1413 C1419 1.390 . S
C1414 H1405 0.930 . S
C1414 C1412 1.384 . S
C1414 C1415 1.372 . S
C1415 C1414 1.372 . S
C1415 C1416 1.400 . S
C1415 C1420 1.490 . S
C1416 H1406 0.930 . S
C1416 C1415 1.400 . S
C1416 C1419 1.386 . S
H1417 C1433 0.930 . S
H1418 C1434 0.931 . S
C1419 H1407 0.929 . S
C1419 C1413 1.390 . S
C1419 C1416 1.386 . S
C1420 C1415 1.490 . S
C1420 C1422 1.395 . S
C1420 C1423 1.403 . S
H1421 C1427 0.930 . S
C1422 H1408 0.930 . S
C1422 C1420 1.395 . S
C1422 C1425 1.403 . S
C1423 C1420 1.403 . S
C1423 C1424 1.524 . S
C1423 C1427 1.400 . S
C1424 H1409 0.960 . S
C1424 H1410 0.960 . S
C1424 H1411 0.960 . S
C1424 C1423 1.524 . S
C1425 C1422 1.403 . S
C1425 C1426 1.392 . S
C1425 C1429 1.495 . S
C1426 C1425 1.392 . S
C1426 C1427 1.385 . S
C1426 C1428 1.478 . S
C1427 H1421 0.930 . S
C1427 C1423 1.400 . S
C1427 C1426 1.385 . S
C1428 C1426 1.478 . S
C1428 C1430 1.381 . S
C1428 C1434 1.383 . S
C1429 C1425 1.495 . S
C1429 H1435 0.959 . S
C1429 H1436 0.961 . S
C1429 H1437 0.960 . S
C1430 C1428 1.381 . S
C1430 C1431 1.394 . S
C1430 H1438 0.930 . S
C1431 C1430 1.394 . S
C1431 C1432 1.383 . S
C1431 H1439 0.929 . S
C1432 C1431 1.383 . S
C1432 C1433 1.377 . S
C1433 H1417 0.930 . S
C1433 C1432 1.377 . S
C1433 C1434 1.379 . S
C1434 H1418 0.931 . S
C1434 C1428 1.383 . S
C1434 C1433 1.379 . S
H1435 C1429 0.959 . S
H1436 C1429 0.961 . S
H1437 C1429 0.960 . S
H1438 C1430 0.930 . S
H1439 C1431 0.929 . S
H1440 C1448 0.929 . S
H1441 C1450 0.930 . S
H1442 C1452 0.930 . S
H1443 C1455 0.929 . S
H1444 C1458 0.930 . S
H1445 C1460 0.960 . S
H1446 C1460 0.960 . S
H1447 C1460 0.960 . S
C1448 H1440 0.929 . S
C1448 C1449 1.377 . S
C1448 C1450 1.384 . S
C1449 C1448 1.377 . S
C1449 C1455 1.390 . S
C1450 H1441 0.930 . S
C1450 C1448 1.384 . S
C1450 C1451 1.372 . S
C1451 C1450 1.372 . S
C1451 C1452 1.400 . S
C1451 C1456 1.490 . S
C1452 H1442 0.930 . S
C1452 C1451 1.400 . S
C1452 C1455 1.386 . S
H1453 C1469 0.930 . S
H1454 C1470 0.931 . S
C1455 H1443 0.929 . S
C1455 C1449 1.390 . S
C1455 C1452 1.386 . S
C1456 C1451 1.490 . S
C1456 C1458 1.395 . S
C1456 C1459 1.403 . S
H1457 C1463 0.930 . S
C1458 H1444 0.930 . S
C1458 C1456 1.395 . S
C1458 C1461 1.403 . S
C1459 C1456 1.403 . S
C1459 C1460 1.524 . S
C1459 C1463 1.400 . S
C1460 H1445 0.960 . S
C1460 H1446 0.960 . S
C1460 H1447 0.960 . S
C1460 C1459 1.524 . S
C1461 C1458 1.403 . S
C1461 C1462 1.392 . S
C1461 C1465 1.495 . S
C1462 C1461 1.392 . S
C1462 C1463 1.385 . S
C1462 C1464 1.478 . S
C1463 H1457 0.930 . S
C1463 C1459 1.400 . S
C1463 C1462 1.385 . S
C1464 C1462 1.478 . S
C1464 C1466 1.381 . S
C1464 C1470 1.383 . S
C1465 C1461 1.495 . S
C1465 H1471 0.959 . S
C1465 H1472 0.961 . S
C1465 H1473 0.960 . S
C1466 C1464 1.381 . S
C1466 C1467 1.394 . S
C1466 H1474 0.930 . S
C1467 C1466 1.394 . S
C1467 C1468 1.383 . S
C1467 H1475 0.929 . S
C1468 C1467 1.383 . S
C1468 C1469 1.377 . S
C1469 H1453 0.930 . S
C1469 C1468 1.377 . S
C1469 C1470 1.379 . S
C1470 H1454 0.931 . S
C1470 C1464 1.383 . S
C1470 C1469 1.379 . S
H1471 C1465 0.959 . S
H1472 C1465 0.961 . S
H1473 C1465 0.960 . S
H1474 C1466 0.930 . S
H1475 C1467 0.929 . S
H1476 C1484 0.929 . S
H1477 C1486 0.930 . S
H1478 C1488 0.930 . S
H1479 C1491 0.929 . S
H1480 C1494 0.930 . S
H1481 C1496 0.960 . S
H1482 C1496 0.960 . S
H1483 C1496 0.960 . S
C1484 H1476 0.929 . S
C1484 C1485 1.377 . S
C1484 C1486 1.384 . S
C1485 C1484 1.377 . S
C1485 C1491 1.390 . S
C1486 H1477 0.930 . S
C1486 C1484 1.384 . S
C1486 C1487 1.372 . S
C1487 C1486 1.372 . S
C1487 C1488 1.400 . S
C1487 C1492 1.490 . S
C1488 H1478 0.930 . S
C1488 C1487 1.400 . S
C1488 C1491 1.386 . S
H1489 C1505 0.930 . S
H1490 C1506 0.931 . S
C1491 H1479 0.929 . S
C1491 C1485 1.390 . S
C1491 C1488 1.386 . S
C1492 C1487 1.490 . S
C1492 C1494 1.395 . S
C1492 C1495 1.403 . S
H1493 C1499 0.930 . S
C1494 H1480 0.930 . S
C1494 C1492 1.395 . S
C1494 C1497 1.403 . S
C1495 C1492 1.403 . S
C1495 C1496 1.524 . S
C1495 C1499 1.400 . S
C1496 H1481 0.960 . S
C1496 H1482 0.960 . S
C1496 H1483 0.960 . S
C1496 C1495 1.524 . S
C1497 C1494 1.403 . S
C1497 C1498 1.392 . S
C1497 C1501 1.495 . S
C1498 C1497 1.392 . S
C1498 C1499 1.385 . S
C1498 C1500 1.478 . S
C1499 H1493 0.930 . S
C1499 C1495 1.400 . S
C1499 C1498 1.385 . S
C1500 C1498 1.478 . S
C1500 C1502 1.381 . S
C1500 C1506 1.383 . S
C1501 C1497 1.495 . S
C1501 H1507 0.959 . S
C1501 H1508 0.961 . S
C1501 H1509 0.960 . S
C1502 C1500 1.381 . S
C1502 C1503 1.394 . S
C1502 H1510 0.930 . S
C1503 C1502 1.394 . S
C1503 C1504 1.383 . S
C1503 H1511 0.929 . S
C1504 C1503 1.383 . S
C1504 C1505 1.377 . S
C1505 H1489 0.930 . S
C1505 C1504 1.377 . S
C1505 C1506 1.379 . S
C1506 H1490 0.931 . S
C1506 C1500 1.383 . S
C1506 C1505 1.379 . S
H1507 C1501 0.959 . S
H1508 C1501 0.961 . S
H1509 C1501 0.960 . S
H1510 C1502 0.930 . S
H1511 C1503 0.929 . S
H1512 C1520 0.929 . S
H1513 C1522 0.930 . S
H1514 C1524 0.930 . S
H1515 C1527 0.929 . S
H1516 C1530 0.930 . S
H1517 C1532 0.960 . S
H1518 C1532 0.960 . S
H1519 C1532 0.960 . S
C1520 H1512 0.929 . S
C1520 C1521 1.377 . S
C1520 C1522 1.384 . S
C1521 C1520 1.377 . S
C1521 C1527 1.390 . S
C1522 H1513 0.930 . S
C1522 C1520 1.384 . S
C1522 C1523 1.372 . S
C1523 C1522 1.372 . S
C1523 C1524 1.400 . S
C1523 C1528 1.490 . S
C1524 H1514 0.930 . S
C1524 C1523 1.400 . S
C1524 C1527 1.386 . S
H1525 C1541 0.930 . S
H1526 C1542 0.931 . S
C1527 H1515 0.929 . S
C1527 C1521 1.390 . S
C1527 C1524 1.386 . S
C1528 C1523 1.490 . S
C1528 C1530 1.395 . S
C1528 C1531 1.403 . S
H1529 C1535 0.930 . S
C1530 H1516 0.930 . S
C1530 C1528 1.395 . S
C1530 C1533 1.403 . S
C1531 C1528 1.403 . S
C1531 C1532 1.524 . S
C1531 C1535 1.400 . S
C1532 H1517 0.960 . S
C1532 H1518 0.960 . S
C1532 H1519 0.960 . S
C1532 C1531 1.524 . S
C1533 C1530 1.403 . S
C1533 C1534 1.392 . S
C1533 C1537 1.495 . S
C1534 C1533 1.392 . S
C1534 C1535 1.385 . S
C1534 C1536 1.478 . S
C1535 H1529 0.930 . S
C1535 C1531 1.400 . S
C1535 C1534 1.385 . S
C1536 C1534 1.478 . S
C1536 C1538 1.381 . S
C1536 C1542 1.383 . S
C1537 C1533 1.495 . S
C1537 H1543 0.959 . S
C1537 H1544 0.961 . S
C1537 H1545 0.960 . S
C1538 C1536 1.381 . S
C1538 C1539 1.394 . S
C1538 H1546 0.930 . S
C1539 C1538 1.394 . S
C1539 C1540 1.383 . S
C1539 H1547 0.929 . S
C1540 C1539 1.383 . S
C1540 C1541 1.377 . S
C1541 H1525 0.930 . S
C1541 C1540 1.377 . S
C1541 C1542 1.379 . S
C1542 H1526 0.931 . S
C1542 C1536 1.383 . S
C1542 C1541 1.379 . S
H1543 C1537 0.959 . S
H1544 C1537 0.961 . S
H1545 C1537 0.960 . S
H1546 C1538 0.930 . S
H1547 C1539 0.929 . S
H1548 C1556 0.929 . S
H1549 C1558 0.930 . S
H1550 C1560 0.930 . S
H1551 C1563 0.929 . S
H1552 C1566 0.930 . S
H1553 C1568 0.960 . S
H1554 C1568 0.960 . S
H1555 C1568 0.960 . S
C1556 H1548 0.929 . S
C1556 C1557 1.377 . S
C1556 C1558 1.384 . S
C1557 C1556 1.377 . S
C1557 C1563 1.390 . S
C1558 H1549 0.930 . S
C1558 C1556 1.384 . S
C1558 C1559 1.372 . S
C1559 C1558 1.372 . S
C1559 C1560 1.400 . S
C1559 C1564 1.490 . S
C1560 H1550 0.930 . S
C1560 C1559 1.400 . S
C1560 C1563 1.386 . S
H1561 C1577 0.930 . S
H1562 C1578 0.931 . S
C1563 H1551 0.929 . S
C1563 C1557 1.390 . S
C1563 C1560 1.386 . S
C1564 C1559 1.490 . S
C1564 C1566 1.395 . S
C1564 C1567 1.403 . S
H1565 C1571 0.930 . S
C1566 H1552 0.930 . S
C1566 C1564 1.395 . S
C1566 C1569 1.403 . S
C1567 C1564 1.403 . S
C1567 C1568 1.524 . S
C1567 C1571 1.400 . S
C1568 H1553 0.960 . S
C1568 H1554 0.960 . S
C1568 H1555 0.960 . S
C1568 C1567 1.524 . S
C1569 C1566 1.403 . S
C1569 C1570 1.392 . S
C1569 C1573 1.495 . S
C1570 C1569 1.392 . S
C1570 C1571 1.385 . S
C1570 C1572 1.478 . S
C1571 H1565 0.930 . S
C1571 C1567 1.400 . S
C1571 C1570 1.385 . S
C1572 C1570 1.478 . S
C1572 C1574 1.381 . S
C1572 C1578 1.383 . S
C1573 C1569 1.495 . S
C1573 H1579 0.959 . S
C1573 H1580 0.961 . S
C1573 H1581 0.960 . S
C1574 C1572 1.381 . S
C1574 C1575 1.394 . S
C1574 H1582 0.930 . S
C1575 C1574 1.394 . S
C1575 C1576 1.383 . S
C1575 H1583 0.929 . S
C1576 C1575 1.383 . S
C1576 C1577 1.377 . S
C1577 H1561 0.930 . S
C1577 C1576 1.377 . S
C1577 C1578 1.379 . S
C1578 H1562 0.931 . S
C1578 C1572 1.383 . S
C1578 C1577 1.379 . S
H1579 C1573 0.959 . S
H1580 C1573 0.961 . S
H1581 C1573 0.960 . S
H1582 C1574 0.930 . S
H1583 C1575 0.929 . S
H1584 C1592 0.929 . S
H1585 C1594 0.930 . S
H1586 C1596 0.930 . S
H1587 C1599 0.929 . S
H1588 C1602 0.930 . S
H1589 C1604 0.960 . S
H1590 C1604 0.960 . S
H1591 C1604 0.960 . S
C1592 H1584 0.929 . S
C1592 C1593 1.377 . S
C1592 C1594 1.384 . S
C1593 C1592 1.377 . S
C1593 C1599 1.390 . S
C1594 H1585 0.930 . S
C1594 C1592 1.384 . S
C1594 C1595 1.372 . S
C1595 C1594 1.372 . S
C1595 C1596 1.400 . S
C1595 C1600 1.490 . S
C1596 H1586 0.930 . S
C1596 C1595 1.400 . S
C1596 C1599 1.386 . S
H1597 C1613 0.930 . S
H1598 C1614 0.931 . S
C1599 H1587 0.929 . S
C1599 C1593 1.390 . S
C1599 C1596 1.386 . S
C1600 C1595 1.490 . S
C1600 C1602 1.395 . S
C1600 C1603 1.403 . S
H1601 C1607 0.930 . S
C1602 H1588 0.930 . S
C1602 C1600 1.395 . S
C1602 C1605 1.403 . S
C1603 C1600 1.403 . S
C1603 C1604 1.524 . S
C1603 C1607 1.400 . S
C1604 H1589 0.960 . S
C1604 H1590 0.960 . S
C1604 H1591 0.960 . S
C1604 C1603 1.524 . S
C1605 C1602 1.403 . S
C1605 C1606 1.392 . S
C1605 C1609 1.495 . S
C1606 C1605 1.392 . S
C1606 C1607 1.385 . S
C1606 C1608 1.478 . S
C1607 H1601 0.930 . S
C1607 C1603 1.400 . S
C1607 C1606 1.385 . S
C1608 C1606 1.478 . S
C1608 C1610 1.381 . S
C1608 C1614 1.383 . S
C1609 C1605 1.495 . S
C1609 H1615 0.959 . S
C1609 H1616 0.961 . S
C1609 H1617 0.960 . S
C1610 C1608 1.381 . S
C1610 C1611 1.394 . S
C1610 H1618 0.930 . S
C1611 C1610 1.394 . S
C1611 C1612 1.383 . S
C1611 H1619 0.929 . S
C1612 C1611 1.383 . S
C1612 C1613 1.377 . S
C1613 H1597 0.930 . S
C1613 C1612 1.377 . S
C1613 C1614 1.379 . S
C1614 H1598 0.931 . S
C1614 C1608 1.383 . S
C1614 C1613 1.379 . S
H1615 C1609 0.959 . S
H1616 C1609 0.961 . S
H1617 C1609 0.960 . S
H1618 C1610 0.930 . S
H1619 C1611 0.929 . S
H1620 C1628 0.929 . S
H1621 C1630 0.930 . S
H1622 C1632 0.930 . S
H1623 C1635 0.929 . S
H1624 C1638 0.930 . S
H1625 C1640 0.960 . S
H1626 C1640 0.960 . S
H1627 C1640 0.960 . S
C1628 H1620 0.929 . S
C1628 C1629 1.377 . S
C1628 C1630 1.384 . S
C1629 C1628 1.377 . S
C1629 C1635 1.390 . S
C1630 H1621 0.930 . S
C1630 C1628 1.384 . S
C1630 C1631 1.372 . S
C1631 C1630 1.372 . S
C1631 C1632 1.400 . S
C1631 C1636 1.490 . S
C1632 H1622 0.930 . S
C1632 C1631 1.400 . S
C1632 C1635 1.386 . S
H1633 C1649 0.930 . S
H1634 C1650 0.931 . S
C1635 H1623 0.929 . S
C1635 C1629 1.390 . S
C1635 C1632 1.386 . S
C1636 C1631 1.490 . S
C1636 C1638 1.395 . S
C1636 C1639 1.403 . S
H1637 C1643 0.930 . S
C1638 H1624 0.930 . S
C1638 C1636 1.395 . S
C1638 C1641 1.403 . S
C1639 C1636 1.403 . S
C1639 C1640 1.524 . S
C1639 C1643 1.400 . S
C1640 H1625 0.960 . S
C1640 H1626 0.960 . S
C1640 H1627 0.960 . S
C1640 C1639 1.524 . S
C1641 C1638 1.403 . S
C1641 C1642 1.392 . S
C1641 C1645 1.495 . S
C1642 C1641 1.392 . S
C1642 C1643 1.385 . S
C1642 C1644 1.478 . S
C1643 H1637 0.930 . S
C1643 C1639 1.400 . S
C1643 C1642 1.385 . S
C1644 C1642 1.478 . S
C1644 C1646 1.381 . S
C1644 C1650 1.383 . S
C1645 C1641 1.495 . S
C1645 H1651 0.959 . S
C1645 H1652 0.961 . S
C1645 H1653 0.960 . S
C1646 C1644 1.381 . S
C1646 C1647 1.394 . S
C1646 H1654 0.930 . S
C1647 C1646 1.394 . S
C1647 C1648 1.383 . S
C1647 H1655 0.929 . S
C1648 C1647 1.383 . S
C1648 C1649 1.377 . S
C1649 H1633 0.930 . S
C1649 C1648 1.377 . S
C1649 C1650 1.379 . S
C1650 H1634 0.931 . S
C1650 C1644 1.383 . S
C1650 C1649 1.379 . S
H1651 C1645 0.959 . S
H1652 C1645 0.961 . S
H1653 C1645 0.960 . S
H1654 C1646 0.930 . S
H1655 C1647 0.929 . S
H1656 C1664 0.929 . S
H1657 C1666 0.930 . S
H1658 C1668 0.930 . S
H1659 C1671 0.929 . S
H1660 C1674 0.930 . S
H1661 C1676 0.960 . S
H1662 C1676 0.960 . S
H1663 C1676 0.960 . S
C1664 H1656 0.929 . S
C1664 C1665 1.377 . S
C1664 C1666 1.384 . S
C1665 C1664 1.377 . S
C1665 C1671 1.390 . S
C1666 H1657 0.930 . S
C1666 C1664 1.384 . S
C1666 C1667 1.372 . S
C1667 C1666 1.372 . S
C1667 C1668 1.400 . S
C1667 C1672 1.490 . S
C1668 H1658 0.930 . S
C1668 C1667 1.400 . S
C1668 C1671 1.386 . S
H1669 C1685 0.930 . S
H1670 C1686 0.931 . S
C1671 H1659 0.929 . S
C1671 C1665 1.390 . S
C1671 C1668 1.386 . S
C1672 C1667 1.490 . S
C1672 C1674 1.395 . S
C1672 C1675 1.403 . S
H1673 C1679 0.930 . S
C1674 H1660 0.930 . S
C1674 C1672 1.395 . S
C1674 C1677 1.403 . S
C1675 C1672 1.403 . S
C1675 C1676 1.524 . S
C1675 C1679 1.400 . S
C1676 H1661 0.960 . S
C1676 H1662 0.960 . S
C1676 H1663 0.960 . S
C1676 C1675 1.524 . S
C1677 C1674 1.403 . S
C1677 C1678 1.392 . S
C1677 C1681 1.495 . S
C1678 C1677 1.392 . S
C1678 C1679 1.385 . S
C1678 C1680 1.478 . S
C1679 H1673 0.930 . S
C1679 C1675 1.400 . S
C1679 C1678 1.385 . S
C1680 C1678 1.478 . S
C1680 C1682 1.381 . S
C1680 C1686 1.383 . S
C1681 C1677 1.495 . S
C1681 H1687 0.959 . S
C1681 H1688 0.961 . S
C1681 H1689 0.960 . S
C1682 C1680 1.381 . S
C1682 C1683 1.394 . S
C1682 H1690 0.930 . S
C1683 C1682 1.394 . S
C1683 C1684 1.383 . S
C1683 H1691 0.929 . S
C1684 C1683 1.383 . S
C1684 C1685 1.377 . S
C1685 H1669 0.930 . S
C1685 C1684 1.377 . S
C1685 C1686 1.379 . S
C1686 H1670 0.931 . S
C1686 C1680 1.383 . S
C1686 C1685 1.379 . S
H1687 C1681 0.959 . S
H1688 C1681 0.961 . S
H1689 C1681 0.960 . S
H1690 C1682 0.930 . S
H1691 C1683 0.929 . S
H1692 C1700 0.929 . S
H1693 C1702 0.930 . S
H1694 C1704 0.930 . S
H1695 C1707 0.929 . S
H1696 C1710 0.930 . S
H1697 C1712 0.960 . S
H1698 C1712 0.966 . S
H1699 C1712 0.960 . S
C1700 H1692 0.929 . S
C1700 C1701 1.409 . S
C1700 C1702 1.384 . S
C1701 C1700 1.409 . S
C1701 C1707 1.359 1_554 S
C1702 H1693 0.930 . S
C1702 C1700 1.384 . S
C1702 C1703 1.372 . S
C1703 C1702 1.372 . S
C1703 C1704 1.400 1_554 S
C1703 C1708 1.490 . S
C1704 H1694 0.930 . S
C1704 C1703 1.400 1_556 S
C1704 C1707 1.386 . S
H1705 C1721 0.930 . S
H1706 C1722 0.931 . S
C1707 H1695 0.929 . S
C1707 C1701 1.359 1_556 S
C1707 C1704 1.386 . S
C1708 C1703 1.490 . S
C1708 C1710 1.395 . S
C1708 C1711 1.403 1_554 S
H1709 C1715 0.930 . S
C1710 H1696 0.930 . S
C1710 C1708 1.395 . S
C1710 C1713 1.403 . S
C1711 C1708 1.403 1_556 S
C1711 C1712 1.524 . S
C1711 C1715 1.400 . S
C1712 H1697 0.960 . S
C1712 H1698 0.966 . S
C1712 H1699 0.960 . S
C1712 C1711 1.524 . S
C1713 C1710 1.403 . S
C1713 C1714 1.392 . S
C1713 C1717 1.495 . S
C1714 C1713 1.392 . S
C1714 C1715 1.385 1_554 S
C1714 C1716 1.478 . S
C1715 H1709 0.930 . S
C1715 C1711 1.400 . S
C1715 C1714 1.385 1_556 S
C1716 C1714 1.478 . S
C1716 C1718 1.381 . S
C1716 C1722 1.383 1_554 S
C1717 C1713 1.495 . S
C1717 H1723 0.959 . S
C1717 H1724 0.961 . S
C1717 H1725 0.960 . S
C1718 C1716 1.381 . S
C1718 C1719 1.394 . S
C1718 H1726 0.930 . S
C1719 C1718 1.394 . S
C1719 C1720 1.433 . S
C1719 H1727 0.929 . S
C1720 C1719 1.433 . S
C1720 C1721 1.329 1_554 S
C1721 H1705 0.930 . S
C1721 C1720 1.329 1_556 S
C1721 C1722 1.379 . S
C1722 H1706 0.931 . S
C1722 C1716 1.383 1_556 S
C1722 C1721 1.379 . S
H1723 C1717 0.959 . S
H1724 C1717 0.961 . S
H1725 C1717 0.960 . S
H1726 C1718 0.930 . S
H1727 C1719 0.929 . S
H1728 C1736 0.929 . S
H1729 C1738 0.930 . S
H1730 C1740 0.930 . S
H1731 C1743 0.929 . S
H1732 C1746 0.930 . S
H1733 C1748 0.960 . S
H1734 C1748 0.960 . S
H1735 C1748 0.960 . S
C1736 H1728 0.929 . S
C1736 C1737 1.398 . S
C1736 C1738 1.384 . S
C1737 C1736 1.398 . S
C1737 C1743 1.371 1_554 S
C1738 H1729 0.930 . S
C1738 C1736 1.384 . S
C1738 C1739 1.372 . S
C1739 C1738 1.372 . S
C1739 C1740 1.400 1_554 S
C1739 C1744 1.492 . S
C1740 H1730 0.930 . S
C1740 C1739 1.400 1_556 S
C1740 C1743 1.386 . S
H1741 C1757 0.930 . S
H1742 C1758 0.931 . S
C1743 H1731 0.929 . S
C1743 C1737 1.371 1_556 S
C1743 C1740 1.386 . S
C1744 C1739 1.492 . S
C1744 C1746 1.372 1_554 S
C1744 C1747 1.425 . S
H1745 C1751 0.930 . S
C1746 H1732 0.930 . S
C1746 C1744 1.372 1_556 S
C1746 C1749 1.403 . S
C1747 C1744 1.425 . S
C1747 C1748 1.524 . S
C1747 C1751 1.400 . S
C1748 H1733 0.960 . S
C1748 H1734 0.960 . S
C1748 H1735 0.960 . S
C1748 C1747 1.524 . S
C1749 C1746 1.403 . S
C1749 C1750 1.392 . S
C1749 C1753 1.495 . S
C1750 C1749 1.392 . S
C1750 C1751 1.385 1_556 S
C1750 C1752 1.478 . S
C1751 H1745 0.930 . S
C1751 C1747 1.400 . S
C1751 C1750 1.385 1_554 S
C1752 C1750 1.478 . S
C1752 C1754 1.381 1_556 S
C1752 C1758 1.383 . S
C1753 C1749 1.495 . S
C1753 H1759 0.959 . S
C1753 H1760 0.961 . S
C1753 H1761 0.960 . S
C1754 C1752 1.381 1_554 S
C1754 C1755 1.394 . S
C1754 H1762 0.930 . S
C1755 C1754 1.394 . S
C1755 C1756 1.375 1_554 S
C1755 H1763 0.929 . S
C1756 C1755 1.375 1_556 S
C1756 C1757 1.386 . S
C1757 H1741 0.930 . S
C1757 C1756 1.386 . S
C1757 C1758 1.379 . S
C1758 H1742 0.931 . S
C1758 C1752 1.383 . S
C1758 C1757 1.379 . S
H1759 C1753 0.959 . S
H1760 C1753 0.961 . S
H1761 C1753 0.960 . S
H1762 C1754 0.930 . S
H1763 C1755 0.929 . S
H1764 C1772 0.929 . S
H1765 C1774 0.930 . S
H1766 C1776 0.930 . S
H1767 C1779 0.929 . S
H1768 C1782 0.930 . S
H1769 C1784 0.960 . S
H1770 C1784 0.986 . S
H1771 C1784 0.960 . S
C1772 H1764 0.929 . S
C1772 C1773 1.357 1_556 S
C1772 C1774 1.384 . S
C1773 C1772 1.357 1_554 S
C1773 C1779 1.410 . S
C1774 H1765 0.930 . S
C1774 C1772 1.384 . S
C1774 C1775 1.391 . S
C1775 C1774 1.391 . S
C1775 C1776 1.380 1_556 S
C1775 C1780 1.490 . S
C1776 H1766 0.930 . S
C1776 C1775 1.380 1_554 S
C1776 C1779 1.386 . S
H1777 C1793 0.930 . S
H1778 C1794 0.931 . S
C1779 H1767 0.929 . S
C1779 C1773 1.410 . S
C1779 C1776 1.386 . S
C1780 C1775 1.490 . S
C1780 C1782 1.408 . S
C1780 C1783 1.391 1_556 S
H1781 C1787 0.930 . S
C1782 H1768 0.930 . S
C1782 C1780 1.408 . S
C1782 C1785 1.403 . S
C1783 C1780 1.391 1_554 S
C1783 C1784 1.524 . S
C1783 C1787 1.400 . S
C1784 H1769 0.960 . S
C1784 H1770 0.986 . S
C1784 H1771 0.960 . S
C1784 C1783 1.524 . S
C1785 C1782 1.403 . S
C1785 C1786 1.392 . S
C1785 C1789 1.495 . S
C1786 C1785 1.392 . S
C1786 C1787 1.385 1_556 S
C1786 C1788 1.480 . S
C1787 H1781 0.930 . S
C1787 C1783 1.400 . S
C1787 C1786 1.385 1_554 S
C1788 C1786 1.480 . S
C1788 C1790 1.425 . S
C1788 C1794 1.338 1_556 S
C1789 C1785 1.495 . S
C1789 H1795 0.959 . S
C1789 H1796 0.961 . S
C1789 H1797 0.960 . S
C1790 C1788 1.425 . S
C1790 C1791 1.394 . S
C1790 H1798 0.930 . S
C1791 C1790 1.394 . S
C1791 C1792 1.379 1_556 S
C1791 H1799 0.929 . S
C1792 C1791 1.379 1_554 S
C1792 C1793 1.381 . S
C1793 H1777 0.930 . S
C1793 C1792 1.381 . S
C1793 C1794 1.379 . S
C1794 H1778 0.931 . S
C1794 C1788 1.338 1_554 S
C1794 C1793 1.379 . S
H1795 C1789 0.959 . S
H1796 C1789 0.961 . S
H1797 C1789 0.960 . S
H1798 C1790 0.930 . S
H1799 C1791 0.929 . S
H1800 C1808 0.929 . S
H1801 C1810 0.930 . S
H1802 C1812 0.930 . S
H1803 C1815 0.929 . S
H1804 C1818 0.930 . S
H1805 C1820 0.960 . S
H1806 C1820 0.960 . S
H1807 C1820 0.997 . S
C1808 H1800 0.929 . S
C1808 C1809 1.412 . S
C1808 C1810 1.384 . S
C1809 C1808 1.412 . S
C1809 C1815 1.357 1_554 S
C1810 H1801 0.930 . S
C1810 C1808 1.384 . S
C1810 C1811 1.372 . S
C1811 C1810 1.372 . S
C1811 C1812 1.400 1_554 S
C1811 C1816 1.490 . S
C1812 H1802 0.930 . S
C1812 C1811 1.400 1_556 S
C1812 C1815 1.386 . S
H1813 C1829 0.930 . S
H1814 C1830 0.931 . S
C1815 H1803 0.929 . S
C1815 C1809 1.357 1_556 S
C1815 C1812 1.386 . S
C1816 C1811 1.490 . S
C1816 C1818 1.395 1_554 S
C1816 C1819 1.403 . S
H1817 C1823 0.930 . S
C1818 H1804 0.930 . S
C1818 C1816 1.395 1_556 S
C1818 C1821 1.403 . S
C1819 C1816 1.403 . S
C1819 C1820 1.524 . S
C1819 C1823 1.400 . S
C1820 H1805 0.960 . S
C1820 H1806 0.960 . S
C1820 H1807 0.997 . S
C1820 C1819 1.524 . S
C1821 C1818 1.403 . S
C1821 C1822 1.391 1_556 S
C1821 C1825 1.495 . S
C1822 C1821 1.391 1_554 S
C1822 C1823 1.387 . S
C1822 C1824 1.477 1_554 S
C1823 H1817 0.930 . S
C1823 C1819 1.400 . S
C1823 C1822 1.387 . S
C1824 C1822 1.477 1_556 S
C1824 C1826 1.371 1_556 S
C1824 C1830 1.392 . S
C1825 C1821 1.495 . S
C1825 H1831 0.959 . S
C1825 H1832 0.961 . S
C1825 H1833 0.960 1_556 S
C1826 C1824 1.371 1_554 S
C1826 C1827 1.394 . S
C1826 H1834 0.930 . S
C1827 C1826 1.394 . S
C1827 C1828 1.382 . S
C1827 H1835 0.929 . S
C1828 C1827 1.382 . S
C1828 C1829 1.378 1_554 S
C1829 H1813 0.930 . S
C1829 C1828 1.378 1_556 S
C1829 C1830 1.379 . S
C1830 H1814 0.931 . S
C1830 C1824 1.392 . S
C1830 C1829 1.379 . S
H1831 C1825 0.959 . S
H1832 C1825 0.961 . S
H1833 C1825 0.960 1_554 S
H1834 C1826 0.930 . S
H1835 C1827 0.929 . S
H1836 C1844 0.929 . S
H1837 C1846 0.930 . S
H1838 C1848 0.930 . S
H1839 C1851 0.929 . S
H1840 C1854 0.930 . S
H1841 C1856 0.960 . S
H1842 C1856 0.960 . S
H1843 C1856 0.960 . S
C1844 H1836 0.929 . S
C1844 C1845 1.377 . S
C1844 C1846 1.384 . S
C1845 C1844 1.377 . S
C1845 C1851 1.390 1_455 S
C1846 H1837 0.930 . S
C1846 C1844 1.384 . S
C1846 C1847 1.372 . S
C1847 C1846 1.372 . S
C1847 C1848 1.400 1_455 S
C1847 C1852 1.490 . S
C1848 H1838 0.930 . S
C1848 C1847 1.400 1_655 S
C1848 C1851 1.386 . S
H1849 C1865 0.930 . S
H1850 C1866 0.931 . S
C1851 H1839 0.929 . S
C1851 C1845 1.390 1_655 S
C1851 C1848 1.386 . S
C1852 C1847 1.490 . S
C1852 C1854 1.395 1_455 S
C1852 C1855 1.403 . S
H1853 C1859 0.930 . S
C1854 H1840 0.930 . S
C1854 C1852 1.395 1_655 S
C1854 C1857 1.403 . S
C1855 C1852 1.403 . S
C1855 C1856 1.524 . S
C1855 C1859 1.400 . S
C1856 H1841 0.960 . S
C1856 H1842 0.960 . S
C1856 H1843 0.960 . S
C1856 C1855 1.524 . S
C1857 C1854 1.403 . S
C1857 C1858 1.404 . S
C1857 C1861 1.495 . S
C1858 C1857 1.404 . S
C1858 C1859 1.372 1_655 S
C1858 C1860 1.477 . S
C1859 H1853 0.930 . S
C1859 C1855 1.400 . S
C1859 C1858 1.372 1_455 S
C1860 C1858 1.477 . S
C1860 C1862 1.349 1_655 S
C1860 C1866 1.415 . S
C1861 C1857 1.495 . S
C1861 H1867 0.959 . S
C1861 H1868 0.961 . S
C1861 H1869 0.960 . S
C1862 C1860 1.349 1_455 S
C1862 C1863 1.394 . S
C1862 H1870 0.930 . S
C1863 C1862 1.394 . S
C1863 C1864 1.383 . S
C1863 H1871 0.929 . S
C1864 C1863 1.383 . S
C1864 C1865 1.377 1_455 S
C1865 H1849 0.930 . S
C1865 C1864 1.377 1_655 S
C1865 C1866 1.379 . S
C1866 H1850 0.931 . S
C1866 C1860 1.415 . S
C1866 C1865 1.379 . S
H1867 C1861 0.959 . S
H1868 C1861 0.961 . S
H1869 C1861 0.960 . S
H1870 C1862 0.930 . S
H1871 C1863 0.929 . S
H1872 C1880 0.929 . S
H1873 C1882 0.930 . S
H1874 C1884 0.930 . S
H1875 C1887 0.929 . S
H1876 C1890 0.930 . S
H1877 C1892 0.960 . S
H1878 C1892 0.960 . S
H1879 C1892 0.960 . S
C1880 H1872 0.929 . S
C1880 C1881 1.367 1_565 S
C1880 C1882 1.384 . S
C1881 C1880 1.367 1_545 S
C1881 C1887 1.400 . S
C1882 H1873 0.930 . S
C1882 C1880 1.384 . S
C1882 C1883 1.375 . S
C1883 C1882 1.375 . S
C1883 C1884 1.397 1_565 S
C1883 C1888 1.490 1_565 S
C1884 H1874 0.930 . S
C1884 C1883 1.397 1_545 S
C1884 C1887 1.386 . S
H1885 C1901 0.930 . S
H1886 C1902 0.931 . S
C1887 H1875 0.929 . S
C1887 C1881 1.400 . S
C1887 C1884 1.386 . S
C1888 C1883 1.490 1_545 S
C1888 C1890 1.394 . S
C1888 C1891 1.404 1_545 S
H1889 C1895 0.930 . S
C1890 H1876 0.930 . S
C1890 C1888 1.394 . S
C1890 C1893 1.403 . S
C1891 C1888 1.404 1_565 S
C1891 C1892 1.524 . S
C1891 C1895 1.400 . S
C1892 H1877 0.960 . S
C1892 H1878 0.960 . S
C1892 H1879 0.960 . S
C1892 C1891 1.524 . S
C1893 C1890 1.403 . S
C1893 C1894 1.392 . S
C1893 C1897 1.495 . S
C1894 C1893 1.392 . S
C1894 C1895 1.385 1_545 S
C1894 C1896 1.478 . S
C1895 H1889 0.930 . S
C1895 C1891 1.400 . S
C1895 C1894 1.385 1_565 S
C1896 C1894 1.478 . S
C1896 C1898 1.381 1_545 S
C1896 C1902 1.383 . S
C1897 C1893 1.495 . S
C1897 H1903 0.959 . S
C1897 H1904 0.961 . S
C1897 H1905 0.960 . S
C1898 C1896 1.381 1_565 S
C1898 C1899 1.394 . S
C1898 H1906 0.930 . S
C1899 C1898 1.394 . S
C1899 C1900 1.383 1_565 S
C1899 H1907 0.929 . S
C1900 C1899 1.383 1_545 S
C1900 C1901 1.377 . S
C1901 H1885 0.930 . S
C1901 C1900 1.377 . S
C1901 C1902 1.379 . S
C1902 H1886 0.931 . S
C1902 C1896 1.383 . S
C1902 C1901 1.379 . S
H1903 C1897 0.959 . S
H1904 C1897 0.961 . S
H1905 C1897 0.960 . S
H1906 C1898 0.930 . S
H1907 C1899 0.929 . S
H1908 C1916 0.929 . S
H1909 C1918 0.930 . S
H1910 C1920 0.930 . S
H1911 C1923 0.929 . S
H1912 C1926 0.930 . S
H1913 C1928 0.960 . S
H1914 C1928 0.960 1_655 S
H1915 C1928 0.960 . S
C1916 H1908 0.929 . S
C1916 C1917 1.340 1_655 S
C1916 C1918 1.384 . S
C1917 C1916 1.340 1_455 S
C1917 C1923 1.427 . S
C1918 H1909 0.930 . S
C1918 C1916 1.384 . S
C1918 C1919 1.367 . S
C1919 C1918 1.367 . S
C1919 C1920 1.404 1_655 S
C1919 C1924 1.490 . S
C1920 H1910 0.930 . S
C1920 C1919 1.404 1_455 S
C1920 C1923 1.386 . S
H1921 C1937 0.930 . S
H1922 C1938 0.931 . S
C1923 H1911 0.929 . S
C1923 C1917 1.427 . S
C1923 C1920 1.386 . S
C1924 C1919 1.490 . S
C1924 C1926 1.395 . S
C1924 C1927 1.403 1_655 S
H1925 C1931 0.930 . S
C1926 H1912 0.930 . S
C1926 C1924 1.395 . S
C1926 C1929 1.403 . S
C1927 C1924 1.403 1_455 S
C1927 C1928 1.524 . S
C1927 C1931 1.400 . S
C1928 H1913 0.960 . S
C1928 H1914 0.960 1_455 S
C1928 H1915 0.960 . S
C1928 C1927 1.524 . S
C1929 C1926 1.403 . S
C1929 C1930 1.393 1_655 S
C1929 C1933 1.495 . S
C1930 C1929 1.393 1_455 S
C1930 C1931 1.385 . S
C1930 C1932 1.477 . S
C1931 H1925 0.930 . S
C1931 C1927 1.400 . S
C1931 C1930 1.385 . S
C1932 C1930 1.477 . S
C1932 C1934 1.358 1_455 S
C1932 C1938 1.406 . S
C1933 C1929 1.495 . S
C1933 H1939 0.959 . S
C1933 H1940 0.961 1_655 S
C1933 H1941 0.960 . S
C1934 C1932 1.358 1_655 S
C1934 C1935 1.394 . S
C1934 H1942 0.930 . S
C1935 C1934 1.394 . S
C1935 C1936 1.335 1_655 S
C1935 H1943 0.929 . S
C1936 C1935 1.335 1_455 S
C1936 C1937 1.425 . S
C1937 H1921 0.930 . S
C1937 C1936 1.425 . S
C1937 C1938 1.379 . S
C1938 H1922 0.931 . S
C1938 C1932 1.406 . S
C1938 C1937 1.379 . S
H1939 C1933 0.959 . S
H1940 C1933 0.961 1_455 S
H1941 C1933 0.960 . S
H1942 C1934 0.930 . S
H1943 C1935 0.929 . S
H1944 C1952 0.929 . S
H1945 C1954 0.930 . S
H1946 C1956 0.930 . S
H1947 C1959 0.929 . S
H1948 C1962 0.930 . S
H1949 C1964 0.960 . S
H1950 C1964 0.960 . S
H1951 C1964 0.960 . S
C1952 H1944 0.929 . S
C1952 C1953 1.373 1_565 S
C1952 C1954 1.384 . S
C1953 C1952 1.373 1_545 S
C1953 C1959 1.394 . S
C1954 H1945 0.930 . S
C1954 C1952 1.384 . S
C1954 C1955 1.370 1_565 S
C1955 C1954 1.370 1_545 S
C1955 C1956 1.402 . S
C1955 C1960 1.489 . S
C1956 H1946 0.930 . S
C1956 C1955 1.402 . S
C1956 C1959 1.386 . S
H1957 C1973 0.930 . S
H1958 C1974 0.931 . S
C1959 H1947 0.929 . S
C1959 C1953 1.394 . S
C1959 C1956 1.386 . S
C1960 C1955 1.489 . S
C1960 C1962 1.426 . S
C1960 C1963 1.374 1_545 S
H1961 C1967 0.930 . S
C1962 H1948 0.930 . S
C1962 C1960 1.426 . S
C1962 C1965 1.403 . S
C1963 C1960 1.374 1_565 S
C1963 C1964 1.524 . S
C1963 C1967 1.400 . S
C1964 H1949 0.960 . S
C1964 H1950 0.960 . S
C1964 H1951 0.960 . S
C1964 C1963 1.524 . S
C1965 C1962 1.403 . S
C1965 C1966 1.392 . S
C1965 C1969 1.495 . S
C1966 C1965 1.392 . S
C1966 C1967 1.385 1_545 S
C1966 C1968 1.478 . S
C1967 H1961 0.930 . S
C1967 C1963 1.400 . S
C1967 C1966 1.385 1_565 S
C1968 C1966 1.478 . S
C1968 C1970 1.381 1_545 S
C1968 C1974 1.383 . S
C1969 C1965 1.495 . S
C1969 H1975 0.959 . S
C1969 H1976 0.961 . S
C1969 H1977 0.960 . S
C1970 C1968 1.381 1_565 S
C1970 C1971 1.394 . S
C1970 H1978 0.930 . S
C1971 C1970 1.394 . S
C1971 C1972 1.383 1_565 S
C1971 H1979 0.929 . S
C1972 C1971 1.383 1_545 S
C1972 C1973 1.377 . S
C1973 H1957 0.930 . S
C1973 C1972 1.377 . S
C1973 C1974 1.379 . S
C1974 H1958 0.931 . S
C1974 C1968 1.383 . S
C1974 C1973 1.379 . S
H1975 C1969 0.959 . S
H1976 C1969 0.961 . S
H1977 C1969 0.960 . S
H1978 C1970 0.930 . S
H1979 C1971 0.929 . S
H1980 C1988 0.929 . S
H1981 C1990 0.930 . S
H1982 C1992 0.930 . S
H1983 C1995 0.929 . S
H1984 C1998 0.930 . S
H1985 C2000 0.960 . S
H1986 C2000 0.960 . S
H1987 C2000 0.960 . S
C1988 H1980 0.929 . S
C1988 C1989 1.388 . S
C1988 C1990 1.384 . S
C1989 C1988 1.388 . S
C1989 C1995 1.380 1_455 S
C1990 H1981 0.930 . S
C1990 C1988 1.384 . S
C1990 C1991 1.387 . S
C1991 C1990 1.387 . S
C1991 C1992 1.386 1_455 S
C1991 C1996 1.493 . S
C1992 H1982 0.930 . S
C1992 C1991 1.386 1_655 S
C1992 C1995 1.386 . S
H1993 C2009 0.926 1_655 S
H1994 C2010 0.934 . S
C1995 H1983 0.929 . S
C1995 C1989 1.380 1_655 S
C1995 C1992 1.386 . S
C1996 C1991 1.493 . S
C1996 C1998 1.395 . S
C1996 C1999 1.403 1_455 S
H1997 C2003 0.930 . S
C1998 H1984 0.930 . S
C1998 C1996 1.395 . S
C1998 C2001 1.403 . S
C1999 C1996 1.403 1_655 S
C1999 C2000 1.524 . S
C1999 C2003 1.400 . S
C2000 H1985 0.960 . S
C2000 H1986 0.960 . S
C2000 H1987 0.960 . S
C2000 C1999 1.524 . S
C2001 C1998 1.403 . S
C2001 C2002 1.392 . S
C2001 C2005 1.495 . S
C2002 C2001 1.392 . S
C2002 C2003 1.385 1_455 S
C2002 C2004 1.478 . S
C2003 H1997 0.930 . S
C2003 C1999 1.400 . S
C2003 C2002 1.385 1_655 S
C2004 C2002 1.478 . S
C2004 C2006 1.381 . S
C2004 C2010 1.383 . S
C2005 C2001 1.495 . S
C2005 H2011 0.959 . S
C2005 H2012 0.961 . S
C2005 H2013 0.960 . S
C2006 C2004 1.381 . S
C2006 C2007 1.394 . S
C2006 H2014 0.930 . S
C2007 C2006 1.394 . S
C2007 C2008 1.383 . S
C2007 H2015 0.929 . S
C2008 C2007 1.383 . S
C2008 C2009 1.380 . S
C2009 H1993 0.926 1_455 S
C2009 C2008 1.380 . S
C2009 C2010 1.381 . S
C2010 H1994 0.934 . S
C2010 C2004 1.383 . S
C2010 C2009 1.381 . S
H2011 C2005 0.959 . S
H2012 C2005 0.961 . S
H2013 C2005 0.960 . S
H2014 C2006 0.930 . S
H2015 C2007 0.929 . S
H2016 C2024 0.929 . S
H2017 C2026 0.930 . S
H2018 C2028 0.930 . S
H2019 C2031 0.929 . S
H2020 C2034 0.929 1_565 S
H2021 C2036 0.960 . S
H2022 C2036 0.960 . S
H2023 C2036 0.960 1_565 S
C2024 H2016 0.929 . S
C2024 C2025 1.415 . S
C2024 C2026 1.384 . S
C2025 C2024 1.415 . S
C2025 C2031 1.354 1_545 S
C2026 H2017 0.930 . S
C2026 C2024 1.384 . S
C2026 C2027 1.372 . S
C2027 C2026 1.372 . S
C2027 C2028 1.400 1_545 S
C2027 C2032 1.490 . S
C2028 H2018 0.930 . S
C2028 C2027 1.400 1_565 S
C2028 C2031 1.386 . S
H2029 C2045 0.930 . S
H2030 C2046 0.931 . S
C2031 H2019 0.929 . S
C2031 C2025 1.354 1_565 S
C2031 C2028 1.386 . S
C2032 C2027 1.490 . S
C2032 C2034 1.395 . S
C2032 C2035 1.403 . S
H2033 C2039 0.930 . S
C2034 H2020 0.929 1_545 S
C2034 C2032 1.395 . S
C2034 C2037 1.403 1_545 S
C2035 C2032 1.403 . S
C2035 C2036 1.524 . S
C2035 C2039 1.400 . S
C2036 H2021 0.960 . S
C2036 H2022 0.960 . S
C2036 H2023 0.960 1_545 S
C2036 C2035 1.524 . S
C2037 C2034 1.403 1_565 S
C2037 C2038 1.390 1_565 S
C2037 C2041 1.496 . S
C2038 C2037 1.390 1_545 S
C2038 C2039 1.390 . S
C2038 C2040 1.477 . S
C2039 H2033 0.930 . S
C2039 C2035 1.400 . S
C2039 C2038 1.390 . S
C2040 C2038 1.477 . S
C2040 C2042 1.395 . S
C2040 C2046 1.369 1_545 S
C2041 C2037 1.496 . S
C2041 H2047 0.959 . S
C2041 H2048 0.961 . S
C2041 H2049 0.960 1_565 S
C2042 C2040 1.395 . S
C2042 C2043 1.394 . S
C2042 H2050 0.930 . S
C2043 C2042 1.394 . S
C2043 C2044 1.400 . S
C2043 H2051 0.929 . S
C2044 C2043 1.400 . S
C2044 C2045 1.360 1_545 S
C2045 H2029 0.930 . S
C2045 C2044 1.360 1_565 S
C2045 C2046 1.379 . S
C2046 H2030 0.931 . S
C2046 C2040 1.369 1_565 S
C2046 C2045 1.379 . S
H2047 C2041 0.959 . S
H2048 C2041 0.961 . S
H2049 C2041 0.960 1_545 S
H2050 C2042 0.930 . S
H2051 C2043 0.929 . S
H2052 C2060 0.929 . S
H2053 C2062 0.930 . S
H2054 C2064 0.930 . S
H2055 C2067 0.929 . S
H2056 C2070 0.930 . S
H2057 C2072 0.960 . S
H2058 C2072 0.960 . S
H2059 C2072 0.960 . S
C2060 H2052 0.929 . S
C2060 C2061 1.377 . S
C2060 C2062 1.384 . S
C2061 C2060 1.377 . S
C2061 C2067 1.390 1_455 S
C2062 H2053 0.930 . S
C2062 C2060 1.384 . S
C2062 C2063 1.372 . S
C2063 C2062 1.372 . S
C2063 C2064 1.400 1_455 S
C2063 C2068 1.490 . S
C2064 H2054 0.930 . S
C2064 C2063 1.400 1_655 S
C2064 C2067 1.386 . S
H2065 C2081 0.930 . S
H2066 C2082 0.931 . S
C2067 H2055 0.929 . S
C2067 C2061 1.390 1_655 S
C2067 C2064 1.386 . S
C2068 C2063 1.490 . S
C2068 C2070 1.395 . S
C2068 C2071 1.403 1_455 S
H2069 C2075 0.930 . S
C2070 H2056 0.930 . S
C2070 C2068 1.395 . S
C2070 C2073 1.403 . S
C2071 C2068 1.403 1_655 S
C2071 C2072 1.524 . S
C2071 C2075 1.400 . S
C2072 H2057 0.960 . S
C2072 H2058 0.960 . S
C2072 H2059 0.960 . S
C2072 C2071 1.524 . S
C2073 C2070 1.403 . S
C2073 C2074 1.392 . S
C2073 C2077 1.495 . S
C2074 C2073 1.392 . S
C2074 C2075 1.385 1_455 S
C2074 C2076 1.478 . S
C2075 H2069 0.930 . S
C2075 C2071 1.400 . S
C2075 C2074 1.385 1_655 S
C2076 C2074 1.478 . S
C2076 C2078 1.381 . S
C2076 C2082 1.383 1_455 S
C2077 C2073 1.495 . S
C2077 H2083 0.959 . S
C2077 H2084 0.961 . S
C2077 H2085 0.960 . S
C2078 C2076 1.381 . S
C2078 C2079 1.394 . S
C2078 H2086 0.930 . S
C2079 C2078 1.394 . S
C2079 C2080 1.383 . S
C2079 H2087 0.929 . S
C2080 C2079 1.383 . S
C2080 C2081 1.377 1_455 S
C2081 H2065 0.930 . S
C2081 C2080 1.377 1_655 S
C2081 C2082 1.379 . S
C2082 H2066 0.931 . S
C2082 C2076 1.383 1_655 S
C2082 C2081 1.379 . S
H2083 C2077 0.959 . S
H2084 C2077 0.961 . S
H2085 C2077 0.960 . S
H2086 C2078 0.930 . S
H2087 C2079 0.929 . S
H2088 C2096 0.929 . S
H2089 C2098 0.930 . S
H2090 C2100 0.930 . S
H2091 C2103 0.929 . S
H2092 C2106 0.930 . S
H2093 C2108 0.960 . S
H2094 C2108 0.960 . S
H2095 C2108 0.960 . S
C2096 H2088 0.929 . S
C2096 C2097 1.374 1_565 S
C2096 C2098 1.384 . S
C2097 C2096 1.374 1_545 S
C2097 C2103 1.393 . S
C2098 H2089 0.930 . S
C2098 C2096 1.384 . S
C2098 C2099 1.373 . S
C2099 C2098 1.373 . S
C2099 C2100 1.398 1_565 S
C2099 C2104 1.490 1_565 S
C2100 H2090 0.930 . S
C2100 C2099 1.398 1_545 S
C2100 C2103 1.386 . S
H2101 C2117 0.930 . S
H2102 C2118 0.931 . S
C2103 H2091 0.929 . S
C2103 C2097 1.393 . S
C2103 C2100 1.386 . S
C2104 C2099 1.490 1_545 S
C2104 C2106 1.399 . S
C2104 C2107 1.399 1_545 S
H2105 C2111 0.930 . S
C2106 H2092 0.930 . S
C2106 C2104 1.399 . S
C2106 C2109 1.403 . S
C2107 C2104 1.399 1_565 S
C2107 C2108 1.524 . S
C2107 C2111 1.400 . S
C2108 H2093 0.960 . S
C2108 H2094 0.960 . S
C2108 H2095 0.960 . S
C2108 C2107 1.524 . S
C2109 C2106 1.403 . S
C2109 C2110 1.392 . S
C2109 C2113 1.495 . S
C2110 C2109 1.392 . S
C2110 C2111 1.385 1_545 S
C2110 C2112 1.478 . S
C2111 H2105 0.930 . S
C2111 C2107 1.400 . S
C2111 C2110 1.385 1_565 S
C2112 C2110 1.478 . S
C2112 C2114 1.381 1_545 S
C2112 C2118 1.383 . S
C2113 C2109 1.495 . S
C2113 H2119 0.959 . S
C2113 H2120 0.961 . S
C2113 H2121 0.960 . S
C2114 C2112 1.381 1_565 S
C2114 C2115 1.394 . S
C2114 H2122 0.930 . S
C2115 C2114 1.394 . S
C2115 C2116 1.383 1_565 S
C2115 H2123 0.929 . S
C2116 C2115 1.383 1_545 S
C2116 C2117 1.377 . S
C2117 H2101 0.930 . S
C2117 C2116 1.377 . S
C2117 C2118 1.379 . S
C2118 H2102 0.931 . S
C2118 C2112 1.383 . S
C2118 C2117 1.379 . S
H2119 C2113 0.959 . S
H2120 C2113 0.961 . S
H2121 C2113 0.960 . S
H2122 C2114 0.930 . S
H2123 C2115 0.929 . S
H2124 C2132 0.929 . S
H2125 C2134 0.930 . S
H2126 C2136 0.930 . S
H2127 C2139 0.929 . S
H2128 C2142 0.930 . S
H2129 C2144 0.960 . S
H2130 C2144 0.960 . S
H2131 C2144 0.960 . S
C2132 H2124 0.929 . S
C2132 C2133 1.357 1_655 S
C2132 C2134 1.384 . S
C2133 C2132 1.357 1_455 S
C2133 C2139 1.412 . S
C2134 H2125 0.930 . S
C2134 C2132 1.384 . S
C2134 C2135 1.360 1_655 S
C2135 C2134 1.360 1_455 S
C2135 C2136 1.412 . S
C2135 C2140 1.490 . S
C2136 H2126 0.930 . S
C2136 C2135 1.412 . S
C2136 C2139 1.386 . S
H2137 C2153 0.930 . S
H2138 C2154 0.931 . S
C2139 H2127 0.929 . S
C2139 C2133 1.412 . S
C2139 C2136 1.386 . S
C2140 C2135 1.490 . S
C2140 C2142 1.425 . S
C2140 C2143 1.376 1_455 S
H2141 C2147 0.930 . S
C2142 H2128 0.930 . S
C2142 C2140 1.425 . S
C2142 C2145 1.403 . S
C2143 C2140 1.376 1_655 S
C2143 C2144 1.524 . S
C2143 C2147 1.400 . S
C2144 H2129 0.960 . S
C2144 H2130 0.960 . S
C2144 H2131 0.960 . S
C2144 C2143 1.524 . S
C2145 C2142 1.403 . S
C2145 C2146 1.392 . S
C2145 C2149 1.495 . S
C2146 C2145 1.392 . S
C2146 C2147 1.385 1_455 S
C2146 C2148 1.478 . S
C2147 H2141 0.930 . S
C2147 C2143 1.400 . S
C2147 C2146 1.385 1_655 S
C2148 C2146 1.478 . S
C2148 C2150 1.381 1_455 S
C2148 C2154 1.383 . S
C2149 C2145 1.495 . S
C2149 H2155 0.959 . S
C2149 H2156 0.961 . S
C2149 H2157 0.960 . S
C2150 C2148 1.381 1_655 S
C2150 C2151 1.394 . S
C2150 H2158 0.930 . S
C2151 C2150 1.394 . S
C2151 C2152 1.383 1_655 S
C2151 H2159 0.929 . S
C2152 C2151 1.383 1_455 S
C2152 C2153 1.377 . S
C2153 H2137 0.930 . S
C2153 C2152 1.377 . S
C2153 C2154 1.379 . S
C2154 H2138 0.931 . S
C2154 C2148 1.383 . S
C2154 C2153 1.379 . S
H2155 C2149 0.959 . S
H2156 C2149 0.961 . S
H2157 C2149 0.960 . S
H2158 C2150 0.930 . S
H2159 C2151 0.929 . S
H2160 C2168 0.929 . S
H2161 C2170 0.930 . S
H2162 C2172 0.930 . S
H2163 C2175 0.929 . S
H2164 C2178 0.930 . S
H2165 C2180 0.960 . S
H2166 C2180 0.960 . S
H2167 C2180 0.960 . S
C2168 H2160 0.929 . S
C2168 C2169 1.379 . S
C2168 C2170 1.384 . S
C2169 C2168 1.379 . S
C2169 C2175 1.388 1_545 S
C2170 H2161 0.930 . S
C2170 C2168 1.384 . S
C2170 C2171 1.375 . S
C2171 C2170 1.375 . S
C2171 C2172 1.396 1_545 S
C2171 C2176 1.491 . S
C2172 H2162 0.930 . S
C2172 C2171 1.396 1_565 S
C2172 C2175 1.386 . S
H2173 C2189 0.930 1_565 S
H2174 C2190 0.931 . S
C2175 H2163 0.929 . S
C2175 C2169 1.388 1_565 S
C2175 C2172 1.386 . S
C2176 C2171 1.491 . S
C2176 C2178 1.395 . S
C2176 C2179 1.403 1_545 S
H2177 C2183 0.930 . S
C2178 H2164 0.930 . S
C2178 C2176 1.395 . S
C2178 C2181 1.403 . S
C2179 C2176 1.403 1_565 S
C2179 C2180 1.524 . S
C2179 C2183 1.400 . S
C2180 H2165 0.960 . S
C2180 H2166 0.960 . S
C2180 H2167 0.960 . S
C2180 C2179 1.524 . S
C2181 C2178 1.403 . S
C2181 C2182 1.392 . S
C2181 C2185 1.495 . S
C2182 C2181 1.392 . S
C2182 C2183 1.385 1_545 S
C2182 C2184 1.478 . S
C2183 H2177 0.930 . S
C2183 C2179 1.400 . S
C2183 C2182 1.385 1_565 S
C2184 C2182 1.478 . S
C2184 C2186 1.381 . S
C2184 C2190 1.383 . S
C2185 C2181 1.495 . S
C2185 H2191 0.959 . S
C2185 H2192 0.961 . S
C2185 H2193 0.960 . S
C2186 C2184 1.381 . S
C2186 C2187 1.394 . S
C2186 H2194 0.930 . S
C2187 C2186 1.394 . S
C2187 C2188 1.383 . S
C2187 H2195 0.929 . S
C2188 C2187 1.383 . S
C2188 C2189 1.377 . S
C2189 H2173 0.930 1_545 S
C2189 C2188 1.377 . S
C2189 C2190 1.379 . S
C2190 H2174 0.931 . S
C2190 C2184 1.383 . S
C2190 C2189 1.379 . S
H2191 C2185 0.959 . S
H2192 C2185 0.961 . S
H2193 C2185 0.960 . S
H2194 C2186 0.930 . S
H2195 C2187 0.929 . S
H2196 C2204 0.929 . S
H2197 C2206 0.930 . S
H2198 C2208 0.930 . S
H2199 C2211 0.929 . S
H2200 C2214 0.930 . S
H2201 C2216 0.960 . S
H2202 C2216 0.960 . S
H2203 C2216 0.960 . S
C2204 H2196 0.929 . S
C2204 C2205 1.348 1_655 S
C2204 C2206 1.384 . S
C2205 C2204 1.348 1_455 S
C2205 C2211 1.420 . S
C2206 H2197 0.930 . S
C2206 C2204 1.384 . S
C2206 C2207 1.364 1_655 S
C2207 C2206 1.364 1_455 S
C2207 C2208 1.408 . S
C2207 C2212 1.490 . S
C2208 H2198 0.930 . S
C2208 C2207 1.408 . S
C2208 C2211 1.386 . S
H2209 C2225 0.930 . S
H2210 C2226 0.931 . S
C2211 H2199 0.929 . S
C2211 C2205 1.420 . S
C2211 C2208 1.386 . S
C2212 C2207 1.490 . S
C2212 C2214 1.403 . S
C2212 C2215 1.396 1_455 S
H2213 C2219 0.930 . S
C2214 H2200 0.930 . S
C2214 C2212 1.403 . S
C2214 C2217 1.403 . S
C2215 C2212 1.396 1_655 S
C2215 C2216 1.524 . S
C2215 C2219 1.400 . S
C2216 H2201 0.960 . S
C2216 H2202 0.960 . S
C2216 H2203 0.960 . S
C2216 C2215 1.524 . S
C2217 C2214 1.403 . S
C2217 C2218 1.392 . S
C2217 C2221 1.495 . S
C2218 C2217 1.392 . S
C2218 C2219 1.385 1_455 S
C2218 C2220 1.478 . S
C2219 H2213 0.930 . S
C2219 C2215 1.400 . S
C2219 C2218 1.385 1_655 S
C2220 C2218 1.478 . S
C2220 C2222 1.381 1_455 S
C2220 C2226 1.383 . S
C2221 C2217 1.495 . S
C2221 H2227 0.959 . S
C2221 H2228 0.961 . S
C2221 H2229 0.960 . S
C2222 C2220 1.381 1_655 S
C2222 C2223 1.394 . S
C2222 H2230 0.930 . S
C2223 C2222 1.394 . S
C2223 C2224 1.383 1_655 S
C2223 H2231 0.929 . S
C2224 C2223 1.383 1_455 S
C2224 C2225 1.377 . S
C2225 H2209 0.930 . S
C2225 C2224 1.377 . S
C2225 C2226 1.379 . S
C2226 H2210 0.931 . S
C2226 C2220 1.383 . S
C2226 C2225 1.379 . S
H2227 C2221 0.959 . S
H2228 C2221 0.961 . S
H2229 C2221 0.960 . S
H2230 C2222 0.930 . S
H2231 C2223 0.929 . S
H2232 C2240 0.929 . S
H2233 C2242 0.930 . S
H2234 C2244 0.930 . S
H2235 C2247 0.929 . S
H2236 C2250 0.930 . S
H2237 C2252 0.960 . S
H2238 C2252 0.960 . S
H2239 C2252 0.960 . S
C2240 H2232 0.929 . S
C2240 C2241 1.377 1_565 S
C2240 C2242 1.384 . S
C2241 C2240 1.377 1_545 S
C2241 C2247 1.390 . S
C2242 H2233 0.930 . S
C2242 C2240 1.384 . S
C2242 C2243 1.375 . S
C2243 C2242 1.375 . S
C2243 C2244 1.397 1_565 S
C2243 C2248 1.490 1_565 S
C2244 H2234 0.930 . S
C2244 C2243 1.397 1_545 S
C2244 C2247 1.386 . S
H2245 C2261 0.930 . S
H2246 C2262 0.931 . S
C2247 H2235 0.929 . S
C2247 C2241 1.390 . S
C2247 C2244 1.386 . S
C2248 C2243 1.490 1_545 S
C2248 C2250 1.398 . S
C2248 C2251 1.400 1_545 S
H2249 C2255 0.930 . S
C2250 H2236 0.930 . S
C2250 C2248 1.398 . S
C2250 C2253 1.403 . S
C2251 C2248 1.400 1_565 S
C2251 C2252 1.524 . S
C2251 C2255 1.400 . S
C2252 H2237 0.960 . S
C2252 H2238 0.960 . S
C2252 H2239 0.960 . S
C2252 C2251 1.524 . S
C2253 C2250 1.403 . S
C2253 C2254 1.392 . S
C2253 C2257 1.495 . S
C2254 C2253 1.392 . S
C2254 C2255 1.385 1_545 S
C2254 C2256 1.478 . S
C2255 H2249 0.930 . S
C2255 C2251 1.400 . S
C2255 C2254 1.385 1_565 S
C2256 C2254 1.478 . S
C2256 C2258 1.381 1_545 S
C2256 C2262 1.383 . S
C2257 C2253 1.495 . S
C2257 H2263 0.959 . S
C2257 H2264 0.961 . S
C2257 H2265 0.960 . S
C2258 C2256 1.381 1_565 S
C2258 C2259 1.394 . S
C2258 H2266 0.930 . S
C2259 C2258 1.394 . S
C2259 C2260 1.383 1_565 S
C2259 H2267 0.929 . S
C2260 C2259 1.383 1_545 S
C2260 C2261 1.377 . S
C2261 H2245 0.930 . S
C2261 C2260 1.377 . S
C2261 C2262 1.379 . S
C2262 H2246 0.931 . S
C2262 C2256 1.383 . S
C2262 C2261 1.379 . S
H2263 C2257 0.959 . S
H2264 C2257 0.961 . S
H2265 C2257 0.960 . S
H2266 C2258 0.930 . S
H2267 C2259 0.929 . S
H2268 C2276 0.929 . S
H2269 C2278 0.930 . S
H2270 C2280 0.930 . S
H2271 C2283 0.929 . S
H2272 C2286 0.930 . S
H2273 C2288 0.960 . S
H2274 C2288 0.960 . S
H2275 C2288 0.960 . S
C2276 H2268 0.929 . S
C2276 C2277 1.355 1_655 S
C2276 C2278 1.384 . S
C2277 C2276 1.355 1_455 S
C2277 C2283 1.413 . S
C2278 H2269 0.930 . S
C2278 C2276 1.384 . S
C2278 C2279 1.359 1_655 S
C2279 C2278 1.359 1_455 S
C2279 C2280 1.413 . S
C2279 C2284 1.490 . S
C2280 H2270 0.930 . S
C2280 C2279 1.413 . S
C2280 C2283 1.386 . S
H2281 C2297 0.930 . S
H2282 C2298 0.931 . S
C2283 H2271 0.929 . S
C2283 C2277 1.413 . S
C2283 C2280 1.386 . S
C2284 C2279 1.490 . S
C2284 C2286 1.424 . S
C2284 C2287 1.377 1_455 S
H2285 C2291 0.930 . S
C2286 H2272 0.930 . S
C2286 C2284 1.424 . S
C2286 C2289 1.403 . S
C2287 C2284 1.377 1_655 S
C2287 C2288 1.524 . S
C2287 C2291 1.400 . S
C2288 H2273 0.960 . S
C2288 H2274 0.960 . S
C2288 H2275 0.960 . S
C2288 C2287 1.524 . S
C2289 C2286 1.403 . S
C2289 C2290 1.392 . S
C2289 C2293 1.495 . S
C2290 C2289 1.392 . S
C2290 C2291 1.385 1_455 S
C2290 C2292 1.478 . S
C2291 H2285 0.930 . S
C2291 C2287 1.400 . S
C2291 C2290 1.385 1_655 S
C2292 C2290 1.478 . S
C2292 C2294 1.381 1_455 S
C2292 C2298 1.383 . S
C2293 C2289 1.495 . S
C2293 H2299 0.959 . S
C2293 H2300 0.961 . S
C2293 H2301 0.960 . S
C2294 C2292 1.381 1_655 S
C2294 C2295 1.394 . S
C2294 H2302 0.930 . S
C2295 C2294 1.394 . S
C2295 C2296 1.383 1_655 S
C2295 H2303 0.929 . S
C2296 C2295 1.383 1_455 S
C2296 C2297 1.377 . S
C2297 H2281 0.930 . S
C2297 C2296 1.377 . S
C2297 C2298 1.379 . S
C2298 H2282 0.931 . S
C2298 C2292 1.383 . S
C2298 C2297 1.379 . S
H2299 C2293 0.959 . S
H2300 C2293 0.961 . S
H2301 C2293 0.960 . S
H2302 C2294 0.930 . S
H2303 C2295 0.929 . S
H2304 C2312 0.929 . S
H2305 C2314 0.930 . S
H2306 C2316 0.930 . S
H2307 C2319 0.929 . S
H2308 C2322 0.930 . S
H2309 C2324 0.963 . S
H2310 C2324 0.932 1_565 S
H2311 C2324 0.987 . S
C2312 H2304 0.929 . S
C2312 C2313 1.368 1_565 S
C2312 C2314 1.384 . S
C2313 C2312 1.368 1_545 S
C2313 C2319 1.399 . S
C2314 H2305 0.930 . S
C2314 C2312 1.384 . S
C2314 C2315 1.395 . S
C2315 C2314 1.395 . S
C2315 C2316 1.376 1_565 S
C2315 C2320 1.490 . S
C2316 H2306 0.930 . S
C2316 C2315 1.376 1_545 S
C2316 C2319 1.386 . S
H2317 C2333 0.930 . S
H2318 C2334 0.931 . S
C2319 H2307 0.929 . S
C2319 C2313 1.399 . S
C2319 C2316 1.386 . S
C2320 C2315 1.490 . S
C2320 C2322 1.397 . S
C2320 C2323 1.401 1_565 S
H2321 C2327 0.934 . S
C2322 H2308 0.930 . S
C2322 C2320 1.397 . S
C2322 C2325 1.403 . S
C2323 C2320 1.401 1_545 S
C2323 C2324 1.524 . S
C2323 C2327 1.400 . S
C2324 H2309 0.963 . S
C2324 H2310 0.932 1_545 S
C2324 H2311 0.987 . S
C2324 C2323 1.524 . S
C2325 C2322 1.403 . S
C2325 C2326 1.394 . S
C2325 C2329 1.495 . S
C2326 C2325 1.394 . S
C2326 C2327 1.383 1_565 S
C2326 C2328 1.477 1_565 S
C2327 H2321 0.934 . S
C2327 C2323 1.400 . S
C2327 C2326 1.383 1_545 S
C2328 C2326 1.477 1_545 S
C2328 C2330 1.380 1_545 S
C2328 C2334 1.384 . S
C2329 C2325 1.495 . S
C2329 H2335 0.959 . S
C2329 H2336 0.961 1_565 S
C2329 H2337 0.960 . S
C2330 C2328 1.380 1_565 S
C2330 C2331 1.394 . S
C2330 H2338 0.930 . S
C2331 C2330 1.394 . S
C2331 C2332 1.365 1_565 S
C2331 H2339 0.929 . S
C2332 C2331 1.365 1_545 S
C2332 C2333 1.395 . S
C2333 H2317 0.930 . S
C2333 C2332 1.395 . S
C2333 C2334 1.379 . S
C2334 H2318 0.931 . S
C2334 C2328 1.384 . S
C2334 C2333 1.379 . S
H2335 C2329 0.959 . S
H2336 C2329 0.961 1_545 S
H2337 C2329 0.960 . S
H2338 C2330 0.930 . S
H2339 C2331 0.929 . S
H2340 C2348 0.929 . S
H2341 C2350 0.930 . S
H2342 C2352 0.930 . S
H2343 C2355 0.929 . S
H2344 C2358 0.930 . S
H2345 C2360 0.960 . S
H2346 C2360 0.960 . S
H2347 C2360 0.960 . S
C2348 H2340 0.929 . S
C2348 C2349 1.377 1_655 S
C2348 C2350 1.384 . S
C2349 C2348 1.377 1_455 S
C2349 C2355 1.390 . S
C2350 H2341 0.930 . S
C2350 C2348 1.384 . S
C2350 C2351 1.363 1_655 S
C2351 C2350 1.363 1_455 S
C2351 C2352 1.408 . S
C2351 C2356 1.490 1_455 S
C2352 H2342 0.930 . S
C2352 C2351 1.408 . S
C2352 C2355 1.386 . S
H2353 C2369 0.930 . S
H2354 C2370 0.931 . S
C2355 H2343 0.929 . S
C2355 C2349 1.390 . S
C2355 C2352 1.386 . S
C2356 C2351 1.490 1_655 S
C2356 C2358 1.395 . S
C2356 C2359 1.402 1_655 S
H2357 C2363 0.930 . S
C2358 H2344 0.930 . S
C2358 C2356 1.395 . S
C2358 C2361 1.403 . S
C2359 C2356 1.402 1_455 S
C2359 C2360 1.524 . S
C2359 C2363 1.400 . S
C2360 H2345 0.960 . S
C2360 H2346 0.960 . S
C2360 H2347 0.960 . S
C2360 C2359 1.524 . S
C2361 C2358 1.403 . S
C2361 C2362 1.392 . S
C2361 C2365 1.495 . S
C2362 C2361 1.392 . S
C2362 C2363 1.385 1_655 S
C2362 C2364 1.479 . S
C2363 H2357 0.930 . S
C2363 C2359 1.400 . S
C2363 C2362 1.385 1_455 S
C2364 C2362 1.479 . S
C2364 C2366 1.425 . S
C2364 C2370 1.338 1_655 S
C2365 C2361 1.495 . S
C2365 H2371 0.959 . S
C2365 H2372 0.961 . S
C2365 H2373 0.960 . S
C2366 C2364 1.425 . S
C2366 C2367 1.394 . S
C2366 H2374 0.930 . S
C2367 C2366 1.394 . S
C2367 C2368 1.344 1_655 S
C2367 H2375 0.929 . S
C2368 C2367 1.344 1_455 S
C2368 C2369 1.414 . S
C2369 H2353 0.930 . S
C2369 C2368 1.414 . S
C2369 C2370 1.379 . S
C2370 H2354 0.931 . S
C2370 C2364 1.338 1_455 S
C2370 C2369 1.379 . S
H2371 C2365 0.959 . S
H2372 C2365 0.961 . S
H2373 C2365 0.960 . S
H2374 C2366 0.930 . S
H2375 C2367 0.929 . S
H2376 C2384 0.929 . S
H2377 C2386 0.930 . S
H2378 C2388 0.930 . S
H2379 C2391 0.929 . S
H2380 C2394 0.930 . S
H2381 C2396 0.960 . S
H2382 C2396 0.960 . S
H2383 C2396 0.960 . S
C2384 H2376 0.929 . S
C2384 C2385 1.404 . S
C2384 C2386 1.384 . S
C2385 C2384 1.404 . S
C2385 C2391 1.364 1_545 S
C2386 H2377 0.930 . S
C2386 C2384 1.384 . S
C2386 C2387 1.372 . S
C2387 C2386 1.372 . S
C2387 C2388 1.400 1_545 S
C2387 C2392 1.490 . S
C2388 H2378 0.930 . S
C2388 C2387 1.400 1_565 S
C2388 C2391 1.386 . S
H2389 C2405 0.930 . S
H2390 C2406 0.931 . S
C2391 H2379 0.929 . S
C2391 C2385 1.364 1_565 S
C2391 C2388 1.386 . S
C2392 C2387 1.490 . S
C2392 C2394 1.395 . S
C2392 C2395 1.403 1_545 S
H2393 C2399 0.930 . S
C2394 H2380 0.930 . S
C2394 C2392 1.395 . S
C2394 C2397 1.403 . S
C2395 C2392 1.403 1_565 S
C2395 C2396 1.524 . S
C2395 C2399 1.400 . S
C2396 H2381 0.960 . S
C2396 H2382 0.960 . S
C2396 H2383 0.960 . S
C2396 C2395 1.524 . S
C2397 C2394 1.403 . S
C2397 C2398 1.392 . S
C2397 C2401 1.495 . S
C2398 C2397 1.392 . S
C2398 C2399 1.385 1_545 S
C2398 C2400 1.478 . S
C2399 H2393 0.930 . S
C2399 C2395 1.400 . S
C2399 C2398 1.385 1_565 S
C2400 C2398 1.478 . S
C2400 C2402 1.381 . S
C2400 C2406 1.383 1_545 S
C2401 C2397 1.495 . S
C2401 H2407 0.959 . S
C2401 H2408 0.961 . S
C2401 H2409 0.960 . S
C2402 C2400 1.381 . S
C2402 C2403 1.394 . S
C2402 H2410 0.930 . S
C2403 C2402 1.394 . S
C2403 C2404 1.383 . S
C2403 H2411 0.929 . S
C2404 C2403 1.383 . S
C2404 C2405 1.377 1_545 S
C2405 H2389 0.930 . S
C2405 C2404 1.377 1_565 S
C2405 C2406 1.379 . S
C2406 H2390 0.931 . S
C2406 C2400 1.383 1_565 S
C2406 C2405 1.379 . S
H2407 C2401 0.959 . S
H2408 C2401 0.961 . S
H2409 C2401 0.960 . S
H2410 C2402 0.930 . S
H2411 C2403 0.929 . S
H2412 C2420 0.929 . S
H2413 C2422 0.930 . S
H2414 C2424 0.930 . S
H2415 C2427 0.929 . S
H2416 C2430 0.930 . S
H2417 C2432 0.960 . S
H2418 C2432 0.960 . S
H2419 C2432 0.960 . S
C2420 H2412 0.929 . S
C2420 C2421 1.362 1_565 S
C2420 C2422 1.384 . S
C2421 C2420 1.362 1_545 S
C2421 C2427 1.406 . S
C2422 H2413 0.930 . S
C2422 C2420 1.384 . S
C2422 C2423 1.373 1_565 S
C2423 C2422 1.373 1_545 S
C2423 C2424 1.398 . S
C2423 C2428 1.489 1_545 S
C2424 H2414 0.930 . S
C2424 C2423 1.398 . S
C2424 C2427 1.386 . S
H2425 C2441 0.930 . S
H2426 C2442 0.931 . S
C2427 H2415 0.929 . S
C2427 C2421 1.406 . S
C2427 C2424 1.386 . S
C2428 C2423 1.489 1_565 S
C2428 C2430 1.427 . S
C2428 C2431 1.372 1_565 S
H2429 C2435 0.930 . S
C2430 H2416 0.930 . S
C2430 C2428 1.427 . S
C2430 C2433 1.403 . S
C2431 C2428 1.372 1_545 S
C2431 C2432 1.524 . S
C2431 C2435 1.400 . S
C2432 H2417 0.960 . S
C2432 H2418 0.960 . S
C2432 H2419 0.960 . S
C2432 C2431 1.524 . S
C2433 C2430 1.403 . S
C2433 C2434 1.392 . S
C2433 C2437 1.495 . S
C2434 C2433 1.392 . S
C2434 C2435 1.385 1_565 S
C2434 C2436 1.478 . S
C2435 H2429 0.930 . S
C2435 C2431 1.400 . S
C2435 C2434 1.385 1_545 S
C2436 C2434 1.478 . S
C2436 C2438 1.381 . S
C2436 C2442 1.383 1_565 S
C2437 C2433 1.495 . S
C2437 H2443 0.959 . S
C2437 H2444 0.961 . S
C2437 H2445 0.960 . S
C2438 C2436 1.381 . S
C2438 C2439 1.394 . S
C2438 H2446 0.930 . S
C2439 C2438 1.394 . S
C2439 C2440 1.407 . S
C2439 H2447 0.929 . S
C2440 C2439 1.407 . S
C2440 C2441 1.358 1_565 S
C2441 H2425 0.930 . S
C2441 C2440 1.358 1_545 S
C2441 C2442 1.379 . S
C2442 H2426 0.931 . S
C2442 C2436 1.383 1_545 S
C2442 C2441 1.379 . S
H2443 C2437 0.959 . S
H2444 C2437 0.961 . S
H2445 C2437 0.960 . S
H2446 C2438 0.930 . S
H2447 C2439 0.929 . S
H2448 C2456 0.929 . S
H2449 C2458 0.930 . S
H2450 C2460 0.930 . S
H2451 C2463 0.929 . S
H2452 C2466 0.930 . S
H2453 C2468 0.960 . S
H2454 C2468 0.960 . S
H2455 C2468 0.960 . S
C2456 H2448 0.929 . S
C2456 C2457 1.361 1_655 S
C2456 C2458 1.384 . S
C2457 C2456 1.361 1_455 S
C2457 C2463 1.406 . S
C2458 H2449 0.930 . S
C2458 C2456 1.384 . S
C2458 C2459 1.370 1_655 S
C2459 C2458 1.370 1_455 S
C2459 C2460 1.402 . S
C2459 C2464 1.490 . S
C2460 H2450 0.930 . S
C2460 C2459 1.402 . S
C2460 C2463 1.386 . S
H2461 C2477 0.930 . S
H2462 C2478 0.931 . S
C2463 H2451 0.929 . S
C2463 C2457 1.406 . S
C2463 C2460 1.386 . S
C2464 C2459 1.490 . S
C2464 C2466 1.407 . S
C2464 C2467 1.392 1_455 S
H2465 C2471 0.930 . S
C2466 H2452 0.930 . S
C2466 C2464 1.407 . S
C2466 C2469 1.403 . S
C2467 C2464 1.392 1_655 S
C2467 C2468 1.524 . S
C2467 C2471 1.400 . S
C2468 H2453 0.960 . S
C2468 H2454 0.960 . S
C2468 H2455 0.960 . S
C2468 C2467 1.524 . S
C2469 C2466 1.403 . S
C2469 C2470 1.392 . S
C2469 C2473 1.495 . S
C2470 C2469 1.392 . S
C2470 C2471 1.385 1_455 S
C2470 C2472 1.478 . S
C2471 H2465 0.930 . S
C2471 C2467 1.400 . S
C2471 C2470 1.385 1_655 S
C2472 C2470 1.478 . S
C2472 C2474 1.381 1_455 S
C2472 C2478 1.383 . S
C2473 C2469 1.495 . S
C2473 H2479 0.959 . S
C2473 H2480 0.961 . S
C2473 H2481 0.960 . S
C2474 C2472 1.381 1_655 S
C2474 C2475 1.394 . S
C2474 H2482 0.930 . S
C2475 C2474 1.394 . S
C2475 C2476 1.383 1_655 S
C2475 H2483 0.929 . S
C2476 C2475 1.383 1_455 S
C2476 C2477 1.377 . S
C2477 H2461 0.930 . S
C2477 C2476 1.377 . S
C2477 C2478 1.379 . S
C2478 H2462 0.931 . S
C2478 C2472 1.383 . S
C2478 C2477 1.379 . S
H2479 C2473 0.959 . S
H2480 C2473 0.961 . S
H2481 C2473 0.960 . S
H2482 C2474 0.930 . S
H2483 C2475 0.929 . S
H2484 C2492 0.929 . S
H2485 C2494 0.930 . S
H2486 C2496 0.930 . S
H2487 C2499 0.929 . S
H2488 C2502 0.930 . S
H2489 C2504 0.960 . S
H2490 C2504 0.960 1_545 S
H2491 C2504 0.960 . S
C2492 H2484 0.929 . S
C2492 C2493 1.415 . S
C2492 C2494 1.384 . S
C2493 C2492 1.415 . S
C2493 C2499 1.353 1_545 S
C2494 H2485 0.930 . S
C2494 C2492 1.384 . S
C2494 C2495 1.372 . S
C2495 C2494 1.372 . S
C2495 C2496 1.400 1_545 S
C2495 C2500 1.490 . S
C2496 H2486 0.930 . S
C2496 C2495 1.400 1_565 S
C2496 C2499 1.386 . S
H2497 C2513 0.930 . S
H2498 C2514 0.931 . S
C2499 H2487 0.929 . S
C2499 C2493 1.353 1_565 S
C2499 C2496 1.386 . S
C2500 C2495 1.490 . S
C2500 C2502 1.395 . S
C2500 C2503 1.399 1_545 S
H2501 C2507 0.937 . S
C2502 H2488 0.930 . S
C2502 C2500 1.395 . S
C2502 C2505 1.403 . S
C2503 C2500 1.399 1_565 S
C2503 C2504 1.527 . S
C2503 C2507 1.400 . S
C2504 H2489 0.960 . S
C2504 H2490 0.960 1_565 S
C2504 H2491 0.960 . S
C2504 C2503 1.527 . S
C2505 C2502 1.403 . S
C2505 C2506 1.392 . S
C2505 C2509 1.495 . S
C2506 C2505 1.392 . S
C2506 C2507 1.381 1_545 S
C2506 C2508 1.478 . S
C2507 H2501 0.937 . S
C2507 C2503 1.400 . S
C2507 C2506 1.381 1_565 S
C2508 C2506 1.478 . S
C2508 C2510 1.381 . S
C2508 C2514 1.383 1_545 S
C2509 C2505 1.495 . S
C2509 H2515 0.959 . S
C2509 H2516 0.961 1_545 S
C2509 H2517 0.960 . S
C2510 C2508 1.381 . S
C2510 C2511 1.394 . S
C2510 H2518 0.930 . S
C2511 C2510 1.394 . S
C2511 C2512 1.415 . S
C2511 H2519 0.929 . S
C2512 C2511 1.415 . S
C2512 C2513 1.346 1_545 S
C2513 H2497 0.930 . S
C2513 C2512 1.346 1_565 S
C2513 C2514 1.379 . S
C2514 H2498 0.931 . S
C2514 C2508 1.383 1_565 S
C2514 C2513 1.379 . S
H2515 C2509 0.959 . S
H2516 C2509 0.961 1_565 S
H2517 C2509 0.960 . S
H2518 C2510 0.930 . S
H2519 C2511 0.929 . S
H2520 C2528 0.929 . S
H2521 C2530 0.930 . S
H2522 C2532 0.930 . S
H2523 C2535 0.929 . S
H2524 C2538 0.930 . S
H2525 C2540 0.960 . S
H2526 C2540 0.960 . S
H2527 C2540 0.960 . S
C2528 H2520 0.929 . S
C2528 C2529 1.377 . S
C2528 C2530 1.384 . S
C2529 C2528 1.377 . S
C2529 C2535 1.390 1_455 S
C2530 H2521 0.930 . S
C2530 C2528 1.384 . S
C2530 C2531 1.372 . S
C2531 C2530 1.372 . S
C2531 C2532 1.400 1_455 S
C2531 C2536 1.490 . S
C2532 H2522 0.930 . S
C2532 C2531 1.400 1_655 S
C2532 C2535 1.386 . S
H2533 C2549 0.930 . S
H2534 C2550 0.931 . S
C2535 H2523 0.929 . S
C2535 C2529 1.390 1_655 S
C2535 C2532 1.386 . S
C2536 C2531 1.490 . S
C2536 C2538 1.395 1_455 S
C2536 C2539 1.403 . S
H2537 C2543 0.930 . S
C2538 H2524 0.930 . S
C2538 C2536 1.395 1_655 S
C2538 C2541 1.403 . S
C2539 C2536 1.403 . S
C2539 C2540 1.524 . S
C2539 C2543 1.400 . S
C2540 H2525 0.960 . S
C2540 H2526 0.960 . S
C2540 H2527 0.960 . S
C2540 C2539 1.524 . S
C2541 C2538 1.403 . S
C2541 C2542 1.389 1_655 S
C2541 C2545 1.495 . S
C2542 C2541 1.389 1_455 S
C2542 C2543 1.390 . S
C2542 C2544 1.477 1_455 S
C2543 H2537 0.930 . S
C2543 C2539 1.400 . S
C2543 C2542 1.390 . S
C2544 C2542 1.477 1_655 S
C2544 C2546 1.378 1_655 S
C2544 C2550 1.386 . S
C2545 C2541 1.495 . S
C2545 H2551 0.959 . S
C2545 H2552 0.961 . S
C2545 H2553 0.960 1_655 S
C2546 C2544 1.378 1_455 S
C2546 C2547 1.394 . S
C2546 H2554 0.930 . S
C2547 C2546 1.394 . S
C2547 C2548 1.390 . S
C2547 H2555 0.929 . S
C2548 C2547 1.390 . S
C2548 C2549 1.370 1_455 S
C2549 H2533 0.930 . S
C2549 C2548 1.370 1_655 S
C2549 C2550 1.379 . S
C2550 H2534 0.931 . S
C2550 C2544 1.386 . S
C2550 C2549 1.379 . S
H2551 C2545 0.959 . S
H2552 C2545 0.961 . S
H2553 C2545 0.960 1_455 S
H2554 C2546 0.930 . S
H2555 C2547 0.929 . S
H2556 C2564 0.929 . S
H2557 C2566 0.930 . S
H2558 C2568 0.930 . S
H2559 C2571 0.929 . S
H2560 C2574 0.930 . S
H2561 C2576 0.960 . S
H2562 C2576 0.960 . S
H2563 C2576 0.960 . S
C2564 H2556 0.929 . S
C2564 C2565 1.371 1_565 S
C2564 C2566 1.384 . S
C2565 C2564 1.371 1_545 S
C2565 C2571 1.396 . S
C2566 H2557 0.930 . S
C2566 C2564 1.384 . S
C2566 C2567 1.371 . S
C2567 C2566 1.371 . S
C2567 C2568 1.400 1_565 S
C2567 C2572 1.490 1_565 S
C2568 H2558 0.930 . S
C2568 C2567 1.400 1_545 S
C2568 C2571 1.386 . S
H2569 C2585 0.930 . S
H2570 C2586 0.931 . S
C2571 H2559 0.929 . S
C2571 C2565 1.396 . S
C2571 C2568 1.386 . S
C2572 C2567 1.490 1_545 S
C2572 C2574 1.400 . S
C2572 C2575 1.398 1_545 S
H2573 C2579 0.930 . S
C2574 H2560 0.930 . S
C2574 C2572 1.400 . S
C2574 C2577 1.403 . S
C2575 C2572 1.398 1_565 S
C2575 C2576 1.524 . S
C2575 C2579 1.400 . S
C2576 H2561 0.960 . S
C2576 H2562 0.960 . S
C2576 H2563 0.960 . S
C2576 C2575 1.524 . S
C2577 C2574 1.403 . S
C2577 C2578 1.392 . S
C2577 C2581 1.495 . S
C2578 C2577 1.392 . S
C2578 C2579 1.385 1_545 S
C2578 C2580 1.478 . S
C2579 H2573 0.930 . S
C2579 C2575 1.400 . S
C2579 C2578 1.385 1_565 S
C2580 C2578 1.478 . S
C2580 C2582 1.381 1_545 S
C2580 C2586 1.383 . S
C2581 C2577 1.495 . S
C2581 H2587 0.959 . S
C2581 H2588 0.961 . S
C2581 H2589 0.960 . S
C2582 C2580 1.381 1_565 S
C2582 C2583 1.394 . S
C2582 H2590 0.930 . S
C2583 C2582 1.394 . S
C2583 C2584 1.383 1_565 S
C2583 H2591 0.929 . S
C2584 C2583 1.383 1_545 S
C2584 C2585 1.377 . S
C2585 H2569 0.930 . S
C2585 C2584 1.377 . S
C2585 C2586 1.379 . S
C2586 H2570 0.931 . S
C2586 C2580 1.383 . S
C2586 C2585 1.379 . S
H2587 C2581 0.959 . S
H2588 C2581 0.961 . S
H2589 C2581 0.960 . S
H2590 C2582 0.930 . S
H2591 C2583 0.929 . S
H2592 C2600 0.929 . S
H2593 C2602 0.930 . S
H2594 C2604 0.930 . S
H2595 C2607 0.929 . S
H2596 C2610 0.930 . S
H2597 C2612 0.960 . S
H2598 C2612 0.960 . S
H2599 C2612 0.960 . S
C2600 H2592 0.929 . S
C2600 C2601 1.377 . S
C2600 C2602 1.384 . S
C2601 C2600 1.377 . S
C2601 C2607 1.392 . S
C2602 H2593 0.930 . S
C2602 C2600 1.384 . S
C2602 C2603 1.372 . S
C2603 C2602 1.372 . S
C2603 C2604 1.402 . S
C2603 C2608 1.491 . S
C2604 H2594 0.930 . S
C2604 C2603 1.402 . S
C2604 C2607 1.386 . S
H2605 C2621 0.930 . S
H2606 C2622 0.931 . S
C2607 H2595 0.929 . S
C2607 C2601 1.392 . S
C2607 C2604 1.386 . S
C2608 C2603 1.491 . S
C2608 C2610 1.371 1_455 S
C2608 C2611 1.425 . S
H2609 C2615 0.930 . S
C2610 H2596 0.930 . S
C2610 C2608 1.371 1_655 S
C2610 C2613 1.403 . S
C2611 C2608 1.425 . S
C2611 C2612 1.524 . S
C2611 C2615 1.400 . S
C2612 H2597 0.960 . S
C2612 H2598 0.960 . S
C2612 H2599 0.960 . S
C2612 C2611 1.524 . S
C2613 C2610 1.403 . S
C2613 C2614 1.392 . S
C2613 C2617 1.495 . S
C2614 C2613 1.392 . S
C2614 C2615 1.385 1_655 S
C2614 C2616 1.478 . S
C2615 H2609 0.930 . S
C2615 C2611 1.400 . S
C2615 C2614 1.385 1_455 S
C2616 C2614 1.478 . S
C2616 C2618 1.380 1_655 S
C2616 C2622 1.383 . S
C2617 C2613 1.495 . S
C2617 H2623 0.959 . S
C2617 H2624 0.961 . S
C2617 H2625 0.960 . S
C2618 C2616 1.380 1_455 S
C2618 C2619 1.395 . S
C2618 H2626 0.931 . S
C2619 C2618 1.395 . S
C2619 C2620 1.381 1_455 S
C2619 H2627 0.929 . S
C2620 C2619 1.381 1_655 S
C2620 C2621 1.381 . S
C2621 H2605 0.930 . S
C2621 C2620 1.381 . S
C2621 C2622 1.379 . S
C2622 H2606 0.931 . S
C2622 C2616 1.383 . S
C2622 C2621 1.379 . S
H2623 C2617 0.959 . S
H2624 C2617 0.961 . S
H2625 C2617 0.960 . S
H2626 C2618 0.931 . S
H2627 C2619 0.929 . S
H2628 C2636 0.929 . S
H2629 C2638 0.930 . S
H2630 C2640 0.930 . S
H2631 C2643 0.929 . S
H2632 C2646 0.930 . S
H2633 C2648 0.960 . S
H2634 C2648 0.960 . S
H2635 C2648 0.960 . S
C2636 H2628 0.929 . S
C2636 C2637 1.373 1_565 S
C2636 C2638 1.384 . S
C2637 C2636 1.373 1_545 S
C2637 C2643 1.394 . S
C2638 H2629 0.930 . S
C2638 C2636 1.384 . S
C2638 C2639 1.370 1_565 S
C2639 C2638 1.370 1_545 S
C2639 C2640 1.401 . S
C2639 C2644 1.489 . S
C2640 H2630 0.930 . S
C2640 C2639 1.401 . S
C2640 C2643 1.386 . S
H2641 C2657 0.930 . S
H2642 C2658 0.931 . S
C2643 H2631 0.929 . S
C2643 C2637 1.394 . S
C2643 C2640 1.386 . S
C2644 C2639 1.489 . S
C2644 C2646 1.424 . S
C2644 C2647 1.376 1_545 S
H2645 C2651 0.930 . S
C2646 H2632 0.930 . S
C2646 C2644 1.424 . S
C2646 C2649 1.403 . S
C2647 C2644 1.376 1_565 S
C2647 C2648 1.524 . S
C2647 C2651 1.400 . S
C2648 H2633 0.960 . S
C2648 H2634 0.960 . S
C2648 H2635 0.960 . S
C2648 C2647 1.524 . S
C2649 C2646 1.403 . S
C2649 C2650 1.392 . S
C2649 C2653 1.495 . S
C2650 C2649 1.392 . S
C2650 C2651 1.385 1_545 S
C2650 C2652 1.478 . S
C2651 H2645 0.930 . S
C2651 C2647 1.400 . S
C2651 C2650 1.385 1_565 S
C2652 C2650 1.478 . S
C2652 C2654 1.381 1_545 S
C2652 C2658 1.383 . S
C2653 C2649 1.495 . S
C2653 H2659 0.959 . S
C2653 H2660 0.961 . S
C2653 H2661 0.960 . S
C2654 C2652 1.381 1_565 S
C2654 C2655 1.394 . S
C2654 H2662 0.930 . S
C2655 C2654 1.394 . S
C2655 C2656 1.383 1_565 S
C2655 H2663 0.929 . S
C2656 C2655 1.383 1_545 S
C2656 C2657 1.377 . S
C2657 H2641 0.930 . S
C2657 C2656 1.377 . S
C2657 C2658 1.379 . S
C2658 H2642 0.931 . S
C2658 C2652 1.383 . S
C2658 C2657 1.379 . S
H2659 C2653 0.959 . S
H2660 C2653 0.961 . S
H2661 C2653 0.960 . S
H2662 C2654 0.930 . S
H2663 C2655 0.929 . S
H2664 C2672 0.929 . S
H2665 C2674 0.930 . S
H2666 C2676 0.930 . S
H2667 C2679 0.929 . S
H2668 C2682 0.930 . S
H2669 C2684 0.960 . S
H2670 C2684 0.960 . S
H2671 C2684 0.960 . S
C2672 H2664 0.929 . S
C2672 C2673 1.388 . S
C2672 C2674 1.384 . S
C2673 C2672 1.388 . S
C2673 C2679 1.380 1_455 S
C2674 H2665 0.930 . S
C2674 C2672 1.384 . S
C2674 C2675 1.387 . S
C2675 C2674 1.387 . S
C2675 C2676 1.386 1_455 S
C2675 C2680 1.493 . S
C2676 H2666 0.930 . S
C2676 C2675 1.386 1_655 S
C2676 C2679 1.386 . S
H2677 C2693 0.927 1_655 S
H2678 C2694 0.933 . S
C2679 H2667 0.929 . S
C2679 C2673 1.380 1_655 S
C2679 C2676 1.386 . S
C2680 C2675 1.493 . S
C2680 C2682 1.395 . S
C2680 C2683 1.403 1_455 S
H2681 C2687 0.930 . S
C2682 H2668 0.930 . S
C2682 C2680 1.395 . S
C2682 C2685 1.403 . S
C2683 C2680 1.403 1_655 S
C2683 C2684 1.524 . S
C2683 C2687 1.400 . S
C2684 H2669 0.960 . S
C2684 H2670 0.960 . S
C2684 H2671 0.960 . S
C2684 C2683 1.524 . S
C2685 C2682 1.403 . S
C2685 C2686 1.392 . S
C2685 C2689 1.495 . S
C2686 C2685 1.392 . S
C2686 C2687 1.385 1_455 S
C2686 C2688 1.478 . S
C2687 H2681 0.930 . S
C2687 C2683 1.400 . S
C2687 C2686 1.385 1_655 S
C2688 C2686 1.478 . S
C2688 C2690 1.381 . S
C2688 C2694 1.383 . S
C2689 C2685 1.495 . S
C2689 H2695 0.959 . S
C2689 H2696 0.961 . S
C2689 H2697 0.960 . S
C2690 C2688 1.381 . S
C2690 C2691 1.394 . S
C2690 H2698 0.930 . S
C2691 C2690 1.394 . S
C2691 C2692 1.383 . S
C2691 H2699 0.929 . S
C2692 C2691 1.383 . S
C2692 C2693 1.378 . S
C2693 H2677 0.927 1_455 S
C2693 C2692 1.378 . S
C2693 C2694 1.381 . S
C2694 H2678 0.933 . S
C2694 C2688 1.383 . S
C2694 C2693 1.381 . S
H2695 C2689 0.959 . S
H2696 C2689 0.961 . S
H2697 C2689 0.960 . S
H2698 C2690 0.930 . S
H2699 C2691 0.929 . S
H2700 C2708 0.929 . S
H2701 C2710 0.930 . S
H2702 C2712 0.930 . S
H2703 C2715 0.929 . S
H2704 C2718 0.930 . S
H2705 C2720 0.960 . S
H2706 C2720 0.960 1_554 S
H2707 C2720 0.960 . S
C2708 H2700 0.929 . S
C2708 C2709 1.429 . S
C2708 C2710 1.384 . S
C2709 C2708 1.429 . S
C2709 C2715 1.340 1_554 S
C2710 H2701 0.930 . S
C2710 C2708 1.384 . S
C2710 C2711 1.372 . S
C2711 C2710 1.372 . S
C2711 C2712 1.400 1_554 S
C2711 C2716 1.490 . S
C2712 H2702 0.930 . S
C2712 C2711 1.400 1_556 S
C2712 C2715 1.386 . S
H2713 C2729 0.930 . S
H2714 C2730 0.931 . S
C2715 H2703 0.929 . S
C2715 C2709 1.340 1_556 S
C2715 C2712 1.386 . S
C2716 C2711 1.490 . S
C2716 C2718 1.395 . S
C2716 C2719 1.403 1_554 S
H2717 C2723 0.930 . S
C2718 H2704 0.930 . S
C2718 C2716 1.395 . S
C2718 C2721 1.403 . S
C2719 C2716 1.403 1_556 S
C2719 C2720 1.524 . S
C2719 C2723 1.400 . S
C2720 H2705 0.960 . S
C2720 H2706 0.960 1_556 S
C2720 H2707 0.960 . S
C2720 C2719 1.524 . S
C2721 C2718 1.403 . S
C2721 C2722 1.392 . S
C2721 C2725 1.495 . S
C2722 C2721 1.392 . S
C2722 C2723 1.385 1_554 S
C2722 C2724 1.478 . S
C2723 H2717 0.930 . S
C2723 C2719 1.400 . S
C2723 C2722 1.385 1_556 S
C2724 C2722 1.478 . S
C2724 C2726 1.381 . S
C2724 C2730 1.383 1_554 S
C2725 C2721 1.495 . S
C2725 H2731 0.959 . S
C2725 H2732 0.961 . S
C2725 H2733 0.960 . S
C2726 C2724 1.381 . S
C2726 C2727 1.394 . S
C2726 H2734 0.930 . S
C2727 C2726 1.394 . S
C2727 C2728 1.383 . S
C2727 H2735 0.929 . S
C2728 C2727 1.383 . S
C2728 C2729 1.377 1_554 S
C2729 H2713 0.930 . S
C2729 C2728 1.377 1_556 S
C2729 C2730 1.379 . S
C2730 H2714 0.931 . S
C2730 C2724 1.383 1_556 S
C2730 C2729 1.379 . S
H2731 C2725 0.959 . S
H2732 C2725 0.961 . S
H2733 C2725 0.960 . S
H2734 C2726 0.930 . S
H2735 C2727 0.929 . S
H2736 C2744 0.929 . S
H2737 C2746 0.930 . S
H2738 C2748 0.930 . S
H2739 C2751 0.929 . S
H2740 C2754 0.930 . S
H2741 C2756 0.960 . S
H2742 C2756 0.960 . S
H2743 C2756 0.924 1_556 S
C2744 H2736 0.929 . S
C2744 C2745 1.414 . S
C2744 C2746 1.384 . S
C2745 C2744 1.414 . S
C2745 C2751 1.355 1_554 S
C2746 H2737 0.930 . S
C2746 C2744 1.384 . S
C2746 C2747 1.372 . S
C2747 C2746 1.372 . S
C2747 C2748 1.400 1_554 S
C2747 C2752 1.490 . S
C2748 H2738 0.930 . S
C2748 C2747 1.400 1_556 S
C2748 C2751 1.386 . S
H2749 C2765 0.930 . S
H2750 C2766 0.931 . S
C2751 H2739 0.929 . S
C2751 C2745 1.355 1_556 S
C2751 C2748 1.386 . S
C2752 C2747 1.490 . S
C2752 C2754 1.395 1_554 S
C2752 C2755 1.403 . S
H2753 C2759 0.930 . S
C2754 H2740 0.930 . S
C2754 C2752 1.395 1_556 S
C2754 C2757 1.403 . S
C2755 C2752 1.403 . S
C2755 C2756 1.524 . S
C2755 C2759 1.400 . S
C2756 H2741 0.960 . S
C2756 H2742 0.960 . S
C2756 H2743 0.924 1_554 S
C2756 C2755 1.524 . S
C2757 C2754 1.403 . S
C2757 C2758 1.388 1_556 S
C2757 C2761 1.495 . S
C2758 C2757 1.388 1_554 S
C2758 C2759 1.391 . S
C2758 C2760 1.477 . S
C2759 H2753 0.930 . S
C2759 C2755 1.400 . S
C2759 C2758 1.391 . S
C2760 C2758 1.477 . S
C2760 C2762 1.378 . S
C2760 C2766 1.386 1_554 S
C2761 C2757 1.495 . S
C2761 H2767 0.959 . S
C2761 H2768 0.961 . S
C2761 H2769 0.960 1_556 S
C2762 C2760 1.378 . S
C2762 C2763 1.394 . S
C2762 H2770 0.930 . S
C2763 C2762 1.394 . S
C2763 C2764 1.397 . S
C2763 H2771 0.929 . S
C2764 C2763 1.397 . S
C2764 C2765 1.364 1_554 S
C2765 H2749 0.930 . S
C2765 C2764 1.364 1_556 S
C2765 C2766 1.379 . S
C2766 H2750 0.931 . S
C2766 C2760 1.386 1_556 S
C2766 C2765 1.379 . S
H2767 C2761 0.959 . S
H2768 C2761 0.961 . S
H2769 C2761 0.960 1_554 S
H2770 C2762 0.930 . S
H2771 C2763 0.929 . S
H2772 C2780 0.929 . S
H2773 C2782 0.930 . S
H2774 C2784 0.930 . S
H2775 C2787 0.929 . S
H2776 C2790 0.930 . S
H2777 C2792 0.960 . S
H2778 C2792 0.960 1_554 S
H2779 C2792 0.960 . S
C2780 H2772 0.929 . S
C2780 C2781 1.420 . S
C2780 C2782 1.384 . S
C2781 C2780 1.420 . S
C2781 C2787 1.348 1_554 S
C2782 H2773 0.930 . S
C2782 C2780 1.384 . S
C2782 C2783 1.372 . S
C2783 C2782 1.372 . S
C2783 C2784 1.400 1_554 S
C2783 C2788 1.490 . S
C2784 H2774 0.930 . S
C2784 C2783 1.400 1_556 S
C2784 C2787 1.386 . S
H2785 C2801 0.930 . S
H2786 C2802 0.931 . S
C2787 H2775 0.929 . S
C2787 C2781 1.348 1_556 S
C2787 C2784 1.386 . S
C2788 C2783 1.490 . S
C2788 C2790 1.395 . S
C2788 C2791 1.403 1_554 S
H2789 C2795 0.930 . S
C2790 H2776 0.930 . S
C2790 C2788 1.395 . S
C2790 C2793 1.403 . S
C2791 C2788 1.403 1_556 S
C2791 C2792 1.524 . S
C2791 C2795 1.400 . S
C2792 H2777 0.960 . S
C2792 H2778 0.960 1_556 S
C2792 H2779 0.960 . S
C2792 C2791 1.524 . S
C2793 C2790 1.403 . S
C2793 C2794 1.392 . S
C2793 C2797 1.495 . S
C2794 C2793 1.392 . S
C2794 C2795 1.385 1_554 S
C2794 C2796 1.478 . S
C2795 H2789 0.930 . S
C2795 C2791 1.400 . S
C2795 C2794 1.385 1_556 S
C2796 C2794 1.478 . S
C2796 C2798 1.381 . S
C2796 C2802 1.383 1_554 S
C2797 C2793 1.495 . S
C2797 H2803 0.959 . S
C2797 H2804 0.998 . S
C2797 H2805 0.960 . S
C2798 C2796 1.381 . S
C2798 C2799 1.394 . S
C2798 H2806 0.930 . S
C2799 C2798 1.394 . S
C2799 C2800 1.416 . S
C2799 H2807 0.929 . S
C2800 C2799 1.416 . S
C2800 C2801 1.345 1_554 S
C2801 H2785 0.930 . S
C2801 C2800 1.345 1_556 S
C2801 C2802 1.379 . S
C2802 H2786 0.931 . S
C2802 C2796 1.383 1_556 S
C2802 C2801 1.379 . S
H2803 C2797 0.959 . S
H2804 C2797 0.998 . S
H2805 C2797 0.960 . S
H2806 C2798 0.930 . S
H2807 C2799 0.929 . S
H2808 C2816 0.929 . S
H2809 C2818 0.930 . S
H2810 C2820 0.930 . S
H2811 C2823 0.929 . S
H2812 C2826 0.930 . S
H2813 C2828 0.960 . S
H2814 C2828 0.960 . S
H2815 C2828 0.960 . S
C2816 H2808 0.929 . S
C2816 C2817 1.357 1_556 S
C2816 C2818 1.384 . S
C2817 C2816 1.357 1_554 S
C2817 C2823 1.410 . S
C2818 H2809 0.930 . S
C2818 C2816 1.384 . S
C2818 C2819 1.389 . S
C2819 C2818 1.389 . S
C2819 C2820 1.383 1_556 S
C2819 C2824 1.490 . S
C2820 H2810 0.930 . S
C2820 C2819 1.383 1_554 S
C2820 C2823 1.386 . S
H2821 C2837 0.930 . S
H2822 C2838 0.931 . S
C2823 H2811 0.929 . S
C2823 C2817 1.410 . S
C2823 C2820 1.386 . S
C2824 C2819 1.490 . S
C2824 C2826 1.407 . S
C2824 C2827 1.392 1_556 S
H2825 C2831 0.930 . S
C2826 H2812 0.930 . S
C2826 C2824 1.407 . S
C2826 C2829 1.403 . S
C2827 C2824 1.392 1_554 S
C2827 C2828 1.524 . S
C2827 C2831 1.400 . S
C2828 H2813 0.960 . S
C2828 H2814 0.960 . S
C2828 H2815 0.960 . S
C2828 C2827 1.524 . S
C2829 C2826 1.403 . S
C2829 C2830 1.392 . S
C2829 C2833 1.495 . S
C2830 C2829 1.392 . S
C2830 C2831 1.385 1_556 S
C2830 C2832 1.479 . S
C2831 H2825 0.930 . S
C2831 C2827 1.400 . S
C2831 C2830 1.385 1_554 S
C2832 C2830 1.479 . S
C2832 C2834 1.422 . S
C2832 C2838 1.341 1_556 S
C2833 C2829 1.495 . S
C2833 H2839 0.959 . S
C2833 H2840 0.961 . S
C2833 H2841 0.960 . S
C2834 C2832 1.422 . S
C2834 C2835 1.394 . S
C2834 H2842 0.930 . S
C2835 C2834 1.394 . S
C2835 C2836 1.368 1_556 S
C2835 H2843 0.929 . S
C2836 C2835 1.368 1_554 S
C2836 C2837 1.391 . S
C2837 H2821 0.930 . S
C2837 C2836 1.391 . S
C2837 C2838 1.379 . S
C2838 H2822 0.931 . S
C2838 C2832 1.341 1_554 S
C2838 C2837 1.379 . S
H2839 C2833 0.959 . S
H2840 C2833 0.961 . S
H2841 C2833 0.960 . S
H2842 C2834 0.930 . S
H2843 C2835 0.929 . S
H2844 C2852 0.929 . S
H2845 C2854 0.930 . S
H2846 C2856 0.930 . S
H2847 C2859 0.929 . S
H2848 C2862 0.930 . S
H2849 C2864 0.960 . S
H2850 C2864 0.960 . S
H2851 C2864 0.960 . S
C2852 H2844 0.929 . S
C2852 C2853 1.372 1_556 S
C2852 C2854 1.384 . S
C2853 C2852 1.372 1_554 S
C2853 C2859 1.395 . S
C2854 H2845 0.930 . S
C2854 C2852 1.384 . S
C2854 C2855 1.406 . S
C2855 C2854 1.406 . S
C2855 C2856 1.365 1_556 S
C2855 C2860 1.491 . S
C2856 H2846 0.930 . S
C2856 C2855 1.365 1_554 S
C2856 C2859 1.386 . S
H2857 C2873 0.930 . S
H2858 C2874 0.931 . S
C2859 H2847 0.929 . S
C2859 C2853 1.395 . S
C2859 C2856 1.386 . S
C2860 C2855 1.491 . S
C2860 C2862 1.395 . S
C2860 C2863 1.403 1_556 S
H2861 C2867 0.930 . S
C2862 H2848 0.930 . S
C2862 C2860 1.395 . S
C2862 C2865 1.403 . S
C2863 C2860 1.403 1_554 S
C2863 C2864 1.524 . S
C2863 C2867 1.400 . S
C2864 H2849 0.960 . S
C2864 H2850 0.960 . S
C2864 H2851 0.960 . S
C2864 C2863 1.524 . S
C2865 C2862 1.403 . S
C2865 C2866 1.392 . S
C2865 C2869 1.495 . S
C2866 C2865 1.392 . S
C2866 C2867 1.385 1_556 S
C2866 C2868 1.478 . S
C2867 H2861 0.930 . S
C2867 C2863 1.400 . S
C2867 C2866 1.385 1_554 S
C2868 C2866 1.478 . S
C2868 C2870 1.381 . S
C2868 C2874 1.383 1_556 S
C2869 C2865 1.495 . S
C2869 H2875 0.959 . S
C2869 H2876 0.961 . S
C2869 H2877 0.960 . S
C2870 C2868 1.381 . S
C2870 C2871 1.394 . S
C2870 H2878 0.930 . S
C2871 C2870 1.394 . S
C2871 C2872 1.405 . S
C2871 H2879 0.929 . S
C2872 C2871 1.405 . S
C2872 C2873 1.357 1_556 S
C2873 H2857 0.930 . S
C2873 C2872 1.357 1_554 S
C2873 C2874 1.379 . S
C2874 H2858 0.931 . S
C2874 C2868 1.383 1_554 S
C2874 C2873 1.379 . S
H2875 C2869 0.959 . S
H2876 C2869 0.961 . S
H2877 C2869 0.960 . S
H2878 C2870 0.930 . S
H2879 C2871 0.929 . S
H2880 C2888 0.929 . S
H2881 C2890 0.930 . S
H2882 C2892 0.930 . S
H2883 C2895 0.929 . S
H2884 C2898 0.930 . S
H2885 C2900 0.960 . S
H2886 C2900 0.960 . S
H2887 C2900 0.960 1_554 S
C2888 H2880 0.929 . S
C2888 C2889 1.372 1_556 S
C2888 C2890 1.384 . S
C2889 C2888 1.372 1_554 S
C2889 C2895 1.395 . S
C2890 H2881 0.930 . S
C2890 C2888 1.384 . S
C2890 C2891 1.387 . S
C2891 C2890 1.387 . S
C2891 C2892 1.385 1_556 S
C2891 C2896 1.490 . S
C2892 H2882 0.930 . S
C2892 C2891 1.385 1_554 S
C2892 C2895 1.386 . S
H2893 C2909 0.930 . S
H2894 C2910 0.931 . S
C2895 H2883 0.929 . S
C2895 C2889 1.395 . S
C2895 C2892 1.386 . S
C2896 C2891 1.490 . S
C2896 C2898 1.393 1_556 S
C2896 C2899 1.404 . S
H2897 C2903 0.930 . S
C2898 H2884 0.930 . S
C2898 C2896 1.393 1_554 S
C2898 C2901 1.403 . S
C2899 C2896 1.404 . S
C2899 C2900 1.524 . S
C2899 C2903 1.400 . S
C2900 H2885 0.960 . S
C2900 H2886 0.960 . S
C2900 H2887 0.960 1_556 S
C2900 C2899 1.524 . S
C2901 C2898 1.403 . S
C2901 C2902 1.395 . S
C2901 C2905 1.495 . S
C2902 C2901 1.395 . S
C2902 C2903 1.382 1_554 S
C2902 C2904 1.479 . S
C2903 H2897 0.930 . S
C2903 C2899 1.400 . S
C2903 C2902 1.382 1_556 S
C2904 C2902 1.479 . S
C2904 C2906 1.381 1_554 S
C2904 C2910 1.383 . S
C2905 C2901 1.495 . S
C2905 H2911 0.959 . S
C2905 H2912 0.961 . S
C2905 H2913 0.960 1_554 S
C2906 C2904 1.381 1_556 S
C2906 C2907 1.394 . S
C2906 H2914 0.930 . S
C2907 C2906 1.394 . S
C2907 C2908 1.336 1_556 S
C2907 H2915 0.929 . S
C2908 C2907 1.336 1_554 S
C2908 C2909 1.426 . S
C2909 H2893 0.930 . S
C2909 C2908 1.426 . S
C2909 C2910 1.379 . S
C2910 H2894 0.931 . S
C2910 C2904 1.383 . S
C2910 C2909 1.379 . S
H2911 C2905 0.959 . S
H2912 C2905 0.961 . S
H2913 C2905 0.960 1_556 S
H2914 C2906 0.930 . S
H2915 C2907 0.929 . S
H2916 C2924 0.929 . S
H2917 C2926 0.930 . S
H2918 C2928 0.930 . S
H2919 C2931 0.929 . S
H2920 C2934 0.930 . S
H2921 C2936 0.960 . S
H2922 C2936 0.960 . S
H2923 C2936 0.960 . S
C2924 H2916 0.929 . S
C2924 C2925 1.389 . S
C2924 C2926 1.384 . S
C2925 C2924 1.389 . S
C2925 C2931 1.380 1_554 S
C2926 H2917 0.930 . S
C2926 C2924 1.384 . S
C2926 C2927 1.387 . S
C2927 C2926 1.387 . S
C2927 C2928 1.387 1_554 S
C2927 C2932 1.490 . S
C2928 H2918 0.930 . S
C2928 C2927 1.387 1_556 S
C2928 C2931 1.386 . S
H2929 C2945 0.930 . S
H2930 C2946 0.931 . S
C2931 H2919 0.929 . S
C2931 C2925 1.380 1_556 S
C2931 C2928 1.386 . S
C2932 C2927 1.490 . S
C2932 C2934 1.382 1_554 S
C2932 C2935 1.415 . S
H2933 C2939 0.930 . S
C2934 H2920 0.930 . S
C2934 C2932 1.382 1_556 S
C2934 C2937 1.403 . S
C2935 C2932 1.415 . S
C2935 C2936 1.524 . S
C2935 C2939 1.400 . S
C2936 H2921 0.960 . S
C2936 H2922 0.960 . S
C2936 H2923 0.960 . S
C2936 C2935 1.524 . S
C2937 C2934 1.403 . S
C2937 C2938 1.392 . S
C2937 C2941 1.495 . S
C2938 C2937 1.392 . S
C2938 C2939 1.385 1_556 S
C2938 C2940 1.478 . S
C2939 H2933 0.930 . S
C2939 C2935 1.400 . S
C2939 C2938 1.385 1_554 S
C2940 C2938 1.478 . S
C2940 C2942 1.381 1_556 S
C2940 C2946 1.383 . S
C2941 C2937 1.495 . S
C2941 H2947 0.959 . S
C2941 H2948 0.961 . S
C2941 H2949 0.960 . S
C2942 C2940 1.381 1_554 S
C2942 C2943 1.394 . S
C2942 H2950 0.930 . S
C2943 C2942 1.394 . S
C2943 C2944 1.369 1_554 S
C2943 H2951 0.929 . S
C2944 C2943 1.369 1_556 S
C2944 C2945 1.394 . S
C2945 H2929 0.930 . S
C2945 C2944 1.394 . S
C2945 C2946 1.379 . S
C2946 H2930 0.931 . S
C2946 C2940 1.383 . S
C2946 C2945 1.379 . S
H2947 C2941 0.959 . S
H2948 C2941 0.961 . S
H2949 C2941 0.960 . S
H2950 C2942 0.930 . S
H2951 C2943 0.929 . S
H2952 C2960 0.929 . S
H2953 C2962 0.930 . S
H2954 C2964 0.930 . S
H2955 C2967 0.929 . S
H2956 C2970 0.930 . S
H2957 C2972 0.960 . S
H2958 C2972 0.960 1_554 S
H2959 C2972 0.960 . S
C2960 H2952 0.929 . S
C2960 C2961 1.415 . S
C2960 C2962 1.384 . S
C2961 C2960 1.415 . S
C2961 C2967 1.353 1_554 S
C2962 H2953 0.930 . S
C2962 C2960 1.384 . S
C2962 C2963 1.372 . S
C2963 C2962 1.372 . S
C2963 C2964 1.400 1_554 S
C2963 C2968 1.490 . S
C2964 H2954 0.930 . S
C2964 C2963 1.400 1_556 S
C2964 C2967 1.386 . S
H2965 C2981 0.930 . S
H2966 C2982 0.931 . S
C2967 H2955 0.929 . S
C2967 C2961 1.353 1_556 S
C2967 C2964 1.386 . S
C2968 C2963 1.490 . S
C2968 C2970 1.395 . S
C2968 C2971 1.401 1_554 S
H2969 C2975 0.935 . S
C2970 H2956 0.930 . S
C2970 C2968 1.395 . S
C2970 C2973 1.403 . S
C2971 C2968 1.401 1_556 S
C2971 C2972 1.525 . S
C2971 C2975 1.400 . S
C2972 H2957 0.960 . S
C2972 H2958 0.960 1_556 S
C2972 H2959 0.960 . S
C2972 C2971 1.525 . S
C2973 C2970 1.403 . S
C2973 C2974 1.392 . S
C2973 C2977 1.495 . S
C2974 C2973 1.392 . S
C2974 C2975 1.382 1_554 S
C2974 C2976 1.480 . S
C2975 H2969 0.935 . S
C2975 C2971 1.400 . S
C2975 C2974 1.382 1_556 S
C2976 C2974 1.480 . S
C2976 C2978 1.430 . S
C2976 C2982 1.334 1_554 S
C2977 C2973 1.495 . S
C2977 H2983 0.959 . S
C2977 H2984 0.961 1_554 S
C2977 H2985 0.960 . S
C2978 C2976 1.430 . S
C2978 C2979 1.394 . S
C2978 H2986 0.930 . S
C2979 C2978 1.394 . S
C2979 C2980 1.402 . S
C2979 H2987 0.929 . S
C2980 C2979 1.402 . S
C2980 C2981 1.359 1_554 S
C2981 H2965 0.930 . S
C2981 C2980 1.359 1_556 S
C2981 C2982 1.379 . S
C2982 H2966 0.931 . S
C2982 C2976 1.334 1_556 S
C2982 C2981 1.379 . S
H2983 C2977 0.959 . S
H2984 C2977 0.961 1_556 S
H2985 C2977 0.960 . S
H2986 C2978 0.930 . S
H2987 C2979 0.929 . S
H2988 C2996 0.929 . S
H2989 C2998 0.930 . S
H2990 C3000 0.930 . S
H2991 C3003 0.929 . S
H2992 C3006 0.930 . S
H2993 C3008 0.960 . S
H2994 C3008 0.960 . S
H2995 C3008 0.960 . S
C2996 H2988 0.929 . S
C2996 C2997 1.377 . S
C2996 C2998 1.384 . S
C2997 C2996 1.377 . S
C2997 C3003 1.390 . S
C2998 H2989 0.930 . S
C2998 C2996 1.384 . S
C2998 C2999 1.372 . S
C2999 C2998 1.372 . S
C2999 C3000 1.400 . S
C2999 C3004 1.490 . S
C3000 H2990 0.930 . S
C3000 C2999 1.400 . S
C3000 C3003 1.386 . S
H3001 C3017 0.930 . S
H3002 C3018 0.931 . S
C3003 H2991 0.929 . S
C3003 C2997 1.390 . S
C3003 C3000 1.386 . S
C3004 C2999 1.490 . S
C3004 C3006 1.395 . S
C3004 C3007 1.403 . S
H3005 C3011 0.930 . S
C3006 H2992 0.930 . S
C3006 C3004 1.395 . S
C3006 C3009 1.403 . S
C3007 C3004 1.403 . S
C3007 C3008 1.524 . S
C3007 C3011 1.400 . S
C3008 H2993 0.960 . S
C3008 H2994 0.960 . S
C3008 H2995 0.960 . S
C3008 C3007 1.524 . S
C3009 C3006 1.403 . S
C3009 C3010 1.392 . S
C3009 C3013 1.495 . S
C3010 C3009 1.392 . S
C3010 C3011 1.385 . S
C3010 C3012 1.478 . S
C3011 H3005 0.930 . S
C3011 C3007 1.400 . S
C3011 C3010 1.385 . S
C3012 C3010 1.478 . S
C3012 C3014 1.381 . S
C3012 C3018 1.383 . S
C3013 C3009 1.495 . S
C3013 H3019 0.959 . S
C3013 H3020 0.961 . S
C3013 H3021 0.960 . S
C3014 C3012 1.381 . S
C3014 C3015 1.394 . S
C3014 H3022 0.930 . S
C3015 C3014 1.394 . S
C3015 C3016 1.383 . S
C3015 H3023 0.929 . S
C3016 C3015 1.383 . S
C3016 C3017 1.377 . S
C3017 H3001 0.930 . S
C3017 C3016 1.377 . S
C3017 C3018 1.379 . S
C3018 H3002 0.931 . S
C3018 C3012 1.383 . S
C3018 C3017 1.379 . S
H3019 C3013 0.959 . S
H3020 C3013 0.961 . S
H3021 C3013 0.960 . S
H3022 C3014 0.930 . S
H3023 C3015 0.929 . S
H3024 C3032 0.929 . S
H3025 C3034 0.930 . S
H3026 C3036 0.930 . S
H3027 C3039 0.929 . S
H3028 C3042 0.930 . S
H3029 C3044 0.960 . S
H3030 C3044 0.960 . S
H3031 C3044 0.960 . S
C3032 H3024 0.929 . S
C3032 C3033 1.377 . S
C3032 C3034 1.384 . S
C3033 C3032 1.377 . S
C3033 C3039 1.390 . S
C3034 H3025 0.930 . S
C3034 C3032 1.384 . S
C3034 C3035 1.372 . S
C3035 C3034 1.372 . S
C3035 C3036 1.400 . S
C3035 C3040 1.490 . S
C3036 H3026 0.930 . S
C3036 C3035 1.400 . S
C3036 C3039 1.386 . S
H3037 C3053 0.930 . S
H3038 C3054 0.931 . S
C3039 H3027 0.929 . S
C3039 C3033 1.390 . S
C3039 C3036 1.386 . S
C3040 C3035 1.490 . S
C3040 C3042 1.395 . S
C3040 C3043 1.403 . S
H3041 C3047 0.930 . S
C3042 H3028 0.930 . S
C3042 C3040 1.395 . S
C3042 C3045 1.403 . S
C3043 C3040 1.403 . S
C3043 C3044 1.524 . S
C3043 C3047 1.400 . S
C3044 H3029 0.960 . S
C3044 H3030 0.960 . S
C3044 H3031 0.960 . S
C3044 C3043 1.524 . S
C3045 C3042 1.403 . S
C3045 C3046 1.392 . S
C3045 C3049 1.495 . S
C3046 C3045 1.392 . S
C3046 C3047 1.385 . S
C3046 C3048 1.478 . S
C3047 H3041 0.930 . S
C3047 C3043 1.400 . S
C3047 C3046 1.385 . S
C3048 C3046 1.478 . S
C3048 C3050 1.381 . S
C3048 C3054 1.383 . S
C3049 C3045 1.495 . S
C3049 H3055 0.959 . S
C3049 H3056 0.961 . S
C3049 H3057 0.960 . S
C3050 C3048 1.381 . S
C3050 C3051 1.394 . S
C3050 H3058 0.930 . S
C3051 C3050 1.394 . S
C3051 C3052 1.383 . S
C3051 H3059 0.929 . S
C3052 C3051 1.383 . S
C3052 C3053 1.377 . S
C3053 H3037 0.930 . S
C3053 C3052 1.377 . S
C3053 C3054 1.379 . S
C3054 H3038 0.931 . S
C3054 C3048 1.383 . S
C3054 C3053 1.379 . S
H3055 C3049 0.959 . S
H3056 C3049 0.961 . S
H3057 C3049 0.960 . S
H3058 C3050 0.930 . S
H3059 C3051 0.929 . S
H3060 C3068 0.929 . S
H3061 C3070 0.930 . S
H3062 C3072 0.930 . S
H3063 C3075 0.929 . S
H3064 C3078 0.930 . S
H3065 C3080 0.960 . S
H3066 C3080 0.960 . S
H3067 C3080 0.960 . S
C3068 H3060 0.929 . S
C3068 C3069 1.377 . S
C3068 C3070 1.384 . S
C3069 C3068 1.377 . S
C3069 C3075 1.390 . S
C3070 H3061 0.930 . S
C3070 C3068 1.384 . S
C3070 C3071 1.372 . S
C3071 C3070 1.372 . S
C3071 C3072 1.400 . S
C3071 C3076 1.490 . S
C3072 H3062 0.930 . S
C3072 C3071 1.400 . S
C3072 C3075 1.386 . S
H3073 C3089 0.930 . S
H3074 C3090 0.931 . S
C3075 H3063 0.929 . S
C3075 C3069 1.390 . S
C3075 C3072 1.386 . S
C3076 C3071 1.490 . S
C3076 C3078 1.395 . S
C3076 C3079 1.403 . S
H3077 C3083 0.930 . S
C3078 H3064 0.930 . S
C3078 C3076 1.395 . S
C3078 C3081 1.403 . S
C3079 C3076 1.403 . S
C3079 C3080 1.524 . S
C3079 C3083 1.400 . S
C3080 H3065 0.960 . S
C3080 H3066 0.960 . S
C3080 H3067 0.960 . S
C3080 C3079 1.524 . S
C3081 C3078 1.403 . S
C3081 C3082 1.392 . S
C3081 C3085 1.495 . S
C3082 C3081 1.392 . S
C3082 C3083 1.385 . S
C3082 C3084 1.478 . S
C3083 H3077 0.930 . S
C3083 C3079 1.400 . S
C3083 C3082 1.385 . S
C3084 C3082 1.478 . S
C3084 C3086 1.381 . S
C3084 C3090 1.383 . S
C3085 C3081 1.495 . S
C3085 H3091 0.959 . S
C3085 H3092 0.961 . S
C3085 H3093 0.960 . S
C3086 C3084 1.381 . S
C3086 C3087 1.394 . S
C3086 H3094 0.930 . S
C3087 C3086 1.394 . S
C3087 C3088 1.383 . S
C3087 H3095 0.929 . S
C3088 C3087 1.383 . S
C3088 C3089 1.377 . S
C3089 H3073 0.930 . S
C3089 C3088 1.377 . S
C3089 C3090 1.379 . S
C3090 H3074 0.931 . S
C3090 C3084 1.383 . S
C3090 C3089 1.379 . S
H3091 C3085 0.959 . S
H3092 C3085 0.961 . S
H3093 C3085 0.960 . S
H3094 C3086 0.930 . S
H3095 C3087 0.929 . S
H3096 C3104 0.929 . S
H3097 C3106 0.930 . S
H3098 C3108 0.930 . S
H3099 C3111 0.929 . S
H3100 C3114 0.930 . S
H3101 C3116 0.960 . S
H3102 C3116 0.960 . S
H3103 C3116 0.960 . S
C3104 H3096 0.929 . S
C3104 C3105 1.377 . S
C3104 C3106 1.384 . S
C3105 C3104 1.377 . S
C3105 C3111 1.390 . S
C3106 H3097 0.930 . S
C3106 C3104 1.384 . S
C3106 C3107 1.372 . S
C3107 C3106 1.372 . S
C3107 C3108 1.400 . S
C3107 C3112 1.490 . S
C3108 H3098 0.930 . S
C3108 C3107 1.400 . S
C3108 C3111 1.386 . S
H3109 C3125 0.930 . S
H3110 C3126 0.931 . S
C3111 H3099 0.929 . S
C3111 C3105 1.390 . S
C3111 C3108 1.386 . S
C3112 C3107 1.490 . S
C3112 C3114 1.395 . S
C3112 C3115 1.403 . S
H3113 C3119 0.930 . S
C3114 H3100 0.930 . S
C3114 C3112 1.395 . S
C3114 C3117 1.403 . S
C3115 C3112 1.403 . S
C3115 C3116 1.524 . S
C3115 C3119 1.400 . S
C3116 H3101 0.960 . S
C3116 H3102 0.960 . S
C3116 H3103 0.960 . S
C3116 C3115 1.524 . S
C3117 C3114 1.403 . S
C3117 C3118 1.392 . S
C3117 C3121 1.495 . S
C3118 C3117 1.392 . S
C3118 C3119 1.385 . S
C3118 C3120 1.478 . S
C3119 H3113 0.930 . S
C3119 C3115 1.400 . S
C3119 C3118 1.385 . S
C3120 C3118 1.478 . S
C3120 C3122 1.381 . S
C3120 C3126 1.383 . S
C3121 C3117 1.495 . S
C3121 H3127 0.959 . S
C3121 H3128 0.961 . S
C3121 H3129 0.960 . S
C3122 C3120 1.381 . S
C3122 C3123 1.394 . S
C3122 H3130 0.930 . S
C3123 C3122 1.394 . S
C3123 C3124 1.383 . S
C3123 H3131 0.929 . S
C3124 C3123 1.383 . S
C3124 C3125 1.377 . S
C3125 H3109 0.930 . S
C3125 C3124 1.377 . S
C3125 C3126 1.379 . S
C3126 H3110 0.931 . S
C3126 C3120 1.383 . S
C3126 C3125 1.379 . S
H3127 C3121 0.959 . S
H3128 C3121 0.961 . S
H3129 C3121 0.960 . S
H3130 C3122 0.930 . S
H3131 C3123 0.929 . S
H3132 C3140 0.929 . S
H3133 C3142 0.930 . S
H3134 C3144 0.930 . S
H3135 C3147 0.929 . S
H3136 C3150 0.930 . S
H3137 C3152 0.960 . S
H3138 C3152 0.960 . S
H3139 C3152 0.960 . S
C3140 H3132 0.929 . S
C3140 C3141 1.377 . S
C3140 C3142 1.384 . S
C3141 C3140 1.377 . S
C3141 C3147 1.390 . S
C3142 H3133 0.930 . S
C3142 C3140 1.384 . S
C3142 C3143 1.372 . S
C3143 C3142 1.372 . S
C3143 C3144 1.400 . S
C3143 C3148 1.490 . S
C3144 H3134 0.930 . S
C3144 C3143 1.400 . S
C3144 C3147 1.386 . S
H3145 C3161 0.930 . S
H3146 C3162 0.931 . S
C3147 H3135 0.929 . S
C3147 C3141 1.390 . S
C3147 C3144 1.386 . S
C3148 C3143 1.490 . S
C3148 C3150 1.395 . S
C3148 C3151 1.403 . S
H3149 C3155 0.930 . S
C3150 H3136 0.930 . S
C3150 C3148 1.395 . S
C3150 C3153 1.403 . S
C3151 C3148 1.403 . S
C3151 C3152 1.524 . S
C3151 C3155 1.400 . S
C3152 H3137 0.960 . S
C3152 H3138 0.960 . S
C3152 H3139 0.960 . S
C3152 C3151 1.524 . S
C3153 C3150 1.403 . S
C3153 C3154 1.392 . S
C3153 C3157 1.495 . S
C3154 C3153 1.392 . S
C3154 C3155 1.385 . S
C3154 C3156 1.478 . S
C3155 H3149 0.930 . S
C3155 C3151 1.400 . S
C3155 C3154 1.385 . S
C3156 C3154 1.478 . S
C3156 C3158 1.381 . S
C3156 C3162 1.383 . S
C3157 C3153 1.495 . S
C3157 H3163 0.959 . S
C3157 H3164 0.961 . S
C3157 H3165 0.960 . S
C3158 C3156 1.381 . S
C3158 C3159 1.394 . S
C3158 H3166 0.930 . S
C3159 C3158 1.394 . S
C3159 C3160 1.383 . S
C3159 H3167 0.929 . S
C3160 C3159 1.383 . S
C3160 C3161 1.377 . S
C3161 H3145 0.930 . S
C3161 C3160 1.377 . S
C3161 C3162 1.379 . S
C3162 H3146 0.931 . S
C3162 C3156 1.383 . S
C3162 C3161 1.379 . S
H3163 C3157 0.959 . S
H3164 C3157 0.961 . S
H3165 C3157 0.960 . S
H3166 C3158 0.930 . S
H3167 C3159 0.929 . S
H3168 C3176 0.929 . S
H3169 C3178 0.930 . S
H3170 C3180 0.930 . S
H3171 C3183 0.929 . S
H3172 C3186 0.930 . S
H3173 C3188 0.960 . S
H3174 C3188 0.960 . S
H3175 C3188 0.960 . S
C3176 H3168 0.929 . S
C3176 C3177 1.377 . S
C3176 C3178 1.384 . S
C3177 C3176 1.377 . S
C3177 C3183 1.390 . S
C3178 H3169 0.930 . S
C3178 C3176 1.384 . S
C3178 C3179 1.372 . S
C3179 C3178 1.372 . S
C3179 C3180 1.400 . S
C3179 C3184 1.490 . S
C3180 H3170 0.930 . S
C3180 C3179 1.400 . S
C3180 C3183 1.386 . S
H3181 C3197 0.930 . S
H3182 C3198 0.931 . S
C3183 H3171 0.929 . S
C3183 C3177 1.390 . S
C3183 C3180 1.386 . S
C3184 C3179 1.490 . S
C3184 C3186 1.395 . S
C3184 C3187 1.403 . S
H3185 C3191 0.930 . S
C3186 H3172 0.930 . S
C3186 C3184 1.395 . S
C3186 C3189 1.403 . S
C3187 C3184 1.403 . S
C3187 C3188 1.524 . S
C3187 C3191 1.400 . S
C3188 H3173 0.960 . S
C3188 H3174 0.960 . S
C3188 H3175 0.960 . S
C3188 C3187 1.524 . S
C3189 C3186 1.403 . S
C3189 C3190 1.392 . S
C3189 C3193 1.495 . S
C3190 C3189 1.392 . S
C3190 C3191 1.385 . S
C3190 C3192 1.478 . S
C3191 H3185 0.930 . S
C3191 C3187 1.400 . S
C3191 C3190 1.385 . S
C3192 C3190 1.478 . S
C3192 C3194 1.381 . S
C3192 C3198 1.383 . S
C3193 C3189 1.495 . S
C3193 H3199 0.959 . S
C3193 H3200 0.961 . S
C3193 H3201 0.960 . S
C3194 C3192 1.381 . S
C3194 C3195 1.394 . S
C3194 H3202 0.930 . S
C3195 C3194 1.394 . S
C3195 C3196 1.383 . S
C3195 H3203 0.929 . S
C3196 C3195 1.383 . S
C3196 C3197 1.377 . S
C3197 H3181 0.930 . S
C3197 C3196 1.377 . S
C3197 C3198 1.379 . S
C3198 H3182 0.931 . S
C3198 C3192 1.383 . S
C3198 C3197 1.379 . S
H3199 C3193 0.959 . S
H3200 C3193 0.961 . S
H3201 C3193 0.960 . S
H3202 C3194 0.930 . S
H3203 C3195 0.929 . S
H3204 C3212 0.929 . S
H3205 C3214 0.930 . S
H3206 C3216 0.930 . S
H3207 C3219 0.929 . S
H3208 C3222 0.930 . S
H3209 C3224 0.960 . S
H3210 C3224 0.960 . S
H3211 C3224 0.960 . S
C3212 H3204 0.929 . S
C3212 C3213 1.377 . S
C3212 C3214 1.384 . S
C3213 C3212 1.377 . S
C3213 C3219 1.390 . S
C3214 H3205 0.930 . S
C3214 C3212 1.384 . S
C3214 C3215 1.372 . S
C3215 C3214 1.372 . S
C3215 C3216 1.400 . S
C3215 C3220 1.490 . S
C3216 H3206 0.930 . S
C3216 C3215 1.400 . S
C3216 C3219 1.386 . S
H3217 C3233 0.930 . S
H3218 C3234 0.931 . S
C3219 H3207 0.929 . S
C3219 C3213 1.390 . S
C3219 C3216 1.386 . S
C3220 C3215 1.490 . S
C3220 C3222 1.395 . S
C3220 C3223 1.403 . S
H3221 C3227 0.930 . S
C3222 H3208 0.930 . S
C3222 C3220 1.395 . S
C3222 C3225 1.403 . S
C3223 C3220 1.403 . S
C3223 C3224 1.524 . S
C3223 C3227 1.400 . S
C3224 H3209 0.960 . S
C3224 H3210 0.960 . S
C3224 H3211 0.960 . S
C3224 C3223 1.524 . S
C3225 C3222 1.403 . S
C3225 C3226 1.392 . S
C3225 C3229 1.495 . S
C3226 C3225 1.392 . S
C3226 C3227 1.385 . S
C3226 C3228 1.478 . S
C3227 H3221 0.930 . S
C3227 C3223 1.400 . S
C3227 C3226 1.385 . S
C3228 C3226 1.478 . S
C3228 C3230 1.381 . S
C3228 C3234 1.383 . S
C3229 C3225 1.495 . S
C3229 H3235 0.959 . S
C3229 H3236 0.961 . S
C3229 H3237 0.960 . S
C3230 C3228 1.381 . S
C3230 C3231 1.394 . S
C3230 H3238 0.930 . S
C3231 C3230 1.394 . S
C3231 C3232 1.383 . S
C3231 H3239 0.929 . S
C3232 C3231 1.383 . S
C3232 C3233 1.377 . S
C3233 H3217 0.930 . S
C3233 C3232 1.377 . S
C3233 C3234 1.379 . S
C3234 H3218 0.931 . S
C3234 C3228 1.383 . S
C3234 C3233 1.379 . S
H3235 C3229 0.959 . S
H3236 C3229 0.961 . S
H3237 C3229 0.960 . S
H3238 C3230 0.930 . S
H3239 C3231 0.929 . S
H3240 C3248 0.929 . S
H3241 C3250 0.930 . S
H3242 C3252 0.930 . S
H3243 C3255 0.929 . S
H3244 C3258 0.930 . S
H3245 C3260 0.960 . S
H3246 C3260 0.960 . S
H3247 C3260 0.960 . S
C3248 H3240 0.929 . S
C3248 C3249 1.377 . S
C3248 C3250 1.384 . S
C3249 C3248 1.377 . S
C3249 C3255 1.390 . S
C3250 H3241 0.930 . S
C3250 C3248 1.384 . S
C3250 C3251 1.372 . S
C3251 C3250 1.372 . S
C3251 C3252 1.400 . S
C3251 C3256 1.490 . S
C3252 H3242 0.930 . S
C3252 C3251 1.400 . S
C3252 C3255 1.386 . S
H3253 C3269 0.930 . S
H3254 C3270 0.931 . S
C3255 H3243 0.929 . S
C3255 C3249 1.390 . S
C3255 C3252 1.386 . S
C3256 C3251 1.490 . S
C3256 C3258 1.395 . S
C3256 C3259 1.403 . S
H3257 C3263 0.930 . S
C3258 H3244 0.930 . S
C3258 C3256 1.395 . S
C3258 C3261 1.403 . S
C3259 C3256 1.403 . S
C3259 C3260 1.524 . S
C3259 C3263 1.400 . S
C3260 H3245 0.960 . S
C3260 H3246 0.960 . S
C3260 H3247 0.960 . S
C3260 C3259 1.524 . S
C3261 C3258 1.403 . S
C3261 C3262 1.392 . S
C3261 C3265 1.495 . S
C3262 C3261 1.392 . S
C3262 C3263 1.385 . S
C3262 C3264 1.478 . S
C3263 H3257 0.930 . S
C3263 C3259 1.400 . S
C3263 C3262 1.385 . S
C3264 C3262 1.478 . S
C3264 C3266 1.381 . S
C3264 C3270 1.383 . S
C3265 C3261 1.495 . S
C3265 H3271 0.959 . S
C3265 H3272 0.961 . S
C3265 H3273 0.960 . S
C3266 C3264 1.381 . S
C3266 C3267 1.394 . S
C3266 H3274 0.930 . S
C3267 C3266 1.394 . S
C3267 C3268 1.383 . S
C3267 H3275 0.929 . S
C3268 C3267 1.383 . S
C3268 C3269 1.377 . S
C3269 H3253 0.930 . S
C3269 C3268 1.377 . S
C3269 C3270 1.379 . S
C3270 H3254 0.931 . S
C3270 C3264 1.383 . S
C3270 C3269 1.379 . S
H3271 C3265 0.959 . S
H3272 C3265 0.961 . S
H3273 C3265 0.960 . S
H3274 C3266 0.930 . S
H3275 C3267 0.929 . S
H3276 C3284 0.929 . S
H3277 C3286 0.930 . S
H3278 C3288 0.930 . S
H3279 C3291 0.929 . S
H3280 C3294 0.930 . S
H3281 C3296 0.960 . S
H3282 C3296 0.960 . S
H3283 C3296 0.960 . S
C3284 H3276 0.929 . S
C3284 C3285 1.377 . S
C3284 C3286 1.384 . S
C3285 C3284 1.377 . S
C3285 C3291 1.390 . S
C3286 H3277 0.930 . S
C3286 C3284 1.384 . S
C3286 C3287 1.372 . S
C3287 C3286 1.372 . S
C3287 C3288 1.400 . S
C3287 C3292 1.490 . S
C3288 H3278 0.930 . S
C3288 C3287 1.400 . S
C3288 C3291 1.386 . S
H3289 C3305 0.930 . S
H3290 C3306 0.931 . S
C3291 H3279 0.929 . S
C3291 C3285 1.390 . S
C3291 C3288 1.386 . S
C3292 C3287 1.490 . S
C3292 C3294 1.395 . S
C3292 C3295 1.403 . S
H3293 C3299 0.930 . S
C3294 H3280 0.930 . S
C3294 C3292 1.395 . S
C3294 C3297 1.403 . S
C3295 C3292 1.403 . S
C3295 C3296 1.524 . S
C3295 C3299 1.400 . S
C3296 H3281 0.960 . S
C3296 H3282 0.960 . S
C3296 H3283 0.960 . S
C3296 C3295 1.524 . S
C3297 C3294 1.403 . S
C3297 C3298 1.392 . S
C3297 C3301 1.495 . S
C3298 C3297 1.392 . S
C3298 C3299 1.385 . S
C3298 C3300 1.478 . S
C3299 H3293 0.930 . S
C3299 C3295 1.400 . S
C3299 C3298 1.385 . S
C3300 C3298 1.478 . S
C3300 C3302 1.381 . S
C3300 C3306 1.383 . S
C3301 C3297 1.495 . S
C3301 H3307 0.959 . S
C3301 H3308 0.961 . S
C3301 H3309 0.960 . S
C3302 C3300 1.381 . S
C3302 C3303 1.394 . S
C3302 H3310 0.930 . S
C3303 C3302 1.394 . S
C3303 C3304 1.383 . S
C3303 H3311 0.929 . S
C3304 C3303 1.383 . S
C3304 C3305 1.377 . S
C3305 H3289 0.930 . S
C3305 C3304 1.377 . S
C3305 C3306 1.379 . S
C3306 H3290 0.931 . S
C3306 C3300 1.383 . S
C3306 C3305 1.379 . S
H3307 C3301 0.959 . S
H3308 C3301 0.961 . S
H3309 C3301 0.960 . S
H3310 C3302 0.930 . S
H3311 C3303 0.929 . S
H3312 C3320 0.929 . S
H3313 C3322 0.930 . S
H3314 C3324 0.930 . S
H3315 C3327 0.929 . S
H3316 C3330 0.930 . S
H3317 C3332 0.960 . S
H3318 C3332 0.960 . S
H3319 C3332 0.960 . S
C3320 H3312 0.929 . S
C3320 C3321 1.377 . S
C3320 C3322 1.384 . S
C3321 C3320 1.377 . S
C3321 C3327 1.390 . S
C3322 H3313 0.930 . S
C3322 C3320 1.384 . S
C3322 C3323 1.372 . S
C3323 C3322 1.372 . S
C3323 C3324 1.400 . S
C3323 C3328 1.490 . S
C3324 H3314 0.930 . S
C3324 C3323 1.400 . S
C3324 C3327 1.386 . S
H3325 C3341 0.930 . S
H3326 C3342 0.931 . S
C3327 H3315 0.929 . S
C3327 C3321 1.390 . S
C3327 C3324 1.386 . S
C3328 C3323 1.490 . S
C3328 C3330 1.395 . S
C3328 C3331 1.403 . S
H3329 C3335 0.930 . S
C3330 H3316 0.930 . S
C3330 C3328 1.395 . S
C3330 C3333 1.403 . S
C3331 C3328 1.403 . S
C3331 C3332 1.524 . S
C3331 C3335 1.400 . S
C3332 H3317 0.960 . S
C3332 H3318 0.960 . S
C3332 H3319 0.960 . S
C3332 C3331 1.524 . S
C3333 C3330 1.403 . S
C3333 C3334 1.392 . S
C3333 C3337 1.495 . S
C3334 C3333 1.392 . S
C3334 C3335 1.385 . S
C3334 C3336 1.478 . S
C3335 H3329 0.930 . S
C3335 C3331 1.400 . S
C3335 C3334 1.385 . S
C3336 C3334 1.478 . S
C3336 C3338 1.381 . S
C3336 C3342 1.383 . S
C3337 C3333 1.495 . S
C3337 H3343 0.959 . S
C3337 H3344 0.961 . S
C3337 H3345 0.960 . S
C3338 C3336 1.381 . S
C3338 C3339 1.394 . S
C3338 H3346 0.930 . S
C3339 C3338 1.394 . S
C3339 C3340 1.383 . S
C3339 H3347 0.929 . S
C3340 C3339 1.383 . S
C3340 C3341 1.377 . S
C3341 H3325 0.930 . S
C3341 C3340 1.377 . S
C3341 C3342 1.379 . S
C3342 H3326 0.931 . S
C3342 C3336 1.383 . S
C3342 C3341 1.379 . S
H3343 C3337 0.959 . S
H3344 C3337 0.961 . S
H3345 C3337 0.960 . S
H3346 C3338 0.930 . S
H3347 C3339 0.929 . S
H3348 C3356 0.929 . S
H3349 C3358 0.930 . S
H3350 C3360 0.930 . S
H3351 C3363 0.929 . S
H3352 C3366 0.930 . S
H3353 C3368 0.960 . S
H3354 C3368 0.960 . S
H3355 C3368 0.960 . S
C3356 H3348 0.929 . S
C3356 C3357 1.377 . S
C3356 C3358 1.384 . S
C3357 C3356 1.377 . S
C3357 C3363 1.390 . S
C3358 H3349 0.930 . S
C3358 C3356 1.384 . S
C3358 C3359 1.372 . S
C3359 C3358 1.372 . S
C3359 C3360 1.400 . S
C3359 C3364 1.490 . S
C3360 H3350 0.930 . S
C3360 C3359 1.400 . S
C3360 C3363 1.386 . S
H3361 C3377 0.930 . S
H3362 C3378 0.931 . S
C3363 H3351 0.929 . S
C3363 C3357 1.390 . S
C3363 C3360 1.386 . S
C3364 C3359 1.490 . S
C3364 C3366 1.395 . S
C3364 C3367 1.403 . S
H3365 C3371 0.930 . S
C3366 H3352 0.930 . S
C3366 C3364 1.395 . S
C3366 C3369 1.403 . S
C3367 C3364 1.403 . S
C3367 C3368 1.524 . S
C3367 C3371 1.400 . S
C3368 H3353 0.960 . S
C3368 H3354 0.960 . S
C3368 H3355 0.960 . S
C3368 C3367 1.524 . S
C3369 C3366 1.403 . S
C3369 C3370 1.392 . S
C3369 C3373 1.495 . S
C3370 C3369 1.392 . S
C3370 C3371 1.385 . S
C3370 C3372 1.478 . S
C3371 H3365 0.930 . S
C3371 C3367 1.400 . S
C3371 C3370 1.385 . S
C3372 C3370 1.478 . S
C3372 C3374 1.381 . S
C3372 C3378 1.383 . S
C3373 C3369 1.495 . S
C3373 H3379 0.959 . S
C3373 H3380 0.961 . S
C3373 H3381 0.960 . S
C3374 C3372 1.381 . S
C3374 C3375 1.394 . S
C3374 H3382 0.930 . S
C3375 C3374 1.394 . S
C3375 C3376 1.383 . S
C3375 H3383 0.929 . S
C3376 C3375 1.383 . S
C3376 C3377 1.377 . S
C3377 H3361 0.930 . S
C3377 C3376 1.377 . S
C3377 C3378 1.379 . S
C3378 H3362 0.931 . S
C3378 C3372 1.383 . S
C3378 C3377 1.379 . S
H3379 C3373 0.959 . S
H3380 C3373 0.961 . S
H3381 C3373 0.960 . S
H3382 C3374 0.930 . S
H3383 C3375 0.929 . S
H3384 C3392 0.929 . S
H3385 C3394 0.930 . S
H3386 C3396 0.930 . S
H3387 C3399 0.929 . S
H3388 C3402 0.930 . S
H3389 C3404 0.960 . S
H3390 C3404 0.960 . S
H3391 C3404 0.960 . S
C3392 H3384 0.929 . S
C3392 C3393 1.377 . S
C3392 C3394 1.384 . S
C3393 C3392 1.377 . S
C3393 C3399 1.390 . S
C3394 H3385 0.930 . S
C3394 C3392 1.384 . S
C3394 C3395 1.372 . S
C3395 C3394 1.372 . S
C3395 C3396 1.400 . S
C3395 C3400 1.490 . S
C3396 H3386 0.930 . S
C3396 C3395 1.400 . S
C3396 C3399 1.386 . S
H3397 C3413 0.930 . S
H3398 C3414 0.931 . S
C3399 H3387 0.929 . S
C3399 C3393 1.390 . S
C3399 C3396 1.386 . S
C3400 C3395 1.490 . S
C3400 C3402 1.395 . S
C3400 C3403 1.403 . S
H3401 C3407 0.930 . S
C3402 H3388 0.930 . S
C3402 C3400 1.395 . S
C3402 C3405 1.403 . S
C3403 C3400 1.403 . S
C3403 C3404 1.524 . S
C3403 C3407 1.400 . S
C3404 H3389 0.960 . S
C3404 H3390 0.960 . S
C3404 H3391 0.960 . S
C3404 C3403 1.524 . S
C3405 C3402 1.403 . S
C3405 C3406 1.392 . S
C3405 C3409 1.495 . S
C3406 C3405 1.392 . S
C3406 C3407 1.385 . S
C3406 C3408 1.478 . S
C3407 H3401 0.930 . S
C3407 C3403 1.400 . S
C3407 C3406 1.385 . S
C3408 C3406 1.478 . S
C3408 C3410 1.381 . S
C3408 C3414 1.383 . S
C3409 C3405 1.495 . S
C3409 H3415 0.959 . S
C3409 H3416 0.961 . S
C3409 H3417 0.960 . S
C3410 C3408 1.381 . S
C3410 C3411 1.394 . S
C3410 H3418 0.930 . S
C3411 C3410 1.394 . S
C3411 C3412 1.383 . S
C3411 H3419 0.929 . S
C3412 C3411 1.383 . S
C3412 C3413 1.377 . S
C3413 H3397 0.930 . S
C3413 C3412 1.377 . S
C3413 C3414 1.379 . S
C3414 H3398 0.931 . S
C3414 C3408 1.383 . S
C3414 C3413 1.379 . S
H3415 C3409 0.959 . S
H3416 C3409 0.961 . S
H3417 C3409 0.960 . S
H3418 C3410 0.930 . S
H3419 C3411 0.929 . S
H3420 C3428 0.929 . S
H3421 C3430 0.930 . S
H3422 C3432 0.930 . S
H3423 C3435 0.929 . S
H3424 C3438 0.930 . S
H3425 C3440 0.960 . S
H3426 C3440 0.960 . S
H3427 C3440 0.960 . S
C3428 H3420 0.929 . S
C3428 C3429 1.377 . S
C3428 C3430 1.384 . S
C3429 C3428 1.377 . S
C3429 C3435 1.390 . S
C3430 H3421 0.930 . S
C3430 C3428 1.384 . S
C3430 C3431 1.372 . S
C3431 C3430 1.372 . S
C3431 C3432 1.400 . S
C3431 C3436 1.490 . S
C3432 H3422 0.930 . S
C3432 C3431 1.400 . S
C3432 C3435 1.386 . S
H3433 C3449 0.930 . S
H3434 C3450 0.931 . S
C3435 H3423 0.929 . S
C3435 C3429 1.390 . S
C3435 C3432 1.386 . S
C3436 C3431 1.490 . S
C3436 C3438 1.395 . S
C3436 C3439 1.403 . S
H3437 C3443 0.930 . S
C3438 H3424 0.930 . S
C3438 C3436 1.395 . S
C3438 C3441 1.403 . S
C3439 C3436 1.403 . S
C3439 C3440 1.524 . S
C3439 C3443 1.400 . S
C3440 H3425 0.960 . S
C3440 H3426 0.960 . S
C3440 H3427 0.960 . S
C3440 C3439 1.524 . S
C3441 C3438 1.403 . S
C3441 C3442 1.392 . S
C3441 C3445 1.495 . S
C3442 C3441 1.392 . S
C3442 C3443 1.385 . S
C3442 C3444 1.478 . S
C3443 H3437 0.930 . S
C3443 C3439 1.400 . S
C3443 C3442 1.385 . S
C3444 C3442 1.478 . S
C3444 C3446 1.381 . S
C3444 C3450 1.383 . S
C3445 C3441 1.495 . S
C3445 H3451 0.959 . S
C3445 H3452 0.961 . S
C3445 H3453 0.960 . S
C3446 C3444 1.381 . S
C3446 C3447 1.394 . S
C3446 H3454 0.930 . S
C3447 C3446 1.394 . S
C3447 C3448 1.383 . S
C3447 H3455 0.929 . S
C3448 C3447 1.383 . S
C3448 C3449 1.377 . S
C3449 H3433 0.930 . S
C3449 C3448 1.377 . S
C3449 C3450 1.379 . S
C3450 H3434 0.931 . S
C3450 C3444 1.383 . S
C3450 C3449 1.379 . S
H3451 C3445 0.959 . S
H3452 C3445 0.961 . S
H3453 C3445 0.960 . S
H3454 C3446 0.930 . S
H3455 C3447 0.929 . S
H3456 C3464 0.929 . S
H3457 C3466 0.930 . S
H3458 C3468 0.930 . S
H3459 C3471 0.929 . S
H3460 C3474 0.930 . S
H3461 C3476 0.960 . S
H3462 C3476 0.960 . S
H3463 C3476 0.960 . S
C3464 H3456 0.929 . S
C3464 C3465 1.377 . S
C3464 C3466 1.384 . S
C3465 C3464 1.377 . S
C3465 C3471 1.390 . S
C3466 H3457 0.930 . S
C3466 C3464 1.384 . S
C3466 C3467 1.372 . S
C3467 C3466 1.372 . S
C3467 C3468 1.400 . S
C3467 C3472 1.490 . S
C3468 H3458 0.930 . S
C3468 C3467 1.400 . S
C3468 C3471 1.386 . S
H3469 C3485 0.930 . S
H3470 C3486 0.931 . S
C3471 H3459 0.929 . S
C3471 C3465 1.390 . S
C3471 C3468 1.386 . S
C3472 C3467 1.490 . S
C3472 C3474 1.395 . S
C3472 C3475 1.403 . S
H3473 C3479 0.930 . S
C3474 H3460 0.930 . S
C3474 C3472 1.395 . S
C3474 C3477 1.403 . S
C3475 C3472 1.403 . S
C3475 C3476 1.524 . S
C3475 C3479 1.400 . S
C3476 H3461 0.960 . S
C3476 H3462 0.960 . S
C3476 H3463 0.960 . S
C3476 C3475 1.524 . S
C3477 C3474 1.403 . S
C3477 C3478 1.392 . S
C3477 C3481 1.495 . S
C3478 C3477 1.392 . S
C3478 C3479 1.385 . S
C3478 C3480 1.478 . S
C3479 H3473 0.930 . S
C3479 C3475 1.400 . S
C3479 C3478 1.385 . S
C3480 C3478 1.478 . S
C3480 C3482 1.381 . S
C3480 C3486 1.383 . S
C3481 C3477 1.495 . S
C3481 H3487 0.959 . S
C3481 H3488 0.961 . S
C3481 H3489 0.960 . S
C3482 C3480 1.381 . S
C3482 C3483 1.394 . S
C3482 H3490 0.930 . S
C3483 C3482 1.394 . S
C3483 C3484 1.383 . S
C3483 H3491 0.929 . S
C3484 C3483 1.383 . S
C3484 C3485 1.377 . S
C3485 H3469 0.930 . S
C3485 C3484 1.377 . S
C3485 C3486 1.379 . S
C3486 H3470 0.931 . S
C3486 C3480 1.383 . S
C3486 C3485 1.379 . S
H3487 C3481 0.959 . S
H3488 C3481 0.961 . S
H3489 C3481 0.960 . S
H3490 C3482 0.930 . S
H3491 C3483 0.929 . S
H3492 C3500 0.929 . S
H3493 C3502 0.930 . S
H3494 C3504 0.930 . S
H3495 C3507 0.929 . S
H3496 C3510 0.930 . S
H3497 C3512 0.960 . S
H3498 C3512 0.960 . S
H3499 C3512 0.960 . S
C3500 H3492 0.929 . S
C3500 C3501 1.377 . S
C3500 C3502 1.384 . S
C3501 C3500 1.377 . S
C3501 C3507 1.390 . S
C3502 H3493 0.930 . S
C3502 C3500 1.384 . S
C3502 C3503 1.372 . S
C3503 C3502 1.372 . S
C3503 C3504 1.400 . S
C3503 C3508 1.490 . S
C3504 H3494 0.930 . S
C3504 C3503 1.400 . S
C3504 C3507 1.386 . S
H3505 C3521 0.930 . S
H3506 C3522 0.931 . S
C3507 H3495 0.929 . S
C3507 C3501 1.390 . S
C3507 C3504 1.386 . S
C3508 C3503 1.490 . S
C3508 C3510 1.395 . S
C3508 C3511 1.403 . S
H3509 C3515 0.930 . S
C3510 H3496 0.930 . S
C3510 C3508 1.395 . S
C3510 C3513 1.403 . S
C3511 C3508 1.403 . S
C3511 C3512 1.524 . S
C3511 C3515 1.400 . S
C3512 H3497 0.960 . S
C3512 H3498 0.960 . S
C3512 H3499 0.960 . S
C3512 C3511 1.524 . S
C3513 C3510 1.403 . S
C3513 C3514 1.392 . S
C3513 C3517 1.495 . S
C3514 C3513 1.392 . S
C3514 C3515 1.385 . S
C3514 C3516 1.478 . S
C3515 H3509 0.930 . S
C3515 C3511 1.400 . S
C3515 C3514 1.385 . S
C3516 C3514 1.478 . S
C3516 C3518 1.381 . S
C3516 C3522 1.383 . S
C3517 C3513 1.495 . S
C3517 H3523 0.959 . S
C3517 H3524 0.961 . S
C3517 H3525 0.960 . S
C3518 C3516 1.381 . S
C3518 C3519 1.394 . S
C3518 H3526 0.930 . S
C3519 C3518 1.394 . S
C3519 C3520 1.383 . S
C3519 H3527 0.929 . S
C3520 C3519 1.383 . S
C3520 C3521 1.377 . S
C3521 H3505 0.930 . S
C3521 C3520 1.377 . S
C3521 C3522 1.379 . S
C3522 H3506 0.931 . S
C3522 C3516 1.383 . S
C3522 C3521 1.379 . S
H3523 C3517 0.959 . S
H3524 C3517 0.961 . S
H3525 C3517 0.960 . S
H3526 C3518 0.930 . S
H3527 C3519 0.929 . S
H3528 C3536 0.929 . S
H3529 C3538 0.930 . S
H3530 C3540 0.930 . S
H3531 C3543 0.929 . S
H3532 C3546 0.930 . S
H3533 C3548 0.960 . S
H3534 C3548 0.960 . S
H3535 C3548 0.960 . S
C3536 H3528 0.929 . S
C3536 C3537 1.377 . S
C3536 C3538 1.384 . S
C3537 C3536 1.377 . S
C3537 C3543 1.390 . S
C3538 H3529 0.930 . S
C3538 C3536 1.384 . S
C3538 C3539 1.372 . S
C3539 C3538 1.372 . S
C3539 C3540 1.400 . S
C3539 C3544 1.490 . S
C3540 H3530 0.930 . S
C3540 C3539 1.400 . S
C3540 C3543 1.386 . S
H3541 C3557 0.930 . S
H3542 C3558 0.931 . S
C3543 H3531 0.929 . S
C3543 C3537 1.390 . S
C3543 C3540 1.386 . S
C3544 C3539 1.490 . S
C3544 C3546 1.395 . S
C3544 C3547 1.403 . S
H3545 C3551 0.930 . S
C3546 H3532 0.930 . S
C3546 C3544 1.395 . S
C3546 C3549 1.403 . S
C3547 C3544 1.403 . S
C3547 C3548 1.524 . S
C3547 C3551 1.400 . S
C3548 H3533 0.960 . S
C3548 H3534 0.960 . S
C3548 H3535 0.960 . S
C3548 C3547 1.524 . S
C3549 C3546 1.403 . S
C3549 C3550 1.392 . S
C3549 C3553 1.495 . S
C3550 C3549 1.392 . S
C3550 C3551 1.385 . S
C3550 C3552 1.478 . S
C3551 H3545 0.930 . S
C3551 C3547 1.400 . S
C3551 C3550 1.385 . S
C3552 C3550 1.478 . S
C3552 C3554 1.381 . S
C3552 C3558 1.383 . S
C3553 C3549 1.495 . S
C3553 H3559 0.959 . S
C3553 H3560 0.961 . S
C3553 H3561 0.960 . S
C3554 C3552 1.381 . S
C3554 C3555 1.394 . S
C3554 H3562 0.930 . S
C3555 C3554 1.394 . S
C3555 C3556 1.383 . S
C3555 H3563 0.929 . S
C3556 C3555 1.383 . S
C3556 C3557 1.377 . S
C3557 H3541 0.930 . S
C3557 C3556 1.377 . S
C3557 C3558 1.379 . S
C3558 H3542 0.931 . S
C3558 C3552 1.383 . S
C3558 C3557 1.379 . S
H3559 C3553 0.959 . S
H3560 C3553 0.961 . S
H3561 C3553 0.960 . S
H3562 C3554 0.930 . S
H3563 C3555 0.929 . S
H3564 C3572 0.929 . S
H3565 C3574 0.930 . S
H3566 C3576 0.930 . S
H3567 C3579 0.929 . S
H3568 C3582 0.930 . S
H3569 C3584 0.960 . S
H3570 C3584 0.960 . S
H3571 C3584 0.960 . S
C3572 H3564 0.929 . S
C3572 C3573 1.377 . S
C3572 C3574 1.384 . S
C3573 C3572 1.377 . S
C3573 C3579 1.390 . S
C3574 H3565 0.930 . S
C3574 C3572 1.384 . S
C3574 C3575 1.372 . S
C3575 C3574 1.372 . S
C3575 C3576 1.400 . S
C3575 C3580 1.490 . S
C3576 H3566 0.930 . S
C3576 C3575 1.400 . S
C3576 C3579 1.386 . S
H3577 C3593 0.930 . S
H3578 C3594 0.931 . S
C3579 H3567 0.929 . S
C3579 C3573 1.390 . S
C3579 C3576 1.386 . S
C3580 C3575 1.490 . S
C3580 C3582 1.395 . S
C3580 C3583 1.403 . S
H3581 C3587 0.930 . S
C3582 H3568 0.930 . S
C3582 C3580 1.395 . S
C3582 C3585 1.403 . S
C3583 C3580 1.403 . S
C3583 C3584 1.524 . S
C3583 C3587 1.400 . S
C3584 H3569 0.960 . S
C3584 H3570 0.960 . S
C3584 H3571 0.960 . S
C3584 C3583 1.524 . S
C3585 C3582 1.403 . S
C3585 C3586 1.392 . S
C3585 C3589 1.495 . S
C3586 C3585 1.392 . S
C3586 C3587 1.385 . S
C3586 C3588 1.478 . S
C3587 H3581 0.930 . S
C3587 C3583 1.400 . S
C3587 C3586 1.385 . S
C3588 C3586 1.478 . S
C3588 C3590 1.381 . S
C3588 C3594 1.383 . S
C3589 C3585 1.495 . S
C3589 H3595 0.959 . S
C3589 H3596 0.961 . S
C3589 H3597 0.960 . S
C3590 C3588 1.381 . S
C3590 C3591 1.394 . S
C3590 H3598 0.930 . S
C3591 C3590 1.394 . S
C3591 C3592 1.383 . S
C3591 H3599 0.929 . S
C3592 C3591 1.383 . S
C3592 C3593 1.377 . S
C3593 H3577 0.930 . S
C3593 C3592 1.377 . S
C3593 C3594 1.379 . S
C3594 H3578 0.931 . S
C3594 C3588 1.383 . S
C3594 C3593 1.379 . S
H3595 C3589 0.959 . S
H3596 C3589 0.961 . S
H3597 C3589 0.960 . S
H3598 C3590 0.930 . S
H3599 C3591 0.929 . S
H3600 C3608 0.929 . S
H3601 C3610 0.930 . S
H3602 C3612 0.930 . S
H3603 C3615 0.929 . S
H3604 C3618 0.930 . S
H3605 C3620 0.960 . S
H3606 C3620 0.960 . S
H3607 C3620 0.960 . S
C3608 H3600 0.929 . S
C3608 C3609 1.377 . S
C3608 C3610 1.384 . S
C3609 C3608 1.377 . S
C3609 C3615 1.390 . S
C3610 H3601 0.930 . S
C3610 C3608 1.384 . S
C3610 C3611 1.372 . S
C3611 C3610 1.372 . S
C3611 C3612 1.400 . S
C3611 C3616 1.490 . S
C3612 H3602 0.930 . S
C3612 C3611 1.400 . S
C3612 C3615 1.386 . S
H3613 C3629 0.930 . S
H3614 C3630 0.931 . S
C3615 H3603 0.929 . S
C3615 C3609 1.390 . S
C3615 C3612 1.386 . S
C3616 C3611 1.490 . S
C3616 C3618 1.395 . S
C3616 C3619 1.403 . S
H3617 C3623 0.930 . S
C3618 H3604 0.930 . S
C3618 C3616 1.395 . S
C3618 C3621 1.403 . S
C3619 C3616 1.403 . S
C3619 C3620 1.524 . S
C3619 C3623 1.400 . S
C3620 H3605 0.960 . S
C3620 H3606 0.960 . S
C3620 H3607 0.960 . S
C3620 C3619 1.524 . S
C3621 C3618 1.403 . S
C3621 C3622 1.392 . S
C3621 C3625 1.495 . S
C3622 C3621 1.392 . S
C3622 C3623 1.385 . S
C3622 C3624 1.478 . S
C3623 H3617 0.930 . S
C3623 C3619 1.400 . S
C3623 C3622 1.385 . S
C3624 C3622 1.478 . S
C3624 C3626 1.381 . S
C3624 C3630 1.383 . S
C3625 C3621 1.495 . S
C3625 H3631 0.959 . S
C3625 H3632 0.961 . S
C3625 H3633 0.960 . S
C3626 C3624 1.381 . S
C3626 C3627 1.394 . S
C3626 H3634 0.930 . S
C3627 C3626 1.394 . S
C3627 C3628 1.383 . S
C3627 H3635 0.929 . S
C3628 C3627 1.383 . S
C3628 C3629 1.377 . S
C3629 H3613 0.930 . S
C3629 C3628 1.377 . S
C3629 C3630 1.379 . S
C3630 H3614 0.931 . S
C3630 C3624 1.383 . S
C3630 C3629 1.379 . S
H3631 C3625 0.959 . S
H3632 C3625 0.961 . S
H3633 C3625 0.960 . S
H3634 C3626 0.930 . S
H3635 C3627 0.929 . S
H3636 C3644 0.929 . S
H3637 C3646 0.930 . S
H3638 C3648 0.930 . S
H3639 C3651 0.929 . S
H3640 C3654 0.930 . S
H3641 C3656 0.960 . S
H3642 C3656 0.960 . S
H3643 C3656 0.960 . S
C3644 H3636 0.929 . S
C3644 C3645 1.377 . S
C3644 C3646 1.384 . S
C3645 C3644 1.377 . S
C3645 C3651 1.390 . S
C3646 H3637 0.930 . S
C3646 C3644 1.384 . S
C3646 C3647 1.372 . S
C3647 C3646 1.372 . S
C3647 C3648 1.400 . S
C3647 C3652 1.490 . S
C3648 H3638 0.930 . S
C3648 C3647 1.400 . S
C3648 C3651 1.386 . S
H3649 C3665 0.930 . S
H3650 C3666 0.931 . S
C3651 H3639 0.929 . S
C3651 C3645 1.390 . S
C3651 C3648 1.386 . S
C3652 C3647 1.490 . S
C3652 C3654 1.395 . S
C3652 C3655 1.403 . S
H3653 C3659 0.930 . S
C3654 H3640 0.930 . S
C3654 C3652 1.395 . S
C3654 C3657 1.403 . S
C3655 C3652 1.403 . S
C3655 C3656 1.524 . S
C3655 C3659 1.400 . S
C3656 H3641 0.960 . S
C3656 H3642 0.960 . S
C3656 H3643 0.960 . S
C3656 C3655 1.524 . S
C3657 C3654 1.403 . S
C3657 C3658 1.392 . S
C3657 C3661 1.495 . S
C3658 C3657 1.392 . S
C3658 C3659 1.385 . S
C3658 C3660 1.478 . S
C3659 H3653 0.930 . S
C3659 C3655 1.400 . S
C3659 C3658 1.385 . S
C3660 C3658 1.478 . S
C3660 C3662 1.381 . S
C3660 C3666 1.383 . S
C3661 C3657 1.495 . S
C3661 H3667 0.959 . S
C3661 H3668 0.961 . S
C3661 H3669 0.960 . S
C3662 C3660 1.381 . S
C3662 C3663 1.394 . S
C3662 H3670 0.930 . S
C3663 C3662 1.394 . S
C3663 C3664 1.383 . S
C3663 H3671 0.929 . S
C3664 C3663 1.383 . S
C3664 C3665 1.377 . S
C3665 H3649 0.930 . S
C3665 C3664 1.377 . S
C3665 C3666 1.379 . S
C3666 H3650 0.931 . S
C3666 C3660 1.383 . S
C3666 C3665 1.379 . S
H3667 C3661 0.959 . S
H3668 C3661 0.961 . S
H3669 C3661 0.960 . S
H3670 C3662 0.930 . S
H3671 C3663 0.929 . S
H3672 C3680 0.929 . S
H3673 C3682 0.930 . S
H3674 C3684 0.930 . S
H3675 C3687 0.929 . S
H3676 C3690 0.930 . S
H3677 C3692 0.960 . S
H3678 C3692 0.960 . S
H3679 C3692 0.960 . S
C3680 H3672 0.929 . S
C3680 C3681 1.377 . S
C3680 C3682 1.384 . S
C3681 C3680 1.377 . S
C3681 C3687 1.390 . S
C3682 H3673 0.930 . S
C3682 C3680 1.384 . S
C3682 C3683 1.372 . S
C3683 C3682 1.372 . S
C3683 C3684 1.400 . S
C3683 C3688 1.490 . S
C3684 H3674 0.930 . S
C3684 C3683 1.400 . S
C3684 C3687 1.386 . S
H3685 C3701 0.930 . S
H3686 C3702 0.931 . S
C3687 H3675 0.929 . S
C3687 C3681 1.390 . S
C3687 C3684 1.386 . S
C3688 C3683 1.490 . S
C3688 C3690 1.395 . S
C3688 C3691 1.403 . S
H3689 C3695 0.930 . S
C3690 H3676 0.930 . S
C3690 C3688 1.395 . S
C3690 C3693 1.403 . S
C3691 C3688 1.403 . S
C3691 C3692 1.524 . S
C3691 C3695 1.400 . S
C3692 H3677 0.960 . S
C3692 H3678 0.960 . S
C3692 H3679 0.960 . S
C3692 C3691 1.524 . S
C3693 C3690 1.403 . S
C3693 C3694 1.392 . S
C3693 C3697 1.495 . S
C3694 C3693 1.392 . S
C3694 C3695 1.385 . S
C3694 C3696 1.478 . S
C3695 H3689 0.930 . S
C3695 C3691 1.400 . S
C3695 C3694 1.385 . S
C3696 C3694 1.478 . S
C3696 C3698 1.381 . S
C3696 C3702 1.383 . S
C3697 C3693 1.495 . S
C3697 H3703 0.959 . S
C3697 H3704 0.961 . S
C3697 H3705 0.960 . S
C3698 C3696 1.381 . S
C3698 C3699 1.394 . S
C3698 H3706 0.930 . S
C3699 C3698 1.394 . S
C3699 C3700 1.383 . S
C3699 H3707 0.929 . S
C3700 C3699 1.383 . S
C3700 C3701 1.377 . S
C3701 H3685 0.930 . S
C3701 C3700 1.377 . S
C3701 C3702 1.379 . S
C3702 H3686 0.931 . S
C3702 C3696 1.383 . S
C3702 C3701 1.379 . S
H3703 C3697 0.959 . S
H3704 C3697 0.961 . S
H3705 C3697 0.960 . S
H3706 C3698 0.930 . S
H3707 C3699 0.929 . S
H3708 C3716 0.929 . S
H3709 C3718 0.930 . S
H3710 C3720 0.930 . S
H3711 C3723 0.929 . S
H3712 C3726 0.930 . S
H3713 C3728 0.960 . S
H3714 C3728 0.960 . S
H3715 C3728 0.960 . S
C3716 H3708 0.929 . S
C3716 C3717 1.377 . S
C3716 C3718 1.384 . S
C3717 C3716 1.377 . S
C3717 C3723 1.390 . S
C3718 H3709 0.930 . S
C3718 C3716 1.384 . S
C3718 C3719 1.372 . S
C3719 C3718 1.372 . S
C3719 C3720 1.400 . S
C3719 C3724 1.490 . S
C3720 H3710 0.930 . S
C3720 C3719 1.400 . S
C3720 C3723 1.386 . S
H3721 C3737 0.930 . S
H3722 C3738 0.931 . S
C3723 H3711 0.929 . S
C3723 C3717 1.390 . S
C3723 C3720 1.386 . S
C3724 C3719 1.490 . S
C3724 C3726 1.395 . S
C3724 C3727 1.403 . S
H3725 C3731 0.930 . S
C3726 H3712 0.930 . S
C3726 C3724 1.395 . S
C3726 C3729 1.403 . S
C3727 C3724 1.403 . S
C3727 C3728 1.524 . S
C3727 C3731 1.400 . S
C3728 H3713 0.960 . S
C3728 H3714 0.960 . S
C3728 H3715 0.960 . S
C3728 C3727 1.524 . S
C3729 C3726 1.403 . S
C3729 C3730 1.392 . S
C3729 C3733 1.495 . S
C3730 C3729 1.392 . S
C3730 C3731 1.385 . S
C3730 C3732 1.478 . S
C3731 H3725 0.930 . S
C3731 C3727 1.400 . S
C3731 C3730 1.385 . S
C3732 C3730 1.478 . S
C3732 C3734 1.381 . S
C3732 C3738 1.383 . S
C3733 C3729 1.495 . S
C3733 H3739 0.959 . S
C3733 H3740 0.961 . S
C3733 H3741 0.960 . S
C3734 C3732 1.381 . S
C3734 C3735 1.394 . S
C3734 H3742 0.930 . S
C3735 C3734 1.394 . S
C3735 C3736 1.383 . S
C3735 H3743 0.929 . S
C3736 C3735 1.383 . S
C3736 C3737 1.377 . S
C3737 H3721 0.930 . S
C3737 C3736 1.377 . S
C3737 C3738 1.379 . S
C3738 H3722 0.931 . S
C3738 C3732 1.383 . S
C3738 C3737 1.379 . S
H3739 C3733 0.959 . S
H3740 C3733 0.961 . S
H3741 C3733 0.960 . S
H3742 C3734 0.930 . S
H3743 C3735 0.929 . S
H3744 C3752 0.929 . S
H3745 C3754 0.930 . S
H3746 C3756 0.930 . S
H3747 C3759 0.929 . S
H3748 C3762 0.930 . S
H3749 C3764 0.960 . S
H3750 C3764 0.960 . S
H3751 C3764 0.960 . S
C3752 H3744 0.929 . S
C3752 C3753 1.377 . S
C3752 C3754 1.384 . S
C3753 C3752 1.377 . S
C3753 C3759 1.390 . S
C3754 H3745 0.930 . S
C3754 C3752 1.384 . S
C3754 C3755 1.372 . S
C3755 C3754 1.372 . S
C3755 C3756 1.400 . S
C3755 C3760 1.490 . S
C3756 H3746 0.930 . S
C3756 C3755 1.400 . S
C3756 C3759 1.386 . S
H3757 C3773 0.930 . S
H3758 C3774 0.931 . S
C3759 H3747 0.929 . S
C3759 C3753 1.390 . S
C3759 C3756 1.386 . S
C3760 C3755 1.490 . S
C3760 C3762 1.395 . S
C3760 C3763 1.403 . S
H3761 C3767 0.930 . S
C3762 H3748 0.930 . S
C3762 C3760 1.395 . S
C3762 C3765 1.403 . S
C3763 C3760 1.403 . S
C3763 C3764 1.524 . S
C3763 C3767 1.400 . S
C3764 H3749 0.960 . S
C3764 H3750 0.960 . S
C3764 H3751 0.960 . S
C3764 C3763 1.524 . S
C3765 C3762 1.403 . S
C3765 C3766 1.392 . S
C3765 C3769 1.495 . S
C3766 C3765 1.392 . S
C3766 C3767 1.385 . S
C3766 C3768 1.478 . S
C3767 H3761 0.930 . S
C3767 C3763 1.400 . S
C3767 C3766 1.385 . S
C3768 C3766 1.478 . S
C3768 C3770 1.381 . S
C3768 C3774 1.383 . S
C3769 C3765 1.495 . S
C3769 H3775 0.959 . S
C3769 H3776 0.961 . S
C3769 H3777 0.960 . S
C3770 C3768 1.381 . S
C3770 C3771 1.394 . S
C3770 H3778 0.930 . S
C3771 C3770 1.394 . S
C3771 C3772 1.383 . S
C3771 H3779 0.929 . S
C3772 C3771 1.383 . S
C3772 C3773 1.377 . S
C3773 H3757 0.930 . S
C3773 C3772 1.377 . S
C3773 C3774 1.379 . S
C3774 H3758 0.931 . S
C3774 C3768 1.383 . S
C3774 C3773 1.379 . S
H3775 C3769 0.959 . S
H3776 C3769 0.961 . S
H3777 C3769 0.960 . S
H3778 C3770 0.930 . S
H3779 C3771 0.929 . S
H3780 C3788 0.929 . S
H3781 C3790 0.930 . S
H3782 C3792 0.930 . S
H3783 C3795 0.929 . S
H3784 C3798 0.930 . S
H3785 C3800 0.960 . S
H3786 C3800 0.960 . S
H3787 C3800 0.960 . S
C3788 H3780 0.929 . S
C3788 C3789 1.377 . S
C3788 C3790 1.384 . S
C3789 C3788 1.377 . S
C3789 C3795 1.390 . S
C3790 H3781 0.930 . S
C3790 C3788 1.384 . S
C3790 C3791 1.372 . S
C3791 C3790 1.372 . S
C3791 C3792 1.400 . S
C3791 C3796 1.490 . S
C3792 H3782 0.930 . S
C3792 C3791 1.400 . S
C3792 C3795 1.386 . S
H3793 C3809 0.930 . S
H3794 C3810 0.931 . S
C3795 H3783 0.929 . S
C3795 C3789 1.390 . S
C3795 C3792 1.386 . S
C3796 C3791 1.490 . S
C3796 C3798 1.395 . S
C3796 C3799 1.403 . S
H3797 C3803 0.930 . S
C3798 H3784 0.930 . S
C3798 C3796 1.395 . S
C3798 C3801 1.403 . S
C3799 C3796 1.403 . S
C3799 C3800 1.524 . S
C3799 C3803 1.400 . S
C3800 H3785 0.960 . S
C3800 H3786 0.960 . S
C3800 H3787 0.960 . S
C3800 C3799 1.524 . S
C3801 C3798 1.403 . S
C3801 C3802 1.392 . S
C3801 C3805 1.495 . S
C3802 C3801 1.392 . S
C3802 C3803 1.385 . S
C3802 C3804 1.478 . S
C3803 H3797 0.930 . S
C3803 C3799 1.400 . S
C3803 C3802 1.385 . S
C3804 C3802 1.478 . S
C3804 C3806 1.381 . S
C3804 C3810 1.383 . S
C3805 C3801 1.495 . S
C3805 H3811 0.959 . S
C3805 H3812 0.961 . S
C3805 H3813 0.960 . S
C3806 C3804 1.381 . S
C3806 C3807 1.394 . S
C3806 H3814 0.930 . S
C3807 C3806 1.394 . S
C3807 C3808 1.383 . S
C3807 H3815 0.929 . S
C3808 C3807 1.383 . S
C3808 C3809 1.377 . S
C3809 H3793 0.930 . S
C3809 C3808 1.377 . S
C3809 C3810 1.379 . S
C3810 H3794 0.931 . S
C3810 C3804 1.383 . S
C3810 C3809 1.379 . S
H3811 C3805 0.959 . S
H3812 C3805 0.961 . S
H3813 C3805 0.960 . S
H3814 C3806 0.930 . S
H3815 C3807 0.929 . S
H3816 C3824 0.929 . S
H3817 C3826 0.930 . S
H3818 C3828 0.930 . S
H3819 C3831 0.929 . S
H3820 C3834 0.930 . S
H3821 C3836 0.960 . S
H3822 C3836 0.960 . S
H3823 C3836 0.960 . S
C3824 H3816 0.929 . S
C3824 C3825 1.377 . S
C3824 C3826 1.384 . S
C3825 C3824 1.377 . S
C3825 C3831 1.390 . S
C3826 H3817 0.930 . S
C3826 C3824 1.384 . S
C3826 C3827 1.372 . S
C3827 C3826 1.372 . S
C3827 C3828 1.400 . S
C3827 C3832 1.490 . S
C3828 H3818 0.930 . S
C3828 C3827 1.400 . S
C3828 C3831 1.386 . S
H3829 C3845 0.930 . S
H3830 C3846 0.931 . S
C3831 H3819 0.929 . S
C3831 C3825 1.390 . S
C3831 C3828 1.386 . S
C3832 C3827 1.490 . S
C3832 C3834 1.395 . S
C3832 C3835 1.403 . S
H3833 C3839 0.930 . S
C3834 H3820 0.930 . S
C3834 C3832 1.395 . S
C3834 C3837 1.403 . S
C3835 C3832 1.403 . S
C3835 C3836 1.524 . S
C3835 C3839 1.400 . S
C3836 H3821 0.960 . S
C3836 H3822 0.960 . S
C3836 H3823 0.960 . S
C3836 C3835 1.524 . S
C3837 C3834 1.403 . S
C3837 C3838 1.392 . S
C3837 C3841 1.495 . S
C3838 C3837 1.392 . S
C3838 C3839 1.385 . S
C3838 C3840 1.478 . S
C3839 H3833 0.930 . S
C3839 C3835 1.400 . S
C3839 C3838 1.385 . S
C3840 C3838 1.478 . S
C3840 C3842 1.381 . S
C3840 C3846 1.383 . S
C3841 C3837 1.495 . S
C3841 H3847 0.959 . S
C3841 H3848 0.961 . S
C3841 H3849 0.960 . S
C3842 C3840 1.381 . S
C3842 C3843 1.394 . S
C3842 H3850 0.930 . S
C3843 C3842 1.394 . S
C3843 C3844 1.383 . S
C3843 H3851 0.929 . S
C3844 C3843 1.383 . S
C3844 C3845 1.377 . S
C3845 H3829 0.930 . S
C3845 C3844 1.377 . S
C3845 C3846 1.379 . S
C3846 H3830 0.931 . S
C3846 C3840 1.383 . S
C3846 C3845 1.379 . S
H3847 C3841 0.959 . S
H3848 C3841 0.961 . S
H3849 C3841 0.960 . S
H3850 C3842 0.930 . S
H3851 C3843 0.929 . S
C1288 C966 0.960 . S
C1269 C941 0.952 . S
C1305 C861 0.969 . S
C1324 C964 0.977 . S
C1360 C965 0.967 . S
C1341 C821 0.959 . S
C1377 C901 0.945 . S
C1396 C967 0.950 . S
C1432 C1011 0.970 . S
C1413 C661 0.971 . S
C1468 C1071 0.957 . S
C1449 C701 0.957 . S
C1485 C741 0.964 . S
C1504 C1010 0.970 . S
C1540 C1070 0.965 . S
C1521 C781 0.960 . S
C1557 C501 0.955 . S
C1576 C1012 0.962 . S
C1612 C1068 0.973 . S
C1593 C541 0.973 . S
C1629 C581 0.963 . S
C1648 C1013 0.962 . S
C1665 C621 0.960 . S
C1684 C1069 0.966 . S
C1720 C1119 0.959 . S
C1701 C461 0.960 . S
C1737 C381 0.968 . S
C1756 C1118 0.965 1_556 S
C1773 C341 0.972 . S
C1792 C1120 0.966 . S
C1828 C1121 0.961 . S
C1809 C421 0.964 . S
C1845 C181 0.965 1_455 S
C1864 C1162 0.962 . S
C1881 C221 0.958 . S
C1900 C1221 0.955 . S
C1917 C261 0.960 1_455 S
C1936 C1160 0.975 . S
C1953 C301 0.975 . S
C1972 C1220 0.975 . S
C2008 C1161 0.974 . S
C1989 C21 0.953 1_455 S
C2044 C1218 0.979 . S
C2025 C61 0.981 . S
C2061 C101 0.956 1_455 S
C2080 C1163 0.960 . S
C2116 C1219 0.965 . S
C2097 C141 0.953 1_545 S
C2152 C963 1.962 . S
C2133 C15 1.864 . S
C2169 C42 1.903 . S
C2188 C969 1.968 . S
C2205 C82 1.880 1_455 S
C2224 C961 1.964 . S
C2241 C122 1.885 1_545 S
C2260 C968 1.966 . S
C2277 C175 1.859 . S
C2296 C960 1.956 . S
C2332 C970 1.947 . S
C2313 C202 1.884 . S
C2349 C242 1.897 1_455 S
C2368 C962 1.974 . S
C2404 C971 1.965 . S
C2385 C295 1.859 . S
C2440 C1017 1.962 1_565 S
C2421 C135 1.856 . S
C2457 C2 1.884 1_455 S
C2476 C1060 1.968 . S
C2512 C1015 1.963 . S
C2493 C55 1.864 . S
C2548 C1062 1.972 . S
C2529 C95 1.862 . S
C2565 C215 1.859 . S
C2584 C1016 1.972 . S
C2620 C1061 1.974 1_655 S
C2601 C255 1.867 . S
C2656 C1014 1.962 . S
C2637 C282 1.898 . S
C2692 C1063 1.970 . S
C2673 C162 1.887 1_455 S
C2728 C1067 1.969 . S
C2709 C322 1.896 . S
C2745 C375 1.860 . S
C2764 C1066 1.957 . S
C2800 C1018 1.955 . S
C2781 C335 1.855 . S
C2836 C1065 1.965 . S
C2817 C415 1.857 . S
C2853 C455 1.861 . S
C2872 C1021 1.967 1_556 S
C2889 C442 1.884 . S
C2908 C1064 1.947 . S
C2944 C1020 1.962 1_556 S
C2925 C362 1.888 . S
C2980 C1019 1.964 . S
C2961 C402 1.890 . S
C3016 C1113 1.961 . S
C2997 C495 1.863 . S
C3052 C1116 1.958 . S
C3033 C522 1.894 . S
C3069 C562 1.892 . S
C3088 C1112 1.956 . S
C3124 C1114 1.966 . S
C3105 C602 1.896 . S
C3160 C1110 1.958 . S
C3141 C655 1.857 . S
C3177 C682 1.889 . S
C3196 C1115 1.967 . S
C3213 C722 1.890 . S
C3232 C1111 1.970 . S
C3268 C1117 1.972 . S
C3249 C775 1.860 . S
C3304 C1171 1.972 . S
C3285 C615 1.862 . S
C3321 C482 1.888 . S
C3340 C1210 1.953 . S
C3376 C1170 1.964 . S
C3357 C535 1.867 . S
C3412 C1212 1.957 . S
C3393 C575 1.858 . S
C3448 C1169 1.957 . S
C3429 C695 1.853 . S
C3465 C735 1.866 . S
C3484 C1211 1.977 . S
C3520 C1168 1.971 . S
C3501 C762 1.895 . S
C3556 C1213 1.971 . S
C3537 C642 1.892 . S
C3592 C1217 1.956 . S
C3573 C815 1.854 . S
C3609 C855 1.860 . S
C3628 C1216 1.959 . S
C3664 C1164 1.968 . S
C3645 C802 1.889 . S
C3681 C895 1.855 . S
C3700 C1215 1.961 . S
C3736 C1167 1.965 . S
C3717 C935 1.863 . S
C3772 C1214 1.950 . S
C3753 C922 1.877 . S
C3808 C1165 1.969 . S
C3789 C842 1.889 . S
C3825 C882 1.881 . S
C3844 C1166 1.961 . S
