# Generated by pormake.
# Topology pts, (4,4)-cn, num edge types: 1
# Building blocks:
#     Node 0, Type 0, BuildingBlock: MUDLON_clean_sbu_0, # of connection points: 4
#     Node 1, Type 0, BuildingBlock: MUDLON_clean_sbu_0, # of connection points: 4
#     Node 2, Type 1, BuildingBlock: QUQFOY_clean_sbu_1, # of connection points: 4
#     Node 3, Type 1, BuildingBlock: QUQFOY_clean_sbu_1, # of connection points: 4
#     Edge 4, Type (0, 1), BuildingBlock: FUNLAD_clean_linker_1, # of connection points: 2
#     Edge 5, Type (0, 1), BuildingBlock: FUNLAD_clean_linker_1, # of connection points: 2
#     Edge 6, Type (0, 1), BuildingBlock: FUNLAD_clean_linker_1, # of connection points: 2
#     Edge 7, Type (0, 1), BuildingBlock: FUNLAD_clean_linker_1, # of connection points: 2
#     Edge 8, Type (0, 1), BuildingBlock: FUNLAD_clean_linker_1, # of connection points: 2
#     Edge 9, Type (0, 1), BuildingBlock: FUNLAD_clean_linker_1, # of connection points: 2
#     Edge 10, Type (0, 1), BuildingBlock: FUNLAD_clean_linker_1, # of connection points: 2
#     Edge 11, Type (0, 1), BuildingBlock: FUNLAD_clean_linker_1, # of connection points: 2
# Relax obj value: 0.129
# Max RMSD: 0.244
# Mean RMSD: 0.144
data_MOF--net-pts--node1-MUDLON_clean_sbu_0--node2-QUQFOY_clean_sbu_1--edge1-FUNLAD_clean_linker_1
_symmetry_space_group_name_H-M    P1
_symmetry_Int_Tables_number       1
_symmetry_cell_setting            triclinic
loop_
_symmetry_equiv_pos_as_xyz
'x, y, z'
_cell_length_a     22.52686
_cell_length_b     24.351605
_cell_length_c     42.354988
_cell_angle_alpha  90.319117
_cell_angle_beta   89.900121
_cell_angle_gamma 89.64206
loop_
_atom_site_label
_atom_site_type_symbol
_atom_site_fract_x
_atom_site_fract_y
_atom_site_fract_z
_atom_type_partial_charge
Mg0 Mg 0.50048 0.99349 0.03212 0.0
C1 C 0.41033 0.98488 0.98483 0.0
O2 O 0.41799 0.03745 0.99064 0.0
C3 C 0.61535 0.93832 0.05471 0.0
O4 O 0.63358 0.94703 0.02574 0.0
C5 C 0.41832 0.99231 0.08311 0.0
O6 O 0.433 0.94122 0.07662 0.0
O7 O 0.44109 0.03058 0.06677 0.0
O8 O 0.44099 0.95022 1.00029 0.0
O9 O 0.55449 0.04561 1.00187 0.0
C10 C 0.56841 1.02223 0.97591 0.0
O11 O 0.54827 0.97265 0.97018 0.0
O12 O 0.56149 0.94787 0.06196 0.0
Mg13 Mg 0.98843 0.54514 0.52225 0.0
C14 C 0.06857 0.63987 0.53839 0.0
O15 O 0.06307 0.64909 0.50804 0.0
C16 C 0.07275 0.46118 0.48607 0.0
O17 O 0.11673 0.47583 0.5045 0.0
C18 C 0.93285 0.59914 0.46554 0.0
O19 O 0.94595 0.55114 0.45305 0.0
O20 O 0.93924 0.60623 0.49512 0.0
O21 O 0.04896 0.59524 0.54972 0.0
O22 O 0.94223 0.49543 0.55713 0.0
C23 C 0.97681 0.45845 0.56787 0.0
O24 O 0.03162 0.45625 0.55728 0.0
O25 O 0.0224 0.48458 0.48872 0.0
O26 O 0.92482 0.98575 0.24933 0.0
Cd27 Cd 0.99807 0.98906 0.2782 0.0
Cd28 Cd 0.97388 0.09715 0.27798 0.0
O29 O 0.89559 0.07153 0.25676 0.0
O30 O 0.00514 0.91529 0.29828 0.0
O31 O 0.98525 0.99163 0.32514 0.0
C32 C 0.99211 0.93892 0.3248 0.0
C33 C 0.97537 0.16285 0.31835 0.0
C34 C 0.88733 1.02411 0.24488 0.0
C35 C 0.08583 0.05889 0.2452 0.0
O36 O 0.04885 0.09762 0.24998 0.0
O37 O 0.07683 1.01132 0.25654 0.0
O38 O 0.96157 0.17585 0.28986 0.0
O39 O 0.9855 0.11176 0.32451 0.0
O40 O 0.9162 0.06382 0.79733 0.0
Cd41 Cd 0.99401 0.07653 0.77288 0.0
Cd42 Cd 0.99629 0.9641 0.77138 0.0
O43 O 0.91345 0.97357 0.79222 0.0
O44 O 0.98908 0.15444 0.75865 0.0
O45 O 0.99433 0.08386 0.72553 0.0
C46 C 0.98984 0.13624 0.72999 0.0
C47 C 0.01034 0.90119 0.73002 0.0
C48 C 0.89062 1.01829 0.8022 0.0
C49 C 0.09268 1.02134 0.80811 0.0
O50 O 0.0685 0.97614 0.80049 0.0
O51 O 0.07166 0.06675 0.79835 0.0
O52 O 0.00165 0.88519 0.75856 0.0
O53 O 0.0096 0.95333 0.72451 0.0
H54 H 0.3608 0.96651 0.12183 0.0
C55 C 0.37616 1.00243 0.10909 0.0
H56 H 0.36747 0.08858 0.10453 0.0
H57 H 0.10721 0.05626 0.16437 0.0
H58 H 0.08308 0.08363 0.11103 0.0
H59 H 0.16203 0.09942 0.07175 0.0
H60 H 0.26579 0.08755 0.08566 0.0
C61 C 0.35499 0.052 0.11745 0.0
C62 C 0.30934 0.05567 0.14291 0.0
C63 C 0.24917 0.06516 0.13487 0.0
C64 C 0.20375 0.05719 0.15777 0.0
C65 C 0.14375 0.06347 0.14839 0.0
C66 C 0.12918 0.07879 0.1177 0.0
C67 C 0.17362 0.08758 0.09557 0.0
C68 C 0.23297 0.08059 0.10386 0.0
H69 H 0.14447 0.11177 0.21706 0.0
C70 C 0.1373 0.06972 0.22462 0.0
H71 H 0.16574 0.98724 0.22001 0.0
H72 H 0.42083 0.04282 0.16715 0.0
H73 H 0.44589 1.01793 0.22101 0.0
H74 H 0.36738 1.00385 0.26079 0.0
H75 H 0.26338 1.01465 0.24703 0.0
C76 C 0.17171 0.02952 0.21264 0.0
C77 C 0.21894 0.04135 0.189 0.0
C78 C 0.2794 0.03483 0.19743 0.0
C79 C 0.32464 0.0424 0.17444 0.0
C80 C 0.38473 0.03632 0.18358 0.0
C81 C 0.39971 1.02243 0.21443 0.0
C82 C 0.3555 1.01455 0.23684 0.0
C83 C 0.29598 1.02075 0.22861 0.0
H84 H 0.91469 0.42574 0.60398 0.0
C85 C 0.95768 0.41992 0.59275 0.0
H86 H 0.0377 0.3743 0.59141 0.0
H87 H 0.04917 0.29108 0.72908 0.0
H88 H 0.11671 0.36785 0.7322 0.0
H89 H 0.12288 0.43507 0.689 0.0
H90 H 0.06162 0.42567 0.64229 0.0
C91 C 0.9942 0.37921 0.60224 0.0
C92 C 0.98203 0.34389 0.63004 0.0
C93 C 0.01706 0.35055 0.65756 0.0
C94 C 0.01267 0.31235 0.68271 0.0
C95 C 0.04971 0.3193 0.70946 0.0
C96 C 0.08893 0.36316 0.71155 0.0
C97 C 0.09248 0.40093 0.68721 0.0
C98 C 0.05718 0.39491 0.66047 0.0
H99 H 0.99764 0.15879 0.67961 0.0
C100 C 0.98638 0.17429 0.70299 0.0
H101 H 0.95928 0.24274 0.73024 0.0
H102 H 0.90872 0.31897 0.58062 0.0
H103 H 0.83718 0.24498 0.57847 0.0
H104 H 0.82479 0.18221 0.6235 0.0
H105 H 0.88473 0.1923 0.67068 0.0
C106 C 0.9701 0.22721 0.7068 0.0
C107 C 0.97272 0.26767 0.6805 0.0
C108 C 0.93549 0.26256 0.65362 0.0
C109 C 0.94093 0.30016 0.62812 0.0
C110 C 0.9054 0.29245 0.60094 0.0
C111 C 0.86421 0.2501 0.59938 0.0
C112 C 0.85735 0.21466 0.6247 0.0
C113 C 0.89235 0.22068 0.65158 0.0
H114 H 0.70525 0.92074 0.07288 0.0
C115 C 0.65986 0.93028 0.07985 0.0
H116 H 0.60305 0.95422 0.11736 0.0
H117 H 0.77095 0.89145 0.23046 0.0
H118 H 0.69519 0.82162 0.23546 0.0
H119 H 0.61938 0.8093 0.19409 0.0
H120 H 0.61867 0.8669 0.14751 0.0
C121 C 0.6481 0.94404 0.11007 0.0
C122 C 0.69587 0.94986 0.13417 0.0
C123 C 0.6961 0.91553 0.16109 0.0
C124 C 0.74029 0.92219 0.18477 0.0
C125 C 0.73886 0.88778 0.2116 0.0
C126 C 0.69555 0.84759 0.2148 0.0
C127 C 0.65283 0.84069 0.19152 0.0
C128 C 0.65288 0.87411 0.16493 0.0
H129 H 0.80483 0.04863 0.22035 0.0
C130 C 0.83632 1.01514 0.22362 0.0
H131 H 0.86188 0.93502 0.20934 0.0
H132 H 0.70317 0.02917 0.08831 0.0
H133 H 0.78151 0.09565 0.08203 0.0
H134 H 0.86424 0.10026 0.11999 0.0
H135 H 0.86798 0.03945 0.16494 0.0
C136 C 0.83117 0.9691 0.20608 0.0
C137 C 0.78447 0.96298 0.18143 0.0
C138 C 0.78499 0.99667 0.15418 0.0
C139 C 0.73947 0.99146 0.13112 0.0
C140 C 0.73838 0.02889 0.1056 0.0
C141 C 0.78288 0.06775 0.10183 0.0
C142 C 0.82926 0.07054 0.12328 0.0
C143 C 0.83056 0.03557 0.14916 0.0
H144 H 0.09904 0.72403 0.54905 0.0
C145 C 0.08266 0.68643 0.55959 0.0
H146 H 0.04804 0.64992 0.60081 0.0
H147 H 0.13799 0.83026 0.69703 0.0
H148 H 0.21497 0.76155 0.70486 0.0
H149 H 0.22358 0.68141 0.66921 0.0
H150 H 0.15554 0.66977 0.62529 0.0
C151 C 0.06544 0.68688 0.59003 0.0
C152 C 0.06393 0.73814 0.60945 0.0
C153 C 0.10346 0.74411 0.63518 0.0
C154 C 0.09772 0.7898 0.65612 0.0
C155 C 0.1391 0.79548 0.68103 0.0
C156 C 0.1838 0.75656 0.68564 0.0
C157 C 0.1887 0.71148 0.66555 0.0
C158 C 0.14925 0.70519 0.64051 0.0
H159 H 0.01664 0.81695 0.71123 0.0
C160 C 0.02174 0.85994 0.70502 0.0
H161 H 0.04474 0.9155 0.66894 0.0
H162 H 0.98005 0.73971 0.56238 0.0
H163 H 0.90514 0.80957 0.55388 0.0
H164 H 0.89632 0.88935 0.58975 0.0
H165 H 0.96241 0.89944 0.6345 0.0
C166 C 0.04015 0.87281 0.67579 0.0
C167 C 0.05144 0.82886 0.65172 0.0
C168 C 0.01378 0.82442 0.62506 0.0
C169 C 0.01953 0.77875 0.60408 0.0
C170 C 0.97904 0.77404 0.57864 0.0
C171 C 0.93543 0.81378 0.57356 0.0
C172 C 0.93042 0.85866 0.59377 0.0
C173 C 0.96875 0.86397 0.61935 0.0
H174 H 0.36028 0.92378 0.95643 0.0
C175 C 0.36794 0.96732 0.96024 0.0
H176 H 0.3458 0.04837 0.94693 0.0
H177 H 0.25471 0.936 0.81555 0.0
H178 H 0.35803 0.91179 0.80608 0.0
H179 H 0.43315 0.92394 0.84782 0.0
H180 H 0.40549 0.95986 0.89934 0.0
C181 C 0.33918 1.00481 0.94263 0.0
C182 C 0.29375 0.99018 0.91867 0.0
C183 C 0.31082 0.96887 0.88874 0.0
C184 C 0.26765 0.96256 0.8645 0.0
C185 C 0.28579 0.94169 0.83473 0.0
C186 C 0.34491 0.9277 0.82898 0.0
C187 C 0.3872 0.93451 0.8525 0.0
C188 C 0.37068 0.95503 0.88203 0.0
H189 H 0.16012 0.06146 0.83797 0.0
C190 C 0.14269 1.02188 0.8306 0.0
H191 H 0.14748 0.93572 0.83691 0.0
H192 H 0.24573 0.02826 0.97406 0.0
H193 H 0.14213 0.05047 0.98382 0.0
H194 H 0.06719 0.03859 0.94196 0.0
H195 H 0.09543 1.00482 0.89007 0.0
C196 C 0.16367 0.97581 0.84409 0.0
C197 C 0.20791 0.97841 0.87009 0.0
C198 C 0.19038 0.99727 0.90047 0.0
C199 C 0.23344 1.00353 0.92469 0.0
C200 C 0.21488 1.02305 0.95473 0.0
C201 C 0.15552 0.03573 0.9607 0.0
C202 C 0.11334 0.02907 0.93713 0.0
C203 C 0.13025 1.00994 0.90737 0.0
H204 H 0.12203 0.39246 0.46317 0.0
C205 C 0.07932 0.41331 0.46463 0.0
H206 H 0.98912 0.41277 0.45112 0.0
H207 H 0.0926 0.25098 0.3382 0.0
H208 H 0.15089 0.32863 0.32085 0.0
H209 H 0.15518 0.41357 0.35276 0.0
H210 H 0.10226 0.42095 0.40248 0.0
C211 C 0.03248 0.3934 0.44858 0.0
C212 C 0.03471 0.34117 0.43014 0.0
C213 C 0.06473 0.33822 0.40072 0.0
C214 C 0.06007 0.29014 0.38163 0.0
C215 C 0.09254 0.28733 0.35299 0.0
C216 C 0.12655 0.33146 0.34286 0.0
C217 C 0.12912 0.37921 0.36088 0.0
C218 C 0.09863 0.38282 0.38946 0.0
H219 H 0.9672 0.24759 0.33617 0.0
C220 C 0.98242 0.20655 0.34228 0.0
H221 H 0.02732 0.15832 0.37615 0.0
H222 H 0.97738 0.33093 0.4868 0.0
H223 H 0.91954 0.25298 0.50422 0.0
H224 H 0.90834 0.17116 0.47017 0.0
H225 H 0.95519 0.16664 0.41857 0.0
C226 C 0.01172 0.19897 0.36955 0.0
C227 C 0.02332 0.2461 0.39133 0.0
C228 C 0.99587 0.24795 0.42143 0.0
C229 C 0.00167 0.29547 0.44087 0.0
C230 C 0.97369 0.29623 0.47086 0.0
C231 C 0.94053 0.25169 0.4812 0.0
C232 C 0.93429 0.20559 0.46205 0.0
C233 C 0.96144 0.20354 0.43248 0.0
H234 H 0.63488 0.08402 0.96111 0.0
C235 C 0.61175 0.04692 0.95404 0.0
H236 H 0.60186 0.98514 0.9192 0.0
H237 H 0.7276 0.1033 0.80673 0.0
H238 H 0.62576 0.1293 0.79479 0.0
H239 H 0.54569 0.11468 0.83363 0.0
H240 H 0.56691 0.07408 0.88471 0.0
C241 C 0.62582 1.02153 0.9267 0.0
C242 C 0.6752 0.03942 0.90592 0.0
C243 C 0.66223 0.06369 0.87638 0.0
C244 C 0.70841 0.07228 0.85402 0.0
C245 C 0.69412 0.096 0.82455 0.0
C246 C 0.63591 0.11109 0.81742 0.0
C247 C 0.59081 0.10282 0.83928 0.0
C248 C 0.60353 0.07935 0.86845 0.0
H249 H 0.81772 0.97633 0.82703 0.0
C250 C 0.83693 1.01629 0.82221 0.0
H251 H 0.83316 0.1015 0.83255 0.0
H252 H 0.71587 0.99301 0.96076 0.0
H253 H 0.81805 0.97103 0.97347 0.0
H254 H 0.89855 0.98933 0.93546 0.0
H255 H 0.8771 0.02905 0.88431 0.0
C256 C 0.81492 0.06107 0.83699 0.0
C257 C 0.76735 0.05622 0.86122 0.0
C258 C 0.78091 0.03481 0.89146 0.0
C259 C 0.73468 0.02574 0.91371 0.0
C260 C 0.74921 1.00189 0.94317 0.0
C261 C 0.80777 0.98894 0.95077 0.0
C262 C 0.85307 0.99914 0.92935 0.0
C263 C 0.84009 1.02176 0.90002 0.0
H264 H 0.92305 0.63756 0.41902 0.0
C265 C 0.92397 0.64629 0.44422 0.0
H266 H 0.93 0.70803 0.47914 0.0
H267 H 0.07257 0.86523 0.38816 0.0
H268 H 0.14116 0.85132 0.4314 0.0
H269 H 0.11656 0.78888 0.4751 0.0
H270 H 0.02354 0.73987 0.47573 0.0
C271 C 0.92643 0.69888 0.45408 0.0
C272 C 0.9358 0.74416 0.4309 0.0
C273 C 0.98971 0.77416 0.43148 0.0
C274 C 0.00362 0.81084 0.40646 0.0
C275 C 0.05909 0.8379 0.40683 0.0
C276 C 0.09908 0.83008 0.43146 0.0
C277 C 0.08528 0.79488 0.45604 0.0
C278 C 0.03153 0.76695 0.45609 0.0
H279 H 0.97419 0.92832 0.37583 0.0
C280 C 0.98234 0.90653 0.35377 0.0
H281 H 0.98475 0.8295 0.33073 0.0
H282 H 0.82375 0.70252 0.42611 0.0
H283 H 0.75344 0.7189 0.38376 0.0
H284 H 0.77826 0.78088 0.33985 0.0
H285 H 0.87326 0.82721 0.33815 0.0
C286 C 0.97973 0.85135 0.35303 0.0
C287 C 0.96311 0.8183 0.38122 0.0
C288 C 0.90765 0.79104 0.38174 0.0
C289 C 0.89371 0.75447 0.40675 0.0
C290 C 0.83729 0.72921 0.40711 0.0
C291 C 0.79635 0.73864 0.3831 0.0
C292 C 0.8103 0.77359 0.35841 0.0
C293 C 0.86511 0.79974 0.35765 0.0
loop_
_geom_bond_atom_site_label_1
_geom_bond_atom_site_label_2
_geom_bond_distance
_geom_bond_site_symmetry_2
_ccdc_geom_bond_type
Mg0 O7 2.141 . S
Mg0 O8 2.048 1_554 S
Mg0 O9 2.048 1_554 S
Mg0 O12 2.141 . S
C1 O2 1.313 . S
C1 O8 1.195 1_565 S
O2 C1 1.313 . S
C3 O4 1.245 . S
C3 O12 1.289 1_565 S
O4 C3 1.245 . S
C5 O6 1.245 . S
C5 O7 1.289 1_565 S
O6 C5 1.245 . S
O7 Mg0 2.141 . S
O7 C5 1.289 1_545 S
O8 Mg0 2.048 1_556 S
O8 C1 1.195 1_545 S
O9 Mg0 2.048 1_556 S
O9 C10 1.195 1_545 S
C10 O9 1.195 1_565 S
C10 O11 1.313 . S
O11 C10 1.313 . S
O12 Mg0 2.141 . S
O12 C3 1.289 1_545 S
Mg13 O20 2.141 . S
Mg13 O21 2.048 . S
Mg13 O22 2.048 . S
Mg13 O25 2.141 . S
C14 O15 1.313 . S
C14 O21 1.195 1_455 S
O15 C14 1.313 . S
C16 O17 1.245 . S
C16 O25 1.289 1_455 S
O17 C16 1.245 . S
C18 O19 1.245 . S
C18 O20 1.289 1_455 S
O19 C18 1.245 . S
O20 Mg13 2.141 . S
O20 C18 1.289 1_655 S
O21 Mg13 2.048 . S
O21 C14 1.195 1_655 S
O22 Mg13 2.048 . S
O22 C23 1.195 1_655 S
C23 O22 1.195 1_455 S
C23 O24 1.313 . S
O24 C23 1.313 . S
O25 Mg13 2.141 . S
O25 C16 1.289 1_655 S
O26 Cd27 2.223 1_655 S
O26 C34 1.315 . S
Cd27 O26 2.223 1_455 S
Cd27 O30 2.297 1_455 S
Cd27 O31 2.439 1_455 S
Cd27 O37 2.240 1_565 S
Cd28 O29 2.240 1_545 S
Cd28 O36 2.223 1_655 S
Cd28 O38 2.297 1_655 S
Cd28 O39 2.439 1_655 S
O29 Cd28 2.240 1_565 S
O29 C34 1.279 . S
O30 Cd27 2.297 1_655 S
O30 C32 1.247 . S
O31 Cd27 2.439 1_655 S
O31 C32 1.208 . S
C32 O30 1.247 . S
C32 O31 1.208 . S
C33 O38 1.247 . S
C33 O39 1.208 . S
C34 O26 1.315 . S
C34 O29 1.279 . S
C35 O36 1.315 . S
C35 O37 1.279 . S
O36 Cd28 2.223 1_455 S
O36 C35 1.315 . S
O37 Cd27 2.240 1_545 S
O37 C35 1.279 . S
O38 Cd28 2.297 1_455 S
O38 C33 1.247 . S
O39 Cd28 2.439 1_455 S
O39 C33 1.208 . S
O40 Cd41 2.223 1_655 S
O40 C48 1.315 . S
Cd41 O40 2.223 1_455 S
Cd41 O44 2.297 1_455 S
Cd41 O45 2.439 1_455 S
Cd41 O51 2.240 1_545 S
Cd42 O43 2.240 1_565 S
Cd42 O50 2.223 1_655 S
Cd42 O52 2.297 1_655 S
Cd42 O53 2.439 1_655 S
O43 Cd42 2.240 1_545 S
O43 C48 1.279 . S
O44 Cd41 2.297 1_655 S
O44 C46 1.247 . S
O45 Cd41 2.439 1_655 S
O45 C46 1.208 . S
C46 O44 1.247 . S
C46 O45 1.208 . S
C47 O52 1.247 . S
C47 O53 1.208 . S
C48 O40 1.315 . S
C48 O43 1.279 . S
C49 O50 1.315 . S
C49 O51 1.279 . S
O50 Cd42 2.223 1_455 S
O50 C49 1.315 . S
O51 Cd41 2.240 1_565 S
O51 C49 1.279 . S
O52 Cd42 2.297 1_455 S
O52 C47 1.247 . S
O53 Cd42 2.439 1_455 S
O53 C47 1.208 . S
H54 C55 0.951 . S
C55 H54 0.951 . S
C55 C61 1.265 1_565 S
H56 C61 0.950 . S
H57 C65 0.949 . S
H58 C66 0.950 . S
H59 C67 0.951 . S
H60 C68 0.951 . S
C61 C55 1.265 1_545 S
C61 H56 0.950 . S
C61 C62 1.478 . S
C62 C61 1.478 . S
C62 C63 1.397 . S
C62 C79 1.394 1_545 S
C63 C62 1.397 . S
C63 C64 1.438 . S
C63 C68 1.429 . S
C64 C63 1.438 . S
C64 C65 1.428 . S
C64 C77 1.394 . S
C65 H57 0.949 . S
C65 C64 1.428 . S
C65 C66 1.345 . S
C66 H58 0.950 . S
C66 C65 1.345 . S
C66 C67 1.424 . S
C67 H59 0.951 . S
C67 C66 1.424 . S
C67 C68 1.347 . S
C68 H60 0.951 . S
C68 C63 1.429 . S
C68 C67 1.347 . S
H69 C70 0.951 . S
C70 H69 0.951 . S
C70 C76 1.265 1_545 S
H71 C76 0.950 . S
H72 C80 0.949 . S
H73 C81 0.950 . S
H74 C82 0.951 . S
H75 C83 0.951 . S
C76 C70 1.265 1_565 S
C76 H71 0.950 . S
C76 C77 1.478 1_565 S
C77 C64 1.394 . S
C77 C76 1.478 1_545 S
C77 C78 1.397 1_545 S
C78 C77 1.397 1_565 S
C78 C79 1.438 . S
C78 C83 1.429 . S
C79 C62 1.394 1_565 S
C79 C78 1.438 . S
C79 C80 1.428 . S
C80 H72 0.949 . S
C80 C79 1.428 . S
C80 C81 1.345 . S
C81 H73 0.950 . S
C81 C80 1.345 . S
C81 C82 1.424 . S
C82 H74 0.951 . S
C82 C81 1.424 . S
C82 C83 1.347 . S
C83 H75 0.951 . S
C83 C78 1.429 . S
C83 C82 1.347 . S
H84 C85 0.951 . S
C85 H84 0.951 . S
C85 C91 1.265 1_655 S
H86 C91 0.950 . S
H87 C95 0.949 . S
H88 C96 0.950 . S
H89 C97 0.951 . S
H90 C98 0.951 . S
C91 C85 1.265 1_455 S
C91 H86 0.950 . S
C91 C92 1.478 1_455 S
C92 C91 1.478 1_655 S
C92 C93 1.397 1_655 S
C92 C109 1.394 . S
C93 C92 1.397 1_455 S
C93 C94 1.438 . S
C93 C98 1.429 . S
C94 C93 1.438 . S
C94 C95 1.428 . S
C94 C107 1.394 1_455 S
C95 H87 0.949 . S
C95 C94 1.428 . S
C95 C96 1.345 . S
C96 H88 0.950 . S
C96 C95 1.345 . S
C96 C97 1.424 . S
C97 H89 0.951 . S
C97 C96 1.424 . S
C97 C98 1.347 . S
C98 H90 0.951 . S
C98 C93 1.429 . S
C98 C97 1.347 . S
H99 C100 0.951 . S
C100 H99 0.951 . S
C100 C106 1.265 . S
H101 C106 0.950 . S
H102 C110 0.949 . S
H103 C111 0.950 . S
H104 C112 0.951 . S
H105 C113 0.951 . S
C106 C100 1.265 . S
C106 H101 0.950 . S
C106 C107 1.478 . S
C107 C94 1.394 1_655 S
C107 C106 1.478 . S
C107 C108 1.397 . S
C108 C107 1.397 . S
C108 C109 1.438 . S
C108 C113 1.429 . S
C109 C92 1.394 . S
C109 C108 1.438 . S
C109 C110 1.428 . S
C110 H102 0.949 . S
C110 C109 1.428 . S
C110 C111 1.345 . S
C111 H103 0.950 . S
C111 C110 1.345 . S
C111 C112 1.424 . S
C112 H104 0.951 . S
C112 C111 1.424 . S
C112 C113 1.347 . S
C113 H105 0.951 . S
C113 C108 1.429 . S
C113 C112 1.347 . S
H114 C115 0.951 . S
C115 H114 0.951 . S
C115 C121 1.265 . S
H116 C121 0.950 . S
H117 C125 0.949 . S
H118 C126 0.950 . S
H119 C127 0.951 . S
H120 C128 0.951 . S
C121 C115 1.265 . S
C121 H116 0.950 . S
C121 C122 1.478 . S
C122 C121 1.478 . S
C122 C123 1.397 . S
C122 C139 1.394 1_565 S
C123 C122 1.397 . S
C123 C124 1.438 . S
C123 C128 1.429 . S
C124 C123 1.438 . S
C124 C125 1.428 . S
C124 C137 1.394 . S
C125 H117 0.949 . S
C125 C124 1.428 . S
C125 C126 1.345 . S
C126 H118 0.950 . S
C126 C125 1.345 . S
C126 C127 1.424 . S
C127 H119 0.951 . S
C127 C126 1.424 . S
C127 C128 1.347 . S
C128 H120 0.951 . S
C128 C123 1.429 . S
C128 C127 1.347 . S
H129 C130 0.951 . S
C130 H129 0.951 . S
C130 C136 1.265 . S
H131 C136 0.950 . S
H132 C140 0.949 . S
H133 C141 0.950 . S
H134 C142 0.951 . S
H135 C143 0.951 . S
C136 C130 1.265 . S
C136 H131 0.950 . S
C136 C137 1.478 . S
C137 C124 1.394 . S
C137 C136 1.478 . S
C137 C138 1.397 1_565 S
C138 C137 1.397 1_545 S
C138 C139 1.438 . S
C138 C143 1.429 . S
C139 C122 1.394 1_545 S
C139 C138 1.438 . S
C139 C140 1.428 . S
C140 H132 0.949 . S
C140 C139 1.428 . S
C140 C141 1.345 . S
C141 H133 0.950 . S
C141 C140 1.345 . S
C141 C142 1.424 . S
C142 H134 0.951 . S
C142 C141 1.424 . S
C142 C143 1.347 . S
C143 H135 0.951 . S
C143 C138 1.429 . S
C143 C142 1.347 . S
H144 C145 0.951 . S
C145 H144 0.951 . S
C145 C151 1.265 1_455 S
H146 C151 0.950 . S
H147 C155 0.949 . S
H148 C156 0.950 . S
H149 C157 0.951 . S
H150 C158 0.951 . S
C151 C145 1.265 1_655 S
C151 H146 0.950 . S
C151 C152 1.478 1_655 S
C152 C151 1.478 1_455 S
C152 C153 1.397 . S
C152 C169 1.394 . S
C153 C152 1.397 . S
C153 C154 1.438 . S
C153 C158 1.429 1_455 S
C154 C153 1.438 . S
C154 C155 1.428 . S
C154 C167 1.394 . S
C155 H147 0.949 . S
C155 C154 1.428 . S
C155 C156 1.345 . S
C156 H148 0.950 . S
C156 C155 1.345 . S
C156 C157 1.424 1_455 S
C157 H149 0.951 . S
C157 C156 1.424 1_655 S
C157 C158 1.347 . S
C158 H150 0.951 . S
C158 C153 1.429 1_655 S
C158 C157 1.347 . S
H159 C160 0.951 1_655 S
C160 H159 0.951 1_455 S
C160 C166 1.265 . S
H161 C166 0.950 . S
H162 C170 0.949 . S
H163 C171 0.950 . S
H164 C172 0.951 . S
H165 C173 0.951 . S
C166 C160 1.265 . S
C166 H161 0.950 . S
C166 C167 1.478 . S
C167 C154 1.394 . S
C167 C166 1.478 . S
C167 C168 1.397 . S
C168 C167 1.397 . S
C168 C169 1.438 . S
C168 C173 1.429 . S
C169 C152 1.394 . S
C169 C168 1.438 . S
C169 C170 1.428 . S
C170 H162 0.949 . S
C170 C169 1.428 . S
C170 C171 1.345 . S
C171 H163 0.950 . S
C171 C170 1.345 . S
C171 C172 1.424 . S
C172 H164 0.951 . S
C172 C171 1.424 . S
C172 C173 1.347 . S
C173 H165 0.951 . S
C173 C168 1.429 . S
C173 C172 1.347 . S
H174 C175 0.951 1_545 S
C175 H174 0.951 1_565 S
C175 C181 1.265 . S
H176 C181 0.950 . S
H177 C185 0.949 . S
H178 C186 0.950 . S
H179 C187 0.951 . S
H180 C188 0.951 . S
C181 C175 1.265 . S
C181 H176 0.950 . S
C181 C182 1.478 . S
C182 C181 1.478 . S
C182 C183 1.397 . S
C182 C199 1.394 1_565 S
C183 C182 1.397 . S
C183 C184 1.438 . S
C183 C188 1.429 . S
C184 C183 1.438 . S
C184 C185 1.428 . S
C184 C197 1.394 . S
C185 H177 0.949 . S
C185 C184 1.428 . S
C185 C186 1.345 . S
C186 H178 0.950 . S
C186 C185 1.345 . S
C186 C187 1.424 . S
C187 H179 0.951 . S
C187 C186 1.424 . S
C187 C188 1.347 . S
C188 H180 0.951 . S
C188 C183 1.429 . S
C188 C187 1.347 . S
H189 C190 0.951 . S
C190 H189 0.951 . S
C190 C196 1.265 . S
H191 C196 0.950 . S
H192 C200 0.949 . S
H193 C201 0.950 . S
H194 C202 0.951 . S
H195 C203 0.951 . S
C196 C190 1.265 . S
C196 H191 0.950 . S
C196 C197 1.478 . S
C197 C184 1.394 . S
C197 C196 1.478 . S
C197 C198 1.397 1_565 S
C198 C197 1.397 1_545 S
C198 C199 1.438 . S
C198 C203 1.429 . S
C199 C182 1.394 1_545 S
C199 C198 1.438 . S
C199 C200 1.428 . S
C200 H192 0.949 . S
C200 C199 1.428 . S
C200 C201 1.345 . S
C201 H193 0.950 . S
C201 C200 1.345 . S
C201 C202 1.424 . S
C202 H194 0.951 . S
C202 C201 1.424 . S
C202 C203 1.347 . S
C203 H195 0.951 . S
C203 C198 1.429 . S
C203 C202 1.347 . S
H204 C205 0.951 . S
C205 H204 0.951 . S
C205 C211 1.265 1_455 S
H206 C211 0.950 . S
H207 C215 0.949 . S
H208 C216 0.950 . S
H209 C217 0.951 . S
H210 C218 0.951 . S
C211 C205 1.265 1_655 S
C211 H206 0.950 . S
C211 C212 1.478 1_655 S
C212 C211 1.478 1_455 S
C212 C213 1.397 1_455 S
C212 C229 1.394 . S
C213 C212 1.397 1_655 S
C213 C214 1.438 1_655 S
C213 C218 1.429 . S
C214 C213 1.438 1_455 S
C214 C215 1.428 . S
C214 C227 1.394 . S
C215 H207 0.949 . S
C215 C214 1.428 . S
C215 C216 1.345 1_455 S
C216 H208 0.950 . S
C216 C215 1.345 1_655 S
C216 C217 1.424 . S
C217 H209 0.951 . S
C217 C216 1.424 . S
C217 C218 1.347 . S
C218 H210 0.951 . S
C218 C213 1.429 . S
C218 C217 1.347 . S
H219 C220 0.951 1_655 S
C220 H219 0.951 1_455 S
C220 C226 1.265 . S
H221 C226 0.950 . S
H222 C230 0.949 . S
H223 C231 0.950 . S
H224 C232 0.951 . S
H225 C233 0.951 . S
C226 C220 1.265 . S
C226 H221 0.950 . S
C226 C227 1.478 . S
C227 C214 1.394 . S
C227 C226 1.478 . S
C227 C228 1.397 . S
C228 C227 1.397 . S
C228 C229 1.438 . S
C228 C233 1.429 . S
C229 C212 1.394 . S
C229 C228 1.438 . S
C229 C230 1.428 . S
C230 H222 0.949 . S
C230 C229 1.428 . S
C230 C231 1.345 . S
C231 H223 0.950 . S
C231 C230 1.345 . S
C231 C232 1.424 . S
C232 H224 0.951 . S
C232 C231 1.424 . S
C232 C233 1.347 . S
C233 H225 0.951 . S
C233 C228 1.429 . S
C233 C232 1.347 . S
H234 C235 0.951 1_565 S
C235 H234 0.951 1_545 S
C235 C241 1.265 . S
H236 C241 0.950 . S
H237 C245 0.949 . S
H238 C246 0.950 . S
H239 C247 0.951 . S
H240 C248 0.951 . S
C241 C235 1.265 . S
C241 H236 0.950 . S
C241 C242 1.478 . S
C242 C241 1.478 . S
C242 C243 1.397 . S
C242 C259 1.394 1_545 S
C243 C242 1.397 . S
C243 C244 1.438 . S
C243 C248 1.429 . S
C244 C243 1.438 . S
C244 C245 1.428 . S
C244 C257 1.394 . S
C245 H237 0.949 . S
C245 C244 1.428 . S
C245 C246 1.345 . S
C246 H238 0.950 . S
C246 C245 1.345 . S
C246 C247 1.424 . S
C247 H239 0.951 . S
C247 C246 1.424 . S
C247 C248 1.347 . S
C248 H240 0.951 . S
C248 C243 1.429 . S
C248 C247 1.347 . S
H249 C250 0.951 . S
C250 H249 0.951 . S
C250 C256 1.265 . S
H251 C256 0.950 . S
H252 C260 0.949 . S
H253 C261 0.950 . S
H254 C262 0.951 . S
H255 C263 0.951 . S
C256 C250 1.265 . S
C256 H251 0.950 . S
C256 C257 1.478 . S
C257 C244 1.394 . S
C257 C256 1.478 . S
C257 C258 1.397 1_545 S
C258 C257 1.397 1_565 S
C258 C259 1.438 . S
C258 C263 1.429 . S
C259 C242 1.394 1_565 S
C259 C258 1.438 . S
C259 C260 1.428 . S
C260 H252 0.949 . S
C260 C259 1.428 . S
C260 C261 1.345 . S
C261 H253 0.950 . S
C261 C260 1.345 . S
C261 C262 1.424 . S
C262 H254 0.951 . S
C262 C261 1.424 . S
C262 C263 1.347 . S
C263 H255 0.951 . S
C263 C258 1.429 . S
C263 C262 1.347 . S
H264 C265 0.951 . S
C265 H264 0.951 . S
C265 C271 1.265 1_455 S
H266 C271 0.950 . S
H267 C275 0.949 . S
H268 C276 0.950 . S
H269 C277 0.951 . S
H270 C278 0.951 . S
C271 C265 1.265 1_655 S
C271 H266 0.950 . S
C271 C272 1.478 . S
C272 C271 1.478 . S
C272 C273 1.397 . S
C272 C289 1.394 . S
C273 C272 1.397 . S
C273 C274 1.438 . S
C273 C278 1.429 . S
C274 C273 1.438 . S
C274 C275 1.428 . S
C274 C287 1.394 . S
C275 H267 0.949 . S
C275 C274 1.428 . S
C275 C276 1.345 . S
C276 H268 0.950 . S
C276 C275 1.345 . S
C276 C277 1.424 . S
C277 H269 0.951 . S
C277 C276 1.424 . S
C277 C278 1.347 . S
C278 H270 0.951 . S
C278 C273 1.429 . S
C278 C277 1.347 . S
H279 C280 0.951 . S
C280 H279 0.951 . S
C280 C286 1.265 . S
H281 C286 0.950 1_455 S
H282 C290 0.949 . S
H283 C291 0.950 . S
H284 C292 0.951 . S
H285 C293 0.951 . S
C286 C280 1.265 . S
C286 H281 0.950 1_655 S
C286 C287 1.478 . S
C287 C274 1.394 . S
C287 C286 1.478 . S
C287 C288 1.397 1_655 S
C288 C287 1.397 1_455 S
C288 C289 1.438 1_455 S
C288 C293 1.429 . S
C289 C272 1.394 . S
C289 C288 1.438 1_655 S
C289 C290 1.428 1_655 S
C290 H282 0.949 . S
C290 C289 1.428 1_455 S
C290 C291 1.345 . S
C291 H283 0.950 . S
C291 C290 1.345 . S
C291 C292 1.424 . S
C292 H284 0.951 . S
C292 C291 1.424 . S
C292 C293 1.347 . S
C293 H285 0.951 . S
C293 C288 1.429 . S
C293 C292 1.347 . S
C70 C35 1.478 . S
C55 C5 1.464 . S
C100 C46 1.518 . S
C85 C23 1.574 1_655 S
C130 C34 1.482 . S
C115 C3 1.469 . S
C160 C47 1.472 . S
C145 C14 1.539 . S
C190 C49 1.541 . S
C175 C1 1.534 . S
C220 C33 1.404 . S
C205 C16 1.451 . S
C250 C48 1.542 . S
C235 C10 1.546 1_545 S
C265 C18 1.488 . S
C280 C32 1.495 . S
