# Generated by pormake.
# Topology tsx, (6,3)-cn, num edge types: 1
# Building blocks:
#     Node 0, Type 0, BuildingBlock: CIFDUS_clean_sbu_1, # of connection points: 6
#     Node 1, Type 0, BuildingBlock: CIFDUS_clean_sbu_1, # of connection points: 6
#     Node 2, Type 1, BuildingBlock: OLANEW_clean_sbu_2, # of connection points: 3
#     Node 3, Type 1, BuildingBlock: OLANEW_clean_sbu_2, # of connection points: 3
#     Node 4, Type 1, BuildingBlock: OLANEW_clean_sbu_2, # of connection points: 3
#     Node 5, Type 1, BuildingBlock: OLANEW_clean_sbu_2, # of connection points: 3
#     Edge 6, Type (0, 1), BuildingBlock: FUNLAD_clean_linker_1, # of connection points: 2
#     Edge 7, Type (0, 1), BuildingBlock: FUNLAD_clean_linker_1, # of connection points: 2
#     Edge 8, Type (0, 1), BuildingBlock: FUNLAD_clean_linker_1, # of connection points: 2
#     Edge 9, Type (0, 1), BuildingBlock: FUNLAD_clean_linker_1, # of connection points: 2
#     Edge 10, Type (0, 1), BuildingBlock: FUNLAD_clean_linker_1, # of connection points: 2
#     Edge 11, Type (0, 1), BuildingBlock: FUNLAD_clean_linker_1, # of connection points: 2
#     Edge 12, Type (0, 1), BuildingBlock: FUNLAD_clean_linker_1, # of connection points: 2
#     Edge 13, Type (0, 1), BuildingBlock: FUNLAD_clean_linker_1, # of connection points: 2
#     Edge 14, Type (0, 1), BuildingBlock: FUNLAD_clean_linker_1, # of connection points: 2
#     Edge 15, Type (0, 1), BuildingBlock: FUNLAD_clean_linker_1, # of connection points: 2
#     Edge 16, Type (0, 1), BuildingBlock: FUNLAD_clean_linker_1, # of connection points: 2
#     Edge 17, Type (0, 1), BuildingBlock: FUNLAD_clean_linker_1, # of connection points: 2
# Relax obj value: 0.039
# Max RMSD: 0.094
# Mean RMSD: 0.051
data_MOF--net-tsx--node1-CIFDUS_clean_sbu_1--node2-OLANEW_clean_sbu_2--edge1-FUNLAD_clean_linker_1
_symmetry_space_group_name_H-M    P1
_symmetry_Int_Tables_number       1
_symmetry_cell_setting            triclinic
loop_
_symmetry_equiv_pos_as_xyz
'x, y, z'
_cell_length_a     21.054018
_cell_length_b     25.578945
_cell_length_c     36.225153
_cell_angle_alpha  103.15486
_cell_angle_beta   91.426555
_cell_angle_gamma 91.388297
loop_
_atom_site_label
_atom_site_type_symbol
_atom_site_fract_x
_atom_site_fract_y
_atom_site_fract_z
_atom_type_partial_charge
O0 O 0.97113 0.09957 0.02877 0.0
Mn1 Mn 0.01097 0.02396 0.01166 0.0
O2 O 0.86766 0.08873 0.00917 0.0
Mn3 Mn 0.87064 0.02015 0.97798 0.0
O4 O 0.0477 0.94777 0.99228 0.0
O5 O 0.09852 0.05823 0.02262 0.0
Mn6 Mn 0.14672 0.01632 0.04362 0.0
O7 O 1.00746 0.01263 0.06664 0.0
O8 O 0.15174 0.95223 0.00802 0.0
O9 O 0.01214 0.03329 0.95589 0.0
O10 O 0.91086 0.01793 0.9324 0.0
O11 O 0.19765 0.07478 0.04071 0.0
O12 O 0.10825 0.01121 0.08848 0.0
C13 C 0.88681 0.95246 0.00439 0.0
C14 C 0.91493 0.11763 0.02621 0.0
C15 C 0.10286 0.92728 0.99064 0.0
C16 C 0.14708 0.09103 0.02628 0.0
C17 C 0.04824 0.00844 0.09261 0.0
C18 C 0.97017 0.02669 0.92854 0.0
O19 O 0.92603 0.99004 1.00219 0.0
O20 O 0.83206 0.95826 0.9892 0.0
O21 O 0.51786 0.62192 0.53192 0.0
Mn22 Mn 0.54777 0.54322 0.51313 0.0
O23 O 0.41104 0.61833 0.52236 0.0
Mn24 Mn 0.4017 0.54851 0.49318 0.0
O25 O 0.57519 0.46424 0.49249 0.0
O26 O 0.63731 0.57096 0.51428 0.0
Mn27 Mn 0.69077 0.52871 0.53073 0.0
O28 O 0.5596 0.53547 0.5688 0.0
O29 O 0.68196 0.4641 0.49527 0.0
O30 O 0.53461 0.54894 0.45682 0.0
O31 O 0.42864 0.54011 0.44355 0.0
O32 O 0.73782 0.58738 0.52291 0.0
O33 O 0.66455 0.52722 0.57935 0.0
C34 C 0.41959 0.48274 0.52113 0.0
C35 C 0.46337 0.64405 0.53423 0.0
C36 C 0.62808 0.44106 0.48447 0.0
C37 C 0.68348 0.60464 0.51413 0.0
C38 C 0.60718 0.52936 0.59017 0.0
C39 C 0.48619 0.54374 0.43361 0.0
O40 O 0.46017 0.51576 0.51324 0.0
O41 O 0.36258 0.49189 0.51075 0.0
O42 O 0.04353 0.88263 0.3619 0.0
Cd43 Cd 0.04296 0.8682 0.42634 0.0
O44 O 0.00909 0.96202 0.3883 0.0
Cd45 Cd 0.97086 0.03802 0.38253 0.0
O46 O 0.91362 0.10761 0.38287 0.0
C47 C 0.85387 0.10155 0.37727 0.0
O48 O 0.82756 0.05304 0.37006 0.0
C49 C 0.02533 0.92844 0.35889 0.0
C50 C 0.16279 0.84976 0.45417 0.0
O51 O 0.12736 0.81141 0.43469 0.0
O52 O 0.1422 0.89764 0.46042 0.0
O53 O 0.24362 0.02975 0.66804 0.0
Cd54 Cd 0.28127 0.0287 0.60467 0.0
O55 O 0.1465 0.00997 0.64493 0.0
Cd56 Cd 0.04618 0.98312 0.64302 0.0
O57 O 0.95766 0.93499 0.62802 0.0
C58 C 0.91647 0.94354 0.60397 0.0
O59 O 0.92492 0.98433 0.58799 0.0
C60 C 0.18546 0.02028 0.67331 0.0
C61 C 0.31507 0.13127 0.5965 0.0
O62 O 0.25775 0.11284 0.59027 0.0
O63 O 0.35687 0.10137 0.60676 0.0
O64 O 0.54341 0.44981 0.86632 0.0
Cd65 Cd 0.54165 0.44097 0.93246 0.0
O66 O 0.44607 0.47661 0.87575 0.0
Cd67 Cd 0.35743 0.51111 0.86127 0.0
O68 O 0.27921 0.56674 0.86823 0.0
C69 C 0.22064 0.55354 0.86185 0.0
O70 O 0.20347 0.50291 0.84875 0.0
C71 C 0.49267 0.46674 0.85389 0.0
C72 C 0.64159 0.38639 0.95702 0.0
O73 O 0.59356 0.36115 0.93814 0.0
O74 O 0.64373 0.43783 0.96373 0.0
O75 O 0.71061 0.50248 0.15367 0.0
Cd76 Cd 0.74959 0.4963 0.0897 0.0
O77 O 0.61285 0.47808 0.13333 0.0
Cd78 Cd 0.51252 0.45092 0.13289 0.0
O79 O 0.41947 0.40968 0.11649 0.0
C80 C 0.37022 0.43349 0.10861 0.0
O81 O 0.37336 0.48553 0.11129 0.0
C82 C 0.65344 0.49206 0.16075 0.0
C83 C 0.78461 0.59525 0.0748 0.0
O84 O 0.72784 0.57569 0.06793 0.0
O85 O 0.82529 0.56849 0.0892 0.0
H86 H 0.19063 0.1563 0.00646 0.0
C87 C 0.14726 0.14499 0.01878 0.0
H88 H 0.07376 0.1727 0.0553 0.0
H89 H 0.27237 0.33779 0.15495 0.0
H90 H 0.22497 0.29282 0.20025 0.0
H91 H 0.14089 0.22259 0.17986 0.0
H92 H 0.10344 0.19713 0.11449 0.0
C93 C 0.11434 0.18401 0.04062 0.0
C94 C 0.14694 0.2377 0.05522 0.0
C95 C 0.16661 0.25322 0.09407 0.0
C96 C 0.21554 0.29338 0.10586 0.0
C97 C 0.23588 0.30708 0.14451 0.0
C98 C 0.20896 0.28174 0.1708 0.0
C99 C 0.16161 0.24223 0.15932 0.0
C100 C 0.14064 0.22785 0.12148 0.0
H101 H 0.26785 0.42544 0.0918 0.0
C102 C 0.30967 0.4032 0.09611 0.0
H103 H 0.34662 0.32698 0.09484 0.0
H104 H 0.10632 0.22871 0.98214 0.0
H105 H 0.15016 0.27691 0.93729 0.0
H106 H 0.23827 0.34372 0.95683 0.0
H107 H 0.28248 0.36348 0.02126 0.0
C108 C 0.30539 0.34937 0.0897 0.0
C109 C 0.24434 0.31815 0.07901 0.0
C110 C 0.21929 0.30732 0.04123 0.0
C111 C 0.16973 0.26765 0.02956 0.0
C112 C 0.14508 0.25757 0.99187 0.0
C113 C 0.16957 0.28506 0.96605 0.0
C114 C 0.21911 0.32277 0.97709 0.0
C115 C 0.24403 0.33381 0.01418 0.0
H116 H 0.16003 0.85861 0.96526 0.0
C117 C 0.11163 0.87272 0.96783 0.0
H118 H 0.01453 0.85148 0.95345 0.0
H119 H 0.19733 0.69016 0.83114 0.0
H120 H 0.19985 0.76448 0.79953 0.0
H121 H 0.14615 0.84864 0.82655 0.0
H122 H 0.0884 0.8587 0.88505 0.0
C123 C 0.06376 0.83982 0.95057 0.0
C124 C 0.07896 0.78523 0.92889 0.0
C125 C 0.10988 0.77918 0.89399 0.0
C126 C 0.14109 0.73087 0.87859 0.0
C127 C 0.17337 0.72637 0.84424 0.0
C128 C 0.17493 0.76857 0.82577 0.0
C129 C 0.14453 0.81593 0.84094 0.0
C130 C 0.11204 0.82134 0.87458 0.0
H131 H 0.1221 0.58277 0.86479 0.0
C132 C 0.17184 0.59469 0.87094 0.0
H133 H 0.23773 0.65814 0.89321 0.0
H134 H 0.0142 0.78139 0.99255 0.0
H135 H 0.00998 0.70683 0.02392 0.0
H136 H 0.06431 0.62281 0.99753 0.0
H137 H 0.12436 0.61302 0.94018 0.0
C138 C 0.18797 0.64582 0.88778 0.0
C139 C 0.14096 0.68871 0.89806 0.0
C140 C 0.10438 0.69272 0.93094 0.0
C141 C 0.07294 0.74114 0.94623 0.0
C142 C 0.03886 0.74535 0.9799 0.0
C143 C 0.03589 0.7029 0.99805 0.0
C144 C 0.06662 0.6556 0.98322 0.0
C145 C 0.10086 0.65045 0.9502 0.0
H146 H 0.95164 0.90323 0.03055 0.0
C147 C 0.90301 0.90658 0.02078 0.0
H148 H 0.81115 0.87095 0.01152 0.0
H149 H 0.87117 0.63239 0.99868 0.0
H150 H 0.86532 0.63321 0.93173 0.0
H151 H 0.86382 0.71886 0.91128 0.0
H152 H 0.8683 0.80415 0.95762 0.0
C153 C 0.85914 0.86846 0.02263 0.0
C154 C 0.87475 0.81838 0.03475 0.0
C155 C 0.87126 0.76902 0.00737 0.0
C156 C 0.87157 0.71975 0.01913 0.0
C157 C 0.86929 0.67095 0.9912 0.0
C158 C 0.86649 0.67089 0.95272 0.0
C159 C 0.86568 0.71911 0.9412 0.0
C160 C 0.86787 0.76774 0.96808 0.0
H161 H 0.76538 0.66546 0.05129 0.0
C162 C 0.80197 0.64651 0.06498 0.0
H163 H 0.89758 0.65237 0.08551 0.0
H164 H 0.89408 0.90593 0.09413 0.0
H165 H 0.91443 0.90446 0.1601 0.0
H166 H 0.91766 0.81868 0.18021 0.0
H167 H 0.89936 0.73359 0.13439 0.0
C168 C 0.86055 0.66963 0.07103 0.0
C169 C 0.87486 0.72002 0.0583 0.0
C170 C 0.887 0.76909 0.08527 0.0
C171 C 0.88626 0.81859 0.07354 0.0
C172 C 0.89532 0.8672 0.1013 0.0
C173 C 0.90692 0.86693 0.13931 0.0
C174 C 0.90858 0.81859 0.15065 0.0
C175 C 0.89804 0.77011 0.12412 0.0
H176 H 0.94767 0.20279 0.0467 0.0
C177 C 0.90609 0.1763 0.03839 0.0
H178 H 0.80771 0.17075 0.02473 0.0
H179 H 0.70367 0.39435 0.06784 0.0
H180 H 0.68339 0.3691 0.12742 0.0
H181 H 0.73559 0.29133 0.14336 0.0
H182 H 0.80862 0.23827 0.09974 0.0
C183 C 0.84958 0.19705 0.0324 0.0
C184 C 0.84054 0.25393 0.03066 0.0
C185 C 0.79984 0.28545 0.05675 0.0
C186 C 0.77005 0.33041 0.04764 0.0
C187 C 0.72763 0.35995 0.07355 0.0
C188 C 0.71568 0.3459 0.10778 0.0
C189 C 0.74504 0.30205 0.11674 0.0
C190 C 0.78651 0.27187 0.09152 0.0
H191 H 0.69067 0.31263 0.95999 0.0
C192 C 0.69196 0.35597 0.97082 0.0
H193 H 0.73659 0.42122 0.01042 0.0
H194 H 0.92598 0.20865 0.97713 0.0
H195 H 0.95271 0.23907 0.92078 0.0
H196 H 0.90257 0.31847 0.9061 0.0
H197 H 0.82462 0.36763 0.94793 0.0
C198 C 0.73618 0.37848 0.99752 0.0
C199 C 0.78092 0.34334 0.01232 0.0
C200 C 0.82828 0.31654 0.98873 0.0
C201 C 0.85797 0.27143 0.99769 0.0
C202 C 0.90235 0.24352 0.97225 0.0
C203 C 0.91822 0.26062 0.93968 0.0
C204 C 0.88995 0.30529 0.93139 0.0
C205 C 0.84524 0.33297 0.95546 0.0
H206 H 0.62868 0.67596 0.50831 0.0
C207 C 0.67587 0.6609 0.51136 0.0
H208 H 0.77426 0.67816 0.51909 0.0
H209 H 0.84606 0.8914 0.49152 0.0
H210 H 0.86305 0.83843 0.42806 0.0
H211 H 0.81636 0.74667 0.4069 0.0
H212 H 0.75238 0.70726 0.44942 0.0
C213 C 0.72732 0.69429 0.51704 0.0
C214 C 0.72652 0.75362 0.52244 0.0
C215 C 0.76104 0.77713 0.49704 0.0
C216 C 0.78729 0.83018 0.50917 0.0
C217 C 0.82463 0.85142 0.48375 0.0
C218 C 0.83469 0.82144 0.44722 0.0
C219 C 0.80846 0.76975 0.4353 0.0
C220 C 0.77221 0.74755 0.45989 0.0
H221 H 0.86271 0.86866 0.60355 0.0
C222 C 0.86388 0.90376 0.59133 0.0
H223 H 0.82335 0.94057 0.55009 0.0
H224 H 0.64898 0.72546 0.57509 0.0
H225 H 0.62241 0.78178 0.63571 0.0
H226 H 0.66505 0.87498 0.65575 0.0
H227 H 0.73548 0.91207 0.61517 0.0
C228 C 0.82151 0.90666 0.56346 0.0
C229 C 0.77852 0.85948 0.54679 0.0
C230 C 0.73515 0.83927 0.56984 0.0
C231 C 0.70944 0.78595 0.55783 0.0
C232 C 0.66944 0.76571 0.58248 0.0
C233 C 0.65366 0.79774 0.61739 0.0
C234 C 0.67772 0.85021 0.6287 0.0
C235 C 0.71821 0.8709 0.60534 0.0
H236 H 0.58055 0.36419 0.45464 0.0
C237 C 0.62631 0.38492 0.46241 0.0
H238 H 0.72604 0.38007 0.45894 0.0
H239 H 0.6877 0.12398 0.43773 0.0
H240 H 0.64236 0.14282 0.50018 0.0
H241 H 0.61486 0.23509 0.53179 0.0
H242 H 0.63158 0.30879 0.50102 0.0
C243 C 0.68018 0.35911 0.45245 0.0
C244 C 0.68105 0.30258 0.43073 0.0
C245 C 0.6695 0.25992 0.449 0.0
C246 C 0.68631 0.20688 0.43106 0.0
C247 C 0.6761 0.16506 0.45018 0.0
C248 C 0.65015 0.17532 0.48603 0.0
C249 C 0.63467 0.22727 0.50383 0.0
C250 C 0.64434 0.26926 0.48575 0.0
H251 H 0.83962 0.18841 0.38989 0.0
C252 C 0.81486 0.14943 0.38276 0.0
H253 H 0.72537 0.10849 0.37697 0.0
H254 H 0.69769 0.37372 0.38549 0.0
H255 H 0.73788 0.35371 0.32158 0.0
H256 H 0.76603 0.26137 0.29037 0.0
H257 H 0.75492 0.18857 0.32314 0.0
C258 C 0.75101 0.14698 0.3825 0.0
C259 C 0.71582 0.19723 0.3955 0.0
C260 C 0.72036 0.23867 0.37551 0.0
C261 C 0.70341 0.29158 0.3933 0.0
C262 C 0.71044 0.3328 0.37328 0.0
C263 C 0.73312 0.3218 0.33658 0.0
C264 C 0.74896 0.26981 0.319 0.0
C265 C 0.74274 0.22853 0.33812 0.0
H266 H 0.4858 0.4324 0.54526 0.0
C267 C 0.43618 0.43811 0.53865 0.0
H268 H 0.34141 0.4099 0.53925 0.0
H269 H 0.45407 0.17552 0.53244 0.0
H270 H 0.49335 0.17973 0.47065 0.0
H271 H 0.49336 0.26469 0.4493 0.0
H272 H 0.45365 0.34571 0.48931 0.0
C273 C 0.3912 0.40347 0.54493 0.0
C274 C 0.40595 0.35603 0.56042 0.0
C275 C 0.43021 0.30931 0.53667 0.0
C276 C 0.43003 0.26025 0.54888 0.0
C277 C 0.45299 0.21374 0.52442 0.0
C278 C 0.47561 0.21561 0.48892 0.0
C279 C 0.47562 0.26345 0.4769 0.0
C280 C 0.45287 0.30979 0.50025 0.0
H281 H 0.29306 0.20928 0.58417 0.0
C282 C 0.33154 0.18538 0.59132 0.0
H283 H 0.43118 0.18131 0.5991 0.0
H284 H 0.37045 0.44101 0.6156 0.0
H285 H 0.33998 0.43823 0.67948 0.0
H286 H 0.33879 0.35287 0.70039 0.0
H287 H 0.36831 0.26976 0.6576 0.0
C288 C 0.39157 0.20516 0.59353 0.0
C289 C 0.40483 0.2581 0.58442 0.0
C290 C 0.38692 0.30597 0.60962 0.0
C291 C 0.38757 0.35507 0.59758 0.0
C292 C 0.36981 0.4025 0.62327 0.0
C293 C 0.35257 0.40147 0.66 0.0
C294 C 0.35191 0.3534 0.67178 0.0
C295 C 0.36858 0.306 0.64693 0.0
H296 H 0.50577 0.72677 0.54714 0.0
C297 C 0.46147 0.70341 0.54512 0.0
H298 H 0.36147 0.70425 0.54358 0.0
H299 H 0.25045 0.91622 0.56663 0.0
H300 H 0.24976 0.91044 0.63283 0.0
H301 H 0.31771 0.84649 0.65595 0.0
H302 H 0.38696 0.78773 0.61277 0.0
C303 C 0.40556 0.72751 0.54422 0.0
C304 C 0.39743 0.78221 0.53757 0.0
C305 C 0.35977 0.81774 0.56312 0.0
C306 C 0.32083 0.8546 0.5498 0.0
C307 C 0.28088 0.88754 0.57545 0.0
C308 C 0.28023 0.88467 0.61343 0.0
C309 C 0.31849 0.84862 0.62646 0.0
C310 C 0.35767 0.81515 0.6016 0.0
H311 H 0.23847 0.79584 0.46214 0.0
C312 C 0.22469 0.83757 0.46949 0.0
H313 H 0.2485 0.91541 0.50249 0.0
H314 H 0.48005 0.73236 0.48352 0.0
H315 H 0.48887 0.74595 0.41994 0.0
H316 H 0.42259 0.8116 0.39769 0.0
H317 H 0.34594 0.8635 0.43931 0.0
C318 C 0.2625 0.87399 0.49336 0.0
C319 C 0.31992 0.85527 0.51087 0.0
C320 C 0.36698 0.82784 0.48737 0.0
C321 C 0.40581 0.79079 0.50058 0.0
C322 C 0.44921 0.76107 0.47537 0.0
C323 C 0.45504 0.76874 0.4387 0.0
C324 C 0.41771 0.80567 0.42614 0.0
C325 C 0.37392 0.83493 0.45009 0.0
H326 H 0.9734 0.98738 0.12891 0.0
C327 C 0.0241 0.99555 0.12754 0.0
H328 H 0.11431 0.99563 0.15413 0.0
H329 H 0.92072 0.98166 0.29474 0.0
H330 H 0.87719 0.06576 0.28716 0.0
H331 H 0.911 0.10676 0.23513 0.0
H332 H 0.98673 0.06312 0.18975 0.0
C333 C 0.06332 0.98957 0.15602 0.0
C334 C 0.04113 0.96598 0.18758 0.0
C335 C 0.99945 0.99377 0.21495 0.0
C336 C 0.98339 0.97212 0.24649 0.0
C337 C 0.9376 0.9982 0.2717 0.0
C338 C 0.91174 0.04616 0.26743 0.0
C339 C 0.93055 0.0691 0.23803 0.0
C340 C 0.97389 0.04342 0.21202 0.0
H341 H 0.03652 0.9855 0.32237 0.0
C342 C 0.0246 0.94386 0.3222 0.0
H343 H 0.99575 0.86777 0.28949 0.0
H344 H 0.11164 0.89742 0.13643 0.0
H345 H 0.15402 0.813 0.14377 0.0
H346 H 0.13404 0.77948 0.20122 0.0
H347 H 0.07081 0.82953 0.25126 0.0
C348 C 1.00871 0.90908 0.28933 0.0
C349 C 0.01318 0.92522 0.25229 0.0
C350 C 0.05129 0.89558 0.22357 0.0
C351 C 0.06449 0.91567 0.19096 0.0
C352 C 0.10148 0.88475 0.16226 0.0
C353 C 0.1259 0.83607 0.16601 0.0
C354 C 0.11454 0.81716 0.19831 0.0
C355 C 0.07795 0.84643 0.22688 0.0
H356 H 0.95311 0.02281 0.86782 0.0
C357 C 0.99005 0.02772 0.88999 0.0
H358 H 0.08895 0.03822 0.90231 0.0
H359 H 0.06886 0.93085 0.71653 0.0
H360 H 0.03454 0.84925 0.73484 0.0
H361 H 0.01638 0.84938 0.80188 0.0
H362 H 0.03244 0.93094 0.85101 0.0
C363 C 0.05095 0.03211 0.88077 0.0
C364 C 0.06722 0.03062 0.84082 0.0
C365 C 0.05914 0.98214 0.81259 0.0
C366 C 0.07078 0.98177 0.77404 0.0
C367 C 0.06128 0.93316 0.7463 0.0
C368 C 0.04152 0.88608 0.7564 0.0
C369 C 0.03114 0.88619 0.79413 0.0
C370 C 0.04014 0.93342 0.82204 0.0
H371 H 0.20301 0.01353 0.73211 0.0
C372 C 0.16611 0.01915 0.71194 0.0
H373 H 0.0696 0.03733 0.70524 0.0
H374 H 0.08831 0.12986 0.88797 0.0
H375 H 0.12335 0.21115 0.86958 0.0
H376 H 0.1443 0.21026 0.80273 0.0
H377 H 0.13018 0.12805 0.75379 0.0
C378 C 0.10682 0.02842 0.7239 0.0
C379 C 0.0918 0.02949 0.76393 0.0
C380 C 0.10044 0.0778 0.79215 0.0
C381 C 0.08839 0.07831 0.83069 0.0
C382 C 0.09698 0.12719 0.85829 0.0
C383 C 0.11705 0.17414 0.84812 0.0
C384 C 0.12886 0.17363 0.81048 0.0
C385 C 0.1207 0.12617 0.78269 0.0
H386 H 0.63721 0.5258 0.64821 0.0
C387 C 0.59611 0.52321 0.62901 0.0
H388 H 0.49724 0.50521 0.62144 0.0
H389 H 0.52474 0.37094 0.75051 0.0
H390 H 0.52421 0.29809 0.69422 0.0
H391 H 0.5281 0.31686 0.63045 0.0
H392 H 0.53028 0.40852 0.62244 0.0
C393 C 0.53864 0.51103 0.64062 0.0
C394 C 0.53198 0.50001 0.67894 0.0
C395 C 0.52977 0.44628 0.68311 0.0
C396 C 0.52904 0.43553 0.71995 0.0
C397 C 0.52648 0.38141 0.72324 0.0
C398 C 0.52608 0.33922 0.69117 0.0
C399 C 0.52816 0.34978 0.65526 0.0
C400 C 0.52957 0.40258 0.65107 0.0
H401 H 0.44473 0.49401 0.80693 0.0
C402 C 0.48802 0.47693 0.81537 0.0
H403 H 0.5784 0.44807 0.79851 0.0
H404 H 0.53037 0.60722 0.68042 0.0
H405 H 0.53459 0.68046 0.7365 0.0
H406 H 0.53922 0.66227 0.80052 0.0
H407 H 0.53885 0.571 0.80891 0.0
C408 C 0.53571 0.46687 0.79101 0.0
C409 C 0.53113 0.47857 0.75257 0.0
C410 C 0.53251 0.53244 0.74831 0.0
C411 C 0.5319 0.54306 0.71141 0.0
C412 C 0.53207 0.59704 0.70783 0.0
C413 C 0.53432 0.63942 0.73976 0.0
C414 C 0.53677 0.62917 0.77579 0.0
C415 C 0.53611 0.57645 0.7802 0.0
H416 H 0.45417 0.54132 0.37486 0.0
C417 C 0.496 0.54072 0.39298 0.0
H418 H 0.5953 0.53062 0.39433 0.0
H419 H 0.59113 0.40356 0.22175 0.0
H420 H 0.60469 0.33049 0.25354 0.0
H421 H 0.59691 0.3458 0.32297 0.0
H422 H 0.57719 0.43447 0.36122 0.0
C423 C 0.55319 0.53431 0.37725 0.0
C424 C 0.559 0.5258 0.33541 0.0
C425 C 0.57239 0.47403 0.31358 0.0
C426 C 0.57687 0.46521 0.2735 0.0
C427 C 0.58852 0.41275 0.25233 0.0
C428 C 0.59599 0.37036 0.27019 0.0
C429 C 0.59174 0.379 0.3093 0.0
C430 C 0.58029 0.43012 0.3309 0.0
H431 H 0.67719 0.49455 0.22048 0.0
C432 C 0.63766 0.49456 0.20057 0.0
H433 H 0.53893 0.50511 0.19537 0.0
H434 H 0.5351 0.63042 0.36892 0.0
H435 H 0.51857 0.70285 0.337 0.0
H436 H 0.5245 0.6872 0.26742 0.0
H437 H 0.54717 0.599 0.22936 0.0
C438 C 0.57873 0.50058 0.21386 0.0
C439 C 0.56863 0.50834 0.25535 0.0
C440 C 0.55392 0.55985 0.2771 0.0
C441 C 0.54971 0.56873 0.3172 0.0
C442 C 0.53737 0.62108 0.33833 0.0
C443 C 0.52817 0.66314 0.32038 0.0
C444 C 0.53157 0.65434 0.28121 0.0
C445 C 0.54455 0.60347 0.2597 0.0
loop_
_geom_bond_atom_site_label_1
_geom_bond_atom_site_label_2
_geom_bond_distance
_geom_bond_site_symmetry_2
_ccdc_geom_bond_type
O0 Mn1 2.162 1_655 S
O0 C14 1.246 . S
Mn1 O0 2.162 1_455 S
Mn1 O4 2.160 1_544 S
Mn1 O5 2.222 . S
Mn1 O7 2.170 . S
Mn1 O9 2.152 1_554 S
Mn1 O19 2.221 1_444 S
O2 Mn3 2.087 1_545 S
O2 C14 1.254 1_556 S
Mn3 O2 2.087 1_565 S
Mn3 O10 2.089 1_565 S
Mn3 O19 2.290 . S
Mn3 O20 2.251 . S
O4 Mn1 2.160 1_566 S
O4 C15 1.239 1_556 S
O5 Mn1 2.222 . S
O5 Mn6 2.290 . S
O5 C16 1.278 . S
Mn6 O5 2.290 . S
Mn6 O8 2.089 1_545 S
Mn6 O11 2.251 . S
Mn6 O12 2.087 . S
O7 Mn1 2.170 . S
O7 C17 1.244 . S
O8 Mn6 2.089 1_565 S
O8 C15 1.256 . S
O9 Mn1 2.152 1_556 S
O9 C18 1.239 . S
O10 Mn3 2.089 1_545 S
O10 C18 1.256 1_655 S
O11 Mn6 2.251 . S
O11 C16 1.241 . S
O12 Mn6 2.087 . S
O12 C17 1.256 . S
C13 O19 1.278 1_554 S
C13 O20 1.241 1_554 S
C14 O0 1.246 . S
C14 O2 1.254 1_554 S
C15 O4 1.239 1_554 S
C15 O8 1.256 . S
C16 O5 1.278 . S
C16 O11 1.241 . S
C17 O7 1.244 . S
C17 O12 1.256 . S
C18 O9 1.239 . S
C18 O10 1.256 1_455 S
O19 Mn1 2.221 1_666 S
O19 Mn3 2.290 . S
O19 C13 1.278 1_556 S
O20 Mn3 2.251 . S
O20 C13 1.241 1_556 S
O21 Mn22 2.163 . S
O21 C35 1.244 . S
Mn22 O21 2.163 . S
Mn22 O25 2.160 . S
Mn22 O26 2.221 . S
Mn22 O28 2.163 . S
Mn22 O30 2.160 . S
Mn22 O40 2.221 . S
O23 Mn24 2.087 . S
O23 C35 1.256 . S
Mn24 O23 2.087 . S
Mn24 O31 2.089 . S
Mn24 O40 2.290 . S
Mn24 O41 2.251 . S
O25 Mn22 2.160 . S
O25 C36 1.239 . S
O26 Mn22 2.221 . S
O26 Mn27 2.290 . S
O26 C37 1.278 . S
Mn27 O26 2.290 . S
Mn27 O29 2.089 . S
Mn27 O32 2.251 . S
Mn27 O33 2.087 . S
O28 Mn22 2.163 . S
O28 C38 1.244 . S
O29 Mn27 2.089 . S
O29 C36 1.256 . S
O30 Mn22 2.160 . S
O30 C39 1.239 . S
O31 Mn24 2.089 . S
O31 C39 1.256 . S
O32 Mn27 2.251 . S
O32 C37 1.241 . S
O33 Mn27 2.087 . S
O33 C38 1.256 . S
C34 O40 1.278 . S
C34 O41 1.241 . S
C35 O21 1.244 . S
C35 O23 1.256 . S
C36 O25 1.239 . S
C36 O29 1.256 . S
C37 O26 1.278 . S
C37 O32 1.241 . S
C38 O28 1.244 . S
C38 O33 1.256 . S
C39 O30 1.239 . S
C39 O31 1.256 . S
O40 Mn22 2.221 . S
O40 Mn24 2.290 . S
O40 C34 1.278 . S
O41 Mn24 2.251 . S
O41 C34 1.241 . S
O42 Cd43 2.300 . S
O42 C49 1.275 1_565 S
Cd43 O42 2.300 . S
Cd43 O51 2.381 . S
Cd43 O52 2.378 . S
O44 Cd45 2.385 . S
O44 C49 1.255 . S
Cd45 O44 2.385 . S
Cd45 O46 2.317 1_455 S
O46 Cd45 2.317 1_655 S
O46 C47 1.232 . S
C47 O46 1.232 . S
C47 O48 1.218 . S
O48 C47 1.218 . S
C49 O42 1.275 1_545 S
C49 O44 1.255 . S
C50 O51 1.258 . S
C50 O52 1.256 . S
O51 Cd43 2.381 . S
O51 C50 1.258 . S
O52 Cd43 2.378 . S
O52 C50 1.256 . S
O53 Cd54 2.300 . S
O53 C60 1.275 . S
Cd54 O53 2.300 . S
Cd54 O62 2.381 . S
Cd54 O63 2.378 . S
O55 Cd56 2.370 1_545 S
O55 C60 1.269 . S
Cd56 O55 2.370 1_565 S
Cd56 O57 2.317 1_455 S
O57 Cd56 2.317 1_655 S
O57 C58 1.232 . S
C58 O57 1.232 . S
C58 O59 1.218 . S
O59 C58 1.218 . S
C60 O53 1.275 . S
C60 O55 1.269 . S
C61 O62 1.258 . S
C61 O63 1.256 . S
O62 Cd54 2.381 . S
O62 C61 1.258 . S
O63 Cd54 2.378 . S
O63 C61 1.256 . S
O64 Cd65 2.300 . S
O64 C71 1.275 . S
Cd65 O64 2.300 . S
Cd65 O73 2.381 . S
Cd65 O74 2.378 . S
O66 Cd67 2.385 . S
O66 C71 1.255 . S
Cd67 O66 2.385 . S
Cd67 O68 2.317 . S
O68 Cd67 2.317 . S
O68 C69 1.232 . S
C69 O68 1.232 . S
C69 O70 1.218 . S
O70 C69 1.218 . S
C71 O64 1.275 . S
C71 O66 1.255 . S
C72 O73 1.258 . S
C72 O74 1.256 . S
O73 Cd65 2.381 . S
O73 C72 1.258 . S
O74 Cd65 2.378 . S
O74 C72 1.256 . S
O75 Cd76 2.300 . S
O75 C82 1.275 . S
Cd76 O75 2.300 . S
Cd76 O84 2.381 . S
Cd76 O85 2.378 . S
O77 Cd78 2.385 . S
O77 C82 1.255 . S
Cd78 O77 2.385 . S
Cd78 O79 2.317 . S
O79 Cd78 2.317 . S
O79 C80 1.232 . S
C80 O79 1.232 . S
C80 O81 1.218 . S
O81 C80 1.218 . S
C82 O75 1.275 . S
C82 O77 1.255 . S
C83 O84 1.258 . S
C83 O85 1.256 . S
O84 Cd76 2.381 . S
O84 C83 1.258 . S
O85 Cd76 2.378 . S
O85 C83 1.256 . S
H86 C87 0.951 . S
C87 H86 0.951 . S
C87 C93 1.265 . S
H88 C93 0.950 . S
H89 C97 0.949 . S
H90 C98 0.950 . S
H91 C99 0.951 . S
H92 C100 0.951 . S
C93 C87 1.265 . S
C93 H88 0.950 . S
C93 C94 1.478 . S
C94 C93 1.478 . S
C94 C95 1.397 . S
C94 C111 1.394 1_554 S
C95 C94 1.397 . S
C95 C96 1.438 . S
C95 C100 1.429 . S
C96 C95 1.438 . S
C96 C97 1.428 . S
C96 C109 1.394 . S
C97 H89 0.949 . S
C97 C96 1.428 . S
C97 C98 1.345 . S
C98 H90 0.950 . S
C98 C97 1.345 . S
C98 C99 1.424 . S
C99 H91 0.951 . S
C99 C98 1.424 . S
C99 C100 1.347 . S
C100 H92 0.951 . S
C100 C95 1.429 . S
C100 C99 1.347 . S
H101 C102 0.951 . S
C102 H101 0.951 . S
C102 C108 1.265 . S
H103 C108 0.950 . S
H104 C112 0.949 . S
H105 C113 0.950 . S
H106 C114 0.951 . S
H107 C115 0.951 . S
C108 C102 1.265 . S
C108 H103 0.950 . S
C108 C109 1.478 . S
C109 C96 1.394 . S
C109 C108 1.478 . S
C109 C110 1.397 1_554 S
C110 C109 1.397 1_556 S
C110 C111 1.438 . S
C110 C115 1.429 . S
C111 C94 1.394 1_556 S
C111 C110 1.438 . S
C111 C112 1.428 . S
C112 H104 0.949 . S
C112 C111 1.428 . S
C112 C113 1.345 . S
C113 H105 0.950 . S
C113 C112 1.345 . S
C113 C114 1.424 . S
C114 H106 0.951 . S
C114 C113 1.424 . S
C114 C115 1.347 . S
C115 H107 0.951 . S
C115 C110 1.429 . S
C115 C114 1.347 . S
H116 C117 0.951 . S
C117 H116 0.951 . S
C117 C123 1.265 1_554 S
H118 C123 0.950 . S
H119 C127 0.949 . S
H120 C128 0.950 . S
H121 C129 0.951 . S
H122 C130 0.951 . S
C123 C117 1.265 1_556 S
C123 H118 0.950 . S
C123 C124 1.478 . S
C124 C123 1.478 . S
C124 C125 1.397 . S
C124 C141 1.394 1_556 S
C125 C124 1.397 . S
C125 C126 1.438 . S
C125 C130 1.429 . S
C126 C125 1.438 . S
C126 C127 1.428 . S
C126 C139 1.394 . S
C127 H119 0.949 . S
C127 C126 1.428 . S
C127 C128 1.345 . S
C128 H120 0.950 . S
C128 C127 1.345 . S
C128 C129 1.424 . S
C129 H121 0.951 . S
C129 C128 1.424 . S
C129 C130 1.347 . S
C130 H122 0.951 . S
C130 C125 1.429 . S
C130 C129 1.347 . S
H131 C132 0.951 . S
C132 H131 0.951 . S
C132 C138 1.265 . S
H133 C138 0.950 . S
H134 C142 0.949 . S
H135 C143 0.950 . S
H136 C144 0.951 . S
H137 C145 0.951 . S
C138 C132 1.265 . S
C138 H133 0.950 . S
C138 C139 1.478 . S
C139 C126 1.394 . S
C139 C138 1.478 . S
C139 C140 1.397 1_556 S
C140 C139 1.397 1_554 S
C140 C141 1.438 . S
C140 C145 1.429 . S
C141 C124 1.394 1_554 S
C141 C140 1.438 . S
C141 C142 1.428 . S
C142 H134 0.949 . S
C142 C141 1.428 . S
C142 C143 1.345 . S
C143 H135 0.950 . S
C143 C142 1.345 . S
C143 C144 1.424 . S
C144 H136 0.951 . S
C144 C143 1.424 . S
C144 C145 1.347 . S
C145 H137 0.951 . S
C145 C140 1.429 . S
C145 C144 1.347 . S
H146 C147 0.951 1_556 S
C147 H146 0.951 1_554 S
C147 C153 1.265 . S
H148 C153 0.950 . S
H149 C157 0.949 . S
H150 C158 0.948 1_556 S
H151 C159 0.951 1_556 S
H152 C160 0.951 . S
C153 C147 1.265 . S
C153 H148 0.950 . S
C153 C154 1.478 . S
C154 C153 1.478 . S
C154 C155 1.397 . S
C154 C171 1.394 . S
C155 C154 1.397 . S
C155 C156 1.438 . S
C155 C160 1.429 . S
C156 C155 1.438 . S
C156 C157 1.428 . S
C156 C169 1.394 . S
C157 H149 0.949 . S
C157 C156 1.428 . S
C157 C158 1.348 . S
C158 H150 0.948 1_554 S
C158 C157 1.348 . S
C158 C159 1.423 . S
C159 H151 0.951 1_554 S
C159 C158 1.423 . S
C159 C160 1.347 . S
C160 H152 0.951 . S
C160 C155 1.429 . S
C160 C159 1.347 . S
H161 C162 0.951 . S
C162 H161 0.951 . S
C162 C168 1.265 . S
H163 C168 0.950 . S
H164 C172 0.949 . S
H165 C173 0.950 . S
H166 C174 0.951 . S
H167 C175 0.951 . S
C168 C162 1.265 . S
C168 H163 0.950 . S
C168 C169 1.478 . S
C169 C156 1.394 . S
C169 C168 1.478 . S
C169 C170 1.397 . S
C170 C169 1.397 . S
C170 C171 1.438 . S
C170 C175 1.429 . S
C171 C154 1.394 . S
C171 C170 1.438 . S
C171 C172 1.428 . S
C172 H164 0.949 . S
C172 C171 1.428 . S
C172 C173 1.345 . S
C173 H165 0.950 . S
C173 C172 1.345 . S
C173 C174 1.424 . S
C174 H166 0.951 . S
C174 C173 1.424 . S
C174 C175 1.347 . S
C175 H167 0.951 . S
C175 C170 1.429 . S
C175 C174 1.347 . S
H176 C177 0.944 1_556 S
C177 H176 0.944 1_554 S
C177 C183 1.267 . S
H178 C183 0.950 . S
H179 C187 0.949 . S
H180 C188 0.950 . S
H181 C189 0.951 . S
H182 C190 0.951 . S
C183 C177 1.267 . S
C183 H178 0.950 . S
C183 C184 1.478 1_554 S
C184 C183 1.478 1_556 S
C184 C185 1.397 1_556 S
C184 C201 1.394 . S
C185 C184 1.397 1_554 S
C185 C186 1.438 . S
C185 C190 1.429 . S
C186 C185 1.438 . S
C186 C187 1.428 . S
C186 C199 1.394 1_554 S
C187 H179 0.949 . S
C187 C186 1.428 . S
C187 C188 1.345 . S
C188 H180 0.950 . S
C188 C187 1.345 . S
C188 C189 1.424 . S
C189 H181 0.951 . S
C189 C188 1.424 . S
C189 C190 1.347 . S
C190 H182 0.951 . S
C190 C185 1.429 . S
C190 C189 1.347 . S
H191 C192 0.951 . S
C192 H191 0.951 . S
C192 C198 1.265 . S
H193 C198 0.950 . S
H194 C202 0.949 . S
H195 C203 0.950 . S
H196 C204 0.951 . S
H197 C205 0.951 . S
C198 C192 1.265 . S
C198 H193 0.950 . S
C198 C199 1.478 . S
C199 C186 1.394 1_556 S
C199 C198 1.478 . S
C199 C200 1.397 . S
C200 C199 1.397 . S
C200 C201 1.438 . S
C200 C205 1.429 . S
C201 C184 1.394 . S
C201 C200 1.438 . S
C201 C202 1.428 . S
C202 H194 0.949 . S
C202 C201 1.428 . S
C202 C203 1.345 . S
C203 H195 0.950 . S
C203 C202 1.345 . S
C203 C204 1.424 . S
C204 H196 0.951 . S
C204 C203 1.424 . S
C204 C205 1.347 . S
C205 H197 0.951 . S
C205 C200 1.429 . S
C205 C204 1.347 . S
H206 C207 0.951 . S
C207 H206 0.951 . S
C207 C213 1.265 . S
H208 C213 0.950 . S
H209 C217 0.949 . S
H210 C218 0.950 . S
H211 C219 0.951 . S
H212 C220 0.951 . S
C213 C207 1.265 . S
C213 H208 0.950 . S
C213 C214 1.478 . S
C214 C213 1.478 . S
C214 C215 1.397 . S
C214 C231 1.394 . S
C215 C214 1.397 . S
C215 C216 1.438 . S
C215 C220 1.429 . S
C216 C215 1.438 . S
C216 C217 1.428 . S
C216 C229 1.394 . S
C217 H209 0.949 . S
C217 C216 1.428 . S
C217 C218 1.345 . S
C218 H210 0.950 . S
C218 C217 1.345 . S
C218 C219 1.424 . S
C219 H211 0.951 . S
C219 C218 1.424 . S
C219 C220 1.347 . S
C220 H212 0.951 . S
C220 C215 1.429 . S
C220 C219 1.347 . S
H221 C222 0.951 . S
C222 H221 0.951 . S
C222 C228 1.265 . S
H223 C228 0.950 . S
H224 C232 0.949 . S
H225 C233 0.950 . S
H226 C234 0.951 . S
H227 C235 0.951 . S
C228 C222 1.265 . S
C228 H223 0.950 . S
C228 C229 1.478 . S
C229 C216 1.394 . S
C229 C228 1.478 . S
C229 C230 1.397 . S
C230 C229 1.397 . S
C230 C231 1.438 . S
C230 C235 1.429 . S
C231 C214 1.394 . S
C231 C230 1.438 . S
C231 C232 1.428 . S
C232 H224 0.949 . S
C232 C231 1.428 . S
C232 C233 1.345 . S
C233 H225 0.950 . S
C233 C232 1.345 . S
C233 C234 1.424 . S
C234 H226 0.951 . S
C234 C233 1.424 . S
C234 C235 1.347 . S
C235 H227 0.951 . S
C235 C230 1.429 . S
C235 C234 1.347 . S
H236 C237 0.951 . S
C237 H236 0.951 . S
C237 C243 1.265 . S
H238 C243 0.950 . S
H239 C247 0.949 . S
H240 C248 0.950 . S
H241 C249 0.951 . S
H242 C250 0.951 . S
C243 C237 1.265 . S
C243 H238 0.950 . S
C243 C244 1.478 . S
C244 C243 1.478 . S
C244 C245 1.397 . S
C244 C261 1.394 . S
C245 C244 1.397 . S
C245 C246 1.438 . S
C245 C250 1.429 . S
C246 C245 1.438 . S
C246 C247 1.428 . S
C246 C259 1.394 . S
C247 H239 0.949 . S
C247 C246 1.428 . S
C247 C248 1.345 . S
C248 H240 0.950 . S
C248 C247 1.345 . S
C248 C249 1.424 . S
C249 H241 0.951 . S
C249 C248 1.424 . S
C249 C250 1.347 . S
C250 H242 0.951 . S
C250 C245 1.429 . S
C250 C249 1.347 . S
H251 C252 0.951 . S
C252 H251 0.951 . S
C252 C258 1.265 . S
H253 C258 0.950 . S
H254 C262 0.949 . S
H255 C263 0.950 . S
H256 C264 0.951 . S
H257 C265 0.951 . S
C258 C252 1.265 . S
C258 H253 0.950 . S
C258 C259 1.478 . S
C259 C246 1.394 . S
C259 C258 1.478 . S
C259 C260 1.397 . S
C260 C259 1.397 . S
C260 C261 1.438 . S
C260 C265 1.429 . S
C261 C244 1.394 . S
C261 C260 1.438 . S
C261 C262 1.428 . S
C262 H254 0.949 . S
C262 C261 1.428 . S
C262 C263 1.345 . S
C263 H255 0.950 . S
C263 C262 1.345 . S
C263 C264 1.424 . S
C264 H256 0.951 . S
C264 C263 1.424 . S
C264 C265 1.347 . S
C265 H257 0.951 . S
C265 C260 1.429 . S
C265 C264 1.347 . S
H266 C267 0.951 . S
C267 H266 0.951 . S
C267 C273 1.265 . S
H268 C273 0.950 . S
H269 C277 0.949 . S
H270 C278 0.950 . S
H271 C279 0.951 . S
H272 C280 0.951 . S
C273 C267 1.265 . S
C273 H268 0.950 . S
C273 C274 1.478 . S
C274 C273 1.478 . S
C274 C275 1.397 . S
C274 C291 1.394 . S
C275 C274 1.397 . S
C275 C276 1.438 . S
C275 C280 1.429 . S
C276 C275 1.438 . S
C276 C277 1.428 . S
C276 C289 1.394 . S
C277 H269 0.949 . S
C277 C276 1.428 . S
C277 C278 1.345 . S
C278 H270 0.950 . S
C278 C277 1.345 . S
C278 C279 1.424 . S
C279 H271 0.951 . S
C279 C278 1.424 . S
C279 C280 1.347 . S
C280 H272 0.951 . S
C280 C275 1.429 . S
C280 C279 1.347 . S
H281 C282 0.951 . S
C282 H281 0.951 . S
C282 C288 1.265 . S
H283 C288 0.950 . S
H284 C292 0.949 . S
H285 C293 0.950 . S
H286 C294 0.951 . S
H287 C295 0.951 . S
C288 C282 1.265 . S
C288 H283 0.950 . S
C288 C289 1.478 . S
C289 C276 1.394 . S
C289 C288 1.478 . S
C289 C290 1.397 . S
C290 C289 1.397 . S
C290 C291 1.438 . S
C290 C295 1.429 . S
C291 C274 1.394 . S
C291 C290 1.438 . S
C291 C292 1.428 . S
C292 H284 0.949 . S
C292 C291 1.428 . S
C292 C293 1.345 . S
C293 H285 0.950 . S
C293 C292 1.345 . S
C293 C294 1.424 . S
C294 H286 0.951 . S
C294 C293 1.424 . S
C294 C295 1.347 . S
C295 H287 0.951 . S
C295 C290 1.429 . S
C295 C294 1.347 . S
H296 C297 0.951 . S
C297 H296 0.951 . S
C297 C303 1.265 . S
H298 C303 0.950 . S
H299 C307 0.949 . S
H300 C308 0.950 . S
H301 C309 0.951 . S
H302 C310 0.951 . S
C303 C297 1.265 . S
C303 H298 0.950 . S
C303 C304 1.478 . S
C304 C303 1.478 . S
C304 C305 1.397 . S
C304 C321 1.394 . S
C305 C304 1.397 . S
C305 C306 1.438 . S
C305 C310 1.429 . S
C306 C305 1.438 . S
C306 C307 1.428 . S
C306 C319 1.394 . S
C307 H299 0.949 . S
C307 C306 1.428 . S
C307 C308 1.345 . S
C308 H300 0.950 . S
C308 C307 1.345 . S
C308 C309 1.424 . S
C309 H301 0.951 . S
C309 C308 1.424 . S
C309 C310 1.347 . S
C310 H302 0.951 . S
C310 C305 1.429 . S
C310 C309 1.347 . S
H311 C312 0.951 . S
C312 H311 0.951 . S
C312 C318 1.265 . S
H313 C318 0.950 . S
H314 C322 0.949 . S
H315 C323 0.950 . S
H316 C324 0.951 . S
H317 C325 0.951 . S
C318 C312 1.265 . S
C318 H313 0.950 . S
C318 C319 1.478 . S
C319 C306 1.394 . S
C319 C318 1.478 . S
C319 C320 1.397 . S
C320 C319 1.397 . S
C320 C321 1.438 . S
C320 C325 1.429 . S
C321 C304 1.394 . S
C321 C320 1.438 . S
C321 C322 1.428 . S
C322 H314 0.949 . S
C322 C321 1.428 . S
C322 C323 1.345 . S
C323 H315 0.950 . S
C323 C322 1.345 . S
C323 C324 1.424 . S
C324 H316 0.951 . S
C324 C323 1.424 . S
C324 C325 1.347 . S
C325 H317 0.951 . S
C325 C320 1.429 . S
C325 C324 1.347 . S
H326 C327 0.951 1_665 S
C327 H326 0.951 1_445 S
C327 C333 1.265 . S
H328 C333 0.950 . S
H329 C337 0.949 . S
H330 C338 0.950 . S
H331 C339 0.951 . S
H332 C340 0.951 . S
C333 C327 1.265 . S
C333 H328 0.950 . S
C333 C334 1.478 . S
C334 C333 1.478 . S
C334 C335 1.397 . S
C334 C351 1.394 1_545 S
C335 C334 1.397 . S
C335 C336 1.438 . S
C335 C340 1.429 . S
C336 C335 1.438 . S
C336 C337 1.428 . S
C336 C349 1.394 . S
C337 H329 0.949 . S
C337 C336 1.428 . S
C337 C338 1.345 . S
C338 H330 0.950 . S
C338 C337 1.345 . S
C338 C339 1.424 . S
C339 H331 0.951 . S
C339 C338 1.424 . S
C339 C340 1.347 . S
C340 H332 0.951 . S
C340 C335 1.429 . S
C340 C339 1.347 . S
H341 C342 0.951 . S
C342 H341 0.951 . S
C342 C348 1.265 1_545 S
H343 C348 0.950 1_655 S
H344 C352 0.949 . S
H345 C353 0.950 . S
H346 C354 0.951 1_655 S
H347 C355 0.951 . S
C348 C342 1.265 1_565 S
C348 H343 0.950 1_455 S
C348 C349 1.478 1_565 S
C349 C336 1.394 . S
C349 C348 1.478 1_545 S
C349 C350 1.397 1_545 S
C350 C349 1.397 1_565 S
C350 C351 1.438 . S
C350 C355 1.429 . S
C351 C334 1.394 1_565 S
C351 C350 1.438 . S
C351 C352 1.428 . S
C352 H344 0.949 . S
C352 C351 1.428 . S
C352 C353 1.345 . S
C353 H345 0.950 . S
C353 C352 1.345 . S
C353 C354 1.424 . S
C354 H346 0.951 1_455 S
C354 C353 1.424 . S
C354 C355 1.347 . S
C355 H347 0.951 . S
C355 C350 1.429 . S
C355 C354 1.347 . S
H356 C357 0.951 1_655 S
C357 H356 0.951 1_455 S
C357 C363 1.265 . S
H358 C363 0.950 . S
H359 C367 0.949 . S
H360 C368 0.950 . S
H361 C369 0.951 . S
H362 C370 0.951 . S
C363 C357 1.265 . S
C363 H358 0.950 . S
C363 C364 1.478 . S
C364 C363 1.478 . S
C364 C365 1.397 1_545 S
C364 C381 1.396 . S
C365 C364 1.397 1_565 S
C365 C366 1.438 . S
C365 C370 1.429 . S
C366 C365 1.438 . S
C366 C367 1.428 . S
C366 C379 1.394 1_465 S
C367 H359 0.949 . S
C367 C366 1.428 . S
C367 C368 1.345 . S
C368 H360 0.950 . S
C368 C367 1.345 . S
C368 C369 1.424 . S
C369 H361 0.951 . S
C369 C368 1.424 . S
C369 C370 1.347 . S
C370 H362 0.951 . S
C370 C365 1.429 . S
C370 C369 1.347 . S
H371 C372 0.951 . S
C372 H371 0.951 . S
C372 C378 1.265 1_455 S
H373 C378 0.950 . S
H374 C382 0.949 1_455 S
H375 C383 0.950 . S
H376 C384 0.951 . S
H377 C385 0.951 . S
C378 C372 1.265 1_655 S
C378 H373 0.950 . S
C378 C379 1.478 . S
C379 C366 1.394 1_645 S
C379 C378 1.478 . S
C379 C380 1.397 . S
C380 C379 1.397 . S
C380 C381 1.437 1_655 S
C380 C385 1.429 . S
C381 C364 1.396 . S
C381 C380 1.437 1_455 S
C381 C382 1.427 1_455 S
C382 H374 0.949 1_655 S
C382 C381 1.427 1_655 S
C382 C383 1.345 . S
C383 H375 0.950 . S
C383 C382 1.345 . S
C383 C384 1.424 . S
C384 H376 0.951 . S
C384 C383 1.424 . S
C384 C385 1.347 . S
C385 H377 0.951 . S
C385 C380 1.429 . S
C385 C384 1.347 . S
H386 C387 0.951 . S
C387 H386 0.951 . S
C387 C393 1.265 . S
H388 C393 0.950 . S
H389 C397 0.949 . S
H390 C398 0.950 . S
H391 C399 0.951 . S
H392 C400 0.951 . S
C393 C387 1.265 . S
C393 H388 0.950 . S
C393 C394 1.478 . S
C394 C393 1.478 . S
C394 C395 1.397 . S
C394 C411 1.394 . S
C395 C394 1.397 . S
C395 C396 1.438 . S
C395 C400 1.429 . S
C396 C395 1.438 . S
C396 C397 1.428 . S
C396 C409 1.394 . S
C397 H389 0.949 . S
C397 C396 1.428 . S
C397 C398 1.345 . S
C398 H390 0.950 . S
C398 C397 1.345 . S
C398 C399 1.424 . S
C399 H391 0.951 . S
C399 C398 1.424 . S
C399 C400 1.347 . S
C400 H392 0.951 . S
C400 C395 1.429 . S
C400 C399 1.347 . S
H401 C402 0.951 . S
C402 H401 0.951 . S
C402 C408 1.265 . S
H403 C408 0.950 . S
H404 C412 0.949 . S
H405 C413 0.950 . S
H406 C414 0.951 . S
H407 C415 0.951 . S
C408 C402 1.265 . S
C408 H403 0.950 . S
C408 C409 1.478 . S
C409 C396 1.394 . S
C409 C408 1.478 . S
C409 C410 1.397 . S
C410 C409 1.397 . S
C410 C411 1.438 . S
C410 C415 1.429 . S
C411 C394 1.394 . S
C411 C410 1.438 . S
C411 C412 1.428 . S
C412 H404 0.949 . S
C412 C411 1.428 . S
C412 C413 1.345 . S
C413 H405 0.950 . S
C413 C412 1.345 . S
C413 C414 1.424 . S
C414 H406 0.951 . S
C414 C413 1.424 . S
C414 C415 1.347 . S
C415 H407 0.951 . S
C415 C410 1.429 . S
C415 C414 1.347 . S
H416 C417 0.951 . S
C417 H416 0.951 . S
C417 C423 1.265 . S
H418 C423 0.950 . S
H419 C427 0.949 . S
H420 C428 0.950 . S
H421 C429 0.951 . S
H422 C430 0.951 . S
C423 C417 1.265 . S
C423 H418 0.950 . S
C423 C424 1.478 . S
C424 C423 1.478 . S
C424 C425 1.397 . S
C424 C441 1.394 . S
C425 C424 1.397 . S
C425 C426 1.438 . S
C425 C430 1.429 . S
C426 C425 1.438 . S
C426 C427 1.428 . S
C426 C439 1.394 . S
C427 H419 0.949 . S
C427 C426 1.428 . S
C427 C428 1.345 . S
C428 H420 0.950 . S
C428 C427 1.345 . S
C428 C429 1.424 . S
C429 H421 0.951 . S
C429 C428 1.424 . S
C429 C430 1.347 . S
C430 H422 0.951 . S
C430 C425 1.429 . S
C430 C429 1.347 . S
H431 C432 0.951 . S
C432 H431 0.951 . S
C432 C438 1.265 . S
H433 C438 0.950 . S
H434 C442 0.949 . S
H435 C443 0.950 . S
H436 C444 0.951 . S
H437 C445 0.951 . S
C438 C432 1.265 . S
C438 H433 0.950 . S
C438 C439 1.478 . S
C439 C426 1.394 . S
C439 C438 1.478 . S
C439 C440 1.397 . S
C440 C439 1.397 . S
C440 C441 1.438 . S
C440 C445 1.429 . S
C441 C424 1.394 . S
C441 C440 1.438 . S
C441 C442 1.428 . S
C442 H434 0.949 . S
C442 C441 1.428 . S
C442 C443 1.345 . S
C443 H435 0.950 . S
C443 C442 1.345 . S
C443 C444 1.424 . S
C444 H436 0.951 . S
C444 C443 1.424 . S
C444 C445 1.347 . S
C445 H437 0.951 . S
C445 C440 1.429 . S
C445 C444 1.347 . S
C102 C80 1.280 . S
C87 C16 1.202 . S
C117 C15 1.431 . S
C132 C69 1.346 . S
C147 C13 1.280 . S
C162 C83 1.419 . S
C177 C14 1.382 . S
C192 C72 1.404 . S
C207 C37 1.308 . S
C222 C58 1.098 . S
C237 C36 1.502 . S
C252 C47 1.175 . S
C282 C61 1.455 . S
C267 C34 1.355 . S
C312 C50 1.408 . S
C297 C35 1.363 . S
C327 C17 1.550 . S
C342 C49 1.468 . S
C357 C18 1.320 . S
C372 C60 1.312 . S
C402 C71 1.550 . S
C387 C38 1.479 . S
C417 C39 1.320 . S
C432 C82 1.313 . S
