# Generated by pormake.
# Topology pth, (4,4)-cn, num edge types: 1
# Building blocks:
#     Node 0, Type 0, BuildingBlock: QUQFOY_clean_sbu_1, # of connection points: 4
#     Node 1, Type 0, BuildingBlock: QUQFOY_clean_sbu_1, # of connection points: 4
#     Node 2, Type 0, BuildingBlock: QUQFOY_clean_sbu_1, # of connection points: 4
#     Node 3, Type 1, BuildingBlock: KOZSID_clean_sbu_0, # of connection points: 4
#     Node 4, Type 1, BuildingBlock: KOZSID_clean_sbu_0, # of connection points: 4
#     Node 5, Type 1, BuildingBlock: KOZSID_clean_sbu_0, # of connection points: 4
#     Edge 6, Type (0, 1), BuildingBlock: CIFDUS_clean_linker_0, # of connection points: 2
#     Edge 7, Type (0, 1), BuildingBlock: CIFDUS_clean_linker_0, # of connection points: 2
#     Edge 8, Type (0, 1), BuildingBlock: CIFDUS_clean_linker_0, # of connection points: 2
#     Edge 9, Type (0, 1), BuildingBlock: CIFDUS_clean_linker_0, # of connection points: 2
#     Edge 10, Type (0, 1), BuildingBlock: CIFDUS_clean_linker_0, # of connection points: 2
#     Edge 11, Type (0, 1), BuildingBlock: CIFDUS_clean_linker_0, # of connection points: 2
#     Edge 12, Type (0, 1), BuildingBlock: CIFDUS_clean_linker_0, # of connection points: 2
#     Edge 13, Type (0, 1), BuildingBlock: CIFDUS_clean_linker_0, # of connection points: 2
#     Edge 14, Type (0, 1), BuildingBlock: CIFDUS_clean_linker_0, # of connection points: 2
#     Edge 15, Type (0, 1), BuildingBlock: CIFDUS_clean_linker_0, # of connection points: 2
#     Edge 16, Type (0, 1), BuildingBlock: CIFDUS_clean_linker_0, # of connection points: 2
#     Edge 17, Type (0, 1), BuildingBlock: CIFDUS_clean_linker_0, # of connection points: 2
# Relax obj value: 0.023
# Max RMSD: 0.126
# Mean RMSD: 0.072
data_MOF--net-pth--node1-QUQFOY_clean_sbu_1--node2-KOZSID_clean_sbu_0--edge1-CIFDUS_clean_linker_0
_symmetry_space_group_name_H-M    P1
_symmetry_Int_Tables_number       1
_symmetry_cell_setting            triclinic
loop_
_symmetry_equiv_pos_as_xyz
'x, y, z'
_cell_length_a     22.767041
_cell_length_b     24.99209
_cell_length_c     55.523881
_cell_angle_alpha  87.049057
_cell_angle_beta   87.001436
_cell_angle_gamma 120.15354
loop_
_atom_site_label
_atom_site_type_symbol
_atom_site_fract_x
_atom_site_fract_y
_atom_site_fract_z
_atom_type_partial_charge
O0 O 0.12377 0.15186 0.02264 0.0
Cd1 Cd 0.03426 0.09725 0.04473 0.0
Cd2 Cd 0.09307 0.02073 0.04506 0.0
O3 O 0.17617 0.09782 0.02642 0.0
O4 O 0.99961 0.1556 0.04981 0.0
O5 O 0.0359 0.12019 0.07928 0.0
C6 C 0.01375 0.15623 0.07199 0.0
C7 C 0.10075 0.95901 0.07665 0.0
C8 C 0.17541 0.14589 0.01813 0.0
C9 C 0.95955 0.97561 0.02252 0.0
O10 O 0.01203 0.97128 0.02533 0.0
O11 O 0.95464 0.01994 0.03084 0.0
O12 O 0.12032 0.95843 0.0545 0.0
O13 O 0.08086 0.99795 0.08118 0.0
O14 O 0.98538 0.11072 0.39487 0.0
Cd15 Cd 0.07455 0.14503 0.37277 0.0
Cd16 Cd 0.03022 0.0151 0.37676 0.0
O17 O 0.94779 0.00982 0.39699 0.0
O18 O 0.09599 0.23144 0.36265 0.0
O19 O 0.07226 0.16049 0.3368 0.0
C20 C 0.08533 0.21572 0.34086 0.0
C21 C 0.0157 0.93833 0.35092 0.0
C22 C 0.94097 0.05528 0.4026 0.0
C23 C 0.16464 0.10544 0.39637 0.0
O24 O 0.11925 0.05012 0.39332 0.0
O25 O 0.15844 0.15123 0.3888 0.0
O26 O 0.00414 0.92642 0.37408 0.0
O27 O 0.03273 0.99356 0.3421 0.0
O28 O 0.97552 0.04159 0.69493 0.0
Cd29 Cd 0.02892 0.00795 0.71262 0.0
Cd30 Cd 0.12374 0.13318 0.70964 0.0
O31 O 0.05018 0.14221 0.69196 0.0
O32 O 0.95732 0.92069 0.72409 0.0
O33 O 0.01451 0.99153 0.74907 0.0
C34 C 0.96714 0.93571 0.74599 0.0
C35 C 0.17725 0.19318 0.74129 0.0
C36 C 0.99246 0.097 0.68781 0.0
C37 C 0.16258 0.04973 0.68407 0.0
O38 O 0.18012 0.10399 0.68983 0.0
O39 O 0.104 0.00378 0.69141 0.0
O40 O 0.19379 0.21624 0.71902 0.0
O41 O 0.12817 0.13628 0.74578 0.0
C42 C 0.13628 0.68047 0.16793 0.0
C43 C 0.20006 0.72467 0.1569 0.0
C44 C 0.24683 0.7168 0.16852 0.0
C45 C 0.20921 0.66848 0.18588 0.0
N46 N 0.1411 0.64457 0.18598 0.0
Co47 Co 0.06813 0.57424 0.20847 0.0
N48 N 0.13758 0.56753 0.22719 0.0
C49 C 0.2061 0.60484 0.22379 0.0
C50 C 0.24081 0.58905 0.23936 0.0
C51 C 0.19158 0.53828 0.25348 0.0
C52 C 0.12943 0.5259 0.2456 0.0
N53 N 0.99528 0.50201 0.23031 0.0
C54 C 1.00063 0.465 0.24779 0.0
C55 C 0.93708 0.41724 0.25749 0.0
C56 C 0.88985 0.4238 0.24554 0.0
C57 C 0.92708 0.47487 0.22924 0.0
N58 N 0.99884 0.58299 0.19037 0.0
C59 C 0.93024 0.54888 0.19499 0.0
C60 C 0.89589 0.56807 0.18063 0.0
C61 C 0.94552 0.61814 0.16623 0.0
C62 C 0.00751 0.62655 0.17264 0.0
N63 N 0.06742 0.51384 0.18622 0.0
C64 C 0.06251 0.41931 0.15893 0.0
C65 C 0.00415 0.42305 0.16441 0.0
C66 C 0.00775 0.47023 0.17784 0.0
C67 C 0.12399 0.46523 0.16665 0.0
C68 C 0.12539 0.51191 0.18 0.0
N69 N 0.0681 0.63427 0.23077 0.0
C70 C 0.00556 0.66736 0.25667 0.0
C71 C 0.06465 0.72386 0.25901 0.0
C72 C 0.126 0.73399 0.2475 0.0
C73 C 0.12668 0.68873 0.23377 0.0
C74 C 0.00838 0.62375 0.24263 0.0
H75 H 0.17509 0.69913 0.22554 0.0
H76 H 0.96115 0.58232 0.24135 0.0
H77 H 0.9611 0.46958 0.1816 0.0
H78 H 0.1738 0.54547 0.18536 0.0
C79 C 0.23648 0.6496 0.2041 0.0
C80 C 0.07316 0.67685 0.16148 0.0
C81 C 0.0645 0.47254 0.25549 0.0
C82 C 0.89971 0.49893 0.21287 0.0
H83 H 0.21179 0.76024 0.14245 0.0
H84 H 0.30182 0.74469 0.16536 0.0
H85 H 0.29549 0.61045 0.23977 0.0
H86 H 0.2005 0.51229 0.26756 0.0
H87 H 0.92612 0.38105 0.27157 0.0
H88 H 0.83492 0.39448 0.24824 0.0
H89 H 0.84128 0.54839 0.18079 0.0
H90 H 0.93714 0.64572 0.15267 0.0
H91 H 0.95518 0.38865 0.15895 0.0
H92 H 0.17102 0.46533 0.1624 0.0
H93 H 0.95669 0.65729 0.26512 0.0
H94 H 0.17344 0.77658 0.24914 0.0
C95 C 0.45035 0.01752 0.58385 0.0
C96 C 0.40534 0.96025 0.59641 0.0
C97 C 0.41088 0.91655 0.58443 0.0
C98 C 0.45967 0.94939 0.56562 0.0
N99 N 0.48567 0.01149 0.56475 0.0
Co100 Co 0.56522 0.07627 0.54261 0.0
N101 N 0.57206 0.01152 0.52473 0.0
C102 C 0.52848 0.94948 0.528 0.0
C103 C 0.54053 0.91675 0.51138 0.0
C104 C 0.59507 0.96046 0.49649 0.0
C105 C 0.61419 0.01761 0.50523 0.0
N106 N 0.6477 0.14081 0.52161 0.0
C107 C 0.68801 0.13457 0.50443 0.0
C108 C 0.74495 0.19168 0.49637 0.0
C109 C 0.73924 0.23547 0.50828 0.0
C110 C 0.68017 0.20283 0.52322 0.0
N111 N 0.55521 0.14086 0.55935 0.0
C112 C 0.59248 0.20296 0.55367 0.0
C113 C 0.5702 0.23573 0.56649 0.0
C114 C 0.51529 0.19194 0.58127 0.0
C115 C 0.50792 0.13467 0.57694 0.0
N116 N 0.62681 0.07567 0.56659 0.0
C117 C 0.71119 0.07361 0.60176 0.0
C118 C 0.71042 0.12795 0.59512 0.0
C119 C 0.66848 0.12804 0.5776 0.0
C120 C 0.66976 0.02066 0.59009 0.0
C121 C 0.62825 0.0226 0.57282 0.0
N122 N 0.50379 0.07718 0.51863 0.0
C123 C 0.47951 0.13113 0.48669 0.0
C124 C 0.4181 0.07728 0.4836 0.0
C125 C 0.39997 0.02372 0.49871 0.0
C126 C 0.44316 0.02459 0.51584 0.0
C127 C 0.52107 0.13014 0.5042 0.0
H128 H 0.4264 0.98199 0.52659 0.0
H129 H 0.56722 0.17278 0.50557 0.0
H130 H 0.67037 0.17103 0.57343 0.0
H131 H 0.59759 0.98041 0.56483 0.0
C132 C 0.47933 0.92313 0.54769 0.0
C133 C 0.45652 0.07602 0.59041 0.0
C134 C 0.6735 0.07604 0.49477 0.0
C135 C 0.65111 0.2292 0.53758 0.0
H136 H 0.37163 0.95066 0.61253 0.0
H137 H 0.38246 0.86672 0.58883 0.0
H138 H 0.51314 0.86699 0.5103 0.0
H139 H 0.61807 0.95094 0.48101 0.0
H140 H 0.78627 0.20112 0.48311 0.0
H141 H 0.77362 0.28526 0.50607 0.0
H142 H 0.59183 0.28559 0.56544 0.0
H143 H 0.48466 0.20147 0.59392 0.0
H144 H 0.74107 0.17016 0.60369 0.0
H145 H 0.66945 0.97765 0.59412 0.0
H146 H 0.49631 0.17376 0.47538 0.0
H147 H 0.35227 0.98105 0.49749 0.0
C148 C 0.69831 0.62123 0.85199 0.0
C149 C 0.75586 0.61855 0.84451 0.0
C150 C 0.75235 0.56974 0.858 0.0
C151 C 0.69323 0.54561 0.8729 0.0
N152 N 0.65825 0.57558 0.86965 0.0
Co153 Co 0.57175 0.5577 0.88863 0.0
N154 N 0.56607 0.48501 0.90813 0.0
C155 C 0.60925 0.46291 0.90552 0.0
C156 C 0.59336 0.41307 0.92153 0.0
C157 C 0.53592 0.40184 0.93498 0.0
C158 C 0.51945 0.44532 0.92619 0.0
N159 N 0.48739 0.54187 0.90851 0.0
C160 C 0.44758 0.4966 0.9264 0.0
C161 C 0.3921 0.50186 0.93461 0.0
C162 C 0.39787 0.55267 0.92192 0.0
C163 C 0.45579 0.57531 0.90652 0.0
N164 N 0.57567 0.62835 0.86825 0.0
C165 C 0.52978 0.64755 0.86953 0.0
C166 C 0.54496 0.69629 0.85295 0.0
C167 C 0.60414 0.709 0.84024 0.0
C168 C 0.62173 0.66717 0.8499 0.0
N169 N 0.51542 0.50006 0.8649 0.0
C170 C 0.43699 0.42103 0.83038 0.0
C171 C 0.41407 0.45464 0.84313 0.0
C172 C 0.45404 0.49406 0.85996 0.0
C173 C 0.49932 0.42682 0.83537 0.0
C174 C 0.53699 0.46562 0.8528 0.0
N175 N 0.62815 0.6157 0.91223 0.0
C176 C 0.66818 0.71197 0.93116 0.0
C177 C 0.71765 0.70424 0.94213 0.0
C178 C 0.71888 0.64965 0.9388 0.0
C179 C 0.67458 0.60676 0.92384 0.0
C180 C 0.62393 0.66727 0.91661 0.0
H181 H 0.67977 0.56722 0.92168 0.0
H182 H 0.58765 0.67617 0.90874 0.0
H183 H 0.4343 0.5196 0.86852 0.0
H184 H 0.58353 0.46718 0.85608 0.0
C185 C 0.66755 0.49322 0.88931 0.0
C186 C 0.68365 0.66743 0.84147 0.0
C187 C 0.45899 0.44675 0.93558 0.0
C188 C 0.47652 0.62249 0.88789 0.0
H189 H 0.7961 0.64864 0.83065 0.0
H190 H 0.78832 0.55346 0.85695 0.0
H191 H 0.6211 0.38863 0.92352 0.0
H192 H 0.50965 0.3659 0.94974 0.0
H193 H 0.35045 0.47137 0.94791 0.0
H194 H 0.36238 0.56949 0.92304 0.0
H195 H 0.51724 0.72068 0.85078 0.0
H196 H 0.63188 0.74559 0.82577 0.0
H197 H 0.36629 0.45191 0.83964 0.0
H198 H 0.51873 0.40119 0.82595 0.0
H199 H 0.66471 0.75322 0.93308 0.0
H200 H 0.75452 0.64005 0.94747 0.0
H201 H 0.07748 0.19851 0.11303 0.0
H202 H 0.94269 0.21596 0.06559 0.0
H203 H 0.94516 0.29791 0.08836 0.0
H204 H 0.98988 0.36835 0.12043 0.0
H205 H 0.12651 0.35303 0.16755 0.0
H206 H 0.12001 0.26762 0.146 0.0
C207 C 0.04787 0.21964 0.10791 0.0
C208 C 0.0097 0.20083 0.08768 0.0
C209 C 0.05073 0.26795 0.12079 0.0
C210 C 0.97244 0.2294 0.08108 0.0
C211 C 0.974 0.2765 0.09405 0.0
C212 C 0.01774 0.34598 0.12617 0.0
C213 C 0.05879 0.36743 0.14559 0.0
C214 C 0.01369 0.29676 0.11372 0.0
C215 C 0.09533 0.33829 0.15246 0.0
C216 C 0.09121 0.28902 0.14026 0.0
H217 H 0.8667 0.11253 0.40148 0.0
H218 H 0.89153 0.97676 0.44371 0.0
H219 H 0.81228 0.97234 0.4764 0.0
H220 H 0.74194 0.01265 0.49398 0.0
H221 H 0.7057 0.1382 0.44978 0.0
H222 H 0.78439 0.14222 0.41696 0.0
C223 C 0.8538 0.08131 0.41772 0.0
C224 C 0.8849 0.04518 0.4203 0.0
C225 C 0.8072 0.07811 0.43618 0.0
C226 C 0.86769 0.00459 0.44129 0.0
C227 C 0.82291 1.00249 0.46005 0.0
C228 C 0.75069 0.0402 0.47702 0.0
C229 C 0.71902 0.07588 0.4744 0.0
C230 C 0.79331 0.03987 0.45786 0.0
C231 C 0.73052 0.11125 0.45233 0.0
C232 C 0.7751 0.11324 0.43355 0.0
H233 H 0.85139 0.82465 0.74416 0.0
H234 H 0.98241 0.94686 0.79445 0.0
H235 H 0.90617 0.87481 0.82849 0.0
H236 H 0.8009 0.77689 0.84401 0.0
H237 H 0.66948 0.6568 0.79355 0.0
H238 H 0.74686 0.72817 0.75946 0.0
C239 C 0.86361 0.83546 0.76256 0.0
C240 C 0.9228 0.89102 0.76672 0.0
C241 C 0.8191 0.79428 0.782 0.0
C242 C 0.93734 0.90441 0.79071 0.0
C243 C 0.89367 0.86327 0.81019 0.0
C244 C 0.78951 0.76686 0.82549 0.0
C245 C 0.72993 0.71223 0.82106 0.0
C246 C 0.83422 0.8082 0.80606 0.0
C247 C 0.71514 0.69895 0.79717 0.0
C248 C 0.75937 0.73958 0.77777 0.0
H249 H 0.111 0.85687 0.07044 0.0
H250 H 0.07899 0.95677 0.12585 0.0
H251 H 0.06571 0.87747 0.157 0.0
H252 H 0.06285 0.77881 0.16849 0.0
H253 H 0.09236 0.67876 0.11279 0.0
H254 H 0.10627 0.7585 0.08168 0.0
C255 C 0.10165 0.86167 0.08934 0.0
C256 C 0.09658 0.91309 0.09579 0.0
C257 C 0.09291 0.81539 0.10707 0.0
C258 C 0.08349 0.91792 0.12037 0.0
C259 C 0.07565 0.87244 0.13819 0.0
C260 C 0.07176 0.77458 0.14949 0.0
C261 C 0.07636 0.72326 0.14274 0.0
C262 C 0.07993 0.8208 0.13175 0.0
C263 C 0.08833 0.71792 0.1182 0.0
C264 C 0.09657 0.76357 0.1005 0.0
H265 H 0.20614 0.02299 0.40609 0.0
H266 H 0.25201 0.20849 0.41869 0.0
H267 H 0.33657 0.21727 0.4462 0.0
H268 H 0.3908 0.16873 0.46903 0.0
H269 H 0.34528 0.9838 0.45516 0.0
H270 H 0.26637 0.97815 0.42612 0.0
C271 C 0.23495 0.06566 0.41468 0.0
C272 C 0.22223 0.11481 0.41047 0.0
C273 C 0.28286 0.07014 0.43055 0.0
C274 C 0.26075 0.16994 0.42156 0.0
C275 C 0.30882 0.17482 0.43742 0.0
C276 C 0.36445 0.12752 0.45941 0.0
C277 C 0.37338 0.07634 0.4647 0.0
C278 C 0.31938 0.12472 0.44241 0.0
C279 C 0.33825 0.02327 0.45205 0.0
C280 C 0.29343 0.02014 0.43524 0.0
H281 H 0.30838 0.28726 0.73746 0.0
H282 H 0.13273 0.18146 0.78905 0.0
H283 H 0.19715 0.24327 0.82123 0.0
H284 H 0.30409 0.32798 0.83463 0.0
H285 H 0.48153 0.42777 0.7834 0.0
H286 H 0.41612 0.36767 0.75115 0.0
C287 C 0.28411 0.27795 0.75574 0.0
C288 C 0.21568 0.23038 0.76084 0.0
C289 C 0.322 0.31245 0.7742 0.0
C290 C 0.18529 0.21798 0.78468 0.0
C291 C 0.2221 0.25332 0.80306 0.0
C292 C 0.32819 0.33632 0.81638 0.0
C293 C 0.39737 0.38226 0.81131 0.0
C294 C 0.29053 0.30069 0.79804 0.0
C295 C 0.42845 0.39239 0.7877 0.0
C296 C 0.39101 0.35825 0.76927 0.0
H297 H 0.85937 0.01525 0.68328 0.0
H298 H 0.02102 0.20101 0.65865 0.0
H299 H 0.94746 0.21121 0.63036 0.0
H300 H 0.84004 0.16396 0.61051 0.0
H301 H 0.67856 0.97875 0.63632 0.0
H302 H 0.74996 0.97156 0.66593 0.0
C303 C 0.87853 0.05829 0.67188 0.0
C304 C 0.9459 0.1071 0.67297 0.0
C305 C 0.83631 0.06359 0.65558 0.0
C306 C 0.9694 0.1627 0.65823 0.0
C307 C 0.92747 0.1684 0.64193 0.0
C308 C 0.81999 0.12235 0.62283 0.0
C309 C 0.75413 0.07158 0.62081 0.0
C310 C 0.86121 0.11866 0.64013 0.0
C311 C 0.72952 0.01795 0.63692 0.0
C312 C 0.77014 0.01393 0.65405 0.0
H313 H 0.971 0.89736 0.99348 0.0
H314 H 0.82662 0.94865 0.0205 0.0
H315 H 0.7384 0.86879 0.99826 0.0
H316 H 0.70234 0.78286 0.97164 0.0
H317 H 0.85161 0.73822 0.94335 0.0
H318 H 0.93725 0.81629 0.96603 0.0
C319 C 0.92021 0.89118 0.99464 0.0
C320 C 0.9054 0.92872 0.00883 0.0
C321 C 0.87034 0.8459 0.9817 0.0
C322 C 0.83946 0.9204 0.00974 0.0
C323 C 0.78899 0.87465 0.99706 0.0
C324 C 0.7537 0.79051 0.97023 0.0
C325 C 0.76965 0.75347 0.95599 0.0
C326 C 0.80384 0.83694 0.983 0.0
C327 C 0.83673 0.76427 0.95462 0.0
C328 C 0.88624 0.80953 0.96743 0.0
H329 H 0.07914 0.95638 0.30561 0.0
H330 H 0.94835 0.81324 0.36192 0.0
H331 H 0.95132 0.73455 0.33846 0.0
H332 H 0.99433 0.70649 0.30271 0.0
H333 H 0.12822 0.84928 0.24682 0.0
H334 H 0.12171 0.92788 0.26945 0.0
C335 C 0.05063 0.90787 0.31257 0.0
C336 C 0.01324 0.89072 0.33543 0.0
C337 C 0.0539 0.86281 0.29921 0.0
C338 C 0.97746 0.82774 0.34438 0.0
C339 C 0.97927 0.78266 0.331 0.0
C340 C 0.02169 0.75474 0.29538 0.0
C341 C 0.06173 0.77186 0.27308 0.0
C342 C 0.01787 0.7997 0.30852 0.0
C343 C 0.09769 0.83484 0.26407 0.0
C344 C 0.09359 0.87978 0.27693 0.0
H345 H 0.30081 0.10811 0.68142 0.0
H346 H 0.12659 0.97505 0.64721 0.0
H347 H 0.20206 0.97304 0.61468 0.0
H348 H 0.31774 0.01384 0.59479 0.0
H349 H 0.49203 0.13645 0.63151 0.0
H350 H 0.41672 0.13904 0.66402 0.0
C351 C 0.27957 0.07812 0.66698 0.0
C352 C 0.20838 0.04197 0.6666 0.0
C353 C 0.32327 0.0762 0.64863 0.0
C354 C 0.18127 1.00291 0.64795 0.0
C355 C 0.22437 1.00215 0.62925 0.0
C356 C 0.33905 0.04052 0.61007 0.0
C357 C 0.41026 0.07567 0.61062 0.0
C358 C 0.29541 0.03931 0.62923 0.0
C359 C 0.43736 0.10991 0.63053 0.0
C360 C 0.39435 0.11106 0.64916 0.0
H361 H 0.24817 0.26922 0.02292 0.0
H362 H 0.22929 0.12983 0.97633 0.0
H363 H 0.31369 0.21083 0.94608 0.0
H364 H 0.3885 0.32192 0.93215 0.0
H365 H 0.41931 0.4603 0.98109 0.0
H366 H 0.33399 0.37953 0.01111 0.0
C367 C 0.26344 0.25682 0.00626 0.0
C368 C 0.23283 0.19402 1.0017 0.0
C369 C 0.31323 0.30349 0.98931 0.0
C370 C 0.25283 0.17803 0.98019 0.0
C371 C 0.30061 0.22429 0.96287 0.0
C372 C 0.37687 0.33416 0.9495 0.0
C373 C 0.40892 0.39702 0.95424 0.0
C374 C 0.33045 0.28722 0.96711 0.0
C375 C 0.39408 0.41233 0.97686 0.0
C376 C 0.34571 0.36617 0.99406 0.0
H377 H 0.07853 0.31962 0.3468 0.0
H378 H 0.08694 0.2072 0.29181 0.0
H379 H 0.0796 0.27586 0.26053 0.0
H380 H 0.07081 0.3686 0.24879 0.0
H381 H 0.05934 0.47845 0.30407 0.0
H382 H 0.06722 0.40993 0.33535 0.0
C383 C 0.07923 0.31028 0.32795 0.0
C384 C 0.08388 0.25856 0.32165 0.0
C385 C 0.07377 0.34927 0.31016 0.0
C386 C 0.08371 0.24678 0.29716 0.0
C387 C 0.07934 0.28596 0.27927 0.0
C388 C 0.06945 0.37684 0.26775 0.0
C389 C 0.06407 0.42785 0.27435 0.0
C390 C 0.07411 0.33723 0.28556 0.0
C391 C 0.06292 0.43897 0.2988 0.0
C392 C 0.06775 0.40004 0.31658 0.0
loop_
_geom_bond_atom_site_label_1
_geom_bond_atom_site_label_2
_geom_bond_distance
_geom_bond_site_symmetry_2
_ccdc_geom_bond_type
O0 Cd1 2.223 . S
O0 C8 1.315 . S
Cd1 O0 2.223 . S
Cd1 O4 2.297 . S
Cd1 O5 2.439 . S
Cd1 O11 2.240 . S
Cd2 O3 2.240 . S
Cd2 O10 2.223 1_545 S
Cd2 O12 2.297 1_545 S
Cd2 O13 2.439 1_545 S
O3 Cd2 2.240 . S
O3 C8 1.279 . S
O4 Cd1 2.297 . S
O4 C6 1.247 . S
O5 Cd1 2.439 . S
O5 C6 1.208 . S
C6 O4 1.247 . S
C6 O5 1.208 . S
C7 O12 1.247 . S
C7 O13 1.208 . S
C8 O0 1.315 . S
C8 O3 1.279 . S
C9 O10 1.315 . S
C9 O11 1.279 1_565 S
O10 Cd2 2.223 1_565 S
O10 C9 1.315 . S
O11 Cd1 2.240 . S
O11 C9 1.279 1_545 S
O12 Cd2 2.297 1_565 S
O12 C7 1.247 . S
O13 Cd2 2.439 1_565 S
O13 C7 1.208 . S
O14 Cd15 2.223 . S
O14 C22 1.315 1_455 S
Cd15 O14 2.223 . S
Cd15 O18 2.297 . S
Cd15 O19 2.439 . S
Cd15 O25 2.240 . S
Cd16 O17 2.240 1_565 S
Cd16 O24 2.223 1_665 S
Cd16 O26 2.297 1_655 S
Cd16 O27 2.439 1_665 S
O17 Cd16 2.240 1_545 S
O17 C22 1.279 . S
O18 Cd15 2.297 . S
O18 C20 1.247 . S
O19 Cd15 2.439 . S
O19 C20 1.208 . S
C20 O18 1.247 . S
C20 O19 1.208 . S
C21 O26 1.247 . S
C21 O27 1.208 1_565 S
C22 O14 1.315 1_655 S
C22 O17 1.279 . S
C23 O24 1.315 . S
C23 O25 1.279 . S
O24 Cd16 2.223 1_445 S
O24 C23 1.315 . S
O25 Cd15 2.240 . S
O25 C23 1.279 . S
O26 Cd16 2.297 1_455 S
O26 C21 1.247 . S
O27 Cd16 2.439 1_445 S
O27 C21 1.208 1_545 S
O28 Cd29 2.223 1_655 S
O28 C36 1.315 1_565 S
Cd29 O28 2.223 1_455 S
Cd29 O32 2.297 1_455 S
Cd29 O33 2.439 1_455 S
Cd29 O39 2.240 1_565 S
Cd30 O31 2.240 . S
Cd30 O38 2.223 . S
Cd30 O40 2.297 . S
Cd30 O41 2.439 . S
O31 Cd30 2.240 . S
O31 C36 1.279 1_455 S
O32 Cd29 2.297 1_655 S
O32 C34 1.247 . S
O33 Cd29 2.439 1_655 S
O33 C34 1.208 . S
C34 O32 1.247 . S
C34 O33 1.208 . S
C35 O40 1.247 . S
C35 O41 1.208 . S
C36 O28 1.315 1_545 S
C36 O31 1.279 1_655 S
C37 O38 1.315 . S
C37 O39 1.279 . S
O38 Cd30 2.223 . S
O38 C37 1.315 . S
O39 Cd29 2.240 1_545 S
O39 C37 1.279 . S
O40 Cd30 2.297 . S
O40 C35 1.247 . S
O41 Cd30 2.439 . S
O41 C35 1.208 . S
C42 C43 1.443 . S
C42 N46 1.376 . S
C42 C80 1.389 . S
C43 C42 1.443 . S
C43 C44 1.340 . S
C43 H83 0.951 . S
C44 C43 1.340 . S
C44 C45 1.439 . S
C44 H84 0.950 . S
C45 C44 1.439 . S
C45 N46 1.374 . S
C45 C79 1.395 . S
N46 C42 1.376 . S
N46 C45 1.374 . S
N46 Co47 2.008 . S
Co47 N46 2.008 . S
Co47 N48 1.995 . S
Co47 N53 2.008 1_455 S
Co47 N58 1.995 1_455 S
Co47 N63 2.282 . S
Co47 N69 2.282 . S
N48 Co47 1.995 . S
N48 C49 1.376 . S
N48 C52 1.383 . S
C49 N48 1.376 . S
C49 C50 1.446 . S
C49 C79 1.391 . S
C50 C49 1.446 . S
C50 C51 1.339 . S
C50 H85 0.949 . S
C51 C50 1.339 . S
C51 C52 1.439 . S
C51 H86 0.950 . S
C52 N48 1.383 . S
C52 C51 1.439 . S
C52 C81 1.392 . S
N53 Co47 2.008 1_655 S
N53 C54 1.376 . S
N53 C57 1.374 . S
C54 N53 1.376 . S
C54 C55 1.443 . S
C54 C81 1.389 1_655 S
C55 C54 1.443 . S
C55 C56 1.340 . S
C55 H87 0.951 . S
C56 C55 1.340 . S
C56 C57 1.439 . S
C56 H88 0.950 . S
C57 N53 1.374 . S
C57 C56 1.439 . S
C57 C82 1.395 . S
N58 Co47 1.995 1_655 S
N58 C59 1.376 . S
N58 C62 1.383 . S
C59 N58 1.376 . S
C59 C60 1.446 . S
C59 C82 1.391 . S
C60 C59 1.446 . S
C60 C61 1.339 . S
C60 H89 0.949 . S
C61 C60 1.339 . S
C61 C62 1.439 . S
C61 H90 0.950 . S
C62 N58 1.383 . S
C62 C61 1.439 . S
C62 C80 1.392 1_655 S
N63 Co47 2.282 . S
N63 C66 1.332 1_455 S
N63 C68 1.332 . S
C64 C65 1.386 1_455 S
C64 C67 1.388 . S
C65 C64 1.386 1_655 S
C65 C66 1.382 . S
C65 H91 0.950 . S
C66 N63 1.332 1_655 S
C66 C65 1.382 . S
C66 H77 0.952 . S
C67 C64 1.388 . S
C67 C68 1.382 . S
C67 H92 0.950 . S
C68 N63 1.332 . S
C68 C67 1.382 . S
C68 H78 0.948 . S
N69 Co47 2.282 . S
N69 C73 1.332 . S
N69 C74 1.332 1_455 S
C70 C71 1.388 1_655 S
C70 C74 1.382 . S
C70 H93 0.950 . S
C71 C70 1.388 1_455 S
C71 C72 1.386 . S
C72 C71 1.386 . S
C72 C73 1.382 . S
C72 H94 0.950 . S
C73 N69 1.332 . S
C73 C72 1.382 . S
C73 H75 0.952 . S
C74 N69 1.332 1_655 S
C74 C70 1.382 . S
C74 H76 0.948 . S
H75 C73 0.952 . S
H76 C74 0.948 . S
H77 C66 0.952 . S
H78 C68 0.948 . S
C79 C45 1.395 . S
C79 C49 1.391 . S
C80 C42 1.389 . S
C80 C62 1.392 1_455 S
C81 C52 1.392 . S
C81 C54 1.389 1_455 S
C82 C57 1.395 . S
C82 C59 1.391 . S
H83 C43 0.951 . S
H84 C44 0.950 . S
H85 C50 0.949 . S
H86 C51 0.950 . S
H87 C55 0.951 . S
H88 C56 0.950 . S
H89 C60 0.949 . S
H90 C61 0.950 . S
H91 C65 0.950 . S
H92 C67 0.950 . S
H93 C70 0.950 . S
H94 C72 0.950 . S
C95 C96 1.443 1_545 S
C95 N99 1.376 . S
C95 C133 1.389 . S
C96 C95 1.443 1_565 S
C96 C97 1.340 . S
C96 H136 0.951 . S
C97 C96 1.340 . S
C97 C98 1.439 . S
C97 H137 0.950 . S
C98 C97 1.439 . S
C98 N99 1.374 1_565 S
C98 C132 1.395 . S
N99 C95 1.376 . S
N99 C98 1.374 1_545 S
N99 Co100 2.008 . S
Co100 N99 2.008 . S
Co100 N101 1.995 . S
Co100 N106 2.008 . S
Co100 N111 1.995 . S
Co100 N116 2.282 . S
Co100 N122 2.282 . S
N101 Co100 1.995 . S
N101 C102 1.376 1_545 S
N101 C105 1.383 . S
C102 N101 1.376 1_565 S
C102 C103 1.446 . S
C102 C132 1.391 . S
C103 C102 1.446 . S
C103 C104 1.339 . S
C103 H138 0.949 . S
C104 C103 1.339 . S
C104 C105 1.439 1_565 S
C104 H139 0.950 . S
C105 N101 1.383 . S
C105 C104 1.439 1_545 S
C105 C134 1.392 . S
N106 Co100 2.008 . S
N106 C107 1.376 . S
N106 C110 1.374 . S
C107 N106 1.376 . S
C107 C108 1.443 . S
C107 C134 1.389 . S
C108 C107 1.443 . S
C108 C109 1.340 . S
C108 H140 0.951 . S
C109 C108 1.340 . S
C109 C110 1.439 . S
C109 H141 0.950 . S
C110 N106 1.374 . S
C110 C109 1.439 . S
C110 C135 1.395 . S
N111 Co100 1.995 . S
N111 C112 1.376 . S
N111 C115 1.383 . S
C112 N111 1.376 . S
C112 C113 1.446 . S
C112 C135 1.391 . S
C113 C112 1.446 . S
C113 C114 1.339 . S
C113 H142 0.949 . S
C114 C113 1.339 . S
C114 C115 1.439 . S
C114 H143 0.950 . S
C115 N111 1.383 . S
C115 C114 1.439 . S
C115 C133 1.392 . S
N116 Co100 2.282 . S
N116 C119 1.332 . S
N116 C121 1.332 . S
C117 C118 1.386 . S
C117 C120 1.388 . S
C118 C117 1.386 . S
C118 C119 1.382 . S
C118 H144 0.950 . S
C119 N116 1.332 . S
C119 C118 1.382 . S
C119 H130 0.952 . S
C120 C117 1.388 . S
C120 C121 1.382 . S
C120 H145 0.950 1_545 S
C121 N116 1.332 . S
C121 C120 1.382 . S
C121 H131 0.948 1_545 S
N122 Co100 2.282 . S
N122 C126 1.332 . S
N122 C127 1.332 . S
C123 C124 1.388 . S
C123 C127 1.382 . S
C123 H146 0.950 . S
C124 C123 1.388 . S
C124 C125 1.386 . S
C125 C124 1.386 . S
C125 C126 1.382 . S
C125 H147 0.950 1_545 S
C126 N122 1.332 . S
C126 C125 1.382 . S
C126 H128 0.970 . S
C127 N122 1.332 . S
C127 C123 1.382 . S
C127 H129 0.948 . S
H128 C126 0.970 . S
H129 C127 0.948 . S
H130 C119 0.952 . S
H131 C121 0.948 1_565 S
C132 C98 1.395 . S
C132 C102 1.391 . S
C133 C95 1.389 . S
C133 C115 1.392 . S
C134 C105 1.392 . S
C134 C107 1.389 . S
C135 C110 1.395 . S
C135 C112 1.391 . S
H136 C96 0.951 . S
H137 C97 0.950 . S
H138 C103 0.949 . S
H139 C104 0.950 . S
H140 C108 0.951 . S
H141 C109 0.950 . S
H142 C113 0.949 . S
H143 C114 0.950 . S
H144 C118 0.950 . S
H145 C120 0.950 1_565 S
H146 C123 0.950 . S
H147 C125 0.950 1_565 S
C148 C149 1.443 . S
C148 N152 1.376 . S
C148 C186 1.389 . S
C149 C148 1.443 . S
C149 C150 1.340 . S
C149 H189 0.951 . S
C150 C149 1.340 . S
C150 C151 1.439 . S
C150 H190 0.950 . S
C151 C150 1.439 . S
C151 N152 1.374 . S
C151 C185 1.395 . S
N152 C148 1.376 . S
N152 C151 1.374 . S
N152 Co153 2.008 . S
Co153 N152 2.008 . S
Co153 N154 1.995 . S
Co153 N159 2.008 . S
Co153 N164 1.995 . S
Co153 N169 2.282 . S
Co153 N175 2.282 . S
N154 Co153 1.995 . S
N154 C155 1.376 . S
N154 C158 1.383 . S
C155 N154 1.376 . S
C155 C156 1.446 . S
C155 C185 1.391 . S
C156 C155 1.446 . S
C156 C157 1.339 . S
C156 H191 0.949 . S
C157 C156 1.339 . S
C157 C158 1.439 . S
C157 H192 0.950 . S
C158 N154 1.383 . S
C158 C157 1.439 . S
C158 C187 1.392 . S
N159 Co153 2.008 . S
N159 C160 1.376 . S
N159 C163 1.374 . S
C160 N159 1.376 . S
C160 C161 1.443 . S
C160 C187 1.389 . S
C161 C160 1.443 . S
C161 C162 1.340 . S
C161 H193 0.951 . S
C162 C161 1.340 . S
C162 C163 1.439 . S
C162 H194 0.950 . S
C163 N159 1.374 . S
C163 C162 1.439 . S
C163 C188 1.395 . S
N164 Co153 1.995 . S
N164 C165 1.376 . S
N164 C168 1.383 . S
C165 N164 1.376 . S
C165 C166 1.446 . S
C165 C188 1.391 . S
C166 C165 1.446 . S
C166 C167 1.339 . S
C166 H195 0.949 . S
C167 C166 1.339 . S
C167 C168 1.439 . S
C167 H196 0.950 . S
C168 N164 1.383 . S
C168 C167 1.439 . S
C168 C186 1.392 . S
N169 Co153 2.282 . S
N169 C172 1.332 . S
N169 C174 1.332 . S
C170 C171 1.386 . S
C170 C173 1.388 . S
C171 C170 1.386 . S
C171 C172 1.382 . S
C171 H197 0.950 . S
C172 N169 1.332 . S
C172 C171 1.382 . S
C172 H183 0.952 . S
C173 C170 1.388 . S
C173 C174 1.382 . S
C173 H198 0.950 . S
C174 N169 1.332 . S
C174 C173 1.382 . S
C174 H184 0.948 . S
N175 Co153 2.282 . S
N175 C179 1.332 . S
N175 C180 1.332 . S
C176 C177 1.388 . S
C176 C180 1.382 . S
C176 H199 0.950 . S
C177 C176 1.388 . S
C177 C178 1.386 . S
C178 C177 1.386 . S
C178 C179 1.382 . S
C178 H200 0.950 . S
C179 N175 1.332 . S
C179 C178 1.382 . S
C179 H181 0.952 . S
C180 N175 1.332 . S
C180 C176 1.382 . S
C180 H182 0.948 . S
H181 C179 0.952 . S
H182 C180 0.948 . S
H183 C172 0.952 . S
H184 C174 0.948 . S
C185 C151 1.395 . S
C185 C155 1.391 . S
C186 C148 1.389 . S
C186 C168 1.392 . S
C187 C158 1.392 . S
C187 C160 1.389 . S
C188 C163 1.395 . S
C188 C165 1.391 . S
H189 C149 0.951 . S
H190 C150 0.950 . S
H191 C156 0.949 . S
H192 C157 0.950 . S
H193 C161 0.951 . S
H194 C162 0.950 . S
H195 C166 0.949 . S
H196 C167 0.950 . S
H197 C171 0.950 . S
H198 C173 0.950 . S
H199 C176 0.950 . S
H200 C178 0.950 . S
H201 C207 0.930 . S
H202 C210 0.930 . S
H203 C211 0.930 . S
H204 C212 0.930 1_655 S
H205 C215 0.930 . S
H206 C216 0.930 . S
C207 H201 0.930 . S
C207 C208 1.355 . S
C207 C209 1.415 . S
C208 C207 1.355 . S
C208 C210 1.419 1_455 S
C209 C207 1.415 . S
C209 C214 1.425 . S
C209 C216 1.409 . S
C210 H202 0.930 . S
C210 C208 1.419 1_655 S
C210 C211 1.362 . S
C211 H203 0.930 . S
C211 C210 1.362 . S
C211 C214 1.409 1_655 S
C212 H204 0.930 1_455 S
C212 C213 1.355 . S
C212 C214 1.415 . S
C213 C212 1.355 . S
C213 C215 1.419 . S
C214 C209 1.425 . S
C214 C211 1.409 1_455 S
C214 C212 1.415 . S
C215 H205 0.930 . S
C215 C213 1.419 . S
C215 C216 1.362 . S
C216 H206 0.930 . S
C216 C209 1.409 . S
C216 C215 1.362 . S
H217 C223 0.930 . S
H218 C226 0.930 . S
H219 C227 0.930 . S
H220 C228 0.930 . S
H221 C231 0.930 . S
H222 C232 0.930 . S
C223 H217 0.930 . S
C223 C224 1.355 . S
C223 C225 1.415 . S
C224 C223 1.355 . S
C224 C226 1.419 . S
C225 C223 1.415 . S
C225 C230 1.425 . S
C225 C232 1.409 . S
C226 H218 0.930 . S
C226 C224 1.419 . S
C226 C227 1.362 . S
C227 H219 0.930 . S
C227 C226 1.362 . S
C227 C230 1.409 . S
C228 H220 0.930 . S
C228 C229 1.355 . S
C228 C230 1.415 . S
C229 C228 1.355 . S
C229 C231 1.419 . S
C230 C225 1.425 . S
C230 C227 1.409 . S
C230 C228 1.415 . S
C231 H221 0.930 . S
C231 C229 1.419 . S
C231 C232 1.362 . S
C232 H222 0.930 . S
C232 C225 1.409 . S
C232 C231 1.362 . S
H233 C239 0.930 . S
H234 C242 0.930 . S
H235 C243 0.930 . S
H236 C244 0.930 . S
H237 C247 0.930 . S
H238 C248 0.930 . S
C239 H233 0.930 . S
C239 C240 1.355 . S
C239 C241 1.415 . S
C240 C239 1.355 . S
C240 C242 1.419 . S
C241 C239 1.415 . S
C241 C246 1.425 . S
C241 C248 1.409 . S
C242 H234 0.930 . S
C242 C240 1.419 . S
C242 C243 1.362 . S
C243 H235 0.930 . S
C243 C242 1.362 . S
C243 C246 1.409 . S
C244 H236 0.930 . S
C244 C245 1.355 . S
C244 C246 1.415 . S
C245 C244 1.355 . S
C245 C247 1.419 . S
C246 C241 1.425 . S
C246 C243 1.409 . S
C246 C244 1.415 . S
C247 H237 0.930 . S
C247 C245 1.419 . S
C247 C248 1.362 . S
C248 H238 0.930 . S
C248 C241 1.409 . S
C248 C247 1.362 . S
H249 C255 0.930 1_655 S
H250 C258 0.930 . S
H251 C259 0.930 . S
H252 C260 0.930 . S
H253 C263 0.930 1_655 S
H254 C264 0.930 . S
C255 H249 0.930 1_455 S
C255 C256 1.355 . S
C255 C257 1.415 . S
C256 C255 1.355 . S
C256 C258 1.419 . S
C257 C255 1.415 . S
C257 C262 1.425 . S
C257 C264 1.409 1_455 S
C258 H250 0.930 . S
C258 C256 1.419 . S
C258 C259 1.362 . S
C259 H251 0.930 . S
C259 C258 1.362 . S
C259 C262 1.409 . S
C260 H252 0.930 . S
C260 C261 1.355 . S
C260 C262 1.415 . S
C261 C260 1.355 . S
C261 C263 1.419 . S
C262 C257 1.425 . S
C262 C259 1.409 . S
C262 C260 1.415 . S
C263 H253 0.930 1_455 S
C263 C261 1.419 . S
C263 C264 1.362 1_455 S
C264 H254 0.930 . S
C264 C257 1.409 1_655 S
C264 C263 1.362 1_655 S
H265 C271 0.930 . S
H266 C274 0.930 . S
H267 C275 0.930 . S
H268 C276 0.930 . S
H269 C279 0.930 . S
H270 C280 0.930 1_565 S
C271 H265 0.930 . S
C271 C272 1.355 . S
C271 C273 1.415 . S
C272 C271 1.355 . S
C272 C274 1.419 . S
C273 C271 1.415 . S
C273 C278 1.425 . S
C273 C280 1.409 . S
C274 H266 0.930 . S
C274 C272 1.419 . S
C274 C275 1.362 . S
C275 H267 0.930 . S
C275 C274 1.362 . S
C275 C278 1.409 . S
C276 H268 0.930 . S
C276 C277 1.355 . S
C276 C278 1.415 . S
C277 C276 1.355 . S
C277 C279 1.419 . S
C278 C273 1.425 . S
C278 C275 1.409 . S
C278 C276 1.415 . S
C279 H269 0.930 . S
C279 C277 1.419 . S
C279 C280 1.362 . S
C280 H270 0.930 1_545 S
C280 C273 1.409 . S
C280 C279 1.362 . S
H281 C287 0.930 . S
H282 C290 0.930 . S
H283 C291 0.930 . S
H284 C292 0.930 . S
H285 C295 0.930 . S
H286 C296 0.930 . S
C287 H281 0.930 . S
C287 C288 1.355 . S
C287 C289 1.415 . S
C288 C287 1.355 . S
C288 C290 1.419 . S
C289 C287 1.415 . S
C289 C294 1.425 . S
C289 C296 1.409 . S
C290 H282 0.930 . S
C290 C288 1.419 . S
C290 C291 1.362 . S
C291 H283 0.930 . S
C291 C290 1.362 . S
C291 C294 1.409 . S
C292 H284 0.930 . S
C292 C293 1.355 . S
C292 C294 1.415 . S
C293 C292 1.355 . S
C293 C295 1.419 . S
C294 C289 1.425 . S
C294 C291 1.409 . S
C294 C292 1.415 . S
C295 H285 0.930 . S
C295 C293 1.419 . S
C295 C296 1.362 . S
C296 H286 0.930 . S
C296 C289 1.409 . S
C296 C295 1.362 . S
H297 C303 0.930 1_565 S
H298 C306 0.930 1_455 S
H299 C307 0.930 . S
H300 C308 0.930 . S
H301 C311 0.930 1_565 S
H302 C312 0.930 . S
C303 H297 0.930 1_545 S
C303 C304 1.355 . S
C303 C305 1.415 . S
C304 C303 1.355 . S
C304 C306 1.419 . S
C305 C303 1.415 . S
C305 C310 1.425 . S
C305 C312 1.409 1_545 S
C306 H298 0.930 1_655 S
C306 C304 1.419 . S
C306 C307 1.362 . S
C307 H299 0.930 . S
C307 C306 1.362 . S
C307 C310 1.409 . S
C308 H300 0.930 . S
C308 C309 1.355 . S
C308 C310 1.415 . S
C309 C308 1.355 . S
C309 C311 1.419 . S
C310 C305 1.425 . S
C310 C307 1.409 . S
C310 C308 1.415 . S
C311 H301 0.930 1_545 S
C311 C309 1.419 . S
C311 C312 1.362 1_545 S
C312 H302 0.930 . S
C312 C305 1.409 1_565 S
C312 C311 1.362 1_565 S
H313 C319 0.930 1_455 S
H314 C322 0.930 . S
H315 C323 0.930 1_554 S
H316 C324 0.930 . S
H317 C327 0.930 . S
H318 C328 0.930 . S
C319 H313 0.930 1_655 S
C319 C320 1.355 . S
C319 C321 1.415 . S
C320 C319 1.355 . S
C320 C322 1.419 1_556 S
C321 C319 1.415 . S
C321 C326 1.425 . S
C321 C328 1.409 . S
C322 H314 0.930 . S
C322 C320 1.419 1_554 S
C322 C323 1.362 1_554 S
C323 H315 0.930 1_556 S
C323 C322 1.362 1_556 S
C323 C326 1.409 . S
C324 H316 0.930 . S
C324 C325 1.355 . S
C324 C326 1.415 . S
C325 C324 1.355 . S
C325 C327 1.419 . S
C326 C321 1.425 . S
C326 C323 1.409 . S
C326 C324 1.415 . S
C327 H317 0.930 . S
C327 C325 1.419 . S
C327 C328 1.362 . S
C328 H318 0.930 . S
C328 C321 1.409 . S
C328 C327 1.362 . S
H329 C335 0.930 . S
H330 C338 0.930 . S
H331 C339 0.930 . S
H332 C340 0.930 . S
H333 C343 0.930 . S
H334 C344 0.930 . S
C335 H329 0.930 . S
C335 C336 1.355 . S
C335 C337 1.415 . S
C336 C335 1.355 . S
C336 C338 1.419 . S
C337 C335 1.415 . S
C337 C342 1.425 . S
C337 C344 1.409 . S
C338 H330 0.930 . S
C338 C336 1.419 . S
C338 C339 1.362 . S
C339 H331 0.930 . S
C339 C338 1.362 . S
C339 C342 1.409 . S
C340 H332 0.930 . S
C340 C341 1.355 . S
C340 C342 1.415 . S
C341 C340 1.355 . S
C341 C343 1.419 . S
C342 C337 1.425 . S
C342 C339 1.409 . S
C342 C340 1.415 . S
C343 H333 0.930 . S
C343 C341 1.419 . S
C343 C344 1.362 . S
C344 H334 0.930 . S
C344 C337 1.409 . S
C344 C343 1.362 . S
H345 C351 0.930 . S
H346 C354 0.930 . S
H347 C355 0.930 . S
H348 C356 0.930 . S
H349 C359 0.930 . S
H350 C360 0.930 . S
C351 H345 0.930 . S
C351 C352 1.355 . S
C351 C353 1.415 . S
C352 C351 1.355 . S
C352 C354 1.419 . S
C353 C351 1.415 . S
C353 C358 1.425 . S
C353 C360 1.409 . S
C354 H346 0.930 . S
C354 C352 1.419 . S
C354 C355 1.362 . S
C355 H347 0.930 . S
C355 C354 1.362 . S
C355 C358 1.409 . S
C356 H348 0.930 . S
C356 C357 1.355 . S
C356 C358 1.415 . S
C357 C356 1.355 . S
C357 C359 1.419 . S
C358 C353 1.425 . S
C358 C355 1.409 . S
C358 C356 1.415 . S
C359 H349 0.930 . S
C359 C357 1.419 . S
C359 C360 1.362 . S
C360 H350 0.930 . S
C360 C353 1.409 . S
C360 C359 1.362 . S
H361 C367 0.930 1_554 S
H362 C370 0.930 . S
H363 C371 0.930 . S
H364 C372 0.930 . S
H365 C375 0.930 . S
H366 C376 0.930 . S
C367 H361 0.930 1_556 S
C367 C368 1.355 . S
C367 C369 1.415 . S
C368 C367 1.355 . S
C368 C370 1.419 . S
C369 C367 1.415 . S
C369 C374 1.425 . S
C369 C376 1.409 . S
C370 H362 0.930 . S
C370 C368 1.419 . S
C370 C371 1.362 . S
C371 H363 0.930 . S
C371 C370 1.362 . S
C371 C374 1.409 . S
C372 H364 0.930 . S
C372 C373 1.355 . S
C372 C374 1.415 . S
C373 C372 1.355 . S
C373 C375 1.419 . S
C374 C369 1.425 . S
C374 C371 1.409 . S
C374 C372 1.415 . S
C375 H365 0.930 . S
C375 C373 1.419 . S
C375 C376 1.362 . S
C376 H366 0.930 . S
C376 C369 1.409 . S
C376 C375 1.362 . S
H377 C383 0.930 . S
H378 C386 0.930 . S
H379 C387 0.930 . S
H380 C388 0.930 . S
H381 C391 0.930 . S
H382 C392 0.930 1_655 S
C383 H377 0.930 . S
C383 C384 1.355 . S
C383 C385 1.415 . S
C384 C383 1.355 . S
C384 C386 1.419 . S
C385 C383 1.415 . S
C385 C390 1.425 . S
C385 C392 1.409 . S
C386 H378 0.930 . S
C386 C384 1.419 . S
C386 C387 1.362 . S
C387 H379 0.930 . S
C387 C386 1.362 . S
C387 C390 1.409 . S
C388 H380 0.930 . S
C388 C389 1.355 . S
C388 C390 1.415 . S
C389 C388 1.355 . S
C389 C391 1.419 . S
C390 C385 1.425 . S
C390 C387 1.409 . S
C390 C388 1.415 . S
C391 H381 0.930 . S
C391 C389 1.419 . S
C391 C392 1.362 . S
C392 H382 0.930 1_455 S
C392 C385 1.409 . S
C392 C391 1.362 . S
C213 C64 1.473 . S
C208 C6 1.446 . S
C224 C22 1.565 . S
C229 C134 1.581 . S
C240 C34 1.273 . S
C245 C186 1.279 . S
C256 C7 1.467 . S
C261 C80 1.475 . S
C277 C124 1.574 . S
C272 C23 1.577 . S
C288 C35 1.283 . S
C293 C170 1.288 . S
C309 C117 1.573 . S
C304 C36 1.584 . S
C320 C9 1.742 1_656 S
C325 C177 1.780 . S
C341 C71 1.481 . S
C336 C21 1.434 . S
C357 C133 1.581 . S
C352 C37 1.571 . S
C373 C187 1.806 . S
C368 C8 1.784 1_556 S
C384 C20 1.469 . S
C389 C81 1.469 . S
