# Generated by pormake.
# Topology wbl, (4,4)-cn, num edge types: 1
# Building blocks:
#     Node 0, Type 0, BuildingBlock: MUDLON_clean_sbu_0, # of connection points: 4
#     Node 1, Type 0, BuildingBlock: MUDLON_clean_sbu_0, # of connection points: 4
#     Node 2, Type 0, BuildingBlock: MUDLON_clean_sbu_0, # of connection points: 4
#     Node 3, Type 0, BuildingBlock: MUDLON_clean_sbu_0, # of connection points: 4
#     Node 4, Type 0, BuildingBlock: MUDLON_clean_sbu_0, # of connection points: 4
#     Node 5, Type 0, BuildingBlock: MUDLON_clean_sbu_0, # of connection points: 4
#     Node 6, Type 0, BuildingBlock: MUDLON_clean_sbu_0, # of connection points: 4
#     Node 7, Type 0, BuildingBlock: MUDLON_clean_sbu_0, # of connection points: 4
#     Node 8, Type 1, BuildingBlock: NAHDIM_clean_sbu_0, # of connection points: 4
#     Node 9, Type 1, BuildingBlock: NAHDIM_clean_sbu_0, # of connection points: 4
#     Node 10, Type 1, BuildingBlock: NAHDIM_clean_sbu_0, # of connection points: 4
#     Node 11, Type 1, BuildingBlock: NAHDIM_clean_sbu_0, # of connection points: 4
#     Node 12, Type 1, BuildingBlock: NAHDIM_clean_sbu_0, # of connection points: 4
#     Node 13, Type 1, BuildingBlock: NAHDIM_clean_sbu_0, # of connection points: 4
#     Node 14, Type 1, BuildingBlock: NAHDIM_clean_sbu_0, # of connection points: 4
#     Node 15, Type 1, BuildingBlock: NAHDIM_clean_sbu_0, # of connection points: 4
#     Edge 16, Type (0, 1), BuildingBlock: TEMPAE_clean_linker_10, # of connection points: 2
#     Edge 17, Type (0, 1), BuildingBlock: TEMPAE_clean_linker_10, # of connection points: 2
#     Edge 18, Type (0, 1), BuildingBlock: TEMPAE_clean_linker_10, # of connection points: 2
#     Edge 19, Type (0, 1), BuildingBlock: TEMPAE_clean_linker_10, # of connection points: 2
#     Edge 20, Type (0, 1), BuildingBlock: TEMPAE_clean_linker_10, # of connection points: 2
#     Edge 21, Type (0, 1), BuildingBlock: TEMPAE_clean_linker_10, # of connection points: 2
#     Edge 22, Type (0, 1), BuildingBlock: TEMPAE_clean_linker_10, # of connection points: 2
#     Edge 23, Type (0, 1), BuildingBlock: TEMPAE_clean_linker_10, # of connection points: 2
#     Edge 24, Type (0, 1), BuildingBlock: TEMPAE_clean_linker_10, # of connection points: 2
#     Edge 25, Type (0, 1), BuildingBlock: TEMPAE_clean_linker_10, # of connection points: 2
#     Edge 26, Type (0, 1), BuildingBlock: TEMPAE_clean_linker_10, # of connection points: 2
#     Edge 27, Type (0, 1), BuildingBlock: TEMPAE_clean_linker_10, # of connection points: 2
#     Edge 28, Type (0, 1), BuildingBlock: TEMPAE_clean_linker_10, # of connection points: 2
#     Edge 29, Type (0, 1), BuildingBlock: TEMPAE_clean_linker_10, # of connection points: 2
#     Edge 30, Type (0, 1), BuildingBlock: TEMPAE_clean_linker_10, # of connection points: 2
#     Edge 31, Type (0, 1), BuildingBlock: TEMPAE_clean_linker_10, # of connection points: 2
#     Edge 32, Type (0, 1), BuildingBlock: TEMPAE_clean_linker_10, # of connection points: 2
#     Edge 33, Type (0, 1), BuildingBlock: TEMPAE_clean_linker_10, # of connection points: 2
#     Edge 34, Type (0, 1), BuildingBlock: TEMPAE_clean_linker_10, # of connection points: 2
#     Edge 35, Type (0, 1), BuildingBlock: TEMPAE_clean_linker_10, # of connection points: 2
#     Edge 36, Type (0, 1), BuildingBlock: TEMPAE_clean_linker_10, # of connection points: 2
#     Edge 37, Type (0, 1), BuildingBlock: TEMPAE_clean_linker_10, # of connection points: 2
#     Edge 38, Type (0, 1), BuildingBlock: TEMPAE_clean_linker_10, # of connection points: 2
#     Edge 39, Type (0, 1), BuildingBlock: TEMPAE_clean_linker_10, # of connection points: 2
#     Edge 40, Type (0, 1), BuildingBlock: TEMPAE_clean_linker_10, # of connection points: 2
#     Edge 41, Type (0, 1), BuildingBlock: TEMPAE_clean_linker_10, # of connection points: 2
#     Edge 42, Type (0, 1), BuildingBlock: TEMPAE_clean_linker_10, # of connection points: 2
#     Edge 43, Type (0, 1), BuildingBlock: TEMPAE_clean_linker_10, # of connection points: 2
#     Edge 44, Type (0, 1), BuildingBlock: TEMPAE_clean_linker_10, # of connection points: 2
#     Edge 45, Type (0, 1), BuildingBlock: TEMPAE_clean_linker_10, # of connection points: 2
#     Edge 46, Type (0, 1), BuildingBlock: TEMPAE_clean_linker_10, # of connection points: 2
#     Edge 47, Type (0, 1), BuildingBlock: TEMPAE_clean_linker_10, # of connection points: 2
# Relax obj value: 0.234
# Max RMSD: 0.229
# Mean RMSD: 0.181
data_MOF--net-wbl--node1-MUDLON_clean_sbu_0--node2-NAHDIM_clean_sbu_0--edge1-TEMPAE_clean_linker_10
_symmetry_space_group_name_H-M    P1
_symmetry_Int_Tables_number       1
_symmetry_cell_setting            triclinic
loop_
_symmetry_equiv_pos_as_xyz
'x, y, z'
_cell_length_a     36.756072
_cell_length_b     35.354335
_cell_length_c     75.913685
_cell_angle_alpha  89.983739
_cell_angle_beta   90.028508
_cell_angle_gamma 90.06811
loop_
_atom_site_label
_atom_site_type_symbol
_atom_site_fract_x
_atom_site_fract_y
_atom_site_fract_z
_atom_type_partial_charge
Mg0 Mg 0.98439 0.97311 0.32475 0.0
C1 C 0.9641 0.92806 0.35638 0.0
O2 O 0.93511 0.94944 0.3547 0.0
C3 C 0.92672 0.98595 0.29657 0.0
O4 O 0.95441 0.00017 0.28785 0.0
C5 C 0.03757 0.93631 0.30054 0.0
O6 O 0.01543 0.90796 0.3038 0.0
O7 O 0.03061 0.96847 0.30721 0.0
O8 O 0.98819 0.929 0.34438 0.0
O9 O 0.98692 0.02292 0.34139 0.0
C10 C 0.95677 0.0362 0.34675 0.0
O11 O 0.92658 0.02396 0.33943 0.0
O12 O 0.9321 0.97141 0.31165 0.0
Mg13 Mg 0.00635 0.51572 0.59328 0.0
C14 C 0.04759 0.48779 0.62478 0.0
O15 O 0.01785 0.46745 0.62637 0.0
C16 C 0.00539 0.43602 0.5782 0.0
O17 O 0.02128 0.42848 0.59329 0.0
C18 C 0.04834 0.57526 0.57476 0.0
O19 O 0.07294 0.54876 0.57703 0.0
O20 O 0.01602 0.56911 0.58002 0.0
O21 O 0.05215 0.50726 0.61085 0.0
O22 O 0.96222 0.5192 0.61213 0.0
C23 C 0.94093 0.49123 0.61423 0.0
O24 O 0.94091 0.4642 0.60236 0.0
O25 O 0.99724 0.47008 0.57458 0.0
Mg26 Mg 0.50235 0.49396 0.8432 0.0
C27 C 0.43528 0.48843 0.86547 0.0
O28 O 0.42426 0.51315 0.8537 0.0
C29 C 0.54347 0.45275 0.81488 0.0
O30 O 0.52666 0.47796 0.80512 0.0
C31 C 0.47369 0.56047 0.82095 0.0
O32 O 0.49629 0.58106 0.83033 0.0
O33 O 0.47196 0.52503 0.82359 0.0
O34 O 0.46561 0.47196 0.86308 0.0
O35 O 0.5393 0.52696 0.8592 0.0
C36 C 0.52635 0.54317 0.87276 0.0
O37 O 0.49136 0.55065 0.8731 0.0
O38 O 0.53627 0.45114 0.83123 0.0
Mg39 Mg 0.48396 0.00585 0.06778 0.0
C40 C 0.52617 0.97537 0.09853 0.0
O41 O 0.50018 0.94988 0.09786 0.0
C42 C 0.4961 0.92833 0.05124 0.0
O43 O 0.52581 0.92968 0.06085 0.0
C44 C 0.51116 0.06088 0.03983 0.0
O45 O 0.52445 0.02978 0.03289 0.0
O46 O 0.49214 0.05864 0.05377 0.0
O47 O 0.52857 -0.00031 0.08623 0.0
O48 O 0.43971 0.01061 0.08639 0.0
C49 C 0.42119 0.98137 0.0902 0.0
O50 O 0.42395 0.95146 0.08002 0.0
O51 O 0.47502 0.95681 0.05102 0.0
Mg52 Mg 0.02503 0.49326 0.92649 0.0
C53 C 0.05271 0.56292 0.9084 0.0
O54 O 0.08031 0.55593 0.9189 0.0
C55 C 0.94645 0.47588 0.93241 0.0
O56 O 0.9483 0.46998 0.91534 0.0
C57 C 0.06323 0.5209 0.95798 0.0
O58 O 0.03192 0.53873 0.95876 0.0
O59 O 0.06869 0.49783 0.94542 0.0
O60 O 0.02419 0.54282 0.90978 0.0
O61 O 0.02864 0.44651 0.90816 0.0
C62 C 0.0453 0.4517 0.89368 0.0
O63 O 0.06511 0.48238 0.89178 0.0
O64 O 0.97465 0.487 0.94056 0.0
Mg65 Mg 0.51354 0.48726 0.19034 0.0
C66 C 0.44523 0.4951 0.16866 0.0
O67 O 0.44301 0.52677 0.17763 0.0
C68 C 0.50604 0.41575 0.21195 0.0
O69 O 0.47403 0.41524 0.20424 0.0
C70 C 0.48311 0.54672 0.21518 0.0
O71 O 0.46975 0.51684 0.2232 0.0
O72 O 0.50308 0.54224 0.2017 0.0
O73 O 0.46968 0.4713 0.17276 0.0
O74 O 0.55716 0.49089 0.17145 0.0
C75 C 0.56863 0.4592 0.16588 0.0
O76 O 0.55744 0.42828 0.17382 0.0
O77 O 0.5272 0.44356 0.2092 0.0
Mg78 Mg 0.49488 0.03047 0.42721 0.0
C79 C 0.50396 0.09547 0.40367 0.0
O80 O 0.53748 0.09091 0.40928 0.0
C81 C 0.42369 0.0286 0.44725 0.0
O82 O 0.41914 0.06096 0.43903 0.0
C83 C 0.54806 0.06998 0.45028 0.0
O84 O 0.51908 0.09135 0.45215 0.0
O85 O 0.54607 0.04095 0.44045 0.0
O86 O 0.47847 0.07931 0.41209 0.0
O87 O 0.49763 0.9911 0.40537 0.0
C88 C 0.46689 0.99038 0.39765 0.0
O89 O 0.43963 0.00854 0.40497 0.0
O90 O 0.45327 0.01063 0.44516 0.0
Mg91 Mg 0.99565 0.99251 0.664 0.0
C92 C 0.04499 0.04276 0.64212 0.0
O93 O 0.01922 0.06795 0.64445 0.0
C94 C 0.9891 0.06135 0.68735 0.0
O95 O 0.02424 0.06305 0.68428 0.0
C96 C 0.04104 0.94498 0.68672 0.0
O97 O 0.05798 0.97773 0.68695 0.0
O98 O 0.01139 0.94219 0.6782 0.0
O99 O 0.04463 0.01284 0.65141 0.0
O100 O 0.96188 0.98193 0.64098 0.0
C101 C 0.94763 0.01172 0.63468 0.0
O102 O 0.94863 0.04287 0.64409 0.0
O103 O 0.97073 0.03428 0.68089 0.0
C104 C 0.28503 0.59537 0.0258 0.0
O105 O 0.29365 0.58568 0.04197 0.0
O106 O 0.37869 0.57422 0.03996 0.0
Zn107 Zn 0.36408 0.60367 0.01826 0.0
O108 O 0.3835 0.58009 0.99592 0.0
C109 C 0.40255 0.67495 0.01051 0.0
O110 O 0.41166 0.65866 0.99561 0.0
O111 O 0.30985 0.60485 0.01503 0.0
C112 C 0.36622 0.55229 0.98928 0.0
O113 O 0.3383 0.53818 0.99786 0.0
C114 C 0.36707 0.54211 0.04505 0.0
O115 O 0.34332 0.5237 0.03536 0.0
O116 O 0.3827 0.65706 0.02142 0.0
C117 C 0.2834 0.88934 0.24585 0.0
O118 O 0.29 0.89424 0.22899 0.0
O119 O 0.36664 0.90789 0.22526 0.0
Zn120 Zn 0.36173 0.87864 0.24793 0.0
O121 O 0.39305 0.90044 0.26728 0.0
C122 C 0.40793 0.81247 0.24651 0.0
O123 O 0.43241 0.83642 0.2524 0.0
O124 O 0.30963 0.88163 0.25617 0.0
C125 C 0.39435 0.8815 0.28151 0.0
O126 O 0.37603 0.84962 0.2825 0.0
C127 C 0.39534 0.90644 0.21597 0.0
O128 O 0.42336 0.8871 0.22181 0.0
O129 O 0.37573 0.82408 0.24357 0.0
C130 C 0.2022 0.91136 0.50276 0.0
O131 O 0.19321 0.91722 0.51929 0.0
O132 O 0.11595 0.92923 0.51843 0.0
Zn133 Zn 0.12691 0.88982 0.50017 0.0
O134 O 0.09425 0.89696 0.47917 0.0
C135 C 0.12302 0.83009 0.52654 0.0
O136 O 0.13384 0.85686 0.53735 0.0
O137 O 0.17855 0.8979 0.49225 0.0
C138 C 0.06964 0.87346 0.47478 0.0
O139 O 0.06412 0.84335 0.48456 0.0
C140 C 0.08626 0.93041 0.52692 0.0
O141 O 0.0607 0.90554 0.52336 0.0
O142 O 0.11947 0.83759 0.51026 0.0
C143 C 0.25334 0.65309 0.75815 0.0
O144 O 0.24949 0.65769 0.74108 0.0
O145 O 0.16386 0.61243 0.74106 0.0
Zn146 Zn 0.17304 0.65068 0.76018 0.0
O147 O 0.14338 0.63697 0.78147 0.0
C148 C 0.16206 0.71178 0.73555 0.0
O149 O 0.17881 0.68876 0.72466 0.0
O150 O 0.22526 0.6502 0.76782 0.0
C151 C 0.12862 0.66189 0.79119 0.0
O152 O 0.13154 0.69774 0.78686 0.0
C153 C 0.13177 0.61161 0.73484 0.0
O154 O 0.10723 0.63451 0.7415 0.0
O155 O 0.15774 0.70189 0.75149 0.0
C156 C 0.79303 0.14176 0.49974 0.0
O157 O 0.8031 0.13172 0.51568 0.0
O158 O 0.87904 0.11655 0.51399 0.0
Zn159 Zn 0.87011 0.15567 0.49516 0.0
O160 O 0.89746 0.14573 0.47257 0.0
C161 C 0.91762 0.21676 0.50457 0.0
O162 O 0.94135 0.19496 0.49658 0.0
O163 O 0.81679 0.15436 0.48907 0.0
C164 C 0.92563 0.12546 0.47038 0.0
O165 O 0.9408 0.10869 0.48396 0.0
C166 C 0.88235 0.0809 0.51261 0.0
O167 O 0.8818 0.06462 0.49707 0.0
O168 O 0.88452 0.20633 0.50526 0.0
C169 C 0.79437 0.38482 0.77618 0.0
O170 O 0.81746 0.41304 0.77773 0.0
O171 O 0.86603 0.38705 0.74239 0.0
Zn172 Zn 0.85819 0.35143 0.76276 0.0
O173 O 0.88996 0.36674 0.78323 0.0
C174 C 0.86448 0.28827 0.73933 0.0
O175 O 0.847 0.31127 0.72869 0.0
O176 O 0.80565 0.35365 0.76993 0.0
C177 C 0.91953 0.34982 0.78693 0.0
O178 O 0.93016 0.32141 0.77704 0.0
C179 C 0.89654 0.38754 0.73454 0.0
O180 O 0.92286 0.36581 0.74042 0.0
O181 O 0.87125 0.29891 0.75497 0.0
C182 C 0.71448 0.41912 0.99779 0.0
O183 O 0.69268 0.44707 0.0021 0.0
O184 O 0.64868 0.40395 0.03237 0.0
Zn185 Zn 0.65184 0.38231 0.00806 0.0
O186 O 0.62433 0.41509 0.99106 0.0
C187 C 0.60129 0.31906 0.00446 0.0
O188 O 0.57881 0.34521 0.99876 0.0
O189 O 0.70351 0.38533 -4e-05 0.0
C190 C 0.62318 0.40502 0.97502 0.0
O191 O 0.63634 0.3719 0.97047 0.0
C192 C 0.61771 0.41108 0.03895 0.0
O193 O 0.58843 0.40472 0.02946 0.0
O194 O 0.63361 0.32835 0.00864 0.0
C195 C 0.66897 0.04041 0.25895 0.0
O196 O 0.64589 0.01309 0.25532 0.0
O197 O 0.59125 0.05614 0.23036 0.0
Zn198 Zn 0.60596 0.08587 0.25195 0.0
O199 O 0.57435 0.07425 0.27303 0.0
C200 C 0.59809 0.16685 0.25763 0.0
O201 O 0.60148 0.15775 0.27433 0.0
O202 O 0.65806 0.0745 0.25838 0.0
C203 C 0.54369 0.09011 0.27541 0.0
O204 O 0.5305 0.11215 0.26302 0.0
C205 C 0.61458 0.05039 0.21828 0.0
O206 O 0.64801 0.06274 0.22044 0.0
O207 O 0.60035 0.14109 0.24599 0.0
C208 C 0.09717 0.95929 0.28857 0.0
C209 C 0.07175 0.92997 0.29061 0.0
C210 C 0.13089 0.95279 0.28044 0.0
C211 C 0.13937 0.91614 0.27417 0.0
C212 C 0.11341 0.88672 0.2757 0.0
C213 C 0.07993 0.89399 0.28391 0.0
C214 C 0.15785 0.98491 0.27901 0.0
C215 C 0.1214 0.8473 0.26911 0.0
C216 C 0.21762 0.90582 0.2418 0.0
C217 C 0.24619 0.89477 0.25293 0.0
C218 C 0.18261 0.9126 0.24849 0.0
C219 C 0.17602 0.90818 0.26674 0.0
C220 C 0.2046 0.89655 0.27801 0.0
C221 C 0.23932 0.89 0.27098 0.0
C222 C 0.15279 0.92493 0.23607 0.0
C223 C 0.19861 0.89143 0.29755 0.0
H224 H 0.09108 0.9872 0.29368 0.0
H225 H 0.06042 0.87118 0.28536 0.0
H226 H 0.18246 0.9783 0.2869 0.0
H227 H 0.16669 0.98845 0.26514 0.0
H228 H 0.14641 0.01216 0.28373 0.0
H229 H 0.0976 0.82811 0.27043 0.0
H230 H 0.12967 0.84822 0.25507 0.0
H231 H 0.14447 0.83512 0.27664 0.0
H232 H 0.22266 0.90959 0.22784 0.0
H233 H 0.26119 0.88143 0.27969 0.0
H234 H 0.14265 0.95326 0.23996 0.0
H235 H 0.12946 0.90507 0.23689 0.0
H236 H 0.16216 0.92627 0.22217 0.0
H237 H 0.18978 0.91856 0.3035 0.0
H238 H 0.22353 0.88165 0.30446 0.0
H239 H 0.17658 0.87053 0.29987 0.0
C240 C 0.03324 0.64145 0.56535 0.0
C241 C 0.05877 0.61219 0.56699 0.0
C242 C 0.04335 0.67694 0.5586 0.0
C243 C 0.07983 0.68328 0.55336 0.0
C244 C 0.10561 0.65375 0.55481 0.0
C245 C 0.09477 0.61859 0.5616 0.0
C246 C 0.01509 0.70777 0.55722 0.0
C247 C 0.14474 0.6594 0.54933 0.0
C248 C 0.10014 0.7641 0.52185 0.0
C249 C 0.11292 0.79222 0.53336 0.0
C250 C 0.08925 0.72855 0.52818 0.0
C251 C 0.09116 0.72089 0.54646 0.0
C252 C 0.10419 0.74904 0.55814 0.0
C253 C 0.11493 0.78436 0.55145 0.0
C254 C 0.07557 0.69922 0.51532 0.0
C255 C 0.10666 0.74189 0.57772 0.0
H256 H 0.00538 0.63677 0.56949 0.0
H257 H 0.1147 0.59618 0.56281 0.0
H258 H 0.02338 0.73239 0.56535 0.0
H259 H 0.013 0.71772 0.5434 0.0
H260 H 0.98779 0.69815 0.56164 0.0
H261 H 0.16131 0.63341 0.55109 0.0
H262 H 0.14605 0.66805 0.5353 0.0
H263 H 0.15716 0.68249 0.5572 0.0
H264 H 0.09841 0.76991 0.50786 0.0
H265 H 0.12468 0.80592 0.56045 0.0
H266 H 0.04738 0.69078 0.51879 0.0
H267 H 0.09267 0.67343 0.5161 0.0
H268 H 0.07576 0.70964 0.50151 0.0
H269 H 0.07938 0.73471 0.58301 0.0
H270 H 0.11737 0.76675 0.58503 0.0
H271 H 0.12465 0.71734 0.58031 0.0
C272 C 0.44497 0.61784 0.80728 0.0
C273 C 0.44744 0.57836 0.80871 0.0
C274 C 0.41705 0.63474 0.79736 0.0
C275 C 0.391 0.61156 0.78884 0.0
C276 C 0.39469 0.57175 0.78941 0.0
C277 C 0.4229 0.55567 0.79927 0.0
C278 C 0.41431 0.67731 0.79682 0.0
C279 C 0.36752 0.54597 0.78049 0.0
C280 C 0.2929 0.64183 0.78433 0.0
C281 C 0.28977 0.64758 0.7661 0.0
C282 C 0.32624 0.63208 0.79199 0.0
C283 C 0.35739 0.62819 0.7812 0.0
C284 C 0.355 0.63621 0.76296 0.0
C285 C 0.32111 0.64571 0.75559 0.0
C286 C 0.32759 0.62381 0.81151 0.0
C287 C 0.38778 0.6329 0.7511 0.0
H288 H 0.46401 0.63559 0.8144 0.0
H289 H 0.42482 0.52513 0.80011 0.0
H290 H 0.40861 0.68721 0.78322 0.0
H291 H 0.39136 0.68664 0.80525 0.0
H292 H 0.43958 0.69117 0.80161 0.0
H293 H 0.376 0.51583 0.78092 0.0
H294 H 0.34071 0.54856 0.7871 0.0
H295 H 0.36377 0.55434 0.76653 0.0
H296 H 0.26895 0.64363 0.79261 0.0
H297 H 0.31901 0.65043 0.74152 0.0
H298 H 0.34994 0.63997 0.81783 0.0
H299 H 0.33325 0.5933 0.81361 0.0
H300 H 0.30167 0.63093 0.81826 0.0
H301 H 0.41177 0.64684 0.75716 0.0
H302 H 0.38283 0.64564 0.73794 0.0
H303 H 0.39466 0.60262 0.74926 0.0
C304 C 0.45253 0.89068 0.03282 0.0
C305 C 0.48496 0.89254 0.04256 0.0
C306 C 0.43966 0.85612 0.02614 0.0
C307 C 0.4596 0.82258 0.02932 0.0
C308 C 0.49306 0.82448 0.03854 0.0
C309 C 0.50537 0.85944 0.04501 0.0
C310 C 0.404 0.85531 0.01626 0.0
C311 C 0.51512 0.78935 0.04221 0.0
C312 C 0.40791 0.72961 0.03132 0.0
C313 C 0.41634 0.71325 0.01498 0.0
C314 C 0.42161 0.76524 0.03605 0.0
C315 C 0.44426 0.78518 0.02415 0.0
C316 C 0.45253 0.76912 0.00754 0.0
C317 C 0.43851 0.73331 0.00316 0.0
C318 C 0.41216 0.78138 0.05389 0.0
C319 C 0.47645 0.78961 0.99449 0.0
H320 H 0.43663 0.91611 0.03078 0.0
H321 H 0.53048 0.86056 0.05249 0.0
H322 H 0.40724 0.84024 0.00354 0.0
H323 H 0.38344 0.83957 0.02406 0.0
H324 H 0.39338 0.88416 0.0136 0.0
H325 H 0.54173 0.79594 0.04845 0.0
H326 H 0.49966 0.77034 0.05112 0.0
H327 H 0.52012 0.77357 0.02982 0.0
H328 H 0.39081 0.7144 0.04055 0.0
H329 H 0.44513 0.72096 0.9905 0.0
H330 H 0.39868 0.80924 0.05232 0.0
H331 H 0.43736 0.78608 0.06164 0.0
H332 H 0.39385 0.76249 0.06153 0.0
H333 H 0.46489 0.81787 0.99151 0.0
H334 H 0.47954 0.77372 0.98196 0.0
H335 H 0.50383 0.79424 0.00026 0.0
C336 C 0.08765 0.55914 0.98304 0.0
C337 C 0.09259 0.53024 0.9706 0.0
C338 C 0.11625 0.57071 0.99404 0.0
C339 C 0.15051 0.55283 0.99259 0.0
C340 C 0.15523 0.52258 0.98058 0.0
C341 C 0.12622 0.5117 0.96969 0.0
C342 C 0.11024 0.60311 0.00666 0.0
C343 C 0.19136 0.50265 0.97875 0.0
C344 C 0.23765 0.60535 0.00285 0.0
C345 C 0.24789 0.58911 0.01896 0.0
C346 C 0.20508 0.59507 0.99456 0.0
C347 C 0.18233 0.56762 0.0025 0.0
C348 C 0.19152 0.55258 0.0192 0.0
C349 C 0.2242 0.56368 0.02731 0.0
C350 C 0.19597 0.6122 0.97686 0.0
C351 C 0.16791 0.52323 0.02805 0.0
H352 H 0.0617 0.57355 0.98387 0.0
H353 H 0.13018 0.4892 0.96019 0.0
H354 H 0.11965 0.59538 0.02007 0.0
H355 H 0.12649 0.62793 0.00236 0.0
H356 H 0.08119 0.61161 0.00737 0.0
H357 H 0.18977 0.47784 0.9698 0.0
H358 H 0.21196 0.52263 0.97347 0.0
H359 H 0.20114 0.49297 0.99182 0.0
H360 H 0.25573 0.62528 0.99641 0.0
H361 H 0.23206 0.55092 0.03972 0.0
H362 H 0.1678 0.62344 0.97691 0.0
H363 H 0.19735 0.59005 0.96653 0.0
H364 H 0.21489 0.63544 0.97322 0.0
H365 H 0.13909 0.5325 0.02822 0.0
H366 H 0.17673 0.51742 0.04178 0.0
H367 H 0.16911 0.49644 0.02046 0.0
C368 C 0.48123 0.61653 0.21016 0.0
C369 C 0.47282 0.58533 0.22085 0.0
C370 C 0.47025 0.65313 0.21482 0.0
C371 C 0.45068 0.65879 0.23065 0.0
C372 C 0.44254 0.62754 0.24164 0.0
C373 C 0.45356 0.59111 0.23656 0.0
C374 C 0.47923 0.68571 0.20269 0.0
C375 C 0.42204 0.6326 0.25871 0.0
C376 C 0.45172 0.75871 0.24886 0.0
C377 C 0.41803 0.77264 0.24309 0.0
C378 C 0.46227 0.72137 0.24531 0.0
C379 C 0.43874 0.69751 0.2356 0.0
C380 C 0.40448 0.7112 0.22994 0.0
C381 C 0.39445 0.74858 0.23383 0.0
C382 C 0.49888 0.70766 0.2517 0.0
C383 C 0.37879 0.68666 0.21942 0.0
H384 H 0.49594 0.61232 0.19795 0.0
H385 H 0.44702 0.56716 0.24489 0.0
H386 H 0.45381 0.69981 0.19834 0.0
H387 H 0.49569 0.70713 0.20981 0.0
H388 H 0.49456 0.6765 0.19084 0.0
H389 H 0.41851 0.60552 0.26594 0.0
H390 H 0.4367 0.65285 0.26734 0.0
H391 H 0.39478 0.64476 0.25603 0.0
H392 H 0.46999 0.77703 0.25614 0.0
H393 H 0.36839 0.75916 0.22932 0.0
H394 H 0.5164 0.70065 0.24026 0.0
H395 H 0.49558 0.68142 0.25955 0.0
H396 H 0.51312 0.72909 0.25989 0.0
H397 H 0.39174 0.67861 0.20676 0.0
H398 H 0.35265 0.70114 0.21652 0.0
H399 H 0.37291 0.66012 0.22668 0.0
C400 C 0.39744 0.97543 0.46499 0.0
C401 C 0.39353 0.01147 0.45746 0.0
C402 C 0.36815 0.95756 0.47345 0.0
C403 C 0.33417 0.9762 0.47443 0.0
C404 C 0.33035 0.01303 0.46733 0.0
C405 C 0.36008 0.03022 0.45893 0.0
C406 C 0.37327 0.91832 0.48091 0.0
C407 C 0.29455 0.03388 0.46818 0.0
C408 C 0.24688 0.91944 0.47819 0.0
C409 C 0.23779 0.92458 0.49597 0.0
C410 C 0.27875 0.93519 0.47114 0.0
C411 C 0.30207 0.95664 0.48213 0.0
C412 C 0.29376 0.96081 0.50022 0.0
C413 C 0.26172 0.94468 0.50694 0.0
C414 C 0.28683 0.92989 0.45179 0.0
C415 C 0.31804 0.98341 0.51235 0.0
H416 H 0.42322 0.96073 0.46395 0.0
H417 H 0.35683 0.05809 0.45321 0.0
H418 H 0.36472 0.91754 0.49492 0.0
H419 H 0.3558 0.89799 0.47365 0.0
H420 H 0.40195 0.90863 0.48001 0.0
H421 H 0.29655 0.06302 0.46279 0.0
H422 H 0.27362 0.01817 0.4606 0.0
H423 H 0.28496 0.03556 0.48201 0.0
H424 H 0.22864 0.90382 0.46964 0.0
H425 H 0.25496 0.94876 0.5207 0.0
H426 H 0.31456 0.91814 0.45003 0.0
H427 H 0.28614 0.95768 0.44501 0.0
H428 H 0.26701 0.91072 0.44527 0.0
H429 H 0.34648 0.97308 0.5115 0.0
H430 H 0.30903 0.98187 0.5263 0.0
H431 H 0.31816 0.0135 0.5082 0.0
C432 C 0.04041 0.87622 0.69469 0.0
C433 C 0.05786 0.9115 0.6951 0.0
C434 C 0.05721 0.84394 0.70174 0.0
C435 C 0.09231 0.84707 0.7093 0.0
C436 C 0.1098 0.88269 0.71001 0.0
C437 C 0.09233 0.91449 0.70294 0.0
C438 C 0.03765 0.8064 0.70086 0.0
C439 C 0.14726 0.8871 0.71795 0.0
C440 C 0.12416 0.76959 0.74024 0.0
C441 C 0.14568 0.74734 0.72904 0.0
C442 C 0.10672 0.80222 0.73401 0.0
C443 C 0.11105 0.81293 0.71618 0.0
C444 C 0.13319 0.79098 0.70487 0.0
C445 C 0.1502 0.75838 0.71143 0.0
C446 C 0.08328 0.82494 0.74644 0.0
C447 C 0.13863 0.80172 0.68579 0.0
H448 H 0.01375 0.87369 0.68868 0.0
H449 H 0.10604 0.94163 0.70332 0.0
H450 H 0.05363 0.78619 0.69281 0.0
H451 H 0.03515 0.79411 0.71425 0.0
H452 H 0.01002 0.80897 0.69505 0.0
H453 H 0.15675 0.91694 0.71785 0.0
H454 H 0.14731 0.87673 0.73174 0.0
H455 H 0.16708 0.86967 0.7105 0.0
H456 H 0.12045 0.76123 0.75386 0.0
H457 H 0.1668 0.74138 0.7027 0.0
H458 H 0.0549 0.8258 0.74147 0.0
H459 H 0.09318 0.85456 0.74708 0.0
H460 H 0.08309 0.81303 0.75999 0.0
H461 H 0.11206 0.80182 0.67885 0.0
H462 H 0.15724 0.78202 0.67883 0.0
H463 H 0.14995 0.83076 0.68488 0.0
C464 C 0.58584 0.43709 0.79018 0.0
C465 C 0.57545 0.4323 0.80781 0.0
C466 C 0.6197 0.42419 0.78415 0.0
C467 C 0.64373 0.40618 0.79606 0.0
C468 C 0.63222 0.3986 0.8135 0.0
C469 C 0.59815 0.41166 0.81916 0.0
C470 C 0.63079 0.43237 0.76538 0.0
C471 C 0.65695 0.37926 0.82658 0.0
C472 C 0.73034 0.36061 0.77872 0.0
C473 C 0.75584 0.38965 0.7814 0.0
C474 C 0.69366 0.36541 0.78343 0.0
C475 C 0.68235 0.4 0.79103 0.0
C476 C 0.70802 0.42927 0.79385 0.0
C477 C 0.74439 0.42375 0.78899 0.0
C478 C 0.667 0.33364 0.7802 0.0
C479 C 0.69706 0.46656 0.80199 0.0
H480 H 0.56831 0.45261 0.78126 0.0
H481 H 0.59025 0.4075 0.83278 0.0
H482 H 0.6516 0.45514 0.76526 0.0
H483 H 0.64319 0.407 0.75925 0.0
H484 H 0.60738 0.4416 0.75718 0.0
H485 H 0.64225 0.3708 0.83875 0.0
H486 H 0.66955 0.35377 0.82066 0.0
H487 H 0.67931 0.39881 0.83031 0.0
H488 H 0.73898 0.33417 0.77284 0.0
H489 H 0.76388 0.44632 0.79114 0.0
H490 H 0.64509 0.34336 0.77123 0.0
H491 H 0.65387 0.32522 0.79276 0.0
H492 H 0.68021 0.30838 0.77432 0.0
H493 H 0.67601 0.4804 0.79373 0.0
H494 H 0.72042 0.4863 0.80342 0.0
H495 H 0.68498 0.4617 0.81519 0.0
C496 C 0.54048 0.10144 0.0167 0.0
C497 C 0.52132 0.09844 0.03263 0.0
C498 C 0.55271 0.13671 0.01051 0.0
C499 C 0.54597 0.16966 0.02059 0.0
C500 C 0.52588 0.16691 0.03645 0.0
C501 C 0.51363 0.13141 0.04221 0.0
C502 C 0.5736 0.1386 0.99342 0.0
C503 C 0.51833 0.20133 0.04765 0.0
C504 C 0.60945 0.25411 0.01697 0.0
C505 C 0.5883 0.27982 0.00731 0.0
C506 C 0.59631 0.21785 0.02102 0.0
C507 C 0.56133 0.20682 0.0151 0.0
C508 C 0.54039 0.23211 0.0048 0.0
C509 C 0.55404 0.2684 0.00112 0.0
C510 C 0.61938 0.19181 0.03215 0.0
C511 C 0.50319 0.22119 0.99805 0.0
H512 H 0.54639 0.07615 0.00917 0.0
H513 H 0.49889 0.12942 0.05454 0.0
H514 H 0.56128 0.15995 0.98452 0.0
H515 H 0.60199 0.14767 0.99604 0.0
H516 H 0.57425 0.11091 0.98651 0.0
H517 H 0.50127 0.19461 0.05931 0.0
H518 H 0.54439 0.2137 0.05229 0.0
H519 H 0.50432 0.2233 0.03973 0.0
H520 H 0.63594 0.26268 0.02183 0.0
H521 H 0.53762 0.28799 0.99354 0.0
H522 H 0.62321 0.16434 0.02536 0.0
H523 H 0.60532 0.18591 0.04479 0.0
H524 H 0.64656 0.20405 0.0351 0.0
H525 H 0.50458 0.19385 0.99091 0.0
H526 H 0.49159 0.24291 0.98909 0.0
H527 H 0.48432 0.21725 0.0093 0.0
C528 C 0.88264 0.00313 0.27268 0.0
C529 C 0.8891 0.99052 0.28992 0.0
C530 C 0.84708 0.01009 0.26671 0.0
C531 C 0.81739 0.00476 0.27834 0.0
C532 C 0.82371 0.99141 0.29564 0.0
C533 C 0.85944 0.98422 0.30118 0.0
C534 C 0.84133 0.02379 0.24808 0.0
C535 C 0.79281 0.9857 0.30849 0.0
C536 C 0.73007 0.05956 0.27048 0.0
C537 C 0.70722 0.03156 0.26346 0.0
C538 C 0.76612 0.05129 0.27521 0.0
C539 C 0.77976 0.01425 0.27266 0.0
C540 C 0.75705 0.98606 0.26527 0.0
C541 C 0.72097 0.99499 0.26086 0.0
C542 C 0.7894 0.08202 0.28323 0.0
C543 C 0.77077 0.94637 0.26217 0.0
H544 H 0.90541 0.00793 0.26389 0.0
H545 H 0.86416 0.97465 0.31456 0.0
H546 H 0.82158 0.00522 0.24118 0.0
H547 H 0.8296 0.05269 0.24827 0.0
H548 H 0.86704 0.02447 0.2404 0.0
H549 H 0.80224 0.97434 0.32135 0.0
H550 H 0.77879 0.01302 0.31084 0.0
H551 H 0.77242 0.96591 0.30289 0.0
H552 H 0.71962 0.08787 0.27256 0.0
H553 H 0.70356 0.97327 0.25532 0.0
H554 H 0.81448 0.08601 0.27532 0.0
H555 H 0.79795 0.07359 0.29669 0.0
H556 H 0.77489 0.10951 0.28406 0.0
H557 H 0.79569 0.9471 0.25394 0.0
H558 H 0.7502 0.9282 0.25557 0.0
H559 H 0.77826 0.93313 0.27492 0.0
C560 C 0.99741 0.36715 0.57174 0.0
C561 C 0.99422 0.40491 0.56628 0.0
C562 C 0.985 0.3374 0.56107 0.0
C563 C 0.96928 0.34556 0.54447 0.0
C564 C 0.96662 0.38355 0.53872 0.0
C565 C 0.97899 0.41279 0.54973 0.0
C566 C 0.98816 0.29725 0.56771 0.0
C567 C 0.95033 0.3933 0.52103 0.0
C568 C 0.96582 0.26431 0.5118 0.0
C569 C 0.92993 0.25143 0.51379 0.0
C570 C 0.97871 0.29557 0.52135 0.0
C571 C 0.95524 0.31423 0.53328 0.0
C572 C 0.91874 0.30194 0.53505 0.0
C573 C 0.90647 0.27078 0.52523 0.0
C574 C 0.0177 0.30808 0.51896 0.0
C575 C 0.89294 0.32102 0.54771 0.0
H576 H 0.00902 0.36077 0.58452 0.0
H577 H 0.9765 0.44188 0.54539 0.0
H578 H 0.96073 0.28427 0.56864 0.0
H579 H 0.00417 0.28002 0.55829 0.0
H580 H 0.00138 0.29566 0.58085 0.0
H581 H 0.95129 0.42415 0.51827 0.0
H582 H 0.96508 0.3782 0.51041 0.0
H583 H 0.92157 0.38383 0.52053 0.0
H584 H 0.98408 0.24966 0.50292 0.0
H585 H 0.87872 0.261 0.52687 0.0
H586 H 0.03287 0.30417 0.53147 0.0
H587 H 0.01877 0.33863 0.51567 0.0
H588 H 0.0318 0.29197 0.50842 0.0
H589 H 0.90322 0.3179 0.56138 0.0
H590 H 0.86504 0.30898 0.54704 0.0
H591 H 0.89146 0.35175 0.54486 0.0
C592 C 0.58578 0.115 0.468 0.0
C593 C 0.58287 0.08079 0.45873 0.0
C594 C 0.61896 0.12644 0.47546 0.0
C595 C 0.64992 0.10301 0.47367 0.0
C596 C 0.64703 0.06813 0.46461 0.0
C597 C 0.61355 0.05747 0.45721 0.0
C598 C 0.62104 0.16387 0.48499 0.0
C599 C 0.67943 0.04229 0.46252 0.0
C600 C 0.7446 0.14545 0.47663 0.0
C601 C 0.75535 0.1347 0.49365 0.0
C602 C 0.71002 0.13607 0.47012 0.0
C603 C 0.68564 0.11534 0.48086 0.0
C604 C 0.69591 0.10531 0.49821 0.0
C605 C 0.73063 0.11519 0.50442 0.0
C606 C 0.69993 0.14753 0.45159 0.0
C607 C 0.67063 0.08318 0.51004 0.0
H608 H 0.56222 0.13321 0.46924 0.0
H609 H 0.61152 0.03095 0.45012 0.0
H610 H 0.63127 0.1596 0.49859 0.0
H611 H 0.6406 0.18282 0.47819 0.0
H612 H 0.59424 0.17828 0.48566 0.0
H613 H 0.67238 0.0156 0.45559 0.0
H614 H 0.70112 0.05694 0.45497 0.0
H615 H 0.69088 0.03514 0.47563 0.0
H616 H 0.76347 0.16065 0.46824 0.0
H617 H 0.73869 0.10675 0.51758 0.0
H618 H 0.67404 0.16364 0.45165 0.0
H619 H 0.69552 0.12191 0.44342 0.0
H620 H 0.72128 0.16515 0.44525 0.0
H621 H 0.64409 0.09788 0.51119 0.0
H622 H 0.68205 0.07914 0.52346 0.0
H623 H 0.66523 0.05497 0.5042 0.0
C624 C 0.93378 0.08859 0.70168 0.0
C625 C 0.97048 0.09223 0.69689 0.0
C626 C 0.91504 0.11865 0.70959 0.0
C627 C 0.93337 0.15326 0.7126 0.0
C628 C 0.97063 0.15683 0.70817 0.0
C629 C 0.9888 0.12618 0.70045 0.0
C630 C 0.87543 0.11368 0.71435 0.0
C631 C 0.99101 0.19342 0.71109 0.0
C632 C 0.87908 0.24428 0.7146 0.0
C633 C 0.87939 0.25215 0.7327 0.0
C634 C 0.89599 0.21178 0.70792 0.0
C635 C 0.91328 0.18637 0.71966 0.0
C636 C 0.91259 0.19345 0.73799 0.0
C637 C 0.8958 0.22639 0.7443 0.0
C638 C 0.89633 0.20525 0.68826 0.0
C639 C 0.93034 0.16672 0.75091 0.0
H640 H 0.9195 0.06234 0.69906 0.0
H641 H 0.01713 0.12923 0.69675 0.0
H642 H 0.87094 0.12133 0.72836 0.0
H643 H 0.85849 0.13297 0.70626 0.0
H644 H 0.86584 0.08423 0.71223 0.0
H645 H 0.02021 0.19116 0.70747 0.0
H646 H 0.9785 0.21625 0.70309 0.0
H647 H 0.98909 0.20206 0.7251 0.0
H648 H 0.86653 0.26408 0.70555 0.0
H649 H 0.89598 0.23221 0.75832 0.0
H650 H 0.88478 0.17703 0.68515 0.0
H651 H 0.92478 0.20556 0.68338 0.0
H652 H 0.8806 0.22706 0.68098 0.0
H653 H 0.92001 0.13754 0.74889 0.0
H654 H 0.92536 0.17504 0.76481 0.0
H655 H 0.96014 0.1661 0.74861 0.0
C656 C 0.91222 0.4696 0.96066 0.0
C657 C 0.91256 0.46791 0.9422 0.0
C658 C 0.88061 0.46111 0.97019 0.0
C659 C 0.84855 0.45097 0.96102 0.0
C660 C 0.84862 0.44938 0.94239 0.0
C661 C 0.88071 0.45777 0.93319 0.0
C662 C 0.88152 0.46295 0.99007 0.0
C663 C 0.81478 0.43897 0.93218 0.0
C664 C 0.774 0.39789 0.98523 0.0
C665 C 0.74963 0.42718 0.98914 0.0
C666 C 0.80657 0.40527 0.97622 0.0
C667 C 0.81469 0.44273 0.97092 0.0
C668 C 0.79036 0.47243 0.97497 0.0
C669 C 0.75819 0.46431 0.9841 0.0
C670 C 0.83211 0.37298 0.97223 0.0
C671 C 0.79804 0.51271 0.96944 0.0
H672 H 0.93677 0.47727 0.96773 0.0
H673 H 0.88079 0.45644 0.91893 0.0
H674 H 0.86154 0.48408 0.99484 0.0
H675 H 0.87359 0.43518 0.99571 0.0
H676 H 0.90884 0.47069 0.9952 0.0
H677 H 0.81942 0.43893 0.91772 0.0
H678 H 0.80517 0.41049 0.9362 0.0
H679 H 0.79264 0.45925 0.93522 0.0
H680 H 0.76754 0.36915 0.9891 0.0
H681 H 0.73941 0.48709 0.98701 0.0
H682 H 0.85941 0.37895 0.97783 0.0
H683 H 0.83546 0.37002 0.95777 0.0
H684 H 0.8222 0.34564 0.97763 0.0
H685 H 0.82435 0.52228 0.97506 0.0
H686 H 0.7764 0.53257 0.97374 0.0
H687 H 0.80048 0.51431 0.95489 0.0
C688 C 0.55587 0.37986 0.22698 0.0
C689 C 0.51933 0.38216 0.22168 0.0
C690 C 0.56997 0.34646 0.23427 0.0
C691 C 0.54695 0.31469 0.23641 0.0
C692 C 0.50966 0.31742 0.23189 0.0
C693 C 0.49632 0.35109 0.22453 0.0
C694 C 0.60989 0.34464 0.23891 0.0
C695 C 0.48416 0.28424 0.23413 0.0
C696 C 0.58736 0.2161 0.2346 0.0
C697 C 0.58775 0.20576 0.25243 0.0
C698 C 0.57492 0.2518 0.22928 0.0
C699 C 0.56232 0.27775 0.2421 0.0
C700 C 0.56342 0.26787 0.26016 0.0
C701 C 0.57626 0.232 0.26513 0.0
C702 C 0.57451 0.26143 0.20989 0.0
C703 C 0.55011 0.29477 0.27419 0.0
H704 H 0.57387 0.40372 0.22486 0.0
H705 H 0.46801 0.35268 0.22058 0.0
H706 H 0.61351 0.33379 0.25251 0.0
H707 H 0.62387 0.32466 0.22991 0.0
H708 H 0.62339 0.37268 0.23787 0.0
H709 H 0.45542 0.29189 0.23136 0.0
H710 H 0.49224 0.26113 0.22506 0.0
H711 H 0.48596 0.27297 0.24774 0.0
H712 H 0.59635 0.19607 0.22471 0.0
H713 H 0.57636 0.22418 0.27893 0.0
H714 H 0.58974 0.28806 0.20753 0.0
H715 H 0.54611 0.26613 0.20546 0.0
H716 H 0.58667 0.23872 0.20168 0.0
H717 H 0.56431 0.32236 0.27303 0.0
H718 H 0.55441 0.28352 0.28769 0.0
H719 H 0.52064 0.3002 0.27232 0.0
C720 C 0.00463 0.88946 0.37575 0.0
C721 C 0.97281 0.91082 0.37364 0.0
C722 C 0.01715 0.87946 0.39257 0.0
C723 C 0.99741 0.89123 0.40761 0.0
C724 C 0.96398 0.91054 0.40552 0.0
C725 C 0.95196 0.91994 0.38853 0.0
C726 C 0.05278 0.85856 0.39427 0.0
C727 C 0.9422 0.92352 0.42125 0.0
C728 C 0.02531 0.85078 0.452 0.0
C729 C 0.04916 0.87885 0.45817 0.0
C730 C 0.00762 0.85464 0.43569 0.0
C731 C 0.0139 0.88735 0.42539 0.0
C732 C 0.03712 0.91624 0.43179 0.0
C733 C 0.05451 0.91159 0.44806 0.0
C734 C 0.983 0.82332 0.42928 0.0
C735 C 0.0445 0.95163 0.4212 0.0
H736 H 0.02074 0.88205 0.3643 0.0
H737 H 0.92728 0.93637 0.38703 0.0
H738 H 0.0738 0.87794 0.39964 0.0
H739 H 0.05007 0.83458 0.4036 0.0
H740 H 0.06249 0.84751 0.38141 0.0
H741 H 0.91596 0.9367 0.41739 0.0
H742 H 0.93655 0.89928 0.43012 0.0
H743 H 0.9582 0.94446 0.42892 0.0
H744 H 0.02099 0.82541 0.45973 0.0
H745 H 0.07278 0.9335 0.45275 0.0
H746 H 0.99467 0.81037 0.41723 0.0
H747 H 0.95595 0.83486 0.42567 0.0
H748 H 0.97921 0.8008 0.43933 0.0
H749 H 0.06081 0.9443 0.4094 0.0
H750 H 0.0596 0.97326 0.42891 0.0
H751 H 0.01866 0.96427 0.41651 0.0
C752 C 0.06196 0.47783 0.65662 0.0
C753 C 0.06968 0.49611 0.64063 0.0
C754 C 0.07615 0.4914 0.67258 0.0
C755 C 0.09826 0.52421 0.67252 0.0
C756 C 0.10863 0.54079 0.6563 0.0
C757 C 0.09442 0.52635 0.64052 0.0
C758 C 0.0649 0.47238 0.68953 0.0
C759 C 0.13208 0.57587 0.65566 0.0
C760 C 0.08953 0.59249 0.71072 0.0
C761 C 0.12263 0.58735 0.71958 0.0
C762 C 0.08109 0.57152 0.6956 0.0
C763 C 0.10619 0.54439 0.68927 0.0
C764 C 0.13912 0.53809 0.69847 0.0
C765 C 0.14711 0.55988 0.71347 0.0
C766 C 0.04563 0.57914 0.68615 0.0
C767 C 0.16602 0.50868 0.69234 0.0
H768 H 0.04316 0.45418 0.65683 0.0
H769 H 0.10075 0.54052 0.62823 0.0
H770 H 0.08731 0.47267 0.69932 0.0
H771 H 0.04149 0.48784 0.69529 0.0
H772 H 0.05634 0.44263 0.68726 0.0
H773 H 0.14117 0.5826 0.64206 0.0
H774 H 0.11638 0.6003 0.66078 0.0
H775 H 0.15642 0.57251 0.66415 0.0
H776 H 0.07045 0.61361 0.71535 0.0
H777 H 0.17262 0.55554 0.72035 0.0
H778 H 0.0294 0.55274 0.68521 0.0
H779 H 0.0512 0.58883 0.67251 0.0
H780 H 0.02896 0.60095 0.69289 0.0
H781 H 0.15228 0.48087 0.69095 0.0
H782 H 0.18929 0.50558 0.70158 0.0
H783 H 0.17675 0.51651 0.67918 0.0
C784 C 0.43577 0.46996 0.89731 0.0
C785 C 0.41837 0.48813 0.8832 0.0
C786 C 0.42481 0.4764 0.91477 0.0
C787 C 0.39541 0.50126 0.91815 0.0
C788 C 0.37578 0.51701 0.90389 0.0
C789 C 0.38758 0.51039 0.88658 0.0
C790 C 0.44544 0.4572 0.92947 0.0
C791 C 0.34354 0.54259 0.90691 0.0
C792 C 0.35867 0.50513 0.96495 0.0
C793 C 0.37491 0.53834 0.97137 0.0
C794 C 0.3648 0.49284 0.94761 0.0
C795 C 0.38785 0.51415 0.93645 0.0
C796 C 0.40408 0.54792 0.94285 0.0
C797 C 0.39756 0.55942 0.96024 0.0
C798 C 0.34603 0.45747 0.94114 0.0
C799 C 0.42704 0.57332 0.93132 0.0
H800 H 0.45924 0.4522 0.89483 0.0
H801 H 0.37364 0.52418 0.87576 0.0
H802 H 0.44822 0.47565 0.9412 0.0
H803 H 0.43042 0.43143 0.93354 0.0
H804 H 0.47299 0.44826 0.92516 0.0
H805 H 0.32751 0.54703 0.89467 0.0
H806 H 0.32537 0.53069 0.91719 0.0
H807 H 0.35324 0.57053 0.91163 0.0
H808 H 0.34086 0.48883 0.97343 0.0
H809 H 0.40957 0.58556 0.96494 0.0
H810 H 0.3665 0.43505 0.93876 0.0
H811 H 0.33205 0.46305 0.92844 0.0
H812 H 0.32576 0.44661 0.95075 0.0
H813 H 0.43949 0.55822 0.92005 0.0
H814 H 0.449 0.58701 0.93911 0.0
H815 H 0.4096 0.59621 0.92597 0.0
C816 C 0.38969 0.94317 0.11329 0.0
C817 C 0.40639 0.97716 0.10824 0.0
C818 C 0.38344 0.93489 0.13111 0.0
C819 C 0.39424 0.96121 0.14416 0.0
C820 C 0.40839 0.99681 0.13907 0.0
C821 C 0.4141 0.00447 0.12115 0.0
C822 C 0.36788 0.89676 0.136 0.0
C823 C 0.41985 0.02573 0.15262 0.0
C824 C 0.36533 0.94225 0.19143 0.0
C825 C 0.39591 0.9232 0.19808 0.0
C826 C 0.36456 0.9556 0.17401 0.0
C827 C 0.39503 0.94961 0.16298 0.0
C828 C 0.42629 0.93125 0.16974 0.0
C829 C 0.42639 0.91839 0.18722 0.0
C830 C 0.33078 0.97505 0.16725 0.0
C831 C 0.45928 0.92411 0.15835 0.0
H832 H 0.38334 0.92205 0.10341 0.0
H833 H 0.4268 0.03095 0.11738 0.0
H834 H 0.38959 0.87899 0.14188 0.0
H835 H 0.34612 0.89988 0.14601 0.0
H836 H 0.35655 0.88164 0.1244 0.0
H837 H 0.42952 0.05247 0.14651 0.0
H838 H 0.39678 0.03224 0.16152 0.0
H839 H 0.44203 0.01402 0.16088 0.0
H840 H 0.34165 0.94614 0.19974 0.0
H841 H 0.45013 0.90375 0.19223 0.0
H842 H 0.31791 0.95744 0.15687 0.0
H843 H 0.33792 0.00257 0.16113 0.0
H844 H 0.31052 0.98005 0.17784 0.0
H845 H 0.4519 0.90493 0.14735 0.0
H846 H 0.48193 0.91106 0.16586 0.0
H847 H 0.46902 0.95096 0.15242 0.0
C848 C 0.09171 0.60438 0.88964 0.0
C849 C 0.05795 0.58706 0.89267 0.0
C850 C 0.09987 0.62069 0.87328 0.0
C851 C 0.07353 0.61989 0.85968 0.0
C852 C 0.03842 0.60515 0.86309 0.0
C853 C 0.03104 0.58883 0.87956 0.0
C854 C 0.13761 0.63627 0.87018 0.0
C855 C 0.00946 0.60425 0.84899 0.0
C856 C 0.09526 0.67807 0.81895 0.0
C857 C 0.11132 0.65079 0.80802 0.0
C858 C 0.08154 0.66826 0.8356 0.0
C859 C 0.08424 0.63038 0.84146 0.0
C860 C 0.09926 0.60249 0.83024 0.0
C861 C 0.1125 0.61302 0.81364 0.0
C862 C 0.06517 0.69859 0.84712 0.0
C863 C 0.10255 0.56171 0.836 0.0
H864 H 0.11256 0.60343 0.89974 0.0
H865 H 0.00476 0.57576 0.88181 0.0
H866 H 0.15241 0.61756 0.86089 0.0
H867 H 0.13615 0.66473 0.86407 0.0
H868 H 0.15363 0.63833 0.88256 0.0
H869 H 0.98219 0.59755 0.85448 0.0
H870 H 0.00803 0.63178 0.84201 0.0
H871 H 0.01641 0.58234 0.83909 0.0
H872 H 0.09402 0.70728 0.81466 0.0
H873 H 0.12471 0.59171 0.80526 0.0
H874 H 0.0828 0.70332 0.85878 0.0
H875 H 0.03814 0.68947 0.85206 0.0
H876 H 0.06201 0.72588 0.84002 0.0
H877 H 0.12074 0.55979 0.84764 0.0
H878 H 0.11361 0.54326 0.82544 0.0
H879 H 0.07557 0.55056 0.84001 0.0
C880 C 0.39885 0.5176 0.14702 0.0
C881 C 0.42635 0.49188 0.15148 0.0
C882 C 0.38615 0.52052 0.12964 0.0
C883 C 0.40159 0.49739 0.11638 0.0
C884 C 0.42742 0.46946 0.12103 0.0
C885 C 0.43932 0.46683 0.13857 0.0
C886 C 0.35819 0.55033 0.12526 0.0
C887 C 0.44443 0.44424 0.10727 0.0
C888 C 0.35729 0.49946 0.07105 0.0
C889 C 0.3777 0.52777 0.06264 0.0
C890 C 0.36519 0.48845 0.08844 0.0
C891 C 0.39434 0.50598 0.09751 0.0
C892 C 0.4159 0.53345 0.08881 0.0
C893 C 0.40722 0.54411 0.07154 0.0
C894 C 0.34154 0.45917 0.0973 0.0
C895 C 0.44764 0.55239 0.09792 0.0
H896 H 0.38847 0.5368 0.15695 0.0
H897 H 0.46053 0.44678 0.14189 0.0
H898 H 0.37139 0.57359 0.11779 0.0
H899 H 0.33647 0.53836 0.11677 0.0
H900 H 0.3455 0.56248 0.13726 0.0
H901 H 0.46276 0.42268 0.11314 0.0
H902 H 0.42298 0.4296 0.09957 0.0
H903 H 0.46036 0.46169 0.09788 0.0
H904 H 0.33437 0.48678 0.06427 0.0
H905 H 0.42333 0.56574 0.06508 0.0
H906 H 0.3257 0.47269 0.10801 0.0
H907 H 0.35855 0.43685 0.10341 0.0
H908 H 0.32222 0.44567 0.08795 0.0
H909 H 0.43774 0.56878 0.10942 0.0
H910 H 0.46268 0.57188 0.08904 0.0
H911 H 0.46689 0.53078 0.10295 0.0
C912 C 0.42709 0.973 0.37244 0.0
C913 C 0.46187 0.97313 0.38004 0.0
C914 C 0.42122 0.95861 0.35551 0.0
C915 C 0.45081 0.94365 0.34588 0.0
C916 C 0.48617 0.94406 0.35332 0.0
C917 C 0.49132 0.9588 0.37038 0.0
C918 C 0.38318 0.95942 0.34795 0.0
C919 C 0.5184 0.92885 0.34329 0.0
C920 C 0.41742 0.87317 0.31218 0.0
C921 C 0.41421 0.89585 0.2971 0.0
C922 C 0.4321 0.88765 0.32783 0.0
C923 C 0.44369 0.92582 0.32847 0.0
C924 C 0.44298 0.94804 0.31293 0.0
C925 C 0.42819 0.93277 0.29742 0.0
C926 C 0.43287 0.86279 0.34401 0.0
C927 C 0.45528 0.98876 0.31284 0.0
H928 H 0.4042 0.98438 0.37969 0.0
H929 H 0.51836 0.95933 0.37606 0.0
H930 H 0.38313 0.97507 0.33528 0.0
H931 H 0.3738 0.93017 0.3452 0.0
H932 H 0.36334 0.97304 0.35697 0.0
H933 H 0.54442 0.9334 0.35043 0.0
H934 H 0.51479 0.89809 0.34098 0.0
H935 H 0.52023 0.94266 0.33019 0.0
H936 H 0.40727 0.84437 0.31197 0.0
H937 H 0.42616 0.9504 0.28577 0.0
H938 H 0.41181 0.87249 0.35346 0.0
H939 H 0.45961 0.86491 0.35073 0.0
H940 H 0.42752 0.83263 0.34081 0.0
H941 H 0.43221 0.00698 0.31691 0.0
H942 H 0.46396 0.99783 0.29948 0.0
H943 H 0.47808 0.99353 0.32213 0.0
C944 C 0.05195 0.06266 0.61077 0.0
C945 C 0.06439 0.04113 0.62509 0.0
C946 C 0.06042 0.05208 0.59344 0.0
C947 C 0.08159 0.0193 0.5905 0.0
C948 C 0.09824 0.00076 0.60492 0.0
C949 C 0.08958 0.01208 0.62208 0.0
C950 C 0.04356 0.07353 0.57834 0.0
C951 C 0.12171 0.96619 0.60233 0.0
C952 C 0.05406 0.95203 0.55408 0.0
C953 C 0.08265 0.95649 0.54206 0.0
C954 C 0.05289 0.97334 0.56964 0.0
C955 C 0.08065 0.00023 0.57309 0.0
C956 C 0.10842 0.00641 0.56054 0.0
C957 C 0.10926 0.98423 0.54522 0.0
C958 C 0.0228 0.96587 0.58279 0.0
C959 C 0.13827 0.03502 0.56362 0.0
H960 H 0.03294 0.08561 0.61294 0.0
H961 H 0.09996 0.99586 0.63312 0.0
H962 H 0.06332 0.07712 0.56742 0.0
H963 H 0.02021 0.05715 0.57314 0.0
H964 H 0.03365 0.10182 0.58249 0.0
H965 H 0.13688 0.95862 0.6145 0.0
H966 H 0.10423 0.94184 0.59861 0.0
H967 H 0.14148 0.97073 0.59151 0.0
H968 H 0.03332 0.93082 0.5517 0.0
H969 H 0.13133 0.98805 0.53592 0.0
H970 H 0.00759 0.99234 0.58547 0.0
H971 H 0.03457 0.95616 0.59547 0.0
H972 H 0.00331 0.94404 0.57812 0.0
H973 H 0.12745 0.06117 0.56975 0.0
H974 H 0.15238 0.04264 0.55118 0.0
H975 H 0.15869 0.02291 0.57279 0.0
C976 C 0.58291 0.52765 0.88958 0.0
C977 C 0.54631 0.53894 0.88961 0.0
C978 C 0.59902 0.51237 0.90476 0.0
C979 C 0.57786 0.5079 0.92018 0.0
C980 C 0.5423 0.52308 0.92084 0.0
C981 C 0.52704 0.53881 0.90557 0.0
C982 C 0.6376 0.49798 0.90378 0.0
C983 C 0.51941 0.5199 0.93729 0.0
C984 C 0.59387 0.41787 0.94614 0.0
C985 C 0.61062 0.4316 0.96138 0.0
C986 C 0.58296 0.44259 0.93271 0.0
C987 C 0.59016 0.48187 0.93435 0.0
C988 C 0.6076 0.49582 0.94965 0.0
C989 C 0.6172 0.4705 0.96313 0.0
C990 C 0.56354 0.42664 0.91681 0.0
C991 C 0.61715 0.53716 0.95154 0.0
H992 H 0.59824 0.52829 0.87738 0.0
H993 H 0.49895 0.54801 0.90582 0.0
H994 H 0.65261 0.50449 0.91609 0.0
H995 H 0.63729 0.46679 0.90218 0.0
H996 H 0.65257 0.51041 0.89245 0.0
H997 H 0.49125 0.53001 0.9352 0.0
H998 H 0.51828 0.49012 0.94188 0.0
H999 H 0.5318 0.53684 0.94802 0.0
H1000 H 0.58888 0.38777 0.94481 0.0
H1001 H 0.63091 0.48098 0.9748 0.0
H1002 H 0.58044 0.43089 0.90487 0.0
H1003 H 0.53747 0.44175 0.91466 0.0
H1004 H 0.55771 0.39594 0.91818 0.0
H1005 H 0.63829 0.54469 0.94171 0.0
H1006 H 0.6277 0.54398 0.96488 0.0
H1007 H 0.59316 0.55521 0.94882 0.0
C1008 C 0.54708 0.95278 0.1281 0.0
C1009 C 0.54634 0.98119 0.1152 0.0
C1010 C 0.56099 0.96006 0.14501 0.0
C1011 C 0.57367 0.9968 0.14918 0.0
C1012 C 0.57426 0.02513 0.136 0.0
C1013 C 0.56101 0.01685 0.11911 0.0
C1014 C 0.56141 0.92874 0.15853 0.0
C1015 C 0.5869 0.06489 0.14001 0.0
C1016 C 0.56711 0.03241 0.19623 0.0
C1017 C 0.60374 0.03303 0.20134 0.0
C1018 C 0.55689 0.01979 0.17942 0.0
C1019 C 0.58388 0.00666 0.16759 0.0
C1020 C 0.62069 0.00543 0.17301 0.0
C1021 C 0.63025 0.01905 0.18976 0.0
C1022 C 0.51732 0.02158 0.17414 0.0
C1023 C 0.65012 0.99082 0.16094 0.0
H1024 H 0.53596 0.9251 0.12512 0.0
H1025 H 0.56029 0.03905 0.10927 0.0
H1026 H 0.58975 0.92356 0.16294 0.0
H1027 H 0.54558 0.93717 0.17032 0.0
H1028 H 0.55001 0.90188 0.15329 0.0
H1029 H 0.58723 0.08316 0.1281 0.0
H1030 H 0.56854 0.07785 0.14991 0.0
H1031 H 0.61463 0.06446 0.14576 0.0
H1032 H 0.54651 0.04318 0.20513 0.0
H1033 H 0.65859 0.01912 0.19372 0.0
H1034 H 0.50728 0.99274 0.17111 0.0
H1035 H 0.51416 0.03886 0.16202 0.0
H1036 H 0.4999 0.03383 0.18464 0.0
H1037 H 0.64219 0.96303 0.15534 0.0
H1038 H 0.67663 0.9877 0.16783 0.0
H1039 H 0.65381 0.01063 0.14975 0.0
C1040 C 0.98643 0.07301 0.37112 0.0
C1041 C 0.95507 0.05703 0.36363 0.0
C1042 C 0.98577 0.08814 0.38824 0.0
C1043 C 0.95324 0.08631 0.3982 0.0
C1044 C 0.92132 0.07114 0.3905 0.0
C1045 C 0.92253 0.05716 0.37326 0.0
C1046 C 0.02006 0.10503 0.39586 0.0
C1047 C 0.8862 0.06806 0.40076 0.0
C1048 C 0.95334 0.08237 0.4481 0.0
C1049 C 0.93832 0.11762 0.45231 0.0
C1050 C 0.96004 0.07237 0.4305 0.0
C1051 C 0.95241 0.09869 0.41691 0.0
C1052 C 0.93981 0.13533 0.42125 0.0
C1053 C 0.93239 0.14417 0.4389 0.0
C1054 C 0.97293 0.03281 0.42639 0.0
C1055 C 0.93235 0.16452 0.40719 0.0
H1056 H 0.01166 0.07302 0.36373 0.0
H1057 H 0.89823 0.0446 0.36765 0.0
H1058 H 0.01427 0.13305 0.40181 0.0
H1059 H 0.03057 0.08651 0.40649 0.0
H1060 H 0.04169 0.10844 0.38576 0.0
H1061 H 0.86371 0.05594 0.39276 0.0
H1062 H 0.89036 0.04985 0.4125 0.0
H1063 H 0.87772 0.09634 0.40555 0.0
H1064 H 0.95782 0.06176 0.45846 0.0
H1065 H 0.92114 0.17162 0.44217 0.0
H1066 H 0.99705 0.03376 0.41763 0.0
H1067 H 0.95122 0.01724 0.41925 0.0
H1068 H 0.98009 0.01666 0.43846 0.0
H1069 H 0.95528 0.1659 0.39771 0.0
H1070 H 0.92796 0.19312 0.41286 0.0
H1071 H 0.90765 0.15638 0.39969 0.0
C1072 C 0.90639 0.45008 0.63511 0.0
C1073 C 0.92542 0.48379 0.63193 0.0
C1074 C 0.89875 0.4382 0.65235 0.0
C1075 C 0.91021 0.46071 0.66675 0.0
C1076 C 0.92701 0.49611 0.6636 0.0
C1077 C 0.93439 0.50726 0.64622 0.0
C1078 C 0.88073 0.40025 0.65515 0.0
C1079 C 0.93949 0.52104 0.67859 0.0
C1080 C 0.87303 0.43221 0.71153 0.0
C1081 C 0.90121 0.4093 0.718 0.0
C1082 C 0.87606 0.45039 0.69514 0.0
C1083 C 0.90788 0.44527 0.68494 0.0
C1084 C 0.93693 0.42332 0.69168 0.0
C1085 C 0.93328 0.40568 0.70814 0.0
C1086 C 0.84484 0.47418 0.68852 0.0
C1087 C 0.97142 0.4173 0.68123 0.0
H1088 H 0.89918 0.43185 0.62417 0.0
H1089 H 0.94908 0.53341 0.64393 0.0
H1090 H 0.90056 0.38034 0.6611 0.0
H1091 H 0.85759 0.4029 0.66443 0.0
H1092 H 0.87059 0.38779 0.64264 0.0
H1093 H 0.94638 0.55006 0.67405 0.0
H1094 H 0.91823 0.52295 0.68892 0.0
H1095 H 0.9641 0.50858 0.68474 0.0
H1096 H 0.84825 0.43539 0.71913 0.0
H1097 H 0.95525 0.38819 0.71305 0.0
H1098 H 0.83253 0.46063 0.67676 0.0
H1099 H 0.85481 0.50247 0.6844 0.0
H1100 H 0.82331 0.47793 0.69864 0.0
H1101 H 0.96505 0.4018 0.66889 0.0
H1102 H 0.99213 0.40099 0.6887 0.0
H1103 H 0.9834 0.44491 0.67741 0.0
C1104 C 0.52572 0.12433 0.37569 0.0
C1105 C 0.49843 0.10494 0.38488 0.0
C1106 C 0.52657 0.12426 0.35722 0.0
C1107 C 0.4997 0.10391 0.34775 0.0
C1108 C 0.4703 0.08713 0.35692 0.0
C1109 C 0.46986 0.08811 0.3754 0.0
C1110 C 0.55792 0.14336 0.34793 0.0
C1111 C 0.44122 0.06478 0.34752 0.0
C1112 C 0.50276 0.11827 0.29823 0.0
C1113 C 0.52697 0.08959 0.29315 0.0
C1114 C 0.49186 0.12214 0.31587 0.0
C1115 C 0.50524 0.09655 0.32864 0.0
C1116 C 0.52733 0.06579 0.32333 0.0
C1117 C 0.53813 0.06284 0.30566 0.0
C1118 C 0.46777 0.15485 0.32101 0.0
C1119 C 0.54136 0.03723 0.33648 0.0
H1120 H 0.5477 0.13761 0.38295 0.0
H1121 H 0.44864 0.07294 0.38236 0.0
H1122 H 0.57636 0.12156 0.34239 0.0
H1123 H 0.54788 0.16081 0.3368 0.0
H1124 H 0.57393 0.16171 0.35695 0.0
H1125 H 0.45075 0.03523 0.34602 0.0
H1126 H 0.41553 0.06412 0.35522 0.0
H1127 H 0.43547 0.07624 0.3342 0.0
H1128 H 0.49388 0.13899 0.28862 0.0
H1129 H 0.55642 0.04029 0.30178 0.0
H1130 H 0.48363 0.17534 0.329 0.0
H1131 H 0.44483 0.14479 0.32928 0.0
H1132 H 0.45659 0.16986 0.30935 0.0
H1133 H 0.56206 0.0508 0.34505 0.0
H1134 H 0.55398 0.01239 0.32995 0.0
H1135 H 0.51899 0.02715 0.3451 0.0
C1136 C 0.92144 0.98361 0.60701 0.0
C1137 C 0.93768 0.01402 0.61588 0.0
C1138 C 0.91119 0.98702 0.58919 0.0
C1139 C 0.91844 0.0212 0.58005 0.0
C1140 C 0.93645 0.05118 0.58883 0.0
C1141 C 0.94541 0.04737 0.60665 0.0
C1142 C 0.89106 0.95489 0.58046 0.0
C1143 C 0.94515 0.08801 0.57962 0.0
C1144 C 0.9179 0.03499 0.53054 0.0
C1145 C 0.88759 0.05853 0.52871 0.0
C1146 C 0.92705 0.01978 0.54707 0.0
C1147 C 0.90473 0.0277 0.56185 0.0
C1148 C 0.87207 0.04832 0.55952 0.0
C1149 C 0.86431 0.06419 0.54303 0.0
C1150 C 0.96223 0.99828 0.54893 0.0
C1151 C 0.84667 0.05611 0.57471 0.0
H1152 H 0.91567 0.95774 0.61415 0.0
H1153 H 0.95873 0.07063 0.61337 0.0
H1154 H 0.86212 0.96296 0.57871 0.0
H1155 H 0.9023 0.94905 0.56719 0.0
H1156 H 0.89217 0.92853 0.58841 0.0
H1157 H 0.96374 0.10614 0.58749 0.0
H1158 H 0.95782 0.08262 0.5666 0.0
H1159 H 0.91965 0.104 0.57728 0.0
H1160 H 0.93587 0.0308 0.51939 0.0
H1161 H 0.8406 0.08212 0.54147 0.0
H1162 H 0.95876 0.97347 0.55769 0.0
H1163 H 0.98297 0.01705 0.55494 0.0
H1164 H 0.97273 0.98844 0.536 0.0
H1165 H 0.84287 0.03034 0.58285 0.0
H1166 H 0.81962 0.06607 0.57012 0.0
H1167 H 0.8586 0.0783 0.58329 0.0
C1168 C 0.01019 0.39916 0.87953 0.0
C1169 C 0.03514 0.42905 0.87801 0.0
C1170 C 0.99451 0.38265 0.86453 0.0
C1171 C 0.004 0.3964 0.84762 0.0
C1172 C 0.0311 0.42465 0.84596 0.0
C1173 C 0.04645 0.44055 0.86118 0.0
C1174 C 0.96597 0.3523 0.86684 0.0
C1175 C 0.04207 0.44 0.82817 0.0
C1176 C 0.97323 0.3421 0.807 0.0
C1177 C 0.94149 0.36178 0.80233 0.0
C1178 C 0.99398 0.353 0.8217 0.0
C1179 C 0.98275 0.38434 0.83192 0.0
C1180 C 0.95086 0.40439 0.82722 0.0
C1181 C 0.93062 0.39285 0.81251 0.0
C1182 C 0.02779 0.33092 0.82634 0.0
C1183 C 0.93801 0.43806 0.83777 0.0
H1184 H 0.00146 0.3899 0.89247 0.0
H1185 H 0.06584 0.46351 0.85985 0.0
H1186 H 0.93884 0.36398 0.86346 0.0
H1187 H 0.9712 0.32826 0.85781 0.0
H1188 H 0.96499 0.34146 0.88057 0.0
H1189 H 0.06634 0.45868 0.82899 0.0
H1190 H 0.04798 0.41655 0.81891 0.0
H1191 H 0.01923 0.45656 0.82253 0.0
H1192 H 0.98182 0.31803 0.79921 0.0
H1193 H 0.90618 0.40827 0.809 0.0
H1194 H 0.02522 0.31907 0.83981 0.0
H1195 H 0.0518 0.34996 0.82636 0.0
H1196 H 0.03293 0.30735 0.81699 0.0
H1197 H 0.93272 0.42945 0.85159 0.0
H1198 H 0.91279 0.45074 0.83229 0.0
H1199 H 0.95951 0.46011 0.83807 0.0
C1200 C 0.58932 0.48829 0.13752 0.0
C1201 C 0.58646 0.45642 0.14847 0.0
C1202 C 0.59888 0.48451 0.11971 0.0
C1203 C 0.60565 0.44806 0.11276 0.0
C1204 C 0.60553 0.41622 0.12406 0.0
C1205 C 0.59605 0.42082 0.1418 0.0
C1206 C 0.59921 0.51918 0.1081 0.0
C1207 C 0.6128 0.37687 0.11717 0.0
C1208 C 0.58038 0.42616 0.06549 0.0
C1209 C 0.61461 0.42381 0.05744 0.0
C1210 C 0.57711 0.43521 0.08339 0.0
C1211 C 0.60884 0.44238 0.09345 0.0
C1212 C 0.64338 0.44159 0.08526 0.0
C1213 C 0.64588 0.43215 0.06734 0.0
C1214 C 0.53974 0.43581 0.09167 0.0
C1215 C 0.67772 0.44959 0.09553 0.0
H1216 H 0.58215 0.51595 0.14258 0.0
H1217 H 0.59427 0.39611 0.15021 0.0
H1218 H 0.62333 0.5191 0.09932 0.0
H1219 H 0.57466 0.51911 0.09959 0.0
H1220 H 0.59929 0.54573 0.11592 0.0
H1221 H 0.61522 0.35575 0.12795 0.0
H1222 H 0.5902 0.36811 0.10836 0.0
H1223 H 0.63817 0.37641 0.10928 0.0
H1224 H 0.55609 0.4199 0.05792 0.0
H1225 H 0.67244 0.4307 0.06117 0.0
H1226 H 0.53491 0.4634 0.09821 0.0
H1227 H 0.53789 0.41358 0.10196 0.0
H1228 H 0.51776 0.43094 0.08187 0.0
H1229 H 0.67507 0.47654 0.1029 0.0
H1230 H 0.70204 0.45134 0.08688 0.0
H1231 H 0.68221 0.42684 0.10535 0.0
loop_
_geom_bond_atom_site_label_1
_geom_bond_atom_site_label_2
_geom_bond_distance
_geom_bond_site_symmetry_2
_ccdc_geom_bond_type
Mg0 O7 2.141 1_545 S
Mg0 O8 2.048 1_545 S
Mg0 O9 2.048 1_455 S
Mg0 O12 2.141 1_455 S
C1 O2 1.313 . S
C1 O8 1.195 . S
O2 C1 1.313 . S
C3 O4 1.245 . S
C3 O12 1.289 . S
O4 C3 1.245 . S
C5 O6 1.245 . S
C5 O7 1.289 . S
O6 C5 1.245 . S
O7 Mg0 2.141 1_565 S
O7 C5 1.289 . S
O8 Mg0 2.048 1_565 S
O8 C1 1.195 . S
O9 Mg0 2.048 1_655 S
O9 C10 1.195 . S
C10 O9 1.195 . S
C10 O11 1.313 1_545 S
O11 C10 1.313 1_565 S
O12 Mg0 2.141 1_655 S
O12 C3 1.289 . S
Mg13 O20 2.141 1_655 S
Mg13 O21 2.048 1_655 S
Mg13 O22 2.048 . S
Mg13 O25 2.141 . S
C14 O15 1.313 . S
C14 O21 1.195 . S
O15 C14 1.313 . S
C16 O17 1.245 . S
C16 O25 1.289 . S
O17 C16 1.245 . S
C18 O19 1.245 . S
C18 O20 1.289 . S
O19 C18 1.245 . S
O20 Mg13 2.141 1_455 S
O20 C18 1.289 . S
O21 Mg13 2.048 1_455 S
O21 C14 1.195 . S
O22 Mg13 2.048 . S
O22 C23 1.195 . S
C23 O22 1.195 . S
C23 O24 1.313 1_655 S
O24 C23 1.313 1_455 S
O25 Mg13 2.141 . S
O25 C16 1.289 . S
Mg26 O33 2.141 . S
Mg26 O34 2.048 . S
Mg26 O35 2.048 . S
Mg26 O38 2.141 . S
C27 O28 1.313 . S
C27 O34 1.195 . S
O28 C27 1.313 . S
C29 O30 1.245 . S
C29 O38 1.289 . S
O30 C29 1.245 . S
C31 O32 1.245 . S
C31 O33 1.289 . S
O32 C31 1.245 . S
O33 Mg26 2.141 . S
O33 C31 1.289 . S
O34 Mg26 2.048 . S
O34 C27 1.195 . S
O35 Mg26 2.048 . S
O35 C36 1.195 . S
C36 O35 1.195 . S
C36 O37 1.313 . S
O37 C36 1.313 . S
O38 Mg26 2.141 . S
O38 C29 1.289 . S
Mg39 O46 2.141 . S
Mg39 O47 2.048 . S
Mg39 O48 2.048 1_545 S
Mg39 O51 2.141 1_545 S
C40 O41 1.313 . S
C40 O47 1.195 . S
O41 C40 1.313 . S
C42 O43 1.245 . S
C42 O51 1.289 . S
O43 C42 1.245 . S
C44 O45 1.245 . S
C44 O46 1.289 . S
O45 C44 1.245 . S
O46 Mg39 2.141 . S
O46 C44 1.289 . S
O47 Mg39 2.048 . S
O47 C40 1.195 . S
O48 Mg39 2.048 1_565 S
O48 C49 1.195 . S
C49 O48 1.195 . S
C49 O50 1.313 . S
O50 C49 1.313 . S
O51 Mg39 2.141 1_565 S
O51 C42 1.289 . S
Mg52 O59 2.141 . S
Mg52 O60 2.048 . S
Mg52 O61 2.048 1_455 S
Mg52 O64 2.141 1_455 S
C53 O54 1.313 . S
C53 O60 1.195 . S
O54 C53 1.313 . S
C55 O56 1.245 . S
C55 O64 1.289 . S
O56 C55 1.245 . S
C57 O58 1.245 . S
C57 O59 1.289 . S
O58 C57 1.245 . S
O59 Mg52 2.141 . S
O59 C57 1.289 . S
O60 Mg52 2.048 . S
O60 C53 1.195 . S
O61 Mg52 2.048 1_655 S
O61 C62 1.195 . S
C62 O61 1.195 . S
C62 O63 1.313 . S
O63 C62 1.313 . S
O64 Mg52 2.141 1_655 S
O64 C55 1.289 . S
Mg65 O72 2.141 . S
Mg65 O73 2.048 . S
Mg65 O74 2.048 . S
Mg65 O77 2.141 . S
C66 O67 1.313 . S
C66 O73 1.195 . S
O67 C66 1.313 . S
C68 O69 1.245 . S
C68 O77 1.289 . S
O69 C68 1.245 . S
C70 O71 1.245 . S
C70 O72 1.289 . S
O71 C70 1.245 . S
O72 Mg65 2.141 . S
O72 C70 1.289 . S
O73 Mg65 2.048 . S
O73 C66 1.195 . S
O74 Mg65 2.048 . S
O74 C75 1.195 . S
C75 O74 1.195 . S
C75 O76 1.313 . S
O76 C75 1.313 . S
O77 Mg65 2.141 . S
O77 C68 1.289 . S
Mg78 O85 2.141 1_565 S
Mg78 O86 2.048 1_565 S
Mg78 O87 2.048 . S
Mg78 O90 2.141 . S
C79 O80 1.313 . S
C79 O86 1.195 . S
O80 C79 1.313 . S
C81 O82 1.245 . S
C81 O90 1.289 . S
O82 C81 1.245 . S
C83 O84 1.245 . S
C83 O85 1.289 . S
O84 C83 1.245 . S
O85 Mg78 2.141 1_545 S
O85 C83 1.289 . S
O86 Mg78 2.048 1_545 S
O86 C79 1.195 . S
O87 Mg78 2.048 . S
O87 C88 1.195 . S
C88 O87 1.195 . S
C88 O89 1.313 1_565 S
O89 C88 1.313 1_545 S
O90 Mg78 2.141 . S
O90 C81 1.289 . S
Mg91 O98 2.141 1_655 S
Mg91 O99 2.048 1_655 S
Mg91 O100 2.048 1_565 S
Mg91 O103 2.141 1_565 S
C92 O93 1.313 . S
C92 O99 1.195 . S
O93 C92 1.313 . S
C94 O95 1.245 . S
C94 O103 1.289 . S
O95 C94 1.245 . S
C96 O97 1.245 . S
C96 O98 1.289 . S
O97 C96 1.245 . S
O98 Mg91 2.141 1_455 S
O98 C96 1.289 . S
O99 Mg91 2.048 1_455 S
O99 C92 1.195 . S
O100 Mg91 2.048 1_545 S
O100 C101 1.195 . S
C101 O100 1.195 . S
C101 O102 1.313 1_655 S
O102 C101 1.313 1_455 S
O103 Mg91 2.141 1_545 S
O103 C94 1.289 . S
C104 O105 1.160 1_556 S
C104 O111 1.185 . S
O105 C104 1.160 1_554 S
O106 Zn107 1.899 . S
O106 C114 1.284 . S
Zn107 O106 1.899 . S
Zn107 O108 2.032 1_554 S
Zn107 O111 2.086 1_554 S
Zn107 O116 1.977 . S
O108 Zn107 2.032 1_556 S
O108 C112 1.278 . S
C109 O110 1.203 . S
C109 O116 1.267 . S
O110 C109 1.203 . S
O111 C104 1.185 . S
O111 Zn107 2.086 1_556 S
C112 O108 1.278 . S
C112 O113 1.211 . S
O113 C112 1.211 . S
C114 O106 1.284 . S
C114 O115 1.273 . S
O115 C114 1.273 . S
O116 Zn107 1.977 . S
O116 C109 1.267 . S
C117 O118 1.160 . S
C117 O124 1.185 . S
O118 C117 1.160 . S
O119 Zn120 1.899 . S
O119 C127 1.284 . S
Zn120 O119 1.899 . S
Zn120 O121 2.032 . S
Zn120 O124 2.086 . S
Zn120 O129 1.977 . S
O121 Zn120 2.032 . S
O121 C125 1.278 . S
C122 O123 1.203 . S
C122 O129 1.267 . S
O123 C122 1.203 . S
O124 C117 1.185 . S
O124 Zn120 2.086 . S
C125 O121 1.278 . S
C125 O126 1.211 . S
O126 C125 1.211 . S
C127 O119 1.284 . S
C127 O128 1.273 . S
O128 C127 1.273 . S
O129 Zn120 1.977 . S
O129 C122 1.267 . S
C130 O131 1.160 . S
C130 O137 1.185 . S
O131 C130 1.160 . S
O132 Zn133 1.899 . S
O132 C140 1.284 . S
Zn133 O132 1.899 . S
Zn133 O134 2.032 . S
Zn133 O137 2.086 . S
Zn133 O142 1.977 . S
O134 Zn133 2.032 . S
O134 C138 1.278 . S
C135 O136 1.203 . S
C135 O142 1.267 . S
O136 C135 1.203 . S
O137 C130 1.185 . S
O137 Zn133 2.086 . S
C138 O134 1.278 . S
C138 O139 1.211 . S
O139 C138 1.211 . S
C140 O132 1.284 . S
C140 O141 1.273 . S
O141 C140 1.273 . S
O142 Zn133 1.977 . S
O142 C135 1.267 . S
C143 O144 1.160 . S
C143 O150 1.185 . S
O144 C143 1.160 . S
O145 Zn146 1.899 . S
O145 C153 1.284 . S
Zn146 O145 1.899 . S
Zn146 O147 2.032 . S
Zn146 O150 2.086 . S
Zn146 O155 1.977 . S
O147 Zn146 2.032 . S
O147 C151 1.278 . S
C148 O149 1.203 . S
C148 O155 1.267 . S
O149 C148 1.203 . S
O150 C143 1.185 . S
O150 Zn146 2.086 . S
C151 O147 1.278 . S
C151 O152 1.211 . S
O152 C151 1.211 . S
C153 O145 1.284 . S
C153 O154 1.273 . S
O154 C153 1.273 . S
O155 Zn146 1.977 . S
O155 C148 1.267 . S
C156 O157 1.160 . S
C156 O163 1.185 . S
O157 C156 1.160 . S
O158 Zn159 1.899 . S
O158 C166 1.284 . S
Zn159 O158 1.899 . S
Zn159 O160 2.032 . S
Zn159 O163 2.086 . S
Zn159 O168 1.977 . S
O160 Zn159 2.032 . S
O160 C164 1.278 . S
C161 O162 1.203 . S
C161 O168 1.267 . S
O162 C161 1.203 . S
O163 C156 1.185 . S
O163 Zn159 2.086 . S
C164 O160 1.278 . S
C164 O165 1.211 . S
O165 C164 1.211 . S
C166 O158 1.284 . S
C166 O167 1.273 . S
O167 C166 1.273 . S
O168 Zn159 1.977 . S
O168 C161 1.267 . S
C169 O170 1.160 . S
C169 O176 1.185 . S
O170 C169 1.160 . S
O171 Zn172 1.899 . S
O171 C179 1.284 . S
Zn172 O171 1.899 . S
Zn172 O173 2.032 . S
Zn172 O176 2.086 . S
Zn172 O181 1.977 . S
O173 Zn172 2.032 . S
O173 C177 1.278 . S
C174 O175 1.203 . S
C174 O181 1.267 . S
O175 C174 1.203 . S
O176 C169 1.185 . S
O176 Zn172 2.086 . S
C177 O173 1.278 . S
C177 O178 1.211 . S
O178 C177 1.211 . S
C179 O171 1.284 . S
C179 O180 1.273 . S
O180 C179 1.273 . S
O181 Zn172 1.977 . S
O181 C174 1.267 . S
C182 O183 1.160 1_556 S
C182 O189 1.185 . S
O183 C182 1.160 1_554 S
O184 Zn185 1.899 . S
O184 C192 1.284 . S
Zn185 O184 1.899 . S
Zn185 O186 2.032 1_554 S
Zn185 O189 2.086 1_554 S
Zn185 O194 1.977 . S
O186 Zn185 2.032 1_556 S
O186 C190 1.278 . S
C187 O188 1.203 . S
C187 O194 1.267 . S
O188 C187 1.203 . S
O189 C182 1.185 . S
O189 Zn185 2.086 1_556 S
C190 O186 1.278 . S
C190 O191 1.211 . S
O191 C190 1.211 . S
C192 O184 1.284 . S
C192 O193 1.273 . S
O193 C192 1.273 . S
O194 Zn185 1.977 . S
O194 C187 1.267 . S
C195 O196 1.160 . S
C195 O202 1.185 . S
O196 C195 1.160 . S
O197 Zn198 1.899 . S
O197 C205 1.284 . S
Zn198 O197 1.899 . S
Zn198 O199 2.032 . S
Zn198 O202 2.086 . S
Zn198 O207 1.977 . S
O199 Zn198 2.032 . S
O199 C203 1.278 . S
C200 O201 1.203 . S
C200 O207 1.267 . S
O201 C200 1.203 . S
O202 C195 1.185 . S
O202 Zn198 2.086 . S
C203 O199 1.278 . S
C203 O204 1.211 . S
O204 C203 1.211 . S
C205 O197 1.284 . S
C205 O206 1.273 . S
O206 C205 1.273 . S
O207 Zn198 1.977 . S
O207 C200 1.267 . S
C208 C209 1.391 . S
C208 C210 1.394 . S
C208 H224 0.931 . S
C209 C208 1.391 . S
C209 C213 1.376 . S
C210 C208 1.394 . S
C210 C211 1.369 . S
C210 C214 1.531 . S
C211 C210 1.369 . S
C211 C212 1.410 . S
C211 C219 1.503 . S
C212 C211 1.410 . S
C212 C213 1.392 . S
C212 C215 1.511 . S
C213 C209 1.376 . S
C213 C212 1.392 . S
C213 H225 0.929 . S
C214 C210 1.531 . S
C214 H226 0.960 . S
C214 H227 0.962 . S
C214 H228 0.960 . S
C215 C212 1.511 . S
C215 H229 0.961 . S
C215 H230 0.961 . S
C215 H231 0.961 . S
C216 C217 1.370 . S
C216 C218 1.363 . S
C216 H232 0.931 . S
C217 C216 1.370 . S
C217 C221 1.408 . S
C218 C216 1.363 . S
C218 C219 1.370 . S
C218 C222 1.524 . S
C219 C211 1.503 . S
C219 C218 1.370 . S
C219 C220 1.403 . S
C220 C219 1.403 . S
C220 C221 1.404 . S
C220 C223 1.539 . S
C221 C217 1.408 . S
C221 C220 1.404 . S
C221 H233 0.930 . S
C222 C218 1.524 . S
C222 H234 0.956 . S
C222 H235 0.961 . S
C222 H236 0.961 . S
C223 C220 1.539 . S
C223 H237 0.958 . S
C223 H238 0.961 . S
C223 H239 0.960 . S
H224 C208 0.931 . S
H225 C213 0.929 . S
H226 C214 0.960 . S
H227 C214 0.962 . S
H228 C214 0.960 . S
H229 C215 0.961 . S
H230 C215 0.961 . S
H231 C215 0.961 . S
H232 C216 0.931 . S
H233 C221 0.930 . S
H234 C222 0.956 . S
H235 C222 0.961 . S
H236 C222 0.961 . S
H237 C223 0.958 . S
H238 C223 0.961 . S
H239 C223 0.960 . S
C240 C241 1.391 . S
C240 C242 1.394 . S
C240 H256 0.931 . S
C241 C240 1.391 . S
C241 C245 1.376 . S
C242 C240 1.394 . S
C242 C243 1.369 . S
C242 C246 1.531 . S
C243 C242 1.369 . S
C243 C244 1.410 . S
C243 C251 1.503 . S
C244 C243 1.410 . S
C244 C245 1.392 . S
C244 C247 1.511 . S
C245 C241 1.376 . S
C245 C244 1.392 . S
C245 H257 0.929 . S
C246 C242 1.531 . S
C246 H258 0.960 . S
C246 H259 0.962 . S
C246 H260 0.960 . S
C247 C244 1.511 . S
C247 H261 0.961 . S
C247 H262 0.961 . S
C247 H263 0.961 . S
C248 C249 1.370 . S
C248 C250 1.363 . S
C248 H264 0.931 . S
C249 C248 1.370 . S
C249 C253 1.408 . S
C250 C248 1.363 . S
C250 C251 1.370 . S
C250 C254 1.524 . S
C251 C243 1.503 . S
C251 C250 1.370 . S
C251 C252 1.403 . S
C252 C251 1.403 . S
C252 C253 1.404 . S
C252 C255 1.539 . S
C253 C249 1.408 . S
C253 C252 1.404 . S
C253 H265 0.930 . S
C254 C250 1.524 . S
C254 H266 0.956 . S
C254 H267 0.961 . S
C254 H268 0.961 . S
C255 C252 1.539 . S
C255 H269 0.958 . S
C255 H270 0.961 . S
C255 H271 0.960 . S
H256 C240 0.931 . S
H257 C245 0.929 . S
H258 C246 0.960 . S
H259 C246 0.962 . S
H260 C246 0.960 . S
H261 C247 0.961 . S
H262 C247 0.961 . S
H263 C247 0.961 . S
H264 C248 0.931 . S
H265 C253 0.930 . S
H266 C254 0.956 . S
H267 C254 0.961 . S
H268 C254 0.961 . S
H269 C255 0.958 . S
H270 C255 0.961 . S
H271 C255 0.960 . S
C272 C273 1.391 . S
C272 C274 1.394 . S
C272 H288 0.931 . S
C273 C272 1.391 . S
C273 C277 1.376 . S
C274 C272 1.394 . S
C274 C275 1.369 . S
C274 C278 1.531 . S
C275 C274 1.369 . S
C275 C276 1.410 . S
C275 C283 1.503 . S
C276 C275 1.410 . S
C276 C277 1.392 . S
C276 C279 1.511 . S
C277 C273 1.376 . S
C277 C276 1.392 . S
C277 H289 0.929 . S
C278 C274 1.531 . S
C278 H290 0.960 . S
C278 H291 0.962 . S
C278 H292 0.960 . S
C279 C276 1.511 . S
C279 H293 0.961 . S
C279 H294 0.961 . S
C279 H295 0.961 . S
C280 C281 1.370 . S
C280 C282 1.363 . S
C280 H296 0.931 . S
C281 C280 1.370 . S
C281 C285 1.408 . S
C282 C280 1.363 . S
C282 C283 1.370 . S
C282 C286 1.524 . S
C283 C275 1.503 . S
C283 C282 1.370 . S
C283 C284 1.403 . S
C284 C283 1.403 . S
C284 C285 1.404 . S
C284 C287 1.539 . S
C285 C281 1.408 . S
C285 C284 1.404 . S
C285 H297 0.930 . S
C286 C282 1.524 . S
C286 H298 0.956 . S
C286 H299 0.961 . S
C286 H300 0.961 . S
C287 C284 1.539 . S
C287 H301 0.958 . S
C287 H302 0.961 . S
C287 H303 0.960 . S
H288 C272 0.931 . S
H289 C277 0.929 . S
H290 C278 0.960 . S
H291 C278 0.962 . S
H292 C278 0.960 . S
H293 C279 0.961 . S
H294 C279 0.961 . S
H295 C279 0.961 . S
H296 C280 0.931 . S
H297 C285 0.930 . S
H298 C286 0.956 . S
H299 C286 0.961 . S
H300 C286 0.961 . S
H301 C287 0.958 . S
H302 C287 0.961 . S
H303 C287 0.960 . S
C304 C305 1.391 . S
C304 C306 1.394 . S
C304 H320 0.931 . S
C305 C304 1.391 . S
C305 C309 1.376 . S
C306 C304 1.394 . S
C306 C307 1.369 . S
C306 C310 1.531 . S
C307 C306 1.369 . S
C307 C308 1.410 . S
C307 C315 1.503 . S
C308 C307 1.410 . S
C308 C309 1.392 . S
C308 C311 1.511 . S
C309 C305 1.376 . S
C309 C308 1.392 . S
C309 H321 0.929 . S
C310 C306 1.531 . S
C310 H322 0.960 . S
C310 H323 0.962 . S
C310 H324 0.960 . S
C311 C308 1.511 . S
C311 H325 0.961 . S
C311 H326 0.961 . S
C311 H327 0.961 . S
C312 C313 1.370 . S
C312 C314 1.363 . S
C312 H328 0.931 . S
C313 C312 1.370 . S
C313 C317 1.408 . S
C314 C312 1.363 . S
C314 C315 1.370 . S
C314 C318 1.524 . S
C315 C307 1.503 . S
C315 C314 1.370 . S
C315 C316 1.403 . S
C316 C315 1.403 . S
C316 C317 1.404 . S
C316 C319 1.539 . S
C317 C313 1.408 . S
C317 C316 1.404 . S
C317 H329 0.930 1_554 S
C318 C314 1.524 . S
C318 H330 0.956 . S
C318 H331 0.961 . S
C318 H332 0.961 . S
C319 C316 1.539 . S
C319 H333 0.950 1_554 S
C319 H334 0.961 1_554 S
C319 H335 0.960 . S
H320 C304 0.931 . S
H321 C309 0.929 . S
H322 C310 0.960 . S
H323 C310 0.962 . S
H324 C310 0.960 . S
H325 C311 0.961 . S
H326 C311 0.961 . S
H327 C311 0.961 . S
H328 C312 0.931 . S
H329 C317 0.930 1_556 S
H330 C318 0.956 . S
H331 C318 0.961 . S
H332 C318 0.961 . S
H333 C319 0.950 1_556 S
H334 C319 0.961 1_556 S
H335 C319 0.960 . S
C336 C337 1.391 . S
C336 C338 1.394 . S
C336 H352 0.931 . S
C337 C336 1.391 . S
C337 C341 1.376 . S
C338 C336 1.394 . S
C338 C339 1.369 . S
C338 C342 1.531 . S
C339 C338 1.369 . S
C339 C340 1.410 . S
C339 C347 1.503 . S
C340 C339 1.410 . S
C340 C341 1.392 . S
C340 C343 1.511 . S
C341 C337 1.376 . S
C341 C340 1.392 . S
C341 H353 0.929 . S
C342 C338 1.531 . S
C342 H354 0.960 . S
C342 H355 0.962 . S
C342 H356 0.960 . S
C343 C340 1.511 . S
C343 H357 0.961 . S
C343 H358 0.961 . S
C343 H359 0.961 . S
C344 C345 1.370 . S
C344 C346 1.363 . S
C344 H360 0.931 . S
C345 C344 1.370 . S
C345 C349 1.408 . S
C346 C344 1.363 . S
C346 C347 1.370 . S
C346 C350 1.524 . S
C347 C339 1.503 . S
C347 C346 1.370 . S
C347 C348 1.403 . S
C348 C347 1.403 . S
C348 C349 1.404 . S
C348 C351 1.539 . S
C349 C345 1.408 . S
C349 C348 1.404 . S
C349 H361 0.930 1_556 S
C350 C346 1.524 . S
C350 H362 0.956 . S
C350 H363 0.961 . S
C350 H364 0.961 . S
C351 C348 1.539 . S
C351 H365 0.958 1_556 S
C351 H366 0.961 . S
C351 H367 0.960 . S
H352 C336 0.931 . S
H353 C341 0.929 . S
H354 C342 0.960 . S
H355 C342 0.962 . S
H356 C342 0.960 . S
H357 C343 0.961 . S
H358 C343 0.961 . S
H359 C343 0.961 . S
H360 C344 0.931 . S
H361 C349 0.930 1_554 S
H362 C350 0.956 . S
H363 C350 0.961 . S
H364 C350 0.961 . S
H365 C351 0.958 1_554 S
H366 C351 0.961 . S
H367 C351 0.960 . S
C368 C369 1.391 . S
C368 C370 1.394 . S
C368 H384 0.931 . S
C369 C368 1.391 . S
C369 C373 1.376 . S
C370 C368 1.394 . S
C370 C371 1.369 . S
C370 C374 1.531 . S
C371 C370 1.369 . S
C371 C372 1.410 . S
C371 C379 1.503 . S
C372 C371 1.410 . S
C372 C373 1.392 . S
C372 C375 1.511 . S
C373 C369 1.376 . S
C373 C372 1.392 . S
C373 H385 0.929 . S
C374 C370 1.531 . S
C374 H386 0.960 . S
C374 H387 0.962 . S
C374 H388 0.960 . S
C375 C372 1.511 . S
C375 H389 0.961 . S
C375 H390 0.961 . S
C375 H391 0.961 . S
C376 C377 1.370 . S
C376 C378 1.363 . S
C376 H392 0.931 . S
C377 C376 1.370 . S
C377 C381 1.408 . S
C378 C376 1.363 . S
C378 C379 1.370 . S
C378 C382 1.524 . S
C379 C371 1.503 . S
C379 C378 1.370 . S
C379 C380 1.403 . S
C380 C379 1.403 . S
C380 C381 1.404 . S
C380 C383 1.539 . S
C381 C377 1.408 . S
C381 C380 1.404 . S
C381 H393 0.930 . S
C382 C378 1.524 . S
C382 H394 0.956 . S
C382 H395 0.961 . S
C382 H396 0.961 . S
C383 C380 1.539 . S
C383 H397 0.958 . S
C383 H398 0.961 . S
C383 H399 0.960 . S
H384 C368 0.931 . S
H385 C373 0.929 . S
H386 C374 0.960 . S
H387 C374 0.962 . S
H388 C374 0.960 . S
H389 C375 0.961 . S
H390 C375 0.961 . S
H391 C375 0.961 . S
H392 C376 0.931 . S
H393 C381 0.930 . S
H394 C382 0.956 . S
H395 C382 0.961 . S
H396 C382 0.961 . S
H397 C383 0.958 . S
H398 C383 0.961 . S
H399 C383 0.960 . S
C400 C401 1.391 . S
C400 C402 1.394 . S
C400 H416 0.931 . S
C401 C400 1.391 . S
C401 C405 1.376 . S
C402 C400 1.394 . S
C402 C403 1.369 . S
C402 C406 1.531 . S
C403 C402 1.369 . S
C403 C404 1.410 . S
C403 C411 1.503 . S
C404 C403 1.410 . S
C404 C405 1.392 . S
C404 C407 1.511 . S
C405 C401 1.376 . S
C405 C404 1.392 . S
C405 H417 0.929 . S
C406 C402 1.531 . S
C406 H418 0.960 . S
C406 H419 0.962 . S
C406 H420 0.960 . S
C407 C404 1.511 . S
C407 H421 0.961 . S
C407 H422 0.961 . S
C407 H423 0.961 . S
C408 C409 1.370 . S
C408 C410 1.363 . S
C408 H424 0.931 . S
C409 C408 1.370 . S
C409 C413 1.408 . S
C410 C408 1.363 . S
C410 C411 1.370 . S
C410 C414 1.524 . S
C411 C403 1.503 . S
C411 C410 1.370 . S
C411 C412 1.403 . S
C412 C411 1.403 . S
C412 C413 1.404 . S
C412 C415 1.539 . S
C413 C409 1.408 . S
C413 C412 1.404 . S
C413 H425 0.930 . S
C414 C410 1.524 . S
C414 H426 0.956 . S
C414 H427 0.961 . S
C414 H428 0.961 . S
C415 C412 1.539 . S
C415 H429 0.958 . S
C415 H430 0.961 . S
C415 H431 0.960 . S
H416 C400 0.931 . S
H417 C405 0.929 . S
H418 C406 0.960 . S
H419 C406 0.962 . S
H420 C406 0.960 . S
H421 C407 0.961 . S
H422 C407 0.961 . S
H423 C407 0.961 . S
H424 C408 0.931 . S
H425 C413 0.930 . S
H426 C414 0.956 . S
H427 C414 0.961 . S
H428 C414 0.961 . S
H429 C415 0.958 . S
H430 C415 0.961 . S
H431 C415 0.960 . S
C432 C433 1.391 . S
C432 C434 1.394 . S
C432 H448 0.931 . S
C433 C432 1.391 . S
C433 C437 1.376 . S
C434 C432 1.394 . S
C434 C435 1.369 . S
C434 C438 1.531 . S
C435 C434 1.369 . S
C435 C436 1.410 . S
C435 C443 1.503 . S
C436 C435 1.410 . S
C436 C437 1.392 . S
C436 C439 1.511 . S
C437 C433 1.376 . S
C437 C436 1.392 . S
C437 H449 0.929 . S
C438 C434 1.531 . S
C438 H450 0.960 . S
C438 H451 0.962 . S
C438 H452 0.960 . S
C439 C436 1.511 . S
C439 H453 0.961 . S
C439 H454 0.961 . S
C439 H455 0.961 . S
C440 C441 1.370 . S
C440 C442 1.363 . S
C440 H456 0.931 . S
C441 C440 1.370 . S
C441 C445 1.408 . S
C442 C440 1.363 . S
C442 C443 1.370 . S
C442 C446 1.524 . S
C443 C435 1.503 . S
C443 C442 1.370 . S
C443 C444 1.403 . S
C444 C443 1.403 . S
C444 C445 1.404 . S
C444 C447 1.539 . S
C445 C441 1.408 . S
C445 C444 1.404 . S
C445 H457 0.930 . S
C446 C442 1.524 . S
C446 H458 0.956 . S
C446 H459 0.961 . S
C446 H460 0.961 . S
C447 C444 1.539 . S
C447 H461 0.958 . S
C447 H462 0.961 . S
C447 H463 0.960 . S
H448 C432 0.931 . S
H449 C437 0.929 . S
H450 C438 0.960 . S
H451 C438 0.962 . S
H452 C438 0.960 . S
H453 C439 0.961 . S
H454 C439 0.961 . S
H455 C439 0.961 . S
H456 C440 0.931 . S
H457 C445 0.930 . S
H458 C446 0.956 . S
H459 C446 0.961 . S
H460 C446 0.961 . S
H461 C447 0.958 . S
H462 C447 0.961 . S
H463 C447 0.960 . S
C464 C465 1.391 . S
C464 C466 1.394 . S
C464 H480 0.931 . S
C465 C464 1.391 . S
C465 C469 1.376 . S
C466 C464 1.394 . S
C466 C467 1.369 . S
C466 C470 1.531 . S
C467 C466 1.369 . S
C467 C468 1.410 . S
C467 C475 1.503 . S
C468 C467 1.410 . S
C468 C469 1.392 . S
C468 C471 1.511 . S
C469 C465 1.376 . S
C469 C468 1.392 . S
C469 H481 0.929 . S
C470 C466 1.531 . S
C470 H482 0.960 . S
C470 H483 0.962 . S
C470 H484 0.960 . S
C471 C468 1.511 . S
C471 H485 0.961 . S
C471 H486 0.961 . S
C471 H487 0.961 . S
C472 C473 1.370 . S
C472 C474 1.363 . S
C472 H488 0.931 . S
C473 C472 1.370 . S
C473 C477 1.408 . S
C474 C472 1.363 . S
C474 C475 1.370 . S
C474 C478 1.524 . S
C475 C467 1.503 . S
C475 C474 1.370 . S
C475 C476 1.403 . S
C476 C475 1.403 . S
C476 C477 1.404 . S
C476 C479 1.539 . S
C477 C473 1.408 . S
C477 C476 1.404 . S
C477 H489 0.930 . S
C478 C474 1.524 . S
C478 H490 0.956 . S
C478 H491 0.961 . S
C478 H492 0.961 . S
C479 C476 1.539 . S
C479 H493 0.958 . S
C479 H494 0.961 . S
C479 H495 0.960 . S
H480 C464 0.931 . S
H481 C469 0.929 . S
H482 C470 0.960 . S
H483 C470 0.962 . S
H484 C470 0.960 . S
H485 C471 0.961 . S
H486 C471 0.961 . S
H487 C471 0.961 . S
H488 C472 0.931 . S
H489 C477 0.930 . S
H490 C478 0.956 . S
H491 C478 0.961 . S
H492 C478 0.961 . S
H493 C479 0.958 . S
H494 C479 0.961 . S
H495 C479 0.960 . S
C496 C497 1.391 . S
C496 C498 1.394 . S
C496 H512 0.931 . S
C497 C496 1.391 . S
C497 C501 1.376 . S
C498 C496 1.394 . S
C498 C499 1.369 . S
C498 C502 1.531 . S
C499 C498 1.369 . S
C499 C500 1.410 . S
C499 C507 1.503 . S
C500 C499 1.410 . S
C500 C501 1.392 . S
C500 C503 1.511 . S
C501 C497 1.376 . S
C501 C500 1.392 . S
C501 H513 0.929 . S
C502 C498 1.531 . S
C502 H514 0.960 . S
C502 H515 0.962 . S
C502 H516 0.960 . S
C503 C500 1.511 . S
C503 H517 0.961 . S
C503 H518 0.961 . S
C503 H519 0.961 . S
C504 C505 1.370 . S
C504 C506 1.363 . S
C504 H520 0.931 . S
C505 C504 1.370 . S
C505 C509 1.408 . S
C506 C504 1.363 . S
C506 C507 1.370 . S
C506 C510 1.524 . S
C507 C499 1.503 . S
C507 C506 1.370 . S
C507 C508 1.403 . S
C508 C507 1.403 . S
C508 C509 1.404 . S
C508 C511 1.539 . S
C509 C505 1.408 . S
C509 C508 1.404 . S
C509 H521 0.930 1_554 S
C510 C506 1.524 . S
C510 H522 0.956 . S
C510 H523 0.961 . S
C510 H524 0.961 . S
C511 C508 1.539 . S
C511 H525 0.967 . S
C511 H526 0.961 1_554 S
C511 H527 0.960 . S
H512 C496 0.931 . S
H513 C501 0.929 . S
H514 C502 0.960 . S
H515 C502 0.962 . S
H516 C502 0.960 . S
H517 C503 0.961 . S
H518 C503 0.961 . S
H519 C503 0.961 . S
H520 C504 0.931 . S
H521 C509 0.930 1_556 S
H522 C510 0.956 . S
H523 C510 0.961 . S
H524 C510 0.961 . S
H525 C511 0.967 . S
H526 C511 0.961 1_556 S
H527 C511 0.960 . S
C528 C529 1.391 . S
C528 C530 1.394 . S
C528 H544 0.931 . S
C529 C528 1.391 . S
C529 C533 1.376 . S
C530 C528 1.394 . S
C530 C531 1.369 . S
C530 C534 1.531 . S
C531 C530 1.369 . S
C531 C532 1.410 . S
C531 C539 1.503 . S
C532 C531 1.410 . S
C532 C533 1.392 . S
C532 C535 1.511 . S
C533 C529 1.376 . S
C533 C532 1.392 . S
C533 H545 0.929 . S
C534 C530 1.531 . S
C534 H546 0.960 . S
C534 H547 0.962 . S
C534 H548 0.960 . S
C535 C532 1.511 . S
C535 H549 0.961 . S
C535 H550 0.961 . S
C535 H551 0.961 . S
C536 C537 1.370 . S
C536 C538 1.363 . S
C536 H552 0.931 . S
C537 C536 1.370 . S
C537 C541 1.408 . S
C538 C536 1.363 . S
C538 C539 1.370 . S
C538 C542 1.524 . S
C539 C531 1.503 . S
C539 C538 1.370 . S
C539 C540 1.403 . S
C540 C539 1.403 . S
C540 C541 1.404 . S
C540 C543 1.539 . S
C541 C537 1.408 . S
C541 C540 1.404 . S
C541 H553 0.930 . S
C542 C538 1.524 . S
C542 H554 0.956 . S
C542 H555 0.961 . S
C542 H556 0.961 . S
C543 C540 1.539 . S
C543 H557 0.958 . S
C543 H558 0.961 . S
C543 H559 0.960 . S
H544 C528 0.931 . S
H545 C533 0.929 . S
H546 C534 0.960 . S
H547 C534 0.962 . S
H548 C534 0.960 . S
H549 C535 0.961 . S
H550 C535 0.961 . S
H551 C535 0.961 . S
H552 C536 0.931 . S
H553 C541 0.930 . S
H554 C542 0.956 . S
H555 C542 0.961 . S
H556 C542 0.961 . S
H557 C543 0.958 . S
H558 C543 0.961 . S
H559 C543 0.960 . S
C560 C561 1.391 . S
C560 C562 1.394 . S
C560 H576 0.931 . S
C561 C560 1.391 . S
C561 C565 1.376 . S
C562 C560 1.394 . S
C562 C563 1.369 . S
C562 C566 1.531 . S
C563 C562 1.369 . S
C563 C564 1.410 . S
C563 C571 1.503 . S
C564 C563 1.410 . S
C564 C565 1.392 . S
C564 C567 1.511 . S
C565 C561 1.376 . S
C565 C564 1.392 . S
C565 H577 0.929 . S
C566 C562 1.531 . S
C566 H578 0.960 . S
C566 H579 0.962 . S
C566 H580 0.960 . S
C567 C564 1.511 . S
C567 H581 0.961 . S
C567 H582 0.961 . S
C567 H583 0.961 . S
C568 C569 1.370 . S
C568 C570 1.363 . S
C568 H584 0.931 . S
C569 C568 1.370 . S
C569 C573 1.408 . S
C570 C568 1.363 . S
C570 C571 1.370 . S
C570 C574 1.524 . S
C571 C563 1.503 . S
C571 C570 1.370 . S
C571 C572 1.403 . S
C572 C571 1.403 . S
C572 C573 1.404 . S
C572 C575 1.539 . S
C573 C569 1.408 . S
C573 C572 1.404 . S
C573 H585 0.930 . S
C574 C570 1.524 . S
C574 H586 0.956 . S
C574 H587 0.961 . S
C574 H588 0.961 . S
C575 C572 1.539 . S
C575 H589 0.958 . S
C575 H590 0.961 . S
C575 H591 0.960 . S
H576 C560 0.931 . S
H577 C565 0.929 . S
H578 C566 0.960 . S
H579 C566 0.962 . S
H580 C566 0.960 . S
H581 C567 0.961 . S
H582 C567 0.961 . S
H583 C567 0.961 . S
H584 C568 0.931 . S
H585 C573 0.930 . S
H586 C574 0.956 . S
H587 C574 0.961 . S
H588 C574 0.961 . S
H589 C575 0.958 . S
H590 C575 0.961 . S
H591 C575 0.960 . S
C592 C593 1.391 . S
C592 C594 1.394 . S
C592 H608 0.931 . S
C593 C592 1.391 . S
C593 C597 1.376 . S
C594 C592 1.394 . S
C594 C595 1.369 . S
C594 C598 1.531 . S
C595 C594 1.369 . S
C595 C596 1.410 . S
C595 C603 1.503 . S
C596 C595 1.410 . S
C596 C597 1.392 . S
C596 C599 1.511 . S
C597 C593 1.376 . S
C597 C596 1.392 . S
C597 H609 0.929 . S
C598 C594 1.531 . S
C598 H610 0.960 . S
C598 H611 0.962 . S
C598 H612 0.960 . S
C599 C596 1.511 . S
C599 H613 0.961 . S
C599 H614 0.961 . S
C599 H615 0.961 . S
C600 C601 1.370 . S
C600 C602 1.363 . S
C600 H616 0.931 . S
C601 C600 1.370 . S
C601 C605 1.408 . S
C602 C600 1.363 . S
C602 C603 1.370 . S
C602 C606 1.524 . S
C603 C595 1.503 . S
C603 C602 1.370 . S
C603 C604 1.403 . S
C604 C603 1.403 . S
C604 C605 1.404 . S
C604 C607 1.539 . S
C605 C601 1.408 . S
C605 C604 1.404 . S
C605 H617 0.930 . S
C606 C602 1.524 . S
C606 H618 0.956 . S
C606 H619 0.961 . S
C606 H620 0.961 . S
C607 C604 1.539 . S
C607 H621 0.958 . S
C607 H622 0.961 . S
C607 H623 0.960 . S
H608 C592 0.931 . S
H609 C597 0.929 . S
H610 C598 0.960 . S
H611 C598 0.962 . S
H612 C598 0.960 . S
H613 C599 0.961 . S
H614 C599 0.961 . S
H615 C599 0.961 . S
H616 C600 0.931 . S
H617 C605 0.930 . S
H618 C606 0.956 . S
H619 C606 0.961 . S
H620 C606 0.961 . S
H621 C607 0.958 . S
H622 C607 0.961 . S
H623 C607 0.960 . S
C624 C625 1.391 . S
C624 C626 1.394 . S
C624 H640 0.931 . S
C625 C624 1.391 . S
C625 C629 1.376 . S
C626 C624 1.394 . S
C626 C627 1.369 . S
C626 C630 1.531 . S
C627 C626 1.369 . S
C627 C628 1.410 . S
C627 C635 1.503 . S
C628 C627 1.410 . S
C628 C629 1.392 . S
C628 C631 1.511 . S
C629 C625 1.376 . S
C629 C628 1.392 . S
C629 H641 0.929 . S
C630 C626 1.531 . S
C630 H642 0.960 . S
C630 H643 0.962 . S
C630 H644 0.960 . S
C631 C628 1.511 . S
C631 H645 0.961 . S
C631 H646 0.961 . S
C631 H647 0.961 . S
C632 C633 1.370 . S
C632 C634 1.363 . S
C632 H648 0.931 . S
C633 C632 1.370 . S
C633 C637 1.408 . S
C634 C632 1.363 . S
C634 C635 1.370 . S
C634 C638 1.524 . S
C635 C627 1.503 . S
C635 C634 1.370 . S
C635 C636 1.403 . S
C636 C635 1.403 . S
C636 C637 1.404 . S
C636 C639 1.539 . S
C637 C633 1.408 . S
C637 C636 1.404 . S
C637 H649 0.930 . S
C638 C634 1.524 . S
C638 H650 0.956 . S
C638 H651 0.961 . S
C638 H652 0.961 . S
C639 C636 1.539 . S
C639 H653 0.958 . S
C639 H654 0.961 . S
C639 H655 0.960 . S
H640 C624 0.931 . S
H641 C629 0.929 . S
H642 C630 0.960 . S
H643 C630 0.962 . S
H644 C630 0.960 . S
H645 C631 0.961 . S
H646 C631 0.961 . S
H647 C631 0.961 . S
H648 C632 0.931 . S
H649 C637 0.930 . S
H650 C638 0.956 . S
H651 C638 0.961 . S
H652 C638 0.961 . S
H653 C639 0.958 . S
H654 C639 0.961 . S
H655 C639 0.960 . S
C656 C657 1.391 . S
C656 C658 1.394 . S
C656 H672 0.931 . S
C657 C656 1.391 . S
C657 C661 1.376 . S
C658 C656 1.394 . S
C658 C659 1.369 . S
C658 C662 1.531 . S
C659 C658 1.369 . S
C659 C660 1.410 . S
C659 C667 1.503 . S
C660 C659 1.410 . S
C660 C661 1.392 . S
C660 C663 1.511 . S
C661 C657 1.376 . S
C661 C660 1.392 . S
C661 H673 0.929 . S
C662 C658 1.531 . S
C662 H674 0.960 . S
C662 H675 0.962 . S
C662 H676 0.960 . S
C663 C660 1.511 . S
C663 H677 0.961 . S
C663 H678 0.961 . S
C663 H679 0.961 . S
C664 C665 1.370 . S
C664 C666 1.363 . S
C664 H680 0.931 . S
C665 C664 1.370 . S
C665 C669 1.408 . S
C666 C664 1.363 . S
C666 C667 1.370 . S
C666 C670 1.524 . S
C667 C659 1.503 . S
C667 C666 1.370 . S
C667 C668 1.403 . S
C668 C667 1.403 . S
C668 C669 1.404 . S
C668 C671 1.539 . S
C669 C665 1.408 . S
C669 C668 1.404 . S
C669 H681 0.930 . S
C670 C666 1.524 . S
C670 H682 0.956 . S
C670 H683 0.961 . S
C670 H684 0.961 . S
C671 C668 1.539 . S
C671 H685 0.958 . S
C671 H686 0.961 . S
C671 H687 0.960 . S
H672 C656 0.931 . S
H673 C661 0.929 . S
H674 C662 0.960 . S
H675 C662 0.962 . S
H676 C662 0.960 . S
H677 C663 0.961 . S
H678 C663 0.961 . S
H679 C663 0.961 . S
H680 C664 0.931 . S
H681 C669 0.930 . S
H682 C670 0.956 . S
H683 C670 0.961 . S
H684 C670 0.961 . S
H685 C671 0.958 . S
H686 C671 0.961 . S
H687 C671 0.960 . S
C688 C689 1.391 . S
C688 C690 1.394 . S
C688 H704 0.931 . S
C689 C688 1.391 . S
C689 C693 1.376 . S
C690 C688 1.394 . S
C690 C691 1.369 . S
C690 C694 1.531 . S
C691 C690 1.369 . S
C691 C692 1.410 . S
C691 C699 1.503 . S
C692 C691 1.410 . S
C692 C693 1.392 . S
C692 C695 1.511 . S
C693 C689 1.376 . S
C693 C692 1.392 . S
C693 H705 0.929 . S
C694 C690 1.531 . S
C694 H706 0.960 . S
C694 H707 0.962 . S
C694 H708 0.960 . S
C695 C692 1.511 . S
C695 H709 0.961 . S
C695 H710 0.961 . S
C695 H711 0.961 . S
C696 C697 1.370 . S
C696 C698 1.363 . S
C696 H712 0.931 . S
C697 C696 1.370 . S
C697 C701 1.408 . S
C698 C696 1.363 . S
C698 C699 1.370 . S
C698 C702 1.524 . S
C699 C691 1.503 . S
C699 C698 1.370 . S
C699 C700 1.403 . S
C700 C699 1.403 . S
C700 C701 1.404 . S
C700 C703 1.539 . S
C701 C697 1.408 . S
C701 C700 1.404 . S
C701 H713 0.930 . S
C702 C698 1.524 . S
C702 H714 0.956 . S
C702 H715 0.961 . S
C702 H716 0.961 . S
C703 C700 1.539 . S
C703 H717 0.958 . S
C703 H718 0.961 . S
C703 H719 0.960 . S
H704 C688 0.931 . S
H705 C693 0.929 . S
H706 C694 0.960 . S
H707 C694 0.962 . S
H708 C694 0.960 . S
H709 C695 0.961 . S
H710 C695 0.961 . S
H711 C695 0.961 . S
H712 C696 0.931 . S
H713 C701 0.930 . S
H714 C702 0.956 . S
H715 C702 0.961 . S
H716 C702 0.961 . S
H717 C703 0.958 . S
H718 C703 0.961 . S
H719 C703 0.960 . S
C720 C721 1.391 . S
C720 C722 1.394 . S
C720 H736 0.931 . S
C721 C720 1.391 . S
C721 C725 1.376 . S
C722 C720 1.394 . S
C722 C723 1.369 . S
C722 C726 1.531 . S
C723 C722 1.369 . S
C723 C724 1.410 . S
C723 C731 1.503 . S
C724 C723 1.410 . S
C724 C725 1.392 . S
C724 C727 1.511 . S
C725 C721 1.376 . S
C725 C724 1.392 . S
C725 H737 0.929 . S
C726 C722 1.531 . S
C726 H738 0.960 . S
C726 H739 0.962 . S
C726 H740 0.960 . S
C727 C724 1.511 . S
C727 H741 0.961 . S
C727 H742 0.961 . S
C727 H743 0.961 . S
C728 C729 1.370 . S
C728 C730 1.363 . S
C728 H744 0.931 . S
C729 C728 1.370 . S
C729 C733 1.408 . S
C730 C728 1.363 . S
C730 C731 1.370 . S
C730 C734 1.524 . S
C731 C723 1.503 . S
C731 C730 1.370 . S
C731 C732 1.403 . S
C732 C731 1.403 . S
C732 C733 1.404 . S
C732 C735 1.539 . S
C733 C729 1.408 . S
C733 C732 1.404 . S
C733 H745 0.930 . S
C734 C730 1.524 . S
C734 H746 0.956 . S
C734 H747 0.961 . S
C734 H748 0.961 . S
C735 C732 1.539 . S
C735 H749 0.958 . S
C735 H750 0.961 . S
C735 H751 0.960 . S
H736 C720 0.931 . S
H737 C725 0.929 . S
H738 C726 0.960 . S
H739 C726 0.962 . S
H740 C726 0.960 . S
H741 C727 0.961 . S
H742 C727 0.961 . S
H743 C727 0.961 . S
H744 C728 0.931 . S
H745 C733 0.930 . S
H746 C734 0.956 . S
H747 C734 0.961 . S
H748 C734 0.961 . S
H749 C735 0.958 . S
H750 C735 0.961 . S
H751 C735 0.960 . S
C752 C753 1.391 . S
C752 C754 1.394 . S
C752 H768 0.931 . S
C753 C752 1.391 . S
C753 C757 1.376 . S
C754 C752 1.394 . S
C754 C755 1.369 . S
C754 C758 1.531 . S
C755 C754 1.369 . S
C755 C756 1.410 . S
C755 C763 1.503 . S
C756 C755 1.410 . S
C756 C757 1.392 . S
C756 C759 1.511 . S
C757 C753 1.376 . S
C757 C756 1.392 . S
C757 H769 0.929 . S
C758 C754 1.531 . S
C758 H770 0.960 . S
C758 H771 0.962 . S
C758 H772 0.960 . S
C759 C756 1.511 . S
C759 H773 0.961 . S
C759 H774 0.961 . S
C759 H775 0.961 . S
C760 C761 1.370 . S
C760 C762 1.363 . S
C760 H776 0.931 . S
C761 C760 1.370 . S
C761 C765 1.408 . S
C762 C760 1.363 . S
C762 C763 1.370 . S
C762 C766 1.524 . S
C763 C755 1.503 . S
C763 C762 1.370 . S
C763 C764 1.403 . S
C764 C763 1.403 . S
C764 C765 1.404 . S
C764 C767 1.539 . S
C765 C761 1.408 . S
C765 C764 1.404 . S
C765 H777 0.930 . S
C766 C762 1.524 . S
C766 H778 0.956 . S
C766 H779 0.961 . S
C766 H780 0.961 . S
C767 C764 1.539 . S
C767 H781 0.958 . S
C767 H782 0.961 . S
C767 H783 0.960 . S
H768 C752 0.931 . S
H769 C757 0.929 . S
H770 C758 0.960 . S
H771 C758 0.962 . S
H772 C758 0.960 . S
H773 C759 0.961 . S
H774 C759 0.961 . S
H775 C759 0.961 . S
H776 C760 0.931 . S
H777 C765 0.930 . S
H778 C766 0.956 . S
H779 C766 0.961 . S
H780 C766 0.961 . S
H781 C767 0.958 . S
H782 C767 0.961 . S
H783 C767 0.960 . S
C784 C785 1.391 . S
C784 C786 1.394 . S
C784 H800 0.931 . S
C785 C784 1.391 . S
C785 C789 1.376 . S
C786 C784 1.394 . S
C786 C787 1.369 . S
C786 C790 1.531 . S
C787 C786 1.369 . S
C787 C788 1.410 . S
C787 C795 1.503 . S
C788 C787 1.410 . S
C788 C789 1.392 . S
C788 C791 1.511 . S
C789 C785 1.376 . S
C789 C788 1.392 . S
C789 H801 0.929 . S
C790 C786 1.531 . S
C790 H802 0.960 . S
C790 H803 0.962 . S
C790 H804 0.960 . S
C791 C788 1.511 . S
C791 H805 0.961 . S
C791 H806 0.961 . S
C791 H807 0.961 . S
C792 C793 1.370 . S
C792 C794 1.363 . S
C792 H808 0.931 . S
C793 C792 1.370 . S
C793 C797 1.408 . S
C794 C792 1.363 . S
C794 C795 1.370 . S
C794 C798 1.524 . S
C795 C787 1.503 . S
C795 C794 1.370 . S
C795 C796 1.403 . S
C796 C795 1.403 . S
C796 C797 1.404 . S
C796 C799 1.539 . S
C797 C793 1.408 . S
C797 C796 1.404 . S
C797 H809 0.930 . S
C798 C794 1.524 . S
C798 H810 0.956 . S
C798 H811 0.961 . S
C798 H812 0.961 . S
C799 C796 1.539 . S
C799 H813 0.958 . S
C799 H814 0.961 . S
C799 H815 0.960 . S
H800 C784 0.931 . S
H801 C789 0.929 . S
H802 C790 0.960 . S
H803 C790 0.962 . S
H804 C790 0.960 . S
H805 C791 0.961 . S
H806 C791 0.961 . S
H807 C791 0.961 . S
H808 C792 0.931 . S
H809 C797 0.930 . S
H810 C798 0.956 . S
H811 C798 0.961 . S
H812 C798 0.961 . S
H813 C799 0.958 . S
H814 C799 0.961 . S
H815 C799 0.960 . S
C816 C817 1.391 . S
C816 C818 1.394 . S
C816 H832 0.931 . S
C817 C816 1.391 . S
C817 C821 1.376 . S
C818 C816 1.394 . S
C818 C819 1.369 . S
C818 C822 1.531 . S
C819 C818 1.369 . S
C819 C820 1.410 . S
C819 C827 1.503 . S
C820 C819 1.410 . S
C820 C821 1.392 . S
C820 C823 1.511 . S
C821 C817 1.376 . S
C821 C820 1.392 . S
C821 H833 0.929 . S
C822 C818 1.531 . S
C822 H834 0.960 . S
C822 H835 0.962 . S
C822 H836 0.960 . S
C823 C820 1.511 . S
C823 H837 0.961 . S
C823 H838 0.961 . S
C823 H839 0.961 . S
C824 C825 1.370 . S
C824 C826 1.363 . S
C824 H840 0.931 . S
C825 C824 1.370 . S
C825 C829 1.408 . S
C826 C824 1.363 . S
C826 C827 1.370 . S
C826 C830 1.524 . S
C827 C819 1.503 . S
C827 C826 1.370 . S
C827 C828 1.403 . S
C828 C827 1.403 . S
C828 C829 1.404 . S
C828 C831 1.539 . S
C829 C825 1.408 . S
C829 C828 1.404 . S
C829 H841 0.930 . S
C830 C826 1.524 . S
C830 H842 0.956 . S
C830 H843 0.961 . S
C830 H844 0.961 . S
C831 C828 1.539 . S
C831 H845 0.958 . S
C831 H846 0.961 . S
C831 H847 0.960 . S
H832 C816 0.931 . S
H833 C821 0.929 . S
H834 C822 0.960 . S
H835 C822 0.962 . S
H836 C822 0.960 . S
H837 C823 0.961 . S
H838 C823 0.961 . S
H839 C823 0.961 . S
H840 C824 0.931 . S
H841 C829 0.930 . S
H842 C830 0.956 . S
H843 C830 0.961 . S
H844 C830 0.961 . S
H845 C831 0.958 . S
H846 C831 0.961 . S
H847 C831 0.960 . S
C848 C849 1.391 . S
C848 C850 1.394 . S
C848 H864 0.931 . S
C849 C848 1.391 . S
C849 C853 1.376 . S
C850 C848 1.394 . S
C850 C851 1.369 . S
C850 C854 1.531 . S
C851 C850 1.369 . S
C851 C852 1.410 . S
C851 C859 1.503 . S
C852 C851 1.410 . S
C852 C853 1.392 . S
C852 C855 1.511 . S
C853 C849 1.376 . S
C853 C852 1.392 . S
C853 H865 0.929 . S
C854 C850 1.531 . S
C854 H866 0.960 . S
C854 H867 0.962 . S
C854 H868 0.960 . S
C855 C852 1.511 . S
C855 H869 0.961 . S
C855 H870 0.961 . S
C855 H871 0.961 . S
C856 C857 1.370 . S
C856 C858 1.363 . S
C856 H872 0.931 . S
C857 C856 1.370 . S
C857 C861 1.408 . S
C858 C856 1.363 . S
C858 C859 1.370 . S
C858 C862 1.524 . S
C859 C851 1.503 . S
C859 C858 1.370 . S
C859 C860 1.403 . S
C860 C859 1.403 . S
C860 C861 1.404 . S
C860 C863 1.539 . S
C861 C857 1.408 . S
C861 C860 1.404 . S
C861 H873 0.930 . S
C862 C858 1.524 . S
C862 H874 0.956 . S
C862 H875 0.961 . S
C862 H876 0.961 . S
C863 C860 1.539 . S
C863 H877 0.958 . S
C863 H878 0.961 . S
C863 H879 0.960 . S
H864 C848 0.931 . S
H865 C853 0.929 . S
H866 C854 0.960 . S
H867 C854 0.962 . S
H868 C854 0.960 . S
H869 C855 0.961 . S
H870 C855 0.961 . S
H871 C855 0.961 . S
H872 C856 0.931 . S
H873 C861 0.930 . S
H874 C862 0.956 . S
H875 C862 0.961 . S
H876 C862 0.961 . S
H877 C863 0.958 . S
H878 C863 0.961 . S
H879 C863 0.960 . S
C880 C881 1.391 . S
C880 C882 1.394 . S
C880 H896 0.931 . S
C881 C880 1.391 . S
C881 C885 1.376 . S
C882 C880 1.394 . S
C882 C883 1.369 . S
C882 C886 1.531 . S
C883 C882 1.369 . S
C883 C884 1.410 . S
C883 C891 1.503 . S
C884 C883 1.410 . S
C884 C885 1.392 . S
C884 C887 1.511 . S
C885 C881 1.376 . S
C885 C884 1.392 . S
C885 H897 0.929 . S
C886 C882 1.531 . S
C886 H898 0.960 . S
C886 H899 0.962 . S
C886 H900 0.960 . S
C887 C884 1.511 . S
C887 H901 0.961 . S
C887 H902 0.961 . S
C887 H903 0.961 . S
C888 C889 1.370 . S
C888 C890 1.363 . S
C888 H904 0.931 . S
C889 C888 1.370 . S
C889 C893 1.408 . S
C890 C888 1.363 . S
C890 C891 1.370 . S
C890 C894 1.524 . S
C891 C883 1.503 . S
C891 C890 1.370 . S
C891 C892 1.403 . S
C892 C891 1.403 . S
C892 C893 1.404 . S
C892 C895 1.539 . S
C893 C889 1.408 . S
C893 C892 1.404 . S
C893 H905 0.930 . S
C894 C890 1.524 . S
C894 H906 0.956 . S
C894 H907 0.961 . S
C894 H908 0.961 . S
C895 C892 1.539 . S
C895 H909 0.958 . S
C895 H910 0.961 . S
C895 H911 0.960 . S
H896 C880 0.931 . S
H897 C885 0.929 . S
H898 C886 0.960 . S
H899 C886 0.962 . S
H900 C886 0.960 . S
H901 C887 0.961 . S
H902 C887 0.961 . S
H903 C887 0.961 . S
H904 C888 0.931 . S
H905 C893 0.930 . S
H906 C894 0.956 . S
H907 C894 0.961 . S
H908 C894 0.961 . S
H909 C895 0.958 . S
H910 C895 0.961 . S
H911 C895 0.960 . S
C912 C913 1.391 . S
C912 C914 1.394 . S
C912 H928 0.931 . S
C913 C912 1.391 . S
C913 C917 1.376 . S
C914 C912 1.394 . S
C914 C915 1.369 . S
C914 C918 1.531 . S
C915 C914 1.369 . S
C915 C916 1.410 . S
C915 C923 1.503 . S
C916 C915 1.410 . S
C916 C917 1.392 . S
C916 C919 1.511 . S
C917 C913 1.376 . S
C917 C916 1.392 . S
C917 H929 0.929 . S
C918 C914 1.531 . S
C918 H930 0.960 . S
C918 H931 0.962 . S
C918 H932 0.960 . S
C919 C916 1.511 . S
C919 H933 0.961 . S
C919 H934 0.961 . S
C919 H935 0.961 . S
C920 C921 1.370 . S
C920 C922 1.363 . S
C920 H936 0.931 . S
C921 C920 1.370 . S
C921 C925 1.408 . S
C922 C920 1.363 . S
C922 C923 1.370 . S
C922 C926 1.524 . S
C923 C915 1.503 . S
C923 C922 1.370 . S
C923 C924 1.403 . S
C924 C923 1.403 . S
C924 C925 1.404 . S
C924 C927 1.539 . S
C925 C921 1.408 . S
C925 C924 1.404 . S
C925 H937 0.930 . S
C926 C922 1.524 . S
C926 H938 0.956 . S
C926 H939 0.961 . S
C926 H940 0.961 . S
C927 C924 1.539 . S
C927 H941 0.958 . S
C927 H942 0.961 . S
C927 H943 0.960 . S
H928 C912 0.931 . S
H929 C917 0.929 . S
H930 C918 0.960 . S
H931 C918 0.962 . S
H932 C918 0.960 . S
H933 C919 0.961 . S
H934 C919 0.961 . S
H935 C919 0.961 . S
H936 C920 0.931 . S
H937 C925 0.930 . S
H938 C926 0.956 . S
H939 C926 0.961 . S
H940 C926 0.961 . S
H941 C927 0.958 . S
H942 C927 0.961 . S
H943 C927 0.960 . S
C944 C945 1.391 . S
C944 C946 1.394 . S
C944 H960 0.931 . S
C945 C944 1.391 . S
C945 C949 1.376 . S
C946 C944 1.394 . S
C946 C947 1.369 . S
C946 C950 1.531 . S
C947 C946 1.369 . S
C947 C948 1.410 . S
C947 C955 1.503 . S
C948 C947 1.410 . S
C948 C949 1.392 . S
C948 C951 1.511 . S
C949 C945 1.376 . S
C949 C948 1.392 . S
C949 H961 0.929 . S
C950 C946 1.531 . S
C950 H962 0.960 . S
C950 H963 0.962 . S
C950 H964 0.960 . S
C951 C948 1.511 . S
C951 H965 0.961 . S
C951 H966 0.961 . S
C951 H967 0.961 . S
C952 C953 1.370 . S
C952 C954 1.363 . S
C952 H968 0.931 . S
C953 C952 1.370 . S
C953 C957 1.408 . S
C954 C952 1.363 . S
C954 C955 1.370 . S
C954 C958 1.524 . S
C955 C947 1.503 . S
C955 C954 1.370 . S
C955 C956 1.403 . S
C956 C955 1.403 . S
C956 C957 1.404 . S
C956 C959 1.539 . S
C957 C953 1.408 . S
C957 C956 1.404 . S
C957 H969 0.930 . S
C958 C954 1.524 . S
C958 H970 0.956 . S
C958 H971 0.961 . S
C958 H972 0.961 . S
C959 C956 1.539 . S
C959 H973 0.958 . S
C959 H974 0.961 . S
C959 H975 0.960 . S
H960 C944 0.931 . S
H961 C949 0.929 . S
H962 C950 0.960 . S
H963 C950 0.962 . S
H964 C950 0.960 . S
H965 C951 0.961 . S
H966 C951 0.961 . S
H967 C951 0.961 . S
H968 C952 0.931 . S
H969 C957 0.930 . S
H970 C958 0.956 . S
H971 C958 0.961 . S
H972 C958 0.961 . S
H973 C959 0.958 . S
H974 C959 0.961 . S
H975 C959 0.960 . S
C976 C977 1.391 . S
C976 C978 1.394 . S
C976 H992 0.931 . S
C977 C976 1.391 . S
C977 C981 1.376 . S
C978 C976 1.394 . S
C978 C979 1.369 . S
C978 C982 1.531 . S
C979 C978 1.369 . S
C979 C980 1.410 . S
C979 C987 1.503 . S
C980 C979 1.410 . S
C980 C981 1.392 . S
C980 C983 1.511 . S
C981 C977 1.376 . S
C981 C980 1.392 . S
C981 H993 0.929 . S
C982 C978 1.531 . S
C982 H994 0.960 . S
C982 H995 0.962 . S
C982 H996 0.960 . S
C983 C980 1.511 . S
C983 H997 0.961 . S
C983 H998 0.961 . S
C983 H999 0.961 . S
C984 C985 1.370 . S
C984 C986 1.363 . S
C984 H1000 0.931 . S
C985 C984 1.370 . S
C985 C989 1.408 . S
C986 C984 1.363 . S
C986 C987 1.370 . S
C986 C990 1.524 . S
C987 C979 1.503 . S
C987 C986 1.370 . S
C987 C988 1.403 . S
C988 C987 1.403 . S
C988 C989 1.404 . S
C988 C991 1.539 . S
C989 C985 1.408 . S
C989 C988 1.404 . S
C989 H1001 0.930 . S
C990 C986 1.524 . S
C990 H1002 0.956 . S
C990 H1003 0.961 . S
C990 H1004 0.961 . S
C991 C988 1.539 . S
C991 H1005 0.958 . S
C991 H1006 0.961 . S
C991 H1007 0.960 . S
H992 C976 0.931 . S
H993 C981 0.929 . S
H994 C982 0.960 . S
H995 C982 0.962 . S
H996 C982 0.960 . S
H997 C983 0.961 . S
H998 C983 0.961 . S
H999 C983 0.961 . S
H1000 C984 0.931 . S
H1001 C989 0.930 . S
H1002 C990 0.956 . S
H1003 C990 0.961 . S
H1004 C990 0.961 . S
H1005 C991 0.958 . S
H1006 C991 0.961 . S
H1007 C991 0.960 . S
C1008 C1009 1.391 . S
C1008 C1010 1.394 . S
C1008 H1024 0.931 . S
C1009 C1008 1.391 . S
C1009 C1013 1.376 . S
C1010 C1008 1.394 . S
C1010 C1011 1.369 . S
C1010 C1014 1.531 . S
C1011 C1010 1.369 . S
C1011 C1012 1.410 . S
C1011 C1019 1.503 . S
C1012 C1011 1.410 . S
C1012 C1013 1.392 . S
C1012 C1015 1.511 . S
C1013 C1009 1.376 . S
C1013 C1012 1.392 . S
C1013 H1025 0.929 . S
C1014 C1010 1.531 . S
C1014 H1026 0.960 . S
C1014 H1027 0.962 . S
C1014 H1028 0.960 . S
C1015 C1012 1.511 . S
C1015 H1029 0.961 . S
C1015 H1030 0.961 . S
C1015 H1031 0.961 . S
C1016 C1017 1.370 . S
C1016 C1018 1.363 . S
C1016 H1032 0.931 . S
C1017 C1016 1.370 . S
C1017 C1021 1.408 . S
C1018 C1016 1.363 . S
C1018 C1019 1.370 . S
C1018 C1022 1.524 . S
C1019 C1011 1.503 . S
C1019 C1018 1.370 . S
C1019 C1020 1.403 . S
C1020 C1019 1.403 . S
C1020 C1021 1.404 . S
C1020 C1023 1.539 . S
C1021 C1017 1.408 . S
C1021 C1020 1.404 . S
C1021 H1033 0.930 . S
C1022 C1018 1.524 . S
C1022 H1034 0.956 . S
C1022 H1035 0.961 . S
C1022 H1036 0.961 . S
C1023 C1020 1.539 . S
C1023 H1037 0.958 . S
C1023 H1038 0.961 . S
C1023 H1039 0.960 . S
H1024 C1008 0.931 . S
H1025 C1013 0.929 . S
H1026 C1014 0.960 . S
H1027 C1014 0.962 . S
H1028 C1014 0.960 . S
H1029 C1015 0.961 . S
H1030 C1015 0.961 . S
H1031 C1015 0.961 . S
H1032 C1016 0.931 . S
H1033 C1021 0.930 . S
H1034 C1022 0.956 . S
H1035 C1022 0.961 . S
H1036 C1022 0.961 . S
H1037 C1023 0.958 . S
H1038 C1023 0.961 . S
H1039 C1023 0.960 . S
C1040 C1041 1.391 . S
C1040 C1042 1.394 . S
C1040 H1056 0.931 . S
C1041 C1040 1.391 . S
C1041 C1045 1.376 . S
C1042 C1040 1.394 . S
C1042 C1043 1.369 . S
C1042 C1046 1.531 . S
C1043 C1042 1.369 . S
C1043 C1044 1.410 . S
C1043 C1051 1.503 . S
C1044 C1043 1.410 . S
C1044 C1045 1.392 . S
C1044 C1047 1.511 . S
C1045 C1041 1.376 . S
C1045 C1044 1.392 . S
C1045 H1057 0.929 . S
C1046 C1042 1.531 . S
C1046 H1058 0.960 . S
C1046 H1059 0.962 . S
C1046 H1060 0.960 . S
C1047 C1044 1.511 . S
C1047 H1061 0.961 . S
C1047 H1062 0.961 . S
C1047 H1063 0.961 . S
C1048 C1049 1.370 . S
C1048 C1050 1.363 . S
C1048 H1064 0.931 . S
C1049 C1048 1.370 . S
C1049 C1053 1.408 . S
C1050 C1048 1.363 . S
C1050 C1051 1.370 . S
C1050 C1054 1.524 . S
C1051 C1043 1.503 . S
C1051 C1050 1.370 . S
C1051 C1052 1.403 . S
C1052 C1051 1.403 . S
C1052 C1053 1.404 . S
C1052 C1055 1.539 . S
C1053 C1049 1.408 . S
C1053 C1052 1.404 . S
C1053 H1065 0.930 . S
C1054 C1050 1.524 . S
C1054 H1066 0.956 . S
C1054 H1067 0.961 . S
C1054 H1068 0.961 . S
C1055 C1052 1.539 . S
C1055 H1069 0.958 . S
C1055 H1070 0.961 . S
C1055 H1071 0.960 . S
H1056 C1040 0.931 . S
H1057 C1045 0.929 . S
H1058 C1046 0.960 . S
H1059 C1046 0.962 . S
H1060 C1046 0.960 . S
H1061 C1047 0.961 . S
H1062 C1047 0.961 . S
H1063 C1047 0.961 . S
H1064 C1048 0.931 . S
H1065 C1053 0.930 . S
H1066 C1054 0.956 . S
H1067 C1054 0.961 . S
H1068 C1054 0.961 . S
H1069 C1055 0.958 . S
H1070 C1055 0.961 . S
H1071 C1055 0.960 . S
C1072 C1073 1.391 . S
C1072 C1074 1.394 . S
C1072 H1088 0.931 . S
C1073 C1072 1.391 . S
C1073 C1077 1.376 . S
C1074 C1072 1.394 . S
C1074 C1075 1.369 . S
C1074 C1078 1.531 . S
C1075 C1074 1.369 . S
C1075 C1076 1.410 . S
C1075 C1083 1.503 . S
C1076 C1075 1.410 . S
C1076 C1077 1.392 . S
C1076 C1079 1.511 . S
C1077 C1073 1.376 . S
C1077 C1076 1.392 . S
C1077 H1089 0.929 . S
C1078 C1074 1.531 . S
C1078 H1090 0.960 . S
C1078 H1091 0.962 . S
C1078 H1092 0.960 . S
C1079 C1076 1.511 . S
C1079 H1093 0.961 . S
C1079 H1094 0.961 . S
C1079 H1095 0.961 . S
C1080 C1081 1.370 . S
C1080 C1082 1.363 . S
C1080 H1096 0.931 . S
C1081 C1080 1.370 . S
C1081 C1085 1.408 . S
C1082 C1080 1.363 . S
C1082 C1083 1.370 . S
C1082 C1086 1.524 . S
C1083 C1075 1.503 . S
C1083 C1082 1.370 . S
C1083 C1084 1.403 . S
C1084 C1083 1.403 . S
C1084 C1085 1.404 . S
C1084 C1087 1.539 . S
C1085 C1081 1.408 . S
C1085 C1084 1.404 . S
C1085 H1097 0.930 . S
C1086 C1082 1.524 . S
C1086 H1098 0.956 . S
C1086 H1099 0.961 . S
C1086 H1100 0.961 . S
C1087 C1084 1.539 . S
C1087 H1101 0.958 . S
C1087 H1102 0.961 . S
C1087 H1103 0.960 . S
H1088 C1072 0.931 . S
H1089 C1077 0.929 . S
H1090 C1078 0.960 . S
H1091 C1078 0.962 . S
H1092 C1078 0.960 . S
H1093 C1079 0.961 . S
H1094 C1079 0.961 . S
H1095 C1079 0.961 . S
H1096 C1080 0.931 . S
H1097 C1085 0.930 . S
H1098 C1086 0.956 . S
H1099 C1086 0.961 . S
H1100 C1086 0.961 . S
H1101 C1087 0.958 . S
H1102 C1087 0.961 . S
H1103 C1087 0.960 . S
C1104 C1105 1.391 . S
C1104 C1106 1.394 . S
C1104 H1120 0.931 . S
C1105 C1104 1.391 . S
C1105 C1109 1.376 . S
C1106 C1104 1.394 . S
C1106 C1107 1.369 . S
C1106 C1110 1.531 . S
C1107 C1106 1.369 . S
C1107 C1108 1.410 . S
C1107 C1115 1.503 . S
C1108 C1107 1.410 . S
C1108 C1109 1.392 . S
C1108 C1111 1.511 . S
C1109 C1105 1.376 . S
C1109 C1108 1.392 . S
C1109 H1121 0.929 . S
C1110 C1106 1.531 . S
C1110 H1122 0.960 . S
C1110 H1123 0.962 . S
C1110 H1124 0.960 . S
C1111 C1108 1.511 . S
C1111 H1125 0.961 . S
C1111 H1126 0.961 . S
C1111 H1127 0.961 . S
C1112 C1113 1.370 . S
C1112 C1114 1.363 . S
C1112 H1128 0.931 . S
C1113 C1112 1.370 . S
C1113 C1117 1.408 . S
C1114 C1112 1.363 . S
C1114 C1115 1.370 . S
C1114 C1118 1.524 . S
C1115 C1107 1.503 . S
C1115 C1114 1.370 . S
C1115 C1116 1.403 . S
C1116 C1115 1.403 . S
C1116 C1117 1.404 . S
C1116 C1119 1.539 . S
C1117 C1113 1.408 . S
C1117 C1116 1.404 . S
C1117 H1129 0.930 . S
C1118 C1114 1.524 . S
C1118 H1130 0.956 . S
C1118 H1131 0.961 . S
C1118 H1132 0.961 . S
C1119 C1116 1.539 . S
C1119 H1133 0.958 . S
C1119 H1134 0.961 . S
C1119 H1135 0.960 . S
H1120 C1104 0.931 . S
H1121 C1109 0.929 . S
H1122 C1110 0.960 . S
H1123 C1110 0.962 . S
H1124 C1110 0.960 . S
H1125 C1111 0.961 . S
H1126 C1111 0.961 . S
H1127 C1111 0.961 . S
H1128 C1112 0.931 . S
H1129 C1117 0.930 . S
H1130 C1118 0.956 . S
H1131 C1118 0.961 . S
H1132 C1118 0.961 . S
H1133 C1119 0.958 . S
H1134 C1119 0.961 . S
H1135 C1119 0.960 . S
C1136 C1137 1.391 . S
C1136 C1138 1.394 . S
C1136 H1152 0.931 . S
C1137 C1136 1.391 . S
C1137 C1141 1.376 . S
C1138 C1136 1.394 . S
C1138 C1139 1.369 . S
C1138 C1142 1.531 . S
C1139 C1138 1.369 . S
C1139 C1140 1.410 . S
C1139 C1147 1.503 . S
C1140 C1139 1.410 . S
C1140 C1141 1.392 . S
C1140 C1143 1.511 . S
C1141 C1137 1.376 . S
C1141 C1140 1.392 . S
C1141 H1153 0.929 . S
C1142 C1138 1.531 . S
C1142 H1154 0.960 . S
C1142 H1155 0.962 . S
C1142 H1156 0.960 . S
C1143 C1140 1.511 . S
C1143 H1157 0.961 . S
C1143 H1158 0.961 . S
C1143 H1159 0.961 . S
C1144 C1145 1.370 . S
C1144 C1146 1.363 . S
C1144 H1160 0.931 . S
C1145 C1144 1.370 . S
C1145 C1149 1.408 . S
C1146 C1144 1.363 . S
C1146 C1147 1.370 . S
C1146 C1150 1.524 . S
C1147 C1139 1.503 . S
C1147 C1146 1.370 . S
C1147 C1148 1.403 . S
C1148 C1147 1.403 . S
C1148 C1149 1.404 . S
C1148 C1151 1.539 . S
C1149 C1145 1.408 . S
C1149 C1148 1.404 . S
C1149 H1161 0.930 . S
C1150 C1146 1.524 . S
C1150 H1162 0.956 . S
C1150 H1163 0.961 . S
C1150 H1164 0.961 . S
C1151 C1148 1.539 . S
C1151 H1165 0.958 . S
C1151 H1166 0.961 . S
C1151 H1167 0.960 . S
H1152 C1136 0.931 . S
H1153 C1141 0.929 . S
H1154 C1142 0.960 . S
H1155 C1142 0.962 . S
H1156 C1142 0.960 . S
H1157 C1143 0.961 . S
H1158 C1143 0.961 . S
H1159 C1143 0.961 . S
H1160 C1144 0.931 . S
H1161 C1149 0.930 . S
H1162 C1150 0.956 . S
H1163 C1150 0.961 . S
H1164 C1150 0.961 . S
H1165 C1151 0.958 . S
H1166 C1151 0.961 . S
H1167 C1151 0.960 . S
C1168 C1169 1.391 . S
C1168 C1170 1.394 . S
C1168 H1184 0.931 . S
C1169 C1168 1.391 . S
C1169 C1173 1.376 . S
C1170 C1168 1.394 . S
C1170 C1171 1.369 . S
C1170 C1174 1.531 . S
C1171 C1170 1.369 . S
C1171 C1172 1.410 . S
C1171 C1179 1.503 . S
C1172 C1171 1.410 . S
C1172 C1173 1.392 . S
C1172 C1175 1.511 . S
C1173 C1169 1.376 . S
C1173 C1172 1.392 . S
C1173 H1185 0.929 . S
C1174 C1170 1.531 . S
C1174 H1186 0.960 . S
C1174 H1187 0.962 . S
C1174 H1188 0.960 . S
C1175 C1172 1.511 . S
C1175 H1189 0.961 . S
C1175 H1190 0.961 . S
C1175 H1191 0.961 . S
C1176 C1177 1.370 . S
C1176 C1178 1.363 . S
C1176 H1192 0.931 . S
C1177 C1176 1.370 . S
C1177 C1181 1.408 . S
C1178 C1176 1.363 . S
C1178 C1179 1.370 . S
C1178 C1182 1.524 . S
C1179 C1171 1.503 . S
C1179 C1178 1.370 . S
C1179 C1180 1.403 . S
C1180 C1179 1.403 . S
C1180 C1181 1.404 . S
C1180 C1183 1.539 . S
C1181 C1177 1.408 . S
C1181 C1180 1.404 . S
C1181 H1193 0.930 . S
C1182 C1178 1.524 . S
C1182 H1194 0.956 . S
C1182 H1195 0.961 . S
C1182 H1196 0.961 . S
C1183 C1180 1.539 . S
C1183 H1197 0.958 . S
C1183 H1198 0.961 . S
C1183 H1199 0.960 . S
H1184 C1168 0.931 . S
H1185 C1173 0.929 . S
H1186 C1174 0.960 . S
H1187 C1174 0.962 . S
H1188 C1174 0.960 . S
H1189 C1175 0.961 . S
H1190 C1175 0.961 . S
H1191 C1175 0.961 . S
H1192 C1176 0.931 . S
H1193 C1181 0.930 . S
H1194 C1182 0.956 . S
H1195 C1182 0.961 . S
H1196 C1182 0.961 . S
H1197 C1183 0.958 . S
H1198 C1183 0.961 . S
H1199 C1183 0.960 . S
C1200 C1201 1.391 . S
C1200 C1202 1.394 . S
C1200 H1216 0.931 . S
C1201 C1200 1.391 . S
C1201 C1205 1.376 . S
C1202 C1200 1.394 . S
C1202 C1203 1.369 . S
C1202 C1206 1.531 . S
C1203 C1202 1.369 . S
C1203 C1204 1.410 . S
C1203 C1211 1.503 . S
C1204 C1203 1.410 . S
C1204 C1205 1.392 . S
C1204 C1207 1.511 . S
C1205 C1201 1.376 . S
C1205 C1204 1.392 . S
C1205 H1217 0.929 . S
C1206 C1202 1.531 . S
C1206 H1218 0.960 . S
C1206 H1219 0.962 . S
C1206 H1220 0.960 . S
C1207 C1204 1.511 . S
C1207 H1221 0.961 . S
C1207 H1222 0.961 . S
C1207 H1223 0.961 . S
C1208 C1209 1.370 . S
C1208 C1210 1.363 . S
C1208 H1224 0.931 . S
C1209 C1208 1.370 . S
C1209 C1213 1.408 . S
C1210 C1208 1.363 . S
C1210 C1211 1.370 . S
C1210 C1214 1.524 . S
C1211 C1203 1.503 . S
C1211 C1210 1.370 . S
C1211 C1212 1.403 . S
C1212 C1211 1.403 . S
C1212 C1213 1.404 . S
C1212 C1215 1.539 . S
C1213 C1209 1.408 . S
C1213 C1212 1.404 . S
C1213 H1225 0.930 . S
C1214 C1210 1.524 . S
C1214 H1226 0.956 . S
C1214 H1227 0.961 . S
C1214 H1228 0.961 . S
C1215 C1212 1.539 . S
C1215 H1229 0.958 . S
C1215 H1230 0.961 . S
C1215 H1231 0.960 . S
H1216 C1200 0.931 . S
H1217 C1205 0.929 . S
H1218 C1206 0.960 . S
H1219 C1206 0.962 . S
H1220 C1206 0.960 . S
H1221 C1207 0.961 . S
H1222 C1207 0.961 . S
H1223 C1207 0.961 . S
H1224 C1208 0.931 . S
H1225 C1213 0.930 . S
H1226 C1214 0.956 . S
H1227 C1214 0.961 . S
H1228 C1214 0.961 . S
H1229 C1215 0.958 . S
H1230 C1215 0.961 . S
H1231 C1215 0.960 . S
C217 C117 1.251 . S
C209 C5 1.266 . S
C249 C135 1.170 . S
C241 C18 1.258 . S
C281 C143 1.242 . S
C273 C31 1.293 . S
C305 C42 1.273 . S
C313 C109 1.190 . S
C337 C57 1.301 . S
C345 C104 1.228 . S
C369 C70 1.246 . S
C377 C122 1.185 . S
C409 C130 1.236 . S
C401 C81 1.290 . S
C441 C148 1.192 . S
C433 C96 1.244 . S
C465 C29 1.256 . S
C473 C169 1.245 . S
C505 C187 1.193 . S
C497 C44 1.281 . S
C529 C3 1.256 . S
C537 C195 1.238 . S
C569 C161 1.201 . S
C561 C16 1.271 . S
C593 C83 1.301 . S
C601 C156 1.232 . S
C625 C94 1.281 . S
C633 C174 1.193 . S
C665 C182 1.231 . S
C657 C55 1.265 . S
C689 C68 1.280 . S
C697 C200 1.195 . S
C729 C138 1.347 . S
C721 C1 1.330 . S
C761 C153 1.327 . S
C753 C14 1.294 . S
C785 C27 1.312 . S
C793 C112 1.346 . S
C817 C49 1.340 . S
C825 C127 1.302 . S
C849 C53 1.326 . S
C857 C151 1.346 . S
C889 C114 1.319 . S
C881 C66 1.333 . S
C921 C125 1.346 . S
C913 C88 1.327 . S
C953 C140 1.323 . S
C945 C92 1.323 . S
C985 C190 1.347 . S
C977 C36 1.345 . S
C1017 C205 1.326 . S
C1009 C40 1.290 . S
C1041 C10 1.350 . S
C1049 C164 1.346 . S
C1081 C179 1.301 . S
C1073 C23 1.339 . S
C1113 C203 1.346 . S
C1105 C79 1.320 . S
C1137 C101 1.356 . S
C1145 C166 1.318 . S
C1177 C177 1.347 . S
C1169 C62 1.352 . S
C1209 C192 1.326 . S
C1201 C75 1.352 . S
