# Generated by pormake.
# Topology pts, (4,4)-cn, num edge types: 1
# Building blocks:
#     Node 0, Type 0, BuildingBlock: KOZSID_clean_sbu_0, # of connection points: 4
#     Node 1, Type 0, BuildingBlock: KOZSID_clean_sbu_0, # of connection points: 4
#     Node 2, Type 1, BuildingBlock: AZAVOO_clean_sbu_0, # of connection points: 4
#     Node 3, Type 1, BuildingBlock: AZAVOO_clean_sbu_0, # of connection points: 4
#     Edge 4, Type (0, 1), BuildingBlock: EZIPEK_clean_linker_0, # of connection points: 2
#     Edge 5, Type (0, 1), BuildingBlock: EZIPEK_clean_linker_0, # of connection points: 2
#     Edge 6, Type (0, 1), BuildingBlock: EZIPEK_clean_linker_0, # of connection points: 2
#     Edge 7, Type (0, 1), BuildingBlock: EZIPEK_clean_linker_0, # of connection points: 2
#     Edge 8, Type (0, 1), BuildingBlock: EZIPEK_clean_linker_0, # of connection points: 2
#     Edge 9, Type (0, 1), BuildingBlock: EZIPEK_clean_linker_0, # of connection points: 2
#     Edge 10, Type (0, 1), BuildingBlock: EZIPEK_clean_linker_0, # of connection points: 2
#     Edge 11, Type (0, 1), BuildingBlock: EZIPEK_clean_linker_0, # of connection points: 2
# Relax obj value: 0.000
# Max RMSD: 0.032
# Mean RMSD: 0.016
data_MOF--net-pts--node1-KOZSID_clean_sbu_0--node2-AZAVOO_clean_sbu_0--edge1-EZIPEK_clean_linker_0
_symmetry_space_group_name_H-M    P1
_symmetry_Int_Tables_number       1
_symmetry_cell_setting            triclinic
loop_
_symmetry_equiv_pos_as_xyz
'x, y, z'
_cell_length_a     20.246897
_cell_length_b     20.735784
_cell_length_c     30.352229
_cell_angle_alpha  84.770037
_cell_angle_beta   102.19845
_cell_angle_gamma 90.56412
loop_
_atom_site_label
_atom_site_type_symbol
_atom_site_fract_x
_atom_site_fract_y
_atom_site_fract_z
_atom_type_partial_charge
C0 C 0.69807 0.14725 0.08851 0.0
C1 C 0.71901 0.20608 0.10492 0.0
C2 C 0.67902 0.25282 0.07771 0.0
C3 C 0.63557 0.22003 0.04667 0.0
N4 N 0.64521 0.1551 0.0525 0.0
Co5 Co 0.58981 0.08907 0.01691 0.0
N6 N 0.53402 0.15792 0.97494 0.0
C7 C 0.54329 0.22263 0.97465 0.0
C8 C 0.49936 0.25778 0.94057 0.0
C9 C 0.45947 0.21287 0.91778 0.0
C10 C 0.481 0.15269 0.93967 0.0
N11 N 0.53209 0.02281 0.98307 0.0
C12 C 0.47487 0.03043 0.95044 0.0
C13 C 0.44539 0.97123 0.9404 0.0
C14 C 0.48586 0.9246 0.96704 0.0
C15 C 0.53694 0.95774 0.99219 0.0
N16 N 0.64791 0.02011 0.05715 0.0
C17 C 0.64342 0.95546 0.05414 0.0
C18 C 0.69496 0.92036 0.08225 0.0
C19 C 0.73535 0.9652 0.10443 0.0
C20 C 0.70533 0.02536 0.08898 0.0
N21 N 0.52605 0.08806 0.05864 0.0
C22 C 0.43128 0.08677 0.1145 0.0
C23 C 0.46368 0.02979 0.10922 0.0
C24 C 0.51081 0.03151 0.0814 0.0
C25 C 0.44727 0.14437 0.09197 0.0
C26 C 0.49452 0.14398 0.0645 0.0
N27 N 0.65363 0.09053 0.97519 0.0
C28 C 0.71679 0.0349 0.93042 0.0
C29 C 0.7494 0.09208 0.92005 0.0
C30 C 0.73301 0.14855 0.93704 0.0
C31 C 0.6852 0.14677 0.96422 0.0
C32 C 0.66916 0.03521 0.95778 0.0
H33 H 0.67499 0.19156 0.9761 0.0
H34 H 0.64585 0.99011 0.96459 0.0
H35 H 0.53407 0.98655 0.07865 0.0
H36 H 0.50438 0.1896 0.04824 0.0
C37 C 0.58938 0.2489 0.00935 0.0
C38 C 0.73232 0.08572 0.10665 0.0
C39 C 0.44744 0.09227 0.92709 0.0
C40 C 0.59025 0.92911 0.02447 0.0
H41 H 0.7601 0.21451 0.13293 0.0
H42 H 0.68241 0.30466 0.0796 0.0
H43 H 0.49555 0.30993 0.93385 0.0
H44 H 0.41809 0.22334 0.88902 0.0
H45 H 0.39931 0.96243 0.91634 0.0
H46 H 0.47857 0.87274 0.96826 0.0
H47 H 0.70266 0.8684 0.0858 0.0
H48 H 0.78173 0.95458 0.12917 0.0
H49 H 0.4527 0.98423 0.12656 0.0
H50 H 0.42332 0.18953 0.09557 0.0
H51 H 0.72805 0.99023 0.91744 0.0
H52 H 0.75709 0.19387 0.92936 0.0
C53 C 0.14489 0.46291 0.58972 0.0
C54 C 0.20452 0.43881 0.61761 0.0
C55 C 0.25319 0.48391 0.61348 0.0
C56 C 0.22082 0.53258 0.58317 0.0
N57 N 0.15487 0.52089 0.56772 0.0
Co58 Co 0.09004 0.57694 0.52189 0.0
N59 N 0.16472 0.62811 0.50273 0.0
C60 C 0.2299 0.62725 0.52502 0.0
C61 C 0.27083 0.66496 0.50283 0.0
C62 C 0.22883 0.69244 0.46457 0.0
C63 C 0.16413 0.67062 0.46593 0.0
N64 N 0.02502 0.63207 0.47519 0.0
C65 C 0.03614 0.67703 0.44206 0.0
C66 C 0.97606 0.70725 0.41924 0.0
C67 C 0.92599 0.68105 0.43898 0.0
C68 C 0.95794 0.6366 0.47275 0.0
N69 N 0.01562 0.52701 0.542 0.0
C70 C 0.95013 0.545 0.53348 0.0
C71 C 0.9106 0.50177 0.55297 0.0
C72 C 0.95396 0.45353 0.57536 0.0
C73 C 0.01758 0.47025 0.56807 0.0
N74 N 0.08596 0.63764 0.56734 0.0
C75 C 0.08311 0.72513 0.63172 0.0
C76 C 0.07661 0.7469 0.58622 0.0
C77 C 0.07803 0.7025 0.55474 0.0
C78 C 0.0901 0.65875 0.64476 0.0
C79 C 0.0905 0.6157 0.61188 0.0
N80 N 0.09428 0.51549 0.4771 0.0
C81 C 0.03912 0.43849 0.42691 0.0
C82 C 0.10185 0.41469 0.42291 0.0
C83 C 0.16043 0.44513 0.44402 0.0
C84 C 0.15561 0.49467 0.47141 0.0
C85 C 0.03642 0.48953 0.45369 0.0
H86 H 0.2019 0.51409 0.48937 0.0
H87 H 0.98755 0.50618 0.45684 0.0
H88 H 0.07166 0.72099 0.52019 0.0
H89 H 0.094 0.56476 0.62263 0.0
C90 C 0.25253 0.58355 0.56289 0.0
C91 C 0.07888 0.43234 0.58779 0.0
C92 C 0.10308 0.69959 0.43593 0.0
C93 C 0.92641 0.59676 0.50157 0.0
H94 H 0.2121 0.39365 0.63895 0.0
H95 H 0.30637 0.48035 0.62928 0.0
H96 H 0.32498 0.67072 0.51275 0.0
H97 H 0.24371 0.72668 0.43944 0.0
H98 H 0.96926 0.74623 0.39242 0.0
H99 H 0.87277 0.6936 0.43015 0.0
H100 H 0.8564 0.5038 0.54991 0.0
H101 H 0.9404 0.41094 0.59478 0.0
H102 H 0.07022 0.79803 0.57504 0.0
H103 H 0.09421 0.64043 0.67981 0.0
H104 H 0.9927 0.41632 0.41074 0.0
H105 H 0.20979 0.42808 0.44149 0.0
Mg106 Mg 0.13789 0.05338 0.28952 0.0
O107 O 0.0298 0.05696 0.24527 0.0
O108 O 0.96087 0.05328 0.29411 0.0
Mg109 Mg 0.02109 0.02959 0.36654 0.0
C110 C 0.97055 0.05917 0.25368 0.0
C111 C 0.24626 0.06689 0.23621 0.0
O112 O 0.27093 0.0296 0.27329 0.0
O113 O 0.1247 0.15545 0.3117 0.0
O114 O 0.06301 0.13234 0.36434 0.0
O115 O 0.14462 0.94523 0.28941 0.0
O116 O 0.10491 0.99531 0.3395 0.0
C117 C 0.09643 0.17199 0.34301 0.0
C118 C 0.1191 0.94172 0.32518 0.0
O119 O 0.18686 0.09028 0.23075 0.0
Mg120 Mg 0.04305 0.05722 0.74969 0.0
O121 O 0.15241 0.06185 0.79198 0.0
O122 O 0.21961 0.05918 0.74249 0.0
Mg123 Mg 0.15758 0.03344 0.6741 0.0
C124 C 0.21114 0.06505 0.78247 0.0
C125 C 0.93562 0.07371 0.80147 0.0
O126 O 0.9102 0.03817 0.76838 0.0
O127 O 0.05277 0.15838 0.71379 0.0
O128 O 0.11483 0.13673 0.66372 0.0
O129 O 0.03951 0.95 0.76501 0.0
O130 O 0.07507 0.99864 0.70651 0.0
C131 C 0.08053 0.17578 0.68045 0.0
C132 C 0.06321 0.94569 0.72899 0.0
O133 O 0.99546 0.09501 0.80445 0.0
C134 C 0.3144 0.06555 0.12818 0.0
C135 C 0.38145 0.08646 0.14416 0.0
C136 C 0.35264 0.10953 0.21568 0.0
C137 C 0.28866 0.08053 0.20214 0.0
N138 N 0.21046 0.02453 0.1473 0.0
N139 N 0.46731 0.12239 0.20458 0.0
C140 C 0.2696 0.05741 0.15864 0.0
C141 C 0.40131 0.10718 0.18826 0.0
N142 N 0.29332 0.05441 0.0837 0.0
N143 N 0.3661 0.14084 0.25429 0.0
H144 H 0.50438 0.12186 0.1854 0.0
H145 H 0.48653 0.13064 0.23819 0.0
H146 H 0.33098 0.14453 0.27466 0.0
H147 H 0.40912 0.16848 0.26377 0.0
H148 H 0.24316 0.04585 0.06879 0.0
H149 H 0.32503 0.05907 0.06062 0.0
H150 H 0.19766 -0.00016 0.11837 0.0
H151 H 0.17606 0.01777 0.16843 0.0
C152 C 0.08723 0.35996 0.66039 0.0
C153 C 0.07332 0.36733 0.61235 0.0
C154 C 0.04582 0.25225 0.61091 0.0
C155 C 0.07137 0.24291 0.65841 0.0
N156 N 0.12395 0.2873 0.7281 0.0
N157 N 0.04247 0.32028 0.54117 0.0
C158 C 0.09347 0.29668 0.68329 0.0
C159 C 0.05313 0.31342 0.58736 0.0
N160 N 0.09355 0.41342 0.68409 0.0
N161 N 0.01258 0.20311 0.58859 0.0
H162 H 0.04597 0.36462 0.52265 0.0
H163 H 0.0351 0.28132 0.52136 0.0
H164 H 0.00422 0.15834 0.60508 0.0
H165 H 0.98723 0.20879 0.55483 0.0
H166 H 0.09707 0.411 0.71895 0.0
H167 H 0.08885 0.46049 0.66836 0.0
H168 H 0.1478 0.32417 0.74647 0.0
H169 H 0.1306 0.24176 0.7461 0.0
C170 C 0.85541 0.11009 0.13849 0.0
C171 C 0.79303 0.08331 0.14495 0.0
C172 C 0.84976 0.033 0.21897 0.0
C173 C 0.91008 0.06715 0.21553 0.0
N174 N 0.96216 0.15299 0.17532 0.0
N175 N 0.72788 0.03383 0.19676 0.0
C176 C 0.91085 0.10994 0.17617 0.0
C177 C 0.78919 0.04997 0.18715 0.0
N178 N 0.86241 0.13445 0.0964 0.0
N179 N 0.85073 0.98133 0.25046 0.0
H180 H 0.68226 0.04625 0.17434 0.0
H181 H 0.72261 0.01402 0.22864 0.0
H182 H 0.89512 0.96224 0.27133 0.0
H183 H 0.80874 0.95218 0.25152 0.0
H184 H 0.90886 0.14878 0.08932 0.0
H185 H 0.8232 0.13483 0.06787 0.0
H186 H 0.96153 0.18857 0.14865 0.0
H187 H 1.00101 0.1586 0.20326 0.0
C188 C 0.1397 0.80825 0.68168 0.0
C189 C 0.08081 0.77294 0.66479 0.0
C190 C 0.01125 0.84696 0.69458 0.0
C191 C 0.07018 0.88238 0.71151 0.0
N192 N 0.19126 0.88906 0.73095 0.0
N193 N 0.96379 0.74885 0.66339 0.0
C194 C 0.13478 0.86057 0.70805 0.0
C195 C 0.01769 0.78892 0.67426 0.0
N196 N 0.19978 0.79287 0.67129 0.0
N197 N 0.94874 0.87098 0.69512 0.0
H198 H 0.96622 0.70695 0.64721 0.0
H199 H 0.91843 0.75396 0.67377 0.0
H200 H 0.94134 0.91339 0.70949 0.0
H201 H 0.90375 0.85168 0.67833 0.0
H202 H 0.24272 0.82141 0.67776 0.0
H203 H 0.20583 0.75281 0.654 0.0
H204 H 0.24019 0.87212 0.73321 0.0
H205 H 0.18856 0.92635 0.75137 0.0
C206 C 0.32395 0.11634 0.89158 0.0
C207 C 0.38781 0.09228 0.88817 0.0
C208 C 0.33502 0.04482 0.81874 0.0
C209 C 0.27212 0.07515 0.8189 0.0
N210 N 0.21534 0.15734 0.84974 0.0
N211 N 0.45671 0.0504 0.84135 0.0
C212 C 0.26885 0.11605 0.8537 0.0
C213 C 0.39418 0.06267 0.84909 0.0
N214 N 0.31523 0.13818 0.93109 0.0
N215 N 0.33823 0.99543 0.79237 0.0
H216 H 0.50124 0.06323 0.86293 0.0
H217 H 0.46376 0.03368 0.81128 0.0
H218 H 0.29577 0.97509 0.77324 0.0
H219 H 0.38233 0.96879 0.79435 0.0
H220 H 0.26789 0.15019 0.93654 0.0
H221 H 0.35427 0.13896 0.95963 0.0
H222 H 0.21384 0.1915 0.87267 0.0
H223 H 0.17681 0.16346 0.82086 0.0
C224 C 0.13498 0.29736 0.42679 0.0
C225 C 0.10653 0.35441 0.40035 0.0
C226 C 0.07685 0.29316 0.33331 0.0
C227 C 0.10779 0.23716 0.35959 0.0
N228 N 0.18226 0.19045 0.42739 0.0
N229 N 0.06357 0.4102 0.32675 0.0
C230 C 0.14205 0.24089 0.40508 0.0
C231 C 0.08151 0.35343 0.35298 0.0
N232 N 0.15193 0.29577 0.47296 0.0
N233 N 0.04059 0.28822 0.29037 0.0
H234 H 0.06691 0.45505 0.34007 0.0
H235 H 0.0511 0.41352 0.29153 0.0
H236 H 0.03737 0.2452 0.27473 0.0
H237 H 0.01035 0.32549 0.27134 0.0
H238 H 0.16522 0.25331 0.49401 0.0
H239 H 0.14675 0.33543 0.49073 0.0
H240 H 0.21388 0.19288 0.45908 0.0
H241 H 0.18939 0.14862 0.41219 0.0
C242 C 0.86655 0.06935 0.90939 0.0
C243 C 0.80001 0.09307 0.8909 0.0
C244 C 0.83044 0.11959 0.81738 0.0
C245 C 0.89358 0.08764 0.83411 0.0
N246 N 0.97015 0.02643 0.89495 0.0
N247 N 0.71576 0.13549 0.82643 0.0
C248 C 0.91168 0.06161 0.88001 0.0
C249 C 0.78126 0.1172 0.84469 0.0
N250 N 0.88681 0.0551 0.95512 0.0
N251 N 0.81823 0.15353 0.77565 0.0
H252 H 0.67834 0.13499 0.84539 0.0
H253 H 0.69719 0.14642 0.79189 0.0
H254 H 0.85378 0.15714 0.75517 0.0
H255 H 0.77597 0.18318 0.76321 0.0
H256 H 0.93664 0.04418 0.97124 0.0
H257 H 0.85484 0.05954 0.97754 0.0
H258 H 0.98212 -0.0003 0.92637 0.0
H259 H 0.00484 0.02003 0.87473 0.0
C260 C 0.08661 0.76384 0.35905 0.0
C261 C 0.10849 0.76159 0.40687 0.0
C262 C 0.146 0.8741 0.39912 0.0
C263 C 0.11522 0.87919 0.35245 0.0
N264 N 0.04713 0.83124 0.28885 0.0
N265 N 0.14812 0.82053 0.47289 0.0
C266 C 0.08316 0.8246 0.33249 0.0
C267 C 0.13461 0.81851 0.42704 0.0
N268 N 0.07023 0.70784 0.33896 0.0
N269 N 0.18991 0.92048 0.41661 0.0
H270 H 0.14524 0.78063 0.49551 0.0
H271 H 0.15814 0.86347 0.48837 0.0
H272 H 0.2036 0.96033 0.39708 0.0
H273 H 0.21912 0.91534 0.44943 0.0
H274 H 0.06033 0.70565 0.30403 0.0
H275 H 0.0723 0.6626 0.35735 0.0
H276 H 0.01711 0.79469 0.27399 0.0
H277 H 0.04217 0.87528 0.26884 0.0
loop_
_geom_bond_atom_site_label_1
_geom_bond_atom_site_label_2
_geom_bond_distance
_geom_bond_site_symmetry_2
_ccdc_geom_bond_type
C0 C1 1.443 . S
C0 N4 1.376 . S
C0 C38 1.389 . S
C1 C0 1.443 . S
C1 C2 1.340 . S
C1 H41 0.951 . S
C2 C1 1.340 . S
C2 C3 1.439 . S
C2 H42 0.950 . S
C3 C2 1.439 . S
C3 N4 1.374 . S
C3 C37 1.395 . S
N4 C0 1.376 . S
N4 C3 1.374 . S
N4 Co5 2.008 . S
Co5 N4 2.008 . S
Co5 N6 1.995 1_554 S
Co5 N11 2.008 1_544 S
Co5 N16 1.995 1_545 S
Co5 N21 2.282 . S
Co5 N27 2.282 1_554 S
N6 Co5 1.995 1_556 S
N6 C7 1.376 . S
N6 C10 1.383 . S
C7 N6 1.376 . S
C7 C8 1.446 . S
C7 C37 1.391 1_556 S
C8 C7 1.446 . S
C8 C9 1.339 . S
C8 H43 0.949 . S
C9 C8 1.339 . S
C9 C10 1.439 . S
C9 H44 0.950 . S
C10 N6 1.383 . S
C10 C9 1.439 . S
C10 C39 1.392 . S
N11 Co5 2.008 1_566 S
N11 C12 1.376 1_565 S
N11 C15 1.374 1_556 S
C12 N11 1.376 1_545 S
C12 C13 1.443 1_545 S
C12 C39 1.389 . S
C13 C12 1.443 1_565 S
C13 C14 1.340 . S
C13 H45 0.951 . S
C14 C13 1.340 . S
C14 C15 1.439 1_556 S
C14 H46 0.950 . S
C15 N11 1.374 1_554 S
C15 C14 1.439 1_554 S
C15 C40 1.395 . S
N16 Co5 1.995 1_565 S
N16 C17 1.376 . S
N16 C20 1.383 1_565 S
C17 N16 1.376 . S
C17 C18 1.446 . S
C17 C40 1.391 . S
C18 C17 1.446 . S
C18 C19 1.339 . S
C18 H47 0.949 . S
C19 C18 1.339 . S
C19 C20 1.439 1_565 S
C19 H48 0.950 . S
C20 N16 1.383 1_545 S
C20 C19 1.439 1_545 S
C20 C38 1.392 . S
N21 Co5 2.282 . S
N21 C24 1.332 . S
N21 C26 1.332 . S
C22 C23 1.386 . S
C22 C25 1.388 . S
C23 C22 1.386 . S
C23 C24 1.382 . S
C23 H49 0.950 1_545 S
C24 N21 1.332 . S
C24 C23 1.382 . S
C24 H35 0.952 1_545 S
C25 C22 1.388 . S
C25 C26 1.382 . S
C25 H50 0.950 . S
C26 N21 1.332 . S
C26 C25 1.382 . S
C26 H36 0.948 . S
N27 Co5 2.282 1_556 S
N27 C31 1.332 . S
N27 C32 1.332 . S
C28 C29 1.388 . S
C28 C32 1.382 . S
C28 H51 0.950 1_545 S
C29 C28 1.388 . S
C29 C30 1.386 . S
C30 C29 1.386 . S
C30 C31 1.382 . S
C30 H52 0.950 . S
C31 N27 1.332 . S
C31 C30 1.382 . S
C31 H33 0.952 . S
C32 N27 1.332 . S
C32 C28 1.382 . S
C32 H34 0.948 1_545 S
H33 C31 0.952 . S
H34 C32 0.948 1_565 S
H35 C24 0.952 1_565 S
H36 C26 0.948 . S
C37 C3 1.395 . S
C37 C7 1.391 1_554 S
C38 C0 1.389 . S
C38 C20 1.392 . S
C39 C10 1.392 . S
C39 C12 1.389 . S
C40 C15 1.395 . S
C40 C17 1.391 . S
H41 C1 0.951 . S
H42 C2 0.950 . S
H43 C8 0.949 . S
H44 C9 0.950 . S
H45 C13 0.951 . S
H46 C14 0.950 . S
H47 C18 0.949 . S
H48 C19 0.950 . S
H49 C23 0.950 1_565 S
H50 C25 0.950 . S
H51 C28 0.950 1_565 S
H52 C30 0.950 . S
C53 C54 1.443 . S
C53 N57 1.376 . S
C53 C91 1.389 . S
C54 C53 1.443 . S
C54 C55 1.340 . S
C54 H94 0.951 . S
C55 C54 1.340 . S
C55 C56 1.439 . S
C55 H95 0.950 . S
C56 C55 1.439 . S
C56 N57 1.374 . S
C56 C90 1.395 . S
N57 C53 1.376 . S
N57 C56 1.374 . S
N57 Co58 2.008 . S
Co58 N57 2.008 . S
Co58 N59 1.995 . S
Co58 N64 2.008 . S
Co58 N69 1.995 . S
Co58 N74 2.282 . S
Co58 N80 2.282 . S
N59 Co58 1.995 . S
N59 C60 1.376 . S
N59 C63 1.383 . S
C60 N59 1.376 . S
C60 C61 1.446 . S
C60 C90 1.391 . S
C61 C60 1.446 . S
C61 C62 1.339 . S
C61 H96 0.949 . S
C62 C61 1.339 . S
C62 C63 1.439 . S
C62 H97 0.950 . S
C63 N59 1.383 . S
C63 C62 1.439 . S
C63 C92 1.392 . S
N64 Co58 2.008 . S
N64 C65 1.376 . S
N64 C68 1.374 1_455 S
C65 N64 1.376 . S
C65 C66 1.443 1_455 S
C65 C92 1.389 . S
C66 C65 1.443 1_655 S
C66 C67 1.340 . S
C66 H98 0.951 . S
C67 C66 1.340 . S
C67 C68 1.439 . S
C67 H99 0.950 . S
C68 N64 1.374 1_655 S
C68 C67 1.439 . S
C68 C93 1.395 . S
N69 Co58 1.995 . S
N69 C70 1.376 1_455 S
N69 C73 1.383 . S
C70 N69 1.376 1_655 S
C70 C71 1.446 . S
C70 C93 1.391 . S
C71 C70 1.446 . S
C71 C72 1.339 . S
C71 H100 0.949 . S
C72 C71 1.339 . S
C72 C73 1.439 1_655 S
C72 H101 0.950 . S
C73 N69 1.383 . S
C73 C72 1.439 1_455 S
C73 C91 1.392 . S
N74 Co58 2.282 . S
N74 C77 1.332 . S
N74 C79 1.332 . S
C75 C76 1.386 . S
C75 C78 1.388 . S
C76 C75 1.386 . S
C76 C77 1.382 . S
C76 H102 0.950 1_455 S
C77 N74 1.332 . S
C77 C76 1.382 . S
C77 H88 0.952 1_455 S
C78 C75 1.388 . S
C78 C79 1.382 . S
C78 H103 0.950 . S
C79 N74 1.332 . S
C79 C78 1.382 . S
C79 H89 0.948 . S
N80 Co58 2.282 . S
N80 C84 1.332 . S
N80 C85 1.332 . S
C81 C82 1.388 . S
C81 C85 1.382 . S
C81 H104 0.950 1_455 S
C82 C81 1.388 . S
C82 C83 1.386 . S
C83 C82 1.386 . S
C83 C84 1.382 . S
C83 H105 0.950 . S
C84 N80 1.332 . S
C84 C83 1.382 . S
C84 H86 0.952 . S
C85 N80 1.332 . S
C85 C81 1.382 . S
C85 H87 0.948 1_455 S
H86 C84 0.952 . S
H87 C85 0.948 1_655 S
H88 C77 0.952 1_655 S
H89 C79 0.948 . S
C90 C56 1.395 . S
C90 C60 1.391 . S
C91 C53 1.389 . S
C91 C73 1.392 . S
C92 C63 1.392 . S
C92 C65 1.389 . S
C93 C68 1.395 . S
C93 C70 1.391 . S
H94 C54 0.951 . S
H95 C55 0.950 . S
H96 C61 0.949 . S
H97 C62 0.950 . S
H98 C66 0.951 . S
H99 C67 0.950 . S
H100 C71 0.949 . S
H101 C72 0.950 . S
H102 C76 0.950 1_655 S
H103 C78 0.950 . S
H104 C81 0.950 1_655 S
H105 C83 0.950 . S
Mg106 O107 2.028 . S
Mg106 O113 1.986 . S
Mg106 O115 2.114 1_545 S
Mg106 O116 2.251 . S
Mg106 O119 2.010 . S
O107 Mg106 2.028 . S
O107 C110 1.250 1_455 S
O108 Mg109 2.028 . S
O108 C110 1.248 . S
Mg109 O108 2.028 . S
Mg109 O114 2.032 1_655 S
Mg109 O116 2.079 1_655 S
C110 O107 1.250 1_655 S
C110 O108 1.248 . S
C111 O112 1.264 . S
C111 O119 1.249 . S
O112 C111 1.264 . S
O113 Mg106 1.986 . S
O113 C117 1.246 . S
O114 Mg109 2.032 1_455 S
O114 C117 1.259 . S
O115 Mg106 2.114 1_565 S
O115 C118 1.252 . S
O116 Mg106 2.251 . S
O116 Mg109 2.079 1_455 S
O116 C118 1.273 1_545 S
C117 O113 1.246 . S
C117 O114 1.259 . S
C118 O115 1.252 . S
C118 O116 1.273 1_565 S
O119 Mg106 2.010 . S
O119 C111 1.249 . S
Mg120 O121 2.028 . S
Mg120 O127 1.986 . S
Mg120 O129 2.114 1_545 S
Mg120 O130 2.251 . S
Mg120 O133 2.010 1_455 S
O121 Mg120 2.028 . S
O121 C124 1.250 . S
O122 Mg123 2.028 . S
O122 C124 1.248 . S
Mg123 O122 2.028 . S
Mg123 O128 2.032 . S
Mg123 O130 2.079 . S
C124 O121 1.250 . S
C124 O122 1.248 . S
C125 O126 1.264 . S
C125 O133 1.249 . S
O126 C125 1.264 . S
O127 Mg120 1.986 . S
O127 C131 1.246 . S
O128 Mg123 2.032 . S
O128 C131 1.259 . S
O129 Mg120 2.114 1_565 S
O129 C132 1.252 . S
O130 Mg120 2.251 . S
O130 Mg123 2.079 . S
O130 C132 1.273 1_545 S
C131 O127 1.246 . S
C131 O128 1.259 . S
C132 O129 1.252 . S
C132 O130 1.273 1_565 S
O133 Mg120 2.010 1_655 S
O133 C125 1.249 . S
C134 C135 1.363 . S
C134 C140 1.379 . S
C134 N142 1.356 1_545 S
C135 C134 1.363 . S
C135 C141 1.363 . S
C136 C137 1.363 . S
C136 C141 1.379 . S
C136 N143 1.356 . S
C137 C136 1.363 . S
C137 C140 1.363 . S
N138 C140 1.356 1_565 S
N138 H150 0.984 . S
N138 H151 0.985 . S
N139 C141 1.356 . S
N139 H144 0.984 . S
N139 H145 0.985 . S
C140 C134 1.379 . S
C140 C137 1.363 . S
C140 N138 1.356 1_545 S
C141 C135 1.363 . S
C141 C136 1.379 . S
C141 N139 1.356 . S
N142 C134 1.356 1_565 S
N142 H148 0.984 . S
N142 H149 0.984 . S
N143 C136 1.356 . S
N143 H146 0.984 . S
N143 H147 0.985 . S
H144 N139 0.984 . S
H145 N139 0.985 . S
H146 N143 0.984 . S
H147 N143 0.985 . S
H148 N142 0.984 . S
H149 N142 0.984 . S
H150 N138 0.984 . S
H151 N138 0.985 . S
C152 C153 1.363 . S
C152 C158 1.379 . S
C152 N160 1.356 . S
C153 C152 1.363 . S
C153 C159 1.363 . S
C154 C155 1.363 . S
C154 C159 1.379 . S
C154 N161 1.356 . S
C155 C154 1.363 . S
C155 C158 1.363 . S
N156 C158 1.356 . S
N156 H168 0.984 . S
N156 H169 0.985 . S
N157 C159 1.356 . S
N157 H162 0.984 . S
N157 H163 0.985 1_455 S
C158 C152 1.379 . S
C158 C155 1.363 . S
C158 N156 1.356 . S
C159 C153 1.363 . S
C159 C154 1.379 . S
C159 N157 1.356 . S
N160 C152 1.356 . S
N160 H166 0.984 . S
N160 H167 0.984 . S
N161 C154 1.356 . S
N161 H164 0.984 . S
N161 H165 0.985 1_455 S
H162 N157 0.984 . S
H163 N157 0.985 1_655 S
H164 N161 0.984 . S
H165 N161 0.985 1_655 S
H166 N160 0.984 . S
H167 N160 0.984 . S
H168 N156 0.984 . S
H169 N156 0.985 . S
C170 C171 1.363 . S
C170 C176 1.379 . S
C170 N178 1.356 . S
C171 C170 1.363 . S
C171 C177 1.363 . S
C172 C173 1.363 . S
C172 C177 1.379 . S
C172 N179 1.356 1_545 S
C173 C172 1.363 . S
C173 C176 1.363 . S
N174 C176 1.356 . S
N174 H186 0.984 . S
N174 H187 0.985 1_655 S
N175 C177 1.356 1_565 S
N175 H180 0.984 . S
N175 H181 0.985 . S
C176 C170 1.379 . S
C176 C173 1.363 . S
C176 N174 1.356 . S
C177 C171 1.363 . S
C177 C172 1.379 . S
C177 N175 1.356 1_545 S
N178 C170 1.356 . S
N178 H184 0.984 . S
N178 H185 0.984 . S
N179 C172 1.356 1_565 S
N179 H182 0.984 . S
N179 H183 0.985 . S
H180 N175 0.984 . S
H181 N175 0.985 . S
H182 N179 0.984 . S
H183 N179 0.985 . S
H184 N178 0.984 . S
H185 N178 0.984 . S
H186 N174 0.984 . S
H187 N174 0.985 1_455 S
C188 C189 1.363 . S
C188 C194 1.379 . S
C188 N196 1.356 . S
C189 C188 1.363 . S
C189 C195 1.363 . S
C190 C191 1.363 . S
C190 C195 1.379 . S
C190 N197 1.356 . S
C191 C190 1.363 . S
C191 C194 1.363 . S
N192 C194 1.356 . S
N192 H204 0.984 1_565 S
N192 H205 0.985 1_565 S
N193 C195 1.356 . S
N193 H198 0.984 . S
N193 H199 0.985 1_455 S
C194 C188 1.379 . S
C194 C191 1.363 . S
C194 N192 1.356 . S
C195 C189 1.363 . S
C195 C190 1.379 . S
C195 N193 1.356 . S
N196 C188 1.356 . S
N196 H202 0.984 . S
N196 H203 0.984 . S
N197 C190 1.356 . S
N197 H200 0.984 . S
N197 H201 0.985 1_455 S
H198 N193 0.984 . S
H199 N193 0.985 1_655 S
H200 N197 0.984 . S
H201 N197 0.985 1_655 S
H202 N196 0.984 . S
H203 N196 0.984 . S
H204 N192 0.984 1_545 S
H205 N192 0.985 1_545 S
C206 C207 1.363 . S
C206 C212 1.379 . S
C206 N214 1.356 . S
C207 C206 1.363 . S
C207 C213 1.363 . S
C208 C209 1.363 . S
C208 C213 1.379 . S
C208 N215 1.356 . S
C209 C208 1.363 . S
C209 C212 1.363 . S
N210 C212 1.356 . S
N210 H222 0.984 . S
N210 H223 0.985 . S
N211 C213 1.356 . S
N211 H216 0.984 . S
N211 H217 0.985 . S
C212 C206 1.379 . S
C212 C209 1.363 . S
C212 N210 1.356 . S
C213 C207 1.363 . S
C213 C208 1.379 . S
C213 N211 1.356 . S
N214 C206 1.356 . S
N214 H220 0.984 . S
N214 H221 0.984 . S
N215 C208 1.356 . S
N215 H218 0.984 . S
N215 H219 0.985 . S
H216 N211 0.984 . S
H217 N211 0.985 . S
H218 N215 0.984 . S
H219 N215 0.985 . S
H220 N214 0.984 . S
H221 N214 0.984 . S
H222 N210 0.984 . S
H223 N210 0.985 . S
C224 C225 1.363 . S
C224 C230 1.379 . S
C224 N232 1.356 . S
C225 C224 1.363 . S
C225 C231 1.363 . S
C226 C227 1.363 . S
C226 C231 1.379 . S
C226 N233 1.356 . S
C227 C226 1.363 . S
C227 C230 1.363 . S
N228 C230 1.356 . S
N228 H240 0.984 . S
N228 H241 0.985 . S
N229 C231 1.356 . S
N229 H234 0.984 . S
N229 H235 0.985 . S
C230 C224 1.379 . S
C230 C227 1.363 . S
C230 N228 1.356 . S
C231 C225 1.363 . S
C231 C226 1.379 . S
C231 N229 1.356 . S
N232 C224 1.356 . S
N232 H238 0.984 . S
N232 H239 0.984 . S
N233 C226 1.356 . S
N233 H236 0.984 . S
N233 H237 0.985 . S
H234 N229 0.984 . S
H235 N229 0.985 . S
H236 N233 0.984 . S
H237 N233 0.985 . S
H238 N232 0.984 . S
H239 N232 0.984 . S
H240 N228 0.984 . S
H241 N228 0.985 . S
C242 C243 1.363 . S
C242 C248 1.379 . S
C242 N250 1.356 1_545 S
C243 C242 1.363 . S
C243 C249 1.363 . S
C244 C245 1.363 . S
C244 C249 1.379 . S
C244 N251 1.356 . S
C245 C244 1.363 . S
C245 C248 1.363 . S
N246 C248 1.356 . S
N246 H258 0.984 1_545 S
N246 H259 0.985 1_655 S
N247 C249 1.356 . S
N247 H252 0.984 . S
N247 H253 0.985 . S
C248 C242 1.379 . S
C248 C245 1.363 . S
C248 N246 1.356 . S
C249 C243 1.363 . S
C249 C244 1.379 . S
C249 N247 1.356 . S
N250 C242 1.356 1_565 S
N250 H256 0.984 . S
N250 H257 0.984 . S
N251 C244 1.356 . S
N251 H254 0.984 . S
N251 H255 0.985 . S
H252 N247 0.984 . S
H253 N247 0.985 . S
H254 N251 0.984 . S
H255 N251 0.985 . S
H256 N250 0.984 . S
H257 N250 0.984 . S
H258 N246 0.984 1_565 S
H259 N246 0.985 1_455 S
C260 C261 1.363 . S
C260 C266 1.379 . S
C260 N268 1.356 . S
C261 C260 1.363 . S
C261 C267 1.363 . S
C262 C263 1.363 . S
C262 C267 1.379 . S
C262 N269 1.356 . S
C263 C262 1.363 . S
C263 C266 1.363 . S
N264 C266 1.356 . S
N264 H276 0.984 . S
N264 H277 0.985 . S
N265 C267 1.356 . S
N265 H270 0.984 . S
N265 H271 0.985 . S
C266 C260 1.379 . S
C266 C263 1.363 . S
C266 N264 1.356 . S
C267 C261 1.363 . S
C267 C262 1.379 . S
C267 N265 1.356 . S
N268 C260 1.356 . S
N268 H274 0.984 . S
N268 H275 0.984 . S
N269 C262 1.356 . S
N269 H272 0.984 . S
N269 H273 0.985 . S
H270 N265 0.984 . S
H271 N265 0.985 . S
H272 N269 0.984 . S
H273 N269 0.985 . S
H274 N268 0.984 . S
H275 N268 0.984 . S
H276 N264 0.984 . S
H277 N264 0.985 . S
C137 C111 1.259 . S
C135 C22 1.501 . S
C155 C131 1.467 . S
C153 C91 1.495 . S
C173 C110 1.460 . S
C171 C38 1.500 . S
C191 C132 1.506 . S
C189 C75 1.506 . S
C209 C124 1.461 . S
C207 C39 1.501 . S
C227 C117 1.469 . S
C225 C82 1.495 . S
C245 C125 1.260 . S
C243 C29 1.502 . S
C261 C92 1.505 . S
C263 C118 1.505 . S
