# Generated by pormake.
# Topology rtl, (3,6)-cn, num edge types: 1
# Building blocks:
#     Node 0, Type 0, BuildingBlock: WUSLED_clean_sbu_0, # of connection points: 3
#     Node 1, Type 0, BuildingBlock: WUSLED_clean_sbu_0, # of connection points: 3
#     Node 2, Type 0, BuildingBlock: WUSLED_clean_sbu_0, # of connection points: 3
#     Node 3, Type 0, BuildingBlock: WUSLED_clean_sbu_0, # of connection points: 3
#     Node 4, Type 1, BuildingBlock: FUNLAD_clean_sbu_0, # of connection points: 6
#     Node 5, Type 1, BuildingBlock: FUNLAD_clean_sbu_0, # of connection points: 6
#     Edge 6, Type (0, 1), BuildingBlock: CIFDUS_clean_linker_0, # of connection points: 2
#     Edge 7, Type (0, 1), BuildingBlock: CIFDUS_clean_linker_0, # of connection points: 2
#     Edge 8, Type (0, 1), BuildingBlock: CIFDUS_clean_linker_0, # of connection points: 2
#     Edge 9, Type (0, 1), BuildingBlock: CIFDUS_clean_linker_0, # of connection points: 2
#     Edge 10, Type (0, 1), BuildingBlock: CIFDUS_clean_linker_0, # of connection points: 2
#     Edge 11, Type (0, 1), BuildingBlock: CIFDUS_clean_linker_0, # of connection points: 2
#     Edge 12, Type (0, 1), BuildingBlock: CIFDUS_clean_linker_0, # of connection points: 2
#     Edge 13, Type (0, 1), BuildingBlock: CIFDUS_clean_linker_0, # of connection points: 2
#     Edge 14, Type (0, 1), BuildingBlock: CIFDUS_clean_linker_0, # of connection points: 2
#     Edge 15, Type (0, 1), BuildingBlock: CIFDUS_clean_linker_0, # of connection points: 2
#     Edge 16, Type (0, 1), BuildingBlock: CIFDUS_clean_linker_0, # of connection points: 2
#     Edge 17, Type (0, 1), BuildingBlock: CIFDUS_clean_linker_0, # of connection points: 2
# Relax obj value: 0.024
# Max RMSD: 0.091
# Mean RMSD: 0.077
data_MOF--net-rtl--node1-WUSLED_clean_sbu_0--node2-FUNLAD_clean_sbu_0--edge1-CIFDUS_clean_linker_0
_symmetry_space_group_name_H-M    P1
_symmetry_Int_Tables_number       1
_symmetry_cell_setting            triclinic
loop_
_symmetry_equiv_pos_as_xyz
'x, y, z'
_cell_length_a     47.160036
_cell_length_b     38.909765
_cell_length_c     26.995164
_cell_angle_alpha  90.365577
_cell_angle_beta   91.151661
_cell_angle_gamma 90.10138
loop_
_atom_site_label
_atom_site_type_symbol
_atom_site_fract_x
_atom_site_fract_y
_atom_site_fract_z
_atom_type_partial_charge
C0 C 0.1382 0.81865 0.15607 0.0
C1 C 0.11053 0.82999 0.14518 0.0
C2 C 0.10581 0.85072 0.22999 0.0
C3 C 0.09441 0.84573 0.18191 0.0
C4 C 0.13342 0.8389 0.24076 0.0
C5 C 0.14944 0.82299 0.20413 0.0
U6 U 0.15409 0.80474 0.02002 0.0
O7 O 0.19462 0.80682 0.98103 0.0
O8 O 0.16944 0.75934 0.97979 0.0
C9 C 0.19349 0.77417 0.96833 0.0
C10 C 0.15597 0.80376 0.11724 0.0
C11 C 0.21931 0.75414 0.9791 0.0
C12 C 0.25011 0.72294 0.03637 0.0
C13 C 0.22571 0.74258 0.02716 0.0
C14 C 0.26209 0.72668 0.94972 0.0
C15 C 0.26856 0.71465 0.99769 0.0
C16 C 0.23769 0.7462 0.94057 0.0
C17 C 0.10242 0.84571 0.92474 0.0
C18 C 0.1115 0.85943 0.83873 0.0
C19 C 0.06356 0.86169 0.86918 0.0
C20 C 0.07347 0.85161 0.91599 0.0
C21 C 0.08249 0.86616 0.83011 0.0
C22 C 0.12139 0.84919 0.88564 0.0
C23 C 0.11228 0.83753 0.9754 0.0
O24 O 0.14412 0.77926 0.09011 0.0
O25 O 0.16988 0.82626 0.09094 0.0
O26 O 0.13591 0.85256 0.9906 0.0
O27 O 0.11065 0.80509 0.98831 0.0
H28 H 0.10158 0.82714 0.10809 0.0
H29 H 0.07334 0.85489 0.1723 0.0
H30 H 0.14269 0.84206 0.27756 0.0
H31 H 0.17078 0.81447 0.21316 0.0
H32 H 0.25461 0.71443 0.07382 0.0
H33 H 0.2118 0.74863 0.05745 0.0
H34 H 0.27559 0.72041 0.91897 0.0
H35 H 0.23304 0.75488 0.90322 0.0
H36 H 0.12658 0.86227 0.80928 0.0
H37 H 0.04118 0.86706 0.86406 0.0
H38 H 0.05853 0.84913 0.94575 0.0
H39 H 0.14384 0.84456 0.89158 0.0
C40 C 0.66358 0.67738 0.66794 0.0
C41 C 0.6347 0.6687 0.66445 0.0
C42 C 0.6375 0.64186 0.74572 0.0
C43 C 0.62174 0.65125 0.70312 0.0
C44 C 0.66644 0.65059 0.74894 0.0
C45 C 0.67933 0.66825 0.71041 0.0
U46 U 0.66783 0.6999 0.53132 0.0
O47 O 0.67988 0.74796 0.49471 0.0
O48 O 0.70464 0.70109 0.48254 0.0
C49 C 0.70266 0.73437 0.47532 0.0
C50 C 0.67774 0.69485 0.62701 0.0
C51 C 0.72905 0.75402 0.48317 0.0
C52 C 0.766 0.77765 0.53754 0.0
C53 C 0.74094 0.75867 0.53082 0.0
C54 C 0.76752 0.78734 0.44906 0.0
C55 C 0.77957 0.79231 0.49672 0.0
C56 C 0.74251 0.76839 0.44242 0.0
C57 C 0.6103 0.66407 0.44221 0.0
C58 C 0.61463 0.65773 0.35305 0.0
C59 C 0.56934 0.6477 0.3913 0.0
C60 C 0.58148 0.65556 0.4377 0.0
C61 C 0.5859 0.64806 0.34854 0.0
C62 C 0.62671 0.66576 0.39949 0.0
C63 C 0.62309 0.66916 0.49192 0.0
O64 O 0.68918 0.67431 0.59421 0.0
O65 O 0.66382 0.72065 0.60684 0.0
O66 O 0.62246 0.70064 0.5098 0.0
O67 O 0.64748 0.65366 0.49995 0.0
H68 H 0.62224 0.67517 0.63166 0.0
H69 H 0.59951 0.6445 0.69925 0.0
H70 H 0.67908 0.64398 0.78143 0.0
H71 H 0.70167 0.67463 0.71364 0.0
H72 H 0.77451 0.78127 0.57477 0.0
H73 H 0.73076 0.74776 0.56274 0.0
H74 H 0.7776 0.7978 0.41675 0.0
H75 H 0.73366 0.76492 0.40536 0.0
H76 H 0.62785 0.65865 0.32074 0.0
H77 H 0.54726 0.64003 0.3892 0.0
H78 H 0.5685 0.6541 0.47029 0.0
H79 H 0.64899 0.67252 0.40219 0.0
C80 C 0.86589 0.17733 0.15243 0.0
C81 C 0.89407 0.16653 0.14694 0.0
C82 C 0.89406 0.14123 0.2293 0.0
C83 C 0.90809 0.14881 0.18517 0.0
C84 C 0.86587 0.15222 0.23461 0.0
C85 C 0.85197 0.17015 0.19657 0.0
U86 U 0.85199 0.19356 0.01502 0.0
O87 O 0.81181 0.19961 0.97325 0.0
O88 O 0.84307 0.24148 0.97472 0.0
C89 C 0.81745 0.2315 0.96096 0.0
C90 C 0.85041 0.1951 0.11213 0.0
C91 C 0.79466 0.25659 0.96899 0.0
C92 C 0.76056 0.28488 0.02191 0.0
C93 C 0.78241 0.26097 0.01557 0.0
C94 C 0.76322 0.30032 0.93532 0.0
C95 C 0.75074 0.30491 0.98182 0.0
C96 C 0.78494 0.27641 0.92904 0.0
C97 C 0.89665 0.14359 0.92091 0.0
C98 C 0.88451 0.12825 0.83553 0.0
C99 C 0.93345 0.12617 0.86429 0.0
C100 C 0.92525 0.13719 0.91124 0.0
C101 C 0.91315 0.12116 0.82603 0.0
C102 C 0.87633 0.13951 0.88251 0.0
C103 C 0.88857 0.15305 0.9717 0.0
O104 O 0.86524 0.21698 0.08617 0.0
O105 O 0.83368 0.17544 0.0846 0.0
O106 O 0.8634 0.14276 0.98568 0.0
O107 O 0.89473 0.18459 0.98597 0.0
H108 H 0.90514 0.17148 0.11293 0.0
H109 H 0.92968 0.14034 0.17975 0.0
H110 H 0.85459 0.14705 0.26832 0.0
H111 H 0.83021 0.17821 0.20146 0.0
H112 H 0.7516 0.28801 0.05829 0.0
H113 H 0.78976 0.24592 0.04692 0.0
H114 H 0.75592 0.31489 0.9035 0.0
H115 H 0.7941 0.27329 0.89279 0.0
H116 H 0.86842 0.12498 0.80669 0.0
H117 H 0.95562 0.12056 0.85841 0.0
H118 H 0.94124 0.14011 0.94037 0.0
H119 H 0.85412 0.14454 0.88898 0.0
C120 C 0.3798 0.3296 0.36757 0.0
C121 C 0.4073 0.34137 0.37936 0.0
C122 C 0.41383 0.3584 0.29368 0.0
C123 C 0.42424 0.35546 0.34266 0.0
C124 C 0.38641 0.3461 0.28197 0.0
C125 C 0.36958 0.33178 0.31862 0.0
U126 U 0.35953 0.3264 0.50255 0.0
O127 O 0.31787 0.32931 0.5374 0.0
O128 O 0.34459 0.28377 0.54853 0.0
C129 C 0.31975 0.29809 0.55548 0.0
C130 C 0.36111 0.31682 0.40639 0.0
C131 C 0.295 0.27584 0.546 0.0
C132 C 0.26144 0.24776 0.48942 0.0
C133 C 0.28537 0.26856 0.49754 0.0
C134 C 0.25679 0.24113 0.57809 0.0
C135 C 0.24685 0.23381 0.52965 0.0
C136 C 0.28063 0.26196 0.58613 0.0
C137 C 0.40512 0.3782 0.59591 0.0
C138 C 0.39109 0.3975 0.6777 0.0
C139 C 0.44063 0.39845 0.6556 0.0
C140 C 0.43347 0.38526 0.60875 0.0
C141 C 0.41952 0.40496 0.6905 0.0
C142 C 0.38395 0.38406 0.63083 0.0
C143 C 0.3982 0.36562 0.54558 0.0
O144 O 0.37282 0.2956 0.4385 0.0
O145 O 0.34531 0.34042 0.42722 0.0
O146 O 0.37473 0.37763 0.52515 0.0
O147 O 0.40175 0.33252 0.53802 0.0
H148 H 0.41547 0.34025 0.41712 0.0
H149 H 0.44512 0.36509 0.35293 0.0
H150 H 0.37791 0.34775 0.24449 0.0
H151 H 0.34838 0.32293 0.30889 0.0
H152 H 0.25452 0.24232 0.45168 0.0
H153 H 0.29632 0.279 0.46609 0.0
H154 H 0.24585 0.23121 0.60988 0.0
H155 H 0.28775 0.26742 0.62378 0.0
H156 H 0.37441 0.40192 0.70398 0.0
H157 H 0.46267 0.40431 0.66408 0.0
H158 H 0.45007 0.38095 0.58225 0.0
H159 H 0.36193 0.37855 0.62174 0.0
C160 C 0.04114 0.97094 0.44138 0.0
N161 N 0.0685 0.05997 0.51635 0.0
C162 C 0.09438 0.04467 0.51991 0.0
C163 C 0.11901 0.06448 0.52393 0.0
C164 C 0.11713 0.10049 0.52416 0.0
C165 C 0.09019 0.11567 0.51954 0.0
C166 C 0.06602 0.09482 0.51581 0.0
Zn167 Zn 0.03321 0.02903 0.51334 0.0
C168 C 0.99057 0.0507 0.43811 0.0
N169 N 0.96112 0.96179 0.50829 0.0
C170 C 0.9633 0.92691 0.50727 0.0
C171 C 0.93533 0.97743 0.50638 0.0
C172 C 0.9105 0.95798 0.50249 0.0
C173 C 0.91203 0.92196 0.50056 0.0
C174 C 0.9389 0.9064 0.50353 0.0
Zn175 Zn 0.99653 0.99265 0.51122 0.0
O176 O 0.05259 0.99784 0.45975 0.0
C177 C 0.039 0.9713 0.58689 0.0
O178 O 0.01664 0.96198 0.45561 0.0
H179 H 0.93399 1.00516 0.50746 0.0
H180 H 0.09595 0.01695 0.52003 0.0
H181 H 0.984 0.91498 0.50877 0.0
O182 O 0.05092 0.9982 0.57068 0.0
O183 O 0.01526 0.9619 0.56805 0.0
H184 H 0.04525 0.10648 0.51307 0.0
O185 O 0.97749 0.0238 0.5671 0.0
O186 O 0.01346 0.05964 0.56752 0.0
O187 O 0.97839 0.02409 0.45472 0.0
O188 O 0.01472 0.05939 0.45595 0.0
C189 C 0.98958 0.05073 0.58434 0.0
H190 H 0.13936 0.0517 0.52672 0.0
H191 H 0.08776 0.14334 0.52 0.0
H192 H 0.89026 0.97108 0.5011 0.0
H193 H 0.94109 0.87872 0.50177 0.0
C194 C 0.4902 0.47805 0.94125 0.0
N195 N 0.56506 0.46253 0.0245 0.0
C196 C 0.56011 0.42812 0.02111 0.0
C197 C 0.58271 0.40489 0.02127 0.0
C198 C 0.61076 0.4171 0.02503 0.0
C199 C 0.61518 0.45276 0.02905 0.0
C200 C 0.59197 0.47507 0.02863 0.0
Zn201 Zn 0.53152 0.49621 0.02182 0.0
C202 C 0.54245 0.55503 0.95327 0.0
N203 N 0.46187 0.56704 0.01506 0.0
C204 C 0.43516 0.55397 0.00997 0.0
C205 C 0.46636 0.60158 0.01746 0.0
C206 C 0.44351 0.62441 0.0143 0.0
C207 C 0.41571 0.61162 0.00876 0.0
C208 C 0.41173 0.57584 0.00682 0.0
Zn209 Zn 0.4956 0.53361 0.01823 0.0
O210 O 0.51304 0.46821 0.96243 0.0
C211 C 0.48396 0.47501 0.08598 0.0
O212 O 0.47799 0.50505 0.95689 0.0
H213 H 0.48773 0.61147 0.02163 0.0
H214 H 0.53858 0.41864 0.01772 0.0
H215 H 0.432 0.52646 0.00792 0.0
O216 O 0.50875 0.46575 0.07373 0.0
O217 O 0.4735 0.50235 0.06782 0.0
H218 H 0.59549 0.5025 0.03135 0.0
O219 O 0.51419 0.56139 0.07989 0.0
O220 O 0.54957 0.52476 0.08083 0.0
O221 O 0.51819 0.56427 0.96812 0.0
O222 O 0.55336 0.52739 0.96985 0.0
C223 C 0.53773 0.55129 0.09862 0.0
H224 H 0.57822 0.37769 0.01743 0.0
H225 H 0.63636 0.46338 0.03273 0.0
H226 H 0.44757 0.65178 0.01648 0.0
H227 H 0.39076 0.56481 1.00188 0.0
H228 H 0.23327 0.17469 0.57703 0.0
H229 H 0.20286 0.24384 0.46361 0.0
H230 H 0.1602 0.20873 0.45156 0.0
H231 H 0.13115 0.1587 0.47416 0.0
H232 H 0.16156 0.09028 0.58858 0.0
H233 H 0.20446 0.12486 0.59943 0.0
C234 C 0.21722 0.18224 0.54991 0.0
C235 C 0.22125 0.21194 0.5214 0.0
C236 C 0.19269 0.16205 0.54336 0.0
C237 C 0.20046 0.22094 0.48574 0.0
C238 C 0.17596 0.20099 0.47904 0.0
C239 C 0.14709 0.15152 0.50169 0.0
C240 C 0.14313 0.1219 0.53045 0.0
C241 C 0.17178 0.17157 0.50781 0.0
C242 C 0.1642 0.11269 0.56551 0.0
C243 C 0.18869 0.13255 0.57193 0.0
H244 H 0.32165 0.72321 0.96117 0.0
H245 H 0.27288 0.65704 0.05493 0.0
H246 H 0.31414 0.6201 0.06787 0.0
H247 H 0.36377 0.60563 0.05083 0.0
H248 H 0.41218 0.67107 0.95545 0.0
H249 H 0.37144 0.70918 0.94503 0.0
C250 C 0.31999 0.70061 0.98423 0.0
C251 C 0.29411 0.69293 0.00691 0.0
C252 C 0.34378 0.6793 0.99127 0.0
C253 C 0.29256 0.66383 0.03742 0.0
C254 C 0.31612 0.64254 0.0446 0.0
C255 C 0.36537 0.62813 0.02754 0.0
C256 C 0.39105 0.63536 1.00389 0.0
C257 C 0.34178 0.64987 0.02142 0.0
C258 C 0.39284 0.66501 0.97456 0.0
C259 C 0.36947 0.68674 0.9683 0.0
H260 H 0.7936 0.85205 0.45118 0.0
H261 H 0.8252 0.77875 0.55801 0.0
H262 H 0.86883 0.8122 0.56878 0.0
H263 H 0.89822 0.8623 0.54748 0.0
H264 H 0.86663 0.93464 0.43921 0.0
H265 H 0.82298 0.90143 0.42923 0.0
C266 C 0.81014 0.84316 0.47647 0.0
C267 C 0.80608 0.81284 0.50362 0.0
C268 C 0.83524 0.86239 0.48228 0.0
C269 C 0.82756 0.80216 0.537 0.0
C270 C 0.85263 0.82118 0.54296 0.0
C271 C 0.88188 0.87062 0.52141 0.0
C272 C 0.88572 0.90103 0.49429 0.0
C273 C 0.85673 0.85131 0.51571 0.0
C274 C 0.86412 0.91165 0.46111 0.0
C275 C 0.83918 0.89257 0.45516 0.0
H276 H 0.70179 0.29753 0.03326 0.0
H277 H 0.74748 0.36978 0.944 0.0
H278 H 0.70855 0.41072 0.94988 0.0
H279 H 0.66098 0.42543 0.9781 0.0
H280 H 0.61554 0.35398 0.06908 0.0
H281 H 0.65486 0.31339 0.06463 0.0
C282 C 0.70339 0.3224 0.01562 0.0
C283 C 0.72751 0.33041 0.98797 0.0
C284 C 0.68087 0.34593 0.01916 0.0
C285 C 0.72901 0.36265 0.96486 0.0
C286 C 0.7068 0.38619 0.96838 0.0
C287 C 0.65978 0.4012 0.99759 0.0
C288 C 0.63521 0.39285 0.02378 0.0
C289 C 0.68253 0.37801 0.99509 0.0
C290 C 0.63396 0.36098 0.04801 0.0
C291 C 0.65653 0.33778 0.04574 0.0
H292 H 0.125 0.90085 0.2923 0.0
H293 H 0.04978 0.84285 0.25303 0.0
H294 H 0.02299 0.87438 0.31541 0.0
H295 H 0.02102 0.91891 0.38118 0.0
H296 H 0.09667 0.97714 0.41817 0.0
H297 H 0.12314 0.94482 0.35716 0.0
C298 C 0.10282 0.89483 0.29774 0.0
C299 C 0.08947 0.86941 0.26826 0.0
C300 C 0.08757 0.91315 0.33335 0.0
C301 C 0.06053 0.86245 0.27508 0.0
C302 C 0.04523 0.88038 0.31086 0.0
C303 C 0.04331 0.92442 0.37595 0.0
C304 C 0.05676 0.95047 0.40429 0.0
C305 C 0.05852 0.90587 0.34021 0.0
C306 C 0.08566 0.95738 0.39682 0.0
C307 C 0.1009 0.93887 0.36192 0.0
H308 H 0.58629 0.65431 0.78687 0.0
H309 H 0.65824 0.58619 0.79581 0.0
H310 H 0.63566 0.55386 0.86164 0.0
H311 H 0.59494 0.54411 0.9154 0.0
H312 H 0.52304 0.61252 0.90626 0.0
H313 H 0.54608 0.64536 0.84178 0.0
C314 C 0.59695 0.63227 0.80306 0.0
C315 C 0.62387 0.62264 0.78635 0.0
C316 C 0.58385 0.6138 0.8409 0.0
C317 C 0.63762 0.59435 0.80829 0.0
C318 C 0.62466 0.57574 0.84578 0.0
C319 C 0.58434 0.56627 0.89944 0.0
C320 C 0.55723 0.5757 0.91566 0.0
C321 C 0.59772 0.58515 0.86227 0.0
C322 C 0.54388 0.60459 0.89458 0.0
C323 C 0.55703 0.62341 0.85758 0.0
H324 H 0.94782 0.14963 0.26695 0.0
H325 H 0.87251 0.08764 0.28119 0.0
H326 H 0.89564 0.05438 0.34682 0.0
H327 H 0.93718 0.04267 0.39993 0.0
H328 H 0.01253 0.10485 0.38694 0.0
H329 H 0.98952 0.13809 0.32096 0.0
C330 C 0.93657 0.1287 0.28426 0.0
C331 C 0.90846 0.12117 0.26922 0.0
C332 C 0.94999 0.1097 0.32219 0.0
C333 C 0.89403 0.09424 0.29244 0.0
C334 C 0.90729 0.07509 0.32982 0.0
C335 C 0.94864 0.06346 0.38268 0.0
C336 C 0.9766 0.07115 0.39835 0.0
C337 C 0.93524 0.0826 0.34501 0.0
C338 C 0.991 0.09834 0.37568 0.0
C339 C 0.97786 0.11737 0.33788 0.0
H340 H 0.46339 0.38708 0.75172 0.0
H341 H 0.39303 0.45735 0.73917 0.0
H342 H 0.40776 0.48523 0.817 0.0
H343 H 0.44225 0.49162 0.8863 0.0
H344 H 0.51282 0.42131 0.89763 0.0
H345 H 0.49645 0.3917 0.82261 0.0
C346 C 0.4513 0.40853 0.766 0.0
C347 C 0.42728 0.42027 0.73951 0.0
C348 C 0.46001 0.42458 0.81048 0.0
C349 C 0.41151 0.44766 0.759 0.0
C350 C 0.42002 0.46376 0.80334 0.0
C351 C 0.45395 0.4697 0.87252 0.0
C352 C 0.47886 0.45893 0.89748 0.0
C353 C 0.44447 0.45272 0.82909 0.0
C354 C 0.49366 0.43032 0.87917 0.0
C355 C 0.48434 0.41333 0.83617 0.0
H356 H 0.61009 0.60519 0.28209 0.0
H357 H 0.53397 0.66357 0.30686 0.0
H358 H 0.51264 0.64014 0.2304 0.0
H359 H 0.51492 0.60085 0.15827 0.0
H360 H 0.59116 0.54193 0.13566 0.0
H361 H 0.61317 0.56816 0.20894 0.0
C362 C 0.58902 0.61329 0.27035 0.0
C363 C 0.57368 0.63612 0.30015 0.0
C364 C 0.57681 0.59947 0.22673 0.0
C365 C 0.54616 0.64579 0.28482 0.0
C366 C 0.53397 0.63246 0.24104 0.0
C367 C 0.53642 0.59399 0.16918 0.0
C368 C 0.55126 0.5693 0.14154 0.0
C369 C 0.54897 0.60891 0.21198 0.0
C370 C 0.57911 0.56066 0.15633 0.0
C371 C 0.59178 0.57566 0.19829 0.0
H372 H 0.95878 0.13977 0.77195 0.0
H373 H 0.88707 0.07078 0.77066 0.0
H374 H 0.9033 0.04436 0.69394 0.0
H375 H 0.93956 0.0383 0.6302 0.0
H376 H 0.01162 0.10697 0.63241 0.0
H377 H 0.99357 0.13591 0.70565 0.0
C378 C 0.9467 0.11897 0.75483 0.0
C379 C 0.92184 0.10715 0.77722 0.0
C380 C 0.95628 0.10369 0.71095 0.0
C381 C 0.90615 0.08057 0.75407 0.0
C382 C 0.91552 0.06528 0.71034 0.0
C383 C 0.9512 0.05979 0.64642 0.0
C384 C 0.97704 0.07021 0.62592 0.0
C385 C 0.94079 0.07628 0.68885 0.0
C386 C 0.99174 0.09824 0.6474 0.0
C387 C 0.98147 0.11482 0.68942 0.0
H388 H 0.39597 0.40654 0.22815 0.0
H389 H 0.47019 0.34963 0.27426 0.0
H390 H 0.49848 0.37985 0.21307 0.0
H391 H 0.50219 0.42344 0.14727 0.0
H392 H 0.42766 0.481 0.10364 0.0
H393 H 0.39946 0.44928 0.16254 0.0
C394 C 0.41826 0.40043 0.22438 0.0
C395 C 0.43092 0.37577 0.25551 0.0
C396 C 0.43439 0.41809 0.18956 0.0
C397 C 0.45998 0.36866 0.25089 0.0
C398 C 0.47614 0.38585 0.21582 0.0
C399 C 0.47976 0.42889 0.15052 0.0
C400 C 0.46712 0.45461 0.12107 0.0
C401 C 0.4636 0.41078 0.18509 0.0
C402 C 0.43803 0.46148 0.12595 0.0
C403 C 0.42182 0.44332 0.15963 0.0
H404 H 0.10689 0.91491 0.77297 0.0
H405 H 0.03427 0.84756 0.7783 0.0
H406 H 0.01493 0.87299 0.70231 0.0
H407 H 0.01752 0.91641 0.63656 0.0
H408 H 0.09024 0.98385 0.63207 0.0
H409 H 0.11078 0.95596 0.70491 0.0
C410 C 0.08708 0.90535 0.75706 0.0
C411 C 0.07203 0.87945 0.78149 0.0
C412 C 0.07601 0.92022 0.71351 0.0
C413 C 0.04614 0.86778 0.76066 0.0
C414 C 0.0351 0.88224 0.7171 0.0
C415 C 0.03797 0.92482 0.65125 0.0
C416 C 0.05218 0.95235 0.62891 0.0
C417 C 0.04964 0.90884 0.69358 0.0
C418 C 0.0787 0.96285 0.64853 0.0
C419 C 0.09051 0.94693 0.69029 0.0
loop_
_geom_bond_atom_site_label_1
_geom_bond_atom_site_label_2
_geom_bond_distance
_geom_bond_site_symmetry_2
_ccdc_geom_bond_type
C0 C1 1.264 . S
C0 C5 1.479 . S
C0 C10 1.465 . S
C1 C0 1.264 . S
C1 C3 1.339 . S
C1 H28 0.931 . S
C2 C3 1.395 . S
C2 C4 1.320 . S
C3 C1 1.339 . S
C3 C2 1.395 . S
C3 H29 0.929 . S
C4 C2 1.320 . S
C4 C5 1.405 . S
C4 H30 0.930 . S
C5 C0 1.479 . S
C5 C4 1.405 . S
C5 H31 0.931 . S
U6 O7 2.454 . S
U6 O8 2.458 1_554 S
U6 C9 2.984 . S
U6 C10 2.847 . S
U6 C23 2.882 1_554 S
U6 O24 2.441 . S
U6 O25 2.420 . S
U6 O26 2.455 1_554 S
U6 O27 2.449 1_554 S
O7 U6 2.454 . S
O7 C9 1.353 . S
O8 U6 2.458 1_556 S
O8 C9 1.286 1_556 S
C9 U6 2.984 . S
C9 O7 1.353 . S
C9 O8 1.286 1_554 S
C9 C11 1.363 . S
C10 C0 1.465 . S
C10 U6 2.847 . S
C10 O24 1.249 . S
C10 O25 1.202 . S
C11 C9 1.363 . S
C11 C13 1.408 . S
C11 C16 1.342 1_554 S
C12 C13 1.310 . S
C12 C15 1.461 . S
C12 H32 0.932 . S
C13 C11 1.408 . S
C13 C12 1.310 . S
C13 H33 0.930 . S
C14 C15 1.474 1_556 S
C14 C16 1.285 . S
C14 H34 0.929 . S
C15 C12 1.461 . S
C15 C14 1.474 1_554 S
C16 C11 1.342 1_556 S
C16 C14 1.285 . S
C16 H35 0.930 . S
C17 C20 1.424 . S
C17 C22 1.245 . S
C17 C23 1.428 . S
C18 C21 1.260 . S
C18 C22 1.477 . S
C18 H36 0.932 . S
C19 C20 1.384 . S
C19 C21 1.479 . S
C19 H37 0.929 . S
C20 C17 1.424 . S
C20 C19 1.384 . S
C20 H38 0.928 . S
C21 C18 1.260 . S
C21 C19 1.479 . S
C22 C17 1.245 . S
C22 C18 1.477 . S
C22 H39 0.932 . S
C23 U6 2.882 1_556 S
C23 C17 1.428 . S
C23 O26 1.301 . S
C23 O27 1.282 . S
O24 U6 2.441 . S
O24 C10 1.249 . S
O25 U6 2.420 . S
O25 C10 1.202 . S
O26 U6 2.455 1_556 S
O26 C23 1.301 . S
O27 U6 2.449 1_556 S
O27 C23 1.282 . S
H28 C1 0.931 . S
H29 C3 0.929 . S
H30 C4 0.930 . S
H31 C5 0.931 . S
H32 C12 0.932 . S
H33 C13 0.930 . S
H34 C14 0.929 . S
H35 C16 0.930 . S
H36 C18 0.932 . S
H37 C19 0.929 . S
H38 C20 0.928 . S
H39 C22 0.932 . S
C40 C41 1.264 . S
C40 C45 1.479 . S
C40 C50 1.465 . S
C41 C40 1.264 . S
C41 C43 1.339 . S
C41 H68 0.931 . S
C42 C43 1.395 . S
C42 C44 1.320 . S
C43 C41 1.339 . S
C43 C42 1.395 . S
C43 H69 0.929 . S
C44 C42 1.320 . S
C44 C45 1.405 . S
C44 H70 0.930 . S
C45 C40 1.479 . S
C45 C44 1.405 . S
C45 H71 0.931 . S
U46 O47 2.454 . S
U46 O48 2.458 . S
U46 C49 2.984 . S
U46 C50 2.847 . S
U46 C63 2.882 . S
U46 O64 2.441 . S
U46 O65 2.420 . S
U46 O66 2.455 . S
U46 O67 2.449 . S
O47 U46 2.454 . S
O47 C49 1.353 . S
O48 U46 2.458 . S
O48 C49 1.286 . S
C49 U46 2.984 . S
C49 O47 1.353 . S
C49 O48 1.286 . S
C49 C51 1.363 . S
C50 C40 1.465 . S
C50 U46 2.847 . S
C50 O64 1.249 . S
C50 O65 1.202 . S
C51 C49 1.363 . S
C51 C53 1.408 . S
C51 C56 1.342 . S
C52 C53 1.310 . S
C52 C55 1.461 . S
C52 H72 0.932 . S
C53 C51 1.408 . S
C53 C52 1.310 . S
C53 H73 0.930 . S
C54 C55 1.474 . S
C54 C56 1.285 . S
C54 H74 0.929 . S
C55 C52 1.461 . S
C55 C54 1.474 . S
C56 C51 1.342 . S
C56 C54 1.285 . S
C56 H75 0.930 . S
C57 C60 1.424 . S
C57 C62 1.245 . S
C57 C63 1.428 . S
C58 C61 1.260 . S
C58 C62 1.477 . S
C58 H76 0.932 . S
C59 C60 1.384 . S
C59 C61 1.479 . S
C59 H77 0.929 . S
C60 C57 1.424 . S
C60 C59 1.384 . S
C60 H78 0.928 . S
C61 C58 1.260 . S
C61 C59 1.479 . S
C62 C57 1.245 . S
C62 C58 1.477 . S
C62 H79 0.932 . S
C63 U46 2.882 . S
C63 C57 1.428 . S
C63 O66 1.301 . S
C63 O67 1.282 . S
O64 U46 2.441 . S
O64 C50 1.249 . S
O65 U46 2.420 . S
O65 C50 1.202 . S
O66 U46 2.455 . S
O66 C63 1.301 . S
O67 U46 2.449 . S
O67 C63 1.282 . S
H68 C41 0.931 . S
H69 C43 0.929 . S
H70 C44 0.930 . S
H71 C45 0.931 . S
H72 C52 0.932 . S
H73 C53 0.930 . S
H74 C54 0.929 . S
H75 C56 0.930 . S
H76 C58 0.932 . S
H77 C59 0.929 . S
H78 C60 0.928 . S
H79 C62 0.932 . S
C80 C81 1.264 . S
C80 C85 1.479 . S
C80 C90 1.465 . S
C81 C80 1.264 . S
C81 C83 1.339 . S
C81 H108 0.931 . S
C82 C83 1.395 . S
C82 C84 1.320 . S
C83 C81 1.339 . S
C83 C82 1.395 . S
C83 H109 0.929 . S
C84 C82 1.320 . S
C84 C85 1.405 . S
C84 H110 0.930 . S
C85 C80 1.479 . S
C85 C84 1.405 . S
C85 H111 0.931 . S
U86 O87 2.454 . S
U86 O88 2.458 1_554 S
U86 C89 2.984 . S
U86 C90 2.847 . S
U86 C103 2.882 1_554 S
U86 O104 2.441 . S
U86 O105 2.420 . S
U86 O106 2.455 1_554 S
U86 O107 2.449 1_554 S
O87 U86 2.454 . S
O87 C89 1.353 . S
O88 U86 2.458 1_556 S
O88 C89 1.286 1_556 S
C89 U86 2.984 . S
C89 O87 1.353 . S
C89 O88 1.286 1_554 S
C89 C91 1.363 . S
C90 C80 1.465 . S
C90 U86 2.847 . S
C90 O104 1.249 . S
C90 O105 1.202 . S
C91 C89 1.363 . S
C91 C93 1.408 . S
C91 C96 1.342 1_554 S
C92 C93 1.310 . S
C92 C95 1.461 . S
C92 H112 0.932 . S
C93 C91 1.408 . S
C93 C92 1.310 . S
C93 H113 0.930 . S
C94 C95 1.474 1_556 S
C94 C96 1.285 . S
C94 H114 0.929 . S
C95 C92 1.461 . S
C95 C94 1.474 1_554 S
C96 C91 1.342 1_556 S
C96 C94 1.285 . S
C96 H115 0.930 . S
C97 C100 1.424 . S
C97 C102 1.245 . S
C97 C103 1.428 . S
C98 C101 1.260 . S
C98 C102 1.477 . S
C98 H116 0.932 . S
C99 C100 1.384 . S
C99 C101 1.479 . S
C99 H117 0.929 . S
C100 C97 1.424 . S
C100 C99 1.384 . S
C100 H118 0.928 . S
C101 C98 1.260 . S
C101 C99 1.479 . S
C102 C97 1.245 . S
C102 C98 1.477 . S
C102 H119 0.932 . S
C103 U86 2.882 1_556 S
C103 C97 1.428 . S
C103 O106 1.301 . S
C103 O107 1.282 . S
O104 U86 2.441 . S
O104 C90 1.249 . S
O105 U86 2.420 . S
O105 C90 1.202 . S
O106 U86 2.455 1_556 S
O106 C103 1.301 . S
O107 U86 2.449 1_556 S
O107 C103 1.282 . S
H108 C81 0.931 . S
H109 C83 0.929 . S
H110 C84 0.930 . S
H111 C85 0.931 . S
H112 C92 0.932 . S
H113 C93 0.930 . S
H114 C94 0.929 . S
H115 C96 0.930 . S
H116 C98 0.932 . S
H117 C99 0.929 . S
H118 C100 0.928 . S
H119 C102 0.932 . S
C120 C121 1.264 . S
C120 C125 1.479 . S
C120 C130 1.465 . S
C121 C120 1.264 . S
C121 C123 1.339 . S
C121 H148 0.931 . S
C122 C123 1.395 . S
C122 C124 1.320 . S
C123 C121 1.339 . S
C123 C122 1.395 . S
C123 H149 0.929 . S
C124 C122 1.320 . S
C124 C125 1.405 . S
C124 H150 0.930 . S
C125 C120 1.479 . S
C125 C124 1.405 . S
C125 H151 0.931 . S
U126 O127 2.454 . S
U126 O128 2.458 . S
U126 C129 2.984 . S
U126 C130 2.847 . S
U126 C143 2.882 . S
U126 O144 2.441 . S
U126 O145 2.420 . S
U126 O146 2.455 . S
U126 O147 2.449 . S
O127 U126 2.454 . S
O127 C129 1.353 . S
O128 U126 2.458 . S
O128 C129 1.286 . S
C129 U126 2.984 . S
C129 O127 1.353 . S
C129 O128 1.286 . S
C129 C131 1.363 . S
C130 C120 1.465 . S
C130 U126 2.847 . S
C130 O144 1.249 . S
C130 O145 1.202 . S
C131 C129 1.363 . S
C131 C133 1.408 . S
C131 C136 1.342 . S
C132 C133 1.310 . S
C132 C135 1.461 . S
C132 H152 0.932 . S
C133 C131 1.408 . S
C133 C132 1.310 . S
C133 H153 0.930 . S
C134 C135 1.474 . S
C134 C136 1.285 . S
C134 H154 0.929 . S
C135 C132 1.461 . S
C135 C134 1.474 . S
C136 C131 1.342 . S
C136 C134 1.285 . S
C136 H155 0.930 . S
C137 C140 1.424 . S
C137 C142 1.245 . S
C137 C143 1.428 . S
C138 C141 1.260 . S
C138 C142 1.477 . S
C138 H156 0.932 . S
C139 C140 1.384 . S
C139 C141 1.479 . S
C139 H157 0.929 . S
C140 C137 1.424 . S
C140 C139 1.384 . S
C140 H158 0.928 . S
C141 C138 1.260 . S
C141 C139 1.479 . S
C142 C137 1.245 . S
C142 C138 1.477 . S
C142 H159 0.932 . S
C143 U126 2.882 . S
C143 C137 1.428 . S
C143 O146 1.301 . S
C143 O147 1.282 . S
O144 U126 2.441 . S
O144 C130 1.249 . S
O145 U126 2.420 . S
O145 C130 1.202 . S
O146 U126 2.455 . S
O146 C143 1.301 . S
O147 U126 2.449 . S
O147 C143 1.282 . S
H148 C121 0.931 . S
H149 C123 0.929 . S
H150 C124 0.930 . S
H151 C125 0.931 . S
H152 C132 0.932 . S
H153 C133 0.930 . S
H154 C134 0.929 . S
H155 C136 0.930 . S
H156 C138 0.932 . S
H157 C139 0.929 . S
H158 C140 0.928 . S
H159 C142 0.932 . S
C160 O176 1.251 . S
C160 O178 1.254 1_455 S
N161 C162 1.333 . S
N161 C166 1.307 . S
N161 Zn167 2.020 . S
C162 N161 1.333 . S
C162 C163 1.379 . S
C162 H180 0.952 . S
C163 C162 1.379 . S
C163 C164 1.390 . S
C163 H190 0.949 . S
C164 C163 1.390 . S
C164 C165 1.357 . S
C165 C164 1.357 . S
C165 C166 1.370 . S
C165 H191 0.950 . S
C166 N161 1.307 . S
C166 C165 1.370 . S
C166 H184 0.948 . S
Zn167 N161 2.020 . S
Zn167 O176 2.039 1_545 S
Zn167 O182 2.034 1_545 S
Zn167 O186 2.025 . S
Zn167 O188 2.024 . S
C168 O187 1.246 . S
C168 O188 1.249 1_655 S
N169 C170 1.307 . S
N169 C171 1.333 . S
N169 Zn175 2.020 . S
C170 N169 1.307 . S
C170 C174 1.370 . S
C170 H181 0.948 . S
C171 N169 1.333 . S
C171 C172 1.379 . S
C171 H179 0.952 . S
C172 C171 1.379 . S
C172 C173 1.390 . S
C172 H192 0.949 . S
C173 C172 1.390 . S
C173 C174 1.357 . S
C174 C170 1.370 . S
C174 C173 1.357 . S
C174 H193 0.950 . S
Zn175 N169 2.020 . S
Zn175 O178 2.025 . S
Zn175 O183 2.024 . S
Zn175 O185 2.039 1_565 S
Zn175 O187 2.034 1_565 S
O176 C160 1.251 . S
O176 Zn167 2.039 1_565 S
C177 O182 1.246 . S
C177 O183 1.249 1_455 S
O178 C160 1.254 1_655 S
O178 Zn175 2.025 . S
H179 C171 0.952 . S
H180 C162 0.952 . S
H181 C170 0.948 . S
O182 Zn167 2.034 1_565 S
O182 C177 1.246 . S
O183 Zn175 2.024 . S
O183 C177 1.249 1_655 S
H184 C166 0.948 . S
O185 Zn175 2.039 1_545 S
O185 C189 1.251 . S
O186 Zn167 2.025 . S
O186 C189 1.254 1_455 S
O187 C168 1.246 . S
O187 Zn175 2.034 1_545 S
O188 Zn167 2.024 . S
O188 C168 1.249 1_455 S
C189 O185 1.251 . S
C189 O186 1.254 1_655 S
H190 C163 0.949 . S
H191 C165 0.950 . S
H192 C172 0.949 . S
H193 C174 0.950 . S
C194 O210 1.251 . S
C194 O212 1.254 . S
N195 C196 1.333 1_554 S
N195 C200 1.307 . S
N195 Zn201 2.020 . S
C196 N195 1.333 1_556 S
C196 C197 1.379 . S
C196 H214 0.952 . S
C197 C196 1.379 . S
C197 C198 1.390 1_556 S
C197 H224 0.949 . S
C198 C197 1.390 1_554 S
C198 C199 1.357 . S
C199 C198 1.357 . S
C199 C200 1.370 . S
C199 H225 0.950 . S
C200 N195 1.307 . S
C200 C199 1.370 . S
C200 H218 0.948 . S
Zn201 N195 2.020 . S
Zn201 O210 2.039 1_554 S
Zn201 O216 2.034 . S
Zn201 O220 2.025 . S
Zn201 O222 2.024 1_554 S
C202 O221 1.246 . S
C202 O222 1.249 . S
N203 C204 1.307 1_554 S
N203 C205 1.333 . S
N203 Zn209 2.020 . S
C204 N203 1.307 1_556 S
C204 C208 1.370 . S
C204 H215 0.948 . S
C205 N203 1.333 . S
C205 C206 1.379 . S
C205 H213 0.952 . S
C206 C205 1.379 . S
C206 C207 1.390 . S
C206 H226 0.949 . S
C207 C206 1.390 . S
C207 C208 1.357 1_554 S
C208 C204 1.370 . S
C208 C207 1.357 1_556 S
C208 H227 0.950 . S
Zn209 N203 2.020 . S
Zn209 O212 2.025 1_554 S
Zn209 O217 2.024 . S
Zn209 O219 2.039 . S
Zn209 O221 2.034 1_554 S
O210 C194 1.251 . S
O210 Zn201 2.039 1_556 S
C211 O216 1.246 . S
C211 O217 1.249 . S
O212 C194 1.254 . S
O212 Zn209 2.025 1_556 S
H213 C205 0.952 . S
H214 C196 0.952 . S
H215 C204 0.948 . S
O216 Zn201 2.034 . S
O216 C211 1.246 . S
O217 Zn209 2.024 . S
O217 C211 1.249 . S
H218 C200 0.948 . S
O219 Zn209 2.039 . S
O219 C223 1.251 . S
O220 Zn201 2.025 . S
O220 C223 1.254 . S
O221 C202 1.246 . S
O221 Zn209 2.034 1_556 S
O222 Zn201 2.024 1_556 S
O222 C202 1.249 . S
C223 O219 1.251 . S
C223 O220 1.254 . S
H224 C197 0.949 . S
H225 C199 0.950 . S
H226 C206 0.949 . S
H227 C208 0.950 . S
H228 C234 0.930 . S
H229 C237 0.930 . S
H230 C238 0.930 . S
H231 C239 0.930 . S
H232 C242 0.930 . S
H233 C243 0.930 . S
C234 H228 0.930 . S
C234 C235 1.355 . S
C234 C236 1.415 . S
C235 C234 1.355 . S
C235 C237 1.419 . S
C236 C234 1.415 . S
C236 C241 1.425 . S
C236 C243 1.409 . S
C237 H229 0.930 . S
C237 C235 1.419 . S
C237 C238 1.362 . S
C238 H230 0.930 . S
C238 C237 1.362 . S
C238 C241 1.409 . S
C239 H231 0.930 . S
C239 C240 1.355 . S
C239 C241 1.415 . S
C240 C239 1.355 . S
C240 C242 1.419 . S
C241 C236 1.425 . S
C241 C238 1.409 . S
C241 C239 1.415 . S
C242 H232 0.930 . S
C242 C240 1.419 . S
C242 C243 1.362 . S
C243 H233 0.930 . S
C243 C236 1.409 . S
C243 C242 1.362 . S
H244 C250 0.930 . S
H245 C253 0.930 . S
H246 C254 0.930 . S
H247 C255 0.930 . S
H248 C258 0.930 . S
H249 C259 0.930 . S
C250 H244 0.930 . S
C250 C251 1.355 1_556 S
C250 C252 1.415 1_556 S
C251 C250 1.355 1_554 S
C251 C253 1.419 . S
C252 C250 1.415 1_554 S
C252 C257 1.425 . S
C252 C259 1.409 1_554 S
C253 H245 0.930 . S
C253 C251 1.419 . S
C253 C254 1.362 . S
C254 H246 0.930 . S
C254 C253 1.362 . S
C254 C257 1.409 . S
C255 H247 0.930 . S
C255 C256 1.355 . S
C255 C257 1.415 . S
C256 C255 1.355 . S
C256 C258 1.419 1_554 S
C257 C252 1.425 . S
C257 C254 1.409 . S
C257 C255 1.415 . S
C258 H248 0.930 . S
C258 C256 1.419 1_556 S
C258 C259 1.362 . S
C259 H249 0.930 . S
C259 C252 1.409 1_556 S
C259 C258 1.362 . S
H260 C266 0.930 . S
H261 C269 0.930 . S
H262 C270 0.930 . S
H263 C271 0.930 . S
H264 C274 0.930 . S
H265 C275 0.930 . S
C266 H260 0.930 . S
C266 C267 1.355 . S
C266 C268 1.415 . S
C267 C266 1.355 . S
C267 C269 1.419 . S
C268 C266 1.415 . S
C268 C273 1.425 . S
C268 C275 1.409 . S
C269 H261 0.930 . S
C269 C267 1.419 . S
C269 C270 1.362 . S
C270 H262 0.930 . S
C270 C269 1.362 . S
C270 C273 1.409 . S
C271 H263 0.930 . S
C271 C272 1.355 . S
C271 C273 1.415 . S
C272 C271 1.355 . S
C272 C274 1.419 . S
C273 C268 1.425 . S
C273 C270 1.409 . S
C273 C271 1.415 . S
C274 H264 0.930 . S
C274 C272 1.419 . S
C274 C275 1.362 . S
C275 H265 0.930 . S
C275 C268 1.409 . S
C275 C274 1.362 . S
H276 C282 0.930 . S
H277 C285 0.930 . S
H278 C286 0.930 . S
H279 C287 0.930 . S
H280 C290 0.930 . S
H281 C291 0.930 . S
C282 H276 0.930 . S
C282 C283 1.351 1_554 S
C282 C284 1.415 . S
C283 C282 1.351 1_556 S
C283 C285 1.424 . S
C284 C282 1.415 . S
C284 C289 1.425 1_554 S
C284 C291 1.409 . S
C285 H277 0.930 . S
C285 C283 1.424 . S
C285 C286 1.362 . S
C286 H278 0.930 . S
C286 C285 1.362 . S
C286 C289 1.409 . S
C287 H279 0.930 . S
C287 C288 1.355 1_556 S
C287 C289 1.415 . S
C288 C287 1.355 1_554 S
C288 C290 1.419 . S
C289 C284 1.425 1_556 S
C289 C286 1.409 . S
C289 C287 1.415 . S
C290 H280 0.930 . S
C290 C288 1.419 . S
C290 C291 1.362 . S
C291 H281 0.930 . S
C291 C284 1.409 . S
C291 C290 1.362 . S
H292 C298 0.930 . S
H293 C301 0.930 . S
H294 C302 0.930 . S
H295 C303 0.930 . S
H296 C306 0.930 . S
H297 C307 0.930 . S
C298 H292 0.930 . S
C298 C299 1.355 . S
C298 C300 1.415 . S
C299 C298 1.355 . S
C299 C301 1.419 . S
C300 C298 1.415 . S
C300 C305 1.425 . S
C300 C307 1.409 . S
C301 H293 0.930 . S
C301 C299 1.419 . S
C301 C302 1.362 . S
C302 H294 0.930 . S
C302 C301 1.362 . S
C302 C305 1.409 . S
C303 H295 0.930 . S
C303 C304 1.355 . S
C303 C305 1.415 . S
C304 C303 1.355 . S
C304 C306 1.419 . S
C305 C300 1.425 . S
C305 C302 1.409 . S
C305 C303 1.415 . S
C306 H296 0.930 . S
C306 C304 1.419 . S
C306 C307 1.362 . S
C307 H297 0.930 . S
C307 C300 1.409 . S
C307 C306 1.362 . S
H308 C314 0.930 . S
H309 C317 0.930 . S
H310 C318 0.930 . S
H311 C319 0.930 . S
H312 C322 0.930 . S
H313 C323 0.930 . S
C314 H308 0.930 . S
C314 C315 1.355 . S
C314 C316 1.415 . S
C315 C314 1.355 . S
C315 C317 1.419 . S
C316 C314 1.415 . S
C316 C321 1.425 . S
C316 C323 1.409 . S
C317 H309 0.930 . S
C317 C315 1.419 . S
C317 C318 1.362 . S
C318 H310 0.930 . S
C318 C317 1.362 . S
C318 C321 1.409 . S
C319 H311 0.930 . S
C319 C320 1.355 . S
C319 C321 1.415 . S
C320 C319 1.355 . S
C320 C322 1.419 . S
C321 C316 1.425 . S
C321 C318 1.409 . S
C321 C319 1.415 . S
C322 H312 0.930 . S
C322 C320 1.419 . S
C322 C323 1.362 . S
C323 H313 0.930 . S
C323 C316 1.409 . S
C323 C322 1.362 . S
H324 C330 0.930 . S
H325 C333 0.930 . S
H326 C334 0.930 . S
H327 C335 0.930 . S
H328 C338 0.930 . S
H329 C339 0.930 . S
C330 H324 0.930 . S
C330 C331 1.355 . S
C330 C332 1.415 . S
C331 C330 1.355 . S
C331 C333 1.419 . S
C332 C330 1.415 . S
C332 C337 1.425 . S
C332 C339 1.409 1_655 S
C333 H325 0.930 . S
C333 C331 1.419 . S
C333 C334 1.362 . S
C334 H326 0.930 . S
C334 C333 1.362 . S
C334 C337 1.409 . S
C335 H327 0.930 . S
C335 C336 1.355 . S
C335 C337 1.415 . S
C336 C335 1.355 . S
C336 C338 1.419 1_655 S
C337 C332 1.425 . S
C337 C334 1.409 . S
C337 C335 1.415 . S
C338 H328 0.930 . S
C338 C336 1.419 1_455 S
C338 C339 1.362 . S
C339 H329 0.930 . S
C339 C332 1.409 1_455 S
C339 C338 1.362 . S
H340 C346 0.930 . S
H341 C349 0.930 . S
H342 C350 0.930 . S
H343 C351 0.930 . S
H344 C354 0.930 . S
H345 C355 0.930 . S
C346 H340 0.930 . S
C346 C347 1.355 . S
C346 C348 1.415 . S
C347 C346 1.355 . S
C347 C349 1.419 . S
C348 C346 1.415 . S
C348 C353 1.425 . S
C348 C355 1.409 . S
C349 H341 0.930 . S
C349 C347 1.419 . S
C349 C350 1.362 . S
C350 H342 0.930 . S
C350 C349 1.362 . S
C350 C353 1.409 . S
C351 H343 0.930 . S
C351 C352 1.355 . S
C351 C353 1.415 . S
C352 C351 1.355 . S
C352 C354 1.419 . S
C353 C348 1.425 . S
C353 C350 1.409 . S
C353 C351 1.415 . S
C354 H344 0.930 . S
C354 C352 1.419 . S
C354 C355 1.362 . S
C355 H345 0.930 . S
C355 C348 1.409 . S
C355 C354 1.362 . S
H356 C362 0.930 . S
H357 C365 0.930 . S
H358 C366 0.930 . S
H359 C367 0.930 . S
H360 C370 0.930 . S
H361 C371 0.930 . S
C362 H356 0.930 . S
C362 C363 1.355 . S
C362 C364 1.415 . S
C363 C362 1.355 . S
C363 C365 1.419 . S
C364 C362 1.415 . S
C364 C369 1.425 . S
C364 C371 1.409 . S
C365 H357 0.930 . S
C365 C363 1.419 . S
C365 C366 1.362 . S
C366 H358 0.930 . S
C366 C365 1.362 . S
C366 C369 1.409 . S
C367 H359 0.930 . S
C367 C368 1.355 . S
C367 C369 1.415 . S
C368 C367 1.355 . S
C368 C370 1.419 . S
C369 C364 1.425 . S
C369 C366 1.409 . S
C369 C367 1.415 . S
C370 H360 0.930 . S
C370 C368 1.419 . S
C370 C371 1.362 . S
C371 H361 0.930 . S
C371 C364 1.409 . S
C371 C370 1.362 . S
H372 C378 0.930 . S
H373 C381 0.930 . S
H374 C382 0.930 . S
H375 C383 0.930 . S
H376 C386 0.909 1_455 S
H377 C387 0.930 1_455 S
C378 H372 0.930 . S
C378 C379 1.355 . S
C378 C380 1.415 . S
C379 C378 1.355 . S
C379 C381 1.419 . S
C380 C378 1.415 . S
C380 C385 1.425 . S
C380 C387 1.409 . S
C381 H373 0.930 . S
C381 C379 1.419 . S
C381 C382 1.362 . S
C382 H374 0.930 . S
C382 C381 1.362 . S
C382 C385 1.409 . S
C383 H375 0.930 . S
C383 C384 1.355 . S
C383 C385 1.415 . S
C384 C383 1.355 . S
C384 C386 1.439 . S
C385 C380 1.425 . S
C385 C382 1.409 . S
C385 C383 1.415 . S
C386 H376 0.909 1_655 S
C386 C384 1.439 . S
C386 C387 1.364 . S
C387 H377 0.930 1_655 S
C387 C380 1.409 . S
C387 C386 1.364 . S
H388 C394 0.930 . S
H389 C397 0.930 . S
H390 C398 0.930 . S
H391 C399 0.930 . S
H392 C402 0.930 . S
H393 C403 0.930 . S
C394 H388 0.930 . S
C394 C395 1.355 . S
C394 C396 1.415 . S
C395 C394 1.355 . S
C395 C397 1.419 . S
C396 C394 1.415 . S
C396 C401 1.425 . S
C396 C403 1.409 . S
C397 H389 0.930 . S
C397 C395 1.419 . S
C397 C398 1.362 . S
C398 H390 0.930 . S
C398 C397 1.362 . S
C398 C401 1.409 . S
C399 H391 0.930 . S
C399 C400 1.355 . S
C399 C401 1.415 . S
C400 C399 1.355 . S
C400 C402 1.419 . S
C401 C396 1.425 . S
C401 C398 1.409 . S
C401 C399 1.415 . S
C402 H392 0.930 . S
C402 C400 1.419 . S
C402 C403 1.362 . S
C403 H393 0.930 . S
C403 C396 1.409 . S
C403 C402 1.362 . S
H404 C410 0.930 . S
H405 C413 0.930 . S
H406 C414 0.930 1_655 S
H407 C415 0.930 1_655 S
H408 C418 0.930 . S
H409 C419 0.930 . S
C410 H404 0.930 . S
C410 C411 1.355 . S
C410 C412 1.415 . S
C411 C410 1.355 . S
C411 C413 1.419 . S
C412 C410 1.415 . S
C412 C417 1.425 . S
C412 C419 1.409 . S
C413 H405 0.930 . S
C413 C411 1.419 . S
C413 C414 1.362 . S
C414 H406 0.930 1_455 S
C414 C413 1.362 . S
C414 C417 1.409 . S
C415 H407 0.930 1_455 S
C415 C416 1.355 . S
C415 C417 1.415 . S
C416 C415 1.355 . S
C416 C418 1.419 . S
C417 C412 1.425 . S
C417 C414 1.409 . S
C417 C415 1.415 . S
C418 H408 0.930 . S
C418 C416 1.419 . S
C418 C419 1.362 . S
C419 H409 0.930 . S
C419 C412 1.409 . S
C419 C418 1.362 . S
C240 C164 1.688 . S
C235 C135 1.632 . S
C251 C15 1.608 . S
C256 C207 1.617 . S
C267 C55 1.648 . S
C272 C173 1.687 . S
C283 C95 1.606 1_556 S
C288 C198 1.613 . S
C304 C160 1.669 . S
C299 C2 1.596 . S
C320 C202 1.795 . S
C315 C42 1.784 . S
C331 C82 1.537 . S
C336 C168 1.635 . S
C347 C141 1.616 . S
C352 C194 1.771 . S
C368 C223 1.813 . S
C363 C61 1.796 . S
C384 C189 1.709 . S
C379 C101 1.615 . S
C400 C211 1.818 . S
C395 C122 1.731 . S
C411 C21 1.605 . S
C416 C177 1.690 . S
