# Generated by pormake.
# Topology gar, (4,6)-cn, num edge types: 1
# Building blocks:
#     Node 0, Type 0, BuildingBlock: GALJAG_clean_sbu_0, # of connection points: 4
#     Node 1, Type 0, BuildingBlock: GALJAG_clean_sbu_0, # of connection points: 4
#     Node 2, Type 0, BuildingBlock: GALJAG_clean_sbu_0, # of connection points: 4
#     Node 3, Type 0, BuildingBlock: GALJAG_clean_sbu_0, # of connection points: 4
#     Node 4, Type 0, BuildingBlock: GALJAG_clean_sbu_0, # of connection points: 4
#     Node 5, Type 0, BuildingBlock: GALJAG_clean_sbu_0, # of connection points: 4
#     Node 6, Type 0, BuildingBlock: GALJAG_clean_sbu_0, # of connection points: 4
#     Node 7, Type 0, BuildingBlock: GALJAG_clean_sbu_0, # of connection points: 4
#     Node 8, Type 0, BuildingBlock: GALJAG_clean_sbu_0, # of connection points: 4
#     Node 9, Type 0, BuildingBlock: GALJAG_clean_sbu_0, # of connection points: 4
#     Node 10, Type 0, BuildingBlock: GALJAG_clean_sbu_0, # of connection points: 4
#     Node 11, Type 0, BuildingBlock: GALJAG_clean_sbu_0, # of connection points: 4
#     Node 12, Type 0, BuildingBlock: GALJAG_clean_sbu_0, # of connection points: 4
#     Node 13, Type 0, BuildingBlock: GALJAG_clean_sbu_0, # of connection points: 4
#     Node 14, Type 0, BuildingBlock: GALJAG_clean_sbu_0, # of connection points: 4
#     Node 15, Type 0, BuildingBlock: GALJAG_clean_sbu_0, # of connection points: 4
#     Node 16, Type 0, BuildingBlock: GALJAG_clean_sbu_0, # of connection points: 4
#     Node 17, Type 0, BuildingBlock: GALJAG_clean_sbu_0, # of connection points: 4
#     Node 18, Type 0, BuildingBlock: GALJAG_clean_sbu_0, # of connection points: 4
#     Node 19, Type 0, BuildingBlock: GALJAG_clean_sbu_0, # of connection points: 4
#     Node 20, Type 0, BuildingBlock: GALJAG_clean_sbu_0, # of connection points: 4
#     Node 21, Type 0, BuildingBlock: GALJAG_clean_sbu_0, # of connection points: 4
#     Node 22, Type 0, BuildingBlock: GALJAG_clean_sbu_0, # of connection points: 4
#     Node 23, Type 0, BuildingBlock: GALJAG_clean_sbu_0, # of connection points: 4
#     Node 24, Type 1, BuildingBlock: HISSIN_clean_sbu_0, # of connection points: 6
#     Node 25, Type 1, BuildingBlock: HISSIN_clean_sbu_0, # of connection points: 6
#     Node 26, Type 1, BuildingBlock: HISSIN_clean_sbu_0, # of connection points: 6
#     Node 27, Type 1, BuildingBlock: HISSIN_clean_sbu_0, # of connection points: 6
#     Node 28, Type 1, BuildingBlock: HISSIN_clean_sbu_0, # of connection points: 6
#     Node 29, Type 1, BuildingBlock: HISSIN_clean_sbu_0, # of connection points: 6
#     Node 30, Type 1, BuildingBlock: HISSIN_clean_sbu_0, # of connection points: 6
#     Node 31, Type 1, BuildingBlock: HISSIN_clean_sbu_0, # of connection points: 6
#     Node 32, Type 1, BuildingBlock: HISSIN_clean_sbu_0, # of connection points: 6
#     Node 33, Type 1, BuildingBlock: HISSIN_clean_sbu_0, # of connection points: 6
#     Node 34, Type 1, BuildingBlock: HISSIN_clean_sbu_0, # of connection points: 6
#     Node 35, Type 1, BuildingBlock: HISSIN_clean_sbu_0, # of connection points: 6
#     Node 36, Type 1, BuildingBlock: HISSIN_clean_sbu_0, # of connection points: 6
#     Node 37, Type 1, BuildingBlock: HISSIN_clean_sbu_0, # of connection points: 6
#     Node 38, Type 1, BuildingBlock: HISSIN_clean_sbu_0, # of connection points: 6
#     Node 39, Type 1, BuildingBlock: HISSIN_clean_sbu_0, # of connection points: 6
#     Edge 40, Type (0, 1), BuildingBlock: EZIPEK_clean_linker_0, # of connection points: 2
#     Edge 41, Type (0, 1), BuildingBlock: EZIPEK_clean_linker_0, # of connection points: 2
#     Edge 42, Type (0, 1), BuildingBlock: EZIPEK_clean_linker_0, # of connection points: 2
#     Edge 43, Type (0, 1), BuildingBlock: EZIPEK_clean_linker_0, # of connection points: 2
#     Edge 44, Type (0, 1), BuildingBlock: EZIPEK_clean_linker_0, # of connection points: 2
#     Edge 45, Type (0, 1), BuildingBlock: EZIPEK_clean_linker_0, # of connection points: 2
#     Edge 46, Type (0, 1), BuildingBlock: EZIPEK_clean_linker_0, # of connection points: 2
#     Edge 47, Type (0, 1), BuildingBlock: EZIPEK_clean_linker_0, # of connection points: 2
#     Edge 48, Type (0, 1), BuildingBlock: EZIPEK_clean_linker_0, # of connection points: 2
#     Edge 49, Type (0, 1), BuildingBlock: EZIPEK_clean_linker_0, # of connection points: 2
#     Edge 50, Type (0, 1), BuildingBlock: EZIPEK_clean_linker_0, # of connection points: 2
#     Edge 51, Type (0, 1), BuildingBlock: EZIPEK_clean_linker_0, # of connection points: 2
#     Edge 52, Type (0, 1), BuildingBlock: EZIPEK_clean_linker_0, # of connection points: 2
#     Edge 53, Type (0, 1), BuildingBlock: EZIPEK_clean_linker_0, # of connection points: 2
#     Edge 54, Type (0, 1), BuildingBlock: EZIPEK_clean_linker_0, # of connection points: 2
#     Edge 55, Type (0, 1), BuildingBlock: EZIPEK_clean_linker_0, # of connection points: 2
#     Edge 56, Type (0, 1), BuildingBlock: EZIPEK_clean_linker_0, # of connection points: 2
#     Edge 57, Type (0, 1), BuildingBlock: EZIPEK_clean_linker_0, # of connection points: 2
#     Edge 58, Type (0, 1), BuildingBlock: EZIPEK_clean_linker_0, # of connection points: 2
#     Edge 59, Type (0, 1), BuildingBlock: EZIPEK_clean_linker_0, # of connection points: 2
#     Edge 60, Type (0, 1), BuildingBlock: EZIPEK_clean_linker_0, # of connection points: 2
#     Edge 61, Type (0, 1), BuildingBlock: EZIPEK_clean_linker_0, # of connection points: 2
#     Edge 62, Type (0, 1), BuildingBlock: EZIPEK_clean_linker_0, # of connection points: 2
#     Edge 63, Type (0, 1), BuildingBlock: EZIPEK_clean_linker_0, # of connection points: 2
#     Edge 64, Type (0, 1), BuildingBlock: EZIPEK_clean_linker_0, # of connection points: 2
#     Edge 65, Type (0, 1), BuildingBlock: EZIPEK_clean_linker_0, # of connection points: 2
#     Edge 66, Type (0, 1), BuildingBlock: EZIPEK_clean_linker_0, # of connection points: 2
#     Edge 67, Type (0, 1), BuildingBlock: EZIPEK_clean_linker_0, # of connection points: 2
#     Edge 68, Type (0, 1), BuildingBlock: EZIPEK_clean_linker_0, # of connection points: 2
#     Edge 69, Type (0, 1), BuildingBlock: EZIPEK_clean_linker_0, # of connection points: 2
#     Edge 70, Type (0, 1), BuildingBlock: EZIPEK_clean_linker_0, # of connection points: 2
#     Edge 71, Type (0, 1), BuildingBlock: EZIPEK_clean_linker_0, # of connection points: 2
#     Edge 72, Type (0, 1), BuildingBlock: EZIPEK_clean_linker_0, # of connection points: 2
#     Edge 73, Type (0, 1), BuildingBlock: EZIPEK_clean_linker_0, # of connection points: 2
#     Edge 74, Type (0, 1), BuildingBlock: EZIPEK_clean_linker_0, # of connection points: 2
#     Edge 75, Type (0, 1), BuildingBlock: EZIPEK_clean_linker_0, # of connection points: 2
#     Edge 76, Type (0, 1), BuildingBlock: EZIPEK_clean_linker_0, # of connection points: 2
#     Edge 77, Type (0, 1), BuildingBlock: EZIPEK_clean_linker_0, # of connection points: 2
#     Edge 78, Type (0, 1), BuildingBlock: EZIPEK_clean_linker_0, # of connection points: 2
#     Edge 79, Type (0, 1), BuildingBlock: EZIPEK_clean_linker_0, # of connection points: 2
#     Edge 80, Type (0, 1), BuildingBlock: EZIPEK_clean_linker_0, # of connection points: 2
#     Edge 81, Type (0, 1), BuildingBlock: EZIPEK_clean_linker_0, # of connection points: 2
#     Edge 82, Type (0, 1), BuildingBlock: EZIPEK_clean_linker_0, # of connection points: 2
#     Edge 83, Type (0, 1), BuildingBlock: EZIPEK_clean_linker_0, # of connection points: 2
#     Edge 84, Type (0, 1), BuildingBlock: EZIPEK_clean_linker_0, # of connection points: 2
#     Edge 85, Type (0, 1), BuildingBlock: EZIPEK_clean_linker_0, # of connection points: 2
#     Edge 86, Type (0, 1), BuildingBlock: EZIPEK_clean_linker_0, # of connection points: 2
#     Edge 87, Type (0, 1), BuildingBlock: EZIPEK_clean_linker_0, # of connection points: 2
#     Edge 88, Type (0, 1), BuildingBlock: EZIPEK_clean_linker_0, # of connection points: 2
#     Edge 89, Type (0, 1), BuildingBlock: EZIPEK_clean_linker_0, # of connection points: 2
#     Edge 90, Type (0, 1), BuildingBlock: EZIPEK_clean_linker_0, # of connection points: 2
#     Edge 91, Type (0, 1), BuildingBlock: EZIPEK_clean_linker_0, # of connection points: 2
#     Edge 92, Type (0, 1), BuildingBlock: EZIPEK_clean_linker_0, # of connection points: 2
#     Edge 93, Type (0, 1), BuildingBlock: EZIPEK_clean_linker_0, # of connection points: 2
#     Edge 94, Type (0, 1), BuildingBlock: EZIPEK_clean_linker_0, # of connection points: 2
#     Edge 95, Type (0, 1), BuildingBlock: EZIPEK_clean_linker_0, # of connection points: 2
#     Edge 96, Type (0, 1), BuildingBlock: EZIPEK_clean_linker_0, # of connection points: 2
#     Edge 97, Type (0, 1), BuildingBlock: EZIPEK_clean_linker_0, # of connection points: 2
#     Edge 98, Type (0, 1), BuildingBlock: EZIPEK_clean_linker_0, # of connection points: 2
#     Edge 99, Type (0, 1), BuildingBlock: EZIPEK_clean_linker_0, # of connection points: 2
#     Edge 100, Type (0, 1), BuildingBlock: EZIPEK_clean_linker_0, # of connection points: 2
#     Edge 101, Type (0, 1), BuildingBlock: EZIPEK_clean_linker_0, # of connection points: 2
#     Edge 102, Type (0, 1), BuildingBlock: EZIPEK_clean_linker_0, # of connection points: 2
#     Edge 103, Type (0, 1), BuildingBlock: EZIPEK_clean_linker_0, # of connection points: 2
#     Edge 104, Type (0, 1), BuildingBlock: EZIPEK_clean_linker_0, # of connection points: 2
#     Edge 105, Type (0, 1), BuildingBlock: EZIPEK_clean_linker_0, # of connection points: 2
#     Edge 106, Type (0, 1), BuildingBlock: EZIPEK_clean_linker_0, # of connection points: 2
#     Edge 107, Type (0, 1), BuildingBlock: EZIPEK_clean_linker_0, # of connection points: 2
#     Edge 108, Type (0, 1), BuildingBlock: EZIPEK_clean_linker_0, # of connection points: 2
#     Edge 109, Type (0, 1), BuildingBlock: EZIPEK_clean_linker_0, # of connection points: 2
#     Edge 110, Type (0, 1), BuildingBlock: EZIPEK_clean_linker_0, # of connection points: 2
#     Edge 111, Type (0, 1), BuildingBlock: EZIPEK_clean_linker_0, # of connection points: 2
#     Edge 112, Type (0, 1), BuildingBlock: EZIPEK_clean_linker_0, # of connection points: 2
#     Edge 113, Type (0, 1), BuildingBlock: EZIPEK_clean_linker_0, # of connection points: 2
#     Edge 114, Type (0, 1), BuildingBlock: EZIPEK_clean_linker_0, # of connection points: 2
#     Edge 115, Type (0, 1), BuildingBlock: EZIPEK_clean_linker_0, # of connection points: 2
#     Edge 116, Type (0, 1), BuildingBlock: EZIPEK_clean_linker_0, # of connection points: 2
#     Edge 117, Type (0, 1), BuildingBlock: EZIPEK_clean_linker_0, # of connection points: 2
#     Edge 118, Type (0, 1), BuildingBlock: EZIPEK_clean_linker_0, # of connection points: 2
#     Edge 119, Type (0, 1), BuildingBlock: EZIPEK_clean_linker_0, # of connection points: 2
#     Edge 120, Type (0, 1), BuildingBlock: EZIPEK_clean_linker_0, # of connection points: 2
#     Edge 121, Type (0, 1), BuildingBlock: EZIPEK_clean_linker_0, # of connection points: 2
#     Edge 122, Type (0, 1), BuildingBlock: EZIPEK_clean_linker_0, # of connection points: 2
#     Edge 123, Type (0, 1), BuildingBlock: EZIPEK_clean_linker_0, # of connection points: 2
#     Edge 124, Type (0, 1), BuildingBlock: EZIPEK_clean_linker_0, # of connection points: 2
#     Edge 125, Type (0, 1), BuildingBlock: EZIPEK_clean_linker_0, # of connection points: 2
#     Edge 126, Type (0, 1), BuildingBlock: EZIPEK_clean_linker_0, # of connection points: 2
#     Edge 127, Type (0, 1), BuildingBlock: EZIPEK_clean_linker_0, # of connection points: 2
#     Edge 128, Type (0, 1), BuildingBlock: EZIPEK_clean_linker_0, # of connection points: 2
#     Edge 129, Type (0, 1), BuildingBlock: EZIPEK_clean_linker_0, # of connection points: 2
#     Edge 130, Type (0, 1), BuildingBlock: EZIPEK_clean_linker_0, # of connection points: 2
#     Edge 131, Type (0, 1), BuildingBlock: EZIPEK_clean_linker_0, # of connection points: 2
#     Edge 132, Type (0, 1), BuildingBlock: EZIPEK_clean_linker_0, # of connection points: 2
#     Edge 133, Type (0, 1), BuildingBlock: EZIPEK_clean_linker_0, # of connection points: 2
#     Edge 134, Type (0, 1), BuildingBlock: EZIPEK_clean_linker_0, # of connection points: 2
#     Edge 135, Type (0, 1), BuildingBlock: EZIPEK_clean_linker_0, # of connection points: 2
# Relax obj value: 0.249
# Max RMSD: 0.326
# Mean RMSD: 0.172
data_MOF--net-gar--node1-GALJAG_clean_sbu_0--node2-HISSIN_clean_sbu_0--edge1-EZIPEK_clean_linker_0
_symmetry_space_group_name_H-M    P1
_symmetry_Int_Tables_number       1
_symmetry_cell_setting            triclinic
loop_
_symmetry_equiv_pos_as_xyz
'x, y, z'
_cell_length_a     45.312443
_cell_length_b     45.229063
_cell_length_c     43.225748
_cell_angle_alpha  101.94175
_cell_angle_beta   93.175682
_cell_angle_gamma 101.21545
loop_
_atom_site_label
_atom_site_type_symbol
_atom_site_fract_x
_atom_site_fract_y
_atom_site_fract_z
_atom_type_partial_charge
In0 In 0.13816 0.34594 0.41703 0.0
O1 O 0.16562 0.32003 0.38336 0.0
O2 O 0.185 0.36698 0.40549 0.0
C3 C 0.09924 0.33437 0.36536 0.0
C4 C 0.13161 0.31034 0.46009 0.0
C5 C 0.12697 0.39933 0.44916 0.0
O6 O 0.11498 0.36091 0.3773 0.0
O7 O 0.10369 0.3132 0.37887 0.0
O8 O 0.1063 0.3758 0.43825 0.0
O9 O 0.1535 0.39579 0.44478 0.0
C10 C 0.18714 0.34292 0.38574 0.0
O11 O 0.15602 0.32924 0.45978 0.0
O12 O 0.11119 0.30912 0.43868 0.0
In13 In 0.04468 0.79588 0.67909 0.0
O14 O 0.02867 0.81236 0.63556 0.0
O15 O 0.07183 0.83486 0.66016 0.0
C16 C 0.05441 0.74315 0.64317 0.0
C17 C 0.08301 0.81766 0.73191 0.0
C18 C 0.99464 0.79109 0.71018 0.0
O19 O 0.0755 0.76567 0.656 0.0
O20 O 0.0281 0.74716 0.64807 0.0
O21 O 1.01242 0.7729 0.71007 0.0
O22 O 1.00116 0.81066 0.69326 0.0
C23 C 0.05252 0.83271 0.63723 0.0
O24 O 0.06901 0.83502 0.72033 0.0
O25 O 0.07806 0.78994 0.71669 0.0
In26 In 0.63765 0.84723 0.91348 0.0
O27 O 0.66234 0.83099 0.87167 0.0
O28 O 0.68889 0.86335 0.91052 0.0
C29 C 0.59333 0.82534 0.86641 0.0
C30 C 0.624 0.81106 0.95514 0.0
C31 C 0.63263 0.90408 0.9433 0.0
O32 O 0.60271 0.85384 0.8781 0.0
O33 O 0.60606 0.80741 0.87862 0.0
O34 O 0.64339 0.88634 0.95765 0.0
O35 O 0.62597 0.8939 0.91386 0.0
C36 C 0.68785 0.84729 0.88273 0.0
O37 O 0.65008 0.81623 0.94583 0.0
O38 O 0.6052 0.82387 0.94341 0.0
In39 In 0.54582 0.2946 0.17991 0.0
O40 O 0.57556 0.26248 0.15825 0.0
O41 O 0.52802 0.24458 0.15321 0.0
C42 C 0.55296 0.3275 0.1344 0.0
C43 C 0.49645 0.29256 0.2118 0.0
C44 C 0.58515 0.31857 0.23161 0.0
O45 O 0.52973 0.30667 0.13367 0.0
O46 O 0.57205 0.33197 0.15814 0.0
O47 O 0.56986 0.33498 0.22012 0.0
O48 O 0.58108 0.29081 0.21672 0.0
C49 C 0.55396 0.23972 0.14777 0.0
O50 O 0.51443 0.27482 0.21332 0.0
O51 O 0.50244 0.31032 0.19292 0.0
In52 In 0.13707 0.81331 0.12407 0.0
O53 O 0.16434 0.78108 0.09628 0.0
O54 O 0.11823 0.76353 0.10167 0.0
C55 C 0.14651 0.85309 0.08603 0.0
C56 C 0.08531 0.82153 0.14803 0.0
C57 C 0.17017 0.81414 0.17722 0.0
O58 O 0.12532 0.82957 0.08017 0.0
O59 O 0.16347 0.85671 0.11123 0.0
O60 O 0.144 0.79756 0.16964 0.0
O61 O 0.17972 0.83072 0.15816 0.0
C62 C 0.14239 0.75825 0.09101 0.0
O63 O 0.11052 0.8385 0.16012 0.0
O64 O 0.08603 0.80244 0.12245 0.0
In65 In 0.52437 0.83373 0.45667 0.0
O66 O 0.54522 0.80294 0.41879 0.0
O67 O 0.56944 0.84897 0.43858 0.0
C68 C 0.47712 0.83171 0.41578 0.0
C69 C 0.52882 0.79682 0.49684 0.0
C70 C 0.52629 0.88599 0.49985 0.0
O71 O 0.5001 0.85346 0.42106 0.0
O72 O 0.47828 0.8105 0.4304 0.0
O73 O 0.50618 0.86211 0.49847 0.0
O74 O 0.54494 0.88356 0.47938 0.0
C75 C 0.56854 0.82364 0.41939 0.0
O76 O 0.5042 0.79518 0.48079 0.0
O77 O 0.55091 0.81658 0.49229 0.0
In78 In 0.63899 0.30119 0.61543 0.0
O79 O 0.66265 0.26751 0.58495 0.0
O80 O 0.61671 0.25174 0.59259 0.0
C81 C 0.64803 0.33831 0.57415 0.0
C82 C 0.58682 0.30095 0.64213 0.0
C83 C 0.67983 0.31424 0.66645 0.0
O84 O 0.62817 0.31367 0.56878 0.0
O85 O 0.66241 0.34507 0.60135 0.0
O86 O 0.65759 0.32709 0.66598 0.0
O87 O 0.68208 0.29588 0.6409 0.0
C88 C 0.63986 0.24556 0.57996 0.0
O89 O 0.6026 0.28111 0.6438 0.0
O90 O 0.59672 0.32046 0.62605 0.0
In91 In 0.0243 0.32644 0.96075 0.0
O92 O 1.00565 0.30684 1.00212 0.0
O93 O 0.04033 0.28828 0.97918 0.0
C94 C 0.02625 0.38185 0.99852 0.0
C95 C 0.07252 0.32566 0.92729 0.0
C96 C 0.97864 0.31987 0.91601 0.0
O97 O 0.04986 0.3721 0.99183 0.0
O98 O 1.00176 0.36364 0.98659 0.0
O99 O 1.00152 0.34166 0.92084 0.0
O100 O 0.97912 0.30021 0.93287 0.0
C101 C 1.02365 0.28888 1.00152 0.0
O102 O 0.04841 0.30521 0.91944 0.0
O103 O 0.0724 0.34601 0.95216 0.0
In104 In 0.42179 0.03509 0.33691 0.0
O105 O 0.45411 0.04306 0.29967 0.0
O106 O 0.42527 0.99853 0.2934 0.0
C107 C 0.46483 0.04669 0.38536 0.0
C108 C 0.39354 0.07464 0.31612 0.0
C109 C 0.37705 0.99947 0.3581 0.0
O110 O 0.45893 1.02167 0.36477 0.0
O111 O 0.44961 0.06637 0.38127 0.0
O112 O 0.38228 0.02848 0.36731 0.0
O113 O 0.39453 0.98885 0.33915 0.0
C114 C 0.44535 1.01608 0.28276 0.0
O115 O 0.38405 0.0458 0.30799 0.0
O116 O 0.41729 0.08391 0.33519 0.0
In117 In 0.30785 0.2321 0.52315 0.0
O118 O 0.3074 0.27497 0.56424 0.0
O119 O 0.3126 0.23318 0.57651 0.0
C120 C 0.31643 0.25636 0.46925 0.0
C121 C 0.35747 0.20828 0.52978 0.0
C122 C 0.25222 0.19353 0.51785 0.0
O123 O 0.3176 0.27306 0.49684 0.0
O124 O 0.30994 0.22788 0.46873 0.0
O125 O 0.27616 0.18434 0.51157 0.0
O126 O 0.25564 0.22265 0.52511 0.0
C127 C 0.31114 0.26102 0.58633 0.0
O128 O 0.33217 0.19203 0.51718 0.0
O129 O 0.35838 0.23695 0.53739 0.0
In130 In 0.21498 0.05155 0.79643 0.0
O131 O 0.16953 0.04348 0.75801 0.0
O132 O 0.21007 0.05478 0.73994 0.0
C133 C 0.18181 0.05686 0.8563 0.0
C134 C 0.24486 0.99346 0.79301 0.0
C135 C 0.24846 0.11714 0.8002 0.0
O136 O 0.17017 0.04435 0.82793 0.0
O137 O 0.20999 0.06613 0.85473 0.0
O138 O 0.2605 0.09352 0.79755 0.0
O139 O 0.2205 0.10795 0.80231 0.0
C140 C 0.18158 0.04976 0.73354 0.0
O141 O 0.2572 1.02205 0.80399 0.0
O142 O 0.21782 0.99406 0.78327 0.0
In143 In 0.32502 0.99842 0.02045 0.0
O144 O 0.31896 0.95896 0.04587 0.0
O145 O 0.3289 1.00483 0.07453 0.0
C146 C 0.32395 0.95493 0.96499 0.0
C147 C 0.26941 1.02007 0.02678 0.0
C148 C 0.38797 0.02508 0.02641 0.0
O149 O 0.32083 0.94856 0.99179 0.0
O150 O 0.32598 0.98334 0.96527 0.0
O151 O 0.36828 0.03491 1.01142 0.0
O152 O 0.37589 1.00376 0.03919 0.0
C153 C 0.32389 0.97609 0.07345 0.0
O154 O 0.2954 0.03796 0.03073 0.0
O155 O 0.27142 0.99222 1.01759 0.0
In156 In 0.37075 0.40552 0.06198 0.0
O157 O 0.37494 0.3696 0.09332 0.0
O158 O 0.35634 0.40787 0.11277 0.0
C159 C 0.36467 0.37536 0.99872 0.0
C160 C 0.32005 0.42708 0.05599 0.0
C161 C 0.42565 0.44573 0.06985 0.0
O162 O 0.3627 0.36074 0.02083 0.0
O163 O 0.37062 0.40425 1.00864 0.0
O164 O 0.4008 0.45416 0.07148 0.0
O165 O 0.42334 0.41679 0.06512 0.0
C166 C 0.36345 0.38328 0.11678 0.0
O167 O 0.34544 0.44463 0.06628 0.0
O168 O 0.31989 0.3985 0.04971 0.0
In169 In 0.85127 0.14229 0.071 0.0
O170 O 0.88194 0.10335 0.06513 0.0
O171 O 0.90386 0.14829 0.06536 0.0
C172 C 0.78971 0.1125 0.06618 0.0
C173 C 0.85169 0.18632 0.12574 0.0
C174 C 0.84376 0.17193 0.02434 0.0
O175 O 0.80666 0.12137 0.09211 0.0
O176 O 0.80444 0.11493 0.04252 0.0
O177 O 0.85608 0.18565 0.05178 0.0
O178 O 0.83682 0.1428 0.01958 0.0
C179 C 0.90689 0.1208 0.06253 0.0
O180 O 0.85261 0.19185 0.0984 0.0
O181 O 0.85232 0.15849 0.12633 0.0
In182 In 0.26419 0.57387 0.22835 0.0
O183 O 0.30687 0.5605 0.20856 0.0
O184 O 0.28071 0.5305 0.233 0.0
C185 C 0.29143 0.63373 0.24557 0.0
C186 C 0.22275 0.56559 0.17883 0.0
C187 C 0.23003 0.57402 0.27785 0.0
O188 O 0.28848 0.61637 0.26498 0.0
O189 O 0.28178 0.62073 0.21719 0.0
O190 O 0.2189 0.57039 0.24963 0.0
O191 O 0.2583 0.57653 0.28119 0.0
C192 C 0.30462 0.53695 0.22009 0.0
O193 O 0.2229 0.54532 0.19504 0.0
O194 O 0.24476 0.58839 0.18593 0.0
In195 In 0.87076 0.90786 0.56588 0.0
O196 O 0.87562 0.87171 0.5969 0.0
O197 O 0.85597 0.90916 0.61634 0.0
C198 C 0.86388 0.87863 0.50241 0.0
C199 C 0.82181 0.93197 0.55886 0.0
C200 C 0.92577 0.94728 0.57301 0.0
O201 O 0.85821 0.86381 0.52405 0.0
O202 O 0.87412 0.90713 0.51294 0.0
O203 O 0.90165 0.95587 0.57992 0.0
O204 O 0.9228 0.91827 0.56435 0.0
C205 C 0.86369 0.88485 0.62032 0.0
O206 O 0.84742 0.94844 0.57025 0.0
O207 O 0.82051 0.90319 0.55234 0.0
In208 In 0.95948 0.08845 0.29312 0.0
O209 O 1.00452 0.09354 0.26171 0.0
O210 O 0.96397 0.07697 0.2343 0.0
C211 C 0.99332 0.09031 0.35619 0.0
C212 C 0.93008 0.14681 0.29644 0.0
C213 C 0.92506 1.02301 0.28902 0.0
O214 O 1.00491 0.09178 0.33023 0.0
O215 O 0.96543 0.09038 0.35109 0.0
O216 O 0.9137 0.04709 0.29364 0.0
O217 O 0.95257 0.03158 0.28467 0.0
C218 C 0.9925 0.08392 0.2331 0.0
O219 O 0.91658 0.11828 0.29088 0.0
O220 O 0.95814 0.1462 0.30067 0.0
In221 In 0.35363 0.64114 0.57288 0.0
O222 O 0.38393 0.60199 0.56565 0.0
O223 O 0.40635 0.64744 0.56888 0.0
C224 C 0.29187 0.6117 0.56532 0.0
C225 C 0.35293 0.68458 0.62781 0.0
C226 C 0.34778 0.67195 0.52715 0.0
O227 O 0.30735 0.61564 0.54253 0.0
O228 O 0.30817 0.61879 0.59167 0.0
O229 O 0.35979 0.68507 0.55485 0.0
O230 O 0.34053 0.64279 0.52166 0.0
C231 C 0.40911 0.61976 0.56445 0.0
O232 O 0.35429 0.69032 0.60059 0.0
O233 O 0.35359 0.65672 0.62826 0.0
In234 In 0.45919 0.58721 0.79265 0.0
O235 O 0.41579 0.61662 0.79077 0.0
O236 O 0.45709 0.64488 0.80078 0.0
C237 C 0.42547 0.52131 0.78753 0.0
C238 C 0.49272 0.58312 0.73304 0.0
C239 C 0.49326 0.58889 0.85548 0.0
O240 O 0.41384 0.54522 0.79274 0.0
O241 O 0.45291 0.53028 0.78308 0.0
O242 O 0.50497 0.59561 0.83102 0.0
O243 O 0.46475 0.58358 0.84917 0.0
C244 C 0.42898 0.64524 0.79652 0.0
O245 O 0.50452 0.59198 0.76175 0.0
O246 O 0.46413 0.57657 0.73393 0.0
In247 In 0.76361 0.07443 0.73833 0.0
O248 O 0.80644 0.06045 0.72009 0.0
O249 O 0.78012 0.03206 0.7462 0.0
C250 C 0.79185 0.1334 0.74455 0.0
C251 C 0.71693 0.06863 0.69492 0.0
C252 C 0.736 0.07146 0.79097 0.0
O253 O 0.78735 0.12109 0.76791 0.0
O254 O 0.78328 0.11568 0.71767 0.0
O255 O 0.72509 0.05419 0.76429 0.0
O256 O 0.76182 0.08834 0.79146 0.0
C257 C 0.80402 0.03773 0.73301 0.0
O258 O 0.72042 0.0864 0.72188 0.0
O259 O 0.73675 0.05254 0.68937 0.0
In260 In 0.80737 0.73246 0.02657 0.0
O261 O 0.83185 0.69304 0.02697 0.0
O262 O 0.85805 0.73898 0.04061 0.0
C263 C 0.75255 0.69178 1.0176 0.0
C264 C 0.81119 0.76386 0.0891 0.0
C265 C 0.81546 0.75542 0.97199 0.0
O266 O 0.77727 0.68367 1.01265 0.0
O267 O 0.75491 0.72075 0.02532 0.0
O268 O 0.80248 0.76797 0.99481 0.0
O269 O 0.82368 0.73144 0.97642 0.0
C270 C 0.85732 0.71043 0.03716 0.0
O271 O 0.81633 0.77781 0.06675 0.0
O272 O 0.80305 0.73498 0.07973 0.0
In273 In 0.92444 0.55502 0.85224 0.0
O274 O 0.88785 0.55384 0.81444 0.0
O275 O 0.90176 0.59541 0.85041 0.0
C276 C 0.88615 0.50755 0.86473 0.0
C277 C 0.96369 0.5558 0.80853 0.0
C278 C 0.96327 0.57051 0.90419 0.0
O279 O 0.88603 0.53497 0.8787 0.0
O280 O 0.90592 0.50434 0.84557 0.0
O281 O 0.96039 0.54539 0.88405 0.0
O282 O 0.94597 0.58811 0.89876 0.0
C283 C 0.88498 0.58106 0.82528 0.0
O284 O 0.96282 0.57956 0.82941 0.0
O285 O 0.94483 0.53165 0.80981 0.0
In286 In 0.82747 0.50217 0.51831 0.0
O287 O 0.81884 0.46022 0.53979 0.0
O288 O 0.83683 0.50397 0.5712 0.0
C289 C 0.82816 0.45836 0.46354 0.0
C290 C 0.77202 0.52401 0.52626 0.0
C291 C 0.88984 0.53048 0.52383 0.0
O292 O 0.82598 0.45249 0.49064 0.0
O293 O 0.82853 0.4864 0.46319 0.0
O294 O 0.87057 0.53401 0.50306 0.0
O295 O 0.87738 0.51546 0.54281 0.0
C296 C 0.82862 0.47499 0.56774 0.0
O297 O 0.79802 0.54186 0.53052 0.0
O298 O 0.77402 0.49631 0.5163 0.0
In299 In 0.71585 0.55251 0.29685 0.0
O300 O 0.75839 0.5232 0.30333 0.0
O301 O 0.71847 0.49508 0.28446 0.0
C302 C 0.74865 0.61828 0.30098 0.0
C303 C 0.68226 0.55075 0.23409 0.0
C304 C 0.68318 0.55713 0.35695 0.0
O305 O 0.76049 0.59452 0.29518 0.0
O306 O 0.72153 0.60918 0.30638 0.0
O307 O 0.67117 0.54575 0.3285 0.0
O308 O 0.71149 0.56552 0.3553 0.0
C309 C 0.74582 0.49456 0.29311 0.0
O310 O 0.67025 0.54537 0.25889 0.0
O311 O 0.71071 0.55489 0.24013 0.0
Eu312 Eu 0.10317 0.10529 0.0563 0.0
Eu313 Eu 0.073 0.03667 0.03442 0.0
C314 C 0.11372 0.06953 0.98147 0.0
C315 C 0.11463 0.18945 0.09002 0.0
C316 C 0.12561 0.218 0.08262 0.0
C317 C 0.06579 0.20276 0.09717 0.0
C318 C 0.10593 0.23762 0.07975 0.0
C319 C 0.08553 0.18315 0.10011 0.0
C320 C 0.07535 0.22853 0.0842 0.0
C321 C 0.12798 0.16353 0.07615 0.0
O322 O 0.12313 0.03244 0.04132 0.0
O323 O 0.14509 0.08338 0.05896 0.0
C324 C 0.14794 0.05449 0.04905 0.0
O325 O 0.07839 0.09841 0.10207 0.0
O326 O 0.04669 0.99963 0.99661 0.0
O327 O 0.05899 0.99059 0.04265 0.0
O328 O 0.05882 0.04687 0.08756 0.0
C329 C 0.06134 0.07353 0.10904 0.0
O330 O 0.05284 0.10892 0.05133 0.0
O331 O 0.03158 0.05863 0.02889 0.0
O332 O 0.10034 0.04401 0.99026 0.0
O333 O 0.12988 0.14309 0.09317 0.0
O334 O 0.11697 0.15085 0.04678 0.0
O335 O 0.1129 0.09595 1.00187 0.0
C336 C 0.06217 0.95311 0.99849 0.0
C337 C 0.09071 0.95998 0.98724 0.0
C338 C 0.07324 0.90608 1.00941 0.0
C339 C 0.11147 0.94132 0.99004 0.0
C340 C 0.05253 0.92463 1.00653 0.0
C341 C 0.1035 0.91614 1.00428 0.0
C342 C 0.04847 0.97862 1.01296 0.0
C343 C 0.02834 0.08702 0.04085 0.0
H344 H 0.14795 0.22312 0.07472 0.0
H345 H 0.04222 0.19557 0.10071 0.0
H346 H 0.11355 0.25764 0.0699 0.0
H347 H 0.07671 0.16113 0.10585 0.0
H348 H 0.09851 0.98189 0.98083 0.0
H349 H 0.06677 0.88639 0.02007 0.0
H350 H 0.13474 0.94921 0.98585 0.0
H351 H 0.03059 0.91897 1.01516 0.0
Eu352 Eu 0.32874 0.83463 0.28101 0.0
Eu353 Eu 0.29422 0.81726 0.34259 0.0
C354 C 0.25772 0.8232 0.27972 0.0
C355 C 0.34894 0.87209 0.21245 0.0
C356 C 0.32822 0.8913 0.21981 0.0
C357 C 0.35881 0.89215 0.16543 0.0
C358 C 0.32268 0.91073 0.19988 0.0
C359 C 0.36435 0.87276 0.18534 0.0
C360 C 0.33774 0.91096 0.17241 0.0
C361 C 0.35349 0.8503 0.23208 0.0
O362 O 0.31271 0.77616 0.32067 0.0
O363 O 0.3116 0.78319 0.26967 0.0
C364 C 0.31166 0.76539 0.29001 0.0
O365 O 0.36369 0.82086 0.31045 0.0
O366 O 0.26234 0.78507 0.36221 0.0
O367 O 0.28683 0.82822 0.39266 0.0
O368 O 0.34409 0.833 0.3583 0.0
C369 C 0.36648 0.82722 0.34157 0.0
O370 O 0.33281 0.87819 0.31845 0.0
O371 O 0.29015 0.86588 0.34343 0.0
O372 O 0.25839 0.80705 0.30155 0.0
O373 O 0.36476 0.86245 0.26142 0.0
O374 O 0.33091 0.82694 0.22987 0.0
O375 O 0.28169 0.84226 0.27463 0.0
C376 C 0.28176 0.7831 0.4127 0.0
C377 C 0.31295 0.78769 0.42148 0.0
C378 C 0.27257 0.74041 0.4392 0.0
C379 C 0.32381 0.76899 0.4393 0.0
C380 C 0.26165 0.75935 0.42164 0.0
C381 C 0.3037 0.74518 0.44808 0.0
C382 C 0.27062 0.80066 0.39132 0.0
C383 C 0.3123 0.88613 0.33688 0.0
H384 H 0.31609 0.89092 0.24069 0.0
H385 H 0.37065 0.89222 0.14433 0.0
H386 H 0.30645 0.92525 0.20558 0.0
H387 H 0.38033 0.858 0.17936 0.0
H388 H 0.329 0.80543 0.41421 0.0
H389 H 0.25683 0.72209 0.44595 0.0
H390 H 0.34788 0.77294 0.4461 0.0
H391 H 0.23762 0.75515 0.41455 0.0
Eu392 Eu 0.60913 0.04824 0.52628 0.0
Eu393 Eu 0.56032 0.07933 0.57002 0.0
C394 C 0.62139 0.06965 0.60309 0.0
C395 C 0.67259 1.00805 0.50488 0.0
C396 C 0.68244 1.01278 0.53726 0.0
C397 C 0.70953 0.97645 0.49153 0.0
C398 C 0.70606 0.99986 0.54668 0.0
C399 C 0.68603 0.98961 0.48209 0.0
C400 C 0.71985 0.98178 0.52385 0.0
C401 C 0.64859 1.02266 0.49501 0.0
O402 O 0.59891 0.11704 0.56552 0.0
O403 O 0.61274 0.09575 0.5171 0.0
C404 C 0.61188 0.11969 0.53963 0.0
O405 O 0.56583 0.039 0.49457 0.0
O406 O 0.5479 0.11878 0.60107 0.0
O407 O 0.515 0.07584 0.5854 0.0
O408 O 0.54766 0.08071 0.5196 0.0
C409 C 0.54798 0.05863 0.49477 0.0
O410 O 0.59014 1.01484 0.55537 0.0
O411 O 0.54424 0.02757 0.55792 0.0
O412 O 0.59281 0.07019 0.60631 0.0
O413 O 0.62099 1.00802 0.49617 0.0
O414 O 0.6526 0.05231 0.5068 0.0
O415 O 0.63272 0.06788 0.57554 0.0
C416 C 0.49763 0.12203 0.58845 0.0
C417 C 0.48859 0.11794 0.55594 0.0
C418 C 0.46437 0.15804 0.60089 0.0
C419 C 0.4672 0.13338 0.54601 0.0
C420 C 0.48569 0.14246 0.61083 0.0
C421 C 0.45476 0.15329 0.56845 0.0
C422 C 0.51954 0.10513 0.59896 0.0
C423 C 0.56153 1.00779 0.55986 0.0
H424 H 0.67211 0.0268 0.55519 0.0
H425 H 0.72001 0.96254 0.47367 0.0
H426 H 0.71381 1.00419 0.57169 0.0
H427 H 0.67857 0.98567 0.45705 0.0
H428 H 0.49776 0.10249 0.53826 0.0
H429 H 0.45491 0.17332 0.61849 0.0
H430 H 0.45994 0.12938 0.52092 0.0
H431 H 0.49259 0.14608 0.63596 0.0
Eu432 Eu 0.30366 0.32737 0.79423 0.0
Eu433 Eu 0.36869 0.3105 0.79097 0.0
C434 C 0.30778 0.25383 0.79676 0.0
C435 C 0.22529 0.33836 0.81749 0.0
C436 C 0.22884 0.3334 0.8484 0.0
C437 C 0.17174 0.33578 0.82204 0.0
C438 C 0.204 0.33011 0.86618 0.0
C439 C 0.19658 0.33923 0.80435 0.0
C440 C 0.17535 0.33152 0.85317 0.0
C441 C 0.25128 0.34333 0.79887 0.0
O442 O 0.35417 0.30614 0.73884 0.0
O443 O 0.30518 0.31209 0.74109 0.0
C444 C 0.32762 0.30574 0.72478 0.0
O445 O 0.33536 0.37543 0.79193 0.0
O446 O 0.39507 0.27595 0.77409 0.0
O447 O 0.41745 0.31997 0.80388 0.0
O448 O 0.38152 0.3627 0.78713 0.0
C449 C 0.36491 0.38427 0.7891 0.0
O450 O 0.31691 0.32694 0.84543 0.0
O451 O 0.36752 0.32835 0.84395 0.0
O452 O 0.33755 0.26316 0.79569 0.0
O453 O 0.27653 0.36003 0.81437 0.0
O454 O 0.25547 0.31932 0.77846 0.0
O455 O 0.29067 0.27476 0.79657 0.0
C456 C 0.4442 0.29641 0.764 0.0
C457 C 0.44341 0.31463 0.74143 0.0
C458 C 0.48871 0.28068 0.74315 0.0
C459 C 0.46533 0.31601 0.71995 0.0
C460 C 0.46686 0.27938 0.76468 0.0
C461 C 0.48807 0.29903 0.72074 0.0
C462 C 0.42087 0.29409 0.78608 0.0
C463 C 0.34406 0.33097 0.86004 0.0
H464 H 0.25083 0.33249 0.8589 0.0
H465 H 0.14978 0.33694 0.81168 0.0
H466 H 0.20714 0.32687 0.89019 0.0
H467 H 0.19345 0.34297 0.78053 0.0
H468 H 0.42584 0.3277 0.74045 0.0
H469 H 0.50623 0.26754 0.74406 0.0
H470 H 0.46464 0.33033 0.7028 0.0
H471 H 0.46761 0.26504 0.78181 0.0
Eu472 Eu 0.07826 0.1007 0.56367 0.0
Eu473 Eu 0.09789 0.04028 0.52579 0.0
C474 C 0.1415 0.10695 0.5294 0.0
C475 C 0.07897 0.18378 0.57868 0.0
C476 C 0.10969 0.19174 0.57363 0.0
C477 C 0.06893 0.22468 0.55359 0.0
C478 C 0.11966 0.21514 0.55778 0.0
C479 C 0.05886 0.20107 0.56937 0.0
C480 C 0.09918 0.2311 0.5469 0.0
C481 C 0.0673 0.15456 0.58833 0.0
O482 O 0.11773 0.04395 0.57874 0.0
O483 O 0.10242 0.08615 0.60624 0.0
C484 C 0.11703 0.06325 0.60656 0.0
O485 O 0.04191 0.06397 0.57516 0.0
O486 O 0.12848 1.00795 0.52147 0.0
O487 O 0.08738 0.99698 0.48988 0.0
O488 O 0.05179 1.0224 0.54013 0.0
C489 C 0.03512 0.03462 0.56088 0.0
O490 O 0.05619 0.09502 0.5109 0.0
O491 O 0.07553 0.05576 0.48278 0.0
O492 O 0.13559 0.07724 0.51626 0.0
O493 O 0.04844 0.13374 0.56712 0.0
O494 O 0.08736 0.14261 0.60137 0.0
O495 O 0.1237 0.11943 0.54856 0.0
C496 C 0.09869 0.95775 0.5143 0.0
C497 C 0.06852 0.9494 0.52111 0.0
C498 C 0.11165 0.91895 0.54104 0.0
C499 C 0.06025 0.92674 0.53838 0.0
C500 C 0.12001 0.94177 0.52376 0.0
C501 C 0.0819 0.91195 0.54912 0.0
C502 C 0.10868 0.9861 0.50233 0.0
C503 C 0.05888 0.0771 0.48281 0.0
H504 H 0.12581 0.17879 0.58028 0.0
H505 H 0.05285 0.23677 0.54508 0.0
H506 H 0.14303 0.21974 0.55259 0.0
H507 H 0.03508 0.19516 0.57268 0.0
H508 H 0.0515 0.96137 0.51448 0.0
H509 H 0.12865 0.90777 0.54934 0.0
H510 H 0.03723 0.92167 0.54455 0.0
H511 H 0.14341 0.948 0.51918 0.0
Eu512 Eu 0.36591 0.83899 0.789 0.0
Eu513 Eu 0.30688 0.79959 0.80045 0.0
C514 C 0.33688 0.85718 0.85644 0.0
C515 C 0.44768 0.85765 0.77603 0.0
C516 C 0.44629 0.82606 0.7639 0.0
C517 C 0.50043 0.86439 0.79407 0.0
C518 C 0.47162 0.81347 0.76774 0.0
C519 C 0.47531 0.87707 0.78944 0.0
C520 C 0.49801 0.8323 0.78508 0.0
C521 C 0.41985 0.86838 0.78279 0.0
O522 O 0.29107 0.84623 0.79152 0.0
O523 O 0.33579 0.87671 0.78664 0.0
C524 C 0.30608 0.87452 0.78904 0.0
O525 O 0.34661 0.81297 0.73896 0.0
O526 O 0.27395 0.77599 0.82713 0.0
O527 O 0.26275 0.77507 0.77725 0.0
O528 O 0.3219 0.77234 0.75588 0.0
C529 C 0.33543 0.78321 0.73338 0.0
O530 O 0.38159 0.79154 0.79549 0.0
O531 O 0.33797 0.76309 0.80602 0.0
O532 O 0.32075 0.82884 0.85039 0.0
O533 O 0.39783 0.86053 0.7599 0.0
O534 O 0.41067 0.86397 0.80989 0.0
O535 O 0.35458 0.86622 0.8357 0.0
C536 C 0.22399 0.77868 0.80991 0.0
C537 C 0.19889 0.76518 0.78765 0.0
C538 C 0.19773 0.8185 0.8337 0.0
C539 C 0.17415 0.77913 0.78729 0.0
C540 C 0.2228 0.80465 0.83385 0.0
C541 C 0.17406 0.80665 0.80932 0.0
C542 C 0.25263 0.76918 0.80354 0.0
C543 C 0.36719 0.76418 0.80102 0.0
H544 H 0.42496 0.81065 0.75469 0.0
H545 H 0.52085 0.8792 0.80735 0.0
H546 H 0.46953 0.78867 0.76076 0.0
H547 H 0.47666 0.90141 0.79929 0.0
H548 H 0.19939 0.74519 0.76902 0.0
H549 H 0.1977 0.83943 0.8512 0.0
H550 H 0.15584 0.76949 0.76852 0.0
H551 H 0.24185 0.81526 0.85146 0.0
Eu552 Eu 0.58926 0.05519 0.07589 0.0
Eu553 Eu 0.58906 0.08244 1.01204 0.0
C554 C 0.57764 0.12408 0.07938 0.0
C555 C 0.56218 1.02273 0.14474 0.0
C556 C 0.54083 0.04133 0.14915 0.0
C557 C 0.53481 0.9894 0.17542 0.0
C558 C 0.51637 0.03374 0.1662 0.0
C559 C 0.55947 0.99719 0.15854 0.0
C560 C 0.51139 1.00623 0.17777 0.0
C561 C 0.58593 0.02866 0.12392 0.0
O562 O 0.63938 0.08316 0.02578 0.0
O563 O 0.639 0.07943 0.07783 0.0
C564 C 0.65414 0.08472 0.05358 0.0
O565 O 0.60921 0.02419 0.03916 0.0
O566 O 0.60586 0.1189 0.98755 0.0
O567 O 0.57608 0.07666 0.96138 0.0
O568 O 0.58302 0.03098 0.99582 0.0
C569 C 0.59894 1.01508 1.00922 0.0
O570 O 0.53872 0.04359 0.05612 0.0
O571 O 0.53846 0.07322 1.01884 0.0
O572 O 0.5846 0.12298 0.05017 0.0
O573 O 0.57891 1.01358 0.09445 0.0
O574 O 0.59895 0.0576 0.1264 0.0
O575 O 0.57611 0.10064 0.09312 0.0
C576 C 0.61654 0.09816 0.93602 0.0
C577 C 0.64498 0.09267 0.94481 0.0
C578 C 0.62893 0.09333 0.88164 0.0
C579 C 0.66522 0.08745 0.92218 0.0
C580 C 0.6086 0.09842 0.90432 0.0
C581 C 0.65726 0.08772 0.8905 0.0
C582 C 0.59473 0.10197 0.95959 0.0
C583 C 0.52369 0.05542 0.03615 0.0
H584 H 0.54296 0.06172 0.13928 0.0
H585 H 0.53513 0.97046 0.18684 0.0
H586 H 0.50187 0.05016 0.17042 0.0
H587 H 0.57636 0.98308 0.15607 0.0
H588 H 0.6515 0.09223 0.96914 0.0
H589 H 0.62266 0.09376 0.85721 0.0
H590 H 0.68709 0.08333 0.92933 0.0
H591 H 0.58668 0.10242 0.89713 0.0
Eu592 Eu 0.35979 0.35658 0.31457 0.0
Eu593 Eu 0.32213 0.28948 0.27335 0.0
C594 C 0.34178 0.34314 0.23626 0.0
C595 C 0.39061 0.43882 0.31911 0.0
C596 C 0.39974 0.43183 0.28827 0.0
C597 C 0.37323 0.48272 0.30655 0.0
C598 C 0.39425 0.44931 0.26628 0.0
C599 C 0.37905 0.4655 0.32861 0.0
C600 C 0.37912 0.47356 0.27485 0.0
C601 C 0.38445 0.41455 0.33728 0.0
O602 O 0.37116 0.29337 0.26505 0.0
O603 O 0.39487 0.3276 0.31012 0.0
C604 C 0.3957 0.30739 0.28389 0.0
O605 O 0.35436 0.33169 0.35478 0.0
O606 O 0.31915 0.25036 0.23334 0.0
O607 O 0.28656 0.24798 0.26774 0.0
O608 O 0.32845 0.28423 0.3252 0.0
C609 C 0.3399 0.30302 0.35283 0.0
O610 O 0.31146 0.3507 0.32615 0.0
O611 O 0.28566 0.31603 0.28232 0.0
O612 O 0.32121 0.3184 0.23666 0.0
O613 O 0.35571 0.4031 0.33691 0.0
O614 O 0.4002 0.39302 0.33249 0.0
O615 O 0.3597 0.35843 0.26197 0.0
C616 C 0.30891 0.20589 0.2528 0.0
C617 C 0.33235 0.21175 0.27724 0.0
C618 C 0.30812 0.15111 0.24406 0.0
C619 C 0.34371 0.18767 0.28502 0.0
C620 C 0.29667 0.17551 0.23617 0.0
C621 C 0.33176 0.15733 0.26846 0.0
C622 C 0.29882 0.23239 0.24504 0.0
C623 C 0.28615 0.33582 0.30912 0.0
H624 H 0.4085 0.41128 0.28017 0.0
H625 H 0.36188 0.50169 0.31359 0.0
H626 H 0.3992 0.4422 0.24195 0.0
H627 H 0.37163 0.47117 0.35211 0.0
H628 H 0.34214 0.23514 0.29008 0.0
H629 H 0.29883 0.12761 0.23116 0.0
H630 H 0.36198 0.19269 0.30386 0.0
H631 H 0.27864 0.17078 0.21716 0.0
Eu632 Eu 0.57903 0.59958 0.06274 0.0
Eu633 Eu 0.59831 0.53878 0.02561 0.0
C634 C 0.64184 0.60459 0.02724 0.0
C635 C 0.57342 0.67938 0.06906 0.0
C636 C 0.58566 0.67425 0.03978 0.0
C637 C 0.57673 0.73313 0.06678 0.0
C638 C 0.59343 0.69814 0.02418 0.0
C639 C 0.56903 0.70898 0.08265 0.0
C640 C 0.58904 0.7277 0.03746 0.0
C641 C 0.56675 0.65341 0.08487 0.0
O642 O 0.61804 0.54393 0.07913 0.0
O643 O 0.60316 0.58654 0.10613 0.0
C644 C 0.61759 0.56359 0.10682 0.0
O645 O 0.54288 0.56251 0.07484 0.0
O646 O 0.63009 0.50777 0.01968 0.0
O647 O 0.58596 0.4932 0.99342 0.0
O648 O 0.55184 0.52131 0.03867 0.0
C649 C 0.53555 0.5333 0.05989 0.0
O650 O 0.55813 0.59431 1.00979 0.0
O651 O 0.57501 0.55315 0.98226 0.0
O652 O 0.63523 0.57498 1.01383 0.0
O653 O 0.54647 0.62973 0.06909 0.0
O654 O 0.59065 0.64498 0.09522 0.0
O655 O 0.62487 0.6173 0.04735 0.0
C656 C 0.60236 0.45805 0.01939 0.0
C657 C 0.59468 0.46369 0.0508 0.0
C658 C 0.59137 0.40292 1.01788 0.0
C659 C 0.5859 0.43943 0.06577 0.0
C660 C 0.60056 0.42747 1.00289 0.0
C661 C 0.58412 0.40887 0.04951 0.0
C662 C 0.60952 0.48433 1.00391 0.0
C663 C 0.55944 0.57538 0.98191 0.0
H664 H 0.5893 0.65164 0.02893 0.0
H665 H 0.57304 0.75589 0.07718 0.0
H666 H 0.60265 0.69353 1.0015 0.0
H667 H 0.55977 0.71336 0.10531 0.0
H668 H 0.59499 0.48693 0.0637 0.0
H669 H 0.58991 0.37938 1.00492 0.0
H670 H 0.58018 0.44447 0.09005 0.0
H671 H 0.60582 0.42261 0.97845 0.0
Eu672 Eu 0.86758 0.34067 0.2872 0.0
Eu673 Eu 0.80868 0.30143 0.30039 0.0
C674 C 0.84006 0.35959 0.35549 0.0
C675 C 0.94873 0.36198 0.26974 0.0
C676 C 0.95011 0.33061 0.26325 0.0
C677 C 1.003 0.37603 0.28194 0.0
C678 C 0.97761 0.32196 0.26778 0.0
C679 C 0.97549 0.38463 0.27689 0.0
C680 C 1.00362 0.34478 0.27982 0.0
C681 C 0.92033 0.37081 0.27791 0.0
O682 O 0.79247 0.34759 0.29072 0.0
O683 O 0.83716 0.37832 0.28612 0.0
C684 C 0.80745 0.37597 0.2885 0.0
O685 O 0.84689 0.31404 0.2378 0.0
O686 O 0.77675 0.27847 0.32849 0.0
O687 O 0.76422 0.27634 0.2786 0.0
O688 O 0.82285 0.27364 0.25569 0.0
C689 C 0.83585 0.28428 0.2328 0.0
O690 O 0.88357 0.29351 0.29437 0.0
O691 O 0.84012 0.26522 0.3056 0.0
O692 O 0.82355 0.33143 0.34985 0.0
O693 O 0.89746 0.36171 0.256 0.0
O694 O 0.91285 0.36621 0.30554 0.0
O695 O 0.85759 0.36822 0.33441 0.0
C696 C 0.72633 0.28036 0.31225 0.0
C697 C 0.70047 0.26514 0.29163 0.0
C698 C 0.70092 0.32185 0.33302 0.0
C699 C 0.67573 0.27901 0.29038 0.0
C700 C 0.72587 0.30797 0.33415 0.0
C701 C 0.67654 0.30819 0.30979 0.0
C702 C 0.7549 0.27096 0.30538 0.0
C703 C 0.86926 0.26627 0.3003 0.0
H704 H 0.92967 0.31295 0.25879 0.0
H705 H 1.02297 0.39386 0.29138 0.0
H706 H 0.97774 0.29779 0.26642 0.0
H707 H 0.97474 0.40894 0.28222 0.0
H708 H 0.70043 0.24387 0.27457 0.0
H709 H 0.70165 0.34423 0.34839 0.0
H710 H 0.65687 0.26805 0.27252 0.0
H711 H 0.7455 0.31984 0.35054 0.0
Eu712 Eu 0.09037 0.55998 0.57419 0.0
Eu713 Eu 0.09198 0.58478 0.50748 0.0
C714 C 0.08074 0.62928 0.57303 0.0
C715 C 0.07423 0.54332 0.65472 0.0
C716 C 0.04296 0.54168 0.65069 0.0
C717 C 0.07239 0.55052 0.71162 0.0
C718 C 0.02645 0.54409 0.67698 0.0
C719 C 0.08887 0.54774 0.68524 0.0
C720 C 0.04111 0.5486 0.70753 0.0
C721 C 0.092 0.54175 0.62748 0.0
O722 O 0.14267 0.59357 0.52392 0.0
O723 O 0.14114 0.57351 0.56871 0.0
C724 C 0.1566 0.58632 0.5481 0.0
O725 O 0.08826 0.51742 0.53653 0.0
O726 O 0.10604 0.61864 0.47893 0.0
O727 O 0.07594 0.57488 0.45722 0.0
O728 O 0.10663 0.53941 0.49632 0.0
C729 C 0.09992 0.51571 0.50947 0.0
O730 O 0.03972 0.55541 0.5607 0.0
O731 O 0.04092 0.56864 0.51197 0.0
O732 O 0.08766 0.62684 0.54367 0.0
O733 O 0.0785 0.52413 0.60067 0.0
O734 O 0.10746 0.56816 0.62402 0.0
O735 O 0.079 0.60671 0.58804 0.0
C736 C 0.11285 0.59513 0.42684 0.0
C737 C 0.13291 0.57509 0.42722 0.0
C738 C 0.13133 0.60672 0.37816 0.0
C739 C 0.152 0.57081 0.40314 0.0
C740 C 0.11212 0.6109 0.4022 0.0
C741 C 0.15135 0.58666 0.37855 0.0
C742 C 0.09314 0.59992 0.45243 0.0
C743 C 0.02553 0.55932 0.53472 0.0
H744 H 0.03136 0.53873 0.6273 0.0
H745 H 0.08393 0.55418 0.73515 0.0
H746 H 1.00231 0.54276 0.6736 0.0
H747 H 0.11305 0.54933 0.68866 0.0
H748 H 0.13389 0.56289 0.44622 0.0
H749 H 0.1307 0.61917 0.35933 0.0
H750 H 0.16744 0.55538 0.4038 0.0
H751 H 0.09685 0.62652 0.40167 0.0
Eu752 Eu 0.80273 0.82993 0.29615 0.0
Eu753 Eu 0.86746 0.81295 0.29487 0.0
C754 C 0.80736 0.75574 0.29894 0.0
C755 C 0.72173 0.83582 0.31313 0.0
C756 C 0.71636 0.81013 0.32714 0.0
C757 C 0.6756 0.84971 0.33138 0.0
C758 C 0.69069 0.80433 0.34329 0.0
C759 C 0.70114 0.8554 0.31514 0.0
C760 C 0.67038 0.82433 0.34578 0.0
C761 C 0.74898 0.84298 0.29701 0.0
O762 O 0.85212 0.80313 0.24219 0.0
O763 O 0.80831 0.82118 0.24347 0.0
C764 C 0.82843 0.8089 0.22757 0.0
O765 O 0.8339 0.87845 0.29538 0.0
O766 O 0.89666 0.78091 0.27927 0.0
O767 O 0.91581 0.82532 0.31027 0.0
O768 O 0.87949 0.86481 0.28933 0.0
C769 C 0.86329 0.88678 0.29183 0.0
O770 O 0.81568 0.83423 0.34861 0.0
O771 O 0.86466 0.82815 0.34786 0.0
O772 O 0.83724 0.76525 0.29921 0.0
O773 O 0.77275 0.86024 0.31487 0.0
O774 O 0.75554 0.82009 0.2768 0.0
O775 O 0.79044 0.77678 0.29778 0.0
C776 C 0.94437 0.80639 0.2703 0.0
C777 C 0.93723 0.81624 0.24257 0.0
C778 C 0.99519 0.80647 0.2559 0.0
C779 C 0.95888 0.82071 0.22131 0.0
C780 C 0.97348 0.80184 0.27706 0.0
C781 C 0.9879 0.81567 0.22783 0.0
C782 C 0.92135 0.80072 0.29198 0.0
C783 C 0.84187 0.83463 0.36353 0.0
H784 H 0.73214 0.79483 0.32587 0.0
H785 H 0.66013 0.86535 0.33317 0.0
H786 H 0.68694 0.78469 0.35436 0.0
H787 H 0.70502 0.87532 0.30447 0.0
H788 H 0.91482 0.82002 0.23719 0.0
H789 H 1.01751 0.80231 0.26105 0.0
H790 H 0.95291 0.82757 0.19961 0.0
H791 H 0.97928 0.79436 0.29843 0.0
Eu792 Eu 0.84024 0.33474 0.77524 0.0
Eu793 Eu 0.80176 0.31743 0.8345 0.0
C794 C 0.76896 0.32683 0.77063 0.0
C795 C 0.86122 0.37103 0.70634 0.0
C796 C 0.83135 0.37112 0.69566 0.0
C797 C 0.87974 0.4088 0.67569 0.0
C798 C 0.82578 0.38942 0.67456 0.0
C799 C 0.88534 0.39024 0.69653 0.0
C800 C 0.84995 0.40817 0.66428 0.0
C801 C 0.86738 0.35141 0.72805 0.0
O802 O 0.81831 0.27526 0.81208 0.0
O803 O 0.81994 0.28388 0.76179 0.0
C804 C 0.81796 0.26523 0.7814 0.0
O805 O 0.87267 0.31758 0.80466 0.0
O806 O 0.76803 0.28561 0.85266 0.0
O807 O 0.79277 0.328 0.88415 0.0
O808 O 0.85137 0.32883 0.85168 0.0
C809 C 0.87387 0.32194 0.83568 0.0
O810 O 0.84692 0.37705 0.81481 0.0
O811 O 0.8021 0.36741 0.83675 0.0
O812 O 0.76737 0.31053 0.79255 0.0
O813 O 0.87551 0.36553 0.75764 0.0
O814 O 0.84785 0.32546 0.72522 0.0
O815 O 0.79426 0.34465 0.76659 0.0
C816 C 0.78514 0.28246 0.90376 0.0
C817 C 0.81601 0.28553 0.91319 0.0
C818 C 0.77293 0.24087 0.93153 0.0
C819 C 0.8252 0.26668 0.93196 0.0
C820 C 0.76368 0.25996 0.91297 0.0
C821 C 0.80374 0.2442 0.94115 0.0
C822 C 0.77567 0.30071 0.88205 0.0
C823 C 0.82629 0.38644 0.83214 0.0
H824 H 0.81234 0.35681 0.70333 0.0
H825 H 0.89863 0.42316 0.6679 0.0
H826 H 0.80268 0.38866 0.66591 0.0
H827 H 0.90847 0.39067 0.70478 0.0
H828 H 0.83308 0.3023 0.90582 0.0
H829 H 0.75611 0.22359 0.93851 0.0
H830 H 0.84904 0.26953 0.93924 0.0
H831 H 0.73986 0.25692 0.90547 0.0
Eu832 Eu 0.86096 0.85397 0.81781 0.0
Eu833 Eu 0.82035 0.78953 0.77572 0.0
C834 C 0.84276 0.84306 0.73919 0.0
C835 C 0.8936 0.9363 0.82598 0.0
C836 C 0.902 0.93078 0.79473 0.0
C837 C 0.87562 0.98105 0.81676 0.0
C838 C 0.89571 0.94934 0.77417 0.0
C839 C 0.88219 0.96273 0.83739 0.0
C840 C 0.88063 0.97325 0.78463 0.0
C841 C 0.88799 0.91087 0.84271 0.0
O842 O 0.86873 0.78999 0.76597 0.0
O843 O 0.8944 0.82319 0.81069 0.0
C844 C 0.894 0.80323 0.78393 0.0
O845 O 0.85635 0.82744 0.85675 0.0
O846 O 0.81439 0.74857 0.73723 0.0
O847 O 0.78109 0.75167 0.77093 0.0
O848 O 0.82288 0.78427 0.82768 0.0
C849 C 0.83799 0.8006 0.85487 0.0
O850 O 0.81237 0.84993 0.82864 0.0
O851 O 0.78902 0.82234 0.78089 0.0
O852 O 0.82242 0.81781 0.7384 0.0
O853 O 0.85937 0.9001 0.84405 0.0
O854 O 0.90268 0.88877 0.83494 0.0
O855 O 0.86002 0.85813 0.76556 0.0
C856 C 0.79822 0.70583 0.75835 0.0
C857 C 0.82145 0.70986 0.78262 0.0
C858 C 0.79115 0.65027 0.75145 0.0
C859 C 0.82969 0.68447 0.79108 0.0
C860 C 0.78277 0.67598 0.74293 0.0
C861 C 0.81495 0.65462 0.7753 0.0
C862 C 0.792 0.73345 0.74915 0.0
C863 C 0.788 0.83995 0.80858 0.0
H864 H 0.91071 0.9105 0.78519 0.0
H865 H 0.86425 0.99973 0.82521 0.0
H866 H 0.89992 0.94325 0.74946 0.0
H867 H 0.87537 0.96729 0.86126 0.0
H868 H 0.83384 0.73275 0.79449 0.0
H869 H 0.77976 0.62718 0.73902 0.0
H870 H 0.84822 0.68809 0.80936 0.0
H871 H 0.76486 0.67263 0.72408 0.0
Eu872 Eu 0.60516 0.60589 0.55777 0.0
Eu873 Eu 0.57509 0.53709 0.53563 0.0
C874 C 0.61575 0.56926 0.48259 0.0
C875 C 0.61536 0.69117 0.58597 0.0
C876 C 0.62793 0.71918 0.5782 0.0
C877 C 0.56703 0.70638 0.5898 0.0
C878 C 0.60949 0.73958 0.57381 0.0
C879 C 0.58551 0.68594 0.5942 0.0
C880 C 0.5785 0.73191 0.57711 0.0
C881 C 0.62896 0.66467 0.57484 0.0
O882 O 0.62579 0.5344 0.53965 0.0
O883 O 0.6467 0.58425 0.564 0.0
C884 C 0.65022 0.55621 0.55083 0.0
O885 O 0.57991 0.59955 0.60333 0.0
O886 O 0.54846 0.49822 0.49995 0.0
O887 O 0.56291 0.49199 0.54664 0.0
O888 O 0.56095 0.54789 0.58875 0.0
C889 C 0.56301 0.57451 0.61014 0.0
O890 O 0.55467 0.60858 0.55317 0.0
O891 O 0.5339 0.5588 0.52836 0.0
O892 O 0.60125 0.54374 0.49064 0.0
O893 O 0.63019 0.64569 0.5937 0.0
O894 O 0.61893 0.65029 0.54565 0.0
O895 O 0.61596 0.59561 0.50363 0.0
C896 C 0.56401 0.45219 0.50392 0.0
C897 C 0.59261 0.45763 0.4926 0.0
C898 C 0.5709 0.40235 0.51107 0.0
C899 C 0.61114 0.43637 0.49276 0.0
C900 C 0.5524 0.42358 0.5109 0.0
C901 C 0.60102 0.40984 0.50438 0.0
C902 C 0.55112 0.4785 0.51767 0.0
C903 C 0.5304 0.58682 0.54145 0.0
H904 H 0.65084 0.72341 0.57158 0.0
H905 H 0.5431 0.70021 0.59237 0.0
H906 H 0.61858 0.75932 0.56409 0.0
H907 H 0.57542 0.66429 0.60006 0.0
H908 H 0.60198 0.47976 0.48734 0.0
H909 H 0.56289 0.38189 0.52009 0.0
H910 H 0.63442 0.44241 0.48768 0.0
H911 H 0.53047 0.4192 0.51986 0.0
Eu912 Eu 0.11282 0.56022 0.03183 0.0
Eu913 Eu 0.05826 0.58308 0.08546 0.0
C914 C 0.11081 0.56749 0.1102 0.0
C915 C 0.1832 0.52534 0.02296 0.0
C916 C 0.17321 0.49308 1.01286 0.0
C917 C 0.23143 0.51777 0.04368 0.0
C918 C 0.19248 0.47336 1.01775 0.0
C919 C 0.21234 0.53741 0.03864 0.0
C920 C 0.22175 0.48569 0.03305 0.0
C921 C 0.1642 0.54707 1.01722 0.0
O922 O 0.09464 0.62414 0.08113 0.0
O923 O 0.11618 0.61015 0.03369 0.0
C924 C 0.11076 0.63059 0.05783 0.0
O925 O 0.07445 0.56219 0.99813 0.0
O926 O 0.04105 0.61704 0.11922 0.0
O927 O 1.01044 0.57532 0.09311 0.0
O928 O 0.04791 0.58939 0.03542 0.0
C929 C 0.052 0.57625 1.00605 0.0
O930 O 0.08252 0.51595 0.0334 0.0
O931 O 0.04637 0.53066 0.06725 0.0
O932 O 0.08916 0.57576 0.12567 0.0
O933 O 0.13902 0.53608 0.99824 0.0
O934 O 0.16145 0.56808 0.0422 0.0
O935 O 0.10372 0.56514 0.08052 0.0
C936 C 0.99239 0.62118 0.10086 0.0
C937 C 1.00002 0.63804 0.07748 0.0
C938 C 0.944 0.63659 0.10191 0.0
C939 C 0.97976 0.65414 0.06645 0.0
C940 C 0.96432 0.6206 0.11304 0.0
C941 C 0.95153 0.6533 0.07843 0.0
C942 C 1.01289 0.60279 0.11113 0.0
C943 C 0.05799 0.51008 0.04794 0.0
H944 H 0.15076 0.48312 1.00086 0.0
H945 H 0.25403 0.52763 0.05534 0.0
H946 H 0.18482 0.44861 1.00917 0.0
H947 H 0.22052 0.56216 0.04668 0.0
H948 H 1.0215 0.63849 0.06756 0.0
H949 H 0.9223 0.63575 0.11139 0.0
H950 H 0.98592 0.66694 0.04835 0.0
H951 H 0.95799 0.6075 0.13085 0.0
C952 C 0.02638 0.2394 1.01571 0.0
C953 C 0.02701 0.27121 0.02605 0.0
C954 C 0.04761 0.27001 0.07927 0.0
C955 C 0.05317 0.24047 0.06667 0.0
N956 N 0.04977 0.19724 0.02193 0.0
N957 N 0.03858 0.31775 0.06781 0.0
C958 C 0.04247 0.22482 0.03482 0.0
C959 C 0.03695 0.28671 0.05816 0.0
N960 N 1.0107 0.22333 0.98739 0.0
N961 N 0.05332 0.28222 0.11119 0.0
H962 H 0.03102 0.33088 0.05321 0.0
H963 H 0.04916 0.3309 0.0897 0.0
H964 H 0.06147 0.27024 0.12685 0.0
H965 H 0.04738 0.30264 0.12234 0.0
H966 H 1.00729 0.19939 0.97982 0.0
H967 H 0.99847 0.2337 0.97311 0.0
H968 H 0.04637 0.18737 0.99766 0.0
H969 H 0.06111 0.18513 0.03492 0.0
C970 C 0.1963 0.84213 0.23051 0.0
C971 C 0.18825 0.81447 0.2066 0.0
C972 C 0.22157 0.79003 0.23455 0.0
C973 C 0.23023 0.81799 0.25798 0.0
N974 N 0.21995 0.86674 0.28379 0.0
N975 N 0.18659 0.75968 0.18983 0.0
C976 C 0.21571 0.8429 0.25766 0.0
C977 C 0.19852 0.78753 0.21007 0.0
N978 N 0.18559 0.86765 0.22709 0.0
N979 N 0.23667 0.76661 0.23446 0.0
H980 H 0.17056 0.75693 0.17069 0.0
H981 H 0.19073 0.73874 0.19346 0.0
H982 H 0.25313 0.76704 0.2524 0.0
H983 H 0.23428 0.74749 0.21565 0.0
H984 H 0.19353 0.88952 0.24168 0.0
H985 H 0.16951 0.86729 0.2087 0.0
H986 H 0.20828 0.88464 0.28628 0.0
H987 H 0.23312 0.86689 0.30444 0.0
C988 C 0.50886 0.93242 0.52922 0.0
C989 C 0.53064 0.91364 0.52581 0.0
C990 C 0.56763 0.95422 0.56202 0.0
C991 C 0.54814 0.97482 0.55943 0.0
N992 N 0.49603 0.97927 0.55849 0.0
N993 N 0.57696 0.90231 0.54547 0.0
C994 C 0.51722 0.9626 0.54882 0.0
C995 C 0.55876 0.92307 0.54481 0.0
N996 N 0.48104 0.92226 0.51241 0.0
N997 N 0.59424 0.96472 0.58107 0.0
H998 H 0.56993 0.87894 0.53442 0.0
H999 H 0.59861 0.9076 0.55719 0.0
H1000 H 0.59962 0.98689 0.59546 0.0
H1001 H 0.61008 0.95154 0.58427 0.0
H1002 H 0.46578 0.93652 0.51081 0.0
H1003 H 0.4737 0.89979 0.49893 0.0
H1004 H 0.47286 0.97076 0.55294 0.0
H1005 H 0.50154 0.99984 0.57579 0.0
C1006 C 0.56157 0.32689 0.68691 0.0
C1007 C 0.56001 0.30237 0.65994 0.0
C1008 C 0.50915 0.27837 0.6702 0.0
C1009 C 0.51203 0.30118 0.69881 0.0
N1010 N 0.54127 0.34572 0.73626 0.0
N1011 N 0.53351 0.25412 0.62604 0.0
C1012 C 0.53821 0.32525 0.70753 0.0
C1013 C 0.53407 0.27793 0.65157 0.0
N1014 N 0.58552 0.35163 0.69299 0.0
N1015 N 0.48235 0.25752 0.66067 0.0
H1016 H 0.55046 0.25405 0.61066 0.0
H1017 H 0.51704 0.23377 0.62076 0.0
H1018 H 0.46384 0.257 0.67402 0.0
H1019 H 0.47752 0.24215 0.63862 0.0
H1020 H 0.58626 0.37188 0.70989 0.0
H1021 H 0.60409 0.35296 0.6798 0.0
H1022 H 0.56122 0.36142 0.74598 0.0
H1023 H 0.52432 0.34581 0.75163 0.0
C1024 C 0.05951 0.83931 0.58153 0.0
C1025 C 0.05797 0.85264 0.61403 0.0
C1026 C 0.07445 0.90452 0.60422 0.0
C1027 C 0.07388 0.89131 0.57135 0.0
N1028 N 0.06145 0.84686 0.52762 0.0
N1029 N 0.05796 0.8977 0.65514 0.0
C1030 C 0.06502 0.85888 0.55965 0.0
C1031 C 0.06377 0.88522 0.62506 0.0
N1032 N 0.05727 0.80812 0.57185 0.0
N1033 N 0.08594 0.93542 0.61565 0.0
H1034 H 0.04957 0.88427 0.67091 0.0
H1035 H 0.05864 0.92117 0.66344 0.0
H1036 H 0.0936 0.95046 0.6011 0.0
H1037 H 0.09009 0.94576 0.63978 0.0
H1038 H 0.06152 0.79745 0.54928 0.0
H1039 H 0.0536 0.79302 0.58715 0.0
H1040 H 0.0518 0.8238 0.51742 0.0
H1041 H 0.06608 0.86047 0.511 0.0
C1042 C 0.57496 0.82254 0.81053 0.0
C1043 C 0.56933 0.81457 0.83998 0.0
C1044 C 0.51509 0.80782 0.82771 0.0
C1045 C 0.52084 0.8187 0.79954 0.0
N1046 N 0.55386 0.82746 0.75932 0.0
N1047 N 0.53507 0.78964 0.87184 0.0
C1048 C 0.55011 0.82277 0.7892 0.0
C1049 C 0.53964 0.80339 0.84669 0.0
N1050 N 0.6041 0.83119 0.80388 0.0
N1051 N 0.48679 0.80442 0.83783 0.0
H1052 H 0.55287 0.78685 0.88651 0.0
H1053 H 0.51394 0.77842 0.87631 0.0
H1054 H 0.46791 0.8072 0.82479 0.0
H1055 H 0.48218 0.80059 0.86016 0.0
H1056 H 0.6101 0.84062 0.78453 0.0
H1057 H 0.62254 0.8295 0.81851 0.0
H1058 H 0.57431 0.82871 0.74931 0.0
H1059 H 0.53561 0.82756 0.74351 0.0
C1060 C 0.5435 0.19513 0.10039 0.0
C1061 C 0.55896 0.20946 0.13083 0.0
C1062 C 0.58819 0.16881 0.12662 0.0
C1063 C 0.57081 0.15307 0.09751 0.0
N1064 N 0.52708 0.14762 0.06057 0.0
N1065 N 0.59091 0.20624 0.17613 0.0
C1066 C 0.54703 0.16516 0.08549 0.0
C1067 C 0.57988 0.19526 0.14491 0.0
N1068 N 0.52658 0.21063 0.08496 0.0
N1069 N 0.61334 0.15929 0.13625 0.0
H1070 H 0.58457 0.2249 0.19074 0.0
H1071 H 0.60385 0.19488 0.18843 0.0
H1072 H 0.62047 0.14023 0.12338 0.0
H1073 H 0.62867 0.17197 0.15547 0.0
H1074 H 0.5175 0.20246 0.06135 0.0
H1075 H 0.52405 0.23301 0.09456 0.0
H1076 H 0.50747 0.15403 0.05307 0.0
H1077 H 0.5284 0.12523 0.04951 0.0
C1078 C 0.21939 0.36314 0.34611 0.0
C1079 C 0.21235 0.3416 0.36576 0.0
C1080 C 0.24819 0.31245 0.34133 0.0
C1081 C 0.25814 0.33608 0.32484 0.0
N1082 N 0.25578 0.38569 0.31388 0.0
N1083 N 0.22431 0.29943 0.38675 0.0
C1084 C 0.24453 0.36204 0.32798 0.0
C1085 C 0.22785 0.31718 0.3646 0.0
N1086 N 0.20125 0.38355 0.34349 0.0
N1087 N 0.2581 0.28539 0.3348 0.0
H1088 H 0.21049 0.30298 0.4051 0.0
H1089 H 0.23748 0.28338 0.38905 0.0
H1090 H 0.2728 0.28084 0.31773 0.0
H1091 H 0.24933 0.26627 0.3439 0.0
H1092 H 0.20361 0.39759 0.3271 0.0
H1093 H 0.18202 0.3845 0.35552 0.0
H1094 H 0.24908 0.40681 0.31838 0.0
H1095 H 0.27316 0.38479 0.29906 0.0
C1096 C 0.03227 0.06192 0.19465 0.0
C1097 C 1.01024 0.08108 0.20114 0.0
C1098 C 1.02334 0.09697 0.149 0.0
C1099 C 0.04376 0.0761 0.14122 0.0
N1100 N 0.06417 0.0362 0.15811 0.0
N1101 N 0.98296 0.11384 0.17949 0.0
C1102 C 0.04693 0.05792 0.16459 0.0
C1103 C 1.0054 0.09752 0.17668 0.0
N1104 N 0.03973 0.04737 0.21772 0.0
N1105 N 1.02115 0.11725 0.13003 0.0
H1106 H 0.97088 0.11644 0.19937 0.0
H1107 H 0.97476 0.1229 0.1613 0.0
H1108 H 0.03175 0.11686 0.10928 0.0
H1109 H 1.01049 0.13579 0.13581 0.0
H1110 H 0.05783 0.03629 0.21745 0.0
H1111 H 0.02887 0.04808 0.23842 0.0
H1112 H 0.06487 1.01926 0.17099 0.0
H1113 H 0.07653 0.03395 0.13844 0.0
C1114 C 0.3159 0.70864 0.51754 0.0
C1115 C 0.33624 0.68968 0.50602 0.0
C1116 C 0.33233 0.70419 0.45476 0.0
C1117 C 0.31514 0.72602 0.46785 0.0
N1118 N 0.29582 0.75354 0.51367 0.0
N1119 N 0.36673 0.67161 0.46519 0.0
C1120 C 0.30846 0.72959 0.49984 0.0
C1121 C 0.34525 0.68794 0.47496 0.0
N1122 N 0.30243 0.70556 0.54459 0.0
N1123 N 0.33552 0.69837 0.42294 0.0
H1124 H 0.37648 0.65935 0.47944 0.0
H1125 H 0.37654 0.67215 0.44403 0.0
H1126 H 0.32621 0.70974 0.40742 0.0
H1127 H 0.34519 0.68053 0.41149 0.0
H1128 H 0.28519 0.71672 0.55218 0.0
H1129 H 0.30587 0.68924 0.55751 0.0
H1130 H 0.29353 0.75902 0.53793 0.0
H1131 H 0.29033 0.76979 0.50163 0.0
C1132 C 0.69336 0.09558 0.65858 0.0
C1133 C 0.6923 0.06892 0.67139 0.0
C1134 C 0.64017 0.04819 0.64764 0.0
C1135 C 0.64275 0.07249 0.63119 0.0
N1136 N 0.6696 0.12119 0.62303 0.0
N1137 N 0.66606 1.01892 0.67706 0.0
C1138 C 0.66872 0.09687 0.63747 0.0
C1139 C 0.66606 0.04496 0.66566 0.0
N1140 N 0.71788 0.11967 0.66683 0.0
N1141 N 0.61283 0.02886 0.64697 0.0
H1142 H 0.68436 1.01613 0.69111 0.0
H1143 H 0.64894 0.99912 0.67063 0.0
H1144 H 0.59323 0.03073 0.63448 0.0
H1145 H 0.60884 1.01271 0.66108 0.0
H1146 H 0.71885 0.14121 0.66153 0.0
H1147 H 0.73732 0.1186 0.68022 0.0
H1148 H 0.68883 0.13809 0.62326 0.0
H1149 H 0.65064 0.12431 0.61026 0.0
C1150 C 0.37236 0.33801 0.94788 0.0
C1151 C 0.35741 0.36081 0.96374 0.0
C1152 C 0.33576 0.36536 0.91179 0.0
C1153 C 0.34845 0.34069 0.89586 0.0
N1154 N 0.37348 0.29901 0.90015 0.0
N1155 N 0.31742 0.38864 0.96048 0.0
C1156 C 0.36525 0.3257 0.91433 0.0
C1157 C 0.33685 0.37216 0.94556 0.0
N1158 N 0.39424 0.32895 0.96444 0.0
N1159 N 0.3241 0.38365 0.89498 0.0
H1160 H 0.31621 0.3925 0.98496 0.0
H1161 H 0.30011 0.39509 0.94826 0.0
H1162 H 0.32452 0.38108 0.8705 0.0
H1163 H 0.31726 0.40369 0.90584 0.0
H1164 H 0.40825 0.31505 0.95356 0.0
H1165 H 0.40008 0.33737 0.98878 0.0
H1166 H 0.38313 0.28545 0.91283 0.0
H1167 H 0.36785 0.28875 0.87608 0.0
C1168 C 0.0417 0.10141 0.39959 0.0
C1169 C 1.01033 0.08727 0.38905 0.0
C1170 C 1.01026 0.06902 0.44139 0.0
C1171 C 0.04213 0.08068 0.45029 0.0
N1172 N 0.08849 0.10403 0.43265 0.0
N1173 N 0.96774 0.05095 0.39991 0.0
C1174 C 0.05773 0.09556 0.42767 0.0
C1175 C 0.99555 0.06951 0.41025 0.0
N1176 N 0.05631 0.12218 0.38378 0.0
N1177 N 0.99347 0.0571 0.4629 0.0
H1178 H 0.9568 0.04886 0.37751 0.0
H1179 H 0.95699 0.03487 0.41196 0.0
H1180 H 1.00315 0.05477 0.48449 0.0
H1181 H 0.96992 0.05179 0.46045 0.0
H1182 H 0.07766 0.136 0.39175 0.0
H1183 H 0.04583 0.12813 0.36459 0.0
H1184 H 0.102 0.11167 0.41596 0.0
H1185 H 0.10064 0.10073 0.45241 0.0
C1186 C 0.32267 0.70679 0.67134 0.0
C1187 C 0.34978 0.70923 0.65615 0.0
C1188 C 0.36739 0.76241 0.68901 0.0
C1189 C 0.33948 0.76044 0.7033 0.0
N1190 N 0.28739 0.73394 0.69923 0.0
N1191 N 0.39663 0.74081 0.64784 0.0
C1192 C 0.3163 0.73343 0.69194 0.0
C1193 C 0.37162 0.73753 0.66419 0.0
N1194 N 0.30271 0.67901 0.66613 0.0
N1195 N 0.39059 0.78739 0.6996 0.0
H1196 H 0.40237 0.72245 0.63216 0.0
H1197 H 0.41099 0.76199 0.64861 0.0
H1198 H 0.38839 0.80777 0.71446 0.0
H1199 H 0.41279 0.78762 0.69441 0.0
H1200 H 0.28423 0.675 0.67913 0.0
H1201 H 0.30599 0.65913 0.65085 0.0
H1202 H 0.26887 0.71626 0.68932 0.0
H1203 H 0.28133 0.75373 0.71195 0.0
C1204 C 0.71201 0.10541 0.83068 0.0
C1205 C 0.71764 0.07562 0.8181 0.0
C1206 C 0.68298 0.05331 0.85276 0.0
C1207 C 0.67914 0.08343 0.86671 0.0
N1208 N 0.69517 0.13872 0.87439 0.0
N1209 N 0.71299 1.02222 0.82072 0.0
C1210 C 0.69537 0.10968 0.85742 0.0
C1211 C 0.7044 0.04979 0.83017 0.0
N1212 N 0.7207 0.12923 0.81589 0.0
N1213 N 0.66555 0.02811 0.86045 0.0
H1214 H 0.72892 1.01904 0.80449 0.0
H1215 H 0.70642 1.00337 0.83096 0.0
H1216 H 0.65 0.02988 0.87731 0.0
H1217 H 0.66491 1.00544 0.84858 0.0
H1218 H 0.71425 0.1504 0.82215 0.0
H1219 H 0.73163 0.12704 0.79525 0.0
H1220 H 0.70933 0.15858 0.87083 0.0
H1221 H 0.68295 0.14281 0.89403 0.0
C1222 C 0.38183 0.36591 0.16555 0.0
C1223 C 0.35774 0.37141 0.14656 0.0
C1224 C 0.32351 0.36065 0.18749 0.0
C1225 C 0.34701 0.35271 0.20517 0.0
N1226 N 0.39671 0.34096 0.20662 0.0
N1227 N 0.30409 0.36743 0.13648 0.0
C1228 C 0.37569 0.35351 0.19297 0.0
C1229 C 0.32814 0.36699 0.15677 0.0
N1230 N 0.41087 0.37362 0.1582 0.0
N1231 N 0.29703 0.36316 0.20043 0.0
H1232 H 0.30639 0.37041 0.11339 0.0
H1233 H 0.28168 0.36153 0.14118 0.0
H1234 H 0.29294 0.35903 0.22283 0.0
H1235 H 0.28029 0.37208 0.19031 0.0
H1236 H 0.42966 0.37346 0.17313 0.0
H1237 H 0.4164 0.38286 0.13857 0.0
H1238 H 0.41677 0.33794 0.197 0.0
H1239 H 0.39264 0.33051 0.2257 0.0
C1240 C 0.21961 1.01709 0.05486 0.0
C1241 C 0.23899 0.03027 0.03381 0.0
C1242 C 0.19997 0.06092 0.02469 0.0
C1243 C 0.17992 0.0468 0.04469 0.0
N1244 N 0.1746 1.01607 0.08384 0.0
N1245 N 0.24445 0.06156 0.99505 0.0
C1246 C 0.19079 0.0258 0.06074 0.0
C1247 C 0.22836 0.05162 1.01815 0.0
N1248 N 0.22877 0.99586 0.06941 0.0
N1249 N 0.19232 0.08406 1.01222 0.0
H1250 H 0.26491 0.05553 0.98955 0.0
H1251 H 0.23649 0.07354 0.97939 0.0
H1252 H 0.17167 0.09053 1.01458 0.0
H1253 H 0.20719 0.0985 1.00152 0.0
H1254 H 0.21467 0.98157 0.08094 0.0
H1255 H 0.25058 0.9917 0.06906 0.0
H1256 H 0.18228 1.00401 0.09955 0.0
H1257 H 0.15416 1.0223 0.08916 0.0
C1258 C 0.72401 0.64837 0.03975 0.0
C1259 C 0.72406 0.66884 1.01876 0.0
C1260 C 0.66993 0.64631 1.00212 0.0
C1261 C 0.67058 0.62464 0.02164 0.0
N1262 N 0.69944 0.6014 0.05463 0.0
N1263 N 0.69833 0.68459 0.97671 0.0
C1264 C 0.69807 0.62448 0.03891 0.0
C1265 C 0.69729 0.66712 0.99908 0.0
N1266 N 0.74806 0.65295 0.06205 0.0
N1267 N 0.64305 0.6471 0.98667 0.0
H1268 H 0.71789 0.69989 0.97386 0.0
H1269 H 0.68064 0.68238 0.95941 0.0
H1270 H 0.62311 0.6311 0.9869 0.0
H1271 H 0.64008 0.66431 0.97486 0.0
H1272 H 0.748 0.64111 0.0803 0.0
H1273 H 0.76705 0.67078 0.06449 0.0
H1274 H 0.71954 0.59791 0.0647 0.0
H1275 H 0.6808 0.58399 0.05521 0.0
C1276 C 0.7859 0.4624 0.31436 0.0
C1277 C 0.76149 0.46363 0.29162 0.0
C1278 C 0.76574 0.4066 0.26765 0.0
C1279 C 0.791 0.40615 0.28966 0.0
N1280 N 0.82698 0.43903 0.33162 0.0
N1281 N 0.72807 0.43238 0.24653 0.0
C1282 C 0.80135 0.43573 0.31203 0.0
C1283 C 0.7516 0.43423 0.26845 0.0
N1284 N 0.79329 0.48617 0.34054 0.0
N1285 N 0.75621 0.38064 0.24404 0.0
H1286 H 0.71952 0.45151 0.24376 0.0
H1287 H 0.71637 0.41212 0.23128 0.0
H1288 H 0.76543 0.36106 0.24268 0.0
H1289 H 0.74052 0.37849 0.22484 0.0
H1290 H 0.80721 0.48575 0.36035 0.0
H1291 H 0.78281 0.50496 0.34422 0.0
H1292 H 0.83895 0.46022 0.34512 0.0
H1293 H 0.83765 0.42082 0.33269 0.0
C1294 C 0.94066 0.52784 0.49985 0.0
C1295 C 0.92453 0.54055 0.52509 0.0
C1296 C 0.97451 0.56824 0.55489 0.0
C1297 C 0.99061 0.55319 0.53105 0.0
N1298 N 0.9878 0.51457 0.48279 0.0
N1299 N 0.92711 0.57093 0.57833 0.0
C1300 C 0.97327 0.53215 0.50391 0.0
C1301 C 0.94187 0.56007 0.55308 0.0
N1302 N 0.92482 0.51116 0.47182 0.0
N1303 N 0.99033 0.59169 0.57869 0.0
H1304 H 0.90363 0.56784 0.57725 0.0
H1305 H 0.938 0.58156 0.60086 0.0
H1306 H 1.01378 0.59877 0.58066 0.0
H1307 H 0.98018 0.60611 0.59475 0.0
H1308 H 0.93494 0.50443 0.45122 0.0
H1309 H 0.90129 0.50585 0.46831 0.0
H1310 H 0.97665 0.49628 0.46458 0.0
H1311 H 1.01112 0.51626 0.48519 0.0
C1312 C 0.34867 0.09855 0.3138 0.0
C1313 C 0.37755 0.09578 0.30395 0.0
C1314 C 0.37258 0.12774 0.26559 0.0
C1315 C 0.34492 0.1326 0.27727 0.0
N1316 N 0.30706 0.12515 0.31353 0.0
N1317 N 0.41905 0.11017 0.27365 0.0
C1318 C 0.33287 0.11842 0.30145 0.0
C1319 C 0.39013 0.11106 0.28071 0.0
N1320 N 0.33658 0.08242 0.33523 0.0
N1321 N 0.38175 0.13886 0.23979 0.0
H1322 H 0.43249 0.09778 0.28389 0.0
H1323 H 0.43067 0.12344 0.2594 0.0
H1324 H 0.36933 0.15131 0.22829 0.0
H1325 H 0.40016 0.13364 0.22805 0.0
H1326 H 0.31419 0.08016 0.34036 0.0
H1327 H 0.34875 0.07016 0.34724 0.0
H1328 H 0.29898 0.11871 0.33375 0.0
H1329 H 0.29427 0.13865 0.30413 0.0
C1330 C 0.37697 0.17146 0.55759 0.0
C1331 C 0.38263 0.19432 0.53925 0.0
C1332 C 0.4365 0.19259 0.54285 0.0
C1333 C 0.43006 0.16748 0.55813 0.0
N1334 N 0.39323 0.12882 0.57423 0.0
N1335 N 0.41681 0.2233 0.51008 0.0
C1336 C 0.4 0.15565 0.56374 0.0
C1337 C 0.41218 0.20407 0.53072 0.0
N1338 N 0.35022 0.16599 0.57076 0.0
N1339 N 0.46585 0.20597 0.54067 0.0
H1340 H 0.39947 0.23174 0.50031 0.0
H1341 H 0.4372 0.22868 0.50043 0.0
H1342 H 0.48417 0.19805 0.54918 0.0
H1343 H 0.4721 0.22638 0.53286 0.0
H1344 H 0.34631 0.15194 0.58704 0.0
H1345 H 0.33309 0.17796 0.56832 0.0
H1346 H 0.37114 0.11735 0.57529 0.0
H1347 H 0.40943 0.11643 0.57904 0.0
C1348 C 0.74965 0.67196 0.28322 0.0
C1349 C 0.76419 0.65347 0.30022 0.0
C1350 C 0.80566 0.70246 0.31856 0.0
C1351 C 0.79232 0.72023 0.29955 0.0
N1352 N 0.75296 0.71624 0.25818 0.0
N1353 N 0.80977 0.65275 0.33103 0.0
C1354 C 0.76454 0.70331 0.28071 0.0
C1355 C 0.79334 0.66931 0.31665 0.0
N1356 N 0.72117 0.65947 0.26858 0.0
N1357 N 0.82942 0.71771 0.3405 0.0
H1358 H 0.8013 0.63001 0.33251 0.0
H1359 H 0.83249 0.66078 0.33954 0.0
H1360 H 0.83833 0.74124 0.34373 0.0
H1361 H 0.83821 0.70796 0.35778 0.0
H1362 H 0.70721 0.67248 0.26021 0.0
H1363 H 0.7107 0.63639 0.26628 0.0
H1364 H 0.73533 0.70442 0.24092 0.0
H1365 H 0.76309 0.73767 0.25433 0.0
C1366 C 0.86698 0.46078 0.88505 0.0
C1367 C 0.86198 0.4812 0.8657 0.0
C1368 C 0.82476 0.4406 0.83004 0.0
C1369 C 0.83191 0.41934 0.84768 0.0
N1370 N 0.8553 0.41044 0.89588 0.0
N1371 N 0.82956 0.49438 0.8272 0.0
C1372 C 0.85086 0.42987 0.87669 0.0
C1373 C 0.83828 0.47237 0.84086 0.0
N1374 N 0.88799 0.47057 0.91086 0.0
N1375 N 0.80713 0.43009 0.80172 0.0
H1376 H 0.83931 0.51784 0.83519 0.0
H1377 H 0.81095 0.48986 0.8104 0.0
H1378 H 0.79723 0.40682 0.79311 0.0
H1379 H 0.80385 0.44395 0.78593 0.0
H1380 H 0.89287 0.45585 0.92521 0.0
H1381 H 0.89993 0.49347 0.91788 0.0
H1382 H 0.84418 0.38726 0.89146 0.0
H1383 H 0.84418 0.38726 0.89146 0.0
C1384 C 0.14923 0.86422 0.03257 0.0
C1385 C 0.14885 0.87553 0.06562 0.0
C1386 C 0.13299 0.92149 0.05575 0.0
C1387 C 0.12668 0.9066 0.02306 0.0
N1388 N 0.13138 0.86621 0.97909 0.0
N1389 N 0.14292 0.91585 0.10963 0.0
C1390 C 0.1363 0.87898 1.01094 0.0
C1391 C 0.14249 0.90498 0.07758 0.0
N1392 N 0.1614 0.83899 0.0223 0.0
N1393 N 0.12851 0.95084 0.06592 0.0
H1394 H 0.15111 0.90529 0.12652 0.0
H1395 H 0.13411 0.93476 0.11983 0.0
H1396 H 0.12129 0.96359 0.05062 0.0
H1397 H 0.13408 0.96366 0.08912 0.0
H1398 H 0.16412 0.83039 0.99861 0.0
H1399 H 0.17116 0.82823 0.03817 0.0
H1400 H 0.13481 0.84437 0.96883 0.0
H1401 H 0.12293 0.87751 0.96292 0.0
C1402 C 0.93934 0.29349 0.87018 0.0
C1403 C 0.95197 0.31975 0.89474 0.0
C1404 C 0.91727 0.34863 0.87556 0.0
C1405 C 0.90209 0.32134 0.85383 0.0
N1406 N 0.89587 0.26648 0.83286 0.0
N1407 N 0.94806 0.36989 0.92533 0.0
C1408 C 0.91238 0.29335 0.85164 0.0
C1409 C 0.93969 0.34674 0.89864 0.0
N1410 N 0.95359 0.26922 0.86383 0.0
N1411 N 0.91073 0.37651 0.87369 0.0
H1412 H 0.96289 0.36863 0.94403 0.0
H1413 H 0.93759 0.38865 0.93061 0.0
H1414 H 0.8949 0.37886 0.8564 0.0
H1415 H 0.92324 0.39754 0.88704 0.0
H1416 H 0.94707 0.25089 0.84412 0.0
H1417 H 0.97361 0.2687 0.87663 0.0
H1418 H 0.90047 0.24483 0.83304 0.0
H1419 H 0.87609 0.26552 0.81885 0.0
C1420 C 0.65966 0.19666 0.56939 0.0
C1421 C 0.63958 0.21469 0.56053 0.0
C1422 C 0.60766 0.16903 0.52547 0.0
C1423 C 0.62595 0.15092 0.53695 0.0
N1424 N 0.67438 0.14695 0.55872 0.0
N1425 N 0.60142 0.2205 0.5225 0.0
C1426 C 0.65393 0.16474 0.55491 0.0
C1427 C 0.61591 0.20163 0.53578 0.0
N1428 N 0.68236 0.20915 0.59341 0.0
N1429 N 0.58164 0.15487 0.50631 0.0
H1430 H 0.60769 0.24457 0.5294 0.0
H1431 H 0.58533 0.21256 0.50289 0.0
H1432 H 0.57622 0.13102 0.49721 0.0
H1433 H 0.56525 0.16647 0.5002 0.0
H1434 H 0.69516 0.19601 0.6033 0.0
H1435 H 0.68734 0.2324 0.60497 0.0
H1436 H 0.69636 0.15599 0.56941 0.0
H1437 H 0.66998 0.12333 0.54831 0.0
C1438 C 0.62335 0.82438 0.41598 0.0
C1439 C 0.59387 0.81875 0.40018 0.0
C1440 C 0.61453 0.80928 0.34871 0.0
C1441 C 0.64415 0.81973 0.36458 0.0
N1442 N 0.6771 0.84047 0.4133 0.0
N1443 N 0.56111 0.80843 0.35147 0.0
C1444 C 0.64871 0.82793 0.39825 0.0
C1445 C 0.58925 0.81147 0.36648 0.0
N1446 N 0.62702 0.8256 0.44786 0.0
N1447 N 0.61065 0.79704 0.31672 0.0
H1448 H 0.542 0.81 0.36355 0.0
H1449 H 0.55704 0.8067 0.32714 0.0
H1450 H 0.62877 0.79519 0.30307 0.0
H1451 H 0.58969 0.78622 0.30428 0.0
H1452 H 0.64777 0.82663 0.46012 0.0
H1453 H 0.60884 0.82233 0.46147 0.0
H1454 H 0.68127 0.85023 0.43757 0.0
H1455 H 0.6964 0.84342 0.40125 0.0
C1456 C 0.1191 0.25793 0.47165 0.0
C1457 C 0.12683 0.29041 0.48323 0.0
C1458 C 0.11996 0.28385 0.53747 0.0
C1459 C 0.10876 0.25176 0.52519 0.0
N1460 N 0.09396 0.20839 0.4803 0.0
N1461 N 0.13158 0.33504 0.52636 0.0
C1462 C 0.10734 0.23881 0.49218 0.0
C1463 C 0.12675 0.30365 0.51601 0.0
N1464 N 0.12399 0.24532 0.44126 0.0
N1465 N 0.12435 0.29528 0.5696 0.0
H1466 H 0.13667 0.35032 0.51142 0.0
H1467 H 0.12841 0.34595 0.54924 0.0
H1468 H 0.11875 0.28152 0.58591 0.0
H1469 H 0.13552 0.31781 0.58014 0.0
H1470 H 0.1218 0.22167 0.43246 0.0
H1471 H 0.13321 0.25867 0.42575 0.0
H1472 H 0.08917 0.19855 0.4561 0.0
H1473 H 0.08559 0.19335 0.49459 0.0
C1474 C 0.63477 0.34756 0.25979 0.0
C1475 C 0.60574 0.32984 0.26101 0.0
C1476 C 0.62352 0.31455 0.30848 0.0
C1477 C 0.65342 0.32517 0.30191 0.0
N1478 N 0.68854 0.35605 0.2753 0.0
N1479 N 0.57001 0.30238 0.28956 0.0
C1480 C 0.65936 0.34401 0.27951 0.0
C1481 C 0.59923 0.31581 0.28693 0.0
N1482 N 0.63874 0.36661 0.23894 0.0
N1483 N 0.6189 0.30214 0.33448 0.0
H1484 H 0.55199 0.3045 0.2746 0.0
H1485 H 0.56353 0.28928 0.30612 0.0
H1486 H 0.63694 0.30138 0.35022 0.0
H1487 H 0.59773 0.29468 0.34168 0.0
H1488 H 0.65895 0.38183 0.23812 0.0
H1489 H 0.62079 0.36909 0.2242 0.0
H1490 H 0.69465 0.3667 0.2568 0.0
H1491 H 0.70697 0.35471 0.29008 0.0
C1492 C 0.60167 0.93045 0.9817 0.0
C1493 C 0.62413 0.93257 0.96015 0.0
C1494 C 0.62578 0.98796 0.96646 0.0
C1495 C 0.60582 0.98642 0.99058 0.0
N1496 N 0.57578 0.95702 0.02273 0.0
N1497 N 0.66026 0.96324 0.93439 0.0
C1498 C 0.59418 0.9579 0.99875 0.0
C1499 C 0.63678 0.96127 0.95297 0.0
N1500 N 0.58621 0.90209 0.98449 0.0
N1501 N 0.63425 1.01488 0.9565 0.0
H1502 H 0.66905 0.94417 0.92436 0.0
H1503 H 0.67272 0.98403 0.93102 0.0
H1504 H 0.62798 0.03536 0.96685 0.0
H1505 H 0.64589 1.01655 0.93662 0.0
H1506 H 0.56731 0.89894 0.99702 0.0
H1507 H 0.59044 0.88128 0.97198 0.0
H1508 H 0.57007 0.93795 0.03285 0.0
H1509 H 0.56723 0.97594 0.03366 0.0
C1510 C 0.94832 0.76647 0.73303 0.0
C1511 C 0.97098 0.79278 0.73237 0.0
C1512 C 0.9448 0.82579 0.76791 0.0
C1513 C 0.92274 0.79941 0.77017 0.0
N1514 N 0.9081 0.74392 0.76131 0.0
N1515 N 0.99626 0.84481 0.75848 0.0
C1516 C 0.92604 0.76944 0.75481 0.0
C1517 C 0.97104 0.82154 0.75291 0.0
N1518 N 0.94712 0.73911 0.71196 0.0
N1519 N 0.93974 0.85498 0.77714 0.0
H1520 H 1.01646 0.84228 0.74884 0.0
H1521 H 0.99812 0.86523 0.77559 0.0
H1522 H 0.91951 0.85955 0.78492 0.0
H1523 H 0.95405 0.87444 0.77287 0.0
H1524 H 0.92922 0.72012 0.70917 0.0
H1525 H 0.96275 0.73615 0.69537 0.0
H1526 H 0.91114 0.72151 0.7529 0.0
H1527 H 0.8922 0.74547 0.77782 0.0
C1528 C 0.1712 0.08812 0.91382 0.0
C1529 C 0.16398 0.06085 0.88822 0.0
C1530 C 0.12225 0.04157 0.92167 0.0
C1531 C 0.13059 0.06778 0.94857 0.0
N1532 N 0.16162 0.11965 0.96406 0.0
N1533 N 0.13512 1.00863 0.87393 0.0
C1534 C 0.15484 0.0918 0.94277 0.0
C1535 C 0.14008 0.03705 0.89406 0.0
N1536 N 0.19479 0.11104 0.91105 0.0
N1537 N 0.09519 1.02165 0.92063 0.0
H1538 H 0.1473 1.00379 0.85444 0.0
H1539 H 0.12141 0.98902 0.87855 0.0
H1540 H 0.0799 0.02516 0.93741 0.0
H1541 H 0.08579 1.00424 0.90082 0.0
H1542 H 0.206 0.12848 0.93001 0.0
H1543 H 0.20435 0.11197 0.88984 0.0
H1544 H 0.17422 0.13975 0.95936 0.0
H1545 H 0.1534 0.12387 0.98604 0.0
C1546 C 0.82297 0.46634 0.62302 0.0
C1547 C 0.83444 0.45885 0.59315 0.0
C1548 C 0.85292 0.41632 0.60898 0.0
C1549 C 0.84423 0.42564 0.63989 0.0
N1550 N 0.82551 0.4626 0.67824 0.0
N1551 N 0.86738 0.43212 0.56102 0.0
C1552 C 0.83052 0.45157 0.64751 0.0
C1553 C 0.85139 0.43534 0.58701 0.0
N1554 N 0.80401 0.4866 0.62762 0.0
N1555 N 0.86178 0.3888 0.60022 0.0
H1556 H 0.86838 0.44665 0.5451 0.0
H1557 H 0.88244 0.41731 0.55725 0.0
H1558 H 0.86274 0.3738 0.61544 0.0
H1559 H 0.86525 0.37945 0.5769 0.0
H1560 H 0.79238 0.49039 0.6477 0.0
H1561 H 0.79784 0.49771 0.61018 0.0
H1562 H 0.8185 0.4833 0.68578 0.0
H1563 H 0.83085 0.45242 0.69679 0.0
C1564 C 0.47507 0.04919 0.44312 0.0
C1565 C 0.48634 0.05136 0.41353 0.0
C1566 C 0.53833 0.06039 0.43771 0.0
C1567 C 0.52693 0.05555 0.46657 0.0
N1568 N 0.48481 0.04022 0.4957 0.0
N1569 N 0.52788 0.05567 0.38106 0.0
C1570 C 0.49538 0.04872 0.46909 0.0
C1571 C 0.51776 0.05589 0.41032 0.0
N1572 N 0.44497 0.0475 0.44639 0.0
N1573 N 0.56868 0.07058 0.43686 0.0
H1574 H 0.51361 0.05416 0.36074 0.0
H1575 H 0.55011 0.05514 0.37647 0.0
H1576 H 0.58446 0.07417 0.45646 0.0
H1577 H 0.57808 0.07784 0.41755 0.0
H1578 H 0.43604 0.04962 0.46823 0.0
H1579 H 0.42901 0.0462 0.42757 0.0
H1580 H 0.46209 0.0317 0.49761 0.0
H1581 H 0.49897 0.03903 0.51506 0.0
C1582 C 0.84288 0.7979 0.13922 0.0
C1583 C 0.81475 0.77923 0.12393 0.0
C1584 C 0.79605 0.77937 0.1765 0.0
C1585 C 0.82336 0.79971 0.19176 0.0
N1586 N 0.87017 0.83347 0.18675 0.0
N1587 N 0.7623 0.75861 0.12799 0.0
C1588 C 0.84602 0.81047 0.17282 0.0
C1589 C 0.79069 0.77197 0.14263 0.0
N1590 N 0.86716 0.80241 0.12209 0.0
N1591 N 0.77579 0.76559 0.19418 0.0
H1592 H 0.75732 0.75354 0.10336 0.0
H1593 H 0.74319 0.7556 0.14027 0.0
H1594 H 0.77897 0.7696 0.21885 0.0
H1595 H 0.75729 0.74788 0.18425 0.0
H1596 H 0.88907 0.81247 0.1325 0.0
H1597 H 0.866 0.79385 0.09765 0.0
H1598 H 0.8859 0.8445 0.17392 0.0
H1599 H 0.87289 0.84364 0.21099 0.0
C1600 C 0.17578 0.04442 0.67027 0.0
C1601 C 0.16428 0.05223 0.70071 0.0
C1602 C 0.11989 0.06308 0.66882 0.0
C1603 C 0.13329 0.05909 0.63915 0.0
N1604 N 0.17911 0.05149 0.61586 0.0
N1605 N 0.12626 0.07583 0.72695 0.0
C1606 C 0.16259 0.05119 0.64127 0.0
C1607 C 0.13652 0.06332 0.69918 0.0
N1608 N 0.19883 0.02889 0.66824 0.0
N1609 N 0.09025 0.06524 0.66821 0.0
H1610 H 0.13754 0.07779 0.74916 0.0
H1611 H 0.10845 0.0874 0.72784 0.0
H1612 H 0.07702 0.06389 0.64726 0.0
H1613 H 0.07793 0.06472 0.68781 0.0
H1614 H 0.20619 1.01944 0.64671 0.0
H1615 H 0.20817 1.02222 0.68759 0.0
H1616 H 0.20168 0.04961 0.61669 0.0
H1617 H 0.17144 0.05711 0.59512 0.0
C1618 C 0.85823 0.42124 0.43445 0.0
C1619 C 0.83187 0.43411 0.43515 0.0
C1620 C 0.8095 0.3954 0.38633 0.0
C1621 C 0.83659 0.38367 0.38435 0.0
N1622 N 0.88809 0.38788 0.40476 0.0
N1623 N 0.78453 0.43674 0.40894 0.0
C1624 C 0.86135 0.3974 0.40793 0.0
C1625 C 0.80821 0.42219 0.41018 0.0
N1626 N 0.88033 0.43169 0.45935 0.0
N1627 N 0.78462 0.38064 0.36565 0.0
H1628 H 0.78213 0.45549 0.42652 0.0
H1629 H 0.76855 0.43193 0.38934 0.0
H1630 H 0.78456 0.36144 0.3477 0.0
H1631 H 0.76328 0.38569 0.36782 0.0
H1632 H 0.89828 0.42099 0.46251 0.0
H1633 H 0.88002 0.45039 0.47798 0.0
H1634 H 0.9082 0.39924 0.41861 0.0
H1635 H 0.89062 0.36933 0.38697 0.0
C1636 C 0.47136 0.98257 0.2446 0.0
C1637 C 0.4554 1.00682 0.2511 0.0
C1638 C 0.46119 1.01539 0.1976 0.0
C1639 C 0.48406 0.99794 0.19548 0.0
N1640 N 0.48696 0.94708 0.20213 0.0
N1641 N 0.42892 0.04169 0.23135 0.0
C1642 C 0.48248 0.9759 0.21457 0.0
C1643 C 0.4481 1.02167 0.22668 0.0
N1644 N 0.47691 0.96668 0.26715 0.0
N1645 N 0.45014 1.02295 0.17095 0.0
H1646 H 0.41679 0.04448 0.25119 0.0
H1647 H 0.4256 0.05596 0.216 0.0
H1648 H 0.45715 1.01475 0.14874 0.0
H1649 H 0.43249 0.03454 0.17026 0.0
H1650 H 0.491 0.95082 0.26403 0.0
H1651 H 0.46909 0.97082 0.28956 0.0
H1652 H 0.4835 0.92922 0.21427 0.0
H1653 H 0.48987 0.94028 0.17807 0.0
C1654 C 0.85112 0.77362 0.93283 0.0
C1655 C 0.82129 0.76783 0.94241 0.0
C1656 C 0.80319 0.78627 0.89627 0.0
C1657 C 0.83234 0.7891 0.88498 0.0
N1658 N 0.88307 0.78085 0.8904 0.0
N1659 N 0.76796 0.76365 0.9296 0.0
C1660 C 0.85604 0.78152 0.90275 0.0
C1661 C 0.79709 0.77291 0.92317 0.0
N1662 N 0.87508 0.77296 0.95314 0.0
N1663 N 0.78146 0.79757 0.8821 0.0
H1664 H 0.76241 0.75343 0.94861 0.0
H1665 H 0.74921 0.76344 0.91442 0.0
H1666 H 0.7849 0.80749 0.86255 0.0
H1667 H 0.76118 0.79983 0.8916 0.0
H1668 H 0.89754 0.78011 0.94915 0.0
H1669 H 0.87266 0.76815 0.97555 0.0
H1670 H 0.90014 0.77218 0.90028 0.0
H1671 H 0.88747 0.78644 0.86863 0.0
C1672 C 0.94892 0.09072 0.07273 0.0
C1673 C 0.93723 0.11052 0.05568 0.0
C1674 C 0.98553 0.1157 0.02927 0.0
C1675 C 0.99621 0.09414 0.04463 0.0
N1676 N 0.98346 0.05637 0.07659 0.0
N1677 N 0.94287 0.13607 1.01198 0.0
C1678 C 0.97636 0.08013 0.06478 0.0
C1679 C 0.95529 0.1215 0.0325 0.0
N1680 N 0.93489 0.08332 0.0981 0.0
N1681 N 1.00419 0.13057 1.01101 0.0
H1682 H 0.92075 0.13938 1.01224 0.0
H1683 H 0.95312 0.14189 0.99247 0.0
H1684 H 0.02525 0.12563 1.00633 0.0
H1685 H 0.99951 0.14895 1.00198 0.0
H1686 H 0.94413 0.07237 0.11404 0.0
H1687 H 0.91554 0.09092 0.10525 0.0
H1688 H 0.96856 0.04286 0.0882 0.0
H1689 H 1.00317 0.04833 0.07252 0.0
C1690 C 0.47547 0.4809 0.09514 0.0
C1691 C 0.45428 0.46786 0.06797 0.0
C1692 C 0.48398 0.5018 0.03803 0.0
C1693 C 0.50652 0.51301 0.06425 0.0
N1694 N 0.52599 0.51024 0.11631 0.0
N1695 N 0.44066 0.4622 1.01203 0.0
C1696 C 0.50282 0.50187 0.09253 0.0
C1697 C 0.45919 0.47733 0.03901 0.0
N1698 N 0.46919 0.47362 0.12355 0.0
N1699 N 0.48586 0.5152 1.01239 0.0
H1700 H 0.42225 0.44426 1.01173 0.0
H1701 H 0.44501 0.46548 0.98944 0.0
H1702 H 0.50363 0.53314 1.01079 0.0
H1703 H 0.46859 0.51057 0.99404 0.0
H1704 H 0.48195 0.48477 0.14503 0.0
H1705 H 0.4499 0.4577 0.12595 0.0
H1706 H 0.5262 0.50047 0.13609 0.0
H1707 H 0.54613 0.52551 0.11512 0.0
C1708 C 0.42314 0.70065 0.78145 0.0
C1709 C 0.41321 0.67605 0.79795 0.0
C1710 C 0.37568 0.71072 0.81935 0.0
C1711 C 0.38359 0.73378 0.80041 0.0
N1712 N 0.41225 0.74224 0.75665 0.0
N1713 N 0.37454 0.65892 0.82999 0.0
C1714 C 0.40686 0.72627 0.77998 0.0
C1715 C 0.38776 0.68166 0.81576 0.0
N1716 N 0.44864 0.69977 0.76626 0.0
N1717 N 0.35755 0.71722 0.8429 0.0
H1718 H 0.38314 0.63918 0.8301 0.0
H1719 H 0.35391 0.65854 0.83955 0.0
H1720 H 0.34958 0.73763 0.84756 0.0
H1721 H 0.35329 0.70428 0.86008 0.0
H1722 H 0.45988 0.7182 0.75749 0.0
H1723 H 0.45981 0.68151 0.76461 0.0
H1724 H 0.42579 0.7365 0.73859 0.0
H1725 H 0.40016 0.75875 0.75298 0.0
C1726 C 0.24023 0.57832 0.53857 0.0
C1727 C 0.25706 0.60426 0.56171 0.0
C1728 C 0.208 0.61704 0.5773 0.0
C1729 C 0.19132 0.59266 0.55251 0.0
N1730 N 0.19244 0.55212 0.50697 0.0
N1731 N 0.25594 0.65244 0.59774 0.0
C1732 C 0.20779 0.57401 0.53236 0.0
C1733 C 0.2406 0.62458 0.57978 0.0
N1734 N 0.25513 0.55691 0.52335 0.0
N1735 N 0.19271 0.63333 0.59869 0.0
H1736 H 0.27931 0.65981 0.59892 0.0
H1737 H 0.24536 0.66971 0.60874 0.0
H1738 H 0.16919 0.62983 0.59678 0.0
H1739 H 0.20321 0.64869 0.61952 0.0
H1740 H 0.24427 0.53583 0.50876 0.0
H1741 H 0.27841 0.55899 0.52755 0.0
H1742 H 0.20298 0.54012 0.48917 0.0
H1743 H 0.16897 0.54739 0.50246 0.0
C1744 C 0.85725 0.03655 0.75204 0.0
C1745 C 0.8284 1.02076 0.73607 0.0
C1746 C 0.83786 0.97159 0.74453 0.0
C1747 C 0.86599 0.98755 0.76183 0.0
N1748 N 0.90666 0.03221 0.77316 0.0
N1749 N 0.79619 0.97309 0.70758 0.0
C1750 C 0.87717 1.01905 0.76228 0.0
C1751 C 0.82051 0.98812 0.72897 0.0
N1752 N 0.86473 0.06813 0.75989 0.0
N1753 N 0.82661 0.94135 0.7449 0.0
H1754 H 0.78337 0.98496 0.69572 0.0
H1755 H 0.79079 0.94918 0.69925 0.0
H1756 H 0.83856 0.92807 0.75567 0.0
H1757 H 0.80452 0.92998 0.73629 0.0
H1758 H 0.8837 0.08057 0.77511 0.0
H1759 H 0.85125 0.08224 0.75295 0.0
H1760 H 0.91706 0.05442 0.77153 0.0
H1761 H 0.92147 1.01961 0.78092 0.0
C1762 C 0.79946 0.96757 0.53173 0.0
C1763 C 0.79591 0.94547 0.55103 0.0
C1764 C 0.74177 0.94527 0.55034 0.0
C1765 C 0.74602 0.96947 0.53369 0.0
N1766 N 0.78002 1.00838 0.51471 0.0
N1767 N 0.76513 0.91784 0.58404 0.0
C1768 C 0.77522 0.98206 0.52625 0.0
C1769 C 0.76744 0.93554 0.56184 0.0
N1770 N 0.82532 0.97357 0.51716 0.0
N1771 N 0.71321 0.93095 0.55432 0.0
H1772 H 0.78363 0.91103 0.5937 0.0
H1773 H 0.74559 0.91251 0.59515 0.0
H1774 H 0.69384 0.93736 0.5461 0.0
H1775 H 0.70863 0.91103 0.56327 0.0
H1776 H 0.82759 0.98693 0.50013 0.0
H1777 H 0.84339 0.96276 0.51941 0.0
H1778 H 0.8015 1.02038 0.51213 0.0
H1779 H 0.76288 1.01992 0.51061 0.0
C1780 C 0.38059 0.47032 0.77061 0.0
C1781 C 0.40934 0.48616 0.78813 0.0
C1782 C 0.40751 0.43642 0.80834 0.0
C1783 C 0.38015 0.41969 0.78873 0.0
N1784 N 0.3441 0.42193 0.74684 0.0
N1785 N 0.45084 0.48032 0.82207 0.0
C1786 C 0.36767 0.4373 0.769 0.0
C1787 C 0.42287 0.46776 0.80618 0.0
N1788 N 0.36518 0.48681 0.75495 0.0
N1789 N 0.41816 0.42318 0.83112 0.0
H1790 H 0.46147 0.50337 0.82443 0.0
H1791 H 0.46428 0.46747 0.83151 0.0
H1792 H 0.40766 0.40157 0.83442 0.0
H1793 H 0.4354 0.43473 0.84891 0.0
H1794 H 0.34277 0.47887 0.74529 0.0
H1795 H 0.3742 0.50941 0.75342 0.0
H1796 H 0.33579 0.4314 0.72905 0.0
H1797 H 0.33468 0.39851 0.74423 0.0
C1798 C 0.32574 0.68584 0.25449 0.0
C1799 C 0.29716 0.66742 0.25651 0.0
C1800 C 0.27872 0.71303 0.28142 0.0
C1801 C 0.30681 0.73178 0.27804 0.0
N1802 N 0.35588 0.73734 0.25823 0.0
N1803 N 0.2447 0.66305 0.26635 0.0
C1804 C 0.33 0.71858 0.26352 0.0
C1805 C 0.27318 0.68087 0.26852 0.0
N1806 N 0.3489 0.67191 0.24478 0.0
N1807 N 0.25729 0.72591 0.29711 0.0
H1808 H 0.23967 0.63916 0.25787 0.0
H1809 H 0.22548 0.67203 0.27077 0.0
H1810 H 0.25904 0.74964 0.30443 0.0
H1811 H 0.2384 0.71306 0.30445 0.0
H1812 H 0.37118 0.68372 0.24578 0.0
H1813 H 0.34617 0.64796 0.23753 0.0
H1814 H 0.37233 0.72939 0.24492 0.0
H1815 H 0.36019 0.76136 0.26559 0.0
C1816 C 0.54157 0.79219 0.55218 0.0
C1817 C 0.53223 0.77757 0.51982 0.0
C1818 C 0.54708 0.73045 0.5274 0.0
C1819 C 0.55786 0.74551 0.55942 0.0
N1820 N 0.55937 0.78708 0.60458 0.0
N1821 N 0.51743 0.73069 0.47914 0.0
C1822 C 0.55293 0.77524 0.57263 0.0
C1823 C 0.53177 0.74586 0.5084 0.0
N1824 N 0.5403 0.82252 0.56287 0.0
N1825 N 0.55359 0.70248 0.51436 0.0
H1826 H 0.50674 0.7415 0.46411 0.0
H1827 H 0.51363 0.7068 0.471 0.0
H1828 H 0.56444 0.68992 0.52728 0.0
H1829 H 0.55002 0.69246 0.49014 0.0
H1830 H 0.54996 0.83582 0.58501 0.0
H1831 H 0.53005 0.83474 0.54895 0.0
H1832 H 0.55434 0.80773 0.61636 0.0
H1833 H 0.56774 0.77483 0.61981 0.0
C1834 C 0.70614 0.29057 0.70401 0.0
C1835 C 0.6999 0.31758 0.69561 0.0
C1836 C 0.73164 0.34909 0.74305 0.0
C1837 C 0.74254 0.32282 0.7474 0.0
N1838 N 0.74325 0.26872 0.72836 0.0
N1839 N 0.7097 0.37343 0.70537 0.0
C1840 C 0.73049 0.29348 0.72708 0.0
C1841 C 0.71323 0.34718 0.71477 0.0
N1842 N 0.6883 0.2622 0.69075 0.0
N1843 N 0.73816 0.37551 0.76635 0.0
H1844 H 0.69729 0.37315 0.68424 0.0
H1845 H 0.7215 0.39541 0.71708 0.0
H1846 H 0.74982 0.37655 0.78819 0.0
H1847 H 0.72894 0.39475 0.76552 0.0
H1848 H 0.69047 0.24222 0.69832 0.0
H1849 H 0.66912 0.25914 0.67498 0.0
H1850 H 0.73711 0.24777 0.71171 0.0
H1851 H 0.76193 0.26996 0.744 0.0
C1852 C 1.02382 0.43494 0.99342 0.0
C1853 C 0.02748 0.41434 1.01328 0.0
C1854 C 0.04415 0.45747 0.05914 0.0
C1855 C 0.04128 0.47795 0.03901 0.0
N1856 N 1.02085 0.487 0.99004 0.0
N1857 N 0.03305 0.40455 0.06567 0.0
C1858 C 0.02828 0.46682 1.00718 0.0
C1859 C 0.03496 0.42517 0.04648 0.0
N1860 N 1.01823 0.42437 0.96118 0.0
N1861 N 0.05711 0.46888 0.08967 0.0
H1862 H 0.02574 0.38084 0.05672 0.0
H1863 H 0.03591 0.41096 0.09038 0.0
H1864 H 0.06311 0.49252 0.09978 0.0
H1865 H 0.06315 0.45508 0.10444 0.0
H1866 H 1.01901 0.43881 0.94522 0.0
H1867 H 1.01497 0.40112 0.94994 0.0
H1868 H 1.00851 0.48012 0.96778 0.0
H1869 H 0.02475 0.5107 0.99945 0.0
C1870 C 0.04346 0.79127 0.17139 0.0
C1871 C 0.05822 0.8201 0.1656 0.0
C1872 C 0.02613 0.84665 0.20044 0.0
C1873 C 1.0102 0.81757 0.20424 0.0
N1874 N 0.99808 0.76206 0.18638 0.0
N1875 N 0.05968 0.87428 0.16917 0.0
C1876 C 1.01698 0.78983 0.1873 0.0
C1877 C 0.04835 0.84757 0.17848 0.0
N1878 N 0.05584 0.76571 0.16408 0.0
N1879 N 1.02085 0.8733 0.2186 0.0
H1880 H 0.07557 0.87554 0.15265 0.0
H1881 H 0.05129 0.89434 0.17546 0.0
H1882 H 1.00451 0.87348 0.23467 0.0
H1883 H 0.03411 0.89507 0.21941 0.0
H1884 H 0.04737 0.74516 0.17091 0.0
H1885 H 0.07647 0.76578 0.15457 0.0
H1886 H 1.00042 0.74143 0.17168 0.0
H1887 H 0.97829 0.76012 0.19775 0.0
C1888 C 0.53754 0.36102 0.09899 0.0
C1889 C 0.55868 0.34446 0.10865 0.0
C1890 C 0.59582 0.36778 0.07677 0.0
C1891 C 0.57441 0.38358 0.06631 0.0
N1892 N 0.52273 0.38929 0.06084 0.0
N1893 N 0.60408 0.32496 0.09928 0.0
C1894 C 0.54448 0.37814 0.07523 0.0
C1895 C 0.58664 0.34563 0.09519 0.0
N1896 N 0.51174 0.36203 0.11378 0.0
N1897 N 0.6253 0.37501 0.07059 0.0
H1898 H 0.59757 0.30764 0.11167 0.0
H1899 H 0.62327 0.32284 0.08752 0.0
H1900 H 0.63308 0.39109 0.05719 0.0
H1901 H 0.64252 0.36685 0.0809 0.0
H1902 H 0.49725 0.37654 0.11017 0.0
H1903 H 0.50599 0.35037 0.13173 0.0
H1904 H 0.49988 0.3837 0.06413 0.0
H1905 H 0.52713 0.40173 0.04319 0.0
C1906 C 0.0445 0.32721 0.35031 0.0
C1907 C 0.07414 0.33007 0.34086 0.0
C1908 C 0.05602 0.33566 0.28837 0.0
C1909 C 0.02746 0.33721 0.29952 0.0
N1910 N 0.99536 0.33905 0.34263 0.0
N1911 N 0.10922 0.3375 0.30189 0.0
C1912 C 1.02175 0.33381 0.33075 0.0
C1913 C 0.08022 0.33421 0.31003 0.0
N1914 N 0.03813 0.31891 0.3783 0.0
N1915 N 0.05979 0.33544 0.25719 0.0
H1916 H 0.12707 0.33486 0.31669 0.0
H1917 H 0.11586 0.34406 0.2812 0.0
H1918 H 0.04236 0.33679 0.24105 0.0
H1919 H 0.07928 0.33168 0.24676 0.0
H1920 H 1.01619 0.31283 0.38437 0.0
H1921 H 0.05434 0.31544 0.39443 0.0
H1922 H 0.99176 0.34098 0.36648 0.0
H1923 H 0.97784 0.3443 0.32957 0.0
C1924 C 0.0464 0.70055 0.59381 0.0
C1925 C 0.06046 0.71372 0.62511 0.0
C1926 C 0.09061 0.67385 0.6202 0.0
C1927 C 0.0743 0.65883 0.59033 0.0
N1928 N 0.03218 0.65447 0.55164 0.0
N1929 N 0.09067 0.70865 0.67083 0.0
C1930 C 0.05093 0.67122 0.57787 0.0
C1931 C 0.08113 0.6992 0.6391 0.0
N1932 N 0.02969 0.7165 0.57877 0.0
N1933 N 0.11582 0.66461 0.63013 0.0
H1934 H 0.08326 0.72625 0.68595 0.0
H1935 H 0.10331 0.6968 0.68282 0.0
H1936 H 0.12397 0.64655 0.61666 0.0
H1937 H 0.13033 0.67683 0.65017 0.0
H1938 H 1.0217 0.70942 0.55477 0.0
H1939 H 0.02618 0.73827 0.58935 0.0
H1940 H 1.01276 0.66095 0.54371 0.0
H1941 H 0.03424 0.63261 0.53957 0.0
C1942 C 0.71776 0.81786 0.84634 0.0
C1943 C 0.71392 0.84684 0.86365 0.0
C1944 C 0.75618 0.87279 0.83932 0.0
C1945 C 0.75862 0.84368 0.82077 0.0
N1946 N 0.73278 0.79071 0.7979 0.0
N1947 N 0.72476 0.90248 0.87076 0.0
C1948 C 0.73652 0.81691 0.82131 0.0
C1949 C 0.73182 0.87461 0.8586 0.0
N1950 N 0.70448 0.79113 0.8546 0.0
N1951 N 0.7771 0.8987 0.83832 0.0
H1952 H 0.70668 0.90481 0.88429 0.0
H1953 H 0.73517 0.92306 0.86512 0.0
H1954 H 0.7933 0.89861 0.82205 0.0
H1955 H 0.77897 0.91985 0.85423 0.0
H1956 H 0.70908 0.7697 0.84453 0.0
H1957 H 0.69198 0.79085 0.87413 0.0
H1958 H 0.71557 0.7714 0.79679 0.0
H1959 H 0.74327 0.78982 0.77707 0.0
C1960 C 0.50563 0.59683 0.67667 0.0
C1961 C 0.51078 0.5807 0.70133 0.0
C1962 C 0.54861 0.55876 0.66553 0.0
C1963 C 0.5451 0.5767 0.64203 0.0
N1964 N 0.52138 0.61687 0.63019 0.0
N1965 N 0.5412 0.54803 0.71853 0.0
C1966 C 0.52392 0.5968 0.64931 0.0
C1967 C 0.53352 0.56232 0.69532 0.0
N1968 N 0.4826 0.61239 0.679 0.0
N1969 N 0.56656 0.53768 0.65944 0.0
H1970 H 0.52998 0.54823 0.73896 0.0
H1971 H 0.55976 0.53765 0.71864 0.0
H1972 H 0.57921 0.53578 0.63998 0.0
H1973 H 0.5676 0.52086 0.6724 0.0
H1974 H 0.47419 0.62097 0.66055 0.0
H1975 H 0.47032 0.61483 0.69872 0.0
H1976 H 0.51 0.6349 0.63559 0.0
H1977 H 0.53248 0.61696 0.60979 0.0
C1978 C 0.81329 0.20933 1.01274 0.0
C1979 C 0.83282 0.18913 1.00212 0.0
C1980 C 0.82982 0.20183 0.94981 0.0
C1981 C 0.81354 0.22487 0.9619 0.0
N1982 N 0.79475 0.25461 1.00669 0.0
N1983 N 0.86275 0.16848 0.96196 0.0
C1984 C 0.80667 0.22979 0.9939 0.0
C1985 C 0.84188 0.18588 0.97095 0.0
N1986 N 0.79985 0.20801 0.04014 0.0
N1987 N 0.83302 0.19466 0.91804 0.0
H1988 H 0.872 0.1565 0.97688 0.0
H1989 H 0.87266 0.1679 0.94074 0.0
H1990 H 0.82433 0.20577 0.90186 0.0
H1991 H 0.84197 0.17599 0.90732 0.0
H1992 H 0.78308 0.22004 0.04722 0.0
H1993 H 0.80288 0.19232 0.05402 0.0
H1994 H 0.79244 0.26112 0.03085 0.0
H1995 H 0.78984 0.27047 0.9938 0.0
C1996 C 0.18389 0.54314 0.13181 0.0
C1997 C 0.19541 0.56669 0.15922 0.0
C1998 C 0.15549 0.59381 0.1489 0.0
C1999 C 0.14114 0.5679 0.12486 0.0
N2000 N 0.14032 0.51646 0.09448 0.0
N2001 N 0.18872 0.61178 0.19737 0.0
C2002 C 0.1551 0.54223 0.11627 0.0
C2003 C 0.1804 0.59142 0.16867 0.0
N2004 N 0.20075 0.52216 0.12024 0.0
N2005 N 0.14605 0.62113 0.15221 0.0
H2006 H 0.20601 0.61038 0.2135 0.0
H2007 H 0.17632 0.62812 0.20664 0.0
H2008 H 0.12867 0.62429 0.1372 0.0
H2009 H 0.1578 0.64159 0.16732 0.0
H2010 H 0.19507 0.50688 0.09823 0.0
H2011 H 0.22183 0.52209 0.13121 0.0
H2012 H 0.148 0.49588 0.08969 0.0
H2013 H 0.1191 0.5148 0.0829 0.0
C2014 C 0.83987 0.88027 0.44874 0.0
C2015 C 0.85628 0.86507 0.46724 0.0
C2016 C 0.85903 0.82677 0.41816 0.0
C2017 C 0.84644 0.84461 0.39937 0.0
N2018 N 0.83145 0.89275 0.39765 0.0
N2019 N 0.88513 0.82575 0.46849 0.0
C2020 C 0.83858 0.87253 0.41492 0.0
C2021 C 0.86673 0.8387 0.45167 0.0
N2022 N 0.82438 0.90142 0.46338 0.0
N2023 N 0.86273 0.79793 0.40424 0.0
H2024 H 0.89144 0.83384 0.4928 0.0
H2025 H 0.89619 0.80872 0.45786 0.0
H2026 H 0.85695 0.78827 0.38011 0.0
H2027 H 0.86874 0.78252 0.41708 0.0
H2028 H 0.80976 0.91105 0.45096 0.0
H2029 H 0.82323 0.90651 0.48786 0.0
H2030 H 0.82862 0.91481 0.40812 0.0
H2031 H 0.83175 0.88908 0.37307 0.0
C2032 C 0.49961 0.59371 0.91872 0.0
C2033 C 0.51092 0.58628 0.88812 0.0
C2034 C 0.55583 0.57565 0.91952 0.0
C2035 C 0.54269 0.5793 0.94937 0.0
N2036 N 0.49687 0.58635 0.97308 0.0
N2037 N 0.54904 0.56333 0.86136 0.0
C2038 C 0.5132 0.58692 0.94754 0.0
C2039 C 0.53887 0.57548 0.88932 0.0
N2040 N 0.47634 0.60894 0.92109 0.0
N2041 N 0.58554 0.57381 0.91979 0.0
H2042 H 0.53756 0.56149 0.83928 0.0
H2043 H 0.56698 0.55194 0.86018 0.0
H2044 H 0.59899 0.57514 0.94058 0.0
H2045 H 0.59767 0.57462 0.90008 0.0
H2046 H 0.4691 0.61822 0.94275 0.0
H2047 H 0.46666 0.61556 0.90189 0.0
H2048 H 0.47421 0.58788 0.97237 0.0
H2049 H 0.50479 0.58093 0.99382 0.0
C2050 C 0.87126 0.2386 0.16317 0.0
C2051 C 0.84868 0.21092 0.15413 0.0
C2052 C 0.81577 0.23526 0.1906 0.0
C2053 C 0.83965 0.2614 0.20285 0.0
N2054 N 0.89212 0.28595 0.20194 0.0
N2055 N 0.80064 0.18148 0.16278 0.0
C2056 C 0.86784 0.2627 0.18921 0.0
C2057 C 0.82141 0.20879 0.16908 0.0
N2058 N 0.89628 0.24196 0.14688 0.0
N2059 N 0.78704 0.2364 0.1981 0.0
H2060 H 0.80339 0.16181 0.14678 0.0
H2061 H 0.78194 0.17753 0.17548 0.0
H2062 H 0.7816 0.25607 0.21186 0.0
H2063 H 0.76811 0.21949 0.1876 0.0
H2064 H 0.91133 0.263 0.1489 0.0
H2065 H 0.90121 0.22405 0.12989 0.0
H2066 H 0.9141 0.28562 0.19623 0.0
H2067 H 0.89115 0.30463 0.22001 0.0
C2068 C 0.18539 0.55257 0.30423 0.0
C2069 C 0.21121 0.5763 0.30492 0.0
C2070 C 0.19967 0.60468 0.35608 0.0
C2071 C 0.17218 0.58273 0.35346 0.0
N2072 N 0.13668 0.53772 0.32357 0.0
N2073 N 0.24054 0.62743 0.32912 0.0
C2074 C 0.16441 0.55717 0.32711 0.0
C2075 C 0.21789 0.60296 0.33032 0.0
N2076 N 0.18158 0.52511 0.28251 0.0
N2077 N 0.20862 0.62693 0.38343 0.0
H2078 H 0.25449 0.62742 0.31083 0.0
H2079 H 0.24392 0.64886 0.34489 0.0
H2080 H 0.19557 0.62935 0.40258 0.0
H2081 H 0.23003 0.64136 0.38823 0.0
H2082 H 0.16489 0.5058 0.28283 0.0
H2083 H 0.19692 0.52053 0.26594 0.0
H2084 H 0.1283 0.5208 0.30306 0.0
H2085 H 0.12097 0.54 0.3402 0.0
C2086 C 0.88234 0.86653 0.66844 0.0
C2087 C 0.85824 0.87284 0.6501 0.0
C2088 C 0.82468 0.86259 0.69177 0.0
C2089 C 0.84807 0.85368 0.70863 0.0
N2090 N 0.89714 0.84055 0.70867 0.0
N2091 N 0.8047 0.87064 0.64158 0.0
C2092 C 0.87636 0.85389 0.69576 0.0
C2093 C 0.82892 0.86921 0.6611 0.0
N2094 N 0.91128 0.87379 0.66067 0.0
N2095 N 0.79865 0.86563 0.70545 0.0
H2096 H 0.80655 0.87406 0.61858 0.0
H2097 H 0.78239 0.86522 0.6468 0.0
H2098 H 0.79483 0.86118 0.72779 0.0
H2099 H 0.78209 0.87527 0.69605 0.0
H2100 H 0.93012 0.87296 0.67515 0.0
H2101 H 0.91676 0.88341 0.64126 0.0
H2102 H 0.91686 0.83707 0.69852 0.0
H2103 H 0.89309 0.82998 0.72767 0.0
C2104 C 0.7222 0.51888 0.55393 0.0
C2105 C 0.74162 0.53376 0.53407 0.0
C2106 C 0.70339 0.56637 0.52939 0.0
C2107 C 0.68248 0.54936 0.54652 0.0
N2108 N 0.67265 0.50769 0.5737 0.0
N2109 N 0.74753 0.5691 0.49923 0.0
C2110 C 0.69215 0.52501 0.55812 0.0
C2111 C 0.73138 0.55701 0.52114 0.0
N2112 N 0.73315 0.4999 0.57041 0.0
N2113 N 0.69675 0.5919 0.5208 0.0
H2114 H 0.76766 0.563 0.49251 0.0
H2115 H 0.73972 0.58297 0.48557 0.0
H2116 H 0.67636 0.59871 0.52426 0.0
H2117 H 0.71233 0.60771 0.51233 0.0
H2118 H 0.72216 0.49083 0.58795 0.0
H2119 H 0.75481 0.49548 0.56885 0.0
H2120 H 0.67642 0.48753 0.57967 0.0
H2121 H 0.65188 0.51272 0.57953 0.0
C2122 C 0.19566 0.17239 0.50403 0.0
C2123 C 0.22349 0.17149 0.52028 0.0
C2124 C 0.19826 0.12518 0.53781 0.0
C2125 C 0.16993 0.12767 0.52399 0.0
N2126 N 0.14091 0.15648 0.49776 0.0
N2127 N 0.24934 0.15153 0.55918 0.0
C2128 C 0.16842 0.1522 0.50831 0.0
C2129 C 0.22431 0.14897 0.53879 0.0
N2130 N 0.19538 0.1916 0.48346 0.0
N2131 N 0.20034 0.1003 0.55051 0.0
H2132 H 0.26825 0.16955 0.56225 0.0
H2133 H 0.25013 0.13788 0.57575 0.0
H2134 H 0.18172 0.08314 0.55175 0.0
H2135 H 0.22088 0.09537 0.55752 0.0
H2136 H 0.17649 0.19105 0.46834 0.0
H2137 H 0.21481 0.20635 0.47943 0.0
H2138 H 0.13809 0.17594 0.4896 0.0
H2139 H 0.12058 0.14158 0.49909 0.0
C2140 C 0.28481 0.9612 0.81466 0.0
C2141 C 0.26035 0.96247 0.79197 0.0
C2142 C 0.26335 0.9049 0.76947 0.0
C2143 C 0.28979 0.90484 0.79007 0.0
N2144 N 0.32648 0.93821 0.83118 0.0
N2145 N 0.23071 0.93251 0.74372 0.0
C2146 C 0.30055 0.93468 0.81197 0.0
C2147 C 0.2509 0.93321 0.76861 0.0
N2148 N 0.29218 0.98487 0.84092 0.0
N2149 N 0.24957 0.87736 0.74991 0.0
H2150 H 0.22186 0.95156 0.74125 0.0
H2151 H 0.22506 0.91427 0.72387 0.0
H2152 H 0.25832 0.85747 0.74821 0.0
H2153 H 0.2285 0.8736 0.73718 0.0
H2154 H 0.30634 0.98442 0.86054 0.0
H2155 H 0.28146 1.00348 0.8448 0.0
H2156 H 0.3385 0.95954 0.84431 0.0
H2157 H 0.33716 0.92002 0.83238 0.0
C2158 C 0.44022 0.04839 0.05838 0.0
C2159 C 0.42266 0.03595 0.02833 0.0
C2160 C 0.47119 0.03487 1.00354 0.0
C2161 C 0.48874 0.04878 0.03336 0.0
N2162 N 0.489 0.07379 0.08827 0.0
N2163 N 0.42232 1.02078 0.97154 0.0
C2164 C 0.47288 0.05671 0.06052 0.0
C2165 C 0.43852 0.0305 1.00073 0.0
N2166 N 0.42558 0.05239 0.08525 0.0
N2167 N 0.48566 0.02398 0.97804 0.0
H2168 H 0.39877 1.01565 0.96848 0.0
H2169 H 0.43208 1.01982 0.95021 0.0
H2170 H 0.50904 0.02605 0.97916 0.0
H2171 H 0.47453 1.0105 0.95656 0.0
H2172 H 0.43643 0.05684 0.10811 0.0
H2173 H 0.40217 0.04982 0.08463 0.0
H2174 H 0.47914 0.08335 0.10807 0.0
H2175 H 0.51248 0.08084 0.09073 0.0
C2176 C 0.83895 0.6038 0.82585 0.0
C2177 C 0.8633 0.59497 0.80954 0.0
C2178 C 0.85013 0.61849 0.766 0.0
C2179 C 0.82676 0.62859 0.78302 0.0
N2180 N 0.79398 0.62561 0.82453 0.0
N2181 N 0.88778 0.58695 0.76103 0.0
C2182 C 0.81951 0.61935 0.81148 0.0
C2183 C 0.86732 0.5998 0.77846 0.0
N2184 N 0.83477 0.59763 0.85516 0.0
N2185 N 0.85715 0.62853 0.739 0.0
H2186 H 0.90215 0.57452 0.76971 0.0
H2187 H 0.88918 0.58667 0.73702 0.0
H2188 H 0.84426 0.6412 0.72842 0.0
H2189 H 0.87655 0.62576 0.7279 0.0
H2190 H 0.81971 0.60639 0.86999 0.0
H2191 H 0.84719 0.58429 0.86533 0.0
H2192 H 0.78586 0.61775 0.84406 0.0
H2193 H 0.77941 0.63682 0.81407 0.0
C2194 C 0.89279 0.6743 0.02477 0.0
C2195 C 0.88364 0.69806 0.04659 0.0
C2196 C 0.92351 0.6965 0.08663 0.0
C2197 C 0.92958 0.66985 0.06647 0.0
N2198 N 0.91772 0.63091 1.01755 0.0
N2199 N 0.88695 0.72823 0.10037 0.0
C2200 C 0.91371 0.65812 0.03575 0.0
C2201 C 0.89827 0.70848 0.07803 0.0
N2202 N 0.88214 0.66779 0.99336 0.0
N2203 N 0.9421 0.7106 0.11382 0.0
H2204 H 0.86769 0.73656 0.09571 0.0
H2205 H 0.89485 0.73395 0.1244 0.0
H2206 H 0.96086 0.70247 0.12082 0.0
H2207 H 0.94064 0.73192 0.12775 0.0
H2208 H 0.89024 0.65283 0.97579 0.0
H2209 H 0.86733 0.67968 0.98437 0.0
H2210 H 0.90436 0.61948 0.99649 0.0
H2211 H 0.93284 0.61837 0.02472 0.0
C2212 C 0.25824 0.17893 0.82141 0.0
C2213 C 0.26483 0.15236 0.80009 0.0
C2214 C 0.29826 0.19225 0.77557 0.0
C2215 C 0.29307 0.21863 0.79808 0.0
N2216 N 0.27074 0.23453 0.84615 0.0
N2217 N 0.29535 0.13645 0.75836 0.0
C2218 C 0.2735 0.211 0.82171 0.0
C2219 C 0.28625 0.16007 0.77792 0.0
N2220 N 0.23723 0.17378 0.8422 0.0
N2221 N 0.31332 0.19777 0.75015 0.0
H2222 H 0.28569 0.11327 0.7567 0.0
H2223 H 0.31374 0.1397 0.74513 0.0
H2224 H 0.32181 0.22001 0.7471 0.0
H2225 H 0.31497 0.18061 0.73056 0.0
H2226 H 0.22746 0.19101 0.85476 0.0
H2227 H 0.22845 0.15192 0.84599 0.0
H2228 H 0.26028 0.23123 0.86636 0.0
H2229 H 0.28149 0.25745 0.84773 0.0
C2230 C 0.35487 0.95973 0.38629 0.0
C2231 C 0.35048 0.97882 0.36518 0.0
C2232 C 0.30911 0.93951 0.33431 0.0
C2233 C 0.31657 0.91885 0.35242 0.0
N2234 N 0.33821 0.91059 0.40112 0.0
N2235 N 0.31766 0.99237 0.32746 0.0
C2236 C 0.33631 0.92969 0.38076 0.0
C2237 C 0.32507 0.97066 0.3424 0.0
N2238 N 0.37826 0.96967 0.40979 0.0
N2239 N 0.28876 0.9286 0.30797 0.0
H2240 H 0.32977 1.0152 0.33321 0.0
H2241 H 0.29837 0.98855 0.31171 0.0
H2242 H 0.27664 0.90578 0.30208 0.0
H2243 H 0.28468 0.94158 0.29155 0.0
H2244 H 0.38507 0.95583 0.42408 0.0
H2245 H 0.3913 0.99213 0.41438 0.0
H2246 H 0.35123 0.91735 0.42297 0.0
H2247 H 0.32474 0.88836 0.39691 0.0
C2248 C 0.65445 0.39131 0.56415 0.0
C2249 C 0.65028 0.35928 0.55177 0.0
C2250 C 0.62673 0.36531 0.5017 0.0
C2251 C 0.62305 0.39473 0.51788 0.0
N2252 N 0.63242 0.43575 0.56553 0.0
N2253 N 0.64132 0.31711 0.50598 0.0
C2254 C 0.63724 0.40814 0.54914 0.0
C2255 C 0.63961 0.34679 0.5193 0.0
N2256 N 0.67475 0.40563 0.5899 0.0
N2257 N 0.61725 0.35518 0.47004 0.0
H2258 H 0.65306 0.30449 0.51804 0.0
H2259 H 0.6316 0.30516 0.48339 0.0
H2260 H 0.60787 0.36877 0.45708 0.0
H2261 H 0.6202 0.33444 0.4562 0.0
H2262 H 0.67976 0.42952 0.59853 0.0
H2263 H 0.68966 0.39422 0.59946 0.0
H2264 H 0.63885 0.44401 0.5898 0.0
H2265 H 0.62009 0.44935 0.5557 0.0
C2266 C 0.43602 0.85731 0.40031 0.0
C2267 C 0.45022 0.83158 0.39495 0.0
C2268 C 0.40905 0.80253 0.35474 0.0
C2269 C 0.39602 0.82899 0.35857 0.0
N2270 N 0.40093 0.88377 0.37891 0.0
N2271 N 0.45437 0.78286 0.36183 0.0
C2272 C 0.41069 0.8571 0.37951 0.0
C2273 C 0.43797 0.80509 0.37057 0.0
N2274 N 0.44557 0.88121 0.42616 0.0
N2275 N 0.39329 0.77465 0.33723 0.0
H2276 H 0.4761 0.78442 0.37226 0.0
H2277 H 0.44775 0.76457 0.34209 0.0
H2278 H 0.37177 0.77164 0.32571 0.0
H2279 H 0.4004 0.75397 0.3365 0.0
H2280 H 0.43381 0.89875 0.43299 0.0
H2281 H 0.46358 0.88213 0.44261 0.0
H2282 H 0.41264 0.90549 0.39145 0.0
H2283 H 0.38284 0.88464 0.36337 0.0
C2284 C 0.12141 0.71285 0.04849 0.0
C2285 C 0.14378 0.72703 0.07407 0.0
C2286 C 0.15149 0.67659 0.08023 0.0
C2287 C 0.12464 0.66299 0.05976 0.0
N2288 N 0.08426 0.66689 0.02301 0.0
N2289 N 0.18322 0.72373 0.11213 0.0
C2290 C 0.11001 0.68062 0.04284 0.0
C2291 C 0.16038 0.7093 0.08877 0.0
N2292 N 0.11091 0.73063 0.03023 0.0
N2293 N 0.1681 0.65817 0.09152 0.0
H2294 H 0.19138 0.74757 0.11749 0.0
H2295 H 0.19366 0.71235 0.12673 0.0
H2296 H 0.16182 0.63407 0.08568 0.0
H2297 H 0.18913 0.66641 0.10463 0.0
H2298 H 0.09612 0.72165 1.00965 0.0
H2299 H 0.11947 0.75443 0.03424 0.0
H2300 H 0.07069 0.67907 1.01271 0.0
H2301 H 0.07543 0.64318 1.0182 0.0
C2302 C 0.11057 0.35435 0.8982 0.0
C2303 C 0.09864 0.32672 0.90805 0.0
C2304 C 0.13541 0.30125 0.8794 0.0
C2305 C 0.14923 0.3298 0.87252 0.0
N2306 N 0.15371 0.38498 0.88072 0.0
N2307 N 0.10315 0.27553 0.91299 0.0
C2308 C 0.13791 0.3568 0.88352 0.0
C2309 C 0.11193 0.30054 0.89995 0.0
N2310 N 0.09504 0.37771 0.9014 0.0
N2311 N 0.14412 0.27469 0.86564 0.0
H2312 H 0.08659 0.27437 0.92876 0.0
H2313 H 0.11424 0.25718 0.91056 0.0
H2314 H 0.1613 0.27432 0.85054 0.0
H2315 H 0.13264 0.25276 0.867 0.0
H2316 H 0.10116 0.39699 0.89166 0.0
H2317 H 0.07424 0.37645 0.91081 0.0
H2318 H 0.14823 0.40579 0.89142 0.0
H2319 H 0.17399 0.38781 0.87028 0.0
C2320 C 0.63135 0.79611 1.00759 0.0
C2321 C 0.61526 0.79045 0.97709 0.0
C2322 C 0.57817 0.74915 0.99052 0.0
C2323 C 0.59634 0.75203 1.01914 0.0
N2324 N 0.64235 0.77554 0.05346 0.0
N2325 N 0.57705 0.75724 0.93702 0.0
C2326 C 0.62351 0.77486 0.0274 0.0
C2327 C 0.58953 0.76588 0.9679 0.0
N2328 N 0.65332 0.82228 1.01811 0.0
N2329 N 0.54997 0.73043 0.98503 0.0
H2330 H 0.586 0.76757 0.91919 0.0
H2331 H 0.56005 0.73763 0.92836 0.0
H2332 H 0.54087 0.71794 1.00129 0.0
H2333 H 0.53457 0.72971 0.96593 0.0
H2334 H 0.66361 0.82916 0.04134 0.0
H2335 H 0.65941 0.83864 1.00451 0.0
H2336 H 0.66408 0.78926 0.05853 0.0
H2337 H 0.63709 0.76075 0.06887 0.0
C2338 C 0.13262 0.84623 0.76154 0.0
C2339 C 0.10344 0.82802 0.76149 0.0
C2340 C 0.12006 0.80981 0.80746 0.0
C2341 C 0.15009 0.82351 0.80381 0.0
N2342 N 0.18385 0.86414 0.78743 0.0
N2343 N 0.06657 0.80192 0.78996 0.0
C2344 C 0.15588 0.84535 0.78452 0.0
C2345 C 0.09618 0.81327 0.78676 0.0
N2346 N 0.13858 0.86207 0.73812 0.0
N2347 N 0.11506 0.79176 0.82913 0.0
H2348 H 0.049 0.8047 0.77485 0.0
H2349 H 0.0593 0.79205 0.80865 0.0
H2350 H 0.13259 0.7901 0.84501 0.0
H2351 H 0.09414 0.77833 0.83115 0.0
H2352 H 0.16021 0.87268 0.7344 0.0
H2353 H 0.1217 0.8638 0.7216 0.0
H2354 H 0.1889 0.8823 0.77593 0.0
H2355 H 0.20124 0.86344 0.80389 0.0
C2356 C 0.10067 0.44293 0.44784 0.0
C2357 C 0.12034 0.4293 0.46451 0.0
C2358 C 0.12918 0.47422 0.50906 0.0
C2359 C 0.10703 0.48614 0.49386 0.0
N2360 N 0.0681 0.47983 0.45124 0.0
N2361 N 0.14936 0.42924 0.51304 0.0
C2362 C 0.09175 0.46995 0.4639 0.0
C2363 C 0.13361 0.44422 0.49568 0.0
N2364 N 0.09161 0.43094 0.41628 0.0
N2365 N 0.14675 0.49199 0.53567 0.0
H2366 H 0.15275 0.407 0.50428 0.0
H2367 H 0.15669 0.43767 0.53709 0.0
H2368 H 0.14432 0.51419 0.54618 0.0
H2369 H 0.16553 0.48589 0.54562 0.0
H2370 H 0.07992 0.44183 0.40218 0.0
H2371 H 0.09828 0.41169 0.40329 0.0
H2372 H 0.05392 0.46699 0.4312 0.0
H2373 H 0.06093 0.49962 0.46229 0.0
C2374 C 0.45108 0.26941 0.2368 0.0
C2375 C 0.47287 0.29557 0.23385 0.0
C2376 C 0.44622 0.32982 0.26736 0.0
C2377 C 0.42497 0.30369 0.2716 0.0
N2378 N 0.41217 0.24871 0.26757 0.0
N2379 N 0.49695 0.34898 0.25577 0.0
C2380 C 0.42911 0.27345 0.25868 0.0
C2381 C 0.47233 0.32523 0.25221 0.0
N2382 N 0.4503 0.24108 0.21768 0.0
N2383 N 0.44056 0.35888 0.27514 0.0
H2384 H 0.51709 0.34632 0.24609 0.0
H2385 H 0.49852 0.37027 0.2714 0.0
H2386 H 0.42081 0.36356 0.28416 0.0
H2387 H 0.45394 0.37793 0.26907 0.0
H2388 H 0.43295 0.22193 0.21659 0.0
H2389 H 0.46556 0.23729 0.20085 0.0
H2390 H 0.41576 0.22629 0.26096 0.0
H2391 H 0.39669 0.25129 0.28441 0.0
C2392 C 0.6741 0.5873 0.41557 0.0
C2393 C 0.66562 0.56092 0.38907 0.0
C2394 C 0.62311 0.54234 0.42203 0.0
C2395 C 0.63252 0.56768 0.44964 0.0
N2396 N 0.66529 0.61863 0.46617 0.0
N2397 N 0.63434 0.50987 0.37306 0.0
C2398 C 0.6577 0.59107 0.44447 0.0
C2399 C 0.64065 0.53779 0.39417 0.0
N2400 N 0.6989 0.60929 0.41376 0.0
N2401 N 0.59536 0.52348 0.42061 0.0
H2402 H 0.64627 0.50497 0.35338 0.0
H2403 H 0.61969 0.49049 0.37697 0.0
H2404 H 0.58039 0.52723 0.43768 0.0
H2405 H 0.58526 0.50695 0.4004 0.0
H2406 H 0.71083 0.62542 0.43337 0.0
H2407 H 0.70873 0.61059 0.39277 0.0
H2408 H 0.67897 0.63841 0.46196 0.0
H2409 H 0.65638 0.62324 0.48772 0.0
C2410 C 0.35172 0.97187 0.1239 0.0
C2411 C 0.32527 0.96293 0.10204 0.0
C2412 C 0.30553 0.92093 0.12811 0.0
C2413 C 0.33152 0.93064 0.15045 0.0
N2414 N 0.37528 0.96967 0.17482 0.0
N2415 N 0.27401 0.93381 0.08787 0.0
C2416 C 0.35324 0.95761 0.15007 0.0
C2417 C 0.30119 0.93896 0.1056 0.0
N2418 N 0.37639 0.99215 0.11849 0.0
N2419 N 0.28568 0.89379 0.12746 0.0
H2420 H 0.26999 0.94668 0.07127 0.0
H2421 H 0.25467 0.91884 0.09165 0.0
H2422 H 0.2878 0.88019 0.14389 0.0
H2423 H 0.26831 0.88364 0.10937 0.0
H2424 H 0.39749 0.99585 0.13111 0.0
H2425 H 0.37682 1.00301 0.09951 0.0
H2426 H 0.38967 0.99119 0.17749 0.0
H2427 H 0.3772 0.95961 0.1943 0.0
C2428 C 1.0169 0.58603 0.92779 0.0
C2429 C 0.98577 0.57816 0.93195 0.0
C2430 C 0.99795 0.56888 0.98423 0.0
C2431 C 0.02936 0.57786 0.98076 0.0
N2432 N 0.0683 0.60248 0.95283 0.0
N2433 N 0.94644 0.56927 0.96618 0.0
C2434 C 0.03878 0.58864 0.95356 0.0
C2435 C 0.97627 0.57224 0.96102 0.0
N2436 N 0.02553 0.59042 0.89898 0.0
N2437 N 0.98865 0.5551 1.00841 0.0
H2438 H 0.92986 0.57094 0.94927 0.0
H2439 H 0.93855 0.568 0.98814 0.0
H2440 H 1.00333 0.55068 0.02543 0.0
H2441 H 0.96621 0.54503 1.00987 0.0
H2442 H 0.04774 0.59228 0.89321 0.0
H2443 H 1.01014 0.59055 0.88016 0.0
H2444 H 0.0758 0.61356 0.93498 0.0
H2445 H 0.08489 0.60562 0.97158 0.0
C2446 C 0.29386 0.26045 0.64079 0.0
C2447 C 0.31337 0.27527 0.62135 0.0
C2448 C 0.33937 0.31302 0.66957 0.0
C2449 C 0.32221 0.2959 0.68909 0.0
N2450 N 0.28642 0.25003 0.69296 0.0
N2451 N 0.35753 0.31351 0.61778 0.0
C2452 C 0.30022 0.26882 0.67459 0.0
C2453 C 0.33677 0.30116 0.63587 0.0
N2454 N 0.26861 0.23884 0.62694 0.0
N2455 N 0.3576 0.34107 0.68315 0.0
H2456 H 0.35653 0.30561 0.59324 0.0
H2457 H 0.37709 0.32992 0.62736 0.0
H2458 H 0.35997 0.35046 0.70756 0.0
H2459 H 0.36824 0.35623 0.67007 0.0
H2460 H 0.25185 0.22947 0.63981 0.0
H2461 H 0.2628 0.23259 0.60242 0.0
H2462 H 0.2729 0.22823 0.68356 0.0
H2463 H 0.2907 0.25483 0.71763 0.0
C2464 C 0.67521 0.54318 0.17063 0.0
C2465 C 0.66499 0.55322 0.2013 0.0
C2466 C 0.62172 0.56634 0.16986 0.0
C2467 C 0.63394 0.55981 0.13962 0.0
N2468 N 0.6782 0.54784 0.11548 0.0
N2469 N 0.6301 0.58126 0.22792 0.0
C2470 C 0.66224 0.54974 0.14141 0.0
C2471 C 0.63863 0.56657 0.20006 0.0
N2472 N 0.69682 0.52583 0.16869 0.0
N2473 N 0.59289 0.57106 0.17013 0.0
H2474 H 0.64172 0.58316 0.24995 0.0
H2475 H 0.61362 0.59451 0.2289 0.0
H2476 H 0.57937 0.57017 0.14956 0.0
H2477 H 0.58123 0.57235 0.19031 0.0
H2478 H 0.70299 0.51477 0.14716 0.0
H2479 H 0.70603 0.5195 0.18834 0.0
H2480 H 0.70022 0.54422 0.11596 0.0
H2481 H 0.67097 0.55346 0.09459 0.0
C2482 C 0.30409 0.91875 0.91158 0.0
C2483 C 0.32781 0.93094 0.93644 0.0
C2484 C 0.35782 0.89493 0.90895 0.0
C2485 C 0.33305 0.88093 0.88542 0.0
N2486 N 0.28099 0.87734 0.86663 0.0
N2487 N 0.37681 0.92966 0.96017 0.0
C2488 C 0.30573 0.89223 0.88747 0.0
C2489 C 0.35453 0.91868 0.93547 0.0
N2490 N 0.2801 0.9329 0.91066 0.0
N2491 N 0.38471 0.88574 0.90572 0.0
H2492 H 0.37634 0.94839 0.97871 0.0
H2493 H 0.39513 0.91945 0.96323 0.0
H2494 H 0.38737 0.8672 0.888 0.0
H2495 H 0.40481 0.89729 0.91949 0.0
H2496 H 0.26384 0.92786 0.89129 0.0
H2497 H 0.2777 0.95161 0.92832 0.0
H2498 H 0.25953 0.88208 0.86875 0.0
H2499 H 0.28118 0.85833 0.84851 0.0
C2500 C 1.0023 0.53203 0.77946 0.0
C2501 C 0.98567 0.55584 0.78466 0.0
C2502 C 1.0109 0.57833 0.74382 0.0
C2503 C 1.0235 0.55183 0.73527 0.0
N2504 N 0.02785 0.50106 0.74189 0.0
N2505 N 0.9709 0.59957 0.76863 0.0
C2506 C 1.01839 0.528 0.75229 0.0
C2507 C 0.98922 0.57865 0.76619 0.0
N2508 N 1.00375 0.51407 0.80113 0.0
N2509 N 1.02005 0.60341 0.73097 0.0
H2510 H 0.95427 0.60055 0.78426 0.0
H2511 H 0.97033 0.61425 0.75304 0.0
H2512 H 0.03617 0.60409 0.71466 0.0
H2513 H 1.0139 0.62453 0.73881 0.0
H2514 H 1.01788 0.49832 0.79989 0.0
H2515 H 0.99351 0.51733 0.82224 0.0
H2516 H 1.02174 0.48169 0.75151 0.0
H2517 H 0.03956 0.49703 0.72185 0.0
C2518 C 0.34396 0.25772 0.41932 0.0
C2519 C 0.32296 0.26888 0.43978 0.0
C2520 C 0.31598 0.30491 0.40528 0.0
C2521 C 0.33474 0.29168 0.3832 0.0
N2522 N 0.36378 0.25266 0.36774 0.0
N2523 N 0.28481 0.29926 0.44858 0.0
C2524 C 0.34768 0.26709 0.38973 0.0
C2525 C 0.30801 0.29159 0.43185 0.0
N2526 N 0.36184 0.23956 0.429 0.0
N2527 N 0.30556 0.3303 0.40097 0.0
H2528 H 0.27757 0.28944 0.46737 0.0
H2529 H 0.27075 0.31308 0.44207 0.0
H2530 H 0.30918 0.33983 0.38126 0.0
H2531 H 0.29507 0.3433 0.41803 0.0
H2532 H 0.37974 0.23332 0.41694 0.0
H2533 H 0.36089 0.23321 0.45083 0.0
H2534 H 0.37035 0.23208 0.36898 0.0
H2535 H 0.36903 0.26021 0.34709 0.0
C2536 C 0.4505 0.58838 0.57252 0.0
C2537 C 0.4394 0.60969 0.55718 0.0
C2538 C 0.48832 0.61695 0.53219 0.0
C2539 C 0.49829 0.59369 0.54538 0.0
N2540 N 0.48488 0.55351 0.57442 0.0
N2541 N 0.44627 0.63873 0.51623 0.0
C2542 C 0.478 0.57817 0.56414 0.0
C2543 C 0.45807 0.62253 0.53545 0.0
N2544 N 0.43588 0.57918 0.59683 0.0
N2545 N 0.5077 0.63385 0.51612 0.0
H2546 H 0.42411 0.64193 0.51633 0.0
H2547 H 0.45715 0.64601 0.49768 0.0
H2548 H 0.52882 0.62922 0.51117 0.0
H2549 H 0.50356 0.65361 0.50942 0.0
H2550 H 0.44468 0.56699 0.61178 0.0
H2551 H 0.41646 0.58645 0.60427 0.0
H2552 H 0.46967 0.53901 0.58476 0.0
H2553 H 0.50484 0.54592 0.57043 0.0
C2554 C 0.95268 0.99288 0.55312 0.0
C2555 C 0.95408 0.96994 0.57098 0.0
C2556 C 1.00908 0.98971 0.58268 0.0
C2557 C 1.00705 1.01413 0.56706 0.0
N2558 N 0.97603 0.04214 0.54228 0.0
N2559 N 0.98282 0.94932 0.60678 0.0
C2560 C 0.97852 1.01682 0.55406 0.0
C2561 C 0.98212 0.96904 0.5868 0.0
N2562 N 0.92729 0.99063 0.53335 0.0
N2563 N 0.03684 0.98619 0.59348 0.0
H2564 H 0.96356 0.93423 0.61066 0.0
H2565 H 1.00188 0.9496 0.62151 0.0
H2566 H 0.05683 1.00191 0.59277 0.0
H2567 H 0.04025 0.96687 0.60155 0.0
H2568 H 0.92613 1.00465 0.5172 0.0
H2569 H 0.9084 0.97261 0.53033 0.0
H2570 H 0.95535 0.04709 0.53582 0.0
H2571 H 0.99447 0.05968 0.54146 0.0
C2572 C 0.88907 0.18356 0.31526 0.0
C2573 C 0.91464 0.17778 0.29773 0.0
C2574 C 0.90906 0.22824 0.27981 0.0
C2575 C 0.88558 0.23583 0.29992 0.0
N2576 N 0.85915 0.21944 0.34229 0.0
N2577 N 0.95063 0.20129 0.26644 0.0
C2578 C 0.87729 0.21277 0.31879 0.0
C2579 C 0.92502 0.20239 0.28139 0.0
N2580 N 0.87545 0.16084 0.3293 0.0
N2581 N 0.91507 0.24441 0.25675 0.0
H2582 H 0.96154 0.18285 0.26477 0.0
H2583 H 0.96221 0.21969 0.25785 0.0
H2584 H 0.90323 0.26108 0.25304 0.0
H2585 H 0.92885 0.23874 0.23892 0.0
H2586 H 0.8547 0.16061 0.33857 0.0
H2587 H 0.88383 0.141 0.32953 0.0
H2588 H 0.85464 0.20644 0.35939 0.0
H2589 H 0.85153 0.24004 0.3471 0.0
C2590 C 0.73796 0.07623 0.04466 0.0
C2591 C 0.75492 0.10464 0.06384 0.0
C2592 C 0.70604 0.11896 0.07815 0.0
C2593 C 0.689 0.09149 0.0573 0.0
N2594 N 0.68949 0.04487 1.01867 0.0
N2595 N 0.75412 0.15577 0.09362 0.0
C2596 C 0.7053 0.07054 0.03988 0.0
C2597 C 0.73862 0.12658 0.07939 0.0
N2598 N 0.75307 0.0539 0.03207 0.0
N2599 N 0.69107 0.13817 0.09682 0.0
H2600 H 0.77747 0.1628 0.09411 0.0
H2601 H 0.74372 0.17399 0.10225 0.0
H2602 H 0.66757 0.13492 0.09501 0.0
H2603 H 0.70181 0.15622 0.1155 0.0
H2604 H 0.74248 0.03142 0.02072 0.0
H2605 H 0.77656 0.05711 0.03521 0.0
H2606 H 0.6994 0.03073 1.00206 0.0
H2607 H 0.66601 0.03845 1.01658 0.0
C2608 C 0.35795 0.53605 0.23932 0.0
C2609 C 0.32933 0.52023 0.22277 0.0
C2610 C 0.33825 0.47116 0.23218 0.0
C2611 C 0.3658 0.48728 0.25059 0.0
N2612 N 0.4066 0.53178 0.26255 0.0
N2613 N 0.29785 0.47251 0.19355 0.0
C2614 C 0.37733 0.51865 0.25076 0.0
C2615 C 0.32156 0.48758 0.21568 0.0
N2616 N 0.36567 0.56763 0.24656 0.0
N2617 N 0.32681 0.44094 0.2324 0.0
H2618 H 0.28554 0.48439 0.18113 0.0
H2619 H 0.29255 0.44859 0.18525 0.0
H2620 H 0.33828 0.42777 0.24388 0.0
H2621 H 0.30501 0.42942 0.22281 0.0
H2622 H 0.3842 0.58018 0.26236 0.0
H2623 H 0.35298 0.58167 0.23817 0.0
H2624 H 0.41735 0.55387 0.26087 0.0
H2625 H 0.42098 0.51922 0.27116 0.0
C2626 C 0.29286 0.45449 0.02287 0.0
C2627 C 0.29321 0.43932 0.04853 0.0
C2628 C 0.24372 0.45021 0.06121 0.0
C2629 C 0.24372 0.46573 0.03583 0.0
N2630 N 0.26366 0.476 0.9878 0.0
N2631 N 0.2681 0.41897 0.08971 0.0
C2632 C 0.26692 0.46578 1.0152 0.0
C2633 C 0.26821 0.43582 0.06683 0.0
N2634 N 0.31761 0.45872 1.00625 0.0
N2635 N 0.22076 0.45014 0.08041 0.0
H2636 H 0.28645 0.40979 0.09569 0.0
H2637 H 0.24952 0.41278 0.10187 0.0
H2638 H 0.20141 0.45817 0.07528 0.0
H2639 H 0.22096 0.44289 0.10172 0.0
H2640 H 0.32029 0.4729 0.99003 0.0
H2641 H 0.33652 0.44946 1.00986 0.0
H2642 H 0.27812 0.47373 0.96997 0.0
H2643 H 0.24475 0.48422 0.98141 0.0
C2644 C 0.87973 0.97244 0.27262 0.0
C2645 C 0.90857 0.9881 0.29002 0.0
C2646 C 0.90631 0.93855 0.31065 0.0
C2647 C 0.87884 0.922 0.29118 0.0
N2648 N 0.8427 0.92429 0.24941 0.0
N2649 N 0.94988 0.98221 0.32421 0.0
C2650 C 0.86648 0.93958 0.27134 0.0
C2651 C 0.9219 0.96974 0.30829 0.0
N2652 N 0.86454 0.98896 0.25677 0.0
N2653 N 0.91688 0.92526 0.33344 0.0
H2654 H 0.96064 1.0052 0.32646 0.0
H2655 H 0.96318 0.96935 0.33385 0.0
H2656 H 0.90627 0.90369 0.33675 0.0
H2657 H 0.9342 0.93671 0.35117 0.0
H2658 H 0.84209 0.98122 0.2472 0.0
H2659 H 0.87379 1.01142 0.25495 0.0
H2660 H 0.83442 0.93367 0.23155 0.0
H2661 H 0.83301 0.90097 0.2471 0.0
C2662 C 0.77466 0.18259 0.75728 0.0
C2663 C 0.79835 0.16712 0.749 0.0
C2664 C 0.83392 0.21666 0.75586 0.0
C2665 C 0.81111 0.2317 0.76861 0.0
N2666 N 0.7605 0.22897 0.7847 0.0
N2667 N 0.85061 0.16813 0.74104 0.0
C2668 C 0.78167 0.21469 0.77018 0.0
C2669 C 0.82804 0.18378 0.74814 0.0
N2670 N 0.74527 0.16668 0.75199 0.0
N2671 N 0.86107 0.23377 0.75137 0.0
H2672 H 0.84659 0.14405 0.73435 0.0
H2673 H 0.8734 0.17876 0.74334 0.0
H2674 H 0.86637 0.25786 0.7577 0.0
H2675 H 0.87758 0.2243 0.73949 0.0
H2676 H 0.72682 0.17729 0.75428 0.0
H2677 H 0.73919 0.14308 0.74217 0.0
H2678 H 0.74021 0.21699 0.79036 0.0
H2679 H 0.76389 0.25276 0.79309 0.0
loop_
_geom_bond_atom_site_label_1
_geom_bond_atom_site_label_2
_geom_bond_distance
_geom_bond_site_symmetry_2
_ccdc_geom_bond_type
In0 O1 2.294 . S
In0 O2 2.326 . S
In0 O6 2.266 . S
In0 O7 2.326 . S
In0 O8 2.266 . S
In0 O9 2.326 . S
In0 O11 2.294 . S
In0 O12 2.326 . S
O1 In0 2.294 . S
O1 C10 1.240 . S
O2 In0 2.326 . S
O2 C10 1.252 . S
C3 O6 1.252 . S
C3 O7 1.260 . S
C4 O11 1.240 . S
C4 O12 1.252 . S
C5 O8 1.252 . S
C5 O9 1.260 . S
O6 In0 2.266 . S
O6 C3 1.252 . S
O7 In0 2.326 . S
O7 C3 1.260 . S
O8 In0 2.266 . S
O8 C5 1.252 . S
O9 In0 2.326 . S
O9 C5 1.260 . S
C10 O1 1.240 . S
C10 O2 1.252 . S
O11 In0 2.294 . S
O11 C4 1.240 . S
O12 In0 2.326 . S
O12 C4 1.252 . S
In13 O14 2.294 . S
In13 O15 2.326 . S
In13 O19 2.266 1_455 S
In13 O20 2.326 1_455 S
In13 O21 2.264 1_455 S
In13 O22 2.322 1_455 S
In13 O24 2.296 . S
In13 O25 2.330 . S
O14 In13 2.294 . S
O14 C23 1.240 . S
O15 In13 2.326 . S
O15 C23 1.252 . S
C16 O19 1.252 . S
C16 O20 1.260 . S
C17 O24 1.240 . S
C17 O25 1.252 . S
C18 O21 1.252 . S
C18 O22 1.260 . S
O19 In13 2.266 1_655 S
O19 C16 1.252 . S
O20 In13 2.326 1_655 S
O20 C16 1.260 . S
O21 In13 2.264 1_655 S
O21 C18 1.252 . S
O22 In13 2.322 1_655 S
O22 C18 1.260 . S
C23 O14 1.240 . S
C23 O15 1.252 . S
O24 In13 2.296 . S
O24 C17 1.240 . S
O25 In13 2.330 . S
O25 C17 1.252 . S
In26 O27 2.294 . S
In26 O28 2.326 . S
In26 O32 2.266 . S
In26 O33 2.326 . S
In26 O34 2.266 . S
In26 O35 2.326 . S
In26 O37 2.294 . S
In26 O38 2.326 . S
O27 In26 2.294 . S
O27 C36 1.240 . S
O28 In26 2.326 . S
O28 C36 1.252 . S
C29 O32 1.252 . S
C29 O33 1.260 . S
C30 O37 1.240 . S
C30 O38 1.252 . S
C31 O34 1.252 . S
C31 O35 1.260 . S
O32 In26 2.266 . S
O32 C29 1.252 . S
O33 In26 2.326 . S
O33 C29 1.260 . S
O34 In26 2.266 . S
O34 C31 1.252 . S
O35 In26 2.326 . S
O35 C31 1.260 . S
C36 O27 1.240 . S
C36 O28 1.252 . S
O37 In26 2.294 . S
O37 C30 1.240 . S
O38 In26 2.326 . S
O38 C30 1.252 . S
In39 O40 2.294 . S
In39 O41 2.326 . S
In39 O45 2.266 . S
In39 O46 2.326 . S
In39 O47 2.266 . S
In39 O48 2.326 . S
In39 O50 2.294 . S
In39 O51 2.326 . S
O40 In39 2.294 . S
O40 C49 1.240 . S
O41 In39 2.326 . S
O41 C49 1.252 . S
C42 O45 1.252 . S
C42 O46 1.260 . S
C43 O50 1.240 . S
C43 O51 1.252 . S
C44 O47 1.252 . S
C44 O48 1.260 . S
O45 In39 2.266 . S
O45 C42 1.252 . S
O46 In39 2.326 . S
O46 C42 1.260 . S
O47 In39 2.266 . S
O47 C44 1.252 . S
O48 In39 2.326 . S
O48 C44 1.260 . S
C49 O40 1.240 . S
C49 O41 1.252 . S
O50 In39 2.294 . S
O50 C43 1.240 . S
O51 In39 2.326 . S
O51 C43 1.252 . S
In52 O53 2.294 . S
In52 O54 2.326 . S
In52 O58 2.266 . S
In52 O59 2.326 . S
In52 O60 2.266 . S
In52 O61 2.326 . S
In52 O63 2.294 . S
In52 O64 2.326 . S
O53 In52 2.294 . S
O53 C62 1.240 . S
O54 In52 2.326 . S
O54 C62 1.252 . S
C55 O58 1.252 . S
C55 O59 1.260 . S
C56 O63 1.240 . S
C56 O64 1.252 . S
C57 O60 1.252 . S
C57 O61 1.260 . S
O58 In52 2.266 . S
O58 C55 1.252 . S
O59 In52 2.326 . S
O59 C55 1.260 . S
O60 In52 2.266 . S
O60 C57 1.252 . S
O61 In52 2.326 . S
O61 C57 1.260 . S
C62 O53 1.240 . S
C62 O54 1.252 . S
O63 In52 2.294 . S
O63 C56 1.240 . S
O64 In52 2.326 . S
O64 C56 1.252 . S
In65 O66 2.294 . S
In65 O67 2.326 . S
In65 O71 2.266 . S
In65 O72 2.326 . S
In65 O73 2.266 . S
In65 O74 2.326 . S
In65 O76 2.294 . S
In65 O77 2.326 . S
O66 In65 2.294 . S
O66 C75 1.240 . S
O67 In65 2.326 . S
O67 C75 1.252 . S
C68 O71 1.252 . S
C68 O72 1.260 . S
C69 O76 1.240 . S
C69 O77 1.252 . S
C70 O73 1.252 . S
C70 O74 1.260 . S
O71 In65 2.266 . S
O71 C68 1.252 . S
O72 In65 2.326 . S
O72 C68 1.260 . S
O73 In65 2.266 . S
O73 C70 1.252 . S
O74 In65 2.326 . S
O74 C70 1.260 . S
C75 O66 1.240 . S
C75 O67 1.252 . S
O76 In65 2.294 . S
O76 C69 1.240 . S
O77 In65 2.326 . S
O77 C69 1.252 . S
In78 O79 2.294 . S
In78 O80 2.326 . S
In78 O84 2.266 . S
In78 O85 2.326 . S
In78 O86 2.266 . S
In78 O87 2.326 . S
In78 O89 2.294 . S
In78 O90 2.326 . S
O79 In78 2.294 . S
O79 C88 1.240 . S
O80 In78 2.326 . S
O80 C88 1.252 . S
C81 O84 1.252 . S
C81 O85 1.260 . S
C82 O89 1.240 . S
C82 O90 1.252 . S
C83 O86 1.252 . S
C83 O87 1.260 . S
O84 In78 2.266 . S
O84 C81 1.252 . S
O85 In78 2.326 . S
O85 C81 1.260 . S
O86 In78 2.266 . S
O86 C83 1.252 . S
O87 In78 2.326 . S
O87 C83 1.260 . S
C88 O79 1.240 . S
C88 O80 1.252 . S
O89 In78 2.294 . S
O89 C82 1.240 . S
O90 In78 2.326 . S
O90 C82 1.252 . S
In91 O92 2.294 . S
In91 O93 2.326 . S
In91 O97 2.266 . S
In91 O98 2.326 . S
In91 O99 2.266 1_455 S
In91 O100 2.326 1_455 S
In91 O102 2.294 . S
In91 O103 2.326 . S
O92 In91 2.294 . S
O92 C101 1.240 . S
O93 In91 2.326 . S
O93 C101 1.252 . S
C94 O97 1.252 . S
C94 O98 1.260 . S
C95 O102 1.240 . S
C95 O103 1.252 . S
C96 O99 1.252 . S
C96 O100 1.260 . S
O97 In91 2.266 . S
O97 C94 1.252 . S
O98 In91 2.326 . S
O98 C94 1.260 . S
O99 In91 2.266 1_655 S
O99 C96 1.252 . S
O100 In91 2.326 1_655 S
O100 C96 1.260 . S
C101 O92 1.240 . S
C101 O93 1.252 . S
O102 In91 2.294 . S
O102 C95 1.240 . S
O103 In91 2.326 . S
O103 C95 1.252 . S
In104 O105 2.295 . S
In104 O106 2.328 1_545 S
In104 O110 2.264 . S
In104 O111 2.324 . S
In104 O112 2.260 1_545 S
In104 O113 2.315 1_545 S
In104 O115 2.301 . S
In104 O116 2.336 . S
O105 In104 2.295 . S
O105 C114 1.240 . S
O106 In104 2.328 1_565 S
O106 C114 1.252 1_565 S
C107 O110 1.252 . S
C107 O111 1.260 . S
C108 O115 1.240 . S
C108 O116 1.252 . S
C109 O112 1.252 . S
C109 O113 1.260 . S
O110 In104 2.264 . S
O110 C107 1.252 . S
O111 In104 2.324 . S
O111 C107 1.260 . S
O112 In104 2.260 1_565 S
O112 C109 1.252 . S
O113 In104 2.315 1_565 S
O113 C109 1.260 . S
C114 O105 1.240 . S
C114 O106 1.252 1_545 S
O115 In104 2.301 . S
O115 C108 1.240 . S
O116 In104 2.336 . S
O116 C108 1.252 . S
In117 O118 2.294 . S
In117 O119 2.326 . S
In117 O123 2.266 . S
In117 O124 2.326 . S
In117 O125 2.266 . S
In117 O126 2.326 . S
In117 O128 2.294 . S
In117 O129 2.326 . S
O118 In117 2.294 . S
O118 C127 1.240 . S
O119 In117 2.326 . S
O119 C127 1.252 . S
C120 O123 1.252 . S
C120 O124 1.260 . S
C121 O128 1.240 . S
C121 O129 1.252 . S
C122 O125 1.252 . S
C122 O126 1.260 . S
O123 In117 2.266 . S
O123 C120 1.252 . S
O124 In117 2.326 . S
O124 C120 1.260 . S
O125 In117 2.266 . S
O125 C122 1.252 . S
O126 In117 2.326 . S
O126 C122 1.260 . S
C127 O118 1.240 . S
C127 O119 1.252 . S
O128 In117 2.294 . S
O128 C121 1.240 . S
O129 In117 2.326 . S
O129 C121 1.252 . S
In130 O131 2.294 . S
In130 O132 2.326 . S
In130 O136 2.266 . S
In130 O137 2.326 . S
In130 O138 2.266 . S
In130 O139 2.326 . S
In130 O141 2.294 1_545 S
In130 O142 2.326 1_545 S
O131 In130 2.294 . S
O131 C140 1.240 . S
O132 In130 2.326 . S
O132 C140 1.252 . S
C133 O136 1.252 . S
C133 O137 1.260 . S
C134 O141 1.240 . S
C134 O142 1.252 . S
C135 O138 1.252 . S
C135 O139 1.260 . S
O136 In130 2.266 . S
O136 C133 1.252 . S
O137 In130 2.326 . S
O137 C133 1.260 . S
O138 In130 2.266 . S
O138 C135 1.252 . S
O139 In130 2.326 . S
O139 C135 1.260 . S
C140 O131 1.240 . S
C140 O132 1.252 . S
O141 In130 2.294 1_565 S
O141 C134 1.240 . S
O142 In130 2.326 1_565 S
O142 C134 1.252 . S
In143 O144 2.294 . S
In143 O145 2.326 . S
In143 O149 2.266 1_554 S
In143 O150 2.326 1_554 S
In143 O151 2.266 1_565 S
In143 O152 2.326 . S
In143 O154 2.305 . S
In143 O155 2.326 . S
O144 In143 2.294 . S
O144 C153 1.240 . S
O145 In143 2.326 . S
O145 C153 1.252 . S
C146 O149 1.252 . S
C146 O150 1.260 . S
C147 O154 1.246 . S
C147 O155 1.252 . S
C148 O151 1.252 1_565 S
C148 O152 1.260 . S
O149 In143 2.266 1_556 S
O149 C146 1.252 . S
O150 In143 2.326 1_556 S
O150 C146 1.260 . S
O151 In143 2.266 1_545 S
O151 C148 1.252 1_545 S
O152 In143 2.326 . S
O152 C148 1.260 . S
C153 O144 1.240 . S
C153 O145 1.252 . S
O154 In143 2.305 . S
O154 C147 1.246 . S
O155 In143 2.326 . S
O155 C147 1.252 . S
In156 O157 2.294 . S
In156 O158 2.326 . S
In156 O162 2.266 1_554 S
In156 O163 2.326 1_554 S
In156 O164 2.266 . S
In156 O165 2.326 . S
In156 O167 2.294 . S
In156 O168 2.326 . S
O157 In156 2.294 . S
O157 C166 1.240 . S
O158 In156 2.326 . S
O158 C166 1.252 . S
C159 O162 1.252 . S
C159 O163 1.260 . S
C160 O167 1.240 . S
C160 O168 1.252 . S
C161 O164 1.252 . S
C161 O165 1.260 . S
O162 In156 2.266 1_556 S
O162 C159 1.252 . S
O163 In156 2.326 1_556 S
O163 C159 1.260 . S
O164 In156 2.266 . S
O164 C161 1.252 . S
O165 In156 2.326 . S
O165 C161 1.260 . S
C166 O157 1.240 . S
C166 O158 1.252 . S
O167 In156 2.294 . S
O167 C160 1.240 . S
O168 In156 2.326 . S
O168 C160 1.252 . S
In169 O170 2.294 . S
In169 O171 2.326 . S
In169 O175 2.266 . S
In169 O176 2.326 . S
In169 O177 2.266 . S
In169 O178 2.326 1_554 S
In169 O180 2.294 . S
In169 O181 2.326 . S
O170 In169 2.294 . S
O170 C179 1.240 . S
O171 In169 2.326 . S
O171 C179 1.252 . S
C172 O175 1.252 . S
C172 O176 1.260 . S
C173 O180 1.240 . S
C173 O181 1.252 . S
C174 O177 1.252 1_556 S
C174 O178 1.260 . S
O175 In169 2.266 . S
O175 C172 1.252 . S
O176 In169 2.326 . S
O176 C172 1.260 . S
O177 In169 2.266 . S
O177 C174 1.252 1_554 S
O178 In169 2.326 1_556 S
O178 C174 1.260 . S
C179 O170 1.240 . S
C179 O171 1.252 . S
O180 In169 2.294 . S
O180 C173 1.240 . S
O181 In169 2.326 . S
O181 C173 1.252 . S
In182 O183 2.294 . S
In182 O184 2.326 . S
In182 O188 2.266 . S
In182 O189 2.326 . S
In182 O190 2.266 . S
In182 O191 2.326 . S
In182 O193 2.294 . S
In182 O194 2.326 . S
O183 In182 2.294 . S
O183 C192 1.240 . S
O184 In182 2.326 . S
O184 C192 1.252 . S
C185 O188 1.252 . S
C185 O189 1.260 . S
C186 O193 1.240 . S
C186 O194 1.252 . S
C187 O190 1.252 . S
C187 O191 1.260 . S
O188 In182 2.266 . S
O188 C185 1.252 . S
O189 In182 2.326 . S
O189 C185 1.260 . S
O190 In182 2.266 . S
O190 C187 1.252 . S
O191 In182 2.326 . S
O191 C187 1.260 . S
C192 O183 1.240 . S
C192 O184 1.252 . S
O193 In182 2.294 . S
O193 C186 1.240 . S
O194 In182 2.326 . S
O194 C186 1.252 . S
In195 O196 2.294 . S
In195 O197 2.326 . S
In195 O201 2.266 . S
In195 O202 2.326 . S
In195 O203 2.266 . S
In195 O204 2.326 . S
In195 O206 2.294 . S
In195 O207 2.326 . S
O196 In195 2.294 . S
O196 C205 1.240 . S
O197 In195 2.326 . S
O197 C205 1.252 . S
C198 O201 1.252 . S
C198 O202 1.260 . S
C199 O206 1.240 . S
C199 O207 1.252 . S
C200 O203 1.252 . S
C200 O204 1.260 . S
O201 In195 2.266 . S
O201 C198 1.252 . S
O202 In195 2.326 . S
O202 C198 1.260 . S
O203 In195 2.266 . S
O203 C200 1.252 . S
O204 In195 2.326 . S
O204 C200 1.260 . S
C205 O196 1.240 . S
C205 O197 1.252 . S
O206 In195 2.294 . S
O206 C199 1.240 . S
O207 In195 2.326 . S
O207 C199 1.252 . S
In208 O209 2.294 . S
In208 O210 2.326 . S
In208 O214 2.266 . S
In208 O215 2.326 . S
In208 O216 2.266 . S
In208 O217 2.326 . S
In208 O219 2.294 . S
In208 O220 2.326 . S
O209 In208 2.294 . S
O209 C218 1.240 . S
O210 In208 2.326 . S
O210 C218 1.252 . S
C211 O214 1.252 . S
C211 O215 1.260 . S
C212 O219 1.240 . S
C212 O220 1.252 . S
C213 O216 1.252 . S
C213 O217 1.260 . S
O214 In208 2.266 . S
O214 C211 1.252 . S
O215 In208 2.326 . S
O215 C211 1.260 . S
O216 In208 2.266 . S
O216 C213 1.252 . S
O217 In208 2.326 . S
O217 C213 1.260 . S
C218 O209 1.240 . S
C218 O210 1.252 . S
O219 In208 2.294 . S
O219 C212 1.240 . S
O220 In208 2.326 . S
O220 C212 1.252 . S
In221 O222 2.294 . S
In221 O223 2.326 . S
In221 O227 2.266 . S
In221 O228 2.326 . S
In221 O229 2.266 . S
In221 O230 2.326 . S
In221 O232 2.294 . S
In221 O233 2.326 . S
O222 In221 2.294 . S
O222 C231 1.240 . S
O223 In221 2.326 . S
O223 C231 1.252 . S
C224 O227 1.252 . S
C224 O228 1.260 . S
C225 O232 1.240 . S
C225 O233 1.252 . S
C226 O229 1.252 . S
C226 O230 1.260 . S
O227 In221 2.266 . S
O227 C224 1.252 . S
O228 In221 2.326 . S
O228 C224 1.260 . S
O229 In221 2.266 . S
O229 C226 1.252 . S
O230 In221 2.326 . S
O230 C226 1.260 . S
C231 O222 1.240 . S
C231 O223 1.252 . S
O232 In221 2.294 . S
O232 C225 1.240 . S
O233 In221 2.326 . S
O233 C225 1.252 . S
In234 O235 2.294 . S
In234 O236 2.326 . S
In234 O240 2.266 . S
In234 O241 2.326 . S
In234 O242 2.266 . S
In234 O243 2.326 . S
In234 O245 2.294 . S
In234 O246 2.326 . S
O235 In234 2.294 . S
O235 C244 1.240 . S
O236 In234 2.326 . S
O236 C244 1.252 . S
C237 O240 1.252 . S
C237 O241 1.260 . S
C238 O245 1.240 . S
C238 O246 1.252 . S
C239 O242 1.252 . S
C239 O243 1.260 . S
O240 In234 2.266 . S
O240 C237 1.252 . S
O241 In234 2.326 . S
O241 C237 1.260 . S
O242 In234 2.266 . S
O242 C239 1.252 . S
O243 In234 2.326 . S
O243 C239 1.260 . S
C244 O235 1.240 . S
C244 O236 1.252 . S
O245 In234 2.294 . S
O245 C238 1.240 . S
O246 In234 2.326 . S
O246 C238 1.252 . S
In247 O248 2.294 . S
In247 O249 2.326 . S
In247 O253 2.266 . S
In247 O254 2.326 . S
In247 O255 2.266 . S
In247 O256 2.326 . S
In247 O258 2.294 . S
In247 O259 2.326 . S
O248 In247 2.294 . S
O248 C257 1.240 . S
O249 In247 2.326 . S
O249 C257 1.252 . S
C250 O253 1.252 . S
C250 O254 1.260 . S
C251 O258 1.240 . S
C251 O259 1.252 . S
C252 O255 1.252 . S
C252 O256 1.260 . S
O253 In247 2.266 . S
O253 C250 1.252 . S
O254 In247 2.326 . S
O254 C250 1.260 . S
O255 In247 2.266 . S
O255 C252 1.252 . S
O256 In247 2.326 . S
O256 C252 1.260 . S
C257 O248 1.240 . S
C257 O249 1.252 . S
O258 In247 2.294 . S
O258 C251 1.240 . S
O259 In247 2.326 . S
O259 C251 1.252 . S
In260 O261 2.294 . S
In260 O262 2.326 . S
In260 O266 2.266 . S
In260 O267 2.326 . S
In260 O268 2.266 1_554 S
In260 O269 2.326 1_554 S
In260 O271 2.294 . S
In260 O272 2.326 . S
O261 In260 2.294 . S
O261 C270 1.240 . S
O262 In260 2.326 . S
O262 C270 1.252 . S
C263 O266 1.252 . S
C263 O267 1.260 . S
C264 O271 1.240 . S
C264 O272 1.252 . S
C265 O268 1.252 . S
C265 O269 1.260 . S
O266 In260 2.266 . S
O266 C263 1.252 . S
O267 In260 2.326 . S
O267 C263 1.260 . S
O268 In260 2.266 1_556 S
O268 C265 1.252 . S
O269 In260 2.326 1_556 S
O269 C265 1.260 . S
C270 O261 1.240 . S
C270 O262 1.252 . S
O271 In260 2.294 . S
O271 C264 1.240 . S
O272 In260 2.326 . S
O272 C264 1.252 . S
In273 O274 2.294 . S
In273 O275 2.326 . S
In273 O279 2.266 . S
In273 O280 2.326 . S
In273 O281 2.266 . S
In273 O282 2.326 . S
In273 O284 2.294 . S
In273 O285 2.326 . S
O274 In273 2.294 . S
O274 C283 1.240 . S
O275 In273 2.326 . S
O275 C283 1.252 . S
C276 O279 1.252 . S
C276 O280 1.260 . S
C277 O284 1.240 . S
C277 O285 1.252 . S
C278 O281 1.252 . S
C278 O282 1.260 . S
O279 In273 2.266 . S
O279 C276 1.252 . S
O280 In273 2.326 . S
O280 C276 1.260 . S
O281 In273 2.266 . S
O281 C278 1.252 . S
O282 In273 2.326 . S
O282 C278 1.260 . S
C283 O274 1.240 . S
C283 O275 1.252 . S
O284 In273 2.294 . S
O284 C277 1.240 . S
O285 In273 2.326 . S
O285 C277 1.252 . S
In286 O287 2.294 . S
In286 O288 2.326 . S
In286 O292 2.266 . S
In286 O293 2.326 . S
In286 O294 2.266 . S
In286 O295 2.326 . S
In286 O297 2.294 . S
In286 O298 2.326 . S
O287 In286 2.294 . S
O287 C296 1.240 . S
O288 In286 2.326 . S
O288 C296 1.252 . S
C289 O292 1.252 . S
C289 O293 1.260 . S
C290 O297 1.240 . S
C290 O298 1.252 . S
C291 O294 1.252 . S
C291 O295 1.260 . S
O292 In286 2.266 . S
O292 C289 1.252 . S
O293 In286 2.326 . S
O293 C289 1.260 . S
O294 In286 2.266 . S
O294 C291 1.252 . S
O295 In286 2.326 . S
O295 C291 1.260 . S
C296 O287 1.240 . S
C296 O288 1.252 . S
O297 In286 2.294 . S
O297 C290 1.240 . S
O298 In286 2.326 . S
O298 C290 1.252 . S
In299 O300 2.294 . S
In299 O301 2.326 . S
In299 O305 2.266 . S
In299 O306 2.326 . S
In299 O307 2.266 . S
In299 O308 2.326 . S
In299 O310 2.294 . S
In299 O311 2.326 . S
O300 In299 2.294 . S
O300 C309 1.240 . S
O301 In299 2.326 . S
O301 C309 1.252 . S
C302 O305 1.252 . S
C302 O306 1.260 . S
C303 O310 1.240 . S
C303 O311 1.252 . S
C304 O307 1.252 . S
C304 O308 1.260 . S
O305 In299 2.266 . S
O305 C302 1.252 . S
O306 In299 2.326 . S
O306 C302 1.260 . S
O307 In299 2.266 . S
O307 C304 1.252 . S
O308 In299 2.326 . S
O308 C304 1.260 . S
C309 O300 1.240 . S
C309 O301 1.252 . S
O310 In299 2.294 . S
O310 C303 1.240 . S
O311 In299 2.326 . S
O311 C303 1.252 . S
Eu312 C321 2.828 . S
Eu312 O323 2.392 . S
Eu312 O325 2.418 . S
Eu312 O330 2.373 . S
Eu312 O333 2.488 . S
Eu312 O334 2.471 . S
Eu312 O335 2.349 1_554 S
Eu313 O322 2.373 . S
Eu313 O326 2.488 1_545 S
Eu313 O327 2.471 1_545 S
Eu313 O328 2.349 . S
Eu313 O331 2.392 . S
Eu313 O332 2.418 1_554 S
Eu313 C342 2.828 1_545 S
C314 O332 1.244 . S
C314 O335 1.265 . S
C315 C316 1.379 1_554 S
C315 C319 1.373 . S
C315 C321 1.505 . S
C316 C315 1.379 1_556 S
C316 C318 1.369 . S
C316 H344 0.930 . S
C317 C319 1.383 . S
C317 C320 1.382 . S
C317 H345 0.930 . S
C318 C316 1.369 . S
C318 C320 1.392 1_556 S
C318 H346 0.930 . S
C319 C315 1.373 . S
C319 C317 1.383 . S
C319 H347 0.931 . S
C320 C317 1.382 . S
C320 C318 1.392 1_554 S
C321 Eu312 2.828 . S
C321 C315 1.505 . S
C321 O333 1.249 . S
C321 O334 1.244 . S
O322 Eu313 2.373 . S
O322 C324 1.258 . S
O323 Eu312 2.392 . S
O323 C324 1.242 . S
C324 O322 1.258 . S
C324 O323 1.242 . S
O325 Eu312 2.418 . S
O325 C329 1.244 . S
O326 Eu313 2.488 1_565 S
O326 C342 1.249 . S
O327 Eu313 2.471 1_565 S
O327 C342 1.244 . S
O328 Eu313 2.349 . S
O328 C329 1.265 . S
C329 O325 1.244 . S
C329 O328 1.265 . S
O330 Eu312 2.373 . S
O330 C343 1.258 . S
O331 Eu313 2.392 . S
O331 C343 1.242 . S
O332 Eu313 2.418 1_556 S
O332 C314 1.244 . S
O333 Eu312 2.488 . S
O333 C321 1.249 . S
O334 Eu312 2.471 . S
O334 C321 1.244 . S
O335 Eu312 2.349 1_556 S
O335 C314 1.265 . S
C336 C337 1.379 . S
C336 C340 1.373 . S
C336 C342 1.505 . S
C337 C336 1.379 . S
C337 C339 1.369 . S
C337 H348 0.930 . S
C338 C340 1.383 . S
C338 C341 1.382 . S
C338 H349 0.930 . S
C339 C337 1.369 . S
C339 C341 1.392 . S
C339 H350 0.930 . S
C340 C336 1.373 . S
C340 C338 1.383 . S
C340 H351 0.954 . S
C341 C338 1.382 . S
C341 C339 1.392 . S
C342 Eu313 2.828 1_565 S
C342 O326 1.249 . S
C342 O327 1.244 . S
C342 C336 1.505 . S
C343 O330 1.258 . S
C343 O331 1.242 . S
H344 C316 0.930 . S
H345 C317 0.930 . S
H346 C318 0.930 . S
H347 C319 0.931 . S
H348 C337 0.930 . S
H349 C338 0.930 . S
H350 C339 0.930 . S
H351 C340 0.954 . S
Eu352 C361 2.828 . S
Eu352 O363 2.392 . S
Eu352 O365 2.418 . S
Eu352 O370 2.373 . S
Eu352 O373 2.488 . S
Eu352 O374 2.471 . S
Eu352 O375 2.349 . S
Eu353 O362 2.373 . S
Eu353 O366 2.488 . S
Eu353 O367 2.471 . S
Eu353 O368 2.349 . S
Eu353 O371 2.392 . S
Eu353 O372 2.418 . S
Eu353 C382 2.828 . S
C354 O372 1.244 . S
C354 O375 1.265 . S
C355 C356 1.379 . S
C355 C359 1.373 . S
C355 C361 1.505 . S
C356 C355 1.379 . S
C356 C358 1.369 . S
C356 H384 0.930 . S
C357 C359 1.383 . S
C357 C360 1.382 . S
C357 H385 0.930 . S
C358 C356 1.369 . S
C358 C360 1.392 . S
C358 H386 0.930 . S
C359 C355 1.373 . S
C359 C357 1.383 . S
C359 H387 0.931 . S
C360 C357 1.382 . S
C360 C358 1.392 . S
C361 Eu352 2.828 . S
C361 C355 1.505 . S
C361 O373 1.249 . S
C361 O374 1.244 . S
O362 Eu353 2.373 . S
O362 C364 1.258 . S
O363 Eu352 2.392 . S
O363 C364 1.242 . S
C364 O362 1.258 . S
C364 O363 1.242 . S
O365 Eu352 2.418 . S
O365 C369 1.244 . S
O366 Eu353 2.488 . S
O366 C382 1.249 . S
O367 Eu353 2.471 . S
O367 C382 1.244 . S
O368 Eu353 2.349 . S
O368 C369 1.265 . S
C369 O365 1.244 . S
C369 O368 1.265 . S
O370 Eu352 2.373 . S
O370 C383 1.258 . S
O371 Eu353 2.392 . S
O371 C383 1.242 . S
O372 Eu353 2.418 . S
O372 C354 1.244 . S
O373 Eu352 2.488 . S
O373 C361 1.249 . S
O374 Eu352 2.471 . S
O374 C361 1.244 . S
O375 Eu352 2.349 . S
O375 C354 1.265 . S
C376 C377 1.379 . S
C376 C380 1.373 . S
C376 C382 1.505 . S
C377 C376 1.379 . S
C377 C379 1.369 . S
C377 H388 0.930 . S
C378 C380 1.383 . S
C378 C381 1.382 . S
C378 H389 0.930 . S
C379 C377 1.369 . S
C379 C381 1.392 . S
C379 H390 0.930 . S
C380 C376 1.373 . S
C380 C378 1.383 . S
C380 H391 0.931 . S
C381 C378 1.382 . S
C381 C379 1.392 . S
C382 Eu353 2.828 . S
C382 O366 1.249 . S
C382 O367 1.244 . S
C382 C376 1.505 . S
C383 O370 1.258 . S
C383 O371 1.242 . S
H384 C356 0.930 . S
H385 C357 0.930 . S
H386 C358 0.930 . S
H387 C359 0.931 . S
H388 C377 0.930 . S
H389 C378 0.930 . S
H390 C379 0.930 . S
H391 C380 0.931 . S
Eu392 C401 2.828 . S
Eu392 O403 2.392 . S
Eu392 O405 2.418 . S
Eu392 O410 2.373 1_545 S
Eu392 O413 2.488 . S
Eu392 O414 2.471 . S
Eu392 O415 2.349 . S
Eu393 O402 2.373 . S
Eu393 O406 2.488 . S
Eu393 O407 2.471 . S
Eu393 O408 2.349 . S
Eu393 O411 2.392 1_545 S
Eu393 O412 2.418 . S
Eu393 C422 2.828 . S
C394 O412 1.244 . S
C394 O415 1.265 . S
C395 C396 1.379 . S
C395 C399 1.373 . S
C395 C401 1.505 1_565 S
C396 C395 1.379 . S
C396 C398 1.369 . S
C396 H424 0.930 . S
C397 C399 1.383 . S
C397 C400 1.382 . S
C397 H425 0.930 . S
C398 C396 1.369 . S
C398 C400 1.392 . S
C398 H426 0.930 . S
C399 C395 1.373 . S
C399 C397 1.383 . S
C399 H427 0.931 . S
C400 C397 1.382 . S
C400 C398 1.392 . S
C401 Eu392 2.828 . S
C401 C395 1.505 1_545 S
C401 O413 1.249 . S
C401 O414 1.244 . S
O402 Eu393 2.373 . S
O402 C404 1.258 . S
O403 Eu392 2.392 . S
O403 C404 1.242 . S
C404 O402 1.258 . S
C404 O403 1.242 . S
O405 Eu392 2.418 . S
O405 C409 1.244 . S
O406 Eu393 2.488 . S
O406 C422 1.249 . S
O407 Eu393 2.471 . S
O407 C422 1.244 . S
O408 Eu393 2.349 . S
O408 C409 1.265 . S
C409 O405 1.244 . S
C409 O408 1.265 . S
O410 Eu392 2.373 1_565 S
O410 C423 1.258 . S
O411 Eu393 2.392 1_565 S
O411 C423 1.242 . S
O412 Eu393 2.418 . S
O412 C394 1.244 . S
O413 Eu392 2.488 . S
O413 C401 1.249 . S
O414 Eu392 2.471 . S
O414 C401 1.244 . S
O415 Eu392 2.349 . S
O415 C394 1.265 . S
C416 C417 1.379 . S
C416 C420 1.373 . S
C416 C422 1.505 . S
C417 C416 1.379 . S
C417 C419 1.369 . S
C417 H428 0.930 . S
C418 C420 1.383 . S
C418 C421 1.382 . S
C418 H429 0.930 . S
C419 C417 1.369 . S
C419 C421 1.392 . S
C419 H430 0.930 . S
C420 C416 1.373 . S
C420 C418 1.383 . S
C420 H431 0.931 . S
C421 C418 1.382 . S
C421 C419 1.392 . S
C422 Eu393 2.828 . S
C422 O406 1.249 . S
C422 O407 1.244 . S
C422 C416 1.505 . S
C423 O410 1.258 . S
C423 O411 1.242 . S
H424 C396 0.930 . S
H425 C397 0.930 . S
H426 C398 0.930 . S
H427 C399 0.931 . S
H428 C417 0.930 . S
H429 C418 0.930 . S
H430 C419 0.930 . S
H431 C420 0.931 . S
Eu432 C441 2.828 . S
Eu432 O443 2.392 . S
Eu432 O445 2.418 . S
Eu432 O450 2.373 . S
Eu432 O453 2.488 . S
Eu432 O454 2.471 . S
Eu432 O455 2.349 . S
Eu433 O442 2.373 . S
Eu433 O446 2.488 . S
Eu433 O447 2.471 . S
Eu433 O448 2.349 . S
Eu433 O451 2.392 . S
Eu433 O452 2.418 . S
Eu433 C462 2.828 . S
C434 O452 1.244 . S
C434 O455 1.265 . S
C435 C436 1.379 . S
C435 C439 1.373 . S
C435 C441 1.505 . S
C436 C435 1.379 . S
C436 C438 1.369 . S
C436 H464 0.930 . S
C437 C439 1.383 . S
C437 C440 1.382 . S
C437 H465 0.930 . S
C438 C436 1.369 . S
C438 C440 1.392 . S
C438 H466 0.930 . S
C439 C435 1.373 . S
C439 C437 1.383 . S
C439 H467 0.931 . S
C440 C437 1.382 . S
C440 C438 1.392 . S
C441 Eu432 2.828 . S
C441 C435 1.505 . S
C441 O453 1.249 . S
C441 O454 1.244 . S
O442 Eu433 2.373 . S
O442 C444 1.258 . S
O443 Eu432 2.392 . S
O443 C444 1.242 . S
C444 O442 1.258 . S
C444 O443 1.242 . S
O445 Eu432 2.418 . S
O445 C449 1.244 . S
O446 Eu433 2.488 . S
O446 C462 1.249 . S
O447 Eu433 2.471 . S
O447 C462 1.244 . S
O448 Eu433 2.349 . S
O448 C449 1.265 . S
C449 O445 1.244 . S
C449 O448 1.265 . S
O450 Eu432 2.373 . S
O450 C463 1.258 . S
O451 Eu433 2.392 . S
O451 C463 1.242 . S
O452 Eu433 2.418 . S
O452 C434 1.244 . S
O453 Eu432 2.488 . S
O453 C441 1.249 . S
O454 Eu432 2.471 . S
O454 C441 1.244 . S
O455 Eu432 2.349 . S
O455 C434 1.265 . S
C456 C457 1.379 . S
C456 C460 1.373 . S
C456 C462 1.505 . S
C457 C456 1.379 . S
C457 C459 1.369 . S
C457 H468 0.930 . S
C458 C460 1.383 . S
C458 C461 1.382 . S
C458 H469 0.930 . S
C459 C457 1.369 . S
C459 C461 1.392 . S
C459 H470 0.930 . S
C460 C456 1.373 . S
C460 C458 1.383 . S
C460 H471 0.931 . S
C461 C458 1.382 . S
C461 C459 1.392 . S
C462 Eu433 2.828 . S
C462 O446 1.249 . S
C462 O447 1.244 . S
C462 C456 1.505 . S
C463 O450 1.258 . S
C463 O451 1.242 . S
H464 C436 0.930 . S
H465 C437 0.930 . S
H466 C438 0.930 . S
H467 C439 0.931 . S
H468 C457 0.930 . S
H469 C458 0.930 . S
H470 C459 0.930 . S
H471 C460 0.931 . S
Eu472 C481 2.828 . S
Eu472 O483 2.392 . S
Eu472 O485 2.418 . S
Eu472 O490 2.373 . S
Eu472 O493 2.488 . S
Eu472 O494 2.471 . S
Eu472 O495 2.349 . S
Eu473 O482 2.373 1_565 S
Eu473 O486 2.488 . S
Eu473 O487 2.471 . S
Eu473 O488 2.349 1_565 S
Eu473 O491 2.392 1_565 S
Eu473 O492 2.418 1_565 S
Eu473 C502 2.828 . S
C474 O492 1.244 . S
C474 O495 1.265 . S
C475 C476 1.379 . S
C475 C479 1.373 . S
C475 C481 1.505 . S
C476 C475 1.379 . S
C476 C478 1.369 . S
C476 H504 0.930 . S
C477 C479 1.383 . S
C477 C480 1.382 . S
C477 H505 0.930 . S
C478 C476 1.369 . S
C478 C480 1.392 . S
C478 H506 0.930 . S
C479 C475 1.373 . S
C479 C477 1.383 . S
C479 H507 0.931 . S
C480 C477 1.382 . S
C480 C478 1.392 . S
C481 Eu472 2.828 . S
C481 C475 1.505 . S
C481 O493 1.249 . S
C481 O494 1.244 . S
O482 Eu473 2.373 1_545 S
O482 C484 1.258 . S
O483 Eu472 2.392 . S
O483 C484 1.242 . S
C484 O482 1.258 . S
C484 O483 1.242 . S
O485 Eu472 2.418 . S
O485 C489 1.244 . S
O486 Eu473 2.488 . S
O486 C502 1.249 . S
O487 Eu473 2.471 . S
O487 C502 1.244 . S
O488 Eu473 2.349 1_545 S
O488 C489 1.265 . S
C489 O485 1.244 . S
C489 O488 1.265 . S
O490 Eu472 2.373 . S
O490 C503 1.258 . S
O491 Eu473 2.392 1_545 S
O491 C503 1.242 . S
O492 Eu473 2.418 1_545 S
O492 C474 1.244 . S
O493 Eu472 2.488 . S
O493 C481 1.249 . S
O494 Eu472 2.471 . S
O494 C481 1.244 . S
O495 Eu472 2.349 . S
O495 C474 1.265 . S
C496 C497 1.379 . S
C496 C500 1.373 . S
C496 C502 1.505 . S
C497 C496 1.379 . S
C497 C499 1.369 . S
C497 H508 0.930 . S
C498 C500 1.383 . S
C498 C501 1.382 . S
C498 H509 0.930 . S
C499 C497 1.369 . S
C499 C501 1.392 . S
C499 H510 0.930 . S
C500 C496 1.373 . S
C500 C498 1.383 . S
C500 H511 0.931 . S
C501 C498 1.382 . S
C501 C499 1.392 . S
C502 Eu473 2.828 . S
C502 O486 1.249 . S
C502 O487 1.244 . S
C502 C496 1.505 . S
C503 O490 1.258 . S
C503 O491 1.242 . S
H504 C476 0.930 . S
H505 C477 0.930 . S
H506 C478 0.930 . S
H507 C479 0.931 . S
H508 C497 0.930 . S
H509 C498 0.930 . S
H510 C499 0.930 . S
H511 C500 0.931 . S
Eu512 C521 2.828 . S
Eu512 O523 2.392 . S
Eu512 O525 2.418 . S
Eu512 O530 2.373 . S
Eu512 O533 2.488 . S
Eu512 O534 2.471 . S
Eu512 O535 2.349 . S
Eu513 O522 2.373 . S
Eu513 O526 2.488 . S
Eu513 O527 2.471 . S
Eu513 O528 2.349 . S
Eu513 O531 2.392 . S
Eu513 O532 2.418 . S
Eu513 C542 2.828 . S
C514 O532 1.244 . S
C514 O535 1.265 . S
C515 C516 1.379 . S
C515 C519 1.373 . S
C515 C521 1.505 . S
C516 C515 1.379 . S
C516 C518 1.369 . S
C516 H544 0.930 . S
C517 C519 1.383 . S
C517 C520 1.382 . S
C517 H545 0.930 . S
C518 C516 1.369 . S
C518 C520 1.392 . S
C518 H546 0.930 . S
C519 C515 1.373 . S
C519 C517 1.383 . S
C519 H547 0.931 . S
C520 C517 1.382 . S
C520 C518 1.392 . S
C521 Eu512 2.828 . S
C521 C515 1.505 . S
C521 O533 1.249 . S
C521 O534 1.244 . S
O522 Eu513 2.373 . S
O522 C524 1.258 . S
O523 Eu512 2.392 . S
O523 C524 1.242 . S
C524 O522 1.258 . S
C524 O523 1.242 . S
O525 Eu512 2.418 . S
O525 C529 1.244 . S
O526 Eu513 2.488 . S
O526 C542 1.249 . S
O527 Eu513 2.471 . S
O527 C542 1.244 . S
O528 Eu513 2.349 . S
O528 C529 1.265 . S
C529 O525 1.244 . S
C529 O528 1.265 . S
O530 Eu512 2.373 . S
O530 C543 1.258 . S
O531 Eu513 2.392 . S
O531 C543 1.242 . S
O532 Eu513 2.418 . S
O532 C514 1.244 . S
O533 Eu512 2.488 . S
O533 C521 1.249 . S
O534 Eu512 2.471 . S
O534 C521 1.244 . S
O535 Eu512 2.349 . S
O535 C514 1.265 . S
C536 C537 1.379 . S
C536 C540 1.373 . S
C536 C542 1.505 . S
C537 C536 1.379 . S
C537 C539 1.369 . S
C537 H548 0.930 . S
C538 C540 1.383 . S
C538 C541 1.382 . S
C538 H549 0.930 . S
C539 C537 1.369 . S
C539 C541 1.392 . S
C539 H550 0.930 . S
C540 C536 1.373 . S
C540 C538 1.383 . S
C540 H551 0.931 . S
C541 C538 1.382 . S
C541 C539 1.392 . S
C542 Eu513 2.828 . S
C542 O526 1.249 . S
C542 O527 1.244 . S
C542 C536 1.505 . S
C543 O530 1.258 . S
C543 O531 1.242 . S
H544 C516 0.930 . S
H545 C517 0.930 . S
H546 C518 0.930 . S
H547 C519 0.931 . S
H548 C537 0.930 . S
H549 C538 0.930 . S
H550 C539 0.930 . S
H551 C540 0.931 . S
Eu552 C561 2.828 . S
Eu552 O563 2.392 . S
Eu552 O565 2.418 1_545 S
Eu552 O570 2.373 . S
Eu552 O573 2.488 . S
Eu552 O574 2.471 . S
Eu552 O575 2.349 . S
Eu553 O562 2.373 1_556 S
Eu553 O566 2.488 . S
Eu553 O567 2.471 . S
Eu553 O568 2.349 . S
Eu553 O571 2.392 . S
Eu553 O572 2.418 1_556 S
Eu553 C582 2.828 . S
C554 O572 1.244 . S
C554 O575 1.265 . S
C555 C556 1.379 . S
C555 C559 1.355 1_545 S
C555 C561 1.505 . S
C556 C555 1.379 . S
C556 C558 1.369 . S
C556 H584 0.930 . S
C557 C559 1.389 . S
C557 C560 1.382 1_565 S
C557 H585 0.930 . S
C558 C556 1.369 . S
C558 C560 1.392 . S
C558 H586 0.930 . S
C559 C555 1.355 1_565 S
C559 C557 1.389 . S
C559 H587 0.944 . S
C560 C557 1.382 1_545 S
C560 C558 1.392 . S
C561 Eu552 2.828 . S
C561 C555 1.505 . S
C561 O573 1.249 . S
C561 O574 1.244 . S
O562 Eu553 2.373 1_554 S
O562 C564 1.258 . S
O563 Eu552 2.392 . S
O563 C564 1.242 . S
C564 O562 1.258 . S
C564 O563 1.242 . S
O565 Eu552 2.418 1_565 S
O565 C569 1.244 1_565 S
O566 Eu553 2.488 . S
O566 C582 1.249 . S
O567 Eu553 2.471 . S
O567 C582 1.244 . S
O568 Eu553 2.349 . S
O568 C569 1.265 1_556 S
C569 O565 1.244 1_545 S
C569 O568 1.265 1_554 S
O570 Eu552 2.373 . S
O570 C583 1.258 . S
O571 Eu553 2.392 . S
O571 C583 1.242 1_556 S
O572 Eu553 2.418 1_554 S
O572 C554 1.244 . S
O573 Eu552 2.488 . S
O573 C561 1.249 . S
O574 Eu552 2.471 . S
O574 C561 1.244 . S
O575 Eu552 2.349 . S
O575 C554 1.265 . S
C576 C577 1.379 . S
C576 C580 1.373 . S
C576 C582 1.505 . S
C577 C576 1.379 . S
C577 C579 1.369 . S
C577 H588 0.930 . S
C578 C580 1.383 . S
C578 C581 1.382 . S
C578 H589 0.930 . S
C579 C577 1.369 . S
C579 C581 1.392 . S
C579 H590 0.930 . S
C580 C576 1.373 . S
C580 C578 1.383 . S
C580 H591 0.931 . S
C581 C578 1.382 . S
C581 C579 1.392 . S
C582 Eu553 2.828 . S
C582 O566 1.249 . S
C582 O567 1.244 . S
C582 C576 1.505 . S
C583 O570 1.258 . S
C583 O571 1.242 1_554 S
H584 C556 0.930 . S
H585 C557 0.930 . S
H586 C558 0.930 . S
H587 C559 0.944 . S
H588 C577 0.930 . S
H589 C578 0.930 . S
H590 C579 0.930 . S
H591 C580 0.931 . S
Eu592 C601 2.828 . S
Eu592 O603 2.392 . S
Eu592 O605 2.418 . S
Eu592 O610 2.373 . S
Eu592 O613 2.488 . S
Eu592 O614 2.471 . S
Eu592 O615 2.349 . S
Eu593 O602 2.373 . S
Eu593 O606 2.488 . S
Eu593 O607 2.471 . S
Eu593 O608 2.349 . S
Eu593 O611 2.392 . S
Eu593 O612 2.418 . S
Eu593 C622 2.828 . S
C594 O612 1.244 . S
C594 O615 1.265 . S
C595 C596 1.379 . S
C595 C599 1.373 . S
C595 C601 1.505 . S
C596 C595 1.379 . S
C596 C598 1.369 . S
C596 H624 0.930 . S
C597 C599 1.383 . S
C597 C600 1.382 . S
C597 H625 0.930 . S
C598 C596 1.369 . S
C598 C600 1.392 . S
C598 H626 0.930 . S
C599 C595 1.373 . S
C599 C597 1.383 . S
C599 H627 0.931 . S
C600 C597 1.382 . S
C600 C598 1.392 . S
C601 Eu592 2.828 . S
C601 C595 1.505 . S
C601 O613 1.249 . S
C601 O614 1.244 . S
O602 Eu593 2.373 . S
O602 C604 1.258 . S
O603 Eu592 2.392 . S
O603 C604 1.242 . S
C604 O602 1.258 . S
C604 O603 1.242 . S
O605 Eu592 2.418 . S
O605 C609 1.244 . S
O606 Eu593 2.488 . S
O606 C622 1.249 . S
O607 Eu593 2.471 . S
O607 C622 1.244 . S
O608 Eu593 2.349 . S
O608 C609 1.265 . S
C609 O605 1.244 . S
C609 O608 1.265 . S
O610 Eu592 2.373 . S
O610 C623 1.258 . S
O611 Eu593 2.392 . S
O611 C623 1.242 . S
O612 Eu593 2.418 . S
O612 C594 1.244 . S
O613 Eu592 2.488 . S
O613 C601 1.249 . S
O614 Eu592 2.471 . S
O614 C601 1.244 . S
O615 Eu592 2.349 . S
O615 C594 1.265 . S
C616 C617 1.379 . S
C616 C620 1.373 . S
C616 C622 1.505 . S
C617 C616 1.379 . S
C617 C619 1.369 . S
C617 H628 0.930 . S
C618 C620 1.383 . S
C618 C621 1.382 . S
C618 H629 0.930 . S
C619 C617 1.369 . S
C619 C621 1.392 . S
C619 H630 0.930 . S
C620 C616 1.373 . S
C620 C618 1.383 . S
C620 H631 0.931 . S
C621 C618 1.382 . S
C621 C619 1.392 . S
C622 Eu593 2.828 . S
C622 O606 1.249 . S
C622 O607 1.244 . S
C622 C616 1.505 . S
C623 O610 1.258 . S
C623 O611 1.242 . S
H624 C596 0.930 . S
H625 C597 0.930 . S
H626 C598 0.930 . S
H627 C599 0.931 . S
H628 C617 0.930 . S
H629 C618 0.930 . S
H630 C619 0.930 . S
H631 C620 0.931 . S
Eu632 C641 2.828 . S
Eu632 O643 2.392 . S
Eu632 O645 2.418 . S
Eu632 O650 2.373 1_554 S
Eu632 O653 2.488 . S
Eu632 O654 2.471 . S
Eu632 O655 2.349 . S
Eu633 O642 2.373 1_556 S
Eu633 O646 2.488 1_556 S
Eu633 O647 2.471 1_556 S
Eu633 O648 2.349 1_556 S
Eu633 O651 2.392 . S
Eu633 O652 2.418 . S
Eu633 C662 2.828 1_556 S
C634 O652 1.243 1_554 S
C634 O655 1.265 . S
C635 C636 1.379 . S
C635 C639 1.372 1_556 S
C635 C641 1.505 1_556 S
C636 C635 1.379 . S
C636 C638 1.369 . S
C636 H664 0.930 . S
C637 C639 1.380 1_556 S
C637 C640 1.382 . S
C637 H665 0.930 . S
C638 C636 1.369 . S
C638 C640 1.392 . S
C638 H666 0.930 . S
C639 C635 1.372 1_554 S
C639 C637 1.380 1_554 S
C639 H667 0.934 . S
C640 C637 1.382 . S
C640 C638 1.392 . S
C641 Eu632 2.828 . S
C641 C635 1.505 1_554 S
C641 O653 1.249 . S
C641 O654 1.244 . S
O642 Eu633 2.373 1_554 S
O642 C644 1.258 . S
O643 Eu632 2.392 . S
O643 C644 1.242 . S
C644 O642 1.258 . S
C644 O643 1.242 . S
O645 Eu632 2.418 . S
O645 C649 1.244 . S
O646 Eu633 2.488 1_554 S
O646 C662 1.249 . S
O647 Eu633 2.471 1_554 S
O647 C662 1.244 . S
O648 Eu633 2.349 1_554 S
O648 C649 1.265 . S
C649 O645 1.244 . S
C649 O648 1.265 . S
O650 Eu632 2.373 1_556 S
O650 C663 1.258 . S
O651 Eu633 2.392 . S
O651 C663 1.242 . S
O652 Eu633 2.418 . S
O652 C634 1.243 1_556 S
O653 Eu632 2.488 . S
O653 C641 1.249 . S
O654 Eu632 2.471 . S
O654 C641 1.244 . S
O655 Eu632 2.349 . S
O655 C634 1.265 . S
C656 C657 1.379 . S
C656 C660 1.373 . S
C656 C662 1.505 . S
C657 C656 1.379 . S
C657 C659 1.369 . S
C657 H668 0.930 . S
C658 C660 1.383 . S
C658 C661 1.382 . S
C658 H669 0.930 . S
C659 C657 1.369 . S
C659 C661 1.392 . S
C659 H670 0.930 . S
C660 C656 1.373 . S
C660 C658 1.383 . S
C660 H671 0.931 . S
C661 C658 1.382 . S
C661 C659 1.392 . S
C662 Eu633 2.828 1_554 S
C662 O646 1.249 . S
C662 O647 1.244 . S
C662 C656 1.505 . S
C663 O650 1.258 . S
C663 O651 1.242 . S
H664 C636 0.930 . S
H665 C637 0.930 . S
H666 C638 0.930 . S
H667 C639 0.934 . S
H668 C657 0.930 . S
H669 C658 0.930 . S
H670 C659 0.930 . S
H671 C660 0.931 . S
Eu672 C681 2.828 . S
Eu672 O683 2.392 . S
Eu672 O685 2.418 . S
Eu672 O690 2.373 . S
Eu672 O693 2.488 . S
Eu672 O694 2.471 . S
Eu672 O695 2.349 . S
Eu673 O682 2.373 . S
Eu673 O686 2.488 . S
Eu673 O687 2.471 . S
Eu673 O688 2.349 . S
Eu673 O691 2.392 . S
Eu673 O692 2.418 . S
Eu673 C702 2.828 . S
C674 O692 1.244 . S
C674 O695 1.265 . S
C675 C676 1.379 . S
C675 C679 1.373 . S
C675 C681 1.505 . S
C676 C675 1.379 . S
C676 C678 1.369 . S
C676 H704 0.930 . S
C677 C679 1.383 1_455 S
C677 C680 1.382 . S
C677 H705 0.930 . S
C678 C676 1.369 . S
C678 C680 1.392 1_655 S
C678 H706 0.930 . S
C679 C675 1.373 . S
C679 C677 1.383 1_655 S
C679 H707 0.931 . S
C680 C677 1.382 . S
C680 C678 1.392 1_455 S
C681 Eu672 2.828 . S
C681 C675 1.505 . S
C681 O693 1.249 . S
C681 O694 1.244 . S
O682 Eu673 2.373 . S
O682 C684 1.258 . S
O683 Eu672 2.392 . S
O683 C684 1.242 . S
C684 O682 1.258 . S
C684 O683 1.242 . S
O685 Eu672 2.418 . S
O685 C689 1.244 . S
O686 Eu673 2.488 . S
O686 C702 1.249 . S
O687 Eu673 2.471 . S
O687 C702 1.244 . S
O688 Eu673 2.349 . S
O688 C689 1.265 . S
C689 O685 1.244 . S
C689 O688 1.265 . S
O690 Eu672 2.373 . S
O690 C703 1.258 . S
O691 Eu673 2.392 . S
O691 C703 1.242 . S
O692 Eu673 2.418 . S
O692 C674 1.244 . S
O693 Eu672 2.488 . S
O693 C681 1.249 . S
O694 Eu672 2.471 . S
O694 C681 1.244 . S
O695 Eu672 2.349 . S
O695 C674 1.265 . S
C696 C697 1.379 . S
C696 C700 1.373 . S
C696 C702 1.505 . S
C697 C696 1.379 . S
C697 C699 1.369 . S
C697 H708 0.930 . S
C698 C700 1.383 . S
C698 C701 1.382 . S
C698 H709 0.930 . S
C699 C697 1.369 . S
C699 C701 1.392 . S
C699 H710 0.930 . S
C700 C696 1.373 . S
C700 C698 1.383 . S
C700 H711 0.931 . S
C701 C698 1.382 . S
C701 C699 1.392 . S
C702 Eu673 2.828 . S
C702 O686 1.249 . S
C702 O687 1.244 . S
C702 C696 1.505 . S
C703 O690 1.258 . S
C703 O691 1.242 . S
H704 C676 0.930 . S
H705 C677 0.930 . S
H706 C678 0.930 . S
H707 C679 0.931 . S
H708 C697 0.930 . S
H709 C698 0.930 . S
H710 C699 0.930 . S
H711 C700 0.931 . S
Eu712 C721 2.828 . S
Eu712 O723 2.392 . S
Eu712 O725 2.418 . S
Eu712 O730 2.373 . S
Eu712 O733 2.488 . S
Eu712 O734 2.471 . S
Eu712 O735 2.349 . S
Eu713 O722 2.373 . S
Eu713 O726 2.488 . S
Eu713 O727 2.471 . S
Eu713 O728 2.349 . S
Eu713 O731 2.392 . S
Eu713 O732 2.418 . S
Eu713 C742 2.828 . S
C714 O732 1.244 . S
C714 O735 1.265 . S
C715 C716 1.379 1_455 S
C715 C719 1.373 . S
C715 C721 1.505 . S
C716 C715 1.379 1_655 S
C716 C718 1.369 . S
C716 H744 0.930 . S
C717 C719 1.383 1_655 S
C717 C720 1.382 . S
C717 H745 0.930 . S
C718 C716 1.369 . S
C718 C720 1.392 . S
C718 H746 0.930 . S
C719 C715 1.373 . S
C719 C717 1.383 1_455 S
C719 H747 0.931 . S
C720 C717 1.382 . S
C720 C718 1.392 . S
C721 Eu712 2.828 . S
C721 C715 1.505 . S
C721 O733 1.249 . S
C721 O734 1.244 . S
O722 Eu713 2.373 . S
O722 C724 1.258 . S
O723 Eu712 2.392 . S
O723 C724 1.242 . S
C724 O722 1.258 . S
C724 O723 1.242 . S
O725 Eu712 2.418 . S
O725 C729 1.244 . S
O726 Eu713 2.488 . S
O726 C742 1.249 . S
O727 Eu713 2.471 . S
O727 C742 1.244 . S
O728 Eu713 2.349 . S
O728 C729 1.265 . S
C729 O725 1.244 . S
C729 O728 1.265 . S
O730 Eu712 2.373 . S
O730 C743 1.258 1_455 S
O731 Eu713 2.392 . S
O731 C743 1.242 1_455 S
O732 Eu713 2.418 . S
O732 C714 1.244 . S
O733 Eu712 2.488 . S
O733 C721 1.249 . S
O734 Eu712 2.471 . S
O734 C721 1.244 . S
O735 Eu712 2.349 . S
O735 C714 1.265 . S
C736 C737 1.379 . S
C736 C740 1.373 . S
C736 C742 1.505 . S
C737 C736 1.379 . S
C737 C739 1.369 . S
C737 H748 0.930 . S
C738 C740 1.383 . S
C738 C741 1.382 . S
C738 H749 0.930 . S
C739 C737 1.369 . S
C739 C741 1.392 . S
C739 H750 0.930 . S
C740 C736 1.373 . S
C740 C738 1.383 . S
C740 H751 0.931 . S
C741 C738 1.382 . S
C741 C739 1.392 . S
C742 Eu713 2.828 . S
C742 O726 1.249 . S
C742 O727 1.244 . S
C742 C736 1.505 . S
C743 O730 1.258 1_655 S
C743 O731 1.242 1_655 S
H744 C716 0.930 . S
H745 C717 0.930 . S
H746 C718 0.930 . S
H747 C719 0.931 . S
H748 C737 0.930 . S
H749 C738 0.930 . S
H750 C739 0.930 . S
H751 C740 0.931 . S
Eu752 C761 2.828 . S
Eu752 O763 2.392 . S
Eu752 O765 2.418 . S
Eu752 O770 2.373 . S
Eu752 O773 2.488 . S
Eu752 O774 2.471 . S
Eu752 O775 2.349 . S
Eu753 O762 2.373 . S
Eu753 O766 2.488 . S
Eu753 O767 2.471 . S
Eu753 O768 2.349 . S
Eu753 O771 2.392 . S
Eu753 O772 2.418 . S
Eu753 C782 2.828 . S
C754 O772 1.244 . S
C754 O775 1.265 . S
C755 C756 1.379 . S
C755 C759 1.373 . S
C755 C761 1.505 . S
C756 C755 1.379 . S
C756 C758 1.369 . S
C756 H784 0.930 . S
C757 C759 1.383 . S
C757 C760 1.382 . S
C757 H785 0.930 . S
C758 C756 1.369 . S
C758 C760 1.392 . S
C758 H786 0.930 . S
C759 C755 1.373 . S
C759 C757 1.383 . S
C759 H787 0.931 . S
C760 C757 1.382 . S
C760 C758 1.392 . S
C761 Eu752 2.828 . S
C761 C755 1.505 . S
C761 O773 1.249 . S
C761 O774 1.244 . S
O762 Eu753 2.373 . S
O762 C764 1.258 . S
O763 Eu752 2.392 . S
O763 C764 1.242 . S
C764 O762 1.258 . S
C764 O763 1.242 . S
O765 Eu752 2.418 . S
O765 C769 1.244 . S
O766 Eu753 2.488 . S
O766 C782 1.249 . S
O767 Eu753 2.471 . S
O767 C782 1.244 . S
O768 Eu753 2.349 . S
O768 C769 1.265 . S
C769 O765 1.244 . S
C769 O768 1.265 . S
O770 Eu752 2.373 . S
O770 C783 1.258 . S
O771 Eu753 2.392 . S
O771 C783 1.242 . S
O772 Eu753 2.418 . S
O772 C754 1.244 . S
O773 Eu752 2.488 . S
O773 C761 1.249 . S
O774 Eu752 2.471 . S
O774 C761 1.244 . S
O775 Eu752 2.349 . S
O775 C754 1.265 . S
C776 C777 1.379 . S
C776 C780 1.373 . S
C776 C782 1.505 . S
C777 C776 1.379 . S
C777 C779 1.369 . S
C777 H788 0.930 . S
C778 C780 1.383 . S
C778 C781 1.382 . S
C778 H789 0.930 . S
C779 C777 1.369 . S
C779 C781 1.392 . S
C779 H790 0.930 . S
C780 C776 1.373 . S
C780 C778 1.383 . S
C780 H791 0.931 . S
C781 C778 1.382 . S
C781 C779 1.392 . S
C782 Eu753 2.828 . S
C782 O766 1.249 . S
C782 O767 1.244 . S
C782 C776 1.505 . S
C783 O770 1.258 . S
C783 O771 1.242 . S
H784 C756 0.930 . S
H785 C757 0.930 . S
H786 C758 0.930 . S
H787 C759 0.931 . S
H788 C777 0.930 . S
H789 C778 0.930 . S
H790 C779 0.930 . S
H791 C780 0.931 . S
Eu792 C801 2.828 . S
Eu792 O803 2.392 . S
Eu792 O805 2.418 . S
Eu792 O810 2.373 . S
Eu792 O813 2.488 . S
Eu792 O814 2.471 . S
Eu792 O815 2.349 . S
Eu793 O802 2.373 . S
Eu793 O806 2.488 . S
Eu793 O807 2.471 . S
Eu793 O808 2.349 . S
Eu793 O811 2.392 . S
Eu793 O812 2.418 . S
Eu793 C822 2.828 . S
C794 O812 1.244 . S
C794 O815 1.265 . S
C795 C796 1.379 . S
C795 C799 1.373 . S
C795 C801 1.505 . S
C796 C795 1.379 . S
C796 C798 1.369 . S
C796 H824 0.930 . S
C797 C799 1.383 . S
C797 C800 1.382 . S
C797 H825 0.930 . S
C798 C796 1.369 . S
C798 C800 1.392 . S
C798 H826 0.930 . S
C799 C795 1.373 . S
C799 C797 1.383 . S
C799 H827 0.931 . S
C800 C797 1.382 . S
C800 C798 1.392 . S
C801 Eu792 2.828 . S
C801 C795 1.505 . S
C801 O813 1.249 . S
C801 O814 1.244 . S
O802 Eu793 2.373 . S
O802 C804 1.258 . S
O803 Eu792 2.392 . S
O803 C804 1.242 . S
C804 O802 1.258 . S
C804 O803 1.242 . S
O805 Eu792 2.418 . S
O805 C809 1.244 . S
O806 Eu793 2.488 . S
O806 C822 1.249 . S
O807 Eu793 2.471 . S
O807 C822 1.244 . S
O808 Eu793 2.349 . S
O808 C809 1.265 . S
C809 O805 1.244 . S
C809 O808 1.265 . S
O810 Eu792 2.373 . S
O810 C823 1.258 . S
O811 Eu793 2.392 . S
O811 C823 1.242 . S
O812 Eu793 2.418 . S
O812 C794 1.244 . S
O813 Eu792 2.488 . S
O813 C801 1.249 . S
O814 Eu792 2.471 . S
O814 C801 1.244 . S
O815 Eu792 2.349 . S
O815 C794 1.265 . S
C816 C817 1.379 . S
C816 C820 1.373 . S
C816 C822 1.505 . S
C817 C816 1.379 . S
C817 C819 1.369 . S
C817 H828 0.930 . S
C818 C820 1.383 . S
C818 C821 1.382 . S
C818 H829 0.930 . S
C819 C817 1.369 . S
C819 C821 1.392 . S
C819 H830 0.930 . S
C820 C816 1.373 . S
C820 C818 1.383 . S
C820 H831 0.931 . S
C821 C818 1.382 . S
C821 C819 1.392 . S
C822 Eu793 2.828 . S
C822 O806 1.249 . S
C822 O807 1.244 . S
C822 C816 1.505 . S
C823 O810 1.258 . S
C823 O811 1.242 . S
H824 C796 0.930 . S
H825 C797 0.930 . S
H826 C798 0.930 . S
H827 C799 0.931 . S
H828 C817 0.930 . S
H829 C818 0.930 . S
H830 C819 0.930 . S
H831 C820 0.931 . S
Eu832 C841 2.828 . S
Eu832 O843 2.392 . S
Eu832 O845 2.418 . S
Eu832 O850 2.373 . S
Eu832 O853 2.488 . S
Eu832 O854 2.471 . S
Eu832 O855 2.349 . S
Eu833 O842 2.373 . S
Eu833 O846 2.488 . S
Eu833 O847 2.471 . S
Eu833 O848 2.349 . S
Eu833 O851 2.392 . S
Eu833 O852 2.418 . S
Eu833 C862 2.828 . S
C834 O852 1.244 . S
C834 O855 1.265 . S
C835 C836 1.379 . S
C835 C839 1.373 . S
C835 C841 1.505 . S
C836 C835 1.379 . S
C836 C838 1.369 . S
C836 H864 0.930 . S
C837 C839 1.383 . S
C837 C840 1.382 . S
C837 H865 0.930 . S
C838 C836 1.369 . S
C838 C840 1.392 . S
C838 H866 0.930 . S
C839 C835 1.373 . S
C839 C837 1.383 . S
C839 H867 0.931 . S
C840 C837 1.382 . S
C840 C838 1.392 . S
C841 Eu832 2.828 . S
C841 C835 1.505 . S
C841 O853 1.249 . S
C841 O854 1.244 . S
O842 Eu833 2.373 . S
O842 C844 1.258 . S
O843 Eu832 2.392 . S
O843 C844 1.242 . S
C844 O842 1.258 . S
C844 O843 1.242 . S
O845 Eu832 2.418 . S
O845 C849 1.244 . S
O846 Eu833 2.488 . S
O846 C862 1.249 . S
O847 Eu833 2.471 . S
O847 C862 1.244 . S
O848 Eu833 2.349 . S
O848 C849 1.265 . S
C849 O845 1.244 . S
C849 O848 1.265 . S
O850 Eu832 2.373 . S
O850 C863 1.258 . S
O851 Eu833 2.392 . S
O851 C863 1.242 . S
O852 Eu833 2.418 . S
O852 C834 1.244 . S
O853 Eu832 2.488 . S
O853 C841 1.249 . S
O854 Eu832 2.471 . S
O854 C841 1.244 . S
O855 Eu832 2.349 . S
O855 C834 1.265 . S
C856 C857 1.379 . S
C856 C860 1.373 . S
C856 C862 1.505 . S
C857 C856 1.379 . S
C857 C859 1.369 . S
C857 H868 0.930 . S
C858 C860 1.383 . S
C858 C861 1.382 . S
C858 H869 0.930 . S
C859 C857 1.369 . S
C859 C861 1.392 . S
C859 H870 0.930 . S
C860 C856 1.373 . S
C860 C858 1.383 . S
C860 H871 0.931 . S
C861 C858 1.382 . S
C861 C859 1.392 . S
C862 Eu833 2.828 . S
C862 O846 1.249 . S
C862 O847 1.244 . S
C862 C856 1.505 . S
C863 O850 1.258 . S
C863 O851 1.242 . S
H864 C836 0.930 . S
H865 C837 0.930 . S
H866 C838 0.930 . S
H867 C839 0.931 . S
H868 C857 0.930 . S
H869 C858 0.930 . S
H870 C859 0.930 . S
H871 C860 0.931 . S
Eu872 C881 2.828 . S
Eu872 O883 2.392 . S
Eu872 O885 2.418 . S
Eu872 O890 2.373 . S
Eu872 O893 2.488 . S
Eu872 O894 2.471 . S
Eu872 O895 2.349 . S
Eu873 O882 2.373 . S
Eu873 O886 2.488 . S
Eu873 O887 2.471 . S
Eu873 O888 2.349 . S
Eu873 O891 2.392 . S
Eu873 O892 2.418 . S
Eu873 C902 2.828 . S
C874 O892 1.244 . S
C874 O895 1.265 . S
C875 C876 1.379 . S
C875 C879 1.373 . S
C875 C881 1.505 . S
C876 C875 1.379 . S
C876 C878 1.369 . S
C876 H904 0.930 . S
C877 C879 1.383 . S
C877 C880 1.382 . S
C877 H905 0.930 . S
C878 C876 1.369 . S
C878 C880 1.392 . S
C878 H906 0.930 . S
C879 C875 1.373 . S
C879 C877 1.383 . S
C879 H907 0.931 . S
C880 C877 1.382 . S
C880 C878 1.392 . S
C881 Eu872 2.828 . S
C881 C875 1.505 . S
C881 O893 1.249 . S
C881 O894 1.244 . S
O882 Eu873 2.373 . S
O882 C884 1.258 . S
O883 Eu872 2.392 . S
O883 C884 1.242 . S
C884 O882 1.258 . S
C884 O883 1.242 . S
O885 Eu872 2.418 . S
O885 C889 1.244 . S
O886 Eu873 2.488 . S
O886 C902 1.249 . S
O887 Eu873 2.471 . S
O887 C902 1.244 . S
O888 Eu873 2.349 . S
O888 C889 1.265 . S
C889 O885 1.244 . S
C889 O888 1.265 . S
O890 Eu872 2.373 . S
O890 C903 1.258 . S
O891 Eu873 2.392 . S
O891 C903 1.242 . S
O892 Eu873 2.418 . S
O892 C874 1.244 . S
O893 Eu872 2.488 . S
O893 C881 1.249 . S
O894 Eu872 2.471 . S
O894 C881 1.244 . S
O895 Eu872 2.349 . S
O895 C874 1.265 . S
C896 C897 1.379 . S
C896 C900 1.373 . S
C896 C902 1.505 . S
C897 C896 1.379 . S
C897 C899 1.369 . S
C897 H908 0.930 . S
C898 C900 1.383 . S
C898 C901 1.382 . S
C898 H909 0.930 . S
C899 C897 1.369 . S
C899 C901 1.392 . S
C899 H910 0.930 . S
C900 C896 1.373 . S
C900 C898 1.383 . S
C900 H911 0.931 . S
C901 C898 1.382 . S
C901 C899 1.392 . S
C902 Eu873 2.828 . S
C902 O886 1.249 . S
C902 O887 1.244 . S
C902 C896 1.505 . S
C903 O890 1.258 . S
C903 O891 1.242 . S
H904 C876 0.930 . S
H905 C877 0.930 . S
H906 C878 0.930 . S
H907 C879 0.931 . S
H908 C897 0.930 . S
H909 C898 0.930 . S
H910 C899 0.930 . S
H911 C900 0.931 . S
Eu912 C921 2.828 . S
Eu912 O923 2.392 . S
Eu912 O925 2.418 1_554 S
Eu912 O930 2.373 . S
Eu912 O933 2.488 1_554 S
Eu912 O934 2.471 . S
Eu912 O935 2.349 . S
Eu913 O922 2.373 . S
Eu913 O926 2.488 1_455 S
Eu913 O927 2.471 1_455 S
Eu913 O928 2.349 . S
Eu913 O931 2.392 . S
Eu913 O932 2.418 . S
Eu913 C942 2.828 1_455 S
C914 O932 1.244 . S
C914 O935 1.265 . S
C915 C916 1.379 . S
C915 C919 1.373 1_554 S
C915 C921 1.505 . S
C916 C915 1.379 . S
C916 C918 1.369 . S
C916 H944 0.930 . S
C917 C919 1.383 . S
C917 C920 1.382 . S
C917 H945 0.930 . S
C918 C916 1.369 . S
C918 C920 1.392 1_554 S
C918 H946 0.930 . S
C919 C915 1.373 1_556 S
C919 C917 1.383 . S
C919 H947 0.931 . S
C920 C917 1.382 . S
C920 C918 1.392 1_556 S
C921 Eu912 2.828 . S
C921 C915 1.505 . S
C921 O933 1.249 1_554 S
C921 O934 1.244 . S
O922 Eu913 2.373 . S
O922 C924 1.258 . S
O923 Eu912 2.392 . S
O923 C924 1.242 . S
C924 O922 1.258 . S
C924 O923 1.242 . S
O925 Eu912 2.418 1_556 S
O925 C929 1.244 . S
O926 Eu913 2.488 1_655 S
O926 C942 1.249 . S
O927 Eu913 2.471 1_655 S
O927 C942 1.244 . S
O928 Eu913 2.349 . S
O928 C929 1.265 1_554 S
C929 O925 1.244 . S
C929 O928 1.265 1_556 S
O930 Eu912 2.373 . S
O930 C943 1.258 . S
O931 Eu913 2.392 . S
O931 C943 1.242 . S
O932 Eu913 2.418 . S
O932 C914 1.244 . S
O933 Eu912 2.488 1_556 S
O933 C921 1.249 1_556 S
O934 Eu912 2.471 . S
O934 C921 1.244 . S
O935 Eu912 2.349 . S
O935 C914 1.265 . S
C936 C937 1.379 . S
C936 C940 1.373 . S
C936 C942 1.505 . S
C937 C936 1.379 . S
C937 C939 1.369 . S
C937 H948 0.930 . S
C938 C940 1.383 . S
C938 C941 1.382 . S
C938 H949 0.930 . S
C939 C937 1.369 . S
C939 C941 1.392 . S
C939 H950 0.930 . S
C940 C936 1.373 . S
C940 C938 1.383 . S
C940 H951 0.931 . S
C941 C938 1.382 . S
C941 C939 1.392 . S
C942 Eu913 2.828 1_655 S
C942 O926 1.249 . S
C942 O927 1.244 . S
C942 C936 1.505 . S
C943 O930 1.258 . S
C943 O931 1.242 . S
H944 C916 0.930 . S
H945 C917 0.930 . S
H946 C918 0.930 . S
H947 C919 0.931 . S
H948 C937 0.930 . S
H949 C938 0.930 . S
H950 C939 0.930 . S
H951 C940 0.931 . S
C952 C953 1.363 . S
C952 C958 1.379 . S
C952 N960 1.356 1_455 S
C953 C952 1.363 . S
C953 C959 1.363 . S
C954 C955 1.363 . S
C954 C959 1.379 . S
C954 N961 1.356 1_556 S
C955 C954 1.363 . S
C955 C958 1.363 . S
N956 C958 1.356 . S
N956 H968 0.984 . S
N956 H969 0.985 . S
N957 C959 1.356 . S
N957 H962 0.984 . S
N957 H963 0.985 . S
C958 C952 1.379 . S
C958 C955 1.363 . S
C958 N956 1.356 . S
C959 C953 1.363 . S
C959 C954 1.379 . S
C959 N957 1.356 . S
N960 C952 1.356 1_655 S
N960 H966 0.984 . S
N960 H967 0.984 . S
N961 C954 1.356 1_554 S
N961 H964 0.984 . S
N961 H965 0.985 . S
H962 N957 0.984 . S
H963 N957 0.985 . S
H964 N961 0.984 . S
H965 N961 0.985 . S
H966 N960 0.984 . S
H967 N960 0.984 . S
H968 N956 0.984 . S
H969 N956 0.985 . S
C970 C971 1.363 . S
C970 C976 1.379 . S
C970 N978 1.356 . S
C971 C970 1.363 . S
C971 C977 1.363 . S
C972 C973 1.363 . S
C972 C977 1.379 . S
C972 N979 1.356 . S
C973 C972 1.363 . S
C973 C976 1.363 . S
N974 C976 1.356 . S
N974 H986 0.984 . S
N974 H987 0.985 . S
N975 C977 1.356 . S
N975 H980 0.984 . S
N975 H981 0.985 . S
C976 C970 1.379 . S
C976 C973 1.363 . S
C976 N974 1.356 . S
C977 C971 1.363 . S
C977 C972 1.379 . S
C977 N975 1.356 . S
N978 C970 1.356 . S
N978 H984 0.984 . S
N978 H985 0.984 . S
N979 C972 1.356 . S
N979 H982 0.984 . S
N979 H983 0.985 . S
H980 N975 0.984 . S
H981 N975 0.985 . S
H982 N979 0.984 . S
H983 N979 0.985 . S
H984 N978 0.984 . S
H985 N978 0.984 . S
H986 N974 0.984 . S
H987 N974 0.985 . S
C988 C989 1.363 . S
C988 C994 1.379 . S
C988 N996 1.356 . S
C989 C988 1.363 . S
C989 C995 1.363 . S
C990 C991 1.363 . S
C990 C995 1.379 . S
C990 N997 1.356 . S
C991 C990 1.363 . S
C991 C994 1.363 . S
N992 C994 1.356 . S
N992 H1004 0.984 . S
N992 H1005 0.985 . S
N993 C995 1.356 . S
N993 H998 0.984 . S
N993 H999 0.985 . S
C994 C988 1.379 . S
C994 C991 1.363 . S
C994 N992 1.356 . S
C995 C989 1.363 . S
C995 C990 1.379 . S
C995 N993 1.356 . S
N996 C988 1.356 . S
N996 H1002 0.984 . S
N996 H1003 0.984 . S
N997 C990 1.356 . S
N997 H1000 0.984 . S
N997 H1001 0.985 . S
H998 N993 0.984 . S
H999 N993 0.985 . S
H1000 N997 0.984 . S
H1001 N997 0.985 . S
H1002 N996 0.984 . S
H1003 N996 0.984 . S
H1004 N992 0.984 . S
H1005 N992 0.985 . S
C1006 C1007 1.363 . S
C1006 C1012 1.379 . S
C1006 N1014 1.356 . S
C1007 C1006 1.363 . S
C1007 C1013 1.363 . S
C1008 C1009 1.363 . S
C1008 C1013 1.379 . S
C1008 N1015 1.356 . S
C1009 C1008 1.363 . S
C1009 C1012 1.363 . S
N1010 C1012 1.356 . S
N1010 H1022 0.984 . S
N1010 H1023 0.985 . S
N1011 C1013 1.356 . S
N1011 H1016 0.984 . S
N1011 H1017 0.985 . S
C1012 C1006 1.379 . S
C1012 C1009 1.363 . S
C1012 N1010 1.356 . S
C1013 C1007 1.363 . S
C1013 C1008 1.379 . S
C1013 N1011 1.356 . S
N1014 C1006 1.356 . S
N1014 H1020 0.984 . S
N1014 H1021 0.984 . S
N1015 C1008 1.356 . S
N1015 H1018 0.984 . S
N1015 H1019 0.985 . S
H1016 N1011 0.984 . S
H1017 N1011 0.985 . S
H1018 N1015 0.984 . S
H1019 N1015 0.985 . S
H1020 N1014 0.984 . S
H1021 N1014 0.984 . S
H1022 N1010 0.984 . S
H1023 N1010 0.985 . S
C1024 C1025 1.363 . S
C1024 C1030 1.379 . S
C1024 N1032 1.356 . S
C1025 C1024 1.363 . S
C1025 C1031 1.363 . S
C1026 C1027 1.363 . S
C1026 C1031 1.379 . S
C1026 N1033 1.356 . S
C1027 C1026 1.363 . S
C1027 C1030 1.363 . S
N1028 C1030 1.356 . S
N1028 H1040 0.984 . S
N1028 H1041 0.985 . S
N1029 C1031 1.356 . S
N1029 H1034 0.984 . S
N1029 H1035 0.985 . S
C1030 C1024 1.379 . S
C1030 C1027 1.363 . S
C1030 N1028 1.356 . S
C1031 C1025 1.363 . S
C1031 C1026 1.379 . S
C1031 N1029 1.356 . S
N1032 C1024 1.356 . S
N1032 H1038 0.984 . S
N1032 H1039 0.984 . S
N1033 C1026 1.356 . S
N1033 H1036 0.984 . S
N1033 H1037 0.985 . S
H1034 N1029 0.984 . S
H1035 N1029 0.985 . S
H1036 N1033 0.984 . S
H1037 N1033 0.985 . S
H1038 N1032 0.984 . S
H1039 N1032 0.984 . S
H1040 N1028 0.984 . S
H1041 N1028 0.985 . S
C1042 C1043 1.363 . S
C1042 C1048 1.379 . S
C1042 N1050 1.356 . S
C1043 C1042 1.363 . S
C1043 C1049 1.363 . S
C1044 C1045 1.363 . S
C1044 C1049 1.379 . S
C1044 N1051 1.356 . S
C1045 C1044 1.363 . S
C1045 C1048 1.363 . S
N1046 C1048 1.356 . S
N1046 H1058 0.984 . S
N1046 H1059 0.985 . S
N1047 C1049 1.356 . S
N1047 H1052 0.984 . S
N1047 H1053 0.985 . S
C1048 C1042 1.379 . S
C1048 C1045 1.363 . S
C1048 N1046 1.356 . S
C1049 C1043 1.363 . S
C1049 C1044 1.379 . S
C1049 N1047 1.356 . S
N1050 C1042 1.356 . S
N1050 H1056 0.984 . S
N1050 H1057 0.984 . S
N1051 C1044 1.356 . S
N1051 H1054 0.984 . S
N1051 H1055 0.985 . S
H1052 N1047 0.984 . S
H1053 N1047 0.985 . S
H1054 N1051 0.984 . S
H1055 N1051 0.985 . S
H1056 N1050 0.984 . S
H1057 N1050 0.984 . S
H1058 N1046 0.984 . S
H1059 N1046 0.985 . S
C1060 C1061 1.363 . S
C1060 C1066 1.379 . S
C1060 N1068 1.356 . S
C1061 C1060 1.363 . S
C1061 C1067 1.363 . S
C1062 C1063 1.363 . S
C1062 C1067 1.379 . S
C1062 N1069 1.356 . S
C1063 C1062 1.363 . S
C1063 C1066 1.363 . S
N1064 C1066 1.356 . S
N1064 H1076 0.984 . S
N1064 H1077 0.985 . S
N1065 C1067 1.356 . S
N1065 H1070 0.984 . S
N1065 H1071 0.985 . S
C1066 C1060 1.379 . S
C1066 C1063 1.363 . S
C1066 N1064 1.356 . S
C1067 C1061 1.363 . S
C1067 C1062 1.379 . S
C1067 N1065 1.356 . S
N1068 C1060 1.356 . S
N1068 H1074 0.984 . S
N1068 H1075 0.984 . S
N1069 C1062 1.356 . S
N1069 H1072 0.984 . S
N1069 H1073 0.985 . S
H1070 N1065 0.984 . S
H1071 N1065 0.985 . S
H1072 N1069 0.984 . S
H1073 N1069 0.985 . S
H1074 N1068 0.984 . S
H1075 N1068 0.984 . S
H1076 N1064 0.984 . S
H1077 N1064 0.985 . S
C1078 C1079 1.363 . S
C1078 C1084 1.379 . S
C1078 N1086 1.356 . S
C1079 C1078 1.363 . S
C1079 C1085 1.363 . S
C1080 C1081 1.363 . S
C1080 C1085 1.379 . S
C1080 N1087 1.356 . S
C1081 C1080 1.363 . S
C1081 C1084 1.363 . S
N1082 C1084 1.356 . S
N1082 H1094 0.984 . S
N1082 H1095 0.985 . S
N1083 C1085 1.356 . S
N1083 H1088 0.984 . S
N1083 H1089 0.985 . S
C1084 C1078 1.379 . S
C1084 C1081 1.363 . S
C1084 N1082 1.356 . S
C1085 C1079 1.363 . S
C1085 C1080 1.379 . S
C1085 N1083 1.356 . S
N1086 C1078 1.356 . S
N1086 H1092 0.984 . S
N1086 H1093 0.984 . S
N1087 C1080 1.356 . S
N1087 H1090 0.984 . S
N1087 H1091 0.985 . S
H1088 N1083 0.984 . S
H1089 N1083 0.985 . S
H1090 N1087 0.984 . S
H1091 N1087 0.985 . S
H1092 N1086 0.984 . S
H1093 N1086 0.984 . S
H1094 N1082 0.984 . S
H1095 N1082 0.985 . S
C1096 C1097 1.363 . S
C1096 C1102 1.379 . S
C1096 N1104 1.356 . S
C1097 C1096 1.363 . S
C1097 C1103 1.363 . S
C1098 C1099 1.363 . S
C1098 C1103 1.379 . S
C1098 N1105 1.356 . S
C1099 C1098 1.363 . S
C1099 C1102 1.363 . S
N1100 C1102 1.356 . S
N1100 H1112 0.984 . S
N1100 H1113 0.985 . S
N1101 C1103 1.356 1_655 S
N1101 H1106 0.984 . S
N1101 H1107 0.985 . S
C1102 C1096 1.379 . S
C1102 C1099 1.363 . S
C1102 N1100 1.356 . S
C1103 C1097 1.363 . S
C1103 C1098 1.379 . S
C1103 N1101 1.356 1_455 S
N1104 C1096 1.356 . S
N1104 H1110 0.984 . S
N1104 H1111 0.991 . S
N1105 C1098 1.356 . S
N1105 H1108 0.984 . S
N1105 H1109 0.985 . S
H1106 N1101 0.984 . S
H1107 N1101 0.985 . S
H1108 N1105 0.984 . S
H1109 N1105 0.985 . S
H1110 N1104 0.984 . S
H1111 N1104 0.991 . S
H1112 N1100 0.984 . S
H1113 N1100 0.985 . S
C1114 C1115 1.363 . S
C1114 C1120 1.379 . S
C1114 N1122 1.356 . S
C1115 C1114 1.363 . S
C1115 C1121 1.363 . S
C1116 C1117 1.363 . S
C1116 C1121 1.379 . S
C1116 N1123 1.356 . S
C1117 C1116 1.363 . S
C1117 C1120 1.363 . S
N1118 C1120 1.356 . S
N1118 H1130 0.984 . S
N1118 H1131 0.985 . S
N1119 C1121 1.356 . S
N1119 H1124 0.984 . S
N1119 H1125 0.985 . S
C1120 C1114 1.379 . S
C1120 C1117 1.363 . S
C1120 N1118 1.356 . S
C1121 C1115 1.363 . S
C1121 C1116 1.379 . S
C1121 N1119 1.356 . S
N1122 C1114 1.356 . S
N1122 H1128 0.984 . S
N1122 H1129 0.984 . S
N1123 C1116 1.356 . S
N1123 H1126 0.984 . S
N1123 H1127 0.985 . S
H1124 N1119 0.984 . S
H1125 N1119 0.985 . S
H1126 N1123 0.984 . S
H1127 N1123 0.985 . S
H1128 N1122 0.984 . S
H1129 N1122 0.984 . S
H1130 N1118 0.984 . S
H1131 N1118 0.985 . S
C1132 C1133 1.363 . S
C1132 C1138 1.379 . S
C1132 N1140 1.356 . S
C1133 C1132 1.363 . S
C1133 C1139 1.363 . S
C1134 C1135 1.363 . S
C1134 C1139 1.379 . S
C1134 N1141 1.356 1_545 S
C1135 C1134 1.363 . S
C1135 C1138 1.363 . S
N1136 C1138 1.356 . S
N1136 H1148 0.984 . S
N1136 H1149 0.985 . S
N1137 C1139 1.356 . S
N1137 H1142 0.984 . S
N1137 H1143 0.975 1_545 S
C1138 C1132 1.379 . S
C1138 C1135 1.363 . S
C1138 N1136 1.356 . S
C1139 C1133 1.363 . S
C1139 C1134 1.379 . S
C1139 N1137 1.356 . S
N1140 C1132 1.356 . S
N1140 H1146 0.984 . S
N1140 H1147 0.984 . S
N1141 C1134 1.356 1_565 S
N1141 H1144 0.984 . S
N1141 H1145 0.985 . S
H1142 N1137 0.984 . S
H1143 N1137 0.975 1_565 S
H1144 N1141 0.984 . S
H1145 N1141 0.985 . S
H1146 N1140 0.984 . S
H1147 N1140 0.984 . S
H1148 N1136 0.984 . S
H1149 N1136 0.985 . S
C1150 C1151 1.363 . S
C1150 C1156 1.379 . S
C1150 N1158 1.356 . S
C1151 C1150 1.363 . S
C1151 C1157 1.363 . S
C1152 C1153 1.363 . S
C1152 C1157 1.379 . S
C1152 N1159 1.356 . S
C1153 C1152 1.363 . S
C1153 C1156 1.363 . S
N1154 C1156 1.356 . S
N1154 H1166 0.984 . S
N1154 H1167 0.985 . S
N1155 C1157 1.356 . S
N1155 H1160 0.984 . S
N1155 H1161 0.985 . S
C1156 C1150 1.379 . S
C1156 C1153 1.363 . S
C1156 N1154 1.356 . S
C1157 C1151 1.363 . S
C1157 C1152 1.379 . S
C1157 N1155 1.356 . S
N1158 C1150 1.356 . S
N1158 H1164 0.984 . S
N1158 H1165 0.984 . S
N1159 C1152 1.356 . S
N1159 H1162 0.984 . S
N1159 H1163 0.985 . S
H1160 N1155 0.984 . S
H1161 N1155 0.985 . S
H1162 N1159 0.984 . S
H1163 N1159 0.985 . S
H1164 N1158 0.984 . S
H1165 N1158 0.984 . S
H1166 N1154 0.984 . S
H1167 N1154 0.985 . S
C1168 C1169 1.347 1_455 S
C1168 C1174 1.379 . S
C1168 N1176 1.356 . S
C1169 C1168 1.347 1_655 S
C1169 C1175 1.369 . S
C1170 C1171 1.363 . S
C1170 C1175 1.379 1_455 S
C1170 N1177 1.358 . S
C1171 C1170 1.363 . S
C1171 C1174 1.363 . S
N1172 C1174 1.356 . S
N1172 H1184 0.984 . S
N1172 H1185 0.985 . S
N1173 C1175 1.356 . S
N1173 H1178 0.984 . S
N1173 H1179 0.985 . S
C1174 C1168 1.379 . S
C1174 C1171 1.363 . S
C1174 N1172 1.356 . S
C1175 C1169 1.369 . S
C1175 C1170 1.379 1_655 S
C1175 N1173 1.356 . S
N1176 C1168 1.356 . S
N1176 H1182 0.984 . S
N1176 H1183 0.984 . S
N1177 C1170 1.358 . S
N1177 H1180 0.995 . S
N1177 H1181 0.972 1_455 S
H1178 N1173 0.984 . S
H1179 N1173 0.985 . S
H1180 N1177 0.995 . S
H1181 N1177 0.972 1_655 S
H1182 N1176 0.984 . S
H1183 N1176 0.984 . S
H1184 N1172 0.984 . S
H1185 N1172 0.985 . S
C1186 C1187 1.363 . S
C1186 C1192 1.379 . S
C1186 N1194 1.356 . S
C1187 C1186 1.363 . S
C1187 C1193 1.363 . S
C1188 C1189 1.363 . S
C1188 C1193 1.379 . S
C1188 N1195 1.356 . S
C1189 C1188 1.363 . S
C1189 C1192 1.363 . S
N1190 C1192 1.356 . S
N1190 H1202 0.984 . S
N1190 H1203 0.985 . S
N1191 C1193 1.356 . S
N1191 H1196 0.984 . S
N1191 H1197 0.985 . S
C1192 C1186 1.379 . S
C1192 C1189 1.363 . S
C1192 N1190 1.356 . S
C1193 C1187 1.363 . S
C1193 C1188 1.379 . S
C1193 N1191 1.356 . S
N1194 C1186 1.356 . S
N1194 H1200 0.984 . S
N1194 H1201 0.984 . S
N1195 C1188 1.356 . S
N1195 H1198 0.984 . S
N1195 H1199 0.985 . S
H1196 N1191 0.984 . S
H1197 N1191 0.985 . S
H1198 N1195 0.984 . S
H1199 N1195 0.985 . S
H1200 N1194 0.984 . S
H1201 N1194 0.984 . S
H1202 N1190 0.984 . S
H1203 N1190 0.985 . S
C1204 C1205 1.363 . S
C1204 C1210 1.379 . S
C1204 N1212 1.356 . S
C1205 C1204 1.363 . S
C1205 C1211 1.363 . S
C1206 C1207 1.363 . S
C1206 C1211 1.379 . S
C1206 N1213 1.356 . S
C1207 C1206 1.363 . S
C1207 C1210 1.363 . S
N1208 C1210 1.356 . S
N1208 H1220 0.984 . S
N1208 H1221 0.985 . S
N1209 C1211 1.356 . S
N1209 H1214 0.984 . S
N1209 H1215 0.985 . S
C1210 C1204 1.379 . S
C1210 C1207 1.363 . S
C1210 N1208 1.356 . S
C1211 C1205 1.363 . S
C1211 C1206 1.379 . S
C1211 N1209 1.356 . S
N1212 C1204 1.356 . S
N1212 H1218 0.984 . S
N1212 H1219 0.984 . S
N1213 C1206 1.356 . S
N1213 H1216 0.984 . S
N1213 H1217 0.985 . S
H1214 N1209 0.984 . S
H1215 N1209 0.985 . S
H1216 N1213 0.984 . S
H1217 N1213 0.985 . S
H1218 N1212 0.984 . S
H1219 N1212 0.984 . S
H1220 N1208 0.984 . S
H1221 N1208 0.985 . S
C1222 C1223 1.363 . S
C1222 C1228 1.379 . S
C1222 N1230 1.356 . S
C1223 C1222 1.363 . S
C1223 C1229 1.363 . S
C1224 C1225 1.363 . S
C1224 C1229 1.379 . S
C1224 N1231 1.356 . S
C1225 C1224 1.363 . S
C1225 C1228 1.363 . S
N1226 C1228 1.356 . S
N1226 H1238 0.984 . S
N1226 H1239 0.985 . S
N1227 C1229 1.356 . S
N1227 H1232 0.984 . S
N1227 H1233 0.985 . S
C1228 C1222 1.379 . S
C1228 C1225 1.363 . S
C1228 N1226 1.356 . S
C1229 C1223 1.363 . S
C1229 C1224 1.379 . S
C1229 N1227 1.356 . S
N1230 C1222 1.356 . S
N1230 H1236 0.984 . S
N1230 H1237 0.984 . S
N1231 C1224 1.356 . S
N1231 H1234 0.984 . S
N1231 H1235 0.985 . S
H1232 N1227 0.984 . S
H1233 N1227 0.985 . S
H1234 N1231 0.984 . S
H1235 N1231 0.985 . S
H1236 N1230 0.984 . S
H1237 N1230 0.984 . S
H1238 N1226 0.984 . S
H1239 N1226 0.985 . S
C1240 C1241 1.363 1_565 S
C1240 C1246 1.398 . S
C1240 N1248 1.356 . S
C1241 C1240 1.363 1_545 S
C1241 C1247 1.363 . S
C1242 C1243 1.363 . S
C1242 C1247 1.379 . S
C1242 N1249 1.356 . S
C1243 C1242 1.363 . S
C1243 C1246 1.327 1_545 S
N1244 C1246 1.363 . S
N1244 H1256 0.984 . S
N1244 H1257 0.985 1_565 S
N1245 C1247 1.356 . S
N1245 H1250 0.984 1_554 S
N1245 H1251 0.985 1_554 S
C1246 C1240 1.398 . S
C1246 C1243 1.327 1_565 S
C1246 N1244 1.363 . S
C1247 C1241 1.363 . S
C1247 C1242 1.379 . S
C1247 N1245 1.356 . S
N1248 C1240 1.356 . S
N1248 H1254 0.984 . S
N1248 H1255 0.984 . S
N1249 C1242 1.356 . S
N1249 H1252 0.984 . S
N1249 H1253 0.985 . S
H1250 N1245 0.984 1_556 S
H1251 N1245 0.985 1_556 S
H1252 N1249 0.984 . S
H1253 N1249 0.985 . S
H1254 N1248 0.984 . S
H1255 N1248 0.984 . S
H1256 N1244 0.984 . S
H1257 N1244 0.985 1_545 S
C1258 C1259 1.384 . S
C1258 C1264 1.379 . S
C1258 N1266 1.356 . S
C1259 C1258 1.384 . S
C1259 C1265 1.350 1_554 S
C1260 C1261 1.363 1_556 S
C1260 C1265 1.379 . S
C1260 N1267 1.356 . S
C1261 C1260 1.363 1_554 S
C1261 C1264 1.363 . S
N1262 C1264 1.356 . S
N1262 H1274 0.984 . S
N1262 H1275 0.985 . S
N1263 C1265 1.356 . S
N1263 H1268 0.984 . S
N1263 H1269 0.985 . S
C1264 C1258 1.379 . S
C1264 C1261 1.363 . S
C1264 N1262 1.356 . S
C1265 C1259 1.350 1_556 S
C1265 C1260 1.379 . S
C1265 N1263 1.356 . S
N1266 C1258 1.356 . S
N1266 H1272 0.984 . S
N1266 H1273 0.984 . S
N1267 C1260 1.356 . S
N1267 H1270 0.984 . S
N1267 H1271 0.985 . S
H1268 N1263 0.984 . S
H1269 N1263 0.985 . S
H1270 N1267 0.984 . S
H1271 N1267 0.985 . S
H1272 N1266 0.984 . S
H1273 N1266 0.984 . S
H1274 N1262 0.984 . S
H1275 N1262 0.985 . S
C1276 C1277 1.363 . S
C1276 C1282 1.379 . S
C1276 N1284 1.356 . S
C1277 C1276 1.363 . S
C1277 C1283 1.363 . S
C1278 C1279 1.363 . S
C1278 C1283 1.379 . S
C1278 N1285 1.356 . S
C1279 C1278 1.363 . S
C1279 C1282 1.363 . S
N1280 C1282 1.356 . S
N1280 H1292 0.984 . S
N1280 H1293 0.985 . S
N1281 C1283 1.356 . S
N1281 H1286 0.984 . S
N1281 H1287 0.985 . S
C1282 C1276 1.379 . S
C1282 C1279 1.363 . S
C1282 N1280 1.356 . S
C1283 C1277 1.363 . S
C1283 C1278 1.379 . S
C1283 N1281 1.356 . S
N1284 C1276 1.356 . S
N1284 H1290 0.984 . S
N1284 H1291 0.984 . S
N1285 C1278 1.356 . S
N1285 H1288 0.984 . S
N1285 H1289 0.985 . S
H1286 N1281 0.984 . S
H1287 N1281 0.985 . S
H1288 N1285 0.984 . S
H1289 N1285 0.985 . S
H1290 N1284 0.984 . S
H1291 N1284 0.984 . S
H1292 N1280 0.984 . S
H1293 N1280 0.985 . S
C1294 C1295 1.363 . S
C1294 C1300 1.379 . S
C1294 N1302 1.356 . S
C1295 C1294 1.363 . S
C1295 C1301 1.363 . S
C1296 C1297 1.363 . S
C1296 C1301 1.379 . S
C1296 N1303 1.356 . S
C1297 C1296 1.363 . S
C1297 C1300 1.363 . S
N1298 C1300 1.356 . S
N1298 H1310 0.984 . S
N1298 H1311 0.985 . S
N1299 C1301 1.356 . S
N1299 H1304 0.984 . S
N1299 H1305 0.985 . S
C1300 C1294 1.379 . S
C1300 C1297 1.363 . S
C1300 N1298 1.356 . S
C1301 C1295 1.363 . S
C1301 C1296 1.379 . S
C1301 N1299 1.356 . S
N1302 C1294 1.356 . S
N1302 H1308 0.984 . S
N1302 H1309 0.984 . S
N1303 C1296 1.356 . S
N1303 H1306 0.984 . S
N1303 H1307 0.985 . S
H1304 N1299 0.984 . S
H1305 N1299 0.985 . S
H1306 N1303 0.984 . S
H1307 N1303 0.985 . S
H1308 N1302 0.984 . S
H1309 N1302 0.984 . S
H1310 N1298 0.984 . S
H1311 N1298 0.985 . S
C1312 C1313 1.363 . S
C1312 C1318 1.379 . S
C1312 N1320 1.356 . S
C1313 C1312 1.363 . S
C1313 C1319 1.363 . S
C1314 C1315 1.363 . S
C1314 C1319 1.379 . S
C1314 N1321 1.356 . S
C1315 C1314 1.363 . S
C1315 C1318 1.363 . S
N1316 C1318 1.356 . S
N1316 H1328 0.984 . S
N1316 H1329 0.985 . S
N1317 C1319 1.356 . S
N1317 H1322 0.984 . S
N1317 H1323 0.985 . S
C1318 C1312 1.379 . S
C1318 C1315 1.363 . S
C1318 N1316 1.356 . S
C1319 C1313 1.363 . S
C1319 C1314 1.379 . S
C1319 N1317 1.356 . S
N1320 C1312 1.356 . S
N1320 H1326 0.984 . S
N1320 H1327 0.984 . S
N1321 C1314 1.356 . S
N1321 H1324 0.984 . S
N1321 H1325 0.985 . S
H1322 N1317 0.984 . S
H1323 N1317 0.985 . S
H1324 N1321 0.984 . S
H1325 N1321 0.985 . S
H1326 N1320 0.984 . S
H1327 N1320 0.984 . S
H1328 N1316 0.984 . S
H1329 N1316 0.985 . S
C1330 C1331 1.363 . S
C1330 C1336 1.379 . S
C1330 N1338 1.356 . S
C1331 C1330 1.363 . S
C1331 C1337 1.363 . S
C1332 C1333 1.363 . S
C1332 C1337 1.379 . S
C1332 N1339 1.356 . S
C1333 C1332 1.363 . S
C1333 C1336 1.363 . S
N1334 C1336 1.356 . S
N1334 H1346 0.984 . S
N1334 H1347 0.985 . S
N1335 C1337 1.356 . S
N1335 H1340 0.984 . S
N1335 H1341 0.985 . S
C1336 C1330 1.379 . S
C1336 C1333 1.363 . S
C1336 N1334 1.356 . S
C1337 C1331 1.363 . S
C1337 C1332 1.379 . S
C1337 N1335 1.356 . S
N1338 C1330 1.356 . S
N1338 H1344 0.984 . S
N1338 H1345 0.984 . S
N1339 C1332 1.356 . S
N1339 H1342 0.984 . S
N1339 H1343 0.985 . S
H1340 N1335 0.984 . S
H1341 N1335 0.985 . S
H1342 N1339 0.984 . S
H1343 N1339 0.985 . S
H1344 N1338 0.984 . S
H1345 N1338 0.984 . S
H1346 N1334 0.984 . S
H1347 N1334 0.985 . S
C1348 C1349 1.363 . S
C1348 C1354 1.379 . S
C1348 N1356 1.356 . S
C1349 C1348 1.363 . S
C1349 C1355 1.363 . S
C1350 C1351 1.363 . S
C1350 C1355 1.379 . S
C1350 N1357 1.356 . S
C1351 C1350 1.363 . S
C1351 C1354 1.363 . S
N1352 C1354 1.356 . S
N1352 H1364 0.984 . S
N1352 H1365 0.985 . S
N1353 C1355 1.356 . S
N1353 H1358 0.984 . S
N1353 H1359 0.985 . S
C1354 C1348 1.379 . S
C1354 C1351 1.363 . S
C1354 N1352 1.356 . S
C1355 C1349 1.363 . S
C1355 C1350 1.379 . S
C1355 N1353 1.356 . S
N1356 C1348 1.356 . S
N1356 H1362 0.984 . S
N1356 H1363 0.984 . S
N1357 C1350 1.356 . S
N1357 H1360 0.984 . S
N1357 H1361 0.985 . S
H1358 N1353 0.984 . S
H1359 N1353 0.985 . S
H1360 N1357 0.984 . S
H1361 N1357 0.985 . S
H1362 N1356 0.984 . S
H1363 N1356 0.984 . S
H1364 N1352 0.984 . S
H1365 N1352 0.985 . S
C1366 C1367 1.363 . S
C1366 C1372 1.379 . S
C1366 N1374 1.356 . S
C1367 C1366 1.363 . S
C1367 C1373 1.363 . S
C1368 C1369 1.363 . S
C1368 C1373 1.379 . S
C1368 N1375 1.356 . S
C1369 C1368 1.363 . S
C1369 C1372 1.363 . S
N1370 C1372 1.356 . S
N1370 H1382 0.984 . S
N1370 H1383 0.985 . S
N1371 C1373 1.356 . S
N1371 H1376 0.984 . S
N1371 H1377 0.985 . S
C1372 C1366 1.379 . S
C1372 C1369 1.363 . S
C1372 N1370 1.356 . S
C1373 C1367 1.363 . S
C1373 C1368 1.379 . S
C1373 N1371 1.356 . S
N1374 C1366 1.356 . S
N1374 H1380 0.984 . S
N1374 H1381 0.984 . S
N1375 C1368 1.356 . S
N1375 H1378 0.984 . S
N1375 H1379 0.985 . S
H1376 N1371 0.984 . S
H1377 N1371 0.985 . S
H1378 N1375 0.984 . S
H1379 N1375 0.985 . S
H1380 N1374 0.984 . S
H1381 N1374 0.984 . S
H1382 N1370 0.984 . S
H1383 N1370 0.985 . S
C1384 C1385 1.363 . S
C1384 C1390 1.379 . S
C1384 N1392 1.356 . S
C1385 C1384 1.363 . S
C1385 C1391 1.363 . S
C1386 C1387 1.363 . S
C1386 C1391 1.379 . S
C1386 N1393 1.356 . S
C1387 C1386 1.363 . S
C1387 C1390 1.363 . S
N1388 C1390 1.356 . S
N1388 H1400 0.984 . S
N1388 H1401 0.985 . S
N1389 C1391 1.356 . S
N1389 H1394 0.984 . S
N1389 H1395 0.985 . S
C1390 C1384 1.379 . S
C1390 C1387 1.363 . S
C1390 N1388 1.356 . S
C1391 C1385 1.363 . S
C1391 C1386 1.379 . S
C1391 N1389 1.356 . S
N1392 C1384 1.356 . S
N1392 H1398 0.984 . S
N1392 H1399 0.984 . S
N1393 C1386 1.356 . S
N1393 H1396 0.984 . S
N1393 H1397 0.985 . S
H1394 N1389 0.984 . S
H1395 N1389 0.985 . S
H1396 N1393 0.984 . S
H1397 N1393 0.985 . S
H1398 N1392 0.984 . S
H1399 N1392 0.984 . S
H1400 N1388 0.984 . S
H1401 N1388 0.985 . S
C1402 C1403 1.363 . S
C1402 C1408 1.379 . S
C1402 N1410 1.356 . S
C1403 C1402 1.363 . S
C1403 C1409 1.363 . S
C1404 C1405 1.363 . S
C1404 C1409 1.379 . S
C1404 N1411 1.356 . S
C1405 C1404 1.363 . S
C1405 C1408 1.363 . S
N1406 C1408 1.356 . S
N1406 H1418 0.984 . S
N1406 H1419 0.985 . S
N1407 C1409 1.356 . S
N1407 H1412 0.984 . S
N1407 H1413 0.985 . S
C1408 C1402 1.379 . S
C1408 C1405 1.363 . S
C1408 N1406 1.356 . S
C1409 C1403 1.363 . S
C1409 C1404 1.379 . S
C1409 N1407 1.356 . S
N1410 C1402 1.356 . S
N1410 H1416 0.984 . S
N1410 H1417 0.984 . S
N1411 C1404 1.356 . S
N1411 H1414 0.984 . S
N1411 H1415 0.985 . S
H1412 N1407 0.984 . S
H1413 N1407 0.985 . S
H1414 N1411 0.984 . S
H1415 N1411 0.985 . S
H1416 N1410 0.984 . S
H1417 N1410 0.984 . S
H1418 N1406 0.984 . S
H1419 N1406 0.985 . S
C1420 C1421 1.363 . S
C1420 C1426 1.379 . S
C1420 N1428 1.356 . S
C1421 C1420 1.363 . S
C1421 C1427 1.363 . S
C1422 C1423 1.363 . S
C1422 C1427 1.379 . S
C1422 N1429 1.356 . S
C1423 C1422 1.363 . S
C1423 C1426 1.363 . S
N1424 C1426 1.356 . S
N1424 H1436 0.984 . S
N1424 H1437 0.985 . S
N1425 C1427 1.356 . S
N1425 H1430 0.984 . S
N1425 H1431 0.985 . S
C1426 C1420 1.379 . S
C1426 C1423 1.363 . S
C1426 N1424 1.356 . S
C1427 C1421 1.363 . S
C1427 C1422 1.379 . S
C1427 N1425 1.356 . S
N1428 C1420 1.356 . S
N1428 H1434 0.984 . S
N1428 H1435 0.984 . S
N1429 C1422 1.356 . S
N1429 H1432 0.984 . S
N1429 H1433 0.985 . S
H1430 N1425 0.984 . S
H1431 N1425 0.985 . S
H1432 N1429 0.984 . S
H1433 N1429 0.985 . S
H1434 N1428 0.984 . S
H1435 N1428 0.984 . S
H1436 N1424 0.984 . S
H1437 N1424 0.985 . S
C1438 C1439 1.363 . S
C1438 C1444 1.379 . S
C1438 N1446 1.356 . S
C1439 C1438 1.363 . S
C1439 C1445 1.363 . S
C1440 C1441 1.363 . S
C1440 C1445 1.379 . S
C1440 N1447 1.356 . S
C1441 C1440 1.363 . S
C1441 C1444 1.363 . S
N1442 C1444 1.356 . S
N1442 H1454 0.984 . S
N1442 H1455 0.985 . S
N1443 C1445 1.356 . S
N1443 H1448 0.984 . S
N1443 H1449 0.985 . S
C1444 C1438 1.379 . S
C1444 C1441 1.363 . S
C1444 N1442 1.356 . S
C1445 C1439 1.363 . S
C1445 C1440 1.379 . S
C1445 N1443 1.356 . S
N1446 C1438 1.356 . S
N1446 H1452 0.984 . S
N1446 H1453 0.984 . S
N1447 C1440 1.356 . S
N1447 H1450 0.984 . S
N1447 H1451 0.985 . S
H1448 N1443 0.984 . S
H1449 N1443 0.985 . S
H1450 N1447 0.984 . S
H1451 N1447 0.985 . S
H1452 N1446 0.984 . S
H1453 N1446 0.984 . S
H1454 N1442 0.984 . S
H1455 N1442 0.985 . S
C1456 C1457 1.363 . S
C1456 C1462 1.379 . S
C1456 N1464 1.356 . S
C1457 C1456 1.363 . S
C1457 C1463 1.363 . S
C1458 C1459 1.363 . S
C1458 C1463 1.379 . S
C1458 N1465 1.356 . S
C1459 C1458 1.363 . S
C1459 C1462 1.363 . S
N1460 C1462 1.356 . S
N1460 H1472 0.984 . S
N1460 H1473 0.985 . S
N1461 C1463 1.356 . S
N1461 H1466 0.984 . S
N1461 H1467 0.985 . S
C1462 C1456 1.379 . S
C1462 C1459 1.363 . S
C1462 N1460 1.356 . S
C1463 C1457 1.363 . S
C1463 C1458 1.379 . S
C1463 N1461 1.356 . S
N1464 C1456 1.356 . S
N1464 H1470 0.984 . S
N1464 H1471 0.984 . S
N1465 C1458 1.356 . S
N1465 H1468 0.984 . S
N1465 H1469 0.985 . S
H1466 N1461 0.984 . S
H1467 N1461 0.985 . S
H1468 N1465 0.984 . S
H1469 N1465 0.985 . S
H1470 N1464 0.984 . S
H1471 N1464 0.984 . S
H1472 N1460 0.984 . S
H1473 N1460 0.985 . S
C1474 C1475 1.363 . S
C1474 C1480 1.379 . S
C1474 N1482 1.356 . S
C1475 C1474 1.363 . S
C1475 C1481 1.363 . S
C1476 C1477 1.363 . S
C1476 C1481 1.379 . S
C1476 N1483 1.356 . S
C1477 C1476 1.363 . S
C1477 C1480 1.363 . S
N1478 C1480 1.356 . S
N1478 H1490 0.984 . S
N1478 H1491 0.985 . S
N1479 C1481 1.356 . S
N1479 H1484 0.984 . S
N1479 H1485 0.985 . S
C1480 C1474 1.379 . S
C1480 C1477 1.363 . S
C1480 N1478 1.356 . S
C1481 C1475 1.363 . S
C1481 C1476 1.379 . S
C1481 N1479 1.356 . S
N1482 C1474 1.356 . S
N1482 H1488 0.984 . S
N1482 H1489 0.984 . S
N1483 C1476 1.356 . S
N1483 H1486 0.984 . S
N1483 H1487 0.985 . S
H1484 N1479 0.984 . S
H1485 N1479 0.985 . S
H1486 N1483 0.984 . S
H1487 N1483 0.985 . S
H1488 N1482 0.984 . S
H1489 N1482 0.984 . S
H1490 N1478 0.984 . S
H1491 N1478 0.985 . S
C1492 C1493 1.363 . S
C1492 C1498 1.379 . S
C1492 N1500 1.356 . S
C1493 C1492 1.363 . S
C1493 C1499 1.363 . S
C1494 C1495 1.363 . S
C1494 C1499 1.379 . S
C1494 N1501 1.356 1_565 S
C1495 C1494 1.363 . S
C1495 C1498 1.363 . S
N1496 C1498 1.356 . S
N1496 H1508 0.984 . S
N1496 H1509 0.985 . S
N1497 C1499 1.356 . S
N1497 H1502 0.984 . S
N1497 H1503 0.985 . S
C1498 C1492 1.379 . S
C1498 C1495 1.363 . S
C1498 N1496 1.356 . S
C1499 C1493 1.363 . S
C1499 C1494 1.379 . S
C1499 N1497 1.356 . S
N1500 C1492 1.356 . S
N1500 H1506 0.984 . S
N1500 H1507 0.984 . S
N1501 C1494 1.356 1_545 S
N1501 H1504 0.984 . S
N1501 H1505 0.985 . S
H1502 N1497 0.984 . S
H1503 N1497 0.985 . S
H1504 N1501 0.984 . S
H1505 N1501 0.985 . S
H1506 N1500 0.984 . S
H1507 N1500 0.984 . S
H1508 N1496 0.984 . S
H1509 N1496 0.985 . S
C1510 C1511 1.363 . S
C1510 C1516 1.379 . S
C1510 N1518 1.356 . S
C1511 C1510 1.363 . S
C1511 C1517 1.363 . S
C1512 C1513 1.363 . S
C1512 C1517 1.379 . S
C1512 N1519 1.356 . S
C1513 C1512 1.363 . S
C1513 C1516 1.363 . S
N1514 C1516 1.356 . S
N1514 H1526 0.984 . S
N1514 H1527 0.985 . S
N1515 C1517 1.356 . S
N1515 H1520 0.984 . S
N1515 H1521 0.985 . S
C1516 C1510 1.379 . S
C1516 C1513 1.363 . S
C1516 N1514 1.356 . S
C1517 C1511 1.363 . S
C1517 C1512 1.379 . S
C1517 N1515 1.356 . S
N1518 C1510 1.356 . S
N1518 H1524 0.984 . S
N1518 H1525 0.984 . S
N1519 C1512 1.356 . S
N1519 H1522 0.984 . S
N1519 H1523 0.985 . S
H1520 N1515 0.984 . S
H1521 N1515 0.985 . S
H1522 N1519 0.984 . S
H1523 N1519 0.985 . S
H1524 N1518 0.984 . S
H1525 N1518 0.984 . S
H1526 N1514 0.984 . S
H1527 N1514 0.985 . S
C1528 C1529 1.363 . S
C1528 C1534 1.379 . S
C1528 N1536 1.356 . S
C1529 C1528 1.363 . S
C1529 C1535 1.363 . S
C1530 C1531 1.363 . S
C1530 C1535 1.379 . S
C1530 N1537 1.373 . S
C1531 C1530 1.363 . S
C1531 C1534 1.363 . S
N1532 C1534 1.356 . S
N1532 H1544 0.984 . S
N1532 H1545 0.985 . S
N1533 C1535 1.356 1_565 S
N1533 H1538 0.985 . S
N1533 H1539 0.985 . S
C1534 C1528 1.379 . S
C1534 C1531 1.363 . S
C1534 N1532 1.356 . S
C1535 C1529 1.363 . S
C1535 C1530 1.379 . S
C1535 N1533 1.356 1_545 S
N1536 C1528 1.356 . S
N1536 H1542 0.984 . S
N1536 H1543 0.984 . S
N1537 C1530 1.373 . S
N1537 H1540 0.992 . S
N1537 H1541 0.961 1_545 S
H1538 N1533 0.985 . S
H1539 N1533 0.985 . S
H1540 N1537 0.992 . S
H1541 N1537 0.961 1_565 S
H1542 N1536 0.984 . S
H1543 N1536 0.984 . S
H1544 N1532 0.984 . S
H1545 N1532 0.985 . S
C1546 C1547 1.363 . S
C1546 C1552 1.379 . S
C1546 N1554 1.356 . S
C1547 C1546 1.363 . S
C1547 C1553 1.363 . S
C1548 C1549 1.363 . S
C1548 C1553 1.379 . S
C1548 N1555 1.356 . S
C1549 C1548 1.363 . S
C1549 C1552 1.363 . S
N1550 C1552 1.356 . S
N1550 H1562 0.984 . S
N1550 H1563 0.985 . S
N1551 C1553 1.356 . S
N1551 H1556 0.984 . S
N1551 H1557 0.985 . S
C1552 C1546 1.379 . S
C1552 C1549 1.363 . S
C1552 N1550 1.356 . S
C1553 C1547 1.363 . S
C1553 C1548 1.379 . S
C1553 N1551 1.356 . S
N1554 C1546 1.356 . S
N1554 H1560 0.984 . S
N1554 H1561 0.984 . S
N1555 C1548 1.356 . S
N1555 H1558 0.984 . S
N1555 H1559 0.985 . S
H1556 N1551 0.984 . S
H1557 N1551 0.985 . S
H1558 N1555 0.984 . S
H1559 N1555 0.985 . S
H1560 N1554 0.984 . S
H1561 N1554 0.984 . S
H1562 N1550 0.984 . S
H1563 N1550 0.985 . S
C1564 C1565 1.363 1_565 S
C1564 C1570 1.377 . S
C1564 N1572 1.356 . S
C1565 C1564 1.363 1_545 S
C1565 C1571 1.363 . S
C1566 C1567 1.363 . S
C1566 C1571 1.379 . S
C1566 N1573 1.356 . S
C1567 C1566 1.363 . S
C1567 C1570 1.352 1_545 S
N1568 C1570 1.367 . S
N1568 H1580 0.984 . S
N1568 H1581 0.985 . S
N1569 C1571 1.356 . S
N1569 H1574 0.984 . S
N1569 H1575 0.985 . S
C1570 C1564 1.377 . S
C1570 C1567 1.352 1_565 S
C1570 N1568 1.367 . S
C1571 C1565 1.363 . S
C1571 C1566 1.379 . S
C1571 N1569 1.356 . S
N1572 C1564 1.356 . S
N1572 H1578 0.984 . S
N1572 H1579 0.984 . S
N1573 C1566 1.356 . S
N1573 H1576 0.984 . S
N1573 H1577 0.985 . S
H1574 N1569 0.984 . S
H1575 N1569 0.985 . S
H1576 N1573 0.984 . S
H1577 N1573 0.985 . S
H1578 N1572 0.984 . S
H1579 N1572 0.984 . S
H1580 N1568 0.984 . S
H1581 N1568 0.985 . S
C1582 C1583 1.363 . S
C1582 C1588 1.379 . S
C1582 N1590 1.356 . S
C1583 C1582 1.363 . S
C1583 C1589 1.363 . S
C1584 C1585 1.363 . S
C1584 C1589 1.379 . S
C1584 N1591 1.356 . S
C1585 C1584 1.363 . S
C1585 C1588 1.363 . S
N1586 C1588 1.356 . S
N1586 H1598 0.984 . S
N1586 H1599 0.985 . S
N1587 C1589 1.356 . S
N1587 H1592 0.984 . S
N1587 H1593 0.985 . S
C1588 C1582 1.379 . S
C1588 C1585 1.363 . S
C1588 N1586 1.356 . S
C1589 C1583 1.363 . S
C1589 C1584 1.379 . S
C1589 N1587 1.356 . S
N1590 C1582 1.356 . S
N1590 H1596 0.984 . S
N1590 H1597 0.984 . S
N1591 C1584 1.356 . S
N1591 H1594 0.984 . S
N1591 H1595 0.985 . S
H1592 N1587 0.984 . S
H1593 N1587 0.985 . S
H1594 N1591 0.984 . S
H1595 N1591 0.985 . S
H1596 N1590 0.984 . S
H1597 N1590 0.984 . S
H1598 N1586 0.984 . S
H1599 N1586 0.985 . S
C1600 C1601 1.359 1_565 S
C1600 C1606 1.370 1_565 S
C1600 N1608 1.370 . S
C1601 C1600 1.359 1_545 S
C1601 C1607 1.363 . S
C1602 C1603 1.363 . S
C1602 C1607 1.379 . S
C1602 N1609 1.356 . S
C1603 C1602 1.363 . S
C1603 C1606 1.363 . S
N1604 C1606 1.356 1_565 S
N1604 H1616 1.007 . S
N1604 H1617 0.963 1_565 S
N1605 C1607 1.356 . S
N1605 H1610 0.984 . S
N1605 H1611 0.985 . S
C1606 C1600 1.370 1_545 S
C1606 C1603 1.363 . S
C1606 N1604 1.356 1_545 S
C1607 C1601 1.363 . S
C1607 C1602 1.379 . S
C1607 N1605 1.356 . S
N1608 C1600 1.370 . S
N1608 H1614 0.984 . S
N1608 H1615 0.984 . S
N1609 C1602 1.356 . S
N1609 H1612 0.984 . S
N1609 H1613 0.985 . S
H1610 N1605 0.984 . S
H1611 N1605 0.985 . S
H1612 N1609 0.984 . S
H1613 N1609 0.985 . S
H1614 N1608 0.984 . S
H1615 N1608 0.984 . S
H1616 N1604 1.007 . S
H1617 N1604 0.963 1_545 S
C1618 C1619 1.363 . S
C1618 C1624 1.379 . S
C1618 N1626 1.356 . S
C1619 C1618 1.363 . S
C1619 C1625 1.363 . S
C1620 C1621 1.363 . S
C1620 C1625 1.379 . S
C1620 N1627 1.356 . S
C1621 C1620 1.363 . S
C1621 C1624 1.363 . S
N1622 C1624 1.356 . S
N1622 H1634 0.984 . S
N1622 H1635 0.985 . S
N1623 C1625 1.356 . S
N1623 H1628 0.984 . S
N1623 H1629 0.985 . S
C1624 C1618 1.379 . S
C1624 C1621 1.363 . S
C1624 N1622 1.356 . S
C1625 C1619 1.363 . S
C1625 C1620 1.379 . S
C1625 N1623 1.356 . S
N1626 C1618 1.356 . S
N1626 H1632 0.984 . S
N1626 H1633 0.984 . S
N1627 C1620 1.356 . S
N1627 H1630 0.984 . S
N1627 H1631 0.985 . S
H1628 N1623 0.984 . S
H1629 N1623 0.985 . S
H1630 N1627 0.984 . S
H1631 N1627 0.985 . S
H1632 N1626 0.984 . S
H1633 N1626 0.984 . S
H1634 N1622 0.984 . S
H1635 N1622 0.985 . S
C1636 C1637 1.363 1_565 S
C1636 C1642 1.379 . S
C1636 N1644 1.356 . S
C1637 C1636 1.363 1_545 S
C1637 C1643 1.363 . S
C1638 C1639 1.363 . S
C1638 C1643 1.379 . S
C1638 N1645 1.356 . S
C1639 C1638 1.363 . S
C1639 C1642 1.363 1_545 S
N1640 C1642 1.356 . S
N1640 H1652 0.984 . S
N1640 H1653 0.985 . S
N1641 C1643 1.356 . S
N1641 H1646 0.984 . S
N1641 H1647 0.985 . S
C1642 C1636 1.379 . S
C1642 C1639 1.363 1_565 S
C1642 N1640 1.356 . S
C1643 C1637 1.363 . S
C1643 C1638 1.379 . S
C1643 N1641 1.356 . S
N1644 C1636 1.356 . S
N1644 H1650 0.984 . S
N1644 H1651 0.984 . S
N1645 C1638 1.356 . S
N1645 H1648 0.984 . S
N1645 H1649 0.985 . S
H1646 N1641 0.984 . S
H1647 N1641 0.985 . S
H1648 N1645 0.984 . S
H1649 N1645 0.985 . S
H1650 N1644 0.984 . S
H1651 N1644 0.984 . S
H1652 N1640 0.984 . S
H1653 N1640 0.985 . S
C1654 C1655 1.363 . S
C1654 C1660 1.379 . S
C1654 N1662 1.356 . S
C1655 C1654 1.363 . S
C1655 C1661 1.363 . S
C1656 C1657 1.363 . S
C1656 C1661 1.379 . S
C1656 N1663 1.356 . S
C1657 C1656 1.363 . S
C1657 C1660 1.363 . S
N1658 C1660 1.356 . S
N1658 H1670 0.984 . S
N1658 H1671 0.985 . S
N1659 C1661 1.356 . S
N1659 H1664 0.984 . S
N1659 H1665 0.985 . S
C1660 C1654 1.379 . S
C1660 C1657 1.363 . S
C1660 N1658 1.356 . S
C1661 C1655 1.363 . S
C1661 C1656 1.379 . S
C1661 N1659 1.356 . S
N1662 C1654 1.356 . S
N1662 H1668 0.984 . S
N1662 H1669 0.984 . S
N1663 C1656 1.356 . S
N1663 H1666 0.984 . S
N1663 H1667 0.985 . S
H1664 N1659 0.984 . S
H1665 N1659 0.985 . S
H1666 N1663 0.984 . S
H1667 N1663 0.985 . S
H1668 N1662 0.984 . S
H1669 N1662 0.984 . S
H1670 N1658 0.984 . S
H1671 N1658 0.985 . S
C1672 C1673 1.363 . S
C1672 C1678 1.379 . S
C1672 N1680 1.356 . S
C1673 C1672 1.363 . S
C1673 C1679 1.363 . S
C1674 C1675 1.363 . S
C1674 C1679 1.379 . S
C1674 N1681 1.356 1_554 S
C1675 C1674 1.363 . S
C1675 C1678 1.363 . S
N1676 C1678 1.356 . S
N1676 H1688 0.984 . S
N1676 H1689 0.985 1_655 S
N1677 C1679 1.356 1_556 S
N1677 H1682 0.984 1_556 S
N1677 H1683 0.985 . S
C1678 C1672 1.379 . S
C1678 C1675 1.363 . S
C1678 N1676 1.356 . S
C1679 C1673 1.363 . S
C1679 C1674 1.379 . S
C1679 N1677 1.356 1_554 S
N1680 C1672 1.356 . S
N1680 H1686 0.984 . S
N1680 H1687 0.984 . S
N1681 C1674 1.356 1_556 S
N1681 H1684 0.984 . S
N1681 H1685 0.985 . S
H1682 N1677 0.984 1_554 S
H1683 N1677 0.985 . S
H1684 N1681 0.984 . S
H1685 N1681 0.985 . S
H1686 N1680 0.984 . S
H1687 N1680 0.984 . S
H1688 N1676 0.984 . S
H1689 N1676 0.985 1_455 S
C1690 C1691 1.363 . S
C1690 C1696 1.379 . S
C1690 N1698 1.356 . S
C1691 C1690 1.363 . S
C1691 C1697 1.363 . S
C1692 C1693 1.363 1_556 S
C1692 C1697 1.379 1_556 S
C1692 N1699 1.356 . S
C1693 C1692 1.363 1_554 S
C1693 C1696 1.363 . S
N1694 C1696 1.356 . S
N1694 H1706 0.984 . S
N1694 H1707 0.985 . S
N1695 C1697 1.356 1_556 S
N1695 H1700 0.984 . S
N1695 H1701 0.985 . S
C1696 C1690 1.379 . S
C1696 C1693 1.363 . S
C1696 N1694 1.356 . S
C1697 C1691 1.363 . S
C1697 C1692 1.379 1_554 S
C1697 N1695 1.356 1_554 S
N1698 C1690 1.356 . S
N1698 H1704 0.984 . S
N1698 H1705 0.984 . S
N1699 C1692 1.356 . S
N1699 H1702 0.984 . S
N1699 H1703 0.985 . S
H1700 N1695 0.984 . S
H1701 N1695 0.985 . S
H1702 N1699 0.984 . S
H1703 N1699 0.985 . S
H1704 N1698 0.984 . S
H1705 N1698 0.984 . S
H1706 N1694 0.984 . S
H1707 N1694 0.985 . S
C1708 C1709 1.363 . S
C1708 C1714 1.379 . S
C1708 N1716 1.356 . S
C1709 C1708 1.363 . S
C1709 C1715 1.363 . S
C1710 C1711 1.363 . S
C1710 C1715 1.379 . S
C1710 N1717 1.356 . S
C1711 C1710 1.363 . S
C1711 C1714 1.363 . S
N1712 C1714 1.356 . S
N1712 H1724 0.984 . S
N1712 H1725 0.985 . S
N1713 C1715 1.356 . S
N1713 H1718 0.984 . S
N1713 H1719 0.985 . S
C1714 C1708 1.379 . S
C1714 C1711 1.363 . S
C1714 N1712 1.356 . S
C1715 C1709 1.363 . S
C1715 C1710 1.379 . S
C1715 N1713 1.356 . S
N1716 C1708 1.356 . S
N1716 H1722 0.984 . S
N1716 H1723 0.984 . S
N1717 C1710 1.356 . S
N1717 H1720 0.984 . S
N1717 H1721 0.985 . S
H1718 N1713 0.984 . S
H1719 N1713 0.985 . S
H1720 N1717 0.984 . S
H1721 N1717 0.985 . S
H1722 N1716 0.984 . S
H1723 N1716 0.984 . S
H1724 N1712 0.984 . S
H1725 N1712 0.985 . S
C1726 C1727 1.363 . S
C1726 C1732 1.379 . S
C1726 N1734 1.356 . S
C1727 C1726 1.363 . S
C1727 C1733 1.363 . S
C1728 C1729 1.363 . S
C1728 C1733 1.379 . S
C1728 N1735 1.356 . S
C1729 C1728 1.363 . S
C1729 C1732 1.363 . S
N1730 C1732 1.356 . S
N1730 H1742 0.984 . S
N1730 H1743 0.985 . S
N1731 C1733 1.356 . S
N1731 H1736 0.984 . S
N1731 H1737 0.985 . S
C1732 C1726 1.379 . S
C1732 C1729 1.363 . S
C1732 N1730 1.356 . S
C1733 C1727 1.363 . S
C1733 C1728 1.379 . S
C1733 N1731 1.356 . S
N1734 C1726 1.356 . S
N1734 H1740 0.984 . S
N1734 H1741 0.984 . S
N1735 C1728 1.356 . S
N1735 H1738 0.984 . S
N1735 H1739 0.985 . S
H1736 N1731 0.984 . S
H1737 N1731 0.985 . S
H1738 N1735 0.984 . S
H1739 N1735 0.985 . S
H1740 N1734 0.984 . S
H1741 N1734 0.984 . S
H1742 N1730 0.984 . S
H1743 N1730 0.985 . S
C1744 C1745 1.363 . S
C1744 C1750 1.379 . S
C1744 N1752 1.356 . S
C1745 C1744 1.363 . S
C1745 C1751 1.363 1_545 S
C1746 C1747 1.363 . S
C1746 C1751 1.379 . S
C1746 N1753 1.356 . S
C1747 C1746 1.363 . S
C1747 C1750 1.363 1_565 S
N1748 C1750 1.356 . S
N1748 H1760 0.984 . S
N1748 H1761 0.985 . S
N1749 C1751 1.356 . S
N1749 H1754 0.984 . S
N1749 H1755 0.985 . S
C1750 C1744 1.379 . S
C1750 C1747 1.363 1_545 S
C1750 N1748 1.356 . S
C1751 C1745 1.363 1_565 S
C1751 C1746 1.379 . S
C1751 N1749 1.356 . S
N1752 C1744 1.356 . S
N1752 H1758 0.984 . S
N1752 H1759 0.984 . S
N1753 C1746 1.356 . S
N1753 H1756 0.984 . S
N1753 H1757 0.985 . S
H1754 N1749 0.984 . S
H1755 N1749 0.985 . S
H1756 N1753 0.984 . S
H1757 N1753 0.985 . S
H1758 N1752 0.984 . S
H1759 N1752 0.984 . S
H1760 N1748 0.984 . S
H1761 N1748 0.985 . S
C1762 C1763 1.363 . S
C1762 C1768 1.379 . S
C1762 N1770 1.356 . S
C1763 C1762 1.363 . S
C1763 C1769 1.363 . S
C1764 C1765 1.363 . S
C1764 C1769 1.379 . S
C1764 N1771 1.356 . S
C1765 C1764 1.363 . S
C1765 C1768 1.363 . S
N1766 C1768 1.356 . S
N1766 H1778 0.984 . S
N1766 H1779 0.985 . S
N1767 C1769 1.356 . S
N1767 H1772 0.984 . S
N1767 H1773 0.985 . S
C1768 C1762 1.379 . S
C1768 C1765 1.363 . S
C1768 N1766 1.356 . S
C1769 C1763 1.363 . S
C1769 C1764 1.379 . S
C1769 N1767 1.356 . S
N1770 C1762 1.356 . S
N1770 H1776 0.984 . S
N1770 H1777 0.984 . S
N1771 C1764 1.356 . S
N1771 H1774 0.984 . S
N1771 H1775 0.985 . S
H1772 N1767 0.984 . S
H1773 N1767 0.985 . S
H1774 N1771 0.984 . S
H1775 N1771 0.985 . S
H1776 N1770 0.984 . S
H1777 N1770 0.984 . S
H1778 N1766 0.984 . S
H1779 N1766 0.985 . S
C1780 C1781 1.363 . S
C1780 C1786 1.379 . S
C1780 N1788 1.356 . S
C1781 C1780 1.363 . S
C1781 C1787 1.363 . S
C1782 C1783 1.363 . S
C1782 C1787 1.379 . S
C1782 N1789 1.356 . S
C1783 C1782 1.363 . S
C1783 C1786 1.363 . S
N1784 C1786 1.356 . S
N1784 H1796 0.984 . S
N1784 H1797 0.985 . S
N1785 C1787 1.356 . S
N1785 H1790 0.984 . S
N1785 H1791 0.985 . S
C1786 C1780 1.379 . S
C1786 C1783 1.363 . S
C1786 N1784 1.356 . S
C1787 C1781 1.363 . S
C1787 C1782 1.379 . S
C1787 N1785 1.356 . S
N1788 C1780 1.356 . S
N1788 H1794 0.984 . S
N1788 H1795 0.984 . S
N1789 C1782 1.356 . S
N1789 H1792 0.984 . S
N1789 H1793 0.985 . S
H1790 N1785 0.984 . S
H1791 N1785 0.985 . S
H1792 N1789 0.984 . S
H1793 N1789 0.985 . S
H1794 N1788 0.984 . S
H1795 N1788 0.984 . S
H1796 N1784 0.984 . S
H1797 N1784 0.985 . S
C1798 C1799 1.363 . S
C1798 C1804 1.379 . S
C1798 N1806 1.356 . S
C1799 C1798 1.363 . S
C1799 C1805 1.363 . S
C1800 C1801 1.363 . S
C1800 C1805 1.379 . S
C1800 N1807 1.356 . S
C1801 C1800 1.363 . S
C1801 C1804 1.363 . S
N1802 C1804 1.356 . S
N1802 H1814 0.984 . S
N1802 H1815 0.985 . S
N1803 C1805 1.356 . S
N1803 H1808 0.984 . S
N1803 H1809 0.985 . S
C1804 C1798 1.379 . S
C1804 C1801 1.363 . S
C1804 N1802 1.356 . S
C1805 C1799 1.363 . S
C1805 C1800 1.379 . S
C1805 N1803 1.356 . S
N1806 C1798 1.356 . S
N1806 H1812 0.984 . S
N1806 H1813 0.984 . S
N1807 C1800 1.356 . S
N1807 H1810 0.984 . S
N1807 H1811 0.985 . S
H1808 N1803 0.984 . S
H1809 N1803 0.985 . S
H1810 N1807 0.984 . S
H1811 N1807 0.985 . S
H1812 N1806 0.984 . S
H1813 N1806 0.984 . S
H1814 N1802 0.984 . S
H1815 N1802 0.985 . S
C1816 C1817 1.363 . S
C1816 C1822 1.379 . S
C1816 N1824 1.356 . S
C1817 C1816 1.363 . S
C1817 C1823 1.363 . S
C1818 C1819 1.363 . S
C1818 C1823 1.379 . S
C1818 N1825 1.356 . S
C1819 C1818 1.363 . S
C1819 C1822 1.363 . S
N1820 C1822 1.356 . S
N1820 H1832 0.984 . S
N1820 H1833 0.985 . S
N1821 C1823 1.356 . S
N1821 H1826 0.984 . S
N1821 H1827 0.985 . S
C1822 C1816 1.379 . S
C1822 C1819 1.363 . S
C1822 N1820 1.356 . S
C1823 C1817 1.363 . S
C1823 C1818 1.379 . S
C1823 N1821 1.356 . S
N1824 C1816 1.356 . S
N1824 H1830 0.984 . S
N1824 H1831 0.984 . S
N1825 C1818 1.356 . S
N1825 H1828 0.984 . S
N1825 H1829 0.985 . S
H1826 N1821 0.984 . S
H1827 N1821 0.985 . S
H1828 N1825 0.984 . S
H1829 N1825 0.985 . S
H1830 N1824 0.984 . S
H1831 N1824 0.984 . S
H1832 N1820 0.984 . S
H1833 N1820 0.985 . S
C1834 C1835 1.363 . S
C1834 C1840 1.379 . S
C1834 N1842 1.356 . S
C1835 C1834 1.363 . S
C1835 C1841 1.363 . S
C1836 C1837 1.363 . S
C1836 C1841 1.379 . S
C1836 N1843 1.356 . S
C1837 C1836 1.363 . S
C1837 C1840 1.363 . S
N1838 C1840 1.356 . S
N1838 H1850 0.984 . S
N1838 H1851 0.985 . S
N1839 C1841 1.356 . S
N1839 H1844 0.984 . S
N1839 H1845 0.985 . S
C1840 C1834 1.379 . S
C1840 C1837 1.363 . S
C1840 N1838 1.356 . S
C1841 C1835 1.363 . S
C1841 C1836 1.379 . S
C1841 N1839 1.356 . S
N1842 C1834 1.356 . S
N1842 H1848 0.984 . S
N1842 H1849 0.984 . S
N1843 C1836 1.356 . S
N1843 H1846 0.984 . S
N1843 H1847 0.985 . S
H1844 N1839 0.984 . S
H1845 N1839 0.985 . S
H1846 N1843 0.984 . S
H1847 N1843 0.985 . S
H1848 N1842 0.984 . S
H1849 N1842 0.984 . S
H1850 N1838 0.984 . S
H1851 N1838 0.985 . S
C1852 C1853 1.363 . S
C1852 C1858 1.379 . S
C1852 N1860 1.356 . S
C1853 C1852 1.363 . S
C1853 C1859 1.363 . S
C1854 C1855 1.363 . S
C1854 C1859 1.379 1_554 S
C1854 N1861 1.356 . S
C1855 C1854 1.363 . S
C1855 C1858 1.363 1_554 S
N1856 C1858 1.356 1_554 S
N1856 H1868 0.984 1_554 S
N1856 H1869 0.985 . S
N1857 C1859 1.356 . S
N1857 H1862 0.984 1_455 S
N1857 H1863 0.985 1_455 S
C1858 C1852 1.379 . S
C1858 C1855 1.363 1_556 S
C1858 N1856 1.356 1_556 S
C1859 C1853 1.363 . S
C1859 C1854 1.379 1_556 S
C1859 N1857 1.356 . S
N1860 C1852 1.356 . S
N1860 H1866 0.984 . S
N1860 H1867 0.984 . S
N1861 C1854 1.356 . S
N1861 H1864 0.984 . S
N1861 H1865 0.985 . S
H1862 N1857 0.984 1_655 S
H1863 N1857 0.985 1_655 S
H1864 N1861 0.984 . S
H1865 N1861 0.985 . S
H1866 N1860 0.984 . S
H1867 N1860 0.984 . S
H1868 N1856 0.984 1_556 S
H1869 N1856 0.985 . S
C1870 C1871 1.363 . S
C1870 C1876 1.379 1_455 S
C1870 N1878 1.356 . S
C1871 C1870 1.363 . S
C1871 C1877 1.363 . S
C1872 C1873 1.363 . S
C1872 C1877 1.379 1_655 S
C1872 N1879 1.356 . S
C1873 C1872 1.363 . S
C1873 C1876 1.363 . S
N1874 C1876 1.356 . S
N1874 H1886 0.984 . S
N1874 H1887 0.985 . S
N1875 C1877 1.356 . S
N1875 H1880 0.984 . S
N1875 H1881 0.985 . S
C1876 C1870 1.379 1_655 S
C1876 C1873 1.363 . S
C1876 N1874 1.356 . S
C1877 C1871 1.363 . S
C1877 C1872 1.379 1_455 S
C1877 N1875 1.356 . S
N1878 C1870 1.356 . S
N1878 H1884 0.984 . S
N1878 H1885 0.984 . S
N1879 C1872 1.356 . S
N1879 H1882 0.984 . S
N1879 H1883 0.985 . S
H1880 N1875 0.984 . S
H1881 N1875 0.985 . S
H1882 N1879 0.984 . S
H1883 N1879 0.985 . S
H1884 N1878 0.984 . S
H1885 N1878 0.984 . S
H1886 N1874 0.984 . S
H1887 N1874 0.985 . S
C1888 C1889 1.363 . S
C1888 C1894 1.379 . S
C1888 N1896 1.356 . S
C1889 C1888 1.363 . S
C1889 C1895 1.363 . S
C1890 C1891 1.363 . S
C1890 C1895 1.379 . S
C1890 N1897 1.356 . S
C1891 C1890 1.363 . S
C1891 C1894 1.363 . S
N1892 C1894 1.356 . S
N1892 H1904 0.984 . S
N1892 H1905 0.985 . S
N1893 C1895 1.356 . S
N1893 H1898 0.984 . S
N1893 H1899 0.985 . S
C1894 C1888 1.379 . S
C1894 C1891 1.363 . S
C1894 N1892 1.356 . S
C1895 C1889 1.363 . S
C1895 C1890 1.379 . S
C1895 N1893 1.356 . S
N1896 C1888 1.356 . S
N1896 H1902 0.984 . S
N1896 H1903 0.984 . S
N1897 C1890 1.356 . S
N1897 H1900 0.984 . S
N1897 H1901 0.985 . S
H1898 N1893 0.984 . S
H1899 N1893 0.985 . S
H1900 N1897 0.984 . S
H1901 N1897 0.985 . S
H1902 N1896 0.984 . S
H1903 N1896 0.984 . S
H1904 N1892 0.984 . S
H1905 N1892 0.985 . S
C1906 C1907 1.363 . S
C1906 C1912 1.379 . S
C1906 N1914 1.356 . S
C1907 C1906 1.363 . S
C1907 C1913 1.363 . S
C1908 C1909 1.363 . S
C1908 C1913 1.379 . S
C1908 N1915 1.356 . S
C1909 C1908 1.363 . S
C1909 C1912 1.363 . S
N1910 C1912 1.356 . S
N1910 H1922 0.970 1_455 S
N1910 H1923 0.985 1_455 S
N1911 C1913 1.356 . S
N1911 H1916 0.984 . S
N1911 H1917 0.985 . S
C1912 C1906 1.379 . S
C1912 C1909 1.363 . S
C1912 N1910 1.356 . S
C1913 C1907 1.363 . S
C1913 C1908 1.379 . S
C1913 N1911 1.356 . S
N1914 C1906 1.356 . S
N1914 H1920 0.984 . S
N1914 H1921 0.984 . S
N1915 C1908 1.356 . S
N1915 H1918 0.984 . S
N1915 H1919 0.985 . S
H1916 N1911 0.984 . S
H1917 N1911 0.985 . S
H1918 N1915 0.984 . S
H1919 N1915 0.985 . S
H1920 N1914 0.984 . S
H1921 N1914 0.984 . S
H1922 N1910 0.970 1_655 S
H1923 N1910 0.985 1_655 S
C1924 C1925 1.363 . S
C1924 C1930 1.379 1_655 S
C1924 N1932 1.356 . S
C1925 C1924 1.363 . S
C1925 C1931 1.363 1_655 S
C1926 C1927 1.363 . S
C1926 C1931 1.379 . S
C1926 N1933 1.356 . S
C1927 C1926 1.363 . S
C1927 C1930 1.363 . S
N1928 C1930 1.356 . S
N1928 H1940 0.984 1_455 S
N1928 H1941 0.985 . S
N1929 C1931 1.356 . S
N1929 H1934 0.984 . S
N1929 H1935 0.985 . S
C1930 C1924 1.379 1_455 S
C1930 C1927 1.363 . S
C1930 N1928 1.356 . S
C1931 C1925 1.363 1_455 S
C1931 C1926 1.379 . S
C1931 N1929 1.356 . S
N1932 C1924 1.356 . S
N1932 H1938 0.984 . S
N1932 H1939 0.984 . S
N1933 C1926 1.356 . S
N1933 H1936 0.984 . S
N1933 H1937 0.985 . S
H1934 N1929 0.984 . S
H1935 N1929 0.985 . S
H1936 N1933 0.984 . S
H1937 N1933 0.985 . S
H1938 N1932 0.984 . S
H1939 N1932 0.984 . S
H1940 N1928 0.984 1_655 S
H1941 N1928 0.985 . S
C1942 C1943 1.363 . S
C1942 C1948 1.379 . S
C1942 N1950 1.356 . S
C1943 C1942 1.363 . S
C1943 C1949 1.363 . S
C1944 C1945 1.363 . S
C1944 C1949 1.379 . S
C1944 N1951 1.356 . S
C1945 C1944 1.363 . S
C1945 C1948 1.363 . S
N1946 C1948 1.356 . S
N1946 H1958 0.984 . S
N1946 H1959 0.985 . S
N1947 C1949 1.356 . S
N1947 H1952 0.984 . S
N1947 H1953 0.985 . S
C1948 C1942 1.379 . S
C1948 C1945 1.363 . S
C1948 N1946 1.356 . S
C1949 C1943 1.363 . S
C1949 C1944 1.379 . S
C1949 N1947 1.356 . S
N1950 C1942 1.356 . S
N1950 H1956 0.984 . S
N1950 H1957 0.984 . S
N1951 C1944 1.356 . S
N1951 H1954 0.984 . S
N1951 H1955 0.985 . S
H1952 N1947 0.984 . S
H1953 N1947 0.985 . S
H1954 N1951 0.984 . S
H1955 N1951 0.985 . S
H1956 N1950 0.984 . S
H1957 N1950 0.984 . S
H1958 N1946 0.984 . S
H1959 N1946 0.985 . S
C1960 C1961 1.363 . S
C1960 C1966 1.379 . S
C1960 N1968 1.356 . S
C1961 C1960 1.363 . S
C1961 C1967 1.363 . S
C1962 C1963 1.363 . S
C1962 C1967 1.379 . S
C1962 N1969 1.356 . S
C1963 C1962 1.363 . S
C1963 C1966 1.363 . S
N1964 C1966 1.356 . S
N1964 H1976 0.984 . S
N1964 H1977 0.985 . S
N1965 C1967 1.356 . S
N1965 H1970 0.984 . S
N1965 H1971 0.985 . S
C1966 C1960 1.379 . S
C1966 C1963 1.363 . S
C1966 N1964 1.356 . S
C1967 C1961 1.363 . S
C1967 C1962 1.379 . S
C1967 N1965 1.356 . S
N1968 C1960 1.356 . S
N1968 H1974 0.984 . S
N1968 H1975 0.984 . S
N1969 C1962 1.356 . S
N1969 H1972 0.984 . S
N1969 H1973 0.985 . S
H1970 N1965 0.984 . S
H1971 N1965 0.985 . S
H1972 N1969 0.984 . S
H1973 N1969 0.985 . S
H1974 N1968 0.984 . S
H1975 N1968 0.984 . S
H1976 N1964 0.984 . S
H1977 N1964 0.985 . S
C1978 C1979 1.363 . S
C1978 C1984 1.379 . S
C1978 N1986 1.356 1_556 S
C1979 C1978 1.363 . S
C1979 C1985 1.363 . S
C1980 C1981 1.363 . S
C1980 C1985 1.379 . S
C1980 N1987 1.356 . S
C1981 C1980 1.363 . S
C1981 C1984 1.363 . S
N1982 C1984 1.356 1_554 S
N1982 H1994 0.984 . S
N1982 H1995 0.985 1_554 S
N1983 C1985 1.356 . S
N1983 H1988 0.984 . S
N1983 H1989 0.985 . S
C1984 C1978 1.379 . S
C1984 C1981 1.363 . S
C1984 N1982 1.356 1_556 S
C1985 C1979 1.363 . S
C1985 C1980 1.379 . S
C1985 N1983 1.356 . S
N1986 C1978 1.356 1_554 S
N1986 H1992 0.984 . S
N1986 H1993 0.984 . S
N1987 C1980 1.356 . S
N1987 H1990 0.984 . S
N1987 H1991 0.985 . S
H1988 N1983 0.984 . S
H1989 N1983 0.985 . S
H1990 N1987 0.984 . S
H1991 N1987 0.985 . S
H1992 N1986 0.984 . S
H1993 N1986 0.984 . S
H1994 N1982 0.984 . S
H1995 N1982 0.985 1_556 S
C1996 C1997 1.363 . S
C1996 C2002 1.379 . S
C1996 N2004 1.356 . S
C1997 C1996 1.363 . S
C1997 C2003 1.363 . S
C1998 C1999 1.363 . S
C1998 C2003 1.379 . S
C1998 N2005 1.356 . S
C1999 C1998 1.363 . S
C1999 C2002 1.363 . S
N2000 C2002 1.356 . S
N2000 H2012 0.984 . S
N2000 H2013 0.985 . S
N2001 C2003 1.356 . S
N2001 H2006 0.984 . S
N2001 H2007 0.985 . S
C2002 C1996 1.379 . S
C2002 C1999 1.363 . S
C2002 N2000 1.356 . S
C2003 C1997 1.363 . S
C2003 C1998 1.379 . S
C2003 N2001 1.356 . S
N2004 C1996 1.356 . S
N2004 H2010 0.984 . S
N2004 H2011 0.984 . S
N2005 C1998 1.356 . S
N2005 H2008 0.984 . S
N2005 H2009 0.985 . S
H2006 N2001 0.984 . S
H2007 N2001 0.985 . S
H2008 N2005 0.984 . S
H2009 N2005 0.985 . S
H2010 N2004 0.984 . S
H2011 N2004 0.984 . S
H2012 N2000 0.984 . S
H2013 N2000 0.985 . S
C2014 C2015 1.363 . S
C2014 C2020 1.379 . S
C2014 N2022 1.356 . S
C2015 C2014 1.363 . S
C2015 C2021 1.363 . S
C2016 C2017 1.363 . S
C2016 C2021 1.379 . S
C2016 N2023 1.356 . S
C2017 C2016 1.363 . S
C2017 C2020 1.363 . S
N2018 C2020 1.356 . S
N2018 H2030 0.984 . S
N2018 H2031 0.985 . S
N2019 C2021 1.356 . S
N2019 H2024 0.984 . S
N2019 H2025 0.985 . S
C2020 C2014 1.379 . S
C2020 C2017 1.363 . S
C2020 N2018 1.356 . S
C2021 C2015 1.363 . S
C2021 C2016 1.379 . S
C2021 N2019 1.356 . S
N2022 C2014 1.356 . S
N2022 H2028 0.984 . S
N2022 H2029 0.984 . S
N2023 C2016 1.356 . S
N2023 H2026 0.984 . S
N2023 H2027 0.985 . S
H2024 N2019 0.984 . S
H2025 N2019 0.985 . S
H2026 N2023 0.984 . S
H2027 N2023 0.985 . S
H2028 N2022 0.984 . S
H2029 N2022 0.984 . S
H2030 N2018 0.984 . S
H2031 N2018 0.985 . S
C2032 C2033 1.363 . S
C2032 C2038 1.379 . S
C2032 N2040 1.356 . S
C2033 C2032 1.363 . S
C2033 C2039 1.363 . S
C2034 C2035 1.363 . S
C2034 C2039 1.379 . S
C2034 N2041 1.356 . S
C2035 C2034 1.363 . S
C2035 C2038 1.363 . S
N2036 C2038 1.356 . S
N2036 H2048 0.984 . S
N2036 H2049 0.985 . S
N2037 C2039 1.356 . S
N2037 H2042 0.984 . S
N2037 H2043 0.985 . S
C2038 C2032 1.379 . S
C2038 C2035 1.363 . S
C2038 N2036 1.356 . S
C2039 C2033 1.363 . S
C2039 C2034 1.379 . S
C2039 N2037 1.356 . S
N2040 C2032 1.356 . S
N2040 H2046 0.984 . S
N2040 H2047 0.984 . S
N2041 C2034 1.356 . S
N2041 H2044 0.984 . S
N2041 H2045 0.985 . S
H2042 N2037 0.984 . S
H2043 N2037 0.985 . S
H2044 N2041 0.984 . S
H2045 N2041 0.985 . S
H2046 N2040 0.984 . S
H2047 N2040 0.984 . S
H2048 N2036 0.984 . S
H2049 N2036 0.985 . S
C2050 C2051 1.363 . S
C2050 C2056 1.379 . S
C2050 N2058 1.356 . S
C2051 C2050 1.363 . S
C2051 C2057 1.363 . S
C2052 C2053 1.363 . S
C2052 C2057 1.379 . S
C2052 N2059 1.356 . S
C2053 C2052 1.363 . S
C2053 C2056 1.363 . S
N2054 C2056 1.356 . S
N2054 H2066 0.984 . S
N2054 H2067 0.985 . S
N2055 C2057 1.356 . S
N2055 H2060 0.984 . S
N2055 H2061 0.985 . S
C2056 C2050 1.379 . S
C2056 C2053 1.363 . S
C2056 N2054 1.356 . S
C2057 C2051 1.363 . S
C2057 C2052 1.379 . S
C2057 N2055 1.356 . S
N2058 C2050 1.356 . S
N2058 H2064 0.984 . S
N2058 H2065 0.984 . S
N2059 C2052 1.356 . S
N2059 H2062 0.984 . S
N2059 H2063 0.985 . S
H2060 N2055 0.984 . S
H2061 N2055 0.985 . S
H2062 N2059 0.984 . S
H2063 N2059 0.985 . S
H2064 N2058 0.984 . S
H2065 N2058 0.984 . S
H2066 N2054 0.984 . S
H2067 N2054 0.985 . S
C2068 C2069 1.363 . S
C2068 C2074 1.379 . S
C2068 N2076 1.356 . S
C2069 C2068 1.363 . S
C2069 C2075 1.363 . S
C2070 C2071 1.363 . S
C2070 C2075 1.379 . S
C2070 N2077 1.356 . S
C2071 C2070 1.363 . S
C2071 C2074 1.363 . S
N2072 C2074 1.356 . S
N2072 H2084 0.984 . S
N2072 H2085 0.985 . S
N2073 C2075 1.356 . S
N2073 H2078 0.984 . S
N2073 H2079 0.985 . S
C2074 C2068 1.379 . S
C2074 C2071 1.363 . S
C2074 N2072 1.356 . S
C2075 C2069 1.363 . S
C2075 C2070 1.379 . S
C2075 N2073 1.356 . S
N2076 C2068 1.356 . S
N2076 H2082 0.984 . S
N2076 H2083 0.984 . S
N2077 C2070 1.356 . S
N2077 H2080 0.984 . S
N2077 H2081 0.985 . S
H2078 N2073 0.984 . S
H2079 N2073 0.985 . S
H2080 N2077 0.984 . S
H2081 N2077 0.985 . S
H2082 N2076 0.984 . S
H2083 N2076 0.984 . S
H2084 N2072 0.984 . S
H2085 N2072 0.985 . S
C2086 C2087 1.363 . S
C2086 C2092 1.379 . S
C2086 N2094 1.356 . S
C2087 C2086 1.363 . S
C2087 C2093 1.363 . S
C2088 C2089 1.363 . S
C2088 C2093 1.379 . S
C2088 N2095 1.356 . S
C2089 C2088 1.363 . S
C2089 C2092 1.363 . S
N2090 C2092 1.356 . S
N2090 H2102 0.984 . S
N2090 H2103 0.985 . S
N2091 C2093 1.356 . S
N2091 H2096 0.984 . S
N2091 H2097 0.985 . S
C2092 C2086 1.379 . S
C2092 C2089 1.363 . S
C2092 N2090 1.356 . S
C2093 C2087 1.363 . S
C2093 C2088 1.379 . S
C2093 N2091 1.356 . S
N2094 C2086 1.356 . S
N2094 H2100 0.984 . S
N2094 H2101 0.984 . S
N2095 C2088 1.356 . S
N2095 H2098 0.984 . S
N2095 H2099 0.985 . S
H2096 N2091 0.984 . S
H2097 N2091 0.985 . S
H2098 N2095 0.984 . S
H2099 N2095 0.985 . S
H2100 N2094 0.984 . S
H2101 N2094 0.984 . S
H2102 N2090 0.984 . S
H2103 N2090 0.985 . S
C2104 C2105 1.363 . S
C2104 C2110 1.379 . S
C2104 N2112 1.356 . S
C2105 C2104 1.363 . S
C2105 C2111 1.363 . S
C2106 C2107 1.363 . S
C2106 C2111 1.379 . S
C2106 N2113 1.356 . S
C2107 C2106 1.363 . S
C2107 C2110 1.363 . S
N2108 C2110 1.356 . S
N2108 H2120 0.984 . S
N2108 H2121 0.985 . S
N2109 C2111 1.356 . S
N2109 H2114 0.984 . S
N2109 H2115 0.985 . S
C2110 C2104 1.379 . S
C2110 C2107 1.363 . S
C2110 N2108 1.356 . S
C2111 C2105 1.363 . S
C2111 C2106 1.379 . S
C2111 N2109 1.356 . S
N2112 C2104 1.356 . S
N2112 H2118 0.984 . S
N2112 H2119 0.984 . S
N2113 C2106 1.356 . S
N2113 H2116 0.984 . S
N2113 H2117 0.985 . S
H2114 N2109 0.984 . S
H2115 N2109 0.985 . S
H2116 N2113 0.984 . S
H2117 N2113 0.985 . S
H2118 N2112 0.984 . S
H2119 N2112 0.984 . S
H2120 N2108 0.984 . S
H2121 N2108 0.985 . S
C2122 C2123 1.363 . S
C2122 C2128 1.379 . S
C2122 N2130 1.356 . S
C2123 C2122 1.363 . S
C2123 C2129 1.363 . S
C2124 C2125 1.363 . S
C2124 C2129 1.379 . S
C2124 N2131 1.356 . S
C2125 C2124 1.363 . S
C2125 C2128 1.363 . S
N2126 C2128 1.356 . S
N2126 H2138 0.984 . S
N2126 H2139 0.985 . S
N2127 C2129 1.356 . S
N2127 H2132 0.984 . S
N2127 H2133 0.985 . S
C2128 C2122 1.379 . S
C2128 C2125 1.363 . S
C2128 N2126 1.356 . S
C2129 C2123 1.363 . S
C2129 C2124 1.379 . S
C2129 N2127 1.356 . S
N2130 C2122 1.356 . S
N2130 H2136 0.984 . S
N2130 H2137 0.984 . S
N2131 C2124 1.356 . S
N2131 H2134 0.984 . S
N2131 H2135 0.985 . S
H2132 N2127 0.984 . S
H2133 N2127 0.985 . S
H2134 N2131 0.984 . S
H2135 N2131 0.985 . S
H2136 N2130 0.984 . S
H2137 N2130 0.984 . S
H2138 N2126 0.984 . S
H2139 N2126 0.985 . S
C2140 C2141 1.363 . S
C2140 C2146 1.379 . S
C2140 N2148 1.356 . S
C2141 C2140 1.363 . S
C2141 C2147 1.363 . S
C2142 C2143 1.363 . S
C2142 C2147 1.379 . S
C2142 N2149 1.356 . S
C2143 C2142 1.363 . S
C2143 C2146 1.363 . S
N2144 C2146 1.356 . S
N2144 H2156 0.984 . S
N2144 H2157 0.985 . S
N2145 C2147 1.356 . S
N2145 H2150 0.984 . S
N2145 H2151 0.985 . S
C2146 C2140 1.379 . S
C2146 C2143 1.363 . S
C2146 N2144 1.356 . S
C2147 C2141 1.363 . S
C2147 C2142 1.379 . S
C2147 N2145 1.356 . S
N2148 C2140 1.356 . S
N2148 H2154 0.984 . S
N2148 H2155 0.984 . S
N2149 C2142 1.356 . S
N2149 H2152 0.984 . S
N2149 H2153 0.985 . S
H2150 N2145 0.984 . S
H2151 N2145 0.985 . S
H2152 N2149 0.984 . S
H2153 N2149 0.985 . S
H2154 N2148 0.984 . S
H2155 N2148 0.984 . S
H2156 N2144 0.984 . S
H2157 N2144 0.985 . S
C2158 C2159 1.377 . S
C2158 C2164 1.379 . S
C2158 N2166 1.356 . S
C2159 C2158 1.377 . S
C2159 C2165 1.351 1_544 S
C2160 C2161 1.363 1_566 S
C2160 C2165 1.379 . S
C2160 N2167 1.356 . S
C2161 C2160 1.363 1_544 S
C2161 C2164 1.363 . S
N2162 C2164 1.356 . S
N2162 H2174 0.984 . S
N2162 H2175 0.985 . S
N2163 C2165 1.356 . S
N2163 H2168 0.984 . S
N2163 H2169 0.985 . S
C2164 C2158 1.379 . S
C2164 C2161 1.363 . S
C2164 N2162 1.356 . S
C2165 C2159 1.351 1_566 S
C2165 C2160 1.379 . S
C2165 N2163 1.356 . S
N2166 C2158 1.356 . S
N2166 H2172 0.984 . S
N2166 H2173 0.984 . S
N2167 C2160 1.356 . S
N2167 H2170 0.985 . S
N2167 H2171 0.985 . S
H2168 N2163 0.984 . S
H2169 N2163 0.985 . S
H2170 N2167 0.985 . S
H2171 N2167 0.985 . S
H2172 N2166 0.984 . S
H2173 N2166 0.984 . S
H2174 N2162 0.984 . S
H2175 N2162 0.985 . S
C2176 C2177 1.363 . S
C2176 C2182 1.379 . S
C2176 N2184 1.356 . S
C2177 C2176 1.363 . S
C2177 C2183 1.363 . S
C2178 C2179 1.363 . S
C2178 C2183 1.379 . S
C2178 N2185 1.356 . S
C2179 C2178 1.363 . S
C2179 C2182 1.363 . S
N2180 C2182 1.356 . S
N2180 H2192 0.984 . S
N2180 H2193 0.985 . S
N2181 C2183 1.356 . S
N2181 H2186 0.984 . S
N2181 H2187 0.985 . S
C2182 C2176 1.379 . S
C2182 C2179 1.363 . S
C2182 N2180 1.356 . S
C2183 C2177 1.363 . S
C2183 C2178 1.379 . S
C2183 N2181 1.356 . S
N2184 C2176 1.356 . S
N2184 H2190 0.984 . S
N2184 H2191 0.984 . S
N2185 C2178 1.356 . S
N2185 H2188 0.984 . S
N2185 H2189 0.985 . S
H2186 N2181 0.984 . S
H2187 N2181 0.985 . S
H2188 N2185 0.984 . S
H2189 N2185 0.985 . S
H2190 N2184 0.984 . S
H2191 N2184 0.984 . S
H2192 N2180 0.984 . S
H2193 N2180 0.985 . S
C2194 C2195 1.363 . S
C2194 C2200 1.379 . S
C2194 N2202 1.356 . S
C2195 C2194 1.363 . S
C2195 C2201 1.363 . S
C2196 C2197 1.363 . S
C2196 C2201 1.379 . S
C2196 N2203 1.356 . S
C2197 C2196 1.363 . S
C2197 C2200 1.363 . S
N2198 C2200 1.356 . S
N2198 H2210 0.984 . S
N2198 H2211 0.985 . S
N2199 C2201 1.356 . S
N2199 H2204 0.984 . S
N2199 H2205 0.985 . S
C2200 C2194 1.379 . S
C2200 C2197 1.363 . S
C2200 N2198 1.356 . S
C2201 C2195 1.363 . S
C2201 C2196 1.379 . S
C2201 N2199 1.356 . S
N2202 C2194 1.356 . S
N2202 H2208 0.984 . S
N2202 H2209 0.984 . S
N2203 C2196 1.356 . S
N2203 H2206 0.984 . S
N2203 H2207 0.985 . S
H2204 N2199 0.984 . S
H2205 N2199 0.985 . S
H2206 N2203 0.984 . S
H2207 N2203 0.985 . S
H2208 N2202 0.984 . S
H2209 N2202 0.984 . S
H2210 N2198 0.984 . S
H2211 N2198 0.985 . S
C2212 C2213 1.363 . S
C2212 C2218 1.379 . S
C2212 N2220 1.356 . S
C2213 C2212 1.363 . S
C2213 C2219 1.363 . S
C2214 C2215 1.363 . S
C2214 C2219 1.379 . S
C2214 N2221 1.356 . S
C2215 C2214 1.363 . S
C2215 C2218 1.363 . S
N2216 C2218 1.356 . S
N2216 H2228 0.984 . S
N2216 H2229 0.985 . S
N2217 C2219 1.356 . S
N2217 H2222 0.984 . S
N2217 H2223 0.985 . S
C2218 C2212 1.379 . S
C2218 C2215 1.363 . S
C2218 N2216 1.356 . S
C2219 C2213 1.363 . S
C2219 C2214 1.379 . S
C2219 N2217 1.356 . S
N2220 C2212 1.356 . S
N2220 H2226 0.984 . S
N2220 H2227 0.984 . S
N2221 C2214 1.356 . S
N2221 H2224 0.984 . S
N2221 H2225 0.985 . S
H2222 N2217 0.984 . S
H2223 N2217 0.985 . S
H2224 N2221 0.984 . S
H2225 N2221 0.985 . S
H2226 N2220 0.984 . S
H2227 N2220 0.984 . S
H2228 N2216 0.984 . S
H2229 N2216 0.985 . S
C2230 C2231 1.363 . S
C2230 C2236 1.379 . S
C2230 N2238 1.356 . S
C2231 C2230 1.363 . S
C2231 C2237 1.363 . S
C2232 C2233 1.363 . S
C2232 C2237 1.379 . S
C2232 N2239 1.356 . S
C2233 C2232 1.363 . S
C2233 C2236 1.363 . S
N2234 C2236 1.356 . S
N2234 H2246 0.984 . S
N2234 H2247 0.985 . S
N2235 C2237 1.356 . S
N2235 H2240 0.984 . S
N2235 H2241 0.985 . S
C2236 C2230 1.379 . S
C2236 C2233 1.363 . S
C2236 N2234 1.356 . S
C2237 C2231 1.363 . S
C2237 C2232 1.379 . S
C2237 N2235 1.356 . S
N2238 C2230 1.356 . S
N2238 H2244 0.984 . S
N2238 H2245 0.984 . S
N2239 C2232 1.356 . S
N2239 H2242 0.984 . S
N2239 H2243 0.985 . S
H2240 N2235 0.984 . S
H2241 N2235 0.985 . S
H2242 N2239 0.984 . S
H2243 N2239 0.985 . S
H2244 N2238 0.984 . S
H2245 N2238 0.984 . S
H2246 N2234 0.984 . S
H2247 N2234 0.985 . S
C2248 C2249 1.363 . S
C2248 C2254 1.379 . S
C2248 N2256 1.356 . S
C2249 C2248 1.363 . S
C2249 C2255 1.363 . S
C2250 C2251 1.363 . S
C2250 C2255 1.379 . S
C2250 N2257 1.356 . S
C2251 C2250 1.363 . S
C2251 C2254 1.363 . S
N2252 C2254 1.356 . S
N2252 H2264 0.984 . S
N2252 H2265 0.985 . S
N2253 C2255 1.356 . S
N2253 H2258 0.984 . S
N2253 H2259 0.985 . S
C2254 C2248 1.379 . S
C2254 C2251 1.363 . S
C2254 N2252 1.356 . S
C2255 C2249 1.363 . S
C2255 C2250 1.379 . S
C2255 N2253 1.356 . S
N2256 C2248 1.356 . S
N2256 H2262 0.984 . S
N2256 H2263 0.984 . S
N2257 C2250 1.356 . S
N2257 H2260 0.984 . S
N2257 H2261 0.985 . S
H2258 N2253 0.984 . S
H2259 N2253 0.985 . S
H2260 N2257 0.984 . S
H2261 N2257 0.985 . S
H2262 N2256 0.984 . S
H2263 N2256 0.984 . S
H2264 N2252 0.984 . S
H2265 N2252 0.985 . S
C2266 C2267 1.363 . S
C2266 C2272 1.379 . S
C2266 N2274 1.356 . S
C2267 C2266 1.363 . S
C2267 C2273 1.363 . S
C2268 C2269 1.363 . S
C2268 C2273 1.379 . S
C2268 N2275 1.356 . S
C2269 C2268 1.363 . S
C2269 C2272 1.363 . S
N2270 C2272 1.356 . S
N2270 H2282 0.984 . S
N2270 H2283 0.985 . S
N2271 C2273 1.356 . S
N2271 H2276 0.984 . S
N2271 H2277 0.985 . S
C2272 C2266 1.379 . S
C2272 C2269 1.363 . S
C2272 N2270 1.356 . S
C2273 C2267 1.363 . S
C2273 C2268 1.379 . S
C2273 N2271 1.356 . S
N2274 C2266 1.356 . S
N2274 H2280 0.984 . S
N2274 H2281 0.984 . S
N2275 C2268 1.356 . S
N2275 H2278 0.984 . S
N2275 H2279 0.985 . S
H2276 N2271 0.984 . S
H2277 N2271 0.985 . S
H2278 N2275 0.984 . S
H2279 N2275 0.985 . S
H2280 N2274 0.984 . S
H2281 N2274 0.984 . S
H2282 N2270 0.984 . S
H2283 N2270 0.985 . S
C2284 C2285 1.363 . S
C2284 C2290 1.379 . S
C2284 N2292 1.356 . S
C2285 C2284 1.363 . S
C2285 C2291 1.363 . S
C2286 C2287 1.363 . S
C2286 C2291 1.379 . S
C2286 N2293 1.356 . S
C2287 C2286 1.363 . S
C2287 C2290 1.363 . S
N2288 C2290 1.356 . S
N2288 H2300 0.984 . S
N2288 H2301 0.985 . S
N2289 C2291 1.356 . S
N2289 H2294 0.984 . S
N2289 H2295 0.985 . S
C2290 C2284 1.379 . S
C2290 C2287 1.363 . S
C2290 N2288 1.356 . S
C2291 C2285 1.363 . S
C2291 C2286 1.379 . S
C2291 N2289 1.356 . S
N2292 C2284 1.356 . S
N2292 H2298 0.984 . S
N2292 H2299 0.984 . S
N2293 C2286 1.356 . S
N2293 H2296 0.984 . S
N2293 H2297 0.985 . S
H2294 N2289 0.984 . S
H2295 N2289 0.985 . S
H2296 N2293 0.984 . S
H2297 N2293 0.985 . S
H2298 N2292 0.984 . S
H2299 N2292 0.984 . S
H2300 N2288 0.984 . S
H2301 N2288 0.985 . S
C2302 C2303 1.363 . S
C2302 C2308 1.379 . S
C2302 N2310 1.356 . S
C2303 C2302 1.363 . S
C2303 C2309 1.363 . S
C2304 C2305 1.363 . S
C2304 C2309 1.379 . S
C2304 N2311 1.356 . S
C2305 C2304 1.363 . S
C2305 C2308 1.363 . S
N2306 C2308 1.356 . S
N2306 H2318 0.984 . S
N2306 H2319 0.985 . S
N2307 C2309 1.356 . S
N2307 H2312 0.984 . S
N2307 H2313 0.985 . S
C2308 C2302 1.379 . S
C2308 C2305 1.363 . S
C2308 N2306 1.356 . S
C2309 C2303 1.363 . S
C2309 C2304 1.379 . S
C2309 N2307 1.356 . S
N2310 C2302 1.356 . S
N2310 H2316 0.984 . S
N2310 H2317 0.984 . S
N2311 C2304 1.356 . S
N2311 H2314 0.984 . S
N2311 H2315 0.985 . S
H2312 N2307 0.984 . S
H2313 N2307 0.985 . S
H2314 N2311 0.984 . S
H2315 N2311 0.985 . S
H2316 N2310 0.984 . S
H2317 N2310 0.984 . S
H2318 N2306 0.984 . S
H2319 N2306 0.985 . S
C2320 C2321 1.363 . S
C2320 C2326 1.379 . S
C2320 N2328 1.356 . S
C2321 C2320 1.363 . S
C2321 C2327 1.363 . S
C2322 C2323 1.363 . S
C2322 C2327 1.379 . S
C2322 N2329 1.356 . S
C2323 C2322 1.363 . S
C2323 C2326 1.363 . S
N2324 C2326 1.356 1_554 S
N2324 H2336 0.984 . S
N2324 H2337 0.985 . S
N2325 C2327 1.356 . S
N2325 H2330 0.984 . S
N2325 H2331 0.985 . S
C2326 C2320 1.379 . S
C2326 C2323 1.363 . S
C2326 N2324 1.356 1_556 S
C2327 C2321 1.363 . S
C2327 C2322 1.379 . S
C2327 N2325 1.356 . S
N2328 C2320 1.356 . S
N2328 H2334 0.984 1_556 S
N2328 H2335 0.984 . S
N2329 C2322 1.356 . S
N2329 H2332 0.984 . S
N2329 H2333 0.985 . S
H2330 N2325 0.984 . S
H2331 N2325 0.985 . S
H2332 N2329 0.984 . S
H2333 N2329 0.985 . S
H2334 N2328 0.984 1_554 S
H2335 N2328 0.984 . S
H2336 N2324 0.984 . S
H2337 N2324 0.985 . S
C2338 C2339 1.363 . S
C2338 C2344 1.379 . S
C2338 N2346 1.356 . S
C2339 C2338 1.363 . S
C2339 C2345 1.363 . S
C2340 C2341 1.363 . S
C2340 C2345 1.379 . S
C2340 N2347 1.356 . S
C2341 C2340 1.363 . S
C2341 C2344 1.363 . S
N2342 C2344 1.356 . S
N2342 H2354 0.984 . S
N2342 H2355 0.985 . S
N2343 C2345 1.356 . S
N2343 H2348 0.984 . S
N2343 H2349 0.985 . S
C2344 C2338 1.379 . S
C2344 C2341 1.363 . S
C2344 N2342 1.356 . S
C2345 C2339 1.363 . S
C2345 C2340 1.379 . S
C2345 N2343 1.356 . S
N2346 C2338 1.356 . S
N2346 H2352 0.984 . S
N2346 H2353 0.984 . S
N2347 C2340 1.356 . S
N2347 H2350 0.984 . S
N2347 H2351 0.985 . S
H2348 N2343 0.984 . S
H2349 N2343 0.985 . S
H2350 N2347 0.984 . S
H2351 N2347 0.985 . S
H2352 N2346 0.984 . S
H2353 N2346 0.984 . S
H2354 N2342 0.984 . S
H2355 N2342 0.985 . S
C2356 C2357 1.363 . S
C2356 C2362 1.379 . S
C2356 N2364 1.356 . S
C2357 C2356 1.363 . S
C2357 C2363 1.363 . S
C2358 C2359 1.363 . S
C2358 C2363 1.379 . S
C2358 N2365 1.356 . S
C2359 C2358 1.363 . S
C2359 C2362 1.363 . S
N2360 C2362 1.356 . S
N2360 H2372 0.984 . S
N2360 H2373 0.985 . S
N2361 C2363 1.356 . S
N2361 H2366 0.984 . S
N2361 H2367 0.985 . S
C2362 C2356 1.379 . S
C2362 C2359 1.363 . S
C2362 N2360 1.356 . S
C2363 C2357 1.363 . S
C2363 C2358 1.379 . S
C2363 N2361 1.356 . S
N2364 C2356 1.356 . S
N2364 H2370 0.984 . S
N2364 H2371 0.984 . S
N2365 C2358 1.356 . S
N2365 H2368 0.984 . S
N2365 H2369 0.985 . S
H2366 N2361 0.984 . S
H2367 N2361 0.985 . S
H2368 N2365 0.984 . S
H2369 N2365 0.985 . S
H2370 N2364 0.984 . S
H2371 N2364 0.984 . S
H2372 N2360 0.984 . S
H2373 N2360 0.985 . S
C2374 C2375 1.363 . S
C2374 C2380 1.379 . S
C2374 N2382 1.356 . S
C2375 C2374 1.363 . S
C2375 C2381 1.363 . S
C2376 C2377 1.363 . S
C2376 C2381 1.379 . S
C2376 N2383 1.356 . S
C2377 C2376 1.363 . S
C2377 C2380 1.363 . S
N2378 C2380 1.356 . S
N2378 H2390 0.984 . S
N2378 H2391 0.985 . S
N2379 C2381 1.356 . S
N2379 H2384 0.984 . S
N2379 H2385 0.985 . S
C2380 C2374 1.379 . S
C2380 C2377 1.363 . S
C2380 N2378 1.356 . S
C2381 C2375 1.363 . S
C2381 C2376 1.379 . S
C2381 N2379 1.356 . S
N2382 C2374 1.356 . S
N2382 H2388 0.984 . S
N2382 H2389 0.984 . S
N2383 C2376 1.356 . S
N2383 H2386 0.984 . S
N2383 H2387 0.985 . S
H2384 N2379 0.984 . S
H2385 N2379 0.985 . S
H2386 N2383 0.984 . S
H2387 N2383 0.985 . S
H2388 N2382 0.984 . S
H2389 N2382 0.984 . S
H2390 N2378 0.984 . S
H2391 N2378 0.985 . S
C2392 C2393 1.363 . S
C2392 C2398 1.379 . S
C2392 N2400 1.356 . S
C2393 C2392 1.363 . S
C2393 C2399 1.363 . S
C2394 C2395 1.363 . S
C2394 C2399 1.379 . S
C2394 N2401 1.356 . S
C2395 C2394 1.363 . S
C2395 C2398 1.363 . S
N2396 C2398 1.356 . S
N2396 H2408 0.984 . S
N2396 H2409 0.985 . S
N2397 C2399 1.356 . S
N2397 H2402 0.984 . S
N2397 H2403 0.985 . S
C2398 C2392 1.379 . S
C2398 C2395 1.363 . S
C2398 N2396 1.356 . S
C2399 C2393 1.363 . S
C2399 C2394 1.379 . S
C2399 N2397 1.356 . S
N2400 C2392 1.356 . S
N2400 H2406 0.984 . S
N2400 H2407 0.984 . S
N2401 C2394 1.356 . S
N2401 H2404 0.984 . S
N2401 H2405 0.985 . S
H2402 N2397 0.984 . S
H2403 N2397 0.985 . S
H2404 N2401 0.984 . S
H2405 N2401 0.985 . S
H2406 N2400 0.984 . S
H2407 N2400 0.984 . S
H2408 N2396 0.984 . S
H2409 N2396 0.985 . S
C2410 C2411 1.363 . S
C2410 C2416 1.379 . S
C2410 N2418 1.356 . S
C2411 C2410 1.363 . S
C2411 C2417 1.363 . S
C2412 C2413 1.363 . S
C2412 C2417 1.379 . S
C2412 N2419 1.356 . S
C2413 C2412 1.363 . S
C2413 C2416 1.363 . S
N2414 C2416 1.356 . S
N2414 H2426 0.984 . S
N2414 H2427 0.985 . S
N2415 C2417 1.356 . S
N2415 H2420 0.984 . S
N2415 H2421 0.985 . S
C2416 C2410 1.379 . S
C2416 C2413 1.363 . S
C2416 N2414 1.356 . S
C2417 C2411 1.363 . S
C2417 C2412 1.379 . S
C2417 N2415 1.356 . S
N2418 C2410 1.356 . S
N2418 H2424 0.984 . S
N2418 H2425 0.984 . S
N2419 C2412 1.356 . S
N2419 H2422 0.984 . S
N2419 H2423 0.985 . S
H2420 N2415 0.984 . S
H2421 N2415 0.985 . S
H2422 N2419 0.984 . S
H2423 N2419 0.985 . S
H2424 N2418 0.984 . S
H2425 N2418 0.984 . S
H2426 N2414 0.984 . S
H2427 N2414 0.985 . S
C2428 C2429 1.363 . S
C2428 C2434 1.379 1_655 S
C2428 N2436 1.356 . S
C2429 C2428 1.363 . S
C2429 C2435 1.363 . S
C2430 C2431 1.363 . S
C2430 C2435 1.379 1_455 S
C2430 N2437 1.356 . S
C2431 C2430 1.363 . S
C2431 C2434 1.363 . S
N2432 C2434 1.356 . S
N2432 H2444 0.984 . S
N2432 H2445 0.985 . S
N2433 C2435 1.356 . S
N2433 H2438 0.984 . S
N2433 H2439 0.985 . S
C2434 C2428 1.379 1_455 S
C2434 C2431 1.363 . S
C2434 N2432 1.356 . S
C2435 C2429 1.363 . S
C2435 C2430 1.379 1_655 S
C2435 N2433 1.356 . S
N2436 C2428 1.356 . S
N2436 H2442 0.984 . S
N2436 H2443 0.984 . S
N2437 C2430 1.356 . S
N2437 H2440 0.984 . S
N2437 H2441 0.985 . S
H2438 N2433 0.984 . S
H2439 N2433 0.985 . S
H2440 N2437 0.984 . S
H2441 N2437 0.985 . S
H2442 N2436 0.984 . S
H2443 N2436 0.984 . S
H2444 N2432 0.984 . S
H2445 N2432 0.985 . S
C2446 C2447 1.363 . S
C2446 C2452 1.379 . S
C2446 N2454 1.356 . S
C2447 C2446 1.363 . S
C2447 C2453 1.363 . S
C2448 C2449 1.363 . S
C2448 C2453 1.379 . S
C2448 N2455 1.356 . S
C2449 C2448 1.363 . S
C2449 C2452 1.363 . S
N2450 C2452 1.356 . S
N2450 H2462 0.984 . S
N2450 H2463 0.985 . S
N2451 C2453 1.356 . S
N2451 H2456 0.984 . S
N2451 H2457 0.985 . S
C2452 C2446 1.379 . S
C2452 C2449 1.363 . S
C2452 N2450 1.356 . S
C2453 C2447 1.363 . S
C2453 C2448 1.379 . S
C2453 N2451 1.356 . S
N2454 C2446 1.356 . S
N2454 H2460 0.984 . S
N2454 H2461 0.984 . S
N2455 C2448 1.356 . S
N2455 H2458 0.984 . S
N2455 H2459 0.985 . S
H2456 N2451 0.984 . S
H2457 N2451 0.985 . S
H2458 N2455 0.984 . S
H2459 N2455 0.985 . S
H2460 N2454 0.984 . S
H2461 N2454 0.984 . S
H2462 N2450 0.984 . S
H2463 N2450 0.985 . S
C2464 C2465 1.363 . S
C2464 C2470 1.379 . S
C2464 N2472 1.356 . S
C2465 C2464 1.363 . S
C2465 C2471 1.363 . S
C2466 C2467 1.363 . S
C2466 C2471 1.379 . S
C2466 N2473 1.356 . S
C2467 C2466 1.363 . S
C2467 C2470 1.363 . S
N2468 C2470 1.356 . S
N2468 H2480 0.984 . S
N2468 H2481 0.985 . S
N2469 C2471 1.356 . S
N2469 H2474 0.984 . S
N2469 H2475 0.985 . S
C2470 C2464 1.379 . S
C2470 C2467 1.363 . S
C2470 N2468 1.356 . S
C2471 C2465 1.363 . S
C2471 C2466 1.379 . S
C2471 N2469 1.356 . S
N2472 C2464 1.356 . S
N2472 H2478 0.984 . S
N2472 H2479 0.984 . S
N2473 C2466 1.356 . S
N2473 H2476 0.984 . S
N2473 H2477 0.985 . S
H2474 N2469 0.984 . S
H2475 N2469 0.985 . S
H2476 N2473 0.984 . S
H2477 N2473 0.985 . S
H2478 N2472 0.984 . S
H2479 N2472 0.984 . S
H2480 N2468 0.984 . S
H2481 N2468 0.985 . S
C2482 C2483 1.363 . S
C2482 C2488 1.379 . S
C2482 N2490 1.356 . S
C2483 C2482 1.363 . S
C2483 C2489 1.363 . S
C2484 C2485 1.363 . S
C2484 C2489 1.379 . S
C2484 N2491 1.356 . S
C2485 C2484 1.363 . S
C2485 C2488 1.363 . S
N2486 C2488 1.356 . S
N2486 H2498 0.984 . S
N2486 H2499 0.985 . S
N2487 C2489 1.356 . S
N2487 H2492 0.984 . S
N2487 H2493 0.985 . S
C2488 C2482 1.379 . S
C2488 C2485 1.363 . S
C2488 N2486 1.356 . S
C2489 C2483 1.363 . S
C2489 C2484 1.379 . S
C2489 N2487 1.356 . S
N2490 C2482 1.356 . S
N2490 H2496 0.984 . S
N2490 H2497 0.984 . S
N2491 C2484 1.356 . S
N2491 H2494 0.984 . S
N2491 H2495 0.985 . S
H2492 N2487 0.984 . S
H2493 N2487 0.985 . S
H2494 N2491 0.984 . S
H2495 N2491 0.985 . S
H2496 N2490 0.984 . S
H2497 N2490 0.984 . S
H2498 N2486 0.984 . S
H2499 N2486 0.985 . S
C2500 C2501 1.363 . S
C2500 C2506 1.379 . S
C2500 N2508 1.356 . S
C2501 C2500 1.363 . S
C2501 C2507 1.363 . S
C2502 C2503 1.363 . S
C2502 C2507 1.379 . S
C2502 N2509 1.356 . S
C2503 C2502 1.363 . S
C2503 C2506 1.363 . S
N2504 C2506 1.356 . S
N2504 H2516 0.984 . S
N2504 H2517 0.985 . S
N2505 C2507 1.356 . S
N2505 H2510 0.984 . S
N2505 H2511 0.985 . S
C2506 C2500 1.379 . S
C2506 C2503 1.363 . S
C2506 N2504 1.356 . S
C2507 C2501 1.363 . S
C2507 C2502 1.379 . S
C2507 N2505 1.356 . S
N2508 C2500 1.356 . S
N2508 H2514 0.984 . S
N2508 H2515 0.984 . S
N2509 C2502 1.356 . S
N2509 H2512 0.984 . S
N2509 H2513 0.985 . S
H2510 N2505 0.984 . S
H2511 N2505 0.985 . S
H2512 N2509 0.984 . S
H2513 N2509 0.985 . S
H2514 N2508 0.984 . S
H2515 N2508 0.984 . S
H2516 N2504 0.984 . S
H2517 N2504 0.985 . S
C2518 C2519 1.363 . S
C2518 C2524 1.379 . S
C2518 N2526 1.356 . S
C2519 C2518 1.363 . S
C2519 C2525 1.363 . S
C2520 C2521 1.363 . S
C2520 C2525 1.379 . S
C2520 N2527 1.356 . S
C2521 C2520 1.363 . S
C2521 C2524 1.363 . S
N2522 C2524 1.356 . S
N2522 H2534 0.984 . S
N2522 H2535 0.985 . S
N2523 C2525 1.356 . S
N2523 H2528 0.984 . S
N2523 H2529 0.985 . S
C2524 C2518 1.379 . S
C2524 C2521 1.363 . S
C2524 N2522 1.356 . S
C2525 C2519 1.363 . S
C2525 C2520 1.379 . S
C2525 N2523 1.356 . S
N2526 C2518 1.356 . S
N2526 H2532 0.984 . S
N2526 H2533 0.984 . S
N2527 C2520 1.356 . S
N2527 H2530 0.984 . S
N2527 H2531 0.985 . S
H2528 N2523 0.984 . S
H2529 N2523 0.985 . S
H2530 N2527 0.984 . S
H2531 N2527 0.985 . S
H2532 N2526 0.984 . S
H2533 N2526 0.984 . S
H2534 N2522 0.984 . S
H2535 N2522 0.985 . S
C2536 C2537 1.363 . S
C2536 C2542 1.379 . S
C2536 N2544 1.356 . S
C2537 C2536 1.363 . S
C2537 C2543 1.363 . S
C2538 C2539 1.363 . S
C2538 C2543 1.379 . S
C2538 N2545 1.356 . S
C2539 C2538 1.363 . S
C2539 C2542 1.363 . S
N2540 C2542 1.356 . S
N2540 H2552 0.984 . S
N2540 H2553 0.985 . S
N2541 C2543 1.356 . S
N2541 H2546 0.984 . S
N2541 H2547 0.985 . S
C2542 C2536 1.379 . S
C2542 C2539 1.363 . S
C2542 N2540 1.356 . S
C2543 C2537 1.363 . S
C2543 C2538 1.379 . S
C2543 N2541 1.356 . S
N2544 C2536 1.356 . S
N2544 H2550 0.984 . S
N2544 H2551 0.984 . S
N2545 C2538 1.356 . S
N2545 H2548 0.984 . S
N2545 H2549 0.985 . S
H2546 N2541 0.984 . S
H2547 N2541 0.985 . S
H2548 N2545 0.984 . S
H2549 N2545 0.985 . S
H2550 N2544 0.984 . S
H2551 N2544 0.984 . S
H2552 N2540 0.984 . S
H2553 N2540 0.985 . S
C2554 C2555 1.363 . S
C2554 C2560 1.379 . S
C2554 N2562 1.356 . S
C2555 C2554 1.363 . S
C2555 C2561 1.363 . S
C2556 C2557 1.363 . S
C2556 C2561 1.379 . S
C2556 N2563 1.356 1_655 S
C2557 C2556 1.363 . S
C2557 C2560 1.363 . S
N2558 C2560 1.356 . S
N2558 H2570 0.984 . S
N2558 H2571 0.985 1_565 S
N2559 C2561 1.356 . S
N2559 H2564 0.984 . S
N2559 H2565 0.985 . S
C2560 C2554 1.379 . S
C2560 C2557 1.363 . S
C2560 N2558 1.356 . S
C2561 C2555 1.363 . S
C2561 C2556 1.379 . S
C2561 N2559 1.356 . S
N2562 C2554 1.356 . S
N2562 H2568 0.984 . S
N2562 H2569 0.984 . S
N2563 C2556 1.356 1_455 S
N2563 H2566 0.984 1_565 S
N2563 H2567 0.985 . S
H2564 N2559 0.984 . S
H2565 N2559 0.985 . S
H2566 N2563 0.984 1_545 S
H2567 N2563 0.985 . S
H2568 N2562 0.984 . S
H2569 N2562 0.984 . S
H2570 N2558 0.984 . S
H2571 N2558 0.985 1_545 S
C2572 C2573 1.363 . S
C2572 C2578 1.379 . S
C2572 N2580 1.356 . S
C2573 C2572 1.363 . S
C2573 C2579 1.363 . S
C2574 C2575 1.363 . S
C2574 C2579 1.379 . S
C2574 N2581 1.356 . S
C2575 C2574 1.363 . S
C2575 C2578 1.363 . S
N2576 C2578 1.356 . S
N2576 H2588 0.984 . S
N2576 H2589 0.985 . S
N2577 C2579 1.356 . S
N2577 H2582 0.984 . S
N2577 H2583 0.985 . S
C2578 C2572 1.379 . S
C2578 C2575 1.363 . S
C2578 N2576 1.356 . S
C2579 C2573 1.363 . S
C2579 C2574 1.379 . S
C2579 N2577 1.356 . S
N2580 C2572 1.356 . S
N2580 H2586 0.984 . S
N2580 H2587 0.984 . S
N2581 C2574 1.356 . S
N2581 H2584 0.984 . S
N2581 H2585 0.985 . S
H2582 N2577 0.984 . S
H2583 N2577 0.985 . S
H2584 N2581 0.984 . S
H2585 N2581 0.985 . S
H2586 N2580 0.984 . S
H2587 N2580 0.984 . S
H2588 N2576 0.984 . S
H2589 N2576 0.985 . S
C2590 C2591 1.363 . S
C2590 C2596 1.379 . S
C2590 N2598 1.356 1_554 S
C2591 C2590 1.363 . S
C2591 C2597 1.363 . S
C2592 C2593 1.363 . S
C2592 C2597 1.379 . S
C2592 N2599 1.356 . S
C2593 C2592 1.363 . S
C2593 C2596 1.363 . S
N2594 C2596 1.356 1_556 S
N2594 H2606 0.984 . S
N2594 H2607 0.985 . S
N2595 C2597 1.356 . S
N2595 H2600 0.984 . S
N2595 H2601 0.985 . S
C2596 C2590 1.379 . S
C2596 C2593 1.363 . S
C2596 N2594 1.356 1_554 S
C2597 C2591 1.363 . S
C2597 C2592 1.379 . S
C2597 N2595 1.356 . S
N2598 C2590 1.356 1_556 S
N2598 H2604 0.984 . S
N2598 H2605 0.984 1_556 S
N2599 C2592 1.356 . S
N2599 H2602 0.984 . S
N2599 H2603 0.985 . S
H2600 N2595 0.984 . S
H2601 N2595 0.985 . S
H2602 N2599 0.984 . S
H2603 N2599 0.985 . S
H2604 N2598 0.984 . S
H2605 N2598 0.984 1_554 S
H2606 N2594 0.984 . S
H2607 N2594 0.985 . S
C2608 C2609 1.363 . S
C2608 C2614 1.379 . S
C2608 N2616 1.356 . S
C2609 C2608 1.363 . S
C2609 C2615 1.363 . S
C2610 C2611 1.363 . S
C2610 C2615 1.379 . S
C2610 N2617 1.356 . S
C2611 C2610 1.363 . S
C2611 C2614 1.363 . S
N2612 C2614 1.356 . S
N2612 H2624 0.984 . S
N2612 H2625 0.985 . S
N2613 C2615 1.356 . S
N2613 H2618 0.984 . S
N2613 H2619 0.985 . S
C2614 C2608 1.379 . S
C2614 C2611 1.363 . S
C2614 N2612 1.356 . S
C2615 C2609 1.363 . S
C2615 C2610 1.379 . S
C2615 N2613 1.356 . S
N2616 C2608 1.356 . S
N2616 H2622 0.984 . S
N2616 H2623 0.984 . S
N2617 C2610 1.356 . S
N2617 H2620 0.984 . S
N2617 H2621 0.985 . S
H2618 N2613 0.984 . S
H2619 N2613 0.985 . S
H2620 N2617 0.984 . S
H2621 N2617 0.985 . S
H2622 N2616 0.984 . S
H2623 N2616 0.984 . S
H2624 N2612 0.984 . S
H2625 N2612 0.985 . S
C2626 C2627 1.363 . S
C2626 C2632 1.379 1_554 S
C2626 N2634 1.356 1_554 S
C2627 C2626 1.363 . S
C2627 C2633 1.363 . S
C2628 C2629 1.363 . S
C2628 C2633 1.379 . S
C2628 N2635 1.356 . S
C2629 C2628 1.363 . S
C2629 C2632 1.363 1_554 S
N2630 C2632 1.356 . S
N2630 H2642 0.984 . S
N2630 H2643 0.985 . S
N2631 C2633 1.356 . S
N2631 H2636 0.984 . S
N2631 H2637 0.985 . S
C2632 C2626 1.379 1_556 S
C2632 C2629 1.363 1_556 S
C2632 N2630 1.356 . S
C2633 C2627 1.363 . S
C2633 C2628 1.379 . S
C2633 N2631 1.356 . S
N2634 C2626 1.356 1_556 S
N2634 H2640 0.984 . S
N2634 H2641 0.984 1_556 S
N2635 C2628 1.356 . S
N2635 H2638 0.984 . S
N2635 H2639 0.985 . S
H2636 N2631 0.984 . S
H2637 N2631 0.985 . S
H2638 N2635 0.984 . S
H2639 N2635 0.985 . S
H2640 N2634 0.984 . S
H2641 N2634 0.984 1_554 S
H2642 N2630 0.984 . S
H2643 N2630 0.985 . S
C2644 C2645 1.363 . S
C2644 C2650 1.379 . S
C2644 N2652 1.356 . S
C2645 C2644 1.363 . S
C2645 C2651 1.363 . S
C2646 C2647 1.363 . S
C2646 C2651 1.379 . S
C2646 N2653 1.356 . S
C2647 C2646 1.363 . S
C2647 C2650 1.363 . S
N2648 C2650 1.356 . S
N2648 H2660 0.984 . S
N2648 H2661 0.985 . S
N2649 C2651 1.356 . S
N2649 H2654 0.984 . S
N2649 H2655 0.985 . S
C2650 C2644 1.379 . S
C2650 C2647 1.363 . S
C2650 N2648 1.356 . S
C2651 C2645 1.363 . S
C2651 C2646 1.379 . S
C2651 N2649 1.356 . S
N2652 C2644 1.356 . S
N2652 H2658 0.984 . S
N2652 H2659 0.984 . S
N2653 C2646 1.356 . S
N2653 H2656 0.984 . S
N2653 H2657 0.985 . S
H2654 N2649 0.984 . S
H2655 N2649 0.985 . S
H2656 N2653 0.984 . S
H2657 N2653 0.985 . S
H2658 N2652 0.984 . S
H2659 N2652 0.984 . S
H2660 N2648 0.984 . S
H2661 N2648 0.985 . S
C2662 C2663 1.363 . S
C2662 C2668 1.379 . S
C2662 N2670 1.356 . S
C2663 C2662 1.363 . S
C2663 C2669 1.363 . S
C2664 C2665 1.363 . S
C2664 C2669 1.379 . S
C2664 N2671 1.356 . S
C2665 C2664 1.363 . S
C2665 C2668 1.363 . S
N2666 C2668 1.356 . S
N2666 H2678 0.984 . S
N2666 H2679 0.985 . S
N2667 C2669 1.356 . S
N2667 H2672 0.984 . S
N2667 H2673 0.985 . S
C2668 C2662 1.379 . S
C2668 C2665 1.363 . S
C2668 N2666 1.356 . S
C2669 C2663 1.363 . S
C2669 C2664 1.379 . S
C2669 N2667 1.356 . S
N2670 C2662 1.356 . S
N2670 H2676 0.984 . S
N2670 H2677 0.984 . S
N2671 C2664 1.356 . S
N2671 H2674 0.984 . S
N2671 H2675 0.985 . S
H2672 N2667 0.984 . S
H2673 N2667 0.985 . S
H2674 N2671 0.984 . S
H2675 N2671 0.985 . S
H2676 N2670 0.984 . S
H2677 N2670 0.984 . S
H2678 N2666 0.984 . S
H2679 N2666 0.985 . S
C953 C101 1.216 . S
C955 C320 1.234 1_556 S
C971 C57 1.636 . S
C973 C354 1.688 . S
C989 C70 0.861 . S
C991 C423 0.839 . S
C1009 C461 0.888 . S
C1007 C82 0.892 . S
C1025 C23 1.880 . S
C1027 C501 1.808 . S
C1045 C520 0.645 . S
C1043 C29 0.641 . S
C1063 C554 1.458 . S
C1061 C49 1.348 . S
C1079 C10 1.991 . S
C1081 C623 1.961 . S
C1099 C329 2.511 . S
C1097 C218 2.553 1_455 S
C1115 C226 1.601 . S
C1117 C381 1.564 . S
C1135 C394 1.500 . S
C1133 C251 1.452 . S
C1153 C463 1.472 . S
C1151 C159 1.474 . S
C1169 C211 2.089 . S
C1171 C503 2.084 . S
C1189 C529 1.968 . S
C1187 C225 1.951 . S
C1207 C581 0.482 . S
C1205 C252 0.433 . S
C1225 C594 2.342 . S
C1223 C166 2.347 . S
C1243 C324 2.387 . S
C1241 C147 2.434 1_545 S
C1259 C263 1.980 . S
C1261 C634 2.084 . S
C1279 C684 2.684 . S
C1277 C309 2.704 . S
C1297 C743 1.564 . S
C1295 C291 1.562 . S
C1313 C108 1.964 . S
C1315 C621 1.926 . S
C1331 C121 1.700 . S
C1333 C421 1.681 . S
C1349 C302 2.374 . S
C1351 C754 2.371 . S
C1369 C823 1.072 . S
C1367 C276 1.128 . S
C1387 C341 1.239 . S
C1385 C55 1.221 . S
C1405 C809 1.656 . S
C1403 C96 1.651 . S
C1421 C88 0.959 . S
C1423 C404 0.950 . S
C1439 C75 1.139 . S
C1441 C760 1.118 . S
C1459 C480 1.747 . S
C1457 C4 1.797 . S
C1475 C44 0.669 . S
C1477 C701 0.673 . S
C1495 C569 1.738 1_566 S
C1493 C31 1.702 . S
C1513 C844 1.890 . S
C1511 C18 1.892 . S
C1531 C314 2.537 . S
C1529 C133 2.583 . S
C1549 C800 1.313 . S
C1547 C296 1.328 . S
C1565 C107 1.575 . S
C1567 C409 1.574 . S
C1583 C264 1.708 . S
C1585 C764 1.716 . S
C1601 C140 2.197 . S
C1603 C484 2.236 . S
C1621 C674 1.970 . S
C1619 C289 2.003 . S
C1637 C114 0.669 . S
C1639 C560 0.679 . S
C1655 C265 2.461 . S
C1657 C849 2.452 . S
C1673 C179 2.674 . S
C1675 C343 2.630 1_655 S
C1691 C161 2.151 . S
C1693 C649 2.190 . S
C1709 C244 2.946 . S
C1711 C543 2.919 . S
C1727 C224 1.957 . S
C1729 C724 1.965 . S
C1747 C840 1.786 . S
C1745 C257 1.800 . S
C1763 C199 1.619 . S
C1765 C400 1.590 . S
C1783 C449 2.643 . S
C1781 C237 2.679 . S
C1801 C364 1.136 . S
C1799 C185 1.156 . S
C1817 C69 1.217 . S
C1819 C880 1.234 . S
C1837 C794 1.687 . S
C1835 C83 1.634 . S
C1853 C94 0.863 . S
C1855 C943 0.840 . S
C1871 C56 0.893 . S
C1873 C781 0.888 . S
C1889 C42 1.903 . S
C1891 C661 1.815 . S
C1909 C680 0.648 . S
C1907 C3 0.644 . S
C1927 C714 1.466 . S
C1925 C16 1.341 . S
C1945 C863 1.961 . S
C1943 C36 1.991 . S
C1963 C889 2.512 . S
C1961 C238 2.553 . S
C1979 C174 1.598 . S
C1981 C821 1.562 . S
C1999 C914 1.500 . S
C1997 C186 1.452 . S
C2017 C783 1.472 . S
C2015 C198 1.473 . S
C2035 C663 2.086 . S
C2033 C239 2.083 . S
C2051 C173 1.952 . S
C2053 C689 1.969 . S
C2071 C741 0.484 . S
C2069 C187 0.435 . S
C2087 C205 2.347 . S
C2089 C834 2.342 . S
C2107 C884 2.385 . S
C2105 C290 2.433 . S
C2123 C122 1.985 . S
C2125 C474 2.084 . S
C2143 C524 2.690 . S
C2141 C134 2.709 . S
C2161 C583 1.565 . S
C2159 C148 1.557 1_545 S
C2179 C861 1.925 . S
C2177 C283 1.964 . S
C2195 C270 1.698 . S
C2197 C941 1.679 . S
C2215 C434 2.370 . S
C2213 C135 2.373 . S
C2233 C383 1.071 . S
C2231 C109 1.127 . S
C2249 C81 1.222 . S
C2251 C901 1.239 . S
C2269 C369 1.654 . S
C2267 C68 1.650 . S
C2285 C62 0.960 . S
C2287 C924 0.950 . S
C2303 C95 1.140 . S
C2305 C440 1.118 . S
C2321 C30 1.795 . S
C2323 C640 1.746 . S
C2341 C541 0.665 . S
C2339 C17 0.657 . S
C2357 C5 1.703 . S
C2359 C729 1.738 . S
C2375 C43 1.884 . S
C2377 C604 1.881 . S
C2395 C874 2.537 . S
C2393 C304 2.583 . S
C2411 C153 1.326 . S
C2413 C360 1.311 . S
C2431 C929 1.576 . S
C2429 C278 1.576 . S
C2447 C127 1.709 . S
C2449 C444 1.716 . S
C2465 C303 2.190 . S
C2467 C644 2.229 . S
C2485 C514 1.969 . S
C2483 C146 2.002 . S
C2501 C277 0.669 . S
C2503 C720 0.679 . S
C2521 C609 2.451 . S
C2519 C120 2.459 . S
C2539 C903 2.630 . S
C2537 C231 2.674 . S
C2557 C489 2.189 1_665 S
C2555 C200 2.150 . S
C2573 C212 2.949 . S
C2575 C703 2.922 . S
C2593 C564 1.964 . S
C2591 C172 1.956 . S
C2609 C192 1.800 . S
C2611 C600 1.786 . S
C2627 C160 1.619 . S
C2629 C920 1.591 1_554 S
C2647 C769 2.644 . S
C2645 C213 2.681 1_565 S
C2665 C804 1.137 . S
C2663 C250 1.156 . S
