# Generated by pormake.
# Topology csq, (4,8)-cn, num edge types: 1
# Building blocks:
#     Node 0, Type 0, BuildingBlock: NAWXER_clean_sbu_0, # of connection points: 4
#     Node 1, Type 0, BuildingBlock: NAWXER_clean_sbu_0, # of connection points: 4
#     Node 2, Type 0, BuildingBlock: NAWXER_clean_sbu_0, # of connection points: 4
#     Node 3, Type 0, BuildingBlock: NAWXER_clean_sbu_0, # of connection points: 4
#     Node 4, Type 0, BuildingBlock: NAWXER_clean_sbu_0, # of connection points: 4
#     Node 5, Type 0, BuildingBlock: NAWXER_clean_sbu_0, # of connection points: 4
#     Node 6, Type 1, BuildingBlock: TAGTUT_clean_sbu_3, # of connection points: 8
#     Node 7, Type 1, BuildingBlock: TAGTUT_clean_sbu_3, # of connection points: 8
#     Node 8, Type 1, BuildingBlock: TAGTUT_clean_sbu_3, # of connection points: 8
#     Edge 9, Type (0, 1), BuildingBlock: TEMPAE_clean_linker_10, # of connection points: 2
#     Edge 10, Type (0, 1), BuildingBlock: TEMPAE_clean_linker_10, # of connection points: 2
#     Edge 11, Type (0, 1), BuildingBlock: TEMPAE_clean_linker_10, # of connection points: 2
#     Edge 12, Type (0, 1), BuildingBlock: TEMPAE_clean_linker_10, # of connection points: 2
#     Edge 13, Type (0, 1), BuildingBlock: TEMPAE_clean_linker_10, # of connection points: 2
#     Edge 14, Type (0, 1), BuildingBlock: TEMPAE_clean_linker_10, # of connection points: 2
#     Edge 15, Type (0, 1), BuildingBlock: TEMPAE_clean_linker_10, # of connection points: 2
#     Edge 16, Type (0, 1), BuildingBlock: TEMPAE_clean_linker_10, # of connection points: 2
#     Edge 17, Type (0, 1), BuildingBlock: TEMPAE_clean_linker_10, # of connection points: 2
#     Edge 18, Type (0, 1), BuildingBlock: TEMPAE_clean_linker_10, # of connection points: 2
#     Edge 19, Type (0, 1), BuildingBlock: TEMPAE_clean_linker_10, # of connection points: 2
#     Edge 20, Type (0, 1), BuildingBlock: TEMPAE_clean_linker_10, # of connection points: 2
#     Edge 21, Type (0, 1), BuildingBlock: TEMPAE_clean_linker_10, # of connection points: 2
#     Edge 22, Type (0, 1), BuildingBlock: TEMPAE_clean_linker_10, # of connection points: 2
#     Edge 23, Type (0, 1), BuildingBlock: TEMPAE_clean_linker_10, # of connection points: 2
#     Edge 24, Type (0, 1), BuildingBlock: TEMPAE_clean_linker_10, # of connection points: 2
#     Edge 25, Type (0, 1), BuildingBlock: TEMPAE_clean_linker_10, # of connection points: 2
#     Edge 26, Type (0, 1), BuildingBlock: TEMPAE_clean_linker_10, # of connection points: 2
#     Edge 27, Type (0, 1), BuildingBlock: TEMPAE_clean_linker_10, # of connection points: 2
#     Edge 28, Type (0, 1), BuildingBlock: TEMPAE_clean_linker_10, # of connection points: 2
#     Edge 29, Type (0, 1), BuildingBlock: TEMPAE_clean_linker_10, # of connection points: 2
#     Edge 30, Type (0, 1), BuildingBlock: TEMPAE_clean_linker_10, # of connection points: 2
#     Edge 31, Type (0, 1), BuildingBlock: TEMPAE_clean_linker_10, # of connection points: 2
#     Edge 32, Type (0, 1), BuildingBlock: TEMPAE_clean_linker_10, # of connection points: 2
# Relax obj value: 0.043
# Max RMSD: 0.117
# Mean RMSD: 0.077
data_MOF--net-csq--node1-NAWXER_clean_sbu_0--node2-TAGTUT_clean_sbu_3--edge1-TEMPAE_clean_linker_10
_symmetry_space_group_name_H-M    P1
_symmetry_Int_Tables_number       1
_symmetry_cell_setting            triclinic
loop_
_symmetry_equiv_pos_as_xyz
'x, y, z'
_cell_length_a     50.799033
_cell_length_b     50.083406
_cell_length_c     19.384697
_cell_angle_alpha  92.757245
_cell_angle_beta   92.553838
_cell_angle_gamma 119.89617
loop_
_atom_site_label
_atom_site_type_symbol
_atom_site_fract_x
_atom_site_fract_y
_atom_site_fract_z
_atom_type_partial_charge
C0 C 0.30058 0.51286 0.10558 0.0
C1 C 0.21777 0.5042 0.23729 0.0
O2 O 0.29601 0.53447 0.12691 0.0
Zn3 Zn 0.25854 0.50842 0.1688 0.0
O4 O 0.28102 0.4847 0.11381 0.0
Zn5 Zn 0.23834 0.45997 0.15989 0.0
O6 O 0.20954 0.43511 0.08419 0.0
O7 O 0.22486 0.48469 0.0818 0.0
O8 O 0.21395 0.47761 0.21728 0.0
O9 O 0.24135 0.52854 0.22252 0.0
O10 O 0.2744 0.48925 0.24712 0.0
O11 O 0.24854 0.43853 0.22563 0.0
C12 C 0.2079 0.45663 0.05604 0.0
C13 C 0.269 0.46235 0.26177 0.0
C14 C 0.70335 0.22396 0.03784 0.0
C15 C 0.78697 0.29009 0.21157 0.0
O16 O 0.72559 0.21873 0.03838 0.0
Zn17 Zn 0.76872 0.23492 0.09432 0.0
O18 O 0.70459 0.24521 0.07896 0.0
Zn19 Zn 0.74492 0.2585 0.12282 0.0
O20 O 0.77434 0.27751 0.04084 0.0
O21 O 0.79701 0.25015 0.02359 0.0
O22 O 0.76319 0.2917 0.19661 0.0
O23 O 0.79114 0.27012 0.17745 0.0
O24 O 0.76116 0.19776 0.13708 0.0
O25 O 0.73478 0.21862 0.17653 0.0
C26 C 0.79303 0.27236 0.00838 0.0
C27 C 0.7418 0.19735 0.17711 0.0
C28 C 0.56595 0.8013 0.19077 0.0
C29 C 0.57421 0.7518 0.97656 0.0
O30 O 0.59008 0.80528 0.16499 0.0
Zn31 Zn 0.57075 0.77686 0.08306 0.0
O32 O 0.53997 0.78337 0.15793 0.0
Zn33 Zn 0.52271 0.75477 0.06231 0.0
O34 O 0.49618 0.71438 0.09402 0.0
O35 O 0.54487 0.73252 0.1242 0.0
O36 O 0.54678 0.74487 0.98601 0.0
O37 O 0.59574 0.76907 0.02195 0.0
O38 O 0.5553 0.80089 0.0186 0.0
O39 O 0.5051 0.77431 0.0084 0.0
C40 C 0.51694 0.71112 0.1247 0.0
C41 C 0.52988 0.7974 0.9936 0.0
C42 C 0.81345 0.52506 0.99814 0.0
C43 C 0.75224 0.54102 0.16688 0.0
O44 O 0.81702 0.55227 0.00109 0.0
Zn45 Zn 0.80225 0.57887 0.05996 0.0
O46 O 0.79566 0.50535 0.03752 0.0
Zn47 Zn 0.78281 0.53179 0.08452 0.0
O48 O 0.75789 0.54028 0.00492 0.0
O49 O 0.78262 0.5904 0.99087 0.0
O50 O 0.75338 0.51644 0.15443 0.0
O51 O 0.76951 0.56516 0.13616 0.0
O52 O 0.84022 0.61046 0.10791 0.0
O53 O 0.82375 0.56379 0.14326 0.0
C54 C 0.75989 0.56351 0.9753 0.0
C55 C 0.84362 0.5926 0.14705 0.0
C56 C 0.22057 0.7272 0.20321 0.0
C57 C 0.25575 0.78162 0.99168 0.0
O58 O 0.21369 0.74825 0.19487 0.0
Zn59 Zn 0.2191 0.78122 0.12316 0.0
O60 O 0.23514 0.7216 0.15838 0.0
Zn61 Zn 0.2392 0.75269 0.0956 0.0
O62 O 0.26855 0.79452 0.15412 0.0
O63 O 0.24485 0.82027 0.17914 0.0
O64 O 0.2601 0.75989 0.00988 0.0
O65 O 0.24114 0.79052 0.02961 0.0
O66 O 0.17694 0.76692 0.08781 0.0
O67 O 0.19365 0.73502 0.05844 0.0
C68 C 0.26896 0.81834 0.18223 0.0
C69 C 0.17237 0.74162 0.05771 0.0
C70 C 0.45219 0.26153 0.28344 0.0
C71 C 0.46153 0.20054 0.09266 0.0
O72 O 0.47962 0.26921 0.27188 0.0
Zn73 Zn 0.50397 0.25534 0.20696 0.0
O74 O 0.42989 0.23882 0.24792 0.0
Zn75 Zn 0.4546 0.22927 0.18908 0.0
O76 O 0.47297 0.21117 0.26079 0.0
O77 O 0.52303 0.23976 0.27209 0.0
O78 O 0.43655 0.19643 0.11416 0.0
O79 O 0.48685 0.2212 0.12372 0.0
O80 O 0.527 0.29202 0.15644 0.0
O81 O 0.47713 0.26995 0.13392 0.0
C82 C 0.49863 0.2166 0.28871 0.0
C83 C 0.50417 0.29148 0.12484 0.0
C84 C 0.0538 0.49009 0.53029 0.0
C85 C 0.03564 0.4415 0.76846 0.0
C86 C 0.9471 0.43458 0.73995 0.0
Mg87 Mg 0.02753 0.53192 0.46666 0.0
Mg88 Mg 0.01633 0.57663 0.57811 0.0
O89 O 0.00392 0.53573 0.54359 0.0
Mg90 Mg 0.01199 0.51165 0.61181 0.0
O91 O 0.02089 0.48683 0.67579 0.0
Mg92 Mg 0.9988 0.44508 0.62275 0.0
Mg93 Mg 0.01182 0.48796 0.76795 0.0
C94 C 0.9728 0.5371 0.69328 0.0
O95 O 0.04551 0.55553 0.68217 0.0
O96 O 0.00667 0.55661 0.40363 0.0
O97 O 0.03206 0.5376 0.78727 0.0
O98 O 0.06972 0.57859 0.49405 0.0
O99 O 0.00068 0.5869 0.48431 0.0
O100 O 0.06584 0.60666 0.58126 0.0
O101 O 0.97754 0.46649 0.54908 0.0
O102 O 0.98567 0.48357 0.44342 0.0
C103 C 0.9712 0.46192 0.48322 0.0
C104 C 0.99901 0.57684 0.4212 0.0
O105 O 0.97637 0.51407 0.67588 0.0
O106 O 0.02448 0.43152 0.70535 0.0
O107 O 0.98797 0.56356 0.668 0.0
O108 O 0.95663 0.42613 0.68796 0.0
O109 O 0.03319 0.46279 0.80185 0.0
O110 O 0.96412 0.46012 0.77553 0.0
O111 O 0.04675 0.51095 0.54291 0.0
O112 O 0.04002 0.4642 0.55728 0.0
C113 C 0.08141 0.60259 0.53621 0.0
C114 C 0.04535 0.55982 0.74811 0.0
C115 C 0.49234 0.03721 0.50728 0.0
C116 C 0.59055 0.0317 0.44632 0.0
C117 C 0.54265 0.94176 0.51876 0.0
Mg118 Mg 0.44499 0.00085 0.62632 0.0
Mg119 Mg 0.47254 0.98722 0.76715 0.0
O120 O 0.46585 0.98031 0.6706 0.0
Mg121 Mg 0.50249 0.99574 0.61774 0.0
O122 O 0.53789 0.011 0.55997 0.0
Mg123 Mg 0.5157 0.98835 0.46895 0.0
Mg124 Mg 0.57114 0.00653 0.59135 0.0
C125 C 0.51299 0.95689 0.73829 0.0
O126 O 0.535 0.03194 0.7028 0.0
O127 O 0.40369 0.96753 0.6892 0.0
O128 O 0.57913 0.03187 0.69371 0.0
O129 O 0.46157 0.03978 0.71349 0.0
O130 O 0.42565 0.96076 0.7855 0.0
O131 O 0.48857 0.03436 0.79934 0.0
O132 O 0.47257 0.96125 0.52729 0.0
O133 O 0.43035 0.96411 0.53827 0.0
C134 C 0.44525 0.95366 0.50659 0.0
C135 C 0.40205 0.95542 0.74731 0.0
O136 O 0.51343 0.96159 0.67341 0.0
O137 O 0.56238 0.01833 0.42281 0.0
O138 O 0.50135 0.96744 0.78158 0.0
O139 O 0.52797 0.9508 0.48063 0.0
O140 O 0.5987 0.0303 0.50906 0.0
O141 O 0.55953 0.95843 0.57237 0.0
O142 O 0.48975 0.02949 0.56998 0.0
O143 O 0.50263 0.02573 0.46263 0.0
C144 C 0.47802 0.04978 0.77076 0.0
C145 C 0.56275 0.04124 0.72403 0.0
C146 C 0.53164 0.5726 0.70157 0.0
C147 C 0.45867 0.49345 0.86923 0.0
C148 C 0.49661 0.43758 0.79758 0.0
Mg149 Mg 0.55517 0.55954 0.55593 0.0
Mg150 Mg 0.5124 0.49609 0.45478 0.0
O151 O 0.53053 0.51327 0.54402 0.0
Mg152 Mg 0.50702 0.50403 0.62838 0.0
O153 O 0.48621 0.4973 0.71629 0.0
Mg154 Mg 0.52212 0.51406 0.78662 0.0
Mg155 Mg 0.45449 0.45726 0.72893 0.0
C156 C 0.47862 0.43693 0.54277 0.0
O157 O 0.46116 0.49118 0.57127 0.0
O158 O 0.58399 0.5551 0.46927 0.0
O159 O 0.42801 0.45236 0.6319 0.0
O160 O 0.52452 0.56601 0.47427 0.0
O161 O 0.55441 0.50927 0.40794 0.0
O162 O 0.49325 0.52192 0.41126 0.0
O163 O 0.5502 0.51464 0.69438 0.0
O164 O 0.58432 0.55269 0.6366 0.0
C165 C 0.57778 0.53481 0.68571 0.0
C166 C 0.58004 0.53426 0.4217 0.0
O167 O 0.48997 0.45215 0.60221 0.0
O168 O 0.48765 0.51107 0.86692 0.0
O169 O 0.48288 0.44979 0.48526 0.0
O170 O 0.51413 0.46652 0.81248 0.0
O171 O 0.44225 0.47151 0.82256 0.0
O172 O 0.4725 0.42742 0.75694 0.0
O173 O 0.52385 0.55619 0.64365 0.0
O174 O 0.53081 0.56094 0.75919 0.0
C175 C 0.50323 0.55056 0.42645 0.0
C176 C 0.43409 0.46926 0.58026 0.0
C177 C 0.20273 0.52958 0.3294 0.0
C178 C 0.19442 0.50621 0.27623 0.0
C179 C 0.1807 0.53019 0.36983 0.0
C180 C 0.14962 0.50739 0.35523 0.0
C181 C 0.14104 0.48479 0.29901 0.0
C182 C 0.1636 0.48414 0.261 0.0
C183 C 0.19093 0.55414 0.43044 0.0
C184 C 0.10809 0.46068 0.28028 0.0
C185 C 0.09527 0.48044 0.49733 0.0
C186 C 0.0791 0.49602 0.4868 0.0
C187 C 0.11905 0.48498 0.45662 0.0
C188 C 0.12639 0.50502 0.40265 0.0
C189 C 0.11052 0.5213 0.3924 0.0
C190 C 0.08722 0.51684 0.43521 0.0
C191 C 0.13605 0.46797 0.4709 0.0
C192 C 0.11741 0.54256 0.33487 0.0
H193 H 0.2266 0.54661 0.34128 0.0
H194 H 0.15713 0.46634 0.21913 0.0
H195 H 0.17585 0.56419 0.43289 0.0
H196 H 0.18949 0.54294 0.47926 0.0
H197 H 0.21476 0.57312 0.42794 0.0
H198 H 0.10492 0.44719 0.23034 0.0
H199 H 0.09955 0.44442 0.32148 0.0
H200 H 0.09389 0.47176 0.27658 0.0
H201 H 0.08947 0.46473 0.53799 0.0
H202 H 0.0748 0.52895 0.42693 0.0
H203 H 0.16095 0.48442 0.47684 0.0
H204 H 0.13158 0.45106 0.42649 0.0
H205 H 0.12927 0.45534 0.51843 0.0
H206 H 0.14221 0.55911 0.33607 0.0
H207 H 0.10523 0.55579 0.33812 0.0
H208 H 0.11047 0.52871 0.28415 0.0
C209 C 0.72084 0.14202 0.20243 0.0
C210 C 0.72491 0.17138 0.22015 0.0
C211 C 0.70058 0.11634 0.23672 0.0
C212 C 0.68434 0.12036 0.28993 0.0
C213 C 0.6896 0.15025 0.31014 0.0
C214 C 0.70977 0.17534 0.27497 0.0
C215 C 0.69555 0.08478 0.21401 0.0
C216 C 0.67301 0.15562 0.36717 0.0
C217 C 0.60714 0.05803 0.33661 0.0
C218 C 0.61466 0.05087 0.40097 0.0
C219 C 0.62988 0.07922 0.29744 0.0
C220 C 0.66082 0.09349 0.32325 0.0
C221 C 0.66866 0.08487 0.38588 0.0
C222 C 0.6455 0.0637 0.42402 0.0
C223 C 0.62065 0.08777 0.2306 0.0
C224 C 0.70139 0.09944 0.41488 0.0
H225 H 0.73234 0.13884 0.15973 0.0
H226 H 0.71303 0.19805 0.28924 0.0
H227 H 0.69728 0.07295 0.25947 0.0
H228 H 0.67224 0.07034 0.1884 0.0
H229 H 0.71218 0.08599 0.17716 0.0
H230 H 0.68079 0.18051 0.37871 0.0
H231 H 0.64819 0.14324 0.35195 0.0
H232 H 0.67641 0.14626 0.41534 0.0
H233 H 0.58343 0.0481 0.31803 0.0
H234 H 0.65163 0.05801 0.47318 0.0
H235 H 0.63462 0.08722 0.18877 0.0
H236 H 0.62476 0.11171 0.23773 0.0
H237 H 0.59621 0.07206 0.21358 0.0
H238 H 0.71606 0.09951 0.37409 0.0
H239 H 0.70401 0.08725 0.45876 0.0
H240 H 0.70984 0.12385 0.43359 0.0
C241 C 0.53301 0.67949 0.19115 0.0
C242 C 0.50941 0.68342 0.16263 0.0
C243 C 0.52696 0.65465 0.23071 0.0
C244 C 0.49649 0.63311 0.24268 0.0
C245 C 0.47239 0.63626 0.21229 0.0
C246 C 0.47914 0.6614 0.17248 0.0
C247 C 0.55335 0.65189 0.26103 0.0
C248 C 0.43962 0.61349 0.22319 0.0
C249 C 0.4884 0.55962 0.30935 0.0
C250 C 0.49377 0.56766 0.38098 0.0
C251 C 0.48722 0.57989 0.26327 0.0
C252 C 0.49052 0.60834 0.28974 0.0
C253 C 0.49287 0.61503 0.36236 0.0
C254 C 0.49496 0.59483 0.40712 0.0
C255 C 0.48558 0.57218 0.18643 0.0
C256 C 0.49567 0.64473 0.3928 0.0
H257 H 0.55646 0.69613 0.18331 0.0
H258 H 0.46073 0.66412 0.15031 0.0
H259 H 0.55469 0.65482 0.31841 0.0
H260 H 0.54985 0.62857 0.24657 0.0
H261 H 0.5755 0.66941 0.24324 0.0
H262 H 0.42346 0.61854 0.19417 0.0
H263 H 0.4342 0.58967 0.2065 0.0
H264 H 0.436 0.61401 0.27916 0.0
H265 H 0.48769 0.53873 0.28884 0.0
H266 H 0.49889 0.60098 0.46253 0.0
H267 H 0.50864 0.58566 0.1678 0.0
H268 H 0.47052 0.57862 0.15768 0.0
H269 H 0.47729 0.54724 0.17383 0.0
H270 H 0.51855 0.66434 0.3849 0.0
H271 H 0.49264 0.64433 0.44923 0.0
H272 H 0.47854 0.64914 0.36632 0.0
C273 C 0.87024 0.58965 0.25294 0.0
C274 C 0.87189 0.60299 0.19044 0.0
C275 C 0.8961 0.59149 0.28625 0.0
C276 C 0.92421 0.60681 0.25566 0.0
C277 C 0.92651 0.62242 0.19527 0.0
C278 C 0.90014 0.62041 0.16327 0.0
C279 C 0.89278 0.57507 0.3515 0.0
C280 C 0.95609 0.63913 0.16142 0.0
C281 C 0.98673 0.61625 0.38267 0.0
C282 C 0.98603 0.58815 0.36831 0.0
C283 C 0.96902 0.62448 0.34142 0.0
C284 C 0.95007 0.60398 0.28493 0.0
C285 C 0.95184 0.57728 0.26569 0.0
C286 C 0.96994 0.56966 0.30776 0.0
C287 C 0.96833 0.65353 0.36255 0.0
C288 C 0.93234 0.55517 0.20474 0.0
H289 H 0.84827 0.57617 0.27365 0.0
H290 H 0.90124 0.63033 0.11423 0.0
H291 H 0.89654 0.55528 0.34113 0.0
H292 H 0.91013 0.59089 0.39294 0.0
H293 H 0.86986 0.56616 0.37099 0.0
H294 H 0.95588 0.65571 0.12564 0.0
H295 H 0.97572 0.65177 0.20065 0.0
H296 H 0.95964 0.62201 0.13098 0.0
H297 H 0.99984 0.63108 0.42853 0.0
H298 H 0.96966 0.54813 0.29604 0.0
H299 H 0.9475 0.64734 0.38974 0.0
H300 H 0.96751 0.6655 0.31651 0.0
H301 H 0.98846 0.6698 0.39799 0.0
H302 H 0.90831 0.54214 0.21804 0.0
H303 H 0.93974 0.53832 0.19031 0.0
H304 H 0.93301 0.56795 0.15905 0.0
C305 C 0.29875 0.86078 0.27578 0.0
C306 C 0.29799 0.84276 0.21756 0.0
C307 C 0.32638 0.88031 0.31528 0.0
C308 C 0.35365 0.88194 0.29521 0.0
C309 C 0.35316 0.86524 0.23396 0.0
C310 C 0.32532 0.84576 0.19605 0.0
C311 C 0.32615 0.898 0.38033 0.0
C312 C 0.38177 0.86677 0.21022 0.0
C313 C 0.42564 0.94855 0.38601 0.0
C314 C 0.43023 0.93448 0.44233 0.0
C315 C 0.40188 0.9313 0.3347 0.0
C316 C 0.3822 0.89943 0.34095 0.0
C317 C 0.38843 0.88471 0.39479 0.0
C318 C 0.41249 0.90254 0.44513 0.0
C319 C 0.39631 0.94773 0.27749 0.0
C320 C 0.36809 0.85069 0.40279 0.0
H321 H 0.27765 0.85844 0.2924 0.0
H322 H 0.32483 0.83214 0.15027 0.0
H323 H 0.33244 0.88935 0.42624 0.0
H324 H 0.34332 0.92286 0.37983 0.0
H325 H 0.30349 0.89572 0.38642 0.0
H326 H 0.37804 0.85507 0.15759 0.0
H327 H 0.40025 0.89115 0.20991 0.0
H328 H 0.38978 0.85551 0.24692 0.0
H329 H 0.43907 0.97347 0.38517 0.0
H330 H 0.4157 0.89198 0.48989 0.0
H331 H 0.37626 0.95017 0.2877 0.0
H332 H 0.39116 0.93418 0.2268 0.0
H333 H 0.41618 0.97115 0.27374 0.0
H334 H 0.3455 0.84638 0.41746 0.0
H335 H 0.37776 0.84227 0.44312 0.0
H336 H 0.36434 0.83695 0.35301 0.0
C337 C 0.46885 0.3127 0.34172 0.0
C338 C 0.44765 0.28107 0.33499 0.0
C339 C 0.46678 0.33249 0.39139 0.0
C340 C 0.44306 0.32027 0.43676 0.0
C341 C 0.42156 0.28818 0.43072 0.0
C342 C 0.42396 0.26885 0.37915 0.0
C343 C 0.48995 0.36664 0.39429 0.0
C344 C 0.39669 0.27408 0.47962 0.0
C345 C 0.47093 0.38561 0.57153 0.0
C346 C 0.46055 0.40302 0.53747 0.0
C347 C 0.46077 0.35495 0.54644 0.0
C348 C 0.44044 0.34231 0.48596 0.0
C349 C 0.42575 0.35794 0.46056 0.0
C350 C 0.43615 0.38833 0.48662 0.0
C351 C 0.47524 0.33798 0.57795 0.0
C352 C 0.40303 0.34489 0.39798 0.0
H353 H 0.48707 0.32214 0.3072 0.0
H354 H 0.40789 0.24422 0.37455 0.0
H355 H 0.47829 0.38014 0.38666 0.0
H356 H 0.50291 0.37451 0.44578 0.0
H357 H 0.5065 0.37221 0.35417 0.0
H358 H 0.37786 0.25111 0.45801 0.0
H359 H 0.4064 0.27093 0.52891 0.0
H360 H 0.38719 0.28928 0.49211 0.0
H361 H 0.48925 0.39678 0.61229 0.0
H362 H 0.42736 0.40165 0.46212 0.0
H363 H 0.49515 0.34196 0.54922 0.0
H364 H 0.45895 0.31274 0.57436 0.0
H365 H 0.48335 0.34634 0.63314 0.0
H366 H 0.41546 0.34877 0.35042 0.0
H367 H 0.38908 0.35628 0.39444 0.0
H368 H 0.38763 0.31966 0.39926 0.0
C369 C 0.50263 0.81903 0.92566 0.0
C370 C 0.52981 0.81982 0.9464 0.0
C371 C 0.50265 0.84099 0.88317 0.0
C372 C 0.5305 0.86417 0.86047 0.0
C373 C 0.55779 0.8642 0.87856 0.0
C374 C 0.55716 0.84216 0.92159 0.0
C375 C 0.47304 0.8402 0.86513 0.0
C376 C 0.58786 0.88828 0.85479 0.0
C377 C 0.52236 0.91221 0.72343 0.0
C378 C 0.5237 0.93653 0.7654 0.0
C379 C 0.52622 0.88912 0.75302 0.0
C380 C 0.53142 0.89052 0.82598 0.0
C381 C 0.53512 0.91633 0.86759 0.0
C382 C 0.53134 0.93899 0.83678 0.0
C383 C 0.52282 0.86234 0.70667 0.0
C384 C 0.5411 0.91906 0.94543 0.0
H385 H 0.48138 0.80172 0.94405 0.0
H386 H 0.57825 0.84268 0.93639 0.0
H387 H 0.4738 0.86095 0.8905 0.0
H388 H 0.46971 0.84082 0.8084 0.0
H389 H 0.45308 0.8193 0.88196 0.0
H390 H 0.60621 0.88275 0.86551 0.0
H391 H 0.58566 0.89046 0.79842 0.0
H392 H 0.59483 0.91111 0.88188 0.0
H393 H 0.51653 0.91021 0.66821 0.0
H394 H 0.53297 0.95806 0.86939 0.0
H395 H 0.50013 0.84182 0.71141 0.0
H396 H 0.54025 0.85617 0.72241 0.0
H397 H 0.52475 0.86752 0.6514 0.0
H398 H 0.52106 0.90041 0.96801 0.0
H399 H 0.5456 0.94166 0.96962 0.0
H400 H 0.56091 0.9162 0.95942 0.0
C401 C 0.72657 0.58249 0.92772 0.0
C402 C 0.73394 0.55906 0.92962 0.0
C403 C 0.69979 0.57725 0.8912 0.0
C404 C 0.68049 0.54818 0.85444 0.0
C405 C 0.68814 0.52464 0.85517 0.0
C406 C 0.71466 0.53026 0.89356 0.0
C407 C 0.69204 0.60273 0.89226 0.0
C408 C 0.6685 0.49367 0.81491 0.0
C409 C 0.59955 0.52712 0.79662 0.0
C410 C 0.60325 0.53682 0.72942 0.0
C411 C 0.62453 0.53047 0.83828 0.0
C412 C 0.65347 0.54326 0.81117 0.0
C413 C 0.65699 0.55214 0.74263 0.0
C414 C 0.6319 0.54904 0.70285 0.0
C415 C 0.62014 0.52102 0.91155 0.0
C416 C 0.68732 0.5652 0.71136 0.0
H417 H 0.74119 0.60457 0.95678 0.0
H418 H 0.72038 0.51212 0.89534 0.0
H419 H 0.69179 0.60996 0.83915 0.0
H420 H 0.66891 0.59418 0.91002 0.0
H421 H 0.70854 0.62332 0.92672 0.0
H422 H 0.67752 0.47772 0.82171 0.0
H423 H 0.64499 0.4826 0.83158 0.0
H424 H 0.66704 0.4969 0.75892 0.0
H425 H 0.57741 0.51767 0.81713 0.0
H426 H 0.63476 0.55609 0.6504 0.0
H427 H 0.63424 0.54154 0.9485 0.0
H428 H 0.62791 0.50421 0.91996 0.0
H429 H 0.59598 0.51048 0.92388 0.0
H430 H 0.70414 0.58736 0.74038 0.0
H431 H 0.68574 0.56941 0.65597 0.0
H432 H 0.69628 0.54911 0.71546 0.0
C433 C 0.13118 0.72643 0.96355 0.0
C434 C 0.14325 0.71881 0.02062 0.0
C435 C 0.11025 0.70313 0.91383 0.0
C436 C 0.10195 0.67194 0.92153 0.0
C437 C 0.11204 0.66418 0.98263 0.0
C438 C 0.13238 0.68774 0.03156 0.0
C439 C 0.09902 0.71219 0.8508 0.0
C440 C 0.10375 0.63129 0.99353 0.0
C441 C 0.04115 0.59835 0.82428 0.0
C442 C 0.05856 0.59137 0.78072 0.0
C443 C 0.05422 0.62654 0.86471 0.0
C444 C 0.08576 0.64752 0.86375 0.0
C445 C 0.10291 0.64149 0.81588 0.0
C446 C 0.08888 0.61352 0.77392 0.0
C447 C 0.03479 0.6327 0.91227 0.0
C448 C 0.13667 0.66318 0.81352 0.0
H449 H 0.1399 0.75054 0.9548 0.0
H450 H 0.14187 0.68202 0.07592 0.0
H451 H 0.11333 0.71404 0.80767 0.0
H452 H 0.07512 0.69458 0.83354 0.0
H453 H 0.10048 0.73493 0.86105 0.0
H454 H 0.11247 0.62914 0.04535 0.0
H455 H 0.07869 0.6159 0.98816 0.0
H456 H 0.1134 0.62285 0.95342 0.0
H457 H 0.01747 0.58124 0.82847 0.0
H458 H 0.10216 0.60804 0.73973 0.0
H459 H 0.04084 0.6573 0.91366 0.0
H460 H 0.03881 0.62783 0.96573 0.0
H461 H 0.01013 0.61787 0.89599 0.0
H462 H 0.14157 0.68724 0.81011 0.0
H463 H 0.14598 0.65678 0.76893 0.0
H464 H 0.14882 0.66267 0.86205 0.0
C465 C 0.43938 0.15101 0.01775 0.0
C466 C 0.46256 0.18163 0.03347 0.0
C467 C 0.44305 0.13176 0.96878 0.0
C468 C 0.47033 0.14373 0.93456 0.0
C469 C 0.49291 0.17517 0.94715 0.0
C470 C 0.4888 0.19371 0.99673 0.0
C471 C 0.4185 0.09824 0.95638 0.0
C472 C 0.52204 0.18887 0.9108 0.0
C473 C 0.49296 0.08512 0.8783 0.0
C474 C 0.48121 0.07761 0.80888 0.0
C475 C 0.49056 0.1075 0.9192 0.0
C476 C 0.47622 0.12279 0.88971 0.0
C477 C 0.46645 0.11705 0.8184 0.0
C478 C 0.46904 0.09446 0.77875 0.0
C479 C 0.50191 0.11356 0.99485 0.0
C480 C 0.45186 0.13358 0.78476 0.0
H481 H 0.41915 0.14168 0.04623 0.0
H482 H 0.50662 0.21759 0.00818 0.0
H483 H 0.41181 0.09194 0.90014 0.0
H484 H 0.42742 0.08339 0.97471 0.0
H485 H 0.3979 0.09305 0.98366 0.0
H486 H 0.53578 0.21439 0.92106 0.0
H487 H 0.53605 0.17881 0.92858 0.0
H488 H 0.51694 0.18312 0.85404 0.0
H489 H 0.50277 0.07251 0.90175 0.0
H490 H 0.46033 0.08913 0.72478 0.0
H491 H 0.48234 0.10606 0.02734 0.0
H492 H 0.51743 0.13865 0.00813 0.0
H493 H 0.51421 0.10117 0.00853 0.0
H494 H 0.42901 0.12538 0.80387 0.0
H495 H 0.44919 0.12944 0.72739 0.0
H496 H 0.46558 0.15883 0.79883 0.0
C497 C 0.33534 0.52414 0.01114 0.0
C498 C 0.32998 0.51974 0.08081 0.0
C499 C 0.36091 0.52465 0.98486 0.0
C500 C 0.38133 0.52059 0.02959 0.0
C501 C 0.37701 0.51846 0.10121 0.0
C502 C 0.35113 0.51771 0.12582 0.0
C503 C 0.36484 0.52724 0.90831 0.0
C504 C 0.39826 0.51459 0.15124 0.0
C505 C 0.41405 0.47635 0.93933 0.0
C506 C 0.44239 0.50015 0.92272 0.0
C507 C 0.39475 0.48269 0.97739 0.0
C508 C 0.40393 0.51367 0.9994 0.0
C509 C 0.43347 0.53764 0.98738 0.0
C510 C 0.45244 0.53057 0.94906 0.0
C511 C 0.3637 0.45633 0.99026 0.0
C512 C 0.44439 0.57095 0.01057 0.0
H513 H 0.31873 0.52549 0.97662 0.0
H514 H 0.34671 0.51417 0.17984 0.0
H515 H 0.38852 0.54501 0.89977 0.0
H516 H 0.36071 0.50486 0.88373 0.0
H517 H 0.34889 0.53332 0.882 0.0
H518 H 0.3981 0.52352 0.20473 0.0
H519 H 0.39066 0.48965 0.15205 0.0
H520 H 0.42192 0.5266 0.13565 0.0
H521 H 0.40633 0.45275 0.91976 0.0
H522 H 0.47426 0.54912 0.9361 0.0
H523 H 0.34577 0.45903 0.9621 0.0
H524 H 0.36007 0.45663 0.04622 0.0
H525 H 0.36073 0.43344 0.97301 0.0
H526 H 0.43685 0.58118 0.97014 0.0
H527 H 0.46965 0.58464 0.01789 0.0
H528 H 0.43485 0.57311 0.05955 0.0
C529 C 0.79989 0.31002 0.9211 0.0
C530 C 0.81107 0.29353 0.95672 0.0
C531 C 0.81791 0.33228 0.87654 0.0
C532 C 0.8481 0.33883 0.86932 0.0
C533 C 0.85919 0.32165 0.90385 0.0
C534 C 0.84036 0.29889 0.94638 0.0
C535 C 0.80496 0.34937 0.83878 0.0
C536 C 0.89145 0.3283 0.89851 0.0
C537 C 0.89852 0.38349 0.72977 0.0
C538 C 0.91766 0.41232 0.76616 0.0
C539 C 0.87406 0.3599 0.76079 0.0
C540 C 0.8691 0.36511 0.83021 0.0
C541 C 0.88684 0.3949 0.86514 0.0
C542 C 0.91068 0.41821 0.83241 0.0
C543 C 0.85484 0.32884 0.72076 0.0
C544 C 0.88238 0.40154 0.93923 0.0
H545 H 0.7771 0.30568 0.92853 0.0
H546 H 0.8491 0.2863 0.97415 0.0
H547 H 0.8165 0.37382 0.86026 0.0
H548 H 0.80915 0.34941 0.78308 0.0
H549 H 0.78009 0.33902 0.84334 0.0
H550 H 0.89633 0.31244 0.92745 0.0
H551 H 0.89574 0.32618 0.84348 0.0
H552 H 0.90771 0.35241 0.91937 0.0
H553 H 0.90349 0.37881 0.67827 0.0
H554 H 0.92506 0.44052 0.86077 0.0
H555 H 0.83039 0.31928 0.72911 0.0
H556 H 0.86163 0.31236 0.73939 0.0
H557 H 0.85766 0.33024 0.66429 0.0
H558 H 0.85803 0.39337 0.94581 0.0
H559 H 0.89586 0.42658 0.95635 0.0
H560 H 0.88951 0.38887 0.97382 0.0
C561 C 0.83221 0.52347 0.88289 0.0
C562 C 0.83251 0.51849 0.95324 0.0
C563 C 0.85413 0.52326 0.84161 0.0
C564 C 0.87766 0.51924 0.87218 0.0
C565 C 0.87753 0.51334 0.94302 0.0
C566 C 0.85465 0.51265 0.98258 0.0
C567 C 0.85283 0.52866 0.76587 0.0
C568 C 0.90259 0.50974 0.97809 0.0
C569 C 0.92553 0.50258 0.75072 0.0
C570 C 0.94961 0.53246 0.74263 0.0
C571 C 0.90222 0.49778 0.79363 0.0
C572 C 0.90338 0.52342 0.83085 0.0
C573 C 0.92829 0.5535 0.8251 0.0
C574 C 0.95085 0.5577 0.78034 0.0
C575 C 0.87593 0.46539 0.79748 0.0
C576 C 0.93085 0.58138 0.86537 0.0
H577 H 0.81523 0.52834 0.86062 0.0
H578 H 0.85524 0.50956 0.03751 0.0
H579 H 0.87233 0.55151 0.75644 0.0
H580 H 0.85473 0.51088 0.73355 0.0
H581 H 0.8314 0.52811 0.74856 0.0
H582 H 0.89824 0.50348 0.03229 0.0
H583 H 0.90525 0.49176 0.94886 0.0
H584 H 0.92454 0.53177 0.9787 0.0
H585 H 0.9243 0.48291 0.7216 0.0
H586 H 0.9695 0.58081 0.77491 0.0
H587 H 0.85404 0.46454 0.78417 0.0
H588 H 0.87537 0.45843 0.85109 0.0
H589 H 0.87748 0.44822 0.76197 0.0
H590 H 0.91179 0.58489 0.84779 0.0
H591 H 0.95266 0.60282 0.859 0.0
H592 H 0.9291 0.57759 0.92131 0.0
C593 C 0.25848 0.81751 0.90431 0.0
C594 C 0.27003 0.7997 0.93224 0.0
C595 C 0.27539 0.84095 0.86127 0.0
C596 C 0.30464 0.8468 0.84586 0.0
C597 C 0.31511 0.82688 0.8682 0.0
C598 C 0.29761 0.80345 0.91119 0.0
C599 C 0.26313 0.86127 0.83793 0.0
C600 C 0.34601 0.83206 0.85196 0.0
C601 C 0.35241 0.90634 0.7218 0.0
C602 C 0.37259 0.93122 0.76874 0.0
C603 C 0.32924 0.87888 0.74557 0.0
C604 C 0.32622 0.87656 0.81772 0.0
C605 C 0.34513 0.90258 0.8646 0.0
C606 C 0.36814 0.92947 0.83953 0.0
C607 C 0.30948 0.85175 0.69392 0.0
C608 C 0.34235 0.90144 0.94185 0.0
H609 H 0.2369 0.8144 0.91956 0.0
H610 H 0.30663 0.78975 0.93246 0.0
H611 H 0.2749 0.88363 0.87005 0.0
H612 H 0.26754 0.86635 0.78321 0.0
H613 H 0.23827 0.8505 0.8432 0.0
H614 H 0.34886 0.81211 0.86374 0.0
H615 H 0.34963 0.83621 0.79658 0.0
H616 H 0.36397 0.85292 0.88331 0.0
H617 H 0.35618 0.90744 0.66713 0.0
H618 H 0.38383 0.94868 0.87584 0.0
H619 H 0.28529 0.84042 0.70606 0.0
H620 H 0.31683 0.83433 0.69679 0.0
H621 H 0.31111 0.85873 0.64002 0.0
H622 H 0.31851 0.89358 0.95353 0.0
H623 H 0.35746 0.92427 0.97069 0.0
H624 H 0.34839 0.88455 0.96137 0.0
C625 C 0.52996 0.32484 0.02866 0.0
C626 C 0.50777 0.31494 0.0767 0.0
C627 C 0.53066 0.34422 0.97742 0.0
C628 C 0.50923 0.35454 0.97569 0.0
C629 C 0.48747 0.34531 0.02575 0.0
C630 C 0.48673 0.32529 0.07479 0.0
C631 C 0.55375 0.35296 0.92407 0.0
C632 C 0.46481 0.35648 0.02747 0.0
C633 C 0.52425 0.42772 0.89397 0.0
C634 C 0.50297 0.41604 0.83579 0.0
C635 C 0.52755 0.408 0.93808 0.0
C636 C 0.50969 0.37563 0.92311 0.0
C637 C 0.4898 0.36367 0.86175 0.0
C638 C 0.48638 0.38399 0.81923 0.0
C639 C 0.54863 0.4219 0.00336 0.0
C640 C 0.47105 0.32933 0.84268 0.0
H641 H 0.54593 0.31644 0.02939 0.0
H642 H 0.46957 0.31766 0.112 0.0
H643 H 0.54183 0.34454 0.87152 0.0
H644 H 0.568 0.37846 0.92508 0.0
H645 H 0.56891 0.34316 0.93261 0.0
H646 H 0.45018 0.34812 0.07144 0.0
H647 H 0.47698 0.38212 0.03181 0.0
H648 H 0.44994 0.34843 0.97851 0.0
H649 H 0.53734 0.45243 0.90748 0.0
H650 H 0.47016 0.37471 0.77409 0.0
H651 H 0.56355 0.41175 0.0094 0.0
H652 H 0.53492 0.41655 0.04901 0.0
H653 H 0.56321 0.4474 0.00388 0.0
H654 H 0.48533 0.31842 0.84853 0.0
H655 H 0.46052 0.32398 0.78866 0.0
H656 H 0.45261 0.31871 0.8782 0.0
C657 C 0.18253 0.47295 0.96777 0.0
C658 C 0.18427 0.44916 0.99901 0.0
C659 C 0.15757 0.46656 0.92195 0.0
C660 C 0.13369 0.43561 0.90717 0.0
C661 C 0.1363 0.41132 0.93474 0.0
C662 C 0.1616 0.41837 0.98034 0.0
C663 C 0.15586 0.49316 0.89295 0.0
C664 C 0.11146 0.37804 0.91988 0.0
C665 C 0.05849 0.43273 0.87464 0.0
C666 C 0.0556 0.43153 0.80217 0.0
C667 C 0.08264 0.43159 0.90936 0.0
C668 C 0.10461 0.4295 0.87061 0.0
C669 C 0.10035 0.42558 0.79731 0.0
C670 C 0.07571 0.42651 0.76379 0.0
C671 C 0.08597 0.43525 0.98762 0.0
C672 C 0.12312 0.42303 0.75419 0.0
H673 H 0.20007 0.49677 0.98128 0.0
H674 H 0.16281 0.39978 0.0039 0.0
H675 H 0.15007 0.48869 0.83616 0.0
H676 H 0.13754 0.49555 0.91649 0.0
H677 H 0.1776 0.51541 0.90348 0.0
H678 H 0.11914 0.36176 0.93513 0.0
H679 H 0.09164 0.37375 0.94927 0.0
H680 H 0.1035 0.37294 0.86407 0.0
H681 H 0.04279 0.43634 0.9044 0.0
H682 H 0.07365 0.42576 0.70772 0.0
H683 H 0.10553 0.45838 0.00545 0.0
H684 H 0.09073 0.41774 0.00855 0.0
H685 H 0.06524 0.43302 0.00986 0.0
H686 H 0.14377 0.44616 0.7541 0.0
H687 H 0.11381 0.41442 0.69968 0.0
H688 H 0.13027 0.40741 0.77637 0.0
C689 C 0.67711 0.19958 0.92274 0.0
C690 C 0.67557 0.20251 0.99429 0.0
C691 C 0.65434 0.17376 0.88187 0.0
C692 C 0.63007 0.14984 0.91396 0.0
C693 C 0.62747 0.15366 0.98577 0.0
C694 C 0.65027 0.18018 0.02515 0.0
C695 C 0.65753 0.17106 0.80515 0.0
C696 C 0.60226 0.12862 0.02223 0.0
C697 C 0.5666 0.08711 0.79121 0.0
C698 C 0.57737 0.06638 0.78046 0.0
C699 C 0.58276 0.11384 0.83679 0.0
C700 C 0.61001 0.11962 0.87359 0.0
C701 C 0.61988 0.09774 0.86634 0.0
C702 C 0.60365 0.07158 0.81922 0.0
C703 C 0.57151 0.1366 0.84287 0.0
C704 C 0.64843 0.10267 0.90602 0.0
H705 H 0.69699 0.21671 0.89933 0.0
H706 H 0.64959 0.18218 0.08093 0.0
H707 H 0.66397 0.15325 0.79357 0.0
H708 H 0.63551 0.16362 0.77525 0.0
H709 H 0.67518 0.19322 0.78694 0.0
H710 H 0.60034 0.1372 0.07462 0.0
H711 H 0.58002 0.11895 0.99162 0.0
H712 H 0.60701 0.10945 0.02797 0.0
H713 H 0.54641 0.08339 0.76106 0.0
H714 H 0.61192 0.05553 0.8116 0.0
H715 H 0.58943 0.15967 0.82955 0.0
H716 H 0.56651 0.13924 0.89708 0.0
H717 H 0.55059 0.12929 0.80844 0.0
H718 H 0.66865 0.12248 0.88686 0.0
H719 H 0.65114 0.082 0.90042 0.0
H720 H 0.64811 0.10838 0.96188 0.0
C721 C 0.56611 0.73696 0.85027 0.0
C722 C 0.5795 0.73726 0.91527 0.0
C723 C 0.56336 0.71635 0.79506 0.0
C724 C 0.57279 0.69462 0.80671 0.0
C725 C 0.58924 0.69717 0.87018 0.0
C726 C 0.59276 0.71887 0.92365 0.0
C727 C 0.54752 0.71571 0.7268 0.0
C728 C 0.59972 0.67447 0.88492 0.0
C729 C 0.51967 0.61086 0.74942 0.0
C730 C 0.53746 0.60439 0.70634 0.0
C731 C 0.53002 0.64081 0.77833 0.0
C732 C 0.55874 0.66506 0.76238 0.0
C733 C 0.5751 0.65923 0.7121 0.0
C734 C 0.5644 0.62863 0.68512 0.0
C735 C 0.51163 0.64566 0.83166 0.0
C736 C 0.605 0.68462 0.69099 0.0
H737 H 0.55621 0.7516 0.84377 0.0
H738 H 0.60308 0.7192 0.97411 0.0
H739 H 0.55728 0.70953 0.68288 0.0
H740 H 0.52301 0.69804 0.72548 0.0
H741 H 0.54929 0.7384 0.71947 0.0
H742 H 0.61502 0.68166 0.93323 0.0
H743 H 0.57959 0.65145 0.89051 0.0
H744 H 0.61188 0.67188 0.84133 0.0
H745 H 0.49883 0.59188 0.76564 0.0
H746 H 0.57824 0.62347 0.65209 0.0
H747 H 0.5072 0.66438 0.81804 0.0
H748 H 0.52463 0.65273 0.88315 0.0
H749 H 0.48938 0.62446 0.8363 0.0
H750 H 0.60595 0.70728 0.69421 0.0
H751 H 0.60889 0.67935 0.63733 0.0
H752 H 0.62386 0.68659 0.72602 0.0
C753 C 0.47142 0.17357 0.36439 0.0
C754 C 0.4988 0.19466 0.33745 0.0
C755 C 0.46936 0.14958 0.40244 0.0
C756 C 0.4953 0.14641 0.41395 0.0
C757 C 0.52355 0.16882 0.39101 0.0
C758 C 0.52499 0.19276 0.35305 0.0
C759 C 0.43886 0.12641 0.42616 0.0
C760 C 0.55181 0.16638 0.40283 0.0
C761 C 0.49376 0.08754 0.53463 0.0
C762 C 0.48819 0.06306 0.48669 0.0
C763 C 0.49568 0.11479 0.51221 0.0
C764 C 0.49179 0.11739 0.44037 0.0
C765 C 0.48454 0.09201 0.39243 0.0
C766 C 0.48286 0.06527 0.41615 0.0
C767 C 0.50319 0.1412 0.56505 0.0
C768 C 0.47952 0.0934 0.31555 0.0
H769 H 0.45111 0.17511 0.35367 0.0
H770 H 0.54625 0.20902 0.33281 0.0
H771 H 0.42965 0.10419 0.39411 0.0
H772 H 0.44129 0.12179 0.48078 0.0
H773 H 0.42203 0.13438 0.4216 0.0
H774 H 0.57261 0.18749 0.38977 0.0
H775 H 0.55486 0.16235 0.45764 0.0
H776 H 0.54933 0.14632 0.37016 0.0
H777 H 0.49814 0.08607 0.58917 0.0
H778 H 0.47829 0.04631 0.37891 0.0
H779 H 0.48768 0.1505 0.55585 0.0
H780 H 0.52672 0.16024 0.55996 0.0
H781 H 0.50162 0.13418 0.61891 0.0
H782 H 0.46128 0.09909 0.30532 0.0
H783 H 0.47307 0.07128 0.28546 0.0
H784 H 0.50062 0.11198 0.29616 0.0
C785 C 0.29413 0.43442 0.30901 0.0
C786 C 0.28939 0.45971 0.31419 0.0
C787 C 0.31691 0.43389 0.35159 0.0
C788 C 0.33487 0.45895 0.40136 0.0
C789 C 0.32927 0.4839 0.40885 0.0
C790 C 0.30679 0.48413 0.36464 0.0
C791 C 0.3226 0.40715 0.34138 0.0
C792 C 0.34755 0.51074 0.46237 0.0
C793 C 0.37852 0.44853 0.55138 0.0
C794 C 0.40849 0.4644 0.53169 0.0
C795 C 0.35425 0.44615 0.50893 0.0
C796 C 0.36002 0.45953 0.44473 0.0
C797 C 0.39004 0.47461 0.42331 0.0
C798 C 0.41395 0.47703 0.46732 0.0
C799 C 0.32262 0.43029 0.53393 0.0
C800 C 0.39702 0.48878 0.35463 0.0
H801 H 0.28101 0.41568 0.26943 0.0
H802 H 0.30317 0.50371 0.36878 0.0
H803 H 0.34582 0.41562 0.32421 0.0
H804 H 0.32158 0.39669 0.39104 0.0
H805 H 0.30586 0.3889 0.30227 0.0
H806 H 0.33902 0.52731 0.4645 0.0
H807 H 0.34685 0.50222 0.51443 0.0
H808 H 0.37175 0.52331 0.45031 0.0
H809 H 0.37409 0.43883 0.6012 0.0
H810 H 0.43697 0.48909 0.45155 0.0
H811 H 0.3064 0.41172 0.49486 0.0
H812 H 0.31465 0.44717 0.54069 0.0
H813 H 0.32177 0.42006 0.58395 0.0
H814 H 0.38221 0.4714 0.31193 0.0
H815 H 0.4212 0.49791 0.34376 0.0
H816 H 0.39213 0.50803 0.35435 0.0
C817 C 0.8119 0.33924 0.2896 0.0
C818 C 0.81079 0.31184 0.26534 0.0
C819 C 0.83671 0.36167 0.33362 0.0
C820 C 0.86079 0.35644 0.35421 0.0
C821 C 0.85874 0.32795 0.33357 0.0
C822 C 0.83388 0.30609 0.28918 0.0
C823 C 0.83801 0.39174 0.35475 0.0
C824 C 0.88368 0.32126 0.35499 0.0
C825 C 0.9397 0.42719 0.37974 0.0
C826 C 0.9443 0.43292 0.4521 0.0
C827 C 0.91283 0.4022 0.34775 0.0
C828 C 0.8898 0.3822 0.38896 0.0
C829 C 0.89456 0.38718 0.46217 0.0
C830 C 0.92187 0.41244 0.49298 0.0
C831 C 0.90882 0.39772 0.26952 0.0
C832 C 0.8707 0.3661 0.50787 0.0
H833 H 0.79411 0.3438 0.27173 0.0
H834 H 0.833 0.28477 0.27154 0.0
H835 H 0.84375 0.39754 0.41139 0.0
H836 H 0.85625 0.41069 0.32843 0.0
H837 H 0.81614 0.39092 0.34103 0.0
H838 H 0.87689 0.29669 0.34217 0.0
H839 H 0.90431 0.336 0.32801 0.0
H840 H 0.89002 0.3269 0.41146 0.0
H841 H 0.95695 0.4427 0.34762 0.0
H842 H 0.92518 0.41667 0.54891 0.0
H843 H 0.88878 0.39938 0.25063 0.0
H844 H 0.90442 0.37435 0.25187 0.0
H845 H 0.9291 0.41511 0.24505 0.0
H846 H 0.84804 0.36274 0.4907 0.0
H847 H 0.8762 0.37524 0.56312 0.0
H848 H 0.86887 0.34306 0.50374 0.0
C849 C 0.5468 0.80284 0.30612 0.0
C850 C 0.56735 0.81817 0.25654 0.0
C851 C 0.54457 0.81933 0.36408 0.0
C852 C 0.56217 0.852 0.37044 0.0
C853 C 0.58429 0.86735 0.32259 0.0
C854 C 0.58697 0.85012 0.26676 0.0
C855 C 0.52196 0.80194 0.41589 0.0
C856 C 0.6032 0.90215 0.32663 0.0
C857 C 0.52504 0.89716 0.43124 0.0
C858 C 0.54322 0.91374 0.49199 0.0
C859 C 0.53025 0.87609 0.393 0.0
C860 C 0.55343 0.87026 0.41739 0.0
C861 C 0.56959 0.88423 0.48263 0.0
C862 C 0.56462 0.90623 0.51887 0.0
C863 C 0.51245 0.86197 0.32362 0.0
C864 C 0.59332 0.87738 0.51241 0.0
H865 H 0.53192 0.77799 0.2986 0.0
H866 H 0.60282 0.8619 0.22826 0.0
H867 H 0.5313 0.81246 0.46938 0.0
H868 H 0.50091 0.80302 0.40496 0.0
H869 H 0.51566 0.77723 0.4133 0.0
H870 H 0.62099 0.91038 0.28902 0.0
H871 H 0.58816 0.91188 0.31561 0.0
H872 H 0.61441 0.91139 0.3795 0.0
H873 H 0.50792 0.90216 0.41059 0.0
H874 H 0.5785 0.91854 0.56623 0.0
H875 H 0.5008 0.83642 0.3217 0.0
H876 H 0.52824 0.86941 0.28169 0.0
H877 H 0.49501 0.86873 0.31256 0.0
H878 H 0.58667 0.85285 0.4999 0.0
H879 H 0.59709 0.88248 0.56956 0.0
H880 H 0.61524 0.89205 0.48983 0.0
C881 C 0.71281 0.5177 0.25347 0.0
C882 C 0.72923 0.5415 0.21079 0.0
C883 C 0.68956 0.51733 0.29107 0.0
C884 C 0.68217 0.54098 0.28473 0.0
C885 C 0.69896 0.56524 0.24245 0.0
C886 C 0.72239 0.56535 0.20661 0.0
C887 C 0.67251 0.49134 0.3366 0.0
C888 C 0.69151 0.5906 0.23317 0.0
C889 C 0.60188 0.52244 0.31928 0.0
C890 C 0.60646 0.53781 0.38495 0.0
C891 C 0.62634 0.52351 0.28596 0.0
C892 C 0.65607 0.53977 0.31974 0.0
C893 C 0.66086 0.55538 0.38604 0.0
C894 C 0.63605 0.5545 0.41751 0.0
C895 C 0.62034 0.50716 0.21458 0.0
C896 C 0.6921 0.57254 0.42422 0.0
H897 H 0.71798 0.49924 0.25709 0.0
H898 H 0.73473 0.58375 0.17336 0.0
H899 H 0.67276 0.50084 0.3897 0.0
H900 H 0.64834 0.47726 0.31601 0.0
H901 H 0.68237 0.47596 0.33978 0.0
H902 H 0.70722 0.60822 0.19977 0.0
H903 H 0.66788 0.58049 0.20943 0.0
H904 H 0.69265 0.60229 0.2842 0.0
H905 H 0.57908 0.50953 0.29382 0.0
H906 H 0.63968 0.56605 0.46871 0.0
H907 H 0.6269 0.48911 0.21557 0.0
H908 H 0.63448 0.52382 0.1776 0.0
H909 H 0.59603 0.49611 0.19481 0.0
H910 H 0.70111 0.55661 0.4308 0.0
H911 H 0.69189 0.58284 0.47612 0.0
H912 H 0.70809 0.59128 0.39358 0.0
C913 C 0.1816 0.67982 0.25152 0.0
C914 C 0.20869 0.70822 0.26211 0.0
C915 C 0.16544 0.66474 0.30778 0.0
C916 C 0.17697 0.67822 0.37636 0.0
C917 C 0.20538 0.70601 0.38727 0.0
C918 C 0.22062 0.72103 0.32983 0.0
C919 C 0.13512 0.6353 0.29349 0.0
C920 C 0.21903 0.72055 0.45936 0.0
C921 C 0.11384 0.65485 0.49801 0.0
C922 C 0.11154 0.62771 0.52073 0.0
C923 C 0.13659 0.67299 0.45468 0.0
C924 C 0.15797 0.66415 0.43539 0.0
C925 C 0.15787 0.63887 0.46534 0.0
C926 C 0.13431 0.62061 0.50663 0.0
C927 C 0.1355 0.69948 0.42338 0.0
C928 C 0.18082 0.62924 0.44865 0.0
H929 H 0.17208 0.6704 0.19897 0.0
H930 H 0.24135 0.74332 0.33774 0.0
H931 H 0.13518 0.6165 0.3213 0.0
H932 H 0.11676 0.63882 0.31298 0.0
H933 H 0.12957 0.62766 0.23737 0.0
H934 H 0.2431 0.73936 0.45943 0.0
H935 H 0.20573 0.73036 0.48215 0.0
H936 H 0.21799 0.70289 0.49337 0.0
H937 H 0.09586 0.65996 0.50748 0.0
H938 H 0.13232 0.59936 0.52337 0.0
H939 H 0.12735 0.69294 0.36775 0.0
H940 H 0.15853 0.72024 0.42634 0.0
H941 H 0.11999 0.70562 0.44951 0.0
H942 H 0.17363 0.61536 0.39798 0.0
H943 H 0.18263 0.6149 0.4885 0.0
H944 H 0.20367 0.64967 0.44473 0.0
loop_
_geom_bond_atom_site_label_1
_geom_bond_atom_site_label_2
_geom_bond_distance
_geom_bond_site_symmetry_2
_ccdc_geom_bond_type
C0 O2 1.247 . S
C0 O4 1.258 . S
C1 O8 1.247 . S
C1 O9 1.258 . S
O2 C0 1.247 . S
O2 Zn3 2.028 . S
Zn3 O2 2.028 . S
Zn3 O7 2.035 . S
Zn3 O9 2.035 . S
Zn3 O10 2.028 . S
O4 C0 1.258 . S
O4 Zn5 2.035 . S
Zn5 O4 2.035 . S
Zn5 O6 2.028 . S
Zn5 O8 2.028 . S
Zn5 O11 2.035 . S
O6 Zn5 2.028 . S
O6 C12 1.247 . S
O7 Zn3 2.035 . S
O7 C12 1.258 . S
O8 C1 1.247 . S
O8 Zn5 2.028 . S
O9 C1 1.258 . S
O9 Zn3 2.035 . S
O10 Zn3 2.028 . S
O10 C13 1.247 . S
O11 Zn5 2.035 . S
O11 C13 1.258 . S
C12 O6 1.247 . S
C12 O7 1.258 . S
C13 O10 1.247 . S
C13 O11 1.258 . S
C14 O16 1.247 . S
C14 O18 1.258 . S
C15 O22 1.247 . S
C15 O23 1.258 . S
O16 C14 1.247 . S
O16 Zn17 2.028 . S
Zn17 O16 2.028 . S
Zn17 O21 2.035 . S
Zn17 O23 2.035 . S
Zn17 O24 2.028 . S
O18 C14 1.258 . S
O18 Zn19 2.035 . S
Zn19 O18 2.035 . S
Zn19 O20 2.028 . S
Zn19 O22 2.028 . S
Zn19 O25 2.035 . S
O20 Zn19 2.028 . S
O20 C26 1.247 . S
O21 Zn17 2.035 . S
O21 C26 1.258 . S
O22 C15 1.247 . S
O22 Zn19 2.028 . S
O23 C15 1.258 . S
O23 Zn17 2.035 . S
O24 Zn17 2.028 . S
O24 C27 1.247 . S
O25 Zn19 2.035 . S
O25 C27 1.258 . S
C26 O20 1.247 . S
C26 O21 1.258 . S
C27 O24 1.247 . S
C27 O25 1.258 . S
C28 O30 1.247 . S
C28 O32 1.258 . S
C29 O36 1.247 . S
C29 O37 1.258 . S
O30 C28 1.247 . S
O30 Zn31 2.028 . S
Zn31 O30 2.028 . S
Zn31 O35 2.035 . S
Zn31 O37 2.035 1_554 S
Zn31 O38 2.028 1_554 S
O32 C28 1.258 . S
O32 Zn33 2.035 . S
Zn33 O32 2.035 . S
Zn33 O34 2.028 . S
Zn33 O36 2.028 1_554 S
Zn33 O39 2.035 1_554 S
O34 Zn33 2.028 . S
O34 C40 1.247 . S
O35 Zn31 2.035 . S
O35 C40 1.258 . S
O36 C29 1.247 . S
O36 Zn33 2.028 1_556 S
O37 C29 1.258 . S
O37 Zn31 2.035 1_556 S
O38 Zn31 2.028 1_556 S
O38 C41 1.247 . S
O39 Zn33 2.035 1_556 S
O39 C41 1.258 . S
C40 O34 1.247 . S
C40 O35 1.258 . S
C41 O38 1.247 . S
C41 O39 1.258 . S
C42 O44 1.247 . S
C42 O46 1.258 . S
C43 O50 1.247 . S
C43 O51 1.258 . S
O44 C42 1.247 . S
O44 Zn45 2.028 1_556 S
Zn45 O44 2.028 1_554 S
Zn45 O49 2.035 1_554 S
Zn45 O51 2.035 . S
Zn45 O52 2.028 . S
O46 C42 1.258 . S
O46 Zn47 2.035 1_556 S
Zn47 O46 2.035 1_554 S
Zn47 O48 2.028 1_554 S
Zn47 O50 2.028 . S
Zn47 O53 2.035 . S
O48 Zn47 2.028 1_556 S
O48 C54 1.247 . S
O49 Zn45 2.035 1_556 S
O49 C54 1.258 . S
O50 C43 1.247 . S
O50 Zn47 2.028 . S
O51 C43 1.258 . S
O51 Zn45 2.035 . S
O52 Zn45 2.028 . S
O52 C55 1.247 . S
O53 Zn47 2.035 . S
O53 C55 1.258 . S
C54 O48 1.247 . S
C54 O49 1.258 . S
C55 O52 1.247 . S
C55 O53 1.258 . S
C56 O58 1.247 . S
C56 O60 1.258 . S
C57 O64 1.247 . S
C57 O65 1.258 . S
O58 C56 1.247 . S
O58 Zn59 2.028 . S
Zn59 O58 2.028 . S
Zn59 O63 2.035 . S
Zn59 O65 2.035 . S
Zn59 O66 2.028 . S
O60 C56 1.258 . S
O60 Zn61 2.035 . S
Zn61 O60 2.035 . S
Zn61 O62 2.028 . S
Zn61 O64 2.028 . S
Zn61 O67 2.035 . S
O62 Zn61 2.028 . S
O62 C68 1.247 . S
O63 Zn59 2.035 . S
O63 C68 1.258 . S
O64 C57 1.247 . S
O64 Zn61 2.028 . S
O65 C57 1.258 . S
O65 Zn59 2.035 . S
O66 Zn59 2.028 . S
O66 C69 1.247 . S
O67 Zn61 2.035 . S
O67 C69 1.258 . S
C68 O62 1.247 . S
C68 O63 1.258 . S
C69 O66 1.247 . S
C69 O67 1.258 . S
C70 O72 1.247 . S
C70 O74 1.258 . S
C71 O78 1.247 . S
C71 O79 1.258 . S
O72 C70 1.247 . S
O72 Zn73 2.028 . S
Zn73 O72 2.028 . S
Zn73 O77 2.035 . S
Zn73 O79 2.035 . S
Zn73 O80 2.028 . S
O74 C70 1.258 . S
O74 Zn75 2.035 . S
Zn75 O74 2.035 . S
Zn75 O76 2.028 . S
Zn75 O78 2.028 . S
Zn75 O81 2.035 . S
O76 Zn75 2.028 . S
O76 C82 1.247 . S
O77 Zn73 2.035 . S
O77 C82 1.258 . S
O78 C71 1.247 . S
O78 Zn75 2.028 . S
O79 C71 1.258 . S
O79 Zn73 2.035 . S
O80 Zn73 2.028 . S
O80 C83 1.247 . S
O81 Zn75 2.035 . S
O81 C83 1.258 . S
C82 O76 1.247 . S
C82 O77 1.258 . S
C83 O80 1.247 . S
C83 O81 1.258 . S
C84 O111 1.312 . S
C84 O112 1.208 . S
C85 O106 1.331 . S
C85 O109 1.244 . S
C86 O108 1.264 . S
C86 O110 1.273 . S
Mg87 O89 1.936 1_455 S
Mg87 O96 2.081 1_455 S
Mg87 O98 2.023 . S
Mg87 O102 2.031 1_455 S
Mg87 O111 2.291 . S
Mg88 O89 1.963 . S
Mg88 O99 1.942 . S
Mg88 O100 1.955 1_655 S
Mg88 O107 1.986 . S
O89 Mg87 1.936 1_655 S
O89 Mg88 1.963 . S
O89 Mg90 1.915 1_655 S
Mg90 O89 1.915 1_455 S
Mg90 O91 1.915 . S
Mg90 O95 2.013 . S
Mg90 O101 2.114 1_455 S
Mg90 O105 2.013 1_455 S
Mg90 O111 2.114 . S
O91 Mg90 1.915 . S
O91 Mg92 1.936 . S
O91 Mg93 1.963 . S
Mg92 O91 1.936 . S
Mg92 O101 2.291 1_455 S
Mg92 O106 2.081 . S
Mg92 O108 2.023 1_455 S
Mg92 O112 2.031 . S
Mg93 O91 1.963 . S
Mg93 O97 1.986 . S
Mg93 O109 1.942 . S
Mg93 O110 1.955 1_455 S
C94 O105 1.191 . S
C94 O107 1.307 . S
O95 Mg90 2.013 . S
O95 C114 1.191 . S
O96 Mg87 2.081 1_655 S
O96 C104 1.331 . S
O97 Mg93 1.986 . S
O97 C114 1.307 . S
O98 Mg87 2.023 . S
O98 C113 1.264 . S
O99 Mg88 1.942 . S
O99 C104 1.244 . S
O100 Mg88 1.955 1_455 S
O100 C113 1.273 . S
O101 Mg90 2.114 1_655 S
O101 Mg92 2.291 1_655 S
O101 C103 1.312 . S
O102 Mg87 2.031 1_655 S
O102 C103 1.208 . S
C103 O101 1.312 . S
C103 O102 1.208 . S
C104 O96 1.331 . S
C104 O99 1.244 . S
O105 Mg90 2.013 1_655 S
O105 C94 1.191 . S
O106 C85 1.331 . S
O106 Mg92 2.081 . S
O107 Mg88 1.986 . S
O107 C94 1.307 . S
O108 C86 1.264 . S
O108 Mg92 2.023 1_655 S
O109 C85 1.244 . S
O109 Mg93 1.942 . S
O110 C86 1.273 . S
O110 Mg93 1.955 1_655 S
O111 C84 1.312 . S
O111 Mg87 2.291 . S
O111 Mg90 2.114 . S
O112 C84 1.208 . S
O112 Mg92 2.031 . S
C113 O98 1.264 . S
C113 O100 1.273 . S
C114 O95 1.191 . S
C114 O97 1.307 . S
C115 O142 1.312 . S
C115 O143 1.208 . S
C116 O137 1.331 . S
C116 O140 1.244 . S
C117 O139 1.264 . S
C117 O141 1.273 . S
Mg118 O120 1.936 1_545 S
Mg118 O127 2.081 1_545 S
Mg118 O129 2.023 . S
Mg118 O133 2.031 1_545 S
Mg118 O142 2.291 . S
Mg119 O120 1.963 . S
Mg119 O130 1.942 . S
Mg119 O131 1.955 1_565 S
Mg119 O138 1.986 . S
O120 Mg118 1.936 1_565 S
O120 Mg119 1.963 . S
O120 Mg121 1.915 1_565 S
Mg121 O120 1.915 1_545 S
Mg121 O122 1.915 . S
Mg121 O126 2.013 . S
Mg121 O132 2.114 1_545 S
Mg121 O136 2.013 1_545 S
Mg121 O142 2.114 . S
O122 Mg121 1.915 . S
O122 Mg123 1.936 . S
O122 Mg124 1.963 . S
Mg123 O122 1.936 . S
Mg123 O132 2.291 1_545 S
Mg123 O137 2.081 . S
Mg123 O139 2.023 1_545 S
Mg123 O143 2.031 . S
Mg124 O122 1.963 . S
Mg124 O128 1.986 . S
Mg124 O140 1.942 . S
Mg124 O141 1.955 1_545 S
C125 O136 1.191 . S
C125 O138 1.307 . S
O126 Mg121 2.013 . S
O126 C145 1.191 . S
O127 Mg118 2.081 1_565 S
O127 C135 1.331 . S
O128 Mg124 1.986 . S
O128 C145 1.307 . S
O129 Mg118 2.023 . S
O129 C144 1.264 . S
O130 Mg119 1.942 . S
O130 C135 1.244 . S
O131 Mg119 1.955 1_545 S
O131 C144 1.273 . S
O132 Mg121 2.114 1_565 S
O132 Mg123 2.291 1_565 S
O132 C134 1.312 . S
O133 Mg118 2.031 1_565 S
O133 C134 1.208 . S
C134 O132 1.312 . S
C134 O133 1.208 . S
C135 O127 1.331 . S
C135 O130 1.244 . S
O136 Mg121 2.013 1_565 S
O136 C125 1.191 . S
O137 C116 1.331 . S
O137 Mg123 2.081 . S
O138 Mg119 1.986 . S
O138 C125 1.307 . S
O139 C117 1.264 . S
O139 Mg123 2.023 1_565 S
O140 C116 1.244 . S
O140 Mg124 1.942 . S
O141 C117 1.273 . S
O141 Mg124 1.955 1_565 S
O142 C115 1.312 . S
O142 Mg118 2.291 . S
O142 Mg121 2.114 . S
O143 C115 1.208 . S
O143 Mg123 2.031 . S
C144 O129 1.264 . S
C144 O131 1.273 . S
C145 O126 1.191 . S
C145 O128 1.307 . S
C146 O173 1.312 . S
C146 O174 1.208 . S
C147 O168 1.331 . S
C147 O171 1.244 . S
C148 O170 1.264 . S
C148 O172 1.273 . S
Mg149 O151 1.936 . S
Mg149 O158 2.081 . S
Mg149 O160 2.023 . S
Mg149 O164 2.031 . S
Mg149 O173 2.291 . S
Mg150 O151 1.963 . S
Mg150 O161 1.942 . S
Mg150 O162 1.955 . S
Mg150 O169 1.986 . S
O151 Mg149 1.936 . S
O151 Mg150 1.963 . S
O151 Mg152 1.915 . S
Mg152 O151 1.915 . S
Mg152 O153 1.915 . S
Mg152 O157 2.013 . S
Mg152 O163 2.114 . S
Mg152 O167 2.013 . S
Mg152 O173 2.114 . S
O153 Mg152 1.915 . S
O153 Mg154 1.936 . S
O153 Mg155 1.963 . S
Mg154 O153 1.936 . S
Mg154 O163 2.291 . S
Mg154 O168 2.081 . S
Mg154 O170 2.023 . S
Mg154 O174 2.031 . S
Mg155 O153 1.963 . S
Mg155 O159 1.986 . S
Mg155 O171 1.942 . S
Mg155 O172 1.955 . S
C156 O167 1.191 . S
C156 O169 1.307 . S
O157 Mg152 2.013 . S
O157 C176 1.191 . S
O158 Mg149 2.081 . S
O158 C166 1.331 . S
O159 Mg155 1.986 . S
O159 C176 1.307 . S
O160 Mg149 2.023 . S
O160 C175 1.264 . S
O161 Mg150 1.942 . S
O161 C166 1.244 . S
O162 Mg150 1.955 . S
O162 C175 1.273 . S
O163 Mg152 2.114 . S
O163 Mg154 2.291 . S
O163 C165 1.312 . S
O164 Mg149 2.031 . S
O164 C165 1.208 . S
C165 O163 1.312 . S
C165 O164 1.208 . S
C166 O158 1.331 . S
C166 O161 1.244 . S
O167 Mg152 2.013 . S
O167 C156 1.191 . S
O168 C147 1.331 . S
O168 Mg154 2.081 . S
O169 Mg150 1.986 . S
O169 C156 1.307 . S
O170 C148 1.264 . S
O170 Mg154 2.023 . S
O171 C147 1.244 . S
O171 Mg155 1.942 . S
O172 C148 1.273 . S
O172 Mg155 1.955 . S
O173 C146 1.312 . S
O173 Mg149 2.291 . S
O173 Mg152 2.114 . S
O174 C146 1.208 . S
O174 Mg154 2.031 . S
C175 O160 1.264 . S
C175 O162 1.273 . S
C176 O157 1.191 . S
C176 O159 1.307 . S
C177 C178 1.391 . S
C177 C179 1.394 . S
C177 H193 0.931 . S
C178 C177 1.391 . S
C178 C182 1.376 . S
C179 C177 1.394 . S
C179 C180 1.369 . S
C179 C183 1.531 . S
C180 C179 1.369 . S
C180 C181 1.410 . S
C180 C188 1.503 . S
C181 C180 1.410 . S
C181 C182 1.392 . S
C181 C184 1.511 . S
C182 C178 1.376 . S
C182 C181 1.392 . S
C182 H194 0.929 . S
C183 C179 1.531 . S
C183 H195 0.960 . S
C183 H196 0.962 . S
C183 H197 0.960 . S
C184 C181 1.511 . S
C184 H198 0.961 . S
C184 H199 0.961 . S
C184 H200 0.961 . S
C185 C186 1.370 . S
C185 C187 1.363 . S
C185 H201 0.931 . S
C186 C185 1.370 . S
C186 C190 1.408 . S
C187 C185 1.363 . S
C187 C188 1.370 . S
C187 C191 1.524 . S
C188 C180 1.503 . S
C188 C187 1.370 . S
C188 C189 1.403 . S
C189 C188 1.403 . S
C189 C190 1.404 . S
C189 C192 1.539 . S
C190 C186 1.408 . S
C190 C189 1.404 . S
C190 H202 0.930 . S
C191 C187 1.524 . S
C191 H203 0.956 . S
C191 H204 0.961 . S
C191 H205 0.961 . S
C192 C189 1.539 . S
C192 H206 0.958 . S
C192 H207 0.961 . S
C192 H208 0.960 . S
H193 C177 0.931 . S
H194 C182 0.929 . S
H195 C183 0.960 . S
H196 C183 0.962 . S
H197 C183 0.960 . S
H198 C184 0.961 . S
H199 C184 0.961 . S
H200 C184 0.961 . S
H201 C185 0.931 . S
H202 C190 0.930 . S
H203 C191 0.956 . S
H204 C191 0.961 . S
H205 C191 0.961 . S
H206 C192 0.958 . S
H207 C192 0.961 . S
H208 C192 0.960 . S
C209 C210 1.391 . S
C209 C211 1.394 . S
C209 H225 0.931 . S
C210 C209 1.391 . S
C210 C214 1.376 . S
C211 C209 1.394 . S
C211 C212 1.369 . S
C211 C215 1.531 . S
C212 C211 1.369 . S
C212 C213 1.410 . S
C212 C220 1.503 . S
C213 C212 1.410 . S
C213 C214 1.392 . S
C213 C216 1.511 . S
C214 C210 1.376 . S
C214 C213 1.392 . S
C214 H226 0.929 . S
C215 C211 1.531 . S
C215 H227 0.960 . S
C215 H228 0.962 . S
C215 H229 0.960 . S
C216 C213 1.511 . S
C216 H230 0.961 . S
C216 H231 0.961 . S
C216 H232 0.961 . S
C217 C218 1.370 . S
C217 C219 1.363 . S
C217 H233 0.931 . S
C218 C217 1.370 . S
C218 C222 1.408 . S
C219 C217 1.363 . S
C219 C220 1.370 . S
C219 C223 1.524 . S
C220 C212 1.503 . S
C220 C219 1.370 . S
C220 C221 1.403 . S
C221 C220 1.403 . S
C221 C222 1.404 . S
C221 C224 1.539 . S
C222 C218 1.408 . S
C222 C221 1.404 . S
C222 H234 0.930 . S
C223 C219 1.524 . S
C223 H235 0.956 . S
C223 H236 0.961 . S
C223 H237 0.961 . S
C224 C221 1.539 . S
C224 H238 0.958 . S
C224 H239 0.961 . S
C224 H240 0.960 . S
H225 C209 0.931 . S
H226 C214 0.929 . S
H227 C215 0.960 . S
H228 C215 0.962 . S
H229 C215 0.960 . S
H230 C216 0.961 . S
H231 C216 0.961 . S
H232 C216 0.961 . S
H233 C217 0.931 . S
H234 C222 0.930 . S
H235 C223 0.956 . S
H236 C223 0.961 . S
H237 C223 0.961 . S
H238 C224 0.958 . S
H239 C224 0.961 . S
H240 C224 0.960 . S
C241 C242 1.391 . S
C241 C243 1.394 . S
C241 H257 0.931 . S
C242 C241 1.391 . S
C242 C246 1.376 . S
C243 C241 1.394 . S
C243 C244 1.369 . S
C243 C247 1.531 . S
C244 C243 1.369 . S
C244 C245 1.410 . S
C244 C252 1.503 . S
C245 C244 1.410 . S
C245 C246 1.392 . S
C245 C248 1.511 . S
C246 C242 1.376 . S
C246 C245 1.392 . S
C246 H258 0.929 . S
C247 C243 1.531 . S
C247 H259 0.960 . S
C247 H260 0.962 . S
C247 H261 0.960 . S
C248 C245 1.511 . S
C248 H262 0.961 . S
C248 H263 0.961 . S
C248 H264 0.961 . S
C249 C250 1.370 . S
C249 C251 1.363 . S
C249 H265 0.931 . S
C250 C249 1.370 . S
C250 C254 1.408 . S
C251 C249 1.363 . S
C251 C252 1.370 . S
C251 C255 1.524 . S
C252 C244 1.503 . S
C252 C251 1.370 . S
C252 C253 1.403 . S
C253 C252 1.403 . S
C253 C254 1.404 . S
C253 C256 1.539 . S
C254 C250 1.408 . S
C254 C253 1.404 . S
C254 H266 0.930 . S
C255 C251 1.524 . S
C255 H267 0.956 . S
C255 H268 0.961 . S
C255 H269 0.961 . S
C256 C253 1.539 . S
C256 H270 0.958 . S
C256 H271 0.961 . S
C256 H272 0.960 . S
H257 C241 0.931 . S
H258 C246 0.929 . S
H259 C247 0.960 . S
H260 C247 0.962 . S
H261 C247 0.960 . S
H262 C248 0.961 . S
H263 C248 0.961 . S
H264 C248 0.961 . S
H265 C249 0.931 . S
H266 C254 0.930 . S
H267 C255 0.956 . S
H268 C255 0.961 . S
H269 C255 0.961 . S
H270 C256 0.958 . S
H271 C256 0.961 . S
H272 C256 0.960 . S
C273 C274 1.391 . S
C273 C275 1.394 . S
C273 H289 0.931 . S
C274 C273 1.391 . S
C274 C278 1.376 . S
C275 C273 1.394 . S
C275 C276 1.369 . S
C275 C279 1.531 . S
C276 C275 1.369 . S
C276 C277 1.410 . S
C276 C284 1.503 . S
C277 C276 1.410 . S
C277 C278 1.392 . S
C277 C280 1.511 . S
C278 C274 1.376 . S
C278 C277 1.392 . S
C278 H290 0.929 . S
C279 C275 1.531 . S
C279 H291 0.960 . S
C279 H292 0.962 . S
C279 H293 0.960 . S
C280 C277 1.511 . S
C280 H294 0.961 . S
C280 H295 0.961 . S
C280 H296 0.961 . S
C281 C282 1.370 . S
C281 C283 1.363 . S
C281 H297 0.931 . S
C282 C281 1.370 . S
C282 C286 1.408 . S
C283 C281 1.363 . S
C283 C284 1.370 . S
C283 C287 1.524 . S
C284 C276 1.503 . S
C284 C283 1.370 . S
C284 C285 1.403 . S
C285 C284 1.403 . S
C285 C286 1.404 . S
C285 C288 1.539 . S
C286 C282 1.408 . S
C286 C285 1.404 . S
C286 H298 0.930 . S
C287 C283 1.524 . S
C287 H299 0.956 . S
C287 H300 0.961 . S
C287 H301 0.961 . S
C288 C285 1.539 . S
C288 H302 0.958 . S
C288 H303 0.961 . S
C288 H304 0.960 . S
H289 C273 0.931 . S
H290 C278 0.929 . S
H291 C279 0.960 . S
H292 C279 0.962 . S
H293 C279 0.960 . S
H294 C280 0.961 . S
H295 C280 0.961 . S
H296 C280 0.961 . S
H297 C281 0.931 . S
H298 C286 0.930 . S
H299 C287 0.956 . S
H300 C287 0.961 . S
H301 C287 0.961 . S
H302 C288 0.958 . S
H303 C288 0.961 . S
H304 C288 0.960 . S
C305 C306 1.391 . S
C305 C307 1.394 . S
C305 H321 0.931 . S
C306 C305 1.391 . S
C306 C310 1.376 . S
C307 C305 1.394 . S
C307 C308 1.369 . S
C307 C311 1.531 . S
C308 C307 1.369 . S
C308 C309 1.410 . S
C308 C316 1.503 . S
C309 C308 1.410 . S
C309 C310 1.392 . S
C309 C312 1.511 . S
C310 C306 1.376 . S
C310 C309 1.392 . S
C310 H322 0.929 . S
C311 C307 1.531 . S
C311 H323 0.960 . S
C311 H324 0.962 . S
C311 H325 0.960 . S
C312 C309 1.511 . S
C312 H326 0.961 . S
C312 H327 0.961 . S
C312 H328 0.961 . S
C313 C314 1.370 . S
C313 C315 1.363 . S
C313 H329 0.931 . S
C314 C313 1.370 . S
C314 C318 1.408 . S
C315 C313 1.363 . S
C315 C316 1.370 . S
C315 C319 1.524 . S
C316 C308 1.503 . S
C316 C315 1.370 . S
C316 C317 1.403 . S
C317 C316 1.403 . S
C317 C318 1.404 . S
C317 C320 1.539 . S
C318 C314 1.408 . S
C318 C317 1.404 . S
C318 H330 0.930 . S
C319 C315 1.524 . S
C319 H331 0.956 . S
C319 H332 0.961 . S
C319 H333 0.961 . S
C320 C317 1.539 . S
C320 H334 0.958 . S
C320 H335 0.961 . S
C320 H336 0.960 . S
H321 C305 0.931 . S
H322 C310 0.929 . S
H323 C311 0.960 . S
H324 C311 0.962 . S
H325 C311 0.960 . S
H326 C312 0.961 . S
H327 C312 0.961 . S
H328 C312 0.961 . S
H329 C313 0.931 . S
H330 C318 0.930 . S
H331 C319 0.956 . S
H332 C319 0.961 . S
H333 C319 0.961 . S
H334 C320 0.958 . S
H335 C320 0.961 . S
H336 C320 0.960 . S
C337 C338 1.391 . S
C337 C339 1.394 . S
C337 H353 0.931 . S
C338 C337 1.391 . S
C338 C342 1.376 . S
C339 C337 1.394 . S
C339 C340 1.369 . S
C339 C343 1.531 . S
C340 C339 1.369 . S
C340 C341 1.410 . S
C340 C348 1.503 . S
C341 C340 1.410 . S
C341 C342 1.392 . S
C341 C344 1.511 . S
C342 C338 1.376 . S
C342 C341 1.392 . S
C342 H354 0.929 . S
C343 C339 1.531 . S
C343 H355 0.960 . S
C343 H356 0.962 . S
C343 H357 0.960 . S
C344 C341 1.511 . S
C344 H358 0.961 . S
C344 H359 0.961 . S
C344 H360 0.961 . S
C345 C346 1.370 . S
C345 C347 1.363 . S
C345 H361 0.931 . S
C346 C345 1.370 . S
C346 C350 1.408 . S
C347 C345 1.363 . S
C347 C348 1.370 . S
C347 C351 1.524 . S
C348 C340 1.503 . S
C348 C347 1.370 . S
C348 C349 1.403 . S
C349 C348 1.403 . S
C349 C350 1.404 . S
C349 C352 1.539 . S
C350 C346 1.408 . S
C350 C349 1.404 . S
C350 H362 0.930 . S
C351 C347 1.524 . S
C351 H363 0.956 . S
C351 H364 0.961 . S
C351 H365 0.961 . S
C352 C349 1.539 . S
C352 H366 0.958 . S
C352 H367 0.961 . S
C352 H368 0.960 . S
H353 C337 0.931 . S
H354 C342 0.929 . S
H355 C343 0.960 . S
H356 C343 0.962 . S
H357 C343 0.960 . S
H358 C344 0.961 . S
H359 C344 0.961 . S
H360 C344 0.961 . S
H361 C345 0.931 . S
H362 C350 0.930 . S
H363 C351 0.956 . S
H364 C351 0.961 . S
H365 C351 0.961 . S
H366 C352 0.958 . S
H367 C352 0.961 . S
H368 C352 0.960 . S
C369 C370 1.391 . S
C369 C371 1.394 . S
C369 H385 0.931 . S
C370 C369 1.391 . S
C370 C374 1.376 . S
C371 C369 1.394 . S
C371 C372 1.369 . S
C371 C375 1.531 . S
C372 C371 1.369 . S
C372 C373 1.410 . S
C372 C380 1.503 . S
C373 C372 1.410 . S
C373 C374 1.392 . S
C373 C376 1.511 . S
C374 C370 1.376 . S
C374 C373 1.392 . S
C374 H386 0.929 . S
C375 C371 1.531 . S
C375 H387 0.960 . S
C375 H388 0.962 . S
C375 H389 0.960 . S
C376 C373 1.511 . S
C376 H390 0.961 . S
C376 H391 0.961 . S
C376 H392 0.961 . S
C377 C378 1.370 . S
C377 C379 1.363 . S
C377 H393 0.931 . S
C378 C377 1.370 . S
C378 C382 1.408 . S
C379 C377 1.363 . S
C379 C380 1.370 . S
C379 C383 1.524 . S
C380 C372 1.503 . S
C380 C379 1.370 . S
C380 C381 1.403 . S
C381 C380 1.403 . S
C381 C382 1.404 . S
C381 C384 1.539 . S
C382 C378 1.408 . S
C382 C381 1.404 . S
C382 H394 0.930 . S
C383 C379 1.524 . S
C383 H395 0.956 . S
C383 H396 0.961 . S
C383 H397 0.961 . S
C384 C381 1.539 . S
C384 H398 0.958 . S
C384 H399 0.961 . S
C384 H400 0.960 . S
H385 C369 0.931 . S
H386 C374 0.929 . S
H387 C375 0.960 . S
H388 C375 0.962 . S
H389 C375 0.960 . S
H390 C376 0.961 . S
H391 C376 0.961 . S
H392 C376 0.961 . S
H393 C377 0.931 . S
H394 C382 0.930 . S
H395 C383 0.956 . S
H396 C383 0.961 . S
H397 C383 0.961 . S
H398 C384 0.958 . S
H399 C384 0.961 . S
H400 C384 0.960 . S
C401 C402 1.391 . S
C401 C403 1.394 . S
C401 H417 0.931 . S
C402 C401 1.391 . S
C402 C406 1.376 . S
C403 C401 1.394 . S
C403 C404 1.369 . S
C403 C407 1.531 . S
C404 C403 1.369 . S
C404 C405 1.410 . S
C404 C412 1.503 . S
C405 C404 1.410 . S
C405 C406 1.392 . S
C405 C408 1.511 . S
C406 C402 1.376 . S
C406 C405 1.392 . S
C406 H418 0.929 . S
C407 C403 1.531 . S
C407 H419 0.960 . S
C407 H420 0.962 . S
C407 H421 0.960 . S
C408 C405 1.511 . S
C408 H422 0.961 . S
C408 H423 0.961 . S
C408 H424 0.961 . S
C409 C410 1.370 . S
C409 C411 1.363 . S
C409 H425 0.931 . S
C410 C409 1.370 . S
C410 C414 1.408 . S
C411 C409 1.363 . S
C411 C412 1.370 . S
C411 C415 1.524 . S
C412 C404 1.503 . S
C412 C411 1.370 . S
C412 C413 1.403 . S
C413 C412 1.403 . S
C413 C414 1.404 . S
C413 C416 1.539 . S
C414 C410 1.408 . S
C414 C413 1.404 . S
C414 H426 0.930 . S
C415 C411 1.524 . S
C415 H427 0.956 . S
C415 H428 0.961 . S
C415 H429 0.961 . S
C416 C413 1.539 . S
C416 H430 0.958 . S
C416 H431 0.961 . S
C416 H432 0.960 . S
H417 C401 0.931 . S
H418 C406 0.929 . S
H419 C407 0.960 . S
H420 C407 0.962 . S
H421 C407 0.960 . S
H422 C408 0.961 . S
H423 C408 0.961 . S
H424 C408 0.961 . S
H425 C409 0.931 . S
H426 C414 0.930 . S
H427 C415 0.956 . S
H428 C415 0.961 . S
H429 C415 0.961 . S
H430 C416 0.958 . S
H431 C416 0.961 . S
H432 C416 0.960 . S
C433 C434 1.391 . S
C433 C435 1.394 . S
C433 H449 0.931 . S
C434 C433 1.391 . S
C434 C438 1.376 . S
C435 C433 1.394 . S
C435 C436 1.369 . S
C435 C439 1.531 . S
C436 C435 1.369 . S
C436 C437 1.410 . S
C436 C444 1.503 . S
C437 C436 1.410 . S
C437 C438 1.392 . S
C437 C440 1.511 . S
C438 C434 1.376 . S
C438 C437 1.392 . S
C438 H450 0.929 1_556 S
C439 C435 1.531 . S
C439 H451 0.960 . S
C439 H452 0.962 . S
C439 H453 0.960 . S
C440 C437 1.511 . S
C440 H454 0.961 1_556 S
C440 H455 0.961 . S
C440 H456 0.961 . S
C441 C442 1.370 . S
C441 C443 1.363 . S
C441 H457 0.931 . S
C442 C441 1.370 . S
C442 C446 1.408 . S
C443 C441 1.363 . S
C443 C444 1.370 . S
C443 C447 1.524 . S
C444 C436 1.503 . S
C444 C443 1.370 . S
C444 C445 1.403 . S
C445 C444 1.403 . S
C445 C446 1.404 . S
C445 C448 1.539 . S
C446 C442 1.408 . S
C446 C445 1.404 . S
C446 H458 0.930 . S
C447 C443 1.524 . S
C447 H459 0.956 . S
C447 H460 0.961 . S
C447 H461 0.961 . S
C448 C445 1.539 . S
C448 H462 0.958 . S
C448 H463 0.961 . S
C448 H464 0.960 . S
H449 C433 0.931 . S
H450 C438 0.929 1_554 S
H451 C439 0.960 . S
H452 C439 0.962 . S
H453 C439 0.960 . S
H454 C440 0.961 1_554 S
H455 C440 0.961 . S
H456 C440 0.961 . S
H457 C441 0.931 . S
H458 C446 0.930 . S
H459 C447 0.956 . S
H460 C447 0.961 . S
H461 C447 0.961 . S
H462 C448 0.958 . S
H463 C448 0.961 . S
H464 C448 0.960 . S
C465 C466 1.391 1_556 S
C465 C467 1.394 . S
C465 H481 0.931 . S
C466 C465 1.391 1_554 S
C466 C470 1.376 . S
C467 C465 1.394 . S
C467 C468 1.369 . S
C467 C471 1.531 . S
C468 C467 1.369 . S
C468 C469 1.410 1_556 S
C468 C476 1.503 . S
C469 C468 1.410 1_554 S
C469 C470 1.392 . S
C469 C472 1.511 . S
C470 C466 1.376 . S
C470 C469 1.392 . S
C470 H482 0.929 . S
C471 C467 1.531 . S
C471 H483 0.960 . S
C471 H484 0.962 . S
C471 H485 0.960 . S
C472 C469 1.511 . S
C472 H486 0.961 . S
C472 H487 0.961 . S
C472 H488 0.961 . S
C473 C474 1.370 . S
C473 C475 1.363 . S
C473 H489 0.931 . S
C474 C473 1.370 . S
C474 C478 1.408 . S
C475 C473 1.363 . S
C475 C476 1.370 . S
C475 C479 1.524 . S
C476 C468 1.503 . S
C476 C475 1.370 . S
C476 C477 1.403 . S
C477 C476 1.403 . S
C477 C478 1.404 . S
C477 C480 1.539 . S
C478 C474 1.408 . S
C478 C477 1.404 . S
C478 H490 0.930 . S
C479 C475 1.524 . S
C479 H491 0.956 . S
C479 H492 0.961 . S
C479 H493 0.961 . S
C480 C477 1.539 . S
C480 H494 0.958 . S
C480 H495 0.961 . S
C480 H496 0.960 . S
H481 C465 0.931 . S
H482 C470 0.929 . S
H483 C471 0.960 . S
H484 C471 0.962 . S
H485 C471 0.960 . S
H486 C472 0.961 . S
H487 C472 0.961 . S
H488 C472 0.961 . S
H489 C473 0.931 . S
H490 C478 0.930 . S
H491 C479 0.956 . S
H492 C479 0.961 . S
H493 C479 0.961 . S
H494 C480 0.958 . S
H495 C480 0.961 . S
H496 C480 0.960 . S
C497 C498 1.391 1_556 S
C497 C499 1.394 . S
C497 H513 0.931 . S
C498 C497 1.391 1_554 S
C498 C502 1.376 . S
C499 C497 1.394 . S
C499 C500 1.369 . S
C499 C503 1.531 . S
C500 C499 1.369 . S
C500 C501 1.410 1_556 S
C500 C508 1.503 . S
C501 C500 1.410 1_554 S
C501 C502 1.392 . S
C501 C504 1.511 . S
C502 C498 1.376 . S
C502 C501 1.392 . S
C502 H514 0.929 . S
C503 C499 1.531 . S
C503 H515 0.960 . S
C503 H516 0.962 . S
C503 H517 0.960 . S
C504 C501 1.511 . S
C504 H518 0.961 . S
C504 H519 0.961 . S
C504 H520 0.961 . S
C505 C506 1.370 . S
C505 C507 1.363 . S
C505 H521 0.931 . S
C506 C505 1.370 . S
C506 C510 1.408 . S
C507 C505 1.363 . S
C507 C508 1.370 . S
C507 C511 1.524 . S
C508 C500 1.503 . S
C508 C507 1.370 . S
C508 C509 1.403 . S
C509 C508 1.403 . S
C509 C510 1.404 . S
C509 C512 1.539 . S
C510 C506 1.408 . S
C510 C509 1.404 . S
C510 H522 0.930 . S
C511 C507 1.524 . S
C511 H523 0.956 . S
C511 H524 0.961 . S
C511 H525 0.961 . S
C512 C509 1.539 . S
C512 H526 0.958 . S
C512 H527 0.961 . S
C512 H528 0.960 1_556 S
H513 C497 0.931 . S
H514 C502 0.929 . S
H515 C503 0.960 . S
H516 C503 0.962 . S
H517 C503 0.960 . S
H518 C504 0.961 . S
H519 C504 0.961 . S
H520 C504 0.961 . S
H521 C505 0.931 . S
H522 C510 0.930 . S
H523 C511 0.956 . S
H524 C511 0.961 . S
H525 C511 0.961 . S
H526 C512 0.958 . S
H527 C512 0.961 . S
H528 C512 0.960 1_554 S
C529 C530 1.391 1_554 S
C529 C531 1.394 1_554 S
C529 H545 0.931 . S
C530 C529 1.391 1_556 S
C530 C534 1.376 . S
C531 C529 1.394 1_556 S
C531 C532 1.369 . S
C531 C535 1.531 . S
C532 C531 1.369 . S
C532 C533 1.410 . S
C532 C540 1.503 . S
C533 C532 1.410 . S
C533 C534 1.392 . S
C533 C536 1.511 . S
C534 C530 1.376 . S
C534 C533 1.392 . S
C534 H546 0.929 . S
C535 C531 1.531 . S
C535 H547 0.960 . S
C535 H548 0.962 . S
C535 H549 0.960 1_556 S
C536 C533 1.511 . S
C536 H550 0.961 . S
C536 H551 0.961 . S
C536 H552 0.961 . S
C537 C538 1.370 . S
C537 C539 1.363 . S
C537 H553 0.931 . S
C538 C537 1.370 . S
C538 C542 1.408 . S
C539 C537 1.363 . S
C539 C540 1.370 . S
C539 C543 1.524 . S
C540 C532 1.503 . S
C540 C539 1.370 . S
C540 C541 1.403 . S
C541 C540 1.403 . S
C541 C542 1.404 . S
C541 C544 1.539 . S
C542 C538 1.408 . S
C542 C541 1.404 . S
C542 H554 0.930 . S
C543 C539 1.524 . S
C543 H555 0.956 . S
C543 H556 0.961 . S
C543 H557 0.961 . S
C544 C541 1.539 . S
C544 H558 0.950 1_556 S
C544 H559 0.961 . S
C544 H560 0.960 . S
H545 C529 0.931 . S
H546 C534 0.929 . S
H547 C535 0.960 . S
H548 C535 0.962 . S
H549 C535 0.960 1_554 S
H550 C536 0.961 . S
H551 C536 0.961 . S
H552 C536 0.961 . S
H553 C537 0.931 . S
H554 C542 0.930 . S
H555 C543 0.956 . S
H556 C543 0.961 . S
H557 C543 0.961 . S
H558 C544 0.950 1_554 S
H559 C544 0.961 . S
H560 C544 0.960 . S
C561 C562 1.391 . S
C561 C563 1.394 . S
C561 H577 0.931 . S
C562 C561 1.391 . S
C562 C566 1.376 . S
C563 C561 1.394 . S
C563 C564 1.369 . S
C563 C567 1.531 . S
C564 C563 1.369 . S
C564 C565 1.410 . S
C564 C572 1.503 . S
C565 C564 1.410 . S
C565 C566 1.392 . S
C565 C568 1.511 . S
C566 C562 1.376 . S
C566 C565 1.392 . S
C566 H578 0.929 . S
C567 C563 1.531 . S
C567 H579 0.960 . S
C567 H580 0.962 . S
C567 H581 0.960 . S
C568 C565 1.511 . S
C568 H582 0.961 . S
C568 H583 0.961 . S
C568 H584 0.961 . S
C569 C570 1.370 . S
C569 C571 1.363 . S
C569 H585 0.931 . S
C570 C569 1.370 . S
C570 C574 1.408 . S
C571 C569 1.363 . S
C571 C572 1.370 . S
C571 C575 1.524 . S
C572 C564 1.503 . S
C572 C571 1.370 . S
C572 C573 1.403 . S
C573 C572 1.403 . S
C573 C574 1.404 . S
C573 C576 1.539 . S
C574 C570 1.408 . S
C574 C573 1.404 . S
C574 H586 0.930 . S
C575 C571 1.524 . S
C575 H587 0.956 . S
C575 H588 0.961 . S
C575 H589 0.961 . S
C576 C573 1.539 . S
C576 H590 0.958 . S
C576 H591 0.961 . S
C576 H592 0.960 . S
H577 C561 0.931 . S
H578 C566 0.929 . S
H579 C567 0.960 . S
H580 C567 0.962 . S
H581 C567 0.960 . S
H582 C568 0.961 . S
H583 C568 0.961 . S
H584 C568 0.961 . S
H585 C569 0.931 . S
H586 C574 0.930 . S
H587 C575 0.956 . S
H588 C575 0.961 . S
H589 C575 0.961 . S
H590 C576 0.958 . S
H591 C576 0.961 . S
H592 C576 0.960 . S
C593 C594 1.391 1_556 S
C593 C595 1.394 . S
C593 H609 0.931 . S
C594 C593 1.391 1_554 S
C594 C598 1.376 1_554 S
C595 C593 1.394 . S
C595 C596 1.369 . S
C595 C599 1.531 . S
C596 C595 1.369 . S
C596 C597 1.410 . S
C596 C604 1.503 . S
C597 C596 1.410 . S
C597 C598 1.392 . S
C597 C600 1.511 . S
C598 C594 1.376 1_556 S
C598 C597 1.392 . S
C598 H610 0.929 1_556 S
C599 C595 1.531 . S
C599 H611 0.960 . S
C599 H612 0.962 . S
C599 H613 0.960 . S
C600 C597 1.511 . S
C600 H614 0.961 . S
C600 H615 0.961 . S
C600 H616 0.961 . S
C601 C602 1.370 . S
C601 C603 1.363 . S
C601 H617 0.931 . S
C602 C601 1.370 . S
C602 C606 1.408 . S
C603 C601 1.363 . S
C603 C604 1.370 . S
C603 C607 1.524 . S
C604 C596 1.503 . S
C604 C603 1.370 . S
C604 C605 1.403 . S
C605 C604 1.403 . S
C605 C606 1.404 . S
C605 C608 1.539 . S
C606 C602 1.408 . S
C606 C605 1.404 . S
C606 H618 0.930 . S
C607 C603 1.524 . S
C607 H619 0.956 . S
C607 H620 0.961 . S
C607 H621 0.961 . S
C608 C605 1.539 . S
C608 H622 0.958 . S
C608 H623 0.961 . S
C608 H624 0.960 1_556 S
H609 C593 0.931 . S
H610 C598 0.929 1_554 S
H611 C599 0.960 . S
H612 C599 0.962 . S
H613 C599 0.960 . S
H614 C600 0.961 . S
H615 C600 0.961 . S
H616 C600 0.961 . S
H617 C601 0.931 . S
H618 C606 0.930 . S
H619 C607 0.956 . S
H620 C607 0.961 . S
H621 C607 0.961 . S
H622 C608 0.958 . S
H623 C608 0.961 . S
H624 C608 0.960 1_554 S
C625 C626 1.391 1_556 S
C625 C627 1.394 . S
C625 H641 0.931 . S
C626 C625 1.391 1_554 S
C626 C630 1.376 . S
C627 C625 1.394 . S
C627 C628 1.369 . S
C627 C631 1.531 . S
C628 C627 1.369 . S
C628 C629 1.410 1_556 S
C628 C636 1.503 . S
C629 C628 1.410 1_554 S
C629 C630 1.392 . S
C629 C632 1.511 . S
C630 C626 1.376 . S
C630 C629 1.392 . S
C630 H642 0.929 . S
C631 C627 1.531 . S
C631 H643 0.960 . S
C631 H644 0.962 . S
C631 H645 0.960 . S
C632 C629 1.511 . S
C632 H646 0.961 . S
C632 H647 0.961 . S
C632 H648 0.961 . S
C633 C634 1.370 . S
C633 C635 1.363 . S
C633 H649 0.931 . S
C634 C633 1.370 . S
C634 C638 1.408 . S
C635 C633 1.363 . S
C635 C636 1.370 . S
C635 C639 1.524 . S
C636 C628 1.503 . S
C636 C635 1.370 . S
C636 C637 1.403 . S
C637 C636 1.403 . S
C637 C638 1.404 . S
C637 C640 1.539 . S
C638 C634 1.408 . S
C638 C637 1.404 . S
C638 H650 0.930 . S
C639 C635 1.524 . S
C639 H651 0.956 . S
C639 H652 0.961 . S
C639 H653 0.961 . S
C640 C637 1.539 . S
C640 H654 0.958 . S
C640 H655 0.961 . S
C640 H656 0.960 . S
H641 C625 0.931 . S
H642 C630 0.929 . S
H643 C631 0.960 . S
H644 C631 0.962 . S
H645 C631 0.960 . S
H646 C632 0.961 . S
H647 C632 0.961 . S
H648 C632 0.961 . S
H649 C633 0.931 . S
H650 C638 0.930 . S
H651 C639 0.956 . S
H652 C639 0.961 . S
H653 C639 0.961 . S
H654 C640 0.958 . S
H655 C640 0.961 . S
H656 C640 0.960 . S
C657 C658 1.391 . S
C657 C659 1.394 1_554 S
C657 H673 0.931 . S
C658 C657 1.391 . S
C658 C662 1.376 . S
C659 C657 1.394 1_556 S
C659 C660 1.369 . S
C659 C663 1.531 . S
C660 C659 1.369 . S
C660 C661 1.410 . S
C660 C668 1.503 . S
C661 C660 1.410 . S
C661 C662 1.392 1_556 S
C661 C664 1.511 . S
C662 C658 1.376 . S
C662 C661 1.392 1_554 S
C662 H674 0.929 . S
C663 C659 1.531 . S
C663 H675 0.960 . S
C663 H676 0.962 . S
C663 H677 0.960 . S
C664 C661 1.511 . S
C664 H678 0.955 1_556 S
C664 H679 0.961 . S
C664 H680 0.961 . S
C665 C666 1.370 . S
C665 C667 1.363 . S
C665 H681 0.931 . S
C666 C665 1.370 . S
C666 C670 1.408 . S
C667 C665 1.363 . S
C667 C668 1.370 . S
C667 C671 1.524 1_556 S
C668 C660 1.503 . S
C668 C667 1.370 . S
C668 C669 1.403 . S
C669 C668 1.403 . S
C669 C670 1.404 . S
C669 C672 1.539 . S
C670 C666 1.408 . S
C670 C669 1.404 . S
C670 H682 0.930 . S
C671 C667 1.524 1_554 S
C671 H683 0.956 . S
C671 H684 0.961 . S
C671 H685 0.961 . S
C672 C669 1.539 . S
C672 H686 0.958 . S
C672 H687 0.961 . S
C672 H688 0.960 . S
H673 C657 0.931 . S
H674 C662 0.929 . S
H675 C663 0.960 . S
H676 C663 0.962 . S
H677 C663 0.960 . S
H678 C664 0.955 1_554 S
H679 C664 0.961 . S
H680 C664 0.961 . S
H681 C665 0.931 . S
H682 C670 0.930 . S
H683 C671 0.956 . S
H684 C671 0.961 . S
H685 C671 0.961 . S
H686 C672 0.958 . S
H687 C672 0.961 . S
H688 C672 0.960 . S
C689 C690 1.391 . S
C689 C691 1.394 . S
C689 H705 0.931 . S
C690 C689 1.391 . S
C690 C694 1.376 . S
C691 C689 1.394 . S
C691 C692 1.369 . S
C691 C695 1.531 . S
C692 C691 1.369 . S
C692 C693 1.410 . S
C692 C700 1.503 . S
C693 C692 1.410 . S
C693 C694 1.392 . S
C693 C696 1.511 . S
C694 C690 1.376 . S
C694 C693 1.392 . S
C694 H706 0.929 1_556 S
C695 C691 1.531 . S
C695 H707 0.960 . S
C695 H708 0.962 . S
C695 H709 0.960 . S
C696 C693 1.511 . S
C696 H710 0.961 1_556 S
C696 H711 0.961 . S
C696 H712 0.969 . S
C697 C698 1.370 . S
C697 C699 1.363 . S
C697 H713 0.931 . S
C698 C697 1.370 . S
C698 C702 1.408 . S
C699 C697 1.363 . S
C699 C700 1.370 . S
C699 C703 1.524 . S
C700 C692 1.503 . S
C700 C699 1.370 . S
C700 C701 1.403 . S
C701 C700 1.403 . S
C701 C702 1.404 . S
C701 C704 1.539 . S
C702 C698 1.408 . S
C702 C701 1.404 . S
C702 H714 0.930 . S
C703 C699 1.524 . S
C703 H715 0.956 . S
C703 H716 0.961 . S
C703 H717 0.961 . S
C704 C701 1.539 . S
C704 H718 0.958 . S
C704 H719 0.961 . S
C704 H720 0.960 . S
H705 C689 0.931 . S
H706 C694 0.929 1_554 S
H707 C695 0.960 . S
H708 C695 0.962 . S
H709 C695 0.960 . S
H710 C696 0.961 1_554 S
H711 C696 0.961 . S
H712 C696 0.969 . S
H713 C697 0.931 . S
H714 C702 0.930 . S
H715 C703 0.956 . S
H716 C703 0.961 . S
H717 C703 0.961 . S
H718 C704 0.958 . S
H719 C704 0.961 . S
H720 C704 0.960 . S
C721 C722 1.391 . S
C721 C723 1.394 . S
C721 H737 0.931 . S
C722 C721 1.391 . S
C722 C726 1.376 . S
C723 C721 1.394 . S
C723 C724 1.369 . S
C723 C727 1.531 . S
C724 C723 1.369 . S
C724 C725 1.410 . S
C724 C732 1.503 . S
C725 C724 1.410 . S
C725 C726 1.392 . S
C725 C728 1.511 . S
C726 C722 1.376 . S
C726 C725 1.392 . S
C726 H738 0.929 . S
C727 C723 1.531 . S
C727 H739 0.960 . S
C727 H740 0.962 . S
C727 H741 0.960 . S
C728 C725 1.511 . S
C728 H742 0.961 . S
C728 H743 0.961 . S
C728 H744 0.961 . S
C729 C730 1.370 . S
C729 C731 1.363 . S
C729 H745 0.931 . S
C730 C729 1.370 . S
C730 C734 1.408 . S
C731 C729 1.363 . S
C731 C732 1.370 . S
C731 C735 1.524 . S
C732 C724 1.503 . S
C732 C731 1.370 . S
C732 C733 1.403 . S
C733 C732 1.403 . S
C733 C734 1.404 . S
C733 C736 1.539 . S
C734 C730 1.408 . S
C734 C733 1.404 . S
C734 H746 0.930 . S
C735 C731 1.524 . S
C735 H747 0.956 . S
C735 H748 0.961 . S
C735 H749 0.961 . S
C736 C733 1.539 . S
C736 H750 0.958 . S
C736 H751 0.961 . S
C736 H752 0.960 . S
H737 C721 0.931 . S
H738 C726 0.929 . S
H739 C727 0.960 . S
H740 C727 0.962 . S
H741 C727 0.960 . S
H742 C728 0.961 . S
H743 C728 0.961 . S
H744 C728 0.961 . S
H745 C729 0.931 . S
H746 C734 0.930 . S
H747 C735 0.956 . S
H748 C735 0.961 . S
H749 C735 0.961 . S
H750 C736 0.958 . S
H751 C736 0.961 . S
H752 C736 0.960 . S
C753 C754 1.391 . S
C753 C755 1.394 . S
C753 H769 0.931 . S
C754 C753 1.391 . S
C754 C758 1.376 . S
C755 C753 1.394 . S
C755 C756 1.369 . S
C755 C759 1.531 . S
C756 C755 1.369 . S
C756 C757 1.410 . S
C756 C764 1.503 . S
C757 C756 1.410 . S
C757 C758 1.392 . S
C757 C760 1.511 . S
C758 C754 1.376 . S
C758 C757 1.392 . S
C758 H770 0.929 . S
C759 C755 1.531 . S
C759 H771 0.960 . S
C759 H772 0.962 . S
C759 H773 0.960 . S
C760 C757 1.511 . S
C760 H774 0.961 . S
C760 H775 0.961 . S
C760 H776 0.961 . S
C761 C762 1.370 . S
C761 C763 1.363 . S
C761 H777 0.931 . S
C762 C761 1.370 . S
C762 C766 1.408 . S
C763 C761 1.363 . S
C763 C764 1.370 . S
C763 C767 1.524 . S
C764 C756 1.503 . S
C764 C763 1.370 . S
C764 C765 1.403 . S
C765 C764 1.403 . S
C765 C766 1.404 . S
C765 C768 1.539 . S
C766 C762 1.408 . S
C766 C765 1.404 . S
C766 H778 0.930 . S
C767 C763 1.524 . S
C767 H779 0.956 . S
C767 H780 0.961 . S
C767 H781 0.961 . S
C768 C765 1.539 . S
C768 H782 0.958 . S
C768 H783 0.961 . S
C768 H784 0.960 . S
H769 C753 0.931 . S
H770 C758 0.929 . S
H771 C759 0.960 . S
H772 C759 0.962 . S
H773 C759 0.960 . S
H774 C760 0.961 . S
H775 C760 0.961 . S
H776 C760 0.961 . S
H777 C761 0.931 . S
H778 C766 0.930 . S
H779 C767 0.956 . S
H780 C767 0.961 . S
H781 C767 0.961 . S
H782 C768 0.958 . S
H783 C768 0.961 . S
H784 C768 0.960 . S
C785 C786 1.391 . S
C785 C787 1.394 . S
C785 H801 0.931 . S
C786 C785 1.391 . S
C786 C790 1.376 . S
C787 C785 1.394 . S
C787 C788 1.369 . S
C787 C791 1.531 . S
C788 C787 1.369 . S
C788 C789 1.410 . S
C788 C796 1.503 . S
C789 C788 1.410 . S
C789 C790 1.392 . S
C789 C792 1.511 . S
C790 C786 1.376 . S
C790 C789 1.392 . S
C790 H802 0.929 . S
C791 C787 1.531 . S
C791 H803 0.960 . S
C791 H804 0.962 . S
C791 H805 0.960 . S
C792 C789 1.511 . S
C792 H806 0.961 . S
C792 H807 0.961 . S
C792 H808 0.961 . S
C793 C794 1.370 . S
C793 C795 1.363 . S
C793 H809 0.931 . S
C794 C793 1.370 . S
C794 C798 1.408 . S
C795 C793 1.363 . S
C795 C796 1.370 . S
C795 C799 1.524 . S
C796 C788 1.503 . S
C796 C795 1.370 . S
C796 C797 1.403 . S
C797 C796 1.403 . S
C797 C798 1.404 . S
C797 C800 1.539 . S
C798 C794 1.408 . S
C798 C797 1.404 . S
C798 H810 0.930 . S
C799 C795 1.524 . S
C799 H811 0.956 . S
C799 H812 0.961 . S
C799 H813 0.961 . S
C800 C797 1.539 . S
C800 H814 0.958 . S
C800 H815 0.961 . S
C800 H816 0.960 . S
H801 C785 0.931 . S
H802 C790 0.929 . S
H803 C791 0.960 . S
H804 C791 0.962 . S
H805 C791 0.960 . S
H806 C792 0.961 . S
H807 C792 0.961 . S
H808 C792 0.961 . S
H809 C793 0.931 . S
H810 C798 0.930 . S
H811 C799 0.956 . S
H812 C799 0.961 . S
H813 C799 0.961 . S
H814 C800 0.958 . S
H815 C800 0.961 . S
H816 C800 0.960 . S
C817 C818 1.391 . S
C817 C819 1.394 . S
C817 H833 0.931 . S
C818 C817 1.391 . S
C818 C822 1.376 . S
C819 C817 1.394 . S
C819 C820 1.369 . S
C819 C823 1.531 . S
C820 C819 1.369 . S
C820 C821 1.410 . S
C820 C828 1.503 . S
C821 C820 1.410 . S
C821 C822 1.392 . S
C821 C824 1.511 . S
C822 C818 1.376 . S
C822 C821 1.392 . S
C822 H834 0.929 . S
C823 C819 1.531 . S
C823 H835 0.960 . S
C823 H836 0.962 . S
C823 H837 0.960 . S
C824 C821 1.511 . S
C824 H838 0.961 . S
C824 H839 0.961 . S
C824 H840 0.961 . S
C825 C826 1.370 . S
C825 C827 1.363 . S
C825 H841 0.931 . S
C826 C825 1.370 . S
C826 C830 1.408 . S
C827 C825 1.363 . S
C827 C828 1.370 . S
C827 C831 1.524 . S
C828 C820 1.503 . S
C828 C827 1.370 . S
C828 C829 1.403 . S
C829 C828 1.403 . S
C829 C830 1.404 . S
C829 C832 1.539 . S
C830 C826 1.408 . S
C830 C829 1.404 . S
C830 H842 0.930 . S
C831 C827 1.524 . S
C831 H843 0.956 . S
C831 H844 0.961 . S
C831 H845 0.961 . S
C832 C829 1.539 . S
C832 H846 0.958 . S
C832 H847 0.961 . S
C832 H848 0.960 . S
H833 C817 0.931 . S
H834 C822 0.929 . S
H835 C823 0.960 . S
H836 C823 0.962 . S
H837 C823 0.960 . S
H838 C824 0.961 . S
H839 C824 0.961 . S
H840 C824 0.961 . S
H841 C825 0.931 . S
H842 C830 0.930 . S
H843 C831 0.956 . S
H844 C831 0.961 . S
H845 C831 0.961 . S
H846 C832 0.958 . S
H847 C832 0.961 . S
H848 C832 0.960 . S
C849 C850 1.391 . S
C849 C851 1.394 . S
C849 H865 0.931 . S
C850 C849 1.391 . S
C850 C854 1.376 . S
C851 C849 1.394 . S
C851 C852 1.369 . S
C851 C855 1.531 . S
C852 C851 1.369 . S
C852 C853 1.410 . S
C852 C860 1.503 . S
C853 C852 1.410 . S
C853 C854 1.392 . S
C853 C856 1.511 . S
C854 C850 1.376 . S
C854 C853 1.392 . S
C854 H866 0.929 . S
C855 C851 1.531 . S
C855 H867 0.960 . S
C855 H868 0.962 . S
C855 H869 0.960 . S
C856 C853 1.511 . S
C856 H870 0.961 . S
C856 H871 0.961 . S
C856 H872 0.961 . S
C857 C858 1.370 . S
C857 C859 1.363 . S
C857 H873 0.931 . S
C858 C857 1.370 . S
C858 C862 1.408 . S
C859 C857 1.363 . S
C859 C860 1.370 . S
C859 C863 1.524 . S
C860 C852 1.503 . S
C860 C859 1.370 . S
C860 C861 1.403 . S
C861 C860 1.403 . S
C861 C862 1.404 . S
C861 C864 1.539 . S
C862 C858 1.408 . S
C862 C861 1.404 . S
C862 H874 0.930 . S
C863 C859 1.524 . S
C863 H875 0.956 . S
C863 H876 0.961 . S
C863 H877 0.961 . S
C864 C861 1.539 . S
C864 H878 0.958 . S
C864 H879 0.961 . S
C864 H880 0.960 . S
H865 C849 0.931 . S
H866 C854 0.929 . S
H867 C855 0.960 . S
H868 C855 0.962 . S
H869 C855 0.960 . S
H870 C856 0.961 . S
H871 C856 0.961 . S
H872 C856 0.961 . S
H873 C857 0.931 . S
H874 C862 0.930 . S
H875 C863 0.956 . S
H876 C863 0.961 . S
H877 C863 0.961 . S
H878 C864 0.958 . S
H879 C864 0.961 . S
H880 C864 0.960 . S
C881 C882 1.391 . S
C881 C883 1.394 . S
C881 H897 0.931 . S
C882 C881 1.391 . S
C882 C886 1.376 . S
C883 C881 1.394 . S
C883 C884 1.369 . S
C883 C887 1.531 . S
C884 C883 1.369 . S
C884 C885 1.410 . S
C884 C892 1.503 . S
C885 C884 1.410 . S
C885 C886 1.392 . S
C885 C888 1.511 . S
C886 C882 1.376 . S
C886 C885 1.392 . S
C886 H898 0.929 . S
C887 C883 1.531 . S
C887 H899 0.960 . S
C887 H900 0.962 . S
C887 H901 0.960 . S
C888 C885 1.511 . S
C888 H902 0.961 . S
C888 H903 0.961 . S
C888 H904 0.961 . S
C889 C890 1.370 . S
C889 C891 1.363 . S
C889 H905 0.931 . S
C890 C889 1.370 . S
C890 C894 1.408 . S
C891 C889 1.363 . S
C891 C892 1.370 . S
C891 C895 1.524 . S
C892 C884 1.503 . S
C892 C891 1.370 . S
C892 C893 1.403 . S
C893 C892 1.403 . S
C893 C894 1.404 . S
C893 C896 1.539 . S
C894 C890 1.408 . S
C894 C893 1.404 . S
C894 H906 0.930 . S
C895 C891 1.524 . S
C895 H907 0.956 . S
C895 H908 0.961 . S
C895 H909 0.961 . S
C896 C893 1.539 . S
C896 H910 0.958 . S
C896 H911 0.961 . S
C896 H912 0.960 . S
H897 C881 0.931 . S
H898 C886 0.929 . S
H899 C887 0.960 . S
H900 C887 0.962 . S
H901 C887 0.960 . S
H902 C888 0.961 . S
H903 C888 0.961 . S
H904 C888 0.961 . S
H905 C889 0.931 . S
H906 C894 0.930 . S
H907 C895 0.956 . S
H908 C895 0.961 . S
H909 C895 0.961 . S
H910 C896 0.958 . S
H911 C896 0.961 . S
H912 C896 0.960 . S
C913 C914 1.391 . S
C913 C915 1.394 . S
C913 H929 0.931 . S
C914 C913 1.391 . S
C914 C918 1.376 . S
C915 C913 1.394 . S
C915 C916 1.369 . S
C915 C919 1.531 . S
C916 C915 1.369 . S
C916 C917 1.410 . S
C916 C924 1.503 . S
C917 C916 1.410 . S
C917 C918 1.392 . S
C917 C920 1.511 . S
C918 C914 1.376 . S
C918 C917 1.392 . S
C918 H930 0.929 . S
C919 C915 1.531 . S
C919 H931 0.960 . S
C919 H932 0.962 . S
C919 H933 0.960 . S
C920 C917 1.511 . S
C920 H934 0.961 . S
C920 H935 0.961 . S
C920 H936 0.961 . S
C921 C922 1.370 . S
C921 C923 1.363 . S
C921 H937 0.931 . S
C922 C921 1.370 . S
C922 C926 1.408 . S
C923 C921 1.363 . S
C923 C924 1.370 . S
C923 C927 1.524 . S
C924 C916 1.503 . S
C924 C923 1.370 . S
C924 C925 1.403 . S
C925 C924 1.403 . S
C925 C926 1.404 . S
C925 C928 1.539 . S
C926 C922 1.408 . S
C926 C925 1.404 . S
C926 H938 0.930 . S
C927 C923 1.524 . S
C927 H939 0.956 . S
C927 H940 0.961 . S
C927 H941 0.961 . S
C928 C925 1.539 . S
C928 H942 0.958 . S
C928 H943 0.961 . S
C928 H944 0.960 . S
H929 C913 0.931 . S
H930 C918 0.929 . S
H931 C919 0.960 . S
H932 C919 0.962 . S
H933 C919 0.960 . S
H934 C920 0.961 . S
H935 C920 0.961 . S
H936 C920 0.961 . S
H937 C921 0.931 . S
H938 C926 0.930 . S
H939 C927 0.956 . S
H940 C927 0.961 . S
H941 C927 0.961 . S
H942 C928 0.958 . S
H943 C928 0.961 . S
H944 C928 0.960 . S
C178 C1 1.668 . S
C186 C84 1.618 . S
C210 C27 1.468 . S
C218 C116 1.455 . S
C250 C175 1.792 . S
C242 C40 1.817 . S
C282 C104 1.356 . S
C274 C55 1.388 . S
C306 C68 1.609 . S
C314 C134 1.525 . S
C346 C156 1.158 . S
C338 C70 1.196 . S
C378 C125 1.580 . S
C370 C41 1.620 . S
C402 C54 1.270 . S
C410 C165 1.182 . S
C442 C114 1.529 . S
C434 C69 1.540 1_556 S
C466 C71 1.437 . S
C474 C144 1.432 . S
C498 C0 1.738 . S
C506 C147 1.723 . S
C538 C86 1.500 . S
C530 C26 1.538 1_556 S
C570 C94 1.550 . S
C562 C42 1.617 . S
C602 C135 1.432 . S
C594 C57 1.470 . S
C634 C148 1.802 . S
C626 C83 1.855 . S
C666 C85 1.399 . S
C658 C12 1.415 . S
C698 C145 1.493 . S
C690 C14 1.550 1_556 S
C722 C29 1.226 . S
C730 C146 1.180 . S
C762 C115 1.536 . S
C754 C82 1.618 . S
C794 C176 1.187 . S
C786 C13 1.192 . S
C826 C103 1.489 . S
C818 C15 1.584 . S
C858 C117 1.470 . S
C850 C28 1.492 . S
C882 C43 1.754 . S
C890 C166 1.735 . S
C914 C56 1.543 . S
C922 C113 1.531 . S
