# Generated by pormake.
# Topology pth, (4,4)-cn, num edge types: 1
# Building blocks:
#     Node 0, Type 0, BuildingBlock: NAHDIM_clean_sbu_0, # of connection points: 4
#     Node 1, Type 0, BuildingBlock: NAHDIM_clean_sbu_0, # of connection points: 4
#     Node 2, Type 0, BuildingBlock: NAHDIM_clean_sbu_0, # of connection points: 4
#     Node 3, Type 1, BuildingBlock: MUDLON_clean_sbu_0, # of connection points: 4
#     Node 4, Type 1, BuildingBlock: MUDLON_clean_sbu_0, # of connection points: 4
#     Node 5, Type 1, BuildingBlock: MUDLON_clean_sbu_0, # of connection points: 4
#     Edge 6, Type (0, 1), BuildingBlock: KIFKEQ_clean_linker_1, # of connection points: 2
#     Edge 7, Type (0, 1), BuildingBlock: KIFKEQ_clean_linker_1, # of connection points: 2
#     Edge 8, Type (0, 1), BuildingBlock: KIFKEQ_clean_linker_1, # of connection points: 2
#     Edge 9, Type (0, 1), BuildingBlock: KIFKEQ_clean_linker_1, # of connection points: 2
#     Edge 10, Type (0, 1), BuildingBlock: KIFKEQ_clean_linker_1, # of connection points: 2
#     Edge 11, Type (0, 1), BuildingBlock: KIFKEQ_clean_linker_1, # of connection points: 2
#     Edge 12, Type (0, 1), BuildingBlock: KIFKEQ_clean_linker_1, # of connection points: 2
#     Edge 13, Type (0, 1), BuildingBlock: KIFKEQ_clean_linker_1, # of connection points: 2
#     Edge 14, Type (0, 1), BuildingBlock: KIFKEQ_clean_linker_1, # of connection points: 2
#     Edge 15, Type (0, 1), BuildingBlock: KIFKEQ_clean_linker_1, # of connection points: 2
#     Edge 16, Type (0, 1), BuildingBlock: KIFKEQ_clean_linker_1, # of connection points: 2
#     Edge 17, Type (0, 1), BuildingBlock: KIFKEQ_clean_linker_1, # of connection points: 2
# Relax obj value: 0.076
# Max RMSD: 0.190
# Mean RMSD: 0.122
data_MOF--net-pth--node1-NAHDIM_clean_sbu_0--node2-MUDLON_clean_sbu_0--edge1-KIFKEQ_clean_linker_1
_symmetry_space_group_name_H-M    P1
_symmetry_Int_Tables_number       1
_symmetry_cell_setting            triclinic
loop_
_symmetry_equiv_pos_as_xyz
'x, y, z'
_cell_length_a     23.065725
_cell_length_b     23.083203
_cell_length_c     59.995754
_cell_angle_alpha  91.955019
_cell_angle_beta   90.049337
_cell_angle_gamma 120.78092
loop_
_atom_site_label
_atom_site_type_symbol
_atom_site_fract_x
_atom_site_fract_y
_atom_site_fract_z
_atom_type_partial_charge
C0 C 0.1294 0.04997 0.12949 0.0
O1 O 0.13349 0.1026 0.14017 0.0
O2 O 0.06465 0.15297 0.11126 0.0
Zn3 Zn 0.0878 0.09643 0.0909 0.0
O4 O 1.00671 0.03301 0.0715 0.0
C5 C 0.17432 0.14251 0.05203 0.0
O6 O 0.12928 0.08349 0.04306 0.0
O7 O 0.11232 0.0391 0.10891 0.0
C8 C 0.97916 0.05077 0.05701 0.0
O9 O 1.0038 0.11528 0.05398 0.0
C10 C 0.01471 0.12656 0.12422 0.0
O11 O 0.9767 0.06049 0.12432 0.0
O12 O 0.16677 0.15806 0.07193 0.0
C13 C 0.12422 0.24082 0.40065 0.0
O14 O 0.14666 0.2565 0.4214 0.0
O15 O 0.04051 0.01879 0.39694 0.0
Zn16 Zn 0.06109 0.10251 0.41524 0.0
O17 O 0.97897 0.08698 0.43202 0.0
C18 C 0.19416 0.13902 0.43169 0.0
O19 O 0.20662 0.1396 0.41031 0.0
O20 O 0.08792 0.17898 0.39444 0.0
C21 C 0.93839 0.03189 0.44108 0.0
O22 O 0.9488 0.98106 0.43924 0.0
C23 C 0.99145 0.99172 0.38292 0.0
O24 O 0.95323 0.01824 0.38077 0.0
O25 O 0.13575 0.12525 0.43766 0.0
C26 C 0.10397 0.01126 0.71948 0.0
O27 O 0.03879 0.97309 0.71536 0.0
O28 O 1.004 0.09048 0.72814 0.0
Zn29 Zn 0.05931 0.0763 0.75121 0.0
O30 O 0.11368 0.15971 0.77159 0.0
C31 C 0.94175 0.97999 0.77577 0.0
O32 O 0.91859 0.01946 0.77071 0.0
O33 O 0.12482 0.05861 0.73437 0.0
C34 C 0.08989 0.17532 0.78835 0.0
O35 O 0.02594 0.13641 0.79303 0.0
C36 C 0.97815 0.12758 0.73015 0.0
O37 O 0.98573 0.16133 0.74906 0.0
O38 O 0.99976 0.99407 0.76918 0.0
Mg39 Mg 0.06438 0.58911 0.25578 0.0
C40 C 0.12703 0.57517 0.298 0.0
O41 O 0.09944 0.60856 0.30633 0.0
C42 C 0.09645 0.66927 0.21504 0.0
O43 O 0.04671 0.60989 0.20798 0.0
C44 C 0.99893 0.44314 0.23925 0.0
O45 O 0.01498 0.4367 0.25966 0.0
O46 O 0.00826 0.49999 0.23376 0.0
O47 O 0.12591 0.56578 0.27695 0.0
O48 O 1.00456 0.61409 0.27773 0.0
C49 C 0.98755 0.65584 0.27186 0.0
O50 O 0.99765 0.67557 0.25122 0.0
O51 O 0.11935 0.6759 0.23486 0.0
Mg52 Mg 0.54011 0.06277 0.58271 0.0
C53 C 0.46722 0.08118 0.54794 0.0
O54 O 0.44892 0.01706 0.54758 0.0
C55 C 0.64808 0.07247 0.60959 0.0
O56 O 0.6142 0.01095 0.60064 0.0
C57 C 0.45814 1.00648 0.62406 0.0
O58 O 0.519 0.03903 0.63313 0.0
O59 O 0.45182 1.00237 0.60289 0.0
O60 O 0.50962 0.12069 0.56289 0.0
O61 O 0.56879 0.01129 0.55769 0.0
C62 C 0.60257 0.04975 0.54208 0.0
O63 O 0.61334 0.11142 0.54239 0.0
O64 O 0.62889 0.11359 0.60491 0.0
Mg65 Mg 0.5601 0.58954 0.91636 0.0
C66 C 0.4144 0.52066 0.90067 0.0
O67 O 0.40549 0.49912 0.92106 0.0
C68 C 0.65593 0.68517 0.94809 0.0
O69 O 0.67165 0.63887 0.94342 0.0
C70 C 0.50622 0.51253 0.95689 0.0
O71 O 0.50928 0.57009 0.96148 0.0
O72 O 0.52783 0.50462 0.93817 0.0
O73 O 0.47342 0.56511 0.89496 0.0
O74 O 0.64384 0.61411 0.89434 0.0
C75 C 0.63578 0.60632 0.87325 0.0
O76 O 0.57435 0.56999 0.86473 0.0
O77 O 0.60417 0.67975 0.93836 0.0
H78 H 0.07742 0.26419 0.12608 0.0
H79 H 0.92311 0.08679 0.15776 0.0
H80 H 0.06119 0.33564 0.15306 0.0
H81 H 0.90652 0.15857 0.18469 0.0
H82 H 0.97868 0.31709 0.24494 0.0
H83 H 0.97311 0.23735 0.21609 0.0
H84 H 0.97945 0.36845 0.16529 0.0
H85 H 0.98569 0.44868 0.19412 0.0
C86 C 0.03959 0.24038 0.13867 0.0
C87 C 1.00184 0.16975 0.13982 0.0
C88 C 0.0299 0.28137 0.15405 0.0
C89 C 0.98248 0.25279 0.17102 0.0
C90 C 0.9438 0.18212 0.17192 0.0
C91 C 0.95317 0.14103 0.15643 0.0
C92 C 0.97765 0.32842 0.22762 0.0
C93 C 0.98335 0.38964 0.22187 0.0
C94 C 0.97422 0.28253 0.21107 0.0
C95 C 0.97666 0.29696 0.1884 0.0
C96 C 0.97859 0.35643 0.18262 0.0
C97 C 0.98166 0.40216 0.19916 0.0
H98 H 0.90985 0.13077 0.45067 0.0
H99 H 0.83877 0.92088 0.46155 0.0
H100 H 0.82019 0.12434 0.47345 0.0
H101 H 0.74708 0.91384 0.48402 0.0
H102 H 0.65238 0.96501 0.54582 0.0
H103 H 0.72789 0.95326 0.51979 0.0
H104 H 0.70161 0.07814 0.4736 0.0
H105 H 0.62889 0.09178 0.49989 0.0
C106 C 0.87456 0.08292 0.45772 0.0
C107 C 0.88158 0.02636 0.45426 0.0
C108 C 0.82262 0.07903 0.47068 0.0
C109 C 0.77581 0.01832 0.48044 0.0
C110 C 0.78247 0.96147 0.47688 0.0
C111 C 0.83483 0.96545 0.46392 0.0
C112 C 0.66174 0.98856 0.52987 0.0
C113 C 0.63563 0.02995 0.52494 0.0
C114 C 0.70497 0.98192 0.51495 0.0
C115 C 0.72206 0.01603 0.49479 0.0
C116 C 0.69128 0.05289 0.48924 0.0
C117 C 0.64912 0.06026 0.50422 0.0
H118 H 0.84469 0.96258 0.80507 0.0
H119 H 0.94857 0.86522 0.77816 0.0
H120 H 0.77912 0.86677 0.82871 0.0
H121 H 0.88095 0.76817 0.8015 0.0
H122 H 0.64333 0.59682 0.82783 0.0
H123 H 0.72452 0.68467 0.80376 0.0
H124 H 0.83312 0.80857 0.86185 0.0
H125 H 0.75371 0.72075 0.88599 0.0
C126 C 0.85322 0.92057 0.8041 0.0
C127 C 0.90174 0.92137 0.78977 0.0
C128 C 0.81594 0.86604 0.81768 0.0
C129 C 0.8254 0.81063 0.81685 0.0
C130 C 0.87312 0.81063 0.80237 0.0
C131 C 0.91167 0.86604 0.78912 0.0
C132 C 0.68563 0.64194 0.83547 0.0
C133 C 0.69181 0.65187 0.85882 0.0
C134 C 0.73193 0.69202 0.8217 0.0
C135 C 0.78445 0.75309 0.83108 0.0
C136 C 0.79289 0.76168 0.85433 0.0
C137 C 0.7475 0.71122 0.86809 0.0
H138 H 0.14257 0.94671 0.11179 0.0
H139 H 0.13852 0.0416 0.17461 0.0
H140 H 0.14915 0.85995 0.13166 0.0
H141 H 0.14258 0.95346 0.19451 0.0
H142 H 0.05425 0.6694 0.17271 0.0
H143 H 0.07304 0.7654 0.15192 0.0
H144 H 0.20443 0.90058 0.20498 0.0
H145 H 0.18356 0.80349 0.2263 0.0
C146 C 0.14329 0.94917 0.12986 0.0
C147 C 0.13932 1.0007 0.14161 0.0
C148 C 0.14677 0.89922 0.14127 0.0
C149 C 0.14561 0.89907 0.16473 0.0
C150 C 0.14434 0.95222 0.17648 0.0
C151 C 0.14151 1.0026 0.16505 0.0
C152 C 0.08788 0.71953 0.1799 0.0
C153 C 0.11696 0.72865 0.20128 0.0
C154 C 0.0991 0.77486 0.16784 0.0
C155 C 0.1401 0.84101 0.17675 0.0
C156 C 0.17173 0.85033 0.19775 0.0
C157 C 0.16027 0.79471 0.20989 0.0
H158 H 0.31541 0.14785 0.42459 0.0
H159 H 0.18869 0.15066 0.47713 0.0
H160 H 0.39302 0.14891 0.45248 0.0
H161 H 0.26654 0.15166 0.50499 0.0
H162 H 0.44508 0.18776 0.55009 0.0
H163 H 0.38814 0.21648 0.52152 0.0
H164 H 0.37258 0.05608 0.47795 0.0
H165 H 0.42812 0.02736 0.50621 0.0
C166 C 0.30459 0.14973 0.44207 0.0
C167 C 0.24533 0.14816 0.44862 0.0
C168 C 0.34905 0.1503 0.45804 0.0
C169 C 0.33558 0.14994 0.4809 0.0
C170 C 0.27848 0.15245 0.4875 0.0
C171 C 0.23363 0.15128 0.47152 0.0
C172 C 0.43028 0.15956 0.53425 0.0
C173 C 0.44045 0.10507 0.5304 0.0
C174 C 0.39754 0.17571 0.518 0.0
C175 C 0.37609 0.13856 0.49751 0.0
C176 C 0.38916 0.08613 0.49343 0.0
C177 C 0.42051 0.06934 0.50972 0.0
H178 H 0.05348 0.22802 0.82339 0.0
H179 H 0.22717 0.25752 0.78676 0.0
H180 H 0.12717 0.32128 0.84916 0.0
H181 H 0.30099 0.34944 0.81289 0.0
H182 H 0.42064 0.53779 0.85549 0.0
H183 H 0.33866 0.46226 0.82698 0.0
H184 H 0.20558 0.34024 0.87851 0.0
H185 H 0.28629 0.41643 0.90687 0.0
C186 C 0.10739 0.25451 0.82079 0.0
C187 C 0.13444 0.23489 0.80311 0.0
C188 C 0.1497 0.30789 0.83563 0.0
C189 C 0.22016 0.34278 0.83323 0.0
C190 C 0.24698 0.32444 0.81511 0.0
C191 C 0.20463 0.27128 0.8002 0.0
C192 C 0.37321 0.4957 0.86073 0.0
C193 C 0.36035 0.48289 0.88349 0.0
C194 C 0.32646 0.45199 0.84437 0.0
C195 C 0.26582 0.39453 0.8504 0.0
C196 C 0.25139 0.38416 0.87319 0.0
C197 C 0.29797 0.42785 0.88951 0.0
H198 H 0.89296 0.17777 0.73098 0.0
H199 H 0.97213 0.0839 0.68698 0.0
H200 H 0.81918 0.17269 0.70074 0.0
H201 H 0.90051 0.08097 0.65671 0.0
H202 H 0.6988 0.99389 0.62038 0.0
H203 H 0.78287 0.01509 0.64857 0.0
H204 H 0.80882 0.21125 0.66419 0.0
H205 H 0.7219 0.18889 0.63595 0.0
C206 C 0.89534 0.15697 0.71478 0.0
C207 C 0.93763 0.13026 0.71147 0.0
C208 C 0.85338 0.1545 0.6974 0.0
C209 C 0.85324 0.12567 0.67634 0.0
C210 C 0.89808 0.10207 0.67284 0.0
C211 C 0.93938 0.10393 0.6902 0.0
C212 C 0.72247 0.04187 0.62966 0.0
C213 C 0.70342 0.08967 0.6259 0.0
C214 C 0.77135 0.05428 0.64578 0.0
C215 C 0.80317 0.11511 0.65859 0.0
C216 C 0.78494 0.16365 0.6547 0.0
C217 C 0.73555 0.15109 0.63845 0.0
H218 H 0.92087 0.0687 0.01994 0.0
H219 H 0.91021 0.91468 0.06166 0.0
H220 H 0.83644 0.98102 0.99435 0.0
H221 H 0.82548 0.82779 0.03645 0.0
H222 H 0.76325 0.70105 0.97189 0.0
H223 H 0.83419 0.78993 0.99888 0.0
H224 H 0.71621 0.88445 0.98931 0.0
H225 H 0.64442 0.79452 0.96164 0.0
C226 C 0.89987 0.01627 0.02383 0.0
C227 C 0.92306 0.99867 0.04266 0.0
C228 C 0.85125 0.96611 1.00923 0.0
C229 C 0.82498 0.89749 0.01322 0.0
C230 C 0.84576 0.8802 0.03266 0.0
C231 C 0.89427 0.93008 0.04715 0.0
C232 C 0.75192 0.74048 0.97547 0.0
C233 C 0.69789 0.74046 0.96461 0.0
C234 C 0.79251 0.79135 0.99113 0.0
C235 C 0.7804 0.84386 0.99646 0.0
C236 C 0.72679 0.84461 0.9855 0.0
C237 C 0.68561 0.7931 0.96976 0.0
H238 H 0.8957 0.92652 0.34972 0.0
H239 H 0.06121 0.92511 0.38298 0.0
H240 H 0.88164 0.83558 0.32411 0.0
H241 H 0.04779 0.83509 0.35719 0.0
H242 H 0.98341 0.64344 0.3172 0.0
H243 H 0.97388 0.71671 0.34538 0.0
H244 H 0.94547 0.82534 0.29339 0.0
H245 H 0.95387 0.75162 0.26526 0.0
C246 C 0.92884 0.90659 0.35167 0.0
C247 C 0.97991 0.93346 0.36832 0.0
C248 C 0.9209 0.85461 0.33693 0.0
C249 C 0.96367 0.82813 0.33854 0.0
C250 C 0.01338 0.85365 0.35564 0.0
C251 C 0.02143 0.90569 0.37034 0.0
C252 C 0.97376 0.68207 0.31178 0.0
C253 C 0.97003 0.69203 0.28894 0.0
C254 C 0.96885 0.72442 0.32794 0.0
C255 C 0.95979 0.77745 0.32165 0.0
C256 C 0.95203 0.78478 0.29885 0.0
C257 C 0.95713 0.74259 0.28269 0.0
H258 H 0.24157 0.08161 0.72367 0.0
H259 H 0.07672 0.91758 0.68559 0.0
H260 H 0.32191 0.06836 0.70113 0.0
H261 H 0.15742 0.90347 0.66323 0.0
H262 H 0.32965 0.97106 0.61107 0.0
H263 H 0.24077 0.96379 0.63494 0.0
H264 H 0.36454 0.9937 0.69324 0.0
H265 H 0.45381 1.0024 0.66941 0.0
C266 C 0.2224 0.04225 0.71063 0.0
C267 C 0.15267 1.00084 0.70641 0.0
C268 C 0.26852 0.03426 0.69779 0.0
C269 C 0.24616 0.98462 0.6804 0.0
C270 C 0.17636 0.94255 0.67636 0.0
C271 C 0.13012 0.9505 0.68925 0.0
C272 C 0.33734 0.97466 0.62899 0.0
C273 C 0.3992 0.98817 0.63832 0.0
C274 C 0.2863 0.97042 0.6427 0.0
C275 C 0.29598 0.97935 0.66601 0.0
C276 C 0.35607 0.98822 0.67534 0.0
C277 C 0.40707 0.99268 0.66166 0.0
H278 H 0.19023 0.13885 1.0069 0.0
H279 H 0.28768 0.25795 0.06714 0.0
H280 H 0.27891 0.22545 0.98478 0.0
H281 H 0.37773 0.34326 0.04517 0.0
H282 H 0.46102 0.51898 0.9981 0.0
H283 H 0.3879 0.42678 0.02129 0.0
H284 H 0.39498 0.28527 0.97392 0.0
H285 H 0.46716 0.37855 0.95007 0.0
C286 C 0.2312 0.18302 0.01546 0.0
C287 C 0.23139 0.19197 0.03876 0.0
C288 C 0.28243 0.23251 1.00277 0.0
C289 C 0.33535 0.29183 0.01312 0.0
C290 C 0.33705 0.29903 0.03655 0.0
C291 C 0.28551 0.24996 0.04919 0.0
C292 C 0.44774 0.46836 0.99265 0.0
C293 C 0.46959 0.45617 0.97211 0.0
C294 C 0.40604 0.41526 1.00612 0.0
C295 C 0.38522 0.34828 0.99954 0.0
C296 C 0.40927 0.33615 0.97938 0.0
C297 C 0.45111 0.3896 0.96579 0.0
H298 H 0.08232 0.22535 0.35705 0.0
H299 H 0.19619 0.37776 0.40873 0.0
H300 H 0.09657 0.31264 0.3322 0.0
H301 H 0.21158 0.46538 0.38364 0.0
H302 H 0.13007 0.57968 0.34356 0.0
H303 H 0.14017 0.50305 0.36792 0.0
H304 H 0.17632 0.40751 0.31082 0.0
H305 H 0.16482 0.48344 0.28633 0.0
C306 C 0.11115 0.27756 0.36304 0.0
C307 C 0.1376 0.29445 0.38497 0.0
C308 C 0.11981 0.32775 0.34869 0.0
C309 C 0.15517 0.39613 0.35591 0.0
C310 C 0.18338 0.41317 0.37764 0.0
C311 C 0.17475 0.36292 0.39199 0.0
C312 C 0.14137 0.54317 0.3362 0.0
C313 C 0.14591 0.53731 0.31295 0.0
C314 C 0.14747 0.49932 0.35021 0.0
C315 C 0.15827 0.44853 0.34132 0.0
C316 C 0.16678 0.44527 0.31818 0.0
C317 C 0.16076 0.48922 0.30415 0.0
loop_
_geom_bond_atom_site_label_1
_geom_bond_atom_site_label_2
_geom_bond_distance
_geom_bond_site_symmetry_2
_ccdc_geom_bond_type
C0 O1 1.160 . S
C0 O7 1.185 1_565 S
O1 C0 1.160 . S
O2 Zn3 1.899 . S
O2 C10 1.284 . S
Zn3 O2 1.899 . S
Zn3 O4 2.034 1_455 S
Zn3 O7 2.086 . S
Zn3 O12 1.977 . S
O4 Zn3 2.034 1_655 S
O4 C8 1.280 . S
C5 O6 1.203 . S
C5 O12 1.267 . S
O6 C5 1.203 . S
O7 C0 1.185 1_545 S
O7 Zn3 2.086 . S
C8 O4 1.280 . S
C8 O9 1.211 . S
O9 C8 1.211 . S
C10 O2 1.284 . S
C10 O11 1.273 1_455 S
O11 C10 1.273 1_655 S
O12 Zn3 1.977 . S
O12 C5 1.267 . S
C13 O14 1.160 . S
C13 O20 1.185 . S
O14 C13 1.160 . S
O15 Zn16 1.899 . S
O15 C23 1.284 1_545 S
Zn16 O15 1.899 . S
Zn16 O17 2.032 . S
Zn16 O20 2.086 . S
Zn16 O25 1.977 . S
O17 Zn16 2.032 . S
O17 C21 1.278 1_455 S
C18 O19 1.203 . S
C18 O25 1.267 . S
O19 C18 1.203 . S
O20 C13 1.185 . S
O20 Zn16 2.086 . S
C21 O17 1.278 1_655 S
C21 O22 1.211 1_655 S
O22 C21 1.211 1_455 S
C23 O15 1.284 1_565 S
C23 O24 1.273 . S
O24 C23 1.273 . S
O25 Zn16 1.977 . S
O25 C18 1.267 . S
C26 O27 1.160 . S
C26 O33 1.185 1_545 S
O27 C26 1.160 . S
O28 Zn29 1.899 1_655 S
O28 C36 1.284 . S
Zn29 O28 1.899 1_455 S
Zn29 O30 2.032 . S
Zn29 O33 2.086 1_545 S
Zn29 O38 1.977 1_445 S
O30 Zn29 2.032 . S
O30 C34 1.278 . S
C31 O32 1.203 . S
C31 O38 1.267 . S
O32 C31 1.203 . S
O33 C26 1.185 1_565 S
O33 Zn29 2.086 1_565 S
C34 O30 1.278 . S
C34 O35 1.211 . S
O35 C34 1.211 . S
C36 O28 1.284 . S
C36 O37 1.273 . S
O37 C36 1.273 . S
O38 Zn29 1.977 1_665 S
O38 C31 1.267 . S
Mg39 O46 2.141 . S
Mg39 O47 2.048 . S
Mg39 O48 2.048 . S
Mg39 O51 2.141 . S
C40 O41 1.313 1_455 S
C40 O47 1.195 . S
O41 C40 1.313 1_655 S
C42 O43 1.245 1_455 S
C42 O51 1.289 . S
O43 C42 1.245 1_655 S
C44 O45 1.245 1_455 S
C44 O46 1.289 . S
O45 C44 1.245 1_655 S
O46 Mg39 2.141 . S
O46 C44 1.289 . S
O47 Mg39 2.048 . S
O47 C40 1.195 . S
O48 Mg39 2.048 . S
O48 C49 1.195 . S
C49 O48 1.195 . S
C49 O50 1.313 1_455 S
O50 C49 1.313 1_655 S
O51 Mg39 2.141 . S
O51 C42 1.289 . S
Mg52 O59 2.141 . S
Mg52 O60 2.048 . S
Mg52 O61 2.048 . S
Mg52 O64 2.141 . S
C53 O54 1.321 . S
C53 O60 1.195 . S
O54 C53 1.321 . S
C55 O56 1.245 1_545 S
C55 O64 1.289 . S
O56 C55 1.245 1_565 S
C57 O58 1.245 1_545 S
C57 O59 1.289 . S
O58 C57 1.245 1_565 S
O59 Mg52 2.141 . S
O59 C57 1.289 . S
O60 Mg52 2.048 . S
O60 C53 1.195 . S
O61 Mg52 2.048 . S
O61 C62 1.195 . S
C62 O61 1.195 . S
C62 O63 1.318 . S
O63 C62 1.318 . S
O64 Mg52 2.141 . S
O64 C55 1.289 . S
Mg65 O72 2.141 . S
Mg65 O73 2.048 . S
Mg65 O74 2.048 . S
Mg65 O77 2.141 . S
C66 O67 1.313 . S
C66 O73 1.195 . S
O67 C66 1.313 . S
C68 O69 1.245 . S
C68 O77 1.289 . S
O69 C68 1.245 . S
C70 O71 1.245 . S
C70 O72 1.289 . S
O71 C70 1.245 . S
O72 Mg65 2.141 . S
O72 C70 1.289 . S
O73 Mg65 2.048 . S
O73 C66 1.195 . S
O74 Mg65 2.048 . S
O74 C75 1.195 . S
C75 O74 1.195 . S
C75 O76 1.313 . S
O76 C75 1.313 . S
O77 Mg65 2.141 . S
O77 C68 1.289 . S
H78 C86 0.950 . S
H79 C91 0.950 . S
H80 C88 0.950 . S
H81 C90 0.950 . S
H82 C92 0.950 . S
H83 C94 0.950 . S
H84 C96 0.950 . S
H85 C97 0.950 . S
C86 H78 0.950 . S
C86 C87 1.386 . S
C86 C88 1.391 . S
C87 C86 1.386 . S
C87 C91 1.393 1_455 S
C88 H80 0.950 . S
C88 C86 1.391 . S
C88 C89 1.400 . S
C89 C88 1.400 . S
C89 C90 1.398 1_455 S
C89 C95 1.491 . S
C90 H81 0.950 . S
C90 C89 1.398 1_655 S
C90 C91 1.391 . S
C91 H79 0.950 . S
C91 C87 1.393 1_655 S
C91 C90 1.391 . S
C92 H82 0.950 . S
C92 C93 1.386 1_655 S
C92 C94 1.391 . S
C93 C92 1.386 1_455 S
C93 C97 1.393 . S
C94 H83 0.950 . S
C94 C92 1.391 . S
C94 C95 1.400 1_655 S
C95 C89 1.491 . S
C95 C94 1.400 1_455 S
C95 C96 1.398 . S
C96 H84 0.950 . S
C96 C95 1.398 . S
C96 C97 1.391 . S
C97 H85 0.950 . S
C97 C93 1.393 . S
C97 C96 1.391 . S
H98 C106 0.950 . S
H99 C111 0.950 . S
H100 C108 0.950 . S
H101 C110 0.950 . S
H102 C112 0.950 . S
H103 C114 0.950 . S
H104 C116 0.950 . S
H105 C117 0.950 . S
C106 H98 0.950 . S
C106 C107 1.386 . S
C106 C108 1.391 . S
C107 C106 1.386 . S
C107 C111 1.393 . S
C108 H100 0.950 . S
C108 C106 1.391 . S
C108 C109 1.400 . S
C109 C108 1.400 . S
C109 C110 1.398 . S
C109 C115 1.491 . S
C110 H101 0.950 . S
C110 C109 1.398 . S
C110 C111 1.391 . S
C111 H99 0.950 . S
C111 C107 1.393 . S
C111 C110 1.391 . S
C112 H102 0.950 . S
C112 C113 1.386 . S
C112 C114 1.391 . S
C113 C112 1.386 . S
C113 C117 1.393 . S
C114 H103 0.950 . S
C114 C112 1.391 . S
C114 C115 1.400 . S
C115 C109 1.491 . S
C115 C114 1.400 . S
C115 C116 1.398 . S
C116 H104 0.950 . S
C116 C115 1.398 . S
C116 C117 1.391 . S
C117 H105 0.950 . S
C117 C113 1.393 . S
C117 C116 1.391 . S
H118 C126 0.950 . S
H119 C131 0.950 . S
H120 C128 0.950 . S
H121 C130 0.950 . S
H122 C132 0.950 . S
H123 C134 0.950 . S
H124 C136 0.950 . S
H125 C137 0.950 . S
C126 H118 0.950 . S
C126 C127 1.386 . S
C126 C128 1.391 . S
C127 C126 1.386 . S
C127 C131 1.393 . S
C128 H120 0.950 . S
C128 C126 1.391 . S
C128 C129 1.400 . S
C129 C128 1.400 . S
C129 C130 1.398 . S
C129 C135 1.491 . S
C130 H121 0.950 . S
C130 C129 1.398 . S
C130 C131 1.391 . S
C131 H119 0.950 . S
C131 C127 1.393 . S
C131 C130 1.391 . S
C132 H122 0.950 . S
C132 C133 1.386 . S
C132 C134 1.391 . S
C133 C132 1.386 . S
C133 C137 1.393 . S
C134 H123 0.950 . S
C134 C132 1.391 . S
C134 C135 1.400 . S
C135 C129 1.491 . S
C135 C134 1.400 . S
C135 C136 1.398 . S
C136 H124 0.950 . S
C136 C135 1.398 . S
C136 C137 1.391 . S
C137 H125 0.950 . S
C137 C133 1.393 . S
C137 C136 1.391 . S
H138 C146 0.950 . S
H139 C151 0.950 . S
H140 C148 0.950 . S
H141 C150 0.950 . S
H142 C152 0.950 1_655 S
H143 C154 0.950 . S
H144 C156 0.950 . S
H145 C157 0.950 . S
C146 H138 0.950 . S
C146 C147 1.386 . S
C146 C148 1.391 . S
C147 C146 1.386 . S
C147 C151 1.393 . S
C148 H140 0.950 . S
C148 C146 1.391 . S
C148 C149 1.400 . S
C149 C148 1.400 . S
C149 C150 1.398 . S
C149 C155 1.491 . S
C150 H141 0.950 . S
C150 C149 1.398 . S
C150 C151 1.391 . S
C151 H139 0.950 . S
C151 C147 1.393 . S
C151 C150 1.391 . S
C152 H142 0.950 1_455 S
C152 C153 1.386 . S
C152 C154 1.391 . S
C153 C152 1.386 . S
C153 C157 1.393 . S
C154 H143 0.950 . S
C154 C152 1.391 . S
C154 C155 1.400 . S
C155 C149 1.491 . S
C155 C154 1.400 . S
C155 C156 1.398 . S
C156 H144 0.950 . S
C156 C155 1.398 . S
C156 C157 1.391 . S
C157 H145 0.950 . S
C157 C153 1.393 . S
C157 C156 1.391 . S
H158 C166 0.950 . S
H159 C171 0.950 . S
H160 C168 0.950 . S
H161 C170 0.950 . S
H162 C172 0.950 . S
H163 C174 0.950 . S
H164 C176 0.950 1_565 S
H165 C177 0.950 1_565 S
C166 H158 0.950 . S
C166 C167 1.386 . S
C166 C168 1.391 . S
C167 C166 1.386 . S
C167 C171 1.393 . S
C168 H160 0.950 . S
C168 C166 1.391 . S
C168 C169 1.400 . S
C169 C168 1.400 . S
C169 C170 1.398 . S
C169 C175 1.491 . S
C170 H161 0.950 . S
C170 C169 1.398 . S
C170 C171 1.391 . S
C171 H159 0.950 . S
C171 C167 1.393 . S
C171 C170 1.391 . S
C172 H162 0.950 . S
C172 C173 1.386 . S
C172 C174 1.391 . S
C173 C172 1.386 . S
C173 C177 1.393 . S
C174 H163 0.950 . S
C174 C172 1.391 . S
C174 C175 1.400 . S
C175 C169 1.491 . S
C175 C174 1.400 . S
C175 C176 1.398 . S
C176 H164 0.950 1_545 S
C176 C175 1.398 . S
C176 C177 1.391 . S
C177 H165 0.950 1_545 S
C177 C173 1.393 . S
C177 C176 1.391 . S
H178 C186 0.950 . S
H179 C191 0.950 . S
H180 C188 0.950 . S
H181 C190 0.950 . S
H182 C192 0.950 . S
H183 C194 0.950 . S
H184 C196 0.950 . S
H185 C197 0.950 . S
C186 H178 0.950 . S
C186 C187 1.386 . S
C186 C188 1.391 . S
C187 C186 1.386 . S
C187 C191 1.393 . S
C188 H180 0.950 . S
C188 C186 1.391 . S
C188 C189 1.400 . S
C189 C188 1.400 . S
C189 C190 1.398 . S
C189 C195 1.491 . S
C190 H181 0.950 . S
C190 C189 1.398 . S
C190 C191 1.391 . S
C191 H179 0.950 . S
C191 C187 1.393 . S
C191 C190 1.391 . S
C192 H182 0.950 . S
C192 C193 1.386 . S
C192 C194 1.391 . S
C193 C192 1.386 . S
C193 C197 1.393 . S
C194 H183 0.950 . S
C194 C192 1.391 . S
C194 C195 1.400 . S
C195 C189 1.491 . S
C195 C194 1.400 . S
C195 C196 1.398 . S
C196 H184 0.950 . S
C196 C195 1.398 . S
C196 C197 1.391 . S
C197 H185 0.950 . S
C197 C193 1.393 . S
C197 C196 1.391 . S
H198 C206 0.950 . S
H199 C211 0.950 . S
H200 C208 0.950 . S
H201 C210 0.950 . S
H202 C212 0.950 . S
H203 C214 0.950 . S
H204 C216 0.950 . S
H205 C217 0.950 . S
C206 H198 0.950 . S
C206 C207 1.386 . S
C206 C208 1.391 . S
C207 C206 1.386 . S
C207 C211 1.393 . S
C208 H200 0.950 . S
C208 C206 1.391 . S
C208 C209 1.400 . S
C209 C208 1.400 . S
C209 C210 1.398 . S
C209 C215 1.491 . S
C210 H201 0.950 . S
C210 C209 1.398 . S
C210 C211 1.391 . S
C211 H199 0.950 . S
C211 C207 1.393 . S
C211 C210 1.391 . S
C212 H202 0.950 . S
C212 C213 1.386 . S
C212 C214 1.391 . S
C213 C212 1.386 . S
C213 C217 1.393 . S
C214 H203 0.950 . S
C214 C212 1.391 . S
C214 C215 1.400 . S
C215 C209 1.491 . S
C215 C214 1.400 . S
C215 C216 1.398 . S
C216 H204 0.950 . S
C216 C215 1.398 . S
C216 C217 1.391 . S
C217 H205 0.950 . S
C217 C213 1.393 . S
C217 C216 1.391 . S
H218 C226 0.950 . S
H219 C231 0.950 . S
H220 C228 0.950 . S
H221 C230 0.950 1_556 S
H222 C232 0.950 . S
H223 C234 0.950 . S
H224 C236 0.950 . S
H225 C237 0.950 . S
C226 H218 0.950 . S
C226 C227 1.386 . S
C226 C228 1.391 . S
C227 C226 1.386 . S
C227 C231 1.393 . S
C228 H220 0.950 . S
C228 C226 1.391 . S
C228 C229 1.400 . S
C229 C228 1.400 . S
C229 C230 1.398 . S
C229 C235 1.491 1_554 S
C230 H221 0.950 1_554 S
C230 C229 1.398 . S
C230 C231 1.391 . S
C231 H219 0.950 . S
C231 C227 1.393 . S
C231 C230 1.391 . S
C232 H222 0.950 . S
C232 C233 1.386 . S
C232 C234 1.391 . S
C233 C232 1.386 . S
C233 C237 1.393 . S
C234 H223 0.950 . S
C234 C232 1.391 . S
C234 C235 1.400 . S
C235 C229 1.491 1_556 S
C235 C234 1.400 . S
C235 C236 1.398 . S
C236 H224 0.950 . S
C236 C235 1.398 . S
C236 C237 1.391 . S
C237 H225 0.950 . S
C237 C233 1.393 . S
C237 C236 1.391 . S
H238 C246 0.950 . S
H239 C251 0.950 1_545 S
H240 C248 0.950 . S
H241 C250 0.950 . S
H242 C252 0.950 . S
H243 C254 0.950 . S
H244 C256 0.950 . S
H245 C257 0.950 . S
C246 H238 0.950 . S
C246 C247 1.386 1_655 S
C246 C248 1.391 . S
C247 C246 1.386 1_455 S
C247 C251 1.393 . S
C248 H240 0.950 . S
C248 C246 1.391 . S
C248 C249 1.400 1_655 S
C249 C248 1.400 1_455 S
C249 C250 1.398 . S
C249 C255 1.491 . S
C250 H241 0.950 . S
C250 C249 1.398 . S
C250 C251 1.391 . S
C251 H239 0.950 1_565 S
C251 C247 1.393 . S
C251 C250 1.391 . S
C252 H242 0.950 . S
C252 C253 1.386 . S
C252 C254 1.391 . S
C253 C252 1.386 . S
C253 C257 1.393 1_455 S
C254 H243 0.950 . S
C254 C252 1.391 . S
C254 C255 1.400 . S
C255 C249 1.491 . S
C255 C254 1.400 . S
C255 C256 1.398 1_455 S
C256 H244 0.950 . S
C256 C255 1.398 1_655 S
C256 C257 1.391 . S
C257 H245 0.950 . S
C257 C253 1.393 1_655 S
C257 C256 1.391 . S
H258 C266 0.950 . S
H259 C271 0.950 . S
H260 C268 0.950 . S
H261 C270 0.950 . S
H262 C272 0.950 . S
H263 C274 0.950 . S
H264 C276 0.950 1_565 S
H265 C277 0.949 . S
C266 H258 0.950 . S
C266 C267 1.386 1_565 S
C266 C268 1.391 . S
C267 C266 1.386 1_545 S
C267 C271 1.393 . S
C268 H260 0.950 . S
C268 C266 1.391 . S
C268 C269 1.400 1_565 S
C269 C268 1.400 1_545 S
C269 C270 1.398 . S
C269 C275 1.491 . S
C270 H261 0.950 . S
C270 C269 1.398 . S
C270 C271 1.391 . S
C271 H259 0.950 . S
C271 C267 1.393 . S
C271 C270 1.391 . S
C272 H262 0.950 . S
C272 C273 1.386 . S
C272 C274 1.391 . S
C273 C272 1.386 . S
C273 C277 1.393 . S
C274 H263 0.950 . S
C274 C272 1.391 . S
C274 C275 1.400 . S
C275 C269 1.491 . S
C275 C274 1.400 . S
C275 C276 1.398 . S
C276 H264 0.950 1_545 S
C276 C275 1.398 . S
C276 C277 1.391 . S
C277 H265 0.949 . S
C277 C273 1.393 . S
C277 C276 1.391 . S
H278 C286 0.950 . S
H279 C291 0.950 . S
H280 C288 0.950 . S
H281 C290 0.950 . S
H282 C292 0.950 . S
H283 C294 0.950 . S
H284 C296 0.950 . S
H285 C297 0.950 . S
C286 H278 0.950 . S
C286 C287 1.386 . S
C286 C288 1.391 . S
C287 C286 1.386 . S
C287 C291 1.393 . S
C288 H280 0.950 . S
C288 C286 1.391 . S
C288 C289 1.400 . S
C289 C288 1.400 . S
C289 C290 1.398 . S
C289 C295 1.491 1_554 S
C290 H281 0.950 . S
C290 C289 1.398 . S
C290 C291 1.391 . S
C291 H279 0.950 . S
C291 C287 1.393 . S
C291 C290 1.391 . S
C292 H282 0.950 . S
C292 C293 1.386 . S
C292 C294 1.391 . S
C293 C292 1.386 . S
C293 C297 1.393 . S
C294 H283 0.950 . S
C294 C292 1.391 . S
C294 C295 1.400 . S
C295 C289 1.491 1_556 S
C295 C294 1.400 . S
C295 C296 1.398 . S
C296 H284 0.950 . S
C296 C295 1.398 . S
C296 C297 1.391 . S
C297 H285 0.950 . S
C297 C293 1.393 . S
C297 C296 1.391 . S
H298 C306 0.950 . S
H299 C311 0.950 1_655 S
H300 C308 0.950 . S
H301 C310 0.950 1_655 S
H302 C312 0.950 . S
H303 C314 0.950 . S
H304 C316 0.950 . S
H305 C317 0.950 . S
C306 H298 0.950 . S
C306 C307 1.386 . S
C306 C308 1.391 . S
C307 C306 1.386 . S
C307 C311 1.393 . S
C308 H300 0.950 . S
C308 C306 1.391 . S
C308 C309 1.400 . S
C309 C308 1.400 . S
C309 C310 1.398 . S
C309 C315 1.491 . S
C310 H301 0.950 1_455 S
C310 C309 1.398 . S
C310 C311 1.391 . S
C311 H299 0.950 1_455 S
C311 C307 1.393 . S
C311 C310 1.391 . S
C312 H302 0.950 . S
C312 C313 1.386 1_655 S
C312 C314 1.391 . S
C313 C312 1.386 1_455 S
C313 C317 1.393 . S
C314 H303 0.950 . S
C314 C312 1.391 . S
C314 C315 1.400 1_655 S
C315 C309 1.491 . S
C315 C314 1.400 1_455 S
C315 C316 1.398 . S
C316 H304 0.950 . S
C316 C315 1.398 . S
C316 C317 1.391 . S
C317 H305 0.950 . S
C317 C313 1.393 . S
C317 C316 1.391 . S
C93 C44 1.353 . S
C87 C10 1.361 . S
C107 C21 1.438 . S
C113 C62 1.481 . S
C127 C31 1.385 . S
C133 C75 1.437 . S
C147 C0 1.311 . S
C153 C42 1.366 . S
C173 C53 1.443 . S
C167 C18 1.378 . S
C187 C34 1.403 . S
C193 C66 1.435 . S
C213 C55 1.355 . S
C207 C36 1.362 . S
C227 C8 1.312 1_565 S
C233 C68 1.352 . S
C253 C49 1.431 . S
C247 C23 1.435 . S
C273 C57 1.302 . S
C267 C26 1.249 . S
C293 C70 1.365 . S
C287 C5 1.326 . S
C307 C13 1.367 . S
C313 C40 1.443 . S
