# Generated by pormake.
# Topology iac, (4,6)-cn, num edge types: 1
# Building blocks:
#     Node 0, Type 0, BuildingBlock: QUQFOY_clean_sbu_3, # of connection points: 4
#     Node 1, Type 0, BuildingBlock: QUQFOY_clean_sbu_3, # of connection points: 4
#     Node 2, Type 0, BuildingBlock: QUQFOY_clean_sbu_3, # of connection points: 4
#     Node 3, Type 0, BuildingBlock: QUQFOY_clean_sbu_3, # of connection points: 4
#     Node 4, Type 0, BuildingBlock: QUQFOY_clean_sbu_3, # of connection points: 4
#     Node 5, Type 0, BuildingBlock: QUQFOY_clean_sbu_3, # of connection points: 4
#     Node 6, Type 0, BuildingBlock: QUQFOY_clean_sbu_3, # of connection points: 4
#     Node 7, Type 0, BuildingBlock: QUQFOY_clean_sbu_3, # of connection points: 4
#     Node 8, Type 0, BuildingBlock: QUQFOY_clean_sbu_3, # of connection points: 4
#     Node 9, Type 0, BuildingBlock: QUQFOY_clean_sbu_3, # of connection points: 4
#     Node 10, Type 0, BuildingBlock: QUQFOY_clean_sbu_3, # of connection points: 4
#     Node 11, Type 0, BuildingBlock: QUQFOY_clean_sbu_3, # of connection points: 4
#     Node 12, Type 0, BuildingBlock: QUQFOY_clean_sbu_3, # of connection points: 4
#     Node 13, Type 0, BuildingBlock: QUQFOY_clean_sbu_3, # of connection points: 4
#     Node 14, Type 0, BuildingBlock: QUQFOY_clean_sbu_3, # of connection points: 4
#     Node 15, Type 0, BuildingBlock: QUQFOY_clean_sbu_3, # of connection points: 4
#     Node 16, Type 0, BuildingBlock: QUQFOY_clean_sbu_3, # of connection points: 4
#     Node 17, Type 0, BuildingBlock: QUQFOY_clean_sbu_3, # of connection points: 4
#     Node 18, Type 0, BuildingBlock: QUQFOY_clean_sbu_3, # of connection points: 4
#     Node 19, Type 0, BuildingBlock: QUQFOY_clean_sbu_3, # of connection points: 4
#     Node 20, Type 0, BuildingBlock: QUQFOY_clean_sbu_3, # of connection points: 4
#     Node 21, Type 0, BuildingBlock: QUQFOY_clean_sbu_3, # of connection points: 4
#     Node 22, Type 0, BuildingBlock: QUQFOY_clean_sbu_3, # of connection points: 4
#     Node 23, Type 0, BuildingBlock: QUQFOY_clean_sbu_3, # of connection points: 4
#     Node 24, Type 1, BuildingBlock: JUFBIX_clean_sbu_0, # of connection points: 6
#     Node 25, Type 1, BuildingBlock: JUFBIX_clean_sbu_0, # of connection points: 6
#     Node 26, Type 1, BuildingBlock: JUFBIX_clean_sbu_0, # of connection points: 6
#     Node 27, Type 1, BuildingBlock: JUFBIX_clean_sbu_0, # of connection points: 6
#     Node 28, Type 1, BuildingBlock: JUFBIX_clean_sbu_0, # of connection points: 6
#     Node 29, Type 1, BuildingBlock: JUFBIX_clean_sbu_0, # of connection points: 6
#     Node 30, Type 1, BuildingBlock: JUFBIX_clean_sbu_0, # of connection points: 6
#     Node 31, Type 1, BuildingBlock: JUFBIX_clean_sbu_0, # of connection points: 6
#     Node 32, Type 1, BuildingBlock: JUFBIX_clean_sbu_0, # of connection points: 6
#     Node 33, Type 1, BuildingBlock: JUFBIX_clean_sbu_0, # of connection points: 6
#     Node 34, Type 1, BuildingBlock: JUFBIX_clean_sbu_0, # of connection points: 6
#     Node 35, Type 1, BuildingBlock: JUFBIX_clean_sbu_0, # of connection points: 6
#     Node 36, Type 1, BuildingBlock: JUFBIX_clean_sbu_0, # of connection points: 6
#     Node 37, Type 1, BuildingBlock: JUFBIX_clean_sbu_0, # of connection points: 6
#     Node 38, Type 1, BuildingBlock: JUFBIX_clean_sbu_0, # of connection points: 6
#     Node 39, Type 1, BuildingBlock: JUFBIX_clean_sbu_0, # of connection points: 6
#     Edge 40, Type (0, 1), BuildingBlock: XUDNAN_clean_linker_2, # of connection points: 2
#     Edge 41, Type (0, 1), BuildingBlock: XUDNAN_clean_linker_2, # of connection points: 2
#     Edge 42, Type (0, 1), BuildingBlock: XUDNAN_clean_linker_2, # of connection points: 2
#     Edge 43, Type (0, 1), BuildingBlock: XUDNAN_clean_linker_2, # of connection points: 2
#     Edge 44, Type (0, 1), BuildingBlock: XUDNAN_clean_linker_2, # of connection points: 2
#     Edge 45, Type (0, 1), BuildingBlock: XUDNAN_clean_linker_2, # of connection points: 2
#     Edge 46, Type (0, 1), BuildingBlock: XUDNAN_clean_linker_2, # of connection points: 2
#     Edge 47, Type (0, 1), BuildingBlock: XUDNAN_clean_linker_2, # of connection points: 2
#     Edge 48, Type (0, 1), BuildingBlock: XUDNAN_clean_linker_2, # of connection points: 2
#     Edge 49, Type (0, 1), BuildingBlock: XUDNAN_clean_linker_2, # of connection points: 2
#     Edge 50, Type (0, 1), BuildingBlock: XUDNAN_clean_linker_2, # of connection points: 2
#     Edge 51, Type (0, 1), BuildingBlock: XUDNAN_clean_linker_2, # of connection points: 2
#     Edge 52, Type (0, 1), BuildingBlock: XUDNAN_clean_linker_2, # of connection points: 2
#     Edge 53, Type (0, 1), BuildingBlock: XUDNAN_clean_linker_2, # of connection points: 2
#     Edge 54, Type (0, 1), BuildingBlock: XUDNAN_clean_linker_2, # of connection points: 2
#     Edge 55, Type (0, 1), BuildingBlock: XUDNAN_clean_linker_2, # of connection points: 2
#     Edge 56, Type (0, 1), BuildingBlock: XUDNAN_clean_linker_2, # of connection points: 2
#     Edge 57, Type (0, 1), BuildingBlock: XUDNAN_clean_linker_2, # of connection points: 2
#     Edge 58, Type (0, 1), BuildingBlock: XUDNAN_clean_linker_2, # of connection points: 2
#     Edge 59, Type (0, 1), BuildingBlock: XUDNAN_clean_linker_2, # of connection points: 2
#     Edge 60, Type (0, 1), BuildingBlock: XUDNAN_clean_linker_2, # of connection points: 2
#     Edge 61, Type (0, 1), BuildingBlock: XUDNAN_clean_linker_2, # of connection points: 2
#     Edge 62, Type (0, 1), BuildingBlock: XUDNAN_clean_linker_2, # of connection points: 2
#     Edge 63, Type (0, 1), BuildingBlock: XUDNAN_clean_linker_2, # of connection points: 2
#     Edge 64, Type (0, 1), BuildingBlock: XUDNAN_clean_linker_2, # of connection points: 2
#     Edge 65, Type (0, 1), BuildingBlock: XUDNAN_clean_linker_2, # of connection points: 2
#     Edge 66, Type (0, 1), BuildingBlock: XUDNAN_clean_linker_2, # of connection points: 2
#     Edge 67, Type (0, 1), BuildingBlock: XUDNAN_clean_linker_2, # of connection points: 2
#     Edge 68, Type (0, 1), BuildingBlock: XUDNAN_clean_linker_2, # of connection points: 2
#     Edge 69, Type (0, 1), BuildingBlock: XUDNAN_clean_linker_2, # of connection points: 2
#     Edge 70, Type (0, 1), BuildingBlock: XUDNAN_clean_linker_2, # of connection points: 2
#     Edge 71, Type (0, 1), BuildingBlock: XUDNAN_clean_linker_2, # of connection points: 2
#     Edge 72, Type (0, 1), BuildingBlock: XUDNAN_clean_linker_2, # of connection points: 2
#     Edge 73, Type (0, 1), BuildingBlock: XUDNAN_clean_linker_2, # of connection points: 2
#     Edge 74, Type (0, 1), BuildingBlock: XUDNAN_clean_linker_2, # of connection points: 2
#     Edge 75, Type (0, 1), BuildingBlock: XUDNAN_clean_linker_2, # of connection points: 2
#     Edge 76, Type (0, 1), BuildingBlock: XUDNAN_clean_linker_2, # of connection points: 2
#     Edge 77, Type (0, 1), BuildingBlock: XUDNAN_clean_linker_2, # of connection points: 2
#     Edge 78, Type (0, 1), BuildingBlock: XUDNAN_clean_linker_2, # of connection points: 2
#     Edge 79, Type (0, 1), BuildingBlock: XUDNAN_clean_linker_2, # of connection points: 2
#     Edge 80, Type (0, 1), BuildingBlock: XUDNAN_clean_linker_2, # of connection points: 2
#     Edge 81, Type (0, 1), BuildingBlock: XUDNAN_clean_linker_2, # of connection points: 2
#     Edge 82, Type (0, 1), BuildingBlock: XUDNAN_clean_linker_2, # of connection points: 2
#     Edge 83, Type (0, 1), BuildingBlock: XUDNAN_clean_linker_2, # of connection points: 2
#     Edge 84, Type (0, 1), BuildingBlock: XUDNAN_clean_linker_2, # of connection points: 2
#     Edge 85, Type (0, 1), BuildingBlock: XUDNAN_clean_linker_2, # of connection points: 2
#     Edge 86, Type (0, 1), BuildingBlock: XUDNAN_clean_linker_2, # of connection points: 2
#     Edge 87, Type (0, 1), BuildingBlock: XUDNAN_clean_linker_2, # of connection points: 2
#     Edge 88, Type (0, 1), BuildingBlock: XUDNAN_clean_linker_2, # of connection points: 2
#     Edge 89, Type (0, 1), BuildingBlock: XUDNAN_clean_linker_2, # of connection points: 2
#     Edge 90, Type (0, 1), BuildingBlock: XUDNAN_clean_linker_2, # of connection points: 2
#     Edge 91, Type (0, 1), BuildingBlock: XUDNAN_clean_linker_2, # of connection points: 2
#     Edge 92, Type (0, 1), BuildingBlock: XUDNAN_clean_linker_2, # of connection points: 2
#     Edge 93, Type (0, 1), BuildingBlock: XUDNAN_clean_linker_2, # of connection points: 2
#     Edge 94, Type (0, 1), BuildingBlock: XUDNAN_clean_linker_2, # of connection points: 2
#     Edge 95, Type (0, 1), BuildingBlock: XUDNAN_clean_linker_2, # of connection points: 2
#     Edge 96, Type (0, 1), BuildingBlock: XUDNAN_clean_linker_2, # of connection points: 2
#     Edge 97, Type (0, 1), BuildingBlock: XUDNAN_clean_linker_2, # of connection points: 2
#     Edge 98, Type (0, 1), BuildingBlock: XUDNAN_clean_linker_2, # of connection points: 2
#     Edge 99, Type (0, 1), BuildingBlock: XUDNAN_clean_linker_2, # of connection points: 2
#     Edge 100, Type (0, 1), BuildingBlock: XUDNAN_clean_linker_2, # of connection points: 2
#     Edge 101, Type (0, 1), BuildingBlock: XUDNAN_clean_linker_2, # of connection points: 2
#     Edge 102, Type (0, 1), BuildingBlock: XUDNAN_clean_linker_2, # of connection points: 2
#     Edge 103, Type (0, 1), BuildingBlock: XUDNAN_clean_linker_2, # of connection points: 2
#     Edge 104, Type (0, 1), BuildingBlock: XUDNAN_clean_linker_2, # of connection points: 2
#     Edge 105, Type (0, 1), BuildingBlock: XUDNAN_clean_linker_2, # of connection points: 2
#     Edge 106, Type (0, 1), BuildingBlock: XUDNAN_clean_linker_2, # of connection points: 2
#     Edge 107, Type (0, 1), BuildingBlock: XUDNAN_clean_linker_2, # of connection points: 2
#     Edge 108, Type (0, 1), BuildingBlock: XUDNAN_clean_linker_2, # of connection points: 2
#     Edge 109, Type (0, 1), BuildingBlock: XUDNAN_clean_linker_2, # of connection points: 2
#     Edge 110, Type (0, 1), BuildingBlock: XUDNAN_clean_linker_2, # of connection points: 2
#     Edge 111, Type (0, 1), BuildingBlock: XUDNAN_clean_linker_2, # of connection points: 2
#     Edge 112, Type (0, 1), BuildingBlock: XUDNAN_clean_linker_2, # of connection points: 2
#     Edge 113, Type (0, 1), BuildingBlock: XUDNAN_clean_linker_2, # of connection points: 2
#     Edge 114, Type (0, 1), BuildingBlock: XUDNAN_clean_linker_2, # of connection points: 2
#     Edge 115, Type (0, 1), BuildingBlock: XUDNAN_clean_linker_2, # of connection points: 2
#     Edge 116, Type (0, 1), BuildingBlock: XUDNAN_clean_linker_2, # of connection points: 2
#     Edge 117, Type (0, 1), BuildingBlock: XUDNAN_clean_linker_2, # of connection points: 2
#     Edge 118, Type (0, 1), BuildingBlock: XUDNAN_clean_linker_2, # of connection points: 2
#     Edge 119, Type (0, 1), BuildingBlock: XUDNAN_clean_linker_2, # of connection points: 2
#     Edge 120, Type (0, 1), BuildingBlock: XUDNAN_clean_linker_2, # of connection points: 2
#     Edge 121, Type (0, 1), BuildingBlock: XUDNAN_clean_linker_2, # of connection points: 2
#     Edge 122, Type (0, 1), BuildingBlock: XUDNAN_clean_linker_2, # of connection points: 2
#     Edge 123, Type (0, 1), BuildingBlock: XUDNAN_clean_linker_2, # of connection points: 2
#     Edge 124, Type (0, 1), BuildingBlock: XUDNAN_clean_linker_2, # of connection points: 2
#     Edge 125, Type (0, 1), BuildingBlock: XUDNAN_clean_linker_2, # of connection points: 2
#     Edge 126, Type (0, 1), BuildingBlock: XUDNAN_clean_linker_2, # of connection points: 2
#     Edge 127, Type (0, 1), BuildingBlock: XUDNAN_clean_linker_2, # of connection points: 2
#     Edge 128, Type (0, 1), BuildingBlock: XUDNAN_clean_linker_2, # of connection points: 2
#     Edge 129, Type (0, 1), BuildingBlock: XUDNAN_clean_linker_2, # of connection points: 2
#     Edge 130, Type (0, 1), BuildingBlock: XUDNAN_clean_linker_2, # of connection points: 2
#     Edge 131, Type (0, 1), BuildingBlock: XUDNAN_clean_linker_2, # of connection points: 2
#     Edge 132, Type (0, 1), BuildingBlock: XUDNAN_clean_linker_2, # of connection points: 2
#     Edge 133, Type (0, 1), BuildingBlock: XUDNAN_clean_linker_2, # of connection points: 2
#     Edge 134, Type (0, 1), BuildingBlock: XUDNAN_clean_linker_2, # of connection points: 2
#     Edge 135, Type (0, 1), BuildingBlock: XUDNAN_clean_linker_2, # of connection points: 2
# Relax obj value: 0.224
# Max RMSD: 0.231
# Mean RMSD: 0.112
data_MOF--net-iac--node1-QUQFOY_clean_sbu_3--node2-JUFBIX_clean_sbu_0--edge1-XUDNAN_clean_linker_2
_symmetry_space_group_name_H-M    P1
_symmetry_Int_Tables_number       1
_symmetry_cell_setting            triclinic
loop_
_symmetry_equiv_pos_as_xyz
'x, y, z'
_cell_length_a     54.938676
_cell_length_b     57.208265
_cell_length_c     56.145556
_cell_angle_alpha  90.378567
_cell_angle_beta   88.341561
_cell_angle_gamma 89.216372
loop_
_atom_site_label
_atom_site_type_symbol
_atom_site_fract_x
_atom_site_fract_y
_atom_site_fract_z
_atom_type_partial_charge
C0 C 0.97992 0.27369 0.18112 0.0
O1 O 0.99353 0.2636 0.19589 0.0
Cd2 Cd 0.03366 0.24984 0.18417 0.0
O3 O 0.98865 0.27987 0.16071 0.0
Cd4 Cd 0.03031 0.28181 0.13816 0.0
C5 C 0.02304 0.2217 0.12973 0.0
O6 O 0.05773 0.28272 0.17352 0.0
O7 O 0.0756 0.277 0.13932 0.0
O8 O 0.02584 0.32497 0.1374 0.0
C9 C 0.07759 0.28024 0.16158 0.0
O10 O 0.02692 0.22188 0.15199 0.0
C11 C 0.02792 0.32839 0.11513 0.0
O12 O 0.02302 0.24107 0.11825 0.0
O13 O 0.03011 0.30994 0.10232 0.0
C14 C 0.01074 0.75991 0.33292 0.0
O15 O 0.03122 0.76403 0.32284 0.0
Cd16 Cd 0.06594 0.76827 0.34677 0.0
O17 O 0.00939 0.75347 0.35463 0.0
Cd18 Cd 0.03302 0.74219 0.3897 0.0
C19 C 0.03275 0.80033 0.39133 0.0
O20 O 0.07018 0.73396 0.36906 0.0
O21 O 0.07401 0.74193 0.4063 0.0
O22 O 0.01634 0.70404 0.38527 0.0
C23 C 0.08411 0.73618 0.38647 0.0
O24 O 0.04749 0.79785 0.37347 0.0
C25 C 0.01319 0.70019 0.40737 0.0
O26 O 0.02371 0.78261 0.40192 0.0
O27 O 0.01718 0.71704 0.42163 0.0
C28 C 0.47765 0.76452 0.68407 0.0
O29 O 0.48812 0.74686 0.69315 0.0
Cd30 Cd 0.52908 0.73374 0.68342 0.0
O31 O 0.48838 0.77621 0.66753 0.0
Cd32 Cd 0.52816 0.7769 0.64264 0.0
C33 C 0.52314 0.71643 0.6248 0.0
O34 O 0.54974 0.77011 0.67926 0.0
O35 O 0.5742 0.77623 0.6497 0.0
O36 O 0.52067 0.8197 0.64466 0.0
C37 C 0.57156 0.77195 0.67179 0.0
O38 O 0.52653 0.71121 0.64647 0.0
C39 C 0.52352 0.8248 0.6228 0.0
O40 O 0.52211 0.73807 0.61854 0.0
O41 O 0.52838 0.80751 0.60895 0.0
C42 C 0.49018 0.3038 0.8918 0.0
O43 O 0.5064 0.31863 0.88655 0.0
Cd44 Cd 0.54887 0.31115 0.88698 0.0
O45 O 0.49594 0.28331 0.89873 0.0
Cd46 Cd 0.53529 0.26422 0.90847 0.0
C47 C 0.54748 0.30857 0.94651 0.0
O48 O 0.55356 0.27262 0.87015 0.0
O49 O 0.57901 0.26147 0.89634 0.0
O50 O 0.51803 0.22565 0.90054 0.0
C51 C 0.57453 0.26487 0.87459 0.0
O52 O 0.55704 0.31882 0.9286 0.0
C53 C 0.52764 0.216 0.91835 0.0
O54 O 0.53704 0.28907 0.94387 0.0
O55 O 0.53956 0.22909 0.932 0.0
C56 C 0.0961 0.01315 0.29309 0.0
O57 O 0.08777 0.01585 0.27242 0.0
Cd58 Cd 0.11128 0.01077 0.2365 0.0
O59 O 0.11806 0.00632 0.29578 0.0
Cd60 Cd 0.15329 0.99508 0.269 0.0
C61 C 0.15487 0.05018 0.24966 0.0
O62 O 0.13089 0.97329 0.24042 0.0
O63 O 0.16574 0.98498 0.22741 0.0
O64 O 0.16595 0.96595 0.29799 0.0
C65 C 0.14745 0.97217 0.22436 0.0
O66 O 0.13808 0.04495 0.23547 0.0
C67 C 0.18853 0.96923 0.29411 0.0
O68 O 0.16241 0.03551 0.26473 0.0
O69 O 0.19447 0.98515 0.27954 0.0
C70 C 0.26878 0.94282 0.54885 0.0
O71 O 0.25447 0.95313 0.53486 0.0
Cd72 Cd 0.22235 0.93444 0.5157 0.0
O73 O 0.26483 0.92189 0.55562 0.0
Cd74 Cd 0.23387 0.89058 0.55178 0.0
C75 C 0.25663 0.88646 0.49562 0.0
O76 O 0.20089 0.91697 0.54806 0.0
O77 O 0.19219 0.8817 0.53853 0.0
O78 O 0.23542 0.88402 0.59425 0.0
C79 C 0.18509 0.90274 0.54138 0.0
O80 O 0.24647 0.90612 0.49147 0.0
C81 C 0.23754 0.86192 0.59256 0.0
O82 O 0.25473 0.87689 0.51595 0.0
O83 O 0.23817 0.85312 0.57172 0.0
C84 C 0.45687 0.0163 0.78344 0.0
O85 O 0.46476 0.01049 0.76274 0.0
Cd86 Cd 0.44664 0.02487 0.7275 0.0
O87 O 0.44001 0.03167 0.78652 0.0
Cd88 Cd 0.41465 0.05796 0.76283 0.0
C89 C 0.38773 0.00951 0.74188 0.0
O90 O 0.44526 0.0662 0.73314 0.0
O91 O 0.40872 0.07492 0.72336 0.0
O92 O 0.41933 0.09275 0.78779 0.0
C93 C 0.43136 0.07599 0.71858 0.0
O94 O 0.40641 0.0065 0.72815 0.0
C95 C 0.39668 0.0976 0.78852 0.0
O96 O 0.38663 0.0262 0.75698 0.0
O97 O 0.38265 0.08256 0.7797 0.0
C98 C 0.3096 0.11892 0.02657 0.0
O99 O 0.29695 0.10649 0.04076 0.0
Cd100 Cd 0.25612 0.11798 0.05349 0.0
O101 O 0.30007 0.13683 0.01678 0.0
Cd102 Cd 0.25863 0.15688 0.01431 0.0
C103 C 0.26351 0.17434 0.07376 0.0
O104 O 0.23167 0.12166 0.0188 0.0
O105 O 0.21378 0.15543 0.01963 0.0
O106 O 0.26258 0.15566 0.97039 0.0
C107 C 0.21183 0.13334 0.01948 0.0
O108 O 0.25929 0.15304 0.07864 0.0
C109 C 0.26125 0.17744 0.96635 0.0
O110 O 0.26506 0.18087 0.05197 0.0
O111 O 0.25927 0.19059 0.98471 0.0
C112 C 0.79034 0.41648 0.01567 0.0
O113 O 0.77473 0.42652 0.00282 0.0
Cd114 Cd 0.7317 0.41957 0.00548 0.0
O115 O 0.78378 0.4012 0.03084 0.0
Cd116 Cd 0.74488 0.38283 0.04157 0.0
C117 C 0.73448 0.36442 0.98572 0.0
O118 O 0.7206 0.41871 0.04712 0.0
O119 O 0.70092 0.38631 0.04823 0.0
O120 O 0.75846 0.37573 0.08198 0.0
C121 C 0.70109 0.40811 0.05228 0.0
O122 O 0.72444 0.38422 0.9823 0.0
C123 C 0.75179 0.35454 0.08212 0.0
O124 O 0.74548 0.36021 0.00481 0.0
O125 O 0.74353 0.34642 0.06293 0.0
C126 C 0.94145 0.5226 0.27134 0.0
O127 O 0.9467 0.50798 0.25484 0.0
Cd128 Cd 0.92684 0.51022 0.21732 0.0
O129 O 0.92518 0.53833 0.26872 0.0
Cd130 Cd 0.89615 0.55231 0.23978 0.0
C131 C 0.8688 0.50008 0.2379 0.0
O132 O 0.92454 0.55084 0.20664 0.0
O133 O 0.88684 0.55653 0.19787 0.0
O134 O 0.90448 0.59123 0.2548 0.0
C135 C 0.90907 0.55604 0.19117 0.0
O136 O 0.88718 0.493 0.22539 0.0
C137 C 0.88227 0.59757 0.25626 0.0
O138 O 0.86802 0.52061 0.24675 0.0
O139 O 0.86656 0.58244 0.25098 0.0
C140 C 0.8104 0.61169 0.53038 0.0
O141 O 0.79874 0.60024 0.54623 0.0
Cd142 Cd 0.75807 0.60819 0.5614 0.0
O143 O 0.8005 0.62934 0.52027 0.0
Cd144 Cd 0.75912 0.6509 0.52101 0.0
C145 C 0.76322 0.66465 0.58266 0.0
O146 O 0.73726 0.61411 0.52517 0.0
O147 O 0.71333 0.64379 0.52313 0.0
O148 O 0.76296 0.65918 0.47676 0.0
C149 C 0.71559 0.6218 0.52517 0.0
O150 O 0.76024 0.64306 0.58719 0.0
C151 C 0.76086 0.68127 0.47871 0.0
O152 O 0.7641 0.67166 0.561 0.0
O153 O 0.758 0.68912 0.49987 0.0
C154 C 0.59329 0.50727 0.84251 0.0
O155 O 0.58135 0.52468 0.8346 0.0
Cd156 Cd 0.5769 0.54126 0.79545 0.0
O157 O 0.60735 0.49471 0.82914 0.0
Cd158 Cd 0.62106 0.49603 0.78746 0.0
C159 C 0.63558 0.55586 0.78634 0.0
O160 O 0.58399 0.50807 0.77144 0.0
O161 O 0.59821 0.47684 0.75496 0.0
O162 O 0.64314 0.46033 0.79604 0.0
C163 C 0.58186 0.49266 0.75558 0.0
O164 O 0.61384 0.56305 0.79052 0.0
C165 C 0.66003 0.46404 0.78056 0.0
O166 O 0.64094 0.53417 0.78454 0.0
O167 O 0.65861 0.48271 0.76847 0.0
C168 C 0.97227 0.78643 0.86473 0.0
O169 O 0.98364 0.8027 0.85404 0.0
Cd170 Cd 0.02475 0.81442 0.86256 0.0
O171 O 0.98236 0.77524 0.88165 0.0
Cd172 Cd 0.02192 0.77244 0.90509 0.0
C173 C 0.01964 0.8335 0.92133 0.0
O174 O 0.04669 0.77856 0.86878 0.0
O175 O 0.06746 0.77124 0.89971 0.0
O176 O 0.00954 0.73084 0.90321 0.0
C177 C 0.0675 0.77645 0.8778 0.0
O178 O 0.02223 0.83772 0.89916 0.0
C179 C 0.01619 0.72411 0.92354 0.0
O180 O 0.01829 0.81218 0.92867 0.0
O181 O 0.02527 0.73994 0.93654 0.0
C182 C 0.97282 0.27749 0.68293 0.0
O183 O 0.98454 0.2654 0.69777 0.0
Cd184 Cd 0.02569 0.25272 0.69054 0.0
O185 O 0.98325 0.28521 0.66407 0.0
Cd186 Cd 0.02213 0.28893 0.64165 0.0
C187 C 0.0199 0.2303 0.63258 0.0
O188 O 0.04558 0.28605 0.67605 0.0
O189 O 0.06693 0.28742 0.64335 0.0
O190 O 0.01188 0.3296 0.64453 0.0
C191 C 0.06633 0.28447 0.66575 0.0
O192 O 0.02244 0.22875 0.65502 0.0
C193 C 0.01323 0.33394 0.62242 0.0
O194 O 0.01873 0.25011 0.62221 0.0
O195 O 0.01905 0.31697 0.60847 0.0
C196 C 0.47436 0.27498 0.36423 0.0
O197 O 0.48865 0.28671 0.35095 0.0
Cd198 Cd 0.5297 0.29611 0.36129 0.0
O199 O 0.48185 0.26719 0.38416 0.0
Cd200 Cd 0.52172 0.26755 0.40811 0.0
C201 C 0.52337 0.32851 0.4141 0.0
O202 O 0.55324 0.26314 0.3742 0.0
O203 O 0.5659 0.2742 0.40822 0.0
O204 O 0.51498 0.22437 0.41524 0.0
C205 C 0.57122 0.26835 0.38687 0.0
O206 O 0.52844 0.32636 0.3919 0.0
C207 C 0.51825 0.22456 0.43752 0.0
O208 O 0.51782 0.31017 0.42614 0.0
O209 O 0.52237 0.24459 0.44648 0.0
C210 C 0.47926 0.79373 0.18899 0.0
O211 O 0.49372 0.78043 0.20005 0.0
Cd212 Cd 0.53476 0.77215 0.1867 0.0
O213 O 0.48645 0.80482 0.17058 0.0
Cd214 Cd 0.52196 0.81292 0.14476 0.0
C215 C 0.52514 0.75607 0.1276 0.0
O216 O 0.55081 0.80841 0.17467 0.0
O217 O 0.56627 0.81185 0.13912 0.0
O218 O 0.51775 0.85511 0.14632 0.0
C219 C 0.56959 0.80785 0.16102 0.0
O220 O 0.53032 0.75126 0.14905 0.0
C221 C 0.50912 0.85677 0.12568 0.0
O222 O 0.52079 0.777 0.12107 0.0
O223 O 0.50713 0.83807 0.11359 0.0
C224 C 0.93777 0.04474 0.78213 0.0
O225 O 0.95122 0.0296 0.77137 0.0
Cd226 Cd 0.94288 0.01427 0.73251 0.0
O227 O 0.91884 0.05294 0.77249 0.0
Cd228 Cd 0.89637 0.04784 0.73584 0.0
C229 C 0.88795 0.99149 0.74892 0.0
O230 O 0.93016 0.04496 0.70665 0.0
O231 O 0.89534 0.03228 0.69576 0.0
O232 O 0.88546 0.08926 0.73777 0.0
C233 C 0.91729 0.03677 0.69025 0.0
O234 O 0.90917 0.98765 0.73987 0.0
C235 C 0.86298 0.08615 0.73433 0.0
O236 O 0.87961 0.01218 0.75199 0.0
O237 O 0.85611 0.06524 0.73153 0.0
C238 C 0.81458 0.11695 0.53089 0.0
O239 O 0.79934 0.10198 0.53842 0.0
Cd240 Cd 0.75792 0.10035 0.52653 0.0
O241 O 0.80848 0.1327 0.5162 0.0
Cd242 Cd 0.77404 0.14696 0.49339 0.0
C243 C 0.73853 0.15565 0.54367 0.0
O244 O 0.76371 0.10804 0.48524 0.0
O245 O 0.73906 0.13283 0.47031 0.0
O246 O 0.80473 0.15639 0.46346 0.0
C247 C 0.74462 0.11155 0.4738 0.0
O248 O 0.73723 0.13359 0.54635 0.0
C249 C 0.79669 0.17691 0.4598 0.0
O250 O 0.75146 0.1644 0.52687 0.0
O251 O 0.77802 0.18361 0.47203 0.0
C252 C 0.58351 0.01226 0.32556 0.0
O253 O 0.56971 0.02732 0.31602 0.0
Cd254 Cd 0.57991 0.04497 0.27841 0.0
O255 O 0.60243 0.00432 0.31454 0.0
Cd256 Cd 0.62587 0.00416 0.27701 0.0
C257 C 0.63997 0.0604 0.28899 0.0
O258 O 0.59187 0.01303 0.25358 0.0
O259 O 0.62614 0.01015 0.23392 0.0
O260 O 0.62346 0.96255 0.28058 0.0
C261 C 0.60358 0.01525 0.23399 0.0
O262 O 0.61747 0.06543 0.28674 0.0
C263 C 0.64628 0.9588 0.28026 0.0
O264 O 0.64817 0.03953 0.2865 0.0
O265 O 0.66 0.97643 0.27772 0.0
C266 C 0.81061 0.93626 0.01763 0.0
O267 O 0.79867 0.94632 0.0015 0.0
Cd268 Cd 0.75798 0.93439 0.99157 0.0
O269 O 0.80105 0.9192 0.02907 0.0
Cd270 Cd 0.76109 0.89604 0.0315 0.0
C271 C 0.76372 0.87751 0.97153 0.0
O272 O 0.7326 0.93073 0.02745 0.0
O273 O 0.71654 0.89671 0.02679 0.0
O274 O 0.76975 0.89652 0.07455 0.0
C275 C 0.71339 0.91869 0.02633 0.0
O276 O 0.75985 0.89894 0.96666 0.0
C277 C 0.76593 0.87522 0.07936 0.0
O278 O 0.76644 0.87133 0.99327 0.0
O279 O 0.75936 0.86267 0.06194 0.0
C280 C 0.33631 0.6269 0.0281 0.0
O281 O 0.32024 0.61349 0.03693 0.0
Cd282 Cd 0.27778 0.62279 0.04031 0.0
O283 O 0.33054 0.64736 0.02113 0.0
Cd284 Cd 0.29282 0.67178 0.01831 0.0
C285 C 0.27502 0.67197 0.07612 0.0
O286 O 0.26836 0.64031 0.00347 0.0
O287 O 0.24818 0.67095 0.01509 0.0
O288 O 0.30809 0.68539 0.98008 0.0
C289 C 0.24805 0.65088 0.00544 0.0
O290 O 0.26876 0.65094 0.07234 0.0
C291 C 0.30508 0.70703 0.98438 0.0
O292 O 0.28702 0.68329 0.06032 0.0
O293 O 0.29691 0.71263 0.00506 0.0
C294 C 0.12425 0.51048 0.82377 0.0
O295 O 0.10771 0.52392 0.81604 0.0
Cd296 Cd 0.10434 0.53614 0.77569 0.0
O297 O 0.1414 0.50245 0.81026 0.0
Cd298 Cd 0.15703 0.50436 0.76889 0.0
C299 C 0.16086 0.56326 0.77069 0.0
O300 O 0.11645 0.50228 0.75439 0.0
O301 O 0.14501 0.50401 0.72749 0.0
O302 O 0.16807 0.46602 0.78263 0.0
C303 C 0.12242 0.50341 0.73252 0.0
O304 O 0.13768 0.56286 0.7714 0.0
C305 C 0.18463 0.46228 0.76686 0.0
O306 O 0.17354 0.54436 0.77095 0.0
O307 O 0.18979 0.47888 0.75275 0.0
C308 C 0.30848 0.4429 0.50259 0.0
O309 O 0.29142 0.45052 0.48985 0.0
Cd310 Cd 0.25144 0.43589 0.48561 0.0
O311 O 0.30489 0.42509 0.516 0.0
Cd312 Cd 0.26764 0.39812 0.52499 0.0
C313 C 0.26479 0.38004 0.46502 0.0
O314 O 0.23523 0.42954 0.52498 0.0
O315 O 0.22253 0.39435 0.52483 0.0
O316 O 0.2808 0.39801 0.56724 0.0
C317 C 0.21719 0.41597 0.52554 0.0
O318 O 0.25655 0.40053 0.46114 0.0
C319 C 0.27835 0.37637 0.57148 0.0
O320 O 0.27125 0.37429 0.48604 0.0
O321 O 0.27123 0.36412 0.55409 0.0
C322 C 0.42731 0.56665 0.29058 0.0
O323 O 0.4418 0.55923 0.27409 0.0
Cd324 Cd 0.42784 0.54631 0.23657 0.0
O325 O 0.40438 0.56671 0.28792 0.0
Cd326 Cd 0.37402 0.55665 0.25845 0.0
C327 C 0.39306 0.50079 0.25646 0.0
O328 O 0.39806 0.57613 0.22939 0.0
O329 O 0.36845 0.55747 0.21458 0.0
O330 O 0.35403 0.58596 0.28222 0.0
C331 C 0.38605 0.57131 0.21127 0.0
O332 O 0.41113 0.50709 0.24343 0.0
C333 C 0.33246 0.58049 0.27732 0.0
O334 O 0.3779 0.51557 0.26542 0.0
O335 O 0.32981 0.563 0.26363 0.0
Co336 Co 0.00855 0.03606 0.00907 0.0
C337 C 0.00604 0.06685 0.04953 0.0
Co338 Co 0.02069 0.02072 0.04233 0.0
C339 C 0.98783 0.04473 0.96253 0.0
C340 C 0.00599 0.07411 0.97737 0.0
N341 N 0.00041 0.05156 0.98161 0.0
N342 N 0.98509 0.06237 0.94693 0.0
C343 C -0.00353 0.08082 0.95619 0.0
H344 H 0.98048 0.02742 0.96032 0.0
H345 H 0.01632 0.08509 0.989 0.0
C346 C 0.02343 0.98913 0.00326 0.0
N347 N 0.02913 0.0058 0.06992 0.0
C348 C 0.05056 0.99537 0.07485 0.0
C349 C 0.0143 0.00132 0.08888 0.0
N350 N 0.04944 0.98427 0.09589 0.0
C351 C 0.02674 0.98795 0.10484 0.0
C352 C 0.97067 0.01358 0.03199 0.0
O353 O 0.01472 0.00627 0.99152 0.0
O354 O 0.02865 0.99276 0.02489 0.0
O355 O 0.98768 0.00939 0.04639 0.0
O356 O 0.9753 0.02663 0.01422 0.0
O357 O 0.01267 0.04845 0.06026 0.0
H358 H -0.00443 0.00725 0.09093 0.0
H359 H 0.06653 -0.00446 0.06309 0.0
O360 O 0.00256 0.06544 0.02723 0.0
O361 O 0.04141 0.04549 0.00367 0.0
O362 O 0.0537 0.0324 0.03779 0.0
C363 C 0.05817 0.04366 0.0187 0.0
H364 H -0.00194 0.09784 0.948 0.0
H365 H 0.01988 0.98183 0.12193 0.0
Co366 Co 0.29249 0.77958 0.30906 0.0
C367 C 0.28528 0.73708 0.28851 0.0
Co368 Co 0.26939 0.78202 0.27761 0.0
C369 C 0.30617 0.78908 0.35632 0.0
C370 C 0.33578 0.77279 0.33667 0.0
N371 N 0.31206 0.77903 0.33519 0.0
N372 N 0.32518 0.78971 0.3708 0.0
C373 C 0.34404 0.7798 0.35855 0.0
H374 H 0.28885 0.79775 0.36027 0.0
H375 H 0.34676 0.76519 0.32223 0.0
C376 C 0.27504 0.82437 0.29918 0.0
N377 N 0.25013 0.78206 0.25111 0.0
C378 C 0.25628 0.7713 0.23032 0.0
C379 C 0.22648 0.78821 0.24915 0.0
N380 N 0.23743 0.77006 0.21563 0.0
C381 C 0.21852 0.78056 0.22738 0.0
C382 C 0.24398 0.7736 0.3199 0.0
O383 O 0.28778 0.81231 0.3132 0.0
O384 O 0.26526 0.81459 0.28152 0.0
O385 O 0.24181 0.77688 0.2977 0.0
O386 O 0.26488 0.77428 0.32884 0.0
O387 O 0.27328 0.74937 0.27413 0.0
H388 H 0.21534 0.79628 0.26322 0.0
H389 H 0.27369 0.76263 0.22684 0.0
O390 O 0.29648 0.74704 0.30516 0.0
O391 O 0.32006 0.78475 0.28902 0.0
O392 O 0.29714 0.7871 0.25785 0.0
C393 C 0.31803 0.78763 0.26679 0.0
H394 H 0.36263 0.779 0.36441 0.0
H395 H 0.20007 0.78157 0.22116 0.0
Co396 Co 0.49778 0.02175 0.52207 0.0
C397 C 0.51731 0.06503 0.50923 0.0
Co398 Co 0.53449 0.02604 0.53553 0.0
C399 C 0.44886 0.00912 0.52913 0.0
C400 C 0.45425 0.02263 0.49395 0.0
N401 N 0.46591 0.01794 0.5142 0.0
N402 N 0.42697 0.00788 0.51914 0.0
C403 C 0.43015 0.01646 0.49697 0.0
H404 H 0.45247 0.00389 0.54718 0.0
H405 H 0.46274 0.02984 0.47806 0.0
C406 C 0.51566 0.98319 0.54926 0.0
N407 N 0.56627 0.02944 0.5437 0.0
C408 C 0.58373 0.03763 0.52888 0.0
C409 C 0.57805 0.02184 0.563 0.0
N410 N 0.60598 0.03519 0.53786 0.0
C411 C 0.60269 0.02522 0.55935 0.0
C412 C 0.50082 0.04405 0.56637 0.0
O413 O 0.49753 0.99061 0.53761 0.0
O414 O 0.534 -0.00372 0.55074 0.0
O415 O 0.52364 0.04062 0.56423 0.0
O416 O 0.48702 0.03642 0.5505 0.0
O417 O 0.53491 0.05638 0.5207 0.0
H418 H 0.56943 0.01349 0.57822 0.0
H419 H 0.58034 0.04404 0.51116 0.0
O420 O 0.4984 0.05262 0.50675 0.0
O421 O 0.50831 0.00776 0.49357 0.0
O422 O 0.54537 0.01146 0.50635 0.0
C423 C 0.53105 0.005 0.49029 0.0
H424 H 0.41627 0.01769 0.48373 0.0
H425 H 0.61704 0.0204 0.57126 0.0
Co426 Co 0.2913 0.2872 0.77744 0.0
C427 C 0.29 0.29447 0.72718 0.0
Co428 Co 0.26872 0.26263 0.75817 0.0
C429 C 0.32506 0.30437 0.81035 0.0
C430 C 0.31188 0.33188 0.78835 0.0
N431 N 0.30998 0.30879 0.79246 0.0
N432 N 0.33662 0.32369 0.81759 0.0
C433 C 0.32832 0.3411 0.80376 0.0
H434 H 0.32747 0.28714 0.8178 0.0
H435 H 0.30218 0.3413 0.77483 0.0
C436 C 0.26933 0.25543 0.80822 0.0
N437 N 0.25002 0.24076 0.74349 0.0
C438 C 0.23196 0.24506 0.72842 0.0
C439 C 0.24874 0.2177 0.74822 0.0
N440 N 0.21896 0.22581 0.72405 0.0
C441 C 0.2294 0.2085 0.73646 0.0
C442 C 0.31583 0.24669 0.7647 0.0
O443 O 0.28339 0.2729 0.80788 0.0
O444 O 0.26039 0.24885 0.78865 0.0
O445 O 0.2956 0.24203 0.75553 0.0
O446 O 0.31869 0.26664 0.77412 0.0
O447 O 0.27684 0.27636 0.72775 0.0
H448 H 0.25995 0.20859 0.76079 0.0
H449 H 0.22693 0.26245 0.72264 0.0
O450 O 0.29889 0.30158 0.74668 0.0
O451 O 0.26433 0.30742 0.78112 0.0
O452 O 0.24165 0.28365 0.76091 0.0
C453 C 0.2442 0.30294 0.77177 0.0
H454 H 0.33422 0.35906 0.80414 0.0
H455 H 0.22245 0.19096 0.73828 0.0
Co456 Co -0.00485 0.00675 0.48664 0.0
C457 C -0.00394 0.01054 0.53494 0.0
Co458 Co 0.01909 0.03514 0.49785 0.0
C459 C 0.98479 0.9676 0.45791 0.0
C460 C 0.95736 0.97169 0.48547 0.0
N461 N 0.9773 0.98192 0.47584 0.0
N462 N 0.97072 0.94865 0.45608 0.0
C463 C 0.9534 0.951 0.47343 0.0
H464 H 0.00146 0.97012 0.44752 0.0
H465 H 0.94724 0.97814 0.50103 0.0
C466 C 0.01748 0.03129 0.44946 0.0
N467 N 0.03656 0.06019 0.50893 0.0
C468 C 0.02855 0.0739 0.52717 0.0
C469 C 0.05734 0.07018 0.50095 0.0
N470 N 0.04331 0.09198 0.5311 0.0
C471 C 0.06148 0.08993 0.51456 0.0
C472 C 0.04381 0.99396 0.49313 0.0
O473 O 0.00205 0.01576 0.45487 0.0
O474 O 0.02811 0.04225 0.46585 0.0
O475 O 0.04637 0.01509 0.49961 0.0
O476 O 0.02325 0.98723 0.48622 0.0
O477 O 0.00985 0.02754 0.52991 0.0
H478 H 0.06843 0.06383 0.48597 0.0
H479 H 0.01155 0.07117 0.53692 0.0
O480 O 0.98817 -0.00194 0.5182 0.0
O481 O 0.96732 0.02623 0.48772 0.0
O482 O 0.99154 0.05508 0.49627 0.0
C483 C 0.97031 0.04765 0.49277 0.0
H484 H 0.93952 0.93831 0.47766 0.0
H485 H 0.07657 0.10179 0.51247 0.0
Co486 Co 0.27882 0.80912 0.79434 0.0
C487 C 0.23413 0.791 0.80849 0.0
Co488 Co 0.27737 0.77109 0.78858 0.0
C489 C 0.29022 0.85581 0.78119 0.0
C490 C 0.27194 0.85516 0.81533 0.0
N491 N 0.28036 0.8412 0.79742 0.0
N492 N 0.2884 0.8784 0.78814 0.0
C493 C 0.27692 0.87806 0.80971 0.0
H494 H 0.29899 0.84982 0.76472 0.0
H495 H 0.26281 0.84907 0.8314 0.0
C496 C 0.32153 0.78958 0.77326 0.0
N497 N 0.27595 0.7391 0.78526 0.0
C498 C 0.25662 0.72695 0.77822 0.0
C499 C 0.29252 0.72281 0.79142 0.0
N500 N 0.26009 0.70363 0.78016 0.0
C501 C 0.28281 0.70097 0.78833 0.0
C502 C 0.26229 0.79575 0.74995 0.0
O503 O 0.31163 0.80828 0.78153 0.0
O504 O 0.30982 0.77061 0.77491 0.0
O505 O 0.26497 0.77506 0.75759 0.0
O506 O 0.26734 0.81286 0.76334 0.0
O507 O 0.2445 0.77178 0.80228 0.0
H508 H 0.3101 0.72661 0.79861 0.0
H509 H 0.24009 0.73529 0.77234 0.0
O510 O 0.24599 0.80984 0.80643 0.0
O511 O 0.29033 0.80516 0.8258 0.0
O512 O 0.2898 0.76734 0.81928 0.0
C513 C 0.29403 0.78443 0.83302 0.0
H514 H 0.27233 0.89322 0.82065 0.0
H515 H 0.29144 0.68455 0.79287 0.0
Co516 Co 0.50892 0.01841 -0.00089 0.0
C517 C 0.55771 0.00676 0.00943 0.0
Co518 Co 0.52495 0.04083 0.02614 0.0
C519 C 0.50413 0.99319 0.95515 0.0
C520 C 0.47573 0.98532 0.98062 0.0
N521 N 0.4961 -0.00201 0.97755 0.0
N522 N 0.48939 0.97829 0.94399 0.0
C523 C 0.47152 0.97325 0.95998 0.0
H524 H 0.51955 0.00168 0.94666 0.0
H525 H 0.46411 0.98561 -0.0035 0.0
C526 C 0.47611 0.0519 0.01601 0.0
N527 N 0.53733 0.06113 0.04795 0.0
C528 C 0.54923 0.0552 0.06762 0.0
C529 C 0.53392 0.0845 0.04957 0.0
N530 N 0.55296 0.07381 0.08176 0.0
C531 C 0.54332 0.09234 0.0706 0.0
C532 C 0.52982 0.05762 0.97994 0.0
O533 O 0.47821 0.03444 0.00199 0.0
O534 O 0.4943 0.05773 0.02813 0.0
O535 O 0.53536 0.06078 0.00149 0.0
O536 O 0.51841 0.03931 0.97431 0.0
O537 O 0.55558 0.02386 0.024 0.0
H538 H 0.52408 0.09493 0.03693 0.0
H539 H 0.55343 0.03731 0.07237 0.0
O540 O 0.53973 0.00201 -0.00353 0.0
O541 O 0.49918 -0.0016 0.02355 0.0
O542 O 0.51415 0.02062 0.05124 0.0
C543 C 0.50266 0.00251 0.04533 0.0
H544 H 0.45583 0.96262 0.95653 0.0
H545 H 0.54219 0.11 0.07764 0.0
Co546 Co 0.26576 0.26 0.27503 0.0
C547 C 0.31514 0.26663 0.28489 0.0
Co548 Co 0.27958 0.29341 0.26226 0.0
C549 C 0.24009 0.21771 0.27238 0.0
C550 C 0.25886 0.21977 0.30515 0.0
N551 N 0.25425 0.23173 0.2852 0.0
N552 N 0.23572 0.19718 0.28324 0.0
C553 C 0.24751 0.19849 0.30401 0.0
H554 H 0.23353 0.22259 0.25514 0.0
H555 H 0.2702 0.22588 0.31929 0.0
C556 C 0.23037 0.28683 0.25207 0.0
N557 N 0.29124 0.32139 0.25139 0.0
C558 C 0.30686 0.3354 0.2625 0.0
C559 C 0.28755 0.33151 0.23016 0.0
N560 N 0.31327 0.35383 0.24901 0.0
C561 C 0.30111 0.35151 0.22863 0.0
C562 C 0.2825 0.25825 0.22733 0.0
O563 O 0.23369 0.26795 0.26344 0.0
O564 O 0.24789 0.30114 0.25049 0.0
O565 O 0.28766 0.27944 0.23163 0.0
O566 O 0.27375 0.2461 0.2443 0.0
O567 O 0.31141 0.2856 0.27383 0.0
H568 H 0.27605 0.32459 0.21655 0.0
H569 H 0.3139 0.33176 0.27992 0.0
O570 O 0.29776 0.25215 0.28665 0.0
O571 O 0.25787 0.27375 0.30561 0.0
O572 O 0.27139 0.30749 0.29319 0.0
C573 C 0.26276 0.29501 0.31008 0.0
H574 H 0.24853 0.18495 0.3173 0.0
H575 H 0.30182 0.36346 0.21377 0.0
Co576 Co 0.5149 0.50761 0.04825 0.0
C577 C 0.50276 0.5363 0.08561 0.0
Co578 Co 0.53619 0.53998 0.04764 0.0
C579 C 0.5121 0.45883 0.0435 0.0
C580 C 0.47647 0.47261 0.05169 0.0
N581 N 0.49989 0.47891 0.04845 0.0
N582 N 0.49746 0.4402 0.04298 0.0
C583 C 0.47491 0.44869 0.04832 0.0
H584 H 0.53155 0.45801 0.03986 0.0
H585 H 0.46149 0.48466 0.05551 0.0
C586 C 0.54742 0.51183 0.00954 0.0
N587 N 0.55183 0.56829 0.04704 0.0
C588 C 0.54187 0.58893 0.05404 0.0
C589 C 0.57424 0.57352 0.03829 0.0
N590 N 0.55702 0.60682 0.04999 0.0
C591 C 0.57744 0.59734 0.03999 0.0
C592 C 0.55951 0.50518 0.07101 0.0
O593 O 0.53181 0.49873 0.0195 0.0
O594 O 0.55199 0.53143 0.01887 0.0
O595 O 0.56205 0.52625 0.06452 0.0
O596 O 0.54017 0.49454 0.06612 0.0
O597 O 0.51974 0.54854 0.07658 0.0
H598 H 0.58725 0.56089 0.0309 0.0
H599 H 0.52353 0.59092 0.06144 0.0
O600 O 0.49804 0.51662 0.07637 0.0
O601 O 0.48944 0.52118 0.03069 0.0
O602 O 0.51039 0.55357 0.03068 0.0
C603 C 0.49132 0.54266 0.02532 0.0
H604 H 0.45841 0.43857 0.04871 0.0
H605 H 0.59353 0.6069 0.0346 0.0
Co606 Co 0.77751 0.29278 0.28518 0.0
C607 C 0.73272 0.27617 0.30286 0.0
Co608 Co 0.77026 0.25683 0.27365 0.0
C609 C 0.78815 0.34166 0.28074 0.0
C610 C 0.77811 0.33222 0.31649 0.0
N611 N 0.78225 0.32324 0.29445 0.0
N612 N 0.7876 0.36184 0.29332 0.0
C613 C 0.78137 0.35598 0.31585 0.0
H614 H 0.79199 0.34038 0.26175 0.0
H615 H 0.77251 0.3222 0.33193 0.0
C616 C 0.81485 0.27389 0.25598 0.0
N617 N 0.76462 0.22623 0.26526 0.0
C618 C 0.75418 0.2106 0.28001 0.0
C619 C 0.7665 0.21535 0.24391 0.0
N620 N 0.74868 0.1906 0.26874 0.0
C621 C 0.75667 0.19334 0.246 0.0
C622 C 0.75388 0.2889 0.24205 0.0
O623 O 0.80878 0.2917 0.26865 0.0
O624 O 0.80051 0.25656 0.25534 0.0
O625 O 0.75413 0.26725 0.24673 0.0
O626 O 0.76291 0.30322 0.25667 0.0
O627 O 0.73951 0.2576 0.29189 0.0
H628 H 0.77326 0.22335 0.22766 0.0
H629 H 0.74969 0.21429 0.29856 0.0
O630 O 0.74653 0.29378 0.3017 0.0
O631 O 0.7922 0.28219 0.31321 0.0
O632 O 0.78697 0.2463 0.30058 0.0
C633 C 0.79506 0.26037 0.31588 0.0
H634 H 0.77937 0.36796 0.33079 0.0
H635 H 0.75409 0.18102 0.2316 0.0
Co636 Co 0.00814 0.5049 0.49745 0.0
C637 C 0.05696 0.49594 0.50921 0.0
Co638 Co 0.02091 0.5266 0.52683 0.0
C639 C 0.9876 0.49926 0.45278 0.0
C640 C 0.00733 0.46816 0.4614 0.0
N641 N -0.00085 0.48873 0.47063 0.0
N642 N 0.9893 0.48693 0.43229 0.0
C643 C 0.00129 0.46702 0.43771 0.0
H644 H 0.97996 0.51673 0.45436 0.0
H645 H 0.01889 0.4559 0.47055 0.0
C646 C 0.97226 0.53546 0.51527 0.0
N647 N 0.02949 0.54369 0.55289 0.0
C648 C 0.04075 0.53546 0.57208 0.0
C649 C 0.02331 0.56604 0.55843 0.0
N650 N 0.04148 0.55159 0.58955 0.0
C651 C 0.0305 0.5709 0.5812 0.0
C652 C 0.02723 0.54879 0.48488 0.0
O653 O 0.97595 0.51894 0.50031 0.0
O654 O 0.98938 0.54123 0.5287 0.0
O655 O 0.03141 0.55103 0.50684 0.0
O656 O 0.01818 0.52991 0.4775 0.0
O657 O 0.05291 0.51193 0.52478 0.0
H658 H 0.0133 0.57769 0.54706 0.0
H659 H 0.04701 0.51752 0.57376 0.0
O660 O 0.04009 0.49095 0.49502 0.0
O661 O -0.00165 0.48026 0.51711 0.0
O662 O 0.00992 0.50187 0.5471 0.0
C663 C 0.00125 0.48286 0.53931 0.0
H664 H 0.00732 0.45368 0.42502 0.0
H665 H 0.02742 0.58705 0.59106 0.0
Co666 Co 0.78651 0.79448 0.28748 0.0
C667 C 0.77657 0.80054 0.23917 0.0
Co668 Co 0.75799 0.771 0.27561 0.0
C669 C 0.83226 0.80609 0.306 0.0
C670 C 0.81493 0.83615 0.29122 0.0
N671 N 0.81117 0.8136 0.29698 0.0
N672 N 0.84948 0.8226 0.30515 0.0
C673 C 0.83862 0.84169 0.29606 0.0
H674 H 0.83578 0.78804 0.31061 0.0
H675 H 0.80208 0.84711 0.28204 0.0
C676 C 0.76838 0.76589 0.32417 0.0
N677 N 0.73368 0.75192 0.26545 0.0
C678 C 0.71829 0.75752 0.24817 0.0
C679 C 0.72775 0.72993 0.27183 0.0
N680 N 0.70331 0.73999 0.24324 0.0
C681 C 0.70871 0.72256 0.25819 0.0
C682 C 0.80315 0.75088 0.27118 0.0
O683 O 0.78297 0.78237 0.31915 0.0
O684 O 0.75528 0.75785 0.30768 0.0
O685 O 0.78085 0.74784 0.26725 0.0
O686 O 0.80979 0.77029 0.27969 0.0
O687 O 0.7612 0.78452 0.2434 0.0
H688 H 0.73684 0.71984 0.28525 0.0
H689 H 0.71788 0.77427 0.2393 0.0
O690 O 0.78999 0.80682 0.25604 0.0
O691 O 0.76325 0.81814 0.29501 0.0
O692 O 0.73463 0.79431 0.28409 0.0
C693 C 0.74088 0.81414 0.29192 0.0
H694 H 0.84764 0.85784 0.29154 0.0
H695 H 0.69981 0.7058 0.25893 0.0
Co696 Co 0.76857 0.27673 0.7707 0.0
C697 C 0.77183 0.23392 0.74792 0.0
Co698 Co 0.75306 0.27694 0.73488 0.0
C699 C 0.76582 0.28425 0.82034 0.0
C700 C 0.79964 0.26717 0.81103 0.0
N701 N 0.77932 0.27626 0.80157 0.0
N702 N 0.77645 0.28021 0.84122 0.0
C703 C 0.79798 0.26972 0.83556 0.0
H704 H 0.74828 0.29285 0.8187 0.0
H705 H 0.81435 0.25877 0.80085 0.0
C706 C 0.75064 0.31983 0.7574 0.0
N707 N 0.74148 0.27775 0.7044 0.0
C708 C 0.72992 0.26064 0.69284 0.0
C709 C 0.74355 0.29526 0.68855 0.0
N710 N 0.7249 0.26663 0.67029 0.0
C711 C 0.7334 0.28847 0.66755 0.0
C712 C 0.71891 0.26683 0.76927 0.0
O713 O 0.76015 0.30892 0.77445 0.0
O714 O 0.746 0.30905 0.73833 0.0
O715 O 0.72143 0.26988 0.74698 0.0
O716 O 0.73731 0.26851 0.78223 0.0
O717 O 0.7606 0.24452 0.73163 0.0
H718 H 0.75246 0.31167 0.69182 0.0
H719 H 0.72634 0.24368 0.7005 0.0
O720 O 0.77708 0.24485 0.76681 0.0
O721 O 0.79964 0.28477 0.75883 0.0
O722 O 0.78462 0.28412 0.72294 0.0
C723 C 0.80256 0.28693 0.73642 0.0
H724 H 0.81116 0.26376 0.84821 0.0
H725 H 0.73296 0.29858 0.65134 0.0
Co726 Co 0.76378 0.75159 0.78496 0.0
C727 C 0.81185 0.76572 0.79057 0.0
Co728 Co 0.77066 0.78638 0.77058 0.0
C729 C 0.74832 0.70412 0.78695 0.0
C730 C 0.76243 0.71541 0.82022 0.0
N731 N 0.75826 0.72259 0.79781 0.0
N732 N 0.746 0.68585 0.80172 0.0
C733 C 0.75455 0.69281 0.82276 0.0
H734 H 0.74204 0.70429 0.76885 0.0
H735 H 0.77029 0.72604 0.83393 0.0
C736 C 0.72249 0.77164 0.76518 0.0
N737 N 0.77635 0.81525 0.75767 0.0
C738 C 0.78723 0.8335 0.76803 0.0
C739 C 0.7719 0.82225 0.73528 0.0
N740 N 0.78999 0.85144 0.75288 0.0
C741 C 0.78054 0.8445 0.73221 0.0
C742 C 0.77664 0.75022 0.73641 0.0
O743 O 0.7302 0.75423 0.77691 0.0
O744 O 0.73704 0.78832 0.76075 0.0
O745 O 0.77904 0.77201 0.74019 0.0
O746 O 0.77067 0.73739 0.75399 0.0
O747 O 0.80436 0.78419 0.78034 0.0
H748 H 0.76343 0.81166 0.7219 0.0
H749 H 0.7939 0.83331 0.78599 0.0
O750 O 0.79716 0.74887 0.79311 0.0
O751 O 0.75691 0.7659 0.81571 0.0
O752 O 0.76231 0.80083 0.80126 0.0
C753 C 0.75788 0.78787 0.81917 0.0
H754 H 0.75478 0.68238 0.83877 0.0
H755 H 0.7802 0.85472 0.71605 0.0
Co756 Co 0.51692 0.53369 0.49947 0.0
C757 C 0.50727 0.56528 0.53672 0.0
Co758 Co 0.51621 0.51606 0.53389 0.0
C759 C 0.50239 0.55919 0.45792 0.0
C760 C 0.54036 0.55037 0.45692 0.0
N761 N 0.51977 0.54838 0.47041 0.0
N762 N 0.51129 0.56774 0.43711 0.0
C763 C 0.53525 0.56234 0.43658 0.0
H764 H 0.4834 0.5599 0.46355 0.0
H765 H 0.55797 0.54316 0.46127 0.0
C766 C 0.52621 0.48515 0.49535 0.0
N767 N 0.51349 0.50107 0.56269 0.0
C768 C 0.51791 0.50931 0.58464 0.0
C769 C 0.50489 0.47931 0.56619 0.0
N770 N 0.51252 0.49349 0.60158 0.0
C771 C 0.5045 0.47452 0.59011 0.0
C772 C 0.47124 0.51619 0.51085 0.0
O773 O 0.52569 0.50445 0.48421 0.0
O774 O 0.52295 0.48579 0.5179 0.0
O775 O 0.48193 0.51101 0.52991 0.0
O776 O 0.48323 0.52683 0.49458 0.0
O777 O 0.50962 0.54692 0.54939 0.0
H778 H 0.49884 0.46777 0.55228 0.0
H779 H 0.52511 0.52648 0.58815 0.0
O780 O 0.50827 0.56289 0.51418 0.0
O781 O 0.55015 0.54058 0.50488 0.0
O782 O 0.55075 0.52103 0.53814 0.0
C783 C 0.56168 0.53387 0.52288 0.0
H784 H 0.54814 0.56618 0.42225 0.0
H785 H 0.49845 0.45854 0.59849 0.0
Co786 Co 0.01024 0.51436 3e-05 0.0
C787 C 0.02029 0.56085 0.98638 0.0
Co788 Co 0.0401 0.52974 0.01978 0.0
C789 C 0.96743 0.48792 -0.00456 0.0
C790 C 0.97714 0.50394 0.96225 0.0
N791 N 0.98411 0.50179 0.98498 0.0
N792 N 0.95035 0.48117 0.98026 0.0
C793 C 0.95617 0.49133 0.95932 0.0
H794 H 0.96751 0.48326 0.01409 0.0
H795 H 0.98663 0.51402 0.94874 0.0
C796 C 0.02993 0.48368 0.03415 0.0
N797 N 0.06642 0.5426 0.0344 0.0
C798 C 0.08529 0.55189 0.02216 0.0
C799 C 0.07146 0.54594 0.05755 0.0
N800 N 0.10206 0.56069 0.03649 0.0
C801 C 0.09348 0.55726 0.05889 0.0
C802 C -0.00381 0.53853 0.04147 0.0
O803 O 0.01397 0.48559 0.01824 0.0
O804 O 0.04366 0.5011 0.0378 0.0
O805 O 0.01882 0.54182 0.04362 0.0
O806 O 0.98882 0.5269 0.02384 0.0
O807 O 0.0363 0.55852 0.00213 0.0
H808 H 0.05987 0.54063 0.0724 0.0
H809 H 0.08653 0.55268 0.0029 0.0
O810 O 0.00687 0.54335 0.98203 0.0
O811 O 0.03141 0.5018 0.97629 0.0
O812 O 0.06136 0.51741 -0.00451 0.0
C813 C 0.05395 0.50546 0.97815 0.0
H814 H 0.94615 0.48961 0.9431 0.0
H815 H 0.10259 0.56228 0.07495 0.0
H816 H 0.02885 0.20384 0.08214 0.0
H817 H 0.00193 0.18603 0.15318 0.0
H818 H 0.99294 0.14654 0.13953 0.0
H819 H 0.98417 0.16801 0.04969 0.0
H820 H 0.00584 0.15843 0.02684 0.0
H821 H 0.00933 0.1864 0.04126 0.0
H822 H 0.05295 0.17448 0.05293 0.0
H823 H 0.04957 0.1465 0.03856 0.0
H824 H 0.05765 0.14793 0.06941 0.0
H825 H 0.98927 0.10803 0.12028 0.0
H826 H 0.99008 0.07243 0.09535 0.0
H827 H 0.01763 0.11241 0.03522 0.0
C828 C 0.02073 0.19172 0.09467 0.0
C829 C 0.01627 0.19844 0.11895 0.0
C830 C 0.00586 0.18167 0.13465 0.0
C831 C 0.00053 0.159 0.12704 0.0
C832 C 0.00551 0.15277 0.10342 0.0
C833 C 0.01525 0.16851 0.08729 0.0
C834 C 0.01936 0.15637 0.06305 0.0
C835 C 0.00374 0.168 0.04408 0.0
C836 C 0.0465 0.15632 0.05555 0.0
C837 C 0.01067 0.13153 0.06838 0.0
C838 C 0.00279 0.13008 0.09188 0.0
C839 C -0.00492 0.10902 0.10174 0.0
C840 C -0.00441 0.0888 0.08739 0.0
C841 C 0.00346 0.08949 0.06318 0.0
C842 C 0.01089 0.11134 0.05349 0.0
H843 H 0.10842 0.73384 0.3438 0.0
H844 H 0.11915 0.74401 0.41944 0.0
H845 H 0.16257 0.75267 0.41093 0.0
H846 H 0.16874 0.70838 0.32837 0.0
H847 H 0.17022 0.72348 0.30031 0.0
H848 H 0.14118 0.71497 0.31294 0.0
H849 H 0.12586 0.75797 0.31059 0.0
H850 H 0.15492 0.76668 0.29832 0.0
H851 H 0.14264 0.78067 0.32499 0.0
H852 H 0.20393 0.76327 0.39348 0.0
H853 H 0.23984 0.77443 0.36866 0.0
H854 H 0.20021 0.75891 0.3048 0.0
C855 C 0.11997 0.73735 0.35868 0.0
C856 C 0.11053 0.7382 0.38228 0.0
C857 C 0.12615 0.74319 0.40122 0.0
C858 C 0.15077 0.74812 0.39656 0.0
C859 C 0.15928 0.74793 0.37292 0.0
C860 C 0.14434 0.74252 0.35434 0.0
C861 C 0.15718 0.74523 0.33042 0.0
C862 C 0.15947 0.72161 0.31724 0.0
C863 C 0.14439 0.76374 0.3152 0.0
C864 C 0.18158 0.75351 0.33836 0.0
C865 C 0.18264 0.75468 0.36291 0.0
C866 C 0.20336 0.76226 0.37425 0.0
C867 C 0.22358 0.76863 0.36004 0.0
C868 C 0.22265 0.76764 0.33487 0.0
C869 C 0.20136 0.76002 0.324 0.0
H870 H 0.51656 0.84359 0.57698 0.0
H871 H 0.52724 0.8634 0.65068 0.0
H872 H 0.52529 0.90488 0.63975 0.0
H873 H 0.55135 0.89055 0.54988 0.0
H874 H 0.53079 0.89545 0.52592 0.0
H875 H 0.53325 0.86689 0.53907 0.0
H876 H 0.48679 0.86723 0.548 0.0
H877 H 0.48421 0.89582 0.53494 0.0
H878 H 0.47308 0.89106 0.56501 0.0
H879 H 0.52425 0.94437 0.6213 0.0
H880 H 0.52202 0.97972 0.59646 0.0
H881 H 0.50894 0.93673 0.5344 0.0
C882 C 0.51852 0.85668 0.59078 0.0
C883 C 0.52216 0.84991 0.61483 0.0
C884 C 0.5244 0.86781 0.63223 0.0
C885 C 0.52335 0.89158 0.62617 0.0
C886 C 0.51968 0.89766 0.60255 0.0
C887 C 0.51708 0.88083 0.58506 0.0
C888 C 0.51283 0.8926 0.56109 0.0
C889 C 0.53327 0.88597 0.54292 0.0
C890 C 0.48773 0.8863 0.55171 0.0
C891 C 0.51377 0.91851 0.56789 0.0
C892 C 0.51792 0.92084 0.59194 0.0
C893 C 0.52069 0.94275 0.60251 0.0
C894 C 0.51937 0.96279 0.58824 0.0
C895 C 0.51486 0.96117 0.56359 0.0
C896 C 0.51183 0.93862 0.5533 0.0
H897 H 0.4533 0.27526 0.87932 0.0
H898 H 0.46991 0.34732 0.89591 0.0
H899 H 0.42858 0.35948 0.88462 0.0
H900 H 0.42531 0.28692 0.82787 0.0
H901 H 0.40226 0.26487 0.83043 0.0
H902 H 0.43059 0.26096 0.84513 0.0
H903 H 0.4073 0.25596 0.88558 0.0
H904 H 0.37878 0.25979 0.87089 0.0
H905 H 0.3859 0.27825 0.8958 0.0
H906 H 0.38847 0.36464 0.86591 0.0
H907 H 0.35296 0.36252 0.8402 0.0
H908 H 0.36392 0.28736 0.83378 0.0
C909 C 0.44784 0.29344 0.88143 0.0
C910 C 0.46454 0.31034 0.88865 0.0
C911 C 0.45721 0.33412 0.89046 0.0
C912 C 0.43377 0.34116 0.88426 0.0
C913 C 0.41795 0.3242 0.87628 0.0
C914 C 0.42463 0.30079 0.87492 0.0
C915 C 0.40569 0.2866 0.8625 0.0
C916 C 0.41662 0.27413 0.84016 0.0
C917 C 0.39371 0.26912 0.87973 0.0
C918 C 0.38801 0.30586 0.85605 0.0
C919 C 0.39503 0.3273 0.86468 0.0
C920 C 0.38255 0.34789 0.85935 0.0
C921 C 0.36254 0.34653 0.84449 0.0
C922 C 0.35551 0.32479 0.83481 0.0
C923 C 0.36826 0.30423 0.84116 0.0
H924 H 0.0055 0.81534 0.43103 0.0
H925 H 0.0404 0.83967 0.36544 0.0
H926 H 0.02446 0.87923 0.37344 0.0
H927 H 0.95117 0.8523 0.42863 0.0
H928 H 0.94983 0.85831 0.4602 0.0
H929 H 0.96288 0.83112 0.44915 0.0
H930 H 0.00293 0.83954 0.47076 0.0
H931 H 0.98985 0.86654 0.48214 0.0
H932 H 0.01831 0.86671 0.46535 0.0
H933 H 0.0058 0.916 0.388 0.0
H934 H 0.98883 0.9495 0.41115 0.0
H935 H 0.96655 0.9028 0.46799 0.0
C936 C 0.00975 0.829 0.41838 0.0
C937 C 0.02419 0.82429 0.39759 0.0
C938 C 0.02949 0.84273 0.38156 0.0
C939 C 0.02034 0.8653 0.3858 0.0
C940 C 0.00599 0.86931 0.40622 0.0
C941 C 0.00094 0.85186 0.42246 0.0
C942 C 0.9862 0.86148 0.44369 0.0
C943 C 0.96102 0.85012 0.44552 0.0
C944 C 0.00016 0.85839 0.46685 0.0
C945 C 0.9841 0.88704 0.43686 0.0
C946 C -0.00462 0.89098 0.41498 0.0
C947 C -0.00318 0.91318 0.40512 0.0
C948 C 0.98717 0.93207 0.41836 0.0
C949 C 0.97638 0.92867 0.44124 0.0
C950 C 0.97427 0.90578 0.45034 0.0
H951 H 0.44406 0.73865 0.70954 0.0
H952 H 0.45679 0.80833 0.68223 0.0
H953 H 0.41878 0.82236 0.70264 0.0
H954 H 0.378 0.74052 0.70327 0.0
H955 H 0.37223 0.72389 0.72995 0.0
H956 H 0.40022 0.7194 0.71293 0.0
H957 H 0.42473 0.728 0.75065 0.0
H958 H 0.39682 0.73276 0.76772 0.0
H959 H 0.41956 0.75517 0.76656 0.0
H960 H 0.38076 0.82936 0.72854 0.0
H961 H 0.34314 0.82791 0.75358 0.0
H962 H 0.35357 0.75314 0.76213 0.0
C963 C 0.43877 0.75683 0.70767 0.0
C964 C 0.45353 0.77241 0.69428 0.0
C965 C 0.4458 0.79602 0.69223 0.0
C966 C 0.42428 0.80418 0.7039 0.0
C967 C 0.41042 0.78846 0.7173 0.0
C968 C 0.41712 0.76517 0.71887 0.0
C969 C 0.39873 0.75178 0.73401 0.0
C970 C 0.38657 0.73277 0.71915 0.0
C971 C 0.41068 0.74132 0.75604 0.0
C972 C 0.38079 0.77122 0.74099 0.0
C973 C 0.38802 0.79229 0.73137 0.0
C974 C 0.37484 0.81291 0.73595 0.0
C975 C 0.35353 0.81192 0.75036 0.0
C976 C 0.34531 0.79042 0.75985 0.0
C977 C 0.35928 0.76983 0.75509 0.0
H978 H 0.54803 0.19137 0.95426 0.0
H979 H 0.50485 0.18305 0.89133 0.0
H980 H 0.50476 0.14021 0.89742 0.0
H981 H 0.58516 0.13893 0.94602 0.0
H982 H 0.5854 0.13275 0.97745 0.0
H983 H 0.58293 0.16253 0.96745 0.0
H984 H 0.54306 0.16843 0.99286 0.0
H985 H 0.5457 0.13885 0.00321 0.0
H986 H 0.5183 0.14849 0.98911 0.0
H987 H 0.50794 0.09823 0.91188 0.0
H988 H 0.51123 0.06178 0.93513 0.0
H989 H 0.55337 0.09838 0.98751 0.0
C990 C 0.53857 0.18058 0.9417 0.0
C991 C 0.52643 0.19053 0.92233 0.0
C992 C 0.51423 0.17578 0.90634 0.0
C993 C 0.51423 0.15144 0.90955 0.0
C994 C 0.52665 0.14218 0.92873 0.0
C995 C 0.53848 0.15638 0.94458 0.0
C996 C 0.5495 0.14241 0.9644 0.0
C997 C 0.5774 0.14427 0.96377 0.0
C998 C 0.53847 0.14999 0.98883 0.0
C999 C 0.54164 0.11814 0.95755 0.0
C1000 C 0.5287 0.11822 0.93681 0.0
C1001 C 0.51829 0.09793 0.92799 0.0
C1002 C 0.52038 0.07726 0.94122 0.0
C1003 C 0.53265 0.07719 0.96308 0.0
C1004 C 0.5441 0.09775 0.97075 0.0
H1005 H 0.09516 0.26265 0.20391 0.0
H1006 H 0.11485 0.30622 0.1437 0.0
H1007 H 0.15451 0.31428 0.1616 0.0
H1008 H 0.12509 0.29512 0.24997 0.0
H1009 H 0.13611 0.26964 0.26525 0.0
H1010 H 0.10862 0.26812 0.24858 0.0
H1011 H 0.12682 0.2334 0.22386 0.0
H1012 H 0.15428 0.23471 0.24057 0.0
H1013 H 0.15588 0.23655 0.20854 0.0
H1014 H 0.19136 0.31915 0.18681 0.0
H1015 H 0.22549 0.31584 0.21414 0.0
H1016 H 0.18488 0.26566 0.25652 0.0
C1017 C 0.10785 0.27394 0.19459 0.0
C1018 C 0.10176 0.28404 0.17246 0.0
C1019 C 0.11905 0.29834 0.16061 0.0
C1020 C 0.1416 0.3031 0.17073 0.0
C1021 C 0.14704 0.29301 0.19255 0.0
C1022 C 0.13093 0.27828 0.20412 0.0
C1023 C 0.14218 0.26843 0.22655 0.0
C1024 C 0.1271 0.27577 0.24891 0.0
C1025 C 0.14495 0.24169 0.22477 0.0
C1026 C 0.16695 0.28016 0.22592 0.0
C1027 C 0.1691 0.29457 0.20633 0.0
C1028 C 0.18991 0.30777 0.2021 0.0
C1029 C 0.20922 0.30588 0.2179 0.0
C1030 C 0.20806 0.29055 0.23766 0.0
C1031 C 0.18643 0.2776 0.24168 0.0
H1032 H 0.15459 0.99377 0.18198 0.0
H1033 H 0.12487 0.93168 0.2146 0.0
H1034 H 0.10427 0.92214 0.17745 0.0
H1035 H 0.10417 0.01204 0.16041 0.0
H1036 H 0.11526 0.02412 0.13264 0.0
H1037 H 0.13527 0.0215 0.15711 0.0
H1038 H 0.16585 -0.00303 0.13104 0.0
H1039 H 0.14598 -0.00018 0.10617 0.0
H1040 H 0.15566 0.97124 0.11576 0.0
H1041 H 0.07762 0.92581 0.14401 0.0
H1042 H 0.04784 0.94194 0.11616 0.0
H1043 H 0.09353 0.00179 0.10388 0.0
C1044 C 0.14497 0.97744 0.18062 0.0
C1045 C 0.1416 0.96313 0.20075 0.0
C1046 C 0.1279 0.94254 0.19909 0.0
C1047 C 0.11624 0.93698 0.17802 0.0
C1048 C 0.1184 0.95229 0.15888 0.0
C1049 C 0.13274 0.972 0.15982 0.0
C1050 C 0.12789 0.98816 0.13913 0.0
C1051 C 0.12017 0.01288 0.14787 0.0
C1052 C 0.15017 0.98909 0.12201 0.0
C1053 C 0.10707 0.97557 0.12778 0.0
C1054 C 0.10244 0.95452 0.13896 0.0
C1055 C 0.08161 0.94174 0.13447 0.0
C1056 C 0.06473 0.95103 0.1188 0.0
C1057 C 0.06885 0.97276 0.10778 0.0
C1058 C 0.09066 0.9847 0.11156 0.0
H1059 H 0.26067 0.83989 0.48598 0.0
H1060 H 0.28692 0.90757 0.46338 0.0
H1061 H 0.31392 0.88828 0.43291 0.0
H1062 H 0.31719 0.80567 0.47477 0.0
H1063 H 0.30121 0.78093 0.46322 0.0
H1064 H 0.2867 0.79962 0.48555 0.0
H1065 H 0.25027 0.8069 0.45798 0.0
H1066 H 0.26445 0.78789 0.43591 0.0
H1067 H 0.25604 0.81738 0.42816 0.0
H1068 H 0.33617 0.862 0.40373 0.0
H1069 H 0.34614 0.83156 0.37325 0.0
H1070 H 0.30318 0.78168 0.41297 0.0
C1071 C 0.2724 0.85055 0.47481 0.0
C1072 C 0.27203 0.8751 0.47703 0.0
C1073 C 0.28704 0.88868 0.46181 0.0
C1074 C 0.30261 0.87788 0.44472 0.0
C1075 C 0.30267 0.85356 0.44301 0.0
C1076 C 0.28758 0.8401 0.45732 0.0
C1077 C 0.28861 0.81468 0.44979 0.0
C1078 C 0.29905 0.79932 0.46951 0.0
C1079 C 0.26335 0.80623 0.44252 0.0
C1080 C 0.30614 0.81602 0.4286 0.0
C1081 C 0.31468 0.83846 0.42546 0.0
C1082 C 0.32993 0.8443 0.4062 0.0
C1083 C 0.33571 0.82696 0.38915 0.0
C1084 C 0.32584 0.80439 0.39136 0.0
C1085 C 0.31148 0.79869 0.41156 0.0
H1086 H 0.47783 0.07124 0.70134 0.0
H1087 H 0.40555 0.09447 0.68211 0.0
H1088 H 0.41952 0.09715 0.64013 0.0
H1089 H 0.51346 0.10407 0.65186 0.0
H1090 H 0.53428 0.07959 0.64832 0.0
H1091 H 0.52114 0.08672 0.67732 0.0
H1092 H 0.50529 0.04442 0.68094 0.0
H1093 H 0.51786 0.03725 0.65195 0.0
H1094 H 0.48587 0.03311 0.65834 0.0
H1095 H 0.43713 0.08741 0.60091 0.0
H1096 H 0.45784 0.06781 0.56675 0.0
H1097 H 0.51911 0.05048 0.61067 0.0
C1098 C 0.46523 0.07785 0.68843 0.0
C1099 C 0.44063 0.08258 0.69482 0.0
C1100 C 0.4245 0.09078 0.67749 0.0
C1101 C 0.43233 0.0925 0.65365 0.0
C1102 C 0.45636 0.08623 0.64764 0.0
C1103 C 0.47274 0.07944 0.66459 0.0
C1104 C 0.49612 0.06977 0.65322 0.0
C1105 C 0.51751 0.08601 0.65796 0.0
C1106 C 0.50156 0.04466 0.6616 0.0
C1107 C 0.4895 0.07028 0.62731 0.0
C1108 C 0.46677 0.08048 0.62447 0.0
C1109 C 0.45523 0.08007 0.60275 0.0
C1110 C 0.46701 0.06864 0.58356 0.0
C1111 C 0.49003 0.0577 0.58625 0.0
C1112 C 0.50172 0.05912 0.60817 0.0
H1113 H 0.27383 0.22147 0.94834 0.0
H1114 H 0.24732 0.15348 0.92733 0.0
H1115 H 0.24534 0.16665 0.88578 0.0
H1116 H 0.2386 0.25641 0.90737 0.0
H1117 H 0.26283 0.27638 0.90033 0.0
H1118 H 0.26148 0.26225 0.92893 0.0
H1119 H 0.30528 0.24601 0.92168 0.0
H1120 H 0.30677 0.26015 0.8931 0.0
H1121 H 0.31242 0.22913 0.8951 0.0
H1122 H 0.24516 0.18687 0.84657 0.0
H1123 H 0.25011 0.21186 0.81132 0.0
H1124 H 0.27939 0.26672 0.85551 0.0
C1125 C 0.26752 0.20943 0.93498 0.0
C1126 C 0.26058 0.18637 0.9413 0.0
C1127 C 0.25276 0.17114 0.92311 0.0
C1128 C 0.25148 0.1785 0.89938 0.0
C1129 C 0.25842 0.20117 0.8937 0.0
C1130 C 0.2666 0.21639 0.91084 0.0
C1131 C 0.27396 0.23949 0.8994 0.0
C1132 C 0.25828 0.25984 0.90962 0.0
C1133 C 0.30123 0.24395 0.9025 0.0
C1134 C 0.26844 0.23485 0.87331 0.0
C1135 C 0.25925 0.21266 0.87061 0.0
C1136 C 0.25241 0.20425 0.84846 0.0
C1137 C 0.25521 0.21871 0.82847 0.0
C1138 C 0.26507 0.2414 0.83042 0.0
C1139 C 0.27175 0.24952 0.8533 0.0
H1140 H 0.1096 0.02137 0.33906 0.0
H1141 H 0.04652 0.01686 0.29447 0.0
H1142 H 0.01957 0.02544 0.32938 0.0
H1143 H 0.08376 0.99408 0.3896 0.0
H1144 H 0.09803 0.01274 0.41093 0.0
H1145 H 0.11239 0.00763 0.38213 0.0
H1146 H 0.11345 0.05234 0.37495 0.0
H1147 H 0.09884 0.05755 0.40369 0.0
H1148 H 0.08555 0.06927 0.37725 0.0
H1149 H -0.00057 0.03023 0.36931 0.0
H1150 H 0.98738 0.03173 0.41206 0.0
H1151 H 0.06324 0.03608 0.43053 0.0
C1152 C 0.09012 0.0223 0.33664 0.0
C1153 C 0.08013 0.01838 0.31408 0.0
C1154 C 0.05457 0.01986 0.31158 0.0
C1155 C 0.03912 0.02478 0.33128 0.0
C1156 C 0.04954 0.02857 0.35325 0.0
C1157 C 0.07443 0.02755 0.35605 0.0
C1158 C 0.08085 0.03154 0.3818 0.0
C1159 C 0.09456 0.01023 0.39169 0.0
C1160 C 0.09554 0.05402 0.38457 0.0
C1161 C 0.05561 0.03421 0.39312 0.0
C1162 C 0.03782 0.03252 0.37629 0.0
C1163 C 0.01313 0.03214 0.38262 0.0
C1164 C 0.00646 0.03301 0.40686 0.0
C1165 C 0.0244 0.03457 0.42432 0.0
C1166 C 0.04921 0.03573 0.41737 0.0
H1167 H 0.24031 0.87669 0.63864 0.0
H1168 H 0.23875 0.81403 0.59473 0.0
H1169 H 0.24208 0.78971 0.63079 0.0
H1170 H 0.28453 0.85618 0.67827 0.0
H1171 H 0.27068 0.87052 0.70404 0.0
H1172 H 0.26678 0.88263 0.67489 0.0
H1173 H 0.21986 0.88149 0.6815 0.0
H1174 H 0.22371 0.86922 0.71064 0.0
H1175 H 0.20559 0.85426 0.68922 0.0
H1176 H 0.24722 0.7724 0.67183 0.0
H1177 H 0.25535 0.76376 0.71406 0.0
H1178 H 0.25349 0.83814 0.73008 0.0
C1179 C 0.24047 0.85785 0.63658 0.0
C1180 C 0.2392 0.84722 0.61394 0.0
C1181 C 0.23968 0.82252 0.61197 0.0
C1182 C 0.24149 0.80857 0.63233 0.0
C1183 C 0.24276 0.81966 0.65442 0.0
C1184 C 0.24233 0.84375 0.65662 0.0
C1185 C 0.24502 0.85147 0.68216 0.0
C1186 C 0.26813 0.86605 0.68499 0.0
C1187 C 0.22218 0.8649 0.69142 0.0
C1188 C 0.24735 0.82796 0.694 0.0
C1189 C 0.24581 0.80978 0.67783 0.0
C1190 C 0.24829 0.7865 0.68469 0.0
C1191 C 0.25285 0.78176 0.70868 0.0
C1192 C 0.25501 0.80026 0.72533 0.0
C1193 C 0.25184 0.82357 0.71783 0.0
H1194 H 0.43113 0.00476 0.82313 0.0
H1195 H 0.5035 0.0008 0.7904 0.0
H1196 H 0.51924 0.98331 0.82732 0.0
H1197 H 0.44696 0.02247 0.87808 0.0
H1198 H 0.42473 0.00557 0.89444 0.0
H1199 H 0.41905 0.01411 0.8644 0.0
H1200 H 0.41289 0.97067 0.85273 0.0
H1201 H 0.41876 0.96197 0.88286 0.0
H1202 H 0.43651 0.9494 0.85837 0.0
H1203 H 0.52785 0.97368 0.8699 0.0
H1204 H 0.52827 0.97138 0.91394 0.0
H1205 H 0.44974 0.97892 0.9172 0.0
C1206 C 0.45022 -0.00018 0.82364 0.0
C1207 C 0.46624 0.00424 0.80425 0.0
C1208 C 0.49103 -0.00253 0.80526 0.0
C1209 C 0.50005 0.98745 0.82603 0.0
C1210 C 0.48379 0.98374 0.84514 0.0
C1211 C 0.4593 0.98938 0.8439 0.0
C1212 C 0.44588 0.98551 0.86732 0.0
C1213 C 0.43346 0.00826 0.8766 0.0
C1214 C 0.42743 0.9657 0.86518 0.0
C1215 C 0.4669 0.97827 0.88245 0.0
C1216 C 0.48861 0.977 0.86934 0.0
C1217 C 0.51091 0.97387 0.88022 0.0
C1218 C 0.51102 0.97267 0.90516 0.0
C1219 C 0.489 0.97456 0.91876 0.0
C1220 C 0.46671 0.97654 0.90715 0.0
H1221 H 0.25608 0.16704 0.12197 0.0
H1222 H 0.28054 0.21954 0.07158 0.0
H1223 H 0.28937 0.24607 0.1052 0.0
H1224 H 0.22678 0.20729 0.16434 0.0
H1225 H 0.23558 0.19063 0.18992 0.0
H1226 H 0.23114 0.17606 0.16188 0.0
H1227 H 0.27476 0.15844 0.16328 0.0
H1228 H 0.27935 0.17318 0.19121 0.0
H1229 H 0.30025 0.17763 0.16636 0.0
H1230 H 0.2963 0.26678 0.14495 0.0
H1231 H 0.2982 0.28063 0.18664 0.0
H1232 H 0.26875 0.2147 0.21109 0.0
C1233 C 0.26323 0.18414 0.1179 0.0
C1234 C 0.26763 0.19109 0.09391 0.0
C1235 C 0.27691 0.21373 0.08964 0.0
C1236 C 0.28208 0.22891 0.10869 0.0
C1237 C 0.27778 0.22137 0.13205 0.0
C1238 C 0.26833 0.19956 0.13668 0.0
C1239 C 0.26503 0.19572 0.16337 0.0
C1240 C 0.23803 0.19223 0.17028 0.0
C1241 C 0.28079 0.17501 0.17153 0.0
C1242 C 0.2742 0.21872 0.1731 0.0
C1243 C 0.28156 0.23326 0.15476 0.0
C1244 C 0.29057 0.25548 0.15938 0.0
C1245 C 0.29169 0.26317 0.18322 0.0
C1246 C 0.28383 0.24878 0.20236 0.0
C1247 C 0.27518 0.22613 0.19703 0.0
H1248 H 0.19416 0.09249 0.04006 0.0
H1249 H 0.17484 0.14896 0.9927 0.0
H1250 H 0.13502 0.13087 0.98639 0.0
H1251 H 0.16337 0.04551 0.00982 0.0
H1252 H 0.15227 0.03174 0.03673 0.0
H1253 H 0.18002 0.04819 0.03688 0.0
H1254 H 0.16235 0.07399 0.07143 0.0
H1255 H 0.13463 0.05751 0.07145 0.0
H1256 H 0.1335 0.08882 0.06809 0.0
H1257 H 0.09836 0.1064 0.98357 0.0
H1258 H 0.06397 0.0799 0.98835 0.0
H1259 H 0.10342 0.04024 0.04093 0.0
C1260 C 0.18152 0.10092 0.0283 0.0
C1261 C 0.18773 0.12209 0.01664 0.0
C1262 C 0.17054 0.13281 0.00177 0.0
C1263 C 0.14789 0.12259 -0.002 0.0
C1264 C 0.1423 0.1018 0.00964 0.0
C1265 C 0.15832 0.09124 0.02488 0.0
C1266 C 0.14677 0.0697 0.03622 0.0
C1267 C 0.16149 0.04746 0.02951 0.0
C1268 C 0.14416 0.07269 0.06341 0.0
C1269 C 0.12192 0.06974 0.02474 0.0
C1270 C 0.12011 0.08828 0.00919 0.0
C1271 C 0.09949 0.09194 -0.00416 0.0
C1272 C 0.08001 0.07658 -0.00136 0.0
C1273 C 0.08074 0.0578 0.01503 0.0
C1274 C 0.10216 0.05436 0.02826 0.0
H1275 H 0.691 0.45488 0.05025 0.0
H1276 H 0.66256 0.38931 0.07669 0.0
H1277 H 0.62581 0.41001 0.09259 0.0
H1278 H 0.66404 0.49389 0.09835 0.0
H1279 H 0.65718 0.51661 0.07738 0.0
H1280 H 0.68328 0.49762 0.07213 0.0
H1281 H 0.66727 0.48623 0.03066 0.0
H1282 H 0.64145 0.50539 0.03569 0.0
H1283 H 0.63688 0.47502 0.0286 0.0
H1284 H 0.59048 0.43617 0.10067 0.0
H1285 H 0.55713 0.46485 0.09626 0.0
H1286 H 0.60789 0.51372 0.06427 0.0
C1287 C 0.67727 0.44502 0.05991 0.0
C1288 C 0.67959 0.42058 0.06245 0.0
C1289 C 0.66106 0.40808 0.0746 0.0
C1290 C 0.64029 0.41972 0.08392 0.0
C1291 C 0.63839 0.44383 0.08093 0.0
C1292 C 0.65629 0.45633 0.06905 0.0
C1293 C 0.6483 0.48142 0.06521 0.0
C1294 C 0.66415 0.49838 0.07911 0.0
C1295 C 0.64847 0.48734 0.03846 0.0
C1296 C 0.62266 0.48078 0.07578 0.0
C1297 C 0.61758 0.45909 0.08535 0.0
C1298 C 0.59434 0.45336 0.09372 0.0
C1299 C 0.57552 0.46977 0.09116 0.0
C1300 C 0.58006 0.49153 0.08013 0.0
C1301 C 0.60409 0.49748 0.07338 0.0
H1302 H 0.86568 0.45446 0.22361 0.0
H1303 H 0.82833 0.50787 0.26676 0.0
H1304 H 0.79954 0.47839 0.28185 0.0
H1305 H 0.81028 0.41885 0.21081 0.0
H1306 H 0.82743 0.3919 0.21292 0.0
H1307 H 0.84212 0.4179 0.20208 0.0
H1308 H 0.87462 0.41354 0.23439 0.0
H1309 H 0.85998 0.38774 0.24544 0.0
H1310 H 0.86497 0.41198 0.2653 0.0
H1311 H 0.77938 0.44247 0.29708 0.0
H1312 H 0.76818 0.40279 0.31006 0.0
H1313 H 0.81879 0.37297 0.25712 0.0
C1314 C 0.85102 0.46014 0.23569 0.0
C1315 C 0.84927 0.48347 0.24401 0.0
C1316 C 0.83001 0.49011 0.26007 0.0
C1317 C 0.81351 0.4735 0.2687 0.0
C1318 C 0.81635 0.45045 0.26084 0.0
C1319 C 0.83443 0.44382 0.24443 0.0
C1320 C 0.83515 0.4176 0.24067 0.0
C1321 C 0.82833 0.41119 0.2151 0.0
C1322 C 0.86015 0.40711 0.24683 0.0
C1323 C 0.81552 0.41043 0.25845 0.0
C1324 C 0.80462 0.42964 0.26961 0.0
C1325 C 0.78744 0.42731 0.28815 0.0
C1326 C 0.78139 0.40474 0.29556 0.0
C1327 C 0.79261 0.38485 0.28454 0.0
C1328 C 0.80956 0.38783 0.2655 0.0
H1329 H 0.83028 0.56751 0.53218 0.0
H1330 H 0.84833 0.63911 0.51494 0.0
H1331 H 0.89154 0.62713 0.5083 0.0
H1332 H 0.88336 0.55274 0.56309 0.0
H1333 H 0.88614 0.52341 0.5513 0.0
H1334 H 0.85665 0.53745 0.55401 0.0
H1335 H 0.84992 0.53034 0.50909 0.0
H1336 H 0.87935 0.51613 0.50626 0.0
H1337 H 0.87215 0.54053 0.48745 0.0
H1338 H 0.93348 0.60781 0.50754 0.0
H1339 H 0.97003 0.58205 0.50804 0.0
H1340 H 0.92436 0.52226 0.52206 0.0
C1341 C 0.84329 0.58065 0.5268 0.0
C1342 C 0.83593 0.60433 0.5242 0.0
C1343 C 0.85349 0.62091 0.51695 0.0
C1344 C 0.8781 0.61425 0.51324 0.0
C1345 C 0.88478 0.59083 0.51633 0.0
C1346 C 0.86778 0.5742 0.52249 0.0
C1347 C 0.87962 0.55014 0.52438 0.0
C1348 C 0.87624 0.54037 0.5497 0.0
C1349 C 0.86967 0.53329 0.50568 0.0
C1350 C 0.90607 0.55585 0.51886 0.0
C1351 C 0.90867 0.57949 0.51449 0.0
C1352 C 0.93154 0.58925 0.51053 0.0
C1353 C 0.9522 0.57452 0.51094 0.0
C1354 C 0.94991 0.55021 0.51483 0.0
C1355 C 0.92652 0.54073 0.51865 0.0
H1356 H 0.17801 0.07114 0.28595 0.0
H1357 H 0.15473 0.08254 0.21366 0.0
H1358 H 0.17277 0.12202 0.21439 0.0
H1359 H 0.16522 0.12962 0.30709 0.0
H1360 H 0.19102 0.12999 0.3262 0.0
H1361 H 0.17643 0.10278 0.31968 0.0
H1362 H 0.21776 0.08523 0.30424 0.0
H1363 H 0.23247 0.11238 0.31069 0.0
H1364 H 0.23475 0.10006 0.28106 0.0
H1365 H 0.1948 0.15947 0.22289 0.0
H1366 H 0.21708 0.19263 0.23852 0.0
H1367 H 0.22375 0.15676 0.30623 0.0
C1368 C 0.17677 0.08186 0.27019 0.0
C1369 C 0.1652 0.07378 0.24965 0.0
C1370 C 0.16358 0.08847 0.22955 0.0
C1371 C 0.17377 0.11083 0.22981 0.0
C1372 C 0.18514 0.11819 0.2504 0.0
C1373 C 0.18647 0.1042 0.27027 0.0
C1374 C 0.19924 0.11623 0.29032 0.0
C1375 C 0.18194 0.11987 0.3121 0.0
C1376 C 0.22243 0.10267 0.29695 0.0
C1377 C 0.20527 0.13915 0.27853 0.0
C1378 C 0.19706 0.13994 0.25552 0.0
C1379 C 0.20109 0.15914 0.24098 0.0
C1380 C 0.21382 0.17804 0.25021 0.0
C1381 C 0.22232 0.17773 0.27392 0.0
C1382 C 0.21776 0.15788 0.28812 0.0
H1383 H 0.28661 0.98297 0.52971 0.0
H1384 H 0.30424 0.92714 0.5786 0.0
H1385 H 0.34637 0.94142 0.58013 0.0
H1386 H 0.33743 0.97746 0.49532 0.0
H1387 H 0.34164 0.00806 0.48924 0.0
H1388 H 0.31169 -0.00262 0.49617 0.0
H1389 H 0.30655 0.027 0.53112 0.0
H1390 H 0.33637 0.03822 0.524 0.0
H1391 H 0.32922 0.02803 0.55366 0.0
H1392 H 0.38754 0.95724 0.57093 0.0
H1393 H 0.42456 0.97435 0.55304 0.0
H1394 H 0.3802 0.01939 0.50943 0.0
C1395 C 0.29902 0.97423 0.54148 0.0
C1396 C 0.2921 0.95398 0.55413 0.0
C1397 C 0.3091 0.94277 0.56887 0.0
C1398 C 0.33305 0.95077 0.56987 0.0
C1399 C 0.33958 0.97004 0.55614 0.0
C1400 C 0.32297 0.98181 0.54245 0.0
C1401 C 0.33515 0.00013 0.52704 0.0
C1402 C 0.33124 -0.00454 0.50038 0.0
C1403 C 0.3263 0.02481 0.53441 0.0
C1404 C 0.36139 -0.00391 0.53337 0.0
C1405 C 0.36351 0.97899 0.55051 0.0
C1406 C 0.38607 0.97106 0.55795 0.0
C1407 C 0.40701 0.98091 0.54767 0.0
C1408 C 0.40526 -0.00161 0.52997 0.0
C1409 C 0.3821 0.0061 0.5229 0.0
H1410 H 0.83714 0.61715 0.25303 0.0
H1411 H 0.91142 0.63309 0.27109 0.0
H1412 H 0.89975 0.6748 0.27633 0.0
H1413 H 0.82688 0.66747 0.21863 0.0
H1414 H 0.7955 0.67112 0.22834 0.0
H1415 H 0.80937 0.64243 0.22759 0.0
H1416 H 0.79788 0.63677 0.27233 0.0
H1417 H 0.78362 0.66529 0.27309 0.0
H1418 H 0.80703 0.65826 0.29381 0.0
H1419 H 0.87958 0.71512 0.27877 0.0
H1420 H 0.85237 0.75004 0.27932 0.0
H1421 H 0.79249 0.70664 0.25776 0.0
C1422 C 0.85091 0.62931 0.25844 0.0
C1423 C 0.87512 0.62193 0.26179 0.0
C1424 C 0.89269 0.63844 0.26854 0.0
C1425 C 0.88627 0.66213 0.27149 0.0
C1426 C 0.86229 0.6689 0.26748 0.0
C1427 C 0.8449 0.65291 0.2612 0.0
C1428 C 0.82057 0.66455 0.25727 0.0
C1429 C 0.81263 0.66119 0.23142 0.0
C1430 C 0.80114 0.65569 0.2752 0.0
C1431 C 0.82694 0.68963 0.26223 0.0
C1432 C 0.85101 0.69191 0.26819 0.0
C1433 C 0.86071 0.71355 0.27403 0.0
C1434 C 0.84519 0.73326 0.27418 0.0
C1435 C 0.82039 0.73106 0.2684 0.0
C1436 C 0.81141 0.70899 0.26203 0.0
H1437 H 0.67171 0.42599 0.80744 0.0
H1438 H 0.69253 0.46304 0.74293 0.0
H1439 H 0.72256 0.43192 0.73266 0.0
H1440 H 0.7342 0.40208 0.81948 0.0
H1441 H 0.72206 0.37489 0.83028 0.0
H1442 H 0.70467 0.40166 0.83432 0.0
H1443 H 0.66838 0.38291 0.81312 0.0
H1444 H 0.68565 0.35621 0.80896 0.0
H1445 H 0.67309 0.37074 0.78361 0.0
H1446 H 0.74429 0.39423 0.72578 0.0
H1447 H 0.75904 0.3532 0.72438 0.0
H1448 H 0.72692 0.34157 0.79462 0.0
C1449 C 0.68299 0.4278 0.79144 0.0
C1450 C 0.67981 0.44685 0.77594 0.0
C1451 C 0.69476 0.4486 0.75509 0.0
C1452 C 0.7119 0.43106 0.74914 0.0
C1453 C 0.71417 0.41219 0.76448 0.0
C1454 C 0.70044 0.4106 0.78542 0.0
C1455 C 0.70522 0.38769 0.79791 0.0
C1456 C 0.71726 0.39184 0.82192 0.0
C1457 C 0.68169 0.37357 0.80107 0.0
C1458 C 0.72283 0.37617 0.78011 0.0
C1459 C 0.72786 0.39068 0.76102 0.0
C1460 C 0.74117 0.38294 0.74093 0.0
C1461 C 0.74935 0.35968 0.74022 0.0
C1462 C 0.74443 0.34468 0.75961 0.0
C1463 C 0.73151 0.3531 0.77998 0.0
H1464 H 0.01036 0.88003 0.91125 0.0
H1465 H 0.02907 0.83436 0.96952 0.0
H1466 H 0.03276 0.86904 -0.00419 0.0
H1467 H 0.05033 0.92672 0.92465 0.0
H1468 H 0.02933 0.94977 0.91695 0.0
H1469 H 0.02759 0.92152 0.90278 0.0
H1470 H 0.98235 0.91849 0.91637 0.0
H1471 H 0.9839 0.94685 0.93036 0.0
H1472 H 0.97404 0.922 0.9475 0.0
H1473 H 0.03695 0.90906 0.01511 0.0
H1474 H 0.03701 0.95022 0.02759 0.0
H1475 H 0.01346 0.97106 0.95757 0.0
C1476 C 0.01505 0.87722 0.92962 0.0
C1477 C 0.01946 0.85416 0.9382 0.0
C1478 C 0.02544 0.85157 0.96242 0.0
C1479 C 0.02772 0.87128 0.97747 0.0
C1480 C 0.02368 0.89366 0.96827 0.0
C1481 C 0.01706 0.89671 0.94498 0.0
C1482 C 0.01334 0.92268 0.93963 0.0
C1483 C 0.03122 0.93063 0.91982 0.0
C1484 C 0.98683 0.9278 0.93308 0.0
C1485 C 0.01919 0.93387 0.96348 0.0
C1486 C 0.02529 0.91672 0.97962 0.0
C1487 C 0.03198 0.92251 0.00262 0.0
C1488 C 0.03205 0.94619 0.00951 0.0
C1489 C 0.02524 0.96435 0.9937 0.0
C1490 C 0.01883 0.95788 0.9702 0.0
H1491 H 0.94535 0.26778 0.72311 0.0
H1492 H 0.94144 0.29955 0.65321 0.0
H1493 H 0.89775 0.30795 0.66055 0.0
H1494 H 0.88821 0.24004 0.72238 0.0
H1495 H 0.88115 0.2451 0.75354 0.0
H1496 H 0.9124 0.24262 0.74323 0.0
H1497 H 0.92118 0.28314 0.76191 0.0
H1498 H 0.88987 0.28577 0.77216 0.0
H1499 H 0.90311 0.30821 0.75372 0.0
H1500 H 0.85414 0.31016 0.67406 0.0
H1501 H 0.8134 0.30679 0.6935 0.0
H1502 H 0.84616 0.2752 0.75513 0.0
C1503 C 0.93538 0.27664 0.7094 0.0
C1504 C 0.94681 0.28299 0.68759 0.0
C1505 C 0.93308 0.29454 0.67008 0.0
C1506 C 0.90827 0.29943 0.67408 0.0
C1507 C 0.89756 0.29285 0.69573 0.0
C1508 C 0.91066 0.28179 0.71314 0.0
C1509 C 0.89462 0.27593 0.73455 0.0
C1510 C 0.89406 0.24935 0.73865 0.0
C1511 C 0.90268 0.28906 0.75691 0.0
C1512 C 0.87038 0.2851 0.72628 0.0
C1513 C 0.87247 0.29478 0.70383 0.0
C1514 C 0.85229 0.30297 0.69179 0.0
C1515 C 0.82929 0.30095 0.70291 0.0
C1516 C 0.82683 0.29102 0.72586 0.0
C1517 C 0.84766 0.28335 0.73779 0.0
H1518 H 0.50068 0.1802 0.42639 0.0
H1519 H 0.53701 0.21857 0.48167 0.0
H1520 H 0.54028 0.18244 0.50518 0.0
H1521 H 0.4654 0.14302 0.4674 0.0
H1522 H 0.46772 0.11752 0.44841 0.0
H1523 H 0.46826 0.14629 0.43553 0.0
H1524 H 0.50931 0.13617 0.41393 0.0
H1525 H 0.50894 0.1074 0.4268 0.0
H1526 H 0.53463 0.12609 0.43101 0.0
H1527 H 0.54225 0.14179 0.52177 0.0
H1528 H 0.53917 0.10023 0.53242 0.0
H1529 H 0.49847 0.08708 0.46874 0.0
C1530 C 0.50921 0.18102 0.4435 0.0
C1531 C 0.51867 0.20249 0.45205 0.0
C1532 C 0.52956 0.20261 0.47463 0.0
C1533 C 0.53158 0.18205 0.48814 0.0
C1534 C 0.5223 0.16127 0.47919 0.0
C1535 C 0.51098 0.16058 0.45756 0.0
C1536 C 0.50208 0.13585 0.4525 0.0
C1537 C 0.4742 0.13567 0.45086 0.0
C1538 C 0.51448 0.12579 0.4297 0.0
C1539 C 0.51039 0.12275 0.47453 0.0
C1540 C 0.52228 0.13784 0.48948 0.0
C1541 C 0.53271 0.12993 0.51032 0.0
C1542 C 0.53093 0.10615 0.51619 0.0
C1543 C 0.51843 0.0902 0.50163 0.0
C1544 C 0.50786 0.09878 0.48049 0.0
H1545 H 0.5783 0.78958 0.20472 0.0
H1546 H 0.61166 0.80002 0.1346 0.0
H1547 H 0.64802 0.77769 0.14674 0.0
H1548 H 0.63162 0.79646 0.23741 0.0
H1549 H 0.62356 0.77457 0.25908 0.0
H1550 H 0.60005 0.79031 0.24407 0.0
H1551 H 0.58226 0.75087 0.23015 0.0
H1552 H 0.60616 0.73505 0.24469 0.0
H1553 H 0.60142 0.73048 0.21338 0.0
H1554 H 0.68148 0.75692 0.1673 0.0
H1555 H 0.71117 0.74224 0.19618 0.0
H1556 H 0.65536 0.7437 0.25196 0.0
C1557 C 0.59323 0.78719 0.19188 0.0
C1558 C 0.59219 0.79648 0.16871 0.0
C1559 C 0.61213 0.79304 0.15246 0.0
C1560 C 0.63272 0.78021 0.15911 0.0
C1561 C 0.63287 0.77081 0.18194 0.0
C1562 C 0.61375 0.7743 0.19813 0.0
C1563 C 0.61898 0.76356 0.22199 0.0
C1564 C 0.61854 0.78234 0.24179 0.0
C1565 C 0.60114 0.74381 0.22789 0.0
C1566 C 0.6444 0.75403 0.21694 0.0
C1567 C 0.65195 0.75811 0.19361 0.0
C1568 C 0.67561 0.75307 0.1854 0.0
C1569 C 0.69225 0.74459 0.20176 0.0
C1570 C 0.68504 0.7412 0.22582 0.0
C1571 C 0.66073 0.7452 0.23333 0.0
H1572 H 0.03628 0.221 0.58639 0.0
H1573 H 0.00163 0.18953 0.64859 0.0
H1574 H 0.00414 0.15098 0.62902 0.0
H1575 H 0.00799 0.18298 0.54168 0.0
H1576 H 0.03519 0.18129 0.52298 0.0
H1577 H 0.02894 0.20697 0.54102 0.0
H1578 H 0.07101 0.20204 0.5602 0.0
H1579 H 0.07722 0.17614 0.54252 0.0
H1580 H 0.07858 0.17489 0.57453 0.0
H1581 H 0.01242 0.11586 0.6047 0.0
H1582 H 0.02373 0.08554 0.57497 0.0
H1583 H 0.05338 0.13849 0.52783 0.0
C1584 C 0.02875 0.20605 0.59557 0.0
C1585 C 0.0187 0.20822 0.61897 0.0
C1586 C 0.00945 0.18822 0.63068 0.0
C1587 C 0.01079 0.16625 0.61974 0.0
C1588 C 0.02149 0.1645 0.59706 0.0
C1589 C 0.03013 0.18377 0.58492 0.0
C1590 C 0.04155 0.17658 0.56098 0.0
C1591 C 0.02758 0.18761 0.54045 0.0
C1592 C 0.0687 0.18278 0.55948 0.0
C1593 C 0.03814 0.1503 0.5618 0.0
C1594 C 0.02648 0.14385 0.58283 0.0
C1595 C 0.02135 0.12068 0.58805 0.0
C1596 C 0.02781 0.1036 0.57106 0.0
C1597 C 0.03923 0.10971 0.54908 0.0
C1598 C 0.04483 0.13335 0.54457 0.0
H1599 H 0.59471 0.2468 0.34735 0.0
H1600 H 0.60509 0.29765 0.40376 0.0
H1601 H 0.64662 0.30477 0.38825 0.0
H1602 H 0.65679 0.22261 0.34852 0.0
H1603 H 0.65952 0.21802 0.31676 0.0
H1604 H 0.63005 0.21696 0.33165 0.0
H1605 H 0.61379 0.24877 0.30341 0.0
H1606 H 0.6432 0.24991 0.28843 0.0
H1607 H 0.62942 0.27619 0.30093 0.0
H1608 H 0.68621 0.30807 0.36623 0.0
H1609 H 0.72323 0.3051 0.34057 0.0
H1610 H 0.69031 0.25006 0.29935 0.0
C1611 C 0.60576 0.25944 0.35636 0.0
C1612 C 0.59644 0.27175 0.3768 0.0
C1613 C 0.61166 0.28794 0.38818 0.0
C1614 C 0.63535 0.29218 0.37945 0.0
C1615 C 0.64401 0.27985 0.35942 0.0
C1616 C 0.62991 0.26356 0.34812 0.0
C1617 C 0.64435 0.25228 0.32732 0.0
C1618 C 0.64788 0.2259 0.3313 0.0
C1619 C 0.63195 0.25708 0.30361 0.0
C1620 C 0.6685 0.26504 0.32861 0.0
C1621 C 0.66765 0.28099 0.3472 0.0
C1622 C 0.68717 0.29551 0.35172 0.0
C1623 C 0.70815 0.29374 0.33695 0.0
C1624 C 0.70985 0.27733 0.31793 0.0
C1625 C 0.68969 0.26266 0.31384 0.0
H1626 H 0.53091 0.89893 0.13098 0.0
H1627 H 0.46955 0.86507 0.09918 0.0
H1628 H 0.45619 0.90282 0.08259 0.0
H1629 H 0.50159 0.95815 0.14213 0.0
H1630 H 0.52904 0.97309 0.13327 0.0
H1631 H 0.5309 0.94484 0.14722 0.0
H1632 H 0.5571 0.92894 0.11134 0.0
H1633 H 0.55549 0.95715 0.09759 0.0
H1634 H 0.5457 0.93164 0.08167 0.0
H1635 H 0.45236 0.94166 0.06545 0.0
H1636 H 0.46133 0.97788 0.04375 0.0
H1637 H 0.52627 0.98719 0.08463 0.0
C1638 C 0.51433 0.89974 0.12103 0.0
C1639 C 0.50099 0.87938 0.11649 0.0
C1640 C 0.47987 0.88063 0.1028 0.0
C1641 C 0.47201 0.902 0.09361 0.0
C1642 C 0.48567 0.92182 0.09812 0.0
C1643 C 0.50658 0.92088 0.11122 0.0
C1644 C 0.5201 0.9438 0.11001 0.0
C1645 C 0.52042 0.95567 0.13463 0.0
C1646 C 0.54612 0.94015 0.09952 0.0
C1647 C 0.50414 0.95732 0.09323 0.0
C1648 C 0.48394 0.94453 0.08731 0.0
C1649 C 0.46781 0.95206 0.07025 0.0
C1650 C 0.47306 0.9726 0.05801 0.0
C1651 C 0.49435 0.98523 0.06277 0.0
C1652 C 0.50953 0.97811 0.08126 0.0
H1653 H 0.94171 0.81088 0.835 0.0
H1654 H 0.94693 0.74654 0.87521 0.0
H1655 H 0.90755 0.73409 0.85956 0.0
H1656 H 0.87624 0.81914 0.84423 0.0
H1657 H 0.87182 0.83082 0.81491 0.0
H1658 H 0.90046 0.83468 0.82919 0.0
H1659 H 0.92301 0.81552 0.79277 0.0
H1660 H 0.89441 0.81143 0.77849 0.0
H1661 H 0.91444 0.78675 0.78308 0.0
H1662 H 0.86823 0.72788 0.83848 0.0
H1663 H 0.83014 0.72967 0.81655 0.0
H1664 H 0.84884 0.79873 0.79075 0.0
C1665 C 0.93456 0.79419 0.84061 0.0
C1666 C 0.94764 0.77967 0.8564 0.0
C1667 C 0.9374 0.75805 0.86328 0.0
C1668 C 0.91502 0.75077 0.85437 0.0
C1669 C 0.90281 0.76535 0.83868 0.0
C1670 C 0.91204 0.78675 0.83208 0.0
C1671 C 0.89489 0.7993 0.81538 0.0
C1672 C 0.88528 0.82235 0.8266 0.0
C1673 C 0.90745 0.80349 0.79098 0.0
C1674 C 0.87466 0.78153 0.81348 0.0
C1675 C 0.87976 0.76202 0.82696 0.0
C1676 C 0.86404 0.74313 0.82797 0.0
C1677 C 0.8424 0.74431 0.81529 0.0
C1678 C 0.83628 0.76431 0.80174 0.0
C1679 C 0.85289 0.78311 0.80077 0.0
H1680 H 0.96513 0.02089 0.81424 0.0
H1681 H 0.92124 0.08385 0.80584 0.0
H1682 H 0.92705 0.09408 0.84804 0.0
H1683 H 0.9423 0.0073 0.87311 0.0
H1684 H 0.97118 -0.00336 0.88332 0.0
H1685 H 0.9642 0.99436 0.85225 0.0
H1686 H 0.00336 0.01695 0.84077 0.0
H1687 H 0.01061 0.019 0.87177 0.0
H1688 H 0.00844 0.04513 0.85415 0.0
H1689 H 0.9382 0.09796 0.89044 0.0
H1690 H 0.95479 0.09552 0.93084 0.0
H1691 H 0.98964 0.0292 0.91251 0.0
C1692 C 0.95698 0.03696 0.82122 0.0
C1693 C 0.94287 0.05168 0.80678 0.0
C1694 C 0.93215 0.07236 0.81663 0.0
C1695 C 0.93529 0.07828 0.84055 0.0
C1696 C 0.94894 0.06319 0.8544 0.0
C1697 C 0.95963 0.04296 0.84516 0.0
C1698 C 0.97324 0.02971 0.86401 0.0
C1699 C 0.96205 0.00557 0.86843 0.0
C1700 C 0.00053 0.02759 0.85727 0.0
C1701 C 0.96877 0.04583 0.88521 0.0
C1702 C 0.9547 0.06502 0.87923 0.0
C1703 C 0.94906 0.08294 0.89542 0.0
C1704 C 0.9585 0.08143 0.91823 0.0
C1705 C 0.97318 0.0621 0.92461 0.0
C1706 C 0.978 0.04387 0.90807 0.0
H1707 H 0.74436 0.2027 0.54827 0.0
H1708 H 0.7065 0.14397 0.57998 0.0
H1709 H 0.69185 0.1694 0.6132 0.0
H1710 H 0.7675 0.22279 0.59884 0.0
H1711 H 0.76501 0.25352 0.59227 0.0
H1712 H 0.76743 0.23257 0.56838 0.0
H1713 H 0.7273 0.24865 0.55114 0.0
H1714 H 0.72478 0.2698 0.57507 0.0
H1715 H 0.70007 0.25019 0.56981 0.0
H1716 H 0.68777 0.19877 0.64608 0.0
H1717 H 0.69533 0.22932 0.67612 0.0
H1718 H 0.73665 0.26831 0.62318 0.0
C1719 C 0.73228 0.19534 0.56174 0.0
C1720 C 0.72652 0.17138 0.5615 0.0
C1721 C 0.71111 0.16232 0.57977 0.0
C1722 C 0.70257 0.17666 0.59863 0.0
C1723 C 0.70941 0.20003 0.59882 0.0
C1724 C 0.72378 0.20936 0.58072 0.0
C1725 C 0.73153 0.23392 0.58668 0.0
C1726 C 0.75951 0.23578 0.58655 0.0
C1727 C 0.72024 0.25169 0.56966 0.0
C1728 C 0.72052 0.23645 0.61155 0.0
C1729 C 0.7073 0.21699 0.61803 0.0
C1730 C 0.69764 0.2143 0.64105 0.0
C1731 C 0.70221 0.23163 0.65804 0.0
C1732 C 0.71658 0.25121 0.65199 0.0
C1733 C 0.72509 0.25391 0.62823 0.0
H1734 H 0.54076 0.0173 0.35147 0.0
H1735 H 0.61448 0.98941 0.3549 0.0
H1736 H 0.60696 0.97899 0.39693 0.0
H1737 H 0.53846 0.04384 0.40647 0.0
H1738 H 0.50715 0.03712 0.41363 0.0
H1739 H 0.51723 0.0394 0.38302 0.0
H1740 H 0.50168 -0.00241 0.37468 0.0
H1741 H 0.49159 0.99518 0.4054 0.0
H1742 H 0.5122 0.97354 0.39242 0.0
H1743 H 0.594 0.97794 0.43974 0.0
H1744 H 0.5754 0.98452 0.47993 0.0
H1745 H 0.50933 0.0102 0.44802 0.0
C1746 C 0.55515 0.0086 0.36094 0.0
C1747 C 0.57818 0.00422 0.34998 0.0
C1748 C 0.59663 0.99286 0.36294 0.0
C1749 C 0.59253 0.98679 0.3868 0.0
C1750 C 0.56975 0.99176 0.39724 0.0
C1751 C 0.55125 0.00211 0.38465 0.0
C1752 C 0.52906 0.00711 0.40046 0.0
C1753 C 0.52262 0.03342 0.40092 0.0
C1754 C 0.50735 0.99247 0.39278 0.0
C1755 C 0.53841 -0.00099 0.42411 0.0
C1756 C 0.56186 0.99005 0.42189 0.0
C1757 C 0.57538 0.98423 0.44169 0.0
C1758 C 0.56475 0.98807 0.46439 0.0
C1759 C 0.54084 -0.0026 0.4669 0.0
C1760 C 0.52735 0.00231 0.44652 0.0
H1761 H 0.74746 0.835 0.10195 0.0
H1762 H 0.79412 0.89455 0.1128 0.0
H1763 H 0.80218 0.88108 0.15332 0.0
H1764 H 0.72085 0.83563 0.16231 0.0
H1765 H 0.71949 0.80428 0.16486 0.0
H1766 H 0.71772 0.81776 0.13604 0.0
H1767 H 0.75425 0.79234 0.12064 0.0
H1768 H 0.75612 0.77885 0.14946 0.0
H1769 H 0.78242 0.79284 0.13633 0.0
H1770 H 0.80612 0.8617 0.19229 0.0
H1771 H 0.80374 0.83874 0.22897 0.0
H1772 H 0.75295 0.79166 0.1961 0.0
C1773 C 0.75947 0.84509 0.11285 0.0
C1774 C 0.77025 0.86591 0.1039 0.0
C1775 C 0.78558 0.87867 0.119 0.0
C1776 C 0.79036 0.87109 0.14214 0.0
C1777 C 0.7795 0.85073 0.15044 0.0
C1778 C 0.76417 0.83792 0.13647 0.0
C1779 C 0.75431 0.81709 0.15056 0.0
C1780 C 0.72644 0.8188 0.15362 0.0
C1781 C 0.76225 0.79391 0.13852 0.0
C1782 C 0.76662 0.82026 0.17444 0.0
C1783 C 0.7812 0.83974 0.17368 0.0
C1784 C 0.79471 0.84644 0.19312 0.0
C1785 C 0.79324 0.83313 0.21399 0.0
C1786 C 0.7782 0.8132 0.21575 0.0
C1787 C 0.76468 0.8067 0.1955 0.0
H1788 H 0.95589 0.05477 0.66479 0.0
H1789 H 0.90344 -0.00126 0.66521 0.0
H1790 H 0.92182 0.98312 0.62771 0.0
H1791 H 0.95331 0.06487 0.6027 0.0
H1792 H 0.98505 0.07183 0.5988 0.0
H1793 H 0.96969 0.07713 0.62708 0.0
H1794 H 0.0021 0.05172 0.64788 0.0
H1795 H 0.01749 0.04626 0.61956 0.0
H1796 H 0.0078 0.0221 0.63781 0.0
H1797 H 0.94417 0.97456 0.58977 0.0
H1798 H 0.9662 0.97597 0.55102 0.0
H1799 H 0.00327 0.0385 0.57389 0.0
C1800 C 0.94856 0.03905 0.65707 0.0
C1801 C 0.92842 0.02781 0.66784 0.0
C1802 C 0.91886 0.00759 0.65712 0.0
C1803 C 0.9293 -0.00152 0.63597 0.0
C1804 C 0.94911 0.00995 0.6257 0.0
C1805 C 0.95847 0.02997 0.63565 0.0
C1806 C 0.97825 0.04018 0.61966 0.0
C1807 C 0.97114 0.06496 0.61158 0.0
C1808 C 0.00287 0.04004 0.63197 0.0
C1809 C 0.97829 0.02288 0.59912 0.0
C1810 C 0.96163 0.00539 0.6032 0.0
C1811 C 0.95743 0.98804 0.58639 0.0
C1812 C 0.97008 0.98898 0.56445 0.0
C1813 C 0.9865 0.0073 0.55947 0.0
C1814 C 0.99108 0.0241 0.5773 0.0
H1815 H 0.78274 0.22109 0.44743 0.0
H1816 H 0.83366 0.16494 0.42838 0.0
H1817 H 0.84562 0.18578 0.39178 0.0
H1818 H 0.7598 0.22824 0.39421 0.0
H1819 H 0.75654 0.25964 0.39468 0.0
H1820 H 0.75662 0.24385 0.42216 0.0
H1821 H 0.79252 0.26865 0.43663 0.0
H1822 H 0.79242 0.28475 0.40912 0.0
H1823 H 0.81999 0.27049 0.41843 0.0
H1824 H 0.84365 0.20619 0.35362 0.0
H1825 H 0.83028 0.22692 0.31769 0.0
H1826 H 0.78305 0.27175 0.36152 0.0
C1827 C 0.79709 0.21366 0.436 0.0
C1828 C 0.80723 0.19142 0.44065 0.0
C1829 C 0.82568 0.182 0.42516 0.0
C1830 C 0.8327 0.19378 0.40438 0.0
C1831 C 0.82146 0.21514 0.39963 0.0
C1832 C 0.80441 0.22529 0.41525 0.0
C1833 C 0.79269 0.24674 0.40453 0.0
C1834 C 0.76478 0.24445 0.40385 0.0
C1835 C 0.79985 0.26898 0.41798 0.0
C1836 C 0.80434 0.24592 0.3798 0.0
C1837 C 0.82123 0.22779 0.37748 0.0
C1838 C 0.83129 0.22103 0.35537 0.0
C1839 C 0.82353 0.23274 0.33509 0.0
C1840 C 0.80619 0.25112 0.33721 0.0
C1841 C 0.79708 0.2583 0.3598 0.0
H1842 H 0.61786 0.01113 0.18736 0.0
H1843 H 0.56532 0.04621 0.23496 0.0
H1844 H 0.54962 0.06866 0.20111 0.0
H1845 H 0.63055 0.05924 0.14807 0.0
H1846 H 0.63178 0.0413 0.12153 0.0
H1847 H 0.63996 0.02899 0.1497 0.0
H1848 H 0.60791 -0.00353 0.14494 0.0
H1849 H 0.60004 0.00847 0.11659 0.0
H1850 H 0.57675 0.00458 0.13944 0.0
H1851 H 0.53987 0.08731 0.16219 0.0
H1852 H 0.5322 0.09609 0.11993 0.0
H1853 H 0.58972 0.04743 0.09784 0.0
C1854 C 0.60309 0.02359 0.19061 0.0
C1855 C 0.59291 0.02719 0.21367 0.0
C1856 C 0.57334 0.04328 0.21734 0.0
C1857 C 0.56447 0.05623 0.1983 0.0
C1858 C 0.57519 0.05257 0.17579 0.0
C1859 C 0.59371 0.03629 0.17177 0.0
C1860 C 0.60073 0.03429 0.14562 0.0
C1861 C 0.62733 0.04139 0.14097 0.0
C1862 C 0.59607 0.00949 0.1361 0.0
C1863 C 0.58324 0.05198 0.13556 0.0
C1864 C 0.56896 0.06266 0.15326 0.0
C1865 C 0.55099 0.07916 0.14815 0.0
C1866 C 0.54691 0.0842 0.1242 0.0
C1867 C 0.56052 0.07247 0.10588 0.0
C1868 C 0.57926 0.05667 0.11168 0.0
H1869 H 0.76591 0.8856 0.92298 0.0
H1870 H 0.76106 0.8294 0.97435 0.0
H1871 H 0.75794 0.80086 0.94125 0.0
H1872 H 0.72381 0.86298 0.88149 0.0
H1873 H 0.74086 0.8722 0.85537 0.0
H1874 H 0.74307 0.88819 0.88295 0.0
H1875 H 0.78992 0.88247 0.88136 0.0
H1876 H 0.78784 0.86666 0.85366 0.0
H1877 H 0.80273 0.85338 0.87846 0.0
H1878 H 0.75374 0.77841 0.90215 0.0
H1879 H 0.75227 0.76362 0.86087 0.0
H1880 H 0.76107 0.83421 0.83442 0.0
C1881 C 0.76433 0.86727 0.92736 0.0
C1882 C 0.76371 0.85987 0.95153 0.0
C1883 C 0.7617 0.83564 0.95618 0.0
C1884 C 0.75979 0.81927 0.93742 0.0
C1885 C 0.76012 0.82724 0.91391 0.0
C1886 C 0.76265 0.85067 0.90883 0.0
C1887 C 0.76287 0.85467 0.882 0.0
C1888 C 0.74137 0.87045 0.87505 0.0
C1889 C 0.78729 0.8649 0.87337 0.0
C1890 C 0.75988 0.82986 0.87273 0.0
C1891 C 0.75819 0.81432 0.89146 0.0
C1892 C 0.75515 0.79047 0.88742 0.0
C1893 C 0.75423 0.78223 0.86377 0.0
C1894 C 0.75645 0.79764 0.84412 0.0
C1895 C 0.75915 0.82188 0.84888 0.0
H1896 H 0.83863 0.96899 0.99358 0.0
H1897 H 0.83878 0.92395 0.05548 0.0
H1898 H 0.87866 0.93971 0.06641 0.0
H1899 H 0.90326 0.96339 0.97928 0.0
H1900 H 0.90617 0.99328 0.9698 0.0
H1901 H 0.87761 0.97858 0.96696 0.0
H1902 H 0.85582 0.01159 0.99149 0.0
H1903 H 0.88436 0.0263 -0.00546 0.0
H1904 H 0.8664 0.01883 0.02069 0.0
H1905 H 0.91861 0.96097 0.07103 0.0
H1906 H 0.9562 0.98396 0.06771 0.0
H1907 H 0.93092 0.01493 0.00237 0.0
C1908 C 0.84702 0.96237 0.00944 0.0
C1909 C 0.83532 0.94514 0.02368 0.0
C1910 C 0.84719 0.93702 0.0442 0.0
C1911 C 0.86989 0.94596 0.05061 0.0
C1912 C 0.88076 0.96302 0.03631 0.0
C1913 C 0.86981 0.971 0.01602 0.0
C1914 C 0.8856 0.98911 0.00347 0.0
C1915 C 0.89363 0.98057 0.97839 0.0
C1916 C 0.87224 0.01287 0.0025 0.0
C1917 C 0.90711 0.99016 0.0199 0.0
C1918 C 0.90387 0.97503 0.0388 0.0
C1919 C 0.92128 0.97283 0.05628 0.0
C1920 C 0.94263 0.98609 0.05426 0.0
C1921 C 0.9467 0.00147 0.03485 0.0
C1922 C 0.92844 0.00355 0.01756 0.0
H1923 H 0.3538 0.583 0.03778 0.0
H1924 H 0.37576 0.65011 0.00917 0.0
H1925 H 0.41712 0.63408 0.00077 0.0
H1926 H 0.40884 0.57 0.06673 0.0
H1927 H 0.40797 0.53914 0.06021 0.0
H1928 H 0.38006 0.55587 0.06294 0.0
H1929 H 0.36846 0.54175 0.02077 0.0
H1930 H 0.39663 0.52534 0.01783 0.0
H1931 H 0.38901 0.54678 -0.00423 0.0
H1932 H 0.45658 0.6114 -0.00234 0.0
H1933 H 0.4917 0.58462 0.00251 0.0
H1934 H 0.44337 0.53204 0.03172 0.0
C1935 C 0.36725 0.59438 0.02972 0.0
C1936 C 0.3615 0.61785 0.02415 0.0
C1937 C 0.37971 0.6321 0.01364 0.0
C1938 C 0.40321 0.6231 0.00865 0.0
C1939 C 0.40812 0.5998 0.01409 0.0
C1940 C 0.39068 0.58568 0.0245 0.0
C1941 C 0.40086 0.56157 0.02959 0.0
C1942 C 0.39934 0.55636 0.05645 0.0
C1943 C 0.38797 0.54275 0.01512 0.0
C1944 C 0.42693 0.56445 0.02085 0.0
C1945 C 0.43072 0.58657 0.01179 0.0
C1946 C 0.45376 0.59392 0.00437 0.0
C1947 C 0.47357 0.57858 0.00711 0.0
C1948 C 0.47016 0.55616 0.01713 0.0
C1949 C 0.44643 0.5488 0.02335 0.0
H1950 H 0.21011 0.57365 0.7702 0.0
H1951 H 0.13777 0.60558 0.77032 0.0
H1952 H 0.15575 0.64443 0.77113 0.0
H1953 H 0.23601 0.61448 0.81005 0.0
H1954 H 0.2653 0.61534 0.79478 0.0
H1955 H 0.24711 0.58947 0.79308 0.0
H1956 H 0.24905 0.59148 0.74697 0.0
H1957 H 0.2673 0.61736 0.74853 0.0
H1958 H 0.23939 0.61789 0.73243 0.0
H1959 H 0.18032 0.67951 0.77429 0.0
H1960 H 0.21087 0.70972 0.7787 0.0
H1961 H 0.26823 0.65649 0.77486 0.0
C1962 C 0.19811 0.58882 0.77021 0.0
C1963 C 0.17251 0.58643 0.77023 0.0
C1964 C 0.15743 0.60678 0.77032 0.0
C1965 C 0.16743 0.62904 0.77075 0.0
C1966 C 0.19258 0.6308 0.77093 0.0
C1967 C 0.20782 0.61138 0.77054 0.0
C1968 C 0.23428 0.61855 0.77131 0.0
C1969 C 0.24638 0.60888 0.79364 0.0
C1970 C 0.24833 0.61086 0.74845 0.0
C1971 C 0.2313 0.64495 0.77263 0.0
C1972 C 0.20706 0.6515 0.7723 0.0
C1973 C 0.19944 0.6747 0.77419 0.0
C1974 C 0.2171 0.69182 0.77653 0.0
C1975 C 0.24221 0.68573 0.77684 0.0
C1976 C 0.24929 0.66187 0.77473 0.0
H1977 H 0.19604 0.45915 0.53758 0.0
H1978 H 0.18061 0.39209 0.50518 0.0
H1979 H 0.139 0.4058 0.49696 0.0
H1980 H 0.13555 0.46648 0.56638 0.0
H1981 H 0.13434 0.49766 0.56212 0.0
H1982 H 0.16329 0.48296 0.56518 0.0
H1983 H 0.1784 0.50022 0.52497 0.0
H1984 H 0.14945 0.51486 0.52174 0.0
H1985 H 0.16111 0.49538 0.49862 0.0
H1986 H 0.09988 0.42701 0.4902 0.0
H1987 H 0.06378 0.45283 0.48926 0.0
H1988 H 0.10192 0.50581 0.52879 0.0
C1989 C 0.18384 0.44738 0.52881 0.0
C1990 C 0.19174 0.4245 0.52192 0.0
C1991 C 0.1751 0.4096 0.51069 0.0
C1992 C 0.15139 0.41728 0.50584 0.0
C1993 C 0.14422 0.43986 0.51268 0.0
C1994 C 0.15972 0.45462 0.52431 0.0
C1995 C 0.14681 0.47774 0.53051 0.0
C1996 C 0.14489 0.48142 0.55766 0.0
C1997 C 0.15972 0.49826 0.51822 0.0
C1998 C 0.12183 0.47374 0.52019 0.0
C1999 C 0.12096 0.45181 0.50979 0.0
C2000 C 0.10029 0.44414 0.49844 0.0
C2001 C 0.07985 0.45907 0.49789 0.0
C2002 C 0.07984 0.48146 0.5089 0.0
C2003 C 0.10125 0.48883 0.52023 0.0
H2004 H 0.885 0.95058 0.72456 0.0
H2005 H 0.85531 0.98828 0.78628 0.0
H2006 H 0.82799 0.9552 0.7954 0.0
H2007 H 0.82848 0.92885 0.70641 0.0
H2008 H 0.84079 0.90122 0.69574 0.0
H2009 H 0.85966 0.92669 0.69561 0.0
H2010 H 0.89147 0.90478 0.72076 0.0
H2011 H 0.87273 0.87918 0.72088 0.0
H2012 H 0.88199 0.8918 0.74863 0.0
H2013 H 0.80425 0.91771 0.79768 0.0
H2014 H 0.7829 0.88042 0.79054 0.0
H2015 H 0.82555 0.86968 0.72528 0.0
C2016 C 0.87301 0.95165 0.74021 0.0
C2017 C 0.87236 0.97166 0.75497 0.0
C2018 C 0.85603 0.97291 0.7749 0.0
C2019 C 0.84058 0.95423 0.78023 0.0
C2020 C 0.8415 0.93476 0.76517 0.0
C2021 C 0.85709 0.9335 0.7454 0.0
C2022 C 0.85321 0.91155 0.73097 0.0
C2023 C 0.84504 0.91744 0.70569 0.0
C2024 C 0.87622 0.89591 0.73029 0.0
C2025 C 0.83292 0.90069 0.74563 0.0
C2026 C 0.82671 0.91408 0.76554 0.0
C2027 C 0.80882 0.90718 0.78206 0.0
C2028 C 0.79685 0.88611 0.77794 0.0
C2029 C 0.80252 0.87268 0.75725 0.0
C2030 C 0.82075 0.88002 0.74099 0.0
H2031 H 0.69565 0.11705 0.46832 0.0
H2032 H 0.75206 0.06501 0.48025 0.0
H2033 H 0.72093 0.03697 0.49324 0.0
H2034 H 0.66404 0.10847 0.51756 0.0
H2035 H 0.6337 0.11182 0.50654 0.0
H2036 H 0.65876 0.12566 0.49135 0.0
H2037 H 0.64881 0.10474 0.45183 0.0
H2038 H 0.62305 0.09135 0.46666 0.0
H2039 H 0.64576 0.07341 0.45126 0.0
H2040 H 0.68608 0.01909 0.51495 0.0
H2041 H 0.64798 0.00986 0.53746 0.0
H2042 H 0.61419 0.07295 0.51086 0.0
C2043 C 0.70131 0.09936 0.47242 0.0
C2044 C 0.72617 0.09319 0.47343 0.0
C2045 C 0.73303 0.07005 0.4794 0.0
C2046 C 0.71548 0.05399 0.48681 0.0
C2047 C 0.6912 0.06124 0.48762 0.0
C2048 C 0.68397 0.08313 0.47987 0.0
C2049 C 0.65723 0.0877 0.48545 0.0
C2050 C 0.65323 0.1097 0.50116 0.0
C2051 C 0.64286 0.08939 0.46243 0.0
C2052 C 0.65108 0.06573 0.49898 0.0
C2053 C 0.67079 0.05054 0.49983 0.0
C2054 C 0.67025 0.03043 0.51376 0.0
C2055 C 0.64878 0.02551 0.52675 0.0
C2056 C 0.62833 0.04066 0.5256 0.0
C2057 C 0.62953 0.0609 0.51151 0.0
H2058 H 0.19973 0.43177 0.80054 0.0
H2059 H 0.18984 0.43927 0.72465 0.0
H2060 H 0.1981 0.39692 0.71882 0.0
H2061 H 0.25079 0.39106 0.7939 0.0
H2062 H 0.2423 0.37521 0.82043 0.0
H2063 H 0.23453 0.40575 0.81814 0.0
H2064 H 0.18923 0.39574 0.82699 0.0
H2065 H 0.19684 0.36505 0.82844 0.0
H2066 H 0.17428 0.37515 0.80807 0.0
H2067 H 0.20518 0.35357 0.72176 0.0
H2068 H 0.22164 0.3144 0.73118 0.0
H2069 H 0.23054 0.33612 0.80448 0.0
C2070 C 0.19967 0.42446 0.78269 0.0
C2071 C 0.19425 0.43853 0.763 0.0
C2072 C 0.19431 0.42864 0.73985 0.0
C2073 C 0.19857 0.40462 0.73646 0.0
C2074 C 0.20312 0.391 0.75637 0.0
C2075 C 0.20456 0.4007 0.7789 0.0
C2076 C 0.21196 0.38264 0.79695 0.0
C2077 C 0.23634 0.38904 0.80799 0.0
C2078 C 0.19187 0.37947 0.81625 0.0
C2079 C 0.2145 0.36127 0.78105 0.0
C2080 C 0.20858 0.3663 0.75785 0.0
C2081 C 0.20989 0.3494 0.73985 0.0
C2082 C 0.21891 0.32713 0.74542 0.0
C2083 C 0.22701 0.32236 0.76859 0.0
C2084 C 0.22401 0.33934 0.78676 0.0
H2085 H 0.3306 0.61024 0.31466 0.0
H2086 H 0.29066 0.58821 0.25328 0.0
H2087 H 0.26718 0.62524 0.25481 0.0
H2088 H 0.27932 0.6509 0.34319 0.0
H2089 H 0.3024 0.67108 0.35192 0.0
H2090 H 0.30866 0.64005 0.35196 0.0
H2091 H 0.34671 0.64697 0.32482 0.0
H2092 H 0.34019 0.67769 0.32373 0.0
H2093 H 0.34317 0.66101 0.29643 0.0
H2094 H 0.25866 0.66772 0.25455 0.0
H2095 H 0.26077 0.7107 0.25645 0.0
H2096 H 0.30719 0.70561 0.31752 0.0
C2097 C 0.31586 0.61271 0.30249 0.0
C2098 C 0.31237 0.59663 0.28385 0.0
C2099 C 0.29333 0.6003 0.26787 0.0
C2100 C 0.28 0.62136 0.26856 0.0
C2101 C 0.2857 0.63808 0.28565 0.0
C2102 C 0.30265 0.63366 0.3029 0.0
C2103 C 0.30877 0.65564 0.31649 0.0
C2104 C 0.2992 0.65434 0.34243 0.0
C2105 C 0.33632 0.66059 0.31525 0.0
C2106 C 0.29454 0.67344 0.30266 0.0
C2107 C 0.28082 0.66297 0.2854 0.0
C2108 C 0.26862 0.67607 0.26853 0.0
C2109 C 0.27023 0.70046 0.26955 0.0
C2110 C 0.2842 0.71143 0.28714 0.0
C2111 C 0.29625 0.69769 0.30399 0.0
H2112 H 0.52835 0.66887 0.63255 0.0
H2113 H 0.50957 0.71836 0.57757 0.0
H2114 H 0.50207 0.68529 0.55009 0.0
H2115 H 0.55967 0.62686 0.59347 0.0
H2116 H 0.54894 0.60185 0.60984 0.0
H2117 H 0.55277 0.62936 0.62498 0.0
H2118 H 0.50786 0.62832 0.64014 0.0
H2119 H 0.50385 0.6009 0.62486 0.0
H2120 H 0.48399 0.62541 0.61899 0.0
H2121 H 0.49627 0.64626 0.52851 0.0
H2122 H 0.49467 0.60559 0.51403 0.0
H2123 H 0.51738 0.5808 0.58291 0.0
C2124 C 0.5227 0.6729 0.61471 0.0
C2125 C 0.51956 0.69656 0.60739 0.0
C2126 C 0.51221 0.70065 0.58377 0.0
C2127 C 0.50781 0.68187 0.56802 0.0
C2128 C 0.51088 0.65887 0.57596 0.0
C2129 C 0.51833 0.65435 0.59875 0.0
C2130 C 0.52064 0.62805 0.60281 0.0
C2131 C 0.54708 0.62113 0.60809 0.0
C2132 C 0.50303 0.62021 0.6229 0.0
C2133 C 0.51321 0.61835 0.57879 0.0
C2134 C 0.50762 0.63649 0.56359 0.0
C2135 C 0.50061 0.63204 0.54035 0.0
C2136 C 0.49969 0.6087 0.53228 0.0
C2137 C 0.50568 0.58964 0.54724 0.0
C2138 C 0.5123 0.59474 0.571 0.0
H2139 H 0.62397 0.26637 0.87847 0.0
H2140 H 0.56685 0.25787 0.82749 0.0
H2141 H 0.5978 0.25484 0.79476 0.0
H2142 H 0.65853 0.30343 0.8414 0.0
H2143 H 0.68792 0.29312 0.85023 0.0
H2144 H 0.6623 0.2918 0.87086 0.0
H2145 H 0.6679 0.2474 0.87639 0.0
H2146 H 0.69449 0.24796 0.8569 0.0
H2147 H 0.66998 0.22842 0.85062 0.0
H2148 H 0.63499 0.25456 0.76741 0.0
H2149 H 0.67563 0.25823 0.74759 0.0
H2150 H 0.70769 0.26769 0.81671 0.0
C2151 C 0.61805 0.26344 0.86047 0.0
C2152 C 0.59315 0.26212 0.85543 0.0
C2153 C 0.58594 0.2589 0.83163 0.0
C2154 C 0.60335 0.25706 0.81296 0.0
C2155 C 0.6278 0.25869 0.81845 0.0
C2156 C 0.63514 0.26193 0.8416 0.0
C2157 C 0.66231 0.26519 0.84251 0.0
C2158 C 0.6681 0.28982 0.85181 0.0
C2159 C 0.67437 0.2461 0.85749 0.0
C2160 C 0.66919 0.26258 0.81637 0.0
C2161 C 0.64908 0.25898 0.80271 0.0
C2162 C 0.65094 0.25717 0.77793 0.0
C2163 C 0.67403 0.25927 0.76684 0.0
C2164 C 0.6948 0.26304 0.78062 0.0
C2165 C 0.69223 0.26449 0.80568 0.0
H2166 H 0.01449 0.34686 0.07071 0.0
H2167 H 0.04588 0.36584 0.13807 0.0
H2168 H 0.05041 0.40634 0.12435 0.0
H2169 H 0.05088 0.38517 0.03275 0.0
H2170 H 0.02618 0.39353 0.014 0.0
H2171 H 0.02605 0.36545 0.02837 0.0
H2172 H 0.98373 0.37509 0.04763 0.0
H2173 H 0.98374 0.40319 0.03331 0.0
H2174 H 0.97956 0.40141 0.0652 0.0
H2175 H 0.05314 0.44478 0.10333 0.0
H2176 H 0.05033 0.47951 0.07771 0.0
H2177 H 0.01409 0.43831 0.02447 0.0
C2178 C 0.0224 0.35955 0.08249 0.0
C2179 C 0.02997 0.35287 0.10556 0.0
C2180 C 0.03989 0.37027 0.12043 0.0
C2181 C 0.04263 0.39344 0.11274 0.0
C2182 C 0.035 0.39949 0.09012 0.0
C2183 C 0.02474 0.38321 0.07525 0.0
C2184 C 0.01708 0.39499 0.0522 0.0
C2185 C 0.03087 0.38413 0.03055 0.0
C2186 C 0.98938 0.39358 0.04943 0.0
C2187 C 0.02487 0.42022 0.05644 0.0
C2188 C 0.03543 0.42222 0.07837 0.0
C2189 C 0.04473 0.44343 0.08619 0.0
C2190 C 0.04312 0.46314 0.07141 0.0
C2191 C 0.03193 0.46193 0.04901 0.0
C2192 C 0.02263 0.44001 0.04153 0.0
H2193 H 0.964 0.7515 0.34794 0.0
H2194 H 0.00654 0.78588 0.29234 0.0
H2195 H 0.96944 0.80615 0.27914 0.0
H2196 H 0.90746 0.74548 0.31325 0.0
H2197 H 0.88845 0.75073 0.33949 0.0
H2198 H 0.91777 0.73663 0.34207 0.0
H2199 H 0.92942 0.76828 0.37287 0.0
H2200 H 0.90051 0.78292 0.36979 0.0
H2201 H 0.92834 0.79867 0.36461 0.0
H2202 H 0.92875 0.82642 0.2754 0.0
H2203 H 0.88591 0.84029 0.27723 0.0
H2204 H 0.87073 0.79312 0.33576 0.0
C2205 C 0.96543 0.76274 0.33253 0.0
C2206 C 0.98817 0.76714 0.32122 0.0
C2207 C 0.98928 0.7821 0.3012 0.0
C2208 C 0.96834 0.79385 0.29367 0.0
C2209 C 0.94648 0.79016 0.30616 0.0
C2210 C 0.94477 0.77451 0.32476 0.0
C2211 C 0.91938 0.77436 0.33587 0.0
C2212 C 0.90757 0.75038 0.33245 0.0
C2213 C 0.91944 0.78149 0.36235 0.0
C2214 C 0.90728 0.79287 0.32107 0.0
C2215 C 0.92314 0.80179 0.30401 0.0
C2216 C 0.91608 0.81941 0.28854 0.0
C2217 C 0.89184 0.82744 0.28995 0.0
C2218 C 0.87509 0.81778 0.30669 0.0
C2219 C 0.88317 0.8007 0.32275 0.0
H2220 H 0.56694 0.35068 0.9581 0.0
H2221 H 0.51852 0.29714 0.98526 0.0
H2222 H 0.50363 0.32417 0.017 0.0
H2223 H 0.57884 0.37954 0.01783 0.0
H2224 H 0.57888 0.40797 0.00419 0.0
H2225 H 0.58973 0.38273 0.98744 0.0
H2226 H 0.55914 0.39252 0.95453 0.0
H2227 H 0.54791 0.41741 0.97133 0.0
H2228 H 0.52713 0.39512 0.9623 0.0
H2229 H 0.48782 0.3596 0.04012 0.0
H2230 H 0.47602 0.39913 0.05522 0.0
H2231 H 0.53459 0.42871 0.01221 0.0
C2232 C 0.55396 0.34426 0.9713 0.0
C2233 C 0.54391 0.32179 0.96914 0.0
C2234 C 0.52666 0.31422 0.98661 0.0
C2235 C 0.518 0.3295 0.0047 0.0
C2236 C 0.52711 0.35211 0.00533 0.0
C2237 C 0.54516 0.35927 0.9894 0.0
C2238 C 0.55006 0.38508 0.99207 0.0
C2239 C 0.57591 0.38906 0.00092 0.0
C2240 C 0.54578 0.39828 0.96868 0.0
C2241 C 0.53106 0.39157 0.01103 0.0
C2242 C 0.51817 0.37237 0.01876 0.0
C2243 C 0.49822 0.37467 0.03465 0.0
C2244 C 0.49147 0.39716 0.04294 0.0
C2245 C 0.50459 0.41698 0.03522 0.0
C2246 C 0.52466 0.41393 0.01915 0.0
H2247 H 0.95829 0.28177 0.22533 0.0
H2248 H 0.94156 0.27105 0.1511 0.0
H2249 H 0.89758 0.2703 0.16209 0.0
H2250 H 0.91323 0.2458 0.25109 0.0
H2251 H 0.90569 0.26494 0.27593 0.0
H2252 H 0.93573 0.2654 0.26225 0.0
H2253 H 0.93117 0.30985 0.25481 0.0
H2254 H 0.9012 0.30958 0.26871 0.0
H2255 H 0.90535 0.32072 0.23894 0.0
H2256 H 0.85561 0.26613 0.18208 0.0
H2257 H 0.81865 0.26503 0.20842 0.0
H2258 H 0.86189 0.28277 0.26909 0.0
C2259 C 0.94533 0.2796 0.21134 0.0
C2260 C 0.95342 0.27644 0.1873 0.0
C2261 C 0.93585 0.27371 0.16956 0.0
C2262 C 0.91081 0.2731 0.17568 0.0
C2263 C 0.90349 0.27581 0.1996 0.0
C2264 C 0.92021 0.27961 0.21708 0.0
C2265 C 0.90754 0.28251 0.24139 0.0
C2266 C 0.91606 0.26353 0.25868 0.0
C2267 C 0.91155 0.30713 0.25156 0.0
C2268 C 0.88112 0.27917 0.235 0.0
C2269 C 0.87922 0.27501 0.21082 0.0
C2270 C 0.85689 0.2698 0.20094 0.0
C2271 C 0.83601 0.26908 0.21603 0.0
C2272 C 0.83739 0.27402 0.24068 0.0
C2273 C 0.86027 0.27925 0.25022 0.0
H2274 H 0.01568 0.68384 0.45317 0.0
H2275 H 0.00355 0.6619 0.38032 0.0
H2276 H 0.00713 0.62071 0.39227 0.0
H2277 H 0.06008 0.64277 0.46576 0.0
H2278 H 0.05004 0.63704 0.49598 0.0
H2279 H 0.04366 0.66499 0.48284 0.0
H2280 H -0.00259 0.6602 0.49172 0.0
H2281 H 0.00375 0.63257 0.50562 0.0
H2282 H 0.98253 0.63413 0.48179 0.0
H2283 H 0.01681 0.58237 0.41075 0.0
H2284 H 0.02498 0.54851 0.43646 0.0
H2285 H 0.02996 0.59502 0.49748 0.0
C2286 C 0.01299 0.67036 0.4399 0.0
C2287 C 0.00938 0.67609 0.41581 0.0
C2288 C 0.00631 0.65794 0.39889 0.0
C2289 C 0.00845 0.63447 0.40546 0.0
C2290 C 0.01338 0.62945 0.42905 0.0
C2291 C 0.01497 0.64679 0.44618 0.0
C2292 C 0.0209 0.63655 0.47018 0.0
C2293 C 0.04511 0.6459 0.47921 0.0
C2294 C -0.00011 0.64113 0.4884 0.0
C2295 C 0.02306 0.61087 0.46366 0.0
C2296 C 0.01869 0.60719 0.43983 0.0
C2297 C 0.01994 0.58499 0.42952 0.0
C2298 C 0.02472 0.5659 0.44421 0.0
C2299 C 0.028 0.56914 0.46893 0.0
C2300 C 0.0278 0.592 0.4786 0.0
H2301 H 0.61911 0.78837 0.66685 0.0
H2302 H 0.5709 0.75021 0.71471 0.0
H2303 H 0.60367 0.7468 0.74361 0.0
H2304 H 0.67496 0.7564 0.68007 0.0
H2305 H 0.69387 0.78188 0.67897 0.0
H2306 H 0.66695 0.7807 0.66144 0.0
H2307 H 0.65122 0.81935 0.68101 0.0
H2308 H 0.67802 0.82054 0.69871 0.0
H2309 H 0.64823 0.82141 0.71302 0.0
H2310 H 0.64182 0.74645 0.76719 0.0
H2311 H 0.68247 0.75036 0.78436 0.0
H2312 H 0.70616 0.79101 0.72324 0.0
C2313 C 0.61556 0.77913 0.68332 0.0
C2314 C 0.59232 0.76941 0.68836 0.0
C2315 C 0.58842 0.75778 0.71034 0.0
C2316 C 0.60698 0.75574 0.72693 0.0
C2317 C 0.6295 0.76566 0.7216 0.0
C2318 C 0.63391 0.77724 0.7004 0.0
C2319 C 0.6597 0.7868 0.69957 0.0
C2320 C 0.67476 0.77578 0.67878 0.0
C2321 C 0.65926 0.81362 0.69798 0.0
C2322 C 0.66902 0.77873 0.72351 0.0
C2323 C 0.65129 0.76639 0.7358 0.0
C2324 C 0.65575 0.75629 0.75783 0.0
C2325 C 0.67892 0.75864 0.76749 0.0
C2326 C 0.69745 0.77133 0.75545 0.0
C2327 C 0.69224 0.78168 0.7332 0.0
H2328 H 0.57099 0.45993 0.72223 0.0
H2329 H 0.55147 0.52968 0.7476 0.0
H2330 H 0.52612 0.53555 0.71254 0.0
H2331 H 0.57967 0.47325 0.66459 0.0
H2332 H 0.567 0.44719 0.65201 0.0
H2333 H 0.57935 0.44642 0.68125 0.0
H2334 H 0.53839 0.43135 0.69883 0.0
H2335 H 0.52593 0.43174 0.66948 0.0
H2336 H 0.51063 0.44743 0.69363 0.0
H2337 H 0.51079 0.53696 0.67133 0.0
H2338 H 0.50263 0.53198 0.62844 0.0
H2339 H 0.53027 0.46083 0.63079 0.0
C2340 C 0.56069 0.47611 0.7208 0.0
C2341 C 0.56314 0.49435 0.73749 0.0
C2342 C 0.54969 0.51543 0.735 0.0
C2343 C 0.53523 0.51891 0.71518 0.0
C2344 C 0.53407 0.50095 0.69841 0.0
C2345 C 0.54599 0.47974 0.70129 0.0
C2346 C 0.54373 0.46415 0.67965 0.0
C2347 C 0.56893 0.45738 0.66874 0.0
C2348 C 0.52877 0.44238 0.68577 0.0
C2349 C 0.52997 0.48043 0.66362 0.0
C2350 C 0.52435 0.5015 0.67481 0.0
C2351 C 0.51436 0.5203 0.66259 0.0
C2352 C 0.51002 0.51744 0.63829 0.0
C2353 C 0.51557 0.49595 0.62667 0.0
C2354 C 0.52526 0.47717 0.63959 0.0
H2355 H 0.77475 0.34276 0.96692 0.0
H2356 H 0.69651 0.34827 0.96051 0.0
H2357 H 0.69881 0.32112 0.92591 0.0
H2358 H 0.78734 0.34709 0.90648 0.0
H2359 H 0.81341 0.32759 0.90569 0.0
H2360 H 0.80519 0.34327 0.93265 0.0
H2361 H 0.80291 0.30419 0.95565 0.0
H2362 H 0.8111 0.28835 0.92866 0.0
H2363 H 0.7836 0.28128 0.94521 0.0
H2364 H 0.70982 0.29617 0.89082 0.0
H2365 H 0.72885 0.27971 0.85401 0.0
H2366 H 0.80044 0.29371 0.88064 0.0
C2367 C 0.75809 0.3376 0.95859 0.0
C2368 C 0.73537 0.34699 0.96647 0.0
C2369 C 0.71397 0.34086 0.95475 0.0
C2370 C 0.71513 0.32539 0.93527 0.0
C2371 C 0.73789 0.31662 0.92765 0.0
C2372 C 0.75904 0.32273 0.93874 0.0
C2373 C 0.78142 0.31383 0.92489 0.0
C2374 C 0.79779 0.33416 0.91696 0.0
C2375 C 0.79559 0.29584 0.93948 0.0
C2376 C 0.76958 0.30235 0.90389 0.0
C2377 C 0.74445 0.30357 0.90627 0.0
C2378 C 0.72945 0.29515 0.88874 0.0
C2379 C 0.74039 0.28605 0.86783 0.0
C2380 C 0.76603 0.28592 0.86434 0.0
C2381 C 0.78082 0.29345 0.88295 0.0
H2382 H 0.95497 0.56298 0.17407 0.0
H2383 H 0.88035 0.55593 0.15209 0.0
H2384 H 0.89441 0.55683 0.10988 0.0
H2385 H 0.97594 0.60094 0.12333 0.0
H2386 H 0.00536 0.58658 0.122 0.0
H2387 H 0.98891 0.58963 0.15012 0.0
H2388 H 0.992 0.5448 0.15621 0.0
H2389 H 0.0083 0.5416 0.12817 0.0
H2390 H 0.98078 0.52546 0.13367 0.0
H2391 H 0.91714 0.55143 0.07112 0.0
H2392 H 0.94669 0.54163 0.0385 0.0
H2393 H 0.00621 0.55361 0.08606 0.0
C2394 C 0.94153 0.56218 0.16037 0.0
C2395 C 0.91665 0.5593 0.16618 0.0
C2396 C 0.89953 0.55822 0.14788 0.0
C2397 C 0.90733 0.55881 0.12392 0.0
C2398 C 0.93216 0.56096 0.11877 0.0
C2399 C 0.94896 0.56296 0.13651 0.0
C2400 C 0.97476 0.56276 0.12649 0.0
C2401 C 0.98695 0.58639 0.13073 0.0
C2402 C 0.98982 0.54244 0.13674 0.0
C2403 C 0.96994 0.559 0.10045 0.0
C2404 C 0.94527 0.55836 0.09626 0.0
C2405 C 0.93648 0.5525 0.07402 0.0
C2406 C 0.95337 0.54683 0.05568 0.0
C2407 C 0.97867 0.54704 0.05983 0.0
C2408 C 0.98698 0.55376 0.08231 0.0
H2409 H 0.75542 0.67103 0.4304 0.0
H2410 H 0.76923 0.72814 0.47921 0.0
H2411 H 0.77212 0.75531 0.44538 0.0
H2412 H 0.79524 0.68994 0.38194 0.0
H2413 H 0.77502 0.68163 0.35873 0.0
H2414 H 0.77435 0.66627 0.38665 0.0
H2415 H 0.72823 0.67537 0.39188 0.0
H2416 H 0.72878 0.69078 0.36398 0.0
H2417 H 0.71754 0.70527 0.39078 0.0
H2418 H 0.77546 0.77626 0.40634 0.0
H2419 H 0.77633 0.79021 0.36487 0.0
H2420 H 0.75748 0.72094 0.3402 0.0
C2421 C 0.75908 0.68925 0.43394 0.0
C2422 C 0.76221 0.69733 0.45767 0.0
C2423 C 0.76674 0.7214 0.46139 0.0
C2424 C 0.76846 0.73703 0.44221 0.0
C2425 C 0.76529 0.72858 0.41916 0.0
C2426 C 0.76045 0.70531 0.41488 0.0
C2427 C 0.75725 0.70109 0.38827 0.0
C2428 C 0.77662 0.6837 0.37831 0.0
C2429 C 0.73141 0.69262 0.38345 0.0
C2430 C 0.76126 0.72554 0.37832 0.0
C2431 C 0.76609 0.74101 0.39655 0.0
C2432 C 0.77145 0.76434 0.39198 0.0
C2433 C 0.77194 0.77211 0.36828 0.0
C2434 C 0.76673 0.75684 0.34916 0.0
C2435 C 0.76114 0.73319 0.35439 0.0
H2436 H 0.59152 0.53867 0.87855 0.0
H2437 H 0.59018 0.46434 0.86338 0.0
H2438 H 0.58254 0.45644 0.90634 0.0
H2439 H 0.62159 0.53322 0.93699 0.0
H2440 H 0.60423 0.55758 0.94939 0.0
H2441 H 0.61218 0.55678 0.91802 0.0
H2442 H 0.56657 0.56164 0.9081 0.0
H2443 H 0.5585 0.56239 0.93933 0.0
H2444 H 0.54484 0.54119 0.92013 0.0
H2445 H 0.56846 0.45774 0.94962 0.0
H2446 H 0.55265 0.46782 0.99022 0.0
H2447 H 0.56693 0.54103 0.97676 0.0
C2448 C 0.58999 0.52072 0.88439 0.0
C2449 C 0.59117 0.50208 0.86795 0.0
C2450 C 0.58932 0.47878 0.87597 0.0
C2451 C 0.58504 0.47417 0.90023 0.0
C2452 C 0.58343 0.49307 0.91604 0.0
C2453 C 0.58637 0.51585 0.90846 0.0
C2454 C 0.58281 0.53318 0.92864 0.0
C2455 C 0.60663 0.54593 0.93355 0.0
C2456 C 0.56194 0.5506 0.92375 0.0
C2457 C 0.57614 0.51675 0.94859 0.0
C2458 C 0.57668 0.49366 0.94111 0.0
C2459 C 0.5686 0.47567 0.95587 0.0
C2460 C 0.55955 0.48155 0.97878 0.0
C2461 C 0.55889 0.50515 0.98655 0.0
C2462 C 0.56777 0.52279 0.97143 0.0
H2463 H 0.76612 0.36781 0.1266 0.0
H2464 H 0.73519 0.31014 0.08748 0.0
H2465 H 0.72932 0.2885 0.12495 0.0
H2466 H 0.79859 0.33203 0.16858 0.0
H2467 H 0.79294 0.35211 0.19306 0.0
H2468 H 0.79482 0.36286 0.16302 0.0
H2469 H 0.75213 0.38225 0.1692 0.0
H2470 H 0.74998 0.37107 0.19909 0.0
H2471 H 0.72663 0.36454 0.17824 0.0
H2472 H 0.72616 0.27336 0.16627 0.0
H2473 H 0.73031 0.2636 0.20866 0.0
H2474 H 0.76315 0.33107 0.22112 0.0
C2475 C 0.75835 0.35054 0.1259 0.0
C2476 C 0.75109 0.34066 0.10414 0.0
C2477 C 0.74093 0.31803 0.10394 0.0
C2478 C 0.73736 0.30566 0.12514 0.0
C2479 C 0.7441 0.31615 0.14634 0.0
C2480 C 0.7547 0.3379 0.1469 0.0
C2481 C 0.76082 0.3449 0.17206 0.0
C2482 C 0.78843 0.34815 0.1743 0.0
C2483 C 0.74653 0.367 0.18011 0.0
C2484 C 0.75208 0.3236 0.18549 0.0
C2485 C 0.7423 0.30734 0.17032 0.0
C2486 C 0.73373 0.28594 0.17838 0.0
C2487 C 0.73606 0.28061 0.2025 0.0
C2488 C 0.74694 0.29662 0.21819 0.0
C2489 C 0.75441 0.31863 0.20965 0.0
H2490 H 0.9549 0.48332 0.29556 0.0
H2491 H 0.95397 0.55912 0.29893 0.0
H2492 H 0.96953 0.5577 0.33963 0.0
H2493 H 0.93212 0.47531 0.3533 0.0
H2494 H 0.95011 0.44966 0.35975 0.0
H2495 H 0.94271 0.45614 0.32946 0.0
H2496 H 0.98853 0.45531 0.31713 0.0
H2497 H -0.00392 0.44855 0.34737 0.0
H2498 H 0.00935 0.47353 0.33283 0.0
H2499 H 0.98113 0.54866 0.38018 0.0
H2500 H 0.98861 0.53269 0.41946 0.0
H2501 H 0.98045 0.46217 0.39178 0.0
C2502 C 0.95872 0.49954 0.30469 0.0
C2503 C 0.9536 0.52135 0.2942 0.0
C2504 C 0.95796 0.54229 0.30677 0.0
C2505 C 0.96685 0.54165 0.3298 0.0
C2506 C 0.97107 0.51992 0.33997 0.0
C2507 C 0.96724 0.49921 0.32794 0.0
C2508 C 0.97101 0.47833 0.34401 0.0
C2509 C 0.94759 0.46403 0.34679 0.0
C2510 C 0.99253 0.46302 0.33478 0.0
C2511 C 0.97694 0.49066 0.36705 0.0
C2512 C 0.97714 0.5146 0.36408 0.0
C2513 C 0.98117 0.52993 0.38276 0.0
C2514 C 0.98513 0.52057 0.40518 0.0
C2515 C 0.98489 0.49605 0.40893 0.0
C2516 C 0.9809 0.48092 0.38947 0.0
H2517 H 0.75808 0.65625 0.63108 0.0
H2518 H 0.77584 0.71115 0.58076 0.0
H2519 H 0.78255 0.73826 0.61437 0.0
H2520 H 0.72555 0.69336 0.6741 0.0
H2521 H 0.7365 0.67773 0.69952 0.0
H2522 H 0.73327 0.66269 0.67152 0.0
H2523 H 0.77854 0.64955 0.67223 0.0
H2524 H 0.78191 0.66471 0.70015 0.0
H2525 H 0.8018 0.67124 0.67505 0.0
H2526 H 0.78771 0.75954 0.65387 0.0
H2527 H 0.7888 0.7737 0.69543 0.0
H2528 H 0.76722 0.7052 0.72045 0.0
C2529 C 0.76336 0.67398 0.62703 0.0
C2530 C 0.76645 0.68143 0.60302 0.0
C2531 C 0.77328 0.70489 0.5988 0.0
C2532 C 0.77722 0.72044 0.61786 0.0
C2533 C 0.77418 0.71245 0.64121 0.0
C2534 C 0.76723 0.68979 0.64586 0.0
C2535 C 0.7648 0.68569 0.6726 0.0
C2536 C 0.73846 0.67951 0.67986 0.0
C2537 C 0.78284 0.66667 0.68046 0.0
C2538 C 0.77154 0.70956 0.68232 0.0
C2539 C 0.77697 0.72471 0.66389 0.0
C2540 C 0.7835 0.74777 0.66838 0.0
C2541 C 0.78415 0.75565 0.69216 0.0
C2542 C 0.77828 0.74063 0.71146 0.0
C2543 C 0.77208 0.71715 0.70627 0.0
H2544 H 0.66854 0.62763 0.50959 0.0
H2545 H 0.715 0.57954 0.54742 0.0
H2546 H 0.68075 0.55219 0.55215 0.0
H2547 H 0.61208 0.61655 0.54296 0.0
H2548 H 0.59349 0.61804 0.51707 0.0
H2549 H 0.62118 0.6345 0.51807 0.0
H2550 H 0.63655 0.61475 0.47867 0.0
H2551 H 0.60894 0.59821 0.47762 0.0
H2552 H 0.63807 0.58329 0.47668 0.0
H2553 H 0.64048 0.53008 0.55349 0.0
H2554 H 0.59915 0.51411 0.5481 0.0
H2555 H 0.58029 0.57496 0.50648 0.0
C2556 C 0.6714 0.61145 0.51908 0.0
C2557 C 0.69445 0.60587 0.52835 0.0
C2558 C 0.69754 0.58427 0.54022 0.0
C2559 C 0.67814 0.56861 0.54305 0.0
C2560 C 0.6557 0.57452 0.53359 0.0
C2561 C 0.65233 0.59534 0.52161 0.0
C2562 C 0.62681 0.59692 0.51197 0.0
C2563 C 0.61255 0.61774 0.52319 0.0
C2564 C 0.62765 0.59837 0.48461 0.0
C2565 C 0.61642 0.57381 0.52035 0.0
C2566 C 0.63318 0.56126 0.53313 0.0
C2567 C 0.62731 0.53971 0.5433 0.0
C2568 C 0.60379 0.53074 0.54019 0.0
C2569 C 0.58658 0.54304 0.52659 0.0
C2570 C 0.59315 0.56487 0.51663 0.0
H2571 H 0.16836 0.9475 0.54312 0.0
H2572 H 0.14934 0.87784 0.51954 0.0
H2573 H 0.11153 0.89396 0.50257 0.0
H2574 H 0.10825 0.9669 0.55996 0.0
H2575 H 0.11322 -0.00366 0.54985 0.0
H2576 H 0.13839 0.97898 0.55999 0.0
H2577 H 0.16154 0.98583 0.51976 0.0
H2578 H 0.13629 0.00298 0.50938 0.0
H2579 H 0.14738 0.97806 0.49229 0.0
H2580 H 0.07591 0.91813 0.48832 0.0
H2581 H 0.04428 0.94779 0.47989 0.0
H2582 H 0.08802 0.00123 0.51255 0.0
C2583 C 0.15625 0.93554 0.53448 0.0
C2584 C 0.16172 0.91144 0.53259 0.0
C2585 C 0.14539 0.89639 0.52118 0.0
C2586 C 0.12399 0.90539 0.51142 0.0
C2587 C 0.11941 0.92939 0.51326 0.0
C2588 C 0.13505 0.94418 0.52464 0.0
C2589 C 0.12603 0.96922 0.52454 0.0
C2590 C 0.12118 0.97839 0.5501 0.0
C2591 C 0.14387 0.98494 0.51066 0.0
C2592 C 0.10268 0.96626 0.51147 0.0
C2593 C 0.09918 0.94321 0.50498 0.0
C2594 C 0.0785 0.93623 0.49325 0.0
C2595 C 0.06069 0.9532 0.48851 0.0
C2596 C 0.06376 0.97681 0.49556 0.0
C2597 C 0.08524 0.98338 0.50678 0.0
H2598 H 0.35793 -0.002 0.77944 0.0
H2599 H 0.37515 0.98021 0.7056 0.0
H2600 H 0.34667 0.94713 0.7082 0.0
H2601 H 0.35926 0.94155 0.79962 0.0
H2602 H 0.33502 0.94511 0.82173 0.0
H2603 H 0.35285 0.96985 0.81286 0.0
H2604 H 0.3136 0.9924 0.8017 0.0
H2605 H 0.29557 0.9677 0.81068 0.0
H2606 H 0.29302 0.97943 0.78112 0.0
H2607 H 0.31982 0.91383 0.72006 0.0
H2608 H 0.29846 0.88182 0.74052 0.0
H2609 H 0.30117 0.92014 0.80738 0.0
C2610 C 0.35507 0.98764 0.76358 0.0
C2611 C 0.36841 0.99184 0.74219 0.0
C2612 C 0.3649 0.97737 0.72207 0.0
C2613 C 0.34871 0.95863 0.72337 0.0
C2614 C 0.33634 0.95456 0.74495 0.0
C2615 C 0.33936 0.96866 0.76471 0.0
C2616 C 0.3264 0.95891 0.78656 0.0
C2617 C 0.34446 0.95353 0.80634 0.0
C2618 C 0.30593 0.97561 0.79554 0.0
C2619 C 0.3162 0.93676 0.77619 0.0
C2620 C 0.3217 0.93481 0.75208 0.0
C2621 C 0.31528 0.91525 0.7389 0.0
C2622 C 0.30334 0.89703 0.75077 0.0
C2623 C 0.29826 0.89828 0.77568 0.0
C2624 C 0.3044 0.9187 0.78833 0.0
H2625 H 0.33177 0.07548 0.02471 0.0
H2626 H 0.34691 0.1495 0.01985 0.0
H2627 H 0.3911 0.14047 0.01694 0.0
H2628 H 0.38236 0.05838 0.05894 0.0
H2629 H 0.38828 0.0313 0.04309 0.0
H2630 H 0.35788 0.04348 0.04479 0.0
H2631 H 0.35619 0.04297 -0.00127 0.0
H2632 H 0.38653 0.0306 -0.0031 0.0
H2633 H 0.37967 0.05726 0.98136 0.0
H2634 H 0.4339 0.12335 0.01837 0.0
H2635 H 0.47177 0.09932 0.01784 0.0
H2636 H 0.42896 0.03627 0.0172 0.0
C2637 C 0.34441 0.08976 0.02286 0.0
C2638 C 0.33591 0.11324 0.02263 0.0
C2639 C 0.35299 0.13142 0.01996 0.0
C2640 C 0.37814 0.12644 0.01843 0.0
C2641 C 0.38594 0.10314 0.01903 0.0
C2642 C 0.36956 0.08505 0.02061 0.0
C2643 C 0.3827 0.0615 0.02001 0.0
C2644 C 0.37749 0.04787 0.04308 0.0
C2645 C 0.37586 0.04725 -0.00206 0.0
C2646 C 0.40904 0.06915 0.01829 0.0
C2647 C 0.41052 0.09326 0.01813 0.0
C2648 C 0.43292 0.10447 0.0181 0.0
C2649 C 0.45433 0.09071 0.01794 0.0
C2650 C 0.45326 0.06601 0.01726 0.0
C2651 C 0.43028 0.05514 0.01737 0.0
H2652 H 0.63974 0.59496 0.81332 0.0
H2653 H 0.67564 0.55479 0.75641 0.0
H2654 H 0.70867 0.58388 0.7542 0.0
H2655 H 0.65429 0.65211 0.7926 0.0
H2656 H 0.65958 0.66361 0.82194 0.0
H2657 H 0.63859 0.64006 0.81824 0.0
H2658 H 0.66272 0.61499 0.84807 0.0
H2659 H 0.68385 0.63843 0.85178 0.0
H2660 H 0.69486 0.60981 0.84273 0.0
H2661 H 0.73611 0.6189 0.75676 0.0
H2662 H 0.75816 0.65518 0.76672 0.0
H2663 H 0.70637 0.66953 0.82463 0.0
C2664 C 0.65449 0.59243 0.80029 0.0
C2665 C 0.65516 0.57298 0.78478 0.0
C2666 C 0.67492 0.56977 0.76832 0.0
C2667 C 0.69365 0.58616 0.76695 0.0
C2668 C 0.69247 0.60521 0.78256 0.0
C2669 C 0.67358 0.6082 0.79915 0.0
C2670 C 0.67705 0.62956 0.81458 0.0
C2671 C 0.65614 0.64738 0.81165 0.0
C2672 C 0.67979 0.62278 0.84085 0.0
C2673 C 0.70068 0.63836 0.80386 0.0
C2674 C 0.70917 0.62428 0.78521 0.0
C2675 C 0.7299 0.62981 0.7716 0.0
C2676 C 0.74225 0.6503 0.7773 0.0
C2677 C 0.73404 0.6645 0.79666 0.0
C2678 C 0.71316 0.65842 0.81015 0.0
H2679 H 0.81092 0.44805 0.98482 0.0
H2680 H 0.82868 0.39775 0.03953 0.0
H2681 H 0.87217 0.40712 0.03426 0.0
H2682 H 0.86437 0.43693 0.94653 0.0
H2683 H 0.86761 0.46723 0.93856 0.0
H2684 H 0.8379 0.45587 0.94583 0.0
H2685 H 0.83136 0.48783 0.97843 0.0
H2686 H 0.86096 0.49936 0.97117 0.0
H2687 H 0.85348 0.49082 0.00132 0.0
H2688 H 0.91326 0.42297 0.02436 0.0
H2689 H 0.94934 0.44519 0.01115 0.0
H2690 H 0.90495 0.48502 0.96286 0.0
C2691 C 0.82394 0.4389 -0.00437 0.0
C2692 C 0.81638 0.42215 0.01259 0.0
C2693 C 0.83402 0.41065 0.02643 0.0
C2694 C 0.85877 0.41578 0.02351 0.0
C2695 C 0.86557 0.43236 0.00663 0.0
C2696 C 0.8487 0.44377 0.99294 0.0
C2697 C 0.86072 0.46146 0.97666 0.0
C2698 C 0.85745 0.45497 0.95033 0.0
C2699 C 0.85106 0.48634 0.98224 0.0
C2700 C 0.88696 0.45847 0.98363 0.0
C2701 C 0.88935 0.44148 0.00083 0.0
C2702 C 0.91165 0.43623 0.01081 0.0
C2703 C 0.93197 0.44899 0.0033 0.0
C2704 C 0.92984 0.46678 0.98602 0.0
C2705 C 0.90712 0.47126 0.97579 0.0
H2706 H 0.35059 0.11405 0.78358 0.0
H2707 H 0.4226 0.1354 0.80389 0.0
H2708 H 0.4095 0.17687 0.80164 0.0
H2709 H 0.34452 0.15356 0.73972 0.0
H2710 H 0.31238 0.15926 0.74433 0.0
H2711 H 0.3252 0.13157 0.75278 0.0
H2712 H 0.30847 0.13718 0.79615 0.0
H2713 H 0.29479 0.16457 0.78764 0.0
H2714 H 0.31515 0.1636 0.81222 0.0
H2715 H 0.38928 0.21634 0.79244 0.0
H2716 H 0.36321 0.24942 0.77949 0.0
H2717 H 0.30689 0.20038 0.76156 0.0
C2718 C 0.36338 0.12736 0.7885 0.0
C2719 C 0.38756 0.12149 0.79406 0.0
C2720 C 0.40387 0.1395 0.79985 0.0
C2721 C 0.39663 0.16311 0.79847 0.0
C2722 C 0.37308 0.16828 0.7913 0.0
C2723 C 0.35662 0.15083 0.78676 0.0
C2724 C 0.33331 0.16057 0.77697 0.0
C2725 C 0.32861 0.15064 0.75198 0.0
C2726 C 0.31165 0.15623 0.79428 0.0
C2727 C 0.33945 0.18615 0.77594 0.0
C2728 C 0.36221 0.19048 0.78467 0.0
C2729 C 0.37142 0.21309 0.7856 0.0
C2730 C 0.35664 0.23172 0.77798 0.0
C2731 C 0.33323 0.22744 0.76909 0.0
C2732 C 0.32488 0.20428 0.76777 0.0
H2733 H 0.22323 0.94816 0.2669 0.0
H2734 H 0.19286 0.95108 0.33886 0.0
H2735 H 0.21963 0.91785 0.34997 0.0
H2736 H 0.21865 0.88974 0.26222 0.0
H2737 H 0.24549 0.88478 0.24355 0.0
H2738 H 0.22999 0.91258 0.24309 0.0
H2739 H 0.2699 0.93346 0.25365 0.0
H2740 H 0.28564 0.9056 0.254 0.0
H2741 H 0.28607 0.92466 0.27967 0.0
H2742 H 0.24582 0.88166 0.35171 0.0
H2743 H 0.26373 0.84254 0.3429 0.0
H2744 H 0.27194 0.86061 0.26832 0.0
C2745 C 0.22312 0.94244 0.28526 0.0
C2746 C 0.20676 0.95245 0.30231 0.0
C2747 C 0.20582 0.94382 0.32581 0.0
C2748 C 0.22101 0.92509 0.33223 0.0
C2749 C 0.2365 0.91503 0.31474 0.0
C2750 C 0.23738 0.92327 0.29162 0.0
C2751 C 0.25146 0.90676 0.27499 0.0
C2752 C 0.23543 0.89795 0.2548 0.0
C2753 C 0.27465 0.91832 0.26499 0.0
C2754 C 0.25755 0.88746 0.29211 0.0
C2755 C 0.24969 0.89297 0.31514 0.0
C2756 C 0.25228 0.87729 0.33382 0.0
C2757 C 0.26248 0.85518 0.32868 0.0
C2758 C 0.26911 0.84883 0.30496 0.0
C2759 C 0.2671 0.86528 0.28659 0.0
H2760 H 0.51298 0.34632 0.4614 0.0
H2761 H 0.53806 0.3672 0.39053 0.0
H2762 H 0.5425 0.40714 0.40443 0.0
H2763 H 0.47839 0.40045 0.47445 0.0
H2764 H 0.48636 0.40218 0.50532 0.0
H2765 H 0.48516 0.37413 0.49061 0.0
H2766 H 0.52952 0.3653 0.50227 0.0
H2767 H 0.53086 0.39337 0.51692 0.0
H2768 H 0.55316 0.38549 0.49398 0.0
H2769 H 0.54459 0.44511 0.42423 0.0
H2770 H 0.54255 0.48023 0.44952 0.0
H2771 H 0.51603 0.43867 0.50908 0.0
C2772 C 0.5194 0.35929 0.44885 0.0
C2773 C 0.52512 0.35295 0.42463 0.0
C2774 C 0.53342 0.3709 0.40905 0.0
C2775 C 0.53613 0.39397 0.41679 0.0
C2776 C 0.5305 0.3996 0.4404 0.0
C2777 C 0.52219 0.38301 0.45635 0.0
C2778 C 0.51718 0.3947 0.48073 0.0
C2779 C 0.49016 0.39274 0.48822 0.0
C2780 C 0.53366 0.38407 0.4996 0.0
C2781 C 0.52391 0.4202 0.47567 0.0
C2782 C 0.53163 0.4223 0.45219 0.0
C2783 C 0.5386 0.44371 0.44269 0.0
C2784 C 0.53738 0.46369 0.45731 0.0
C2785 C 0.52925 0.46256 0.48147 0.0
C2786 C 0.52262 0.44027 0.49082 0.0
H2787 H 0.45915 0.78104 0.2321 0.0
H2788 H 0.44137 0.81132 0.16391 0.0
H2789 H 0.39806 0.81364 0.17665 0.0
H2790 H 0.40653 0.74601 0.23905 0.0
H2791 H 0.40312 0.75097 0.27072 0.0
H2792 H 0.43283 0.75207 0.25642 0.0
H2793 H 0.43865 0.79386 0.27331 0.0
H2794 H 0.40895 0.79285 0.28771 0.0
H2795 H 0.41627 0.81631 0.26757 0.0
H2796 H 0.35657 0.81065 0.19586 0.0
H2797 H 0.31984 0.80485 0.22149 0.0
H2798 H 0.36518 0.7782 0.27757 0.0
C2799 C 0.44617 0.78823 0.21988 0.0
C2800 C 0.45358 0.79594 0.19702 0.0
C2801 C 0.43608 0.80537 0.18156 0.0
C2802 C 0.41145 0.80672 0.18859 0.0
C2803 C 0.40473 0.79881 0.21118 0.0
C2804 C 0.42158 0.78996 0.22668 0.0
C2805 C 0.40961 0.78272 0.25001 0.0
C2806 C 0.41324 0.75638 0.25428 0.0
C2807 C 0.41892 0.79731 0.27088 0.0
C2808 C 0.38336 0.78865 0.24507 0.0
C2809 C 0.3809 0.79779 0.22254 0.0
C2810 C 0.35826 0.80374 0.21364 0.0
C2811 C 0.33754 0.80033 0.22827 0.0
C2812 C 0.33978 0.79127 0.25152 0.0
C2813 C 0.36299 0.78544 0.25997 0.0
H2814 H 0.03813 0.69941 0.9607 0.0
H2815 H 0.9882 0.69118 0.90284 0.0
H2816 H 0.98392 0.6495 0.91256 0.0
H2817 H 0.06863 0.64321 0.95213 0.0
H2818 H 0.07215 0.63776 0.98343 0.0
H2819 H 0.07091 0.66736 0.97271 0.0
H2820 H 0.03499 0.67673 0.00221 0.0
H2821 H 0.0362 0.64717 0.01305 0.0
H2822 H 0.00817 0.65893 0.00191 0.0
H2823 H 0.98475 0.60818 0.92827 0.0
H2824 H 0.9912 0.5705 0.94856 0.0
H2825 H 0.04155 0.60383 -0.00416 0.0
C2826 C 0.02614 0.68888 0.95022 0.0
C2827 C 0.0134 0.69893 0.93097 0.0
C2828 C -0.00183 0.68421 0.91763 0.0
C2829 C -0.00441 0.66037 0.92303 0.0
C2830 C 0.00846 0.65099 0.94184 0.0
C2831 C 0.02351 0.66473 0.95525 0.0
C2832 C 0.03566 0.64988 0.97419 0.0
C2833 C 0.06349 0.64954 0.97038 0.0
C2834 C 0.02831 0.65871 -0.00067 0.0
C2835 C 0.02504 0.62582 0.96934 0.0
C2836 C 0.00932 0.62694 0.95062 0.0
C2837 C -0.00292 0.60714 0.94292 0.0
C2838 C 0.00088 0.5857 0.9546 0.0
C2839 C 0.01694 0.58387 0.97384 0.0
C2840 C 0.02922 0.6044 0.98115 0.0
H2841 H 0.11437 0.28442 0.65133 0.0
H2842 H 0.06503 0.26003 0.70735 0.0
H2843 H 0.09842 0.23737 0.72462 0.0
H2844 H 0.15239 0.23261 0.64481 0.0
H2845 H 0.18037 0.24853 0.64162 0.0
H2846 H 0.15222 0.26146 0.63208 0.0
H2847 H 0.15866 0.29754 0.65934 0.0
H2848 H 0.18707 0.28492 0.66842 0.0
H2849 H 0.16405 0.29319 0.69054 0.0
H2850 H 0.13652 0.21695 0.73556 0.0
H2851 H 0.17907 0.20721 0.74499 0.0
H2852 H 0.20455 0.2473 0.68427 0.0
C2853 C 0.11064 0.27426 0.66721 0.0
C2854 C 0.087 0.27347 0.67764 0.0
C2855 C 0.08288 0.26052 0.69875 0.0
C2856 C 0.10169 0.24746 0.70864 0.0
C2857 C 0.12461 0.248 0.6975 0.0
C2858 C 0.12938 0.26161 0.67771 0.0
C2859 C 0.1562 0.26104 0.67078 0.0
C2860 C 0.16054 0.25027 0.64584 0.0
C2861 C 0.16714 0.28563 0.67238 0.0
C2862 C 0.1657 0.24511 0.68991 0.0
C2863 C 0.14706 0.23728 0.70471 0.0
C2864 C 0.15131 0.22287 0.72409 0.0
C2865 C 0.17545 0.21722 0.72916 0.0
C2866 C 0.19484 0.22639 0.71517 0.0
C2867 C 0.18988 0.2399 0.69494 0.0
H2868 H 0.51432 0.71049 0.13503 0.0
H2869 H 0.53958 0.75864 0.08068 0.0
H2870 H 0.54848 0.7253 0.05328 0.0
H2871 H 0.55781 0.66768 0.12552 0.0
H2872 H 0.53799 0.64317 0.1302 0.0
H2873 H 0.53079 0.67079 0.14434 0.0
H2874 H 0.48842 0.67143 0.12515 0.0
H2875 H 0.49536 0.64357 0.11123 0.0
H2876 H 0.48643 0.66809 0.09332 0.0
H2877 H 0.5605 0.68626 0.03451 0.0
H2878 H 0.56945 0.64475 0.02389 0.0
H2879 H 0.53413 0.62296 0.08986 0.0
C2880 C 0.52115 0.71403 0.11714 0.0
C2881 C 0.52629 0.73701 0.10987 0.0
C2882 C 0.5353 0.74109 0.08642 0.0
C2883 C 0.54051 0.72229 0.07082 0.0
C2884 C 0.53603 0.6997 0.07886 0.0
C2885 C 0.52597 0.69557 0.10128 0.0
C2886 C 0.52375 0.66971 0.10607 0.0
C2887 C 0.53847 0.66243 0.12781 0.0
C2888 C 0.49689 0.6628 0.10911 0.0
C2889 C 0.53498 0.6599 0.08322 0.0
C2890 C 0.54201 0.67738 0.06771 0.0
C2891 C 0.55458 0.67241 0.04628 0.0
C2892 C 0.55978 0.64892 0.04049 0.0
C2893 C 0.5522 0.63086 0.05598 0.0
C2894 C 0.53962 0.6365 0.07752 0.0
H2895 H 0.11219 0.75439 0.88125 0.0
H2896 H 0.07461 0.80925 0.84339 0.0
H2897 H 0.11312 0.81899 0.82194 0.0
H2898 H 0.16939 0.78252 0.88752 0.0
H2899 H 0.18768 0.7566 0.88174 0.0
H2900 H 0.15738 0.75413 0.89451 0.0
H2901 H 0.14589 0.72624 0.86023 0.0
H2902 H 0.17621 0.72854 0.84741 0.0
H2903 H 0.15022 0.73547 0.82978 0.0
H2904 H 0.15642 0.82484 0.80708 0.0
H2905 H 0.20018 0.82293 0.79549 0.0
H2906 H 0.20923 0.76133 0.83908 0.0
C2907 C 0.11212 0.76842 0.86839 0.0
C2908 C 0.09044 0.78124 0.8641 0.0
C2909 C 0.09097 0.79922 0.84692 0.0
C2910 C 0.11279 0.80493 0.83473 0.0
C2911 C 0.13388 0.79209 0.83945 0.0
C2912 C 0.13364 0.77386 0.85547 0.0
C2913 C 0.15865 0.76217 0.85639 0.0
C2914 C 0.16887 0.76397 0.88154 0.0
C2915 C 0.15768 0.73659 0.84795 0.0
C2916 C 0.17309 0.77698 0.83876 0.0
C2917 C 0.15848 0.79435 0.82948 0.0
C2918 C 0.16792 0.81108 0.81394 0.0
C2919 C 0.19282 0.80993 0.80754 0.0
C2920 C 0.20802 0.79189 0.81619 0.0
C2921 C 0.19794 0.77512 0.83193 0.0
H2922 H 0.01163 0.34931 0.57601 0.0
H2923 H 0.00381 0.37274 0.64962 0.0
H2924 H -0.00361 0.41297 0.63617 0.0
H2925 H 0.04332 0.3988 0.55458 0.0
H2926 H 0.02858 0.39963 0.52633 0.0
H2927 H 0.03193 0.3723 0.54167 0.0
H2928 H 0.98529 0.36623 0.54037 0.0
H2929 H 0.98181 0.39365 0.52513 0.0
H2930 H 0.96485 0.38848 0.5525 0.0
H2931 H 0.99317 0.45102 0.61522 0.0
H2932 H 0.9939 0.48451 0.58762 0.0
H2933 H 0.00185 0.43651 0.52763 0.0
C2934 C 0.00816 0.36288 0.58926 0.0
C2935 C 0.0083 0.35786 0.61385 0.0
C2936 C 0.00377 0.37612 0.63067 0.0
C2937 C -0.00054 0.39906 0.62323 0.0
C2938 C -0.00049 0.40346 0.59891 0.0
C2939 C 0.00364 0.38592 0.58215 0.0
C2940 C 0.00356 0.39562 0.55712 0.0
C2941 C 0.02832 0.39133 0.54417 0.0
C2942 C 0.98263 0.38539 0.54295 0.0
C2943 C -0.00079 0.42134 0.56252 0.0
C2944 C -0.00312 0.42547 0.58675 0.0
C2945 C -0.00546 0.44802 0.59618 0.0
C2946 C -0.00503 0.4669 0.58041 0.0
C2947 C -0.00248 0.46304 0.55554 0.0
C2948 C -0.00078 0.43994 0.54653 0.0
H2949 H 0.44908 0.29777 0.32928 0.0
H2950 H 0.44243 0.24106 0.37985 0.0
H2951 H 0.40191 0.23184 0.3642 0.0
H2952 H 0.3857 0.3165 0.3337 0.0
H2953 H 0.38435 0.32397 0.30262 0.0
H2954 H 0.41277 0.32578 0.31769 0.0
H2955 H 0.43308 0.29825 0.28592 0.0
H2956 H 0.40466 0.29621 0.27088 0.0
H2957 H 0.42009 0.27003 0.28039 0.0
H2958 H 0.36209 0.22806 0.34164 0.0
H2959 H 0.32554 0.2323 0.31727 0.0
H2960 H 0.3574 0.2926 0.28253 0.0
C2961 C 0.43914 0.2834 0.33714 0.0
C2962 C 0.44919 0.27007 0.35584 0.0
C2963 C 0.43528 0.25159 0.36563 0.0
C2964 C 0.41222 0.24616 0.35674 0.0
C2965 C 0.40303 0.2595 0.33816 0.0
C2966 C 0.41596 0.27796 0.32871 0.0
C2967 C 0.40177 0.29005 0.3093 0.0
C2968 C 0.39579 0.31559 0.31625 0.0
C2969 C 0.41574 0.28854 0.2852 0.0
C2970 C 0.37887 0.27543 0.30911 0.0
C2971 C 0.38002 0.25776 0.32575 0.0
C2972 C 0.36107 0.24191 0.32865 0.0
C2973 C 0.34035 0.24439 0.31457 0.0
C2974 C 0.33842 0.26271 0.29778 0.0
C2975 C 0.35818 0.27831 0.29505 0.0
H2976 H 0.47452 0.56462 0.30416 0.0
H2977 H 0.40192 0.58623 0.32862 0.0
H2978 H 0.4178 0.59587 0.36808 0.0
H2979 H 0.48904 0.53509 0.35381 0.0
H2980 H 0.52072 0.54289 0.35367 0.0
H2981 H 0.50473 0.54242 0.32626 0.0
H2982 H 0.51655 0.58552 0.31851 0.0
H2983 H 0.53259 0.58612 0.34608 0.0
H2984 H 0.50908 0.60758 0.34072 0.0
H2985 H 0.44007 0.59723 0.40618 0.0
H2986 H 0.46659 0.58892 0.43991 0.0
H2987 H 0.524 0.56573 0.39017 0.0
C2988 C 0.46206 0.57199 0.31758 0.0
C2989 C 0.43704 0.57469 0.31334 0.0
C2990 C 0.42122 0.58401 0.3315 0.0
C2991 C 0.43009 0.58972 0.35391 0.0
C2992 C 0.4548 0.58621 0.35772 0.0
C2993 C 0.47058 0.57767 0.33999 0.0
C2994 C 0.49558 0.57263 0.34934 0.0
C2995 C 0.50292 0.54673 0.34556 0.0
C2996 C 0.51457 0.58894 0.33799 0.0
C2997 C 0.49103 0.57844 0.37537 0.0
C2998 C 0.46762 0.58679 0.37981 0.0
C2999 C 0.45859 0.5911 0.40289 0.0
C3000 C 0.47371 0.58613 0.42194 0.0
C3001 C 0.4974 0.57661 0.41774 0.0
C3002 C 0.50628 0.57349 0.39409 0.0
H3003 H 0.2935 0.71105 0.09767 0.0
H3004 H 0.23582 0.66014 0.10407 0.0
H3005 H 0.21843 0.68145 0.139 0.0
H3006 H 0.30161 0.71761 0.16095 0.0
H3007 H 0.30784 0.74841 0.15921 0.0
H3008 H 0.31528 0.72955 0.13418 0.0
H3009 H 0.2893 0.756 0.10719 0.0
H3010 H 0.28153 0.77478 0.13223 0.0
H3011 H 0.25779 0.76179 0.11527 0.0
H3012 H 0.20631 0.70898 0.1723 0.0
H3013 H 0.20383 0.73784 0.20542 0.0
H3014 H 0.27058 0.76927 0.17922 0.0
C3015 C 0.27725 0.70438 0.10648 0.0
C3016 C 0.26599 0.68398 0.09811 0.0
C3017 C 0.24486 0.67566 0.11024 0.0
C3018 C 0.23471 0.68774 0.12999 0.0
C3019 C 0.24605 0.70795 0.1376 0.0
C3020 C 0.2671 0.71599 0.12653 0.0
C3021 C 0.27631 0.73752 0.13907 0.0
C3022 C 0.30177 0.73299 0.14894 0.0
C3023 C 0.27622 0.75878 0.12244 0.0
C3024 C 0.2572 0.74024 0.15892 0.0
C3025 C 0.23964 0.72327 0.15746 0.0
C3026 C 0.21997 0.72233 0.17367 0.0
C3027 C 0.21856 0.73885 0.19225 0.0
C3028 C 0.23693 0.75571 0.19462 0.0
C3029 C 0.25631 0.75653 0.1776 0.0
H3030 H 0.12722 0.53708 0.86352 0.0
H3031 H 0.11542 0.46653 0.83856 0.0
H3032 H 0.10315 0.45474 0.87945 0.0
H3033 H 0.14874 0.51886 0.92604 0.0
H3034 H 0.134 0.54435 0.93921 0.0
H3035 H 0.14724 0.5457 0.90948 0.0
H3036 H 0.10583 0.56024 0.89377 0.0
H3037 H 0.09249 0.55879 0.92323 0.0
H3038 H 0.07903 0.54298 0.89917 0.0
H3039 H 0.08135 0.45415 0.91855 0.0
H3040 H 0.05685 0.46337 0.95521 0.0
H3041 H 0.08747 0.53265 0.95696 0.0
C3042 C 0.12305 0.51896 0.86706 0.0
C3043 C 0.12226 0.50258 0.84835 0.0
C3044 C 0.11632 0.47911 0.85302 0.0
C3045 C 0.10942 0.4723 0.87611 0.0
C3046 C 0.10941 0.48908 0.89423 0.0
C3047 C 0.11684 0.51178 0.89013 0.0
C3048 C 0.11276 0.52703 0.91201 0.0
C3049 C 0.13714 0.53441 0.92229 0.0
C3050 C 0.09656 0.54849 0.90671 0.0
C3051 C 0.09984 0.50997 0.92827 0.0
C3052 C 0.0983 0.48808 0.91782 0.0
C3053 C 0.08335 0.47081 0.92748 0.0
C3054 C 0.06941 0.47619 0.94811 0.0
C3055 C 0.07096 0.49844 0.95892 0.0
C3056 C 0.08687 0.51521 0.94936 0.0
H3057 H 0.26357 0.33402 0.59169 0.0
H3058 H 0.30502 0.39625 0.60629 0.0
H3059 H 0.31377 0.38134 0.64628 0.0
H3060 H 0.23629 0.32977 0.65107 0.0
H3061 H 0.23729 0.29828 0.65176 0.0
H3062 H 0.23503 0.31319 0.62373 0.0
H3063 H 0.27366 0.29117 0.60772 0.0
H3064 H 0.27605 0.27627 0.63575 0.0
H3065 H 0.30138 0.29275 0.62404 0.0
H3066 H 0.31801 0.36002 0.68522 0.0
H3067 H 0.31563 0.33488 0.72071 0.0
H3068 H 0.27043 0.28646 0.68257 0.0
C3069 C 0.27466 0.3444 0.60324 0.0
C3070 C 0.28374 0.36637 0.59554 0.0
C3071 C 0.29785 0.37945 0.61152 0.0
C3072 C 0.30299 0.37107 0.63437 0.0
C3073 C 0.29375 0.34952 0.64144 0.0
C3074 C 0.27972 0.33639 0.62645 0.0
C3075 C 0.27125 0.31421 0.63902 0.0
C3076 C 0.24331 0.31385 0.64154 0.0
C3077 C 0.28118 0.2923 0.62584 0.0
C3078 C 0.2828 0.31693 0.66328 0.0
C3079 C 0.2958 0.3374 0.66417 0.0
C3080 C 0.3079 0.34394 0.68466 0.0
C3081 C 0.3065 0.32942 0.70481 0.0
C3082 C 0.29302 0.30845 0.70466 0.0
C3083 C 0.28113 0.30218 0.68338 0.0
H3084 H 0.3884 0.54001 0.17467 0.0
H3085 H 0.41195 0.60862 0.19662 0.0
H3086 H 0.44244 0.60873 0.1635 0.0
H3087 H 0.44366 0.51711 0.16562 0.0
H3088 H 0.43789 0.49939 0.13978 0.0
H3089 H 0.41337 0.50684 0.16041 0.0
H3090 H 0.38868 0.52487 0.12658 0.0
H3091 H 0.41282 0.51749 0.10529 0.0
H3092 H 0.40194 0.54728 0.10816 0.0
H3093 H 0.47541 0.59806 0.1343 0.0
H3094 H 0.50585 0.57923 0.10704 0.0
H3095 H 0.46166 0.51686 0.105 0.0
C3096 C 0.39903 0.55557 0.17159 0.0
C3097 C 0.39771 0.57447 0.18778 0.0
C3098 C 0.41258 0.59417 0.18404 0.0
C3099 C 0.42998 0.59433 0.16537 0.0
C3100 C 0.43211 0.57467 0.1507 0.0
C3101 C 0.41672 0.55582 0.15324 0.0
C3102 C 0.42488 0.53567 0.13722 0.0
C3103 C 0.43027 0.51346 0.15163 0.0
C3104 C 0.40596 0.53105 0.11817 0.0
C3105 C 0.44793 0.54566 0.12634 0.0
C3106 C 0.45159 0.56828 0.13406 0.0
C3107 C 0.4725 0.58053 0.1277 0.0
C3108 C 0.48983 0.56957 0.11248 0.0
C3109 C 0.48617 0.54654 0.10401 0.0
C3110 C 0.46501 0.53446 0.11122 0.0
H3111 H 0.31905 0.69846 0.93827 0.0
H3112 H 0.29867 0.75478 0.98729 0.0
H3113 H 0.29968 0.78271 0.95379 0.0
H3114 H 0.35826 0.73319 0.89658 0.0
H3115 H 0.3475 0.71745 0.87113 0.0
H3116 H 0.34958 0.70305 0.89947 0.0
H3117 H 0.30399 0.69214 0.8978 0.0
H3118 H 0.30176 0.70654 0.86961 0.0
H3119 H 0.28147 0.71495 0.89407 0.0
H3120 H 0.29759 0.80331 0.91394 0.0
H3121 H 0.29135 0.81405 0.87185 0.0
H3122 H 0.31243 0.74367 0.84977 0.0
C3123 C 0.31548 0.71678 0.94213 0.0
C3124 C 0.30894 0.72448 0.96539 0.0
C3125 C 0.30392 0.74853 0.9696 0.0
C3126 C 0.30451 0.76452 0.9507 0.0
C3127 C 0.31032 0.75617 0.9278 0.0
C3128 C 0.31585 0.73283 0.92354 0.0
C3129 C 0.31882 0.7276 0.89719 0.0
C3130 C 0.34511 0.71987 0.89072 0.0
C3131 C 0.30041 0.70924 0.88922 0.0
C3132 C 0.31311 0.75141 0.88717 0.0
C3133 C 0.30873 0.76784 0.905 0.0
C3134 C 0.30139 0.79067 0.89985 0.0
C3135 C 0.29792 0.79663 0.87591 0.0
C3136 C 0.30144 0.77969 0.8576 0.0
C3137 C 0.30972 0.75704 0.86338 0.0
H3138 H 0.12842 0.49793 0.68473 0.0
H3139 H 0.07693 0.52273 0.73959 0.0
H3140 H 0.05018 0.53821 0.70853 0.0
H3141 H 0.12353 0.54524 0.64638 0.0
H3142 H 0.12541 0.52818 0.61926 0.0
H3143 H 0.13965 0.51756 0.64562 0.0
H3144 H 0.11523 0.47915 0.64336 0.0
H3145 H 0.10132 0.4895 0.61668 0.0
H3146 H 0.08252 0.48062 0.64178 0.0
H3147 H 0.03146 0.55453 0.67157 0.0
H3148 H 0.01908 0.56534 0.6309 0.0
H3149 H 0.08214 0.52828 0.6009 0.0
C3150 C 0.1113 0.50626 0.69017 0.0
C3151 C 0.1047 0.5093 0.71442 0.0
C3152 C 0.0822 0.5202 0.721 0.0
C3153 C 0.06699 0.52914 0.70354 0.0
C3154 C 0.07447 0.52658 0.67974 0.0
C3155 C 0.09583 0.51493 0.67304 0.0
C3156 C 0.09987 0.51463 0.64633 0.0
C3157 C 0.12351 0.52715 0.63898 0.0
C3158 C 0.09971 0.48948 0.63646 0.0
C3159 C 0.07769 0.52834 0.63906 0.0
C3160 C 0.06333 0.53527 0.65853 0.0
C3161 C 0.04238 0.54897 0.65616 0.0
C3162 C 0.03564 0.55522 0.63315 0.0
C3163 C 0.04973 0.54751 0.61306 0.0
C3164 C 0.07106 0.53414 0.61611 0.0
H3165 H 0.26793 0.3896 0.41701 0.0
H3166 H 0.26381 0.33182 0.46652 0.0
H3167 H 0.26182 0.30415 0.43246 0.0
H3168 H 0.22752 0.36774 0.37396 0.0
H3169 H 0.24495 0.37792 0.34849 0.0
H3170 H 0.24638 0.39312 0.3766 0.0
H3171 H 0.29329 0.38799 0.37582 0.0
H3172 H 0.29204 0.37297 0.34758 0.0
H3173 H 0.30655 0.35913 0.37229 0.0
H3174 H 0.25763 0.28297 0.39259 0.0
H3175 H 0.25659 0.2695 0.35082 0.0
H3176 H 0.26597 0.34084 0.32678 0.0
C3177 C 0.26676 0.3711 0.42074 0.0
C3178 C 0.26593 0.36295 0.44462 0.0
C3179 C 0.2646 0.33856 0.44853 0.0
C3180 C 0.26331 0.32271 0.42924 0.0
C3181 C 0.26377 0.33141 0.40599 0.0
C3182 C 0.26592 0.35503 0.40168 0.0
C3183 C 0.26665 0.35986 0.37502 0.0
C3184 C 0.24509 0.37559 0.36812 0.0
C3185 C 0.29108 0.37062 0.36722 0.0
C3186 C 0.26421 0.3353 0.36492 0.0
C3187 C 0.26234 0.31918 0.38312 0.0
C3188 C 0.25928 0.29548 0.37827 0.0
C3189 C 0.25855 0.288 0.35437 0.0
C3190 C 0.26113 0.30402 0.33527 0.0
C3191 C 0.26391 0.32807 0.34082 0.0
H3192 H 0.34932 0.43997 0.53189 0.0
H3193 H 0.3222 0.47427 0.4689 0.0
H3194 H 0.35978 0.49652 0.46503 0.0
H3195 H 0.37951 0.49075 0.55552 0.0
H3196 H 0.4055 0.47472 0.56604 0.0
H3197 H 0.37649 0.46061 0.56418 0.0
H3198 H 0.39622 0.42805 0.5375 0.0
H3199 H 0.42531 0.44202 0.5394 0.0
H3200 H 0.41291 0.43593 0.51068 0.0
H3201 H 0.39997 0.51552 0.46716 0.0
H3202 H 0.44111 0.52969 0.47536 0.0
H3203 H 0.44371 0.48462 0.5372 0.0
C3204 C 0.35137 0.45206 0.51724 0.0
C3205 C 0.33244 0.45523 0.50078 0.0
C3206 C 0.33606 0.47141 0.48193 0.0
C3207 C 0.35749 0.48424 0.47948 0.0
C3208 C 0.37554 0.48098 0.496 0.0
C3209 C 0.37289 0.4653 0.51452 0.0
C3210 C 0.39544 0.46553 0.52975 0.0
C3211 C 0.38883 0.47337 0.5554 0.0
C3212 C 0.40822 0.44145 0.5293 0.0
C3213 C 0.41091 0.48375 0.51686 0.0
C3214 C 0.39898 0.49233 0.4974 0.0
C3215 C 0.4095 0.50898 0.48241 0.0
C3216 C 0.43292 0.51697 0.48723 0.0
C3217 C 0.44573 0.5085 0.507 0.0
C3218 C 0.43437 0.49171 0.52208 0.0
H3219 H 0.8367 0.0756 0.54041 0.0
H3220 H 0.85115 0.14875 0.52703 0.0
H3221 H 0.89464 0.13915 0.51959 0.0
H3222 H 0.89906 0.05915 0.5649 0.0
H3223 H 0.89827 0.03131 0.54977 0.0
H3224 H 0.8704 0.04481 0.5611 0.0
H3225 H 0.85268 0.04154 0.51896 0.0
H3226 H 0.88069 0.029 0.5072 0.0
H3227 H 0.86836 0.05515 0.49414 0.0
H3228 H 0.93429 0.12085 0.50624 0.0
H3229 H 0.9681 0.09532 0.49105 0.0
H3230 H 0.92609 0.03412 0.50981 0.0
C3231 C 0.84923 0.08977 0.53723 0.0
C3232 C 0.8407 0.11291 0.53447 0.0
C3233 C 0.85746 0.13091 0.52942 0.0
C3234 C 0.88216 0.12562 0.52512 0.0
C3235 C 0.88965 0.10229 0.52603 0.0
C3236 C 0.87377 0.08468 0.53241 0.0
C3237 C 0.88535 0.06076 0.5286 0.0
C3238 C 0.88846 0.04828 0.55252 0.0
C3239 C 0.8709 0.04576 0.51119 0.0
C3240 C 0.90963 0.06764 0.51777 0.0
C3241 C 0.91206 0.09163 0.517 0.0
C3242 C 0.93272 0.10204 0.50704 0.0
C3243 C 0.95164 0.08746 0.4982 0.0
C3244 C 0.94937 0.06286 0.49889 0.0
C3245 C 0.92804 0.05291 0.50862 0.0
H3246 H 0.685 0.06707 0.26853 0.0
H3247 H 0.63174 0.09745 0.31856 0.0
H3248 H 0.65709 0.1325 0.32238 0.0
H3249 H 0.74072 0.09331 0.29448 0.0
H3250 H 0.7543 0.09847 0.26542 0.0
H3251 H 0.73447 0.07396 0.27 0.0
H3252 H 0.70752 0.0886 0.23589 0.0
H3253 H 0.72707 0.11324 0.23135 0.0
H3254 H 0.69494 0.11787 0.2373 0.0
H3255 H 0.68495 0.16554 0.31733 0.0
H3256 H 0.71322 0.1955 0.30307 0.0
H3257 H 0.74836 0.1449 0.25492 0.0
C3258 C 0.6792 0.0808 0.28089 0.0
C3259 C 0.65673 0.07956 0.29359 0.0
C3260 C 0.64907 0.09813 0.3089 0.0
C3261 C 0.66337 0.118 0.31123 0.0
C3262 C 0.68512 0.11906 0.29795 0.0
C3263 C 0.69306 0.10101 0.28305 0.0
C3264 C 0.71558 0.10784 0.26861 0.0
C3265 C 0.73757 0.09248 0.27502 0.0
C3266 C 0.71098 0.10683 0.2417 0.0
C3267 C 0.71854 0.13277 0.27719 0.0
C3268 C 0.70104 0.13866 0.29446 0.0
C3269 C 0.69907 0.16103 0.3042 0.0
C3270 C 0.71535 0.17793 0.29601 0.0
C3271 C 0.7333 0.17247 0.27809 0.0
C3272 C 0.73494 0.14951 0.26871 0.0
H3273 H 0.69453 0.9629 0.0386 0.0
H3274 H 0.67668 0.89797 0.00317 0.0
H3275 H 0.6362 0.91405 0.99411 0.0
H3276 H 0.63411 0.97204 0.06591 0.0
H3277 H 0.63434 0.00338 0.06284 0.0
H3278 H 0.66256 0.98738 0.06583 0.0
H3279 H 0.67921 0.00544 0.02656 0.0
H3280 H 0.651 0.02142 0.02343 0.0
H3281 H 0.6622 0.00237 -0.00024 0.0
H3282 H 0.59807 0.93701 0.98777 0.0
H3283 H 0.56295 0.96416 0.9877 0.0
H3284 H 0.60291 0.01402 0.02956 0.0
C3285 C 0.68209 0.95216 0.02885 0.0
C3286 C 0.68895 0.92914 0.02146 0.0
C3287 C 0.67197 0.91557 0.00906 0.0
C3288 C 0.64889 0.9246 0.00373 0.0
C3289 C 0.64266 0.94721 0.01123 0.0
C3290 C 0.65855 0.96077 0.02382 0.0
C3291 C 0.64653 0.98415 0.03069 0.0
C3292 C 0.64425 0.98689 0.05794 0.0
C3293 C 0.66058 0.00455 0.01944 0.0
C3294 C 0.6216 0.98161 0.01979 0.0
C3295 C 0.61998 0.96021 0.00845 0.0
C3296 C 0.59908 0.95378 -0.00331 0.0
C3297 C 0.57919 0.96943 -0.00331 0.0
C3298 C 0.57997 0.99133 0.0086 0.0
C3299 C 0.60162 -0.00255 0.02028 0.0
H3300 H 0.39071 0.46614 0.22336 0.0
H3301 H 0.38361 0.48067 0.29905 0.0
H3302 H 0.36844 0.44078 0.30597 0.0
H3303 H 0.33648 0.44002 0.21946 0.0
H3304 H 0.34517 0.41804 0.19756 0.0
H3305 H 0.36165 0.4449 0.19885 0.0
H3306 H 0.40209 0.42189 0.20388 0.0
H3307 H 0.38578 0.39482 0.20223 0.0
H3308 H 0.4044 0.40076 0.22741 0.0
H3309 H 0.34778 0.40291 0.30406 0.0
H3310 H 0.32217 0.36965 0.29348 0.0
H3311 H 0.34086 0.3799 0.21869 0.0
C3312 C 0.387 0.4604 0.24144 0.0
C3313 C 0.38872 0.476 0.26079 0.0
C3314 C 0.38267 0.46861 0.28415 0.0
C3315 C 0.37416 0.44603 0.28822 0.0
C3316 C 0.37164 0.43124 0.26867 0.0
C3317 C 0.37794 0.43805 0.24571 0.0
C3318 C 0.3698 0.42035 0.22754 0.0
C3319 C 0.35223 0.4315 0.20983 0.0
C3320 C 0.39184 0.40876 0.2145 0.0
C3321 C 0.35687 0.40323 0.24378 0.0
C3322 C 0.35872 0.40951 0.26745 0.0
C3323 C 0.34666 0.39746 0.28563 0.0
C3324 C 0.33214 0.37859 0.27945 0.0
C3325 C 0.32956 0.37217 0.25526 0.0
C3326 C 0.34243 0.38447 0.2373 0.0
H3327 H 0.20693 0.65486 0.03372 0.0
H3328 H 0.23936 0.61595 0.97406 0.0
H3329 H 0.2043 0.58931 0.97485 0.0
H3330 H 0.18733 0.60606 0.06532 0.0
H3331 H 0.15934 0.61904 0.07699 0.0
H3332 H 0.18495 0.63725 0.06979 0.0
H3333 H 0.15854 0.662 0.04161 0.0
H3334 H 0.1327 0.64413 0.04907 0.0
H3335 H 0.14228 0.64766 0.01835 0.0
H3336 H 0.16765 0.56564 0.9836 0.0
H3337 H 0.13089 0.54627 -0.00041 0.0
H3338 H 0.12322 0.59904 0.05518 0.0
C3339 C 0.2062 0.64122 0.02039 0.0
C3340 C 0.22549 0.63762 0.00354 0.0
C3341 C 0.22449 0.61905 0.98688 0.0
C3342 C 0.20474 0.60385 0.98721 0.0
C3343 C 0.18636 0.60739 0.00452 0.0
C3344 C 0.18683 0.62561 0.02077 0.0
C3345 C 0.16576 0.62433 0.03872 0.0
C3346 C 0.1749 0.6215 0.06421 0.0
C3347 C 0.14881 0.6458 0.03681 0.0
C3348 C 0.15358 0.60235 0.0302 0.0
C3349 C 0.16565 0.59305 0.01028 0.0
C3350 C 0.15797 0.5728 -0.0009 0.0
C3351 C 0.13714 0.56194 0.0083 0.0
C3352 C 0.12438 0.57121 0.02859 0.0
C3353 C 0.13287 0.59152 0.03983 0.0
H3354 H 0.69408 0.94551 0.2846 0.0
H3355 H 0.62066 0.91841 0.2834 0.0
H3356 H 0.63677 0.87858 0.28969 0.0
H3357 H 0.7229 0.89827 0.25302 0.0
H3358 H 0.75007 0.89856 0.27026 0.0
H3359 H 0.73258 0.92507 0.26667 0.0
H3360 H 0.72878 0.92985 0.31261 0.0
H3361 H 0.74608 0.9032 0.31631 0.0
H3362 H 0.71626 0.90647 0.33028 0.0
H3363 H 0.66075 0.84168 0.29387 0.0
H3364 H 0.69145 0.80981 0.29469 0.0
H3365 H 0.74908 0.86101 0.29441 0.0
C3366 C 0.6814 0.93121 0.28571 0.0
C3367 C 0.65615 0.93502 0.2835 0.0
C3368 C 0.64011 0.91587 0.28505 0.0
C3369 C 0.64904 0.8932 0.28872 0.0
C3370 C 0.67402 0.89005 0.29096 0.0
C3371 C 0.68999 0.90848 0.2895 0.0
C3372 C 0.71608 0.90019 0.2917 0.0
C3373 C 0.73129 0.90585 0.26907 0.0
C3374 C 0.72747 0.91055 0.31406 0.0
C3375 C 0.71227 0.87418 0.29419 0.0
C3376 C 0.68787 0.86872 0.29386 0.0
C3377 C 0.67991 0.84572 0.29446 0.0
C3378 C 0.69745 0.82776 0.29493 0.0
C3379 C 0.72257 0.833 0.29484 0.0
C3380 C 0.72998 0.85651 0.29497 0.0
H3381 H 0.86777 0.12927 0.75457 0.0
H3382 H 0.81882 0.08741 0.71323 0.0
H3383 H 0.7896 0.12068 0.71234 0.0
H3384 H 0.82093 0.15741 0.79096 0.0
H3385 H 0.83636 0.18498 0.79213 0.0
H3386 H 0.85372 0.15817 0.78877 0.0
H3387 H 0.8748 0.1741 0.75038 0.0
H3388 H 0.85756 0.20098 0.75369 0.0
H3389 H 0.85639 0.18433 0.7264 0.0
H3390 H 0.76681 0.15934 0.71434 0.0
H3391 H 0.75072 0.19951 0.72184 0.0
H3392 H 0.81316 0.21442 0.76469 0.0
C3393 C 0.85095 0.12717 0.74524 0.0
C3394 C 0.84556 0.10592 0.7338 0.0
C3395 C 0.82323 0.10362 0.72208 0.0
C3396 C 0.80659 0.1224 0.72144 0.0
C3397 C 0.81244 0.14314 0.73295 0.0
C3398 C 0.83397 0.14554 0.74484 0.0
C3399 C 0.83557 0.16938 0.75644 0.0
C3400 C 0.8367 0.16735 0.78369 0.0
C3401 C 0.85737 0.18299 0.7461 0.0
C3402 C 0.81166 0.18007 0.74908 0.0
C3403 C 0.79868 0.16481 0.7353 0.0
C3404 C 0.77663 0.17134 0.72539 0.0
C3405 C 0.76766 0.19411 0.7297 0.0
C3406 C 0.78053 0.20975 0.74416 0.0
C3407 C 0.80269 0.20255 0.75404 0.0
loop_
_geom_bond_atom_site_label_1
_geom_bond_atom_site_label_2
_geom_bond_distance
_geom_bond_site_symmetry_2
_ccdc_geom_bond_type
C0 O1 1.306 . S
C0 O3 1.160 . S
O1 C0 1.306 . S
O1 Cd2 2.228 1_655 S
Cd2 O1 2.228 1_455 S
Cd2 O6 2.273 . S
Cd2 O10 2.277 . S
O3 C0 1.160 . S
O3 Cd4 2.203 1_655 S
Cd4 O3 2.203 1_455 S
Cd4 O6 2.411 . S
Cd4 O7 2.333 . S
Cd4 O8 2.352 . S
Cd4 O12 2.277 . S
Cd4 O13 2.356 . S
C5 O10 1.209 . S
C5 O12 1.226 . S
O6 Cd2 2.273 . S
O6 Cd4 2.411 . S
O6 C9 1.320 . S
O7 Cd4 2.333 . S
O7 C9 1.214 . S
O8 Cd4 2.352 . S
O8 C11 1.258 . S
C9 O6 1.320 . S
C9 O7 1.214 . S
O10 Cd2 2.277 . S
O10 C5 1.209 . S
C11 O8 1.258 . S
C11 O13 1.282 . S
O12 Cd4 2.277 . S
O12 C5 1.226 . S
O13 Cd4 2.356 . S
O13 C11 1.282 . S
C14 O15 1.306 . S
C14 O17 1.160 . S
O15 C14 1.306 . S
O15 Cd16 2.228 . S
Cd16 O15 2.228 . S
Cd16 O20 2.273 . S
Cd16 O24 2.277 . S
O17 C14 1.160 . S
O17 Cd18 2.203 . S
Cd18 O17 2.203 . S
Cd18 O20 2.411 . S
Cd18 O21 2.333 . S
Cd18 O22 2.352 . S
Cd18 O26 2.277 . S
Cd18 O27 2.356 . S
C19 O24 1.209 . S
C19 O26 1.226 . S
O20 Cd16 2.273 . S
O20 Cd18 2.411 . S
O20 C23 1.320 . S
O21 Cd18 2.333 . S
O21 C23 1.214 . S
O22 Cd18 2.352 . S
O22 C25 1.258 . S
C23 O20 1.320 . S
C23 O21 1.214 . S
O24 Cd16 2.277 . S
O24 C19 1.209 . S
C25 O22 1.258 . S
C25 O27 1.282 . S
O26 Cd18 2.277 . S
O26 C19 1.226 . S
O27 Cd18 2.356 . S
O27 C25 1.282 . S
C28 O29 1.306 . S
C28 O31 1.160 . S
O29 C28 1.306 . S
O29 Cd30 2.228 . S
Cd30 O29 2.228 . S
Cd30 O34 2.273 . S
Cd30 O38 2.277 . S
O31 C28 1.160 . S
O31 Cd32 2.203 . S
Cd32 O31 2.203 . S
Cd32 O34 2.411 . S
Cd32 O35 2.333 . S
Cd32 O36 2.352 . S
Cd32 O40 2.277 . S
Cd32 O41 2.356 . S
C33 O38 1.209 . S
C33 O40 1.226 . S
O34 Cd30 2.273 . S
O34 Cd32 2.411 . S
O34 C37 1.320 . S
O35 Cd32 2.333 . S
O35 C37 1.214 . S
O36 Cd32 2.352 . S
O36 C39 1.258 . S
C37 O34 1.320 . S
C37 O35 1.214 . S
O38 Cd30 2.277 . S
O38 C33 1.209 . S
C39 O36 1.258 . S
C39 O41 1.282 . S
O40 Cd32 2.277 . S
O40 C33 1.226 . S
O41 Cd32 2.356 . S
O41 C39 1.282 . S
C42 O43 1.306 . S
C42 O45 1.160 . S
O43 C42 1.306 . S
O43 Cd44 2.228 . S
Cd44 O43 2.228 . S
Cd44 O48 2.273 . S
Cd44 O52 2.277 . S
O45 C42 1.160 . S
O45 Cd46 2.203 . S
Cd46 O45 2.203 . S
Cd46 O48 2.411 . S
Cd46 O49 2.333 . S
Cd46 O50 2.352 . S
Cd46 O54 2.277 . S
Cd46 O55 2.356 . S
C47 O52 1.209 . S
C47 O54 1.226 . S
O48 Cd44 2.273 . S
O48 Cd46 2.411 . S
O48 C51 1.320 . S
O49 Cd46 2.333 . S
O49 C51 1.214 . S
O50 Cd46 2.352 . S
O50 C53 1.258 . S
C51 O48 1.320 . S
C51 O49 1.214 . S
O52 Cd44 2.277 . S
O52 C47 1.209 . S
C53 O50 1.258 . S
C53 O55 1.282 . S
O54 Cd46 2.277 . S
O54 C47 1.226 . S
O55 Cd46 2.356 . S
O55 C53 1.282 . S
C56 O57 1.306 . S
C56 O59 1.160 . S
O57 C56 1.306 . S
O57 Cd58 2.228 . S
Cd58 O57 2.228 . S
Cd58 O62 2.273 . S
Cd58 O66 2.277 . S
O59 C56 1.160 . S
O59 Cd60 2.203 . S
Cd60 O59 2.203 . S
Cd60 O62 2.411 . S
Cd60 O63 2.333 . S
Cd60 O64 2.352 1_545 S
Cd60 O68 2.277 . S
Cd60 O69 2.356 1_545 S
C61 O66 1.209 . S
C61 O68 1.226 . S
O62 Cd58 2.273 . S
O62 Cd60 2.411 . S
O62 C65 1.320 . S
O63 Cd60 2.333 . S
O63 C65 1.214 . S
O64 Cd60 2.352 1_565 S
O64 C67 1.258 . S
C65 O62 1.320 . S
C65 O63 1.214 . S
O66 Cd58 2.277 . S
O66 C61 1.209 . S
C67 O64 1.258 . S
C67 O69 1.282 . S
O68 Cd60 2.277 . S
O68 C61 1.226 . S
O69 Cd60 2.356 1_565 S
O69 C67 1.282 . S
C70 O71 1.306 . S
C70 O73 1.160 . S
O71 C70 1.306 . S
O71 Cd72 2.228 . S
Cd72 O71 2.228 . S
Cd72 O76 2.273 . S
Cd72 O80 2.277 . S
O73 C70 1.160 . S
O73 Cd74 2.203 . S
Cd74 O73 2.203 . S
Cd74 O76 2.411 . S
Cd74 O77 2.333 . S
Cd74 O78 2.352 . S
Cd74 O82 2.277 . S
Cd74 O83 2.356 . S
C75 O80 1.209 . S
C75 O82 1.226 . S
O76 Cd72 2.273 . S
O76 Cd74 2.411 . S
O76 C79 1.320 . S
O77 Cd74 2.333 . S
O77 C79 1.214 . S
O78 Cd74 2.352 . S
O78 C81 1.258 . S
C79 O76 1.320 . S
C79 O77 1.214 . S
O80 Cd72 2.277 . S
O80 C75 1.209 . S
C81 O78 1.258 . S
C81 O83 1.282 . S
O82 Cd74 2.277 . S
O82 C75 1.226 . S
O83 Cd74 2.356 . S
O83 C81 1.282 . S
C84 O85 1.306 . S
C84 O87 1.160 . S
O85 C84 1.306 . S
O85 Cd86 2.228 . S
Cd86 O85 2.228 . S
Cd86 O90 2.273 . S
Cd86 O94 2.277 . S
O87 C84 1.160 . S
O87 Cd88 2.203 . S
Cd88 O87 2.203 . S
Cd88 O90 2.411 . S
Cd88 O91 2.333 . S
Cd88 O92 2.352 . S
Cd88 O96 2.277 . S
Cd88 O97 2.356 . S
C89 O94 1.209 . S
C89 O96 1.226 . S
O90 Cd86 2.273 . S
O90 Cd88 2.411 . S
O90 C93 1.320 . S
O91 Cd88 2.333 . S
O91 C93 1.214 . S
O92 Cd88 2.352 . S
O92 C95 1.258 . S
C93 O90 1.320 . S
C93 O91 1.214 . S
O94 Cd86 2.277 . S
O94 C89 1.209 . S
C95 O92 1.258 . S
C95 O97 1.282 . S
O96 Cd88 2.277 . S
O96 C89 1.226 . S
O97 Cd88 2.356 . S
O97 C95 1.282 . S
C98 O99 1.306 . S
C98 O101 1.160 . S
O99 C98 1.306 . S
O99 Cd100 2.228 . S
Cd100 O99 2.228 . S
Cd100 O104 2.273 . S
Cd100 O108 2.277 . S
O101 C98 1.160 . S
O101 Cd102 2.203 . S
Cd102 O101 2.203 . S
Cd102 O104 2.411 . S
Cd102 O105 2.333 . S
Cd102 O106 2.352 1_554 S
Cd102 O110 2.277 . S
Cd102 O111 2.356 1_554 S
C103 O108 1.209 . S
C103 O110 1.226 . S
O104 Cd100 2.273 . S
O104 Cd102 2.411 . S
O104 C107 1.320 . S
O105 Cd102 2.333 . S
O105 C107 1.214 . S
O106 Cd102 2.352 1_556 S
O106 C109 1.258 . S
C107 O104 1.320 . S
C107 O105 1.214 . S
O108 Cd100 2.277 . S
O108 C103 1.209 . S
C109 O106 1.258 . S
C109 O111 1.282 . S
O110 Cd102 2.277 . S
O110 C103 1.226 . S
O111 Cd102 2.356 1_556 S
O111 C109 1.282 . S
C112 O113 1.306 . S
C112 O115 1.160 . S
O113 C112 1.306 . S
O113 Cd114 2.228 . S
Cd114 O113 2.228 . S
Cd114 O118 2.273 . S
Cd114 O122 2.277 . S
O115 C112 1.160 . S
O115 Cd116 2.203 . S
Cd116 O115 2.203 . S
Cd116 O118 2.411 . S
Cd116 O119 2.333 . S
Cd116 O120 2.352 . S
Cd116 O124 2.277 . S
Cd116 O125 2.356 . S
C117 O122 1.209 . S
C117 O124 1.226 . S
O118 Cd114 2.273 . S
O118 Cd116 2.411 . S
O118 C121 1.320 . S
O119 Cd116 2.333 . S
O119 C121 1.214 . S
O120 Cd116 2.352 . S
O120 C123 1.258 . S
C121 O118 1.320 . S
C121 O119 1.214 . S
O122 Cd114 2.277 . S
O122 C117 1.209 . S
C123 O120 1.258 . S
C123 O125 1.282 . S
O124 Cd116 2.277 . S
O124 C117 1.226 . S
O125 Cd116 2.356 . S
O125 C123 1.282 . S
C126 O127 1.306 . S
C126 O129 1.160 . S
O127 C126 1.306 . S
O127 Cd128 2.228 . S
Cd128 O127 2.228 . S
Cd128 O132 2.273 . S
Cd128 O136 2.277 . S
O129 C126 1.160 . S
O129 Cd130 2.203 . S
Cd130 O129 2.203 . S
Cd130 O132 2.411 . S
Cd130 O133 2.333 . S
Cd130 O134 2.352 . S
Cd130 O138 2.277 . S
Cd130 O139 2.356 . S
C131 O136 1.209 . S
C131 O138 1.226 . S
O132 Cd128 2.273 . S
O132 Cd130 2.411 . S
O132 C135 1.320 . S
O133 Cd130 2.333 . S
O133 C135 1.214 . S
O134 Cd130 2.352 . S
O134 C137 1.258 . S
C135 O132 1.320 . S
C135 O133 1.214 . S
O136 Cd128 2.277 . S
O136 C131 1.209 . S
C137 O134 1.258 . S
C137 O139 1.282 . S
O138 Cd130 2.277 . S
O138 C131 1.226 . S
O139 Cd130 2.356 . S
O139 C137 1.282 . S
C140 O141 1.306 . S
C140 O143 1.160 . S
O141 C140 1.306 . S
O141 Cd142 2.228 . S
Cd142 O141 2.228 . S
Cd142 O146 2.273 . S
Cd142 O150 2.277 . S
O143 C140 1.160 . S
O143 Cd144 2.203 . S
Cd144 O143 2.203 . S
Cd144 O146 2.411 . S
Cd144 O147 2.333 . S
Cd144 O148 2.352 . S
Cd144 O152 2.277 . S
Cd144 O153 2.356 . S
C145 O150 1.209 . S
C145 O152 1.226 . S
O146 Cd142 2.273 . S
O146 Cd144 2.411 . S
O146 C149 1.320 . S
O147 Cd144 2.333 . S
O147 C149 1.214 . S
O148 Cd144 2.352 . S
O148 C151 1.258 . S
C149 O146 1.320 . S
C149 O147 1.214 . S
O150 Cd142 2.277 . S
O150 C145 1.209 . S
C151 O148 1.258 . S
C151 O153 1.282 . S
O152 Cd144 2.277 . S
O152 C145 1.226 . S
O153 Cd144 2.356 . S
O153 C151 1.282 . S
C154 O155 1.306 . S
C154 O157 1.160 . S
O155 C154 1.306 . S
O155 Cd156 2.228 . S
Cd156 O155 2.228 . S
Cd156 O160 2.273 . S
Cd156 O164 2.277 . S
O157 C154 1.160 . S
O157 Cd158 2.203 . S
Cd158 O157 2.203 . S
Cd158 O160 2.411 . S
Cd158 O161 2.333 . S
Cd158 O162 2.352 . S
Cd158 O166 2.277 . S
Cd158 O167 2.356 . S
C159 O164 1.209 . S
C159 O166 1.226 . S
O160 Cd156 2.273 . S
O160 Cd158 2.411 . S
O160 C163 1.320 . S
O161 Cd158 2.333 . S
O161 C163 1.214 . S
O162 Cd158 2.352 . S
O162 C165 1.258 . S
C163 O160 1.320 . S
C163 O161 1.214 . S
O164 Cd156 2.277 . S
O164 C159 1.209 . S
C165 O162 1.258 . S
C165 O167 1.282 . S
O166 Cd158 2.277 . S
O166 C159 1.226 . S
O167 Cd158 2.356 . S
O167 C165 1.282 . S
C168 O169 1.306 . S
C168 O171 1.160 . S
O169 C168 1.306 . S
O169 Cd170 2.228 1_655 S
Cd170 O169 2.228 1_455 S
Cd170 O174 2.273 . S
Cd170 O178 2.277 . S
O171 C168 1.160 . S
O171 Cd172 2.203 1_655 S
Cd172 O171 2.203 1_455 S
Cd172 O174 2.411 . S
Cd172 O175 2.333 . S
Cd172 O176 2.352 . S
Cd172 O180 2.277 . S
Cd172 O181 2.356 . S
C173 O178 1.209 . S
C173 O180 1.226 . S
O174 Cd170 2.273 . S
O174 Cd172 2.411 . S
O174 C177 1.320 . S
O175 Cd172 2.333 . S
O175 C177 1.214 . S
O176 Cd172 2.352 . S
O176 C179 1.258 . S
C177 O174 1.320 . S
C177 O175 1.214 . S
O178 Cd170 2.277 . S
O178 C173 1.209 . S
C179 O176 1.258 . S
C179 O181 1.282 . S
O180 Cd172 2.277 . S
O180 C173 1.226 . S
O181 Cd172 2.356 . S
O181 C179 1.282 . S
C182 O183 1.306 . S
C182 O185 1.160 . S
O183 C182 1.306 . S
O183 Cd184 2.228 1_655 S
Cd184 O183 2.228 1_455 S
Cd184 O188 2.273 . S
Cd184 O192 2.277 . S
O185 C182 1.160 . S
O185 Cd186 2.203 1_655 S
Cd186 O185 2.203 1_455 S
Cd186 O188 2.411 . S
Cd186 O189 2.333 . S
Cd186 O190 2.351 1_455 S
Cd186 O194 2.277 1_455 S
Cd186 O195 2.356 . S
C187 O192 1.215 . S
C187 O194 1.225 1_455 S
O188 Cd184 2.273 . S
O188 Cd186 2.411 . S
O188 C191 1.320 . S
O189 Cd186 2.333 . S
O189 C191 1.214 . S
O190 Cd186 2.351 1_655 S
O190 C193 1.255 1_655 S
C191 O188 1.320 . S
C191 O189 1.214 . S
O192 Cd184 2.277 . S
O192 C187 1.215 . S
C193 O190 1.255 1_455 S
C193 O195 1.282 . S
O194 Cd186 2.277 1_655 S
O194 C187 1.225 1_655 S
O195 Cd186 2.356 . S
O195 C193 1.282 . S
C196 O197 1.306 . S
C196 O199 1.160 . S
O197 C196 1.306 . S
O197 Cd198 2.228 . S
Cd198 O197 2.228 . S
Cd198 O202 2.273 . S
Cd198 O206 2.277 . S
O199 C196 1.160 . S
O199 Cd200 2.203 . S
Cd200 O199 2.203 . S
Cd200 O202 2.411 . S
Cd200 O203 2.333 . S
Cd200 O204 2.352 . S
Cd200 O208 2.277 . S
Cd200 O209 2.356 . S
C201 O206 1.209 . S
C201 O208 1.226 . S
O202 Cd198 2.273 . S
O202 Cd200 2.411 . S
O202 C205 1.320 . S
O203 Cd200 2.333 . S
O203 C205 1.214 . S
O204 Cd200 2.352 . S
O204 C207 1.258 . S
C205 O202 1.320 . S
C205 O203 1.214 . S
O206 Cd198 2.277 . S
O206 C201 1.209 . S
C207 O204 1.258 . S
C207 O209 1.282 . S
O208 Cd200 2.277 . S
O208 C201 1.226 . S
O209 Cd200 2.356 . S
O209 C207 1.282 . S
C210 O211 1.306 . S
C210 O213 1.160 . S
O211 C210 1.306 . S
O211 Cd212 2.228 . S
Cd212 O211 2.228 . S
Cd212 O216 2.273 . S
Cd212 O220 2.277 . S
O213 C210 1.160 . S
O213 Cd214 2.203 . S
Cd214 O213 2.203 . S
Cd214 O216 2.411 . S
Cd214 O217 2.333 . S
Cd214 O218 2.352 . S
Cd214 O222 2.277 . S
Cd214 O223 2.356 . S
C215 O220 1.209 . S
C215 O222 1.226 . S
O216 Cd212 2.273 . S
O216 Cd214 2.411 . S
O216 C219 1.320 . S
O217 Cd214 2.333 . S
O217 C219 1.214 . S
O218 Cd214 2.352 . S
O218 C221 1.258 . S
C219 O216 1.320 . S
C219 O217 1.214 . S
O220 Cd212 2.277 . S
O220 C215 1.209 . S
C221 O218 1.258 . S
C221 O223 1.282 . S
O222 Cd214 2.277 . S
O222 C215 1.226 . S
O223 Cd214 2.356 . S
O223 C221 1.282 . S
C224 O225 1.306 . S
C224 O227 1.160 . S
O225 C224 1.306 . S
O225 Cd226 2.228 . S
Cd226 O225 2.228 . S
Cd226 O230 2.273 . S
Cd226 O234 2.277 . S
O227 C224 1.160 . S
O227 Cd228 2.203 . S
Cd228 O227 2.203 . S
Cd228 O230 2.411 . S
Cd228 O231 2.333 . S
Cd228 O232 2.352 . S
Cd228 O236 2.277 . S
Cd228 O237 2.356 . S
C229 O234 1.209 . S
C229 O236 1.226 . S
O230 Cd226 2.273 . S
O230 Cd228 2.411 . S
O230 C233 1.320 . S
O231 Cd228 2.333 . S
O231 C233 1.214 . S
O232 Cd228 2.352 . S
O232 C235 1.258 . S
C233 O230 1.320 . S
C233 O231 1.214 . S
O234 Cd226 2.277 . S
O234 C229 1.209 . S
C235 O232 1.258 . S
C235 O237 1.282 . S
O236 Cd228 2.277 . S
O236 C229 1.226 . S
O237 Cd228 2.356 . S
O237 C235 1.282 . S
C238 O239 1.306 . S
C238 O241 1.160 . S
O239 C238 1.306 . S
O239 Cd240 2.228 . S
Cd240 O239 2.228 . S
Cd240 O244 2.273 . S
Cd240 O248 2.277 . S
O241 C238 1.160 . S
O241 Cd242 2.203 . S
Cd242 O241 2.203 . S
Cd242 O244 2.411 . S
Cd242 O245 2.333 . S
Cd242 O246 2.352 . S
Cd242 O250 2.277 . S
Cd242 O251 2.356 . S
C243 O248 1.209 . S
C243 O250 1.226 . S
O244 Cd240 2.273 . S
O244 Cd242 2.411 . S
O244 C247 1.320 . S
O245 Cd242 2.333 . S
O245 C247 1.214 . S
O246 Cd242 2.352 . S
O246 C249 1.258 . S
C247 O244 1.320 . S
C247 O245 1.214 . S
O248 Cd240 2.277 . S
O248 C243 1.209 . S
C249 O246 1.258 . S
C249 O251 1.282 . S
O250 Cd242 2.277 . S
O250 C243 1.226 . S
O251 Cd242 2.356 . S
O251 C249 1.282 . S
C252 O253 1.306 . S
C252 O255 1.160 . S
O253 C252 1.306 . S
O253 Cd254 2.228 . S
Cd254 O253 2.228 . S
Cd254 O258 2.273 . S
Cd254 O262 2.277 . S
O255 C252 1.160 . S
O255 Cd256 2.203 . S
Cd256 O255 2.203 . S
Cd256 O258 2.411 . S
Cd256 O259 2.333 . S
Cd256 O260 2.352 1_545 S
Cd256 O264 2.277 . S
Cd256 O265 2.356 1_545 S
C257 O262 1.209 . S
C257 O264 1.226 . S
O258 Cd254 2.273 . S
O258 Cd256 2.411 . S
O258 C261 1.320 . S
O259 Cd256 2.333 . S
O259 C261 1.214 . S
O260 Cd256 2.352 1_565 S
O260 C263 1.258 . S
C261 O258 1.320 . S
C261 O259 1.214 . S
O262 Cd254 2.277 . S
O262 C257 1.209 . S
C263 O260 1.258 . S
C263 O265 1.282 . S
O264 Cd256 2.277 . S
O264 C257 1.226 . S
O265 Cd256 2.356 1_565 S
O265 C263 1.282 . S
C266 O267 1.306 . S
C266 O269 1.160 . S
O267 C266 1.306 . S
O267 Cd268 2.228 1_554 S
Cd268 O267 2.228 1_556 S
Cd268 O272 2.273 1_556 S
Cd268 O276 2.277 . S
O269 C266 1.160 . S
O269 Cd270 2.203 . S
Cd270 O269 2.203 . S
Cd270 O272 2.411 . S
Cd270 O273 2.333 . S
Cd270 O274 2.352 . S
Cd270 O278 2.277 1_554 S
Cd270 O279 2.356 . S
C271 O276 1.209 . S
C271 O278 1.226 . S
O272 Cd268 2.273 1_554 S
O272 Cd270 2.411 . S
O272 C275 1.320 . S
O273 Cd270 2.333 . S
O273 C275 1.214 . S
O274 Cd270 2.352 . S
O274 C277 1.258 . S
C275 O272 1.320 . S
C275 O273 1.214 . S
O276 Cd268 2.277 . S
O276 C271 1.209 . S
C277 O274 1.258 . S
C277 O279 1.282 . S
O278 Cd270 2.277 1_556 S
O278 C271 1.226 . S
O279 Cd270 2.356 . S
O279 C277 1.282 . S
C280 O281 1.306 . S
C280 O283 1.160 1_554 S
O281 C280 1.306 . S
O281 Cd282 2.228 . S
Cd282 O281 2.228 . S
Cd282 O286 2.273 . S
Cd282 O290 2.277 . S
O283 C280 1.160 1_556 S
O283 Cd284 2.203 . S
Cd284 O283 2.203 . S
Cd284 O286 2.411 1_556 S
Cd284 O287 2.333 . S
Cd284 O288 2.352 . S
Cd284 O292 2.277 1_556 S
Cd284 O293 2.356 . S
C285 O290 1.209 . S
C285 O292 1.226 . S
O286 Cd282 2.273 . S
O286 Cd284 2.411 1_554 S
O286 C289 1.323 . S
O287 Cd284 2.333 . S
O287 C289 1.210 1_556 S
O288 Cd284 2.352 . S
O288 C291 1.258 . S
C289 O286 1.323 . S
C289 O287 1.210 1_554 S
O290 Cd282 2.277 . S
O290 C285 1.209 . S
C291 O288 1.258 . S
C291 O293 1.282 . S
O292 Cd284 2.277 1_554 S
O292 C285 1.226 . S
O293 Cd284 2.356 . S
O293 C291 1.282 . S
C294 O295 1.306 . S
C294 O297 1.160 . S
O295 C294 1.306 . S
O295 Cd296 2.228 . S
Cd296 O295 2.228 . S
Cd296 O300 2.273 . S
Cd296 O304 2.277 . S
O297 C294 1.160 . S
O297 Cd298 2.203 . S
Cd298 O297 2.203 . S
Cd298 O300 2.411 . S
Cd298 O301 2.333 . S
Cd298 O302 2.352 . S
Cd298 O306 2.277 . S
Cd298 O307 2.356 . S
C299 O304 1.209 . S
C299 O306 1.226 . S
O300 Cd296 2.273 . S
O300 Cd298 2.411 . S
O300 C303 1.320 . S
O301 Cd298 2.333 . S
O301 C303 1.214 . S
O302 Cd298 2.352 . S
O302 C305 1.258 . S
C303 O300 1.320 . S
C303 O301 1.214 . S
O304 Cd296 2.277 . S
O304 C299 1.209 . S
C305 O302 1.258 . S
C305 O307 1.282 . S
O306 Cd298 2.277 . S
O306 C299 1.226 . S
O307 Cd298 2.356 . S
O307 C305 1.282 . S
C308 O309 1.306 . S
C308 O311 1.160 . S
O309 C308 1.306 . S
O309 Cd310 2.228 . S
Cd310 O309 2.228 . S
Cd310 O314 2.273 . S
Cd310 O318 2.277 . S
O311 C308 1.160 . S
O311 Cd312 2.203 . S
Cd312 O311 2.203 . S
Cd312 O314 2.411 . S
Cd312 O315 2.333 . S
Cd312 O316 2.352 . S
Cd312 O320 2.277 . S
Cd312 O321 2.356 . S
C313 O318 1.209 . S
C313 O320 1.226 . S
O314 Cd310 2.273 . S
O314 Cd312 2.411 . S
O314 C317 1.320 . S
O315 Cd312 2.333 . S
O315 C317 1.214 . S
O316 Cd312 2.352 . S
O316 C319 1.258 . S
C317 O314 1.320 . S
C317 O315 1.214 . S
O318 Cd310 2.277 . S
O318 C313 1.209 . S
C319 O316 1.258 . S
C319 O321 1.282 . S
O320 Cd312 2.277 . S
O320 C313 1.226 . S
O321 Cd312 2.356 . S
O321 C319 1.282 . S
C322 O323 1.306 . S
C322 O325 1.160 . S
O323 C322 1.306 . S
O323 Cd324 2.228 . S
Cd324 O323 2.228 . S
Cd324 O328 2.273 . S
Cd324 O332 2.277 . S
O325 C322 1.160 . S
O325 Cd326 2.203 . S
Cd326 O325 2.203 . S
Cd326 O328 2.411 . S
Cd326 O329 2.333 . S
Cd326 O330 2.352 . S
Cd326 O334 2.277 . S
Cd326 O335 2.356 . S
C327 O332 1.209 . S
C327 O334 1.226 . S
O328 Cd324 2.273 . S
O328 Cd326 2.411 . S
O328 C331 1.320 . S
O329 Cd326 2.333 . S
O329 C331 1.214 . S
O330 Cd326 2.352 . S
O330 C333 1.258 . S
C331 O328 1.320 . S
C331 O329 1.214 . S
O332 Cd324 2.277 . S
O332 C327 1.209 . S
C333 O330 1.258 . S
C333 O335 1.282 . S
O334 Cd326 2.277 . S
O334 C327 1.226 . S
O335 Cd326 2.356 . S
O335 C333 1.282 . S
Co336 N341 2.057 1_554 S
Co336 O353 2.021 1_554 S
Co336 O356 2.062 1_455 S
Co336 O360 2.117 . S
Co336 O361 2.020 . S
C337 O357 1.259 . S
C337 O360 1.258 . S
Co338 N347 2.057 . S
Co338 O354 2.117 1_545 S
Co338 O355 2.020 1_455 S
Co338 O357 2.021 . S
Co338 O362 2.062 . S
C339 N341 1.316 . S
C339 N342 1.347 1_455 S
C339 H344 0.931 . S
C340 N341 1.365 1_655 S
C340 C343 1.366 . S
C340 H345 0.923 1_655 S
N341 Co336 2.057 1_556 S
N341 C339 1.316 . S
N341 C340 1.365 1_455 S
N342 C339 1.347 1_655 S
N342 C343 1.373 . S
C343 C340 1.366 . S
C343 N342 1.373 . S
C343 H364 0.931 . S
H344 C339 0.931 . S
H345 C340 0.923 1_455 S
C346 O353 1.259 1_564 S
C346 O354 1.258 . S
N347 Co338 2.057 . S
N347 C348 1.316 . S
N347 C349 1.375 1_545 S
C348 N347 1.316 . S
C348 N350 1.347 . S
C348 H359 0.931 . S
C349 N347 1.375 1_565 S
C349 C351 1.350 . S
C349 H358 0.930 . S
N350 C348 1.347 . S
N350 C351 1.373 1_545 S
C351 C349 1.350 . S
C351 N350 1.373 1_565 S
C351 H365 0.931 . S
C352 O355 1.256 . S
C352 O356 1.255 . S
O353 Co336 2.021 1_556 S
O353 C346 1.259 1_546 S
O354 Co338 2.117 1_565 S
O354 C346 1.258 . S
O355 Co338 2.020 1_655 S
O355 C352 1.256 . S
O356 Co336 2.062 1_655 S
O356 C352 1.255 . S
O357 C337 1.259 . S
O357 Co338 2.021 . S
H358 C349 0.930 . S
H359 C348 0.931 . S
O360 Co336 2.117 . S
O360 C337 1.258 . S
O361 Co336 2.020 . S
O361 C363 1.256 . S
O362 Co338 2.062 . S
O362 C363 1.255 . S
C363 O361 1.256 . S
C363 O362 1.255 . S
H364 C343 0.931 . S
H365 C351 0.931 . S
Co366 N371 2.057 . S
Co366 O383 2.021 . S
Co366 O386 2.062 . S
Co366 O390 2.117 . S
Co366 O391 2.020 . S
C367 O387 1.259 . S
C367 O390 1.258 . S
Co368 N377 2.057 . S
Co368 O384 2.117 . S
Co368 O385 2.020 . S
Co368 O387 2.021 . S
Co368 O392 2.062 . S
C369 N371 1.316 . S
C369 N372 1.347 . S
C369 H374 0.931 . S
C370 N371 1.375 . S
C370 C373 1.350 . S
C370 H375 0.930 . S
N371 Co366 2.057 . S
N371 C369 1.316 . S
N371 C370 1.375 . S
N372 C369 1.347 . S
N372 C373 1.373 . S
C373 C370 1.350 . S
C373 N372 1.373 . S
C373 H394 0.931 . S
H374 C369 0.931 . S
H375 C370 0.930 . S
C376 O383 1.259 . S
C376 O384 1.258 . S
N377 Co368 2.057 . S
N377 C378 1.316 . S
N377 C379 1.375 . S
C378 N377 1.316 . S
C378 N380 1.347 . S
C378 H389 0.931 . S
C379 N377 1.375 . S
C379 C381 1.350 . S
C379 H388 0.930 . S
N380 C378 1.347 . S
N380 C381 1.373 . S
C381 C379 1.350 . S
C381 N380 1.373 . S
C381 H395 0.931 . S
C382 O385 1.256 . S
C382 O386 1.255 . S
O383 Co366 2.021 . S
O383 C376 1.259 . S
O384 Co368 2.117 . S
O384 C376 1.258 . S
O385 Co368 2.020 . S
O385 C382 1.256 . S
O386 Co366 2.062 . S
O386 C382 1.255 . S
O387 C367 1.259 . S
O387 Co368 2.021 . S
H388 C379 0.930 . S
H389 C378 0.931 . S
O390 Co366 2.117 . S
O390 C367 1.258 . S
O391 Co366 2.020 . S
O391 C393 1.256 . S
O392 Co368 2.062 . S
O392 C393 1.255 . S
C393 O391 1.256 . S
C393 O392 1.255 . S
H394 C373 0.931 . S
H395 C381 0.931 . S
Co396 N401 2.057 . S
Co396 O413 2.021 1_545 S
Co396 O416 2.062 . S
Co396 O420 2.117 . S
Co396 O421 2.020 . S
C397 O417 1.259 . S
C397 O420 1.258 . S
Co398 N407 2.057 . S
Co398 O414 2.117 . S
Co398 O415 2.020 . S
Co398 O417 2.021 . S
Co398 O422 2.062 . S
C399 N401 1.316 1_565 S
C399 N402 1.347 1_565 S
C399 H404 0.931 . S
C400 N401 1.375 . S
C400 C403 1.350 . S
C400 H405 0.930 . S
N401 Co396 2.057 . S
N401 C399 1.316 1_545 S
N401 C400 1.375 . S
N402 C399 1.347 1_545 S
N402 C403 1.373 . S
C403 C400 1.350 . S
C403 N402 1.373 . S
C403 H424 0.931 . S
H404 C399 0.931 . S
H405 C400 0.930 . S
C406 O413 1.259 . S
C406 O414 1.258 1_565 S
N407 Co398 2.057 . S
N407 C408 1.316 . S
N407 C409 1.375 . S
C408 N407 1.316 . S
C408 N410 1.347 . S
C408 H419 0.931 . S
C409 N407 1.375 . S
C409 C411 1.350 . S
C409 H418 0.930 . S
N410 C408 1.347 . S
N410 C411 1.373 . S
C411 C409 1.350 . S
C411 N410 1.373 . S
C411 H425 0.931 . S
C412 O415 1.256 . S
C412 O416 1.255 . S
O413 Co396 2.021 1_565 S
O413 C406 1.259 . S
O414 Co398 2.117 . S
O414 C406 1.258 1_545 S
O415 Co398 2.020 . S
O415 C412 1.256 . S
O416 Co396 2.062 . S
O416 C412 1.255 . S
O417 C397 1.259 . S
O417 Co398 2.021 . S
H418 C409 0.930 . S
H419 C408 0.931 . S
O420 Co396 2.117 . S
O420 C397 1.258 . S
O421 Co396 2.020 . S
O421 C423 1.256 . S
O422 Co398 2.062 . S
O422 C423 1.255 . S
C423 O421 1.256 . S
C423 O422 1.255 . S
H424 C403 0.931 . S
H425 C411 0.931 . S
Co426 N431 2.057 . S
Co426 O443 2.021 . S
Co426 O446 2.062 . S
Co426 O450 2.117 . S
Co426 O451 2.020 . S
C427 O447 1.259 . S
C427 O450 1.258 . S
Co428 N437 2.057 . S
Co428 O444 2.117 . S
Co428 O445 2.020 . S
Co428 O447 2.021 . S
Co428 O452 2.062 . S
C429 N431 1.316 . S
C429 N432 1.347 . S
C429 H434 0.931 . S
C430 N431 1.375 . S
C430 C433 1.350 . S
C430 H435 0.930 . S
N431 Co426 2.057 . S
N431 C429 1.316 . S
N431 C430 1.375 . S
N432 C429 1.347 . S
N432 C433 1.373 . S
C433 C430 1.350 . S
C433 N432 1.373 . S
C433 H454 0.931 . S
H434 C429 0.931 . S
H435 C430 0.930 . S
C436 O443 1.259 . S
C436 O444 1.258 . S
N437 Co428 2.057 . S
N437 C438 1.316 . S
N437 C439 1.375 . S
C438 N437 1.316 . S
C438 N440 1.347 . S
C438 H449 0.931 . S
C439 N437 1.375 . S
C439 C441 1.350 . S
C439 H448 0.930 . S
N440 C438 1.347 . S
N440 C441 1.373 . S
C441 C439 1.350 . S
C441 N440 1.373 . S
C441 H455 0.931 . S
C442 O445 1.256 . S
C442 O446 1.255 . S
O443 Co426 2.021 . S
O443 C436 1.259 . S
O444 Co428 2.117 . S
O444 C436 1.258 . S
O445 Co428 2.020 . S
O445 C442 1.256 . S
O446 Co426 2.062 . S
O446 C442 1.255 . S
O447 C427 1.259 . S
O447 Co428 2.021 . S
H448 C439 0.930 . S
H449 C438 0.931 . S
O450 Co426 2.117 . S
O450 C427 1.258 . S
O451 Co426 2.020 . S
O451 C453 1.256 . S
O452 Co428 2.062 . S
O452 C453 1.255 . S
C453 O451 1.256 . S
C453 O452 1.255 . S
H454 C433 0.931 . S
H455 C441 0.931 . S
Co456 N461 2.057 1_545 S
Co456 O473 2.021 . S
Co456 O476 2.051 1_545 S
Co456 O480 2.117 . S
Co456 O481 2.020 1_455 S
C457 O477 1.259 . S
C457 O480 1.258 . S
Co458 N467 2.057 . S
Co458 O474 2.117 . S
Co458 O475 2.020 . S
Co458 O477 2.021 . S
Co458 O482 2.062 1_455 S
C459 N461 1.316 . S
C459 N462 1.347 . S
C459 H464 0.931 . S
C460 N461 1.375 1_655 S
C460 C463 1.350 . S
C460 H465 0.930 . S
N461 Co456 2.057 1_565 S
N461 C459 1.316 . S
N461 C460 1.375 1_455 S
N462 C459 1.347 . S
N462 C463 1.373 1_455 S
C463 C460 1.350 . S
C463 N462 1.373 1_655 S
C463 H484 0.931 . S
H464 C459 0.931 . S
H465 C460 0.930 . S
C466 O473 1.259 . S
C466 O474 1.258 . S
N467 Co458 2.057 . S
N467 C468 1.316 . S
N467 C469 1.375 . S
C468 N467 1.316 . S
C468 N470 1.347 . S
C468 H479 0.931 . S
C469 N467 1.375 . S
C469 C471 1.350 . S
C469 H478 0.930 . S
N470 C468 1.347 . S
N470 C471 1.373 . S
C471 C469 1.350 . S
C471 N470 1.373 . S
C471 H485 0.931 . S
C472 O475 1.256 . S
C472 O476 1.225 1_545 S
O473 Co456 2.021 . S
O473 C466 1.259 . S
O474 Co458 2.117 . S
O474 C466 1.258 . S
O475 Co458 2.020 . S
O475 C472 1.256 . S
O476 Co456 2.051 1_565 S
O476 C472 1.225 1_565 S
O477 C457 1.259 . S
O477 Co458 2.021 . S
H478 C469 0.930 . S
H479 C468 0.931 . S
O480 Co456 2.117 . S
O480 C457 1.258 . S
O481 Co456 2.020 1_655 S
O481 C483 1.256 . S
O482 Co458 2.062 1_655 S
O482 C483 1.255 . S
C483 O481 1.256 . S
C483 O482 1.255 . S
H484 C463 0.931 . S
H485 C471 0.931 . S
Co486 N491 2.057 . S
Co486 O503 2.021 . S
Co486 O506 2.062 . S
Co486 O510 2.117 . S
Co486 O511 2.020 . S
C487 O507 1.259 . S
C487 O510 1.258 . S
Co488 N497 2.057 . S
Co488 O504 2.117 . S
Co488 O505 2.020 . S
Co488 O507 2.021 . S
Co488 O512 2.062 . S
C489 N491 1.316 . S
C489 N492 1.347 . S
C489 H494 0.931 . S
C490 N491 1.375 . S
C490 C493 1.350 . S
C490 H495 0.930 . S
N491 Co486 2.057 . S
N491 C489 1.316 . S
N491 C490 1.375 . S
N492 C489 1.347 . S
N492 C493 1.373 . S
C493 C490 1.350 . S
C493 N492 1.373 . S
C493 H514 0.931 . S
H494 C489 0.931 . S
H495 C490 0.930 . S
C496 O503 1.259 . S
C496 O504 1.258 . S
N497 Co488 2.057 . S
N497 C498 1.316 . S
N497 C499 1.375 . S
C498 N497 1.316 . S
C498 N500 1.347 . S
C498 H509 0.931 . S
C499 N497 1.375 . S
C499 C501 1.350 . S
C499 H508 0.930 . S
N500 C498 1.347 . S
N500 C501 1.373 . S
C501 C499 1.350 . S
C501 N500 1.373 . S
C501 H515 0.931 . S
C502 O505 1.256 . S
C502 O506 1.255 . S
O503 Co486 2.021 . S
O503 C496 1.259 . S
O504 Co488 2.117 . S
O504 C496 1.258 . S
O505 Co488 2.020 . S
O505 C502 1.256 . S
O506 Co486 2.062 . S
O506 C502 1.255 . S
O507 C487 1.259 . S
O507 Co488 2.021 . S
H508 C499 0.930 . S
H509 C498 0.931 . S
O510 Co486 2.117 . S
O510 C487 1.258 . S
O511 Co486 2.020 . S
O511 C513 1.256 . S
O512 Co488 2.062 . S
O512 C513 1.255 . S
C513 O511 1.256 . S
C513 O512 1.255 . S
H514 C493 0.931 . S
H515 C501 0.931 . S
Co516 N521 2.057 1_554 S
Co516 O533 2.021 . S
Co516 O536 2.062 1_554 S
Co516 O540 2.117 . S
Co516 O541 2.020 1_545 S
C517 O537 1.259 . S
C517 O540 1.258 . S
Co518 N527 2.057 . S
Co518 O534 2.117 . S
Co518 O535 2.020 . S
Co518 O537 2.021 . S
Co518 O542 2.062 . S
C519 N521 1.316 . S
C519 N522 1.347 . S
C519 H524 0.931 . S
C520 N521 1.375 . S
C520 C523 1.350 . S
C520 H525 0.930 1_545 S
N521 Co516 2.057 1_556 S
N521 C519 1.316 . S
N521 C520 1.375 . S
N522 C519 1.347 . S
N522 C523 1.373 . S
C523 C520 1.350 . S
C523 N522 1.373 . S
C523 H544 0.931 1_545 S
H524 C519 0.931 . S
H525 C520 0.930 1_565 S
C526 O533 1.259 . S
C526 O534 1.258 . S
N527 Co518 2.057 . S
N527 C528 1.316 . S
N527 C529 1.375 . S
C528 N527 1.316 . S
C528 N530 1.347 . S
C528 H539 0.931 . S
C529 N527 1.375 . S
C529 C531 1.350 . S
C529 H538 0.930 . S
N530 C528 1.347 . S
N530 C531 1.373 . S
C531 C529 1.350 . S
C531 N530 1.373 . S
C531 H545 0.931 . S
C532 O535 1.256 . S
C532 O536 1.255 1_554 S
O533 Co516 2.021 . S
O533 C526 1.259 . S
O534 Co518 2.117 . S
O534 C526 1.258 . S
O535 Co518 2.020 . S
O535 C532 1.256 . S
O536 Co516 2.062 1_556 S
O536 C532 1.255 1_556 S
O537 C517 1.259 . S
O537 Co518 2.021 . S
H538 C529 0.930 . S
H539 C528 0.931 . S
O540 Co516 2.117 . S
O540 C517 1.258 . S
O541 Co516 2.020 1_565 S
O541 C543 1.256 . S
O542 Co518 2.062 . S
O542 C543 1.255 1_545 S
C543 O541 1.256 . S
C543 O542 1.255 1_565 S
H544 C523 0.931 1_565 S
H545 C531 0.931 . S
Co546 N551 2.057 . S
Co546 O563 2.021 . S
Co546 O566 2.062 . S
Co546 O570 2.117 . S
Co546 O571 2.020 . S
C547 O567 1.259 . S
C547 O570 1.258 . S
Co548 N557 2.057 . S
Co548 O564 2.117 . S
Co548 O565 2.020 . S
Co548 O567 2.021 . S
Co548 O572 2.062 . S
C549 N551 1.316 . S
C549 N552 1.347 . S
C549 H554 0.931 . S
C550 N551 1.375 . S
C550 C553 1.350 . S
C550 H555 0.930 . S
N551 Co546 2.057 . S
N551 C549 1.316 . S
N551 C550 1.375 . S
N552 C549 1.347 . S
N552 C553 1.373 . S
C553 C550 1.350 . S
C553 N552 1.373 . S
C553 H574 0.931 . S
H554 C549 0.931 . S
H555 C550 0.930 . S
C556 O563 1.259 . S
C556 O564 1.258 . S
N557 Co548 2.057 . S
N557 C558 1.316 . S
N557 C559 1.375 . S
C558 N557 1.316 . S
C558 N560 1.347 . S
C558 H569 0.931 . S
C559 N557 1.375 . S
C559 C561 1.350 . S
C559 H568 0.930 . S
N560 C558 1.347 . S
N560 C561 1.373 . S
C561 C559 1.350 . S
C561 N560 1.373 . S
C561 H575 0.931 . S
C562 O565 1.256 . S
C562 O566 1.255 . S
O563 Co546 2.021 . S
O563 C556 1.259 . S
O564 Co548 2.117 . S
O564 C556 1.258 . S
O565 Co548 2.020 . S
O565 C562 1.256 . S
O566 Co546 2.062 . S
O566 C562 1.255 . S
O567 C547 1.259 . S
O567 Co548 2.021 . S
H568 C559 0.930 . S
H569 C558 0.931 . S
O570 Co546 2.117 . S
O570 C547 1.258 . S
O571 Co546 2.020 . S
O571 C573 1.256 . S
O572 Co548 2.062 . S
O572 C573 1.255 . S
C573 O571 1.256 . S
C573 O572 1.255 . S
H574 C553 0.931 . S
H575 C561 0.931 . S
Co576 N581 2.057 . S
Co576 O593 2.021 1_554 S
Co576 O596 2.062 . S
Co576 O600 2.117 . S
Co576 O601 2.020 . S
C577 O597 1.259 . S
C577 O600 1.258 . S
Co578 N587 2.057 . S
Co578 O594 2.117 . S
Co578 O595 2.020 . S
Co578 O597 2.021 . S
Co578 O602 2.062 . S
C579 N581 1.316 1_556 S
C579 N582 1.347 1_556 S
C579 H584 0.931 . S
C580 N581 1.375 . S
C580 C583 1.350 . S
C580 H585 0.930 . S
N581 Co576 2.057 . S
N581 C579 1.316 1_554 S
N581 C580 1.375 . S
N582 C579 1.347 1_554 S
N582 C583 1.373 . S
C583 C580 1.350 . S
C583 N582 1.373 . S
C583 H604 0.931 . S
H584 C579 0.931 . S
H585 C580 0.930 . S
C586 O593 1.259 . S
C586 O594 1.258 1_556 S
N587 Co578 2.057 . S
N587 C588 1.316 . S
N587 C589 1.375 . S
C588 N587 1.316 . S
C588 N590 1.347 . S
C588 H599 0.931 . S
C589 N587 1.375 . S
C589 C591 1.350 . S
C589 H598 0.930 . S
N590 C588 1.347 . S
N590 C591 1.373 . S
C591 C589 1.350 . S
C591 N590 1.373 . S
C591 H605 0.931 . S
C592 O595 1.256 . S
C592 O596 1.255 . S
O593 Co576 2.021 1_556 S
O593 C586 1.259 . S
O594 Co578 2.117 . S
O594 C586 1.258 1_554 S
O595 Co578 2.020 . S
O595 C592 1.256 . S
O596 Co576 2.062 . S
O596 C592 1.255 . S
O597 C577 1.259 . S
O597 Co578 2.021 . S
H598 C589 0.930 . S
H599 C588 0.931 . S
O600 Co576 2.117 . S
O600 C577 1.258 . S
O601 Co576 2.020 . S
O601 C603 1.256 . S
O602 Co578 2.062 . S
O602 C603 1.255 . S
C603 O601 1.256 . S
C603 O602 1.255 . S
H604 C583 0.931 . S
H605 C591 0.931 . S
Co606 N611 2.057 . S
Co606 O623 2.021 . S
Co606 O626 2.062 . S
Co606 O630 2.117 . S
Co606 O631 2.020 . S
C607 O627 1.259 . S
C607 O630 1.258 . S
Co608 N617 2.057 . S
Co608 O624 2.117 . S
Co608 O625 2.020 . S
Co608 O627 2.021 . S
Co608 O632 2.062 . S
C609 N611 1.316 . S
C609 N612 1.347 . S
C609 H614 0.931 . S
C610 N611 1.375 . S
C610 C613 1.350 . S
C610 H615 0.930 . S
N611 Co606 2.057 . S
N611 C609 1.316 . S
N611 C610 1.375 . S
N612 C609 1.347 . S
N612 C613 1.373 . S
C613 C610 1.350 . S
C613 N612 1.373 . S
C613 H634 0.931 . S
H614 C609 0.931 . S
H615 C610 0.930 . S
C616 O623 1.259 . S
C616 O624 1.258 . S
N617 Co608 2.057 . S
N617 C618 1.316 . S
N617 C619 1.375 . S
C618 N617 1.316 . S
C618 N620 1.347 . S
C618 H629 0.931 . S
C619 N617 1.375 . S
C619 C621 1.350 . S
C619 H628 0.930 . S
N620 C618 1.347 . S
N620 C621 1.373 . S
C621 C619 1.350 . S
C621 N620 1.373 . S
C621 H635 0.931 . S
C622 O625 1.256 . S
C622 O626 1.255 . S
O623 Co606 2.021 . S
O623 C616 1.259 . S
O624 Co608 2.117 . S
O624 C616 1.258 . S
O625 Co608 2.020 . S
O625 C622 1.256 . S
O626 Co606 2.062 . S
O626 C622 1.255 . S
O627 C607 1.259 . S
O627 Co608 2.021 . S
H628 C619 0.930 . S
H629 C618 0.931 . S
O630 Co606 2.117 . S
O630 C607 1.258 . S
O631 Co606 2.020 . S
O631 C633 1.256 . S
O632 Co608 2.062 . S
O632 C633 1.255 . S
C633 O631 1.256 . S
C633 O632 1.255 . S
H634 C613 0.931 . S
H635 C621 0.931 . S
Co636 N641 2.057 . S
Co636 O653 2.021 1_455 S
Co636 O656 2.062 . S
Co636 O660 2.117 . S
Co636 O661 2.020 . S
C637 O657 1.259 . S
C637 O660 1.258 . S
Co638 N647 2.057 . S
Co638 O654 2.118 . S
Co638 O655 2.020 . S
Co638 O657 2.021 . S
Co638 O662 2.062 . S
C639 N641 1.316 1_655 S
C639 N642 1.351 . S
C639 H644 0.931 . S
C640 N641 1.375 . S
C640 C643 1.350 . S
C640 H645 0.930 . S
N641 Co636 2.057 . S
N641 C639 1.316 1_455 S
N641 C640 1.375 . S
N642 C639 1.351 . S
N642 C643 1.349 1_655 S
C643 C640 1.350 . S
C643 N642 1.349 1_455 S
C643 H664 0.931 . S
H644 C639 0.931 . S
H645 C640 0.930 . S
C646 O653 1.259 . S
C646 O654 1.257 1_655 S
N647 Co638 2.057 . S
N647 C648 1.316 . S
N647 C649 1.375 . S
C648 N647 1.316 . S
C648 N650 1.347 . S
C648 H659 0.931 . S
C649 N647 1.375 . S
C649 C651 1.350 . S
C649 H658 0.930 . S
N650 C648 1.347 . S
N650 C651 1.373 . S
C651 C649 1.350 . S
C651 N650 1.373 . S
C651 H665 0.931 . S
C652 O655 1.256 . S
C652 O656 1.255 . S
O653 Co636 2.021 1_655 S
O653 C646 1.259 . S
O654 Co638 2.118 . S
O654 C646 1.257 1_455 S
O655 Co638 2.020 . S
O655 C652 1.256 . S
O656 Co636 2.062 . S
O656 C652 1.255 . S
O657 C637 1.259 . S
O657 Co638 2.021 . S
H658 C649 0.930 . S
H659 C648 0.931 . S
O660 Co636 2.117 . S
O660 C637 1.258 . S
O661 Co636 2.020 . S
O661 C663 1.256 . S
O662 Co638 2.062 . S
O662 C663 1.255 . S
C663 O661 1.256 . S
C663 O662 1.255 . S
H664 C643 0.931 . S
H665 C651 0.931 . S
Co666 N671 2.057 . S
Co666 O683 2.021 . S
Co666 O686 2.062 . S
Co666 O690 2.117 . S
Co666 O691 2.020 . S
C667 O687 1.259 . S
C667 O690 1.258 . S
Co668 N677 2.057 . S
Co668 O684 2.117 . S
Co668 O685 2.020 . S
Co668 O687 2.021 . S
Co668 O692 2.062 . S
C669 N671 1.316 . S
C669 N672 1.347 . S
C669 H674 0.931 . S
C670 N671 1.375 . S
C670 C673 1.350 . S
C670 H675 0.930 . S
N671 Co666 2.057 . S
N671 C669 1.316 . S
N671 C670 1.375 . S
N672 C669 1.347 . S
N672 C673 1.373 . S
C673 C670 1.350 . S
C673 N672 1.373 . S
C673 H694 0.931 . S
H674 C669 0.931 . S
H675 C670 0.930 . S
C676 O683 1.259 . S
C676 O684 1.258 . S
N677 Co668 2.057 . S
N677 C678 1.316 . S
N677 C679 1.375 . S
C678 N677 1.316 . S
C678 N680 1.347 . S
C678 H689 0.931 . S
C679 N677 1.375 . S
C679 C681 1.350 . S
C679 H688 0.930 . S
N680 C678 1.347 . S
N680 C681 1.373 . S
C681 C679 1.350 . S
C681 N680 1.373 . S
C681 H695 0.931 . S
C682 O685 1.256 . S
C682 O686 1.255 . S
O683 Co666 2.021 . S
O683 C676 1.259 . S
O684 Co668 2.117 . S
O684 C676 1.258 . S
O685 Co668 2.020 . S
O685 C682 1.256 . S
O686 Co666 2.062 . S
O686 C682 1.255 . S
O687 C667 1.259 . S
O687 Co668 2.021 . S
H688 C679 0.930 . S
H689 C678 0.931 . S
O690 Co666 2.117 . S
O690 C667 1.258 . S
O691 Co666 2.020 . S
O691 C693 1.256 . S
O692 Co668 2.062 . S
O692 C693 1.255 . S
C693 O691 1.256 . S
C693 O692 1.255 . S
H694 C673 0.931 . S
H695 C681 0.931 . S
Co696 N701 2.057 . S
Co696 O713 2.021 . S
Co696 O716 2.062 . S
Co696 O720 2.117 . S
Co696 O721 2.020 . S
C697 O717 1.259 . S
C697 O720 1.258 . S
Co698 N707 2.057 . S
Co698 O714 2.117 . S
Co698 O715 2.020 . S
Co698 O717 2.021 . S
Co698 O722 2.062 . S
C699 N701 1.316 . S
C699 N702 1.347 . S
C699 H704 0.931 . S
C700 N701 1.375 . S
C700 C703 1.350 . S
C700 H705 0.930 . S
N701 Co696 2.057 . S
N701 C699 1.316 . S
N701 C700 1.375 . S
N702 C699 1.347 . S
N702 C703 1.373 . S
C703 C700 1.350 . S
C703 N702 1.373 . S
C703 H724 0.931 . S
H704 C699 0.931 . S
H705 C700 0.930 . S
C706 O713 1.259 . S
C706 O714 1.258 . S
N707 Co698 2.057 . S
N707 C708 1.316 . S
N707 C709 1.375 . S
C708 N707 1.316 . S
C708 N710 1.347 . S
C708 H719 0.931 . S
C709 N707 1.375 . S
C709 C711 1.350 . S
C709 H718 0.930 . S
N710 C708 1.347 . S
N710 C711 1.373 . S
C711 C709 1.350 . S
C711 N710 1.373 . S
C711 H725 0.931 . S
C712 O715 1.256 . S
C712 O716 1.255 . S
O713 Co696 2.021 . S
O713 C706 1.259 . S
O714 Co698 2.117 . S
O714 C706 1.258 . S
O715 Co698 2.020 . S
O715 C712 1.256 . S
O716 Co696 2.062 . S
O716 C712 1.255 . S
O717 C697 1.259 . S
O717 Co698 2.021 . S
H718 C709 0.930 . S
H719 C708 0.931 . S
O720 Co696 2.117 . S
O720 C697 1.258 . S
O721 Co696 2.020 . S
O721 C723 1.256 . S
O722 Co698 2.062 . S
O722 C723 1.255 . S
C723 O721 1.256 . S
C723 O722 1.255 . S
H724 C703 0.931 . S
H725 C711 0.931 . S
Co726 N731 2.057 . S
Co726 O743 2.021 . S
Co726 O746 2.062 . S
Co726 O750 2.117 . S
Co726 O751 2.020 . S
C727 O747 1.259 . S
C727 O750 1.258 . S
Co728 N737 2.057 . S
Co728 O744 2.117 . S
Co728 O745 2.020 . S
Co728 O747 2.021 . S
Co728 O752 2.062 . S
C729 N731 1.316 . S
C729 N732 1.347 . S
C729 H734 0.931 . S
C730 N731 1.375 . S
C730 C733 1.350 . S
C730 H735 0.930 . S
N731 Co726 2.057 . S
N731 C729 1.316 . S
N731 C730 1.375 . S
N732 C729 1.347 . S
N732 C733 1.373 . S
C733 C730 1.350 . S
C733 N732 1.373 . S
C733 H754 0.931 . S
H734 C729 0.931 . S
H735 C730 0.930 . S
C736 O743 1.259 . S
C736 O744 1.258 . S
N737 Co728 2.057 . S
N737 C738 1.316 . S
N737 C739 1.375 . S
C738 N737 1.316 . S
C738 N740 1.347 . S
C738 H749 0.931 . S
C739 N737 1.375 . S
C739 C741 1.350 . S
C739 H748 0.930 . S
N740 C738 1.347 . S
N740 C741 1.373 . S
C741 C739 1.350 . S
C741 N740 1.373 . S
C741 H755 0.931 . S
C742 O745 1.256 . S
C742 O746 1.255 . S
O743 Co726 2.021 . S
O743 C736 1.259 . S
O744 Co728 2.117 . S
O744 C736 1.258 . S
O745 Co728 2.020 . S
O745 C742 1.256 . S
O746 Co726 2.062 . S
O746 C742 1.255 . S
O747 C727 1.259 . S
O747 Co728 2.021 . S
H748 C739 0.930 . S
H749 C738 0.931 . S
O750 Co726 2.117 . S
O750 C727 1.258 . S
O751 Co726 2.020 . S
O751 C753 1.256 . S
O752 Co728 2.062 . S
O752 C753 1.255 . S
C753 O751 1.256 . S
C753 O752 1.255 . S
H754 C733 0.931 . S
H755 C741 0.931 . S
Co756 N761 2.057 . S
Co756 O773 2.021 . S
Co756 O776 2.062 . S
Co756 O780 2.117 . S
Co756 O781 2.020 . S
C757 O777 1.259 . S
C757 O780 1.258 . S
Co758 N767 2.057 . S
Co758 O774 2.117 . S
Co758 O775 2.020 . S
Co758 O777 2.021 . S
Co758 O782 2.062 . S
C759 N761 1.316 . S
C759 N762 1.347 . S
C759 H764 0.931 . S
C760 N761 1.375 . S
C760 C763 1.350 . S
C760 H765 0.930 . S
N761 Co756 2.057 . S
N761 C759 1.316 . S
N761 C760 1.375 . S
N762 C759 1.347 . S
N762 C763 1.373 . S
C763 C760 1.350 . S
C763 N762 1.373 . S
C763 H784 0.931 . S
H764 C759 0.931 . S
H765 C760 0.930 . S
C766 O773 1.259 . S
C766 O774 1.258 . S
N767 Co758 2.057 . S
N767 C768 1.316 . S
N767 C769 1.375 . S
C768 N767 1.316 . S
C768 N770 1.347 . S
C768 H779 0.931 . S
C769 N767 1.375 . S
C769 C771 1.350 . S
C769 H778 0.930 . S
N770 C768 1.347 . S
N770 C771 1.373 . S
C771 C769 1.350 . S
C771 N770 1.373 . S
C771 H785 0.931 . S
C772 O775 1.256 . S
C772 O776 1.255 . S
O773 Co756 2.021 . S
O773 C766 1.259 . S
O774 Co758 2.117 . S
O774 C766 1.258 . S
O775 Co758 2.020 . S
O775 C772 1.256 . S
O776 Co756 2.062 . S
O776 C772 1.255 . S
O777 C757 1.259 . S
O777 Co758 2.021 . S
H778 C769 0.930 . S
H779 C768 0.931 . S
O780 Co756 2.117 . S
O780 C757 1.258 . S
O781 Co756 2.020 . S
O781 C783 1.256 . S
O782 Co758 2.062 . S
O782 C783 1.255 . S
C783 O781 1.256 . S
C783 O782 1.255 . S
H784 C763 0.931 . S
H785 C771 0.931 . S
Co786 N791 2.057 1_455 S
Co786 O803 2.021 . S
Co786 O806 2.062 1_455 S
Co786 O810 2.117 . S
Co786 O811 2.020 1_554 S
C787 O807 1.259 . S
C787 O810 1.258 . S
Co788 N797 2.057 . S
Co788 O804 2.117 . S
Co788 O805 2.020 . S
Co788 O807 2.021 . S
Co788 O812 2.062 1_554 S
C789 N791 1.316 . S
C789 N792 1.347 . S
C789 H794 0.931 . S
C790 N791 1.380 . S
C790 C793 1.350 . S
C790 H795 0.925 1_554 S
N791 Co786 2.057 1_655 S
N791 C789 1.316 . S
N791 C790 1.380 . S
N792 C789 1.347 . S
N792 C793 1.373 . S
C793 C790 1.350 . S
C793 N792 1.373 . S
C793 H814 0.930 1_554 S
H794 C789 0.931 . S
H795 C790 0.925 1_556 S
C796 O803 1.259 . S
C796 O804 1.258 . S
N797 Co788 2.057 . S
N797 C798 1.316 . S
N797 C799 1.375 . S
C798 N797 1.316 . S
C798 N800 1.347 . S
C798 H809 0.931 . S
C799 N797 1.375 . S
C799 C801 1.350 . S
C799 H808 0.930 . S
N800 C798 1.347 . S
N800 C801 1.373 . S
C801 C799 1.350 . S
C801 N800 1.373 . S
C801 H815 0.931 . S
C802 O805 1.256 . S
C802 O806 1.255 1_455 S
O803 Co786 2.021 . S
O803 C796 1.259 . S
O804 Co788 2.117 . S
O804 C796 1.258 . S
O805 Co788 2.020 . S
O805 C802 1.256 . S
O806 Co786 2.062 1_655 S
O806 C802 1.255 1_655 S
O807 C787 1.259 . S
O807 Co788 2.021 . S
H808 C799 0.930 . S
H809 C798 0.931 . S
O810 Co786 2.117 . S
O810 C787 1.258 . S
O811 Co786 2.020 1_556 S
O811 C813 1.256 . S
O812 Co788 2.062 1_556 S
O812 C813 1.255 . S
C813 O811 1.256 . S
C813 O812 1.255 . S
H814 C793 0.930 1_556 S
H815 C801 0.931 . S
H816 C828 0.930 . S
H817 C830 0.930 . S
H818 C831 0.930 . S
H819 C835 0.959 . S
H820 C835 0.959 . S
H821 C835 0.961 . S
H822 C836 0.960 . S
H823 C836 0.961 . S
H824 C836 0.959 . S
H825 C839 0.929 . S
H826 C840 0.931 . S
H827 C842 0.930 . S
C828 H816 0.930 . S
C828 C829 1.399 . S
C828 C833 1.399 . S
C829 C828 1.399 . S
C829 C830 1.376 . S
C830 H817 0.930 . S
C830 C829 1.376 . S
C830 C831 1.388 . S
C831 H818 0.930 . S
C831 C830 1.388 . S
C831 C832 1.390 . S
C832 C831 1.390 . S
C832 C833 1.394 . S
C832 C838 1.465 . S
C833 C828 1.399 . S
C833 C832 1.394 . S
C833 C834 1.516 . S
C834 C833 1.516 . S
C834 C835 1.502 1_455 S
C834 C836 1.561 . S
C834 C837 1.526 . S
C835 H819 0.959 . S
C835 H820 0.959 . S
C835 H821 0.961 . S
C835 C834 1.502 1_655 S
C836 H822 0.960 . S
C836 H823 0.961 . S
C836 H824 0.959 . S
C836 C834 1.561 . S
C837 C834 1.526 . S
C837 C838 1.396 . S
C837 C842 1.390 . S
C838 C832 1.465 . S
C838 C837 1.396 . S
C838 C839 1.399 . S
C839 H825 0.929 . S
C839 C838 1.399 . S
C839 C840 1.385 . S
C840 H826 0.931 . S
C840 C839 1.385 . S
C840 C841 1.389 . S
C841 C840 1.389 . S
C841 C842 1.387 . S
C842 H827 0.930 . S
C842 C837 1.390 . S
C842 C841 1.387 . S
H843 C855 0.930 . S
H844 C857 0.930 . S
H845 C858 0.930 . S
H846 C862 0.959 . S
H847 C862 0.959 . S
H848 C862 0.961 . S
H849 C863 0.960 . S
H850 C863 0.961 . S
H851 C863 0.959 . S
H852 C866 0.929 . S
H853 C867 0.931 . S
H854 C869 0.930 . S
C855 H843 0.930 . S
C855 C856 1.399 . S
C855 C860 1.399 . S
C856 C855 1.399 . S
C856 C857 1.376 . S
C857 H844 0.930 . S
C857 C856 1.376 . S
C857 C858 1.388 . S
C858 H845 0.930 . S
C858 C857 1.388 . S
C858 C859 1.390 . S
C859 C858 1.390 . S
C859 C860 1.394 . S
C859 C865 1.465 . S
C860 C855 1.399 . S
C860 C859 1.394 . S
C860 C861 1.516 . S
C861 C860 1.516 . S
C861 C862 1.502 . S
C861 C863 1.561 . S
C861 C864 1.526 . S
C862 H846 0.959 . S
C862 H847 0.959 . S
C862 H848 0.961 . S
C862 C861 1.502 . S
C863 H849 0.960 . S
C863 H850 0.961 . S
C863 H851 0.959 . S
C863 C861 1.561 . S
C864 C861 1.526 . S
C864 C865 1.396 . S
C864 C869 1.390 . S
C865 C859 1.465 . S
C865 C864 1.396 . S
C865 C866 1.399 . S
C866 H852 0.929 . S
C866 C865 1.399 . S
C866 C867 1.385 . S
C867 H853 0.931 . S
C867 C866 1.385 . S
C867 C868 1.389 . S
C868 C867 1.389 . S
C868 C869 1.387 . S
C869 H854 0.930 . S
C869 C864 1.390 . S
C869 C868 1.387 . S
H870 C882 0.930 . S
H871 C884 0.930 . S
H872 C885 0.930 . S
H873 C889 0.959 . S
H874 C889 0.959 . S
H875 C889 0.961 . S
H876 C890 0.960 . S
H877 C890 0.961 . S
H878 C890 0.959 . S
H879 C893 0.929 . S
H880 C894 0.931 . S
H881 C896 0.930 . S
C882 H870 0.930 . S
C882 C883 1.399 . S
C882 C887 1.399 . S
C883 C882 1.399 . S
C883 C884 1.376 . S
C884 H871 0.930 . S
C884 C883 1.376 . S
C884 C885 1.388 . S
C885 H872 0.930 . S
C885 C884 1.388 . S
C885 C886 1.390 . S
C886 C885 1.390 . S
C886 C887 1.394 . S
C886 C892 1.465 . S
C887 C882 1.399 . S
C887 C886 1.394 . S
C887 C888 1.516 . S
C888 C887 1.516 . S
C888 C889 1.502 . S
C888 C890 1.561 . S
C888 C891 1.526 . S
C889 H873 0.959 . S
C889 H874 0.959 . S
C889 H875 0.961 . S
C889 C888 1.502 . S
C890 H876 0.960 . S
C890 H877 0.961 . S
C890 H878 0.959 . S
C890 C888 1.561 . S
C891 C888 1.526 . S
C891 C892 1.396 . S
C891 C896 1.390 . S
C892 C886 1.465 . S
C892 C891 1.396 . S
C892 C893 1.399 . S
C893 H879 0.929 . S
C893 C892 1.399 . S
C893 C894 1.385 . S
C894 H880 0.931 . S
C894 C893 1.385 . S
C894 C895 1.389 . S
C895 C894 1.389 . S
C895 C896 1.387 . S
C896 H881 0.930 . S
C896 C891 1.390 . S
C896 C895 1.387 . S
H897 C909 0.930 . S
H898 C911 0.930 . S
H899 C912 0.930 . S
H900 C916 0.959 . S
H901 C916 0.959 . S
H902 C916 0.961 . S
H903 C917 0.960 . S
H904 C917 0.961 . S
H905 C917 0.959 . S
H906 C920 0.929 . S
H907 C921 0.931 . S
H908 C923 0.930 . S
C909 H897 0.930 . S
C909 C910 1.399 . S
C909 C914 1.399 . S
C910 C909 1.399 . S
C910 C911 1.376 . S
C911 H898 0.930 . S
C911 C910 1.376 . S
C911 C912 1.388 . S
C912 H899 0.930 . S
C912 C911 1.388 . S
C912 C913 1.390 . S
C913 C912 1.390 . S
C913 C914 1.394 . S
C913 C919 1.465 . S
C914 C909 1.399 . S
C914 C913 1.394 . S
C914 C915 1.516 . S
C915 C914 1.516 . S
C915 C916 1.502 . S
C915 C917 1.561 . S
C915 C918 1.526 . S
C916 H900 0.959 . S
C916 H901 0.959 . S
C916 H902 0.961 . S
C916 C915 1.502 . S
C917 H903 0.960 . S
C917 H904 0.961 . S
C917 H905 0.959 . S
C917 C915 1.561 . S
C918 C915 1.526 . S
C918 C919 1.396 . S
C918 C923 1.390 . S
C919 C913 1.465 . S
C919 C918 1.396 . S
C919 C920 1.399 . S
C920 H906 0.929 . S
C920 C919 1.399 . S
C920 C921 1.385 . S
C921 H907 0.931 . S
C921 C920 1.385 . S
C921 C922 1.389 . S
C922 C921 1.389 . S
C922 C923 1.387 . S
C923 H908 0.930 . S
C923 C918 1.390 . S
C923 C922 1.387 . S
H924 C936 0.930 . S
H925 C938 0.930 . S
H926 C939 0.930 . S
H927 C943 0.959 1_655 S
H928 C943 0.959 1_655 S
H929 C943 0.961 . S
H930 C944 0.960 . S
H931 C944 0.961 . S
H932 C944 0.959 . S
H933 C947 0.929 . S
H934 C948 0.931 . S
H935 C950 0.930 . S
C936 H924 0.930 . S
C936 C937 1.399 . S
C936 C941 1.399 . S
C937 C936 1.399 . S
C937 C938 1.376 . S
C938 H925 0.930 . S
C938 C937 1.376 . S
C938 C939 1.388 . S
C939 H926 0.930 . S
C939 C938 1.388 . S
C939 C940 1.390 . S
C940 C939 1.390 . S
C940 C941 1.394 . S
C940 C946 1.465 . S
C941 C936 1.399 . S
C941 C940 1.394 . S
C941 C942 1.516 . S
C942 C941 1.516 . S
C942 C943 1.502 . S
C942 C944 1.561 . S
C942 C945 1.526 . S
C943 H927 0.959 1_455 S
C943 H928 0.959 1_455 S
C943 H929 0.961 . S
C943 C942 1.502 . S
C944 H930 0.960 . S
C944 H931 0.961 . S
C944 H932 0.959 . S
C944 C942 1.561 . S
C945 C942 1.526 . S
C945 C946 1.396 . S
C945 C950 1.390 . S
C946 C940 1.465 . S
C946 C945 1.396 . S
C946 C947 1.399 . S
C947 H933 0.929 . S
C947 C946 1.399 . S
C947 C948 1.385 . S
C948 H934 0.931 . S
C948 C947 1.385 . S
C948 C949 1.389 . S
C949 C948 1.389 . S
C949 C950 1.387 . S
C950 H935 0.930 . S
C950 C945 1.390 . S
C950 C949 1.387 . S
H951 C963 0.930 . S
H952 C965 0.930 . S
H953 C966 0.930 . S
H954 C970 0.959 . S
H955 C970 0.959 . S
H956 C970 0.961 . S
H957 C971 0.960 . S
H958 C971 0.961 . S
H959 C971 0.959 . S
H960 C974 0.929 . S
H961 C975 0.931 . S
H962 C977 0.930 . S
C963 H951 0.930 . S
C963 C964 1.399 . S
C963 C968 1.399 . S
C964 C963 1.399 . S
C964 C965 1.376 . S
C965 H952 0.930 . S
C965 C964 1.376 . S
C965 C966 1.388 . S
C966 H953 0.930 . S
C966 C965 1.388 . S
C966 C967 1.390 . S
C967 C966 1.390 . S
C967 C968 1.394 . S
C967 C973 1.465 . S
C968 C963 1.399 . S
C968 C967 1.394 . S
C968 C969 1.516 . S
C969 C968 1.516 . S
C969 C970 1.502 . S
C969 C971 1.561 . S
C969 C972 1.526 . S
C970 H954 0.959 . S
C970 H955 0.959 . S
C970 H956 0.961 . S
C970 C969 1.502 . S
C971 H957 0.960 . S
C971 H958 0.961 . S
C971 H959 0.959 . S
C971 C969 1.561 . S
C972 C969 1.526 . S
C972 C973 1.396 . S
C972 C977 1.390 . S
C973 C967 1.465 . S
C973 C972 1.396 . S
C973 C974 1.399 . S
C974 H960 0.929 . S
C974 C973 1.399 . S
C974 C975 1.385 . S
C975 H961 0.931 . S
C975 C974 1.385 . S
C975 C976 1.389 . S
C976 C975 1.389 . S
C976 C977 1.387 . S
C977 H962 0.930 . S
C977 C972 1.390 . S
C977 C976 1.387 . S
H978 C990 0.930 . S
H979 C992 0.930 . S
H980 C993 0.930 . S
H981 C997 0.959 1_556 S
H982 C997 0.959 . S
H983 C997 0.961 . S
H984 C998 0.960 . S
H985 C998 0.961 . S
H986 C998 0.967 . S
H987 C1001 0.929 . S
H988 C1002 0.931 . S
H989 C1004 0.930 . S
C990 H978 0.930 . S
C990 C991 1.399 . S
C990 C995 1.399 . S
C991 C990 1.399 . S
C991 C992 1.376 . S
C992 H979 0.930 . S
C992 C991 1.376 . S
C992 C993 1.388 . S
C993 H980 0.930 . S
C993 C992 1.388 . S
C993 C994 1.390 . S
C994 C993 1.390 . S
C994 C995 1.394 . S
C994 C1000 1.465 . S
C995 C990 1.399 . S
C995 C994 1.394 . S
C995 C996 1.516 . S
C996 C995 1.516 . S
C996 C997 1.502 1_556 S
C996 C998 1.561 1_556 S
C996 C999 1.526 . S
C997 H981 0.959 1_554 S
C997 H982 0.959 . S
C997 H983 0.961 . S
C997 C996 1.502 1_554 S
C998 H984 0.960 . S
C998 H985 0.961 . S
C998 H986 0.967 . S
C998 C996 1.561 1_554 S
C999 C996 1.526 . S
C999 C1000 1.396 . S
C999 C1004 1.390 1_556 S
C1000 C994 1.465 . S
C1000 C999 1.396 . S
C1000 C1001 1.399 . S
C1001 H987 0.929 . S
C1001 C1000 1.399 . S
C1001 C1002 1.385 . S
C1002 H988 0.931 . S
C1002 C1001 1.385 . S
C1002 C1003 1.389 . S
C1003 C1002 1.389 . S
C1003 C1004 1.387 1_556 S
C1004 H989 0.930 . S
C1004 C999 1.390 1_554 S
C1004 C1003 1.387 1_554 S
H1005 C1017 0.930 . S
H1006 C1019 0.930 . S
H1007 C1020 0.930 . S
H1008 C1024 0.959 . S
H1009 C1024 0.959 . S
H1010 C1024 0.961 . S
H1011 C1025 0.960 . S
H1012 C1025 0.961 . S
H1013 C1025 0.959 . S
H1014 C1028 0.929 . S
H1015 C1029 0.931 . S
H1016 C1031 0.930 . S
C1017 H1005 0.930 . S
C1017 C1018 1.399 . S
C1017 C1022 1.399 . S
C1018 C1017 1.399 . S
C1018 C1019 1.376 . S
C1019 H1006 0.930 . S
C1019 C1018 1.376 . S
C1019 C1020 1.388 . S
C1020 H1007 0.930 . S
C1020 C1019 1.388 . S
C1020 C1021 1.390 . S
C1021 C1020 1.390 . S
C1021 C1022 1.394 . S
C1021 C1027 1.465 . S
C1022 C1017 1.399 . S
C1022 C1021 1.394 . S
C1022 C1023 1.516 . S
C1023 C1022 1.516 . S
C1023 C1024 1.502 . S
C1023 C1025 1.561 . S
C1023 C1026 1.526 . S
C1024 H1008 0.959 . S
C1024 H1009 0.959 . S
C1024 H1010 0.961 . S
C1024 C1023 1.502 . S
C1025 H1011 0.960 . S
C1025 H1012 0.961 . S
C1025 H1013 0.959 . S
C1025 C1023 1.561 . S
C1026 C1023 1.526 . S
C1026 C1027 1.396 . S
C1026 C1031 1.390 . S
C1027 C1021 1.465 . S
C1027 C1026 1.396 . S
C1027 C1028 1.399 . S
C1028 H1014 0.929 . S
C1028 C1027 1.399 . S
C1028 C1029 1.385 . S
C1029 H1015 0.931 . S
C1029 C1028 1.385 . S
C1029 C1030 1.389 . S
C1030 C1029 1.389 . S
C1030 C1031 1.387 . S
C1031 H1016 0.930 . S
C1031 C1026 1.390 . S
C1031 C1030 1.387 . S
H1032 C1044 0.930 . S
H1033 C1046 0.930 . S
H1034 C1047 0.930 . S
H1035 C1051 0.959 . S
H1036 C1051 0.959 . S
H1037 C1051 0.961 . S
H1038 C1052 0.960 . S
H1039 C1052 0.961 . S
H1040 C1052 0.959 . S
H1041 C1055 0.929 . S
H1042 C1056 0.931 . S
H1043 C1058 0.930 . S
C1044 H1032 0.930 . S
C1044 C1045 1.399 . S
C1044 C1049 1.399 . S
C1045 C1044 1.399 . S
C1045 C1046 1.376 1_545 S
C1046 H1033 0.930 . S
C1046 C1045 1.376 1_565 S
C1046 C1047 1.388 . S
C1047 H1034 0.930 . S
C1047 C1046 1.388 . S
C1047 C1048 1.390 . S
C1048 C1047 1.390 . S
C1048 C1049 1.394 1_565 S
C1048 C1054 1.465 . S
C1049 C1044 1.399 . S
C1049 C1048 1.394 1_545 S
C1049 C1050 1.516 . S
C1050 C1049 1.516 . S
C1050 C1051 1.502 . S
C1050 C1052 1.561 . S
C1050 C1053 1.526 . S
C1051 H1035 0.959 . S
C1051 H1036 0.959 . S
C1051 H1037 0.961 . S
C1051 C1050 1.502 . S
C1052 H1038 0.960 . S
C1052 H1039 0.961 . S
C1052 H1040 0.959 . S
C1052 C1050 1.561 . S
C1053 C1050 1.526 . S
C1053 C1054 1.396 1_545 S
C1053 C1058 1.390 . S
C1054 C1048 1.465 . S
C1054 C1053 1.396 1_565 S
C1054 C1055 1.399 . S
C1055 H1041 0.929 . S
C1055 C1054 1.399 . S
C1055 C1056 1.385 . S
C1056 H1042 0.931 . S
C1056 C1055 1.385 . S
C1056 C1057 1.389 1_565 S
C1057 C1056 1.389 1_545 S
C1057 C1058 1.387 . S
C1058 H1043 0.930 . S
C1058 C1053 1.390 . S
C1058 C1057 1.387 . S
H1059 C1071 0.930 . S
H1060 C1073 0.930 . S
H1061 C1074 0.930 . S
H1062 C1078 0.959 . S
H1063 C1078 0.959 . S
H1064 C1078 0.961 . S
H1065 C1079 0.960 . S
H1066 C1079 0.961 . S
H1067 C1079 0.959 . S
H1068 C1082 0.929 . S
H1069 C1083 0.931 . S
H1070 C1085 0.930 . S
C1071 H1059 0.930 . S
C1071 C1072 1.399 . S
C1071 C1076 1.399 . S
C1072 C1071 1.399 . S
C1072 C1073 1.376 . S
C1073 H1060 0.930 . S
C1073 C1072 1.376 . S
C1073 C1074 1.388 . S
C1074 H1061 0.930 . S
C1074 C1073 1.388 . S
C1074 C1075 1.390 . S
C1075 C1074 1.390 . S
C1075 C1076 1.394 . S
C1075 C1081 1.465 . S
C1076 C1071 1.399 . S
C1076 C1075 1.394 . S
C1076 C1077 1.516 . S
C1077 C1076 1.516 . S
C1077 C1078 1.502 . S
C1077 C1079 1.561 . S
C1077 C1080 1.526 . S
C1078 H1062 0.959 . S
C1078 H1063 0.959 . S
C1078 H1064 0.961 . S
C1078 C1077 1.502 . S
C1079 H1065 0.960 . S
C1079 H1066 0.961 . S
C1079 H1067 0.959 . S
C1079 C1077 1.561 . S
C1080 C1077 1.526 . S
C1080 C1081 1.396 . S
C1080 C1085 1.390 . S
C1081 C1075 1.465 . S
C1081 C1080 1.396 . S
C1081 C1082 1.399 . S
C1082 H1068 0.929 . S
C1082 C1081 1.399 . S
C1082 C1083 1.385 . S
C1083 H1069 0.931 . S
C1083 C1082 1.385 . S
C1083 C1084 1.389 . S
C1084 C1083 1.389 . S
C1084 C1085 1.387 . S
C1085 H1070 0.930 . S
C1085 C1080 1.390 . S
C1085 C1084 1.387 . S
H1086 C1098 0.930 . S
H1087 C1100 0.930 . S
H1088 C1101 0.930 . S
H1089 C1105 0.959 . S
H1090 C1105 0.959 . S
H1091 C1105 0.961 . S
H1092 C1106 0.945 1_565 S
H1093 C1106 0.942 1_565 S
H1094 C1106 0.954 1_565 S
H1095 C1109 0.929 . S
H1096 C1110 0.931 . S
H1097 C1112 0.930 . S
C1098 H1086 0.930 . S
C1098 C1099 1.399 . S
C1098 C1103 1.399 . S
C1099 C1098 1.399 . S
C1099 C1100 1.376 . S
C1100 H1087 0.930 . S
C1100 C1099 1.376 . S
C1100 C1101 1.388 . S
C1101 H1088 0.930 . S
C1101 C1100 1.388 . S
C1101 C1102 1.390 . S
C1102 C1101 1.390 . S
C1102 C1103 1.394 . S
C1102 C1108 1.465 . S
C1103 C1098 1.399 . S
C1103 C1102 1.394 . S
C1103 C1104 1.516 . S
C1104 C1103 1.516 . S
C1104 C1105 1.502 . S
C1104 C1106 1.602 . S
C1104 C1107 1.526 . S
C1105 H1089 0.959 . S
C1105 H1090 0.959 . S
C1105 H1091 0.961 . S
C1105 C1104 1.502 . S
C1106 H1092 0.945 1_545 S
C1106 H1093 0.942 1_545 S
C1106 H1094 0.954 1_545 S
C1106 C1104 1.602 . S
C1107 C1104 1.526 . S
C1107 C1108 1.396 . S
C1107 C1112 1.390 . S
C1108 C1102 1.465 . S
C1108 C1107 1.396 . S
C1108 C1109 1.399 . S
C1109 H1095 0.929 . S
C1109 C1108 1.399 . S
C1109 C1110 1.385 . S
C1110 H1096 0.931 . S
C1110 C1109 1.385 . S
C1110 C1111 1.389 . S
C1111 C1110 1.389 . S
C1111 C1112 1.387 . S
C1112 H1097 0.930 . S
C1112 C1107 1.390 . S
C1112 C1111 1.387 . S
H1113 C1125 0.930 . S
H1114 C1127 0.930 . S
H1115 C1128 0.930 . S
H1116 C1132 0.959 . S
H1117 C1132 0.959 . S
H1118 C1132 0.961 . S
H1119 C1133 0.960 . S
H1120 C1133 0.961 . S
H1121 C1133 0.959 . S
H1122 C1136 0.929 . S
H1123 C1137 0.931 . S
H1124 C1139 0.930 . S
C1125 H1113 0.930 . S
C1125 C1126 1.399 . S
C1125 C1130 1.399 . S
C1126 C1125 1.399 . S
C1126 C1127 1.376 . S
C1127 H1114 0.930 . S
C1127 C1126 1.376 . S
C1127 C1128 1.388 . S
C1128 H1115 0.930 . S
C1128 C1127 1.388 . S
C1128 C1129 1.390 . S
C1129 C1128 1.390 . S
C1129 C1130 1.394 . S
C1129 C1135 1.465 . S
C1130 C1125 1.399 . S
C1130 C1129 1.394 . S
C1130 C1131 1.516 . S
C1131 C1130 1.516 . S
C1131 C1132 1.502 . S
C1131 C1133 1.561 . S
C1131 C1134 1.526 . S
C1132 H1116 0.959 . S
C1132 H1117 0.959 . S
C1132 H1118 0.961 . S
C1132 C1131 1.502 . S
C1133 H1119 0.960 . S
C1133 H1120 0.961 . S
C1133 H1121 0.959 . S
C1133 C1131 1.561 . S
C1134 C1131 1.526 . S
C1134 C1135 1.396 . S
C1134 C1139 1.390 . S
C1135 C1129 1.465 . S
C1135 C1134 1.396 . S
C1135 C1136 1.399 . S
C1136 H1122 0.929 . S
C1136 C1135 1.399 . S
C1136 C1137 1.385 . S
C1137 H1123 0.931 . S
C1137 C1136 1.385 . S
C1137 C1138 1.389 . S
C1138 C1137 1.389 . S
C1138 C1139 1.387 . S
C1139 H1124 0.930 . S
C1139 C1134 1.390 . S
C1139 C1138 1.387 . S
H1140 C1152 0.930 . S
H1141 C1154 0.930 . S
H1142 C1155 0.930 . S
H1143 C1159 0.959 . S
H1144 C1159 0.959 . S
H1145 C1159 0.961 . S
H1146 C1160 0.960 . S
H1147 C1160 0.961 . S
H1148 C1160 0.959 . S
H1149 C1163 0.929 1_565 S
H1150 C1164 0.931 . S
H1151 C1166 0.930 . S
C1152 H1140 0.930 . S
C1152 C1153 1.399 . S
C1152 C1157 1.399 . S
C1153 C1152 1.399 . S
C1153 C1154 1.376 1_545 S
C1154 H1141 0.930 . S
C1154 C1153 1.376 1_565 S
C1154 C1155 1.388 . S
C1155 H1142 0.930 . S
C1155 C1154 1.388 . S
C1155 C1156 1.390 1_565 S
C1156 C1155 1.390 1_545 S
C1156 C1157 1.394 . S
C1156 C1162 1.465 . S
C1157 C1152 1.399 . S
C1157 C1156 1.394 . S
C1157 C1158 1.516 . S
C1158 C1157 1.516 . S
C1158 C1159 1.502 . S
C1158 C1160 1.561 . S
C1158 C1161 1.526 . S
C1159 H1143 0.959 . S
C1159 H1144 0.959 . S
C1159 H1145 0.961 . S
C1159 C1158 1.502 . S
C1160 H1146 0.960 . S
C1160 H1147 0.961 . S
C1160 H1148 0.959 . S
C1160 C1158 1.561 . S
C1161 C1158 1.526 . S
C1161 C1162 1.396 . S
C1161 C1166 1.390 . S
C1162 C1156 1.465 . S
C1162 C1161 1.396 . S
C1162 C1163 1.399 . S
C1163 H1149 0.929 1_545 S
C1163 C1162 1.399 . S
C1163 C1164 1.385 . S
C1164 H1150 0.931 . S
C1164 C1163 1.385 . S
C1164 C1165 1.389 . S
C1165 C1164 1.389 . S
C1165 C1166 1.387 . S
C1166 H1151 0.930 . S
C1166 C1161 1.390 . S
C1166 C1165 1.387 . S
H1167 C1179 0.930 . S
H1168 C1181 0.930 . S
H1169 C1182 0.930 . S
H1170 C1186 0.959 . S
H1171 C1186 0.959 . S
H1172 C1186 0.961 . S
H1173 C1187 0.960 . S
H1174 C1187 0.961 . S
H1175 C1187 0.959 . S
H1176 C1190 0.929 . S
H1177 C1191 0.931 . S
H1178 C1193 0.930 . S
C1179 H1167 0.930 . S
C1179 C1180 1.399 . S
C1179 C1184 1.399 . S
C1180 C1179 1.399 . S
C1180 C1181 1.376 . S
C1181 H1168 0.930 . S
C1181 C1180 1.376 . S
C1181 C1182 1.388 . S
C1182 H1169 0.930 . S
C1182 C1181 1.388 . S
C1182 C1183 1.390 . S
C1183 C1182 1.390 . S
C1183 C1184 1.394 . S
C1183 C1189 1.465 . S
C1184 C1179 1.399 . S
C1184 C1183 1.394 . S
C1184 C1185 1.516 . S
C1185 C1184 1.516 . S
C1185 C1186 1.502 . S
C1185 C1187 1.561 . S
C1185 C1188 1.526 . S
C1186 H1170 0.959 . S
C1186 H1171 0.959 . S
C1186 H1172 0.961 . S
C1186 C1185 1.502 . S
C1187 H1173 0.960 . S
C1187 H1174 0.961 . S
C1187 H1175 0.959 . S
C1187 C1185 1.561 . S
C1188 C1185 1.526 . S
C1188 C1189 1.396 . S
C1188 C1193 1.390 . S
C1189 C1183 1.465 . S
C1189 C1188 1.396 . S
C1189 C1190 1.399 . S
C1190 H1176 0.929 . S
C1190 C1189 1.399 . S
C1190 C1191 1.385 . S
C1191 H1177 0.931 . S
C1191 C1190 1.385 . S
C1191 C1192 1.389 . S
C1192 C1191 1.389 . S
C1192 C1193 1.387 . S
C1193 H1178 0.930 . S
C1193 C1188 1.390 . S
C1193 C1192 1.387 . S
H1194 C1206 0.930 . S
H1195 C1208 0.930 . S
H1196 C1209 0.930 . S
H1197 C1213 0.959 . S
H1198 C1213 0.959 . S
H1199 C1213 0.961 . S
H1200 C1214 0.960 . S
H1201 C1214 0.961 . S
H1202 C1214 0.959 1_545 S
H1203 C1217 0.929 . S
H1204 C1218 0.931 . S
H1205 C1220 0.930 1_565 S
C1206 H1194 0.930 . S
C1206 C1207 1.399 . S
C1206 C1211 1.399 . S
C1207 C1206 1.399 . S
C1207 C1208 1.376 . S
C1208 H1195 0.930 . S
C1208 C1207 1.376 . S
C1208 C1209 1.388 . S
C1209 H1196 0.930 . S
C1209 C1208 1.388 . S
C1209 C1210 1.390 . S
C1210 C1209 1.390 . S
C1210 C1211 1.394 . S
C1210 C1216 1.465 . S
C1211 C1206 1.399 . S
C1211 C1210 1.394 . S
C1211 C1212 1.516 . S
C1212 C1211 1.516 . S
C1212 C1213 1.502 1_545 S
C1212 C1214 1.561 1_545 S
C1212 C1215 1.526 . S
C1213 H1197 0.959 . S
C1213 H1198 0.959 . S
C1213 H1199 0.961 . S
C1213 C1212 1.502 1_565 S
C1214 H1200 0.960 . S
C1214 H1201 0.961 . S
C1214 H1202 0.959 1_565 S
C1214 C1212 1.561 1_565 S
C1215 C1212 1.526 . S
C1215 C1216 1.396 . S
C1215 C1220 1.390 . S
C1216 C1210 1.465 . S
C1216 C1215 1.396 . S
C1216 C1217 1.399 . S
C1217 H1203 0.929 . S
C1217 C1216 1.399 . S
C1217 C1218 1.385 . S
C1218 H1204 0.931 . S
C1218 C1217 1.385 . S
C1218 C1219 1.389 . S
C1219 C1218 1.389 . S
C1219 C1220 1.387 . S
C1220 H1205 0.930 1_545 S
C1220 C1215 1.390 . S
C1220 C1219 1.387 . S
H1221 C1233 0.930 . S
H1222 C1235 0.930 . S
H1223 C1236 0.930 . S
H1224 C1240 0.959 . S
H1225 C1240 0.959 . S
H1226 C1240 0.961 . S
H1227 C1241 0.960 . S
H1228 C1241 0.961 . S
H1229 C1241 0.959 . S
H1230 C1244 0.929 . S
H1231 C1245 0.931 . S
H1232 C1247 0.930 . S
C1233 H1221 0.930 . S
C1233 C1234 1.399 . S
C1233 C1238 1.399 . S
C1234 C1233 1.399 . S
C1234 C1235 1.376 . S
C1235 H1222 0.930 . S
C1235 C1234 1.376 . S
C1235 C1236 1.388 . S
C1236 H1223 0.930 . S
C1236 C1235 1.388 . S
C1236 C1237 1.390 . S
C1237 C1236 1.390 . S
C1237 C1238 1.394 . S
C1237 C1243 1.465 . S
C1238 C1233 1.399 . S
C1238 C1237 1.394 . S
C1238 C1239 1.516 . S
C1239 C1238 1.516 . S
C1239 C1240 1.502 . S
C1239 C1241 1.561 . S
C1239 C1242 1.526 . S
C1240 H1224 0.959 . S
C1240 H1225 0.959 . S
C1240 H1226 0.961 . S
C1240 C1239 1.502 . S
C1241 H1227 0.960 . S
C1241 H1228 0.961 . S
C1241 H1229 0.959 . S
C1241 C1239 1.561 . S
C1242 C1239 1.526 . S
C1242 C1243 1.396 . S
C1242 C1247 1.390 . S
C1243 C1237 1.465 . S
C1243 C1242 1.396 . S
C1243 C1244 1.399 . S
C1244 H1230 0.929 . S
C1244 C1243 1.399 . S
C1244 C1245 1.385 . S
C1245 H1231 0.931 . S
C1245 C1244 1.385 . S
C1245 C1246 1.389 . S
C1246 C1245 1.389 . S
C1246 C1247 1.387 . S
C1247 H1232 0.930 . S
C1247 C1242 1.390 . S
C1247 C1246 1.387 . S
H1248 C1260 0.930 . S
H1249 C1262 0.930 . S
H1250 C1263 0.930 1_556 S
H1251 C1267 0.959 . S
H1252 C1267 0.959 . S
H1253 C1267 0.961 . S
H1254 C1268 0.960 . S
H1255 C1268 0.961 . S
H1256 C1268 0.959 . S
H1257 C1271 0.929 1_556 S
H1258 C1272 0.931 1_556 S
H1259 C1274 0.930 . S
C1260 H1248 0.930 . S
C1260 C1261 1.399 . S
C1260 C1265 1.399 . S
C1261 C1260 1.399 . S
C1261 C1262 1.376 . S
C1262 H1249 0.930 . S
C1262 C1261 1.376 . S
C1262 C1263 1.388 . S
C1263 H1250 0.930 1_554 S
C1263 C1262 1.388 . S
C1263 C1264 1.390 . S
C1264 C1263 1.390 . S
C1264 C1265 1.394 . S
C1264 C1270 1.465 . S
C1265 C1260 1.399 . S
C1265 C1264 1.394 . S
C1265 C1266 1.516 . S
C1266 C1265 1.516 . S
C1266 C1267 1.502 . S
C1266 C1268 1.561 . S
C1266 C1269 1.526 . S
C1267 H1251 0.959 . S
C1267 H1252 0.959 . S
C1267 H1253 0.961 . S
C1267 C1266 1.502 . S
C1268 H1254 0.960 . S
C1268 H1255 0.961 . S
C1268 H1256 0.959 . S
C1268 C1266 1.561 . S
C1269 C1266 1.526 . S
C1269 C1270 1.396 . S
C1269 C1274 1.390 . S
C1270 C1264 1.465 . S
C1270 C1269 1.396 . S
C1270 C1271 1.399 . S
C1271 H1257 0.929 1_554 S
C1271 C1270 1.399 . S
C1271 C1272 1.385 . S
C1272 H1258 0.931 1_554 S
C1272 C1271 1.385 . S
C1272 C1273 1.389 . S
C1273 C1272 1.389 . S
C1273 C1274 1.387 . S
C1274 H1259 0.930 . S
C1274 C1269 1.390 . S
C1274 C1273 1.387 . S
H1275 C1287 0.930 . S
H1276 C1289 0.930 . S
H1277 C1290 0.930 . S
H1278 C1294 0.959 . S
H1279 C1294 0.959 1_556 S
H1280 C1294 0.969 . S
H1281 C1295 0.947 1_556 S
H1282 C1295 0.939 1_556 S
H1283 C1295 0.972 . S
H1284 C1298 0.929 . S
H1285 C1299 0.931 . S
H1286 C1301 0.930 . S
C1287 H1275 0.930 . S
C1287 C1288 1.399 . S
C1287 C1292 1.399 . S
C1288 C1287 1.399 . S
C1288 C1289 1.376 . S
C1289 H1276 0.930 . S
C1289 C1288 1.376 . S
C1289 C1290 1.388 . S
C1290 H1277 0.930 . S
C1290 C1289 1.388 . S
C1290 C1291 1.390 . S
C1291 C1290 1.390 . S
C1291 C1292 1.394 . S
C1291 C1297 1.465 . S
C1292 C1287 1.399 . S
C1292 C1291 1.394 . S
C1292 C1293 1.516 . S
C1293 C1292 1.516 . S
C1293 C1294 1.502 . S
C1293 C1295 1.584 . S
C1293 C1296 1.526 . S
C1294 H1278 0.959 . S
C1294 H1279 0.959 1_554 S
C1294 H1280 0.969 . S
C1294 C1293 1.502 . S
C1295 H1281 0.947 1_554 S
C1295 H1282 0.939 1_554 S
C1295 H1283 0.972 . S
C1295 C1293 1.584 . S
C1296 C1293 1.526 . S
C1296 C1297 1.396 . S
C1296 C1301 1.390 . S
C1297 C1291 1.465 . S
C1297 C1296 1.396 . S
C1297 C1298 1.399 . S
C1298 H1284 0.929 . S
C1298 C1297 1.399 . S
C1298 C1299 1.385 . S
C1299 H1285 0.931 . S
C1299 C1298 1.385 . S
C1299 C1300 1.389 . S
C1300 C1299 1.389 . S
C1300 C1301 1.387 . S
C1301 H1286 0.930 . S
C1301 C1296 1.390 . S
C1301 C1300 1.387 . S
H1302 C1314 0.930 . S
H1303 C1316 0.930 . S
H1304 C1317 0.930 . S
H1305 C1321 0.959 . S
H1306 C1321 0.959 . S
H1307 C1321 0.961 . S
H1308 C1322 0.960 . S
H1309 C1322 0.961 . S
H1310 C1322 0.959 . S
H1311 C1325 0.929 . S
H1312 C1326 0.931 . S
H1313 C1328 0.930 . S
C1314 H1302 0.930 . S
C1314 C1315 1.399 . S
C1314 C1319 1.399 . S
C1315 C1314 1.399 . S
C1315 C1316 1.376 . S
C1316 H1303 0.930 . S
C1316 C1315 1.376 . S
C1316 C1317 1.388 . S
C1317 H1304 0.930 . S
C1317 C1316 1.388 . S
C1317 C1318 1.390 . S
C1318 C1317 1.390 . S
C1318 C1319 1.394 . S
C1318 C1324 1.465 . S
C1319 C1314 1.399 . S
C1319 C1318 1.394 . S
C1319 C1320 1.516 . S
C1320 C1319 1.516 . S
C1320 C1321 1.502 . S
C1320 C1322 1.561 . S
C1320 C1323 1.526 . S
C1321 H1305 0.959 . S
C1321 H1306 0.959 . S
C1321 H1307 0.961 . S
C1321 C1320 1.502 . S
C1322 H1308 0.960 . S
C1322 H1309 0.961 . S
C1322 H1310 0.959 . S
C1322 C1320 1.561 . S
C1323 C1320 1.526 . S
C1323 C1324 1.396 . S
C1323 C1328 1.390 . S
C1324 C1318 1.465 . S
C1324 C1323 1.396 . S
C1324 C1325 1.399 . S
C1325 H1311 0.929 . S
C1325 C1324 1.399 . S
C1325 C1326 1.385 . S
C1326 H1312 0.931 . S
C1326 C1325 1.385 . S
C1326 C1327 1.389 . S
C1327 C1326 1.389 . S
C1327 C1328 1.387 . S
C1328 H1313 0.930 . S
C1328 C1323 1.390 . S
C1328 C1327 1.387 . S
H1329 C1341 0.930 . S
H1330 C1343 0.930 . S
H1331 C1344 0.930 . S
H1332 C1348 0.959 . S
H1333 C1348 0.959 . S
H1334 C1348 0.961 . S
H1335 C1349 0.960 . S
H1336 C1349 0.961 . S
H1337 C1349 0.959 . S
H1338 C1352 0.929 . S
H1339 C1353 0.931 . S
H1340 C1355 0.930 . S
C1341 H1329 0.930 . S
C1341 C1342 1.399 . S
C1341 C1346 1.399 . S
C1342 C1341 1.399 . S
C1342 C1343 1.376 . S
C1343 H1330 0.930 . S
C1343 C1342 1.376 . S
C1343 C1344 1.388 . S
C1344 H1331 0.930 . S
C1344 C1343 1.388 . S
C1344 C1345 1.390 . S
C1345 C1344 1.390 . S
C1345 C1346 1.394 . S
C1345 C1351 1.465 . S
C1346 C1341 1.399 . S
C1346 C1345 1.394 . S
C1346 C1347 1.516 . S
C1347 C1346 1.516 . S
C1347 C1348 1.502 . S
C1347 C1349 1.561 . S
C1347 C1350 1.526 . S
C1348 H1332 0.959 . S
C1348 H1333 0.959 . S
C1348 H1334 0.961 . S
C1348 C1347 1.502 . S
C1349 H1335 0.960 . S
C1349 H1336 0.961 . S
C1349 H1337 0.959 . S
C1349 C1347 1.561 . S
C1350 C1347 1.526 . S
C1350 C1351 1.396 . S
C1350 C1355 1.390 . S
C1351 C1345 1.465 . S
C1351 C1350 1.396 . S
C1351 C1352 1.399 . S
C1352 H1338 0.929 . S
C1352 C1351 1.399 . S
C1352 C1353 1.385 . S
C1353 H1339 0.931 . S
C1353 C1352 1.385 . S
C1353 C1354 1.389 . S
C1354 C1353 1.389 . S
C1354 C1355 1.387 . S
C1355 H1340 0.930 . S
C1355 C1350 1.390 . S
C1355 C1354 1.387 . S
H1356 C1368 0.930 . S
H1357 C1370 0.930 . S
H1358 C1371 0.930 . S
H1359 C1375 0.959 . S
H1360 C1375 0.959 . S
H1361 C1375 0.961 . S
H1362 C1376 0.960 . S
H1363 C1376 0.961 . S
H1364 C1376 0.959 . S
H1365 C1379 0.929 . S
H1366 C1380 0.931 . S
H1367 C1382 0.930 . S
C1368 H1356 0.930 . S
C1368 C1369 1.399 . S
C1368 C1373 1.399 . S
C1369 C1368 1.399 . S
C1369 C1370 1.376 . S
C1370 H1357 0.930 . S
C1370 C1369 1.376 . S
C1370 C1371 1.388 . S
C1371 H1358 0.930 . S
C1371 C1370 1.388 . S
C1371 C1372 1.390 . S
C1372 C1371 1.390 . S
C1372 C1373 1.394 . S
C1372 C1378 1.465 . S
C1373 C1368 1.399 . S
C1373 C1372 1.394 . S
C1373 C1374 1.516 . S
C1374 C1373 1.516 . S
C1374 C1375 1.502 . S
C1374 C1376 1.561 . S
C1374 C1377 1.526 . S
C1375 H1359 0.959 . S
C1375 H1360 0.959 . S
C1375 H1361 0.961 . S
C1375 C1374 1.502 . S
C1376 H1362 0.960 . S
C1376 H1363 0.961 . S
C1376 H1364 0.959 . S
C1376 C1374 1.561 . S
C1377 C1374 1.526 . S
C1377 C1378 1.396 . S
C1377 C1382 1.390 . S
C1378 C1372 1.465 . S
C1378 C1377 1.396 . S
C1378 C1379 1.399 . S
C1379 H1365 0.929 . S
C1379 C1378 1.399 . S
C1379 C1380 1.385 . S
C1380 H1366 0.931 . S
C1380 C1379 1.385 . S
C1380 C1381 1.389 . S
C1381 C1380 1.389 . S
C1381 C1382 1.387 . S
C1382 H1367 0.930 . S
C1382 C1377 1.390 . S
C1382 C1381 1.387 . S
H1383 C1395 0.930 . S
H1384 C1397 0.930 . S
H1385 C1398 0.930 . S
H1386 C1402 0.959 . S
H1387 C1402 0.959 . S
H1388 C1402 0.961 . S
H1389 C1403 0.960 . S
H1390 C1403 0.961 1_545 S
H1391 C1403 0.959 . S
H1392 C1406 0.929 . S
H1393 C1407 0.931 . S
H1394 C1409 0.888 1_545 S
C1395 H1383 0.930 . S
C1395 C1396 1.399 . S
C1395 C1400 1.399 . S
C1396 C1395 1.399 . S
C1396 C1397 1.376 . S
C1397 H1384 0.930 . S
C1397 C1396 1.376 . S
C1397 C1398 1.388 . S
C1398 H1385 0.930 . S
C1398 C1397 1.388 . S
C1398 C1399 1.390 . S
C1399 C1398 1.390 . S
C1399 C1400 1.394 . S
C1399 C1405 1.465 . S
C1400 C1395 1.399 . S
C1400 C1399 1.394 . S
C1400 C1401 1.516 . S
C1401 C1400 1.516 . S
C1401 C1402 1.502 1_565 S
C1401 C1403 1.561 . S
C1401 C1404 1.526 . S
C1402 H1386 0.959 . S
C1402 H1387 0.959 . S
C1402 H1388 0.961 . S
C1402 C1401 1.502 1_545 S
C1403 H1389 0.960 . S
C1403 H1390 0.961 1_565 S
C1403 H1391 0.959 . S
C1403 C1401 1.561 . S
C1404 C1401 1.526 . S
C1404 C1405 1.396 . S
C1404 C1409 1.418 . S
C1405 C1399 1.465 . S
C1405 C1404 1.396 . S
C1405 C1406 1.399 . S
C1406 H1392 0.929 . S
C1406 C1405 1.399 . S
C1406 C1407 1.385 . S
C1407 H1393 0.931 . S
C1407 C1406 1.385 . S
C1407 C1408 1.389 . S
C1408 C1407 1.389 . S
C1408 C1409 1.401 . S
C1409 H1394 0.888 1_565 S
C1409 C1404 1.418 . S
C1409 C1408 1.401 . S
H1410 C1422 0.930 . S
H1411 C1424 0.930 . S
H1412 C1425 0.930 . S
H1413 C1429 0.959 . S
H1414 C1429 0.959 . S
H1415 C1429 0.961 . S
H1416 C1430 0.960 . S
H1417 C1430 0.961 . S
H1418 C1430 0.959 . S
H1419 C1433 0.929 . S
H1420 C1434 0.931 . S
H1421 C1436 0.930 . S
C1422 H1410 0.930 . S
C1422 C1423 1.399 . S
C1422 C1427 1.399 . S
C1423 C1422 1.399 . S
C1423 C1424 1.376 . S
C1424 H1411 0.930 . S
C1424 C1423 1.376 . S
C1424 C1425 1.388 . S
C1425 H1412 0.930 . S
C1425 C1424 1.388 . S
C1425 C1426 1.390 . S
C1426 C1425 1.390 . S
C1426 C1427 1.394 . S
C1426 C1432 1.465 . S
C1427 C1422 1.399 . S
C1427 C1426 1.394 . S
C1427 C1428 1.516 . S
C1428 C1427 1.516 . S
C1428 C1429 1.502 . S
C1428 C1430 1.561 . S
C1428 C1431 1.526 . S
C1429 H1413 0.959 . S
C1429 H1414 0.959 . S
C1429 H1415 0.961 . S
C1429 C1428 1.502 . S
C1430 H1416 0.960 . S
C1430 H1417 0.961 . S
C1430 H1418 0.959 . S
C1430 C1428 1.561 . S
C1431 C1428 1.526 . S
C1431 C1432 1.396 . S
C1431 C1436 1.390 . S
C1432 C1426 1.465 . S
C1432 C1431 1.396 . S
C1432 C1433 1.399 . S
C1433 H1419 0.929 . S
C1433 C1432 1.399 . S
C1433 C1434 1.385 . S
C1434 H1420 0.931 . S
C1434 C1433 1.385 . S
C1434 C1435 1.389 . S
C1435 C1434 1.389 . S
C1435 C1436 1.387 . S
C1436 H1421 0.930 . S
C1436 C1431 1.390 . S
C1436 C1435 1.387 . S
H1437 C1449 0.930 . S
H1438 C1451 0.930 . S
H1439 C1452 0.930 . S
H1440 C1456 0.959 . S
H1441 C1456 0.959 . S
H1442 C1456 0.961 . S
H1443 C1457 0.960 . S
H1444 C1457 0.961 . S
H1445 C1457 0.959 . S
H1446 C1460 0.929 . S
H1447 C1461 0.931 . S
H1448 C1463 0.930 . S
C1449 H1437 0.930 . S
C1449 C1450 1.399 . S
C1449 C1454 1.399 . S
C1450 C1449 1.399 . S
C1450 C1451 1.376 . S
C1451 H1438 0.930 . S
C1451 C1450 1.376 . S
C1451 C1452 1.388 . S
C1452 H1439 0.930 . S
C1452 C1451 1.388 . S
C1452 C1453 1.390 . S
C1453 C1452 1.390 . S
C1453 C1454 1.394 . S
C1453 C1459 1.465 . S
C1454 C1449 1.399 . S
C1454 C1453 1.394 . S
C1454 C1455 1.516 . S
C1455 C1454 1.516 . S
C1455 C1456 1.502 . S
C1455 C1457 1.561 . S
C1455 C1458 1.526 . S
C1456 H1440 0.959 . S
C1456 H1441 0.959 . S
C1456 H1442 0.961 . S
C1456 C1455 1.502 . S
C1457 H1443 0.960 . S
C1457 H1444 0.961 . S
C1457 H1445 0.959 . S
C1457 C1455 1.561 . S
C1458 C1455 1.526 . S
C1458 C1459 1.396 . S
C1458 C1463 1.390 . S
C1459 C1453 1.465 . S
C1459 C1458 1.396 . S
C1459 C1460 1.399 . S
C1460 H1446 0.929 . S
C1460 C1459 1.399 . S
C1460 C1461 1.385 . S
C1461 H1447 0.931 . S
C1461 C1460 1.385 . S
C1461 C1462 1.389 . S
C1462 C1461 1.389 . S
C1462 C1463 1.387 . S
C1463 H1448 0.930 . S
C1463 C1458 1.390 . S
C1463 C1462 1.387 . S
H1464 C1476 0.930 . S
H1465 C1478 0.930 . S
H1466 C1479 0.930 . S
H1467 C1483 0.959 . S
H1468 C1483 0.959 . S
H1469 C1483 0.961 . S
H1470 C1484 0.960 . S
H1471 C1484 0.961 . S
H1472 C1484 0.959 . S
H1473 C1487 0.929 . S
H1474 C1488 0.931 . S
H1475 C1490 0.930 . S
C1476 H1464 0.930 . S
C1476 C1477 1.399 . S
C1476 C1481 1.399 . S
C1477 C1476 1.399 . S
C1477 C1478 1.376 . S
C1478 H1465 0.930 . S
C1478 C1477 1.376 . S
C1478 C1479 1.388 . S
C1479 H1466 0.930 . S
C1479 C1478 1.388 . S
C1479 C1480 1.390 . S
C1480 C1479 1.390 . S
C1480 C1481 1.394 . S
C1480 C1486 1.465 . S
C1481 C1476 1.399 . S
C1481 C1480 1.394 . S
C1481 C1482 1.516 . S
C1482 C1481 1.516 . S
C1482 C1483 1.502 . S
C1482 C1484 1.561 . S
C1482 C1485 1.526 . S
C1483 H1467 0.959 . S
C1483 H1468 0.959 . S
C1483 H1469 0.961 . S
C1483 C1482 1.502 . S
C1484 H1470 0.960 . S
C1484 H1471 0.961 . S
C1484 H1472 0.959 . S
C1484 C1482 1.561 . S
C1485 C1482 1.526 . S
C1485 C1486 1.396 . S
C1485 C1490 1.390 . S
C1486 C1480 1.465 . S
C1486 C1485 1.396 . S
C1486 C1487 1.399 1_556 S
C1487 H1473 0.929 . S
C1487 C1486 1.399 1_554 S
C1487 C1488 1.385 . S
C1488 H1474 0.931 . S
C1488 C1487 1.385 . S
C1488 C1489 1.389 1_554 S
C1489 C1488 1.389 1_556 S
C1489 C1490 1.387 . S
C1490 H1475 0.930 . S
C1490 C1485 1.390 . S
C1490 C1489 1.387 . S
H1491 C1503 0.930 . S
H1492 C1505 0.930 . S
H1493 C1506 0.930 . S
H1494 C1510 0.959 . S
H1495 C1510 0.959 . S
H1496 C1510 0.961 . S
H1497 C1511 0.960 . S
H1498 C1511 0.961 . S
H1499 C1511 0.959 . S
H1500 C1514 0.929 . S
H1501 C1515 0.931 . S
H1502 C1517 0.930 . S
C1503 H1491 0.930 . S
C1503 C1504 1.399 . S
C1503 C1508 1.399 . S
C1504 C1503 1.399 . S
C1504 C1505 1.376 . S
C1505 H1492 0.930 . S
C1505 C1504 1.376 . S
C1505 C1506 1.388 . S
C1506 H1493 0.930 . S
C1506 C1505 1.388 . S
C1506 C1507 1.390 . S
C1507 C1506 1.390 . S
C1507 C1508 1.394 . S
C1507 C1513 1.465 . S
C1508 C1503 1.399 . S
C1508 C1507 1.394 . S
C1508 C1509 1.516 . S
C1509 C1508 1.516 . S
C1509 C1510 1.502 . S
C1509 C1511 1.561 . S
C1509 C1512 1.526 . S
C1510 H1494 0.959 . S
C1510 H1495 0.959 . S
C1510 H1496 0.961 . S
C1510 C1509 1.502 . S
C1511 H1497 0.960 . S
C1511 H1498 0.961 . S
C1511 H1499 0.959 . S
C1511 C1509 1.561 . S
C1512 C1509 1.526 . S
C1512 C1513 1.396 . S
C1512 C1517 1.390 . S
C1513 C1507 1.465 . S
C1513 C1512 1.396 . S
C1513 C1514 1.399 . S
C1514 H1500 0.929 . S
C1514 C1513 1.399 . S
C1514 C1515 1.385 . S
C1515 H1501 0.931 . S
C1515 C1514 1.385 . S
C1515 C1516 1.389 . S
C1516 C1515 1.389 . S
C1516 C1517 1.387 . S
C1517 H1502 0.930 . S
C1517 C1512 1.390 . S
C1517 C1516 1.387 . S
H1518 C1530 0.930 . S
H1519 C1532 0.930 . S
H1520 C1533 0.930 . S
H1521 C1537 0.959 . S
H1522 C1537 0.959 . S
H1523 C1537 0.961 . S
H1524 C1538 0.960 . S
H1525 C1538 0.961 . S
H1526 C1538 0.959 . S
H1527 C1541 0.929 . S
H1528 C1542 0.931 . S
H1529 C1544 0.930 . S
C1530 H1518 0.930 . S
C1530 C1531 1.399 . S
C1530 C1535 1.399 . S
C1531 C1530 1.399 . S
C1531 C1532 1.376 . S
C1532 H1519 0.930 . S
C1532 C1531 1.376 . S
C1532 C1533 1.388 . S
C1533 H1520 0.930 . S
C1533 C1532 1.388 . S
C1533 C1534 1.390 . S
C1534 C1533 1.390 . S
C1534 C1535 1.394 . S
C1534 C1540 1.465 . S
C1535 C1530 1.399 . S
C1535 C1534 1.394 . S
C1535 C1536 1.516 . S
C1536 C1535 1.516 . S
C1536 C1537 1.502 . S
C1536 C1538 1.561 . S
C1536 C1539 1.526 . S
C1537 H1521 0.959 . S
C1537 H1522 0.959 . S
C1537 H1523 0.961 . S
C1537 C1536 1.502 . S
C1538 H1524 0.960 . S
C1538 H1525 0.961 . S
C1538 H1526 0.959 . S
C1538 C1536 1.561 . S
C1539 C1536 1.526 . S
C1539 C1540 1.396 . S
C1539 C1544 1.390 . S
C1540 C1534 1.465 . S
C1540 C1539 1.396 . S
C1540 C1541 1.399 . S
C1541 H1527 0.929 . S
C1541 C1540 1.399 . S
C1541 C1542 1.385 . S
C1542 H1528 0.931 . S
C1542 C1541 1.385 . S
C1542 C1543 1.389 . S
C1543 C1542 1.389 . S
C1543 C1544 1.387 . S
C1544 H1529 0.930 . S
C1544 C1539 1.390 . S
C1544 C1543 1.387 . S
H1545 C1557 0.930 . S
H1546 C1559 0.930 . S
H1547 C1560 0.930 . S
H1548 C1564 0.959 . S
H1549 C1564 0.959 . S
H1550 C1564 0.961 . S
H1551 C1565 0.960 . S
H1552 C1565 0.961 . S
H1553 C1565 0.959 . S
H1554 C1568 0.929 . S
H1555 C1569 0.931 . S
H1556 C1571 0.930 . S
C1557 H1545 0.930 . S
C1557 C1558 1.399 . S
C1557 C1562 1.399 . S
C1558 C1557 1.399 . S
C1558 C1559 1.376 . S
C1559 H1546 0.930 . S
C1559 C1558 1.376 . S
C1559 C1560 1.388 . S
C1560 H1547 0.930 . S
C1560 C1559 1.388 . S
C1560 C1561 1.390 . S
C1561 C1560 1.390 . S
C1561 C1562 1.394 . S
C1561 C1567 1.465 . S
C1562 C1557 1.399 . S
C1562 C1561 1.394 . S
C1562 C1563 1.516 . S
C1563 C1562 1.516 . S
C1563 C1564 1.502 . S
C1563 C1565 1.561 . S
C1563 C1566 1.526 . S
C1564 H1548 0.959 . S
C1564 H1549 0.959 . S
C1564 H1550 0.961 . S
C1564 C1563 1.502 . S
C1565 H1551 0.960 . S
C1565 H1552 0.961 . S
C1565 H1553 0.959 . S
C1565 C1563 1.561 . S
C1566 C1563 1.526 . S
C1566 C1567 1.396 . S
C1566 C1571 1.390 . S
C1567 C1561 1.465 . S
C1567 C1566 1.396 . S
C1567 C1568 1.399 . S
C1568 H1554 0.929 . S
C1568 C1567 1.399 . S
C1568 C1569 1.385 . S
C1569 H1555 0.931 . S
C1569 C1568 1.385 . S
C1569 C1570 1.389 . S
C1570 C1569 1.389 . S
C1570 C1571 1.387 . S
C1571 H1556 0.930 . S
C1571 C1566 1.390 . S
C1571 C1570 1.387 . S
H1572 C1584 0.931 . S
H1573 C1586 0.930 . S
H1574 C1587 0.930 . S
H1575 C1591 0.959 . S
H1576 C1591 0.959 . S
H1577 C1591 0.961 . S
H1578 C1592 0.960 . S
H1579 C1592 0.961 . S
H1580 C1592 0.959 . S
H1581 C1595 0.929 . S
H1582 C1596 0.931 . S
H1583 C1598 0.930 . S
C1584 H1572 0.931 . S
C1584 C1585 1.399 1_655 S
C1584 C1589 1.398 1_655 S
C1585 C1584 1.399 1_455 S
C1585 C1586 1.376 . S
C1586 H1573 0.930 . S
C1586 C1585 1.376 . S
C1586 C1587 1.388 . S
C1587 H1574 0.930 . S
C1587 C1586 1.388 . S
C1587 C1588 1.390 . S
C1588 C1587 1.390 . S
C1588 C1589 1.394 . S
C1588 C1594 1.465 . S
C1589 C1584 1.398 1_455 S
C1589 C1588 1.394 . S
C1589 C1590 1.516 . S
C1590 C1589 1.516 . S
C1590 C1591 1.502 1_455 S
C1590 C1592 1.561 . S
C1590 C1593 1.526 . S
C1591 H1575 0.959 . S
C1591 H1576 0.959 . S
C1591 H1577 0.961 . S
C1591 C1590 1.502 1_655 S
C1592 H1578 0.960 . S
C1592 H1579 0.961 . S
C1592 H1580 0.959 . S
C1592 C1590 1.561 . S
C1593 C1590 1.526 . S
C1593 C1594 1.396 . S
C1593 C1598 1.390 . S
C1594 C1588 1.465 . S
C1594 C1593 1.396 . S
C1594 C1595 1.399 . S
C1595 H1581 0.929 . S
C1595 C1594 1.399 . S
C1595 C1596 1.385 . S
C1596 H1582 0.931 . S
C1596 C1595 1.385 . S
C1596 C1597 1.389 . S
C1597 C1596 1.389 . S
C1597 C1598 1.387 . S
C1598 H1583 0.930 . S
C1598 C1593 1.390 . S
C1598 C1597 1.387 . S
H1599 C1611 0.930 . S
H1600 C1613 0.930 . S
H1601 C1614 0.930 . S
H1602 C1618 0.959 . S
H1603 C1618 0.959 . S
H1604 C1618 0.961 . S
H1605 C1619 0.960 . S
H1606 C1619 0.961 . S
H1607 C1619 0.959 . S
H1608 C1622 0.929 . S
H1609 C1623 0.931 . S
H1610 C1625 0.930 . S
C1611 H1599 0.930 . S
C1611 C1612 1.399 . S
C1611 C1616 1.399 . S
C1612 C1611 1.399 . S
C1612 C1613 1.376 . S
C1613 H1600 0.930 . S
C1613 C1612 1.376 . S
C1613 C1614 1.388 . S
C1614 H1601 0.930 . S
C1614 C1613 1.388 . S
C1614 C1615 1.390 . S
C1615 C1614 1.390 . S
C1615 C1616 1.394 . S
C1615 C1621 1.465 . S
C1616 C1611 1.399 . S
C1616 C1615 1.394 . S
C1616 C1617 1.516 . S
C1617 C1616 1.516 . S
C1617 C1618 1.502 . S
C1617 C1619 1.561 . S
C1617 C1620 1.526 . S
C1618 H1602 0.959 . S
C1618 H1603 0.959 . S
C1618 H1604 0.961 . S
C1618 C1617 1.502 . S
C1619 H1605 0.960 . S
C1619 H1606 0.961 . S
C1619 H1607 0.959 . S
C1619 C1617 1.561 . S
C1620 C1617 1.526 . S
C1620 C1621 1.396 . S
C1620 C1625 1.390 . S
C1621 C1615 1.465 . S
C1621 C1620 1.396 . S
C1621 C1622 1.399 . S
C1622 H1608 0.929 . S
C1622 C1621 1.399 . S
C1622 C1623 1.385 . S
C1623 H1609 0.931 . S
C1623 C1622 1.385 . S
C1623 C1624 1.389 . S
C1624 C1623 1.389 . S
C1624 C1625 1.387 . S
C1625 H1610 0.930 . S
C1625 C1620 1.390 . S
C1625 C1624 1.387 . S
H1626 C1638 0.930 . S
H1627 C1640 0.930 . S
H1628 C1641 0.930 . S
H1629 C1645 0.959 . S
H1630 C1645 0.959 . S
H1631 C1645 0.961 . S
H1632 C1646 0.960 . S
H1633 C1646 0.961 . S
H1634 C1646 0.959 . S
H1635 C1649 0.929 . S
H1636 C1650 0.931 . S
H1637 C1652 0.930 . S
C1638 H1626 0.930 . S
C1638 C1639 1.399 . S
C1638 C1643 1.399 . S
C1639 C1638 1.399 . S
C1639 C1640 1.376 . S
C1640 H1627 0.930 . S
C1640 C1639 1.376 . S
C1640 C1641 1.388 . S
C1641 H1628 0.930 . S
C1641 C1640 1.388 . S
C1641 C1642 1.390 . S
C1642 C1641 1.390 . S
C1642 C1643 1.394 . S
C1642 C1648 1.465 . S
C1643 C1638 1.399 . S
C1643 C1642 1.394 . S
C1643 C1644 1.516 . S
C1644 C1643 1.516 . S
C1644 C1645 1.502 . S
C1644 C1646 1.561 . S
C1644 C1647 1.526 . S
C1645 H1629 0.959 . S
C1645 H1630 0.959 . S
C1645 H1631 0.961 . S
C1645 C1644 1.502 . S
C1646 H1632 0.960 . S
C1646 H1633 0.961 . S
C1646 H1634 0.959 . S
C1646 C1644 1.561 . S
C1647 C1644 1.526 . S
C1647 C1648 1.396 . S
C1647 C1652 1.390 . S
C1648 C1642 1.465 . S
C1648 C1647 1.396 . S
C1648 C1649 1.399 . S
C1649 H1635 0.929 . S
C1649 C1648 1.399 . S
C1649 C1650 1.385 . S
C1650 H1636 0.931 . S
C1650 C1649 1.385 . S
C1650 C1651 1.389 . S
C1651 C1650 1.389 . S
C1651 C1652 1.387 . S
C1652 H1637 0.930 . S
C1652 C1647 1.390 . S
C1652 C1651 1.387 . S
H1653 C1665 0.930 . S
H1654 C1667 0.930 . S
H1655 C1668 0.930 . S
H1656 C1672 0.959 . S
H1657 C1672 0.959 . S
H1658 C1672 0.961 . S
H1659 C1673 0.960 . S
H1660 C1673 0.961 . S
H1661 C1673 0.959 . S
H1662 C1676 0.929 . S
H1663 C1677 0.931 . S
H1664 C1679 0.930 . S
C1665 H1653 0.930 . S
C1665 C1666 1.399 . S
C1665 C1670 1.399 . S
C1666 C1665 1.399 . S
C1666 C1667 1.376 . S
C1667 H1654 0.930 . S
C1667 C1666 1.376 . S
C1667 C1668 1.388 . S
C1668 H1655 0.930 . S
C1668 C1667 1.388 . S
C1668 C1669 1.390 . S
C1669 C1668 1.390 . S
C1669 C1670 1.394 . S
C1669 C1675 1.465 . S
C1670 C1665 1.399 . S
C1670 C1669 1.394 . S
C1670 C1671 1.516 . S
C1671 C1670 1.516 . S
C1671 C1672 1.502 . S
C1671 C1673 1.561 . S
C1671 C1674 1.526 . S
C1672 H1656 0.959 . S
C1672 H1657 0.959 . S
C1672 H1658 0.961 . S
C1672 C1671 1.502 . S
C1673 H1659 0.960 . S
C1673 H1660 0.961 . S
C1673 H1661 0.959 . S
C1673 C1671 1.561 . S
C1674 C1671 1.526 . S
C1674 C1675 1.396 . S
C1674 C1679 1.390 . S
C1675 C1669 1.465 . S
C1675 C1674 1.396 . S
C1675 C1676 1.399 . S
C1676 H1662 0.929 . S
C1676 C1675 1.399 . S
C1676 C1677 1.385 . S
C1677 H1663 0.931 . S
C1677 C1676 1.385 . S
C1677 C1678 1.389 . S
C1678 C1677 1.389 . S
C1678 C1679 1.387 . S
C1679 H1664 0.930 . S
C1679 C1674 1.390 . S
C1679 C1678 1.387 . S
H1680 C1692 0.930 . S
H1681 C1694 0.930 . S
H1682 C1695 0.930 . S
H1683 C1699 0.959 . S
H1684 C1699 0.959 . S
H1685 C1699 0.961 . S
H1686 C1700 0.960 1_565 S
H1687 C1700 0.961 1_565 S
H1688 C1700 0.959 . S
H1689 C1703 0.929 . S
H1690 C1704 0.931 . S
H1691 C1706 0.930 . S
C1692 H1680 0.930 . S
C1692 C1693 1.399 . S
C1692 C1697 1.399 . S
C1693 C1692 1.399 . S
C1693 C1694 1.376 . S
C1694 H1681 0.930 . S
C1694 C1693 1.376 . S
C1694 C1695 1.388 . S
C1695 H1682 0.930 . S
C1695 C1694 1.388 . S
C1695 C1696 1.390 . S
C1696 C1695 1.390 . S
C1696 C1697 1.394 . S
C1696 C1702 1.465 . S
C1697 C1692 1.399 . S
C1697 C1696 1.394 . S
C1697 C1698 1.516 . S
C1698 C1697 1.516 . S
C1698 C1699 1.502 . S
C1698 C1700 1.561 . S
C1698 C1701 1.526 . S
C1699 H1683 0.959 . S
C1699 H1684 0.959 . S
C1699 H1685 0.961 . S
C1699 C1698 1.502 . S
C1700 H1686 0.960 1_545 S
C1700 H1687 0.961 1_545 S
C1700 H1688 0.959 . S
C1700 C1698 1.561 . S
C1701 C1698 1.526 . S
C1701 C1702 1.396 . S
C1701 C1706 1.390 . S
C1702 C1696 1.465 . S
C1702 C1701 1.396 . S
C1702 C1703 1.399 . S
C1703 H1689 0.929 . S
C1703 C1702 1.399 . S
C1703 C1704 1.385 . S
C1704 H1690 0.931 . S
C1704 C1703 1.385 . S
C1704 C1705 1.389 . S
C1705 C1704 1.389 . S
C1705 C1706 1.387 . S
C1706 H1691 0.930 . S
C1706 C1701 1.390 . S
C1706 C1705 1.387 . S
H1707 C1719 0.930 . S
H1708 C1721 0.930 . S
H1709 C1722 0.930 . S
H1710 C1726 0.959 . S
H1711 C1726 0.959 . S
H1712 C1726 0.961 . S
H1713 C1727 0.960 . S
H1714 C1727 0.961 . S
H1715 C1727 0.959 . S
H1716 C1730 0.929 . S
H1717 C1731 0.931 . S
H1718 C1733 0.930 . S
C1719 H1707 0.930 . S
C1719 C1720 1.399 . S
C1719 C1724 1.399 . S
C1720 C1719 1.399 . S
C1720 C1721 1.376 . S
C1721 H1708 0.930 . S
C1721 C1720 1.376 . S
C1721 C1722 1.388 . S
C1722 H1709 0.930 . S
C1722 C1721 1.388 . S
C1722 C1723 1.390 . S
C1723 C1722 1.390 . S
C1723 C1724 1.394 . S
C1723 C1729 1.465 . S
C1724 C1719 1.399 . S
C1724 C1723 1.394 . S
C1724 C1725 1.516 . S
C1725 C1724 1.516 . S
C1725 C1726 1.502 . S
C1725 C1727 1.561 . S
C1725 C1728 1.526 . S
C1726 H1710 0.959 . S
C1726 H1711 0.959 . S
C1726 H1712 0.961 . S
C1726 C1725 1.502 . S
C1727 H1713 0.960 . S
C1727 H1714 0.961 . S
C1727 H1715 0.959 . S
C1727 C1725 1.561 . S
C1728 C1725 1.526 . S
C1728 C1729 1.396 . S
C1728 C1733 1.390 . S
C1729 C1723 1.465 . S
C1729 C1728 1.396 . S
C1729 C1730 1.399 . S
C1730 H1716 0.929 . S
C1730 C1729 1.399 . S
C1730 C1731 1.385 . S
C1731 H1717 0.931 . S
C1731 C1730 1.385 . S
C1731 C1732 1.389 . S
C1732 C1731 1.389 . S
C1732 C1733 1.387 . S
C1733 H1718 0.930 . S
C1733 C1728 1.390 . S
C1733 C1732 1.387 . S
H1734 C1746 0.930 . S
H1735 C1748 0.930 . S
H1736 C1749 0.930 . S
H1737 C1753 0.959 . S
H1738 C1753 0.959 . S
H1739 C1753 0.961 . S
H1740 C1754 0.960 . S
H1741 C1754 0.961 . S
H1742 C1754 0.959 . S
H1743 C1757 0.929 . S
H1744 C1758 0.931 . S
H1745 C1760 0.906 1_565 S
C1746 H1734 0.930 . S
C1746 C1747 1.399 1_565 S
C1746 C1751 1.392 1_565 S
C1747 C1746 1.399 1_545 S
C1747 C1748 1.376 . S
C1748 H1735 0.930 . S
C1748 C1747 1.376 . S
C1748 C1749 1.388 . S
C1749 H1736 0.930 . S
C1749 C1748 1.388 . S
C1749 C1750 1.390 . S
C1750 C1749 1.390 . S
C1750 C1751 1.426 . S
C1750 C1756 1.465 . S
C1751 C1746 1.392 1_545 S
C1751 C1750 1.426 . S
C1751 C1752 1.496 1_545 S
C1752 C1751 1.496 1_565 S
C1752 C1753 1.502 . S
C1752 C1754 1.561 . S
C1752 C1755 1.526 1_565 S
C1753 H1737 0.959 . S
C1753 H1738 0.959 . S
C1753 H1739 0.961 . S
C1753 C1752 1.502 . S
C1754 H1740 0.960 . S
C1754 H1741 0.961 . S
C1754 H1742 0.959 . S
C1754 C1752 1.561 . S
C1755 C1752 1.526 1_545 S
C1755 C1756 1.396 . S
C1755 C1760 1.393 . S
C1756 C1750 1.465 . S
C1756 C1755 1.396 . S
C1756 C1757 1.399 . S
C1757 H1743 0.929 . S
C1757 C1756 1.399 . S
C1757 C1758 1.385 . S
C1758 H1744 0.931 . S
C1758 C1757 1.385 . S
C1758 C1759 1.389 . S
C1759 C1758 1.389 . S
C1759 C1760 1.407 . S
C1760 H1745 0.906 1_545 S
C1760 C1755 1.393 . S
C1760 C1759 1.407 . S
H1761 C1773 0.930 . S
H1762 C1775 0.930 . S
H1763 C1776 0.930 . S
H1764 C1780 0.959 . S
H1765 C1780 0.959 . S
H1766 C1780 0.961 . S
H1767 C1781 0.960 . S
H1768 C1781 0.961 . S
H1769 C1781 0.959 . S
H1770 C1784 0.929 . S
H1771 C1785 0.931 . S
H1772 C1787 0.930 . S
C1773 H1761 0.930 . S
C1773 C1774 1.399 . S
C1773 C1778 1.399 . S
C1774 C1773 1.399 . S
C1774 C1775 1.376 . S
C1775 H1762 0.930 . S
C1775 C1774 1.376 . S
C1775 C1776 1.388 . S
C1776 H1763 0.930 . S
C1776 C1775 1.388 . S
C1776 C1777 1.390 . S
C1777 C1776 1.390 . S
C1777 C1778 1.394 . S
C1777 C1783 1.465 . S
C1778 C1773 1.399 . S
C1778 C1777 1.394 . S
C1778 C1779 1.516 . S
C1779 C1778 1.516 . S
C1779 C1780 1.502 . S
C1779 C1781 1.561 . S
C1779 C1782 1.526 . S
C1780 H1764 0.959 . S
C1780 H1765 0.959 . S
C1780 H1766 0.961 . S
C1780 C1779 1.502 . S
C1781 H1767 0.960 . S
C1781 H1768 0.961 . S
C1781 H1769 0.959 . S
C1781 C1779 1.561 . S
C1782 C1779 1.526 . S
C1782 C1783 1.396 . S
C1782 C1787 1.390 . S
C1783 C1777 1.465 . S
C1783 C1782 1.396 . S
C1783 C1784 1.399 . S
C1784 H1770 0.929 . S
C1784 C1783 1.399 . S
C1784 C1785 1.385 . S
C1785 H1771 0.931 . S
C1785 C1784 1.385 . S
C1785 C1786 1.389 . S
C1786 C1785 1.389 . S
C1786 C1787 1.387 . S
C1787 H1772 0.930 . S
C1787 C1782 1.390 . S
C1787 C1786 1.387 . S
H1788 C1800 0.930 . S
H1789 C1802 0.930 . S
H1790 C1803 0.930 1_565 S
H1791 C1807 0.959 . S
H1792 C1807 0.959 . S
H1793 C1807 0.961 . S
H1794 C1808 0.960 . S
H1795 C1808 0.961 . S
H1796 C1808 0.959 . S
H1797 C1811 0.903 1_565 S
H1798 C1812 0.924 1_565 S
H1799 C1814 0.930 . S
C1800 H1788 0.930 . S
C1800 C1801 1.399 . S
C1800 C1805 1.399 . S
C1801 C1800 1.399 . S
C1801 C1802 1.376 . S
C1802 H1789 0.930 . S
C1802 C1801 1.376 . S
C1802 C1803 1.388 . S
C1803 H1790 0.930 1_545 S
C1803 C1802 1.388 . S
C1803 C1804 1.390 . S
C1804 C1803 1.390 . S
C1804 C1805 1.394 . S
C1804 C1810 1.465 . S
C1805 C1800 1.399 . S
C1805 C1804 1.394 . S
C1805 C1806 1.516 . S
C1806 C1805 1.516 . S
C1806 C1807 1.502 . S
C1806 C1808 1.561 . S
C1806 C1809 1.526 . S
C1807 H1791 0.959 . S
C1807 H1792 0.959 . S
C1807 H1793 0.961 . S
C1807 C1806 1.502 . S
C1808 H1794 0.960 . S
C1808 H1795 0.961 . S
C1808 H1796 0.959 . S
C1808 C1806 1.561 . S
C1809 C1806 1.526 . S
C1809 C1810 1.396 . S
C1809 C1814 1.390 . S
C1810 C1804 1.465 . S
C1810 C1809 1.396 . S
C1810 C1811 1.426 . S
C1811 H1797 0.903 1_545 S
C1811 C1810 1.426 . S
C1811 C1812 1.385 . S
C1812 H1798 0.924 1_545 S
C1812 C1811 1.385 . S
C1812 C1813 1.396 . S
C1813 C1812 1.396 . S
C1813 C1814 1.387 . S
C1814 H1799 0.930 . S
C1814 C1809 1.390 . S
C1814 C1813 1.387 . S
H1815 C1827 0.930 . S
H1816 C1829 0.930 . S
H1817 C1830 0.930 . S
H1818 C1834 0.959 . S
H1819 C1834 0.959 . S
H1820 C1834 0.961 . S
H1821 C1835 0.960 . S
H1822 C1835 0.961 . S
H1823 C1835 0.959 . S
H1824 C1838 0.929 . S
H1825 C1839 0.931 . S
H1826 C1841 0.930 . S
C1827 H1815 0.930 . S
C1827 C1828 1.399 . S
C1827 C1832 1.399 . S
C1828 C1827 1.399 . S
C1828 C1829 1.376 . S
C1829 H1816 0.930 . S
C1829 C1828 1.376 . S
C1829 C1830 1.388 . S
C1830 H1817 0.930 . S
C1830 C1829 1.388 . S
C1830 C1831 1.390 . S
C1831 C1830 1.390 . S
C1831 C1832 1.394 . S
C1831 C1837 1.465 . S
C1832 C1827 1.399 . S
C1832 C1831 1.394 . S
C1832 C1833 1.516 . S
C1833 C1832 1.516 . S
C1833 C1834 1.502 . S
C1833 C1835 1.561 . S
C1833 C1836 1.526 . S
C1834 H1818 0.959 . S
C1834 H1819 0.959 . S
C1834 H1820 0.961 . S
C1834 C1833 1.502 . S
C1835 H1821 0.960 . S
C1835 H1822 0.961 . S
C1835 H1823 0.959 . S
C1835 C1833 1.561 . S
C1836 C1833 1.526 . S
C1836 C1837 1.396 . S
C1836 C1841 1.390 . S
C1837 C1831 1.465 . S
C1837 C1836 1.396 . S
C1837 C1838 1.399 . S
C1838 H1824 0.929 . S
C1838 C1837 1.399 . S
C1838 C1839 1.385 . S
C1839 H1825 0.931 . S
C1839 C1838 1.385 . S
C1839 C1840 1.389 . S
C1840 C1839 1.389 . S
C1840 C1841 1.387 . S
C1841 H1826 0.930 . S
C1841 C1836 1.390 . S
C1841 C1840 1.387 . S
H1842 C1854 0.930 . S
H1843 C1856 0.930 . S
H1844 C1857 0.930 . S
H1845 C1861 0.959 . S
H1846 C1861 0.959 . S
H1847 C1861 0.961 . S
H1848 C1862 0.960 . S
H1849 C1862 0.961 . S
H1850 C1862 0.959 . S
H1851 C1865 0.929 . S
H1852 C1866 0.931 . S
H1853 C1868 0.930 . S
C1854 H1842 0.930 . S
C1854 C1855 1.399 . S
C1854 C1859 1.399 . S
C1855 C1854 1.399 . S
C1855 C1856 1.376 . S
C1856 H1843 0.930 . S
C1856 C1855 1.376 . S
C1856 C1857 1.388 . S
C1857 H1844 0.930 . S
C1857 C1856 1.388 . S
C1857 C1858 1.390 . S
C1858 C1857 1.390 . S
C1858 C1859 1.394 . S
C1858 C1864 1.465 . S
C1859 C1854 1.399 . S
C1859 C1858 1.394 . S
C1859 C1860 1.516 . S
C1860 C1859 1.516 . S
C1860 C1861 1.502 . S
C1860 C1862 1.561 1_545 S
C1860 C1863 1.526 . S
C1861 H1845 0.959 . S
C1861 H1846 0.959 . S
C1861 H1847 0.961 . S
C1861 C1860 1.502 . S
C1862 H1848 0.960 . S
C1862 H1849 0.961 . S
C1862 H1850 0.959 . S
C1862 C1860 1.561 1_565 S
C1863 C1860 1.526 . S
C1863 C1864 1.396 . S
C1863 C1868 1.390 . S
C1864 C1858 1.465 . S
C1864 C1863 1.396 . S
C1864 C1865 1.399 . S
C1865 H1851 0.929 . S
C1865 C1864 1.399 . S
C1865 C1866 1.385 . S
C1866 H1852 0.931 . S
C1866 C1865 1.385 . S
C1866 C1867 1.389 . S
C1867 C1866 1.389 . S
C1867 C1868 1.387 . S
C1868 H1853 0.930 . S
C1868 C1863 1.390 . S
C1868 C1867 1.387 . S
H1869 C1881 0.930 . S
H1870 C1883 0.930 . S
H1871 C1884 0.930 . S
H1872 C1888 0.959 . S
H1873 C1888 0.959 . S
H1874 C1888 0.961 . S
H1875 C1889 0.960 . S
H1876 C1889 0.961 . S
H1877 C1889 0.959 . S
H1878 C1892 0.929 . S
H1879 C1893 0.931 . S
H1880 C1895 0.930 . S
C1881 H1869 0.930 . S
C1881 C1882 1.399 . S
C1881 C1886 1.399 . S
C1882 C1881 1.399 . S
C1882 C1883 1.376 . S
C1883 H1870 0.930 . S
C1883 C1882 1.376 . S
C1883 C1884 1.388 . S
C1884 H1871 0.930 . S
C1884 C1883 1.388 . S
C1884 C1885 1.390 . S
C1885 C1884 1.390 . S
C1885 C1886 1.394 . S
C1885 C1891 1.465 . S
C1886 C1881 1.399 . S
C1886 C1885 1.394 . S
C1886 C1887 1.516 . S
C1887 C1886 1.516 . S
C1887 C1888 1.502 . S
C1887 C1889 1.561 . S
C1887 C1890 1.526 . S
C1888 H1872 0.959 . S
C1888 H1873 0.959 . S
C1888 H1874 0.961 . S
C1888 C1887 1.502 . S
C1889 H1875 0.960 . S
C1889 H1876 0.961 . S
C1889 H1877 0.959 . S
C1889 C1887 1.561 . S
C1890 C1887 1.526 . S
C1890 C1891 1.396 . S
C1890 C1895 1.390 . S
C1891 C1885 1.465 . S
C1891 C1890 1.396 . S
C1891 C1892 1.399 . S
C1892 H1878 0.929 . S
C1892 C1891 1.399 . S
C1892 C1893 1.385 . S
C1893 H1879 0.931 . S
C1893 C1892 1.385 . S
C1893 C1894 1.389 . S
C1894 C1893 1.389 . S
C1894 C1895 1.387 . S
C1895 H1880 0.930 . S
C1895 C1890 1.390 . S
C1895 C1894 1.387 . S
H1896 C1908 0.930 . S
H1897 C1910 0.930 1_556 S
H1898 C1911 0.930 1_556 S
H1899 C1915 0.959 . S
H1900 C1915 0.959 . S
H1901 C1915 0.961 . S
H1902 C1916 0.960 . S
H1903 C1916 0.961 . S
H1904 C1916 0.959 . S
H1905 C1919 0.903 1_556 S
H1906 C1920 0.931 . S
H1907 C1922 0.930 . S
C1908 H1896 0.930 . S
C1908 C1909 1.399 . S
C1908 C1913 1.399 . S
C1909 C1908 1.399 . S
C1909 C1910 1.376 . S
C1910 H1897 0.930 1_554 S
C1910 C1909 1.376 . S
C1910 C1911 1.388 . S
C1911 H1898 0.930 1_554 S
C1911 C1910 1.388 . S
C1911 C1912 1.390 . S
C1912 C1911 1.390 . S
C1912 C1913 1.394 . S
C1912 C1918 1.465 . S
C1913 C1908 1.399 . S
C1913 C1912 1.394 . S
C1913 C1914 1.516 . S
C1914 C1913 1.516 . S
C1914 C1915 1.502 1_565 S
C1914 C1916 1.561 . S
C1914 C1917 1.526 . S
C1915 H1899 0.959 . S
C1915 H1900 0.959 . S
C1915 H1901 0.961 . S
C1915 C1914 1.502 1_545 S
C1916 H1902 0.960 . S
C1916 H1903 0.961 . S
C1916 H1904 0.959 . S
C1916 C1914 1.561 . S
C1917 C1914 1.526 . S
C1917 C1918 1.396 . S
C1917 C1922 1.390 1_565 S
C1918 C1912 1.465 . S
C1918 C1917 1.396 . S
C1918 C1919 1.399 . S
C1919 H1905 0.903 1_554 S
C1919 C1918 1.399 . S
C1919 C1920 1.385 . S
C1920 H1906 0.931 . S
C1920 C1919 1.385 . S
C1920 C1921 1.389 1_565 S
C1921 C1920 1.389 1_545 S
C1921 C1922 1.387 . S
C1922 H1907 0.930 . S
C1922 C1917 1.390 1_545 S
C1922 C1921 1.387 . S
H1923 C1935 0.930 . S
H1924 C1937 0.930 . S
H1925 C1938 0.930 . S
H1926 C1942 0.959 . S
H1927 C1942 0.959 . S
H1928 C1942 0.961 . S
H1929 C1943 0.960 . S
H1930 C1943 0.961 . S
H1931 C1943 0.959 . S
H1932 C1946 0.929 . S
H1933 C1947 0.931 . S
H1934 C1949 0.930 . S
C1935 H1923 0.930 . S
C1935 C1936 1.399 1_556 S
C1935 C1940 1.399 . S
C1936 C1935 1.399 1_554 S
C1936 C1937 1.376 . S
C1937 H1924 0.930 . S
C1937 C1936 1.376 . S
C1937 C1938 1.388 . S
C1938 H1925 0.930 . S
C1938 C1937 1.388 . S
C1938 C1939 1.390 . S
C1939 C1938 1.390 . S
C1939 C1940 1.394 1_554 S
C1939 C1945 1.465 . S
C1940 C1935 1.399 . S
C1940 C1939 1.394 1_556 S
C1940 C1941 1.516 . S
C1941 C1940 1.516 . S
C1941 C1942 1.502 . S
C1941 C1943 1.561 . S
C1941 C1944 1.526 . S
C1942 H1926 0.959 . S
C1942 H1927 0.959 . S
C1942 H1928 0.961 . S
C1942 C1941 1.502 . S
C1943 H1929 0.960 . S
C1943 H1930 0.961 . S
C1943 H1931 0.959 . S
C1943 C1941 1.561 . S
C1944 C1941 1.526 . S
C1944 C1945 1.396 1_556 S
C1944 C1949 1.390 . S
C1945 C1939 1.465 . S
C1945 C1944 1.396 1_554 S
C1945 C1946 1.399 . S
C1946 H1932 0.929 . S
C1946 C1945 1.399 . S
C1946 C1947 1.385 . S
C1947 H1933 0.931 . S
C1947 C1946 1.385 . S
C1947 C1948 1.389 . S
C1948 C1947 1.389 . S
C1948 C1949 1.387 1_554 S
C1949 H1934 0.930 . S
C1949 C1944 1.390 . S
C1949 C1948 1.387 1_556 S
H1950 C1962 0.930 . S
H1951 C1964 0.930 . S
H1952 C1965 0.930 . S
H1953 C1969 0.959 . S
H1954 C1969 0.959 . S
H1955 C1969 0.961 . S
H1956 C1970 0.960 . S
H1957 C1970 0.961 . S
H1958 C1970 0.959 . S
H1959 C1973 0.929 . S
H1960 C1974 0.931 . S
H1961 C1976 0.930 . S
C1962 H1950 0.930 . S
C1962 C1963 1.399 . S
C1962 C1967 1.399 . S
C1963 C1962 1.399 . S
C1963 C1964 1.376 . S
C1964 H1951 0.930 . S
C1964 C1963 1.376 . S
C1964 C1965 1.388 . S
C1965 H1952 0.930 . S
C1965 C1964 1.388 . S
C1965 C1966 1.390 . S
C1966 C1965 1.390 . S
C1966 C1967 1.394 . S
C1966 C1972 1.465 . S
C1967 C1962 1.399 . S
C1967 C1966 1.394 . S
C1967 C1968 1.516 . S
C1968 C1967 1.516 . S
C1968 C1969 1.502 . S
C1968 C1970 1.561 . S
C1968 C1971 1.526 . S
C1969 H1953 0.959 . S
C1969 H1954 0.959 . S
C1969 H1955 0.961 . S
C1969 C1968 1.502 . S
C1970 H1956 0.960 . S
C1970 H1957 0.961 . S
C1970 H1958 0.959 . S
C1970 C1968 1.561 . S
C1971 C1968 1.526 . S
C1971 C1972 1.396 . S
C1971 C1976 1.390 . S
C1972 C1966 1.465 . S
C1972 C1971 1.396 . S
C1972 C1973 1.399 . S
C1973 H1959 0.929 . S
C1973 C1972 1.399 . S
C1973 C1974 1.385 . S
C1974 H1960 0.931 . S
C1974 C1973 1.385 . S
C1974 C1975 1.389 . S
C1975 C1974 1.389 . S
C1975 C1976 1.387 . S
C1976 H1961 0.930 . S
C1976 C1971 1.390 . S
C1976 C1975 1.387 . S
H1977 C1989 0.930 . S
H1978 C1991 0.930 . S
H1979 C1992 0.930 . S
H1980 C1996 0.959 . S
H1981 C1996 0.959 . S
H1982 C1996 0.961 . S
H1983 C1997 0.960 . S
H1984 C1997 0.961 . S
H1985 C1997 0.959 . S
H1986 C2000 0.929 . S
H1987 C2001 0.931 . S
H1988 C2003 0.930 . S
C1989 H1977 0.930 . S
C1989 C1990 1.399 . S
C1989 C1994 1.399 . S
C1990 C1989 1.399 . S
C1990 C1991 1.376 . S
C1991 H1978 0.930 . S
C1991 C1990 1.376 . S
C1991 C1992 1.388 . S
C1992 H1979 0.930 . S
C1992 C1991 1.388 . S
C1992 C1993 1.390 . S
C1993 C1992 1.390 . S
C1993 C1994 1.394 . S
C1993 C1999 1.465 . S
C1994 C1989 1.399 . S
C1994 C1993 1.394 . S
C1994 C1995 1.516 . S
C1995 C1994 1.516 . S
C1995 C1996 1.502 . S
C1995 C1997 1.561 . S
C1995 C1998 1.526 . S
C1996 H1980 0.959 . S
C1996 H1981 0.959 . S
C1996 H1982 0.961 . S
C1996 C1995 1.502 . S
C1997 H1983 0.960 . S
C1997 H1984 0.961 . S
C1997 H1985 0.959 . S
C1997 C1995 1.561 . S
C1998 C1995 1.526 . S
C1998 C1999 1.396 . S
C1998 C2003 1.390 . S
C1999 C1993 1.465 . S
C1999 C1998 1.396 . S
C1999 C2000 1.399 . S
C2000 H1986 0.929 . S
C2000 C1999 1.399 . S
C2000 C2001 1.385 . S
C2001 H1987 0.931 . S
C2001 C2000 1.385 . S
C2001 C2002 1.389 . S
C2002 C2001 1.389 . S
C2002 C2003 1.387 . S
C2003 H1988 0.930 . S
C2003 C1998 1.390 . S
C2003 C2002 1.387 . S
H2004 C2016 0.930 . S
H2005 C2018 0.930 . S
H2006 C2019 0.930 . S
H2007 C2023 0.959 . S
H2008 C2023 0.959 . S
H2009 C2023 0.961 . S
H2010 C2024 0.960 . S
H2011 C2024 0.961 . S
H2012 C2024 0.959 . S
H2013 C2027 0.929 . S
H2014 C2028 0.931 . S
H2015 C2030 0.930 . S
C2016 H2004 0.930 . S
C2016 C2017 1.399 . S
C2016 C2021 1.399 . S
C2017 C2016 1.399 . S
C2017 C2018 1.376 . S
C2018 H2005 0.930 . S
C2018 C2017 1.376 . S
C2018 C2019 1.388 . S
C2019 H2006 0.930 . S
C2019 C2018 1.388 . S
C2019 C2020 1.390 . S
C2020 C2019 1.390 . S
C2020 C2021 1.394 . S
C2020 C2026 1.465 . S
C2021 C2016 1.399 . S
C2021 C2020 1.394 . S
C2021 C2022 1.516 . S
C2022 C2021 1.516 . S
C2022 C2023 1.502 . S
C2022 C2024 1.561 . S
C2022 C2025 1.526 . S
C2023 H2007 0.959 . S
C2023 H2008 0.959 . S
C2023 H2009 0.961 . S
C2023 C2022 1.502 . S
C2024 H2010 0.960 . S
C2024 H2011 0.961 . S
C2024 H2012 0.959 . S
C2024 C2022 1.561 . S
C2025 C2022 1.526 . S
C2025 C2026 1.396 . S
C2025 C2030 1.390 . S
C2026 C2020 1.465 . S
C2026 C2025 1.396 . S
C2026 C2027 1.399 . S
C2027 H2013 0.929 . S
C2027 C2026 1.399 . S
C2027 C2028 1.385 . S
C2028 H2014 0.931 . S
C2028 C2027 1.385 . S
C2028 C2029 1.389 . S
C2029 C2028 1.389 . S
C2029 C2030 1.387 . S
C2030 H2015 0.930 . S
C2030 C2025 1.390 . S
C2030 C2029 1.387 . S
H2031 C2043 0.930 . S
H2032 C2045 0.930 . S
H2033 C2046 0.930 . S
H2034 C2050 0.959 . S
H2035 C2050 0.959 . S
H2036 C2050 0.961 . S
H2037 C2051 0.960 . S
H2038 C2051 0.961 . S
H2039 C2051 0.959 . S
H2040 C2054 0.929 . S
H2041 C2055 0.931 . S
H2042 C2057 0.930 . S
C2043 H2031 0.930 . S
C2043 C2044 1.399 . S
C2043 C2048 1.399 . S
C2044 C2043 1.399 . S
C2044 C2045 1.376 . S
C2045 H2032 0.930 . S
C2045 C2044 1.376 . S
C2045 C2046 1.388 . S
C2046 H2033 0.930 . S
C2046 C2045 1.388 . S
C2046 C2047 1.390 . S
C2047 C2046 1.390 . S
C2047 C2048 1.394 . S
C2047 C2053 1.465 . S
C2048 C2043 1.399 . S
C2048 C2047 1.394 . S
C2048 C2049 1.516 . S
C2049 C2048 1.516 . S
C2049 C2050 1.502 . S
C2049 C2051 1.561 . S
C2049 C2052 1.526 . S
C2050 H2034 0.959 . S
C2050 H2035 0.959 . S
C2050 H2036 0.961 . S
C2050 C2049 1.502 . S
C2051 H2037 0.960 . S
C2051 H2038 0.961 . S
C2051 H2039 0.959 . S
C2051 C2049 1.561 . S
C2052 C2049 1.526 . S
C2052 C2053 1.396 . S
C2052 C2057 1.390 . S
C2053 C2047 1.465 . S
C2053 C2052 1.396 . S
C2053 C2054 1.399 . S
C2054 H2040 0.929 . S
C2054 C2053 1.399 . S
C2054 C2055 1.385 . S
C2055 H2041 0.931 . S
C2055 C2054 1.385 . S
C2055 C2056 1.389 . S
C2056 C2055 1.389 . S
C2056 C2057 1.387 . S
C2057 H2042 0.930 . S
C2057 C2052 1.390 . S
C2057 C2056 1.387 . S
H2058 C2070 0.930 . S
H2059 C2072 0.930 . S
H2060 C2073 0.930 . S
H2061 C2077 0.959 . S
H2062 C2077 0.959 . S
H2063 C2077 0.961 . S
H2064 C2078 0.960 . S
H2065 C2078 0.961 . S
H2066 C2078 0.959 . S
H2067 C2081 0.929 . S
H2068 C2082 0.931 . S
H2069 C2084 0.930 . S
C2070 H2058 0.930 . S
C2070 C2071 1.399 . S
C2070 C2075 1.399 . S
C2071 C2070 1.399 . S
C2071 C2072 1.376 . S
C2072 H2059 0.930 . S
C2072 C2071 1.376 . S
C2072 C2073 1.388 . S
C2073 H2060 0.930 . S
C2073 C2072 1.388 . S
C2073 C2074 1.390 . S
C2074 C2073 1.390 . S
C2074 C2075 1.394 . S
C2074 C2080 1.465 . S
C2075 C2070 1.399 . S
C2075 C2074 1.394 . S
C2075 C2076 1.516 . S
C2076 C2075 1.516 . S
C2076 C2077 1.502 . S
C2076 C2078 1.561 . S
C2076 C2079 1.526 . S
C2077 H2061 0.959 . S
C2077 H2062 0.959 . S
C2077 H2063 0.961 . S
C2077 C2076 1.502 . S
C2078 H2064 0.960 . S
C2078 H2065 0.961 . S
C2078 H2066 0.959 . S
C2078 C2076 1.561 . S
C2079 C2076 1.526 . S
C2079 C2080 1.396 . S
C2079 C2084 1.390 . S
C2080 C2074 1.465 . S
C2080 C2079 1.396 . S
C2080 C2081 1.399 . S
C2081 H2067 0.929 . S
C2081 C2080 1.399 . S
C2081 C2082 1.385 . S
C2082 H2068 0.931 . S
C2082 C2081 1.385 . S
C2082 C2083 1.389 . S
C2083 C2082 1.389 . S
C2083 C2084 1.387 . S
C2084 H2069 0.930 . S
C2084 C2079 1.390 . S
C2084 C2083 1.387 . S
H2085 C2097 0.930 . S
H2086 C2099 0.930 . S
H2087 C2100 0.930 . S
H2088 C2104 0.959 . S
H2089 C2104 0.959 . S
H2090 C2104 0.961 . S
H2091 C2105 0.960 . S
H2092 C2105 0.961 . S
H2093 C2105 0.959 . S
H2094 C2108 0.929 . S
H2095 C2109 0.931 . S
H2096 C2111 0.930 . S
C2097 H2085 0.930 . S
C2097 C2098 1.399 . S
C2097 C2102 1.399 . S
C2098 C2097 1.399 . S
C2098 C2099 1.376 . S
C2099 H2086 0.930 . S
C2099 C2098 1.376 . S
C2099 C2100 1.388 . S
C2100 H2087 0.930 . S
C2100 C2099 1.388 . S
C2100 C2101 1.390 . S
C2101 C2100 1.390 . S
C2101 C2102 1.394 . S
C2101 C2107 1.465 . S
C2102 C2097 1.399 . S
C2102 C2101 1.394 . S
C2102 C2103 1.516 . S
C2103 C2102 1.516 . S
C2103 C2104 1.502 . S
C2103 C2105 1.561 . S
C2103 C2106 1.526 . S
C2104 H2088 0.959 . S
C2104 H2089 0.959 . S
C2104 H2090 0.961 . S
C2104 C2103 1.502 . S
C2105 H2091 0.960 . S
C2105 H2092 0.961 . S
C2105 H2093 0.959 . S
C2105 C2103 1.561 . S
C2106 C2103 1.526 . S
C2106 C2107 1.396 . S
C2106 C2111 1.390 . S
C2107 C2101 1.465 . S
C2107 C2106 1.396 . S
C2107 C2108 1.399 . S
C2108 H2094 0.929 . S
C2108 C2107 1.399 . S
C2108 C2109 1.385 . S
C2109 H2095 0.931 . S
C2109 C2108 1.385 . S
C2109 C2110 1.389 . S
C2110 C2109 1.389 . S
C2110 C2111 1.387 . S
C2111 H2096 0.930 . S
C2111 C2106 1.390 . S
C2111 C2110 1.387 . S
H2112 C2124 0.930 . S
H2113 C2126 0.930 . S
H2114 C2127 0.930 . S
H2115 C2131 0.959 . S
H2116 C2131 0.959 . S
H2117 C2131 0.961 . S
H2118 C2132 0.960 . S
H2119 C2132 0.961 . S
H2120 C2132 0.959 . S
H2121 C2135 0.929 . S
H2122 C2136 0.931 . S
H2123 C2138 0.930 . S
C2124 H2112 0.930 . S
C2124 C2125 1.399 . S
C2124 C2129 1.399 . S
C2125 C2124 1.399 . S
C2125 C2126 1.376 . S
C2126 H2113 0.930 . S
C2126 C2125 1.376 . S
C2126 C2127 1.388 . S
C2127 H2114 0.930 . S
C2127 C2126 1.388 . S
C2127 C2128 1.390 . S
C2128 C2127 1.390 . S
C2128 C2129 1.394 . S
C2128 C2134 1.465 . S
C2129 C2124 1.399 . S
C2129 C2128 1.394 . S
C2129 C2130 1.516 . S
C2130 C2129 1.516 . S
C2130 C2131 1.502 . S
C2130 C2132 1.561 . S
C2130 C2133 1.526 . S
C2131 H2115 0.959 . S
C2131 H2116 0.959 . S
C2131 H2117 0.961 . S
C2131 C2130 1.502 . S
C2132 H2118 0.960 . S
C2132 H2119 0.961 . S
C2132 H2120 0.959 . S
C2132 C2130 1.561 . S
C2133 C2130 1.526 . S
C2133 C2134 1.396 . S
C2133 C2138 1.390 . S
C2134 C2128 1.465 . S
C2134 C2133 1.396 . S
C2134 C2135 1.399 . S
C2135 H2121 0.929 . S
C2135 C2134 1.399 . S
C2135 C2136 1.385 . S
C2136 H2122 0.931 . S
C2136 C2135 1.385 . S
C2136 C2137 1.389 . S
C2137 C2136 1.389 . S
C2137 C2138 1.387 . S
C2138 H2123 0.930 . S
C2138 C2133 1.390 . S
C2138 C2137 1.387 . S
H2139 C2151 0.930 . S
H2140 C2153 0.930 . S
H2141 C2154 0.930 . S
H2142 C2158 0.959 . S
H2143 C2158 0.959 . S
H2144 C2158 0.961 . S
H2145 C2159 0.960 . S
H2146 C2159 0.961 . S
H2147 C2159 0.959 . S
H2148 C2162 0.929 . S
H2149 C2163 0.931 . S
H2150 C2165 0.930 . S
C2151 H2139 0.930 . S
C2151 C2152 1.399 . S
C2151 C2156 1.399 . S
C2152 C2151 1.399 . S
C2152 C2153 1.376 . S
C2153 H2140 0.930 . S
C2153 C2152 1.376 . S
C2153 C2154 1.388 . S
C2154 H2141 0.930 . S
C2154 C2153 1.388 . S
C2154 C2155 1.390 . S
C2155 C2154 1.390 . S
C2155 C2156 1.394 . S
C2155 C2161 1.465 . S
C2156 C2151 1.399 . S
C2156 C2155 1.394 . S
C2156 C2157 1.516 . S
C2157 C2156 1.516 . S
C2157 C2158 1.502 . S
C2157 C2159 1.561 . S
C2157 C2160 1.526 . S
C2158 H2142 0.959 . S
C2158 H2143 0.959 . S
C2158 H2144 0.961 . S
C2158 C2157 1.502 . S
C2159 H2145 0.960 . S
C2159 H2146 0.961 . S
C2159 H2147 0.959 . S
C2159 C2157 1.561 . S
C2160 C2157 1.526 . S
C2160 C2161 1.396 . S
C2160 C2165 1.390 . S
C2161 C2155 1.465 . S
C2161 C2160 1.396 . S
C2161 C2162 1.399 . S
C2162 H2148 0.929 . S
C2162 C2161 1.399 . S
C2162 C2163 1.385 . S
C2163 H2149 0.931 . S
C2163 C2162 1.385 . S
C2163 C2164 1.389 . S
C2164 C2163 1.389 . S
C2164 C2165 1.387 . S
C2165 H2150 0.930 . S
C2165 C2160 1.390 . S
C2165 C2164 1.387 . S
H2166 C2178 0.930 . S
H2167 C2180 0.930 . S
H2168 C2181 0.930 . S
H2169 C2185 0.959 . S
H2170 C2185 0.959 . S
H2171 C2185 0.961 . S
H2172 C2186 0.960 . S
H2173 C2186 0.961 . S
H2174 C2186 0.959 . S
H2175 C2189 0.929 . S
H2176 C2190 0.931 . S
H2177 C2192 0.930 . S
C2178 H2166 0.930 . S
C2178 C2179 1.399 . S
C2178 C2183 1.399 . S
C2179 C2178 1.399 . S
C2179 C2180 1.376 . S
C2180 H2167 0.930 . S
C2180 C2179 1.376 . S
C2180 C2181 1.388 . S
C2181 H2168 0.930 . S
C2181 C2180 1.388 . S
C2181 C2182 1.390 . S
C2182 C2181 1.390 . S
C2182 C2183 1.394 . S
C2182 C2188 1.465 . S
C2183 C2178 1.399 . S
C2183 C2182 1.394 . S
C2183 C2184 1.516 . S
C2184 C2183 1.516 . S
C2184 C2185 1.502 . S
C2184 C2186 1.561 1_455 S
C2184 C2187 1.526 . S
C2185 H2169 0.959 . S
C2185 H2170 0.959 . S
C2185 H2171 0.961 . S
C2185 C2184 1.502 . S
C2186 H2172 0.960 . S
C2186 H2173 0.961 . S
C2186 H2174 0.959 . S
C2186 C2184 1.561 1_655 S
C2187 C2184 1.526 . S
C2187 C2188 1.396 . S
C2187 C2192 1.390 . S
C2188 C2182 1.465 . S
C2188 C2187 1.396 . S
C2188 C2189 1.399 . S
C2189 H2175 0.929 . S
C2189 C2188 1.399 . S
C2189 C2190 1.385 . S
C2190 H2176 0.931 . S
C2190 C2189 1.385 . S
C2190 C2191 1.389 . S
C2191 C2190 1.389 . S
C2191 C2192 1.387 . S
C2192 H2177 0.930 . S
C2192 C2187 1.390 . S
C2192 C2191 1.387 . S
H2193 C2205 0.930 . S
H2194 C2207 0.930 1_455 S
H2195 C2208 0.930 . S
H2196 C2212 0.959 . S
H2197 C2212 0.959 . S
H2198 C2212 0.961 . S
H2199 C2213 0.960 . S
H2200 C2213 0.961 . S
H2201 C2213 0.959 . S
H2202 C2216 0.929 . S
H2203 C2217 0.931 . S
H2204 C2219 0.930 . S
C2205 H2193 0.930 . S
C2205 C2206 1.399 . S
C2205 C2210 1.399 . S
C2206 C2205 1.399 . S
C2206 C2207 1.376 . S
C2207 H2194 0.930 1_655 S
C2207 C2206 1.376 . S
C2207 C2208 1.388 . S
C2208 H2195 0.930 . S
C2208 C2207 1.388 . S
C2208 C2209 1.390 . S
C2209 C2208 1.390 . S
C2209 C2210 1.394 . S
C2209 C2215 1.465 . S
C2210 C2205 1.399 . S
C2210 C2209 1.394 . S
C2210 C2211 1.516 . S
C2211 C2210 1.516 . S
C2211 C2212 1.502 . S
C2211 C2213 1.561 . S
C2211 C2214 1.526 . S
C2212 H2196 0.959 . S
C2212 H2197 0.959 . S
C2212 H2198 0.961 . S
C2212 C2211 1.502 . S
C2213 H2199 0.960 . S
C2213 H2200 0.961 . S
C2213 H2201 0.959 . S
C2213 C2211 1.561 . S
C2214 C2211 1.526 . S
C2214 C2215 1.396 . S
C2214 C2219 1.390 . S
C2215 C2209 1.465 . S
C2215 C2214 1.396 . S
C2215 C2216 1.399 . S
C2216 H2202 0.929 . S
C2216 C2215 1.399 . S
C2216 C2217 1.385 . S
C2217 H2203 0.931 . S
C2217 C2216 1.385 . S
C2217 C2218 1.389 . S
C2218 C2217 1.389 . S
C2218 C2219 1.387 . S
C2219 H2204 0.930 . S
C2219 C2214 1.390 . S
C2219 C2218 1.387 . S
H2220 C2232 0.930 . S
H2221 C2234 0.930 . S
H2222 C2235 0.930 . S
H2223 C2239 0.959 . S
H2224 C2239 0.959 . S
H2225 C2239 0.961 . S
H2226 C2240 0.960 . S
H2227 C2240 0.961 . S
H2228 C2240 0.959 . S
H2229 C2243 0.929 1_554 S
H2230 C2244 0.931 . S
H2231 C2246 0.930 . S
C2232 H2220 0.930 . S
C2232 C2233 1.399 . S
C2232 C2237 1.399 . S
C2233 C2232 1.399 . S
C2233 C2234 1.376 . S
C2234 H2221 0.930 . S
C2234 C2233 1.376 . S
C2234 C2235 1.388 . S
C2235 H2222 0.930 . S
C2235 C2234 1.388 . S
C2235 C2236 1.390 . S
C2236 C2235 1.390 . S
C2236 C2237 1.394 . S
C2236 C2242 1.465 . S
C2237 C2232 1.399 . S
C2237 C2236 1.394 . S
C2237 C2238 1.516 . S
C2238 C2237 1.516 . S
C2238 C2239 1.502 . S
C2238 C2240 1.561 . S
C2238 C2241 1.526 . S
C2239 H2223 0.959 . S
C2239 H2224 0.959 . S
C2239 H2225 0.961 . S
C2239 C2238 1.502 . S
C2240 H2226 0.960 . S
C2240 H2227 0.961 . S
C2240 H2228 0.959 . S
C2240 C2238 1.561 . S
C2241 C2238 1.526 . S
C2241 C2242 1.396 . S
C2241 C2246 1.390 . S
C2242 C2236 1.465 . S
C2242 C2241 1.396 . S
C2242 C2243 1.399 . S
C2243 H2229 0.929 1_556 S
C2243 C2242 1.399 . S
C2243 C2244 1.385 1_556 S
C2244 H2230 0.931 . S
C2244 C2243 1.385 1_554 S
C2244 C2245 1.389 1_554 S
C2245 C2244 1.389 1_556 S
C2245 C2246 1.387 . S
C2246 H2231 0.930 . S
C2246 C2241 1.390 . S
C2246 C2245 1.387 . S
H2247 C2259 0.930 . S
H2248 C2261 0.930 . S
H2249 C2262 0.930 . S
H2250 C2266 0.959 . S
H2251 C2266 0.959 . S
H2252 C2266 0.961 . S
H2253 C2267 0.960 . S
H2254 C2267 0.961 . S
H2255 C2267 0.959 . S
H2256 C2270 0.929 . S
H2257 C2271 0.931 . S
H2258 C2273 0.930 . S
C2259 H2247 0.930 . S
C2259 C2260 1.399 . S
C2259 C2264 1.399 . S
C2260 C2259 1.399 . S
C2260 C2261 1.376 . S
C2261 H2248 0.930 . S
C2261 C2260 1.376 . S
C2261 C2262 1.388 . S
C2262 H2249 0.930 . S
C2262 C2261 1.388 . S
C2262 C2263 1.390 . S
C2263 C2262 1.390 . S
C2263 C2264 1.394 . S
C2263 C2269 1.465 . S
C2264 C2259 1.399 . S
C2264 C2263 1.394 . S
C2264 C2265 1.516 . S
C2265 C2264 1.516 . S
C2265 C2266 1.502 . S
C2265 C2267 1.561 . S
C2265 C2268 1.526 . S
C2266 H2250 0.959 . S
C2266 H2251 0.959 . S
C2266 H2252 0.961 . S
C2266 C2265 1.502 . S
C2267 H2253 0.960 . S
C2267 H2254 0.961 . S
C2267 H2255 0.959 . S
C2267 C2265 1.561 . S
C2268 C2265 1.526 . S
C2268 C2269 1.396 . S
C2268 C2273 1.390 . S
C2269 C2263 1.465 . S
C2269 C2268 1.396 . S
C2269 C2270 1.399 . S
C2270 H2256 0.929 . S
C2270 C2269 1.399 . S
C2270 C2271 1.385 . S
C2271 H2257 0.931 . S
C2271 C2270 1.385 . S
C2271 C2272 1.389 . S
C2272 C2271 1.389 . S
C2272 C2273 1.387 . S
C2273 H2258 0.930 . S
C2273 C2268 1.390 . S
C2273 C2272 1.387 . S
H2274 C2286 0.930 . S
H2275 C2288 0.930 . S
H2276 C2289 0.930 . S
H2277 C2293 0.959 . S
H2278 C2293 0.959 . S
H2279 C2293 0.961 . S
H2280 C2294 0.960 . S
H2281 C2294 0.961 . S
H2282 C2294 0.959 . S
H2283 C2297 0.929 . S
H2284 C2298 0.931 . S
H2285 C2300 0.930 . S
C2286 H2274 0.930 . S
C2286 C2287 1.399 . S
C2286 C2291 1.399 . S
C2287 C2286 1.399 . S
C2287 C2288 1.376 . S
C2288 H2275 0.930 . S
C2288 C2287 1.376 . S
C2288 C2289 1.388 . S
C2289 H2276 0.930 . S
C2289 C2288 1.388 . S
C2289 C2290 1.390 . S
C2290 C2289 1.390 . S
C2290 C2291 1.394 . S
C2290 C2296 1.465 . S
C2291 C2286 1.399 . S
C2291 C2290 1.394 . S
C2291 C2292 1.516 . S
C2292 C2291 1.516 . S
C2292 C2293 1.502 . S
C2292 C2294 1.561 . S
C2292 C2295 1.526 . S
C2293 H2277 0.959 . S
C2293 H2278 0.959 . S
C2293 H2279 0.961 . S
C2293 C2292 1.502 . S
C2294 H2280 0.960 . S
C2294 H2281 0.961 . S
C2294 H2282 0.959 . S
C2294 C2292 1.561 . S
C2295 C2292 1.526 . S
C2295 C2296 1.396 . S
C2295 C2300 1.390 . S
C2296 C2290 1.465 . S
C2296 C2295 1.396 . S
C2296 C2297 1.399 . S
C2297 H2283 0.929 . S
C2297 C2296 1.399 . S
C2297 C2298 1.385 . S
C2298 H2284 0.931 . S
C2298 C2297 1.385 . S
C2298 C2299 1.389 . S
C2299 C2298 1.389 . S
C2299 C2300 1.387 . S
C2300 H2285 0.930 . S
C2300 C2295 1.390 . S
C2300 C2299 1.387 . S
H2301 C2313 0.930 . S
H2302 C2315 0.930 . S
H2303 C2316 0.930 . S
H2304 C2320 0.959 . S
H2305 C2320 0.959 . S
H2306 C2320 0.961 . S
H2307 C2321 0.960 . S
H2308 C2321 0.961 . S
H2309 C2321 0.959 . S
H2310 C2324 0.929 . S
H2311 C2325 0.931 . S
H2312 C2327 0.930 . S
C2313 H2301 0.930 . S
C2313 C2314 1.399 . S
C2313 C2318 1.399 . S
C2314 C2313 1.399 . S
C2314 C2315 1.376 . S
C2315 H2302 0.930 . S
C2315 C2314 1.376 . S
C2315 C2316 1.388 . S
C2316 H2303 0.930 . S
C2316 C2315 1.388 . S
C2316 C2317 1.390 . S
C2317 C2316 1.390 . S
C2317 C2318 1.394 . S
C2317 C2323 1.465 . S
C2318 C2313 1.399 . S
C2318 C2317 1.394 . S
C2318 C2319 1.516 . S
C2319 C2318 1.516 . S
C2319 C2320 1.502 . S
C2319 C2321 1.561 . S
C2319 C2322 1.526 . S
C2320 H2304 0.959 . S
C2320 H2305 0.959 . S
C2320 H2306 0.961 . S
C2320 C2319 1.502 . S
C2321 H2307 0.960 . S
C2321 H2308 0.961 . S
C2321 H2309 0.959 . S
C2321 C2319 1.561 . S
C2322 C2319 1.526 . S
C2322 C2323 1.396 . S
C2322 C2327 1.390 . S
C2323 C2317 1.465 . S
C2323 C2322 1.396 . S
C2323 C2324 1.399 . S
C2324 H2310 0.929 . S
C2324 C2323 1.399 . S
C2324 C2325 1.385 . S
C2325 H2311 0.931 . S
C2325 C2324 1.385 . S
C2325 C2326 1.389 . S
C2326 C2325 1.389 . S
C2326 C2327 1.387 . S
C2327 H2312 0.930 . S
C2327 C2322 1.390 . S
C2327 C2326 1.387 . S
H2328 C2340 0.930 . S
H2329 C2342 0.930 . S
H2330 C2343 0.930 . S
H2331 C2347 0.959 . S
H2332 C2347 0.959 . S
H2333 C2347 0.961 . S
H2334 C2348 0.960 . S
H2335 C2348 0.961 . S
H2336 C2348 0.959 . S
H2337 C2351 0.929 . S
H2338 C2352 0.931 . S
H2339 C2354 0.930 . S
C2340 H2328 0.930 . S
C2340 C2341 1.399 . S
C2340 C2345 1.399 . S
C2341 C2340 1.399 . S
C2341 C2342 1.376 . S
C2342 H2329 0.930 . S
C2342 C2341 1.376 . S
C2342 C2343 1.388 . S
C2343 H2330 0.930 . S
C2343 C2342 1.388 . S
C2343 C2344 1.390 . S
C2344 C2343 1.390 . S
C2344 C2345 1.394 . S
C2344 C2350 1.465 . S
C2345 C2340 1.399 . S
C2345 C2344 1.394 . S
C2345 C2346 1.516 . S
C2346 C2345 1.516 . S
C2346 C2347 1.502 . S
C2346 C2348 1.561 . S
C2346 C2349 1.526 . S
C2347 H2331 0.959 . S
C2347 H2332 0.959 . S
C2347 H2333 0.961 . S
C2347 C2346 1.502 . S
C2348 H2334 0.960 . S
C2348 H2335 0.961 . S
C2348 H2336 0.959 . S
C2348 C2346 1.561 . S
C2349 C2346 1.526 . S
C2349 C2350 1.396 . S
C2349 C2354 1.390 . S
C2350 C2344 1.465 . S
C2350 C2349 1.396 . S
C2350 C2351 1.399 . S
C2351 H2337 0.929 . S
C2351 C2350 1.399 . S
C2351 C2352 1.385 . S
C2352 H2338 0.931 . S
C2352 C2351 1.385 . S
C2352 C2353 1.389 . S
C2353 C2352 1.389 . S
C2353 C2354 1.387 . S
C2354 H2339 0.930 . S
C2354 C2349 1.390 . S
C2354 C2353 1.387 . S
H2355 C2367 0.930 . S
H2356 C2369 0.930 . S
H2357 C2370 0.930 . S
H2358 C2374 0.959 . S
H2359 C2374 0.959 . S
H2360 C2374 0.961 . S
H2361 C2375 0.960 . S
H2362 C2375 0.961 . S
H2363 C2375 0.959 . S
H2364 C2378 0.929 . S
H2365 C2379 0.931 . S
H2366 C2381 0.930 . S
C2367 H2355 0.930 . S
C2367 C2368 1.399 . S
C2367 C2372 1.399 . S
C2368 C2367 1.399 . S
C2368 C2369 1.376 . S
C2369 H2356 0.930 . S
C2369 C2368 1.376 . S
C2369 C2370 1.388 . S
C2370 H2357 0.930 . S
C2370 C2369 1.388 . S
C2370 C2371 1.390 . S
C2371 C2370 1.390 . S
C2371 C2372 1.394 . S
C2371 C2377 1.465 . S
C2372 C2367 1.399 . S
C2372 C2371 1.394 . S
C2372 C2373 1.516 . S
C2373 C2372 1.516 . S
C2373 C2374 1.502 . S
C2373 C2375 1.561 . S
C2373 C2376 1.526 . S
C2374 H2358 0.959 . S
C2374 H2359 0.959 . S
C2374 H2360 0.961 . S
C2374 C2373 1.502 . S
C2375 H2361 0.960 . S
C2375 H2362 0.961 . S
C2375 H2363 0.959 . S
C2375 C2373 1.561 . S
C2376 C2373 1.526 . S
C2376 C2377 1.396 . S
C2376 C2381 1.390 . S
C2377 C2371 1.465 . S
C2377 C2376 1.396 . S
C2377 C2378 1.399 . S
C2378 H2364 0.929 . S
C2378 C2377 1.399 . S
C2378 C2379 1.385 . S
C2379 H2365 0.931 . S
C2379 C2378 1.385 . S
C2379 C2380 1.389 . S
C2380 C2379 1.389 . S
C2380 C2381 1.387 . S
C2381 H2366 0.930 . S
C2381 C2376 1.390 . S
C2381 C2380 1.387 . S
H2382 C2394 0.930 . S
H2383 C2396 0.930 . S
H2384 C2397 0.930 . S
H2385 C2401 0.959 . S
H2386 C2401 0.959 . S
H2387 C2401 0.961 . S
H2388 C2402 0.960 . S
H2389 C2402 0.961 1_455 S
H2390 C2402 0.959 . S
H2391 C2405 0.929 . S
H2392 C2406 0.931 . S
H2393 C2408 0.930 . S
C2394 H2382 0.930 . S
C2394 C2395 1.399 . S
C2394 C2399 1.399 . S
C2395 C2394 1.399 . S
C2395 C2396 1.376 . S
C2396 H2383 0.930 . S
C2396 C2395 1.376 . S
C2396 C2397 1.388 . S
C2397 H2384 0.930 . S
C2397 C2396 1.388 . S
C2397 C2398 1.390 . S
C2398 C2397 1.390 . S
C2398 C2399 1.394 . S
C2398 C2404 1.465 . S
C2399 C2394 1.399 . S
C2399 C2398 1.394 . S
C2399 C2400 1.516 . S
C2400 C2399 1.516 . S
C2400 C2401 1.502 1_655 S
C2400 C2402 1.561 . S
C2400 C2403 1.526 . S
C2401 H2385 0.959 . S
C2401 H2386 0.959 . S
C2401 H2387 0.961 . S
C2401 C2400 1.502 1_455 S
C2402 H2388 0.960 . S
C2402 H2389 0.961 1_655 S
C2402 H2390 0.959 . S
C2402 C2400 1.561 . S
C2403 C2400 1.526 . S
C2403 C2404 1.396 . S
C2403 C2408 1.390 1_655 S
C2404 C2398 1.465 . S
C2404 C2403 1.396 . S
C2404 C2405 1.399 . S
C2405 H2391 0.929 . S
C2405 C2404 1.399 . S
C2405 C2406 1.385 . S
C2406 H2392 0.931 . S
C2406 C2405 1.385 . S
C2406 C2407 1.389 . S
C2407 C2406 1.389 . S
C2407 C2408 1.387 1_655 S
C2408 H2393 0.930 . S
C2408 C2403 1.390 1_455 S
C2408 C2407 1.387 1_455 S
H2409 C2421 0.930 . S
H2410 C2423 0.930 . S
H2411 C2424 0.930 . S
H2412 C2428 0.959 . S
H2413 C2428 0.959 . S
H2414 C2428 0.961 . S
H2415 C2429 0.960 . S
H2416 C2429 0.961 . S
H2417 C2429 0.959 . S
H2418 C2432 0.929 . S
H2419 C2433 0.931 . S
H2420 C2435 0.930 . S
C2421 H2409 0.930 . S
C2421 C2422 1.399 . S
C2421 C2426 1.399 . S
C2422 C2421 1.399 . S
C2422 C2423 1.376 . S
C2423 H2410 0.930 . S
C2423 C2422 1.376 . S
C2423 C2424 1.388 . S
C2424 H2411 0.930 . S
C2424 C2423 1.388 . S
C2424 C2425 1.390 . S
C2425 C2424 1.390 . S
C2425 C2426 1.394 . S
C2425 C2431 1.465 . S
C2426 C2421 1.399 . S
C2426 C2425 1.394 . S
C2426 C2427 1.516 . S
C2427 C2426 1.516 . S
C2427 C2428 1.502 . S
C2427 C2429 1.561 . S
C2427 C2430 1.526 . S
C2428 H2412 0.959 . S
C2428 H2413 0.959 . S
C2428 H2414 0.961 . S
C2428 C2427 1.502 . S
C2429 H2415 0.960 . S
C2429 H2416 0.961 . S
C2429 H2417 0.959 . S
C2429 C2427 1.561 . S
C2430 C2427 1.526 . S
C2430 C2431 1.396 . S
C2430 C2435 1.390 . S
C2431 C2425 1.465 . S
C2431 C2430 1.396 . S
C2431 C2432 1.399 . S
C2432 H2418 0.929 . S
C2432 C2431 1.399 . S
C2432 C2433 1.385 . S
C2433 H2419 0.931 . S
C2433 C2432 1.385 . S
C2433 C2434 1.389 . S
C2434 C2433 1.389 . S
C2434 C2435 1.387 . S
C2435 H2420 0.930 . S
C2435 C2430 1.390 . S
C2435 C2434 1.387 . S
H2436 C2448 0.930 . S
H2437 C2450 0.930 . S
H2438 C2451 0.930 . S
H2439 C2455 0.959 . S
H2440 C2455 0.959 . S
H2441 C2455 0.961 . S
H2442 C2456 0.960 . S
H2443 C2456 0.961 . S
H2444 C2456 0.959 . S
H2445 C2459 0.929 . S
H2446 C2460 0.931 . S
H2447 C2462 0.930 . S
C2448 H2436 0.930 . S
C2448 C2449 1.399 . S
C2448 C2453 1.399 . S
C2449 C2448 1.399 . S
C2449 C2450 1.376 . S
C2450 H2437 0.930 . S
C2450 C2449 1.376 . S
C2450 C2451 1.388 . S
C2451 H2438 0.930 . S
C2451 C2450 1.388 . S
C2451 C2452 1.390 . S
C2452 C2451 1.390 . S
C2452 C2453 1.394 . S
C2452 C2458 1.465 . S
C2453 C2448 1.399 . S
C2453 C2452 1.394 . S
C2453 C2454 1.516 . S
C2454 C2453 1.516 . S
C2454 C2455 1.502 . S
C2454 C2456 1.561 . S
C2454 C2457 1.526 . S
C2455 H2439 0.959 . S
C2455 H2440 0.959 . S
C2455 H2441 0.961 . S
C2455 C2454 1.502 . S
C2456 H2442 0.960 . S
C2456 H2443 0.961 . S
C2456 H2444 0.959 . S
C2456 C2454 1.561 . S
C2457 C2454 1.526 . S
C2457 C2458 1.396 . S
C2457 C2462 1.390 . S
C2458 C2452 1.465 . S
C2458 C2457 1.396 . S
C2458 C2459 1.399 . S
C2459 H2445 0.929 . S
C2459 C2458 1.399 . S
C2459 C2460 1.385 . S
C2460 H2446 0.931 . S
C2460 C2459 1.385 . S
C2460 C2461 1.389 . S
C2461 C2460 1.389 . S
C2461 C2462 1.387 . S
C2462 H2447 0.930 . S
C2462 C2457 1.390 . S
C2462 C2461 1.387 . S
H2463 C2475 0.930 . S
H2464 C2477 0.930 . S
H2465 C2478 0.930 . S
H2466 C2482 0.959 . S
H2467 C2482 0.959 . S
H2468 C2482 0.961 . S
H2469 C2483 0.960 . S
H2470 C2483 0.961 . S
H2471 C2483 0.959 . S
H2472 C2486 0.929 . S
H2473 C2487 0.931 . S
H2474 C2489 0.930 . S
C2475 H2463 0.930 . S
C2475 C2476 1.399 . S
C2475 C2480 1.399 . S
C2476 C2475 1.399 . S
C2476 C2477 1.376 . S
C2477 H2464 0.930 . S
C2477 C2476 1.376 . S
C2477 C2478 1.388 . S
C2478 H2465 0.930 . S
C2478 C2477 1.388 . S
C2478 C2479 1.390 . S
C2479 C2478 1.390 . S
C2479 C2480 1.394 . S
C2479 C2485 1.465 . S
C2480 C2475 1.399 . S
C2480 C2479 1.394 . S
C2480 C2481 1.516 . S
C2481 C2480 1.516 . S
C2481 C2482 1.502 . S
C2481 C2483 1.561 . S
C2481 C2484 1.526 . S
C2482 H2466 0.959 . S
C2482 H2467 0.959 . S
C2482 H2468 0.961 . S
C2482 C2481 1.502 . S
C2483 H2469 0.960 . S
C2483 H2470 0.961 . S
C2483 H2471 0.959 . S
C2483 C2481 1.561 . S
C2484 C2481 1.526 . S
C2484 C2485 1.396 . S
C2484 C2489 1.390 . S
C2485 C2479 1.465 . S
C2485 C2484 1.396 . S
C2485 C2486 1.399 . S
C2486 H2472 0.929 . S
C2486 C2485 1.399 . S
C2486 C2487 1.385 . S
C2487 H2473 0.931 . S
C2487 C2486 1.385 . S
C2487 C2488 1.389 . S
C2488 C2487 1.389 . S
C2488 C2489 1.387 . S
C2489 H2474 0.930 . S
C2489 C2484 1.390 . S
C2489 C2488 1.387 . S
H2490 C2502 0.930 . S
H2491 C2504 0.930 . S
H2492 C2505 0.930 . S
H2493 C2509 0.959 . S
H2494 C2509 0.959 . S
H2495 C2509 0.961 . S
H2496 C2510 0.960 . S
H2497 C2510 0.961 . S
H2498 C2510 0.959 . S
H2499 C2513 0.929 . S
H2500 C2514 0.939 . S
H2501 C2516 0.930 . S
C2502 H2490 0.930 . S
C2502 C2503 1.399 . S
C2502 C2507 1.399 . S
C2503 C2502 1.399 . S
C2503 C2504 1.376 . S
C2504 H2491 0.930 . S
C2504 C2503 1.376 . S
C2504 C2505 1.388 . S
C2505 H2492 0.930 . S
C2505 C2504 1.388 . S
C2505 C2506 1.390 . S
C2506 C2505 1.390 . S
C2506 C2507 1.394 . S
C2506 C2512 1.465 . S
C2507 C2502 1.399 . S
C2507 C2506 1.394 . S
C2507 C2508 1.516 . S
C2508 C2507 1.516 . S
C2508 C2509 1.502 . S
C2508 C2510 1.561 . S
C2508 C2511 1.526 . S
C2509 H2493 0.959 . S
C2509 H2494 0.959 . S
C2509 H2495 0.961 . S
C2509 C2508 1.502 . S
C2510 H2496 0.960 . S
C2510 H2497 0.961 . S
C2510 H2498 0.959 . S
C2510 C2508 1.561 . S
C2511 C2508 1.526 . S
C2511 C2512 1.396 . S
C2511 C2516 1.390 . S
C2512 C2506 1.465 . S
C2512 C2511 1.396 . S
C2512 C2513 1.399 . S
C2513 H2499 0.929 . S
C2513 C2512 1.399 . S
C2513 C2514 1.385 . S
C2514 H2500 0.939 . S
C2514 C2513 1.385 . S
C2514 C2515 1.389 . S
C2515 C2514 1.389 . S
C2515 C2516 1.387 . S
C2516 H2501 0.930 . S
C2516 C2511 1.390 . S
C2516 C2515 1.387 . S
H2517 C2529 0.930 . S
H2518 C2531 0.930 . S
H2519 C2532 0.930 . S
H2520 C2536 0.959 . S
H2521 C2536 0.959 . S
H2522 C2536 0.961 . S
H2523 C2537 0.960 . S
H2524 C2537 0.961 . S
H2525 C2537 0.959 . S
H2526 C2540 0.929 . S
H2527 C2541 0.931 . S
H2528 C2543 0.930 . S
C2529 H2517 0.930 . S
C2529 C2530 1.399 . S
C2529 C2534 1.399 . S
C2530 C2529 1.399 . S
C2530 C2531 1.376 . S
C2531 H2518 0.930 . S
C2531 C2530 1.376 . S
C2531 C2532 1.388 . S
C2532 H2519 0.930 . S
C2532 C2531 1.388 . S
C2532 C2533 1.390 . S
C2533 C2532 1.390 . S
C2533 C2534 1.394 . S
C2533 C2539 1.465 . S
C2534 C2529 1.399 . S
C2534 C2533 1.394 . S
C2534 C2535 1.516 . S
C2535 C2534 1.516 . S
C2535 C2536 1.502 . S
C2535 C2537 1.561 . S
C2535 C2538 1.526 . S
C2536 H2520 0.959 . S
C2536 H2521 0.959 . S
C2536 H2522 0.961 . S
C2536 C2535 1.502 . S
C2537 H2523 0.960 . S
C2537 H2524 0.961 . S
C2537 H2525 0.959 . S
C2537 C2535 1.561 . S
C2538 C2535 1.526 . S
C2538 C2539 1.396 . S
C2538 C2543 1.390 . S
C2539 C2533 1.465 . S
C2539 C2538 1.396 . S
C2539 C2540 1.399 . S
C2540 H2526 0.929 . S
C2540 C2539 1.399 . S
C2540 C2541 1.385 . S
C2541 H2527 0.931 . S
C2541 C2540 1.385 . S
C2541 C2542 1.389 . S
C2542 C2541 1.389 . S
C2542 C2543 1.387 . S
C2543 H2528 0.930 . S
C2543 C2538 1.390 . S
C2543 C2542 1.387 . S
H2544 C2556 0.930 . S
H2545 C2558 0.930 . S
H2546 C2559 0.930 . S
H2547 C2563 0.959 . S
H2548 C2563 0.959 . S
H2549 C2563 0.961 . S
H2550 C2564 0.960 . S
H2551 C2564 0.961 . S
H2552 C2564 0.959 . S
H2553 C2567 0.929 . S
H2554 C2568 0.931 . S
H2555 C2570 0.930 . S
C2556 H2544 0.930 . S
C2556 C2557 1.399 . S
C2556 C2561 1.399 . S
C2557 C2556 1.399 . S
C2557 C2558 1.376 . S
C2558 H2545 0.930 . S
C2558 C2557 1.376 . S
C2558 C2559 1.388 . S
C2559 H2546 0.930 . S
C2559 C2558 1.388 . S
C2559 C2560 1.390 . S
C2560 C2559 1.390 . S
C2560 C2561 1.394 . S
C2560 C2566 1.465 . S
C2561 C2556 1.399 . S
C2561 C2560 1.394 . S
C2561 C2562 1.516 . S
C2562 C2561 1.516 . S
C2562 C2563 1.502 . S
C2562 C2564 1.561 . S
C2562 C2565 1.526 . S
C2563 H2547 0.959 . S
C2563 H2548 0.959 . S
C2563 H2549 0.961 . S
C2563 C2562 1.502 . S
C2564 H2550 0.960 . S
C2564 H2551 0.961 . S
C2564 H2552 0.959 . S
C2564 C2562 1.561 . S
C2565 C2562 1.526 . S
C2565 C2566 1.396 . S
C2565 C2570 1.390 . S
C2566 C2560 1.465 . S
C2566 C2565 1.396 . S
C2566 C2567 1.399 . S
C2567 H2553 0.929 . S
C2567 C2566 1.399 . S
C2567 C2568 1.385 . S
C2568 H2554 0.931 . S
C2568 C2567 1.385 . S
C2568 C2569 1.389 . S
C2569 C2568 1.389 . S
C2569 C2570 1.387 . S
C2570 H2555 0.930 . S
C2570 C2565 1.390 . S
C2570 C2569 1.387 . S
H2571 C2583 0.930 . S
H2572 C2585 0.930 . S
H2573 C2586 0.930 . S
H2574 C2590 0.959 . S
H2575 C2590 0.959 . S
H2576 C2590 0.961 . S
H2577 C2591 0.971 . S
H2578 C2591 0.940 1_545 S
H2579 C2591 0.942 1_545 S
H2580 C2594 0.929 . S
H2581 C2595 0.931 . S
H2582 C2597 0.930 1_545 S
C2583 H2571 0.930 . S
C2583 C2584 1.399 . S
C2583 C2588 1.399 . S
C2584 C2583 1.399 . S
C2584 C2585 1.376 . S
C2585 H2572 0.930 . S
C2585 C2584 1.376 . S
C2585 C2586 1.388 . S
C2586 H2573 0.930 . S
C2586 C2585 1.388 . S
C2586 C2587 1.390 . S
C2587 C2586 1.390 . S
C2587 C2588 1.394 . S
C2587 C2593 1.465 . S
C2588 C2583 1.399 . S
C2588 C2587 1.394 . S
C2588 C2589 1.516 . S
C2589 C2588 1.516 . S
C2589 C2590 1.502 . S
C2589 C2591 1.590 . S
C2589 C2592 1.526 . S
C2590 H2574 0.959 . S
C2590 H2575 0.959 . S
C2590 H2576 0.961 . S
C2590 C2589 1.502 . S
C2591 H2577 0.971 . S
C2591 H2578 0.940 1_565 S
C2591 H2579 0.942 1_565 S
C2591 C2589 1.590 . S
C2592 C2589 1.526 . S
C2592 C2593 1.396 . S
C2592 C2597 1.390 . S
C2593 C2587 1.465 . S
C2593 C2592 1.396 . S
C2593 C2594 1.399 . S
C2594 H2580 0.929 . S
C2594 C2593 1.399 . S
C2594 C2595 1.385 . S
C2595 H2581 0.931 . S
C2595 C2594 1.385 . S
C2595 C2596 1.389 1_565 S
C2596 C2595 1.389 1_545 S
C2596 C2597 1.387 1_545 S
C2597 H2582 0.930 1_565 S
C2597 C2592 1.390 . S
C2597 C2596 1.387 1_565 S
H2598 C2610 0.930 . S
H2599 C2612 0.930 . S
H2600 C2613 0.930 . S
H2601 C2617 0.959 . S
H2602 C2617 0.959 . S
H2603 C2617 0.961 . S
H2604 C2618 0.960 . S
H2605 C2618 0.961 . S
H2606 C2618 0.959 . S
H2607 C2621 0.929 . S
H2608 C2622 0.931 . S
H2609 C2624 0.930 . S
C2610 H2598 0.930 . S
C2610 C2611 1.399 . S
C2610 C2615 1.399 . S
C2611 C2610 1.399 . S
C2611 C2612 1.376 . S
C2612 H2599 0.930 . S
C2612 C2611 1.376 . S
C2612 C2613 1.388 . S
C2613 H2600 0.930 . S
C2613 C2612 1.388 . S
C2613 C2614 1.390 . S
C2614 C2613 1.390 . S
C2614 C2615 1.394 . S
C2614 C2620 1.465 . S
C2615 C2610 1.399 . S
C2615 C2614 1.394 . S
C2615 C2616 1.516 . S
C2616 C2615 1.516 . S
C2616 C2617 1.502 . S
C2616 C2618 1.561 . S
C2616 C2619 1.526 . S
C2617 H2601 0.959 . S
C2617 H2602 0.959 . S
C2617 H2603 0.961 . S
C2617 C2616 1.502 . S
C2618 H2604 0.960 . S
C2618 H2605 0.961 . S
C2618 H2606 0.959 . S
C2618 C2616 1.561 . S
C2619 C2616 1.526 . S
C2619 C2620 1.396 . S
C2619 C2624 1.390 . S
C2620 C2614 1.465 . S
C2620 C2619 1.396 . S
C2620 C2621 1.399 . S
C2621 H2607 0.929 . S
C2621 C2620 1.399 . S
C2621 C2622 1.385 . S
C2622 H2608 0.931 . S
C2622 C2621 1.385 . S
C2622 C2623 1.389 . S
C2623 C2622 1.389 . S
C2623 C2624 1.387 . S
C2624 H2609 0.930 . S
C2624 C2619 1.390 . S
C2624 C2623 1.387 . S
H2625 C2637 0.930 . S
H2626 C2639 0.930 . S
H2627 C2640 0.930 . S
H2628 C2644 0.959 1_554 S
H2629 C2644 0.959 . S
H2630 C2644 0.961 . S
H2631 C2645 0.960 . S
H2632 C2645 0.961 . S
H2633 C2645 0.959 . S
H2634 C2648 0.929 . S
H2635 C2649 0.931 . S
H2636 C2651 0.930 . S
C2637 H2625 0.930 . S
C2637 C2638 1.399 . S
C2637 C2642 1.399 . S
C2638 C2637 1.399 . S
C2638 C2639 1.376 . S
C2639 H2626 0.930 . S
C2639 C2638 1.376 . S
C2639 C2640 1.388 . S
C2640 H2627 0.930 . S
C2640 C2639 1.388 . S
C2640 C2641 1.390 . S
C2641 C2640 1.390 . S
C2641 C2642 1.394 . S
C2641 C2647 1.465 . S
C2642 C2637 1.399 . S
C2642 C2641 1.394 . S
C2642 C2643 1.516 . S
C2643 C2642 1.516 . S
C2643 C2644 1.502 1_554 S
C2643 C2645 1.561 1_554 S
C2643 C2646 1.526 . S
C2644 H2628 0.959 1_556 S
C2644 H2629 0.959 . S
C2644 H2630 0.961 . S
C2644 C2643 1.502 1_556 S
C2645 H2631 0.960 . S
C2645 H2632 0.961 . S
C2645 H2633 0.959 . S
C2645 C2643 1.561 1_556 S
C2646 C2643 1.526 . S
C2646 C2647 1.396 . S
C2646 C2651 1.390 . S
C2647 C2641 1.465 . S
C2647 C2646 1.396 . S
C2647 C2648 1.399 . S
C2648 H2634 0.929 . S
C2648 C2647 1.399 . S
C2648 C2649 1.385 . S
C2649 H2635 0.931 . S
C2649 C2648 1.385 . S
C2649 C2650 1.389 . S
C2650 C2649 1.389 . S
C2650 C2651 1.387 . S
C2651 H2636 0.930 . S
C2651 C2646 1.390 . S
C2651 C2650 1.387 . S
H2652 C2664 0.930 . S
H2653 C2666 0.930 . S
H2654 C2667 0.930 . S
H2655 C2671 0.959 . S
H2656 C2671 0.959 . S
H2657 C2671 0.961 . S
H2658 C2672 0.960 . S
H2659 C2672 0.961 . S
H2660 C2672 0.959 . S
H2661 C2675 0.929 . S
H2662 C2676 0.931 . S
H2663 C2678 0.930 . S
C2664 H2652 0.930 . S
C2664 C2665 1.399 . S
C2664 C2669 1.399 . S
C2665 C2664 1.399 . S
C2665 C2666 1.376 . S
C2666 H2653 0.930 . S
C2666 C2665 1.376 . S
C2666 C2667 1.388 . S
C2667 H2654 0.930 . S
C2667 C2666 1.388 . S
C2667 C2668 1.390 . S
C2668 C2667 1.390 . S
C2668 C2669 1.394 . S
C2668 C2674 1.465 . S
C2669 C2664 1.399 . S
C2669 C2668 1.394 . S
C2669 C2670 1.516 . S
C2670 C2669 1.516 . S
C2670 C2671 1.502 . S
C2670 C2672 1.561 . S
C2670 C2673 1.526 . S
C2671 H2655 0.959 . S
C2671 H2656 0.959 . S
C2671 H2657 0.961 . S
C2671 C2670 1.502 . S
C2672 H2658 0.960 . S
C2672 H2659 0.961 . S
C2672 H2660 0.959 . S
C2672 C2670 1.561 . S
C2673 C2670 1.526 . S
C2673 C2674 1.396 . S
C2673 C2678 1.390 . S
C2674 C2668 1.465 . S
C2674 C2673 1.396 . S
C2674 C2675 1.399 . S
C2675 H2661 0.929 . S
C2675 C2674 1.399 . S
C2675 C2676 1.385 . S
C2676 H2662 0.931 . S
C2676 C2675 1.385 . S
C2676 C2677 1.389 . S
C2677 C2676 1.389 . S
C2677 C2678 1.387 . S
C2678 H2663 0.930 . S
C2678 C2673 1.390 . S
C2678 C2677 1.387 . S
H2679 C2691 0.930 . S
H2680 C2693 0.930 . S
H2681 C2694 0.930 . S
H2682 C2698 0.959 . S
H2683 C2698 0.959 . S
H2684 C2698 0.961 . S
H2685 C2699 0.960 . S
H2686 C2699 0.961 . S
H2687 C2699 0.959 1_554 S
H2688 C2702 0.929 . S
H2689 C2703 0.931 . S
H2690 C2705 0.930 1_556 S
C2691 H2679 0.930 . S
C2691 C2692 1.399 . S
C2691 C2696 1.399 . S
C2692 C2691 1.399 . S
C2692 C2693 1.376 . S
C2693 H2680 0.930 . S
C2693 C2692 1.376 . S
C2693 C2694 1.388 . S
C2694 H2681 0.930 . S
C2694 C2693 1.388 . S
C2694 C2695 1.390 . S
C2695 C2694 1.390 . S
C2695 C2696 1.394 . S
C2695 C2701 1.465 . S
C2696 C2691 1.399 . S
C2696 C2695 1.394 . S
C2696 C2697 1.516 . S
C2697 C2696 1.516 . S
C2697 C2698 1.502 1_554 S
C2697 C2699 1.561 1_554 S
C2697 C2700 1.526 . S
C2698 H2682 0.959 . S
C2698 H2683 0.959 . S
C2698 H2684 0.961 . S
C2698 C2697 1.502 1_556 S
C2699 H2685 0.960 . S
C2699 H2686 0.961 . S
C2699 H2687 0.959 1_556 S
C2699 C2697 1.561 1_556 S
C2700 C2697 1.526 . S
C2700 C2701 1.396 . S
C2700 C2705 1.390 . S
C2701 C2695 1.465 . S
C2701 C2700 1.396 . S
C2701 C2702 1.399 . S
C2702 H2688 0.929 . S
C2702 C2701 1.399 . S
C2702 C2703 1.385 . S
C2703 H2689 0.931 . S
C2703 C2702 1.385 . S
C2703 C2704 1.389 . S
C2704 C2703 1.389 . S
C2704 C2705 1.387 . S
C2705 H2690 0.930 1_554 S
C2705 C2700 1.390 . S
C2705 C2704 1.387 . S
H2706 C2718 0.930 . S
H2707 C2720 0.930 . S
H2708 C2721 0.930 . S
H2709 C2725 0.959 . S
H2710 C2725 0.959 . S
H2711 C2725 0.961 . S
H2712 C2726 0.960 . S
H2713 C2726 0.961 . S
H2714 C2726 0.959 . S
H2715 C2729 0.929 . S
H2716 C2730 0.931 . S
H2717 C2732 0.930 . S
C2718 H2706 0.930 . S
C2718 C2719 1.399 . S
C2718 C2723 1.399 . S
C2719 C2718 1.399 . S
C2719 C2720 1.376 . S
C2720 H2707 0.930 . S
C2720 C2719 1.376 . S
C2720 C2721 1.388 . S
C2721 H2708 0.930 . S
C2721 C2720 1.388 . S
C2721 C2722 1.390 . S
C2722 C2721 1.390 . S
C2722 C2723 1.394 . S
C2722 C2728 1.465 . S
C2723 C2718 1.399 . S
C2723 C2722 1.394 . S
C2723 C2724 1.516 . S
C2724 C2723 1.516 . S
C2724 C2725 1.502 . S
C2724 C2726 1.561 . S
C2724 C2727 1.526 . S
C2725 H2709 0.959 . S
C2725 H2710 0.959 . S
C2725 H2711 0.961 . S
C2725 C2724 1.502 . S
C2726 H2712 0.960 . S
C2726 H2713 0.961 . S
C2726 H2714 0.959 . S
C2726 C2724 1.561 . S
C2727 C2724 1.526 . S
C2727 C2728 1.396 . S
C2727 C2732 1.390 . S
C2728 C2722 1.465 . S
C2728 C2727 1.396 . S
C2728 C2729 1.399 . S
C2729 H2715 0.929 . S
C2729 C2728 1.399 . S
C2729 C2730 1.385 . S
C2730 H2716 0.931 . S
C2730 C2729 1.385 . S
C2730 C2731 1.389 . S
C2731 C2730 1.389 . S
C2731 C2732 1.387 . S
C2732 H2717 0.930 . S
C2732 C2727 1.390 . S
C2732 C2731 1.387 . S
H2733 C2745 0.930 . S
H2734 C2747 0.930 . S
H2735 C2748 0.930 . S
H2736 C2752 0.959 . S
H2737 C2752 0.959 . S
H2738 C2752 0.961 . S
H2739 C2753 0.960 . S
H2740 C2753 0.961 . S
H2741 C2753 0.959 . S
H2742 C2756 0.929 . S
H2743 C2757 0.931 . S
H2744 C2759 0.930 . S
C2745 H2733 0.930 . S
C2745 C2746 1.399 . S
C2745 C2750 1.399 . S
C2746 C2745 1.399 . S
C2746 C2747 1.376 . S
C2747 H2734 0.930 . S
C2747 C2746 1.376 . S
C2747 C2748 1.388 . S
C2748 H2735 0.930 . S
C2748 C2747 1.388 . S
C2748 C2749 1.390 . S
C2749 C2748 1.390 . S
C2749 C2750 1.394 . S
C2749 C2755 1.465 . S
C2750 C2745 1.399 . S
C2750 C2749 1.394 . S
C2750 C2751 1.516 . S
C2751 C2750 1.516 . S
C2751 C2752 1.502 . S
C2751 C2753 1.561 . S
C2751 C2754 1.526 . S
C2752 H2736 0.959 . S
C2752 H2737 0.959 . S
C2752 H2738 0.961 . S
C2752 C2751 1.502 . S
C2753 H2739 0.960 . S
C2753 H2740 0.961 . S
C2753 H2741 0.959 . S
C2753 C2751 1.561 . S
C2754 C2751 1.526 . S
C2754 C2755 1.396 . S
C2754 C2759 1.390 . S
C2755 C2749 1.465 . S
C2755 C2754 1.396 . S
C2755 C2756 1.399 . S
C2756 H2742 0.929 . S
C2756 C2755 1.399 . S
C2756 C2757 1.385 . S
C2757 H2743 0.931 . S
C2757 C2756 1.385 . S
C2757 C2758 1.389 . S
C2758 C2757 1.389 . S
C2758 C2759 1.387 . S
C2759 H2744 0.930 . S
C2759 C2754 1.390 . S
C2759 C2758 1.387 . S
H2760 C2772 0.930 . S
H2761 C2774 0.930 . S
H2762 C2775 0.930 . S
H2763 C2779 0.959 . S
H2764 C2779 0.959 . S
H2765 C2779 0.961 . S
H2766 C2780 0.960 . S
H2767 C2780 0.961 . S
H2768 C2780 0.959 . S
H2769 C2783 0.929 . S
H2770 C2784 0.931 . S
H2771 C2786 0.930 . S
C2772 H2760 0.930 . S
C2772 C2773 1.399 . S
C2772 C2777 1.399 . S
C2773 C2772 1.399 . S
C2773 C2774 1.376 . S
C2774 H2761 0.930 . S
C2774 C2773 1.376 . S
C2774 C2775 1.388 . S
C2775 H2762 0.930 . S
C2775 C2774 1.388 . S
C2775 C2776 1.390 . S
C2776 C2775 1.390 . S
C2776 C2777 1.394 . S
C2776 C2782 1.465 . S
C2777 C2772 1.399 . S
C2777 C2776 1.394 . S
C2777 C2778 1.516 . S
C2778 C2777 1.516 . S
C2778 C2779 1.502 . S
C2778 C2780 1.561 . S
C2778 C2781 1.526 . S
C2779 H2763 0.959 . S
C2779 H2764 0.959 . S
C2779 H2765 0.961 . S
C2779 C2778 1.502 . S
C2780 H2766 0.960 . S
C2780 H2767 0.961 . S
C2780 H2768 0.959 . S
C2780 C2778 1.561 . S
C2781 C2778 1.526 . S
C2781 C2782 1.396 . S
C2781 C2786 1.390 . S
C2782 C2776 1.465 . S
C2782 C2781 1.396 . S
C2782 C2783 1.399 . S
C2783 H2769 0.929 . S
C2783 C2782 1.399 . S
C2783 C2784 1.385 . S
C2784 H2770 0.931 . S
C2784 C2783 1.385 . S
C2784 C2785 1.389 . S
C2785 C2784 1.389 . S
C2785 C2786 1.387 . S
C2786 H2771 0.930 . S
C2786 C2781 1.390 . S
C2786 C2785 1.387 . S
H2787 C2799 0.930 . S
H2788 C2801 0.930 . S
H2789 C2802 0.930 . S
H2790 C2806 0.959 . S
H2791 C2806 0.959 . S
H2792 C2806 0.961 . S
H2793 C2807 0.960 . S
H2794 C2807 0.961 . S
H2795 C2807 0.959 . S
H2796 C2810 0.929 . S
H2797 C2811 0.931 . S
H2798 C2813 0.930 . S
C2799 H2787 0.930 . S
C2799 C2800 1.399 . S
C2799 C2804 1.399 . S
C2800 C2799 1.399 . S
C2800 C2801 1.376 . S
C2801 H2788 0.930 . S
C2801 C2800 1.376 . S
C2801 C2802 1.388 . S
C2802 H2789 0.930 . S
C2802 C2801 1.388 . S
C2802 C2803 1.390 . S
C2803 C2802 1.390 . S
C2803 C2804 1.394 . S
C2803 C2809 1.465 . S
C2804 C2799 1.399 . S
C2804 C2803 1.394 . S
C2804 C2805 1.516 . S
C2805 C2804 1.516 . S
C2805 C2806 1.502 . S
C2805 C2807 1.561 . S
C2805 C2808 1.526 . S
C2806 H2790 0.959 . S
C2806 H2791 0.959 . S
C2806 H2792 0.961 . S
C2806 C2805 1.502 . S
C2807 H2793 0.960 . S
C2807 H2794 0.961 . S
C2807 H2795 0.959 . S
C2807 C2805 1.561 . S
C2808 C2805 1.526 . S
C2808 C2809 1.396 . S
C2808 C2813 1.390 . S
C2809 C2803 1.465 . S
C2809 C2808 1.396 . S
C2809 C2810 1.399 . S
C2810 H2796 0.929 . S
C2810 C2809 1.399 . S
C2810 C2811 1.385 . S
C2811 H2797 0.931 . S
C2811 C2810 1.385 . S
C2811 C2812 1.389 . S
C2812 C2811 1.389 . S
C2812 C2813 1.387 . S
C2813 H2798 0.930 . S
C2813 C2808 1.390 . S
C2813 C2812 1.387 . S
H2814 C2826 0.930 . S
H2815 C2828 0.930 . S
H2816 C2829 0.930 1_655 S
H2817 C2833 0.959 1_556 S
H2818 C2833 0.959 . S
H2819 C2833 0.961 . S
H2820 C2834 0.960 . S
H2821 C2834 0.961 . S
H2822 C2834 0.959 1_655 S
H2823 C2837 0.929 1_655 S
H2824 C2838 0.931 1_655 S
H2825 C2840 0.930 . S
C2826 H2814 0.930 . S
C2826 C2827 1.399 . S
C2826 C2831 1.399 . S
C2827 C2826 1.399 . S
C2827 C2828 1.376 . S
C2828 H2815 0.930 . S
C2828 C2827 1.376 . S
C2828 C2829 1.388 . S
C2829 H2816 0.930 1_455 S
C2829 C2828 1.388 . S
C2829 C2830 1.390 . S
C2830 C2829 1.390 . S
C2830 C2831 1.394 . S
C2830 C2836 1.465 . S
C2831 C2826 1.399 . S
C2831 C2830 1.394 . S
C2831 C2832 1.516 . S
C2832 C2831 1.516 . S
C2832 C2833 1.502 1_556 S
C2832 C2834 1.561 1_556 S
C2832 C2835 1.526 . S
C2833 H2817 0.959 1_554 S
C2833 H2818 0.959 . S
C2833 H2819 0.961 . S
C2833 C2832 1.502 1_554 S
C2834 H2820 0.960 . S
C2834 H2821 0.961 . S
C2834 H2822 0.959 1_455 S
C2834 C2832 1.561 1_554 S
C2835 C2832 1.526 . S
C2835 C2836 1.396 . S
C2835 C2840 1.390 1_556 S
C2836 C2830 1.465 . S
C2836 C2835 1.396 . S
C2836 C2837 1.399 . S
C2837 H2823 0.929 1_455 S
C2837 C2836 1.399 . S
C2837 C2838 1.385 . S
C2838 H2824 0.931 1_455 S
C2838 C2837 1.385 . S
C2838 C2839 1.389 . S
C2839 C2838 1.389 . S
C2839 C2840 1.387 1_556 S
C2840 H2825 0.930 . S
C2840 C2835 1.390 1_554 S
C2840 C2839 1.387 1_554 S
H2841 C2853 0.930 . S
H2842 C2855 0.930 . S
H2843 C2856 0.930 . S
H2844 C2860 0.959 . S
H2845 C2860 0.959 . S
H2846 C2860 0.961 . S
H2847 C2861 0.960 . S
H2848 C2861 0.961 . S
H2849 C2861 0.959 . S
H2850 C2864 0.929 . S
H2851 C2865 0.931 . S
H2852 C2867 0.930 . S
C2853 H2841 0.930 . S
C2853 C2854 1.399 . S
C2853 C2858 1.399 . S
C2854 C2853 1.399 . S
C2854 C2855 1.376 . S
C2855 H2842 0.930 . S
C2855 C2854 1.376 . S
C2855 C2856 1.388 . S
C2856 H2843 0.930 . S
C2856 C2855 1.388 . S
C2856 C2857 1.390 . S
C2857 C2856 1.390 . S
C2857 C2858 1.394 . S
C2857 C2863 1.465 . S
C2858 C2853 1.399 . S
C2858 C2857 1.394 . S
C2858 C2859 1.516 . S
C2859 C2858 1.516 . S
C2859 C2860 1.502 . S
C2859 C2861 1.561 . S
C2859 C2862 1.526 . S
C2860 H2844 0.959 . S
C2860 H2845 0.959 . S
C2860 H2846 0.961 . S
C2860 C2859 1.502 . S
C2861 H2847 0.960 . S
C2861 H2848 0.961 . S
C2861 H2849 0.959 . S
C2861 C2859 1.561 . S
C2862 C2859 1.526 . S
C2862 C2863 1.396 . S
C2862 C2867 1.390 . S
C2863 C2857 1.465 . S
C2863 C2862 1.396 . S
C2863 C2864 1.399 . S
C2864 H2850 0.929 . S
C2864 C2863 1.399 . S
C2864 C2865 1.385 . S
C2865 H2851 0.931 . S
C2865 C2864 1.385 . S
C2865 C2866 1.389 . S
C2866 C2865 1.389 . S
C2866 C2867 1.387 . S
C2867 H2852 0.930 . S
C2867 C2862 1.390 . S
C2867 C2866 1.387 . S
H2868 C2880 0.930 . S
H2869 C2882 0.930 . S
H2870 C2883 0.930 . S
H2871 C2887 0.959 . S
H2872 C2887 0.959 . S
H2873 C2887 0.961 . S
H2874 C2888 0.960 . S
H2875 C2888 0.961 . S
H2876 C2888 0.959 . S
H2877 C2891 0.929 . S
H2878 C2892 0.931 . S
H2879 C2894 0.930 . S
C2880 H2868 0.930 . S
C2880 C2881 1.399 . S
C2880 C2885 1.399 . S
C2881 C2880 1.399 . S
C2881 C2882 1.376 . S
C2882 H2869 0.930 . S
C2882 C2881 1.376 . S
C2882 C2883 1.388 . S
C2883 H2870 0.930 . S
C2883 C2882 1.388 . S
C2883 C2884 1.390 . S
C2884 C2883 1.390 . S
C2884 C2885 1.394 . S
C2884 C2890 1.465 . S
C2885 C2880 1.399 . S
C2885 C2884 1.394 . S
C2885 C2886 1.516 . S
C2886 C2885 1.516 . S
C2886 C2887 1.502 . S
C2886 C2888 1.561 . S
C2886 C2889 1.526 . S
C2887 H2871 0.959 . S
C2887 H2872 0.959 . S
C2887 H2873 0.961 . S
C2887 C2886 1.502 . S
C2888 H2874 0.960 . S
C2888 H2875 0.961 . S
C2888 H2876 0.959 . S
C2888 C2886 1.561 . S
C2889 C2886 1.526 . S
C2889 C2890 1.396 . S
C2889 C2894 1.390 . S
C2890 C2884 1.465 . S
C2890 C2889 1.396 . S
C2890 C2891 1.399 . S
C2891 H2877 0.929 . S
C2891 C2890 1.399 . S
C2891 C2892 1.385 . S
C2892 H2878 0.931 . S
C2892 C2891 1.385 . S
C2892 C2893 1.389 . S
C2893 C2892 1.389 . S
C2893 C2894 1.387 . S
C2894 H2879 0.930 . S
C2894 C2889 1.390 . S
C2894 C2893 1.387 . S
H2895 C2907 0.930 . S
H2896 C2909 0.930 . S
H2897 C2910 0.930 . S
H2898 C2914 0.959 . S
H2899 C2914 0.959 . S
H2900 C2914 0.961 . S
H2901 C2915 0.960 . S
H2902 C2915 0.961 . S
H2903 C2915 0.959 . S
H2904 C2918 0.929 . S
H2905 C2919 0.931 . S
H2906 C2921 0.930 . S
C2907 H2895 0.930 . S
C2907 C2908 1.399 . S
C2907 C2912 1.399 . S
C2908 C2907 1.399 . S
C2908 C2909 1.376 . S
C2909 H2896 0.930 . S
C2909 C2908 1.376 . S
C2909 C2910 1.388 . S
C2910 H2897 0.930 . S
C2910 C2909 1.388 . S
C2910 C2911 1.390 . S
C2911 C2910 1.390 . S
C2911 C2912 1.394 . S
C2911 C2917 1.465 . S
C2912 C2907 1.399 . S
C2912 C2911 1.394 . S
C2912 C2913 1.516 . S
C2913 C2912 1.516 . S
C2913 C2914 1.502 . S
C2913 C2915 1.561 . S
C2913 C2916 1.526 . S
C2914 H2898 0.959 . S
C2914 H2899 0.959 . S
C2914 H2900 0.961 . S
C2914 C2913 1.502 . S
C2915 H2901 0.960 . S
C2915 H2902 0.961 . S
C2915 H2903 0.959 . S
C2915 C2913 1.561 . S
C2916 C2913 1.526 . S
C2916 C2917 1.396 . S
C2916 C2921 1.390 . S
C2917 C2911 1.465 . S
C2917 C2916 1.396 . S
C2917 C2918 1.399 . S
C2918 H2904 0.929 . S
C2918 C2917 1.399 . S
C2918 C2919 1.385 . S
C2919 H2905 0.931 . S
C2919 C2918 1.385 . S
C2919 C2920 1.389 . S
C2920 C2919 1.389 . S
C2920 C2921 1.387 . S
C2921 H2906 0.930 . S
C2921 C2916 1.390 . S
C2921 C2920 1.387 . S
H2922 C2934 0.930 . S
H2923 C2936 0.930 . S
H2924 C2937 0.930 . S
H2925 C2941 0.959 . S
H2926 C2941 0.959 . S
H2927 C2941 0.961 . S
H2928 C2942 0.960 . S
H2929 C2942 0.961 . S
H2930 C2942 0.959 . S
H2931 C2945 0.929 . S
H2932 C2946 0.931 . S
H2933 C2948 0.930 . S
C2934 H2922 0.930 . S
C2934 C2935 1.399 1_655 S
C2934 C2939 1.399 . S
C2935 C2934 1.399 1_455 S
C2935 C2936 1.376 . S
C2936 H2923 0.930 . S
C2936 C2935 1.376 . S
C2936 C2937 1.388 . S
C2937 H2924 0.930 . S
C2937 C2936 1.388 . S
C2937 C2938 1.390 . S
C2938 C2937 1.390 . S
C2938 C2939 1.394 1_455 S
C2938 C2944 1.465 . S
C2939 C2934 1.399 . S
C2939 C2938 1.394 1_655 S
C2939 C2940 1.516 . S
C2940 C2939 1.516 . S
C2940 C2941 1.502 . S
C2940 C2942 1.561 . S
C2940 C2943 1.526 . S
C2941 H2925 0.959 . S
C2941 H2926 0.959 . S
C2941 H2927 0.961 . S
C2941 C2940 1.502 . S
C2942 H2928 0.960 . S
C2942 H2929 0.961 . S
C2942 H2930 0.959 . S
C2942 C2940 1.561 . S
C2943 C2940 1.526 . S
C2943 C2944 1.396 1_655 S
C2943 C2948 1.390 . S
C2944 C2938 1.465 . S
C2944 C2943 1.396 1_455 S
C2944 C2945 1.399 . S
C2945 H2931 0.929 . S
C2945 C2944 1.399 . S
C2945 C2946 1.385 . S
C2946 H2932 0.931 . S
C2946 C2945 1.385 . S
C2946 C2947 1.389 . S
C2947 C2946 1.389 . S
C2947 C2948 1.387 1_455 S
C2948 H2933 0.930 . S
C2948 C2943 1.390 . S
C2948 C2947 1.387 1_655 S
H2949 C2961 0.930 . S
H2950 C2963 0.930 . S
H2951 C2964 0.930 . S
H2952 C2968 0.959 . S
H2953 C2968 0.959 . S
H2954 C2968 0.961 . S
H2955 C2969 0.960 . S
H2956 C2969 0.961 . S
H2957 C2969 0.959 . S
H2958 C2972 0.929 . S
H2959 C2973 0.931 . S
H2960 C2975 0.930 . S
C2961 H2949 0.930 . S
C2961 C2962 1.399 . S
C2961 C2966 1.399 . S
C2962 C2961 1.399 . S
C2962 C2963 1.376 . S
C2963 H2950 0.930 . S
C2963 C2962 1.376 . S
C2963 C2964 1.388 . S
C2964 H2951 0.930 . S
C2964 C2963 1.388 . S
C2964 C2965 1.390 . S
C2965 C2964 1.390 . S
C2965 C2966 1.394 . S
C2965 C2971 1.465 . S
C2966 C2961 1.399 . S
C2966 C2965 1.394 . S
C2966 C2967 1.516 . S
C2967 C2966 1.516 . S
C2967 C2968 1.502 . S
C2967 C2969 1.561 . S
C2967 C2970 1.526 . S
C2968 H2952 0.959 . S
C2968 H2953 0.959 . S
C2968 H2954 0.961 . S
C2968 C2967 1.502 . S
C2969 H2955 0.960 . S
C2969 H2956 0.961 . S
C2969 H2957 0.959 . S
C2969 C2967 1.561 . S
C2970 C2967 1.526 . S
C2970 C2971 1.396 . S
C2970 C2975 1.390 . S
C2971 C2965 1.465 . S
C2971 C2970 1.396 . S
C2971 C2972 1.399 . S
C2972 H2958 0.929 . S
C2972 C2971 1.399 . S
C2972 C2973 1.385 . S
C2973 H2959 0.931 . S
C2973 C2972 1.385 . S
C2973 C2974 1.389 . S
C2974 C2973 1.389 . S
C2974 C2975 1.387 . S
C2975 H2960 0.930 . S
C2975 C2970 1.390 . S
C2975 C2974 1.387 . S
H2976 C2988 0.930 . S
H2977 C2990 0.930 . S
H2978 C2991 0.930 . S
H2979 C2995 0.959 . S
H2980 C2995 0.959 . S
H2981 C2995 0.961 . S
H2982 C2996 0.960 . S
H2983 C2996 0.961 . S
H2984 C2996 0.959 . S
H2985 C2999 0.929 . S
H2986 C3000 0.931 . S
H2987 C3002 0.930 . S
C2988 H2976 0.930 . S
C2988 C2989 1.399 . S
C2988 C2993 1.399 . S
C2989 C2988 1.399 . S
C2989 C2990 1.376 . S
C2990 H2977 0.930 . S
C2990 C2989 1.376 . S
C2990 C2991 1.388 . S
C2991 H2978 0.930 . S
C2991 C2990 1.388 . S
C2991 C2992 1.390 . S
C2992 C2991 1.390 . S
C2992 C2993 1.394 . S
C2992 C2998 1.465 . S
C2993 C2988 1.399 . S
C2993 C2992 1.394 . S
C2993 C2994 1.516 . S
C2994 C2993 1.516 . S
C2994 C2995 1.502 . S
C2994 C2996 1.561 . S
C2994 C2997 1.526 . S
C2995 H2979 0.959 . S
C2995 H2980 0.959 . S
C2995 H2981 0.961 . S
C2995 C2994 1.502 . S
C2996 H2982 0.960 . S
C2996 H2983 0.961 . S
C2996 H2984 0.959 . S
C2996 C2994 1.561 . S
C2997 C2994 1.526 . S
C2997 C2998 1.396 . S
C2997 C3002 1.390 . S
C2998 C2992 1.465 . S
C2998 C2997 1.396 . S
C2998 C2999 1.399 . S
C2999 H2985 0.929 . S
C2999 C2998 1.399 . S
C2999 C3000 1.385 . S
C3000 H2986 0.931 . S
C3000 C2999 1.385 . S
C3000 C3001 1.389 . S
C3001 C3000 1.389 . S
C3001 C3002 1.387 . S
C3002 H2987 0.930 . S
C3002 C2997 1.390 . S
C3002 C3001 1.387 . S
H3003 C3015 0.930 . S
H3004 C3017 0.930 . S
H3005 C3018 0.930 . S
H3006 C3022 0.959 . S
H3007 C3022 0.959 . S
H3008 C3022 0.961 . S
H3009 C3023 0.960 . S
H3010 C3023 0.961 . S
H3011 C3023 0.959 . S
H3012 C3026 0.929 . S
H3013 C3027 0.931 . S
H3014 C3029 0.930 . S
C3015 H3003 0.930 . S
C3015 C3016 1.399 . S
C3015 C3020 1.399 . S
C3016 C3015 1.399 . S
C3016 C3017 1.376 . S
C3017 H3004 0.930 . S
C3017 C3016 1.376 . S
C3017 C3018 1.388 . S
C3018 H3005 0.930 . S
C3018 C3017 1.388 . S
C3018 C3019 1.390 . S
C3019 C3018 1.390 . S
C3019 C3020 1.394 . S
C3019 C3025 1.465 . S
C3020 C3015 1.399 . S
C3020 C3019 1.394 . S
C3020 C3021 1.516 . S
C3021 C3020 1.516 . S
C3021 C3022 1.502 . S
C3021 C3023 1.561 . S
C3021 C3024 1.526 . S
C3022 H3006 0.959 . S
C3022 H3007 0.959 . S
C3022 H3008 0.961 . S
C3022 C3021 1.502 . S
C3023 H3009 0.960 . S
C3023 H3010 0.961 . S
C3023 H3011 0.959 . S
C3023 C3021 1.561 . S
C3024 C3021 1.526 . S
C3024 C3025 1.396 . S
C3024 C3029 1.390 . S
C3025 C3019 1.465 . S
C3025 C3024 1.396 . S
C3025 C3026 1.399 . S
C3026 H3012 0.929 . S
C3026 C3025 1.399 . S
C3026 C3027 1.385 . S
C3027 H3013 0.931 . S
C3027 C3026 1.385 . S
C3027 C3028 1.389 . S
C3028 C3027 1.389 . S
C3028 C3029 1.387 . S
C3029 H3014 0.930 . S
C3029 C3024 1.390 . S
C3029 C3028 1.387 . S
H3030 C3042 0.930 . S
H3031 C3044 0.930 . S
H3032 C3045 0.930 . S
H3033 C3049 0.959 . S
H3034 C3049 0.959 . S
H3035 C3049 0.961 . S
H3036 C3050 0.960 . S
H3037 C3050 0.961 . S
H3038 C3050 0.959 . S
H3039 C3053 0.929 . S
H3040 C3054 0.931 . S
H3041 C3056 0.930 . S
C3042 H3030 0.930 . S
C3042 C3043 1.399 . S
C3042 C3047 1.399 . S
C3043 C3042 1.399 . S
C3043 C3044 1.376 . S
C3044 H3031 0.930 . S
C3044 C3043 1.376 . S
C3044 C3045 1.388 . S
C3045 H3032 0.930 . S
C3045 C3044 1.388 . S
C3045 C3046 1.390 . S
C3046 C3045 1.390 . S
C3046 C3047 1.394 . S
C3046 C3052 1.465 . S
C3047 C3042 1.399 . S
C3047 C3046 1.394 . S
C3047 C3048 1.516 . S
C3048 C3047 1.516 . S
C3048 C3049 1.502 . S
C3048 C3050 1.561 . S
C3048 C3051 1.526 . S
C3049 H3033 0.959 . S
C3049 H3034 0.959 . S
C3049 H3035 0.961 . S
C3049 C3048 1.502 . S
C3050 H3036 0.960 . S
C3050 H3037 0.961 . S
C3050 H3038 0.959 . S
C3050 C3048 1.561 . S
C3051 C3048 1.526 . S
C3051 C3052 1.396 . S
C3051 C3056 1.390 . S
C3052 C3046 1.465 . S
C3052 C3051 1.396 . S
C3052 C3053 1.399 . S
C3053 H3039 0.929 . S
C3053 C3052 1.399 . S
C3053 C3054 1.385 . S
C3054 H3040 0.931 . S
C3054 C3053 1.385 . S
C3054 C3055 1.389 . S
C3055 C3054 1.389 . S
C3055 C3056 1.387 . S
C3056 H3041 0.930 . S
C3056 C3051 1.390 . S
C3056 C3055 1.387 . S
H3057 C3069 0.930 . S
H3058 C3071 0.930 . S
H3059 C3072 0.930 . S
H3060 C3076 0.959 . S
H3061 C3076 0.959 . S
H3062 C3076 0.961 . S
H3063 C3077 0.960 . S
H3064 C3077 0.961 . S
H3065 C3077 0.959 . S
H3066 C3080 0.929 . S
H3067 C3081 0.931 . S
H3068 C3083 0.930 . S
C3069 H3057 0.930 . S
C3069 C3070 1.399 . S
C3069 C3074 1.399 . S
C3070 C3069 1.399 . S
C3070 C3071 1.376 . S
C3071 H3058 0.930 . S
C3071 C3070 1.376 . S
C3071 C3072 1.388 . S
C3072 H3059 0.930 . S
C3072 C3071 1.388 . S
C3072 C3073 1.390 . S
C3073 C3072 1.390 . S
C3073 C3074 1.394 . S
C3073 C3079 1.465 . S
C3074 C3069 1.399 . S
C3074 C3073 1.394 . S
C3074 C3075 1.516 . S
C3075 C3074 1.516 . S
C3075 C3076 1.502 . S
C3075 C3077 1.561 . S
C3075 C3078 1.526 . S
C3076 H3060 0.959 . S
C3076 H3061 0.959 . S
C3076 H3062 0.961 . S
C3076 C3075 1.502 . S
C3077 H3063 0.960 . S
C3077 H3064 0.961 . S
C3077 H3065 0.959 . S
C3077 C3075 1.561 . S
C3078 C3075 1.526 . S
C3078 C3079 1.396 . S
C3078 C3083 1.390 . S
C3079 C3073 1.465 . S
C3079 C3078 1.396 . S
C3079 C3080 1.399 . S
C3080 H3066 0.929 . S
C3080 C3079 1.399 . S
C3080 C3081 1.385 . S
C3081 H3067 0.931 . S
C3081 C3080 1.385 . S
C3081 C3082 1.389 . S
C3082 C3081 1.389 . S
C3082 C3083 1.387 . S
C3083 H3068 0.930 . S
C3083 C3078 1.390 . S
C3083 C3082 1.387 . S
H3084 C3096 0.930 . S
H3085 C3098 0.930 . S
H3086 C3099 0.930 . S
H3087 C3103 0.959 . S
H3088 C3103 0.959 . S
H3089 C3103 0.961 . S
H3090 C3104 0.960 . S
H3091 C3104 0.961 . S
H3092 C3104 0.959 . S
H3093 C3107 0.929 . S
H3094 C3108 0.931 . S
H3095 C3110 0.930 . S
C3096 H3084 0.930 . S
C3096 C3097 1.399 . S
C3096 C3101 1.399 . S
C3097 C3096 1.399 . S
C3097 C3098 1.376 . S
C3098 H3085 0.930 . S
C3098 C3097 1.376 . S
C3098 C3099 1.388 . S
C3099 H3086 0.930 . S
C3099 C3098 1.388 . S
C3099 C3100 1.390 . S
C3100 C3099 1.390 . S
C3100 C3101 1.394 . S
C3100 C3106 1.465 . S
C3101 C3096 1.399 . S
C3101 C3100 1.394 . S
C3101 C3102 1.516 . S
C3102 C3101 1.516 . S
C3102 C3103 1.502 . S
C3102 C3104 1.561 . S
C3102 C3105 1.526 . S
C3103 H3087 0.959 . S
C3103 H3088 0.959 . S
C3103 H3089 0.961 . S
C3103 C3102 1.502 . S
C3104 H3090 0.960 . S
C3104 H3091 0.961 . S
C3104 H3092 0.959 . S
C3104 C3102 1.561 . S
C3105 C3102 1.526 . S
C3105 C3106 1.396 . S
C3105 C3110 1.390 . S
C3106 C3100 1.465 . S
C3106 C3105 1.396 . S
C3106 C3107 1.399 . S
C3107 H3093 0.929 . S
C3107 C3106 1.399 . S
C3107 C3108 1.385 . S
C3108 H3094 0.931 . S
C3108 C3107 1.385 . S
C3108 C3109 1.389 . S
C3109 C3108 1.389 . S
C3109 C3110 1.387 . S
C3110 H3095 0.930 . S
C3110 C3105 1.390 . S
C3110 C3109 1.387 . S
H3111 C3123 0.930 . S
H3112 C3125 0.930 . S
H3113 C3126 0.930 . S
H3114 C3130 0.959 . S
H3115 C3130 0.959 . S
H3116 C3130 0.961 . S
H3117 C3131 0.960 . S
H3118 C3131 0.961 . S
H3119 C3131 0.959 . S
H3120 C3134 0.929 . S
H3121 C3135 0.931 . S
H3122 C3137 0.930 . S
C3123 H3111 0.930 . S
C3123 C3124 1.399 . S
C3123 C3128 1.399 . S
C3124 C3123 1.399 . S
C3124 C3125 1.376 . S
C3125 H3112 0.930 . S
C3125 C3124 1.376 . S
C3125 C3126 1.388 . S
C3126 H3113 0.930 . S
C3126 C3125 1.388 . S
C3126 C3127 1.390 . S
C3127 C3126 1.390 . S
C3127 C3128 1.394 . S
C3127 C3133 1.465 . S
C3128 C3123 1.399 . S
C3128 C3127 1.394 . S
C3128 C3129 1.516 . S
C3129 C3128 1.516 . S
C3129 C3130 1.502 . S
C3129 C3131 1.561 . S
C3129 C3132 1.526 . S
C3130 H3114 0.959 . S
C3130 H3115 0.959 . S
C3130 H3116 0.961 . S
C3130 C3129 1.502 . S
C3131 H3117 0.960 . S
C3131 H3118 0.961 . S
C3131 H3119 0.959 . S
C3131 C3129 1.561 . S
C3132 C3129 1.526 . S
C3132 C3133 1.396 . S
C3132 C3137 1.390 . S
C3133 C3127 1.465 . S
C3133 C3132 1.396 . S
C3133 C3134 1.399 . S
C3134 H3120 0.929 . S
C3134 C3133 1.399 . S
C3134 C3135 1.385 . S
C3135 H3121 0.931 . S
C3135 C3134 1.385 . S
C3135 C3136 1.389 . S
C3136 C3135 1.389 . S
C3136 C3137 1.387 . S
C3137 H3122 0.930 . S
C3137 C3132 1.390 . S
C3137 C3136 1.387 . S
H3138 C3150 0.930 . S
H3139 C3152 0.930 . S
H3140 C3153 0.930 . S
H3141 C3157 0.959 . S
H3142 C3157 0.959 . S
H3143 C3157 0.961 . S
H3144 C3158 0.960 . S
H3145 C3158 0.961 . S
H3146 C3158 0.959 . S
H3147 C3161 0.929 . S
H3148 C3162 0.931 . S
H3149 C3164 0.930 . S
C3150 H3138 0.930 . S
C3150 C3151 1.399 . S
C3150 C3155 1.399 . S
C3151 C3150 1.399 . S
C3151 C3152 1.376 . S
C3152 H3139 0.930 . S
C3152 C3151 1.376 . S
C3152 C3153 1.388 . S
C3153 H3140 0.930 . S
C3153 C3152 1.388 . S
C3153 C3154 1.390 . S
C3154 C3153 1.390 . S
C3154 C3155 1.394 . S
C3154 C3160 1.465 . S
C3155 C3150 1.399 . S
C3155 C3154 1.394 . S
C3155 C3156 1.516 . S
C3156 C3155 1.516 . S
C3156 C3157 1.502 . S
C3156 C3158 1.561 . S
C3156 C3159 1.526 . S
C3157 H3141 0.959 . S
C3157 H3142 0.959 . S
C3157 H3143 0.961 . S
C3157 C3156 1.502 . S
C3158 H3144 0.960 . S
C3158 H3145 0.961 . S
C3158 H3146 0.959 . S
C3158 C3156 1.561 . S
C3159 C3156 1.526 . S
C3159 C3160 1.396 . S
C3159 C3164 1.390 . S
C3160 C3154 1.465 . S
C3160 C3159 1.396 . S
C3160 C3161 1.399 . S
C3161 H3147 0.929 . S
C3161 C3160 1.399 . S
C3161 C3162 1.385 . S
C3162 H3148 0.931 . S
C3162 C3161 1.385 . S
C3162 C3163 1.389 . S
C3163 C3162 1.389 . S
C3163 C3164 1.387 . S
C3164 H3149 0.930 . S
C3164 C3159 1.390 . S
C3164 C3163 1.387 . S
H3165 C3177 0.930 . S
H3166 C3179 0.930 . S
H3167 C3180 0.930 . S
H3168 C3184 0.959 . S
H3169 C3184 0.959 . S
H3170 C3184 0.961 . S
H3171 C3185 0.960 . S
H3172 C3185 0.961 . S
H3173 C3185 0.959 . S
H3174 C3188 0.929 . S
H3175 C3189 0.931 . S
H3176 C3191 0.930 . S
C3177 H3165 0.930 . S
C3177 C3178 1.399 . S
C3177 C3182 1.399 . S
C3178 C3177 1.399 . S
C3178 C3179 1.376 . S
C3179 H3166 0.930 . S
C3179 C3178 1.376 . S
C3179 C3180 1.388 . S
C3180 H3167 0.930 . S
C3180 C3179 1.388 . S
C3180 C3181 1.390 . S
C3181 C3180 1.390 . S
C3181 C3182 1.394 . S
C3181 C3187 1.465 . S
C3182 C3177 1.399 . S
C3182 C3181 1.394 . S
C3182 C3183 1.516 . S
C3183 C3182 1.516 . S
C3183 C3184 1.502 . S
C3183 C3185 1.561 . S
C3183 C3186 1.526 . S
C3184 H3168 0.959 . S
C3184 H3169 0.959 . S
C3184 H3170 0.961 . S
C3184 C3183 1.502 . S
C3185 H3171 0.960 . S
C3185 H3172 0.961 . S
C3185 H3173 0.959 . S
C3185 C3183 1.561 . S
C3186 C3183 1.526 . S
C3186 C3187 1.396 . S
C3186 C3191 1.390 . S
C3187 C3181 1.465 . S
C3187 C3186 1.396 . S
C3187 C3188 1.399 . S
C3188 H3174 0.929 . S
C3188 C3187 1.399 . S
C3188 C3189 1.385 . S
C3189 H3175 0.931 . S
C3189 C3188 1.385 . S
C3189 C3190 1.389 . S
C3190 C3189 1.389 . S
C3190 C3191 1.387 . S
C3191 H3176 0.930 . S
C3191 C3186 1.390 . S
C3191 C3190 1.387 . S
H3192 C3204 0.930 . S
H3193 C3206 0.930 . S
H3194 C3207 0.930 . S
H3195 C3211 0.959 . S
H3196 C3211 0.959 . S
H3197 C3211 0.961 . S
H3198 C3212 0.960 . S
H3199 C3212 0.961 . S
H3200 C3212 0.959 . S
H3201 C3215 0.929 . S
H3202 C3216 0.931 . S
H3203 C3218 0.930 . S
C3204 H3192 0.930 . S
C3204 C3205 1.399 . S
C3204 C3209 1.399 . S
C3205 C3204 1.399 . S
C3205 C3206 1.376 . S
C3206 H3193 0.930 . S
C3206 C3205 1.376 . S
C3206 C3207 1.388 . S
C3207 H3194 0.930 . S
C3207 C3206 1.388 . S
C3207 C3208 1.390 . S
C3208 C3207 1.390 . S
C3208 C3209 1.394 . S
C3208 C3214 1.465 . S
C3209 C3204 1.399 . S
C3209 C3208 1.394 . S
C3209 C3210 1.516 . S
C3210 C3209 1.516 . S
C3210 C3211 1.502 . S
C3210 C3212 1.561 . S
C3210 C3213 1.526 . S
C3211 H3195 0.959 . S
C3211 H3196 0.959 . S
C3211 H3197 0.961 . S
C3211 C3210 1.502 . S
C3212 H3198 0.960 . S
C3212 H3199 0.961 . S
C3212 H3200 0.959 . S
C3212 C3210 1.561 . S
C3213 C3210 1.526 . S
C3213 C3214 1.396 . S
C3213 C3218 1.390 . S
C3214 C3208 1.465 . S
C3214 C3213 1.396 . S
C3214 C3215 1.399 . S
C3215 H3201 0.929 . S
C3215 C3214 1.399 . S
C3215 C3216 1.385 . S
C3216 H3202 0.931 . S
C3216 C3215 1.385 . S
C3216 C3217 1.389 . S
C3217 C3216 1.389 . S
C3217 C3218 1.387 . S
C3218 H3203 0.930 . S
C3218 C3213 1.390 . S
C3218 C3217 1.387 . S
H3219 C3231 0.930 . S
H3220 C3233 0.930 . S
H3221 C3234 0.930 . S
H3222 C3238 0.959 . S
H3223 C3238 0.959 . S
H3224 C3238 0.961 . S
H3225 C3239 0.960 . S
H3226 C3239 0.961 . S
H3227 C3239 0.959 . S
H3228 C3242 0.929 . S
H3229 C3243 0.931 . S
H3230 C3245 0.930 . S
C3231 H3219 0.930 . S
C3231 C3232 1.399 . S
C3231 C3236 1.399 . S
C3232 C3231 1.399 . S
C3232 C3233 1.376 . S
C3233 H3220 0.930 . S
C3233 C3232 1.376 . S
C3233 C3234 1.388 . S
C3234 H3221 0.930 . S
C3234 C3233 1.388 . S
C3234 C3235 1.390 . S
C3235 C3234 1.390 . S
C3235 C3236 1.394 . S
C3235 C3241 1.465 . S
C3236 C3231 1.399 . S
C3236 C3235 1.394 . S
C3236 C3237 1.516 . S
C3237 C3236 1.516 . S
C3237 C3238 1.502 . S
C3237 C3239 1.561 . S
C3237 C3240 1.526 . S
C3238 H3222 0.959 . S
C3238 H3223 0.959 . S
C3238 H3224 0.961 . S
C3238 C3237 1.502 . S
C3239 H3225 0.960 . S
C3239 H3226 0.961 . S
C3239 H3227 0.959 . S
C3239 C3237 1.561 . S
C3240 C3237 1.526 . S
C3240 C3241 1.396 . S
C3240 C3245 1.390 . S
C3241 C3235 1.465 . S
C3241 C3240 1.396 . S
C3241 C3242 1.399 . S
C3242 H3228 0.929 . S
C3242 C3241 1.399 . S
C3242 C3243 1.385 . S
C3243 H3229 0.931 . S
C3243 C3242 1.385 . S
C3243 C3244 1.389 . S
C3244 C3243 1.389 . S
C3244 C3245 1.387 . S
C3245 H3230 0.930 . S
C3245 C3240 1.390 . S
C3245 C3244 1.387 . S
H3246 C3258 0.930 . S
H3247 C3260 0.930 . S
H3248 C3261 0.930 . S
H3249 C3265 0.959 . S
H3250 C3265 0.959 . S
H3251 C3265 0.961 . S
H3252 C3266 0.960 . S
H3253 C3266 0.961 . S
H3254 C3266 0.959 . S
H3255 C3269 0.929 . S
H3256 C3270 0.931 . S
H3257 C3272 0.930 . S
C3258 H3246 0.930 . S
C3258 C3259 1.399 . S
C3258 C3263 1.399 . S
C3259 C3258 1.399 . S
C3259 C3260 1.376 . S
C3260 H3247 0.930 . S
C3260 C3259 1.376 . S
C3260 C3261 1.388 . S
C3261 H3248 0.930 . S
C3261 C3260 1.388 . S
C3261 C3262 1.390 . S
C3262 C3261 1.390 . S
C3262 C3263 1.394 . S
C3262 C3268 1.465 . S
C3263 C3258 1.399 . S
C3263 C3262 1.394 . S
C3263 C3264 1.516 . S
C3264 C3263 1.516 . S
C3264 C3265 1.502 . S
C3264 C3266 1.561 . S
C3264 C3267 1.526 . S
C3265 H3249 0.959 . S
C3265 H3250 0.959 . S
C3265 H3251 0.961 . S
C3265 C3264 1.502 . S
C3266 H3252 0.960 . S
C3266 H3253 0.961 . S
C3266 H3254 0.959 . S
C3266 C3264 1.561 . S
C3267 C3264 1.526 . S
C3267 C3268 1.396 . S
C3267 C3272 1.390 . S
C3268 C3262 1.465 . S
C3268 C3267 1.396 . S
C3268 C3269 1.399 . S
C3269 H3255 0.929 . S
C3269 C3268 1.399 . S
C3269 C3270 1.385 . S
C3270 H3256 0.931 . S
C3270 C3269 1.385 . S
C3270 C3271 1.389 . S
C3271 C3270 1.389 . S
C3271 C3272 1.387 . S
C3272 H3257 0.930 . S
C3272 C3267 1.390 . S
C3272 C3271 1.387 . S
H3273 C3285 0.930 . S
H3274 C3287 0.930 . S
H3275 C3288 0.930 . S
H3276 C3292 0.959 . S
H3277 C3292 0.959 . S
H3278 C3292 0.961 . S
H3279 C3293 0.960 . S
H3280 C3293 0.961 1_545 S
H3281 C3293 0.959 1_545 S
H3282 C3296 0.929 . S
H3283 C3297 0.931 . S
H3284 C3299 0.930 . S
C3285 H3273 0.930 . S
C3285 C3286 1.399 . S
C3285 C3290 1.399 . S
C3286 C3285 1.399 . S
C3286 C3287 1.376 1_554 S
C3287 H3274 0.930 . S
C3287 C3286 1.376 1_556 S
C3287 C3288 1.388 . S
C3288 H3275 0.930 . S
C3288 C3287 1.388 . S
C3288 C3289 1.390 1_556 S
C3289 C3288 1.390 1_554 S
C3289 C3290 1.394 . S
C3289 C3295 1.465 . S
C3290 C3285 1.399 . S
C3290 C3289 1.394 . S
C3290 C3291 1.516 . S
C3291 C3290 1.516 . S
C3291 C3292 1.502 . S
C3291 C3293 1.561 . S
C3291 C3294 1.526 . S
C3292 H3276 0.959 . S
C3292 H3277 0.959 . S
C3292 H3278 0.961 . S
C3292 C3291 1.502 . S
C3293 H3279 0.960 . S
C3293 H3280 0.961 1_565 S
C3293 H3281 0.959 1_565 S
C3293 C3291 1.561 . S
C3294 C3291 1.526 . S
C3294 C3295 1.396 . S
C3294 C3299 1.390 . S
C3295 C3289 1.465 . S
C3295 C3294 1.396 . S
C3295 C3296 1.399 1_554 S
C3296 H3282 0.929 . S
C3296 C3295 1.399 1_556 S
C3296 C3297 1.385 . S
C3297 H3283 0.931 . S
C3297 C3296 1.385 . S
C3297 C3298 1.389 1_556 S
C3298 C3297 1.389 1_554 S
C3298 C3299 1.387 . S
C3299 H3284 0.930 . S
C3299 C3294 1.390 . S
C3299 C3298 1.387 . S
H3300 C3312 0.930 . S
H3301 C3314 0.930 . S
H3302 C3315 0.930 . S
H3303 C3319 0.959 . S
H3304 C3319 0.959 . S
H3305 C3319 0.961 . S
H3306 C3320 0.960 . S
H3307 C3320 0.961 . S
H3308 C3320 0.959 . S
H3309 C3323 0.929 . S
H3310 C3324 0.931 . S
H3311 C3326 0.930 . S
C3312 H3300 0.930 . S
C3312 C3313 1.399 . S
C3312 C3317 1.399 . S
C3313 C3312 1.399 . S
C3313 C3314 1.376 . S
C3314 H3301 0.930 . S
C3314 C3313 1.376 . S
C3314 C3315 1.388 . S
C3315 H3302 0.930 . S
C3315 C3314 1.388 . S
C3315 C3316 1.390 . S
C3316 C3315 1.390 . S
C3316 C3317 1.394 . S
C3316 C3322 1.465 . S
C3317 C3312 1.399 . S
C3317 C3316 1.394 . S
C3317 C3318 1.516 . S
C3318 C3317 1.516 . S
C3318 C3319 1.502 . S
C3318 C3320 1.561 . S
C3318 C3321 1.526 . S
C3319 H3303 0.959 . S
C3319 H3304 0.959 . S
C3319 H3305 0.961 . S
C3319 C3318 1.502 . S
C3320 H3306 0.960 . S
C3320 H3307 0.961 . S
C3320 H3308 0.959 . S
C3320 C3318 1.561 . S
C3321 C3318 1.526 . S
C3321 C3322 1.396 . S
C3321 C3326 1.390 . S
C3322 C3316 1.465 . S
C3322 C3321 1.396 . S
C3322 C3323 1.399 . S
C3323 H3309 0.929 . S
C3323 C3322 1.399 . S
C3323 C3324 1.385 . S
C3324 H3310 0.931 . S
C3324 C3323 1.385 . S
C3324 C3325 1.389 . S
C3325 C3324 1.389 . S
C3325 C3326 1.387 . S
C3326 H3311 0.930 . S
C3326 C3321 1.390 . S
C3326 C3325 1.387 . S
H3327 C3339 0.930 . S
H3328 C3341 0.930 . S
H3329 C3342 0.930 . S
H3330 C3346 0.959 . S
H3331 C3346 0.959 . S
H3332 C3346 0.961 . S
H3333 C3347 0.960 . S
H3334 C3347 0.961 . S
H3335 C3347 0.959 . S
H3336 C3350 0.929 1_556 S
H3337 C3351 0.931 . S
H3338 C3353 0.930 . S
C3339 H3327 0.930 . S
C3339 C3340 1.399 . S
C3339 C3344 1.399 . S
C3340 C3339 1.399 . S
C3340 C3341 1.376 1_554 S
C3341 H3328 0.930 . S
C3341 C3340 1.376 1_556 S
C3341 C3342 1.388 . S
C3342 H3329 0.930 . S
C3342 C3341 1.388 . S
C3342 C3343 1.390 1_556 S
C3343 C3342 1.390 1_554 S
C3343 C3344 1.394 . S
C3343 C3349 1.465 . S
C3344 C3339 1.399 . S
C3344 C3343 1.394 . S
C3344 C3345 1.516 . S
C3345 C3344 1.516 . S
C3345 C3346 1.502 . S
C3345 C3347 1.561 . S
C3345 C3348 1.526 . S
C3346 H3330 0.959 . S
C3346 H3331 0.959 . S
C3346 H3332 0.961 . S
C3346 C3345 1.502 . S
C3347 H3333 0.960 . S
C3347 H3334 0.961 . S
C3347 H3335 0.959 . S
C3347 C3345 1.561 . S
C3348 C3345 1.526 . S
C3348 C3349 1.396 . S
C3348 C3353 1.390 . S
C3349 C3343 1.465 . S
C3349 C3348 1.396 . S
C3349 C3350 1.399 . S
C3350 H3336 0.929 1_554 S
C3350 C3349 1.399 . S
C3350 C3351 1.385 . S
C3351 H3337 0.931 . S
C3351 C3350 1.385 . S
C3351 C3352 1.389 . S
C3352 C3351 1.389 . S
C3352 C3353 1.387 . S
C3353 H3338 0.930 . S
C3353 C3348 1.390 . S
C3353 C3352 1.387 . S
H3354 C3366 0.930 . S
H3355 C3368 0.930 . S
H3356 C3369 0.930 . S
H3357 C3373 0.959 . S
H3358 C3373 0.959 . S
H3359 C3373 0.961 . S
H3360 C3374 0.960 . S
H3361 C3374 0.961 . S
H3362 C3374 0.959 . S
H3363 C3377 0.929 . S
H3364 C3378 0.931 . S
H3365 C3380 0.930 . S
C3366 H3354 0.930 . S
C3366 C3367 1.399 . S
C3366 C3371 1.399 . S
C3367 C3366 1.399 . S
C3367 C3368 1.376 . S
C3368 H3355 0.930 . S
C3368 C3367 1.376 . S
C3368 C3369 1.388 . S
C3369 H3356 0.930 . S
C3369 C3368 1.388 . S
C3369 C3370 1.390 . S
C3370 C3369 1.390 . S
C3370 C3371 1.394 . S
C3370 C3376 1.465 . S
C3371 C3366 1.399 . S
C3371 C3370 1.394 . S
C3371 C3372 1.516 . S
C3372 C3371 1.516 . S
C3372 C3373 1.502 . S
C3372 C3374 1.561 . S
C3372 C3375 1.526 . S
C3373 H3357 0.959 . S
C3373 H3358 0.959 . S
C3373 H3359 0.961 . S
C3373 C3372 1.502 . S
C3374 H3360 0.960 . S
C3374 H3361 0.961 . S
C3374 H3362 0.959 . S
C3374 C3372 1.561 . S
C3375 C3372 1.526 . S
C3375 C3376 1.396 . S
C3375 C3380 1.390 . S
C3376 C3370 1.465 . S
C3376 C3375 1.396 . S
C3376 C3377 1.399 . S
C3377 H3363 0.929 . S
C3377 C3376 1.399 . S
C3377 C3378 1.385 . S
C3378 H3364 0.931 . S
C3378 C3377 1.385 . S
C3378 C3379 1.389 . S
C3379 C3378 1.389 . S
C3379 C3380 1.387 . S
C3380 H3365 0.930 . S
C3380 C3375 1.390 . S
C3380 C3379 1.387 . S
H3381 C3393 0.930 . S
H3382 C3395 0.930 . S
H3383 C3396 0.930 . S
H3384 C3400 0.959 . S
H3385 C3400 0.959 . S
H3386 C3400 0.961 . S
H3387 C3401 0.960 . S
H3388 C3401 0.961 . S
H3389 C3401 0.959 . S
H3390 C3404 0.929 . S
H3391 C3405 0.931 . S
H3392 C3407 0.930 . S
C3393 H3381 0.930 . S
C3393 C3394 1.399 . S
C3393 C3398 1.399 . S
C3394 C3393 1.399 . S
C3394 C3395 1.376 . S
C3395 H3382 0.930 . S
C3395 C3394 1.376 . S
C3395 C3396 1.388 . S
C3396 H3383 0.930 . S
C3396 C3395 1.388 . S
C3396 C3397 1.390 . S
C3397 C3396 1.390 . S
C3397 C3398 1.394 . S
C3397 C3403 1.465 . S
C3398 C3393 1.399 . S
C3398 C3397 1.394 . S
C3398 C3399 1.516 . S
C3399 C3398 1.516 . S
C3399 C3400 1.502 . S
C3399 C3401 1.561 . S
C3399 C3402 1.526 . S
C3400 H3384 0.959 . S
C3400 H3385 0.959 . S
C3400 H3386 0.961 . S
C3400 C3399 1.502 . S
C3401 H3387 0.960 . S
C3401 H3388 0.961 . S
C3401 H3389 0.959 . S
C3401 C3399 1.561 . S
C3402 C3399 1.526 . S
C3402 C3403 1.396 . S
C3402 C3407 1.390 . S
C3403 C3397 1.465 . S
C3403 C3402 1.396 . S
C3403 C3404 1.399 . S
C3404 H3390 0.929 . S
C3404 C3403 1.399 . S
C3404 C3405 1.385 . S
C3405 H3391 0.931 . S
C3405 C3404 1.385 . S
C3405 C3406 1.389 . S
C3406 C3405 1.389 . S
C3406 C3407 1.387 . S
C3407 H3392 0.930 . S
C3407 C3402 1.390 . S
C3407 C3406 1.387 . S
C841 C337 1.764 . S
C829 C5 1.822 . S
C856 C23 1.010 . S
C868 C382 0.993 . S
C883 C39 1.682 . S
C895 C406 1.638 . S
C922 N432 1.040 . S
C910 C42 0.989 . S
C937 C19 1.143 . S
C949 N462 1.131 . S
C976 C496 1.600 . S
C964 C28 1.610 . S
C1003 C532 1.107 1_556 S
C991 C53 1.144 . S
C1018 C9 1.748 . S
C1030 C556 1.744 . S
C1045 C65 0.982 . S
C1057 N350 0.983 . S
C1072 C75 1.137 . S
C1084 N372 1.124 . S
C1111 C412 1.075 . S
C1099 C93 1.079 . S
C1138 C436 1.689 . S
C1126 C109 1.745 . S
C1153 C56 1.225 . S
C1165 C466 1.168 . S
C1192 C502 1.059 . S
C1180 C81 1.014 . S
C1219 N522 1.101 . S
C1207 C84 1.114 . S
C1246 C562 1.721 . S
C1234 C103 1.715 . S
C1273 C363 1.635 . S
C1261 C107 1.647 . S
C1300 C592 1.036 . S
C1288 C121 1.030 . S
C1315 C131 1.131 . S
C1327 N612 1.162 . S
C1354 C646 1.626 . S
C1342 C140 1.614 . S
C1369 C61 0.967 . S
C1381 N552 0.968 . S
C1408 N402 1.051 1_565 S
C1396 C70 1.051 . S
C1423 C137 1.068 . S
C1435 C682 1.059 . S
C1462 C706 1.051 . S
C1450 C165 0.995 . S
C1477 C173 1.793 . S
C1489 C346 1.759 1_556 S
C1516 C723 0.936 . S
C1504 C182 0.957 . S
C1531 C207 1.642 . S
C1543 C397 1.606 . S
C1558 C219 1.008 . S
C1570 N680 1.029 . S
C1597 N470 1.109 . S
C1585 C187 1.080 . S
C1624 C607 1.593 . S
C1612 C205 1.600 . S
C1651 C543 1.111 . S
C1639 C221 1.075 . S
C1678 C727 1.717 . S
C1666 C168 1.725 . S
C1705 N342 0.955 . S
C1693 C224 0.967 . S
C1720 C243 1.071 . S
C1732 N710 1.101 . S
C1759 C423 0.995 . S
C1747 C252 1.023 . S
C1774 C277 1.708 . S
C1786 C667 1.699 . S
C1801 C233 1.223 . S
C1813 C457 1.239 1_655 S
C1828 C249 1.042 . S
C1840 C633 1.026 . S
C1867 N530 1.085 . S
C1855 C261 1.100 . S
C1882 C271 1.707 . S
C1894 C753 1.660 . S
C1909 C266 1.636 . S
C1921 C352 1.585 . S
C1936 C280 0.975 . S
C1948 C603 0.951 . S
C1963 C299 1.125 . S
C1975 N500 1.113 . S
C1990 C317 1.597 . S
C2002 C637 1.585 . S
C2029 N740 0.957 . S
C2017 C229 0.951 1_565 S
C2056 N410 1.038 . S
C2044 C247 1.052 . S
C2083 C453 0.994 . S
C2071 C305 1.031 . S
C2110 C367 0.943 . S
C2098 C333 1.036 . S
C2125 C33 1.810 . S
C2137 C757 1.806 . S
C2164 C712 1.023 . S
C2152 C51 1.008 . S
C2191 C796 1.660 . S
C2179 C11 1.678 . S
C2206 C14 1.006 1_655 S
C2218 N672 1.029 . S
C2233 C47 1.097 . S
C2245 N582 1.135 1_556 S
C2272 C616 1.605 . S
C2260 C0 1.606 . S
C2299 C652 1.108 . S
C2287 C25 1.145 . S
C2326 C736 1.707 . S
C2314 C37 1.767 . S
C2353 N770 1.018 . S
C2341 C163 1.018 . S
C2368 C117 1.129 1_556 S
C2380 N702 1.118 . S
C2395 C135 1.082 . S
C2407 C802 1.063 1_655 S
C2434 C676 1.722 . S
C2422 C151 1.725 . S
C2461 C586 1.166 . S
C2449 C154 1.229 . S
C2476 C123 1.011 . S
C2488 C622 1.052 . S
C2515 N642 1.114 . S
C2503 C126 1.111 . S
C2530 C145 1.716 . S
C2542 C742 1.710 . S
C2569 C783 1.639 . S
C2557 C149 1.645 . S
C2596 C472 0.997 . S
C2584 C79 1.030 . S
C2623 N492 1.146 . S
C2611 C89 1.164 1_565 S
C2638 C98 1.617 . S
C2650 C526 1.624 . S
C2677 N732 0.961 . S
C2665 C159 0.966 . S
C2692 C112 1.060 . S
C2704 N792 1.040 . S
C2731 C442 1.063 . S
C2719 C95 1.066 . S
C2758 C376 1.043 . S
C2746 C67 1.016 . S
C2773 C201 1.785 . S
C2785 C766 1.747 . S
C2812 C393 0.932 . S
C2800 C210 0.965 . S
C2839 C787 1.635 1_556 S
C2827 C179 1.652 . S
C2854 C191 1.032 . S
C2866 N440 1.015 . S
C2881 C215 1.096 . S
C2893 N590 1.099 . S
C2908 C177 1.600 . S
C2920 C487 1.592 . S
C2935 C193 1.091 . S
C2947 C663 1.082 . S
C2962 C196 1.717 . S
C2974 C547 1.722 . S
C3001 N762 0.984 . S
C2989 C322 0.976 . S
C3016 C285 1.074 . S
C3028 N380 1.096 . S
C3055 C813 1.046 . S
C3043 C294 1.019 . S
C3070 C319 1.710 . S
C3082 C427 1.696 . S
C3097 C331 1.236 . S
C3109 C577 1.163 . S
C3136 C513 1.022 . S
C3124 C291 0.995 . S
C3151 C303 1.095 . S
C3163 N650 1.087 . S
C3190 C573 1.657 . S
C3178 C313 1.709 . S
C3217 C772 1.587 . S
C3205 C308 1.631 . S
C3244 C483 0.985 . S
C3232 C238 1.010 . S
C3259 C257 1.105 . S
C3271 N620 1.121 . S
C3298 C517 1.597 1_565 S
C3286 C275 1.603 . S
C3325 N560 0.962 . S
C3313 C327 0.950 . S
C3340 C289 1.057 . S
C3352 N800 1.032 . S
C3379 C693 0.994 . S
C3367 C263 1.031 . S
C3406 C697 0.943 . S
C3394 C235 1.036 . S
