# Generated by pormake.
# Topology gar, (4,6)-cn, num edge types: 1
# Building blocks:
#     Node 0, Type 0, BuildingBlock: NAHDIM_clean_sbu_0, # of connection points: 4
#     Node 1, Type 0, BuildingBlock: NAHDIM_clean_sbu_0, # of connection points: 4
#     Node 2, Type 0, BuildingBlock: NAHDIM_clean_sbu_0, # of connection points: 4
#     Node 3, Type 0, BuildingBlock: NAHDIM_clean_sbu_0, # of connection points: 4
#     Node 4, Type 0, BuildingBlock: NAHDIM_clean_sbu_0, # of connection points: 4
#     Node 5, Type 0, BuildingBlock: NAHDIM_clean_sbu_0, # of connection points: 4
#     Node 6, Type 0, BuildingBlock: NAHDIM_clean_sbu_0, # of connection points: 4
#     Node 7, Type 0, BuildingBlock: NAHDIM_clean_sbu_0, # of connection points: 4
#     Node 8, Type 0, BuildingBlock: NAHDIM_clean_sbu_0, # of connection points: 4
#     Node 9, Type 0, BuildingBlock: NAHDIM_clean_sbu_0, # of connection points: 4
#     Node 10, Type 0, BuildingBlock: NAHDIM_clean_sbu_0, # of connection points: 4
#     Node 11, Type 0, BuildingBlock: NAHDIM_clean_sbu_0, # of connection points: 4
#     Node 12, Type 0, BuildingBlock: NAHDIM_clean_sbu_0, # of connection points: 4
#     Node 13, Type 0, BuildingBlock: NAHDIM_clean_sbu_0, # of connection points: 4
#     Node 14, Type 0, BuildingBlock: NAHDIM_clean_sbu_0, # of connection points: 4
#     Node 15, Type 0, BuildingBlock: NAHDIM_clean_sbu_0, # of connection points: 4
#     Node 16, Type 0, BuildingBlock: NAHDIM_clean_sbu_0, # of connection points: 4
#     Node 17, Type 0, BuildingBlock: NAHDIM_clean_sbu_0, # of connection points: 4
#     Node 18, Type 0, BuildingBlock: NAHDIM_clean_sbu_0, # of connection points: 4
#     Node 19, Type 0, BuildingBlock: NAHDIM_clean_sbu_0, # of connection points: 4
#     Node 20, Type 0, BuildingBlock: NAHDIM_clean_sbu_0, # of connection points: 4
#     Node 21, Type 0, BuildingBlock: NAHDIM_clean_sbu_0, # of connection points: 4
#     Node 22, Type 0, BuildingBlock: NAHDIM_clean_sbu_0, # of connection points: 4
#     Node 23, Type 0, BuildingBlock: NAHDIM_clean_sbu_0, # of connection points: 4
#     Node 24, Type 1, BuildingBlock: BETDIP_clean_sbu_0, # of connection points: 6
#     Node 25, Type 1, BuildingBlock: BETDIP_clean_sbu_0, # of connection points: 6
#     Node 26, Type 1, BuildingBlock: BETDIP_clean_sbu_0, # of connection points: 6
#     Node 27, Type 1, BuildingBlock: BETDIP_clean_sbu_0, # of connection points: 6
#     Node 28, Type 1, BuildingBlock: BETDIP_clean_sbu_0, # of connection points: 6
#     Node 29, Type 1, BuildingBlock: BETDIP_clean_sbu_0, # of connection points: 6
#     Node 30, Type 1, BuildingBlock: BETDIP_clean_sbu_0, # of connection points: 6
#     Node 31, Type 1, BuildingBlock: BETDIP_clean_sbu_0, # of connection points: 6
#     Node 32, Type 1, BuildingBlock: BETDIP_clean_sbu_0, # of connection points: 6
#     Node 33, Type 1, BuildingBlock: BETDIP_clean_sbu_0, # of connection points: 6
#     Node 34, Type 1, BuildingBlock: BETDIP_clean_sbu_0, # of connection points: 6
#     Node 35, Type 1, BuildingBlock: BETDIP_clean_sbu_0, # of connection points: 6
#     Node 36, Type 1, BuildingBlock: BETDIP_clean_sbu_0, # of connection points: 6
#     Node 37, Type 1, BuildingBlock: BETDIP_clean_sbu_0, # of connection points: 6
#     Node 38, Type 1, BuildingBlock: BETDIP_clean_sbu_0, # of connection points: 6
#     Node 39, Type 1, BuildingBlock: BETDIP_clean_sbu_0, # of connection points: 6
#     Edge 40, Type (0, 1), BuildingBlock: EZIPEK_clean_linker_0, # of connection points: 2
#     Edge 41, Type (0, 1), BuildingBlock: EZIPEK_clean_linker_0, # of connection points: 2
#     Edge 42, Type (0, 1), BuildingBlock: EZIPEK_clean_linker_0, # of connection points: 2
#     Edge 43, Type (0, 1), BuildingBlock: EZIPEK_clean_linker_0, # of connection points: 2
#     Edge 44, Type (0, 1), BuildingBlock: EZIPEK_clean_linker_0, # of connection points: 2
#     Edge 45, Type (0, 1), BuildingBlock: EZIPEK_clean_linker_0, # of connection points: 2
#     Edge 46, Type (0, 1), BuildingBlock: EZIPEK_clean_linker_0, # of connection points: 2
#     Edge 47, Type (0, 1), BuildingBlock: EZIPEK_clean_linker_0, # of connection points: 2
#     Edge 48, Type (0, 1), BuildingBlock: EZIPEK_clean_linker_0, # of connection points: 2
#     Edge 49, Type (0, 1), BuildingBlock: EZIPEK_clean_linker_0, # of connection points: 2
#     Edge 50, Type (0, 1), BuildingBlock: EZIPEK_clean_linker_0, # of connection points: 2
#     Edge 51, Type (0, 1), BuildingBlock: EZIPEK_clean_linker_0, # of connection points: 2
#     Edge 52, Type (0, 1), BuildingBlock: EZIPEK_clean_linker_0, # of connection points: 2
#     Edge 53, Type (0, 1), BuildingBlock: EZIPEK_clean_linker_0, # of connection points: 2
#     Edge 54, Type (0, 1), BuildingBlock: EZIPEK_clean_linker_0, # of connection points: 2
#     Edge 55, Type (0, 1), BuildingBlock: EZIPEK_clean_linker_0, # of connection points: 2
#     Edge 56, Type (0, 1), BuildingBlock: EZIPEK_clean_linker_0, # of connection points: 2
#     Edge 57, Type (0, 1), BuildingBlock: EZIPEK_clean_linker_0, # of connection points: 2
#     Edge 58, Type (0, 1), BuildingBlock: EZIPEK_clean_linker_0, # of connection points: 2
#     Edge 59, Type (0, 1), BuildingBlock: EZIPEK_clean_linker_0, # of connection points: 2
#     Edge 60, Type (0, 1), BuildingBlock: EZIPEK_clean_linker_0, # of connection points: 2
#     Edge 61, Type (0, 1), BuildingBlock: EZIPEK_clean_linker_0, # of connection points: 2
#     Edge 62, Type (0, 1), BuildingBlock: EZIPEK_clean_linker_0, # of connection points: 2
#     Edge 63, Type (0, 1), BuildingBlock: EZIPEK_clean_linker_0, # of connection points: 2
#     Edge 64, Type (0, 1), BuildingBlock: EZIPEK_clean_linker_0, # of connection points: 2
#     Edge 65, Type (0, 1), BuildingBlock: EZIPEK_clean_linker_0, # of connection points: 2
#     Edge 66, Type (0, 1), BuildingBlock: EZIPEK_clean_linker_0, # of connection points: 2
#     Edge 67, Type (0, 1), BuildingBlock: EZIPEK_clean_linker_0, # of connection points: 2
#     Edge 68, Type (0, 1), BuildingBlock: EZIPEK_clean_linker_0, # of connection points: 2
#     Edge 69, Type (0, 1), BuildingBlock: EZIPEK_clean_linker_0, # of connection points: 2
#     Edge 70, Type (0, 1), BuildingBlock: EZIPEK_clean_linker_0, # of connection points: 2
#     Edge 71, Type (0, 1), BuildingBlock: EZIPEK_clean_linker_0, # of connection points: 2
#     Edge 72, Type (0, 1), BuildingBlock: EZIPEK_clean_linker_0, # of connection points: 2
#     Edge 73, Type (0, 1), BuildingBlock: EZIPEK_clean_linker_0, # of connection points: 2
#     Edge 74, Type (0, 1), BuildingBlock: EZIPEK_clean_linker_0, # of connection points: 2
#     Edge 75, Type (0, 1), BuildingBlock: EZIPEK_clean_linker_0, # of connection points: 2
#     Edge 76, Type (0, 1), BuildingBlock: EZIPEK_clean_linker_0, # of connection points: 2
#     Edge 77, Type (0, 1), BuildingBlock: EZIPEK_clean_linker_0, # of connection points: 2
#     Edge 78, Type (0, 1), BuildingBlock: EZIPEK_clean_linker_0, # of connection points: 2
#     Edge 79, Type (0, 1), BuildingBlock: EZIPEK_clean_linker_0, # of connection points: 2
#     Edge 80, Type (0, 1), BuildingBlock: EZIPEK_clean_linker_0, # of connection points: 2
#     Edge 81, Type (0, 1), BuildingBlock: EZIPEK_clean_linker_0, # of connection points: 2
#     Edge 82, Type (0, 1), BuildingBlock: EZIPEK_clean_linker_0, # of connection points: 2
#     Edge 83, Type (0, 1), BuildingBlock: EZIPEK_clean_linker_0, # of connection points: 2
#     Edge 84, Type (0, 1), BuildingBlock: EZIPEK_clean_linker_0, # of connection points: 2
#     Edge 85, Type (0, 1), BuildingBlock: EZIPEK_clean_linker_0, # of connection points: 2
#     Edge 86, Type (0, 1), BuildingBlock: EZIPEK_clean_linker_0, # of connection points: 2
#     Edge 87, Type (0, 1), BuildingBlock: EZIPEK_clean_linker_0, # of connection points: 2
#     Edge 88, Type (0, 1), BuildingBlock: EZIPEK_clean_linker_0, # of connection points: 2
#     Edge 89, Type (0, 1), BuildingBlock: EZIPEK_clean_linker_0, # of connection points: 2
#     Edge 90, Type (0, 1), BuildingBlock: EZIPEK_clean_linker_0, # of connection points: 2
#     Edge 91, Type (0, 1), BuildingBlock: EZIPEK_clean_linker_0, # of connection points: 2
#     Edge 92, Type (0, 1), BuildingBlock: EZIPEK_clean_linker_0, # of connection points: 2
#     Edge 93, Type (0, 1), BuildingBlock: EZIPEK_clean_linker_0, # of connection points: 2
#     Edge 94, Type (0, 1), BuildingBlock: EZIPEK_clean_linker_0, # of connection points: 2
#     Edge 95, Type (0, 1), BuildingBlock: EZIPEK_clean_linker_0, # of connection points: 2
#     Edge 96, Type (0, 1), BuildingBlock: EZIPEK_clean_linker_0, # of connection points: 2
#     Edge 97, Type (0, 1), BuildingBlock: EZIPEK_clean_linker_0, # of connection points: 2
#     Edge 98, Type (0, 1), BuildingBlock: EZIPEK_clean_linker_0, # of connection points: 2
#     Edge 99, Type (0, 1), BuildingBlock: EZIPEK_clean_linker_0, # of connection points: 2
#     Edge 100, Type (0, 1), BuildingBlock: EZIPEK_clean_linker_0, # of connection points: 2
#     Edge 101, Type (0, 1), BuildingBlock: EZIPEK_clean_linker_0, # of connection points: 2
#     Edge 102, Type (0, 1), BuildingBlock: EZIPEK_clean_linker_0, # of connection points: 2
#     Edge 103, Type (0, 1), BuildingBlock: EZIPEK_clean_linker_0, # of connection points: 2
#     Edge 104, Type (0, 1), BuildingBlock: EZIPEK_clean_linker_0, # of connection points: 2
#     Edge 105, Type (0, 1), BuildingBlock: EZIPEK_clean_linker_0, # of connection points: 2
#     Edge 106, Type (0, 1), BuildingBlock: EZIPEK_clean_linker_0, # of connection points: 2
#     Edge 107, Type (0, 1), BuildingBlock: EZIPEK_clean_linker_0, # of connection points: 2
#     Edge 108, Type (0, 1), BuildingBlock: EZIPEK_clean_linker_0, # of connection points: 2
#     Edge 109, Type (0, 1), BuildingBlock: EZIPEK_clean_linker_0, # of connection points: 2
#     Edge 110, Type (0, 1), BuildingBlock: EZIPEK_clean_linker_0, # of connection points: 2
#     Edge 111, Type (0, 1), BuildingBlock: EZIPEK_clean_linker_0, # of connection points: 2
#     Edge 112, Type (0, 1), BuildingBlock: EZIPEK_clean_linker_0, # of connection points: 2
#     Edge 113, Type (0, 1), BuildingBlock: EZIPEK_clean_linker_0, # of connection points: 2
#     Edge 114, Type (0, 1), BuildingBlock: EZIPEK_clean_linker_0, # of connection points: 2
#     Edge 115, Type (0, 1), BuildingBlock: EZIPEK_clean_linker_0, # of connection points: 2
#     Edge 116, Type (0, 1), BuildingBlock: EZIPEK_clean_linker_0, # of connection points: 2
#     Edge 117, Type (0, 1), BuildingBlock: EZIPEK_clean_linker_0, # of connection points: 2
#     Edge 118, Type (0, 1), BuildingBlock: EZIPEK_clean_linker_0, # of connection points: 2
#     Edge 119, Type (0, 1), BuildingBlock: EZIPEK_clean_linker_0, # of connection points: 2
#     Edge 120, Type (0, 1), BuildingBlock: EZIPEK_clean_linker_0, # of connection points: 2
#     Edge 121, Type (0, 1), BuildingBlock: EZIPEK_clean_linker_0, # of connection points: 2
#     Edge 122, Type (0, 1), BuildingBlock: EZIPEK_clean_linker_0, # of connection points: 2
#     Edge 123, Type (0, 1), BuildingBlock: EZIPEK_clean_linker_0, # of connection points: 2
#     Edge 124, Type (0, 1), BuildingBlock: EZIPEK_clean_linker_0, # of connection points: 2
#     Edge 125, Type (0, 1), BuildingBlock: EZIPEK_clean_linker_0, # of connection points: 2
#     Edge 126, Type (0, 1), BuildingBlock: EZIPEK_clean_linker_0, # of connection points: 2
#     Edge 127, Type (0, 1), BuildingBlock: EZIPEK_clean_linker_0, # of connection points: 2
#     Edge 128, Type (0, 1), BuildingBlock: EZIPEK_clean_linker_0, # of connection points: 2
#     Edge 129, Type (0, 1), BuildingBlock: EZIPEK_clean_linker_0, # of connection points: 2
#     Edge 130, Type (0, 1), BuildingBlock: EZIPEK_clean_linker_0, # of connection points: 2
#     Edge 131, Type (0, 1), BuildingBlock: EZIPEK_clean_linker_0, # of connection points: 2
#     Edge 132, Type (0, 1), BuildingBlock: EZIPEK_clean_linker_0, # of connection points: 2
#     Edge 133, Type (0, 1), BuildingBlock: EZIPEK_clean_linker_0, # of connection points: 2
#     Edge 134, Type (0, 1), BuildingBlock: EZIPEK_clean_linker_0, # of connection points: 2
#     Edge 135, Type (0, 1), BuildingBlock: EZIPEK_clean_linker_0, # of connection points: 2
# Relax obj value: 0.257
# Max RMSD: 0.367
# Mean RMSD: 0.189
data_MOF--net-gar--node1-NAHDIM_clean_sbu_0--node2-BETDIP_clean_sbu_0--edge1-EZIPEK_clean_linker_0
_symmetry_space_group_name_H-M    P1
_symmetry_Int_Tables_number       1
_symmetry_cell_setting            triclinic
loop_
_symmetry_equiv_pos_as_xyz
'x, y, z'
_cell_length_a     50.573863
_cell_length_b     43.194137
_cell_length_c     39.842197
_cell_angle_alpha  99.526183
_cell_angle_beta   101.40025
_cell_angle_gamma 102.99127
loop_
_atom_site_label
_atom_site_type_symbol
_atom_site_fract_x
_atom_site_fract_y
_atom_site_fract_z
_atom_type_partial_charge
C0 C 0.05942 0.29972 0.37707 0.0
O1 O 0.03758 0.27542 0.37431 0.0
O2 O 0.04535 0.29474 0.45794 0.0
Zn3 Zn 0.03647 0.32716 0.4304 0.0
O4 O 0.04504 0.37055 0.46425 0.0
C5 C 0.97798 0.30182 0.42414 0.0
O6 O 0.98759 0.29225 0.45258 0.0
O7 O 0.06205 0.32699 0.39712 0.0
C8 C 0.03727 0.37127 0.49285 0.0
O9 O 0.02491 0.34411 0.50025 0.0
C10 C 0.06822 0.30318 0.48135 0.0
O11 O 0.08472 0.33269 0.48689 0.0
O12 O 0.99491 0.31531 0.40775 0.0
C13 C 0.0379 0.78963 0.79969 0.0
O14 O 0.0321 0.79274 0.76702 0.0
O15 O 0.07464 0.73692 0.74281 0.0
Zn16 Zn 0.08677 0.77943 0.77955 0.0
O17 O 0.0861 0.81447 0.75296 0.0
C18 C 0.14384 0.78446 0.78545 0.0
O19 O 0.13377 0.77751 0.75141 0.0
O20 O 0.06057 0.78278 0.812 0.0
C21 C 0.09911 0.8443 0.76414 0.0
O22 O 0.11427 0.85502 0.79659 0.0
C23 C 0.07651 0.73675 0.71128 0.0
O24 O 0.08431 0.76445 0.70185 0.0
O25 O 0.12731 0.78646 0.80553 0.0
C26 C 0.57534 0.83702 0.87278 0.0
O27 O 0.54867 0.82198 0.85982 0.0
O28 O 0.54913 0.8153 0.94469 0.0
Zn29 Zn 0.55377 0.85741 0.93007 0.0
O30 O 0.56628 0.88975 0.9766 0.0
C31 C 0.49632 0.84919 0.91908 0.0
O32 O 0.50259 0.84012 0.94882 0.0
O33 O 0.58279 0.85756 0.90196 0.0
C34 C 0.55633 0.91398 0.98257 0.0
O35 O 0.54016 0.92119 0.95665 0.0
C36 C 0.57028 0.81219 0.96563 0.0
O37 O 0.59394 0.83514 0.97405 0.0
O38 O 0.51553 0.85814 0.90362 0.0
C39 C 0.53797 0.3023 0.29412 0.0
O40 O 0.53748 0.31704 0.26781 0.0
O41 O 0.56915 0.24365 0.2279 0.0
Zn42 Zn 0.58233 0.28373 0.268 0.0
O43 O 0.58819 0.32387 0.24822 0.0
C44 C 0.63851 0.2885 0.27597 0.0
O45 O 0.63097 0.29536 0.24526 0.0
O46 O 0.55549 0.28559 0.29992 0.0
C47 C 0.6022 0.35206 0.26597 0.0
O48 O 0.61282 0.35686 0.29984 0.0
C49 C 0.56574 0.24351 0.19528 0.0
O50 O 0.56881 0.27106 0.18478 0.0
O51 O 0.62053 0.28251 0.29389 0.0
C52 C 0.04125 0.81193 0.22004 0.0
O53 O 0.03293 0.79474 0.1876 0.0
O54 O 0.08506 0.77504 0.17637 0.0
Zn55 Zn 0.09593 0.82463 0.20136 0.0
O56 O 0.09048 0.85798 0.16729 0.0
C57 C 0.15617 0.82143 0.22864 0.0
O58 O 0.15282 0.80394 0.19712 0.0
O59 O 0.06712 0.82731 0.2321 0.0
C60 C 0.09458 0.88888 0.1781 0.0
O61 O 0.10457 0.90149 0.21184 0.0
C62 C 0.09161 0.75998 0.1501 0.0
O63 O 0.10655 0.77672 0.13242 0.0
O64 O 0.13648 0.83386 0.23546 0.0
C65 C 0.57214 0.7885 0.47186 0.0
O66 O 0.57999 0.79359 0.50621 0.0
O67 O 0.51808 0.7345 0.50715 0.0
Zn68 Zn 0.51565 0.77733 0.48658 0.0
O69 O 0.52605 0.82232 0.52282 0.0
C70 C 0.45419 0.77718 0.46338 0.0
O71 O 0.45469 0.77941 0.49681 0.0
O72 O 0.54597 0.78155 0.45718 0.0
C73 C 0.52051 0.84635 0.51039 0.0
O74 O 0.50859 0.84102 0.47679 0.0
C75 C 0.51678 0.72705 0.53684 0.0
O76 O 0.51189 0.74806 0.56113 0.0
O77 O 0.4762 0.77407 0.45321 0.0
C78 C 0.53916 0.31853 0.71951 0.0
O79 O 0.53045 0.30593 0.68563 0.0
O80 O 0.58307 0.27731 0.677 0.0
Zn81 Zn 0.5942 0.32701 0.70191 0.0
O82 O 0.58908 0.36127 0.66872 0.0
C83 C 0.65476 0.32439 0.72571 0.0
O84 O 0.65128 0.3107 0.69263 0.0
O85 O 0.56551 0.32971 0.73302 0.0
C86 C 0.59611 0.39239 0.68025 0.0
O87 O 0.60933 0.40402 0.71343 0.0
C88 C 0.59011 0.26188 0.65138 0.0
O89 O 0.60523 0.27829 0.63362 0.0
O90 O 0.63493 0.33503 0.73504 0.0
C91 C 0.06878 0.28508 0.97211 0.0
O92 O 0.0767 0.2871 1.00603 0.0
O93 O 1.01516 0.23206 0.0088 0.0
Zn94 Zn 1.01217 0.27456 0.98722 0.0
O95 O 0.02232 0.31976 0.02287 0.0
C96 C 0.9504 0.27458 0.96284 0.0
O97 O 0.95043 0.2772 0.99617 0.0
O98 O 0.04267 0.27988 0.95797 0.0
C99 C 0.01657 0.34342 0.00985 0.0
O100 O 1.00432 0.33741 0.97628 0.0
C101 C 0.01597 0.2261 0.03957 0.0
O102 O 1.01314 0.24849 0.06426 0.0
O103 O 0.97259 0.27105 0.95333 0.0
C104 C 0.40431 0.1494 0.34335 0.0
O105 O 0.43001 0.16628 0.35956 0.0
O106 O 0.44877 0.07169 0.28651 0.0
Zn107 Zn 0.42707 0.07679 0.33424 0.0
O108 O 0.4579 0.08469 0.3873 0.0
C109 C 0.39988 0.99783 0.32556 0.0
O110 O 0.42215 0.99334 0.31536 0.0
O111 O 0.40024 0.11748 0.33281 0.0
C112 C 0.46434 0.06252 0.40363 0.0
O113 O 0.45288 0.03195 0.38744 0.0
C114 C 0.47366 0.06968 0.28266 0.0
O115 O 0.4924 0.071 0.31123 0.0
O116 O 0.39762 0.0276 0.33255 0.0
C117 C 0.32037 0.15707 0.56792 0.0
O118 O 0.32947 0.18896 0.57455 0.0
O119 O 0.2744 0.19896 0.61049 0.0
Zn120 Zn 0.2651 0.17204 0.56002 0.0
O121 O 0.2729 0.20314 0.52496 0.0
C122 C 0.20375 0.15 0.56144 0.0
O123 O 0.20623 0.18126 0.57102 0.0
O124 O 0.29396 0.144 0.56043 0.0
C125 C 0.25738 0.20999 0.4992 0.0
O126 O 0.23028 0.19646 0.49087 0.0
C127 C 0.26897 0.22592 0.62052 0.0
O128 O 0.2573 0.24012 0.59718 0.0
O129 O 0.22438 0.14087 0.5527 0.0
C130 C 0.1876 0.03506 0.86622 0.0
O131 O 0.1668 0.02507 0.83811 0.0
O132 O 0.14094 0.08243 0.83352 0.0
Zn133 Zn 0.16452 0.09125 0.88456 0.0
O134 O 0.14183 0.08734 0.92289 0.0
C135 C 0.19298 0.15382 0.87051 0.0
O136 O 0.17041 0.1476 0.84494 0.0
O137 O 0.18964 0.06068 0.88854 0.0
C138 C 0.1294 0.0594 0.92692 0.0
O139 O 0.13019 0.03326 0.90539 0.0
C140 C 0.12159 0.05777 0.8149 0.0
O141 O 0.1123 0.03347 0.82914 0.0
O142 O 0.19381 0.1354 0.89247 0.0
C143 C 0.2193 0.93408 0.01925 0.0
O144 O 0.21539 0.9329 0.98541 0.0
O145 O 0.24655 0.84644 0.03266 0.0
Zn146 Zn 0.24009 0.87808 1.00314 0.0
O147 O 0.21161 0.857 0.95703 0.0
C148 C 0.2949 0.91569 0.02651 0.0
O149 O 0.28775 0.91512 0.0564 0.0
O150 O 0.22842 0.91238 0.03191 0.0
C151 C 0.21681 0.84103 0.93044 0.0
O152 O 0.19667 0.82773 0.90189 0.0
C153 C 0.23153 0.81811 0.03066 0.0
O154 O 0.20844 0.80549 1.00573 0.0
O155 O 0.27733 0.90063 0.99786 0.0
C156 C 0.28903 0.43712 0.12097 0.0
O157 O 0.28041 0.40533 0.11633 0.0
O158 O 0.33946 0.40019 0.17535 0.0
Zn159 Zn 0.34533 0.4243 0.13425 0.0
O160 O 0.33664 0.38944 0.08858 0.0
C161 C 0.40581 0.44668 0.13024 0.0
O162 O 0.40331 0.41534 0.12135 0.0
O163 O 0.31533 0.45069 0.12842 0.0
C164 C 0.33565 0.39818 0.05944 0.0
O165 O 0.33971 0.42922 0.05909 0.0
C166 C 0.35505 0.38677 0.19428 0.0
O167 O 0.3805 0.38849 0.19039 0.0
O168 O 0.38527 0.45606 0.13886 0.0
C169 C 0.9165 0.18256 0.17749 0.0
O170 O 0.93498 0.20116 0.20561 0.0
O171 O 0.90722 0.26529 0.20885 0.0
Zn172 Zn 0.87715 0.22244 0.18994 0.0
O173 O 0.85117 0.2306 0.15048 0.0
C174 C 0.83562 0.1776 0.20195 0.0
O175 O 0.83881 0.16514 0.17115 0.0
O176 O 0.89284 0.18794 0.1681 0.0
C177 C 0.843 0.21429 0.11911 0.0
O178 O 0.85061 0.18762 0.11 0.0
C179 C 0.90871 0.29346 0.22622 0.0
O180 O 0.93144 0.317 0.23034 0.0
O181 O 0.85287 0.20414 0.2201 0.0
C182 C 0.21993 0.46853 0.38124 0.0
O183 O 0.21471 0.47115 0.41244 0.0
O184 O 0.15962 0.52749 0.31167 0.0
Zn185 Zn 0.18756 0.53198 0.36607 0.0
O186 O 0.1647 0.5346 0.4128 0.0
C187 C 0.21147 0.60861 0.36728 0.0
O188 O 0.18498 0.6085 0.36139 0.0
O189 O 0.21157 0.48859 0.36212 0.0
C190 C 0.15141 0.55454 0.42644 0.0
O191 O 0.1487 0.57881 0.41126 0.0
C192 C 0.13985 0.54091 0.30054 0.0
O193 O 0.13164 0.55872 0.3244 0.0
O194 O 0.21756 0.58147 0.37145 0.0
C195 C 0.79343 0.9436 0.62867 0.0
O196 O 0.78515 0.91163 0.62124 0.0
O197 O 0.84841 0.90644 0.67937 0.0
Zn198 Zn 0.84922 0.93047 0.63709 0.0
O199 O 0.83616 0.89994 0.58798 0.0
C200 C 0.91152 0.95426 0.63677 0.0
O201 O 0.91289 0.92442 0.63757 0.0
O202 O 0.8197 0.95759 0.63698 0.0
C203 C 0.84859 0.88047 0.5742 0.0
O204 O 0.87058 0.87509 0.59353 0.0
C205 C 0.83875 0.87596 0.67775 0.0
O206 O 0.82972 0.85581 0.64687 0.0
O207 O 0.88859 0.96183 0.6383 0.0
C208 C 0.94169 0.07044 0.31761 0.0
O209 O 0.96668 0.08191 0.33901 0.0
O210 O 0.97486 1.00671 0.26555 0.0
Zn211 Zn 0.95554 1.00823 0.3075 0.0
O212 O 0.98255 0.02616 0.3568 0.0
C213 C 0.92311 0.93734 0.30653 0.0
O214 O 0.94466 0.92616 0.30256 0.0
O215 O 0.93321 0.0407 0.30177 0.0
C216 C 0.97789 0.01381 0.38273 0.0
O217 O 0.95724 0.98751 0.37695 0.0
C218 C 0.98881 0.03364 0.26084 0.0
O219 O 0.99169 0.06062 0.28356 0.0
O220 O 0.9246 0.9674 0.30773 0.0
C221 C 0.37094 0.61953 0.65377 0.0
O222 O 0.34424 0.61275 0.65307 0.0
O223 O 0.35561 0.71158 0.66466 0.0
Zn224 Zn 0.35915 0.67495 0.6283 0.0
O225 O 0.37799 0.68906 0.59107 0.0
C226 C 0.29903 0.65494 0.6109 0.0
O227 O 0.30153 0.68632 0.61714 0.0
O228 O 0.38241 0.64709 0.64848 0.0
C229 C 0.37625 0.70942 0.57167 0.0
O230 O 0.3928 0.71265 0.55016 0.0
C231 C 0.36986 0.74113 0.67484 0.0
O232 O 0.39147 0.75151 0.66223 0.0
O233 O 0.32046 0.64469 0.60928 0.0
C234 C 0.43374 0.57046 0.80038 0.0
O235 O 0.45869 0.57951 0.79453 0.0
O236 O 0.46355 0.51288 0.75962 0.0
Zn237 Zn 0.44645 0.50881 0.80281 0.0
O238 O 0.47439 0.52489 0.85093 0.0
C239 C 0.41467 0.43714 0.8006 0.0
O240 O 0.43666 0.42629 0.7984 0.0
O241 O 0.42438 0.54174 0.80405 0.0
C242 C 0.48246 0.50677 0.87065 0.0
O243 O 0.47519 0.47512 0.85869 0.0
C244 C 0.48975 0.52175 0.76141 0.0
O245 O 0.50748 0.52451 0.79139 0.0
O246 O 0.41595 0.4671 0.80147 0.0
C247 C 0.71324 0.95963 0.87432 0.0
O248 O 0.69255 0.94749 0.88773 0.0
O249 O 0.66128 0.02695 0.81475 0.0
Zn250 Zn 0.68893 0.03095 0.86927 0.0
O251 O 0.6649 0.03322 0.91516 0.0
C252 C 0.71213 0.10707 0.86865 0.0
O253 O 0.68569 0.10692 0.86416 0.0
O254 O 0.71443 0.98874 0.86684 0.0
C255 C 0.65784 0.0563 0.93473 0.0
O256 O 0.66482 0.0857 0.92878 0.0
C257 C 0.64026 0.03874 0.80419 0.0
O258 O 0.63025 0.05326 0.82854 0.0
O259 O 0.71861 0.08024 0.8732 0.0
C260 C 0.81875 0.65711 0.06937 0.0
O261 O 0.82815 0.689 0.07685 0.0
O262 O 0.77583 0.69947 0.11532 0.0
Zn263 Zn 0.76427 0.67348 0.06357 0.0
O264 O 0.77257 0.70478 0.02829 0.0
C265 C 0.70383 0.64968 0.07029 0.0
O266 O 0.70865 0.67926 0.08901 0.0
O267 O 0.79228 0.64438 0.06204 0.0
C268 C 0.75759 0.70972 1.0007 0.0
O269 O 0.73087 0.69428 0.99049 0.0
C270 C 0.77144 0.72636 0.12834 0.0
O271 O 0.75852 0.74181 0.10754 0.0
O272 O 0.72277 0.64254 0.05551 0.0
C273 C 0.903 0.64542 0.84037 0.0
O274 O 0.92846 0.66149 0.85847 0.0
O275 O 0.94587 0.56503 0.78171 0.0
Zn276 Zn 0.925 0.57263 0.82992 0.0
O277 O 0.9553 0.58153 0.88326 0.0
C278 C 0.89926 0.49437 0.82495 0.0
O279 O 0.9223 0.4906 0.81642 0.0
O280 O 0.89868 0.61368 0.82828 0.0
C281 C 0.96706 0.56107 0.89701 0.0
O282 O 0.96335 0.53232 0.8771 0.0
C283 C 0.97135 0.56944 0.77676 0.0
O284 O 0.99223 0.58193 0.80469 0.0
O285 O 0.89583 0.52372 0.82982 0.0
C286 C 0.71429 0.46334 0.51222 0.0
O287 O 0.72508 0.46378 0.48485 0.0
O288 O 0.74927 0.3891 0.55593 0.0
Zn289 Zn 0.74355 0.41691 0.52092 0.0
O290 O 0.73732 0.39047 0.47216 0.0
C291 C 0.8027 0.449 0.54365 0.0
O292 O 0.80443 0.42451 0.55883 0.0
O293 O 0.71617 0.44135 0.52935 0.0
C294 C 0.72627 0.36004 0.46569 0.0
O295 O 0.70998 0.34816 0.48489 0.0
C296 C 0.73021 0.36992 0.56479 0.0
O297 O 0.70379 0.36781 0.55142 0.0
O298 O 0.77904 0.45112 0.52791 0.0
C299 C 0.67984 0.52306 0.37015 0.0
O300 O 0.65294 0.51017 0.35631 0.0
O301 O 0.6443 0.57648 0.32584 0.0
Zn302 Zn 0.6657 0.58589 0.37769 0.0
O303 O 0.63916 0.58008 0.41216 0.0
C304 C 0.70469 0.63885 0.36226 0.0
O305 O 0.69456 0.61954 0.33096 0.0
O306 O 0.68918 0.55375 0.38128 0.0
C307 C 0.64693 0.57542 0.44313 0.0
O308 O 0.67325 0.57633 0.45527 0.0
C309 C 0.6182 0.56569 0.31171 0.0
O310 O 0.60062 0.55882 0.33137 0.0
O311 O 0.6948 0.63084 0.38775 0.0
Tb312 Tb 0.02606 0.02766 0.06795 0.0
Tb313 Tb 0.08062 0.06842 0.11221 0.0
C314 C 0.97419 1.00666 0.04525 0.0
C315 C 0.95361 0.02344 0.05562 0.0
C316 C 0.9469 0.02178 0.08803 0.0
C317 C 0.93681 0.04595 0.10468 0.0
C318 C 0.93269 0.07177 0.08897 0.0
C319 C 0.93539 0.0709 0.05446 0.0
C320 C 0.94598 0.04694 0.03791 0.0
C321 C 0.06631 0.03403 0.03331 0.0
C322 C 0.03932 0.10599 0.0797 0.0
C323 C 0.13279 0.08978 0.13287 0.0
C324 C 0.15238 0.07257 0.1212 0.0
C325 C 0.14216 0.04823 0.09031 0.0
C326 C 0.15889 0.0294 0.07915 0.0
C327 C 0.18623 0.03444 0.09858 0.0
C328 C 0.19701 0.05906 0.12938 0.0
C329 C 0.17998 0.07813 0.14078 0.0
C330 C 0.04045 0.06214 0.1467 0.0
C331 C 0.06517 0.98974 0.10454 0.0
O332 O 0.98852 0.99657 0.0703 0.0
O333 O 0.99034 0.0212 0.0274 0.0
O334 O 0.0629 0.05506 0.05693 0.0
O335 O 0.04521 1.00855 0.02686 0.0
O336 O 0.02009 0.07785 0.07445 0.0
O337 O 0.06593 0.10789 0.09304 0.0
O338 O 0.11773 0.09914 0.1079 0.0
O339 O 0.1174 0.07517 0.15134 0.0
O340 O 0.04398 0.04104 0.12327 0.0
O341 O 0.06147 0.08783 0.15308 0.0
O342 O 0.08488 0.01789 0.11211 0.0
O343 O 0.03953 0.98751 0.08674 0.0
H344 H 0.95191 1.00362 0.10213 0.0
H345 H 0.934 0.04565 0.13088 0.0
H346 H 0.93164 0.09029 0.04162 0.0
H347 H 0.95045 0.04856 0.01268 0.0
H348 H 0.12087 0.04325 0.07512 0.0
H349 H 0.15033 1.01026 0.05565 0.0
H350 H 0.21816 0.06299 0.14472 0.0
H351 H 0.18809 0.09663 0.1649 0.0
Tb352 Tb 0.3094 0.78829 0.31827 0.0
Tb353 Tb 0.30005 0.81894 0.3785 0.0
C354 C 0.31243 0.76674 0.2565 0.0
C355 C 0.30248 0.77277 0.2218 0.0
C356 C 0.29167 0.79955 0.21835 0.0
C357 C 0.28011 0.80365 0.18511 0.0
C358 C 0.27877 0.78066 0.15501 0.0
C359 C 0.28919 0.75358 0.15853 0.0
C360 C 0.30122 0.74982 0.19181 0.0
C361 C 0.34871 0.78581 0.37381 0.0
C362 C 0.33253 0.86757 0.34026 0.0
C363 C 0.29391 0.83378 0.43993 0.0
C364 C 0.30029 0.8178 0.46912 0.0
C365 C 0.31581 0.79487 0.46583 0.0
C366 C 0.32243 0.77932 0.49286 0.0
C367 C 0.31353 0.78618 0.52372 0.0
C368 C 0.29742 0.80859 0.52706 0.0
C369 C 0.29084 0.82446 0.49972 0.0
C370 C 0.26247 0.82333 0.32289 0.0
C371 C 0.27795 0.74012 0.35662 0.0
O372 O 0.29264 0.75423 0.27055 0.0
O373 O 0.33185 0.79013 0.27907 0.0
O374 O 0.33889 0.80983 0.36927 0.0
O375 O 0.33531 0.76234 0.3473 0.0
O376 O 0.32469 0.84073 0.31463 0.0
O377 O 0.32628 0.86434 0.37053 0.0
O378 O 0.31556 0.84788 0.42964 0.0
O379 O 0.2738 0.81602 0.41338 0.0
O380 O 0.27132 0.79861 0.32705 0.0
O381 O 0.27419 0.84574 0.35093 0.0
O382 O 0.28837 0.76628 0.38284 0.0
O383 O 0.28092 0.74414 0.32538 0.0
H384 H 0.2916 0.81678 0.24134 0.0
H385 H 0.27182 0.82447 0.18286 0.0
H386 H 0.28793 0.73541 0.13557 0.0
H387 H 0.30896 0.72864 0.19419 0.0
H388 H 0.32311 0.78912 0.44242 0.0
H389 H 0.33489 0.76209 0.48987 0.0
H390 H 0.29036 0.81403 0.55077 0.0
H391 H 0.27859 0.8419 0.50248 0.0
Tb392 Tb 0.58686 0.05558 0.5888 0.0
Tb393 Tb 0.52936 0.04825 0.61188 0.0
C394 C 0.63754 0.05794 0.58997 0.0
C395 C 0.66003 0.04117 0.59802 0.0
C396 C 0.65964 0.01933 0.62064 0.0
C397 C 0.68147 1.00401 0.62709 0.0
C398 C 0.70405 1.01027 0.61109 0.0
C399 C 0.70435 0.03224 0.58871 0.0
C400 C 0.68265 0.04743 0.58229 0.0
C401 C 0.54529 0.06241 0.53643 0.0
C402 C 0.54527 0.98468 0.57798 0.0
C403 C 0.47922 0.04798 0.61222 0.0
C404 C 0.45717 0.06521 0.60193 0.0
C405 C 0.43795 0.05492 0.56878 0.0
C406 C 0.4153 0.06868 0.56099 0.0
C407 C 0.41122 0.09301 0.58616 0.0
C408 C 0.4306 0.10365 0.61901 0.0
C409 C 0.45316 0.08991 0.62681 0.0
C410 C 0.57089 0.04175 0.6644 0.0
C411 C 0.5699 0.11944 0.6179 0.0
O412 O 0.62932 0.07239 0.61618 0.0
O413 O 0.61662 0.04337 0.56265 0.0
O414 O 0.54467 0.05685 0.56686 0.0
O415 O 0.57117 0.06435 0.53542 0.0
O416 O 0.57102 1.00267 0.58099 0.0
O417 O 0.52511 0.99736 0.58641 0.0
O418 O 0.48624 0.02978 0.58749 0.0
O419 O 0.50092 0.06384 0.63812 0.0
O420 O 0.57149 0.04676 0.6338 0.0
O421 O 0.54511 0.04001 0.6655 0.0
O422 O 0.5447 0.10121 0.61716 0.0
O423 O 0.59027 0.10681 0.61043 0.0
H424 H 0.64246 0.014 0.63311 0.0
H425 H 0.68063 0.98706 0.64433 0.0
H426 H 0.72136 0.03743 0.57594 0.0
H427 H 0.68351 0.06414 0.56477 0.0
H428 H 0.43999 0.03566 0.54908 0.0
H429 H 0.40067 0.05995 0.53548 0.0
H430 H 0.42797 0.12228 0.63892 0.0
H431 H 0.46713 0.09816 0.65279 0.0
Tb432 Tb 0.27405 0.31073 0.83787 0.0
Tb433 Tb 0.33175 0.29413 0.8492 0.0
C434 C 0.22374 0.30714 0.84016 0.0
C435 C 0.20377 0.30636 0.86346 0.0
C436 C 0.1999 0.28303 0.88426 0.0
C437 C 0.17833 0.28013 0.90215 0.0
C438 C 0.16004 0.30039 0.89965 0.0
C439 C 0.16433 0.32411 0.87957 0.0
C440 C 0.18584 0.32701 0.86172 0.0
C441 C 0.31533 0.35295 0.82491 0.0
C442 C 0.31472 0.32695 0.91575 0.0
C443 C 0.38219 0.29757 0.84775 0.0
C444 C 0.40287 0.30191 0.82539 0.0
C445 C 0.41984 0.33315 0.82693 0.0
C446 C 0.4419 0.33714 0.80999 0.0
C447 C 0.44775 0.31002 0.79109 0.0
C448 C 0.43054 0.27885 0.78889 0.0
C449 C 0.40849 0.27483 0.8059 0.0
C450 C 0.29043 0.25146 0.86129 0.0
C451 C 0.29129 0.27912 0.77116 0.0
O452 O 0.23378 0.28184 0.83408 0.0
O453 O 0.24233 0.33464 0.84277 0.0
O454 O 0.31693 0.33618 0.84804 0.0
O455 O 0.2889 0.34936 0.81089 0.0
O456 O 0.29096 0.32752 0.89482 0.0
O457 O 0.33384 0.31483 0.90376 0.0
O458 O 0.37305 0.32268 0.85838 0.0
O459 O 0.36257 0.27002 0.84045 0.0
O460 O 0.28887 0.26841 0.83833 0.0
O461 O 0.3168 0.25516 0.87558 0.0
O462 O 0.31557 0.27973 0.79188 0.0
O463 O 0.27136 0.28918 0.78346 0.0
H464 H 0.21311 0.26651 0.88608 0.0
H465 H 0.17561 0.2617 0.91752 0.0
H466 H 0.15064 0.34007 0.87719 0.0
H467 H 0.18797 0.34491 0.84564 0.0
H468 H 0.41663 0.35458 0.84214 0.0
H469 H 0.45479 0.36144 0.81221 0.0
H470 H 0.43454 0.25751 0.77453 0.0
H471 H 0.39631 0.25039 0.80454 0.0
Tb472 Tb 0.05529 0.08825 0.61003 0.0
Tb473 Tb 0.05847 0.01533 0.58463 0.0
C474 C 0.07174 0.14884 0.62855 0.0
C475 C 0.08592 0.17351 0.61259 0.0
C476 C 0.09258 0.1641 0.58052 0.0
C477 C 0.09821 0.18684 0.56005 0.0
C478 C 0.0972 0.21888 0.5718 0.0
C479 C 0.09437 0.22908 0.60592 0.0
C480 C 0.08853 0.2063 0.62624 0.0
C481 C 1.00966 0.0443 0.61411 0.0
C482 C 0.03441 0.05289 0.52905 0.0
C483 C 0.04606 0.95485 0.57366 0.0
C484 C 0.05793 0.93524 0.59584 0.0
C485 C 0.04 0.90907 0.60361 0.0
C486 C 0.04965 0.89567 0.63159 0.0
C487 C 0.07724 0.90841 0.65182 0.0
C488 C 0.0956 0.93343 0.64306 0.0
C489 C 0.08595 0.94693 0.61527 0.0
C490 C 0.10417 0.05953 0.58074 0.0
C491 C 0.07981 0.04944 0.66571 0.0
O492 O 0.08645 0.12958 0.63966 0.0
O493 O 0.04612 0.13307 0.6107 0.0
O494 O 0.03081 0.04034 0.60324 0.0
O495 O 1.01375 0.0757 0.62244 0.0
O496 O 0.04376 0.08114 0.55251 0.0
O497 O 0.03539 0.02442 0.53679 0.0
O498 O 0.03188 0.97233 0.58884 0.0
O499 O 0.06305 0.97147 0.55807 0.0
O500 O 0.08274 0.0636 0.59083 0.0
O501 O 0.10054 0.02815 0.57351 0.0
O502 O 0.07645 0.02329 0.6409 0.0
O503 O 0.07317 0.07641 0.6596 0.0
H504 H 0.09083 0.13874 0.56992 0.0
H505 H 0.10017 0.17868 0.53366 0.0
H506 H 0.09341 0.25376 0.61511 0.0
H507 H 0.08358 0.21377 0.65107 0.0
H508 H 0.0182 0.90032 0.58937 0.0
H509 H 0.03543 0.87611 0.63817 0.0
H510 H 0.117 0.94323 0.65854 0.0
H511 H 0.09996 0.96769 0.61029 0.0
Tb512 Tb 0.31657 0.77943 0.83897 0.0
Tb513 Tb 0.32388 0.84942 0.83524 0.0
C514 C 0.30828 0.71879 0.82205 0.0
C515 C 0.3268 0.69731 0.81958 0.0
C516 C 0.31585 0.66493 0.80083 0.0
C517 C 0.33353 0.64452 0.79785 0.0
C518 C 0.3623 0.65643 0.81353 0.0
C519 C 0.37327 0.68887 0.8321 0.0
C520 C 0.35561 0.70921 0.83513 0.0
C521 C 0.31272 0.81715 0.89694 0.0
C522 C 0.37719 0.82496 0.86614 0.0
C523 C 0.33011 0.90984 0.8464 0.0
C524 C 0.3108 0.92944 0.85406 0.0
C525 C 0.28172 0.9157 0.84263 0.0
C526 C 0.26329 0.93445 0.84851 0.0
C527 C 0.27362 0.96727 0.86586 0.0
C528 C 0.30264 0.98097 0.87811 0.0
C529 C 0.32116 0.96207 0.87231 0.0
C530 C 0.327 0.81066 0.77817 0.0
C531 C 0.26293 0.80395 0.81415 0.0
O532 O 0.30782 0.73747 0.79932 0.0
O533 O 0.30991 0.73454 0.85375 0.0
O534 O 0.30482 0.81924 0.86562 0.0
O535 O 0.32164 0.79119 0.89586 0.0
O536 O 0.36158 0.79459 0.85728 0.0
O537 O 0.36658 0.84987 0.86148 0.0
O538 O 0.33873 0.89487 0.87069 0.0
O539 O 0.32281 0.89095 0.81497 0.0
O540 O 0.33652 0.80997 0.80951 0.0
O541 O 0.31644 0.83527 0.77798 0.0
O542 O 0.27877 0.83388 0.82816 0.0
O543 O 0.27406 0.77899 0.81161 0.0
H544 H 0.2937 0.6555 0.78845 0.0
H545 H 0.32485 0.61952 0.78328 0.0
H546 H 0.39546 0.69838 0.84419 0.0
H547 H 0.36443 0.73418 0.84957 0.0
H548 H 0.27318 0.89064 0.82849 0.0
H549 H 0.24096 0.92359 0.83877 0.0
H550 H 0.31088 1.00636 0.89144 0.0
H551 H 0.3435 0.97304 0.88147 0.0
Tb552 Tb 0.53834 0.05533 0.07954 0.0
Tb553 Tb 0.5888 0.06641 0.13575 0.0
C554 C 0.49226 0.02928 0.03575 0.0
C555 C 0.46279 0.01727 0.03578 0.0
C556 C 0.45525 1.00396 0.06349 0.0
C557 C 0.42732 0.9889 0.06112 0.0
C558 C 0.40668 0.98718 0.03118 0.0
C559 C 0.41399 1.00146 1.00402 0.0
C560 C 0.442 0.01638 1.00629 0.0
C561 C 0.56027 0.11726 0.11224 0.0
C562 C 0.53063 0.05781 0.16064 0.0
C563 C 0.63552 0.09237 0.1782 0.0
C564 C 0.66552 0.09461 0.1843 0.0
C565 C 0.67956 0.09826 0.15753 0.0
C566 C 0.70873 0.108 0.16575 0.0
C567 C 0.72407 0.11384 0.20063 0.0
C568 C 0.71017 0.10748 0.22688 0.0
C569 C 0.68095 0.0981 0.21874 0.0
C570 C 0.5662 1.00478 0.10491 0.0
C571 C 0.59546 0.06189 0.05307 0.0
O572 O 0.50889 0.0131 0.04964 0.0
O573 O 0.50329 0.06082 0.04484 0.0
O574 O 0.55825 0.09261 0.12539 0.0
O575 O 0.55018 0.10724 0.07849 0.0
O576 O 0.51856 0.04916 0.12593 0.0
O577 O 0.55862 0.06774 0.1706 0.0
O578 O 0.62494 0.10503 0.15267 0.0
O579 O 0.61879 0.06507 0.17998 0.0
O580 O 0.56829 0.02906 0.09128 0.0
O581 O 0.57943 0.01471 0.13771 0.0
O582 O 0.60777 0.06924 0.08781 0.0
O583 O 0.56754 0.05464 0.04381 0.0
H584 H 0.471 1.00426 0.08641 0.0
H585 H 0.42183 0.97799 0.08227 0.0
H586 H 0.39815 1.00026 0.98079 0.0
H587 H 0.44753 0.02638 0.98464 0.0
H588 H 0.66807 0.0955 0.13073 0.0
H589 H 0.7193 0.11269 0.14523 0.0
H590 H 0.72185 0.1119 0.2539 0.0
H591 H 0.67042 0.09545 0.2397 0.0
Tb592 Tb 0.28083 0.2813 0.32972 0.0
Tb593 Tb 0.33223 0.32594 0.37333 0.0
C594 C 0.23005 0.24989 0.31124 0.0
C595 C 0.20469 0.25917 0.31736 0.0
C596 C 0.20586 0.28031 0.34886 0.0
C597 C 0.18175 0.28799 0.35554 0.0
C598 C 0.15601 0.27479 0.33083 0.0
C599 C 0.1548 0.25439 0.29888 0.0
C600 C 0.17904 0.24663 0.29219 0.0
C601 C 0.31244 0.31143 0.29267 0.0
C602 C 0.27997 0.35774 0.36249 0.0
C603 C 0.38288 0.35745 0.39106 0.0
C604 C 0.40756 0.34888 0.38137 0.0
C605 C 0.40687 0.33711 0.34598 0.0
C606 C 0.42993 0.32865 0.33673 0.0
C607 C 0.4541 0.33155 0.36259 0.0
C608 C 0.45485 0.34284 0.39802 0.0
C609 C 0.43173 0.35154 0.40733 0.0
C610 C 0.30035 0.29524 0.40974 0.0
C611 C 0.33338 0.24976 0.34094 0.0
O612 O 0.2476 0.24807 0.33929 0.0
O613 O 0.24292 0.26475 0.29062 0.0
O614 O 0.30851 0.32331 0.32197 0.0
O615 O 0.2972 0.28138 0.2826 0.0
O616 O 0.26594 0.32653 0.34745 0.0
O617 O 0.30777 0.36383 0.37438 0.0
O618 O 0.36445 0.36176 0.36547 0.0
O619 O 0.37099 0.34044 0.41093 0.0
O620 O 0.30483 0.28368 0.38075 0.0
O621 O 0.31528 0.32543 0.42018 0.0
O622 O 0.34736 0.281 0.35589 0.0
O623 O 0.30553 0.24342 0.32888 0.0
H624 H 0.22532 0.29039 0.3687 0.0
H625 H 0.18302 0.30359 0.38041 0.0
H626 H 0.13502 0.24381 0.27963 0.0
H627 H 0.17766 0.23038 0.26771 0.0
H628 H 0.38847 0.33434 0.32528 0.0
H629 H 0.42897 0.31994 0.30929 0.0
H630 H 0.47339 0.3452 0.41831 0.0
H631 H 0.43269 0.36031 0.43476 0.0
Tb632 Tb 0.54511 0.58239 0.10027 0.0
Tb633 Tb 0.55491 0.51508 0.08274 0.0
C634 C 0.54366 0.64047 0.1053 0.0
C635 C 0.54744 0.66435 0.08343 0.0
C636 C 0.54065 0.65461 0.04665 0.0
C637 C 0.54495 0.6778 0.02637 0.0
C638 C 0.55621 0.7108 0.04274 0.0
C639 C 0.56326 0.72049 0.07945 0.0
C640 C 0.55888 0.69732 0.09971 0.0
C641 C 0.50721 0.5334 0.11159 0.0
C642 C 0.52929 0.54367 0.02045 0.0
C643 C 0.5495 0.45558 0.0779 0.0
C644 C 0.56588 0.43965 0.10027 0.0
C645 C 0.55245 0.41031 0.10738 0.0
C646 C 0.56478 0.39989 0.13636 0.0
C647 C 0.59056 0.4188 0.15834 0.0
C648 C 0.60496 0.44693 0.14987 0.0
C649 C 0.59263 0.45736 0.12087 0.0
C650 C 0.60078 0.56014 0.08121 0.0
C651 C 0.57522 0.55686 0.16193 0.0
O652 O 0.5662 0.63183 0.11778 0.0
O653 O 0.52134 0.61574 0.09348 0.0
O654 O 0.51917 0.53301 0.08645 0.0
O655 O 0.51518 0.56305 0.1298 0.0
O656 O 0.53554 0.57226 0.04259 0.0
O657 O 0.53227 0.51694 0.03104 0.0
O658 O 0.53531 0.47181 0.09464 0.0
O659 O 0.56255 0.47213 0.05847 0.0
O660 O 0.57822 0.56411 0.08804 0.0
O661 O 0.59812 0.52911 0.07568 0.0
O662 O 0.56778 0.52763 0.14057 0.0
O663 O 0.5721 0.58304 0.15028 0.0
H664 H 0.5319 0.62924 0.0336 0.0
H665 H 0.53932 0.67013 0.99802 0.0
H666 H 0.57186 0.74599 0.0923 0.0
H667 H 0.56439 0.70512 0.12806 0.0
H668 H 0.5316 0.39679 0.09213 0.0
H669 H 0.55353 0.37808 0.14282 0.0
H670 H 0.62487 0.46162 0.16675 0.0
H671 H 0.60304 0.48042 0.11607 0.0
Tb672 Tb 0.79935 0.25518 0.3358 0.0
Tb673 Tb 0.81252 0.32871 0.35921 0.0
C674 C 0.79815 0.19698 0.31295 0.0
C675 C 0.8189 0.17826 0.31222 0.0
C676 C 0.81058 0.14542 0.29486 0.0
C677 C 0.83038 0.12748 0.29442 0.0
C678 C 0.85854 0.14231 0.31172 0.0
C679 C 0.86668 0.17489 0.32976 0.0
C680 C 0.84693 0.19264 0.33008 0.0
C681 C 0.77724 0.27636 0.38683 0.0
C682 C 0.86017 0.2949 0.38267 0.0
C683 C 0.81776 0.38623 0.38974 0.0
C684 C 0.79779 0.40661 0.3876 0.0
C685 C 0.7706 0.39505 0.39194 0.0
C686 C 0.7517 0.41418 0.38917 0.0
C687 C 0.75945 0.44496 0.38144 0.0
C688 C 0.78639 0.45644 0.3766 0.0
C689 C 0.80544 0.43741 0.37972 0.0
C690 C 0.82189 0.3075 0.2969 0.0
C691 C 0.75426 0.28914 0.3108 0.0
O692 O 0.79908 0.21888 0.29365 0.0
O693 O 0.79528 0.20808 0.34427 0.0
O694 O 0.80088 0.28837 0.38203 0.0
O695 O 0.76505 0.25035 0.36252 0.0
O696 O 0.84209 0.26631 0.36763 0.0
O697 O 0.85323 0.32282 0.38359 0.0
O698 O 0.81163 0.36118 0.40401 0.0
O699 O 0.82651 0.37892 0.36144 0.0
O700 O 0.82555 0.29593 0.32388 0.0
O701 O 0.81187 0.33218 0.30466 0.0
O702 O 0.76768 0.31368 0.33767 0.0
O703 O 0.76648 0.2668 0.29968 0.0
H704 H 0.78882 0.13367 0.28192 0.0
H705 H 0.82376 0.10204 0.28108 0.0
H706 H 0.88826 0.18645 0.34383 0.0
H707 H 0.85351 0.21731 0.3449 0.0
H708 H 0.76381 0.37111 0.39712 0.0
H709 H 0.73091 0.40485 0.39272 0.0
H710 H 0.79265 0.48015 0.37056 0.0
H711 H 0.82615 0.44672 0.37597 0.0
Tb712 Tb 0.03327 0.55587 0.57326 0.0
Tb713 Tb 0.08203 0.55436 0.62385 0.0
C714 C 0.99107 0.54204 0.52274 0.0
C715 C 0.96137 0.53989 0.51915 0.0
C716 C 0.94225 0.51151 0.49781 0.0
C717 C 0.91501 0.50295 0.50155 0.0
C718 C 0.9063 0.52307 0.52611 0.0
C719 C 0.92453 0.5533 0.54477 0.0
C720 C 0.95224 0.5614 0.54187 0.0
C721 C 0.05557 0.61142 0.6189 0.0
C722 C 0.02338 0.55148 0.65021 0.0
C723 C 0.12516 0.56654 0.67263 0.0
C724 C 0.1541 0.56759 0.67154 0.0
C725 C 0.17505 0.59532 0.69117 0.0
C726 C 0.20027 0.6039 0.68158 0.0
C727 C 0.20497 0.58453 0.65259 0.0
C728 C 0.1854 0.55473 0.63556 0.0
C729 C 0.15983 0.5465 0.64466 0.0
C730 C 0.05862 0.49891 0.57802 0.0
C731 C 0.09198 0.55858 0.54711 0.0
O732 O 0.99921 0.52082 0.53929 0.0
O733 O 1.00893 0.57091 0.53299 0.0
O734 O 0.06925 0.59355 0.60532 0.0
O735 O 0.02932 0.60013 0.60342 0.0
O736 O 1.01127 0.5506 0.61689 0.0
O737 O 0.05042 0.55136 0.65778 0.0
O738 O 0.11638 0.58873 0.65848 0.0
O739 O 0.10668 0.53809 0.66268 0.0
O740 O 0.04574 0.51706 0.5926 0.0
O741 O 0.08516 0.51024 0.59187 0.0
O742 O 0.10417 0.56029 0.58054 0.0
O743 O 0.06475 0.55759 0.53909 0.0
H744 H 0.94905 0.49455 0.48039 0.0
H745 H 0.90116 0.47969 0.48664 0.0
H746 H 0.91794 0.56927 0.56347 0.0
H747 H 0.96684 0.58325 0.55891 0.0
H748 H 0.17087 0.61203 0.71169 0.0
H749 H 0.21534 0.6268 0.69526 0.0
H750 H 0.18895 0.53936 0.61342 0.0
H751 H 0.1438 0.52517 0.62884 0.0
Tb752 Tb 0.78195 0.81201 0.34638 0.0
Tb753 Tb 0.83883 0.79346 0.35689 0.0
C754 C 0.73187 0.81129 0.34762 0.0
C755 C 0.71049 0.80673 0.369 0.0
C756 C 0.68966 0.77698 0.36137 0.0
C757 C 0.66729 0.77341 0.37777 0.0
C758 C 0.66497 0.79951 0.40226 0.0
C759 C 0.68597 0.82911 0.41046 0.0
C760 C 0.70836 0.83274 0.39397 0.0
C761 C 0.8242 0.85403 0.33397 0.0
C762 C 0.82278 0.82624 0.42374 0.0
C763 C 0.88826 0.7922 0.35437 0.0
C764 C 0.90836 0.79568 0.33126 0.0
C765 C 0.92066 0.82624 0.32511 0.0
C766 C 0.94216 0.83006 0.30728 0.0
C767 C 0.95191 0.80338 0.29491 0.0
C768 C 0.93926 0.77267 0.30029 0.0
C769 C 0.91788 0.76891 0.31836 0.0
C770 C 0.79631 0.75196 0.3697 0.0
C771 C 0.79915 0.781 0.27929 0.0
O772 O 0.73976 0.78567 0.33535 0.0
O773 O 0.75265 0.8379 0.35696 0.0
O774 O 0.82515 0.83625 0.35608 0.0
O775 O 0.79787 0.85168 0.32102 0.0
O776 O 0.79765 0.82358 0.40381 0.0
O777 O 0.84316 0.81804 0.41093 0.0
O778 O 0.88125 0.81832 0.36716 0.0
O779 O 0.86709 0.76606 0.3459 0.0
O780 O 0.79534 0.76868 0.34655 0.0
O781 O 0.82263 0.75489 0.38324 0.0
O782 O 0.82385 0.78266 0.29955 0.0
O783 O 0.77877 0.78948 0.29197 0.0
H784 H 0.69025 0.75653 0.34197 0.0
H785 H 0.65149 0.75031 0.37094 0.0
H786 H 0.68476 0.84964 0.42925 0.0
H787 H 0.72364 0.85617 0.40021 0.0
H788 H 0.91416 0.84744 0.33481 0.0
H789 H 0.95146 0.85401 0.30353 0.0
H790 H 0.94631 0.75167 0.29104 0.0
H791 H 0.90924 0.74513 0.323 0.0
Tb792 Tb 0.80775 0.28673 0.81418 0.0
Tb793 Tb 0.79659 0.31591 0.87371 0.0
C794 C 0.81123 0.26891 0.75207 0.0
C795 C 0.80289 0.2803 0.71989 0.0
C796 C 0.80846 0.31372 0.72023 0.0
C797 C 0.79553 0.32432 0.6917 0.0
C798 C 0.77696 0.30169 0.66262 0.0
C799 C 0.77242 0.26828 0.6614 0.0
C800 C 0.78538 0.25764 0.68994 0.0
C801 C 0.84607 0.28343 0.87013 0.0
C802 C 0.83034 0.36565 0.83919 0.0
C803 C 0.78756 0.33006 0.93347 0.0
C804 C 0.79177 0.31291 0.96187 0.0
C805 C 0.8079 0.29048 0.95994 0.0
C806 C 0.8121 0.27342 0.98617 0.0
C807 C 0.80024 0.27857 0.01473 0.0
C808 C 0.78349 0.30038 0.01655 0.0
C809 C 0.77919 0.31753 0.98998 0.0
C810 C 0.76041 0.32018 0.81654 0.0
C811 C 0.77651 0.23706 0.85175 0.0
O812 O 0.79028 0.25632 0.76437 0.0
O813 O 0.83203 0.28833 0.77691 0.0
O814 O 0.83613 0.30751 0.866 0.0
O815 O 0.83344 0.26041 0.84283 0.0
O816 O 0.82155 0.33999 0.81214 0.0
O817 O 0.82525 0.36111 0.86954 0.0
O818 O 0.81035 0.34396 0.92528 0.0
O819 O 0.76818 0.31326 0.90576 0.0
O820 O 0.76906 0.29562 0.82165 0.0
O821 O 0.77167 0.34282 0.84449 0.0
O822 O 0.78466 0.26332 0.87781 0.0
O823 O 0.78143 0.24106 0.8212 0.0
H824 H 0.82171 0.33171 0.74307 0.0
H825 H 0.79923 0.35021 0.6928 0.0
H826 H 0.75816 0.25062 0.63896 0.0
H827 H 0.78065 0.23178 0.68936 0.0
H828 H 0.8176 0.28639 0.93834 0.0
H829 H 0.82527 0.25685 0.9847 0.0
H830 H 0.7745 0.30469 0.03885 0.0
H831 H 0.76643 0.33454 0.99153 0.0
Tb832 Tb 0.78198 0.77964 0.82827 0.0
Tb833 Tb 0.83251 0.82354 0.87236 0.0
C834 C 0.73117 0.74933 0.80871 0.0
C835 C 0.70654 0.76057 0.81484 0.0
C836 C 0.70251 0.76736 0.849 0.0
C837 C 0.6807 0.78043 0.85534 0.0
C838 C 0.66239 0.78691 0.82774 0.0
C839 C 0.66599 0.77991 0.79353 0.0
C840 C 0.68795 0.76683 0.78712 0.0
C841 C 0.81322 0.81139 0.79158 0.0
C842 C 0.78014 0.85516 0.8625 0.0
C843 C 0.88323 0.8549 0.89057 0.0
C844 C 0.90804 0.84604 0.8815 0.0
C845 C 0.90793 0.8346 0.84623 0.0
C846 C 0.93093 0.82543 0.83762 0.0
C847 C 0.95447 0.82727 0.86397 0.0
C848 C 0.95478 0.83859 0.89924 0.0
C849 C 0.9317 0.84796 0.90794 0.0
C850 C 0.80062 0.79234 0.90848 0.0
C851 C 0.83386 0.74753 0.8392 0.0
O852 O 0.74819 0.74627 0.83654 0.0
O853 O 0.74475 0.76335 0.78814 0.0
O854 O 0.80918 0.82244 0.82112 0.0
O855 O 0.79872 0.78104 0.78151 0.0
O856 O 0.76637 0.824 0.84694 0.0
O857 O 0.80795 0.86142 0.87447 0.0
O858 O 0.86505 0.85901 0.86457 0.0
O859 O 0.87102 0.83829 0.91049 0.0
O860 O 0.80527 0.78085 0.8795 0.0
O861 O 0.81526 0.82265 0.91891 0.0
O862 O 0.8478 0.77864 0.85481 0.0
O863 O 0.80614 0.74142 0.82671 0.0
H864 H 0.71638 0.76296 0.87105 0.0
H865 H 0.67805 0.78547 0.88186 0.0
H866 H 0.65181 0.78452 0.7719 0.0
H867 H 0.6906 0.76195 0.7606 0.0
H868 H 0.88998 0.83247 0.82515 0.0
H869 H 0.93035 0.81678 0.81028 0.0
H870 H 0.97285 0.84021 0.91991 0.0
H871 H 0.93227 0.85654 0.93527 0.0
Tb872 Tb 0.53059 0.53072 0.56708 0.0
Tb873 Tb 0.57928 0.57221 0.61477 0.0
C874 C 0.48054 0.50427 0.53373 0.0
C875 C 0.45516 0.51231 0.54153 0.0
C876 C 0.43865 0.4923 0.55828 0.0
C877 C 0.4216 0.50481 0.57748 0.0
C878 C 0.42014 0.53704 0.579 0.0
C879 C 0.43351 0.55538 0.55826 0.0
C880 C 0.45094 0.54316 0.53968 0.0
C881 C 0.57434 0.54008 0.53732 0.0
C882 C 0.5401 0.60693 0.57567 0.0
C883 C 0.62956 0.60063 0.64443 0.0
C884 C 0.65277 0.60014 0.62752 0.0
C885 C 0.64786 0.59913 0.59126 0.0
C886 C 0.6626 0.58357 0.57108 0.0
C887 C 0.68235 0.56907 0.58699 0.0
C888 C 0.69023 0.57432 0.6237 0.0
C889 C 0.67542 0.58986 0.64398 0.0
C890 C 0.53677 0.56224 0.6463 0.0
C891 C 0.56913 0.49517 0.60775 0.0
O892 O 0.49426 0.49222 0.55728 0.0
O893 O 0.49751 0.52645 0.52383 0.0
O894 O 0.56821 0.56058 0.55872 0.0
O895 O 0.55489 0.51319 0.5313 0.0
O896 O 0.52121 0.57926 0.57331 0.0
O897 O 0.56668 0.60808 0.58678 0.0
O898 O 0.61165 0.61582 0.63188 0.0
O899 O 0.61695 0.57203 0.64805 0.0
O900 O 0.54236 0.54201 0.62391 0.0
O901 O 0.55522 0.58956 0.65059 0.0
O902 O 0.5881 0.52356 0.61353 0.0
O903 O 0.543 0.49268 0.5919 0.0
H904 H 0.44123 0.46829 0.55975 0.0
H905 H 0.41125 0.49024 0.59319 0.0
H906 H 0.43227 0.58017 0.55876 0.0
H907 H 0.46284 0.55902 0.52641 0.0
H908 H 0.63043 0.60675 0.57781 0.0
H909 H 0.65661 0.57993 0.54279 0.0
H910 H 0.70553 0.56318 0.63622 0.0
H911 H 0.67935 0.59014 0.67178 0.0
Tb912 Tb 0.08468 0.55278 0.08416 0.0
Tb913 Tb 0.02756 0.54696 0.10802 0.0
C914 C 0.13499 0.55411 0.08434 0.0
C915 C 0.15711 0.53674 0.09168 0.0
C916 C 0.15769 0.51651 0.11598 0.0
C917 C 0.17923 0.50073 0.12186 0.0
C918 C 0.20054 0.50492 0.1036 0.0
C919 C 0.19985 0.52521 0.07947 0.0
C920 C 0.17843 0.54087 0.0736 0.0
C921 C 0.04323 0.55989 0.03203 0.0
C922 C 0.04257 0.4825 0.07483 0.0
C923 C 0.97754 0.54731 0.1085 0.0
C924 C 0.95555 0.56481 0.0989 0.0
C925 C 0.93621 0.55505 0.06583 0.0
C926 C 0.91351 0.56886 0.05872 0.0
C927 C 0.90947 0.5927 0.08449 0.0
C928 C 0.92897 0.60282 0.11725 0.0
C929 C 0.95159 0.58905 0.12439 0.0
C930 C 0.06918 0.54057 0.16047 0.0
C931 C 0.06895 0.61743 0.11348 0.0
O932 O 0.12729 0.56876 0.11093 0.0
O933 O 0.11379 0.53995 0.05725 0.0
O934 O 0.0426 0.55463 0.06257 0.0
O935 O 0.06898 0.56139 0.0308 0.0
O936 O 0.06835 0.50004 0.07719 0.0
O937 O 0.02272 0.49571 0.08334 0.0
O938 O 0.98443 0.52945 0.08336 0.0
O939 O 0.99929 0.56266 0.13453 0.0
O940 O 0.06961 0.54509 0.12966 0.0
O941 O 0.04349 0.53911 0.16181 0.0
O942 O 0.0437 0.59979 0.11338 0.0
O943 O 0.08881 0.60421 0.1053 0.0
H944 H 0.14151 0.51284 0.13026 0.0
H945 H 0.17922 0.48512 0.14051 0.0
H946 H 0.21589 0.52881 0.06498 0.0
H947 H 0.1785 0.55631 0.05476 0.0
H948 H 0.93819 0.53616 0.04567 0.0
H949 H 0.89879 0.56053 0.03325 0.0
H950 H 0.9264 0.62108 0.13762 0.0
H951 H 0.96563 0.59686 0.15033 0.0
C952 C 0.04266 0.19644 0.07931 0.0
C953 C 0.02165 0.1948 0.04885 0.0
C954 C 1.01204 0.13446 0.03741 0.0
C955 C 0.03131 0.13615 0.0698 0.0
N956 N 0.05827 0.17013 0.12588 0.0
N957 N 0.98198 0.16095 1.00353 0.0
C958 C 0.04468 0.16757 0.0919 0.0
C959 C 1.00512 0.16341 0.02924 0.0
N960 N 0.06172 0.22549 0.0957 0.0
N961 N 1.0011 0.1056 0.01333 0.0
H962 H 0.97603 0.1812 0.99696 0.0
H963 H 0.96721 0.13892 0.99118 0.0
H964 H 1.00535 0.08385 0.01721 0.0
H965 H 0.98977 0.10381 0.98791 0.0
H966 H 0.07911 0.22754 0.1158 0.0
H967 H 0.062 0.24684 0.08665 0.0
H968 H 0.06608 0.19225 0.14416 0.0
H969 H 0.0586 0.14993 0.13695 0.0
C970 C 0.20725 0.84888 0.25891 0.0
C971 C 0.18244 0.82442 0.25622 0.0
C972 C 0.20927 0.80067 0.29955 0.0
C973 C 0.23471 0.82312 0.29957 0.0
N974 N 0.25777 0.87003 0.28088 0.0
N975 N 0.15947 0.77677 0.27356 0.0
C976 C 0.23352 0.84776 0.27983 0.0
C977 C 0.18343 0.80031 0.2765 0.0
N978 N 0.20542 0.8737 0.24199 0.0
N979 N 0.20938 0.78119 0.32335 0.0
H980 H 0.13985 0.77791 0.26041 0.0
H981 H 0.15905 0.75565 0.28302 0.0
H982 H 0.22732 0.78163 0.34169 0.0
H983 H 0.19137 0.7667 0.32739 0.0
H984 H 0.22184 0.89406 0.24461 0.0
H985 H 0.1866 0.87507 0.2267 0.0
H986 H 0.2596 0.88622 0.26432 0.0
H987 H 0.2767 0.87181 0.29805 0.0
C988 C 0.51977 0.89058 0.56172 0.0
C989 C 0.52949 0.88103 0.53144 0.0
C990 C 0.54613 0.93887 0.52996 0.0
C991 C 0.53884 0.94876 0.56199 0.0
N992 N 0.52351 0.93339 0.61194 0.0
N993 N 0.55894 0.89706 0.49316 0.0
C994 C 0.52699 0.92441 0.57892 0.0
C995 C 0.54482 0.90554 0.51761 0.0
N996 N 0.50268 0.86764 0.57327 0.0
N997 N 0.5529 0.96101 0.51008 0.0
H998 H 0.55952 0.87311 0.48463 0.0
H999 H 0.57261 0.91411 0.48456 0.0
H1000 H 0.55254 0.98527 0.51686 0.0
H1001 H 0.55569 0.95445 0.4849 0.0
H1002 H 0.49238 0.87344 0.59267 0.0
H1003 H 0.49711 0.84288 0.5616 0.0
H1004 H 0.51769 0.91674 0.62705 0.0
H1005 H 0.52891 0.95763 0.62547 0.0
C1006 C 0.49573 0.33409 0.73029 0.0
C1007 C 0.51778 0.31964 0.74091 0.0
C1008 C 0.49611 0.30368 0.78803 0.0
C1009 C 0.47225 0.31417 0.77431 0.0
N1010 N 0.44788 0.33568 0.72915 0.0
N1011 N 0.5369 0.28669 0.77741 0.0
C1012 C 0.47174 0.32852 0.74462 0.0
C1013 C 0.51754 0.30357 0.76933 0.0
N1014 N 0.49815 0.35413 0.70723 0.0
N1015 N 0.49868 0.29457 0.81952 0.0
H1016 H 0.55278 0.28577 0.76443 0.0
H1017 H 0.53584 0.27138 0.79501 0.0
H1018 H 0.48362 0.29449 0.83403 0.0
H1019 H 0.51685 0.29005 0.83279 0.0
H1020 H 0.48425 0.36804 0.70113 0.0
H1021 H 0.51567 0.35951 0.69696 0.0
H1022 H 0.44509 0.34274 0.70521 0.0
H1023 H 0.42988 0.33184 0.73862 0.0
C1024 C 0.10753 0.85638 0.70777 0.0
C1025 C 0.09885 0.86561 0.73885 0.0
C1026 C 0.08245 0.90864 0.71545 0.0
C1027 C 0.08683 0.89556 0.68256 0.0
N1028 N 0.10217 0.85629 0.64608 0.0
N1029 N 0.07705 0.89964 0.77244 0.0
C1030 C 0.09923 0.86941 0.67839 0.0
C1031 C 0.08647 0.89192 0.74308 0.0
N1032 N 0.1243 0.83569 0.70673 0.0
N1033 N 0.07448 0.93697 0.72013 0.0
H1034 H 0.08005 0.88832 0.7935 0.0
H1035 H 0.0648 0.91588 0.77511 0.0
H1036 H 0.07079 0.94944 0.70011 0.0
H1037 H 0.07373 0.94954 0.74445 0.0
H1038 H 0.13366 0.83054 0.68618 0.0
H1039 H 0.13119 0.82629 0.72816 0.0
H1040 H 0.10775 0.83456 0.64052 0.0
H1041 H 0.09721 0.86593 0.62404 0.0
C1042 C 0.45235 0.86677 0.91581 0.0
C1043 C 0.46662 0.84481 0.9023 0.0
C1044 C 0.42269 0.8112 0.86214 0.0
C1045 C 0.40792 0.83116 0.87883 0.0
N1046 N 0.40869 0.87306 0.92777 0.0
N1047 N 0.46512 0.79328 0.86668 0.0
C1048 C 0.42274 0.8577 0.90734 0.0
C1049 C 0.45172 0.81616 0.87662 0.0
N1050 N 0.46708 0.89659 0.93629 0.0
N1051 N 0.40953 0.78842 0.83174 0.0
H1052 H 0.4866 0.79657 0.87568 0.0
H1053 H 0.45464 0.77002 0.85163 0.0
H1054 H 0.38878 0.78475 0.81866 0.0
H1055 H 0.41996 0.77517 0.81732 0.0
H1056 H 0.45773 0.91477 0.94429 0.0
H1057 H 0.48879 0.90432 0.94184 0.0
H1058 H 0.41879 0.89048 0.95086 0.0
H1059 H 0.38703 0.86579 0.92415 0.0
C1060 C 0.58662 0.19872 0.17698 0.0
C1061 C 0.56425 0.21304 0.17058 0.0
C1062 C 0.53846 0.16518 0.12321 0.0
C1063 C 0.56009 0.14959 0.13296 0.0
N1064 N 0.59709 0.14833 0.18134 0.0
N1065 N 0.51737 0.20923 0.13952 0.0
C1066 C 0.58206 0.16536 0.16323 0.0
C1067 C 0.53977 0.19626 0.14387 0.0
N1068 N 0.6125 0.21696 0.19602 0.0
N1069 N 0.51597 0.14978 0.09569 0.0
H1070 H 0.51802 0.23204 0.15383 0.0
H1071 H 0.49772 0.19682 0.12334 0.0
H1072 H 0.51107 0.12507 0.08435 0.0
H1073 H 0.50195 0.16157 0.08416 0.0
H1074 H 0.62999 0.20771 0.19859 0.0
H1075 H 0.6169 0.242 0.20509 0.0
H1076 H 0.6124 0.15917 0.20463 0.0
H1077 H 0.5907 0.1232 0.17702 0.0
C1078 C 0.09593 0.26894 0.37548 0.0
C1079 C 0.08368 0.29315 0.36401 0.0
C1080 C 0.11955 0.30626 0.33114 0.0
C1081 C 0.13008 0.28015 0.3402 0.0
N1082 N 0.12534 0.23287 0.36562 0.0
N1083 N 0.08125 0.33192 0.32719 0.0
C1084 C 0.11726 0.26028 0.36062 0.0
C1085 C 0.09481 0.31108 0.34082 0.0
N1086 N 0.08849 0.25557 0.40219 0.0
N1087 N 0.13359 0.3269 0.31407 0.0
H1088 H 0.06313 0.33595 0.33369 0.0
H1089 H 0.0866 0.34322 0.30742 0.0
H1090 H 0.15126 0.32349 0.30578 0.0
H1091 H 0.12892 0.34851 0.3102 0.0
H1092 H 0.09897 0.24063 0.41426 0.0
H1093 H 0.07385 0.26204 0.41505 0.0
H1094 H 0.11458 0.21544 0.37682 0.0
H1095 H 0.14131 0.226 0.35579 0.0
C1096 C 0.98887 0.05533 0.20587 0.0
C1097 C 0.99944 0.03628 0.22847 0.0
C1098 C 0.03668 0.03369 0.19721 0.0
C1099 C 0.02629 0.05313 0.17486 0.0
N1100 N 0.99549 0.08677 0.1614 0.0
N1101 N 0.03017 1.00251 0.24199 0.0
C1102 C 1.00312 0.06504 0.18012 0.0
C1103 C 0.0223 0.02387 0.22287 0.0
N1104 N 0.96428 0.06276 0.2081 0.0
N1105 N 0.06158 0.02674 0.19579 0.0
H1106 H 0.02084 0.9958 0.26173 0.0
H1107 H 0.04434 0.9894 0.2366 0.0
H1108 H 0.07327 0.03433 0.17842 0.0
H1109 H 0.072 0.01571 0.21354 0.0
H1110 H 0.95413 0.07491 0.19143 0.0
H1111 H 0.95251 0.05414 0.225 0.0
H1112 H 0.98122 0.09971 0.16676 0.0
H1113 H 1.00499 0.09373 0.14186 0.0
C1114 C 0.32766 0.71558 0.55566 0.0
C1115 C 0.35641 0.72974 0.57259 0.0
C1116 C 0.3497 0.78436 0.57429 0.0
C1117 C 0.3228 0.76994 0.55203 0.0
N1118 N 0.28238 0.7245 0.53221 0.0
N1119 N 0.39508 0.77724 0.5995 0.0
C1120 C 0.31043 0.7363 0.54685 0.0
C1121 C 0.36732 0.76413 0.58335 0.0
N1122 N 0.31772 0.68252 0.54463 0.0
N1123 N 0.35842 0.81744 0.58544 0.0
H1124 H 0.40848 0.76302 0.60678 0.0
H1125 H 0.4052 0.80192 0.60466 0.0
H1126 H 0.34542 0.83221 0.57857 0.0
H1127 H 0.37713 0.82995 0.60364 0.0
H1128 H 0.29806 0.67084 0.52812 0.0
H1129 H 0.32973 0.66658 0.55067 0.0
H1130 H 0.27117 0.70052 0.52969 0.0
H1131 H 0.26998 0.73995 0.52546 0.0
C1132 C 0.62281 0.0697 0.75757 0.0
C1133 C 0.6277 0.03987 0.76528 0.0
C1134 C 0.60252 0.01372 0.70226 0.0
C1135 C 0.59426 0.04244 0.69665 0.0
N1136 N 0.59468 0.09708 0.7221 0.0
N1137 N 0.62005 0.98241 0.74349 0.0
C1138 C 0.60408 0.07016 0.72522 0.0
C1139 C 0.61729 1.01169 0.73693 0.0
N1140 N 0.63701 0.09833 0.78087 0.0
N1141 N 0.59606 0.98808 0.67426 0.0
H1142 H 0.63058 0.98005 0.76781 0.0
H1143 H 0.61043 0.96026 0.72574 0.0
H1144 H 0.58525 0.98884 0.64935 0.0
H1145 H 0.60337 0.96746 0.67488 0.0
H1146 H 0.63705 0.12112 0.77547 0.0
H1147 H 0.65133 0.09944 0.80401 0.0
H1148 H 0.59783 0.11648 0.74314 0.0
H1149 H 0.58198 0.09905 0.69894 0.0
C1150 C 0.35301 0.37215 0.01039 0.0
C1151 C 0.33042 0.37417 0.02576 0.0
C1152 C 0.29811 0.33853 0.97188 0.0
C1153 C 0.32035 0.34188 0.95424 0.0
N1154 N 0.3687 0.36912 0.95713 0.0
N1155 N 0.28088 0.36014 0.02107 0.0
C1156 C 0.34782 0.36039 0.97364 0.0
C1157 C 0.30278 0.35747 0.00652 0.0
N1158 N 0.37957 0.38098 0.03107 0.0
N1159 N 0.27282 0.3165 0.95637 0.0
H1160 H 0.28374 0.37177 0.04715 0.0
H1161 H 0.26006 0.35234 0.00683 0.0
H1162 H 0.2683 0.3013 0.93169 0.0
H1163 H 0.25708 0.3108 0.96946 0.0
H1164 H 0.39677 0.37746 0.02173 0.0
H1165 H 0.38361 0.38794 0.05826 0.0
H1166 H 0.38804 0.38532 0.97014 0.0
H1167 H 0.366 0.36377 0.93009 0.0
C1168 C 0.02283 0.04008 0.43065 0.0
C1169 C 0.99307 0.03048 0.41985 0.0
C1170 C 0.99079 0.0429 0.48167 0.0
C1171 C 0.02037 0.05192 0.49224 0.0
N1172 N 0.06416 0.06938 0.47728 0.0
N1173 N 0.94934 0.0328 0.43468 0.0
C1174 C 0.03626 0.05396 0.46679 0.0
C1175 C 0.97723 0.03499 0.44529 0.0
N1176 N 0.03833 0.03405 0.40707 0.0
N1177 N 0.97562 0.04114 0.50645 0.0
H1178 H 0.93876 0.02808 0.40838 0.0
H1179 H 0.9373 0.03893 0.45183 0.0
H1180 H 0.98485 0.04918 0.5333 0.0
H1181 H 0.95416 0.0304 0.5005 0.0
H1182 H 0.05988 0.03731 0.4143 0.0
H1183 H 0.02948 0.02318 0.38064 0.0
H1184 H 0.07666 0.07418 0.45988 0.0
H1185 H 0.07401 0.08045 0.5035 0.0
C1186 C 0.33179 0.76455 0.69054 0.0
C1187 C 0.36027 0.76397 0.69884 0.0
C1188 C 0.36783 0.80359 0.75363 0.0
C1189 C 0.33842 0.79737 0.74914 0.0
N1190 N 0.29186 0.77144 0.71297 0.0
N1191 N 0.40581 0.78265 0.73961 0.0
C1192 C 0.32018 0.77789 0.71734 0.0
C1193 C 0.37858 0.78373 0.7306 0.0
N1194 N 0.31637 0.75404 0.65662 0.0
N1195 N 0.38539 0.82916 0.779 0.0
H1196 H 0.41435 0.76768 0.72413 0.0
H1197 H 0.41941 0.79485 0.76376 0.0
H1198 H 0.37806 0.84516 0.79509 0.0
H1199 H 0.4069 0.83654 0.7815 0.0
H1200 H 0.29609 0.75618 0.64852 0.0
H1201 H 0.32526 0.7471 0.63605 0.0
H1202 H 0.27771 0.7545 0.69168 0.0
H1203 H 0.2826 0.78136 0.73182 0.0
C1204 C 0.65141 0.04551 0.99694 0.0
C1205 C 0.64052 0.05228 0.96366 0.0
C1206 C 0.60345 0.06962 0.99095 0.0
C1207 C 0.61242 0.05984 0.02319 0.0
N1208 N 0.6446 0.03382 0.05316 0.0
N1209 N 0.6018 0.06512 0.92855 0.0
C1210 C 0.63638 0.04659 0.02501 0.0
C1211 C 0.61525 0.06256 0.96083 0.0
N1212 N 0.67695 0.0391 1.00247 0.0
N1213 N 0.58477 0.08811 0.98955 0.0
H1214 H 0.60926 0.05994 0.90621 0.0
H1215 H 0.58188 0.06884 0.92323 0.0
H1216 H 0.57733 0.09616 0.01107 0.0
H1217 H 0.57946 0.099 0.96866 0.0
H1218 H 0.68826 0.03814 0.02695 0.0
H1219 H 0.68771 0.03698 0.98277 0.0
H1220 H 0.65974 0.02095 0.05493 0.0
H1221 H 0.63472 0.03365 0.07366 0.0
C1222 C 0.34599 0.33506 0.2181 0.0
C1223 C 0.34408 0.36764 0.21954 0.0
C1224 C 0.3182 0.36201 0.26564 0.0
C1225 C 0.32338 0.33109 0.26758 0.0
N1226 N 0.34646 0.29069 0.24818 0.0
N1227 N 0.33319 0.4142 0.25049 0.0
C1228 C 0.33852 0.3184 0.24452 0.0
C1229 C 0.33162 0.38171 0.24505 0.0
N1230 N 0.3535 0.31915 0.19039 0.0
N1231 N 0.29887 0.37186 0.28124 0.0
H1232 H 0.34319 0.42961 0.23658 0.0
H1233 H 0.32712 0.42642 0.27126 0.0
H1234 H 0.28641 0.35711 0.29334 0.0
H1235 H 0.29248 0.39271 0.27797 0.0
H1236 H 0.35238 0.29438 0.18592 0.0
H1237 H 0.35795 0.3297 0.16974 0.0
H1238 H 0.36042 0.28256 0.2352 0.0
H1239 H 0.34105 0.27731 0.26642 0.0
C1240 C 0.22529 0.99391 0.04108 0.0
C1241 C 0.21415 0.96112 0.04299 0.0
C1242 C 0.19587 0.98046 0.09267 0.0
C1243 C 0.20217 1.01211 0.08607 0.0
N1244 N 0.2217 0.04947 0.05317 0.0
N1245 N 0.18537 0.92287 0.0679 0.0
C1246 C 0.21683 0.01909 0.06027 0.0
C1247 C 0.19885 0.95425 0.06845 0.0
N1248 N 0.24464 1.00118 0.02202 0.0
N1249 N 0.18628 0.97549 0.1216 0.0
H1250 H 0.18501 0.90293 0.04894 0.0
H1251 H 0.17205 0.91681 0.08402 0.0
H1252 H 0.18362 0.99445 0.13947 0.0
H1253 H 0.18359 0.95346 0.1296 0.0
H1254 H 0.2553 0.02491 0.02241 0.0
H1255 H 0.25226 0.98362 0.00871 0.0
H1256 H 0.22898 0.05488 0.03156 0.0
H1257 H 0.21698 0.06887 0.06799 0.0
C1258 C 0.67497 0.61695 0.1041 0.0
C1259 C 0.67801 0.62429 0.07133 0.0
C1260 C 0.63057 0.58783 0.04423 0.0
C1261 C 0.62605 0.58488 0.07795 0.0
N1262 N 0.64379 0.6 0.14071 0.0
N1263 N 0.657 0.6189 0.01024 0.0
C1264 C 0.64817 0.60074 0.10809 0.0
C1265 C 0.6553 0.61028 0.04135 0.0
N1266 N 0.69826 0.6233 0.13087 0.0
N1267 N 0.61175 0.56828 0.01481 0.0
H1268 H 0.67492 0.63446 0.00707 0.0
H1269 H 0.64003 0.61241 0.98845 0.0
H1270 H 0.5935 0.55178 0.01574 0.0
H1271 H 0.61528 0.5667 0.98976 0.0
H1272 H 0.698 0.61633 0.15463 0.0
H1273 H 0.7183 0.63141 0.12724 0.0
H1274 H 0.65819 0.61375 0.16373 0.0
H1275 H 0.62475 0.58785 0.14454 0.0
C1276 C 0.71742 0.50436 0.406 0.0
C1277 C 0.69948 0.5021 0.37292 0.0
C1278 C 0.71947 0.46039 0.34581 0.0
C1279 C 0.73913 0.46507 0.37824 0.0
N1280 N 0.76003 0.4953 0.43777 0.0
N1281 N 0.68672 0.48215 0.31001 0.0
C1282 C 0.73911 0.48828 0.40789 0.0
C1283 C 0.70123 0.48107 0.34243 0.0
N1284 N 0.71284 0.52053 0.43589 0.0
N1285 N 0.71819 0.43615 0.31824 0.0
H1286 H 0.6739 0.4977 0.30624 0.0
H1287 H 0.68934 0.46991 0.28661 0.0
H1288 H 0.73227 0.42181 0.31908 0.0
H1289 H 0.70208 0.42878 0.29545 0.0
H1290 H 0.72366 0.52069 0.46101 0.0
H1291 H 0.69623 0.53106 0.43578 0.0
H1292 H 0.76306 0.51474 0.45871 0.0
H1293 H 0.77579 0.48334 0.4405 0.0
C1294 C 0.85048 0.48677 0.57079 0.0
C1295 C 0.82833 0.47153 0.54063 0.0
C1296 C 0.85477 0.50043 0.50499 0.0
C1297 C 0.87875 0.51045 0.53342 0.0
N1298 N 0.90049 0.50826 0.59269 0.0
N1299 N 0.8127 0.45779 0.47721 0.0
C1300 C 0.87694 0.50267 0.56638 0.0
C1301 C 0.83113 0.47693 0.50719 0.0
N1302 N 0.84625 0.48636 0.60355 0.0
N1303 N 0.85482 0.51286 0.47563 0.0
H1304 H 0.79611 0.43834 0.47694 0.0
H1305 H 0.81599 0.4589 0.45242 0.0
H1306 H 0.87189 0.53055 0.47352 0.0
H1307 H 0.83696 0.50809 0.45525 0.0
H1308 H 0.86108 0.49972 0.62641 0.0
H1309 H 0.82692 0.47544 0.60772 0.0
H1310 H 0.90031 0.49974 0.61566 0.0
H1311 H 0.92057 0.51864 0.5905 0.0
C1312 C 0.3591 0.16892 0.35365 0.0
C1313 C 0.38206 0.17047 0.33713 0.0
C1314 C 0.37345 0.22364 0.32351 0.0
C1315 C 0.3496 0.22154 0.33859 0.0
N1316 N 0.31847 0.18757 0.36457 0.0
N1317 N 0.40636 0.19766 0.29984 0.0
C1318 C 0.34206 0.1926 0.35225 0.0
C1319 C 0.3877 0.19751 0.3204 0.0
N1320 N 0.35429 0.14556 0.37259 0.0
N1321 N 0.38306 0.25115 0.31209 0.0
H1322 H 0.41653 0.17928 0.29633 0.0
H1323 H 0.4097 0.21384 0.28349 0.0
H1324 H 0.37299 0.26962 0.3119 0.0
H1325 H 0.40195 0.25674 0.30487 0.0
H1326 H 0.34081 0.14483 0.38925 0.0
H1327 H 0.36534 0.12788 0.37325 0.0
H1328 H 0.30947 0.16585 0.37091 0.0
H1329 H 0.30681 0.20453 0.36657 0.0
C1330 C 0.34325 0.11649 0.59368 0.0
C1331 C 0.34133 0.13713 0.56943 0.0
C1332 C 0.38519 0.12881 0.55586 0.0
C1333 C 0.38636 0.10692 0.57878 0.0
N1334 N 0.36312 0.07449 0.61353 0.0
N1335 N 0.35703 0.15682 0.52166 0.0
C1336 C 0.3643 0.0991 0.59582 0.0
C1337 C 0.36132 0.14144 0.54881 0.0
N1338 N 0.326 0.1148 0.61613 0.0
N1339 N 0.40744 0.13864 0.54186 0.0
H1340 H 0.33954 0.16568 0.51522 0.0
H1341 H 0.36918 0.15791 0.5034 0.0
H1342 H 0.42517 0.12993 0.54622 0.0
H1343 H 0.40933 0.15734 0.52829 0.0
H1344 H 0.32855 0.10332 0.63711 0.0
H1345 H 0.31049 0.12715 0.6157 0.0
H1346 H 0.34609 0.06522 0.62333 0.0
H1347 H 0.37803 0.06123 0.61559 0.0
C1348 C 0.75206 0.66392 0.35299 0.0
C1349 C 0.72906 0.66788 0.36734 0.0
C1350 C 0.75255 0.72641 0.38824 0.0
C1351 C 0.77323 0.72306 0.36932 0.0
N1352 N 0.78982 0.68868 0.3288 0.0
N1353 N 0.70551 0.7044 0.39402 0.0
C1354 C 0.77213 0.69181 0.35025 0.0
C1355 C 0.72879 0.69956 0.38382 0.0
N1356 N 0.75555 0.6335 0.34345 0.0
N1357 N 0.75604 0.75482 0.41151 0.0
H1358 H 0.68753 0.68564 0.39066 0.0
H1359 H 0.7031 0.72742 0.40295 0.0
H1360 H 0.77389 0.77402 0.41687 0.0
H1361 H 0.74299 0.75788 0.4283 0.0
H1362 H 0.77331 0.62943 0.33598 0.0
H1363 H 0.74235 0.61258 0.34693 0.0
H1364 H 0.78781 0.66699 0.31132 0.0
H1365 H 0.8049 0.70836 0.32607 0.0
C1366 C 0.89044 0.446 0.85564 0.0
C1367 C 0.87945 0.46384 0.83148 0.0
C1368 C 0.83476 0.41917 0.81541 0.0
C1369 C 0.84708 0.39963 0.83622 0.0
N1370 N 0.88882 0.39425 0.8732 0.0
N1371 N 0.8411 0.46419 0.78515 0.0
C1372 C 0.87548 0.4132 0.85559 0.0
C1373 C 0.85151 0.44949 0.8106 0.0
N1374 N 0.91506 0.461 0.87995 0.0
N1375 N 0.80657 0.40961 0.8015 0.0
H1376 H 0.85225 0.4863 0.78149 0.0
H1377 H 0.82238 0.45339 0.76623 0.0
H1378 H 0.79386 0.38906 0.80626 0.0
H1379 H 0.79554 0.42369 0.78869 0.0
H1380 H 0.92292 0.45135 0.90087 0.0
H1381 H 0.9261 0.4848 0.88145 0.0
H1382 H 0.91027 0.40088 0.88437 0.0
H1383 H 0.87893 0.37053 0.87401 0.0
C1384 C 0.09945 0.92157 0.13026 0.0
C1385 C 0.08448 0.91056 0.15465 0.0
C1386 C 0.0545 0.94781 0.14235 0.0
C1387 C 0.07117 0.96123 0.12035 0.0
N1388 N 0.11021 0.96101 0.09423 0.0
N1389 N 0.0481 0.91385 0.18478 0.0
C1390 C 0.09381 0.94801 0.11455 0.0
C1391 C 0.06197 0.92373 0.16057 0.0
N1392 N 0.11902 0.90646 0.12188 0.0
N1393 N 0.03137 0.9581 0.14621 0.0
H1394 H 0.05103 0.89445 0.19624 0.0
H1395 H 0.03461 0.92561 0.19489 0.0
H1396 H 0.0266 0.97806 0.13757 0.0
H1397 H 0.016 0.94611 0.15699 0.0
H1398 H 0.12876 0.91036 0.10173 0.0
H1399 H 0.12403 0.88789 0.13346 0.0
H1400 H 0.1287 0.95535 0.09149 0.0
H1401 H 0.10589 0.97875 0.08088 0.0
C1402 C 0.91337 0.25787 0.90399 0.0
C1403 C 0.92533 0.27895 0.9376 0.0
C1404 C 0.88622 0.30498 0.92717 0.0
C1405 C 0.87497 0.2849 0.89266 0.0
N1406 N 0.88728 0.25315 0.84485 0.0
N1407 N 0.92729 0.32965 0.97544 0.0
C1408 C 0.89122 0.26442 0.88006 0.0
C1409 C 0.91292 0.30453 0.94753 0.0
N1410 N 0.92241 0.23091 0.89486 0.0
N1411 N 0.8715 0.32432 0.94118 0.0
H1412 H 0.94746 0.33153 0.98965 0.0
H1413 H 0.92067 0.35056 0.98182 0.0
H1414 H 0.85306 0.32714 0.92695 0.0
H1415 H 0.87673 0.33586 0.96764 0.0
H1416 H 0.9124 0.21314 0.87198 0.0
H1417 H 0.93793 0.22461 0.91165 0.0
H1418 H 0.89991 0.24008 0.83446 0.0
H1419 H 0.87479 0.26129 0.82604 0.0
C1420 C 0.5647 0.2063 0.61187 0.0
C1421 C 0.58383 0.22525 0.64361 0.0
C1422 C 0.5954 0.17525 0.65725 0.0
C1423 C 0.57506 0.156 0.6265 0.0
N1424 N 0.53871 0.15286 0.57567 0.0
N1425 N 0.61541 0.22762 0.69845 0.0
C1426 C 0.55919 0.17149 0.60424 0.0
C1427 C 0.59852 0.2096 0.66686 0.0
N1428 N 0.55213 0.22175 0.5886 0.0
N1429 N 0.61216 0.16076 0.67707 0.0
H1430 H 0.61949 0.25284 0.70568 0.0
H1431 H 0.62405 0.21761 0.71858 0.0
H1432 H 0.60986 0.13575 0.67201 0.0
H1433 H 0.62959 0.17354 0.69725 0.0
H1434 H 0.54071 0.21027 0.56313 0.0
H1435 H 0.55434 0.24679 0.59411 0.0
H1436 H 0.52399 0.16176 0.56083 0.0
H1437 H 0.53544 0.12782 0.56747 0.0
C1438 C 0.59759 0.8111 0.4281 0.0
C1439 C 0.59407 0.78928 0.45101 0.0
C1440 C 0.63777 0.77563 0.44346 0.0
C1441 C 0.64037 0.79585 0.4189 0.0
N1442 N 0.61956 0.82774 0.38258 0.0
N1443 N 0.60738 0.74511 0.47363 0.0
C1444 C 0.61931 0.81209 0.4097 0.0
C1445 C 0.61322 0.76994 0.45669 0.0
N1446 N 0.58104 0.832 0.42505 0.0
N1447 N 0.65926 0.76272 0.45522 0.0
H1448 H 0.58924 0.73944 0.48263 0.0
H1449 H 0.61891 0.72802 0.47547 0.0
H1450 H 0.67757 0.76639 0.4464 0.0
H1451 H 0.66002 0.75082 0.47596 0.0
H1452 H 0.58473 0.85112 0.41226 0.0
H1453 H 0.56481 0.83188 0.43762 0.0
H1454 H 0.60323 0.83698 0.37202 0.0
H1455 H 0.63495 0.82895 0.36848 0.0
C1456 C 0.10323 0.27579 0.50874 0.0
C1457 C 0.07577 0.28028 0.50292 0.0
C1458 C 0.0619 0.23847 0.53506 0.0
C1459 C 0.09023 0.23821 0.54586 0.0
N1460 N 0.13858 0.25789 0.54544 0.0
N1461 N 0.03062 0.27028 0.51732 0.0
C1462 C 0.11119 0.25721 0.53338 0.0
C1463 C 0.05545 0.26266 0.51768 0.0
N1464 N 0.1212 0.2879 0.48966 0.0
N1465 N 0.04104 0.21545 0.5412 0.0
H1466 H 0.02534 0.28907 0.50674 0.0
H1467 H 0.0166 0.26041 0.53117 0.0
H1468 H 0.04473 0.19703 0.55391 0.0
H1469 H 0.01988 0.21263 0.53043 0.0
H1470 H 0.14042 0.28267 0.49054 0.0
H1471 H 0.11577 0.30034 0.47019 0.0
H1472 H 0.15511 0.27402 0.54016 0.0
H1473 H 0.14484 0.24374 0.56276 0.0
C1474 C 0.6889 0.31653 0.29759 0.0
C1475 C 0.66759 0.28712 0.28811 0.0
C1476 C 0.70295 0.25635 0.29048 0.0
C1477 C 0.72415 0.28621 0.29626 0.0
N1478 N 0.73512 0.34306 0.29377 0.0
N1479 N 0.65337 0.22855 0.27185 0.0
C1480 C 0.71637 0.31577 0.29614 0.0
C1481 C 0.67432 0.25685 0.28332 0.0
N1482 N 0.68312 0.34517 0.30936 0.0
N1483 N 0.70971 0.22794 0.29402 0.0
H1484 H 0.63228 0.22794 0.26895 0.0
H1485 H 0.65676 0.20597 0.26329 0.0
H1486 H 0.72988 0.22524 0.29859 0.0
H1487 H 0.69515 0.20699 0.29492 0.0
H1488 H 0.69862 0.36703 0.31972 0.0
H1489 H 0.66329 0.34611 0.31246 0.0
H1490 H 0.72964 0.36451 0.29089 0.0
H1491 H 0.75505 0.34291 0.29042 0.0
C1492 C 0.53587 0.93041 0.03296 0.0
C1493 C 0.55984 0.9313 0.01916 0.0
C1494 C 0.58919 0.96785 0.07389 0.0
C1495 C 0.56468 0.97292 0.08337 0.0
N1496 N 0.51502 0.95628 0.07603 0.0
N1497 N 0.60983 0.94949 0.02686 0.0
C1498 C 0.53809 0.95291 0.06436 0.0
C1499 C 0.58679 0.94905 0.04006 0.0
N1500 N 0.5113 0.90752 0.01648 0.0
N1501 N 0.61461 0.98115 0.09717 0.0
H1502 H 0.60887 0.93634 1.00203 0.0
H1503 H 0.62973 0.96434 0.03954 0.0
H1504 H 0.61684 0.99477 0.1222 0.0
H1505 H 0.63305 0.97608 0.09312 0.0
H1506 H 0.49353 0.90394 0.02633 0.0
H1507 H 0.50957 0.88991 0.99437 0.0
H1508 H 0.49452 0.94542 0.06152 0.0
H1509 H 0.51665 0.97128 0.10019 0.0
C1510 C 0.99706 0.7744 0.82641 0.0
C1511 C 0.0198 0.79854 0.82269 0.0
C1512 C 1.00166 0.8417 0.85037 0.0
C1513 C 0.97877 0.81759 0.85389 0.0
N1514 N 0.9578 0.76151 0.85303 0.0
N1515 N 0.04764 0.85422 0.83822 0.0
C1516 C 0.97752 0.78403 0.84442 0.0
C1517 C 0.02336 0.83193 0.8371 0.0
N1518 N 0.99358 0.74243 0.81151 0.0
N1519 N 1.00197 0.87384 0.85814 0.0
H1520 H 0.06389 0.8477 0.82876 0.0
H1521 H 0.05279 0.87854 0.85124 0.0
H1522 H 0.98683 0.882 0.86871 0.0
H1523 H 0.0162 0.8923 0.85215 0.0
H1524 H 0.97571 0.72401 0.80952 0.0
H1525 H 1.00812 0.73454 0.7994 0.0
H1526 H 0.95739 0.73699 0.85005 0.0
H1527 H 0.94315 0.76787 0.86604 0.0
C1528 C 0.09436 0.07253 0.96163 0.0
C1529 C 0.11465 0.05547 0.95599 0.0
C1530 C 0.10064 0.02225 0.99757 0.0
C1531 C 0.08277 0.04172 0.00649 0.0
N1532 N 0.06416 0.08764 0.99788 0.0
N1533 N 0.14175 0.01968 0.97587 0.0
C1534 C 0.08042 0.06781 0.98915 0.0
C1535 C 0.11906 0.0319 0.97604 0.0
N1536 N 0.0867 0.0914 0.93906 0.0
N1537 N 0.09982 0.99409 0.00915 0.0
H1538 H 0.15675 0.02763 0.96237 0.0
H1539 H 0.14743 1.00456 0.99223 0.0
H1540 H 0.08704 0.98625 0.02529 0.0
H1541 H 0.1101 0.97718 1.00029 0.0
H1542 H 0.06976 0.10134 0.93913 0.0
H1543 H 0.09541 0.09465 0.91788 0.0
H1544 H 0.06507 0.10975 0.99034 0.0
H1545 H 0.05042 0.08273 0.01368 0.0
C1546 C 0.75778 0.33029 0.57842 0.0
C1547 C 0.73826 0.34754 0.58688 0.0
C1548 C 0.73812 0.32516 0.63922 0.0
C1549 C 0.76141 0.31344 0.63421 0.0
N1550 N 0.79477 0.3062 0.59996 0.0
N1551 N 0.70899 0.36048 0.6257 0.0
C1552 C 0.77153 0.31614 0.6039 0.0
C1553 C 0.72797 0.34446 0.61713 0.0
N1554 N 0.76205 0.32598 0.54538 0.0
N1555 N 0.72547 0.31881 0.6654 0.0
H1556 H 0.70182 0.3765 0.61166 0.0
H1557 H 0.70121 0.35851 0.64788 0.0
H1558 H 0.73103 0.30402 0.68232 0.0
H1559 H 0.73103 0.30402 0.68232 0.0
H1560 H 0.77425 0.31135 0.53676 0.0
H1561 H 0.75054 0.33375 0.52533 0.0
H1562 H 0.80503 0.31126 0.58045 0.0
H1563 H 0.80495 0.2948 0.61762 0.0
C1564 C 0.51177 0.0887 0.45155 0.0
C1565 C 0.48362 0.06879 0.44123 0.0
C1566 C 0.49489 0.04556 0.49453 0.0
C1567 C 0.5226 0.06658 0.50594 0.0
N1568 N 0.55385 0.11474 0.49853 0.0
N1569 N 0.447 0.03616 0.4609 0.0
C1570 C 0.52987 0.09008 0.48533 0.0
C1571 C 0.47489 0.04974 0.46531 0.0
N1572 N 0.52196 0.10535 0.42854 0.0
N1573 N 0.48787 0.01994 0.50988 0.0
H1574 H 0.4319 0.0404 0.44156 0.0
H1575 H 0.43888 0.02442 0.47894 0.0
H1576 H 0.50205 0.01498 0.52966 0.0
H1577 H 0.46906 1.00181 0.50049 0.0
H1578 H 0.54306 0.11708 0.43245 0.0
H1579 H 0.50963 0.10537 0.40427 0.0
H1580 H 0.55911 0.13434 0.48679 0.0
H1581 H 0.56683 0.11765 0.52332 0.0
C1582 C 0.76487 0.72347 0.18926 0.0
C1583 C 0.77955 0.7395 0.16728 0.0
C1584 C 0.81001 0.78002 0.21947 0.0
C1585 C 0.79327 0.76617 0.24091 0.0
N1586 N 0.75536 0.72372 0.24671 0.0
N1587 N 0.81465 0.78457 0.16082 0.0
C1588 C 0.77084 0.73762 0.22586 0.0
C1589 C 0.8017 0.76822 0.18226 0.0
N1590 N 0.74547 0.69425 0.17514 0.0
N1591 N 0.83436 0.80383 0.23458 0.0
H1592 H 0.81042 0.77579 0.13378 0.0
H1593 H 0.82829 0.80784 0.16942 0.0
H1594 H 0.84111 0.81387 0.26138 0.0
H1595 H 0.84911 0.81206 0.22094 0.0
H1596 H 0.73628 0.67903 0.18973 0.0
H1597 H 0.7397 0.68412 0.14842 0.0
H1598 H 0.73634 0.70604 0.23713 0.0
H1599 H 0.76107 0.7304 0.27404 0.0
C1600 C 0.13029 0.05891 0.75439 0.0
C1601 C 0.11116 0.05512 0.77633 0.0
C1602 C 0.0719 0.04026 0.72395 0.0
C1603 C 0.09086 0.04835 0.70294 0.0
N1604 N 0.13811 0.06485 0.69725 0.0
N1605 N 0.0636 0.04706 0.78218 0.0
C1606 C 0.12008 0.05754 0.71795 0.0
C1607 C 0.08189 0.04691 0.76111 0.0
N1608 N 0.15805 0.06201 0.76783 0.0
N1609 N 0.0444 0.02514 0.70821 0.0
H1610 H 0.07002 0.05294 0.80951 0.0
H1611 H 0.04234 0.04459 0.77266 0.0
H1612 H 0.03671 0.01908 0.681 0.0
H1613 H 0.02998 0.01565 0.72174 0.0
H1614 H 0.17249 0.06121 0.7526 0.0
H1615 H 0.16652 0.06274 0.79402 0.0
H1616 H 0.15936 0.07636 0.70704 0.0
H1617 H 0.13149 0.06022 0.66999 0.0
C1618 C 0.72218 0.31424 0.41577 0.0
C1619 C 0.73903 0.33785 0.44592 0.0
C1620 C 0.77941 0.31616 0.44125 0.0
C1621 C 0.76321 0.29444 0.4096 0.0
N1622 N 0.71855 0.26515 0.37291 0.0
N1623 N 0.78434 0.36303 0.48663 0.0
C1624 C 0.7342 0.29128 0.39871 0.0
C1625 C 0.76782 0.3393 0.45849 0.0
N1626 N 0.69543 0.3153 0.40223 0.0
N1627 N 0.80514 0.31289 0.45628 0.0
H1628 H 0.77659 0.37816 0.50296 0.0
H1629 H 0.80611 0.36874 0.49311 0.0
H1630 H 0.81338 0.29456 0.44564 0.0
H1631 H 0.81699 0.32567 0.48117 0.0
H1632 H 0.6832 0.30187 0.37776 0.0
H1633 H 0.68612 0.33189 0.41418 0.0
H1634 H 0.69677 0.25868 0.36474 0.0
H1635 H 0.69677 0.25868 0.36474 0.0
C1636 C 0.49593 0.03798 0.23895 0.0
C1637 C 0.48309 0.06392 0.24691 0.0
C1638 C 0.49739 0.08282 0.19452 0.0
C1639 C 0.51283 0.05893 0.18921 0.0
N1640 N 0.52812 0.01533 0.21019 0.0
N1641 N 0.47435 0.11299 0.23231 0.0
C1642 C 0.51236 0.03709 0.21263 0.0
C1643 C 0.48436 0.08659 0.2243 0.0
N1644 N 0.4914 0.0129 0.2558 0.0
N1645 N 0.49528 0.1024 0.17105 0.0
H1646 H 0.46443 0.11604 0.25275 0.0
H1647 H 0.47731 0.13273 0.22032 0.0
H1648 H 0.50529 0.10154 0.15054 0.0
H1649 H 0.48222 0.1179 0.17037 0.0
H1650 H 0.49724 0.9915 0.24928 0.0
H1651 H 0.47902 1.01196 0.27388 0.0
H1652 H 0.53206 1.00161 0.22883 0.0
H1653 H 0.53888 1.01253 0.19057 0.0
C1654 C 0.75934 0.75911 0.97287 0.0
C1655 C 0.77014 0.73222 0.97903 0.0
C1656 C 0.80345 0.74749 0.94272 0.0
C1657 C 0.79045 0.77193 0.93328 0.0
N1658 N 0.75398 0.79885 0.93698 0.0
N1659 N 0.79978 0.69793 0.96486 0.0
C1660 C 0.76789 0.77719 0.94786 0.0
C1661 C 0.79154 0.72573 0.96268 0.0
N1662 N 0.74162 0.76822 0.99199 0.0
N1663 N 0.82804 0.74593 0.93409 0.0
H1664 H 0.79172 0.68139 0.97898 0.0
H1665 H 0.81276 0.6898 0.95015 0.0
H1666 H 0.83801 0.76197 0.92078 0.0
H1667 H 0.84003 0.73097 0.94321 0.0
H1668 H 0.73524 0.78949 0.99167 0.0
H1669 H 0.7353 0.75607 0.0108 0.0
H1670 H 0.73534 0.80114 0.94317 0.0
H1671 H 0.75983 0.81282 0.91933 0.0
C1672 C 0.90349 0.12308 0.15123 0.0
C1673 C 0.9222 0.15432 0.15665 0.0
C1674 C 0.94888 0.1313 0.11891 0.0
C1675 C 0.92821 0.10087 0.1103 0.0
N1676 N 0.88288 0.06981 0.11283 0.0
N1677 N 0.95975 0.18957 0.14068 0.0
C1678 C 0.90462 0.09735 0.1249 0.0
C1679 C 0.94413 0.15888 0.13916 0.0
N1680 N 0.88524 0.11775 0.1721 0.0
N1681 N 0.97361 0.13368 0.10924 0.0
H1682 H 0.95698 0.21048 0.15525 0.0
H1683 H 0.97379 0.19448 0.12508 0.0
H1684 H 0.97849 0.11409 0.09513 0.0
H1685 H 0.99049 0.15436 0.11824 0.0
H1686 H 0.87302 0.09471 0.17165 0.0
H1687 H 0.88449 0.13588 0.19243 0.0
H1688 H 0.86399 0.0673 0.12017 0.0
H1689 H 0.88265 0.05079 0.09277 0.0
C1690 C 0.45246 0.48996 0.15557 0.0
C1691 C 0.43142 0.47015 0.12597 0.0
C1692 C 0.46307 0.48493 0.08768 0.0
C1693 C 0.48312 0.50748 0.11653 0.0
N1694 N 0.5007 0.52262 0.17925 0.0
N1695 N 0.41444 0.45532 0.06317 0.0
C1696 C 0.47869 0.50777 0.15092 0.0
C1697 C 0.43621 0.46941 0.09191 0.0
N1698 N 0.44719 0.49199 0.18811 0.0
N1699 N 0.47005 0.47622 0.05679 0.0
H1700 H 0.39419 0.44566 0.06534 0.0
H1701 H 0.41569 0.45681 0.03767 0.0
H1702 H 0.4902 0.48379 0.05357 0.0
H1703 H 0.45703 0.45772 0.03603 0.0
H1704 H 0.46009 0.50831 0.21065 0.0
H1705 H 0.42871 0.47859 0.19231 0.0
H1706 H 0.50016 0.52255 0.20518 0.0
H1707 H 0.52082 0.53188 0.17648 0.0
C1708 C 0.40462 0.60428 0.77423 0.0
C1709 C 0.41673 0.59384 0.80407 0.0
C1710 C 0.3915 0.62246 0.83953 0.0
C1711 C 0.3811 0.63492 0.81034 0.0
N1712 N 0.38126 0.64248 0.75174 0.0
N1713 N 0.4258 0.59703 0.86645 0.0
C1714 C 0.38866 0.6272 0.77817 0.0
C1715 C 0.41134 0.60409 0.83716 0.0
N1716 N 0.40724 0.59114 0.74182 0.0
N1717 N 0.38169 0.62727 0.86906 0.0
H1718 H 0.44061 0.58371 0.86571 0.0
H1719 H 0.42499 0.6067 0.89185 0.0
H1720 H 0.36717 0.64067 0.87179 0.0
H1721 H 0.38612 0.6158 0.88971 0.0
H1722 H 0.39546 0.59428 0.71874 0.0
H1723 H 0.41921 0.57473 0.73777 0.0
H1724 H 0.38888 0.6406 0.72929 0.0
H1725 H 0.36936 0.65927 0.75348 0.0
C1726 C 0.24885 0.62275 0.59502 0.0
C1727 C 0.27528 0.63362 0.61931 0.0
C1728 C 0.25646 0.60434 0.66057 0.0
C1729 C 0.22925 0.59751 0.63867 0.0
N1730 N 0.19873 0.60485 0.58718 0.0
N1731 N 0.30281 0.64103 0.67854 0.0
C1732 C 0.22514 0.60761 0.6062 0.0
C1733 C 0.27882 0.62599 0.65297 0.0
N1734 N 0.24641 0.62697 0.56142 0.0
N1735 N 0.26091 0.59016 0.68866 0.0
H1736 H 0.31945 0.65811 0.67467 0.0
H1737 H 0.30513 0.63886 0.70457 0.0
H1738 H 0.24487 0.57379 0.69465 0.0
H1739 H 0.28081 0.5921 0.70369 0.0
H1740 H 0.22818 0.61662 0.54155 0.0
H1741 H 0.26341 0.63848 0.55276 0.0
H1742 H 0.19477 0.61513 0.56548 0.0
H1743 H 0.18065 0.59486 0.59467 0.0
C1744 C 0.73046 0.91424 0.83743 0.0
C1745 C 0.73435 0.9374 0.86954 0.0
C1746 C 0.76921 0.90824 0.89662 0.0
C1747 C 0.76413 0.8837 0.86497 0.0
N1748 N 0.73655 0.86384 0.80514 0.0
N1749 N 0.75627 0.95274 0.93109 0.0
C1750 C 0.74377 0.88707 0.83553 0.0
C1751 C 0.7536 0.93324 0.89925 0.0
N1752 N 0.7141 0.91863 0.8079 0.0
N1753 N 0.78898 0.90762 0.92513 0.0
H1754 H 0.74698 0.97199 0.93381 0.0
H1755 H 0.76631 0.94903 0.95493 0.0
H1756 H 0.79812 0.88839 0.9264 0.0
H1757 H 0.7972 0.92671 0.94711 0.0
H1758 H 0.71217 0.90581 0.78264 0.0
H1759 H 0.70417 0.93737 0.80845 0.0
H1760 H 0.71928 0.86114 0.78468 0.0
H1761 H 0.74694 0.84592 0.80073 0.0
C1762 C 0.75203 0.95578 0.5914 0.0
C1763 C 0.77178 0.9625 0.62428 0.0
C1764 C 0.7483 1.0024 0.64817 0.0
C1765 C 0.72699 0.99315 0.61636 0.0
N1766 N 0.70612 0.95681 0.55976 0.0
N1767 N 0.78629 0.98892 0.68564 0.0
C1768 C 0.72821 0.96863 0.58857 0.0
C1769 C 0.76933 0.98506 0.65312 0.0
N1770 N 0.75665 0.93815 0.56234 0.0
N1771 N 0.74892 0.0284 0.67334 0.0
H1772 H 0.80184 0.97678 0.69029 0.0
H1773 H 0.78354 1.0021 0.70845 0.0
H1774 H 0.7338 0.04136 0.67086 0.0
H1775 H 0.76552 0.03872 0.69536 0.0
H1776 H 0.74468 0.93528 0.53699 0.0
H1777 H 0.7742 0.92916 0.563 0.0
H1778 H 0.70431 0.93649 0.54041 0.0
H1779 H 0.68829 0.9654 0.55673 0.0
C1780 C 0.38835 0.4101 0.84015 0.0
C1781 C 0.38906 0.4154 0.8061 0.0
C1782 C 0.34094 0.37984 0.78338 0.0
C1783 C 0.33978 0.37609 0.81806 0.0
N1784 N 0.35925 0.39801 0.88011 0.0
N1785 N 0.3645 0.40998 0.7463 0.0
C1786 C 0.36265 0.39403 0.84664 0.0
C1787 C 0.3648 0.40179 0.77805 0.0
N1788 N 0.41226 0.4203 0.86652 0.0
N1789 N 0.31991 0.36161 0.75525 0.0
H1790 H 0.38193 0.42466 0.74105 0.0
H1791 H 0.34652 0.40422 0.726 0.0
H1792 H 0.30229 0.34499 0.75742 0.0
H1793 H 0.32102 0.36058 0.72929 0.0
H1794 H 0.4135 0.41395 0.89081 0.0
H1795 H 0.43144 0.4325 0.8631 0.0
H1796 H 0.37434 0.41357 0.90156 0.0
H1797 H 0.3401 0.38924 0.88591 0.0
C1798 C 0.25114 0.64469 0.34584 0.0
C1799 C 0.23285 0.64138 0.36892 0.0
C1800 C 0.24348 0.70243 0.38344 0.0
C1801 C 0.26323 0.70601 0.36214 0.0
N1802 N 0.29033 0.67854 0.33018 0.0
N1803 N 0.21811 0.66894 0.41655 0.0
C1804 C 0.26826 0.67649 0.34541 0.0
C1805 C 0.23115 0.67089 0.38975 0.0
N1806 N 0.25142 0.6176 0.32294 0.0
N1807 N 0.23479 0.72878 0.39608 0.0
H1808 H 0.2096 0.6468 0.42256 0.0
H1809 H 0.21856 0.68924 0.4351 0.0
H1810 H 0.24175 0.75165 0.39088 0.0
H1811 H 0.21835 0.72715 0.40842 0.0
H1812 H 0.26142 0.61856 0.3025 0.0
H1813 H 0.23984 0.59429 0.3227 0.0
H1814 H 0.29693 0.65836 0.32073 0.0
H1815 H 0.30401 0.70063 0.33054 0.0
C1816 C 0.54301 0.69732 0.57666 0.0
C1817 C 0.5227 0.69578 0.54557 0.0
C1818 C 0.51411 0.63554 0.53283 0.0
C1819 C 0.53224 0.63703 0.56585 0.0
N1820 N 0.55867 0.67025 0.62252 0.0
N1821 N 0.48517 0.66208 0.49734 0.0
C1822 C 0.54516 0.66822 0.58863 0.0
C1823 C 0.50723 0.66448 0.52457 0.0
N1824 N 0.56132 0.72656 0.59418 0.0
N1825 N 0.5044 0.60687 0.50838 0.0
H1826 H 0.47938 0.68235 0.49057 0.0
H1827 H 0.47111 0.63998 0.48357 0.0
H1828 H 0.50909 0.58544 0.51281 0.0
H1829 H 0.49385 0.60503 0.48258 0.0
H1830 H 0.57841 0.72877 0.61477 0.0
H1831 H 0.56137 0.74816 0.5857 0.0
H1832 H 0.56603 0.69203 0.64136 0.0
H1833 H 0.55969 0.64981 0.6329 0.0
C1834 C 0.6811 0.30684 0.77791 0.0
C1835 C 0.6815 0.32544 0.75152 0.0
C1836 C 0.73301 0.33542 0.76418 0.0
C1837 C 0.7329 0.31924 0.79245 0.0
N1838 N 0.70682 0.29321 0.82932 0.0
N1839 N 0.70854 0.36258 0.72438 0.0
C1840 C 0.70691 0.30599 0.80016 0.0
C1841 C 0.70773 0.3412 0.74612 0.0
N1842 N 0.6561 0.28874 0.78082 0.0
N1843 N 0.75723 0.3443 0.75374 0.0
H1844 H 0.69059 0.36778 0.71131 0.0
H1845 H 0.72702 0.3774 0.72182 0.0
H1846 H 0.77548 0.33871 0.76509 0.0
H1847 H 0.75873 0.35451 0.73208 0.0
H1848 H 0.65443 0.27151 0.79627 0.0
H1849 H 0.63686 0.28922 0.76586 0.0
H1850 H 0.68911 0.28683 0.83892 0.0
H1851 H 0.72492 0.29096 0.84537 0.0
C1852 C 0.01657 0.38863 0.06058 0.0
C1853 C 0.02576 0.37837 0.03007 0.0
C1854 C 0.04244 0.43583 0.0272 0.0
C1855 C 0.03572 0.44643 0.05944 0.0
N1856 N 0.02093 0.43234 0.11018 0.0
N1857 N 0.05427 0.39318 0.99035 0.0
C1858 C 0.02404 0.42264 0.07711 0.0
C1859 C 0.0408 0.40233 0.01531 0.0
N1860 N 0.9997 0.36618 0.07295 0.0
N1861 N 0.04895 0.45747 0.00669 0.0
H1862 H 0.05439 0.36906 0.98173 0.0
H1863 H 0.06785 0.40984 0.9812 0.0
H1864 H 0.04883 0.48183 0.01316 0.0
H1865 H 0.05129 0.45041 0.98137 0.0
H1866 H 0.98973 0.37248 0.09256 0.0
H1867 H 0.99393 0.34131 0.06177 0.0
H1868 H 1.01533 0.41614 0.12585 0.0
H1869 H 0.02633 0.45674 0.12316 0.0
C1870 C 0.02305 0.80314 0.274 0.0
C1871 C 0.01999 0.81323 0.24154 0.0
C1872 C 0.97194 0.81562 0.24334 0.0
C1873 C 0.97565 0.80764 0.27686 0.0
N1874 N 1.00718 0.80106 0.32748 0.0
N1875 N 0.9939 0.83667 0.19987 0.0
C1876 C 1.00197 0.8036 0.2932 0.0
C1877 C 0.99511 0.82171 0.22759 0.0
N1878 N 0.0453 0.79144 0.28575 0.0
N1879 N 0.94598 0.81607 0.22573 0.0
H1880 H 1.01063 0.84236 0.18828 0.0
H1881 H 0.97754 0.84648 0.1908 0.0
H1882 H 0.92844 0.81138 0.23604 0.0
H1883 H 0.94131 0.81815 0.19968 0.0
H1884 H 0.04695 0.78025 0.30703 0.0
H1885 H 0.061 0.79027 0.2725 0.0
H1886 H 0.02687 0.80153 0.34198 0.0
H1887 H 0.99249 0.80162 0.34247 0.0
C1888 C 0.58917 0.39969 0.24634 0.0
C1889 C 0.60702 0.37876 0.24742 0.0
C1890 C 0.62038 0.39186 0.19485 0.0
C1891 C 0.6007 0.41049 0.192 0.0
N1892 N 0.57365 0.44129 0.21984 0.0
N1893 N 0.64711 0.36494 0.23201 0.0
C1894 C 0.58764 0.41765 0.21961 0.0
C1895 C 0.62521 0.37826 0.22469 0.0
N1896 N 0.57264 0.40089 0.26953 0.0
N1897 N 0.63322 0.38578 0.16829 0.0
H1898 H 0.65144 0.35636 0.25484 0.0
H1899 H 0.66249 0.36581 0.21798 0.0
H1900 H 0.63066 0.39622 0.14645 0.0
H1901 H 0.64527 0.36918 0.16704 0.0
H1902 H 0.55667 0.41255 0.26752 0.0
H1903 H 0.57441 0.38905 0.2903 0.0
H1904 H 0.56559 0.44954 0.24068 0.0
H1905 H 0.57236 0.45479 0.20042 0.0
C1906 C 0.93562 0.31821 0.43605 0.0
C1907 C 0.94782 0.29977 0.41355 0.0
C1908 C 0.90301 0.27968 0.37 0.0
C1909 C 0.89014 0.29575 0.39386 0.0
N1910 N 0.89315 0.32492 0.45215 0.0
N1911 N 0.94224 0.25808 0.36244 0.0
C1912 C 0.90617 0.31354 0.42763 0.0
C1913 C 0.93123 0.279 0.38152 0.0
N1914 N 0.95226 0.34105 0.46483 0.0
N1915 N 0.88895 0.26666 0.33571 0.0
H1916 H 0.96299 0.25722 0.36985 0.0
H1917 H 0.9302 0.23959 0.34105 0.0
H1918 H 0.8688 0.26792 0.32515 0.0
H1919 H 0.89815 0.25717 0.31664 0.0
H1920 H 0.94489 0.35774 0.47989 0.0
H1921 H 0.97393 0.34534 0.47188 0.0
H1922 H 0.90344 0.33513 0.47835 0.0
H1923 H 0.87151 0.32127 0.4472 0.0
C1924 C 0.0584 0.69936 0.65108 0.0
C1925 C 0.07382 0.70582 0.68657 0.0
C1926 C 0.08033 0.6511 0.6771 0.0
C1927 C 0.06676 0.64517 0.64094 0.0
N1928 N 0.04971 0.66744 0.59199 0.0
N1929 N 0.10767 0.69131 0.72892 0.0
C1930 C 0.05816 0.67067 0.62743 0.0
C1931 C 0.08744 0.68287 0.69818 0.0
N1932 N 0.04263 0.71939 0.64031 0.0
N1933 N 0.08464 0.62622 0.69238 0.0
H1934 H 0.11454 0.71469 0.74474 0.0
H1935 H 0.11987 0.67597 0.73653 0.0
H1936 H 0.07889 0.60259 0.6782 0.0
H1937 H 0.09137 0.62882 0.71943 0.0
H1938 H 0.02891 0.71393 0.6156 0.0
H1939 H 0.04095 0.73969 0.65712 0.0
H1940 H 0.04546 0.68636 0.58054 0.0
H1941 H 0.04995 0.64699 0.57406 0.0
C1942 C 0.59631 0.79091 0.85699 0.0
C1943 C 0.59672 0.82417 0.85865 0.0
C1944 C 0.64041 0.83332 0.83913 0.0
C1945 C 0.63867 0.79958 0.83508 0.0
N1946 N 0.61201 0.74513 0.83262 0.0
N1947 N 0.61649 0.87597 0.84621 0.0
C1948 C 0.61559 0.77803 0.84152 0.0
C1949 C 0.61803 0.84511 0.84821 0.0
N1950 N 0.57881 0.77207 0.87231 0.0
N1951 N 0.66385 0.85418 0.83549 0.0
H1952 H 0.60036 0.88527 0.85264 0.0
H1953 H 0.62981 0.89137 0.83551 0.0
H1954 H 0.68034 0.84628 0.82815 0.0
H1955 H 0.66784 0.87943 0.84197 0.0
H1956 H 0.57991 0.74884 0.87525 0.0
H1957 H 0.56522 0.78068 0.88561 0.0
H1958 H 0.594 0.72812 0.83328 0.0
H1959 H 0.62584 0.73478 0.82136 0.0
C1960 C 0.52242 0.56147 0.73788 0.0
C1961 C 0.50054 0.53242 0.73129 0.0
C1962 C 0.49962 0.52595 0.66835 0.0
C1963 C 0.52419 0.55224 0.67578 0.0
N1964 N 0.56432 0.58598 0.72181 0.0
N1965 N 0.47233 0.48318 0.68989 0.0
C1966 C 0.53714 0.56764 0.71168 0.0
C1967 C 0.49022 0.51352 0.69637 0.0
N1968 N 0.52892 0.58387 0.76882 0.0
N1969 N 0.48466 0.51329 0.63456 0.0
H1970 H 0.46563 0.47283 0.70962 0.0
H1971 H 0.46651 0.46701 0.66555 0.0
H1972 H 0.48973 0.52331 0.6139 0.0
H1973 H 0.46563 0.49558 0.62787 0.0
H1974 H 0.54325 0.60656 0.77336 0.0
H1975 H 0.51764 0.58155 0.78793 0.0
H1976 H 0.57474 0.59565 0.7481 0.0
H1977 H 0.57782 0.58712 0.70517 0.0
C1978 C 0.80346 0.21649 0.07139 0.0
C1979 C 0.83118 0.23011 0.0922 0.0
C1980 C 0.83499 0.27865 0.06781 0.0
C1981 C 0.80858 0.26361 0.04426 0.0
N1982 N 0.76849 0.21723 0.02036 0.0
N1983 N 0.87559 0.27055 0.10495 0.0
C1984 C 0.79291 0.23224 0.04516 0.0
C1985 C 0.84757 0.26029 0.0891 0.0
N1986 N 0.78711 0.18911 0.07733 0.0
N1987 N 0.84806 0.31048 0.06971 0.0
H1988 H 0.88601 0.25716 0.11977 0.0
H1989 H 0.8891 0.29069 0.10055 0.0
H1990 H 0.83956 0.32469 0.05408 0.0
H1991 H 0.866 0.32367 0.08901 0.0
H1992 H 0.76583 0.17992 0.06546 0.0
H1993 H 0.79442 0.17681 0.0961 0.0
H1994 H 0.75778 0.19292 0.01709 0.0
H1995 H 0.75973 0.22869 1.00161 0.0
C1996 C 0.11399 0.51093 0.23481 0.0
C1997 C 0.12696 0.54024 0.26123 0.0
C1998 C 0.10488 0.57009 0.21942 0.0
C1999 C 0.09269 0.54122 0.19254 0.0
N2000 N 0.0903 0.48479 0.17332 0.0
N2001 N 0.14112 0.59882 0.27224 0.0
C2002 C 0.09892 0.51192 0.1999 0.0
C2003 C 0.12425 0.57004 0.25141 0.0
N2004 N 0.11469 0.48182 0.24348 0.0
N2005 N 0.09708 0.59777 0.21525 0.0
H2006 H 0.15643 0.59987 0.2945 0.0
H2007 H 0.1423 0.62118 0.2652 0.0
H2008 H 0.08342 0.59909 0.19253 0.0
H2009 H 0.1024 0.61854 0.23532 0.0
H2010 H 0.10321 0.45938 0.22733 0.0
H2011 H 0.12544 0.48019 0.26802 0.0
H2012 H 0.09599 0.46331 0.1752 0.0
H2013 H 0.07944 0.4849 0.1482 0.0
C2014 C 0.83923 0.88712 0.51136 0.0
C2015 C 0.84016 0.86634 0.53557 0.0
C2016 C 0.83113 0.81935 0.48649 0.0
C2017 C 0.8283 0.83982 0.46223 0.0
N2018 N 0.82409 0.89208 0.45135 0.0
N2019 N 0.83152 0.81191 0.54568 0.0
C2020 C 0.83047 0.87331 0.47462 0.0
C2021 C 0.83466 0.83222 0.52297 0.0
N2022 N 0.84837 0.92019 0.52325 0.0
N2023 N 0.83044 0.78756 0.47475 0.0
H2024 H 0.83322 0.82036 0.57231 0.0
H2025 H 0.82462 0.78664 0.53772 0.0
H2026 H 0.82619 0.77672 0.44823 0.0
H2027 H 0.83578 0.77246 0.4913 0.0
H2028 H 0.8514 0.93635 0.50677 0.0
H2029 H 0.8556 0.93162 0.54973 0.0
H2030 H 0.82206 0.91552 0.45901 0.0
H2031 H 0.8185 0.88345 0.42423 0.0
C2032 C 0.47605 0.51252 0.93199 0.0
C2033 C 0.49358 0.52029 0.90908 0.0
C2034 C 0.53142 0.55292 0.95981 0.0
C2035 C 0.51573 0.54024 0.98265 0.0
N2036 N 0.47193 0.5118 0.99159 0.0
N2037 N 0.53798 0.54763 0.90051 0.0
C2038 C 0.48763 0.52117 0.96896 0.0
C2039 C 0.52119 0.5408 0.92278 0.0
N2040 N 0.44808 0.49809 0.91832 0.0
N2041 N 0.5557 0.57706 0.97347 0.0
H2042 H 0.53097 0.53965 0.87331 0.0
H2043 H 0.55927 0.5593 0.90899 0.0
H2044 H 0.56315 0.58703 1.0003 0.0
H2045 H 0.56695 0.5894 0.95824 0.0
H2046 H 0.43353 0.49402 0.93335 0.0
H2047 H 0.43875 0.49247 0.89148 0.0
H2048 H 0.45276 0.49428 0.98399 0.0
H2049 H 0.47849 0.52164 0.01852 0.0
C2050 C 0.89315 0.31394 0.27958 0.0
C2051 C 0.88628 0.30029 0.24302 0.0
C2052 C 0.83696 0.29834 0.23985 0.0
C2053 C 0.84368 0.31004 0.27661 0.0
N2054 N 0.87925 0.34383 0.32687 0.0
N2055 N 0.85336 0.29094 0.18714 0.0
C2056 C 0.87219 0.3226 0.29509 0.0
C2057 C 0.85871 0.29591 0.22275 0.0
N2058 N 0.9193 0.3175 0.29989 0.0
N2059 N 0.81013 0.29035 0.22029 0.0
H2060 H 0.86929 0.29208 0.17389 0.0
H2061 H 0.83337 0.28773 0.17145 0.0
H2062 H 0.79309 0.29209 0.23091 0.0
H2063 H 0.79309 0.29209 0.23091 0.0
H2064 H 0.92465 0.32516 0.32713 0.0
H2065 H 0.93495 0.30974 0.2902 0.0
H2066 H 0.89983 0.35572 0.34045 0.0
H2067 H 0.86442 0.35283 0.33725 0.0
C2068 C 0.11941 0.5254 0.464 0.0
C2069 C 0.13924 0.55322 0.46018 0.0
C2070 C 0.12799 0.58477 0.51295 0.0
C2071 C 0.10902 0.55667 0.5176 0.0
N2072 N 0.09374 0.49822 0.50158 0.0
N2073 N 0.16657 0.60798 0.48818 0.0
C2074 C 0.10682 0.52651 0.49414 0.0
C2075 C 0.14454 0.58242 0.48679 0.0
N2076 N 0.1115 0.49784 0.43807 0.0
N2077 N 0.12993 0.61433 0.53323 0.0
H2078 H 0.17982 0.60684 0.47126 0.0
H2079 H 0.17363 0.62885 0.50824 0.0
H2080 H 0.1191 0.61687 0.55282 0.0
H2081 H 0.14048 0.6364 0.52896 0.0
H2082 H 0.09484 0.47804 0.43663 0.0
H2083 H 0.12026 0.49582 0.41649 0.0
H2084 H 0.09339 0.47522 0.48818 0.0
H2085 H 0.08608 0.49806 0.52392 0.0
C2086 C 0.81743 0.873 0.7304 0.0
C2087 C 0.83531 0.86287 0.71006 0.0
C2088 C 0.83968 0.82037 0.74408 0.0
C2089 C 0.82282 0.83143 0.76581 0.0
N2090 N 0.80124 0.87445 0.7835 0.0
N2091 N 0.8682 0.83147 0.7026 0.0
C2092 C 0.81363 0.85973 0.76036 0.0
C2093 C 0.84778 0.83785 0.71844 0.0
N2094 N 0.80241 0.89386 0.71986 0.0
N2095 N 0.84787 0.79276 0.7476 0.0
H2096 H 0.87481 0.84397 0.68418 0.0
H2097 H 0.88044 0.81617 0.71004 0.0
H2098 H 0.84417 0.7804 0.76723 0.0
H2099 H 0.85695 0.78098 0.72985 0.0
H2100 H 0.78614 0.89867 0.73048 0.0
H2101 H 0.80428 0.90413 0.69825 0.0
H2102 H 0.79767 0.89726 0.78324 0.0
H2103 H 0.79667 0.86581 0.8049 0.0
C2104 C 0.67932 0.48466 0.53825 0.0
C2105 C 0.70466 0.4911 0.52735 0.0
C2106 C 0.7129 0.54955 0.55064 0.0
C2107 C 0.6896 0.54258 0.56533 0.0
N2108 N 0.65219 0.50331 0.57713 0.0
N2109 N 0.74913 0.52902 0.53119 0.0
C2110 C 0.67324 0.51004 0.56032 0.0
C2111 C 0.72237 0.52341 0.5353 0.0
N2112 N 0.66087 0.4544 0.5269 0.0
N2113 N 0.72617 0.58108 0.55169 0.0
H2114 H 0.75799 0.51062 0.52245 0.0
H2115 H 0.76364 0.55174 0.54 0.0
H2116 H 0.72024 0.60088 0.56376 0.0
H2117 H 0.74142 0.58734 0.53801 0.0
H2118 H 0.64125 0.44853 0.53226 0.0
H2119 H 0.66411 0.43568 0.50932 0.0
H2120 H 0.64209 0.47981 0.57822 0.0
H2121 H 0.64573 0.52125 0.59178 0.0
C2122 C 0.15933 0.10313 0.53689 0.0
C2123 C 0.17852 0.12606 0.56604 0.0
C2124 C 0.14695 0.10887 0.60386 0.0
C2125 C 0.12866 0.08423 0.57526 0.0
N2126 N 0.11993 0.05512 0.51512 0.0
N2127 N 0.19322 0.14622 0.6287 0.0
C2128 C 0.13569 0.08053 0.54202 0.0
C2129 C 0.17289 0.12784 0.59987 0.0
N2130 N 0.16295 0.10383 0.5039 0.0
N2131 N 0.13991 0.11377 0.63526 0.0
H2132 H 0.21286 0.15904 0.62709 0.0
H2133 H 0.19188 0.14628 0.65444 0.0
H2134 H 0.12244 0.09887 0.63996 0.0
H2135 H 0.15023 0.13376 0.65583 0.0
H2136 H 0.14801 0.0907 0.48108 0.0
H2137 H 0.18003 0.11963 0.49918 0.0
H2138 H 0.12605 0.04837 0.49213 0.0
H2139 H 0.10119 0.0397 0.51619 0.0
C2140 C 0.22812 0.02384 0.8442 0.0
C2141 C 0.21126 0.02007 0.86856 0.0
C2142 C 0.23949 0.98739 0.89582 0.0
C2143 C 0.25379 0.98763 0.86857 0.0
N2144 N 0.26014 1.00319 0.81464 0.0
N2145 N 0.19933 0.99711 0.91648 0.0
C2146 C 0.24776 1.00518 0.84222 0.0
C2147 C 0.21664 1.00171 0.89432 0.0
N2148 N 0.22605 0.04618 0.82384 0.0
N2149 N 0.24811 0.97388 0.92331 0.0
H2150 H 0.18268 1.00766 0.91631 0.0
H2151 H 0.20023 0.98125 0.93344 0.0
H2152 H 0.26502 0.96365 0.92528 0.0
H2153 H 0.24015 0.97519 0.94548 0.0
H2154 H 0.23972 0.05244 0.80816 0.0
H2155 H 0.21241 0.06095 0.82525 0.0
H2156 H 0.25399 1.0121 0.79245 0.0
H2157 H 0.27528 0.99055 0.81268 0.0
C2158 C 0.34184 0.91727 0.01496 0.0
C2159 C 0.32309 0.93414 0.02639 0.0
C2160 C 0.35927 0.98594 0.04131 0.0
C2161 C 0.37744 0.96931 0.02794 0.0
N2162 N 0.38533 0.92054 0.99715 0.0
N2163 N 0.31191 0.98454 0.04564 0.0
C2164 C 0.36846 0.93536 0.01317 0.0
C2165 C 0.33123 0.96852 0.03826 0.0
N2166 N 0.33471 0.88394 0.00754 0.0
N2167 N 0.36907 0.01817 0.05769 0.0
H2168 H 0.2913 0.97252 0.04443 0.0
H2169 H 0.31559 1.00976 0.05048 0.0
H2170 H 0.38922 0.03202 0.05925 0.0
H2171 H 0.35796 0.03076 0.07169 0.0
H2172 H 0.34857 0.87019 1.00272 0.0
H2173 H 0.3154 0.86978 0.0087 0.0
H2174 H 0.37879 0.89665 0.98261 0.0
H2175 H 0.40531 0.93287 0.99612 0.0
C2176 C 0.85806 0.66553 0.85025 0.0
C2177 C 0.88133 0.66717 0.8343 0.0
C2178 C 0.87394 0.72125 0.82211 0.0
C2179 C 0.84983 0.7191 0.83667 0.0
N2180 N 0.81793 0.68505 0.86165 0.0
N2181 N 0.90725 0.69542 0.79911 0.0
C2182 C 0.8416 0.6898 0.84947 0.0
C2183 C 0.88791 0.69486 0.81874 0.0
N2184 N 0.85242 0.64145 0.86811 0.0
N2185 N 0.88407 0.74903 0.81146 0.0
H2186 H 0.91728 0.67693 0.79554 0.0
H2187 H 0.91142 0.71219 0.7836 0.0
H2188 H 0.8741 0.7676 0.81127 0.0
H2189 H 0.90321 0.75472 0.80486 0.0
H2190 H 0.83864 0.64042 0.88439 0.0
H2191 H 0.86302 0.62333 0.86824 0.0
H2192 H 0.80837 0.66319 0.86726 0.0
H2193 H 0.80684 0.70253 0.86447 0.0
C2194 C 0.85937 0.64174 0.04911 0.0
C2195 C 0.83948 0.63689 0.06981 0.0
C2196 C 0.86257 0.59827 0.09481 0.0
C2197 C 0.88456 0.60663 0.07778 0.0
N2198 N 0.90542 0.63936 0.04152 0.0
N2199 N 0.82431 0.61328 0.11588 0.0
C2200 C 0.88326 0.62906 0.0555 0.0
C2201 C 0.84149 0.61562 0.09337 0.0
N2202 N 0.85496 0.65774 0.02251 0.0
N2203 N 0.8615 0.57319 0.11183 0.0
H2204 H 0.80875 0.62553 0.11591 0.0
H2205 H 0.82693 0.60131 0.13645 0.0
H2206 H 0.87644 0.55996 0.11338 0.0
H2207 H 0.84453 0.56356 0.12157 0.0
H2208 H 0.86702 0.65929 1.00418 0.0
H2209 H 0.83746 0.66667 0.01658 0.0
H2210 H 0.90723 0.65842 0.02845 0.0
H2211 H 0.92317 0.63065 0.04541 0.0
C2212 C 0.22908 0.17448 0.83821 0.0
C2213 C 0.21905 0.17779 0.86922 0.0
C2214 C 0.25969 0.22473 0.8972 0.0
C2215 C 0.26685 0.22489 0.86445 0.0
N2216 N 0.25873 0.19897 0.80344 0.0
N2217 N 0.22321 0.20856 0.92715 0.0
C2218 C 0.25147 0.19962 0.83477 0.0
C2219 C 0.23404 0.20346 0.89854 0.0
N2220 N 0.21846 0.14626 0.81294 0.0
N2221 N 0.27762 0.24432 0.92727 0.0
H2222 H 0.20443 0.19374 0.92902 0.0
H2223 H 0.23154 0.22914 0.94756 0.0
H2224 H 0.29645 0.26039 0.92753 0.0
H2225 H 0.27488 0.2427 0.95222 0.0
H2226 H 0.22672 0.14084 0.79142 0.0
H2227 H 0.20324 0.12651 0.81524 0.0
H2228 H 0.24613 0.18402 0.77984 0.0
H2229 H 0.27689 0.21428 0.80062 0.0
C2230 C 0.379 0.95891 0.36246 0.0
C2231 C 0.37861 0.96708 0.3292 0.0
C2232 C 0.34565 0.91153 0.30244 0.0
C2233 C 0.34874 0.90176 0.33562 0.0
N2234 N 0.37705 0.9163 0.39541 0.0
N2235 N 0.36394 0.94789 0.2666 0.0
C2236 C 0.36762 0.92569 0.36516 0.0
C2237 C 0.36266 0.94231 0.29907 0.0
N2238 N 0.39069 0.98296 0.392 0.0
N2239 N 0.32576 0.89228 0.27381 0.0
H2240 H 0.37421 0.97039 0.26283 0.0
H2241 H 0.35637 0.9297 0.24371 0.0
H2242 H 0.31294 0.86995 0.27384 0.0
H2243 H 0.32008 0.89987 0.25057 0.0
H2244 H 0.38948 0.97961 0.41702 0.0
H2245 H 0.39875 1.00708 0.39085 0.0
H2246 H 0.39251 0.93175 0.41656 0.0
H2247 H 0.37275 0.8921 0.39762 0.0
C2248 C 0.5735 0.4388 0.67354 0.0
C2249 C 0.58686 0.41604 0.65878 0.0
C2250 C 0.5853 0.44246 0.60771 0.0
C2251 C 0.57589 0.46795 0.62513 0.0
N2252 N 0.56546 0.49243 0.67817 0.0
N2253 N 0.60852 0.39912 0.61277 0.0
C2254 C 0.57129 0.46663 0.65906 0.0
C2255 C 0.59346 0.41857 0.62597 0.0
N2256 N 0.56164 0.43309 0.70069 0.0
N2257 N 0.58574 0.44048 0.57333 0.0
H2258 H 0.61473 0.38155 0.62514 0.0
H2259 H 0.6167 0.40216 0.59114 0.0
H2260 H 0.57925 0.45689 0.55935 0.0
H2261 H 0.58995 0.42104 0.558 0.0
H2262 H 0.54914 0.44685 0.71023 0.0
H2263 H 0.56145 0.41232 0.71087 0.0
H2264 H 0.56463 0.49439 0.70433 0.0
H2265 H 0.56432 0.51344 0.66907 0.0
C2266 C 0.41623 0.76015 0.40554 0.0
C2267 C 0.42884 0.78153 0.43884 0.0
C2268 C 0.39004 0.80803 0.42945 0.0
C2269 C 0.37796 0.78743 0.39532 0.0
N2270 N 0.38874 0.75464 0.34692 0.0
N2271 N 0.43181 0.83256 0.47677 0.0
C2272 C 0.39366 0.76652 0.38219 0.0
C2273 C 0.41688 0.80739 0.44914 0.0
N2274 N 0.42507 0.73306 0.3962 0.0
N2275 N 0.37597 0.82808 0.44369 0.0
H2276 H 0.45203 0.83416 0.49059 0.0
H2277 H 0.42555 0.85369 0.48335 0.0
H2278 H 0.35765 0.8313 0.42969 0.0
H2279 H 0.3817 0.83998 0.47007 0.0
H2280 H 0.41462 0.71506 0.37366 0.0
H2281 H 0.44097 0.72697 0.41258 0.0
H2282 H 0.40094 0.74125 0.33603 0.0
H2283 H 0.37577 0.76252 0.32836 0.0
C2284 C 0.06488 0.70509 0.10993 0.0
C2285 C 0.08483 0.72333 0.14134 0.0
C2286 C 0.09629 0.67266 0.15257 0.0
C2287 C 0.0749 0.65403 0.12255 0.0
N2288 N 0.03727 0.65226 0.07376 0.0
N2289 N 0.11701 0.72402 0.19499 0.0
C2290 C 0.05868 0.67022 0.10165 0.0
C2291 C 0.09972 0.7069 0.16334 0.0
N2292 N 0.05216 0.72122 0.08763 0.0
N2293 N 0.11383 0.65782 0.17063 0.0
H2294 H 0.12102 0.74912 0.2031 0.0
H2295 H 0.12574 0.71326 0.21437 0.0
H2296 H 0.11163 0.63286 0.16476 0.0
H2297 H 0.13193 0.67043 0.18989 0.0
H2298 H 0.04007 0.71018 0.06234 0.0
H2299 H 0.05495 0.74637 0.09367 0.0
H2300 H 0.0224 0.6618 0.06013 0.0
H2301 H 0.03339 0.62719 0.06499 0.0
C2302 C 0.09053 0.26482 0.92297 0.0
C2303 C 0.09076 0.2898 0.95134 0.0
C2304 C 0.1373 0.3204 0.94747 0.0
C2305 C 0.13615 0.29661 0.91756 0.0
N2306 N 0.1092 0.2491 0.87293 0.0
N2307 N 0.11193 0.34449 0.98569 0.0
C2308 C 0.11201 0.26967 0.90419 0.0
C2309 C 0.1135 0.31847 0.96217 0.0
N2310 N 0.0706 0.23573 0.91499 0.0
N2311 N 0.16154 0.34434 0.96269 0.0
H2312 H 0.09473 0.34434 0.99648 0.0
H2313 H 0.12631 0.36727 0.99188 0.0
H2314 H 0.17935 0.34657 0.95283 0.0
H2315 H 0.16486 0.36023 0.98675 0.0
H2316 H 0.07118 0.21528 0.89746 0.0
H2317 H 0.05469 0.23107 0.92805 0.0
H2318 H 0.09085 0.23121 0.85977 0.0
H2319 H 0.12441 0.25168 0.85857 0.0
C2320 C 0.58388 0.76396 0.98359 0.0
C2321 C 0.56688 0.78593 0.98494 0.0
C2322 C 0.54063 0.75557 0.01976 0.0
C2323 C 0.55938 0.73567 0.02152 0.0
N2324 N 0.60129 0.7233 0.00967 0.0
N2325 N 0.53393 0.80762 0.01153 0.0
C2326 C 0.58171 0.74045 1.00465 0.0
C2327 C 0.5465 0.7831 1.00493 0.0
N2328 N 0.60143 0.76496 0.9615 0.0
N2329 N 0.51695 0.74785 0.03172 0.0
H2330 H 0.53889 0.82927 1.003 0.0
H2331 H 0.52093 0.80811 0.02879 0.0
H2332 H 0.51184 0.72768 0.04273 0.0
H2333 H 0.50112 0.75963 0.02765 0.0
H2334 H 0.61206 0.74732 0.95657 0.0
H2335 H 0.60372 0.78205 0.94589 0.0
H2336 H 0.61969 0.72828 1.0012 0.0
H2337 H 0.60022 0.70567 0.02473 0.0
C2338 C 0.19135 0.81819 0.78918 0.0
C2339 C 0.17444 0.79211 0.79903 0.0
C2340 C 0.21634 0.77638 0.82392 0.0
C2341 C 0.23227 0.79854 0.8079 0.0
N2342 N 0.23349 0.83723 0.77042 0.0
N2343 N 0.17025 0.74407 0.82309 0.0
C2344 C 0.21938 0.81862 0.78923 0.0
C2345 C 0.18674 0.77056 0.81582 0.0
N2346 N 0.18078 0.8431 0.78083 0.0
N2347 N 0.22935 0.76223 0.84821 0.0
H2348 H 0.14854 0.73952 0.81833 0.0
H2349 H 0.17799 0.72555 0.83162 0.0
H2350 H 0.25102 0.76712 0.8566 0.0
H2351 H 0.21871 0.7484 0.86291 0.0
H2352 H 0.19288 0.86416 0.77617 0.0
H2353 H 0.16085 0.84436 0.78306 0.0
H2354 H 0.22402 0.85002 0.75384 0.0
H2355 H 0.25376 0.83721 0.7685 0.0
C2356 C 0.02661 0.42514 0.50174 0.0
C2357 C 0.03917 0.40253 0.51592 0.0
C2358 C 0.05384 0.43971 0.57372 0.0
C2359 C 0.04654 0.46468 0.5579 0.0
N2360 N 0.02945 0.48162 0.50467 0.0
N2361 N 0.06662 0.3887 0.56529 0.0
C2362 C 0.03336 0.45743 0.52144 0.0
C2363 C 0.05299 0.40966 0.55205 0.0
N2364 N 1.00804 0.41581 0.46957 0.0
N2365 N 0.06164 0.44485 0.60946 0.0
H2366 H 0.06706 0.36678 0.55013 0.0
H2367 H 0.07951 0.39432 0.59054 0.0
H2368 H 0.06197 0.46651 0.62589 0.0
H2369 H 0.06491 0.42664 0.62268 0.0
H2370 H 0.99615 0.43063 0.45979 0.0
H2371 H 1.00232 0.39219 0.45428 0.0
H2372 H 0.02303 0.47811 0.47748 0.0
H2373 H 0.03562 0.50572 0.51771 0.0
C2374 C 0.49706 0.28275 0.31975 0.0
C2375 C 0.51988 0.3081 0.31834 0.0
C2376 C 0.50165 0.34864 0.35049 0.0
C2377 C 0.47868 0.32338 0.35175 0.0
N2378 N 0.45841 0.26621 0.34639 0.0
N2379 N 0.54856 0.36303 0.34164 0.0
C2380 C 0.4777 0.2903 0.33925 0.0
C2381 C 0.52364 0.34041 0.33674 0.0
N2382 N 0.49304 0.25187 0.30101 0.0
N2383 N 0.50183 0.38051 0.36078 0.0
H2384 H 0.56536 0.35719 0.33297 0.0
H2385 H 0.55358 0.38632 0.35742 0.0
H2386 H 0.4863 0.38764 0.37137 0.0
H2387 H 0.51634 0.39983 0.35653 0.0
H2388 H 0.47501 0.23319 0.2976 0.0
H2389 H 0.50705 0.24536 0.28698 0.0
H2390 H 0.45838 0.24177 0.3411 0.0
H2391 H 0.44405 0.2711 0.36068 0.0
C2392 C 0.62187 0.53423 0.47256 0.0
C2393 C 0.62628 0.56558 0.4645 0.0
C2394 C 0.59255 0.57767 0.49835 0.0
C2395 C 0.59156 0.54854 0.5112 0.0
N2396 N 0.60704 0.49973 0.51135 0.0
N2397 N 0.61848 0.61897 0.47379 0.0
C2398 C 0.60658 0.5269 0.49825 0.0
C2399 C 0.61238 0.5878 0.47857 0.0
N2400 N 0.6319 0.51118 0.45505 0.0
N2401 N 0.57312 0.59446 0.50242 0.0
H2402 H 0.63239 0.62713 0.45898 0.0
H2403 H 0.61152 0.63732 0.4869 0.0
H2404 H 0.55614 0.58584 0.51249 0.0
H2405 H 0.57145 0.61429 0.49118 0.0
H2406 H 0.6272 0.48686 0.45679 0.0
H2407 H 0.64285 0.51558 0.43597 0.0
H2408 H 0.61872 0.48382 0.50466 0.0
H2409 H 0.5975 0.49442 0.53131 0.0
C2410 C 0.26849 0.79722 0.06315 0.0
C2411 C 0.24068 0.80037 0.05748 0.0
C2412 C 0.23663 0.78291 0.1121 0.0
C2413 C 0.26548 0.78478 0.11998 0.0
N2414 N 0.30939 0.79318 0.10279 0.0
N2415 N 0.19845 0.79843 0.07778 0.0
C2416 C 0.28146 0.79141 0.09535 0.0
C2417 C 0.22443 0.79309 0.08189 0.0
N2418 N 0.28353 0.8006 0.0385 0.0
N2419 N 0.22153 0.77088 0.13409 0.0
H2420 H 0.18865 0.8056 0.05598 0.0
H2421 H 0.18725 0.798 0.09706 0.0
H2422 H 0.19985 0.76621 0.1298 0.0
H2423 H 0.19985 0.76621 0.1298 0.0
H2424 H 0.2755 0.80407 0.01359 0.0
H2425 H 0.2755 0.80407 0.01359 0.0
H2426 H 0.32168 0.79824 0.08515 0.0
H2427 H 0.32038 0.79065 0.12678 0.0
C2428 C 0.97457 0.54587 0.95757 0.0
C2429 C 0.98389 0.56705 0.9357 0.0
C2430 C 0.02837 0.58941 0.98274 0.0
C2431 C 0.02083 0.56456 1.00167 0.0
N2432 N 0.98659 0.51638 1.00302 0.0
N2433 N 0.02153 0.60792 0.92766 0.0
C2434 C 0.99369 0.54236 0.98817 0.0
C2435 C 1.01123 0.58875 0.94864 0.0
N2436 N 0.94696 0.52931 0.94937 0.0
N2437 N 0.05177 0.61453 0.99789 0.0
H2438 H 1.0095 0.60884 0.90353 0.0
H2439 H 0.04237 0.62122 0.93311 0.0
H2440 H 0.0642 0.61658 0.0228 0.0
H2441 H 0.05713 0.63505 0.98758 0.0
H2442 H 0.93791 0.51587 0.96558 0.0
H2443 H 0.93252 0.5321 0.92818 0.0
H2444 H 0.96858 0.49728 0.99229 0.0
H2445 H 0.99997 0.5125 0.02442 0.0
C2446 C 0.25264 0.23775 0.67586 0.0
C2447 C 0.27482 0.24055 0.65872 0.0
C2448 C 0.30766 0.27201 0.7143 0.0
C2449 C 0.28594 0.2656 0.73241 0.0
N2450 N 0.23943 0.23333 0.73012 0.0
N2451 N 0.32434 0.25615 0.66265 0.0
C2452 C 0.25885 0.24604 0.71311 0.0
C2453 C 0.30263 0.25619 0.67834 0.0
N2454 N 0.22549 0.22725 0.65673 0.0
N2455 N 0.33261 0.29445 0.73048 0.0
H2456 H 0.32144 0.24636 0.63601 0.0
H2457 H 0.34525 0.26363 0.67661 0.0
H2458 H 0.33724 0.30799 0.75604 0.0
H2459 H 0.34778 0.30243 0.71727 0.0
H2460 H 0.20857 0.22789 0.66788 0.0
H2461 H 0.21997 0.22095 0.62945 0.0
H2462 H 0.22049 0.21635 0.71709 0.0
H2463 H 0.24345 0.23627 0.75726 0.0
C2464 C 0.59024 0.58364 0.26254 0.0
C2465 C 0.60752 0.56371 0.27348 0.0
C2466 C 0.60754 0.54393 0.21193 0.0
C2467 C 0.58703 0.56025 0.20052 0.0
N2468 N 0.55533 0.59163 0.21648 0.0
N2469 N 0.62884 0.52052 0.25801 0.0
C2470 C 0.57748 0.57913 0.22622 0.0
C2471 C 0.61511 0.54261 0.24799 0.0
N2472 N 0.5867 0.60781 0.28673 0.0
N2473 N 0.62107 0.53125 0.18882 0.0
H2474 H 0.63444 0.51864 0.28408 0.0
H2475 H 0.63218 0.50214 0.24015 0.0
H2476 H 0.61752 0.53339 0.16274 0.0
H2477 H 0.63812 0.52207 0.19655 0.0
H2478 H 0.57707 0.62558 0.27986 0.0
H2479 H 0.59583 0.61219 0.31353 0.0
H2480 H 0.54553 0.60193 0.23438 0.0
H2481 H 0.54472 0.58895 0.19064 0.0
C2482 C 0.266 0.86324 0.92647 0.0
C2483 C 0.24526 0.83731 0.93125 0.0
C2484 C 0.27804 0.80315 0.93295 0.0
C2485 C 0.29661 0.82715 0.92234 0.0
N2486 N 0.31493 0.88388 0.92694 0.0
N2487 N 0.23086 0.78227 0.93886 0.0
C2488 C 0.29262 0.85855 0.92484 0.0
C2489 C 0.25124 0.80729 0.93507 0.0
N2490 N 0.25983 0.89165 0.92163 0.0
N2491 N 0.28657 0.77733 0.94236 0.0
H2492 H 0.21106 0.78452 0.94065 0.0
H2493 H 0.23284 0.7587 0.93793 0.0
H2494 H 0.30716 0.77599 0.94463 0.0
H2495 H 0.27475 0.75982 0.95244 0.0
H2496 H 0.27327 0.91001 0.91445 0.0
H2497 H 0.24065 0.89622 0.9231 0.0
H2498 H 0.31452 0.90819 0.93163 0.0
H2499 H 0.3348 0.88021 0.92817 0.0
C2500 C 0.99749 0.53886 0.73686 0.0
C2501 C 0.97958 0.56016 0.74068 0.0
C2502 C 0.98945 0.57548 0.68484 0.0
C2503 C 1.00672 0.55332 0.68033 0.0
N2504 N 0.02049 0.50825 0.69984 0.0
N2505 N 0.95499 0.59412 0.71287 0.0
C2506 C 1.00884 0.53362 0.70593 0.0
C2507 C 0.97441 0.57672 0.71278 0.0
N2508 N 1.00397 0.52328 0.76327 0.0
N2509 N 0.98872 0.59737 0.66386 0.0
H2510 H 0.94455 0.59639 0.73288 0.0
H2511 H 0.94736 0.6037 0.69179 0.0
H2512 H 0.9992 0.59807 0.64402 0.0
H2513 H 0.97989 0.6168 0.66809 0.0
H2514 H 0.01985 0.51145 0.76544 0.0
H2515 H 0.99426 0.52347 0.78406 0.0
H2516 H 0.0202 0.4906 0.71478 0.0
H2517 H 0.0278 0.5027 0.67749 0.0
C2518 C 0.29081 0.22678 0.461 0.0
C2519 C 0.26972 0.23304 0.47805 0.0
C2520 C 0.26838 0.27996 0.44987 0.0
C2521 C 0.29052 0.27468 0.43446 0.0
N2522 N 0.32778 0.24834 0.43381 0.0
N2523 N 0.24257 0.26981 0.49415 0.0
C2524 C 0.30313 0.24956 0.44242 0.0
C2525 C 0.25963 0.26081 0.47391 0.0
N2526 N 0.29834 0.19832 0.46111 0.0
N2527 N 0.25515 0.30279 0.44088 0.0
H2528 H 0.23632 0.25708 0.51257 0.0
H2529 H 0.23675 0.29153 0.49519 0.0
H2530 H 0.26155 0.31798 0.42453 0.0
H2531 H 0.23668 0.30514 0.44752 0.0
H2532 H 0.31115 0.19069 0.44581 0.0
H2533 H 0.28974 0.1808 0.47386 0.0
H2534 H 0.33944 0.2327 0.44196 0.0
H2535 H 0.3382 0.26531 0.4218 0.0
C2536 C 0.36858 0.56139 0.62908 0.0
C2537 C 0.38493 0.59278 0.64816 0.0
C2538 C 0.42624 0.57924 0.63327 0.0
C2539 C 0.40818 0.55338 0.60575 0.0
N2540 N 0.36146 0.51948 0.57738 0.0
N2541 N 0.43073 0.62849 0.67591 0.0
C2542 C 0.37915 0.54391 0.60392 0.0
C2543 C 0.41438 0.60053 0.65299 0.0
N2544 N 0.34358 0.54788 0.63572 0.0
N2545 N 0.45451 0.58306 0.64061 0.0
H2546 H 0.42266 0.64261 0.69305 0.0
H2547 H 0.45191 0.63787 0.67757 0.0
H2548 H 0.4637 0.56753 0.62683 0.0
H2549 H 0.4686 0.59964 0.66216 0.0
H2550 H 0.33166 0.5242 0.62361 0.0
H2551 H 0.33712 0.5584 0.6571 0.0
H2552 H 0.33976 0.51414 0.57315 0.0
H2553 H 0.3683 0.5064 0.55795 0.0
C2554 C 0.95413 1.00314 0.65889 0.0
C2555 C 0.93622 0.97788 0.63085 0.0
C2556 C 0.96843 0.99285 0.59304 0.0
C2557 C 0.98557 0.01958 0.62043 0.0
N2558 N 0.99332 0.0514 0.67926 0.0
N2559 N 0.92443 0.95053 0.57005 0.0
C2560 C 0.97788 0.02507 0.6532 0.0
C2561 C 0.94302 0.97315 0.59769 0.0
N2562 N 0.9492 1.00522 0.69163 0.0
N2563 N 0.97625 0.98635 0.5623 0.0
H2564 H 0.90595 0.93554 0.5725 0.0
H2565 H 0.92602 0.94803 0.54417 0.0
H2566 H 0.99331 1.00129 0.55692 0.0
H2567 H 0.96699 0.96521 0.54289 0.0
H2568 H 0.96322 0.02007 0.71435 0.0
H2569 H 0.93179 0.99023 0.6966 0.0
H2570 H 0.98656 0.05988 0.70119 0.0
H2571 H 1.01284 0.06548 0.67885 0.0
C2572 C 0.9187 0.10945 0.29156 0.0
C2573 C 0.92143 0.09015 0.31689 0.0
C2574 C 0.88174 0.10325 0.33705 0.0
C2575 C 0.87961 0.12353 0.31258 0.0
N2576 N 0.89744 0.14948 0.26942 0.0
N2577 N 0.90903 0.07201 0.36711 0.0
C2578 C 0.89849 0.12764 0.29059 0.0
C2579 C 0.90389 0.08796 0.34058 0.0
N2580 N 0.9351 0.10981 0.26808 0.0
N2581 N 0.86243 0.09845 0.35667 0.0
H2582 H 0.9249 0.06019 0.37015 0.0
H2583 H 0.89914 0.07241 0.38766 0.0
H2584 H 0.84681 0.11064 0.35636 0.0
H2585 H 0.86069 0.08099 0.37182 0.0
H2586 H 0.93195 0.11997 0.24616 0.0
H2587 H 0.9513 0.09845 0.26964 0.0
H2588 H 0.91264 0.15663 0.256 0.0
H2589 H 0.88204 0.16203 0.26666 0.0
C2590 C 0.78967 0.18101 0.21502 0.0
C2591 C 0.80957 0.16291 0.21142 0.0
C2592 C 0.77386 0.11208 0.20561 0.0
C2593 C 0.7543 0.13037 0.2097 0.0
N2594 N 0.74493 0.1822 0.22747 0.0
N2595 N 0.82261 0.11259 0.21097 0.0
C2596 C 0.76279 0.16485 0.21784 0.0
C2597 C 0.80223 0.12878 0.2092 0.0
N2598 N 0.79526 0.21286 0.21238 0.0
N2599 N 0.7651 0.07882 0.19742 0.0
H2600 H 0.84367 0.1246 0.21499 0.0
H2601 H 0.81923 0.08816 0.21214 0.0
H2602 H 0.74472 0.06599 0.19634 0.0
H2603 H 0.77751 0.06395 0.19008 0.0
H2604 H 0.78007 0.22565 0.21004 0.0
H2605 H 0.81425 0.22588 0.20927 0.0
H2606 H 0.75106 0.2073 0.23731 0.0
H2607 H 0.72465 0.17128 0.2287 0.0
C2608 C 0.22566 0.41347 0.34413 0.0
C2609 C 0.23685 0.44228 0.37176 0.0
C2610 C 0.27363 0.41408 0.3951 0.0
C2611 C 0.26436 0.38659 0.36564 0.0
N2612 N 0.2321 0.36513 0.30844 0.0
N2613 N 0.27633 0.47084 0.41977 0.0
C2614 C 0.24048 0.38783 0.3393 0.0
C2615 C 0.26225 0.44255 0.39586 0.0
N2616 N 0.19992 0.4096 0.32286 0.0
N2617 N 0.2922 0.41239 0.42425 0.0
H2618 H 0.26936 0.49189 0.42096 0.0
H2619 H 0.29631 0.47449 0.43555 0.0
H2620 H 0.29935 0.39184 0.42646 0.0
H2621 H 0.29766 0.42953 0.44788 0.0
H2622 H 0.18841 0.38783 0.30537 0.0
H2623 H 0.18921 0.42759 0.32473 0.0
H2624 H 0.21744 0.36657 0.28677 0.0
H2625 H 0.24154 0.34648 0.30308 0.0
C2626 C 0.2469 0.44835 0.08416 0.0
C2627 C 0.26769 0.45638 0.1163 0.0
C2628 C 0.24569 0.49817 0.13946 0.0
C2629 C 0.22332 0.48761 0.10871 0.0
N2630 N 0.2003 0.44869 0.0542 0.0
N2631 N 0.28445 0.48582 0.17666 0.0
C2632 C 0.2233 0.46155 0.08175 0.0
C2633 C 0.26651 0.48059 0.14451 0.0
N2634 N 0.25033 0.42913 0.05531 0.0
N2635 N 0.24752 0.52559 0.16347 0.0
H2636 H 0.29986 0.47353 0.18149 0.0
H2637 H 0.28261 0.50037 0.19924 0.0
H2638 H 0.23262 0.53884 0.1609 0.0
H2639 H 0.26488 0.53668 0.18439 0.0
H2640 H 0.23741 0.42492 0.03026 0.0
H2641 H 0.2679 0.42027 0.05566 0.0
H2642 H 0.19771 0.42743 0.03576 0.0
H2643 H 0.18259 0.45752 0.05156 0.0
C2644 C 0.87176 0.90647 0.28757 0.0
C2645 C 0.89776 0.91577 0.31297 0.0
C2646 C 0.87418 0.89029 0.35383 0.0
C2647 C 0.84906 0.87656 0.32682 0.0
N2648 N 0.8255 0.86922 0.2656 0.0
N2649 N 0.92451 0.91202 0.36876 0.0
C2650 C 0.84817 0.88425 0.2931 0.0
C2651 C 0.89921 0.90613 0.34551 0.0
N2652 N 0.86957 0.91872 0.25793 0.0
N2653 N 0.87388 0.89056 0.3881 0.0
H2654 H 0.94334 0.924 0.36426 0.0
H2655 H 0.92706 0.90216 0.39099 0.0
H2656 H 0.85568 0.88247 0.39612 0.0
H2657 H 0.89092 0.90289 0.40905 0.0
H2658 H 0.85052 0.91645 0.24064 0.0
H2659 H 0.88663 0.93325 0.25183 0.0
H2660 H 0.825 0.87129 0.23983 0.0
H2661 H 0.80833 0.85158 0.2672 0.0
C2662 C 0.72581 0.14899 0.8319 0.0
C2663 C 0.73238 0.13792 0.86361 0.0
C2664 C 0.7707 0.18999 0.88632 0.0
C2665 C 0.76145 0.2028 0.85635 0.0
N2666 N 0.72486 0.19485 0.80411 0.0
N2667 N 0.75981 0.1511 0.92313 0.0
C2668 C 0.73765 0.18222 0.83005 0.0
C2669 C 0.75457 0.15937 0.89135 0.0
N2670 N 0.70849 0.12728 0.80273 0.0
N2671 N 0.79565 0.20625 0.90945 0.0
H2672 H 0.74919 0.12895 0.92731 0.0
H2673 H 0.77316 0.16704 0.94572 0.0
H2674 H 0.80853 0.22738 0.906 0.0
H2675 H 0.80491 0.19704 0.92995 0.0
H2676 H 0.70485 0.13262 0.77793 0.0
H2677 H 0.70037 0.1028 0.80262 0.0
H2678 H 0.70588 0.18223 0.78641 0.0
H2679 H 0.73125 0.2192 0.80276 0.0
loop_
_geom_bond_atom_site_label_1
_geom_bond_atom_site_label_2
_geom_bond_distance
_geom_bond_site_symmetry_2
_ccdc_geom_bond_type
C0 O1 1.160 . S
C0 O7 1.185 . S
O1 C0 1.160 . S
O2 Zn3 1.899 . S
O2 C10 1.284 . S
Zn3 O2 1.899 . S
Zn3 O4 2.032 . S
Zn3 O7 2.086 . S
Zn3 O12 1.977 1_455 S
O4 Zn3 2.032 . S
O4 C8 1.278 . S
C5 O6 1.203 . S
C5 O12 1.267 . S
O6 C5 1.203 . S
O7 C0 1.185 . S
O7 Zn3 2.086 . S
C8 O4 1.278 . S
C8 O9 1.211 1_455 S
O9 C8 1.211 1_655 S
C10 O2 1.284 . S
C10 O11 1.270 1_455 S
O11 C10 1.270 1_655 S
O12 Zn3 1.977 1_655 S
O12 C5 1.267 . S
C13 O14 1.160 . S
C13 O20 1.185 . S
O14 C13 1.160 . S
O15 Zn16 1.899 . S
O15 C23 1.284 . S
Zn16 O15 1.899 . S
Zn16 O17 2.032 . S
Zn16 O20 2.086 . S
Zn16 O25 1.977 . S
O17 Zn16 2.032 . S
O17 C21 1.278 . S
C18 O19 1.203 . S
C18 O25 1.267 . S
O19 C18 1.203 . S
O20 C13 1.185 . S
O20 Zn16 2.086 . S
C21 O17 1.278 . S
C21 O22 1.211 . S
O22 C21 1.211 . S
C23 O15 1.284 . S
C23 O24 1.273 . S
O24 C23 1.273 . S
O25 Zn16 1.977 . S
O25 C18 1.267 . S
C26 O27 1.160 . S
C26 O33 1.185 . S
O27 C26 1.160 . S
O28 Zn29 1.899 . S
O28 C36 1.284 . S
Zn29 O28 1.899 . S
Zn29 O30 2.032 . S
Zn29 O33 2.086 . S
Zn29 O38 1.977 . S
O30 Zn29 2.032 . S
O30 C34 1.278 . S
C31 O32 1.203 . S
C31 O38 1.267 . S
O32 C31 1.203 . S
O33 C26 1.185 . S
O33 Zn29 2.086 . S
C34 O30 1.278 . S
C34 O35 1.211 . S
O35 C34 1.211 . S
C36 O28 1.284 . S
C36 O37 1.273 . S
O37 C36 1.273 . S
O38 Zn29 1.977 . S
O38 C31 1.267 . S
C39 O40 1.160 . S
C39 O46 1.185 . S
O40 C39 1.160 . S
O41 Zn42 1.899 . S
O41 C49 1.284 . S
Zn42 O41 1.899 . S
Zn42 O43 2.032 . S
Zn42 O46 2.086 . S
Zn42 O51 1.977 . S
O43 Zn42 2.032 . S
O43 C47 1.278 . S
C44 O45 1.203 . S
C44 O51 1.267 . S
O45 C44 1.203 . S
O46 C39 1.185 . S
O46 Zn42 2.086 . S
C47 O43 1.278 . S
C47 O48 1.211 . S
O48 C47 1.211 . S
C49 O41 1.284 . S
C49 O50 1.273 . S
O50 C49 1.273 . S
O51 Zn42 1.977 . S
O51 C44 1.267 . S
C52 O53 1.160 . S
C52 O59 1.185 . S
O53 C52 1.160 . S
O54 Zn55 1.899 . S
O54 C62 1.284 . S
Zn55 O54 1.899 . S
Zn55 O56 2.032 . S
Zn55 O59 2.086 . S
Zn55 O64 1.977 . S
O56 Zn55 2.032 . S
O56 C60 1.278 . S
C57 O58 1.203 . S
C57 O64 1.267 . S
O58 C57 1.203 . S
O59 C52 1.185 . S
O59 Zn55 2.086 . S
C60 O56 1.278 . S
C60 O61 1.211 . S
O61 C60 1.211 . S
C62 O54 1.284 . S
C62 O63 1.273 . S
O63 C62 1.273 . S
O64 Zn55 1.977 . S
O64 C57 1.267 . S
C65 O66 1.160 . S
C65 O72 1.185 . S
O66 C65 1.160 . S
O67 Zn68 1.899 . S
O67 C75 1.284 . S
Zn68 O67 1.899 . S
Zn68 O69 2.032 . S
Zn68 O72 2.086 . S
Zn68 O77 1.977 . S
O69 Zn68 2.032 . S
O69 C73 1.278 . S
C70 O71 1.203 . S
C70 O77 1.267 . S
O71 C70 1.203 . S
O72 C65 1.185 . S
O72 Zn68 2.086 . S
C73 O69 1.278 . S
C73 O74 1.211 . S
O74 C73 1.211 . S
C75 O67 1.284 . S
C75 O76 1.273 . S
O76 C75 1.273 . S
O77 Zn68 1.977 . S
O77 C70 1.267 . S
C78 O79 1.160 . S
C78 O85 1.185 . S
O79 C78 1.160 . S
O80 Zn81 1.899 . S
O80 C88 1.284 . S
Zn81 O80 1.899 . S
Zn81 O82 2.032 . S
Zn81 O85 2.086 . S
Zn81 O90 1.977 . S
O82 Zn81 2.032 . S
O82 C86 1.278 . S
C83 O84 1.203 . S
C83 O90 1.267 . S
O84 C83 1.203 . S
O85 C78 1.185 . S
O85 Zn81 2.086 . S
C86 O82 1.278 . S
C86 O87 1.211 . S
O87 C86 1.211 . S
C88 O80 1.284 . S
C88 O89 1.273 . S
O89 C88 1.273 . S
O90 Zn81 1.977 . S
O90 C83 1.267 . S
C91 O92 1.160 . S
C91 O98 1.185 . S
O92 C91 1.160 . S
O93 Zn94 1.899 . S
O93 C101 1.284 1_556 S
Zn94 O93 1.899 . S
Zn94 O95 2.032 1_556 S
Zn94 O98 2.086 . S
Zn94 O103 1.977 1_455 S
O95 Zn94 2.032 1_554 S
O95 C99 1.278 . S
C96 O97 1.203 . S
C96 O103 1.267 . S
O97 C96 1.203 . S
O98 C91 1.185 . S
O98 Zn94 2.086 . S
C99 O95 1.278 . S
C99 O100 1.211 1_455 S
O100 C99 1.211 1_655 S
C101 O93 1.284 1_554 S
C101 O102 1.273 . S
O102 C101 1.273 . S
O103 Zn94 1.977 1_655 S
O103 C96 1.267 . S
C104 O105 1.160 . S
C104 O111 1.185 . S
O105 C104 1.160 . S
O106 Zn107 1.899 . S
O106 C114 1.284 . S
Zn107 O106 1.899 . S
Zn107 O108 2.032 . S
Zn107 O111 2.086 . S
Zn107 O116 1.977 . S
O108 Zn107 2.032 . S
O108 C112 1.278 . S
C109 O110 1.203 . S
C109 O116 1.267 1_565 S
O110 C109 1.203 . S
O111 C104 1.185 . S
O111 Zn107 2.086 . S
C112 O108 1.278 . S
C112 O113 1.211 . S
O113 C112 1.211 . S
C114 O106 1.284 . S
C114 O115 1.273 . S
O115 C114 1.273 . S
O116 Zn107 1.977 . S
O116 C109 1.267 1_545 S
C117 O118 1.160 . S
C117 O124 1.185 . S
O118 C117 1.160 . S
O119 Zn120 1.899 . S
O119 C127 1.284 . S
Zn120 O119 1.899 . S
Zn120 O121 2.032 . S
Zn120 O124 2.086 . S
Zn120 O129 1.977 . S
O121 Zn120 2.032 . S
O121 C125 1.278 . S
C122 O123 1.203 . S
C122 O129 1.267 . S
O123 C122 1.203 . S
O124 C117 1.185 . S
O124 Zn120 2.086 . S
C125 O121 1.278 . S
C125 O126 1.211 . S
O126 C125 1.211 . S
C127 O119 1.284 . S
C127 O128 1.273 . S
O128 C127 1.273 . S
O129 Zn120 1.977 . S
O129 C122 1.267 . S
C130 O131 1.160 . S
C130 O137 1.185 . S
O131 C130 1.160 . S
O132 Zn133 1.899 . S
O132 C140 1.284 . S
Zn133 O132 1.899 . S
Zn133 O134 2.032 . S
Zn133 O137 2.086 . S
Zn133 O142 1.977 . S
O134 Zn133 2.032 . S
O134 C138 1.278 . S
C135 O136 1.203 . S
C135 O142 1.267 . S
O136 C135 1.203 . S
O137 C130 1.185 . S
O137 Zn133 2.086 . S
C138 O134 1.278 . S
C138 O139 1.211 . S
O139 C138 1.211 . S
C140 O132 1.284 . S
C140 O141 1.273 . S
O141 C140 1.273 . S
O142 Zn133 1.977 . S
O142 C135 1.267 . S
C143 O144 1.160 . S
C143 O150 1.185 1_554 S
O144 C143 1.160 . S
O145 Zn146 1.899 . S
O145 C153 1.284 . S
Zn146 O145 1.899 . S
Zn146 O147 2.032 1_554 S
Zn146 O150 2.086 1_554 S
Zn146 O155 1.977 . S
O147 Zn146 2.032 1_556 S
O147 C151 1.278 . S
C148 O149 1.203 . S
C148 O155 1.267 . S
O149 C148 1.203 . S
O150 C143 1.185 1_556 S
O150 Zn146 2.086 1_556 S
C151 O147 1.278 . S
C151 O152 1.211 . S
O152 C151 1.211 . S
C153 O145 1.284 . S
C153 O154 1.273 . S
O154 C153 1.273 . S
O155 Zn146 1.977 . S
O155 C148 1.267 . S
C156 O157 1.160 . S
C156 O163 1.185 . S
O157 C156 1.160 . S
O158 Zn159 1.899 . S
O158 C166 1.284 . S
Zn159 O158 1.899 . S
Zn159 O160 2.032 . S
Zn159 O163 2.086 . S
Zn159 O168 1.977 . S
O160 Zn159 2.032 . S
O160 C164 1.278 . S
C161 O162 1.203 . S
C161 O168 1.267 . S
O162 C161 1.203 . S
O163 C156 1.185 . S
O163 Zn159 2.086 . S
C164 O160 1.278 . S
C164 O165 1.211 . S
O165 C164 1.211 . S
C166 O158 1.284 . S
C166 O167 1.273 . S
O167 C166 1.273 . S
O168 Zn159 1.977 . S
O168 C161 1.267 . S
C169 O170 1.160 . S
C169 O176 1.185 . S
O170 C169 1.160 . S
O171 Zn172 1.899 . S
O171 C179 1.284 . S
Zn172 O171 1.899 . S
Zn172 O173 2.032 . S
Zn172 O176 2.086 . S
Zn172 O181 1.977 . S
O173 Zn172 2.032 . S
O173 C177 1.278 . S
C174 O175 1.203 . S
C174 O181 1.267 . S
O175 C174 1.203 . S
O176 C169 1.185 . S
O176 Zn172 2.086 . S
C177 O173 1.278 . S
C177 O178 1.211 . S
O178 C177 1.211 . S
C179 O171 1.284 . S
C179 O180 1.273 . S
O180 C179 1.273 . S
O181 Zn172 1.977 . S
O181 C174 1.267 . S
C182 O183 1.160 . S
C182 O189 1.185 . S
O183 C182 1.160 . S
O184 Zn185 1.899 . S
O184 C192 1.284 . S
Zn185 O184 1.899 . S
Zn185 O186 2.032 . S
Zn185 O189 2.086 . S
Zn185 O194 1.977 . S
O186 Zn185 2.032 . S
O186 C190 1.278 . S
C187 O188 1.203 . S
C187 O194 1.267 . S
O188 C187 1.203 . S
O189 C182 1.185 . S
O189 Zn185 2.086 . S
C190 O186 1.278 . S
C190 O191 1.211 . S
O191 C190 1.211 . S
C192 O184 1.284 . S
C192 O193 1.273 . S
O193 C192 1.273 . S
O194 Zn185 1.977 . S
O194 C187 1.267 . S
C195 O196 1.160 . S
C195 O202 1.185 . S
O196 C195 1.160 . S
O197 Zn198 1.899 . S
O197 C205 1.284 . S
Zn198 O197 1.899 . S
Zn198 O199 2.032 . S
Zn198 O202 2.086 . S
Zn198 O207 1.977 . S
O199 Zn198 2.032 . S
O199 C203 1.278 . S
C200 O201 1.203 . S
C200 O207 1.267 . S
O201 C200 1.203 . S
O202 C195 1.185 . S
O202 Zn198 2.086 . S
C203 O199 1.278 . S
C203 O204 1.211 . S
O204 C203 1.211 . S
C205 O197 1.284 . S
C205 O206 1.273 . S
O206 C205 1.273 . S
O207 Zn198 1.977 . S
O207 C200 1.267 . S
C208 O209 1.160 . S
C208 O215 1.185 . S
O209 C208 1.160 . S
O210 Zn211 1.899 . S
O210 C218 1.284 1_545 S
Zn211 O210 1.899 . S
Zn211 O212 2.032 . S
Zn211 O215 2.086 . S
Zn211 O220 1.977 1_545 S
O212 Zn211 2.032 . S
O212 C216 1.278 . S
C213 O214 1.203 . S
C213 O220 1.267 . S
O214 C213 1.203 . S
O215 C208 1.185 . S
O215 Zn211 2.086 . S
C216 O212 1.278 . S
C216 O217 1.211 1_545 S
O217 C216 1.211 1_565 S
C218 O210 1.284 1_565 S
C218 O219 1.273 . S
O219 C218 1.273 . S
O220 Zn211 1.977 1_565 S
O220 C213 1.267 . S
C221 O222 1.160 . S
C221 O228 1.185 . S
O222 C221 1.160 . S
O223 Zn224 1.899 . S
O223 C231 1.284 . S
Zn224 O223 1.899 . S
Zn224 O225 2.032 . S
Zn224 O228 2.086 . S
Zn224 O233 1.977 . S
O225 Zn224 2.032 . S
O225 C229 1.278 . S
C226 O227 1.203 . S
C226 O233 1.267 . S
O227 C226 1.203 . S
O228 C221 1.185 . S
O228 Zn224 2.086 . S
C229 O225 1.278 . S
C229 O230 1.211 . S
O230 C229 1.211 . S
C231 O223 1.284 . S
C231 O232 1.273 . S
O232 C231 1.273 . S
O233 Zn224 1.977 . S
O233 C226 1.267 . S
C234 O235 1.160 . S
C234 O241 1.185 . S
O235 C234 1.160 . S
O236 Zn237 1.899 . S
O236 C244 1.284 . S
Zn237 O236 1.899 . S
Zn237 O238 2.032 . S
Zn237 O241 2.086 . S
Zn237 O246 1.977 . S
O238 Zn237 2.032 . S
O238 C242 1.278 . S
C239 O240 1.203 . S
C239 O246 1.267 . S
O240 C239 1.203 . S
O241 C234 1.185 . S
O241 Zn237 2.086 . S
C242 O238 1.278 . S
C242 O243 1.211 . S
O243 C242 1.211 . S
C244 O236 1.284 . S
C244 O245 1.273 . S
O245 C244 1.273 . S
O246 Zn237 1.977 . S
O246 C239 1.267 . S
C247 O248 1.160 . S
C247 O254 1.185 1_565 S
O248 C247 1.160 . S
O249 Zn250 1.899 . S
O249 C257 1.284 . S
Zn250 O249 1.899 . S
Zn250 O251 2.032 . S
Zn250 O254 2.086 . S
Zn250 O259 1.977 . S
O251 Zn250 2.032 . S
O251 C255 1.278 . S
C252 O253 1.203 . S
C252 O259 1.267 . S
O253 C252 1.203 . S
O254 C247 1.185 1_545 S
O254 Zn250 2.086 . S
C255 O251 1.278 . S
C255 O256 1.211 . S
O256 C255 1.211 . S
C257 O249 1.284 . S
C257 O258 1.273 . S
O258 C257 1.273 . S
O259 Zn250 1.977 . S
O259 C252 1.267 . S
C260 O261 1.160 . S
C260 O267 1.185 . S
O261 C260 1.160 . S
O262 Zn263 1.899 . S
O262 C270 1.284 . S
Zn263 O262 1.899 . S
Zn263 O264 2.032 . S
Zn263 O267 2.086 . S
Zn263 O272 1.977 . S
O264 Zn263 2.032 . S
O264 C268 1.278 . S
C265 O266 1.203 . S
C265 O272 1.267 . S
O266 C265 1.203 . S
O267 C260 1.185 . S
O267 Zn263 2.086 . S
C268 O264 1.278 . S
C268 O269 1.211 . S
O269 C268 1.211 . S
C270 O262 1.284 . S
C270 O271 1.273 . S
O271 C270 1.273 . S
O272 Zn263 1.977 . S
O272 C265 1.267 . S
C273 O274 1.160 . S
C273 O280 1.185 . S
O274 C273 1.160 . S
O275 Zn276 1.899 . S
O275 C283 1.284 . S
Zn276 O275 1.899 . S
Zn276 O277 2.032 . S
Zn276 O280 2.086 . S
Zn276 O285 1.977 . S
O277 Zn276 2.032 . S
O277 C281 1.278 . S
C278 O279 1.203 . S
C278 O285 1.267 . S
O279 C278 1.203 . S
O280 C273 1.185 . S
O280 Zn276 2.086 . S
C281 O277 1.278 . S
C281 O282 1.211 . S
O282 C281 1.211 . S
C283 O275 1.284 . S
C283 O284 1.273 . S
O284 C283 1.273 . S
O285 Zn276 1.977 . S
O285 C278 1.267 . S
C286 O287 1.160 . S
C286 O293 1.185 . S
O287 C286 1.160 . S
O288 Zn289 1.899 . S
O288 C296 1.284 . S
Zn289 O288 1.899 . S
Zn289 O290 2.032 . S
Zn289 O293 2.086 . S
Zn289 O298 1.977 . S
O290 Zn289 2.032 . S
O290 C294 1.278 . S
C291 O292 1.203 . S
C291 O298 1.267 . S
O292 C291 1.203 . S
O293 C286 1.185 . S
O293 Zn289 2.086 . S
C294 O290 1.278 . S
C294 O295 1.211 . S
O295 C294 1.211 . S
C296 O288 1.284 . S
C296 O297 1.273 . S
O297 C296 1.273 . S
O298 Zn289 1.977 . S
O298 C291 1.267 . S
C299 O300 1.160 . S
C299 O306 1.185 . S
O300 C299 1.160 . S
O301 Zn302 1.899 . S
O301 C309 1.284 . S
Zn302 O301 1.899 . S
Zn302 O303 2.032 . S
Zn302 O306 2.086 . S
Zn302 O311 1.977 . S
O303 Zn302 2.032 . S
O303 C307 1.278 . S
C304 O305 1.203 . S
C304 O311 1.267 . S
O305 C304 1.203 . S
O306 C299 1.185 . S
O306 Zn302 2.086 . S
C307 O303 1.278 . S
C307 O308 1.211 . S
O308 C307 1.211 . S
C309 O301 1.284 . S
C309 O310 1.273 . S
O310 C309 1.273 . S
O311 Zn302 1.977 . S
O311 C304 1.267 . S
Tb312 C314 2.809 . S
Tb312 O332 2.484 . S
Tb312 O333 2.440 . S
Tb312 O334 2.658 1_655 S
Tb312 O335 2.409 1_655 S
Tb312 O336 2.378 1_655 S
Tb312 O340 2.325 1_655 S
Tb312 O343 2.341 1_645 S
Tb313 C323 2.809 . S
Tb313 O334 2.325 . S
Tb313 O337 2.341 . S
Tb313 O338 2.484 . S
Tb313 O339 2.440 . S
Tb313 O340 2.658 . S
Tb313 O341 2.409 . S
Tb313 O342 2.378 1_545 S
C314 Tb312 2.809 . S
C314 C315 1.514 . S
C314 O332 1.248 . S
C314 O333 1.266 . S
C315 C314 1.514 . S
C315 C316 1.359 . S
C315 C320 1.348 . S
C316 C315 1.359 . S
C316 C317 1.380 . S
C316 H344 0.929 . S
C317 C316 1.380 . S
C317 C318 1.347 . S
C317 H345 0.931 . S
C318 C317 1.347 . S
C318 C319 1.369 . S
C319 C318 1.369 . S
C319 C320 1.408 . S
C319 H346 0.930 1_554 S
C320 C315 1.348 . S
C320 C319 1.408 . S
C320 H347 0.934 . S
C321 O334 1.281 . S
C321 O335 1.254 . S
C322 O336 1.236 . S
C322 O337 1.266 . S
C323 Tb313 2.809 . S
C323 C324 1.514 1_545 S
C323 O338 1.248 . S
C323 O339 1.266 . S
C324 C323 1.514 1_565 S
C324 C325 1.359 . S
C324 C329 1.348 . S
C325 C324 1.359 . S
C325 C326 1.380 . S
C325 H348 0.929 . S
C326 C325 1.380 . S
C326 C327 1.347 . S
C326 H349 0.931 . S
C327 C326 1.347 . S
C327 C328 1.369 . S
C328 C327 1.369 . S
C328 C329 1.408 . S
C328 H350 0.930 . S
C329 C324 1.348 . S
C329 C328 1.408 . S
C329 H351 0.921 1_565 S
C330 O340 1.281 . S
C330 O341 1.254 . S
C331 O342 1.236 . S
C331 O343 1.266 . S
O332 Tb312 2.484 . S
O332 C314 1.248 . S
O333 Tb312 2.440 . S
O333 C314 1.266 . S
O334 Tb312 2.658 1_455 S
O334 Tb313 2.325 . S
O334 C321 1.281 . S
O335 Tb312 2.409 1_455 S
O335 C321 1.254 . S
O336 Tb312 2.378 1_455 S
O336 C322 1.236 . S
O337 Tb313 2.341 . S
O337 C322 1.266 . S
O338 Tb313 2.484 . S
O338 C323 1.248 . S
O339 Tb313 2.440 . S
O339 C323 1.266 . S
O340 Tb312 2.325 1_455 S
O340 Tb313 2.658 . S
O340 C330 1.281 . S
O341 Tb313 2.409 . S
O341 C330 1.254 . S
O342 Tb313 2.378 1_565 S
O342 C331 1.236 . S
O343 Tb312 2.341 1_465 S
O343 C331 1.266 . S
H344 C316 0.929 . S
H345 C317 0.931 . S
H346 C319 0.930 1_556 S
H347 C320 0.934 . S
H348 C325 0.929 . S
H349 C326 0.931 . S
H350 C328 0.930 . S
H351 C329 0.921 1_545 S
Tb352 C354 2.809 . S
Tb352 O372 2.484 . S
Tb352 O373 2.440 . S
Tb352 O374 2.658 . S
Tb352 O375 2.409 . S
Tb352 O376 2.378 . S
Tb352 O380 2.325 . S
Tb352 O383 2.341 . S
Tb353 C363 2.809 . S
Tb353 O374 2.325 . S
Tb353 O377 2.341 . S
Tb353 O378 2.484 . S
Tb353 O379 2.440 . S
Tb353 O380 2.658 . S
Tb353 O381 2.409 . S
Tb353 O382 2.378 . S
C354 Tb352 2.809 . S
C354 C355 1.514 . S
C354 O372 1.248 . S
C354 O373 1.266 . S
C355 C354 1.514 . S
C355 C356 1.359 . S
C355 C360 1.348 . S
C356 C355 1.359 . S
C356 C357 1.380 . S
C356 H384 0.929 . S
C357 C356 1.380 . S
C357 C358 1.347 . S
C357 H385 0.931 . S
C358 C357 1.347 . S
C358 C359 1.369 . S
C359 C358 1.369 . S
C359 C360 1.408 . S
C359 H386 0.930 . S
C360 C355 1.348 . S
C360 C359 1.408 . S
C360 H387 0.930 . S
C361 O374 1.281 . S
C361 O375 1.254 . S
C362 O376 1.236 . S
C362 O377 1.266 . S
C363 Tb353 2.809 . S
C363 C364 1.514 . S
C363 O378 1.248 . S
C363 O379 1.266 . S
C364 C363 1.514 . S
C364 C365 1.359 . S
C364 C369 1.348 . S
C365 C364 1.359 . S
C365 C366 1.380 . S
C365 H388 0.929 . S
C366 C365 1.380 . S
C366 C367 1.347 . S
C366 H389 0.931 . S
C367 C366 1.347 . S
C367 C368 1.369 . S
C368 C367 1.369 . S
C368 C369 1.408 . S
C368 H390 0.930 . S
C369 C364 1.348 . S
C369 C368 1.408 . S
C369 H391 0.930 . S
C370 O380 1.281 . S
C370 O381 1.254 . S
C371 O382 1.236 . S
C371 O383 1.266 . S
O372 Tb352 2.484 . S
O372 C354 1.248 . S
O373 Tb352 2.440 . S
O373 C354 1.266 . S
O374 Tb352 2.658 . S
O374 Tb353 2.325 . S
O374 C361 1.281 . S
O375 Tb352 2.409 . S
O375 C361 1.254 . S
O376 Tb352 2.378 . S
O376 C362 1.236 . S
O377 Tb353 2.341 . S
O377 C362 1.266 . S
O378 Tb353 2.484 . S
O378 C363 1.248 . S
O379 Tb353 2.440 . S
O379 C363 1.266 . S
O380 Tb352 2.325 . S
O380 Tb353 2.658 . S
O380 C370 1.281 . S
O381 Tb353 2.409 . S
O381 C370 1.254 . S
O382 Tb353 2.378 . S
O382 C371 1.236 . S
O383 Tb352 2.341 . S
O383 C371 1.266 . S
H384 C356 0.929 . S
H385 C357 0.931 . S
H386 C359 0.930 . S
H387 C360 0.930 . S
H388 C365 0.929 . S
H389 C366 0.931 . S
H390 C368 0.930 . S
H391 C369 0.930 . S
Tb392 C394 2.809 . S
Tb392 O412 2.484 . S
Tb392 O413 2.440 . S
Tb392 O414 2.658 . S
Tb392 O415 2.409 . S
Tb392 O416 2.378 1_545 S
Tb392 O420 2.325 . S
Tb392 O423 2.341 . S
Tb393 C403 2.809 . S
Tb393 O414 2.325 . S
Tb393 O417 2.341 1_545 S
Tb393 O418 2.484 . S
Tb393 O419 2.440 . S
Tb393 O420 2.658 . S
Tb393 O421 2.409 . S
Tb393 O422 2.378 . S
C394 Tb392 2.809 . S
C394 C395 1.514 1_545 S
C394 O412 1.248 . S
C394 O413 1.266 . S
C395 C394 1.514 1_565 S
C395 C396 1.359 . S
C395 C400 1.348 . S
C396 C395 1.359 . S
C396 C397 1.380 . S
C396 H424 0.929 . S
C397 C396 1.380 . S
C397 C398 1.347 . S
C397 H425 0.931 . S
C398 C397 1.347 . S
C398 C399 1.369 . S
C399 C398 1.369 . S
C399 C400 1.408 . S
C399 H426 0.930 . S
C400 C395 1.348 . S
C400 C399 1.408 . S
C400 H427 0.930 . S
C401 O414 1.281 . S
C401 O415 1.254 . S
C402 O416 1.236 . S
C402 O417 1.266 . S
C403 Tb393 2.809 . S
C403 C404 1.514 . S
C403 O418 1.248 . S
C403 O419 1.266 . S
C404 C403 1.514 . S
C404 C405 1.359 . S
C404 C409 1.348 . S
C405 C404 1.359 . S
C405 C406 1.380 . S
C405 H428 0.929 . S
C406 C405 1.380 . S
C406 C407 1.347 . S
C406 H429 0.931 . S
C407 C406 1.347 . S
C407 C408 1.369 . S
C408 C407 1.369 . S
C408 C409 1.408 . S
C408 H430 0.930 . S
C409 C404 1.348 . S
C409 C408 1.408 . S
C409 H431 0.930 . S
C410 O420 1.281 . S
C410 O421 1.254 . S
C411 O422 1.236 . S
C411 O423 1.266 . S
O412 Tb392 2.484 . S
O412 C394 1.248 . S
O413 Tb392 2.440 . S
O413 C394 1.266 . S
O414 Tb392 2.658 . S
O414 Tb393 2.325 . S
O414 C401 1.281 . S
O415 Tb392 2.409 . S
O415 C401 1.254 . S
O416 Tb392 2.378 1_565 S
O416 C402 1.236 . S
O417 Tb393 2.341 1_565 S
O417 C402 1.266 . S
O418 Tb393 2.484 . S
O418 C403 1.248 . S
O419 Tb393 2.440 . S
O419 C403 1.266 . S
O420 Tb392 2.325 . S
O420 Tb393 2.658 . S
O420 C410 1.281 . S
O421 Tb393 2.409 . S
O421 C410 1.254 . S
O422 Tb393 2.378 . S
O422 C411 1.236 . S
O423 Tb392 2.341 . S
O423 C411 1.266 . S
H424 C396 0.929 . S
H425 C397 0.931 . S
H426 C399 0.930 . S
H427 C400 0.930 . S
H428 C405 0.929 . S
H429 C406 0.931 . S
H430 C408 0.930 . S
H431 C409 0.930 . S
Tb432 C434 2.809 . S
Tb432 O452 2.484 . S
Tb432 O453 2.440 . S
Tb432 O454 2.658 . S
Tb432 O455 2.409 . S
Tb432 O456 2.378 . S
Tb432 O460 2.325 . S
Tb432 O463 2.341 . S
Tb433 C443 2.809 . S
Tb433 O454 2.325 . S
Tb433 O457 2.341 . S
Tb433 O458 2.484 . S
Tb433 O459 2.440 . S
Tb433 O460 2.658 . S
Tb433 O461 2.409 . S
Tb433 O462 2.378 . S
C434 Tb432 2.809 . S
C434 C435 1.514 . S
C434 O452 1.248 . S
C434 O453 1.266 . S
C435 C434 1.514 . S
C435 C436 1.359 . S
C435 C440 1.348 . S
C436 C435 1.359 . S
C436 C437 1.380 . S
C436 H464 0.929 . S
C437 C436 1.380 . S
C437 C438 1.347 . S
C437 H465 0.931 . S
C438 C437 1.347 . S
C438 C439 1.369 . S
C439 C438 1.369 . S
C439 C440 1.408 . S
C439 H466 0.930 . S
C440 C435 1.348 . S
C440 C439 1.408 . S
C440 H467 0.930 . S
C441 O454 1.281 . S
C441 O455 1.254 . S
C442 O456 1.236 . S
C442 O457 1.266 . S
C443 Tb433 2.809 . S
C443 C444 1.514 . S
C443 O458 1.248 . S
C443 O459 1.266 . S
C444 C443 1.514 . S
C444 C445 1.359 . S
C444 C449 1.348 . S
C445 C444 1.359 . S
C445 C446 1.380 . S
C445 H468 0.929 . S
C446 C445 1.380 . S
C446 C447 1.347 . S
C446 H469 0.931 . S
C447 C446 1.347 . S
C447 C448 1.369 . S
C448 C447 1.369 . S
C448 C449 1.408 . S
C448 H470 0.930 . S
C449 C444 1.348 . S
C449 C448 1.408 . S
C449 H471 0.930 . S
C450 O460 1.281 . S
C450 O461 1.254 . S
C451 O462 1.236 . S
C451 O463 1.266 . S
O452 Tb432 2.484 . S
O452 C434 1.248 . S
O453 Tb432 2.440 . S
O453 C434 1.266 . S
O454 Tb432 2.658 . S
O454 Tb433 2.325 . S
O454 C441 1.281 . S
O455 Tb432 2.409 . S
O455 C441 1.254 . S
O456 Tb432 2.378 . S
O456 C442 1.236 . S
O457 Tb433 2.341 . S
O457 C442 1.266 . S
O458 Tb433 2.484 . S
O458 C443 1.248 . S
O459 Tb433 2.440 . S
O459 C443 1.266 . S
O460 Tb432 2.325 . S
O460 Tb433 2.658 . S
O460 C450 1.281 . S
O461 Tb433 2.409 . S
O461 C450 1.254 . S
O462 Tb433 2.378 . S
O462 C451 1.236 . S
O463 Tb432 2.341 . S
O463 C451 1.266 . S
H464 C436 0.929 . S
H465 C437 0.931 . S
H466 C439 0.930 . S
H467 C440 0.930 . S
H468 C445 0.929 . S
H469 C446 0.931 . S
H470 C448 0.930 . S
H471 C449 0.930 . S
Tb472 C474 2.809 . S
Tb472 O492 2.484 . S
Tb472 O493 2.440 . S
Tb472 O494 2.658 . S
Tb472 O495 2.409 1_455 S
Tb472 O496 2.378 . S
Tb472 O500 2.325 . S
Tb472 O503 2.341 . S
Tb473 C483 2.809 . S
Tb473 O494 2.325 1_565 S
Tb473 O497 2.341 1_565 S
Tb473 O498 2.484 . S
Tb473 O499 2.440 . S
Tb473 O500 2.658 1_565 S
Tb473 O501 2.409 1_565 S
Tb473 O502 2.378 1_565 S
C474 Tb472 2.809 . S
C474 C475 1.514 . S
C474 O492 1.248 . S
C474 O493 1.266 . S
C475 C474 1.514 . S
C475 C476 1.359 . S
C475 C480 1.348 1_455 S
C476 C475 1.359 . S
C476 C477 1.380 . S
C476 H504 0.929 . S
C477 C476 1.380 . S
C477 C478 1.347 1_455 S
C477 H505 0.931 . S
C478 C477 1.347 1_655 S
C478 C479 1.369 . S
C479 C478 1.369 . S
C479 C480 1.408 . S
C479 H506 0.930 . S
C480 C475 1.348 1_655 S
C480 C479 1.408 . S
C480 H507 0.930 . S
C481 O494 1.281 1_655 S
C481 O495 1.254 . S
C482 O496 1.236 . S
C482 O497 1.266 . S
C483 Tb473 2.809 . S
C483 C484 1.514 . S
C483 O498 1.248 . S
C483 O499 1.266 . S
C484 C483 1.514 . S
C484 C485 1.359 . S
C484 C489 1.348 . S
C485 C484 1.359 . S
C485 C486 1.380 . S
C485 H508 0.929 . S
C486 C485 1.380 . S
C486 C487 1.347 . S
C486 H509 0.931 . S
C487 C486 1.347 . S
C487 C488 1.369 . S
C488 C487 1.369 . S
C488 C489 1.408 . S
C488 H510 0.930 . S
C489 C484 1.348 . S
C489 C488 1.408 . S
C489 H511 0.930 . S
C490 O500 1.281 . S
C490 O501 1.254 . S
C491 O502 1.236 . S
C491 O503 1.266 . S
O492 Tb472 2.484 . S
O492 C474 1.248 . S
O493 Tb472 2.440 . S
O493 C474 1.266 . S
O494 Tb472 2.658 . S
O494 Tb473 2.325 1_545 S
O494 C481 1.281 1_455 S
O495 Tb472 2.409 1_655 S
O495 C481 1.254 . S
O496 Tb472 2.378 . S
O496 C482 1.236 . S
O497 Tb473 2.341 1_545 S
O497 C482 1.266 . S
O498 Tb473 2.484 . S
O498 C483 1.248 . S
O499 Tb473 2.440 . S
O499 C483 1.266 . S
O500 Tb472 2.325 . S
O500 Tb473 2.658 1_545 S
O500 C490 1.281 . S
O501 Tb473 2.409 1_545 S
O501 C490 1.254 . S
O502 Tb473 2.378 1_545 S
O502 C491 1.236 . S
O503 Tb472 2.341 . S
O503 C491 1.266 . S
H504 C476 0.929 . S
H505 C477 0.931 . S
H506 C479 0.930 . S
H507 C480 0.930 . S
H508 C485 0.929 . S
H509 C486 0.931 . S
H510 C488 0.930 . S
H511 C489 0.930 . S
Tb512 C514 2.809 . S
Tb512 O532 2.484 . S
Tb512 O533 2.440 . S
Tb512 O534 2.658 . S
Tb512 O535 2.409 . S
Tb512 O536 2.378 . S
Tb512 O540 2.325 . S
Tb512 O543 2.341 . S
Tb513 C523 2.809 . S
Tb513 O534 2.325 . S
Tb513 O537 2.341 . S
Tb513 O538 2.484 . S
Tb513 O539 2.440 . S
Tb513 O540 2.658 . S
Tb513 O541 2.409 . S
Tb513 O542 2.378 . S
C514 Tb512 2.809 . S
C514 C515 1.514 . S
C514 O532 1.248 . S
C514 O533 1.266 . S
C515 C514 1.514 . S
C515 C516 1.359 . S
C515 C520 1.348 . S
C516 C515 1.359 . S
C516 C517 1.380 . S
C516 H544 0.929 . S
C517 C516 1.380 . S
C517 C518 1.347 . S
C517 H545 0.931 . S
C518 C517 1.347 . S
C518 C519 1.369 . S
C519 C518 1.369 . S
C519 C520 1.408 . S
C519 H546 0.930 . S
C520 C515 1.348 . S
C520 C519 1.408 . S
C520 H547 0.930 . S
C521 O534 1.281 . S
C521 O535 1.254 . S
C522 O536 1.236 . S
C522 O537 1.266 . S
C523 Tb513 2.809 . S
C523 C524 1.514 . S
C523 O538 1.248 . S
C523 O539 1.266 . S
C524 C523 1.514 . S
C524 C525 1.359 . S
C524 C529 1.348 . S
C525 C524 1.359 . S
C525 C526 1.380 . S
C525 H548 0.929 . S
C526 C525 1.380 . S
C526 C527 1.347 . S
C526 H549 0.931 . S
C527 C526 1.347 . S
C527 C528 1.369 . S
C528 C527 1.369 . S
C528 C529 1.408 . S
C528 H550 0.930 . S
C529 C524 1.348 . S
C529 C528 1.408 . S
C529 H551 0.930 . S
C530 O540 1.281 . S
C530 O541 1.254 . S
C531 O542 1.236 . S
C531 O543 1.266 . S
O532 Tb512 2.484 . S
O532 C514 1.248 . S
O533 Tb512 2.440 . S
O533 C514 1.266 . S
O534 Tb512 2.658 . S
O534 Tb513 2.325 . S
O534 C521 1.281 . S
O535 Tb512 2.409 . S
O535 C521 1.254 . S
O536 Tb512 2.378 . S
O536 C522 1.236 . S
O537 Tb513 2.341 . S
O537 C522 1.266 . S
O538 Tb513 2.484 . S
O538 C523 1.248 . S
O539 Tb513 2.440 . S
O539 C523 1.266 . S
O540 Tb512 2.325 . S
O540 Tb513 2.658 . S
O540 C530 1.281 . S
O541 Tb513 2.409 . S
O541 C530 1.254 . S
O542 Tb513 2.378 . S
O542 C531 1.236 . S
O543 Tb512 2.341 . S
O543 C531 1.266 . S
H544 C516 0.929 . S
H545 C517 0.931 . S
H546 C519 0.930 . S
H547 C520 0.930 . S
H548 C525 0.929 . S
H549 C526 0.931 . S
H550 C528 0.930 . S
H551 C529 0.930 . S
Tb552 C554 2.809 . S
Tb552 O572 2.484 1_545 S
Tb552 O573 2.440 . S
Tb552 O574 2.658 . S
Tb552 O575 2.409 . S
Tb552 O576 2.378 . S
Tb552 O580 2.325 . S
Tb552 O583 2.341 . S
Tb553 C563 2.809 . S
Tb553 O574 2.325 . S
Tb553 O577 2.341 . S
Tb553 O578 2.484 . S
Tb553 O579 2.440 . S
Tb553 O580 2.658 . S
Tb553 O581 2.409 1_545 S
Tb553 O582 2.378 . S
C554 Tb552 2.809 . S
C554 C555 1.514 1_545 S
C554 O572 1.248 1_545 S
C554 O573 1.266 . S
C555 C554 1.514 1_565 S
C555 C556 1.359 . S
C555 C560 1.348 1_565 S
C556 C555 1.359 . S
C556 C557 1.380 . S
C556 H584 0.929 . S
C557 C556 1.380 . S
C557 C558 1.347 . S
C557 H585 0.931 . S
C558 C557 1.347 . S
C558 C559 1.369 1_565 S
C559 C558 1.369 1_545 S
C559 C560 1.408 . S
C559 H586 0.930 . S
C560 C555 1.348 1_545 S
C560 C559 1.408 . S
C560 H587 0.930 . S
C561 O574 1.281 . S
C561 O575 1.254 . S
C562 O576 1.236 . S
C562 O577 1.266 . S
C563 Tb553 2.809 . S
C563 C564 1.514 . S
C563 O578 1.248 . S
C563 O579 1.266 . S
C564 C563 1.514 . S
C564 C565 1.359 . S
C564 C569 1.348 . S
C565 C564 1.359 . S
C565 C566 1.380 . S
C565 H588 0.929 . S
C566 C565 1.380 . S
C566 C567 1.347 . S
C566 H589 0.931 . S
C567 C566 1.347 . S
C567 C568 1.369 . S
C568 C567 1.369 . S
C568 C569 1.408 . S
C568 H590 0.930 . S
C569 C564 1.348 . S
C569 C568 1.408 . S
C569 H591 0.930 . S
C570 O580 1.281 1_565 S
C570 O581 1.254 . S
C571 O582 1.236 . S
C571 O583 1.266 . S
O572 Tb552 2.484 1_565 S
O572 C554 1.248 1_565 S
O573 Tb552 2.440 . S
O573 C554 1.266 . S
O574 Tb552 2.658 . S
O574 Tb553 2.325 . S
O574 C561 1.281 . S
O575 Tb552 2.409 . S
O575 C561 1.254 . S
O576 Tb552 2.378 . S
O576 C562 1.236 . S
O577 Tb553 2.341 . S
O577 C562 1.266 . S
O578 Tb553 2.484 . S
O578 C563 1.248 . S
O579 Tb553 2.440 . S
O579 C563 1.266 . S
O580 Tb552 2.325 . S
O580 Tb553 2.658 . S
O580 C570 1.281 1_545 S
O581 Tb553 2.409 1_565 S
O581 C570 1.254 . S
O582 Tb553 2.378 . S
O582 C571 1.236 . S
O583 Tb552 2.341 . S
O583 C571 1.266 . S
H584 C556 0.929 . S
H585 C557 0.931 . S
H586 C559 0.930 . S
H587 C560 0.930 . S
H588 C565 0.929 . S
H589 C566 0.931 . S
H590 C568 0.930 . S
H591 C569 0.930 . S
Tb592 C594 2.809 . S
Tb592 O612 2.484 . S
Tb592 O613 2.440 . S
Tb592 O614 2.658 . S
Tb592 O615 2.409 . S
Tb592 O616 2.378 . S
Tb592 O620 2.325 . S
Tb592 O623 2.341 . S
Tb593 C603 2.809 . S
Tb593 O614 2.325 . S
Tb593 O617 2.341 . S
Tb593 O618 2.484 . S
Tb593 O619 2.440 . S
Tb593 O620 2.658 . S
Tb593 O621 2.409 . S
Tb593 O622 2.378 . S
C594 Tb592 2.809 . S
C594 C595 1.514 . S
C594 O612 1.248 . S
C594 O613 1.266 . S
C595 C594 1.514 . S
C595 C596 1.359 . S
C595 C600 1.348 . S
C596 C595 1.359 . S
C596 C597 1.380 . S
C596 H624 0.929 . S
C597 C596 1.380 . S
C597 C598 1.347 . S
C597 H625 0.931 . S
C598 C597 1.347 . S
C598 C599 1.369 . S
C599 C598 1.369 . S
C599 C600 1.408 . S
C599 H626 0.930 . S
C600 C595 1.348 . S
C600 C599 1.408 . S
C600 H627 0.930 . S
C601 O614 1.281 . S
C601 O615 1.254 . S
C602 O616 1.236 . S
C602 O617 1.266 . S
C603 Tb593 2.809 . S
C603 C604 1.514 . S
C603 O618 1.248 . S
C603 O619 1.266 . S
C604 C603 1.514 . S
C604 C605 1.359 . S
C604 C609 1.348 . S
C605 C604 1.359 . S
C605 C606 1.380 . S
C605 H628 0.929 . S
C606 C605 1.380 . S
C606 C607 1.347 . S
C606 H629 0.931 . S
C607 C606 1.347 . S
C607 C608 1.369 . S
C608 C607 1.369 . S
C608 C609 1.408 . S
C608 H630 0.930 . S
C609 C604 1.348 . S
C609 C608 1.408 . S
C609 H631 0.930 . S
C610 O620 1.281 . S
C610 O621 1.254 . S
C611 O622 1.236 . S
C611 O623 1.266 . S
O612 Tb592 2.484 . S
O612 C594 1.248 . S
O613 Tb592 2.440 . S
O613 C594 1.266 . S
O614 Tb592 2.658 . S
O614 Tb593 2.325 . S
O614 C601 1.281 . S
O615 Tb592 2.409 . S
O615 C601 1.254 . S
O616 Tb592 2.378 . S
O616 C602 1.236 . S
O617 Tb593 2.341 . S
O617 C602 1.266 . S
O618 Tb593 2.484 . S
O618 C603 1.248 . S
O619 Tb593 2.440 . S
O619 C603 1.266 . S
O620 Tb592 2.325 . S
O620 Tb593 2.658 . S
O620 C610 1.281 . S
O621 Tb593 2.409 . S
O621 C610 1.254 . S
O622 Tb593 2.378 . S
O622 C611 1.236 . S
O623 Tb592 2.341 . S
O623 C611 1.266 . S
H624 C596 0.929 . S
H625 C597 0.931 . S
H626 C599 0.930 . S
H627 C600 0.930 . S
H628 C605 0.929 . S
H629 C606 0.931 . S
H630 C608 0.930 . S
H631 C609 0.930 . S
Tb632 C634 2.809 . S
Tb632 O652 2.484 . S
Tb632 O653 2.440 . S
Tb632 O654 2.658 . S
Tb632 O655 2.409 . S
Tb632 O656 2.378 . S
Tb632 O660 2.325 . S
Tb632 O663 2.341 . S
Tb633 C643 2.809 . S
Tb633 O654 2.325 . S
Tb633 O657 2.341 . S
Tb633 O658 2.484 . S
Tb633 O659 2.440 . S
Tb633 O660 2.658 . S
Tb633 O661 2.409 . S
Tb633 O662 2.378 . S
C634 Tb632 2.809 . S
C634 C635 1.514 . S
C634 O652 1.248 . S
C634 O653 1.266 . S
C635 C634 1.514 . S
C635 C636 1.359 . S
C635 C640 1.348 . S
C636 C635 1.359 . S
C636 C637 1.369 1_554 S
C636 H664 0.929 . S
C637 C636 1.369 1_556 S
C637 C638 1.345 . S
C637 H665 0.944 . S
C638 C637 1.345 . S
C638 C639 1.369 1_556 S
C639 C638 1.369 1_554 S
C639 C640 1.408 . S
C639 H666 0.930 . S
C640 C635 1.348 . S
C640 C639 1.408 . S
C640 H667 0.930 . S
C641 O654 1.281 . S
C641 O655 1.254 . S
C642 O656 1.236 . S
C642 O657 1.266 . S
C643 Tb633 2.809 . S
C643 C644 1.514 . S
C643 O658 1.248 . S
C643 O659 1.266 . S
C644 C643 1.514 . S
C644 C645 1.359 . S
C644 C649 1.348 . S
C645 C644 1.359 . S
C645 C646 1.380 . S
C645 H668 0.929 . S
C646 C645 1.380 . S
C646 C647 1.347 . S
C646 H669 0.931 . S
C647 C646 1.347 . S
C647 C648 1.369 . S
C648 C647 1.369 . S
C648 C649 1.408 . S
C648 H670 0.930 . S
C649 C644 1.348 . S
C649 C648 1.408 . S
C649 H671 0.930 . S
C650 O660 1.281 . S
C650 O661 1.254 . S
C651 O662 1.236 . S
C651 O663 1.266 . S
O652 Tb632 2.484 . S
O652 C634 1.248 . S
O653 Tb632 2.440 . S
O653 C634 1.266 . S
O654 Tb632 2.658 . S
O654 Tb633 2.325 . S
O654 C641 1.281 . S
O655 Tb632 2.409 . S
O655 C641 1.254 . S
O656 Tb632 2.378 . S
O656 C642 1.236 . S
O657 Tb633 2.341 . S
O657 C642 1.266 . S
O658 Tb633 2.484 . S
O658 C643 1.248 . S
O659 Tb633 2.440 . S
O659 C643 1.266 . S
O660 Tb632 2.325 . S
O660 Tb633 2.658 . S
O660 C650 1.281 . S
O661 Tb633 2.409 . S
O661 C650 1.254 . S
O662 Tb633 2.378 . S
O662 C651 1.236 . S
O663 Tb632 2.341 . S
O663 C651 1.266 . S
H664 C636 0.929 . S
H665 C637 0.944 . S
H666 C639 0.930 . S
H667 C640 0.930 . S
H668 C645 0.929 . S
H669 C646 0.931 . S
H670 C648 0.930 . S
H671 C649 0.930 . S
Tb672 C674 2.809 . S
Tb672 O692 2.484 . S
Tb672 O693 2.440 . S
Tb672 O694 2.658 . S
Tb672 O695 2.409 . S
Tb672 O696 2.378 . S
Tb672 O700 2.325 . S
Tb672 O703 2.341 . S
Tb673 C683 2.809 . S
Tb673 O694 2.325 . S
Tb673 O697 2.341 . S
Tb673 O698 2.484 . S
Tb673 O699 2.440 . S
Tb673 O700 2.658 . S
Tb673 O701 2.409 . S
Tb673 O702 2.378 . S
C674 Tb672 2.809 . S
C674 C675 1.514 . S
C674 O692 1.248 . S
C674 O693 1.266 . S
C675 C674 1.514 . S
C675 C676 1.359 . S
C675 C680 1.348 . S
C676 C675 1.359 . S
C676 C677 1.380 . S
C676 H704 0.929 . S
C677 C676 1.380 . S
C677 C678 1.347 . S
C677 H705 0.931 . S
C678 C677 1.347 . S
C678 C679 1.369 . S
C679 C678 1.369 . S
C679 C680 1.408 . S
C679 H706 0.930 . S
C680 C675 1.348 . S
C680 C679 1.408 . S
C680 H707 0.930 . S
C681 O694 1.281 . S
C681 O695 1.254 . S
C682 O696 1.236 . S
C682 O697 1.266 . S
C683 Tb673 2.809 . S
C683 C684 1.514 . S
C683 O698 1.248 . S
C683 O699 1.266 . S
C684 C683 1.514 . S
C684 C685 1.359 . S
C684 C689 1.348 . S
C685 C684 1.359 . S
C685 C686 1.380 . S
C685 H708 0.929 . S
C686 C685 1.380 . S
C686 C687 1.347 . S
C686 H709 0.931 . S
C687 C686 1.347 . S
C687 C688 1.369 . S
C688 C687 1.369 . S
C688 C689 1.408 . S
C688 H710 0.930 . S
C689 C684 1.348 . S
C689 C688 1.408 . S
C689 H711 0.930 . S
C690 O700 1.281 . S
C690 O701 1.254 . S
C691 O702 1.236 . S
C691 O703 1.266 . S
O692 Tb672 2.484 . S
O692 C674 1.248 . S
O693 Tb672 2.440 . S
O693 C674 1.266 . S
O694 Tb672 2.658 . S
O694 Tb673 2.325 . S
O694 C681 1.281 . S
O695 Tb672 2.409 . S
O695 C681 1.254 . S
O696 Tb672 2.378 . S
O696 C682 1.236 . S
O697 Tb673 2.341 . S
O697 C682 1.266 . S
O698 Tb673 2.484 . S
O698 C683 1.248 . S
O699 Tb673 2.440 . S
O699 C683 1.266 . S
O700 Tb672 2.325 . S
O700 Tb673 2.658 . S
O700 C690 1.281 . S
O701 Tb673 2.409 . S
O701 C690 1.254 . S
O702 Tb673 2.378 . S
O702 C691 1.236 . S
O703 Tb672 2.341 . S
O703 C691 1.266 . S
H704 C676 0.929 . S
H705 C677 0.931 . S
H706 C679 0.930 . S
H707 C680 0.930 . S
H708 C685 0.929 . S
H709 C686 0.931 . S
H710 C688 0.930 . S
H711 C689 0.930 . S
Tb712 C714 2.809 1_455 S
Tb712 O732 2.484 1_455 S
Tb712 O733 2.440 1_455 S
Tb712 O734 2.658 . S
Tb712 O735 2.409 . S
Tb712 O736 2.378 . S
Tb712 O740 2.325 . S
Tb712 O743 2.341 . S
Tb713 C723 2.809 . S
Tb713 O734 2.325 . S
Tb713 O737 2.341 . S
Tb713 O738 2.484 . S
Tb713 O739 2.440 . S
Tb713 O740 2.658 . S
Tb713 O741 2.409 . S
Tb713 O742 2.378 . S
C714 Tb712 2.809 1_655 S
C714 C715 1.514 . S
C714 O732 1.248 . S
C714 O733 1.266 . S
C715 C714 1.514 . S
C715 C716 1.359 . S
C715 C720 1.348 . S
C716 C715 1.359 . S
C716 C717 1.380 . S
C716 H744 0.929 . S
C717 C716 1.380 . S
C717 C718 1.347 . S
C717 H745 0.931 . S
C718 C717 1.347 . S
C718 C719 1.369 . S
C719 C718 1.369 . S
C719 C720 1.408 . S
C719 H746 0.930 . S
C720 C715 1.348 . S
C720 C719 1.408 . S
C720 H747 0.930 . S
C721 O734 1.281 . S
C721 O735 1.254 . S
C722 O736 1.236 . S
C722 O737 1.266 . S
C723 Tb713 2.809 . S
C723 C724 1.514 . S
C723 O738 1.248 . S
C723 O739 1.266 . S
C724 C723 1.514 . S
C724 C725 1.359 . S
C724 C729 1.348 . S
C725 C724 1.359 . S
C725 C726 1.380 . S
C725 H748 0.929 . S
C726 C725 1.380 . S
C726 C727 1.347 . S
C726 H749 0.931 . S
C727 C726 1.347 . S
C727 C728 1.369 . S
C728 C727 1.369 . S
C728 C729 1.408 . S
C728 H750 0.930 . S
C729 C724 1.348 . S
C729 C728 1.408 . S
C729 H751 0.930 . S
C730 O740 1.281 . S
C730 O741 1.254 . S
C731 O742 1.236 . S
C731 O743 1.266 . S
O732 Tb712 2.484 1_655 S
O732 C714 1.248 . S
O733 Tb712 2.440 1_655 S
O733 C714 1.266 . S
O734 Tb712 2.658 . S
O734 Tb713 2.325 . S
O734 C721 1.281 . S
O735 Tb712 2.409 . S
O735 C721 1.254 . S
O736 Tb712 2.378 . S
O736 C722 1.236 . S
O737 Tb713 2.341 . S
O737 C722 1.266 . S
O738 Tb713 2.484 . S
O738 C723 1.248 . S
O739 Tb713 2.440 . S
O739 C723 1.266 . S
O740 Tb712 2.325 . S
O740 Tb713 2.658 . S
O740 C730 1.281 . S
O741 Tb713 2.409 . S
O741 C730 1.254 . S
O742 Tb713 2.378 . S
O742 C731 1.236 . S
O743 Tb712 2.341 . S
O743 C731 1.266 . S
H744 C716 0.929 . S
H745 C717 0.931 . S
H746 C719 0.930 . S
H747 C720 0.930 . S
H748 C725 0.929 . S
H749 C726 0.931 . S
H750 C728 0.930 . S
H751 C729 0.930 . S
Tb752 C754 2.809 . S
Tb752 O772 2.484 . S
Tb752 O773 2.440 . S
Tb752 O774 2.658 . S
Tb752 O775 2.409 . S
Tb752 O776 2.378 . S
Tb752 O780 2.325 . S
Tb752 O783 2.341 . S
Tb753 C763 2.809 . S
Tb753 O774 2.325 . S
Tb753 O777 2.341 . S
Tb753 O778 2.484 . S
Tb753 O779 2.440 . S
Tb753 O780 2.658 . S
Tb753 O781 2.409 . S
Tb753 O782 2.378 . S
C754 Tb752 2.809 . S
C754 C755 1.514 . S
C754 O772 1.248 . S
C754 O773 1.266 . S
C755 C754 1.514 . S
C755 C756 1.359 . S
C755 C760 1.348 . S
C756 C755 1.359 . S
C756 C757 1.380 . S
C756 H784 0.929 . S
C757 C756 1.380 . S
C757 C758 1.347 . S
C757 H785 0.931 . S
C758 C757 1.347 . S
C758 C759 1.369 . S
C759 C758 1.369 . S
C759 C760 1.408 . S
C759 H786 0.930 . S
C760 C755 1.348 . S
C760 C759 1.408 . S
C760 H787 0.930 . S
C761 O774 1.281 . S
C761 O775 1.254 . S
C762 O776 1.236 . S
C762 O777 1.266 . S
C763 Tb753 2.809 . S
C763 C764 1.514 . S
C763 O778 1.248 . S
C763 O779 1.266 . S
C764 C763 1.514 . S
C764 C765 1.359 . S
C764 C769 1.348 . S
C765 C764 1.359 . S
C765 C766 1.380 . S
C765 H788 0.929 . S
C766 C765 1.380 . S
C766 C767 1.347 . S
C766 H789 0.931 . S
C767 C766 1.347 . S
C767 C768 1.369 . S
C768 C767 1.369 . S
C768 C769 1.408 . S
C768 H790 0.930 . S
C769 C764 1.348 . S
C769 C768 1.408 . S
C769 H791 0.930 . S
C770 O780 1.281 . S
C770 O781 1.254 . S
C771 O782 1.236 . S
C771 O783 1.266 . S
O772 Tb752 2.484 . S
O772 C754 1.248 . S
O773 Tb752 2.440 . S
O773 C754 1.266 . S
O774 Tb752 2.658 . S
O774 Tb753 2.325 . S
O774 C761 1.281 . S
O775 Tb752 2.409 . S
O775 C761 1.254 . S
O776 Tb752 2.378 . S
O776 C762 1.236 . S
O777 Tb753 2.341 . S
O777 C762 1.266 . S
O778 Tb753 2.484 . S
O778 C763 1.248 . S
O779 Tb753 2.440 . S
O779 C763 1.266 . S
O780 Tb752 2.325 . S
O780 Tb753 2.658 . S
O780 C770 1.281 . S
O781 Tb753 2.409 . S
O781 C770 1.254 . S
O782 Tb753 2.378 . S
O782 C771 1.236 . S
O783 Tb752 2.341 . S
O783 C771 1.266 . S
H784 C756 0.929 . S
H785 C757 0.931 . S
H786 C759 0.930 . S
H787 C760 0.930 . S
H788 C765 0.929 . S
H789 C766 0.931 . S
H790 C768 0.930 . S
H791 C769 0.930 . S
Tb792 C794 2.809 . S
Tb792 O812 2.484 . S
Tb792 O813 2.440 . S
Tb792 O814 2.658 . S
Tb792 O815 2.409 . S
Tb792 O816 2.378 . S
Tb792 O820 2.325 . S
Tb792 O823 2.341 . S
Tb793 C803 2.809 . S
Tb793 O814 2.325 . S
Tb793 O817 2.341 . S
Tb793 O818 2.484 . S
Tb793 O819 2.440 . S
Tb793 O820 2.658 . S
Tb793 O821 2.409 . S
Tb793 O822 2.378 . S
C794 Tb792 2.809 . S
C794 C795 1.514 . S
C794 O812 1.248 . S
C794 O813 1.266 . S
C795 C794 1.514 . S
C795 C796 1.359 . S
C795 C800 1.348 . S
C796 C795 1.359 . S
C796 C797 1.380 . S
C796 H824 0.929 . S
C797 C796 1.380 . S
C797 C798 1.347 . S
C797 H825 0.931 . S
C798 C797 1.347 . S
C798 C799 1.369 . S
C799 C798 1.369 . S
C799 C800 1.408 . S
C799 H826 0.930 . S
C800 C795 1.348 . S
C800 C799 1.408 . S
C800 H827 0.930 . S
C801 O814 1.281 . S
C801 O815 1.254 . S
C802 O816 1.236 . S
C802 O817 1.266 . S
C803 Tb793 2.809 . S
C803 C804 1.514 . S
C803 O818 1.248 . S
C803 O819 1.266 . S
C804 C803 1.514 . S
C804 C805 1.359 . S
C804 C809 1.348 . S
C805 C804 1.359 . S
C805 C806 1.380 1_556 S
C805 H828 0.929 . S
C806 C805 1.380 1_554 S
C806 C807 1.347 . S
C806 H829 0.931 . S
C807 C806 1.347 . S
C807 C808 1.369 . S
C808 C807 1.369 . S
C808 C809 1.408 1_554 S
C808 H830 0.930 . S
C809 C804 1.348 . S
C809 C808 1.408 1_556 S
C809 H831 0.930 . S
C810 O820 1.281 . S
C810 O821 1.254 . S
C811 O822 1.236 . S
C811 O823 1.266 . S
O812 Tb792 2.484 . S
O812 C794 1.248 . S
O813 Tb792 2.440 . S
O813 C794 1.266 . S
O814 Tb792 2.658 . S
O814 Tb793 2.325 . S
O814 C801 1.281 . S
O815 Tb792 2.409 . S
O815 C801 1.254 . S
O816 Tb792 2.378 . S
O816 C802 1.236 . S
O817 Tb793 2.341 . S
O817 C802 1.266 . S
O818 Tb793 2.484 . S
O818 C803 1.248 . S
O819 Tb793 2.440 . S
O819 C803 1.266 . S
O820 Tb792 2.325 . S
O820 Tb793 2.658 . S
O820 C810 1.281 . S
O821 Tb793 2.409 . S
O821 C810 1.254 . S
O822 Tb793 2.378 . S
O822 C811 1.236 . S
O823 Tb792 2.341 . S
O823 C811 1.266 . S
H824 C796 0.929 . S
H825 C797 0.931 . S
H826 C799 0.930 . S
H827 C800 0.930 . S
H828 C805 0.929 . S
H829 C806 0.931 . S
H830 C808 0.930 . S
H831 C809 0.930 . S
Tb832 C834 2.809 . S
Tb832 O852 2.484 . S
Tb832 O853 2.440 . S
Tb832 O854 2.658 . S
Tb832 O855 2.409 . S
Tb832 O856 2.378 . S
Tb832 O860 2.325 . S
Tb832 O863 2.341 . S
Tb833 C843 2.809 . S
Tb833 O854 2.325 . S
Tb833 O857 2.341 . S
Tb833 O858 2.484 . S
Tb833 O859 2.440 . S
Tb833 O860 2.658 . S
Tb833 O861 2.409 . S
Tb833 O862 2.378 . S
C834 Tb832 2.809 . S
C834 C835 1.514 . S
C834 O852 1.248 . S
C834 O853 1.266 . S
C835 C834 1.514 . S
C835 C836 1.359 . S
C835 C840 1.348 . S
C836 C835 1.359 . S
C836 C837 1.380 . S
C836 H864 0.929 . S
C837 C836 1.380 . S
C837 C838 1.347 . S
C837 H865 0.931 . S
C838 C837 1.347 . S
C838 C839 1.369 . S
C839 C838 1.369 . S
C839 C840 1.408 . S
C839 H866 0.930 . S
C840 C835 1.348 . S
C840 C839 1.408 . S
C840 H867 0.930 . S
C841 O854 1.281 . S
C841 O855 1.254 . S
C842 O856 1.236 . S
C842 O857 1.266 . S
C843 Tb833 2.809 . S
C843 C844 1.514 . S
C843 O858 1.248 . S
C843 O859 1.266 . S
C844 C843 1.514 . S
C844 C845 1.359 . S
C844 C849 1.348 . S
C845 C844 1.359 . S
C845 C846 1.380 . S
C845 H868 0.929 . S
C846 C845 1.380 . S
C846 C847 1.347 . S
C846 H869 0.931 . S
C847 C846 1.347 . S
C847 C848 1.369 . S
C848 C847 1.369 . S
C848 C849 1.408 . S
C848 H870 0.930 . S
C849 C844 1.348 . S
C849 C848 1.408 . S
C849 H871 0.930 . S
C850 O860 1.281 . S
C850 O861 1.254 . S
C851 O862 1.236 . S
C851 O863 1.266 . S
O852 Tb832 2.484 . S
O852 C834 1.248 . S
O853 Tb832 2.440 . S
O853 C834 1.266 . S
O854 Tb832 2.658 . S
O854 Tb833 2.325 . S
O854 C841 1.281 . S
O855 Tb832 2.409 . S
O855 C841 1.254 . S
O856 Tb832 2.378 . S
O856 C842 1.236 . S
O857 Tb833 2.341 . S
O857 C842 1.266 . S
O858 Tb833 2.484 . S
O858 C843 1.248 . S
O859 Tb833 2.440 . S
O859 C843 1.266 . S
O860 Tb832 2.325 . S
O860 Tb833 2.658 . S
O860 C850 1.281 . S
O861 Tb833 2.409 . S
O861 C850 1.254 . S
O862 Tb833 2.378 . S
O862 C851 1.236 . S
O863 Tb832 2.341 . S
O863 C851 1.266 . S
H864 C836 0.929 . S
H865 C837 0.931 . S
H866 C839 0.930 . S
H867 C840 0.930 . S
H868 C845 0.929 . S
H869 C846 0.931 . S
H870 C848 0.930 . S
H871 C849 0.930 . S
Tb872 C874 2.809 . S
Tb872 O892 2.484 . S
Tb872 O893 2.440 . S
Tb872 O894 2.658 . S
Tb872 O895 2.409 . S
Tb872 O896 2.378 . S
Tb872 O900 2.325 . S
Tb872 O903 2.341 . S
Tb873 C883 2.809 . S
Tb873 O894 2.325 . S
Tb873 O897 2.341 . S
Tb873 O898 2.484 . S
Tb873 O899 2.440 . S
Tb873 O900 2.658 . S
Tb873 O901 2.409 . S
Tb873 O902 2.378 . S
C874 Tb872 2.809 . S
C874 C875 1.514 . S
C874 O892 1.248 . S
C874 O893 1.266 . S
C875 C874 1.514 . S
C875 C876 1.359 . S
C875 C880 1.348 . S
C876 C875 1.359 . S
C876 C877 1.380 . S
C876 H904 0.929 . S
C877 C876 1.380 . S
C877 C878 1.347 . S
C877 H905 0.931 . S
C878 C877 1.347 . S
C878 C879 1.369 . S
C879 C878 1.369 . S
C879 C880 1.408 . S
C879 H906 0.930 . S
C880 C875 1.348 . S
C880 C879 1.408 . S
C880 H907 0.930 . S
C881 O894 1.281 . S
C881 O895 1.254 . S
C882 O896 1.236 . S
C882 O897 1.266 . S
C883 Tb873 2.809 . S
C883 C884 1.514 . S
C883 O898 1.248 . S
C883 O899 1.266 . S
C884 C883 1.514 . S
C884 C885 1.359 . S
C884 C889 1.348 . S
C885 C884 1.359 . S
C885 C886 1.380 . S
C885 H908 0.929 . S
C886 C885 1.380 . S
C886 C887 1.347 . S
C886 H909 0.931 . S
C887 C886 1.347 . S
C887 C888 1.369 . S
C888 C887 1.369 . S
C888 C889 1.408 . S
C888 H910 0.930 . S
C889 C884 1.348 . S
C889 C888 1.408 . S
C889 H911 0.930 . S
C890 O900 1.281 . S
C890 O901 1.254 . S
C891 O902 1.236 . S
C891 O903 1.266 . S
O892 Tb872 2.484 . S
O892 C874 1.248 . S
O893 Tb872 2.440 . S
O893 C874 1.266 . S
O894 Tb872 2.658 . S
O894 Tb873 2.325 . S
O894 C881 1.281 . S
O895 Tb872 2.409 . S
O895 C881 1.254 . S
O896 Tb872 2.378 . S
O896 C882 1.236 . S
O897 Tb873 2.341 . S
O897 C882 1.266 . S
O898 Tb873 2.484 . S
O898 C883 1.248 . S
O899 Tb873 2.440 . S
O899 C883 1.266 . S
O900 Tb872 2.325 . S
O900 Tb873 2.658 . S
O900 C890 1.281 . S
O901 Tb873 2.409 . S
O901 C890 1.254 . S
O902 Tb873 2.378 . S
O902 C891 1.236 . S
O903 Tb872 2.341 . S
O903 C891 1.266 . S
H904 C876 0.929 . S
H905 C877 0.931 . S
H906 C879 0.930 . S
H907 C880 0.930 . S
H908 C885 0.929 . S
H909 C886 0.931 . S
H910 C888 0.930 . S
H911 C889 0.930 . S
Tb912 C914 2.809 . S
Tb912 O932 2.484 . S
Tb912 O933 2.440 . S
Tb912 O934 2.658 . S
Tb912 O935 2.409 . S
Tb912 O936 2.378 . S
Tb912 O940 2.325 . S
Tb912 O943 2.341 . S
Tb913 C923 2.809 1_455 S
Tb913 O934 2.325 . S
Tb913 O937 2.341 . S
Tb913 O938 2.484 1_455 S
Tb913 O939 2.440 1_455 S
Tb913 O940 2.658 . S
Tb913 O941 2.409 . S
Tb913 O942 2.378 . S
C914 Tb912 2.809 . S
C914 C915 1.514 . S
C914 O932 1.248 . S
C914 O933 1.266 . S
C915 C914 1.514 . S
C915 C916 1.359 . S
C915 C920 1.348 . S
C916 C915 1.359 . S
C916 C917 1.380 . S
C916 H944 0.929 . S
C917 C916 1.380 . S
C917 C918 1.347 . S
C917 H945 0.931 . S
C918 C917 1.347 . S
C918 C919 1.369 . S
C919 C918 1.369 . S
C919 C920 1.408 . S
C919 H946 0.931 . S
C920 C915 1.348 . S
C920 C919 1.408 . S
C920 H947 0.930 . S
C921 O934 1.281 . S
C921 O935 1.254 . S
C922 O936 1.236 . S
C922 O937 1.266 . S
C923 Tb913 2.809 1_655 S
C923 C924 1.514 . S
C923 O938 1.248 . S
C923 O939 1.266 . S
C924 C923 1.514 . S
C924 C925 1.359 . S
C924 C929 1.348 . S
C925 C924 1.359 . S
C925 C926 1.380 . S
C925 H948 0.929 . S
C926 C925 1.380 . S
C926 C927 1.347 . S
C926 H949 0.931 . S
C927 C926 1.347 . S
C927 C928 1.369 . S
C928 C927 1.369 . S
C928 C929 1.408 . S
C928 H950 0.930 . S
C929 C924 1.348 . S
C929 C928 1.408 . S
C929 H951 0.930 . S
C930 O940 1.281 . S
C930 O941 1.254 . S
C931 O942 1.236 . S
C931 O943 1.266 . S
O932 Tb912 2.484 . S
O932 C914 1.248 . S
O933 Tb912 2.440 . S
O933 C914 1.266 . S
O934 Tb912 2.658 . S
O934 Tb913 2.325 . S
O934 C921 1.281 . S
O935 Tb912 2.409 . S
O935 C921 1.254 . S
O936 Tb912 2.378 . S
O936 C922 1.236 . S
O937 Tb913 2.341 . S
O937 C922 1.266 . S
O938 Tb913 2.484 1_655 S
O938 C923 1.248 . S
O939 Tb913 2.440 1_655 S
O939 C923 1.266 . S
O940 Tb912 2.325 . S
O940 Tb913 2.658 . S
O940 C930 1.281 . S
O941 Tb913 2.409 . S
O941 C930 1.254 . S
O942 Tb913 2.378 . S
O942 C931 1.236 . S
O943 Tb912 2.341 . S
O943 C931 1.266 . S
H944 C916 0.929 . S
H945 C917 0.931 . S
H946 C919 0.931 . S
H947 C920 0.930 . S
H948 C925 0.929 . S
H949 C926 0.931 . S
H950 C928 0.930 . S
H951 C929 0.930 . S
C952 C953 1.363 . S
C952 C958 1.379 . S
C952 N960 1.356 . S
C953 C952 1.363 . S
C953 C959 1.363 . S
C954 C955 1.363 . S
C954 C959 1.379 . S
C954 N961 1.355 1_455 S
C955 C954 1.363 . S
C955 C958 1.363 . S
N956 C958 1.356 . S
N956 H968 0.984 . S
N956 H969 0.985 . S
N957 C959 1.356 1_655 S
N957 H962 0.984 . S
N957 H963 0.985 1_554 S
C958 C952 1.379 . S
C958 C955 1.363 . S
C958 N956 1.356 . S
C959 C953 1.363 . S
C959 C954 1.379 . S
C959 N957 1.356 1_455 S
N960 C952 1.356 . S
N960 H966 0.984 . S
N960 H967 0.984 . S
N961 C954 1.355 1_655 S
N961 H964 0.974 1_655 S
N961 H965 0.997 . S
H962 N957 0.984 . S
H963 N957 0.985 1_556 S
H964 N961 0.974 1_455 S
H965 N961 0.997 . S
H966 N960 0.984 . S
H967 N960 0.984 . S
H968 N956 0.984 . S
H969 N956 0.985 . S
C970 C971 1.363 . S
C970 C976 1.379 . S
C970 N978 1.356 . S
C971 C970 1.363 . S
C971 C977 1.363 . S
C972 C973 1.363 . S
C972 C977 1.379 . S
C972 N979 1.356 . S
C973 C972 1.363 . S
C973 C976 1.363 . S
N974 C976 1.356 . S
N974 H986 0.984 . S
N974 H987 0.985 . S
N975 C977 1.356 . S
N975 H980 0.984 . S
N975 H981 0.985 . S
C976 C970 1.379 . S
C976 C973 1.363 . S
C976 N974 1.356 . S
C977 C971 1.363 . S
C977 C972 1.379 . S
C977 N975 1.356 . S
N978 C970 1.356 . S
N978 H984 0.984 . S
N978 H985 0.984 . S
N979 C972 1.356 . S
N979 H982 0.984 . S
N979 H983 0.985 . S
H980 N975 0.984 . S
H981 N975 0.985 . S
H982 N979 0.984 . S
H983 N979 0.985 . S
H984 N978 0.984 . S
H985 N978 0.984 . S
H986 N974 0.984 . S
H987 N974 0.985 . S
C988 C989 1.363 . S
C988 C994 1.379 . S
C988 N996 1.356 . S
C989 C988 1.363 . S
C989 C995 1.363 . S
C990 C991 1.363 . S
C990 C995 1.379 . S
C990 N997 1.356 . S
C991 C990 1.363 . S
C991 C994 1.363 . S
N992 C994 1.356 . S
N992 H1004 0.984 . S
N992 H1005 0.985 . S
N993 C995 1.356 . S
N993 H998 0.984 . S
N993 H999 0.985 . S
C994 C988 1.379 . S
C994 C991 1.363 . S
C994 N992 1.356 . S
C995 C989 1.363 . S
C995 C990 1.379 . S
C995 N993 1.356 . S
N996 C988 1.356 . S
N996 H1002 0.984 . S
N996 H1003 0.984 . S
N997 C990 1.356 . S
N997 H1000 0.984 . S
N997 H1001 0.985 . S
H998 N993 0.984 . S
H999 N993 0.985 . S
H1000 N997 0.984 . S
H1001 N997 0.985 . S
H1002 N996 0.984 . S
H1003 N996 0.984 . S
H1004 N992 0.984 . S
H1005 N992 0.985 . S
C1006 C1007 1.363 . S
C1006 C1012 1.379 . S
C1006 N1014 1.356 . S
C1007 C1006 1.363 . S
C1007 C1013 1.363 . S
C1008 C1009 1.363 . S
C1008 C1013 1.379 . S
C1008 N1015 1.356 . S
C1009 C1008 1.363 . S
C1009 C1012 1.363 . S
N1010 C1012 1.356 . S
N1010 H1022 0.984 . S
N1010 H1023 0.985 . S
N1011 C1013 1.356 . S
N1011 H1016 0.984 . S
N1011 H1017 0.985 . S
C1012 C1006 1.379 . S
C1012 C1009 1.363 . S
C1012 N1010 1.356 . S
C1013 C1007 1.363 . S
C1013 C1008 1.379 . S
C1013 N1011 1.356 . S
N1014 C1006 1.356 . S
N1014 H1020 0.984 . S
N1014 H1021 0.984 . S
N1015 C1008 1.356 . S
N1015 H1018 0.984 . S
N1015 H1019 0.985 . S
H1016 N1011 0.984 . S
H1017 N1011 0.985 . S
H1018 N1015 0.984 . S
H1019 N1015 0.985 . S
H1020 N1014 0.984 . S
H1021 N1014 0.984 . S
H1022 N1010 0.984 . S
H1023 N1010 0.985 . S
C1024 C1025 1.363 . S
C1024 C1030 1.379 . S
C1024 N1032 1.356 . S
C1025 C1024 1.363 . S
C1025 C1031 1.363 . S
C1026 C1027 1.363 . S
C1026 C1031 1.379 . S
C1026 N1033 1.356 . S
C1027 C1026 1.363 . S
C1027 C1030 1.363 . S
N1028 C1030 1.356 . S
N1028 H1040 0.984 . S
N1028 H1041 0.985 . S
N1029 C1031 1.356 . S
N1029 H1034 0.984 . S
N1029 H1035 0.985 . S
C1030 C1024 1.379 . S
C1030 C1027 1.363 . S
C1030 N1028 1.356 . S
C1031 C1025 1.363 . S
C1031 C1026 1.379 . S
C1031 N1029 1.356 . S
N1032 C1024 1.356 . S
N1032 H1038 0.984 . S
N1032 H1039 0.984 . S
N1033 C1026 1.356 . S
N1033 H1036 0.984 . S
N1033 H1037 0.985 . S
H1034 N1029 0.984 . S
H1035 N1029 0.985 . S
H1036 N1033 0.984 . S
H1037 N1033 0.985 . S
H1038 N1032 0.984 . S
H1039 N1032 0.984 . S
H1040 N1028 0.984 . S
H1041 N1028 0.985 . S
C1042 C1043 1.363 . S
C1042 C1048 1.379 . S
C1042 N1050 1.356 . S
C1043 C1042 1.363 . S
C1043 C1049 1.363 . S
C1044 C1045 1.363 . S
C1044 C1049 1.379 . S
C1044 N1051 1.356 . S
C1045 C1044 1.363 . S
C1045 C1048 1.363 . S
N1046 C1048 1.356 . S
N1046 H1058 0.984 . S
N1046 H1059 0.985 . S
N1047 C1049 1.356 . S
N1047 H1052 0.984 . S
N1047 H1053 0.985 . S
C1048 C1042 1.379 . S
C1048 C1045 1.363 . S
C1048 N1046 1.356 . S
C1049 C1043 1.363 . S
C1049 C1044 1.379 . S
C1049 N1047 1.356 . S
N1050 C1042 1.356 . S
N1050 H1056 0.984 . S
N1050 H1057 0.984 . S
N1051 C1044 1.356 . S
N1051 H1054 0.984 . S
N1051 H1055 0.985 . S
H1052 N1047 0.984 . S
H1053 N1047 0.985 . S
H1054 N1051 0.984 . S
H1055 N1051 0.985 . S
H1056 N1050 0.984 . S
H1057 N1050 0.984 . S
H1058 N1046 0.984 . S
H1059 N1046 0.985 . S
C1060 C1061 1.363 . S
C1060 C1066 1.379 . S
C1060 N1068 1.356 . S
C1061 C1060 1.363 . S
C1061 C1067 1.363 . S
C1062 C1063 1.363 . S
C1062 C1067 1.379 . S
C1062 N1069 1.356 . S
C1063 C1062 1.363 . S
C1063 C1066 1.363 . S
N1064 C1066 1.356 . S
N1064 H1076 0.984 . S
N1064 H1077 0.985 . S
N1065 C1067 1.356 . S
N1065 H1070 0.984 . S
N1065 H1071 0.985 . S
C1066 C1060 1.379 . S
C1066 C1063 1.363 . S
C1066 N1064 1.356 . S
C1067 C1061 1.363 . S
C1067 C1062 1.379 . S
C1067 N1065 1.356 . S
N1068 C1060 1.356 . S
N1068 H1074 0.984 . S
N1068 H1075 0.984 . S
N1069 C1062 1.356 . S
N1069 H1072 0.984 . S
N1069 H1073 0.985 . S
H1070 N1065 0.984 . S
H1071 N1065 0.985 . S
H1072 N1069 0.984 . S
H1073 N1069 0.985 . S
H1074 N1068 0.984 . S
H1075 N1068 0.984 . S
H1076 N1064 0.984 . S
H1077 N1064 0.985 . S
C1078 C1079 1.363 . S
C1078 C1084 1.379 . S
C1078 N1086 1.356 . S
C1079 C1078 1.363 . S
C1079 C1085 1.363 . S
C1080 C1081 1.363 . S
C1080 C1085 1.379 . S
C1080 N1087 1.356 . S
C1081 C1080 1.363 . S
C1081 C1084 1.363 . S
N1082 C1084 1.356 . S
N1082 H1094 0.984 . S
N1082 H1095 0.985 . S
N1083 C1085 1.356 . S
N1083 H1088 0.984 . S
N1083 H1089 0.985 . S
C1084 C1078 1.379 . S
C1084 C1081 1.363 . S
C1084 N1082 1.356 . S
C1085 C1079 1.363 . S
C1085 C1080 1.379 . S
C1085 N1083 1.356 . S
N1086 C1078 1.356 . S
N1086 H1092 0.984 . S
N1086 H1093 0.984 . S
N1087 C1080 1.356 . S
N1087 H1090 0.984 . S
N1087 H1091 0.985 . S
H1088 N1083 0.984 . S
H1089 N1083 0.985 . S
H1090 N1087 0.984 . S
H1091 N1087 0.985 . S
H1092 N1086 0.984 . S
H1093 N1086 0.984 . S
H1094 N1082 0.984 . S
H1095 N1082 0.985 . S
C1096 C1097 1.363 . S
C1096 C1102 1.379 1_655 S
C1096 N1104 1.356 . S
C1097 C1096 1.363 . S
C1097 C1103 1.363 1_545 S
C1098 C1099 1.374 . S
C1098 C1103 1.375 1_445 S
C1098 N1105 1.352 1_545 S
C1099 C1098 1.374 . S
C1099 C1102 1.363 . S
N1100 C1102 1.356 . S
N1100 H1112 0.984 . S
N1100 H1113 0.985 . S
N1101 C1103 1.356 . S
N1101 H1106 0.984 . S
N1101 H1107 0.985 . S
C1102 C1096 1.379 1_455 S
C1102 C1099 1.363 . S
C1102 N1100 1.356 . S
C1103 C1097 1.363 1_565 S
C1103 C1098 1.375 1_665 S
C1103 N1101 1.356 . S
N1104 C1096 1.356 . S
N1104 H1110 0.984 . S
N1104 H1111 0.984 . S
N1105 C1098 1.352 1_565 S
N1105 H1108 0.984 1_565 S
N1105 H1109 0.985 . S
H1106 N1101 0.984 . S
H1107 N1101 0.985 . S
H1108 N1105 0.984 1_545 S
H1109 N1105 0.985 . S
H1110 N1104 0.984 . S
H1111 N1104 0.984 . S
H1112 N1100 0.984 . S
H1113 N1100 0.985 . S
C1114 C1115 1.363 . S
C1114 C1120 1.379 . S
C1114 N1122 1.356 . S
C1115 C1114 1.363 . S
C1115 C1121 1.363 . S
C1116 C1117 1.363 . S
C1116 C1121 1.379 . S
C1116 N1123 1.356 . S
C1117 C1116 1.363 . S
C1117 C1120 1.363 . S
N1118 C1120 1.356 . S
N1118 H1130 0.984 . S
N1118 H1131 0.985 . S
N1119 C1121 1.356 . S
N1119 H1124 0.984 . S
N1119 H1125 0.985 . S
C1120 C1114 1.379 . S
C1120 C1117 1.363 . S
C1120 N1118 1.356 . S
C1121 C1115 1.363 . S
C1121 C1116 1.379 . S
C1121 N1119 1.356 . S
N1122 C1114 1.356 . S
N1122 H1128 0.984 . S
N1122 H1129 0.984 . S
N1123 C1116 1.356 . S
N1123 H1126 0.984 . S
N1123 H1127 0.985 . S
H1124 N1119 0.984 . S
H1125 N1119 0.985 . S
H1126 N1123 0.984 . S
H1127 N1123 0.985 . S
H1128 N1122 0.984 . S
H1129 N1122 0.984 . S
H1130 N1118 0.984 . S
H1131 N1118 0.985 . S
C1132 C1133 1.363 . S
C1132 C1138 1.379 . S
C1132 N1140 1.356 . S
C1133 C1132 1.363 . S
C1133 C1139 1.363 . S
C1134 C1135 1.363 . S
C1134 C1139 1.379 . S
C1134 N1141 1.356 . S
C1135 C1134 1.363 . S
C1135 C1138 1.363 . S
N1136 C1138 1.356 . S
N1136 H1148 0.984 . S
N1136 H1149 0.985 . S
N1137 C1139 1.356 . S
N1137 H1142 0.984 . S
N1137 H1143 0.985 1_545 S
C1138 C1132 1.379 . S
C1138 C1135 1.363 . S
C1138 N1136 1.356 . S
C1139 C1133 1.363 . S
C1139 C1134 1.379 . S
C1139 N1137 1.356 . S
N1140 C1132 1.356 . S
N1140 H1146 0.984 . S
N1140 H1147 0.984 . S
N1141 C1134 1.356 . S
N1141 H1144 0.984 . S
N1141 H1145 0.985 . S
H1142 N1137 0.984 . S
H1143 N1137 0.985 1_565 S
H1144 N1141 0.984 . S
H1145 N1141 0.985 . S
H1146 N1140 0.984 . S
H1147 N1140 0.984 . S
H1148 N1136 0.984 . S
H1149 N1136 0.985 . S
C1150 C1151 1.363 1_556 S
C1150 C1156 1.379 . S
C1150 N1158 1.356 1_556 S
C1151 C1150 1.363 1_554 S
C1151 C1157 1.363 1_554 S
C1152 C1153 1.363 . S
C1152 C1157 1.379 . S
C1152 N1159 1.356 . S
C1153 C1152 1.363 . S
C1153 C1156 1.363 . S
N1154 C1156 1.356 . S
N1154 H1166 0.984 . S
N1154 H1167 0.985 . S
N1155 C1157 1.356 1_554 S
N1155 H1160 0.984 . S
N1155 H1161 0.985 1_554 S
C1156 C1150 1.379 . S
C1156 C1153 1.363 . S
C1156 N1154 1.356 . S
C1157 C1151 1.363 1_556 S
C1157 C1152 1.379 . S
C1157 N1155 1.356 1_556 S
N1158 C1150 1.356 1_554 S
N1158 H1164 0.984 . S
N1158 H1165 0.984 . S
N1159 C1152 1.356 . S
N1159 H1162 0.984 . S
N1159 H1163 0.985 . S
H1160 N1155 0.984 . S
H1161 N1155 0.985 1_556 S
H1162 N1159 0.984 . S
H1163 N1159 0.985 . S
H1164 N1158 0.984 . S
H1165 N1158 0.984 . S
H1166 N1154 0.984 . S
H1167 N1154 0.985 . S
C1168 C1169 1.363 1_455 S
C1168 C1174 1.379 . S
C1168 N1176 1.356 . S
C1169 C1168 1.363 1_655 S
C1169 C1175 1.363 1_545 S
C1170 C1171 1.363 1_655 S
C1170 C1175 1.379 1_545 S
C1170 N1177 1.356 1_545 S
C1171 C1170 1.363 1_455 S
C1171 C1174 1.363 . S
N1172 C1174 1.356 . S
N1172 H1184 0.984 . S
N1172 H1185 0.985 . S
N1173 C1175 1.356 . S
N1173 H1178 0.984 . S
N1173 H1179 0.985 . S
C1174 C1168 1.379 . S
C1174 C1171 1.363 . S
C1174 N1172 1.356 . S
C1175 C1169 1.363 1_565 S
C1175 C1170 1.379 1_565 S
C1175 N1173 1.356 . S
N1176 C1168 1.356 . S
N1176 H1182 0.984 . S
N1176 H1183 0.984 . S
N1177 C1170 1.356 1_565 S
N1177 H1180 0.984 . S
N1177 H1181 0.985 . S
H1178 N1173 0.984 . S
H1179 N1173 0.985 . S
H1180 N1177 0.984 . S
H1181 N1177 0.985 . S
H1182 N1176 0.984 . S
H1183 N1176 0.984 . S
H1184 N1172 0.984 . S
H1185 N1172 0.985 . S
C1186 C1187 1.363 . S
C1186 C1192 1.379 . S
C1186 N1194 1.356 . S
C1187 C1186 1.363 . S
C1187 C1193 1.363 . S
C1188 C1189 1.363 . S
C1188 C1193 1.379 . S
C1188 N1195 1.356 . S
C1189 C1188 1.363 . S
C1189 C1192 1.363 . S
N1190 C1192 1.356 . S
N1190 H1202 0.984 . S
N1190 H1203 0.985 . S
N1191 C1193 1.356 . S
N1191 H1196 0.984 . S
N1191 H1197 0.985 . S
C1192 C1186 1.379 . S
C1192 C1189 1.363 . S
C1192 N1190 1.356 . S
C1193 C1187 1.363 . S
C1193 C1188 1.379 . S
C1193 N1191 1.356 . S
N1194 C1186 1.356 . S
N1194 H1200 0.984 . S
N1194 H1201 0.984 . S
N1195 C1188 1.356 . S
N1195 H1198 0.984 . S
N1195 H1199 0.985 . S
H1196 N1191 0.984 . S
H1197 N1191 0.985 . S
H1198 N1195 0.984 . S
H1199 N1195 0.985 . S
H1200 N1194 0.984 . S
H1201 N1194 0.984 . S
H1202 N1190 0.984 . S
H1203 N1190 0.985 . S
C1204 C1205 1.363 . S
C1204 C1210 1.379 1_556 S
C1204 N1212 1.356 . S
C1205 C1204 1.363 . S
C1205 C1211 1.363 . S
C1206 C1207 1.363 1_556 S
C1206 C1211 1.379 . S
C1206 N1213 1.356 . S
C1207 C1206 1.363 1_554 S
C1207 C1210 1.363 . S
N1208 C1210 1.356 . S
N1208 H1220 0.984 . S
N1208 H1221 0.985 . S
N1209 C1211 1.356 . S
N1209 H1214 0.984 . S
N1209 H1215 0.985 . S
C1210 C1204 1.379 1_554 S
C1210 C1207 1.363 . S
C1210 N1208 1.356 . S
C1211 C1205 1.363 . S
C1211 C1206 1.379 . S
C1211 N1209 1.356 . S
N1212 C1204 1.356 . S
N1212 H1218 0.984 1_556 S
N1212 H1219 0.984 . S
N1213 C1206 1.356 . S
N1213 H1216 0.984 1_556 S
N1213 H1217 0.985 . S
H1214 N1209 0.984 . S
H1215 N1209 0.985 . S
H1216 N1213 0.984 1_554 S
H1217 N1213 0.985 . S
H1218 N1212 0.984 1_554 S
H1219 N1212 0.984 . S
H1220 N1208 0.984 . S
H1221 N1208 0.985 . S
C1222 C1223 1.363 . S
C1222 C1228 1.379 . S
C1222 N1230 1.356 . S
C1223 C1222 1.363 . S
C1223 C1229 1.363 . S
C1224 C1225 1.363 . S
C1224 C1229 1.379 . S
C1224 N1231 1.356 . S
C1225 C1224 1.363 . S
C1225 C1228 1.363 . S
N1226 C1228 1.356 . S
N1226 H1238 0.984 . S
N1226 H1239 0.985 . S
N1227 C1229 1.356 . S
N1227 H1232 0.984 . S
N1227 H1233 0.985 . S
C1228 C1222 1.379 . S
C1228 C1225 1.363 . S
C1228 N1226 1.356 . S
C1229 C1223 1.363 . S
C1229 C1224 1.379 . S
C1229 N1227 1.356 . S
N1230 C1222 1.356 . S
N1230 H1236 0.984 . S
N1230 H1237 0.984 . S
N1231 C1224 1.356 . S
N1231 H1234 0.984 . S
N1231 H1235 0.985 . S
H1232 N1227 0.984 . S
H1233 N1227 0.985 . S
H1234 N1231 0.984 . S
H1235 N1231 0.985 . S
H1236 N1230 0.984 . S
H1237 N1230 0.984 . S
H1238 N1226 0.984 . S
H1239 N1226 0.985 . S
C1240 C1241 1.363 . S
C1240 C1246 1.379 . S
C1240 N1248 1.356 . S
C1241 C1240 1.363 . S
C1241 C1247 1.363 . S
C1242 C1243 1.363 . S
C1242 C1247 1.379 . S
C1242 N1249 1.356 . S
C1243 C1242 1.363 . S
C1243 C1246 1.363 . S
N1244 C1246 1.356 . S
N1244 H1256 0.984 . S
N1244 H1257 0.985 . S
N1245 C1247 1.356 . S
N1245 H1250 0.984 . S
N1245 H1251 0.985 . S
C1246 C1240 1.379 . S
C1246 C1243 1.363 . S
C1246 N1244 1.356 . S
C1247 C1241 1.363 . S
C1247 C1242 1.379 . S
C1247 N1245 1.356 . S
N1248 C1240 1.356 . S
N1248 H1254 0.984 . S
N1248 H1255 0.984 1_554 S
N1249 C1242 1.356 . S
N1249 H1252 0.984 . S
N1249 H1253 0.985 . S
H1250 N1245 0.984 . S
H1251 N1245 0.985 . S
H1252 N1249 0.984 . S
H1253 N1249 0.985 . S
H1254 N1248 0.984 . S
H1255 N1248 0.984 1_556 S
H1256 N1244 0.984 . S
H1257 N1244 0.985 . S
C1258 C1259 1.363 . S
C1258 C1264 1.379 . S
C1258 N1266 1.356 . S
C1259 C1258 1.363 . S
C1259 C1265 1.363 . S
C1260 C1261 1.363 . S
C1260 C1265 1.379 . S
C1260 N1267 1.356 . S
C1261 C1260 1.363 . S
C1261 C1264 1.363 . S
N1262 C1264 1.356 . S
N1262 H1274 0.984 . S
N1262 H1275 0.985 . S
N1263 C1265 1.356 . S
N1263 H1268 0.984 . S
N1263 H1269 0.985 1_554 S
C1264 C1258 1.379 . S
C1264 C1261 1.363 . S
C1264 N1262 1.356 . S
C1265 C1259 1.363 . S
C1265 C1260 1.379 . S
C1265 N1263 1.356 . S
N1266 C1258 1.356 . S
N1266 H1272 0.984 . S
N1266 H1273 0.984 . S
N1267 C1260 1.356 . S
N1267 H1270 0.984 . S
N1267 H1271 0.985 . S
H1268 N1263 0.984 . S
H1269 N1263 0.985 1_556 S
H1270 N1267 0.984 . S
H1271 N1267 0.985 . S
H1272 N1266 0.984 . S
H1273 N1266 0.984 . S
H1274 N1262 0.984 . S
H1275 N1262 0.985 . S
C1276 C1277 1.363 . S
C1276 C1282 1.379 . S
C1276 N1284 1.356 . S
C1277 C1276 1.363 . S
C1277 C1283 1.363 . S
C1278 C1279 1.363 . S
C1278 C1283 1.379 . S
C1278 N1285 1.356 . S
C1279 C1278 1.363 . S
C1279 C1282 1.363 . S
N1280 C1282 1.356 . S
N1280 H1292 0.984 . S
N1280 H1293 0.985 . S
N1281 C1283 1.356 . S
N1281 H1286 0.984 . S
N1281 H1287 0.985 . S
C1282 C1276 1.379 . S
C1282 C1279 1.363 . S
C1282 N1280 1.356 . S
C1283 C1277 1.363 . S
C1283 C1278 1.379 . S
C1283 N1281 1.356 . S
N1284 C1276 1.356 . S
N1284 H1290 0.984 . S
N1284 H1291 0.984 . S
N1285 C1278 1.356 . S
N1285 H1288 0.984 . S
N1285 H1289 0.985 . S
H1286 N1281 0.984 . S
H1287 N1281 0.985 . S
H1288 N1285 0.984 . S
H1289 N1285 0.985 . S
H1290 N1284 0.984 . S
H1291 N1284 0.984 . S
H1292 N1280 0.984 . S
H1293 N1280 0.985 . S
C1294 C1295 1.363 . S
C1294 C1300 1.379 . S
C1294 N1302 1.356 . S
C1295 C1294 1.363 . S
C1295 C1301 1.363 . S
C1296 C1297 1.363 . S
C1296 C1301 1.379 . S
C1296 N1303 1.356 . S
C1297 C1296 1.363 . S
C1297 C1300 1.363 . S
N1298 C1300 1.356 . S
N1298 H1310 0.984 . S
N1298 H1311 0.985 . S
N1299 C1301 1.356 . S
N1299 H1304 0.984 . S
N1299 H1305 0.985 . S
C1300 C1294 1.379 . S
C1300 C1297 1.363 . S
C1300 N1298 1.356 . S
C1301 C1295 1.363 . S
C1301 C1296 1.379 . S
C1301 N1299 1.356 . S
N1302 C1294 1.356 . S
N1302 H1308 0.984 . S
N1302 H1309 0.984 . S
N1303 C1296 1.356 . S
N1303 H1306 0.984 . S
N1303 H1307 0.985 . S
H1304 N1299 0.984 . S
H1305 N1299 0.985 . S
H1306 N1303 0.984 . S
H1307 N1303 0.985 . S
H1308 N1302 0.984 . S
H1309 N1302 0.984 . S
H1310 N1298 0.984 . S
H1311 N1298 0.985 . S
C1312 C1313 1.363 . S
C1312 C1318 1.379 . S
C1312 N1320 1.356 . S
C1313 C1312 1.363 . S
C1313 C1319 1.363 . S
C1314 C1315 1.363 . S
C1314 C1319 1.379 . S
C1314 N1321 1.356 . S
C1315 C1314 1.363 . S
C1315 C1318 1.363 . S
N1316 C1318 1.356 . S
N1316 H1328 0.984 . S
N1316 H1329 0.985 . S
N1317 C1319 1.356 . S
N1317 H1322 0.984 . S
N1317 H1323 0.985 . S
C1318 C1312 1.379 . S
C1318 C1315 1.363 . S
C1318 N1316 1.356 . S
C1319 C1313 1.363 . S
C1319 C1314 1.379 . S
C1319 N1317 1.356 . S
N1320 C1312 1.356 . S
N1320 H1326 0.984 . S
N1320 H1327 0.984 . S
N1321 C1314 1.356 . S
N1321 H1324 0.984 . S
N1321 H1325 0.985 . S
H1322 N1317 0.984 . S
H1323 N1317 0.985 . S
H1324 N1321 0.984 . S
H1325 N1321 0.985 . S
H1326 N1320 0.984 . S
H1327 N1320 0.984 . S
H1328 N1316 0.984 . S
H1329 N1316 0.985 . S
C1330 C1331 1.363 . S
C1330 C1336 1.379 . S
C1330 N1338 1.356 . S
C1331 C1330 1.363 . S
C1331 C1337 1.363 . S
C1332 C1333 1.363 . S
C1332 C1337 1.379 . S
C1332 N1339 1.356 . S
C1333 C1332 1.363 . S
C1333 C1336 1.363 . S
N1334 C1336 1.356 . S
N1334 H1346 0.984 . S
N1334 H1347 0.985 . S
N1335 C1337 1.356 . S
N1335 H1340 0.984 . S
N1335 H1341 0.985 . S
C1336 C1330 1.379 . S
C1336 C1333 1.363 . S
C1336 N1334 1.356 . S
C1337 C1331 1.363 . S
C1337 C1332 1.379 . S
C1337 N1335 1.356 . S
N1338 C1330 1.356 . S
N1338 H1344 0.984 . S
N1338 H1345 0.984 . S
N1339 C1332 1.356 . S
N1339 H1342 0.984 . S
N1339 H1343 0.985 . S
H1340 N1335 0.984 . S
H1341 N1335 0.985 . S
H1342 N1339 0.984 . S
H1343 N1339 0.985 . S
H1344 N1338 0.984 . S
H1345 N1338 0.984 . S
H1346 N1334 0.984 . S
H1347 N1334 0.985 . S
C1348 C1349 1.363 . S
C1348 C1354 1.379 . S
C1348 N1356 1.356 . S
C1349 C1348 1.363 . S
C1349 C1355 1.363 . S
C1350 C1351 1.363 . S
C1350 C1355 1.379 . S
C1350 N1357 1.356 . S
C1351 C1350 1.363 . S
C1351 C1354 1.363 . S
N1352 C1354 1.356 . S
N1352 H1364 0.984 . S
N1352 H1365 0.985 . S
N1353 C1355 1.356 . S
N1353 H1358 0.984 . S
N1353 H1359 0.985 . S
C1354 C1348 1.379 . S
C1354 C1351 1.363 . S
C1354 N1352 1.356 . S
C1355 C1349 1.363 . S
C1355 C1350 1.379 . S
C1355 N1353 1.356 . S
N1356 C1348 1.356 . S
N1356 H1362 0.984 . S
N1356 H1363 0.984 . S
N1357 C1350 1.356 . S
N1357 H1360 0.984 . S
N1357 H1361 0.985 . S
H1358 N1353 0.984 . S
H1359 N1353 0.985 . S
H1360 N1357 0.984 . S
H1361 N1357 0.985 . S
H1362 N1356 0.984 . S
H1363 N1356 0.984 . S
H1364 N1352 0.984 . S
H1365 N1352 0.985 . S
C1366 C1367 1.363 . S
C1366 C1372 1.379 . S
C1366 N1374 1.356 . S
C1367 C1366 1.363 . S
C1367 C1373 1.363 . S
C1368 C1369 1.363 . S
C1368 C1373 1.379 . S
C1368 N1375 1.356 . S
C1369 C1368 1.363 . S
C1369 C1372 1.363 . S
N1370 C1372 1.356 . S
N1370 H1382 0.984 . S
N1370 H1383 0.985 . S
N1371 C1373 1.356 . S
N1371 H1376 0.984 . S
N1371 H1377 0.985 . S
C1372 C1366 1.379 . S
C1372 C1369 1.363 . S
C1372 N1370 1.356 . S
C1373 C1367 1.363 . S
C1373 C1368 1.379 . S
C1373 N1371 1.356 . S
N1374 C1366 1.356 . S
N1374 H1380 0.984 . S
N1374 H1381 0.984 . S
N1375 C1368 1.356 . S
N1375 H1378 0.984 . S
N1375 H1379 0.985 . S
H1376 N1371 0.984 . S
H1377 N1371 0.985 . S
H1378 N1375 0.984 . S
H1379 N1375 0.985 . S
H1380 N1374 0.984 . S
H1381 N1374 0.984 . S
H1382 N1370 0.984 . S
H1383 N1370 0.985 . S
C1384 C1385 1.363 . S
C1384 C1390 1.379 . S
C1384 N1392 1.356 . S
C1385 C1384 1.363 . S
C1385 C1391 1.363 . S
C1386 C1387 1.363 . S
C1386 C1391 1.379 . S
C1386 N1393 1.356 . S
C1387 C1386 1.363 . S
C1387 C1390 1.363 . S
N1388 C1390 1.356 . S
N1388 H1400 0.984 . S
N1388 H1401 0.985 . S
N1389 C1391 1.356 . S
N1389 H1394 0.984 . S
N1389 H1395 0.985 . S
C1390 C1384 1.379 . S
C1390 C1387 1.363 . S
C1390 N1388 1.356 . S
C1391 C1385 1.363 . S
C1391 C1386 1.379 . S
C1391 N1389 1.356 . S
N1392 C1384 1.356 . S
N1392 H1398 0.984 . S
N1392 H1399 0.984 . S
N1393 C1386 1.356 . S
N1393 H1396 0.984 . S
N1393 H1397 0.985 . S
H1394 N1389 0.984 . S
H1395 N1389 0.985 . S
H1396 N1393 0.984 . S
H1397 N1393 0.985 . S
H1398 N1392 0.984 . S
H1399 N1392 0.984 . S
H1400 N1388 0.984 . S
H1401 N1388 0.985 . S
C1402 C1403 1.363 . S
C1402 C1408 1.379 . S
C1402 N1410 1.356 . S
C1403 C1402 1.363 . S
C1403 C1409 1.363 . S
C1404 C1405 1.363 . S
C1404 C1409 1.379 . S
C1404 N1411 1.356 . S
C1405 C1404 1.363 . S
C1405 C1408 1.363 . S
N1406 C1408 1.356 . S
N1406 H1418 0.984 . S
N1406 H1419 0.985 . S
N1407 C1409 1.356 . S
N1407 H1412 0.984 . S
N1407 H1413 0.985 . S
C1408 C1402 1.379 . S
C1408 C1405 1.363 . S
C1408 N1406 1.356 . S
C1409 C1403 1.363 . S
C1409 C1404 1.379 . S
C1409 N1407 1.356 . S
N1410 C1402 1.356 . S
N1410 H1416 0.984 . S
N1410 H1417 0.984 . S
N1411 C1404 1.356 . S
N1411 H1414 0.984 . S
N1411 H1415 0.985 . S
H1412 N1407 0.984 . S
H1413 N1407 0.985 . S
H1414 N1411 0.984 . S
H1415 N1411 0.985 . S
H1416 N1410 0.984 . S
H1417 N1410 0.984 . S
H1418 N1406 0.984 . S
H1419 N1406 0.985 . S
C1420 C1421 1.363 . S
C1420 C1426 1.379 . S
C1420 N1428 1.356 . S
C1421 C1420 1.363 . S
C1421 C1427 1.363 . S
C1422 C1423 1.363 . S
C1422 C1427 1.379 . S
C1422 N1429 1.356 . S
C1423 C1422 1.363 . S
C1423 C1426 1.363 . S
N1424 C1426 1.356 . S
N1424 H1436 0.984 . S
N1424 H1437 0.985 . S
N1425 C1427 1.356 . S
N1425 H1430 0.984 . S
N1425 H1431 0.985 . S
C1426 C1420 1.379 . S
C1426 C1423 1.363 . S
C1426 N1424 1.356 . S
C1427 C1421 1.363 . S
C1427 C1422 1.379 . S
C1427 N1425 1.356 . S
N1428 C1420 1.356 . S
N1428 H1434 0.984 . S
N1428 H1435 0.984 . S
N1429 C1422 1.356 . S
N1429 H1432 0.984 . S
N1429 H1433 0.985 . S
H1430 N1425 0.984 . S
H1431 N1425 0.985 . S
H1432 N1429 0.984 . S
H1433 N1429 0.985 . S
H1434 N1428 0.984 . S
H1435 N1428 0.984 . S
H1436 N1424 0.984 . S
H1437 N1424 0.985 . S
C1438 C1439 1.363 . S
C1438 C1444 1.379 . S
C1438 N1446 1.356 . S
C1439 C1438 1.363 . S
C1439 C1445 1.363 . S
C1440 C1441 1.363 . S
C1440 C1445 1.379 . S
C1440 N1447 1.356 . S
C1441 C1440 1.363 . S
C1441 C1444 1.363 . S
N1442 C1444 1.356 . S
N1442 H1454 0.984 . S
N1442 H1455 0.985 . S
N1443 C1445 1.356 . S
N1443 H1448 0.984 . S
N1443 H1449 0.985 . S
C1444 C1438 1.379 . S
C1444 C1441 1.363 . S
C1444 N1442 1.356 . S
C1445 C1439 1.363 . S
C1445 C1440 1.379 . S
C1445 N1443 1.356 . S
N1446 C1438 1.356 . S
N1446 H1452 0.984 . S
N1446 H1453 0.984 . S
N1447 C1440 1.356 . S
N1447 H1450 0.984 . S
N1447 H1451 0.985 . S
H1448 N1443 0.984 . S
H1449 N1443 0.985 . S
H1450 N1447 0.984 . S
H1451 N1447 0.985 . S
H1452 N1446 0.984 . S
H1453 N1446 0.984 . S
H1454 N1442 0.984 . S
H1455 N1442 0.985 . S
C1456 C1457 1.363 . S
C1456 C1462 1.379 . S
C1456 N1464 1.356 . S
C1457 C1456 1.363 . S
C1457 C1463 1.363 1_455 S
C1458 C1459 1.363 . S
C1458 C1463 1.379 . S
C1458 N1465 1.356 . S
C1459 C1458 1.363 . S
C1459 C1462 1.363 1_655 S
N1460 C1462 1.356 . S
N1460 H1472 0.984 . S
N1460 H1473 0.985 . S
N1461 C1463 1.356 . S
N1461 H1466 0.984 . S
N1461 H1467 0.985 . S
C1462 C1456 1.379 . S
C1462 C1459 1.363 1_455 S
C1462 N1460 1.356 . S
C1463 C1457 1.363 1_655 S
C1463 C1458 1.379 . S
C1463 N1461 1.356 . S
N1464 C1456 1.356 . S
N1464 H1470 0.984 . S
N1464 H1471 0.984 . S
N1465 C1458 1.356 . S
N1465 H1468 0.984 . S
N1465 H1469 0.985 . S
H1466 N1461 0.984 . S
H1467 N1461 0.985 . S
H1468 N1465 0.984 . S
H1469 N1465 0.985 . S
H1470 N1464 0.984 . S
H1471 N1464 0.984 . S
H1472 N1460 0.984 . S
H1473 N1460 0.985 . S
C1474 C1475 1.363 . S
C1474 C1480 1.379 . S
C1474 N1482 1.356 . S
C1475 C1474 1.363 . S
C1475 C1481 1.363 . S
C1476 C1477 1.363 . S
C1476 C1481 1.379 . S
C1476 N1483 1.356 . S
C1477 C1476 1.363 . S
C1477 C1480 1.363 . S
N1478 C1480 1.356 . S
N1478 H1490 0.984 . S
N1478 H1491 0.985 . S
N1479 C1481 1.356 . S
N1479 H1484 0.984 . S
N1479 H1485 0.985 . S
C1480 C1474 1.379 . S
C1480 C1477 1.363 . S
C1480 N1478 1.356 . S
C1481 C1475 1.363 . S
C1481 C1476 1.379 . S
C1481 N1479 1.356 . S
N1482 C1474 1.356 . S
N1482 H1488 0.984 . S
N1482 H1489 0.984 . S
N1483 C1476 1.356 . S
N1483 H1486 0.984 . S
N1483 H1487 0.985 . S
H1484 N1479 0.984 . S
H1485 N1479 0.985 . S
H1486 N1483 0.984 . S
H1487 N1483 0.985 . S
H1488 N1482 0.984 . S
H1489 N1482 0.984 . S
H1490 N1478 0.984 . S
H1491 N1478 0.985 . S
C1492 C1493 1.363 1_554 S
C1492 C1498 1.379 . S
C1492 N1500 1.356 1_554 S
C1493 C1492 1.363 1_556 S
C1493 C1499 1.363 1_556 S
C1494 C1495 1.363 . S
C1494 C1499 1.379 . S
C1494 N1501 1.356 . S
C1495 C1494 1.363 . S
C1495 C1498 1.363 . S
N1496 C1498 1.356 . S
N1496 H1508 0.984 . S
N1496 H1509 0.985 . S
N1497 C1499 1.356 1_556 S
N1497 H1502 0.984 . S
N1497 H1503 0.985 . S
C1498 C1492 1.379 . S
C1498 C1495 1.363 . S
C1498 N1496 1.356 . S
C1499 C1493 1.363 1_554 S
C1499 C1494 1.379 . S
C1499 N1497 1.356 1_554 S
N1500 C1492 1.356 1_556 S
N1500 H1506 0.984 . S
N1500 H1507 0.984 . S
N1501 C1494 1.356 . S
N1501 H1504 0.984 . S
N1501 H1505 0.985 . S
H1502 N1497 0.984 . S
H1503 N1497 0.985 . S
H1504 N1501 0.984 . S
H1505 N1501 0.985 . S
H1506 N1500 0.984 . S
H1507 N1500 0.984 . S
H1508 N1496 0.984 . S
H1509 N1496 0.985 . S
C1510 C1511 1.363 1_655 S
C1510 C1516 1.379 . S
C1510 N1518 1.356 . S
C1511 C1510 1.363 1_455 S
C1511 C1517 1.363 . S
C1512 C1513 1.363 1_455 S
C1512 C1517 1.379 . S
C1512 N1519 1.356 . S
C1513 C1512 1.363 1_655 S
C1513 C1516 1.363 . S
N1514 C1516 1.356 . S
N1514 H1526 0.984 . S
N1514 H1527 0.985 . S
N1515 C1517 1.356 . S
N1515 H1520 0.984 . S
N1515 H1521 0.985 . S
C1516 C1510 1.379 . S
C1516 C1513 1.363 . S
C1516 N1514 1.356 . S
C1517 C1511 1.363 . S
C1517 C1512 1.379 . S
C1517 N1515 1.356 . S
N1518 C1510 1.356 . S
N1518 H1524 0.984 . S
N1518 H1525 0.984 1_655 S
N1519 C1512 1.356 . S
N1519 H1522 0.984 1_455 S
N1519 H1523 0.985 . S
H1520 N1515 0.984 . S
H1521 N1515 0.985 . S
H1522 N1519 0.984 1_655 S
H1523 N1519 0.985 . S
H1524 N1518 0.984 . S
H1525 N1518 0.984 1_455 S
H1526 N1514 0.984 . S
H1527 N1514 0.985 . S
C1528 C1529 1.363 . S
C1528 C1534 1.379 . S
C1528 N1536 1.356 . S
C1529 C1528 1.363 . S
C1529 C1535 1.363 . S
C1530 C1531 1.363 . S
C1530 C1535 1.379 . S
C1530 N1537 1.356 1_545 S
C1531 C1530 1.363 . S
C1531 C1534 1.363 . S
N1532 C1534 1.356 1_554 S
N1532 H1544 0.984 . S
N1532 H1545 0.985 . S
N1533 C1535 1.356 . S
N1533 H1538 0.984 . S
N1533 H1539 0.965 1_545 S
C1534 C1528 1.379 . S
C1534 C1531 1.363 . S
C1534 N1532 1.356 1_556 S
C1535 C1529 1.363 . S
C1535 C1530 1.379 . S
C1535 N1533 1.356 . S
N1536 C1528 1.356 . S
N1536 H1542 0.984 . S
N1536 H1543 0.984 . S
N1537 C1530 1.356 1_565 S
N1537 H1540 0.984 . S
N1537 H1541 0.985 . S
H1538 N1533 0.984 . S
H1539 N1533 0.965 1_565 S
H1540 N1537 0.984 . S
H1541 N1537 0.985 . S
H1542 N1536 0.984 . S
H1543 N1536 0.984 . S
H1544 N1532 0.984 . S
H1545 N1532 0.985 . S
C1546 C1547 1.363 . S
C1546 C1552 1.379 . S
C1546 N1554 1.356 . S
C1547 C1546 1.363 . S
C1547 C1553 1.363 . S
C1548 C1549 1.363 . S
C1548 C1553 1.379 . S
C1548 N1555 1.356 . S
C1549 C1548 1.363 . S
C1549 C1552 1.363 . S
N1550 C1552 1.356 . S
N1550 H1562 0.984 . S
N1550 H1563 0.985 . S
N1551 C1553 1.356 . S
N1551 H1556 0.984 . S
N1551 H1557 0.985 . S
C1552 C1546 1.379 . S
C1552 C1549 1.363 . S
C1552 N1550 1.356 . S
C1553 C1547 1.363 . S
C1553 C1548 1.379 . S
C1553 N1551 1.356 . S
N1554 C1546 1.356 . S
N1554 H1560 0.984 . S
N1554 H1561 0.984 . S
N1555 C1548 1.356 . S
N1555 H1558 0.984 . S
N1555 H1559 0.985 . S
H1556 N1551 0.984 . S
H1557 N1551 0.985 . S
H1558 N1555 0.984 . S
H1559 N1555 0.985 . S
H1560 N1554 0.984 . S
H1561 N1554 0.984 . S
H1562 N1550 0.984 . S
H1563 N1550 0.985 . S
C1564 C1565 1.363 . S
C1564 C1570 1.379 . S
C1564 N1572 1.356 . S
C1565 C1564 1.363 . S
C1565 C1571 1.363 . S
C1566 C1567 1.363 . S
C1566 C1571 1.379 . S
C1566 N1573 1.356 1_545 S
C1567 C1566 1.363 . S
C1567 C1570 1.363 . S
N1568 C1570 1.356 . S
N1568 H1580 0.984 . S
N1568 H1581 0.985 . S
N1569 C1571 1.356 . S
N1569 H1574 0.984 . S
N1569 H1575 0.985 1_545 S
C1570 C1564 1.379 . S
C1570 C1567 1.363 . S
C1570 N1568 1.356 . S
C1571 C1565 1.363 . S
C1571 C1566 1.379 . S
C1571 N1569 1.356 . S
N1572 C1564 1.356 . S
N1572 H1578 0.984 . S
N1572 H1579 0.984 . S
N1573 C1566 1.356 1_565 S
N1573 H1576 0.984 . S
N1573 H1577 0.985 . S
H1574 N1569 0.984 . S
H1575 N1569 0.985 1_565 S
H1576 N1573 0.984 . S
H1577 N1573 0.985 . S
H1578 N1572 0.984 . S
H1579 N1572 0.984 . S
H1580 N1568 0.984 . S
H1581 N1568 0.985 . S
C1582 C1583 1.363 . S
C1582 C1588 1.379 . S
C1582 N1590 1.356 . S
C1583 C1582 1.363 . S
C1583 C1589 1.363 . S
C1584 C1585 1.363 . S
C1584 C1589 1.379 . S
C1584 N1591 1.356 . S
C1585 C1584 1.363 . S
C1585 C1588 1.363 . S
N1586 C1588 1.356 . S
N1586 H1598 0.984 . S
N1586 H1599 0.985 . S
N1587 C1589 1.356 . S
N1587 H1592 0.984 . S
N1587 H1593 0.985 . S
C1588 C1582 1.379 . S
C1588 C1585 1.363 . S
C1588 N1586 1.356 . S
C1589 C1583 1.363 . S
C1589 C1584 1.379 . S
C1589 N1587 1.356 . S
N1590 C1582 1.356 . S
N1590 H1596 0.984 . S
N1590 H1597 0.984 . S
N1591 C1584 1.356 . S
N1591 H1594 0.984 . S
N1591 H1595 0.985 . S
H1592 N1587 0.984 . S
H1593 N1587 0.985 . S
H1594 N1591 0.984 . S
H1595 N1591 0.985 . S
H1596 N1590 0.984 . S
H1597 N1590 0.984 . S
H1598 N1586 0.984 . S
H1599 N1586 0.985 . S
C1600 C1601 1.363 . S
C1600 C1606 1.379 . S
C1600 N1608 1.356 . S
C1601 C1600 1.363 . S
C1601 C1607 1.363 . S
C1602 C1603 1.363 . S
C1602 C1607 1.379 . S
C1602 N1609 1.356 . S
C1603 C1602 1.363 . S
C1603 C1606 1.363 . S
N1604 C1606 1.356 . S
N1604 H1616 0.984 1_545 S
N1604 H1617 0.985 . S
N1605 C1607 1.356 . S
N1605 H1610 0.984 . S
N1605 H1611 0.985 . S
C1606 C1600 1.379 . S
C1606 C1603 1.363 . S
C1606 N1604 1.356 . S
C1607 C1601 1.363 . S
C1607 C1602 1.379 . S
C1607 N1605 1.356 . S
N1608 C1600 1.356 . S
N1608 H1614 0.984 . S
N1608 H1615 0.984 . S
N1609 C1602 1.356 . S
N1609 H1612 0.984 . S
N1609 H1613 0.985 . S
H1610 N1605 0.984 . S
H1611 N1605 0.985 . S
H1612 N1609 0.984 . S
H1613 N1609 0.985 . S
H1614 N1608 0.984 . S
H1615 N1608 0.984 . S
H1616 N1604 0.984 1_565 S
H1617 N1604 0.985 . S
C1618 C1619 1.363 . S
C1618 C1624 1.379 . S
C1618 N1626 1.356 . S
C1619 C1618 1.363 . S
C1619 C1625 1.363 . S
C1620 C1621 1.363 . S
C1620 C1625 1.379 . S
C1620 N1627 1.356 . S
C1621 C1620 1.363 . S
C1621 C1624 1.363 . S
N1622 C1624 1.356 . S
N1622 H1634 0.984 . S
N1622 H1635 0.985 . S
N1623 C1625 1.356 . S
N1623 H1628 0.984 . S
N1623 H1629 0.985 . S
C1624 C1618 1.379 . S
C1624 C1621 1.363 . S
C1624 N1622 1.356 . S
C1625 C1619 1.363 . S
C1625 C1620 1.379 . S
C1625 N1623 1.356 . S
N1626 C1618 1.356 . S
N1626 H1632 0.984 . S
N1626 H1633 0.984 . S
N1627 C1620 1.356 . S
N1627 H1630 0.984 . S
N1627 H1631 0.985 . S
H1628 N1623 0.984 . S
H1629 N1623 0.985 . S
H1630 N1627 0.984 . S
H1631 N1627 0.985 . S
H1632 N1626 0.984 . S
H1633 N1626 0.984 . S
H1634 N1622 0.984 . S
H1635 N1622 0.985 . S
C1636 C1637 1.363 . S
C1636 C1642 1.379 . S
C1636 N1644 1.356 . S
C1637 C1636 1.363 . S
C1637 C1643 1.363 . S
C1638 C1639 1.363 . S
C1638 C1643 1.379 . S
C1638 N1645 1.356 . S
C1639 C1638 1.363 . S
C1639 C1642 1.363 . S
N1640 C1642 1.356 1_565 S
N1640 H1652 0.984 . S
N1640 H1653 0.985 . S
N1641 C1643 1.356 . S
N1641 H1646 0.984 . S
N1641 H1647 0.985 . S
C1642 C1636 1.379 . S
C1642 C1639 1.363 . S
C1642 N1640 1.356 1_545 S
C1643 C1637 1.363 . S
C1643 C1638 1.379 . S
C1643 N1641 1.356 . S
N1644 C1636 1.356 . S
N1644 H1650 0.984 1_545 S
N1644 H1651 0.984 . S
N1645 C1638 1.356 . S
N1645 H1648 0.984 . S
N1645 H1649 0.985 . S
H1646 N1641 0.984 . S
H1647 N1641 0.985 . S
H1648 N1645 0.984 . S
H1649 N1645 0.985 . S
H1650 N1644 0.984 1_565 S
H1651 N1644 0.984 . S
H1652 N1640 0.984 . S
H1653 N1640 0.985 . S
C1654 C1655 1.363 . S
C1654 C1660 1.379 . S
C1654 N1662 1.356 1_556 S
C1655 C1654 1.363 . S
C1655 C1661 1.363 . S
C1656 C1657 1.363 . S
C1656 C1661 1.379 . S
C1656 N1663 1.356 . S
C1657 C1656 1.363 . S
C1657 C1660 1.363 . S
N1658 C1660 1.356 . S
N1658 H1670 0.984 . S
N1658 H1671 0.985 . S
N1659 C1661 1.356 . S
N1659 H1664 0.984 1_556 S
N1659 H1665 0.985 . S
C1660 C1654 1.379 . S
C1660 C1657 1.363 . S
C1660 N1658 1.356 . S
C1661 C1655 1.363 . S
C1661 C1656 1.379 . S
C1661 N1659 1.356 . S
N1662 C1654 1.356 1_554 S
N1662 H1668 0.984 . S
N1662 H1669 0.984 . S
N1663 C1656 1.356 . S
N1663 H1666 0.984 . S
N1663 H1667 0.985 . S
H1664 N1659 0.984 1_554 S
H1665 N1659 0.985 . S
H1666 N1663 0.984 . S
H1667 N1663 0.985 . S
H1668 N1662 0.984 . S
H1669 N1662 0.984 . S
H1670 N1658 0.984 . S
H1671 N1658 0.985 . S
C1672 C1673 1.363 . S
C1672 C1678 1.379 . S
C1672 N1680 1.356 . S
C1673 C1672 1.363 . S
C1673 C1679 1.363 . S
C1674 C1675 1.363 . S
C1674 C1679 1.379 . S
C1674 N1681 1.356 . S
C1675 C1674 1.363 . S
C1675 C1678 1.363 . S
N1676 C1678 1.356 . S
N1676 H1688 0.984 . S
N1676 H1689 0.985 . S
N1677 C1679 1.356 . S
N1677 H1682 0.984 . S
N1677 H1683 0.985 . S
C1678 C1672 1.379 . S
C1678 C1675 1.363 . S
C1678 N1676 1.356 . S
C1679 C1673 1.363 . S
C1679 C1674 1.379 . S
C1679 N1677 1.356 . S
N1680 C1672 1.356 . S
N1680 H1686 0.984 . S
N1680 H1687 0.984 . S
N1681 C1674 1.356 . S
N1681 H1684 0.984 . S
N1681 H1685 0.985 . S
H1682 N1677 0.984 . S
H1683 N1677 0.985 . S
H1684 N1681 0.984 . S
H1685 N1681 0.985 . S
H1686 N1680 0.984 . S
H1687 N1680 0.984 . S
H1688 N1676 0.984 . S
H1689 N1676 0.985 . S
C1690 C1691 1.363 . S
C1690 C1696 1.379 . S
C1690 N1698 1.356 . S
C1691 C1690 1.363 . S
C1691 C1697 1.363 . S
C1692 C1693 1.363 . S
C1692 C1697 1.379 . S
C1692 N1699 1.356 . S
C1693 C1692 1.363 . S
C1693 C1696 1.363 . S
N1694 C1696 1.356 . S
N1694 H1706 0.984 . S
N1694 H1707 0.985 . S
N1695 C1697 1.356 . S
N1695 H1700 0.984 . S
N1695 H1701 0.985 . S
C1696 C1690 1.379 . S
C1696 C1693 1.363 . S
C1696 N1694 1.356 . S
C1697 C1691 1.363 . S
C1697 C1692 1.379 . S
C1697 N1695 1.356 . S
N1698 C1690 1.356 . S
N1698 H1704 0.984 . S
N1698 H1705 0.984 . S
N1699 C1692 1.356 . S
N1699 H1702 0.984 . S
N1699 H1703 0.985 . S
H1700 N1695 0.984 . S
H1701 N1695 0.985 . S
H1702 N1699 0.984 . S
H1703 N1699 0.985 . S
H1704 N1698 0.984 . S
H1705 N1698 0.984 . S
H1706 N1694 0.984 . S
H1707 N1694 0.985 . S
C1708 C1709 1.363 . S
C1708 C1714 1.379 . S
C1708 N1716 1.356 . S
C1709 C1708 1.363 . S
C1709 C1715 1.363 . S
C1710 C1711 1.363 . S
C1710 C1715 1.379 . S
C1710 N1717 1.356 . S
C1711 C1710 1.363 . S
C1711 C1714 1.363 . S
N1712 C1714 1.356 . S
N1712 H1724 0.984 . S
N1712 H1725 0.985 . S
N1713 C1715 1.356 . S
N1713 H1718 0.984 . S
N1713 H1719 0.985 . S
C1714 C1708 1.379 . S
C1714 C1711 1.363 . S
C1714 N1712 1.356 . S
C1715 C1709 1.363 . S
C1715 C1710 1.379 . S
C1715 N1713 1.356 . S
N1716 C1708 1.356 . S
N1716 H1722 0.984 . S
N1716 H1723 0.984 . S
N1717 C1710 1.356 . S
N1717 H1720 0.984 . S
N1717 H1721 0.985 . S
H1718 N1713 0.984 . S
H1719 N1713 0.985 . S
H1720 N1717 0.984 . S
H1721 N1717 0.985 . S
H1722 N1716 0.984 . S
H1723 N1716 0.984 . S
H1724 N1712 0.984 . S
H1725 N1712 0.985 . S
C1726 C1727 1.363 . S
C1726 C1732 1.379 . S
C1726 N1734 1.356 . S
C1727 C1726 1.363 . S
C1727 C1733 1.363 . S
C1728 C1729 1.363 . S
C1728 C1733 1.379 . S
C1728 N1735 1.356 . S
C1729 C1728 1.363 . S
C1729 C1732 1.363 . S
N1730 C1732 1.356 . S
N1730 H1742 0.984 . S
N1730 H1743 0.985 . S
N1731 C1733 1.356 . S
N1731 H1736 0.984 . S
N1731 H1737 0.985 . S
C1732 C1726 1.379 . S
C1732 C1729 1.363 . S
C1732 N1730 1.356 . S
C1733 C1727 1.363 . S
C1733 C1728 1.379 . S
C1733 N1731 1.356 . S
N1734 C1726 1.356 . S
N1734 H1740 0.984 . S
N1734 H1741 0.984 . S
N1735 C1728 1.356 . S
N1735 H1738 0.984 . S
N1735 H1739 0.985 . S
H1736 N1731 0.984 . S
H1737 N1731 0.985 . S
H1738 N1735 0.984 . S
H1739 N1735 0.985 . S
H1740 N1734 0.984 . S
H1741 N1734 0.984 . S
H1742 N1730 0.984 . S
H1743 N1730 0.985 . S
C1744 C1745 1.363 . S
C1744 C1750 1.379 . S
C1744 N1752 1.356 . S
C1745 C1744 1.363 . S
C1745 C1751 1.363 . S
C1746 C1747 1.363 . S
C1746 C1751 1.379 . S
C1746 N1753 1.356 . S
C1747 C1746 1.363 . S
C1747 C1750 1.363 . S
N1748 C1750 1.356 . S
N1748 H1760 0.984 . S
N1748 H1761 0.985 . S
N1749 C1751 1.356 . S
N1749 H1754 0.984 . S
N1749 H1755 0.985 . S
C1750 C1744 1.379 . S
C1750 C1747 1.363 . S
C1750 N1748 1.356 . S
C1751 C1745 1.363 . S
C1751 C1746 1.379 . S
C1751 N1749 1.356 . S
N1752 C1744 1.356 . S
N1752 H1758 0.984 . S
N1752 H1759 0.984 . S
N1753 C1746 1.356 . S
N1753 H1756 0.984 . S
N1753 H1757 0.985 . S
H1754 N1749 0.984 . S
H1755 N1749 0.985 . S
H1756 N1753 0.984 . S
H1757 N1753 0.985 . S
H1758 N1752 0.984 . S
H1759 N1752 0.984 . S
H1760 N1748 0.984 . S
H1761 N1748 0.985 . S
C1762 C1763 1.363 . S
C1762 C1768 1.379 . S
C1762 N1770 1.356 . S
C1763 C1762 1.363 . S
C1763 C1769 1.363 . S
C1764 C1765 1.363 . S
C1764 C1769 1.379 . S
C1764 N1771 1.356 . S
C1765 C1764 1.363 . S
C1765 C1768 1.363 . S
N1766 C1768 1.356 . S
N1766 H1778 0.984 . S
N1766 H1779 0.985 . S
N1767 C1769 1.356 . S
N1767 H1772 0.984 . S
N1767 H1773 0.985 . S
C1768 C1762 1.379 . S
C1768 C1765 1.363 . S
C1768 N1766 1.356 . S
C1769 C1763 1.363 . S
C1769 C1764 1.379 . S
C1769 N1767 1.356 . S
N1770 C1762 1.356 . S
N1770 H1776 0.984 . S
N1770 H1777 0.984 . S
N1771 C1764 1.356 . S
N1771 H1774 0.984 . S
N1771 H1775 0.973 1_565 S
H1772 N1767 0.984 . S
H1773 N1767 0.985 . S
H1774 N1771 0.984 . S
H1775 N1771 0.973 1_545 S
H1776 N1770 0.984 . S
H1777 N1770 0.984 . S
H1778 N1766 0.984 . S
H1779 N1766 0.985 . S
C1780 C1781 1.363 . S
C1780 C1786 1.379 . S
C1780 N1788 1.356 . S
C1781 C1780 1.363 . S
C1781 C1787 1.363 . S
C1782 C1783 1.363 . S
C1782 C1787 1.379 . S
C1782 N1789 1.356 . S
C1783 C1782 1.363 . S
C1783 C1786 1.363 . S
N1784 C1786 1.356 . S
N1784 H1796 0.984 . S
N1784 H1797 0.985 . S
N1785 C1787 1.356 . S
N1785 H1790 0.984 . S
N1785 H1791 0.985 . S
C1786 C1780 1.379 . S
C1786 C1783 1.363 . S
C1786 N1784 1.356 . S
C1787 C1781 1.363 . S
C1787 C1782 1.379 . S
C1787 N1785 1.356 . S
N1788 C1780 1.356 . S
N1788 H1794 0.984 . S
N1788 H1795 0.984 . S
N1789 C1782 1.356 . S
N1789 H1792 0.984 . S
N1789 H1793 0.985 . S
H1790 N1785 0.984 . S
H1791 N1785 0.985 . S
H1792 N1789 0.984 . S
H1793 N1789 0.985 . S
H1794 N1788 0.984 . S
H1795 N1788 0.984 . S
H1796 N1784 0.984 . S
H1797 N1784 0.985 . S
C1798 C1799 1.363 . S
C1798 C1804 1.379 . S
C1798 N1806 1.356 . S
C1799 C1798 1.363 . S
C1799 C1805 1.363 . S
C1800 C1801 1.363 . S
C1800 C1805 1.379 . S
C1800 N1807 1.356 . S
C1801 C1800 1.363 . S
C1801 C1804 1.363 . S
N1802 C1804 1.356 . S
N1802 H1814 0.984 . S
N1802 H1815 0.985 . S
N1803 C1805 1.356 . S
N1803 H1808 0.984 . S
N1803 H1809 0.985 . S
C1804 C1798 1.379 . S
C1804 C1801 1.363 . S
C1804 N1802 1.356 . S
C1805 C1799 1.363 . S
C1805 C1800 1.379 . S
C1805 N1803 1.356 . S
N1806 C1798 1.356 . S
N1806 H1812 0.984 . S
N1806 H1813 0.984 . S
N1807 C1800 1.356 . S
N1807 H1810 0.984 . S
N1807 H1811 0.985 . S
H1808 N1803 0.984 . S
H1809 N1803 0.985 . S
H1810 N1807 0.984 . S
H1811 N1807 0.985 . S
H1812 N1806 0.984 . S
H1813 N1806 0.984 . S
H1814 N1802 0.984 . S
H1815 N1802 0.985 . S
C1816 C1817 1.363 . S
C1816 C1822 1.379 . S
C1816 N1824 1.356 . S
C1817 C1816 1.363 . S
C1817 C1823 1.363 . S
C1818 C1819 1.363 . S
C1818 C1823 1.379 . S
C1818 N1825 1.356 . S
C1819 C1818 1.363 . S
C1819 C1822 1.363 . S
N1820 C1822 1.356 . S
N1820 H1832 0.984 . S
N1820 H1833 0.985 . S
N1821 C1823 1.356 . S
N1821 H1826 0.984 . S
N1821 H1827 0.985 . S
C1822 C1816 1.379 . S
C1822 C1819 1.363 . S
C1822 N1820 1.356 . S
C1823 C1817 1.363 . S
C1823 C1818 1.379 . S
C1823 N1821 1.356 . S
N1824 C1816 1.356 . S
N1824 H1830 0.984 . S
N1824 H1831 0.984 . S
N1825 C1818 1.356 . S
N1825 H1828 0.984 . S
N1825 H1829 0.985 . S
H1826 N1821 0.984 . S
H1827 N1821 0.985 . S
H1828 N1825 0.984 . S
H1829 N1825 0.985 . S
H1830 N1824 0.984 . S
H1831 N1824 0.984 . S
H1832 N1820 0.984 . S
H1833 N1820 0.985 . S
C1834 C1835 1.363 . S
C1834 C1840 1.379 . S
C1834 N1842 1.356 . S
C1835 C1834 1.363 . S
C1835 C1841 1.363 . S
C1836 C1837 1.363 . S
C1836 C1841 1.379 . S
C1836 N1843 1.356 . S
C1837 C1836 1.363 . S
C1837 C1840 1.363 . S
N1838 C1840 1.356 . S
N1838 H1850 0.984 . S
N1838 H1851 0.985 . S
N1839 C1841 1.356 . S
N1839 H1844 0.984 . S
N1839 H1845 0.985 . S
C1840 C1834 1.379 . S
C1840 C1837 1.363 . S
C1840 N1838 1.356 . S
C1841 C1835 1.363 . S
C1841 C1836 1.379 . S
C1841 N1839 1.356 . S
N1842 C1834 1.356 . S
N1842 H1848 0.984 . S
N1842 H1849 0.984 . S
N1843 C1836 1.356 . S
N1843 H1846 0.984 . S
N1843 H1847 0.985 . S
H1844 N1839 0.984 . S
H1845 N1839 0.985 . S
H1846 N1843 0.984 . S
H1847 N1843 0.985 . S
H1848 N1842 0.984 . S
H1849 N1842 0.984 . S
H1850 N1838 0.984 . S
H1851 N1838 0.985 . S
C1852 C1853 1.363 . S
C1852 C1858 1.379 . S
C1852 N1860 1.356 . S
C1853 C1852 1.363 . S
C1853 C1859 1.363 . S
C1854 C1855 1.363 . S
C1854 C1859 1.379 . S
C1854 N1861 1.356 . S
C1855 C1854 1.363 . S
C1855 C1858 1.363 . S
N1856 C1858 1.356 . S
N1856 H1868 0.984 . S
N1856 H1869 0.985 . S
N1857 C1859 1.356 . S
N1857 H1862 0.984 . S
N1857 H1863 0.985 1_554 S
C1858 C1852 1.379 . S
C1858 C1855 1.363 . S
C1858 N1856 1.356 . S
C1859 C1853 1.363 . S
C1859 C1854 1.379 . S
C1859 N1857 1.356 . S
N1860 C1852 1.356 . S
N1860 H1866 0.984 . S
N1860 H1867 0.984 . S
N1861 C1854 1.356 . S
N1861 H1864 0.984 . S
N1861 H1865 1.012 . S
H1862 N1857 0.984 . S
H1863 N1857 0.985 1_556 S
H1864 N1861 0.984 . S
H1865 N1861 1.012 . S
H1866 N1860 0.984 . S
H1867 N1860 0.984 . S
H1868 N1856 0.984 . S
H1869 N1856 0.985 . S
C1870 C1871 1.363 . S
C1870 C1876 1.379 . S
C1870 N1878 1.356 1_655 S
C1871 C1870 1.363 . S
C1871 C1877 1.363 . S
C1872 C1873 1.363 . S
C1872 C1877 1.379 . S
C1872 N1879 1.356 . S
C1873 C1872 1.363 . S
C1873 C1876 1.363 . S
N1874 C1876 1.356 . S
N1874 H1886 0.984 . S
N1874 H1887 0.985 . S
N1875 C1877 1.356 . S
N1875 H1880 0.984 1_655 S
N1875 H1881 0.985 . S
C1876 C1870 1.379 . S
C1876 C1873 1.363 . S
C1876 N1874 1.356 . S
C1877 C1871 1.363 . S
C1877 C1872 1.379 . S
C1877 N1875 1.356 . S
N1878 C1870 1.356 1_455 S
N1878 H1884 0.984 . S
N1878 H1885 0.984 . S
N1879 C1872 1.356 . S
N1879 H1882 0.984 . S
N1879 H1883 0.985 . S
H1880 N1875 0.984 1_455 S
H1881 N1875 0.985 . S
H1882 N1879 0.984 . S
H1883 N1879 0.985 . S
H1884 N1878 0.984 . S
H1885 N1878 0.984 . S
H1886 N1874 0.984 . S
H1887 N1874 0.985 . S
C1888 C1889 1.363 . S
C1888 C1894 1.379 . S
C1888 N1896 1.356 . S
C1889 C1888 1.363 . S
C1889 C1895 1.363 . S
C1890 C1891 1.363 . S
C1890 C1895 1.379 . S
C1890 N1897 1.356 . S
C1891 C1890 1.363 . S
C1891 C1894 1.363 . S
N1892 C1894 1.356 . S
N1892 H1904 0.984 . S
N1892 H1905 0.985 . S
N1893 C1895 1.356 . S
N1893 H1898 0.984 . S
N1893 H1899 0.985 . S
C1894 C1888 1.379 . S
C1894 C1891 1.363 . S
C1894 N1892 1.356 . S
C1895 C1889 1.363 . S
C1895 C1890 1.379 . S
C1895 N1893 1.356 . S
N1896 C1888 1.356 . S
N1896 H1902 0.984 . S
N1896 H1903 0.984 . S
N1897 C1890 1.356 . S
N1897 H1900 0.984 . S
N1897 H1901 0.985 . S
H1898 N1893 0.984 . S
H1899 N1893 0.985 . S
H1900 N1897 0.984 . S
H1901 N1897 0.985 . S
H1902 N1896 0.984 . S
H1903 N1896 0.984 . S
H1904 N1892 0.984 . S
H1905 N1892 0.985 . S
C1906 C1907 1.363 . S
C1906 C1912 1.379 . S
C1906 N1914 1.356 . S
C1907 C1906 1.363 . S
C1907 C1913 1.363 . S
C1908 C1909 1.363 . S
C1908 C1913 1.379 . S
C1908 N1915 1.356 . S
C1909 C1908 1.363 . S
C1909 C1912 1.363 . S
N1910 C1912 1.356 . S
N1910 H1922 0.984 . S
N1910 H1923 0.985 . S
N1911 C1913 1.356 . S
N1911 H1916 0.984 . S
N1911 H1917 0.985 . S
C1912 C1906 1.379 . S
C1912 C1909 1.363 . S
C1912 N1910 1.356 . S
C1913 C1907 1.363 . S
C1913 C1908 1.379 . S
C1913 N1911 1.356 . S
N1914 C1906 1.356 . S
N1914 H1920 0.984 . S
N1914 H1921 0.984 . S
N1915 C1908 1.356 . S
N1915 H1918 0.984 . S
N1915 H1919 0.985 . S
H1916 N1911 0.984 . S
H1917 N1911 0.985 . S
H1918 N1915 0.984 . S
H1919 N1915 0.985 . S
H1920 N1914 0.984 . S
H1921 N1914 0.984 . S
H1922 N1910 0.984 . S
H1923 N1910 0.985 . S
C1924 C1925 1.363 . S
C1924 C1930 1.379 . S
C1924 N1932 1.356 . S
C1925 C1924 1.363 . S
C1925 C1931 1.363 . S
C1926 C1927 1.363 . S
C1926 C1931 1.379 . S
C1926 N1933 1.356 . S
C1927 C1926 1.363 . S
C1927 C1930 1.363 . S
N1928 C1930 1.356 . S
N1928 H1940 0.984 . S
N1928 H1941 0.985 . S
N1929 C1931 1.356 . S
N1929 H1934 0.984 . S
N1929 H1935 0.985 . S
C1930 C1924 1.379 . S
C1930 C1927 1.363 . S
C1930 N1928 1.356 . S
C1931 C1925 1.363 . S
C1931 C1926 1.379 . S
C1931 N1929 1.356 . S
N1932 C1924 1.356 . S
N1932 H1938 0.984 . S
N1932 H1939 0.984 . S
N1933 C1926 1.356 . S
N1933 H1936 0.984 . S
N1933 H1937 0.985 . S
H1934 N1929 0.984 . S
H1935 N1929 0.985 . S
H1936 N1933 0.984 . S
H1937 N1933 0.985 . S
H1938 N1932 0.984 . S
H1939 N1932 0.984 . S
H1940 N1928 0.984 . S
H1941 N1928 0.985 . S
C1942 C1943 1.363 . S
C1942 C1948 1.379 . S
C1942 N1950 1.356 . S
C1943 C1942 1.363 . S
C1943 C1949 1.363 . S
C1944 C1945 1.363 . S
C1944 C1949 1.379 . S
C1944 N1951 1.356 . S
C1945 C1944 1.363 . S
C1945 C1948 1.363 . S
N1946 C1948 1.356 . S
N1946 H1958 0.984 . S
N1946 H1959 0.985 . S
N1947 C1949 1.356 . S
N1947 H1952 0.984 . S
N1947 H1953 0.985 . S
C1948 C1942 1.379 . S
C1948 C1945 1.363 . S
C1948 N1946 1.356 . S
C1949 C1943 1.363 . S
C1949 C1944 1.379 . S
C1949 N1947 1.356 . S
N1950 C1942 1.356 . S
N1950 H1956 0.984 . S
N1950 H1957 0.984 . S
N1951 C1944 1.356 . S
N1951 H1954 0.984 . S
N1951 H1955 0.985 . S
H1952 N1947 0.984 . S
H1953 N1947 0.985 . S
H1954 N1951 0.984 . S
H1955 N1951 0.985 . S
H1956 N1950 0.984 . S
H1957 N1950 0.984 . S
H1958 N1946 0.984 . S
H1959 N1946 0.985 . S
C1960 C1961 1.363 . S
C1960 C1966 1.379 . S
C1960 N1968 1.356 . S
C1961 C1960 1.363 . S
C1961 C1967 1.363 . S
C1962 C1963 1.363 . S
C1962 C1967 1.379 . S
C1962 N1969 1.356 . S
C1963 C1962 1.363 . S
C1963 C1966 1.363 . S
N1964 C1966 1.356 . S
N1964 H1976 0.984 . S
N1964 H1977 0.985 . S
N1965 C1967 1.356 . S
N1965 H1970 0.984 . S
N1965 H1971 0.985 . S
C1966 C1960 1.379 . S
C1966 C1963 1.363 . S
C1966 N1964 1.356 . S
C1967 C1961 1.363 . S
C1967 C1962 1.379 . S
C1967 N1965 1.356 . S
N1968 C1960 1.356 . S
N1968 H1974 0.984 . S
N1968 H1975 0.984 . S
N1969 C1962 1.356 . S
N1969 H1972 0.984 . S
N1969 H1973 0.985 . S
H1970 N1965 0.984 . S
H1971 N1965 0.985 . S
H1972 N1969 0.984 . S
H1973 N1969 0.985 . S
H1974 N1968 0.984 . S
H1975 N1968 0.984 . S
H1976 N1964 0.984 . S
H1977 N1964 0.985 . S
C1978 C1979 1.363 . S
C1978 C1984 1.379 . S
C1978 N1986 1.356 . S
C1979 C1978 1.363 . S
C1979 C1985 1.363 . S
C1980 C1981 1.363 . S
C1980 C1985 1.379 . S
C1980 N1987 1.356 . S
C1981 C1980 1.363 . S
C1981 C1984 1.363 . S
N1982 C1984 1.356 . S
N1982 H1994 0.984 . S
N1982 H1995 0.985 . S
N1983 C1985 1.356 . S
N1983 H1988 0.984 . S
N1983 H1989 0.985 . S
C1984 C1978 1.379 . S
C1984 C1981 1.363 . S
C1984 N1982 1.356 . S
C1985 C1979 1.363 . S
C1985 C1980 1.379 . S
C1985 N1983 1.356 . S
N1986 C1978 1.356 . S
N1986 H1992 0.984 . S
N1986 H1993 0.984 . S
N1987 C1980 1.356 . S
N1987 H1990 0.984 . S
N1987 H1991 0.985 . S
H1988 N1983 0.984 . S
H1989 N1983 0.985 . S
H1990 N1987 0.984 . S
H1991 N1987 0.985 . S
H1992 N1986 0.984 . S
H1993 N1986 0.984 . S
H1994 N1982 0.984 . S
H1995 N1982 0.985 . S
C1996 C1997 1.363 . S
C1996 C2002 1.379 . S
C1996 N2004 1.356 . S
C1997 C1996 1.363 . S
C1997 C2003 1.363 . S
C1998 C1999 1.363 . S
C1998 C2003 1.379 . S
C1998 N2005 1.356 . S
C1999 C1998 1.363 . S
C1999 C2002 1.363 . S
N2000 C2002 1.356 . S
N2000 H2012 0.984 . S
N2000 H2013 0.985 . S
N2001 C2003 1.356 . S
N2001 H2006 0.984 . S
N2001 H2007 0.985 . S
C2002 C1996 1.379 . S
C2002 C1999 1.363 . S
C2002 N2000 1.356 . S
C2003 C1997 1.363 . S
C2003 C1998 1.379 . S
C2003 N2001 1.356 . S
N2004 C1996 1.356 . S
N2004 H2010 0.984 . S
N2004 H2011 0.984 . S
N2005 C1998 1.356 . S
N2005 H2008 0.984 . S
N2005 H2009 0.985 . S
H2006 N2001 0.984 . S
H2007 N2001 0.985 . S
H2008 N2005 0.984 . S
H2009 N2005 0.985 . S
H2010 N2004 0.984 . S
H2011 N2004 0.984 . S
H2012 N2000 0.984 . S
H2013 N2000 0.985 . S
C2014 C2015 1.363 . S
C2014 C2020 1.379 . S
C2014 N2022 1.356 . S
C2015 C2014 1.363 . S
C2015 C2021 1.363 . S
C2016 C2017 1.363 . S
C2016 C2021 1.379 . S
C2016 N2023 1.356 . S
C2017 C2016 1.363 . S
C2017 C2020 1.363 . S
N2018 C2020 1.356 . S
N2018 H2030 0.984 . S
N2018 H2031 0.985 . S
N2019 C2021 1.356 . S
N2019 H2024 0.984 . S
N2019 H2025 0.985 . S
C2020 C2014 1.379 . S
C2020 C2017 1.363 . S
C2020 N2018 1.356 . S
C2021 C2015 1.363 . S
C2021 C2016 1.379 . S
C2021 N2019 1.356 . S
N2022 C2014 1.356 . S
N2022 H2028 0.984 . S
N2022 H2029 0.984 . S
N2023 C2016 1.356 . S
N2023 H2026 0.984 . S
N2023 H2027 0.985 . S
H2024 N2019 0.984 . S
H2025 N2019 0.985 . S
H2026 N2023 0.984 . S
H2027 N2023 0.985 . S
H2028 N2022 0.984 . S
H2029 N2022 0.984 . S
H2030 N2018 0.984 . S
H2031 N2018 0.985 . S
C2032 C2033 1.363 . S
C2032 C2038 1.379 . S
C2032 N2040 1.356 . S
C2033 C2032 1.363 . S
C2033 C2039 1.363 . S
C2034 C2035 1.363 . S
C2034 C2039 1.379 . S
C2034 N2041 1.356 . S
C2035 C2034 1.363 . S
C2035 C2038 1.363 . S
N2036 C2038 1.356 . S
N2036 H2048 0.984 . S
N2036 H2049 0.985 1_556 S
N2037 C2039 1.356 . S
N2037 H2042 0.984 . S
N2037 H2043 0.985 . S
C2038 C2032 1.379 . S
C2038 C2035 1.363 . S
C2038 N2036 1.356 . S
C2039 C2033 1.363 . S
C2039 C2034 1.379 . S
C2039 N2037 1.356 . S
N2040 C2032 1.356 . S
N2040 H2046 0.984 . S
N2040 H2047 0.984 . S
N2041 C2034 1.356 . S
N2041 H2044 0.984 1_556 S
N2041 H2045 0.985 . S
H2042 N2037 0.984 . S
H2043 N2037 0.985 . S
H2044 N2041 0.984 1_554 S
H2045 N2041 0.985 . S
H2046 N2040 0.984 . S
H2047 N2040 0.984 . S
H2048 N2036 0.984 . S
H2049 N2036 0.985 1_554 S
C2050 C2051 1.363 . S
C2050 C2056 1.379 . S
C2050 N2058 1.356 . S
C2051 C2050 1.363 . S
C2051 C2057 1.363 . S
C2052 C2053 1.363 . S
C2052 C2057 1.379 . S
C2052 N2059 1.356 . S
C2053 C2052 1.363 . S
C2053 C2056 1.363 . S
N2054 C2056 1.356 . S
N2054 H2066 0.984 . S
N2054 H2067 0.985 . S
N2055 C2057 1.356 . S
N2055 H2060 0.984 . S
N2055 H2061 0.985 . S
C2056 C2050 1.379 . S
C2056 C2053 1.363 . S
C2056 N2054 1.356 . S
C2057 C2051 1.363 . S
C2057 C2052 1.379 . S
C2057 N2055 1.356 . S
N2058 C2050 1.356 . S
N2058 H2064 0.984 . S
N2058 H2065 0.984 . S
N2059 C2052 1.356 . S
N2059 H2062 0.984 . S
N2059 H2063 0.985 . S
H2060 N2055 0.984 . S
H2061 N2055 0.985 . S
H2062 N2059 0.984 . S
H2063 N2059 0.985 . S
H2064 N2058 0.984 . S
H2065 N2058 0.984 . S
H2066 N2054 0.984 . S
H2067 N2054 0.985 . S
C2068 C2069 1.363 . S
C2068 C2074 1.379 . S
C2068 N2076 1.356 . S
C2069 C2068 1.363 . S
C2069 C2075 1.363 . S
C2070 C2071 1.363 . S
C2070 C2075 1.379 . S
C2070 N2077 1.356 . S
C2071 C2070 1.363 . S
C2071 C2074 1.363 . S
N2072 C2074 1.356 . S
N2072 H2084 0.984 . S
N2072 H2085 0.985 . S
N2073 C2075 1.356 . S
N2073 H2078 0.984 . S
N2073 H2079 0.985 . S
C2074 C2068 1.379 . S
C2074 C2071 1.363 . S
C2074 N2072 1.356 . S
C2075 C2069 1.363 . S
C2075 C2070 1.379 . S
C2075 N2073 1.356 . S
N2076 C2068 1.356 . S
N2076 H2082 0.984 . S
N2076 H2083 0.984 . S
N2077 C2070 1.356 . S
N2077 H2080 0.984 . S
N2077 H2081 0.985 . S
H2078 N2073 0.984 . S
H2079 N2073 0.985 . S
H2080 N2077 0.984 . S
H2081 N2077 0.985 . S
H2082 N2076 0.984 . S
H2083 N2076 0.984 . S
H2084 N2072 0.984 . S
H2085 N2072 0.985 . S
C2086 C2087 1.363 . S
C2086 C2092 1.379 . S
C2086 N2094 1.356 . S
C2087 C2086 1.363 . S
C2087 C2093 1.363 . S
C2088 C2089 1.363 . S
C2088 C2093 1.379 . S
C2088 N2095 1.356 . S
C2089 C2088 1.363 . S
C2089 C2092 1.363 . S
N2090 C2092 1.356 . S
N2090 H2102 0.984 . S
N2090 H2103 0.985 . S
N2091 C2093 1.356 . S
N2091 H2096 0.984 . S
N2091 H2097 0.985 . S
C2092 C2086 1.379 . S
C2092 C2089 1.363 . S
C2092 N2090 1.356 . S
C2093 C2087 1.363 . S
C2093 C2088 1.379 . S
C2093 N2091 1.356 . S
N2094 C2086 1.356 . S
N2094 H2100 0.984 . S
N2094 H2101 0.984 . S
N2095 C2088 1.356 . S
N2095 H2098 0.984 . S
N2095 H2099 0.985 . S
H2096 N2091 0.984 . S
H2097 N2091 0.985 . S
H2098 N2095 0.984 . S
H2099 N2095 0.985 . S
H2100 N2094 0.984 . S
H2101 N2094 0.984 . S
H2102 N2090 0.984 . S
H2103 N2090 0.985 . S
C2104 C2105 1.363 . S
C2104 C2110 1.379 . S
C2104 N2112 1.356 . S
C2105 C2104 1.363 . S
C2105 C2111 1.363 . S
C2106 C2107 1.363 . S
C2106 C2111 1.379 . S
C2106 N2113 1.356 . S
C2107 C2106 1.363 . S
C2107 C2110 1.363 . S
N2108 C2110 1.356 . S
N2108 H2120 0.984 . S
N2108 H2121 0.985 . S
N2109 C2111 1.356 . S
N2109 H2114 0.984 . S
N2109 H2115 0.985 . S
C2110 C2104 1.379 . S
C2110 C2107 1.363 . S
C2110 N2108 1.356 . S
C2111 C2105 1.363 . S
C2111 C2106 1.379 . S
C2111 N2109 1.356 . S
N2112 C2104 1.356 . S
N2112 H2118 0.984 . S
N2112 H2119 0.984 . S
N2113 C2106 1.356 . S
N2113 H2116 0.984 . S
N2113 H2117 0.985 . S
H2114 N2109 0.984 . S
H2115 N2109 0.985 . S
H2116 N2113 0.984 . S
H2117 N2113 0.985 . S
H2118 N2112 0.984 . S
H2119 N2112 0.984 . S
H2120 N2108 0.984 . S
H2121 N2108 0.985 . S
C2122 C2123 1.363 . S
C2122 C2128 1.379 . S
C2122 N2130 1.356 . S
C2123 C2122 1.363 . S
C2123 C2129 1.363 . S
C2124 C2125 1.363 . S
C2124 C2129 1.379 . S
C2124 N2131 1.356 . S
C2125 C2124 1.363 . S
C2125 C2128 1.363 . S
N2126 C2128 1.356 . S
N2126 H2138 0.984 . S
N2126 H2139 0.985 . S
N2127 C2129 1.356 . S
N2127 H2132 0.984 . S
N2127 H2133 0.985 . S
C2128 C2122 1.379 . S
C2128 C2125 1.363 . S
C2128 N2126 1.356 . S
C2129 C2123 1.363 . S
C2129 C2124 1.379 . S
C2129 N2127 1.356 . S
N2130 C2122 1.356 . S
N2130 H2136 0.984 . S
N2130 H2137 0.984 . S
N2131 C2124 1.356 . S
N2131 H2134 0.984 . S
N2131 H2135 0.985 . S
H2132 N2127 0.984 . S
H2133 N2127 0.985 . S
H2134 N2131 0.984 . S
H2135 N2131 0.985 . S
H2136 N2130 0.984 . S
H2137 N2130 0.984 . S
H2138 N2126 0.984 . S
H2139 N2126 0.985 . S
C2140 C2141 1.363 1_565 S
C2140 C2146 1.379 . S
C2140 N2148 1.356 1_565 S
C2141 C2140 1.363 1_545 S
C2141 C2147 1.363 1_545 S
C2142 C2143 1.363 . S
C2142 C2147 1.379 . S
C2142 N2149 1.356 . S
C2143 C2142 1.363 . S
C2143 C2146 1.363 . S
N2144 C2146 1.356 . S
N2144 H2156 0.984 . S
N2144 H2157 0.985 . S
N2145 C2147 1.356 1_545 S
N2145 H2150 0.984 . S
N2145 H2151 0.985 . S
C2146 C2140 1.379 . S
C2146 C2143 1.363 . S
C2146 N2144 1.356 . S
C2147 C2141 1.363 1_565 S
C2147 C2142 1.379 . S
C2147 N2145 1.356 1_565 S
N2148 C2140 1.356 1_545 S
N2148 H2154 0.984 1_545 S
N2148 H2155 0.984 . S
N2149 C2142 1.356 . S
N2149 H2152 0.984 . S
N2149 H2153 0.985 . S
H2150 N2145 0.984 . S
H2151 N2145 0.985 . S
H2152 N2149 0.984 . S
H2153 N2149 0.985 . S
H2154 N2148 0.984 1_565 S
H2155 N2148 0.984 . S
H2156 N2144 0.984 . S
H2157 N2144 0.985 . S
C2158 C2159 1.363 . S
C2158 C2164 1.379 . S
C2158 N2166 1.356 1_554 S
C2159 C2158 1.363 . S
C2159 C2165 1.363 . S
C2160 C2161 1.363 . S
C2160 C2165 1.379 . S
C2160 N2167 1.356 . S
C2161 C2160 1.363 . S
C2161 C2164 1.363 . S
N2162 C2164 1.356 . S
N2162 H2174 0.984 1_554 S
N2162 H2175 0.985 . S
N2163 C2165 1.356 . S
N2163 H2168 0.984 . S
N2163 H2169 0.985 . S
C2164 C2158 1.379 . S
C2164 C2161 1.363 . S
C2164 N2162 1.356 . S
C2165 C2159 1.363 . S
C2165 C2160 1.379 . S
C2165 N2163 1.356 . S
N2166 C2158 1.356 1_556 S
N2166 H2172 0.984 . S
N2166 H2173 0.984 . S
N2167 C2160 1.356 . S
N2167 H2170 0.984 . S
N2167 H2171 0.985 . S
H2168 N2163 0.984 . S
H2169 N2163 0.985 . S
H2170 N2167 0.984 . S
H2171 N2167 0.985 . S
H2172 N2166 0.984 . S
H2173 N2166 0.984 . S
H2174 N2162 0.984 1_556 S
H2175 N2162 0.985 . S
C2176 C2177 1.363 . S
C2176 C2182 1.379 . S
C2176 N2184 1.356 . S
C2177 C2176 1.363 . S
C2177 C2183 1.363 . S
C2178 C2179 1.363 . S
C2178 C2183 1.379 . S
C2178 N2185 1.356 . S
C2179 C2178 1.363 . S
C2179 C2182 1.363 . S
N2180 C2182 1.356 . S
N2180 H2192 0.984 . S
N2180 H2193 0.985 . S
N2181 C2183 1.356 . S
N2181 H2186 0.984 . S
N2181 H2187 0.985 . S
C2182 C2176 1.379 . S
C2182 C2179 1.363 . S
C2182 N2180 1.356 . S
C2183 C2177 1.363 . S
C2183 C2178 1.379 . S
C2183 N2181 1.356 . S
N2184 C2176 1.356 . S
N2184 H2190 0.984 . S
N2184 H2191 0.984 . S
N2185 C2178 1.356 . S
N2185 H2188 0.984 . S
N2185 H2189 0.985 . S
H2186 N2181 0.984 . S
H2187 N2181 0.985 . S
H2188 N2185 0.984 . S
H2189 N2185 0.985 . S
H2190 N2184 0.984 . S
H2191 N2184 0.984 . S
H2192 N2180 0.984 . S
H2193 N2180 0.985 . S
C2194 C2195 1.363 . S
C2194 C2200 1.379 . S
C2194 N2202 1.356 . S
C2195 C2194 1.363 . S
C2195 C2201 1.363 . S
C2196 C2197 1.363 . S
C2196 C2201 1.379 . S
C2196 N2203 1.356 . S
C2197 C2196 1.363 . S
C2197 C2200 1.363 . S
N2198 C2200 1.356 . S
N2198 H2210 0.984 . S
N2198 H2211 0.985 . S
N2199 C2201 1.356 . S
N2199 H2204 0.984 . S
N2199 H2205 0.985 . S
C2200 C2194 1.379 . S
C2200 C2197 1.363 . S
C2200 N2198 1.356 . S
C2201 C2195 1.363 . S
C2201 C2196 1.379 . S
C2201 N2199 1.356 . S
N2202 C2194 1.356 . S
N2202 H2208 0.984 . S
N2202 H2209 0.984 . S
N2203 C2196 1.356 . S
N2203 H2206 0.984 . S
N2203 H2207 0.985 . S
H2204 N2199 0.984 . S
H2205 N2199 0.985 . S
H2206 N2203 0.984 . S
H2207 N2203 0.985 . S
H2208 N2202 0.984 . S
H2209 N2202 0.984 . S
H2210 N2198 0.984 . S
H2211 N2198 0.985 . S
C2212 C2213 1.363 . S
C2212 C2218 1.379 . S
C2212 N2220 1.356 . S
C2213 C2212 1.363 . S
C2213 C2219 1.363 . S
C2214 C2215 1.363 . S
C2214 C2219 1.379 . S
C2214 N2221 1.356 . S
C2215 C2214 1.363 . S
C2215 C2218 1.363 . S
N2216 C2218 1.356 . S
N2216 H2228 0.984 . S
N2216 H2229 0.985 . S
N2217 C2219 1.356 . S
N2217 H2222 0.984 . S
N2217 H2223 0.985 . S
C2218 C2212 1.379 . S
C2218 C2215 1.363 . S
C2218 N2216 1.356 . S
C2219 C2213 1.363 . S
C2219 C2214 1.379 . S
C2219 N2217 1.356 . S
N2220 C2212 1.356 . S
N2220 H2226 0.984 . S
N2220 H2227 0.984 . S
N2221 C2214 1.356 . S
N2221 H2224 0.984 . S
N2221 H2225 0.985 . S
H2222 N2217 0.984 . S
H2223 N2217 0.985 . S
H2224 N2221 0.984 . S
H2225 N2221 0.985 . S
H2226 N2220 0.984 . S
H2227 N2220 0.984 . S
H2228 N2216 0.984 . S
H2229 N2216 0.985 . S
C2230 C2231 1.363 . S
C2230 C2236 1.379 . S
C2230 N2238 1.356 . S
C2231 C2230 1.363 . S
C2231 C2237 1.363 . S
C2232 C2233 1.363 . S
C2232 C2237 1.379 . S
C2232 N2239 1.356 . S
C2233 C2232 1.363 . S
C2233 C2236 1.363 . S
N2234 C2236 1.356 . S
N2234 H2246 0.984 . S
N2234 H2247 0.985 . S
N2235 C2237 1.356 . S
N2235 H2240 0.984 . S
N2235 H2241 0.985 . S
C2236 C2230 1.379 . S
C2236 C2233 1.363 . S
C2236 N2234 1.356 . S
C2237 C2231 1.363 . S
C2237 C2232 1.379 . S
C2237 N2235 1.356 . S
N2238 C2230 1.356 . S
N2238 H2244 0.984 . S
N2238 H2245 0.984 . S
N2239 C2232 1.356 . S
N2239 H2242 0.984 . S
N2239 H2243 0.985 . S
H2240 N2235 0.984 . S
H2241 N2235 0.985 . S
H2242 N2239 0.984 . S
H2243 N2239 0.985 . S
H2244 N2238 0.984 . S
H2245 N2238 0.984 . S
H2246 N2234 0.984 . S
H2247 N2234 0.985 . S
C2248 C2249 1.363 . S
C2248 C2254 1.379 . S
C2248 N2256 1.356 . S
C2249 C2248 1.363 . S
C2249 C2255 1.363 . S
C2250 C2251 1.363 . S
C2250 C2255 1.379 . S
C2250 N2257 1.356 . S
C2251 C2250 1.363 . S
C2251 C2254 1.363 . S
N2252 C2254 1.356 . S
N2252 H2264 0.984 . S
N2252 H2265 0.985 . S
N2253 C2255 1.356 . S
N2253 H2258 0.984 . S
N2253 H2259 0.985 . S
C2254 C2248 1.379 . S
C2254 C2251 1.363 . S
C2254 N2252 1.356 . S
C2255 C2249 1.363 . S
C2255 C2250 1.379 . S
C2255 N2253 1.356 . S
N2256 C2248 1.356 . S
N2256 H2262 0.984 . S
N2256 H2263 0.984 . S
N2257 C2250 1.356 . S
N2257 H2260 0.984 . S
N2257 H2261 0.985 . S
H2258 N2253 0.984 . S
H2259 N2253 0.985 . S
H2260 N2257 0.984 . S
H2261 N2257 0.985 . S
H2262 N2256 0.984 . S
H2263 N2256 0.984 . S
H2264 N2252 0.984 . S
H2265 N2252 0.985 . S
C2266 C2267 1.363 . S
C2266 C2272 1.379 . S
C2266 N2274 1.356 . S
C2267 C2266 1.363 . S
C2267 C2273 1.363 . S
C2268 C2269 1.363 . S
C2268 C2273 1.379 . S
C2268 N2275 1.356 . S
C2269 C2268 1.363 . S
C2269 C2272 1.363 . S
N2270 C2272 1.356 . S
N2270 H2282 0.984 . S
N2270 H2283 0.985 . S
N2271 C2273 1.356 . S
N2271 H2276 0.984 . S
N2271 H2277 0.985 . S
C2272 C2266 1.379 . S
C2272 C2269 1.363 . S
C2272 N2270 1.356 . S
C2273 C2267 1.363 . S
C2273 C2268 1.379 . S
C2273 N2271 1.356 . S
N2274 C2266 1.356 . S
N2274 H2280 0.984 . S
N2274 H2281 0.984 . S
N2275 C2268 1.356 . S
N2275 H2278 0.984 . S
N2275 H2279 0.985 . S
H2276 N2271 0.984 . S
H2277 N2271 0.985 . S
H2278 N2275 0.984 . S
H2279 N2275 0.985 . S
H2280 N2274 0.984 . S
H2281 N2274 0.984 . S
H2282 N2270 0.984 . S
H2283 N2270 0.985 . S
C2284 C2285 1.363 . S
C2284 C2290 1.379 . S
C2284 N2292 1.356 . S
C2285 C2284 1.363 . S
C2285 C2291 1.363 . S
C2286 C2287 1.363 . S
C2286 C2291 1.379 . S
C2286 N2293 1.356 . S
C2287 C2286 1.363 . S
C2287 C2290 1.363 . S
N2288 C2290 1.356 . S
N2288 H2300 0.984 . S
N2288 H2301 0.985 . S
N2289 C2291 1.356 . S
N2289 H2294 0.984 . S
N2289 H2295 0.985 . S
C2290 C2284 1.379 . S
C2290 C2287 1.363 . S
C2290 N2288 1.356 . S
C2291 C2285 1.363 . S
C2291 C2286 1.379 . S
C2291 N2289 1.356 . S
N2292 C2284 1.356 . S
N2292 H2298 0.984 . S
N2292 H2299 0.984 . S
N2293 C2286 1.356 . S
N2293 H2296 0.984 . S
N2293 H2297 0.985 . S
H2294 N2289 0.984 . S
H2295 N2289 0.985 . S
H2296 N2293 0.984 . S
H2297 N2293 0.985 . S
H2298 N2292 0.984 . S
H2299 N2292 0.984 . S
H2300 N2288 0.984 . S
H2301 N2288 0.985 . S
C2302 C2303 1.363 . S
C2302 C2308 1.379 . S
C2302 N2310 1.356 . S
C2303 C2302 1.363 . S
C2303 C2309 1.363 . S
C2304 C2305 1.363 . S
C2304 C2309 1.379 . S
C2304 N2311 1.356 . S
C2305 C2304 1.363 . S
C2305 C2308 1.363 . S
N2306 C2308 1.356 . S
N2306 H2318 0.984 . S
N2306 H2319 0.985 . S
N2307 C2309 1.356 . S
N2307 H2312 0.984 . S
N2307 H2313 0.985 . S
C2308 C2302 1.379 . S
C2308 C2305 1.363 . S
C2308 N2306 1.356 . S
C2309 C2303 1.363 . S
C2309 C2304 1.379 . S
C2309 N2307 1.356 . S
N2310 C2302 1.356 . S
N2310 H2316 0.984 . S
N2310 H2317 0.984 . S
N2311 C2304 1.356 . S
N2311 H2314 0.984 . S
N2311 H2315 0.985 . S
H2312 N2307 0.984 . S
H2313 N2307 0.985 . S
H2314 N2311 0.984 . S
H2315 N2311 0.985 . S
H2316 N2310 0.984 . S
H2317 N2310 0.984 . S
H2318 N2306 0.984 . S
H2319 N2306 0.985 . S
C2320 C2321 1.363 1_554 S
C2320 C2326 1.379 . S
C2320 N2328 1.356 . S
C2321 C2320 1.363 1_556 S
C2321 C2327 1.363 . S
C2322 C2323 1.363 . S
C2322 C2327 1.379 . S
C2322 N2329 1.356 . S
C2323 C2322 1.363 . S
C2323 C2326 1.363 1_556 S
N2324 C2326 1.356 . S
N2324 H2336 0.984 . S
N2324 H2337 0.985 . S
N2325 C2327 1.356 . S
N2325 H2330 0.984 . S
N2325 H2331 0.985 . S
C2326 C2320 1.379 . S
C2326 C2323 1.363 1_554 S
C2326 N2324 1.356 . S
C2327 C2321 1.363 . S
C2327 C2322 1.379 . S
C2327 N2325 1.356 . S
N2328 C2320 1.356 . S
N2328 H2334 0.984 . S
N2328 H2335 0.984 . S
N2329 C2322 1.356 . S
N2329 H2332 0.984 . S
N2329 H2333 0.985 . S
H2330 N2325 0.984 . S
H2331 N2325 0.985 . S
H2332 N2329 0.984 . S
H2333 N2329 0.985 . S
H2334 N2328 0.984 . S
H2335 N2328 0.984 . S
H2336 N2324 0.984 . S
H2337 N2324 0.985 . S
C2338 C2339 1.363 . S
C2338 C2344 1.379 . S
C2338 N2346 1.356 . S
C2339 C2338 1.363 . S
C2339 C2345 1.363 . S
C2340 C2341 1.363 . S
C2340 C2345 1.379 . S
C2340 N2347 1.356 . S
C2341 C2340 1.363 . S
C2341 C2344 1.363 . S
N2342 C2344 1.356 . S
N2342 H2354 0.984 . S
N2342 H2355 0.985 . S
N2343 C2345 1.356 . S
N2343 H2348 0.984 . S
N2343 H2349 0.985 . S
C2344 C2338 1.379 . S
C2344 C2341 1.363 . S
C2344 N2342 1.356 . S
C2345 C2339 1.363 . S
C2345 C2340 1.379 . S
C2345 N2343 1.356 . S
N2346 C2338 1.356 . S
N2346 H2352 0.984 . S
N2346 H2353 0.984 . S
N2347 C2340 1.356 . S
N2347 H2350 0.984 . S
N2347 H2351 0.985 . S
H2348 N2343 0.984 . S
H2349 N2343 0.985 . S
H2350 N2347 0.984 . S
H2351 N2347 0.985 . S
H2352 N2346 0.984 . S
H2353 N2346 0.984 . S
H2354 N2342 0.984 . S
H2355 N2342 0.985 . S
C2356 C2357 1.363 . S
C2356 C2362 1.379 . S
C2356 N2364 1.356 . S
C2357 C2356 1.363 . S
C2357 C2363 1.363 . S
C2358 C2359 1.363 . S
C2358 C2363 1.379 . S
C2358 N2365 1.356 . S
C2359 C2358 1.363 . S
C2359 C2362 1.363 . S
N2360 C2362 1.356 . S
N2360 H2372 0.984 . S
N2360 H2373 0.985 . S
N2361 C2363 1.356 . S
N2361 H2366 0.984 . S
N2361 H2367 0.985 . S
C2362 C2356 1.379 . S
C2362 C2359 1.363 . S
C2362 N2360 1.356 . S
C2363 C2357 1.363 . S
C2363 C2358 1.379 . S
C2363 N2361 1.356 . S
N2364 C2356 1.356 . S
N2364 H2370 0.984 . S
N2364 H2371 0.984 . S
N2365 C2358 1.356 . S
N2365 H2368 0.984 . S
N2365 H2369 0.985 . S
H2366 N2361 0.984 . S
H2367 N2361 0.985 . S
H2368 N2365 0.984 . S
H2369 N2365 0.985 . S
H2370 N2364 0.984 . S
H2371 N2364 0.984 . S
H2372 N2360 0.984 . S
H2373 N2360 0.985 . S
C2374 C2375 1.363 . S
C2374 C2380 1.379 . S
C2374 N2382 1.356 . S
C2375 C2374 1.363 . S
C2375 C2381 1.363 . S
C2376 C2377 1.363 . S
C2376 C2381 1.379 . S
C2376 N2383 1.356 . S
C2377 C2376 1.363 . S
C2377 C2380 1.363 . S
N2378 C2380 1.356 . S
N2378 H2390 0.984 . S
N2378 H2391 0.985 . S
N2379 C2381 1.356 . S
N2379 H2384 0.984 . S
N2379 H2385 0.985 . S
C2380 C2374 1.379 . S
C2380 C2377 1.363 . S
C2380 N2378 1.356 . S
C2381 C2375 1.363 . S
C2381 C2376 1.379 . S
C2381 N2379 1.356 . S
N2382 C2374 1.356 . S
N2382 H2388 0.984 . S
N2382 H2389 0.984 . S
N2383 C2376 1.356 . S
N2383 H2386 0.984 . S
N2383 H2387 0.985 . S
H2384 N2379 0.984 . S
H2385 N2379 0.985 . S
H2386 N2383 0.984 . S
H2387 N2383 0.985 . S
H2388 N2382 0.984 . S
H2389 N2382 0.984 . S
H2390 N2378 0.984 . S
H2391 N2378 0.985 . S
C2392 C2393 1.363 . S
C2392 C2398 1.379 . S
C2392 N2400 1.356 . S
C2393 C2392 1.363 . S
C2393 C2399 1.363 . S
C2394 C2395 1.363 . S
C2394 C2399 1.379 . S
C2394 N2401 1.356 . S
C2395 C2394 1.363 . S
C2395 C2398 1.363 . S
N2396 C2398 1.356 . S
N2396 H2408 0.984 . S
N2396 H2409 0.985 . S
N2397 C2399 1.356 . S
N2397 H2402 0.984 . S
N2397 H2403 0.985 . S
C2398 C2392 1.379 . S
C2398 C2395 1.363 . S
C2398 N2396 1.356 . S
C2399 C2393 1.363 . S
C2399 C2394 1.379 . S
C2399 N2397 1.356 . S
N2400 C2392 1.356 . S
N2400 H2406 0.984 . S
N2400 H2407 0.984 . S
N2401 C2394 1.356 . S
N2401 H2404 0.984 . S
N2401 H2405 0.985 . S
H2402 N2397 0.984 . S
H2403 N2397 0.985 . S
H2404 N2401 0.984 . S
H2405 N2401 0.985 . S
H2406 N2400 0.984 . S
H2407 N2400 0.984 . S
H2408 N2396 0.984 . S
H2409 N2396 0.985 . S
C2410 C2411 1.363 . S
C2410 C2416 1.379 . S
C2410 N2418 1.356 . S
C2411 C2410 1.363 . S
C2411 C2417 1.363 . S
C2412 C2413 1.363 . S
C2412 C2417 1.379 . S
C2412 N2419 1.356 . S
C2413 C2412 1.363 . S
C2413 C2416 1.363 . S
N2414 C2416 1.356 . S
N2414 H2426 0.984 . S
N2414 H2427 0.985 . S
N2415 C2417 1.356 . S
N2415 H2420 0.984 . S
N2415 H2421 0.985 . S
C2416 C2410 1.379 . S
C2416 C2413 1.363 . S
C2416 N2414 1.356 . S
C2417 C2411 1.363 . S
C2417 C2412 1.379 . S
C2417 N2415 1.356 . S
N2418 C2410 1.356 . S
N2418 H2424 0.984 . S
N2418 H2425 0.984 . S
N2419 C2412 1.356 . S
N2419 H2422 0.984 . S
N2419 H2423 0.985 . S
H2420 N2415 0.984 . S
H2421 N2415 0.985 . S
H2422 N2419 0.984 . S
H2423 N2419 0.985 . S
H2424 N2418 0.984 . S
H2425 N2418 0.984 . S
H2426 N2414 0.984 . S
H2427 N2414 0.985 . S
C2428 C2429 1.363 . S
C2428 C2434 1.379 . S
C2428 N2436 1.356 . S
C2429 C2428 1.363 . S
C2429 C2435 1.363 . S
C2430 C2431 1.364 . S
C2430 C2435 1.379 1_455 S
C2430 N2437 1.356 . S
C2431 C2430 1.364 . S
C2431 C2434 1.359 1_455 S
N2432 C2434 1.356 . S
N2432 H2444 0.984 . S
N2432 H2445 0.985 . S
N2433 C2435 1.356 . S
N2433 H2438 0.984 . S
N2433 H2439 0.985 1_655 S
C2434 C2428 1.379 . S
C2434 C2431 1.359 1_655 S
C2434 N2432 1.356 . S
C2435 C2429 1.363 . S
C2435 C2430 1.379 1_655 S
C2435 N2433 1.356 . S
N2436 C2428 1.356 . S
N2436 H2442 0.984 . S
N2436 H2443 0.984 . S
N2437 C2430 1.356 . S
N2437 H2440 0.984 1_556 S
N2437 H2441 0.985 . S
H2438 N2433 0.984 . S
H2439 N2433 0.985 1_455 S
H2440 N2437 0.984 1_554 S
H2441 N2437 0.985 . S
H2442 N2436 0.984 . S
H2443 N2436 0.984 . S
H2444 N2432 0.984 . S
H2445 N2432 0.985 . S
C2446 C2447 1.363 . S
C2446 C2452 1.379 . S
C2446 N2454 1.356 . S
C2447 C2446 1.363 . S
C2447 C2453 1.363 . S
C2448 C2449 1.363 . S
C2448 C2453 1.379 . S
C2448 N2455 1.356 . S
C2449 C2448 1.363 . S
C2449 C2452 1.363 . S
N2450 C2452 1.356 . S
N2450 H2462 0.984 . S
N2450 H2463 0.985 . S
N2451 C2453 1.356 . S
N2451 H2456 0.984 . S
N2451 H2457 0.985 . S
C2452 C2446 1.379 . S
C2452 C2449 1.363 . S
C2452 N2450 1.356 . S
C2453 C2447 1.363 . S
C2453 C2448 1.379 . S
C2453 N2451 1.356 . S
N2454 C2446 1.356 . S
N2454 H2460 0.984 . S
N2454 H2461 0.984 . S
N2455 C2448 1.356 . S
N2455 H2458 0.984 . S
N2455 H2459 0.985 . S
H2456 N2451 0.984 . S
H2457 N2451 0.985 . S
H2458 N2455 0.984 . S
H2459 N2455 0.985 . S
H2460 N2454 0.984 . S
H2461 N2454 0.984 . S
H2462 N2450 0.984 . S
H2463 N2450 0.985 . S
C2464 C2465 1.363 . S
C2464 C2470 1.379 . S
C2464 N2472 1.356 . S
C2465 C2464 1.363 . S
C2465 C2471 1.363 . S
C2466 C2467 1.363 . S
C2466 C2471 1.379 . S
C2466 N2473 1.356 . S
C2467 C2466 1.363 . S
C2467 C2470 1.363 . S
N2468 C2470 1.356 . S
N2468 H2480 0.984 . S
N2468 H2481 0.985 . S
N2469 C2471 1.356 . S
N2469 H2474 0.984 . S
N2469 H2475 0.985 . S
C2470 C2464 1.379 . S
C2470 C2467 1.363 . S
C2470 N2468 1.356 . S
C2471 C2465 1.363 . S
C2471 C2466 1.379 . S
C2471 N2469 1.356 . S
N2472 C2464 1.356 . S
N2472 H2478 0.984 . S
N2472 H2479 0.984 . S
N2473 C2466 1.356 . S
N2473 H2476 0.984 . S
N2473 H2477 0.985 . S
H2474 N2469 0.984 . S
H2475 N2469 0.985 . S
H2476 N2473 0.984 . S
H2477 N2473 0.985 . S
H2478 N2472 0.984 . S
H2479 N2472 0.984 . S
H2480 N2468 0.984 . S
H2481 N2468 0.985 . S
C2482 C2483 1.363 . S
C2482 C2488 1.379 . S
C2482 N2490 1.356 . S
C2483 C2482 1.363 . S
C2483 C2489 1.363 . S
C2484 C2485 1.363 . S
C2484 C2489 1.379 . S
C2484 N2491 1.356 . S
C2485 C2484 1.363 . S
C2485 C2488 1.363 . S
N2486 C2488 1.356 . S
N2486 H2498 0.984 . S
N2486 H2499 0.985 . S
N2487 C2489 1.356 . S
N2487 H2492 0.984 . S
N2487 H2493 0.985 . S
C2488 C2482 1.379 . S
C2488 C2485 1.363 . S
C2488 N2486 1.356 . S
C2489 C2483 1.363 . S
C2489 C2484 1.379 . S
C2489 N2487 1.356 . S
N2490 C2482 1.356 . S
N2490 H2496 0.984 . S
N2490 H2497 0.984 . S
N2491 C2484 1.356 . S
N2491 H2494 0.984 . S
N2491 H2495 0.985 . S
H2492 N2487 0.984 . S
H2493 N2487 0.985 . S
H2494 N2491 0.984 . S
H2495 N2491 0.985 . S
H2496 N2490 0.984 . S
H2497 N2490 0.984 . S
H2498 N2486 0.984 . S
H2499 N2486 0.985 . S
C2500 C2501 1.363 . S
C2500 C2506 1.379 . S
C2500 N2508 1.356 . S
C2501 C2500 1.363 . S
C2501 C2507 1.363 . S
C2502 C2503 1.363 . S
C2502 C2507 1.379 . S
C2502 N2509 1.356 . S
C2503 C2502 1.363 . S
C2503 C2506 1.363 . S
N2504 C2506 1.356 1_455 S
N2504 H2516 0.984 . S
N2504 H2517 0.985 . S
N2505 C2507 1.356 . S
N2505 H2510 0.984 . S
N2505 H2511 0.985 . S
C2506 C2500 1.379 . S
C2506 C2503 1.363 . S
C2506 N2504 1.356 1_655 S
C2507 C2501 1.363 . S
C2507 C2502 1.379 . S
C2507 N2505 1.356 . S
N2508 C2500 1.356 . S
N2508 H2514 0.984 . S
N2508 H2515 0.984 . S
N2509 C2502 1.356 . S
N2509 H2512 0.984 . S
N2509 H2513 0.985 . S
H2510 N2505 0.984 . S
H2511 N2505 0.985 . S
H2512 N2509 0.984 . S
H2513 N2509 0.985 . S
H2514 N2508 0.984 . S
H2515 N2508 0.984 . S
H2516 N2504 0.984 . S
H2517 N2504 0.985 . S
C2518 C2519 1.363 . S
C2518 C2524 1.379 . S
C2518 N2526 1.356 . S
C2519 C2518 1.363 . S
C2519 C2525 1.363 . S
C2520 C2521 1.363 . S
C2520 C2525 1.379 . S
C2520 N2527 1.356 . S
C2521 C2520 1.363 . S
C2521 C2524 1.363 . S
N2522 C2524 1.356 . S
N2522 H2534 0.984 . S
N2522 H2535 0.985 . S
N2523 C2525 1.356 . S
N2523 H2528 0.984 . S
N2523 H2529 0.985 . S
C2524 C2518 1.379 . S
C2524 C2521 1.363 . S
C2524 N2522 1.356 . S
C2525 C2519 1.363 . S
C2525 C2520 1.379 . S
C2525 N2523 1.356 . S
N2526 C2518 1.356 . S
N2526 H2532 0.984 . S
N2526 H2533 0.984 . S
N2527 C2520 1.356 . S
N2527 H2530 0.984 . S
N2527 H2531 0.985 . S
H2528 N2523 0.984 . S
H2529 N2523 0.985 . S
H2530 N2527 0.984 . S
H2531 N2527 0.985 . S
H2532 N2526 0.984 . S
H2533 N2526 0.984 . S
H2534 N2522 0.984 . S
H2535 N2522 0.985 . S
C2536 C2537 1.363 . S
C2536 C2542 1.379 . S
C2536 N2544 1.356 . S
C2537 C2536 1.363 . S
C2537 C2543 1.363 . S
C2538 C2539 1.363 . S
C2538 C2543 1.379 . S
C2538 N2545 1.356 . S
C2539 C2538 1.363 . S
C2539 C2542 1.363 . S
N2540 C2542 1.356 . S
N2540 H2552 0.984 . S
N2540 H2553 0.985 . S
N2541 C2543 1.356 . S
N2541 H2546 0.984 . S
N2541 H2547 0.985 . S
C2542 C2536 1.379 . S
C2542 C2539 1.363 . S
C2542 N2540 1.356 . S
C2543 C2537 1.363 . S
C2543 C2538 1.379 . S
C2543 N2541 1.356 . S
N2544 C2536 1.356 . S
N2544 H2550 0.984 . S
N2544 H2551 0.984 . S
N2545 C2538 1.356 . S
N2545 H2548 0.984 . S
N2545 H2549 0.985 . S
H2546 N2541 0.984 . S
H2547 N2541 0.985 . S
H2548 N2545 0.984 . S
H2549 N2545 0.985 . S
H2550 N2544 0.984 . S
H2551 N2544 0.984 . S
H2552 N2540 0.984 . S
H2553 N2540 0.985 . S
C2554 C2555 1.363 . S
C2554 C2560 1.380 . S
C2554 N2562 1.356 . S
C2555 C2554 1.363 . S
C2555 C2561 1.363 . S
C2556 C2557 1.363 . S
C2556 C2561 1.379 . S
C2556 N2563 1.356 . S
C2557 C2556 1.363 . S
C2557 C2560 1.364 . S
N2558 C2560 1.354 1_545 S
N2558 H2570 0.984 . S
N2558 H2571 0.985 . S
N2559 C2561 1.356 . S
N2559 H2564 0.984 . S
N2559 H2565 0.985 . S
C2560 C2554 1.380 . S
C2560 C2557 1.364 . S
C2560 N2558 1.354 1_565 S
C2561 C2555 1.363 . S
C2561 C2556 1.379 . S
C2561 N2559 1.356 . S
N2562 C2554 1.356 . S
N2562 H2568 0.988 . S
N2562 H2569 0.984 . S
N2563 C2556 1.356 . S
N2563 H2566 0.984 . S
N2563 H2567 0.985 . S
H2564 N2559 0.984 . S
H2565 N2559 0.985 . S
H2566 N2563 0.984 . S
H2567 N2563 0.985 . S
H2568 N2562 0.988 . S
H2569 N2562 0.984 . S
H2570 N2558 0.984 . S
H2571 N2558 0.985 . S
C2572 C2573 1.363 . S
C2572 C2578 1.379 . S
C2572 N2580 1.356 . S
C2573 C2572 1.363 . S
C2573 C2579 1.363 . S
C2574 C2575 1.363 . S
C2574 C2579 1.379 . S
C2574 N2581 1.356 . S
C2575 C2574 1.363 . S
C2575 C2578 1.363 . S
N2576 C2578 1.356 . S
N2576 H2588 0.984 . S
N2576 H2589 0.985 . S
N2577 C2579 1.356 . S
N2577 H2582 0.984 . S
N2577 H2583 0.985 . S
C2578 C2572 1.379 . S
C2578 C2575 1.363 . S
C2578 N2576 1.356 . S
C2579 C2573 1.363 . S
C2579 C2574 1.379 . S
C2579 N2577 1.356 . S
N2580 C2572 1.356 . S
N2580 H2586 0.984 . S
N2580 H2587 0.984 . S
N2581 C2574 1.356 . S
N2581 H2584 0.984 . S
N2581 H2585 0.985 . S
H2582 N2577 0.984 . S
H2583 N2577 0.985 . S
H2584 N2581 0.984 . S
H2585 N2581 0.985 . S
H2586 N2580 0.984 . S
H2587 N2580 0.984 . S
H2588 N2576 0.984 . S
H2589 N2576 0.985 . S
C2590 C2591 1.363 . S
C2590 C2596 1.379 . S
C2590 N2598 1.356 . S
C2591 C2590 1.363 . S
C2591 C2597 1.363 . S
C2592 C2593 1.363 . S
C2592 C2597 1.379 . S
C2592 N2599 1.356 . S
C2593 C2592 1.363 . S
C2593 C2596 1.363 . S
N2594 C2596 1.356 . S
N2594 H2606 0.984 . S
N2594 H2607 0.985 . S
N2595 C2597 1.356 . S
N2595 H2600 0.984 . S
N2595 H2601 0.985 . S
C2596 C2590 1.379 . S
C2596 C2593 1.363 . S
C2596 N2594 1.356 . S
C2597 C2591 1.363 . S
C2597 C2592 1.379 . S
C2597 N2595 1.356 . S
N2598 C2590 1.356 . S
N2598 H2604 0.984 . S
N2598 H2605 0.984 . S
N2599 C2592 1.356 . S
N2599 H2602 0.984 . S
N2599 H2603 0.985 . S
H2600 N2595 0.984 . S
H2601 N2595 0.985 . S
H2602 N2599 0.984 . S
H2603 N2599 0.985 . S
H2604 N2598 0.984 . S
H2605 N2598 0.984 . S
H2606 N2594 0.984 . S
H2607 N2594 0.985 . S
C2608 C2609 1.363 . S
C2608 C2614 1.379 . S
C2608 N2616 1.356 . S
C2609 C2608 1.363 . S
C2609 C2615 1.363 . S
C2610 C2611 1.363 . S
C2610 C2615 1.379 . S
C2610 N2617 1.356 . S
C2611 C2610 1.363 . S
C2611 C2614 1.363 . S
N2612 C2614 1.356 . S
N2612 H2624 0.984 . S
N2612 H2625 0.985 . S
N2613 C2615 1.356 . S
N2613 H2618 0.984 . S
N2613 H2619 0.985 . S
C2614 C2608 1.379 . S
C2614 C2611 1.363 . S
C2614 N2612 1.356 . S
C2615 C2609 1.363 . S
C2615 C2610 1.379 . S
C2615 N2613 1.356 . S
N2616 C2608 1.356 . S
N2616 H2622 0.984 . S
N2616 H2623 0.984 . S
N2617 C2610 1.356 . S
N2617 H2620 0.984 . S
N2617 H2621 0.985 . S
H2618 N2613 0.984 . S
H2619 N2613 0.985 . S
H2620 N2617 0.984 . S
H2621 N2617 0.985 . S
H2622 N2616 0.984 . S
H2623 N2616 0.984 . S
H2624 N2612 0.984 . S
H2625 N2612 0.985 . S
C2626 C2627 1.363 . S
C2626 C2632 1.379 . S
C2626 N2634 1.356 . S
C2627 C2626 1.363 . S
C2627 C2633 1.363 . S
C2628 C2629 1.363 . S
C2628 C2633 1.379 . S
C2628 N2635 1.356 . S
C2629 C2628 1.363 . S
C2629 C2632 1.363 . S
N2630 C2632 1.337 1_556 S
N2630 H2642 1.003 . S
N2630 H2643 0.985 . S
N2631 C2633 1.356 . S
N2631 H2636 0.984 . S
N2631 H2637 0.985 . S
C2632 C2626 1.379 . S
C2632 C2629 1.363 . S
C2632 N2630 1.337 1_554 S
C2633 C2627 1.363 . S
C2633 C2628 1.379 . S
C2633 N2631 1.356 . S
N2634 C2626 1.356 . S
N2634 H2640 0.984 . S
N2634 H2641 0.984 . S
N2635 C2628 1.356 . S
N2635 H2638 0.984 . S
N2635 H2639 0.985 . S
H2636 N2631 0.984 . S
H2637 N2631 0.985 . S
H2638 N2635 0.984 . S
H2639 N2635 0.985 . S
H2640 N2634 0.984 . S
H2641 N2634 0.984 . S
H2642 N2630 1.003 . S
H2643 N2630 0.985 . S
C2644 C2645 1.363 . S
C2644 C2650 1.379 . S
C2644 N2652 1.356 . S
C2645 C2644 1.363 . S
C2645 C2651 1.363 . S
C2646 C2647 1.363 . S
C2646 C2651 1.379 . S
C2646 N2653 1.356 . S
C2647 C2646 1.363 . S
C2647 C2650 1.363 . S
N2648 C2650 1.356 . S
N2648 H2660 0.984 . S
N2648 H2661 0.985 . S
N2649 C2651 1.356 . S
N2649 H2654 0.984 . S
N2649 H2655 0.985 . S
C2650 C2644 1.379 . S
C2650 C2647 1.363 . S
C2650 N2648 1.356 . S
C2651 C2645 1.363 . S
C2651 C2646 1.379 . S
C2651 N2649 1.356 . S
N2652 C2644 1.356 . S
N2652 H2658 0.984 . S
N2652 H2659 0.984 . S
N2653 C2646 1.356 . S
N2653 H2656 0.984 . S
N2653 H2657 0.985 . S
H2654 N2649 0.984 . S
H2655 N2649 0.985 . S
H2656 N2653 0.984 . S
H2657 N2653 0.985 . S
H2658 N2652 0.984 . S
H2659 N2652 0.984 . S
H2660 N2648 0.984 . S
H2661 N2648 0.985 . S
C2662 C2663 1.363 . S
C2662 C2668 1.379 . S
C2662 N2670 1.356 . S
C2663 C2662 1.363 . S
C2663 C2669 1.363 . S
C2664 C2665 1.363 . S
C2664 C2669 1.379 . S
C2664 N2671 1.356 . S
C2665 C2664 1.363 . S
C2665 C2668 1.363 . S
N2666 C2668 1.356 . S
N2666 H2678 0.984 . S
N2666 H2679 0.985 . S
N2667 C2669 1.356 . S
N2667 H2672 0.984 . S
N2667 H2673 0.985 . S
C2668 C2662 1.379 . S
C2668 C2665 1.363 . S
C2668 N2666 1.356 . S
C2669 C2663 1.363 . S
C2669 C2664 1.379 . S
C2669 N2667 1.356 . S
N2670 C2662 1.356 . S
N2670 H2676 0.984 . S
N2670 H2677 0.984 . S
N2671 C2664 1.356 . S
N2671 H2674 0.984 . S
N2671 H2675 0.985 . S
H2672 N2667 0.984 . S
H2673 N2667 0.985 . S
H2674 N2671 0.984 . S
H2675 N2671 0.985 . S
H2676 N2670 0.984 . S
H2677 N2670 0.984 . S
H2678 N2666 0.984 . S
H2679 N2666 0.985 . S
C953 C101 2.412 . S
C955 C322 2.345 . S
C971 C57 2.002 . S
C973 C370 2.049 . S
C989 C73 1.539 . S
C991 C402 1.645 . S
C1009 C447 1.664 . S
C1007 C78 1.614 . S
C1025 C21 1.011 . S
C1027 C487 1.027 . S
C1045 C522 1.350 . S
C1043 C31 1.194 . S
C1063 C561 1.234 . S
C1061 C49 1.215 . S
C1079 C0 1.195 . S
C1081 C598 1.276 . S
C1099 C330 2.169 . S
C1097 C218 2.141 1_545 S
C1115 C229 0.813 . S
C1117 C367 0.918 . S
C1135 C410 2.320 . S
C1133 C257 2.340 . S
C1153 C442 1.271 . S
C1151 C164 1.196 . S
C1169 C216 1.440 . S
C1171 C482 1.491 . S
C1189 C530 0.737 . S
C1187 C231 0.739 . S
C1207 C571 2.141 . S
C1205 C255 2.183 . S
C1225 C601 2.065 . S
C1223 C166 2.067 . S
C1243 C327 1.941 . S
C1241 C143 1.833 . S
C1259 C265 2.095 . S
C1261 C650 2.131 . S
C1279 C687 1.200 . S
C1277 C299 1.148 . S
C1297 C718 1.018 . S
C1295 C291 1.103 . S
C1313 C104 2.658 . S
C1315 C611 2.637 . S
C1331 C117 1.378 . S
C1333 C407 1.437 . S
C1349 C304 1.664 . S
C1351 C770 1.708 . S
C1369 C802 1.916 . S
C1367 C278 1.873 . S
C1387 C331 2.353 . S
C1385 C60 2.467 . S
C1405 C801 1.955 . S
C1403 C96 1.961 . S
C1421 C88 1.556 . S
C1423 C411 1.557 . S
C1439 C65 1.751 . S
C1441 C758 1.627 . S
C1459 C478 0.967 . S
C1457 C10 0.980 . S
C1475 C44 1.097 . S
C1477 C691 1.211 . S
C1495 C570 1.256 . S
C1493 C34 1.245 . S
C1513 C847 1.248 . S
C1511 C13 1.283 . S
C1531 C321 2.148 1_556 S
C1529 C138 2.168 . S
C1549 C798 0.884 . S
C1547 C296 0.914 . S
C1565 C112 2.194 . S
C1567 C401 2.274 . S
C1583 C270 1.174 . S
C1585 C771 1.170 . S
C1601 C140 1.419 . S
C1603 C491 1.403 . S
C1621 C681 0.730 . S
C1619 C294 0.817 . S
C1637 C114 2.149 . S
C1639 C562 2.073 . S
C1655 C268 2.066 1_556 S
C1657 C850 2.067 . S
C1673 C169 2.268 . S
C1675 C318 2.023 . S
C1691 C161 2.063 . S
C1693 C641 2.055 . S
C1709 C234 1.270 . S
C1711 C518 1.216 . S
C1727 C226 1.193 . S
C1729 C727 1.068 . S
C1747 C842 2.597 . S
C1745 C247 2.604 . S
C1763 C195 1.443 . S
C1765 C398 1.394 . S
C1783 C441 1.669 . S
C1781 C239 1.682 . S
C1801 C371 1.847 . S
C1799 C187 1.763 . S
C1817 C75 2.412 . S
C1819 C882 2.345 . S
C1837 C810 2.049 . S
C1835 C83 2.002 . S
C1853 C99 1.539 . S
C1855 C922 1.645 . S
C1871 C52 1.614 1_655 S
C1873 C767 1.664 . S
C1889 C47 1.011 . S
C1891 C647 1.027 . S
C1909 C682 1.350 . S
C1907 C5 1.194 . S
C1927 C721 1.235 . S
C1925 C23 1.215 . S
C1945 C838 1.276 . S
C1943 C26 1.195 . S
C1963 C890 2.169 . S
C1961 C244 2.141 . S
C1979 C177 0.813 . S
C1981 C807 0.918 . S
C1999 C930 2.319 . S
C1997 C192 2.340 . S
C2017 C762 1.271 . S
C2015 C203 1.196 . S
C2035 C642 1.491 1_556 S
C2033 C242 1.440 . S
C2051 C179 0.739 . S
C2053 C690 0.737 . S
C2071 C731 2.141 . S
C2069 C190 2.183 . S
C2087 C205 2.067 . S
C2089 C841 2.066 . S
C2107 C887 1.941 . S
C2105 C286 1.832 . S
C2123 C122 2.095 . S
C2125 C490 2.131 . S
C2143 C527 1.200 . S
C2141 C130 1.148 . S
C2161 C558 1.018 . S
C2159 C148 1.102 . S
C2179 C851 2.638 . S
C2177 C273 2.658 . S
C2195 C260 1.378 . S
C2197 C927 1.437 . S
C2215 C450 1.708 . S
C2213 C135 1.664 . S
C2233 C362 1.916 . S
C2231 C109 1.873 . S
C2249 C86 2.467 . S
C2251 C891 2.353 . S
C2269 C361 1.955 . S
C2267 C70 1.961 . S
C2285 C62 1.556 . S
C2287 C931 1.557 . S
C2303 C91 1.751 . S
C2305 C438 1.627 . S
C2321 C36 0.980 . S
C2323 C638 0.967 . S
C2341 C531 1.211 . S
C2339 C18 1.097 . S
C2357 C8 1.245 . S
C2359 C730 1.256 . S
C2375 C39 1.283 . S
C2377 C607 1.248 . S
C2395 C881 2.148 . S
C2393 C307 2.168 . S
C2411 C153 0.914 . S
C2413 C358 0.884 . S
C2431 C921 2.277 1_556 S
C2429 C281 2.194 . S
C2447 C127 1.174 . S
C2449 C451 1.170 . S
C2465 C309 1.419 . S
C2467 C651 1.403 . S
C2485 C521 0.730 . S
C2483 C151 0.817 . S
C2501 C283 2.149 . S
C2503 C722 2.073 1_655 S
C2521 C610 2.067 . S
C2519 C125 2.066 . S
C2539 C878 2.023 . S
C2537 C221 2.269 . S
C2557 C481 2.055 1_565 S
C2555 C200 2.063 . S
C2573 C208 1.270 . S
C2575 C678 1.216 . S
C2593 C567 1.068 . S
C2591 C174 1.193 . S
C2609 C182 2.604 . S
C2611 C602 2.597 . S
C2627 C156 1.443 . S
C2629 C918 1.394 . S
C2647 C761 1.669 . S
C2645 C213 1.683 . S
C2665 C811 1.847 . S
C2663 C252 1.763 . S
