# Generated by pormake.
# Topology soc, (4,6)-cn, num edge types: 1
# Building blocks:
#     Node 0, Type 0, BuildingBlock: ESEHIV_clean_sbu_0, # of connection points: 4
#     Node 1, Type 0, BuildingBlock: ESEHIV_clean_sbu_0, # of connection points: 4
#     Node 2, Type 0, BuildingBlock: ESEHIV_clean_sbu_0, # of connection points: 4
#     Node 3, Type 0, BuildingBlock: ESEHIV_clean_sbu_0, # of connection points: 4
#     Node 4, Type 0, BuildingBlock: ESEHIV_clean_sbu_0, # of connection points: 4
#     Node 5, Type 0, BuildingBlock: ESEHIV_clean_sbu_0, # of connection points: 4
#     Node 6, Type 0, BuildingBlock: ESEHIV_clean_sbu_0, # of connection points: 4
#     Node 7, Type 0, BuildingBlock: ESEHIV_clean_sbu_0, # of connection points: 4
#     Node 8, Type 0, BuildingBlock: ESEHIV_clean_sbu_0, # of connection points: 4
#     Node 9, Type 0, BuildingBlock: ESEHIV_clean_sbu_0, # of connection points: 4
#     Node 10, Type 0, BuildingBlock: ESEHIV_clean_sbu_0, # of connection points: 4
#     Node 11, Type 0, BuildingBlock: ESEHIV_clean_sbu_0, # of connection points: 4
#     Node 12, Type 1, BuildingBlock: GEDQOX_clean_sbu_0, # of connection points: 6
#     Node 13, Type 1, BuildingBlock: GEDQOX_clean_sbu_0, # of connection points: 6
#     Node 14, Type 1, BuildingBlock: GEDQOX_clean_sbu_0, # of connection points: 6
#     Node 15, Type 1, BuildingBlock: GEDQOX_clean_sbu_0, # of connection points: 6
#     Node 16, Type 1, BuildingBlock: GEDQOX_clean_sbu_0, # of connection points: 6
#     Node 17, Type 1, BuildingBlock: GEDQOX_clean_sbu_0, # of connection points: 6
#     Node 18, Type 1, BuildingBlock: GEDQOX_clean_sbu_0, # of connection points: 6
#     Node 19, Type 1, BuildingBlock: GEDQOX_clean_sbu_0, # of connection points: 6
#     Edge 20, Type (0, 1), BuildingBlock: EZIPEK_clean_linker_0, # of connection points: 2
#     Edge 21, Type (0, 1), BuildingBlock: EZIPEK_clean_linker_0, # of connection points: 2
#     Edge 22, Type (0, 1), BuildingBlock: EZIPEK_clean_linker_0, # of connection points: 2
#     Edge 23, Type (0, 1), BuildingBlock: EZIPEK_clean_linker_0, # of connection points: 2
#     Edge 24, Type (0, 1), BuildingBlock: EZIPEK_clean_linker_0, # of connection points: 2
#     Edge 25, Type (0, 1), BuildingBlock: EZIPEK_clean_linker_0, # of connection points: 2
#     Edge 26, Type (0, 1), BuildingBlock: EZIPEK_clean_linker_0, # of connection points: 2
#     Edge 27, Type (0, 1), BuildingBlock: EZIPEK_clean_linker_0, # of connection points: 2
#     Edge 28, Type (0, 1), BuildingBlock: EZIPEK_clean_linker_0, # of connection points: 2
#     Edge 29, Type (0, 1), BuildingBlock: EZIPEK_clean_linker_0, # of connection points: 2
#     Edge 30, Type (0, 1), BuildingBlock: EZIPEK_clean_linker_0, # of connection points: 2
#     Edge 31, Type (0, 1), BuildingBlock: EZIPEK_clean_linker_0, # of connection points: 2
#     Edge 32, Type (0, 1), BuildingBlock: EZIPEK_clean_linker_0, # of connection points: 2
#     Edge 33, Type (0, 1), BuildingBlock: EZIPEK_clean_linker_0, # of connection points: 2
#     Edge 34, Type (0, 1), BuildingBlock: EZIPEK_clean_linker_0, # of connection points: 2
#     Edge 35, Type (0, 1), BuildingBlock: EZIPEK_clean_linker_0, # of connection points: 2
#     Edge 36, Type (0, 1), BuildingBlock: EZIPEK_clean_linker_0, # of connection points: 2
#     Edge 37, Type (0, 1), BuildingBlock: EZIPEK_clean_linker_0, # of connection points: 2
#     Edge 38, Type (0, 1), BuildingBlock: EZIPEK_clean_linker_0, # of connection points: 2
#     Edge 39, Type (0, 1), BuildingBlock: EZIPEK_clean_linker_0, # of connection points: 2
#     Edge 40, Type (0, 1), BuildingBlock: EZIPEK_clean_linker_0, # of connection points: 2
#     Edge 41, Type (0, 1), BuildingBlock: EZIPEK_clean_linker_0, # of connection points: 2
#     Edge 42, Type (0, 1), BuildingBlock: EZIPEK_clean_linker_0, # of connection points: 2
#     Edge 43, Type (0, 1), BuildingBlock: EZIPEK_clean_linker_0, # of connection points: 2
#     Edge 44, Type (0, 1), BuildingBlock: EZIPEK_clean_linker_0, # of connection points: 2
#     Edge 45, Type (0, 1), BuildingBlock: EZIPEK_clean_linker_0, # of connection points: 2
#     Edge 46, Type (0, 1), BuildingBlock: EZIPEK_clean_linker_0, # of connection points: 2
#     Edge 47, Type (0, 1), BuildingBlock: EZIPEK_clean_linker_0, # of connection points: 2
#     Edge 48, Type (0, 1), BuildingBlock: EZIPEK_clean_linker_0, # of connection points: 2
#     Edge 49, Type (0, 1), BuildingBlock: EZIPEK_clean_linker_0, # of connection points: 2
#     Edge 50, Type (0, 1), BuildingBlock: EZIPEK_clean_linker_0, # of connection points: 2
#     Edge 51, Type (0, 1), BuildingBlock: EZIPEK_clean_linker_0, # of connection points: 2
#     Edge 52, Type (0, 1), BuildingBlock: EZIPEK_clean_linker_0, # of connection points: 2
#     Edge 53, Type (0, 1), BuildingBlock: EZIPEK_clean_linker_0, # of connection points: 2
#     Edge 54, Type (0, 1), BuildingBlock: EZIPEK_clean_linker_0, # of connection points: 2
#     Edge 55, Type (0, 1), BuildingBlock: EZIPEK_clean_linker_0, # of connection points: 2
#     Edge 56, Type (0, 1), BuildingBlock: EZIPEK_clean_linker_0, # of connection points: 2
#     Edge 57, Type (0, 1), BuildingBlock: EZIPEK_clean_linker_0, # of connection points: 2
#     Edge 58, Type (0, 1), BuildingBlock: EZIPEK_clean_linker_0, # of connection points: 2
#     Edge 59, Type (0, 1), BuildingBlock: EZIPEK_clean_linker_0, # of connection points: 2
#     Edge 60, Type (0, 1), BuildingBlock: EZIPEK_clean_linker_0, # of connection points: 2
#     Edge 61, Type (0, 1), BuildingBlock: EZIPEK_clean_linker_0, # of connection points: 2
#     Edge 62, Type (0, 1), BuildingBlock: EZIPEK_clean_linker_0, # of connection points: 2
#     Edge 63, Type (0, 1), BuildingBlock: EZIPEK_clean_linker_0, # of connection points: 2
#     Edge 64, Type (0, 1), BuildingBlock: EZIPEK_clean_linker_0, # of connection points: 2
#     Edge 65, Type (0, 1), BuildingBlock: EZIPEK_clean_linker_0, # of connection points: 2
#     Edge 66, Type (0, 1), BuildingBlock: EZIPEK_clean_linker_0, # of connection points: 2
#     Edge 67, Type (0, 1), BuildingBlock: EZIPEK_clean_linker_0, # of connection points: 2
# Relax obj value: 0.270
# Max RMSD: 0.275
# Mean RMSD: 0.195
data_MOF--net-soc--node1-ESEHIV_clean_sbu_0--node2-GEDQOX_clean_sbu_0--edge1-EZIPEK_clean_linker_0
_symmetry_space_group_name_H-M    P1
_symmetry_Int_Tables_number       1
_symmetry_cell_setting            triclinic
loop_
_symmetry_equiv_pos_as_xyz
'x, y, z'
_cell_length_a     33.845723
_cell_length_b     36.181939
_cell_length_c     41.401251
_cell_angle_alpha  96.269704
_cell_angle_beta   107.82274
_cell_angle_gamma 84.138188
loop_
_atom_site_label
_atom_site_type_symbol
_atom_site_fract_x
_atom_site_fract_y
_atom_site_fract_z
_atom_type_partial_charge
Cu0 Cu 0.06642 0.12888 0.33408 0.0
N1 N 0.08976 0.16355 0.31231 0.0
N2 N 0.12671 0.21217 0.30813 0.0
C3 C 0.12393 0.18406 0.32701 0.0
C4 C 0.09273 0.209 0.28063 0.0
C5 C 0.07044 0.17981 0.28327 0.0
O6 O 0.11622 0.08779 0.35007 0.0
C7 C 0.99768 0.18683 0.33776 0.0
O8 O 0.98345 0.17301 0.30604 0.0
H9 H 0.14563 0.17934 0.35178 0.0
H10 H 0.04082 0.17229 0.26586 0.0
N11 N 1.02428 0.09348 0.31063 0.0
N12 N 0.98303 0.04468 0.3049 0.0
C13 C 1.00055 0.07529 0.32479 0.0
C14 C 1.02135 0.07338 0.28077 0.0
C15 C 0.99653 0.044 0.27725 0.0
C16 C 0.13427 0.07032 0.3282 0.0
O17 O 0.1243 0.08366 0.29825 0.0
H18 H 0.9977 0.08338 0.34998 0.0
H19 H 1.03824 0.07826 0.26347 0.0
O20 O 1.03194 0.17014 0.35664 0.0
H21 H 0.08397 0.22723 0.26012 0.0
H22 H 0.98974 1.02293 0.25603 0.0
Cu23 Cu 0.03984 0.11189 0.80502 0.0
N24 N 0.997 0.07701 0.78174 0.0
N25 N 0.95302 0.03088 0.77809 0.0
C26 C 0.96878 0.06371 0.79475 0.0
C27 C 0.97211 1.02382 0.75352 0.0
C28 C 0.99836 0.05168 0.75566 0.0
O29 O 1.00627 0.15645 0.82491 0.0
C30 C 0.10806 0.05243 0.8054 0.0
O31 O 0.09886 0.06233 0.77421 0.0
H32 H 0.96184 0.07667 0.81742 0.0
H33 H 1.01928 0.05185 0.74051 0.0
N34 N 0.06825 0.14117 0.78304 0.0
N35 N 0.11335 0.18263 0.77921 0.0
C36 C 0.10252 0.16064 0.79957 0.0
C37 C 0.05714 0.15157 0.75101 0.0
C38 C 0.08454 0.17666 0.74862 0.0
C39 C 0.97724 0.17689 0.80418 0.0
O40 O 0.96916 0.16695 0.77147 0.0
H41 H 0.11862 0.15951 0.82645 0.0
H42 H 1.03016 0.14252 0.73091 0.0
O43 O 0.08851 0.07176 0.82536 0.0
H44 H 0.96835 0.99929 0.73567 0.0
H45 H 0.08283 0.19015 0.7261 0.0
Cu46 Cu 0.25881 0.06457 0.01287 0.0
N47 N 0.29949 0.04411 0.99279 0.0
N48 N 0.32972 0.98857 0.98061 0.0
C49 C 0.29389 1.01051 0.9755 0.0
C50 C 0.3597 1.01198 0.99716 0.0
C51 C 0.34089 0.04589 0.0054 0.0
O52 O 0.22641 1.02392 0.01782 0.0
C53 C 0.22279 0.12614 0.96737 0.0
O54 O 0.18847 0.14326 0.94909 0.0
H55 H 0.26319 1.00076 0.96394 0.0
H56 H 0.35607 0.06801 0.02318 0.0
N57 N 0.2786 0.08794 0.05638 0.0
N58 N 0.29792 0.13094 0.09975 0.0
C59 C 0.2952 0.12104 0.06678 0.0
C60 C 0.26982 0.07747 0.08349 0.0
C61 C 0.28294 0.10309 0.11047 0.0
C62 C 0.22143 0.99497 0.03131 0.0
O63 O 0.18336 0.98417 0.02143 0.0
H64 H 0.30251 0.13852 0.05018 0.0
H65 H 0.25121 0.05485 0.08292 0.0
O66 O 0.21954 0.09869 0.98315 0.0
H67 H 0.3928 1.00522 0.0051 0.0
H68 H 0.27758 0.10346 0.13499 0.0
Cu69 Cu 0.11051 0.41596 0.04824 0.0
N70 N 0.15296 0.40693 0.02405 0.0
N71 N 0.19029 0.39873 0.98547 0.0
C72 C 0.15845 0.38702 0.99519 0.0
C73 C 0.20497 0.42672 0.00899 0.0
C74 C 0.18252 0.43154 0.03202 0.0
O75 O 0.13909 0.43575 0.09769 0.0
C76 C 0.04311 0.41835 0.98798 0.0
O77 O 0.06513 0.38758 0.98263 0.0
H78 H 0.1388 0.36543 0.98081 0.0
H79 H 0.18617 0.45331 0.05261 0.0
N80 N 0.08224 0.38088 0.06174 0.0
N81 N 0.04064 0.36972 0.09263 0.0
C82 C 0.05327 0.3952 0.07716 0.0
C83 C 0.08794 0.34451 0.06741 0.0
C84 C 0.06234 0.33761 0.08653 0.0
C85 C 0.17225 0.41778 0.11585 0.0
O86 O 0.19174 0.39258 0.09973 0.0
H87 H 0.04386 0.42467 0.07914 0.0
H88 H 0.11126 0.32515 0.06069 0.0
O89 O 0.05863 0.43935 0.01542 0.0
H90 H 0.22976 0.44341 0.00896 0.0
H91 H 0.06158 0.31155 0.09682 0.0
Cu92 Cu 0.77216 0.12169 0.14054 0.0
N93 N 0.74904 0.1548 0.10617 0.0
N94 N 0.74923 0.19692 0.07045 0.0
C95 C 0.77242 0.17446 0.09402 0.0
C96 C 0.70936 0.19145 0.06728 0.0
C97 C 0.7093 0.1655 0.08958 0.0
O98 O 0.78407 0.15327 0.18331 0.0
C99 C 0.82809 0.09425 0.10231 0.0
O100 O 0.85644 0.11764 0.10529 0.0
H101 H 0.80598 0.17308 0.10274 0.0
H102 H 0.68231 0.15517 0.09338 0.0
N103 N 0.73839 0.08685 0.14733 0.0
N104 N 0.73072 0.03788 0.17348 0.0
C105 C 0.75389 0.05251 0.15731 0.0
C106 C 0.7042 0.09414 0.15777 0.0
C107 C 0.69936 0.06399 0.17382 0.0
C108 C 0.78995 0.18786 0.18588 0.0
O109 O 0.7988 0.20226 0.16147 0.0
H110 H 0.78414 0.04036 0.15639 0.0
H111 H 0.6869 0.12102 0.15736 0.0
O112 O 0.81709 0.09 0.12845 0.0
H113 H 0.68241 0.20518 0.05012 0.0
H114 H 0.67683 0.06273 0.18735 0.0
Cu115 Cu 0.05532 0.78951 0.04781 0.0
N116 N 1.0179 0.76285 0.01259 0.0
N117 N 0.96773 0.76411 0.96266 0.0
C118 C 0.9873 0.7835 0.99169 0.0
C119 C 0.98653 0.72928 0.96515 0.0
C120 C 1.01787 0.7286 0.99613 0.0
O121 O 1.01613 0.82001 0.06584 0.0
C122 C 0.11026 0.83641 0.02883 0.0
O123 O 0.12327 0.85433 0.05904 0.0
H124 H 0.9822 0.81339 0.99628 0.0
H125 H 0.04096 0.70591 0.00448 0.0
N126 N 0.09215 0.76586 0.0849 0.0
N127 N 0.13892 0.77514 0.13669 0.0
C128 C 0.12969 0.77844 0.10279 0.0
C129 C 0.07841 0.75218 0.10812 0.0
C130 C 0.10688 0.75792 0.13982 0.0
C131 C 1.01668 0.84978 0.085 0.0
O132 O 0.05073 0.86763 0.09549 0.0
H133 H 0.14702 0.79456 0.09205 0.0
H134 H 0.04708 0.74411 0.10329 0.0
O135 O 0.08388 0.81222 0.02262 0.0
H136 H 0.98036 0.70698 0.945 0.0
H137 H 0.10221 0.75342 0.16379 0.0
Cu138 Cu 0.5497 0.61319 0.83158 0.0
N139 N 0.5818 0.6559 0.83088 0.0
N140 N 0.62511 0.70021 0.82886 0.0
C141 C 0.60791 0.66709 0.8145 0.0
C142 C 0.60916 0.70994 0.85485 0.0
C143 C 0.58402 0.68308 0.85636 0.0
O144 O 0.60336 0.57619 0.84363 0.0
C145 C 0.48183 0.67548 0.82234 0.0
O146 O 0.48831 0.67468 0.79255 0.0
H147 H 0.61505 0.65122 0.79307 0.0
H148 H 0.56888 0.68309 0.87587 0.0
N149 N 0.51398 0.57018 0.82133 0.0
N150 N 0.4746 0.52378 0.82668 0.0
C151 C 0.48341 0.56074 0.83419 0.0
C152 C 0.52405 0.53759 0.80567 0.0
C153 C 0.50071 0.50983 0.80882 0.0
C154 C 0.62414 0.56514 0.82194 0.0
O155 O 0.6135 0.58178 0.79356 0.0
H156 H 0.46863 0.58024 0.84944 0.0
H157 H 0.54819 0.53362 0.79369 0.0
O158 O 0.50372 0.65116 0.84326 0.0
H159 H 0.61645 0.73442 0.87252 0.0
H160 H 0.50277 0.4811 0.79855 0.0
Cu161 Cu 0.56646 0.62687 0.31453 0.0
N162 N 0.52499 0.59109 0.31208 0.0
N163 N 0.47662 0.55149 0.31412 0.0
C164 C 0.48794 0.57528 0.29497 0.0
C165 C 0.50718 0.55261 0.3437 0.0
C166 C 0.53567 0.57627 0.34241 0.0
O167 O 0.53561 0.6731 0.33406 0.0
C168 C 0.63342 0.56648 0.30842 0.0
O169 O 0.6213 0.57675 0.2772 0.0
H170 H 0.46938 0.58145 0.26954 0.0
H171 H 0.56294 0.58308 0.36325 0.0
N172 N 0.58796 0.65607 0.28701 0.0
N173 N 0.62617 0.70076 0.27755 0.0
C174 C 0.62054 0.67859 0.30036 0.0
C175 C 0.57256 0.66465 0.25443 0.0
C176 C 0.59584 0.69153 0.24861 0.0
C177 C 0.50164 0.68852 0.31378 0.0
O178 O 0.48856 0.67316 0.28251 0.0
H179 H 0.63903 0.67964 0.32685 0.0
H180 H 0.54529 0.65329 0.23632 0.0
O181 O 0.61781 0.58697 0.3304 0.0
H182 H 0.50861 0.53741 0.3652 0.0
H183 H 0.59012 0.70407 0.22488 0.0
Cu184 Cu 0.81096 0.62175 0.48148 0.0
N185 N 0.82052 0.65651 0.45345 0.0
N186 N 0.83342 0.70252 0.42615 0.0
C187 C 0.84417 0.68563 0.4559 0.0
C188 C 0.80262 0.68332 0.40465 0.0
C189 C 0.79483 0.65554 0.42134 0.0
O190 O 0.75944 0.63789 0.49186 0.0
C191 C 0.84709 0.563 0.45271 0.0
O192 O 0.8784 0.58401 0.46641 0.0
H193 H 0.86779 0.69475 0.47885 0.0
H194 H 0.77102 0.63604 0.41092 0.0
N195 N 0.84594 0.61127 0.52501 0.0
N196 N 0.85376 0.58011 0.57113 0.0
C197 C 0.84408 0.57816 0.53684 0.0
C198 C 0.85754 0.63496 0.55311 0.0
C199 C 0.8628 0.61575 0.58153 0.0
C200 C 0.75671 0.67225 0.50209 0.0
O201 O 0.78383 0.69344 0.49803 0.0
H202 H 0.8306 0.55436 0.52051 0.0
H203 H 0.8572 0.66486 0.55288 0.0
O204 O 0.81117 0.57432 0.45525 0.0
H205 H 0.78654 0.68935 0.37863 0.0
H206 H 0.86926 0.62776 0.60757 0.0
Cu207 Cu 0.54453 0.95204 0.58039 0.0
N208 N 0.57433 0.98291 0.56541 0.0
N209 N 0.60752 0.99513 0.52973 0.0
C210 C 0.5976 0.9687 0.54545 0.0
C211 C 0.58949 1.02754 0.53938 0.0
C212 C 0.56848 1.01982 0.56138 0.0
O213 O 0.58333 0.92352 0.61736 0.0
C214 C 0.47953 0.9126 0.52473 0.0
O215 O 0.46039 0.90494 0.54606 0.0
H216 H 0.60426 0.9391 0.54033 0.0
H217 H 0.54741 0.03921 0.57089 0.0
N218 N 0.50857 0.98213 0.60007 0.0
N219 N 0.45665 1.00042 0.62287 0.0
C220 C 0.47236 0.97376 0.60354 0.0
C221 C 0.51764 1.01421 0.61927 0.0
C222 C 0.4862 1.0254 0.63338 0.0
C223 C 0.62307 0.92416 0.62665 0.0
O224 O 0.64103 0.93815 0.6073 0.0
H225 H 0.46054 0.94677 0.59533 0.0
H226 H 0.54686 1.02689 0.62513 0.0
O227 O 0.51428 0.92742 0.53578 0.0
H228 H 0.58926 0.05406 0.52946 0.0
H229 H 0.48788 0.04826 0.65272 0.0
Cu230 Cu 0.30801 0.69733 0.60889 0.0
N231 N 0.27451 0.72656 0.57473 0.0
N232 N 0.28257 0.77078 0.54417 0.0
C233 C 0.28531 0.76148 0.57499 0.0
C234 C 0.26739 0.74138 0.52264 0.0
C235 C 0.26198 0.7142 0.54155 0.0
O236 O 0.35399 0.72715 0.63164 0.0
C237 C 0.35566 0.64979 0.57161 0.0
O238 O 0.38534 0.67289 0.5825 0.0
H239 H 0.30394 0.77669 0.59725 0.0
H240 H 0.25743 0.68532 0.53237 0.0
N241 N 0.28602 0.67865 0.6398 0.0
N242 N 0.27687 0.63444 0.66973 0.0
C243 C 0.28998 0.64191 0.64378 0.0
C244 C 0.27046 0.69463 0.66491 0.0
C245 C 0.26446 0.66733 0.68315 0.0
C246 C 0.35714 0.75645 0.65215 0.0
O247 O 0.39102 0.77423 0.65841 0.0
H248 H 0.30262 0.62095 0.62817 0.0
H249 H 0.26456 0.72381 0.67094 0.0
O250 O 0.32415 0.65432 0.58248 0.0
H251 H 0.26656 0.73753 0.49614 0.0
H252 H 0.25227 0.6712 0.7047 0.0
Cu253 Cu 0.49814 0.34183 0.6058 0.0
N254 N 0.52921 0.30746 0.58279 0.0
N255 N 0.56889 0.29618 0.54686 0.0
C256 C 0.5603 0.31879 0.57266 0.0
C257 C 0.54278 0.26865 0.54137 0.0
C258 C 0.51866 0.27552 0.56348 0.0
O259 O 0.54636 0.36601 0.6413 0.0
C260 C 0.43426 0.35117 0.53898 0.0
O261 O 0.4243 0.31873 0.54437 0.0
H262 H 0.57343 0.34533 0.58164 0.0
H263 H 0.49223 0.26058 0.56267 0.0
N264 N 0.46652 0.32194 0.6323 0.0
N265 N 0.43098 0.3165 0.67085 0.0
C266 C 0.44107 0.3395 0.6506 0.0
C267 C 0.47245 0.28683 0.64176 0.0
C268 C 0.45115 0.28349 0.66498 0.0
C269 C 0.57484 0.3438 0.6596 0.0
O270 O 0.56967 0.30792 0.65481 0.0
H271 H 0.43129 0.36891 0.65005 0.0
H272 H 0.49253 0.2652 0.63341 0.0
O273 O 0.46172 0.36833 0.56365 0.0
H274 H 0.539 0.24664 0.52096 0.0
H275 H 0.45112 0.25853 0.6772 0.0
Nd276 Nd 0.32642 0.3684 0.32112 0.0
Nd277 Nd 0.27552 0.41637 0.3368 0.0
C278 C 0.36765 0.31087 0.29806 0.0
C279 C 0.3582 0.29044 0.2646 0.0
C280 C 0.32772 0.30548 0.23687 0.0
C281 C 0.31568 0.28454 0.20559 0.0
C282 C 0.33342 0.24817 0.2021 0.0
C283 C 0.36402 0.2333 0.2298 0.0
C284 C 0.37639 0.2544 0.26095 0.0
C285 C 0.35553 0.38411 0.393 0.0
C286 C 0.24093 0.3332 0.3223 0.0
C287 C 0.24442 0.47414 0.36893 0.0
C288 C 0.26459 0.49951 0.39829 0.0
C289 C 0.308 0.50146 0.40858 0.0
C290 C 0.32752 0.52457 0.43704 0.0
C291 C 0.30387 0.54609 0.45561 0.0
C292 C 0.26051 0.54401 0.44562 0.0
C293 C 0.24096 0.5208 0.41708 0.0
C294 C 0.243 0.40479 0.26575 0.0
C295 C 0.35537 0.44697 0.31911 0.0
O296 O 0.377 0.34515 0.29947 0.0
O297 O 0.34121 0.30762 0.31449 0.0
O298 O 0.37694 0.38538 0.37214 0.0
O299 O 0.31861 0.37794 0.37521 0.0
O300 O 0.27259 0.32841 0.3097 0.0
O301 O 0.23552 0.36665 0.33756 0.0
O302 O 0.24427 0.43977 0.37539 0.0
O303 O 0.25434 0.47632 0.34121 0.0
O304 O 0.22145 0.4084 0.28707 0.0
O305 O 0.28157 0.40633 0.28213 0.0
O306 O 0.33357 0.45152 0.34116 0.0
O307 O 0.3517 0.41503 0.3007 0.0
H308 H 0.31273 0.33308 0.23966 0.0
H309 H 0.29192 0.29624 0.18442 0.0
H310 H 0.37784 0.20517 0.22737 0.0
H311 H 0.39939 0.24232 0.28234 0.0
H312 H 0.32699 0.48478 0.39496 0.0
H313 H 0.36097 0.52593 0.4444 0.0
H314 H 0.24185 0.56071 0.45969 0.0
H315 H 0.20751 0.51947 0.40969 0.0
Nd316 Nd 0.79558 0.35288 0.35921 0.0
Nd317 Nd 0.82871 0.38513 0.30348 0.0
C318 C 0.7494 0.34189 0.39863 0.0
C319 C 0.7233 0.33565 0.42097 0.0
C320 C 0.67945 0.33894 0.40882 0.0
C321 C 0.65506 0.33281 0.42969 0.0
C322 C 0.67372 0.32284 0.46324 0.0
C323 C 0.7175 0.31952 0.47543 0.0
C324 C 0.7419 0.32598 0.45467 0.0
C325 C 0.87305 0.31241 0.35847 0.0
C326 C 0.85575 0.42201 0.37899 0.0
C327 C 0.87012 0.39139 0.25912 0.0
C328 C 0.8939 0.39152 0.23382 0.0
C329 C 0.90515 0.35773 0.21733 0.0
C330 C 0.92762 0.35711 0.19372 0.0
C331 C 0.93942 0.39025 0.18562 0.0
C332 C 0.92771 0.42422 0.20166 0.0
C333 C 0.90546 0.42482 0.22561 0.0
C334 C 0.75741 0.43252 0.31075 0.0
C335 C 0.77728 0.30853 0.28345 0.0
O336 O 0.73407 0.34332 0.36552 0.0
O337 O 0.78938 0.34659 0.41062 0.0
O338 O 0.85007 0.3074 0.37753 0.0
O339 O 0.85337 0.3393 0.34056 0.0
O340 O 0.82512 0.40652 0.3847 0.0
O341 O 0.87103 0.40957 0.35378 0.0
O342 O 0.846 0.36464 0.25691 0.0
O343 O 0.87211 0.41594 0.28525 0.0
O344 O 0.77771 0.43506 0.28908 0.0
O345 O 0.77403 0.403 0.3261 0.0
O346 O 0.79725 0.33312 0.2745 0.0
O347 O 0.76909 0.31171 0.3129 0.0
H348 H 0.66387 0.34639 0.38312 0.0
H349 H 0.62147 0.33565 0.41953 0.0
H350 H 0.73286 0.31195 0.50112 0.0
H351 H 0.77547 0.32307 0.46499 0.0
H352 H 0.89697 0.33151 0.22299 0.0
H353 H 0.93615 0.33056 0.1819 0.0
H354 H 0.93618 0.45026 0.1959 0.0
H355 H 0.89711 0.45135 0.23758 0.0
Nd356 Nd 0.79384 0.89279 0.32204 0.0
Nd357 Nd 0.83672 0.84465 0.28949 0.0
C358 C 0.76704 0.94081 0.36452 0.0
C359 C 0.74187 0.94474 0.38758 0.0
C360 C 0.73128 0.91368 0.39985 0.0
C361 C 0.7064 0.9189 0.4216 0.0
C362 C 0.69219 0.95512 0.43081 0.0
C363 C 0.70202 0.98585 0.41778 0.0
C364 C 0.72678 0.98066 0.39622 0.0
C365 C 0.77122 0.91117 0.25545 0.0
C366 C 0.74561 0.81703 0.29041 0.0
C367 C 0.86808 0.80156 0.24653 0.0
C368 C 0.88696 0.81105 0.22122 0.0
C369 C 0.86978 0.84129 0.20147 0.0
C370 C 0.88905 0.85166 0.17887 0.0
C371 C 0.92603 0.83237 0.17608 0.0
C372 C 0.94372 0.80256 0.19613 0.0
C373 C 0.92421 0.79194 0.21861 0.0
C374 C 0.85331 0.8243 0.35591 0.0
C375 C 0.88 0.92383 0.31428 0.0
O376 O 0.80279 0.9212 0.37364 0.0
O377 O 0.74664 0.93496 0.33238 0.0
O378 O 0.74514 0.9063 0.2716 0.0
O379 O 0.80784 0.90199 0.2734 0.0
O380 O 0.75019 0.84408 0.31534 0.0
O381 O 0.77383 0.81422 0.27375 0.0
O382 O 0.82815 0.81053 0.24045 0.0
O383 O 0.88936 0.80971 0.27818 0.0
O384 O 0.88168 0.8288 0.34187 0.0
O385 O 0.81839 0.83439 0.33624 0.0
O386 O 0.87711 0.89448 0.29197 0.0
O387 O 0.85464 0.92638 0.3335 0.0
H388 H 0.74245 0.88573 0.39284 0.0
H389 H 0.69898 0.89505 0.43177 0.0
H390 H 0.69117 1.01388 0.42488 0.0
H391 H 0.73438 1.00472 0.38643 0.0
H392 H 0.84157 0.85707 0.2036 0.0
H393 H 0.87505 0.87462 0.16342 0.0
H394 H 0.97224 0.78736 0.19406 0.0
H395 H 0.93829 0.76902 0.2341 0.0
Nd396 Nd 0.33279 0.89027 0.30348 0.0
Nd397 Nd 0.29798 0.85942 0.33544 0.0
C398 C 0.36416 0.93039 0.26878 0.0
C399 C 0.34788 0.94056 0.23337 0.0
C400 C 0.30796 0.95852 0.22108 0.0
C401 C 0.2908 0.96313 0.18637 0.0
C402 C 0.31307 0.94952 0.16353 0.0
C403 C 0.35285 0.93158 0.17567 0.0
C404 C 0.37025 0.92741 0.21039 0.0
C405 C 0.37466 0.81762 0.31277 0.0
C406 C 0.25725 0.84686 0.25591 0.0
C407 C 0.26571 0.81193 0.36191 0.0
C408 C 0.28837 0.79673 0.39394 0.0
C409 C 0.33134 0.80137 0.40613 0.0
C410 C 0.3498 0.81157 0.44045 0.0
C411 C 0.32598 0.81435 0.46296 0.0
C412 C 0.28525 0.80193 0.4512 0.0
C413 C 0.26636 0.79369 0.41675 0.0
C414 C 0.25883 0.93365 0.33252 0.0
C415 C 0.3752 0.8982 0.38497 0.0
O416 O 0.34506 0.94541 0.29058 0.0
O417 O 0.37333 0.89492 0.27148 0.0
O418 O 0.3578 0.83186 0.2838 0.0
O419 O 0.365 0.84029 0.33551 0.0
O420 O 0.27351 0.87861 0.25852 0.0
O421 O 0.27154 0.82858 0.28286 0.0
O422 O 0.28108 0.80201 0.33683 0.0
O423 O 0.25739 0.84781 0.36545 0.0
O424 O 0.27307 0.91484 0.35908 0.0
O425 O 0.26746 0.91289 0.30779 0.0
O426 O 0.35366 0.86954 0.38231 0.0
O427 O 0.36935 0.91589 0.35753 0.0
H428 H 0.28959 0.96822 0.23806 0.0
H429 H 0.26005 0.97707 0.17726 0.0
H430 H 0.37039 0.92099 0.15826 0.0
H431 H 0.40074 0.9129 0.21921 0.0
H432 H 0.34924 0.8024 0.38869 0.0
H433 H 0.38149 0.81964 0.44869 0.0
H434 H 0.26653 0.80118 0.46803 0.0
H435 H 0.23336 0.78962 0.40779 0.0
Nd436 Nd 0.26964 0.83762 0.81701 0.0
Nd437 Nd 0.32194 0.88756 0.82126 0.0
C438 C 0.20867 0.80234 0.82441 0.0
C439 C 0.18465 0.80929 0.84885 0.0
C440 C 0.17281 0.84596 0.85918 0.0
C441 C 0.1584 0.853 0.88758 0.0
C442 C 0.15605 0.82357 0.90615 0.0
C443 C 0.16558 0.78676 0.89473 0.0
C444 C 0.17985 0.77967 0.86622 0.0
C445 C 0.34593 0.796 0.82202 0.0
C446 C 0.31999 0.87266 0.89158 0.0
C447 C 0.37768 0.92716 0.8109 0.0
C448 C 0.38144 0.93809 0.7788 0.0
C449 C 0.41989 0.93208 0.77212 0.0
C450 C 0.42362 0.94102 0.74126 0.0
C451 C 0.3889 0.95598 0.7167 0.0
C452 C 0.35006 0.96062 0.72268 0.0
C453 C 0.34627 0.95152 0.75348 0.0
C454 C 0.24492 0.92694 0.82224 0.0
C455 C 0.29128 0.84105 0.74875 0.0
O456 O 0.20271 0.82669 0.80195 0.0
O457 O 0.24793 0.79272 0.83811 0.0
O458 O 0.31034 0.78866 0.80037 0.0
O459 O 0.34129 0.82723 0.83921 0.0
O460 O 0.28317 0.86363 0.87212 0.0
O461 O 0.34722 0.87888 0.87679 0.0
O462 O 0.38375 0.89159 0.81439 0.0
O463 O 0.3461 0.94229 0.82067 0.0
O464 O 0.28158 0.93377 0.84256 0.0
O465 O 0.24972 0.89798 0.80225 0.0
O466 O 0.31205 0.86882 0.76558 0.0
O467 O 0.26684 0.82541 0.76143 0.0
H468 H 0.17681 0.86935 0.8465 0.0
H469 H 0.15091 0.88152 0.89603 0.0
H470 H 0.16369 0.76374 0.90876 0.0
H471 H 0.18929 0.75128 0.85884 0.0
H472 H 0.44708 0.92074 0.7909 0.0
H473 H 0.45383 0.93741 0.73694 0.0
H474 H 0.32307 0.97231 0.70396 0.0
H475 H 0.31594 0.9553 0.75757 0.0
Nd476 Nd 0.27073 0.37531 0.80652 0.0
Nd477 Nd 0.33214 0.32863 0.84046 0.0
C478 C 0.21547 0.41311 0.76057 0.0
C479 C 0.22394 0.44134 0.74132 0.0
C480 C 0.26003 0.43672 0.73072 0.0
C481 C 0.27264 0.46622 0.71822 0.0
C482 C 0.24951 0.50063 0.7165 0.0
C483 C 0.21314 0.50518 0.72643 0.0
C484 C 0.20043 0.47564 0.73887 0.0
C485 C 0.26592 0.37763 0.87336 0.0
C486 C 0.35837 0.41501 0.8351 0.0
C487 C 0.38234 0.28969 0.88915 0.0
C488 C 0.3689 0.26476 0.90932 0.0
C489 C 0.32788 0.26962 0.91119 0.0
C490 C 0.31229 0.24367 0.92585 0.0
C491 C 0.33727 0.21217 0.93908 0.0
C492 C 0.37888 0.20787 0.93848 0.0
C493 C 0.39447 0.23384 0.92339 0.0
C494 C 0.33983 0.32705 0.77427 0.0
C495 C 0.24226 0.29099 0.80599 0.0
O496 O 0.22904 0.37881 0.75384 0.0
O497 O 0.22381 0.42272 0.79315 0.0
O498 O 0.26335 0.40652 0.85668 0.0
O499 O 0.27264 0.3486 0.85488 0.0
O500 O 0.32005 0.41809 0.81459 0.0
O501 O 0.37018 0.38381 0.85128 0.0
O502 O 0.37215 0.32532 0.89397 0.0
O503 O 0.37466 0.27862 0.85686 0.0
O504 O 0.34273 0.29796 0.79091 0.0
O505 O 0.33105 0.35572 0.79235 0.0
O506 O 0.27941 0.28697 0.82841 0.0
O507 O 0.23224 0.32233 0.79089 0.0
H508 H 0.27925 0.41072 0.73313 0.0
H509 H 0.30057 0.46246 0.7103 0.0
H510 H 0.19502 0.53176 0.725 0.0
H511 H 0.17318 0.47994 0.74772 0.0
H512 H 0.30733 0.29299 0.90031 0.0
H513 H 0.28023 0.24772 0.92615 0.0
H514 H 0.39878 0.18388 0.94873 0.0
H515 H 0.42602 0.22928 0.92192 0.0
Nd516 Nd 0.8288 0.39181 0.80212 0.0
Nd517 Nd 0.79482 0.36524 0.84245 0.0
C518 C 0.84917 0.41942 0.75249 0.0
C519 C 0.83864 0.43938 0.72087 0.0
C520 C 0.82421 0.47729 0.72026 0.0
C521 C 0.82239 0.4973 0.69249 0.0
C522 C 0.83513 0.47995 0.66486 0.0
C523 C 0.84712 0.4416 0.66449 0.0
C524 C 0.84888 0.42158 0.69219 0.0
C525 C 0.87125 0.32045 0.81844 0.0
C526 C 0.7361 0.35971 0.76677 0.0
C527 C 0.77582 0.33073 0.88881 0.0
C528 C 0.78198 0.32396 0.92461 0.0
C529 C 0.82124 0.31287 0.94658 0.0
C530 C 0.8242 0.29757 0.97706 0.0
C531 C 0.78789 0.29273 0.98544 0.0
C532 C 0.74938 0.30711 0.96512 0.0
C533 C 0.74646 0.32259 0.93499 0.0
C534 C 0.75139 0.43494 0.8271 0.0
C535 C 0.88288 0.40592 0.88014 0.0
O536 O 0.84948 0.43815 0.78138 0.0
O537 O 0.8382 0.38553 0.75057 0.0
O538 O 0.88798 0.35166 0.82113 0.0
O539 O 0.8315 0.32815 0.80987 0.0
O540 O 0.76094 0.38515 0.7659 0.0
O541 O 0.74778 0.3402 0.79353 0.0
O542 O 0.80476 0.31842 0.87494 0.0
O543 O 0.75645 0.36173 0.87731 0.0
O544 O 0.73525 0.40425 0.82727 0.0
O545 O 0.79125 0.42868 0.83403 0.0
O546 O 0.85411 0.38612 0.88381 0.0
O547 O 0.87898 0.41571 0.84957 0.0
H548 H 0.81609 0.49192 0.74185 0.0
H549 H 0.81289 0.52681 0.6933 0.0
H550 H 0.85702 0.42756 0.64349 0.0
H551 H 0.86032 0.3925 0.69193 0.0
H552 H 0.84919 0.3138 0.93923 0.0
H553 H 0.85425 0.28678 0.99259 0.0
H554 H 0.7211 0.3038 0.97127 0.0
H555 H 0.71593 0.33096 0.91852 0.0
Nd556 Nd 0.80801 0.83363 0.77526 0.0
Nd557 Nd 0.77601 0.89018 0.83153 0.0
C558 C 0.81292 0.79821 0.71747 0.0
C559 C 0.7947 0.76797 0.69236 0.0
C560 C 0.7514 0.76559 0.67954 0.0
C561 C 0.7347 0.7425 0.65011 0.0
C562 C 0.76122 0.72185 0.63343 0.0
C563 C 0.80441 0.7208 0.64868 0.0
C564 C 0.82108 0.74384 0.67802 0.0
C565 C 0.8577 0.82243 0.84103 0.0
C566 C 0.73871 0.80403 0.80852 0.0
C567 C 0.77366 0.92341 0.89092 0.0
C568 C 0.77574 0.95786 0.91376 0.0
C569 C 0.80938 0.9805 0.92129 0.0
C570 C 0.81685 1.00672 0.9496 0.0
C571 C 0.79104 1.01019 0.97083 0.0
C572 C 0.75529 0.99013 0.96129 0.0
C573 C 0.74768 0.96422 0.93294 0.0
C574 C 0.72708 0.90062 0.76536 0.0
C575 C 0.84451 0.91996 0.79686 0.0
O576 O 0.78932 0.82902 0.71913 0.0
O577 O 0.8368 0.78868 0.74713 0.0
O578 O 0.86421 0.80473 0.81389 0.0
O579 O 0.82615 0.84507 0.8316 0.0
O580 O 0.75885 0.79842 0.78504 0.0
O581 O 0.74266 0.83515 0.82979 0.0
O582 O 0.80802 0.9098 0.88435 0.0
O583 O 0.73984 0.91795 0.86549 0.0
O584 O 0.7217 0.92137 0.79168 0.0
O585 O 0.75764 0.87752 0.77588 0.0
O586 O 0.82274 0.92677 0.81927 0.0
O587 O 0.84316 0.88759 0.77749 0.0
H588 H 0.7305 0.78355 0.69064 0.0
H589 H 0.70129 0.74364 0.63851 0.0
H590 H 0.82525 0.70502 0.63605 0.0
H591 H 0.85455 0.74496 0.68791 0.0
H592 H 0.83134 0.97634 0.90667 0.0
H593 H 0.84419 1.02245 0.95624 0.0
H594 H 0.73461 0.99286 0.97701 0.0
H595 H 0.72146 0.94724 0.9275 0.0
C596 C 0.17952 0.24218 0.28958 0.0
C597 C 0.15822 0.2401 0.31405 0.0
C598 C 0.1963 0.29483 0.34675 0.0
C599 C 0.21252 0.30066 0.31955 0.0
N600 N 0.21358 0.27919 0.26208 0.0
N601 N 0.14327 0.26866 0.36457 0.0
C602 C 0.20261 0.27396 0.29029 0.0
C603 C 0.16592 0.2676 0.34229 0.0
N604 N 0.17909 0.2126 0.26601 0.0
N605 N 0.21176 0.31354 0.37791 0.0
H606 H 0.12109 0.2497 0.36207 0.0
H607 H 0.14393 0.29015 0.38361 0.0
H608 H 0.23566 0.33136 0.38326 0.0
H609 H 0.20454 0.30791 0.39952 0.0
H610 H 0.1975 0.20984 0.24969 0.0
H611 H 0.16387 0.18877 0.26546 0.0
H612 H 0.20241 0.26381 0.23879 0.0
H613 H 0.23059 0.30081 0.26045 0.0
C614 C 0.95537 0.22571 0.37525 0.0
C615 C 0.97346 0.22324 0.34815 0.0
C616 C 0.93225 0.28438 0.33079 0.0
C617 C 0.91212 0.28523 0.35667 0.0
N618 N 0.92271 0.265 0.4127 0.0
N619 N 0.98063 0.25298 0.30121 0.0
C620 C 0.92889 0.25818 0.38144 0.0
C621 C 0.9623 0.25365 0.32646 0.0
N622 N 0.96173 0.19615 0.39454 0.0
N623 N 0.92515 0.31438 0.3119 0.0
H624 H 1.006 0.23454 0.30001 0.0
H625 H 0.97083 0.27001 0.28116 0.0
H626 H 0.90737 0.33833 0.31662 0.0
H627 H 0.9398 0.31771 0.29384 0.0
H628 H 0.94514 0.19379 0.41158 0.0
H629 H 0.98118 0.17262 0.3915 0.0
H630 H 0.93653 0.24827 0.4327 0.0
H631 H 0.90959 0.29036 0.42055 0.0
C632 C 0.9669 0.99598 0.33905 0.0
C633 C 0.95571 1.01737 0.31002 0.0
C634 C 0.89756 0.97604 0.28342 0.0
C635 C 0.90623 0.95646 0.3134 0.0
N636 N 0.94679 0.95316 0.37214 0.0
N637 N 0.90205 0.0333 0.25933 0.0
C638 C 0.93993 0.96844 0.34202 0.0
C639 C 0.91862 1.00883 0.2837 0.0
N640 N 1.00452 1.00017 0.36298 0.0
N641 N 0.86951 0.96329 0.25393 0.0
H642 H 0.91511 0.05832 0.2598 0.0
H643 H 0.87295 0.03105 0.24133 0.0
H644 H 0.85248 0.94044 0.25196 0.0
H645 H 0.86568 0.97363 0.23055 0.0
H646 H 1.0167 0.98312 0.38293 0.0
H647 H 1.02534 1.01854 0.36109 0.0
H648 H 0.9675 0.96324 0.3949 0.0
H649 H 0.9295 0.93204 0.37481 0.0
C650 C 0.20061 1.02842 0.36085 0.0
C651 C 0.16421 0.03362 0.33268 0.0
C652 C 0.19261 0.97757 0.30227 0.0
C653 C 0.22726 0.96961 0.33153 0.0
N654 N 0.26036 0.98914 0.39097 0.0
N655 N 0.12141 1.00409 0.28057 0.0
C656 C 0.22967 0.99541 0.36144 0.0
C657 C 0.15935 1.00554 0.30469 0.0
N658 N 0.20909 0.05608 0.38667 0.0
N659 N 0.191 0.9593 0.2713 0.0
H660 H 0.09568 1.02175 0.28232 0.0
H661 H 0.11404 0.98242 0.26147 0.0
H662 H 0.21354 0.93932 0.26714 0.0
H663 H 0.16937 0.96714 0.24873 0.0
H664 H 0.23732 0.05706 0.40592 0.0
H665 H 0.18892 0.07969 0.38745 0.0
H666 H 0.25992 1.00225 0.41456 0.0
H667 H 0.28578 0.9701 0.39236 0.0
C668 C 0.13585 0.98577 0.78902 0.0
C669 C 0.13934 1.01727 0.81376 0.0
C670 C 0.20508 0.98358 0.84711 0.0
C671 C 0.20605 0.95602 0.81929 0.0
N672 N 0.17024 0.93637 0.7605 0.0
N673 N 0.18317 0.04687 0.86504 0.0
C674 C 0.17071 0.95859 0.78944 0.0
C675 C 0.1756 1.01622 0.84244 0.0
N676 N 0.09817 0.98075 0.76532 0.0
N677 N 0.23077 0.97787 0.87902 0.0
H678 H 0.16275 0.07071 0.8629 0.0
H679 H 0.21138 0.04955 0.88404 0.0
H680 H 0.24905 0.95315 0.88489 0.0
H681 H 0.22934 0.99529 0.90046 0.0
H682 H 0.09197 0.95676 0.74878 0.0
H683 H 0.07175 0.99836 0.76519 0.0
H684 H 0.14786 0.9403 0.73718 0.0
H685 H 0.19379 0.91635 0.75854 0.0
C686 C 0.14725 0.24089 0.81055 0.0
C687 C 0.1471 0.20843 0.78769 0.0
C688 C 0.2085 0.23052 0.77574 0.0
C689 C 0.21011 0.26181 0.80014 0.0
N690 N 0.18501 0.29222 0.84549 0.0
N691 N 0.18249 0.1695 0.75295 0.0
C692 C 0.1806 0.26555 0.81889 0.0
C693 C 0.17915 0.20262 0.77149 0.0
N694 N 0.11431 0.24928 0.82319 0.0
N695 N 0.23462 0.22776 0.756 0.0
H696 H 0.16236 0.14858 0.75014 0.0
H697 H 0.20711 0.16137 0.74303 0.0
H698 H 0.25691 0.24681 0.75903 0.0
H699 H 0.23239 0.20826 0.7352 0.0
H700 H 0.10966 0.27446 0.83678 0.0
H701 H 0.08962 0.23228 0.81753 0.0
H702 H 0.16762 0.29423 0.86254 0.0
H703 H 0.20876 0.31035 0.85237 0.0
C704 C 0.92074 0.21529 0.82856 0.0
C705 C 0.9539 0.21413 0.81369 0.0
C706 C 0.92721 0.27887 0.79672 0.0
C707 C 0.89653 0.28187 0.81449 0.0
N708 N 0.86713 0.25141 0.84955 0.0
N709 N 0.99206 0.24924 0.78889 0.0
C710 C 0.89429 0.24949 0.83096 0.0
C711 C 0.95796 0.24739 0.79955 0.0
N712 N 0.91327 0.18309 0.83932 0.0
N713 N 0.92525 0.3049 0.77463 0.0
H714 H 1.01487 0.22724 0.7904 0.0
H715 H 0.99991 0.27368 0.78197 0.0
H716 H 0.90151 0.32609 0.76915 0.0
H717 H 0.94365 0.30268 0.75833 0.0
H718 H 0.88708 0.17997 0.84665 0.0
H719 H 0.93246 0.15864 0.83903 0.0
H720 H 0.86682 0.23145 0.86576 0.0
H721 H 0.84602 0.27426 0.8497 0.0
C722 C 0.93224 0.99024 0.81628 0.0
C723 C 0.92387 1.00619 0.78447 0.0
C724 C 0.86252 0.96704 0.76137 0.0
C725 C 0.87147 0.95043 0.79289 0.0
N726 N 0.91615 0.9455 0.85012 0.0
N727 N 0.87743 1.01327 0.72835 0.0
C728 C 0.9063 0.96248 0.82042 0.0
C729 C 0.88795 0.99528 0.75752 0.0
N730 N 0.96575 1.00111 0.84253 0.0
N731 N 0.82891 0.95613 0.73512 0.0
H732 H 0.89249 0.03623 0.72623 0.0
H733 H 0.85293 1.00729 0.7067 0.0
H734 H 0.80925 0.93677 0.73725 0.0
H735 H 0.81999 0.96551 0.71093 0.0
H736 H 0.97167 0.99504 0.86759 0.0
H737 H 0.98793 1.01719 0.83947 0.0
H738 H 0.9422 0.95013 0.87087 0.0
H739 H 0.89893 0.92488 0.85378 0.0
C740 C 0.34267 0.18222 0.12769 0.0
C741 C 0.30338 0.16723 0.11757 0.0
C742 C 0.28046 0.21031 0.1589 0.0
C743 C 0.32016 0.2249 0.16965 0.0
N744 N 0.3835 0.23374 0.15734 0.0
N745 N 0.23081 0.17595 0.11375 0.0
C746 C 0.3494 0.21393 0.15152 0.0
C747 C 0.2708 0.18463 0.12983 0.0
N748 N 0.3742 0.16479 0.11635 0.0
N749 N 0.25318 0.21881 0.17755 0.0
H750 H 0.22317 0.15799 0.09158 0.0
H751 H 0.20523 0.18954 0.12013 0.0
H752 H 0.25926 0.23706 0.19949 0.0
H753 H 0.22588 0.20542 0.17271 0.0
H754 H 0.40483 0.17218 0.12579 0.0
H755 H 0.3702 0.14133 0.099 0.0
H756 H 0.40407 0.22896 0.14282 0.0
H757 H 0.38879 0.25737 0.17453 0.0
C758 C 1.03288 0.38919 0.15026 0.0
C759 C 1.01481 0.37706 0.11549 0.0
C760 C 0.9459 0.38067 0.12538 0.0
C761 C 0.96487 0.38873 0.16098 0.0
N762 N 1.02688 0.39927 0.20771 0.0
N763 N 0.95445 0.36296 0.06902 0.0
C764 C 1.00847 0.393 0.17344 0.0
C765 C 0.97126 0.37345 0.10282 0.0
N766 N 0.07344 0.39785 0.16088 0.0
N767 N 0.9035 0.38068 0.11324 0.0
H768 H 0.97236 0.35858 0.05227 0.0
H769 H 0.92351 0.35738 0.05757 0.0
H770 H 0.88437 0.38642 0.12899 0.0
H771 H 0.88675 0.37717 0.08761 0.0
H772 H 0.08797 0.4106 0.18478 0.0
H773 H 0.09191 0.3948 0.14461 0.0
H774 H 0.05891 0.39872 0.21907 0.0
H775 H 1.01022 0.40284 0.22537 0.0
C776 C 0.76506 1.01058 0.22856 0.0
C777 C 0.74267 1.00583 0.19355 0.0
C778 C 0.74397 0.93823 0.19803 0.0
C779 C 0.76257 0.94355 0.23379 0.0
N780 N 0.78527 0.98629 0.28395 0.0
N781 N 0.70771 0.96642 0.14504 0.0
C782 C 0.7717 0.98017 0.24928 0.0
C783 C 0.73139 0.96991 0.17831 0.0
N784 N 0.78069 0.04416 0.24184 0.0
N785 N 0.73911 0.90282 0.18287 0.0
H786 H 0.69901 0.98908 0.13013 0.0
H787 H 0.69455 0.94193 0.13289 0.0
H788 H 0.74763 0.87928 0.19665 0.0
H789 H 0.72952 0.89657 0.15662 0.0
H790 H 0.80163 0.04838 0.26607 0.0
H791 H 0.77554 0.06711 0.22749 0.0
H792 H 0.78831 1.01271 0.29681 0.0
H793 H 0.79021 0.96517 0.30017 0.0
C794 C 0.1757 0.83231 0.16613 0.0
C795 C 0.16997 0.79367 0.16482 0.0
C796 C 0.21012 0.79508 0.22494 0.0
C797 C 0.22467 0.83081 0.22441 0.0
N798 N 0.22061 0.88229 0.1893 0.0
N799 N 0.19144 0.73661 0.1923 0.0
C800 C 0.20777 0.849 0.19341 0.0
C801 C 0.19085 0.77449 0.19388 0.0
N802 N 0.1484 0.85418 0.14319 0.0
N803 N 0.20995 0.78213 0.25466 0.0
H804 H 0.17869 0.7206 0.16959 0.0
H805 H 0.20855 0.72139 0.2127 0.0
H806 H 0.21351 0.79927 0.27711 0.0
H807 H 0.19802 0.75685 0.25536 0.0
H808 H 0.14849 0.88313 0.14505 0.0
H809 H 0.12213 0.84421 0.12527 0.0
H810 H 0.21165 0.8936 0.16582 0.0
H811 H 0.24142 0.89822 0.20774 0.0
C812 C 0.29636 0.92803 0.96443 0.0
C813 C 0.33255 0.94814 0.97337 0.0
C814 C 0.36719 0.89674 0.94736 0.0
C815 C 0.3272 0.8858 0.92786 0.0
N816 N 0.25747 0.87845 0.92855 0.0
N817 N 0.40605 0.93384 0.99711 0.0
C818 C 0.29289 0.89696 0.9402 0.0
C819 C 0.36991 0.92758 0.97206 0.0
N820 N 0.26809 0.93641 0.98188 0.0
N821 N 0.40181 0.87774 0.94193 0.0
H822 H 0.40589 0.9498 0.01962 0.0
H823 H 0.43417 0.91854 0.99836 0.0
H824 H 0.39994 0.85277 0.92644 0.0
H825 H 0.43168 0.8867 0.95251 0.0
H826 H 0.24175 0.92202 0.97806 0.0
H827 H 0.27457 0.95539 0.00315 0.0
H828 H 0.22935 0.88874 0.93257 0.0
H829 H 0.25698 0.85202 0.91559 0.0
C830 C 0.24956 0.3749 0.96251 0.0
C831 C 0.20662 0.38694 0.95632 0.0
C832 C 0.20114 0.38597 0.89477 0.0
C833 C 0.24511 0.37828 0.9017 0.0
N834 N 0.31166 0.36955 0.94373 0.0
N835 N 0.14266 0.40825 0.91631 0.0
C836 C 0.26932 0.37359 0.93602 0.0
C837 C 0.18264 0.39323 0.92226 0.0
N838 N 0.27143 0.36408 0.99401 0.0
N839 N 0.17671 0.38579 0.86169 0.0
H840 H 0.1284 0.41397 0.9355 0.0
H841 H 0.12469 0.41761 0.89303 0.0
H842 H 0.18887 0.38085 0.84118 0.0
H843 H 0.14434 0.38707 0.85448 0.0
H844 H 0.30171 0.35187 -1e-05 0.0
H845 H 0.25762 0.36404 0.01336 0.0
H846 H 0.33168 0.37022 0.96849 0.0
H847 H 0.32696 0.36848 0.92526 0.0
C848 C 0.77948 0.20475 0.0246 0.0
C849 C 0.76461 0.22066 0.05185 0.0
C850 C 0.78002 0.28278 0.04224 0.0
C851 C 0.78805 0.26752 0.01163 0.0
N852 N 0.79545 0.21394 0.97304 0.0
N853 N 0.75353 0.27365 0.0891 0.0
C854 C 0.7887 0.22837 0.00302 0.0
C855 C 0.76605 0.25943 0.06158 0.0
N856 N 0.7846 0.16689 0.01937 0.0
N857 N 0.7863 0.31943 0.05272 0.0
H858 H 0.74492 0.25672 0.10429 0.0
H859 H 0.75025 0.30198 0.09627 0.0
H860 H 0.79719 0.33656 0.03906 0.0
H861 H 0.78399 0.33216 0.07591 0.0
H862 H 0.80038 0.15329 0.00296 0.0
H863 H 0.77556 0.14892 0.03333 0.0
H864 H 0.79114 0.18642 0.96324 0.0
H865 H 0.80312 0.22987 0.95665 0.0
C866 C 0.89799 0.79094 0.93129 0.0
C867 C 0.94013 0.78092 0.93299 0.0
C868 C 0.92975 0.81037 0.87995 0.0
C869 C 0.88643 0.81647 0.8761 0.0
N870 N 0.83268 0.82478 0.90366 0.0
N871 N 0.99744 0.78218 0.91047 0.0
C872 C 0.87146 0.8105 0.9035 0.0
C873 C 0.95642 0.79119 0.9078 0.0
N874 N 0.8831 0.78017 0.95572 0.0
N875 N 0.94555 0.82529 0.85795 0.0
H876 H 1.0183 0.77049 0.93164 0.0
H877 H 1.01066 0.78458 0.89125 0.0
H878 H 0.92717 0.84204 0.83916 0.0
H879 H 0.97706 0.82454 0.86019 0.0
H880 H 0.85181 0.78286 0.9546 0.0
H881 H 0.90203 0.76603 0.97624 0.0
H882 H 0.82121 0.82491 0.9243 0.0
H883 H 0.81292 0.83937 0.88397 0.0
C884 C 0.20606 0.44772 0.17692 0.0
C885 C 0.1852 0.41791 0.15494 0.0
C886 C 0.19658 0.38336 0.20635 0.0
C887 C 0.22284 0.41028 0.22762 0.0
N888 N 0.25145 0.46969 0.2327 0.0
N889 N 0.16642 0.35439 0.14975 0.0
C890 C 0.22726 0.44294 0.21267 0.0
C891 C 0.18231 0.38499 0.17008 0.0
N892 N 0.20531 0.48079 0.16365 0.0
N893 N 0.18364 0.35655 0.2208 0.0
H894 H 0.1529 0.35458 0.1236 0.0
H895 H 0.16899 0.32813 0.15865 0.0
H896 H 0.19189 0.35498 0.247 0.0
H897 H 0.16103 0.33855 0.20714 0.0
H898 H 0.21612 0.50505 0.17819 0.0
H899 H 0.19073 0.48465 0.13799 0.0
H900 H 0.25988 0.49226 0.22336 0.0
H901 H 0.26471 0.46854 0.25889 0.0
C902 C 0.09613 0.8533 0.96993 0.0
C903 C 0.12591 0.84263 0.00045 0.0
C904 C 0.17764 0.82627 0.96995 0.0
C905 C 0.14597 0.83152 0.93873 0.0
N906 N 0.07385 0.84605 0.9083 0.0
N907 N 0.19401 0.81552 0.0295 0.0
C908 C 0.1049 0.84435 0.9385 0.0
C909 C 0.16667 0.82871 0.00064 0.0
N910 N 0.05929 0.87179 0.97123 0.0
N911 N 0.21823 0.81923 0.97032 0.0
H912 H 0.1876 0.81773 0.05273 0.0
H913 H 0.22206 0.80045 0.02994 0.0
H914 H 0.22744 0.81632 0.9483 0.0
H915 H 0.24308 0.81928 0.99263 0.0
H916 H 1.03755 0.88316 0.95036 0.0
H917 H 0.05236 0.87892 0.99412 0.0
H918 H 0.04251 0.85137 0.90663 0.0
H919 H 0.07891 0.83908 0.8847 0.0
C920 C 0.28231 0.12628 0.94359 0.0
C921 C 0.26301 0.14046 0.96877 0.0
C922 C 0.30556 0.19438 0.98211 0.0
C923 C 0.31846 0.18393 0.95267 0.0
N924 N 0.31826 0.14006 0.9043 0.0
N925 N 0.25458 0.18897 0.01134 0.0
C926 C 0.30744 0.14943 0.93352 0.0
C927 C 0.27472 0.17452 0.98826 0.0
N928 N 0.27535 0.09109 0.92857 0.0
N929 N 0.32277 0.22348 0.00406 0.0
H930 H 0.23321 0.17436 0.01754 0.0
H931 H 0.25784 0.21582 0.02329 0.0
H932 H 0.34558 0.2383 0.00015 0.0
H933 H 0.31751 0.23047 0.02756 0.0
H934 H 0.29131 0.07746 0.9123 0.0
H935 H 0.25607 0.07431 0.93497 0.0
H936 H 0.30701 0.11762 0.88707 0.0
H937 H 0.33649 0.15613 0.89597 0.0
C938 C 0.981 0.45039 0.94362 0.0
C939 C 0.99796 0.42136 0.96563 0.0
C940 C 0.94145 0.38272 0.93069 0.0
C941 C 0.92225 0.41236 0.90988 0.0
N942 N 0.92045 0.47763 0.90175 0.0
N943 N 0.98527 0.36504 0.98567 0.0
C944 C 0.94109 0.44722 0.91789 0.0
C945 C 0.97495 0.38944 0.96096 0.0
N946 N 1.00354 0.48039 0.94642 0.0
N947 N 0.93032 0.34705 0.92038 0.0
H948 H 1.009 0.36936 0.00841 0.0
H949 H 0.96727 0.34315 0.98521 0.0
H950 H 0.9093 0.3395 0.89689 0.0
H951 H 0.94613 0.3241 0.93311 0.0
H952 H 0.99544 0.50053 0.92891 0.0
H953 H 1.03174 0.48381 0.96542 0.0
H954 H 0.93052 0.50443 0.90845 0.0
H955 H 0.89115 0.47662 0.88379 0.0
C956 C 0.84755 0.04054 0.06385 0.0
C957 C 0.81735 0.06747 0.0713 0.0
C958 C 0.77493 0.06118 0.01178 0.0
C959 C 0.80273 0.03186 0.00466 0.0
N960 N 0.86062 0.98722 0.02661 0.0
N961 N 0.74504 0.08892 0.05514 0.0
C962 C 0.83788 1.01965 0.03144 0.0
C963 C 0.77887 0.07369 0.04607 0.0
N964 N 0.88502 0.03445 0.08782 0.0
N965 N 0.74478 0.0771 0.98595 0.0
H966 H 0.74544 0.09088 0.08049 0.0
H967 H 0.71564 0.09297 0.03767 0.0
H968 H 0.74175 0.0691 0.96035 0.0
H969 H 0.72597 0.10068 0.99019 0.0
H970 H 0.90983 1.01795 0.08268 0.0
H971 H 0.8917 0.04736 0.1125 0.0
H972 H 0.8837 0.97507 0.04628 0.0
H973 H 0.85395 0.97051 0.00372 0.0
C974 C 0.98874 0.88037 0.13252 0.0
C975 C 0.98347 0.85629 0.10243 0.0
C976 C 0.93419 0.82194 0.11786 0.0
C977 C 0.94453 0.842 0.15031 0.0
N978 N 0.97997 0.89126 0.18899 0.0
N979 N 0.93406 0.82015 0.05929 0.0
C980 C 0.97083 0.87198 0.15763 0.0
C981 C 0.95074 0.83193 0.0928 0.0
N982 N 1.0081 0.91245 0.13576 0.0
N983 N 0.9098 0.79247 0.11132 0.0
H984 H 0.94269 0.83059 0.0401 0.0
H985 H 0.90828 0.80431 0.05023 0.0
H986 H 0.89575 0.78492 0.12858 0.0
H987 H 0.9059 0.77389 0.08969 0.0
H988 H 1.01084 0.93268 0.15606 0.0
H989 H 1.01646 0.92114 0.11569 0.0
H990 H 1.00229 0.91074 0.1973 0.0
H991 H 0.96684 0.88618 0.20768 0.0
C992 C 0.2918 0.99022 0.07897 0.0
C993 C 0.25323 0.97576 0.06046 0.0
C994 C 0.26347 0.93352 0.10561 0.0
C995 C 0.29531 0.95552 0.12695 0.0
N996 N 0.34083 1.00494 0.13382 0.0
N997 N 0.21879 0.91838 0.04837 0.0
C998 C 0.31019 0.98355 0.1135 0.0
C999 C 0.24358 0.94271 0.07146 0.0
N1000 N 0.31301 1.00705 0.06266 0.0
N1001 N 0.25214 0.90423 0.11817 0.0
H1002 H 0.20902 0.92159 0.02233 0.0
H1003 H 0.21241 0.89272 0.05397 0.0
H1004 H 0.26857 0.89509 0.14198 0.0
H1005 H 0.22588 0.88981 0.10571 0.0
H1006 H 0.34331 1.01502 0.07355 0.0
H1007 H 0.30157 1.00702 0.03679 0.0
H1008 H 0.34936 1.02843 0.12578 0.0
H1009 H 0.3556 1.00105 0.15941 0.0
C1010 C 0.80364 0.21146 0.24726 0.0
C1011 C 0.77935 0.21359 0.21299 0.0
C1012 C 0.74233 0.27173 0.22882 0.0
C1013 C 0.77147 0.27269 0.26171 0.0
N1014 N 0.82951 0.24338 0.30289 0.0
N1015 N 0.72084 0.24162 0.17121 0.0
C1016 C 0.80138 0.24211 0.27126 0.0
C1017 C 0.74691 0.24242 0.20385 0.0
N1018 N 0.8288 0.18008 0.25704 0.0
N1019 N 0.71034 0.2988 0.22187 0.0
H1020 H 0.72108 0.21892 0.1534 0.0
H1021 H 0.69909 0.26314 0.16147 0.0
H1022 H 0.70658 0.32 0.24017 0.0
H1023 H 0.68617 0.29922 0.19921 0.0
H1024 H 0.84357 0.17512 0.28238 0.0
H1025 H 0.83236 0.15741 0.2401 0.0
H1026 H 0.85717 0.2265 0.30924 0.0
H1027 H 0.82517 0.26192 0.32265 0.0
C1028 C 0.6927 0.7312 0.84832 0.0
C1029 C 0.65631 0.72132 0.82169 0.0
C1030 C 0.67914 0.75831 0.7842 0.0
C1031 C 0.71169 0.77343 0.8123 0.0
N1032 N 0.74868 0.77231 0.87213 0.0
N1033 N 0.61185 0.73143 0.76544 0.0
C1034 C 0.71783 0.75944 0.84466 0.0
C1035 C 0.64891 0.73636 0.78991 0.0
N1036 N 0.70458 0.71193 0.87677 0.0
N1037 N 0.67719 0.76374 0.75166 0.0
H1038 H 0.589 0.71633 0.76883 0.0
H1039 H 0.60228 0.74523 0.74321 0.0
H1040 H 0.69884 0.77781 0.74561 0.0
H1041 H 0.65684 0.75042 0.7304 0.0
H1042 H 0.73248 0.71496 0.8961 0.0
H1043 H 0.68855 0.68977 0.87925 0.0
H1044 H 0.75089 0.76829 0.89717 0.0
H1045 H 0.7716 0.78785 0.86972 0.0
C1046 C 0.40916 0.69758 0.82936 0.0
C1047 C 0.44961 0.70627 0.83002 0.0
C1048 C 0.42501 0.77412 0.83466 0.0
C1049 C 0.38326 0.76564 0.83002 0.0
N1050 N 0.33754 0.7181 0.82823 0.0
N1051 N 0.49355 0.75413 0.82873 0.0
C1052 C 0.37612 0.72689 0.82889 0.0
C1053 C 0.45669 0.74494 0.83161 0.0
N1054 N 0.40224 0.66092 0.82887 0.0
N1055 N 0.43494 0.81029 0.84246 0.0
H1056 H 0.5181 0.73449 0.82817 0.0
H1057 H 0.49881 0.7808 0.82452 0.0
H1058 H 0.41335 0.832 0.8453 0.0
H1059 H 0.46528 0.81837 0.84957 0.0
H1060 H 0.37481 0.6513 0.82991 0.0
H1061 H 0.4251 0.63938 0.82856 0.0
H1062 H 0.32724 0.6914 0.82314 0.0
H1063 H 0.31549 0.73795 0.8338 0.0
C1064 C 0.44495 0.488 0.86296 0.0
C1065 C 0.44199 0.50207 0.83128 0.0
C1066 C 0.38858 0.45694 0.80294 0.0
C1067 C 0.38875 0.44441 0.83471 0.0
N1068 N 0.41376 0.45387 0.89585 0.0
N1069 N 0.40343 0.50526 0.7726 0.0
C1070 C 0.41613 0.46164 0.865 0.0
C1071 C 0.41121 0.48818 0.80195 0.0
N1072 N 0.47617 0.49898 0.89102 0.0
N1073 N 0.36919 0.43736 0.77312 0.0
H1074 H 0.41884 0.52839 0.77135 0.0
H1075 H 0.37895 0.49915 0.75082 0.0
H1076 H 0.3543 0.4133 0.77194 0.0
H1077 H 0.37232 0.44219 0.74972 0.0
H1078 H 0.48339 0.48728 0.9142 0.0
H1079 H 0.49643 0.51854 0.89025 0.0
H1080 H 0.42951 0.46788 0.9188 0.0
H1081 H 0.3933 0.43538 0.89822 0.0
C1082 C 0.69473 0.52925 0.85355 0.0
C1083 C 0.65779 0.53178 0.82517 0.0
C1084 C 0.69008 0.47801 0.79602 0.0
C1085 C 0.72421 0.47233 0.82572 0.0
N1086 N 0.75655 0.49192 0.88448 0.0
N1087 N 0.61966 0.50276 0.77028 0.0
C1088 C 0.72584 0.49795 0.85491 0.0
C1089 C 0.65553 0.50451 0.79678 0.0
N1090 N 0.70129 0.55767 0.87869 0.0
N1091 N 0.6915 0.45909 0.76596 0.0
H1092 H 0.59426 0.52201 0.76765 0.0
H1093 H 0.61371 0.48018 0.752 0.0
H1094 H 0.71732 0.44196 0.76394 0.0
H1095 H 0.67009 0.46412 0.74246 0.0
H1096 H 0.72928 0.5601 0.89804 0.0
H1097 H 0.67982 0.58053 0.87856 0.0
H1098 H 0.75729 0.50659 0.90771 0.0
H1099 H 0.78006 0.47057 0.88601 0.0
C1100 C 0.65398 0.49882 0.28791 0.0
C1101 C 0.6617 0.52888 0.31427 0.0
C1102 C 0.72502 0.48868 0.344 0.0
C1103 C 0.72122 0.4622 0.31478 0.0
N1104 N 0.68092 0.44612 0.25694 0.0
N1105 N 0.70878 0.55169 0.36732 0.0
C1106 C 0.68537 0.46874 0.28628 0.0
C1107 C 0.69825 0.52332 0.34245 0.0
N1108 N 0.61521 0.49767 0.26493 0.0
N1109 N 0.75381 0.4805 0.37382 0.0
H1110 H 0.69043 0.57665 0.36716 0.0
H1111 H 0.73697 0.55153 0.38667 0.0
H1112 H 0.77177 0.45542 0.37586 0.0
H1113 H 0.75637 0.49621 0.3969 0.0
H1114 H 0.60604 0.47521 0.24702 0.0
H1115 H 0.59054 0.51679 0.26665 0.0
H1116 H 0.65912 0.45225 0.23389 0.0
H1117 H 0.70057 0.42232 0.25518 0.0
C1118 C 0.68827 0.72306 0.26556 0.0
C1119 C 0.65661 0.72924 0.28195 0.0
C1120 C 0.67826 0.79448 0.29899 0.0
C1121 C 0.71184 0.78789 0.28401 0.0
N1122 N 0.73377 0.74892 0.24005 0.0
N1123 N 0.62461 0.77022 0.31765 0.0
C1124 C 0.71292 0.75288 0.26387 0.0
C1125 C 0.65281 0.76476 0.29975 0.0
N1126 N 0.69571 0.6878 0.25217 0.0
N1127 N 0.66707 0.83031 0.30883 0.0
H1128 H 0.60443 0.75016 0.31725 0.0
H1129 H 0.62335 0.79315 0.33492 0.0
H1130 H 0.67906 0.85332 0.30317 0.0
H1131 H 0.64154 0.83795 0.31771 0.0
H1132 H 0.72147 0.67951 0.24368 0.0
H1133 H 0.67836 0.66581 0.25289 0.0
H1134 H 0.73327 0.72538 0.2231 0.0
H1135 H 0.74532 0.77099 0.23262 0.0
C1136 C 0.44272 0.72271 0.33625 0.0
C1137 C 0.47601 0.72455 0.32213 0.0
C1138 C 0.44747 0.78993 0.3088 0.0
C1139 C 0.41119 0.78638 0.31878 0.0
N1140 N 0.37371 0.7465 0.33975 0.0
N1141 N 0.50669 0.76012 0.29149 0.0
C1142 C 0.40913 0.75208 0.33237 0.0
C1143 C 0.47734 0.75839 0.30763 0.0
N1144 N 0.44298 0.69238 0.35325 0.0
N1145 N 0.45444 0.82415 0.30153 0.0
H1146 H 0.52999 0.73888 0.29152 0.0
H1147 H 0.50646 0.78144 0.27643 0.0
H1148 H 0.43463 0.84778 0.30338 0.0
H1149 H 0.48186 0.83001 0.29732 0.0
H1150 H 0.42245 0.69008 0.36708 0.0
H1151 H 0.46637 0.67075 0.35595 0.0
H1152 H 0.36746 0.72125 0.34633 0.0
H1153 H 0.34889 0.76662 0.33662 0.0
C1154 C 0.40647 0.54062 0.31942 0.0
C1155 C 0.44145 0.52785 0.30787 0.0
C1156 C 0.42295 0.463 0.30784 0.0
C1157 C 0.38523 0.47552 0.31603 0.0
N1158 N 0.33863 0.5289 0.3235 0.0
N1159 N 0.47809 0.47672 0.28527 0.0
C1160 C 0.37639 0.51515 0.32016 0.0
C1161 C 0.44755 0.48899 0.29985 0.0
N1162 N 0.40261 0.57729 0.33067 0.0
N1163 N 0.43784 0.42658 0.31075 0.0
H1164 H 0.49675 0.49506 0.27995 0.0
H1165 H 0.48196 0.44927 0.27548 0.0
H1166 H 0.42457 0.4076 0.32074 0.0
H1167 H 0.46659 0.41642 0.30788 0.0
H1168 H 0.38132 0.58804 0.3435 0.0
H1169 H 0.42277 0.59646 0.3289 0.0
H1170 H 0.32902 0.55717 0.32384 0.0
H1171 H 0.31506 0.51203 0.32239 0.0
C1172 C 0.72811 0.66158 0.54972 0.0
C1173 C 0.7354 0.68615 0.52819 0.0
C1174 C 0.74355 0.73682 0.57312 0.0
C1175 C 0.74534 0.71037 0.59663 0.0
N1176 N 0.7369 0.64815 0.60784 0.0
N1177 N 0.72747 0.74936 0.51388 0.0
C1178 C 0.73597 0.67299 0.58501 0.0
C1179 C 0.73528 0.7247 0.53818 0.0
N1180 N 0.71141 0.62865 0.53597 0.0
N1181 N 0.75311 0.77274 0.58445 0.0
H1182 H 0.72023 0.74029 0.48803 0.0
H1183 H 0.72388 0.77814 0.51881 0.0
H1184 H 0.75884 0.78324 0.60979 0.0
H1185 H 0.75794 0.79169 0.56908 0.0
H1186 H 0.70142 0.61108 0.54973 0.0
H1187 H 0.70261 0.62157 0.50976 0.0
H1188 H 0.73495 0.6196 0.60144 0.0
H1189 H 0.74162 0.65609 0.63367 0.0
C1190 C 0.41769 1.02231 0.66436 0.0
C1191 C 0.42318 0.99696 0.63741 0.0
C1192 C 0.38865 0.95042 0.6554 0.0
C1193 C 0.39474 0.97181 0.68719 0.0
N1194 N 0.41141 0.03004 0.72126 0.0
N1195 N 0.38668 0.95061 0.59624 0.0
C1196 C 0.40745 1.00866 0.69128 0.0
C1197 C 0.4003 0.96483 0.6293 0.0
N1198 N 0.41832 0.05957 0.66237 0.0
N1199 N 0.37355 0.91603 0.65073 0.0
H1200 H 0.39103 0.96409 0.57665 0.0
H1201 H 0.36716 0.92881 0.58801 0.0
H1202 H 0.36383 0.90523 0.66918 0.0
H1203 H 0.37258 0.89768 0.62932 0.0
H1204 H 0.41134 0.07983 0.68011 0.0
H1205 H 0.42041 0.06988 0.64039 0.0
H1206 H 0.42538 0.05527 0.72677 0.0
H1207 H 0.40286 1.02162 0.74134 0.0
C1208 C 0.2999 0.58809 0.7121 0.0
C1209 C 0.27428 0.59851 0.67996 0.0
C1210 C 0.24147 0.53965 0.66898 0.0
C1211 C 0.26219 0.53195 0.70305 0.0
N1212 N 0.31031 0.54844 0.75806 0.0
N1213 N 0.21754 0.58702 0.62909 0.0
C1214 C 0.29161 0.55586 0.72492 0.0
C1215 C 0.24456 0.57483 0.65849 0.0
N1216 N 0.33234 0.60888 0.72988 0.0
N1217 N 0.21893 0.51325 0.64674 0.0
H1218 H 0.21807 0.61323 0.62107 0.0
H1219 H 0.19226 0.57257 0.61417 0.0
H1220 H 0.21582 0.48712 0.65377 0.0
H1221 H 0.20661 0.5159 0.6207 0.0
H1222 H 0.35455 0.60118 0.75219 0.0
H1223 H 0.33897 0.63246 0.72059 0.0
H1224 H 0.32875 0.56681 0.7762 0.0
H1225 H 0.30574 0.52445 0.76794 0.0
C1226 C 0.61686 0.35125 0.72208 0.0
C1227 C 0.6133 0.35602 0.68763 0.0
C1228 C 0.69 0.35888 0.70447 0.0
C1229 C 0.6936 0.35664 0.73953 0.0
N1230 N 0.65673 0.3578 0.78163 0.0
N1231 N 0.64584 0.37232 0.64773 0.0
C1232 C 0.65599 0.35474 0.74828 0.0
C1233 C 0.64971 0.36254 0.67952 0.0
N1234 N 0.58265 0.34248 0.72986 0.0
N1235 N 0.72516 0.35497 0.69438 0.0
H1236 H 0.61694 0.37592 0.62953 0.0
H1237 H 0.67037 0.38083 0.64078 0.0
H1238 H 0.75484 0.34977 0.71107 0.0
H1239 H 0.72467 0.35258 0.66897 0.0
H1240 H 0.584 0.33315 0.75313 0.0
H1241 H 0.55302 0.34262 0.71225 0.0
H1242 H 0.62997 0.36212 0.78935 0.0
H1243 H 0.68369 0.35884 0.80197 0.0
C1244 C 0.84158 0.52488 0.39782 0.0
C1245 C 0.85411 0.52727 0.43383 0.0
C1246 C 0.87883 0.46123 0.43356 0.0
C1247 C 0.86592 0.45872 0.39751 0.0
N1248 N 0.84537 0.4901 0.34549 0.0
N1249 N 0.89259 0.50071 0.48643 0.0
C1250 C 0.85096 0.49124 0.3797 0.0
C1251 C 0.87549 0.49639 0.45187 0.0
N1252 N 0.81954 0.55441 0.38085 0.0
N1253 N 0.89294 0.42957 0.45011 0.0
H1254 H 0.88986 0.5258 0.50081 0.0
H1255 H 0.91199 0.48031 0.50068 0.0
H1256 H 0.89852 0.40396 0.43738 0.0
H1257 H 0.8976 0.42827 0.47602 0.0
H1258 H 0.80431 0.55269 0.35481 0.0
H1259 H 0.81373 0.58015 0.39315 0.0
H1260 H 0.83846 0.51369 0.3319 0.0
H1261 H 0.85168 0.46631 0.33096 0.0
C1262 C 0.67172 0.98666 0.51407 0.0
C1263 C 0.62792 0.98777 0.50403 0.0
C1264 C 0.62575 0.96451 0.4459 0.0
C1265 C 0.66984 0.96207 0.45641 0.0
N1266 N 0.73539 0.96434 0.50083 0.0
N1267 N 0.56255 0.97431 0.4628 0.0
C1268 C 0.69307 0.97123 0.49068 0.0
C1269 C 0.60465 0.97574 0.47052 0.0
N1270 N 0.69256 1.00081 0.54605 0.0
N1271 N 0.60434 0.95681 0.41237 0.0
H1272 H 0.54623 0.98401 0.4801 0.0
H1273 H 0.54399 0.96199 0.44006 0.0
H1274 H 0.61904 0.94687 0.39403 0.0
H1275 H 0.57227 0.9617 0.40233 0.0
H1276 H 0.72435 1.00425 0.55428 0.0
H1277 H 0.67726 1.01179 0.56374 0.0
H1278 H 0.75379 0.96699 0.5261 0.0
H1279 H 0.75208 0.95303 0.48423 0.0
C1280 C 0.35063 0.78388 0.539 0.0
C1281 C 0.30935 0.79623 0.53898 0.0
C1282 C 0.31379 0.85089 0.51192 0.0
C1283 C 0.34312 0.82901 0.49883 0.0
N1284 N 0.40807 0.79356 0.51739 0.0
N1285 N 0.25789 0.84755 0.53691 0.0
C1286 C 0.36876 0.80244 0.51934 0.0
C1287 C 0.29355 0.83268 0.53039 0.0
N1288 N 0.37121 0.75468 0.55681 0.0
N1289 N 0.3015 0.8858 0.50175 0.0
H1290 H 0.24326 0.83358 0.55034 0.0
H1291 H 0.24311 0.87308 0.52895 0.0
H1292 H 0.31543 0.89695 0.48602 0.0
H1293 H 0.27994 0.90365 0.51024 0.0
H1294 H 0.40079 0.74356 0.55684 0.0
H1295 H 0.35849 0.74177 0.57214 0.0
H1296 H 0.42887 0.7737 0.53129 0.0
H1297 H 0.42026 0.80834 0.50278 0.0
C1298 C 0.38668 0.39321 0.49321 0.0
C1299 C 0.41751 0.36306 0.50213 0.0
C1300 C 0.40744 0.34672 0.4398 0.0
C1301 C 0.37546 0.37599 0.43074 0.0
N1302 N 0.33085 0.42386 0.44945 0.0
N1303 N 0.45333 0.30839 0.48261 0.0
C1304 C 0.36411 0.39828 0.45776 0.0
C1305 C 0.42679 0.33937 0.47493 0.0
N1306 N 0.37873 0.41698 0.51882 0.0
N1307 N 0.41936 0.32516 0.41466 0.0
H1308 H 0.47085 0.3038 0.50734 0.0
H1309 H 0.45662 0.28643 0.46496 0.0
H1310 H 0.40227 0.32476 0.38902 0.0
H1311 H 0.44687 0.30813 0.41902 0.0
H1312 H 0.35892 0.44103 0.51498 0.0
H1313 H 0.39413 0.4137 0.54445 0.0
H1314 H 0.31795 0.43929 0.46692 0.0
H1315 H 0.31402 0.42782 0.4243 0.0
C1316 C 0.65359 0.88179 0.6747 0.0
C1317 C 0.64859 0.91755 0.66237 0.0
C1318 C 0.6996 0.94032 0.71566 0.0
C1319 C 0.70189 0.90549 0.72915 0.0
N1320 N 0.67329 0.84617 0.72413 0.0
N1321 N 0.66017 0.98308 0.67423 0.0
C1322 C 0.67694 0.87695 0.7093 0.0
C1323 C 0.66986 0.94743 0.68372 0.0
N1324 N 0.63695 0.85217 0.6532 0.0
N1325 N 0.72651 0.96648 0.73303 0.0
H1326 H 0.63743 0.98986 0.65181 0.0
H1327 H 0.67144 1.00643 0.69017 0.0
H1328 H 0.74851 0.96247 0.75654 0.0
H1329 H 0.72972 0.9906 0.72272 0.0
H1330 H 0.64356 0.82469 0.65965 0.0
H1331 H 0.61924 0.85482 0.62794 0.0
H1332 H 0.65185 0.82653 0.71215 0.0
H1333 H 0.68854 0.84245 0.74966 0.0
C1334 C 0.62193 0.27344 0.51638 0.0
C1335 C 0.59547 0.30289 0.52615 0.0
C1336 C 0.6254 0.3461 0.49901 0.0
C1337 C 0.64741 0.31592 0.48548 0.0
N1338 N 0.65975 0.2494 0.47629 0.0
N1339 N 0.56439 0.36558 0.51702 0.0
C1340 C 0.64357 0.27913 0.49266 0.0
C1341 C 0.59526 0.33889 0.51496 0.0
N1342 N 0.6283 0.2405 0.53105 0.0
N1343 N 0.63354 0.38185 0.4971 0.0
H1344 H 0.53874 0.3602 0.52419 0.0
H1345 H 0.56126 0.39137 0.50713 0.0
H1346 H 0.65526 0.38823 0.48567 0.0
H1347 H 0.62173 0.40473 0.50979 0.0
H1348 H 0.64976 0.21913 0.52697 0.0
H1349 H 0.61582 0.23621 0.55032 0.0
H1350 H 0.65388 0.22196 0.47757 0.0
H1351 H 0.67581 0.2524 0.45898 0.0
C1352 C 0.83595 0.77105 0.42528 0.0
C1353 C 0.84949 0.734 0.41643 0.0
C1354 C 0.86922 0.75607 0.36968 0.0
C1355 C 0.85702 0.79369 0.37905 0.0
N1356 N 0.8363 0.8374 0.42011 0.0
N1357 N 0.88828 0.69267 0.38629 0.0
C1358 C 0.84296 0.80125 0.40839 0.0
C1359 C 0.86968 0.72731 0.39087 0.0
N1360 N 0.81424 0.77705 0.44846 0.0
N1361 N 0.8767 0.74688 0.33907 0.0
H1362 H 0.88834 0.6713 0.40135 0.0
H1363 H 0.9069 0.68639 0.37023 0.0
H1364 H 0.87411 0.76601 0.32141 0.0
H1365 H 0.88115 0.71947 0.32944 0.0
H1366 H 0.79906 0.80259 0.45332 0.0
H1367 H 0.80948 0.75564 0.4615 0.0
H1368 H 0.82949 0.84503 0.44292 0.0
H1369 H 0.84123 0.85989 0.4084 0.0
C1370 C 0.42281 0.93882 0.4756 0.0
C1371 C 0.45651 0.91183 0.4875 0.0
C1372 C 0.44263 0.88125 0.42942 0.0
C1373 C 0.40782 0.9072 0.41794 0.0
N1374 N 0.37221 0.96632 0.42715 0.0
N1375 N 0.50459 0.86297 0.47469 0.0
C1376 C 0.4003 0.93783 0.44018 0.0
C1377 C 0.46842 0.88486 0.46399 0.0
N1378 N 0.41203 0.96523 0.49829 0.0
N1379 N 0.45054 0.85276 0.40721 0.0
H1380 H 0.52342 0.86423 0.49993 0.0
H1381 H 0.51754 0.8454 0.45838 0.0
H1382 H 0.43497 0.85157 0.3812 0.0
H1383 H 0.47169 0.83 0.41442 0.0
H1384 H 0.3849 0.98275 0.49227 0.0
H1385 H 0.42937 0.96865 0.52388 0.0
H1386 H 0.36711 0.99105 0.44114 0.0
H1387 H 0.35688 0.96672 0.40117 0.0
C1388 C 0.35866 0.58433 0.54556 0.0
C1389 C 0.35328 0.62309 0.54151 0.0
C1390 C 0.32055 0.61114 0.48007 0.0
C1391 C 0.32411 0.57256 0.48444 0.0
N1392 N 0.35289 0.52121 0.51714 0.0
N1393 N 0.33838 0.67327 0.50475 0.0
C1394 C 0.34563 0.55885 0.51621 0.0
C1395 C 0.33738 0.63642 0.5086 0.0
N1396 N 0.37479 0.5724 0.57753 0.0
N1397 N 0.30004 0.62354 0.4488 0.0
H1398 H 0.35001 0.69244 0.52518 0.0
H1399 H 0.33087 0.68454 0.48137 0.0
H1400 H 0.28973 0.60558 0.42693 0.0
H1401 H 0.29152 0.65144 0.44453 0.0
H1402 H 0.3754 0.54504 0.58326 0.0
H1403 H 0.38661 0.59061 0.59895 0.0
H1404 H 0.37034 0.50773 0.53852 0.0
H1405 H 0.37034 0.50773 0.53852 0.0
C1406 C 0.42026 0.34474 0.72681 0.0
C1407 C 0.40557 0.32358 0.69488 0.0
C1408 C 0.34564 0.30841 0.71361 0.0
C1409 C 0.36197 0.32728 0.74652 0.0
N1410 N 0.42018 0.35733 0.78588 0.0
N1411 N 0.35504 0.28315 0.65899 0.0
C1412 C 0.40051 0.34417 0.75329 0.0
C1413 C 0.36841 0.30489 0.68878 0.0
N1414 N 0.45379 0.36512 0.73218 0.0
N1415 N 0.30745 0.2945 0.70567 0.0
H1416 H 0.36845 0.28263 0.63935 0.0
H1417 H 0.33202 0.26454 0.65417 0.0
H1418 H 0.29036 0.29611 0.72297 0.0
H1419 H 0.29124 0.2837 0.68143 0.0
H1420 H 0.46326 0.38486 0.75273 0.0
H1421 H 0.47041 0.36425 0.71466 0.0
H1422 H 0.45001 0.36663 0.79371 0.0
H1423 H 0.40822 0.35582 0.80602 0.0
C1424 C 0.88461 0.53666 0.61613 0.0
C1425 C 0.84899 0.55209 0.59213 0.0
C1426 C 0.80505 0.51396 0.61118 0.0
C1427 C 0.84009 0.50281 0.63831 0.0
N1428 N 0.91327 0.50538 0.66814 0.0
N1429 N 0.77451 0.55736 0.56785 0.0
C1430 C 0.87996 0.51446 0.64103 0.0
C1431 C 0.80896 0.54092 0.58967 0.0
N1432 N 0.92306 0.54245 0.61429 0.0
N1433 N 0.76823 0.4983 0.60572 0.0
H1434 H 0.77622 0.57765 0.55243 0.0
H1435 H 0.7442 0.55308 0.56682 0.0
H1436 H 0.76444 0.47888 0.62123 0.0
H1437 H 0.74261 0.50202 0.58439 0.0
H1438 H 0.95049 0.52891 0.62852 0.0
H1439 H 0.92711 0.55826 0.59606 0.0
H1440 H 0.94204 0.51644 0.6737 0.0
H1441 H 0.91149 0.48875 0.68662 0.0
C1442 C 0.35337 0.76802 0.70976 0.0
C1443 C 0.33064 0.76713 0.67515 0.0
C1444 C 0.28115 0.81701 0.68833 0.0
C1445 C 0.30657 0.81965 0.72224 0.0
N1446 N 0.37511 0.80676 0.76154 0.0
N1447 N 0.26186 0.77795 0.63663 0.0
C1448 C 0.34483 0.79756 0.73218 0.0
C1449 C 0.29192 0.78906 0.66509 0.0
N1450 N 0.38381 0.74054 0.72105 0.0
N1451 N 0.24721 0.84166 0.67822 0.0
H1452 H 0.26425 0.75094 0.62616 0.0
H1453 H 0.23207 0.79099 0.62833 0.0
H1454 H 0.23864 0.86222 0.69506 0.0
H1455 H 0.23011 0.84408 0.65282 0.0
H1456 H 0.39914 0.73796 0.74681 0.0
H1457 H 0.39009 0.7182 0.70468 0.0
H1458 H 0.40533 0.79433 0.76703 0.0
H1459 H 0.37212 0.82964 0.77824 0.0
loop_
_geom_bond_atom_site_label_1
_geom_bond_atom_site_label_2
_geom_bond_distance
_geom_bond_site_symmetry_2
_ccdc_geom_bond_type
Cu0 N1 1.999 . S
Cu0 O6 1.974 . S
Cu0 N11 1.985 1_455 S
Cu0 O20 1.959 1_455 S
N1 Cu0 1.999 . S
N1 C3 1.263 . S
N1 C5 1.389 . S
N2 C3 1.358 . S
N2 C4 1.400 . S
C3 N1 1.263 . S
C3 N2 1.358 . S
C3 H9 0.930 . S
C4 N2 1.400 . S
C4 C5 1.351 . S
C4 H21 0.930 . S
C5 N1 1.389 . S
C5 C4 1.351 . S
C5 H10 0.930 . S
O6 Cu0 1.974 . S
O6 C16 1.282 . S
C7 O8 1.261 . S
C7 O20 1.251 . S
O8 C7 1.261 . S
H9 C3 0.930 . S
H10 C5 0.930 . S
N11 Cu0 1.985 1_655 S
N11 C13 1.335 . S
N11 C14 1.390 1_655 S
N12 C13 1.345 . S
N12 C15 1.336 1_545 S
C13 N11 1.335 . S
C13 N12 1.345 . S
C13 H18 0.930 . S
C14 N11 1.390 1_455 S
C14 C15 1.346 1_445 S
C14 H19 0.930 . S
C15 N12 1.336 1_565 S
C15 C14 1.346 1_665 S
C15 H22 0.929 . S
C16 O6 1.282 . S
C16 O17 1.216 . S
O17 C16 1.216 . S
H18 C13 0.930 . S
H19 C14 0.930 . S
O20 Cu0 1.959 1_655 S
O20 C7 1.251 . S
H21 C4 0.930 . S
H22 C15 0.929 . S
Cu23 N24 1.999 1_455 S
Cu23 O29 1.974 1_455 S
Cu23 N34 1.985 . S
Cu23 O43 1.959 . S
N24 Cu23 1.999 1_655 S
N24 C26 1.263 . S
N24 C28 1.389 . S
N25 C26 1.358 . S
N25 C27 1.400 . S
C26 N24 1.263 . S
C26 N25 1.358 . S
C26 H32 0.930 . S
C27 N25 1.400 . S
C27 C28 1.351 . S
C27 H44 0.930 1_545 S
C28 N24 1.389 . S
C28 C27 1.351 . S
C28 H33 0.930 1_655 S
O29 Cu23 1.974 1_655 S
O29 C39 1.282 . S
C30 O31 1.261 . S
C30 O43 1.251 . S
O31 C30 1.261 . S
H32 C26 0.930 . S
H33 C28 0.930 1_455 S
N34 Cu23 1.985 . S
N34 C36 1.335 . S
N34 C37 1.390 . S
N35 C36 1.345 . S
N35 C38 1.336 . S
C36 N34 1.335 . S
C36 N35 1.345 . S
C36 H41 0.930 . S
C37 N34 1.390 . S
C37 C38 1.346 . S
C37 H42 0.930 . S
C38 N35 1.336 . S
C38 C37 1.346 . S
C38 H45 0.929 . S
C39 O29 1.282 . S
C39 O40 1.216 . S
O40 C39 1.216 . S
H41 C36 0.930 . S
H42 C37 0.930 . S
O43 Cu23 1.959 . S
O43 C30 1.251 . S
H44 C27 0.930 1_565 S
H45 C38 0.929 . S
Cu46 N47 1.999 1_544 S
Cu46 O52 1.974 1_545 S
Cu46 N57 1.985 . S
Cu46 O66 1.959 1_554 S
N47 Cu46 1.999 1_566 S
N47 C49 1.263 . S
N47 C51 1.389 . S
N48 C49 1.358 . S
N48 C50 1.400 . S
C49 N47 1.263 . S
C49 N48 1.358 . S
C49 H55 0.930 . S
C50 N48 1.400 . S
C50 C51 1.351 . S
C50 H67 0.930 . S
C51 N47 1.389 . S
C51 C50 1.351 . S
C51 H56 0.930 . S
O52 Cu46 1.974 1_565 S
O52 C62 1.282 . S
C53 O54 1.261 . S
C53 O66 1.251 . S
O54 C53 1.261 . S
H55 C49 0.930 . S
H56 C51 0.930 . S
N57 Cu46 1.985 . S
N57 C59 1.335 . S
N57 C60 1.390 . S
N58 C59 1.345 . S
N58 C61 1.336 . S
C59 N57 1.335 . S
C59 N58 1.345 . S
C59 H64 0.930 . S
C60 N57 1.390 . S
C60 C61 1.346 . S
C60 H65 0.930 . S
C61 N58 1.336 . S
C61 C60 1.346 . S
C61 H68 0.929 . S
C62 O52 1.282 . S
C62 O63 1.216 . S
O63 C62 1.216 . S
H64 C59 0.930 . S
H65 C60 0.930 . S
O66 Cu46 1.959 1_556 S
O66 C53 1.251 . S
H67 C50 0.930 . S
H68 C61 0.929 . S
Cu69 N70 1.999 . S
Cu69 O75 1.974 . S
Cu69 N80 1.985 . S
Cu69 O89 1.959 . S
N70 Cu69 1.999 . S
N70 C72 1.263 . S
N70 C74 1.389 . S
N71 C72 1.358 . S
N71 C73 1.400 1_554 S
C72 N70 1.263 . S
C72 N71 1.358 . S
C72 H78 0.930 . S
C73 N71 1.400 1_556 S
C73 C74 1.351 1_556 S
C73 H90 0.930 . S
C74 N70 1.389 . S
C74 C73 1.351 1_554 S
C74 H79 0.930 1_554 S
O75 Cu69 1.974 . S
O75 C85 1.282 . S
C76 O77 1.261 1_655 S
C76 O89 1.251 1_655 S
O77 C76 1.261 1_455 S
H78 C72 0.930 . S
H79 C74 0.930 1_556 S
N80 Cu69 1.985 . S
N80 C82 1.335 1_455 S
N80 C83 1.390 . S
N81 C82 1.345 . S
N81 C84 1.336 1_655 S
C82 N80 1.335 1_655 S
C82 N81 1.345 . S
C82 H87 0.930 . S
C83 N80 1.390 . S
C83 C84 1.346 . S
C83 H88 0.930 . S
C84 N81 1.336 1_455 S
C84 C83 1.346 . S
C84 H91 0.929 . S
C85 O75 1.282 . S
C85 O86 1.216 . S
O86 C85 1.216 . S
H87 C82 0.930 . S
H88 C83 0.930 . S
O89 Cu69 1.959 . S
O89 C76 1.251 1_455 S
H90 C73 0.930 . S
H91 C84 0.929 . S
Cu92 N93 1.999 . S
Cu92 O98 1.974 . S
Cu92 N103 1.985 . S
Cu92 O112 1.959 . S
N93 Cu92 1.999 . S
N93 C95 1.263 . S
N93 C97 1.389 . S
N94 C95 1.358 . S
N94 C96 1.400 . S
C95 N93 1.263 . S
C95 N94 1.358 . S
C95 H101 0.930 . S
C96 N94 1.400 . S
C96 C97 1.351 . S
C96 H113 0.930 . S
C97 N93 1.389 . S
C97 C96 1.351 . S
C97 H102 0.930 . S
O98 Cu92 1.974 . S
O98 C108 1.282 . S
C99 O100 1.261 . S
C99 O112 1.251 . S
O100 C99 1.261 . S
H101 C95 0.930 . S
H102 C97 0.930 . S
N103 Cu92 1.985 . S
N103 C105 1.335 . S
N103 C106 1.390 . S
N104 C105 1.345 . S
N104 C107 1.336 . S
C105 N103 1.335 . S
C105 N104 1.345 . S
C105 H110 0.930 . S
C106 N103 1.390 . S
C106 C107 1.346 . S
C106 H111 0.930 . S
C107 N104 1.336 . S
C107 C106 1.346 . S
C107 H114 0.929 . S
C108 O98 1.282 . S
C108 O109 1.216 . S
O109 C108 1.216 . S
H110 C105 0.930 . S
H111 C106 0.930 . S
O112 Cu92 1.959 . S
O112 C99 1.251 . S
H113 C96 0.930 . S
H114 C107 0.929 . S
Cu115 N116 1.999 1_455 S
Cu115 O121 1.974 1_455 S
Cu115 N126 1.985 . S
Cu115 O135 1.959 . S
N116 Cu115 1.999 1_655 S
N116 C118 1.263 1_554 S
N116 C120 1.389 1_554 S
N117 C118 1.358 . S
N117 C119 1.400 . S
C118 N116 1.263 1_556 S
C118 N117 1.358 . S
C118 H124 0.930 1_556 S
C119 N117 1.400 . S
C119 C120 1.351 . S
C119 H136 0.930 . S
C120 N116 1.389 1_556 S
C120 C119 1.351 . S
C120 H125 0.930 1_655 S
O121 Cu115 1.974 1_655 S
O121 C131 1.282 . S
C122 O123 1.261 . S
C122 O135 1.251 . S
O123 C122 1.261 . S
H124 C118 0.930 1_554 S
H125 C120 0.930 1_455 S
N126 Cu115 1.985 . S
N126 C128 1.335 . S
N126 C129 1.390 . S
N127 C128 1.345 . S
N127 C130 1.336 . S
C128 N126 1.335 . S
C128 N127 1.345 . S
C128 H133 0.930 . S
C129 N126 1.390 . S
C129 C130 1.346 . S
C129 H134 0.930 . S
C130 N127 1.336 . S
C130 C129 1.346 . S
C130 H137 0.929 . S
C131 O121 1.282 . S
C131 O132 1.216 . S
O132 C131 1.216 . S
H133 C128 0.930 . S
H134 C129 0.930 . S
O135 Cu115 1.959 . S
O135 C122 1.251 . S
H136 C119 0.930 . S
H137 C130 0.929 . S
Cu138 N139 1.999 . S
Cu138 O144 1.974 . S
Cu138 N149 1.985 . S
Cu138 O158 1.959 . S
N139 Cu138 1.999 . S
N139 C141 1.263 . S
N139 C143 1.389 . S
N140 C141 1.358 . S
N140 C142 1.400 . S
C141 N139 1.263 . S
C141 N140 1.358 . S
C141 H147 0.930 . S
C142 N140 1.400 . S
C142 C143 1.351 . S
C142 H159 0.930 . S
C143 N139 1.389 . S
C143 C142 1.351 . S
C143 H148 0.930 . S
O144 Cu138 1.974 . S
O144 C154 1.282 . S
C145 O146 1.261 . S
C145 O158 1.251 . S
O146 C145 1.261 . S
H147 C141 0.930 . S
H148 C143 0.930 . S
N149 Cu138 1.985 . S
N149 C151 1.335 . S
N149 C152 1.390 . S
N150 C151 1.345 . S
N150 C153 1.336 . S
C151 N149 1.335 . S
C151 N150 1.345 . S
C151 H156 0.930 . S
C152 N149 1.390 . S
C152 C153 1.346 . S
C152 H157 0.930 . S
C153 N150 1.336 . S
C153 C152 1.346 . S
C153 H160 0.929 . S
C154 O144 1.282 . S
C154 O155 1.216 . S
O155 C154 1.216 . S
H156 C151 0.930 . S
H157 C152 0.930 . S
O158 Cu138 1.959 . S
O158 C145 1.251 . S
H159 C142 0.930 . S
H160 C153 0.929 . S
Cu161 N162 1.999 . S
Cu161 O167 1.974 . S
Cu161 N172 1.985 . S
Cu161 O181 1.959 . S
N162 Cu161 1.999 . S
N162 C164 1.263 . S
N162 C166 1.389 . S
N163 C164 1.358 . S
N163 C165 1.400 . S
C164 N162 1.263 . S
C164 N163 1.358 . S
C164 H170 0.930 . S
C165 N163 1.400 . S
C165 C166 1.351 . S
C165 H182 0.930 . S
C166 N162 1.389 . S
C166 C165 1.351 . S
C166 H171 0.930 . S
O167 Cu161 1.974 . S
O167 C177 1.282 . S
C168 O169 1.261 . S
C168 O181 1.251 . S
O169 C168 1.261 . S
H170 C164 0.930 . S
H171 C166 0.930 . S
N172 Cu161 1.985 . S
N172 C174 1.335 . S
N172 C175 1.390 . S
N173 C174 1.345 . S
N173 C176 1.336 . S
C174 N172 1.335 . S
C174 N173 1.345 . S
C174 H179 0.930 . S
C175 N172 1.390 . S
C175 C176 1.346 . S
C175 H180 0.930 . S
C176 N173 1.336 . S
C176 C175 1.346 . S
C176 H183 0.929 . S
C177 O167 1.282 . S
C177 O178 1.216 . S
O178 C177 1.216 . S
H179 C174 0.930 . S
H180 C175 0.930 . S
O181 Cu161 1.959 . S
O181 C168 1.251 . S
H182 C165 0.930 . S
H183 C176 0.929 . S
Cu184 N185 1.999 . S
Cu184 O190 1.974 . S
Cu184 N195 1.985 . S
Cu184 O204 1.959 . S
N185 Cu184 1.999 . S
N185 C187 1.263 . S
N185 C189 1.389 . S
N186 C187 1.358 . S
N186 C188 1.400 . S
C187 N185 1.263 . S
C187 N186 1.358 . S
C187 H193 0.930 . S
C188 N186 1.400 . S
C188 C189 1.351 . S
C188 H205 0.930 . S
C189 N185 1.389 . S
C189 C188 1.351 . S
C189 H194 0.930 . S
O190 Cu184 1.974 . S
O190 C200 1.282 . S
C191 O192 1.261 . S
C191 O204 1.251 . S
O192 C191 1.261 . S
H193 C187 0.930 . S
H194 C189 0.930 . S
N195 Cu184 1.985 . S
N195 C197 1.335 . S
N195 C198 1.390 . S
N196 C197 1.345 . S
N196 C199 1.336 . S
C197 N195 1.335 . S
C197 N196 1.345 . S
C197 H202 0.930 . S
C198 N195 1.390 . S
C198 C199 1.346 . S
C198 H203 0.930 . S
C199 N196 1.336 . S
C199 C198 1.346 . S
C199 H206 0.929 . S
C200 O190 1.282 . S
C200 O201 1.216 . S
O201 C200 1.216 . S
H202 C197 0.930 . S
H203 C198 0.930 . S
O204 Cu184 1.959 . S
O204 C191 1.251 . S
H205 C188 0.930 . S
H206 C199 0.929 . S
Cu207 N208 1.999 . S
Cu207 O213 1.974 . S
Cu207 N218 1.985 . S
Cu207 O227 1.959 . S
N208 Cu207 1.999 . S
N208 C210 1.263 . S
N208 C212 1.389 . S
N209 C210 1.358 . S
N209 C211 1.400 . S
C210 N208 1.263 . S
C210 N209 1.358 . S
C210 H216 0.930 . S
C211 N209 1.400 . S
C211 C212 1.351 . S
C211 H228 0.921 1_565 S
C212 N208 1.389 . S
C212 C211 1.351 . S
C212 H217 0.930 1_565 S
O213 Cu207 1.974 . S
O213 C223 1.282 . S
C214 O215 1.261 . S
C214 O227 1.251 . S
O215 C214 1.261 . S
H216 C210 0.930 . S
H217 C212 0.930 1_545 S
N218 Cu207 1.985 . S
N218 C220 1.335 . S
N218 C221 1.390 . S
N219 C220 1.345 . S
N219 C222 1.336 . S
C220 N218 1.335 . S
C220 N219 1.345 . S
C220 H225 0.930 . S
C221 N218 1.390 . S
C221 C222 1.346 . S
C221 H226 0.930 . S
C222 N219 1.336 . S
C222 C221 1.346 . S
C222 H229 0.929 . S
C223 O213 1.282 . S
C223 O224 1.216 . S
O224 C223 1.216 . S
H225 C220 0.930 . S
H226 C221 0.930 . S
O227 Cu207 1.959 . S
O227 C214 1.251 . S
H228 C211 0.921 1_545 S
H229 C222 0.929 . S
Cu230 N231 1.999 . S
Cu230 O236 1.974 . S
Cu230 N241 1.985 . S
Cu230 O250 1.959 . S
N231 Cu230 1.999 . S
N231 C233 1.263 . S
N231 C235 1.389 . S
N232 C233 1.358 . S
N232 C234 1.400 . S
C233 N231 1.263 . S
C233 N232 1.358 . S
C233 H239 0.930 . S
C234 N232 1.400 . S
C234 C235 1.351 . S
C234 H251 0.930 . S
C235 N231 1.389 . S
C235 C234 1.351 . S
C235 H240 0.930 . S
O236 Cu230 1.974 . S
O236 C246 1.282 . S
C237 O238 1.261 . S
C237 O250 1.251 . S
O238 C237 1.261 . S
H239 C233 0.930 . S
H240 C235 0.930 . S
N241 Cu230 1.985 . S
N241 C243 1.335 . S
N241 C244 1.390 . S
N242 C243 1.345 . S
N242 C245 1.336 . S
C243 N241 1.335 . S
C243 N242 1.345 . S
C243 H248 0.930 . S
C244 N241 1.390 . S
C244 C245 1.346 . S
C244 H249 0.930 . S
C245 N242 1.336 . S
C245 C244 1.346 . S
C245 H252 0.929 . S
C246 O236 1.282 . S
C246 O247 1.216 . S
O247 C246 1.216 . S
H248 C243 0.930 . S
H249 C244 0.930 . S
O250 Cu230 1.959 . S
O250 C237 1.251 . S
H251 C234 0.930 . S
H252 C245 0.929 . S
Cu253 N254 1.999 . S
Cu253 O259 1.974 . S
Cu253 N264 1.985 . S
Cu253 O273 1.959 . S
N254 Cu253 1.999 . S
N254 C256 1.263 . S
N254 C258 1.389 . S
N255 C256 1.358 . S
N255 C257 1.400 . S
C256 N254 1.263 . S
C256 N255 1.358 . S
C256 H262 0.930 . S
C257 N255 1.400 . S
C257 C258 1.351 . S
C257 H274 0.930 . S
C258 N254 1.389 . S
C258 C257 1.351 . S
C258 H263 0.930 . S
O259 Cu253 1.974 . S
O259 C269 1.282 . S
C260 O261 1.261 . S
C260 O273 1.251 . S
O261 C260 1.261 . S
H262 C256 0.930 . S
H263 C258 0.930 . S
N264 Cu253 1.985 . S
N264 C266 1.335 . S
N264 C267 1.390 . S
N265 C266 1.345 . S
N265 C268 1.336 . S
C266 N264 1.335 . S
C266 N265 1.345 . S
C266 H271 0.930 . S
C267 N264 1.390 . S
C267 C268 1.346 . S
C267 H272 0.930 . S
C268 N265 1.336 . S
C268 C267 1.346 . S
C268 H275 0.929 . S
C269 O259 1.282 . S
C269 O270 1.216 . S
O270 C269 1.216 . S
H271 C266 0.930 . S
H272 C267 0.930 . S
O273 Cu253 1.959 . S
O273 C260 1.251 . S
H274 C257 0.930 . S
H275 C268 0.929 . S
Nd276 C278 2.836 . S
Nd276 O296 2.500 . S
Nd276 O297 2.492 . S
Nd276 O298 2.487 . S
Nd276 O299 2.682 . S
Nd276 O300 2.410 . S
Nd276 O305 2.414 . S
Nd276 O307 2.424 . S
Nd277 C287 2.836 . S
Nd277 O299 2.414 . S
Nd277 O301 2.424 . S
Nd277 O302 2.500 . S
Nd277 O303 2.492 . S
Nd277 O304 2.487 . S
Nd277 O305 2.682 . S
Nd277 O306 2.410 . S
C278 Nd276 2.836 . S
C278 C279 1.498 . S
C278 O296 1.258 . S
C278 O297 1.239 . S
C279 C278 1.498 . S
C279 C280 1.366 . S
C279 C284 1.407 . S
C280 C279 1.366 . S
C280 C281 1.392 . S
C280 H308 0.930 . S
C281 C280 1.392 . S
C281 C282 1.398 . S
C281 H309 0.929 . S
C282 C281 1.398 . S
C282 C283 1.352 . S
C283 C282 1.352 . S
C283 C284 1.384 . S
C283 H310 0.930 . S
C284 C279 1.407 . S
C284 C283 1.384 . S
C284 H311 0.929 . S
C285 O298 1.241 . S
C285 O299 1.273 . S
C286 O300 1.251 . S
C286 O301 1.268 . S
C287 Nd277 2.836 . S
C287 C288 1.498 . S
C287 O302 1.258 . S
C287 O303 1.239 . S
C288 C287 1.498 . S
C288 C289 1.366 . S
C288 C293 1.407 . S
C289 C288 1.366 . S
C289 C290 1.392 . S
C289 H312 0.930 . S
C290 C289 1.392 . S
C290 C291 1.398 . S
C290 H313 0.929 . S
C291 C290 1.398 . S
C291 C292 1.352 . S
C292 C291 1.352 . S
C292 C293 1.384 . S
C292 H314 0.930 . S
C293 C288 1.407 . S
C293 C292 1.384 . S
C293 H315 0.929 . S
C294 O304 1.241 . S
C294 O305 1.273 . S
C295 O306 1.251 . S
C295 O307 1.268 . S
O296 Nd276 2.500 . S
O296 C278 1.258 . S
O297 Nd276 2.492 . S
O297 C278 1.239 . S
O298 Nd276 2.487 . S
O298 C285 1.241 . S
O299 Nd276 2.682 . S
O299 Nd277 2.414 . S
O299 C285 1.273 . S
O300 Nd276 2.410 . S
O300 C286 1.251 . S
O301 Nd277 2.424 . S
O301 C286 1.268 . S
O302 Nd277 2.500 . S
O302 C287 1.258 . S
O303 Nd277 2.492 . S
O303 C287 1.239 . S
O304 Nd277 2.487 . S
O304 C294 1.241 . S
O305 Nd276 2.414 . S
O305 Nd277 2.682 . S
O305 C294 1.273 . S
O306 Nd277 2.410 . S
O306 C295 1.251 . S
O307 Nd276 2.424 . S
O307 C295 1.268 . S
H308 C280 0.930 . S
H309 C281 0.929 . S
H310 C283 0.930 . S
H311 C284 0.929 . S
H312 C289 0.930 . S
H313 C290 0.929 . S
H314 C292 0.930 . S
H315 C293 0.929 . S
Nd316 C318 2.836 . S
Nd316 O336 2.500 . S
Nd316 O337 2.492 . S
Nd316 O338 2.487 . S
Nd316 O339 2.682 . S
Nd316 O340 2.410 . S
Nd316 O345 2.414 . S
Nd316 O347 2.424 . S
Nd317 C327 2.836 . S
Nd317 O339 2.414 . S
Nd317 O341 2.424 . S
Nd317 O342 2.500 . S
Nd317 O343 2.492 . S
Nd317 O344 2.487 . S
Nd317 O345 2.682 . S
Nd317 O346 2.410 . S
C318 Nd316 2.836 . S
C318 C319 1.498 . S
C318 O336 1.258 . S
C318 O337 1.239 . S
C319 C318 1.498 . S
C319 C320 1.366 . S
C319 C324 1.407 . S
C320 C319 1.366 . S
C320 C321 1.392 . S
C320 H348 0.930 . S
C321 C320 1.392 . S
C321 C322 1.398 . S
C321 H349 0.929 . S
C322 C321 1.398 . S
C322 C323 1.352 . S
C323 C322 1.352 . S
C323 C324 1.384 . S
C323 H350 0.930 . S
C324 C319 1.407 . S
C324 C323 1.384 . S
C324 H351 0.929 . S
C325 O338 1.241 . S
C325 O339 1.273 . S
C326 O340 1.251 . S
C326 O341 1.268 . S
C327 Nd317 2.836 . S
C327 C328 1.498 . S
C327 O342 1.258 . S
C327 O343 1.239 . S
C328 C327 1.498 . S
C328 C329 1.366 . S
C328 C333 1.407 . S
C329 C328 1.366 . S
C329 C330 1.392 . S
C329 H352 0.930 . S
C330 C329 1.392 . S
C330 C331 1.398 . S
C330 H353 0.929 . S
C331 C330 1.398 . S
C331 C332 1.352 . S
C332 C331 1.352 . S
C332 C333 1.384 . S
C332 H354 0.930 . S
C333 C328 1.407 . S
C333 C332 1.384 . S
C333 H355 0.929 . S
C334 O344 1.241 . S
C334 O345 1.273 . S
C335 O346 1.251 . S
C335 O347 1.268 . S
O336 Nd316 2.500 . S
O336 C318 1.258 . S
O337 Nd316 2.492 . S
O337 C318 1.239 . S
O338 Nd316 2.487 . S
O338 C325 1.241 . S
O339 Nd316 2.682 . S
O339 Nd317 2.414 . S
O339 C325 1.273 . S
O340 Nd316 2.410 . S
O340 C326 1.251 . S
O341 Nd317 2.424 . S
O341 C326 1.268 . S
O342 Nd317 2.500 . S
O342 C327 1.258 . S
O343 Nd317 2.492 . S
O343 C327 1.239 . S
O344 Nd317 2.487 . S
O344 C334 1.241 . S
O345 Nd316 2.414 . S
O345 Nd317 2.682 . S
O345 C334 1.273 . S
O346 Nd317 2.410 . S
O346 C335 1.251 . S
O347 Nd316 2.424 . S
O347 C335 1.268 . S
H348 C320 0.930 . S
H349 C321 0.929 . S
H350 C323 0.930 . S
H351 C324 0.929 . S
H352 C329 0.930 . S
H353 C330 0.929 . S
H354 C332 0.930 . S
H355 C333 0.929 . S
Nd356 C358 2.836 . S
Nd356 O376 2.500 . S
Nd356 O377 2.492 . S
Nd356 O378 2.487 . S
Nd356 O379 2.682 . S
Nd356 O380 2.410 . S
Nd356 O385 2.414 . S
Nd356 O387 2.424 . S
Nd357 C367 2.836 . S
Nd357 O379 2.414 . S
Nd357 O381 2.424 . S
Nd357 O382 2.500 . S
Nd357 O383 2.492 . S
Nd357 O384 2.487 . S
Nd357 O385 2.682 . S
Nd357 O386 2.410 . S
C358 Nd356 2.836 . S
C358 C359 1.498 . S
C358 O376 1.258 . S
C358 O377 1.239 . S
C359 C358 1.498 . S
C359 C360 1.366 . S
C359 C364 1.407 . S
C360 C359 1.366 . S
C360 C361 1.392 . S
C360 H388 0.930 . S
C361 C360 1.392 . S
C361 C362 1.398 . S
C361 H389 0.929 . S
C362 C361 1.398 . S
C362 C363 1.352 . S
C363 C362 1.352 . S
C363 C364 1.384 . S
C363 H390 0.930 . S
C364 C359 1.407 . S
C364 C363 1.384 . S
C364 H391 0.929 . S
C365 O378 1.241 . S
C365 O379 1.273 . S
C366 O380 1.251 . S
C366 O381 1.268 . S
C367 Nd357 2.836 . S
C367 C368 1.498 . S
C367 O382 1.258 . S
C367 O383 1.239 . S
C368 C367 1.498 . S
C368 C369 1.366 . S
C368 C373 1.407 . S
C369 C368 1.366 . S
C369 C370 1.392 . S
C369 H392 0.930 . S
C370 C369 1.392 . S
C370 C371 1.398 . S
C370 H393 0.929 . S
C371 C370 1.398 . S
C371 C372 1.352 . S
C372 C371 1.352 . S
C372 C373 1.384 . S
C372 H394 0.930 . S
C373 C368 1.407 . S
C373 C372 1.384 . S
C373 H395 0.929 . S
C374 O384 1.241 . S
C374 O385 1.273 . S
C375 O386 1.251 . S
C375 O387 1.268 . S
O376 Nd356 2.500 . S
O376 C358 1.258 . S
O377 Nd356 2.492 . S
O377 C358 1.239 . S
O378 Nd356 2.487 . S
O378 C365 1.241 . S
O379 Nd356 2.682 . S
O379 Nd357 2.414 . S
O379 C365 1.273 . S
O380 Nd356 2.410 . S
O380 C366 1.251 . S
O381 Nd357 2.424 . S
O381 C366 1.268 . S
O382 Nd357 2.500 . S
O382 C367 1.258 . S
O383 Nd357 2.492 . S
O383 C367 1.239 . S
O384 Nd357 2.487 . S
O384 C374 1.241 . S
O385 Nd356 2.414 . S
O385 Nd357 2.682 . S
O385 C374 1.273 . S
O386 Nd357 2.410 . S
O386 C375 1.251 . S
O387 Nd356 2.424 . S
O387 C375 1.268 . S
H388 C360 0.930 . S
H389 C361 0.929 . S
H390 C363 0.930 . S
H391 C364 0.929 . S
H392 C369 0.930 . S
H393 C370 0.929 . S
H394 C372 0.930 . S
H395 C373 0.929 . S
Nd396 C398 2.836 . S
Nd396 O416 2.500 . S
Nd396 O417 2.492 . S
Nd396 O418 2.487 . S
Nd396 O419 2.682 . S
Nd396 O420 2.410 . S
Nd396 O425 2.414 . S
Nd396 O427 2.424 . S
Nd397 C407 2.836 . S
Nd397 O419 2.414 . S
Nd397 O421 2.424 . S
Nd397 O422 2.500 . S
Nd397 O423 2.492 . S
Nd397 O424 2.487 . S
Nd397 O425 2.682 . S
Nd397 O426 2.410 . S
C398 Nd396 2.836 . S
C398 C399 1.498 . S
C398 O416 1.258 . S
C398 O417 1.239 . S
C399 C398 1.498 . S
C399 C400 1.366 . S
C399 C404 1.407 . S
C400 C399 1.366 . S
C400 C401 1.392 . S
C400 H428 0.930 . S
C401 C400 1.392 . S
C401 C402 1.398 . S
C401 H429 0.929 . S
C402 C401 1.398 . S
C402 C403 1.352 . S
C403 C402 1.352 . S
C403 C404 1.384 . S
C403 H430 0.930 . S
C404 C399 1.407 . S
C404 C403 1.384 . S
C404 H431 0.929 . S
C405 O418 1.241 . S
C405 O419 1.273 . S
C406 O420 1.251 . S
C406 O421 1.268 . S
C407 Nd397 2.836 . S
C407 C408 1.498 . S
C407 O422 1.258 . S
C407 O423 1.239 . S
C408 C407 1.498 . S
C408 C409 1.366 . S
C408 C413 1.407 . S
C409 C408 1.366 . S
C409 C410 1.392 . S
C409 H432 0.930 . S
C410 C409 1.392 . S
C410 C411 1.398 . S
C410 H433 0.929 . S
C411 C410 1.398 . S
C411 C412 1.352 . S
C412 C411 1.352 . S
C412 C413 1.384 . S
C412 H434 0.930 . S
C413 C408 1.407 . S
C413 C412 1.384 . S
C413 H435 0.929 . S
C414 O424 1.241 . S
C414 O425 1.273 . S
C415 O426 1.251 . S
C415 O427 1.268 . S
O416 Nd396 2.500 . S
O416 C398 1.258 . S
O417 Nd396 2.492 . S
O417 C398 1.239 . S
O418 Nd396 2.487 . S
O418 C405 1.241 . S
O419 Nd396 2.682 . S
O419 Nd397 2.414 . S
O419 C405 1.273 . S
O420 Nd396 2.410 . S
O420 C406 1.251 . S
O421 Nd397 2.424 . S
O421 C406 1.268 . S
O422 Nd397 2.500 . S
O422 C407 1.258 . S
O423 Nd397 2.492 . S
O423 C407 1.239 . S
O424 Nd397 2.487 . S
O424 C414 1.241 . S
O425 Nd396 2.414 . S
O425 Nd397 2.682 . S
O425 C414 1.273 . S
O426 Nd397 2.410 . S
O426 C415 1.251 . S
O427 Nd396 2.424 . S
O427 C415 1.268 . S
H428 C400 0.930 . S
H429 C401 0.929 . S
H430 C403 0.930 . S
H431 C404 0.929 . S
H432 C409 0.930 . S
H433 C410 0.929 . S
H434 C412 0.930 . S
H435 C413 0.929 . S
Nd436 C438 2.836 . S
Nd436 O456 2.500 . S
Nd436 O457 2.492 . S
Nd436 O458 2.487 . S
Nd436 O459 2.682 . S
Nd436 O460 2.410 . S
Nd436 O465 2.414 . S
Nd436 O467 2.424 . S
Nd437 C447 2.836 . S
Nd437 O459 2.414 . S
Nd437 O461 2.424 . S
Nd437 O462 2.500 . S
Nd437 O463 2.492 . S
Nd437 O464 2.487 . S
Nd437 O465 2.682 . S
Nd437 O466 2.410 . S
C438 Nd436 2.836 . S
C438 C439 1.498 . S
C438 O456 1.258 . S
C438 O457 1.239 . S
C439 C438 1.498 . S
C439 C440 1.366 . S
C439 C444 1.407 . S
C440 C439 1.366 . S
C440 C441 1.392 . S
C440 H468 0.930 . S
C441 C440 1.392 . S
C441 C442 1.398 . S
C441 H469 0.929 . S
C442 C441 1.398 . S
C442 C443 1.352 . S
C443 C442 1.352 . S
C443 C444 1.384 . S
C443 H470 0.930 . S
C444 C439 1.407 . S
C444 C443 1.384 . S
C444 H471 0.929 . S
C445 O458 1.241 . S
C445 O459 1.273 . S
C446 O460 1.251 . S
C446 O461 1.268 . S
C447 Nd437 2.836 . S
C447 C448 1.498 . S
C447 O462 1.258 . S
C447 O463 1.239 . S
C448 C447 1.498 . S
C448 C449 1.366 . S
C448 C453 1.407 . S
C449 C448 1.366 . S
C449 C450 1.392 . S
C449 H472 0.930 . S
C450 C449 1.392 . S
C450 C451 1.398 . S
C450 H473 0.929 . S
C451 C450 1.398 . S
C451 C452 1.352 . S
C452 C451 1.352 . S
C452 C453 1.384 . S
C452 H474 0.930 . S
C453 C448 1.407 . S
C453 C452 1.384 . S
C453 H475 0.929 . S
C454 O464 1.241 . S
C454 O465 1.273 . S
C455 O466 1.251 . S
C455 O467 1.268 . S
O456 Nd436 2.500 . S
O456 C438 1.258 . S
O457 Nd436 2.492 . S
O457 C438 1.239 . S
O458 Nd436 2.487 . S
O458 C445 1.241 . S
O459 Nd436 2.682 . S
O459 Nd437 2.414 . S
O459 C445 1.273 . S
O460 Nd436 2.410 . S
O460 C446 1.251 . S
O461 Nd437 2.424 . S
O461 C446 1.268 . S
O462 Nd437 2.500 . S
O462 C447 1.258 . S
O463 Nd437 2.492 . S
O463 C447 1.239 . S
O464 Nd437 2.487 . S
O464 C454 1.241 . S
O465 Nd436 2.414 . S
O465 Nd437 2.682 . S
O465 C454 1.273 . S
O466 Nd437 2.410 . S
O466 C455 1.251 . S
O467 Nd436 2.424 . S
O467 C455 1.268 . S
H468 C440 0.930 . S
H469 C441 0.929 . S
H470 C443 0.930 . S
H471 C444 0.929 . S
H472 C449 0.930 . S
H473 C450 0.929 . S
H474 C452 0.930 . S
H475 C453 0.929 . S
Nd476 C478 2.836 . S
Nd476 O496 2.500 . S
Nd476 O497 2.492 . S
Nd476 O498 2.487 . S
Nd476 O499 2.682 . S
Nd476 O500 2.410 . S
Nd476 O505 2.414 . S
Nd476 O507 2.424 . S
Nd477 C487 2.836 . S
Nd477 O499 2.414 . S
Nd477 O501 2.424 . S
Nd477 O502 2.500 . S
Nd477 O503 2.492 . S
Nd477 O504 2.487 . S
Nd477 O505 2.682 . S
Nd477 O506 2.410 . S
C478 Nd476 2.836 . S
C478 C479 1.498 . S
C478 O496 1.258 . S
C478 O497 1.239 . S
C479 C478 1.498 . S
C479 C480 1.366 . S
C479 C484 1.407 . S
C480 C479 1.366 . S
C480 C481 1.392 . S
C480 H508 0.930 . S
C481 C480 1.392 . S
C481 C482 1.398 . S
C481 H509 0.929 . S
C482 C481 1.398 . S
C482 C483 1.352 . S
C483 C482 1.352 . S
C483 C484 1.384 . S
C483 H510 0.930 . S
C484 C479 1.407 . S
C484 C483 1.384 . S
C484 H511 0.929 . S
C485 O498 1.241 . S
C485 O499 1.273 . S
C486 O500 1.251 . S
C486 O501 1.268 . S
C487 Nd477 2.836 . S
C487 C488 1.498 . S
C487 O502 1.258 . S
C487 O503 1.239 . S
C488 C487 1.498 . S
C488 C489 1.366 . S
C488 C493 1.407 . S
C489 C488 1.366 . S
C489 C490 1.392 . S
C489 H512 0.930 . S
C490 C489 1.392 . S
C490 C491 1.398 . S
C490 H513 0.929 . S
C491 C490 1.398 . S
C491 C492 1.352 . S
C492 C491 1.352 . S
C492 C493 1.384 . S
C492 H514 0.930 . S
C493 C488 1.407 . S
C493 C492 1.384 . S
C493 H515 0.929 . S
C494 O504 1.241 . S
C494 O505 1.273 . S
C495 O506 1.251 . S
C495 O507 1.268 . S
O496 Nd476 2.500 . S
O496 C478 1.258 . S
O497 Nd476 2.492 . S
O497 C478 1.239 . S
O498 Nd476 2.487 . S
O498 C485 1.241 . S
O499 Nd476 2.682 . S
O499 Nd477 2.414 . S
O499 C485 1.273 . S
O500 Nd476 2.410 . S
O500 C486 1.251 . S
O501 Nd477 2.424 . S
O501 C486 1.268 . S
O502 Nd477 2.500 . S
O502 C487 1.258 . S
O503 Nd477 2.492 . S
O503 C487 1.239 . S
O504 Nd477 2.487 . S
O504 C494 1.241 . S
O505 Nd476 2.414 . S
O505 Nd477 2.682 . S
O505 C494 1.273 . S
O506 Nd477 2.410 . S
O506 C495 1.251 . S
O507 Nd476 2.424 . S
O507 C495 1.268 . S
H508 C480 0.930 . S
H509 C481 0.929 . S
H510 C483 0.930 . S
H511 C484 0.929 . S
H512 C489 0.930 . S
H513 C490 0.929 . S
H514 C492 0.930 . S
H515 C493 0.929 . S
Nd516 C518 2.836 . S
Nd516 O536 2.500 . S
Nd516 O537 2.492 . S
Nd516 O538 2.487 . S
Nd516 O539 2.682 . S
Nd516 O540 2.410 . S
Nd516 O545 2.414 . S
Nd516 O547 2.424 . S
Nd517 C527 2.836 . S
Nd517 O539 2.414 . S
Nd517 O541 2.424 . S
Nd517 O542 2.500 . S
Nd517 O543 2.492 . S
Nd517 O544 2.487 . S
Nd517 O545 2.682 . S
Nd517 O546 2.410 . S
C518 Nd516 2.836 . S
C518 C519 1.498 . S
C518 O536 1.258 . S
C518 O537 1.239 . S
C519 C518 1.498 . S
C519 C520 1.366 . S
C519 C524 1.407 . S
C520 C519 1.366 . S
C520 C521 1.392 . S
C520 H548 0.930 . S
C521 C520 1.392 . S
C521 C522 1.398 . S
C521 H549 0.929 . S
C522 C521 1.398 . S
C522 C523 1.352 . S
C523 C522 1.352 . S
C523 C524 1.384 . S
C523 H550 0.930 . S
C524 C519 1.407 . S
C524 C523 1.384 . S
C524 H551 0.929 . S
C525 O538 1.241 . S
C525 O539 1.273 . S
C526 O540 1.251 . S
C526 O541 1.268 . S
C527 Nd517 2.836 . S
C527 C528 1.498 . S
C527 O542 1.258 . S
C527 O543 1.239 . S
C528 C527 1.498 . S
C528 C529 1.366 . S
C528 C533 1.407 . S
C529 C528 1.366 . S
C529 C530 1.392 . S
C529 H552 0.930 . S
C530 C529 1.392 . S
C530 C531 1.398 1_556 S
C530 H553 0.929 . S
C531 C530 1.398 1_554 S
C531 C532 1.352 1_554 S
C532 C531 1.352 1_556 S
C532 C533 1.384 . S
C532 H554 0.930 1_556 S
C533 C528 1.407 . S
C533 C532 1.384 . S
C533 H555 0.929 . S
C534 O544 1.241 . S
C534 O545 1.273 . S
C535 O546 1.251 . S
C535 O547 1.268 . S
O536 Nd516 2.500 . S
O536 C518 1.258 . S
O537 Nd516 2.492 . S
O537 C518 1.239 . S
O538 Nd516 2.487 . S
O538 C525 1.241 . S
O539 Nd516 2.682 . S
O539 Nd517 2.414 . S
O539 C525 1.273 . S
O540 Nd516 2.410 . S
O540 C526 1.251 . S
O541 Nd517 2.424 . S
O541 C526 1.268 . S
O542 Nd517 2.500 . S
O542 C527 1.258 . S
O543 Nd517 2.492 . S
O543 C527 1.239 . S
O544 Nd517 2.487 . S
O544 C534 1.241 . S
O545 Nd516 2.414 . S
O545 Nd517 2.682 . S
O545 C534 1.273 . S
O546 Nd517 2.410 . S
O546 C535 1.251 . S
O547 Nd516 2.424 . S
O547 C535 1.268 . S
H548 C520 0.930 . S
H549 C521 0.929 . S
H550 C523 0.930 . S
H551 C524 0.929 . S
H552 C529 0.930 . S
H553 C530 0.929 . S
H554 C532 0.930 1_554 S
H555 C533 0.929 . S
Nd556 C558 2.836 . S
Nd556 O576 2.500 . S
Nd556 O577 2.492 . S
Nd556 O578 2.487 . S
Nd556 O579 2.682 . S
Nd556 O580 2.410 . S
Nd556 O585 2.414 . S
Nd556 O587 2.424 . S
Nd557 C567 2.836 . S
Nd557 O579 2.414 . S
Nd557 O581 2.424 . S
Nd557 O582 2.500 . S
Nd557 O583 2.492 . S
Nd557 O584 2.487 . S
Nd557 O585 2.682 . S
Nd557 O586 2.410 . S
C558 Nd556 2.836 . S
C558 C559 1.498 . S
C558 O576 1.258 . S
C558 O577 1.239 . S
C559 C558 1.498 . S
C559 C560 1.366 . S
C559 C564 1.407 . S
C560 C559 1.366 . S
C560 C561 1.392 . S
C560 H588 0.930 . S
C561 C560 1.392 . S
C561 C562 1.398 . S
C561 H589 0.929 . S
C562 C561 1.398 . S
C562 C563 1.352 . S
C563 C562 1.352 . S
C563 C564 1.384 . S
C563 H590 0.930 . S
C564 C559 1.407 . S
C564 C563 1.384 . S
C564 H591 0.929 . S
C565 O578 1.241 . S
C565 O579 1.273 . S
C566 O580 1.251 . S
C566 O581 1.268 . S
C567 Nd557 2.836 . S
C567 C568 1.498 . S
C567 O582 1.258 . S
C567 O583 1.239 . S
C568 C567 1.498 . S
C568 C569 1.366 . S
C568 C573 1.407 . S
C569 C568 1.366 . S
C569 C570 1.392 1_565 S
C569 H592 0.930 . S
C570 C569 1.392 1_545 S
C570 C571 1.398 . S
C570 H593 0.929 . S
C571 C570 1.398 . S
C571 C572 1.352 . S
C572 C571 1.352 . S
C572 C573 1.384 1_545 S
C572 H594 0.930 . S
C573 C568 1.407 . S
C573 C572 1.384 1_565 S
C573 H595 0.929 . S
C574 O584 1.241 . S
C574 O585 1.273 . S
C575 O586 1.251 . S
C575 O587 1.268 . S
O576 Nd556 2.500 . S
O576 C558 1.258 . S
O577 Nd556 2.492 . S
O577 C558 1.239 . S
O578 Nd556 2.487 . S
O578 C565 1.241 . S
O579 Nd556 2.682 . S
O579 Nd557 2.414 . S
O579 C565 1.273 . S
O580 Nd556 2.410 . S
O580 C566 1.251 . S
O581 Nd557 2.424 . S
O581 C566 1.268 . S
O582 Nd557 2.500 . S
O582 C567 1.258 . S
O583 Nd557 2.492 . S
O583 C567 1.239 . S
O584 Nd557 2.487 . S
O584 C574 1.241 . S
O585 Nd556 2.414 . S
O585 Nd557 2.682 . S
O585 C574 1.273 . S
O586 Nd557 2.410 . S
O586 C575 1.251 . S
O587 Nd556 2.424 . S
O587 C575 1.268 . S
H588 C560 0.930 . S
H589 C561 0.929 . S
H590 C563 0.930 . S
H591 C564 0.929 . S
H592 C569 0.930 . S
H593 C570 0.929 . S
H594 C572 0.930 . S
H595 C573 0.929 . S
C596 C597 1.363 . S
C596 C602 1.379 . S
C596 N604 1.356 . S
C597 C596 1.363 . S
C597 C603 1.363 . S
C598 C599 1.363 . S
C598 C603 1.379 . S
C598 N605 1.356 . S
C599 C598 1.363 . S
C599 C602 1.363 . S
N600 C602 1.356 . S
N600 H612 0.984 . S
N600 H613 0.985 . S
N601 C603 1.356 . S
N601 H606 0.984 . S
N601 H607 0.985 . S
C602 C596 1.379 . S
C602 C599 1.363 . S
C602 N600 1.356 . S
C603 C597 1.363 . S
C603 C598 1.379 . S
C603 N601 1.356 . S
N604 C596 1.356 . S
N604 H610 0.984 . S
N604 H611 0.984 . S
N605 C598 1.356 . S
N605 H608 0.984 . S
N605 H609 0.985 . S
H606 N601 0.984 . S
H607 N601 0.985 . S
H608 N605 0.984 . S
H609 N605 0.985 . S
H610 N604 0.984 . S
H611 N604 0.984 . S
H612 N600 0.984 . S
H613 N600 0.985 . S
C614 C615 1.363 . S
C614 C620 1.379 . S
C614 N622 1.356 . S
C615 C614 1.363 . S
C615 C621 1.363 . S
C616 C617 1.363 . S
C616 C621 1.379 . S
C616 N623 1.356 . S
C617 C616 1.363 . S
C617 C620 1.363 . S
N618 C620 1.356 . S
N618 H630 0.984 . S
N618 H631 0.985 . S
N619 C621 1.356 . S
N619 H624 0.984 . S
N619 H625 0.985 . S
C620 C614 1.379 . S
C620 C617 1.363 . S
C620 N618 1.356 . S
C621 C615 1.363 . S
C621 C616 1.379 . S
C621 N619 1.356 . S
N622 C614 1.356 . S
N622 H628 0.984 . S
N622 H629 0.984 . S
N623 C616 1.356 . S
N623 H626 0.984 . S
N623 H627 0.985 . S
H624 N619 0.984 . S
H625 N619 0.985 . S
H626 N623 0.984 . S
H627 N623 0.985 . S
H628 N622 0.984 . S
H629 N622 0.984 . S
H630 N618 0.984 . S
H631 N618 0.985 . S
C632 C633 1.363 . S
C632 C638 1.379 . S
C632 N640 1.356 . S
C633 C632 1.363 . S
C633 C639 1.363 . S
C634 C635 1.363 . S
C634 C639 1.379 . S
C634 N641 1.356 . S
C635 C634 1.363 . S
C635 C638 1.363 . S
N636 C638 1.356 . S
N636 H648 0.984 . S
N636 H649 0.985 . S
N637 C639 1.365 . S
N637 H642 0.977 1_565 S
N637 H643 0.981 1_565 S
C638 C632 1.379 . S
C638 C635 1.363 . S
C638 N636 1.356 . S
C639 C633 1.363 . S
C639 C634 1.379 . S
C639 N637 1.365 . S
N640 C632 1.356 . S
N640 H646 0.984 . S
N640 H647 0.984 . S
N641 C634 1.356 . S
N641 H644 0.984 . S
N641 H645 0.985 . S
H642 N637 0.977 1_545 S
H643 N637 0.981 1_545 S
H644 N641 0.984 . S
H645 N641 0.985 . S
H646 N640 0.984 . S
H647 N640 0.984 . S
H648 N636 0.984 . S
H649 N636 0.985 . S
C650 C651 1.363 1_565 S
C650 C656 1.379 . S
C650 N658 1.356 1_565 S
C651 C650 1.363 1_545 S
C651 C657 1.363 1_545 S
C652 C653 1.363 . S
C652 C657 1.379 . S
C652 N659 1.356 . S
C653 C652 1.363 . S
C653 C656 1.363 . S
N654 C656 1.356 . S
N654 H666 0.984 . S
N654 H667 0.985 . S
N655 C657 1.356 . S
N655 H660 0.984 1_565 S
N655 H661 0.985 . S
C656 C650 1.379 . S
C656 C653 1.363 . S
C656 N654 1.356 . S
C657 C651 1.363 1_565 S
C657 C652 1.379 . S
C657 N655 1.356 . S
N658 C650 1.356 1_545 S
N658 H664 0.984 . S
N658 H665 0.984 . S
N659 C652 1.356 . S
N659 H662 0.984 . S
N659 H663 0.985 . S
H660 N655 0.984 1_545 S
H661 N655 0.985 . S
H662 N659 0.984 . S
H663 N659 0.985 . S
H664 N658 0.984 . S
H665 N658 0.984 . S
H666 N654 0.984 . S
H667 N654 0.985 . S
C668 C669 1.363 . S
C668 C674 1.379 . S
C668 N676 1.356 . S
C669 C668 1.363 . S
C669 C675 1.363 . S
C670 C671 1.363 . S
C670 C675 1.379 . S
C670 N677 1.356 . S
C671 C670 1.363 . S
C671 C674 1.363 . S
N672 C674 1.356 . S
N672 H684 0.984 . S
N672 H685 0.985 . S
N673 C675 1.356 1_545 S
N673 H678 0.984 . S
N673 H679 0.985 . S
C674 C668 1.379 . S
C674 C671 1.363 . S
C674 N672 1.356 . S
C675 C669 1.363 . S
C675 C670 1.379 . S
C675 N673 1.356 1_565 S
N676 C668 1.356 . S
N676 H682 0.984 . S
N676 H683 0.984 1_565 S
N677 C670 1.356 . S
N677 H680 0.984 . S
N677 H681 0.985 . S
H678 N673 0.984 . S
H679 N673 0.985 . S
H680 N677 0.984 . S
H681 N677 0.985 . S
H682 N676 0.984 . S
H683 N676 0.984 1_545 S
H684 N672 0.984 . S
H685 N672 0.985 . S
C686 C687 1.363 . S
C686 C692 1.379 . S
C686 N694 1.356 . S
C687 C686 1.363 . S
C687 C693 1.363 . S
C688 C689 1.363 . S
C688 C693 1.379 . S
C688 N695 1.356 . S
C689 C688 1.363 . S
C689 C692 1.363 . S
N690 C692 1.356 . S
N690 H702 0.984 . S
N690 H703 0.985 . S
N691 C693 1.356 . S
N691 H696 0.984 . S
N691 H697 0.985 . S
C692 C686 1.379 . S
C692 C689 1.363 . S
C692 N690 1.356 . S
C693 C687 1.363 . S
C693 C688 1.379 . S
C693 N691 1.356 . S
N694 C686 1.356 . S
N694 H700 0.984 . S
N694 H701 0.984 . S
N695 C688 1.356 . S
N695 H698 0.984 . S
N695 H699 0.985 . S
H696 N691 0.984 . S
H697 N691 0.985 . S
H698 N695 0.984 . S
H699 N695 0.985 . S
H700 N694 0.984 . S
H701 N694 0.984 . S
H702 N690 0.984 . S
H703 N690 0.985 . S
C704 C705 1.363 . S
C704 C710 1.379 . S
C704 N712 1.356 . S
C705 C704 1.363 . S
C705 C711 1.363 . S
C706 C707 1.363 . S
C706 C711 1.379 . S
C706 N713 1.356 . S
C707 C706 1.363 . S
C707 C710 1.363 . S
N708 C710 1.356 . S
N708 H720 0.984 . S
N708 H721 0.985 . S
N709 C711 1.356 . S
N709 H714 0.984 . S
N709 H715 0.985 . S
C710 C704 1.379 . S
C710 C707 1.363 . S
C710 N708 1.356 . S
C711 C705 1.363 . S
C711 C706 1.379 . S
C711 N709 1.356 . S
N712 C704 1.356 . S
N712 H718 0.984 . S
N712 H719 0.984 . S
N713 C706 1.356 . S
N713 H716 0.984 . S
N713 H717 0.985 . S
H714 N709 0.984 . S
H715 N709 0.985 . S
H716 N713 0.984 . S
H717 N713 0.985 . S
H718 N712 0.984 . S
H719 N712 0.984 . S
H720 N708 0.984 . S
H721 N708 0.985 . S
C722 C723 1.363 . S
C722 C728 1.379 . S
C722 N730 1.347 1_565 S
C723 C722 1.363 . S
C723 C729 1.363 . S
C724 C725 1.363 . S
C724 C729 1.379 . S
C724 N731 1.356 . S
C725 C724 1.363 . S
C725 C728 1.363 . S
N726 C728 1.356 . S
N726 H738 0.984 . S
N726 H739 0.985 . S
N727 C729 1.356 1_545 S
N727 H732 0.984 . S
N727 H733 0.985 . S
C728 C722 1.379 . S
C728 C725 1.363 . S
C728 N726 1.356 . S
C729 C723 1.363 . S
C729 C724 1.379 . S
C729 N727 1.356 1_565 S
N730 C722 1.347 1_545 S
N730 H736 0.979 1_545 S
N730 H737 1.001 . S
N731 C724 1.356 . S
N731 H734 0.984 . S
N731 H735 0.985 . S
H732 N727 0.984 . S
H733 N727 0.985 . S
H734 N731 0.984 . S
H735 N731 0.985 . S
H736 N730 0.979 1_565 S
H737 N730 1.001 . S
H738 N726 0.984 . S
H739 N726 0.985 . S
C740 C741 1.363 . S
C740 C746 1.379 . S
C740 N748 1.356 . S
C741 C740 1.363 . S
C741 C747 1.363 . S
C742 C743 1.363 . S
C742 C747 1.379 . S
C742 N749 1.356 . S
C743 C742 1.363 . S
C743 C746 1.363 . S
N744 C746 1.356 . S
N744 H756 0.984 . S
N744 H757 0.985 . S
N745 C747 1.356 . S
N745 H750 0.984 . S
N745 H751 0.985 . S
C746 C740 1.379 . S
C746 C743 1.363 . S
C746 N744 1.356 . S
C747 C741 1.363 . S
C747 C742 1.379 . S
C747 N745 1.356 . S
N748 C740 1.356 . S
N748 H754 0.984 . S
N748 H755 0.984 . S
N749 C742 1.356 . S
N749 H752 0.984 . S
N749 H753 0.985 . S
H750 N745 0.984 . S
H751 N745 0.985 . S
H752 N749 0.984 . S
H753 N749 0.985 . S
H754 N748 0.984 . S
H755 N748 0.984 . S
H756 N744 0.984 . S
H757 N744 0.985 . S
C758 C759 1.363 . S
C758 C764 1.379 . S
C758 N766 1.356 . S
C759 C758 1.363 . S
C759 C765 1.363 . S
C760 C761 1.363 . S
C760 C765 1.379 . S
C760 N767 1.356 . S
C761 C760 1.363 . S
C761 C764 1.363 . S
N762 C764 1.356 . S
N762 H774 0.984 . S
N762 H775 0.985 . S
N763 C765 1.356 . S
N763 H768 0.984 . S
N763 H769 0.985 . S
C764 C758 1.379 . S
C764 C761 1.363 . S
C764 N762 1.356 . S
C765 C759 1.363 . S
C765 C760 1.379 . S
C765 N763 1.356 . S
N766 C758 1.356 . S
N766 H772 0.984 . S
N766 H773 0.984 . S
N767 C760 1.356 . S
N767 H770 0.984 . S
N767 H771 0.985 . S
H768 N763 0.984 . S
H769 N763 0.985 . S
H770 N767 0.984 . S
H771 N767 0.985 . S
H772 N766 0.984 . S
H773 N766 0.984 . S
H774 N762 0.984 . S
H775 N762 0.985 . S
C776 C777 1.363 . S
C776 C782 1.379 . S
C776 N784 1.356 1_565 S
C777 C776 1.363 . S
C777 C783 1.363 . S
C778 C779 1.363 . S
C778 C783 1.379 . S
C778 N785 1.356 . S
C779 C778 1.363 . S
C779 C782 1.363 . S
N780 C782 1.356 . S
N780 H792 0.984 . S
N780 H793 0.985 . S
N781 C783 1.356 . S
N781 H786 0.984 1_565 S
N781 H787 0.985 . S
C782 C776 1.379 . S
C782 C779 1.363 . S
C782 N780 1.356 . S
C783 C777 1.363 . S
C783 C778 1.379 . S
C783 N781 1.356 . S
N784 C776 1.356 1_545 S
N784 H790 0.984 . S
N784 H791 0.984 . S
N785 C778 1.356 . S
N785 H788 0.984 . S
N785 H789 0.985 . S
H786 N781 0.984 1_545 S
H787 N781 0.985 . S
H788 N785 0.984 . S
H789 N785 0.985 . S
H790 N784 0.984 . S
H791 N784 0.984 . S
H792 N780 0.984 . S
H793 N780 0.985 . S
C794 C795 1.363 . S
C794 C800 1.379 . S
C794 N802 1.356 . S
C795 C794 1.363 . S
C795 C801 1.363 . S
C796 C797 1.363 . S
C796 C801 1.379 . S
C796 N803 1.356 . S
C797 C796 1.363 . S
C797 C800 1.363 . S
N798 C800 1.356 . S
N798 H810 0.984 . S
N798 H811 0.985 . S
N799 C801 1.356 . S
N799 H804 0.984 . S
N799 H805 0.985 . S
C800 C794 1.379 . S
C800 C797 1.363 . S
C800 N798 1.356 . S
C801 C795 1.363 . S
C801 C796 1.379 . S
C801 N799 1.356 . S
N802 C794 1.356 . S
N802 H808 0.984 . S
N802 H809 0.984 . S
N803 C796 1.356 . S
N803 H806 0.984 . S
N803 H807 0.985 . S
H804 N799 0.984 . S
H805 N799 0.985 . S
H806 N803 0.984 . S
H807 N803 0.985 . S
H808 N802 0.984 . S
H809 N802 0.984 . S
H810 N798 0.984 . S
H811 N798 0.985 . S
C812 C813 1.363 . S
C812 C818 1.379 . S
C812 N820 1.356 . S
C813 C812 1.363 . S
C813 C819 1.363 . S
C814 C815 1.363 . S
C814 C819 1.379 . S
C814 N821 1.356 . S
C815 C814 1.363 . S
C815 C818 1.363 . S
N816 C818 1.356 . S
N816 H828 0.984 . S
N816 H829 0.985 . S
N817 C819 1.356 . S
N817 H822 0.984 . S
N817 H823 0.985 . S
C818 C812 1.379 . S
C818 C815 1.363 . S
C818 N816 1.356 . S
C819 C813 1.363 . S
C819 C814 1.379 . S
C819 N817 1.356 . S
N820 C812 1.356 . S
N820 H826 0.984 . S
N820 H827 0.984 . S
N821 C814 1.356 . S
N821 H824 0.984 . S
N821 H825 0.985 . S
H822 N817 0.984 . S
H823 N817 0.985 . S
H824 N821 0.984 . S
H825 N821 0.985 . S
H826 N820 0.984 . S
H827 N820 0.984 . S
H828 N816 0.984 . S
H829 N816 0.985 . S
C830 C831 1.363 . S
C830 C836 1.379 . S
C830 N838 1.356 1_556 S
C831 C830 1.363 . S
C831 C837 1.363 . S
C832 C833 1.363 . S
C832 C837 1.379 . S
C832 N839 1.356 . S
C833 C832 1.363 . S
C833 C836 1.363 . S
N834 C836 1.356 . S
N834 H846 0.984 . S
N834 H847 0.985 . S
N835 C837 1.356 . S
N835 H840 0.984 . S
N835 H841 0.985 . S
C836 C830 1.379 . S
C836 C833 1.363 . S
C836 N834 1.356 . S
C837 C831 1.363 . S
C837 C832 1.379 . S
C837 N835 1.356 . S
N838 C830 1.356 1_554 S
N838 H844 0.984 . S
N838 H845 0.984 . S
N839 C832 1.356 . S
N839 H842 0.984 . S
N839 H843 0.985 . S
H840 N835 0.984 . S
H841 N835 0.985 . S
H842 N839 0.984 . S
H843 N839 0.985 . S
H844 N838 0.984 . S
H845 N838 0.984 . S
H846 N834 0.984 . S
H847 N834 0.985 . S
C848 C849 1.363 . S
C848 C854 1.379 . S
C848 N856 1.356 . S
C849 C848 1.363 . S
C849 C855 1.363 . S
C850 C851 1.363 . S
C850 C855 1.379 . S
C850 N857 1.356 . S
C851 C850 1.363 . S
C851 C854 1.363 . S
N852 C854 1.356 1_556 S
N852 H864 0.984 . S
N852 H865 0.985 . S
N853 C855 1.356 . S
N853 H858 0.984 . S
N853 H859 0.985 . S
C854 C848 1.379 . S
C854 C851 1.363 . S
C854 N852 1.356 1_554 S
C855 C849 1.363 . S
C855 C850 1.379 . S
C855 N853 1.356 . S
N856 C848 1.356 . S
N856 H862 0.984 . S
N856 H863 0.984 . S
N857 C850 1.356 . S
N857 H860 0.984 . S
N857 H861 0.985 . S
H858 N853 0.984 . S
H859 N853 0.985 . S
H860 N857 0.984 . S
H861 N857 0.985 . S
H862 N856 0.984 . S
H863 N856 0.984 . S
H864 N852 0.984 . S
H865 N852 0.985 . S
C866 C867 1.363 . S
C866 C872 1.379 . S
C866 N874 1.356 . S
C867 C866 1.363 . S
C867 C873 1.363 . S
C868 C869 1.363 . S
C868 C873 1.379 . S
C868 N875 1.356 . S
C869 C868 1.363 . S
C869 C872 1.363 . S
N870 C872 1.356 . S
N870 H882 0.984 . S
N870 H883 0.985 . S
N871 C873 1.356 . S
N871 H876 0.984 . S
N871 H877 0.985 . S
C872 C866 1.379 . S
C872 C869 1.363 . S
C872 N870 1.356 . S
C873 C867 1.363 . S
C873 C868 1.379 . S
C873 N871 1.356 . S
N874 C866 1.356 . S
N874 H880 0.984 . S
N874 H881 0.984 . S
N875 C868 1.356 . S
N875 H878 0.984 . S
N875 H879 0.985 . S
H876 N871 0.984 . S
H877 N871 0.985 . S
H878 N875 0.984 . S
H879 N875 0.985 . S
H880 N874 0.984 . S
H881 N874 0.984 . S
H882 N870 0.984 . S
H883 N870 0.985 . S
C884 C885 1.363 . S
C884 C890 1.379 . S
C884 N892 1.356 . S
C885 C884 1.363 . S
C885 C891 1.363 . S
C886 C887 1.363 . S
C886 C891 1.379 . S
C886 N893 1.356 . S
C887 C886 1.363 . S
C887 C890 1.363 . S
N888 C890 1.356 . S
N888 H900 0.984 . S
N888 H901 0.985 . S
N889 C891 1.356 . S
N889 H894 0.984 . S
N889 H895 0.985 . S
C890 C884 1.379 . S
C890 C887 1.363 . S
C890 N888 1.356 . S
C891 C885 1.363 . S
C891 C886 1.379 . S
C891 N889 1.356 . S
N892 C884 1.356 . S
N892 H898 0.984 . S
N892 H899 0.984 . S
N893 C886 1.356 . S
N893 H896 0.984 . S
N893 H897 0.985 . S
H894 N889 0.984 . S
H895 N889 0.985 . S
H896 N893 0.984 . S
H897 N893 0.985 . S
H898 N892 0.984 . S
H899 N892 0.984 . S
H900 N888 0.984 . S
H901 N888 0.985 . S
C902 C903 1.363 1_556 S
C902 C908 1.379 . S
C902 N910 1.356 1_556 S
C903 C902 1.363 1_554 S
C903 C909 1.363 1_554 S
C904 C905 1.363 . S
C904 C909 1.379 . S
C904 N911 1.356 . S
C905 C904 1.363 . S
C905 C908 1.363 . S
N906 C908 1.356 . S
N906 H918 0.984 . S
N906 H919 0.985 . S
N907 C909 1.356 1_554 S
N907 H912 0.984 . S
N907 H913 0.985 . S
C908 C902 1.379 . S
C908 C905 1.363 . S
C908 N906 1.356 . S
C909 C903 1.363 1_556 S
C909 C904 1.379 . S
C909 N907 1.356 1_556 S
N910 C902 1.356 1_554 S
N910 H916 0.986 . S
N910 H917 0.984 . S
N911 C904 1.356 . S
N911 H914 0.984 . S
N911 H915 0.985 . S
H912 N907 0.984 . S
H913 N907 0.985 . S
H914 N911 0.984 . S
H915 N911 0.985 . S
H916 N910 0.986 . S
H917 N910 0.984 . S
H918 N906 0.984 . S
H919 N906 0.985 . S
C920 C921 1.363 . S
C920 C926 1.379 . S
C920 N928 1.356 . S
C921 C920 1.363 . S
C921 C927 1.363 . S
C922 C923 1.363 . S
C922 C927 1.379 . S
C922 N929 1.356 . S
C923 C922 1.363 . S
C923 C926 1.363 . S
N924 C926 1.356 . S
N924 H936 0.984 . S
N924 H937 0.985 . S
N925 C927 1.356 . S
N925 H930 0.984 . S
N925 H931 0.985 1_556 S
C926 C920 1.379 . S
C926 C923 1.363 . S
C926 N924 1.356 . S
C927 C921 1.363 . S
C927 C922 1.379 . S
C927 N925 1.356 . S
N928 C920 1.356 . S
N928 H934 0.984 . S
N928 H935 0.984 . S
N929 C922 1.356 . S
N929 H932 0.984 . S
N929 H933 0.985 . S
H930 N925 0.984 . S
H931 N925 0.985 1_554 S
H932 N929 0.984 . S
H933 N929 0.985 . S
H934 N928 0.984 . S
H935 N928 0.984 . S
H936 N924 0.984 . S
H937 N924 0.985 . S
C938 C939 1.363 . S
C938 C944 1.379 . S
C938 N946 1.356 . S
C939 C938 1.363 . S
C939 C945 1.363 . S
C940 C941 1.363 . S
C940 C945 1.379 . S
C940 N947 1.356 . S
C941 C940 1.363 . S
C941 C944 1.363 . S
N942 C944 1.356 . S
N942 H954 0.984 . S
N942 H955 0.985 . S
N943 C945 1.356 . S
N943 H948 0.984 1_556 S
N943 H949 0.985 1_556 S
C944 C938 1.379 . S
C944 C941 1.363 . S
C944 N942 1.356 . S
C945 C939 1.363 . S
C945 C940 1.379 . S
C945 N943 1.356 . S
N946 C938 1.356 . S
N946 H952 0.984 . S
N946 H953 0.984 . S
N947 C940 1.356 . S
N947 H950 0.984 . S
N947 H951 0.985 . S
H948 N943 0.984 1_554 S
H949 N943 0.985 1_554 S
H950 N947 0.984 . S
H951 N947 0.985 . S
H952 N946 0.984 . S
H953 N946 0.984 . S
H954 N942 0.984 . S
H955 N942 0.985 . S
C956 C957 1.363 . S
C956 C962 1.379 . S
C956 N964 1.356 . S
C957 C956 1.363 . S
C957 C963 1.363 . S
C958 C959 1.363 1_554 S
C958 C963 1.379 . S
C958 N965 1.356 1_554 S
C959 C958 1.363 1_556 S
C959 C962 1.363 1_556 S
N960 C962 1.356 1_556 S
N960 H972 0.977 1_546 S
N960 H973 0.985 . S
N961 C963 1.356 . S
N961 H966 0.984 . S
N961 H967 0.985 . S
C962 C956 1.379 . S
C962 C959 1.363 1_554 S
C962 N960 1.356 1_554 S
C963 C957 1.363 . S
C963 C958 1.379 . S
C963 N961 1.356 . S
N964 C956 1.356 . S
N964 H970 0.984 1_545 S
N964 H971 0.984 . S
N965 C958 1.356 1_556 S
N965 H968 0.984 . S
N965 H969 0.985 . S
H966 N961 0.984 . S
H967 N961 0.985 . S
H968 N965 0.984 . S
H969 N965 0.985 . S
H970 N964 0.984 1_565 S
H971 N964 0.984 . S
H972 N960 0.977 1_564 S
H973 N960 0.985 . S
C974 C975 1.363 . S
C974 C980 1.379 . S
C974 N982 1.356 . S
C975 C974 1.363 . S
C975 C981 1.363 . S
C976 C977 1.363 . S
C976 C981 1.379 . S
C976 N983 1.356 . S
C977 C976 1.363 . S
C977 C980 1.363 . S
N978 C980 1.356 . S
N978 H990 0.984 . S
N978 H991 0.985 . S
N979 C981 1.356 . S
N979 H984 0.984 . S
N979 H985 0.985 . S
C980 C974 1.379 . S
C980 C977 1.363 . S
C980 N978 1.356 . S
C981 C975 1.363 . S
C981 C976 1.379 . S
C981 N979 1.356 . S
N982 C974 1.356 . S
N982 H988 0.984 . S
N982 H989 0.984 . S
N983 C976 1.356 . S
N983 H986 0.984 . S
N983 H987 0.985 . S
H984 N979 0.984 . S
H985 N979 0.985 . S
H986 N983 0.984 . S
H987 N983 0.985 . S
H988 N982 0.984 . S
H989 N982 0.984 . S
H990 N978 0.984 . S
H991 N978 0.985 . S
C992 C993 1.363 . S
C992 C998 1.379 . S
C992 N1000 1.356 . S
C993 C992 1.363 . S
C993 C999 1.363 . S
C994 C995 1.363 . S
C994 C999 1.379 . S
C994 N1001 1.356 . S
C995 C994 1.363 . S
C995 C998 1.363 . S
N996 C998 1.356 . S
N996 H1008 0.984 1_565 S
N996 H1009 0.985 . S
N997 C999 1.356 . S
N997 H1002 0.984 . S
N997 H1003 0.985 . S
C998 C992 1.379 . S
C998 C995 1.363 . S
C998 N996 1.356 . S
C999 C993 1.363 . S
C999 C994 1.379 . S
C999 N997 1.356 . S
N1000 C992 1.356 . S
N1000 H1006 0.984 . S
N1000 H1007 0.984 . S
N1001 C994 1.356 . S
N1001 H1004 0.984 . S
N1001 H1005 0.985 . S
H1002 N997 0.984 . S
H1003 N997 0.985 . S
H1004 N1001 0.984 . S
H1005 N1001 0.985 . S
H1006 N1000 0.984 . S
H1007 N1000 0.984 . S
H1008 N996 0.984 1_545 S
H1009 N996 0.985 . S
C1010 C1011 1.363 . S
C1010 C1016 1.379 . S
C1010 N1018 1.356 . S
C1011 C1010 1.363 . S
C1011 C1017 1.363 . S
C1012 C1013 1.363 . S
C1012 C1017 1.379 . S
C1012 N1019 1.356 . S
C1013 C1012 1.363 . S
C1013 C1016 1.363 . S
N1014 C1016 1.356 . S
N1014 H1026 0.984 . S
N1014 H1027 0.985 . S
N1015 C1017 1.356 . S
N1015 H1020 0.984 . S
N1015 H1021 0.985 . S
C1016 C1010 1.379 . S
C1016 C1013 1.363 . S
C1016 N1014 1.356 . S
C1017 C1011 1.363 . S
C1017 C1012 1.379 . S
C1017 N1015 1.356 . S
N1018 C1010 1.356 . S
N1018 H1024 0.984 . S
N1018 H1025 0.984 . S
N1019 C1012 1.356 . S
N1019 H1022 0.984 . S
N1019 H1023 0.985 . S
H1020 N1015 0.984 . S
H1021 N1015 0.985 . S
H1022 N1019 0.984 . S
H1023 N1019 0.985 . S
H1024 N1018 0.984 . S
H1025 N1018 0.984 . S
H1026 N1014 0.984 . S
H1027 N1014 0.985 . S
C1028 C1029 1.363 . S
C1028 C1034 1.379 . S
C1028 N1036 1.356 . S
C1029 C1028 1.363 . S
C1029 C1035 1.363 . S
C1030 C1031 1.363 . S
C1030 C1035 1.379 . S
C1030 N1037 1.356 . S
C1031 C1030 1.363 . S
C1031 C1034 1.363 . S
N1032 C1034 1.356 . S
N1032 H1044 0.984 . S
N1032 H1045 0.985 . S
N1033 C1035 1.356 . S
N1033 H1038 0.984 . S
N1033 H1039 0.985 . S
C1034 C1028 1.379 . S
C1034 C1031 1.363 . S
C1034 N1032 1.356 . S
C1035 C1029 1.363 . S
C1035 C1030 1.379 . S
C1035 N1033 1.356 . S
N1036 C1028 1.356 . S
N1036 H1042 0.984 . S
N1036 H1043 0.984 . S
N1037 C1030 1.356 . S
N1037 H1040 0.984 . S
N1037 H1041 0.985 . S
H1038 N1033 0.984 . S
H1039 N1033 0.985 . S
H1040 N1037 0.984 . S
H1041 N1037 0.985 . S
H1042 N1036 0.984 . S
H1043 N1036 0.984 . S
H1044 N1032 0.984 . S
H1045 N1032 0.985 . S
C1046 C1047 1.363 . S
C1046 C1052 1.379 . S
C1046 N1054 1.356 . S
C1047 C1046 1.363 . S
C1047 C1053 1.363 . S
C1048 C1049 1.363 . S
C1048 C1053 1.379 . S
C1048 N1055 1.356 . S
C1049 C1048 1.363 . S
C1049 C1052 1.363 . S
N1050 C1052 1.356 . S
N1050 H1062 0.984 . S
N1050 H1063 0.985 . S
N1051 C1053 1.356 . S
N1051 H1056 0.984 . S
N1051 H1057 0.985 . S
C1052 C1046 1.379 . S
C1052 C1049 1.363 . S
C1052 N1050 1.356 . S
C1053 C1047 1.363 . S
C1053 C1048 1.379 . S
C1053 N1051 1.356 . S
N1054 C1046 1.356 . S
N1054 H1060 0.984 . S
N1054 H1061 0.984 . S
N1055 C1048 1.356 . S
N1055 H1058 0.984 . S
N1055 H1059 0.985 . S
H1056 N1051 0.984 . S
H1057 N1051 0.985 . S
H1058 N1055 0.984 . S
H1059 N1055 0.985 . S
H1060 N1054 0.984 . S
H1061 N1054 0.984 . S
H1062 N1050 0.984 . S
H1063 N1050 0.985 . S
C1064 C1065 1.363 . S
C1064 C1070 1.379 . S
C1064 N1072 1.356 . S
C1065 C1064 1.363 . S
C1065 C1071 1.363 . S
C1066 C1067 1.363 . S
C1066 C1071 1.379 . S
C1066 N1073 1.356 . S
C1067 C1066 1.363 . S
C1067 C1070 1.363 . S
N1068 C1070 1.356 . S
N1068 H1080 0.984 . S
N1068 H1081 0.985 . S
N1069 C1071 1.356 . S
N1069 H1074 0.984 . S
N1069 H1075 0.985 . S
C1070 C1064 1.379 . S
C1070 C1067 1.363 . S
C1070 N1068 1.356 . S
C1071 C1065 1.363 . S
C1071 C1066 1.379 . S
C1071 N1069 1.356 . S
N1072 C1064 1.356 . S
N1072 H1078 0.984 . S
N1072 H1079 0.984 . S
N1073 C1066 1.356 . S
N1073 H1076 0.984 . S
N1073 H1077 0.985 . S
H1074 N1069 0.984 . S
H1075 N1069 0.985 . S
H1076 N1073 0.984 . S
H1077 N1073 0.985 . S
H1078 N1072 0.984 . S
H1079 N1072 0.984 . S
H1080 N1068 0.984 . S
H1081 N1068 0.985 . S
C1082 C1083 1.363 . S
C1082 C1088 1.379 . S
C1082 N1090 1.356 . S
C1083 C1082 1.363 . S
C1083 C1089 1.363 . S
C1084 C1085 1.363 . S
C1084 C1089 1.379 . S
C1084 N1091 1.356 . S
C1085 C1084 1.363 . S
C1085 C1088 1.363 . S
N1086 C1088 1.356 . S
N1086 H1098 0.984 . S
N1086 H1099 0.985 . S
N1087 C1089 1.356 . S
N1087 H1092 0.984 . S
N1087 H1093 0.985 . S
C1088 C1082 1.379 . S
C1088 C1085 1.363 . S
C1088 N1086 1.356 . S
C1089 C1083 1.363 . S
C1089 C1084 1.379 . S
C1089 N1087 1.356 . S
N1090 C1082 1.356 . S
N1090 H1096 0.984 . S
N1090 H1097 0.984 . S
N1091 C1084 1.356 . S
N1091 H1094 0.984 . S
N1091 H1095 0.985 . S
H1092 N1087 0.984 . S
H1093 N1087 0.985 . S
H1094 N1091 0.984 . S
H1095 N1091 0.985 . S
H1096 N1090 0.984 . S
H1097 N1090 0.984 . S
H1098 N1086 0.984 . S
H1099 N1086 0.985 . S
C1100 C1101 1.363 . S
C1100 C1106 1.379 . S
C1100 N1108 1.356 . S
C1101 C1100 1.363 . S
C1101 C1107 1.363 . S
C1102 C1103 1.363 . S
C1102 C1107 1.379 . S
C1102 N1109 1.356 . S
C1103 C1102 1.363 . S
C1103 C1106 1.363 . S
N1104 C1106 1.356 . S
N1104 H1116 0.984 . S
N1104 H1117 0.985 . S
N1105 C1107 1.356 . S
N1105 H1110 0.984 . S
N1105 H1111 0.985 . S
C1106 C1100 1.379 . S
C1106 C1103 1.363 . S
C1106 N1104 1.356 . S
C1107 C1101 1.363 . S
C1107 C1102 1.379 . S
C1107 N1105 1.356 . S
N1108 C1100 1.356 . S
N1108 H1114 0.984 . S
N1108 H1115 0.984 . S
N1109 C1102 1.356 . S
N1109 H1112 0.984 . S
N1109 H1113 0.985 . S
H1110 N1105 0.984 . S
H1111 N1105 0.985 . S
H1112 N1109 0.984 . S
H1113 N1109 0.985 . S
H1114 N1108 0.984 . S
H1115 N1108 0.984 . S
H1116 N1104 0.984 . S
H1117 N1104 0.985 . S
C1118 C1119 1.363 . S
C1118 C1124 1.379 . S
C1118 N1126 1.356 . S
C1119 C1118 1.363 . S
C1119 C1125 1.363 . S
C1120 C1121 1.363 . S
C1120 C1125 1.379 . S
C1120 N1127 1.356 . S
C1121 C1120 1.363 . S
C1121 C1124 1.363 . S
N1122 C1124 1.356 . S
N1122 H1134 0.984 . S
N1122 H1135 0.985 . S
N1123 C1125 1.356 . S
N1123 H1128 0.984 . S
N1123 H1129 0.985 . S
C1124 C1118 1.379 . S
C1124 C1121 1.363 . S
C1124 N1122 1.356 . S
C1125 C1119 1.363 . S
C1125 C1120 1.379 . S
C1125 N1123 1.356 . S
N1126 C1118 1.356 . S
N1126 H1132 0.984 . S
N1126 H1133 0.984 . S
N1127 C1120 1.356 . S
N1127 H1130 0.984 . S
N1127 H1131 0.985 . S
H1128 N1123 0.984 . S
H1129 N1123 0.985 . S
H1130 N1127 0.984 . S
H1131 N1127 0.985 . S
H1132 N1126 0.984 . S
H1133 N1126 0.984 . S
H1134 N1122 0.984 . S
H1135 N1122 0.985 . S
C1136 C1137 1.363 . S
C1136 C1142 1.379 . S
C1136 N1144 1.356 . S
C1137 C1136 1.363 . S
C1137 C1143 1.363 . S
C1138 C1139 1.363 . S
C1138 C1143 1.379 . S
C1138 N1145 1.356 . S
C1139 C1138 1.363 . S
C1139 C1142 1.363 . S
N1140 C1142 1.356 . S
N1140 H1152 0.984 . S
N1140 H1153 0.985 . S
N1141 C1143 1.356 . S
N1141 H1146 0.984 . S
N1141 H1147 0.985 . S
C1142 C1136 1.379 . S
C1142 C1139 1.363 . S
C1142 N1140 1.356 . S
C1143 C1137 1.363 . S
C1143 C1138 1.379 . S
C1143 N1141 1.356 . S
N1144 C1136 1.356 . S
N1144 H1150 0.984 . S
N1144 H1151 0.984 . S
N1145 C1138 1.356 . S
N1145 H1148 0.984 . S
N1145 H1149 0.985 . S
H1146 N1141 0.984 . S
H1147 N1141 0.985 . S
H1148 N1145 0.984 . S
H1149 N1145 0.985 . S
H1150 N1144 0.984 . S
H1151 N1144 0.984 . S
H1152 N1140 0.984 . S
H1153 N1140 0.985 . S
C1154 C1155 1.363 . S
C1154 C1160 1.379 . S
C1154 N1162 1.356 . S
C1155 C1154 1.363 . S
C1155 C1161 1.363 . S
C1156 C1157 1.363 . S
C1156 C1161 1.379 . S
C1156 N1163 1.356 . S
C1157 C1156 1.363 . S
C1157 C1160 1.363 . S
N1158 C1160 1.356 . S
N1158 H1170 0.984 . S
N1158 H1171 0.985 . S
N1159 C1161 1.356 . S
N1159 H1164 0.984 . S
N1159 H1165 0.985 . S
C1160 C1154 1.379 . S
C1160 C1157 1.363 . S
C1160 N1158 1.356 . S
C1161 C1155 1.363 . S
C1161 C1156 1.379 . S
C1161 N1159 1.356 . S
N1162 C1154 1.356 . S
N1162 H1168 0.984 . S
N1162 H1169 0.984 . S
N1163 C1156 1.356 . S
N1163 H1166 0.984 . S
N1163 H1167 0.985 . S
H1164 N1159 0.984 . S
H1165 N1159 0.985 . S
H1166 N1163 0.984 . S
H1167 N1163 0.985 . S
H1168 N1162 0.984 . S
H1169 N1162 0.984 . S
H1170 N1158 0.984 . S
H1171 N1158 0.985 . S
C1172 C1173 1.363 . S
C1172 C1178 1.379 . S
C1172 N1180 1.356 . S
C1173 C1172 1.363 . S
C1173 C1179 1.363 . S
C1174 C1175 1.363 . S
C1174 C1179 1.379 . S
C1174 N1181 1.356 . S
C1175 C1174 1.363 . S
C1175 C1178 1.363 . S
N1176 C1178 1.356 . S
N1176 H1188 0.984 . S
N1176 H1189 0.985 . S
N1177 C1179 1.356 . S
N1177 H1182 0.984 . S
N1177 H1183 0.985 . S
C1178 C1172 1.379 . S
C1178 C1175 1.363 . S
C1178 N1176 1.356 . S
C1179 C1173 1.363 . S
C1179 C1174 1.379 . S
C1179 N1177 1.356 . S
N1180 C1172 1.356 . S
N1180 H1186 0.984 . S
N1180 H1187 0.984 . S
N1181 C1174 1.356 . S
N1181 H1184 0.984 . S
N1181 H1185 0.985 . S
H1182 N1177 0.984 . S
H1183 N1177 0.985 . S
H1184 N1181 0.984 . S
H1185 N1181 0.985 . S
H1186 N1180 0.984 . S
H1187 N1180 0.984 . S
H1188 N1176 0.984 . S
H1189 N1176 0.985 . S
C1190 C1191 1.363 . S
C1190 C1196 1.379 . S
C1190 N1198 1.356 . S
C1191 C1190 1.363 . S
C1191 C1197 1.363 . S
C1192 C1193 1.363 . S
C1192 C1197 1.379 . S
C1192 N1199 1.356 . S
C1193 C1192 1.363 . S
C1193 C1196 1.363 . S
N1194 C1196 1.356 . S
N1194 H1206 0.984 . S
N1194 H1207 0.985 . S
N1195 C1197 1.356 . S
N1195 H1200 0.984 . S
N1195 H1201 0.985 . S
C1196 C1190 1.379 . S
C1196 C1193 1.363 . S
C1196 N1194 1.356 . S
C1197 C1191 1.363 . S
C1197 C1192 1.379 . S
C1197 N1195 1.356 . S
N1198 C1190 1.356 . S
N1198 H1204 0.984 . S
N1198 H1205 0.984 . S
N1199 C1192 1.356 . S
N1199 H1202 0.984 . S
N1199 H1203 0.985 . S
H1200 N1195 0.984 . S
H1201 N1195 0.985 . S
H1202 N1199 0.984 . S
H1203 N1199 0.985 . S
H1204 N1198 0.984 . S
H1205 N1198 0.984 . S
H1206 N1194 0.984 . S
H1207 N1194 0.985 . S
C1208 C1209 1.363 . S
C1208 C1214 1.379 . S
C1208 N1216 1.356 . S
C1209 C1208 1.363 . S
C1209 C1215 1.363 . S
C1210 C1211 1.363 . S
C1210 C1215 1.379 . S
C1210 N1217 1.356 . S
C1211 C1210 1.363 . S
C1211 C1214 1.363 . S
N1212 C1214 1.356 . S
N1212 H1224 0.984 . S
N1212 H1225 0.985 . S
N1213 C1215 1.356 . S
N1213 H1218 0.984 . S
N1213 H1219 0.985 . S
C1214 C1208 1.379 . S
C1214 C1211 1.363 . S
C1214 N1212 1.356 . S
C1215 C1209 1.363 . S
C1215 C1210 1.379 . S
C1215 N1213 1.356 . S
N1216 C1208 1.356 . S
N1216 H1222 0.984 . S
N1216 H1223 0.984 . S
N1217 C1210 1.356 . S
N1217 H1220 0.984 . S
N1217 H1221 0.985 . S
H1218 N1213 0.984 . S
H1219 N1213 0.985 . S
H1220 N1217 0.984 . S
H1221 N1217 0.985 . S
H1222 N1216 0.984 . S
H1223 N1216 0.984 . S
H1224 N1212 0.984 . S
H1225 N1212 0.985 . S
C1226 C1227 1.363 . S
C1226 C1232 1.379 . S
C1226 N1234 1.356 . S
C1227 C1226 1.363 . S
C1227 C1233 1.363 . S
C1228 C1229 1.363 . S
C1228 C1233 1.379 . S
C1228 N1235 1.356 . S
C1229 C1228 1.363 . S
C1229 C1232 1.363 . S
N1230 C1232 1.356 . S
N1230 H1242 0.984 . S
N1230 H1243 0.985 . S
N1231 C1233 1.356 . S
N1231 H1236 0.984 . S
N1231 H1237 0.985 . S
C1232 C1226 1.379 . S
C1232 C1229 1.363 . S
C1232 N1230 1.356 . S
C1233 C1227 1.363 . S
C1233 C1228 1.379 . S
C1233 N1231 1.356 . S
N1234 C1226 1.356 . S
N1234 H1240 0.984 . S
N1234 H1241 0.984 . S
N1235 C1228 1.356 . S
N1235 H1238 0.984 . S
N1235 H1239 0.985 . S
H1236 N1231 0.984 . S
H1237 N1231 0.985 . S
H1238 N1235 0.984 . S
H1239 N1235 0.985 . S
H1240 N1234 0.984 . S
H1241 N1234 0.984 . S
H1242 N1230 0.984 . S
H1243 N1230 0.985 . S
C1244 C1245 1.363 . S
C1244 C1250 1.379 . S
C1244 N1252 1.356 . S
C1245 C1244 1.363 . S
C1245 C1251 1.363 . S
C1246 C1247 1.363 . S
C1246 C1251 1.379 . S
C1246 N1253 1.356 . S
C1247 C1246 1.363 . S
C1247 C1250 1.363 . S
N1248 C1250 1.356 . S
N1248 H1260 0.984 . S
N1248 H1261 0.985 . S
N1249 C1251 1.356 . S
N1249 H1254 0.984 . S
N1249 H1255 0.985 . S
C1250 C1244 1.379 . S
C1250 C1247 1.363 . S
C1250 N1248 1.356 . S
C1251 C1245 1.363 . S
C1251 C1246 1.379 . S
C1251 N1249 1.356 . S
N1252 C1244 1.356 . S
N1252 H1258 0.984 . S
N1252 H1259 0.984 . S
N1253 C1246 1.356 . S
N1253 H1256 0.984 . S
N1253 H1257 0.985 . S
H1254 N1249 0.984 . S
H1255 N1249 0.985 . S
H1256 N1253 0.984 . S
H1257 N1253 0.985 . S
H1258 N1252 0.984 . S
H1259 N1252 0.984 . S
H1260 N1248 0.984 . S
H1261 N1248 0.985 . S
C1262 C1263 1.363 . S
C1262 C1268 1.379 . S
C1262 N1270 1.356 . S
C1263 C1262 1.363 . S
C1263 C1269 1.363 . S
C1264 C1265 1.363 . S
C1264 C1269 1.379 . S
C1264 N1271 1.356 . S
C1265 C1264 1.363 . S
C1265 C1268 1.363 . S
N1266 C1268 1.356 . S
N1266 H1278 0.984 . S
N1266 H1279 0.985 . S
N1267 C1269 1.356 . S
N1267 H1272 0.984 . S
N1267 H1273 0.985 . S
C1268 C1262 1.379 . S
C1268 C1265 1.363 . S
C1268 N1266 1.356 . S
C1269 C1263 1.363 . S
C1269 C1264 1.379 . S
C1269 N1267 1.356 . S
N1270 C1262 1.356 . S
N1270 H1276 0.984 . S
N1270 H1277 0.984 . S
N1271 C1264 1.356 . S
N1271 H1274 0.984 . S
N1271 H1275 0.985 . S
H1272 N1267 0.984 . S
H1273 N1267 0.985 . S
H1274 N1271 0.984 . S
H1275 N1271 0.985 . S
H1276 N1270 0.984 . S
H1277 N1270 0.984 . S
H1278 N1266 0.984 . S
H1279 N1266 0.985 . S
C1280 C1281 1.363 . S
C1280 C1286 1.379 . S
C1280 N1288 1.356 . S
C1281 C1280 1.363 . S
C1281 C1287 1.363 . S
C1282 C1283 1.363 . S
C1282 C1287 1.379 . S
C1282 N1289 1.356 . S
C1283 C1282 1.363 . S
C1283 C1286 1.363 . S
N1284 C1286 1.356 . S
N1284 H1296 0.984 . S
N1284 H1297 0.985 . S
N1285 C1287 1.356 . S
N1285 H1290 0.984 . S
N1285 H1291 0.985 . S
C1286 C1280 1.379 . S
C1286 C1283 1.363 . S
C1286 N1284 1.356 . S
C1287 C1281 1.363 . S
C1287 C1282 1.379 . S
C1287 N1285 1.356 . S
N1288 C1280 1.356 . S
N1288 H1294 0.984 . S
N1288 H1295 0.984 . S
N1289 C1282 1.356 . S
N1289 H1292 0.984 . S
N1289 H1293 0.985 . S
H1290 N1285 0.984 . S
H1291 N1285 0.985 . S
H1292 N1289 0.984 . S
H1293 N1289 0.985 . S
H1294 N1288 0.984 . S
H1295 N1288 0.984 . S
H1296 N1284 0.984 . S
H1297 N1284 0.985 . S
C1298 C1299 1.363 . S
C1298 C1304 1.379 . S
C1298 N1306 1.356 . S
C1299 C1298 1.363 . S
C1299 C1305 1.363 . S
C1300 C1301 1.363 . S
C1300 C1305 1.379 . S
C1300 N1307 1.356 . S
C1301 C1300 1.363 . S
C1301 C1304 1.363 . S
N1302 C1304 1.356 . S
N1302 H1314 0.984 . S
N1302 H1315 0.985 . S
N1303 C1305 1.356 . S
N1303 H1308 0.984 . S
N1303 H1309 0.985 . S
C1304 C1298 1.379 . S
C1304 C1301 1.363 . S
C1304 N1302 1.356 . S
C1305 C1299 1.363 . S
C1305 C1300 1.379 . S
C1305 N1303 1.356 . S
N1306 C1298 1.356 . S
N1306 H1312 0.984 . S
N1306 H1313 0.984 . S
N1307 C1300 1.356 . S
N1307 H1310 0.984 . S
N1307 H1311 0.985 . S
H1308 N1303 0.984 . S
H1309 N1303 0.985 . S
H1310 N1307 0.984 . S
H1311 N1307 0.985 . S
H1312 N1306 0.984 . S
H1313 N1306 0.984 . S
H1314 N1302 0.984 . S
H1315 N1302 0.985 . S
C1316 C1317 1.363 . S
C1316 C1322 1.379 . S
C1316 N1324 1.356 . S
C1317 C1316 1.363 . S
C1317 C1323 1.363 . S
C1318 C1319 1.363 . S
C1318 C1323 1.379 . S
C1318 N1325 1.356 . S
C1319 C1318 1.363 . S
C1319 C1322 1.363 . S
N1320 C1322 1.356 . S
N1320 H1332 0.984 . S
N1320 H1333 0.985 . S
N1321 C1323 1.356 . S
N1321 H1326 0.984 . S
N1321 H1327 0.985 . S
C1322 C1316 1.379 . S
C1322 C1319 1.363 . S
C1322 N1320 1.356 . S
C1323 C1317 1.363 . S
C1323 C1318 1.379 . S
C1323 N1321 1.356 . S
N1324 C1316 1.356 . S
N1324 H1330 0.984 . S
N1324 H1331 0.984 . S
N1325 C1318 1.356 . S
N1325 H1328 0.984 . S
N1325 H1329 0.985 . S
H1326 N1321 0.984 . S
H1327 N1321 0.985 . S
H1328 N1325 0.984 . S
H1329 N1325 0.985 . S
H1330 N1324 0.984 . S
H1331 N1324 0.984 . S
H1332 N1320 0.984 . S
H1333 N1320 0.985 . S
C1334 C1335 1.363 . S
C1334 C1340 1.379 . S
C1334 N1342 1.356 . S
C1335 C1334 1.363 . S
C1335 C1341 1.363 . S
C1336 C1337 1.363 . S
C1336 C1341 1.379 . S
C1336 N1343 1.356 . S
C1337 C1336 1.363 . S
C1337 C1340 1.363 . S
N1338 C1340 1.356 . S
N1338 H1350 0.984 . S
N1338 H1351 0.985 . S
N1339 C1341 1.356 . S
N1339 H1344 0.984 . S
N1339 H1345 0.985 . S
C1340 C1334 1.379 . S
C1340 C1337 1.363 . S
C1340 N1338 1.356 . S
C1341 C1335 1.363 . S
C1341 C1336 1.379 . S
C1341 N1339 1.356 . S
N1342 C1334 1.356 . S
N1342 H1348 0.984 . S
N1342 H1349 0.984 . S
N1343 C1336 1.356 . S
N1343 H1346 0.984 . S
N1343 H1347 0.985 . S
H1344 N1339 0.984 . S
H1345 N1339 0.985 . S
H1346 N1343 0.984 . S
H1347 N1343 0.985 . S
H1348 N1342 0.984 . S
H1349 N1342 0.984 . S
H1350 N1338 0.984 . S
H1351 N1338 0.985 . S
C1352 C1353 1.363 . S
C1352 C1358 1.379 . S
C1352 N1360 1.356 . S
C1353 C1352 1.363 . S
C1353 C1359 1.363 . S
C1354 C1355 1.363 . S
C1354 C1359 1.379 . S
C1354 N1361 1.356 . S
C1355 C1354 1.363 . S
C1355 C1358 1.363 . S
N1356 C1358 1.356 . S
N1356 H1368 0.984 . S
N1356 H1369 0.985 . S
N1357 C1359 1.356 . S
N1357 H1362 0.984 . S
N1357 H1363 0.985 . S
C1358 C1352 1.379 . S
C1358 C1355 1.363 . S
C1358 N1356 1.356 . S
C1359 C1353 1.363 . S
C1359 C1354 1.379 . S
C1359 N1357 1.356 . S
N1360 C1352 1.356 . S
N1360 H1366 0.984 . S
N1360 H1367 0.984 . S
N1361 C1354 1.356 . S
N1361 H1364 0.984 . S
N1361 H1365 0.985 . S
H1362 N1357 0.984 . S
H1363 N1357 0.985 . S
H1364 N1361 0.984 . S
H1365 N1361 0.985 . S
H1366 N1360 0.984 . S
H1367 N1360 0.984 . S
H1368 N1356 0.984 . S
H1369 N1356 0.985 . S
C1370 C1371 1.363 . S
C1370 C1376 1.379 . S
C1370 N1378 1.356 . S
C1371 C1370 1.363 . S
C1371 C1377 1.363 . S
C1372 C1373 1.363 . S
C1372 C1377 1.379 . S
C1372 N1379 1.356 . S
C1373 C1372 1.363 . S
C1373 C1376 1.363 . S
N1374 C1376 1.356 . S
N1374 H1386 0.984 . S
N1374 H1387 0.985 . S
N1375 C1377 1.356 . S
N1375 H1380 0.984 . S
N1375 H1381 0.985 . S
C1376 C1370 1.379 . S
C1376 C1373 1.363 . S
C1376 N1374 1.356 . S
C1377 C1371 1.363 . S
C1377 C1372 1.379 . S
C1377 N1375 1.356 . S
N1378 C1370 1.356 . S
N1378 H1384 0.984 . S
N1378 H1385 0.984 . S
N1379 C1372 1.356 . S
N1379 H1382 0.984 . S
N1379 H1383 0.985 . S
H1380 N1375 0.984 . S
H1381 N1375 0.985 . S
H1382 N1379 0.984 . S
H1383 N1379 0.985 . S
H1384 N1378 0.984 . S
H1385 N1378 0.984 . S
H1386 N1374 0.984 . S
H1387 N1374 0.985 . S
C1388 C1389 1.363 . S
C1388 C1394 1.379 . S
C1388 N1396 1.356 . S
C1389 C1388 1.363 . S
C1389 C1395 1.363 . S
C1390 C1391 1.363 . S
C1390 C1395 1.379 . S
C1390 N1397 1.356 . S
C1391 C1390 1.363 . S
C1391 C1394 1.363 . S
N1392 C1394 1.356 . S
N1392 H1404 0.984 . S
N1392 H1405 0.985 . S
N1393 C1395 1.356 . S
N1393 H1398 0.984 . S
N1393 H1399 0.985 . S
C1394 C1388 1.379 . S
C1394 C1391 1.363 . S
C1394 N1392 1.356 . S
C1395 C1389 1.363 . S
C1395 C1390 1.379 . S
C1395 N1393 1.356 . S
N1396 C1388 1.356 . S
N1396 H1402 0.984 . S
N1396 H1403 0.984 . S
N1397 C1390 1.356 . S
N1397 H1400 0.984 . S
N1397 H1401 0.985 . S
H1398 N1393 0.984 . S
H1399 N1393 0.985 . S
H1400 N1397 0.984 . S
H1401 N1397 0.985 . S
H1402 N1396 0.984 . S
H1403 N1396 0.984 . S
H1404 N1392 0.984 . S
H1405 N1392 0.985 . S
C1406 C1407 1.363 . S
C1406 C1412 1.379 . S
C1406 N1414 1.356 . S
C1407 C1406 1.363 . S
C1407 C1413 1.363 . S
C1408 C1409 1.363 . S
C1408 C1413 1.379 . S
C1408 N1415 1.356 . S
C1409 C1408 1.363 . S
C1409 C1412 1.363 . S
N1410 C1412 1.356 . S
N1410 H1422 0.984 . S
N1410 H1423 0.985 . S
N1411 C1413 1.356 . S
N1411 H1416 0.984 . S
N1411 H1417 0.985 . S
C1412 C1406 1.379 . S
C1412 C1409 1.363 . S
C1412 N1410 1.356 . S
C1413 C1407 1.363 . S
C1413 C1408 1.379 . S
C1413 N1411 1.356 . S
N1414 C1406 1.356 . S
N1414 H1420 0.984 . S
N1414 H1421 0.984 . S
N1415 C1408 1.356 . S
N1415 H1418 0.984 . S
N1415 H1419 0.985 . S
H1416 N1411 0.984 . S
H1417 N1411 0.985 . S
H1418 N1415 0.984 . S
H1419 N1415 0.985 . S
H1420 N1414 0.984 . S
H1421 N1414 0.984 . S
H1422 N1410 0.984 . S
H1423 N1410 0.985 . S
C1424 C1425 1.363 . S
C1424 C1430 1.379 . S
C1424 N1432 1.356 . S
C1425 C1424 1.363 . S
C1425 C1431 1.363 . S
C1426 C1427 1.363 . S
C1426 C1431 1.379 . S
C1426 N1433 1.356 . S
C1427 C1426 1.363 . S
C1427 C1430 1.363 . S
N1428 C1430 1.356 . S
N1428 H1440 0.984 . S
N1428 H1441 0.985 . S
N1429 C1431 1.356 . S
N1429 H1434 0.984 . S
N1429 H1435 0.985 . S
C1430 C1424 1.379 . S
C1430 C1427 1.363 . S
C1430 N1428 1.356 . S
C1431 C1425 1.363 . S
C1431 C1426 1.379 . S
C1431 N1429 1.356 . S
N1432 C1424 1.356 . S
N1432 H1438 0.984 . S
N1432 H1439 0.984 . S
N1433 C1426 1.356 . S
N1433 H1436 0.984 . S
N1433 H1437 0.985 . S
H1434 N1429 0.984 . S
H1435 N1429 0.985 . S
H1436 N1433 0.984 . S
H1437 N1433 0.985 . S
H1438 N1432 0.984 . S
H1439 N1432 0.984 . S
H1440 N1428 0.984 . S
H1441 N1428 0.985 . S
C1442 C1443 1.363 . S
C1442 C1448 1.379 . S
C1442 N1450 1.356 . S
C1443 C1442 1.363 . S
C1443 C1449 1.363 . S
C1444 C1445 1.363 . S
C1444 C1449 1.379 . S
C1444 N1451 1.356 . S
C1445 C1444 1.363 . S
C1445 C1448 1.363 . S
N1446 C1448 1.356 . S
N1446 H1458 0.984 . S
N1446 H1459 0.985 . S
N1447 C1449 1.356 . S
N1447 H1452 0.984 . S
N1447 H1453 0.985 . S
C1448 C1442 1.379 . S
C1448 C1445 1.363 . S
C1448 N1446 1.356 . S
C1449 C1443 1.363 . S
C1449 C1444 1.379 . S
C1449 N1447 1.356 . S
N1450 C1442 1.356 . S
N1450 H1456 0.984 . S
N1450 H1457 0.984 . S
N1451 C1444 1.356 . S
N1451 H1454 0.984 . S
N1451 H1455 0.985 . S
H1452 N1447 0.984 . S
H1453 N1447 0.985 . S
H1454 N1451 0.984 . S
H1455 N1451 0.985 . S
H1456 N1450 0.984 . S
H1457 N1450 0.984 . S
H1458 N1446 0.984 . S
H1459 N1446 0.985 . S
C599 C286 2.387 . S
C597 N2 2.381 . S
C617 C325 2.634 . S
C615 C7 2.696 . S
C635 C375 2.078 . S
C633 N12 1.972 1_565 S
C651 C16 2.212 . S
C653 C414 2.198 . S
C671 C454 2.451 . S
C669 C30 2.546 1_565 S
C689 C495 1.939 . S
C687 N35 1.843 . S
C705 C39 2.341 . S
C707 C525 2.316 . S
C725 C575 2.261 . S
C723 N25 2.195 1_565 S
C743 C282 1.317 . S
C741 N58 1.219 . S
C759 N81 1.682 . S
C761 C331 1.715 . S
C779 C365 1.919 . S
C777 N104 1.988 1_565 S
C795 N127 1.758 . S
C797 C406 1.951 . S
C815 C446 0.395 . S
C813 N48 0.584 . S
C833 C485 2.573 . S
C831 N71 2.527 1_556 S
C849 N94 1.276 . S
C851 C531 1.255 . S
C869 C565 2.051 . S
C867 N117 2.020 . S
C885 C85 2.142 . S
C887 C294 2.317 . S
C903 C122 0.767 . S
C905 C442 0.770 . S
C921 C53 1.124 . S
C923 C491 1.127 . S
C941 C535 2.219 . S
C939 C76 2.238 1_556 S
C959 C571 1.679 . S
C957 C99 1.661 . S
C977 C371 1.188 . S
C975 C131 1.125 . S
C995 C402 0.412 . S
C993 C62 0.646 . S
C1011 C108 1.222 . S
C1013 C335 1.186 . S
C1031 C566 2.466 . S
C1029 N140 2.521 . S
C1047 C145 2.580 . S
C1049 C445 2.517 . S
C1067 C486 1.953 . S
C1065 N150 1.840 . S
C1083 C154 2.371 . S
C1085 C534 2.348 . S
C1103 C334 2.620 . S
C1101 C168 2.701 . S
C1119 N173 1.863 . S
C1121 C366 1.975 . S
C1139 C405 2.214 . S
C1137 C177 2.235 . S
C1157 C295 2.386 . S
C1155 N163 2.315 . S
C1175 C562 1.696 . S
C1173 C200 1.709 . S
C1193 C451 1.117 . S
C1191 N219 0.990 . S
C1209 N242 0.720 . S
C1211 C482 0.719 . S
C1229 C526 2.219 . S
C1227 C269 2.278 . S
C1247 C326 1.145 . S
C1245 C191 1.194 . S
C1263 N209 1.256 . S
C1265 C362 1.290 . S
C1281 N232 0.723 . S
C1283 C411 0.620 . S
C1299 C260 2.280 . S
C1301 C285 2.391 . S
C1317 C223 1.965 . S
C1319 C574 2.058 . S
C1335 N255 1.483 . S
C1337 C322 1.564 . S
C1353 N186 2.205 . S
C1355 C374 2.103 . S
C1373 C415 1.805 . S
C1371 C214 1.756 . S
C1391 C291 1.602 . S
C1389 C237 1.606 . S
C1409 C494 2.510 . S
C1407 N265 2.359 . S
C1427 C522 1.196 . S
C1425 N196 1.115 . S
C1445 C455 0.719 . S
C1443 C246 0.723 . S
