# Generated by pormake.
# Topology iac, (4,6)-cn, num edge types: 1
# Building blocks:
#     Node 0, Type 0, BuildingBlock: QUQFOY_clean_sbu_3, # of connection points: 4
#     Node 1, Type 0, BuildingBlock: QUQFOY_clean_sbu_3, # of connection points: 4
#     Node 2, Type 0, BuildingBlock: QUQFOY_clean_sbu_3, # of connection points: 4
#     Node 3, Type 0, BuildingBlock: QUQFOY_clean_sbu_3, # of connection points: 4
#     Node 4, Type 0, BuildingBlock: QUQFOY_clean_sbu_3, # of connection points: 4
#     Node 5, Type 0, BuildingBlock: QUQFOY_clean_sbu_3, # of connection points: 4
#     Node 6, Type 0, BuildingBlock: QUQFOY_clean_sbu_3, # of connection points: 4
#     Node 7, Type 0, BuildingBlock: QUQFOY_clean_sbu_3, # of connection points: 4
#     Node 8, Type 0, BuildingBlock: QUQFOY_clean_sbu_3, # of connection points: 4
#     Node 9, Type 0, BuildingBlock: QUQFOY_clean_sbu_3, # of connection points: 4
#     Node 10, Type 0, BuildingBlock: QUQFOY_clean_sbu_3, # of connection points: 4
#     Node 11, Type 0, BuildingBlock: QUQFOY_clean_sbu_3, # of connection points: 4
#     Node 12, Type 0, BuildingBlock: QUQFOY_clean_sbu_3, # of connection points: 4
#     Node 13, Type 0, BuildingBlock: QUQFOY_clean_sbu_3, # of connection points: 4
#     Node 14, Type 0, BuildingBlock: QUQFOY_clean_sbu_3, # of connection points: 4
#     Node 15, Type 0, BuildingBlock: QUQFOY_clean_sbu_3, # of connection points: 4
#     Node 16, Type 0, BuildingBlock: QUQFOY_clean_sbu_3, # of connection points: 4
#     Node 17, Type 0, BuildingBlock: QUQFOY_clean_sbu_3, # of connection points: 4
#     Node 18, Type 0, BuildingBlock: QUQFOY_clean_sbu_3, # of connection points: 4
#     Node 19, Type 0, BuildingBlock: QUQFOY_clean_sbu_3, # of connection points: 4
#     Node 20, Type 0, BuildingBlock: QUQFOY_clean_sbu_3, # of connection points: 4
#     Node 21, Type 0, BuildingBlock: QUQFOY_clean_sbu_3, # of connection points: 4
#     Node 22, Type 0, BuildingBlock: QUQFOY_clean_sbu_3, # of connection points: 4
#     Node 23, Type 0, BuildingBlock: QUQFOY_clean_sbu_3, # of connection points: 4
#     Node 24, Type 1, BuildingBlock: CIFDUS_clean_sbu_1, # of connection points: 6
#     Node 25, Type 1, BuildingBlock: CIFDUS_clean_sbu_1, # of connection points: 6
#     Node 26, Type 1, BuildingBlock: CIFDUS_clean_sbu_1, # of connection points: 6
#     Node 27, Type 1, BuildingBlock: CIFDUS_clean_sbu_1, # of connection points: 6
#     Node 28, Type 1, BuildingBlock: CIFDUS_clean_sbu_1, # of connection points: 6
#     Node 29, Type 1, BuildingBlock: CIFDUS_clean_sbu_1, # of connection points: 6
#     Node 30, Type 1, BuildingBlock: CIFDUS_clean_sbu_1, # of connection points: 6
#     Node 31, Type 1, BuildingBlock: CIFDUS_clean_sbu_1, # of connection points: 6
#     Node 32, Type 1, BuildingBlock: CIFDUS_clean_sbu_1, # of connection points: 6
#     Node 33, Type 1, BuildingBlock: CIFDUS_clean_sbu_1, # of connection points: 6
#     Node 34, Type 1, BuildingBlock: CIFDUS_clean_sbu_1, # of connection points: 6
#     Node 35, Type 1, BuildingBlock: CIFDUS_clean_sbu_1, # of connection points: 6
#     Node 36, Type 1, BuildingBlock: CIFDUS_clean_sbu_1, # of connection points: 6
#     Node 37, Type 1, BuildingBlock: CIFDUS_clean_sbu_1, # of connection points: 6
#     Node 38, Type 1, BuildingBlock: CIFDUS_clean_sbu_1, # of connection points: 6
#     Node 39, Type 1, BuildingBlock: CIFDUS_clean_sbu_1, # of connection points: 6
#     Edge 40, Type (0, 1), BuildingBlock: ZUJKAS_clean_linker_0, # of connection points: 2
#     Edge 41, Type (0, 1), BuildingBlock: ZUJKAS_clean_linker_0, # of connection points: 2
#     Edge 42, Type (0, 1), BuildingBlock: ZUJKAS_clean_linker_0, # of connection points: 2
#     Edge 43, Type (0, 1), BuildingBlock: ZUJKAS_clean_linker_0, # of connection points: 2
#     Edge 44, Type (0, 1), BuildingBlock: ZUJKAS_clean_linker_0, # of connection points: 2
#     Edge 45, Type (0, 1), BuildingBlock: ZUJKAS_clean_linker_0, # of connection points: 2
#     Edge 46, Type (0, 1), BuildingBlock: ZUJKAS_clean_linker_0, # of connection points: 2
#     Edge 47, Type (0, 1), BuildingBlock: ZUJKAS_clean_linker_0, # of connection points: 2
#     Edge 48, Type (0, 1), BuildingBlock: ZUJKAS_clean_linker_0, # of connection points: 2
#     Edge 49, Type (0, 1), BuildingBlock: ZUJKAS_clean_linker_0, # of connection points: 2
#     Edge 50, Type (0, 1), BuildingBlock: ZUJKAS_clean_linker_0, # of connection points: 2
#     Edge 51, Type (0, 1), BuildingBlock: ZUJKAS_clean_linker_0, # of connection points: 2
#     Edge 52, Type (0, 1), BuildingBlock: ZUJKAS_clean_linker_0, # of connection points: 2
#     Edge 53, Type (0, 1), BuildingBlock: ZUJKAS_clean_linker_0, # of connection points: 2
#     Edge 54, Type (0, 1), BuildingBlock: ZUJKAS_clean_linker_0, # of connection points: 2
#     Edge 55, Type (0, 1), BuildingBlock: ZUJKAS_clean_linker_0, # of connection points: 2
#     Edge 56, Type (0, 1), BuildingBlock: ZUJKAS_clean_linker_0, # of connection points: 2
#     Edge 57, Type (0, 1), BuildingBlock: ZUJKAS_clean_linker_0, # of connection points: 2
#     Edge 58, Type (0, 1), BuildingBlock: ZUJKAS_clean_linker_0, # of connection points: 2
#     Edge 59, Type (0, 1), BuildingBlock: ZUJKAS_clean_linker_0, # of connection points: 2
#     Edge 60, Type (0, 1), BuildingBlock: ZUJKAS_clean_linker_0, # of connection points: 2
#     Edge 61, Type (0, 1), BuildingBlock: ZUJKAS_clean_linker_0, # of connection points: 2
#     Edge 62, Type (0, 1), BuildingBlock: ZUJKAS_clean_linker_0, # of connection points: 2
#     Edge 63, Type (0, 1), BuildingBlock: ZUJKAS_clean_linker_0, # of connection points: 2
#     Edge 64, Type (0, 1), BuildingBlock: ZUJKAS_clean_linker_0, # of connection points: 2
#     Edge 65, Type (0, 1), BuildingBlock: ZUJKAS_clean_linker_0, # of connection points: 2
#     Edge 66, Type (0, 1), BuildingBlock: ZUJKAS_clean_linker_0, # of connection points: 2
#     Edge 67, Type (0, 1), BuildingBlock: ZUJKAS_clean_linker_0, # of connection points: 2
#     Edge 68, Type (0, 1), BuildingBlock: ZUJKAS_clean_linker_0, # of connection points: 2
#     Edge 69, Type (0, 1), BuildingBlock: ZUJKAS_clean_linker_0, # of connection points: 2
#     Edge 70, Type (0, 1), BuildingBlock: ZUJKAS_clean_linker_0, # of connection points: 2
#     Edge 71, Type (0, 1), BuildingBlock: ZUJKAS_clean_linker_0, # of connection points: 2
#     Edge 72, Type (0, 1), BuildingBlock: ZUJKAS_clean_linker_0, # of connection points: 2
#     Edge 73, Type (0, 1), BuildingBlock: ZUJKAS_clean_linker_0, # of connection points: 2
#     Edge 74, Type (0, 1), BuildingBlock: ZUJKAS_clean_linker_0, # of connection points: 2
#     Edge 75, Type (0, 1), BuildingBlock: ZUJKAS_clean_linker_0, # of connection points: 2
#     Edge 76, Type (0, 1), BuildingBlock: ZUJKAS_clean_linker_0, # of connection points: 2
#     Edge 77, Type (0, 1), BuildingBlock: ZUJKAS_clean_linker_0, # of connection points: 2
#     Edge 78, Type (0, 1), BuildingBlock: ZUJKAS_clean_linker_0, # of connection points: 2
#     Edge 79, Type (0, 1), BuildingBlock: ZUJKAS_clean_linker_0, # of connection points: 2
#     Edge 80, Type (0, 1), BuildingBlock: ZUJKAS_clean_linker_0, # of connection points: 2
#     Edge 81, Type (0, 1), BuildingBlock: ZUJKAS_clean_linker_0, # of connection points: 2
#     Edge 82, Type (0, 1), BuildingBlock: ZUJKAS_clean_linker_0, # of connection points: 2
#     Edge 83, Type (0, 1), BuildingBlock: ZUJKAS_clean_linker_0, # of connection points: 2
#     Edge 84, Type (0, 1), BuildingBlock: ZUJKAS_clean_linker_0, # of connection points: 2
#     Edge 85, Type (0, 1), BuildingBlock: ZUJKAS_clean_linker_0, # of connection points: 2
#     Edge 86, Type (0, 1), BuildingBlock: ZUJKAS_clean_linker_0, # of connection points: 2
#     Edge 87, Type (0, 1), BuildingBlock: ZUJKAS_clean_linker_0, # of connection points: 2
#     Edge 88, Type (0, 1), BuildingBlock: ZUJKAS_clean_linker_0, # of connection points: 2
#     Edge 89, Type (0, 1), BuildingBlock: ZUJKAS_clean_linker_0, # of connection points: 2
#     Edge 90, Type (0, 1), BuildingBlock: ZUJKAS_clean_linker_0, # of connection points: 2
#     Edge 91, Type (0, 1), BuildingBlock: ZUJKAS_clean_linker_0, # of connection points: 2
#     Edge 92, Type (0, 1), BuildingBlock: ZUJKAS_clean_linker_0, # of connection points: 2
#     Edge 93, Type (0, 1), BuildingBlock: ZUJKAS_clean_linker_0, # of connection points: 2
#     Edge 94, Type (0, 1), BuildingBlock: ZUJKAS_clean_linker_0, # of connection points: 2
#     Edge 95, Type (0, 1), BuildingBlock: ZUJKAS_clean_linker_0, # of connection points: 2
#     Edge 96, Type (0, 1), BuildingBlock: ZUJKAS_clean_linker_0, # of connection points: 2
#     Edge 97, Type (0, 1), BuildingBlock: ZUJKAS_clean_linker_0, # of connection points: 2
#     Edge 98, Type (0, 1), BuildingBlock: ZUJKAS_clean_linker_0, # of connection points: 2
#     Edge 99, Type (0, 1), BuildingBlock: ZUJKAS_clean_linker_0, # of connection points: 2
#     Edge 100, Type (0, 1), BuildingBlock: ZUJKAS_clean_linker_0, # of connection points: 2
#     Edge 101, Type (0, 1), BuildingBlock: ZUJKAS_clean_linker_0, # of connection points: 2
#     Edge 102, Type (0, 1), BuildingBlock: ZUJKAS_clean_linker_0, # of connection points: 2
#     Edge 103, Type (0, 1), BuildingBlock: ZUJKAS_clean_linker_0, # of connection points: 2
#     Edge 104, Type (0, 1), BuildingBlock: ZUJKAS_clean_linker_0, # of connection points: 2
#     Edge 105, Type (0, 1), BuildingBlock: ZUJKAS_clean_linker_0, # of connection points: 2
#     Edge 106, Type (0, 1), BuildingBlock: ZUJKAS_clean_linker_0, # of connection points: 2
#     Edge 107, Type (0, 1), BuildingBlock: ZUJKAS_clean_linker_0, # of connection points: 2
#     Edge 108, Type (0, 1), BuildingBlock: ZUJKAS_clean_linker_0, # of connection points: 2
#     Edge 109, Type (0, 1), BuildingBlock: ZUJKAS_clean_linker_0, # of connection points: 2
#     Edge 110, Type (0, 1), BuildingBlock: ZUJKAS_clean_linker_0, # of connection points: 2
#     Edge 111, Type (0, 1), BuildingBlock: ZUJKAS_clean_linker_0, # of connection points: 2
#     Edge 112, Type (0, 1), BuildingBlock: ZUJKAS_clean_linker_0, # of connection points: 2
#     Edge 113, Type (0, 1), BuildingBlock: ZUJKAS_clean_linker_0, # of connection points: 2
#     Edge 114, Type (0, 1), BuildingBlock: ZUJKAS_clean_linker_0, # of connection points: 2
#     Edge 115, Type (0, 1), BuildingBlock: ZUJKAS_clean_linker_0, # of connection points: 2
#     Edge 116, Type (0, 1), BuildingBlock: ZUJKAS_clean_linker_0, # of connection points: 2
#     Edge 117, Type (0, 1), BuildingBlock: ZUJKAS_clean_linker_0, # of connection points: 2
#     Edge 118, Type (0, 1), BuildingBlock: ZUJKAS_clean_linker_0, # of connection points: 2
#     Edge 119, Type (0, 1), BuildingBlock: ZUJKAS_clean_linker_0, # of connection points: 2
#     Edge 120, Type (0, 1), BuildingBlock: ZUJKAS_clean_linker_0, # of connection points: 2
#     Edge 121, Type (0, 1), BuildingBlock: ZUJKAS_clean_linker_0, # of connection points: 2
#     Edge 122, Type (0, 1), BuildingBlock: ZUJKAS_clean_linker_0, # of connection points: 2
#     Edge 123, Type (0, 1), BuildingBlock: ZUJKAS_clean_linker_0, # of connection points: 2
#     Edge 124, Type (0, 1), BuildingBlock: ZUJKAS_clean_linker_0, # of connection points: 2
#     Edge 125, Type (0, 1), BuildingBlock: ZUJKAS_clean_linker_0, # of connection points: 2
#     Edge 126, Type (0, 1), BuildingBlock: ZUJKAS_clean_linker_0, # of connection points: 2
#     Edge 127, Type (0, 1), BuildingBlock: ZUJKAS_clean_linker_0, # of connection points: 2
#     Edge 128, Type (0, 1), BuildingBlock: ZUJKAS_clean_linker_0, # of connection points: 2
#     Edge 129, Type (0, 1), BuildingBlock: ZUJKAS_clean_linker_0, # of connection points: 2
#     Edge 130, Type (0, 1), BuildingBlock: ZUJKAS_clean_linker_0, # of connection points: 2
#     Edge 131, Type (0, 1), BuildingBlock: ZUJKAS_clean_linker_0, # of connection points: 2
#     Edge 132, Type (0, 1), BuildingBlock: ZUJKAS_clean_linker_0, # of connection points: 2
#     Edge 133, Type (0, 1), BuildingBlock: ZUJKAS_clean_linker_0, # of connection points: 2
#     Edge 134, Type (0, 1), BuildingBlock: ZUJKAS_clean_linker_0, # of connection points: 2
#     Edge 135, Type (0, 1), BuildingBlock: ZUJKAS_clean_linker_0, # of connection points: 2
# Relax obj value: 0.093
# Max RMSD: 0.172
# Mean RMSD: 0.088
data_MOF--net-iac--node1-QUQFOY_clean_sbu_3--node2-CIFDUS_clean_sbu_1--edge1-ZUJKAS_clean_linker_0
_symmetry_space_group_name_H-M    P1
_symmetry_Int_Tables_number       1
_symmetry_cell_setting            triclinic
loop_
_symmetry_equiv_pos_as_xyz
'x, y, z'
_cell_length_a     70.61663
_cell_length_b     71.705389
_cell_length_c     71.357998
_cell_angle_alpha  90.880667
_cell_angle_beta   89.850061
_cell_angle_gamma 90.38907
loop_
_atom_site_label
_atom_site_type_symbol
_atom_site_fract_x
_atom_site_fract_y
_atom_site_fract_z
_atom_type_partial_charge
C0 C 0.95345 0.24238 0.14188 0.0
O1 O 0.96329 0.23242 0.15268 0.0
Cd2 Cd -0.004 0.22541 0.14776 0.0
O3 O 0.96089 0.24945 0.12728 0.0
Cd4 Cd -0.00736 0.2512 0.11139 0.0
C5 C -0.00461 0.2041 0.1038 0.0
O6 O 0.01053 0.2546 0.14075 0.0
O7 O 0.02725 0.25104 0.11574 0.0
O8 O 0.98066 0.28262 0.10597 0.0
C9 C 0.02681 0.25375 0.13332 0.0
O10 O -0.00202 0.20337 0.12143 0.0
C11 C 0.98765 0.2845 0.08973 0.0
O12 O -0.0082 0.21964 0.09605 0.0
O13 O -0.00306 0.27075 0.08314 0.0
C14 C 0.95685 0.75163 0.34147 0.0
O15 O 0.96711 0.75964 0.32932 0.0
Cd16 Cd 0.00081 0.76356 0.33173 0.0
O17 O 0.9643 0.74427 0.35577 0.0
Cd18 Cd -0.00394 0.74014 0.36937 0.0
C19 C -0.00068 0.78724 0.37359 0.0
O20 O 0.01386 0.73427 0.34043 0.0
O21 O 0.03043 0.73967 0.36528 0.0
O22 O 0.98465 0.70944 0.37819 0.0
C23 C 0.03006 0.73527 0.34801 0.0
O24 O 0.00388 0.78745 0.35631 0.0
C25 C -0.0096 0.71045 0.39503 0.0
O26 O -0.00537 0.7721 0.38154 0.0
O27 O -0.00122 0.72543 0.40009 0.0
C28 C 0.45242 0.745 0.64348 0.0
O29 O 0.46179 0.73508 0.6547 0.0
Cd30 Cd 0.49412 0.7262 0.65002 0.0
O31 O 0.46027 0.7514 0.62877 0.0
Cd32 Cd 0.49246 0.75225 0.61373 0.0
C33 C 0.4935 0.70491 0.60607 0.0
O34 O 0.51075 0.75418 0.6429 0.0
O35 O 0.52712 0.75015 0.61767 0.0
O36 O 0.48566 0.78536 0.61106 0.0
C37 C 0.52691 0.7525 0.63533 0.0
O38 O 0.49537 0.70408 0.62378 0.0
C39 C 0.48857 0.78669 0.59359 0.0
O40 O 0.49104 0.72062 0.59819 0.0
O41 O 0.4935 0.77179 0.585 0.0
C42 C 0.45507 0.25037 0.84319 0.0
O43 O 0.46495 0.25645 0.82967 0.0
Cd44 Cd 0.4984 0.26165 0.83156 0.0
O45 O 0.46296 0.24523 0.85826 0.0
Cd46 Cd 0.49504 0.24171 0.87175 0.0
C47 C 0.49761 0.28891 0.87186 0.0
O48 O 0.51239 0.23393 0.84306 0.0
O49 O 0.52942 0.24153 0.86709 0.0
O50 O 0.48345 0.21136 0.8813 0.0
C51 C 0.52875 0.23608 0.85011 0.0
O52 O 0.50031 0.2874 0.85425 0.0
C53 C 0.48882 0.21269 0.89823 0.0
O54 O 0.49455 0.27453 0.88176 0.0
O55 O 0.49726 0.22773 0.9031 0.0
C56 C 0.09143 -0.00625 0.28283 0.0
O57 O 0.08013 0.00351 0.2733 0.0
Cd58 Cd 0.08518 0.01185 0.24126 0.0
O59 O 0.10655 0.98738 0.27539 0.0
Cd60 Cd 0.12253 0.98655 0.24398 0.0
C61 C 0.12886 0.03403 0.24204 0.0
O62 O 0.09355 0.98367 0.22536 0.0
O63 O 0.11937 0.98728 0.2096 0.0
O64 O 0.12624 0.95342 0.24949 0.0
C65 C 0.10156 0.98478 0.2095 0.0
O66 O 0.11095 0.03453 0.24005 0.0
C67 C 0.14416 0.95295 0.24852 0.0
O68 O 0.13719 0.01851 0.24474 0.0
O69 O 0.15253 0.96836 0.24529 0.0
C70 C 0.28587 0.89451 0.49012 0.0
O71 O 0.27717 0.90854 0.48387 0.0
Cd72 Cd 0.24466 0.90809 0.47495 0.0
O73 O 0.27697 0.87949 0.4939 0.0
Cd74 Cd 0.24366 0.86751 0.49501 0.0
C75 C 0.24456 0.86789 0.4474 0.0
O76 O 0.22784 0.89692 0.50148 0.0
O77 O 0.20938 0.87418 0.49345 0.0
O78 O 0.24935 0.85759 0.52696 0.0
C79 C 0.21111 0.89115 0.49849 0.0
O80 O 0.24411 0.88561 0.44884 0.0
C81 C 0.24558 0.84044 0.5242 0.0
O82 O 0.24477 0.85772 0.46191 0.0
O83 O 0.24075 0.83561 0.50765 0.0
C84 C 0.39625 0.98039 0.77797 0.0
O85 O 0.40747 0.97171 0.76704 0.0
Cd86 Cd 0.407 0.97205 0.73353 0.0
O87 O 0.38303 0.99049 0.77163 0.0
Cd88 Cd 0.37018 -0.00221 0.74037 0.0
C89 C 0.36349 0.95143 0.7313 0.0
O90 O 0.4002 0.00311 0.72418 0.0
O91 O 0.37531 0.00104 0.70684 0.0
O92 O 0.36224 0.02864 0.75268 0.0
C93 C 0.39295 0.00416 0.708 0.0
O94 O 0.38105 0.95056 0.72733 0.0
C95 C 0.34537 0.02857 0.74653 0.0
O96 O 0.35618 0.96656 0.73742 0.0
O97 O 0.33981 0.01389 0.73795 0.0
C98 C 0.27751 0.08449 -0.00995 0.0
O99 O 0.26679 0.07396 -0.00041 0.0
Cd100 Cd 0.2357 0.08357 0.00979 0.0
O101 O 0.27168 0.10037 0.98489 0.0
Cd102 Cd 0.24287 0.11998 0.98625 0.0
C103 C 0.24649 0.12436 0.03377 0.0
O104 O 0.2186 0.09531 0.98346 0.0
O105 O 0.20853 0.12313 -0.01037 0.0
O106 O 0.24978 0.12323 0.95327 0.0
C107 C 0.20464 0.10615 0.98604 0.0
O108 O 0.24081 0.10747 0.03393 0.0
C109 C 0.24984 0.1409 0.95299 0.0
O110 O 0.2495 0.13254 0.01825 0.0
O111 O 0.24663 0.14933 0.9685 0.0
C112 C 0.78071 0.39615 -0.01023 0.0
O113 O 0.77075 0.40859 0.98215 0.0
Cd114 Cd 0.73776 0.40544 0.97538 0.0
O115 O 0.77308 0.38116 -0.00434 0.0
Cd116 Cd 0.74087 0.36704 -0.00182 0.0
C117 C 0.74017 0.36388 0.95063 0.0
O118 O 0.72315 0.3957 0.00378 0.0
O119 O 0.70642 0.37123 -0.00279 0.0
O120 O 0.74899 0.35838 0.03003 0.0
C121 C 0.70689 0.38836 0.0019 0.0
O122 O 0.73705 0.38136 0.95076 0.0
C123 C 0.74416 0.34134 0.02835 0.0
O124 O 0.74288 0.35525 0.96587 0.0
O125 O 0.738 0.33603 0.0124 0.0
C126 C 0.89687 0.48687 0.28193 0.0
O127 O 0.91096 0.48166 0.27212 0.0
Cd128 Cd 0.90945 0.47708 0.23887 0.0
O129 O 0.88157 0.49177 0.27405 0.0
Cd130 Cd 0.86914 0.49594 0.24192 0.0
C131 C 0.8695 0.4491 0.23845 0.0
O132 O 0.89773 0.50443 0.22425 0.0
O133 O 0.87375 0.49425 0.20828 0.0
O134 O 0.85963 0.52668 0.25265 0.0
C135 C 0.89027 0.50127 0.20833 0.0
O136 O 0.88728 0.45099 0.23601 0.0
C137 C 0.84282 0.52578 0.24643 0.0
O138 O 0.85907 0.46324 0.24179 0.0
O139 O 0.83784 0.51061 0.23833 0.0
C140 C 0.77769 0.58484 0.48952 0.0
O141 O 0.7669 0.57485 0.49954 0.0
Cd142 Cd 0.73579 0.58518 0.50873 0.0
O143 O 0.77194 0.60045 0.48355 0.0
Cd144 Cd 0.74304 0.62004 0.48416 0.0
C145 C 0.74628 0.62661 0.5314 0.0
O146 O 0.71892 0.59522 0.4814 0.0
O147 O 0.70857 0.62293 0.48751 0.0
O148 O 0.75012 0.62271 0.45113 0.0
C149 C 0.70485 0.60599 0.48355 0.0
O150 O 0.74053 0.60978 0.5323 0.0
C151 C 0.75011 0.64037 0.45054 0.0
O152 O 0.74943 0.63402 0.51553 0.0
O153 O 0.74676 0.64905 0.46588 0.0
C154 C 0.58925 0.49689 0.78157 0.0
O155 O 0.57849 0.50706 0.77189 0.0
Cd156 Cd 0.58387 0.51463 0.73975 0.0
O157 O 0.60399 0.48961 0.77424 0.0
Cd158 Cd 0.62018 0.4878 0.74305 0.0
C159 C 0.62838 0.53498 0.74112 0.0
O160 O 0.59158 0.48612 0.72386 0.0
O161 O 0.61774 0.48987 0.7087 0.0
O162 O 0.62313 0.45421 0.74717 0.0
C163 C 0.59991 0.48764 0.7082 0.0
O164 O 0.61054 0.53633 0.73899 0.0
C165 C 0.64106 0.45361 0.74712 0.0
O166 O 0.63599 0.51911 0.74376 0.0
O167 O 0.64972 0.46907 0.74501 0.0
C168 C 0.96997 0.75145 0.83517 0.0
O169 O 0.9824 0.76162 0.8274 0.0
Cd170 Cd 0.01298 0.76797 0.83973 0.0
O171 O 0.97367 0.74319 0.8505 0.0
Cd172 Cd 0.00198 0.7403 0.87211 0.0
C173 C -0.00043 0.78689 0.88249 0.0
O174 O 0.02516 0.73796 0.84689 0.0
O175 O 0.03715 0.74235 0.87427 0.0
O176 O -0.00642 0.70716 0.87459 0.0
C177 C 0.03979 0.73845 0.85708 0.0
O178 O 0.00685 0.78891 0.8663 0.0
C179 C -0.00312 0.70588 0.892 0.0
O180 O -0.00457 0.77062 0.88836 0.0
O181 O 0.00146 0.7209 0.90057 0.0
C182 C 0.973 0.24547 0.65655 0.0
O183 O 0.98693 0.23897 0.66551 0.0
Cd184 Cd 0.01767 0.23347 0.65255 0.0
O185 O 0.97504 0.25069 0.63963 0.0
Cd186 Cd 0.00117 0.25318 0.61592 0.0
C187 C 0.00496 0.20628 0.61417 0.0
O188 O 0.02764 0.26059 0.63649 0.0
O189 O 0.035 0.25056 0.60885 0.0
O190 O -0.00764 0.28488 0.60841 0.0
C191 C 0.0405 0.25695 0.62459 0.0
O192 O 0.01332 0.20794 0.62992 0.0
C193 C -0.00906 0.28216 0.59084 0.0
O194 O -0.0022 0.22041 0.60625 0.0
O195 O -0.00647 0.26559 0.58483 0.0
C196 C 0.46894 0.25279 0.33452 0.0
O197 O 0.481 0.26363 0.3271 0.0
Cd198 Cd 0.51219 0.26869 0.33898 0.0
O199 O 0.47316 0.24379 0.34924 0.0
Cd200 Cd 0.50157 0.24116 0.37031 0.0
C201 C 0.49988 0.2877 0.38135 0.0
O202 O 0.52454 0.2383 0.3448 0.0
O203 O 0.53672 0.24363 0.37196 0.0
O204 O 0.49282 0.20812 0.37323 0.0
C205 C 0.53919 0.23887 0.35495 0.0
O206 O 0.50855 0.28992 0.36588 0.0
C207 C 0.49652 0.20688 0.39056 0.0
O208 O 0.49414 0.27155 0.38617 0.0
O209 O 0.50158 0.22188 0.3989 0.0
C210 C 0.47202 0.748 0.15212 0.0
O211 O 0.48478 0.74091 0.16221 0.0
Cd212 Cd 0.51501 0.7314 0.15052 0.0
O213 O 0.47529 0.75161 0.13495 0.0
Cd214 Cd 0.50196 0.75017 0.11192 0.0
C215 C 0.50039 0.70307 0.11345 0.0
O216 O 0.52845 0.75599 0.13276 0.0
O217 O 0.53552 0.74415 0.1057 0.0
O218 O 0.49727 0.7826 0.10476 0.0
C219 C 0.54118 0.75066 0.12135 0.0
O220 O 0.50792 0.7052 0.12956 0.0
C221 C 0.49521 0.78048 0.0872 0.0
O222 O 0.49561 0.71716 0.10384 0.0
O223 O 0.49558 0.76382 0.0808 0.0
C224 C 0.90548 0.98743 0.76981 0.0
O225 O 0.91492 0.97715 0.75863 0.0
Cd226 Cd 0.90435 0.9689 0.72788 0.0
O227 O 0.88989 -0.00543 0.76453 0.0
Cd228 Cd 0.87023 -0.00484 0.73508 0.0
C229 C 0.86149 0.94855 0.73884 0.0
O230 O 0.89646 -0.00255 0.71278 0.0
O231 O 0.86938 0.99044 0.70065 0.0
O232 O 0.86675 0.02856 0.74171 0.0
C233 C 0.88647 -0.00461 0.69817 0.0
O234 O 0.87836 0.94681 0.73273 0.0
C235 C 0.84924 0.02944 0.73794 0.0
O236 O 0.85467 0.96475 0.742 0.0
O237 O 0.84102 0.01411 0.73373 0.0
C238 C 0.76959 0.07703 0.49512 0.0
O239 O 0.75531 0.0683 0.50146 0.0
Cd240 Cd 0.72473 0.08162 0.50651 0.0
O241 O 0.76803 0.09387 0.4898 0.0
Cd242 Cd 0.74233 0.11765 0.48695 0.0
C243 C 0.7378 0.11964 0.534 0.0
O244 O 0.71532 0.09766 0.47913 0.0
O245 O 0.70876 0.12518 0.48974 0.0
O246 O 0.75172 0.12453 0.455 0.0
C247 C 0.70286 0.10987 0.48277 0.0
O248 O 0.72917 0.10406 0.53218 0.0
C249 C 0.75301 0.14208 0.45728 0.0
O250 O 0.74538 0.1275 0.51989 0.0
O251 O 0.75024 0.14841 0.4738 0.0
C252 C 0.5791 -0.00184 0.26681 0.0
O253 O 0.56947 0.00576 0.25405 0.0
Cd254 Cd 0.58091 0.01199 0.22313 0.0
O255 O 0.59594 -0.00739 0.26356 0.0
Cd256 Cd 0.6193 -0.00936 0.23756 0.0
C257 C 0.62098 0.03778 0.2348 0.0
O258 O 0.59705 0.98488 0.21276 0.0
O259 O 0.62524 -0.00803 0.20362 0.0
O260 O 0.62487 0.95836 0.24445 0.0
C261 C 0.60842 0.98742 0.19927 0.0
O262 O 0.60462 0.03649 0.22735 0.0
C263 C 0.64266 0.95971 0.24649 0.0
O264 O 0.62933 0.02343 0.2411 0.0
O265 O 0.64991 0.97593 0.24515 0.0
C266 C 0.77135 0.89651 -0.00587 0.0
O267 O 0.76135 0.90771 0.98482 0.0
Cd268 Cd 0.72835 0.90305 0.97852 0.0
O269 O 0.76378 0.88204 0.00125 0.0
Cd270 Cd 0.73112 0.8678 0.00276 0.0
C271 C 0.72963 0.8607 0.95556 0.0
O272 O 0.71211 0.8962 0.00725 0.0
O273 O 0.6967 0.87097 0.00032 0.0
O274 O 0.73794 0.86262 0.03563 0.0
C275 C 0.69624 0.88793 0.00553 0.0
O276 O 0.72669 0.87818 0.95497 0.0
C277 C 0.73264 0.84569 0.03591 0.0
O278 O 0.73283 0.85289 0.97118 0.0
O279 O 0.72724 0.83851 0.0204 0.0
C280 C 0.26686 0.58282 0.98822 0.0
O281 O 0.25358 0.573 -0.00497 0.0
Cd282 Cd 0.22365 0.58543 0.00459 0.0
O283 O 0.26427 0.60004 0.98481 0.0
Cd284 Cd 0.23838 0.62366 0.98609 0.0
C285 C 0.23927 0.62169 0.03344 0.0
O286 O 0.21121 0.60354 0.97989 0.0
O287 O 0.20505 0.63078 -0.00843 0.0
O288 O 0.24486 0.63086 0.95369 0.0
C289 C 0.19888 0.61539 0.98499 0.0
O290 O 0.23127 0.60583 0.03117 0.0
C291 C 0.24678 0.64835 0.95596 0.0
O292 O 0.24446 0.63129 0.01937 0.0
O293 O 0.24553 0.65464 0.97269 0.0
C294 C 0.08 0.4955 0.76718 0.0
O295 O 0.06999 0.50288 0.75457 0.0
Cd296 Cd 0.08156 0.50982 0.72374 0.0
O297 O 0.09697 0.49059 0.76365 0.0
Cd298 Cd 0.11961 0.48991 0.73694 0.0
C299 C 0.12048 0.53693 0.73527 0.0
O300 O 0.09774 0.48324 0.71126 0.0
O301 O 0.12575 0.49268 0.70356 0.0
O302 O 0.12714 0.45807 0.74449 0.0
C303 C 0.10964 0.48668 0.69839 0.0
O304 O 0.10413 0.53542 0.72786 0.0
C305 C 0.14496 0.46034 0.7453 0.0
O306 O 0.12908 0.52262 0.74126 0.0
O307 O 0.15122 0.4768 0.74287 0.0
C308 C 0.2694 0.398 0.4961 0.0
O309 O 0.25879 0.40886 0.48703 0.0
Cd310 Cd 0.22566 0.40289 0.4813 0.0
O311 O 0.26249 0.38324 0.50324 0.0
Cd312 Cd 0.2305 0.36804 0.50527 0.0
C313 C 0.22773 0.36089 0.45818 0.0
O314 O 0.20984 0.39553 0.51004 0.0
O315 O 0.19599 0.36927 0.50371 0.0
O316 O 0.23834 0.36295 0.53797 0.0
C317 C 0.19451 0.38624 0.50869 0.0
O318 O 0.22314 0.37801 0.45778 0.0
C319 C 0.23359 0.34587 0.53826 0.0
O320 O 0.23284 0.35348 0.4735 0.0
O321 O 0.2281 0.33859 0.52282 0.0
C322 C 0.40525 0.48577 0.2655 0.0
O323 O 0.41351 0.4759 0.25307 0.0
Cd324 Cd 0.40056 0.46964 0.22279 0.0
O325 O 0.38953 0.49366 0.26188 0.0
Cd326 Cd 0.36762 0.49645 0.23423 0.0
C327 C 0.35822 0.44975 0.23622 0.0
O328 O 0.39237 0.49933 0.21034 0.0
O329 O 0.36414 0.49463 0.19983 0.0
O330 O 0.36482 0.52957 0.24274 0.0
C331 C 0.38124 0.49892 0.19644 0.0
O332 O 0.3745 0.44796 0.22872 0.0
C333 C 0.3471 0.53066 0.24009 0.0
O334 O 0.35201 0.46593 0.24062 0.0
O335 O 0.33854 0.51552 0.23589 0.0
O336 O 0.01369 0.01154 0.98838 0.0
Mn337 Mn -0.00888 -0.00666 -0.00515 0.0
O338 O 0.03873 -0.0063 0.98084 0.0
Mn339 Mn 0.02892 0.97215 -0.00899 0.0
O340 O 0.96859 0.97507 0.00133 0.0
O341 O 0.97724 0.01569 0.00526 0.0
Mn342 Mn 0.95316 0.01416 -0.00102 0.0
O343 O 0.97945 -0.00248 0.96835 0.0
O344 O 0.94388 -0.00717 0.01004 0.0
O345 O 0.00279 0.98913 0.02144 0.0
O346 O 0.02873 0.97146 0.017 0.0
O347 O 0.95577 0.03619 0.01243 0.0
O348 O 0.95275 0.01401 0.9729 0.0
C349 C 0.00885 0.95557 0.97563 0.0
C350 C 0.03078 0.00954 0.98237 0.0
C351 C 0.95178 0.97702 0.00809 0.0
C352 C 0.9734 0.03151 0.0133 0.0
C353 C 0.9647 0.00587 0.96213 0.0
C354 C 0.01706 0.98006 0.02771 0.0
O355 O 0.00497 0.97106 0.98427 0.0
O356 O 0.02641 0.95067 0.9767 0.0
O357 O 0.27312 0.7496 0.22861 0.0
Mn358 Mn 0.24663 0.74374 0.24015 0.0
O359 O 0.26785 0.7652 0.20194 0.0
Mn360 Mn 0.24154 0.76326 0.20197 0.0
O361 O 0.22011 0.73796 0.25164 0.0
O362 O 0.25824 0.72282 0.25473 0.0
Mn363 Mn 0.25171 0.72515 0.2785 0.0
O364 O 0.2517 0.76331 0.26173 0.0
O365 O 0.22541 0.72329 0.27882 0.0
O366 O 0.2414 0.72437 0.21833 0.0
O367 O 0.232 0.74068 0.19335 0.0
O368 O 0.26647 0.70412 0.27697 0.0
O369 O 0.2616 0.74769 0.28685 0.0
C370 C 0.22605 0.77966 0.22218 0.0
C371 C 0.27902 0.75815 0.21396 0.0
C372 C 0.21421 0.72986 0.26655 0.0
C373 C 0.26709 0.70782 0.25929 0.0
C374 C 0.25855 0.76284 0.27837 0.0
C375 C 0.23485 0.72529 0.20154 0.0
O376 O 0.2351 0.76458 0.22574 0.0
O377 O 0.22643 0.78414 0.20469 0.0
O378 O 0.47247 0.97561 0.48615 0.0
Mn379 Mn 0.49318 -0.00398 0.4913 0.0
O380 O 0.44534 0.99038 0.47981 0.0
Mn381 Mn 0.4533 0.01332 0.48918 0.0
O382 O 0.51406 0.01633 0.49642 0.0
O383 O 0.50947 0.97551 0.50108 0.0
Mn384 Mn 0.53323 0.97905 0.49459 0.0
O385 O 0.50409 -0.00827 0.46457 0.0
O386 O 0.54001 0.00136 0.50615 0.0
O387 O 0.48256 0.00048 0.51821 0.0
O388 O 0.45477 0.01533 0.51515 0.0
O389 O 0.53228 0.95653 0.50692 0.0
O390 O 0.53305 0.97933 0.46847 0.0
C391 C 0.47105 0.03118 0.47277 0.0
C392 C 0.45506 0.97554 0.481 0.0
C393 C 0.53078 0.01628 0.50348 0.0
C394 C 0.51431 0.95974 0.50803 0.0
C395 C 0.51975 0.98528 0.45804 0.0
C396 C 0.46793 0.00858 0.52522 0.0
O397 O 0.47675 0.01643 0.48123 0.0
O398 O 0.45311 0.03431 0.47452 0.0
O399 O 0.26607 0.25105 0.76554 0.0
Mn400 Mn 0.24471 0.24554 0.74604 0.0
O401 O 0.29314 0.25505 0.7492 0.0
Mn402 Mn 0.2844 0.24511 0.72666 0.0
O403 O 0.22336 0.24016 0.72648 0.0
O404 O 0.22796 0.23777 0.76719 0.0
Mn405 Mn 0.20472 0.24592 0.76453 0.0
O406 O 0.2354 0.27292 0.74899 0.0
O407 O 0.19635 0.23476 0.74242 0.0
O408 O 0.25425 0.21811 0.74306 0.0
O409 O 0.2812 0.21933 0.72592 0.0
O410 O 0.20545 0.23368 0.78726 0.0
O411 O 0.20727 0.27177 0.76396 0.0
C412 C 0.26585 0.26142 0.70952 0.0
C413 C 0.28374 0.25532 0.76452 0.0
C414 C 0.20588 0.23516 0.72723 0.0
C415 C 0.2231 0.2312 0.78317 0.0
C416 C 0.22089 0.28085 0.75646 0.0
C417 C 0.26814 0.21027 0.73435 0.0
O418 O 0.26125 0.25353 0.72492 0.0
O419 O 0.28342 0.25917 0.70497 0.0
O420 O -0.00402 0.97332 0.47724 0.0
Mn421 Mn -0.00121 -0.00073 0.49061 0.0
O422 O 0.00524 0.95225 0.49857 0.0
Mn423 Mn 0.01082 0.96858 0.51825 0.0
O424 O 0.00207 0.02497 0.50458 0.0
O425 O 0.00168 0.01097 0.46515 0.0
Mn426 Mn 0.98914 0.03218 0.46524 0.0
O427 O 0.96932 0.00296 0.48979 0.0
O428 O 0.0002 0.04749 0.4832 0.0
O429 O 0.02849 -0.00426 0.49145 0.0
O430 O 0.03467 0.97911 0.51717 0.0
O431 O -0.00083 0.02975 0.44163 0.0
O432 O 0.96403 0.02591 0.46926 0.0
C433 C 0.98879 0.98387 0.53207 0.0
C434 C -0.00046 0.95654 0.48222 0.0
C435 C 0.00341 0.04214 0.49981 0.0
C436 C 0.00565 0.01412 0.44774 0.0
C437 C 0.95814 0.01352 0.48054 0.0
C438 C 0.0401 0.98891 0.50342 0.0
O439 O -0.00464 0.98737 0.51563 0.0
O440 O -0.00343 0.96977 0.54001 0.0
O441 O 0.25682 0.76941 0.74266 0.0
Mn442 Mn 0.24345 0.74361 0.73884 0.0
O443 O 0.23413 0.79134 0.74169 0.0
Mn444 Mn 0.21527 0.77597 0.73195 0.0
O445 O 0.2298 0.71794 0.73492 0.0
O446 O 0.26912 0.73224 0.7344 0.0
Mn447 Mn 0.27041 0.71092 0.7464 0.0
O448 O 0.24537 0.73889 0.76771 0.0
O449 O 0.25182 0.69554 0.73624 0.0
O450 O 0.24115 0.74859 0.7099 0.0
O451 O 0.21799 0.7698 0.70681 0.0
O452 O 0.29362 0.71412 0.73513 0.0
O453 O 0.26764 0.71695 0.7716 0.0
C454 C 0.2013 0.75666 0.75022 0.0
C455 C 0.25127 0.78642 0.74417 0.0
C456 C 0.23486 0.7008 0.73347 0.0
C457 C 0.28653 0.72964 0.72942 0.0
C458 C 0.25578 0.7287 0.77812 0.0
C459 C 0.23028 0.75873 0.69977 0.0
O460 O 0.21813 0.75486 0.7436 0.0
O461 O 0.19282 0.77153 0.74477 0.0
O462 O 0.47711 -0.00631 0.96855 0.0
Mn463 Mn 0.49016 -0.00219 -0.00557 0.0
O464 O 0.49941 -0.00065 0.94657 0.0
Mn465 Mn 0.51806 0.00876 0.96242 0.0
O466 O 0.50353 0.00179 0.01998 0.0
O467 O 0.46484 0.00051 0.00672 0.0
Mn468 Mn 0.46306 0.98666 0.02679 0.0
O469 O 0.4899 0.96879 -0.00161 0.0
O470 O 0.48251 -0.00532 0.04256 0.0
O471 O 0.49029 0.02675 -0.00959 0.0
O472 O 0.51434 0.03308 0.97065 0.0
O473 O 0.44071 -6e-05 0.02533 0.0
O474 O 0.46529 0.96253 0.01752 0.0
C475 C 0.53288 0.99025 0.98075 0.0
C476 C 0.48266 -0.00556 0.95139 0.0
C477 C 0.4989 0.00016 0.03726 0.0
C478 C 0.44829 0.00698 0.01049 0.0
C479 C 0.47861 0.95731 0.00658 0.0
C480 C 0.50103 0.03827 0.98162 0.0
O481 O 0.5156 -0.00463 0.98262 0.0
O482 O 0.54114 -0.00296 0.96616 0.0
O483 O 0.2709 0.24108 0.2533 0.0
Mn484 Mn 0.24264 0.24383 0.2448 0.0
O485 O 0.27056 0.22101 0.27725 0.0
Mn486 Mn 0.2445 0.21853 0.27905 0.0
O487 O 0.21423 0.24651 0.23645 0.0
O488 O 0.24982 0.26863 0.23369 0.0
Mn489 Mn 0.2391 0.27061 0.21157 0.0
O490 O 0.24882 0.22968 0.21947 0.0
O491 O 0.21329 0.27 0.21593 0.0
O492 O 0.23649 0.25842 0.2699 0.0
O493 O 0.23234 0.23724 0.2924 0.0
O494 O 0.25274 0.29231 0.21511 0.0
O495 O 0.24852 0.25128 0.1969 0.0
C496 C 0.22966 0.20199 0.25885 0.0
C497 C 0.27939 0.23158 0.2659 0.0
C498 C 0.20511 0.25787 0.22605 0.0
C499 C 0.2571 0.28499 0.23097 0.0
C500 C 0.25099 0.23459 0.20229 0.0
C501 C 0.2318 0.25394 0.28668 0.0
O502 O 0.23569 0.21884 0.25592 0.0
O503 O 0.23324 0.19568 0.27535 0.0
O504 O 0.48649 0.47292 0.97494 0.0
Mn505 Mn 0.49182 0.496 -0.00747 0.0
O506 O 0.47779 0.44907 -0.00669 0.0
Mn507 Mn 0.48742 0.45951 0.01518 0.0
O508 O 0.49718 0.51906 0.01019 0.0
O509 O 0.503 0.50904 0.9705 0.0
Mn510 Mn 0.49595 0.53248 0.96995 0.0
O511 O 0.46506 0.50656 0.98639 0.0
O512 O 0.50535 0.54307 -0.00817 0.0
O513 O 0.51855 0.48537 -0.00131 0.0
O514 O 0.51368 0.46016 0.01664 0.0
O515 O 0.511 0.52852 0.94899 0.0
O516 O 0.4697 0.5317 0.96834 0.0
C517 C 0.47186 0.4807 0.03012 0.0
C518 C 0.48025 0.4562 0.97721 0.0
C519 C 0.50317 0.53586 0.00793 0.0
C520 C 0.51207 0.51168 0.9551 0.0
C521 C 0.4588 0.5202 0.97671 0.0
C522 C 0.52467 0.47165 0.00836 0.0
O523 O 0.48066 0.483 0.01454 0.0
O524 O 0.47273 0.46389 0.03635 0.0
O525 O 0.76421 0.26741 0.24785 0.0
Mn526 Mn 0.74617 0.24454 0.24361 0.0
O527 O 0.74597 0.29267 0.25255 0.0
Mn528 Mn 0.72373 0.28166 0.24412 0.0
O529 O 0.72827 0.22147 0.2393 0.0
O530 O 0.76858 0.23028 0.23435 0.0
Mn531 Mn 0.76878 0.20738 0.24264 0.0
O532 O 0.75127 0.23592 0.27098 0.0
O533 O 0.74695 0.19683 0.23267 0.0
O534 O 0.74096 0.2531 0.21618 0.0
O535 O 0.72213 0.2783 0.21829 0.0
O536 O 0.79095 0.2106 0.22898 0.0
O537 O 0.76907 0.20999 0.26862 0.0
C538 C 0.70871 0.26297 0.26227 0.0
C539 C 0.76209 0.28478 0.25193 0.0
C540 C 0.73072 0.20443 0.23399 0.0
C541 C 0.78482 0.22737 0.22674 0.0
C542 C 0.76057 0.22252 0.27834 0.0
C543 C 0.73108 0.26602 0.20865 0.0
O544 O 0.72389 0.25897 0.25309 0.0
O545 O 0.70281 0.27978 0.25974 0.0
O546 O 0.97369 0.49203 0.47081 0.0
Mn547 Mn -0.00987 0.49616 0.4949 0.0
O548 O -0.00611 0.49164 0.44627 0.0
Mn549 Mn 0.01487 0.50052 0.45913 0.0
O550 O 0.00708 0.50013 0.51847 0.0
O551 O 0.96677 0.50353 0.50926 0.0
Mn552 Mn 0.96665 0.49301 0.5314 0.0
O553 O 0.98607 0.46796 0.50163 0.0
O554 O 0.98817 0.50145 0.54378 0.0
O555 O -0.00641 0.52429 0.48833 0.0
O556 O 0.0145 0.52588 0.46456 0.0
O557 O 0.94521 0.50755 0.53057 0.0
O558 O 0.96588 0.46766 0.52614 0.0
C559 C 0.0306 0.48321 0.47775 0.0
C560 C 0.97724 0.49021 0.45317 0.0
C561 C 0.00446 0.50254 0.53612 0.0
C562 C 0.95115 0.51164 0.51395 0.0
C563 C 0.97569 0.45924 0.51359 0.0
C564 C 0.00383 0.53359 0.47681 0.0
O565 O 0.01379 0.48943 0.48088 0.0
O566 O 0.0373 0.48758 0.4615 0.0
O567 O 0.76764 0.74937 0.26143 0.0
Mn568 Mn 0.74565 0.74389 0.24261 0.0
O569 O 0.79434 0.75229 0.24433 0.0
Mn570 Mn 0.7847 0.7424 0.22217 0.0
O571 O 0.72373 0.7385 0.22379 0.0
O572 O 0.72938 0.73654 0.26435 0.0
Mn573 Mn 0.70634 0.74547 0.26248 0.0
O574 O 0.73687 0.77155 0.24547 0.0
O575 O 0.69686 0.73491 0.2405 0.0
O576 O 0.75467 0.71623 0.23972 0.0
O577 O 0.781 0.7167 0.22168 0.0
O578 O 0.7072 0.73284 0.28493 0.0
O579 O 0.70985 0.77119 0.26247 0.0
C580 C 0.76626 0.75906 0.20533 0.0
C581 C 0.78538 0.75313 0.25988 0.0
C582 C 0.70609 0.73435 0.22512 0.0
C583 C 0.72466 0.72991 0.28036 0.0
C584 C 0.72321 0.7798 0.25409 0.0
C585 C 0.76808 0.70797 0.23064 0.0
O586 O 0.76172 0.75138 0.22088 0.0
O587 O 0.78367 0.75631 0.20043 0.0
O588 O 0.77396 0.2453 0.73451 0.0
Mn589 Mn 0.74549 0.24203 0.7421 0.0
O590 O 0.77486 0.26641 0.71147 0.0
Mn591 Mn 0.74891 0.26786 0.70799 0.0
O592 O 0.71694 0.23884 0.7496 0.0
O593 O 0.75234 0.21737 0.7536 0.0
Mn594 Mn 0.74152 0.21584 0.77579 0.0
O595 O 0.75071 0.25653 0.76729 0.0
O596 O 0.71572 0.21645 0.77137 0.0
O597 O 0.74017 0.22749 0.71695 0.0
O598 O 0.73818 0.24858 0.69408 0.0
O599 O 0.7546 0.19397 0.77261 0.0
O600 O 0.75121 0.23532 0.79017 0.0
C601 C 0.73249 0.28331 0.72797 0.0
C602 C 0.78306 0.25555 0.72285 0.0
C603 C 0.7077 0.22781 0.76041 0.0
C604 C 0.75906 0.20091 0.75655 0.0
C605 C 0.75314 0.25199 0.78448 0.0
C606 C 0.73683 0.2319 0.69988 0.0
O607 O 0.73884 0.26666 0.73058 0.0
O608 O 0.73656 0.29013 0.71176 0.0
O609 O 0.7729 0.74113 0.75108 0.0
Mn610 Mn 0.74399 0.74267 0.7441 0.0
O611 O 0.77598 0.71716 0.77079 0.0
Mn612 Mn 0.75037 0.71418 0.77527 0.0
O613 O 0.71505 0.74419 0.73716 0.0
O614 O 0.7492 0.76869 0.73468 0.0
Mn615 Mn 0.73735 0.7714 0.71319 0.0
O616 O 0.74979 0.7308 0.71759 0.0
O617 O 0.71183 0.76885 0.71834 0.0
O618 O 0.73808 0.75458 0.7706 0.0
O619 O 0.73978 0.73155 0.79154 0.0
O620 O 0.74957 0.79371 0.71765 0.0
O621 O 0.74737 0.75385 0.6967 0.0
C622 C 0.73329 0.69954 0.7553 0.0
C623 C 0.78307 0.73014 0.76094 0.0
C624 C 0.70482 0.75561 0.72788 0.0
C625 C 0.75525 0.78565 0.73271 0.0
C626 C 0.75097 0.73698 0.70076 0.0
C627 C 0.73646 0.74845 0.78742 0.0
O628 O 0.73894 0.71665 0.75352 0.0
O629 O 0.73875 0.69163 0.77052 0.0
O630 O 0.51455 0.51075 0.48498 0.0
Mn631 Mn 0.49014 0.49527 0.49211 0.0
O632 O 0.53861 0.49064 0.48277 0.0
Mn633 Mn 0.52586 0.47194 0.49506 0.0
O634 O 0.46557 0.47999 0.49917 0.0
O635 O 0.47772 0.52001 0.49822 0.0
Mn636 Mn 0.45442 0.51935 0.48948 0.0
O637 O 0.48113 0.49638 0.46406 0.0
O638 O 0.44184 0.50054 0.50188 0.0
O639 O 0.49903 0.49438 0.52017 0.0
O640 O 0.52373 0.47474 0.52076 0.0
O641 O 0.45732 0.54268 0.50007 0.0
O642 O 0.45646 0.51607 0.46381 0.0
C643 C 0.50711 0.45328 0.48112 0.0
C644 C 0.53189 0.50692 0.48101 0.0
C645 C 0.44832 0.4841 0.50333 0.0
C646 C 0.47422 0.53695 0.50377 0.0
C647 C 0.46815 0.50536 0.45537 0.0
C648 C 0.51182 0.48533 0.52897 0.0
O649 O 0.50258 0.47026 0.48604 0.0
O650 O 0.52437 0.44859 0.48486 0.0
O651 O 0.97366 0.47494 0.98746 0.0
Mn652 Mn -0.00562 0.49554 -0.00786 0.0
O653 O 0.94653 0.48974 0.98066 0.0
Mn654 Mn 0.95444 0.5131 0.98892 0.0
O655 O 0.01453 0.51656 -0.00307 0.0
O656 O 0.01105 0.47551 0.00306 0.0
Mn657 Mn 0.03463 0.47999 -0.00397 0.0
O658 O 0.00569 0.49055 0.96556 0.0
O659 O 0.04131 0.50293 0.00621 0.0
O660 O 0.98318 0.50066 0.01877 0.0
O661 O 0.95599 0.51646 0.01477 0.0
O662 O 0.0357 0.45895 0.01033 0.0
O663 O 0.03464 0.47841 0.96997 0.0
C664 C 0.97278 0.52987 0.97196 0.0
C665 C 0.95619 0.47492 0.98239 0.0
C666 C 0.03133 0.51734 0.00367 0.0
C667 C 0.01755 0.46103 0.01157 0.0
C668 C 0.02137 0.48389 0.95926 0.0
C669 C 0.96876 0.50956 0.0252 0.0
O670 O 0.97795 0.51538 0.98112 0.0
O671 O 0.95487 0.53336 0.97321 0.0
H672 H 0.00151 0.169 0.11666 0.0
H673 H 0.0042 0.14002 0.09877 0.0
H674 H -0.00428 0.16974 0.04744 0.0
H675 H -0.00733 0.19909 0.06541 0.0
H676 H 0.97418 0.13839 0.04891 0.0
H677 H 0.04758 0.12027 0.0677 0.0
H678 H 0.03332 0.12456 0.08811 0.0
H679 H 0.03793 0.14319 0.07204 0.0
C680 C 0.0003 0.16952 0.10155 0.0
C681 C -0.00308 0.1865 0.09251 0.0
C682 C 0.00205 0.15286 0.0913 0.0
C683 C 0.00067 0.15268 0.0717 0.0
C684 C -0.00291 0.16955 0.06256 0.0
H685 H -0.005 0.05636 -0.00539 0.0
H686 H 0.00584 0.08639 0.00782 0.0
C687 C -0.00471 0.18631 0.07285 0.0
C688 C 0.00174 0.13465 0.06106 0.0
H689 H 0.02807 0.09494 0.05584 0.0
C690 C 0.98613 0.12906 0.05015 0.0
C691 C 0.01734 0.12241 0.06262 0.0
C692 C 0.03507 0.128 0.0731 0.0
C693 C 0.9853 0.11131 0.04156 0.0
C694 C 0.00051 0.0988 0.04383 0.0
C695 C 0.01641 0.10454 0.05419 0.0
C696 C -0.00075 0.07935 0.03648 0.0
C697 C 0.96783 0.10568 0.03067 0.0
C698 C -0.00695 0.06511 0.04834 0.0
C699 C 0.98697 0.04795 0.04081 0.0
C700 C 0.98724 0.04473 0.02136 0.0
C701 C -0.00483 0.05832 0.0097 0.0
C702 C 0.00116 0.07554 0.01721 0.0
H703 H 0.95668 0.11653 0.03131 0.0
H704 H 0.97167 0.10314 0.01576 0.0
H705 H 0.96189 0.09247 0.03619 0.0
H706 H -0.00864 0.06782 0.06323 0.0
H707 H 0.9804 0.0379 0.05001 0.0
H708 H 0.03364 0.72844 0.31027 0.0
H709 H 0.063 0.72711 0.29187 0.0
H710 H 0.09554 0.73722 0.3421 0.0
H711 H 0.06638 0.73871 0.36054 0.0
H712 H 0.10548 0.76025 0.31132 0.0
H713 H 0.10288 0.68484 0.29161 0.0
H714 H 0.08214 0.69831 0.28665 0.0
H715 H 0.08885 0.69454 0.31052 0.0
C716 C 0.04707 0.73026 0.31741 0.0
C717 C 0.0477 0.73365 0.33687 0.0
C718 C 0.0638 0.72944 0.30688 0.0
C719 C 0.08141 0.73193 0.31566 0.0
C720 C 0.08207 0.73525 0.33507 0.0
H721 H 0.19618 0.70891 0.29283 0.0
H722 H 0.16282 0.7096 0.30157 0.0
C723 C 0.06539 0.73605 0.34559 0.0
C724 C 0.09927 0.73147 0.30475 0.0
H725 H 0.12902 0.70222 0.28082 0.0
C726 C 0.11056 0.74764 0.30445 0.0
C727 C 0.10582 0.71496 0.29589 0.0
C728 C 0.09441 0.6971 0.29621 0.0
C729 C 0.12852 0.74761 0.29599 0.0
C730 C 0.13524 0.731 0.28742 0.0
C731 C 0.12372 0.71496 0.28726 0.0
C732 C 0.15497 0.72947 0.28052 0.0
C733 C 0.14055 0.76508 0.29707 0.0
C734 C 0.16153 0.7401 0.26543 0.0
C735 C 0.1807 0.73977 0.26036 0.0
C736 C 0.19359 0.72882 0.27034 0.0
C737 C 0.18672 0.71763 0.28493 0.0
C738 C 0.16762 0.71793 0.28992 0.0
H739 H 0.13449 0.77572 0.30681 0.0
H740 H 0.15511 0.76176 0.30176 0.0
H741 H 0.1416 0.77127 0.28294 0.0
H742 H 0.15191 0.74893 0.25786 0.0
H743 H 0.1855 0.74853 0.24904 0.0
H744 H 0.47779 0.81987 0.60931 0.0
H745 H 0.47513 0.85011 0.59434 0.0
H746 H 0.49213 0.82535 0.54154 0.0
H747 H 0.49462 0.79484 0.55643 0.0
H748 H 0.50357 0.8696 0.57764 0.0
H749 H 0.44616 0.85588 0.52638 0.0
H750 H 0.45089 0.84055 0.54564 0.0
H751 H 0.46522 0.83947 0.52479 0.0
C752 C 0.48082 0.82076 0.59446 0.0
C753 C 0.48643 0.80487 0.58407 0.0
C754 C 0.47926 0.83811 0.58592 0.0
C755 C 0.48315 0.84003 0.56675 0.0
C756 C 0.48862 0.82418 0.55626 0.0
H757 H 0.50989 0.92617 0.49159 0.0
H758 H 0.49775 0.89801 0.50638 0.0
C759 C 0.49019 0.80675 0.56482 0.0
C760 C 0.48283 0.85887 0.55818 0.0
H761 H 0.46415 0.88395 0.52233 0.0
C762 C 0.49474 0.87282 0.56572 0.0
C763 C 0.47129 0.8631 0.54264 0.0
C764 C 0.45752 0.84902 0.53447 0.0
C765 C 0.49608 0.89055 0.55767 0.0
C766 C 0.48489 0.89466 0.54183 0.0
C767 C 0.47259 0.88087 0.53457 0.0
C768 C 0.48767 0.91229 0.53135 0.0
C769 C 0.51023 0.90441 0.56565 0.0
C770 C 0.48493 0.92991 0.53991 0.0
C771 C 0.49176 0.94614 0.53132 0.0
C772 C 0.50129 0.94487 0.51407 0.0
C773 C 0.50241 0.92749 0.50482 0.0
C774 C 0.49554 0.91137 0.5133 0.0
H775 H 0.52013 0.89786 0.57564 0.0
H776 H 0.51865 0.91087 0.55427 0.0
H777 H 0.50256 0.91567 0.57325 0.0
H778 H 0.47862 0.93098 0.55373 0.0
H779 H 0.49099 0.95935 0.53882 0.0
H780 H 0.42916 0.23757 0.86883 0.0
H781 H 0.39449 0.23871 0.86666 0.0
H782 H 0.39916 0.26408 0.81246 0.0
H783 H 0.43361 0.263 0.81437 0.0
H784 H 0.37302 0.28178 0.84429 0.0
H785 H 0.36162 0.20681 0.82522 0.0
H786 H 0.37787 0.21374 0.84358 0.0
H787 H 0.38384 0.21804 0.81961 0.0
C788 C 0.4228 0.24332 0.85641 0.0
C789 C 0.43416 0.25017 0.84174 0.0
C790 C 0.40303 0.24399 0.85525 0.0
C791 C 0.39441 0.25155 0.83945 0.0
C792 C 0.40566 0.25828 0.8248 0.0
H793 H 0.31356 0.27882 0.76881 0.0
H794 H 0.33615 0.27941 0.79444 0.0
C795 C 0.42534 0.25756 0.82589 0.0
C796 C 0.37364 0.25239 0.83766 0.0
H797 H 0.33705 0.22763 0.81849 0.0
C798 C 0.36492 0.26986 0.83918 0.0
C799 C 0.3631 0.23675 0.83135 0.0
C800 C 0.37195 0.2177 0.82982 0.0
C801 C 0.34633 0.27239 0.8329 0.0
C802 C 0.33654 0.25718 0.8245 0.0
C803 C 0.34459 0.23932 0.82486 0.0
C804 C 0.32042 0.26007 0.81167 0.0
C805 C 0.33779 0.29158 0.83428 0.0
C806 C 0.30381 0.24924 0.81293 0.0
C807 C 0.29079 0.24889 0.79814 0.0
C808 C 0.29447 0.25909 0.78185 0.0
C809 C 0.31042 0.27083 0.78122 0.0
C810 C 0.32325 0.27132 0.79598 0.0
H811 H 0.34276 0.29904 0.84713 0.0
H812 H 0.34243 0.29986 0.82207 0.0
H813 H 0.32207 0.29094 0.83446 0.0
H814 H 0.30148 0.24028 0.82481 0.0
H815 H 0.27871 0.23955 0.79884 0.0
H816 H 0.02009 0.81881 0.36777 0.0
H817 H 0.01816 0.84847 0.3851 0.0
H818 H 0.97336 0.82588 0.41939 0.0
H819 H 0.97603 0.79591 0.40284 0.0
H820 H -0.00865 0.87327 0.38944 0.0
H821 H 0.00799 0.84453 0.4591 0.0
H822 H 0.01014 0.83086 0.43784 0.0
H823 H 0.98737 0.83387 0.4489 0.0
C824 C 0.00999 0.82015 0.37916 0.0
C825 C -0.00156 0.80501 0.3842 0.0
C826 C 0.00881 0.83711 0.38897 0.0
C827 C -0.00414 0.83932 0.40379 0.0
C828 C 0.98389 0.82435 0.40843 0.0
H829 H 0.97203 0.9493 0.45583 0.0
H830 H 0.96974 0.9214 0.43538 0.0
C831 C 0.98539 0.80725 0.39894 0.0
C832 C -0.00495 0.85722 0.41445 0.0
H833 H -0.00199 0.87591 0.45856 0.0
C834 C -0.00713 0.87388 0.40456 0.0
C835 C -0.00282 0.85801 0.43416 0.0
C836 C 0.001 0.84089 0.44559 0.0
C837 C -0.00694 0.89133 0.41382 0.0
C838 C -0.00518 0.89203 0.43355 0.0
C839 C -0.00344 0.87535 0.44343 0.0
C840 C -0.00355 0.9098 0.44434 0.0
C841 C -0.0079 0.90878 0.40233 0.0
C842 C 0.01212 0.91252 0.45612 0.0
C843 C 0.01313 0.928 0.46804 0.0
C844 C -0.00135 0.9413 0.46824 0.0
C845 C 0.98337 0.9392 0.45583 0.0
C846 C 0.98213 0.92336 0.44411 0.0
H847 H -0.00432 0.90599 0.38738 0.0
H848 H 0.97749 0.91435 0.40292 0.0
H849 H 0.0019 0.9197 0.4079 0.0
H850 H 0.02341 0.90237 0.45644 0.0
H851 H 0.0252 0.92948 0.47731 0.0
H852 H 0.42591 0.76211 0.62136 0.0
H853 H 0.39338 0.77083 0.63012 0.0
H854 H 0.40182 0.7482 0.68505 0.0
H855 H 0.43396 0.7393 0.6765 0.0
H856 H 0.36355 0.74468 0.64519 0.0
H857 H 0.38141 0.80305 0.69365 0.0
H858 H 0.3971 0.7953 0.67507 0.0
H859 H 0.39603 0.78293 0.6968 0.0
C860 C 0.42081 0.759 0.6353 0.0
C861 C 0.43257 0.74999 0.64823 0.0
C862 C 0.40226 0.76403 0.64027 0.0
C863 C 0.39535 0.76044 0.65832 0.0
C864 C 0.40701 0.75138 0.67114 0.0
H865 H 0.3232 0.73613 0.7361 0.0
H866 H 0.34597 0.75109 0.71566 0.0
C867 C 0.42536 0.74617 0.66616 0.0
C868 C 0.37572 0.76515 0.66398 0.0
H869 H 0.35215 0.78641 0.70008 0.0
C870 C 0.36078 0.75429 0.65675 0.0
C871 C 0.37216 0.7779 0.67884 0.0
C872 C 0.3875 0.79062 0.68644 0.0
C873 C 0.34293 0.75416 0.66554 0.0
C874 C 0.34005 0.76531 0.68186 0.0
C875 C 0.35436 0.77781 0.68763 0.0
C876 C 0.32516 0.76037 0.69569 0.0
C877 C 0.32797 0.74066 0.65853 0.0
C878 C 0.30564 0.76149 0.69187 0.0
C879 C 0.29241 0.75296 0.70384 0.0
C880 C 0.29869 0.74305 0.71945 0.0
C881 C 0.318 0.74346 0.724 0.0
C882 C 0.33105 0.75208 0.71233 0.0
H883 H 0.33275 0.73252 0.64604 0.0
H884 H 0.32409 0.73076 0.66975 0.0
H885 H 0.31504 0.74842 0.65471 0.0
H886 H 0.30075 0.76811 0.67925 0.0
H887 H 0.27758 0.75303 0.70023 0.0
H888 H 0.46576 0.18247 0.89332 0.0
H889 H 0.46289 0.15523 0.91322 0.0
H890 H 0.5028 0.17985 0.95217 0.0
H891 H 0.5053 0.2075 0.93252 0.0
H892 H 0.49119 0.13239 0.91979 0.0
H893 H 0.46389 0.15887 0.98793 0.0
H894 H 0.46298 0.17238 0.96679 0.0
H895 H 0.48453 0.1713 0.98013 0.0
C896 C 0.47369 0.18225 0.90628 0.0
C897 C 0.48585 0.19709 0.9113 0.0
C898 C 0.47199 0.16668 0.91768 0.0
C899 C 0.48247 0.16552 0.93431 0.0
C900 C 0.49421 0.18058 0.93966 0.0
H901 H 0.52644 0.06668 0.98032 0.0
H902 H 0.51989 0.09896 0.97224 0.0
C903 C 0.49577 0.19631 0.92833 0.0
C904 C 0.48281 0.14769 0.94465 0.0
H905 H 0.47766 0.12823 0.98789 0.0
C906 C 0.48796 0.13151 0.93463 0.0
C907 C 0.47855 0.14646 0.96402 0.0
C908 C 0.47199 0.16315 0.97532 0.0
C909 C 0.48948 0.11429 0.94346 0.0
C910 C 0.48606 0.11321 0.96293 0.0
C911 C 0.48039 0.1292 0.97298 0.0
C912 C 0.48946 0.09559 0.97284 0.0
C913 C 0.49511 0.09736 0.93196 0.0
C914 C 0.47443 0.08335 0.97687 0.0
C915 C 0.47815 0.06484 0.98169 0.0
C916 C 0.49692 0.05843 0.98227 0.0
C917 C 0.51185 0.07123 0.97986 0.0
C918 C 0.50814 0.08968 0.97528 0.0
H919 H 0.49381 0.09976 0.91667 0.0
H920 H 0.51007 0.09389 0.93499 0.0
H921 H 0.48622 0.08512 0.93568 0.0
H922 H 0.45991 0.08769 0.97494 0.0
H923 H 0.46638 0.05522 0.98335 0.0
H924 H 0.06252 0.24441 0.12203 0.0
H925 H 0.09114 0.24318 0.14113 0.0
H926 H 0.05938 0.26197 0.1895 0.0
H927 H 0.03053 0.26258 0.17058 0.0
H928 H 0.10937 0.2701 0.15866 0.0
H929 H 0.08672 0.21853 0.21134 0.0
H930 H 0.07339 0.22265 0.19027 0.0
H931 H 0.07113 0.23813 0.21024 0.0
C932 C 0.0616 0.2482 0.13676 0.0
C933 C 0.04425 0.25354 0.14481 0.0
C934 C 0.07797 0.24745 0.14768 0.0
C935 C 0.0774 0.25213 0.16687 0.0
C936 C 0.06012 0.25775 0.17488 0.0
H937 H 0.17954 0.2858 0.22537 0.0
H938 H 0.14711 0.28385 0.21354 0.0
C939 C 0.04367 0.25829 0.164 0.0
C940 C 0.09512 0.25208 0.1781 0.0
H941 H 0.11548 0.23513 0.21778 0.0
C942 C 0.11069 0.26238 0.17155 0.0
C943 C 0.09698 0.24181 0.19481 0.0
C944 C 0.08123 0.2295 0.20199 0.0
C945 C 0.12793 0.26286 0.18123 0.0
C946 C 0.12955 0.25329 0.19837 0.0
C947 C 0.11411 0.24273 0.20483 0.0
C948 C 0.14738 0.2539 0.20938 0.0
C949 C 0.14441 0.2733 0.17271 0.0
C950 C 0.15771 0.23754 0.21245 0.0
C951 C 0.17613 0.23859 0.21971 0.0
C952 C 0.18442 0.25604 0.22384 0.0
C953 C 0.17347 0.2722 0.22221 0.0
C954 C 0.15502 0.27111 0.2153 0.0
H955 H 0.14251 0.2752 0.1574 0.0
H956 H 0.14551 0.28735 0.17936 0.0
H957 H 0.15794 0.26587 0.17497 0.0
H958 H 0.15203 0.22409 0.2081 0.0
H959 H 0.18439 0.22597 0.22061 0.0
H960 H 0.0631 0.98216 0.20556 0.0
H961 H 0.04479 0.98237 0.17648 0.0
H962 H 0.09647 0.98718 0.14455 0.0
H963 H 0.11488 0.98725 0.17357 0.0
H964 H 0.06818 0.01179 0.13329 0.0
H965 H 0.04052 0.93924 0.13834 0.0
H966 H 0.03593 0.95409 0.15833 0.0
H967 H 0.05987 0.94786 0.15257 0.0
C968 C 0.07059 0.98319 0.19234 0.0
C969 C 0.09048 0.98458 0.19187 0.0
C970 C 0.06009 0.98324 0.17574 0.0
C971 C 0.06927 0.98456 0.15834 0.0
C972 C 0.0891 0.98611 0.15784 0.0
H973 H 0.04053 0.95682 0.04637 0.0
H974 H 0.05035 0.95887 0.07899 0.0
C975 C 0.09961 0.98609 0.17443 0.0
C976 C 0.05833 0.98437 0.1406 0.0
H977 H 0.03024 0.95678 0.11267 0.0
C978 C 0.05974 -0.00017 0.12883 0.0
C979 C 0.0474 0.96871 0.1348 0.0
C980 C 0.0459 0.95145 0.14656 0.0
C981 C 0.05088 -9e-05 0.11122 0.0
C982 C 0.0401 0.98418 0.10534 0.0
C983 C 0.03833 0.96889 0.1173 0.0
C984 C 0.03253 0.98238 0.086 0.0
C985 C 0.05384 0.01645 0.09869 0.0
C986 C 0.0188 -0.00536 0.07918 0.0
C987 C 0.01309 -0.00648 0.06037 0.0
C988 C 0.02107 0.98013 0.04812 0.0
C989 C 0.0342 0.96743 0.05531 0.0
C990 C 0.03981 0.96852 0.07401 0.0
H991 H 0.06515 0.02597 0.104 0.0
H992 H 0.05762 0.01177 0.08426 0.0
H993 H 0.04049 0.02447 0.0979 0.0
H994 H 0.01278 0.00527 0.0883 0.0
H995 H 0.00294 0.00351 0.0553 0.0
H996 H 0.25973 0.88272 0.41582 0.0
H997 H 0.26258 0.86802 0.38488 0.0
H998 H 0.23363 0.81907 0.40515 0.0
H999 H 0.2318 0.83334 0.43648 0.0
H1000 H 0.26203 0.80878 0.38598 0.0
H1001 H 0.22569 0.86169 0.34389 0.0
H1002 H 0.24534 0.87174 0.35633 0.0
H1003 H 0.22549 0.86239 0.36915 0.0
C1004 C 0.25385 0.86887 0.41362 0.0
C1005 C 0.24549 0.85917 0.42853 0.0
C1006 C 0.25532 0.86054 0.39586 0.0
C1007 C 0.24791 0.84259 0.39246 0.0
C1008 C 0.23939 0.83297 0.40735 0.0
H1009 H 0.23022 0.78705 0.28557 0.0
H1010 H 0.22868 0.80874 0.31233 0.0
C1011 C 0.23834 0.84111 0.42525 0.0
C1012 C 0.25011 0.83333 0.37378 0.0
H1013 H 0.24386 0.83908 0.32672 0.0
C1014 C 0.25791 0.81539 0.37306 0.0
C1015 C 0.24455 0.84181 0.35685 0.0
C1016 C 0.23461 0.86038 0.3566 0.0
C1017 C 0.26031 0.80569 0.35603 0.0
C1018 C 0.25573 0.81456 0.33902 0.0
C1019 C 0.2478 0.83246 0.3397 0.0
C1020 C 0.25788 0.80485 0.32058 0.0
C1021 C 0.26702 0.78574 0.35664 0.0
C1022 C 0.27513 0.7965 0.3155 0.0
C1023 C 0.27589 0.78382 0.30046 0.0
C1024 C 0.25964 0.78001 0.28978 0.0
C1025 C 0.24301 0.79003 0.29346 0.0
C1026 C 0.2421 0.80231 0.30884 0.0
H1027 H 0.2644 0.77949 0.37057 0.0
H1028 H 0.25983 0.77692 0.34586 0.0
H1029 H 0.28251 0.78537 0.35401 0.0
H1030 H 0.28769 0.7988 0.32392 0.0
H1031 H 0.28884 0.77618 0.29785 0.0
H1032 H 0.43149 0.00852 0.70582 0.0
H1033 H 0.45092 0.00988 0.67726 0.0
H1034 H 0.40052 0.00523 0.6435 0.0
H1035 H 0.38106 0.00389 0.67176 0.0
H1036 H 0.43259 0.97871 0.63544 0.0
H1037 H 0.45229 0.05418 0.63769 0.0
H1038 H 0.45449 0.04055 0.6586 0.0
H1039 H 0.43145 0.04554 0.64956 0.0
C1040 C 0.42456 0.00793 0.6923 0.0
C1041 C 0.40475 0.00607 0.69102 0.0
C1042 C 0.43567 0.00872 0.67605 0.0
C1043 C 0.42708 0.00767 0.65838 0.0
C1044 C 0.40735 0.00604 0.65708 0.0
H1045 H 0.44107 0.02762 0.54516 0.0
H1046 H 0.43562 0.02736 0.57886 0.0
C1047 C 0.39626 0.00532 0.67323 0.0
C1048 C 0.43845 0.00775 0.64101 0.0
H1049 H 0.46029 0.03707 0.61046 0.0
C1050 C 0.43903 -0.00866 0.63008 0.0
C1051 C 0.44673 0.0243 0.6342 0.0
C1052 C 0.44626 0.04223 0.64551 0.0
C1053 C 0.44687 -0.00873 0.61201 0.0
C1054 C 0.45437 0.00804 0.60483 0.0
C1055 C 0.45462 0.02424 0.61613 0.0
C1056 C 0.45941 0.00958 0.58482 0.0
C1057 C 0.44597 0.97358 0.60028 0.0
C1058 C 0.47487 -3e-05 0.5771 0.0
C1059 C 0.47807 6e-05 0.55774 0.0
C1060 C 0.46575 0.00969 0.54585 0.0
C1061 C 0.45073 0.01989 0.55383 0.0
C1062 C 0.44764 0.01986 0.57312 0.0
H1063 H 0.43774 0.96237 0.60723 0.0
H1064 H 0.43942 0.97636 0.58648 0.0
H1065 H 0.46054 0.96843 0.59768 0.0
H1066 H 0.4842 -0.00791 0.58599 0.0
H1067 H 0.48988 -0.00778 0.55208 0.0
H1068 H 0.25693 0.12552 0.91861 0.0
H1069 H 0.25953 0.1413 0.88867 0.0
H1070 H 0.25209 0.19445 0.91669 0.0
H1071 H 0.2495 0.17871 0.94693 0.0
H1072 H 0.22957 0.16359 0.8749 0.0
H1073 H 0.29736 0.2032 0.87978 0.0
H1074 H 0.29211 0.1834 0.89434 0.0
H1075 H 0.28151 0.20559 0.89944 0.0
C1076 C 0.25608 0.1406 0.91851 0.0
C1077 C 0.2529 0.15086 0.93517 0.0
C1078 C 0.25763 0.14958 0.90136 0.0
C1079 C 0.25621 0.16903 0.90047 0.0
C1080 C 0.25357 0.17943 0.91711 0.0
H1081 H 0.23599 0.24797 0.81465 0.0
H1082 H 0.24798 0.23211 0.84231 0.0
C1083 C 0.25196 0.17042 0.93435 0.0
C1084 C 0.25542 0.17806 0.88194 0.0
H1085 H 0.27768 0.20945 0.85367 0.0
C1086 C 0.24018 0.17348 0.87016 0.0
C1087 C 0.26923 0.19103 0.87591 0.0
C1088 C 0.28609 0.19606 0.88792 0.0
C1089 C 0.23804 0.18188 0.85269 0.0
C1090 C 0.25187 0.19484 0.84654 0.0
C1091 C 0.26724 0.19933 0.85828 0.0
C1092 C 0.24949 0.20498 0.82872 0.0
C1093 C 0.22049 0.17737 0.84138 0.0
C1094 C 0.24748 0.19522 0.81158 0.0
C1095 C 0.24049 0.20428 0.79582 0.0
C1096 C 0.23604 0.22326 0.79688 0.0
C1097 C 0.23971 0.23336 0.81348 0.0
C1098 C 0.24651 0.2243 0.82928 0.0
H1099 H 0.20931 0.17066 0.85001 0.0
H1100 H 0.21453 0.19015 0.83517 0.0
H1101 H 0.2242 0.16754 0.8298 0.0
H1102 H 0.24992 0.18033 0.81078 0.0
H1103 H 0.23701 0.19615 0.78338 0.0
H1104 H 0.11311 0.97593 0.30908 0.0
H1105 H 0.10378 0.96743 0.34109 0.0
H1106 H 0.04897 -0.00804 0.33255 0.0
H1107 H 0.05807 0.00055 0.3009 0.0
H1108 H 0.0906 -0.00746 0.37073 0.0
H1109 H 0.03687 0.93904 0.35258 0.0
H1110 H 0.05546 0.94588 0.33655 0.0
H1111 H 0.03429 0.9596 0.33881 0.0
C1112 C 0.09906 0.97948 0.31404 0.0
C1113 C 0.08633 0.98892 0.30239 0.0
C1114 C 0.09376 0.97456 0.33229 0.0
C1115 C 0.07555 0.97871 0.33902 0.0
C1116 C 0.06295 0.98825 0.32748 0.0
H1117 H 0.00236 0.01327 0.41034 0.0
H1118 H 0.02202 -0.003 0.38766 0.0
C1119 C 0.06825 -0.00669 0.30941 0.0
C1120 C 0.06963 0.97426 0.35841 0.0
H1121 H 0.03136 0.95673 0.38162 0.0
C1122 C 0.07809 0.98411 0.37336 0.0
C1123 C 0.05352 0.963 0.36186 0.0
C1124 C 0.04463 0.95111 0.34661 0.0
C1125 C 0.06939 0.98491 0.3911 0.0
C1126 C 0.05187 0.97562 0.39381 0.0
C1127 C 0.04475 0.96391 0.37952 0.0
C1128 C 0.03843 0.98241 0.4083 0.0
C1129 C 0.07778 -0.00263 0.40618 0.0
C1130 C 0.04061 0.97903 0.42755 0.0
C1131 C 0.02902 0.9883 0.44074 0.0
C1132 C 0.01563 0.0013 0.43475 0.0
C1133 C 0.01282 0.00361 0.41545 0.0
C1134 C 0.024 -0.00577 0.40242 0.0
H1135 H 0.09195 0.00287 0.40221 0.0
H1136 H 0.06822 0.00934 0.40897 0.0
H1137 H 0.07913 0.98954 0.4194 0.0
H1138 H 0.05159 0.96979 0.43234 0.0
H1139 H 0.03109 0.98605 0.45551 0.0
H1140 H 0.2429 0.80216 0.52227 0.0
H1141 H 0.24412 0.7803 0.54838 0.0
H1142 H 0.25129 0.8265 0.58721 0.0
H1143 H 0.25072 0.84822 0.5613 0.0
H1144 H 0.27438 0.79796 0.59577 0.0
H1145 H 0.20102 0.77133 0.58431 0.0
H1146 H 0.21715 0.76823 0.56503 0.0
H1147 H 0.21021 0.79134 0.5722 0.0
C1148 C 0.24478 0.80762 0.53639 0.0
C1149 C 0.24657 0.82694 0.53972 0.0
C1150 C 0.2454 0.79512 0.5513 0.0
C1151 C 0.24752 0.80175 0.56983 0.0
C1152 C 0.24967 0.82101 0.57307 0.0
H1153 H 0.20892 0.77782 0.67495 0.0
H1154 H 0.21509 0.78308 0.64214 0.0
C1155 C 0.24925 0.83344 0.55821 0.0
C1156 C 0.24688 0.78902 0.58612 0.0
H1157 H 0.21679 0.76127 0.61102 0.0
C1158 C 0.26192 0.78968 0.59899 0.0
C1159 C 0.23063 0.77815 0.59027 0.0
C1160 C 0.21375 0.77725 0.57734 0.0
C1161 C 0.26063 0.78087 0.61643 0.0
C1162 C 0.24398 0.77077 0.62095 0.0
C1163 C 0.22956 0.76897 0.6075 0.0
C1164 C 0.23964 0.76524 0.64052 0.0
C1165 C 0.27648 0.78362 0.63038 0.0
C1166 C 0.25103 0.75288 0.65058 0.0
C1167 C 0.24757 0.74982 0.66971 0.0
C1168 C 0.2327 0.75916 0.67904 0.0
C1169 C 0.2207 0.77055 0.66848 0.0
C1170 C 0.22416 0.77356 0.64957 0.0
H1171 H 0.28717 0.79395 0.62558 0.0
H1172 H 0.2708 0.78841 0.64414 0.0
H1173 H 0.28377 0.77016 0.63248 0.0
H1174 H 0.26281 0.74592 0.64378 0.0
H1175 H 0.25681 0.7406 0.67724 0.0
H1176 H 0.40283 0.94839 0.79636 0.0
H1177 H 0.4088 0.94478 0.82982 0.0
H1178 H 0.40186 0.00414 0.8383 0.0
H1179 H 0.39442 0.00743 0.80508 0.0
H1180 H 0.43714 0.95652 0.84637 0.0
H1181 H 0.37755 0.98791 0.8848 0.0
H1182 H 0.37612 0.98258 0.86003 0.0
H1183 H 0.38601 0.00451 0.86825 0.0
C1184 C 0.40217 0.96056 0.80553 0.0
C1185 C 0.39833 0.9782 0.79828 0.0
C1186 C 0.4055 0.9585 0.82463 0.0
C1187 C 0.40559 0.97414 0.83675 0.0
C1188 C 0.40124 -0.00827 0.82949 0.0
H1189 H 0.48646 0.00253 0.91455 0.0
H1190 H 0.46518 -0.0055 0.88904 0.0
C1191 C 0.39727 -0.00631 0.81045 0.0
C1192 C 0.41313 0.97254 0.85607 0.0
H1193 H 0.40866 0.99034 0.90052 0.0
C1194 C 0.43053 0.96347 0.85828 0.0
C1195 C 0.40449 0.9812 0.87187 0.0
C1196 C 0.3849 0.98938 0.87111 0.0
C1197 C 0.44023 0.9642 0.87531 0.0
C1198 C 0.43272 0.97487 0.89034 0.0
C1199 C 0.41459 0.98253 0.88879 0.0
C1200 C 0.44471 0.98029 0.90646 0.0
C1201 C 0.4589 0.9542 0.87678 0.0
C1202 C 0.4398 0.97566 0.92489 0.0
C1203 C 0.45198 0.9804 0.93972 0.0
C1204 C 0.46915 0.98983 0.93621 0.0
C1205 C 0.47357 -0.00507 0.91776 0.0
C1206 C 0.46142 0.99033 0.90311 0.0
H1207 H 0.45926 0.94174 0.86733 0.0
H1208 H 0.47052 0.96371 0.87243 0.0
H1209 H 0.46165 0.94972 0.89134 0.0
H1210 H 0.4268 0.96809 0.92772 0.0
H1211 H 0.44813 0.97642 0.95381 0.0
H1212 H 0.25833 0.16062 0.04004 0.0
H1213 H 0.26214 0.17681 0.07034 0.0
H1214 H 0.24508 0.12688 0.09894 0.0
H1215 H 0.24107 0.1107 0.06892 0.0
H1216 H 0.22619 0.15847 0.11154 0.0
H1217 H 0.30379 0.1709 0.10985 0.0
H1218 H 0.29149 0.17895 0.08954 0.0
H1219 H 0.2921 0.15441 0.09429 0.0
C1220 C 0.2555 0.15305 0.05277 0.0
C1221 C 0.2494 0.13434 0.05198 0.0
C1222 C 0.25781 0.16229 0.0701 0.0
C1223 C 0.25414 0.15297 0.08693 0.0
C1224 C 0.24808 0.13432 0.08616 0.0
H1225 H 0.24641 0.19634 0.2034 0.0
H1226 H 0.24888 0.17425 0.17683 0.0
C1227 C 0.2458 0.1251 0.06892 0.0
C1228 C 0.25571 0.16283 0.10534 0.0
H1229 H 0.28646 0.18686 0.1338 0.0
C1230 C 0.23941 0.16452 0.11652 0.0
C1231 C 0.27299 0.17062 0.11185 0.0
C1232 C 0.29115 0.16852 0.10086 0.0
C1233 C 0.23969 0.17447 0.13365 0.0
C1234 C 0.25688 0.18264 0.13997 0.0
C1235 C 0.27331 0.18052 0.129 0.0
C1236 C 0.25763 0.19506 0.15684 0.0
C1237 C 0.22139 0.17688 0.14436 0.0
C1238 C 0.26269 0.21384 0.15468 0.0
C1239 C 0.26149 0.22636 0.16977 0.0
C1240 C 0.25522 0.22043 0.18747 0.0
C1241 C 0.25124 0.20137 0.18996 0.0
C1242 C 0.25246 0.18877 0.17474 0.0
H1243 H 0.20885 0.17301 0.13573 0.0
H1244 H 0.22149 0.16779 0.1568 0.0
H1245 H 0.21977 0.19153 0.14934 0.0
H1246 H 0.26685 0.21901 0.14108 0.0
H1247 H 0.26488 0.24088 0.16736 0.0
H1248 H 0.17221 0.12684 0.98678 0.0
H1249 H 0.1394 0.11546 0.98583 0.0
H1250 H 0.15929 0.0588 0.9826 0.0
H1251 H 0.19212 0.07002 0.98342 0.0
H1252 H 0.12173 0.0907 0.95679 0.0
H1253 H 0.12135 0.0614 0.0284 0.0
H1254 H 0.13835 0.07877 0.02103 0.0
H1255 H 0.14121 0.0548 0.01399 0.0
C1256 C 0.16961 0.11195 0.98587 0.0
C1257 C 0.18478 0.09932 0.98523 0.0
C1258 C 0.15086 0.1055 0.9853 0.0
C1259 C 0.14694 0.08631 0.98433 0.0
C1260 C 0.16203 0.07367 0.98355 0.0
H1261 H 0.05767 0.01346 0.95553 0.0
H1262 H 0.08342 0.03633 0.95532 0.0
C1263 C 0.18078 0.08011 0.98396 0.0
C1264 C 0.12711 0.07938 0.98402 0.0
H1265 H 0.09573 0.05265 0.00846 0.0
C1266 C 0.11593 0.08258 0.96817 0.0
C1267 C 0.11948 0.06905 -0.00099 0.0
C1268 C 0.13061 0.06589 0.01667 0.0
C1269 C 0.09764 0.07485 0.96651 0.0
C1270 C 0.09043 0.06362 0.98105 0.0
C1271 C 0.10125 0.06126 -0.00269 0.0
C1272 C 0.07276 0.05244 0.97891 0.0
C1273 C 0.0863 0.07847 0.94908 0.0
C1274 C 0.0579 0.05413 -0.00803 0.0
C1275 C 0.043 0.0411 -0.008 0.0
C1276 C 0.04298 0.02602 0.97918 0.0
C1277 C 0.05727 0.02503 0.96547 0.0
C1278 C 0.07198 0.03813 0.9653 0.0
H1279 H 0.091 0.09152 0.94221 0.0
H1280 H 0.08836 0.06676 0.93894 0.0
H1281 H 0.07095 0.07948 0.95232 0.0
H1282 H 0.05833 0.06497 0.00271 0.0
H1283 H 0.03241 0.04196 0.00297 0.0
H1284 H 0.70402 0.42586 0.00884 0.0
H1285 H 0.67516 0.4446 0.00987 0.0
H1286 H 0.64161 0.39523 -0.00137 0.0
H1287 H 0.67036 0.37643 -0.00264 0.0
H1288 H 0.63225 0.42604 0.97629 0.0
H1289 H 0.63525 0.44509 0.05213 0.0
H1290 H 0.6561 0.45028 0.03861 0.0
H1291 H 0.64916 0.42643 0.04203 0.0
C1292 C 0.69049 0.41898 0.00667 0.0
C1293 C 0.68946 0.39965 0.00308 0.0
C1294 C 0.67402 0.4297 0.00732 0.0
C1295 C 0.65626 0.42126 0.0045 0.0
C1296 C 0.6552 0.402 0.00086 0.0
H1297 H 0.54268 0.44591 0.02959 0.0
H1298 H 0.57581 0.43701 0.02829 0.0
C1299 C 0.67163 0.39127 0.0002 0.0
C1300 C 0.63868 0.4324 0.00516 0.0
H1301 H 0.60977 0.45692 0.03484 0.0
C1302 C 0.62739 0.43297 0.98902 0.0
C1303 C 0.63242 0.44136 0.02182 0.0
C1304 C 0.64374 0.44071 0.03971 0.0
C1305 C 0.60972 0.44181 0.98923 0.0
C1306 C 0.60331 0.4505 0.00599 0.0
C1307 C 0.61485 0.4504 0.02198 0.0
C1308 C 0.58375 0.45761 0.00785 0.0
C1309 C 0.59762 0.44097 0.97182 0.0
C1310 C 0.57731 0.47258 -0.00284 0.0
C1311 C 0.55823 0.47777 -0.00214 0.0
C1312 C 0.54531 0.46801 0.00919 0.0
C1313 C 0.55212 0.45364 0.02053 0.0
C1314 C 0.57111 0.44854 0.01987 0.0
H1315 H 0.60337 0.43116 0.96106 0.0
H1316 H 0.58294 0.43658 0.97532 0.0
H1317 H 0.59697 0.45504 0.96562 0.0
H1318 H 0.58695 0.47996 0.98802 0.0
H1319 H 0.55351 0.48903 0.98915 0.0
H1320 H 0.88837 0.41599 0.23773 0.0
H1321 H 0.87491 0.38458 0.23945 0.0
H1322 H 0.81867 0.40754 0.24086 0.0
H1323 H 0.83195 0.43913 0.23928 0.0
H1324 H 0.84869 0.37232 0.27014 0.0
H1325 H 0.81946 0.3654 0.19806 0.0
H1326 H 0.83838 0.38152 0.20403 0.0
H1327 H 0.81438 0.38692 0.21032 0.0
C1328 C 0.87312 0.41441 0.23823 0.0
C1329 C 0.86121 0.43009 0.23837 0.0
C1330 C 0.8655 0.39644 0.23925 0.0
C1331 C 0.84586 0.39383 0.24015 0.0
C1332 C 0.83389 0.40936 0.23999 0.0
H1333 H 0.76546 0.31581 0.2739 0.0
H1334 H 0.79019 0.33968 0.27213 0.0
C1335 C 0.8415 0.42737 0.23914 0.0
C1336 C 0.83785 0.37491 0.24212 0.0
H1337 H 0.80938 0.34287 0.22017 0.0
C1338 C 0.8403 0.36572 0.25915 0.0
C1339 C 0.82719 0.36632 0.22764 0.0
C1340 C 0.82476 0.37542 0.20889 0.0
C1341 C 0.83142 0.34852 0.26245 0.0
C1342 C 0.81987 0.34044 0.24834 0.0
C1343 C 0.8183 0.34914 0.23094 0.0
C1344 C 0.80734 0.32436 0.25208 0.0
C1345 C 0.83399 0.33934 0.28113 0.0
C1346 C 0.80909 0.30767 0.24172 0.0
C1347 C 0.79503 0.29389 0.24285 0.0
C1348 C 0.77889 0.29689 0.25405 0.0
C1349 C 0.77776 0.31317 0.26517 0.0
C1350 C 0.7919 0.32677 0.26423 0.0
H1351 H 0.84695 0.3445 0.28837 0.0
H1352 H 0.82162 0.34258 0.29022 0.0
H1353 H 0.83482 0.32395 0.27941 0.0
H1354 H 0.82087 0.30569 0.23216 0.0
H1355 H 0.79612 0.28157 0.23396 0.0
H1356 H 0.80271 0.59976 0.46427 0.0
H1357 H 0.83508 0.58965 0.45745 0.0
H1358 H 0.82926 0.54604 0.49808 0.0
H1359 H 0.79683 0.55564 0.50452 0.0
H1360 H 0.86493 0.58944 0.47893 0.0
H1361 H 0.85214 0.517 0.45577 0.0
H1362 H 0.83319 0.53368 0.45791 0.0
H1363 H 0.84082 0.52072 0.47798 0.0
C1364 C 0.80826 0.58787 0.4716 0.0
C1365 C 0.79713 0.57846 0.4849 0.0
C1366 C 0.82677 0.58209 0.46765 0.0
C1367 C 0.83452 0.5668 0.47691 0.0
C1368 C 0.82343 0.55746 0.49024 0.0
H1369 H 0.93368 0.54257 0.52616 0.0
H1370 H 0.90845 0.55901 0.51058 0.0
C1371 C 0.8049 0.56309 0.49406 0.0
C1372 C 0.85464 0.56141 0.47395 0.0
H1373 H 0.8828 0.52305 0.47081 0.0
C1374 C 0.86885 0.57498 0.47668 0.0
C1375 C 0.85996 0.54271 0.47027 0.0
C1376 C 0.84567 0.52778 0.46509 0.0
C1377 C 0.88801 0.57 0.47782 0.0
C1378 C 0.89301 0.55093 0.4768 0.0
C1379 C 0.87904 0.53766 0.47202 0.0
C1380 C 0.91137 0.5441 0.48409 0.0
C1381 C 0.9026 0.5852 0.48087 0.0
C1382 C 0.92185 0.53036 0.47439 0.0
C1383 C 0.93638 0.52079 0.48347 0.0
C1384 C 0.94042 0.5247 0.50237 0.0
C1385 C 0.93091 0.53935 0.51153 0.0
C1386 C 0.91654 0.54891 0.50253 0.0
H1387 H 0.89867 0.59792 0.47311 0.0
H1388 H 0.90309 0.58906 0.49598 0.0
H1389 H 0.91694 0.58073 0.47628 0.0
H1390 H 0.91802 0.52625 0.46022 0.0
H1391 H 0.94319 0.50934 0.47626 0.0
H1392 H 0.11465 0.06924 0.24033 0.0
H1393 H 0.13182 0.09861 0.23739 0.0
H1394 H 0.18483 0.06919 0.23781 0.0
H1395 H 0.16766 0.03942 0.24069 0.0
H1396 H 0.15875 0.11342 0.26272 0.0
H1397 H 0.18932 0.10352 0.19145 0.0
H1398 H 0.16978 0.0896 0.19997 0.0
H1399 H 0.19346 0.08502 0.20765 0.0
C1400 C 0.12997 0.06888 0.23975 0.0
C1401 C 0.13974 0.05185 0.24074 0.0
C1402 C 0.13976 0.08576 0.23803 0.0
C1403 C 0.15959 0.08612 0.23709 0.0
C1404 C 0.1695 0.06922 0.23816 0.0
H1405 H 0.24442 0.17152 0.24225 0.0
H1406 H 0.22603 0.14388 0.23319 0.0
C1407 C 0.15967 0.05222 0.23998 0.0
C1408 C 0.1697 0.10437 0.23598 0.0
H1409 H 0.19893 0.13065 0.20845 0.0
C1410 C 0.16744 0.11724 0.2508 0.0
C1411 C 0.18104 0.10932 0.22042 0.0
C1412 C 0.18349 0.09624 0.20386 0.0
C1413 C 0.17656 0.13471 0.25077 0.0
C1414 C 0.18787 0.13978 0.23517 0.0
C1415 C 0.19006 0.12692 0.22026 0.0
C1416 C 0.19889 0.1576 0.23513 0.0
C1417 C 0.1746 0.14724 0.26787 0.0
C1418 C 0.18992 0.17494 0.23769 0.0
C1419 C 0.20051 0.19084 0.24282 0.0
C1420 C 0.22019 0.18964 0.24511 0.0
C1421 C 0.22929 0.17289 0.24024 0.0
C1422 C 0.21875 0.15701 0.23523 0.0
H1423 H 0.16913 0.13956 0.28017 0.0
H1424 H 0.18842 0.1537 0.2717 0.0
H1425 H 0.16449 0.15857 0.26482 0.0
H1426 H 0.17463 0.17585 0.23727 0.0
H1427 H 0.19313 0.20346 0.24693 0.0
H1428 H 0.31124 0.86569 0.49053 0.0
H1429 H 0.346 0.86814 0.49094 0.0
H1430 H 0.34196 0.92805 0.49481 0.0
H1431 H 0.30749 0.92579 0.49414 0.0
H1432 H 0.36773 0.89084 0.46288 0.0
H1433 H 0.38078 0.91218 0.53662 0.0
H1434 H 0.35992 0.89922 0.52933 0.0
H1435 H 0.36117 0.92405 0.52627 0.0
C1436 C 0.3178 0.87935 0.49176 0.0
C1437 C 0.30666 0.89557 0.49226 0.0
C1438 C 0.33761 0.88071 0.49195 0.0
C1439 C 0.34645 0.89825 0.4931 0.0
C1440 C 0.33535 0.91437 0.49417 0.0
H1441 H 0.42526 0.96842 0.45808 0.0
H1442 H 0.40334 0.94221 0.45986 0.0
C1443 C 0.31566 0.91306 0.49368 0.0
C1444 C 0.36723 0.90032 0.49167 0.0
H1445 H 0.40357 0.92295 0.51376 0.0
C1446 C 0.37583 0.8973 0.47416 0.0
C1447 C 0.37785 0.9084 0.50648 0.0
C1448 C 0.36953 0.911 0.52581 0.0
C1449 C 0.39414 0.9041 0.47051 0.0
C1450 C 0.40386 0.91427 0.48468 0.0
C1451 C 0.39608 0.91531 0.5028 0.0
C1452 C 0.41969 0.92714 0.48026 0.0
C1453 C 0.40242 0.90135 0.45118 0.0
C1454 C 0.43647 0.92724 0.49082 0.0
C1455 C 0.44911 0.94233 0.48978 0.0
C1456 C 0.4449 0.95764 0.47846 0.0
C1457 C 0.42883 0.95682 0.46694 0.0
C1458 C 0.41637 0.94172 0.46782 0.0
H1459 H 0.39757 0.88789 0.44486 0.0
H1460 H 0.39747 0.91267 0.442 0.0
H1461 H 0.41815 0.90162 0.45147 0.0
H1462 H 0.4392 0.91623 0.50066 0.0
H1463 H 0.4613 0.9427 0.49894 0.0
H1464 H 0.84696 0.55643 0.26898 0.0
H1465 H 0.82922 0.58546 0.26791 0.0
H1466 H 0.79341 0.56193 0.2246 0.0
H1467 H 0.81082 0.53254 0.22602 0.0
H1468 H 0.82864 0.60686 0.23791 0.0
H1469 H 0.7548 0.58856 0.25724 0.0
H1470 H 0.7745 0.5733 0.26158 0.0
H1471 H 0.76422 0.57428 0.23859 0.0
C1472 C 0.83505 0.55728 0.2595 0.0
C1473 C 0.83033 0.54224 0.24752 0.0
C1474 C 0.82491 0.57389 0.25891 0.0
C1475 C 0.80991 0.57589 0.24625 0.0
C1476 C 0.80466 0.56063 0.23476 0.0
H1477 H 0.78091 0.68438 0.2033 0.0
H1478 H 0.78869 0.65137 0.20638 0.0
C1479 C 0.8147 0.54386 0.23551 0.0
C1480 C 0.80138 0.59455 0.24369 0.0
H1481 H 0.75973 0.6186 0.24393 0.0
C1482 C 0.81357 0.6094 0.23932 0.0
C1483 C 0.78173 0.59791 0.24565 0.0
C1484 C 0.76806 0.58272 0.2512 0.0
C1485 C 0.80674 0.62747 0.23678 0.0
C1486 C 0.78704 0.63074 0.23808 0.0
C1487 C 0.77479 0.61598 0.24267 0.0
C1488 C 0.77919 0.6496 0.23516 0.0
C1489 C 0.8208 0.64298 0.23313 0.0
C1490 C 0.77024 0.65924 0.24996 0.0
C1491 C 0.76552 0.67805 0.24811 0.0
C1492 C 0.76973 0.68748 0.23149 0.0
C1493 C 0.77764 0.67748 0.21634 0.0
C1494 C 0.78214 0.65866 0.21809 0.0
H1495 H 0.83534 0.63917 0.23749 0.0
H1496 H 0.82117 0.64583 0.21789 0.0
H1497 H 0.81671 0.65601 0.24066 0.0
H1498 H 0.76785 0.65251 0.26325 0.0
H1499 H 0.75977 0.68551 0.26006 0.0
H1500 H 0.67892 0.44801 0.75365 0.0
H1501 H 0.69513 0.41816 0.75734 0.0
H1502 H 0.64222 0.38883 0.74902 0.0
H1503 H 0.62589 0.41854 0.74601 0.0
H1504 H 0.66204 0.37319 0.77658 0.0
H1505 H 0.70906 0.38344 0.71511 0.0
H1506 H 0.71147 0.40143 0.73269 0.0
H1507 H 0.68945 0.39865 0.72027 0.0
C1508 C 0.67076 0.43519 0.7526 0.0
C1509 C 0.65114 0.43566 0.74936 0.0
C1510 C 0.68005 0.41811 0.75463 0.0
C1511 C 0.66998 0.40116 0.75311 0.0
C1512 C 0.65034 0.40167 0.75022 0.0
H1513 H 0.69471 0.28587 0.73422 0.0
H1514 H 0.67905 0.3144 0.74529 0.0
C1515 C 0.64102 0.4187 0.74842 0.0
C1516 C 0.67983 0.38285 0.75408 0.0
H1517 H 0.71431 0.35665 0.73304 0.0
C1518 C 0.67351 0.3696 0.76709 0.0
C1519 C 0.69474 0.37805 0.74164 0.0
C1520 C 0.70148 0.39105 0.72652 0.0
C1521 C 0.6817 0.35176 0.76797 0.0
C1522 C 0.69655 0.34705 0.75552 0.0
C1523 C 0.70305 0.36037 0.74274 0.0
C1524 C 0.70492 0.32808 0.7544 0.0
C1525 C 0.67443 0.33809 0.78216 0.0
C1526 C 0.72452 0.32589 0.75671 0.0
C1527 C 0.7334 0.30953 0.75052 0.0
C1528 C 0.72286 0.2951 0.74198 0.0
C1529 C 0.70306 0.29655 0.74132 0.0
C1530 C 0.69413 0.31293 0.74752 0.0
H1531 H 0.6663 0.34515 0.79355 0.0
H1532 H 0.6649 0.32785 0.77508 0.0
H1533 H 0.68631 0.33028 0.78845 0.0
H1534 H 0.73314 0.33741 0.76185 0.0
H1535 H 0.74873 0.30896 0.75067 0.0
H1536 H 0.9828 0.78942 0.91749 0.0
H1537 H 0.97491 0.818 0.93527 0.0
H1538 H -0.00131 0.85124 0.89111 0.0
H1539 H 0.00644 0.82312 0.87335 0.0
H1540 H -0.00107 0.84625 0.94824 0.0
H1541 H 0.94725 0.87545 0.89892 0.0
H1542 H 0.95455 0.85136 0.89777 0.0
H1543 H 0.96896 0.86928 0.88738 0.0
C1544 C 0.9863 0.80283 0.91157 0.0
C1545 C -0.00481 0.80389 0.89392 0.0
C1546 C 0.98172 0.81915 0.92172 0.0
C1547 C 0.98576 0.83681 0.91432 0.0
C1548 C -0.0051 0.83784 0.89689 0.0
H1549 H 0.00842 0.94737 0.93882 0.0
H1550 H -0.00331 0.91814 0.92507 0.0
C1551 C -0.0005 0.82165 0.88681 0.0
C1552 C 0.98159 0.8543 0.92504 0.0
H1553 H 0.9624 0.8976 0.92012 0.0
C1554 C -0.00946 0.85733 0.94236 0.0
C1555 C 0.97057 0.86874 0.9174 0.0
C1556 C 0.95962 0.86598 0.89943 0.0
C1557 C -0.00998 0.87486 0.95149 0.0
C1558 C 0.97998 0.88968 0.94322 0.0
C1559 C 0.97007 0.88628 0.92648 0.0
C1560 C 0.98219 0.90926 0.95018 0.0
C1561 C 0.00137 0.87773 0.96922 0.0
C1562 C 0.97673 0.91468 0.96843 0.0
C1563 C 0.98329 0.93161 0.97625 0.0
C1564 C -0.00475 0.94328 0.96584 0.0
C1565 C -0.00107 0.93875 0.947 0.0
C1566 C -0.00764 0.92195 0.93919 0.0
H1567 H 0.0105 0.8656 0.97227 0.0
H1568 H 0.01049 0.89035 0.96817 0.0
H1569 H -0.00843 0.87983 0.98124 0.0
H1570 H 0.96862 0.90523 0.97708 0.0
H1571 H 0.98059 0.93463 -0.00906 0.0
H1572 H 0.96436 0.238 0.69308 0.0
H1573 H 0.93316 0.23796 0.70797 0.0
H1574 H 0.90778 0.25472 0.65605 0.0
H1575 H 0.93894 0.25475 0.64094 0.0
H1576 H 0.90687 0.26776 0.71163 0.0
H1577 H 0.87741 0.20752 0.67127 0.0
H1578 H 0.90249 0.21255 0.6724 0.0
H1579 H 0.88753 0.2255 0.65704 0.0
C1580 C 0.95217 0.2417 0.68479 0.0
C1581 C 0.95417 0.2463 0.66576 0.0
C1582 C 0.93435 0.24166 0.69335 0.0
C1583 C 0.91817 0.24605 0.68303 0.0
C1584 C 0.92009 0.25097 0.66416 0.0
H1585 H 0.80748 0.28172 0.70963 0.0
H1586 H 0.84121 0.2783 0.70328 0.0
C1587 C 0.93793 0.2511 0.65558 0.0
C1588 C 0.89928 0.24578 0.69209 0.0
H1589 H 0.85542 0.22566 0.68911 0.0
C1590 C 0.89566 0.25843 0.70685 0.0
C1591 C 0.88482 0.23335 0.68607 0.0
C1592 C 0.88824 0.21882 0.67094 0.0
C1593 C 0.87764 0.25961 0.71512 0.0
C1594 C 0.8629 0.24792 0.70835 0.0
C1595 C 0.86676 0.23465 0.69422 0.0
C1596 C 0.84299 0.25047 0.71438 0.0
C1597 C 0.87444 0.27354 0.73085 0.0
C1598 C 0.8328 0.23594 0.72282 0.0
C1599 C 0.81341 0.23788 0.72657 0.0
C1600 C 0.80392 0.25424 0.72156 0.0
C1601 C 0.81436 0.26891 0.71361 0.0
C1602 C 0.83368 0.26704 0.71007 0.0
H1603 H 0.88792 0.27738 0.73798 0.0
H1604 H 0.86833 0.28643 0.72503 0.0
H1605 H 0.86437 0.26796 0.74138 0.0
H1606 H 0.83974 0.22297 0.7261 0.0
H1607 H 0.80572 0.22629 0.73256 0.0
H1608 H 0.50821 0.19896 0.42622 0.0
H1609 H 0.5101 0.16826 0.44075 0.0
H1610 H 0.48596 0.14276 0.3911 0.0
H1611 H 0.48441 0.17324 0.37639 0.0
H1612 H 0.48315 0.14298 0.44943 0.0
H1613 H 0.53218 0.11091 0.39795 0.0
H1614 H 0.52778 0.13567 0.39887 0.0
H1615 H 0.51154 0.12011 0.38692 0.0
C1616 C 0.50326 0.18682 0.41842 0.0
C1617 C 0.49624 0.18858 0.40009 0.0
C1618 C 0.50442 0.16925 0.42672 0.0
C1619 C 0.49865 0.15307 0.41686 0.0
C1620 C 0.49108 0.1549 0.3988 0.0
H1621 H 0.46801 0.04132 0.43678 0.0
H1622 H 0.4792 0.07073 0.42365 0.0
C1623 C 0.49 0.17241 0.39047 0.0
C1624 C 0.49987 0.13436 0.42562 0.0
H1625 H 0.51522 0.08972 0.41784 0.0
C1626 C 0.49045 0.13142 0.44269 0.0
C1627 C 0.5095 0.11924 0.41692 0.0
C1628 C 0.52099 0.12167 0.39926 0.0
C1629 C 0.4895 0.11364 0.45072 0.0
C1630 C 0.49842 0.09836 0.44157 0.0
C1631 C 0.50842 0.10142 0.42486 0.0
C1632 C 0.49556 0.07891 0.44804 0.0
C1633 C 0.47811 0.11113 0.46844 0.0
C1634 C 0.50197 0.07317 0.46569 0.0
C1635 C 0.49575 0.05616 0.47311 0.0
C1636 C 0.48315 0.04468 0.46293 0.0
C1637 C 0.47804 0.04976 0.44472 0.0
C1638 C 0.48431 0.06663 0.43728 0.0
H1639 H 0.46971 0.12371 0.47215 0.0
H1640 H 0.46829 0.09903 0.46695 0.0
H1641 H 0.48784 0.10831 0.48023 0.0
H1642 H 0.51081 0.08234 0.47417 0.0
H1643 H 0.49944 0.0528 0.48739 0.0
H1644 H 0.56929 0.73066 0.10408 0.0
H1645 H 0.60081 0.72402 0.11654 0.0
H1646 H 0.58935 0.75958 0.16449 0.0
H1647 H 0.55774 0.76587 0.15243 0.0
H1648 H 0.63202 0.74548 0.12715 0.0
H1649 H 0.60075 0.70948 0.18794 0.0
H1650 H 0.58694 0.71579 0.16779 0.0
H1651 H 0.59197 0.73278 0.18599 0.0
C1652 C 0.57358 0.7372 0.11719 0.0
C1653 C 0.56097 0.74856 0.12745 0.0
C1654 C 0.59157 0.73339 0.12427 0.0
C1655 C 0.59718 0.74095 0.14163 0.0
C1656 C 0.58506 0.75322 0.15129 0.0
H1657 H 0.69944 0.75968 0.19864 0.0
H1658 H 0.67527 0.75781 0.17435 0.0
C1659 C 0.56705 0.75687 0.14435 0.0
C1660 C 0.61529 0.73546 0.15024 0.0
H1661 H 0.63322 0.7189 0.19089 0.0
C1662 C 0.63237 0.73941 0.14097 0.0
C1663 C 0.61568 0.72694 0.16796 0.0
C1664 C 0.59784 0.7208 0.1779 0.0
C1665 C 0.6499 0.73619 0.14958 0.0
C1666 C 0.65022 0.72933 0.16809 0.0
C1667 C 0.6331 0.7243 0.17677 0.0
C1668 C 0.66767 0.729 0.17961 0.0
C1669 C 0.6678 0.74034 0.1388 0.0
C1670 C 0.67164 0.71343 0.19068 0.0
C1671 C 0.68513 0.71472 0.20493 0.0
C1672 C 0.69516 0.7314 0.20794 0.0
C1673 C 0.69219 0.74652 0.19612 0.0
C1674 C 0.67843 0.7454 0.18216 0.0
H1675 H 0.66569 0.73779 0.12355 0.0
H1676 H 0.67158 0.75529 0.14074 0.0
H1677 H 0.67982 0.73174 0.14358 0.0
H1678 H 0.66348 0.70067 0.18905 0.0
H1679 H 0.68712 0.70301 0.21412 0.0
H1680 H 0.9874 0.19657 0.58115 0.0
H1681 H 0.98794 0.1662 0.56501 0.0
H1682 H 0.0216 0.14379 0.60955 0.0
H1683 H 0.02123 0.17399 0.62579 0.0
H1684 H 0.03613 0.13724 0.57275 0.0
H1685 H 0.96039 0.11697 0.57924 0.0
H1686 H 0.96441 0.14001 0.57042 0.0
H1687 H 0.97127 0.13473 0.59396 0.0
C1688 C -0.00523 0.18514 0.58761 0.0
C1689 C 0.00426 0.18773 0.60476 0.0
C1690 C -0.00502 0.16779 0.57841 0.0
C1691 C 0.00465 0.15276 0.58622 0.0
C1692 C 0.01399 0.15522 0.60338 0.0
H1693 H -0.00155 0.03987 0.53773 0.0
H1694 H 0.0007 0.06541 0.56089 0.0
C1695 C 0.01373 0.17251 0.61262 0.0
C1696 C 0.00589 0.13474 0.57598 0.0
H1697 H 0.97908 0.09917 0.5577 0.0
C1698 C 0.0237 0.1288 0.56961 0.0
C1699 C -0.01032 0.12368 0.57217 0.0
C1700 C 0.97035 0.12904 0.57943 0.0
C1701 C 0.02562 0.11243 0.55879 0.0
C1702 C 0.00928 0.10186 0.55419 0.0
C1703 C -0.00843 0.10738 0.56123 0.0
C1704 C 0.00999 0.08592 0.54086 0.0
C1705 C 0.04505 0.10667 0.55216 0.0
C1706 C 0.01465 0.08901 0.52206 0.0
C1707 C 0.01331 0.07452 0.50887 0.0
C1708 C 0.00727 0.05665 0.51424 0.0
C1709 C 0.0033 0.05342 0.53324 0.0
C1710 C 0.00449 0.068 0.54644 0.0
H1711 H 0.05638 0.11316 0.5609 0.0
H1712 H 0.04659 0.09127 0.55241 0.0
H1713 H 0.04713 0.11125 0.53751 0.0
H1714 H 0.01865 0.10282 0.51745 0.0
H1715 H 0.01649 0.07747 0.49435 0.0
H1716 H 0.5475 0.2225 0.32129 0.0
H1717 H 0.57863 0.21788 0.30707 0.0
H1718 H 0.60498 0.24351 0.3556 0.0
H1719 H 0.57383 0.24751 0.37021 0.0
H1720 H 0.60209 0.24383 0.29681 0.0
H1721 H 0.63958 0.20018 0.34776 0.0
H1722 H 0.6143 0.2037 0.34874 0.0
H1723 H 0.63026 0.22087 0.35867 0.0
C1724 C 0.55994 0.22694 0.32904 0.0
C1725 C 0.55821 0.23543 0.34685 0.0
C1726 C 0.57775 0.22424 0.32092 0.0
C1727 C 0.59425 0.23006 0.33034 0.0
C1728 C 0.59256 0.23837 0.34824 0.0
H1729 H 0.70186 0.26776 0.29907 0.0
H1730 H 0.67526 0.25417 0.31624 0.0
C1731 C 0.57472 0.24085 0.35651 0.0
C1732 C 0.6129 0.22919 0.3206 0.0
H1733 H 0.65929 0.21684 0.32578 0.0
C1734 C 0.61449 0.23756 0.30299 0.0
C1735 C 0.62914 0.22102 0.32863 0.0
C1736 C 0.6282 0.21077 0.3469 0.0
C1737 C 0.63192 0.2388 0.29364 0.0
C1738 C 0.64829 0.23132 0.30201 0.0
C1739 C 0.64669 0.22244 0.31934 0.0
C1740 C 0.66731 0.23491 0.29396 0.0
C1741 C 0.63288 0.249 0.27529 0.0
C1742 C 0.6724 0.2277 0.27623 0.0
C1743 C 0.68775 0.23539 0.26645 0.0
C1744 C 0.69813 0.25024 0.2744 0.0
C1745 C 0.69417 0.25611 0.29282 0.0
C1746 C 0.67896 0.24839 0.30261 0.0
H1747 H 0.61943 0.25622 0.27206 0.0
H1748 H 0.64452 0.2595 0.27558 0.0
H1749 H 0.63586 0.2389 0.26375 0.0
H1750 H 0.6636 0.21724 0.26935 0.0
H1751 H 0.69028 0.23101 0.25207 0.0
H1752 H 0.48778 0.78127 0.04932 0.0
H1753 H 0.485 0.80901 0.0297 0.0
H1754 H 0.49626 0.84427 0.07797 0.0
H1755 H 0.49852 0.81694 0.09756 0.0
H1756 H 0.46621 0.85595 0.0588 0.0
H1757 H 0.52638 0.84345 0.00996 0.0
H1758 H 0.50908 0.82499 0.01095 0.0
H1759 H 0.52321 0.83047 0.03123 0.0
C1760 C 0.48965 0.79496 0.05569 0.0
C1761 C 0.4933 0.7969 0.07501 0.0
C1762 C 0.48824 0.81078 0.04445 0.0
C1763 C 0.49068 0.82873 0.05231 0.0
C1764 C 0.49435 0.83059 0.07156 0.0
H1765 H 0.5116 0.93908 0.01291 0.0
H1766 H 0.51451 0.90595 0.02044 0.0
C1767 C 0.4956 0.81491 0.08277 0.0
C1768 C 0.48864 0.84582 0.04099 0.0
H1769 H 0.50811 0.87045 0.00498 0.0
C1770 C 0.47528 0.85905 0.04695 0.0
C1771 C 0.50063 0.84993 0.02565 0.0
C1772 C 0.51576 0.83656 0.01911 0.0
C1773 C 0.47388 0.87644 0.03838 0.0
C1774 C 0.48572 0.88053 0.02289 0.0
C1775 C 0.4989 0.86719 0.01668 0.0
C1776 C 0.4853 0.89911 0.01398 0.0
C1777 C 0.46032 0.89056 0.04665 0.0
C1778 C 0.4683 0.90597 0.00672 0.0
C1779 C 0.46658 0.92489 0.00272 0.0
C1780 C 0.482 0.9371 0.0053 0.0
C1781 C 0.4996 0.92986 0.01055 0.0
C1782 C 0.50122 0.91096 0.01495 0.0
H1783 H 0.45597 0.88697 0.06114 0.0
H1784 H 0.46674 0.90474 0.04698 0.0
H1785 H 0.44734 0.89094 0.03793 0.0
H1786 H 0.45598 0.89698 0.00542 0.0
H1787 H 0.45287 0.93019 -0.00133 0.0
H1788 H 0.93846 0.73249 0.84782 0.0
H1789 H 0.90744 0.72981 0.83249 0.0
H1790 H 0.92774 0.76348 0.78703 0.0
H1791 H 0.95861 0.76616 0.80201 0.0
H1792 H 0.88261 0.7594 0.82171 0.0
H1793 H 0.90598 0.71644 0.76056 0.0
H1794 H 0.91994 0.71902 0.78162 0.0
H1795 H 0.91959 0.73735 0.76475 0.0
C1796 C 0.93635 0.73925 0.83452 0.0
C1797 C 0.9511 0.74946 0.82614 0.0
C1798 C 0.91861 0.73774 0.82581 0.0
C1799 C 0.91539 0.74625 0.80851 0.0
C1800 C 0.93002 0.75654 0.80021 0.0
H1801 H 0.80276 0.76323 0.75922 0.0
H1802 H 0.83581 0.76862 0.76878 0.0
C1803 C 0.94766 0.7581 0.80888 0.0
C1804 C 0.89666 0.74469 0.79921 0.0
H1805 H 0.87455 0.7277 0.75991 0.0
C1806 C 0.88082 0.75251 0.80819 0.0
C1807 C 0.89441 0.73566 0.78157 0.0
C1808 C 0.91083 0.72649 0.77158 0.0
C1809 C 0.86275 0.75149 0.80001 0.0
C1810 C 0.86053 0.74259 0.78231 0.0
C1811 C 0.87637 0.73478 0.77333 0.0
C1812 C 0.84154 0.73951 0.7739 0.0
C1813 C 0.84607 0.75945 0.81062 0.0
C1814 C 0.83418 0.72134 0.77275 0.0
C1815 C 0.81545 0.71827 0.76729 0.0
C1816 C 0.80373 0.73329 0.76268 0.0
C1817 C 0.8115 0.75139 0.76256 0.0
C1818 C 0.83029 0.75449 0.76821 0.0
H1819 H 0.84969 0.7631 0.82537 0.0
H1820 H 0.84124 0.77229 0.80364 0.0
H1821 H 0.83408 0.74935 0.8106 0.0
H1822 H 0.84265 0.70959 0.77697 0.0
H1823 H 0.8099 0.70415 0.76743 0.0
H1824 H 0.88937 0.00837 0.79817 0.0
H1825 H 0.90102 0.01279 0.83027 0.0
H1826 H 0.94902 0.97796 0.81747 0.0
H1827 H 0.93772 0.97368 0.78543 0.0
H1828 H 0.90711 0.98554 0.85667 0.0
H1829 H 0.97413 0.0234 0.84188 0.0
H1830 H 0.95557 0.02061 0.82469 0.0
H1831 H 0.97162 0.0018 0.82904 0.0
C1832 C 0.90249 0.00179 0.80213 0.0
C1833 C 0.91262 -0.00928 0.78916 0.0
C1834 C 0.90913 0.00432 0.82048 0.0
C1835 C 0.92606 -0.00405 0.82619 0.0
C1836 C 0.93617 0.98492 0.81328 0.0
H1837 H 0.98296 0.98595 0.93419 0.0
H1838 H 0.97413 0.98357 0.90099 0.0
C1839 C 0.92959 0.98239 0.79497 0.0
C1840 C 0.93266 -0.00205 0.84587 0.0
H1841 H 0.96993 0.01255 0.87299 0.0
C1842 C 0.92079 -0.00844 0.86024 0.0
C1843 C 0.95059 0.00567 0.8505 0.0
C1844 C 0.96366 0.01342 0.83574 0.0
C1845 C 0.92643 -0.00754 0.87908 0.0
C1846 C 0.94432 0.00024 0.88372 0.0
C1847 C 0.95626 0.00654 0.86937 0.0
C1848 C 0.95049 0.00249 0.90348 0.0
C1849 C 0.91332 0.98482 0.89388 0.0
C1850 C 0.94045 0.01429 0.91571 0.0
C1851 C 0.94544 0.01572 0.93459 0.0
C1852 C 0.96067 0.00542 0.9417 0.0
C1853 C 0.97116 -0.00591 0.92923 0.0
C1854 C 0.96613 -0.00732 0.91026 0.0
H1855 H 0.90249 0.97523 0.88776 0.0
H1856 H 0.92138 0.97725 0.90469 0.0
H1857 H 0.90583 -0.00344 0.90092 0.0
H1858 H 0.92857 0.02226 0.91068 0.0
H1859 H 0.93711 0.02473 0.94367 0.0
H1860 H 0.75398 0.15333 0.54378 0.0
H1861 H 0.75312 0.169 0.57449 0.0
H1862 H 0.72197 0.1226 0.59722 0.0
H1863 H 0.72259 0.10688 0.56667 0.0
H1864 H 0.70576 0.15721 0.60529 0.0
H1865 H 0.7823 0.15683 0.62264 0.0
H1866 H 0.77715 0.16612 0.59999 0.0
H1867 H 0.77215 0.14199 0.60456 0.0
C1868 C 0.74711 0.14637 0.55534 0.0
C1869 C 0.73837 0.12884 0.55273 0.0
C1870 C 0.74671 0.1553 0.5729 0.0
C1871 C 0.73766 0.14684 0.58815 0.0
C1872 C 0.72909 0.12931 0.58564 0.0
H1873 H 0.74592 0.19495 0.70146 0.0
H1874 H 0.74415 0.17179 0.67587 0.0
C1875 C 0.72949 0.12036 0.56814 0.0
C1876 C 0.73624 0.15669 0.60646 0.0
H1877 H 0.76267 0.17671 0.64139 0.0
C1878 C 0.71819 0.16132 0.6133 0.0
C1879 C 0.75245 0.16174 0.617 0.0
C1880 C 0.77211 0.15627 0.6108 0.0
C1881 C 0.71596 0.17158 0.63004 0.0
C1882 C 0.73221 0.17751 0.64005 0.0
C1883 C 0.75023 0.1722 0.63363 0.0
C1884 C 0.731 0.19048 0.65633 0.0
C1885 C 0.69623 0.17614 0.63678 0.0
C1886 C 0.72393 0.2085 0.65388 0.0
C1887 C 0.72491 0.22166 0.66844 0.0
C1888 C 0.73302 0.21708 0.68573 0.0
C1889 C 0.73937 0.19878 0.68841 0.0
C1890 C 0.73849 0.18561 0.67377 0.0
H1891 H 0.68562 0.16611 0.63101 0.0
H1892 H 0.69539 0.17606 0.65233 0.0
H1893 H 0.6924 0.19027 0.632 0.0
H1894 H 0.71841 0.21264 0.64044 0.0
H1895 H 0.7199 0.23565 0.66591 0.0
H1896 H 0.59522 0.98204 0.29732 0.0
H1897 H 0.58204 0.97976 0.32889 0.0
H1898 H 0.53145 0.00765 0.31101 0.0
H1899 H 0.54436 0.00982 0.27929 0.0
H1900 H 0.57129 0.01009 0.35185 0.0
H1901 H 0.51078 0.96166 0.33839 0.0
H1902 H 0.53007 0.96442 0.32198 0.0
H1903 H 0.51195 0.98181 0.32375 0.0
C1904 C 0.58122 0.98756 0.30002 0.0
C1905 C 0.57084 -0.0039 0.28576 0.0
C1906 C 0.57372 0.98624 0.31807 0.0
C1907 C 0.55571 -0.00665 0.32219 0.0
C1908 C 0.54523 0.00177 0.30801 0.0
H1909 H 0.49789 0.0013 0.43091 0.0
H1910 H 0.50529 0.00379 0.39745 0.0
C1911 C 0.5527 0.00308 0.28992 0.0
C1912 C 0.54841 -0.00723 0.34161 0.0
H1913 H 0.51377 0.97405 0.36918 0.0
C1914 C 0.5587 0.00223 0.35564 0.0
C1915 C 0.53188 0.98266 0.34642 0.0
C1916 C 0.52056 0.97192 0.33191 0.0
C1917 C 0.55304 0.00166 0.37444 0.0
C1918 C 0.53684 -0.00888 0.37934 0.0
C1919 C 0.52621 0.98208 0.36529 0.0
C1920 C 0.53151 0.98851 0.39914 0.0
C1921 C 0.56448 0.01229 0.38896 0.0
C1922 C 0.54357 0.97867 0.41092 0.0
C1923 C 0.53944 0.97719 0.42994 0.0
C1924 C 0.52308 0.98548 0.43755 0.0
C1925 C 0.5106 -0.00525 0.42552 0.0
C1926 C 0.51479 -0.00379 0.40642 0.0
H1927 H 0.57344 0.02328 0.38253 0.0
H1928 H 0.55509 0.0189 0.39962 0.0
H1929 H 0.57395 0.00248 0.39625 0.0
H1930 H 0.5564 0.97239 0.40543 0.0
H1931 H 0.54928 0.9698 0.43871 0.0
H1932 H 0.71752 0.81094 0.04228 0.0
H1933 H 0.71487 0.79503 0.07241 0.0
H1934 H 0.74372 0.84112 0.09973 0.0
H1935 H 0.74607 0.85717 0.06994 0.0
H1936 H 0.74212 0.78335 0.09584 0.0
H1937 H 0.69825 0.83526 0.13345 0.0
H1938 H 0.70143 0.83548 0.10833 0.0
H1939 H 0.71893 0.84597 0.1236 0.0
C1940 C 0.72328 0.81766 0.05473 0.0
C1941 C 0.73193 0.83535 0.05373 0.0
C1942 C 0.72168 0.80861 0.07194 0.0
C1943 C 0.72862 0.81711 0.08844 0.0
C1944 C 0.73767 0.83455 0.08733 0.0
H1945 H 0.77012 0.79442 0.19387 0.0
H1946 H 0.75534 0.80786 0.16626 0.0
C1947 C 0.7392 0.84362 0.07022 0.0
C1948 C 0.72752 0.80746 0.1067 0.0
H1949 H 0.71661 0.8147 0.15293 0.0
C1950 C 0.73613 0.78998 0.10825 0.0
C1951 C 0.71955 0.81604 0.12288 0.0
C1952 C 0.70884 0.83413 0.12194 0.0
C1953 C 0.73828 0.78153 0.12574 0.0
C1954 C 0.73145 0.79074 0.14208 0.0
C1955 C 0.72186 0.80769 0.1404 0.0
C1956 C 0.73668 0.78431 0.16101 0.0
C1957 C 0.74895 0.7634 0.12677 0.0
C1958 C 0.73034 0.76706 0.16779 0.0
C1959 C 0.73868 0.75946 0.18373 0.0
C1960 C 0.75332 0.7691 0.19306 0.0
C1961 C 0.7586 0.78693 0.18707 0.0
C1962 C 0.75022 0.79456 0.17127 0.0
H1963 H 0.75529 0.75925 0.11308 0.0
H1964 H 0.76042 0.76453 0.13735 0.0
H1965 H 0.73912 0.75214 0.13118 0.0
H1966 H 0.71983 0.75898 0.1601 0.0
H1967 H 0.73483 0.74544 0.18777 0.0
H1968 H 0.87114 0.98512 0.66423 0.0
H1969 H 0.88578 0.98801 0.63317 0.0
H1970 H 0.93442 0.01499 0.65833 0.0
H1971 H 0.92022 0.01162 0.68934 0.0
H1972 H 0.89877 0.0177 0.61216 0.0
H1973 H 0.95807 0.97134 0.63084 0.0
H1974 H 0.93728 0.97383 0.64535 0.0
H1975 H 0.956 -0.00902 0.64655 0.0
C1976 C 0.88496 -0.00833 0.66311 0.0
C1977 C 0.89468 -0.00214 0.67925 0.0
C1978 C 0.89326 -0.00662 0.64536 0.0
C1979 C 0.91135 0.0014 0.64346 0.0
C1980 C 0.92066 0.00834 0.65949 0.0
H1981 H -0.00585 0.01241 0.55631 0.0
H1982 H 0.97251 0.02095 0.5818 0.0
C1983 C 0.91251 0.00642 0.67721 0.0
C1984 C 0.92094 0.00178 0.62492 0.0
H1985 H 0.96115 0.98766 0.60235 0.0
C1986 C 0.91238 0.0111 0.60997 0.0
C1987 C 0.9386 -0.00704 0.62201 0.0
C1988 C 0.94794 0.98155 0.63697 0.0
C1989 C 0.9213 0.01218 0.59233 0.0
C1990 C 0.93917 0.00383 0.58971 0.0
C1991 C 0.94758 -0.00563 0.60456 0.0
C1992 C 0.94936 0.00377 0.57154 0.0
C1993 C 0.91179 0.02241 0.57668 0.0
C1994 C 0.94316 -0.00798 0.55684 0.0
C1995 C 0.95551 0.9873 0.54216 0.0
C1996 C 0.97405 -0.00554 0.54192 0.0
C1997 C 0.97964 0.00741 0.55576 0.0
C1998 C 0.96736 0.01211 0.57044 0.0
H1999 H 0.89944 0.03059 0.58173 0.0
H2000 H 0.92202 0.03194 0.56979 0.0
H2001 H 0.90679 0.01217 0.56593 0.0
H2002 H 0.92949 0.98513 0.55762 0.0
H2003 H 0.95116 0.97677 0.53197 0.0
H2004 H 0.75889 0.13173 0.42088 0.0
H2005 H 0.76022 0.15173 0.39355 0.0
H2006 H 0.75467 0.20041 0.42929 0.0
H2007 H 0.75334 0.18041 0.45692 0.0
H2008 H 0.72988 0.17784 0.38426 0.0
H2009 H 0.80072 0.21154 0.39304 0.0
H2010 H 0.79479 0.18976 0.40408 0.0
H2011 H 0.78487 0.21112 0.41286 0.0
C2012 C 0.7582 0.14669 0.42302 0.0
C2013 C 0.75599 0.15447 0.44109 0.0
C2014 C 0.75891 0.1581 0.40736 0.0
C2015 C 0.75755 0.17752 0.40941 0.0
C2016 C 0.75589 0.18545 0.42744 0.0
H2017 H 0.73674 0.23854 0.30454 0.0
H2018 H 0.73527 0.23186 0.33819 0.0
C2019 C 0.75514 0.174 0.44319 0.0
C2020 C 0.75697 0.18913 0.39243 0.0
H2021 H 0.78398 0.21791 0.36545 0.0
C2022 C 0.74153 0.18688 0.38025 0.0
C2023 C 0.77222 0.20086 0.38732 0.0
C2024 C 0.78919 0.20351 0.3999 0.0
C2025 C 0.74132 0.19536 0.36266 0.0
C2026 C 0.75691 0.20655 0.35721 0.0
C2027 C 0.77199 0.20946 0.36975 0.0
C2028 C 0.75903 0.21294 0.33764 0.0
C2029 C 0.72496 0.19136 0.34958 0.0
C2030 C 0.77329 0.20511 0.3264 0.0
C2031 C 0.77419 0.20888 0.30731 0.0
C2032 C 0.76087 0.22067 0.29901 0.0
C2033 C 0.74719 0.22937 0.31049 0.0
C2034 C 0.74626 0.2255 0.32968 0.0
H2035 H 0.71538 0.1803 0.35495 0.0
H2036 H 0.71656 0.20424 0.34786 0.0
H2037 H 0.73024 0.18696 0.33554 0.0
H2038 H 0.7833 0.19541 0.33225 0.0
H2039 H 0.78504 0.2021 0.29896 0.0
H2040 H 0.62865 -0.00362 0.16779 0.0
H2041 H 0.61592 0.00223 0.13642 0.0
H2042 H 0.55986 0.98818 0.15593 0.0
H2043 H 0.57231 0.98226 0.18711 0.0
H2044 H 0.58958 0.97598 0.11227 0.0
H2045 H 0.55976 0.04422 0.13472 0.0
H2046 H 0.57944 0.0335 0.1465 0.0
H2047 H 0.55568 0.02545 0.1507 0.0
C2048 C 0.61365 -0.00566 0.16531 0.0
C2049 C 0.60143 0.98902 0.17992 0.0
C2050 C 0.60645 -0.0023 0.14744 0.0
C2051 C 0.58699 -0.00414 0.14409 0.0
C2052 C 0.57492 0.98985 0.15842 0.0
H2053 H 0.49475 -0.00161 0.07524 0.0
H2054 H 0.51956 0.0003 0.09882 0.0
C2055 C 0.58206 0.98643 0.17618 0.0
C2056 C 0.57879 0.00069 0.12588 0.0
H2057 H 0.5465 0.03005 0.10708 0.0
C2058 C 0.58055 0.98804 0.11083 0.0
C2059 C 0.56717 0.01652 0.1242 0.0
C2060 C 0.56547 0.03082 0.13982 0.0
C2061 C 0.56964 0.99002 0.09457 0.0
C2062 C 0.55691 0.00512 0.09351 0.0
C2063 C 0.55626 0.01849 0.10803 0.0
C2064 C 0.54212 0.00566 0.07901 0.0
C2065 C 0.57071 0.97528 0.07928 0.0
C2066 C 0.54662 0.00854 0.06014 0.0
C2067 C 0.53241 0.00753 0.04656 0.0
C2068 C 0.51356 0.0035 0.05169 0.0
C2069 C 0.5091 0.0014 0.07075 0.0
C2070 C 0.52325 0.00249 0.08427 0.0
H2071 H 0.58005 0.96354 0.08311 0.0
H2072 H 0.55636 0.96965 0.07615 0.0
H2073 H 0.57632 0.98158 0.06627 0.0
H2074 H 0.5611 0.01125 0.0559 0.0
H2075 H 0.53627 0.00944 0.03204 0.0
H2076 H 0.73102 0.82256 0.95068 0.0
H2077 H 0.73038 0.80487 0.92094 0.0
H2078 H 0.72704 0.85619 0.89052 0.0
H2079 H 0.72763 0.87394 0.91995 0.0
H2080 H 0.70074 0.80727 0.89117 0.0
H2081 H 0.77299 0.82713 0.867 0.0
H2082 H 0.76591 0.82873 0.89131 0.0
H2083 H 0.75801 0.84582 0.87503 0.0
C2084 C 0.73021 0.83008 0.93766 0.0
C2085 C 0.72942 0.84968 0.93775 0.0
C2086 C 0.72981 0.81995 0.9207 0.0
C2087 C 0.72884 0.82925 0.90355 0.0
C2088 C 0.72801 0.84876 0.90359 0.0
H2089 H 0.73571 0.78693 0.78756 0.0
H2090 H 0.7317 0.80781 0.81488 0.0
C2091 C 0.72828 0.85887 0.92048 0.0
C2092 C 0.72843 0.81861 0.88556 0.0
H2093 H 0.75422 0.80936 0.84598 0.0
C2094 C 0.71242 0.80769 0.88128 0.0
C2095 C 0.74356 0.81945 0.87258 0.0
C2096 C 0.76118 0.83079 0.87666 0.0
C2097 C 0.71117 0.7975 0.86434 0.0
C2098 C 0.72655 0.79787 0.85157 0.0
C2099 C 0.7424 0.80911 0.85572 0.0
C2100 C 0.72719 0.78556 0.83461 0.0
C2101 C 0.69327 0.78658 0.86024 0.0
C2102 C 0.72589 0.76617 0.83658 0.0
C2103 C 0.72807 0.7543 0.82108 0.0
C2104 C 0.73184 0.76146 0.80317 0.0
C2105 C 0.7327 0.78094 0.80109 0.0
C2106 C 0.7305 0.79287 0.81671 0.0
H2107 H 0.68091 0.79271 0.86772 0.0
H2108 H 0.69017 0.78608 0.84499 0.0
H2109 H 0.69495 0.77209 0.86517 0.0
H2110 H 0.72382 0.76014 0.85026 0.0
H2111 H 0.72732 0.7394 0.8233 0.0
H2112 H 0.79663 0.87928 0.01748 0.0
H2113 H 0.82993 0.8878 0.02296 0.0
H2114 H 0.82576 0.93111 0.98197 0.0
H2115 H 0.79262 0.92302 0.97667 0.0
H2116 H 0.86216 0.89027 -0.00077 0.0
H2117 H 0.84299 0.95931 0.02911 0.0
H2118 H 0.82576 0.94093 0.02542 0.0
H2119 H 0.83312 0.95533 0.00625 0.0
C2120 C 0.80283 0.89058 0.00959 0.0
C2121 C 0.79184 0.90063 -0.00317 0.0
C2122 C 0.82188 0.89539 0.01271 0.0
C2123 C 0.83023 0.91032 0.00313 0.0
C2124 C 0.8195 0.91982 -0.01016 0.0
H2125 H 0.94346 0.94896 0.98339 0.0
H2126 H 0.91526 0.929 0.98453 0.0
C2127 C 0.80052 0.91513 0.9868 0.0
C2128 C 0.84989 0.9166 0.00735 0.0
H2129 H 0.87525 0.95533 0.02016 0.0
C2130 C 0.86509 0.90442 0.00404 0.0
C2131 C 0.85369 0.93493 0.014 0.0
C2132 C 0.83802 0.94832 0.0191 0.0
C2133 C 0.88401 0.91037 0.00642 0.0
C2134 C 0.8878 0.9291 0.0119 0.0
C2135 C 0.87251 0.94098 0.01589 0.0
C2136 C 0.90728 0.93727 0.0128 0.0
C2137 C 0.89967 0.89652 0.00307 0.0
C2138 C 0.91265 0.94822 0.02845 0.0
C2139 C 0.92851 0.95993 0.0276 0.0
C2140 C 0.9396 0.96061 0.01128 0.0
C2141 C 0.93539 0.94835 -0.00369 0.0
C2142 C 0.91922 0.93692 -0.00303 0.0
H2143 H 0.89474 0.88206 0.00575 0.0
H2144 H 0.90421 0.89711 0.98819 0.0
H2145 H 0.91212 0.89961 0.01209 0.0
H2146 H 0.90377 0.94874 0.04085 0.0
H2147 H 0.93137 0.96942 0.03924 0.0
H2148 H 0.29878 0.5994 0.97403 0.0
H2149 H 0.33035 0.5859 0.97083 0.0
H2150 H 0.30945 0.53387 -0.00745 0.0
H2151 H 0.27779 0.5471 -0.00444 0.0
H2152 H 0.35187 0.57223 5e-05 0.0
H2153 H 0.33905 0.51693 0.94607 0.0
H2154 H 0.32268 0.53577 0.95033 0.0
H2155 H 0.32332 0.51632 0.96588 0.0
C2156 C 0.30082 0.58501 0.97792 0.0
C2157 C 0.28573 0.57435 0.98505 0.0
C2158 C 0.31888 0.57733 0.97609 0.0
C2159 C 0.32219 0.55882 0.98125 0.0
C2160 C 0.30713 0.54805 0.98812 0.0
H2161 H 0.42969 0.49869 -0.00925 0.0
H2162 H 0.39595 0.50671 -0.00774 0.0
C2163 C 0.28905 0.5557 -0.01007 0.0
C2164 C 0.34167 0.55126 0.98058 0.0
H2165 H 0.36929 0.51742 0.9605 0.0
C2166 C 0.35567 0.56026 -0.00861 0.0
C2167 C 0.34654 0.53551 0.96941 0.0
C2168 C 0.33217 0.52563 0.95713 0.0
C2169 C 0.37444 0.55404 -0.00877 0.0
C2170 C 0.37939 0.53856 0.97979 0.0
C2171 C 0.36537 0.52926 0.96928 0.0
C2172 C 0.39934 0.53277 0.97771 0.0
C2173 C 0.38892 0.56411 0.00326 0.0
C2174 C 0.4122 0.54453 0.96862 0.0
C2175 C 0.43136 0.54007 0.9678 0.0
C2176 C 0.43812 0.52371 0.97607 0.0
C2177 C 0.42503 0.51152 0.9845 0.0
C2178 C 0.40576 0.51602 0.9853 0.0
H2179 H 0.38214 0.57288 0.01432 0.0
H2180 H 0.39852 0.55403 0.01002 0.0
H2181 H 0.39766 0.57333 -0.00569 0.0
H2182 H 0.40744 0.55741 0.9625 0.0
H2183 H 0.44093 0.54978 0.96107 0.0
H2184 H 0.15461 0.54639 0.7512 0.0
H2185 H 0.1707 0.57672 0.75041 0.0
H2186 H 0.12378 0.59964 0.72007 0.0
H2187 H 0.10757 0.56948 0.72075 0.0
H2188 H 0.16057 0.60565 0.70369 0.0
H2189 H 0.15735 0.62621 0.77902 0.0
H2190 H 0.16582 0.603 0.77435 0.0
H2191 H 0.1418 0.60876 0.76874 0.0
C2192 C 0.14761 0.55792 0.74453 0.0
C2193 C 0.1298 0.55548 0.73604 0.0
C2194 C 0.15679 0.57525 0.74417 0.0
C2195 C 0.14831 0.5904 0.73531 0.0
C2196 C 0.13048 0.5881 0.72703 0.0
H2197 H 0.19659 0.7033 0.73904 0.0
H2198 H 0.17339 0.67772 0.73773 0.0
C2199 C 0.12125 0.57085 0.72747 0.0
C2200 C 0.15854 0.60834 0.73374 0.0
H2201 H 0.17796 0.64397 0.75961 0.0
C2202 C 0.16423 0.61415 0.71588 0.0
C2203 C 0.16304 0.61945 0.74965 0.0
C2204 C 0.15657 0.61418 0.76904 0.0
C2205 C 0.17501 0.63045 0.7136 0.0
C2206 C 0.18026 0.64109 0.7296 0.0
C2207 C 0.17392 0.63571 0.74738 0.0
C2208 C 0.19358 0.65699 0.72839 0.0
C2209 C 0.18094 0.63606 0.69415 0.0
C2210 C 0.21249 0.65376 0.72337 0.0
C2211 C 0.22574 0.66824 0.72422 0.0
C2212 C 0.22031 0.68625 0.73007 0.0
C2213 C 0.20117 0.68962 0.73436 0.0
C2214 C 0.18793 0.67503 0.73369 0.0
H2215 H 0.1719 0.62933 0.68323 0.0
H2216 H 0.18029 0.65143 0.69262 0.0
H2217 H 0.19579 0.63167 0.69164 0.0
H2218 H 0.21714 0.63986 0.71948 0.0
H2219 H 0.24037 0.6652 0.7208 0.0
H2220 H 0.18628 0.42327 0.51369 0.0
H2221 H 0.15498 0.43737 0.51697 0.0
H2222 H 0.12902 0.38276 0.51465 0.0
H2223 H 0.16021 0.36862 0.5108 0.0
H2224 H 0.11228 0.40507 0.49139 0.0
H2225 H 0.11797 0.44242 0.55935 0.0
H2226 H 0.13697 0.44888 0.54402 0.0
H2227 H 0.135 0.42516 0.55185 0.0
C2228 C 0.17392 0.41426 0.5141 0.0
C2229 C 0.17573 0.39484 0.51191 0.0
C2230 C 0.15602 0.42232 0.51618 0.0
C2231 C 0.1396 0.41112 0.51646 0.0
C2232 C 0.14145 0.39169 0.51464 0.0
H2233 H 0.02316 0.45217 0.4987 0.0
H2234 H 0.04729 0.43264 0.51359 0.0
C2235 C 0.1593 0.38364 0.51238 0.0
C2236 C 0.12049 0.41977 0.51666 0.0
H2237 H 0.09395 0.4537 0.53805 0.0
C2238 C 0.10807 0.41534 0.50188 0.0
C2239 C 0.11489 0.43312 0.53041 0.0
C2240 C 0.12685 0.43751 0.5474 0.0
C2241 C 0.09089 0.42478 0.49973 0.0
C2242 C 0.0859 0.43897 0.51277 0.0
C2243 C 0.09778 0.44276 0.52812 0.0
C2244 C 0.07035 0.45203 0.50864 0.0
C2245 C 0.07879 0.4204 0.48279 0.0
C2246 C 0.07515 0.46969 0.5019 0.0
C2247 C 0.06154 0.48055 0.49326 0.0
C2248 C 0.0428 0.47414 0.49152 0.0
C2249 C 0.03749 0.45736 0.49996 0.0
C2250 C 0.05127 0.44623 0.50839 0.0
H2251 H 0.08546 0.40999 0.4732 0.0
H2252 H 0.06489 0.41477 0.48741 0.0
H2253 H 0.0761 0.4333 0.47484 0.0
H2254 H 0.08976 0.47443 0.50195 0.0
H2255 H 0.06594 0.4935 0.48686 0.0
H2256 H 0.82577 0.94566 0.75435 0.0
H2257 H 0.80798 0.91701 0.76116 0.0
H2258 H 0.8538 0.88406 0.73869 0.0
H2259 H 0.87169 0.91236 0.73215 0.0
H2260 H 0.79563 0.88997 0.73703 0.0
H2261 H 0.84437 0.85821 0.78774 0.0
H2262 H 0.84635 0.88232 0.781 0.0
H2263 H 0.85614 0.86412 0.76632 0.0
C2264 C 0.83209 0.93231 0.75095 0.0
C2265 C 0.85022 0.93139 0.74276 0.0
C2266 C 0.82193 0.91593 0.75491 0.0
C2267 C 0.82972 0.89832 0.75088 0.0
C2268 C 0.84769 0.89741 0.7425 0.0
H2269 H 0.79341 0.7871 0.7312 0.0
H2270 H 0.81204 0.81465 0.74045 0.0
C2271 C 0.85784 0.9137 0.73858 0.0
C2272 C 0.81869 0.88086 0.75417 0.0
H2273 H 0.8215 0.83746 0.7733 0.0
C2274 C 0.80112 0.87863 0.74526 0.0
C2275 C 0.82586 0.866 0.76488 0.0
C2276 C 0.84413 0.86783 0.77568 0.0
C2277 C 0.791 0.86171 0.74595 0.0
C2278 C 0.79846 0.84663 0.75615 0.0
C2279 C 0.81576 0.84901 0.76554 0.0
C2280 C 0.78915 0.82793 0.75568 0.0
C2281 C 0.77284 0.85981 0.73493 0.0
C2282 C 0.77061 0.82556 0.76245 0.0
C2283 C 0.76002 0.80972 0.75729 0.0
C2284 C 0.76793 0.79592 0.74555 0.0
C2285 C 0.78715 0.79729 0.74068 0.0
C2286 C 0.79773 0.81316 0.74578 0.0
H2287 H 0.77097 0.87143 0.72499 0.0
H2288 H 0.7725 0.84644 0.72688 0.0
H2289 H 0.76063 0.8599 0.74475 0.0
H2290 H 0.76378 0.83668 0.77032 0.0
H2291 H 0.74508 0.80924 0.76078 0.0
H2292 H 0.68536 0.08183 0.4632 0.0
H2293 H 0.65236 0.07167 0.46591 0.0
H2294 H 0.6419 0.11605 0.50609 0.0
H2295 H 0.67461 0.12678 0.50272 0.0
H2296 H 0.63761 0.05838 0.49607 0.0
H2297 H 0.59455 0.11904 0.47597 0.0
H2298 H 0.61964 0.11776 0.4713 0.0
H2299 H 0.61117 0.12484 0.49413 0.0
C2300 C 0.67589 0.08965 0.47229 0.0
C2301 C 0.68253 0.10504 0.48278 0.0
C2302 C 0.65704 0.08386 0.47383 0.0
C2303 C 0.64455 0.09319 0.48608 0.0
C2304 C 0.65106 0.10892 0.49617 0.0
H2305 H 0.55258 0.02839 0.53257 0.0
H2306 H 0.57844 0.05121 0.53044 0.0
C2307 C 0.66983 0.11494 0.49435 0.0
C2308 C 0.62556 0.0851 0.4899 0.0
H2309 H 0.57824 0.0947 0.49227 0.0
C2310 C 0.62465 0.06633 0.49511 0.0
C2311 C 0.6086 0.09544 0.48859 0.0
C2312 C 0.60849 0.11533 0.482 0.0
C2313 C 0.60735 0.05756 0.49897 0.0
C2314 C 0.59046 0.06807 0.49845 0.0
C2315 C 0.59126 0.08682 0.49311 0.0
C2316 C 0.57184 0.05918 0.50207 0.0
C2317 C 0.60739 0.03692 0.50298 0.0
C2318 C 0.55852 0.05756 0.48756 0.0
C2319 C 0.54342 0.04496 0.489 0.0
C2320 C 0.54161 0.03379 0.50491 0.0
C2321 C 0.55373 0.0369 0.52019 0.0
C2322 C 0.56857 0.04978 0.51891 0.0
H2323 H 0.62063 0.03014 0.49802 0.0
H2324 H 0.60633 0.03488 0.51832 0.0
H2325 H 0.5952 0.02972 0.49615 0.0
H2326 H 0.56073 0.06475 0.47448 0.0
H2327 H 0.53447 0.04253 0.4769 0.0
H2328 H 0.13464 0.4242 0.75047 0.0
H2329 H 0.15511 0.39702 0.75181 0.0
H2330 H 0.2044 0.43239 0.74673 0.0
H2331 H 0.1839 0.45994 0.74532 0.0
H2332 H 0.18433 0.38818 0.72129 0.0
H2333 H 0.21215 0.39629 0.79406 0.0
H2334 H 0.1898 0.40636 0.78748 0.0
H2335 H 0.21147 0.4161 0.7788 0.0
C2336 C 0.14983 0.4263 0.7498 0.0
C2337 C 0.15765 0.44424 0.74776 0.0
C2338 C 0.16149 0.41073 0.75052 0.0
C2339 C 0.1812 0.41275 0.74933 0.0
C2340 C 0.18919 0.43063 0.74773 0.0
H2341 H 0.24121 0.30541 0.73487 0.0
H2342 H 0.23633 0.33916 0.73246 0.0
C2343 C 0.17747 0.4463 0.74695 0.0
C2344 C 0.19303 0.39584 0.74924 0.0
H2345 H 0.21779 0.36776 0.77837 0.0
C2346 C 0.19207 0.38383 0.73356 0.0
C2347 C 0.203 0.39034 0.76532 0.0
C2348 C 0.20426 0.40285 0.78246 0.0
C2349 C 0.19991 0.36592 0.73395 0.0
C2350 C 0.209 0.35999 0.75044 0.0
C2351 C 0.21089 0.37242 0.76573 0.0
C2352 C 0.21383 0.34016 0.75309 0.0
C2353 C 0.19723 0.353 0.71725 0.0
C2354 C 0.20318 0.32974 0.76585 0.0
C2355 C 0.20588 0.31058 0.76725 0.0
C2356 C 0.2194 0.30143 0.75598 0.0
C2357 C 0.23066 0.31204 0.74374 0.0
C2358 C 0.22786 0.33129 0.74228 0.0
H2359 H 0.18795 0.35909 0.70642 0.0
H2360 H 0.2112 0.35002 0.71074 0.0
H2361 H 0.19097 0.33952 0.72171 0.0
H2362 H 0.19228 0.33634 0.7743 0.0
H2363 H 0.19708 0.30291 0.77696 0.0
H2364 H 0.362 0.5648 0.24951 0.0
H2365 H 0.34688 0.59526 0.24727 0.0
H2366 H 0.29542 0.56866 0.22798 0.0
H2367 H 0.31034 0.53807 0.23051 0.0
H2368 H 0.33206 0.61212 0.21586 0.0
H2369 H 0.27627 0.60252 0.27 0.0
H2370 H 0.29622 0.58706 0.26769 0.0
H2371 H 0.27655 0.58492 0.25183 0.0
C2372 C 0.34737 0.56538 0.24503 0.0
C2373 C 0.33734 0.54896 0.24033 0.0
C2374 C 0.33879 0.58284 0.24365 0.0
C2375 C 0.31996 0.58429 0.23758 0.0
C2376 C 0.30984 0.56791 0.23301 0.0
H2377 H 0.24856 0.68329 0.23663 0.0
H2378 H 0.26123 0.65309 0.22616 0.0
C2379 C 0.31841 0.55041 0.23445 0.0
C2380 C 0.31115 0.603 0.23583 0.0
H2381 H 0.27568 0.63048 0.25318 0.0
C2382 C 0.31967 0.61611 0.22396 0.0
C2383 C 0.29491 0.60819 0.24629 0.0
C2384 C 0.28551 0.59502 0.2598 0.0
C2385 C 0.31256 0.63431 0.22247 0.0
C2386 C 0.29664 0.63964 0.2333 0.0
C2387 C 0.28779 0.62636 0.24473 0.0
C2388 C 0.29002 0.65929 0.23466 0.0
C2389 C 0.32219 0.64769 0.20935 0.0
C2390 C 0.30213 0.67318 0.24205 0.0
C2391 C 0.29491 0.69046 0.24782 0.0
C2392 C 0.27552 0.69421 0.2462 0.0
C2393 C 0.26368 0.68095 0.23744 0.0
C2394 C 0.27088 0.6636 0.23169 0.0
H2395 H 0.32969 0.64014 0.19785 0.0
H2396 H 0.31187 0.65742 0.20313 0.0
H2397 H 0.33286 0.65602 0.21727 0.0
H2398 H 0.31683 0.67011 0.2449 0.0
H2399 H 0.30417 0.70023 0.25513 0.0
H2400 H 0.49601 0.66953 0.61934 0.0
H2401 H 0.49842 0.64032 0.60172 0.0
H2402 H 0.49584 0.67026 0.54988 0.0
H2403 H 0.49355 0.69988 0.56753 0.0
H2404 H 0.47219 0.62557 0.57644 0.0
H2405 H 0.54214 0.6359 0.54224 0.0
H2406 H 0.53435 0.64996 0.56199 0.0
H2407 H 0.52535 0.6543 0.53896 0.0
C2408 C 0.49601 0.67005 0.60418 0.0
C2409 C 0.49459 0.68719 0.59489 0.0
C2410 C 0.49742 0.65325 0.59412 0.0
C2411 C 0.4976 0.65305 0.57447 0.0
C2412 C 0.49612 0.67008 0.56505 0.0
H2413 H 0.48852 0.56839 0.4893 0.0
H2414 H 0.49792 0.59599 0.50758 0.0
C2415 C 0.49463 0.687 0.57515 0.0
C2416 C 0.49835 0.63486 0.5641 0.0
H2417 H 0.52458 0.60895 0.53299 0.0
C2418 C 0.48372 0.62189 0.56704 0.0
C2419 C 0.51339 0.63006 0.55184 0.0
C2420 C 0.52981 0.64319 0.54862 0.0
C2421 C 0.48341 0.60448 0.55773 0.0
C2422 C 0.49847 0.59959 0.54545 0.0
C2423 C 0.51319 0.61254 0.54258 0.0
C2424 C 0.49802 0.58189 0.53417 0.0
C2425 C 0.4665 0.59181 0.56056 0.0
C2426 C 0.4964 0.5644 0.54277 0.0
C2427 C 0.49109 0.54852 0.53223 0.0
C2428 C 0.48766 0.5499 0.51295 0.0
C2429 C 0.49142 0.5669 0.5041 0.0
C2430 C 0.49663 0.58274 0.51459 0.0
H2431 H 0.45436 0.59934 0.56699 0.0
H2432 H 0.46179 0.58549 0.54705 0.0
H2433 H 0.47046 0.58038 0.57007 0.0
H2434 H 0.4978 0.56331 0.55782 0.0
H2435 H 0.48782 0.5357 0.53944 0.0
H2436 H 0.53175 0.22423 0.81355 0.0
H2437 H 0.56053 0.22248 0.79433 0.0
H2438 H 0.59339 0.24407 0.84079 0.0
H2439 H 0.56489 0.24541 0.86017 0.0
H2440 H 0.58609 0.24972 0.78358 0.0
H2441 H 0.62138 0.19673 0.82678 0.0
H2442 H 0.59663 0.20225 0.82942 0.0
H2443 H 0.61444 0.21691 0.84021 0.0
C2444 C 0.54514 0.22849 0.81971 0.0
C2445 C 0.54608 0.23476 0.83846 0.0
C2446 C 0.56154 0.22756 0.80867 0.0
C2447 C 0.57913 0.23289 0.81622 0.0
C2448 C 0.58003 0.2395 0.83481 0.0
H2449 H 0.68605 0.25912 0.7631 0.0
H2450 H 0.65302 0.26042 0.77371 0.0
C2451 C 0.5637 0.2403 0.84587 0.0
C2452 C 0.59663 0.23143 0.80477 0.0
H2453 H 0.64073 0.21244 0.80461 0.0
C2454 C 0.59801 0.24144 0.78804 0.0
C2455 C 0.61203 0.22038 0.81046 0.0
C2456 C 0.61102 0.20831 0.82759 0.0
C2457 C 0.61462 0.24109 0.77711 0.0
C2458 C 0.63035 0.23075 0.78332 0.0
C2459 C 0.62873 0.22044 0.79984 0.0
C2460 C 0.64882 0.23043 0.7733 0.0
C2461 C 0.61506 0.25163 0.75899 0.0
C2462 C 0.65739 0.21323 0.76918 0.0
C2463 C 0.6763 0.2125 0.76359 0.0
C2464 C 0.68693 0.22896 0.76165 0.0
C2465 C 0.67802 0.24625 0.76424 0.0
C2466 C 0.65913 0.24698 0.77026 0.0
H2467 H 0.60057 0.25357 0.75334 0.0
H2468 H 0.62132 0.26567 0.76158 0.0
H2469 H 0.62376 0.24431 0.74822 0.0
H2470 H 0.64974 0.20029 0.77134 0.0
H2471 H 0.68291 0.199 0.76167 0.0
H2472 H 0.95981 0.3104 0.09385 0.0
H2473 H 0.95751 0.34069 0.07877 0.0
H2474 H 0.00954 0.32967 0.04883 0.0
H2475 H 0.01118 0.2989 0.06301 0.0
H2476 H 0.97773 0.3693 0.08192 0.0
H2477 H 0.9808 0.35016 0.00701 0.0
H2478 H 0.97759 0.33288 0.02485 0.0
H2479 H 0.00104 0.34085 0.01856 0.0
C2480 C 0.97056 0.31431 0.08375 0.0
C2481 C 0.98562 0.30223 0.07951 0.0
C2482 C 0.96926 0.33168 0.07515 0.0
C2483 C 0.98317 0.33752 0.06234 0.0
C2484 C -0.00178 0.32537 0.05809 0.0
H2485 H 0.02431 0.44697 0.04551 0.0
H2486 H 0.01194 0.41795 0.05803 0.0
C2487 C -0.00074 0.3078 0.06634 0.0
C2488 C 0.98276 0.35682 0.05467 0.0
H2489 H -0.00931 0.38179 0.01497 0.0
C2490 C 0.98023 0.37195 0.0672 0.0
C2491 C 0.98543 0.36054 0.03538 0.0
C2492 C 0.98613 0.3452 0.02069 0.0
C2493 C 0.98139 0.3905 0.06121 0.0
C2494 C 0.98607 0.39419 0.04231 0.0
C2495 C 0.98745 0.37911 0.02955 0.0
C2496 C -0.00858 0.41325 0.03589 0.0
C2497 C 0.97759 0.40592 0.07533 0.0
C2498 C 0.98427 0.42044 0.01908 0.0
C2499 C -0.00835 0.43705 0.01173 0.0
C2500 C 0.00609 0.44683 0.02118 0.0
C2501 C 0.01272 0.44 0.03826 0.0
C2502 C 0.00556 0.4234 0.04548 0.0
H2503 H 0.96693 0.40143 0.08584 0.0
H2504 H -0.00916 0.4093 0.08303 0.0
H2505 H 0.97241 0.41874 0.06854 0.0
H2506 H 0.97358 0.41279 0.01121 0.0
H2507 H 0.98704 0.4415 -0.00193 0.0
H2508 H 0.93603 0.77043 0.31585 0.0
H2509 H 0.90166 0.77173 0.31332 0.0
H2510 H 0.89587 0.73481 0.36014 0.0
H2511 H 0.93045 0.73339 0.36287 0.0
H2512 H 0.87421 0.72474 0.32786 0.0
H2513 H 0.86318 0.7985 0.34816 0.0
H2514 H 0.882 0.79587 0.33139 0.0
H2515 H 0.8843 0.78585 0.35425 0.0
C2516 C 0.92751 0.76259 0.32566 0.0
C2517 C 0.936 0.75181 0.33957 0.0
C2518 C 0.90786 0.76352 0.32433 0.0
C2519 C 0.89628 0.75373 0.33684 0.0
C2520 C 0.90461 0.74269 0.35056 0.0
H2521 H 0.7795 0.74018 0.29536 0.0
H2522 H 0.80233 0.7413 0.3213 0.0
C2523 C 0.92435 0.74185 0.35202 0.0
C2524 C 0.87553 0.7541 0.33436 0.0
H2525 H 0.83986 0.78484 0.32681 0.0
C2526 C 0.8664 0.73772 0.32821 0.0
C2527 C 0.8654 0.77102 0.33513 0.0
C2528 C 0.87418 0.78877 0.34279 0.0
C2529 C 0.84808 0.73824 0.32066 0.0
C2530 C 0.83872 0.75559 0.31955 0.0
C2531 C 0.84711 0.77158 0.3276 0.0
C2532 C 0.82285 0.7581 0.30639 0.0
C2533 C 0.8397 0.72059 0.31225 0.0
C2534 C 0.82638 0.76806 0.28998 0.0
C2535 C 0.81344 0.76751 0.27533 0.0
C2536 C 0.79665 0.75706 0.27685 0.0
C2537 C 0.79231 0.7484 0.2939 0.0
C2538 C 0.80539 0.7489 0.30863 0.0
H2539 H 0.84952 0.70859 0.31308 0.0
H2540 H 0.82648 0.71693 0.31983 0.0
H2541 H 0.83606 0.72272 0.29731 0.0
H2542 H 0.83976 0.77527 0.288 0.0
H2543 H 0.81704 0.77447 0.26242 0.0
H2544 H 0.49323 0.29814 0.90906 0.0
H2545 H 0.49005 0.32943 0.9229 0.0
H2546 H 0.49704 0.3536 0.86836 0.0
H2547 H 0.50025 0.32249 0.85435 0.0
H2548 H 0.51685 0.36126 0.91982 0.0
H2549 H 0.44547 0.37434 0.88988 0.0
H2550 H 0.45499 0.35115 0.89197 0.0
H2551 H 0.46359 0.36626 0.874 0.0
C2552 C 0.49419 0.31009 0.90001 0.0
C2553 C 0.49691 0.30778 0.88058 0.0
C2554 C 0.49237 0.32794 0.90794 0.0
C2555 C 0.49308 0.34372 0.89658 0.0
C2556 C 0.49621 0.34153 0.87729 0.0
H2557 H 0.50042 0.45685 0.94454 0.0
H2558 H 0.50291 0.43136 0.92138 0.0
C2559 C 0.49813 0.32373 0.86935 0.0
C2560 C 0.49044 0.36249 0.90497 0.0
H2561 H 0.45899 0.39835 0.90853 0.0
C2562 C 0.50431 0.36949 0.91724 0.0
C2563 C 0.474 0.37305 0.90153 0.0
C2564 C 0.45854 0.36586 0.88873 0.0
C2565 C 0.50204 0.38673 0.92647 0.0
C2566 C 0.4855 0.39722 0.92323 0.0
C2567 C 0.47174 0.39035 0.91074 0.0
C2568 C 0.48141 0.41422 0.93441 0.0
C2569 C 0.51696 0.39329 0.94023 0.0
C2570 C 0.46783 0.41336 0.94872 0.0
C2571 C 0.46637 0.42785 0.96188 0.0
C2572 C 0.47837 0.44352 0.96084 0.0
C2573 C 0.49084 0.44507 0.94554 0.0
C2574 C 0.49241 0.43045 0.93243 0.0
H2575 H 0.52769 0.3824 0.94291 0.0
H2576 H 0.52435 0.40571 0.93458 0.0
H2577 H 0.51032 0.39745 0.95377 0.0
H2578 H 0.4592 0.40094 0.95042 0.0
H2579 H 0.45659 0.42633 0.97349 0.0
H2580 H 0.9339 0.23028 0.17246 0.0
H2581 H 0.90156 0.23779 0.18176 0.0
H2582 H 0.8951 0.27129 0.13261 0.0
H2583 H 0.92774 0.26392 0.12306 0.0
H2584 H 0.88513 0.28194 0.18208 0.0
H2585 H 0.85026 0.22599 0.13918 0.0
H2586 H 0.87368 0.22198 0.14828 0.0
H2587 H 0.87035 0.23908 0.13056 0.0
C2588 C 0.92568 0.23922 0.16353 0.0
C2589 C 0.93347 0.24647 0.14697 0.0
C2590 C 0.90721 0.24355 0.16893 0.0
C2591 C 0.89606 0.25514 0.15792 0.0
C2592 C 0.90359 0.26236 0.14131 0.0
H2593 H 0.7785 0.24593 0.19427 0.0
H2594 H 0.80322 0.26043 0.17488 0.0
C2595 C 0.92218 0.25807 0.13587 0.0
C2596 C 0.87645 0.25916 0.16399 0.0
H2597 H 0.83269 0.23889 0.16434 0.0
C2598 C 0.87347 0.2729 0.17787 0.0
C2599 C 0.86126 0.24755 0.15827 0.0
C2600 C 0.86386 0.23281 0.1432 0.0
C2601 C 0.85597 0.27436 0.18719 0.0
C2602 C 0.84135 0.26142 0.18282 0.0
C2603 C 0.84386 0.24881 0.16776 0.0
C2604 C 0.82522 0.25808 0.19579 0.0
C2605 C 0.85355 0.28921 0.20218 0.0
C2606 C 0.82914 0.25265 0.21419 0.0
C2607 C 0.81511 0.24438 0.2251 0.0
C2608 C 0.79685 0.24153 0.21792 0.0
C2609 C 0.79238 0.2484 0.20019 0.0
C2610 C 0.80653 0.25655 0.18911 0.0
H2611 H 0.86213 0.3018 0.19892 0.0
H2612 H 0.83848 0.29329 0.20373 0.0
H2613 H 0.85859 0.28382 0.21577 0.0
H2614 H 0.84347 0.25319 0.21955 0.0
H2615 H 0.81892 0.23887 0.23863 0.0
H2616 H 0.9671 0.6803 0.39057 0.0
H2617 H 0.96559 0.65248 0.40983 0.0
H2618 H 0.00773 0.67628 0.44696 0.0
H2619 H 0.00879 0.70448 0.42808 0.0
H2620 H -0.0061 0.6296 0.41387 0.0
H2621 H 0.97185 0.65408 0.48449 0.0
H2622 H 0.96958 0.66831 0.46396 0.0
H2623 H -0.00805 0.66676 0.47585 0.0
C2624 C 0.97579 0.67976 0.40304 0.0
C2625 C 0.98814 0.69452 0.40777 0.0
C2626 C 0.97488 0.66386 0.41406 0.0
C2627 C 0.9864 0.66232 0.42997 0.0
C2628 C -0.00166 0.6773 0.43505 0.0
H2629 H 0.03083 0.55868 0.46684 0.0
H2630 H 0.02594 0.59115 0.45836 0.0
C2631 C -0.00093 0.69335 0.42415 0.0
C2632 C 0.98759 0.64422 0.43972 0.0
H2633 H 0.98603 0.62364 0.48264 0.0
C2634 C -0.00805 0.62833 0.42888 0.0
C2635 C 0.98492 0.64247 0.4593 0.0
C2636 C 0.97912 0.65879 0.47155 0.0
C2637 C -0.00582 0.61087 0.43706 0.0
C2638 C -0.00747 0.6093 0.45673 0.0
C2639 C 0.98759 0.625 0.4676 0.0
C2640 C -0.00373 0.59134 0.46593 0.0
C2641 C -0.0017 0.59422 0.42451 0.0
C2642 C 0.98147 0.58114 0.47416 0.0
C2643 C 0.98431 0.56258 0.4793 0.0
C2644 C 0.00193 0.55406 0.47607 0.0
C2645 C 0.01706 0.56485 0.46928 0.0
C2646 C 0.01429 0.58337 0.46441 0.0
H2647 H -0.00581 0.59676 0.40975 0.0
H2648 H 0.01371 0.59135 0.42474 0.0
H2649 H -0.00932 0.5816 0.42942 0.0
H2650 H 0.96747 0.5871 0.47549 0.0
H2651 H 0.97238 0.55455 0.48445 0.0
H2652 H 0.53055 0.75813 0.67317 0.0
H2653 H 0.55951 0.75688 0.69192 0.0
H2654 H 0.59164 0.74289 0.64225 0.0
H2655 H 0.56286 0.74453 0.62335 0.0
H2656 H 0.58522 0.7286 0.69804 0.0
H2657 H 0.61992 0.78817 0.66272 0.0
H2658 H 0.59515 0.78267 0.65968 0.0
H2659 H 0.61285 0.76978 0.64686 0.0
C2660 C 0.5438 0.75486 0.66622 0.0
C2661 C 0.54443 0.75165 0.64672 0.0
C2662 C 0.56032 0.75406 0.67697 0.0
C2663 C 0.5778 0.75005 0.66846 0.0
C2664 C 0.57839 0.74639 0.64907 0.0
H2665 H 0.68577 0.72307 0.7203 0.0
H2666 H 0.65335 0.72052 0.70815 0.0
C2667 C 0.56191 0.7473 0.63829 0.0
C2668 C 0.59546 0.7501 0.67977 0.0
H2669 H 0.63893 0.77085 0.68337 0.0
C2670 C 0.59696 0.73789 0.69492 0.0
C2671 C 0.61066 0.76239 0.67585 0.0
C2672 C 0.60956 0.77663 0.66052 0.0
C2673 C 0.61338 0.73747 0.70607 0.0
C2674 C 0.62879 0.74939 0.70177 0.0
C2675 C 0.62716 0.76167 0.6867 0.0
C2676 C 0.6468 0.74974 0.71258 0.0
C2677 C 0.61393 0.72454 0.72252 0.0
C2678 C 0.65379 0.76684 0.71959 0.0
C2679 C 0.67231 0.76834 0.72621 0.0
C2680 C 0.68418 0.75272 0.72624 0.0
C2681 C 0.67677 0.73525 0.72075 0.0
C2682 C 0.65823 0.7338 0.71378 0.0
H2683 H 0.59945 0.7205 0.72714 0.0
H2684 H 0.62151 0.71161 0.71835 0.0
H2685 H 0.62152 0.73107 0.73457 0.0
H2686 H 0.64525 0.77932 0.71891 0.0
H2687 H 0.67774 0.78198 0.7303 0.0
H2688 H 0.61304 0.49835 0.67395 0.0
H2689 H 0.59517 0.50077 0.64482 0.0
H2690 H 0.54483 0.48131 0.67303 0.0
H2691 H 0.56249 0.47949 0.70239 0.0
H2692 H 0.57853 0.4745 0.62494 0.0
H2693 H 0.52393 0.52555 0.64654 0.0
H2694 H 0.54454 0.52101 0.6606 0.0
H2695 H 0.5243 0.50564 0.66144 0.0
C2696 C 0.59814 0.49469 0.67398 0.0
C2697 C 0.58916 0.48877 0.69048 0.0
C2698 C 0.58792 0.49612 0.65733 0.0
C2699 C 0.56853 0.49158 0.65678 0.0
C2700 C 0.5596 0.48544 0.6732 0.0
H2701 H 0.51285 0.45783 0.55428 0.0
H2702 H 0.52439 0.46028 0.58652 0.0
C2703 C 0.56977 0.48422 0.68993 0.0
C2704 C 0.55806 0.49214 0.63874 0.0
H2705 H 0.51839 0.50901 0.61761 0.0
C2706 C 0.56545 0.48215 0.62335 0.0
C2707 C 0.54112 0.50235 0.63653 0.0
C2708 C 0.53311 0.5144 0.65211 0.0
C2709 C 0.55624 0.48178 0.60597 0.0
C2710 C 0.53878 0.49115 0.60403 0.0
C2711 C 0.53158 0.50155 0.61924 0.0
C2712 C 0.52805 0.49026 0.58617 0.0
C2713 C 0.56553 0.47155 0.58976 0.0
C2714 C 0.52487 0.50646 0.57581 0.0
C2715 C 0.51779 0.5051 0.55749 0.0
C2716 C 0.5139 0.48753 0.54939 0.0
C2717 C 0.51573 0.47152 0.56029 0.0
C2718 C 0.52249 0.4729 0.57861 0.0
H2719 H 0.58099 0.46991 0.59202 0.0
H2720 H 0.5592 0.4574 0.58835 0.0
H2721 H 0.56338 0.47898 0.5764 0.0
H2722 H 0.52898 0.52001 0.58143 0.0
H2723 H 0.5168 0.51759 0.54921 0.0
H2724 H 0.74861 0.32706 0.94445 0.0
H2725 H 0.75216 0.31083 0.91427 0.0
H2726 H 0.73817 0.36131 0.88547 0.0
H2727 H 0.73481 0.37776 0.91552 0.0
H2728 H 0.7252 0.30589 0.88597 0.0
H2729 H 0.78793 0.34533 0.86026 0.0
H2730 H 0.78047 0.34606 0.88448 0.0
H2731 H 0.76807 0.35933 0.86731 0.0
C2732 C 0.74628 0.33473 0.93172 0.0
C2733 C 0.74151 0.35374 0.93243 0.0
C2734 C 0.74834 0.32544 0.91449 0.0
C2735 C 0.74576 0.33497 0.89766 0.0
C2736 C 0.74065 0.35382 0.89829 0.0
H2737 H 0.7441 0.28907 0.78306 0.0
H2738 H 0.74329 0.31128 0.8096 0.0
C2739 C 0.7386 0.36315 0.91551 0.0
C2740 C 0.7479 0.32494 0.8795 0.0
H2741 H 0.77442 0.323 0.83936 0.0
C2742 C 0.73593 0.30966 0.87577 0.0
C2743 C 0.76186 0.32999 0.86619 0.0
C2744 C 0.77544 0.34598 0.86975 0.0
C2745 C 0.73766 0.29915 0.85915 0.0
C2746 C 0.75185 0.30393 0.84605 0.0
C2747 C 0.76356 0.31945 0.8495 0.0
C2748 C 0.7553 0.29207 0.82932 0.0
C2749 C 0.7244 0.28285 0.85576 0.0
C2750 C 0.76307 0.27433 0.83155 0.0
C2751 C 0.76357 0.26172 0.81652 0.0
C2752 C 0.75634 0.26665 0.79894 0.0
C2753 C 0.74986 0.28494 0.79638 0.0
C2754 C 0.74931 0.29759 0.81153 0.0
H2755 H 0.71192 0.2833 0.86527 0.0
H2756 H 0.71937 0.28257 0.84103 0.0
H2757 H 0.73209 0.26966 0.85823 0.0
H2758 H 0.76791 0.26994 0.84518 0.0
H2759 H 0.76882 0.2478 0.8189 0.0
H2760 H 0.92314 0.52104 0.2028 0.0
H2761 H 0.93994 0.52561 0.17303 0.0
H2762 H 0.89862 0.4908 0.14466 0.0
H2763 H 0.88149 0.4868 0.17401 0.0
H2764 H 0.95674 0.502 0.14853 0.0
H2765 H 0.89729 0.5366 0.1133 0.0
H2766 H 0.89731 0.53248 0.13817 0.0
H2767 H 0.89011 0.5143 0.12192 0.0
C2768 C 0.91763 0.51447 0.19017 0.0
C2769 C 0.90087 0.50379 0.19067 0.0
C2770 C 0.92724 0.51704 0.1732 0.0
C2771 C 0.92028 0.5089 0.15654 0.0
C2772 C 0.90393 0.49771 0.15721 0.0
H2773 H 0.97518 0.48331 0.05163 0.0
H2774 H 0.96586 0.48485 0.08468 0.0
C2775 C 0.89419 0.49536 0.17403 0.0
C2776 C 0.92998 0.51194 0.13838 0.0
H2777 H 0.92139 0.52389 0.0932 0.0
C2778 C 0.94912 0.50704 0.13646 0.0
C2779 C 0.92019 0.51894 0.12275 0.0
C2780 C 0.90016 0.52608 0.12419 0.0
C2781 C 0.95848 0.50818 0.11909 0.0
C2782 C 0.94821 0.51379 0.10313 0.0
C2783 C 0.92929 0.51938 0.10531 0.0
C2784 C 0.95634 0.51352 0.08389 0.0
C2785 C 0.97925 0.50349 0.11814 0.0
C2786 C 0.95398 0.529 0.0723 0.0
C2787 C 0.95865 0.52788 0.05332 0.0
C2788 C 0.96619 0.5114 0.04562 0.0
C2789 C 0.96958 0.49624 0.05734 0.0
C2790 C 0.9644 0.49719 0.07627 0.0
H2791 H 0.9863 0.50629 0.13181 0.0
H2792 H 0.98082 0.4884 0.11485 0.0
H2793 H 0.98668 0.51158 0.10717 0.0
H2794 H 0.94784 0.54177 0.07781 0.0
H2795 H 0.956 0.53978 0.04455 0.0
H2796 H 0.75674 0.62446 0.41631 0.0
H2797 H 0.75956 0.63985 0.38618 0.0
H2798 H 0.75342 0.69344 0.41364 0.0
H2799 H 0.75054 0.67809 0.44406 0.0
H2800 H 0.72944 0.66348 0.37286 0.0
H2801 H 0.79919 0.69989 0.37594 0.0
H2802 H 0.79356 0.68009 0.39037 0.0
H2803 H 0.78389 0.70255 0.39602 0.0
C2804 C 0.75621 0.63954 0.41604 0.0
C2805 C 0.75329 0.65006 0.4326 0.0
C2806 C 0.7579 0.64831 0.39879 0.0
C2807 C 0.7569 0.66777 0.39771 0.0
C2808 C 0.75455 0.67841 0.41423 0.0
H2809 H 0.73988 0.74647 0.31088 0.0
H2810 H 0.75156 0.73041 0.33855 0.0
C2811 C 0.75277 0.66962 0.43157 0.0
C2812 C 0.75619 0.67661 0.3791 0.0
H2813 H 0.77958 0.70629 0.34988 0.0
C2814 C 0.74047 0.67271 0.36773 0.0
C2815 C 0.77056 0.68873 0.37261 0.0
C2816 C 0.78786 0.69304 0.38426 0.0
C2817 C 0.73841 0.68098 0.3502 0.0
C2818 C 0.75285 0.69303 0.34353 0.0
C2819 C 0.76869 0.69684 0.35488 0.0
C2820 C 0.75071 0.70295 0.32555 0.0
C2821 C 0.72035 0.67733 0.33939 0.0
C2822 C 0.74751 0.693 0.30871 0.0
C2823 C 0.74065 0.70217 0.29297 0.0
C2824 C 0.73764 0.72145 0.2937 0.0
C2825 C 0.74254 0.73162 0.30994 0.0
C2826 C 0.74915 0.72245 0.32574 0.0
H2827 H 0.70897 0.67159 0.34845 0.0
H2828 H 0.71509 0.69031 0.33297 0.0
H2829 H 0.72313 0.66699 0.32802 0.0
H2830 H 0.74887 0.67796 0.30818 0.0
H2831 H 0.73612 0.69402 0.28089 0.0
H2832 H 0.60706 0.47374 0.80632 0.0
H2833 H 0.59849 0.46819 0.83917 0.0
H2834 H 0.55183 0.50625 0.83445 0.0
H2835 H 0.56019 0.51192 0.80187 0.0
H2836 H 0.5782 0.51226 0.86602 0.0
H2837 H 0.54953 0.43983 0.85987 0.0
H2838 H 0.57189 0.44538 0.84896 0.0
H2839 H 0.55051 0.45511 0.83998 0.0
C2840 C 0.59495 0.48089 0.81227 0.0
C2841 C 0.58433 0.49331 0.80144 0.0
C2842 C 0.59003 0.47761 0.831 0.0
C2843 C 0.57444 0.4867 0.83914 0.0
C2844 C 0.56386 0.49905 0.82837 0.0
H2845 H 0.49769 0.49257 0.92571 0.0
H2846 H 0.51651 0.48073 0.89937 0.0
C2847 C 0.5687 0.50228 0.80974 0.0
C2848 C 0.5694 0.48427 0.85911 0.0
H2849 H 0.54572 0.45539 0.88892 0.0
C2850 C 0.57146 0.49971 0.87121 0.0
C2851 C 0.56055 0.46787 0.86568 0.0
C2852 C 0.55786 0.45104 0.85303 0.0
C2853 C 0.56401 0.49962 0.88943 0.0
C2854 C 0.55452 0.48344 0.89589 0.0
C2855 C 0.55321 0.46765 0.88404 0.0
C2856 C 0.5434 0.48402 0.91356 0.0
C2857 C 0.56519 0.51736 0.90109 0.0
C2858 C 0.55214 0.48835 0.93078 0.0
C2859 C 0.54134 0.49519 0.94583 0.0
C2860 C 0.52171 0.49727 0.94394 0.0
C2861 C 0.51279 0.49072 0.92757 0.0
C2862 C 0.52356 0.48403 0.91249 0.0
H2863 H 0.57023 0.52943 0.89281 0.0
H2864 H 0.55114 0.52086 0.90716 0.0
H2865 H 0.57524 0.5154 0.9128 0.0
H2866 H 0.56742 0.48822 0.93196 0.0
H2867 H 0.54855 0.5007 0.95811 0.0
H2868 H 0.7576 0.34914 0.0634 0.0
H2869 H 0.75665 0.32924 0.09078 0.0
H2870 H 0.73148 0.2849 0.05756 0.0
H2871 H 0.73217 0.30491 0.02998 0.0
H2872 H 0.71204 0.29168 0.0901 0.0
H2873 H 0.78819 0.28483 0.10587 0.0
H2874 H 0.78172 0.30878 0.10316 0.0
H2875 H 0.77975 0.29281 0.08352 0.0
C2876 C 0.75209 0.33508 0.06181 0.0
C2877 C 0.74496 0.32862 0.04449 0.0
C2878 C 0.7517 0.32364 0.07747 0.0
C2879 C 0.7443 0.30545 0.07617 0.0
C2880 C 0.73741 0.29883 0.05884 0.0
H2881 H 0.74756 0.24303 0.18194 0.0
H2882 H 0.75021 0.24859 0.14818 0.0
C2883 C 0.73783 0.31028 0.0431 0.0
C2884 C 0.74229 0.29416 0.09333 0.0
H2885 H 0.76664 0.28024 0.13191 0.0
C2886 C 0.72403 0.28883 0.09906 0.0
C2887 C 0.75794 0.29009 0.10489 0.0
C2888 C 0.77802 0.29425 0.09894 0.0
C2889 C 0.72087 0.28082 0.11663 0.0
C2890 C 0.73633 0.27834 0.12889 0.0
C2891 C 0.75474 0.28236 0.1226 0.0
C2892 C 0.73351 0.27377 0.14891 0.0
C2893 C 0.70092 0.2756 0.12215 0.0
C2894 C 0.72325 0.28604 0.16048 0.0
C2895 C 0.72192 0.28307 0.17971 0.0
C2896 C 0.73095 0.26778 0.18791 0.0
C2897 C 0.74072 0.25511 0.17618 0.0
C2898 C 0.74216 0.2582 0.15687 0.0
H2899 H 0.69211 0.27235 0.10962 0.0
H2900 H 0.70071 0.26338 0.13151 0.0
H2901 H 0.69433 0.28755 0.1297 0.0
H2902 H 0.71677 0.29835 0.15473 0.0
H2903 H 0.71426 0.29316 0.18819 0.0
H2904 H 0.9259 0.47384 0.30305 0.0
H2905 H 0.92763 0.47214 0.33703 0.0
H2906 H 0.87221 0.49663 0.34197 0.0
H2907 H 0.87031 0.49849 0.30772 0.0
H2908 H 0.89929 0.51342 0.36518 0.0
H2909 H 0.90075 0.43713 0.37338 0.0
H2910 H 0.91713 0.44422 0.35557 0.0
H2911 H 0.89214 0.44797 0.35235 0.0
C2912 C 0.91401 0.47882 0.31128 0.0
C2913 C 0.89796 0.4863 0.30263 0.0
C2914 C 0.91493 0.47763 0.33073 0.0
C2915 C 0.89983 0.4838 0.34198 0.0
C2916 C 0.88386 0.49151 0.33349 0.0
H2917 H 0.94049 0.47809 0.4595 0.0
H2918 H 0.91457 0.47638 0.43635 0.0
C2919 C 0.88287 0.49263 0.31394 0.0
C2920 C 0.90185 0.48356 0.36261 0.0
H2921 H 0.91879 0.45548 0.39677 0.0
C2922 C 0.90283 0.50068 0.37234 0.0
C2923 C 0.90606 0.46691 0.37211 0.0
C2924 C 0.90375 0.44801 0.36283 0.0
C2925 C 0.91031 0.50177 0.39051 0.0
C2926 C 0.91703 0.4854 0.39892 0.0
C2927 C 0.91377 0.46805 0.39018 0.0
C2928 C 0.93175 0.48657 0.4135 0.0
C2929 C 0.91274 0.52061 0.39989 0.0
C2930 C 0.94983 0.4925 0.4081 0.0
C2931 C 0.96449 0.49326 0.42099 0.0
C2932 C 0.96143 0.48819 0.43972 0.0
C2933 C 0.94325 0.48214 0.44519 0.0
C2934 C 0.92847 0.48118 0.43206 0.0
H2935 H 0.90228 0.53076 0.39461 0.0
H2936 H 0.91121 0.51958 0.41534 0.0
H2937 H 0.92715 0.52607 0.39681 0.0
H2938 H 0.95264 0.49649 0.39375 0.0
H2939 H 0.97822 0.49815 0.41626 0.0
H2940 H 0.75669 0.66349 0.53581 0.0
H2941 H 0.76053 0.68115 0.56529 0.0
H2942 H 0.74584 0.63208 0.59646 0.0
H2943 H 0.74217 0.61433 0.56728 0.0
H2944 H 0.73285 0.68724 0.59276 0.0
H2945 H 0.79415 0.65008 0.62272 0.0
H2946 H 0.78767 0.64796 0.59831 0.0
H2947 H 0.77489 0.63507 0.61573 0.0
C2948 C 0.75444 0.65641 0.54894 0.0
C2949 C 0.74915 0.63746 0.54912 0.0
C2950 C 0.75664 0.66653 0.56577 0.0
C2951 C 0.75378 0.65786 0.5831 0.0
C2952 C 0.74855 0.63896 0.58331 0.0
H2953 H 0.74655 0.69878 0.69902 0.0
H2954 H 0.74828 0.6788 0.67075 0.0
C2955 C 0.74631 0.62887 0.56654 0.0
C2956 C 0.75516 0.66878 0.60092 0.0
H2957 H 0.778 0.67124 0.64313 0.0
C2958 C 0.74282 0.68382 0.60371 0.0
C2959 C 0.76804 0.66418 0.6153 0.0
C2960 C 0.78206 0.64855 0.61286 0.0
C2961 C 0.74282 0.69424 0.62052 0.0
C2962 C 0.75579 0.68975 0.63485 0.0
C2963 C 0.76807 0.67464 0.63215 0.0
C2964 C 0.75702 0.70105 0.65242 0.0
C2965 C 0.7287 0.70981 0.62295 0.0
C2966 C 0.76216 0.71993 0.65162 0.0
C2967 C 0.76117 0.73131 0.66763 0.0
C2968 C 0.75517 0.72403 0.68488 0.0
C2969 C 0.75125 0.70481 0.68596 0.0
C2970 C 0.75216 0.6934 0.66982 0.0
H2971 H 0.71671 0.70833 0.61296 0.0
H2972 H 0.72293 0.71023 0.63744 0.0
H2973 H 0.73585 0.72335 0.62029 0.0
H2974 H 0.76636 0.72603 0.63844 0.0
H2975 H 0.76453 0.746 0.66632 0.0
H2976 H 0.67207 0.62525 0.49019 0.0
H2977 H 0.63944 0.61369 0.48727 0.0
H2978 H 0.6602 0.55979 0.46968 0.0
H2979 H 0.69284 0.57118 0.47259 0.0
H2980 H 0.62925 0.57617 0.44687 0.0
H2981 H 0.61422 0.57487 0.52356 0.0
H2982 H 0.6242 0.59588 0.51405 0.0
H2983 H 0.63809 0.57505 0.51442 0.0
C2984 C 0.6697 0.61093 0.48571 0.0
C2985 C 0.68507 0.59911 0.4817 0.0
C2986 C 0.65105 0.60435 0.48409 0.0
C2987 C 0.64743 0.58587 0.47838 0.0
C2988 C 0.66271 0.57411 0.47413 0.0
H2989 H 0.56478 0.50308 0.46164 0.0
H2990 H 0.5904 0.52567 0.45904 0.0
C2991 C 0.68135 0.58063 0.47585 0.0
C2992 C 0.62776 0.57857 0.47694 0.0
H2993 H 0.5905 0.56348 0.5034 0.0
C2994 C 0.62067 0.57358 0.4592 0.0
C2995 C 0.6165 0.57547 0.49302 0.0
C2996 C 0.62356 0.58047 0.5124 0.0
C2997 C 0.60284 0.56498 0.45716 0.0
C2998 C 0.59204 0.56082 0.47333 0.0
C2999 C 0.59874 0.56668 0.491 0.0
C3000 C 0.57516 0.54829 0.47253 0.0
C3001 C 0.59589 0.56021 0.43769 0.0
C3002 C 0.55787 0.55342 0.48093 0.0
C3003 C 0.54305 0.54037 0.48252 0.0
C3004 C 0.54546 0.52192 0.476 0.0
C3005 C 0.56245 0.51717 0.46682 0.0
C3006 C 0.57711 0.53015 0.46518 0.0
H3007 H 0.60165 0.57015 0.42729 0.0
H3008 H 0.60089 0.54607 0.43362 0.0
H3009 H 0.58018 0.56034 0.43695 0.0
H3010 H 0.5561 0.5673 0.48685 0.0
H3011 H 0.53021 0.54441 0.48982 0.0
H3012 H 0.21156 0.92873 0.50558 0.0
H3013 H 0.1847 0.95016 0.50544 0.0
H3014 H 0.14719 0.90445 0.49117 0.0
H3015 H 0.17392 0.88289 0.49143 0.0
H3016 H 0.15833 0.95799 0.47604 0.0
H3017 H 0.12353 0.92816 0.53876 0.0
H3018 H 0.14787 0.9234 0.53268 0.0
H3019 H 0.12898 0.9113 0.5207 0.0
C3020 C 0.19758 0.92322 0.50249 0.0
C3021 C 0.19484 0.90408 0.49866 0.0
C3022 C 0.18228 0.93551 0.50232 0.0
C3023 C 0.16396 0.92886 0.49846 0.0
C3024 C 0.1612 0.90981 0.49443 0.0
H3025 H 0.05886 0.98033 0.47102 0.0
H3026 H 0.09148 0.96952 0.46899 0.0
C3027 C 0.17648 0.89752 0.49456 0.0
C3028 C 0.14763 0.94176 0.49896 0.0
H3029 H 0.10559 0.94954 0.5212 0.0
C3030 C 0.14683 0.95629 0.48599 0.0
C3031 C 0.13283 0.93965 0.51213 0.0
C3032 C 0.13335 0.9249 0.52698 0.0
C3033 C 0.13127 0.96843 0.4855 0.0
C3034 C 0.11611 0.96583 0.4982 0.0
C3035 C 0.11721 0.95158 0.51146 0.0
C3036 C 0.09844 0.97695 0.4977 0.0
C3037 C 0.13124 0.98393 0.47146 0.0
C3038 C 0.09166 0.98544 0.51424 0.0
C3039 C 0.07294 -0.0085 0.51542 0.0
C3040 C 0.06071 0.98934 0.50003 0.0
C3041 C 0.06803 0.98262 0.48292 0.0
C3042 C 0.08674 0.97634 0.4818 0.0
H3043 H 0.14586 0.98766 0.46701 0.0
H3044 H 0.12332 0.97925 0.45881 0.0
H3045 H 0.12427 -0.0034 0.47728 0.0
H3046 H 0.10041 0.98607 0.52668 0.0
H3047 H 0.06758 -0.00353 0.52882 0.0
H3048 H 0.37466 0.91683 0.71929 0.0
H3049 H 0.35683 0.88762 0.72113 0.0
H3050 H 0.30886 0.91735 0.74377 0.0
H3051 H 0.32647 0.94671 0.74184 0.0
H3052 H 0.34197 0.87237 0.75423 0.0
H3053 H 0.28583 0.88481 0.70171 0.0
H3054 H 0.3074 0.89845 0.70277 0.0
H3055 H 0.28835 0.90325 0.71886 0.0
C3056 C 0.36022 0.91724 0.72441 0.0
C3057 C 0.35198 0.93413 0.73043 0.0
C3058 C 0.3501 0.90051 0.7255 0.0
C3059 C 0.33154 0.90038 0.73247 0.0
C3060 C 0.32309 0.91723 0.73807 0.0
H3061 H 0.24517 0.82123 0.75836 0.0
H3062 H 0.26664 0.84796 0.75698 0.0
C3063 C 0.3332 0.93399 0.737 0.0
C3064 C 0.32132 0.88253 0.73477 0.0
H3065 H 0.28108 0.85918 0.72202 0.0
C3066 C 0.32873 0.86936 0.74709 0.0
C3067 C 0.30414 0.87871 0.72535 0.0
C3068 C 0.29602 0.89196 0.71129 0.0
C3069 C 0.319 0.85268 0.75077 0.0
C3070 C 0.30157 0.84911 0.74171 0.0
C3071 C 0.29441 0.86209 0.72906 0.0
C3072 C 0.29008 0.83228 0.74539 0.0
C3073 C 0.32707 0.83929 0.7647 0.0
C3074 C 0.29644 0.8145 0.73992 0.0
C3075 C 0.28422 0.79911 0.74082 0.0
C3076 C 0.26542 0.80142 0.74695 0.0
C3077 C 0.25952 0.81906 0.75343 0.0
C3078 C 0.27175 0.83434 0.75265 0.0
H3079 H 0.33857 0.8458 0.77321 0.0
H3080 H 0.31583 0.83416 0.77428 0.0
H3081 H 0.33301 0.82706 0.75706 0.0
H3082 H 0.31048 0.81271 0.73404 0.0
H3083 H 0.28909 0.78571 0.7356 0.0
H3084 H 0.30288 0.10163 0.96663 0.0
H3085 H 0.33533 0.09212 0.95932 0.0
H3086 H 0.32886 0.04477 -0.0046 0.0
H3087 H 0.29638 0.05385 0.00237 0.0
H3088 H 0.36488 0.08966 0.98154 0.0
H3089 H 0.35226 0.02005 0.95046 0.0
H3090 H 0.33339 0.03663 0.95389 0.0
H3091 H 0.34043 0.0216 0.97265 0.0
C3092 C 0.3083 0.08906 0.97284 0.0
C3093 C 0.29697 0.07846 0.98506 0.0
C3094 C 0.32686 0.08364 0.96861 0.0
C3095 C 0.33445 0.0675 0.97646 0.0
C3096 C 0.32316 0.05694 0.98866 0.0
H3097 H 0.43061 0.03644 0.02559 0.0
H3098 H 0.40652 0.05518 0.01091 0.0
C3099 C 0.3046 0.06225 -0.00721 0.0
C3100 C 0.35459 0.06236 0.97328 0.0
H3101 H 0.38264 0.02432 0.96658 0.0
C3102 C 0.36879 0.07549 0.97779 0.0
C3103 C 0.35991 0.04411 0.96768 0.0
C3104 C 0.34565 0.0299 0.96067 0.0
C3105 C 0.38789 0.07026 0.97884 0.0
C3106 C 0.39281 0.05135 0.97582 0.0
C3107 C 0.37892 0.03877 0.96926 0.0
C3108 C 0.4108 0.04358 0.983 0.0
C3109 C 0.40248 0.0849 0.98402 0.0
C3110 C 0.42171 0.03101 0.97221 0.0
C3111 C 0.43565 0.02017 0.98073 0.0
C3112 C 0.43856 0.02165 0.00015 0.0
C3113 C 0.42868 0.03517 0.01056 0.0
C3114 C 0.41498 0.04603 0.0021 0.0
H3115 H 0.39884 0.0985 0.97774 0.0
H3116 H 0.40258 0.08696 -0.00053 0.0
H3117 H 0.4169 0.08086 0.97931 0.0
H3118 H 0.41861 0.02873 0.95749 0.0
H3119 H 0.44288 0.00959 0.9725 0.0
H3120 H 0.66669 0.53828 0.73446 0.0
H3121 H 0.68507 0.56712 0.73061 0.0
H3122 H 0.63488 0.59954 0.74148 0.0
H3123 H 0.61641 0.57093 0.74466 0.0
H3124 H 0.65383 0.61365 0.71274 0.0
H3125 H 0.70412 0.60169 0.77087 0.0
H3126 H 0.70429 0.58346 0.75339 0.0
H3127 H 0.68334 0.58737 0.76729 0.0
C3128 C 0.65963 0.55156 0.73619 0.0
C3129 C 0.64009 0.55225 0.73997 0.0
C3130 C 0.67016 0.56807 0.73403 0.0
C3131 C 0.66145 0.5856 0.736 0.0
C3132 C 0.64197 0.58625 0.73985 0.0
H3133 H 0.69511 0.69953 0.75153 0.0
H3134 H 0.67677 0.67186 0.74197 0.0
C3135 C 0.63142 0.56982 0.74175 0.0
C3136 C 0.67244 0.60333 0.73408 0.0
H3137 H 0.7099 0.62798 0.75217 0.0
C3138 C 0.66612 0.61675 0.72134 0.0
C3139 C 0.68845 0.6075 0.74534 0.0
C3140 C 0.69536 0.59435 0.76012 0.0
C3141 C 0.67533 0.63413 0.71962 0.0
C3142 C 0.69128 0.63822 0.73089 0.0
C3143 C 0.69778 0.62473 0.74337 0.0
C3144 C 0.70092 0.65674 0.73104 0.0
C3145 C 0.66798 0.64801 0.7058 0.0
C3146 C 0.72038 0.65788 0.72711 0.0
C3147 C 0.73079 0.67377 0.73238 0.0
C3148 C 0.72193 0.68873 0.74172 0.0
C3149 C 0.70217 0.68841 0.74385 0.0
C3150 C 0.69171 0.6725 0.73853 0.0
H3151 H 0.65855 0.64128 0.69521 0.0
H3152 H 0.65974 0.65885 0.71344 0.0
H3153 H 0.67986 0.65506 0.69847 0.0
H3154 H 0.7278 0.64588 0.72142 0.0
H3155 H 0.74607 0.67349 0.73104 0.0
H3156 H 0.80776 0.37029 -0.00174 0.0
H3157 H 0.84224 0.37504 -0.00084 0.0
H3158 H 0.83483 0.43284 0.98533 0.0
H3159 H 0.80059 0.4283 0.98427 0.0
H3160 H 0.86609 0.39136 0.96732 0.0
H3161 H 0.86859 0.43103 0.03463 0.0
H3162 H 0.84939 0.41528 0.02854 0.0
H3163 H 0.85029 0.43829 0.01891 0.0
C3164 C 0.81348 0.38404 -0.00446 0.0
C3165 C 0.80143 0.39894 -0.00877 0.0
C3166 C 0.83315 0.38668 -0.00401 0.0
C3167 C 0.84095 0.40429 -0.00758 0.0
C3168 C 0.82899 0.41917 0.98826 0.0
H3169 H 0.93244 0.46353 0.95469 0.0
H3170 H 0.90769 0.43978 0.95738 0.0
C3171 C 0.80943 0.41653 0.98764 0.0
C3172 C 0.86162 0.40746 -0.00734 0.0
H3173 H 0.89484 0.43512 0.0138 0.0
C3174 C 0.87258 0.40056 0.9777 0.0
C3175 C 0.87005 0.41918 0.00638 0.0
C3176 C 0.85904 0.42627 0.02314 0.0
C3177 C 0.89148 0.40633 0.97533 0.0
C3178 C 0.89938 0.41947 0.98812 0.0
C3179 C 0.88881 0.42511 0.00391 0.0
C3180 C 0.91721 0.42972 0.98421 0.0
C3181 C 0.90256 0.39882 0.95881 0.0
C3182 C 0.93109 0.43174 -0.00182 0.0
C3183 C 0.94511 0.44549 -0.00329 0.0
C3184 C 0.94559 0.45725 0.98118 0.0
C3185 C 0.93258 0.45432 0.96659 0.0
C3186 C 0.91851 0.44066 0.96808 0.0
H3187 H 0.89781 0.38446 0.95498 0.0
H3188 H 0.90008 0.40778 0.94653 0.0
H3189 H 0.91799 0.39865 0.96176 0.0
H3190 H 0.93017 0.4237 0.01089 0.0
H3191 H 0.95429 0.44815 0.00857 0.0
H3192 H 0.31194 0.03519 0.72861 0.0
H3193 H 0.29481 0.06475 0.72751 0.0
H3194 H 0.3344 0.08933 0.76678 0.0
H3195 H 0.35186 0.06003 0.7676 0.0
H3196 H 0.27747 0.08856 0.75377 0.0
H3197 H 0.34002 0.12203 0.72081 0.0
H3198 H 0.33809 0.09714 0.72362 0.0
H3199 H 0.34508 0.11188 0.74306 0.0
C3200 C 0.31685 0.04682 0.7372 0.0
C3201 C 0.33341 0.04539 0.74797 0.0
C3202 C 0.30703 0.06368 0.73657 0.0
C3203 C 0.31359 0.07932 0.74674 0.0
C3204 C 0.32937 0.07754 0.75848 0.0
H3205 H 0.26225 0.18771 0.76413 0.0
H3206 H 0.27066 0.15478 0.76655 0.0
C3207 C 0.33928 0.06077 0.75899 0.0
C3208 C 0.30482 0.0978 0.74408 0.0
H3209 H 0.31492 0.14195 0.72986 0.0
C3210 C 0.28559 0.10025 0.74847 0.0
C3211 C 0.31536 0.11291 0.7368 0.0
C3212 C 0.33572 0.11086 0.73061 0.0
C3213 C 0.27673 0.11758 0.74617 0.0
C3214 C 0.28751 0.13287 0.73961 0.0
C3215 C 0.30665 0.13026 0.73495 0.0
C3216 C 0.27956 0.15184 0.73758 0.0
C3217 C 0.25588 0.11923 0.75049 0.0
C3218 C 0.28171 0.16119 0.72054 0.0
C3219 C 0.27713 0.18004 0.71927 0.0
C3220 C 0.27008 0.18983 0.73494 0.0
C3221 C 0.26709 0.1803 0.75173 0.0
C3222 C 0.27193 0.16148 0.7531 0.0
H3223 H 0.24862 0.10545 0.74965 0.0
H3224 H 0.25409 0.1248 0.76498 0.0
H3225 H 0.24883 0.12888 0.74073 0.0
H3226 H 0.28763 0.15407 0.70839 0.0
H3227 H 0.27962 0.18711 0.70617 0.0
H3228 H 0.12894 0.91807 0.25057 0.0
H3229 H 0.14531 0.88855 0.25388 0.0
H3230 H 0.19896 0.91764 0.25578 0.0
H3231 H 0.18256 0.94742 0.25183 0.0
H3232 H 0.20094 0.88868 0.23293 0.0
H3233 H 0.16786 0.86406 0.29818 0.0
H3234 H 0.15004 0.86949 0.28134 0.0
H3235 H 0.16534 0.88774 0.29037 0.0
C3236 C 0.14423 0.91827 0.25184 0.0
C3237 C 0.15444 0.93515 0.25098 0.0
C3238 C 0.15358 0.90133 0.25396 0.0
C3239 C 0.17337 0.90081 0.25563 0.0
C3240 C 0.18366 0.91766 0.25476 0.0
H3241 H 0.24462 0.80043 0.24854 0.0
H3242 H 0.23305 0.83007 0.26186 0.0
C3243 C 0.17428 0.93467 0.25245 0.0
C3244 C 0.18323 0.88251 0.25668 0.0
H3245 H 0.18139 0.84001 0.27789 0.0
C3246 C 0.19698 0.87822 0.24306 0.0
C3247 C 0.17819 0.86879 0.26995 0.0
C3248 C 0.1647 0.87285 0.28589 0.0
C3249 C 0.20489 0.86033 0.24161 0.0
C3250 C 0.19895 0.84633 0.25412 0.0
C3251 C 0.18587 0.85077 0.26828 0.0
C3252 C 0.20462 0.82663 0.25105 0.0
C3253 C 0.21884 0.85618 0.22605 0.0
C3254 C 0.19217 0.81445 0.24158 0.0
C3255 C 0.19875 0.79759 0.23404 0.0
C3256 C 0.21776 0.79251 0.23613 0.0
C3257 C 0.22976 0.80381 0.24719 0.0
C3258 C 0.22322 0.82083 0.25461 0.0
H3259 H 0.221 0.86826 0.21669 0.0
H3260 H 0.23271 0.85245 0.23218 0.0
H3261 H 0.21384 0.84407 0.21749 0.0
H3262 H 0.17781 0.81871 0.23861 0.0
H3263 H 0.18938 0.78929 0.22521 0.0
H3264 H 0.46711 0.29567 0.40041 0.0
H3265 H 0.45865 0.32528 0.41589 0.0
H3266 H 0.51476 0.34667 0.40467 0.0
H3267 H 0.52264 0.31774 0.38806 0.0
H3268 H 0.46804 0.34371 0.44415 0.0
H3269 H 0.48687 0.38921 0.38583 0.0
H3270 H 0.48643 0.36419 0.38306 0.0
H3271 H 0.50745 0.37609 0.39153 0.0
C3272 C 0.47761 0.30673 0.40133 0.0
C3273 C 0.49549 0.30447 0.39294 0.0
C3274 C 0.47275 0.32371 0.4101 0.0
C3275 C 0.48579 0.33865 0.41094 0.0
C3276 C 0.50404 0.33587 0.40347 0.0
H3277 H 0.50479 0.41828 0.49289 0.0
H3278 H 0.49313 0.3915 0.47547 0.0
C3279 C 0.50868 0.31916 0.39423 0.0
C3280 C 0.48077 0.35688 0.42018 0.0
H3281 H 0.48847 0.40383 0.41699 0.0
C3282 C 0.47218 0.35685 0.43798 0.0
C3283 C 0.48517 0.37432 0.41201 0.0
C3284 C 0.49174 0.37593 0.39195 0.0
C3285 C 0.46954 0.37347 0.44838 0.0
C3286 C 0.47657 0.39056 0.44129 0.0
C3287 C 0.4835 0.3908 0.42282 0.0
C3288 C 0.47977 0.40737 0.4536 0.0
C3289 C 0.45944 0.37239 0.46699 0.0
C3290 C 0.47614 0.42565 0.44746 0.0
C3291 C 0.48322 0.44128 0.45748 0.0
C3292 C 0.49411 0.43875 0.47366 0.0
C3293 C 0.49633 0.42065 0.4805 0.0
C3294 C 0.48947 0.40521 0.47056 0.0
H3295 H 0.44768 0.36204 0.46621 0.0
H3296 H 0.46946 0.36751 0.4778 0.0
H3297 H 0.45357 0.38607 0.47149 0.0
H3298 H 0.46876 0.42778 0.43438 0.0
H3299 H 0.48149 0.45507 0.45181 0.0
H3300 H 0.44148 0.76422 0.13542 0.0
H3301 H 0.40953 0.76776 0.14823 0.0
H3302 H 0.4272 0.74214 0.19953 0.0
H3303 H 0.45923 0.73886 0.18704 0.0
H3304 H 0.38596 0.73938 0.15902 0.0
H3305 H 0.39918 0.78771 0.21914 0.0
H3306 H 0.41631 0.78397 0.20066 0.0
H3307 H 0.41373 0.76728 0.21906 0.0
C3308 C 0.43865 0.75955 0.14952 0.0
C3309 C 0.45295 0.75128 0.1602 0.0
C3310 C 0.42038 0.76158 0.15681 0.0
C3311 C 0.41605 0.75544 0.17493 0.0
C3312 C 0.43032 0.74737 0.1857 0.0
H3313 H 0.30801 0.74182 0.23337 0.0
H3314 H 0.3417 0.74135 0.22488 0.0
C3315 C 0.44861 0.7454 0.17846 0.0
C3316 C 0.39632 0.75633 0.18201 0.0
H3317 H 0.36855 0.77372 0.2174 0.0
C3318 C 0.38216 0.74696 0.17173 0.0
C3319 C 0.39142 0.76611 0.1987 0.0
C3320 C 0.40592 0.77698 0.20996 0.0
C3321 C 0.36323 0.74706 0.1777 0.0
C3322 C 0.35832 0.75694 0.19427 0.0
C3323 C 0.37245 0.76613 0.20472 0.0
C3324 C 0.33838 0.75844 0.20041 0.0
C3325 C 0.3486 0.73649 0.16629 0.0
C3326 C 0.32557 0.7686 0.18971 0.0
C3327 C 0.30642 0.76895 0.1945 0.0
C3328 C 0.29966 0.75914 0.21012 0.0
C3329 C 0.3127 0.74952 0.22125 0.0
C3330 C 0.33194 0.74922 0.21643 0.0
H3331 H 0.3552 0.72641 0.15631 0.0
H3332 H 0.33871 0.72882 0.17558 0.0
H3333 H 0.3402 0.74652 0.1581 0.0
H3334 H 0.33036 0.77598 0.17742 0.0
H3335 H 0.29687 0.77663 0.18567 0.0
H3336 H 0.00769 0.69801 0.92793 0.0
H3337 H 0.01016 0.66724 0.94222 0.0
H3338 H 0.98837 0.64148 0.89164 0.0
H3339 H 0.98622 0.67205 0.87717 0.0
H3340 H 0.98362 0.64105 0.94971 0.0
H3341 H 0.03552 0.61112 0.89973 0.0
H3342 H 0.0303 0.63573 0.90078 0.0
H3343 H 0.015 0.61984 0.88809 0.0
C3344 C 0.00336 0.68579 0.91987 0.0
C3345 C -0.00318 0.68751 0.90137 0.0
C3346 C 0.00486 0.6682 0.92804 0.0
C3347 C -7e-05 0.65195 0.91785 0.0
C3348 C -0.00717 0.65371 0.89959 0.0
H3349 H 0.97151 0.53953 0.9357 0.0
H3350 H 0.9829 0.56908 0.92304 0.0
C3351 C -0.0086 0.67126 0.89141 0.0
C3352 C 0.00148 0.63322 0.92647 0.0
H3353 H 0.01855 0.58919 0.9188 0.0
C3354 C -0.00846 0.6298 0.94314 0.0
C3355 C 0.01192 0.61852 0.91797 0.0
C3356 C 0.02395 0.62152 0.90076 0.0
C3357 C -0.00915 0.61192 0.95094 0.0
C3358 C 0.00059 0.59704 0.94197 0.0
C3359 C 0.01112 0.60059 0.92569 0.0
C3360 C -0.00194 0.57745 0.94812 0.0
C3361 C 0.97885 0.60886 0.96818 0.0
C3362 C 0.00383 0.57179 0.96599 0.0
C3363 C -0.00253 0.55473 0.97316 0.0
C3364 C 0.98543 0.54312 0.96248 0.0
C3365 C 0.98112 0.54807 0.94404 0.0
C3366 C 0.98751 0.56502 0.93685 0.0
H3367 H 0.96989 0.62112 0.97165 0.0
H3368 H 0.96951 0.59647 0.9662 0.0
H3369 H 0.9882 0.60626 0.98032 0.0
H3370 H 0.01214 0.58109 0.97486 0.0
H3371 H 0.00049 0.5515 0.98762 0.0
H3372 H 0.06904 0.23791 0.60692 0.0
H3373 H 0.10062 0.23163 0.61932 0.0
H3374 H 0.08884 0.26696 0.66735 0.0
H3375 H 0.05706 0.27278 0.65539 0.0
H3376 H 0.13182 0.25221 0.63001 0.0
H3377 H 0.09974 0.21719 0.69102 0.0
H3378 H 0.08603 0.22385 0.67094 0.0
H3379 H 0.0917 0.24074 0.68905 0.0
C3380 C 0.07328 0.24453 0.62002 0.0
C3381 C 0.06049 0.2556 0.63037 0.0
C3382 C 0.09132 0.24093 0.62706 0.0
C3383 C 0.09686 0.24843 0.64448 0.0
C3384 C 0.08462 0.2606 0.65413 0.0
H3385 H 0.20131 0.26117 0.70095 0.0
H3386 H 0.17691 0.2614 0.67689 0.0
C3387 C 0.06652 0.26401 0.64724 0.0
C3388 C 0.11488 0.24273 0.65319 0.0
H3389 H 0.13252 0.22509 0.6935 0.0
C3390 C 0.13204 0.24607 0.6438 0.0
C3391 C 0.1151 0.23413 0.67088 0.0
C3392 C 0.09714 0.22857 0.68096 0.0
C3393 C 0.14951 0.24198 0.65216 0.0
C3394 C 0.14973 0.23483 0.67055 0.0
C3395 C 0.13248 0.23065 0.67945 0.0
C3396 C 0.16734 0.23306 0.6817 0.0
C3397 C 0.16744 0.24537 0.64117 0.0
C3398 C 0.17039 0.21701 0.69236 0.0
C3399 C 0.18405 0.2171 0.70648 0.0
C3400 C 0.19522 0.23302 0.70975 0.0
C3401 C 0.19325 0.24852 0.69819 0.0
C3402 C 0.17929 0.24862 0.68439 0.0
H3403 H 0.16497 0.24332 0.6259 0.0
H3404 H 0.17212 0.26004 0.64342 0.0
H3405 H 0.17901 0.23598 0.64553 0.0
H3406 H 0.16134 0.20485 0.6906 0.0
H3407 H 0.18523 0.20512 0.71546 0.0
H3408 H 0.48986 0.69219 0.07785 0.0
H3409 H 0.48893 0.66037 0.06489 0.0
H3410 H 0.50464 0.63878 0.11869 0.0
H3411 H 0.50586 0.67039 0.13169 0.0
H3412 H 0.52696 0.62541 0.09045 0.0
H3413 H 0.4513 0.61753 0.07148 0.0
H3414 H 0.46195 0.63817 0.06206 0.0
H3415 H 0.4598 0.63582 0.08705 0.0
C3416 C 0.49285 0.68066 0.08699 0.0
C3417 C 0.498 0.68387 0.10579 0.0
C3418 C 0.49221 0.66247 0.07959 0.0
C3419 C 0.49652 0.6472 0.0909 0.0
C3420 C 0.50121 0.65035 0.10975 0.0
H3421 H 0.48469 0.53461 0.04167 0.0
H3422 H 0.48396 0.55941 0.06577 0.0
C3423 C 0.5019 0.66847 0.11713 0.0
C3424 C 0.49762 0.62811 0.08273 0.0
H3425 H 0.47278 0.59568 0.05719 0.0
C3426 C 0.51503 0.61879 0.08341 0.0
C3427 C 0.48198 0.61933 0.07388 0.0
C3428 C 0.46265 0.62814 0.07372 0.0
C3429 C 0.51749 0.60137 0.07457 0.0
C3430 C 0.50221 0.59321 0.06458 0.0
C3431 C 0.48452 0.60202 0.06478 0.0
C3432 C 0.50482 0.57678 0.05204 0.0
C3433 C 0.53652 0.59204 0.07567 0.0
C3434 C 0.51709 0.57817 0.03664 0.0
C3435 C 0.51751 0.56412 0.02295 0.0
C3436 C 0.50565 0.54839 0.02436 0.0
C3437 C 0.49416 0.54646 0.04035 0.0
C3438 C 0.49363 0.56066 0.05403 0.0
H3439 H 0.54435 0.59658 0.08845 0.0
H3440 H 0.53502 0.57661 0.07569 0.0
H3441 H 0.54516 0.59597 0.06332 0.0
H3442 H 0.52559 0.59062 0.03465 0.0
H3443 H 0.52648 0.566 0.01077 0.0
H3444 H 0.07439 0.74246 0.87438 0.0
H3445 H 0.10584 0.74026 0.85965 0.0
H3446 H 0.07968 0.72655 0.80664 0.0
H3447 H 0.04842 0.72886 0.82106 0.0
H3448 H 0.12417 0.70971 0.8362 0.0
H3449 H 0.11112 0.77566 0.7987 0.0
H3450 H 0.09748 0.7688 0.81893 0.0
H3451 H 0.09248 0.75863 0.79628 0.0
C3452 C 0.07538 0.73885 0.85962 0.0
C3453 C 0.05891 0.73608 0.84883 0.0
C3454 C 0.09333 0.73751 0.85127 0.0
C3455 C 0.09503 0.73339 0.83205 0.0
C3456 C 0.07865 0.7299 0.82147 0.0
H3457 H 0.17222 0.73361 0.74225 0.0
H3458 H 0.14843 0.72347 0.76492 0.0
C3459 C 0.06078 0.73128 0.82974 0.0
C3460 C 0.11365 0.7341 0.82249 0.0
H3461 H 0.13721 0.75754 0.78826 0.0
C3462 C 0.12719 0.72026 0.82587 0.0
C3463 C 0.11757 0.748 0.80916 0.0
C3464 C 0.104 0.76373 0.80563 0.0
C3465 C 0.14423 0.71955 0.81555 0.0
C3466 C 0.14762 0.73294 0.80163 0.0
C3467 C 0.1344 0.74712 0.7988 0.0
C3468 C 0.16443 0.73261 0.78921 0.0
C3469 C 0.15824 0.70425 0.81903 0.0
C3470 C 0.18178 0.74005 0.79546 0.0
C3471 C 0.19552 0.74565 0.78245 0.0
C3472 C 0.19193 0.74388 0.76317 0.0
C3473 C 0.17542 0.73473 0.75707 0.0
C3474 C 0.1618 0.72903 0.77001 0.0
H3475 H 0.15311 0.69432 0.82974 0.0
H3476 H 0.16109 0.69646 0.80576 0.0
H3477 H 0.17186 0.71046 0.82383 0.0
H3478 H 0.18395 0.74318 0.8102 0.0
H3479 H 0.20796 0.75313 0.78741 0.0
H3480 H 0.98631 0.31875 0.60037 0.0
H3481 H 0.98385 0.34523 0.57946 0.0
H3482 H 0.98624 0.30807 0.53147 0.0
H3483 H 0.98877 0.28128 0.55238 0.0
H3484 H 0.01263 0.35334 0.54938 0.0
H3485 H 0.93844 0.34364 0.52429 0.0
H3486 H 0.94623 0.33405 0.54621 0.0
H3487 H 0.95419 0.32395 0.52448 0.0
C3488 C 0.98613 0.31612 0.58538 0.0
C3489 C 0.98774 0.29789 0.57804 0.0
C3490 C 0.98478 0.33129 0.57346 0.0
C3491 C 0.98488 0.32857 0.55397 0.0
C3492 C 0.98605 0.3104 0.5465 0.0
H3493 H -0.00376 0.43431 0.4917 0.0
H3494 H -0.00077 0.40059 0.49649 0.0
C3495 C 0.98748 0.29515 0.55846 0.0
C3496 C 0.98433 0.34505 0.54174 0.0
H3497 H 0.95389 0.37165 0.51666 0.0
C3498 C -3e-05 0.35721 0.54182 0.0
C3499 C 0.96777 0.34994 0.53197 0.0
C3500 C 0.9506 0.33731 0.53165 0.0
C3501 C -0.00089 0.37469 0.53329 0.0
C3502 C 0.98218 0.38005 0.52436 0.0
C3503 C 0.9669 0.36741 0.52337 0.0
C3504 C 0.97892 0.39971 0.51923 0.0
C3505 C 0.01582 0.38785 0.53508 0.0
C3506 C 0.96603 0.41016 0.5299 0.0
C3507 C 0.96447 0.4293 0.52739 0.0
C3508 C 0.97575 0.43852 0.51406 0.0
C3509 C 0.98776 0.42779 0.50244 0.0
C3510 C -0.01058 0.40851 0.5051 0.0
H3511 H 0.02716 0.38221 0.5441 0.0
H3512 H 0.0219 0.39041 0.52099 0.0
H3513 H 0.01122 0.40148 0.54106 0.0
H3514 H 0.95775 0.40364 0.54084 0.0
H3515 H 0.95482 0.43694 0.53644 0.0
H3516 H 0.45471 0.27207 0.30499 0.0
H3517 H 0.42311 0.26972 0.29136 0.0
H3518 H 0.40836 0.2268 0.33058 0.0
H3519 H 0.43989 0.2293 0.34462 0.0
H3520 H 0.40459 0.24049 0.27433 0.0
H3521 H 0.36552 0.2636 0.33791 0.0
H3522 H 0.39087 0.26608 0.3357 0.0
H3523 H 0.38056 0.24402 0.34202 0.0
C3524 C 0.44476 0.26213 0.31079 0.0
C3525 C 0.44983 0.25096 0.32603 0.0
C3526 C 0.42669 0.26081 0.30293 0.0
C3527 C 0.41326 0.24832 0.31013 0.0
C3528 C 0.41836 0.23686 0.32508 0.0
H3529 H 0.30242 0.20877 0.28552 0.0
H3530 H 0.33538 0.214 0.29406 0.0
C3531 C 0.43643 0.23823 0.33302 0.0
C3532 C 0.39396 0.24723 0.30193 0.0
H3533 H 0.34703 0.25014 0.31317 0.0
C3534 C 0.392 0.24279 0.28276 0.0
C3535 C 0.37755 0.25047 0.3129 0.0
C3536 C 0.37868 0.2565 0.33322 0.0
C3537 C 0.37404 0.24073 0.2745 0.0
C3538 C 0.3577 0.24323 0.28567 0.0
C3539 C 0.35965 0.24817 0.30467 0.0
C3540 C 0.33842 0.23941 0.27842 0.0
C3541 C 0.37253 0.23525 0.25407 0.0
C3542 C 0.32932 0.25183 0.26642 0.0
C3543 C 0.31029 0.2489 0.26146 0.0
C3544 C 0.30014 0.23357 0.26855 0.0
C3545 C 0.30969 0.22081 0.27991 0.0
C3546 C 0.32857 0.22374 0.28482 0.0
H3547 H 0.38658 0.2324 0.24765 0.0
H3548 H 0.36344 0.22263 0.25244 0.0
H3549 H 0.3657 0.24667 0.24628 0.0
H3550 H 0.3367 0.26409 0.26146 0.0
H3551 H 0.30334 0.25904 0.25277 0.0
H3552 H 0.43829 0.47044 0.27774 0.0
H3553 H 0.45163 0.47187 0.30927 0.0
H3554 H 0.40533 0.50653 0.32772 0.0
H3555 H 0.39168 0.505 0.29624 0.0
H3556 H 0.46338 0.50203 0.33145 0.0
H3557 H 0.40418 0.46383 0.36504 0.0
H3558 H 0.40732 0.46436 0.33994 0.0
H3559 H 0.39654 0.48371 0.35215 0.0
C3560 C 0.4309 0.4784 0.28847 0.0
C3561 C 0.41379 0.4875 0.28445 0.0
C3562 C 0.43859 0.4792 0.3065 0.0
C3563 C 0.42931 0.48902 0.32092 0.0
C3564 C 0.41251 0.49853 0.31688 0.0
H3565 H 0.44324 0.52347 0.43312 0.0
H3566 H 0.43644 0.51783 0.40023 0.0
C3567 C 0.40478 0.49773 0.29884 0.0
C3568 C 0.43716 0.48929 0.3402 0.0
H3569 H 0.42584 0.47962 0.38558 0.0
C3570 C 0.4553 0.49691 0.34327 0.0
C3571 C 0.4267 0.48236 0.35556 0.0
C3572 C 0.40769 0.47292 0.35303 0.0
C3573 C 0.4628 0.49868 0.36146 0.0
C3574 C 0.45192 0.49258 0.37684 0.0
C3575 C 0.43413 0.4843 0.3737 0.0
C3576 C 0.45764 0.49652 0.39646 0.0
C3577 C 0.48189 0.50781 0.36428 0.0
C3578 C 0.47211 0.48654 0.40521 0.0
C3579 C 0.47613 0.48971 0.42428 0.0
C3580 C 0.46563 0.50283 0.4348 0.0
C3581 C 0.45158 0.51313 0.42564 0.0
C3582 C 0.44761 0.50996 0.40676 0.0
H3583 H 0.4881 0.51282 0.35094 0.0
H3584 H 0.48063 0.51981 0.37423 0.0
H3585 H 0.49177 0.49768 0.37054 0.0
H3586 H 0.47995 0.47603 0.39745 0.0
H3587 H 0.48712 0.48163 0.43082 0.0
H3588 H 0.24837 0.65743 0.04472 0.0
H3589 H 0.24928 0.66985 0.07685 0.0
H3590 H 0.23676 0.61511 0.09803 0.0
H3591 H 0.23541 0.60268 0.06606 0.0
H3592 H 0.21389 0.64065 0.11327 0.0
H3593 H 0.2879 0.66588 0.11821 0.0
H3594 H 0.27598 0.6752 0.09831 0.0
H3595 H 0.27991 0.65046 0.09957 0.0
C3596 C 0.24609 0.64799 0.05623 0.0
C3597 C 0.24176 0.62908 0.0528 0.0
C3598 C 0.24672 0.65508 0.0746 0.0
C3599 C 0.24332 0.64335 0.08988 0.0
C3600 C 0.23947 0.6244 0.08648 0.0
H3601 H 0.25724 0.69442 0.20145 0.0
H3602 H 0.25852 0.67006 0.177 0.0
C3603 C 0.23871 0.61733 0.06817 0.0
C3604 C 0.24229 0.6511 0.10926 0.0
H3605 H 0.26606 0.67852 0.14096 0.0
C3606 C 0.22541 0.64869 0.11944 0.0
C3607 C 0.25744 0.66125 0.11751 0.0
C3608 C 0.2764 0.66318 0.10791 0.0
C3609 C 0.22291 0.65703 0.13718 0.0
C3610 C 0.23751 0.66839 0.14478 0.0
C3611 C 0.25478 0.66992 0.13508 0.0
C3612 C 0.23452 0.68046 0.16158 0.0
C3613 C 0.20452 0.65381 0.14748 0.0
C3614 C 0.22027 0.69399 0.16137 0.0
C3615 C 0.2194 0.7077 0.17541 0.0
C3616 C 0.23281 0.70821 0.18992 0.0
C3617 C 0.24639 0.69402 0.19078 0.0
C3618 C 0.24728 0.68027 0.17666 0.0
H3619 H 0.19815 0.6401 0.14351 0.0
H3620 H 0.20655 0.65435 0.16291 0.0
H3621 H 0.19429 0.66478 0.14363 0.0
H3622 H 0.21055 0.69472 0.1497 0.0
H3623 H 0.2089 0.71858 0.17432 0.0
H3624 H 0.09694 0.47937 0.79727 0.0
H3625 H 0.08439 0.47656 0.82905 0.0
H3626 H 0.03294 0.50366 0.8123 0.0
H3627 H 0.04522 0.5063 0.78039 0.0
H3628 H 0.07387 0.50587 0.85267 0.0
H3629 H 0.01311 0.45775 0.83973 0.0
H3630 H 0.03189 0.46101 0.82285 0.0
H3631 H 0.01357 0.47813 0.8254 0.0
C3632 C 0.08287 0.48458 0.80027 0.0
C3633 C 0.07208 0.49304 0.78625 0.0
C3634 C 0.07573 0.48297 0.81845 0.0
C3635 C 0.05765 0.48969 0.82297 0.0
C3636 C 0.04677 0.49803 0.80902 0.0
H3637 H -0.0002 0.49911 0.9314 0.0
H3638 H 0.00757 0.50066 0.89793 0.0
C3639 C 0.05388 0.49962 0.7908 0.0
C3640 C 0.0507 0.48887 0.84255 0.0
H3641 H 0.01596 0.47067 0.8704 0.0
C3642 C 0.06122 0.49815 0.85654 0.0
C3643 C 0.0341 0.47892 0.84753 0.0
C3644 C 0.02256 0.46824 0.83314 0.0
C3645 C 0.05566 0.4977 0.8754 0.0
C3646 C 0.03928 0.48747 0.88043 0.0
C3647 C 0.02851 0.47848 0.86644 0.0
C3648 C 0.03372 0.48535 0.90028 0.0
C3649 C 0.0673 0.50826 0.88981 0.0
C3650 C 0.04559 0.47578 0.91249 0.0
C3651 C 0.04123 0.47483 0.93152 0.0
C3652 C 0.02483 0.4834 0.93875 0.0
C3653 C 0.01254 0.49236 0.92632 0.0
C3654 C 0.01695 0.49329 0.90721 0.0
H3655 H 0.07645 0.51903 0.88327 0.0
H3656 H 0.05806 0.51513 0.90042 0.0
H3657 H 0.07661 0.49835 0.89716 0.0
H3658 H 0.05844 0.4693 0.90732 0.0
H3659 H 0.05095 0.46766 0.9406 0.0
H3660 H 0.24809 0.35718 0.57193 0.0
H3661 H 0.24643 0.34106 0.60177 0.0
H3662 H 0.21638 0.29535 0.57511 0.0
H3663 H 0.21839 0.31126 0.54498 0.0
H3664 H 0.21517 0.33015 0.62206 0.0
H3665 H 0.25867 0.26862 0.60174 0.0
H3666 H 0.25763 0.28922 0.5876 0.0
H3667 H 0.23841 0.27267 0.58725 0.0
C3668 C 0.24128 0.34361 0.57234 0.0
C3669 C 0.2335 0.33544 0.55603 0.0
C3670 C 0.24025 0.33446 0.58945 0.0
C3671 C 0.2314 0.31694 0.59069 0.0
C3672 C 0.22357 0.30871 0.57444 0.0
H3673 H 0.2371 0.24591 0.68942 0.0
H3674 H 0.22277 0.25925 0.66133 0.0
C3675 C 0.22472 0.31782 0.55723 0.0
C3676 C 0.23052 0.30749 0.60907 0.0
H3677 H 0.24709 0.26985 0.63256 0.0
C3678 C 0.22198 0.31687 0.62431 0.0
C3679 C 0.23925 0.29007 0.612 0.0
C3680 C 0.24915 0.27957 0.59636 0.0
C3681 C 0.22256 0.30963 0.64249 0.0
C3682 C 0.23206 0.29268 0.64554 0.0
C3683 C 0.23972 0.28282 0.63017 0.0
C3684 C 0.23661 0.28613 0.66463 0.0
C3685 C 0.21333 0.32037 0.65835 0.0
C3686 C 0.24857 0.29701 0.67615 0.0
C3687 C 0.25667 0.28942 0.69211 0.0
C3688 C 0.25278 0.27092 0.69696 0.0
C3689 C 0.23982 0.26041 0.68623 0.0
C3690 C 0.23181 0.26795 0.67011 0.0
H3691 H 0.20168 0.32926 0.65319 0.0
H3692 H 0.20759 0.31084 0.66913 0.0
H3693 H 0.22403 0.32965 0.66512 0.0
H3694 H 0.25284 0.31089 0.672 0.0
H3695 H 0.26702 0.29757 0.69995 0.0
H3696 H 0.41746 0.50639 0.18532 0.0
H3697 H 0.42886 0.51248 0.15368 0.0
H3698 H 0.37187 0.50724 0.13254 0.0
H3699 H 0.36036 0.50075 0.16422 0.0
H3700 H 0.39626 0.48664 0.11255 0.0
H3701 H 0.42638 0.55751 0.12063 0.0
H3702 H 0.43552 0.5422 0.138 0.0
H3703 H 0.41062 0.54752 0.1378 0.0
C3704 C 0.4073 0.50668 0.17398 0.0
C3705 C 0.388 0.50303 0.17728 0.0
C3706 C 0.41382 0.5104 0.15591 0.0
C3707 C 0.40117 0.51078 0.14077 0.0
C3708 C 0.38186 0.50725 0.14404 0.0
H3709 H 0.43796 0.49722 0.02385 0.0
H3710 H 0.41793 0.51095 0.04858 0.0
C3711 C 0.37532 0.50346 0.16213 0.0
C3712 C 0.4085 0.51288 0.12138 0.0
H3713 H 0.43896 0.53874 0.09486 0.0
C3714 C 0.40519 0.49827 0.10848 0.0
C3715 C 0.42009 0.5281 0.11607 0.0
C3716 C 0.42319 0.54481 0.12882 0.0
C3717 C 0.41432 0.49772 0.09101 0.0
C3718 C 0.42686 0.51239 0.08614 0.0
C3719 C 0.4293 0.52756 0.09858 0.0
C3720 C 0.43976 0.51045 0.06981 0.0
C3721 C 0.41154 0.48073 0.0785 0.0
C3722 C 0.45902 0.5072 0.07315 0.0
C3723 C 0.47042 0.4996 0.05904 0.0
C3724 C 0.4628 0.49542 0.04133 0.0
C3725 C 0.44419 0.50071 0.0373 0.0
C3726 C 0.43271 0.50832 0.05149 0.0
H3727 H 0.40345 0.46949 0.08556 0.0
H3728 H 0.40361 0.4847 0.06579 0.0
H3729 H 0.42543 0.47503 0.07396 0.0
H3730 H 0.46476 0.50877 0.08716 0.0
H3731 H 0.48468 0.49536 0.06247 0.0
H3732 H 0.24851 0.63785 0.91924 0.0
H3733 H 0.25098 0.65767 0.89196 0.0
H3734 H 0.25326 0.70651 0.92793 0.0
H3735 H 0.25038 0.68662 0.95557 0.0
H3736 H 0.22877 0.71058 0.89773 0.0
H3737 H 0.29799 0.68425 0.87315 0.0
H3738 H 0.28145 0.66555 0.87675 0.0
H3739 H 0.28903 0.67981 0.89638 0.0
C3740 C 0.24969 0.65279 0.92144 0.0
C3741 C 0.24939 0.66064 0.93962 0.0
C3742 C 0.25118 0.66412 0.90579 0.0
C3743 C 0.25264 0.68356 0.90789 0.0
C3744 C 0.25227 0.69152 0.926 0.0
H3745 H 0.28261 0.73776 0.80367 0.0
H3746 H 0.28145 0.73186 0.83735 0.0
C3747 C 0.25072 0.68015 0.94176 0.0
C3748 C 0.25411 0.69531 0.89099 0.0
H3749 H 0.27876 0.69913 0.85011 0.0
C3750 C 0.23987 0.70836 0.88742 0.0
C3751 C 0.26879 0.69269 0.87771 0.0
C3752 C 0.28529 0.67996 0.88128 0.0
C3753 C 0.23936 0.7181 0.87045 0.0
C3754 C 0.25323 0.71434 0.85654 0.0
C3755 C 0.26799 0.70199 0.8606 0.0
C3756 C 0.25237 0.72203 0.83728 0.0
C3757 C 0.22395 0.73223 0.86765 0.0
C3758 C 0.23618 0.71928 0.82607 0.0
C3759 C 0.23671 0.72318 0.8069 0.0
C3760 C 0.25354 0.7295 0.7986 0.0
C3761 C 0.26942 0.7331 0.80988 0.0
C3762 C 0.26877 0.72962 0.82908 0.0
H3763 H 0.21934 0.73846 0.88125 0.0
H3764 H 0.22866 0.74362 0.85831 0.0
H3765 H 0.21145 0.72519 0.86125 0.0
H3766 H 0.22352 0.71293 0.83181 0.0
H3767 H 0.22448 0.71983 0.79833 0.0
H3768 H 0.07645 0.47417 0.68312 0.0
H3769 H 0.06624 0.47673 0.65056 0.0
H3770 H 0.11992 0.50174 0.6361 0.0
H3771 H 0.1303 0.49922 0.66866 0.0
H3772 H 0.08783 0.52242 0.62539 0.0
H3773 H 0.08215 0.44863 0.60199 0.0
H3774 H 0.07095 0.45292 0.62426 0.0
H3775 H 0.09616 0.45598 0.62199 0.0
C3776 C 0.08619 0.47995 0.67296 0.0
C3777 C 0.10414 0.48655 0.67845 0.0
C3778 C 0.08039 0.48129 0.65435 0.0
C3779 C 0.09244 0.48921 0.64093 0.0
C3780 C 0.11052 0.49544 0.64625 0.0
H3781 H 0.04101 0.49209 0.52911 0.0
H3782 H 0.067 0.49101 0.55175 0.0
C3783 C 0.11639 0.494 0.66485 0.0
C3784 C 0.08528 0.4926 0.62187 0.0
H3785 H 0.06329 0.47073 0.58511 0.0
C3786 C 0.08285 0.51113 0.61635 0.0
C3787 C 0.07911 0.47785 0.60998 0.0
C3788 C 0.08239 0.45772 0.61475 0.0
C3789 C 0.07298 0.5153 0.59994 0.0
C3790 C 0.06527 0.50056 0.58896 0.0
C3791 C 0.06909 0.48203 0.59366 0.0
C3792 C 0.05102 0.50392 0.57432 0.0
C3793 C 0.0702 0.53544 0.59488 0.0
C3794 C 0.03359 0.51174 0.57949 0.0
C3795 C 0.01873 0.51222 0.5667 0.0
C3796 C 0.02106 0.5049 0.54848 0.0
C3797 C 0.03885 0.49796 0.543 0.0
C3798 C 0.05369 0.49729 0.55591 0.0
H3799 H 0.08176 0.5444 0.60064 0.0
H3800 H 0.06962 0.53713 0.57945 0.0
H3801 H 0.05665 0.54042 0.60099 0.0
H3802 H 0.03113 0.5166 0.59373 0.0
H3803 H 0.00521 0.51768 0.57131 0.0
H3804 H 0.20488 0.36637 0.4282 0.0
H3805 H 0.20413 0.34903 0.39852 0.0
H3806 H 0.2494 0.31405 0.41774 0.0
H3807 H 0.24939 0.33075 0.44798 0.0
H3808 H 0.2281 0.34541 0.37192 0.0
H3809 H 0.21467 0.27473 0.39912 0.0
H3810 H 0.21346 0.29526 0.41393 0.0
H3811 H 0.23597 0.28467 0.40864 0.0
C3812 C 0.21454 0.35483 0.42618 0.0
C3813 C 0.22709 0.34981 0.44048 0.0
C3814 C 0.21415 0.34495 0.40915 0.0
C3815 C 0.2265 0.32997 0.40586 0.0
C3816 C 0.23928 0.32512 0.42006 0.0
H3817 H 0.25203 0.28573 0.29367 0.0
H3818 H 0.25019 0.30547 0.3219 0.0
C3819 C 0.23936 0.33474 0.43732 0.0
C3820 C 0.22619 0.31988 0.3874 0.0
H3821 H 0.22381 0.27652 0.3671 0.0
C3822 C 0.227 0.33034 0.37088 0.0
C3823 C 0.22445 0.30023 0.3859 0.0
C3824 C 0.22188 0.2881 0.40285 0.0
C3825 C 0.22621 0.32176 0.35303 0.0
C3826 C 0.22538 0.30205 0.35156 0.0
C3827 C 0.22453 0.29162 0.36809 0.0
C3828 C 0.22528 0.29176 0.33319 0.0
C3829 C 0.22571 0.33402 0.33604 0.0
C3830 C 0.21197 0.2774 0.32996 0.0
C3831 C 0.21339 0.26579 0.31411 0.0
C3832 C 0.22784 0.26857 0.30089 0.0
C3833 C 0.24047 0.2836 0.30344 0.0
C3834 C 0.23939 0.29491 0.3196 0.0
H3835 H 0.2198 0.34796 0.33955 0.0
H3836 H 0.24037 0.33618 0.33082 0.0
H3837 H 0.21711 0.32763 0.3246 0.0
H3838 H 0.2009 0.27466 0.3401 0.0
H3839 H 0.20358 0.25419 0.31252 0.0
H3840 H 0.2971 0.37744 0.51314 0.0
H3841 H 0.33077 0.38536 0.51649 0.0
H3842 H 0.32163 0.43688 0.48758 0.0
H3843 H 0.2882 0.42899 0.48389 0.0
H3844 H 0.35333 0.41816 0.47488 0.0
H3845 H 0.35337 0.42413 0.55272 0.0
H3846 H 0.34515 0.4023 0.54293 0.0
H3847 H 0.33177 0.42313 0.53928 0.0
C3848 C 0.30225 0.39048 0.50752 0.0
C3849 C 0.28987 0.40261 0.4983 0.0
C3850 C 0.32151 0.39502 0.50952 0.0
C3851 C 0.32872 0.41183 0.50248 0.0
C3852 C 0.31642 0.42384 0.49314 0.0
H3853 H 0.41561 0.48804 0.52299 0.0
H3854 H 0.38911 0.46624 0.52414 0.0
C3855 C 0.29725 0.41931 0.49109 0.0
C3856 C 0.349 0.41719 0.50469 0.0
H3857 H 0.38182 0.43122 0.53719 0.0
C3858 C 0.35969 0.42076 0.4885 0.0
C3859 C 0.35725 0.42059 0.52249 0.0
C3860 C 0.34632 0.41749 0.54039 0.0
C3861 C 0.37801 0.4285 0.48956 0.0
C3862 C 0.38605 0.43245 0.50736 0.0
C3863 C 0.37571 0.42802 0.52357 0.0
C3864 C 0.4036 0.44394 0.50937 0.0
C3865 C 0.38805 0.43349 0.4716 0.0
C3866 C 0.42101 0.43837 0.5015 0.0
C3867 C 0.43634 0.45094 0.50078 0.0
C3868 C 0.43442 0.46924 0.50793 0.0
C3869 C 0.4175 0.47413 0.51716 0.0
C3870 C 0.40231 0.46164 0.51788 0.0
H3871 H 0.37859 0.43231 0.45922 0.0
H3872 H 0.39373 0.44796 0.47245 0.0
H3873 H 0.40014 0.42391 0.46931 0.0
H3874 H 0.42248 0.42462 0.49519 0.0
H3875 H 0.44918 0.44674 0.49358 0.0
H3876 H 0.77778 0.04148 0.50575 0.0
H3877 H 0.80868 0.02642 0.50628 0.0
H3878 H 0.8346 0.07593 0.48385 0.0
H3879 H 0.80376 0.09127 0.48347 0.0
H3880 H 0.83353 0.01862 0.47742 0.0
H3881 H 0.86689 0.06585 0.53007 0.0
H3882 H 0.84165 0.06524 0.52606 0.0
H3883 H 0.85699 0.07806 0.51066 0.0
C3884 C 0.79003 0.04922 0.50092 0.0
C3885 C 0.78827 0.06766 0.49465 0.0
C3886 C 0.80769 0.04056 0.50126 0.0
C3887 C 0.82398 0.05016 0.49544 0.0
C3888 C 0.82226 0.06841 0.48882 0.0
H3889 H 0.93083 0.01832 0.45459 0.0
H3890 H 0.89718 0.02333 0.46016 0.0
C3891 C 0.80459 0.07711 0.48847 0.0
C3892 C 0.84272 0.04093 0.49587 0.0
H3893 H 0.88783 0.04627 0.51226 0.0
C3894 C 0.84535 0.02453 0.48522 0.0
C3895 C 0.85802 0.04839 0.50641 0.0
C3896 C 0.85574 0.06525 0.51911 0.0
C3897 C 0.86316 0.01599 0.48397 0.0
C3898 C 0.87876 0.02422 0.49342 0.0
C3899 C 0.87588 0.04002 0.50492 0.0
C3900 C 0.89849 0.01807 0.48992 0.0
C3901 C 0.86516 -0.00161 0.4723 0.0
C3902 C 0.91046 0.01327 0.50478 0.0
C3903 C 0.92982 0.01034 0.50158 0.0
C3904 C 0.93747 0.01248 0.48354 0.0
C3905 C 0.92529 0.01649 0.46862 0.0
C3906 C 0.90601 0.01925 0.47177 0.0
H3907 H 0.85155 -0.00944 0.4715 0.0
H3908 H 0.8693 0.00212 0.45781 0.0
H3909 H 0.87618 0.98913 0.47807 0.0
H3910 H 0.90497 0.0125 0.51894 0.0
H3911 H 0.93897 0.00769 0.51335 0.0
H3912 H 0.61165 0.06862 0.21513 0.0
H3913 H 0.62797 0.09865 0.21473 0.0
H3914 H 0.66755 0.07923 0.25592 0.0
H3915 H 0.65166 0.04875 0.25589 0.0
H3916 H 0.63443 0.12502 0.24054 0.0
H3917 H 0.70284 0.09636 0.21547 0.0
H3918 H 0.68147 0.0825 0.21616 0.0
H3919 H 0.69516 0.08641 0.23713 0.0
C3920 C 0.62382 0.0707 0.22414 0.0
C3921 C 0.63048 0.05622 0.23542 0.0
C3922 C 0.63311 0.08791 0.22391 0.0
C3923 C 0.64918 0.09109 0.23503 0.0
C3924 C 0.65548 0.07691 0.24684 0.0
H3925 H 0.70278 0.19782 0.25907 0.0
H3926 H 0.68053 0.17155 0.25836 0.0
C3927 C 0.64634 0.05954 0.24688 0.0
C3928 C 0.65945 0.10915 0.23391 0.0
H3929 H 0.70278 0.12821 0.22483 0.0
C3930 C 0.64937 0.12575 0.23702 0.0
C3931 C 0.67883 0.1101 0.22894 0.0
C3932 C 0.69017 0.09291 0.22404 0.0
C3933 C 0.65821 0.14328 0.23552 0.0
C3934 C 0.67778 0.14417 0.2313 0.0
C3935 C 0.68778 0.12755 0.22807 0.0
C3936 C 0.68849 0.16202 0.23047 0.0
C3937 C 0.64639 0.16059 0.23807 0.0
C3938 C 0.70023 0.16561 0.21499 0.0
C3939 C 0.71315 0.18041 0.21557 0.0
C3940 C 0.71425 0.1921 0.23145 0.0
C3941 C 0.70169 0.18933 0.24643 0.0
C3942 C 0.68901 0.17428 0.24603 0.0
H3943 H 0.63125 0.15775 0.23486 0.0
H3944 H 0.64725 0.16541 0.2529 0.0
H3945 H 0.65149 0.17203 0.229 0.0
H3946 H 0.7001 0.15636 0.20285 0.0
H3947 H 0.72291 0.1822 0.20398 0.0
H3948 H 0.6605 0.87477 -0.00153 0.0
H3949 H 0.63066 0.89176 0.00136 0.0
H3950 H 0.66092 0.94007 0.02248 0.0
H3951 H 0.69088 0.92334 0.01922 0.0
H3952 H 0.61176 0.90988 0.03125 0.0
H3953 H 0.63411 0.95957 0.97631 0.0
H3954 H 0.64679 0.93836 0.98073 0.0
H3955 H 0.65003 0.95844 -0.00418 0.0
C3956 C 0.66081 0.889 0.0038 0.0
C3957 C 0.67809 0.89782 0.00835 0.0
C3958 C 0.64373 0.89864 0.00553 0.0
C3959 C 0.6436 0.91726 0.01188 0.0
C3960 C 0.66074 0.92582 0.01722 0.0
H3961 H 0.55894 0.00256 0.00537 0.0
H3962 H 0.58433 0.98389 0.01859 0.0
C3963 C 0.67784 0.91624 0.01536 0.0
C3964 C 0.62574 0.92805 0.01172 0.0
H3965 H 0.60497 0.96534 -0.00878 0.0
C3966 C 0.61025 0.92206 0.02257 0.0
C3967 C 0.62377 0.94384 0.00026 0.0
C3968 C 0.63947 0.95037 0.98748 0.0
C3969 C 0.59289 0.93161 0.02236 0.0
C3970 C 0.591 0.94738 0.0109 0.0
C3971 C 0.60653 0.95338 0.0002 0.0
C3972 C 0.57291 0.95748 0.00866 0.0
C3973 C 0.57676 0.92489 0.03444 0.0
C3974 C 0.55746 0.94871 -0.00033 0.0
C3975 C 0.54274 0.95941 -0.00759 0.0
C3976 C 0.54339 0.97891 -0.00597 0.0
C3977 C 0.55796 0.98749 0.00439 0.0
C3978 C 0.57252 0.97684 0.01181 0.0
H3979 H 0.58178 0.91572 0.04578 0.0
H3980 H 0.56903 0.93686 0.04082 0.0
H3981 H 0.56663 0.91678 0.02563 0.0
H3982 H 0.55763 0.93385 -0.00325 0.0
H3983 H 0.53188 0.9526 0.98401 0.0
H3984 H 0.32379 0.44682 0.25443 0.0
H3985 H 0.30647 0.41811 0.26219 0.0
H3986 H 0.35 0.38534 0.23531 0.0
H3987 H 0.36739 0.41366 0.22774 0.0
H3988 H 0.29206 0.39102 0.23865 0.0
H3989 H 0.34499 0.35933 0.28508 0.0
H3990 H 0.34609 0.38355 0.27855 0.0
H3991 H 0.35507 0.36568 0.26297 0.0
C3992 C 0.32969 0.43349 0.25022 0.0
C3993 C 0.34706 0.43262 0.24051 0.0
C3994 C 0.31981 0.41709 0.25473 0.0
C3995 C 0.32716 0.39951 0.24977 0.0
C3996 C 0.3443 0.39866 0.23982 0.0
H3997 H 0.29493 0.28891 0.22856 0.0
H3998 H 0.31211 0.31699 0.23869 0.0
C3999 C 0.35415 0.41496 0.23532 0.0
C4000 C 0.31652 0.382 0.25383 0.0
H4001 H 0.32172 0.33827 0.2716 0.0
C4002 C 0.29836 0.37963 0.24622 0.0
C4003 C 0.32473 0.3671 0.26373 0.0
C4004 C 0.34372 0.3691 0.27321 0.0
C4005 C 0.2887 0.36245 0.24716 0.0
C4006 C 0.29729 0.34727 0.25631 0.0
C4007 C 0.31511 0.34989 0.26465 0.0
C4008 C 0.28895 0.32815 0.2552 0.0
C4009 C 0.26988 0.36038 0.23731 0.0
C4010 C 0.2708 0.32433 0.26237 0.0
C4011 C 0.26103 0.30811 0.25672 0.0
C4012 C 0.26939 0.29547 0.244 0.0
C4013 C 0.28834 0.29824 0.2387 0.0
C4014 C 0.29809 0.31441 0.24433 0.0
H4015 H 0.26682 0.37241 0.2282 0.0
H4016 H 0.26954 0.34744 0.22857 0.0
H4017 H 0.25841 0.35941 0.24791 0.0
H4018 H 0.26359 0.33459 0.27104 0.0
H4019 H 0.24629 0.30648 0.26066 0.0
H4020 H 0.17078 0.6343 0.00347 0.0
H4021 H 0.13834 0.6235 0.0093 0.0
H4022 H 0.14883 0.57423 0.97556 0.0
H4023 H 0.18137 0.58464 0.97007 0.0
H4024 H 0.1074 0.61318 0.98673 0.0
H4025 H 0.13452 0.55349 0.0267 0.0
H4026 H 0.14943 0.5728 0.01995 0.0
H4027 H 0.14419 0.55424 0.00345 0.0
C4028 C 0.16611 0.62126 -0.00285 0.0
C4029 C 0.17869 0.61016 0.98656 0.0
C4030 C 0.14757 0.61514 0.00046 0.0
C4031 C 0.14137 0.5979 -0.00682 0.0
C4032 C 0.15353 0.58738 0.98165 0.0
H4033 H 0.03727 0.54257 0.97663 0.0
H4034 H 0.06154 0.56691 0.977 0.0
C4035 C 0.17207 0.59338 0.97848 0.0
C4036 C 0.12265 0.59024 -0.00151 0.0
H4037 H 0.10219 0.55169 0.01723 0.0
C4038 C 0.10617 0.59985 -0.00638 0.0
C4039 C 0.12111 0.57317 0.00802 0.0
C4040 C 0.13826 0.56293 0.01502 0.0
C4041 C 0.08812 0.59223 -0.00293 0.0
C4042 C 0.08665 0.57438 0.0052 0.0
C4043 C 0.10319 0.56534 0.01094 0.0
C4044 C 0.06856 0.56379 0.00635 0.0
C4045 C 0.0709 0.60333 -0.00813 0.0
C4046 C 0.06396 0.55418 0.0228 0.0
C4047 C 0.05043 0.53991 0.02241 0.0
C4048 C 0.04092 0.53542 0.00572 0.0
C4049 C 0.04411 0.54618 -0.01023 0.0
C4050 C 0.05798 0.56016 -0.00998 0.0
H4051 H 0.07379 0.61854 -0.0068 0.0
H4052 H 0.06724 0.60031 0.97701 0.0
H4053 H 0.05851 0.59981 0.00078 0.0
H4054 H 0.07191 0.55672 0.03557 0.0
H4055 H 0.04827 0.53159 0.0348 0.0
H4056 H 0.68012 0.95747 0.25682 0.0
H4057 H 0.69887 0.92899 0.26031 0.0
H4058 H 0.65013 0.89569 0.24464 0.0
H4059 H 0.63131 0.92375 0.24194 0.0
H4060 H 0.66665 0.88151 0.2737 0.0
H4061 H 0.72146 0.89638 0.2199 0.0
H4062 H 0.71994 0.91354 0.23842 0.0
H4063 H 0.7004 0.91027 0.22257 0.0
C4064 C 0.67346 0.94404 0.25419 0.0
C4065 C 0.65424 0.94285 0.24915 0.0
C4066 C 0.68422 0.92779 0.25601 0.0
C4067 C 0.67601 0.91018 0.25243 0.0
C4068 C 0.65681 0.90908 0.24748 0.0
H4069 H 0.71992 0.8023 0.224 0.0
H4070 H 0.71114 0.83539 0.22477 0.0
C4071 C 0.64604 0.92518 0.24596 0.0
C4072 C 0.68692 0.89265 0.25421 0.0
H4073 H 0.72455 0.8683 0.23648 0.0
C4074 C 0.67937 0.87867 0.26563 0.0
C4075 C 0.70343 0.88888 0.24353 0.0
C4076 C 0.71173 0.90297 0.23028 0.0
C4077 C 0.68735 0.86085 0.26617 0.0
C4078 C 0.70401 0.8571 0.25568 0.0
C4079 C 0.71191 0.87124 0.24465 0.0
C4080 C 0.7125 0.83819 0.25502 0.0
C4081 C 0.67713 0.846 0.27718 0.0
C4082 C 0.71711 0.82903 0.27164 0.0
C4083 C 0.72157 0.81009 0.27122 0.0
C4084 C 0.7223 0.80024 0.25411 0.0
C4085 C 0.71949 0.80974 0.23733 0.0
C4086 C 0.71448 0.8286 0.23779 0.0
H4087 H 0.6621 0.8497 0.27986 0.0
H4088 H 0.67743 0.83232 0.26969 0.0
H4089 H 0.68411 0.84447 0.29098 0.0
H4090 H 0.71634 0.83628 0.28504 0.0
H4091 H 0.72381 0.80296 0.28431 0.0
H4092 H 0.86304 0.0637 0.74846 0.0
H4093 H 0.84756 0.09395 0.74588 0.0
H4094 H 0.79805 0.06689 0.72255 0.0
H4095 H 0.81331 0.03649 0.72549 0.0
H4096 H 0.83434 0.11208 0.71487 0.0
H4097 H 0.7754 0.09818 0.7645 0.0
H4098 H 0.79581 0.08327 0.76261 0.0
H4099 H 0.77712 0.08148 0.74559 0.0
C4100 C 0.84878 0.06414 0.74296 0.0
C4101 C 0.83934 0.04764 0.73736 0.0
C4102 C 0.83998 0.08148 0.74139 0.0
C4103 C 0.82156 0.08273 0.73419 0.0
C4104 C 0.81213 0.06628 0.72849 0.0
H4105 H 0.74489 0.17661 0.73109 0.0
H4106 H 0.76104 0.14828 0.7204 0.0
C4107 C 0.82087 0.0489 0.73017 0.0
C4108 C 0.81232 0.10126 0.73271 0.0
H4109 H 0.77449 0.12654 0.74834 0.0
C4110 C 0.82121 0.11524 0.72213 0.0
C4111 C 0.79519 0.10541 0.74218 0.0
C4112 C 0.78538 0.09138 0.75451 0.0
C4113 C 0.81345 0.13321 0.72082 0.0
C4114 C 0.79645 0.13738 0.73046 0.0
C4115 C 0.78741 0.1233 0.74075 0.0
C4116 C 0.78838 0.1565 0.73152 0.0
C4117 C 0.82348 0.14755 0.70909 0.0
C4118 C 0.7986 0.17106 0.74031 0.0
C4119 C 0.7894 0.18743 0.74608 0.0
C4120 C 0.76989 0.18949 0.74313 0.0
C4121 C 0.76009 0.17567 0.73287 0.0
C4122 C 0.76926 0.15935 0.72703 0.0
H4123 H 0.8326 0.14087 0.69823 0.0
H4124 H 0.81322 0.1568 0.70209 0.0
H4125 H 0.83269 0.15631 0.71827 0.0
H4126 H 0.81322 0.1691 0.74432 0.0
H4127 H 0.79709 0.19755 0.75461 0.0
loop_
_geom_bond_atom_site_label_1
_geom_bond_atom_site_label_2
_geom_bond_distance
_geom_bond_site_symmetry_2
_ccdc_geom_bond_type
C0 O1 1.306 . S
C0 O3 1.160 . S
O1 C0 1.306 . S
O1 Cd2 2.228 1_655 S
Cd2 O1 2.228 1_455 S
Cd2 O6 2.273 . S
Cd2 O10 2.277 . S
O3 C0 1.160 . S
O3 Cd4 2.203 1_655 S
Cd4 O3 2.203 1_455 S
Cd4 O6 2.411 . S
Cd4 O7 2.333 . S
Cd4 O8 2.352 . S
Cd4 O12 2.277 . S
Cd4 O13 2.356 . S
C5 O10 1.209 . S
C5 O12 1.226 . S
O6 Cd2 2.273 . S
O6 Cd4 2.411 . S
O6 C9 1.320 . S
O7 Cd4 2.333 . S
O7 C9 1.214 . S
O8 Cd4 2.352 . S
O8 C11 1.258 . S
C9 O6 1.320 . S
C9 O7 1.214 . S
O10 Cd2 2.277 . S
O10 C5 1.209 . S
C11 O8 1.258 . S
C11 O13 1.282 . S
O12 Cd4 2.277 . S
O12 C5 1.226 . S
O13 Cd4 2.356 . S
O13 C11 1.282 . S
C14 O15 1.306 . S
C14 O17 1.160 . S
O15 C14 1.306 . S
O15 Cd16 2.228 1_655 S
Cd16 O15 2.228 1_455 S
Cd16 O20 2.273 . S
Cd16 O24 2.277 . S
O17 C14 1.160 . S
O17 Cd18 2.203 1_655 S
Cd18 O17 2.203 1_455 S
Cd18 O20 2.411 . S
Cd18 O21 2.333 . S
Cd18 O22 2.352 . S
Cd18 O26 2.277 . S
Cd18 O27 2.356 . S
C19 O24 1.209 . S
C19 O26 1.226 . S
O20 Cd16 2.273 . S
O20 Cd18 2.411 . S
O20 C23 1.320 . S
O21 Cd18 2.333 . S
O21 C23 1.214 . S
O22 Cd18 2.352 . S
O22 C25 1.258 . S
C23 O20 1.320 . S
C23 O21 1.214 . S
O24 Cd16 2.277 . S
O24 C19 1.209 . S
C25 O22 1.258 . S
C25 O27 1.282 . S
O26 Cd18 2.277 . S
O26 C19 1.226 . S
O27 Cd18 2.356 . S
O27 C25 1.282 . S
C28 O29 1.306 . S
C28 O31 1.160 . S
O29 C28 1.306 . S
O29 Cd30 2.228 . S
Cd30 O29 2.228 . S
Cd30 O34 2.273 . S
Cd30 O38 2.277 . S
O31 C28 1.160 . S
O31 Cd32 2.203 . S
Cd32 O31 2.203 . S
Cd32 O34 2.411 . S
Cd32 O35 2.333 . S
Cd32 O36 2.352 . S
Cd32 O40 2.277 . S
Cd32 O41 2.356 . S
C33 O38 1.209 . S
C33 O40 1.226 . S
O34 Cd30 2.273 . S
O34 Cd32 2.411 . S
O34 C37 1.320 . S
O35 Cd32 2.333 . S
O35 C37 1.214 . S
O36 Cd32 2.352 . S
O36 C39 1.258 . S
C37 O34 1.320 . S
C37 O35 1.214 . S
O38 Cd30 2.277 . S
O38 C33 1.209 . S
C39 O36 1.258 . S
C39 O41 1.282 . S
O40 Cd32 2.277 . S
O40 C33 1.226 . S
O41 Cd32 2.356 . S
O41 C39 1.282 . S
C42 O43 1.306 . S
C42 O45 1.160 . S
O43 C42 1.306 . S
O43 Cd44 2.228 . S
Cd44 O43 2.228 . S
Cd44 O48 2.273 . S
Cd44 O52 2.277 . S
O45 C42 1.160 . S
O45 Cd46 2.203 . S
Cd46 O45 2.203 . S
Cd46 O48 2.411 . S
Cd46 O49 2.333 . S
Cd46 O50 2.352 . S
Cd46 O54 2.277 . S
Cd46 O55 2.356 . S
C47 O52 1.209 . S
C47 O54 1.226 . S
O48 Cd44 2.273 . S
O48 Cd46 2.411 . S
O48 C51 1.320 . S
O49 Cd46 2.333 . S
O49 C51 1.214 . S
O50 Cd46 2.352 . S
O50 C53 1.258 . S
C51 O48 1.320 . S
C51 O49 1.214 . S
O52 Cd44 2.277 . S
O52 C47 1.209 . S
C53 O50 1.258 . S
C53 O55 1.282 . S
O54 Cd46 2.277 . S
O54 C47 1.226 . S
O55 Cd46 2.356 . S
O55 C53 1.282 . S
C56 O57 1.306 . S
C56 O59 1.158 1_545 S
O57 C56 1.306 . S
O57 Cd58 2.228 . S
Cd58 O57 2.228 . S
Cd58 O62 2.273 . S
Cd58 O66 2.277 . S
O59 C56 1.158 1_565 S
O59 Cd60 2.203 . S
Cd60 O59 2.203 . S
Cd60 O62 2.411 1_565 S
Cd60 O63 2.333 . S
Cd60 O64 2.352 . S
Cd60 O68 2.277 1_565 S
Cd60 O69 2.356 . S
C61 O66 1.209 . S
C61 O68 1.226 . S
O62 Cd58 2.273 . S
O62 Cd60 2.411 1_545 S
O62 C65 1.320 . S
O63 Cd60 2.333 . S
O63 C65 1.214 1_565 S
O64 Cd60 2.352 . S
O64 C67 1.258 . S
C65 O62 1.320 . S
C65 O63 1.214 1_545 S
O66 Cd58 2.277 . S
O66 C61 1.209 . S
C67 O64 1.258 . S
C67 O69 1.282 . S
O68 Cd60 2.277 1_545 S
O68 C61 1.226 . S
O69 Cd60 2.356 . S
O69 C67 1.282 . S
C70 O71 1.306 . S
C70 O73 1.160 . S
O71 C70 1.306 . S
O71 Cd72 2.228 . S
Cd72 O71 2.228 . S
Cd72 O76 2.273 . S
Cd72 O80 2.277 . S
O73 C70 1.160 . S
O73 Cd74 2.203 . S
Cd74 O73 2.203 . S
Cd74 O76 2.411 . S
Cd74 O77 2.333 . S
Cd74 O78 2.352 . S
Cd74 O82 2.277 . S
Cd74 O83 2.356 . S
C75 O80 1.209 . S
C75 O82 1.226 . S
O76 Cd72 2.273 . S
O76 Cd74 2.411 . S
O76 C79 1.320 . S
O77 Cd74 2.333 . S
O77 C79 1.214 . S
O78 Cd74 2.352 . S
O78 C81 1.258 . S
C79 O76 1.320 . S
C79 O77 1.214 . S
O80 Cd72 2.277 . S
O80 C75 1.209 . S
C81 O78 1.258 . S
C81 O83 1.282 . S
O82 Cd74 2.277 . S
O82 C75 1.226 . S
O83 Cd74 2.356 . S
O83 C81 1.282 . S
C84 O85 1.306 1_545 S
C84 O87 1.160 . S
O85 C84 1.306 1_565 S
O85 Cd86 2.228 . S
Cd86 O85 2.228 . S
Cd86 O90 2.273 1_565 S
Cd86 O94 2.277 . S
O87 C84 1.160 . S
O87 Cd88 2.203 . S
Cd88 O87 2.203 . S
Cd88 O90 2.411 . S
Cd88 O91 2.333 . S
Cd88 O92 2.352 . S
Cd88 O96 2.277 1_545 S
Cd88 O97 2.356 . S
C89 O94 1.209 . S
C89 O96 1.226 . S
O90 Cd86 2.273 1_545 S
O90 Cd88 2.411 . S
O90 C93 1.320 . S
O91 Cd88 2.333 . S
O91 C93 1.214 . S
O92 Cd88 2.352 . S
O92 C95 1.258 . S
C93 O90 1.320 . S
C93 O91 1.214 . S
O94 Cd86 2.277 . S
O94 C89 1.209 . S
C95 O92 1.258 . S
C95 O97 1.282 . S
O96 Cd88 2.277 1_565 S
O96 C89 1.226 . S
O97 Cd88 2.356 . S
O97 C95 1.282 . S
C98 O99 1.306 . S
C98 O101 1.160 . S
O99 C98 1.306 . S
O99 Cd100 2.228 . S
Cd100 O99 2.228 . S
Cd100 O104 2.273 . S
Cd100 O108 2.277 . S
O101 C98 1.160 . S
O101 Cd102 2.206 . S
Cd102 O101 2.206 . S
Cd102 O104 2.418 . S
Cd102 O105 2.333 . S
Cd102 O106 2.304 1_554 S
Cd102 O110 2.314 . S
Cd102 O111 2.325 1_554 S
C103 O108 1.209 . S
C103 O110 1.226 . S
O104 Cd100 2.273 . S
O104 Cd102 2.418 . S
O104 C107 1.320 . S
O105 Cd102 2.333 . S
O105 C107 1.223 . S
O106 Cd102 2.304 1_556 S
O106 C109 1.258 . S
C107 O104 1.320 . S
C107 O105 1.223 . S
O108 Cd100 2.277 . S
O108 C103 1.209 . S
C109 O106 1.258 . S
C109 O111 1.282 . S
O110 Cd102 2.314 . S
O110 C103 1.226 . S
O111 Cd102 2.325 1_556 S
O111 C109 1.282 . S
C112 O113 1.306 1_554 S
C112 O115 1.160 . S
O113 C112 1.306 1_556 S
O113 Cd114 2.228 . S
Cd114 O113 2.228 . S
Cd114 O118 2.273 1_556 S
Cd114 O122 2.277 . S
O115 C112 1.160 . S
O115 Cd116 2.203 . S
Cd116 O115 2.203 . S
Cd116 O118 2.411 . S
Cd116 O119 2.333 . S
Cd116 O120 2.352 . S
Cd116 O124 2.277 1_554 S
Cd116 O125 2.356 . S
C117 O122 1.209 . S
C117 O124 1.226 . S
O118 Cd114 2.273 1_554 S
O118 Cd116 2.411 . S
O118 C121 1.320 . S
O119 Cd116 2.333 . S
O119 C121 1.214 . S
O120 Cd116 2.352 . S
O120 C123 1.258 . S
C121 O118 1.320 . S
C121 O119 1.214 . S
O122 Cd114 2.277 . S
O122 C117 1.209 . S
C123 O120 1.258 . S
C123 O125 1.282 . S
O124 Cd116 2.277 1_556 S
O124 C117 1.226 . S
O125 Cd116 2.356 . S
O125 C123 1.282 . S
C126 O127 1.306 . S
C126 O129 1.160 . S
O127 C126 1.306 . S
O127 Cd128 2.228 . S
Cd128 O127 2.228 . S
Cd128 O132 2.273 . S
Cd128 O136 2.277 . S
O129 C126 1.160 . S
O129 Cd130 2.203 . S
Cd130 O129 2.203 . S
Cd130 O132 2.411 . S
Cd130 O133 2.333 . S
Cd130 O134 2.352 . S
Cd130 O138 2.277 . S
Cd130 O139 2.356 . S
C131 O136 1.209 . S
C131 O138 1.226 . S
O132 Cd128 2.273 . S
O132 Cd130 2.411 . S
O132 C135 1.320 . S
O133 Cd130 2.333 . S
O133 C135 1.214 . S
O134 Cd130 2.352 . S
O134 C137 1.258 . S
C135 O132 1.320 . S
C135 O133 1.214 . S
O136 Cd128 2.277 . S
O136 C131 1.209 . S
C137 O134 1.258 . S
C137 O139 1.282 . S
O138 Cd130 2.277 . S
O138 C131 1.226 . S
O139 Cd130 2.356 . S
O139 C137 1.282 . S
C140 O141 1.306 . S
C140 O143 1.160 . S
O141 C140 1.306 . S
O141 Cd142 2.228 . S
Cd142 O141 2.228 . S
Cd142 O146 2.273 . S
Cd142 O150 2.277 . S
O143 C140 1.160 . S
O143 Cd144 2.203 . S
Cd144 O143 2.203 . S
Cd144 O146 2.411 . S
Cd144 O147 2.333 . S
Cd144 O148 2.352 . S
Cd144 O152 2.277 . S
Cd144 O153 2.356 . S
C145 O150 1.209 . S
C145 O152 1.226 . S
O146 Cd142 2.273 . S
O146 Cd144 2.411 . S
O146 C149 1.320 . S
O147 Cd144 2.333 . S
O147 C149 1.214 . S
O148 Cd144 2.352 . S
O148 C151 1.258 . S
C149 O146 1.320 . S
C149 O147 1.214 . S
O150 Cd142 2.277 . S
O150 C145 1.209 . S
C151 O148 1.258 . S
C151 O153 1.282 . S
O152 Cd144 2.277 . S
O152 C145 1.226 . S
O153 Cd144 2.356 . S
O153 C151 1.282 . S
C154 O155 1.306 . S
C154 O157 1.160 . S
O155 C154 1.306 . S
O155 Cd156 2.228 . S
Cd156 O155 2.228 . S
Cd156 O160 2.273 . S
Cd156 O164 2.277 . S
O157 C154 1.160 . S
O157 Cd158 2.203 . S
Cd158 O157 2.203 . S
Cd158 O160 2.411 . S
Cd158 O161 2.333 . S
Cd158 O162 2.352 . S
Cd158 O166 2.277 . S
Cd158 O167 2.356 . S
C159 O164 1.209 . S
C159 O166 1.226 . S
O160 Cd156 2.273 . S
O160 Cd158 2.411 . S
O160 C163 1.320 . S
O161 Cd158 2.333 . S
O161 C163 1.214 . S
O162 Cd158 2.352 . S
O162 C165 1.258 . S
C163 O160 1.320 . S
C163 O161 1.214 . S
O164 Cd156 2.277 . S
O164 C159 1.209 . S
C165 O162 1.258 . S
C165 O167 1.282 . S
O166 Cd158 2.277 . S
O166 C159 1.226 . S
O167 Cd158 2.356 . S
O167 C165 1.282 . S
C168 O169 1.306 . S
C168 O171 1.160 . S
O169 C168 1.306 . S
O169 Cd170 2.228 1_655 S
Cd170 O169 2.228 1_455 S
Cd170 O174 2.273 . S
Cd170 O178 2.277 . S
O171 C168 1.160 . S
O171 Cd172 2.203 1_655 S
Cd172 O171 2.203 1_455 S
Cd172 O174 2.411 . S
Cd172 O175 2.333 . S
Cd172 O176 2.352 . S
Cd172 O180 2.277 . S
Cd172 O181 2.356 . S
C173 O178 1.209 . S
C173 O180 1.226 . S
O174 Cd170 2.273 . S
O174 Cd172 2.411 . S
O174 C177 1.320 . S
O175 Cd172 2.333 . S
O175 C177 1.214 . S
O176 Cd172 2.352 . S
O176 C179 1.258 . S
C177 O174 1.320 . S
C177 O175 1.214 . S
O178 Cd170 2.277 . S
O178 C173 1.209 . S
C179 O176 1.258 . S
C179 O181 1.282 . S
O180 Cd172 2.277 . S
O180 C173 1.226 . S
O181 Cd172 2.356 . S
O181 C179 1.282 . S
C182 O183 1.306 . S
C182 O185 1.160 . S
O183 C182 1.306 . S
O183 Cd184 2.228 1_655 S
Cd184 O183 2.228 1_455 S
Cd184 O188 2.273 . S
Cd184 O192 2.277 . S
O185 C182 1.160 . S
O185 Cd186 2.203 1_655 S
Cd186 O185 2.203 1_455 S
Cd186 O188 2.411 . S
Cd186 O189 2.333 . S
Cd186 O190 2.352 . S
Cd186 O194 2.277 . S
Cd186 O195 2.356 . S
C187 O192 1.209 . S
C187 O194 1.226 . S
O188 Cd184 2.273 . S
O188 Cd186 2.411 . S
O188 C191 1.320 . S
O189 Cd186 2.333 . S
O189 C191 1.214 . S
O190 Cd186 2.352 . S
O190 C193 1.258 . S
C191 O188 1.320 . S
C191 O189 1.214 . S
O192 Cd184 2.277 . S
O192 C187 1.209 . S
C193 O190 1.258 . S
C193 O195 1.282 . S
O194 Cd186 2.277 . S
O194 C187 1.226 . S
O195 Cd186 2.356 . S
O195 C193 1.282 . S
C196 O197 1.306 . S
C196 O199 1.160 . S
O197 C196 1.306 . S
O197 Cd198 2.228 . S
Cd198 O197 2.228 . S
Cd198 O202 2.273 . S
Cd198 O206 2.277 . S
O199 C196 1.160 . S
O199 Cd200 2.203 . S
Cd200 O199 2.203 . S
Cd200 O202 2.411 . S
Cd200 O203 2.333 . S
Cd200 O204 2.352 . S
Cd200 O208 2.277 . S
Cd200 O209 2.356 . S
C201 O206 1.209 . S
C201 O208 1.226 . S
O202 Cd198 2.273 . S
O202 Cd200 2.411 . S
O202 C205 1.320 . S
O203 Cd200 2.333 . S
O203 C205 1.214 . S
O204 Cd200 2.352 . S
O204 C207 1.258 . S
C205 O202 1.320 . S
C205 O203 1.214 . S
O206 Cd198 2.277 . S
O206 C201 1.209 . S
C207 O204 1.258 . S
C207 O209 1.282 . S
O208 Cd200 2.277 . S
O208 C201 1.226 . S
O209 Cd200 2.356 . S
O209 C207 1.282 . S
C210 O211 1.306 . S
C210 O213 1.160 . S
O211 C210 1.306 . S
O211 Cd212 2.228 . S
Cd212 O211 2.228 . S
Cd212 O216 2.273 . S
Cd212 O220 2.277 . S
O213 C210 1.160 . S
O213 Cd214 2.203 . S
Cd214 O213 2.203 . S
Cd214 O216 2.411 . S
Cd214 O217 2.333 . S
Cd214 O218 2.352 . S
Cd214 O222 2.277 . S
Cd214 O223 2.356 . S
C215 O220 1.209 . S
C215 O222 1.226 . S
O216 Cd212 2.273 . S
O216 Cd214 2.411 . S
O216 C219 1.320 . S
O217 Cd214 2.333 . S
O217 C219 1.214 . S
O218 Cd214 2.352 . S
O218 C221 1.258 . S
C219 O216 1.320 . S
C219 O217 1.214 . S
O220 Cd212 2.277 . S
O220 C215 1.209 . S
C221 O218 1.258 . S
C221 O223 1.282 . S
O222 Cd214 2.277 . S
O222 C215 1.226 . S
O223 Cd214 2.356 . S
O223 C221 1.282 . S
C224 O225 1.330 . S
C224 O227 1.144 1_565 S
O225 C224 1.330 . S
O225 Cd226 2.228 . S
Cd226 O225 2.228 . S
Cd226 O230 2.261 1_565 S
Cd226 O234 2.277 . S
O227 C224 1.144 1_545 S
O227 Cd228 2.203 . S
Cd228 O227 2.203 . S
Cd228 O230 2.413 . S
Cd228 O231 2.333 . S
Cd228 O232 2.352 . S
Cd228 O236 2.277 1_545 S
Cd228 O237 2.356 . S
C229 O234 1.209 . S
C229 O236 1.226 . S
O230 Cd226 2.261 1_545 S
O230 Cd228 2.413 . S
O230 C233 1.322 . S
O231 Cd228 2.333 . S
O231 C233 1.214 . S
O232 Cd228 2.352 . S
O232 C235 1.258 . S
C233 O230 1.322 . S
C233 O231 1.214 . S
O234 Cd226 2.277 . S
O234 C229 1.209 . S
C235 O232 1.258 . S
C235 O237 1.282 . S
O236 Cd228 2.277 1_565 S
O236 C229 1.226 . S
O237 Cd228 2.356 . S
O237 C235 1.282 . S
C238 O239 1.306 . S
C238 O241 1.160 . S
O239 C238 1.306 . S
O239 Cd240 2.228 . S
Cd240 O239 2.228 . S
Cd240 O244 2.273 . S
Cd240 O248 2.277 . S
O241 C238 1.160 . S
O241 Cd242 2.203 . S
Cd242 O241 2.203 . S
Cd242 O244 2.411 . S
Cd242 O245 2.333 . S
Cd242 O246 2.352 . S
Cd242 O250 2.277 . S
Cd242 O251 2.356 . S
C243 O248 1.209 . S
C243 O250 1.226 . S
O244 Cd240 2.273 . S
O244 Cd242 2.411 . S
O244 C247 1.320 . S
O245 Cd242 2.333 . S
O245 C247 1.214 . S
O246 Cd242 2.352 . S
O246 C249 1.258 . S
C247 O244 1.320 . S
C247 O245 1.214 . S
O248 Cd240 2.277 . S
O248 C243 1.209 . S
C249 O246 1.258 . S
C249 O251 1.282 . S
O250 Cd242 2.277 . S
O250 C243 1.226 . S
O251 Cd242 2.356 . S
O251 C249 1.282 . S
C252 O253 1.306 . S
C252 O255 1.160 . S
O253 C252 1.306 . S
O253 Cd254 2.228 . S
Cd254 O253 2.228 . S
Cd254 O258 2.273 . S
Cd254 O262 2.277 . S
O255 C252 1.160 . S
O255 Cd256 2.203 . S
Cd256 O255 2.203 . S
Cd256 O258 2.411 . S
Cd256 O259 2.333 . S
Cd256 O260 2.352 1_545 S
Cd256 O264 2.277 . S
Cd256 O265 2.356 1_545 S
C257 O262 1.209 . S
C257 O264 1.226 . S
O258 Cd254 2.273 . S
O258 Cd256 2.411 . S
O258 C261 1.320 . S
O259 Cd256 2.333 . S
O259 C261 1.220 . S
O260 Cd256 2.352 1_565 S
O260 C263 1.258 . S
C261 O258 1.320 . S
C261 O259 1.220 . S
O262 Cd254 2.277 . S
O262 C257 1.209 . S
C263 O260 1.258 . S
C263 O265 1.282 . S
O264 Cd256 2.277 . S
O264 C257 1.226 . S
O265 Cd256 2.356 1_565 S
O265 C263 1.282 . S
C266 O267 1.306 1_554 S
C266 O269 1.160 . S
O267 C266 1.306 1_556 S
O267 Cd268 2.228 . S
Cd268 O267 2.228 . S
Cd268 O272 2.273 1_556 S
Cd268 O276 2.277 . S
O269 C266 1.160 . S
O269 Cd270 2.203 . S
Cd270 O269 2.203 . S
Cd270 O272 2.411 . S
Cd270 O273 2.333 . S
Cd270 O274 2.352 . S
Cd270 O278 2.277 1_554 S
Cd270 O279 2.356 . S
C271 O276 1.209 . S
C271 O278 1.226 . S
O272 Cd268 2.273 1_554 S
O272 Cd270 2.411 . S
O272 C275 1.320 . S
O273 Cd270 2.333 . S
O273 C275 1.214 . S
O274 Cd270 2.352 . S
O274 C277 1.258 . S
C275 O272 1.320 . S
C275 O273 1.214 . S
O276 Cd268 2.277 . S
O276 C271 1.209 . S
C277 O274 1.258 . S
C277 O279 1.282 . S
O278 Cd270 2.277 1_556 S
O278 C271 1.226 . S
O279 Cd270 2.356 . S
O279 C277 1.282 . S
C280 O281 1.306 . S
C280 O283 1.160 1_554 S
O281 C280 1.306 . S
O281 Cd282 2.228 . S
Cd282 O281 2.228 . S
Cd282 O286 2.273 . S
Cd282 O290 2.277 . S
O283 C280 1.160 1_556 S
O283 Cd284 2.203 . S
Cd284 O283 2.203 . S
Cd284 O286 2.411 1_556 S
Cd284 O287 2.333 . S
Cd284 O288 2.352 . S
Cd284 O292 2.277 1_556 S
Cd284 O293 2.356 . S
C285 O290 1.209 . S
C285 O292 1.226 . S
O286 Cd282 2.273 . S
O286 Cd284 2.411 1_554 S
O286 C289 1.322 . S
O287 Cd284 2.333 . S
O287 C289 1.211 1_556 S
O288 Cd284 2.352 . S
O288 C291 1.258 . S
C289 O286 1.322 . S
C289 O287 1.211 1_554 S
O290 Cd282 2.277 . S
O290 C285 1.209 . S
C291 O288 1.258 . S
C291 O293 1.282 . S
O292 Cd284 2.277 1_554 S
O292 C285 1.226 . S
O293 Cd284 2.356 . S
O293 C291 1.282 . S
C294 O295 1.306 . S
C294 O297 1.160 . S
O295 C294 1.306 . S
O295 Cd296 2.228 . S
Cd296 O295 2.228 . S
Cd296 O300 2.273 . S
Cd296 O304 2.277 . S
O297 C294 1.160 . S
O297 Cd298 2.203 . S
Cd298 O297 2.203 . S
Cd298 O300 2.411 . S
Cd298 O301 2.333 . S
Cd298 O302 2.352 . S
Cd298 O306 2.277 . S
Cd298 O307 2.356 . S
C299 O304 1.209 . S
C299 O306 1.226 . S
O300 Cd296 2.273 . S
O300 Cd298 2.411 . S
O300 C303 1.320 . S
O301 Cd298 2.333 . S
O301 C303 1.214 . S
O302 Cd298 2.352 . S
O302 C305 1.258 . S
C303 O300 1.320 . S
C303 O301 1.214 . S
O304 Cd296 2.277 . S
O304 C299 1.209 . S
C305 O302 1.258 . S
C305 O307 1.282 . S
O306 Cd298 2.277 . S
O306 C299 1.226 . S
O307 Cd298 2.356 . S
O307 C305 1.282 . S
C308 O309 1.306 . S
C308 O311 1.160 . S
O309 C308 1.306 . S
O309 Cd310 2.228 . S
Cd310 O309 2.228 . S
Cd310 O314 2.273 . S
Cd310 O318 2.277 . S
O311 C308 1.160 . S
O311 Cd312 2.203 . S
Cd312 O311 2.203 . S
Cd312 O314 2.411 . S
Cd312 O315 2.333 . S
Cd312 O316 2.352 . S
Cd312 O320 2.277 . S
Cd312 O321 2.356 . S
C313 O318 1.209 . S
C313 O320 1.226 . S
O314 Cd310 2.273 . S
O314 Cd312 2.411 . S
O314 C317 1.320 . S
O315 Cd312 2.333 . S
O315 C317 1.214 . S
O316 Cd312 2.352 . S
O316 C319 1.258 . S
C317 O314 1.320 . S
C317 O315 1.214 . S
O318 Cd310 2.277 . S
O318 C313 1.209 . S
C319 O316 1.258 . S
C319 O321 1.282 . S
O320 Cd312 2.277 . S
O320 C313 1.226 . S
O321 Cd312 2.356 . S
O321 C319 1.282 . S
C322 O323 1.306 . S
C322 O325 1.160 . S
O323 C322 1.306 . S
O323 Cd324 2.228 . S
Cd324 O323 2.228 . S
Cd324 O328 2.273 . S
Cd324 O332 2.277 . S
O325 C322 1.160 . S
O325 Cd326 2.203 . S
Cd326 O325 2.203 . S
Cd326 O328 2.411 . S
Cd326 O329 2.333 . S
Cd326 O330 2.352 . S
Cd326 O334 2.277 . S
Cd326 O335 2.356 . S
C327 O332 1.209 . S
C327 O334 1.226 . S
O328 Cd324 2.273 . S
O328 Cd326 2.411 . S
O328 C331 1.320 . S
O329 Cd326 2.333 . S
O329 C331 1.214 . S
O330 Cd326 2.352 . S
O330 C333 1.258 . S
C331 O328 1.320 . S
C331 O329 1.214 . S
O332 Cd324 2.277 . S
O332 C327 1.209 . S
C333 O330 1.258 . S
C333 O335 1.282 . S
O334 Cd326 2.277 . S
O334 C327 1.226 . S
O335 Cd326 2.356 . S
O335 C333 1.282 . S
O336 Mn337 2.163 . S
O336 C350 1.241 1_554 S
Mn337 O336 2.163 . S
Mn337 O340 2.160 1_445 S
Mn337 O341 2.221 1_455 S
Mn337 O343 2.163 1_454 S
Mn337 O345 2.160 1_545 S
Mn337 O355 2.228 1_545 S
O338 Mn339 2.099 1_556 S
O338 C350 1.245 1_565 S
Mn339 O338 2.099 1_554 S
Mn339 O346 2.089 . S
Mn339 O355 2.302 . S
Mn339 O356 2.251 1_554 S
O340 Mn337 2.160 1_665 S
O340 C351 1.239 . S
O341 Mn337 2.221 1_655 S
O341 Mn342 2.290 1_554 S
O341 C352 1.278 . S
Mn342 O341 2.290 1_556 S
Mn342 O344 2.089 1_556 S
Mn342 O347 2.251 1_556 S
Mn342 O348 2.087 . S
O343 Mn337 2.163 1_656 S
O343 C353 1.244 . S
O344 Mn342 2.089 1_554 S
O344 C351 1.256 1_545 S
O345 Mn337 2.160 1_565 S
O345 C354 1.239 . S
O346 Mn339 2.089 . S
O346 C354 1.256 . S
O347 Mn342 2.251 1_554 S
O347 C352 1.241 . S
O348 Mn342 2.087 . S
O348 C353 1.256 . S
C349 O355 1.252 1_556 S
C349 O356 1.241 . S
C350 O336 1.241 1_556 S
C350 O338 1.245 1_545 S
C351 O340 1.239 . S
C351 O344 1.256 1_565 S
C352 O341 1.278 . S
C352 O347 1.241 . S
C353 O343 1.244 . S
C353 O348 1.256 . S
C354 O345 1.239 . S
C354 O346 1.256 . S
O355 Mn337 2.228 1_565 S
O355 Mn339 2.302 . S
O355 C349 1.252 1_554 S
O356 Mn339 2.251 1_556 S
O356 C349 1.241 . S
O357 Mn358 2.163 . S
O357 C371 1.244 . S
Mn358 O357 2.163 . S
Mn358 O361 2.160 . S
Mn358 O362 2.221 . S
Mn358 O364 2.163 . S
Mn358 O366 2.160 . S
Mn358 O376 2.221 . S
O359 Mn360 2.087 . S
O359 C371 1.256 . S
Mn360 O359 2.087 . S
Mn360 O367 2.089 . S
Mn360 O376 2.290 . S
Mn360 O377 2.251 . S
O361 Mn358 2.160 . S
O361 C372 1.239 . S
O362 Mn358 2.221 . S
O362 Mn363 2.290 . S
O362 C373 1.278 . S
Mn363 O362 2.290 . S
Mn363 O365 2.089 . S
Mn363 O368 2.251 . S
Mn363 O369 2.087 . S
O364 Mn358 2.163 . S
O364 C374 1.244 . S
O365 Mn363 2.089 . S
O365 C372 1.256 . S
O366 Mn358 2.160 . S
O366 C375 1.239 . S
O367 Mn360 2.089 . S
O367 C375 1.256 . S
O368 Mn363 2.251 . S
O368 C373 1.241 . S
O369 Mn363 2.087 . S
O369 C374 1.256 . S
C370 O376 1.278 . S
C370 O377 1.241 . S
C371 O357 1.244 . S
C371 O359 1.256 . S
C372 O361 1.239 . S
C372 O365 1.256 . S
C373 O362 1.278 . S
C373 O368 1.241 . S
C374 O364 1.244 . S
C374 O369 1.256 . S
C375 O366 1.239 . S
C375 O367 1.256 . S
O376 Mn358 2.221 . S
O376 Mn360 2.290 . S
O376 C370 1.278 . S
O377 Mn360 2.251 . S
O377 C370 1.241 . S
O378 Mn379 2.163 1_565 S
O378 C392 1.244 . S
Mn379 O378 2.163 1_545 S
Mn379 O382 2.160 . S
Mn379 O383 2.221 1_545 S
Mn379 O385 2.163 . S
Mn379 O387 2.160 . S
Mn379 O397 2.221 . S
O380 Mn381 2.087 . S
O380 C392 1.256 1_545 S
Mn381 O380 2.087 . S
Mn381 O388 2.089 . S
Mn381 O397 2.290 . S
Mn381 O398 2.251 . S
O382 Mn379 2.160 . S
O382 C393 1.239 . S
O383 Mn379 2.221 1_565 S
O383 Mn384 2.290 . S
O383 C394 1.278 . S
Mn384 O383 2.290 . S
Mn384 O386 2.089 1_565 S
Mn384 O389 2.251 . S
Mn384 O390 2.087 . S
O385 Mn379 2.163 . S
O385 C395 1.244 1_545 S
O386 Mn384 2.089 1_545 S
O386 C393 1.256 . S
O387 Mn379 2.160 . S
O387 C396 1.239 . S
O388 Mn381 2.089 . S
O388 C396 1.256 . S
O389 Mn384 2.251 . S
O389 C394 1.241 . S
O390 Mn384 2.087 . S
O390 C395 1.256 . S
C391 O397 1.278 . S
C391 O398 1.241 . S
C392 O378 1.244 . S
C392 O380 1.256 1_565 S
C393 O382 1.239 . S
C393 O386 1.256 . S
C394 O383 1.278 . S
C394 O389 1.241 . S
C395 O385 1.244 1_565 S
C395 O390 1.256 . S
C396 O387 1.239 . S
C396 O388 1.256 . S
O397 Mn379 2.221 . S
O397 Mn381 2.290 . S
O397 C391 1.278 . S
O398 Mn381 2.251 . S
O398 C391 1.241 . S
O399 Mn400 2.163 . S
O399 C413 1.244 . S
Mn400 O399 2.163 . S
Mn400 O403 2.160 . S
Mn400 O404 2.221 . S
Mn400 O406 2.163 . S
Mn400 O408 2.160 . S
Mn400 O418 2.221 . S
O401 Mn402 2.087 . S
O401 C413 1.256 . S
Mn402 O401 2.087 . S
Mn402 O409 2.089 . S
Mn402 O418 2.290 . S
Mn402 O419 2.251 . S
O403 Mn400 2.160 . S
O403 C414 1.239 . S
O404 Mn400 2.221 . S
O404 Mn405 2.290 . S
O404 C415 1.278 . S
Mn405 O404 2.290 . S
Mn405 O407 2.089 . S
Mn405 O410 2.251 . S
Mn405 O411 2.087 . S
O406 Mn400 2.163 . S
O406 C416 1.244 . S
O407 Mn405 2.089 . S
O407 C414 1.256 . S
O408 Mn400 2.160 . S
O408 C417 1.239 . S
O409 Mn402 2.089 . S
O409 C417 1.256 . S
O410 Mn405 2.251 . S
O410 C415 1.241 . S
O411 Mn405 2.087 . S
O411 C416 1.256 . S
C412 O418 1.278 . S
C412 O419 1.241 . S
C413 O399 1.244 . S
C413 O401 1.256 . S
C414 O403 1.239 . S
C414 O407 1.256 . S
C415 O404 1.278 . S
C415 O410 1.241 . S
C416 O406 1.244 . S
C416 O411 1.256 . S
C417 O408 1.239 . S
C417 O409 1.256 . S
O418 Mn400 2.221 . S
O418 Mn402 2.290 . S
O418 C412 1.278 . S
O419 Mn402 2.251 . S
O419 C412 1.241 . S
O420 Mn421 2.163 1_565 S
O420 C434 1.247 . S
Mn421 O420 2.163 1_545 S
Mn421 O424 2.160 . S
Mn421 O425 2.221 . S
Mn421 O427 2.163 1_455 S
Mn421 O429 2.160 1_545 S
Mn421 O439 2.221 1_545 S
O422 Mn423 2.066 1_655 S
O422 C434 1.253 1_655 S
Mn423 O422 2.066 1_455 S
Mn423 O430 2.089 . S
Mn423 O439 2.290 . S
Mn423 O440 2.251 1_455 S
O424 Mn421 2.160 . S
O424 C435 1.239 . S
O425 Mn421 2.221 . S
O425 Mn426 2.298 . S
O425 C436 1.278 . S
Mn426 O425 2.298 . S
Mn426 O428 2.091 . S
Mn426 O431 2.254 . S
Mn426 O432 2.073 1_455 S
O427 Mn421 2.163 1_655 S
O427 C437 1.244 . S
O428 Mn426 2.091 . S
O428 C435 1.256 . S
O429 Mn421 2.160 1_565 S
O429 C438 1.239 . S
O430 Mn423 2.089 . S
O430 C438 1.256 . S
O431 Mn426 2.254 . S
O431 C436 1.241 . S
O432 Mn426 2.073 1_655 S
O432 C437 1.256 . S
C433 O439 1.278 1_655 S
C433 O440 1.241 . S
C434 O420 1.247 . S
C434 O422 1.253 1_455 S
C435 O424 1.239 . S
C435 O428 1.256 . S
C436 O425 1.278 . S
C436 O431 1.241 . S
C437 O427 1.244 . S
C437 O432 1.256 . S
C438 O429 1.239 . S
C438 O430 1.256 . S
O439 Mn421 2.221 1_565 S
O439 Mn423 2.290 . S
O439 C433 1.278 1_455 S
O440 Mn423 2.251 1_655 S
O440 C433 1.241 . S
O441 Mn442 2.163 . S
O441 C455 1.244 . S
Mn442 O441 2.163 . S
Mn442 O445 2.160 . S
Mn442 O446 2.221 . S
Mn442 O448 2.163 . S
Mn442 O450 2.160 . S
Mn442 O460 2.221 . S
O443 Mn444 2.087 . S
O443 C455 1.256 . S
Mn444 O443 2.087 . S
Mn444 O451 2.089 . S
Mn444 O460 2.290 . S
Mn444 O461 2.251 . S
O445 Mn442 2.160 . S
O445 C456 1.239 . S
O446 Mn442 2.221 . S
O446 Mn447 2.290 . S
O446 C457 1.278 . S
Mn447 O446 2.290 . S
Mn447 O449 2.089 . S
Mn447 O452 2.251 . S
Mn447 O453 2.087 . S
O448 Mn442 2.163 . S
O448 C458 1.244 . S
O449 Mn447 2.089 . S
O449 C456 1.256 . S
O450 Mn442 2.160 . S
O450 C459 1.239 . S
O451 Mn444 2.089 . S
O451 C459 1.256 . S
O452 Mn447 2.251 . S
O452 C457 1.241 . S
O453 Mn447 2.087 . S
O453 C458 1.256 . S
C454 O460 1.278 . S
C454 O461 1.241 . S
C455 O441 1.244 . S
C455 O443 1.256 . S
C456 O445 1.239 . S
C456 O449 1.256 . S
C457 O446 1.278 . S
C457 O452 1.241 . S
C458 O448 1.244 . S
C458 O453 1.256 . S
C459 O450 1.239 . S
C459 O451 1.256 . S
O460 Mn442 2.221 . S
O460 Mn444 2.290 . S
O460 C454 1.278 . S
O461 Mn444 2.251 . S
O461 C454 1.241 . S
O462 Mn463 2.170 1_556 S
O462 C476 1.240 1_545 S
Mn463 O462 2.170 1_554 S
Mn463 O466 2.160 . S
Mn463 O467 2.221 . S
Mn463 O469 2.163 1_545 S
Mn463 O471 2.160 1_554 S
Mn463 O481 2.218 1_544 S
O464 Mn465 2.087 1_565 S
O464 C476 1.256 . S
Mn465 O464 2.087 1_545 S
Mn465 O472 2.089 . S
Mn465 O481 2.284 1_545 S
Mn465 O482 2.251 1_545 S
O466 Mn463 2.160 . S
O466 C477 1.239 . S
O467 Mn463 2.221 . S
O467 Mn468 2.290 1_545 S
O467 C478 1.278 . S
Mn468 O467 2.290 1_565 S
Mn468 O470 2.089 1_565 S
Mn468 O473 2.251 1_565 S
Mn468 O474 2.087 . S
O469 Mn463 2.163 1_565 S
O469 C479 1.244 . S
O470 Mn468 2.089 1_545 S
O470 C477 1.256 . S
O471 Mn463 2.160 1_556 S
O471 C480 1.239 . S
O472 Mn465 2.089 . S
O472 C480 1.256 . S
O473 Mn468 2.251 1_545 S
O473 C478 1.241 . S
O474 Mn468 2.087 . S
O474 C479 1.256 . S
C475 O481 1.291 . S
C475 O482 1.241 . S
C476 O462 1.240 1_565 S
C476 O464 1.256 . S
C477 O466 1.239 . S
C477 O470 1.256 . S
C478 O467 1.278 . S
C478 O473 1.241 . S
C479 O469 1.244 . S
C479 O474 1.256 . S
C480 O471 1.239 . S
C480 O472 1.256 . S
O481 Mn463 2.218 1_566 S
O481 Mn465 2.284 1_565 S
O481 C475 1.291 . S
O482 Mn465 2.251 1_565 S
O482 C475 1.241 . S
O483 Mn484 2.163 . S
O483 C497 1.244 . S
Mn484 O483 2.163 . S
Mn484 O487 2.160 . S
Mn484 O488 2.221 . S
Mn484 O490 2.163 . S
Mn484 O492 2.160 . S
Mn484 O502 2.221 . S
O485 Mn486 2.087 . S
O485 C497 1.256 . S
Mn486 O485 2.087 . S
Mn486 O493 2.089 . S
Mn486 O502 2.290 . S
Mn486 O503 2.251 . S
O487 Mn484 2.160 . S
O487 C498 1.239 . S
O488 Mn484 2.221 . S
O488 Mn489 2.290 . S
O488 C499 1.278 . S
Mn489 O488 2.290 . S
Mn489 O491 2.089 . S
Mn489 O494 2.251 . S
Mn489 O495 2.087 . S
O490 Mn484 2.163 . S
O490 C500 1.244 . S
O491 Mn489 2.089 . S
O491 C498 1.256 . S
O492 Mn484 2.160 . S
O492 C501 1.239 . S
O493 Mn486 2.089 . S
O493 C501 1.256 . S
O494 Mn489 2.251 . S
O494 C499 1.241 . S
O495 Mn489 2.087 . S
O495 C500 1.256 . S
C496 O502 1.278 . S
C496 O503 1.241 . S
C497 O483 1.244 . S
C497 O485 1.256 . S
C498 O487 1.239 . S
C498 O491 1.256 . S
C499 O488 1.278 . S
C499 O494 1.241 . S
C500 O490 1.244 . S
C500 O495 1.256 . S
C501 O492 1.239 . S
C501 O493 1.256 . S
O502 Mn484 2.221 . S
O502 Mn486 2.290 . S
O502 C496 1.278 . S
O503 Mn486 2.251 . S
O503 C496 1.241 . S
O504 Mn505 2.163 1_556 S
O504 C518 1.244 . S
Mn505 O504 2.163 1_554 S
Mn505 O508 2.160 . S
Mn505 O509 2.221 1_554 S
Mn505 O511 2.163 . S
Mn505 O513 2.160 . S
Mn505 O523 2.221 . S
O506 Mn507 2.087 . S
O506 C518 1.256 1_554 S
Mn507 O506 2.087 . S
Mn507 O514 2.089 . S
Mn507 O523 2.290 . S
Mn507 O524 2.251 . S
O508 Mn505 2.160 . S
O508 C519 1.239 . S
O509 Mn505 2.221 1_556 S
O509 Mn510 2.290 . S
O509 C520 1.278 . S
Mn510 O509 2.290 . S
Mn510 O512 2.089 1_556 S
Mn510 O515 2.251 . S
Mn510 O516 2.087 . S
O511 Mn505 2.163 . S
O511 C521 1.244 1_554 S
O512 Mn510 2.089 1_554 S
O512 C519 1.256 . S
O513 Mn505 2.160 . S
O513 C522 1.239 . S
O514 Mn507 2.089 . S
O514 C522 1.256 . S
O515 Mn510 2.251 . S
O515 C520 1.241 . S
O516 Mn510 2.087 . S
O516 C521 1.256 . S
C517 O523 1.278 . S
C517 O524 1.241 . S
C518 O504 1.244 . S
C518 O506 1.256 1_556 S
C519 O508 1.239 . S
C519 O512 1.256 . S
C520 O509 1.278 . S
C520 O515 1.241 . S
C521 O511 1.244 1_556 S
C521 O516 1.256 . S
C522 O513 1.239 . S
C522 O514 1.256 . S
O523 Mn505 2.221 . S
O523 Mn507 2.290 . S
O523 C517 1.278 . S
O524 Mn507 2.251 . S
O524 C517 1.241 . S
O525 Mn526 2.163 . S
O525 C539 1.244 . S
Mn526 O525 2.163 . S
Mn526 O529 2.160 . S
Mn526 O530 2.221 . S
Mn526 O532 2.163 . S
Mn526 O534 2.160 . S
Mn526 O544 2.221 . S
O527 Mn528 2.087 . S
O527 C539 1.256 . S
Mn528 O527 2.087 . S
Mn528 O535 2.089 . S
Mn528 O544 2.290 . S
Mn528 O545 2.251 . S
O529 Mn526 2.160 . S
O529 C540 1.239 . S
O530 Mn526 2.221 . S
O530 Mn531 2.290 . S
O530 C541 1.278 . S
Mn531 O530 2.290 . S
Mn531 O533 2.089 . S
Mn531 O536 2.251 . S
Mn531 O537 2.087 . S
O532 Mn526 2.163 . S
O532 C542 1.244 . S
O533 Mn531 2.089 . S
O533 C540 1.256 . S
O534 Mn526 2.160 . S
O534 C543 1.239 . S
O535 Mn528 2.089 . S
O535 C543 1.256 . S
O536 Mn531 2.251 . S
O536 C541 1.241 . S
O537 Mn531 2.087 . S
O537 C542 1.256 . S
C538 O544 1.278 . S
C538 O545 1.241 . S
C539 O525 1.244 . S
C539 O527 1.256 . S
C540 O529 1.239 . S
C540 O533 1.256 . S
C541 O530 1.278 . S
C541 O536 1.241 . S
C542 O532 1.244 . S
C542 O537 1.256 . S
C543 O534 1.239 . S
C543 O535 1.256 . S
O544 Mn526 2.221 . S
O544 Mn528 2.290 . S
O544 C538 1.278 . S
O545 Mn528 2.251 . S
O545 C538 1.241 . S
O546 Mn547 2.163 1_655 S
O546 C560 1.244 . S
Mn547 O546 2.163 1_455 S
Mn547 O550 2.160 . S
Mn547 O551 2.221 1_455 S
Mn547 O553 2.163 . S
Mn547 O555 2.160 . S
Mn547 O565 2.221 . S
O548 Mn549 2.087 . S
O548 C560 1.256 1_455 S
Mn549 O548 2.087 . S
Mn549 O556 2.089 . S
Mn549 O565 2.290 . S
Mn549 O566 2.251 . S
O550 Mn547 2.160 . S
O550 C561 1.239 . S
O551 Mn547 2.221 1_655 S
O551 Mn552 2.290 . S
O551 C562 1.278 . S
Mn552 O551 2.290 . S
Mn552 O554 2.089 1_655 S
Mn552 O557 2.251 . S
Mn552 O558 2.087 . S
O553 Mn547 2.163 . S
O553 C563 1.244 1_455 S
O554 Mn552 2.089 1_455 S
O554 C561 1.256 . S
O555 Mn547 2.160 . S
O555 C564 1.239 . S
O556 Mn549 2.089 . S
O556 C564 1.256 . S
O557 Mn552 2.251 . S
O557 C562 1.241 . S
O558 Mn552 2.087 . S
O558 C563 1.256 . S
C559 O565 1.278 . S
C559 O566 1.241 . S
C560 O546 1.244 . S
C560 O548 1.256 1_655 S
C561 O550 1.239 . S
C561 O554 1.256 . S
C562 O551 1.278 . S
C562 O557 1.241 . S
C563 O553 1.244 1_655 S
C563 O558 1.256 . S
C564 O555 1.239 . S
C564 O556 1.256 . S
O565 Mn547 2.221 . S
O565 Mn549 2.290 . S
O565 C559 1.278 . S
O566 Mn549 2.251 . S
O566 C559 1.241 . S
O567 Mn568 2.163 . S
O567 C581 1.244 . S
Mn568 O567 2.163 . S
Mn568 O571 2.160 . S
Mn568 O572 2.221 . S
Mn568 O574 2.163 . S
Mn568 O576 2.160 . S
Mn568 O586 2.221 . S
O569 Mn570 2.087 . S
O569 C581 1.256 . S
Mn570 O569 2.087 . S
Mn570 O577 2.089 . S
Mn570 O586 2.290 . S
Mn570 O587 2.251 . S
O571 Mn568 2.160 . S
O571 C582 1.239 . S
O572 Mn568 2.221 . S
O572 Mn573 2.290 . S
O572 C583 1.278 . S
Mn573 O572 2.290 . S
Mn573 O575 2.089 . S
Mn573 O578 2.251 . S
Mn573 O579 2.087 . S
O574 Mn568 2.163 . S
O574 C584 1.244 . S
O575 Mn573 2.089 . S
O575 C582 1.256 . S
O576 Mn568 2.160 . S
O576 C585 1.239 . S
O577 Mn570 2.089 . S
O577 C585 1.256 . S
O578 Mn573 2.251 . S
O578 C583 1.241 . S
O579 Mn573 2.087 . S
O579 C584 1.256 . S
C580 O586 1.278 . S
C580 O587 1.241 . S
C581 O567 1.244 . S
C581 O569 1.256 . S
C582 O571 1.239 . S
C582 O575 1.256 . S
C583 O572 1.278 . S
C583 O578 1.241 . S
C584 O574 1.244 . S
C584 O579 1.256 . S
C585 O576 1.239 . S
C585 O577 1.256 . S
O586 Mn568 2.221 . S
O586 Mn570 2.290 . S
O586 C580 1.278 . S
O587 Mn570 2.251 . S
O587 C580 1.241 . S
O588 Mn589 2.163 . S
O588 C602 1.244 . S
Mn589 O588 2.163 . S
Mn589 O592 2.160 . S
Mn589 O593 2.221 . S
Mn589 O595 2.163 . S
Mn589 O597 2.160 . S
Mn589 O607 2.221 . S
O590 Mn591 2.087 . S
O590 C602 1.256 . S
Mn591 O590 2.087 . S
Mn591 O598 2.089 . S
Mn591 O607 2.290 . S
Mn591 O608 2.251 . S
O592 Mn589 2.160 . S
O592 C603 1.239 . S
O593 Mn589 2.221 . S
O593 Mn594 2.290 . S
O593 C604 1.278 . S
Mn594 O593 2.290 . S
Mn594 O596 2.089 . S
Mn594 O599 2.251 . S
Mn594 O600 2.087 . S
O595 Mn589 2.163 . S
O595 C605 1.244 . S
O596 Mn594 2.089 . S
O596 C603 1.256 . S
O597 Mn589 2.160 . S
O597 C606 1.239 . S
O598 Mn591 2.089 . S
O598 C606 1.256 . S
O599 Mn594 2.251 . S
O599 C604 1.241 . S
O600 Mn594 2.087 . S
O600 C605 1.256 . S
C601 O607 1.278 . S
C601 O608 1.241 . S
C602 O588 1.244 . S
C602 O590 1.256 . S
C603 O592 1.239 . S
C603 O596 1.256 . S
C604 O593 1.278 . S
C604 O599 1.241 . S
C605 O595 1.244 . S
C605 O600 1.256 . S
C606 O597 1.239 . S
C606 O598 1.256 . S
O607 Mn589 2.221 . S
O607 Mn591 2.290 . S
O607 C601 1.278 . S
O608 Mn591 2.251 . S
O608 C601 1.241 . S
O609 Mn610 2.163 . S
O609 C623 1.244 . S
Mn610 O609 2.163 . S
Mn610 O613 2.160 . S
Mn610 O614 2.221 . S
Mn610 O616 2.163 . S
Mn610 O618 2.160 . S
Mn610 O628 2.221 . S
O611 Mn612 2.087 . S
O611 C623 1.256 . S
Mn612 O611 2.087 . S
Mn612 O619 2.089 . S
Mn612 O628 2.290 . S
Mn612 O629 2.251 . S
O613 Mn610 2.160 . S
O613 C624 1.239 . S
O614 Mn610 2.221 . S
O614 Mn615 2.290 . S
O614 C625 1.278 . S
Mn615 O614 2.290 . S
Mn615 O617 2.089 . S
Mn615 O620 2.251 . S
Mn615 O621 2.087 . S
O616 Mn610 2.163 . S
O616 C626 1.244 . S
O617 Mn615 2.089 . S
O617 C624 1.256 . S
O618 Mn610 2.160 . S
O618 C627 1.239 . S
O619 Mn612 2.089 . S
O619 C627 1.256 . S
O620 Mn615 2.251 . S
O620 C625 1.241 . S
O621 Mn615 2.087 . S
O621 C626 1.256 . S
C622 O628 1.278 . S
C622 O629 1.241 . S
C623 O609 1.244 . S
C623 O611 1.256 . S
C624 O613 1.239 . S
C624 O617 1.256 . S
C625 O614 1.278 . S
C625 O620 1.241 . S
C626 O616 1.244 . S
C626 O621 1.256 . S
C627 O618 1.239 . S
C627 O619 1.256 . S
O628 Mn610 2.221 . S
O628 Mn612 2.290 . S
O628 C622 1.278 . S
O629 Mn612 2.251 . S
O629 C622 1.241 . S
O630 Mn631 2.163 . S
O630 C644 1.244 . S
Mn631 O630 2.163 . S
Mn631 O634 2.160 . S
Mn631 O635 2.221 . S
Mn631 O637 2.163 . S
Mn631 O639 2.160 . S
Mn631 O649 2.221 . S
O632 Mn633 2.087 . S
O632 C644 1.256 . S
Mn633 O632 2.087 . S
Mn633 O640 2.089 . S
Mn633 O649 2.290 . S
Mn633 O650 2.251 . S
O634 Mn631 2.160 . S
O634 C645 1.239 . S
O635 Mn631 2.221 . S
O635 Mn636 2.290 . S
O635 C646 1.278 . S
Mn636 O635 2.290 . S
Mn636 O638 2.089 . S
Mn636 O641 2.251 . S
Mn636 O642 2.087 . S
O637 Mn631 2.163 . S
O637 C647 1.244 . S
O638 Mn636 2.089 . S
O638 C645 1.256 . S
O639 Mn631 2.160 . S
O639 C648 1.239 . S
O640 Mn633 2.089 . S
O640 C648 1.256 . S
O641 Mn636 2.251 . S
O641 C646 1.241 . S
O642 Mn636 2.087 . S
O642 C647 1.256 . S
C643 O649 1.278 . S
C643 O650 1.241 . S
C644 O630 1.244 . S
C644 O632 1.256 . S
C645 O634 1.239 . S
C645 O638 1.256 . S
C646 O635 1.278 . S
C646 O641 1.241 . S
C647 O637 1.244 . S
C647 O642 1.256 . S
C648 O639 1.239 . S
C648 O640 1.256 . S
O649 Mn631 2.221 . S
O649 Mn633 2.290 . S
O649 C643 1.278 . S
O650 Mn633 2.251 . S
O650 C643 1.241 . S
O651 Mn652 2.167 1_655 S
O651 C665 1.242 1_554 S
Mn652 O651 2.167 1_455 S
Mn652 O655 2.160 . S
Mn652 O656 2.221 . S
Mn652 O658 2.163 1_554 S
Mn652 O660 2.160 1_455 S
Mn652 O670 2.220 1_454 S
O653 Mn654 2.087 1_556 S
O653 C665 1.256 . S
Mn654 O653 2.087 1_554 S
Mn654 O661 2.089 . S
Mn654 O670 2.287 1_554 S
Mn654 O671 2.251 1_554 S
O655 Mn652 2.160 . S
O655 C666 1.239 . S
O656 Mn652 2.221 . S
O656 Mn657 2.290 1_554 S
O656 C667 1.278 . S
Mn657 O656 2.290 1_556 S
Mn657 O659 2.083 1_556 S
Mn657 O662 2.251 1_556 S
Mn657 O663 2.087 . S
O658 Mn652 2.163 1_556 S
O658 C668 1.244 . S
O659 Mn657 2.083 1_554 S
O659 C666 1.279 . S
O660 Mn652 2.160 1_655 S
O660 C669 1.239 . S
O661 Mn654 2.089 . S
O661 C669 1.256 . S
O662 Mn657 2.251 1_554 S
O662 C667 1.241 . S
O663 Mn657 2.087 . S
O663 C668 1.256 . S
C664 O670 1.284 . S
C664 O671 1.241 . S
C665 O651 1.242 1_556 S
C665 O653 1.256 . S
C666 O655 1.239 . S
C666 O659 1.279 . S
C667 O656 1.278 . S
C667 O662 1.241 . S
C668 O658 1.244 . S
C668 O663 1.256 . S
C669 O660 1.239 . S
C669 O661 1.256 . S
O670 Mn652 2.220 1_656 S
O670 Mn654 2.287 1_556 S
O670 C664 1.284 . S
O671 Mn654 2.251 1_556 S
O671 C664 1.241 . S
H672 C680 0.929 . S
H673 C682 0.930 . S
H674 C684 0.930 . S
H675 C687 0.929 . S
H676 C690 0.930 . S
H677 C692 0.960 . S
H678 C692 0.960 . S
H679 C692 0.960 . S
C680 H672 0.929 . S
C680 C681 1.377 1_655 S
C680 C682 1.384 . S
C681 C680 1.377 1_455 S
C681 C687 1.390 . S
C682 H673 0.930 . S
C682 C680 1.384 . S
C682 C683 1.372 1_655 S
C683 C682 1.372 1_455 S
C683 C684 1.400 . S
C683 C688 1.490 1_455 S
C684 H674 0.930 . S
C684 C683 1.400 . S
C684 C687 1.386 . S
H685 C701 0.930 . S
H686 C702 0.931 . S
C687 H675 0.929 . S
C687 C681 1.390 . S
C687 C684 1.386 . S
C688 C683 1.490 1_655 S
C688 C690 1.395 . S
C688 C691 1.402 1_655 S
H689 C695 0.930 . S
C690 H676 0.930 . S
C690 C688 1.395 . S
C690 C693 1.403 . S
C691 C688 1.402 1_455 S
C691 C692 1.524 . S
C691 C695 1.400 . S
C692 H677 0.960 . S
C692 H678 0.960 . S
C692 H679 0.960 . S
C692 C691 1.524 . S
C693 C690 1.403 . S
C693 C694 1.392 . S
C693 C697 1.495 . S
C694 C693 1.392 . S
C694 C695 1.385 1_655 S
C694 C696 1.478 . S
C695 H689 0.930 . S
C695 C691 1.400 . S
C695 C694 1.385 1_455 S
C696 C694 1.478 . S
C696 C698 1.381 . S
C696 C702 1.383 1_655 S
C697 C693 1.495 . S
C697 H703 0.959 . S
C697 H704 0.961 . S
C697 H705 0.960 . S
C698 C696 1.381 . S
C698 C699 1.394 . S
C698 H706 0.930 . S
C699 C698 1.394 . S
C699 C700 1.383 . S
C699 H707 0.929 . S
C700 C699 1.383 . S
C700 C701 1.377 1_655 S
C701 H685 0.930 . S
C701 C700 1.377 1_455 S
C701 C702 1.379 . S
C702 H686 0.931 . S
C702 C696 1.383 1_455 S
C702 C701 1.379 . S
H703 C697 0.959 . S
H704 C697 0.961 . S
H705 C697 0.960 . S
H706 C698 0.930 . S
H707 C699 0.929 . S
H708 C716 0.929 . S
H709 C718 0.930 . S
H710 C720 0.930 . S
H711 C723 0.929 . S
H712 C726 0.930 . S
H713 C728 0.960 . S
H714 C728 0.960 . S
H715 C728 0.960 . S
C716 H708 0.929 . S
C716 C717 1.377 . S
C716 C718 1.384 . S
C717 C716 1.377 . S
C717 C723 1.390 . S
C718 H709 0.930 . S
C718 C716 1.384 . S
C718 C719 1.372 . S
C719 C718 1.372 . S
C719 C720 1.400 . S
C719 C724 1.490 . S
C720 H710 0.930 . S
C720 C719 1.400 . S
C720 C723 1.386 . S
H721 C737 0.930 . S
H722 C738 0.931 . S
C723 H711 0.929 . S
C723 C717 1.390 . S
C723 C720 1.386 . S
C724 C719 1.490 . S
C724 C726 1.395 . S
C724 C727 1.403 . S
H725 C731 0.930 . S
C726 H712 0.930 . S
C726 C724 1.395 . S
C726 C729 1.403 . S
C727 C724 1.403 . S
C727 C728 1.524 . S
C727 C731 1.400 . S
C728 H713 0.960 . S
C728 H714 0.960 . S
C728 H715 0.960 . S
C728 C727 1.524 . S
C729 C726 1.403 . S
C729 C730 1.392 . S
C729 C733 1.495 . S
C730 C729 1.392 . S
C730 C731 1.385 . S
C730 C732 1.478 . S
C731 H725 0.930 . S
C731 C727 1.400 . S
C731 C730 1.385 . S
C732 C730 1.478 . S
C732 C734 1.381 . S
C732 C738 1.383 . S
C733 C729 1.495 . S
C733 H739 0.959 . S
C733 H740 0.961 . S
C733 H741 0.960 . S
C734 C732 1.381 . S
C734 C735 1.394 . S
C734 H742 0.930 . S
C735 C734 1.394 . S
C735 C736 1.383 . S
C735 H743 0.929 . S
C736 C735 1.383 . S
C736 C737 1.377 . S
C737 H721 0.930 . S
C737 C736 1.377 . S
C737 C738 1.379 . S
C738 H722 0.931 . S
C738 C732 1.383 . S
C738 C737 1.379 . S
H739 C733 0.959 . S
H740 C733 0.961 . S
H741 C733 0.960 . S
H742 C734 0.930 . S
H743 C735 0.929 . S
H744 C752 0.929 . S
H745 C754 0.930 . S
H746 C756 0.930 . S
H747 C759 0.929 . S
H748 C762 0.930 . S
H749 C764 0.960 . S
H750 C764 0.960 . S
H751 C764 0.960 . S
C752 H744 0.929 . S
C752 C753 1.377 . S
C752 C754 1.384 . S
C753 C752 1.377 . S
C753 C759 1.390 . S
C754 H745 0.930 . S
C754 C752 1.384 . S
C754 C755 1.372 . S
C755 C754 1.372 . S
C755 C756 1.400 . S
C755 C760 1.490 . S
C756 H746 0.930 . S
C756 C755 1.400 . S
C756 C759 1.386 . S
H757 C773 0.930 . S
H758 C774 0.931 . S
C759 H747 0.929 . S
C759 C753 1.390 . S
C759 C756 1.386 . S
C760 C755 1.490 . S
C760 C762 1.395 . S
C760 C763 1.403 . S
H761 C767 0.930 . S
C762 H748 0.930 . S
C762 C760 1.395 . S
C762 C765 1.403 . S
C763 C760 1.403 . S
C763 C764 1.524 . S
C763 C767 1.400 . S
C764 H749 0.960 . S
C764 H750 0.960 . S
C764 H751 0.960 . S
C764 C763 1.524 . S
C765 C762 1.403 . S
C765 C766 1.392 . S
C765 C769 1.495 . S
C766 C765 1.392 . S
C766 C767 1.385 . S
C766 C768 1.478 . S
C767 H761 0.930 . S
C767 C763 1.400 . S
C767 C766 1.385 . S
C768 C766 1.478 . S
C768 C770 1.381 . S
C768 C774 1.383 . S
C769 C765 1.495 . S
C769 H775 0.959 . S
C769 H776 0.961 . S
C769 H777 0.960 . S
C770 C768 1.381 . S
C770 C771 1.394 . S
C770 H778 0.930 . S
C771 C770 1.394 . S
C771 C772 1.383 . S
C771 H779 0.929 . S
C772 C771 1.383 . S
C772 C773 1.377 . S
C773 H757 0.930 . S
C773 C772 1.377 . S
C773 C774 1.379 . S
C774 H758 0.931 . S
C774 C768 1.383 . S
C774 C773 1.379 . S
H775 C769 0.959 . S
H776 C769 0.961 . S
H777 C769 0.960 . S
H778 C770 0.930 . S
H779 C771 0.929 . S
H780 C788 0.929 . S
H781 C790 0.930 . S
H782 C792 0.930 . S
H783 C795 0.929 . S
H784 C798 0.930 . S
H785 C800 0.960 . S
H786 C800 0.960 . S
H787 C800 0.960 . S
C788 H780 0.929 . S
C788 C789 1.377 . S
C788 C790 1.384 . S
C789 C788 1.377 . S
C789 C795 1.390 . S
C790 H781 0.930 . S
C790 C788 1.384 . S
C790 C791 1.372 . S
C791 C790 1.372 . S
C791 C792 1.400 . S
C791 C796 1.490 . S
C792 H782 0.930 . S
C792 C791 1.400 . S
C792 C795 1.386 . S
H793 C809 0.930 . S
H794 C810 0.931 . S
C795 H783 0.929 . S
C795 C789 1.390 . S
C795 C792 1.386 . S
C796 C791 1.490 . S
C796 C798 1.395 . S
C796 C799 1.403 . S
H797 C803 0.930 . S
C798 H784 0.930 . S
C798 C796 1.395 . S
C798 C801 1.403 . S
C799 C796 1.403 . S
C799 C800 1.524 . S
C799 C803 1.400 . S
C800 H785 0.960 . S
C800 H786 0.960 . S
C800 H787 0.960 . S
C800 C799 1.524 . S
C801 C798 1.403 . S
C801 C802 1.392 . S
C801 C805 1.495 . S
C802 C801 1.392 . S
C802 C803 1.385 . S
C802 C804 1.478 . S
C803 H797 0.930 . S
C803 C799 1.400 . S
C803 C802 1.385 . S
C804 C802 1.478 . S
C804 C806 1.381 . S
C804 C810 1.383 . S
C805 C801 1.495 . S
C805 H811 0.959 . S
C805 H812 0.961 . S
C805 H813 0.960 . S
C806 C804 1.381 . S
C806 C807 1.394 . S
C806 H814 0.930 . S
C807 C806 1.394 . S
C807 C808 1.383 . S
C807 H815 0.929 . S
C808 C807 1.383 . S
C808 C809 1.377 . S
C809 H793 0.930 . S
C809 C808 1.377 . S
C809 C810 1.379 . S
C810 H794 0.931 . S
C810 C804 1.383 . S
C810 C809 1.379 . S
H811 C805 0.959 . S
H812 C805 0.961 . S
H813 C805 0.960 . S
H814 C806 0.930 . S
H815 C807 0.929 . S
H816 C824 0.929 . S
H817 C826 0.930 . S
H818 C828 0.930 . S
H819 C831 0.929 . S
H820 C834 0.930 . S
H821 C836 0.960 . S
H822 C836 0.960 . S
H823 C836 0.960 . S
C824 H816 0.929 . S
C824 C825 1.377 . S
C824 C826 1.384 . S
C825 C824 1.377 . S
C825 C831 1.390 1_455 S
C826 H817 0.930 . S
C826 C824 1.384 . S
C826 C827 1.372 . S
C827 C826 1.372 . S
C827 C828 1.400 1_455 S
C827 C832 1.490 . S
C828 H818 0.930 . S
C828 C827 1.400 1_655 S
C828 C831 1.386 . S
H829 C845 0.930 . S
H830 C846 0.931 . S
C831 H819 0.929 . S
C831 C825 1.390 1_655 S
C831 C828 1.386 . S
C832 C827 1.490 . S
C832 C834 1.395 . S
C832 C835 1.403 1_455 S
H833 C839 0.930 . S
C834 H820 0.930 . S
C834 C832 1.395 . S
C834 C837 1.403 . S
C835 C832 1.403 1_655 S
C835 C836 1.524 . S
C835 C839 1.400 . S
C836 H821 0.960 . S
C836 H822 0.960 . S
C836 H823 0.960 . S
C836 C835 1.524 . S
C837 C834 1.403 . S
C837 C838 1.392 . S
C837 C841 1.495 . S
C838 C837 1.392 . S
C838 C839 1.385 1_455 S
C838 C840 1.478 . S
C839 H833 0.930 . S
C839 C835 1.400 . S
C839 C838 1.385 1_655 S
C840 C838 1.478 . S
C840 C842 1.381 . S
C840 C846 1.383 1_455 S
C841 C837 1.495 . S
C841 H847 0.959 . S
C841 H848 0.961 . S
C841 H849 0.960 . S
C842 C840 1.381 . S
C842 C843 1.394 . S
C842 H850 0.930 . S
C843 C842 1.394 . S
C843 C844 1.424 . S
C843 H851 0.929 . S
C844 C843 1.424 . S
C844 C845 1.340 1_455 S
C845 H829 0.930 . S
C845 C844 1.340 1_655 S
C845 C846 1.379 . S
C846 H830 0.931 . S
C846 C840 1.383 1_655 S
C846 C845 1.379 . S
H847 C841 0.959 . S
H848 C841 0.961 . S
H849 C841 0.960 . S
H850 C842 0.930 . S
H851 C843 0.929 . S
H852 C860 0.929 . S
H853 C862 0.930 . S
H854 C864 0.930 . S
H855 C867 0.929 . S
H856 C870 0.930 . S
H857 C872 0.960 . S
H858 C872 0.960 . S
H859 C872 0.960 . S
C860 H852 0.929 . S
C860 C861 1.377 . S
C860 C862 1.384 . S
C861 C860 1.377 . S
C861 C867 1.390 . S
C862 H853 0.930 . S
C862 C860 1.384 . S
C862 C863 1.372 . S
C863 C862 1.372 . S
C863 C864 1.400 . S
C863 C868 1.490 . S
C864 H854 0.930 . S
C864 C863 1.400 . S
C864 C867 1.386 . S
H865 C881 0.930 . S
H866 C882 0.931 . S
C867 H855 0.929 . S
C867 C861 1.390 . S
C867 C864 1.386 . S
C868 C863 1.490 . S
C868 C870 1.395 . S
C868 C871 1.403 . S
H869 C875 0.930 . S
C870 H856 0.930 . S
C870 C868 1.395 . S
C870 C873 1.403 . S
C871 C868 1.403 . S
C871 C872 1.524 . S
C871 C875 1.400 . S
C872 H857 0.960 . S
C872 H858 0.960 . S
C872 H859 0.960 . S
C872 C871 1.524 . S
C873 C870 1.403 . S
C873 C874 1.392 . S
C873 C877 1.495 . S
C874 C873 1.392 . S
C874 C875 1.385 . S
C874 C876 1.478 . S
C875 H869 0.930 . S
C875 C871 1.400 . S
C875 C874 1.385 . S
C876 C874 1.478 . S
C876 C878 1.381 . S
C876 C882 1.383 . S
C877 C873 1.495 . S
C877 H883 0.959 . S
C877 H884 0.961 . S
C877 H885 0.960 . S
C878 C876 1.381 . S
C878 C879 1.394 . S
C878 H886 0.930 . S
C879 C878 1.394 . S
C879 C880 1.383 . S
C879 H887 0.929 . S
C880 C879 1.383 . S
C880 C881 1.377 . S
C881 H865 0.930 . S
C881 C880 1.377 . S
C881 C882 1.379 . S
C882 H866 0.931 . S
C882 C876 1.383 . S
C882 C881 1.379 . S
H883 C877 0.959 . S
H884 C877 0.961 . S
H885 C877 0.960 . S
H886 C878 0.930 . S
H887 C879 0.929 . S
H888 C896 0.929 . S
H889 C898 0.930 . S
H890 C900 0.930 . S
H891 C903 0.929 . S
H892 C906 0.930 . S
H893 C908 0.960 . S
H894 C908 0.960 . S
H895 C908 0.960 . S
C896 H888 0.929 . S
C896 C897 1.377 . S
C896 C898 1.384 . S
C897 C896 1.377 . S
C897 C903 1.390 . S
C898 H889 0.930 . S
C898 C896 1.384 . S
C898 C899 1.372 . S
C899 C898 1.372 . S
C899 C900 1.400 . S
C899 C904 1.490 . S
C900 H890 0.930 . S
C900 C899 1.400 . S
C900 C903 1.386 . S
H901 C917 0.930 . S
H902 C918 0.931 . S
C903 H891 0.929 . S
C903 C897 1.390 . S
C903 C900 1.386 . S
C904 C899 1.490 . S
C904 C906 1.395 . S
C904 C907 1.403 . S
H905 C911 0.930 . S
C906 H892 0.930 . S
C906 C904 1.395 . S
C906 C909 1.403 . S
C907 C904 1.403 . S
C907 C908 1.524 . S
C907 C911 1.400 . S
C908 H893 0.960 . S
C908 H894 0.960 . S
C908 H895 0.960 . S
C908 C907 1.524 . S
C909 C906 1.403 . S
C909 C910 1.392 . S
C909 C913 1.495 . S
C910 C909 1.392 . S
C910 C911 1.385 . S
C910 C912 1.478 . S
C911 H905 0.930 . S
C911 C907 1.400 . S
C911 C910 1.385 . S
C912 C910 1.478 . S
C912 C914 1.381 . S
C912 C918 1.383 . S
C913 C909 1.495 . S
C913 H919 0.959 . S
C913 H920 0.961 . S
C913 H921 0.960 . S
C914 C912 1.381 . S
C914 C915 1.394 . S
C914 H922 0.930 . S
C915 C914 1.394 . S
C915 C916 1.383 . S
C915 H923 0.929 . S
C916 C915 1.383 . S
C916 C917 1.377 . S
C917 H901 0.930 . S
C917 C916 1.377 . S
C917 C918 1.379 . S
C918 H902 0.931 . S
C918 C912 1.383 . S
C918 C917 1.379 . S
H919 C913 0.959 . S
H920 C913 0.961 . S
H921 C913 0.960 . S
H922 C914 0.930 . S
H923 C915 0.929 . S
H924 C932 0.929 . S
H925 C934 0.930 . S
H926 C936 0.930 . S
H927 C939 0.929 . S
H928 C942 0.930 . S
H929 C944 0.960 . S
H930 C944 0.960 . S
H931 C944 0.960 . S
C932 H924 0.929 . S
C932 C933 1.377 . S
C932 C934 1.384 . S
C933 C932 1.377 . S
C933 C939 1.390 . S
C934 H925 0.930 . S
C934 C932 1.384 . S
C934 C935 1.372 . S
C935 C934 1.372 . S
C935 C936 1.400 . S
C935 C940 1.490 . S
C936 H926 0.930 . S
C936 C935 1.400 . S
C936 C939 1.386 . S
H937 C953 0.930 . S
H938 C954 0.931 . S
C939 H927 0.929 . S
C939 C933 1.390 . S
C939 C936 1.386 . S
C940 C935 1.490 . S
C940 C942 1.395 . S
C940 C943 1.403 . S
H941 C947 0.930 . S
C942 H928 0.930 . S
C942 C940 1.395 . S
C942 C945 1.403 . S
C943 C940 1.403 . S
C943 C944 1.524 . S
C943 C947 1.400 . S
C944 H929 0.960 . S
C944 H930 0.960 . S
C944 H931 0.960 . S
C944 C943 1.524 . S
C945 C942 1.403 . S
C945 C946 1.392 . S
C945 C949 1.495 . S
C946 C945 1.392 . S
C946 C947 1.385 . S
C946 C948 1.478 . S
C947 H941 0.930 . S
C947 C943 1.400 . S
C947 C946 1.385 . S
C948 C946 1.478 . S
C948 C950 1.381 . S
C948 C954 1.383 . S
C949 C945 1.495 . S
C949 H955 0.959 . S
C949 H956 0.961 . S
C949 H957 0.960 . S
C950 C948 1.381 . S
C950 C951 1.394 . S
C950 H958 0.930 . S
C951 C950 1.394 . S
C951 C952 1.383 . S
C951 H959 0.929 . S
C952 C951 1.383 . S
C952 C953 1.377 . S
C953 H937 0.930 . S
C953 C952 1.377 . S
C953 C954 1.379 . S
C954 H938 0.931 . S
C954 C948 1.383 . S
C954 C953 1.379 . S
H955 C949 0.959 . S
H956 C949 0.961 . S
H957 C949 0.960 . S
H958 C950 0.930 . S
H959 C951 0.929 . S
H960 C968 0.929 . S
H961 C970 0.930 . S
H962 C972 0.930 . S
H963 C975 0.929 . S
H964 C978 0.930 . S
H965 C980 0.960 . S
H966 C980 0.960 . S
H967 C980 0.960 . S
C968 H960 0.929 . S
C968 C969 1.377 . S
C968 C970 1.384 . S
C969 C968 1.377 . S
C969 C975 1.390 1_545 S
C970 H961 0.930 . S
C970 C968 1.384 . S
C970 C971 1.372 . S
C971 C970 1.372 . S
C971 C972 1.400 1_545 S
C971 C976 1.490 . S
C972 H962 0.930 . S
C972 C971 1.400 1_565 S
C972 C975 1.386 . S
H973 C989 0.930 . S
H974 C990 0.931 . S
C975 H963 0.929 . S
C975 C969 1.390 1_565 S
C975 C972 1.386 . S
C976 C971 1.490 . S
C976 C978 1.445 . S
C976 C979 1.356 1_545 S
H977 C983 0.930 . S
C978 H964 0.930 . S
C978 C976 1.445 . S
C978 C981 1.403 . S
C979 C976 1.356 1_565 S
C979 C980 1.524 . S
C979 C983 1.400 . S
C980 H965 0.960 . S
C980 H966 0.960 . S
C980 H967 0.960 . S
C980 C979 1.524 . S
C981 C978 1.403 . S
C981 C982 1.392 . S
C981 C985 1.495 . S
C982 C981 1.392 . S
C982 C983 1.385 1_545 S
C982 C984 1.478 . S
C983 H977 0.930 . S
C983 C979 1.400 . S
C983 C982 1.385 1_565 S
C984 C982 1.478 . S
C984 C986 1.381 . S
C984 C990 1.383 1_545 S
C985 C981 1.495 . S
C985 H991 0.959 . S
C985 H992 0.961 . S
C985 H993 0.960 . S
C986 C984 1.381 . S
C986 C987 1.394 . S
C986 H994 0.930 . S
C987 C986 1.394 . S
C987 C988 1.383 1_545 S
C987 H995 0.929 . S
C988 C987 1.383 1_565 S
C988 C989 1.377 . S
C989 H973 0.930 . S
C989 C988 1.377 . S
C989 C990 1.379 . S
C990 H974 0.931 . S
C990 C984 1.383 1_565 S
C990 C989 1.379 . S
H991 C985 0.959 . S
H992 C985 0.961 . S
H993 C985 0.960 . S
H994 C986 0.930 . S
H995 C987 0.929 . S
H996 C1004 0.929 . S
H997 C1006 0.930 . S
H998 C1008 0.930 . S
H999 C1011 0.929 . S
H1000 C1014 0.930 . S
H1001 C1016 0.960 . S
H1002 C1016 0.960 . S
H1003 C1016 0.960 . S
C1004 H996 0.929 . S
C1004 C1005 1.377 . S
C1004 C1006 1.384 . S
C1005 C1004 1.377 . S
C1005 C1011 1.390 . S
C1006 H997 0.930 . S
C1006 C1004 1.384 . S
C1006 C1007 1.372 . S
C1007 C1006 1.372 . S
C1007 C1008 1.400 . S
C1007 C1012 1.490 . S
C1008 H998 0.930 . S
C1008 C1007 1.400 . S
C1008 C1011 1.386 . S
H1009 C1025 0.930 . S
H1010 C1026 0.931 . S
C1011 H999 0.929 . S
C1011 C1005 1.390 . S
C1011 C1008 1.386 . S
C1012 C1007 1.490 . S
C1012 C1014 1.395 . S
C1012 C1015 1.403 . S
H1013 C1019 0.930 . S
C1014 H1000 0.930 . S
C1014 C1012 1.395 . S
C1014 C1017 1.403 . S
C1015 C1012 1.403 . S
C1015 C1016 1.524 . S
C1015 C1019 1.400 . S
C1016 H1001 0.960 . S
C1016 H1002 0.960 . S
C1016 H1003 0.960 . S
C1016 C1015 1.524 . S
C1017 C1014 1.403 . S
C1017 C1018 1.392 . S
C1017 C1021 1.495 . S
C1018 C1017 1.392 . S
C1018 C1019 1.385 . S
C1018 C1020 1.478 . S
C1019 H1013 0.930 . S
C1019 C1015 1.400 . S
C1019 C1018 1.385 . S
C1020 C1018 1.478 . S
C1020 C1022 1.381 . S
C1020 C1026 1.383 . S
C1021 C1017 1.495 . S
C1021 H1027 0.959 . S
C1021 H1028 0.961 . S
C1021 H1029 0.960 . S
C1022 C1020 1.381 . S
C1022 C1023 1.394 . S
C1022 H1030 0.930 . S
C1023 C1022 1.394 . S
C1023 C1024 1.383 . S
C1023 H1031 0.929 . S
C1024 C1023 1.383 . S
C1024 C1025 1.377 . S
C1025 H1009 0.930 . S
C1025 C1024 1.377 . S
C1025 C1026 1.379 . S
C1026 H1010 0.931 . S
C1026 C1020 1.383 . S
C1026 C1025 1.379 . S
H1027 C1021 0.959 . S
H1028 C1021 0.961 . S
H1029 C1021 0.960 . S
H1030 C1022 0.930 . S
H1031 C1023 0.929 . S
H1032 C1040 0.929 . S
H1033 C1042 0.930 . S
H1034 C1044 0.930 . S
H1035 C1047 0.929 . S
H1036 C1050 0.930 . S
H1037 C1052 0.960 . S
H1038 C1052 0.960 . S
H1039 C1052 0.960 . S
C1040 H1032 0.929 . S
C1040 C1041 1.377 1_565 S
C1040 C1042 1.384 . S
C1041 C1040 1.377 1_545 S
C1041 C1047 1.390 . S
C1042 H1033 0.930 . S
C1042 C1040 1.384 . S
C1042 C1043 1.372 1_565 S
C1043 C1042 1.372 1_545 S
C1043 C1044 1.400 . S
C1043 C1048 1.490 . S
C1044 H1034 0.930 . S
C1044 C1043 1.400 . S
C1044 C1047 1.386 . S
H1045 C1061 0.930 . S
H1046 C1062 0.931 . S
C1047 H1035 0.929 . S
C1047 C1041 1.390 . S
C1047 C1044 1.386 . S
C1048 C1043 1.490 . S
C1048 C1050 1.395 1_545 S
C1048 C1051 1.403 . S
H1049 C1055 0.930 . S
C1050 H1036 0.930 . S
C1050 C1048 1.395 1_565 S
C1050 C1053 1.403 . S
C1051 C1048 1.403 . S
C1051 C1052 1.524 . S
C1051 C1055 1.400 . S
C1052 H1037 0.960 . S
C1052 H1038 0.960 . S
C1052 H1039 0.960 . S
C1052 C1051 1.524 . S
C1053 C1050 1.403 . S
C1053 C1054 1.392 1_565 S
C1053 C1057 1.495 . S
C1054 C1053 1.392 1_545 S
C1054 C1055 1.385 . S
C1054 C1056 1.478 . S
C1055 H1049 0.930 . S
C1055 C1051 1.400 . S
C1055 C1054 1.385 . S
C1056 C1054 1.478 . S
C1056 C1058 1.381 1_545 S
C1056 C1062 1.383 . S
C1057 C1053 1.495 . S
C1057 H1063 0.959 . S
C1057 H1064 0.961 . S
C1057 H1065 0.960 . S
C1058 C1056 1.381 1_565 S
C1058 C1059 1.394 . S
C1058 H1066 0.930 . S
C1059 C1058 1.394 . S
C1059 C1060 1.383 1_565 S
C1059 H1067 0.929 . S
C1060 C1059 1.383 1_545 S
C1060 C1061 1.377 . S
C1061 H1045 0.930 . S
C1061 C1060 1.377 . S
C1061 C1062 1.379 . S
C1062 H1046 0.931 . S
C1062 C1056 1.383 . S
C1062 C1061 1.379 . S
H1063 C1057 0.959 . S
H1064 C1057 0.961 . S
H1065 C1057 0.960 . S
H1066 C1058 0.930 . S
H1067 C1059 0.929 . S
H1068 C1076 0.929 . S
H1069 C1078 0.930 . S
H1070 C1080 0.930 . S
H1071 C1083 0.929 . S
H1072 C1086 0.930 . S
H1073 C1088 0.960 . S
H1074 C1088 0.960 . S
H1075 C1088 0.960 . S
C1076 H1068 0.929 . S
C1076 C1077 1.377 . S
C1076 C1078 1.384 . S
C1077 C1076 1.377 . S
C1077 C1083 1.390 . S
C1078 H1069 0.930 . S
C1078 C1076 1.384 . S
C1078 C1079 1.372 . S
C1079 C1078 1.372 . S
C1079 C1080 1.400 . S
C1079 C1084 1.490 . S
C1080 H1070 0.930 . S
C1080 C1079 1.400 . S
C1080 C1083 1.386 . S
H1081 C1097 0.930 . S
H1082 C1098 0.931 . S
C1083 H1071 0.929 . S
C1083 C1077 1.390 . S
C1083 C1080 1.386 . S
C1084 C1079 1.490 . S
C1084 C1086 1.395 . S
C1084 C1087 1.403 . S
H1085 C1091 0.930 . S
C1086 H1072 0.930 . S
C1086 C1084 1.395 . S
C1086 C1089 1.403 . S
C1087 C1084 1.403 . S
C1087 C1088 1.524 . S
C1087 C1091 1.400 . S
C1088 H1073 0.960 . S
C1088 H1074 0.960 . S
C1088 H1075 0.960 . S
C1088 C1087 1.524 . S
C1089 C1086 1.403 . S
C1089 C1090 1.392 . S
C1089 C1093 1.495 . S
C1090 C1089 1.392 . S
C1090 C1091 1.385 . S
C1090 C1092 1.478 . S
C1091 H1085 0.930 . S
C1091 C1087 1.400 . S
C1091 C1090 1.385 . S
C1092 C1090 1.478 . S
C1092 C1094 1.381 . S
C1092 C1098 1.383 . S
C1093 C1089 1.495 . S
C1093 H1099 0.959 . S
C1093 H1100 0.961 . S
C1093 H1101 0.960 . S
C1094 C1092 1.381 . S
C1094 C1095 1.394 . S
C1094 H1102 0.930 . S
C1095 C1094 1.394 . S
C1095 C1096 1.383 . S
C1095 H1103 0.929 . S
C1096 C1095 1.383 . S
C1096 C1097 1.377 . S
C1097 H1081 0.930 . S
C1097 C1096 1.377 . S
C1097 C1098 1.379 . S
C1098 H1082 0.931 . S
C1098 C1092 1.383 . S
C1098 C1097 1.379 . S
H1099 C1093 0.959 . S
H1100 C1093 0.961 . S
H1101 C1093 0.960 . S
H1102 C1094 0.930 . S
H1103 C1095 0.929 . S
H1104 C1112 0.929 . S
H1105 C1114 0.930 . S
H1106 C1116 0.930 . S
H1107 C1119 0.929 . S
H1108 C1122 0.930 . S
H1109 C1124 0.960 . S
H1110 C1124 0.960 . S
H1111 C1124 0.960 1_545 S
C1112 H1104 0.929 . S
C1112 C1113 1.377 1_565 S
C1112 C1114 1.384 . S
C1113 C1112 1.377 1_545 S
C1113 C1119 1.390 . S
C1114 H1105 0.930 . S
C1114 C1112 1.384 . S
C1114 C1115 1.372 1_565 S
C1115 C1114 1.372 1_545 S
C1115 C1116 1.400 . S
C1115 C1120 1.490 . S
C1116 H1106 0.930 . S
C1116 C1115 1.400 . S
C1116 C1119 1.386 . S
H1117 C1133 0.930 . S
H1118 C1134 0.931 . S
C1119 H1107 0.929 . S
C1119 C1113 1.390 . S
C1119 C1116 1.386 . S
C1120 C1115 1.490 . S
C1120 C1122 1.395 . S
C1120 C1123 1.403 1_545 S
H1121 C1127 0.930 1_565 S
C1122 H1108 0.930 . S
C1122 C1120 1.395 . S
C1122 C1125 1.403 . S
C1123 C1120 1.403 1_565 S
C1123 C1124 1.523 . S
C1123 C1127 1.400 1_565 S
C1124 H1109 0.960 . S
C1124 H1110 0.960 . S
C1124 H1111 0.960 1_565 S
C1124 C1123 1.523 . S
C1125 C1122 1.403 . S
C1125 C1126 1.392 . S
C1125 C1129 1.495 . S
C1126 C1125 1.392 . S
C1126 C1127 1.385 . S
C1126 C1128 1.478 . S
C1127 H1121 0.930 1_545 S
C1127 C1123 1.400 1_545 S
C1127 C1126 1.385 . S
C1128 C1126 1.478 . S
C1128 C1130 1.381 1_545 S
C1128 C1134 1.383 . S
C1129 C1125 1.495 . S
C1129 H1135 0.959 . S
C1129 H1136 0.961 . S
C1129 H1137 0.960 . S
C1130 C1128 1.381 1_565 S
C1130 C1131 1.394 . S
C1130 H1138 0.930 . S
C1131 C1130 1.394 . S
C1131 C1132 1.383 1_565 S
C1131 H1139 0.929 . S
C1132 C1131 1.383 1_545 S
C1132 C1133 1.377 . S
C1133 H1117 0.930 . S
C1133 C1132 1.377 . S
C1133 C1134 1.379 . S
C1134 H1118 0.931 . S
C1134 C1128 1.383 . S
C1134 C1133 1.379 . S
H1135 C1129 0.959 . S
H1136 C1129 0.961 . S
H1137 C1129 0.960 . S
H1138 C1130 0.930 . S
H1139 C1131 0.929 . S
H1140 C1148 0.929 . S
H1141 C1150 0.930 . S
H1142 C1152 0.930 . S
H1143 C1155 0.929 . S
H1144 C1158 0.930 . S
H1145 C1160 0.960 . S
H1146 C1160 0.960 . S
H1147 C1160 0.960 . S
C1148 H1140 0.929 . S
C1148 C1149 1.377 . S
C1148 C1150 1.384 . S
C1149 C1148 1.377 . S
C1149 C1155 1.390 . S
C1150 H1141 0.930 . S
C1150 C1148 1.384 . S
C1150 C1151 1.372 . S
C1151 C1150 1.372 . S
C1151 C1152 1.400 . S
C1151 C1156 1.490 . S
C1152 H1142 0.930 . S
C1152 C1151 1.400 . S
C1152 C1155 1.386 . S
H1153 C1169 0.930 . S
H1154 C1170 0.931 . S
C1155 H1143 0.929 . S
C1155 C1149 1.390 . S
C1155 C1152 1.386 . S
C1156 C1151 1.490 . S
C1156 C1158 1.395 . S
C1156 C1159 1.403 . S
H1157 C1163 0.930 . S
C1158 H1144 0.930 . S
C1158 C1156 1.395 . S
C1158 C1161 1.403 . S
C1159 C1156 1.403 . S
C1159 C1160 1.524 . S
C1159 C1163 1.400 . S
C1160 H1145 0.960 . S
C1160 H1146 0.960 . S
C1160 H1147 0.960 . S
C1160 C1159 1.524 . S
C1161 C1158 1.403 . S
C1161 C1162 1.392 . S
C1161 C1165 1.495 . S
C1162 C1161 1.392 . S
C1162 C1163 1.385 . S
C1162 C1164 1.478 . S
C1163 H1157 0.930 . S
C1163 C1159 1.400 . S
C1163 C1162 1.385 . S
C1164 C1162 1.478 . S
C1164 C1166 1.381 . S
C1164 C1170 1.383 . S
C1165 C1161 1.495 . S
C1165 H1171 0.959 . S
C1165 H1172 0.961 . S
C1165 H1173 0.960 . S
C1166 C1164 1.381 . S
C1166 C1167 1.394 . S
C1166 H1174 0.930 . S
C1167 C1166 1.394 . S
C1167 C1168 1.383 . S
C1167 H1175 0.929 . S
C1168 C1167 1.383 . S
C1168 C1169 1.377 . S
C1169 H1153 0.930 . S
C1169 C1168 1.377 . S
C1169 C1170 1.379 . S
C1170 H1154 0.931 . S
C1170 C1164 1.383 . S
C1170 C1169 1.379 . S
H1171 C1165 0.959 . S
H1172 C1165 0.961 . S
H1173 C1165 0.960 . S
H1174 C1166 0.930 . S
H1175 C1167 0.929 . S
H1176 C1184 0.929 . S
H1177 C1186 0.930 . S
H1178 C1188 0.930 . S
H1179 C1191 0.929 . S
H1180 C1194 0.930 . S
H1181 C1196 0.960 . S
H1182 C1196 0.960 . S
H1183 C1196 0.960 . S
C1184 H1176 0.929 . S
C1184 C1185 1.377 1_565 S
C1184 C1186 1.384 . S
C1185 C1184 1.377 1_545 S
C1185 C1191 1.390 . S
C1186 H1177 0.930 . S
C1186 C1184 1.384 . S
C1186 C1187 1.372 1_565 S
C1187 C1186 1.372 1_545 S
C1187 C1188 1.400 . S
C1187 C1192 1.493 . S
C1188 H1178 0.930 . S
C1188 C1187 1.400 . S
C1188 C1191 1.386 . S
H1189 C1205 0.930 . S
H1190 C1206 0.931 . S
C1191 H1179 0.929 . S
C1191 C1185 1.390 . S
C1191 C1188 1.386 . S
C1192 C1187 1.493 . S
C1192 C1194 1.377 1_545 S
C1192 C1195 1.418 . S
H1193 C1199 0.930 . S
C1194 H1180 0.930 . S
C1194 C1192 1.377 1_565 S
C1194 C1197 1.403 . S
C1195 C1192 1.418 . S
C1195 C1196 1.524 . S
C1195 C1199 1.400 . S
C1196 H1181 0.960 . S
C1196 H1182 0.960 . S
C1196 H1183 0.960 . S
C1196 C1195 1.524 . S
C1197 C1194 1.403 . S
C1197 C1198 1.392 . S
C1197 C1201 1.495 . S
C1198 C1197 1.392 . S
C1198 C1199 1.385 1_565 S
C1198 C1200 1.478 . S
C1199 H1193 0.930 . S
C1199 C1195 1.400 . S
C1199 C1198 1.385 1_545 S
C1200 C1198 1.478 . S
C1200 C1202 1.381 . S
C1200 C1206 1.383 1_565 S
C1201 C1197 1.495 . S
C1201 H1207 0.959 . S
C1201 H1208 0.961 . S
C1201 H1209 0.960 . S
C1202 C1200 1.381 . S
C1202 C1203 1.394 . S
C1202 H1210 0.930 . S
C1203 C1202 1.394 . S
C1203 C1204 1.383 . S
C1203 H1211 0.929 . S
C1204 C1203 1.383 . S
C1204 C1205 1.377 1_565 S
C1205 H1189 0.930 . S
C1205 C1204 1.377 1_545 S
C1205 C1206 1.379 . S
C1206 H1190 0.931 . S
C1206 C1200 1.383 1_545 S
C1206 C1205 1.379 . S
H1207 C1201 0.959 . S
H1208 C1201 0.961 . S
H1209 C1201 0.960 . S
H1210 C1202 0.930 . S
H1211 C1203 0.929 . S
H1212 C1220 0.929 . S
H1213 C1222 0.930 . S
H1214 C1224 0.930 . S
H1215 C1227 0.929 . S
H1216 C1230 0.930 . S
H1217 C1232 0.960 . S
H1218 C1232 0.960 . S
H1219 C1232 0.960 . S
C1220 H1212 0.929 . S
C1220 C1221 1.377 . S
C1220 C1222 1.384 . S
C1221 C1220 1.377 . S
C1221 C1227 1.390 . S
C1222 H1213 0.930 . S
C1222 C1220 1.384 . S
C1222 C1223 1.372 . S
C1223 C1222 1.372 . S
C1223 C1224 1.400 . S
C1223 C1228 1.490 . S
C1224 H1214 0.930 . S
C1224 C1223 1.400 . S
C1224 C1227 1.386 . S
H1225 C1241 0.930 . S
H1226 C1242 0.931 . S
C1227 H1215 0.929 . S
C1227 C1221 1.390 . S
C1227 C1224 1.386 . S
C1228 C1223 1.490 . S
C1228 C1230 1.395 . S
C1228 C1231 1.403 . S
H1229 C1235 0.930 . S
C1230 H1216 0.930 . S
C1230 C1228 1.395 . S
C1230 C1233 1.403 . S
C1231 C1228 1.403 . S
C1231 C1232 1.524 . S
C1231 C1235 1.400 . S
C1232 H1217 0.960 . S
C1232 H1218 0.960 . S
C1232 H1219 0.960 . S
C1232 C1231 1.524 . S
C1233 C1230 1.403 . S
C1233 C1234 1.392 . S
C1233 C1237 1.495 . S
C1234 C1233 1.392 . S
C1234 C1235 1.385 . S
C1234 C1236 1.478 . S
C1235 H1229 0.930 . S
C1235 C1231 1.400 . S
C1235 C1234 1.385 . S
C1236 C1234 1.478 . S
C1236 C1238 1.381 . S
C1236 C1242 1.383 . S
C1237 C1233 1.495 . S
C1237 H1243 0.959 . S
C1237 H1244 0.961 . S
C1237 H1245 0.960 . S
C1238 C1236 1.381 . S
C1238 C1239 1.394 . S
C1238 H1246 0.930 . S
C1239 C1238 1.394 . S
C1239 C1240 1.383 . S
C1239 H1247 0.929 . S
C1240 C1239 1.383 . S
C1240 C1241 1.377 . S
C1241 H1225 0.930 . S
C1241 C1240 1.377 . S
C1241 C1242 1.379 . S
C1242 H1226 0.931 . S
C1242 C1236 1.383 . S
C1242 C1241 1.379 . S
H1243 C1237 0.959 . S
H1244 C1237 0.961 . S
H1245 C1237 0.960 . S
H1246 C1238 0.930 . S
H1247 C1239 0.929 . S
H1248 C1256 0.929 . S
H1249 C1258 0.930 . S
H1250 C1260 0.930 . S
H1251 C1263 0.929 . S
H1252 C1266 0.930 . S
H1253 C1268 0.960 . S
H1254 C1268 0.960 . S
H1255 C1268 0.960 . S
C1256 H1248 0.929 . S
C1256 C1257 1.377 . S
C1256 C1258 1.384 . S
C1257 C1256 1.377 . S
C1257 C1263 1.390 1_554 S
C1258 H1249 0.930 . S
C1258 C1256 1.384 . S
C1258 C1259 1.372 . S
C1259 C1258 1.372 . S
C1259 C1260 1.400 1_554 S
C1259 C1264 1.490 . S
C1260 H1250 0.930 . S
C1260 C1259 1.400 1_556 S
C1260 C1263 1.386 . S
H1261 C1277 0.930 . S
H1262 C1278 0.931 . S
C1263 H1251 0.929 . S
C1263 C1257 1.390 1_556 S
C1263 C1260 1.386 . S
C1264 C1259 1.490 . S
C1264 C1266 1.395 1_554 S
C1264 C1267 1.403 . S
H1265 C1271 0.930 . S
C1266 H1252 0.930 . S
C1266 C1264 1.395 1_556 S
C1266 C1269 1.403 . S
C1267 C1264 1.403 . S
C1267 C1268 1.524 . S
C1267 C1271 1.400 . S
C1268 H1253 0.960 . S
C1268 H1254 0.960 . S
C1268 H1255 0.960 . S
C1268 C1267 1.524 . S
C1269 C1266 1.403 . S
C1269 C1270 1.387 1_556 S
C1269 C1273 1.495 . S
C1270 C1269 1.387 1_554 S
C1270 C1271 1.392 . S
C1270 C1272 1.476 1_554 S
C1271 H1265 0.930 . S
C1271 C1267 1.400 . S
C1271 C1270 1.392 . S
C1272 C1270 1.476 1_556 S
C1272 C1274 1.353 1_556 S
C1272 C1278 1.413 . S
C1273 C1269 1.495 . S
C1273 H1279 0.959 . S
C1273 H1280 0.961 . S
C1273 H1281 0.928 1_556 S
C1274 C1272 1.353 1_554 S
C1274 C1275 1.394 . S
C1274 H1282 0.930 . S
C1275 C1274 1.394 . S
C1275 C1276 1.383 1_554 S
C1275 H1283 0.929 . S
C1276 C1275 1.383 1_556 S
C1276 C1277 1.377 . S
C1277 H1261 0.930 . S
C1277 C1276 1.377 . S
C1277 C1278 1.379 . S
C1278 H1262 0.931 . S
C1278 C1272 1.413 . S
C1278 C1277 1.379 . S
H1279 C1273 0.959 . S
H1280 C1273 0.961 . S
H1281 C1273 0.928 1_554 S
H1282 C1274 0.930 . S
H1283 C1275 0.929 . S
H1284 C1292 0.929 . S
H1285 C1294 0.930 . S
H1286 C1296 0.930 . S
H1287 C1299 0.929 . S
H1288 C1302 0.930 . S
H1289 C1304 0.960 . S
H1290 C1304 0.960 . S
H1291 C1304 0.960 . S
C1292 H1284 0.929 . S
C1292 C1293 1.377 1_556 S
C1292 C1294 1.384 . S
C1293 C1292 1.377 1_554 S
C1293 C1299 1.390 . S
C1294 H1285 0.930 . S
C1294 C1292 1.384 . S
C1294 C1295 1.372 1_556 S
C1295 C1294 1.372 1_554 S
C1295 C1296 1.400 . S
C1295 C1300 1.490 . S
C1296 H1286 0.930 . S
C1296 C1295 1.400 . S
C1296 C1299 1.386 . S
H1297 C1313 0.930 . S
H1298 C1314 0.931 . S
C1299 H1287 0.929 . S
C1299 C1293 1.390 . S
C1299 C1296 1.386 . S
C1300 C1295 1.490 . S
C1300 C1302 1.395 1_554 S
C1300 C1303 1.403 . S
H1301 C1307 0.930 . S
C1302 H1288 0.930 . S
C1302 C1300 1.395 1_556 S
C1302 C1305 1.403 . S
C1303 C1300 1.403 . S
C1303 C1304 1.524 . S
C1303 C1307 1.400 . S
C1304 H1289 0.960 . S
C1304 H1290 0.960 . S
C1304 H1291 0.960 . S
C1304 C1303 1.524 . S
C1305 C1302 1.403 . S
C1305 C1306 1.392 1_556 S
C1305 C1309 1.495 . S
C1306 C1305 1.392 1_554 S
C1306 C1307 1.385 . S
C1306 C1308 1.478 . S
C1307 H1301 0.930 . S
C1307 C1303 1.400 . S
C1307 C1306 1.385 . S
C1308 C1306 1.478 . S
C1308 C1310 1.381 1_554 S
C1308 C1314 1.383 . S
C1309 C1305 1.495 . S
C1309 H1315 0.959 . S
C1309 H1316 0.961 . S
C1309 H1317 0.960 . S
C1310 C1308 1.381 1_556 S
C1310 C1311 1.394 . S
C1310 H1318 0.930 . S
C1311 C1310 1.394 . S
C1311 C1312 1.383 1_556 S
C1311 H1319 0.929 . S
C1312 C1311 1.383 1_554 S
C1312 C1313 1.377 . S
C1313 H1297 0.930 . S
C1313 C1312 1.377 . S
C1313 C1314 1.379 . S
C1314 H1298 0.931 . S
C1314 C1308 1.383 . S
C1314 C1313 1.379 . S
H1315 C1309 0.959 . S
H1316 C1309 0.961 . S
H1317 C1309 0.960 . S
H1318 C1310 0.930 . S
H1319 C1311 0.929 . S
H1320 C1328 0.929 . S
H1321 C1330 0.930 . S
H1322 C1332 0.930 . S
H1323 C1335 0.929 . S
H1324 C1338 0.930 . S
H1325 C1340 0.960 . S
H1326 C1340 0.960 . S
H1327 C1340 0.960 . S
C1328 H1320 0.929 . S
C1328 C1329 1.377 . S
C1328 C1330 1.384 . S
C1329 C1328 1.377 . S
C1329 C1335 1.390 . S
C1330 H1321 0.930 . S
C1330 C1328 1.384 . S
C1330 C1331 1.372 . S
C1331 C1330 1.372 . S
C1331 C1332 1.400 . S
C1331 C1336 1.490 . S
C1332 H1322 0.930 . S
C1332 C1331 1.400 . S
C1332 C1335 1.386 . S
H1333 C1349 0.930 . S
H1334 C1350 0.931 . S
C1335 H1323 0.929 . S
C1335 C1329 1.390 . S
C1335 C1332 1.386 . S
C1336 C1331 1.490 . S
C1336 C1338 1.395 . S
C1336 C1339 1.403 . S
H1337 C1343 0.930 . S
C1338 H1324 0.930 . S
C1338 C1336 1.395 . S
C1338 C1341 1.403 . S
C1339 C1336 1.403 . S
C1339 C1340 1.524 . S
C1339 C1343 1.400 . S
C1340 H1325 0.960 . S
C1340 H1326 0.960 . S
C1340 H1327 0.960 . S
C1340 C1339 1.524 . S
C1341 C1338 1.403 . S
C1341 C1342 1.392 . S
C1341 C1345 1.495 . S
C1342 C1341 1.392 . S
C1342 C1343 1.385 . S
C1342 C1344 1.478 . S
C1343 H1337 0.930 . S
C1343 C1339 1.400 . S
C1343 C1342 1.385 . S
C1344 C1342 1.478 . S
C1344 C1346 1.381 . S
C1344 C1350 1.383 . S
C1345 C1341 1.495 . S
C1345 H1351 0.959 . S
C1345 H1352 0.961 . S
C1345 H1353 0.960 . S
C1346 C1344 1.381 . S
C1346 C1347 1.394 . S
C1346 H1354 0.930 . S
C1347 C1346 1.394 . S
C1347 C1348 1.383 . S
C1347 H1355 0.929 . S
C1348 C1347 1.383 . S
C1348 C1349 1.377 . S
C1349 H1333 0.930 . S
C1349 C1348 1.377 . S
C1349 C1350 1.379 . S
C1350 H1334 0.931 . S
C1350 C1344 1.383 . S
C1350 C1349 1.379 . S
H1351 C1345 0.959 . S
H1352 C1345 0.961 . S
H1353 C1345 0.960 . S
H1354 C1346 0.930 . S
H1355 C1347 0.929 . S
H1356 C1364 0.929 . S
H1357 C1366 0.930 . S
H1358 C1368 0.930 . S
H1359 C1371 0.929 . S
H1360 C1374 0.930 . S
H1361 C1376 0.960 . S
H1362 C1376 0.960 . S
H1363 C1376 0.960 . S
C1364 H1356 0.929 . S
C1364 C1365 1.377 . S
C1364 C1366 1.384 . S
C1365 C1364 1.377 . S
C1365 C1371 1.390 . S
C1366 H1357 0.930 . S
C1366 C1364 1.384 . S
C1366 C1367 1.372 . S
C1367 C1366 1.372 . S
C1367 C1368 1.400 . S
C1367 C1372 1.490 . S
C1368 H1358 0.930 . S
C1368 C1367 1.400 . S
C1368 C1371 1.386 . S
H1369 C1385 0.930 . S
H1370 C1386 0.931 . S
C1371 H1359 0.929 . S
C1371 C1365 1.390 . S
C1371 C1368 1.386 . S
C1372 C1367 1.490 . S
C1372 C1374 1.395 . S
C1372 C1375 1.403 . S
H1373 C1379 0.930 . S
C1374 H1360 0.930 . S
C1374 C1372 1.395 . S
C1374 C1377 1.403 . S
C1375 C1372 1.403 . S
C1375 C1376 1.524 . S
C1375 C1379 1.400 . S
C1376 H1361 0.960 . S
C1376 H1362 0.960 . S
C1376 H1363 0.960 . S
C1376 C1375 1.524 . S
C1377 C1374 1.403 . S
C1377 C1378 1.392 . S
C1377 C1381 1.495 . S
C1378 C1377 1.392 . S
C1378 C1379 1.385 . S
C1378 C1380 1.478 . S
C1379 H1373 0.930 . S
C1379 C1375 1.400 . S
C1379 C1378 1.385 . S
C1380 C1378 1.478 . S
C1380 C1382 1.381 . S
C1380 C1386 1.383 . S
C1381 C1377 1.495 . S
C1381 H1387 0.959 . S
C1381 H1388 0.961 . S
C1381 H1389 0.960 . S
C1382 C1380 1.381 . S
C1382 C1383 1.394 . S
C1382 H1390 0.930 . S
C1383 C1382 1.394 . S
C1383 C1384 1.383 . S
C1383 H1391 0.929 . S
C1384 C1383 1.383 . S
C1384 C1385 1.377 . S
C1385 H1369 0.930 . S
C1385 C1384 1.377 . S
C1385 C1386 1.379 . S
C1386 H1370 0.931 . S
C1386 C1380 1.383 . S
C1386 C1385 1.379 . S
H1387 C1381 0.959 . S
H1388 C1381 0.961 . S
H1389 C1381 0.960 . S
H1390 C1382 0.930 . S
H1391 C1383 0.929 . S
H1392 C1400 0.929 . S
H1393 C1402 0.930 . S
H1394 C1404 0.930 . S
H1395 C1407 0.929 . S
H1396 C1410 0.930 . S
H1397 C1412 0.960 . S
H1398 C1412 0.960 . S
H1399 C1412 0.960 . S
C1400 H1392 0.929 . S
C1400 C1401 1.377 . S
C1400 C1402 1.384 . S
C1401 C1400 1.377 . S
C1401 C1407 1.390 . S
C1402 H1393 0.930 . S
C1402 C1400 1.384 . S
C1402 C1403 1.372 . S
C1403 C1402 1.372 . S
C1403 C1404 1.400 . S
C1403 C1408 1.490 . S
C1404 H1394 0.930 . S
C1404 C1403 1.400 . S
C1404 C1407 1.386 . S
H1405 C1421 0.930 . S
H1406 C1422 0.931 . S
C1407 H1395 0.929 . S
C1407 C1401 1.390 . S
C1407 C1404 1.386 . S
C1408 C1403 1.490 . S
C1408 C1410 1.395 . S
C1408 C1411 1.403 . S
H1409 C1415 0.930 . S
C1410 H1396 0.930 . S
C1410 C1408 1.395 . S
C1410 C1413 1.403 . S
C1411 C1408 1.403 . S
C1411 C1412 1.524 . S
C1411 C1415 1.400 . S
C1412 H1397 0.960 . S
C1412 H1398 0.960 . S
C1412 H1399 0.960 . S
C1412 C1411 1.524 . S
C1413 C1410 1.403 . S
C1413 C1414 1.392 . S
C1413 C1417 1.495 . S
C1414 C1413 1.392 . S
C1414 C1415 1.385 . S
C1414 C1416 1.478 . S
C1415 H1409 0.930 . S
C1415 C1411 1.400 . S
C1415 C1414 1.385 . S
C1416 C1414 1.478 . S
C1416 C1418 1.381 . S
C1416 C1422 1.383 . S
C1417 C1413 1.495 . S
C1417 H1423 0.959 . S
C1417 H1424 0.961 . S
C1417 H1425 0.960 . S
C1418 C1416 1.381 . S
C1418 C1419 1.394 . S
C1418 H1426 0.930 . S
C1419 C1418 1.394 . S
C1419 C1420 1.383 . S
C1419 H1427 0.929 . S
C1420 C1419 1.383 . S
C1420 C1421 1.377 . S
C1421 H1405 0.930 . S
C1421 C1420 1.377 . S
C1421 C1422 1.379 . S
C1422 H1406 0.931 . S
C1422 C1416 1.383 . S
C1422 C1421 1.379 . S
H1423 C1417 0.959 . S
H1424 C1417 0.961 . S
H1425 C1417 0.960 . S
H1426 C1418 0.930 . S
H1427 C1419 0.929 . S
H1428 C1436 0.929 . S
H1429 C1438 0.930 . S
H1430 C1440 0.930 . S
H1431 C1443 0.929 . S
H1432 C1446 0.930 . S
H1433 C1448 0.960 . S
H1434 C1448 0.960 . S
H1435 C1448 0.960 . S
C1436 H1428 0.929 . S
C1436 C1437 1.377 . S
C1436 C1438 1.384 . S
C1437 C1436 1.377 . S
C1437 C1443 1.390 . S
C1438 H1429 0.930 . S
C1438 C1436 1.384 . S
C1438 C1439 1.372 . S
C1439 C1438 1.372 . S
C1439 C1440 1.400 . S
C1439 C1444 1.490 . S
C1440 H1430 0.930 . S
C1440 C1439 1.400 . S
C1440 C1443 1.386 . S
H1441 C1457 0.930 . S
H1442 C1458 0.931 . S
C1443 H1431 0.929 . S
C1443 C1437 1.390 . S
C1443 C1440 1.386 . S
C1444 C1439 1.490 . S
C1444 C1446 1.395 . S
C1444 C1447 1.403 . S
H1445 C1451 0.930 . S
C1446 H1432 0.930 . S
C1446 C1444 1.395 . S
C1446 C1449 1.403 . S
C1447 C1444 1.403 . S
C1447 C1448 1.524 . S
C1447 C1451 1.400 . S
C1448 H1433 0.960 . S
C1448 H1434 0.960 . S
C1448 H1435 0.960 . S
C1448 C1447 1.524 . S
C1449 C1446 1.403 . S
C1449 C1450 1.392 . S
C1449 C1453 1.495 . S
C1450 C1449 1.392 . S
C1450 C1451 1.385 . S
C1450 C1452 1.478 . S
C1451 H1445 0.930 . S
C1451 C1447 1.400 . S
C1451 C1450 1.385 . S
C1452 C1450 1.478 . S
C1452 C1454 1.381 . S
C1452 C1458 1.383 . S
C1453 C1449 1.495 . S
C1453 H1459 0.959 . S
C1453 H1460 0.961 . S
C1453 H1461 0.960 . S
C1454 C1452 1.381 . S
C1454 C1455 1.394 . S
C1454 H1462 0.930 . S
C1455 C1454 1.394 . S
C1455 C1456 1.383 . S
C1455 H1463 0.929 . S
C1456 C1455 1.383 . S
C1456 C1457 1.377 . S
C1457 H1441 0.930 . S
C1457 C1456 1.377 . S
C1457 C1458 1.379 . S
C1458 H1442 0.931 . S
C1458 C1452 1.383 . S
C1458 C1457 1.379 . S
H1459 C1453 0.959 . S
H1460 C1453 0.961 . S
H1461 C1453 0.960 . S
H1462 C1454 0.930 . S
H1463 C1455 0.929 . S
H1464 C1472 0.929 . S
H1465 C1474 0.930 . S
H1466 C1476 0.930 . S
H1467 C1479 0.929 . S
H1468 C1482 0.930 . S
H1469 C1484 0.960 . S
H1470 C1484 0.960 . S
H1471 C1484 0.960 . S
C1472 H1464 0.929 . S
C1472 C1473 1.377 . S
C1472 C1474 1.384 . S
C1473 C1472 1.377 . S
C1473 C1479 1.390 . S
C1474 H1465 0.930 . S
C1474 C1472 1.384 . S
C1474 C1475 1.372 . S
C1475 C1474 1.372 . S
C1475 C1476 1.400 . S
C1475 C1480 1.490 . S
C1476 H1466 0.930 . S
C1476 C1475 1.400 . S
C1476 C1479 1.386 . S
H1477 C1493 0.930 . S
H1478 C1494 0.931 . S
C1479 H1467 0.929 . S
C1479 C1473 1.390 . S
C1479 C1476 1.386 . S
C1480 C1475 1.490 . S
C1480 C1482 1.395 . S
C1480 C1483 1.403 . S
H1481 C1487 0.930 . S
C1482 H1468 0.930 . S
C1482 C1480 1.395 . S
C1482 C1485 1.403 . S
C1483 C1480 1.403 . S
C1483 C1484 1.524 . S
C1483 C1487 1.400 . S
C1484 H1469 0.960 . S
C1484 H1470 0.960 . S
C1484 H1471 0.960 . S
C1484 C1483 1.524 . S
C1485 C1482 1.403 . S
C1485 C1486 1.392 . S
C1485 C1489 1.495 . S
C1486 C1485 1.392 . S
C1486 C1487 1.385 . S
C1486 C1488 1.478 . S
C1487 H1481 0.930 . S
C1487 C1483 1.400 . S
C1487 C1486 1.385 . S
C1488 C1486 1.478 . S
C1488 C1490 1.381 . S
C1488 C1494 1.383 . S
C1489 C1485 1.495 . S
C1489 H1495 0.959 . S
C1489 H1496 0.961 . S
C1489 H1497 0.960 . S
C1490 C1488 1.381 . S
C1490 C1491 1.394 . S
C1490 H1498 0.930 . S
C1491 C1490 1.394 . S
C1491 C1492 1.383 . S
C1491 H1499 0.929 . S
C1492 C1491 1.383 . S
C1492 C1493 1.377 . S
C1493 H1477 0.930 . S
C1493 C1492 1.377 . S
C1493 C1494 1.379 . S
C1494 H1478 0.931 . S
C1494 C1488 1.383 . S
C1494 C1493 1.379 . S
H1495 C1489 0.959 . S
H1496 C1489 0.961 . S
H1497 C1489 0.960 . S
H1498 C1490 0.930 . S
H1499 C1491 0.929 . S
H1500 C1508 0.929 . S
H1501 C1510 0.930 . S
H1502 C1512 0.930 . S
H1503 C1515 0.929 . S
H1504 C1518 0.930 . S
H1505 C1520 0.960 . S
H1506 C1520 0.960 . S
H1507 C1520 0.960 . S
C1508 H1500 0.929 . S
C1508 C1509 1.377 . S
C1508 C1510 1.384 . S
C1509 C1508 1.377 . S
C1509 C1515 1.390 . S
C1510 H1501 0.930 . S
C1510 C1508 1.384 . S
C1510 C1511 1.372 . S
C1511 C1510 1.372 . S
C1511 C1512 1.400 . S
C1511 C1516 1.490 . S
C1512 H1502 0.930 . S
C1512 C1511 1.400 . S
C1512 C1515 1.386 . S
H1513 C1529 0.930 . S
H1514 C1530 0.931 . S
C1515 H1503 0.929 . S
C1515 C1509 1.390 . S
C1515 C1512 1.386 . S
C1516 C1511 1.490 . S
C1516 C1518 1.395 . S
C1516 C1519 1.403 . S
H1517 C1523 0.930 . S
C1518 H1504 0.930 . S
C1518 C1516 1.395 . S
C1518 C1521 1.403 . S
C1519 C1516 1.403 . S
C1519 C1520 1.524 . S
C1519 C1523 1.400 . S
C1520 H1505 0.960 . S
C1520 H1506 0.960 . S
C1520 H1507 0.960 . S
C1520 C1519 1.524 . S
C1521 C1518 1.403 . S
C1521 C1522 1.392 . S
C1521 C1525 1.495 . S
C1522 C1521 1.392 . S
C1522 C1523 1.385 . S
C1522 C1524 1.478 . S
C1523 H1517 0.930 . S
C1523 C1519 1.400 . S
C1523 C1522 1.385 . S
C1524 C1522 1.478 . S
C1524 C1526 1.381 . S
C1524 C1530 1.383 . S
C1525 C1521 1.495 . S
C1525 H1531 0.959 . S
C1525 H1532 0.961 . S
C1525 H1533 0.960 . S
C1526 C1524 1.381 . S
C1526 C1527 1.394 . S
C1526 H1534 0.930 . S
C1527 C1526 1.394 . S
C1527 C1528 1.383 . S
C1527 H1535 0.929 . S
C1528 C1527 1.383 . S
C1528 C1529 1.377 . S
C1529 H1513 0.930 . S
C1529 C1528 1.377 . S
C1529 C1530 1.379 . S
C1530 H1514 0.931 . S
C1530 C1524 1.383 . S
C1530 C1529 1.379 . S
H1531 C1525 0.959 . S
H1532 C1525 0.961 . S
H1533 C1525 0.960 . S
H1534 C1526 0.930 . S
H1535 C1527 0.929 . S
H1536 C1544 0.929 . S
H1537 C1546 0.930 . S
H1538 C1548 0.930 . S
H1539 C1551 0.929 . S
H1540 C1554 0.930 . S
H1541 C1556 0.960 . S
H1542 C1556 0.960 1_655 S
H1543 C1556 0.960 . S
C1544 H1536 0.929 . S
C1544 C1545 1.377 1_655 S
C1544 C1546 1.384 . S
C1545 C1544 1.377 1_455 S
C1545 C1551 1.390 . S
C1546 H1537 0.930 . S
C1546 C1544 1.384 . S
C1546 C1547 1.372 1_655 S
C1547 C1546 1.372 1_455 S
C1547 C1548 1.400 . S
C1547 C1552 1.490 . S
C1548 H1538 0.930 . S
C1548 C1547 1.400 . S
C1548 C1551 1.386 . S
H1549 C1565 0.930 . S
H1550 C1566 0.931 . S
C1551 H1539 0.929 . S
C1551 C1545 1.390 . S
C1551 C1548 1.386 . S
C1552 C1547 1.490 . S
C1552 C1554 1.395 . S
C1552 C1555 1.403 . S
H1553 C1559 0.930 . S
C1554 H1540 0.930 . S
C1554 C1552 1.395 . S
C1554 C1557 1.403 . S
C1555 C1552 1.403 . S
C1555 C1556 1.524 . S
C1555 C1559 1.400 . S
C1556 H1541 0.960 . S
C1556 H1542 0.960 1_455 S
C1556 H1543 0.960 . S
C1556 C1555 1.524 . S
C1557 C1554 1.403 . S
C1557 C1558 1.392 . S
C1557 C1561 1.495 . S
C1558 C1557 1.392 . S
C1558 C1559 1.385 . S
C1558 C1560 1.478 . S
C1559 H1553 0.930 . S
C1559 C1555 1.400 . S
C1559 C1558 1.385 . S
C1560 C1558 1.478 . S
C1560 C1562 1.381 1_455 S
C1560 C1566 1.383 . S
C1561 C1557 1.495 . S
C1561 H1567 0.959 . S
C1561 H1568 0.961 . S
C1561 H1569 0.960 1_455 S
C1562 C1560 1.381 1_655 S
C1562 C1563 1.394 . S
C1562 H1570 0.930 . S
C1563 C1562 1.394 . S
C1563 C1564 1.383 1_655 S
C1563 H1571 0.929 . S
C1564 C1563 1.383 1_455 S
C1564 C1565 1.377 . S
C1565 H1549 0.930 . S
C1565 C1564 1.377 . S
C1565 C1566 1.379 . S
C1566 H1550 0.931 . S
C1566 C1560 1.383 . S
C1566 C1565 1.379 . S
H1567 C1561 0.959 . S
H1568 C1561 0.961 . S
H1569 C1561 0.960 1_655 S
H1570 C1562 0.930 . S
H1571 C1563 0.929 . S
H1572 C1580 0.929 . S
H1573 C1582 0.930 . S
H1574 C1584 0.930 . S
H1575 C1587 0.929 . S
H1576 C1590 0.930 . S
H1577 C1592 0.960 . S
H1578 C1592 0.960 . S
H1579 C1592 0.960 . S
C1580 H1572 0.929 . S
C1580 C1581 1.377 . S
C1580 C1582 1.384 . S
C1581 C1580 1.377 . S
C1581 C1587 1.390 . S
C1582 H1573 0.930 . S
C1582 C1580 1.384 . S
C1582 C1583 1.372 . S
C1583 C1582 1.372 . S
C1583 C1584 1.400 . S
C1583 C1588 1.490 . S
C1584 H1574 0.930 . S
C1584 C1583 1.400 . S
C1584 C1587 1.386 . S
H1585 C1601 0.930 . S
H1586 C1602 0.931 . S
C1587 H1575 0.929 . S
C1587 C1581 1.390 . S
C1587 C1584 1.386 . S
C1588 C1583 1.490 . S
C1588 C1590 1.395 . S
C1588 C1591 1.403 . S
H1589 C1595 0.930 . S
C1590 H1576 0.930 . S
C1590 C1588 1.395 . S
C1590 C1593 1.403 . S
C1591 C1588 1.403 . S
C1591 C1592 1.524 . S
C1591 C1595 1.400 . S
C1592 H1577 0.960 . S
C1592 H1578 0.960 . S
C1592 H1579 0.960 . S
C1592 C1591 1.524 . S
C1593 C1590 1.403 . S
C1593 C1594 1.392 . S
C1593 C1597 1.495 . S
C1594 C1593 1.392 . S
C1594 C1595 1.385 . S
C1594 C1596 1.478 . S
C1595 H1589 0.930 . S
C1595 C1591 1.400 . S
C1595 C1594 1.385 . S
C1596 C1594 1.478 . S
C1596 C1598 1.381 . S
C1596 C1602 1.383 . S
C1597 C1593 1.495 . S
C1597 H1603 0.959 . S
C1597 H1604 0.961 . S
C1597 H1605 0.960 . S
C1598 C1596 1.381 . S
C1598 C1599 1.394 . S
C1598 H1606 0.930 . S
C1599 C1598 1.394 . S
C1599 C1600 1.383 . S
C1599 H1607 0.929 . S
C1600 C1599 1.383 . S
C1600 C1601 1.377 . S
C1601 H1585 0.930 . S
C1601 C1600 1.377 . S
C1601 C1602 1.379 . S
C1602 H1586 0.931 . S
C1602 C1596 1.383 . S
C1602 C1601 1.379 . S
H1603 C1597 0.959 . S
H1604 C1597 0.961 . S
H1605 C1597 0.960 . S
H1606 C1598 0.930 . S
H1607 C1599 0.929 . S
H1608 C1616 0.929 . S
H1609 C1618 0.930 . S
H1610 C1620 0.930 . S
H1611 C1623 0.929 . S
H1612 C1626 0.930 . S
H1613 C1628 0.960 . S
H1614 C1628 0.960 . S
H1615 C1628 0.960 . S
C1616 H1608 0.929 . S
C1616 C1617 1.377 . S
C1616 C1618 1.384 . S
C1617 C1616 1.377 . S
C1617 C1623 1.390 . S
C1618 H1609 0.930 . S
C1618 C1616 1.384 . S
C1618 C1619 1.372 . S
C1619 C1618 1.372 . S
C1619 C1620 1.400 . S
C1619 C1624 1.490 . S
C1620 H1610 0.930 . S
C1620 C1619 1.400 . S
C1620 C1623 1.386 . S
H1621 C1637 0.930 . S
H1622 C1638 0.931 . S
C1623 H1611 0.929 . S
C1623 C1617 1.390 . S
C1623 C1620 1.386 . S
C1624 C1619 1.490 . S
C1624 C1626 1.395 . S
C1624 C1627 1.403 . S
H1625 C1631 0.930 . S
C1626 H1612 0.930 . S
C1626 C1624 1.395 . S
C1626 C1629 1.403 . S
C1627 C1624 1.403 . S
C1627 C1628 1.524 . S
C1627 C1631 1.400 . S
C1628 H1613 0.960 . S
C1628 H1614 0.960 . S
C1628 H1615 0.960 . S
C1628 C1627 1.524 . S
C1629 C1626 1.403 . S
C1629 C1630 1.392 . S
C1629 C1633 1.495 . S
C1630 C1629 1.392 . S
C1630 C1631 1.385 . S
C1630 C1632 1.478 . S
C1631 H1625 0.930 . S
C1631 C1627 1.400 . S
C1631 C1630 1.385 . S
C1632 C1630 1.478 . S
C1632 C1634 1.381 . S
C1632 C1638 1.383 . S
C1633 C1629 1.495 . S
C1633 H1639 0.959 . S
C1633 H1640 0.961 . S
C1633 H1641 0.960 . S
C1634 C1632 1.381 . S
C1634 C1635 1.394 . S
C1634 H1642 0.930 . S
C1635 C1634 1.394 . S
C1635 C1636 1.383 . S
C1635 H1643 0.929 . S
C1636 C1635 1.383 . S
C1636 C1637 1.377 . S
C1637 H1621 0.930 . S
C1637 C1636 1.377 . S
C1637 C1638 1.379 . S
C1638 H1622 0.931 . S
C1638 C1632 1.383 . S
C1638 C1637 1.379 . S
H1639 C1633 0.959 . S
H1640 C1633 0.961 . S
H1641 C1633 0.960 . S
H1642 C1634 0.930 . S
H1643 C1635 0.929 . S
H1644 C1652 0.929 . S
H1645 C1654 0.930 . S
H1646 C1656 0.930 . S
H1647 C1659 0.929 . S
H1648 C1662 0.930 . S
H1649 C1664 0.960 . S
H1650 C1664 0.960 . S
H1651 C1664 0.960 . S
C1652 H1644 0.929 . S
C1652 C1653 1.377 . S
C1652 C1654 1.384 . S
C1653 C1652 1.377 . S
C1653 C1659 1.390 . S
C1654 H1645 0.930 . S
C1654 C1652 1.384 . S
C1654 C1655 1.372 . S
C1655 C1654 1.372 . S
C1655 C1656 1.400 . S
C1655 C1660 1.490 . S
C1656 H1646 0.930 . S
C1656 C1655 1.400 . S
C1656 C1659 1.386 . S
H1657 C1673 0.930 . S
H1658 C1674 0.931 . S
C1659 H1647 0.929 . S
C1659 C1653 1.390 . S
C1659 C1656 1.386 . S
C1660 C1655 1.490 . S
C1660 C1662 1.395 . S
C1660 C1663 1.403 . S
H1661 C1667 0.930 . S
C1662 H1648 0.930 . S
C1662 C1660 1.395 . S
C1662 C1665 1.403 . S
C1663 C1660 1.403 . S
C1663 C1664 1.524 . S
C1663 C1667 1.400 . S
C1664 H1649 0.960 . S
C1664 H1650 0.960 . S
C1664 H1651 0.960 . S
C1664 C1663 1.524 . S
C1665 C1662 1.403 . S
C1665 C1666 1.392 . S
C1665 C1669 1.495 . S
C1666 C1665 1.392 . S
C1666 C1667 1.385 . S
C1666 C1668 1.478 . S
C1667 H1661 0.930 . S
C1667 C1663 1.400 . S
C1667 C1666 1.385 . S
C1668 C1666 1.478 . S
C1668 C1670 1.381 . S
C1668 C1674 1.383 . S
C1669 C1665 1.495 . S
C1669 H1675 0.959 . S
C1669 H1676 0.961 . S
C1669 H1677 0.960 . S
C1670 C1668 1.381 . S
C1670 C1671 1.394 . S
C1670 H1678 0.930 . S
C1671 C1670 1.394 . S
C1671 C1672 1.383 . S
C1671 H1679 0.929 . S
C1672 C1671 1.383 . S
C1672 C1673 1.377 . S
C1673 H1657 0.930 . S
C1673 C1672 1.377 . S
C1673 C1674 1.379 . S
C1674 H1658 0.931 . S
C1674 C1668 1.383 . S
C1674 C1673 1.379 . S
H1675 C1669 0.959 . S
H1676 C1669 0.961 . S
H1677 C1669 0.960 . S
H1678 C1670 0.930 . S
H1679 C1671 0.929 . S
H1680 C1688 0.929 . S
H1681 C1690 0.930 . S
H1682 C1692 0.930 . S
H1683 C1695 0.929 . S
H1684 C1698 0.930 . S
H1685 C1700 0.960 . S
H1686 C1700 0.960 . S
H1687 C1700 0.960 . S
C1688 H1680 0.929 . S
C1688 C1689 1.377 . S
C1688 C1690 1.384 . S
C1689 C1688 1.377 . S
C1689 C1695 1.390 1_455 S
C1690 H1681 0.930 . S
C1690 C1688 1.384 . S
C1690 C1691 1.372 . S
C1691 C1690 1.372 . S
C1691 C1692 1.400 1_455 S
C1691 C1696 1.490 . S
C1692 H1682 0.930 . S
C1692 C1691 1.400 1_655 S
C1692 C1695 1.386 . S
H1693 C1709 0.930 . S
H1694 C1710 0.931 . S
C1695 H1683 0.929 . S
C1695 C1689 1.390 1_655 S
C1695 C1692 1.386 . S
C1696 C1691 1.490 . S
C1696 C1698 1.395 . S
C1696 C1699 1.403 1_455 S
H1697 C1703 0.930 . S
C1698 H1684 0.930 . S
C1698 C1696 1.395 . S
C1698 C1701 1.403 . S
C1699 C1696 1.403 1_655 S
C1699 C1700 1.524 . S
C1699 C1703 1.400 . S
C1700 H1685 0.960 . S
C1700 H1686 0.960 . S
C1700 H1687 0.960 . S
C1700 C1699 1.524 . S
C1701 C1698 1.403 . S
C1701 C1702 1.392 . S
C1701 C1705 1.495 . S
C1702 C1701 1.392 . S
C1702 C1703 1.385 1_455 S
C1702 C1704 1.478 . S
C1703 H1697 0.930 . S
C1703 C1699 1.400 . S
C1703 C1702 1.385 1_655 S
C1704 C1702 1.478 . S
C1704 C1706 1.381 . S
C1704 C1710 1.383 . S
C1705 C1701 1.495 . S
C1705 H1711 0.959 . S
C1705 H1712 0.961 . S
C1705 H1713 0.960 . S
C1706 C1704 1.381 . S
C1706 C1707 1.394 . S
C1706 H1714 0.930 . S
C1707 C1706 1.394 . S
C1707 C1708 1.383 . S
C1707 H1715 0.929 . S
C1708 C1707 1.383 . S
C1708 C1709 1.377 . S
C1709 H1693 0.930 . S
C1709 C1708 1.377 . S
C1709 C1710 1.379 . S
C1710 H1694 0.931 . S
C1710 C1704 1.383 . S
C1710 C1709 1.379 . S
H1711 C1705 0.959 . S
H1712 C1705 0.961 . S
H1713 C1705 0.960 . S
H1714 C1706 0.930 . S
H1715 C1707 0.929 . S
H1716 C1724 0.929 . S
H1717 C1726 0.930 . S
H1718 C1728 0.930 . S
H1719 C1731 0.929 . S
H1720 C1734 0.930 . S
H1721 C1736 0.960 . S
H1722 C1736 0.960 . S
H1723 C1736 0.960 . S
C1724 H1716 0.929 . S
C1724 C1725 1.377 . S
C1724 C1726 1.384 . S
C1725 C1724 1.377 . S
C1725 C1731 1.390 . S
C1726 H1717 0.930 . S
C1726 C1724 1.384 . S
C1726 C1727 1.372 . S
C1727 C1726 1.372 . S
C1727 C1728 1.400 . S
C1727 C1732 1.490 . S
C1728 H1718 0.930 . S
C1728 C1727 1.400 . S
C1728 C1731 1.386 . S
H1729 C1745 0.930 . S
H1730 C1746 0.931 . S
C1731 H1719 0.929 . S
C1731 C1725 1.390 . S
C1731 C1728 1.386 . S
C1732 C1727 1.490 . S
C1732 C1734 1.395 . S
C1732 C1735 1.403 . S
H1733 C1739 0.930 . S
C1734 H1720 0.930 . S
C1734 C1732 1.395 . S
C1734 C1737 1.403 . S
C1735 C1732 1.403 . S
C1735 C1736 1.524 . S
C1735 C1739 1.400 . S
C1736 H1721 0.960 . S
C1736 H1722 0.960 . S
C1736 H1723 0.960 . S
C1736 C1735 1.524 . S
C1737 C1734 1.403 . S
C1737 C1738 1.392 . S
C1737 C1741 1.495 . S
C1738 C1737 1.392 . S
C1738 C1739 1.385 . S
C1738 C1740 1.478 . S
C1739 H1733 0.930 . S
C1739 C1735 1.400 . S
C1739 C1738 1.385 . S
C1740 C1738 1.478 . S
C1740 C1742 1.381 . S
C1740 C1746 1.383 . S
C1741 C1737 1.495 . S
C1741 H1747 0.959 . S
C1741 H1748 0.961 . S
C1741 H1749 0.960 . S
C1742 C1740 1.381 . S
C1742 C1743 1.394 . S
C1742 H1750 0.930 . S
C1743 C1742 1.394 . S
C1743 C1744 1.383 . S
C1743 H1751 0.929 . S
C1744 C1743 1.383 . S
C1744 C1745 1.377 . S
C1745 H1729 0.930 . S
C1745 C1744 1.377 . S
C1745 C1746 1.379 . S
C1746 H1730 0.931 . S
C1746 C1740 1.383 . S
C1746 C1745 1.379 . S
H1747 C1741 0.959 . S
H1748 C1741 0.961 . S
H1749 C1741 0.960 . S
H1750 C1742 0.930 . S
H1751 C1743 0.929 . S
H1752 C1760 0.929 . S
H1753 C1762 0.930 . S
H1754 C1764 0.930 . S
H1755 C1767 0.929 . S
H1756 C1770 0.930 . S
H1757 C1772 0.960 . S
H1758 C1772 0.960 . S
H1759 C1772 0.960 . S
C1760 H1752 0.929 . S
C1760 C1761 1.377 . S
C1760 C1762 1.384 . S
C1761 C1760 1.377 . S
C1761 C1767 1.390 . S
C1762 H1753 0.930 . S
C1762 C1760 1.384 . S
C1762 C1763 1.372 . S
C1763 C1762 1.372 . S
C1763 C1764 1.400 . S
C1763 C1768 1.490 . S
C1764 H1754 0.930 . S
C1764 C1763 1.400 . S
C1764 C1767 1.386 . S
H1765 C1781 0.930 . S
H1766 C1782 0.931 . S
C1767 H1755 0.929 . S
C1767 C1761 1.390 . S
C1767 C1764 1.386 . S
C1768 C1763 1.490 . S
C1768 C1770 1.395 . S
C1768 C1771 1.403 . S
H1769 C1775 0.930 . S
C1770 H1756 0.930 . S
C1770 C1768 1.395 . S
C1770 C1773 1.403 . S
C1771 C1768 1.403 . S
C1771 C1772 1.524 . S
C1771 C1775 1.400 . S
C1772 H1757 0.960 . S
C1772 H1758 0.960 . S
C1772 H1759 0.960 . S
C1772 C1771 1.524 . S
C1773 C1770 1.403 . S
C1773 C1774 1.392 . S
C1773 C1777 1.495 . S
C1774 C1773 1.392 . S
C1774 C1775 1.385 . S
C1774 C1776 1.478 . S
C1775 H1769 0.930 . S
C1775 C1771 1.400 . S
C1775 C1774 1.385 . S
C1776 C1774 1.478 . S
C1776 C1778 1.381 . S
C1776 C1782 1.383 . S
C1777 C1773 1.495 . S
C1777 H1783 0.959 . S
C1777 H1784 0.961 . S
C1777 H1785 0.960 . S
C1778 C1776 1.381 . S
C1778 C1779 1.394 . S
C1778 H1786 0.930 . S
C1779 C1778 1.394 . S
C1779 C1780 1.383 . S
C1779 H1787 0.929 . S
C1780 C1779 1.383 . S
C1780 C1781 1.377 . S
C1781 H1765 0.930 . S
C1781 C1780 1.377 . S
C1781 C1782 1.379 . S
C1782 H1766 0.931 . S
C1782 C1776 1.383 . S
C1782 C1781 1.379 . S
H1783 C1777 0.959 . S
H1784 C1777 0.961 . S
H1785 C1777 0.960 . S
H1786 C1778 0.930 . S
H1787 C1779 0.929 . S
H1788 C1796 0.929 . S
H1789 C1798 0.930 . S
H1790 C1800 0.930 . S
H1791 C1803 0.929 . S
H1792 C1806 0.930 . S
H1793 C1808 0.960 . S
H1794 C1808 0.960 . S
H1795 C1808 0.960 . S
C1796 H1788 0.929 . S
C1796 C1797 1.377 . S
C1796 C1798 1.384 . S
C1797 C1796 1.377 . S
C1797 C1803 1.390 . S
C1798 H1789 0.930 . S
C1798 C1796 1.384 . S
C1798 C1799 1.372 . S
C1799 C1798 1.372 . S
C1799 C1800 1.400 . S
C1799 C1804 1.490 . S
C1800 H1790 0.930 . S
C1800 C1799 1.400 . S
C1800 C1803 1.386 . S
H1801 C1817 0.930 . S
H1802 C1818 0.931 . S
C1803 H1791 0.929 . S
C1803 C1797 1.390 . S
C1803 C1800 1.386 . S
C1804 C1799 1.490 . S
C1804 C1806 1.395 . S
C1804 C1807 1.403 . S
H1805 C1811 0.930 . S
C1806 H1792 0.930 . S
C1806 C1804 1.395 . S
C1806 C1809 1.403 . S
C1807 C1804 1.403 . S
C1807 C1808 1.524 . S
C1807 C1811 1.400 . S
C1808 H1793 0.960 . S
C1808 H1794 0.960 . S
C1808 H1795 0.960 . S
C1808 C1807 1.524 . S
C1809 C1806 1.403 . S
C1809 C1810 1.392 . S
C1809 C1813 1.495 . S
C1810 C1809 1.392 . S
C1810 C1811 1.385 . S
C1810 C1812 1.478 . S
C1811 H1805 0.930 . S
C1811 C1807 1.400 . S
C1811 C1810 1.385 . S
C1812 C1810 1.478 . S
C1812 C1814 1.381 . S
C1812 C1818 1.383 . S
C1813 C1809 1.495 . S
C1813 H1819 0.959 . S
C1813 H1820 0.961 . S
C1813 H1821 0.960 . S
C1814 C1812 1.381 . S
C1814 C1815 1.394 . S
C1814 H1822 0.930 . S
C1815 C1814 1.394 . S
C1815 C1816 1.383 . S
C1815 H1823 0.929 . S
C1816 C1815 1.383 . S
C1816 C1817 1.377 . S
C1817 H1801 0.930 . S
C1817 C1816 1.377 . S
C1817 C1818 1.379 . S
C1818 H1802 0.931 . S
C1818 C1812 1.383 . S
C1818 C1817 1.379 . S
H1819 C1813 0.959 . S
H1820 C1813 0.961 . S
H1821 C1813 0.960 . S
H1822 C1814 0.930 . S
H1823 C1815 0.929 . S
H1824 C1832 0.929 . S
H1825 C1834 0.930 . S
H1826 C1836 0.930 . S
H1827 C1839 0.929 . S
H1828 C1842 0.930 . S
H1829 C1844 0.960 . S
H1830 C1844 0.960 . S
H1831 C1844 0.960 . S
C1832 H1824 0.929 . S
C1832 C1833 1.377 . S
C1832 C1834 1.384 . S
C1833 C1832 1.377 . S
C1833 C1839 1.390 1_545 S
C1834 H1825 0.930 . S
C1834 C1832 1.384 . S
C1834 C1835 1.372 . S
C1835 C1834 1.372 . S
C1835 C1836 1.400 1_545 S
C1835 C1840 1.490 . S
C1836 H1826 0.930 . S
C1836 C1835 1.400 1_565 S
C1836 C1839 1.386 . S
H1837 C1853 0.930 . S
H1838 C1854 0.931 . S
C1839 H1827 0.929 . S
C1839 C1833 1.390 1_565 S
C1839 C1836 1.386 . S
C1840 C1835 1.490 . S
C1840 C1842 1.395 1_545 S
C1840 C1843 1.403 . S
H1841 C1847 0.930 . S
C1842 H1828 0.930 . S
C1842 C1840 1.395 1_565 S
C1842 C1845 1.403 . S
C1843 C1840 1.403 . S
C1843 C1844 1.524 . S
C1843 C1847 1.400 . S
C1844 H1829 0.960 . S
C1844 H1830 0.960 . S
C1844 H1831 0.960 . S
C1844 C1843 1.524 . S
C1845 C1842 1.403 . S
C1845 C1846 1.392 1_565 S
C1845 C1849 1.495 . S
C1846 C1845 1.392 1_545 S
C1846 C1847 1.385 . S
C1846 C1848 1.478 . S
C1847 H1841 0.930 . S
C1847 C1843 1.400 . S
C1847 C1846 1.385 . S
C1848 C1846 1.478 . S
C1848 C1850 1.381 . S
C1848 C1854 1.383 1_545 S
C1849 C1845 1.495 . S
C1849 H1855 0.959 . S
C1849 H1856 0.961 . S
C1849 H1857 0.960 1_565 S
C1850 C1848 1.381 . S
C1850 C1851 1.394 . S
C1850 H1858 0.930 . S
C1851 C1850 1.394 . S
C1851 C1852 1.383 . S
C1851 H1859 0.929 . S
C1852 C1851 1.383 . S
C1852 C1853 1.377 1_545 S
C1853 H1837 0.930 . S
C1853 C1852 1.377 1_565 S
C1853 C1854 1.379 . S
C1854 H1838 0.931 . S
C1854 C1848 1.383 1_565 S
C1854 C1853 1.379 . S
H1855 C1849 0.959 . S
H1856 C1849 0.961 . S
H1857 C1849 0.960 1_545 S
H1858 C1850 0.930 . S
H1859 C1851 0.929 . S
H1860 C1868 0.929 . S
H1861 C1870 0.930 . S
H1862 C1872 0.930 . S
H1863 C1875 0.929 . S
H1864 C1878 0.930 . S
H1865 C1880 0.960 . S
H1866 C1880 0.960 . S
H1867 C1880 0.960 . S
C1868 H1860 0.929 . S
C1868 C1869 1.377 . S
C1868 C1870 1.384 . S
C1869 C1868 1.377 . S
C1869 C1875 1.390 . S
C1870 H1861 0.930 . S
C1870 C1868 1.384 . S
C1870 C1871 1.372 . S
C1871 C1870 1.372 . S
C1871 C1872 1.400 . S
C1871 C1876 1.490 . S
C1872 H1862 0.930 . S
C1872 C1871 1.400 . S
C1872 C1875 1.386 . S
H1873 C1889 0.930 . S
H1874 C1890 0.931 . S
C1875 H1863 0.929 . S
C1875 C1869 1.390 . S
C1875 C1872 1.386 . S
C1876 C1871 1.490 . S
C1876 C1878 1.395 . S
C1876 C1879 1.403 . S
H1877 C1883 0.930 . S
C1878 H1864 0.930 . S
C1878 C1876 1.395 . S
C1878 C1881 1.403 . S
C1879 C1876 1.403 . S
C1879 C1880 1.524 . S
C1879 C1883 1.400 . S
C1880 H1865 0.960 . S
C1880 H1866 0.960 . S
C1880 H1867 0.960 . S
C1880 C1879 1.524 . S
C1881 C1878 1.403 . S
C1881 C1882 1.392 . S
C1881 C1885 1.495 . S
C1882 C1881 1.392 . S
C1882 C1883 1.385 . S
C1882 C1884 1.478 . S
C1883 H1877 0.930 . S
C1883 C1879 1.400 . S
C1883 C1882 1.385 . S
C1884 C1882 1.478 . S
C1884 C1886 1.381 . S
C1884 C1890 1.383 . S
C1885 C1881 1.495 . S
C1885 H1891 0.959 . S
C1885 H1892 0.961 . S
C1885 H1893 0.960 . S
C1886 C1884 1.381 . S
C1886 C1887 1.394 . S
C1886 H1894 0.930 . S
C1887 C1886 1.394 . S
C1887 C1888 1.383 . S
C1887 H1895 0.929 . S
C1888 C1887 1.383 . S
C1888 C1889 1.377 . S
C1889 H1873 0.930 . S
C1889 C1888 1.377 . S
C1889 C1890 1.379 . S
C1890 H1874 0.931 . S
C1890 C1884 1.383 . S
C1890 C1889 1.379 . S
H1891 C1885 0.959 . S
H1892 C1885 0.961 . S
H1893 C1885 0.960 . S
H1894 C1886 0.930 . S
H1895 C1887 0.929 . S
H1896 C1904 0.929 . S
H1897 C1906 0.930 . S
H1898 C1908 0.930 . S
H1899 C1911 0.929 . S
H1900 C1914 0.930 . S
H1901 C1916 0.960 . S
H1902 C1916 0.960 1_565 S
H1903 C1916 0.960 . S
C1904 H1896 0.929 . S
C1904 C1905 1.377 1_565 S
C1904 C1906 1.384 . S
C1905 C1904 1.377 1_545 S
C1905 C1911 1.390 . S
C1906 H1897 0.930 . S
C1906 C1904 1.384 . S
C1906 C1907 1.372 1_565 S
C1907 C1906 1.372 1_545 S
C1907 C1908 1.400 . S
C1907 C1912 1.490 . S
C1908 H1898 0.930 . S
C1908 C1907 1.400 . S
C1908 C1911 1.386 . S
H1909 C1925 0.930 . S
H1910 C1926 0.931 . S
C1911 H1899 0.929 . S
C1911 C1905 1.390 . S
C1911 C1908 1.386 . S
C1912 C1907 1.490 . S
C1912 C1914 1.395 . S
C1912 C1915 1.403 . S
H1913 C1919 0.930 . S
C1914 H1900 0.930 . S
C1914 C1912 1.395 . S
C1914 C1917 1.403 . S
C1915 C1912 1.403 . S
C1915 C1916 1.524 . S
C1915 C1919 1.400 . S
C1916 H1901 0.960 . S
C1916 H1902 0.960 1_545 S
C1916 H1903 0.960 . S
C1916 C1915 1.524 . S
C1917 C1914 1.403 . S
C1917 C1918 1.392 . S
C1917 C1921 1.495 . S
C1918 C1917 1.392 . S
C1918 C1919 1.385 . S
C1918 C1920 1.478 . S
C1919 H1913 0.930 . S
C1919 C1915 1.400 . S
C1919 C1918 1.385 . S
C1920 C1918 1.478 . S
C1920 C1922 1.381 1_545 S
C1920 C1926 1.383 . S
C1921 C1917 1.495 . S
C1921 H1927 0.959 . S
C1921 H1928 0.961 . S
C1921 H1929 0.960 1_545 S
C1922 C1920 1.381 1_565 S
C1922 C1923 1.394 . S
C1922 H1930 0.930 . S
C1923 C1922 1.394 . S
C1923 C1924 1.356 1_565 S
C1923 H1931 0.929 . S
C1924 C1923 1.356 1_545 S
C1924 C1925 1.406 . S
C1925 H1909 0.930 . S
C1925 C1924 1.406 . S
C1925 C1926 1.379 . S
C1926 H1910 0.931 . S
C1926 C1920 1.383 . S
C1926 C1925 1.379 . S
H1927 C1921 0.959 . S
H1928 C1921 0.961 . S
H1929 C1921 0.960 1_565 S
H1930 C1922 0.930 . S
H1931 C1923 0.929 . S
H1932 C1940 0.929 . S
H1933 C1942 0.930 . S
H1934 C1944 0.930 . S
H1935 C1947 0.929 . S
H1936 C1950 0.930 . S
H1937 C1952 0.960 . S
H1938 C1952 0.960 . S
H1939 C1952 0.960 . S
C1940 H1932 0.929 . S
C1940 C1941 1.377 . S
C1940 C1942 1.384 . S
C1941 C1940 1.377 . S
C1941 C1947 1.390 . S
C1942 H1933 0.930 . S
C1942 C1940 1.384 . S
C1942 C1943 1.372 . S
C1943 C1942 1.372 . S
C1943 C1944 1.400 . S
C1943 C1948 1.490 . S
C1944 H1934 0.930 . S
C1944 C1943 1.400 . S
C1944 C1947 1.386 . S
H1945 C1961 0.930 . S
H1946 C1962 0.931 . S
C1947 H1935 0.929 . S
C1947 C1941 1.390 . S
C1947 C1944 1.386 . S
C1948 C1943 1.490 . S
C1948 C1950 1.395 . S
C1948 C1951 1.403 . S
H1949 C1955 0.930 . S
C1950 H1936 0.930 . S
C1950 C1948 1.395 . S
C1950 C1953 1.403 . S
C1951 C1948 1.403 . S
C1951 C1952 1.524 . S
C1951 C1955 1.400 . S
C1952 H1937 0.960 . S
C1952 H1938 0.960 . S
C1952 H1939 0.960 . S
C1952 C1951 1.524 . S
C1953 C1950 1.403 . S
C1953 C1954 1.392 . S
C1953 C1957 1.495 . S
C1954 C1953 1.392 . S
C1954 C1955 1.385 . S
C1954 C1956 1.478 . S
C1955 H1949 0.930 . S
C1955 C1951 1.400 . S
C1955 C1954 1.385 . S
C1956 C1954 1.478 . S
C1956 C1958 1.381 . S
C1956 C1962 1.383 . S
C1957 C1953 1.495 . S
C1957 H1963 0.959 . S
C1957 H1964 0.961 . S
C1957 H1965 0.960 . S
C1958 C1956 1.381 . S
C1958 C1959 1.394 . S
C1958 H1966 0.930 . S
C1959 C1958 1.394 . S
C1959 C1960 1.383 . S
C1959 H1967 0.929 . S
C1960 C1959 1.383 . S
C1960 C1961 1.377 . S
C1961 H1945 0.930 . S
C1961 C1960 1.377 . S
C1961 C1962 1.379 . S
C1962 H1946 0.931 . S
C1962 C1956 1.383 . S
C1962 C1961 1.379 . S
H1963 C1957 0.959 . S
H1964 C1957 0.961 . S
H1965 C1957 0.960 . S
H1966 C1958 0.930 . S
H1967 C1959 0.929 . S
H1968 C1976 0.929 . S
H1969 C1978 0.930 . S
H1970 C1980 0.930 . S
H1971 C1983 0.929 . S
H1972 C1986 0.943 . S
H1973 C1988 0.960 . S
H1974 C1988 0.960 . S
H1975 C1988 0.960 . S
C1976 H1968 0.929 . S
C1976 C1977 1.376 . S
C1976 C1978 1.384 . S
C1977 C1976 1.376 . S
C1977 C1983 1.391 1_565 S
C1978 H1969 0.930 . S
C1978 C1976 1.384 . S
C1978 C1979 1.372 . S
C1979 C1978 1.372 . S
C1979 C1980 1.400 1_565 S
C1979 C1984 1.490 . S
C1980 H1970 0.930 . S
C1980 C1979 1.400 1_545 S
C1980 C1983 1.386 . S
H1981 C1997 0.930 . S
H1982 C1998 0.931 . S
C1983 H1971 0.929 . S
C1983 C1977 1.391 1_545 S
C1983 C1980 1.386 . S
C1984 C1979 1.490 . S
C1984 C1986 1.384 1_565 S
C1984 C1987 1.403 . S
H1985 C1991 0.930 . S
C1986 H1972 0.943 . S
C1986 C1984 1.384 1_545 S
C1986 C1989 1.404 . S
C1987 C1984 1.403 . S
C1987 C1988 1.524 . S
C1987 C1991 1.400 . S
C1988 H1973 0.960 . S
C1988 H1974 0.960 . S
C1988 H1975 0.960 . S
C1988 C1987 1.524 . S
C1989 C1986 1.404 . S
C1989 C1990 1.383 1_545 S
C1989 C1993 1.508 . S
C1990 C1989 1.383 1_565 S
C1990 C1991 1.385 . S
C1990 C1992 1.478 . S
C1991 H1985 0.930 . S
C1991 C1987 1.400 . S
C1991 C1990 1.385 . S
C1992 C1990 1.478 . S
C1992 C1994 1.381 . S
C1992 C1998 1.383 1_565 S
C1993 C1989 1.508 . S
C1993 H1999 0.959 . S
C1993 H2000 0.961 . S
C1993 H2001 0.960 1_545 S
C1994 C1992 1.381 . S
C1994 C1995 1.394 . S
C1994 H2002 0.930 . S
C1995 C1994 1.394 . S
C1995 C1996 1.383 . S
C1995 H2003 0.929 . S
C1996 C1995 1.383 . S
C1996 C1997 1.377 1_565 S
C1997 H1981 0.930 . S
C1997 C1996 1.377 1_545 S
C1997 C1998 1.379 . S
C1998 H1982 0.931 . S
C1998 C1992 1.383 1_545 S
C1998 C1997 1.379 . S
H1999 C1993 0.959 . S
H2000 C1993 0.961 . S
H2001 C1993 0.960 1_565 S
H2002 C1994 0.930 . S
H2003 C1995 0.929 . S
H2004 C2012 0.929 . S
H2005 C2014 0.930 . S
H2006 C2016 0.930 . S
H2007 C2019 0.929 . S
H2008 C2022 0.930 . S
H2009 C2024 0.960 . S
H2010 C2024 0.960 . S
H2011 C2024 0.960 . S
C2012 H2004 0.929 . S
C2012 C2013 1.377 . S
C2012 C2014 1.384 . S
C2013 C2012 1.377 . S
C2013 C2019 1.390 . S
C2014 H2005 0.930 . S
C2014 C2012 1.384 . S
C2014 C2015 1.372 . S
C2015 C2014 1.372 . S
C2015 C2016 1.400 . S
C2015 C2020 1.490 . S
C2016 H2006 0.930 . S
C2016 C2015 1.400 . S
C2016 C2019 1.386 . S
H2017 C2033 0.930 . S
H2018 C2034 0.931 . S
C2019 H2007 0.929 . S
C2019 C2013 1.390 . S
C2019 C2016 1.386 . S
C2020 C2015 1.490 . S
C2020 C2022 1.395 . S
C2020 C2023 1.403 . S
H2021 C2027 0.930 . S
C2022 H2008 0.930 . S
C2022 C2020 1.395 . S
C2022 C2025 1.403 . S
C2023 C2020 1.403 . S
C2023 C2024 1.524 . S
C2023 C2027 1.400 . S
C2024 H2009 0.960 . S
C2024 H2010 0.960 . S
C2024 H2011 0.960 . S
C2024 C2023 1.524 . S
C2025 C2022 1.403 . S
C2025 C2026 1.392 . S
C2025 C2029 1.495 . S
C2026 C2025 1.392 . S
C2026 C2027 1.385 . S
C2026 C2028 1.478 . S
C2027 H2021 0.930 . S
C2027 C2023 1.400 . S
C2027 C2026 1.385 . S
C2028 C2026 1.478 . S
C2028 C2030 1.381 . S
C2028 C2034 1.383 . S
C2029 C2025 1.495 . S
C2029 H2035 0.959 . S
C2029 H2036 0.961 . S
C2029 H2037 0.960 . S
C2030 C2028 1.381 . S
C2030 C2031 1.394 . S
C2030 H2038 0.930 . S
C2031 C2030 1.394 . S
C2031 C2032 1.383 . S
C2031 H2039 0.929 . S
C2032 C2031 1.383 . S
C2032 C2033 1.377 . S
C2033 H2017 0.930 . S
C2033 C2032 1.377 . S
C2033 C2034 1.379 . S
C2034 H2018 0.931 . S
C2034 C2028 1.383 . S
C2034 C2033 1.379 . S
H2035 C2029 0.959 . S
H2036 C2029 0.961 . S
H2037 C2029 0.960 . S
H2038 C2030 0.930 . S
H2039 C2031 0.929 . S
H2040 C2048 0.929 . S
H2041 C2050 0.930 . S
H2042 C2052 0.930 . S
H2043 C2055 0.933 . S
H2044 C2058 0.930 . S
H2045 C2060 0.960 . S
H2046 C2060 0.960 . S
H2047 C2060 0.960 . S
C2048 H2040 0.929 . S
C2048 C2049 1.377 . S
C2048 C2050 1.384 . S
C2049 C2048 1.377 . S
C2049 C2055 1.390 . S
C2050 H2041 0.930 . S
C2050 C2048 1.384 . S
C2050 C2051 1.372 . S
C2051 C2050 1.372 . S
C2051 C2052 1.400 . S
C2051 C2056 1.490 . S
C2052 H2042 0.930 . S
C2052 C2051 1.400 . S
C2052 C2055 1.386 . S
H2053 C2069 0.930 . S
H2054 C2070 0.928 1_565 S
C2055 H2043 0.933 . S
C2055 C2049 1.390 . S
C2055 C2052 1.386 . S
C2056 C2051 1.490 . S
C2056 C2058 1.395 1_545 S
C2056 C2059 1.403 . S
H2057 C2063 0.930 . S
C2058 H2044 0.930 . S
C2058 C2056 1.395 1_565 S
C2058 C2061 1.403 . S
C2059 C2056 1.403 . S
C2059 C2060 1.524 . S
C2059 C2063 1.400 . S
C2060 H2045 0.960 . S
C2060 H2046 0.960 . S
C2060 H2047 0.960 . S
C2060 C2059 1.524 . S
C2061 C2058 1.403 . S
C2061 C2062 1.392 1_565 S
C2061 C2065 1.495 . S
C2062 C2061 1.392 1_545 S
C2062 C2063 1.385 . S
C2062 C2064 1.478 . S
C2063 H2057 0.930 . S
C2063 C2059 1.400 . S
C2063 C2062 1.385 . S
C2064 C2062 1.478 . S
C2064 C2066 1.381 . S
C2064 C2070 1.383 . S
C2065 C2061 1.495 . S
C2065 H2071 0.959 . S
C2065 H2072 0.961 . S
C2065 H2073 0.960 . S
C2066 C2064 1.381 . S
C2066 C2067 1.394 . S
C2066 H2074 0.930 . S
C2067 C2066 1.394 . S
C2067 C2068 1.383 . S
C2067 H2075 0.929 . S
C2068 C2067 1.383 . S
C2068 C2069 1.377 . S
C2069 H2053 0.930 . S
C2069 C2068 1.377 . S
C2069 C2070 1.379 . S
C2070 H2054 0.928 1_545 S
C2070 C2064 1.383 . S
C2070 C2069 1.379 . S
H2071 C2065 0.959 . S
H2072 C2065 0.961 . S
H2073 C2065 0.960 . S
H2074 C2066 0.930 . S
H2075 C2067 0.929 . S
H2076 C2084 0.929 . S
H2077 C2086 0.930 . S
H2078 C2088 0.930 . S
H2079 C2091 0.929 . S
H2080 C2094 0.930 . S
H2081 C2096 0.960 . S
H2082 C2096 0.960 . S
H2083 C2096 0.960 . S
C2084 H2076 0.929 . S
C2084 C2085 1.377 . S
C2084 C2086 1.384 . S
C2085 C2084 1.377 . S
C2085 C2091 1.390 . S
C2086 H2077 0.930 . S
C2086 C2084 1.384 . S
C2086 C2087 1.372 . S
C2087 C2086 1.372 . S
C2087 C2088 1.400 . S
C2087 C2092 1.490 . S
C2088 H2078 0.930 . S
C2088 C2087 1.400 . S
C2088 C2091 1.386 . S
H2089 C2105 0.930 . S
H2090 C2106 0.931 . S
C2091 H2079 0.929 . S
C2091 C2085 1.390 . S
C2091 C2088 1.386 . S
C2092 C2087 1.490 . S
C2092 C2094 1.395 . S
C2092 C2095 1.403 . S
H2093 C2099 0.930 . S
C2094 H2080 0.930 . S
C2094 C2092 1.395 . S
C2094 C2097 1.403 . S
C2095 C2092 1.403 . S
C2095 C2096 1.524 . S
C2095 C2099 1.400 . S
C2096 H2081 0.960 . S
C2096 H2082 0.960 . S
C2096 H2083 0.960 . S
C2096 C2095 1.524 . S
C2097 C2094 1.403 . S
C2097 C2098 1.392 . S
C2097 C2101 1.495 . S
C2098 C2097 1.392 . S
C2098 C2099 1.385 . S
C2098 C2100 1.478 . S
C2099 H2093 0.930 . S
C2099 C2095 1.400 . S
C2099 C2098 1.385 . S
C2100 C2098 1.478 . S
C2100 C2102 1.381 . S
C2100 C2106 1.383 . S
C2101 C2097 1.495 . S
C2101 H2107 0.959 . S
C2101 H2108 0.961 . S
C2101 H2109 0.960 . S
C2102 C2100 1.381 . S
C2102 C2103 1.394 . S
C2102 H2110 0.930 . S
C2103 C2102 1.394 . S
C2103 C2104 1.383 . S
C2103 H2111 0.929 . S
C2104 C2103 1.383 . S
C2104 C2105 1.377 . S
C2105 H2089 0.930 . S
C2105 C2104 1.377 . S
C2105 C2106 1.379 . S
C2106 H2090 0.931 . S
C2106 C2100 1.383 . S
C2106 C2105 1.379 . S
H2107 C2101 0.959 . S
H2108 C2101 0.961 . S
H2109 C2101 0.960 . S
H2110 C2102 0.930 . S
H2111 C2103 0.929 . S
H2112 C2120 0.929 . S
H2113 C2122 0.930 . S
H2114 C2124 0.930 . S
H2115 C2127 0.929 . S
H2116 C2130 0.930 . S
H2117 C2132 0.960 . S
H2118 C2132 0.960 1_554 S
H2119 C2132 0.960 . S
C2120 H2112 0.929 . S
C2120 C2121 1.377 . S
C2120 C2122 1.384 . S
C2121 C2120 1.377 . S
C2121 C2127 1.390 1_554 S
C2122 H2113 0.930 . S
C2122 C2120 1.384 . S
C2122 C2123 1.372 . S
C2123 C2122 1.372 . S
C2123 C2124 1.400 1_554 S
C2123 C2128 1.490 . S
C2124 H2114 0.930 . S
C2124 C2123 1.400 1_556 S
C2124 C2127 1.386 . S
H2125 C2141 0.930 . S
H2126 C2142 0.931 . S
C2127 H2115 0.929 . S
C2127 C2121 1.390 1_556 S
C2127 C2124 1.386 . S
C2128 C2123 1.490 . S
C2128 C2130 1.395 . S
C2128 C2131 1.403 . S
H2129 C2135 0.930 . S
C2130 H2116 0.930 . S
C2130 C2128 1.395 . S
C2130 C2133 1.403 . S
C2131 C2128 1.403 . S
C2131 C2132 1.524 1_554 S
C2131 C2135 1.400 . S
C2132 H2117 0.960 . S
C2132 H2118 0.960 1_556 S
C2132 H2119 0.960 . S
C2132 C2131 1.524 1_556 S
C2133 C2130 1.403 . S
C2133 C2134 1.392 . S
C2133 C2137 1.495 . S
C2134 C2133 1.392 . S
C2134 C2135 1.385 . S
C2134 C2136 1.478 . S
C2135 H2129 0.930 . S
C2135 C2131 1.400 . S
C2135 C2134 1.385 . S
C2136 C2134 1.478 . S
C2136 C2138 1.381 . S
C2136 C2142 1.383 1_554 S
C2137 C2133 1.495 . S
C2137 H2143 0.959 . S
C2137 H2144 0.961 . S
C2137 H2145 0.960 . S
C2138 C2136 1.381 . S
C2138 C2139 1.394 . S
C2138 H2146 0.930 . S
C2139 C2138 1.394 . S
C2139 C2140 1.383 . S
C2139 H2147 0.929 . S
C2140 C2139 1.383 . S
C2140 C2141 1.377 1_554 S
C2141 H2125 0.930 . S
C2141 C2140 1.377 1_556 S
C2141 C2142 1.379 . S
C2142 H2126 0.931 . S
C2142 C2136 1.383 1_556 S
C2142 C2141 1.379 . S
H2143 C2137 0.959 . S
H2144 C2137 0.961 . S
H2145 C2137 0.960 . S
H2146 C2138 0.930 . S
H2147 C2139 0.929 . S
H2148 C2156 0.929 . S
H2149 C2158 0.930 . S
H2150 C2160 0.930 . S
H2151 C2163 0.929 . S
H2152 C2166 0.930 . S
H2153 C2168 0.960 . S
H2154 C2168 0.960 . S
H2155 C2168 0.960 1_554 S
C2156 H2148 0.929 . S
C2156 C2157 1.377 1_556 S
C2156 C2158 1.384 . S
C2157 C2156 1.377 1_554 S
C2157 C2163 1.390 . S
C2158 H2149 0.930 . S
C2158 C2156 1.384 . S
C2158 C2159 1.370 1_556 S
C2159 C2158 1.370 1_554 S
C2159 C2160 1.402 . S
C2159 C2164 1.490 1_554 S
C2160 H2150 0.930 . S
C2160 C2159 1.402 . S
C2160 C2163 1.386 . S
H2161 C2177 0.930 . S
H2162 C2178 0.931 . S
C2163 H2151 0.929 . S
C2163 C2157 1.390 . S
C2163 C2160 1.386 . S
C2164 C2159 1.490 1_556 S
C2164 C2166 1.393 1_556 S
C2164 C2167 1.405 . S
H2165 C2171 0.930 . S
C2166 H2152 0.930 . S
C2166 C2164 1.393 1_554 S
C2166 C2169 1.403 . S
C2167 C2164 1.405 . S
C2167 C2168 1.524 . S
C2167 C2171 1.400 . S
C2168 H2153 0.960 . S
C2168 H2154 0.960 . S
C2168 H2155 0.960 1_556 S
C2168 C2167 1.524 . S
C2169 C2166 1.403 . S
C2169 C2170 1.389 1_554 S
C2169 C2173 1.495 . S
C2170 C2169 1.389 1_556 S
C2170 C2171 1.389 . S
C2170 C2172 1.478 . S
C2171 H2165 0.930 . S
C2171 C2167 1.400 . S
C2171 C2170 1.389 . S
C2172 C2170 1.478 . S
C2172 C2174 1.402 . S
C2172 C2178 1.363 1_556 S
C2173 C2169 1.495 . S
C2173 H2179 0.959 . S
C2173 H2180 0.961 . S
C2173 H2181 0.960 1_554 S
C2174 C2172 1.402 . S
C2174 C2175 1.394 . S
C2174 H2182 0.930 . S
C2175 C2174 1.394 . S
C2175 C2176 1.383 . S
C2175 H2183 0.929 . S
C2176 C2175 1.383 . S
C2176 C2177 1.377 1_556 S
C2177 H2161 0.930 . S
C2177 C2176 1.377 1_554 S
C2177 C2178 1.379 . S
C2178 H2162 0.931 . S
C2178 C2172 1.363 1_554 S
C2178 C2177 1.379 . S
H2179 C2173 0.959 . S
H2180 C2173 0.961 . S
H2181 C2173 0.960 1_556 S
H2182 C2174 0.930 . S
H2183 C2175 0.929 . S
H2184 C2192 0.929 . S
H2185 C2194 0.930 . S
H2186 C2196 0.930 . S
H2187 C2199 0.929 . S
H2188 C2202 0.930 . S
H2189 C2204 0.960 . S
H2190 C2204 0.960 . S
H2191 C2204 0.960 . S
C2192 H2184 0.929 . S
C2192 C2193 1.377 . S
C2192 C2194 1.384 . S
C2193 C2192 1.377 . S
C2193 C2199 1.390 . S
C2194 H2185 0.930 . S
C2194 C2192 1.384 . S
C2194 C2195 1.372 . S
C2195 C2194 1.372 . S
C2195 C2196 1.400 . S
C2195 C2200 1.490 . S
C2196 H2186 0.930 . S
C2196 C2195 1.400 . S
C2196 C2199 1.386 . S
H2197 C2213 0.930 . S
H2198 C2214 0.931 . S
C2199 H2187 0.929 . S
C2199 C2193 1.390 . S
C2199 C2196 1.386 . S
C2200 C2195 1.490 . S
C2200 C2202 1.395 . S
C2200 C2203 1.403 . S
H2201 C2207 0.930 . S
C2202 H2188 0.930 . S
C2202 C2200 1.395 . S
C2202 C2205 1.403 . S
C2203 C2200 1.403 . S
C2203 C2204 1.524 . S
C2203 C2207 1.400 . S
C2204 H2189 0.960 . S
C2204 H2190 0.960 . S
C2204 H2191 0.960 . S
C2204 C2203 1.524 . S
C2205 C2202 1.403 . S
C2205 C2206 1.392 . S
C2205 C2209 1.495 . S
C2206 C2205 1.392 . S
C2206 C2207 1.385 . S
C2206 C2208 1.478 . S
C2207 H2201 0.930 . S
C2207 C2203 1.400 . S
C2207 C2206 1.385 . S
C2208 C2206 1.478 . S
C2208 C2210 1.381 . S
C2208 C2214 1.383 . S
C2209 C2205 1.495 . S
C2209 H2215 0.959 . S
C2209 H2216 0.961 . S
C2209 H2217 0.960 . S
C2210 C2208 1.381 . S
C2210 C2211 1.394 . S
C2210 H2218 0.930 . S
C2211 C2210 1.394 . S
C2211 C2212 1.383 . S
C2211 H2219 0.929 . S
C2212 C2211 1.383 . S
C2212 C2213 1.377 . S
C2213 H2197 0.930 . S
C2213 C2212 1.377 . S
C2213 C2214 1.379 . S
C2214 H2198 0.931 . S
C2214 C2208 1.383 . S
C2214 C2213 1.379 . S
H2215 C2209 0.959 . S
H2216 C2209 0.961 . S
H2217 C2209 0.960 . S
H2218 C2210 0.930 . S
H2219 C2211 0.929 . S
H2220 C2228 0.929 . S
H2221 C2230 0.930 . S
H2222 C2232 0.930 . S
H2223 C2235 0.929 . S
H2224 C2238 0.930 . S
H2225 C2240 0.960 . S
H2226 C2240 0.960 . S
H2227 C2240 0.960 . S
C2228 H2220 0.929 . S
C2228 C2229 1.377 . S
C2228 C2230 1.384 . S
C2229 C2228 1.377 . S
C2229 C2235 1.390 . S
C2230 H2221 0.930 . S
C2230 C2228 1.384 . S
C2230 C2231 1.372 . S
C2231 C2230 1.372 . S
C2231 C2232 1.400 . S
C2231 C2236 1.490 . S
C2232 H2222 0.930 . S
C2232 C2231 1.400 . S
C2232 C2235 1.386 . S
H2233 C2249 0.930 . S
H2234 C2250 0.931 . S
C2235 H2223 0.929 . S
C2235 C2229 1.390 . S
C2235 C2232 1.386 . S
C2236 C2231 1.490 . S
C2236 C2238 1.395 . S
C2236 C2239 1.403 . S
H2237 C2243 0.930 . S
C2238 H2224 0.930 . S
C2238 C2236 1.395 . S
C2238 C2241 1.403 . S
C2239 C2236 1.403 . S
C2239 C2240 1.524 . S
C2239 C2243 1.400 . S
C2240 H2225 0.960 . S
C2240 H2226 0.960 . S
C2240 H2227 0.960 . S
C2240 C2239 1.524 . S
C2241 C2238 1.403 . S
C2241 C2242 1.392 . S
C2241 C2245 1.495 . S
C2242 C2241 1.392 . S
C2242 C2243 1.385 . S
C2242 C2244 1.478 . S
C2243 H2237 0.930 . S
C2243 C2239 1.400 . S
C2243 C2242 1.385 . S
C2244 C2242 1.478 . S
C2244 C2246 1.381 . S
C2244 C2250 1.383 . S
C2245 C2241 1.495 . S
C2245 H2251 0.959 . S
C2245 H2252 0.961 . S
C2245 H2253 0.960 . S
C2246 C2244 1.381 . S
C2246 C2247 1.394 . S
C2246 H2254 0.930 . S
C2247 C2246 1.394 . S
C2247 C2248 1.383 . S
C2247 H2255 0.929 . S
C2248 C2247 1.383 . S
C2248 C2249 1.377 . S
C2249 H2233 0.930 . S
C2249 C2248 1.377 . S
C2249 C2250 1.379 . S
C2250 H2234 0.931 . S
C2250 C2244 1.383 . S
C2250 C2249 1.379 . S
H2251 C2245 0.959 . S
H2252 C2245 0.961 . S
H2253 C2245 0.960 . S
H2254 C2246 0.930 . S
H2255 C2247 0.929 . S
H2256 C2264 0.929 . S
H2257 C2266 0.930 . S
H2258 C2268 0.930 . S
H2259 C2271 0.929 . S
H2260 C2274 0.930 . S
H2261 C2276 0.960 . S
H2262 C2276 0.960 . S
H2263 C2276 0.960 . S
C2264 H2256 0.929 . S
C2264 C2265 1.377 . S
C2264 C2266 1.384 . S
C2265 C2264 1.377 . S
C2265 C2271 1.390 . S
C2266 H2257 0.930 . S
C2266 C2264 1.384 . S
C2266 C2267 1.372 . S
C2267 C2266 1.372 . S
C2267 C2268 1.400 . S
C2267 C2272 1.490 . S
C2268 H2258 0.930 . S
C2268 C2267 1.400 . S
C2268 C2271 1.386 . S
H2269 C2285 0.930 . S
H2270 C2286 0.931 . S
C2271 H2259 0.929 . S
C2271 C2265 1.390 . S
C2271 C2268 1.386 . S
C2272 C2267 1.490 . S
C2272 C2274 1.395 . S
C2272 C2275 1.403 . S
H2273 C2279 0.930 . S
C2274 H2260 0.930 . S
C2274 C2272 1.395 . S
C2274 C2277 1.403 . S
C2275 C2272 1.403 . S
C2275 C2276 1.524 . S
C2275 C2279 1.400 . S
C2276 H2261 0.960 . S
C2276 H2262 0.960 . S
C2276 H2263 0.960 . S
C2276 C2275 1.524 . S
C2277 C2274 1.403 . S
C2277 C2278 1.392 . S
C2277 C2281 1.495 . S
C2278 C2277 1.392 . S
C2278 C2279 1.385 . S
C2278 C2280 1.478 . S
C2279 H2273 0.930 . S
C2279 C2275 1.400 . S
C2279 C2278 1.385 . S
C2280 C2278 1.478 . S
C2280 C2282 1.381 . S
C2280 C2286 1.383 . S
C2281 C2277 1.495 . S
C2281 H2287 0.959 . S
C2281 H2288 0.961 . S
C2281 H2289 0.960 . S
C2282 C2280 1.381 . S
C2282 C2283 1.394 . S
C2282 H2290 0.930 . S
C2283 C2282 1.394 . S
C2283 C2284 1.383 . S
C2283 H2291 0.929 . S
C2284 C2283 1.383 . S
C2284 C2285 1.377 . S
C2285 H2269 0.930 . S
C2285 C2284 1.377 . S
C2285 C2286 1.379 . S
C2286 H2270 0.931 . S
C2286 C2280 1.383 . S
C2286 C2285 1.379 . S
H2287 C2281 0.959 . S
H2288 C2281 0.961 . S
H2289 C2281 0.960 . S
H2290 C2282 0.930 . S
H2291 C2283 0.929 . S
H2292 C2300 0.929 . S
H2293 C2302 0.930 . S
H2294 C2304 0.930 . S
H2295 C2307 0.929 . S
H2296 C2310 0.930 . S
H2297 C2312 0.960 . S
H2298 C2312 0.960 . S
H2299 C2312 0.960 . S
C2300 H2292 0.929 . S
C2300 C2301 1.377 . S
C2300 C2302 1.384 . S
C2301 C2300 1.377 . S
C2301 C2307 1.390 . S
C2302 H2293 0.930 . S
C2302 C2300 1.384 . S
C2302 C2303 1.372 . S
C2303 C2302 1.372 . S
C2303 C2304 1.400 . S
C2303 C2308 1.490 . S
C2304 H2294 0.930 . S
C2304 C2303 1.400 . S
C2304 C2307 1.386 . S
H2305 C2321 0.930 . S
H2306 C2322 0.931 . S
C2307 H2295 0.929 . S
C2307 C2301 1.390 . S
C2307 C2304 1.386 . S
C2308 C2303 1.490 . S
C2308 C2310 1.395 . S
C2308 C2311 1.403 . S
H2309 C2315 0.930 . S
C2310 H2296 0.930 . S
C2310 C2308 1.395 . S
C2310 C2313 1.403 . S
C2311 C2308 1.403 . S
C2311 C2312 1.524 . S
C2311 C2315 1.400 . S
C2312 H2297 0.960 . S
C2312 H2298 0.960 . S
C2312 H2299 0.960 . S
C2312 C2311 1.524 . S
C2313 C2310 1.403 . S
C2313 C2314 1.392 . S
C2313 C2317 1.495 . S
C2314 C2313 1.392 . S
C2314 C2315 1.385 . S
C2314 C2316 1.478 . S
C2315 H2309 0.930 . S
C2315 C2311 1.400 . S
C2315 C2314 1.385 . S
C2316 C2314 1.478 . S
C2316 C2318 1.381 . S
C2316 C2322 1.383 . S
C2317 C2313 1.495 . S
C2317 H2323 0.959 . S
C2317 H2324 0.961 . S
C2317 H2325 0.960 . S
C2318 C2316 1.381 . S
C2318 C2319 1.394 . S
C2318 H2326 0.930 . S
C2319 C2318 1.394 . S
C2319 C2320 1.383 . S
C2319 H2327 0.929 . S
C2320 C2319 1.383 . S
C2320 C2321 1.377 . S
C2321 H2305 0.930 . S
C2321 C2320 1.377 . S
C2321 C2322 1.379 . S
C2322 H2306 0.931 . S
C2322 C2316 1.383 . S
C2322 C2321 1.379 . S
H2323 C2317 0.959 . S
H2324 C2317 0.961 . S
H2325 C2317 0.960 . S
H2326 C2318 0.930 . S
H2327 C2319 0.929 . S
H2328 C2336 0.929 . S
H2329 C2338 0.930 . S
H2330 C2340 0.930 . S
H2331 C2343 0.929 . S
H2332 C2346 0.930 . S
H2333 C2348 0.960 . S
H2334 C2348 0.960 . S
H2335 C2348 0.960 . S
C2336 H2328 0.929 . S
C2336 C2337 1.377 . S
C2336 C2338 1.384 . S
C2337 C2336 1.377 . S
C2337 C2343 1.390 . S
C2338 H2329 0.930 . S
C2338 C2336 1.384 . S
C2338 C2339 1.372 . S
C2339 C2338 1.372 . S
C2339 C2340 1.400 . S
C2339 C2344 1.490 . S
C2340 H2330 0.930 . S
C2340 C2339 1.400 . S
C2340 C2343 1.386 . S
H2341 C2357 0.930 . S
H2342 C2358 0.931 . S
C2343 H2331 0.929 . S
C2343 C2337 1.390 . S
C2343 C2340 1.386 . S
C2344 C2339 1.490 . S
C2344 C2346 1.395 . S
C2344 C2347 1.403 . S
H2345 C2351 0.930 . S
C2346 H2332 0.930 . S
C2346 C2344 1.395 . S
C2346 C2349 1.403 . S
C2347 C2344 1.403 . S
C2347 C2348 1.524 . S
C2347 C2351 1.400 . S
C2348 H2333 0.960 . S
C2348 H2334 0.960 . S
C2348 H2335 0.960 . S
C2348 C2347 1.524 . S
C2349 C2346 1.403 . S
C2349 C2350 1.392 . S
C2349 C2353 1.495 . S
C2350 C2349 1.392 . S
C2350 C2351 1.385 . S
C2350 C2352 1.478 . S
C2351 H2345 0.930 . S
C2351 C2347 1.400 . S
C2351 C2350 1.385 . S
C2352 C2350 1.478 . S
C2352 C2354 1.381 . S
C2352 C2358 1.383 . S
C2353 C2349 1.495 . S
C2353 H2359 0.959 . S
C2353 H2360 0.961 . S
C2353 H2361 0.960 . S
C2354 C2352 1.381 . S
C2354 C2355 1.394 . S
C2354 H2362 0.930 . S
C2355 C2354 1.394 . S
C2355 C2356 1.383 . S
C2355 H2363 0.929 . S
C2356 C2355 1.383 . S
C2356 C2357 1.377 . S
C2357 H2341 0.930 . S
C2357 C2356 1.377 . S
C2357 C2358 1.379 . S
C2358 H2342 0.931 . S
C2358 C2352 1.383 . S
C2358 C2357 1.379 . S
H2359 C2353 0.959 . S
H2360 C2353 0.961 . S
H2361 C2353 0.960 . S
H2362 C2354 0.930 . S
H2363 C2355 0.929 . S
H2364 C2372 0.929 . S
H2365 C2374 0.930 . S
H2366 C2376 0.930 . S
H2367 C2379 0.929 . S
H2368 C2382 0.930 . S
H2369 C2384 0.960 . S
H2370 C2384 0.960 . S
H2371 C2384 0.960 . S
C2372 H2364 0.929 . S
C2372 C2373 1.377 . S
C2372 C2374 1.384 . S
C2373 C2372 1.377 . S
C2373 C2379 1.390 . S
C2374 H2365 0.930 . S
C2374 C2372 1.384 . S
C2374 C2375 1.372 . S
C2375 C2374 1.372 . S
C2375 C2376 1.400 . S
C2375 C2380 1.490 . S
C2376 H2366 0.930 . S
C2376 C2375 1.400 . S
C2376 C2379 1.386 . S
H2377 C2393 0.930 . S
H2378 C2394 0.931 . S
C2379 H2367 0.929 . S
C2379 C2373 1.390 . S
C2379 C2376 1.386 . S
C2380 C2375 1.490 . S
C2380 C2382 1.395 . S
C2380 C2383 1.403 . S
H2381 C2387 0.930 . S
C2382 H2368 0.930 . S
C2382 C2380 1.395 . S
C2382 C2385 1.403 . S
C2383 C2380 1.403 . S
C2383 C2384 1.524 . S
C2383 C2387 1.400 . S
C2384 H2369 0.960 . S
C2384 H2370 0.960 . S
C2384 H2371 0.960 . S
C2384 C2383 1.524 . S
C2385 C2382 1.403 . S
C2385 C2386 1.392 . S
C2385 C2389 1.495 . S
C2386 C2385 1.392 . S
C2386 C2387 1.385 . S
C2386 C2388 1.478 . S
C2387 H2381 0.930 . S
C2387 C2383 1.400 . S
C2387 C2386 1.385 . S
C2388 C2386 1.478 . S
C2388 C2390 1.381 . S
C2388 C2394 1.383 . S
C2389 C2385 1.495 . S
C2389 H2395 0.959 . S
C2389 H2396 0.961 . S
C2389 H2397 0.960 . S
C2390 C2388 1.381 . S
C2390 C2391 1.394 . S
C2390 H2398 0.930 . S
C2391 C2390 1.394 . S
C2391 C2392 1.383 . S
C2391 H2399 0.929 . S
C2392 C2391 1.383 . S
C2392 C2393 1.377 . S
C2393 H2377 0.930 . S
C2393 C2392 1.377 . S
C2393 C2394 1.379 . S
C2394 H2378 0.931 . S
C2394 C2388 1.383 . S
C2394 C2393 1.379 . S
H2395 C2389 0.959 . S
H2396 C2389 0.961 . S
H2397 C2389 0.960 . S
H2398 C2390 0.930 . S
H2399 C2391 0.929 . S
H2400 C2408 0.929 . S
H2401 C2410 0.930 . S
H2402 C2412 0.930 . S
H2403 C2415 0.929 . S
H2404 C2418 0.930 . S
H2405 C2420 0.960 . S
H2406 C2420 0.960 . S
H2407 C2420 0.960 . S
C2408 H2400 0.929 . S
C2408 C2409 1.377 . S
C2408 C2410 1.384 . S
C2409 C2408 1.377 . S
C2409 C2415 1.390 . S
C2410 H2401 0.930 . S
C2410 C2408 1.384 . S
C2410 C2411 1.372 . S
C2411 C2410 1.372 . S
C2411 C2412 1.400 . S
C2411 C2416 1.490 . S
C2412 H2402 0.930 . S
C2412 C2411 1.400 . S
C2412 C2415 1.386 . S
H2413 C2429 0.930 . S
H2414 C2430 0.931 . S
C2415 H2403 0.929 . S
C2415 C2409 1.390 . S
C2415 C2412 1.386 . S
C2416 C2411 1.490 . S
C2416 C2418 1.395 . S
C2416 C2419 1.403 . S
H2417 C2423 0.930 . S
C2418 H2404 0.930 . S
C2418 C2416 1.395 . S
C2418 C2421 1.403 . S
C2419 C2416 1.403 . S
C2419 C2420 1.524 . S
C2419 C2423 1.400 . S
C2420 H2405 0.960 . S
C2420 H2406 0.960 . S
C2420 H2407 0.960 . S
C2420 C2419 1.524 . S
C2421 C2418 1.403 . S
C2421 C2422 1.392 . S
C2421 C2425 1.495 . S
C2422 C2421 1.392 . S
C2422 C2423 1.385 . S
C2422 C2424 1.478 . S
C2423 H2417 0.930 . S
C2423 C2419 1.400 . S
C2423 C2422 1.385 . S
C2424 C2422 1.478 . S
C2424 C2426 1.381 . S
C2424 C2430 1.383 . S
C2425 C2421 1.495 . S
C2425 H2431 0.959 . S
C2425 H2432 0.961 . S
C2425 H2433 0.960 . S
C2426 C2424 1.381 . S
C2426 C2427 1.394 . S
C2426 H2434 0.930 . S
C2427 C2426 1.394 . S
C2427 C2428 1.383 . S
C2427 H2435 0.929 . S
C2428 C2427 1.383 . S
C2428 C2429 1.377 . S
C2429 H2413 0.930 . S
C2429 C2428 1.377 . S
C2429 C2430 1.379 . S
C2430 H2414 0.931 . S
C2430 C2424 1.383 . S
C2430 C2429 1.379 . S
H2431 C2425 0.959 . S
H2432 C2425 0.961 . S
H2433 C2425 0.960 . S
H2434 C2426 0.930 . S
H2435 C2427 0.929 . S
H2436 C2444 0.929 . S
H2437 C2446 0.930 . S
H2438 C2448 0.930 . S
H2439 C2451 0.929 . S
H2440 C2454 0.930 . S
H2441 C2456 0.960 . S
H2442 C2456 0.960 . S
H2443 C2456 0.960 . S
C2444 H2436 0.929 . S
C2444 C2445 1.377 . S
C2444 C2446 1.384 . S
C2445 C2444 1.377 . S
C2445 C2451 1.390 . S
C2446 H2437 0.930 . S
C2446 C2444 1.384 . S
C2446 C2447 1.372 . S
C2447 C2446 1.372 . S
C2447 C2448 1.400 . S
C2447 C2452 1.490 . S
C2448 H2438 0.930 . S
C2448 C2447 1.400 . S
C2448 C2451 1.386 . S
H2449 C2465 0.930 . S
H2450 C2466 0.931 . S
C2451 H2439 0.929 . S
C2451 C2445 1.390 . S
C2451 C2448 1.386 . S
C2452 C2447 1.490 . S
C2452 C2454 1.395 . S
C2452 C2455 1.403 . S
H2453 C2459 0.930 . S
C2454 H2440 0.930 . S
C2454 C2452 1.395 . S
C2454 C2457 1.403 . S
C2455 C2452 1.403 . S
C2455 C2456 1.524 . S
C2455 C2459 1.400 . S
C2456 H2441 0.960 . S
C2456 H2442 0.960 . S
C2456 H2443 0.960 . S
C2456 C2455 1.524 . S
C2457 C2454 1.403 . S
C2457 C2458 1.392 . S
C2457 C2461 1.495 . S
C2458 C2457 1.392 . S
C2458 C2459 1.385 . S
C2458 C2460 1.478 . S
C2459 H2453 0.930 . S
C2459 C2455 1.400 . S
C2459 C2458 1.385 . S
C2460 C2458 1.478 . S
C2460 C2462 1.381 . S
C2460 C2466 1.383 . S
C2461 C2457 1.495 . S
C2461 H2467 0.959 . S
C2461 H2468 0.961 . S
C2461 H2469 0.960 . S
C2462 C2460 1.381 . S
C2462 C2463 1.394 . S
C2462 H2470 0.930 . S
C2463 C2462 1.394 . S
C2463 C2464 1.383 . S
C2463 H2471 0.929 . S
C2464 C2463 1.383 . S
C2464 C2465 1.377 . S
C2465 H2449 0.930 . S
C2465 C2464 1.377 . S
C2465 C2466 1.379 . S
C2466 H2450 0.931 . S
C2466 C2460 1.383 . S
C2466 C2465 1.379 . S
H2467 C2461 0.959 . S
H2468 C2461 0.961 . S
H2469 C2461 0.960 . S
H2470 C2462 0.930 . S
H2471 C2463 0.929 . S
H2472 C2480 0.929 . S
H2473 C2482 0.930 . S
H2474 C2484 0.930 . S
H2475 C2487 0.929 . S
H2476 C2490 0.930 . S
H2477 C2492 0.960 . S
H2478 C2492 0.960 . S
H2479 C2492 0.960 . S
C2480 H2472 0.929 . S
C2480 C2481 1.377 1_655 S
C2480 C2482 1.384 . S
C2481 C2480 1.377 1_455 S
C2481 C2487 1.390 . S
C2482 H2473 0.930 . S
C2482 C2480 1.384 . S
C2482 C2483 1.372 1_655 S
C2483 C2482 1.372 1_455 S
C2483 C2484 1.400 . S
C2483 C2488 1.490 . S
C2484 H2474 0.930 . S
C2484 C2483 1.400 . S
C2484 C2487 1.386 . S
H2485 C2501 0.930 . S
H2486 C2502 0.931 . S
C2487 H2475 0.929 . S
C2487 C2481 1.390 . S
C2487 C2484 1.386 . S
C2488 C2483 1.490 . S
C2488 C2490 1.395 1_455 S
C2488 C2491 1.403 . S
H2489 C2495 0.930 . S
C2490 H2476 0.930 . S
C2490 C2488 1.395 1_655 S
C2490 C2493 1.403 . S
C2491 C2488 1.403 . S
C2491 C2492 1.524 . S
C2491 C2495 1.400 . S
C2492 H2477 0.960 . S
C2492 H2478 0.960 . S
C2492 H2479 0.960 . S
C2492 C2491 1.524 . S
C2493 C2490 1.403 . S
C2493 C2494 1.392 1_655 S
C2493 C2497 1.495 . S
C2494 C2493 1.392 1_455 S
C2494 C2495 1.385 . S
C2494 C2496 1.478 . S
C2495 H2489 0.930 . S
C2495 C2491 1.400 . S
C2495 C2494 1.385 . S
C2496 C2494 1.478 . S
C2496 C2498 1.381 1_455 S
C2496 C2502 1.383 . S
C2497 C2493 1.495 . S
C2497 H2503 0.959 . S
C2497 H2504 0.961 1_655 S
C2497 H2505 0.960 . S
C2498 C2496 1.381 1_655 S
C2498 C2499 1.394 . S
C2498 H2506 0.930 . S
C2499 C2498 1.394 . S
C2499 C2500 1.383 1_655 S
C2499 H2507 0.929 . S
C2500 C2499 1.383 1_455 S
C2500 C2501 1.377 . S
C2501 H2485 0.930 . S
C2501 C2500 1.377 . S
C2501 C2502 1.379 . S
C2502 H2486 0.931 . S
C2502 C2496 1.383 . S
C2502 C2501 1.379 . S
H2503 C2497 0.959 . S
H2504 C2497 0.961 1_455 S
H2505 C2497 0.960 . S
H2506 C2498 0.930 . S
H2507 C2499 0.929 . S
H2508 C2516 0.929 . S
H2509 C2518 0.930 . S
H2510 C2520 0.930 . S
H2511 C2523 0.929 . S
H2512 C2526 0.930 . S
H2513 C2528 0.960 . S
H2514 C2528 0.960 . S
H2515 C2528 0.960 . S
C2516 H2508 0.929 . S
C2516 C2517 1.377 . S
C2516 C2518 1.384 . S
C2517 C2516 1.377 . S
C2517 C2523 1.390 . S
C2518 H2509 0.930 . S
C2518 C2516 1.384 . S
C2518 C2519 1.372 . S
C2519 C2518 1.372 . S
C2519 C2520 1.400 . S
C2519 C2524 1.490 . S
C2520 H2510 0.930 . S
C2520 C2519 1.400 . S
C2520 C2523 1.386 . S
H2521 C2537 0.930 . S
H2522 C2538 0.931 . S
C2523 H2511 0.929 . S
C2523 C2517 1.390 . S
C2523 C2520 1.386 . S
C2524 C2519 1.490 . S
C2524 C2526 1.395 . S
C2524 C2527 1.403 . S
H2525 C2531 0.930 . S
C2526 H2512 0.930 . S
C2526 C2524 1.395 . S
C2526 C2529 1.403 . S
C2527 C2524 1.403 . S
C2527 C2528 1.524 . S
C2527 C2531 1.400 . S
C2528 H2513 0.960 . S
C2528 H2514 0.960 . S
C2528 H2515 0.960 . S
C2528 C2527 1.524 . S
C2529 C2526 1.403 . S
C2529 C2530 1.392 . S
C2529 C2533 1.495 . S
C2530 C2529 1.392 . S
C2530 C2531 1.385 . S
C2530 C2532 1.478 . S
C2531 H2525 0.930 . S
C2531 C2527 1.400 . S
C2531 C2530 1.385 . S
C2532 C2530 1.478 . S
C2532 C2534 1.381 . S
C2532 C2538 1.383 . S
C2533 C2529 1.495 . S
C2533 H2539 0.959 . S
C2533 H2540 0.961 . S
C2533 H2541 0.960 . S
C2534 C2532 1.381 . S
C2534 C2535 1.394 . S
C2534 H2542 0.930 . S
C2535 C2534 1.394 . S
C2535 C2536 1.383 . S
C2535 H2543 0.929 . S
C2536 C2535 1.383 . S
C2536 C2537 1.377 . S
C2537 H2521 0.930 . S
C2537 C2536 1.377 . S
C2537 C2538 1.379 . S
C2538 H2522 0.931 . S
C2538 C2532 1.383 . S
C2538 C2537 1.379 . S
H2539 C2533 0.959 . S
H2540 C2533 0.961 . S
H2541 C2533 0.960 . S
H2542 C2534 0.930 . S
H2543 C2535 0.929 . S
H2544 C2552 0.929 . S
H2545 C2554 0.930 . S
H2546 C2556 0.930 . S
H2547 C2559 0.929 . S
H2548 C2562 0.930 . S
H2549 C2564 0.960 . S
H2550 C2564 0.960 . S
H2551 C2564 0.960 . S
C2552 H2544 0.929 . S
C2552 C2553 1.377 . S
C2552 C2554 1.384 . S
C2553 C2552 1.377 . S
C2553 C2559 1.390 . S
C2554 H2545 0.930 . S
C2554 C2552 1.384 . S
C2554 C2555 1.372 . S
C2555 C2554 1.372 . S
C2555 C2556 1.400 . S
C2555 C2560 1.490 . S
C2556 H2546 0.930 . S
C2556 C2555 1.400 . S
C2556 C2559 1.386 . S
H2557 C2573 0.930 . S
H2558 C2574 0.931 . S
C2559 H2547 0.929 . S
C2559 C2553 1.390 . S
C2559 C2556 1.386 . S
C2560 C2555 1.490 . S
C2560 C2562 1.395 . S
C2560 C2563 1.403 . S
H2561 C2567 0.930 . S
C2562 H2548 0.930 . S
C2562 C2560 1.395 . S
C2562 C2565 1.403 . S
C2563 C2560 1.403 . S
C2563 C2564 1.524 . S
C2563 C2567 1.400 . S
C2564 H2549 0.960 . S
C2564 H2550 0.960 . S
C2564 H2551 0.960 . S
C2564 C2563 1.524 . S
C2565 C2562 1.403 . S
C2565 C2566 1.392 . S
C2565 C2569 1.495 . S
C2566 C2565 1.392 . S
C2566 C2567 1.385 . S
C2566 C2568 1.478 . S
C2567 H2561 0.930 . S
C2567 C2563 1.400 . S
C2567 C2566 1.385 . S
C2568 C2566 1.478 . S
C2568 C2570 1.381 . S
C2568 C2574 1.383 . S
C2569 C2565 1.495 . S
C2569 H2575 0.959 . S
C2569 H2576 0.961 . S
C2569 H2577 0.960 . S
C2570 C2568 1.381 . S
C2570 C2571 1.394 . S
C2570 H2578 0.930 . S
C2571 C2570 1.394 . S
C2571 C2572 1.383 . S
C2571 H2579 0.929 . S
C2572 C2571 1.383 . S
C2572 C2573 1.377 . S
C2573 H2557 0.930 . S
C2573 C2572 1.377 . S
C2573 C2574 1.379 . S
C2574 H2558 0.931 . S
C2574 C2568 1.383 . S
C2574 C2573 1.379 . S
H2575 C2569 0.959 . S
H2576 C2569 0.961 . S
H2577 C2569 0.960 . S
H2578 C2570 0.930 . S
H2579 C2571 0.929 . S
H2580 C2588 0.929 . S
H2581 C2590 0.930 . S
H2582 C2592 0.930 . S
H2583 C2595 0.929 . S
H2584 C2598 0.930 . S
H2585 C2600 0.960 . S
H2586 C2600 0.960 . S
H2587 C2600 0.960 . S
C2588 H2580 0.929 . S
C2588 C2589 1.377 . S
C2588 C2590 1.384 . S
C2589 C2588 1.377 . S
C2589 C2595 1.390 . S
C2590 H2581 0.930 . S
C2590 C2588 1.384 . S
C2590 C2591 1.372 . S
C2591 C2590 1.372 . S
C2591 C2592 1.400 . S
C2591 C2596 1.490 . S
C2592 H2582 0.930 . S
C2592 C2591 1.400 . S
C2592 C2595 1.386 . S
H2593 C2609 0.930 . S
H2594 C2610 0.931 . S
C2595 H2583 0.929 . S
C2595 C2589 1.390 . S
C2595 C2592 1.386 . S
C2596 C2591 1.490 . S
C2596 C2598 1.395 . S
C2596 C2599 1.403 . S
H2597 C2603 0.930 . S
C2598 H2584 0.930 . S
C2598 C2596 1.395 . S
C2598 C2601 1.403 . S
C2599 C2596 1.403 . S
C2599 C2600 1.524 . S
C2599 C2603 1.400 . S
C2600 H2585 0.960 . S
C2600 H2586 0.960 . S
C2600 H2587 0.960 . S
C2600 C2599 1.524 . S
C2601 C2598 1.403 . S
C2601 C2602 1.392 . S
C2601 C2605 1.495 . S
C2602 C2601 1.392 . S
C2602 C2603 1.385 . S
C2602 C2604 1.478 . S
C2603 H2597 0.930 . S
C2603 C2599 1.400 . S
C2603 C2602 1.385 . S
C2604 C2602 1.478 . S
C2604 C2606 1.381 . S
C2604 C2610 1.383 . S
C2605 C2601 1.495 . S
C2605 H2611 0.959 . S
C2605 H2612 0.961 . S
C2605 H2613 0.960 . S
C2606 C2604 1.381 . S
C2606 C2607 1.394 . S
C2606 H2614 0.930 . S
C2607 C2606 1.394 . S
C2607 C2608 1.383 . S
C2607 H2615 0.929 . S
C2608 C2607 1.383 . S
C2608 C2609 1.377 . S
C2609 H2593 0.930 . S
C2609 C2608 1.377 . S
C2609 C2610 1.379 . S
C2610 H2594 0.931 . S
C2610 C2604 1.383 . S
C2610 C2609 1.379 . S
H2611 C2605 0.959 . S
H2612 C2605 0.961 . S
H2613 C2605 0.960 . S
H2614 C2606 0.930 . S
H2615 C2607 0.929 . S
H2616 C2624 0.929 . S
H2617 C2626 0.930 . S
H2618 C2628 0.930 . S
H2619 C2631 0.929 . S
H2620 C2634 0.930 . S
H2621 C2636 0.960 . S
H2622 C2636 0.960 1_655 S
H2623 C2636 0.960 . S
C2624 H2616 0.929 . S
C2624 C2625 1.377 1_655 S
C2624 C2626 1.384 . S
C2625 C2624 1.377 1_455 S
C2625 C2631 1.390 . S
C2626 H2617 0.930 . S
C2626 C2624 1.384 . S
C2626 C2627 1.372 1_655 S
C2627 C2626 1.372 1_455 S
C2627 C2628 1.400 . S
C2627 C2632 1.490 . S
C2628 H2618 0.930 . S
C2628 C2627 1.400 . S
C2628 C2631 1.386 . S
H2629 C2645 0.930 . S
H2630 C2646 0.931 . S
C2631 H2619 0.929 . S
C2631 C2625 1.390 . S
C2631 C2628 1.386 . S
C2632 C2627 1.490 . S
C2632 C2634 1.395 . S
C2632 C2635 1.403 . S
H2633 C2639 0.930 . S
C2634 H2620 0.930 . S
C2634 C2632 1.395 . S
C2634 C2637 1.403 . S
C2635 C2632 1.403 . S
C2635 C2636 1.524 . S
C2635 C2639 1.400 . S
C2636 H2621 0.960 . S
C2636 H2622 0.960 1_455 S
C2636 H2623 0.960 . S
C2636 C2635 1.524 . S
C2637 C2634 1.403 . S
C2637 C2638 1.392 . S
C2637 C2641 1.495 . S
C2638 C2637 1.392 . S
C2638 C2639 1.385 . S
C2638 C2640 1.478 . S
C2639 H2633 0.930 . S
C2639 C2635 1.400 . S
C2639 C2638 1.385 . S
C2640 C2638 1.478 . S
C2640 C2642 1.381 1_455 S
C2640 C2646 1.383 . S
C2641 C2637 1.495 . S
C2641 H2647 0.959 . S
C2641 H2648 0.961 . S
C2641 H2649 0.960 . S
C2642 C2640 1.381 1_655 S
C2642 C2643 1.394 . S
C2642 H2650 0.930 . S
C2643 C2642 1.394 . S
C2643 C2644 1.383 1_655 S
C2643 H2651 0.929 . S
C2644 C2643 1.383 1_455 S
C2644 C2645 1.377 . S
C2645 H2629 0.930 . S
C2645 C2644 1.377 . S
C2645 C2646 1.379 . S
C2646 H2630 0.931 . S
C2646 C2640 1.383 . S
C2646 C2645 1.379 . S
H2647 C2641 0.959 . S
H2648 C2641 0.961 . S
H2649 C2641 0.960 . S
H2650 C2642 0.930 . S
H2651 C2643 0.929 . S
H2652 C2660 0.929 . S
H2653 C2662 0.930 . S
H2654 C2664 0.930 . S
H2655 C2667 0.929 . S
H2656 C2670 0.930 . S
H2657 C2672 0.960 . S
H2658 C2672 0.960 . S
H2659 C2672 0.960 . S
C2660 H2652 0.929 . S
C2660 C2661 1.377 . S
C2660 C2662 1.384 . S
C2661 C2660 1.377 . S
C2661 C2667 1.390 . S
C2662 H2653 0.930 . S
C2662 C2660 1.384 . S
C2662 C2663 1.372 . S
C2663 C2662 1.372 . S
C2663 C2664 1.400 . S
C2663 C2668 1.490 . S
C2664 H2654 0.930 . S
C2664 C2663 1.400 . S
C2664 C2667 1.386 . S
H2665 C2681 0.930 . S
H2666 C2682 0.931 . S
C2667 H2655 0.929 . S
C2667 C2661 1.390 . S
C2667 C2664 1.386 . S
C2668 C2663 1.490 . S
C2668 C2670 1.395 . S
C2668 C2671 1.403 . S
H2669 C2675 0.930 . S
C2670 H2656 0.930 . S
C2670 C2668 1.395 . S
C2670 C2673 1.403 . S
C2671 C2668 1.403 . S
C2671 C2672 1.524 . S
C2671 C2675 1.400 . S
C2672 H2657 0.960 . S
C2672 H2658 0.960 . S
C2672 H2659 0.960 . S
C2672 C2671 1.524 . S
C2673 C2670 1.403 . S
C2673 C2674 1.392 . S
C2673 C2677 1.495 . S
C2674 C2673 1.392 . S
C2674 C2675 1.385 . S
C2674 C2676 1.478 . S
C2675 H2669 0.930 . S
C2675 C2671 1.400 . S
C2675 C2674 1.385 . S
C2676 C2674 1.478 . S
C2676 C2678 1.381 . S
C2676 C2682 1.383 . S
C2677 C2673 1.495 . S
C2677 H2683 0.959 . S
C2677 H2684 0.961 . S
C2677 H2685 0.960 . S
C2678 C2676 1.381 . S
C2678 C2679 1.394 . S
C2678 H2686 0.930 . S
C2679 C2678 1.394 . S
C2679 C2680 1.383 . S
C2679 H2687 0.929 . S
C2680 C2679 1.383 . S
C2680 C2681 1.377 . S
C2681 H2665 0.930 . S
C2681 C2680 1.377 . S
C2681 C2682 1.379 . S
C2682 H2666 0.931 . S
C2682 C2676 1.383 . S
C2682 C2681 1.379 . S
H2683 C2677 0.959 . S
H2684 C2677 0.961 . S
H2685 C2677 0.960 . S
H2686 C2678 0.930 . S
H2687 C2679 0.929 . S
H2688 C2696 0.929 . S
H2689 C2698 0.930 . S
H2690 C2700 0.930 . S
H2691 C2703 0.929 . S
H2692 C2706 0.930 . S
H2693 C2708 0.960 . S
H2694 C2708 0.960 . S
H2695 C2708 0.960 . S
C2696 H2688 0.929 . S
C2696 C2697 1.377 . S
C2696 C2698 1.384 . S
C2697 C2696 1.377 . S
C2697 C2703 1.390 . S
C2698 H2689 0.930 . S
C2698 C2696 1.384 . S
C2698 C2699 1.372 . S
C2699 C2698 1.372 . S
C2699 C2700 1.400 . S
C2699 C2704 1.490 . S
C2700 H2690 0.930 . S
C2700 C2699 1.400 . S
C2700 C2703 1.386 . S
H2701 C2717 0.930 . S
H2702 C2718 0.931 . S
C2703 H2691 0.929 . S
C2703 C2697 1.390 . S
C2703 C2700 1.386 . S
C2704 C2699 1.490 . S
C2704 C2706 1.395 . S
C2704 C2707 1.403 . S
H2705 C2711 0.930 . S
C2706 H2692 0.930 . S
C2706 C2704 1.395 . S
C2706 C2709 1.403 . S
C2707 C2704 1.403 . S
C2707 C2708 1.524 . S
C2707 C2711 1.400 . S
C2708 H2693 0.960 . S
C2708 H2694 0.960 . S
C2708 H2695 0.960 . S
C2708 C2707 1.524 . S
C2709 C2706 1.403 . S
C2709 C2710 1.392 . S
C2709 C2713 1.495 . S
C2710 C2709 1.392 . S
C2710 C2711 1.385 . S
C2710 C2712 1.478 . S
C2711 H2705 0.930 . S
C2711 C2707 1.400 . S
C2711 C2710 1.385 . S
C2712 C2710 1.478 . S
C2712 C2714 1.381 . S
C2712 C2718 1.383 . S
C2713 C2709 1.495 . S
C2713 H2719 0.959 . S
C2713 H2720 0.961 . S
C2713 H2721 0.960 . S
C2714 C2712 1.381 . S
C2714 C2715 1.394 . S
C2714 H2722 0.930 . S
C2715 C2714 1.394 . S
C2715 C2716 1.383 . S
C2715 H2723 0.929 . S
C2716 C2715 1.383 . S
C2716 C2717 1.377 . S
C2717 H2701 0.930 . S
C2717 C2716 1.377 . S
C2717 C2718 1.379 . S
C2718 H2702 0.931 . S
C2718 C2712 1.383 . S
C2718 C2717 1.379 . S
H2719 C2713 0.959 . S
H2720 C2713 0.961 . S
H2721 C2713 0.960 . S
H2722 C2714 0.930 . S
H2723 C2715 0.929 . S
H2724 C2732 0.929 . S
H2725 C2734 0.930 . S
H2726 C2736 0.930 . S
H2727 C2739 0.929 . S
H2728 C2742 0.930 . S
H2729 C2744 0.960 . S
H2730 C2744 0.960 . S
H2731 C2744 0.960 . S
C2732 H2724 0.929 . S
C2732 C2733 1.377 . S
C2732 C2734 1.384 . S
C2733 C2732 1.377 . S
C2733 C2739 1.390 . S
C2734 H2725 0.930 . S
C2734 C2732 1.384 . S
C2734 C2735 1.372 . S
C2735 C2734 1.372 . S
C2735 C2736 1.400 . S
C2735 C2740 1.490 . S
C2736 H2726 0.930 . S
C2736 C2735 1.400 . S
C2736 C2739 1.386 . S
H2737 C2753 0.930 . S
H2738 C2754 0.931 . S
C2739 H2727 0.929 . S
C2739 C2733 1.390 . S
C2739 C2736 1.386 . S
C2740 C2735 1.490 . S
C2740 C2742 1.395 . S
C2740 C2743 1.403 . S
H2741 C2747 0.930 . S
C2742 H2728 0.930 . S
C2742 C2740 1.395 . S
C2742 C2745 1.403 . S
C2743 C2740 1.403 . S
C2743 C2744 1.524 . S
C2743 C2747 1.400 . S
C2744 H2729 0.960 . S
C2744 H2730 0.960 . S
C2744 H2731 0.960 . S
C2744 C2743 1.524 . S
C2745 C2742 1.403 . S
C2745 C2746 1.392 . S
C2745 C2749 1.495 . S
C2746 C2745 1.392 . S
C2746 C2747 1.385 . S
C2746 C2748 1.478 . S
C2747 H2741 0.930 . S
C2747 C2743 1.400 . S
C2747 C2746 1.385 . S
C2748 C2746 1.478 . S
C2748 C2750 1.381 . S
C2748 C2754 1.383 . S
C2749 C2745 1.495 . S
C2749 H2755 0.959 . S
C2749 H2756 0.961 . S
C2749 H2757 0.960 . S
C2750 C2748 1.381 . S
C2750 C2751 1.394 . S
C2750 H2758 0.930 . S
C2751 C2750 1.394 . S
C2751 C2752 1.383 . S
C2751 H2759 0.929 . S
C2752 C2751 1.383 . S
C2752 C2753 1.377 . S
C2753 H2737 0.930 . S
C2753 C2752 1.377 . S
C2753 C2754 1.379 . S
C2754 H2738 0.931 . S
C2754 C2748 1.383 . S
C2754 C2753 1.379 . S
H2755 C2749 0.959 . S
H2756 C2749 0.961 . S
H2757 C2749 0.960 . S
H2758 C2750 0.930 . S
H2759 C2751 0.929 . S
H2760 C2768 0.929 . S
H2761 C2770 0.930 . S
H2762 C2772 0.930 . S
H2763 C2775 0.929 . S
H2764 C2778 0.930 . S
H2765 C2780 0.960 . S
H2766 C2780 0.960 . S
H2767 C2780 0.960 . S
C2768 H2760 0.929 . S
C2768 C2769 1.377 . S
C2768 C2770 1.384 . S
C2769 C2768 1.377 . S
C2769 C2775 1.390 . S
C2770 H2761 0.930 . S
C2770 C2768 1.384 . S
C2770 C2771 1.372 . S
C2771 C2770 1.372 . S
C2771 C2772 1.400 . S
C2771 C2776 1.490 . S
C2772 H2762 0.930 . S
C2772 C2771 1.400 . S
C2772 C2775 1.386 . S
H2773 C2789 0.930 . S
H2774 C2790 0.931 . S
C2775 H2763 0.929 . S
C2775 C2769 1.390 . S
C2775 C2772 1.386 . S
C2776 C2771 1.490 . S
C2776 C2778 1.395 . S
C2776 C2779 1.403 . S
H2777 C2783 0.930 . S
C2778 H2764 0.930 . S
C2778 C2776 1.395 . S
C2778 C2781 1.403 . S
C2779 C2776 1.403 . S
C2779 C2780 1.524 . S
C2779 C2783 1.400 . S
C2780 H2765 0.960 . S
C2780 H2766 0.960 . S
C2780 H2767 0.960 . S
C2780 C2779 1.524 . S
C2781 C2778 1.403 . S
C2781 C2782 1.392 . S
C2781 C2785 1.495 . S
C2782 C2781 1.392 . S
C2782 C2783 1.385 . S
C2782 C2784 1.478 . S
C2783 H2777 0.930 . S
C2783 C2779 1.400 . S
C2783 C2782 1.385 . S
C2784 C2782 1.478 . S
C2784 C2786 1.381 . S
C2784 C2790 1.383 . S
C2785 C2781 1.495 . S
C2785 H2791 0.959 . S
C2785 H2792 0.961 . S
C2785 H2793 0.960 . S
C2786 C2784 1.381 . S
C2786 C2787 1.394 . S
C2786 H2794 0.930 . S
C2787 C2786 1.394 . S
C2787 C2788 1.383 . S
C2787 H2795 0.929 . S
C2788 C2787 1.383 . S
C2788 C2789 1.377 . S
C2789 H2773 0.930 . S
C2789 C2788 1.377 . S
C2789 C2790 1.379 . S
C2790 H2774 0.931 . S
C2790 C2784 1.383 . S
C2790 C2789 1.379 . S
H2791 C2785 0.959 . S
H2792 C2785 0.961 . S
H2793 C2785 0.960 . S
H2794 C2786 0.930 . S
H2795 C2787 0.929 . S
H2796 C2804 0.929 . S
H2797 C2806 0.930 . S
H2798 C2808 0.930 . S
H2799 C2811 0.929 . S
H2800 C2814 0.930 . S
H2801 C2816 0.960 . S
H2802 C2816 0.960 . S
H2803 C2816 0.960 . S
C2804 H2796 0.929 . S
C2804 C2805 1.377 . S
C2804 C2806 1.384 . S
C2805 C2804 1.377 . S
C2805 C2811 1.390 . S
C2806 H2797 0.930 . S
C2806 C2804 1.384 . S
C2806 C2807 1.372 . S
C2807 C2806 1.372 . S
C2807 C2808 1.400 . S
C2807 C2812 1.490 . S
C2808 H2798 0.930 . S
C2808 C2807 1.400 . S
C2808 C2811 1.386 . S
H2809 C2825 0.930 . S
H2810 C2826 0.931 . S
C2811 H2799 0.929 . S
C2811 C2805 1.390 . S
C2811 C2808 1.386 . S
C2812 C2807 1.490 . S
C2812 C2814 1.395 . S
C2812 C2815 1.403 . S
H2813 C2819 0.930 . S
C2814 H2800 0.930 . S
C2814 C2812 1.395 . S
C2814 C2817 1.403 . S
C2815 C2812 1.403 . S
C2815 C2816 1.524 . S
C2815 C2819 1.400 . S
C2816 H2801 0.960 . S
C2816 H2802 0.960 . S
C2816 H2803 0.960 . S
C2816 C2815 1.524 . S
C2817 C2814 1.403 . S
C2817 C2818 1.392 . S
C2817 C2821 1.495 . S
C2818 C2817 1.392 . S
C2818 C2819 1.385 . S
C2818 C2820 1.478 . S
C2819 H2813 0.930 . S
C2819 C2815 1.400 . S
C2819 C2818 1.385 . S
C2820 C2818 1.478 . S
C2820 C2822 1.381 . S
C2820 C2826 1.383 . S
C2821 C2817 1.495 . S
C2821 H2827 0.959 . S
C2821 H2828 0.961 . S
C2821 H2829 0.960 . S
C2822 C2820 1.381 . S
C2822 C2823 1.394 . S
C2822 H2830 0.930 . S
C2823 C2822 1.394 . S
C2823 C2824 1.383 . S
C2823 H2831 0.929 . S
C2824 C2823 1.383 . S
C2824 C2825 1.377 . S
C2825 H2809 0.930 . S
C2825 C2824 1.377 . S
C2825 C2826 1.379 . S
C2826 H2810 0.931 . S
C2826 C2820 1.383 . S
C2826 C2825 1.379 . S
H2827 C2821 0.959 . S
H2828 C2821 0.961 . S
H2829 C2821 0.960 . S
H2830 C2822 0.930 . S
H2831 C2823 0.929 . S
H2832 C2840 0.929 . S
H2833 C2842 0.930 . S
H2834 C2844 0.930 . S
H2835 C2847 0.929 . S
H2836 C2850 0.930 . S
H2837 C2852 0.960 . S
H2838 C2852 0.960 . S
H2839 C2852 0.960 . S
C2840 H2832 0.929 . S
C2840 C2841 1.377 . S
C2840 C2842 1.384 . S
C2841 C2840 1.377 . S
C2841 C2847 1.390 . S
C2842 H2833 0.930 . S
C2842 C2840 1.384 . S
C2842 C2843 1.372 . S
C2843 C2842 1.372 . S
C2843 C2844 1.400 . S
C2843 C2848 1.490 . S
C2844 H2834 0.930 . S
C2844 C2843 1.400 . S
C2844 C2847 1.386 . S
H2845 C2861 0.930 . S
H2846 C2862 0.931 . S
C2847 H2835 0.929 . S
C2847 C2841 1.390 . S
C2847 C2844 1.386 . S
C2848 C2843 1.490 . S
C2848 C2850 1.395 . S
C2848 C2851 1.403 . S
H2849 C2855 0.930 . S
C2850 H2836 0.930 . S
C2850 C2848 1.395 . S
C2850 C2853 1.403 . S
C2851 C2848 1.403 . S
C2851 C2852 1.524 . S
C2851 C2855 1.400 . S
C2852 H2837 0.960 . S
C2852 H2838 0.960 . S
C2852 H2839 0.960 . S
C2852 C2851 1.524 . S
C2853 C2850 1.403 . S
C2853 C2854 1.392 . S
C2853 C2857 1.495 . S
C2854 C2853 1.392 . S
C2854 C2855 1.385 . S
C2854 C2856 1.478 . S
C2855 H2849 0.930 . S
C2855 C2851 1.400 . S
C2855 C2854 1.385 . S
C2856 C2854 1.478 . S
C2856 C2858 1.381 . S
C2856 C2862 1.383 . S
C2857 C2853 1.495 . S
C2857 H2863 0.959 . S
C2857 H2864 0.961 . S
C2857 H2865 0.960 . S
C2858 C2856 1.381 . S
C2858 C2859 1.394 . S
C2858 H2866 0.930 . S
C2859 C2858 1.394 . S
C2859 C2860 1.383 . S
C2859 H2867 0.929 . S
C2860 C2859 1.383 . S
C2860 C2861 1.377 . S
C2861 H2845 0.930 . S
C2861 C2860 1.377 . S
C2861 C2862 1.379 . S
C2862 H2846 0.931 . S
C2862 C2856 1.383 . S
C2862 C2861 1.379 . S
H2863 C2857 0.959 . S
H2864 C2857 0.961 . S
H2865 C2857 0.960 . S
H2866 C2858 0.930 . S
H2867 C2859 0.929 . S
H2868 C2876 0.929 . S
H2869 C2878 0.930 . S
H2870 C2880 0.930 . S
H2871 C2883 0.929 . S
H2872 C2886 0.930 . S
H2873 C2888 0.960 . S
H2874 C2888 0.960 . S
H2875 C2888 0.960 . S
C2876 H2868 0.929 . S
C2876 C2877 1.377 . S
C2876 C2878 1.384 . S
C2877 C2876 1.377 . S
C2877 C2883 1.390 . S
C2878 H2869 0.930 . S
C2878 C2876 1.384 . S
C2878 C2879 1.372 . S
C2879 C2878 1.372 . S
C2879 C2880 1.400 . S
C2879 C2884 1.490 . S
C2880 H2870 0.930 . S
C2880 C2879 1.400 . S
C2880 C2883 1.386 . S
H2881 C2897 0.930 . S
H2882 C2898 0.931 . S
C2883 H2871 0.929 . S
C2883 C2877 1.390 . S
C2883 C2880 1.386 . S
C2884 C2879 1.490 . S
C2884 C2886 1.395 . S
C2884 C2887 1.403 . S
H2885 C2891 0.930 . S
C2886 H2872 0.930 . S
C2886 C2884 1.395 . S
C2886 C2889 1.403 . S
C2887 C2884 1.403 . S
C2887 C2888 1.524 . S
C2887 C2891 1.400 . S
C2888 H2873 0.960 . S
C2888 H2874 0.960 . S
C2888 H2875 0.960 . S
C2888 C2887 1.524 . S
C2889 C2886 1.403 . S
C2889 C2890 1.392 . S
C2889 C2893 1.495 . S
C2890 C2889 1.392 . S
C2890 C2891 1.385 . S
C2890 C2892 1.478 . S
C2891 H2885 0.930 . S
C2891 C2887 1.400 . S
C2891 C2890 1.385 . S
C2892 C2890 1.478 . S
C2892 C2894 1.381 . S
C2892 C2898 1.383 . S
C2893 C2889 1.495 . S
C2893 H2899 0.959 . S
C2893 H2900 0.961 . S
C2893 H2901 0.960 . S
C2894 C2892 1.381 . S
C2894 C2895 1.394 . S
C2894 H2902 0.930 . S
C2895 C2894 1.394 . S
C2895 C2896 1.383 . S
C2895 H2903 0.929 . S
C2896 C2895 1.383 . S
C2896 C2897 1.377 . S
C2897 H2881 0.930 . S
C2897 C2896 1.377 . S
C2897 C2898 1.379 . S
C2898 H2882 0.931 . S
C2898 C2892 1.383 . S
C2898 C2897 1.379 . S
H2899 C2893 0.959 . S
H2900 C2893 0.961 . S
H2901 C2893 0.960 . S
H2902 C2894 0.930 . S
H2903 C2895 0.929 . S
H2904 C2912 0.929 . S
H2905 C2914 0.930 . S
H2906 C2916 0.930 . S
H2907 C2919 0.929 . S
H2908 C2922 0.930 . S
H2909 C2924 0.960 . S
H2910 C2924 0.960 . S
H2911 C2924 0.960 . S
C2912 H2904 0.929 . S
C2912 C2913 1.377 . S
C2912 C2914 1.384 . S
C2913 C2912 1.377 . S
C2913 C2919 1.390 . S
C2914 H2905 0.930 . S
C2914 C2912 1.384 . S
C2914 C2915 1.372 . S
C2915 C2914 1.372 . S
C2915 C2916 1.400 . S
C2915 C2920 1.490 . S
C2916 H2906 0.930 . S
C2916 C2915 1.400 . S
C2916 C2919 1.386 . S
H2917 C2933 0.930 . S
H2918 C2934 0.931 . S
C2919 H2907 0.929 . S
C2919 C2913 1.390 . S
C2919 C2916 1.386 . S
C2920 C2915 1.490 . S
C2920 C2922 1.395 . S
C2920 C2923 1.403 . S
H2921 C2927 0.930 . S
C2922 H2908 0.930 . S
C2922 C2920 1.395 . S
C2922 C2925 1.403 . S
C2923 C2920 1.403 . S
C2923 C2924 1.524 . S
C2923 C2927 1.400 . S
C2924 H2909 0.960 . S
C2924 H2910 0.960 . S
C2924 H2911 0.960 . S
C2924 C2923 1.524 . S
C2925 C2922 1.403 . S
C2925 C2926 1.392 . S
C2925 C2929 1.495 . S
C2926 C2925 1.392 . S
C2926 C2927 1.385 . S
C2926 C2928 1.478 . S
C2927 H2921 0.930 . S
C2927 C2923 1.400 . S
C2927 C2926 1.385 . S
C2928 C2926 1.478 . S
C2928 C2930 1.381 . S
C2928 C2934 1.383 . S
C2929 C2925 1.495 . S
C2929 H2935 0.959 . S
C2929 H2936 0.961 . S
C2929 H2937 0.960 . S
C2930 C2928 1.381 . S
C2930 C2931 1.394 . S
C2930 H2938 0.930 . S
C2931 C2930 1.394 . S
C2931 C2932 1.383 . S
C2931 H2939 0.929 . S
C2932 C2931 1.383 . S
C2932 C2933 1.377 . S
C2933 H2917 0.930 . S
C2933 C2932 1.377 . S
C2933 C2934 1.379 . S
C2934 H2918 0.931 . S
C2934 C2928 1.383 . S
C2934 C2933 1.379 . S
H2935 C2929 0.959 . S
H2936 C2929 0.961 . S
H2937 C2929 0.960 . S
H2938 C2930 0.930 . S
H2939 C2931 0.929 . S
H2940 C2948 0.929 . S
H2941 C2950 0.930 . S
H2942 C2952 0.930 . S
H2943 C2955 0.929 . S
H2944 C2958 0.930 . S
H2945 C2960 0.960 . S
H2946 C2960 0.960 . S
H2947 C2960 0.960 . S
C2948 H2940 0.929 . S
C2948 C2949 1.377 . S
C2948 C2950 1.384 . S
C2949 C2948 1.377 . S
C2949 C2955 1.390 . S
C2950 H2941 0.930 . S
C2950 C2948 1.384 . S
C2950 C2951 1.372 . S
C2951 C2950 1.372 . S
C2951 C2952 1.400 . S
C2951 C2956 1.490 . S
C2952 H2942 0.930 . S
C2952 C2951 1.400 . S
C2952 C2955 1.386 . S
H2953 C2969 0.930 . S
H2954 C2970 0.931 . S
C2955 H2943 0.929 . S
C2955 C2949 1.390 . S
C2955 C2952 1.386 . S
C2956 C2951 1.490 . S
C2956 C2958 1.395 . S
C2956 C2959 1.403 . S
H2957 C2963 0.930 . S
C2958 H2944 0.930 . S
C2958 C2956 1.395 . S
C2958 C2961 1.403 . S
C2959 C2956 1.403 . S
C2959 C2960 1.524 . S
C2959 C2963 1.400 . S
C2960 H2945 0.960 . S
C2960 H2946 0.960 . S
C2960 H2947 0.960 . S
C2960 C2959 1.524 . S
C2961 C2958 1.403 . S
C2961 C2962 1.392 . S
C2961 C2965 1.495 . S
C2962 C2961 1.392 . S
C2962 C2963 1.385 . S
C2962 C2964 1.478 . S
C2963 H2957 0.930 . S
C2963 C2959 1.400 . S
C2963 C2962 1.385 . S
C2964 C2962 1.478 . S
C2964 C2966 1.381 . S
C2964 C2970 1.383 . S
C2965 C2961 1.495 . S
C2965 H2971 0.959 . S
C2965 H2972 0.961 . S
C2965 H2973 0.960 . S
C2966 C2964 1.381 . S
C2966 C2967 1.394 . S
C2966 H2974 0.930 . S
C2967 C2966 1.394 . S
C2967 C2968 1.383 . S
C2967 H2975 0.929 . S
C2968 C2967 1.383 . S
C2968 C2969 1.377 . S
C2969 H2953 0.930 . S
C2969 C2968 1.377 . S
C2969 C2970 1.379 . S
C2970 H2954 0.931 . S
C2970 C2964 1.383 . S
C2970 C2969 1.379 . S
H2971 C2965 0.959 . S
H2972 C2965 0.961 . S
H2973 C2965 0.960 . S
H2974 C2966 0.930 . S
H2975 C2967 0.929 . S
H2976 C2984 0.929 . S
H2977 C2986 0.930 . S
H2978 C2988 0.930 . S
H2979 C2991 0.929 . S
H2980 C2994 0.930 . S
H2981 C2996 0.960 . S
H2982 C2996 0.960 . S
H2983 C2996 0.960 . S
C2984 H2976 0.929 . S
C2984 C2985 1.377 . S
C2984 C2986 1.384 . S
C2985 C2984 1.377 . S
C2985 C2991 1.390 . S
C2986 H2977 0.930 . S
C2986 C2984 1.384 . S
C2986 C2987 1.372 . S
C2987 C2986 1.372 . S
C2987 C2988 1.400 . S
C2987 C2992 1.490 . S
C2988 H2978 0.930 . S
C2988 C2987 1.400 . S
C2988 C2991 1.386 . S
H2989 C3005 0.930 . S
H2990 C3006 0.931 . S
C2991 H2979 0.929 . S
C2991 C2985 1.390 . S
C2991 C2988 1.386 . S
C2992 C2987 1.490 . S
C2992 C2994 1.395 . S
C2992 C2995 1.403 . S
H2993 C2999 0.930 . S
C2994 H2980 0.930 . S
C2994 C2992 1.395 . S
C2994 C2997 1.403 . S
C2995 C2992 1.403 . S
C2995 C2996 1.524 . S
C2995 C2999 1.400 . S
C2996 H2981 0.960 . S
C2996 H2982 0.960 . S
C2996 H2983 0.960 . S
C2996 C2995 1.524 . S
C2997 C2994 1.403 . S
C2997 C2998 1.392 . S
C2997 C3001 1.495 . S
C2998 C2997 1.392 . S
C2998 C2999 1.385 . S
C2998 C3000 1.478 . S
C2999 H2993 0.930 . S
C2999 C2995 1.400 . S
C2999 C2998 1.385 . S
C3000 C2998 1.478 . S
C3000 C3002 1.381 . S
C3000 C3006 1.383 . S
C3001 C2997 1.495 . S
C3001 H3007 0.959 . S
C3001 H3008 0.961 . S
C3001 H3009 0.960 . S
C3002 C3000 1.381 . S
C3002 C3003 1.394 . S
C3002 H3010 0.930 . S
C3003 C3002 1.394 . S
C3003 C3004 1.383 . S
C3003 H3011 0.929 . S
C3004 C3003 1.383 . S
C3004 C3005 1.377 . S
C3005 H2989 0.930 . S
C3005 C3004 1.377 . S
C3005 C3006 1.379 . S
C3006 H2990 0.931 . S
C3006 C3000 1.383 . S
C3006 C3005 1.379 . S
H3007 C3001 0.959 . S
H3008 C3001 0.961 . S
H3009 C3001 0.960 . S
H3010 C3002 0.930 . S
H3011 C3003 0.929 . S
H3012 C3020 0.929 . S
H3013 C3022 0.930 . S
H3014 C3024 0.930 . S
H3015 C3027 0.929 . S
H3016 C3030 0.930 . S
H3017 C3032 0.960 . S
H3018 C3032 0.960 . S
H3019 C3032 0.960 . S
C3020 H3012 0.929 . S
C3020 C3021 1.377 . S
C3020 C3022 1.384 . S
C3021 C3020 1.377 . S
C3021 C3027 1.390 . S
C3022 H3013 0.930 . S
C3022 C3020 1.384 . S
C3022 C3023 1.372 . S
C3023 C3022 1.372 . S
C3023 C3024 1.400 . S
C3023 C3028 1.490 . S
C3024 H3014 0.930 . S
C3024 C3023 1.400 . S
C3024 C3027 1.386 . S
H3025 C3041 0.930 . S
H3026 C3042 0.931 . S
C3027 H3015 0.929 . S
C3027 C3021 1.390 . S
C3027 C3024 1.386 . S
C3028 C3023 1.490 . S
C3028 C3030 1.395 . S
C3028 C3031 1.403 . S
H3029 C3035 0.930 . S
C3030 H3016 0.930 . S
C3030 C3028 1.395 . S
C3030 C3033 1.403 . S
C3031 C3028 1.403 . S
C3031 C3032 1.524 . S
C3031 C3035 1.400 . S
C3032 H3017 0.960 . S
C3032 H3018 0.960 . S
C3032 H3019 0.960 . S
C3032 C3031 1.524 . S
C3033 C3030 1.403 . S
C3033 C3034 1.392 . S
C3033 C3037 1.495 . S
C3034 C3033 1.392 . S
C3034 C3035 1.385 . S
C3034 C3036 1.478 . S
C3035 H3029 0.930 . S
C3035 C3031 1.400 . S
C3035 C3034 1.385 . S
C3036 C3034 1.478 . S
C3036 C3038 1.381 . S
C3036 C3042 1.383 . S
C3037 C3033 1.495 . S
C3037 H3043 0.959 . S
C3037 H3044 0.961 . S
C3037 H3045 0.960 . S
C3038 C3036 1.381 . S
C3038 C3039 1.394 . S
C3038 H3046 0.930 . S
C3039 C3038 1.394 . S
C3039 C3040 1.383 . S
C3039 H3047 0.929 . S
C3040 C3039 1.383 . S
C3040 C3041 1.377 . S
C3041 H3025 0.930 . S
C3041 C3040 1.377 . S
C3041 C3042 1.379 . S
C3042 H3026 0.931 . S
C3042 C3036 1.383 . S
C3042 C3041 1.379 . S
H3043 C3037 0.959 . S
H3044 C3037 0.961 . S
H3045 C3037 0.960 . S
H3046 C3038 0.930 . S
H3047 C3039 0.929 . S
H3048 C3056 0.929 . S
H3049 C3058 0.930 . S
H3050 C3060 0.930 . S
H3051 C3063 0.929 . S
H3052 C3066 0.930 . S
H3053 C3068 0.960 . S
H3054 C3068 0.960 . S
H3055 C3068 0.960 . S
C3056 H3048 0.929 . S
C3056 C3057 1.377 . S
C3056 C3058 1.384 . S
C3057 C3056 1.377 . S
C3057 C3063 1.390 . S
C3058 H3049 0.930 . S
C3058 C3056 1.384 . S
C3058 C3059 1.372 . S
C3059 C3058 1.372 . S
C3059 C3060 1.400 . S
C3059 C3064 1.490 . S
C3060 H3050 0.930 . S
C3060 C3059 1.400 . S
C3060 C3063 1.386 . S
H3061 C3077 0.930 . S
H3062 C3078 0.931 . S
C3063 H3051 0.929 . S
C3063 C3057 1.390 . S
C3063 C3060 1.386 . S
C3064 C3059 1.490 . S
C3064 C3066 1.395 . S
C3064 C3067 1.403 . S
H3065 C3071 0.930 . S
C3066 H3052 0.930 . S
C3066 C3064 1.395 . S
C3066 C3069 1.403 . S
C3067 C3064 1.403 . S
C3067 C3068 1.524 . S
C3067 C3071 1.400 . S
C3068 H3053 0.960 . S
C3068 H3054 0.960 . S
C3068 H3055 0.960 . S
C3068 C3067 1.524 . S
C3069 C3066 1.403 . S
C3069 C3070 1.392 . S
C3069 C3073 1.495 . S
C3070 C3069 1.392 . S
C3070 C3071 1.385 . S
C3070 C3072 1.478 . S
C3071 H3065 0.930 . S
C3071 C3067 1.400 . S
C3071 C3070 1.385 . S
C3072 C3070 1.478 . S
C3072 C3074 1.381 . S
C3072 C3078 1.383 . S
C3073 C3069 1.495 . S
C3073 H3079 0.959 . S
C3073 H3080 0.961 . S
C3073 H3081 0.960 . S
C3074 C3072 1.381 . S
C3074 C3075 1.394 . S
C3074 H3082 0.930 . S
C3075 C3074 1.394 . S
C3075 C3076 1.383 . S
C3075 H3083 0.929 . S
C3076 C3075 1.383 . S
C3076 C3077 1.377 . S
C3077 H3061 0.930 . S
C3077 C3076 1.377 . S
C3077 C3078 1.379 . S
C3078 H3062 0.931 . S
C3078 C3072 1.383 . S
C3078 C3077 1.379 . S
H3079 C3073 0.959 . S
H3080 C3073 0.961 . S
H3081 C3073 0.960 . S
H3082 C3074 0.930 . S
H3083 C3075 0.929 . S
H3084 C3092 0.929 . S
H3085 C3094 0.930 . S
H3086 C3096 0.930 . S
H3087 C3099 0.929 . S
H3088 C3102 0.930 . S
H3089 C3104 0.960 . S
H3090 C3104 0.960 1_556 S
H3091 C3104 0.960 . S
C3092 H3084 0.929 . S
C3092 C3093 1.377 1_556 S
C3092 C3094 1.384 . S
C3093 C3092 1.377 1_554 S
C3093 C3099 1.390 . S
C3094 H3085 0.930 . S
C3094 C3092 1.384 . S
C3094 C3095 1.372 1_556 S
C3095 C3094 1.372 1_554 S
C3095 C3096 1.400 . S
C3095 C3100 1.490 . S
C3096 H3086 0.930 . S
C3096 C3095 1.400 . S
C3096 C3099 1.386 . S
H3097 C3113 0.930 . S
H3098 C3114 0.931 . S
C3099 H3087 0.929 . S
C3099 C3093 1.390 . S
C3099 C3096 1.386 . S
C3100 C3095 1.490 . S
C3100 C3102 1.395 . S
C3100 C3103 1.403 . S
H3101 C3107 0.930 . S
C3102 H3088 0.930 . S
C3102 C3100 1.395 . S
C3102 C3105 1.403 . S
C3103 C3100 1.403 . S
C3103 C3104 1.524 . S
C3103 C3107 1.400 . S
C3104 H3089 0.960 . S
C3104 H3090 0.960 1_554 S
C3104 H3091 0.960 . S
C3104 C3103 1.524 . S
C3105 C3102 1.403 . S
C3105 C3106 1.392 . S
C3105 C3109 1.495 . S
C3106 C3105 1.392 . S
C3106 C3107 1.385 . S
C3106 C3108 1.478 . S
C3107 H3101 0.930 . S
C3107 C3103 1.400 . S
C3107 C3106 1.385 . S
C3108 C3106 1.478 . S
C3108 C3110 1.381 1_554 S
C3108 C3114 1.383 . S
C3109 C3105 1.495 . S
C3109 H3115 0.959 . S
C3109 H3116 0.961 . S
C3109 H3117 0.960 1_554 S
C3110 C3108 1.381 1_556 S
C3110 C3111 1.394 . S
C3110 H3118 0.930 . S
C3111 C3110 1.394 . S
C3111 C3112 1.383 1_556 S
C3111 H3119 0.929 . S
C3112 C3111 1.383 1_554 S
C3112 C3113 1.377 . S
C3113 H3097 0.930 . S
C3113 C3112 1.377 . S
C3113 C3114 1.379 . S
C3114 H3098 0.931 . S
C3114 C3108 1.383 . S
C3114 C3113 1.379 . S
H3115 C3109 0.959 . S
H3116 C3109 0.961 . S
H3117 C3109 0.960 1_556 S
H3118 C3110 0.930 . S
H3119 C3111 0.929 . S
H3120 C3128 0.929 . S
H3121 C3130 0.930 . S
H3122 C3132 0.930 . S
H3123 C3135 0.929 . S
H3124 C3138 0.930 . S
H3125 C3140 0.960 . S
H3126 C3140 0.960 . S
H3127 C3140 0.960 . S
C3128 H3120 0.929 . S
C3128 C3129 1.377 . S
C3128 C3130 1.384 . S
C3129 C3128 1.377 . S
C3129 C3135 1.390 . S
C3130 H3121 0.930 . S
C3130 C3128 1.384 . S
C3130 C3131 1.372 . S
C3131 C3130 1.372 . S
C3131 C3132 1.400 . S
C3131 C3136 1.490 . S
C3132 H3122 0.930 . S
C3132 C3131 1.400 . S
C3132 C3135 1.386 . S
H3133 C3149 0.930 . S
H3134 C3150 0.931 . S
C3135 H3123 0.929 . S
C3135 C3129 1.390 . S
C3135 C3132 1.386 . S
C3136 C3131 1.490 . S
C3136 C3138 1.395 . S
C3136 C3139 1.403 . S
H3137 C3143 0.930 . S
C3138 H3124 0.930 . S
C3138 C3136 1.395 . S
C3138 C3141 1.403 . S
C3139 C3136 1.403 . S
C3139 C3140 1.524 . S
C3139 C3143 1.400 . S
C3140 H3125 0.960 . S
C3140 H3126 0.960 . S
C3140 H3127 0.960 . S
C3140 C3139 1.524 . S
C3141 C3138 1.403 . S
C3141 C3142 1.392 . S
C3141 C3145 1.495 . S
C3142 C3141 1.392 . S
C3142 C3143 1.385 . S
C3142 C3144 1.478 . S
C3143 H3137 0.930 . S
C3143 C3139 1.400 . S
C3143 C3142 1.385 . S
C3144 C3142 1.478 . S
C3144 C3146 1.381 . S
C3144 C3150 1.383 . S
C3145 C3141 1.495 . S
C3145 H3151 0.959 . S
C3145 H3152 0.961 . S
C3145 H3153 0.960 . S
C3146 C3144 1.381 . S
C3146 C3147 1.394 . S
C3146 H3154 0.930 . S
C3147 C3146 1.394 . S
C3147 C3148 1.383 . S
C3147 H3155 0.929 . S
C3148 C3147 1.383 . S
C3148 C3149 1.377 . S
C3149 H3133 0.930 . S
C3149 C3148 1.377 . S
C3149 C3150 1.379 . S
C3150 H3134 0.931 . S
C3150 C3144 1.383 . S
C3150 C3149 1.379 . S
H3151 C3145 0.959 . S
H3152 C3145 0.961 . S
H3153 C3145 0.960 . S
H3154 C3146 0.930 . S
H3155 C3147 0.929 . S
H3156 C3164 0.929 . S
H3157 C3166 0.930 . S
H3158 C3168 0.930 . S
H3159 C3171 0.929 . S
H3160 C3174 0.930 . S
H3161 C3176 0.960 . S
H3162 C3176 0.960 . S
H3163 C3176 0.936 1_556 S
C3164 H3156 0.929 . S
C3164 C3165 1.377 . S
C3164 C3166 1.384 . S
C3165 C3164 1.377 . S
C3165 C3171 1.390 1_554 S
C3166 H3157 0.930 . S
C3166 C3164 1.384 . S
C3166 C3167 1.372 . S
C3167 C3166 1.372 . S
C3167 C3168 1.400 1_554 S
C3167 C3172 1.490 . S
C3168 H3158 0.930 . S
C3168 C3167 1.400 1_556 S
C3168 C3171 1.386 . S
H3169 C3185 0.930 . S
H3170 C3186 0.931 . S
C3171 H3159 0.929 . S
C3171 C3165 1.390 1_556 S
C3171 C3168 1.386 . S
C3172 C3167 1.490 . S
C3172 C3174 1.395 1_554 S
C3172 C3175 1.403 . S
H3173 C3179 0.930 . S
C3174 H3160 0.930 . S
C3174 C3172 1.395 1_556 S
C3174 C3177 1.403 . S
C3175 C3172 1.403 . S
C3175 C3176 1.524 . S
C3175 C3179 1.400 . S
C3176 H3161 0.960 . S
C3176 H3162 0.960 . S
C3176 H3163 0.936 1_554 S
C3176 C3175 1.524 . S
C3177 C3174 1.403 . S
C3177 C3178 1.394 . S
C3177 C3181 1.495 . S
C3178 C3177 1.394 . S
C3178 C3179 1.383 1_556 S
C3178 C3180 1.479 . S
C3179 H3173 0.930 . S
C3179 C3175 1.400 . S
C3179 C3178 1.383 1_554 S
C3180 C3178 1.479 . S
C3180 C3182 1.381 1_556 S
C3180 C3186 1.383 . S
C3181 C3177 1.495 . S
C3181 H3187 0.959 . S
C3181 H3188 0.961 . S
C3181 H3189 0.960 1_556 S
C3182 C3180 1.381 1_554 S
C3182 C3183 1.394 . S
C3182 H3190 0.930 . S
C3183 C3182 1.394 . S
C3183 C3184 1.383 1_554 S
C3183 H3191 0.929 . S
C3184 C3183 1.383 1_556 S
C3184 C3185 1.377 . S
C3185 H3169 0.930 . S
C3185 C3184 1.377 . S
C3185 C3186 1.379 . S
C3186 H3170 0.931 . S
C3186 C3180 1.383 . S
C3186 C3185 1.379 . S
H3187 C3181 0.959 . S
H3188 C3181 0.961 . S
H3189 C3181 0.960 1_554 S
H3190 C3182 0.930 . S
H3191 C3183 0.929 . S
H3192 C3200 0.929 . S
H3193 C3202 0.930 . S
H3194 C3204 0.930 . S
H3195 C3207 0.929 . S
H3196 C3210 0.930 . S
H3197 C3212 0.960 . S
H3198 C3212 0.960 . S
H3199 C3212 0.960 . S
C3200 H3192 0.929 . S
C3200 C3201 1.377 . S
C3200 C3202 1.384 . S
C3201 C3200 1.377 . S
C3201 C3207 1.390 . S
C3202 H3193 0.930 . S
C3202 C3200 1.384 . S
C3202 C3203 1.372 . S
C3203 C3202 1.372 . S
C3203 C3204 1.400 . S
C3203 C3208 1.490 . S
C3204 H3194 0.930 . S
C3204 C3203 1.400 . S
C3204 C3207 1.386 . S
H3205 C3221 0.930 . S
H3206 C3222 0.931 . S
C3207 H3195 0.929 . S
C3207 C3201 1.390 . S
C3207 C3204 1.386 . S
C3208 C3203 1.490 . S
C3208 C3210 1.395 . S
C3208 C3211 1.403 . S
H3209 C3215 0.930 . S
C3210 H3196 0.930 . S
C3210 C3208 1.395 . S
C3210 C3213 1.403 . S
C3211 C3208 1.403 . S
C3211 C3212 1.524 . S
C3211 C3215 1.400 . S
C3212 H3197 0.960 . S
C3212 H3198 0.960 . S
C3212 H3199 0.960 . S
C3212 C3211 1.524 . S
C3213 C3210 1.403 . S
C3213 C3214 1.392 . S
C3213 C3217 1.495 . S
C3214 C3213 1.392 . S
C3214 C3215 1.385 . S
C3214 C3216 1.478 . S
C3215 H3209 0.930 . S
C3215 C3211 1.400 . S
C3215 C3214 1.385 . S
C3216 C3214 1.478 . S
C3216 C3218 1.381 . S
C3216 C3222 1.383 . S
C3217 C3213 1.495 . S
C3217 H3223 0.959 . S
C3217 H3224 0.961 . S
C3217 H3225 0.960 . S
C3218 C3216 1.381 . S
C3218 C3219 1.394 . S
C3218 H3226 0.930 . S
C3219 C3218 1.394 . S
C3219 C3220 1.383 . S
C3219 H3227 0.929 . S
C3220 C3219 1.383 . S
C3220 C3221 1.377 . S
C3221 H3205 0.930 . S
C3221 C3220 1.377 . S
C3221 C3222 1.379 . S
C3222 H3206 0.931 . S
C3222 C3216 1.383 . S
C3222 C3221 1.379 . S
H3223 C3217 0.959 . S
H3224 C3217 0.961 . S
H3225 C3217 0.960 . S
H3226 C3218 0.930 . S
H3227 C3219 0.929 . S
H3228 C3236 0.929 . S
H3229 C3238 0.930 . S
H3230 C3240 0.930 . S
H3231 C3243 0.929 . S
H3232 C3246 0.930 . S
H3233 C3248 0.960 . S
H3234 C3248 0.960 . S
H3235 C3248 0.960 . S
C3236 H3228 0.929 . S
C3236 C3237 1.377 . S
C3236 C3238 1.384 . S
C3237 C3236 1.377 . S
C3237 C3243 1.390 . S
C3238 H3229 0.930 . S
C3238 C3236 1.384 . S
C3238 C3239 1.372 . S
C3239 C3238 1.372 . S
C3239 C3240 1.400 . S
C3239 C3244 1.490 . S
C3240 H3230 0.930 . S
C3240 C3239 1.400 . S
C3240 C3243 1.386 . S
H3241 C3257 0.930 . S
H3242 C3258 0.931 . S
C3243 H3231 0.929 . S
C3243 C3237 1.390 . S
C3243 C3240 1.386 . S
C3244 C3239 1.490 . S
C3244 C3246 1.395 . S
C3244 C3247 1.403 . S
H3245 C3251 0.930 . S
C3246 H3232 0.930 . S
C3246 C3244 1.395 . S
C3246 C3249 1.403 . S
C3247 C3244 1.403 . S
C3247 C3248 1.524 . S
C3247 C3251 1.400 . S
C3248 H3233 0.960 . S
C3248 H3234 0.960 . S
C3248 H3235 0.960 . S
C3248 C3247 1.524 . S
C3249 C3246 1.403 . S
C3249 C3250 1.392 . S
C3249 C3253 1.495 . S
C3250 C3249 1.392 . S
C3250 C3251 1.385 . S
C3250 C3252 1.478 . S
C3251 H3245 0.930 . S
C3251 C3247 1.400 . S
C3251 C3250 1.385 . S
C3252 C3250 1.478 . S
C3252 C3254 1.381 . S
C3252 C3258 1.383 . S
C3253 C3249 1.495 . S
C3253 H3259 0.959 . S
C3253 H3260 0.961 . S
C3253 H3261 0.960 . S
C3254 C3252 1.381 . S
C3254 C3255 1.394 . S
C3254 H3262 0.930 . S
C3255 C3254 1.394 . S
C3255 C3256 1.383 . S
C3255 H3263 0.929 . S
C3256 C3255 1.383 . S
C3256 C3257 1.377 . S
C3257 H3241 0.930 . S
C3257 C3256 1.377 . S
C3257 C3258 1.379 . S
C3258 H3242 0.931 . S
C3258 C3252 1.383 . S
C3258 C3257 1.379 . S
H3259 C3253 0.959 . S
H3260 C3253 0.961 . S
H3261 C3253 0.960 . S
H3262 C3254 0.930 . S
H3263 C3255 0.929 . S
H3264 C3272 0.929 . S
H3265 C3274 0.930 . S
H3266 C3276 0.930 . S
H3267 C3279 0.929 . S
H3268 C3282 0.930 . S
H3269 C3284 0.960 . S
H3270 C3284 0.960 . S
H3271 C3284 0.960 . S
C3272 H3264 0.929 . S
C3272 C3273 1.377 . S
C3272 C3274 1.384 . S
C3273 C3272 1.377 . S
C3273 C3279 1.390 . S
C3274 H3265 0.930 . S
C3274 C3272 1.384 . S
C3274 C3275 1.372 . S
C3275 C3274 1.372 . S
C3275 C3276 1.400 . S
C3275 C3280 1.490 . S
C3276 H3266 0.930 . S
C3276 C3275 1.400 . S
C3276 C3279 1.386 . S
H3277 C3293 0.930 . S
H3278 C3294 0.931 . S
C3279 H3267 0.929 . S
C3279 C3273 1.390 . S
C3279 C3276 1.386 . S
C3280 C3275 1.490 . S
C3280 C3282 1.395 . S
C3280 C3283 1.403 . S
H3281 C3287 0.930 . S
C3282 H3268 0.930 . S
C3282 C3280 1.395 . S
C3282 C3285 1.403 . S
C3283 C3280 1.403 . S
C3283 C3284 1.524 . S
C3283 C3287 1.400 . S
C3284 H3269 0.960 . S
C3284 H3270 0.960 . S
C3284 H3271 0.960 . S
C3284 C3283 1.524 . S
C3285 C3282 1.403 . S
C3285 C3286 1.392 . S
C3285 C3289 1.495 . S
C3286 C3285 1.392 . S
C3286 C3287 1.385 . S
C3286 C3288 1.478 . S
C3287 H3281 0.930 . S
C3287 C3283 1.400 . S
C3287 C3286 1.385 . S
C3288 C3286 1.478 . S
C3288 C3290 1.381 . S
C3288 C3294 1.383 . S
C3289 C3285 1.495 . S
C3289 H3295 0.959 . S
C3289 H3296 0.961 . S
C3289 H3297 0.960 . S
C3290 C3288 1.381 . S
C3290 C3291 1.394 . S
C3290 H3298 0.930 . S
C3291 C3290 1.394 . S
C3291 C3292 1.383 . S
C3291 H3299 0.929 . S
C3292 C3291 1.383 . S
C3292 C3293 1.377 . S
C3293 H3277 0.930 . S
C3293 C3292 1.377 . S
C3293 C3294 1.379 . S
C3294 H3278 0.931 . S
C3294 C3288 1.383 . S
C3294 C3293 1.379 . S
H3295 C3289 0.959 . S
H3296 C3289 0.961 . S
H3297 C3289 0.960 . S
H3298 C3290 0.930 . S
H3299 C3291 0.929 . S
H3300 C3308 0.929 . S
H3301 C3310 0.930 . S
H3302 C3312 0.930 . S
H3303 C3315 0.929 . S
H3304 C3318 0.930 . S
H3305 C3320 0.960 . S
H3306 C3320 0.960 . S
H3307 C3320 0.960 . S
C3308 H3300 0.929 . S
C3308 C3309 1.377 . S
C3308 C3310 1.384 . S
C3309 C3308 1.377 . S
C3309 C3315 1.390 . S
C3310 H3301 0.930 . S
C3310 C3308 1.384 . S
C3310 C3311 1.372 . S
C3311 C3310 1.372 . S
C3311 C3312 1.400 . S
C3311 C3316 1.490 . S
C3312 H3302 0.930 . S
C3312 C3311 1.400 . S
C3312 C3315 1.386 . S
H3313 C3329 0.930 . S
H3314 C3330 0.931 . S
C3315 H3303 0.929 . S
C3315 C3309 1.390 . S
C3315 C3312 1.386 . S
C3316 C3311 1.490 . S
C3316 C3318 1.395 . S
C3316 C3319 1.403 . S
H3317 C3323 0.930 . S
C3318 H3304 0.930 . S
C3318 C3316 1.395 . S
C3318 C3321 1.403 . S
C3319 C3316 1.403 . S
C3319 C3320 1.524 . S
C3319 C3323 1.400 . S
C3320 H3305 0.960 . S
C3320 H3306 0.960 . S
C3320 H3307 0.960 . S
C3320 C3319 1.524 . S
C3321 C3318 1.403 . S
C3321 C3322 1.392 . S
C3321 C3325 1.495 . S
C3322 C3321 1.392 . S
C3322 C3323 1.385 . S
C3322 C3324 1.478 . S
C3323 H3317 0.930 . S
C3323 C3319 1.400 . S
C3323 C3322 1.385 . S
C3324 C3322 1.478 . S
C3324 C3326 1.381 . S
C3324 C3330 1.383 . S
C3325 C3321 1.495 . S
C3325 H3331 0.959 . S
C3325 H3332 0.961 . S
C3325 H3333 0.960 . S
C3326 C3324 1.381 . S
C3326 C3327 1.394 . S
C3326 H3334 0.930 . S
C3327 C3326 1.394 . S
C3327 C3328 1.383 . S
C3327 H3335 0.929 . S
C3328 C3327 1.383 . S
C3328 C3329 1.377 . S
C3329 H3313 0.930 . S
C3329 C3328 1.377 . S
C3329 C3330 1.379 . S
C3330 H3314 0.931 . S
C3330 C3324 1.383 . S
C3330 C3329 1.379 . S
H3331 C3325 0.959 . S
H3332 C3325 0.961 . S
H3333 C3325 0.960 . S
H3334 C3326 0.930 . S
H3335 C3327 0.929 . S
H3336 C3344 0.928 1_655 S
H3337 C3346 0.930 . S
H3338 C3348 0.930 . S
H3339 C3351 0.929 . S
H3340 C3354 0.930 . S
H3341 C3356 0.960 . S
H3342 C3356 0.960 . S
H3343 C3356 0.960 . S
C3344 H3336 0.928 1_455 S
C3344 C3345 1.379 . S
C3344 C3346 1.383 1_455 S
C3345 C3344 1.379 . S
C3345 C3351 1.390 . S
C3346 H3337 0.930 . S
C3346 C3344 1.383 1_655 S
C3346 C3347 1.372 1_655 S
C3347 C3346 1.372 1_455 S
C3347 C3348 1.400 . S
C3347 C3352 1.490 . S
C3348 H3338 0.930 . S
C3348 C3347 1.400 . S
C3348 C3351 1.386 . S
H3349 C3365 0.925 1_455 S
H3350 C3366 0.930 1_455 S
C3351 H3339 0.929 . S
C3351 C3345 1.390 . S
C3351 C3348 1.386 . S
C3352 C3347 1.490 . S
C3352 C3354 1.395 1_455 S
C3352 C3355 1.403 . S
H3353 C3359 0.930 . S
C3354 H3340 0.930 . S
C3354 C3352 1.395 1_655 S
C3354 C3357 1.403 . S
C3355 C3352 1.403 . S
C3355 C3356 1.524 . S
C3355 C3359 1.400 . S
C3356 H3341 0.960 . S
C3356 H3342 0.960 . S
C3356 H3343 0.960 . S
C3356 C3355 1.524 . S
C3357 C3354 1.403 . S
C3357 C3358 1.392 . S
C3357 C3361 1.495 . S
C3358 C3357 1.392 . S
C3358 C3359 1.385 1_655 S
C3358 C3360 1.478 . S
C3359 H3353 0.930 . S
C3359 C3355 1.400 . S
C3359 C3358 1.385 1_455 S
C3360 C3358 1.478 . S
C3360 C3362 1.381 . S
C3360 C3366 1.383 . S
C3361 C3357 1.495 . S
C3361 H3367 0.959 . S
C3361 H3368 0.961 . S
C3361 H3369 0.960 . S
C3362 C3360 1.381 . S
C3362 C3363 1.394 . S
C3362 H3370 0.930 . S
C3363 C3362 1.394 . S
C3363 C3364 1.383 . S
C3363 H3371 0.888 1_556 S
C3364 C3363 1.383 . S
C3364 C3365 1.377 . S
C3365 H3349 0.925 1_655 S
C3365 C3364 1.377 . S
C3365 C3366 1.379 . S
C3366 H3350 0.930 1_655 S
C3366 C3360 1.383 . S
C3366 C3365 1.379 . S
H3367 C3361 0.959 . S
H3368 C3361 0.961 . S
H3369 C3361 0.960 . S
H3370 C3362 0.930 . S
H3371 C3363 0.888 1_554 S
H3372 C3380 0.929 . S
H3373 C3382 0.930 . S
H3374 C3384 0.930 . S
H3375 C3387 0.929 . S
H3376 C3390 0.930 . S
H3377 C3392 0.960 . S
H3378 C3392 0.960 . S
H3379 C3392 0.960 . S
C3380 H3372 0.929 . S
C3380 C3381 1.377 . S
C3380 C3382 1.384 . S
C3381 C3380 1.377 . S
C3381 C3387 1.390 . S
C3382 H3373 0.930 . S
C3382 C3380 1.384 . S
C3382 C3383 1.372 . S
C3383 C3382 1.372 . S
C3383 C3384 1.400 . S
C3383 C3388 1.490 . S
C3384 H3374 0.930 . S
C3384 C3383 1.400 . S
C3384 C3387 1.386 . S
H3385 C3401 0.930 . S
H3386 C3402 0.931 . S
C3387 H3375 0.929 . S
C3387 C3381 1.390 . S
C3387 C3384 1.386 . S
C3388 C3383 1.490 . S
C3388 C3390 1.395 . S
C3388 C3391 1.403 . S
H3389 C3395 0.930 . S
C3390 H3376 0.930 . S
C3390 C3388 1.395 . S
C3390 C3393 1.403 . S
C3391 C3388 1.403 . S
C3391 C3392 1.524 . S
C3391 C3395 1.400 . S
C3392 H3377 0.960 . S
C3392 H3378 0.960 . S
C3392 H3379 0.960 . S
C3392 C3391 1.524 . S
C3393 C3390 1.403 . S
C3393 C3394 1.392 . S
C3393 C3397 1.495 . S
C3394 C3393 1.392 . S
C3394 C3395 1.385 . S
C3394 C3396 1.478 . S
C3395 H3389 0.930 . S
C3395 C3391 1.400 . S
C3395 C3394 1.385 . S
C3396 C3394 1.478 . S
C3396 C3398 1.381 . S
C3396 C3402 1.383 . S
C3397 C3393 1.495 . S
C3397 H3403 0.959 . S
C3397 H3404 0.961 . S
C3397 H3405 0.960 . S
C3398 C3396 1.381 . S
C3398 C3399 1.394 . S
C3398 H3406 0.930 . S
C3399 C3398 1.394 . S
C3399 C3400 1.383 . S
C3399 H3407 0.929 . S
C3400 C3399 1.383 . S
C3400 C3401 1.377 . S
C3401 H3385 0.930 . S
C3401 C3400 1.377 . S
C3401 C3402 1.379 . S
C3402 H3386 0.931 . S
C3402 C3396 1.383 . S
C3402 C3401 1.379 . S
H3403 C3397 0.959 . S
H3404 C3397 0.961 . S
H3405 C3397 0.960 . S
H3406 C3398 0.930 . S
H3407 C3399 0.929 . S
H3408 C3416 0.929 . S
H3409 C3418 0.930 . S
H3410 C3420 0.930 . S
H3411 C3423 0.929 . S
H3412 C3426 0.930 . S
H3413 C3428 0.960 . S
H3414 C3428 0.960 . S
H3415 C3428 0.960 . S
C3416 H3408 0.929 . S
C3416 C3417 1.377 . S
C3416 C3418 1.384 . S
C3417 C3416 1.377 . S
C3417 C3423 1.390 . S
C3418 H3409 0.930 . S
C3418 C3416 1.384 . S
C3418 C3419 1.372 . S
C3419 C3418 1.372 . S
C3419 C3420 1.400 . S
C3419 C3424 1.490 . S
C3420 H3410 0.930 . S
C3420 C3419 1.400 . S
C3420 C3423 1.386 . S
H3421 C3437 0.930 . S
H3422 C3438 0.931 . S
C3423 H3411 0.929 . S
C3423 C3417 1.390 . S
C3423 C3420 1.386 . S
C3424 C3419 1.490 . S
C3424 C3426 1.395 . S
C3424 C3427 1.403 . S
H3425 C3431 0.930 . S
C3426 H3412 0.930 . S
C3426 C3424 1.395 . S
C3426 C3429 1.403 . S
C3427 C3424 1.403 . S
C3427 C3428 1.524 . S
C3427 C3431 1.400 . S
C3428 H3413 0.960 . S
C3428 H3414 0.960 . S
C3428 H3415 0.960 . S
C3428 C3427 1.524 . S
C3429 C3426 1.403 . S
C3429 C3430 1.392 . S
C3429 C3433 1.495 . S
C3430 C3429 1.392 . S
C3430 C3431 1.385 . S
C3430 C3432 1.478 . S
C3431 H3425 0.930 . S
C3431 C3427 1.400 . S
C3431 C3430 1.385 . S
C3432 C3430 1.478 . S
C3432 C3434 1.381 . S
C3432 C3438 1.383 . S
C3433 C3429 1.495 . S
C3433 H3439 0.959 . S
C3433 H3440 0.961 . S
C3433 H3441 0.960 . S
C3434 C3432 1.381 . S
C3434 C3435 1.394 . S
C3434 H3442 0.930 . S
C3435 C3434 1.394 . S
C3435 C3436 1.383 . S
C3435 H3443 0.929 . S
C3436 C3435 1.383 . S
C3436 C3437 1.377 . S
C3437 H3421 0.930 . S
C3437 C3436 1.377 . S
C3437 C3438 1.379 . S
C3438 H3422 0.931 . S
C3438 C3432 1.383 . S
C3438 C3437 1.379 . S
H3439 C3433 0.959 . S
H3440 C3433 0.961 . S
H3441 C3433 0.960 . S
H3442 C3434 0.930 . S
H3443 C3435 0.929 . S
H3444 C3452 0.929 . S
H3445 C3454 0.930 . S
H3446 C3456 0.930 . S
H3447 C3459 0.929 . S
H3448 C3462 0.930 . S
H3449 C3464 0.960 . S
H3450 C3464 0.960 . S
H3451 C3464 0.960 . S
C3452 H3444 0.929 . S
C3452 C3453 1.377 . S
C3452 C3454 1.384 . S
C3453 C3452 1.377 . S
C3453 C3459 1.390 . S
C3454 H3445 0.930 . S
C3454 C3452 1.384 . S
C3454 C3455 1.372 . S
C3455 C3454 1.372 . S
C3455 C3456 1.400 . S
C3455 C3460 1.490 . S
C3456 H3446 0.930 . S
C3456 C3455 1.400 . S
C3456 C3459 1.386 . S
H3457 C3473 0.930 . S
H3458 C3474 0.931 . S
C3459 H3447 0.929 . S
C3459 C3453 1.390 . S
C3459 C3456 1.386 . S
C3460 C3455 1.490 . S
C3460 C3462 1.395 . S
C3460 C3463 1.403 . S
H3461 C3467 0.930 . S
C3462 H3448 0.930 . S
C3462 C3460 1.395 . S
C3462 C3465 1.403 . S
C3463 C3460 1.403 . S
C3463 C3464 1.524 . S
C3463 C3467 1.400 . S
C3464 H3449 0.960 . S
C3464 H3450 0.960 . S
C3464 H3451 0.960 . S
C3464 C3463 1.524 . S
C3465 C3462 1.403 . S
C3465 C3466 1.392 . S
C3465 C3469 1.495 . S
C3466 C3465 1.392 . S
C3466 C3467 1.385 . S
C3466 C3468 1.478 . S
C3467 H3461 0.930 . S
C3467 C3463 1.400 . S
C3467 C3466 1.385 . S
C3468 C3466 1.478 . S
C3468 C3470 1.381 . S
C3468 C3474 1.383 . S
C3469 C3465 1.495 . S
C3469 H3475 0.959 . S
C3469 H3476 0.961 . S
C3469 H3477 0.960 . S
C3470 C3468 1.381 . S
C3470 C3471 1.394 . S
C3470 H3478 0.930 . S
C3471 C3470 1.394 . S
C3471 C3472 1.383 . S
C3471 H3479 0.929 . S
C3472 C3471 1.383 . S
C3472 C3473 1.377 . S
C3473 H3457 0.930 . S
C3473 C3472 1.377 . S
C3473 C3474 1.379 . S
C3474 H3458 0.931 . S
C3474 C3468 1.383 . S
C3474 C3473 1.379 . S
H3475 C3469 0.959 . S
H3476 C3469 0.961 . S
H3477 C3469 0.960 . S
H3478 C3470 0.930 . S
H3479 C3471 0.929 . S
H3480 C3488 0.929 . S
H3481 C3490 0.930 . S
H3482 C3492 0.930 . S
H3483 C3495 0.929 . S
H3484 C3498 0.930 . S
H3485 C3500 0.960 . S
H3486 C3500 0.960 . S
H3487 C3500 0.928 1_455 S
C3488 H3480 0.929 . S
C3488 C3489 1.377 1_655 S
C3488 C3490 1.384 . S
C3489 C3488 1.377 1_455 S
C3489 C3495 1.390 . S
C3490 H3481 0.930 . S
C3490 C3488 1.384 . S
C3490 C3491 1.372 1_655 S
C3491 C3490 1.372 1_455 S
C3491 C3492 1.400 . S
C3491 C3496 1.490 . S
C3492 H3482 0.930 . S
C3492 C3491 1.400 . S
C3492 C3495 1.386 . S
H3493 C3509 0.930 . S
H3494 C3510 0.931 . S
C3495 H3483 0.929 . S
C3495 C3489 1.390 . S
C3495 C3492 1.386 . S
C3496 C3491 1.490 . S
C3496 C3498 1.395 . S
C3496 C3499 1.403 1_455 S
H3497 C3503 0.930 . S
C3498 H3484 0.930 . S
C3498 C3496 1.395 . S
C3498 C3501 1.403 . S
C3499 C3496 1.403 1_655 S
C3499 C3500 1.524 . S
C3499 C3503 1.400 . S
C3500 H3485 0.960 . S
C3500 H3486 0.960 . S
C3500 H3487 0.928 1_655 S
C3500 C3499 1.524 . S
C3501 C3498 1.403 . S
C3501 C3502 1.405 . S
C3501 C3505 1.495 . S
C3502 C3501 1.405 . S
C3502 C3503 1.375 1_455 S
C3502 C3504 1.477 . S
C3503 H3497 0.930 . S
C3503 C3499 1.400 . S
C3503 C3502 1.375 1_655 S
C3504 C3502 1.477 . S
C3504 C3506 1.363 1_455 S
C3504 C3510 1.400 . S
C3505 C3501 1.495 . S
C3505 H3511 0.959 . S
C3505 H3512 0.961 . S
C3505 H3513 0.961 1_455 S
C3506 C3504 1.363 1_655 S
C3506 C3507 1.394 . S
C3506 H3514 0.930 . S
C3507 C3506 1.394 . S
C3507 C3508 1.383 . S
C3507 H3515 0.929 . S
C3508 C3507 1.383 . S
C3508 C3509 1.377 1_655 S
C3509 H3493 0.930 . S
C3509 C3508 1.377 1_455 S
C3509 C3510 1.379 . S
C3510 H3494 0.931 . S
C3510 C3504 1.400 . S
C3510 C3509 1.379 . S
H3511 C3505 0.959 . S
H3512 C3505 0.961 . S
H3513 C3505 0.961 1_655 S
H3514 C3506 0.930 . S
H3515 C3507 0.929 . S
H3516 C3524 0.929 . S
H3517 C3526 0.930 . S
H3518 C3528 0.930 . S
H3519 C3531 0.929 . S
H3520 C3534 0.930 . S
H3521 C3536 0.960 . S
H3522 C3536 0.960 . S
H3523 C3536 0.960 . S
C3524 H3516 0.929 . S
C3524 C3525 1.377 . S
C3524 C3526 1.384 . S
C3525 C3524 1.377 . S
C3525 C3531 1.390 . S
C3526 H3517 0.930 . S
C3526 C3524 1.384 . S
C3526 C3527 1.372 . S
C3527 C3526 1.372 . S
C3527 C3528 1.400 . S
C3527 C3532 1.490 . S
C3528 H3518 0.930 . S
C3528 C3527 1.400 . S
C3528 C3531 1.386 . S
H3529 C3545 0.930 . S
H3530 C3546 0.931 . S
C3531 H3519 0.929 . S
C3531 C3525 1.390 . S
C3531 C3528 1.386 . S
C3532 C3527 1.490 . S
C3532 C3534 1.395 . S
C3532 C3535 1.403 . S
H3533 C3539 0.930 . S
C3534 H3520 0.930 . S
C3534 C3532 1.395 . S
C3534 C3537 1.403 . S
C3535 C3532 1.403 . S
C3535 C3536 1.524 . S
C3535 C3539 1.400 . S
C3536 H3521 0.960 . S
C3536 H3522 0.960 . S
C3536 H3523 0.960 . S
C3536 C3535 1.524 . S
C3537 C3534 1.403 . S
C3537 C3538 1.392 . S
C3537 C3541 1.495 . S
C3538 C3537 1.392 . S
C3538 C3539 1.385 . S
C3538 C3540 1.478 . S
C3539 H3533 0.930 . S
C3539 C3535 1.400 . S
C3539 C3538 1.385 . S
C3540 C3538 1.478 . S
C3540 C3542 1.381 . S
C3540 C3546 1.383 . S
C3541 C3537 1.495 . S
C3541 H3547 0.959 . S
C3541 H3548 0.961 . S
C3541 H3549 0.960 . S
C3542 C3540 1.381 . S
C3542 C3543 1.394 . S
C3542 H3550 0.930 . S
C3543 C3542 1.394 . S
C3543 C3544 1.383 . S
C3543 H3551 0.929 . S
C3544 C3543 1.383 . S
C3544 C3545 1.377 . S
C3545 H3529 0.930 . S
C3545 C3544 1.377 . S
C3545 C3546 1.379 . S
C3546 H3530 0.931 . S
C3546 C3540 1.383 . S
C3546 C3545 1.379 . S
H3547 C3541 0.959 . S
H3548 C3541 0.961 . S
H3549 C3541 0.960 . S
H3550 C3542 0.930 . S
H3551 C3543 0.929 . S
H3552 C3560 0.929 . S
H3553 C3562 0.930 . S
H3554 C3564 0.930 . S
H3555 C3567 0.929 . S
H3556 C3570 0.930 . S
H3557 C3572 0.960 . S
H3558 C3572 0.960 . S
H3559 C3572 0.960 . S
C3560 H3552 0.929 . S
C3560 C3561 1.377 . S
C3560 C3562 1.384 . S
C3561 C3560 1.377 . S
C3561 C3567 1.390 . S
C3562 H3553 0.930 . S
C3562 C3560 1.384 . S
C3562 C3563 1.372 . S
C3563 C3562 1.372 . S
C3563 C3564 1.400 . S
C3563 C3568 1.490 . S
C3564 H3554 0.930 . S
C3564 C3563 1.400 . S
C3564 C3567 1.386 . S
H3565 C3581 0.930 . S
H3566 C3582 0.931 . S
C3567 H3555 0.929 . S
C3567 C3561 1.390 . S
C3567 C3564 1.386 . S
C3568 C3563 1.490 . S
C3568 C3570 1.395 . S
C3568 C3571 1.403 . S
H3569 C3575 0.930 . S
C3570 H3556 0.930 . S
C3570 C3568 1.395 . S
C3570 C3573 1.403 . S
C3571 C3568 1.403 . S
C3571 C3572 1.524 . S
C3571 C3575 1.400 . S
C3572 H3557 0.960 . S
C3572 H3558 0.960 . S
C3572 H3559 0.960 . S
C3572 C3571 1.524 . S
C3573 C3570 1.403 . S
C3573 C3574 1.392 . S
C3573 C3577 1.495 . S
C3574 C3573 1.392 . S
C3574 C3575 1.385 . S
C3574 C3576 1.478 . S
C3575 H3569 0.930 . S
C3575 C3571 1.400 . S
C3575 C3574 1.385 . S
C3576 C3574 1.478 . S
C3576 C3578 1.381 . S
C3576 C3582 1.383 . S
C3577 C3573 1.495 . S
C3577 H3583 0.959 . S
C3577 H3584 0.961 . S
C3577 H3585 0.960 . S
C3578 C3576 1.381 . S
C3578 C3579 1.394 . S
C3578 H3586 0.930 . S
C3579 C3578 1.394 . S
C3579 C3580 1.383 . S
C3579 H3587 0.929 . S
C3580 C3579 1.383 . S
C3580 C3581 1.377 . S
C3581 H3565 0.930 . S
C3581 C3580 1.377 . S
C3581 C3582 1.379 . S
C3582 H3566 0.931 . S
C3582 C3576 1.383 . S
C3582 C3581 1.379 . S
H3583 C3577 0.959 . S
H3584 C3577 0.961 . S
H3585 C3577 0.960 . S
H3586 C3578 0.930 . S
H3587 C3579 0.929 . S
H3588 C3596 0.929 . S
H3589 C3598 0.930 . S
H3590 C3600 0.930 . S
H3591 C3603 0.929 . S
H3592 C3606 0.930 . S
H3593 C3608 0.960 . S
H3594 C3608 0.960 . S
H3595 C3608 0.960 . S
C3596 H3588 0.929 . S
C3596 C3597 1.377 . S
C3596 C3598 1.384 . S
C3597 C3596 1.377 . S
C3597 C3603 1.390 . S
C3598 H3589 0.930 . S
C3598 C3596 1.384 . S
C3598 C3599 1.372 . S
C3599 C3598 1.372 . S
C3599 C3600 1.400 . S
C3599 C3604 1.490 . S
C3600 H3590 0.930 . S
C3600 C3599 1.400 . S
C3600 C3603 1.386 . S
H3601 C3617 0.930 . S
H3602 C3618 0.931 . S
C3603 H3591 0.929 . S
C3603 C3597 1.390 . S
C3603 C3600 1.386 . S
C3604 C3599 1.490 . S
C3604 C3606 1.395 . S
C3604 C3607 1.403 . S
H3605 C3611 0.930 . S
C3606 H3592 0.930 . S
C3606 C3604 1.395 . S
C3606 C3609 1.403 . S
C3607 C3604 1.403 . S
C3607 C3608 1.524 . S
C3607 C3611 1.400 . S
C3608 H3593 0.960 . S
C3608 H3594 0.960 . S
C3608 H3595 0.960 . S
C3608 C3607 1.524 . S
C3609 C3606 1.403 . S
C3609 C3610 1.392 . S
C3609 C3613 1.495 . S
C3610 C3609 1.392 . S
C3610 C3611 1.385 . S
C3610 C3612 1.478 . S
C3611 H3605 0.930 . S
C3611 C3607 1.400 . S
C3611 C3610 1.385 . S
C3612 C3610 1.478 . S
C3612 C3614 1.381 . S
C3612 C3618 1.383 . S
C3613 C3609 1.495 . S
C3613 H3619 0.959 . S
C3613 H3620 0.961 . S
C3613 H3621 0.960 . S
C3614 C3612 1.381 . S
C3614 C3615 1.394 . S
C3614 H3622 0.930 . S
C3615 C3614 1.394 . S
C3615 C3616 1.383 . S
C3615 H3623 0.929 . S
C3616 C3615 1.383 . S
C3616 C3617 1.377 . S
C3617 H3601 0.930 . S
C3617 C3616 1.377 . S
C3617 C3618 1.379 . S
C3618 H3602 0.931 . S
C3618 C3612 1.383 . S
C3618 C3617 1.379 . S
H3619 C3613 0.959 . S
H3620 C3613 0.961 . S
H3621 C3613 0.960 . S
H3622 C3614 0.930 . S
H3623 C3615 0.929 . S
H3624 C3632 0.929 . S
H3625 C3634 0.930 . S
H3626 C3636 0.930 . S
H3627 C3639 0.929 . S
H3628 C3642 0.930 . S
H3629 C3644 0.960 . S
H3630 C3644 0.960 . S
H3631 C3644 0.960 . S
C3632 H3624 0.929 . S
C3632 C3633 1.377 . S
C3632 C3634 1.384 . S
C3633 C3632 1.377 . S
C3633 C3639 1.390 . S
C3634 H3625 0.930 . S
C3634 C3632 1.384 . S
C3634 C3635 1.372 . S
C3635 C3634 1.372 . S
C3635 C3636 1.400 . S
C3635 C3640 1.490 . S
C3636 H3626 0.930 . S
C3636 C3635 1.400 . S
C3636 C3639 1.386 . S
H3637 C3653 0.930 . S
H3638 C3654 0.931 . S
C3639 H3627 0.929 . S
C3639 C3633 1.390 . S
C3639 C3636 1.386 . S
C3640 C3635 1.490 . S
C3640 C3642 1.395 . S
C3640 C3643 1.403 . S
H3641 C3647 0.930 . S
C3642 H3628 0.930 . S
C3642 C3640 1.395 . S
C3642 C3645 1.403 . S
C3643 C3640 1.403 . S
C3643 C3644 1.524 . S
C3643 C3647 1.400 . S
C3644 H3629 0.960 . S
C3644 H3630 0.960 . S
C3644 H3631 0.960 . S
C3644 C3643 1.524 . S
C3645 C3642 1.403 . S
C3645 C3646 1.392 . S
C3645 C3649 1.495 . S
C3646 C3645 1.392 . S
C3646 C3647 1.385 . S
C3646 C3648 1.478 . S
C3647 H3641 0.930 . S
C3647 C3643 1.400 . S
C3647 C3646 1.385 . S
C3648 C3646 1.478 . S
C3648 C3650 1.381 . S
C3648 C3654 1.383 . S
C3649 C3645 1.495 . S
C3649 H3655 0.959 . S
C3649 H3656 0.961 . S
C3649 H3657 0.960 . S
C3650 C3648 1.381 . S
C3650 C3651 1.394 . S
C3650 H3658 0.930 . S
C3651 C3650 1.394 . S
C3651 C3652 1.383 . S
C3651 H3659 0.929 . S
C3652 C3651 1.383 . S
C3652 C3653 1.377 . S
C3653 H3637 0.930 . S
C3653 C3652 1.377 . S
C3653 C3654 1.379 . S
C3654 H3638 0.931 . S
C3654 C3648 1.383 . S
C3654 C3653 1.379 . S
H3655 C3649 0.959 . S
H3656 C3649 0.961 . S
H3657 C3649 0.960 . S
H3658 C3650 0.930 . S
H3659 C3651 0.929 . S
H3660 C3668 0.929 . S
H3661 C3670 0.930 . S
H3662 C3672 0.930 . S
H3663 C3675 0.929 . S
H3664 C3678 0.930 . S
H3665 C3680 0.960 . S
H3666 C3680 0.960 . S
H3667 C3680 0.960 . S
C3668 H3660 0.929 . S
C3668 C3669 1.377 . S
C3668 C3670 1.384 . S
C3669 C3668 1.377 . S
C3669 C3675 1.390 . S
C3670 H3661 0.930 . S
C3670 C3668 1.384 . S
C3670 C3671 1.372 . S
C3671 C3670 1.372 . S
C3671 C3672 1.400 . S
C3671 C3676 1.490 . S
C3672 H3662 0.930 . S
C3672 C3671 1.400 . S
C3672 C3675 1.386 . S
H3673 C3689 0.930 . S
H3674 C3690 0.931 . S
C3675 H3663 0.929 . S
C3675 C3669 1.390 . S
C3675 C3672 1.386 . S
C3676 C3671 1.490 . S
C3676 C3678 1.395 . S
C3676 C3679 1.403 . S
H3677 C3683 0.930 . S
C3678 H3664 0.930 . S
C3678 C3676 1.395 . S
C3678 C3681 1.403 . S
C3679 C3676 1.403 . S
C3679 C3680 1.524 . S
C3679 C3683 1.400 . S
C3680 H3665 0.960 . S
C3680 H3666 0.960 . S
C3680 H3667 0.960 . S
C3680 C3679 1.524 . S
C3681 C3678 1.403 . S
C3681 C3682 1.392 . S
C3681 C3685 1.495 . S
C3682 C3681 1.392 . S
C3682 C3683 1.385 . S
C3682 C3684 1.478 . S
C3683 H3677 0.930 . S
C3683 C3679 1.400 . S
C3683 C3682 1.385 . S
C3684 C3682 1.478 . S
C3684 C3686 1.381 . S
C3684 C3690 1.383 . S
C3685 C3681 1.495 . S
C3685 H3691 0.959 . S
C3685 H3692 0.961 . S
C3685 H3693 0.960 . S
C3686 C3684 1.381 . S
C3686 C3687 1.394 . S
C3686 H3694 0.930 . S
C3687 C3686 1.394 . S
C3687 C3688 1.383 . S
C3687 H3695 0.929 . S
C3688 C3687 1.383 . S
C3688 C3689 1.377 . S
C3689 H3673 0.930 . S
C3689 C3688 1.377 . S
C3689 C3690 1.379 . S
C3690 H3674 0.931 . S
C3690 C3684 1.383 . S
C3690 C3689 1.379 . S
H3691 C3685 0.959 . S
H3692 C3685 0.961 . S
H3693 C3685 0.960 . S
H3694 C3686 0.930 . S
H3695 C3687 0.929 . S
H3696 C3704 0.929 . S
H3697 C3706 0.930 . S
H3698 C3708 0.930 . S
H3699 C3711 0.929 . S
H3700 C3714 0.930 . S
H3701 C3716 0.960 . S
H3702 C3716 0.960 . S
H3703 C3716 0.960 . S
C3704 H3696 0.929 . S
C3704 C3705 1.377 . S
C3704 C3706 1.384 . S
C3705 C3704 1.377 . S
C3705 C3711 1.390 . S
C3706 H3697 0.930 . S
C3706 C3704 1.384 . S
C3706 C3707 1.372 . S
C3707 C3706 1.372 . S
C3707 C3708 1.400 . S
C3707 C3712 1.490 . S
C3708 H3698 0.930 . S
C3708 C3707 1.400 . S
C3708 C3711 1.386 . S
H3709 C3725 0.930 . S
H3710 C3726 0.931 . S
C3711 H3699 0.929 . S
C3711 C3705 1.390 . S
C3711 C3708 1.386 . S
C3712 C3707 1.490 . S
C3712 C3714 1.395 . S
C3712 C3715 1.403 . S
H3713 C3719 0.930 . S
C3714 H3700 0.930 . S
C3714 C3712 1.395 . S
C3714 C3717 1.403 . S
C3715 C3712 1.403 . S
C3715 C3716 1.524 . S
C3715 C3719 1.400 . S
C3716 H3701 0.960 . S
C3716 H3702 0.960 . S
C3716 H3703 0.960 . S
C3716 C3715 1.524 . S
C3717 C3714 1.403 . S
C3717 C3718 1.392 . S
C3717 C3721 1.495 . S
C3718 C3717 1.392 . S
C3718 C3719 1.385 . S
C3718 C3720 1.478 . S
C3719 H3713 0.930 . S
C3719 C3715 1.400 . S
C3719 C3718 1.385 . S
C3720 C3718 1.478 . S
C3720 C3722 1.381 . S
C3720 C3726 1.383 . S
C3721 C3717 1.495 . S
C3721 H3727 0.959 . S
C3721 H3728 0.961 . S
C3721 H3729 0.960 . S
C3722 C3720 1.381 . S
C3722 C3723 1.394 . S
C3722 H3730 0.930 . S
C3723 C3722 1.394 . S
C3723 C3724 1.383 . S
C3723 H3731 0.929 . S
C3724 C3723 1.383 . S
C3724 C3725 1.377 . S
C3725 H3709 0.930 . S
C3725 C3724 1.377 . S
C3725 C3726 1.379 . S
C3726 H3710 0.931 . S
C3726 C3720 1.383 . S
C3726 C3725 1.379 . S
H3727 C3721 0.959 . S
H3728 C3721 0.961 . S
H3729 C3721 0.960 . S
H3730 C3722 0.930 . S
H3731 C3723 0.929 . S
H3732 C3740 0.929 . S
H3733 C3742 0.930 . S
H3734 C3744 0.930 . S
H3735 C3747 0.929 . S
H3736 C3750 0.930 . S
H3737 C3752 0.960 . S
H3738 C3752 0.960 . S
H3739 C3752 0.960 . S
C3740 H3732 0.929 . S
C3740 C3741 1.377 . S
C3740 C3742 1.384 . S
C3741 C3740 1.377 . S
C3741 C3747 1.390 . S
C3742 H3733 0.930 . S
C3742 C3740 1.384 . S
C3742 C3743 1.372 . S
C3743 C3742 1.372 . S
C3743 C3744 1.400 . S
C3743 C3748 1.490 . S
C3744 H3734 0.930 . S
C3744 C3743 1.400 . S
C3744 C3747 1.386 . S
H3745 C3761 0.930 . S
H3746 C3762 0.931 . S
C3747 H3735 0.929 . S
C3747 C3741 1.390 . S
C3747 C3744 1.386 . S
C3748 C3743 1.490 . S
C3748 C3750 1.395 . S
C3748 C3751 1.403 . S
H3749 C3755 0.930 . S
C3750 H3736 0.930 . S
C3750 C3748 1.395 . S
C3750 C3753 1.403 . S
C3751 C3748 1.403 . S
C3751 C3752 1.524 . S
C3751 C3755 1.400 . S
C3752 H3737 0.960 . S
C3752 H3738 0.960 . S
C3752 H3739 0.960 . S
C3752 C3751 1.524 . S
C3753 C3750 1.403 . S
C3753 C3754 1.392 . S
C3753 C3757 1.495 . S
C3754 C3753 1.392 . S
C3754 C3755 1.385 . S
C3754 C3756 1.478 . S
C3755 H3749 0.930 . S
C3755 C3751 1.400 . S
C3755 C3754 1.385 . S
C3756 C3754 1.478 . S
C3756 C3758 1.381 . S
C3756 C3762 1.383 . S
C3757 C3753 1.495 . S
C3757 H3763 0.959 . S
C3757 H3764 0.961 . S
C3757 H3765 0.960 . S
C3758 C3756 1.381 . S
C3758 C3759 1.394 . S
C3758 H3766 0.930 . S
C3759 C3758 1.394 . S
C3759 C3760 1.383 . S
C3759 H3767 0.929 . S
C3760 C3759 1.383 . S
C3760 C3761 1.377 . S
C3761 H3745 0.930 . S
C3761 C3760 1.377 . S
C3761 C3762 1.379 . S
C3762 H3746 0.931 . S
C3762 C3756 1.383 . S
C3762 C3761 1.379 . S
H3763 C3757 0.959 . S
H3764 C3757 0.961 . S
H3765 C3757 0.960 . S
H3766 C3758 0.930 . S
H3767 C3759 0.929 . S
H3768 C3776 0.929 . S
H3769 C3778 0.930 . S
H3770 C3780 0.930 . S
H3771 C3783 0.929 . S
H3772 C3786 0.930 . S
H3773 C3788 0.960 . S
H3774 C3788 0.960 . S
H3775 C3788 0.960 . S
C3776 H3768 0.929 . S
C3776 C3777 1.377 . S
C3776 C3778 1.384 . S
C3777 C3776 1.377 . S
C3777 C3783 1.390 . S
C3778 H3769 0.930 . S
C3778 C3776 1.384 . S
C3778 C3779 1.372 . S
C3779 C3778 1.372 . S
C3779 C3780 1.400 . S
C3779 C3784 1.490 . S
C3780 H3770 0.930 . S
C3780 C3779 1.400 . S
C3780 C3783 1.386 . S
H3781 C3797 0.930 . S
H3782 C3798 0.931 . S
C3783 H3771 0.929 . S
C3783 C3777 1.390 . S
C3783 C3780 1.386 . S
C3784 C3779 1.490 . S
C3784 C3786 1.395 . S
C3784 C3787 1.403 . S
H3785 C3791 0.930 . S
C3786 H3772 0.930 . S
C3786 C3784 1.395 . S
C3786 C3789 1.403 . S
C3787 C3784 1.403 . S
C3787 C3788 1.524 . S
C3787 C3791 1.400 . S
C3788 H3773 0.960 . S
C3788 H3774 0.960 . S
C3788 H3775 0.960 . S
C3788 C3787 1.524 . S
C3789 C3786 1.403 . S
C3789 C3790 1.392 . S
C3789 C3793 1.495 . S
C3790 C3789 1.392 . S
C3790 C3791 1.385 . S
C3790 C3792 1.478 . S
C3791 H3785 0.930 . S
C3791 C3787 1.400 . S
C3791 C3790 1.385 . S
C3792 C3790 1.478 . S
C3792 C3794 1.381 . S
C3792 C3798 1.383 . S
C3793 C3789 1.495 . S
C3793 H3799 0.959 . S
C3793 H3800 0.961 . S
C3793 H3801 0.960 . S
C3794 C3792 1.381 . S
C3794 C3795 1.394 . S
C3794 H3802 0.930 . S
C3795 C3794 1.394 . S
C3795 C3796 1.383 . S
C3795 H3803 0.929 . S
C3796 C3795 1.383 . S
C3796 C3797 1.377 . S
C3797 H3781 0.930 . S
C3797 C3796 1.377 . S
C3797 C3798 1.379 . S
C3798 H3782 0.931 . S
C3798 C3792 1.383 . S
C3798 C3797 1.379 . S
H3799 C3793 0.959 . S
H3800 C3793 0.961 . S
H3801 C3793 0.960 . S
H3802 C3794 0.930 . S
H3803 C3795 0.929 . S
H3804 C3812 0.929 . S
H3805 C3814 0.930 . S
H3806 C3816 0.930 . S
H3807 C3819 0.929 . S
H3808 C3822 0.930 . S
H3809 C3824 0.960 . S
H3810 C3824 0.960 . S
H3811 C3824 0.960 . S
C3812 H3804 0.929 . S
C3812 C3813 1.377 . S
C3812 C3814 1.384 . S
C3813 C3812 1.377 . S
C3813 C3819 1.390 . S
C3814 H3805 0.930 . S
C3814 C3812 1.384 . S
C3814 C3815 1.372 . S
C3815 C3814 1.372 . S
C3815 C3816 1.400 . S
C3815 C3820 1.490 . S
C3816 H3806 0.930 . S
C3816 C3815 1.400 . S
C3816 C3819 1.386 . S
H3817 C3833 0.930 . S
H3818 C3834 0.931 . S
C3819 H3807 0.929 . S
C3819 C3813 1.390 . S
C3819 C3816 1.386 . S
C3820 C3815 1.490 . S
C3820 C3822 1.395 . S
C3820 C3823 1.403 . S
H3821 C3827 0.930 . S
C3822 H3808 0.930 . S
C3822 C3820 1.395 . S
C3822 C3825 1.403 . S
C3823 C3820 1.403 . S
C3823 C3824 1.524 . S
C3823 C3827 1.400 . S
C3824 H3809 0.960 . S
C3824 H3810 0.960 . S
C3824 H3811 0.960 . S
C3824 C3823 1.524 . S
C3825 C3822 1.403 . S
C3825 C3826 1.392 . S
C3825 C3829 1.495 . S
C3826 C3825 1.392 . S
C3826 C3827 1.385 . S
C3826 C3828 1.478 . S
C3827 H3821 0.930 . S
C3827 C3823 1.400 . S
C3827 C3826 1.385 . S
C3828 C3826 1.478 . S
C3828 C3830 1.381 . S
C3828 C3834 1.383 . S
C3829 C3825 1.495 . S
C3829 H3835 0.959 . S
C3829 H3836 0.961 . S
C3829 H3837 0.960 . S
C3830 C3828 1.381 . S
C3830 C3831 1.394 . S
C3830 H3838 0.930 . S
C3831 C3830 1.394 . S
C3831 C3832 1.383 . S
C3831 H3839 0.929 . S
C3832 C3831 1.383 . S
C3832 C3833 1.377 . S
C3833 H3817 0.930 . S
C3833 C3832 1.377 . S
C3833 C3834 1.379 . S
C3834 H3818 0.931 . S
C3834 C3828 1.383 . S
C3834 C3833 1.379 . S
H3835 C3829 0.959 . S
H3836 C3829 0.961 . S
H3837 C3829 0.960 . S
H3838 C3830 0.930 . S
H3839 C3831 0.929 . S
H3840 C3848 0.929 . S
H3841 C3850 0.930 . S
H3842 C3852 0.930 . S
H3843 C3855 0.929 . S
H3844 C3858 0.930 . S
H3845 C3860 0.960 . S
H3846 C3860 0.960 . S
H3847 C3860 0.960 . S
C3848 H3840 0.929 . S
C3848 C3849 1.377 . S
C3848 C3850 1.384 . S
C3849 C3848 1.377 . S
C3849 C3855 1.390 . S
C3850 H3841 0.930 . S
C3850 C3848 1.384 . S
C3850 C3851 1.372 . S
C3851 C3850 1.372 . S
C3851 C3852 1.400 . S
C3851 C3856 1.490 . S
C3852 H3842 0.930 . S
C3852 C3851 1.400 . S
C3852 C3855 1.386 . S
H3853 C3869 0.930 . S
H3854 C3870 0.931 . S
C3855 H3843 0.929 . S
C3855 C3849 1.390 . S
C3855 C3852 1.386 . S
C3856 C3851 1.490 . S
C3856 C3858 1.395 . S
C3856 C3859 1.403 . S
H3857 C3863 0.930 . S
C3858 H3844 0.930 . S
C3858 C3856 1.395 . S
C3858 C3861 1.403 . S
C3859 C3856 1.403 . S
C3859 C3860 1.524 . S
C3859 C3863 1.400 . S
C3860 H3845 0.960 . S
C3860 H3846 0.960 . S
C3860 H3847 0.960 . S
C3860 C3859 1.524 . S
C3861 C3858 1.403 . S
C3861 C3862 1.392 . S
C3861 C3865 1.495 . S
C3862 C3861 1.392 . S
C3862 C3863 1.385 . S
C3862 C3864 1.478 . S
C3863 H3857 0.930 . S
C3863 C3859 1.400 . S
C3863 C3862 1.385 . S
C3864 C3862 1.478 . S
C3864 C3866 1.381 . S
C3864 C3870 1.383 . S
C3865 C3861 1.495 . S
C3865 H3871 0.959 . S
C3865 H3872 0.961 . S
C3865 H3873 0.960 . S
C3866 C3864 1.381 . S
C3866 C3867 1.394 . S
C3866 H3874 0.930 . S
C3867 C3866 1.394 . S
C3867 C3868 1.383 . S
C3867 H3875 0.929 . S
C3868 C3867 1.383 . S
C3868 C3869 1.377 . S
C3869 H3853 0.930 . S
C3869 C3868 1.377 . S
C3869 C3870 1.379 . S
C3870 H3854 0.931 . S
C3870 C3864 1.383 . S
C3870 C3869 1.379 . S
H3871 C3865 0.959 . S
H3872 C3865 0.961 . S
H3873 C3865 0.960 . S
H3874 C3866 0.930 . S
H3875 C3867 0.929 . S
H3876 C3884 0.929 . S
H3877 C3886 0.930 . S
H3878 C3888 0.930 . S
H3879 C3891 0.929 . S
H3880 C3894 0.930 . S
H3881 C3896 0.960 . S
H3882 C3896 0.960 . S
H3883 C3896 0.960 . S
C3884 H3876 0.929 . S
C3884 C3885 1.377 . S
C3884 C3886 1.384 . S
C3885 C3884 1.377 . S
C3885 C3891 1.390 . S
C3886 H3877 0.930 . S
C3886 C3884 1.384 . S
C3886 C3887 1.372 . S
C3887 C3886 1.372 . S
C3887 C3888 1.400 . S
C3887 C3892 1.490 . S
C3888 H3878 0.930 . S
C3888 C3887 1.400 . S
C3888 C3891 1.386 . S
H3889 C3905 0.930 . S
H3890 C3906 0.931 . S
C3891 H3879 0.929 . S
C3891 C3885 1.390 . S
C3891 C3888 1.386 . S
C3892 C3887 1.490 . S
C3892 C3894 1.395 . S
C3892 C3895 1.403 . S
H3893 C3899 0.930 . S
C3894 H3880 0.930 . S
C3894 C3892 1.395 . S
C3894 C3897 1.403 . S
C3895 C3892 1.403 . S
C3895 C3896 1.524 . S
C3895 C3899 1.400 . S
C3896 H3881 0.960 . S
C3896 H3882 0.960 . S
C3896 H3883 0.960 . S
C3896 C3895 1.524 . S
C3897 C3894 1.403 . S
C3897 C3898 1.392 . S
C3897 C3901 1.495 . S
C3898 C3897 1.392 . S
C3898 C3899 1.385 . S
C3898 C3900 1.478 . S
C3899 H3893 0.930 . S
C3899 C3895 1.400 . S
C3899 C3898 1.385 . S
C3900 C3898 1.478 . S
C3900 C3902 1.381 . S
C3900 C3906 1.383 . S
C3901 C3897 1.495 . S
C3901 H3907 0.959 . S
C3901 H3908 0.961 . S
C3901 H3909 0.960 . S
C3902 C3900 1.381 . S
C3902 C3903 1.394 . S
C3902 H3910 0.930 . S
C3903 C3902 1.394 . S
C3903 C3904 1.383 . S
C3903 H3911 0.929 . S
C3904 C3903 1.383 . S
C3904 C3905 1.377 . S
C3905 H3889 0.930 . S
C3905 C3904 1.377 . S
C3905 C3906 1.379 . S
C3906 H3890 0.931 . S
C3906 C3900 1.383 . S
C3906 C3905 1.379 . S
H3907 C3901 0.959 . S
H3908 C3901 0.961 . S
H3909 C3901 0.960 . S
H3910 C3902 0.930 . S
H3911 C3903 0.929 . S
H3912 C3920 0.929 . S
H3913 C3922 0.930 . S
H3914 C3924 0.930 . S
H3915 C3927 0.929 . S
H3916 C3930 0.930 . S
H3917 C3932 0.960 . S
H3918 C3932 0.960 . S
H3919 C3932 0.960 . S
C3920 H3912 0.929 . S
C3920 C3921 1.377 . S
C3920 C3922 1.384 . S
C3921 C3920 1.377 . S
C3921 C3927 1.390 . S
C3922 H3913 0.930 . S
C3922 C3920 1.384 . S
C3922 C3923 1.372 . S
C3923 C3922 1.372 . S
C3923 C3924 1.400 . S
C3923 C3928 1.490 . S
C3924 H3914 0.930 . S
C3924 C3923 1.400 . S
C3924 C3927 1.386 . S
H3925 C3941 0.930 . S
H3926 C3942 0.931 . S
C3927 H3915 0.929 . S
C3927 C3921 1.390 . S
C3927 C3924 1.386 . S
C3928 C3923 1.490 . S
C3928 C3930 1.395 . S
C3928 C3931 1.403 . S
H3929 C3935 0.930 . S
C3930 H3916 0.930 . S
C3930 C3928 1.395 . S
C3930 C3933 1.403 . S
C3931 C3928 1.403 . S
C3931 C3932 1.524 . S
C3931 C3935 1.400 . S
C3932 H3917 0.960 . S
C3932 H3918 0.960 . S
C3932 H3919 0.960 . S
C3932 C3931 1.524 . S
C3933 C3930 1.403 . S
C3933 C3934 1.392 . S
C3933 C3937 1.495 . S
C3934 C3933 1.392 . S
C3934 C3935 1.385 . S
C3934 C3936 1.478 . S
C3935 H3929 0.930 . S
C3935 C3931 1.400 . S
C3935 C3934 1.385 . S
C3936 C3934 1.478 . S
C3936 C3938 1.381 . S
C3936 C3942 1.383 . S
C3937 C3933 1.495 . S
C3937 H3943 0.959 . S
C3937 H3944 0.961 . S
C3937 H3945 0.960 . S
C3938 C3936 1.381 . S
C3938 C3939 1.394 . S
C3938 H3946 0.930 . S
C3939 C3938 1.394 . S
C3939 C3940 1.383 . S
C3939 H3947 0.929 . S
C3940 C3939 1.383 . S
C3940 C3941 1.377 . S
C3941 H3925 0.930 . S
C3941 C3940 1.377 . S
C3941 C3942 1.379 . S
C3942 H3926 0.931 . S
C3942 C3936 1.383 . S
C3942 C3941 1.379 . S
H3943 C3937 0.959 . S
H3944 C3937 0.961 . S
H3945 C3937 0.960 . S
H3946 C3938 0.930 . S
H3947 C3939 0.929 . S
H3948 C3956 0.929 . S
H3949 C3958 0.930 . S
H3950 C3960 0.930 . S
H3951 C3963 0.929 . S
H3952 C3966 0.930 . S
H3953 C3968 0.960 . S
H3954 C3968 0.960 . S
H3955 C3968 0.960 . S
C3956 H3948 0.929 . S
C3956 C3957 1.377 1_556 S
C3956 C3958 1.384 . S
C3957 C3956 1.377 1_554 S
C3957 C3963 1.390 . S
C3958 H3949 0.930 . S
C3958 C3956 1.384 . S
C3958 C3959 1.372 1_556 S
C3959 C3958 1.372 1_554 S
C3959 C3960 1.400 . S
C3959 C3964 1.490 . S
C3960 H3950 0.930 . S
C3960 C3959 1.400 . S
C3960 C3963 1.386 . S
H3961 C3977 0.930 . S
H3962 C3978 0.931 . S
C3963 H3951 0.929 . S
C3963 C3957 1.390 . S
C3963 C3960 1.386 . S
C3964 C3959 1.490 . S
C3964 C3966 1.395 . S
C3964 C3967 1.403 1_554 S
H3965 C3971 0.930 . S
C3966 H3952 0.930 . S
C3966 C3964 1.395 . S
C3966 C3969 1.403 . S
C3967 C3964 1.403 1_556 S
C3967 C3968 1.524 . S
C3967 C3971 1.400 . S
C3968 H3953 0.960 . S
C3968 H3954 0.960 . S
C3968 H3955 0.960 . S
C3968 C3967 1.524 . S
C3969 C3966 1.403 . S
C3969 C3970 1.392 . S
C3969 C3973 1.495 . S
C3970 C3969 1.392 . S
C3970 C3971 1.385 1_554 S
C3970 C3972 1.481 . S
C3971 H3965 0.930 . S
C3971 C3967 1.400 . S
C3971 C3970 1.385 1_556 S
C3972 C3970 1.481 . S
C3972 C3974 1.360 1_554 S
C3972 C3978 1.400 . S
C3973 C3969 1.495 . S
C3973 H3979 0.959 . S
C3973 H3980 0.961 . S
C3973 H3981 0.960 . S
C3974 C3972 1.360 1_556 S
C3974 C3975 1.394 . S
C3974 H3982 0.930 . S
C3975 C3974 1.394 . S
C3975 C3976 1.383 . S
C3975 H3983 0.929 . S
C3976 C3975 1.383 . S
C3976 C3977 1.377 1_556 S
C3977 H3961 0.930 . S
C3977 C3976 1.377 1_554 S
C3977 C3978 1.379 . S
C3978 H3962 0.931 . S
C3978 C3972 1.400 . S
C3978 C3977 1.379 . S
H3979 C3973 0.959 . S
H3980 C3973 0.961 . S
H3981 C3973 0.960 . S
H3982 C3974 0.930 . S
H3983 C3975 0.929 . S
H3984 C3992 0.929 . S
H3985 C3994 0.930 . S
H3986 C3996 0.930 . S
H3987 C3999 0.929 . S
H3988 C4002 0.930 . S
H3989 C4004 0.960 . S
H3990 C4004 0.960 . S
H3991 C4004 0.960 . S
C3992 H3984 0.929 . S
C3992 C3993 1.377 . S
C3992 C3994 1.384 . S
C3993 C3992 1.377 . S
C3993 C3999 1.390 . S
C3994 H3985 0.930 . S
C3994 C3992 1.384 . S
C3994 C3995 1.372 . S
C3995 C3994 1.372 . S
C3995 C3996 1.400 . S
C3995 C4000 1.490 . S
C3996 H3986 0.930 . S
C3996 C3995 1.400 . S
C3996 C3999 1.386 . S
H3997 C4013 0.930 . S
H3998 C4014 0.931 . S
C3999 H3987 0.929 . S
C3999 C3993 1.390 . S
C3999 C3996 1.386 . S
C4000 C3995 1.490 . S
C4000 C4002 1.395 . S
C4000 C4003 1.403 . S
H4001 C4007 0.930 . S
C4002 H3988 0.930 . S
C4002 C4000 1.395 . S
C4002 C4005 1.403 . S
C4003 C4000 1.403 . S
C4003 C4004 1.524 . S
C4003 C4007 1.400 . S
C4004 H3989 0.960 . S
C4004 H3990 0.960 . S
C4004 H3991 0.960 . S
C4004 C4003 1.524 . S
C4005 C4002 1.403 . S
C4005 C4006 1.392 . S
C4005 C4009 1.495 . S
C4006 C4005 1.392 . S
C4006 C4007 1.385 . S
C4006 C4008 1.478 . S
C4007 H4001 0.930 . S
C4007 C4003 1.400 . S
C4007 C4006 1.385 . S
C4008 C4006 1.478 . S
C4008 C4010 1.381 . S
C4008 C4014 1.383 . S
C4009 C4005 1.495 . S
C4009 H4015 0.959 . S
C4009 H4016 0.961 . S
C4009 H4017 0.960 . S
C4010 C4008 1.381 . S
C4010 C4011 1.394 . S
C4010 H4018 0.930 . S
C4011 C4010 1.394 . S
C4011 C4012 1.383 . S
C4011 H4019 0.929 . S
C4012 C4011 1.383 . S
C4012 C4013 1.377 . S
C4013 H3997 0.930 . S
C4013 C4012 1.377 . S
C4013 C4014 1.379 . S
C4014 H3998 0.931 . S
C4014 C4008 1.383 . S
C4014 C4013 1.379 . S
H4015 C4009 0.959 . S
H4016 C4009 0.961 . S
H4017 C4009 0.960 . S
H4018 C4010 0.930 . S
H4019 C4011 0.929 . S
H4020 C4028 0.929 . S
H4021 C4030 0.930 . S
H4022 C4032 0.930 . S
H4023 C4035 0.929 . S
H4024 C4038 0.930 . S
H4025 C4040 0.960 . S
H4026 C4040 0.960 1_554 S
H4027 C4040 0.960 . S
C4028 H4020 0.929 . S
C4028 C4029 1.377 . S
C4028 C4030 1.384 . S
C4029 C4028 1.377 . S
C4029 C4035 1.390 1_554 S
C4030 H4021 0.930 . S
C4030 C4028 1.384 . S
C4030 C4031 1.372 . S
C4031 C4030 1.372 . S
C4031 C4032 1.400 1_554 S
C4031 C4036 1.490 . S
C4032 H4022 0.930 . S
C4032 C4031 1.400 1_556 S
C4032 C4035 1.386 . S
H4033 C4049 0.930 . S
H4034 C4050 0.931 . S
C4035 H4023 0.929 . S
C4035 C4029 1.390 1_556 S
C4035 C4032 1.386 . S
C4036 C4031 1.490 . S
C4036 C4038 1.395 . S
C4036 C4039 1.403 . S
H4037 C4043 0.933 . S
C4038 H4024 0.930 . S
C4038 C4036 1.395 . S
C4038 C4041 1.403 . S
C4039 C4036 1.403 . S
C4039 C4040 1.524 1_554 S
C4039 C4043 1.400 . S
C4040 H4025 0.960 . S
C4040 H4026 0.960 1_556 S
C4040 H4027 0.960 . S
C4040 C4039 1.524 1_556 S
C4041 C4038 1.403 . S
C4041 C4042 1.392 . S
C4041 C4045 1.495 . S
C4042 C4041 1.392 . S
C4042 C4043 1.385 . S
C4042 C4044 1.478 . S
C4043 H4037 0.933 . S
C4043 C4039 1.400 . S
C4043 C4042 1.385 . S
C4044 C4042 1.478 . S
C4044 C4046 1.381 . S
C4044 C4050 1.383 1_554 S
C4045 C4041 1.495 . S
C4045 H4051 0.959 . S
C4045 H4052 0.961 . S
C4045 H4053 0.960 . S
C4046 C4044 1.381 . S
C4046 C4047 1.394 . S
C4046 H4054 0.930 . S
C4047 C4046 1.394 . S
C4047 C4048 1.383 . S
C4047 H4055 0.929 . S
C4048 C4047 1.383 . S
C4048 C4049 1.377 1_554 S
C4049 H4033 0.930 . S
C4049 C4048 1.377 1_556 S
C4049 C4050 1.379 . S
C4050 H4034 0.931 . S
C4050 C4044 1.383 1_556 S
C4050 C4049 1.379 . S
H4051 C4045 0.959 . S
H4052 C4045 0.961 . S
H4053 C4045 0.960 . S
H4054 C4046 0.930 . S
H4055 C4047 0.929 . S
H4056 C4064 0.929 . S
H4057 C4066 0.930 . S
H4058 C4068 0.930 . S
H4059 C4071 0.929 . S
H4060 C4074 0.930 . S
H4061 C4076 0.960 . S
H4062 C4076 0.960 . S
H4063 C4076 0.960 . S
C4064 H4056 0.929 . S
C4064 C4065 1.377 . S
C4064 C4066 1.384 . S
C4065 C4064 1.377 . S
C4065 C4071 1.390 . S
C4066 H4057 0.930 . S
C4066 C4064 1.384 . S
C4066 C4067 1.372 . S
C4067 C4066 1.372 . S
C4067 C4068 1.400 . S
C4067 C4072 1.490 . S
C4068 H4058 0.930 . S
C4068 C4067 1.400 . S
C4068 C4071 1.386 . S
H4069 C4085 0.930 . S
H4070 C4086 0.931 . S
C4071 H4059 0.929 . S
C4071 C4065 1.390 . S
C4071 C4068 1.386 . S
C4072 C4067 1.490 . S
C4072 C4074 1.395 . S
C4072 C4075 1.403 . S
H4073 C4079 0.930 . S
C4074 H4060 0.930 . S
C4074 C4072 1.395 . S
C4074 C4077 1.403 . S
C4075 C4072 1.403 . S
C4075 C4076 1.524 . S
C4075 C4079 1.400 . S
C4076 H4061 0.960 . S
C4076 H4062 0.960 . S
C4076 H4063 0.960 . S
C4076 C4075 1.524 . S
C4077 C4074 1.403 . S
C4077 C4078 1.392 . S
C4077 C4081 1.495 . S
C4078 C4077 1.392 . S
C4078 C4079 1.385 . S
C4078 C4080 1.478 . S
C4079 H4073 0.930 . S
C4079 C4075 1.400 . S
C4079 C4078 1.385 . S
C4080 C4078 1.478 . S
C4080 C4082 1.381 . S
C4080 C4086 1.383 . S
C4081 C4077 1.495 . S
C4081 H4087 0.959 . S
C4081 H4088 0.961 . S
C4081 H4089 0.960 . S
C4082 C4080 1.381 . S
C4082 C4083 1.394 . S
C4082 H4090 0.930 . S
C4083 C4082 1.394 . S
C4083 C4084 1.383 . S
C4083 H4091 0.929 . S
C4084 C4083 1.383 . S
C4084 C4085 1.377 . S
C4085 H4069 0.930 . S
C4085 C4084 1.377 . S
C4085 C4086 1.379 . S
C4086 H4070 0.931 . S
C4086 C4080 1.383 . S
C4086 C4085 1.379 . S
H4087 C4081 0.959 . S
H4088 C4081 0.961 . S
H4089 C4081 0.960 . S
H4090 C4082 0.930 . S
H4091 C4083 0.929 . S
H4092 C4100 0.929 . S
H4093 C4102 0.930 . S
H4094 C4104 0.930 . S
H4095 C4107 0.929 . S
H4096 C4110 0.930 . S
H4097 C4112 0.960 . S
H4098 C4112 0.960 . S
H4099 C4112 0.960 . S
C4100 H4092 0.929 . S
C4100 C4101 1.377 . S
C4100 C4102 1.384 . S
C4101 C4100 1.377 . S
C4101 C4107 1.390 . S
C4102 H4093 0.930 . S
C4102 C4100 1.384 . S
C4102 C4103 1.372 . S
C4103 C4102 1.372 . S
C4103 C4104 1.400 . S
C4103 C4108 1.490 . S
C4104 H4094 0.930 . S
C4104 C4103 1.400 . S
C4104 C4107 1.386 . S
H4105 C4121 0.930 . S
H4106 C4122 0.931 . S
C4107 H4095 0.929 . S
C4107 C4101 1.390 . S
C4107 C4104 1.386 . S
C4108 C4103 1.490 . S
C4108 C4110 1.395 . S
C4108 C4111 1.403 . S
H4109 C4115 0.930 . S
C4110 H4096 0.930 . S
C4110 C4108 1.395 . S
C4110 C4113 1.403 . S
C4111 C4108 1.403 . S
C4111 C4112 1.524 . S
C4111 C4115 1.400 . S
C4112 H4097 0.960 . S
C4112 H4098 0.960 . S
C4112 H4099 0.960 . S
C4112 C4111 1.524 . S
C4113 C4110 1.403 . S
C4113 C4114 1.392 . S
C4113 C4117 1.495 . S
C4114 C4113 1.392 . S
C4114 C4115 1.385 . S
C4114 C4116 1.478 . S
C4115 H4109 0.930 . S
C4115 C4111 1.400 . S
C4115 C4114 1.385 . S
C4116 C4114 1.478 . S
C4116 C4118 1.381 . S
C4116 C4122 1.383 . S
C4117 C4113 1.495 . S
C4117 H4123 0.959 . S
C4117 H4124 0.961 . S
C4117 H4125 0.960 . S
C4118 C4116 1.381 . S
C4118 C4119 1.394 . S
C4118 H4126 0.930 . S
C4119 C4118 1.394 . S
C4119 C4120 1.383 . S
C4119 H4127 0.929 . S
C4120 C4119 1.383 . S
C4120 C4121 1.377 . S
C4121 H4105 0.930 . S
C4121 C4120 1.377 . S
C4121 C4122 1.379 . S
C4122 H4106 0.931 . S
C4122 C4116 1.383 . S
C4122 C4121 1.379 . S
H4123 C4117 0.959 . S
H4124 C4117 0.961 . S
H4125 C4117 0.960 . S
H4126 C4118 0.930 . S
H4127 C4119 0.929 . S
C700 C352 1.162 . S
C681 C5 1.323 . S
C717 C23 1.145 . S
C736 C372 1.098 . S
C753 C39 1.227 . S
C772 C394 1.103 . S
C808 C413 1.289 . S
C789 C42 1.314 . S
C825 C19 1.335 . S
C844 C434 1.319 . S
C880 C457 1.227 . S
C861 C28 1.325 . S
C916 C480 1.028 . S
C897 C53 1.093 . S
C933 C9 1.261 . S
C952 C498 1.185 . S
C969 C65 1.300 . S
C988 C354 1.249 . S
C1005 C75 1.335 . S
C1024 C374 1.292 . S
C1060 C396 1.138 . S
C1041 C93 1.195 . S
C1096 C415 1.143 . S
C1077 C109 1.277 . S
C1113 C56 1.354 . S
C1132 C436 1.244 . S
C1168 C459 0.975 . S
C1149 C81 1.022 . S
C1204 C476 1.300 . S
C1185 C84 1.344 . S
C1240 C500 1.233 . S
C1221 C103 1.252 . S
C1276 C350 1.242 . S
C1257 C107 1.242 . S
C1312 C522 1.069 . S
C1293 C121 1.122 . S
C1329 C131 1.355 . S
C1348 C539 1.344 . S
C1384 C562 1.264 . S
C1365 C140 1.355 . S
C1401 C61 1.337 . S
C1420 C496 1.198 . S
C1456 C392 1.266 . S
C1437 C70 1.301 . S
C1473 C137 1.075 . S
C1492 C585 1.009 . S
C1528 C601 1.150 . S
C1509 C165 1.197 . S
C1545 C173 1.243 . S
C1564 C349 1.122 . S
C1600 C602 1.194 . S
C1581 C182 1.200 . S
C1617 C207 1.286 . S
C1636 C391 1.161 . S
C1653 C219 1.132 . S
C1672 C582 1.118 . S
C1708 C435 1.153 . S
C1689 C187 1.164 . S
C1744 C538 1.176 . S
C1725 C205 1.283 . S
C1780 C479 1.168 . S
C1761 C221 1.218 . S
C1816 C623 1.237 . S
C1797 C168 1.288 . S
C1852 C353 1.289 . S
C1833 C224 1.326 1_545 S
C1869 C243 1.128 . S
C1888 C606 1.120 . S
C1924 C395 1.188 1_545 S
C1905 C252 1.242 . S
C1941 C277 1.172 . S
C1960 C580 1.061 . S
C1977 C233 1.326 1_565 S
C1996 C433 1.244 . S
C2013 C249 1.192 . S
C2032 C542 1.176 . S
C2068 C477 1.135 . S
C2049 C261 1.170 . S
C2085 C271 1.194 . S
C2104 C627 1.154 . S
C2121 C266 1.172 . S
C2140 C351 1.170 . S
C2157 C280 1.258 . S
C2176 C521 1.211 . S
C2193 C299 1.176 . S
C2212 C456 1.161 . S
C2229 C317 1.259 . S
C2248 C559 1.133 . S
C2284 C625 1.143 . S
C2265 C229 1.255 . S
C2320 C393 1.074 . S
C2301 C247 1.125 . S
C2356 C416 1.164 . S
C2337 C305 1.204 . S
C2392 C373 1.203 . S
C2373 C333 1.271 . S
C2409 C33 1.323 . S
C2428 C646 1.195 . S
C2464 C603 1.144 . S
C2445 C51 1.142 . S
C2500 C667 1.163 . S
C2481 C11 1.225 . S
C2517 C14 1.310 . S
C2536 C581 1.262 . S
C2553 C47 1.335 . S
C2572 C518 1.280 . S
C2608 C541 1.264 . S
C2589 C0 1.321 . S
C2644 C564 1.026 . S
C2625 C25 1.092 . S
C2680 C624 1.246 . S
C2661 C37 1.257 . S
C2716 C648 1.227 . S
C2697 C163 1.301 . S
C2733 C117 1.334 . S
C2752 C605 1.283 . S
C2769 C135 1.190 . S
C2788 C669 1.191 . S
C2824 C583 1.151 . S
C2805 C151 1.277 . S
C2860 C520 1.206 . S
C2841 C154 1.355 . S
C2877 C123 1.027 . S
C2896 C543 0.997 . S
C2932 C560 1.321 . S
C2913 C126 1.343 . S
C2949 C145 1.253 . S
C2968 C626 1.200 . S
C3004 C644 1.209 . S
C2985 C149 1.239 . S
C3040 C438 1.123 . S
C3021 C79 1.118 . S
C3076 C455 1.346 . S
C3057 C89 1.355 . S
C3093 C98 1.355 . S
C3112 C478 1.264 . S
C3148 C622 1.259 . S
C3129 C159 1.337 . S
C3165 C112 1.301 . S
C3184 C665 1.301 . S
C3220 C417 1.076 . S
C3201 C95 1.075 . S
C3256 C370 1.058 . S
C3237 C67 1.200 . S
C3273 C201 1.243 . S
C3292 C643 1.156 . S
C3328 C371 1.149 . S
C3309 C210 1.200 . S
C3364 C664 1.141 . S
C3345 C179 1.285 . S
C3381 C191 1.133 . S
C3400 C414 1.127 . S
C3417 C215 1.164 . S
C3436 C519 1.161 . S
C3453 C177 1.284 . S
C3472 C454 1.225 . S
C3489 C193 1.219 . S
C3508 C563 1.178 . S
C3525 C196 1.289 . S
C3544 C497 1.278 . S
C3580 C647 1.307 . S
C3561 C322 1.327 . S
C3597 C285 1.127 . S
C3616 C375 1.127 . S
C3652 C668 1.189 . S
C3633 C294 1.241 . S
C3669 C319 1.170 . S
C3688 C412 1.095 . S
C3705 C331 1.326 . S
C3724 C517 1.177 . S
C3760 C458 1.191 . S
C3741 C291 1.192 . S
C3777 C303 1.172 . S
C3796 C561 1.166 . S
C3832 C501 1.186 . S
C3813 C313 1.193 . S
C3868 C645 1.141 . S
C3849 C308 1.174 . S
C3904 C437 1.254 . S
C3885 C238 1.257 . S
C3921 C257 1.175 . S
C3940 C540 1.170 . S
C3976 C475 1.205 . S
C3957 C275 1.258 . S
C4012 C499 1.126 . S
C3993 C327 1.255 . S
C4029 C289 1.130 . S
C4048 C666 1.124 . S
C4084 C584 1.157 . S
C4065 C263 1.202 . S
C4120 C604 1.178 . S
C4101 C235 1.270 . S
