# Generated by pormake.
# Topology ana-f, (3,3)-cn, num edge types: 1
# Building blocks:
#     Node 0, Type 0, BuildingBlock: OLANEW_clean_sbu_2, # of connection points: 3
#     Node 1, Type 0, BuildingBlock: OLANEW_clean_sbu_2, # of connection points: 3
#     Node 2, Type 0, BuildingBlock: OLANEW_clean_sbu_2, # of connection points: 3
#     Node 3, Type 0, BuildingBlock: OLANEW_clean_sbu_2, # of connection points: 3
#     Node 4, Type 0, BuildingBlock: OLANEW_clean_sbu_2, # of connection points: 3
#     Node 5, Type 0, BuildingBlock: OLANEW_clean_sbu_2, # of connection points: 3
#     Node 6, Type 0, BuildingBlock: OLANEW_clean_sbu_2, # of connection points: 3
#     Node 7, Type 0, BuildingBlock: OLANEW_clean_sbu_2, # of connection points: 3
#     Node 8, Type 0, BuildingBlock: OLANEW_clean_sbu_2, # of connection points: 3
#     Node 9, Type 0, BuildingBlock: OLANEW_clean_sbu_2, # of connection points: 3
#     Node 10, Type 0, BuildingBlock: OLANEW_clean_sbu_2, # of connection points: 3
#     Node 11, Type 0, BuildingBlock: OLANEW_clean_sbu_2, # of connection points: 3
#     Node 12, Type 0, BuildingBlock: OLANEW_clean_sbu_2, # of connection points: 3
#     Node 13, Type 0, BuildingBlock: OLANEW_clean_sbu_2, # of connection points: 3
#     Node 14, Type 0, BuildingBlock: OLANEW_clean_sbu_2, # of connection points: 3
#     Node 15, Type 0, BuildingBlock: OLANEW_clean_sbu_2, # of connection points: 3
#     Node 16, Type 0, BuildingBlock: OLANEW_clean_sbu_2, # of connection points: 3
#     Node 17, Type 0, BuildingBlock: OLANEW_clean_sbu_2, # of connection points: 3
#     Node 18, Type 0, BuildingBlock: OLANEW_clean_sbu_2, # of connection points: 3
#     Node 19, Type 0, BuildingBlock: OLANEW_clean_sbu_2, # of connection points: 3
#     Node 20, Type 0, BuildingBlock: OLANEW_clean_sbu_2, # of connection points: 3
#     Node 21, Type 0, BuildingBlock: OLANEW_clean_sbu_2, # of connection points: 3
#     Node 22, Type 0, BuildingBlock: OLANEW_clean_sbu_2, # of connection points: 3
#     Node 23, Type 0, BuildingBlock: OLANEW_clean_sbu_2, # of connection points: 3
#     Node 24, Type 0, BuildingBlock: OLANEW_clean_sbu_2, # of connection points: 3
#     Node 25, Type 0, BuildingBlock: OLANEW_clean_sbu_2, # of connection points: 3
#     Node 26, Type 0, BuildingBlock: OLANEW_clean_sbu_2, # of connection points: 3
#     Node 27, Type 0, BuildingBlock: OLANEW_clean_sbu_2, # of connection points: 3
#     Node 28, Type 0, BuildingBlock: OLANEW_clean_sbu_2, # of connection points: 3
#     Node 29, Type 0, BuildingBlock: OLANEW_clean_sbu_2, # of connection points: 3
#     Node 30, Type 0, BuildingBlock: OLANEW_clean_sbu_2, # of connection points: 3
#     Node 31, Type 0, BuildingBlock: OLANEW_clean_sbu_2, # of connection points: 3
#     Node 32, Type 0, BuildingBlock: OLANEW_clean_sbu_2, # of connection points: 3
#     Node 33, Type 0, BuildingBlock: OLANEW_clean_sbu_2, # of connection points: 3
#     Node 34, Type 0, BuildingBlock: OLANEW_clean_sbu_2, # of connection points: 3
#     Node 35, Type 0, BuildingBlock: OLANEW_clean_sbu_2, # of connection points: 3
#     Node 36, Type 0, BuildingBlock: OLANEW_clean_sbu_2, # of connection points: 3
#     Node 37, Type 0, BuildingBlock: OLANEW_clean_sbu_2, # of connection points: 3
#     Node 38, Type 0, BuildingBlock: OLANEW_clean_sbu_2, # of connection points: 3
#     Node 39, Type 0, BuildingBlock: OLANEW_clean_sbu_2, # of connection points: 3
#     Node 40, Type 0, BuildingBlock: OLANEW_clean_sbu_2, # of connection points: 3
#     Node 41, Type 0, BuildingBlock: OLANEW_clean_sbu_2, # of connection points: 3
#     Node 42, Type 0, BuildingBlock: OLANEW_clean_sbu_2, # of connection points: 3
#     Node 43, Type 0, BuildingBlock: OLANEW_clean_sbu_2, # of connection points: 3
#     Node 44, Type 0, BuildingBlock: OLANEW_clean_sbu_2, # of connection points: 3
#     Node 45, Type 0, BuildingBlock: OLANEW_clean_sbu_2, # of connection points: 3
#     Node 46, Type 0, BuildingBlock: OLANEW_clean_sbu_2, # of connection points: 3
#     Node 47, Type 0, BuildingBlock: OLANEW_clean_sbu_2, # of connection points: 3
#     Node 48, Type 0, BuildingBlock: OLANEW_clean_sbu_2, # of connection points: 3
#     Node 49, Type 0, BuildingBlock: OLANEW_clean_sbu_2, # of connection points: 3
#     Node 50, Type 0, BuildingBlock: OLANEW_clean_sbu_2, # of connection points: 3
#     Node 51, Type 0, BuildingBlock: OLANEW_clean_sbu_2, # of connection points: 3
#     Node 52, Type 0, BuildingBlock: OLANEW_clean_sbu_2, # of connection points: 3
#     Node 53, Type 0, BuildingBlock: OLANEW_clean_sbu_2, # of connection points: 3
#     Node 54, Type 0, BuildingBlock: OLANEW_clean_sbu_2, # of connection points: 3
#     Node 55, Type 0, BuildingBlock: OLANEW_clean_sbu_2, # of connection points: 3
#     Node 56, Type 0, BuildingBlock: OLANEW_clean_sbu_2, # of connection points: 3
#     Node 57, Type 0, BuildingBlock: OLANEW_clean_sbu_2, # of connection points: 3
#     Node 58, Type 0, BuildingBlock: OLANEW_clean_sbu_2, # of connection points: 3
#     Node 59, Type 0, BuildingBlock: OLANEW_clean_sbu_2, # of connection points: 3
#     Node 60, Type 0, BuildingBlock: OLANEW_clean_sbu_2, # of connection points: 3
#     Node 61, Type 0, BuildingBlock: OLANEW_clean_sbu_2, # of connection points: 3
#     Node 62, Type 0, BuildingBlock: OLANEW_clean_sbu_2, # of connection points: 3
#     Node 63, Type 0, BuildingBlock: OLANEW_clean_sbu_2, # of connection points: 3
#     Node 64, Type 0, BuildingBlock: OLANEW_clean_sbu_2, # of connection points: 3
#     Node 65, Type 0, BuildingBlock: OLANEW_clean_sbu_2, # of connection points: 3
#     Node 66, Type 0, BuildingBlock: OLANEW_clean_sbu_2, # of connection points: 3
#     Node 67, Type 0, BuildingBlock: OLANEW_clean_sbu_2, # of connection points: 3
#     Node 68, Type 0, BuildingBlock: OLANEW_clean_sbu_2, # of connection points: 3
#     Node 69, Type 0, BuildingBlock: OLANEW_clean_sbu_2, # of connection points: 3
#     Node 70, Type 0, BuildingBlock: OLANEW_clean_sbu_2, # of connection points: 3
#     Node 71, Type 0, BuildingBlock: OLANEW_clean_sbu_2, # of connection points: 3
#     Node 72, Type 0, BuildingBlock: OLANEW_clean_sbu_2, # of connection points: 3
#     Node 73, Type 0, BuildingBlock: OLANEW_clean_sbu_2, # of connection points: 3
#     Node 74, Type 0, BuildingBlock: OLANEW_clean_sbu_2, # of connection points: 3
#     Node 75, Type 0, BuildingBlock: OLANEW_clean_sbu_2, # of connection points: 3
#     Node 76, Type 0, BuildingBlock: OLANEW_clean_sbu_2, # of connection points: 3
#     Node 77, Type 0, BuildingBlock: OLANEW_clean_sbu_2, # of connection points: 3
#     Node 78, Type 0, BuildingBlock: OLANEW_clean_sbu_2, # of connection points: 3
#     Node 79, Type 0, BuildingBlock: OLANEW_clean_sbu_2, # of connection points: 3
#     Node 80, Type 0, BuildingBlock: OLANEW_clean_sbu_2, # of connection points: 3
#     Node 81, Type 0, BuildingBlock: OLANEW_clean_sbu_2, # of connection points: 3
#     Node 82, Type 0, BuildingBlock: OLANEW_clean_sbu_2, # of connection points: 3
#     Node 83, Type 0, BuildingBlock: OLANEW_clean_sbu_2, # of connection points: 3
#     Node 84, Type 0, BuildingBlock: OLANEW_clean_sbu_2, # of connection points: 3
#     Node 85, Type 0, BuildingBlock: OLANEW_clean_sbu_2, # of connection points: 3
#     Node 86, Type 0, BuildingBlock: OLANEW_clean_sbu_2, # of connection points: 3
#     Node 87, Type 0, BuildingBlock: OLANEW_clean_sbu_2, # of connection points: 3
#     Node 88, Type 0, BuildingBlock: OLANEW_clean_sbu_2, # of connection points: 3
#     Node 89, Type 0, BuildingBlock: OLANEW_clean_sbu_2, # of connection points: 3
#     Node 90, Type 0, BuildingBlock: OLANEW_clean_sbu_2, # of connection points: 3
#     Node 91, Type 0, BuildingBlock: OLANEW_clean_sbu_2, # of connection points: 3
#     Node 92, Type 0, BuildingBlock: OLANEW_clean_sbu_2, # of connection points: 3
#     Node 93, Type 0, BuildingBlock: OLANEW_clean_sbu_2, # of connection points: 3
#     Node 94, Type 0, BuildingBlock: OLANEW_clean_sbu_2, # of connection points: 3
#     Node 95, Type 0, BuildingBlock: OLANEW_clean_sbu_2, # of connection points: 3
#     Node 96, Type 1, BuildingBlock: WUSLED_clean_sbu_0, # of connection points: 3
#     Node 97, Type 1, BuildingBlock: WUSLED_clean_sbu_0, # of connection points: 3
#     Node 98, Type 1, BuildingBlock: WUSLED_clean_sbu_0, # of connection points: 3
#     Node 99, Type 1, BuildingBlock: WUSLED_clean_sbu_0, # of connection points: 3
#     Node 100, Type 1, BuildingBlock: WUSLED_clean_sbu_0, # of connection points: 3
#     Node 101, Type 1, BuildingBlock: WUSLED_clean_sbu_0, # of connection points: 3
#     Node 102, Type 1, BuildingBlock: WUSLED_clean_sbu_0, # of connection points: 3
#     Node 103, Type 1, BuildingBlock: WUSLED_clean_sbu_0, # of connection points: 3
#     Node 104, Type 1, BuildingBlock: WUSLED_clean_sbu_0, # of connection points: 3
#     Node 105, Type 1, BuildingBlock: WUSLED_clean_sbu_0, # of connection points: 3
#     Node 106, Type 1, BuildingBlock: WUSLED_clean_sbu_0, # of connection points: 3
#     Node 107, Type 1, BuildingBlock: WUSLED_clean_sbu_0, # of connection points: 3
#     Node 108, Type 1, BuildingBlock: WUSLED_clean_sbu_0, # of connection points: 3
#     Node 109, Type 1, BuildingBlock: WUSLED_clean_sbu_0, # of connection points: 3
#     Node 110, Type 1, BuildingBlock: WUSLED_clean_sbu_0, # of connection points: 3
#     Node 111, Type 1, BuildingBlock: WUSLED_clean_sbu_0, # of connection points: 3
#     Node 112, Type 1, BuildingBlock: WUSLED_clean_sbu_0, # of connection points: 3
#     Node 113, Type 1, BuildingBlock: WUSLED_clean_sbu_0, # of connection points: 3
#     Node 114, Type 1, BuildingBlock: WUSLED_clean_sbu_0, # of connection points: 3
#     Node 115, Type 1, BuildingBlock: WUSLED_clean_sbu_0, # of connection points: 3
#     Node 116, Type 1, BuildingBlock: WUSLED_clean_sbu_0, # of connection points: 3
#     Node 117, Type 1, BuildingBlock: WUSLED_clean_sbu_0, # of connection points: 3
#     Node 118, Type 1, BuildingBlock: WUSLED_clean_sbu_0, # of connection points: 3
#     Node 119, Type 1, BuildingBlock: WUSLED_clean_sbu_0, # of connection points: 3
#     Node 120, Type 1, BuildingBlock: WUSLED_clean_sbu_0, # of connection points: 3
#     Node 121, Type 1, BuildingBlock: WUSLED_clean_sbu_0, # of connection points: 3
#     Node 122, Type 1, BuildingBlock: WUSLED_clean_sbu_0, # of connection points: 3
#     Node 123, Type 1, BuildingBlock: WUSLED_clean_sbu_0, # of connection points: 3
#     Node 124, Type 1, BuildingBlock: WUSLED_clean_sbu_0, # of connection points: 3
#     Node 125, Type 1, BuildingBlock: WUSLED_clean_sbu_0, # of connection points: 3
#     Node 126, Type 1, BuildingBlock: WUSLED_clean_sbu_0, # of connection points: 3
#     Node 127, Type 1, BuildingBlock: WUSLED_clean_sbu_0, # of connection points: 3
#     Node 128, Type 1, BuildingBlock: WUSLED_clean_sbu_0, # of connection points: 3
#     Node 129, Type 1, BuildingBlock: WUSLED_clean_sbu_0, # of connection points: 3
#     Node 130, Type 1, BuildingBlock: WUSLED_clean_sbu_0, # of connection points: 3
#     Node 131, Type 1, BuildingBlock: WUSLED_clean_sbu_0, # of connection points: 3
#     Node 132, Type 1, BuildingBlock: WUSLED_clean_sbu_0, # of connection points: 3
#     Node 133, Type 1, BuildingBlock: WUSLED_clean_sbu_0, # of connection points: 3
#     Node 134, Type 1, BuildingBlock: WUSLED_clean_sbu_0, # of connection points: 3
#     Node 135, Type 1, BuildingBlock: WUSLED_clean_sbu_0, # of connection points: 3
#     Node 136, Type 1, BuildingBlock: WUSLED_clean_sbu_0, # of connection points: 3
#     Node 137, Type 1, BuildingBlock: WUSLED_clean_sbu_0, # of connection points: 3
#     Node 138, Type 1, BuildingBlock: WUSLED_clean_sbu_0, # of connection points: 3
#     Node 139, Type 1, BuildingBlock: WUSLED_clean_sbu_0, # of connection points: 3
#     Node 140, Type 1, BuildingBlock: WUSLED_clean_sbu_0, # of connection points: 3
#     Node 141, Type 1, BuildingBlock: WUSLED_clean_sbu_0, # of connection points: 3
#     Node 142, Type 1, BuildingBlock: WUSLED_clean_sbu_0, # of connection points: 3
#     Node 143, Type 1, BuildingBlock: WUSLED_clean_sbu_0, # of connection points: 3
#     Node 144, Type 1, BuildingBlock: WUSLED_clean_sbu_0, # of connection points: 3
#     Node 145, Type 1, BuildingBlock: WUSLED_clean_sbu_0, # of connection points: 3
#     Node 146, Type 1, BuildingBlock: WUSLED_clean_sbu_0, # of connection points: 3
#     Node 147, Type 1, BuildingBlock: WUSLED_clean_sbu_0, # of connection points: 3
#     Node 148, Type 1, BuildingBlock: WUSLED_clean_sbu_0, # of connection points: 3
#     Node 149, Type 1, BuildingBlock: WUSLED_clean_sbu_0, # of connection points: 3
#     Node 150, Type 1, BuildingBlock: WUSLED_clean_sbu_0, # of connection points: 3
#     Node 151, Type 1, BuildingBlock: WUSLED_clean_sbu_0, # of connection points: 3
#     Node 152, Type 1, BuildingBlock: WUSLED_clean_sbu_0, # of connection points: 3
#     Node 153, Type 1, BuildingBlock: WUSLED_clean_sbu_0, # of connection points: 3
#     Node 154, Type 1, BuildingBlock: WUSLED_clean_sbu_0, # of connection points: 3
#     Node 155, Type 1, BuildingBlock: WUSLED_clean_sbu_0, # of connection points: 3
#     Node 156, Type 1, BuildingBlock: WUSLED_clean_sbu_0, # of connection points: 3
#     Node 157, Type 1, BuildingBlock: WUSLED_clean_sbu_0, # of connection points: 3
#     Node 158, Type 1, BuildingBlock: WUSLED_clean_sbu_0, # of connection points: 3
#     Node 159, Type 1, BuildingBlock: WUSLED_clean_sbu_0, # of connection points: 3
#     Node 160, Type 1, BuildingBlock: WUSLED_clean_sbu_0, # of connection points: 3
#     Node 161, Type 1, BuildingBlock: WUSLED_clean_sbu_0, # of connection points: 3
#     Node 162, Type 1, BuildingBlock: WUSLED_clean_sbu_0, # of connection points: 3
#     Node 163, Type 1, BuildingBlock: WUSLED_clean_sbu_0, # of connection points: 3
#     Node 164, Type 1, BuildingBlock: WUSLED_clean_sbu_0, # of connection points: 3
#     Node 165, Type 1, BuildingBlock: WUSLED_clean_sbu_0, # of connection points: 3
#     Node 166, Type 1, BuildingBlock: WUSLED_clean_sbu_0, # of connection points: 3
#     Node 167, Type 1, BuildingBlock: WUSLED_clean_sbu_0, # of connection points: 3
#     Node 168, Type 1, BuildingBlock: WUSLED_clean_sbu_0, # of connection points: 3
#     Node 169, Type 1, BuildingBlock: WUSLED_clean_sbu_0, # of connection points: 3
#     Node 170, Type 1, BuildingBlock: WUSLED_clean_sbu_0, # of connection points: 3
#     Node 171, Type 1, BuildingBlock: WUSLED_clean_sbu_0, # of connection points: 3
#     Node 172, Type 1, BuildingBlock: WUSLED_clean_sbu_0, # of connection points: 3
#     Node 173, Type 1, BuildingBlock: WUSLED_clean_sbu_0, # of connection points: 3
#     Node 174, Type 1, BuildingBlock: WUSLED_clean_sbu_0, # of connection points: 3
#     Node 175, Type 1, BuildingBlock: WUSLED_clean_sbu_0, # of connection points: 3
#     Node 176, Type 1, BuildingBlock: WUSLED_clean_sbu_0, # of connection points: 3
#     Node 177, Type 1, BuildingBlock: WUSLED_clean_sbu_0, # of connection points: 3
#     Node 178, Type 1, BuildingBlock: WUSLED_clean_sbu_0, # of connection points: 3
#     Node 179, Type 1, BuildingBlock: WUSLED_clean_sbu_0, # of connection points: 3
#     Node 180, Type 1, BuildingBlock: WUSLED_clean_sbu_0, # of connection points: 3
#     Node 181, Type 1, BuildingBlock: WUSLED_clean_sbu_0, # of connection points: 3
#     Node 182, Type 1, BuildingBlock: WUSLED_clean_sbu_0, # of connection points: 3
#     Node 183, Type 1, BuildingBlock: WUSLED_clean_sbu_0, # of connection points: 3
#     Node 184, Type 1, BuildingBlock: WUSLED_clean_sbu_0, # of connection points: 3
#     Node 185, Type 1, BuildingBlock: WUSLED_clean_sbu_0, # of connection points: 3
#     Node 186, Type 1, BuildingBlock: WUSLED_clean_sbu_0, # of connection points: 3
#     Node 187, Type 1, BuildingBlock: WUSLED_clean_sbu_0, # of connection points: 3
#     Node 188, Type 1, BuildingBlock: WUSLED_clean_sbu_0, # of connection points: 3
#     Node 189, Type 1, BuildingBlock: WUSLED_clean_sbu_0, # of connection points: 3
#     Node 190, Type 1, BuildingBlock: WUSLED_clean_sbu_0, # of connection points: 3
#     Node 191, Type 1, BuildingBlock: WUSLED_clean_sbu_0, # of connection points: 3
#     Edge 192, Type (0, 1), None
#     Edge 193, Type (0, 1), None
#     Edge 194, Type (0, 1), None
#     Edge 195, Type (0, 1), None
#     Edge 196, Type (0, 1), None
#     Edge 197, Type (0, 1), None
#     Edge 198, Type (0, 1), None
#     Edge 199, Type (0, 1), None
#     Edge 200, Type (0, 1), None
#     Edge 201, Type (0, 1), None
#     Edge 202, Type (0, 1), None
#     Edge 203, Type (0, 1), None
#     Edge 204, Type (0, 1), None
#     Edge 205, Type (0, 1), None
#     Edge 206, Type (0, 1), None
#     Edge 207, Type (0, 1), None
#     Edge 208, Type (0, 1), None
#     Edge 209, Type (0, 1), None
#     Edge 210, Type (0, 1), None
#     Edge 211, Type (0, 1), None
#     Edge 212, Type (0, 1), None
#     Edge 213, Type (0, 1), None
#     Edge 214, Type (0, 1), None
#     Edge 215, Type (0, 1), None
#     Edge 216, Type (0, 1), None
#     Edge 217, Type (0, 1), None
#     Edge 218, Type (0, 1), None
#     Edge 219, Type (0, 1), None
#     Edge 220, Type (0, 1), None
#     Edge 221, Type (0, 1), None
#     Edge 222, Type (0, 1), None
#     Edge 223, Type (0, 1), None
#     Edge 224, Type (0, 1), None
#     Edge 225, Type (0, 1), None
#     Edge 226, Type (0, 1), None
#     Edge 227, Type (0, 1), None
#     Edge 228, Type (0, 1), None
#     Edge 229, Type (0, 1), None
#     Edge 230, Type (0, 1), None
#     Edge 231, Type (0, 1), None
#     Edge 232, Type (0, 1), None
#     Edge 233, Type (0, 1), None
#     Edge 234, Type (0, 1), None
#     Edge 235, Type (0, 1), None
#     Edge 236, Type (0, 1), None
#     Edge 237, Type (0, 1), None
#     Edge 238, Type (0, 1), None
#     Edge 239, Type (0, 1), None
#     Edge 240, Type (0, 1), None
#     Edge 241, Type (0, 1), None
#     Edge 242, Type (0, 1), None
#     Edge 243, Type (0, 1), None
#     Edge 244, Type (0, 1), None
#     Edge 245, Type (0, 1), None
#     Edge 246, Type (0, 1), None
#     Edge 247, Type (0, 1), None
#     Edge 248, Type (0, 1), None
#     Edge 249, Type (0, 1), None
#     Edge 250, Type (0, 1), None
#     Edge 251, Type (0, 1), None
#     Edge 252, Type (0, 1), None
#     Edge 253, Type (0, 1), None
#     Edge 254, Type (0, 1), None
#     Edge 255, Type (0, 1), None
#     Edge 256, Type (0, 1), None
#     Edge 257, Type (0, 1), None
#     Edge 258, Type (0, 1), None
#     Edge 259, Type (0, 1), None
#     Edge 260, Type (0, 1), None
#     Edge 261, Type (0, 1), None
#     Edge 262, Type (0, 1), None
#     Edge 263, Type (0, 1), None
#     Edge 264, Type (0, 1), None
#     Edge 265, Type (0, 1), None
#     Edge 266, Type (0, 1), None
#     Edge 267, Type (0, 1), None
#     Edge 268, Type (0, 1), None
#     Edge 269, Type (0, 1), None
#     Edge 270, Type (0, 1), None
#     Edge 271, Type (0, 1), None
#     Edge 272, Type (0, 1), None
#     Edge 273, Type (0, 1), None
#     Edge 274, Type (0, 1), None
#     Edge 275, Type (0, 1), None
#     Edge 276, Type (0, 1), None
#     Edge 277, Type (0, 1), None
#     Edge 278, Type (0, 1), None
#     Edge 279, Type (0, 1), None
#     Edge 280, Type (0, 1), None
#     Edge 281, Type (0, 1), None
#     Edge 282, Type (0, 1), None
#     Edge 283, Type (0, 1), None
#     Edge 284, Type (0, 1), None
#     Edge 285, Type (0, 1), None
#     Edge 286, Type (0, 1), None
#     Edge 287, Type (0, 1), None
#     Edge 288, Type (0, 1), None
#     Edge 289, Type (0, 1), None
#     Edge 290, Type (0, 1), None
#     Edge 291, Type (0, 1), None
#     Edge 292, Type (0, 1), None
#     Edge 293, Type (0, 1), None
#     Edge 294, Type (0, 1), None
#     Edge 295, Type (0, 1), None
#     Edge 296, Type (0, 1), None
#     Edge 297, Type (0, 1), None
#     Edge 298, Type (0, 1), None
#     Edge 299, Type (0, 1), None
#     Edge 300, Type (0, 1), None
#     Edge 301, Type (0, 1), None
#     Edge 302, Type (0, 1), None
#     Edge 303, Type (0, 1), None
#     Edge 304, Type (0, 1), None
#     Edge 305, Type (0, 1), None
#     Edge 306, Type (0, 1), None
#     Edge 307, Type (0, 1), None
#     Edge 308, Type (0, 1), None
#     Edge 309, Type (0, 1), None
#     Edge 310, Type (0, 1), None
#     Edge 311, Type (0, 1), None
#     Edge 312, Type (0, 1), None
#     Edge 313, Type (0, 1), None
#     Edge 314, Type (0, 1), None
#     Edge 315, Type (0, 1), None
#     Edge 316, Type (0, 1), None
#     Edge 317, Type (0, 1), None
#     Edge 318, Type (0, 1), None
#     Edge 319, Type (0, 1), None
#     Edge 320, Type (0, 1), None
#     Edge 321, Type (0, 1), None
#     Edge 322, Type (0, 1), None
#     Edge 323, Type (0, 1), None
#     Edge 324, Type (0, 1), None
#     Edge 325, Type (0, 1), None
#     Edge 326, Type (0, 1), None
#     Edge 327, Type (0, 1), None
#     Edge 328, Type (0, 1), None
#     Edge 329, Type (0, 1), None
#     Edge 330, Type (0, 1), None
#     Edge 331, Type (0, 1), None
#     Edge 332, Type (0, 1), None
#     Edge 333, Type (0, 1), None
#     Edge 334, Type (0, 1), None
#     Edge 335, Type (0, 1), None
#     Edge 336, Type (0, 1), None
#     Edge 337, Type (0, 1), None
#     Edge 338, Type (0, 1), None
#     Edge 339, Type (0, 1), None
#     Edge 340, Type (0, 1), None
#     Edge 341, Type (0, 1), None
#     Edge 342, Type (0, 1), None
#     Edge 343, Type (0, 1), None
#     Edge 344, Type (0, 1), None
#     Edge 345, Type (0, 1), None
#     Edge 346, Type (0, 1), None
#     Edge 347, Type (0, 1), None
#     Edge 348, Type (0, 1), None
#     Edge 349, Type (0, 1), None
#     Edge 350, Type (0, 1), None
#     Edge 351, Type (0, 1), None
#     Edge 352, Type (0, 1), None
#     Edge 353, Type (0, 1), None
#     Edge 354, Type (0, 1), None
#     Edge 355, Type (0, 1), None
#     Edge 356, Type (0, 1), None
#     Edge 357, Type (0, 1), None
#     Edge 358, Type (0, 1), None
#     Edge 359, Type (0, 1), None
#     Edge 360, Type (0, 1), None
#     Edge 361, Type (0, 1), None
#     Edge 362, Type (0, 1), None
#     Edge 363, Type (0, 1), None
#     Edge 364, Type (0, 1), None
#     Edge 365, Type (0, 1), None
#     Edge 366, Type (0, 1), None
#     Edge 367, Type (0, 1), None
#     Edge 368, Type (0, 1), None
#     Edge 369, Type (0, 1), None
#     Edge 370, Type (0, 1), None
#     Edge 371, Type (0, 1), None
#     Edge 372, Type (0, 1), None
#     Edge 373, Type (0, 1), None
#     Edge 374, Type (0, 1), None
#     Edge 375, Type (0, 1), None
#     Edge 376, Type (0, 1), None
#     Edge 377, Type (0, 1), None
#     Edge 378, Type (0, 1), None
#     Edge 379, Type (0, 1), None
#     Edge 380, Type (0, 1), None
#     Edge 381, Type (0, 1), None
#     Edge 382, Type (0, 1), None
#     Edge 383, Type (0, 1), None
#     Edge 384, Type (0, 1), None
#     Edge 385, Type (0, 1), None
#     Edge 386, Type (0, 1), None
#     Edge 387, Type (0, 1), None
#     Edge 388, Type (0, 1), None
#     Edge 389, Type (0, 1), None
#     Edge 390, Type (0, 1), None
#     Edge 391, Type (0, 1), None
#     Edge 392, Type (0, 1), None
#     Edge 393, Type (0, 1), None
#     Edge 394, Type (0, 1), None
#     Edge 395, Type (0, 1), None
#     Edge 396, Type (0, 1), None
#     Edge 397, Type (0, 1), None
#     Edge 398, Type (0, 1), None
#     Edge 399, Type (0, 1), None
#     Edge 400, Type (0, 1), None
#     Edge 401, Type (0, 1), None
#     Edge 402, Type (0, 1), None
#     Edge 403, Type (0, 1), None
#     Edge 404, Type (0, 1), None
#     Edge 405, Type (0, 1), None
#     Edge 406, Type (0, 1), None
#     Edge 407, Type (0, 1), None
#     Edge 408, Type (0, 1), None
#     Edge 409, Type (0, 1), None
#     Edge 410, Type (0, 1), None
#     Edge 411, Type (0, 1), None
#     Edge 412, Type (0, 1), None
#     Edge 413, Type (0, 1), None
#     Edge 414, Type (0, 1), None
#     Edge 415, Type (0, 1), None
#     Edge 416, Type (0, 1), None
#     Edge 417, Type (0, 1), None
#     Edge 418, Type (0, 1), None
#     Edge 419, Type (0, 1), None
#     Edge 420, Type (0, 1), None
#     Edge 421, Type (0, 1), None
#     Edge 422, Type (0, 1), None
#     Edge 423, Type (0, 1), None
#     Edge 424, Type (0, 1), None
#     Edge 425, Type (0, 1), None
#     Edge 426, Type (0, 1), None
#     Edge 427, Type (0, 1), None
#     Edge 428, Type (0, 1), None
#     Edge 429, Type (0, 1), None
#     Edge 430, Type (0, 1), None
#     Edge 431, Type (0, 1), None
#     Edge 432, Type (0, 1), None
#     Edge 433, Type (0, 1), None
#     Edge 434, Type (0, 1), None
#     Edge 435, Type (0, 1), None
#     Edge 436, Type (0, 1), None
#     Edge 437, Type (0, 1), None
#     Edge 438, Type (0, 1), None
#     Edge 439, Type (0, 1), None
#     Edge 440, Type (0, 1), None
#     Edge 441, Type (0, 1), None
#     Edge 442, Type (0, 1), None
#     Edge 443, Type (0, 1), None
#     Edge 444, Type (0, 1), None
#     Edge 445, Type (0, 1), None
#     Edge 446, Type (0, 1), None
#     Edge 447, Type (0, 1), None
#     Edge 448, Type (0, 1), None
#     Edge 449, Type (0, 1), None
#     Edge 450, Type (0, 1), None
#     Edge 451, Type (0, 1), None
#     Edge 452, Type (0, 1), None
#     Edge 453, Type (0, 1), None
#     Edge 454, Type (0, 1), None
#     Edge 455, Type (0, 1), None
#     Edge 456, Type (0, 1), None
#     Edge 457, Type (0, 1), None
#     Edge 458, Type (0, 1), None
#     Edge 459, Type (0, 1), None
#     Edge 460, Type (0, 1), None
#     Edge 461, Type (0, 1), None
#     Edge 462, Type (0, 1), None
#     Edge 463, Type (0, 1), None
#     Edge 464, Type (0, 1), None
#     Edge 465, Type (0, 1), None
#     Edge 466, Type (0, 1), None
#     Edge 467, Type (0, 1), None
#     Edge 468, Type (0, 1), None
#     Edge 469, Type (0, 1), None
#     Edge 470, Type (0, 1), None
#     Edge 471, Type (0, 1), None
#     Edge 472, Type (0, 1), None
#     Edge 473, Type (0, 1), None
#     Edge 474, Type (0, 1), None
#     Edge 475, Type (0, 1), None
#     Edge 476, Type (0, 1), None
#     Edge 477, Type (0, 1), None
#     Edge 478, Type (0, 1), None
#     Edge 479, Type (0, 1), None
# Relax obj value: 0.040
# Max RMSD: 0.082
# Mean RMSD: 0.063
data_MOF--net-ana-f--node1-OLANEW_clean_sbu_2--node2-WUSLED_clean_sbu_0--edge1-none
_symmetry_space_group_name_H-M    P1
_symmetry_Int_Tables_number       1
_symmetry_cell_setting            triclinic
loop_
_symmetry_equiv_pos_as_xyz
'x, y, z'
_cell_length_a     115.0513
_cell_length_b     115.05105
_cell_length_c     115.05495
_cell_angle_alpha  89.985851
_cell_angle_beta   90.004615
_cell_angle_gamma 89.968865
loop_
_atom_site_label
_atom_site_type_symbol
_atom_site_fract_x
_atom_site_fract_y
_atom_site_fract_z
_atom_type_partial_charge
O0 O 0.04829 0.17162 0.40268 0.0
Cd1 Cd 0.03365 0.16285 0.41532 0.0
O2 O 0.05881 0.15722 0.4091 0.0
Cd3 Cd 0.07385 0.14595 0.41208 0.0
O4 O 0.08803 0.13639 0.42029 0.0
C5 C 0.08594 0.13058 0.42945 0.0
O6 O 0.07523 0.13017 0.43341 0.0
C7 C 0.05804 0.16648 0.40308 0.0
C8 C 0.01159 0.16139 0.4056 0.0
O9 O 0.01487 0.17053 0.41107 0.0
O10 O 0.01883 0.15298 0.40458 0.0
O11 O 0.07908 0.7987 0.65237 0.0
Cd12 Cd 0.08746 0.7839 0.6651 0.0
O13 O 0.09349 0.80905 0.65901 0.0
Cd14 Cd 0.10493 0.82391 0.66215 0.0
O15 O 0.11465 0.83797 0.67036 0.0
C16 C 0.1205 0.83584 0.67949 0.0
O17 O 0.12088 0.82513 0.68345 0.0
C18 C 0.08432 0.80839 0.65284 0.0
C19 C 0.08914 0.76191 0.65525 0.0
O20 O 0.07987 0.76518 0.6605 0.0
O21 O 0.09758 0.76913 0.6545 0.0
O22 O 0.45296 0.8294 0.90279 0.0
Cd23 Cd 0.46766 0.83808 0.9154 0.0
O24 O 0.44251 0.8439 0.90909 0.0
Cd25 Cd 0.42752 0.85526 0.91195 0.0
O26 O 0.41331 0.86483 0.92007 0.0
C27 C 0.41537 0.87066 0.92923 0.0
O28 O 0.42606 0.87108 0.93322 0.0
C29 C 0.44324 0.83461 0.90312 0.0
C30 C 0.48967 0.83958 0.90557 0.0
O31 O 0.4864 0.83041 0.911 0.0
O32 O 0.48243 0.84801 0.90465 0.0
O33 O 0.4217 0.20309 0.15147 0.0
Cd34 Cd 0.41344 0.21734 0.16487 0.0
O35 O 0.40782 0.1921 0.1582 0.0
Cd36 Cd 0.39805 0.17633 0.16234 0.0
O37 O 0.38867 0.16225 0.1709 0.0
C38 C 0.38258 0.1645 0.17984 0.0
O39 O 0.38185 0.1753 0.18347 0.0
C40 C 0.41666 0.19328 0.15165 0.0
C41 C 0.41173 0.23959 0.15561 0.0
O42 O 0.42102 0.23618 0.16074 0.0
O43 O 0.40326 0.2324 0.15475 0.0
O44 O 0.04758 0.82966 0.09939 0.0
Cd45 Cd 0.03346 0.83811 0.08597 0.0
O46 O 0.05873 0.84352 0.09289 0.0
Cd47 Cd 0.07465 0.85312 0.08896 0.0
O48 O 0.08887 0.86237 0.08048 0.0
C49 C 0.08667 0.86848 0.07153 0.0
O50 O 0.07587 0.86928 0.0679 0.0
C51 C 0.05742 0.83463 0.09934 0.0
C52 C 0.01115 0.83967 0.09508 0.0
O53 O 0.0146 0.83046 0.08985 0.0
O54 O 0.01832 0.84814 0.09609 0.0
O55 O 0.42211 0.79876 0.34872 0.0
Cd56 Cd 0.41375 0.78394 0.33602 0.0
O57 O 0.40765 0.80909 0.34212 0.0
Cd58 Cd 0.39616 0.82393 0.339 0.0
O59 O 0.38643 0.83799 0.33079 0.0
C60 C 0.38059 0.83587 0.32165 0.0
O61 O 0.38022 0.82516 0.31769 0.0
C62 C 0.41684 0.80845 0.34827 0.0
C63 C 0.41213 0.76196 0.34592 0.0
O64 O 0.42139 0.76524 0.34066 0.0
O65 O 0.40366 0.76918 0.34665 0.0
O66 O 0.45242 0.17212 0.59881 0.0
Cd67 Cd 0.4672 0.16362 0.58616 0.0
O68 O 0.4421 0.1576 0.59238 0.0
Cd69 Cd 0.42722 0.14615 0.58939 0.0
O70 O 0.41313 0.13649 0.58117 0.0
C71 C 0.41528 0.13066 0.57203 0.0
O72 O 0.42601 0.13028 0.56812 0.0
C73 C 0.44274 0.16685 0.59842 0.0
C74 C 0.48918 0.16203 0.59603 0.0
O75 O 0.48591 0.17126 0.5907 0.0
O76 O 0.48196 0.15359 0.59684 0.0
O77 O 0.07796 0.20305 0.84772 0.0
Cd78 Cd 0.08619 0.21783 0.83488 0.0
O79 O 0.0926 0.19281 0.84137 0.0
Cd80 Cd 0.10421 0.178 0.83858 0.0
O81 O 0.11396 0.16382 0.83059 0.0
C82 C 0.1198 0.16587 0.82144 0.0
O83 O 0.12015 0.17654 0.81738 0.0
C84 C 0.08336 0.19343 0.84743 0.0
C85 C 0.08831 0.23972 0.84486 0.0
O86 O 0.0789 0.23659 0.8398 0.0
O87 O 0.09671 0.2324 0.84535 0.0
O88 O 0.40281 0.04826 0.17186 0.0
Cd89 Cd 0.41548 0.03357 0.16322 0.0
O90 O 0.40913 0.05869 0.15736 0.0
Cd91 Cd 0.41199 0.07366 0.14598 0.0
O92 O 0.42012 0.08785 0.13638 0.0
C93 C 0.42929 0.08577 0.13057 0.0
O94 O 0.43327 0.07507 0.13016 0.0
C95 C 0.40314 0.05797 0.16664 0.0
C96 C 0.40565 0.01157 0.16166 0.0
O97 O 0.41105 0.01483 0.17084 0.0
O98 O 0.40476 0.01882 0.15323 0.0
O99 O 0.20316 0.15156 0.42192 0.0
Cd100 Cd 0.21742 0.16495 0.41367 0.0
O101 O 0.19215 0.15828 0.40804 0.0
Cd102 Cd 0.17637 0.16241 0.39828 0.0
O103 O 0.16227 0.17094 0.38888 0.0
C104 C 0.16452 0.17986 0.38274 0.0
O105 O 0.17532 0.18347 0.38199 0.0
C106 C 0.19335 0.15173 0.41689 0.0
C107 C 0.23967 0.15569 0.41191 0.0
O108 O 0.23627 0.1608 0.42121 0.0
O109 O 0.23247 0.15485 0.40345 0.0
O110 O 0.0988 0.95237 0.67195 0.0
Cd111 Cd 0.08609 0.96715 0.66349 0.0
O112 O 0.09219 0.942 0.65754 0.0
Cd113 Cd 0.08907 0.92714 0.6461 0.0
O114 O 0.08085 0.91308 0.63639 0.0
C115 C 0.07172 0.91522 0.63055 0.0
O116 O 0.06776 0.92593 0.63017 0.0
C117 C 0.09834 0.94267 0.66672 0.0
C118 C 0.09589 0.98917 0.66193 0.0
O119 O 0.09058 0.98587 0.67115 0.0
O120 O 0.09672 0.98196 0.65348 0.0
O121 O 0.298 0.84972 0.92166 0.0
Cd122 Cd 0.28372 0.83634 0.91344 0.0
O123 O 0.30901 0.8429 0.90784 0.0
Cd124 Cd 0.3248 0.83867 0.89813 0.0
O125 O 0.33891 0.8301 0.88879 0.0
C126 C 0.33669 0.82115 0.8827 0.0
O127 O 0.32589 0.81752 0.88195 0.0
C128 C 0.30782 0.84949 0.91664 0.0
C129 C 0.26148 0.84564 0.91169 0.0
O130 O 0.26488 0.84053 0.92099 0.0
O131 O 0.26868 0.84645 0.90322 0.0
O132 O 0.40241 0.95241 0.32888 0.0
Cd133 Cd 0.41514 0.96723 0.33719 0.0
O134 O 0.40901 0.9421 0.34335 0.0
Cd135 Cd 0.41211 0.92728 0.35487 0.0
O136 O 0.42031 0.91321 0.3646 0.0
C137 C 0.42945 0.91533 0.37045 0.0
O138 O 0.43341 0.92603 0.37082 0.0
C139 C 0.40285 0.94273 0.33417 0.0
C140 C 0.40522 0.98919 0.3389 0.0
O141 O 0.41043 0.98593 0.32961 0.0
O142 O 0.40454 0.98197 0.34736 0.0
O143 O 0.29804 0.15192 0.57851 0.0
Cd144 Cd 0.28375 0.16537 0.58662 0.0
O145 O 0.30889 0.15857 0.59253 0.0
Cd146 Cd 0.32453 0.16264 0.60253 0.0
O147 O 0.33848 0.17114 0.61215 0.0
C148 C 0.33617 0.1801 0.6182 0.0
O149 O 0.32537 0.18379 0.61874 0.0
C150 C 0.30779 0.15204 0.58367 0.0
C151 C 0.26161 0.15596 0.5888 0.0
O152 O 0.26486 0.16092 0.57937 0.0
O153 O 0.26891 0.15534 0.5972 0.0
O154 O 0.09971 0.04831 0.82947 0.0
Cd155 Cd 0.08633 0.03402 0.83768 0.0
O156 O 0.09306 0.05924 0.84344 0.0
Cd157 Cd 0.08894 0.07497 0.85329 0.0
O158 O 0.08041 0.08905 0.86271 0.0
C159 C 0.07155 0.08677 0.86892 0.0
O160 O 0.068 0.07595 0.86974 0.0
C161 C 0.09956 0.0581 0.83456 0.0
C162 C 0.09559 0.01176 0.83933 0.0
O163 O 0.09047 0.01521 0.83005 0.0
O164 O 0.09643 0.01892 0.84782 0.0
O165 O 0.20373 0.84946 0.07986 0.0
Cd166 Cd 0.21784 0.83607 0.08838 0.0
O167 O 0.19256 0.84295 0.0937 0.0
Cd168 Cd 0.17662 0.839 0.10327 0.0
O169 O 0.1624 0.83049 0.1125 0.0
C170 C 0.16461 0.82153 0.11859 0.0
O171 O 0.17541 0.8179 0.11939 0.0
C172 C 0.19387 0.8494 0.08481 0.0
C173 C 0.24013 0.84521 0.08998 0.0
O174 O 0.23671 0.83995 0.08077 0.0
O175 O 0.23293 0.84624 0.09843 0.0
O176 O 0.17232 0.40248 0.04877 0.0
Cd177 Cd 0.16404 0.41525 0.03396 0.0
O178 O 0.15785 0.40908 0.05907 0.0
Cd179 Cd 0.14632 0.41219 0.07387 0.0
O180 O 0.13655 0.42037 0.08792 0.0
C181 C 0.13068 0.42949 0.08578 0.0
O182 O 0.13031 0.43346 0.07508 0.0
C183 C 0.16703 0.40291 0.05844 0.0
C184 C 0.16232 0.40542 0.01196 0.0
O185 O 0.17162 0.4106 0.01524 0.0
O186 O 0.15387 0.40472 0.01918 0.0
O187 O 0.67184 0.09842 0.9529 0.0
Cd188 Cd 0.66322 0.08577 0.96761 0.0
O189 O 0.65734 0.09206 0.94248 0.0
Cd190 Cd 0.64598 0.08917 0.92751 0.0
O191 O 0.6364 0.08105 0.9133 0.0
C192 C 0.63058 0.07189 0.91537 0.0
O193 O 0.63015 0.0679 0.92606 0.0
C194 C 0.66661 0.09807 0.94319 0.0
C195 C 0.6617 0.09559 0.98962 0.0
O196 O 0.67088 0.09019 0.98634 0.0
O197 O 0.65327 0.09649 0.98239 0.0
O198 O 0.15251 0.42233 0.20234 0.0
Cd199 Cd 0.16527 0.41406 0.21718 0.0
O200 O 0.1591 0.40784 0.19206 0.0
Cd201 Cd 0.1622 0.3963 0.17726 0.0
O202 O 0.17038 0.38654 0.16321 0.0
C203 C 0.17951 0.38067 0.16535 0.0
O204 O 0.18347 0.3803 0.17605 0.0
C205 C 0.15294 0.41702 0.19268 0.0
C206 C 0.15539 0.41236 0.23915 0.0
O207 O 0.16057 0.42166 0.23587 0.0
O208 O 0.15472 0.4039 0.23194 0.0
O209 O 0.82934 0.90275 0.45298 0.0
Cd210 Cd 0.83802 0.91535 0.46769 0.0
O211 O 0.84373 0.90921 0.44249 0.0
Cd212 Cd 0.855 0.91221 0.42746 0.0
O213 O 0.86455 0.92038 0.41326 0.0
C214 C 0.87037 0.92954 0.41532 0.0
O215 O 0.87081 0.93351 0.42602 0.0
C216 C 0.83449 0.90317 0.44323 0.0
C217 C 0.83955 0.9055 0.48969 0.0
O218 O 0.83038 0.91093 0.48643 0.0
O219 O 0.84797 0.90459 0.48245 0.0
O220 O 0.84775 0.0783 0.20303 0.0
Cd221 Cd 0.83497 0.08672 0.21776 0.0
O222 O 0.84142 0.0929 0.19273 0.0
Cd223 Cd 0.83863 0.10443 0.17787 0.0
O224 O 0.8306 0.11415 0.16369 0.0
C225 C 0.82142 0.11996 0.16574 0.0
O226 O 0.81737 0.1203 0.17641 0.0
C227 C 0.84745 0.08364 0.19338 0.0
C228 C 0.84494 0.08878 0.23966 0.0
O229 O 0.83976 0.07942 0.23654 0.0
O230 O 0.84555 0.09714 0.23232 0.0
O231 O 0.32892 0.59891 0.54866 0.0
Cd232 Cd 0.33747 0.58627 0.53389 0.0
O233 O 0.34344 0.59247 0.55901 0.0
Cd234 Cd 0.35488 0.58946 0.5739 0.0
O235 O 0.36456 0.58123 0.58799 0.0
C236 C 0.3704 0.5721 0.58582 0.0
O237 O 0.37077 0.56819 0.5751 0.0
C238 C 0.33417 0.59851 0.55835 0.0
C239 C 0.33909 0.59615 0.51191 0.0
O240 O 0.32986 0.59082 0.51516 0.0
O241 O 0.34752 0.59696 0.51915 0.0
O242 O 0.15247 0.5787 0.29881 0.0
Cd243 Cd 0.16519 0.58709 0.28402 0.0
O244 O 0.15886 0.59329 0.30908 0.0
Cd245 Cd 0.16181 0.60483 0.32391 0.0
O246 O 0.17 0.61456 0.33797 0.0
C247 C 0.17912 0.62041 0.33579 0.0
O248 O 0.18303 0.62077 0.32507 0.0
C249 C 0.15282 0.58403 0.30847 0.0
C250 C 0.15532 0.58876 0.26204 0.0
O251 O 0.16057 0.57949 0.26532 0.0
O252 O 0.15458 0.59721 0.26927 0.0
O253 O 0.34938 0.42122 0.7974 0.0
Cd254 Cd 0.33601 0.41266 0.78332 0.0
O255 O 0.34297 0.40734 0.8086 0.0
Cd256 Cd 0.33909 0.39776 0.82455 0.0
O257 O 0.33063 0.38855 0.8388 0.0
C258 C 0.32166 0.38247 0.83663 0.0
O259 O 0.318 0.38168 0.82584 0.0
C260 C 0.34937 0.41627 0.80726 0.0
C261 C 0.34517 0.41109 0.76103 0.0
O262 O 0.33988 0.42028 0.76445 0.0
O263 O 0.34622 0.40264 0.76823 0.0
O264 O 0.94503 0.83898 0.599 0.0
Cd265 Cd 0.95979 0.84715 0.58597 0.0
O266 O 0.9338 0.85447 0.59808 0.0
Cd267 Cd 0.94188 0.86377 0.58368 0.0
O268 O 0.9305 0.87225 0.57098 0.0
C269 C 0.92074 0.87504 0.57536 0.0
O270 O 0.91909 0.87324 0.58652 0.0
C271 C 0.93601 0.84448 0.60225 0.0
C272 C 0.98236 0.84514 0.59491 0.0
O273 O 0.97625 0.8543 0.59667 0.0
O274 O 0.97779 0.83691 0.58895 0.0
O275 O 0.91211 0.19501 0.34915 0.0
Cd276 Cd 0.90397 0.20982 0.33615 0.0
O277 O 0.8967 0.1837 0.34802 0.0
Cd278 Cd 0.88744 0.19183 0.33361 0.0
O279 O 0.87897 0.18053 0.32083 0.0
C280 C 0.87628 0.17071 0.32514 0.0
O281 O 0.87816 0.16898 0.33628 0.0
C282 C 0.90665 0.18594 0.35229 0.0
C283 C 0.90599 0.23237 0.34512 0.0
O284 O 0.89683 0.22627 0.34688 0.0
O285 O 0.91421 0.22779 0.33916 0.0
O286 O 0.55626 0.16173 0.09945 0.0
Cd287 Cd 0.54152 0.15337 0.08653 0.0
O288 O 0.56763 0.14636 0.09843 0.0
Cd289 Cd 0.55953 0.137 0.08407 0.0
O290 O 0.57089 0.12861 0.07129 0.0
C291 C 0.58071 0.12594 0.07561 0.0
O292 O 0.58243 0.12778 0.08675 0.0
C293 C 0.56536 0.15632 0.10263 0.0
C294 C 0.51892 0.15558 0.09532 0.0
O295 O 0.525 0.14646 0.09731 0.0
O296 O 0.52352 0.16368 0.08922 0.0
O297 O 0.58949 0.80634 0.84915 0.0
Cd298 Cd 0.59793 0.7916 0.83628 0.0
O299 O 0.60495 0.81761 0.84837 0.0
Cd300 Cd 0.61435 0.80951 0.83404 0.0
O301 O 0.62275 0.82087 0.82127 0.0
C302 C 0.6254 0.83069 0.82559 0.0
O303 O 0.62352 0.83241 0.83673 0.0
C304 C 0.59493 0.81539 0.85244 0.0
C305 C 0.59574 0.76902 0.84512 0.0
O306 O 0.60485 0.77512 0.84711 0.0
O307 O 0.58764 0.77361 0.83899 0.0
O308 O 0.94465 0.16171 0.90216 0.0
Cd309 Cd 0.95944 0.15363 0.91521 0.0
O310 O 0.93344 0.14621 0.90309 0.0
Cd311 Cd 0.94152 0.13694 0.91752 0.0
O312 O 0.93016 0.12843 0.93022 0.0
C313 C 0.92043 0.12557 0.92583 0.0
O314 O 0.91879 0.1273 0.91465 0.0
C315 C 0.93563 0.15619 0.8989 0.0
C316 C 0.98198 0.15585 0.90629 0.0
O317 O 0.97596 0.14664 0.90451 0.0
O318 O 0.97734 0.16402 0.91226 0.0
O319 O 0.58927 0.19497 0.65182 0.0
Cd320 Cd 0.59773 0.2097 0.66468 0.0
O321 O 0.60464 0.18357 0.65278 0.0
Cd322 Cd 0.6141 0.19168 0.66706 0.0
O323 O 0.62257 0.18032 0.67979 0.0
C324 C 0.62522 0.1705 0.67546 0.0
O325 O 0.62331 0.16879 0.66433 0.0
C326 C 0.59465 0.18585 0.64863 0.0
C327 C 0.59554 0.2323 0.65586 0.0
O328 O 0.60464 0.22618 0.65384 0.0
O329 O 0.58746 0.22772 0.662 0.0
O330 O 0.55616 0.83899 0.40182 0.0
Cd331 Cd 0.5414 0.84709 0.41489 0.0
O332 O 0.56748 0.85439 0.40299 0.0
Cd333 Cd 0.55938 0.86361 0.41744 0.0
O334 O 0.57064 0.8721 0.43024 0.0
C335 C 0.58043 0.87487 0.42592 0.0
O336 O 0.58216 0.87304 0.41478 0.0
C337 C 0.56523 0.84446 0.39868 0.0
C338 C 0.51882 0.84511 0.40598 0.0
O339 O 0.52491 0.85428 0.40424 0.0
O340 O 0.52341 0.83686 0.4119 0.0
O341 O 0.9116 0.80606 0.15166 0.0
Cd342 Cd 0.90333 0.79134 0.16467 0.0
O343 O 0.89618 0.81738 0.15271 0.0
Cd344 Cd 0.88692 0.8093 0.16713 0.0
O345 O 0.87853 0.82067 0.1799 0.0
C346 C 0.87584 0.83048 0.17556 0.0
O347 O 0.87768 0.83218 0.16442 0.0
C348 C 0.90614 0.81513 0.14847 0.0
C349 C 0.9055 0.76872 0.15591 0.0
O350 O 0.89636 0.7748 0.15396 0.0
O351 O 0.91363 0.77334 0.16196 0.0
O352 O 0.59942 0.94496 0.83939 0.0
Cd353 Cd 0.5865 0.95971 0.84776 0.0
O354 O 0.59842 0.9336 0.85477 0.0
Cd355 Cd 0.58407 0.9417 0.86413 0.0
O356 O 0.57129 0.93036 0.87254 0.0
C357 C 0.57562 0.92054 0.87523 0.0
O358 O 0.58676 0.91882 0.87339 0.0
C359 C 0.60261 0.93586 0.8448 0.0
C360 C 0.59529 0.9823 0.84554 0.0
O361 O 0.59729 0.97622 0.85467 0.0
O362 O 0.58919 0.97769 0.83745 0.0
O363 O 0.80654 0.84887 0.5893 0.0
Cd364 Cd 0.79173 0.83594 0.59752 0.0
O365 O 0.81776 0.84807 0.6048 0.0
Cd366 Cd 0.80967 0.83374 0.6142 0.0
O367 O 0.82104 0.82105 0.62272 0.0
C368 C 0.8308 0.82543 0.62553 0.0
O369 O 0.83245 0.83659 0.62373 0.0
C370 C 0.81556 0.85216 0.59478 0.0
C371 C 0.76921 0.84492 0.59529 0.0
O372 O 0.77526 0.84676 0.60447 0.0
O373 O 0.77381 0.83887 0.58715 0.0
O374 O 0.9018 0.05643 0.33899 0.0
Cd375 Cd 0.91461 0.04159 0.3474 0.0
O376 O 0.90293 0.0678 0.35435 0.0
Cd377 Cd 0.91714 0.05955 0.3638 0.0
O378 O 0.92987 0.07084 0.37234 0.0
C379 C 0.92553 0.08063 0.3751 0.0
O380 O 0.91438 0.08235 0.37324 0.0
C381 C 0.89872 0.06556 0.34438 0.0
C382 C 0.90571 0.01904 0.34524 0.0
O383 O 0.90373 0.02515 0.35434 0.0
O384 O 0.91185 0.0236 0.33713 0.0
O385 O 0.69496 0.15192 0.08941 0.0
Cd386 Cd 0.70969 0.16481 0.09782 0.0
O387 O 0.68364 0.15282 0.10483 0.0
Cd388 Cd 0.69175 0.16714 0.11422 0.0
O389 O 0.68038 0.1799 0.12264 0.0
C390 C 0.67056 0.17557 0.1253 0.0
O391 O 0.66886 0.16443 0.12342 0.0
C392 C 0.68589 0.14868 0.09483 0.0
C393 C 0.73229 0.15598 0.09566 0.0
O394 O 0.72618 0.15399 0.10477 0.0
O395 O 0.7277 0.1621 0.08756 0.0
O396 O 0.59938 0.05627 0.66156 0.0
Cd397 Cd 0.58645 0.04153 0.65321 0.0
O398 O 0.59815 0.06775 0.64628 0.0
Cd399 Cd 0.58378 0.05965 0.63695 0.0
O400 O 0.57094 0.07098 0.6286 0.0
C401 C 0.57525 0.08078 0.62582 0.0
O402 O 0.58641 0.08249 0.62756 0.0
C403 C 0.60246 0.06542 0.65619 0.0
C404 C 0.59525 0.01893 0.65539 0.0
O405 O 0.59724 0.02503 0.64627 0.0
O406 O 0.58916 0.02353 0.6635 0.0
O407 O 0.6946 0.84906 0.41229 0.0
Cd408 Cd 0.70951 0.83622 0.40408 0.0
O409 O 0.68323 0.84786 0.39692 0.0
Cd410 Cd 0.69147 0.83365 0.38746 0.0
O411 O 0.68018 0.82103 0.37876 0.0
C412 C 0.67046 0.82544 0.37586 0.0
O413 O 0.66879 0.83659 0.37768 0.0
C414 C 0.68546 0.85212 0.40686 0.0
C415 C 0.732 0.84528 0.40627 0.0
O416 O 0.72592 0.8471 0.39711 0.0
O417 O 0.72743 0.83921 0.41443 0.0
O418 O 0.90214 0.94466 0.16196 0.0
Cd419 Cd 0.91509 0.95945 0.15374 0.0
O420 O 0.9028 0.93354 0.14638 0.0
Cd421 Cd 0.91713 0.94163 0.13699 0.0
O422 O 0.92975 0.93023 0.12842 0.0
C423 C 0.92534 0.92046 0.12569 0.0
O424 O 0.91419 0.91883 0.12759 0.0
C425 C 0.89877 0.93569 0.15644 0.0
C426 C 0.90613 0.98199 0.15593 0.0
O427 O 0.9043 0.97593 0.14676 0.0
O428 O 0.91217 0.97739 0.16409 0.0
O429 O 0.80622 0.15199 0.91208 0.0
Cd430 Cd 0.79143 0.165 0.90393 0.0
O431 O 0.81744 0.15288 0.89658 0.0
Cd432 Cd 0.80934 0.16723 0.88722 0.0
O433 O 0.8207 0.17985 0.87861 0.0
C434 C 0.83043 0.17542 0.87578 0.0
O435 O 0.83206 0.16426 0.87762 0.0
C436 C 0.81524 0.14872 0.90658 0.0
C437 C 0.76888 0.15608 0.9061 0.0
O438 O 0.77493 0.15427 0.89692 0.0
O439 O 0.77349 0.16208 0.91428 0.0
O440 O 0.83916 0.59884 0.94473 0.0
Cd441 Cd 0.84742 0.58592 0.95954 0.0
O442 O 0.85475 0.59822 0.93362 0.0
Cd443 Cd 0.86418 0.58392 0.94173 0.0
O444 O 0.87276 0.5713 0.93034 0.0
C445 C 0.87551 0.57572 0.92058 0.0
O446 O 0.87362 0.58687 0.91894 0.0
C447 C 0.84468 0.60222 0.93576 0.0
C448 C 0.84524 0.59492 0.98206 0.0
O449 O 0.8544 0.59675 0.97598 0.0
O450 O 0.83709 0.58886 0.97748 0.0
O451 O 0.3396 0.90168 0.05625 0.0
Cd452 Cd 0.34785 0.91462 0.04146 0.0
O453 O 0.35502 0.90276 0.06755 0.0
Cd454 Cd 0.3643 0.91714 0.05941 0.0
O455 O 0.37266 0.92992 0.07079 0.0
C456 C 0.37532 0.92559 0.08062 0.0
O457 O 0.37349 0.91445 0.08232 0.0
C458 C 0.34506 0.89853 0.06533 0.0
C459 C 0.34559 0.90583 0.01887 0.0
O460 O 0.35475 0.90386 0.02492 0.0
O461 O 0.33748 0.9119 0.02351 0.0
O462 O 0.84952 0.58954 0.80617 0.0
Cd463 Cd 0.8365 0.59778 0.79143 0.0
O464 O 0.84841 0.60494 0.8175 0.0
Cd465 Cd 0.83398 0.6142 0.8094 0.0
O466 O 0.82118 0.62256 0.82076 0.0
C467 C 0.82551 0.6253 0.83055 0.0
O468 O 0.83667 0.62353 0.83224 0.0
C469 C 0.85267 0.595 0.81525 0.0
C470 C 0.84525 0.59555 0.76882 0.0
O471 O 0.8472 0.60471 0.77486 0.0
O472 O 0.83921 0.58743 0.77347 0.0
O473 O 0.16206 0.09934 0.55656 0.0
Cd474 Cd 0.15368 0.08649 0.54177 0.0
O475 O 0.1468 0.09806 0.56805 0.0
Cd476 Cd 0.1374 0.08379 0.55987 0.0
O477 O 0.1289 0.07099 0.57112 0.0
C478 C 0.12607 0.07531 0.5809 0.0
O479 O 0.12783 0.08646 0.58263 0.0
C480 C 0.15671 0.10237 0.56574 0.0
C481 C 0.15585 0.09535 0.5192 0.0
O482 O 0.14674 0.09733 0.5253 0.0
O483 O 0.16395 0.08923 0.52378 0.0
O484 O 0.15201 0.91218 0.8061 0.0
Cd485 Cd 0.16507 0.90403 0.79136 0.0
O486 O 0.15299 0.89672 0.81737 0.0
Cd487 Cd 0.16741 0.88743 0.8093 0.0
O488 O 0.18013 0.87892 0.82065 0.0
C489 C 0.17574 0.87611 0.8304 0.0
O490 O 0.16458 0.87792 0.83206 0.0
C491 C 0.14878 0.90669 0.81514 0.0
C492 C 0.15617 0.90601 0.76878 0.0
O493 O 0.15441 0.89685 0.77489 0.0
O494 O 0.1621 0.91425 0.77336 0.0
O495 O 0.66212 0.40214 0.44485 0.0
Cd496 Cd 0.65388 0.41509 0.45963 0.0
O497 O 0.64677 0.40317 0.43345 0.0
Cd498 Cd 0.63732 0.41749 0.44153 0.0
O499 O 0.62871 0.43016 0.43021 0.0
C500 C 0.6258 0.42575 0.42049 0.0
O501 O 0.62754 0.41458 0.41886 0.0
C502 C 0.65672 0.39896 0.43574 0.0
C503 C 0.65606 0.40614 0.48217 0.0
O504 O 0.6469 0.4043 0.4761 0.0
O505 O 0.66421 0.41218 0.47758 0.0
O506 O 0.84945 0.4115 0.6947 0.0
Cd507 Cd 0.83656 0.40316 0.70948 0.0
O508 O 0.84825 0.3962 0.68323 0.0
Cd509 Cd 0.83396 0.38679 0.69137 0.0
O510 O 0.82121 0.37831 0.68004 0.0
C511 C 0.82556 0.37551 0.67027 0.0
O512 O 0.83672 0.37729 0.66858 0.0
C513 C 0.85253 0.40612 0.68554 0.0
C514 C 0.84531 0.40557 0.73208 0.0
O515 O 0.84737 0.39642 0.72606 0.0
O516 O 0.83916 0.4136 0.72741 0.0
O517 O 0.6519 0.58875 0.19463 0.0
Cd518 Cd 0.66484 0.59685 0.2095 0.0
O519 O 0.65351 0.60395 0.18308 0.0
Cd520 Cd 0.66778 0.6133 0.19132 0.0
O521 O 0.6805 0.62204 0.18016 0.0
C522 C 0.67611 0.6251 0.17048 0.0
O523 O 0.66494 0.62339 0.1688 0.0
C524 C 0.64902 0.59413 0.1854 0.0
C525 C 0.65581 0.59472 0.23202 0.0
O526 O 0.65404 0.6039 0.22595 0.0
O527 O 0.66181 0.58653 0.22744 0.0
O528 O 0.54797 0.67276 0.90223 0.0
Cd529 Cd 0.53367 0.66477 0.91575 0.0
O530 O 0.55885 0.6588 0.909 0.0
Cd531 Cd 0.57455 0.64891 0.91311 0.0
O532 O 0.58866 0.63944 0.92155 0.0
C533 C 0.58646 0.63336 0.93052 0.0
O534 O 0.57568 0.6327 0.93424 0.0
C535 C 0.55772 0.66761 0.90239 0.0
C536 C 0.51152 0.66255 0.90638 0.0
O537 O 0.51478 0.67201 0.91127 0.0
O538 O 0.51881 0.65414 0.90581 0.0
O539 O 0.57969 0.29822 0.15129 0.0
Cd540 Cd 0.58797 0.28393 0.16463 0.0
O541 O 0.59358 0.3092 0.15801 0.0
Cd542 Cd 0.60334 0.32496 0.16219 0.0
O543 O 0.61272 0.33903 0.17076 0.0
C544 C 0.61891 0.33675 0.17963 0.0
O545 O 0.61974 0.32592 0.18317 0.0
C546 C 0.58472 0.30803 0.15149 0.0
C547 C 0.5896 0.26168 0.15536 0.0
O548 O 0.58034 0.26511 0.16052 0.0
O549 O 0.59808 0.26885 0.15448 0.0
O550 O 0.9525 0.32901 0.40237 0.0
Cd551 Cd 0.96735 0.33733 0.41507 0.0
O552 O 0.94219 0.34345 0.40902 0.0
Cd553 Cd 0.92735 0.35494 0.41217 0.0
O554 O 0.91328 0.36466 0.42037 0.0
C555 C 0.9154 0.37053 0.42949 0.0
O556 O 0.92611 0.37091 0.43345 0.0
C557 C 0.94281 0.33428 0.40285 0.0
C558 C 0.98931 0.33902 0.40514 0.0
O559 O 0.98605 0.32973 0.41037 0.0
O560 O 0.98208 0.34747 0.40445 0.0
O561 O 0.92193 0.70284 0.65297 0.0
Cd562 Cd 0.91339 0.71758 0.66566 0.0
O563 O 0.90735 0.69248 0.65923 0.0
Cd564 Cd 0.8959 0.67756 0.66202 0.0
O565 O 0.88629 0.66334 0.67009 0.0
C566 C 0.88044 0.66539 0.67925 0.0
O567 O 0.88001 0.67608 0.68325 0.0
C568 C 0.91665 0.69316 0.65326 0.0
C569 C 0.91187 0.73959 0.65584 0.0
O570 O 0.92107 0.73629 0.66119 0.0
O571 O 0.90342 0.73238 0.65499 0.0
O572 O 0.5481 0.32943 0.59959 0.0
Cd573 Cd 0.53384 0.33767 0.58618 0.0
O574 O 0.55906 0.34335 0.5929 0.0
Cd575 Cd 0.57481 0.35316 0.58879 0.0
O576 O 0.58889 0.36256 0.58025 0.0
C577 C 0.58664 0.36865 0.57131 0.0
O578 O 0.57583 0.36936 0.56767 0.0
C579 C 0.55789 0.3345 0.59944 0.0
C580 C 0.51161 0.3394 0.59547 0.0
O581 O 0.51501 0.33011 0.59035 0.0
O582 O 0.5188 0.34787 0.59629 0.0
O583 O 0.92163 0.29741 0.84937 0.0
Cd584 Cd 0.91319 0.28329 0.83596 0.0
O585 O 0.90776 0.30856 0.84288 0.0
Cd586 Cd 0.89813 0.32449 0.83895 0.0
O587 O 0.88885 0.33871 0.83048 0.0
C588 C 0.88273 0.3365 0.82154 0.0
O589 O 0.88193 0.32571 0.81792 0.0
C590 C 0.91666 0.30726 0.84932 0.0
C591 C 0.9115 0.26101 0.84514 0.0
O592 O 0.92075 0.26441 0.83994 0.0
O593 O 0.90306 0.26822 0.84609 0.0
O594 O 0.95303 0.67151 0.09995 0.0
Cd595 Cd 0.96736 0.66327 0.08661 0.0
O596 O 0.94206 0.65764 0.09316 0.0
Cd597 Cd 0.9263 0.6479 0.08893 0.0
O598 O 0.9122 0.63856 0.08036 0.0
C599 C 0.91446 0.63234 0.0715 0.0
O600 O 0.92528 0.63148 0.06796 0.0
C601 C 0.94322 0.66648 0.09971 0.0
C602 C 0.9896 0.6616 0.09589 0.0
O603 O 0.98618 0.67089 0.09076 0.0
O604 O 0.98243 0.65312 0.09674 0.0
O605 O 0.57945 0.70304 0.34956 0.0
Cd606 Cd 0.58769 0.71728 0.33614 0.0
O607 O 0.59331 0.69203 0.34282 0.0
Cd608 Cd 0.60307 0.67625 0.33866 0.0
O609 O 0.61244 0.66215 0.33011 0.0
C610 C 0.61852 0.66439 0.32116 0.0
O611 O 0.61924 0.67519 0.31751 0.0
C612 C 0.58448 0.69323 0.34938 0.0
C613 C 0.58941 0.73956 0.34533 0.0
O614 O 0.58012 0.73614 0.34021 0.0
O615 O 0.59788 0.73236 0.3462 0.0
O616 O 0.90138 0.54792 0.67172 0.0
Cd617 Cd 0.91478 0.53362 0.66353 0.0
O618 O 0.90815 0.5589 0.65784 0.0
Cd619 Cd 0.91233 0.57466 0.64808 0.0
O620 O 0.92087 0.58878 0.63873 0.0
C621 C 0.92981 0.58655 0.63261 0.0
O622 O 0.93344 0.57575 0.63185 0.0
C623 C 0.90158 0.55773 0.66666 0.0
C624 C 0.90549 0.5114 0.66175 0.0
O625 O 0.91057 0.51479 0.67107 0.0
O626 O 0.90469 0.5186 0.65328 0.0
O627 O 0.70283 0.6527 0.92172 0.0
Cd628 Cd 0.71756 0.66531 0.91308 0.0
O629 O 0.69244 0.65894 0.90715 0.0
Cd630 Cd 0.67749 0.66176 0.89574 0.0
O631 O 0.66327 0.6699 0.88617 0.0
C632 C 0.66535 0.67898 0.88023 0.0
O633 O 0.67606 0.68288 0.87968 0.0
C634 C 0.69313 0.65301 0.91647 0.0
C635 C 0.73956 0.65544 0.91158 0.0
O636 O 0.73629 0.66085 0.92075 0.0
O637 O 0.73234 0.65455 0.90314 0.0
O638 O 0.59773 0.453 0.17302 0.0
Cd639 Cd 0.5849 0.46773 0.16468 0.0
O640 O 0.59139 0.44271 0.15843 0.0
Cd641 Cd 0.58859 0.42786 0.14688 0.0
O642 O 0.58058 0.4137 0.13715 0.0
C643 C 0.57142 0.41575 0.13132 0.0
O644 O 0.56736 0.42642 0.13098 0.0
C645 C 0.59744 0.44336 0.16767 0.0
C646 C 0.5948 0.48966 0.16259 0.0
O647 O 0.58968 0.48652 0.17198 0.0
O648 O 0.59539 0.48233 0.15422 0.0
O649 O 0.79882 0.34869 0.42241 0.0
Cd650 Cd 0.78397 0.33592 0.4142 0.0
O651 O 0.80908 0.34209 0.40792 0.0
Cd652 Cd 0.82387 0.33899 0.39637 0.0
O653 O 0.83795 0.33082 0.38663 0.0
C654 C 0.83583 0.3217 0.38076 0.0
O655 O 0.82513 0.31773 0.38038 0.0
C656 C 0.80847 0.34826 0.41709 0.0
C657 C 0.762 0.34582 0.41247 0.0
O658 O 0.76528 0.34066 0.42179 0.0
O659 O 0.76921 0.34646 0.404 0.0
O660 O 0.90178 0.45355 0.82973 0.0
Cd661 Cd 0.9152 0.46766 0.83817 0.0
O662 O 0.90833 0.44238 0.84357 0.0
Cd663 Cd 0.91231 0.42645 0.85316 0.0
O664 O 0.92082 0.41224 0.8624 0.0
C665 C 0.92978 0.41444 0.86849 0.0
O666 O 0.93341 0.42524 0.86928 0.0
C667 C 0.90185 0.4437 0.83469 0.0
C668 C 0.90607 0.48997 0.83974 0.0
O669 O 0.91129 0.48653 0.83052 0.0
O670 O 0.90507 0.4828 0.84821 0.0
O671 O 0.79813 0.65349 0.07814 0.0
Cd672 Cd 0.78338 0.66631 0.08646 0.0
O673 O 0.8084 0.65982 0.09276 0.0
Cd674 Cd 0.82325 0.66259 0.10432 0.0
O675 O 0.83744 0.67057 0.11403 0.0
C676 C 0.83541 0.67973 0.11987 0.0
O677 O 0.82474 0.68381 0.12023 0.0
C678 C 0.80777 0.65378 0.08351 0.0
C679 C 0.76146 0.65638 0.08851 0.0
O680 O 0.76461 0.66151 0.07913 0.0
O681 O 0.76877 0.6558 0.0969 0.0
O682 O 0.5983 0.54814 0.32914 0.0
Cd683 Cd 0.58564 0.53339 0.33768 0.0
O684 O 0.59197 0.55853 0.34367 0.0
Cd685 Cd 0.58911 0.57348 0.35507 0.0
O686 O 0.58101 0.5877 0.36467 0.0
C687 C 0.57188 0.58565 0.37053 0.0
O688 O 0.5679 0.57496 0.371 0.0
C689 C 0.59797 0.55783 0.33439 0.0
C690 C 0.59549 0.51139 0.33924 0.0
O691 O 0.59014 0.51467 0.33003 0.0
O692 O 0.59632 0.51861 0.34769 0.0
O693 O 0.70286 0.34828 0.5791 0.0
Cd694 Cd 0.71758 0.33557 0.58764 0.0
O695 O 0.69248 0.34196 0.59364 0.0
Cd696 Cd 0.67755 0.33912 0.60508 0.0
O697 O 0.66337 0.33102 0.6147 0.0
C698 C 0.66544 0.32186 0.62054 0.0
O699 O 0.67613 0.31786 0.62095 0.0
C700 C 0.69317 0.34797 0.58437 0.0
C701 C 0.73959 0.34538 0.58921 0.0
O702 O 0.73631 0.34004 0.58 0.0
O703 O 0.73237 0.34622 0.59765 0.0
O704 O 0.67286 0.90331 0.54807 0.0
Cd705 Cd 0.66445 0.91609 0.53333 0.0
O706 O 0.65831 0.90971 0.55839 0.0
Cd707 Cd 0.64682 0.91257 0.57327 0.0
O708 O 0.63713 0.92062 0.58744 0.0
C709 C 0.63131 0.92979 0.58538 0.0
O710 O 0.63096 0.93384 0.57471 0.0
C711 C 0.66755 0.90365 0.55773 0.0
C712 C 0.66238 0.90611 0.51143 0.0
O713 O 0.67175 0.91128 0.51455 0.0
O714 O 0.65402 0.90552 0.51877 0.0
O715 O 0.17297 0.59905 0.45301 0.0
Cd716 Cd 0.16498 0.58555 0.46732 0.0
O717 O 0.15886 0.59245 0.44222 0.0
Cd718 Cd 0.14876 0.58844 0.42663 0.0
O719 O 0.13906 0.57999 0.4127 0.0
C720 C 0.13297 0.57106 0.41503 0.0
O721 O 0.13244 0.56739 0.42583 0.0
C722 C 0.16774 0.59897 0.44329 0.0
C723 C 0.16275 0.59498 0.48945 0.0
O724 O 0.17222 0.59008 0.4862 0.0
O725 O 0.15434 0.59552 0.48216 0.0
O726 O 0.65127 0.92157 0.70289 0.0
Cd727 Cd 0.6646 0.91325 0.71717 0.0
O728 O 0.65799 0.90768 0.6919 0.0
Cd729 Cd 0.66217 0.89793 0.67613 0.0
O730 O 0.67075 0.88855 0.66206 0.0
C731 C 0.67963 0.88236 0.66434 0.0
O732 O 0.68316 0.88153 0.67517 0.0
C733 C 0.65146 0.91654 0.69307 0.0
C734 C 0.65535 0.91162 0.73942 0.0
O735 O 0.66051 0.92088 0.736 0.0
O736 O 0.65445 0.90315 0.73225 0.0
O737 O 0.33012 0.4018 0.95361 0.0
Cd738 Cd 0.33864 0.41518 0.96772 0.0
O739 O 0.34394 0.40832 0.94242 0.0
Cd740 Cd 0.35348 0.41228 0.92646 0.0
O741 O 0.36265 0.42079 0.91221 0.0
C742 C 0.36871 0.42978 0.91438 0.0
O743 O 0.3695 0.43344 0.92516 0.0
C744 C 0.33505 0.40187 0.94375 0.0
C745 C 0.34017 0.40601 0.99001 0.0
O746 O 0.33098 0.4113 0.98657 0.0
O747 O 0.34864 0.40498 0.98284 0.0
O748 O 0.34905 0.57844 0.70302 0.0
Cd749 Cd 0.33555 0.58647 0.71731 0.0
O750 O 0.34237 0.59246 0.69217 0.0
Cd751 Cd 0.33828 0.60248 0.67654 0.0
O752 O 0.32978 0.61212 0.66259 0.0
C753 C 0.32082 0.61818 0.66489 0.0
O754 O 0.31713 0.61871 0.67569 0.0
C755 C 0.34892 0.58361 0.69327 0.0
C756 C 0.34494 0.58867 0.73945 0.0
O757 O 0.34003 0.57922 0.73619 0.0
O758 O 0.34552 0.59708 0.73216 0.0
O759 O 0.8294 0.09979 0.04825 0.0
Cd760 Cd 0.8376 0.0864 0.03395 0.0
O761 O 0.84334 0.09308 0.0592 0.0
Cd762 Cd 0.85315 0.08893 0.07494 0.0
O763 O 0.86256 0.08039 0.08902 0.0
C764 C 0.86877 0.07153 0.08676 0.0
O765 O 0.86962 0.06799 0.07593 0.0
C766 C 0.83447 0.09961 0.05804 0.0
C767 C 0.83928 0.09566 0.0117 0.0
O768 O 0.82998 0.09056 0.01513 0.0
O769 O 0.84777 0.09648 0.01887 0.0
O770 O 0.65147 0.07942 0.79797 0.0
Cd771 Cd 0.66485 0.08766 0.78368 0.0
O772 O 0.65823 0.09329 0.80895 0.0
Cd773 Cd 0.66241 0.10304 0.82472 0.0
O774 O 0.67094 0.11242 0.83883 0.0
C775 C 0.67987 0.11853 0.83659 0.0
O776 O 0.68351 0.11927 0.82579 0.0
C777 C 0.65168 0.08446 0.80778 0.0
C778 C 0.65556 0.08939 0.76145 0.0
O779 O 0.66068 0.08009 0.76485 0.0
O780 O 0.65472 0.09786 0.76864 0.0
O781 O 0.84965 0.92167 0.29801 0.0
Cd782 Cd 0.8363 0.91338 0.28373 0.0
O783 O 0.84283 0.90787 0.30905 0.0
Cd784 Cd 0.83859 0.8982 0.32485 0.0
O785 O 0.83001 0.88887 0.33896 0.0
C786 C 0.82106 0.88278 0.33672 0.0
O787 O 0.81744 0.88203 0.32592 0.0
C788 C 0.84941 0.91669 0.30785 0.0
C789 C 0.84562 0.91164 0.26152 0.0
O790 O 0.84047 0.92094 0.2649 0.0
O791 O 0.84646 0.90318 0.26872 0.0
O792 O 0.44503 0.33934 0.09947 0.0
Cd793 Cd 0.45976 0.34775 0.08656 0.0
O794 O 0.43386 0.35488 0.09877 0.0
Cd795 Cd 0.44198 0.36427 0.08446 0.0
O796 O 0.43057 0.37271 0.07175 0.0
C797 C 0.42072 0.37526 0.07609 0.0
O798 O 0.41901 0.37326 0.0872 0.0
C799 C 0.43602 0.34482 0.1028 0.0
C800 C 0.48237 0.34561 0.09535 0.0
O801 O 0.47625 0.35471 0.09735 0.0
O802 O 0.47778 0.3375 0.08924 0.0
O803 O 0.41238 0.6947 0.84935 0.0
Cd804 Cd 0.40433 0.70957 0.83636 0.0
O805 O 0.39722 0.68313 0.84763 0.0
Cd806 Cd 0.38792 0.69138 0.83331 0.0
O807 O 0.37916 0.68027 0.82056 0.0
C808 C 0.37602 0.67062 0.82494 0.0
O809 O 0.37766 0.66894 0.83612 0.0
C810 C 0.40701 0.68546 0.85218 0.0
C811 C 0.40645 0.73209 0.84538 0.0
O812 O 0.39726 0.72603 0.84713 0.0
O813 O 0.41465 0.72749 0.83941 0.0
O814 O 0.05632 0.66209 0.59922 0.0
Cd815 Cd 0.04145 0.65393 0.58631 0.0
O816 O 0.06795 0.64696 0.59759 0.0
Cd817 Cd 0.05977 0.63756 0.58331 0.0
O818 O 0.07099 0.62888 0.57059 0.0
C819 C 0.0807 0.62592 0.57496 0.0
O820 O 0.08239 0.62767 0.58612 0.0
C821 C 0.06558 0.65676 0.60208 0.0
C822 C 0.01894 0.6561 0.59533 0.0
O823 O 0.02501 0.64693 0.59713 0.0
O824 O 0.02352 0.66427 0.5893 0.0
O825 O 0.08928 0.30641 0.34901 0.0
Cd826 Cd 0.09752 0.29156 0.33613 0.0
O827 O 0.10448 0.31799 0.34765 0.0
Cd828 Cd 0.11395 0.30989 0.33336 0.0
O829 O 0.12252 0.32119 0.32065 0.0
C830 C 0.12544 0.33092 0.32502 0.0
O831 O 0.12373 0.33258 0.33619 0.0
C832 C 0.09461 0.31562 0.35201 0.0
C833 C 0.09525 0.26904 0.34511 0.0
O834 O 0.10442 0.27508 0.34697 0.0
O835 O 0.08713 0.27364 0.33903 0.0
O836 O 0.44496 0.66175 0.40186 0.0
Cd837 Cd 0.45971 0.65329 0.41472 0.0
O838 O 0.43337 0.64655 0.40313 0.0
Cd839 Cd 0.44148 0.6371 0.41742 0.0
O840 O 0.43018 0.62867 0.43023 0.0
C841 C 0.4204 0.62586 0.42591 0.0
O842 O 0.41869 0.6276 0.41475 0.0
C843 C 0.43575 0.65645 0.39882 0.0
C844 C 0.4823 0.6555 0.4059 0.0
O845 O 0.4762 0.6464 0.40387 0.0
O846 O 0.47771 0.66358 0.41204 0.0
O847 O 0.08974 0.69462 0.15176 0.0
Cd848 Cd 0.09808 0.70939 0.16466 0.0
O849 O 0.10494 0.68303 0.15312 0.0
Cd850 Cd 0.11433 0.69114 0.16745 0.0
O851 O 0.12279 0.67986 0.18026 0.0
C852 C 0.1257 0.67011 0.17594 0.0
O853 O 0.12404 0.66841 0.16477 0.0
C854 C 0.09507 0.68541 0.14875 0.0
C855 C 0.09566 0.73198 0.1559 0.0
O856 O 0.10481 0.72596 0.15385 0.0
O857 O 0.08763 0.72732 0.16205 0.0
O858 O 0.05663 0.33925 0.90188 0.0
Cd859 Cd 0.04183 0.34761 0.91474 0.0
O860 O 0.06828 0.35437 0.9034 0.0
Cd861 Cd 0.06007 0.36382 0.91764 0.0
O862 O 0.07123 0.37247 0.93041 0.0
C863 C 0.0809 0.37558 0.92606 0.0
O864 O 0.08258 0.374 0.91487 0.0
C865 C 0.0659 0.34454 0.89898 0.0
C866 C 0.01926 0.34525 0.90591 0.0
O867 O 0.0253 0.35439 0.90388 0.0
O868 O 0.0239 0.33721 0.91207 0.0
O869 O 0.41229 0.30624 0.65229 0.0
Cd870 Cd 0.40405 0.29151 0.66531 0.0
O871 O 0.39657 0.31717 0.65267 0.0
Cd872 Cd 0.38725 0.3091 0.66706 0.0
O873 O 0.37876 0.32052 0.67971 0.0
C874 C 0.37613 0.33033 0.67531 0.0
O875 O 0.37808 0.33199 0.66418 0.0
C876 C 0.4067 0.31511 0.64877 0.0
C877 C 0.406 0.26895 0.65638 0.0
O878 O 0.39687 0.27509 0.65458 0.0
O879 O 0.41422 0.27348 0.66237 0.0
O880 O 0.09876 0.44487 0.33892 0.0
Cd881 Cd 0.08574 0.45958 0.34721 0.0
O882 O 0.09781 0.4335 0.35429 0.0
Cd883 Cd 0.08342 0.44153 0.36366 0.0
O884 O 0.07066 0.43023 0.37216 0.0
C885 C 0.07502 0.42049 0.37503 0.0
O886 O 0.08619 0.41881 0.37331 0.0
C887 C 0.10199 0.43579 0.34433 0.0
C888 C 0.09465 0.48215 0.34528 0.0
O889 O 0.09647 0.476 0.3544 0.0
O890 O 0.08865 0.47763 0.33706 0.0
O891 O 0.30626 0.34913 0.08922 0.0
Cd892 Cd 0.29148 0.33609 0.09732 0.0
O893 O 0.31742 0.34821 0.10476 0.0
Cd894 Cd 0.30934 0.33377 0.114 0.0
O895 O 0.32077 0.32106 0.12242 0.0
C896 C 0.33057 0.32543 0.12509 0.0
O897 O 0.33223 0.33658 0.12321 0.0
C898 C 0.31526 0.35239 0.09476 0.0
C899 C 0.26891 0.34502 0.0953 0.0
O900 O 0.275 0.34677 0.10447 0.0
O901 O 0.2735 0.33908 0.08706 0.0
O902 O 0.40154 0.55657 0.83896 0.0
Cd903 Cd 0.41443 0.54174 0.84725 0.0
O904 O 0.40319 0.5682 0.85409 0.0
Cd905 Cd 0.41743 0.55993 0.8635 0.0
O906 O 0.43018 0.57102 0.87226 0.0
C907 C 0.42583 0.58072 0.8753 0.0
O908 O 0.41467 0.58245 0.87357 0.0
C909 C 0.3987 0.56584 0.84428 0.0
C910 C 0.40561 0.51918 0.84493 0.0
O911 O 0.40361 0.52522 0.85407 0.0
O912 O 0.41172 0.52381 0.83685 0.0
O913 O 0.1946 0.65228 0.58863 0.0
Cd914 Cd 0.20934 0.66528 0.59686 0.0
O915 O 0.18327 0.65333 0.60403 0.0
Cd916 Cd 0.19141 0.66767 0.61336 0.0
O917 O 0.18019 0.68043 0.62196 0.0
C918 C 0.17049 0.67607 0.62497 0.0
O919 O 0.16882 0.66489 0.6233 0.0
C920 C 0.18552 0.6491 0.59406 0.0
C921 C 0.23191 0.65634 0.59495 0.0
O922 O 0.22576 0.65455 0.60407 0.0
O923 O 0.22738 0.66232 0.58671 0.0
O924 O 0.09898 0.55612 0.16233 0.0
Cd925 Cd 0.08599 0.54138 0.15406 0.0
O926 O 0.09807 0.56742 0.14689 0.0
Cd927 Cd 0.08373 0.55934 0.13751 0.0
O928 O 0.07103 0.57068 0.12895 0.0
C929 C 0.07542 0.58043 0.12613 0.0
O930 O 0.08658 0.58209 0.12794 0.0
C931 C 0.10223 0.56517 0.15688 0.0
C932 C 0.09493 0.51882 0.156 0.0
O933 O 0.09673 0.52496 0.14688 0.0
O934 O 0.08895 0.52335 0.16423 0.0
O935 O 0.1949 0.34955 0.91187 0.0
Cd936 Cd 0.20969 0.33665 0.90357 0.0
O937 O 0.18313 0.34781 0.89686 0.0
Cd938 Cd 0.19131 0.33352 0.88745 0.0
O939 O 0.18016 0.32074 0.8788 0.0
C940 C 0.17045 0.32509 0.87577 0.0
O941 O 0.16875 0.33626 0.87745 0.0
C942 C 0.18558 0.35236 0.90662 0.0
C943 C 0.23227 0.34545 0.90593 0.0
O944 O 0.22623 0.34746 0.89677 0.0
O945 O 0.22762 0.33932 0.91399 0.0
O946 O 0.40195 0.44474 0.66152 0.0
Cd947 Cd 0.4149 0.45946 0.65317 0.0
O948 O 0.40264 0.43359 0.64597 0.0
Cd949 Cd 0.41703 0.44167 0.63666 0.0
O950 O 0.4298 0.43028 0.62829 0.0
C951 C 0.42548 0.42044 0.62569 0.0
O952 O 0.41435 0.41873 0.6276 0.0
C953 C 0.3986 0.43575 0.65602 0.0
C954 C 0.40609 0.48206 0.65533 0.0
O955 O 0.40413 0.47597 0.64621 0.0
O956 O 0.41218 0.47746 0.66345 0.0
O957 O 0.30641 0.65218 0.4117 0.0
Cd958 Cd 0.29171 0.66506 0.40318 0.0
O959 O 0.31785 0.65311 0.39638 0.0
Cd960 Cd 0.30978 0.66743 0.38693 0.0
O961 O 0.32108 0.68025 0.37853 0.0
C962 C 0.33089 0.67594 0.37578 0.0
O963 O 0.33262 0.66479 0.37756 0.0
C964 C 0.31553 0.64896 0.40635 0.0
C965 C 0.26912 0.65623 0.4053 0.0
O966 O 0.27526 0.65421 0.39622 0.0
O967 O 0.27367 0.66238 0.4134 0.0
O968 O 0.33956 0.09923 0.44475 0.0
Cd969 Cd 0.34793 0.08624 0.45944 0.0
O970 O 0.35489 0.09816 0.43331 0.0
Cd971 Cd 0.36421 0.08375 0.44137 0.0
O972 O 0.37259 0.0709 0.43009 0.0
C973 C 0.3754 0.0752 0.4203 0.0
O974 O 0.37368 0.08637 0.41858 0.0
C975 C 0.34495 0.10241 0.43563 0.0
C976 C 0.34578 0.09501 0.48205 0.0
O977 O 0.3549 0.09698 0.47595 0.0
O978 O 0.33766 0.08893 0.47744 0.0
O979 O 0.83897 0.40217 0.5561 0.0
Cd980 Cd 0.84715 0.4152 0.54135 0.0
O981 O 0.85444 0.40311 0.56736 0.0
Cd982 Cd 0.86375 0.41751 0.55927 0.0
O983 O 0.87227 0.43018 0.57064 0.0
C984 C 0.87505 0.42578 0.5804 0.0
O985 O 0.87323 0.41463 0.58204 0.0
C986 C 0.84446 0.39893 0.56514 0.0
C987 C 0.84519 0.40626 0.51879 0.0
O988 O 0.85434 0.4045 0.5249 0.0
O989 O 0.83695 0.41222 0.52334 0.0
O990 O 0.34898 0.08908 0.30631 0.0
Cd991 Cd 0.33608 0.09734 0.29148 0.0
O992 O 0.34794 0.10444 0.3177 0.0
Cd993 Cd 0.33367 0.11392 0.30959 0.0
O994 O 0.32102 0.12255 0.32092 0.0
C995 C 0.32543 0.12541 0.33065 0.0
O996 O 0.33659 0.1236 0.3323 0.0
C997 C 0.35214 0.09448 0.31542 0.0
C998 C 0.34507 0.09512 0.26897 0.0
O999 O 0.34692 0.10428 0.27503 0.0
O1000 O 0.339 0.08699 0.27355 0.0
O1001 O 0.66236 0.59925 0.05641 0.0
Cd1002 Cd 0.65426 0.58632 0.04154 0.0
O1003 O 0.64717 0.59765 0.06796 0.0
Cd1004 Cd 0.63782 0.58337 0.05972 0.0
O1005 O 0.62908 0.57065 0.07088 0.0
C1006 C 0.62602 0.57503 0.08056 0.0
O1007 O 0.62772 0.5862 0.08223 0.0
C1008 C 0.65699 0.60213 0.06564 0.0
C1009 C 0.65638 0.59536 0.01903 0.0
O1010 O 0.64721 0.59713 0.0251 0.0
O1011 O 0.66458 0.58935 0.0236 0.0
O1012 O 0.65234 0.41175 0.30649 0.0
Cd1013 Cd 0.66534 0.40358 0.2917 0.0
O1014 O 0.65346 0.3964 0.3179 0.0
Cd1015 Cd 0.66785 0.38705 0.30985 0.0
O1016 O 0.6806 0.37855 0.32117 0.0
C1017 C 0.67623 0.37559 0.33088 0.0
O1018 O 0.66504 0.37725 0.33253 0.0
C1019 C 0.64919 0.40633 0.3156 0.0
C1020 C 0.65637 0.40579 0.26917 0.0
O1021 O 0.65457 0.39661 0.27521 0.0
O1022 O 0.66239 0.41395 0.27378 0.0
O1023 O 0.16153 0.90169 0.94468 0.0
Cd1024 Cd 0.15319 0.91458 0.95946 0.0
O1025 O 0.14623 0.90288 0.93322 0.0
Cd1026 Cd 0.1368 0.91717 0.94135 0.0
O1027 O 0.12828 0.92991 0.93004 0.0
C1028 C 0.12546 0.92556 0.92027 0.0
O1029 O 0.12725 0.9144 0.91858 0.0
C1030 C 0.15615 0.89861 0.93552 0.0
C1031 C 0.15564 0.90582 0.98206 0.0
O1032 O 0.14648 0.90376 0.97604 0.0
O1033 O 0.16366 0.91198 0.97738 0.0
O1034 O 0.34897 0.91229 0.19497 0.0
Cd1035 Cd 0.33601 0.90408 0.20976 0.0
O1036 O 0.34836 0.89666 0.18393 0.0
Cd1037 Cd 0.33401 0.88731 0.19206 0.0
O1038 O 0.32139 0.8788 0.18063 0.0
C1039 C 0.32579 0.87617 0.17083 0.0
O1040 O 0.33693 0.87812 0.16918 0.0
C1041 C 0.35236 0.90674 0.18603 0.0
C1042 C 0.34498 0.90607 0.23231 0.0
O1043 O 0.34676 0.89693 0.22619 0.0
O1044 O 0.33899 0.91429 0.22776 0.0
O1045 O 0.15172 0.08929 0.69505 0.0
Cd1046 Cd 0.16461 0.09775 0.70977 0.0
O1047 O 0.15285 0.10457 0.68356 0.0
Cd1048 Cd 0.16717 0.11396 0.69168 0.0
O1049 O 0.18001 0.12243 0.68045 0.0
C1050 C 0.17574 0.1251 0.6706 0.0
O1051 O 0.16462 0.12318 0.6688 0.0
C1052 C 0.14861 0.09463 0.6859 0.0
C1053 C 0.15579 0.09565 0.73237 0.0
O1054 O 0.15379 0.10473 0.72623 0.0
O1055 O 0.16192 0.08753 0.72781 0.0
C1056 C 0.13664 0.20042 0.36885 0.0
C1057 C 0.13434 0.18959 0.37395 0.0
C1058 C 0.155 0.18661 0.37732 0.0
C1059 C 0.14344 0.18273 0.37814 0.0
C1060 C 0.15728 0.19731 0.37182 0.0
C1061 C 0.14814 0.20418 0.36765 0.0
U1062 U 0.1047 0.20623 0.37014 0.0
O1063 O 0.09484 0.22181 0.37502 0.0
O1064 O 0.09238 0.21412 0.35774 0.0
C1065 C 0.09028 0.22301 0.36461 0.0
C1066 C 0.12696 0.20815 0.36579 0.0
C1067 C 0.09171 0.23459 0.35934 0.0
C1068 C 0.10353 0.25165 0.35536 0.0
C1069 C 0.10238 0.24047 0.35999 0.0
C1070 C 0.08345 0.2511 0.34906 0.0
C1071 C 0.09406 0.25712 0.34988 0.0
C1072 C 0.08228 0.23995 0.35379 0.0
C1073 C 0.08759 0.18202 0.38629 0.0
C1074 C 0.06674 0.17881 0.38733 0.0
C1075 C 0.0795 0.16968 0.40137 0.0
C1076 C 0.08907 0.17482 0.39599 0.0
C1077 C 0.06824 0.17152 0.39705 0.0
C1078 C 0.07636 0.18403 0.38197 0.0
C1079 C 0.09795 0.18737 0.38109 0.0
O1080 O 0.11951 0.20393 0.35822 0.0
O1081 O 0.12191 0.21303 0.37479 0.0
O1082 O 0.10191 0.19665 0.38643 0.0
O1083 O 0.09825 0.18822 0.36969 0.0
H1084 H 0.12548 0.18659 0.375 0.0
H1085 H 0.14138 0.17453 0.38228 0.0
H1086 H 0.16608 0.20054 0.37104 0.0
H1087 H 0.15004 0.21256 0.36379 0.0
H1088 H 0.11185 0.256 0.35607 0.0
H1089 H 0.1098 0.23645 0.36418 0.0
H1090 H 0.07599 0.25505 0.34488 0.0
H1091 H 0.07398 0.23554 0.35318 0.0
H1092 H 0.05814 0.18051 0.38389 0.0
H1093 H 0.08094 0.16463 0.40915 0.0
H1094 H 0.09767 0.1733 0.39953 0.0
H1095 H 0.07502 0.18964 0.37453 0.0
C1096 C 0.05123 0.88707 0.61716 0.0
C1097 C 0.06224 0.88492 0.62193 0.0
C1098 C 0.06502 0.90562 0.6252 0.0
C1099 C 0.06909 0.89411 0.6259 0.0
C1100 C 0.05415 0.90775 0.62 0.0
C1101 C 0.04729 0.89853 0.61604 0.0
U1102 U 0.04536 0.85515 0.61934 0.0
O1103 O 0.02976 0.84552 0.62456 0.0
O1104 O 0.03734 0.84258 0.6073 0.0
C1105 C 0.02849 0.84069 0.61428 0.0
C1106 C 0.04349 0.87731 0.61443 0.0
C1107 C 0.01688 0.84199 0.60904 0.0
C1108 C 0.99972 0.85366 0.60498 0.0
C1109 C 0.01093 0.85264 0.60958 0.0
C1110 C 1.00039 0.8335 0.59893 0.0
C1111 C 0.9943 0.84409 0.59964 0.0
C1112 C 0.01157 0.83246 0.60363 0.0
C1113 C 0.06939 0.83808 0.63568 0.0
C1114 C 0.07228 0.81719 0.63692 0.0
C1115 C 0.08147 0.8299 0.65095 0.0
C1116 C 0.07652 0.83952 0.64544 0.0
C1117 C 0.0795 0.81864 0.6467 0.0
C1118 C 0.06727 0.82684 0.63143 0.0
C1119 C 0.06422 0.84847 0.63034 0.0
O1120 O 0.04766 0.86964 0.60704 0.0
O1121 O 0.03868 0.87252 0.62361 0.0
O1122 O 0.05502 0.85266 0.63564 0.0
O1123 O 0.06333 0.84858 0.61894 0.0
H1124 H 0.06538 0.87609 0.62293 0.0
H1125 H 0.07743 0.89216 0.62982 0.0
H1126 H 0.05076 0.91651 0.61931 0.0
H1127 H 0.03877 0.90032 0.61244 0.0
H1128 H 0.99531 0.86196 0.60561 0.0
H1129 H 0.01491 0.86013 0.61366 0.0
H1130 H 0.99648 0.82597 0.59486 0.0
H1131 H 0.01604 0.82419 0.6031 0.0
H1132 H 0.07049 0.80859 0.63352 0.0
H1133 H 0.08646 0.83132 0.65877 0.0
H1134 H 0.07814 0.84812 0.64893 0.0
H1135 H 0.0617 0.82554 0.62395 0.0
C1136 C 0.36463 0.80059 0.86893 0.0
C1137 C 0.3669 0.81145 0.87399 0.0
C1138 C 0.34623 0.8144 0.87733 0.0
C1139 C 0.35778 0.8183 0.87814 0.0
C1140 C 0.34398 0.80367 0.87187 0.0
C1141 C 0.35314 0.7968 0.86774 0.0
U1142 U 0.39658 0.79489 0.87029 0.0
O1143 O 0.40648 0.77934 0.87523 0.0
O1144 O 0.40895 0.78702 0.85793 0.0
C1145 C 0.41108 0.77815 0.86484 0.0
C1146 C 0.37433 0.79288 0.86592 0.0
C1147 C 0.40974 0.76656 0.85959 0.0
C1148 C 0.39802 0.74945 0.85554 0.0
C1149 C 0.39909 0.76064 0.86017 0.0
C1150 C 0.41815 0.75007 0.84941 0.0
C1151 C 0.40755 0.74401 0.85015 0.0
C1152 C 0.41924 0.76123 0.85412 0.0
C1153 C 0.41364 0.81914 0.88637 0.0
C1154 C 0.4345 0.82226 0.88742 0.0
C1155 C 0.42177 0.83152 0.9014 0.0
C1156 C 0.41218 0.8264 0.89603 0.0
C1157 C 0.43303 0.8296 0.8971 0.0
C1158 C 0.42487 0.81707 0.88207 0.0
C1159 C 0.40327 0.81379 0.88119 0.0
O1160 O 0.38178 0.7971 0.85835 0.0
O1161 O 0.37938 0.78804 0.87494 0.0
O1162 O 0.39933 0.80451 0.88656 0.0
O1163 O 0.40297 0.81291 0.8698 0.0
H1164 H 0.37575 0.81448 0.87504 0.0
H1165 H 0.35982 0.82653 0.88225 0.0
H1166 H 0.33519 0.80042 0.87109 0.0
H1167 H 0.35126 0.78841 0.86392 0.0
H1168 H 0.38971 0.74506 0.8562 0.0
H1169 H 0.39162 0.76464 0.86429 0.0
H1170 H 0.42566 0.74614 0.8453 0.0
H1171 H 0.42752 0.76568 0.85357 0.0
H1172 H 0.44309 0.82052 0.884 0.0
H1173 H 0.42034 0.8366 0.90915 0.0
H1174 H 0.40358 0.82797 0.89956 0.0
H1175 H 0.42619 0.81141 0.87466 0.0
C1176 C 0.44978 0.11401 0.11738 0.0
C1177 C 0.43875 0.11613 0.12213 0.0
C1178 C 0.43599 0.09541 0.1253 0.0
C1179 C 0.4319 0.10691 0.12604 0.0
C1180 C 0.44688 0.09331 0.12013 0.0
C1181 C 0.45374 0.10256 0.11623 0.0
U1182 U 0.45549 0.14606 0.11893 0.0
O1183 O 0.47099 0.15582 0.12428 0.0
O1184 O 0.46383 0.1583 0.10676 0.0
C1185 C 0.4725 0.16039 0.11391 0.0
C1186 C 0.45751 0.12378 0.11467 0.0
C1187 C 0.48423 0.15901 0.10897 0.0
C1188 C 0.50148 0.14729 0.10547 0.0
C1189 C 0.49021 0.1484 0.1099 0.0
C1190 C 0.50083 0.16728 0.09888 0.0
C1191 C 0.50694 0.15673 0.09994 0.0
C1192 C 0.48959 0.16841 0.10339 0.0
C1193 C 0.4313 0.16392 0.13382 0.0
C1194 C 0.43347 0.18311 0.1423 0.0
C1195 C 0.41449 0.17402 0.14164 0.0
C1196 C 0.41935 0.16435 0.13611 0.0
C1197 C 0.42155 0.18337 0.14506 0.0
C1198 C 0.43832 0.17343 0.13675 0.0
C1199 C 0.43632 0.15318 0.12907 0.0
O1200 O 0.45352 0.13124 0.10698 0.0
O1201 O 0.46202 0.12881 0.12387 0.0
O1202 O 0.44531 0.14903 0.13476 0.0
O1203 O 0.43754 0.15271 0.11772 0.0
H1204 H 0.43559 0.12495 0.12314 0.0
H1205 H 0.42354 0.10883 0.12993 0.0
H1206 H 0.45027 0.08456 0.11941 0.0
H1207 H 0.46227 0.1008 0.11264 0.0
H1208 H 0.50591 0.13903 0.10638 0.0
H1209 H 0.48619 0.141 0.11411 0.0
H1210 H 0.50477 0.17472 0.09465 0.0
H1211 H 0.48509 0.17665 0.10257 0.0
H1212 H 0.43912 0.19023 0.14474 0.0
H1213 H 0.40523 0.17417 0.14318 0.0
H1214 H 0.41379 0.15711 0.1338 0.0
H1215 H 0.44757 0.17326 0.135 0.0
C1216 C 0.13669 0.8009 0.13227 0.0
C1217 C 0.1344 0.81175 0.1272 0.0
C1218 C 0.15506 0.81475 0.12392 0.0
C1219 C 0.1435 0.81863 0.12307 0.0
C1220 C 0.15734 0.80403 0.12939 0.0
C1221 C 0.1482 0.79714 0.1335 0.0
U1222 U 0.10465 0.79524 0.1317 0.0
O1223 O 0.09467 0.77976 0.12673 0.0
O1224 O 0.09272 0.78703 0.14426 0.0
C1225 C 0.09039 0.77833 0.13723 0.0
C1226 C 0.12703 0.79317 0.13534 0.0
C1227 C 0.09189 0.76662 0.1422 0.0
C1228 C 0.10375 0.74946 0.14565 0.0
C1229 C 0.10252 0.76071 0.1412 0.0
C1230 C 0.08381 0.74999 0.15242 0.0
C1231 C 0.09439 0.74395 0.15128 0.0
C1232 C 0.08257 0.76122 0.14789 0.0
C1233 C 0.08663 0.81955 0.11706 0.0
C1234 C 0.06744 0.81762 0.10851 0.0
C1235 C 0.07661 0.83654 0.10953 0.0
C1236 C 0.08624 0.83154 0.115 0.0
C1237 C 0.06725 0.82958 0.10595 0.0
C1238 C 0.07708 0.81262 0.114 0.0
C1239 C 0.09738 0.81439 0.12162 0.0
O1240 O 0.11981 0.79722 0.14322 0.0
O1241 O 0.12172 0.7886 0.12633 0.0
O1242 O 0.10131 0.80533 0.11588 0.0
O1243 O 0.09811 0.81323 0.13296 0.0
H1244 H 0.12553 0.81476 0.12614 0.0
H1245 H 0.14145 0.82685 0.11895 0.0
H1246 H 0.16614 0.8008 0.1302 0.0
H1247 H 0.1501 0.78876 0.13734 0.0
H1248 H 0.11203 0.74508 0.14469 0.0
H1249 H 0.10986 0.76477 0.13691 0.0
H1250 H 0.07644 0.74601 0.15671 0.0
H1251 H 0.07431 0.76566 0.14876 0.0
H1252 H 0.0603 0.81205 0.10595 0.0
H1253 H 0.07652 0.84583 0.10814 0.0
H1254 H 0.09351 0.83703 0.1174 0.0
H1255 H 0.07721 0.80334 0.11558 0.0
C1256 C 0.44992 0.88714 0.38383 0.0
C1257 C 0.43891 0.88502 0.37905 0.0
C1258 C 0.43614 0.90572 0.37579 0.0
C1259 C 0.43206 0.89422 0.37509 0.0
C1260 C 0.44701 0.90783 0.381 0.0
C1261 C 0.45387 0.8986 0.38495 0.0
U1262 U 0.45577 0.85521 0.38166 0.0
O1263 O 0.47137 0.84556 0.37642 0.0
O1264 O 0.46381 0.84263 0.39369 0.0
C1265 C 0.47265 0.84073 0.3867 0.0
C1266 C 0.45766 0.87737 0.38655 0.0
C1267 C 0.48428 0.84201 0.39191 0.0
C1268 C 0.50143 0.85367 0.39596 0.0
C1269 C 0.49022 0.85266 0.39138 0.0
C1270 C 0.50079 0.83349 0.40197 0.0
C1271 C 0.50687 0.84408 0.40127 0.0
C1272 C 0.4896 0.83247 0.39729 0.0
C1273 C 0.43172 0.83815 0.36537 0.0
C1274 C 0.42889 0.81726 0.36416 0.0
C1275 C 0.41963 0.82996 0.35015 0.0
C1276 C 0.42456 0.83959 0.35563 0.0
C1277 C 0.42164 0.8187 0.35439 0.0
C1278 C 0.43389 0.82692 0.36962 0.0
C1279 C 0.4369 0.84855 0.37069 0.0
O1280 O 0.4535 0.86971 0.39395 0.0
O1281 O 0.46246 0.87257 0.37737 0.0
O1282 O 0.44609 0.85273 0.36538 0.0
O1283 O 0.43781 0.84867 0.38209 0.0
H1284 H 0.43577 0.87619 0.37805 0.0
H1285 H 0.42372 0.89229 0.37116 0.0
H1286 H 0.45039 0.91659 0.38169 0.0
H1287 H 0.46238 0.90037 0.38856 0.0
H1288 H 0.50584 0.86196 0.39534 0.0
H1289 H 0.48622 0.86017 0.38733 0.0
H1290 H 0.50472 0.82595 0.40601 0.0
H1291 H 0.48514 0.82419 0.39781 0.0
H1292 H 0.43071 0.80867 0.36755 0.0
H1293 H 0.41461 0.83137 0.34234 0.0
H1294 H 0.42292 0.84818 0.35214 0.0
H1295 H 0.43949 0.82562 0.37709 0.0
C1296 C 0.36393 0.20056 0.63244 0.0
C1297 C 0.36624 0.18967 0.62746 0.0
C1298 C 0.34563 0.18682 0.62375 0.0
C1299 C 0.35718 0.18285 0.62316 0.0
C1300 C 0.34332 0.19756 0.62914 0.0
C1301 C 0.35242 0.20441 0.63342 0.0
U1302 U 0.39587 0.20622 0.6313 0.0
O1303 O 0.40582 0.22175 0.62648 0.0
O1304 O 0.4082 0.21399 0.64376 0.0
C1305 C 0.41039 0.22287 0.6369 0.0
C1306 C 0.3736 0.20825 0.63557 0.0
C1307 C 0.40909 0.23446 0.64219 0.0
C1308 C 0.39746 0.25165 0.64622 0.0
C1309 C 0.39847 0.24045 0.64158 0.0
C1310 C 0.41758 0.25087 0.65241 0.0
C1311 C 0.40702 0.25701 0.65164 0.0
C1312 C 0.4186 0.2397 0.64769 0.0
C1313 C 0.413 0.18205 0.61518 0.0
C1314 C 0.43388 0.17907 0.61416 0.0
C1315 C 0.42124 0.16978 0.60013 0.0
C1316 C 0.4116 0.17482 0.60549 0.0
C1317 C 0.43248 0.17175 0.60444 0.0
C1318 C 0.4242 0.18418 0.61951 0.0
C1319 C 0.40259 0.18737 0.62032 0.0
O1320 O 0.38101 0.20398 0.64316 0.0
O1321 O 0.3787 0.21314 0.6266 0.0
O1322 O 0.39867 0.19667 0.615 0.0
O1323 O 0.40223 0.18817 0.63172 0.0
H1324 H 0.3751 0.18661 0.62657 0.0
H1325 H 0.35926 0.17461 0.61912 0.0
H1326 H 0.33452 0.20086 0.62974 0.0
H1327 H 0.35051 0.21282 0.63718 0.0
H1328 H 0.38919 0.2561 0.64554 0.0
H1329 H 0.391 0.23652 0.63743 0.0
H1330 H 0.4251 0.25474 0.65654 0.0
H1331 H 0.42685 0.23519 0.64826 0.0
H1332 H 0.44246 0.18086 0.6176 0.0
H1333 H 0.41986 0.16471 0.59235 0.0
H1334 H 0.40302 0.17321 0.60194 0.0
H1335 H 0.42546 0.18983 0.62693 0.0
C1336 C 0.05089 0.1146 0.88275 0.0
C1337 C 0.06169 0.11693 0.87758 0.0
C1338 C 0.06478 0.09628 0.87433 0.0
C1339 C 0.06858 0.10786 0.87342 0.0
C1340 C 0.05413 0.09396 0.8799 0.0
C1341 C 0.04722 0.10308 0.88405 0.0
U1342 U 0.0448 0.14648 0.88116 0.0
O1343 O 0.02909 0.15614 0.87627 0.0
O1344 O 0.03687 0.15885 0.89348 0.0
C1345 C 0.02793 0.16081 0.88664 0.0
C1346 C 0.0431 0.12425 0.88576 0.0
C1347 C 0.01639 0.15937 0.89199 0.0
C1348 C 0.9994 0.14751 0.89614 0.0
C1349 C 0.01056 0.14867 0.89146 0.0
C1350 C 0.99988 0.16767 0.90223 0.0
C1351 C 0.9939 0.15702 0.90152 0.0
C1352 C 0.01101 0.16883 0.89746 0.0
C1353 C 0.06862 0.16373 0.86467 0.0
C1354 C 0.07134 0.18462 0.86336 0.0
C1355 C 0.08069 0.17192 0.84942 0.0
C1356 C 0.0758 0.16229 0.85495 0.0
C1357 C 0.07861 0.18319 0.85361 0.0
C1358 C 0.06638 0.17496 0.86887 0.0
C1359 C 0.06349 0.15332 0.87 0.0
O1360 O 0.04732 0.13182 0.89322 0.0
O1361 O 0.03811 0.12915 0.87674 0.0
O1362 O 0.05422 0.14918 0.86477 0.0
O1363 O 0.06274 0.15311 0.8814 0.0
H1364 H 0.06462 0.12581 0.87646 0.0
H1365 H 0.07674 0.10994 0.86923 0.0
H1366 H 0.05096 0.08514 0.88075 0.0
H1367 H 0.03887 0.10115 0.88795 0.0
H1368 H 0.99507 0.13918 0.89551 0.0
H1369 H 0.0146 0.14122 0.88733 0.0
H1370 H 0.9959 0.17515 0.90633 0.0
H1371 H 0.01539 0.17715 0.89797 0.0
H1372 H 0.06946 0.19322 0.8667 0.0
H1373 H 0.08572 0.1705 0.84163 0.0
H1374 H 0.0775 0.15369 0.85149 0.0
H1375 H 0.06077 0.17625 0.87631 0.0
C1376 C 0.36874 0.13661 0.20041 0.0
C1377 C 0.37381 0.13432 0.18956 0.0
C1378 C 0.37718 0.15497 0.1866 0.0
C1379 C 0.37798 0.14342 0.1827 0.0
C1380 C 0.37172 0.15725 0.19731 0.0
C1381 C 0.36756 0.14812 0.20419 0.0
U1382 U 0.3701 0.10468 0.20619 0.0
O1383 O 0.37501 0.09482 0.22177 0.0
O1384 O 0.35773 0.09233 0.21407 0.0
C1385 C 0.36461 0.09024 0.22296 0.0
C1386 C 0.36571 0.12693 0.20814 0.0
C1387 C 0.35933 0.09164 0.23454 0.0
C1388 C 0.35532 0.10344 0.25161 0.0
C1389 C 0.35996 0.10231 0.24043 0.0
C1390 C 0.34905 0.08335 0.25102 0.0
C1391 C 0.34984 0.09396 0.25705 0.0
C1392 C 0.35378 0.0822 0.23987 0.0
C1393 C 0.38628 0.08757 0.18202 0.0
C1394 C 0.38738 0.06671 0.17893 0.0
C1395 C 0.40135 0.07945 0.16969 0.0
C1396 C 0.39595 0.08904 0.17478 0.0
C1397 C 0.39708 0.06818 0.17161 0.0
C1398 C 0.382 0.07634 0.1841 0.0
C1399 C 0.38107 0.09795 0.18734 0.0
O1400 O 0.35815 0.11947 0.20391 0.0
O1401 O 0.37472 0.1219 0.21301 0.0
O1402 O 0.3864 0.10192 0.19662 0.0
O1403 O 0.36967 0.09824 0.18818 0.0
H1404 H 0.37485 0.12546 0.18655 0.0
H1405 H 0.38209 0.14136 0.17449 0.0
H1406 H 0.37095 0.16606 0.20056 0.0
H1407 H 0.36373 0.15001 0.21258 0.0
H1408 H 0.35602 0.11175 0.25597 0.0
H1409 H 0.36415 0.10973 0.23643 0.0
H1410 H 0.34488 0.07588 0.25495 0.0
H1411 H 0.35319 0.07391 0.23544 0.0
H1412 H 0.38398 0.05811 0.18069 0.0
H1413 H 0.40912 0.08088 0.16462 0.0
H1414 H 0.39946 0.09764 0.1732 0.0
H1415 H 0.37458 0.07502 0.18974 0.0
C1416 C 0.11416 0.11743 0.45003 0.0
C1417 C 0.11628 0.12215 0.43899 0.0
C1418 C 0.09557 0.12533 0.43618 0.0
C1419 C 0.10707 0.12605 0.43211 0.0
C1420 C 0.09346 0.12017 0.44708 0.0
C1421 C 0.1027 0.11629 0.45397 0.0
U1422 U 0.14619 0.119 0.45578 0.0
O1423 O 0.15595 0.12436 0.47127 0.0
O1424 O 0.15845 0.10685 0.46412 0.0
C1425 C 0.16053 0.114 0.47279 0.0
C1426 C 0.12392 0.11473 0.45778 0.0
C1427 C 0.15918 0.10906 0.48452 0.0
C1428 C 0.14752 0.10557 0.5018 0.0
C1429 C 0.1486 0.11001 0.49054 0.0
C1430 C 0.16749 0.09892 0.50109 0.0
C1431 C 0.15697 0.1 0.50722 0.0
C1432 C 0.16859 0.10345 0.48985 0.0
C1433 C 0.16402 0.1339 0.43157 0.0
C1434 C 0.18321 0.14239 0.43372 0.0
C1435 C 0.17409 0.14171 0.41475 0.0
C1436 C 0.16443 0.13618 0.41961 0.0
C1437 C 0.18345 0.14514 0.42179 0.0
C1438 C 0.17354 0.13683 0.43858 0.0
C1439 C 0.15329 0.12914 0.4366 0.0
O1440 O 0.13138 0.10703 0.45381 0.0
O1441 O 0.12894 0.12393 0.46229 0.0
O1442 O 0.14914 0.13484 0.44559 0.0
O1443 O 0.15283 0.11779 0.43783 0.0
H1444 H 0.12511 0.12315 0.43585 0.0
H1445 H 0.109 0.12993 0.42376 0.0
H1446 H 0.0847 0.11947 0.45046 0.0
H1447 H 0.10093 0.11271 0.4625 0.0
H1448 H 0.13927 0.10648 0.50625 0.0
H1449 H 0.14119 0.11424 0.48654 0.0
H1450 H 0.17493 0.09467 0.505 0.0
H1451 H 0.17681 0.10261 0.48533 0.0
H1452 H 0.19033 0.14483 0.43936 0.0
H1453 H 0.17422 0.14325 0.40548 0.0
H1454 H 0.15719 0.13387 0.41406 0.0
H1455 H 0.17338 0.13509 0.44783 0.0
C1456 C 0.13391 0.864 0.69995 0.0
C1457 C 0.12912 0.86614 0.68894 0.0
C1458 C 0.12585 0.84544 0.68618 0.0
C1459 C 0.12514 0.85694 0.6821 0.0
C1460 C 0.13106 0.84332 0.69704 0.0
C1461 C 0.13503 0.85255 0.7039 0.0
U1462 U 0.13176 0.89593 0.70578 0.0
O1463 O 0.12655 0.9056 0.72137 0.0
O1464 O 0.14382 0.9085 0.71379 0.0
C1465 C 0.13683 0.91041 0.72263 0.0
C1466 C 0.13664 0.87377 0.70767 0.0
C1467 C 0.14207 0.90912 0.73425 0.0
C1468 C 0.14613 0.89747 0.75141 0.0
C1469 C 0.14153 0.89848 0.7402 0.0
C1470 C 0.15215 0.91763 0.75074 0.0
C1471 C 0.15144 0.90704 0.75683 0.0
C1472 C 0.14746 0.91866 0.73956 0.0
C1473 C 0.11545 0.91299 0.68171 0.0
C1474 C 0.11423 0.93388 0.6788 0.0
C1475 C 0.10021 0.92116 0.6696 0.0
C1476 C 0.1057 0.91155 0.67456 0.0
C1477 C 0.10446 0.93243 0.67157 0.0
C1478 C 0.1197 0.92422 0.68384 0.0
C1479 C 0.12078 0.9026 0.68691 0.0
O1480 O 0.14404 0.88142 0.7035 0.0
O1481 O 0.12747 0.87858 0.71248 0.0
O1482 O 0.11547 0.89843 0.69611 0.0
O1483 O 0.13218 0.90247 0.6878 0.0
H1484 H 0.12812 0.87497 0.68579 0.0
H1485 H 0.12122 0.85889 0.67376 0.0
H1486 H 0.13175 0.83456 0.70043 0.0
H1487 H 0.13864 0.85077 0.71241 0.0
H1488 H 0.1455 0.88917 0.75583 0.0
H1489 H 0.13746 0.89098 0.73622 0.0
H1490 H 0.1562 0.92517 0.75466 0.0
H1491 H 0.14798 0.92693 0.73509 0.0
H1492 H 0.11762 0.94247 0.68059 0.0
H1493 H 0.09241 0.91974 0.66458 0.0
H1494 H 0.10221 0.90295 0.67295 0.0
H1495 H 0.12716 0.92553 0.68942 0.0
C1496 C 0.38709 0.8838 0.94972 0.0
C1497 C 0.38498 0.87904 0.93869 0.0
C1498 C 0.40571 0.87591 0.93593 0.0
C1499 C 0.39422 0.87515 0.93184 0.0
C1500 C 0.40779 0.88109 0.94681 0.0
C1501 C 0.39853 0.88497 0.95367 0.0
U1502 U 0.35504 0.88223 0.95544 0.0
O1503 O 0.34529 0.87687 0.97095 0.0
O1504 O 0.34279 0.89439 0.96379 0.0
C1505 C 0.34071 0.88724 0.97246 0.0
C1506 C 0.37731 0.8865 0.95745 0.0
C1507 C 0.34211 0.89217 0.98419 0.0
C1508 C 0.35386 0.8957 0.00141 0.0
C1509 C 0.35274 0.89128 0.99014 0.0
C1510 C 0.33385 0.90224 0.00082 0.0
C1511 C 0.34442 0.90121 0.00689 0.0
C1512 C 0.33271 0.89773 0.98958 0.0
C1513 C 0.33719 0.86732 0.93126 0.0
C1514 C 0.31797 0.85889 0.93344 0.0
C1515 C 0.32711 0.85945 0.91447 0.0
C1516 C 0.33677 0.86498 0.91932 0.0
C1517 C 0.31773 0.85608 0.92153 0.0
C1518 C 0.32765 0.86444 0.93828 0.0
C1519 C 0.34792 0.87208 0.93628 0.0
O1520 O 0.36985 0.89418 0.95346 0.0
O1521 O 0.37229 0.87729 0.96196 0.0
O1522 O 0.35207 0.86639 0.94527 0.0
O1523 O 0.34838 0.88343 0.9375 0.0
H1524 H 0.37617 0.87802 0.93554 0.0
H1525 H 0.39231 0.87124 0.92349 0.0
H1526 H 0.41654 0.88183 0.95021 0.0
H1527 H 0.40028 0.88857 0.9622 0.0
H1528 H 0.36214 0.89482 0.0058 0.0
H1529 H 0.36014 0.88709 0.98609 0.0
H1530 H 0.32642 0.90644 0.00479 0.0
H1531 H 0.32445 0.89853 0.98512 0.0
H1532 H 0.31083 0.85649 0.93908 0.0
H1533 H 0.32698 0.85787 0.90521 0.0
H1534 H 0.34403 0.86725 0.91376 0.0
H1535 H 0.32781 0.86623 0.94752 0.0
C1536 C 0.3672 0.86405 0.30117 0.0
C1537 C 0.37197 0.86618 0.31219 0.0
C1538 C 0.37524 0.84548 0.31496 0.0
C1539 C 0.37594 0.85698 0.31904 0.0
C1540 C 0.37004 0.84336 0.30409 0.0
C1541 C 0.36608 0.85259 0.29723 0.0
U1542 U 0.36939 0.89597 0.29532 0.0
O1543 O 0.37462 0.90562 0.27972 0.0
O1544 O 0.35735 0.90856 0.28729 0.0
C1545 C 0.36434 0.91045 0.27844 0.0
C1546 C 0.36448 0.87382 0.29344 0.0
C1547 C 0.35911 0.90917 0.26682 0.0
C1548 C 0.35508 0.89753 0.24965 0.0
C1549 C 0.35968 0.89854 0.26086 0.0
C1550 C 0.34899 0.91768 0.25035 0.0
C1551 C 0.34972 0.9071 0.24425 0.0
C1552 C 0.35368 0.9187 0.26153 0.0
C1553 C 0.3857 0.91303 0.31934 0.0
C1554 C 0.38694 0.93392 0.32215 0.0
C1555 C 0.40095 0.92122 0.33142 0.0
C1556 C 0.39545 0.91159 0.3265 0.0
C1557 C 0.39671 0.93249 0.32939 0.0
C1558 C 0.38146 0.92426 0.31717 0.0
C1559 C 0.38037 0.90264 0.31418 0.0
O1560 O 0.35709 0.88149 0.2976 0.0
O1561 O 0.37366 0.87861 0.28863 0.0
O1562 O 0.38568 0.89844 0.30499 0.0
O1563 O 0.36897 0.90252 0.31328 0.0
H1564 H 0.37297 0.875 0.31533 0.0
H1565 H 0.37986 0.85891 0.32738 0.0
H1566 H 0.36935 0.8346 0.3007 0.0
H1567 H 0.36248 0.85082 0.28871 0.0
H1568 H 0.35572 0.88924 0.24523 0.0
H1569 H 0.36377 0.89104 0.26483 0.0
H1570 H 0.34491 0.92521 0.24644 0.0
H1571 H 0.35315 0.92697 0.26601 0.0
H1572 H 0.38356 0.94252 0.32032 0.0
H1573 H 0.40876 0.9198 0.33643 0.0
H1574 H 0.39893 0.90299 0.32815 0.0
H1575 H 0.374 0.92556 0.31158 0.0
C1576 C 0.38721 0.11735 0.55138 0.0
C1577 C 0.38501 0.12211 0.56239 0.0
C1578 C 0.4057 0.12535 0.56528 0.0
C1579 C 0.39418 0.12607 0.56929 0.0
C1580 C 0.40788 0.12015 0.55442 0.0
C1581 C 0.39869 0.11621 0.54751 0.0
U1582 U 0.35521 0.11892 0.54542 0.0
O1583 O 0.34555 0.12417 0.52983 0.0
O1584 O 0.343 0.10671 0.5371 0.0
C1585 C 0.34097 0.11381 0.52837 0.0
C1586 C 0.3775 0.11459 0.5436 0.0
C1587 C 0.34237 0.10878 0.51668 0.0
C1588 C 0.35409 0.10518 0.49946 0.0
C1589 C 0.35298 0.10966 0.51071 0.0
C1590 C 0.33409 0.09862 0.50012 0.0
C1591 C 0.34464 0.09964 0.49402 0.0
C1592 C 0.33297 0.10318 0.51134 0.0
C1593 C 0.33723 0.13405 0.56936 0.0
C1594 C 0.31809 0.14262 0.56698 0.0
C1595 C 0.32699 0.14195 0.58605 0.0
C1596 C 0.33669 0.13637 0.58131 0.0
C1597 C 0.31772 0.1454 0.57889 0.0
C1598 C 0.32779 0.13701 0.56224 0.0
C1599 C 0.34799 0.12924 0.56446 0.0
O1600 O 0.37 0.10694 0.54759 0.0
O1601 O 0.37251 0.12376 0.53897 0.0
O1602 O 0.35221 0.13484 0.55545 0.0
O1603 O 0.34845 0.11788 0.56334 0.0
H1604 H 0.37617 0.12311 0.56548 0.0
H1605 H 0.39219 0.12998 0.57762 0.0
H1606 H 0.41666 0.11945 0.55108 0.0
H1607 H 0.40051 0.1126 0.539 0.0
H1608 H 0.36235 0.10606 0.49504 0.0
H1609 H 0.36038 0.11389 0.51472 0.0
H1610 H 0.32666 0.09439 0.49619 0.0
H1611 H 0.32473 0.1024 0.51583 0.0
H1612 H 0.31103 0.14507 0.56125 0.0
H1613 H 0.32677 0.14351 0.59531 0.0
H1614 H 0.34387 0.13404 0.58694 0.0
H1615 H 0.32804 0.13524 0.553 0.0
C1616 C 0.13326 0.13755 0.80122 0.0
C1617 C 0.12848 0.13549 0.81224 0.0
C1618 C 0.12516 0.15621 0.81484 0.0
C1619 C 0.12448 0.14474 0.81901 0.0
C1620 C 0.13038 0.15826 0.80396 0.0
C1621 C 0.13437 0.14898 0.79719 0.0
U1622 U 0.132 0.10545 0.7957 0.0
O1623 O 0.12676 0.09556 0.78025 0.0
O1624 O 0.14428 0.09326 0.78746 0.0
C1625 C 0.13716 0.09105 0.77879 0.0
C1626 C 0.13607 0.12775 0.79356 0.0
C1627 C 0.14211 0.09239 0.76706 0.0
C1628 C 0.14558 0.10401 0.74974 0.0
C1629 C 0.14115 0.10295 0.76101 0.0
C1630 C 0.15226 0.08405 0.75052 0.0
C1631 C 0.15116 0.09456 0.74435 0.0
C1632 C 0.14774 0.08298 0.76176 0.0
C1633 C 0.11721 0.08756 0.81991 0.0
C1634 C 0.10881 0.06834 0.81773 0.0
C1635 C 0.10954 0.07738 0.83673 0.0
C1636 C 0.11499 0.08709 0.83187 0.0
C1637 C 0.10611 0.06803 0.82967 0.0
C1638 C 0.11429 0.07804 0.81288 0.0
C1639 C 0.12187 0.09833 0.81488 0.0
O1640 O 0.14382 0.12038 0.79762 0.0
O1641 O 0.12693 0.12261 0.78907 0.0
O1642 O 0.11617 0.10241 0.80587 0.0
O1643 O 0.13322 0.0989 0.81368 0.0
H1644 H 0.12751 0.12669 0.81545 0.0
H1645 H 0.12055 0.14286 0.82735 0.0
H1646 H 0.13107 0.16699 0.80051 0.0
H1647 H 0.13799 0.1507 0.78867 0.0
H1648 H 0.14465 0.11224 0.74527 0.0
H1649 H 0.1369 0.11036 0.76499 0.0
H1650 H 0.15651 0.07661 0.74663 0.0
H1651 H 0.14859 0.07477 0.7663 0.0
H1652 H 0.10636 0.06122 0.81208 0.0
H1653 H 0.10805 0.07721 0.84601 0.0
H1654 H 0.1173 0.09432 0.83744 0.0
H1655 H 0.11599 0.07824 0.80362 0.0
C1656 C 0.11461 0.88218 0.05094 0.0
C1657 C 0.11689 0.8771 0.06179 0.0
C1658 C 0.09622 0.87382 0.06477 0.0
C1659 C 0.10778 0.87296 0.06866 0.0
C1660 C 0.09396 0.8793 0.05406 0.0
C1661 C 0.1031 0.88342 0.04718 0.0
U1662 U 0.14666 0.88166 0.04531 0.0
O1663 O 0.15667 0.87669 0.02985 0.0
O1664 O 0.15857 0.89423 0.03711 0.0
C1665 C 0.16093 0.8872 0.02841 0.0
C1666 C 0.12428 0.88526 0.04322 0.0
C1667 C 0.15942 0.89215 0.0167 0.0
C1668 C 0.14756 0.89558 0.99954 0.0
C1669 C 0.14879 0.89114 0.0108 0.0
C1670 C 0.16749 0.90235 1.00006 0.0
C1671 C 0.15691 0.90121 0.99403 0.0
C1672 C 0.16874 0.89783 0.01129 0.0
C1673 C 0.16467 0.86706 0.06966 0.0
C1674 C 0.18388 0.85854 0.06777 0.0
C1675 C 0.17466 0.85956 0.08667 0.0
C1676 C 0.16503 0.865 0.08166 0.0
C1677 C 0.18405 0.85598 0.07974 0.0
C1678 C 0.17424 0.86401 0.06276 0.0
C1679 C 0.15391 0.8716 0.06448 0.0
O1680 O 0.13148 0.89316 0.04727 0.0
O1681 O 0.12961 0.87625 0.03866 0.0
O1682 O 0.15001 0.86585 0.05542 0.0
O1683 O 0.15317 0.88294 0.06331 0.0
H1684 H 0.12575 0.87604 0.0648 0.0
H1685 H 0.10982 0.86884 0.07687 0.0
H1686 H 0.08516 0.88012 0.05082 0.0
H1687 H 0.10121 0.88727 0.0388 0.0
H1688 H 0.13928 0.89461 0.99518 0.0
H1689 H 0.14146 0.88685 0.01487 0.0
H1690 H 0.17486 0.90665 0.99607 0.0
H1691 H 0.177 0.89872 0.01572 0.0
H1692 H 0.19104 0.85598 0.06222 0.0
H1693 H 0.17473 0.85817 0.09597 0.0
H1694 H 0.15774 0.86741 0.08712 0.0
H1695 H 0.17413 0.86558 0.05347 0.0
C1696 C 0.19998 0.36724 0.13719 0.0
C1697 C 0.18897 0.37203 0.13505 0.0
C1698 C 0.18619 0.37531 0.15575 0.0
C1699 C 0.18212 0.37601 0.14424 0.0
C1700 C 0.19706 0.37008 0.15788 0.0
C1701 C 0.20392 0.36611 0.14865 0.0
U1702 U 0.20586 0.3694 0.10527 0.0
O1703 O 0.22147 0.37463 0.09564 0.0
O1704 O 0.21391 0.35736 0.09271 0.0
C1705 C 0.22276 0.36434 0.09082 0.0
C1706 C 0.20771 0.36451 0.12743 0.0
C1707 C 0.23437 0.35912 0.09213 0.0
C1708 C 0.25152 0.35506 0.10381 0.0
C1709 C 0.24031 0.35965 0.10278 0.0
C1710 C 0.25089 0.34904 0.08364 0.0
C1711 C 0.25696 0.34974 0.09424 0.0
C1712 C 0.23971 0.35372 0.0826 0.0
C1713 C 0.18184 0.38573 0.08816 0.0
C1714 C 0.17905 0.38699 0.06727 0.0
C1715 C 0.16976 0.40098 0.07996 0.0
C1716 C 0.17467 0.39547 0.08959 0.0
C1717 C 0.1718 0.39676 0.0687 0.0
C1718 C 0.18404 0.38151 0.07693 0.0
C1719 C 0.187 0.3804 0.09856 0.0
O1720 O 0.20356 0.35712 0.11977 0.0
O1721 O 0.21253 0.37368 0.12263 0.0
O1722 O 0.19619 0.3857 0.10276 0.0
O1723 O 0.1879 0.369 0.09868 0.0
H1724 H 0.18583 0.37304 0.12622 0.0
H1725 H 0.17379 0.37995 0.1423 0.0
H1726 H 0.20044 0.36939 0.16663 0.0
H1727 H 0.21243 0.3625 0.15043 0.0
H1728 H 0.25592 0.35569 0.11211 0.0
H1729 H 0.23631 0.36372 0.11028 0.0
H1730 H 0.25482 0.34499 0.07611 0.0
H1731 H 0.23525 0.3532 0.07432 0.0
H1732 H 0.1809 0.38362 0.05867 0.0
H1733 H 0.16474 0.40878 0.08137 0.0
H1734 H 0.17301 0.39894 0.09819 0.0
H1735 H 0.18964 0.37405 0.07563 0.0
C1736 C 0.70038 0.13239 0.86451 0.0
C1737 C 0.68954 0.1273 0.86678 0.0
C1738 C 0.68661 0.12393 0.84613 0.0
C1739 C 0.6827 0.12312 0.85767 0.0
C1740 C 0.69731 0.12942 0.84386 0.0
C1741 C 0.70417 0.13358 0.85301 0.0
U1742 U 0.70611 0.13108 0.89645 0.0
O1743 O 0.72168 0.12619 0.90634 0.0
O1744 O 0.71396 0.14347 0.9088 0.0
C1745 C 0.72285 0.1366 0.91092 0.0
C1746 C 0.70808 0.13544 0.8742 0.0
C1747 C 0.73443 0.14188 0.90953 0.0
C1748 C 0.75149 0.14593 0.89774 0.0
C1749 C 0.74031 0.14129 0.89885 0.0
C1750 C 0.75093 0.15209 0.91786 0.0
C1751 C 0.75695 0.15133 0.90725 0.0
C1752 C 0.73977 0.14737 0.91899 0.0
C1753 C 0.68195 0.1149 0.91356 0.0
C1754 C 0.67887 0.11383 0.93442 0.0
C1755 C 0.66966 0.09981 0.92171 0.0
C1756 C 0.67474 0.1052 0.91211 0.0
C1757 C 0.67158 0.10411 0.93297 0.0
C1758 C 0.68402 0.1192 0.92478 0.0
C1759 C 0.68727 0.1201 0.90318 0.0
O1760 O 0.70383 0.143 0.88165 0.0
O1761 O 0.71296 0.12644 0.87925 0.0
O1762 O 0.69656 0.11477 0.89922 0.0
O1763 O 0.6881 0.1315 0.90288 0.0
H1764 H 0.68652 0.12625 0.87564 0.0
H1765 H 0.67449 0.11899 0.85972 0.0
H1766 H 0.70057 0.1302 0.83507 0.0
H1767 H 0.71255 0.13743 0.85113 0.0
H1768 H 0.75586 0.14526 0.88942 0.0
H1769 H 0.7363 0.13715 0.89141 0.0
H1770 H 0.75487 0.15621 0.92535 0.0
H1771 H 0.73535 0.14792 0.92729 0.0
H1772 H 0.68062 0.11725 0.94302 0.0
H1773 H 0.66461 0.09203 0.92029 0.0
H1774 H 0.67318 0.10167 0.90352 0.0
H1775 H 0.68965 0.12663 0.92609 0.0
C1776 C 0.11723 0.44995 0.11394 0.0
C1777 C 0.12202 0.43894 0.11608 0.0
C1778 C 0.12532 0.43618 0.09538 0.0
C1779 C 0.12601 0.43209 0.10688 0.0
C1780 C 0.12009 0.44704 0.09325 0.0
C1781 C 0.11611 0.45389 0.10248 0.0
U1782 U 0.11939 0.4558 0.14586 0.0
O1783 O 0.1246 0.47141 0.15551 0.0
O1784 O 0.10734 0.46382 0.15844 0.0
C1785 C 0.11432 0.47267 0.16034 0.0
C1786 C 0.11449 0.45768 0.12371 0.0
C1787 C 0.10907 0.48429 0.15906 0.0
C1788 C 0.10504 0.50148 0.14744 0.0
C1789 C 0.10964 0.49027 0.14844 0.0
C1790 C 0.09893 0.50074 0.16758 0.0
C1791 C 0.09967 0.50687 0.15702 0.0
C1792 C 0.10363 0.48956 0.16859 0.0
C1793 C 0.13575 0.4318 0.16295 0.0
C1794 C 0.13702 0.42903 0.18385 0.0
C1795 C 0.15101 0.41973 0.17115 0.0
C1796 C 0.14549 0.42464 0.16152 0.0
C1797 C 0.14679 0.42178 0.18242 0.0
C1798 C 0.13153 0.434 0.17418 0.0
C1799 C 0.13041 0.43696 0.15255 0.0
O1800 O 0.1071 0.4535 0.13137 0.0
O1801 O 0.12366 0.4625 0.1285 0.0
O1802 O 0.1357 0.44616 0.14835 0.0
O1803 O 0.11901 0.43784 0.15243 0.0
H1804 H 0.12302 0.43579 0.1249 0.0
H1805 H 0.12994 0.42376 0.10883 0.0
H1806 H 0.11941 0.45043 0.0845 0.0
H1807 H 0.1125 0.4624 0.1007 0.0
H1808 H 0.10569 0.50592 0.13917 0.0
H1809 H 0.11375 0.48632 0.14094 0.0
H1810 H 0.09485 0.50463 0.17512 0.0
H1811 H 0.10309 0.48506 0.17685 0.0
H1812 H 0.13365 0.43088 0.19244 0.0
H1813 H 0.15881 0.41471 0.16975 0.0
H1814 H 0.14896 0.42297 0.15292 0.0
H1815 H 0.12406 0.4396 0.17547 0.0
C1816 C 0.80049 0.86898 0.36463 0.0
C1817 C 0.81134 0.87405 0.36691 0.0
C1818 C 0.8143 0.8774 0.34625 0.0
C1819 C 0.8182 0.87821 0.35781 0.0
C1820 C 0.80359 0.87193 0.34398 0.0
C1821 C 0.79671 0.86779 0.35312 0.0
U1822 U 0.79476 0.8703 0.39657 0.0
O1823 O 0.7792 0.87521 0.40645 0.0
O1824 O 0.7869 0.85792 0.40892 0.0
C1825 C 0.77802 0.86481 0.41104 0.0
C1826 C 0.79277 0.86594 0.37432 0.0
C1827 C 0.76643 0.85954 0.40967 0.0
C1828 C 0.74932 0.85554 0.39791 0.0
C1829 C 0.7605 0.86019 0.39902 0.0
C1830 C 0.74998 0.84926 0.418 0.0
C1831 C 0.74391 0.85007 0.40741 0.0
C1832 C 0.76113 0.85399 0.41912 0.0
C1833 C 0.81899 0.88641 0.41365 0.0
C1834 C 0.8222 0.88741 0.4345 0.0
C1835 C 0.8313 0.90149 0.42177 0.0
C1836 C 0.82617 0.89612 0.41218 0.0
C1837 C 0.82947 0.89715 0.43302 0.0
C1838 C 0.817 0.88206 0.42487 0.0
C1839 C 0.81363 0.88123 0.40328 0.0
O1840 O 0.797 0.85837 0.38177 0.0
O1841 O 0.78792 0.87496 0.37936 0.0
O1842 O 0.80435 0.88658 0.39933 0.0
O1843 O 0.81278 0.86983 0.40298 0.0
H1844 H 0.81436 0.87509 0.37577 0.0
H1845 H 0.82641 0.88232 0.35986 0.0
H1846 H 0.80034 0.87115 0.33518 0.0
H1847 H 0.78832 0.86396 0.35123 0.0
H1848 H 0.74493 0.85625 0.38962 0.0
H1849 H 0.76448 0.86438 0.39158 0.0
H1850 H 0.74607 0.84509 0.42548 0.0
H1851 H 0.76558 0.85339 0.4274 0.0
H1852 H 0.82051 0.88396 0.44309 0.0
H1853 H 0.83633 0.90928 0.42034 0.0
H1854 H 0.82768 0.89969 0.40359 0.0
H1855 H 0.81139 0.87461 0.42619 0.0
C1856 C 0.88258 0.05086 0.11461 0.0
C1857 C 0.87739 0.06165 0.11693 0.0
C1858 C 0.87417 0.06475 0.09627 0.0
C1859 C 0.87324 0.06855 0.10785 0.0
C1860 C 0.87976 0.05411 0.09396 0.0
C1861 C 0.88389 0.04719 0.10308 0.0
U1862 U 0.88102 0.04481 0.14648 0.0
O1863 O 0.87612 0.02913 0.15617 0.0
O1864 O 0.89334 0.03689 0.15886 0.0
C1865 C 0.88649 0.02796 0.16084 0.0
C1866 C 0.88559 0.04308 0.12425 0.0
C1867 C 0.89183 0.01641 0.15941 0.0
C1868 C 0.89592 0.99937 0.14759 0.0
C1869 C 0.89124 0.01053 0.14873 0.0
C1870 C 0.90212 0.99992 0.16771 0.0
C1871 C 0.90136 0.99391 0.15709 0.0
C1872 C 0.89736 0.01106 0.16886 0.0
C1873 C 0.86458 0.06871 0.16371 0.0
C1874 C 0.86334 0.07154 0.1846 0.0
C1875 C 0.84937 0.08084 0.17188 0.0
C1876 C 0.85486 0.0759 0.16227 0.0
C1877 C 0.85359 0.07881 0.18315 0.0
C1878 C 0.86881 0.06652 0.17494 0.0
C1879 C 0.86989 0.06354 0.15331 0.0
O1880 O 0.89306 0.04729 0.13181 0.0
O1881 O 0.87657 0.03812 0.12917 0.0
O1882 O 0.86464 0.05428 0.1492 0.0
O1883 O 0.88129 0.06277 0.15309 0.0
H1884 H 0.87625 0.06459 0.12581 0.0
H1885 H 0.86903 0.07671 0.10993 0.0
H1886 H 0.88063 0.05094 0.08514 0.0
H1887 H 0.88782 0.03885 0.10116 0.0
H1888 H 0.89525 0.99501 0.13928 0.0
H1889 H 0.88708 0.01454 0.1413 0.0
H1890 H 0.90627 0.99598 0.17519 0.0
H1891 H 0.89791 0.01548 0.17716 0.0
H1892 H 0.8667 0.0697 0.1932 0.0
H1893 H 0.84157 0.08588 0.17047 0.0
H1894 H 0.85138 0.07756 0.15366 0.0
H1895 H 0.87626 0.06091 0.17624 0.0
C1896 C 0.30034 0.63243 0.63713 0.0
C1897 C 0.31123 0.62745 0.63482 0.0
C1898 C 0.31409 0.62373 0.65543 0.0
C1899 C 0.31806 0.62315 0.64389 0.0
C1900 C 0.30334 0.62912 0.65774 0.0
C1901 C 0.29649 0.63339 0.64863 0.0
U1902 U 0.29469 0.63131 0.60519 0.0
O1903 O 0.27916 0.62647 0.59522 0.0
O1904 O 0.28689 0.64375 0.59286 0.0
C1905 C 0.27802 0.63689 0.59065 0.0
C1906 C 0.29264 0.63555 0.62745 0.0
C1907 C 0.26643 0.64216 0.59193 0.0
C1908 C 0.24921 0.64617 0.60351 0.0
C1909 C 0.26041 0.64154 0.60253 0.0
C1910 C 0.25001 0.65238 0.58341 0.0
C1911 C 0.24386 0.6516 0.59395 0.0
C1912 C 0.26119 0.64767 0.58241 0.0
C1913 C 0.3189 0.61522 0.58807 0.0
C1914 C 0.32191 0.61422 0.5672 0.0
C1915 C 0.33122 0.6002 0.57985 0.0
C1916 C 0.32616 0.60555 0.58948 0.0
C1917 C 0.32925 0.60452 0.56861 0.0
C1918 C 0.31677 0.61955 0.57687 0.0
C1919 C 0.31356 0.62036 0.59848 0.0
O1920 O 0.2969 0.64316 0.62005 0.0
O1921 O 0.28777 0.62659 0.62235 0.0
O1922 O 0.30426 0.61501 0.60239 0.0
O1923 O 0.31273 0.63175 0.59884 0.0
H1924 H 0.3143 0.62657 0.62596 0.0
H1925 H 0.32631 0.61911 0.64181 0.0
H1926 H 0.30004 0.62972 0.66653 0.0
H1927 H 0.28807 0.63715 0.65054 0.0
H1928 H 0.24474 0.64547 0.61177 0.0
H1929 H 0.26434 0.63738 0.61001 0.0
H1930 H 0.24616 0.65652 0.57589 0.0
H1931 H 0.26571 0.64826 0.57417 0.0
H1932 H 0.32011 0.61766 0.55862 0.0
H1933 H 0.33631 0.59243 0.58123 0.0
H1934 H 0.32777 0.602 0.59806 0.0
H1935 H 0.3111 0.62696 0.5756 0.0
C1936 C 0.11864 0.55061 0.38731 0.0
C1937 C 0.12365 0.56148 0.38498 0.0
C1938 C 0.12738 0.56435 0.40558 0.0
C1939 C 0.12797 0.56831 0.39404 0.0
C1940 C 0.12197 0.55363 0.40791 0.0
C1941 C 0.11766 0.54679 0.39882 0.0
U1942 U 0.11977 0.54489 0.35538 0.0
O1943 O 0.12457 0.52932 0.34546 0.0
O1944 O 0.10731 0.53711 0.34306 0.0
C1945 C 0.11416 0.52821 0.34089 0.0
C1946 C 0.11549 0.54291 0.37765 0.0
C1947 C 0.10885 0.51664 0.34219 0.0
C1948 C 0.10483 0.49944 0.35382 0.0
C1949 C 0.10947 0.51064 0.35281 0.0
C1950 C 0.0986 0.50024 0.33372 0.0
C1951 C 0.09939 0.49409 0.34427 0.0
C1952 C 0.10332 0.5114 0.33269 0.0
C1953 C 0.13596 0.56898 0.33822 0.0
C1954 C 0.13706 0.57186 0.31733 0.0
C1955 C 0.15102 0.58124 0.32998 0.0
C1956 C 0.14563 0.57624 0.33962 0.0
C1957 C 0.14676 0.57919 0.31873 0.0
C1958 C 0.13168 0.56678 0.32701 0.0
C1959 C 0.13079 0.5637 0.34863 0.0
O1960 O 0.10791 0.54719 0.37023 0.0
O1961 O 0.12445 0.53799 0.37256 0.0
O1962 O 0.1361 0.55439 0.35258 0.0
O1963 O 0.11939 0.56292 0.34898 0.0
H1964 H 0.12454 0.56453 0.37612 0.0
H1965 H 0.13204 0.57653 0.39194 0.0
H1966 H 0.12136 0.55035 0.41671 0.0
H1967 H 0.11388 0.53838 0.40075 0.0
H1968 H 0.10553 0.49499 0.36208 0.0
H1969 H 0.11364 0.51456 0.36028 0.0
H1970 H 0.09445 0.49638 0.3262 0.0
H1971 H 0.10275 0.51591 0.32444 0.0
H1972 H 0.13366 0.57 0.30875 0.0
H1973 H 0.15879 0.58632 0.33136 0.0
H1974 H 0.14914 0.5779 0.3482 0.0
H1975 H 0.12428 0.56111 0.32575 0.0
C1976 C 0.38224 0.45038 0.88636 0.0
C1977 C 0.37723 0.43949 0.88412 0.0
C1978 C 0.37399 0.43655 0.9048 0.0
C1979 C 0.37314 0.43263 0.89325 0.0
C1980 C 0.3794 0.4473 0.90702 0.0
C1981 C 0.38346 0.45418 0.89785 0.0
U1982 U 0.38157 0.45593 0.8543 0.0
O1983 O 0.37651 0.47136 0.84426 0.0
O1984 O 0.39407 0.46412 0.84229 0.0
C1985 C 0.387 0.4728 0.83994 0.0
C1986 C 0.38525 0.45809 0.87666 0.0
C1987 C 0.39193 0.48452 0.84136 0.0
C1988 C 0.39538 0.50174 0.85312 0.0
C1989 C 0.39095 0.49048 0.85197 0.0
C1990 C 0.40208 0.50113 0.83317 0.0
C1991 C 0.40098 0.50721 0.84373 0.0
C1992 C 0.39757 0.48989 0.832 0.0
C1993 C 0.36701 0.43151 0.83641 0.0
C1994 C 0.35844 0.43335 0.81722 0.0
C1995 C 0.35956 0.41446 0.82646 0.0
C1996 C 0.36501 0.4195 0.83607 0.0
C1997 C 0.35594 0.42137 0.81707 0.0
C1998 C 0.36391 0.43839 0.82684 0.0
C1999 C 0.37156 0.43671 0.84714 0.0
O2000 O 0.39314 0.45405 0.86944 0.0
O2001 O 0.37621 0.46261 0.87135 0.0
O2002 O 0.36579 0.44576 0.85105 0.0
O2003 O 0.3829 0.43792 0.84785 0.0
H2004 H 0.37617 0.43645 0.87526 0.0
H2005 H 0.36907 0.42439 0.89124 0.0
H2006 H 0.38021 0.45056 0.91581 0.0
H2007 H 0.38726 0.46259 0.89971 0.0
H2008 H 0.39444 0.50614 0.86139 0.0
H2009 H 0.38669 0.48644 0.85934 0.0
H2010 H 0.40635 0.50508 0.82577 0.0
H2011 H 0.39843 0.48542 0.82376 0.0
H2012 H 0.35585 0.43889 0.81006 0.0
H2013 H 0.35822 0.40516 0.8264 0.0
H2014 H 0.36745 0.41405 0.84336 0.0
H2015 H 0.36544 0.44768 0.82694 0.0
C2016 C 0.85993 0.80431 0.63572 0.0
C2017 C 0.86106 0.8164 0.63464 0.0
C2018 C 0.84057 0.81812 0.62968 0.0
C2019 C 0.85148 0.82323 0.63172 0.0
C2020 C 0.83938 0.80602 0.63102 0.0
C2021 C 0.84901 0.79916 0.63401 0.0
U2022 U 0.89231 0.80149 0.6336 0.0
O2023 O 0.90557 0.79405 0.64521 0.0
O2024 O 0.90354 0.78733 0.62745 0.0
C2025 C 0.90865 0.78611 0.6376 0.0
C2026 C 0.87032 0.79711 0.63766 0.0
C2027 C 0.90931 0.77419 0.64209 0.0
C2028 C 0.90047 0.75548 0.64621 0.0
C2029 C 0.89962 0.7668 0.64184 0.0
C2030 C 0.92065 0.75893 0.65121 0.0
C2031 C 0.91099 0.75145 0.65096 0.0
C2032 C 0.91981 0.7702 0.64679 0.0
C2033 C 0.9084 0.82766 0.62077 0.0
C2034 C 0.92778 0.82691 0.61236 0.0
C2035 C 0.91743 0.84523 0.61349 0.0
C2036 C 0.90811 0.83966 0.61889 0.0
C2037 C 0.92722 0.83887 0.60982 0.0
C2038 C 0.91841 0.82134 0.61779 0.0
C2039 C 0.89783 0.82181 0.62489 0.0
O2040 O 0.87565 0.79388 0.62809 0.0
O2041 O 0.8775 0.80092 0.6457 0.0
O2042 O 0.89716 0.81986 0.63612 0.0
O2043 O 0.89438 0.81297 0.61854 0.0
H2044 H 0.86945 0.82054 0.63578 0.0
H2045 H 0.85274 0.83251 0.63075 0.0
H2046 H 0.8311 0.80182 0.62949 0.0
H2047 H 0.848 0.78983 0.63471 0.0
H2048 H 0.89286 0.74995 0.64594 0.0
H2049 H 0.89142 0.76978 0.6383 0.0
H2050 H 0.92887 0.75609 0.65482 0.0
H2051 H 0.92735 0.77583 0.64707 0.0
H2052 H 0.93518 0.82176 0.60967 0.0
H2053 H 0.91672 0.85446 0.61176 0.0
H2054 H 0.90046 0.84467 0.62118 0.0
H2055 H 0.91879 0.81204 0.61924 0.0
C2056 C 0.94673 0.10964 0.38537 0.0
C2057 C 0.93465 0.11084 0.38423 0.0
C2058 C 0.93286 0.09036 0.37927 0.0
C2059 C 0.92779 0.1013 0.38127 0.0
C2060 C 0.94496 0.0891 0.38066 0.0
C2061 C 0.95184 0.0987 0.38369 0.0
U2062 U 0.9496 0.14202 0.38345 0.0
O2063 O 0.95708 0.15519 0.39511 0.0
O2064 O 0.96376 0.15326 0.37732 0.0
C2065 C 0.96501 0.1583 0.3875 0.0
C2066 C 0.95396 0.12 0.38736 0.0
C2067 C 0.97693 0.15892 0.39198 0.0
C2068 C 0.9957 0.15008 0.39588 0.0
C2069 C 0.98437 0.14926 0.39155 0.0
C2070 C 0.99218 0.17017 0.40121 0.0
C2071 C 0.99971 0.16054 0.40077 0.0
C2072 C 0.98089 0.16935 0.39682 0.0
C2073 C 0.92343 0.15824 0.37074 0.0
C2074 C 0.92419 0.17766 0.36242 0.0
C2075 C 0.90587 0.16731 0.36346 0.0
C2076 C 0.91143 0.15796 0.36883 0.0
C2077 C 0.91223 0.17711 0.35985 0.0
C2078 C 0.92975 0.16826 0.36782 0.0
C2079 C 0.92927 0.14763 0.37479 0.0
O2080 O 0.95719 0.12538 0.37782 0.0
O2081 O 0.95017 0.12714 0.39545 0.0
O2082 O 0.93124 0.1469 0.38602 0.0
O2083 O 0.9381 0.1442 0.36841 0.0
H2084 H 0.93054 0.11925 0.38535 0.0
H2085 H 0.91852 0.10261 0.38026 0.0
H2086 H 0.94913 0.0808 0.37916 0.0
H2087 H 0.96117 0.09764 0.38443 0.0
H2088 H 0.00127 0.1425 0.39547 0.0
H2089 H 0.98141 0.14111 0.38789 0.0
H2090 H 0.99499 0.17834 0.40493 0.0
H2091 H 0.97524 0.17688 0.39724 0.0
H2092 H 0.92934 0.18507 0.35977 0.0
H2093 H 0.89664 0.16662 0.3617 0.0
H2094 H 0.90642 0.1503 0.37108 0.0
H2095 H 0.93905 0.16862 0.36929 0.0
C2096 C 0.64149 0.19677 0.13545 0.0
C2097 C 0.64029 0.18471 0.13425 0.0
C2098 C 0.6608 0.18291 0.12941 0.0
C2099 C 0.64984 0.17785 0.13133 0.0
C2100 C 0.66205 0.195 0.13084 0.0
C2101 C 0.65244 0.20188 0.13383 0.0
U2102 U 0.60911 0.1996 0.13356 0.0
O2103 O 0.59594 0.20708 0.14523 0.0
O2104 O 0.59781 0.21371 0.12742 0.0
C2105 C 0.59278 0.21498 0.13761 0.0
C2106 C 0.63112 0.204 0.13743 0.0
C2107 C 0.59215 0.22691 0.14204 0.0
C2108 C 0.60103 0.24563 0.14602 0.0
C2109 C 0.60186 0.23428 0.14177 0.0
C2110 C 0.58083 0.24228 0.15099 0.0
C2111 C 0.5905 0.24974 0.15069 0.0
C2112 C 0.58166 0.23097 0.14668 0.0
C2113 C 0.59298 0.17333 0.12094 0.0
C2114 C 0.57356 0.17396 0.11263 0.0
C2115 C 0.584 0.15569 0.11379 0.0
C2116 C 0.59332 0.16132 0.11912 0.0
C2117 C 0.57416 0.162 0.11014 0.0
C2118 C 0.58293 0.1796 0.11799 0.0
C2119 C 0.60356 0.17923 0.12497 0.0
O2120 O 0.62572 0.2072 0.12789 0.0
O2121 O 0.624 0.20023 0.14554 0.0
O2122 O 0.6043 0.18123 0.13619 0.0
O2123 O 0.60694 0.18806 0.11856 0.0
H2124 H 0.63188 0.18061 0.13532 0.0
H2125 H 0.64854 0.16858 0.13028 0.0
H2126 H 0.67037 0.19916 0.1294 0.0
H2127 H 0.6535 0.2112 0.13462 0.0
H2128 H 0.60865 0.25115 0.14572 0.0
H2129 H 0.61007 0.23125 0.13827 0.0
H2130 H 0.5726 0.24517 0.15453 0.0
H2131 H 0.57409 0.22537 0.14698 0.0
H2132 H 0.56612 0.17907 0.10995 0.0
H2133 H 0.58473 0.14646 0.11209 0.0
H2134 H 0.601 0.15636 0.12139 0.0
H2135 H 0.58252 0.1889 0.11939 0.0
C2136 C 0.55438 0.89149 0.88533 0.0
C2137 C 0.56645 0.89028 0.88417 0.0
C2138 C 0.56826 0.91079 0.87933 0.0
C2139 C 0.57332 0.89983 0.88127 0.0
C2140 C 0.55617 0.91205 0.88072 0.0
C2141 C 0.54928 0.90244 0.8837 0.0
U2142 U 0.55156 0.85912 0.88334 0.0
O2143 O 0.54411 0.84591 0.89499 0.0
O2144 O 0.53743 0.84785 0.8772 0.0
C2145 C 0.53619 0.84278 0.88737 0.0
C2146 C 0.54715 0.88113 0.88728 0.0
C2147 C 0.52427 0.84213 0.89184 0.0
C2148 C 0.50552 0.85095 0.89586 0.0
C2149 C 0.51684 0.85179 0.8915 0.0
C2150 C 0.50904 0.83082 0.90103 0.0
C2151 C 0.50152 0.84045 0.90069 0.0
C2152 C 0.52032 0.83166 0.89662 0.0
C2153 C 0.57783 0.84301 0.87071 0.0
C2154 C 0.57722 0.82361 0.86233 0.0
C2155 C 0.59551 0.83399 0.86366 0.0
C2156 C 0.58986 0.84331 0.86897 0.0
C2157 C 0.58921 0.82418 0.85993 0.0
C2158 C 0.57157 0.83298 0.86767 0.0
C2159 C 0.57192 0.85358 0.87474 0.0
O2160 O 0.54395 0.87576 0.87772 0.0
O2161 O 0.55092 0.87397 0.89537 0.0
O2162 O 0.56993 0.8543 0.88596 0.0
O2163 O 0.56309 0.85697 0.86833 0.0
H2164 H 0.57055 0.88186 0.88525 0.0
H2165 H 0.58259 0.89851 0.88025 0.0
H2166 H 0.55201 0.92037 0.87927 0.0
H2167 H 0.53995 0.90351 0.88445 0.0
H2168 H 0.49996 0.85854 0.89553 0.0
H2169 H 0.51979 0.85998 0.8879 0.0
H2170 H 0.50624 0.82262 0.90471 0.0
H2171 H 0.52597 0.82413 0.89697 0.0
H2172 H 0.57212 0.8162 0.85959 0.0
H2173 H 0.60476 0.8347 0.86203 0.0
H2174 H 0.59482 0.85096 0.87131 0.0
H2175 H 0.56225 0.8326 0.86901 0.0
C2176 C 0.85957 0.19636 0.86534 0.0
C2177 C 0.86068 0.18428 0.86649 0.0
C2178 C 0.8402 0.18267 0.87155 0.0
C2179 C 0.8511 0.1775 0.8695 0.0
C2180 C 0.83904 0.19477 0.87015 0.0
C2181 C 0.84868 0.20157 0.86707 0.0
U2182 U 0.89197 0.19908 0.86728 0.0
O2183 O 0.90518 0.20643 0.85556 0.0
O2184 O 0.90327 0.21322 0.87331 0.0
C2185 C 0.90832 0.2144 0.86312 0.0
C2186 C 0.86997 0.20351 0.8633 0.0
C2187 C 0.90894 0.22629 0.85858 0.0
C2188 C 0.90007 0.24501 0.85453 0.0
C2189 C 0.89924 0.23368 0.85884 0.0
C2190 C 0.92025 0.24159 0.84951 0.0
C2191 C 0.9106 0.24908 0.84982 0.0
C2192 C 0.91942 0.2303 0.85388 0.0
C2193 C 0.90805 0.17296 0.88026 0.0
C2194 C 0.92742 0.17372 0.88869 0.0
C2195 C 0.91706 0.15541 0.88765 0.0
C2196 C 0.90775 0.16097 0.88221 0.0
C2197 C 0.92685 0.16178 0.8913 0.0
C2198 C 0.91807 0.17928 0.88322 0.0
C2199 C 0.89748 0.1788 0.87612 0.0
O2200 O 0.87536 0.20679 0.87282 0.0
O2201 O 0.87711 0.19961 0.85525 0.0
O2202 O 0.89679 0.18068 0.86488 0.0
O2203 O 0.89407 0.1877 0.88242 0.0
H2204 H 0.86905 0.1801 0.86534 0.0
H2205 H 0.85233 0.16822 0.87052 0.0
H2206 H 0.83078 0.19901 0.87169 0.0
H2207 H 0.84769 0.2109 0.86631 0.0
H2208 H 0.89247 0.25056 0.85484 0.0
H2209 H 0.89104 0.23069 0.86239 0.0
H2210 H 0.92847 0.24445 0.84592 0.0
H2211 H 0.92698 0.22468 0.85358 0.0
H2212 H 0.93483 0.17887 0.89136 0.0
H2213 H 0.91634 0.1462 0.88944 0.0
H2214 H 0.9001 0.15596 0.87994 0.0
H2215 H 0.91845 0.18857 0.88172 0.0
C2216 C 0.55393 0.10984 0.61586 0.0
C2217 C 0.56602 0.11103 0.61687 0.0
C2218 C 0.56786 0.09053 0.62176 0.0
C2219 C 0.57291 0.10147 0.61972 0.0
C2220 C 0.55575 0.08929 0.62051 0.0
C2221 C 0.54883 0.0989 0.61759 0.0
U2222 U 0.55113 0.14221 0.61794 0.0
O2223 O 0.54362 0.15547 0.60639 0.0
O2224 O 0.53705 0.15348 0.62421 0.0
C2225 C 0.53576 0.1586 0.61407 0.0
C2226 C 0.54668 0.12022 0.61398 0.0
C2227 C 0.52382 0.15932 0.60967 0.0
C2228 C 0.50505 0.15056 0.60562 0.0
C2229 C 0.51638 0.14965 0.60994 0.0
C2230 C 0.50856 0.17074 0.60066 0.0
C2231 C 0.50104 0.16111 0.6009 0.0
C2232 C 0.51984 0.16984 0.60503 0.0
C2233 C 0.5775 0.15824 0.63043 0.0
C2234 C 0.57695 0.17767 0.63873 0.0
C2235 C 0.59519 0.1672 0.6375 0.0
C2236 C 0.58952 0.15788 0.6322 0.0
C2237 C 0.58892 0.17705 0.64116 0.0
C2238 C 0.57127 0.16831 0.63341 0.0
C2239 C 0.57156 0.14768 0.62642 0.0
O2240 O 0.54355 0.12557 0.62357 0.0
O2241 O 0.55039 0.12739 0.60588 0.0
O2242 O 0.56948 0.14699 0.61521 0.0
O2243 O 0.56278 0.1443 0.63288 0.0
H2244 H 0.57011 0.11943 0.61572 0.0
H2245 H 0.58219 0.10277 0.62062 0.0
H2246 H 0.5516 0.08099 0.62205 0.0
H2247 H 0.5395 0.09786 0.61695 0.0
H2248 H 0.49949 0.14297 0.60588 0.0
H2249 H 0.51935 0.14143 0.61344 0.0
H2250 H 0.50574 0.17897 0.59707 0.0
H2251 H 0.52549 0.17736 0.60474 0.0
H2252 H 0.57187 0.18513 0.64142 0.0
H2253 H 0.60443 0.16645 0.63915 0.0
H2254 H 0.59446 0.1502 0.62991 0.0
H2255 H 0.56196 0.16873 0.63204 0.0
C2256 C 0.64141 0.8044 0.36534 0.0
C2257 C 0.64028 0.81649 0.36643 0.0
C2258 C 0.66073 0.81816 0.37159 0.0
C2259 C 0.64984 0.8233 0.36946 0.0
C2260 C 0.66192 0.80606 0.37025 0.0
C2261 C 0.65231 0.79923 0.36715 0.0
U2262 U 0.60901 0.80161 0.36722 0.0
O2263 O 0.59584 0.79418 0.35552 0.0
O2264 O 0.59775 0.78745 0.3733 0.0
C2265 C 0.5927 0.78624 0.36311 0.0
C2266 C 0.63103 0.79722 0.36331 0.0
C2267 C 0.59206 0.77432 0.35862 0.0
C2268 C 0.60089 0.75557 0.35464 0.0
C2269 C 0.60176 0.76693 0.35889 0.0
C2270 C 0.5807 0.759 0.34967 0.0
C2271 C 0.59035 0.7515 0.34997 0.0
C2272 C 0.58156 0.77031 0.35398 0.0
C2273 C 0.59285 0.82774 0.38008 0.0
C2274 C 0.57345 0.82697 0.38844 0.0
C2275 C 0.58383 0.84527 0.38747 0.0
C2276 C 0.59315 0.83973 0.38204 0.0
C2277 C 0.57403 0.83891 0.39107 0.0
C2278 C 0.58283 0.82142 0.38299 0.0
C2279 C 0.60344 0.8219 0.37598 0.0
O2280 O 0.62563 0.79395 0.37283 0.0
O2281 O 0.6239 0.80107 0.35523 0.0
O2282 O 0.60415 0.81998 0.36474 0.0
O2283 O 0.60687 0.81304 0.38231 0.0
H2284 H 0.63191 0.82065 0.36522 0.0
H2285 H 0.64858 0.83258 0.37043 0.0
H2286 H 0.67018 0.80184 0.37185 0.0
H2287 H 0.65332 0.78989 0.36645 0.0
H2288 H 0.6085 0.75003 0.35494 0.0
H2289 H 0.60997 0.76992 0.3624 0.0
H2290 H 0.57246 0.75614 0.34612 0.0
H2291 H 0.57401 0.77594 0.35368 0.0
H2292 H 0.56604 0.82181 0.39108 0.0
H2293 H 0.58454 0.85449 0.38927 0.0
H2294 H 0.60081 0.84474 0.37981 0.0
H2295 H 0.58245 0.81213 0.38148 0.0
C2296 C 0.94633 0.89132 0.11531 0.0
C2297 C 0.93426 0.89018 0.11654 0.0
C2298 C 0.9326 0.91069 0.12149 0.0
C2299 C 0.92746 0.89977 0.11953 0.0
C2300 C 0.94469 0.91187 0.12002 0.0
C2301 C 0.95151 0.90223 0.11695 0.0
U2302 U 0.94911 0.85891 0.11714 0.0
O2303 O 0.95652 0.84577 0.10539 0.0
O2304 O 0.96326 0.8476 0.12316 0.0
C2305 C 0.96448 0.84261 0.11295 0.0
C2306 C 0.9535 0.88093 0.11326 0.0
C2307 C 0.97639 0.84205 0.10844 0.0
C2308 C 0.99507 0.85101 0.10447 0.0
C2309 C 0.98373 0.85178 0.10876 0.0
C2310 C 0.99176 0.83083 0.09937 0.0
C2311 C 0.9992 0.84051 0.09973 0.0
C2312 C 0.98045 0.8316 0.10371 0.0
C2313 C 0.92297 0.84275 0.12998 0.0
C2314 C 0.9237 0.82335 0.13835 0.0
C2315 C 0.90539 0.83373 0.13726 0.0
C2316 C 0.91097 0.84306 0.13187 0.0
C2317 C 0.91175 0.82392 0.1409 0.0
C2318 C 0.92928 0.83272 0.13293 0.0
C2319 C 0.92882 0.85334 0.1259 0.0
O2320 O 0.95676 0.87551 0.12277 0.0
O2321 O 0.94963 0.87382 0.10517 0.0
O2322 O 0.93072 0.85408 0.11467 0.0
O2323 O 0.93769 0.85673 0.13224 0.0
H2324 H 0.93011 0.8818 0.11545 0.0
H2325 H 0.9182 0.89851 0.12061 0.0
H2326 H 0.94891 0.92015 0.12148 0.0
H2327 H 0.96083 0.90324 0.11614 0.0
H2328 H 1.00058 0.85863 0.10483 0.0
H2329 H 0.98069 0.85995 0.11233 0.0
H2330 H 0.99467 0.82264 0.09576 0.0
H2331 H 0.97487 0.82402 0.10337 0.0
H2332 H 0.92884 0.81593 0.14102 0.0
H2333 H 0.89617 0.83445 0.139 0.0
H2334 H 0.90597 0.85071 0.1296 0.0
H2335 H 0.93858 0.83234 0.13148 0.0
C2336 C 0.63552 0.85975 0.80436 0.0
C2337 C 0.63432 0.86096 0.81642 0.0
C2338 C 0.62951 0.84044 0.81824 0.0
C2339 C 0.63141 0.85141 0.82329 0.0
C2340 C 0.63094 0.83918 0.80615 0.0
C2341 C 0.63392 0.84879 0.79926 0.0
U2342 U 0.63358 0.89212 0.80152 0.0
O2343 O 0.64523 0.9053 0.79403 0.0
O2344 O 0.62742 0.9034 0.7874 0.0
C2345 C 0.6376 0.90844 0.78613 0.0
C2346 C 0.63748 0.87011 0.79712 0.0
C2347 C 0.64204 0.90907 0.77419 0.0
C2348 C 0.64601 0.9002 0.75546 0.0
C2349 C 0.64176 0.89936 0.76682 0.0
C2350 C 0.65098 0.9204 0.75883 0.0
C2351 C 0.65068 0.91073 0.75136 0.0
C2352 C 0.64667 0.91956 0.77014 0.0
C2353 C 0.62095 0.90824 0.82778 0.0
C2354 C 0.61261 0.92766 0.82716 0.0
C2355 C 0.61378 0.91723 0.84542 0.0
C2356 C 0.61912 0.90791 0.83979 0.0
C2357 C 0.61013 0.92707 0.83912 0.0
C2358 C 0.61798 0.9183 0.82152 0.0
C2359 C 0.62499 0.89767 0.82188 0.0
O2360 O 0.62793 0.8755 0.79392 0.0
O2361 O 0.64559 0.87724 0.80089 0.0
O2362 O 0.63621 0.89695 0.81988 0.0
O2363 O 0.61858 0.89428 0.81306 0.0
H2364 H 0.63538 0.86938 0.82051 0.0
H2365 H 0.63037 0.85273 0.83256 0.0
H2366 H 0.62951 0.83086 0.802 0.0
H2367 H 0.6347 0.84772 0.78994 0.0
H2368 H 0.6457 0.89258 0.74994 0.0
H2369 H 0.63826 0.89116 0.76985 0.0
H2370 H 0.65453 0.92862 0.75594 0.0
H2371 H 0.64698 0.92713 0.77575 0.0
H2372 H 0.60992 0.9351 0.82205 0.0
H2373 H 0.61209 0.9165 0.85466 0.0
H2374 H 0.62141 0.90024 0.84476 0.0
H2375 H 0.61938 0.9187 0.81221 0.0
C2376 C 0.8916 0.88525 0.55427 0.0
C2377 C 0.89047 0.88414 0.56635 0.0
C2378 C 0.91097 0.87919 0.56806 0.0
C2379 C 0.90005 0.88121 0.57318 0.0
C2380 C 0.91215 0.88053 0.55596 0.0
C2381 C 0.90252 0.88354 0.54911 0.0
U2382 U 0.85922 0.88325 0.55154 0.0
O2383 O 0.84597 0.89489 0.54413 0.0
O2384 O 0.84792 0.87711 0.53743 0.0
C2385 C 0.84284 0.88728 0.53621 0.0
C2386 C 0.8812 0.88721 0.54709 0.0
C2387 C 0.84216 0.89176 0.52429 0.0
C2388 C 0.85095 0.8958 0.50554 0.0
C2389 C 0.85182 0.89144 0.51685 0.0
C2390 C 0.83082 0.90094 0.50907 0.0
C2391 C 0.84044 0.90062 0.50154 0.0
C2392 C 0.83168 0.89652 0.52034 0.0
C2393 C 0.84317 0.87053 0.57779 0.0
C2394 C 0.82378 0.86216 0.57714 0.0
C2395 C 0.83417 0.86336 0.59543 0.0
C2396 C 0.84349 0.86871 0.58981 0.0
C2397 C 0.82436 0.85968 0.58911 0.0
C2398 C 0.83314 0.86755 0.57152 0.0
C2399 C 0.85373 0.8746 0.5719 0.0
O2400 O 0.87583 0.87766 0.54388 0.0
O2401 O 0.87406 0.89529 0.5509 0.0
O2402 O 0.85443 0.88583 0.56992 0.0
O2403 O 0.85713 0.86822 0.56306 0.0
H2404 H 0.88208 0.88528 0.5705 0.0
H2405 H 0.89879 0.88023 0.58246 0.0
H2406 H 0.92043 0.87901 0.55175 0.0
H2407 H 0.90352 0.88425 0.53978 0.0
H2408 H 0.85854 0.89548 0.49997 0.0
H2409 H 0.86001 0.88784 0.5198 0.0
H2410 H 0.82261 0.90461 0.50627 0.0
H2411 H 0.82416 0.89686 0.526 0.0
H2412 H 0.81635 0.85946 0.57202 0.0
H2413 H 0.83489 0.86167 0.60466 0.0
H2414 H 0.85115 0.87101 0.59478 0.0
H2415 H 0.83274 0.86895 0.56221 0.0
C2416 C 0.86592 0.14174 0.30393 0.0
C2417 C 0.86717 0.1405 0.31599 0.0
C2418 C 0.8721 0.16099 0.3178 0.0
C2419 C 0.87016 0.15003 0.32285 0.0
C2420 C 0.87061 0.16228 0.30572 0.0
C2421 C 0.86755 0.15269 0.29883 0.0
U2422 U 0.86777 0.10938 0.30114 0.0
O2423 O 0.85602 0.09616 0.29391 0.0
O2424 O 0.87372 0.09802 0.287 0.0
C2425 C 0.86355 0.09293 0.28595 0.0
C2426 C 0.86386 0.13139 0.2967 0.0
C2427 C 0.85894 0.09207 0.27409 0.0
C2428 C 0.85456 0.10056 0.25528 0.0
C2429 C 0.85902 0.10164 0.26654 0.0
C2430 C 0.84982 0.08039 0.25911 0.0
C2431 C 0.8499 0.08992 0.25146 0.0
C2432 C 0.85433 0.08146 0.27032 0.0
C2433 C 0.8806 0.09333 0.32735 0.0
C2434 C 0.88876 0.07384 0.32674 0.0
C2435 C 0.88774 0.08432 0.34498 0.0
C2436 C 0.88247 0.09367 0.33935 0.0
C2437 C 0.89129 0.07444 0.3387 0.0
C2438 C 0.88346 0.08325 0.3211 0.0
C2439 C 0.87657 0.10391 0.32144 0.0
O2440 O 0.87336 0.12597 0.29342 0.0
O2441 O 0.85577 0.12427 0.30055 0.0
O2442 O 0.86533 0.10469 0.31956 0.0
O2443 O 0.8829 0.10722 0.31253 0.0
H2444 H 0.86609 0.13209 0.32008 0.0
H2445 H 0.87125 0.14869 0.33211 0.0
H2446 H 0.87207 0.1706 0.30156 0.0
H2447 H 0.86672 0.15378 0.28951 0.0
H2448 H 0.85469 0.10808 0.24961 0.0
H2449 H 0.8625 0.10992 0.26935 0.0
H2450 H 0.84629 0.07208 0.25645 0.0
H2451 H 0.85419 0.074 0.27607 0.0
H2452 H 0.89137 0.06637 0.32165 0.0
H2453 H 0.88947 0.08505 0.35422 0.0
H2454 H 0.88026 0.10137 0.34431 0.0
H2455 H 0.88201 0.08283 0.3118 0.0
C2456 C 0.60977 0.11584 0.05436 0.0
C2457 C 0.61098 0.117 0.06643 0.0
C2458 C 0.59046 0.12184 0.06825 0.0
C2459 C 0.60143 0.11991 0.0733 0.0
C2460 C 0.5892 0.12043 0.05616 0.0
C2461 C 0.59881 0.11746 0.04926 0.0
U2462 U 0.64214 0.1178 0.05152 0.0
O2463 O 0.65535 0.10616 0.04406 0.0
O2464 O 0.6534 0.12395 0.03738 0.0
C2465 C 0.65847 0.11378 0.03615 0.0
C2466 C 0.62013 0.11388 0.04712 0.0
C2467 C 0.65913 0.10931 0.02423 0.0
C2468 C 0.65032 0.10528 0.00548 0.0
C2469 C 0.64946 0.10963 0.0168 0.0
C2470 C 0.67046 0.10014 0.00899 0.0
C2471 C 0.66082 0.10046 0.00148 0.0
C2472 C 0.66961 0.10455 0.02026 0.0
C2473 C 0.65825 0.13043 0.07778 0.0
C2474 C 0.67766 0.13876 0.07716 0.0
C2475 C 0.66726 0.13751 0.09544 0.0
C2476 C 0.65794 0.1322 0.0898 0.0
C2477 C 0.67709 0.14119 0.08914 0.0
C2478 C 0.66829 0.13342 0.07151 0.0
C2479 C 0.64768 0.1264 0.07188 0.0
O2480 O 0.6255 0.12344 0.04392 0.0
O2481 O 0.62728 0.10578 0.05089 0.0
O2482 O 0.64695 0.11518 0.06988 0.0
O2483 O 0.64429 0.13281 0.06305 0.0
H2484 H 0.6194 0.11593 0.07052 0.0
H2485 H 0.60275 0.12093 0.08256 0.0
H2486 H 0.58088 0.12188 0.052 0.0
H2487 H 0.59774 0.1167 0.03994 0.0
H2488 H 0.64273 0.1056 0.99992 0.0
H2489 H 0.64127 0.11322 0.01976 0.0
H2490 H 0.67866 0.09648 0.00618 0.0
H2491 H 0.67714 0.10421 0.02591 0.0
H2492 H 0.68509 0.14147 0.07205 0.0
H2493 H 0.66654 0.13917 0.10468 0.0
H2494 H 0.65027 0.1299 0.09477 0.0
H2495 H 0.66868 0.13205 0.0622 0.0
C2496 C 0.63546 0.14144 0.69664 0.0
C2497 C 0.63424 0.14023 0.68458 0.0
C2498 C 0.62937 0.16075 0.68279 0.0
C2499 C 0.63128 0.14979 0.67772 0.0
C2500 C 0.63084 0.162 0.69487 0.0
C2501 C 0.63386 0.15239 0.70175 0.0
U2502 U 0.63358 0.10907 0.69945 0.0
O2503 O 0.64527 0.09588 0.70688 0.0
O2504 O 0.62749 0.09777 0.71358 0.0
C2505 C 0.63767 0.09272 0.7148 0.0
C2506 C 0.63747 0.13108 0.70386 0.0
C2507 C 0.64215 0.09206 0.72672 0.0
C2508 C 0.64621 0.10088 0.74545 0.0
C2509 C 0.64192 0.10175 0.73411 0.0
C2510 C 0.65113 0.08067 0.74203 0.0
C2511 C 0.65086 0.09032 0.74952 0.0
C2512 C 0.64679 0.08154 0.73073 0.0
C2513 C 0.62085 0.093 0.6732 0.0
C2514 C 0.61256 0.07357 0.6738 0.0
C2515 C 0.61358 0.08407 0.65557 0.0
C2516 C 0.61894 0.09337 0.6612 0.0
C2517 C 0.60999 0.07421 0.66186 0.0
C2518 C 0.61794 0.08292 0.67944 0.0
C2519 C 0.62491 0.10355 0.67911 0.0
O2520 O 0.62794 0.12568 0.70709 0.0
O2521 O 0.64557 0.12395 0.70006 0.0
O2522 O 0.63613 0.10427 0.68108 0.0
O2523 O 0.61853 0.10692 0.68797 0.0
H2524 H 0.63529 0.13182 0.68047 0.0
H2525 H 0.63021 0.14848 0.66846 0.0
H2526 H 0.6294 0.17032 0.69904 0.0
H2527 H 0.63467 0.15345 0.71107 0.0
H2528 H 0.64593 0.10848 0.75099 0.0
H2529 H 0.63843 0.10997 0.73111 0.0
H2530 H 0.65467 0.07243 0.74489 0.0
H2531 H 0.64706 0.07399 0.72511 0.0
H2532 H 0.60992 0.06611 0.6789 0.0
H2533 H 0.61182 0.08484 0.64635 0.0
H2534 H 0.62118 0.10107 0.65625 0.0
H2535 H 0.61941 0.08248 0.68874 0.0
C2536 C 0.60939 0.88527 0.44716 0.0
C2537 C 0.61061 0.88409 0.43509 0.0
C2538 C 0.59014 0.87907 0.43328 0.0
C2539 C 0.60109 0.88109 0.42822 0.0
C2540 C 0.58887 0.88049 0.44536 0.0
C2541 C 0.59844 0.88356 0.45226 0.0
U2542 U 0.64173 0.88332 0.44996 0.0
O2543 O 0.655 0.89503 0.45719 0.0
O2544 O 0.65307 0.87733 0.46411 0.0
C2545 C 0.6582 0.88749 0.46516 0.0
C2546 C 0.61974 0.88731 0.45439 0.0
C2547 C 0.65907 0.8921 0.47701 0.0
C2548 C 0.65058 0.89651 0.49582 0.0
C2549 C 0.6495 0.89205 0.48456 0.0
C2550 C 0.67077 0.9012 0.49199 0.0
C2551 C 0.66123 0.90115 0.49964 0.0
C2552 C 0.66968 0.89669 0.48078 0.0
C2553 C 0.65773 0.8704 0.42379 0.0
C2554 C 0.67721 0.86221 0.42444 0.0
C2555 C 0.66671 0.8631 0.40619 0.0
C2556 C 0.65737 0.86843 0.4118 0.0
C2557 C 0.6766 0.85959 0.4125 0.0
C2558 C 0.66782 0.86757 0.43005 0.0
C2559 C 0.64717 0.87448 0.42967 0.0
O2560 O 0.62513 0.87779 0.45769 0.0
O2561 O 0.62688 0.89537 0.45053 0.0
O2562 O 0.64643 0.88572 0.43154 0.0
O2563 O 0.64383 0.86817 0.43859 0.0
H2564 H 0.61901 0.88522 0.43099 0.0
H2565 H 0.60241 0.88006 0.41896 0.0
H2566 H 0.58056 0.87898 0.44952 0.0
H2567 H 0.59737 0.88433 0.46158 0.0
H2568 H 0.64307 0.8964 0.50148 0.0
H2569 H 0.6412 0.88859 0.48174 0.0
H2570 H 0.67908 0.90472 0.49466 0.0
H2571 H 0.67715 0.89682 0.47503 0.0
H2572 H 0.68469 0.85964 0.42955 0.0
H2573 H 0.66596 0.8613 0.39699 0.0
H2574 H 0.64966 0.8706 0.40683 0.0
H2575 H 0.66825 0.86909 0.43933 0.0
C2576 C 0.86569 0.85956 0.19675 0.0
C2577 C 0.86687 0.86076 0.18468 0.0
C2578 C 0.87173 0.84024 0.1829 0.0
C2579 C 0.8698 0.8512 0.17783 0.0
C2580 C 0.87031 0.839 0.19499 0.0
C2581 C 0.86731 0.84861 0.20187 0.0
U2582 U 0.86764 0.89193 0.19956 0.0
O2583 O 0.85596 0.90514 0.20697 0.0
O2584 O 0.87374 0.90321 0.2137 0.0
C2585 C 0.86356 0.90828 0.2149 0.0
C2586 C 0.8637 0.86993 0.20396 0.0
C2587 C 0.85907 0.90895 0.22682 0.0
C2588 C 0.855 0.90014 0.24555 0.0
C2589 C 0.8593 0.89926 0.23422 0.0
C2590 C 0.85008 0.92035 0.2421 0.0
C2591 C 0.85033 0.9107 0.2496 0.0
C2592 C 0.85444 0.91947 0.23081 0.0
C2593 C 0.88039 0.90805 0.17337 0.0
C2594 C 0.88881 0.92743 0.17407 0.0
C2595 C 0.88753 0.91711 0.15575 0.0
C2596 C 0.88218 0.90778 0.16135 0.0
C2597 C 0.89125 0.92689 0.1621 0.0
C2598 C 0.88342 0.91805 0.17968 0.0
C2599 C 0.87633 0.89747 0.17923 0.0
O2600 O 0.87324 0.87531 0.2072 0.0
O2601 O 0.85561 0.87708 0.20016 0.0
O2602 O 0.8651 0.89675 0.18118 0.0
O2603 O 0.88269 0.89406 0.18808 0.0
H2604 H 0.86579 0.86917 0.18057 0.0
H2605 H 0.87083 0.8525 0.16856 0.0
H2606 H 0.87177 0.83069 0.19916 0.0
H2607 H 0.86654 0.84756 0.21119 0.0
H2608 H 0.85526 0.89254 0.2511 0.0
H2609 H 0.86279 0.89104 0.23123 0.0
H2610 H 0.84654 0.92859 0.24495 0.0
H2611 H 0.85418 0.92702 0.22518 0.0
H2612 H 0.89154 0.93482 0.17921 0.0
H2613 H 0.88919 0.91642 0.14651 0.0
H2614 H 0.87985 0.90015 0.15635 0.0
H2615 H 0.88204 0.91841 0.18899 0.0
C2616 C 0.8913 0.11534 0.9469 0.0
C2617 C 0.89019 0.11637 0.93481 0.0
C2618 C 0.91067 0.1214 0.93313 0.0
C2619 C 0.89977 0.1193 0.92799 0.0
C2620 C 0.91183 0.12012 0.94524 0.0
C2621 C 0.9022 0.11712 0.95208 0.0
U2622 U 0.85891 0.1174 0.94965 0.0
O2623 O 0.84567 0.1058 0.9571 0.0
O2624 O 0.84764 0.12359 0.96376 0.0
C2625 C 0.84256 0.11343 0.96501 0.0
C2626 C 0.8809 0.1134 0.95409 0.0
C2627 C 0.8419 0.10898 0.97694 0.0
C2628 C 0.85076 0.10492 0.99566 0.0
C2629 C 0.85162 0.10917 0.9843 0.0
C2630 C 0.83052 0.10012 0.99231 0.0
C2631 C 0.84019 0.10033 0.99977 0.0
C2632 C 0.83137 0.10443 0.98099 0.0
C2633 C 0.84285 0.13019 0.92344 0.0
C2634 C 0.82346 0.13859 0.92415 0.0
C2635 C 0.83385 0.13751 0.90586 0.0
C2636 C 0.84316 0.1321 0.91144 0.0
C2637 C 0.82404 0.14116 0.9122 0.0
C2638 C 0.83282 0.13316 0.92974 0.0
C2639 C 0.85341 0.12608 0.9293 0.0
O2640 O 0.87554 0.12296 0.9573 0.0
O2641 O 0.87375 0.10533 0.95027 0.0
O2642 O 0.85409 0.11485 0.93128 0.0
O2643 O 0.85685 0.13245 0.93814 0.0
H2644 H 0.88182 0.11518 0.93065 0.0
H2645 H 0.89853 0.12023 0.91871 0.0
H2646 H 0.9201 0.1217 0.94945 0.0
H2647 H 0.90319 0.11646 0.96142 0.0
H2648 H 0.85838 0.10515 0.00118 0.0
H2649 H 0.85985 0.1126 0.98127 0.0
H2650 H 0.82226 0.09664 0.9952 0.0
H2651 H 0.8238 0.1042 0.97539 0.0
H2652 H 0.81604 0.14127 0.92929 0.0
H2653 H 0.83457 0.13926 0.89664 0.0
H2654 H 0.85082 0.12983 0.90645 0.0
H2655 H 0.83243 0.13169 0.93903 0.0
C2656 C 0.80428 0.63534 0.85964 0.0
C2657 C 0.81636 0.63425 0.86082 0.0
C2658 C 0.81816 0.62939 0.84031 0.0
C2659 C 0.82323 0.63137 0.85126 0.0
C2660 C 0.80606 0.63072 0.83908 0.0
C2661 C 0.79917 0.63367 0.8487 0.0
U2662 U 0.80146 0.63325 0.89201 0.0
O2663 O 0.794 0.64485 0.90525 0.0
O2664 O 0.78734 0.62707 0.90325 0.0
C2665 C 0.78609 0.63722 0.90835 0.0
C2666 C 0.79706 0.63726 0.87001 0.0
C2667 C 0.77417 0.64169 0.90902 0.0
C2668 C 0.75543 0.64576 0.90019 0.0
C2669 C 0.76675 0.6414 0.89934 0.0
C2670 C 0.75892 0.65083 0.92035 0.0
C2671 C 0.75141 0.65055 0.91071 0.0
C2672 C 0.77019 0.64642 0.9195 0.0
C2673 C 0.8277 0.62056 0.90811 0.0
C2674 C 0.82702 0.61215 0.92749 0.0
C2675 C 0.84534 0.61346 0.91717 0.0
C2676 C 0.83972 0.6188 0.90783 0.0
C2677 C 0.839 0.60973 0.92695 0.0
C2678 C 0.8214 0.61752 0.91811 0.0
C2679 C 0.82183 0.62463 0.89753 0.0
O2680 O 0.79386 0.62769 0.87536 0.0
O2681 O 0.80082 0.64533 0.87718 0.0
O2682 O 0.81983 0.63585 0.89683 0.0
O2683 O 0.81301 0.61824 0.8941 0.0
H2684 H 0.82047 0.63535 0.86922 0.0
H2685 H 0.8325 0.6304 0.85255 0.0
H2686 H 0.80189 0.62923 0.83077 0.0
H2687 H 0.78984 0.63438 0.84765 0.0
H2688 H 0.74988 0.64547 0.8926 0.0
H2689 H 0.76972 0.63784 0.89115 0.0
H2690 H 0.7561 0.65447 0.92856 0.0
H2691 H 0.77583 0.64673 0.92704 0.0
H2692 H 0.82188 0.60941 0.93489 0.0
H2693 H 0.85458 0.61181 0.91648 0.0
H2694 H 0.84472 0.62114 0.9002 0.0
H2695 H 0.81209 0.61888 0.91847 0.0
C2696 C 0.30483 0.86577 0.14169 0.0
C2697 C 0.31688 0.86711 0.14053 0.0
C2698 C 0.31854 0.87198 0.16105 0.0
C2699 C 0.32367 0.87012 0.15011 0.0
C2700 C 0.30647 0.87041 0.16225 0.0
C2701 C 0.29966 0.86733 0.15262 0.0
U2702 U 0.30209 0.86745 0.10928 0.0
O2703 O 0.29472 0.85563 0.09618 0.0
O2704 O 0.28794 0.8734 0.09793 0.0
C2705 C 0.28675 0.86317 0.09298 0.0
C2706 C 0.29767 0.86367 0.13131 0.0
C2707 C 0.27486 0.85864 0.0924 0.0
C2708 C 0.25615 0.85468 0.10132 0.0
C2709 C 0.26748 0.85899 0.10211 0.0
C2710 C 0.25954 0.84949 0.08118 0.0
C2711 C 0.25207 0.84988 0.09084 0.0
C2712 C 0.27083 0.85385 0.08196 0.0
C2713 C 0.32822 0.88021 0.09307 0.0
C2714 C 0.32749 0.88847 0.07362 0.0
C2715 C 0.3458 0.88741 0.08399 0.0
C2716 C 0.34023 0.88208 0.09335 0.0
C2717 C 0.33945 0.89101 0.07417 0.0
C2718 C 0.32191 0.88312 0.08303 0.0
C2719 C 0.32237 0.8762 0.10367 0.0
O2720 O 0.2944 0.87315 0.12584 0.0
O2721 O 0.30155 0.85555 0.12425 0.0
O2722 O 0.32048 0.86496 0.10448 0.0
O2723 O 0.31349 0.88255 0.10702 0.0
H2724 H 0.32103 0.86609 0.13213 0.0
H2725 H 0.33293 0.87127 0.14883 0.0
H2726 H 0.30225 0.8718 0.17055 0.0
H2727 H 0.29034 0.86643 0.15365 0.0
H2728 H 0.25062 0.85506 0.10893 0.0
H2729 H 0.27049 0.86259 0.11027 0.0
H2730 H 0.25667 0.84584 0.07299 0.0
H2731 H 0.27644 0.85349 0.0744 0.0
H2732 H 0.32235 0.89112 0.06619 0.0
H2733 H 0.35503 0.88915 0.08469 0.0
H2734 H 0.34523 0.87985 0.10102 0.0
H2735 H 0.31261 0.88167 0.08266 0.0
C2736 C 0.88589 0.55476 0.89143 0.0
C2737 C 0.88468 0.56683 0.8903 0.0
C2738 C 0.87971 0.56847 0.9108 0.0
C2739 C 0.88169 0.57362 0.89989 0.0
C2740 C 0.88117 0.55638 0.91198 0.0
C2741 C 0.88423 0.54957 0.90234 0.0
U2742 U 0.88403 0.55201 0.85902 0.0
O2743 O 0.89576 0.5446 0.84586 0.0
O2744 O 0.87799 0.53787 0.84772 0.0
C2745 C 0.88819 0.53665 0.84272 0.0
C2746 C 0.88793 0.54759 0.88103 0.0
C2747 C 0.8927 0.52474 0.84214 0.0
C2748 C 0.89668 0.50604 0.85109 0.0
C2749 C 0.89239 0.51739 0.85187 0.0
C2750 C 0.90177 0.50937 0.83091 0.0
C2751 C 0.90142 0.50192 0.84059 0.0
C2752 C 0.89742 0.52068 0.83169 0.0
C2753 C 0.87118 0.57816 0.84288 0.0
C2754 C 0.86283 0.57744 0.82347 0.0
C2755 C 0.86386 0.59574 0.83386 0.0
C2756 C 0.86925 0.59016 0.84319 0.0
C2757 C 0.86025 0.58939 0.82405 0.0
C2758 C 0.86826 0.57186 0.83284 0.0
C2759 C 0.87526 0.57231 0.85346 0.0
O2760 O 0.87841 0.54434 0.87562 0.0
O2761 O 0.89601 0.55146 0.87392 0.0
O2762 O 0.8865 0.5704 0.85419 0.0
O2763 O 0.86893 0.56344 0.85686 0.0
H2764 H 0.88578 0.57099 0.88192 0.0
H2765 H 0.88062 0.58289 0.89864 0.0
H2766 H 0.87969 0.55215 0.92026 0.0
H2767 H 0.88503 0.54024 0.90334 0.0
H2768 H 0.89634 0.50053 0.85872 0.0
H2769 H 0.88884 0.52042 0.86005 0.0
H2770 H 0.90537 0.50647 0.82271 0.0
H2771 H 0.89775 0.52627 0.82411 0.0
H2772 H 0.86018 0.57231 0.81604 0.0
H2773 H 0.86208 0.60496 0.83458 0.0
H2774 H 0.87149 0.59516 0.85085 0.0
H2775 H 0.86974 0.56257 0.83245 0.0
C2776 C 0.19708 0.13544 0.6417 0.0
C2777 C 0.18503 0.1342 0.64042 0.0
C2778 C 0.18313 0.12927 0.66091 0.0
C2779 C 0.17812 0.13121 0.64992 0.0
C2780 C 0.1952 0.13075 0.66224 0.0
C2781 C 0.20213 0.13381 0.65268 0.0
U2782 U 0.19995 0.13354 0.60938 0.0
O2783 O 0.20722 0.14528 0.59614 0.0
O2784 O 0.21411 0.12756 0.59805 0.0
C2785 C 0.21518 0.13773 0.59294 0.0
C2786 C 0.20435 0.13749 0.63138 0.0
C2787 C 0.22704 0.14231 0.5921 0.0
C2788 C 0.24585 0.14663 0.60063 0.0
C2789 C 0.23456 0.14225 0.6017 0.0
C2790 C 0.24212 0.15126 0.58041 0.0
C2791 C 0.24974 0.15118 0.58997 0.0
C2792 C 0.23088 0.14684 0.58148 0.0
C2793 C 0.17374 0.12067 0.59337 0.0
C2794 C 0.17433 0.11244 0.57391 0.0
C2795 C 0.15611 0.1134 0.58444 0.0
C2796 C 0.16175 0.11874 0.59376 0.0
C2797 C 0.16238 0.10986 0.57456 0.0
C2798 C 0.17997 0.1178 0.58327 0.0
C2799 C 0.17966 0.12474 0.60392 0.0
O2800 O 0.20765 0.12798 0.62599 0.0
O2801 O 0.20052 0.14557 0.62424 0.0
O2802 O 0.18154 0.13598 0.60465 0.0
O2803 O 0.18857 0.11842 0.60725 0.0
H2804 H 0.18097 0.13527 0.63199 0.0
H2805 H 0.16887 0.13012 0.64855 0.0
H2806 H 0.19932 0.1293 0.67058 0.0
H2807 H 0.21145 0.13464 0.6538 0.0
H2808 H 0.2515 0.14649 0.60816 0.0
H2809 H 0.2317 0.13883 0.61 0.0
H2810 H 0.24484 0.15472 0.57209 0.0
H2811 H 0.22515 0.14697 0.574 0.0
H2812 H 0.17941 0.10983 0.56643 0.0
H2813 H 0.14689 0.11163 0.58522 0.0
H2814 H 0.15681 0.12095 0.60147 0.0
H2815 H 0.18926 0.11928 0.58282 0.0
C2816 C 0.11526 0.94676 0.89121 0.0
C2817 C 0.11631 0.93468 0.89005 0.0
C2818 C 0.1213 0.9329 0.91053 0.0
C2819 C 0.11924 0.92782 0.8996 0.0
C2820 C 0.11999 0.945 0.91175 0.0
C2821 C 0.117 0.95189 0.90214 0.0
U2822 U 0.11735 0.94964 0.85884 0.0
O2823 O 0.10574 0.95714 0.84561 0.0
O2824 O 0.12353 0.9638 0.84763 0.0
C2825 C 0.11337 0.96506 0.84253 0.0
C2826 C 0.11332 0.95399 0.88084 0.0
C2827 C 0.10892 0.97699 0.8419 0.0
C2828 C 0.10487 0.9957 0.85079 0.0
C2829 C 0.10913 0.98434 0.85162 0.0
C2830 C 0.10002 0.99237 0.83055 0.0
C2831 C 0.10026 0.99982 0.84023 0.0
C2832 C 0.10433 0.98106 0.83138 0.0
C2833 C 0.13018 0.92348 0.84272 0.0
C2834 C 0.13861 0.92424 0.82335 0.0
C2835 C 0.13751 0.90592 0.8337 0.0
C2836 C 0.13208 0.91148 0.84301 0.0
C2837 C 0.14118 0.91229 0.82391 0.0
C2838 C 0.13316 0.9298 0.83271 0.0
C2839 C 0.12605 0.92932 0.85329 0.0
O2840 O 0.12288 0.95723 0.87551 0.0
O2841 O 0.10526 0.9502 0.87366 0.0
O2842 O 0.11482 0.93129 0.85395 0.0
O2843 O 0.1324 0.93815 0.85675 0.0
H2844 H 0.11515 0.93056 0.88165 0.0
H2845 H 0.12019 0.91854 0.89832 0.0
H2846 H 0.12154 0.94918 0.92004 0.0
H2847 H 0.11632 0.96122 0.90317 0.0
H2848 H 0.10512 0.00121 0.85841 0.0
H2849 H 0.11258 0.9813 0.85984 0.0
H2850 H 0.09652 0.99528 0.8223 0.0
H2851 H 0.10408 0.97547 0.82381 0.0
H2852 H 0.14131 0.92939 0.81595 0.0
H2853 H 0.13927 0.89669 0.83441 0.0
H2854 H 0.1298 0.90647 0.85065 0.0
H2855 H 0.13169 0.9391 0.83233 0.0
C2856 C 0.6974 0.36547 0.35999 0.0
C2857 C 0.68529 0.36635 0.36109 0.0
C2858 C 0.68356 0.37145 0.34063 0.0
C2859 C 0.67845 0.36924 0.35152 0.0
C2860 C 0.69569 0.37031 0.33947 0.0
C2861 C 0.70256 0.36735 0.3491 0.0
U2862 U 0.70012 0.36773 0.39236 0.0
O2863 O 0.70757 0.35623 0.40571 0.0
O2864 O 0.7142 0.37402 0.40361 0.0
C2865 C 0.71544 0.36391 0.40879 0.0
C2866 C 0.7046 0.36361 0.3704 0.0
C2867 C 0.72738 0.35948 0.40957 0.0
C2868 C 0.74614 0.35527 0.40086 0.0
C2869 C 0.73481 0.35959 0.3999 0.0
C2870 C 0.74263 0.35061 0.42111 0.0
C2871 C 0.75015 0.3507 0.41148 0.0
C2872 C 0.73135 0.35498 0.42016 0.0
C2873 C 0.67377 0.38046 0.40825 0.0
C2874 C 0.67435 0.38883 0.42765 0.0
C2875 C 0.65613 0.38779 0.41711 0.0
C2876 C 0.66178 0.38239 0.40784 0.0
C2877 C 0.6624 0.39141 0.42698 0.0
C2878 C 0.68 0.3834 0.41833 0.0
C2879 C 0.67971 0.37634 0.39774 0.0
O2880 O 0.70777 0.37322 0.3757 0.0
O2881 O 0.70084 0.35557 0.37761 0.0
O2882 O 0.68175 0.36511 0.39713 0.0
O2883 O 0.68853 0.38273 0.39431 0.0
H2884 H 0.68114 0.36509 0.36946 0.0
H2885 H 0.66915 0.37005 0.35275 0.0
H2886 H 0.69989 0.37197 0.33122 0.0
H2887 H 0.71191 0.36681 0.34812 0.0
H2888 H 0.7517 0.35541 0.39327 0.0
H2889 H 0.73185 0.36298 0.39163 0.0
H2890 H 0.74544 0.34714 0.4294 0.0
H2891 H 0.7257 0.35482 0.42769 0.0
H2892 H 0.67943 0.39149 0.43512 0.0
H2893 H 0.64692 0.38956 0.41632 0.0
H2894 H 0.65684 0.38013 0.40014 0.0
H2895 H 0.68929 0.38192 0.4188 0.0
C2896 C 0.88538 0.44681 0.60952 0.0
C2897 C 0.88425 0.43473 0.61065 0.0
C2898 C 0.87924 0.43307 0.59017 0.0
C2899 C 0.88127 0.42793 0.60107 0.0
C2900 C 0.88061 0.44517 0.58899 0.0
C2901 C 0.88366 0.45199 0.59862 0.0
U2902 U 0.88354 0.44947 0.64192 0.0
O2903 O 0.89525 0.45685 0.65511 0.0
O2904 O 0.87746 0.46355 0.65328 0.0
C2905 C 0.88765 0.46476 0.65831 0.0
C2906 C 0.8874 0.45398 0.61992 0.0
C2907 C 0.89212 0.47667 0.659 0.0
C2908 C 0.89619 0.49542 0.65021 0.0
C2909 C 0.89192 0.48408 0.64931 0.0
C2910 C 0.90103 0.49197 0.67043 0.0
C2911 C 0.9008 0.49948 0.66079 0.0
C2912 C 0.8967 0.48067 0.66954 0.0
C2913 C 0.87085 0.42318 0.65794 0.0
C2914 C 0.86261 0.42375 0.67739 0.0
C2915 C 0.8636 0.40554 0.66685 0.0
C2916 C 0.86893 0.41118 0.65754 0.0
C2917 C 0.86003 0.41181 0.67674 0.0
C2918 C 0.86797 0.4294 0.66804 0.0
C2919 C 0.87489 0.42911 0.64739 0.0
O2920 O 0.87788 0.45718 0.62535 0.0
O2921 O 0.89551 0.45014 0.62701 0.0
O2922 O 0.88611 0.43108 0.64665 0.0
O2923 O 0.8685 0.43798 0.64405 0.0
H2924 H 0.8854 0.43057 0.61903 0.0
H2925 H 0.88027 0.41865 0.60233 0.0
H2926 H 0.87908 0.44939 0.58071 0.0
H2927 H 0.8844 0.46132 0.59761 0.0
H2928 H 0.89595 0.50097 0.64261 0.0
H2929 H 0.88846 0.48109 0.64108 0.0
H2930 H 0.90453 0.49482 0.67869 0.0
H2931 H 0.89694 0.47504 0.67709 0.0
H2932 H 0.85999 0.42883 0.68487 0.0
H2933 H 0.86183 0.39632 0.66607 0.0
H2934 H 0.87114 0.40625 0.64983 0.0
H2935 H 0.86945 0.43869 0.66849 0.0
C2936 C 0.61541 0.5539 0.10952 0.0
C2937 C 0.61635 0.566 0.11064 0.0
C2938 C 0.62171 0.56771 0.09024 0.0
C2939 C 0.6194 0.57283 0.1011 0.0
C2940 C 0.62051 0.55559 0.08906 0.0
C2941 C 0.61738 0.54874 0.09865 0.0
U2942 U 0.61745 0.55116 0.14187 0.0
O2943 O 0.60578 0.54394 0.15519 0.0
O2944 O 0.62347 0.53702 0.1532 0.0
C2945 C 0.61332 0.53597 0.15836 0.0
C2946 C 0.61339 0.54671 0.11991 0.0
C2947 C 0.60872 0.52412 0.15925 0.0
C2948 C 0.60433 0.5053 0.15076 0.0
C2949 C 0.60876 0.51657 0.14967 0.0
C2950 C 0.59969 0.50911 0.17097 0.0
C2951 C 0.59973 0.50147 0.16143 0.0
C2952 C 0.60417 0.52033 0.16987 0.0
C2953 C 0.6305 0.57733 0.15778 0.0
C2954 C 0.63866 0.57667 0.17727 0.0
C2955 C 0.63809 0.59485 0.16663 0.0
C2956 C 0.63267 0.58927 0.15733 0.0
C2957 C 0.64148 0.58855 0.17657 0.0
C2958 C 0.63321 0.57108 0.16791 0.0
C2959 C 0.62634 0.57144 0.14725 0.0
O2960 O 0.62291 0.5434 0.12526 0.0
O2961 O 0.60535 0.55059 0.12707 0.0
O2962 O 0.61509 0.56959 0.14658 0.0
O2963 O 0.63262 0.56251 0.14389 0.0
H2964 H 0.61501 0.57016 0.11898 0.0
H2965 H 0.62025 0.58212 0.10236 0.0
H2966 H 0.62225 0.55138 0.08082 0.0
H2967 H 0.6168 0.53939 0.09765 0.0
H2968 H 0.60443 0.49964 0.14324 0.0
H2969 H 0.61219 0.5194 0.14137 0.0
H2970 H 0.5962 0.50643 0.17929 0.0
H2971 H 0.60406 0.52607 0.17734 0.0
H2972 H 0.64113 0.57156 0.18478 0.0
H2973 H 0.64005 0.60402 0.16582 0.0
H2974 H 0.63059 0.59422 0.14959 0.0
H2975 H 0.63154 0.56183 0.1684 0.0
C2976 C 0.6371 0.69959 0.86719 0.0
C2977 C 0.63496 0.68862 0.87206 0.0
C2978 C 0.65569 0.68571 0.87501 0.0
C2979 C 0.64418 0.68172 0.87592 0.0
C2980 C 0.65781 0.69653 0.8697 0.0
C2981 C 0.64856 0.70344 0.86585 0.0
U2982 U 0.60511 0.70562 0.86902 0.0
O2983 O 0.59554 0.72125 0.87434 0.0
O2984 O 0.59283 0.71399 0.8569 0.0
C2985 C 0.59088 0.72273 0.86401 0.0
C2986 C 0.62736 0.70739 0.86452 0.0
C2987 C 0.59229 0.73442 0.85898 0.0
C2988 C 0.60402 0.75162 0.85537 0.0
C2989 C 0.6029 0.74038 0.85987 0.0
C2990 C 0.58403 0.75097 0.84876 0.0
C2991 C 0.59459 0.75706 0.84979 0.0
C2992 C 0.5829 0.73976 0.85334 0.0
C2993 C 0.58714 0.68176 0.88426 0.0
C2994 C 0.56804 0.68423 0.89287 0.0
C2995 C 0.57689 0.66513 0.89226 0.0
C2996 C 0.58658 0.66982 0.88663 0.0
C2997 C 0.56765 0.67233 0.8957 0.0
C2998 C 0.57773 0.68892 0.88721 0.0
C2999 C 0.59789 0.6866 0.87938 0.0
O3000 O 0.61979 0.70341 0.85694 0.0
O3001 O 0.62246 0.71201 0.87374 0.0
O3002 O 0.60219 0.69559 0.88496 0.0
O3003 O 0.59828 0.68773 0.86802 0.0
H3004 H 0.62613 0.68555 0.87321 0.0
H3005 H 0.64224 0.67343 0.87993 0.0
H3006 H 0.66658 0.69984 0.86885 0.0
H3007 H 0.65035 0.71191 0.86216 0.0
H3008 H 0.61228 0.75604 0.85625 0.0
H3009 H 0.61029 0.73638 0.86411 0.0
H3010 H 0.57661 0.75489 0.84451 0.0
H3011 H 0.57466 0.73527 0.85255 0.0
H3012 H 0.561 0.68999 0.89532 0.0
H3013 H 0.57664 0.65588 0.89386 0.0
H3014 H 0.59373 0.66415 0.8843 0.0
H3015 H 0.578 0.69816 0.8854 0.0
C3016 C 0.55119 0.38745 0.11786 0.0
C3017 C 0.56222 0.38538 0.12263 0.0
C3018 C 0.56481 0.4061 0.12596 0.0
C3019 C 0.56899 0.39463 0.12664 0.0
C3020 C 0.55393 0.40815 0.12076 0.0
C3021 C 0.54715 0.39888 0.11677 0.0
U3022 U 0.54571 0.35535 0.1191 0.0
O3023 O 0.53027 0.34543 0.12433 0.0
O3024 O 0.53747 0.34317 0.1068 0.0
C3025 C 0.52881 0.34095 0.11392 0.0
C3026 C 0.54354 0.37765 0.11505 0.0
C3027 C 0.51707 0.3423 0.10898 0.0
C3028 C 0.49977 0.35395 0.10551 0.0
C3029 C 0.51105 0.35288 0.10993 0.0
C3030 C 0.5005 0.33398 0.09888 0.0
C3031 C 0.49435 0.3445 0.09996 0.0
C3032 C 0.51175 0.33289 0.10338 0.0
C3033 C 0.56997 0.33748 0.13386 0.0
C3034 C 0.56786 0.31823 0.14223 0.0
C3035 C 0.58682 0.32735 0.14156 0.0
C3036 C 0.58193 0.33705 0.13611 0.0
C3037 C 0.57979 0.31797 0.14495 0.0
C3038 C 0.56298 0.32793 0.13675 0.0
C3039 C 0.56491 0.34824 0.12921 0.0
O3040 O 0.5476 0.3703 0.10729 0.0
O3041 O 0.53905 0.3725 0.12419 0.0
O3042 O 0.55589 0.35229 0.13492 0.0
O3043 O 0.5637 0.34882 0.11786 0.0
H3044 H 0.56543 0.37658 0.12359 0.0
H3045 H 0.57734 0.39274 0.13055 0.0
H3046 H 0.55047 0.41689 0.12009 0.0
H3047 H 0.53862 0.40061 0.11316 0.0
H3048 H 0.49531 0.36219 0.10643 0.0
H3049 H 0.51504 0.36028 0.11416 0.0
H3050 H 0.49659 0.32654 0.09464 0.0
H3051 H 0.51628 0.32467 0.10255 0.0
H3052 H 0.56223 0.31108 0.14465 0.0
H3053 H 0.59609 0.32722 0.14307 0.0
H3054 H 0.58747 0.34432 0.13383 0.0
H3055 H 0.55372 0.3281 0.13504 0.0
C3056 C 0.86403 0.30124 0.36738 0.0
C3057 C 0.86615 0.31225 0.37218 0.0
C3058 C 0.84545 0.31502 0.37542 0.0
C3059 C 0.85695 0.31909 0.37614 0.0
C3060 C 0.84333 0.30416 0.37019 0.0
C3061 C 0.85258 0.29731 0.36623 0.0
U3062 U 0.89597 0.29539 0.36952 0.0
O3063 O 0.90562 0.27978 0.37474 0.0
O3064 O 0.90853 0.28735 0.35747 0.0
C3065 C 0.91043 0.2785 0.36446 0.0
C3066 C 0.8738 0.29352 0.36465 0.0
C3067 C 0.90913 0.26689 0.35924 0.0
C3068 C 0.89747 0.24973 0.3552 0.0
C3069 C 0.89849 0.26094 0.3598 0.0
C3070 C 0.91762 0.25039 0.34914 0.0
C3071 C 0.90704 0.24431 0.34986 0.0
C3072 C 0.91866 0.26157 0.35382 0.0
C3073 C 0.91307 0.31942 0.38578 0.0
C3074 C 0.93396 0.32226 0.38696 0.0
C3075 C 0.9213 0.33148 0.40102 0.0
C3076 C 0.91166 0.32656 0.39554 0.0
C3077 C 0.93255 0.32949 0.39674 0.0
C3078 C 0.92429 0.31727 0.3815 0.0
C3079 C 0.90266 0.31426 0.38047 0.0
O3080 O 0.88145 0.29768 0.35725 0.0
O3081 O 0.87861 0.28871 0.37383 0.0
O3082 O 0.89848 0.30507 0.3858 0.0
O3083 O 0.90252 0.31335 0.36908 0.0
H3084 H 0.87498 0.31539 0.37319 0.0
H3085 H 0.85888 0.32742 0.38008 0.0
H3086 H 0.83458 0.30077 0.36948 0.0
H3087 H 0.85081 0.2888 0.36261 0.0
H3088 H 0.88918 0.24532 0.35584 0.0
H3089 H 0.891 0.26493 0.36388 0.0
H3090 H 0.92515 0.24647 0.34507 0.0
H3091 H 0.92693 0.26604 0.35329 0.0
H3092 H 0.94255 0.32045 0.38355 0.0
H3093 H 0.9199 0.33648 0.40883 0.0
H3094 H 0.90307 0.32819 0.39905 0.0
H3095 H 0.92558 0.31169 0.37403 0.0
C3096 C 0.95036 0.61448 0.61885 0.0
C3097 C 0.93951 0.61675 0.62392 0.0
C3098 C 0.93656 0.59609 0.62724 0.0
C3099 C 0.93266 0.60764 0.62807 0.0
C3100 C 0.94727 0.59383 0.62176 0.0
C3101 C 0.95414 0.60298 0.61763 0.0
U3102 U 0.95612 0.64641 0.62025 0.0
O3103 O 0.97169 0.65625 0.6252 0.0
O3104 O 0.96402 0.65878 0.60791 0.0
C3105 C 0.97289 0.66087 0.61481 0.0
C3106 C 0.95808 0.62417 0.61584 0.0
C3107 C 0.98448 0.65949 0.60956 0.0
C3108 C 0.00158 0.64773 0.60554 0.0
C3109 C 0.9904 0.64883 0.61017 0.0
C3110 C 0.00097 0.66785 0.59933 0.0
C3111 C 0.00702 0.65724 0.6001 0.0
C3112 C 0.98981 0.66896 0.60405 0.0
C3113 C 0.93193 0.66353 0.63639 0.0
C3114 C 0.92893 0.6844 0.63751 0.0
C3115 C 0.9196 0.67168 0.65145 0.0
C3116 C 0.92467 0.66207 0.64604 0.0
C3117 C 0.92158 0.68294 0.6472 0.0
C3118 C 0.93407 0.67476 0.63213 0.0
C3119 C 0.93725 0.65314 0.63119 0.0
O3120 O 0.95386 0.63165 0.60829 0.0
O3121 O 0.96294 0.62918 0.62487 0.0
O3122 O 0.94651 0.64915 0.63653 0.0
O3123 O 0.93811 0.65287 0.61979 0.0
H3124 H 0.93649 0.62561 0.62499 0.0
H3125 H 0.92444 0.60968 0.63219 0.0
H3126 H 0.95052 0.58503 0.62096 0.0
H3127 H 0.96253 0.60109 0.61379 0.0
H3128 H 0.00597 0.63942 0.60622 0.0
H3129 H 0.9864 0.64138 0.61432 0.0
H3130 H 0.00489 0.67533 0.59519 0.0
H3131 H 0.98536 0.67725 0.60348 0.0
H3132 H 0.93073 0.693 0.63413 0.0
H3133 H 0.91451 0.67025 0.6592 0.0
H3134 H 0.92305 0.65347 0.64954 0.0
H3135 H 0.93974 0.67607 0.62473 0.0
C3136 C 0.63718 0.3014 0.63375 0.0
C3137 C 0.63507 0.31243 0.62899 0.0
C3138 C 0.65579 0.31518 0.62582 0.0
C3139 C 0.6443 0.31928 0.62508 0.0
C3140 C 0.65788 0.30429 0.63101 0.0
C3141 C 0.64863 0.29744 0.63491 0.0
U3142 U 0.60513 0.29571 0.63221 0.0
O3143 O 0.59536 0.28022 0.62687 0.0
O3144 O 0.59289 0.28738 0.64438 0.0
C3145 C 0.59079 0.27871 0.63723 0.0
C3146 C 0.62741 0.29368 0.63647 0.0
C3147 C 0.59217 0.26698 0.64217 0.0
C3148 C 0.60384 0.2497 0.64566 0.0
C3149 C 0.60275 0.26097 0.64122 0.0
C3150 C 0.58388 0.25041 0.65231 0.0
C3151 C 0.59441 0.24427 0.65123 0.0
C3152 C 0.58277 0.26165 0.64779 0.0
C3153 C 0.58727 0.31989 0.61729 0.0
C3154 C 0.56809 0.31769 0.60879 0.0
C3155 C 0.57714 0.33669 0.60948 0.0
C3156 C 0.58682 0.33184 0.61501 0.0
C3157 C 0.5678 0.32962 0.60604 0.0
C3158 C 0.57776 0.31286 0.61435 0.0
C3159 C 0.59801 0.31488 0.62204 0.0
O3160 O 0.61995 0.29768 0.64416 0.0
O3161 O 0.62237 0.28917 0.62727 0.0
O3162 O 0.60217 0.30589 0.61636 0.0
O3163 O 0.59849 0.31366 0.6334 0.0
H3164 H 0.62626 0.3156 0.62798 0.0
H3165 H 0.64239 0.32763 0.62117 0.0
H3166 H 0.66663 0.30089 0.63173 0.0
H3167 H 0.65038 0.28892 0.63851 0.0
H3168 H 0.61209 0.24525 0.64473 0.0
H3169 H 0.61015 0.26497 0.63698 0.0
H3170 H 0.57645 0.24649 0.65657 0.0
H3171 H 0.57454 0.26617 0.64864 0.0
H3172 H 0.56097 0.31204 0.60634 0.0
H3173 H 0.57699 0.34595 0.60794 0.0
H3174 H 0.59405 0.33741 0.61733 0.0
H3175 H 0.57795 0.3036 0.6161 0.0
C3176 C 0.9504 0.3865 0.88219 0.0
C3177 C 0.93954 0.38422 0.87713 0.0
C3178 C 0.93656 0.40489 0.87383 0.0
C3179 C 0.93267 0.39333 0.87299 0.0
C3180 C 0.94727 0.40715 0.87929 0.0
C3181 C 0.95416 0.398 0.88341 0.0
U3182 U 0.95605 0.35445 0.88164 0.0
O3183 O 0.97152 0.34444 0.87667 0.0
O3184 O 0.96423 0.3425 0.8942 0.0
C3185 C 0.97294 0.34015 0.88717 0.0
C3186 C 0.95812 0.37682 0.88526 0.0
C3187 C 0.98464 0.34161 0.89215 0.0
C3188 C 0.00183 0.3534 0.89561 0.0
C3189 C 0.99058 0.35222 0.89115 0.0
C3190 C 0.00123 0.33347 0.9024 0.0
C3191 C 0.0073 0.34403 0.90126 0.0
C3192 C 0.99001 0.33228 0.89785 0.0
C3193 C 0.93174 0.33646 0.86701 0.0
C3194 C 0.93367 0.31727 0.85848 0.0
C3195 C 0.91474 0.32646 0.85949 0.0
C3196 C 0.91974 0.33609 0.86494 0.0
C3197 C 0.9217 0.31708 0.85591 0.0
C3198 C 0.93866 0.3269 0.86395 0.0
C3199 C 0.93689 0.34722 0.87155 0.0
O3200 O 0.95407 0.36961 0.89315 0.0
O3201 O 0.9627 0.37151 0.87626 0.0
O3202 O 0.94595 0.35113 0.86582 0.0
O3203 O 0.93805 0.34795 0.88289 0.0
H3204 H 0.93654 0.37536 0.87608 0.0
H3205 H 0.92445 0.39129 0.86888 0.0
H3206 H 0.95051 0.41595 0.88009 0.0
H3207 H 0.96255 0.39989 0.88725 0.0
H3208 H 0.00623 0.36167 0.89464 0.0
H3209 H 0.98655 0.35956 0.88684 0.0
H3210 H 0.00518 0.32609 0.90671 0.0
H3211 H 0.98554 0.32403 0.89873 0.0
H3212 H 0.93924 0.31012 0.85592 0.0
H3213 H 0.90545 0.32637 0.8581 0.0
H3214 H 0.91425 0.34336 0.86735 0.0
H3215 H 0.94794 0.32703 0.86552 0.0
C3216 C 0.86374 0.69993 0.13332 0.0
C3217 C 0.86579 0.68891 0.12852 0.0
C3218 C 0.84507 0.68632 0.12522 0.0
C3219 C 0.85654 0.68215 0.12452 0.0
C3220 C 0.84303 0.6972 0.13044 0.0
C3221 C 0.85231 0.70397 0.13443 0.0
U3222 U 0.89585 0.70541 0.1321 0.0
O3223 O 0.90577 0.72085 0.1269 0.0
O3224 O 0.90802 0.71363 0.14442 0.0
C3225 C 0.91024 0.72231 0.13731 0.0
C3226 C 0.87355 0.70756 0.13614 0.0
C3227 C 0.90887 0.73403 0.14226 0.0
C3228 C 0.89717 0.75129 0.1458 0.0
C3229 C 0.89826 0.74002 0.14137 0.0
C3230 C 0.91718 0.75063 0.15234 0.0
C3231 C 0.90663 0.75674 0.1513 0.0
C3232 C 0.91829 0.73938 0.14783 0.0
C3233 C 0.91375 0.68118 0.11732 0.0
C3234 C 0.93301 0.68331 0.10899 0.0
C3235 C 0.92389 0.66435 0.1096 0.0
C3236 C 0.91418 0.66922 0.11505 0.0
C3237 C 0.93328 0.67139 0.10624 0.0
C3238 C 0.9233 0.68818 0.11446 0.0
C3239 C 0.90298 0.68623 0.12197 0.0
O3240 O 0.8809 0.70349 0.14389 0.0
O3241 O 0.8787 0.71206 0.127 0.0
O3242 O 0.89892 0.69526 0.11626 0.0
O3243 O 0.90239 0.68741 0.13332 0.0
H3244 H 0.87459 0.68569 0.12754 0.0
H3245 H 0.85842 0.6738 0.12059 0.0
H3246 H 0.8343 0.70066 0.13113 0.0
H3247 H 0.8506 0.71248 0.13806 0.0
H3248 H 0.88891 0.75572 0.14491 0.0
H3249 H 0.89085 0.736 0.13717 0.0
H3250 H 0.92462 0.75456 0.15654 0.0
H3251 H 0.92652 0.73489 0.14862 0.0
H3252 H 0.94016 0.68895 0.1066 0.0
H3253 H 0.92403 0.65508 0.10807 0.0
H3254 H 0.90691 0.66368 0.11731 0.0
H3255 H 0.92313 0.69744 0.1162 0.0
C3256 C 0.55143 0.61395 0.3837 0.0
C3257 C 0.56244 0.61604 0.3789 0.0
C3258 C 0.5652 0.59531 0.37579 0.0
C3259 C 0.56928 0.60681 0.375 0.0
C3260 C 0.55434 0.59324 0.38103 0.0
C3261 C 0.54749 0.60251 0.38492 0.0
U3262 U 0.54569 0.64601 0.38216 0.0
O3263 O 0.53018 0.65577 0.37685 0.0
O3264 O 0.53736 0.65824 0.39435 0.0
C3265 C 0.52868 0.66033 0.38722 0.0
C3266 C 0.5437 0.62373 0.38642 0.0
C3267 C 0.51696 0.65894 0.39218 0.0
C3268 C 0.49971 0.64723 0.39567 0.0
C3269 C 0.51097 0.64835 0.39122 0.0
C3270 C 0.50038 0.66719 0.40234 0.0
C3271 C 0.49427 0.65665 0.40126 0.0
C3272 C 0.51161 0.66832 0.39781 0.0
C3273 C 0.56986 0.66387 0.36723 0.0
C3274 C 0.56768 0.68307 0.35875 0.0
C3275 C 0.58665 0.67397 0.3594 0.0
C3276 C 0.58181 0.6643 0.36493 0.0
C3277 C 0.57959 0.68333 0.35598 0.0
C3278 C 0.56283 0.6734 0.36431 0.0
C3279 C 0.56484 0.65314 0.37199 0.0
O3280 O 0.5477 0.63118 0.39411 0.0
O3281 O 0.53918 0.62877 0.37723 0.0
O3282 O 0.55584 0.649 0.36631 0.0
O3283 O 0.56364 0.65266 0.38334 0.0
H3284 H 0.56558 0.62486 0.37785 0.0
H3285 H 0.57761 0.60871 0.37105 0.0
H3286 H 0.55095 0.58449 0.38179 0.0
H3287 H 0.53898 0.60076 0.38856 0.0
H3288 H 0.49528 0.63898 0.39475 0.0
H3289 H 0.51498 0.64096 0.38697 0.0
H3290 H 0.49645 0.67461 0.4066 0.0
H3291 H 0.51611 0.67655 0.39865 0.0
H3292 H 0.56202 0.6902 0.35631 0.0
H3293 H 0.59592 0.6741 0.35785 0.0
H3294 H 0.58737 0.65705 0.36724 0.0
H3295 H 0.55358 0.67323 0.36607 0.0
C3296 C 0.86728 0.63708 0.69967 0.0
C3297 C 0.87206 0.635 0.68865 0.0
C3298 C 0.87518 0.65573 0.68592 0.0
C3299 C 0.87596 0.64424 0.68182 0.0
C3300 C 0.86997 0.6578 0.69679 0.0
C3301 C 0.86609 0.64853 0.70364 0.0
U3302 U 0.86884 0.60502 0.70538 0.0
O3303 O 0.87418 0.59526 0.72088 0.0
O3304 O 0.85667 0.59279 0.71372 0.0
C3305 C 0.86382 0.5907 0.7224 0.0
C3306 C 0.86458 0.6273 0.70739 0.0
C3307 C 0.85888 0.59209 0.73413 0.0
C3308 C 0.85533 0.60384 0.75134 0.0
C3309 C 0.85976 0.60272 0.74007 0.0
C3310 C 0.84884 0.58382 0.75077 0.0
C3311 C 0.84985 0.59439 0.75683 0.0
C3312 C 0.85335 0.58268 0.73952 0.0
C3313 C 0.88375 0.58714 0.68123 0.0
C3314 C 0.89221 0.56793 0.68345 0.0
C3315 C 0.89159 0.577 0.66445 0.0
C3316 C 0.88606 0.58669 0.66928 0.0
C3317 C 0.89499 0.56765 0.67153 0.0
C3318 C 0.88666 0.57762 0.68827 0.0
C3319 C 0.879 0.59788 0.68622 0.0
O3320 O 0.85689 0.61985 0.70339 0.0
O3321 O 0.87378 0.62226 0.7119 0.0
O3322 O 0.88469 0.60204 0.69521 0.0
O3323 O 0.86765 0.59837 0.68744 0.0
H3324 H 0.8731 0.62619 0.68549 0.0
H3325 H 0.87988 0.64234 0.67347 0.0
H3326 H 0.86922 0.66654 0.7002 0.0
H3327 H 0.86247 0.65027 0.71216 0.0
H3328 H 0.8562 0.61212 0.75573 0.0
H3329 H 0.86393 0.61012 0.73601 0.0
H3330 H 0.84466 0.57638 0.75474 0.0
H3331 H 0.85256 0.57443 0.73506 0.0
H3332 H 0.89463 0.56081 0.68911 0.0
H3333 H 0.89314 0.57685 0.65519 0.0
H3334 H 0.88377 0.59393 0.6637 0.0
H3335 H 0.8849 0.57781 0.69752 0.0
C3336 C 0.61445 0.61933 0.95084 0.0
C3337 C 0.61667 0.62439 0.93997 0.0
C3338 C 0.59601 0.6279 0.93719 0.0
C3339 C 0.60753 0.62862 0.93319 0.0
C3340 C 0.5938 0.62244 0.94793 0.0
C3341 C 0.60297 0.61823 0.95472 0.0
U3342 U 0.64645 0.62042 0.95632 0.0
O3343 O 0.65648 0.62527 0.9718 0.0
O3344 O 0.65877 0.60795 0.9641 0.0
C3345 C 0.661 0.61483 0.97296 0.0
C3346 C 0.62418 0.61623 0.95848 0.0
C3347 C 0.65967 0.60958 0.98456 0.0
C3348 C 0.64796 0.60557 0.00169 0.0
C3349 C 0.64903 0.61021 0.9905 0.0
C3350 C 0.66807 0.59936 0.00103 0.0
C3351 C 0.65748 0.60013 0.0071 0.0
C3352 C 0.66915 0.60407 0.98986 0.0
C3353 C 0.66349 0.63638 0.93197 0.0
C3354 C 0.68435 0.63738 0.92888 0.0
C3355 C 0.67165 0.65132 0.91951 0.0
C3356 C 0.66204 0.646 0.92465 0.0
C3357 C 0.6829 0.64702 0.92148 0.0
C3358 C 0.6747 0.63208 0.93409 0.0
C3359 C 0.6531 0.63129 0.93738 0.0
O3360 O 0.63154 0.6086 0.9542 0.0
O3361 O 0.62933 0.62521 0.96329 0.0
O3362 O 0.64925 0.63667 0.94668 0.0
O3363 O 0.65272 0.61989 0.93825 0.0
H3364 H 0.62551 0.62537 0.93688 0.0
H3365 H 0.60954 0.63272 0.92496 0.0
H3366 H 0.58502 0.62173 0.95125 0.0
H3367 H 0.60113 0.6144 0.96313 0.0
H3368 H 0.63967 0.60626 0.00609 0.0
H3369 H 0.64157 0.61436 0.98652 0.0
H3370 H 0.67557 0.59521 0.00494 0.0
H3371 H 0.67743 0.60349 0.9854 0.0
H3372 H 0.69294 0.63396 0.93067 0.0
H3373 H 0.67024 0.65905 0.91438 0.0
H3374 H 0.65345 0.64954 0.92305 0.0
H3375 H 0.676 0.62471 0.93981 0.0
C3376 C 0.63271 0.36457 0.20032 0.0
C3377 C 0.62754 0.36691 0.18952 0.0
C3378 C 0.6243 0.34626 0.18642 0.0
C3379 C 0.62338 0.35784 0.18262 0.0
C3380 C 0.62987 0.34393 0.19707 0.0
C3381 C 0.63401 0.35304 0.20399 0.0
U3382 U 0.63115 0.39644 0.20639 0.0
O3383 O 0.62628 0.40611 0.22209 0.0
O3384 O 0.64348 0.4088 0.2143 0.0
C3385 C 0.63665 0.41077 0.22325 0.0
C3386 C 0.63573 0.3742 0.2081 0.0
C3387 C 0.64201 0.40933 0.23478 0.0
C3388 C 0.64615 0.39748 0.2518 0.0
C3389 C 0.64146 0.39863 0.24064 0.0
C3390 C 0.65231 0.4176 0.25126 0.0
C3391 C 0.65159 0.40697 0.25726 0.0
C3392 C 0.64753 0.41877 0.24013 0.0
C3393 C 0.61465 0.41369 0.18254 0.0
C3394 C 0.61336 0.43458 0.17973 0.0
C3395 C 0.59941 0.42185 0.17044 0.0
C3396 C 0.60493 0.41224 0.17536 0.0
C3397 C 0.60361 0.43313 0.17247 0.0
C3398 C 0.61886 0.42492 0.18473 0.0
C3399 C 0.61998 0.40328 0.1877 0.0
O3400 O 0.64319 0.38177 0.20388 0.0
O3401 O 0.62672 0.37912 0.21309 0.0
O3402 O 0.61475 0.39916 0.19697 0.0
O3403 O 0.63139 0.40307 0.18844 0.0
H3404 H 0.62641 0.37579 0.18659 0.0
H3405 H 0.61919 0.35993 0.17446 0.0
H3406 H 0.63073 0.3351 0.20024 0.0
H3407 H 0.63792 0.3511 0.21233 0.0
H3408 H 0.6455 0.38915 0.25614 0.0
H3409 H 0.63729 0.3912 0.23663 0.0
H3410 H 0.65646 0.42507 0.25521 0.0
H3411 H 0.64806 0.42708 0.23573 0.0
H3412 H 0.61671 0.44318 0.18157 0.0
H3413 H 0.59161 0.42043 0.16541 0.0
H3414 H 0.60147 0.40363 0.1737 0.0
H3415 H 0.62631 0.42622 0.19034 0.0
C3416 C 0.88722 0.38395 0.44994 0.0
C3417 C 0.88509 0.37914 0.43894 0.0
C3418 C 0.90579 0.37588 0.43617 0.0
C3419 C 0.89429 0.37516 0.4321 0.0
C3420 C 0.90791 0.38111 0.44703 0.0
C3421 C 0.89868 0.38508 0.45388 0.0
U3422 U 0.8553 0.3818 0.4558 0.0
O3423 O 0.84566 0.3766 0.47141 0.0
O3424 O 0.84272 0.39385 0.4638 0.0
C3425 C 0.84082 0.38688 0.47266 0.0
C3426 C 0.87745 0.38669 0.45766 0.0
C3427 C 0.84211 0.39212 0.48427 0.0
C3428 C 0.85375 0.39619 0.50144 0.0
C3429 C 0.85274 0.39158 0.49023 0.0
C3430 C 0.83358 0.40224 0.50074 0.0
C3431 C 0.84417 0.40153 0.50684 0.0
C3432 C 0.83257 0.39754 0.48956 0.0
C3433 C 0.83821 0.36545 0.43182 0.0
C3434 C 0.81731 0.36419 0.42906 0.0
C3435 C 0.83 0.35018 0.41979 0.0
C3436 C 0.83963 0.35569 0.42467 0.0
C3437 C 0.81873 0.35441 0.42183 0.0
C3438 C 0.82698 0.36968 0.43402 0.0
C3439 C 0.84861 0.37078 0.43696 0.0
O3440 O 0.86979 0.39408 0.45349 0.0
O3441 O 0.87266 0.37752 0.46249 0.0
O3442 O 0.85281 0.36549 0.44616 0.0
O3443 O 0.84873 0.38218 0.43783 0.0
H3444 H 0.87627 0.37813 0.4358 0.0
H3445 H 0.89235 0.37122 0.42377 0.0
H3446 H 0.91667 0.38181 0.45041 0.0
H3447 H 0.90046 0.38871 0.46238 0.0
H3448 H 0.86204 0.39556 0.50586 0.0
H3449 H 0.86025 0.3875 0.48626 0.0
H3450 H 0.82604 0.4063 0.50464 0.0
H3451 H 0.8243 0.39806 0.48508 0.0
H3452 H 0.80872 0.36757 0.43091 0.0
H3453 H 0.8314 0.34237 0.41478 0.0
H3454 H 0.84823 0.35221 0.42301 0.0
H3455 H 0.82569 0.37715 0.4396 0.0
C3456 C 0.86898 0.36445 0.80097 0.0
C3457 C 0.87407 0.36673 0.81181 0.0
C3458 C 0.87737 0.34606 0.81479 0.0
C3459 C 0.87823 0.35761 0.81867 0.0
C3460 C 0.87188 0.3438 0.80408 0.0
C3461 C 0.86775 0.35295 0.79721 0.0
U3462 U 0.86951 0.3965 0.79532 0.0
O3463 O 0.87446 0.40651 0.77985 0.0
O3464 O 0.85693 0.40844 0.78713 0.0
C3465 C 0.86396 0.41078 0.77842 0.0
C3466 C 0.8659 0.37412 0.79325 0.0
C3467 C 0.85899 0.40929 0.76672 0.0
C3468 C 0.85555 0.39745 0.74955 0.0
C3469 C 0.85999 0.39866 0.76081 0.0
C3470 C 0.84879 0.41739 0.75009 0.0
C3471 C 0.84993 0.40682 0.74405 0.0
C3472 C 0.85331 0.41862 0.76132 0.0
C3473 C 0.88414 0.4145 0.81963 0.0
C3474 C 0.89265 0.4337 0.8177 0.0
C3475 C 0.89171 0.42449 0.83661 0.0
C3476 C 0.88624 0.41486 0.83162 0.0
C3477 C 0.89525 0.43387 0.82966 0.0
C3478 C 0.88717 0.42407 0.81271 0.0
C3479 C 0.87959 0.40375 0.81448 0.0
O3480 O 0.85801 0.38134 0.79731 0.0
O3481 O 0.87489 0.37945 0.78867 0.0
O3482 O 0.88533 0.39983 0.80541 0.0
O3483 O 0.86825 0.40302 0.81332 0.0
H3484 H 0.87513 0.37559 0.81482 0.0
H3485 H 0.88236 0.35966 0.82688 0.0
H3486 H 0.87107 0.335 0.80085 0.0
H3487 H 0.86389 0.35106 0.78883 0.0
H3488 H 0.85652 0.38917 0.74518 0.0
H3489 H 0.86428 0.39132 0.76487 0.0
H3490 H 0.84449 0.42477 0.74611 0.0
H3491 H 0.85243 0.42688 0.76576 0.0
H3492 H 0.89519 0.44086 0.81213 0.0
H3493 H 0.89313 0.42456 0.8459 0.0
H3494 H 0.88387 0.40758 0.8371 0.0
H3495 H 0.88557 0.42395 0.80343 0.0
C3496 C 0.8866 0.61858 0.05086 0.0
C3497 C 0.88428 0.62377 0.06164 0.0
C3498 C 0.90494 0.62697 0.06473 0.0
C3499 C 0.89336 0.62792 0.06853 0.0
C3500 C 0.90724 0.62138 0.05409 0.0
C3501 C 0.89812 0.61725 0.04718 0.0
U3502 U 0.85471 0.62014 0.04482 0.0
O3503 O 0.84502 0.62501 0.02913 0.0
O3504 O 0.84234 0.6078 0.03692 0.0
C3505 C 0.84036 0.61464 0.02798 0.0
C3506 C 0.87695 0.61556 0.04309 0.0
C3507 C 0.84178 0.60929 0.01644 0.0
C3508 C 0.85358 0.60518 0.99939 0.0
C3509 C 0.85245 0.60987 0.01055 0.0
C3510 C 0.83347 0.59896 0.99999 0.0
C3511 C 0.84409 0.59971 0.99396 0.0
C3512 C 0.83233 0.60374 0.01112 0.0
C3513 C 0.83747 0.6366 0.06867 0.0
C3514 C 0.81657 0.63787 0.07146 0.0
C3515 C 0.82927 0.65184 0.08076 0.0
C3516 C 0.8389 0.64633 0.07584 0.0
C3517 C 0.81801 0.64762 0.07872 0.0
C3518 C 0.82624 0.63238 0.06647 0.0
C3519 C 0.84788 0.63129 0.06352 0.0
O3520 O 0.86939 0.6081 0.04732 0.0
O3521 O 0.87202 0.62458 0.03811 0.0
O3522 O 0.85199 0.63653 0.05424 0.0
O3523 O 0.84811 0.61988 0.06277 0.0
H3524 H 0.8754 0.62493 0.06458 0.0
H3525 H 0.89128 0.63213 0.07669 0.0
H3526 H 0.91606 0.62049 0.05092 0.0
H3527 H 0.90004 0.61332 0.03884 0.0
H3528 H 0.8619 0.60584 0.99503 0.0
H3529 H 0.85989 0.61405 0.01454 0.0
H3530 H 0.826 0.5948 0.99607 0.0
H3531 H 0.82403 0.60319 0.01555 0.0
H3532 H 0.80798 0.6345 0.06961 0.0
H3533 H 0.83068 0.65964 0.08578 0.0
H3534 H 0.8475 0.6498 0.07751 0.0
H3535 H 0.82495 0.62493 0.06087 0.0
C3536 C 0.63232 0.63647 0.30058 0.0
C3537 C 0.62729 0.6342 0.31146 0.0
C3538 C 0.62391 0.65486 0.3144 0.0
C3539 C 0.62313 0.64331 0.31831 0.0
C3540 C 0.62935 0.65712 0.30367 0.0
C3541 C 0.63348 0.64798 0.29679 0.0
U3542 U 0.63093 0.60454 0.29484 0.0
O3543 O 0.62597 0.59468 0.27929 0.0
O3544 O 0.64327 0.59216 0.28695 0.0
C3545 C 0.63636 0.59006 0.27809 0.0
C3546 C 0.63533 0.62678 0.29286 0.0
C3547 C 0.6416 0.59141 0.26649 0.0
C3548 C 0.64562 0.60314 0.24937 0.0
C3549 C 0.641 0.60206 0.26056 0.0
C3550 C 0.65181 0.58301 0.25001 0.0
C3551 C 0.65104 0.59361 0.24394 0.0
C3552 C 0.64709 0.58192 0.26117 0.0
C3553 C 0.61482 0.58745 0.31906 0.0
C3554 C 0.61372 0.56659 0.32212 0.0
C3555 C 0.59975 0.57932 0.33138 0.0
C3556 C 0.60514 0.58892 0.3263 0.0
C3557 C 0.60402 0.56805 0.32944 0.0
C3558 C 0.6191 0.57623 0.31696 0.0
C3559 C 0.62001 0.59783 0.31373 0.0
O3560 O 0.64289 0.61931 0.29708 0.0
O3561 O 0.6263 0.62176 0.28802 0.0
O3562 O 0.61465 0.60181 0.30446 0.0
O3563 O 0.63141 0.59811 0.31286 0.0
H3564 H 0.62626 0.62534 0.31448 0.0
H3565 H 0.61904 0.64126 0.32654 0.0
H3566 H 0.6301 0.66592 0.30041 0.0
H3567 H 0.63729 0.64986 0.28839 0.0
H3568 H 0.64495 0.61144 0.24497 0.0
H3569 H 0.63686 0.60952 0.26455 0.0
H3570 H 0.65594 0.57551 0.24609 0.0
H3571 H 0.64766 0.57364 0.26563 0.0
H3572 H 0.61713 0.55799 0.32034 0.0
H3573 H 0.59198 0.58074 0.33646 0.0
H3574 H 0.60163 0.59751 0.32789 0.0
H3575 H 0.62651 0.57491 0.31131 0.0
C3576 C 0.61451 0.38252 0.55074 0.0
C3577 C 0.6168 0.37746 0.5616 0.0
C3578 C 0.59615 0.37407 0.56455 0.0
C3579 C 0.60771 0.37328 0.56846 0.0
C3580 C 0.59387 0.37953 0.55383 0.0
C3581 C 0.60301 0.38369 0.54696 0.0
U3582 U 0.64644 0.38113 0.54496 0.0
O3583 O 0.65629 0.37622 0.52938 0.0
O3584 O 0.6588 0.3935 0.53709 0.0
C3585 C 0.66089 0.38662 0.5282 0.0
C3586 C 0.6242 0.38555 0.54302 0.0
C3587 C 0.65949 0.3919 0.51662 0.0
C3588 C 0.64771 0.39594 0.49954 0.0
C3589 C 0.64883 0.39129 0.51072 0.0
C3590 C 0.66781 0.40216 0.50014 0.0
C3591 C 0.6572 0.40138 0.4941 0.0
C3592 C 0.66895 0.39743 0.51129 0.0
C3593 C 0.66355 0.36491 0.56911 0.0
C3594 C 0.68442 0.36375 0.57212 0.0
C3595 C 0.67169 0.34981 0.58141 0.0
C3596 C 0.66209 0.35523 0.57635 0.0
C3597 C 0.68296 0.35405 0.57944 0.0
C3598 C 0.67478 0.36916 0.56699 0.0
C3599 C 0.65317 0.37013 0.5638 0.0
O3600 O 0.63167 0.39309 0.54726 0.0
O3601 O 0.62922 0.37654 0.53814 0.0
O3602 O 0.64919 0.36482 0.55452 0.0
O3603 O 0.65289 0.38153 0.56297 0.0
H3604 H 0.62567 0.37643 0.56462 0.0
H3605 H 0.60977 0.36917 0.57668 0.0
H3606 H 0.58507 0.38028 0.55058 0.0
H3607 H 0.60111 0.38751 0.53856 0.0
H3608 H 0.6394 0.39525 0.49517 0.0
H3609 H 0.64139 0.38713 0.51472 0.0
H3610 H 0.67529 0.40631 0.4962 0.0
H3611 H 0.67724 0.39801 0.51573 0.0
H3612 H 0.69302 0.36714 0.57033 0.0
H3613 H 0.67026 0.34204 0.58648 0.0
H3614 H 0.65349 0.35174 0.57795 0.0
H3615 H 0.6761 0.37658 0.56133 0.0
C3616 C 0.70033 0.86856 0.63653 0.0
C3617 C 0.68953 0.87372 0.63419 0.0
C3618 C 0.68642 0.87697 0.65484 0.0
C3619 C 0.68263 0.87788 0.64326 0.0
C3620 C 0.69708 0.8714 0.65716 0.0
C3621 C 0.704 0.86726 0.64806 0.0
U3622 U 0.7064 0.8701 0.60466 0.0
O3623 O 0.72209 0.87498 0.59497 0.0
O3624 O 0.71432 0.85776 0.5923 0.0
C3625 C 0.72326 0.86461 0.59032 0.0
C3626 C 0.70812 0.86554 0.62689 0.0
C3627 C 0.73481 0.85927 0.59176 0.0
C3628 C 0.75183 0.85517 0.6036 0.0
C3629 C 0.74067 0.85985 0.60245 0.0
C3630 C 0.75128 0.84895 0.58349 0.0
C3631 C 0.75729 0.84971 0.59412 0.0
C3632 C 0.74015 0.85372 0.58232 0.0
C3633 C 0.6825 0.88653 0.58741 0.0
C3634 C 0.67963 0.88775 0.56652 0.0
C3635 C 0.6704 0.90177 0.57923 0.0
C3636 C 0.67535 0.89628 0.58885 0.0
C3637 C 0.67239 0.89752 0.56796 0.0
C3638 C 0.68465 0.88228 0.57618 0.0
C3639 C 0.68768 0.88123 0.59781 0.0
O3640 O 0.70391 0.85807 0.61934 0.0
O3641 O 0.71309 0.87456 0.62197 0.0
O3642 O 0.69694 0.88647 0.60192 0.0
O3643 O 0.68845 0.86982 0.59804 0.0
H3644 H 0.6866 0.87485 0.6253 0.0
H3645 H 0.67446 0.88207 0.64116 0.0
H3646 H 0.70024 0.87055 0.66599 0.0
H3647 H 0.71235 0.86336 0.65 0.0
H3648 H 0.75619 0.85584 0.61192 0.0
H3649 H 0.73666 0.86403 0.60987 0.0
H3650 H 0.75523 0.84479 0.57603 0.0
H3651 H 0.73574 0.85316 0.57402 0.0
H3652 H 0.68144 0.88436 0.55793 0.0
H3653 H 0.66538 0.90958 0.58064 0.0
H3654 H 0.67372 0.89977 0.59744 0.0
H3655 H 0.69024 0.87481 0.57489 0.0
C3656 C 0.19976 0.6338 0.36383 0.0
C3657 C 0.18876 0.62903 0.36604 0.0
C3658 C 0.18586 0.62575 0.34536 0.0
C3659 C 0.18186 0.62505 0.35689 0.0
C3660 C 0.19672 0.63096 0.34317 0.0
C3661 C 0.20363 0.63493 0.35235 0.0
U3662 U 0.20577 0.63222 0.39582 0.0
O3663 O 0.22139 0.62698 0.40545 0.0
O3664 O 0.21408 0.64442 0.40803 0.0
C3665 C 0.22283 0.63734 0.41005 0.0
C3666 C 0.20755 0.63657 0.37354 0.0
C3667 C 0.23451 0.64238 0.40866 0.0
C3668 C 0.25177 0.64596 0.39699 0.0
C3669 C 0.24052 0.64146 0.39808 0.0
C3670 C 0.25101 0.65263 0.41694 0.0
C3671 C 0.25716 0.65156 0.40642 0.0
C3672 C 0.2398 0.64805 0.41805 0.0
C3673 C 0.18191 0.61703 0.41384 0.0
C3674 C 0.18438 0.60842 0.43294 0.0
C3675 C 0.16527 0.60911 0.42413 0.0
C3676 C 0.16997 0.61471 0.41442 0.0
C3677 C 0.17247 0.60564 0.43336 0.0
C3678 C 0.18907 0.61405 0.42324 0.0
C3679 C 0.18676 0.62186 0.40306 0.0
O3680 O 0.20356 0.6442 0.38105 0.0
O3681 O 0.21221 0.6274 0.37851 0.0
O3682 O 0.19577 0.61627 0.39881 0.0
O3683 O 0.18787 0.63322 0.40261 0.0
H3684 H 0.18568 0.62804 0.37489 0.0
H3685 H 0.17354 0.62113 0.35888 0.0
H3686 H 0.20004 0.63165 0.33439 0.0
H3687 H 0.21213 0.63854 0.35052 0.0
H3688 H 0.25622 0.64504 0.38875 0.0
H3689 H 0.23656 0.63718 0.39069 0.0
H3690 H 0.2549 0.65691 0.42437 0.0
H3691 H 0.23528 0.64887 0.42627 0.0
H3692 H 0.19014 0.60594 0.43997 0.0
H3693 H 0.15601 0.60755 0.42439 0.0
H3694 H 0.1643 0.61706 0.40728 0.0
H3695 H 0.19832 0.61582 0.42295 0.0
C3696 C 0.61788 0.95009 0.61366 0.0
C3697 C 0.62265 0.93906 0.61574 0.0
C3698 C 0.62597 0.93642 0.59503 0.0
C3699 C 0.62665 0.93227 0.60651 0.0
C3700 C 0.62076 0.94731 0.59296 0.0
C3701 C 0.61678 0.95411 0.60223 0.0
U3702 U 0.61909 0.9556 0.64576 0.0
O3703 O 0.62431 0.97105 0.65567 0.0
O3704 O 0.60678 0.96385 0.65792 0.0
C3705 C 0.61389 0.97252 0.66014 0.0
C3706 C 0.61505 0.95775 0.62345 0.0
C3707 C 0.60894 0.98425 0.65877 0.0
C3708 C 0.60544 0.00152 0.64708 0.0
C3709 C 0.60988 0.99025 0.64818 0.0
C3710 C 0.59881 0.00083 0.66706 0.0
C3711 C 0.59988 0.00695 0.65652 0.0
C3712 C 0.60334 0.98959 0.66817 0.0
C3713 C 0.63385 0.93133 0.66364 0.0
C3714 C 0.64222 0.93342 0.68289 0.0
C3715 C 0.64154 0.91447 0.67375 0.0
C3716 C 0.63609 0.91937 0.66406 0.0
C3717 C 0.64493 0.92149 0.68314 0.0
C3718 C 0.63675 0.93832 0.6732 0.0
C3719 C 0.62921 0.9364 0.65288 0.0
O3720 O 0.6073 0.9537 0.63081 0.0
O3721 O 0.62419 0.96224 0.62861 0.0
O3722 O 0.63492 0.94543 0.64884 0.0
O3723 O 0.61786 0.93761 0.65229 0.0
H3724 H 0.62361 0.93585 0.62455 0.0
H3725 H 0.63056 0.92392 0.6084 0.0
H3726 H 0.62009 0.95075 0.58423 0.0
H3727 H 0.61317 0.96263 0.60049 0.0
H3728 H 0.60635 0.00596 0.63883 0.0
H3729 H 0.61411 0.98624 0.64078 0.0
H3730 H 0.59457 0.00476 0.67449 0.0
H3731 H 0.60251 0.98508 0.6764 0.0
H3732 H 0.64464 0.93904 0.69005 0.0
H3733 H 0.64305 0.90519 0.67388 0.0
H3734 H 0.63381 0.91384 0.65679 0.0
H3735 H 0.63504 0.94758 0.67304 0.0
C3736 C 0.30108 0.36888 0.86464 0.0
C3737 C 0.31196 0.37392 0.86688 0.0
C3738 C 0.3149 0.37717 0.8462 0.0
C3739 C 0.31881 0.37802 0.85775 0.0
C3740 C 0.30416 0.37173 0.84398 0.0
C3741 C 0.29729 0.36765 0.85314 0.0
U3742 U 0.2955 0.36956 0.89669 0.0
O3743 O 0.28005 0.37459 0.9067 0.0
O3744 O 0.28731 0.35705 0.90869 0.0
C3745 C 0.27862 0.36411 0.91102 0.0
C3746 C 0.29337 0.36586 0.87433 0.0
C3747 C 0.26691 0.35915 0.90957 0.0
C3748 C 0.24972 0.35568 0.89776 0.0
C3749 C 0.26097 0.36012 0.89894 0.0
C3750 C 0.25029 0.34898 0.91772 0.0
C3751 C 0.24424 0.35008 0.90715 0.0
C3752 C 0.26152 0.35351 0.91892 0.0
C3753 C 0.31988 0.38418 0.91459 0.0
C3754 C 0.31801 0.39272 0.93379 0.0
C3755 C 0.3369 0.39172 0.92454 0.0
C3756 C 0.33187 0.38626 0.91492 0.0
C3757 C 0.32997 0.39529 0.93393 0.0
C3758 C 0.31299 0.38723 0.92417 0.0
C3759 C 0.31469 0.37962 0.90386 0.0
O3760 O 0.29742 0.35799 0.88156 0.0
O3761 O 0.28882 0.3749 0.87962 0.0
O3762 O 0.30563 0.38536 0.89995 0.0
O3763 O 0.31351 0.36827 0.90317 0.0
H3764 H 0.31499 0.37499 0.87574 0.0
H3765 H 0.32705 0.38211 0.85977 0.0
H3766 H 0.30091 0.37091 0.83518 0.0
H3767 H 0.28889 0.36383 0.85128 0.0
H3768 H 0.24533 0.35662 0.88949 0.0
H3769 H 0.26502 0.36439 0.89158 0.0
H3770 H 0.24633 0.34471 0.92511 0.0
H3771 H 0.26598 0.35265 0.92717 0.0
H3772 H 0.31247 0.39527 0.94096 0.0
H3773 H 0.34619 0.39311 0.92459 0.0
H3774 H 0.33733 0.38385 0.90763 0.0
H3775 H 0.30371 0.38565 0.92408 0.0
C3776 C 0.38375 0.55144 0.61389 0.0
C3777 C 0.37899 0.56245 0.61609 0.0
C3778 C 0.37572 0.56535 0.5954 0.0
C3779 C 0.37502 0.56935 0.60693 0.0
C3780 C 0.38092 0.55448 0.59322 0.0
C3781 C 0.38487 0.54756 0.60241 0.0
U3782 U 0.38216 0.54545 0.64587 0.0
O3783 O 0.37691 0.52985 0.65552 0.0
O3784 O 0.39435 0.53712 0.6581 0.0
C3785 C 0.38726 0.52839 0.66012 0.0
C3786 C 0.38651 0.54364 0.6236 0.0
C3787 C 0.39229 0.5167 0.65872 0.0
C3788 C 0.39591 0.49948 0.64701 0.0
C3789 C 0.39142 0.51073 0.64812 0.0
C3790 C 0.40246 0.50013 0.66701 0.0
C3791 C 0.40145 0.49403 0.65646 0.0
C3792 C 0.39789 0.51135 0.66813 0.0
C3793 C 0.36698 0.56937 0.66385 0.0
C3794 C 0.35841 0.56696 0.68298 0.0
C3795 C 0.35901 0.58603 0.67408 0.0
C3796 C 0.36462 0.58131 0.66439 0.0
C3797 C 0.35559 0.57886 0.68334 0.0
C3798 C 0.36404 0.56224 0.67328 0.0
C3799 C 0.37181 0.56449 0.65309 0.0
O3800 O 0.39415 0.54763 0.63111 0.0
O3801 O 0.37734 0.53901 0.62857 0.0
O3802 O 0.36622 0.55548 0.64885 0.0
O3803 O 0.38318 0.56336 0.65265 0.0
H3804 H 0.378 0.56554 0.62493 0.0
H3805 H 0.37111 0.57768 0.60891 0.0
H3806 H 0.38161 0.55115 0.58444 0.0
H3807 H 0.38848 0.53906 0.60058 0.0
H3808 H 0.39504 0.49505 0.63875 0.0
H3809 H 0.3872 0.51474 0.64071 0.0
H3810 H 0.40669 0.4962 0.67445 0.0
H3811 H 0.39867 0.51584 0.67637 0.0
H3812 H 0.35597 0.56122 0.69003 0.0
H3813 H 0.35742 0.59529 0.6743 0.0
H3814 H 0.36693 0.58695 0.65721 0.0
H3815 H 0.36585 0.553 0.67303 0.0
C3816 C 0.80114 0.1334 0.13745 0.0
C3817 C 0.81218 0.12864 0.13538 0.0
C3818 C 0.8148 0.12531 0.15609 0.0
C3819 C 0.81896 0.12464 0.14462 0.0
C3820 C 0.80391 0.13051 0.15815 0.0
C3821 C 0.79712 0.13449 0.14888 0.0
U3822 U 0.79561 0.13213 0.10535 0.0
O3823 O 0.78015 0.1269 0.09546 0.0
O3824 O 0.78736 0.14441 0.09316 0.0
C3825 C 0.77869 0.13731 0.09097 0.0
C3826 C 0.79348 0.13621 0.12765 0.0
C3827 C 0.76696 0.14226 0.09232 0.0
C3828 C 0.74968 0.14577 0.10399 0.0
C3829 C 0.76095 0.14132 0.10291 0.0
C3830 C 0.7504 0.15242 0.08402 0.0
C3831 C 0.74426 0.15134 0.09455 0.0
C3832 C 0.76164 0.14788 0.08292 0.0
C3833 C 0.81982 0.1173 0.08748 0.0
C3834 C 0.81765 0.1089 0.06825 0.0
C3835 C 0.83664 0.10957 0.07733 0.0
C3836 C 0.83178 0.11505 0.08703 0.0
C3837 C 0.82958 0.10617 0.06797 0.0
C3838 C 0.8128 0.1144 0.07795 0.0
C3839 C 0.81479 0.12198 0.09824 0.0
O3840 O 0.79753 0.14395 0.12028 0.0
O3841 O 0.78898 0.12707 0.12252 0.0
O3842 O 0.80577 0.11628 0.10232 0.0
O3843 O 0.81359 0.13333 0.0988 0.0
H3844 H 0.81539 0.12768 0.12657 0.0
H3845 H 0.82732 0.12073 0.14273 0.0
H3846 H 0.80046 0.13118 0.16688 0.0
H3847 H 0.78859 0.1381 0.15061 0.0
H3848 H 0.74523 0.14486 0.11223 0.0
H3849 H 0.76495 0.13708 0.11031 0.0
H3850 H 0.74648 0.15667 0.07658 0.0
H3851 H 0.76615 0.14872 0.0747 0.0
H3852 H 0.812 0.10648 0.06112 0.0
H3853 H 0.84591 0.10806 0.07718 0.0
H3854 H 0.83734 0.11734 0.09428 0.0
H3855 H 0.80354 0.11613 0.07813 0.0
C3856 C 0.61742 0.05141 0.8871 0.0
C3857 C 0.62219 0.06243 0.88499 0.0
C3858 C 0.62533 0.0652 0.90571 0.0
C3859 C 0.62609 0.06928 0.89422 0.0
C3860 C 0.62013 0.05431 0.9078 0.0
C3861 C 0.61625 0.04746 0.89854 0.0
U3862 U 0.61897 0.04569 0.85505 0.0
O3863 O 0.6243 0.03019 0.84528 0.0
O3864 O 0.60678 0.03737 0.84281 0.0
C3865 C 0.61393 0.02869 0.84072 0.0
C3866 C 0.61471 0.04369 0.87732 0.0
C3867 C 0.60898 0.01697 0.84211 0.0
C3868 C 0.60546 0.99973 0.85383 0.0
C3869 C 0.6099 0.01099 0.85271 0.0
C3870 C 0.59886 1.00038 0.83384 0.0
C3871 C 0.59992 0.99427 0.84439 0.0
C3872 C 0.60338 0.01161 0.83271 0.0
C3873 C 0.63387 0.06986 0.83717 0.0
C3874 C 0.64233 0.06766 0.81797 0.0
C3875 C 0.64168 0.08665 0.82705 0.0
C3876 C 0.63617 0.08181 0.83673 0.0
C3877 C 0.64509 0.07958 0.8177 0.0
C3878 C 0.63679 0.06283 0.82765 0.0
C3879 C 0.62913 0.06485 0.84791 0.0
O3880 O 0.60702 0.04768 0.86987 0.0
O3881 O 0.62391 0.03917 0.87229 0.0
O3882 O 0.63481 0.05585 0.85206 0.0
O3883 O 0.61778 0.06364 0.8484 0.0
H3884 H 0.62322 0.06559 0.87617 0.0
H3885 H 0.63 0.07763 0.89231 0.0
H3886 H 0.6194 0.05092 0.91655 0.0
H3887 H 0.61264 0.03894 0.9003 0.0
H3888 H 0.60636 0.9953 0.86209 0.0
H3889 H 0.61412 0.01501 0.86011 0.0
H3890 H 0.59463 0.99644 0.82641 0.0
H3891 H 0.60257 0.0161 0.82447 0.0
H3892 H 0.64476 0.06201 0.81085 0.0
H3893 H 0.64323 0.09591 0.8269 0.0
H3894 H 0.63387 0.08738 0.84397 0.0
H3895 H 0.63503 0.05358 0.82783 0.0
C3896 C 0.88353 0.95002 0.38705 0.0
C3897 C 0.87878 0.93899 0.38495 0.0
C3898 C 0.87562 0.93624 0.40567 0.0
C3899 C 0.87487 0.93215 0.39418 0.0
C3900 C 0.8808 0.94713 0.40775 0.0
C3901 C 0.88469 0.95398 0.39849 0.0
U3902 U 0.88203 0.95567 0.35499 0.0
O3903 O 0.87669 0.97114 0.34517 0.0
O3904 O 0.89421 0.96397 0.34274 0.0
C3905 C 0.88706 0.97263 0.34061 0.0
C3906 C 0.88625 0.95774 0.37727 0.0
C3907 C 0.89199 0.98437 0.34194 0.0
C3908 C 0.89549 0.00167 0.35358 0.0
C3909 C 0.89104 0.9904 0.35251 0.0
C3910 C 0.90213 0.00092 0.33361 0.0
C3911 C 0.90106 0.00707 0.34413 0.0
C3912 C 0.89761 0.98968 0.33253 0.0
C3913 C 0.86717 0.93142 0.3372 0.0
C3914 C 0.85877 0.93352 0.31796 0.0
C3915 C 0.85934 0.91459 0.32716 0.0
C3916 C 0.86484 0.91947 0.33682 0.0
C3917 C 0.85597 0.92161 0.31775 0.0
C3918 C 0.8643 0.9384 0.32763 0.0
C3919 C 0.8719 0.93648 0.34792 0.0
O3920 O 0.89396 0.95374 0.36983 0.0
O3921 O 0.87706 0.96224 0.37221 0.0
O3922 O 0.8662 0.94548 0.35203 0.0
O3923 O 0.88325 0.9377 0.34841 0.0
H3924 H 0.87776 0.93583 0.37613 0.0
H3925 H 0.87097 0.9238 0.39227 0.0
H3926 H 0.88153 0.95052 0.4165 0.0
H3927 H 0.88829 0.9625 0.40024 0.0
H3928 H 0.89457 0.00613 0.36182 0.0
H3929 H 0.8868 0.98642 0.35992 0.0
H3930 H 0.90639 0.00482 0.32617 0.0
H3931 H 0.89845 0.98515 0.32432 0.0
H3932 H 0.85638 0.93914 0.31079 0.0
H3933 H 0.85777 0.90533 0.32707 0.0
H3934 H 0.86711 0.91394 0.34411 0.0
H3935 H 0.86608 0.94765 0.32775 0.0
C3936 C 0.35971 0.30435 0.13533 0.0
C3937 C 0.36087 0.31641 0.13409 0.0
C3938 C 0.34035 0.31813 0.12922 0.0
C3939 C 0.3513 0.32324 0.13113 0.0
C3940 C 0.33914 0.30605 0.1307 0.0
C3941 C 0.34877 0.2992 0.13373 0.0
U3942 U 0.39211 0.30159 0.13358 0.0
O3943 O 0.40525 0.29416 0.14533 0.0
O3944 O 0.40345 0.28747 0.12754 0.0
C3945 C 0.40845 0.28625 0.13774 0.0
C3946 C 0.37009 0.29716 0.13737 0.0
C3947 C 0.4091 0.27433 0.14222 0.0
C3948 C 0.40026 0.2556 0.14625 0.0
C3949 C 0.3994 0.26694 0.14196 0.0
C3950 C 0.42046 0.259 0.1512 0.0
C3951 C 0.41081 0.25152 0.15092 0.0
C3952 C 0.4196 0.2703 0.14686 0.0
C3953 C 0.4083 0.32781 0.12097 0.0
C3954 C 0.42772 0.32714 0.11265 0.0
C3955 C 0.4174 0.34546 0.11399 0.0
C3956 C 0.40805 0.33984 0.11926 0.0
C3957 C 0.4272 0.33913 0.11027 0.0
C3958 C 0.41832 0.32151 0.11796 0.0
C3959 C 0.39769 0.32194 0.12495 0.0
O3960 O 0.37554 0.29395 0.12786 0.0
O3961 O 0.37717 0.30097 0.1455 0.0
O3962 O 0.39689 0.31997 0.13618 0.0
O3963 O 0.39434 0.31309 0.11855 0.0
H3964 H 0.36927 0.32054 0.13514 0.0
H3965 H 0.35258 0.3325 0.13005 0.0
H3966 H 0.33084 0.30186 0.12927 0.0
H3967 H 0.34774 0.28988 0.13455 0.0
H3968 H 0.39266 0.25006 0.14596 0.0
H3969 H 0.39119 0.26995 0.13846 0.0
H3970 H 0.42869 0.25613 0.15475 0.0
H3971 H 0.42716 0.27592 0.14715 0.0
H3972 H 0.43513 0.32201 0.10992 0.0
H3973 H 0.41672 0.35472 0.11238 0.0
H3974 H 0.4004 0.34483 0.12159 0.0
H3975 H 0.41867 0.31219 0.11928 0.0
C3976 C 0.44704 0.60957 0.886 0.0
C3977 C 0.43495 0.61075 0.88503 0.0
C3978 C 0.43318 0.59037 0.87965 0.0
C3979 C 0.42809 0.60124 0.88196 0.0
C3980 C 0.44529 0.58913 0.88087 0.0
C3981 C 0.45217 0.59869 0.88403 0.0
U3982 U 0.44986 0.64192 0.88399 0.0
O3983 O 0.45709 0.6552 0.89569 0.0
O3984 O 0.46402 0.65322 0.87801 0.0
C3985 C 0.46507 0.65836 0.88816 0.0
C3986 C 0.45426 0.61993 0.88806 0.0
C3987 C 0.47692 0.65921 0.89277 0.0
C3988 C 0.49573 0.65069 0.89714 0.0
C3989 C 0.48444 0.6496 0.89277 0.0
C3990 C 0.49201 0.67093 0.90166 0.0
C3991 C 0.49963 0.66137 0.90163 0.0
C3992 C 0.48076 0.66985 0.89725 0.0
C3993 C 0.42373 0.65786 0.87084 0.0
C3994 C 0.42442 0.67734 0.86266 0.0
C3995 C 0.40625 0.6667 0.86312 0.0
C3996 C 0.4118 0.65741 0.86859 0.0
C3997 C 0.41256 0.67664 0.85977 0.0
C3998 C 0.42998 0.66799 0.86815 0.0
C3999 C 0.42961 0.64733 0.87503 0.0
O4000 O 0.45761 0.62529 0.87854 0.0
O4001 O 0.45038 0.6271 0.89608 0.0
O4002 O 0.43143 0.64667 0.88629 0.0
O4003 O 0.43855 0.64395 0.86879 0.0
H4004 H 0.43082 0.61911 0.88637 0.0
H4005 H 0.41881 0.60254 0.88108 0.0
H4006 H 0.44948 0.58088 0.87913 0.0
H4007 H 0.46151 0.59765 0.88463 0.0
H4008 H 0.50138 0.64315 0.89704 0.0
H4009 H 0.48157 0.6413 0.88939 0.0
H4010 H 0.49474 0.67927 0.90508 0.0
H4011 H 0.47505 0.67734 0.89733 0.0
H4012 H 0.42953 0.68486 0.86021 0.0
H4013 H 0.39709 0.66588 0.86111 0.0
H4014 H 0.40685 0.64966 0.87065 0.0
H4015 H 0.43923 0.66848 0.86988 0.0
C4016 C 0.14148 0.69728 0.6353 0.0
C4017 C 0.14035 0.68518 0.63442 0.0
C4018 C 0.16078 0.68342 0.62919 0.0
C4019 C 0.14991 0.67832 0.63146 0.0
C4020 C 0.16196 0.69554 0.63033 0.0
C4021 C 0.15236 0.70242 0.63336 0.0
U4022 U 0.10911 0.70003 0.63323 0.0
O4023 O 0.09583 0.70747 0.6448 0.0
O4024 O 0.09782 0.71412 0.62701 0.0
C4025 C 0.0927 0.71536 0.63715 0.0
C4026 C 0.13109 0.70449 0.63722 0.0
C4027 C 0.09195 0.72729 0.6416 0.0
C4028 C 0.10067 0.74606 0.6457 0.0
C4029 C 0.1016 0.73474 0.64137 0.0
C4030 C 0.08049 0.74252 0.6506 0.0
C4031 C 0.0901 0.75005 0.65039 0.0
C4032 C 0.08141 0.73124 0.64622 0.0
C4033 C 0.09316 0.67371 0.62053 0.0
C4034 C 0.07366 0.67429 0.61238 0.0
C4035 C 0.08434 0.65613 0.61302 0.0
C4036 C 0.09363 0.66175 0.61841 0.0
C4037 C 0.07439 0.66239 0.60961 0.0
C4038 C 0.08301 0.67992 0.61779 0.0
C4039 C 0.10369 0.67964 0.62462 0.0
O4040 O 0.12573 0.70768 0.62765 0.0
O4041 O 0.12393 0.70072 0.64531 0.0
O4042 O 0.10434 0.68166 0.63584 0.0
O4043 O 0.10707 0.68848 0.61822 0.0
H4044 H 0.132 0.68104 0.63573 0.0
H4045 H 0.14865 0.66902 0.63065 0.0
H4046 H 0.17021 0.69974 0.62861 0.0
H4047 H 0.15336 0.71177 0.63389 0.0
H4048 H 0.10825 0.75164 0.64546 0.0
H4049 H 0.10984 0.73179 0.63789 0.0
H4050 H 0.07223 0.74532 0.65416 0.0
H4051 H 0.0739 0.72557 0.64648 0.0
H4052 H 0.06613 0.67936 0.60989 0.0
H4053 H 0.08517 0.64695 0.61111 0.0
H4054 H 0.10139 0.65683 0.62051 0.0
H4055 H 0.0825 0.68918 0.61942 0.0
C4056 C 0.05384 0.39142 0.38521 0.0
C4057 C 0.06594 0.39028 0.38425 0.0
C4058 C 0.06768 0.41075 0.37919 0.0
C4059 C 0.07279 0.39984 0.38133 0.0
C4060 C 0.05557 0.41194 0.3804 0.0
C4061 C 0.04869 0.40233 0.38339 0.0
U4062 U 0.05113 0.35906 0.3831 0.0
O4063 O 0.04371 0.34575 0.39465 0.0
O4064 O 0.03706 0.34777 0.37686 0.0
C4065 C 0.03583 0.34263 0.38699 0.0
C4066 C 0.04664 0.38103 0.38712 0.0
C4067 C 0.0239 0.34187 0.39143 0.0
C4068 C 0.00513 0.35058 0.39561 0.0
C4069 C 0.01645 0.35153 0.39127 0.0
C4070 C 0.00869 0.33037 0.4004 0.0
C4071 C 0.00115 0.33999 0.40025 0.0
C4072 C 0.01996 0.33131 0.39601 0.0
C4073 C 0.07751 0.34314 0.37042 0.0
C4074 C 0.07699 0.32369 0.36218 0.0
C4075 C 0.09516 0.33432 0.36306 0.0
C4076 C 0.08949 0.3436 0.36843 0.0
C4077 C 0.08892 0.3244 0.35953 0.0
C4078 C 0.07132 0.33302 0.36758 0.0
C4079 C 0.07154 0.35366 0.37451 0.0
O4080 O 0.04347 0.37569 0.37754 0.0
O4081 O 0.05041 0.37386 0.39519 0.0
O4082 O 0.06951 0.3543 0.38573 0.0
O4083 O 0.06271 0.35704 0.3681 0.0
H4084 H 0.07008 0.3819 0.38547 0.0
H4085 H 0.08207 0.39858 0.38046 0.0
H4086 H 0.05137 0.42022 0.37879 0.0
H4087 H 0.03935 0.40334 0.38399 0.0
H4088 H 0.99956 0.35817 0.39542 0.0
H4089 H 0.0194 0.35978 0.38782 0.0
H4090 H 0.00589 0.3221 0.40392 0.0
H4091 H 0.02562 0.32378 0.39622 0.0
H4092 H 0.07194 0.31618 0.35959 0.0
H4093 H 0.10436 0.33514 0.36124 0.0
H4094 H 0.0944 0.35133 0.37062 0.0
H4095 H 0.06204 0.33252 0.36911 0.0
C4096 C 0.35991 0.69726 0.36577 0.0
C4097 C 0.36112 0.68518 0.3668 0.0
C4098 C 0.34062 0.68333 0.37169 0.0
C4099 C 0.35157 0.67828 0.36966 0.0
C4100 C 0.33936 0.69543 0.37042 0.0
C4101 C 0.34896 0.70235 0.36748 0.0
U4102 U 0.39226 0.70006 0.3679 0.0
O4103 O 0.40554 0.70753 0.35636 0.0
O4104 O 0.40351 0.71415 0.37416 0.0
C4105 C 0.40865 0.71541 0.36403 0.0
C4106 C 0.37028 0.70451 0.36389 0.0
C4107 C 0.40937 0.72735 0.3596 0.0
C4108 C 0.40062 0.74611 0.35548 0.0
C4109 C 0.39971 0.73478 0.35981 0.0
C4110 C 0.42082 0.74259 0.35062 0.0
C4111 C 0.41119 0.75011 0.3508 0.0
C4112 C 0.41991 0.73131 0.355 0.0
C4113 C 0.40823 0.67366 0.3805 0.0
C4114 C 0.42767 0.67414 0.38878 0.0
C4115 C 0.41707 0.65596 0.38773 0.0
C4116 C 0.40779 0.66166 0.38239 0.0
C4117 C 0.42697 0.66219 0.39132 0.0
C4118 C 0.41834 0.67984 0.38341 0.0
C4119 C 0.3977 0.67964 0.37644 0.0
O4120 O 0.37561 0.70767 0.37348 0.0
O4121 O 0.37746 0.70078 0.3558 0.0
O4122 O 0.39704 0.6817 0.36523 0.0
O4123 O 0.39432 0.68845 0.38287 0.0
H4124 H 0.36953 0.68108 0.36566 0.0
H4125 H 0.35289 0.669 0.37059 0.0
H4126 H 0.33105 0.69958 0.37194 0.0
H4127 H 0.3479 0.71169 0.36682 0.0
H4128 H 0.39302 0.75167 0.35569 0.0
H4129 H 0.39147 0.73182 0.36328 0.0
H4130 H 0.42908 0.7454 0.34707 0.0
H4131 H 0.42745 0.72566 0.35476 0.0
H4132 H 0.43516 0.67918 0.39142 0.0
H4133 H 0.41626 0.64674 0.38947 0.0
H4134 H 0.40007 0.65676 0.38015 0.0
H4135 H 0.41882 0.68914 0.38196 0.0
C4136 C 0.05434 0.60953 0.11579 0.0
C4137 C 0.06642 0.61066 0.11687 0.0
C4138 C 0.06812 0.59018 0.12193 0.0
C4139 C 0.07324 0.60109 0.11985 0.0
C4140 C 0.05601 0.589 0.12059 0.0
C4141 C 0.04917 0.59863 0.11755 0.0
U4142 U 0.05164 0.64192 0.11767 0.0
O4143 O 0.04421 0.65513 0.106 0.0
O4144 O 0.03757 0.65326 0.12381 0.0
C4145 C 0.03631 0.6583 0.11363 0.0
C4146 C 0.04715 0.61993 0.11379 0.0
C4147 C 0.02438 0.65897 0.10919 0.0
C4148 C 0.00565 0.65012 0.10519 0.0
C4149 C 0.017 0.64926 0.10943 0.0
C4150 C 0.00901 0.67034 0.1003 0.0
C4151 C 0.00154 0.66068 0.10056 0.0
C4152 C 0.02033 0.66949 0.1046 0.0
C4153 C 0.07798 0.6579 0.13034 0.0
C4154 C 0.07745 0.67735 0.13859 0.0
C4155 C 0.09563 0.66672 0.13768 0.0
C4156 C 0.08997 0.65745 0.13231 0.0
C4157 C 0.08938 0.67664 0.14122 0.0
C4158 C 0.07178 0.66802 0.1332 0.0
C4159 C 0.07203 0.64737 0.12628 0.0
O4160 O 0.04396 0.62534 0.12333 0.0
O4161 O 0.05096 0.62703 0.10568 0.0
O4162 O 0.07003 0.64667 0.11506 0.0
O4163 O 0.06318 0.64402 0.13268 0.0
H4164 H 0.07057 0.61903 0.11569 0.0
H4165 H 0.08252 0.60234 0.12081 0.0
H4166 H 0.05181 0.58073 0.12216 0.0
H4167 H 0.03983 0.59763 0.11685 0.0
H4168 H 1.00012 0.64251 0.10546 0.0
H4169 H 0.02003 0.64104 0.1129 0.0
H4170 H 0.00613 0.67859 0.09678 0.0
H4171 H 0.02594 0.67705 0.10433 0.0
H4172 H 0.07239 0.68485 0.14119 0.0
H4173 H 0.10483 0.6659 0.13949 0.0
H4174 H 0.09488 0.64971 0.13012 0.0
H4175 H 0.0625 0.66851 0.13168 0.0
C4176 C 0.14151 0.30387 0.86532 0.0
C4177 C 0.14037 0.31597 0.86621 0.0
C4178 C 0.16077 0.31773 0.87151 0.0
C4179 C 0.1499 0.32283 0.86921 0.0
C4180 C 0.16197 0.30561 0.87036 0.0
C4181 C 0.15239 0.29873 0.86729 0.0
U4182 U 0.10917 0.30116 0.86749 0.0
O4183 O 0.0958 0.29396 0.85587 0.0
O4184 O 0.09784 0.28705 0.87356 0.0
C4185 C 0.09264 0.286 0.86344 0.0
C4186 C 0.13112 0.29667 0.86336 0.0
C4187 C 0.09173 0.27415 0.85885 0.0
C4188 C 0.1002 0.25535 0.85434 0.0
C4189 C 0.10132 0.26661 0.85879 0.0
C4190 C 0.07995 0.25914 0.84989 0.0
C4191 C 0.0895 0.25151 0.84982 0.0
C4192 C 0.08106 0.27036 0.85438 0.0
C4193 C 0.0934 0.32745 0.8805 0.0
C4194 C 0.07392 0.32696 0.88871 0.0
C4195 C 0.08465 0.34507 0.88802 0.0
C4196 C 0.09391 0.33941 0.88261 0.0
C4197 C 0.07469 0.33885 0.89146 0.0
C4198 C 0.08324 0.32128 0.88328 0.0
C4199 C 0.10388 0.32148 0.87634 0.0
O4200 O 0.1258 0.29338 0.87291 0.0
O4201 O 0.12393 0.30052 0.85534 0.0
O4202 O 0.10451 0.31959 0.8651 0.0
O4203 O 0.10722 0.31255 0.88263 0.0
H4204 H 0.13201 0.32012 0.86488 0.0
H4205 H 0.14863 0.33212 0.87003 0.0
H4206 H 0.17022 0.30142 0.8721 0.0
H4207 H 0.1534 0.28938 0.86675 0.0
H4208 H 0.10773 0.24969 0.85436 0.0
H4209 H 0.10964 0.26943 0.86215 0.0
H4210 H 0.0716 0.25647 0.84647 0.0
H4211 H 0.07359 0.2761 0.85435 0.0
H4212 H 0.06638 0.32192 0.89124 0.0
H4213 H 0.08551 0.35425 0.88992 0.0
H4214 H 0.10167 0.3443 0.88048 0.0
H4215 H 0.08269 0.31202 0.88166 0.0
C4216 C 0.4467 0.39137 0.61557 0.0
C4217 C 0.43465 0.39015 0.61684 0.0
C4218 C 0.43283 0.41068 0.6216 0.0
C4219 C 0.42778 0.3997 0.61976 0.0
C4220 C 0.4449 0.41195 0.6201 0.0
C4221 C 0.4518 0.40234 0.61711 0.0
U4222 U 0.44962 0.359 0.61755 0.0
O4223 O 0.45705 0.34582 0.60586 0.0
O4224 O 0.4638 0.34776 0.62362 0.0
C4225 C 0.465 0.34269 0.61345 0.0
C4226 C 0.45394 0.38102 0.61358 0.0
C4227 C 0.47691 0.34205 0.60893 0.0
C4228 C 0.49562 0.35089 0.60483 0.0
C4229 C 0.48429 0.35175 0.60914 0.0
C4230 C 0.49221 0.33068 0.59994 0.0
C4231 C 0.49969 0.34034 0.60017 0.0
C4232 C 0.48092 0.33154 0.6043 0.0
C4233 C 0.42352 0.34279 0.63036 0.0
C4234 C 0.42433 0.32346 0.63888 0.0
C4235 C 0.40593 0.33362 0.63741 0.0
C4236 C 0.41149 0.34297 0.63205 0.0
C4237 C 0.41233 0.32391 0.64123 0.0
C4238 C 0.42989 0.33285 0.63348 0.0
C4239 C 0.42933 0.3534 0.62628 0.0
O4240 O 0.45721 0.37565 0.62312 0.0
O4241 O 0.45013 0.37387 0.60551 0.0
O4242 O 0.43125 0.35414 0.61505 0.0
O4243 O 0.43818 0.35684 0.63263 0.0
H4244 H 0.43056 0.38172 0.61583 0.0
H4245 H 0.41852 0.39838 0.62086 0.0
H4246 H 0.44906 0.42028 0.62148 0.0
H4247 H 0.46111 0.40342 0.61626 0.0
H4248 H 0.50115 0.3585 0.60509 0.0
H4249 H 0.48128 0.35997 0.61264 0.0
H4250 H 0.49507 0.32244 0.5964 0.0
H4251 H 0.47531 0.32398 0.60405 0.0
H4252 H 0.42951 0.31612 0.64168 0.0
H4253 H 0.39667 0.33425 0.639 0.0
H4254 H 0.40644 0.35056 0.62964 0.0
H4255 H 0.43922 0.33256 0.63218 0.0
C4256 C 0.13562 0.35999 0.30384 0.0
C4257 C 0.13469 0.36112 0.31594 0.0
C4258 C 0.12961 0.34066 0.31768 0.0
C4259 C 0.13178 0.35155 0.32279 0.0
C4260 C 0.1308 0.33947 0.30556 0.0
C4261 C 0.13378 0.34909 0.29869 0.0
U4262 U 0.13338 0.39236 0.30104 0.0
O4263 O 0.1449 0.40568 0.29359 0.0
O4264 O 0.12713 0.40359 0.28691 0.0
C4265 C 0.13725 0.40876 0.28568 0.0
C4266 C 0.1375 0.37039 0.29662 0.0
C4267 C 0.1417 0.40951 0.27376 0.0
C4268 C 0.1459 0.40079 0.25501 0.0
C4269 C 0.14157 0.39984 0.26633 0.0
C4270 C 0.15063 0.42102 0.25852 0.0
C4271 C 0.15051 0.41138 0.251 0.0
C4272 C 0.14625 0.42008 0.2698 0.0
C4273 C 0.12058 0.40833 0.32731 0.0
C4274 C 0.1121 0.42769 0.3267 0.0
C4275 C 0.11329 0.41723 0.34495 0.0
C4276 C 0.11871 0.40796 0.33932 0.0
C4277 C 0.10958 0.42705 0.33866 0.0
C4278 C 0.11755 0.41837 0.32106 0.0
C4279 C 0.12472 0.3978 0.3214 0.0
O4280 O 0.1279 0.3757 0.29342 0.0
O4281 O 0.14553 0.3776 0.3004 0.0
O4282 O 0.13595 0.39719 0.31941 0.0
O4283 O 0.11835 0.39437 0.31257 0.0
H4284 H 0.13592 0.36949 0.32008 0.0
H4285 H 0.13093 0.3528 0.33208 0.0
H4286 H 0.12916 0.33121 0.30137 0.0
H4287 H 0.13436 0.34809 0.28935 0.0
H4288 H 0.14573 0.39319 0.24945 0.0
H4289 H 0.13814 0.39159 0.26929 0.0
H4290 H 0.15413 0.42929 0.25571 0.0
H4291 H 0.14643 0.42761 0.27545 0.0
H4292 H 0.10937 0.43512 0.3216 0.0
H4293 H 0.11157 0.41647 0.35418 0.0
H4294 H 0.12104 0.40029 0.34427 0.0
H4295 H 0.11898 0.41881 0.31176 0.0
C4296 C 0.39164 0.38553 0.05495 0.0
C4297 C 0.39041 0.38415 0.06699 0.0
C4298 C 0.41095 0.3794 0.06877 0.0
C4299 C 0.39997 0.38118 0.07384 0.0
C4300 C 0.41223 0.38101 0.05671 0.0
C4301 C 0.40262 0.38405 0.04985 0.0
U4302 U 0.35926 0.38373 0.05204 0.0
O4303 O 0.34614 0.39551 0.04462 0.0
O4304 O 0.348 0.37776 0.03783 0.0
C4305 C 0.34301 0.38798 0.03663 0.0
C4306 C 0.38129 0.3876 0.04773 0.0
C4307 C 0.34248 0.39253 0.02473 0.0
C4308 C 0.35146 0.39651 0.00606 0.0
C4309 C 0.35221 0.39219 0.01739 0.0
C4310 C 0.33131 0.40171 0.00939 0.0
C4311 C 0.34099 0.40132 0.00195 0.0
C4312 C 0.33205 0.39732 0.02068 0.0
C4313 C 0.34298 0.37086 0.07807 0.0
C4314 C 0.32359 0.36248 0.07723 0.0
C4315 C 0.33383 0.36363 0.09561 0.0
C4316 C 0.34319 0.369 0.09008 0.0
C4317 C 0.32408 0.35996 0.0892 0.0
C4318 C 0.333 0.36789 0.0717 0.0
C4319 C 0.3536 0.37493 0.07228 0.0
O4320 O 0.37589 0.3781 0.04443 0.0
O4321 O 0.37417 0.39568 0.05158 0.0
O4322 O 0.35436 0.38617 0.07041 0.0
O4323 O 0.35702 0.36861 0.06341 0.0
H4324 H 0.38199 0.38512 0.07109 0.0
H4325 H 0.39864 0.37999 0.08308 0.0
H4326 H 0.42056 0.37967 0.05255 0.0
H4327 H 0.4037 0.38498 0.04054 0.0
H4328 H 0.35909 0.39614 1.00056 0.0
H4329 H 0.36037 0.38857 0.02043 0.0
H4330 H 0.32313 0.40537 0.00649 0.0
H4331 H 0.32447 0.39768 0.02626 0.0
H4332 H 0.31621 0.35979 0.07205 0.0
H4333 H 0.33448 0.3619 0.10484 0.0
H4334 H 0.35081 0.37129 0.09513 0.0
H4335 H 0.33268 0.36932 0.0624 0.0
C4336 C 0.36533 0.64171 0.80379 0.0
C4337 C 0.3662 0.6406 0.8159 0.0
C4338 C 0.37168 0.66096 0.81761 0.0
C4339 C 0.36927 0.65012 0.82274 0.0
C4340 C 0.37055 0.66214 0.80548 0.0
C4341 C 0.3674 0.65256 0.79862 0.0
U4342 U 0.36727 0.60935 0.80109 0.0
O4343 O 0.35556 0.59608 0.79386 0.0
O4344 O 0.37328 0.59798 0.78698 0.0
C4345 C 0.36311 0.59286 0.78591 0.0
C4346 C 0.36329 0.63133 0.79661 0.0
C4347 C 0.35854 0.59201 0.77405 0.0
C4348 C 0.35419 0.60053 0.75524 0.0
C4349 C 0.35854 0.60161 0.76654 0.0
C4350 C 0.34967 0.58028 0.75894 0.0
C4351 C 0.3497 0.58985 0.75133 0.0
C4352 C 0.35408 0.58136 0.7702 0.0
C4353 C 0.38025 0.59345 0.82733 0.0
C4354 C 0.38838 0.57394 0.82676 0.0
C4355 C 0.38779 0.58463 0.8449 0.0
C4356 C 0.3824 0.59392 0.83928 0.0
C4357 C 0.39118 0.57467 0.83864 0.0
C4358 C 0.38296 0.58329 0.82113 0.0
C4359 C 0.37612 0.60397 0.8214 0.0
O4360 O 0.3728 0.62593 0.79332 0.0
O4361 O 0.35522 0.6242 0.80047 0.0
O4362 O 0.36488 0.60466 0.81952 0.0
O4363 O 0.38242 0.60729 0.81247 0.0
H4364 H 0.36479 0.63226 0.82006 0.0
H4365 H 0.37007 0.64887 0.83203 0.0
H4366 H 0.37237 0.67036 0.80127 0.0
H4367 H 0.36688 0.65355 0.78927 0.0
H4368 H 0.35428 0.60807 0.7496 0.0
H4369 H 0.36191 0.60993 0.76941 0.0
H4370 H 0.34627 0.57194 0.75622 0.0
H4371 H 0.35399 0.57387 0.77591 0.0
H4372 H 0.39086 0.5664 0.82169 0.0
H4373 H 0.38973 0.58546 0.85408 0.0
H4374 H 0.38031 0.60168 0.8442 0.0
H4375 H 0.38131 0.58278 0.81187 0.0
C4376 C 0.10969 0.61538 0.55383 0.0
C4377 C 0.11083 0.61639 0.56592 0.0
C4378 C 0.09041 0.62164 0.56764 0.0
C4379 C 0.10129 0.61942 0.57275 0.0
C4380 C 0.08921 0.62038 0.55553 0.0
C4381 C 0.0988 0.61727 0.54867 0.0
U4382 U 0.14205 0.61743 0.55105 0.0
O4383 O 0.15535 0.60574 0.54384 0.0
O4384 O 0.15336 0.62342 0.53689 0.0
C4385 C 0.15852 0.61327 0.53586 0.0
C4386 C 0.12007 0.61335 0.54663 0.0
C4387 C 0.15938 0.60866 0.524 0.0
C4388 C 0.15086 0.60423 0.50521 0.0
C4389 C 0.14977 0.60862 0.5165 0.0
C4390 C 0.17112 0.59977 0.50892 0.0
C4391 C 0.16156 0.59976 0.50132 0.0
C4392 C 0.17003 0.6042 0.52016 0.0
C4393 C 0.15798 0.63053 0.57718 0.0
C4394 C 0.17737 0.63892 0.57651 0.0
C4395 C 0.16691 0.63792 0.59476 0.0
C4396 C 0.15762 0.63249 0.58917 0.0
C4397 C 0.17674 0.64153 0.58845 0.0
C4398 C 0.16803 0.63346 0.57091 0.0
C4399 C 0.14745 0.62636 0.57131 0.0
O4400 O 0.12542 0.62288 0.5433 0.0
O4401 O 0.12725 0.60533 0.55052 0.0
O4402 O 0.14678 0.61511 0.56948 0.0
O4403 O 0.14407 0.63262 0.56237 0.0
H4404 H 0.11919 0.61512 0.57007 0.0
H4405 H 0.10256 0.62033 0.58204 0.0
H4406 H 0.08095 0.62205 0.55133 0.0
H4407 H 0.09779 0.61664 0.53933 0.0
H4408 H 0.14332 0.6043 0.49958 0.0
H4409 H 0.14145 0.61198 0.51936 0.0
H4410 H 0.17947 0.59637 0.5062 0.0
H4411 H 0.17753 0.60415 0.52587 0.0
H4412 H 0.18481 0.64157 0.57139 0.0
H4413 H 0.16615 0.63971 0.60398 0.0
H4414 H 0.14995 0.63023 0.59415 0.0
H4415 H 0.16846 0.63195 0.56162 0.0
C4416 C 0.13572 0.64107 0.19726 0.0
C4417 C 0.13484 0.63991 0.18516 0.0
C4418 C 0.12981 0.66038 0.18333 0.0
C4419 C 0.13198 0.64946 0.17827 0.0
C4420 C 0.13094 0.66159 0.19545 0.0
C4421 C 0.13387 0.65199 0.20237 0.0
U4422 U 0.13342 0.60872 0.20012 0.0
O4423 O 0.14491 0.59538 0.20761 0.0
O4424 O 0.12712 0.59752 0.21424 0.0
C4425 C 0.13723 0.59233 0.2155 0.0
C4426 C 0.13755 0.63068 0.20451 0.0
C4427 C 0.14166 0.59158 0.22743 0.0
C4428 C 0.14581 0.60031 0.24618 0.0
C4429 C 0.14148 0.60125 0.23486 0.0
C4430 C 0.15061 0.58009 0.24268 0.0
C4431 C 0.15045 0.58973 0.25019 0.0
C4432 C 0.14623 0.58102 0.2314 0.0
C4433 C 0.12071 0.59271 0.17384 0.0
C4434 C 0.11229 0.57334 0.1745 0.0
C4435 C 0.11346 0.58375 0.15622 0.0
C4436 C 0.11885 0.59305 0.16183 0.0
C4437 C 0.10978 0.57394 0.16254 0.0
C4438 C 0.11771 0.58269 0.18012 0.0
C4439 C 0.12483 0.60326 0.17973 0.0
O4440 O 0.12794 0.62541 0.20769 0.0
O4441 O 0.1456 0.62345 0.20078 0.0
O4442 O 0.13605 0.60387 0.18176 0.0
O4443 O 0.11843 0.60672 0.18853 0.0
H4444 H 0.13608 0.63152 0.18105 0.0
H4445 H 0.13116 0.64818 0.16898 0.0
H4446 H 0.1293 0.66987 0.19962 0.0
H4447 H 0.13441 0.65301 0.21171 0.0
H4448 H 0.14561 0.6079 0.25175 0.0
H4449 H 0.13803 0.6095 0.2319 0.0
H4450 H 0.15413 0.57183 0.24549 0.0
H4451 H 0.14645 0.57349 0.22575 0.0
H4452 H 0.10958 0.56592 0.17962 0.0
H4453 H 0.11175 0.58449 0.14699 0.0
H4454 H 0.12116 0.60071 0.15686 0.0
H4455 H 0.11913 0.58228 0.18942 0.0
C4456 C 0.10988 0.38586 0.94731 0.0
C4457 C 0.11099 0.38512 0.93519 0.0
C4458 C 0.09059 0.3798 0.93342 0.0
C4459 C 0.10144 0.38219 0.92832 0.0
C4460 C 0.08942 0.38081 0.94556 0.0
C4461 C 0.09902 0.38382 0.95245 0.0
U4462 U 0.14224 0.38363 0.95005 0.0
O4463 O 0.15558 0.39511 0.95751 0.0
O4464 O 0.1535 0.37732 0.96412 0.0
C4465 C 0.15867 0.38743 0.96538 0.0
C4466 C 0.12028 0.38772 0.95452 0.0
C4467 C 0.15944 0.39184 0.97732 0.0
C4468 C 0.15074 0.39598 0.99609 0.0
C4469 C 0.14978 0.39168 0.98476 0.0
C4470 C 0.17096 0.40073 0.99257 0.0
C4471 C 0.16134 0.40058 1.0001 0.0
C4472 C 0.17001 0.39638 0.98128 0.0
C4473 C 0.1581 0.3709 0.92366 0.0
C4474 C 0.17759 0.36271 0.92416 0.0
C4475 C 0.16682 0.36332 0.90606 0.0
C4476 C 0.15757 0.36875 0.91171 0.0
C4477 C 0.1768 0.35991 0.91228 0.0
C4478 C 0.16828 0.36816 0.92983 0.0
C4479 C 0.14761 0.37503 0.92963 0.0
O4480 O 0.12559 0.37812 0.95769 0.0
O4481 O 0.12748 0.39578 0.95077 0.0
O4482 O 0.14701 0.38625 0.93168 0.0
O4483 O 0.14421 0.36863 0.93846 0.0
H4484 H 0.11933 0.38651 0.93105 0.0
H4485 H 0.10268 0.38148 0.91902 0.0
H4486 H 0.08119 0.37901 0.94975 0.0
H4487 H 0.09803 0.38424 0.96181 0.0
H4488 H 0.14315 0.39579 0.00166 0.0
H4489 H 0.14152 0.38826 0.9818 0.0
H4490 H 0.17924 0.40422 0.99538 0.0
H4491 H 0.17753 0.39659 0.97562 0.0
H4492 H 0.18514 0.36022 0.9292 0.0
H4493 H 0.16594 0.36138 0.89689 0.0
H4494 H 0.14979 0.37084 0.90683 0.0
H4495 H 0.16883 0.36981 0.93908 0.0
C4496 C 0.36576 0.35946 0.69631 0.0
C4497 C 0.36709 0.36064 0.68425 0.0
C4498 C 0.37195 0.34011 0.68258 0.0
C4499 C 0.3701 0.35106 0.67746 0.0
C4500 C 0.37039 0.33889 0.69465 0.0
C4501 C 0.36731 0.34852 0.70147 0.0
U4502 U 0.36747 0.39187 0.69907 0.0
O4503 O 0.35566 0.40498 0.70644 0.0
O4504 O 0.37342 0.4032 0.71324 0.0
C4505 C 0.36319 0.40816 0.71442 0.0
C4506 C 0.36367 0.36984 0.70348 0.0
C4507 C 0.35864 0.40872 0.72632 0.0
C4508 C 0.35468 0.39977 0.74501 0.0
C4509 C 0.359 0.399 0.73368 0.0
C4510 C 0.34945 0.41991 0.74163 0.0
C4511 C 0.34986 0.41025 0.7491 0.0
C4512 C 0.35384 0.41915 0.73034 0.0
C4513 C 0.38027 0.40808 0.67295 0.0
C4514 C 0.38868 0.42746 0.67367 0.0
C4515 C 0.38733 0.41719 0.65533 0.0
C4516 C 0.382 0.40785 0.66092 0.0
C4517 C 0.39108 0.42695 0.66168 0.0
C4518 C 0.38332 0.41807 0.67927 0.0
C4519 C 0.37624 0.39748 0.6788 0.0
O4520 O 0.37315 0.37529 0.70675 0.0
O4521 O 0.35556 0.37692 0.6996 0.0
O4522 O 0.365 0.39668 0.68068 0.0
O4523 O 0.38258 0.39411 0.68768 0.0
H4524 H 0.36607 0.36904 0.68011 0.0
H4525 H 0.37125 0.35234 0.6682 0.0
H4526 H 0.37178 0.33059 0.69886 0.0
H4527 H 0.36642 0.34749 0.71079 0.0
H4528 H 0.35506 0.39216 0.75054 0.0
H4529 H 0.36263 0.39085 0.73067 0.0
H4530 H 0.34579 0.42809 0.7445 0.0
H4531 H 0.35347 0.42671 0.72474 0.0
H4532 H 0.39144 0.43484 0.67882 0.0
H4533 H 0.38895 0.41653 0.64608 0.0
H4534 H 0.37965 0.40022 0.65591 0.0
H4535 H 0.38199 0.4184 0.68859 0.0
C4536 C 0.39135 0.61587 0.44721 0.0
C4537 C 0.39017 0.61684 0.43512 0.0
C4538 C 0.41066 0.62177 0.43329 0.0
C4539 C 0.39973 0.6197 0.42823 0.0
C4540 C 0.41189 0.62055 0.4454 0.0
C4541 C 0.40229 0.61762 0.45231 0.0
U4542 U 0.359 0.61805 0.44999 0.0
O4543 O 0.3457 0.60653 0.45748 0.0
O4544 O 0.34774 0.62434 0.46407 0.0
C4545 C 0.3426 0.61421 0.46534 0.0
C4546 C 0.38097 0.61401 0.45445 0.0
C4547 C 0.34186 0.6098 0.47728 0.0
C4548 C 0.35059 0.60574 0.49607 0.0
C4549 C 0.35151 0.61006 0.48474 0.0
C4550 C 0.33042 0.60078 0.49251 0.0
C4551 C 0.34003 0.60102 0.50005 0.0
C4552 C 0.33133 0.60515 0.48123 0.0
C4553 C 0.34303 0.63063 0.4236 0.0
C4554 C 0.32364 0.63903 0.42409 0.0
C4555 C 0.33414 0.63774 0.40588 0.0
C4556 C 0.34342 0.6324 0.41158 0.0
C4557 C 0.32429 0.64146 0.41211 0.0
C4558 C 0.33296 0.63366 0.4298 0.0
C4559 C 0.35356 0.62657 0.42956 0.0
O4560 O 0.37565 0.62361 0.45759 0.0
O4561 O 0.37379 0.60593 0.45073 0.0
O4562 O 0.35422 0.61535 0.43163 0.0
O4563 O 0.35695 0.633 0.43836 0.0
H4564 H 0.38178 0.61567 0.43101 0.0
H4565 H 0.39844 0.62058 0.41895 0.0
H4566 H 0.42019 0.62211 0.44956 0.0
H4567 H 0.40333 0.61701 0.46165 0.0
H4568 H 0.35816 0.606 0.50165 0.0
H4569 H 0.35973 0.61356 0.48179 0.0
H4570 H 0.32218 0.59719 0.49531 0.0
H4571 H 0.32382 0.60486 0.47556 0.0
H4572 H 0.31619 0.64177 0.42915 0.0
H4573 H 0.33492 0.63939 0.39664 0.0
H4574 H 0.35111 0.63006 0.40666 0.0
H4575 H 0.33252 0.6323 0.43911 0.0
C4576 C 0.30439 0.13578 0.35975 0.0
C4577 C 0.31648 0.13471 0.36087 0.0
C4578 C 0.31815 0.12963 0.3404 0.0
C4579 C 0.32329 0.13174 0.3513 0.0
C4580 C 0.30604 0.13096 0.33923 0.0
C4581 C 0.29921 0.13401 0.34886 0.0
U4582 U 0.30166 0.13379 0.39215 0.0
O4583 O 0.29425 0.14545 0.40538 0.0
O4584 O 0.28755 0.12767 0.40344 0.0
C4585 C 0.28633 0.13784 0.40852 0.0
C4586 C 0.29721 0.13777 0.37015 0.0
C4587 C 0.27441 0.14232 0.40919 0.0
C4588 C 0.25566 0.14638 0.40039 0.0
C4589 C 0.26701 0.1421 0.3995 0.0
C4590 C 0.2591 0.15125 0.4206 0.0
C4591 C 0.2516 0.15101 0.41096 0.0
C4592 C 0.27041 0.14692 0.41972 0.0
C4593 C 0.32792 0.12095 0.40815 0.0
C4594 C 0.32732 0.11253 0.42753 0.0
C4595 C 0.34556 0.11366 0.41705 0.0
C4596 C 0.33992 0.11907 0.40777 0.0
C4597 C 0.33927 0.10998 0.42688 0.0
C4598 C 0.32167 0.11797 0.41821 0.0
C4599 C 0.322 0.12507 0.39761 0.0
O4600 O 0.29398 0.12823 0.37553 0.0
O4601 O 0.30105 0.14584 0.37729 0.0
O4602 O 0.32005 0.1363 0.39694 0.0
O4603 O 0.31314 0.11872 0.39423 0.0
H4604 H 0.32064 0.1359 0.36924 0.0
H4605 H 0.33257 0.13078 0.35254 0.0
H4606 H 0.30182 0.12938 0.33097 0.0
H4607 H 0.28987 0.1347 0.34787 0.0
H4608 H 0.25012 0.14612 0.39279 0.0
H4609 H 0.27001 0.13863 0.39128 0.0
H4610 H 0.25625 0.15477 0.42885 0.0
H4611 H 0.27603 0.14718 0.42727 0.0
H4612 H 0.32223 0.10983 0.43497 0.0
H4613 H 0.35478 0.11192 0.41628 0.0
H4614 H 0.34487 0.12137 0.4001 0.0
H4615 H 0.31238 0.11941 0.41865 0.0
C4616 C 0.80435 0.36539 0.6412 0.0
C4617 C 0.81644 0.36644 0.64003 0.0
C4618 C 0.81821 0.37138 0.66052 0.0
C4619 C 0.8233 0.36934 0.64959 0.0
C4620 C 0.80611 0.37008 0.66174 0.0
C4621 C 0.79923 0.36711 0.65213 0.0
U4622 U 0.80148 0.36756 0.60883 0.0
O4623 O 0.79404 0.35598 0.59557 0.0
O4624 O 0.78731 0.37374 0.59763 0.0
C4625 C 0.78609 0.3636 0.5925 0.0
C4626 C 0.79712 0.36348 0.63082 0.0
C4627 C 0.77418 0.35911 0.59182 0.0
C4628 C 0.75546 0.355 0.60064 0.0
C4629 C 0.76677 0.35936 0.6015 0.0
C4630 C 0.75895 0.35 0.58046 0.0
C4631 C 0.75144 0.35025 0.5901 0.0
C4632 C 0.77021 0.35442 0.58132 0.0
C4633 C 0.82764 0.38039 0.59274 0.0
C4634 C 0.8269 0.38882 0.57337 0.0
C4635 C 0.84521 0.38769 0.58372 0.0
C4636 C 0.83964 0.38228 0.59304 0.0
C4637 C 0.83885 0.39136 0.57393 0.0
C4638 C 0.82132 0.38338 0.58273 0.0
C4639 C 0.8218 0.37627 0.60331 0.0
O4640 O 0.79388 0.37305 0.62551 0.0
O4641 O 0.80092 0.35544 0.62362 0.0
O4642 O 0.81985 0.36504 0.60397 0.0
O4643 O 0.81296 0.38262 0.60677 0.0
H4644 H 0.82055 0.36529 0.63164 0.0
H4645 H 0.83257 0.37028 0.64831 0.0
H4646 H 0.80193 0.37162 0.67004 0.0
H4647 H 0.78989 0.36644 0.65316 0.0
H4648 H 0.7499 0.35527 0.60823 0.0
H4649 H 0.76973 0.3629 0.60971 0.0
H4650 H 0.75613 0.34639 0.57224 0.0
H4651 H 0.77585 0.35414 0.57379 0.0
H4652 H 0.82175 0.39151 0.56596 0.0
H4653 H 0.85444 0.38942 0.58443 0.0
H4654 H 0.84465 0.37998 0.60068 0.0
H4655 H 0.81203 0.38193 0.58235 0.0
C4656 C 0.38541 0.05386 0.39128 0.0
C4657 C 0.38444 0.06596 0.39009 0.0
C4658 C 0.37949 0.06781 0.41057 0.0
C4659 C 0.38157 0.07285 0.39963 0.0
C4660 C 0.38072 0.0557 0.41182 0.0
C4661 C 0.38365 0.04877 0.40222 0.0
U4662 U 0.38321 0.05106 0.35894 0.0
O4663 O 0.39472 0.0436 0.34562 0.0
O4664 O 0.37694 0.03696 0.3477 0.0
C4665 C 0.38706 0.03572 0.34253 0.0
C4666 C 0.38728 0.04661 0.38091 0.0
C4667 C 0.39149 0.02379 0.34177 0.0
C4668 C 0.39569 0.00502 0.35048 0.0
C4669 C 0.39135 0.01634 0.35143 0.0
C4670 C 0.40045 0.00857 0.33026 0.0
C4671 C 0.40032 0.00104 0.33988 0.0
C4672 C 0.39606 0.01984 0.3312 0.0
C4673 C 0.37053 0.0774 0.34298 0.0
C4674 C 0.3622 0.07683 0.32356 0.0
C4675 C 0.36327 0.09505 0.33408 0.0
C4676 C 0.36864 0.0894 0.34337 0.0
C4677 C 0.35965 0.08878 0.32421 0.0
C4678 C 0.3676 0.07117 0.3329 0.0
C4679 C 0.37462 0.07147 0.35351 0.0
O4680 O 0.37768 0.04345 0.3756 0.0
O4681 O 0.39534 0.05035 0.37371 0.0
O4682 O 0.38584 0.06942 0.35415 0.0
O4683 O 0.36822 0.06265 0.35693 0.0
H4684 H 0.38561 0.07005 0.38169 0.0
H4685 H 0.38069 0.08214 0.39833 0.0
H4686 H 0.37915 0.05155 0.42012 0.0
H4687 H 0.38427 0.03944 0.40327 0.0
H4688 H 0.39552 0.99945 0.35806 0.0
H4689 H 0.38791 0.01929 0.35968 0.0
H4690 H 0.40397 0.00577 0.32198 0.0
H4691 H 0.39625 0.0255 0.32368 0.0
H4692 H 0.35955 0.07175 0.3161 0.0
H4693 H 0.36152 0.10427 0.33485 0.0
H4694 H 0.37089 0.09434 0.35107 0.0
H4695 H 0.36906 0.06188 0.33245 0.0
C4696 C 0.69723 0.63573 0.14152 0.0
C4697 C 0.68513 0.63478 0.1404 0.0
C4698 C 0.68342 0.62942 0.16079 0.0
C4699 C 0.6783 0.63172 0.14993 0.0
C4700 C 0.69554 0.63062 0.16198 0.0
C4701 C 0.70239 0.63375 0.15239 0.0
U4702 U 0.69996 0.6337 0.10916 0.0
O4703 O 0.70717 0.64538 0.09585 0.0
O4704 O 0.7141 0.62769 0.09783 0.0
C4705 C 0.71515 0.63784 0.09268 0.0
C4706 C 0.70441 0.63776 0.13113 0.0
C4707 C 0.727 0.64244 0.09181 0.0
C4708 C 0.7458 0.64684 0.10032 0.0
C4709 C 0.73454 0.64241 0.1014 0.0
C4710 C 0.74202 0.65148 0.08011 0.0
C4711 C 0.74965 0.65145 0.08965 0.0
C4712 C 0.7308 0.647 0.08119 0.0
C4713 C 0.67379 0.62066 0.09325 0.0
C4714 C 0.67445 0.6125 0.07377 0.0
C4715 C 0.65627 0.61306 0.0844 0.0
C4716 C 0.66184 0.61848 0.0937 0.0
C4717 C 0.66257 0.60968 0.07446 0.0
C4718 C 0.68003 0.61795 0.08312 0.0
C4719 C 0.67968 0.62481 0.10378 0.0
O4720 O 0.70773 0.62823 0.12577 0.0
O4721 O 0.70053 0.64579 0.12397 0.0
O4722 O 0.68153 0.63606 0.10445 0.0
O4723 O 0.68862 0.61854 0.10714 0.0
H4724 H 0.68097 0.63611 0.13205 0.0
H4725 H 0.66901 0.63086 0.14868 0.0
H4726 H 0.69975 0.62888 0.17021 0.0
H4727 H 0.71174 0.63434 0.15338 0.0
H4728 H 0.75146 0.64674 0.10784 0.0
H4729 H 0.73171 0.63897 0.1097 0.0
H4730 H 0.74471 0.65498 0.07179 0.0
H4731 H 0.72507 0.64711 0.07371 0.0
H4732 H 0.67955 0.61003 0.06625 0.0
H4733 H 0.6471 0.6111 0.08521 0.0
H4734 H 0.6569 0.62056 0.10144 0.0
H4735 H 0.68928 0.61962 0.08263 0.0
C4736 C 0.61551 0.44682 0.39137 0.0
C4737 C 0.61649 0.43472 0.39027 0.0
C4738 C 0.62159 0.43305 0.41074 0.0
C4739 C 0.61944 0.4279 0.39986 0.0
C4740 C 0.62035 0.44516 0.41189 0.0
C4741 C 0.61733 0.452 0.40225 0.0
U4742 U 0.61767 0.44954 0.35899 0.0
O4743 O 0.6061 0.45695 0.34568 0.0
O4744 O 0.62386 0.46365 0.34772 0.0
C4745 C 0.61372 0.46487 0.34259 0.0
C4746 C 0.61358 0.45399 0.38096 0.0
C4747 C 0.60923 0.47679 0.3419 0.0
C4748 C 0.6051 0.49552 0.35069 0.0
C4749 C 0.60946 0.4842 0.35157 0.0
C4750 C 0.60014 0.49203 0.33051 0.0
C4751 C 0.60037 0.49954 0.34015 0.0
C4752 C 0.60456 0.48076 0.33139 0.0
C4753 C 0.63055 0.42328 0.34306 0.0
C4754 C 0.63896 0.42391 0.32368 0.0
C4755 C 0.63797 0.40568 0.3342 0.0
C4756 C 0.63252 0.41129 0.34346 0.0
C4757 C 0.64159 0.41197 0.32435 0.0
C4758 C 0.63349 0.42953 0.33299 0.0
C4759 C 0.6264 0.42919 0.35358 0.0
O4760 O 0.62316 0.45722 0.37563 0.0
O4761 O 0.60555 0.45017 0.37377 0.0
O4762 O 0.61516 0.43115 0.3542 0.0
O4763 O 0.63274 0.43804 0.357 0.0
H4764 H 0.61527 0.43055 0.38192 0.0
H4765 H 0.62034 0.41861 0.39863 0.0
H4766 H 0.62197 0.44939 0.42014 0.0
H4767 H 0.61671 0.46135 0.40323 0.0
H4768 H 0.60535 0.50107 0.35829 0.0
H4769 H 0.61299 0.48124 0.35979 0.0
H4770 H 0.59655 0.49485 0.32228 0.0
H4771 H 0.6043 0.47512 0.32385 0.0
H4772 H 0.64162 0.42901 0.31623 0.0
H4773 H 0.63977 0.39647 0.33498 0.0
H4774 H 0.63027 0.40634 0.35115 0.0
H4775 H 0.63197 0.43881 0.33254 0.0
C4776 C 0.19683 0.86577 0.8595 0.0
C4777 C 0.18474 0.86689 0.86064 0.0
C4778 C 0.18305 0.87192 0.84016 0.0
C4779 C 0.17792 0.86987 0.85107 0.0
C4780 C 0.19515 0.87056 0.83897 0.0
C4781 C 0.20199 0.86751 0.84859 0.0
U4782 U 0.19952 0.8676 0.89189 0.0
O4783 O 0.20692 0.85589 0.90508 0.0
O4784 O 0.2136 0.87369 0.90324 0.0
C4785 C 0.21482 0.86349 0.90827 0.0
C4786 C 0.20401 0.86375 0.86989 0.0
C4787 C 0.22675 0.85903 0.90896 0.0
C4788 C 0.24549 0.85496 0.90016 0.0
C4789 C 0.23414 0.85924 0.89927 0.0
C4790 C 0.24206 0.8501 0.92038 0.0
C4791 C 0.24955 0.85033 0.91073 0.0
C4792 C 0.23075 0.85443 0.91949 0.0
C4793 C 0.17322 0.88029 0.90792 0.0
C4794 C 0.17379 0.88853 0.92737 0.0
C4795 C 0.15557 0.88754 0.91683 0.0
C4796 C 0.16122 0.8822 0.90753 0.0
C4797 C 0.16185 0.8911 0.92672 0.0
C4798 C 0.17945 0.88317 0.91802 0.0
C4799 C 0.17915 0.87625 0.89737 0.0
O4800 O 0.20721 0.87327 0.87531 0.0
O4801 O 0.20019 0.85563 0.87699 0.0
O4802 O 0.18113 0.86503 0.89663 0.0
O4803 O 0.18801 0.88264 0.89403 0.0
H4804 H 0.1806 0.86572 0.86902 0.0
H4805 H 0.16865 0.87086 0.85233 0.0
H4806 H 0.19935 0.8721 0.83069 0.0
H4807 H 0.21132 0.86678 0.84758 0.0
H4808 H 0.25104 0.85521 0.89256 0.0
H4809 H 0.23115 0.8627 0.89104 0.0
H4810 H 0.24491 0.84658 0.92863 0.0
H4811 H 0.22513 0.85418 0.92704 0.0
H4812 H 0.17887 0.89115 0.93485 0.0
H4813 H 0.14636 0.8893 0.91606 0.0
H4814 H 0.15629 0.87999 0.89981 0.0
H4815 H 0.18874 0.88169 0.91847 0.0
C4816 C 0.38537 0.94682 0.10969 0.0
C4817 C 0.38419 0.93476 0.1109 0.0
C4818 C 0.3794 0.93295 0.09038 0.0
C4819 C 0.3813 0.92789 0.10135 0.0
C4820 C 0.38082 0.94503 0.08912 0.0
C4821 C 0.38378 0.95192 0.09873 0.0
U4822 U 0.38335 0.94971 0.14206 0.0
O4823 O 0.395 0.95715 0.15527 0.0
O4824 O 0.37723 0.96387 0.15329 0.0
C4825 C 0.38739 0.96509 0.15838 0.0
C4826 C 0.38732 0.95406 0.12005 0.0
C4827 C 0.39189 0.97699 0.15904 0.0
C4828 C 0.39595 0.99574 0.15025 0.0
C4829 C 0.39158 0.98443 0.14938 0.0
C4830 C 0.40108 0.9922 0.17038 0.0
C4831 C 0.40077 0.99973 0.16076 0.0
C4832 C 0.39665 0.98094 0.16952 0.0
C4833 C 0.37065 0.92357 0.15827 0.0
C4834 C 0.36227 0.92435 0.17766 0.0
C4835 C 0.36359 0.90598 0.16744 0.0
C4836 C 0.3689 0.91154 0.15807 0.0
C4837 C 0.35986 0.91236 0.17719 0.0
C4838 C 0.36762 0.92992 0.16825 0.0
C4839 C 0.37469 0.92938 0.14766 0.0
O4840 O 0.37777 0.95729 0.12541 0.0
O4841 O 0.3954 0.95027 0.12721 0.0
O4842 O 0.38592 0.93134 0.14692 0.0
O4843 O 0.36831 0.93822 0.14422 0.0
H4844 H 0.38524 0.93066 0.11932 0.0
H4845 H 0.38026 0.91862 0.10266 0.0
H4846 H 0.37939 0.94919 0.08079 0.0
H4847 H 0.38456 0.96125 0.09766 0.0
H4848 H 0.39564 0.00131 0.14266 0.0
H4849 H 0.38799 0.98149 0.14119 0.0
H4850 H 0.40474 0.99499 0.17859 0.0
H4851 H 0.39698 0.97528 0.17705 0.0
H4852 H 0.35953 0.92952 0.18503 0.0
H4853 H 0.36195 0.89673 0.1668 0.0
H4854 H 0.37124 0.90651 0.15046 0.0
H4855 H 0.36897 0.93923 0.16855 0.0
C4856 C 0.11587 0.054 0.60987 0.0
C4857 C 0.11688 0.06608 0.61107 0.0
C4858 C 0.12191 0.06793 0.59061 0.0
C4859 C 0.11981 0.07298 0.60154 0.0
C4860 C 0.12065 0.05582 0.58935 0.0
C4861 C 0.11766 0.04891 0.59894 0.0
U4862 U 0.11782 0.05116 0.64224 0.0
O4863 O 0.10621 0.04365 0.65544 0.0
O4864 O 0.12403 0.03705 0.65351 0.0
C4865 C 0.11387 0.03577 0.65858 0.0
C4866 C 0.11393 0.04675 0.62023 0.0
C4867 C 0.10946 0.02383 0.65927 0.0
C4868 C 0.10548 0.00506 0.65049 0.0
C4869 C 0.10978 0.0164 0.64961 0.0
C4870 C 0.10042 0.00856 0.67065 0.0
C4871 C 0.10073 0.00104 0.66102 0.0
C4872 C 0.10477 0.01985 0.66977 0.0
C4873 C 0.13033 0.07751 0.65832 0.0
C4874 C 0.13862 0.07696 0.67776 0.0
C4875 C 0.13747 0.09518 0.66725 0.0
C4876 C 0.13215 0.08952 0.65794 0.0
C4877 C 0.14111 0.08893 0.67711 0.0
C4878 C 0.13328 0.07128 0.6684 0.0
C4879 C 0.12632 0.07157 0.64776 0.0
O4880 O 0.12349 0.04358 0.62561 0.0
O4881 O 0.10581 0.05048 0.62737 0.0
O4882 O 0.11511 0.06951 0.64704 0.0
O4883 O 0.13277 0.06276 0.64439 0.0
H4884 H 0.11568 0.07018 0.61947 0.0
H4885 H 0.12072 0.08225 0.60285 0.0
H4886 H 0.12224 0.05167 0.58106 0.0
H4887 H 0.11702 0.03957 0.59788 0.0
H4888 H 0.10579 0.9995 0.64291 0.0
H4889 H 0.11331 0.01937 0.6414 0.0
H4890 H 0.09681 0.00574 0.67887 0.0
H4891 H 0.10444 0.0255 0.6773 0.0
H4892 H 0.1413 0.07189 0.68522 0.0
H4893 H 0.13916 0.10442 0.66648 0.0
H4894 H 0.12988 0.09445 0.65024 0.0
H4895 H 0.13188 0.06198 0.66884 0.0
loop_
_geom_bond_atom_site_label_1
_geom_bond_atom_site_label_2
_geom_bond_distance
_geom_bond_site_symmetry_2
_ccdc_geom_bond_type
O0 Cd1 2.300 . S
O0 C7 1.275 . S
Cd1 O0 2.300 . S
Cd1 O9 2.381 . S
Cd1 O10 2.378 . S
O2 Cd3 2.385 . S
O2 C7 1.255 . S
Cd3 O2 2.385 . S
Cd3 O4 2.317 . S
O4 Cd3 2.317 . S
O4 C5 1.232 . S
C5 O4 1.232 . S
C5 O6 1.218 . S
O6 C5 1.218 . S
C7 O0 1.275 . S
C7 O2 1.255 . S
C8 O9 1.258 . S
C8 O10 1.256 . S
O9 Cd1 2.381 . S
O9 C8 1.258 . S
O10 Cd1 2.378 . S
O10 C8 1.256 . S
O11 Cd12 2.300 . S
O11 C18 1.275 . S
Cd12 O11 2.300 . S
Cd12 O20 2.381 . S
Cd12 O21 2.378 . S
O13 Cd14 2.385 . S
O13 C18 1.255 . S
Cd14 O13 2.385 . S
Cd14 O15 2.317 . S
O15 Cd14 2.317 . S
O15 C16 1.232 . S
C16 O15 1.232 . S
C16 O17 1.218 . S
O17 C16 1.218 . S
C18 O11 1.275 . S
C18 O13 1.255 . S
C19 O20 1.258 . S
C19 O21 1.256 . S
O20 Cd12 2.381 . S
O20 C19 1.258 . S
O21 Cd12 2.378 . S
O21 C19 1.256 . S
O22 Cd23 2.300 . S
O22 C29 1.275 . S
Cd23 O22 2.300 . S
Cd23 O31 2.381 . S
Cd23 O32 2.378 . S
O24 Cd25 2.385 . S
O24 C29 1.255 . S
Cd25 O24 2.385 . S
Cd25 O26 2.317 . S
O26 Cd25 2.317 . S
O26 C27 1.232 . S
C27 O26 1.232 . S
C27 O28 1.218 . S
O28 C27 1.218 . S
C29 O22 1.275 . S
C29 O24 1.255 . S
C30 O31 1.258 . S
C30 O32 1.256 . S
O31 Cd23 2.381 . S
O31 C30 1.258 . S
O32 Cd23 2.378 . S
O32 C30 1.256 . S
O33 Cd34 2.300 . S
O33 C40 1.275 . S
Cd34 O33 2.300 . S
Cd34 O42 2.381 . S
Cd34 O43 2.378 . S
O35 Cd36 2.385 . S
O35 C40 1.255 . S
Cd36 O35 2.385 . S
Cd36 O37 2.317 . S
O37 Cd36 2.317 . S
O37 C38 1.232 . S
C38 O37 1.232 . S
C38 O39 1.218 . S
O39 C38 1.218 . S
C40 O33 1.275 . S
C40 O35 1.255 . S
C41 O42 1.258 . S
C41 O43 1.256 . S
O42 Cd34 2.381 . S
O42 C41 1.258 . S
O43 Cd34 2.378 . S
O43 C41 1.256 . S
O44 Cd45 2.300 . S
O44 C51 1.275 . S
Cd45 O44 2.300 . S
Cd45 O53 2.381 . S
Cd45 O54 2.378 . S
O46 Cd47 2.385 . S
O46 C51 1.255 . S
Cd47 O46 2.385 . S
Cd47 O48 2.317 . S
O48 Cd47 2.317 . S
O48 C49 1.232 . S
C49 O48 1.232 . S
C49 O50 1.218 . S
O50 C49 1.218 . S
C51 O44 1.275 . S
C51 O46 1.255 . S
C52 O53 1.258 . S
C52 O54 1.256 . S
O53 Cd45 2.381 . S
O53 C52 1.258 . S
O54 Cd45 2.378 . S
O54 C52 1.256 . S
O55 Cd56 2.300 . S
O55 C62 1.275 . S
Cd56 O55 2.300 . S
Cd56 O64 2.381 . S
Cd56 O65 2.378 . S
O57 Cd58 2.385 . S
O57 C62 1.255 . S
Cd58 O57 2.385 . S
Cd58 O59 2.317 . S
O59 Cd58 2.317 . S
O59 C60 1.232 . S
C60 O59 1.232 . S
C60 O61 1.218 . S
O61 C60 1.218 . S
C62 O55 1.275 . S
C62 O57 1.255 . S
C63 O64 1.258 . S
C63 O65 1.256 . S
O64 Cd56 2.381 . S
O64 C63 1.258 . S
O65 Cd56 2.378 . S
O65 C63 1.256 . S
O66 Cd67 2.300 . S
O66 C73 1.275 . S
Cd67 O66 2.300 . S
Cd67 O75 2.381 . S
Cd67 O76 2.378 . S
O68 Cd69 2.385 . S
O68 C73 1.255 . S
Cd69 O68 2.385 . S
Cd69 O70 2.317 . S
O70 Cd69 2.317 . S
O70 C71 1.232 . S
C71 O70 1.232 . S
C71 O72 1.218 . S
O72 C71 1.218 . S
C73 O66 1.275 . S
C73 O68 1.255 . S
C74 O75 1.258 . S
C74 O76 1.256 . S
O75 Cd67 2.381 . S
O75 C74 1.258 . S
O76 Cd67 2.378 . S
O76 C74 1.256 . S
O77 Cd78 2.300 . S
O77 C84 1.275 . S
Cd78 O77 2.300 . S
Cd78 O86 2.381 . S
Cd78 O87 2.378 . S
O79 Cd80 2.385 . S
O79 C84 1.255 . S
Cd80 O79 2.385 . S
Cd80 O81 2.317 . S
O81 Cd80 2.317 . S
O81 C82 1.232 . S
C82 O81 1.232 . S
C82 O83 1.218 . S
O83 C82 1.218 . S
C84 O77 1.275 . S
C84 O79 1.255 . S
C85 O86 1.258 . S
C85 O87 1.256 . S
O86 Cd78 2.381 . S
O86 C85 1.258 . S
O87 Cd78 2.378 . S
O87 C85 1.256 . S
O88 Cd89 2.300 . S
O88 C95 1.275 . S
Cd89 O88 2.300 . S
Cd89 O97 2.381 . S
Cd89 O98 2.378 . S
O90 Cd91 2.385 . S
O90 C95 1.255 . S
Cd91 O90 2.385 . S
Cd91 O92 2.317 . S
O92 Cd91 2.317 . S
O92 C93 1.232 . S
C93 O92 1.232 . S
C93 O94 1.218 . S
O94 C93 1.218 . S
C95 O88 1.275 . S
C95 O90 1.255 . S
C96 O97 1.258 . S
C96 O98 1.256 . S
O97 Cd89 2.381 . S
O97 C96 1.258 . S
O98 Cd89 2.378 . S
O98 C96 1.256 . S
O99 Cd100 2.300 . S
O99 C106 1.275 . S
Cd100 O99 2.300 . S
Cd100 O108 2.381 . S
Cd100 O109 2.378 . S
O101 Cd102 2.385 . S
O101 C106 1.255 . S
Cd102 O101 2.385 . S
Cd102 O103 2.317 . S
O103 Cd102 2.317 . S
O103 C104 1.232 . S
C104 O103 1.232 . S
C104 O105 1.218 . S
O105 C104 1.218 . S
C106 O99 1.275 . S
C106 O101 1.255 . S
C107 O108 1.258 . S
C107 O109 1.256 . S
O108 Cd100 2.381 . S
O108 C107 1.258 . S
O109 Cd100 2.378 . S
O109 C107 1.256 . S
O110 Cd111 2.300 . S
O110 C117 1.275 . S
Cd111 O110 2.300 . S
Cd111 O119 2.381 . S
Cd111 O120 2.378 . S
O112 Cd113 2.385 . S
O112 C117 1.255 . S
Cd113 O112 2.385 . S
Cd113 O114 2.317 . S
O114 Cd113 2.317 . S
O114 C115 1.232 . S
C115 O114 1.232 . S
C115 O116 1.218 . S
O116 C115 1.218 . S
C117 O110 1.275 . S
C117 O112 1.255 . S
C118 O119 1.258 . S
C118 O120 1.256 . S
O119 Cd111 2.381 . S
O119 C118 1.258 . S
O120 Cd111 2.378 . S
O120 C118 1.256 . S
O121 Cd122 2.300 . S
O121 C128 1.275 . S
Cd122 O121 2.300 . S
Cd122 O130 2.381 . S
Cd122 O131 2.378 . S
O123 Cd124 2.385 . S
O123 C128 1.255 . S
Cd124 O123 2.385 . S
Cd124 O125 2.317 . S
O125 Cd124 2.317 . S
O125 C126 1.232 . S
C126 O125 1.232 . S
C126 O127 1.218 . S
O127 C126 1.218 . S
C128 O121 1.275 . S
C128 O123 1.255 . S
C129 O130 1.258 . S
C129 O131 1.256 . S
O130 Cd122 2.381 . S
O130 C129 1.258 . S
O131 Cd122 2.378 . S
O131 C129 1.256 . S
O132 Cd133 2.300 . S
O132 C139 1.275 . S
Cd133 O132 2.300 . S
Cd133 O141 2.381 . S
Cd133 O142 2.378 . S
O134 Cd135 2.385 . S
O134 C139 1.255 . S
Cd135 O134 2.385 . S
Cd135 O136 2.317 . S
O136 Cd135 2.317 . S
O136 C137 1.232 . S
C137 O136 1.232 . S
C137 O138 1.218 . S
O138 C137 1.218 . S
C139 O132 1.275 . S
C139 O134 1.255 . S
C140 O141 1.258 . S
C140 O142 1.256 . S
O141 Cd133 2.381 . S
O141 C140 1.258 . S
O142 Cd133 2.378 . S
O142 C140 1.256 . S
O143 Cd144 2.300 . S
O143 C150 1.275 . S
Cd144 O143 2.300 . S
Cd144 O152 2.381 . S
Cd144 O153 2.378 . S
O145 Cd146 2.385 . S
O145 C150 1.255 . S
Cd146 O145 2.385 . S
Cd146 O147 2.317 . S
O147 Cd146 2.317 . S
O147 C148 1.232 . S
C148 O147 1.232 . S
C148 O149 1.218 . S
O149 C148 1.218 . S
C150 O143 1.275 . S
C150 O145 1.255 . S
C151 O152 1.258 . S
C151 O153 1.256 . S
O152 Cd144 2.381 . S
O152 C151 1.258 . S
O153 Cd144 2.378 . S
O153 C151 1.256 . S
O154 Cd155 2.300 . S
O154 C161 1.275 . S
Cd155 O154 2.300 . S
Cd155 O163 2.381 . S
Cd155 O164 2.378 . S
O156 Cd157 2.385 . S
O156 C161 1.255 . S
Cd157 O156 2.385 . S
Cd157 O158 2.317 . S
O158 Cd157 2.317 . S
O158 C159 1.232 . S
C159 O158 1.232 . S
C159 O160 1.218 . S
O160 C159 1.218 . S
C161 O154 1.275 . S
C161 O156 1.255 . S
C162 O163 1.258 . S
C162 O164 1.256 . S
O163 Cd155 2.381 . S
O163 C162 1.258 . S
O164 Cd155 2.378 . S
O164 C162 1.256 . S
O165 Cd166 2.300 . S
O165 C172 1.275 . S
Cd166 O165 2.300 . S
Cd166 O174 2.381 . S
Cd166 O175 2.378 . S
O167 Cd168 2.385 . S
O167 C172 1.255 . S
Cd168 O167 2.385 . S
Cd168 O169 2.317 . S
O169 Cd168 2.317 . S
O169 C170 1.232 . S
C170 O169 1.232 . S
C170 O171 1.218 . S
O171 C170 1.218 . S
C172 O165 1.275 . S
C172 O167 1.255 . S
C173 O174 1.258 . S
C173 O175 1.256 . S
O174 Cd166 2.381 . S
O174 C173 1.258 . S
O175 Cd166 2.378 . S
O175 C173 1.256 . S
O176 Cd177 2.300 . S
O176 C183 1.275 . S
Cd177 O176 2.300 . S
Cd177 O185 2.381 . S
Cd177 O186 2.378 . S
O178 Cd179 2.385 . S
O178 C183 1.255 . S
Cd179 O178 2.385 . S
Cd179 O180 2.317 . S
O180 Cd179 2.317 . S
O180 C181 1.232 . S
C181 O180 1.232 . S
C181 O182 1.218 . S
O182 C181 1.218 . S
C183 O176 1.275 . S
C183 O178 1.255 . S
C184 O185 1.258 . S
C184 O186 1.256 . S
O185 Cd177 2.381 . S
O185 C184 1.258 . S
O186 Cd177 2.378 . S
O186 C184 1.256 . S
O187 Cd188 2.300 . S
O187 C194 1.275 . S
Cd188 O187 2.300 . S
Cd188 O196 2.381 . S
Cd188 O197 2.378 . S
O189 Cd190 2.385 . S
O189 C194 1.255 . S
Cd190 O189 2.385 . S
Cd190 O191 2.317 . S
O191 Cd190 2.317 . S
O191 C192 1.232 . S
C192 O191 1.232 . S
C192 O193 1.218 . S
O193 C192 1.218 . S
C194 O187 1.275 . S
C194 O189 1.255 . S
C195 O196 1.258 . S
C195 O197 1.256 . S
O196 Cd188 2.381 . S
O196 C195 1.258 . S
O197 Cd188 2.378 . S
O197 C195 1.256 . S
O198 Cd199 2.300 . S
O198 C205 1.275 . S
Cd199 O198 2.300 . S
Cd199 O207 2.381 . S
Cd199 O208 2.378 . S
O200 Cd201 2.385 . S
O200 C205 1.255 . S
Cd201 O200 2.385 . S
Cd201 O202 2.317 . S
O202 Cd201 2.317 . S
O202 C203 1.232 . S
C203 O202 1.232 . S
C203 O204 1.218 . S
O204 C203 1.218 . S
C205 O198 1.275 . S
C205 O200 1.255 . S
C206 O207 1.258 . S
C206 O208 1.256 . S
O207 Cd199 2.381 . S
O207 C206 1.258 . S
O208 Cd199 2.378 . S
O208 C206 1.256 . S
O209 Cd210 2.300 . S
O209 C216 1.275 . S
Cd210 O209 2.300 . S
Cd210 O218 2.381 . S
Cd210 O219 2.378 . S
O211 Cd212 2.385 . S
O211 C216 1.255 . S
Cd212 O211 2.385 . S
Cd212 O213 2.317 . S
O213 Cd212 2.317 . S
O213 C214 1.232 . S
C214 O213 1.232 . S
C214 O215 1.218 . S
O215 C214 1.218 . S
C216 O209 1.275 . S
C216 O211 1.255 . S
C217 O218 1.258 . S
C217 O219 1.256 . S
O218 Cd210 2.381 . S
O218 C217 1.258 . S
O219 Cd210 2.378 . S
O219 C217 1.256 . S
O220 Cd221 2.300 . S
O220 C227 1.275 . S
Cd221 O220 2.300 . S
Cd221 O229 2.381 . S
Cd221 O230 2.378 . S
O222 Cd223 2.385 . S
O222 C227 1.255 . S
Cd223 O222 2.385 . S
Cd223 O224 2.317 . S
O224 Cd223 2.317 . S
O224 C225 1.232 . S
C225 O224 1.232 . S
C225 O226 1.218 . S
O226 C225 1.218 . S
C227 O220 1.275 . S
C227 O222 1.255 . S
C228 O229 1.258 . S
C228 O230 1.256 . S
O229 Cd221 2.381 . S
O229 C228 1.258 . S
O230 Cd221 2.378 . S
O230 C228 1.256 . S
O231 Cd232 2.300 . S
O231 C238 1.275 . S
Cd232 O231 2.300 . S
Cd232 O240 2.381 . S
Cd232 O241 2.378 . S
O233 Cd234 2.385 . S
O233 C238 1.255 . S
Cd234 O233 2.385 . S
Cd234 O235 2.317 . S
O235 Cd234 2.317 . S
O235 C236 1.232 . S
C236 O235 1.232 . S
C236 O237 1.218 . S
O237 C236 1.218 . S
C238 O231 1.275 . S
C238 O233 1.255 . S
C239 O240 1.258 . S
C239 O241 1.256 . S
O240 Cd232 2.381 . S
O240 C239 1.258 . S
O241 Cd232 2.378 . S
O241 C239 1.256 . S
O242 Cd243 2.300 . S
O242 C249 1.275 . S
Cd243 O242 2.300 . S
Cd243 O251 2.381 . S
Cd243 O252 2.378 . S
O244 Cd245 2.385 . S
O244 C249 1.255 . S
Cd245 O244 2.385 . S
Cd245 O246 2.317 . S
O246 Cd245 2.317 . S
O246 C247 1.232 . S
C247 O246 1.232 . S
C247 O248 1.218 . S
O248 C247 1.218 . S
C249 O242 1.275 . S
C249 O244 1.255 . S
C250 O251 1.258 . S
C250 O252 1.256 . S
O251 Cd243 2.381 . S
O251 C250 1.258 . S
O252 Cd243 2.378 . S
O252 C250 1.256 . S
O253 Cd254 2.300 . S
O253 C260 1.275 . S
Cd254 O253 2.300 . S
Cd254 O262 2.381 . S
Cd254 O263 2.378 . S
O255 Cd256 2.385 . S
O255 C260 1.255 . S
Cd256 O255 2.385 . S
Cd256 O257 2.317 . S
O257 Cd256 2.317 . S
O257 C258 1.232 . S
C258 O257 1.232 . S
C258 O259 1.218 . S
O259 C258 1.218 . S
C260 O253 1.275 . S
C260 O255 1.255 . S
C261 O262 1.258 . S
C261 O263 1.256 . S
O262 Cd254 2.381 . S
O262 C261 1.258 . S
O263 Cd254 2.378 . S
O263 C261 1.256 . S
O264 Cd265 2.300 . S
O264 C271 1.275 . S
Cd265 O264 2.300 . S
Cd265 O273 2.381 . S
Cd265 O274 2.378 . S
O266 Cd267 2.385 . S
O266 C271 1.255 . S
Cd267 O266 2.385 . S
Cd267 O268 2.317 . S
O268 Cd267 2.317 . S
O268 C269 1.232 . S
C269 O268 1.232 . S
C269 O270 1.218 . S
O270 C269 1.218 . S
C271 O264 1.275 . S
C271 O266 1.255 . S
C272 O273 1.258 . S
C272 O274 1.256 . S
O273 Cd265 2.381 . S
O273 C272 1.258 . S
O274 Cd265 2.378 . S
O274 C272 1.256 . S
O275 Cd276 2.300 . S
O275 C282 1.275 . S
Cd276 O275 2.300 . S
Cd276 O284 2.381 . S
Cd276 O285 2.378 . S
O277 Cd278 2.385 . S
O277 C282 1.255 . S
Cd278 O277 2.385 . S
Cd278 O279 2.317 . S
O279 Cd278 2.317 . S
O279 C280 1.232 . S
C280 O279 1.232 . S
C280 O281 1.218 . S
O281 C280 1.218 . S
C282 O275 1.275 . S
C282 O277 1.255 . S
C283 O284 1.258 . S
C283 O285 1.256 . S
O284 Cd276 2.381 . S
O284 C283 1.258 . S
O285 Cd276 2.378 . S
O285 C283 1.256 . S
O286 Cd287 2.300 . S
O286 C293 1.275 . S
Cd287 O286 2.300 . S
Cd287 O295 2.381 . S
Cd287 O296 2.378 . S
O288 Cd289 2.385 . S
O288 C293 1.255 . S
Cd289 O288 2.385 . S
Cd289 O290 2.317 . S
O290 Cd289 2.317 . S
O290 C291 1.232 . S
C291 O290 1.232 . S
C291 O292 1.218 . S
O292 C291 1.218 . S
C293 O286 1.275 . S
C293 O288 1.255 . S
C294 O295 1.258 . S
C294 O296 1.256 . S
O295 Cd287 2.381 . S
O295 C294 1.258 . S
O296 Cd287 2.378 . S
O296 C294 1.256 . S
O297 Cd298 2.300 . S
O297 C304 1.275 . S
Cd298 O297 2.300 . S
Cd298 O306 2.381 . S
Cd298 O307 2.378 . S
O299 Cd300 2.385 . S
O299 C304 1.255 . S
Cd300 O299 2.385 . S
Cd300 O301 2.317 . S
O301 Cd300 2.317 . S
O301 C302 1.232 . S
C302 O301 1.232 . S
C302 O303 1.218 . S
O303 C302 1.218 . S
C304 O297 1.275 . S
C304 O299 1.255 . S
C305 O306 1.258 . S
C305 O307 1.256 . S
O306 Cd298 2.381 . S
O306 C305 1.258 . S
O307 Cd298 2.378 . S
O307 C305 1.256 . S
O308 Cd309 2.300 . S
O308 C315 1.275 . S
Cd309 O308 2.300 . S
Cd309 O317 2.381 . S
Cd309 O318 2.378 . S
O310 Cd311 2.385 . S
O310 C315 1.255 . S
Cd311 O310 2.385 . S
Cd311 O312 2.317 . S
O312 Cd311 2.317 . S
O312 C313 1.232 . S
C313 O312 1.232 . S
C313 O314 1.218 . S
O314 C313 1.218 . S
C315 O308 1.275 . S
C315 O310 1.255 . S
C316 O317 1.258 . S
C316 O318 1.256 . S
O317 Cd309 2.381 . S
O317 C316 1.258 . S
O318 Cd309 2.378 . S
O318 C316 1.256 . S
O319 Cd320 2.300 . S
O319 C326 1.275 . S
Cd320 O319 2.300 . S
Cd320 O328 2.381 . S
Cd320 O329 2.378 . S
O321 Cd322 2.385 . S
O321 C326 1.255 . S
Cd322 O321 2.385 . S
Cd322 O323 2.317 . S
O323 Cd322 2.317 . S
O323 C324 1.232 . S
C324 O323 1.232 . S
C324 O325 1.218 . S
O325 C324 1.218 . S
C326 O319 1.275 . S
C326 O321 1.255 . S
C327 O328 1.258 . S
C327 O329 1.256 . S
O328 Cd320 2.381 . S
O328 C327 1.258 . S
O329 Cd320 2.378 . S
O329 C327 1.256 . S
O330 Cd331 2.300 . S
O330 C337 1.275 . S
Cd331 O330 2.300 . S
Cd331 O339 2.381 . S
Cd331 O340 2.378 . S
O332 Cd333 2.385 . S
O332 C337 1.255 . S
Cd333 O332 2.385 . S
Cd333 O334 2.317 . S
O334 Cd333 2.317 . S
O334 C335 1.232 . S
C335 O334 1.232 . S
C335 O336 1.218 . S
O336 C335 1.218 . S
C337 O330 1.275 . S
C337 O332 1.255 . S
C338 O339 1.258 . S
C338 O340 1.256 . S
O339 Cd331 2.381 . S
O339 C338 1.258 . S
O340 Cd331 2.378 . S
O340 C338 1.256 . S
O341 Cd342 2.300 . S
O341 C348 1.275 . S
Cd342 O341 2.300 . S
Cd342 O350 2.381 . S
Cd342 O351 2.378 . S
O343 Cd344 2.385 . S
O343 C348 1.255 . S
Cd344 O343 2.385 . S
Cd344 O345 2.317 . S
O345 Cd344 2.317 . S
O345 C346 1.232 . S
C346 O345 1.232 . S
C346 O347 1.218 . S
O347 C346 1.218 . S
C348 O341 1.275 . S
C348 O343 1.255 . S
C349 O350 1.258 . S
C349 O351 1.256 . S
O350 Cd342 2.381 . S
O350 C349 1.258 . S
O351 Cd342 2.378 . S
O351 C349 1.256 . S
O352 Cd353 2.300 . S
O352 C359 1.275 . S
Cd353 O352 2.300 . S
Cd353 O361 2.381 . S
Cd353 O362 2.378 . S
O354 Cd355 2.385 . S
O354 C359 1.255 . S
Cd355 O354 2.385 . S
Cd355 O356 2.317 . S
O356 Cd355 2.317 . S
O356 C357 1.232 . S
C357 O356 1.232 . S
C357 O358 1.218 . S
O358 C357 1.218 . S
C359 O352 1.275 . S
C359 O354 1.255 . S
C360 O361 1.258 . S
C360 O362 1.256 . S
O361 Cd353 2.381 . S
O361 C360 1.258 . S
O362 Cd353 2.378 . S
O362 C360 1.256 . S
O363 Cd364 2.300 . S
O363 C370 1.275 . S
Cd364 O363 2.300 . S
Cd364 O372 2.381 . S
Cd364 O373 2.378 . S
O365 Cd366 2.385 . S
O365 C370 1.255 . S
Cd366 O365 2.385 . S
Cd366 O367 2.317 . S
O367 Cd366 2.317 . S
O367 C368 1.232 . S
C368 O367 1.232 . S
C368 O369 1.218 . S
O369 C368 1.218 . S
C370 O363 1.275 . S
C370 O365 1.255 . S
C371 O372 1.258 . S
C371 O373 1.256 . S
O372 Cd364 2.381 . S
O372 C371 1.258 . S
O373 Cd364 2.378 . S
O373 C371 1.256 . S
O374 Cd375 2.300 . S
O374 C381 1.275 . S
Cd375 O374 2.300 . S
Cd375 O383 2.381 . S
Cd375 O384 2.378 . S
O376 Cd377 2.385 . S
O376 C381 1.255 . S
Cd377 O376 2.385 . S
Cd377 O378 2.317 . S
O378 Cd377 2.317 . S
O378 C379 1.232 . S
C379 O378 1.232 . S
C379 O380 1.218 . S
O380 C379 1.218 . S
C381 O374 1.275 . S
C381 O376 1.255 . S
C382 O383 1.258 . S
C382 O384 1.256 . S
O383 Cd375 2.381 . S
O383 C382 1.258 . S
O384 Cd375 2.378 . S
O384 C382 1.256 . S
O385 Cd386 2.300 . S
O385 C392 1.275 . S
Cd386 O385 2.300 . S
Cd386 O394 2.381 . S
Cd386 O395 2.378 . S
O387 Cd388 2.385 . S
O387 C392 1.255 . S
Cd388 O387 2.385 . S
Cd388 O389 2.317 . S
O389 Cd388 2.317 . S
O389 C390 1.232 . S
C390 O389 1.232 . S
C390 O391 1.218 . S
O391 C390 1.218 . S
C392 O385 1.275 . S
C392 O387 1.255 . S
C393 O394 1.258 . S
C393 O395 1.256 . S
O394 Cd386 2.381 . S
O394 C393 1.258 . S
O395 Cd386 2.378 . S
O395 C393 1.256 . S
O396 Cd397 2.300 . S
O396 C403 1.275 . S
Cd397 O396 2.300 . S
Cd397 O405 2.381 . S
Cd397 O406 2.378 . S
O398 Cd399 2.385 . S
O398 C403 1.255 . S
Cd399 O398 2.385 . S
Cd399 O400 2.317 . S
O400 Cd399 2.317 . S
O400 C401 1.232 . S
C401 O400 1.232 . S
C401 O402 1.218 . S
O402 C401 1.218 . S
C403 O396 1.275 . S
C403 O398 1.255 . S
C404 O405 1.258 . S
C404 O406 1.256 . S
O405 Cd397 2.381 . S
O405 C404 1.258 . S
O406 Cd397 2.378 . S
O406 C404 1.256 . S
O407 Cd408 2.300 . S
O407 C414 1.275 . S
Cd408 O407 2.300 . S
Cd408 O416 2.381 . S
Cd408 O417 2.378 . S
O409 Cd410 2.385 . S
O409 C414 1.255 . S
Cd410 O409 2.385 . S
Cd410 O411 2.317 . S
O411 Cd410 2.317 . S
O411 C412 1.232 . S
C412 O411 1.232 . S
C412 O413 1.218 . S
O413 C412 1.218 . S
C414 O407 1.275 . S
C414 O409 1.255 . S
C415 O416 1.258 . S
C415 O417 1.256 . S
O416 Cd408 2.381 . S
O416 C415 1.258 . S
O417 Cd408 2.378 . S
O417 C415 1.256 . S
O418 Cd419 2.300 . S
O418 C425 1.275 . S
Cd419 O418 2.300 . S
Cd419 O427 2.381 . S
Cd419 O428 2.378 . S
O420 Cd421 2.385 . S
O420 C425 1.255 . S
Cd421 O420 2.385 . S
Cd421 O422 2.317 . S
O422 Cd421 2.317 . S
O422 C423 1.232 . S
C423 O422 1.232 . S
C423 O424 1.218 . S
O424 C423 1.218 . S
C425 O418 1.275 . S
C425 O420 1.255 . S
C426 O427 1.258 . S
C426 O428 1.256 . S
O427 Cd419 2.381 . S
O427 C426 1.258 . S
O428 Cd419 2.378 . S
O428 C426 1.256 . S
O429 Cd430 2.300 . S
O429 C436 1.275 . S
Cd430 O429 2.300 . S
Cd430 O438 2.381 . S
Cd430 O439 2.378 . S
O431 Cd432 2.385 . S
O431 C436 1.255 . S
Cd432 O431 2.385 . S
Cd432 O433 2.317 . S
O433 Cd432 2.317 . S
O433 C434 1.232 . S
C434 O433 1.232 . S
C434 O435 1.218 . S
O435 C434 1.218 . S
C436 O429 1.275 . S
C436 O431 1.255 . S
C437 O438 1.258 . S
C437 O439 1.256 . S
O438 Cd430 2.381 . S
O438 C437 1.258 . S
O439 Cd430 2.378 . S
O439 C437 1.256 . S
O440 Cd441 2.300 . S
O440 C447 1.275 . S
Cd441 O440 2.300 . S
Cd441 O449 2.381 . S
Cd441 O450 2.378 . S
O442 Cd443 2.385 . S
O442 C447 1.255 . S
Cd443 O442 2.385 . S
Cd443 O444 2.317 . S
O444 Cd443 2.317 . S
O444 C445 1.232 . S
C445 O444 1.232 . S
C445 O446 1.218 . S
O446 C445 1.218 . S
C447 O440 1.275 . S
C447 O442 1.255 . S
C448 O449 1.258 . S
C448 O450 1.256 . S
O449 Cd441 2.381 . S
O449 C448 1.258 . S
O450 Cd441 2.378 . S
O450 C448 1.256 . S
O451 Cd452 2.300 . S
O451 C458 1.275 . S
Cd452 O451 2.300 . S
Cd452 O460 2.381 . S
Cd452 O461 2.378 . S
O453 Cd454 2.385 . S
O453 C458 1.255 . S
Cd454 O453 2.385 . S
Cd454 O455 2.317 . S
O455 Cd454 2.317 . S
O455 C456 1.232 . S
C456 O455 1.232 . S
C456 O457 1.218 . S
O457 C456 1.218 . S
C458 O451 1.275 . S
C458 O453 1.255 . S
C459 O460 1.258 . S
C459 O461 1.256 . S
O460 Cd452 2.381 . S
O460 C459 1.258 . S
O461 Cd452 2.378 . S
O461 C459 1.256 . S
O462 Cd463 2.300 . S
O462 C469 1.275 . S
Cd463 O462 2.300 . S
Cd463 O471 2.381 . S
Cd463 O472 2.378 . S
O464 Cd465 2.385 . S
O464 C469 1.255 . S
Cd465 O464 2.385 . S
Cd465 O466 2.317 . S
O466 Cd465 2.317 . S
O466 C467 1.232 . S
C467 O466 1.232 . S
C467 O468 1.218 . S
O468 C467 1.218 . S
C469 O462 1.275 . S
C469 O464 1.255 . S
C470 O471 1.258 . S
C470 O472 1.256 . S
O471 Cd463 2.381 . S
O471 C470 1.258 . S
O472 Cd463 2.378 . S
O472 C470 1.256 . S
O473 Cd474 2.300 . S
O473 C480 1.275 . S
Cd474 O473 2.300 . S
Cd474 O482 2.381 . S
Cd474 O483 2.378 . S
O475 Cd476 2.385 . S
O475 C480 1.255 . S
Cd476 O475 2.385 . S
Cd476 O477 2.317 . S
O477 Cd476 2.317 . S
O477 C478 1.232 . S
C478 O477 1.232 . S
C478 O479 1.218 . S
O479 C478 1.218 . S
C480 O473 1.275 . S
C480 O475 1.255 . S
C481 O482 1.258 . S
C481 O483 1.256 . S
O482 Cd474 2.381 . S
O482 C481 1.258 . S
O483 Cd474 2.378 . S
O483 C481 1.256 . S
O484 Cd485 2.300 . S
O484 C491 1.275 . S
Cd485 O484 2.300 . S
Cd485 O493 2.381 . S
Cd485 O494 2.378 . S
O486 Cd487 2.385 . S
O486 C491 1.255 . S
Cd487 O486 2.385 . S
Cd487 O488 2.317 . S
O488 Cd487 2.317 . S
O488 C489 1.232 . S
C489 O488 1.232 . S
C489 O490 1.218 . S
O490 C489 1.218 . S
C491 O484 1.275 . S
C491 O486 1.255 . S
C492 O493 1.258 . S
C492 O494 1.256 . S
O493 Cd485 2.381 . S
O493 C492 1.258 . S
O494 Cd485 2.378 . S
O494 C492 1.256 . S
O495 Cd496 2.300 . S
O495 C502 1.275 . S
Cd496 O495 2.300 . S
Cd496 O504 2.381 . S
Cd496 O505 2.378 . S
O497 Cd498 2.385 . S
O497 C502 1.255 . S
Cd498 O497 2.385 . S
Cd498 O499 2.317 . S
O499 Cd498 2.317 . S
O499 C500 1.232 . S
C500 O499 1.232 . S
C500 O501 1.218 . S
O501 C500 1.218 . S
C502 O495 1.275 . S
C502 O497 1.255 . S
C503 O504 1.258 . S
C503 O505 1.256 . S
O504 Cd496 2.381 . S
O504 C503 1.258 . S
O505 Cd496 2.378 . S
O505 C503 1.256 . S
O506 Cd507 2.300 . S
O506 C513 1.275 . S
Cd507 O506 2.300 . S
Cd507 O515 2.381 . S
Cd507 O516 2.378 . S
O508 Cd509 2.385 . S
O508 C513 1.255 . S
Cd509 O508 2.385 . S
Cd509 O510 2.317 . S
O510 Cd509 2.317 . S
O510 C511 1.232 . S
C511 O510 1.232 . S
C511 O512 1.218 . S
O512 C511 1.218 . S
C513 O506 1.275 . S
C513 O508 1.255 . S
C514 O515 1.258 . S
C514 O516 1.256 . S
O515 Cd507 2.381 . S
O515 C514 1.258 . S
O516 Cd507 2.378 . S
O516 C514 1.256 . S
O517 Cd518 2.300 . S
O517 C524 1.275 . S
Cd518 O517 2.300 . S
Cd518 O526 2.381 . S
Cd518 O527 2.378 . S
O519 Cd520 2.385 . S
O519 C524 1.255 . S
Cd520 O519 2.385 . S
Cd520 O521 2.317 . S
O521 Cd520 2.317 . S
O521 C522 1.232 . S
C522 O521 1.232 . S
C522 O523 1.218 . S
O523 C522 1.218 . S
C524 O517 1.275 . S
C524 O519 1.255 . S
C525 O526 1.258 . S
C525 O527 1.256 . S
O526 Cd518 2.381 . S
O526 C525 1.258 . S
O527 Cd518 2.378 . S
O527 C525 1.256 . S
O528 Cd529 2.300 . S
O528 C535 1.275 . S
Cd529 O528 2.300 . S
Cd529 O537 2.381 . S
Cd529 O538 2.378 . S
O530 Cd531 2.385 . S
O530 C535 1.255 . S
Cd531 O530 2.385 . S
Cd531 O532 2.317 . S
O532 Cd531 2.317 . S
O532 C533 1.232 . S
C533 O532 1.232 . S
C533 O534 1.218 . S
O534 C533 1.218 . S
C535 O528 1.275 . S
C535 O530 1.255 . S
C536 O537 1.258 . S
C536 O538 1.256 . S
O537 Cd529 2.381 . S
O537 C536 1.258 . S
O538 Cd529 2.378 . S
O538 C536 1.256 . S
O539 Cd540 2.300 . S
O539 C546 1.275 . S
Cd540 O539 2.300 . S
Cd540 O548 2.381 . S
Cd540 O549 2.378 . S
O541 Cd542 2.385 . S
O541 C546 1.255 . S
Cd542 O541 2.385 . S
Cd542 O543 2.317 . S
O543 Cd542 2.317 . S
O543 C544 1.232 . S
C544 O543 1.232 . S
C544 O545 1.218 . S
O545 C544 1.218 . S
C546 O539 1.275 . S
C546 O541 1.255 . S
C547 O548 1.258 . S
C547 O549 1.256 . S
O548 Cd540 2.381 . S
O548 C547 1.258 . S
O549 Cd540 2.378 . S
O549 C547 1.256 . S
O550 Cd551 2.300 . S
O550 C557 1.275 . S
Cd551 O550 2.300 . S
Cd551 O559 2.381 . S
Cd551 O560 2.378 . S
O552 Cd553 2.385 . S
O552 C557 1.255 . S
Cd553 O552 2.385 . S
Cd553 O554 2.317 . S
O554 Cd553 2.317 . S
O554 C555 1.232 . S
C555 O554 1.232 . S
C555 O556 1.218 . S
O556 C555 1.218 . S
C557 O550 1.275 . S
C557 O552 1.255 . S
C558 O559 1.258 . S
C558 O560 1.256 . S
O559 Cd551 2.381 . S
O559 C558 1.258 . S
O560 Cd551 2.378 . S
O560 C558 1.256 . S
O561 Cd562 2.300 . S
O561 C568 1.275 . S
Cd562 O561 2.300 . S
Cd562 O570 2.381 . S
Cd562 O571 2.378 . S
O563 Cd564 2.385 . S
O563 C568 1.255 . S
Cd564 O563 2.385 . S
Cd564 O565 2.317 . S
O565 Cd564 2.317 . S
O565 C566 1.232 . S
C566 O565 1.232 . S
C566 O567 1.218 . S
O567 C566 1.218 . S
C568 O561 1.275 . S
C568 O563 1.255 . S
C569 O570 1.258 . S
C569 O571 1.256 . S
O570 Cd562 2.381 . S
O570 C569 1.258 . S
O571 Cd562 2.378 . S
O571 C569 1.256 . S
O572 Cd573 2.300 . S
O572 C579 1.275 . S
Cd573 O572 2.300 . S
Cd573 O581 2.381 . S
Cd573 O582 2.378 . S
O574 Cd575 2.385 . S
O574 C579 1.255 . S
Cd575 O574 2.385 . S
Cd575 O576 2.317 . S
O576 Cd575 2.317 . S
O576 C577 1.232 . S
C577 O576 1.232 . S
C577 O578 1.218 . S
O578 C577 1.218 . S
C579 O572 1.275 . S
C579 O574 1.255 . S
C580 O581 1.258 . S
C580 O582 1.256 . S
O581 Cd573 2.381 . S
O581 C580 1.258 . S
O582 Cd573 2.378 . S
O582 C580 1.256 . S
O583 Cd584 2.300 . S
O583 C590 1.275 . S
Cd584 O583 2.300 . S
Cd584 O592 2.381 . S
Cd584 O593 2.378 . S
O585 Cd586 2.385 . S
O585 C590 1.255 . S
Cd586 O585 2.385 . S
Cd586 O587 2.317 . S
O587 Cd586 2.317 . S
O587 C588 1.232 . S
C588 O587 1.232 . S
C588 O589 1.218 . S
O589 C588 1.218 . S
C590 O583 1.275 . S
C590 O585 1.255 . S
C591 O592 1.258 . S
C591 O593 1.256 . S
O592 Cd584 2.381 . S
O592 C591 1.258 . S
O593 Cd584 2.378 . S
O593 C591 1.256 . S
O594 Cd595 2.300 . S
O594 C601 1.275 . S
Cd595 O594 2.300 . S
Cd595 O603 2.381 . S
Cd595 O604 2.378 . S
O596 Cd597 2.385 . S
O596 C601 1.255 . S
Cd597 O596 2.385 . S
Cd597 O598 2.317 . S
O598 Cd597 2.317 . S
O598 C599 1.232 . S
C599 O598 1.232 . S
C599 O600 1.218 . S
O600 C599 1.218 . S
C601 O594 1.275 . S
C601 O596 1.255 . S
C602 O603 1.258 . S
C602 O604 1.256 . S
O603 Cd595 2.381 . S
O603 C602 1.258 . S
O604 Cd595 2.378 . S
O604 C602 1.256 . S
O605 Cd606 2.300 . S
O605 C612 1.275 . S
Cd606 O605 2.300 . S
Cd606 O614 2.381 . S
Cd606 O615 2.378 . S
O607 Cd608 2.385 . S
O607 C612 1.255 . S
Cd608 O607 2.385 . S
Cd608 O609 2.317 . S
O609 Cd608 2.317 . S
O609 C610 1.232 . S
C610 O609 1.232 . S
C610 O611 1.218 . S
O611 C610 1.218 . S
C612 O605 1.275 . S
C612 O607 1.255 . S
C613 O614 1.258 . S
C613 O615 1.256 . S
O614 Cd606 2.381 . S
O614 C613 1.258 . S
O615 Cd606 2.378 . S
O615 C613 1.256 . S
O616 Cd617 2.300 . S
O616 C623 1.275 . S
Cd617 O616 2.300 . S
Cd617 O625 2.381 . S
Cd617 O626 2.378 . S
O618 Cd619 2.385 . S
O618 C623 1.255 . S
Cd619 O618 2.385 . S
Cd619 O620 2.317 . S
O620 Cd619 2.317 . S
O620 C621 1.232 . S
C621 O620 1.232 . S
C621 O622 1.218 . S
O622 C621 1.218 . S
C623 O616 1.275 . S
C623 O618 1.255 . S
C624 O625 1.258 . S
C624 O626 1.256 . S
O625 Cd617 2.381 . S
O625 C624 1.258 . S
O626 Cd617 2.378 . S
O626 C624 1.256 . S
O627 Cd628 2.300 . S
O627 C634 1.275 . S
Cd628 O627 2.300 . S
Cd628 O636 2.381 . S
Cd628 O637 2.378 . S
O629 Cd630 2.385 . S
O629 C634 1.255 . S
Cd630 O629 2.385 . S
Cd630 O631 2.317 . S
O631 Cd630 2.317 . S
O631 C632 1.232 . S
C632 O631 1.232 . S
C632 O633 1.218 . S
O633 C632 1.218 . S
C634 O627 1.275 . S
C634 O629 1.255 . S
C635 O636 1.258 . S
C635 O637 1.256 . S
O636 Cd628 2.381 . S
O636 C635 1.258 . S
O637 Cd628 2.378 . S
O637 C635 1.256 . S
O638 Cd639 2.300 . S
O638 C645 1.275 . S
Cd639 O638 2.300 . S
Cd639 O647 2.381 . S
Cd639 O648 2.378 . S
O640 Cd641 2.385 . S
O640 C645 1.255 . S
Cd641 O640 2.385 . S
Cd641 O642 2.317 . S
O642 Cd641 2.317 . S
O642 C643 1.232 . S
C643 O642 1.232 . S
C643 O644 1.218 . S
O644 C643 1.218 . S
C645 O638 1.275 . S
C645 O640 1.255 . S
C646 O647 1.258 . S
C646 O648 1.256 . S
O647 Cd639 2.381 . S
O647 C646 1.258 . S
O648 Cd639 2.378 . S
O648 C646 1.256 . S
O649 Cd650 2.300 . S
O649 C656 1.275 . S
Cd650 O649 2.300 . S
Cd650 O658 2.381 . S
Cd650 O659 2.378 . S
O651 Cd652 2.385 . S
O651 C656 1.255 . S
Cd652 O651 2.385 . S
Cd652 O653 2.317 . S
O653 Cd652 2.317 . S
O653 C654 1.232 . S
C654 O653 1.232 . S
C654 O655 1.218 . S
O655 C654 1.218 . S
C656 O649 1.275 . S
C656 O651 1.255 . S
C657 O658 1.258 . S
C657 O659 1.256 . S
O658 Cd650 2.381 . S
O658 C657 1.258 . S
O659 Cd650 2.378 . S
O659 C657 1.256 . S
O660 Cd661 2.300 . S
O660 C667 1.275 . S
Cd661 O660 2.300 . S
Cd661 O669 2.381 . S
Cd661 O670 2.378 . S
O662 Cd663 2.385 . S
O662 C667 1.255 . S
Cd663 O662 2.385 . S
Cd663 O664 2.317 . S
O664 Cd663 2.317 . S
O664 C665 1.232 . S
C665 O664 1.232 . S
C665 O666 1.218 . S
O666 C665 1.218 . S
C667 O660 1.275 . S
C667 O662 1.255 . S
C668 O669 1.258 . S
C668 O670 1.256 . S
O669 Cd661 2.381 . S
O669 C668 1.258 . S
O670 Cd661 2.378 . S
O670 C668 1.256 . S
O671 Cd672 2.300 . S
O671 C678 1.275 . S
Cd672 O671 2.300 . S
Cd672 O680 2.381 . S
Cd672 O681 2.378 . S
O673 Cd674 2.385 . S
O673 C678 1.255 . S
Cd674 O673 2.385 . S
Cd674 O675 2.317 . S
O675 Cd674 2.317 . S
O675 C676 1.232 . S
C676 O675 1.232 . S
C676 O677 1.218 . S
O677 C676 1.218 . S
C678 O671 1.275 . S
C678 O673 1.255 . S
C679 O680 1.258 . S
C679 O681 1.256 . S
O680 Cd672 2.381 . S
O680 C679 1.258 . S
O681 Cd672 2.378 . S
O681 C679 1.256 . S
O682 Cd683 2.300 . S
O682 C689 1.275 . S
Cd683 O682 2.300 . S
Cd683 O691 2.381 . S
Cd683 O692 2.378 . S
O684 Cd685 2.385 . S
O684 C689 1.255 . S
Cd685 O684 2.385 . S
Cd685 O686 2.317 . S
O686 Cd685 2.317 . S
O686 C687 1.232 . S
C687 O686 1.232 . S
C687 O688 1.218 . S
O688 C687 1.218 . S
C689 O682 1.275 . S
C689 O684 1.255 . S
C690 O691 1.258 . S
C690 O692 1.256 . S
O691 Cd683 2.381 . S
O691 C690 1.258 . S
O692 Cd683 2.378 . S
O692 C690 1.256 . S
O693 Cd694 2.300 . S
O693 C700 1.275 . S
Cd694 O693 2.300 . S
Cd694 O702 2.381 . S
Cd694 O703 2.378 . S
O695 Cd696 2.385 . S
O695 C700 1.255 . S
Cd696 O695 2.385 . S
Cd696 O697 2.317 . S
O697 Cd696 2.317 . S
O697 C698 1.232 . S
C698 O697 1.232 . S
C698 O699 1.218 . S
O699 C698 1.218 . S
C700 O693 1.275 . S
C700 O695 1.255 . S
C701 O702 1.258 . S
C701 O703 1.256 . S
O702 Cd694 2.381 . S
O702 C701 1.258 . S
O703 Cd694 2.378 . S
O703 C701 1.256 . S
O704 Cd705 2.300 . S
O704 C711 1.275 . S
Cd705 O704 2.300 . S
Cd705 O713 2.381 . S
Cd705 O714 2.378 . S
O706 Cd707 2.385 . S
O706 C711 1.255 . S
Cd707 O706 2.385 . S
Cd707 O708 2.317 . S
O708 Cd707 2.317 . S
O708 C709 1.232 . S
C709 O708 1.232 . S
C709 O710 1.218 . S
O710 C709 1.218 . S
C711 O704 1.275 . S
C711 O706 1.255 . S
C712 O713 1.258 . S
C712 O714 1.256 . S
O713 Cd705 2.381 . S
O713 C712 1.258 . S
O714 Cd705 2.378 . S
O714 C712 1.256 . S
O715 Cd716 2.300 . S
O715 C722 1.275 . S
Cd716 O715 2.300 . S
Cd716 O724 2.381 . S
Cd716 O725 2.378 . S
O717 Cd718 2.385 . S
O717 C722 1.255 . S
Cd718 O717 2.385 . S
Cd718 O719 2.317 . S
O719 Cd718 2.317 . S
O719 C720 1.232 . S
C720 O719 1.232 . S
C720 O721 1.218 . S
O721 C720 1.218 . S
C722 O715 1.275 . S
C722 O717 1.255 . S
C723 O724 1.258 . S
C723 O725 1.256 . S
O724 Cd716 2.381 . S
O724 C723 1.258 . S
O725 Cd716 2.378 . S
O725 C723 1.256 . S
O726 Cd727 2.300 . S
O726 C733 1.275 . S
Cd727 O726 2.300 . S
Cd727 O735 2.381 . S
Cd727 O736 2.378 . S
O728 Cd729 2.385 . S
O728 C733 1.255 . S
Cd729 O728 2.385 . S
Cd729 O730 2.317 . S
O730 Cd729 2.317 . S
O730 C731 1.232 . S
C731 O730 1.232 . S
C731 O732 1.218 . S
O732 C731 1.218 . S
C733 O726 1.275 . S
C733 O728 1.255 . S
C734 O735 1.258 . S
C734 O736 1.256 . S
O735 Cd727 2.381 . S
O735 C734 1.258 . S
O736 Cd727 2.378 . S
O736 C734 1.256 . S
O737 Cd738 2.300 . S
O737 C744 1.275 . S
Cd738 O737 2.300 . S
Cd738 O746 2.381 . S
Cd738 O747 2.378 . S
O739 Cd740 2.385 . S
O739 C744 1.255 . S
Cd740 O739 2.385 . S
Cd740 O741 2.317 . S
O741 Cd740 2.317 . S
O741 C742 1.232 . S
C742 O741 1.232 . S
C742 O743 1.218 . S
O743 C742 1.218 . S
C744 O737 1.275 . S
C744 O739 1.255 . S
C745 O746 1.258 . S
C745 O747 1.256 . S
O746 Cd738 2.381 . S
O746 C745 1.258 . S
O747 Cd738 2.378 . S
O747 C745 1.256 . S
O748 Cd749 2.300 . S
O748 C755 1.275 . S
Cd749 O748 2.300 . S
Cd749 O757 2.381 . S
Cd749 O758 2.378 . S
O750 Cd751 2.385 . S
O750 C755 1.255 . S
Cd751 O750 2.385 . S
Cd751 O752 2.317 . S
O752 Cd751 2.317 . S
O752 C753 1.232 . S
C753 O752 1.232 . S
C753 O754 1.218 . S
O754 C753 1.218 . S
C755 O748 1.275 . S
C755 O750 1.255 . S
C756 O757 1.258 . S
C756 O758 1.256 . S
O757 Cd749 2.381 . S
O757 C756 1.258 . S
O758 Cd749 2.378 . S
O758 C756 1.256 . S
O759 Cd760 2.300 . S
O759 C766 1.275 . S
Cd760 O759 2.300 . S
Cd760 O768 2.381 . S
Cd760 O769 2.378 . S
O761 Cd762 2.385 . S
O761 C766 1.255 . S
Cd762 O761 2.385 . S
Cd762 O763 2.317 . S
O763 Cd762 2.317 . S
O763 C764 1.232 . S
C764 O763 1.232 . S
C764 O765 1.218 . S
O765 C764 1.218 . S
C766 O759 1.275 . S
C766 O761 1.255 . S
C767 O768 1.258 . S
C767 O769 1.256 . S
O768 Cd760 2.381 . S
O768 C767 1.258 . S
O769 Cd760 2.378 . S
O769 C767 1.256 . S
O770 Cd771 2.300 . S
O770 C777 1.275 . S
Cd771 O770 2.300 . S
Cd771 O779 2.381 . S
Cd771 O780 2.378 . S
O772 Cd773 2.385 . S
O772 C777 1.255 . S
Cd773 O772 2.385 . S
Cd773 O774 2.317 . S
O774 Cd773 2.317 . S
O774 C775 1.232 . S
C775 O774 1.232 . S
C775 O776 1.218 . S
O776 C775 1.218 . S
C777 O770 1.275 . S
C777 O772 1.255 . S
C778 O779 1.258 . S
C778 O780 1.256 . S
O779 Cd771 2.381 . S
O779 C778 1.258 . S
O780 Cd771 2.378 . S
O780 C778 1.256 . S
O781 Cd782 2.300 . S
O781 C788 1.275 . S
Cd782 O781 2.300 . S
Cd782 O790 2.381 . S
Cd782 O791 2.378 . S
O783 Cd784 2.385 . S
O783 C788 1.255 . S
Cd784 O783 2.385 . S
Cd784 O785 2.317 . S
O785 Cd784 2.317 . S
O785 C786 1.232 . S
C786 O785 1.232 . S
C786 O787 1.218 . S
O787 C786 1.218 . S
C788 O781 1.275 . S
C788 O783 1.255 . S
C789 O790 1.258 . S
C789 O791 1.256 . S
O790 Cd782 2.381 . S
O790 C789 1.258 . S
O791 Cd782 2.378 . S
O791 C789 1.256 . S
O792 Cd793 2.300 . S
O792 C799 1.275 . S
Cd793 O792 2.300 . S
Cd793 O801 2.381 . S
Cd793 O802 2.378 . S
O794 Cd795 2.385 . S
O794 C799 1.255 . S
Cd795 O794 2.385 . S
Cd795 O796 2.317 . S
O796 Cd795 2.317 . S
O796 C797 1.232 . S
C797 O796 1.232 . S
C797 O798 1.218 . S
O798 C797 1.218 . S
C799 O792 1.275 . S
C799 O794 1.255 . S
C800 O801 1.258 . S
C800 O802 1.256 . S
O801 Cd793 2.381 . S
O801 C800 1.258 . S
O802 Cd793 2.378 . S
O802 C800 1.256 . S
O803 Cd804 2.300 . S
O803 C810 1.275 . S
Cd804 O803 2.300 . S
Cd804 O812 2.381 . S
Cd804 O813 2.378 . S
O805 Cd806 2.385 . S
O805 C810 1.255 . S
Cd806 O805 2.385 . S
Cd806 O807 2.317 . S
O807 Cd806 2.317 . S
O807 C808 1.232 . S
C808 O807 1.232 . S
C808 O809 1.218 . S
O809 C808 1.218 . S
C810 O803 1.275 . S
C810 O805 1.255 . S
C811 O812 1.258 . S
C811 O813 1.256 . S
O812 Cd804 2.381 . S
O812 C811 1.258 . S
O813 Cd804 2.378 . S
O813 C811 1.256 . S
O814 Cd815 2.300 . S
O814 C821 1.275 . S
Cd815 O814 2.300 . S
Cd815 O823 2.381 . S
Cd815 O824 2.378 . S
O816 Cd817 2.385 . S
O816 C821 1.255 . S
Cd817 O816 2.385 . S
Cd817 O818 2.317 . S
O818 Cd817 2.317 . S
O818 C819 1.232 . S
C819 O818 1.232 . S
C819 O820 1.218 . S
O820 C819 1.218 . S
C821 O814 1.275 . S
C821 O816 1.255 . S
C822 O823 1.258 . S
C822 O824 1.256 . S
O823 Cd815 2.381 . S
O823 C822 1.258 . S
O824 Cd815 2.378 . S
O824 C822 1.256 . S
O825 Cd826 2.300 . S
O825 C832 1.275 . S
Cd826 O825 2.300 . S
Cd826 O834 2.381 . S
Cd826 O835 2.378 . S
O827 Cd828 2.385 . S
O827 C832 1.255 . S
Cd828 O827 2.385 . S
Cd828 O829 2.317 . S
O829 Cd828 2.317 . S
O829 C830 1.232 . S
C830 O829 1.232 . S
C830 O831 1.218 . S
O831 C830 1.218 . S
C832 O825 1.275 . S
C832 O827 1.255 . S
C833 O834 1.258 . S
C833 O835 1.256 . S
O834 Cd826 2.381 . S
O834 C833 1.258 . S
O835 Cd826 2.378 . S
O835 C833 1.256 . S
O836 Cd837 2.300 . S
O836 C843 1.275 . S
Cd837 O836 2.300 . S
Cd837 O845 2.381 . S
Cd837 O846 2.378 . S
O838 Cd839 2.385 . S
O838 C843 1.255 . S
Cd839 O838 2.385 . S
Cd839 O840 2.317 . S
O840 Cd839 2.317 . S
O840 C841 1.232 . S
C841 O840 1.232 . S
C841 O842 1.218 . S
O842 C841 1.218 . S
C843 O836 1.275 . S
C843 O838 1.255 . S
C844 O845 1.258 . S
C844 O846 1.256 . S
O845 Cd837 2.381 . S
O845 C844 1.258 . S
O846 Cd837 2.378 . S
O846 C844 1.256 . S
O847 Cd848 2.300 . S
O847 C854 1.275 . S
Cd848 O847 2.300 . S
Cd848 O856 2.381 . S
Cd848 O857 2.378 . S
O849 Cd850 2.385 . S
O849 C854 1.255 . S
Cd850 O849 2.385 . S
Cd850 O851 2.317 . S
O851 Cd850 2.317 . S
O851 C852 1.232 . S
C852 O851 1.232 . S
C852 O853 1.218 . S
O853 C852 1.218 . S
C854 O847 1.275 . S
C854 O849 1.255 . S
C855 O856 1.258 . S
C855 O857 1.256 . S
O856 Cd848 2.381 . S
O856 C855 1.258 . S
O857 Cd848 2.378 . S
O857 C855 1.256 . S
O858 Cd859 2.300 . S
O858 C865 1.275 . S
Cd859 O858 2.300 . S
Cd859 O867 2.381 . S
Cd859 O868 2.378 . S
O860 Cd861 2.385 . S
O860 C865 1.255 . S
Cd861 O860 2.385 . S
Cd861 O862 2.317 . S
O862 Cd861 2.317 . S
O862 C863 1.232 . S
C863 O862 1.232 . S
C863 O864 1.218 . S
O864 C863 1.218 . S
C865 O858 1.275 . S
C865 O860 1.255 . S
C866 O867 1.258 . S
C866 O868 1.256 . S
O867 Cd859 2.381 . S
O867 C866 1.258 . S
O868 Cd859 2.378 . S
O868 C866 1.256 . S
O869 Cd870 2.300 . S
O869 C876 1.275 . S
Cd870 O869 2.300 . S
Cd870 O878 2.381 . S
Cd870 O879 2.378 . S
O871 Cd872 2.385 . S
O871 C876 1.255 . S
Cd872 O871 2.385 . S
Cd872 O873 2.317 . S
O873 Cd872 2.317 . S
O873 C874 1.232 . S
C874 O873 1.232 . S
C874 O875 1.218 . S
O875 C874 1.218 . S
C876 O869 1.275 . S
C876 O871 1.255 . S
C877 O878 1.258 . S
C877 O879 1.256 . S
O878 Cd870 2.381 . S
O878 C877 1.258 . S
O879 Cd870 2.378 . S
O879 C877 1.256 . S
O880 Cd881 2.300 . S
O880 C887 1.275 . S
Cd881 O880 2.300 . S
Cd881 O889 2.381 . S
Cd881 O890 2.378 . S
O882 Cd883 2.385 . S
O882 C887 1.255 . S
Cd883 O882 2.385 . S
Cd883 O884 2.317 . S
O884 Cd883 2.317 . S
O884 C885 1.232 . S
C885 O884 1.232 . S
C885 O886 1.218 . S
O886 C885 1.218 . S
C887 O880 1.275 . S
C887 O882 1.255 . S
C888 O889 1.258 . S
C888 O890 1.256 . S
O889 Cd881 2.381 . S
O889 C888 1.258 . S
O890 Cd881 2.378 . S
O890 C888 1.256 . S
O891 Cd892 2.300 . S
O891 C898 1.275 . S
Cd892 O891 2.300 . S
Cd892 O900 2.381 . S
Cd892 O901 2.378 . S
O893 Cd894 2.385 . S
O893 C898 1.255 . S
Cd894 O893 2.385 . S
Cd894 O895 2.317 . S
O895 Cd894 2.317 . S
O895 C896 1.232 . S
C896 O895 1.232 . S
C896 O897 1.218 . S
O897 C896 1.218 . S
C898 O891 1.275 . S
C898 O893 1.255 . S
C899 O900 1.258 . S
C899 O901 1.256 . S
O900 Cd892 2.381 . S
O900 C899 1.258 . S
O901 Cd892 2.378 . S
O901 C899 1.256 . S
O902 Cd903 2.300 . S
O902 C909 1.275 . S
Cd903 O902 2.300 . S
Cd903 O911 2.381 . S
Cd903 O912 2.378 . S
O904 Cd905 2.385 . S
O904 C909 1.255 . S
Cd905 O904 2.385 . S
Cd905 O906 2.317 . S
O906 Cd905 2.317 . S
O906 C907 1.232 . S
C907 O906 1.232 . S
C907 O908 1.218 . S
O908 C907 1.218 . S
C909 O902 1.275 . S
C909 O904 1.255 . S
C910 O911 1.258 . S
C910 O912 1.256 . S
O911 Cd903 2.381 . S
O911 C910 1.258 . S
O912 Cd903 2.378 . S
O912 C910 1.256 . S
O913 Cd914 2.300 . S
O913 C920 1.275 . S
Cd914 O913 2.300 . S
Cd914 O922 2.381 . S
Cd914 O923 2.378 . S
O915 Cd916 2.385 . S
O915 C920 1.255 . S
Cd916 O915 2.385 . S
Cd916 O917 2.317 . S
O917 Cd916 2.317 . S
O917 C918 1.232 . S
C918 O917 1.232 . S
C918 O919 1.218 . S
O919 C918 1.218 . S
C920 O913 1.275 . S
C920 O915 1.255 . S
C921 O922 1.258 . S
C921 O923 1.256 . S
O922 Cd914 2.381 . S
O922 C921 1.258 . S
O923 Cd914 2.378 . S
O923 C921 1.256 . S
O924 Cd925 2.300 . S
O924 C931 1.275 . S
Cd925 O924 2.300 . S
Cd925 O933 2.381 . S
Cd925 O934 2.378 . S
O926 Cd927 2.385 . S
O926 C931 1.255 . S
Cd927 O926 2.385 . S
Cd927 O928 2.317 . S
O928 Cd927 2.317 . S
O928 C929 1.232 . S
C929 O928 1.232 . S
C929 O930 1.218 . S
O930 C929 1.218 . S
C931 O924 1.275 . S
C931 O926 1.255 . S
C932 O933 1.258 . S
C932 O934 1.256 . S
O933 Cd925 2.381 . S
O933 C932 1.258 . S
O934 Cd925 2.378 . S
O934 C932 1.256 . S
O935 Cd936 2.300 . S
O935 C942 1.275 . S
Cd936 O935 2.300 . S
Cd936 O944 2.381 . S
Cd936 O945 2.378 . S
O937 Cd938 2.385 . S
O937 C942 1.255 . S
Cd938 O937 2.385 . S
Cd938 O939 2.317 . S
O939 Cd938 2.317 . S
O939 C940 1.232 . S
C940 O939 1.232 . S
C940 O941 1.218 . S
O941 C940 1.218 . S
C942 O935 1.275 . S
C942 O937 1.255 . S
C943 O944 1.258 . S
C943 O945 1.256 . S
O944 Cd936 2.381 . S
O944 C943 1.258 . S
O945 Cd936 2.378 . S
O945 C943 1.256 . S
O946 Cd947 2.300 . S
O946 C953 1.275 . S
Cd947 O946 2.300 . S
Cd947 O955 2.381 . S
Cd947 O956 2.378 . S
O948 Cd949 2.385 . S
O948 C953 1.255 . S
Cd949 O948 2.385 . S
Cd949 O950 2.317 . S
O950 Cd949 2.317 . S
O950 C951 1.232 . S
C951 O950 1.232 . S
C951 O952 1.218 . S
O952 C951 1.218 . S
C953 O946 1.275 . S
C953 O948 1.255 . S
C954 O955 1.258 . S
C954 O956 1.256 . S
O955 Cd947 2.381 . S
O955 C954 1.258 . S
O956 Cd947 2.378 . S
O956 C954 1.256 . S
O957 Cd958 2.300 . S
O957 C964 1.275 . S
Cd958 O957 2.300 . S
Cd958 O966 2.381 . S
Cd958 O967 2.378 . S
O959 Cd960 2.385 . S
O959 C964 1.255 . S
Cd960 O959 2.385 . S
Cd960 O961 2.317 . S
O961 Cd960 2.317 . S
O961 C962 1.232 . S
C962 O961 1.232 . S
C962 O963 1.218 . S
O963 C962 1.218 . S
C964 O957 1.275 . S
C964 O959 1.255 . S
C965 O966 1.258 . S
C965 O967 1.256 . S
O966 Cd958 2.381 . S
O966 C965 1.258 . S
O967 Cd958 2.378 . S
O967 C965 1.256 . S
O968 Cd969 2.300 . S
O968 C975 1.275 . S
Cd969 O968 2.300 . S
Cd969 O977 2.381 . S
Cd969 O978 2.378 . S
O970 Cd971 2.385 . S
O970 C975 1.255 . S
Cd971 O970 2.385 . S
Cd971 O972 2.317 . S
O972 Cd971 2.317 . S
O972 C973 1.232 . S
C973 O972 1.232 . S
C973 O974 1.218 . S
O974 C973 1.218 . S
C975 O968 1.275 . S
C975 O970 1.255 . S
C976 O977 1.258 . S
C976 O978 1.256 . S
O977 Cd969 2.381 . S
O977 C976 1.258 . S
O978 Cd969 2.378 . S
O978 C976 1.256 . S
O979 Cd980 2.300 . S
O979 C986 1.275 . S
Cd980 O979 2.300 . S
Cd980 O988 2.381 . S
Cd980 O989 2.378 . S
O981 Cd982 2.385 . S
O981 C986 1.255 . S
Cd982 O981 2.385 . S
Cd982 O983 2.317 . S
O983 Cd982 2.317 . S
O983 C984 1.232 . S
C984 O983 1.232 . S
C984 O985 1.218 . S
O985 C984 1.218 . S
C986 O979 1.275 . S
C986 O981 1.255 . S
C987 O988 1.258 . S
C987 O989 1.256 . S
O988 Cd980 2.381 . S
O988 C987 1.258 . S
O989 Cd980 2.378 . S
O989 C987 1.256 . S
O990 Cd991 2.300 . S
O990 C997 1.275 . S
Cd991 O990 2.300 . S
Cd991 O999 2.381 . S
Cd991 O1000 2.378 . S
O992 Cd993 2.385 . S
O992 C997 1.255 . S
Cd993 O992 2.385 . S
Cd993 O994 2.317 . S
O994 Cd993 2.317 . S
O994 C995 1.232 . S
C995 O994 1.232 . S
C995 O996 1.218 . S
O996 C995 1.218 . S
C997 O990 1.275 . S
C997 O992 1.255 . S
C998 O999 1.258 . S
C998 O1000 1.256 . S
O999 Cd991 2.381 . S
O999 C998 1.258 . S
O1000 Cd991 2.378 . S
O1000 C998 1.256 . S
O1001 Cd1002 2.300 . S
O1001 C1008 1.275 . S
Cd1002 O1001 2.300 . S
Cd1002 O1010 2.381 . S
Cd1002 O1011 2.378 . S
O1003 Cd1004 2.385 . S
O1003 C1008 1.255 . S
Cd1004 O1003 2.385 . S
Cd1004 O1005 2.317 . S
O1005 Cd1004 2.317 . S
O1005 C1006 1.232 . S
C1006 O1005 1.232 . S
C1006 O1007 1.218 . S
O1007 C1006 1.218 . S
C1008 O1001 1.275 . S
C1008 O1003 1.255 . S
C1009 O1010 1.258 . S
C1009 O1011 1.256 . S
O1010 Cd1002 2.381 . S
O1010 C1009 1.258 . S
O1011 Cd1002 2.378 . S
O1011 C1009 1.256 . S
O1012 Cd1013 2.300 . S
O1012 C1019 1.275 . S
Cd1013 O1012 2.300 . S
Cd1013 O1021 2.381 . S
Cd1013 O1022 2.378 . S
O1014 Cd1015 2.385 . S
O1014 C1019 1.255 . S
Cd1015 O1014 2.385 . S
Cd1015 O1016 2.317 . S
O1016 Cd1015 2.317 . S
O1016 C1017 1.232 . S
C1017 O1016 1.232 . S
C1017 O1018 1.218 . S
O1018 C1017 1.218 . S
C1019 O1012 1.275 . S
C1019 O1014 1.255 . S
C1020 O1021 1.258 . S
C1020 O1022 1.256 . S
O1021 Cd1013 2.381 . S
O1021 C1020 1.258 . S
O1022 Cd1013 2.378 . S
O1022 C1020 1.256 . S
O1023 Cd1024 2.300 . S
O1023 C1030 1.275 . S
Cd1024 O1023 2.300 . S
Cd1024 O1032 2.381 . S
Cd1024 O1033 2.378 . S
O1025 Cd1026 2.385 . S
O1025 C1030 1.255 . S
Cd1026 O1025 2.385 . S
Cd1026 O1027 2.317 . S
O1027 Cd1026 2.317 . S
O1027 C1028 1.232 . S
C1028 O1027 1.232 . S
C1028 O1029 1.218 . S
O1029 C1028 1.218 . S
C1030 O1023 1.275 . S
C1030 O1025 1.255 . S
C1031 O1032 1.258 . S
C1031 O1033 1.256 . S
O1032 Cd1024 2.381 . S
O1032 C1031 1.258 . S
O1033 Cd1024 2.378 . S
O1033 C1031 1.256 . S
O1034 Cd1035 2.300 . S
O1034 C1041 1.275 . S
Cd1035 O1034 2.300 . S
Cd1035 O1043 2.381 . S
Cd1035 O1044 2.378 . S
O1036 Cd1037 2.385 . S
O1036 C1041 1.255 . S
Cd1037 O1036 2.385 . S
Cd1037 O1038 2.317 . S
O1038 Cd1037 2.317 . S
O1038 C1039 1.232 . S
C1039 O1038 1.232 . S
C1039 O1040 1.218 . S
O1040 C1039 1.218 . S
C1041 O1034 1.275 . S
C1041 O1036 1.255 . S
C1042 O1043 1.258 . S
C1042 O1044 1.256 . S
O1043 Cd1035 2.381 . S
O1043 C1042 1.258 . S
O1044 Cd1035 2.378 . S
O1044 C1042 1.256 . S
O1045 Cd1046 2.300 . S
O1045 C1052 1.275 . S
Cd1046 O1045 2.300 . S
Cd1046 O1054 2.381 . S
Cd1046 O1055 2.378 . S
O1047 Cd1048 2.385 . S
O1047 C1052 1.255 . S
Cd1048 O1047 2.385 . S
Cd1048 O1049 2.317 . S
O1049 Cd1048 2.317 . S
O1049 C1050 1.232 . S
C1050 O1049 1.232 . S
C1050 O1051 1.218 . S
O1051 C1050 1.218 . S
C1052 O1045 1.275 . S
C1052 O1047 1.255 . S
C1053 O1054 1.258 . S
C1053 O1055 1.256 . S
O1054 Cd1046 2.381 . S
O1054 C1053 1.258 . S
O1055 Cd1046 2.378 . S
O1055 C1053 1.256 . S
C1056 C1057 1.264 . S
C1056 C1061 1.479 . S
C1056 C1066 1.465 . S
C1057 C1056 1.264 . S
C1057 C1059 1.339 . S
C1057 H1084 0.931 . S
C1058 C1059 1.395 . S
C1058 C1060 1.320 . S
C1059 C1057 1.339 . S
C1059 C1058 1.395 . S
C1059 H1085 0.929 . S
C1060 C1058 1.320 . S
C1060 C1061 1.405 . S
C1060 H1086 0.930 . S
C1061 C1056 1.479 . S
C1061 C1060 1.405 . S
C1061 H1087 0.931 . S
U1062 O1063 2.454 . S
U1062 O1064 2.458 . S
U1062 C1065 2.984 . S
U1062 C1066 2.847 . S
U1062 C1079 2.882 . S
U1062 O1080 2.441 . S
U1062 O1081 2.420 . S
U1062 O1082 2.455 . S
U1062 O1083 2.449 . S
O1063 U1062 2.454 . S
O1063 C1065 1.353 . S
O1064 U1062 2.458 . S
O1064 C1065 1.286 . S
C1065 U1062 2.984 . S
C1065 O1063 1.353 . S
C1065 O1064 1.286 . S
C1065 C1067 1.363 . S
C1066 C1056 1.465 . S
C1066 U1062 2.847 . S
C1066 O1080 1.249 . S
C1066 O1081 1.202 . S
C1067 C1065 1.363 . S
C1067 C1069 1.408 . S
C1067 C1072 1.342 . S
C1068 C1069 1.310 . S
C1068 C1071 1.461 . S
C1068 H1088 0.932 . S
C1069 C1067 1.408 . S
C1069 C1068 1.310 . S
C1069 H1089 0.930 . S
C1070 C1071 1.474 . S
C1070 C1072 1.285 . S
C1070 H1090 0.929 . S
C1071 C1068 1.461 . S
C1071 C1070 1.474 . S
C1072 C1067 1.342 . S
C1072 C1070 1.285 . S
C1072 H1091 0.930 . S
C1073 C1076 1.424 . S
C1073 C1078 1.245 . S
C1073 C1079 1.428 . S
C1074 C1077 1.260 . S
C1074 C1078 1.477 . S
C1074 H1092 0.932 . S
C1075 C1076 1.384 . S
C1075 C1077 1.479 . S
C1075 H1093 0.929 . S
C1076 C1073 1.424 . S
C1076 C1075 1.384 . S
C1076 H1094 0.928 . S
C1077 C1074 1.260 . S
C1077 C1075 1.479 . S
C1078 C1073 1.245 . S
C1078 C1074 1.477 . S
C1078 H1095 0.932 . S
C1079 U1062 2.882 . S
C1079 C1073 1.428 . S
C1079 O1082 1.301 . S
C1079 O1083 1.282 . S
O1080 U1062 2.441 . S
O1080 C1066 1.249 . S
O1081 U1062 2.420 . S
O1081 C1066 1.202 . S
O1082 U1062 2.455 . S
O1082 C1079 1.301 . S
O1083 U1062 2.449 . S
O1083 C1079 1.282 . S
H1084 C1057 0.931 . S
H1085 C1059 0.929 . S
H1086 C1060 0.930 . S
H1087 C1061 0.931 . S
H1088 C1068 0.932 . S
H1089 C1069 0.930 . S
H1090 C1070 0.929 . S
H1091 C1072 0.930 . S
H1092 C1074 0.932 . S
H1093 C1075 0.929 . S
H1094 C1076 0.928 . S
H1095 C1078 0.932 . S
C1096 C1097 1.264 . S
C1096 C1101 1.479 . S
C1096 C1106 1.465 . S
C1097 C1096 1.264 . S
C1097 C1099 1.339 . S
C1097 H1124 0.931 . S
C1098 C1099 1.395 . S
C1098 C1100 1.320 . S
C1099 C1097 1.339 . S
C1099 C1098 1.395 . S
C1099 H1125 0.929 . S
C1100 C1098 1.320 . S
C1100 C1101 1.405 . S
C1100 H1126 0.930 . S
C1101 C1096 1.479 . S
C1101 C1100 1.405 . S
C1101 H1127 0.931 . S
U1102 O1103 2.454 . S
U1102 O1104 2.458 . S
U1102 C1105 2.984 . S
U1102 C1106 2.847 . S
U1102 C1119 2.882 . S
U1102 O1120 2.441 . S
U1102 O1121 2.420 . S
U1102 O1122 2.455 . S
U1102 O1123 2.449 . S
O1103 U1102 2.454 . S
O1103 C1105 1.353 . S
O1104 U1102 2.458 . S
O1104 C1105 1.286 . S
C1105 U1102 2.984 . S
C1105 O1103 1.353 . S
C1105 O1104 1.286 . S
C1105 C1107 1.363 . S
C1106 C1096 1.465 . S
C1106 U1102 2.847 . S
C1106 O1120 1.249 . S
C1106 O1121 1.202 . S
C1107 C1105 1.363 . S
C1107 C1109 1.408 . S
C1107 C1112 1.342 . S
C1108 C1109 1.300 1_655 S
C1108 C1111 1.464 . S
C1108 H1128 0.939 . S
C1109 C1107 1.408 . S
C1109 C1108 1.300 1_455 S
C1109 H1129 0.930 . S
C1110 C1111 1.474 1_455 S
C1110 C1112 1.285 . S
C1110 H1130 0.929 . S
C1111 C1108 1.464 . S
C1111 C1110 1.474 1_655 S
C1112 C1107 1.342 . S
C1112 C1110 1.285 . S
C1112 H1131 0.930 . S
C1113 C1116 1.424 . S
C1113 C1118 1.245 . S
C1113 C1119 1.428 . S
C1114 C1117 1.260 . S
C1114 C1118 1.477 . S
C1114 H1132 0.932 . S
C1115 C1116 1.384 . S
C1115 C1117 1.479 . S
C1115 H1133 0.929 . S
C1116 C1113 1.424 . S
C1116 C1115 1.384 . S
C1116 H1134 0.928 . S
C1117 C1114 1.260 . S
C1117 C1115 1.479 . S
C1118 C1113 1.245 . S
C1118 C1114 1.477 . S
C1118 H1135 0.932 . S
C1119 U1102 2.882 . S
C1119 C1113 1.428 . S
C1119 O1122 1.301 . S
C1119 O1123 1.282 . S
O1120 U1102 2.441 . S
O1120 C1106 1.249 . S
O1121 U1102 2.420 . S
O1121 C1106 1.202 . S
O1122 U1102 2.455 . S
O1122 C1119 1.301 . S
O1123 U1102 2.449 . S
O1123 C1119 1.282 . S
H1124 C1097 0.931 . S
H1125 C1099 0.929 . S
H1126 C1100 0.930 . S
H1127 C1101 0.931 . S
H1128 C1108 0.939 . S
H1129 C1109 0.930 . S
H1130 C1110 0.929 . S
H1131 C1112 0.930 . S
H1132 C1114 0.932 . S
H1133 C1115 0.929 . S
H1134 C1116 0.928 . S
H1135 C1118 0.932 . S
C1136 C1137 1.264 . S
C1136 C1141 1.479 . S
C1136 C1146 1.465 . S
C1137 C1136 1.264 . S
C1137 C1139 1.339 . S
C1137 H1164 0.931 . S
C1138 C1139 1.395 . S
C1138 C1140 1.320 . S
C1139 C1137 1.339 . S
C1139 C1138 1.395 . S
C1139 H1165 0.929 . S
C1140 C1138 1.320 . S
C1140 C1141 1.405 . S
C1140 H1166 0.930 . S
C1141 C1136 1.479 . S
C1141 C1140 1.405 . S
C1141 H1167 0.931 . S
U1142 O1143 2.454 . S
U1142 O1144 2.458 . S
U1142 C1145 2.984 . S
U1142 C1146 2.847 . S
U1142 C1159 2.882 . S
U1142 O1160 2.441 . S
U1142 O1161 2.420 . S
U1142 O1162 2.455 . S
U1142 O1163 2.449 . S
O1143 U1142 2.454 . S
O1143 C1145 1.353 . S
O1144 U1142 2.458 . S
O1144 C1145 1.286 . S
C1145 U1142 2.984 . S
C1145 O1143 1.353 . S
C1145 O1144 1.286 . S
C1145 C1147 1.363 . S
C1146 C1136 1.465 . S
C1146 U1142 2.847 . S
C1146 O1160 1.249 . S
C1146 O1161 1.202 . S
C1147 C1145 1.363 . S
C1147 C1149 1.408 . S
C1147 C1152 1.342 . S
C1148 C1149 1.310 . S
C1148 C1151 1.461 . S
C1148 H1168 0.932 . S
C1149 C1147 1.408 . S
C1149 C1148 1.310 . S
C1149 H1169 0.930 . S
C1150 C1151 1.474 . S
C1150 C1152 1.285 . S
C1150 H1170 0.929 . S
C1151 C1148 1.461 . S
C1151 C1150 1.474 . S
C1152 C1147 1.342 . S
C1152 C1150 1.285 . S
C1152 H1171 0.930 . S
C1153 C1156 1.424 . S
C1153 C1158 1.245 . S
C1153 C1159 1.428 . S
C1154 C1157 1.260 . S
C1154 C1158 1.477 . S
C1154 H1172 0.932 . S
C1155 C1156 1.384 . S
C1155 C1157 1.479 . S
C1155 H1173 0.929 . S
C1156 C1153 1.424 . S
C1156 C1155 1.384 . S
C1156 H1174 0.928 . S
C1157 C1154 1.260 . S
C1157 C1155 1.479 . S
C1158 C1153 1.245 . S
C1158 C1154 1.477 . S
C1158 H1175 0.932 . S
C1159 U1142 2.882 . S
C1159 C1153 1.428 . S
C1159 O1162 1.301 . S
C1159 O1163 1.282 . S
O1160 U1142 2.441 . S
O1160 C1146 1.249 . S
O1161 U1142 2.420 . S
O1161 C1146 1.202 . S
O1162 U1142 2.455 . S
O1162 C1159 1.301 . S
O1163 U1142 2.449 . S
O1163 C1159 1.282 . S
H1164 C1137 0.931 . S
H1165 C1139 0.929 . S
H1166 C1140 0.930 . S
H1167 C1141 0.931 . S
H1168 C1148 0.932 . S
H1169 C1149 0.930 . S
H1170 C1150 0.929 . S
H1171 C1152 0.930 . S
H1172 C1154 0.932 . S
H1173 C1155 0.929 . S
H1174 C1156 0.928 . S
H1175 C1158 0.932 . S
C1176 C1177 1.264 . S
C1176 C1181 1.479 . S
C1176 C1186 1.465 . S
C1177 C1176 1.264 . S
C1177 C1179 1.339 . S
C1177 H1204 0.931 . S
C1178 C1179 1.395 . S
C1178 C1180 1.320 . S
C1179 C1177 1.339 . S
C1179 C1178 1.395 . S
C1179 H1205 0.929 . S
C1180 C1178 1.320 . S
C1180 C1181 1.405 . S
C1180 H1206 0.930 . S
C1181 C1176 1.479 . S
C1181 C1180 1.405 . S
C1181 H1207 0.931 . S
U1182 O1183 2.454 . S
U1182 O1184 2.458 . S
U1182 C1185 2.984 . S
U1182 C1186 2.847 . S
U1182 C1199 2.882 . S
U1182 O1200 2.441 . S
U1182 O1201 2.420 . S
U1182 O1202 2.455 . S
U1182 O1203 2.449 . S
O1183 U1182 2.454 . S
O1183 C1185 1.353 . S
O1184 U1182 2.458 . S
O1184 C1185 1.286 . S
C1185 U1182 2.984 . S
C1185 O1183 1.353 . S
C1185 O1184 1.286 . S
C1185 C1187 1.363 . S
C1186 C1176 1.465 . S
C1186 U1182 2.847 . S
C1186 O1200 1.249 . S
C1186 O1201 1.202 . S
C1187 C1185 1.363 . S
C1187 C1189 1.408 . S
C1187 C1192 1.342 . S
C1188 C1189 1.310 . S
C1188 C1191 1.461 . S
C1188 H1208 0.932 . S
C1189 C1187 1.408 . S
C1189 C1188 1.310 . S
C1189 H1209 0.930 . S
C1190 C1191 1.474 . S
C1190 C1192 1.285 . S
C1190 H1210 0.929 . S
C1191 C1188 1.461 . S
C1191 C1190 1.474 . S
C1192 C1187 1.342 . S
C1192 C1190 1.285 . S
C1192 H1211 0.930 . S
C1193 C1196 1.424 . S
C1193 C1198 1.245 . S
C1193 C1199 1.428 . S
C1194 C1197 1.260 . S
C1194 C1198 1.477 . S
C1194 H1212 0.932 . S
C1195 C1196 1.384 . S
C1195 C1197 1.479 . S
C1195 H1213 0.929 . S
C1196 C1193 1.424 . S
C1196 C1195 1.384 . S
C1196 H1214 0.928 . S
C1197 C1194 1.260 . S
C1197 C1195 1.479 . S
C1198 C1193 1.245 . S
C1198 C1194 1.477 . S
C1198 H1215 0.932 . S
C1199 U1182 2.882 . S
C1199 C1193 1.428 . S
C1199 O1202 1.301 . S
C1199 O1203 1.282 . S
O1200 U1182 2.441 . S
O1200 C1186 1.249 . S
O1201 U1182 2.420 . S
O1201 C1186 1.202 . S
O1202 U1182 2.455 . S
O1202 C1199 1.301 . S
O1203 U1182 2.449 . S
O1203 C1199 1.282 . S
H1204 C1177 0.931 . S
H1205 C1179 0.929 . S
H1206 C1180 0.930 . S
H1207 C1181 0.931 . S
H1208 C1188 0.932 . S
H1209 C1189 0.930 . S
H1210 C1190 0.929 . S
H1211 C1192 0.930 . S
H1212 C1194 0.932 . S
H1213 C1195 0.929 . S
H1214 C1196 0.928 . S
H1215 C1198 0.932 . S
C1216 C1217 1.264 . S
C1216 C1221 1.479 . S
C1216 C1226 1.465 . S
C1217 C1216 1.264 . S
C1217 C1219 1.339 . S
C1217 H1244 0.931 . S
C1218 C1219 1.395 . S
C1218 C1220 1.320 . S
C1219 C1217 1.339 . S
C1219 C1218 1.395 . S
C1219 H1245 0.929 . S
C1220 C1218 1.320 . S
C1220 C1221 1.405 . S
C1220 H1246 0.930 . S
C1221 C1216 1.479 . S
C1221 C1220 1.405 . S
C1221 H1247 0.931 . S
U1222 O1223 2.454 . S
U1222 O1224 2.458 . S
U1222 C1225 2.984 . S
U1222 C1226 2.847 . S
U1222 C1239 2.882 . S
U1222 O1240 2.441 . S
U1222 O1241 2.420 . S
U1222 O1242 2.455 . S
U1222 O1243 2.449 . S
O1223 U1222 2.454 . S
O1223 C1225 1.353 . S
O1224 U1222 2.458 . S
O1224 C1225 1.286 . S
C1225 U1222 2.984 . S
C1225 O1223 1.353 . S
C1225 O1224 1.286 . S
C1225 C1227 1.363 . S
C1226 C1216 1.465 . S
C1226 U1222 2.847 . S
C1226 O1240 1.249 . S
C1226 O1241 1.202 . S
C1227 C1225 1.363 . S
C1227 C1229 1.408 . S
C1227 C1232 1.342 . S
C1228 C1229 1.310 . S
C1228 C1231 1.461 . S
C1228 H1248 0.932 . S
C1229 C1227 1.408 . S
C1229 C1228 1.310 . S
C1229 H1249 0.930 . S
C1230 C1231 1.474 . S
C1230 C1232 1.285 . S
C1230 H1250 0.929 . S
C1231 C1228 1.461 . S
C1231 C1230 1.474 . S
C1232 C1227 1.342 . S
C1232 C1230 1.285 . S
C1232 H1251 0.930 . S
C1233 C1236 1.424 . S
C1233 C1238 1.245 . S
C1233 C1239 1.428 . S
C1234 C1237 1.260 . S
C1234 C1238 1.477 . S
C1234 H1252 0.932 . S
C1235 C1236 1.384 . S
C1235 C1237 1.479 . S
C1235 H1253 0.929 . S
C1236 C1233 1.424 . S
C1236 C1235 1.384 . S
C1236 H1254 0.928 . S
C1237 C1234 1.260 . S
C1237 C1235 1.479 . S
C1238 C1233 1.245 . S
C1238 C1234 1.477 . S
C1238 H1255 0.932 . S
C1239 U1222 2.882 . S
C1239 C1233 1.428 . S
C1239 O1242 1.301 . S
C1239 O1243 1.282 . S
O1240 U1222 2.441 . S
O1240 C1226 1.249 . S
O1241 U1222 2.420 . S
O1241 C1226 1.202 . S
O1242 U1222 2.455 . S
O1242 C1239 1.301 . S
O1243 U1222 2.449 . S
O1243 C1239 1.282 . S
H1244 C1217 0.931 . S
H1245 C1219 0.929 . S
H1246 C1220 0.930 . S
H1247 C1221 0.931 . S
H1248 C1228 0.932 . S
H1249 C1229 0.930 . S
H1250 C1230 0.929 . S
H1251 C1232 0.930 . S
H1252 C1234 0.932 . S
H1253 C1235 0.929 . S
H1254 C1236 0.928 . S
H1255 C1238 0.932 . S
C1256 C1257 1.264 . S
C1256 C1261 1.479 . S
C1256 C1266 1.465 . S
C1257 C1256 1.264 . S
C1257 C1259 1.339 . S
C1257 H1284 0.931 . S
C1258 C1259 1.395 . S
C1258 C1260 1.320 . S
C1259 C1257 1.339 . S
C1259 C1258 1.395 . S
C1259 H1285 0.929 . S
C1260 C1258 1.320 . S
C1260 C1261 1.405 . S
C1260 H1286 0.930 . S
C1261 C1256 1.479 . S
C1261 C1260 1.405 . S
C1261 H1287 0.931 . S
U1262 O1263 2.454 . S
U1262 O1264 2.458 . S
U1262 C1265 2.984 . S
U1262 C1266 2.847 . S
U1262 C1279 2.882 . S
U1262 O1280 2.441 . S
U1262 O1281 2.420 . S
U1262 O1282 2.455 . S
U1262 O1283 2.449 . S
O1263 U1262 2.454 . S
O1263 C1265 1.353 . S
O1264 U1262 2.458 . S
O1264 C1265 1.286 . S
C1265 U1262 2.984 . S
C1265 O1263 1.353 . S
C1265 O1264 1.286 . S
C1265 C1267 1.363 . S
C1266 C1256 1.465 . S
C1266 U1262 2.847 . S
C1266 O1280 1.249 . S
C1266 O1281 1.202 . S
C1267 C1265 1.363 . S
C1267 C1269 1.408 . S
C1267 C1272 1.342 . S
C1268 C1269 1.310 . S
C1268 C1271 1.461 . S
C1268 H1288 0.932 . S
C1269 C1267 1.408 . S
C1269 C1268 1.310 . S
C1269 H1289 0.930 . S
C1270 C1271 1.474 . S
C1270 C1272 1.285 . S
C1270 H1290 0.929 . S
C1271 C1268 1.461 . S
C1271 C1270 1.474 . S
C1272 C1267 1.342 . S
C1272 C1270 1.285 . S
C1272 H1291 0.930 . S
C1273 C1276 1.424 . S
C1273 C1278 1.245 . S
C1273 C1279 1.428 . S
C1274 C1277 1.260 . S
C1274 C1278 1.477 . S
C1274 H1292 0.932 . S
C1275 C1276 1.384 . S
C1275 C1277 1.479 . S
C1275 H1293 0.929 . S
C1276 C1273 1.424 . S
C1276 C1275 1.384 . S
C1276 H1294 0.928 . S
C1277 C1274 1.260 . S
C1277 C1275 1.479 . S
C1278 C1273 1.245 . S
C1278 C1274 1.477 . S
C1278 H1295 0.932 . S
C1279 U1262 2.882 . S
C1279 C1273 1.428 . S
C1279 O1282 1.301 . S
C1279 O1283 1.282 . S
O1280 U1262 2.441 . S
O1280 C1266 1.249 . S
O1281 U1262 2.420 . S
O1281 C1266 1.202 . S
O1282 U1262 2.455 . S
O1282 C1279 1.301 . S
O1283 U1262 2.449 . S
O1283 C1279 1.282 . S
H1284 C1257 0.931 . S
H1285 C1259 0.929 . S
H1286 C1260 0.930 . S
H1287 C1261 0.931 . S
H1288 C1268 0.932 . S
H1289 C1269 0.930 . S
H1290 C1270 0.929 . S
H1291 C1272 0.930 . S
H1292 C1274 0.932 . S
H1293 C1275 0.929 . S
H1294 C1276 0.928 . S
H1295 C1278 0.932 . S
C1296 C1297 1.264 . S
C1296 C1301 1.479 . S
C1296 C1306 1.465 . S
C1297 C1296 1.264 . S
C1297 C1299 1.339 . S
C1297 H1324 0.931 . S
C1298 C1299 1.395 . S
C1298 C1300 1.320 . S
C1299 C1297 1.339 . S
C1299 C1298 1.395 . S
C1299 H1325 0.929 . S
C1300 C1298 1.320 . S
C1300 C1301 1.405 . S
C1300 H1326 0.930 . S
C1301 C1296 1.479 . S
C1301 C1300 1.405 . S
C1301 H1327 0.931 . S
U1302 O1303 2.454 . S
U1302 O1304 2.458 . S
U1302 C1305 2.984 . S
U1302 C1306 2.847 . S
U1302 C1319 2.882 . S
U1302 O1320 2.441 . S
U1302 O1321 2.420 . S
U1302 O1322 2.455 . S
U1302 O1323 2.449 . S
O1303 U1302 2.454 . S
O1303 C1305 1.353 . S
O1304 U1302 2.458 . S
O1304 C1305 1.286 . S
C1305 U1302 2.984 . S
C1305 O1303 1.353 . S
C1305 O1304 1.286 . S
C1305 C1307 1.363 . S
C1306 C1296 1.465 . S
C1306 U1302 2.847 . S
C1306 O1320 1.249 . S
C1306 O1321 1.202 . S
C1307 C1305 1.363 . S
C1307 C1309 1.408 . S
C1307 C1312 1.342 . S
C1308 C1309 1.310 . S
C1308 C1311 1.461 . S
C1308 H1328 0.932 . S
C1309 C1307 1.408 . S
C1309 C1308 1.310 . S
C1309 H1329 0.930 . S
C1310 C1311 1.474 . S
C1310 C1312 1.285 . S
C1310 H1330 0.929 . S
C1311 C1308 1.461 . S
C1311 C1310 1.474 . S
C1312 C1307 1.342 . S
C1312 C1310 1.285 . S
C1312 H1331 0.930 . S
C1313 C1316 1.424 . S
C1313 C1318 1.245 . S
C1313 C1319 1.428 . S
C1314 C1317 1.260 . S
C1314 C1318 1.477 . S
C1314 H1332 0.932 . S
C1315 C1316 1.384 . S
C1315 C1317 1.479 . S
C1315 H1333 0.929 . S
C1316 C1313 1.424 . S
C1316 C1315 1.384 . S
C1316 H1334 0.928 . S
C1317 C1314 1.260 . S
C1317 C1315 1.479 . S
C1318 C1313 1.245 . S
C1318 C1314 1.477 . S
C1318 H1335 0.932 . S
C1319 U1302 2.882 . S
C1319 C1313 1.428 . S
C1319 O1322 1.301 . S
C1319 O1323 1.282 . S
O1320 U1302 2.441 . S
O1320 C1306 1.249 . S
O1321 U1302 2.420 . S
O1321 C1306 1.202 . S
O1322 U1302 2.455 . S
O1322 C1319 1.301 . S
O1323 U1302 2.449 . S
O1323 C1319 1.282 . S
H1324 C1297 0.931 . S
H1325 C1299 0.929 . S
H1326 C1300 0.930 . S
H1327 C1301 0.931 . S
H1328 C1308 0.932 . S
H1329 C1309 0.930 . S
H1330 C1310 0.929 . S
H1331 C1312 0.930 . S
H1332 C1314 0.932 . S
H1333 C1315 0.929 . S
H1334 C1316 0.928 . S
H1335 C1318 0.932 . S
C1336 C1337 1.264 . S
C1336 C1341 1.479 . S
C1336 C1346 1.465 . S
C1337 C1336 1.264 . S
C1337 C1339 1.339 . S
C1337 H1364 0.931 . S
C1338 C1339 1.395 . S
C1338 C1340 1.320 . S
C1339 C1337 1.339 . S
C1339 C1338 1.395 . S
C1339 H1365 0.929 . S
C1340 C1338 1.320 . S
C1340 C1341 1.405 . S
C1340 H1366 0.930 . S
C1341 C1336 1.479 . S
C1341 C1340 1.405 . S
C1341 H1367 0.931 . S
U1342 O1343 2.454 . S
U1342 O1344 2.458 . S
U1342 C1345 2.984 . S
U1342 C1346 2.847 . S
U1342 C1359 2.882 . S
U1342 O1360 2.441 . S
U1342 O1361 2.420 . S
U1342 O1362 2.455 . S
U1342 O1363 2.449 . S
O1343 U1342 2.454 . S
O1343 C1345 1.353 . S
O1344 U1342 2.458 . S
O1344 C1345 1.286 . S
C1345 U1342 2.984 . S
C1345 O1343 1.353 . S
C1345 O1344 1.286 . S
C1345 C1347 1.363 . S
C1346 C1336 1.465 . S
C1346 U1342 2.847 . S
C1346 O1360 1.249 . S
C1346 O1361 1.202 . S
C1347 C1345 1.363 . S
C1347 C1349 1.408 . S
C1347 C1352 1.342 . S
C1348 C1349 1.298 1_655 S
C1348 C1351 1.465 . S
C1348 H1368 0.940 . S
C1349 C1347 1.408 . S
C1349 C1348 1.298 1_455 S
C1349 H1369 0.930 . S
C1350 C1351 1.474 1_455 S
C1350 C1352 1.285 . S
C1350 H1370 0.929 . S
C1351 C1348 1.465 . S
C1351 C1350 1.474 1_655 S
C1352 C1347 1.342 . S
C1352 C1350 1.285 . S
C1352 H1371 0.930 . S
C1353 C1356 1.424 . S
C1353 C1358 1.245 . S
C1353 C1359 1.428 . S
C1354 C1357 1.260 . S
C1354 C1358 1.477 . S
C1354 H1372 0.932 . S
C1355 C1356 1.384 . S
C1355 C1357 1.479 . S
C1355 H1373 0.929 . S
C1356 C1353 1.424 . S
C1356 C1355 1.384 . S
C1356 H1374 0.928 . S
C1357 C1354 1.260 . S
C1357 C1355 1.479 . S
C1358 C1353 1.245 . S
C1358 C1354 1.477 . S
C1358 H1375 0.932 . S
C1359 U1342 2.882 . S
C1359 C1353 1.428 . S
C1359 O1362 1.301 . S
C1359 O1363 1.282 . S
O1360 U1342 2.441 . S
O1360 C1346 1.249 . S
O1361 U1342 2.420 . S
O1361 C1346 1.202 . S
O1362 U1342 2.455 . S
O1362 C1359 1.301 . S
O1363 U1342 2.449 . S
O1363 C1359 1.282 . S
H1364 C1337 0.931 . S
H1365 C1339 0.929 . S
H1366 C1340 0.930 . S
H1367 C1341 0.931 . S
H1368 C1348 0.940 . S
H1369 C1349 0.930 . S
H1370 C1350 0.929 . S
H1371 C1352 0.930 . S
H1372 C1354 0.932 . S
H1373 C1355 0.929 . S
H1374 C1356 0.928 . S
H1375 C1358 0.932 . S
C1376 C1377 1.264 . S
C1376 C1381 1.479 . S
C1376 C1386 1.465 . S
C1377 C1376 1.264 . S
C1377 C1379 1.339 . S
C1377 H1404 0.931 . S
C1378 C1379 1.395 . S
C1378 C1380 1.320 . S
C1379 C1377 1.339 . S
C1379 C1378 1.395 . S
C1379 H1405 0.929 . S
C1380 C1378 1.320 . S
C1380 C1381 1.405 . S
C1380 H1406 0.930 . S
C1381 C1376 1.479 . S
C1381 C1380 1.405 . S
C1381 H1407 0.931 . S
U1382 O1383 2.454 . S
U1382 O1384 2.458 . S
U1382 C1385 2.984 . S
U1382 C1386 2.847 . S
U1382 C1399 2.882 . S
U1382 O1400 2.441 . S
U1382 O1401 2.420 . S
U1382 O1402 2.455 . S
U1382 O1403 2.449 . S
O1383 U1382 2.454 . S
O1383 C1385 1.353 . S
O1384 U1382 2.458 . S
O1384 C1385 1.286 . S
C1385 U1382 2.984 . S
C1385 O1383 1.353 . S
C1385 O1384 1.286 . S
C1385 C1387 1.363 . S
C1386 C1376 1.465 . S
C1386 U1382 2.847 . S
C1386 O1400 1.249 . S
C1386 O1401 1.202 . S
C1387 C1385 1.363 . S
C1387 C1389 1.408 . S
C1387 C1392 1.342 . S
C1388 C1389 1.310 . S
C1388 C1391 1.461 . S
C1388 H1408 0.932 . S
C1389 C1387 1.408 . S
C1389 C1388 1.310 . S
C1389 H1409 0.930 . S
C1390 C1391 1.474 . S
C1390 C1392 1.285 . S
C1390 H1410 0.929 . S
C1391 C1388 1.461 . S
C1391 C1390 1.474 . S
C1392 C1387 1.342 . S
C1392 C1390 1.285 . S
C1392 H1411 0.930 . S
C1393 C1396 1.424 . S
C1393 C1398 1.245 . S
C1393 C1399 1.428 . S
C1394 C1397 1.260 . S
C1394 C1398 1.477 . S
C1394 H1412 0.932 . S
C1395 C1396 1.384 . S
C1395 C1397 1.479 . S
C1395 H1413 0.929 . S
C1396 C1393 1.424 . S
C1396 C1395 1.384 . S
C1396 H1414 0.928 . S
C1397 C1394 1.260 . S
C1397 C1395 1.479 . S
C1398 C1393 1.245 . S
C1398 C1394 1.477 . S
C1398 H1415 0.932 . S
C1399 U1382 2.882 . S
C1399 C1393 1.428 . S
C1399 O1402 1.301 . S
C1399 O1403 1.282 . S
O1400 U1382 2.441 . S
O1400 C1386 1.249 . S
O1401 U1382 2.420 . S
O1401 C1386 1.202 . S
O1402 U1382 2.455 . S
O1402 C1399 1.301 . S
O1403 U1382 2.449 . S
O1403 C1399 1.282 . S
H1404 C1377 0.931 . S
H1405 C1379 0.929 . S
H1406 C1380 0.930 . S
H1407 C1381 0.931 . S
H1408 C1388 0.932 . S
H1409 C1389 0.930 . S
H1410 C1390 0.929 . S
H1411 C1392 0.930 . S
H1412 C1394 0.932 . S
H1413 C1395 0.929 . S
H1414 C1396 0.928 . S
H1415 C1398 0.932 . S
C1416 C1417 1.264 . S
C1416 C1421 1.479 . S
C1416 C1426 1.465 . S
C1417 C1416 1.264 . S
C1417 C1419 1.339 . S
C1417 H1444 0.931 . S
C1418 C1419 1.395 . S
C1418 C1420 1.320 . S
C1419 C1417 1.339 . S
C1419 C1418 1.395 . S
C1419 H1445 0.929 . S
C1420 C1418 1.320 . S
C1420 C1421 1.405 . S
C1420 H1446 0.930 . S
C1421 C1416 1.479 . S
C1421 C1420 1.405 . S
C1421 H1447 0.931 . S
U1422 O1423 2.454 . S
U1422 O1424 2.458 . S
U1422 C1425 2.984 . S
U1422 C1426 2.847 . S
U1422 C1439 2.882 . S
U1422 O1440 2.441 . S
U1422 O1441 2.420 . S
U1422 O1442 2.455 . S
U1422 O1443 2.449 . S
O1423 U1422 2.454 . S
O1423 C1425 1.353 . S
O1424 U1422 2.458 . S
O1424 C1425 1.286 . S
C1425 U1422 2.984 . S
C1425 O1423 1.353 . S
C1425 O1424 1.286 . S
C1425 C1427 1.363 . S
C1426 C1416 1.465 . S
C1426 U1422 2.847 . S
C1426 O1440 1.249 . S
C1426 O1441 1.202 . S
C1427 C1425 1.363 . S
C1427 C1429 1.408 . S
C1427 C1432 1.342 . S
C1428 C1429 1.310 . S
C1428 C1431 1.461 . S
C1428 H1448 0.932 . S
C1429 C1427 1.408 . S
C1429 C1428 1.310 . S
C1429 H1449 0.930 . S
C1430 C1431 1.474 . S
C1430 C1432 1.285 . S
C1430 H1450 0.929 . S
C1431 C1428 1.461 . S
C1431 C1430 1.474 . S
C1432 C1427 1.342 . S
C1432 C1430 1.285 . S
C1432 H1451 0.930 . S
C1433 C1436 1.424 . S
C1433 C1438 1.245 . S
C1433 C1439 1.428 . S
C1434 C1437 1.260 . S
C1434 C1438 1.477 . S
C1434 H1452 0.932 . S
C1435 C1436 1.384 . S
C1435 C1437 1.479 . S
C1435 H1453 0.929 . S
C1436 C1433 1.424 . S
C1436 C1435 1.384 . S
C1436 H1454 0.928 . S
C1437 C1434 1.260 . S
C1437 C1435 1.479 . S
C1438 C1433 1.245 . S
C1438 C1434 1.477 . S
C1438 H1455 0.932 . S
C1439 U1422 2.882 . S
C1439 C1433 1.428 . S
C1439 O1442 1.301 . S
C1439 O1443 1.282 . S
O1440 U1422 2.441 . S
O1440 C1426 1.249 . S
O1441 U1422 2.420 . S
O1441 C1426 1.202 . S
O1442 U1422 2.455 . S
O1442 C1439 1.301 . S
O1443 U1422 2.449 . S
O1443 C1439 1.282 . S
H1444 C1417 0.931 . S
H1445 C1419 0.929 . S
H1446 C1420 0.930 . S
H1447 C1421 0.931 . S
H1448 C1428 0.932 . S
H1449 C1429 0.930 . S
H1450 C1430 0.929 . S
H1451 C1432 0.930 . S
H1452 C1434 0.932 . S
H1453 C1435 0.929 . S
H1454 C1436 0.928 . S
H1455 C1438 0.932 . S
C1456 C1457 1.264 . S
C1456 C1461 1.479 . S
C1456 C1466 1.465 . S
C1457 C1456 1.264 . S
C1457 C1459 1.339 . S
C1457 H1484 0.931 . S
C1458 C1459 1.395 . S
C1458 C1460 1.320 . S
C1459 C1457 1.339 . S
C1459 C1458 1.395 . S
C1459 H1485 0.929 . S
C1460 C1458 1.320 . S
C1460 C1461 1.405 . S
C1460 H1486 0.930 . S
C1461 C1456 1.479 . S
C1461 C1460 1.405 . S
C1461 H1487 0.931 . S
U1462 O1463 2.454 . S
U1462 O1464 2.458 . S
U1462 C1465 2.984 . S
U1462 C1466 2.847 . S
U1462 C1479 2.882 . S
U1462 O1480 2.441 . S
U1462 O1481 2.420 . S
U1462 O1482 2.455 . S
U1462 O1483 2.449 . S
O1463 U1462 2.454 . S
O1463 C1465 1.353 . S
O1464 U1462 2.458 . S
O1464 C1465 1.286 . S
C1465 U1462 2.984 . S
C1465 O1463 1.353 . S
C1465 O1464 1.286 . S
C1465 C1467 1.363 . S
C1466 C1456 1.465 . S
C1466 U1462 2.847 . S
C1466 O1480 1.249 . S
C1466 O1481 1.202 . S
C1467 C1465 1.363 . S
C1467 C1469 1.408 . S
C1467 C1472 1.342 . S
C1468 C1469 1.310 . S
C1468 C1471 1.461 . S
C1468 H1488 0.932 . S
C1469 C1467 1.408 . S
C1469 C1468 1.310 . S
C1469 H1489 0.930 . S
C1470 C1471 1.474 . S
C1470 C1472 1.285 . S
C1470 H1490 0.929 . S
C1471 C1468 1.461 . S
C1471 C1470 1.474 . S
C1472 C1467 1.342 . S
C1472 C1470 1.285 . S
C1472 H1491 0.930 . S
C1473 C1476 1.424 . S
C1473 C1478 1.245 . S
C1473 C1479 1.428 . S
C1474 C1477 1.260 . S
C1474 C1478 1.477 . S
C1474 H1492 0.932 . S
C1475 C1476 1.384 . S
C1475 C1477 1.479 . S
C1475 H1493 0.929 . S
C1476 C1473 1.424 . S
C1476 C1475 1.384 . S
C1476 H1494 0.928 . S
C1477 C1474 1.260 . S
C1477 C1475 1.479 . S
C1478 C1473 1.245 . S
C1478 C1474 1.477 . S
C1478 H1495 0.932 . S
C1479 U1462 2.882 . S
C1479 C1473 1.428 . S
C1479 O1482 1.301 . S
C1479 O1483 1.282 . S
O1480 U1462 2.441 . S
O1480 C1466 1.249 . S
O1481 U1462 2.420 . S
O1481 C1466 1.202 . S
O1482 U1462 2.455 . S
O1482 C1479 1.301 . S
O1483 U1462 2.449 . S
O1483 C1479 1.282 . S
H1484 C1457 0.931 . S
H1485 C1459 0.929 . S
H1486 C1460 0.930 . S
H1487 C1461 0.931 . S
H1488 C1468 0.932 . S
H1489 C1469 0.930 . S
H1490 C1470 0.929 . S
H1491 C1472 0.930 . S
H1492 C1474 0.932 . S
H1493 C1475 0.929 . S
H1494 C1476 0.928 . S
H1495 C1478 0.932 . S
C1496 C1497 1.264 . S
C1496 C1501 1.479 . S
C1496 C1506 1.465 . S
C1497 C1496 1.264 . S
C1497 C1499 1.339 . S
C1497 H1524 0.931 . S
C1498 C1499 1.395 . S
C1498 C1500 1.320 . S
C1499 C1497 1.339 . S
C1499 C1498 1.395 . S
C1499 H1525 0.929 . S
C1500 C1498 1.320 . S
C1500 C1501 1.405 . S
C1500 H1526 0.930 . S
C1501 C1496 1.479 . S
C1501 C1500 1.405 . S
C1501 H1527 0.931 . S
U1502 O1503 2.454 . S
U1502 O1504 2.458 . S
U1502 C1505 2.984 . S
U1502 C1506 2.847 . S
U1502 C1519 2.882 . S
U1502 O1520 2.441 . S
U1502 O1521 2.420 . S
U1502 O1522 2.455 . S
U1502 O1523 2.449 . S
O1503 U1502 2.454 . S
O1503 C1505 1.353 . S
O1504 U1502 2.458 . S
O1504 C1505 1.286 . S
C1505 U1502 2.984 . S
C1505 O1503 1.353 . S
C1505 O1504 1.286 . S
C1505 C1507 1.363 . S
C1506 C1496 1.465 . S
C1506 U1502 2.847 . S
C1506 O1520 1.249 . S
C1506 O1521 1.202 . S
C1507 C1505 1.363 . S
C1507 C1509 1.408 . S
C1507 C1512 1.342 . S
C1508 C1509 1.299 1_554 S
C1508 C1511 1.465 . S
C1508 H1528 0.939 . S
C1509 C1507 1.408 . S
C1509 C1508 1.299 1_556 S
C1509 H1529 0.930 . S
C1510 C1511 1.474 1_556 S
C1510 C1512 1.285 . S
C1510 H1530 0.929 . S
C1511 C1508 1.465 . S
C1511 C1510 1.474 1_554 S
C1512 C1507 1.342 . S
C1512 C1510 1.285 . S
C1512 H1531 0.930 . S
C1513 C1516 1.424 . S
C1513 C1518 1.245 . S
C1513 C1519 1.428 . S
C1514 C1517 1.260 . S
C1514 C1518 1.477 . S
C1514 H1532 0.932 . S
C1515 C1516 1.384 . S
C1515 C1517 1.479 . S
C1515 H1533 0.929 . S
C1516 C1513 1.424 . S
C1516 C1515 1.384 . S
C1516 H1534 0.928 . S
C1517 C1514 1.260 . S
C1517 C1515 1.479 . S
C1518 C1513 1.245 . S
C1518 C1514 1.477 . S
C1518 H1535 0.932 . S
C1519 U1502 2.882 . S
C1519 C1513 1.428 . S
C1519 O1522 1.301 . S
C1519 O1523 1.282 . S
O1520 U1502 2.441 . S
O1520 C1506 1.249 . S
O1521 U1502 2.420 . S
O1521 C1506 1.202 . S
O1522 U1502 2.455 . S
O1522 C1519 1.301 . S
O1523 U1502 2.449 . S
O1523 C1519 1.282 . S
H1524 C1497 0.931 . S
H1525 C1499 0.929 . S
H1526 C1500 0.930 . S
H1527 C1501 0.931 . S
H1528 C1508 0.939 . S
H1529 C1509 0.930 . S
H1530 C1510 0.929 . S
H1531 C1512 0.930 . S
H1532 C1514 0.932 . S
H1533 C1515 0.929 . S
H1534 C1516 0.928 . S
H1535 C1518 0.932 . S
C1536 C1537 1.264 . S
C1536 C1541 1.479 . S
C1536 C1546 1.465 . S
C1537 C1536 1.264 . S
C1537 C1539 1.339 . S
C1537 H1564 0.931 . S
C1538 C1539 1.395 . S
C1538 C1540 1.320 . S
C1539 C1537 1.339 . S
C1539 C1538 1.395 . S
C1539 H1565 0.929 . S
C1540 C1538 1.320 . S
C1540 C1541 1.405 . S
C1540 H1566 0.930 . S
C1541 C1536 1.479 . S
C1541 C1540 1.405 . S
C1541 H1567 0.931 . S
U1542 O1543 2.454 . S
U1542 O1544 2.458 . S
U1542 C1545 2.984 . S
U1542 C1546 2.847 . S
U1542 C1559 2.882 . S
U1542 O1560 2.441 . S
U1542 O1561 2.420 . S
U1542 O1562 2.455 . S
U1542 O1563 2.449 . S
O1543 U1542 2.454 . S
O1543 C1545 1.353 . S
O1544 U1542 2.458 . S
O1544 C1545 1.286 . S
C1545 U1542 2.984 . S
C1545 O1543 1.353 . S
C1545 O1544 1.286 . S
C1545 C1547 1.363 . S
C1546 C1536 1.465 . S
C1546 U1542 2.847 . S
C1546 O1560 1.249 . S
C1546 O1561 1.202 . S
C1547 C1545 1.363 . S
C1547 C1549 1.408 . S
C1547 C1552 1.342 . S
C1548 C1549 1.310 . S
C1548 C1551 1.461 . S
C1548 H1568 0.932 . S
C1549 C1547 1.408 . S
C1549 C1548 1.310 . S
C1549 H1569 0.930 . S
C1550 C1551 1.474 . S
C1550 C1552 1.285 . S
C1550 H1570 0.929 . S
C1551 C1548 1.461 . S
C1551 C1550 1.474 . S
C1552 C1547 1.342 . S
C1552 C1550 1.285 . S
C1552 H1571 0.930 . S
C1553 C1556 1.424 . S
C1553 C1558 1.245 . S
C1553 C1559 1.428 . S
C1554 C1557 1.260 . S
C1554 C1558 1.477 . S
C1554 H1572 0.932 . S
C1555 C1556 1.384 . S
C1555 C1557 1.479 . S
C1555 H1573 0.929 . S
C1556 C1553 1.424 . S
C1556 C1555 1.384 . S
C1556 H1574 0.928 . S
C1557 C1554 1.260 . S
C1557 C1555 1.479 . S
C1558 C1553 1.245 . S
C1558 C1554 1.477 . S
C1558 H1575 0.932 . S
C1559 U1542 2.882 . S
C1559 C1553 1.428 . S
C1559 O1562 1.301 . S
C1559 O1563 1.282 . S
O1560 U1542 2.441 . S
O1560 C1546 1.249 . S
O1561 U1542 2.420 . S
O1561 C1546 1.202 . S
O1562 U1542 2.455 . S
O1562 C1559 1.301 . S
O1563 U1542 2.449 . S
O1563 C1559 1.282 . S
H1564 C1537 0.931 . S
H1565 C1539 0.929 . S
H1566 C1540 0.930 . S
H1567 C1541 0.931 . S
H1568 C1548 0.932 . S
H1569 C1549 0.930 . S
H1570 C1550 0.929 . S
H1571 C1552 0.930 . S
H1572 C1554 0.932 . S
H1573 C1555 0.929 . S
H1574 C1556 0.928 . S
H1575 C1558 0.932 . S
C1576 C1577 1.264 . S
C1576 C1581 1.479 . S
C1576 C1586 1.465 . S
C1577 C1576 1.264 . S
C1577 C1579 1.339 . S
C1577 H1604 0.931 . S
C1578 C1579 1.395 . S
C1578 C1580 1.320 . S
C1579 C1577 1.339 . S
C1579 C1578 1.395 . S
C1579 H1605 0.929 . S
C1580 C1578 1.320 . S
C1580 C1581 1.405 . S
C1580 H1606 0.930 . S
C1581 C1576 1.479 . S
C1581 C1580 1.405 . S
C1581 H1607 0.931 . S
U1582 O1583 2.454 . S
U1582 O1584 2.458 . S
U1582 C1585 2.984 . S
U1582 C1586 2.847 . S
U1582 C1599 2.882 . S
U1582 O1600 2.441 . S
U1582 O1601 2.420 . S
U1582 O1602 2.455 . S
U1582 O1603 2.449 . S
O1583 U1582 2.454 . S
O1583 C1585 1.353 . S
O1584 U1582 2.458 . S
O1584 C1585 1.286 . S
C1585 U1582 2.984 . S
C1585 O1583 1.353 . S
C1585 O1584 1.286 . S
C1585 C1587 1.363 . S
C1586 C1576 1.465 . S
C1586 U1582 2.847 . S
C1586 O1600 1.249 . S
C1586 O1601 1.202 . S
C1587 C1585 1.363 . S
C1587 C1589 1.408 . S
C1587 C1592 1.342 . S
C1588 C1589 1.310 . S
C1588 C1591 1.461 . S
C1588 H1608 0.932 . S
C1589 C1587 1.408 . S
C1589 C1588 1.310 . S
C1589 H1609 0.930 . S
C1590 C1591 1.474 . S
C1590 C1592 1.285 . S
C1590 H1610 0.929 . S
C1591 C1588 1.461 . S
C1591 C1590 1.474 . S
C1592 C1587 1.342 . S
C1592 C1590 1.285 . S
C1592 H1611 0.930 . S
C1593 C1596 1.424 . S
C1593 C1598 1.245 . S
C1593 C1599 1.428 . S
C1594 C1597 1.260 . S
C1594 C1598 1.477 . S
C1594 H1612 0.932 . S
C1595 C1596 1.384 . S
C1595 C1597 1.479 . S
C1595 H1613 0.929 . S
C1596 C1593 1.424 . S
C1596 C1595 1.384 . S
C1596 H1614 0.928 . S
C1597 C1594 1.260 . S
C1597 C1595 1.479 . S
C1598 C1593 1.245 . S
C1598 C1594 1.477 . S
C1598 H1615 0.932 . S
C1599 U1582 2.882 . S
C1599 C1593 1.428 . S
C1599 O1602 1.301 . S
C1599 O1603 1.282 . S
O1600 U1582 2.441 . S
O1600 C1586 1.249 . S
O1601 U1582 2.420 . S
O1601 C1586 1.202 . S
O1602 U1582 2.455 . S
O1602 C1599 1.301 . S
O1603 U1582 2.449 . S
O1603 C1599 1.282 . S
H1604 C1577 0.931 . S
H1605 C1579 0.929 . S
H1606 C1580 0.930 . S
H1607 C1581 0.931 . S
H1608 C1588 0.932 . S
H1609 C1589 0.930 . S
H1610 C1590 0.929 . S
H1611 C1592 0.930 . S
H1612 C1594 0.932 . S
H1613 C1595 0.929 . S
H1614 C1596 0.928 . S
H1615 C1598 0.932 . S
C1616 C1617 1.264 . S
C1616 C1621 1.479 . S
C1616 C1626 1.465 . S
C1617 C1616 1.264 . S
C1617 C1619 1.339 . S
C1617 H1644 0.931 . S
C1618 C1619 1.395 . S
C1618 C1620 1.320 . S
C1619 C1617 1.339 . S
C1619 C1618 1.395 . S
C1619 H1645 0.929 . S
C1620 C1618 1.320 . S
C1620 C1621 1.405 . S
C1620 H1646 0.930 . S
C1621 C1616 1.479 . S
C1621 C1620 1.405 . S
C1621 H1647 0.931 . S
U1622 O1623 2.454 . S
U1622 O1624 2.458 . S
U1622 C1625 2.984 . S
U1622 C1626 2.847 . S
U1622 C1639 2.882 . S
U1622 O1640 2.441 . S
U1622 O1641 2.420 . S
U1622 O1642 2.455 . S
U1622 O1643 2.449 . S
O1623 U1622 2.454 . S
O1623 C1625 1.353 . S
O1624 U1622 2.458 . S
O1624 C1625 1.286 . S
C1625 U1622 2.984 . S
C1625 O1623 1.353 . S
C1625 O1624 1.286 . S
C1625 C1627 1.363 . S
C1626 C1616 1.465 . S
C1626 U1622 2.847 . S
C1626 O1640 1.249 . S
C1626 O1641 1.202 . S
C1627 C1625 1.363 . S
C1627 C1629 1.408 . S
C1627 C1632 1.342 . S
C1628 C1629 1.310 . S
C1628 C1631 1.461 . S
C1628 H1648 0.932 . S
C1629 C1627 1.408 . S
C1629 C1628 1.310 . S
C1629 H1649 0.930 . S
C1630 C1631 1.474 . S
C1630 C1632 1.285 . S
C1630 H1650 0.929 . S
C1631 C1628 1.461 . S
C1631 C1630 1.474 . S
C1632 C1627 1.342 . S
C1632 C1630 1.285 . S
C1632 H1651 0.930 . S
C1633 C1636 1.424 . S
C1633 C1638 1.245 . S
C1633 C1639 1.428 . S
C1634 C1637 1.260 . S
C1634 C1638 1.477 . S
C1634 H1652 0.932 . S
C1635 C1636 1.384 . S
C1635 C1637 1.479 . S
C1635 H1653 0.929 . S
C1636 C1633 1.424 . S
C1636 C1635 1.384 . S
C1636 H1654 0.928 . S
C1637 C1634 1.260 . S
C1637 C1635 1.479 . S
C1638 C1633 1.245 . S
C1638 C1634 1.477 . S
C1638 H1655 0.932 . S
C1639 U1622 2.882 . S
C1639 C1633 1.428 . S
C1639 O1642 1.301 . S
C1639 O1643 1.282 . S
O1640 U1622 2.441 . S
O1640 C1626 1.249 . S
O1641 U1622 2.420 . S
O1641 C1626 1.202 . S
O1642 U1622 2.455 . S
O1642 C1639 1.301 . S
O1643 U1622 2.449 . S
O1643 C1639 1.282 . S
H1644 C1617 0.931 . S
H1645 C1619 0.929 . S
H1646 C1620 0.930 . S
H1647 C1621 0.931 . S
H1648 C1628 0.932 . S
H1649 C1629 0.930 . S
H1650 C1630 0.929 . S
H1651 C1632 0.930 . S
H1652 C1634 0.932 . S
H1653 C1635 0.929 . S
H1654 C1636 0.928 . S
H1655 C1638 0.932 . S
C1656 C1657 1.264 . S
C1656 C1661 1.479 . S
C1656 C1666 1.465 . S
C1657 C1656 1.264 . S
C1657 C1659 1.339 . S
C1657 H1684 0.931 . S
C1658 C1659 1.395 . S
C1658 C1660 1.320 . S
C1659 C1657 1.339 . S
C1659 C1658 1.395 . S
C1659 H1685 0.929 . S
C1660 C1658 1.320 . S
C1660 C1661 1.405 . S
C1660 H1686 0.930 . S
C1661 C1656 1.479 . S
C1661 C1660 1.405 . S
C1661 H1687 0.931 . S
U1662 O1663 2.454 . S
U1662 O1664 2.458 . S
U1662 C1665 2.984 . S
U1662 C1666 2.847 . S
U1662 C1679 2.882 . S
U1662 O1680 2.441 . S
U1662 O1681 2.420 . S
U1662 O1682 2.455 . S
U1662 O1683 2.449 . S
O1663 U1662 2.454 . S
O1663 C1665 1.353 . S
O1664 U1662 2.458 . S
O1664 C1665 1.286 . S
C1665 U1662 2.984 . S
C1665 O1663 1.353 . S
C1665 O1664 1.286 . S
C1665 C1667 1.363 . S
C1666 C1656 1.465 . S
C1666 U1662 2.847 . S
C1666 O1680 1.249 . S
C1666 O1681 1.202 . S
C1667 C1665 1.363 . S
C1667 C1669 1.408 . S
C1667 C1672 1.342 . S
C1668 C1669 1.299 1_556 S
C1668 C1671 1.465 . S
C1668 H1688 0.940 . S
C1669 C1667 1.408 . S
C1669 C1668 1.299 1_554 S
C1669 H1689 0.930 . S
C1670 C1671 1.474 1_554 S
C1670 C1672 1.285 . S
C1670 H1690 0.929 . S
C1671 C1668 1.465 . S
C1671 C1670 1.474 1_556 S
C1672 C1667 1.342 . S
C1672 C1670 1.285 . S
C1672 H1691 0.930 . S
C1673 C1676 1.424 . S
C1673 C1678 1.245 . S
C1673 C1679 1.428 . S
C1674 C1677 1.260 . S
C1674 C1678 1.477 . S
C1674 H1692 0.932 . S
C1675 C1676 1.384 . S
C1675 C1677 1.479 . S
C1675 H1693 0.929 . S
C1676 C1673 1.424 . S
C1676 C1675 1.384 . S
C1676 H1694 0.928 . S
C1677 C1674 1.260 . S
C1677 C1675 1.479 . S
C1678 C1673 1.245 . S
C1678 C1674 1.477 . S
C1678 H1695 0.932 . S
C1679 U1662 2.882 . S
C1679 C1673 1.428 . S
C1679 O1682 1.301 . S
C1679 O1683 1.282 . S
O1680 U1662 2.441 . S
O1680 C1666 1.249 . S
O1681 U1662 2.420 . S
O1681 C1666 1.202 . S
O1682 U1662 2.455 . S
O1682 C1679 1.301 . S
O1683 U1662 2.449 . S
O1683 C1679 1.282 . S
H1684 C1657 0.931 . S
H1685 C1659 0.929 . S
H1686 C1660 0.930 . S
H1687 C1661 0.931 . S
H1688 C1668 0.940 . S
H1689 C1669 0.930 . S
H1690 C1670 0.929 . S
H1691 C1672 0.930 . S
H1692 C1674 0.932 . S
H1693 C1675 0.929 . S
H1694 C1676 0.928 . S
H1695 C1678 0.932 . S
C1696 C1697 1.264 . S
C1696 C1701 1.479 . S
C1696 C1706 1.465 . S
C1697 C1696 1.264 . S
C1697 C1699 1.339 . S
C1697 H1724 0.931 . S
C1698 C1699 1.395 . S
C1698 C1700 1.320 . S
C1699 C1697 1.339 . S
C1699 C1698 1.395 . S
C1699 H1725 0.929 . S
C1700 C1698 1.320 . S
C1700 C1701 1.405 . S
C1700 H1726 0.930 . S
C1701 C1696 1.479 . S
C1701 C1700 1.405 . S
C1701 H1727 0.931 . S
U1702 O1703 2.454 . S
U1702 O1704 2.458 . S
U1702 C1705 2.984 . S
U1702 C1706 2.847 . S
U1702 C1719 2.882 . S
U1702 O1720 2.441 . S
U1702 O1721 2.420 . S
U1702 O1722 2.455 . S
U1702 O1723 2.449 . S
O1703 U1702 2.454 . S
O1703 C1705 1.353 . S
O1704 U1702 2.458 . S
O1704 C1705 1.286 . S
C1705 U1702 2.984 . S
C1705 O1703 1.353 . S
C1705 O1704 1.286 . S
C1705 C1707 1.363 . S
C1706 C1696 1.465 . S
C1706 U1702 2.847 . S
C1706 O1720 1.249 . S
C1706 O1721 1.202 . S
C1707 C1705 1.363 . S
C1707 C1709 1.408 . S
C1707 C1712 1.342 . S
C1708 C1709 1.310 . S
C1708 C1711 1.461 . S
C1708 H1728 0.932 . S
C1709 C1707 1.408 . S
C1709 C1708 1.310 . S
C1709 H1729 0.930 . S
C1710 C1711 1.474 . S
C1710 C1712 1.285 . S
C1710 H1730 0.929 . S
C1711 C1708 1.461 . S
C1711 C1710 1.474 . S
C1712 C1707 1.342 . S
C1712 C1710 1.285 . S
C1712 H1731 0.930 . S
C1713 C1716 1.424 . S
C1713 C1718 1.245 . S
C1713 C1719 1.428 . S
C1714 C1717 1.260 . S
C1714 C1718 1.477 . S
C1714 H1732 0.932 . S
C1715 C1716 1.384 . S
C1715 C1717 1.479 . S
C1715 H1733 0.929 . S
C1716 C1713 1.424 . S
C1716 C1715 1.384 . S
C1716 H1734 0.928 . S
C1717 C1714 1.260 . S
C1717 C1715 1.479 . S
C1718 C1713 1.245 . S
C1718 C1714 1.477 . S
C1718 H1735 0.932 . S
C1719 U1702 2.882 . S
C1719 C1713 1.428 . S
C1719 O1722 1.301 . S
C1719 O1723 1.282 . S
O1720 U1702 2.441 . S
O1720 C1706 1.249 . S
O1721 U1702 2.420 . S
O1721 C1706 1.202 . S
O1722 U1702 2.455 . S
O1722 C1719 1.301 . S
O1723 U1702 2.449 . S
O1723 C1719 1.282 . S
H1724 C1697 0.931 . S
H1725 C1699 0.929 . S
H1726 C1700 0.930 . S
H1727 C1701 0.931 . S
H1728 C1708 0.932 . S
H1729 C1709 0.930 . S
H1730 C1710 0.929 . S
H1731 C1712 0.930 . S
H1732 C1714 0.932 . S
H1733 C1715 0.929 . S
H1734 C1716 0.928 . S
H1735 C1718 0.932 . S
C1736 C1737 1.264 . S
C1736 C1741 1.479 . S
C1736 C1746 1.465 . S
C1737 C1736 1.264 . S
C1737 C1739 1.339 . S
C1737 H1764 0.931 . S
C1738 C1739 1.395 . S
C1738 C1740 1.320 . S
C1739 C1737 1.339 . S
C1739 C1738 1.395 . S
C1739 H1765 0.929 . S
C1740 C1738 1.320 . S
C1740 C1741 1.405 . S
C1740 H1766 0.930 . S
C1741 C1736 1.479 . S
C1741 C1740 1.405 . S
C1741 H1767 0.931 . S
U1742 O1743 2.454 . S
U1742 O1744 2.458 . S
U1742 C1745 2.984 . S
U1742 C1746 2.847 . S
U1742 C1759 2.882 . S
U1742 O1760 2.441 . S
U1742 O1761 2.420 . S
U1742 O1762 2.455 . S
U1742 O1763 2.449 . S
O1743 U1742 2.454 . S
O1743 C1745 1.353 . S
O1744 U1742 2.458 . S
O1744 C1745 1.286 . S
C1745 U1742 2.984 . S
C1745 O1743 1.353 . S
C1745 O1744 1.286 . S
C1745 C1747 1.363 . S
C1746 C1736 1.465 . S
C1746 U1742 2.847 . S
C1746 O1760 1.249 . S
C1746 O1761 1.202 . S
C1747 C1745 1.363 . S
C1747 C1749 1.408 . S
C1747 C1752 1.342 . S
C1748 C1749 1.310 . S
C1748 C1751 1.461 . S
C1748 H1768 0.932 . S
C1749 C1747 1.408 . S
C1749 C1748 1.310 . S
C1749 H1769 0.930 . S
C1750 C1751 1.474 . S
C1750 C1752 1.285 . S
C1750 H1770 0.929 . S
C1751 C1748 1.461 . S
C1751 C1750 1.474 . S
C1752 C1747 1.342 . S
C1752 C1750 1.285 . S
C1752 H1771 0.930 . S
C1753 C1756 1.424 . S
C1753 C1758 1.245 . S
C1753 C1759 1.428 . S
C1754 C1757 1.260 . S
C1754 C1758 1.477 . S
C1754 H1772 0.932 . S
C1755 C1756 1.384 . S
C1755 C1757 1.479 . S
C1755 H1773 0.929 . S
C1756 C1753 1.424 . S
C1756 C1755 1.384 . S
C1756 H1774 0.928 . S
C1757 C1754 1.260 . S
C1757 C1755 1.479 . S
C1758 C1753 1.245 . S
C1758 C1754 1.477 . S
C1758 H1775 0.932 . S
C1759 U1742 2.882 . S
C1759 C1753 1.428 . S
C1759 O1762 1.301 . S
C1759 O1763 1.282 . S
O1760 U1742 2.441 . S
O1760 C1746 1.249 . S
O1761 U1742 2.420 . S
O1761 C1746 1.202 . S
O1762 U1742 2.455 . S
O1762 C1759 1.301 . S
O1763 U1742 2.449 . S
O1763 C1759 1.282 . S
H1764 C1737 0.931 . S
H1765 C1739 0.929 . S
H1766 C1740 0.930 . S
H1767 C1741 0.931 . S
H1768 C1748 0.932 . S
H1769 C1749 0.930 . S
H1770 C1750 0.929 . S
H1771 C1752 0.930 . S
H1772 C1754 0.932 . S
H1773 C1755 0.929 . S
H1774 C1756 0.928 . S
H1775 C1758 0.932 . S
C1776 C1777 1.264 . S
C1776 C1781 1.479 . S
C1776 C1786 1.465 . S
C1777 C1776 1.264 . S
C1777 C1779 1.339 . S
C1777 H1804 0.931 . S
C1778 C1779 1.395 . S
C1778 C1780 1.320 . S
C1779 C1777 1.339 . S
C1779 C1778 1.395 . S
C1779 H1805 0.929 . S
C1780 C1778 1.320 . S
C1780 C1781 1.405 . S
C1780 H1806 0.930 . S
C1781 C1776 1.479 . S
C1781 C1780 1.405 . S
C1781 H1807 0.931 . S
U1782 O1783 2.454 . S
U1782 O1784 2.458 . S
U1782 C1785 2.984 . S
U1782 C1786 2.847 . S
U1782 C1799 2.882 . S
U1782 O1800 2.441 . S
U1782 O1801 2.420 . S
U1782 O1802 2.455 . S
U1782 O1803 2.449 . S
O1783 U1782 2.454 . S
O1783 C1785 1.353 . S
O1784 U1782 2.458 . S
O1784 C1785 1.286 . S
C1785 U1782 2.984 . S
C1785 O1783 1.353 . S
C1785 O1784 1.286 . S
C1785 C1787 1.363 . S
C1786 C1776 1.465 . S
C1786 U1782 2.847 . S
C1786 O1800 1.249 . S
C1786 O1801 1.202 . S
C1787 C1785 1.363 . S
C1787 C1789 1.408 . S
C1787 C1792 1.342 . S
C1788 C1789 1.310 . S
C1788 C1791 1.461 . S
C1788 H1808 0.932 . S
C1789 C1787 1.408 . S
C1789 C1788 1.310 . S
C1789 H1809 0.930 . S
C1790 C1791 1.474 . S
C1790 C1792 1.285 . S
C1790 H1810 0.929 . S
C1791 C1788 1.461 . S
C1791 C1790 1.474 . S
C1792 C1787 1.342 . S
C1792 C1790 1.285 . S
C1792 H1811 0.930 . S
C1793 C1796 1.424 . S
C1793 C1798 1.245 . S
C1793 C1799 1.428 . S
C1794 C1797 1.260 . S
C1794 C1798 1.477 . S
C1794 H1812 0.932 . S
C1795 C1796 1.384 . S
C1795 C1797 1.479 . S
C1795 H1813 0.929 . S
C1796 C1793 1.424 . S
C1796 C1795 1.384 . S
C1796 H1814 0.928 . S
C1797 C1794 1.260 . S
C1797 C1795 1.479 . S
C1798 C1793 1.245 . S
C1798 C1794 1.477 . S
C1798 H1815 0.932 . S
C1799 U1782 2.882 . S
C1799 C1793 1.428 . S
C1799 O1802 1.301 . S
C1799 O1803 1.282 . S
O1800 U1782 2.441 . S
O1800 C1786 1.249 . S
O1801 U1782 2.420 . S
O1801 C1786 1.202 . S
O1802 U1782 2.455 . S
O1802 C1799 1.301 . S
O1803 U1782 2.449 . S
O1803 C1799 1.282 . S
H1804 C1777 0.931 . S
H1805 C1779 0.929 . S
H1806 C1780 0.930 . S
H1807 C1781 0.931 . S
H1808 C1788 0.932 . S
H1809 C1789 0.930 . S
H1810 C1790 0.929 . S
H1811 C1792 0.930 . S
H1812 C1794 0.932 . S
H1813 C1795 0.929 . S
H1814 C1796 0.928 . S
H1815 C1798 0.932 . S
C1816 C1817 1.264 . S
C1816 C1821 1.479 . S
C1816 C1826 1.465 . S
C1817 C1816 1.264 . S
C1817 C1819 1.339 . S
C1817 H1844 0.931 . S
C1818 C1819 1.395 . S
C1818 C1820 1.320 . S
C1819 C1817 1.339 . S
C1819 C1818 1.395 . S
C1819 H1845 0.929 . S
C1820 C1818 1.320 . S
C1820 C1821 1.405 . S
C1820 H1846 0.930 . S
C1821 C1816 1.479 . S
C1821 C1820 1.405 . S
C1821 H1847 0.931 . S
U1822 O1823 2.454 . S
U1822 O1824 2.458 . S
U1822 C1825 2.984 . S
U1822 C1826 2.847 . S
U1822 C1839 2.882 . S
U1822 O1840 2.441 . S
U1822 O1841 2.420 . S
U1822 O1842 2.455 . S
U1822 O1843 2.449 . S
O1823 U1822 2.454 . S
O1823 C1825 1.353 . S
O1824 U1822 2.458 . S
O1824 C1825 1.286 . S
C1825 U1822 2.984 . S
C1825 O1823 1.353 . S
C1825 O1824 1.286 . S
C1825 C1827 1.363 . S
C1826 C1816 1.465 . S
C1826 U1822 2.847 . S
C1826 O1840 1.249 . S
C1826 O1841 1.202 . S
C1827 C1825 1.363 . S
C1827 C1829 1.408 . S
C1827 C1832 1.342 . S
C1828 C1829 1.310 . S
C1828 C1831 1.461 . S
C1828 H1848 0.932 . S
C1829 C1827 1.408 . S
C1829 C1828 1.310 . S
C1829 H1849 0.930 . S
C1830 C1831 1.474 . S
C1830 C1832 1.285 . S
C1830 H1850 0.929 . S
C1831 C1828 1.461 . S
C1831 C1830 1.474 . S
C1832 C1827 1.342 . S
C1832 C1830 1.285 . S
C1832 H1851 0.930 . S
C1833 C1836 1.424 . S
C1833 C1838 1.245 . S
C1833 C1839 1.428 . S
C1834 C1837 1.260 . S
C1834 C1838 1.477 . S
C1834 H1852 0.932 . S
C1835 C1836 1.384 . S
C1835 C1837 1.479 . S
C1835 H1853 0.929 . S
C1836 C1833 1.424 . S
C1836 C1835 1.384 . S
C1836 H1854 0.928 . S
C1837 C1834 1.260 . S
C1837 C1835 1.479 . S
C1838 C1833 1.245 . S
C1838 C1834 1.477 . S
C1838 H1855 0.932 . S
C1839 U1822 2.882 . S
C1839 C1833 1.428 . S
C1839 O1842 1.301 . S
C1839 O1843 1.282 . S
O1840 U1822 2.441 . S
O1840 C1826 1.249 . S
O1841 U1822 2.420 . S
O1841 C1826 1.202 . S
O1842 U1822 2.455 . S
O1842 C1839 1.301 . S
O1843 U1822 2.449 . S
O1843 C1839 1.282 . S
H1844 C1817 0.931 . S
H1845 C1819 0.929 . S
H1846 C1820 0.930 . S
H1847 C1821 0.931 . S
H1848 C1828 0.932 . S
H1849 C1829 0.930 . S
H1850 C1830 0.929 . S
H1851 C1832 0.930 . S
H1852 C1834 0.932 . S
H1853 C1835 0.929 . S
H1854 C1836 0.928 . S
H1855 C1838 0.932 . S
C1856 C1857 1.264 . S
C1856 C1861 1.479 . S
C1856 C1866 1.465 . S
C1857 C1856 1.264 . S
C1857 C1859 1.339 . S
C1857 H1884 0.931 . S
C1858 C1859 1.395 . S
C1858 C1860 1.320 . S
C1859 C1857 1.339 . S
C1859 C1858 1.395 . S
C1859 H1885 0.929 . S
C1860 C1858 1.320 . S
C1860 C1861 1.405 . S
C1860 H1886 0.930 . S
C1861 C1856 1.479 . S
C1861 C1860 1.405 . S
C1861 H1887 0.931 . S
U1862 O1863 2.454 . S
U1862 O1864 2.458 . S
U1862 C1865 2.984 . S
U1862 C1866 2.847 . S
U1862 C1879 2.882 . S
U1862 O1880 2.441 . S
U1862 O1881 2.420 . S
U1862 O1882 2.455 . S
U1862 O1883 2.449 . S
O1863 U1862 2.454 . S
O1863 C1865 1.353 . S
O1864 U1862 2.458 . S
O1864 C1865 1.286 . S
C1865 U1862 2.984 . S
C1865 O1863 1.353 . S
C1865 O1864 1.286 . S
C1865 C1867 1.363 . S
C1866 C1856 1.465 . S
C1866 U1862 2.847 . S
C1866 O1880 1.249 . S
C1866 O1881 1.202 . S
C1867 C1865 1.363 . S
C1867 C1869 1.408 . S
C1867 C1872 1.342 . S
C1868 C1869 1.298 1_565 S
C1868 C1871 1.465 . S
C1868 H1888 0.940 . S
C1869 C1867 1.408 . S
C1869 C1868 1.298 1_545 S
C1869 H1889 0.930 . S
C1870 C1871 1.474 1_545 S
C1870 C1872 1.285 . S
C1870 H1890 0.929 . S
C1871 C1868 1.465 . S
C1871 C1870 1.474 1_565 S
C1872 C1867 1.342 . S
C1872 C1870 1.285 . S
C1872 H1891 0.930 . S
C1873 C1876 1.424 . S
C1873 C1878 1.245 . S
C1873 C1879 1.428 . S
C1874 C1877 1.260 . S
C1874 C1878 1.477 . S
C1874 H1892 0.932 . S
C1875 C1876 1.384 . S
C1875 C1877 1.479 . S
C1875 H1893 0.929 . S
C1876 C1873 1.424 . S
C1876 C1875 1.384 . S
C1876 H1894 0.928 . S
C1877 C1874 1.260 . S
C1877 C1875 1.479 . S
C1878 C1873 1.245 . S
C1878 C1874 1.477 . S
C1878 H1895 0.932 . S
C1879 U1862 2.882 . S
C1879 C1873 1.428 . S
C1879 O1882 1.301 . S
C1879 O1883 1.282 . S
O1880 U1862 2.441 . S
O1880 C1866 1.249 . S
O1881 U1862 2.420 . S
O1881 C1866 1.202 . S
O1882 U1862 2.455 . S
O1882 C1879 1.301 . S
O1883 U1862 2.449 . S
O1883 C1879 1.282 . S
H1884 C1857 0.931 . S
H1885 C1859 0.929 . S
H1886 C1860 0.930 . S
H1887 C1861 0.931 . S
H1888 C1868 0.940 . S
H1889 C1869 0.930 . S
H1890 C1870 0.929 . S
H1891 C1872 0.930 . S
H1892 C1874 0.932 . S
H1893 C1875 0.929 . S
H1894 C1876 0.928 . S
H1895 C1878 0.932 . S
C1896 C1897 1.264 . S
C1896 C1901 1.479 . S
C1896 C1906 1.465 . S
C1897 C1896 1.264 . S
C1897 C1899 1.339 . S
C1897 H1924 0.931 . S
C1898 C1899 1.395 . S
C1898 C1900 1.320 . S
C1899 C1897 1.339 . S
C1899 C1898 1.395 . S
C1899 H1925 0.929 . S
C1900 C1898 1.320 . S
C1900 C1901 1.405 . S
C1900 H1926 0.930 . S
C1901 C1896 1.479 . S
C1901 C1900 1.405 . S
C1901 H1927 0.931 . S
U1902 O1903 2.454 . S
U1902 O1904 2.458 . S
U1902 C1905 2.984 . S
U1902 C1906 2.847 . S
U1902 C1919 2.882 . S
U1902 O1920 2.441 . S
U1902 O1921 2.420 . S
U1902 O1922 2.455 . S
U1902 O1923 2.449 . S
O1903 U1902 2.454 . S
O1903 C1905 1.353 . S
O1904 U1902 2.458 . S
O1904 C1905 1.286 . S
C1905 U1902 2.984 . S
C1905 O1903 1.353 . S
C1905 O1904 1.286 . S
C1905 C1907 1.363 . S
C1906 C1896 1.465 . S
C1906 U1902 2.847 . S
C1906 O1920 1.249 . S
C1906 O1921 1.202 . S
C1907 C1905 1.363 . S
C1907 C1909 1.408 . S
C1907 C1912 1.342 . S
C1908 C1909 1.310 . S
C1908 C1911 1.461 . S
C1908 H1928 0.932 . S
C1909 C1907 1.408 . S
C1909 C1908 1.310 . S
C1909 H1929 0.930 . S
C1910 C1911 1.474 . S
C1910 C1912 1.285 . S
C1910 H1930 0.929 . S
C1911 C1908 1.461 . S
C1911 C1910 1.474 . S
C1912 C1907 1.342 . S
C1912 C1910 1.285 . S
C1912 H1931 0.930 . S
C1913 C1916 1.424 . S
C1913 C1918 1.245 . S
C1913 C1919 1.428 . S
C1914 C1917 1.260 . S
C1914 C1918 1.477 . S
C1914 H1932 0.932 . S
C1915 C1916 1.384 . S
C1915 C1917 1.479 . S
C1915 H1933 0.929 . S
C1916 C1913 1.424 . S
C1916 C1915 1.384 . S
C1916 H1934 0.928 . S
C1917 C1914 1.260 . S
C1917 C1915 1.479 . S
C1918 C1913 1.245 . S
C1918 C1914 1.477 . S
C1918 H1935 0.932 . S
C1919 U1902 2.882 . S
C1919 C1913 1.428 . S
C1919 O1922 1.301 . S
C1919 O1923 1.282 . S
O1920 U1902 2.441 . S
O1920 C1906 1.249 . S
O1921 U1902 2.420 . S
O1921 C1906 1.202 . S
O1922 U1902 2.455 . S
O1922 C1919 1.301 . S
O1923 U1902 2.449 . S
O1923 C1919 1.282 . S
H1924 C1897 0.931 . S
H1925 C1899 0.929 . S
H1926 C1900 0.930 . S
H1927 C1901 0.931 . S
H1928 C1908 0.932 . S
H1929 C1909 0.930 . S
H1930 C1910 0.929 . S
H1931 C1912 0.930 . S
H1932 C1914 0.932 . S
H1933 C1915 0.929 . S
H1934 C1916 0.928 . S
H1935 C1918 0.932 . S
C1936 C1937 1.264 . S
C1936 C1941 1.479 . S
C1936 C1946 1.465 . S
C1937 C1936 1.264 . S
C1937 C1939 1.339 . S
C1937 H1964 0.931 . S
C1938 C1939 1.395 . S
C1938 C1940 1.320 . S
C1939 C1937 1.339 . S
C1939 C1938 1.395 . S
C1939 H1965 0.929 . S
C1940 C1938 1.320 . S
C1940 C1941 1.405 . S
C1940 H1966 0.930 . S
C1941 C1936 1.479 . S
C1941 C1940 1.405 . S
C1941 H1967 0.931 . S
U1942 O1943 2.454 . S
U1942 O1944 2.458 . S
U1942 C1945 2.984 . S
U1942 C1946 2.847 . S
U1942 C1959 2.882 . S
U1942 O1960 2.441 . S
U1942 O1961 2.420 . S
U1942 O1962 2.455 . S
U1942 O1963 2.449 . S
O1943 U1942 2.454 . S
O1943 C1945 1.353 . S
O1944 U1942 2.458 . S
O1944 C1945 1.286 . S
C1945 U1942 2.984 . S
C1945 O1943 1.353 . S
C1945 O1944 1.286 . S
C1945 C1947 1.363 . S
C1946 C1936 1.465 . S
C1946 U1942 2.847 . S
C1946 O1960 1.249 . S
C1946 O1961 1.202 . S
C1947 C1945 1.363 . S
C1947 C1949 1.408 . S
C1947 C1952 1.342 . S
C1948 C1949 1.310 . S
C1948 C1951 1.461 . S
C1948 H1968 0.932 . S
C1949 C1947 1.408 . S
C1949 C1948 1.310 . S
C1949 H1969 0.930 . S
C1950 C1951 1.474 . S
C1950 C1952 1.285 . S
C1950 H1970 0.929 . S
C1951 C1948 1.461 . S
C1951 C1950 1.474 . S
C1952 C1947 1.342 . S
C1952 C1950 1.285 . S
C1952 H1971 0.930 . S
C1953 C1956 1.424 . S
C1953 C1958 1.245 . S
C1953 C1959 1.428 . S
C1954 C1957 1.260 . S
C1954 C1958 1.477 . S
C1954 H1972 0.932 . S
C1955 C1956 1.384 . S
C1955 C1957 1.479 . S
C1955 H1973 0.929 . S
C1956 C1953 1.424 . S
C1956 C1955 1.384 . S
C1956 H1974 0.928 . S
C1957 C1954 1.260 . S
C1957 C1955 1.479 . S
C1958 C1953 1.245 . S
C1958 C1954 1.477 . S
C1958 H1975 0.932 . S
C1959 U1942 2.882 . S
C1959 C1953 1.428 . S
C1959 O1962 1.301 . S
C1959 O1963 1.282 . S
O1960 U1942 2.441 . S
O1960 C1946 1.249 . S
O1961 U1942 2.420 . S
O1961 C1946 1.202 . S
O1962 U1942 2.455 . S
O1962 C1959 1.301 . S
O1963 U1942 2.449 . S
O1963 C1959 1.282 . S
H1964 C1937 0.931 . S
H1965 C1939 0.929 . S
H1966 C1940 0.930 . S
H1967 C1941 0.931 . S
H1968 C1948 0.932 . S
H1969 C1949 0.930 . S
H1970 C1950 0.929 . S
H1971 C1952 0.930 . S
H1972 C1954 0.932 . S
H1973 C1955 0.929 . S
H1974 C1956 0.928 . S
H1975 C1958 0.932 . S
C1976 C1977 1.264 . S
C1976 C1981 1.479 . S
C1976 C1986 1.465 . S
C1977 C1976 1.264 . S
C1977 C1979 1.339 . S
C1977 H2004 0.931 . S
C1978 C1979 1.395 . S
C1978 C1980 1.320 . S
C1979 C1977 1.339 . S
C1979 C1978 1.395 . S
C1979 H2005 0.929 . S
C1980 C1978 1.320 . S
C1980 C1981 1.405 . S
C1980 H2006 0.930 . S
C1981 C1976 1.479 . S
C1981 C1980 1.405 . S
C1981 H2007 0.931 . S
U1982 O1983 2.454 . S
U1982 O1984 2.458 . S
U1982 C1985 2.984 . S
U1982 C1986 2.847 . S
U1982 C1999 2.882 . S
U1982 O2000 2.441 . S
U1982 O2001 2.420 . S
U1982 O2002 2.455 . S
U1982 O2003 2.449 . S
O1983 U1982 2.454 . S
O1983 C1985 1.353 . S
O1984 U1982 2.458 . S
O1984 C1985 1.286 . S
C1985 U1982 2.984 . S
C1985 O1983 1.353 . S
C1985 O1984 1.286 . S
C1985 C1987 1.363 . S
C1986 C1976 1.465 . S
C1986 U1982 2.847 . S
C1986 O2000 1.249 . S
C1986 O2001 1.202 . S
C1987 C1985 1.363 . S
C1987 C1989 1.408 . S
C1987 C1992 1.342 . S
C1988 C1989 1.310 . S
C1988 C1991 1.461 . S
C1988 H2008 0.932 . S
C1989 C1987 1.408 . S
C1989 C1988 1.310 . S
C1989 H2009 0.930 . S
C1990 C1991 1.474 . S
C1990 C1992 1.285 . S
C1990 H2010 0.929 . S
C1991 C1988 1.461 . S
C1991 C1990 1.474 . S
C1992 C1987 1.342 . S
C1992 C1990 1.285 . S
C1992 H2011 0.930 . S
C1993 C1996 1.424 . S
C1993 C1998 1.245 . S
C1993 C1999 1.428 . S
C1994 C1997 1.260 . S
C1994 C1998 1.477 . S
C1994 H2012 0.932 . S
C1995 C1996 1.384 . S
C1995 C1997 1.479 . S
C1995 H2013 0.929 . S
C1996 C1993 1.424 . S
C1996 C1995 1.384 . S
C1996 H2014 0.928 . S
C1997 C1994 1.260 . S
C1997 C1995 1.479 . S
C1998 C1993 1.245 . S
C1998 C1994 1.477 . S
C1998 H2015 0.932 . S
C1999 U1982 2.882 . S
C1999 C1993 1.428 . S
C1999 O2002 1.301 . S
C1999 O2003 1.282 . S
O2000 U1982 2.441 . S
O2000 C1986 1.249 . S
O2001 U1982 2.420 . S
O2001 C1986 1.202 . S
O2002 U1982 2.455 . S
O2002 C1999 1.301 . S
O2003 U1982 2.449 . S
O2003 C1999 1.282 . S
H2004 C1977 0.931 . S
H2005 C1979 0.929 . S
H2006 C1980 0.930 . S
H2007 C1981 0.931 . S
H2008 C1988 0.932 . S
H2009 C1989 0.930 . S
H2010 C1990 0.929 . S
H2011 C1992 0.930 . S
H2012 C1994 0.932 . S
H2013 C1995 0.929 . S
H2014 C1996 0.928 . S
H2015 C1998 0.932 . S
C2016 C2017 1.264 . S
C2016 C2021 1.479 . S
C2016 C2026 1.465 . S
C2017 C2016 1.264 . S
C2017 C2019 1.339 . S
C2017 H2044 0.931 . S
C2018 C2019 1.395 . S
C2018 C2020 1.320 . S
C2019 C2017 1.339 . S
C2019 C2018 1.395 . S
C2019 H2045 0.929 . S
C2020 C2018 1.320 . S
C2020 C2021 1.405 . S
C2020 H2046 0.930 . S
C2021 C2016 1.479 . S
C2021 C2020 1.405 . S
C2021 H2047 0.931 . S
U2022 O2023 2.454 . S
U2022 O2024 2.458 . S
U2022 C2025 2.984 . S
U2022 C2026 2.847 . S
U2022 C2039 2.882 . S
U2022 O2040 2.441 . S
U2022 O2041 2.420 . S
U2022 O2042 2.455 . S
U2022 O2043 2.449 . S
O2023 U2022 2.454 . S
O2023 C2025 1.353 . S
O2024 U2022 2.458 . S
O2024 C2025 1.286 . S
C2025 U2022 2.984 . S
C2025 O2023 1.353 . S
C2025 O2024 1.286 . S
C2025 C2027 1.363 . S
C2026 C2016 1.465 . S
C2026 U2022 2.847 . S
C2026 O2040 1.249 . S
C2026 O2041 1.202 . S
C2027 C2025 1.363 . S
C2027 C2029 1.408 . S
C2027 C2032 1.342 . S
C2028 C2029 1.310 . S
C2028 C2031 1.461 . S
C2028 H2048 0.932 . S
C2029 C2027 1.408 . S
C2029 C2028 1.310 . S
C2029 H2049 0.930 . S
C2030 C2031 1.474 . S
C2030 C2032 1.285 . S
C2030 H2050 0.929 . S
C2031 C2028 1.461 . S
C2031 C2030 1.474 . S
C2032 C2027 1.342 . S
C2032 C2030 1.285 . S
C2032 H2051 0.930 . S
C2033 C2036 1.424 . S
C2033 C2038 1.245 . S
C2033 C2039 1.428 . S
C2034 C2037 1.260 . S
C2034 C2038 1.477 . S
C2034 H2052 0.932 . S
C2035 C2036 1.384 . S
C2035 C2037 1.479 . S
C2035 H2053 0.929 . S
C2036 C2033 1.424 . S
C2036 C2035 1.384 . S
C2036 H2054 0.928 . S
C2037 C2034 1.260 . S
C2037 C2035 1.479 . S
C2038 C2033 1.245 . S
C2038 C2034 1.477 . S
C2038 H2055 0.932 . S
C2039 U2022 2.882 . S
C2039 C2033 1.428 . S
C2039 O2042 1.301 . S
C2039 O2043 1.282 . S
O2040 U2022 2.441 . S
O2040 C2026 1.249 . S
O2041 U2022 2.420 . S
O2041 C2026 1.202 . S
O2042 U2022 2.455 . S
O2042 C2039 1.301 . S
O2043 U2022 2.449 . S
O2043 C2039 1.282 . S
H2044 C2017 0.931 . S
H2045 C2019 0.929 . S
H2046 C2020 0.930 . S
H2047 C2021 0.931 . S
H2048 C2028 0.932 . S
H2049 C2029 0.930 . S
H2050 C2030 0.929 . S
H2051 C2032 0.930 . S
H2052 C2034 0.932 . S
H2053 C2035 0.929 . S
H2054 C2036 0.928 . S
H2055 C2038 0.932 . S
C2056 C2057 1.264 . S
C2056 C2061 1.479 . S
C2056 C2066 1.465 . S
C2057 C2056 1.264 . S
C2057 C2059 1.339 . S
C2057 H2084 0.931 . S
C2058 C2059 1.395 . S
C2058 C2060 1.320 . S
C2059 C2057 1.339 . S
C2059 C2058 1.395 . S
C2059 H2085 0.929 . S
C2060 C2058 1.320 . S
C2060 C2061 1.405 . S
C2060 H2086 0.930 . S
C2061 C2056 1.479 . S
C2061 C2060 1.405 . S
C2061 H2087 0.931 . S
U2062 O2063 2.454 . S
U2062 O2064 2.458 . S
U2062 C2065 2.984 . S
U2062 C2066 2.847 . S
U2062 C2079 2.882 . S
U2062 O2080 2.441 . S
U2062 O2081 2.420 . S
U2062 O2082 2.455 . S
U2062 O2083 2.449 . S
O2063 U2062 2.454 . S
O2063 C2065 1.353 . S
O2064 U2062 2.458 . S
O2064 C2065 1.286 . S
C2065 U2062 2.984 . S
C2065 O2063 1.353 . S
C2065 O2064 1.286 . S
C2065 C2067 1.363 . S
C2066 C2056 1.465 . S
C2066 U2062 2.847 . S
C2066 O2080 1.249 . S
C2066 O2081 1.202 . S
C2067 C2065 1.363 . S
C2067 C2069 1.408 . S
C2067 C2072 1.342 . S
C2068 C2069 1.370 . S
C2068 C2071 1.439 1_655 S
C2068 H2088 0.896 1_655 S
C2069 C2067 1.408 . S
C2069 C2068 1.370 . S
C2069 H2089 0.930 . S
C2070 C2071 1.474 1_655 S
C2070 C2072 1.285 . S
C2070 H2090 0.929 . S
C2071 C2068 1.439 1_455 S
C2071 C2070 1.474 1_455 S
C2072 C2067 1.342 . S
C2072 C2070 1.285 . S
C2072 H2091 0.930 . S
C2073 C2076 1.424 . S
C2073 C2078 1.245 . S
C2073 C2079 1.428 . S
C2074 C2077 1.260 . S
C2074 C2078 1.477 . S
C2074 H2092 0.932 . S
C2075 C2076 1.384 . S
C2075 C2077 1.479 . S
C2075 H2093 0.929 . S
C2076 C2073 1.424 . S
C2076 C2075 1.384 . S
C2076 H2094 0.928 . S
C2077 C2074 1.260 . S
C2077 C2075 1.479 . S
C2078 C2073 1.245 . S
C2078 C2074 1.477 . S
C2078 H2095 0.932 . S
C2079 U2062 2.882 . S
C2079 C2073 1.428 . S
C2079 O2082 1.301 . S
C2079 O2083 1.282 . S
O2080 U2062 2.441 . S
O2080 C2066 1.249 . S
O2081 U2062 2.420 . S
O2081 C2066 1.202 . S
O2082 U2062 2.455 . S
O2082 C2079 1.301 . S
O2083 U2062 2.449 . S
O2083 C2079 1.282 . S
H2084 C2057 0.931 . S
H2085 C2059 0.929 . S
H2086 C2060 0.930 . S
H2087 C2061 0.931 . S
H2088 C2068 0.896 1_455 S
H2089 C2069 0.930 . S
H2090 C2070 0.929 . S
H2091 C2072 0.930 . S
H2092 C2074 0.932 . S
H2093 C2075 0.929 . S
H2094 C2076 0.928 . S
H2095 C2078 0.932 . S
C2096 C2097 1.264 . S
C2096 C2101 1.479 . S
C2096 C2106 1.465 . S
C2097 C2096 1.264 . S
C2097 C2099 1.339 . S
C2097 H2124 0.931 . S
C2098 C2099 1.395 . S
C2098 C2100 1.320 . S
C2099 C2097 1.339 . S
C2099 C2098 1.395 . S
C2099 H2125 0.929 . S
C2100 C2098 1.320 . S
C2100 C2101 1.405 . S
C2100 H2126 0.930 . S
C2101 C2096 1.479 . S
C2101 C2100 1.405 . S
C2101 H2127 0.931 . S
U2102 O2103 2.454 . S
U2102 O2104 2.458 . S
U2102 C2105 2.984 . S
U2102 C2106 2.847 . S
U2102 C2119 2.882 . S
U2102 O2120 2.441 . S
U2102 O2121 2.420 . S
U2102 O2122 2.455 . S
U2102 O2123 2.449 . S
O2103 U2102 2.454 . S
O2103 C2105 1.353 . S
O2104 U2102 2.458 . S
O2104 C2105 1.286 . S
C2105 U2102 2.984 . S
C2105 O2103 1.353 . S
C2105 O2104 1.286 . S
C2105 C2107 1.363 . S
C2106 C2096 1.465 . S
C2106 U2102 2.847 . S
C2106 O2120 1.249 . S
C2106 O2121 1.202 . S
C2107 C2105 1.363 . S
C2107 C2109 1.408 . S
C2107 C2112 1.342 . S
C2108 C2109 1.310 . S
C2108 C2111 1.461 . S
C2108 H2128 0.932 . S
C2109 C2107 1.408 . S
C2109 C2108 1.310 . S
C2109 H2129 0.930 . S
C2110 C2111 1.474 . S
C2110 C2112 1.285 . S
C2110 H2130 0.929 . S
C2111 C2108 1.461 . S
C2111 C2110 1.474 . S
C2112 C2107 1.342 . S
C2112 C2110 1.285 . S
C2112 H2131 0.930 . S
C2113 C2116 1.424 . S
C2113 C2118 1.245 . S
C2113 C2119 1.428 . S
C2114 C2117 1.260 . S
C2114 C2118 1.477 . S
C2114 H2132 0.932 . S
C2115 C2116 1.384 . S
C2115 C2117 1.479 . S
C2115 H2133 0.929 . S
C2116 C2113 1.424 . S
C2116 C2115 1.384 . S
C2116 H2134 0.928 . S
C2117 C2114 1.260 . S
C2117 C2115 1.479 . S
C2118 C2113 1.245 . S
C2118 C2114 1.477 . S
C2118 H2135 0.932 . S
C2119 U2102 2.882 . S
C2119 C2113 1.428 . S
C2119 O2122 1.301 . S
C2119 O2123 1.282 . S
O2120 U2102 2.441 . S
O2120 C2106 1.249 . S
O2121 U2102 2.420 . S
O2121 C2106 1.202 . S
O2122 U2102 2.455 . S
O2122 C2119 1.301 . S
O2123 U2102 2.449 . S
O2123 C2119 1.282 . S
H2124 C2097 0.931 . S
H2125 C2099 0.929 . S
H2126 C2100 0.930 . S
H2127 C2101 0.931 . S
H2128 C2108 0.932 . S
H2129 C2109 0.930 . S
H2130 C2110 0.929 . S
H2131 C2112 0.930 . S
H2132 C2114 0.932 . S
H2133 C2115 0.929 . S
H2134 C2116 0.928 . S
H2135 C2118 0.932 . S
C2136 C2137 1.264 . S
C2136 C2141 1.479 . S
C2136 C2146 1.465 . S
C2137 C2136 1.264 . S
C2137 C2139 1.339 . S
C2137 H2164 0.931 . S
C2138 C2139 1.395 . S
C2138 C2140 1.320 . S
C2139 C2137 1.339 . S
C2139 C2138 1.395 . S
C2139 H2165 0.929 . S
C2140 C2138 1.320 . S
C2140 C2141 1.405 . S
C2140 H2166 0.930 . S
C2141 C2136 1.479 . S
C2141 C2140 1.405 . S
C2141 H2167 0.931 . S
U2142 O2143 2.454 . S
U2142 O2144 2.458 . S
U2142 C2145 2.984 . S
U2142 C2146 2.847 . S
U2142 C2159 2.882 . S
U2142 O2160 2.441 . S
U2142 O2161 2.420 . S
U2142 O2162 2.455 . S
U2142 O2163 2.449 . S
O2143 U2142 2.454 . S
O2143 C2145 1.353 . S
O2144 U2142 2.458 . S
O2144 C2145 1.286 . S
C2145 U2142 2.984 . S
C2145 O2143 1.353 . S
C2145 O2144 1.286 . S
C2145 C2147 1.363 . S
C2146 C2136 1.465 . S
C2146 U2142 2.847 . S
C2146 O2160 1.249 . S
C2146 O2161 1.202 . S
C2147 C2145 1.363 . S
C2147 C2149 1.408 . S
C2147 C2152 1.342 . S
C2148 C2149 1.310 . S
C2148 C2151 1.461 . S
C2148 H2168 0.932 . S
C2149 C2147 1.408 . S
C2149 C2148 1.310 . S
C2149 H2169 0.930 . S
C2150 C2151 1.474 . S
C2150 C2152 1.285 . S
C2150 H2170 0.929 . S
C2151 C2148 1.461 . S
C2151 C2150 1.474 . S
C2152 C2147 1.342 . S
C2152 C2150 1.285 . S
C2152 H2171 0.930 . S
C2153 C2156 1.424 . S
C2153 C2158 1.245 . S
C2153 C2159 1.428 . S
C2154 C2157 1.260 . S
C2154 C2158 1.477 . S
C2154 H2172 0.932 . S
C2155 C2156 1.384 . S
C2155 C2157 1.479 . S
C2155 H2173 0.929 . S
C2156 C2153 1.424 . S
C2156 C2155 1.384 . S
C2156 H2174 0.928 . S
C2157 C2154 1.260 . S
C2157 C2155 1.479 . S
C2158 C2153 1.245 . S
C2158 C2154 1.477 . S
C2158 H2175 0.932 . S
C2159 U2142 2.882 . S
C2159 C2153 1.428 . S
C2159 O2162 1.301 . S
C2159 O2163 1.282 . S
O2160 U2142 2.441 . S
O2160 C2146 1.249 . S
O2161 U2142 2.420 . S
O2161 C2146 1.202 . S
O2162 U2142 2.455 . S
O2162 C2159 1.301 . S
O2163 U2142 2.449 . S
O2163 C2159 1.282 . S
H2164 C2137 0.931 . S
H2165 C2139 0.929 . S
H2166 C2140 0.930 . S
H2167 C2141 0.931 . S
H2168 C2148 0.932 . S
H2169 C2149 0.930 . S
H2170 C2150 0.929 . S
H2171 C2152 0.930 . S
H2172 C2154 0.932 . S
H2173 C2155 0.929 . S
H2174 C2156 0.928 . S
H2175 C2158 0.932 . S
C2176 C2177 1.264 . S
C2176 C2181 1.479 . S
C2176 C2186 1.465 . S
C2177 C2176 1.264 . S
C2177 C2179 1.339 . S
C2177 H2204 0.931 . S
C2178 C2179 1.395 . S
C2178 C2180 1.320 . S
C2179 C2177 1.339 . S
C2179 C2178 1.395 . S
C2179 H2205 0.929 . S
C2180 C2178 1.320 . S
C2180 C2181 1.405 . S
C2180 H2206 0.930 . S
C2181 C2176 1.479 . S
C2181 C2180 1.405 . S
C2181 H2207 0.931 . S
U2182 O2183 2.454 . S
U2182 O2184 2.458 . S
U2182 C2185 2.984 . S
U2182 C2186 2.847 . S
U2182 C2199 2.882 . S
U2182 O2200 2.441 . S
U2182 O2201 2.420 . S
U2182 O2202 2.455 . S
U2182 O2203 2.449 . S
O2183 U2182 2.454 . S
O2183 C2185 1.353 . S
O2184 U2182 2.458 . S
O2184 C2185 1.286 . S
C2185 U2182 2.984 . S
C2185 O2183 1.353 . S
C2185 O2184 1.286 . S
C2185 C2187 1.363 . S
C2186 C2176 1.465 . S
C2186 U2182 2.847 . S
C2186 O2200 1.249 . S
C2186 O2201 1.202 . S
C2187 C2185 1.363 . S
C2187 C2189 1.408 . S
C2187 C2192 1.342 . S
C2188 C2189 1.310 . S
C2188 C2191 1.461 . S
C2188 H2208 0.932 . S
C2189 C2187 1.408 . S
C2189 C2188 1.310 . S
C2189 H2209 0.930 . S
C2190 C2191 1.474 . S
C2190 C2192 1.285 . S
C2190 H2210 0.929 . S
C2191 C2188 1.461 . S
C2191 C2190 1.474 . S
C2192 C2187 1.342 . S
C2192 C2190 1.285 . S
C2192 H2211 0.930 . S
C2193 C2196 1.424 . S
C2193 C2198 1.245 . S
C2193 C2199 1.428 . S
C2194 C2197 1.260 . S
C2194 C2198 1.477 . S
C2194 H2212 0.932 . S
C2195 C2196 1.384 . S
C2195 C2197 1.479 . S
C2195 H2213 0.929 . S
C2196 C2193 1.424 . S
C2196 C2195 1.384 . S
C2196 H2214 0.928 . S
C2197 C2194 1.260 . S
C2197 C2195 1.479 . S
C2198 C2193 1.245 . S
C2198 C2194 1.477 . S
C2198 H2215 0.932 . S
C2199 U2182 2.882 . S
C2199 C2193 1.428 . S
C2199 O2202 1.301 . S
C2199 O2203 1.282 . S
O2200 U2182 2.441 . S
O2200 C2186 1.249 . S
O2201 U2182 2.420 . S
O2201 C2186 1.202 . S
O2202 U2182 2.455 . S
O2202 C2199 1.301 . S
O2203 U2182 2.449 . S
O2203 C2199 1.282 . S
H2204 C2177 0.931 . S
H2205 C2179 0.929 . S
H2206 C2180 0.930 . S
H2207 C2181 0.931 . S
H2208 C2188 0.932 . S
H2209 C2189 0.930 . S
H2210 C2190 0.929 . S
H2211 C2192 0.930 . S
H2212 C2194 0.932 . S
H2213 C2195 0.929 . S
H2214 C2196 0.928 . S
H2215 C2198 0.932 . S
C2216 C2217 1.264 . S
C2216 C2221 1.479 . S
C2216 C2226 1.465 . S
C2217 C2216 1.264 . S
C2217 C2219 1.339 . S
C2217 H2244 0.931 . S
C2218 C2219 1.395 . S
C2218 C2220 1.320 . S
C2219 C2217 1.339 . S
C2219 C2218 1.395 . S
C2219 H2245 0.929 . S
C2220 C2218 1.320 . S
C2220 C2221 1.405 . S
C2220 H2246 0.930 . S
C2221 C2216 1.479 . S
C2221 C2220 1.405 . S
C2221 H2247 0.931 . S
U2222 O2223 2.454 . S
U2222 O2224 2.458 . S
U2222 C2225 2.984 . S
U2222 C2226 2.847 . S
U2222 C2239 2.882 . S
U2222 O2240 2.441 . S
U2222 O2241 2.420 . S
U2222 O2242 2.455 . S
U2222 O2243 2.449 . S
O2223 U2222 2.454 . S
O2223 C2225 1.353 . S
O2224 U2222 2.458 . S
O2224 C2225 1.286 . S
C2225 U2222 2.984 . S
C2225 O2223 1.353 . S
C2225 O2224 1.286 . S
C2225 C2227 1.363 . S
C2226 C2216 1.465 . S
C2226 U2222 2.847 . S
C2226 O2240 1.249 . S
C2226 O2241 1.202 . S
C2227 C2225 1.363 . S
C2227 C2229 1.408 . S
C2227 C2232 1.342 . S
C2228 C2229 1.310 . S
C2228 C2231 1.461 . S
C2228 H2248 0.932 . S
C2229 C2227 1.408 . S
C2229 C2228 1.310 . S
C2229 H2249 0.930 . S
C2230 C2231 1.474 . S
C2230 C2232 1.285 . S
C2230 H2250 0.929 . S
C2231 C2228 1.461 . S
C2231 C2230 1.474 . S
C2232 C2227 1.342 . S
C2232 C2230 1.285 . S
C2232 H2251 0.930 . S
C2233 C2236 1.424 . S
C2233 C2238 1.245 . S
C2233 C2239 1.428 . S
C2234 C2237 1.260 . S
C2234 C2238 1.477 . S
C2234 H2252 0.932 . S
C2235 C2236 1.384 . S
C2235 C2237 1.479 . S
C2235 H2253 0.929 . S
C2236 C2233 1.424 . S
C2236 C2235 1.384 . S
C2236 H2254 0.928 . S
C2237 C2234 1.260 . S
C2237 C2235 1.479 . S
C2238 C2233 1.245 . S
C2238 C2234 1.477 . S
C2238 H2255 0.932 . S
C2239 U2222 2.882 . S
C2239 C2233 1.428 . S
C2239 O2242 1.301 . S
C2239 O2243 1.282 . S
O2240 U2222 2.441 . S
O2240 C2226 1.249 . S
O2241 U2222 2.420 . S
O2241 C2226 1.202 . S
O2242 U2222 2.455 . S
O2242 C2239 1.301 . S
O2243 U2222 2.449 . S
O2243 C2239 1.282 . S
H2244 C2217 0.931 . S
H2245 C2219 0.929 . S
H2246 C2220 0.930 . S
H2247 C2221 0.931 . S
H2248 C2228 0.932 . S
H2249 C2229 0.930 . S
H2250 C2230 0.929 . S
H2251 C2232 0.930 . S
H2252 C2234 0.932 . S
H2253 C2235 0.929 . S
H2254 C2236 0.928 . S
H2255 C2238 0.932 . S
C2256 C2257 1.264 . S
C2256 C2261 1.479 . S
C2256 C2266 1.465 . S
C2257 C2256 1.264 . S
C2257 C2259 1.339 . S
C2257 H2284 0.931 . S
C2258 C2259 1.395 . S
C2258 C2260 1.320 . S
C2259 C2257 1.339 . S
C2259 C2258 1.395 . S
C2259 H2285 0.929 . S
C2260 C2258 1.320 . S
C2260 C2261 1.405 . S
C2260 H2286 0.930 . S
C2261 C2256 1.479 . S
C2261 C2260 1.405 . S
C2261 H2287 0.931 . S
U2262 O2263 2.454 . S
U2262 O2264 2.458 . S
U2262 C2265 2.984 . S
U2262 C2266 2.847 . S
U2262 C2279 2.882 . S
U2262 O2280 2.441 . S
U2262 O2281 2.420 . S
U2262 O2282 2.455 . S
U2262 O2283 2.449 . S
O2263 U2262 2.454 . S
O2263 C2265 1.353 . S
O2264 U2262 2.458 . S
O2264 C2265 1.286 . S
C2265 U2262 2.984 . S
C2265 O2263 1.353 . S
C2265 O2264 1.286 . S
C2265 C2267 1.363 . S
C2266 C2256 1.465 . S
C2266 U2262 2.847 . S
C2266 O2280 1.249 . S
C2266 O2281 1.202 . S
C2267 C2265 1.363 . S
C2267 C2269 1.408 . S
C2267 C2272 1.342 . S
C2268 C2269 1.310 . S
C2268 C2271 1.461 . S
C2268 H2288 0.932 . S
C2269 C2267 1.408 . S
C2269 C2268 1.310 . S
C2269 H2289 0.930 . S
C2270 C2271 1.474 . S
C2270 C2272 1.285 . S
C2270 H2290 0.929 . S
C2271 C2268 1.461 . S
C2271 C2270 1.474 . S
C2272 C2267 1.342 . S
C2272 C2270 1.285 . S
C2272 H2291 0.930 . S
C2273 C2276 1.424 . S
C2273 C2278 1.245 . S
C2273 C2279 1.428 . S
C2274 C2277 1.260 . S
C2274 C2278 1.477 . S
C2274 H2292 0.932 . S
C2275 C2276 1.384 . S
C2275 C2277 1.479 . S
C2275 H2293 0.929 . S
C2276 C2273 1.424 . S
C2276 C2275 1.384 . S
C2276 H2294 0.928 . S
C2277 C2274 1.260 . S
C2277 C2275 1.479 . S
C2278 C2273 1.245 . S
C2278 C2274 1.477 . S
C2278 H2295 0.932 . S
C2279 U2262 2.882 . S
C2279 C2273 1.428 . S
C2279 O2282 1.301 . S
C2279 O2283 1.282 . S
O2280 U2262 2.441 . S
O2280 C2266 1.249 . S
O2281 U2262 2.420 . S
O2281 C2266 1.202 . S
O2282 U2262 2.455 . S
O2282 C2279 1.301 . S
O2283 U2262 2.449 . S
O2283 C2279 1.282 . S
H2284 C2257 0.931 . S
H2285 C2259 0.929 . S
H2286 C2260 0.930 . S
H2287 C2261 0.931 . S
H2288 C2268 0.932 . S
H2289 C2269 0.930 . S
H2290 C2270 0.929 . S
H2291 C2272 0.930 . S
H2292 C2274 0.932 . S
H2293 C2275 0.929 . S
H2294 C2276 0.928 . S
H2295 C2278 0.932 . S
C2296 C2297 1.264 . S
C2296 C2301 1.479 . S
C2296 C2306 1.465 . S
C2297 C2296 1.264 . S
C2297 C2299 1.339 . S
C2297 H2324 0.931 . S
C2298 C2299 1.395 . S
C2298 C2300 1.320 . S
C2299 C2297 1.339 . S
C2299 C2298 1.395 . S
C2299 H2325 0.929 . S
C2300 C2298 1.320 . S
C2300 C2301 1.405 . S
C2300 H2326 0.930 . S
C2301 C2296 1.479 . S
C2301 C2300 1.405 . S
C2301 H2327 0.931 . S
U2302 O2303 2.454 . S
U2302 O2304 2.458 . S
U2302 C2305 2.984 . S
U2302 C2306 2.847 . S
U2302 C2319 2.882 . S
U2302 O2320 2.441 . S
U2302 O2321 2.420 . S
U2302 O2322 2.455 . S
U2302 O2323 2.449 . S
O2303 U2302 2.454 . S
O2303 C2305 1.353 . S
O2304 U2302 2.458 . S
O2304 C2305 1.286 . S
C2305 U2302 2.984 . S
C2305 O2303 1.353 . S
C2305 O2304 1.286 . S
C2305 C2307 1.363 . S
C2306 C2296 1.465 . S
C2306 U2302 2.847 . S
C2306 O2320 1.249 . S
C2306 O2321 1.202 . S
C2307 C2305 1.363 . S
C2307 C2309 1.408 . S
C2307 C2312 1.342 . S
C2308 C2309 1.369 . S
C2308 C2311 1.440 1_655 S
C2308 H2328 0.897 1_655 S
C2309 C2307 1.408 . S
C2309 C2308 1.369 . S
C2309 H2329 0.930 . S
C2310 C2311 1.474 1_655 S
C2310 C2312 1.285 . S
C2310 H2330 0.929 . S
C2311 C2308 1.440 1_455 S
C2311 C2310 1.474 1_455 S
C2312 C2307 1.342 . S
C2312 C2310 1.285 . S
C2312 H2331 0.930 . S
C2313 C2316 1.424 . S
C2313 C2318 1.245 . S
C2313 C2319 1.428 . S
C2314 C2317 1.260 . S
C2314 C2318 1.477 . S
C2314 H2332 0.932 . S
C2315 C2316 1.384 . S
C2315 C2317 1.479 . S
C2315 H2333 0.929 . S
C2316 C2313 1.424 . S
C2316 C2315 1.384 . S
C2316 H2334 0.928 . S
C2317 C2314 1.260 . S
C2317 C2315 1.479 . S
C2318 C2313 1.245 . S
C2318 C2314 1.477 . S
C2318 H2335 0.932 . S
C2319 U2302 2.882 . S
C2319 C2313 1.428 . S
C2319 O2322 1.301 . S
C2319 O2323 1.282 . S
O2320 U2302 2.441 . S
O2320 C2306 1.249 . S
O2321 U2302 2.420 . S
O2321 C2306 1.202 . S
O2322 U2302 2.455 . S
O2322 C2319 1.301 . S
O2323 U2302 2.449 . S
O2323 C2319 1.282 . S
H2324 C2297 0.931 . S
H2325 C2299 0.929 . S
H2326 C2300 0.930 . S
H2327 C2301 0.931 . S
H2328 C2308 0.897 1_455 S
H2329 C2309 0.930 . S
H2330 C2310 0.929 . S
H2331 C2312 0.930 . S
H2332 C2314 0.932 . S
H2333 C2315 0.929 . S
H2334 C2316 0.928 . S
H2335 C2318 0.932 . S
C2336 C2337 1.264 . S
C2336 C2341 1.479 . S
C2336 C2346 1.465 . S
C2337 C2336 1.264 . S
C2337 C2339 1.339 . S
C2337 H2364 0.931 . S
C2338 C2339 1.395 . S
C2338 C2340 1.320 . S
C2339 C2337 1.339 . S
C2339 C2338 1.395 . S
C2339 H2365 0.929 . S
C2340 C2338 1.320 . S
C2340 C2341 1.405 . S
C2340 H2366 0.930 . S
C2341 C2336 1.479 . S
C2341 C2340 1.405 . S
C2341 H2367 0.931 . S
U2342 O2343 2.454 . S
U2342 O2344 2.458 . S
U2342 C2345 2.984 . S
U2342 C2346 2.847 . S
U2342 C2359 2.882 . S
U2342 O2360 2.441 . S
U2342 O2361 2.420 . S
U2342 O2362 2.455 . S
U2342 O2363 2.449 . S
O2343 U2342 2.454 . S
O2343 C2345 1.353 . S
O2344 U2342 2.458 . S
O2344 C2345 1.286 . S
C2345 U2342 2.984 . S
C2345 O2343 1.353 . S
C2345 O2344 1.286 . S
C2345 C2347 1.363 . S
C2346 C2336 1.465 . S
C2346 U2342 2.847 . S
C2346 O2360 1.249 . S
C2346 O2361 1.202 . S
C2347 C2345 1.363 . S
C2347 C2349 1.408 . S
C2347 C2352 1.342 . S
C2348 C2349 1.310 . S
C2348 C2351 1.461 . S
C2348 H2368 0.932 . S
C2349 C2347 1.408 . S
C2349 C2348 1.310 . S
C2349 H2369 0.930 . S
C2350 C2351 1.474 . S
C2350 C2352 1.285 . S
C2350 H2370 0.929 . S
C2351 C2348 1.461 . S
C2351 C2350 1.474 . S
C2352 C2347 1.342 . S
C2352 C2350 1.285 . S
C2352 H2371 0.930 . S
C2353 C2356 1.424 . S
C2353 C2358 1.245 . S
C2353 C2359 1.428 . S
C2354 C2357 1.260 . S
C2354 C2358 1.477 . S
C2354 H2372 0.932 . S
C2355 C2356 1.384 . S
C2355 C2357 1.479 . S
C2355 H2373 0.929 . S
C2356 C2353 1.424 . S
C2356 C2355 1.384 . S
C2356 H2374 0.928 . S
C2357 C2354 1.260 . S
C2357 C2355 1.479 . S
C2358 C2353 1.245 . S
C2358 C2354 1.477 . S
C2358 H2375 0.932 . S
C2359 U2342 2.882 . S
C2359 C2353 1.428 . S
C2359 O2362 1.301 . S
C2359 O2363 1.282 . S
O2360 U2342 2.441 . S
O2360 C2346 1.249 . S
O2361 U2342 2.420 . S
O2361 C2346 1.202 . S
O2362 U2342 2.455 . S
O2362 C2359 1.301 . S
O2363 U2342 2.449 . S
O2363 C2359 1.282 . S
H2364 C2337 0.931 . S
H2365 C2339 0.929 . S
H2366 C2340 0.930 . S
H2367 C2341 0.931 . S
H2368 C2348 0.932 . S
H2369 C2349 0.930 . S
H2370 C2350 0.929 . S
H2371 C2352 0.930 . S
H2372 C2354 0.932 . S
H2373 C2355 0.929 . S
H2374 C2356 0.928 . S
H2375 C2358 0.932 . S
C2376 C2377 1.264 . S
C2376 C2381 1.479 . S
C2376 C2386 1.465 . S
C2377 C2376 1.264 . S
C2377 C2379 1.339 . S
C2377 H2404 0.931 . S
C2378 C2379 1.395 . S
C2378 C2380 1.320 . S
C2379 C2377 1.339 . S
C2379 C2378 1.395 . S
C2379 H2405 0.929 . S
C2380 C2378 1.320 . S
C2380 C2381 1.405 . S
C2380 H2406 0.930 . S
C2381 C2376 1.479 . S
C2381 C2380 1.405 . S
C2381 H2407 0.931 . S
U2382 O2383 2.454 . S
U2382 O2384 2.458 . S
U2382 C2385 2.984 . S
U2382 C2386 2.847 . S
U2382 C2399 2.882 . S
U2382 O2400 2.441 . S
U2382 O2401 2.420 . S
U2382 O2402 2.455 . S
U2382 O2403 2.449 . S
O2383 U2382 2.454 . S
O2383 C2385 1.353 . S
O2384 U2382 2.458 . S
O2384 C2385 1.286 . S
C2385 U2382 2.984 . S
C2385 O2383 1.353 . S
C2385 O2384 1.286 . S
C2385 C2387 1.363 . S
C2386 C2376 1.465 . S
C2386 U2382 2.847 . S
C2386 O2400 1.249 . S
C2386 O2401 1.202 . S
C2387 C2385 1.363 . S
C2387 C2389 1.408 . S
C2387 C2392 1.342 . S
C2388 C2389 1.310 . S
C2388 C2391 1.461 . S
C2388 H2408 0.932 . S
C2389 C2387 1.408 . S
C2389 C2388 1.310 . S
C2389 H2409 0.930 . S
C2390 C2391 1.474 . S
C2390 C2392 1.285 . S
C2390 H2410 0.929 . S
C2391 C2388 1.461 . S
C2391 C2390 1.474 . S
C2392 C2387 1.342 . S
C2392 C2390 1.285 . S
C2392 H2411 0.930 . S
C2393 C2396 1.424 . S
C2393 C2398 1.245 . S
C2393 C2399 1.428 . S
C2394 C2397 1.260 . S
C2394 C2398 1.477 . S
C2394 H2412 0.932 . S
C2395 C2396 1.384 . S
C2395 C2397 1.479 . S
C2395 H2413 0.929 . S
C2396 C2393 1.424 . S
C2396 C2395 1.384 . S
C2396 H2414 0.928 . S
C2397 C2394 1.260 . S
C2397 C2395 1.479 . S
C2398 C2393 1.245 . S
C2398 C2394 1.477 . S
C2398 H2415 0.932 . S
C2399 U2382 2.882 . S
C2399 C2393 1.428 . S
C2399 O2402 1.301 . S
C2399 O2403 1.282 . S
O2400 U2382 2.441 . S
O2400 C2386 1.249 . S
O2401 U2382 2.420 . S
O2401 C2386 1.202 . S
O2402 U2382 2.455 . S
O2402 C2399 1.301 . S
O2403 U2382 2.449 . S
O2403 C2399 1.282 . S
H2404 C2377 0.931 . S
H2405 C2379 0.929 . S
H2406 C2380 0.930 . S
H2407 C2381 0.931 . S
H2408 C2388 0.932 . S
H2409 C2389 0.930 . S
H2410 C2390 0.929 . S
H2411 C2392 0.930 . S
H2412 C2394 0.932 . S
H2413 C2395 0.929 . S
H2414 C2396 0.928 . S
H2415 C2398 0.932 . S
C2416 C2417 1.264 . S
C2416 C2421 1.479 . S
C2416 C2426 1.465 . S
C2417 C2416 1.264 . S
C2417 C2419 1.339 . S
C2417 H2444 0.931 . S
C2418 C2419 1.395 . S
C2418 C2420 1.320 . S
C2419 C2417 1.339 . S
C2419 C2418 1.395 . S
C2419 H2445 0.929 . S
C2420 C2418 1.320 . S
C2420 C2421 1.405 . S
C2420 H2446 0.930 . S
C2421 C2416 1.479 . S
C2421 C2420 1.405 . S
C2421 H2447 0.931 . S
U2422 O2423 2.454 . S
U2422 O2424 2.458 . S
U2422 C2425 2.984 . S
U2422 C2426 2.847 . S
U2422 C2439 2.882 . S
U2422 O2440 2.441 . S
U2422 O2441 2.420 . S
U2422 O2442 2.455 . S
U2422 O2443 2.449 . S
O2423 U2422 2.454 . S
O2423 C2425 1.353 . S
O2424 U2422 2.458 . S
O2424 C2425 1.286 . S
C2425 U2422 2.984 . S
C2425 O2423 1.353 . S
C2425 O2424 1.286 . S
C2425 C2427 1.363 . S
C2426 C2416 1.465 . S
C2426 U2422 2.847 . S
C2426 O2440 1.249 . S
C2426 O2441 1.202 . S
C2427 C2425 1.363 . S
C2427 C2429 1.408 . S
C2427 C2432 1.342 . S
C2428 C2429 1.310 . S
C2428 C2431 1.461 . S
C2428 H2448 0.932 . S
C2429 C2427 1.408 . S
C2429 C2428 1.310 . S
C2429 H2449 0.930 . S
C2430 C2431 1.474 . S
C2430 C2432 1.285 . S
C2430 H2450 0.929 . S
C2431 C2428 1.461 . S
C2431 C2430 1.474 . S
C2432 C2427 1.342 . S
C2432 C2430 1.285 . S
C2432 H2451 0.930 . S
C2433 C2436 1.424 . S
C2433 C2438 1.245 . S
C2433 C2439 1.428 . S
C2434 C2437 1.260 . S
C2434 C2438 1.477 . S
C2434 H2452 0.932 . S
C2435 C2436 1.384 . S
C2435 C2437 1.479 . S
C2435 H2453 0.929 . S
C2436 C2433 1.424 . S
C2436 C2435 1.384 . S
C2436 H2454 0.928 . S
C2437 C2434 1.260 . S
C2437 C2435 1.479 . S
C2438 C2433 1.245 . S
C2438 C2434 1.477 . S
C2438 H2455 0.932 . S
C2439 U2422 2.882 . S
C2439 C2433 1.428 . S
C2439 O2442 1.301 . S
C2439 O2443 1.282 . S
O2440 U2422 2.441 . S
O2440 C2426 1.249 . S
O2441 U2422 2.420 . S
O2441 C2426 1.202 . S
O2442 U2422 2.455 . S
O2442 C2439 1.301 . S
O2443 U2422 2.449 . S
O2443 C2439 1.282 . S
H2444 C2417 0.931 . S
H2445 C2419 0.929 . S
H2446 C2420 0.930 . S
H2447 C2421 0.931 . S
H2448 C2428 0.932 . S
H2449 C2429 0.930 . S
H2450 C2430 0.929 . S
H2451 C2432 0.930 . S
H2452 C2434 0.932 . S
H2453 C2435 0.929 . S
H2454 C2436 0.928 . S
H2455 C2438 0.932 . S
C2456 C2457 1.264 . S
C2456 C2461 1.479 . S
C2456 C2466 1.465 . S
C2457 C2456 1.264 . S
C2457 C2459 1.339 . S
C2457 H2484 0.931 . S
C2458 C2459 1.395 . S
C2458 C2460 1.320 . S
C2459 C2457 1.339 . S
C2459 C2458 1.395 . S
C2459 H2485 0.929 . S
C2460 C2458 1.320 . S
C2460 C2461 1.405 . S
C2460 H2486 0.930 . S
C2461 C2456 1.479 . S
C2461 C2460 1.405 . S
C2461 H2487 0.931 . S
U2462 O2463 2.454 . S
U2462 O2464 2.458 . S
U2462 C2465 2.984 . S
U2462 C2466 2.847 . S
U2462 C2479 2.882 . S
U2462 O2480 2.441 . S
U2462 O2481 2.420 . S
U2462 O2482 2.455 . S
U2462 O2483 2.449 . S
O2463 U2462 2.454 . S
O2463 C2465 1.353 . S
O2464 U2462 2.458 . S
O2464 C2465 1.286 . S
C2465 U2462 2.984 . S
C2465 O2463 1.353 . S
C2465 O2464 1.286 . S
C2465 C2467 1.363 . S
C2466 C2456 1.465 . S
C2466 U2462 2.847 . S
C2466 O2480 1.249 . S
C2466 O2481 1.202 . S
C2467 C2465 1.363 . S
C2467 C2469 1.408 . S
C2467 C2472 1.342 . S
C2468 C2469 1.370 . S
C2468 C2471 1.440 1_554 S
C2468 H2488 0.897 1_554 S
C2469 C2467 1.408 . S
C2469 C2468 1.370 . S
C2469 H2489 0.930 . S
C2470 C2471 1.474 1_554 S
C2470 C2472 1.285 . S
C2470 H2490 0.929 . S
C2471 C2468 1.440 1_556 S
C2471 C2470 1.474 1_556 S
C2472 C2467 1.342 . S
C2472 C2470 1.285 . S
C2472 H2491 0.930 . S
C2473 C2476 1.424 . S
C2473 C2478 1.245 . S
C2473 C2479 1.428 . S
C2474 C2477 1.260 . S
C2474 C2478 1.477 . S
C2474 H2492 0.932 . S
C2475 C2476 1.384 . S
C2475 C2477 1.479 . S
C2475 H2493 0.929 . S
C2476 C2473 1.424 . S
C2476 C2475 1.384 . S
C2476 H2494 0.928 . S
C2477 C2474 1.260 . S
C2477 C2475 1.479 . S
C2478 C2473 1.245 . S
C2478 C2474 1.477 . S
C2478 H2495 0.932 . S
C2479 U2462 2.882 . S
C2479 C2473 1.428 . S
C2479 O2482 1.301 . S
C2479 O2483 1.282 . S
O2480 U2462 2.441 . S
O2480 C2466 1.249 . S
O2481 U2462 2.420 . S
O2481 C2466 1.202 . S
O2482 U2462 2.455 . S
O2482 C2479 1.301 . S
O2483 U2462 2.449 . S
O2483 C2479 1.282 . S
H2484 C2457 0.931 . S
H2485 C2459 0.929 . S
H2486 C2460 0.930 . S
H2487 C2461 0.931 . S
H2488 C2468 0.897 1_556 S
H2489 C2469 0.930 . S
H2490 C2470 0.929 . S
H2491 C2472 0.930 . S
H2492 C2474 0.932 . S
H2493 C2475 0.929 . S
H2494 C2476 0.928 . S
H2495 C2478 0.932 . S
C2496 C2497 1.264 . S
C2496 C2501 1.479 . S
C2496 C2506 1.465 . S
C2497 C2496 1.264 . S
C2497 C2499 1.339 . S
C2497 H2524 0.931 . S
C2498 C2499 1.395 . S
C2498 C2500 1.320 . S
C2499 C2497 1.339 . S
C2499 C2498 1.395 . S
C2499 H2525 0.929 . S
C2500 C2498 1.320 . S
C2500 C2501 1.405 . S
C2500 H2526 0.930 . S
C2501 C2496 1.479 . S
C2501 C2500 1.405 . S
C2501 H2527 0.931 . S
U2502 O2503 2.454 . S
U2502 O2504 2.458 . S
U2502 C2505 2.984 . S
U2502 C2506 2.847 . S
U2502 C2519 2.882 . S
U2502 O2520 2.441 . S
U2502 O2521 2.420 . S
U2502 O2522 2.455 . S
U2502 O2523 2.449 . S
O2503 U2502 2.454 . S
O2503 C2505 1.353 . S
O2504 U2502 2.458 . S
O2504 C2505 1.286 . S
C2505 U2502 2.984 . S
C2505 O2503 1.353 . S
C2505 O2504 1.286 . S
C2505 C2507 1.363 . S
C2506 C2496 1.465 . S
C2506 U2502 2.847 . S
C2506 O2520 1.249 . S
C2506 O2521 1.202 . S
C2507 C2505 1.363 . S
C2507 C2509 1.408 . S
C2507 C2512 1.342 . S
C2508 C2509 1.310 . S
C2508 C2511 1.461 . S
C2508 H2528 0.932 . S
C2509 C2507 1.408 . S
C2509 C2508 1.310 . S
C2509 H2529 0.930 . S
C2510 C2511 1.474 . S
C2510 C2512 1.285 . S
C2510 H2530 0.929 . S
C2511 C2508 1.461 . S
C2511 C2510 1.474 . S
C2512 C2507 1.342 . S
C2512 C2510 1.285 . S
C2512 H2531 0.930 . S
C2513 C2516 1.424 . S
C2513 C2518 1.245 . S
C2513 C2519 1.428 . S
C2514 C2517 1.260 . S
C2514 C2518 1.477 . S
C2514 H2532 0.932 . S
C2515 C2516 1.384 . S
C2515 C2517 1.479 . S
C2515 H2533 0.929 . S
C2516 C2513 1.424 . S
C2516 C2515 1.384 . S
C2516 H2534 0.928 . S
C2517 C2514 1.260 . S
C2517 C2515 1.479 . S
C2518 C2513 1.245 . S
C2518 C2514 1.477 . S
C2518 H2535 0.932 . S
C2519 U2502 2.882 . S
C2519 C2513 1.428 . S
C2519 O2522 1.301 . S
C2519 O2523 1.282 . S
O2520 U2502 2.441 . S
O2520 C2506 1.249 . S
O2521 U2502 2.420 . S
O2521 C2506 1.202 . S
O2522 U2502 2.455 . S
O2522 C2519 1.301 . S
O2523 U2502 2.449 . S
O2523 C2519 1.282 . S
H2524 C2497 0.931 . S
H2525 C2499 0.929 . S
H2526 C2500 0.930 . S
H2527 C2501 0.931 . S
H2528 C2508 0.932 . S
H2529 C2509 0.930 . S
H2530 C2510 0.929 . S
H2531 C2512 0.930 . S
H2532 C2514 0.932 . S
H2533 C2515 0.929 . S
H2534 C2516 0.928 . S
H2535 C2518 0.932 . S
C2536 C2537 1.264 . S
C2536 C2541 1.479 . S
C2536 C2546 1.465 . S
C2537 C2536 1.264 . S
C2537 C2539 1.339 . S
C2537 H2564 0.931 . S
C2538 C2539 1.395 . S
C2538 C2540 1.320 . S
C2539 C2537 1.339 . S
C2539 C2538 1.395 . S
C2539 H2565 0.929 . S
C2540 C2538 1.320 . S
C2540 C2541 1.405 . S
C2540 H2566 0.930 . S
C2541 C2536 1.479 . S
C2541 C2540 1.405 . S
C2541 H2567 0.931 . S
U2542 O2543 2.454 . S
U2542 O2544 2.458 . S
U2542 C2545 2.984 . S
U2542 C2546 2.847 . S
U2542 C2559 2.882 . S
U2542 O2560 2.441 . S
U2542 O2561 2.420 . S
U2542 O2562 2.455 . S
U2542 O2563 2.449 . S
O2543 U2542 2.454 . S
O2543 C2545 1.353 . S
O2544 U2542 2.458 . S
O2544 C2545 1.286 . S
C2545 U2542 2.984 . S
C2545 O2543 1.353 . S
C2545 O2544 1.286 . S
C2545 C2547 1.363 . S
C2546 C2536 1.465 . S
C2546 U2542 2.847 . S
C2546 O2560 1.249 . S
C2546 O2561 1.202 . S
C2547 C2545 1.363 . S
C2547 C2549 1.408 . S
C2547 C2552 1.342 . S
C2548 C2549 1.310 . S
C2548 C2551 1.461 . S
C2548 H2568 0.932 . S
C2549 C2547 1.408 . S
C2549 C2548 1.310 . S
C2549 H2569 0.930 . S
C2550 C2551 1.474 . S
C2550 C2552 1.285 . S
C2550 H2570 0.929 . S
C2551 C2548 1.461 . S
C2551 C2550 1.474 . S
C2552 C2547 1.342 . S
C2552 C2550 1.285 . S
C2552 H2571 0.930 . S
C2553 C2556 1.424 . S
C2553 C2558 1.245 . S
C2553 C2559 1.428 . S
C2554 C2557 1.260 . S
C2554 C2558 1.477 . S
C2554 H2572 0.932 . S
C2555 C2556 1.384 . S
C2555 C2557 1.479 . S
C2555 H2573 0.929 . S
C2556 C2553 1.424 . S
C2556 C2555 1.384 . S
C2556 H2574 0.928 . S
C2557 C2554 1.260 . S
C2557 C2555 1.479 . S
C2558 C2553 1.245 . S
C2558 C2554 1.477 . S
C2558 H2575 0.932 . S
C2559 U2542 2.882 . S
C2559 C2553 1.428 . S
C2559 O2562 1.301 . S
C2559 O2563 1.282 . S
O2560 U2542 2.441 . S
O2560 C2546 1.249 . S
O2561 U2542 2.420 . S
O2561 C2546 1.202 . S
O2562 U2542 2.455 . S
O2562 C2559 1.301 . S
O2563 U2542 2.449 . S
O2563 C2559 1.282 . S
H2564 C2537 0.931 . S
H2565 C2539 0.929 . S
H2566 C2540 0.930 . S
H2567 C2541 0.931 . S
H2568 C2548 0.932 . S
H2569 C2549 0.930 . S
H2570 C2550 0.929 . S
H2571 C2552 0.930 . S
H2572 C2554 0.932 . S
H2573 C2555 0.929 . S
H2574 C2556 0.928 . S
H2575 C2558 0.932 . S
C2576 C2577 1.264 . S
C2576 C2581 1.479 . S
C2576 C2586 1.465 . S
C2577 C2576 1.264 . S
C2577 C2579 1.339 . S
C2577 H2604 0.931 . S
C2578 C2579 1.395 . S
C2578 C2580 1.320 . S
C2579 C2577 1.339 . S
C2579 C2578 1.395 . S
C2579 H2605 0.929 . S
C2580 C2578 1.320 . S
C2580 C2581 1.405 . S
C2580 H2606 0.930 . S
C2581 C2576 1.479 . S
C2581 C2580 1.405 . S
C2581 H2607 0.931 . S
U2582 O2583 2.454 . S
U2582 O2584 2.458 . S
U2582 C2585 2.984 . S
U2582 C2586 2.847 . S
U2582 C2599 2.882 . S
U2582 O2600 2.441 . S
U2582 O2601 2.420 . S
U2582 O2602 2.455 . S
U2582 O2603 2.449 . S
O2583 U2582 2.454 . S
O2583 C2585 1.353 . S
O2584 U2582 2.458 . S
O2584 C2585 1.286 . S
C2585 U2582 2.984 . S
C2585 O2583 1.353 . S
C2585 O2584 1.286 . S
C2585 C2587 1.363 . S
C2586 C2576 1.465 . S
C2586 U2582 2.847 . S
C2586 O2600 1.249 . S
C2586 O2601 1.202 . S
C2587 C2585 1.363 . S
C2587 C2589 1.408 . S
C2587 C2592 1.342 . S
C2588 C2589 1.310 . S
C2588 C2591 1.461 . S
C2588 H2608 0.932 . S
C2589 C2587 1.408 . S
C2589 C2588 1.310 . S
C2589 H2609 0.930 . S
C2590 C2591 1.474 . S
C2590 C2592 1.285 . S
C2590 H2610 0.929 . S
C2591 C2588 1.461 . S
C2591 C2590 1.474 . S
C2592 C2587 1.342 . S
C2592 C2590 1.285 . S
C2592 H2611 0.930 . S
C2593 C2596 1.424 . S
C2593 C2598 1.245 . S
C2593 C2599 1.428 . S
C2594 C2597 1.260 . S
C2594 C2598 1.477 . S
C2594 H2612 0.932 . S
C2595 C2596 1.384 . S
C2595 C2597 1.479 . S
C2595 H2613 0.929 . S
C2596 C2593 1.424 . S
C2596 C2595 1.384 . S
C2596 H2614 0.928 . S
C2597 C2594 1.260 . S
C2597 C2595 1.479 . S
C2598 C2593 1.245 . S
C2598 C2594 1.477 . S
C2598 H2615 0.932 . S
C2599 U2582 2.882 . S
C2599 C2593 1.428 . S
C2599 O2602 1.301 . S
C2599 O2603 1.282 . S
O2600 U2582 2.441 . S
O2600 C2586 1.249 . S
O2601 U2582 2.420 . S
O2601 C2586 1.202 . S
O2602 U2582 2.455 . S
O2602 C2599 1.301 . S
O2603 U2582 2.449 . S
O2603 C2599 1.282 . S
H2604 C2577 0.931 . S
H2605 C2579 0.929 . S
H2606 C2580 0.930 . S
H2607 C2581 0.931 . S
H2608 C2588 0.932 . S
H2609 C2589 0.930 . S
H2610 C2590 0.929 . S
H2611 C2592 0.930 . S
H2612 C2594 0.932 . S
H2613 C2595 0.929 . S
H2614 C2596 0.928 . S
H2615 C2598 0.932 . S
C2616 C2617 1.264 . S
C2616 C2621 1.479 . S
C2616 C2626 1.465 . S
C2617 C2616 1.264 . S
C2617 C2619 1.339 . S
C2617 H2644 0.931 . S
C2618 C2619 1.395 . S
C2618 C2620 1.320 . S
C2619 C2617 1.339 . S
C2619 C2618 1.395 . S
C2619 H2645 0.929 . S
C2620 C2618 1.320 . S
C2620 C2621 1.405 . S
C2620 H2646 0.930 . S
C2621 C2616 1.479 . S
C2621 C2620 1.405 . S
C2621 H2647 0.931 . S
U2622 O2623 2.454 . S
U2622 O2624 2.458 . S
U2622 C2625 2.984 . S
U2622 C2626 2.847 . S
U2622 C2639 2.882 . S
U2622 O2640 2.441 . S
U2622 O2641 2.420 . S
U2622 O2642 2.455 . S
U2622 O2643 2.449 . S
O2623 U2622 2.454 . S
O2623 C2625 1.353 . S
O2624 U2622 2.458 . S
O2624 C2625 1.286 . S
C2625 U2622 2.984 . S
C2625 O2623 1.353 . S
C2625 O2624 1.286 . S
C2625 C2627 1.363 . S
C2626 C2616 1.465 . S
C2626 U2622 2.847 . S
C2626 O2640 1.249 . S
C2626 O2641 1.202 . S
C2627 C2625 1.363 . S
C2627 C2629 1.408 . S
C2627 C2632 1.342 . S
C2628 C2629 1.369 . S
C2628 C2631 1.440 1_556 S
C2628 H2648 0.897 1_556 S
C2629 C2627 1.408 . S
C2629 C2628 1.369 . S
C2629 H2649 0.930 . S
C2630 C2631 1.474 1_556 S
C2630 C2632 1.285 . S
C2630 H2650 0.929 . S
C2631 C2628 1.440 1_554 S
C2631 C2630 1.474 1_554 S
C2632 C2627 1.342 . S
C2632 C2630 1.285 . S
C2632 H2651 0.930 . S
C2633 C2636 1.424 . S
C2633 C2638 1.245 . S
C2633 C2639 1.428 . S
C2634 C2637 1.260 . S
C2634 C2638 1.477 . S
C2634 H2652 0.932 . S
C2635 C2636 1.384 . S
C2635 C2637 1.479 . S
C2635 H2653 0.929 . S
C2636 C2633 1.424 . S
C2636 C2635 1.384 . S
C2636 H2654 0.928 . S
C2637 C2634 1.260 . S
C2637 C2635 1.479 . S
C2638 C2633 1.245 . S
C2638 C2634 1.477 . S
C2638 H2655 0.932 . S
C2639 U2622 2.882 . S
C2639 C2633 1.428 . S
C2639 O2642 1.301 . S
C2639 O2643 1.282 . S
O2640 U2622 2.441 . S
O2640 C2626 1.249 . S
O2641 U2622 2.420 . S
O2641 C2626 1.202 . S
O2642 U2622 2.455 . S
O2642 C2639 1.301 . S
O2643 U2622 2.449 . S
O2643 C2639 1.282 . S
H2644 C2617 0.931 . S
H2645 C2619 0.929 . S
H2646 C2620 0.930 . S
H2647 C2621 0.931 . S
H2648 C2628 0.897 1_554 S
H2649 C2629 0.930 . S
H2650 C2630 0.929 . S
H2651 C2632 0.930 . S
H2652 C2634 0.932 . S
H2653 C2635 0.929 . S
H2654 C2636 0.928 . S
H2655 C2638 0.932 . S
C2656 C2657 1.264 . S
C2656 C2661 1.479 . S
C2656 C2666 1.465 . S
C2657 C2656 1.264 . S
C2657 C2659 1.339 . S
C2657 H2684 0.931 . S
C2658 C2659 1.395 . S
C2658 C2660 1.320 . S
C2659 C2657 1.339 . S
C2659 C2658 1.395 . S
C2659 H2685 0.929 . S
C2660 C2658 1.320 . S
C2660 C2661 1.405 . S
C2660 H2686 0.930 . S
C2661 C2656 1.479 . S
C2661 C2660 1.405 . S
C2661 H2687 0.931 . S
U2662 O2663 2.454 . S
U2662 O2664 2.458 . S
U2662 C2665 2.984 . S
U2662 C2666 2.847 . S
U2662 C2679 2.882 . S
U2662 O2680 2.441 . S
U2662 O2681 2.420 . S
U2662 O2682 2.455 . S
U2662 O2683 2.449 . S
O2663 U2662 2.454 . S
O2663 C2665 1.353 . S
O2664 U2662 2.458 . S
O2664 C2665 1.286 . S
C2665 U2662 2.984 . S
C2665 O2663 1.353 . S
C2665 O2664 1.286 . S
C2665 C2667 1.363 . S
C2666 C2656 1.465 . S
C2666 U2662 2.847 . S
C2666 O2680 1.249 . S
C2666 O2681 1.202 . S
C2667 C2665 1.363 . S
C2667 C2669 1.408 . S
C2667 C2672 1.342 . S
C2668 C2669 1.310 . S
C2668 C2671 1.461 . S
C2668 H2688 0.932 . S
C2669 C2667 1.408 . S
C2669 C2668 1.310 . S
C2669 H2689 0.930 . S
C2670 C2671 1.474 . S
C2670 C2672 1.285 . S
C2670 H2690 0.929 . S
C2671 C2668 1.461 . S
C2671 C2670 1.474 . S
C2672 C2667 1.342 . S
C2672 C2670 1.285 . S
C2672 H2691 0.930 . S
C2673 C2676 1.424 . S
C2673 C2678 1.245 . S
C2673 C2679 1.428 . S
C2674 C2677 1.260 . S
C2674 C2678 1.477 . S
C2674 H2692 0.932 . S
C2675 C2676 1.384 . S
C2675 C2677 1.479 . S
C2675 H2693 0.929 . S
C2676 C2673 1.424 . S
C2676 C2675 1.384 . S
C2676 H2694 0.928 . S
C2677 C2674 1.260 . S
C2677 C2675 1.479 . S
C2678 C2673 1.245 . S
C2678 C2674 1.477 . S
C2678 H2695 0.932 . S
C2679 U2662 2.882 . S
C2679 C2673 1.428 . S
C2679 O2682 1.301 . S
C2679 O2683 1.282 . S
O2680 U2662 2.441 . S
O2680 C2666 1.249 . S
O2681 U2662 2.420 . S
O2681 C2666 1.202 . S
O2682 U2662 2.455 . S
O2682 C2679 1.301 . S
O2683 U2662 2.449 . S
O2683 C2679 1.282 . S
H2684 C2657 0.931 . S
H2685 C2659 0.929 . S
H2686 C2660 0.930 . S
H2687 C2661 0.931 . S
H2688 C2668 0.932 . S
H2689 C2669 0.930 . S
H2690 C2670 0.929 . S
H2691 C2672 0.930 . S
H2692 C2674 0.932 . S
H2693 C2675 0.929 . S
H2694 C2676 0.928 . S
H2695 C2678 0.932 . S
C2696 C2697 1.264 . S
C2696 C2701 1.479 . S
C2696 C2706 1.465 . S
C2697 C2696 1.264 . S
C2697 C2699 1.339 . S
C2697 H2724 0.931 . S
C2698 C2699 1.395 . S
C2698 C2700 1.320 . S
C2699 C2697 1.339 . S
C2699 C2698 1.395 . S
C2699 H2725 0.929 . S
C2700 C2698 1.320 . S
C2700 C2701 1.405 . S
C2700 H2726 0.930 . S
C2701 C2696 1.479 . S
C2701 C2700 1.405 . S
C2701 H2727 0.931 . S
U2702 O2703 2.454 . S
U2702 O2704 2.458 . S
U2702 C2705 2.984 . S
U2702 C2706 2.847 . S
U2702 C2719 2.882 . S
U2702 O2720 2.441 . S
U2702 O2721 2.420 . S
U2702 O2722 2.455 . S
U2702 O2723 2.449 . S
O2703 U2702 2.454 . S
O2703 C2705 1.353 . S
O2704 U2702 2.458 . S
O2704 C2705 1.286 . S
C2705 U2702 2.984 . S
C2705 O2703 1.353 . S
C2705 O2704 1.286 . S
C2705 C2707 1.363 . S
C2706 C2696 1.465 . S
C2706 U2702 2.847 . S
C2706 O2720 1.249 . S
C2706 O2721 1.202 . S
C2707 C2705 1.363 . S
C2707 C2709 1.408 . S
C2707 C2712 1.342 . S
C2708 C2709 1.310 . S
C2708 C2711 1.461 . S
C2708 H2728 0.932 . S
C2709 C2707 1.408 . S
C2709 C2708 1.310 . S
C2709 H2729 0.930 . S
C2710 C2711 1.474 . S
C2710 C2712 1.285 . S
C2710 H2730 0.929 . S
C2711 C2708 1.461 . S
C2711 C2710 1.474 . S
C2712 C2707 1.342 . S
C2712 C2710 1.285 . S
C2712 H2731 0.930 . S
C2713 C2716 1.424 . S
C2713 C2718 1.245 . S
C2713 C2719 1.428 . S
C2714 C2717 1.260 . S
C2714 C2718 1.477 . S
C2714 H2732 0.932 . S
C2715 C2716 1.384 . S
C2715 C2717 1.479 . S
C2715 H2733 0.929 . S
C2716 C2713 1.424 . S
C2716 C2715 1.384 . S
C2716 H2734 0.928 . S
C2717 C2714 1.260 . S
C2717 C2715 1.479 . S
C2718 C2713 1.245 . S
C2718 C2714 1.477 . S
C2718 H2735 0.932 . S
C2719 U2702 2.882 . S
C2719 C2713 1.428 . S
C2719 O2722 1.301 . S
C2719 O2723 1.282 . S
O2720 U2702 2.441 . S
O2720 C2706 1.249 . S
O2721 U2702 2.420 . S
O2721 C2706 1.202 . S
O2722 U2702 2.455 . S
O2722 C2719 1.301 . S
O2723 U2702 2.449 . S
O2723 C2719 1.282 . S
H2724 C2697 0.931 . S
H2725 C2699 0.929 . S
H2726 C2700 0.930 . S
H2727 C2701 0.931 . S
H2728 C2708 0.932 . S
H2729 C2709 0.930 . S
H2730 C2710 0.929 . S
H2731 C2712 0.930 . S
H2732 C2714 0.932 . S
H2733 C2715 0.929 . S
H2734 C2716 0.928 . S
H2735 C2718 0.932 . S
C2736 C2737 1.264 . S
C2736 C2741 1.479 . S
C2736 C2746 1.465 . S
C2737 C2736 1.264 . S
C2737 C2739 1.339 . S
C2737 H2764 0.931 . S
C2738 C2739 1.395 . S
C2738 C2740 1.320 . S
C2739 C2737 1.339 . S
C2739 C2738 1.395 . S
C2739 H2765 0.929 . S
C2740 C2738 1.320 . S
C2740 C2741 1.405 . S
C2740 H2766 0.930 . S
C2741 C2736 1.479 . S
C2741 C2740 1.405 . S
C2741 H2767 0.931 . S
U2742 O2743 2.454 . S
U2742 O2744 2.458 . S
U2742 C2745 2.984 . S
U2742 C2746 2.847 . S
U2742 C2759 2.882 . S
U2742 O2760 2.441 . S
U2742 O2761 2.420 . S
U2742 O2762 2.455 . S
U2742 O2763 2.449 . S
O2743 U2742 2.454 . S
O2743 C2745 1.353 . S
O2744 U2742 2.458 . S
O2744 C2745 1.286 . S
C2745 U2742 2.984 . S
C2745 O2743 1.353 . S
C2745 O2744 1.286 . S
C2745 C2747 1.363 . S
C2746 C2736 1.465 . S
C2746 U2742 2.847 . S
C2746 O2760 1.249 . S
C2746 O2761 1.202 . S
C2747 C2745 1.363 . S
C2747 C2749 1.408 . S
C2747 C2752 1.342 . S
C2748 C2749 1.310 . S
C2748 C2751 1.461 . S
C2748 H2768 0.932 . S
C2749 C2747 1.408 . S
C2749 C2748 1.310 . S
C2749 H2769 0.930 . S
C2750 C2751 1.474 . S
C2750 C2752 1.285 . S
C2750 H2770 0.929 . S
C2751 C2748 1.461 . S
C2751 C2750 1.474 . S
C2752 C2747 1.342 . S
C2752 C2750 1.285 . S
C2752 H2771 0.930 . S
C2753 C2756 1.424 . S
C2753 C2758 1.245 . S
C2753 C2759 1.428 . S
C2754 C2757 1.260 . S
C2754 C2758 1.477 . S
C2754 H2772 0.932 . S
C2755 C2756 1.384 . S
C2755 C2757 1.479 . S
C2755 H2773 0.929 . S
C2756 C2753 1.424 . S
C2756 C2755 1.384 . S
C2756 H2774 0.928 . S
C2757 C2754 1.260 . S
C2757 C2755 1.479 . S
C2758 C2753 1.245 . S
C2758 C2754 1.477 . S
C2758 H2775 0.932 . S
C2759 U2742 2.882 . S
C2759 C2753 1.428 . S
C2759 O2762 1.301 . S
C2759 O2763 1.282 . S
O2760 U2742 2.441 . S
O2760 C2746 1.249 . S
O2761 U2742 2.420 . S
O2761 C2746 1.202 . S
O2762 U2742 2.455 . S
O2762 C2759 1.301 . S
O2763 U2742 2.449 . S
O2763 C2759 1.282 . S
H2764 C2737 0.931 . S
H2765 C2739 0.929 . S
H2766 C2740 0.930 . S
H2767 C2741 0.931 . S
H2768 C2748 0.932 . S
H2769 C2749 0.930 . S
H2770 C2750 0.929 . S
H2771 C2752 0.930 . S
H2772 C2754 0.932 . S
H2773 C2755 0.929 . S
H2774 C2756 0.928 . S
H2775 C2758 0.932 . S
C2776 C2777 1.264 . S
C2776 C2781 1.479 . S
C2776 C2786 1.465 . S
C2777 C2776 1.264 . S
C2777 C2779 1.339 . S
C2777 H2804 0.931 . S
C2778 C2779 1.395 . S
C2778 C2780 1.320 . S
C2779 C2777 1.339 . S
C2779 C2778 1.395 . S
C2779 H2805 0.929 . S
C2780 C2778 1.320 . S
C2780 C2781 1.405 . S
C2780 H2806 0.930 . S
C2781 C2776 1.479 . S
C2781 C2780 1.405 . S
C2781 H2807 0.931 . S
U2782 O2783 2.454 . S
U2782 O2784 2.458 . S
U2782 C2785 2.984 . S
U2782 C2786 2.847 . S
U2782 C2799 2.882 . S
U2782 O2800 2.441 . S
U2782 O2801 2.420 . S
U2782 O2802 2.455 . S
U2782 O2803 2.449 . S
O2783 U2782 2.454 . S
O2783 C2785 1.353 . S
O2784 U2782 2.458 . S
O2784 C2785 1.286 . S
C2785 U2782 2.984 . S
C2785 O2783 1.353 . S
C2785 O2784 1.286 . S
C2785 C2787 1.363 . S
C2786 C2776 1.465 . S
C2786 U2782 2.847 . S
C2786 O2800 1.249 . S
C2786 O2801 1.202 . S
C2787 C2785 1.363 . S
C2787 C2789 1.408 . S
C2787 C2792 1.342 . S
C2788 C2789 1.310 . S
C2788 C2791 1.461 . S
C2788 H2808 0.932 . S
C2789 C2787 1.408 . S
C2789 C2788 1.310 . S
C2789 H2809 0.930 . S
C2790 C2791 1.474 . S
C2790 C2792 1.285 . S
C2790 H2810 0.929 . S
C2791 C2788 1.461 . S
C2791 C2790 1.474 . S
C2792 C2787 1.342 . S
C2792 C2790 1.285 . S
C2792 H2811 0.930 . S
C2793 C2796 1.424 . S
C2793 C2798 1.245 . S
C2793 C2799 1.428 . S
C2794 C2797 1.260 . S
C2794 C2798 1.477 . S
C2794 H2812 0.932 . S
C2795 C2796 1.384 . S
C2795 C2797 1.479 . S
C2795 H2813 0.929 . S
C2796 C2793 1.424 . S
C2796 C2795 1.384 . S
C2796 H2814 0.928 . S
C2797 C2794 1.260 . S
C2797 C2795 1.479 . S
C2798 C2793 1.245 . S
C2798 C2794 1.477 . S
C2798 H2815 0.932 . S
C2799 U2782 2.882 . S
C2799 C2793 1.428 . S
C2799 O2802 1.301 . S
C2799 O2803 1.282 . S
O2800 U2782 2.441 . S
O2800 C2786 1.249 . S
O2801 U2782 2.420 . S
O2801 C2786 1.202 . S
O2802 U2782 2.455 . S
O2802 C2799 1.301 . S
O2803 U2782 2.449 . S
O2803 C2799 1.282 . S
H2804 C2777 0.931 . S
H2805 C2779 0.929 . S
H2806 C2780 0.930 . S
H2807 C2781 0.931 . S
H2808 C2788 0.932 . S
H2809 C2789 0.930 . S
H2810 C2790 0.929 . S
H2811 C2792 0.930 . S
H2812 C2794 0.932 . S
H2813 C2795 0.929 . S
H2814 C2796 0.928 . S
H2815 C2798 0.932 . S
C2816 C2817 1.264 . S
C2816 C2821 1.479 . S
C2816 C2826 1.465 . S
C2817 C2816 1.264 . S
C2817 C2819 1.339 . S
C2817 H2844 0.931 . S
C2818 C2819 1.395 . S
C2818 C2820 1.320 . S
C2819 C2817 1.339 . S
C2819 C2818 1.395 . S
C2819 H2845 0.929 . S
C2820 C2818 1.320 . S
C2820 C2821 1.405 . S
C2820 H2846 0.930 . S
C2821 C2816 1.479 . S
C2821 C2820 1.405 . S
C2821 H2847 0.931 . S
U2822 O2823 2.454 . S
U2822 O2824 2.458 . S
U2822 C2825 2.984 . S
U2822 C2826 2.847 . S
U2822 C2839 2.882 . S
U2822 O2840 2.441 . S
U2822 O2841 2.420 . S
U2822 O2842 2.455 . S
U2822 O2843 2.449 . S
O2823 U2822 2.454 . S
O2823 C2825 1.353 . S
O2824 U2822 2.458 . S
O2824 C2825 1.286 . S
C2825 U2822 2.984 . S
C2825 O2823 1.353 . S
C2825 O2824 1.286 . S
C2825 C2827 1.363 . S
C2826 C2816 1.465 . S
C2826 U2822 2.847 . S
C2826 O2840 1.249 . S
C2826 O2841 1.202 . S
C2827 C2825 1.363 . S
C2827 C2829 1.408 . S
C2827 C2832 1.342 . S
C2828 C2829 1.368 . S
C2828 C2831 1.440 1_565 S
C2828 H2848 0.897 1_565 S
C2829 C2827 1.408 . S
C2829 C2828 1.368 . S
C2829 H2849 0.930 . S
C2830 C2831 1.474 1_565 S
C2830 C2832 1.285 . S
C2830 H2850 0.929 . S
C2831 C2828 1.440 1_545 S
C2831 C2830 1.474 1_545 S
C2832 C2827 1.342 . S
C2832 C2830 1.285 . S
C2832 H2851 0.930 . S
C2833 C2836 1.424 . S
C2833 C2838 1.245 . S
C2833 C2839 1.428 . S
C2834 C2837 1.260 . S
C2834 C2838 1.477 . S
C2834 H2852 0.932 . S
C2835 C2836 1.384 . S
C2835 C2837 1.479 . S
C2835 H2853 0.929 . S
C2836 C2833 1.424 . S
C2836 C2835 1.384 . S
C2836 H2854 0.928 . S
C2837 C2834 1.260 . S
C2837 C2835 1.479 . S
C2838 C2833 1.245 . S
C2838 C2834 1.477 . S
C2838 H2855 0.932 . S
C2839 U2822 2.882 . S
C2839 C2833 1.428 . S
C2839 O2842 1.301 . S
C2839 O2843 1.282 . S
O2840 U2822 2.441 . S
O2840 C2826 1.249 . S
O2841 U2822 2.420 . S
O2841 C2826 1.202 . S
O2842 U2822 2.455 . S
O2842 C2839 1.301 . S
O2843 U2822 2.449 . S
O2843 C2839 1.282 . S
H2844 C2817 0.931 . S
H2845 C2819 0.929 . S
H2846 C2820 0.930 . S
H2847 C2821 0.931 . S
H2848 C2828 0.897 1_545 S
H2849 C2829 0.930 . S
H2850 C2830 0.929 . S
H2851 C2832 0.930 . S
H2852 C2834 0.932 . S
H2853 C2835 0.929 . S
H2854 C2836 0.928 . S
H2855 C2838 0.932 . S
C2856 C2857 1.264 . S
C2856 C2861 1.479 . S
C2856 C2866 1.465 . S
C2857 C2856 1.264 . S
C2857 C2859 1.339 . S
C2857 H2884 0.931 . S
C2858 C2859 1.395 . S
C2858 C2860 1.320 . S
C2859 C2857 1.339 . S
C2859 C2858 1.395 . S
C2859 H2885 0.929 . S
C2860 C2858 1.320 . S
C2860 C2861 1.405 . S
C2860 H2886 0.930 . S
C2861 C2856 1.479 . S
C2861 C2860 1.405 . S
C2861 H2887 0.931 . S
U2862 O2863 2.454 . S
U2862 O2864 2.458 . S
U2862 C2865 2.984 . S
U2862 C2866 2.847 . S
U2862 C2879 2.882 . S
U2862 O2880 2.441 . S
U2862 O2881 2.420 . S
U2862 O2882 2.455 . S
U2862 O2883 2.449 . S
O2863 U2862 2.454 . S
O2863 C2865 1.353 . S
O2864 U2862 2.458 . S
O2864 C2865 1.286 . S
C2865 U2862 2.984 . S
C2865 O2863 1.353 . S
C2865 O2864 1.286 . S
C2865 C2867 1.363 . S
C2866 C2856 1.465 . S
C2866 U2862 2.847 . S
C2866 O2880 1.249 . S
C2866 O2881 1.202 . S
C2867 C2865 1.363 . S
C2867 C2869 1.408 . S
C2867 C2872 1.342 . S
C2868 C2869 1.310 . S
C2868 C2871 1.461 . S
C2868 H2888 0.932 . S
C2869 C2867 1.408 . S
C2869 C2868 1.310 . S
C2869 H2889 0.930 . S
C2870 C2871 1.474 . S
C2870 C2872 1.285 . S
C2870 H2890 0.929 . S
C2871 C2868 1.461 . S
C2871 C2870 1.474 . S
C2872 C2867 1.342 . S
C2872 C2870 1.285 . S
C2872 H2891 0.930 . S
C2873 C2876 1.424 . S
C2873 C2878 1.245 . S
C2873 C2879 1.428 . S
C2874 C2877 1.260 . S
C2874 C2878 1.477 . S
C2874 H2892 0.932 . S
C2875 C2876 1.384 . S
C2875 C2877 1.479 . S
C2875 H2893 0.929 . S
C2876 C2873 1.424 . S
C2876 C2875 1.384 . S
C2876 H2894 0.928 . S
C2877 C2874 1.260 . S
C2877 C2875 1.479 . S
C2878 C2873 1.245 . S
C2878 C2874 1.477 . S
C2878 H2895 0.932 . S
C2879 U2862 2.882 . S
C2879 C2873 1.428 . S
C2879 O2882 1.301 . S
C2879 O2883 1.282 . S
O2880 U2862 2.441 . S
O2880 C2866 1.249 . S
O2881 U2862 2.420 . S
O2881 C2866 1.202 . S
O2882 U2862 2.455 . S
O2882 C2879 1.301 . S
O2883 U2862 2.449 . S
O2883 C2879 1.282 . S
H2884 C2857 0.931 . S
H2885 C2859 0.929 . S
H2886 C2860 0.930 . S
H2887 C2861 0.931 . S
H2888 C2868 0.932 . S
H2889 C2869 0.930 . S
H2890 C2870 0.929 . S
H2891 C2872 0.930 . S
H2892 C2874 0.932 . S
H2893 C2875 0.929 . S
H2894 C2876 0.928 . S
H2895 C2878 0.932 . S
C2896 C2897 1.264 . S
C2896 C2901 1.479 . S
C2896 C2906 1.465 . S
C2897 C2896 1.264 . S
C2897 C2899 1.339 . S
C2897 H2924 0.931 . S
C2898 C2899 1.395 . S
C2898 C2900 1.320 . S
C2899 C2897 1.339 . S
C2899 C2898 1.395 . S
C2899 H2925 0.929 . S
C2900 C2898 1.320 . S
C2900 C2901 1.405 . S
C2900 H2926 0.930 . S
C2901 C2896 1.479 . S
C2901 C2900 1.405 . S
C2901 H2927 0.931 . S
U2902 O2903 2.454 . S
U2902 O2904 2.458 . S
U2902 C2905 2.984 . S
U2902 C2906 2.847 . S
U2902 C2919 2.882 . S
U2902 O2920 2.441 . S
U2902 O2921 2.420 . S
U2902 O2922 2.455 . S
U2902 O2923 2.449 . S
O2903 U2902 2.454 . S
O2903 C2905 1.353 . S
O2904 U2902 2.458 . S
O2904 C2905 1.286 . S
C2905 U2902 2.984 . S
C2905 O2903 1.353 . S
C2905 O2904 1.286 . S
C2905 C2907 1.363 . S
C2906 C2896 1.465 . S
C2906 U2902 2.847 . S
C2906 O2920 1.249 . S
C2906 O2921 1.202 . S
C2907 C2905 1.363 . S
C2907 C2909 1.408 . S
C2907 C2912 1.342 . S
C2908 C2909 1.310 . S
C2908 C2911 1.461 . S
C2908 H2928 0.932 . S
C2909 C2907 1.408 . S
C2909 C2908 1.310 . S
C2909 H2929 0.930 . S
C2910 C2911 1.474 . S
C2910 C2912 1.285 . S
C2910 H2930 0.929 . S
C2911 C2908 1.461 . S
C2911 C2910 1.474 . S
C2912 C2907 1.342 . S
C2912 C2910 1.285 . S
C2912 H2931 0.930 . S
C2913 C2916 1.424 . S
C2913 C2918 1.245 . S
C2913 C2919 1.428 . S
C2914 C2917 1.260 . S
C2914 C2918 1.477 . S
C2914 H2932 0.932 . S
C2915 C2916 1.384 . S
C2915 C2917 1.479 . S
C2915 H2933 0.929 . S
C2916 C2913 1.424 . S
C2916 C2915 1.384 . S
C2916 H2934 0.928 . S
C2917 C2914 1.260 . S
C2917 C2915 1.479 . S
C2918 C2913 1.245 . S
C2918 C2914 1.477 . S
C2918 H2935 0.932 . S
C2919 U2902 2.882 . S
C2919 C2913 1.428 . S
C2919 O2922 1.301 . S
C2919 O2923 1.282 . S
O2920 U2902 2.441 . S
O2920 C2906 1.249 . S
O2921 U2902 2.420 . S
O2921 C2906 1.202 . S
O2922 U2902 2.455 . S
O2922 C2919 1.301 . S
O2923 U2902 2.449 . S
O2923 C2919 1.282 . S
H2924 C2897 0.931 . S
H2925 C2899 0.929 . S
H2926 C2900 0.930 . S
H2927 C2901 0.931 . S
H2928 C2908 0.932 . S
H2929 C2909 0.930 . S
H2930 C2910 0.929 . S
H2931 C2912 0.930 . S
H2932 C2914 0.932 . S
H2933 C2915 0.929 . S
H2934 C2916 0.928 . S
H2935 C2918 0.932 . S
C2936 C2937 1.264 . S
C2936 C2941 1.479 . S
C2936 C2946 1.465 . S
C2937 C2936 1.264 . S
C2937 C2939 1.339 . S
C2937 H2964 0.931 . S
C2938 C2939 1.395 . S
C2938 C2940 1.320 . S
C2939 C2937 1.339 . S
C2939 C2938 1.395 . S
C2939 H2965 0.929 . S
C2940 C2938 1.320 . S
C2940 C2941 1.405 . S
C2940 H2966 0.930 . S
C2941 C2936 1.479 . S
C2941 C2940 1.405 . S
C2941 H2967 0.931 . S
U2942 O2943 2.454 . S
U2942 O2944 2.458 . S
U2942 C2945 2.984 . S
U2942 C2946 2.847 . S
U2942 C2959 2.882 . S
U2942 O2960 2.441 . S
U2942 O2961 2.420 . S
U2942 O2962 2.455 . S
U2942 O2963 2.449 . S
O2943 U2942 2.454 . S
O2943 C2945 1.353 . S
O2944 U2942 2.458 . S
O2944 C2945 1.286 . S
C2945 U2942 2.984 . S
C2945 O2943 1.353 . S
C2945 O2944 1.286 . S
C2945 C2947 1.363 . S
C2946 C2936 1.465 . S
C2946 U2942 2.847 . S
C2946 O2960 1.249 . S
C2946 O2961 1.202 . S
C2947 C2945 1.363 . S
C2947 C2949 1.408 . S
C2947 C2952 1.342 . S
C2948 C2949 1.310 . S
C2948 C2951 1.461 . S
C2948 H2968 0.932 . S
C2949 C2947 1.408 . S
C2949 C2948 1.310 . S
C2949 H2969 0.930 . S
C2950 C2951 1.474 . S
C2950 C2952 1.285 . S
C2950 H2970 0.929 . S
C2951 C2948 1.461 . S
C2951 C2950 1.474 . S
C2952 C2947 1.342 . S
C2952 C2950 1.285 . S
C2952 H2971 0.930 . S
C2953 C2956 1.424 . S
C2953 C2958 1.245 . S
C2953 C2959 1.428 . S
C2954 C2957 1.260 . S
C2954 C2958 1.477 . S
C2954 H2972 0.932 . S
C2955 C2956 1.384 . S
C2955 C2957 1.479 . S
C2955 H2973 0.929 . S
C2956 C2953 1.424 . S
C2956 C2955 1.384 . S
C2956 H2974 0.928 . S
C2957 C2954 1.260 . S
C2957 C2955 1.479 . S
C2958 C2953 1.245 . S
C2958 C2954 1.477 . S
C2958 H2975 0.932 . S
C2959 U2942 2.882 . S
C2959 C2953 1.428 . S
C2959 O2962 1.301 . S
C2959 O2963 1.282 . S
O2960 U2942 2.441 . S
O2960 C2946 1.249 . S
O2961 U2942 2.420 . S
O2961 C2946 1.202 . S
O2962 U2942 2.455 . S
O2962 C2959 1.301 . S
O2963 U2942 2.449 . S
O2963 C2959 1.282 . S
H2964 C2937 0.931 . S
H2965 C2939 0.929 . S
H2966 C2940 0.930 . S
H2967 C2941 0.931 . S
H2968 C2948 0.932 . S
H2969 C2949 0.930 . S
H2970 C2950 0.929 . S
H2971 C2952 0.930 . S
H2972 C2954 0.932 . S
H2973 C2955 0.929 . S
H2974 C2956 0.928 . S
H2975 C2958 0.932 . S
C2976 C2977 1.264 . S
C2976 C2981 1.479 . S
C2976 C2986 1.465 . S
C2977 C2976 1.264 . S
C2977 C2979 1.339 . S
C2977 H3004 0.931 . S
C2978 C2979 1.395 . S
C2978 C2980 1.320 . S
C2979 C2977 1.339 . S
C2979 C2978 1.395 . S
C2979 H3005 0.929 . S
C2980 C2978 1.320 . S
C2980 C2981 1.405 . S
C2980 H3006 0.930 . S
C2981 C2976 1.479 . S
C2981 C2980 1.405 . S
C2981 H3007 0.931 . S
U2982 O2983 2.454 . S
U2982 O2984 2.458 . S
U2982 C2985 2.984 . S
U2982 C2986 2.847 . S
U2982 C2999 2.882 . S
U2982 O3000 2.441 . S
U2982 O3001 2.420 . S
U2982 O3002 2.455 . S
U2982 O3003 2.449 . S
O2983 U2982 2.454 . S
O2983 C2985 1.353 . S
O2984 U2982 2.458 . S
O2984 C2985 1.286 . S
C2985 U2982 2.984 . S
C2985 O2983 1.353 . S
C2985 O2984 1.286 . S
C2985 C2987 1.363 . S
C2986 C2976 1.465 . S
C2986 U2982 2.847 . S
C2986 O3000 1.249 . S
C2986 O3001 1.202 . S
C2987 C2985 1.363 . S
C2987 C2989 1.408 . S
C2987 C2992 1.342 . S
C2988 C2989 1.310 . S
C2988 C2991 1.461 . S
C2988 H3008 0.932 . S
C2989 C2987 1.408 . S
C2989 C2988 1.310 . S
C2989 H3009 0.930 . S
C2990 C2991 1.474 . S
C2990 C2992 1.285 . S
C2990 H3010 0.929 . S
C2991 C2988 1.461 . S
C2991 C2990 1.474 . S
C2992 C2987 1.342 . S
C2992 C2990 1.285 . S
C2992 H3011 0.930 . S
C2993 C2996 1.424 . S
C2993 C2998 1.245 . S
C2993 C2999 1.428 . S
C2994 C2997 1.260 . S
C2994 C2998 1.477 . S
C2994 H3012 0.932 . S
C2995 C2996 1.384 . S
C2995 C2997 1.479 . S
C2995 H3013 0.929 . S
C2996 C2993 1.424 . S
C2996 C2995 1.384 . S
C2996 H3014 0.928 . S
C2997 C2994 1.260 . S
C2997 C2995 1.479 . S
C2998 C2993 1.245 . S
C2998 C2994 1.477 . S
C2998 H3015 0.932 . S
C2999 U2982 2.882 . S
C2999 C2993 1.428 . S
C2999 O3002 1.301 . S
C2999 O3003 1.282 . S
O3000 U2982 2.441 . S
O3000 C2986 1.249 . S
O3001 U2982 2.420 . S
O3001 C2986 1.202 . S
O3002 U2982 2.455 . S
O3002 C2999 1.301 . S
O3003 U2982 2.449 . S
O3003 C2999 1.282 . S
H3004 C2977 0.931 . S
H3005 C2979 0.929 . S
H3006 C2980 0.930 . S
H3007 C2981 0.931 . S
H3008 C2988 0.932 . S
H3009 C2989 0.930 . S
H3010 C2990 0.929 . S
H3011 C2992 0.930 . S
H3012 C2994 0.932 . S
H3013 C2995 0.929 . S
H3014 C2996 0.928 . S
H3015 C2998 0.932 . S
C3016 C3017 1.264 . S
C3016 C3021 1.479 . S
C3016 C3026 1.465 . S
C3017 C3016 1.264 . S
C3017 C3019 1.339 . S
C3017 H3044 0.931 . S
C3018 C3019 1.395 . S
C3018 C3020 1.320 . S
C3019 C3017 1.339 . S
C3019 C3018 1.395 . S
C3019 H3045 0.929 . S
C3020 C3018 1.320 . S
C3020 C3021 1.405 . S
C3020 H3046 0.930 . S
C3021 C3016 1.479 . S
C3021 C3020 1.405 . S
C3021 H3047 0.931 . S
U3022 O3023 2.454 . S
U3022 O3024 2.458 . S
U3022 C3025 2.984 . S
U3022 C3026 2.847 . S
U3022 C3039 2.882 . S
U3022 O3040 2.441 . S
U3022 O3041 2.420 . S
U3022 O3042 2.455 . S
U3022 O3043 2.449 . S
O3023 U3022 2.454 . S
O3023 C3025 1.353 . S
O3024 U3022 2.458 . S
O3024 C3025 1.286 . S
C3025 U3022 2.984 . S
C3025 O3023 1.353 . S
C3025 O3024 1.286 . S
C3025 C3027 1.363 . S
C3026 C3016 1.465 . S
C3026 U3022 2.847 . S
C3026 O3040 1.249 . S
C3026 O3041 1.202 . S
C3027 C3025 1.363 . S
C3027 C3029 1.408 . S
C3027 C3032 1.342 . S
C3028 C3029 1.310 . S
C3028 C3031 1.461 . S
C3028 H3048 0.932 . S
C3029 C3027 1.408 . S
C3029 C3028 1.310 . S
C3029 H3049 0.930 . S
C3030 C3031 1.474 . S
C3030 C3032 1.285 . S
C3030 H3050 0.929 . S
C3031 C3028 1.461 . S
C3031 C3030 1.474 . S
C3032 C3027 1.342 . S
C3032 C3030 1.285 . S
C3032 H3051 0.930 . S
C3033 C3036 1.424 . S
C3033 C3038 1.245 . S
C3033 C3039 1.428 . S
C3034 C3037 1.260 . S
C3034 C3038 1.477 . S
C3034 H3052 0.932 . S
C3035 C3036 1.384 . S
C3035 C3037 1.479 . S
C3035 H3053 0.929 . S
C3036 C3033 1.424 . S
C3036 C3035 1.384 . S
C3036 H3054 0.928 . S
C3037 C3034 1.260 . S
C3037 C3035 1.479 . S
C3038 C3033 1.245 . S
C3038 C3034 1.477 . S
C3038 H3055 0.932 . S
C3039 U3022 2.882 . S
C3039 C3033 1.428 . S
C3039 O3042 1.301 . S
C3039 O3043 1.282 . S
O3040 U3022 2.441 . S
O3040 C3026 1.249 . S
O3041 U3022 2.420 . S
O3041 C3026 1.202 . S
O3042 U3022 2.455 . S
O3042 C3039 1.301 . S
O3043 U3022 2.449 . S
O3043 C3039 1.282 . S
H3044 C3017 0.931 . S
H3045 C3019 0.929 . S
H3046 C3020 0.930 . S
H3047 C3021 0.931 . S
H3048 C3028 0.932 . S
H3049 C3029 0.930 . S
H3050 C3030 0.929 . S
H3051 C3032 0.930 . S
H3052 C3034 0.932 . S
H3053 C3035 0.929 . S
H3054 C3036 0.928 . S
H3055 C3038 0.932 . S
C3056 C3057 1.264 . S
C3056 C3061 1.479 . S
C3056 C3066 1.465 . S
C3057 C3056 1.264 . S
C3057 C3059 1.339 . S
C3057 H3084 0.931 . S
C3058 C3059 1.395 . S
C3058 C3060 1.320 . S
C3059 C3057 1.339 . S
C3059 C3058 1.395 . S
C3059 H3085 0.929 . S
C3060 C3058 1.320 . S
C3060 C3061 1.405 . S
C3060 H3086 0.930 . S
C3061 C3056 1.479 . S
C3061 C3060 1.405 . S
C3061 H3087 0.931 . S
U3062 O3063 2.454 . S
U3062 O3064 2.458 . S
U3062 C3065 2.984 . S
U3062 C3066 2.847 . S
U3062 C3079 2.882 . S
U3062 O3080 2.441 . S
U3062 O3081 2.420 . S
U3062 O3082 2.455 . S
U3062 O3083 2.449 . S
O3063 U3062 2.454 . S
O3063 C3065 1.353 . S
O3064 U3062 2.458 . S
O3064 C3065 1.286 . S
C3065 U3062 2.984 . S
C3065 O3063 1.353 . S
C3065 O3064 1.286 . S
C3065 C3067 1.363 . S
C3066 C3056 1.465 . S
C3066 U3062 2.847 . S
C3066 O3080 1.249 . S
C3066 O3081 1.202 . S
C3067 C3065 1.363 . S
C3067 C3069 1.408 . S
C3067 C3072 1.342 . S
C3068 C3069 1.310 . S
C3068 C3071 1.461 . S
C3068 H3088 0.932 . S
C3069 C3067 1.408 . S
C3069 C3068 1.310 . S
C3069 H3089 0.930 . S
C3070 C3071 1.474 . S
C3070 C3072 1.285 . S
C3070 H3090 0.929 . S
C3071 C3068 1.461 . S
C3071 C3070 1.474 . S
C3072 C3067 1.342 . S
C3072 C3070 1.285 . S
C3072 H3091 0.930 . S
C3073 C3076 1.424 . S
C3073 C3078 1.245 . S
C3073 C3079 1.428 . S
C3074 C3077 1.260 . S
C3074 C3078 1.477 . S
C3074 H3092 0.932 . S
C3075 C3076 1.384 . S
C3075 C3077 1.479 . S
C3075 H3093 0.929 . S
C3076 C3073 1.424 . S
C3076 C3075 1.384 . S
C3076 H3094 0.928 . S
C3077 C3074 1.260 . S
C3077 C3075 1.479 . S
C3078 C3073 1.245 . S
C3078 C3074 1.477 . S
C3078 H3095 0.932 . S
C3079 U3062 2.882 . S
C3079 C3073 1.428 . S
C3079 O3082 1.301 . S
C3079 O3083 1.282 . S
O3080 U3062 2.441 . S
O3080 C3066 1.249 . S
O3081 U3062 2.420 . S
O3081 C3066 1.202 . S
O3082 U3062 2.455 . S
O3082 C3079 1.301 . S
O3083 U3062 2.449 . S
O3083 C3079 1.282 . S
H3084 C3057 0.931 . S
H3085 C3059 0.929 . S
H3086 C3060 0.930 . S
H3087 C3061 0.931 . S
H3088 C3068 0.932 . S
H3089 C3069 0.930 . S
H3090 C3070 0.929 . S
H3091 C3072 0.930 . S
H3092 C3074 0.932 . S
H3093 C3075 0.929 . S
H3094 C3076 0.928 . S
H3095 C3078 0.932 . S
C3096 C3097 1.264 . S
C3096 C3101 1.479 . S
C3096 C3106 1.465 . S
C3097 C3096 1.264 . S
C3097 C3099 1.339 . S
C3097 H3124 0.931 . S
C3098 C3099 1.395 . S
C3098 C3100 1.320 . S
C3099 C3097 1.339 . S
C3099 C3098 1.395 . S
C3099 H3125 0.929 . S
C3100 C3098 1.320 . S
C3100 C3101 1.405 . S
C3100 H3126 0.930 . S
C3101 C3096 1.479 . S
C3101 C3100 1.405 . S
C3101 H3127 0.931 . S
U3102 O3103 2.454 . S
U3102 O3104 2.458 . S
U3102 C3105 2.984 . S
U3102 C3106 2.847 . S
U3102 C3119 2.882 . S
U3102 O3120 2.441 . S
U3102 O3121 2.420 . S
U3102 O3122 2.455 . S
U3102 O3123 2.449 . S
O3103 U3102 2.454 . S
O3103 C3105 1.353 . S
O3104 U3102 2.458 . S
O3104 C3105 1.286 . S
C3105 U3102 2.984 . S
C3105 O3103 1.353 . S
C3105 O3104 1.286 . S
C3105 C3107 1.363 . S
C3106 C3096 1.465 . S
C3106 U3102 2.847 . S
C3106 O3120 1.249 . S
C3106 O3121 1.202 . S
C3107 C3105 1.363 . S
C3107 C3109 1.408 . S
C3107 C3112 1.342 . S
C3108 C3109 1.299 1_455 S
C3108 C3111 1.465 . S
C3108 H3128 0.940 . S
C3109 C3107 1.408 . S
C3109 C3108 1.299 1_655 S
C3109 H3129 0.930 . S
C3110 C3111 1.474 1_655 S
C3110 C3112 1.285 . S
C3110 H3130 0.929 . S
C3111 C3108 1.465 . S
C3111 C3110 1.474 1_455 S
C3112 C3107 1.342 . S
C3112 C3110 1.285 . S
C3112 H3131 0.930 . S
C3113 C3116 1.424 . S
C3113 C3118 1.245 . S
C3113 C3119 1.428 . S
C3114 C3117 1.260 . S
C3114 C3118 1.477 . S
C3114 H3132 0.932 . S
C3115 C3116 1.384 . S
C3115 C3117 1.479 . S
C3115 H3133 0.929 . S
C3116 C3113 1.424 . S
C3116 C3115 1.384 . S
C3116 H3134 0.928 . S
C3117 C3114 1.260 . S
C3117 C3115 1.479 . S
C3118 C3113 1.245 . S
C3118 C3114 1.477 . S
C3118 H3135 0.932 . S
C3119 U3102 2.882 . S
C3119 C3113 1.428 . S
C3119 O3122 1.301 . S
C3119 O3123 1.282 . S
O3120 U3102 2.441 . S
O3120 C3106 1.249 . S
O3121 U3102 2.420 . S
O3121 C3106 1.202 . S
O3122 U3102 2.455 . S
O3122 C3119 1.301 . S
O3123 U3102 2.449 . S
O3123 C3119 1.282 . S
H3124 C3097 0.931 . S
H3125 C3099 0.929 . S
H3126 C3100 0.930 . S
H3127 C3101 0.931 . S
H3128 C3108 0.940 . S
H3129 C3109 0.930 . S
H3130 C3110 0.929 . S
H3131 C3112 0.930 . S
H3132 C3114 0.932 . S
H3133 C3115 0.929 . S
H3134 C3116 0.928 . S
H3135 C3118 0.932 . S
C3136 C3137 1.264 . S
C3136 C3141 1.479 . S
C3136 C3146 1.465 . S
C3137 C3136 1.264 . S
C3137 C3139 1.339 . S
C3137 H3164 0.931 . S
C3138 C3139 1.395 . S
C3138 C3140 1.320 . S
C3139 C3137 1.339 . S
C3139 C3138 1.395 . S
C3139 H3165 0.929 . S
C3140 C3138 1.320 . S
C3140 C3141 1.405 . S
C3140 H3166 0.930 . S
C3141 C3136 1.479 . S
C3141 C3140 1.405 . S
C3141 H3167 0.931 . S
U3142 O3143 2.454 . S
U3142 O3144 2.458 . S
U3142 C3145 2.984 . S
U3142 C3146 2.847 . S
U3142 C3159 2.882 . S
U3142 O3160 2.441 . S
U3142 O3161 2.420 . S
U3142 O3162 2.455 . S
U3142 O3163 2.449 . S
O3143 U3142 2.454 . S
O3143 C3145 1.353 . S
O3144 U3142 2.458 . S
O3144 C3145 1.286 . S
C3145 U3142 2.984 . S
C3145 O3143 1.353 . S
C3145 O3144 1.286 . S
C3145 C3147 1.363 . S
C3146 C3136 1.465 . S
C3146 U3142 2.847 . S
C3146 O3160 1.249 . S
C3146 O3161 1.202 . S
C3147 C3145 1.363 . S
C3147 C3149 1.408 . S
C3147 C3152 1.342 . S
C3148 C3149 1.310 . S
C3148 C3151 1.461 . S
C3148 H3168 0.932 . S
C3149 C3147 1.408 . S
C3149 C3148 1.310 . S
C3149 H3169 0.930 . S
C3150 C3151 1.474 . S
C3150 C3152 1.285 . S
C3150 H3170 0.929 . S
C3151 C3148 1.461 . S
C3151 C3150 1.474 . S
C3152 C3147 1.342 . S
C3152 C3150 1.285 . S
C3152 H3171 0.930 . S
C3153 C3156 1.424 . S
C3153 C3158 1.245 . S
C3153 C3159 1.428 . S
C3154 C3157 1.260 . S
C3154 C3158 1.477 . S
C3154 H3172 0.932 . S
C3155 C3156 1.384 . S
C3155 C3157 1.479 . S
C3155 H3173 0.929 . S
C3156 C3153 1.424 . S
C3156 C3155 1.384 . S
C3156 H3174 0.928 . S
C3157 C3154 1.260 . S
C3157 C3155 1.479 . S
C3158 C3153 1.245 . S
C3158 C3154 1.477 . S
C3158 H3175 0.932 . S
C3159 U3142 2.882 . S
C3159 C3153 1.428 . S
C3159 O3162 1.301 . S
C3159 O3163 1.282 . S
O3160 U3142 2.441 . S
O3160 C3146 1.249 . S
O3161 U3142 2.420 . S
O3161 C3146 1.202 . S
O3162 U3142 2.455 . S
O3162 C3159 1.301 . S
O3163 U3142 2.449 . S
O3163 C3159 1.282 . S
H3164 C3137 0.931 . S
H3165 C3139 0.929 . S
H3166 C3140 0.930 . S
H3167 C3141 0.931 . S
H3168 C3148 0.932 . S
H3169 C3149 0.930 . S
H3170 C3150 0.929 . S
H3171 C3152 0.930 . S
H3172 C3154 0.932 . S
H3173 C3155 0.929 . S
H3174 C3156 0.928 . S
H3175 C3158 0.932 . S
C3176 C3177 1.264 . S
C3176 C3181 1.479 . S
C3176 C3186 1.465 . S
C3177 C3176 1.264 . S
C3177 C3179 1.339 . S
C3177 H3204 0.931 . S
C3178 C3179 1.395 . S
C3178 C3180 1.320 . S
C3179 C3177 1.339 . S
C3179 C3178 1.395 . S
C3179 H3205 0.929 . S
C3180 C3178 1.320 . S
C3180 C3181 1.405 . S
C3180 H3206 0.930 . S
C3181 C3176 1.479 . S
C3181 C3180 1.405 . S
C3181 H3207 0.931 . S
U3182 O3183 2.454 . S
U3182 O3184 2.458 . S
U3182 C3185 2.984 . S
U3182 C3186 2.847 . S
U3182 C3199 2.882 . S
U3182 O3200 2.441 . S
U3182 O3201 2.420 . S
U3182 O3202 2.455 . S
U3182 O3203 2.449 . S
O3183 U3182 2.454 . S
O3183 C3185 1.353 . S
O3184 U3182 2.458 . S
O3184 C3185 1.286 . S
C3185 U3182 2.984 . S
C3185 O3183 1.353 . S
C3185 O3184 1.286 . S
C3185 C3187 1.363 . S
C3186 C3176 1.465 . S
C3186 U3182 2.847 . S
C3186 O3200 1.249 . S
C3186 O3201 1.202 . S
C3187 C3185 1.363 . S
C3187 C3189 1.408 . S
C3187 C3192 1.342 . S
C3188 C3189 1.299 1_455 S
C3188 C3191 1.465 . S
C3188 H3208 0.939 . S
C3189 C3187 1.408 . S
C3189 C3188 1.299 1_655 S
C3189 H3209 0.930 . S
C3190 C3191 1.474 1_655 S
C3190 C3192 1.285 . S
C3190 H3210 0.929 . S
C3191 C3188 1.465 . S
C3191 C3190 1.474 1_455 S
C3192 C3187 1.342 . S
C3192 C3190 1.285 . S
C3192 H3211 0.930 . S
C3193 C3196 1.424 . S
C3193 C3198 1.245 . S
C3193 C3199 1.428 . S
C3194 C3197 1.260 . S
C3194 C3198 1.477 . S
C3194 H3212 0.932 . S
C3195 C3196 1.384 . S
C3195 C3197 1.479 . S
C3195 H3213 0.929 . S
C3196 C3193 1.424 . S
C3196 C3195 1.384 . S
C3196 H3214 0.928 . S
C3197 C3194 1.260 . S
C3197 C3195 1.479 . S
C3198 C3193 1.245 . S
C3198 C3194 1.477 . S
C3198 H3215 0.932 . S
C3199 U3182 2.882 . S
C3199 C3193 1.428 . S
C3199 O3202 1.301 . S
C3199 O3203 1.282 . S
O3200 U3182 2.441 . S
O3200 C3186 1.249 . S
O3201 U3182 2.420 . S
O3201 C3186 1.202 . S
O3202 U3182 2.455 . S
O3202 C3199 1.301 . S
O3203 U3182 2.449 . S
O3203 C3199 1.282 . S
H3204 C3177 0.931 . S
H3205 C3179 0.929 . S
H3206 C3180 0.930 . S
H3207 C3181 0.931 . S
H3208 C3188 0.939 . S
H3209 C3189 0.930 . S
H3210 C3190 0.929 . S
H3211 C3192 0.930 . S
H3212 C3194 0.932 . S
H3213 C3195 0.929 . S
H3214 C3196 0.928 . S
H3215 C3198 0.932 . S
C3216 C3217 1.264 . S
C3216 C3221 1.479 . S
C3216 C3226 1.465 . S
C3217 C3216 1.264 . S
C3217 C3219 1.339 . S
C3217 H3244 0.931 . S
C3218 C3219 1.395 . S
C3218 C3220 1.320 . S
C3219 C3217 1.339 . S
C3219 C3218 1.395 . S
C3219 H3245 0.929 . S
C3220 C3218 1.320 . S
C3220 C3221 1.405 . S
C3220 H3246 0.930 . S
C3221 C3216 1.479 . S
C3221 C3220 1.405 . S
C3221 H3247 0.931 . S
U3222 O3223 2.454 . S
U3222 O3224 2.458 . S
U3222 C3225 2.984 . S
U3222 C3226 2.847 . S
U3222 C3239 2.882 . S
U3222 O3240 2.441 . S
U3222 O3241 2.420 . S
U3222 O3242 2.455 . S
U3222 O3243 2.449 . S
O3223 U3222 2.454 . S
O3223 C3225 1.353 . S
O3224 U3222 2.458 . S
O3224 C3225 1.286 . S
C3225 U3222 2.984 . S
C3225 O3223 1.353 . S
C3225 O3224 1.286 . S
C3225 C3227 1.363 . S
C3226 C3216 1.465 . S
C3226 U3222 2.847 . S
C3226 O3240 1.249 . S
C3226 O3241 1.202 . S
C3227 C3225 1.363 . S
C3227 C3229 1.408 . S
C3227 C3232 1.342 . S
C3228 C3229 1.310 . S
C3228 C3231 1.461 . S
C3228 H3248 0.932 . S
C3229 C3227 1.408 . S
C3229 C3228 1.310 . S
C3229 H3249 0.930 . S
C3230 C3231 1.474 . S
C3230 C3232 1.285 . S
C3230 H3250 0.929 . S
C3231 C3228 1.461 . S
C3231 C3230 1.474 . S
C3232 C3227 1.342 . S
C3232 C3230 1.285 . S
C3232 H3251 0.930 . S
C3233 C3236 1.424 . S
C3233 C3238 1.245 . S
C3233 C3239 1.428 . S
C3234 C3237 1.260 . S
C3234 C3238 1.477 . S
C3234 H3252 0.932 . S
C3235 C3236 1.384 . S
C3235 C3237 1.479 . S
C3235 H3253 0.929 . S
C3236 C3233 1.424 . S
C3236 C3235 1.384 . S
C3236 H3254 0.928 . S
C3237 C3234 1.260 . S
C3237 C3235 1.479 . S
C3238 C3233 1.245 . S
C3238 C3234 1.477 . S
C3238 H3255 0.932 . S
C3239 U3222 2.882 . S
C3239 C3233 1.428 . S
C3239 O3242 1.301 . S
C3239 O3243 1.282 . S
O3240 U3222 2.441 . S
O3240 C3226 1.249 . S
O3241 U3222 2.420 . S
O3241 C3226 1.202 . S
O3242 U3222 2.455 . S
O3242 C3239 1.301 . S
O3243 U3222 2.449 . S
O3243 C3239 1.282 . S
H3244 C3217 0.931 . S
H3245 C3219 0.929 . S
H3246 C3220 0.930 . S
H3247 C3221 0.931 . S
H3248 C3228 0.932 . S
H3249 C3229 0.930 . S
H3250 C3230 0.929 . S
H3251 C3232 0.930 . S
H3252 C3234 0.932 . S
H3253 C3235 0.929 . S
H3254 C3236 0.928 . S
H3255 C3238 0.932 . S
C3256 C3257 1.264 . S
C3256 C3261 1.479 . S
C3256 C3266 1.465 . S
C3257 C3256 1.264 . S
C3257 C3259 1.339 . S
C3257 H3284 0.931 . S
C3258 C3259 1.395 . S
C3258 C3260 1.320 . S
C3259 C3257 1.339 . S
C3259 C3258 1.395 . S
C3259 H3285 0.929 . S
C3260 C3258 1.320 . S
C3260 C3261 1.405 . S
C3260 H3286 0.930 . S
C3261 C3256 1.479 . S
C3261 C3260 1.405 . S
C3261 H3287 0.931 . S
U3262 O3263 2.454 . S
U3262 O3264 2.458 . S
U3262 C3265 2.984 . S
U3262 C3266 2.847 . S
U3262 C3279 2.882 . S
U3262 O3280 2.441 . S
U3262 O3281 2.420 . S
U3262 O3282 2.455 . S
U3262 O3283 2.449 . S
O3263 U3262 2.454 . S
O3263 C3265 1.353 . S
O3264 U3262 2.458 . S
O3264 C3265 1.286 . S
C3265 U3262 2.984 . S
C3265 O3263 1.353 . S
C3265 O3264 1.286 . S
C3265 C3267 1.363 . S
C3266 C3256 1.465 . S
C3266 U3262 2.847 . S
C3266 O3280 1.249 . S
C3266 O3281 1.202 . S
C3267 C3265 1.363 . S
C3267 C3269 1.408 . S
C3267 C3272 1.342 . S
C3268 C3269 1.310 . S
C3268 C3271 1.461 . S
C3268 H3288 0.932 . S
C3269 C3267 1.408 . S
C3269 C3268 1.310 . S
C3269 H3289 0.930 . S
C3270 C3271 1.474 . S
C3270 C3272 1.285 . S
C3270 H3290 0.929 . S
C3271 C3268 1.461 . S
C3271 C3270 1.474 . S
C3272 C3267 1.342 . S
C3272 C3270 1.285 . S
C3272 H3291 0.930 . S
C3273 C3276 1.424 . S
C3273 C3278 1.245 . S
C3273 C3279 1.428 . S
C3274 C3277 1.260 . S
C3274 C3278 1.477 . S
C3274 H3292 0.932 . S
C3275 C3276 1.384 . S
C3275 C3277 1.479 . S
C3275 H3293 0.929 . S
C3276 C3273 1.424 . S
C3276 C3275 1.384 . S
C3276 H3294 0.928 . S
C3277 C3274 1.260 . S
C3277 C3275 1.479 . S
C3278 C3273 1.245 . S
C3278 C3274 1.477 . S
C3278 H3295 0.932 . S
C3279 U3262 2.882 . S
C3279 C3273 1.428 . S
C3279 O3282 1.301 . S
C3279 O3283 1.282 . S
O3280 U3262 2.441 . S
O3280 C3266 1.249 . S
O3281 U3262 2.420 . S
O3281 C3266 1.202 . S
O3282 U3262 2.455 . S
O3282 C3279 1.301 . S
O3283 U3262 2.449 . S
O3283 C3279 1.282 . S
H3284 C3257 0.931 . S
H3285 C3259 0.929 . S
H3286 C3260 0.930 . S
H3287 C3261 0.931 . S
H3288 C3268 0.932 . S
H3289 C3269 0.930 . S
H3290 C3270 0.929 . S
H3291 C3272 0.930 . S
H3292 C3274 0.932 . S
H3293 C3275 0.929 . S
H3294 C3276 0.928 . S
H3295 C3278 0.932 . S
C3296 C3297 1.264 . S
C3296 C3301 1.479 . S
C3296 C3306 1.465 . S
C3297 C3296 1.264 . S
C3297 C3299 1.339 . S
C3297 H3324 0.931 . S
C3298 C3299 1.395 . S
C3298 C3300 1.320 . S
C3299 C3297 1.339 . S
C3299 C3298 1.395 . S
C3299 H3325 0.929 . S
C3300 C3298 1.320 . S
C3300 C3301 1.405 . S
C3300 H3326 0.930 . S
C3301 C3296 1.479 . S
C3301 C3300 1.405 . S
C3301 H3327 0.931 . S
U3302 O3303 2.454 . S
U3302 O3304 2.458 . S
U3302 C3305 2.984 . S
U3302 C3306 2.847 . S
U3302 C3319 2.882 . S
U3302 O3320 2.441 . S
U3302 O3321 2.420 . S
U3302 O3322 2.455 . S
U3302 O3323 2.449 . S
O3303 U3302 2.454 . S
O3303 C3305 1.353 . S
O3304 U3302 2.458 . S
O3304 C3305 1.286 . S
C3305 U3302 2.984 . S
C3305 O3303 1.353 . S
C3305 O3304 1.286 . S
C3305 C3307 1.363 . S
C3306 C3296 1.465 . S
C3306 U3302 2.847 . S
C3306 O3320 1.249 . S
C3306 O3321 1.202 . S
C3307 C3305 1.363 . S
C3307 C3309 1.408 . S
C3307 C3312 1.342 . S
C3308 C3309 1.310 . S
C3308 C3311 1.461 . S
C3308 H3328 0.932 . S
C3309 C3307 1.408 . S
C3309 C3308 1.310 . S
C3309 H3329 0.930 . S
C3310 C3311 1.474 . S
C3310 C3312 1.285 . S
C3310 H3330 0.929 . S
C3311 C3308 1.461 . S
C3311 C3310 1.474 . S
C3312 C3307 1.342 . S
C3312 C3310 1.285 . S
C3312 H3331 0.930 . S
C3313 C3316 1.424 . S
C3313 C3318 1.245 . S
C3313 C3319 1.428 . S
C3314 C3317 1.260 . S
C3314 C3318 1.477 . S
C3314 H3332 0.932 . S
C3315 C3316 1.384 . S
C3315 C3317 1.479 . S
C3315 H3333 0.929 . S
C3316 C3313 1.424 . S
C3316 C3315 1.384 . S
C3316 H3334 0.928 . S
C3317 C3314 1.260 . S
C3317 C3315 1.479 . S
C3318 C3313 1.245 . S
C3318 C3314 1.477 . S
C3318 H3335 0.932 . S
C3319 U3302 2.882 . S
C3319 C3313 1.428 . S
C3319 O3322 1.301 . S
C3319 O3323 1.282 . S
O3320 U3302 2.441 . S
O3320 C3306 1.249 . S
O3321 U3302 2.420 . S
O3321 C3306 1.202 . S
O3322 U3302 2.455 . S
O3322 C3319 1.301 . S
O3323 U3302 2.449 . S
O3323 C3319 1.282 . S
H3324 C3297 0.931 . S
H3325 C3299 0.929 . S
H3326 C3300 0.930 . S
H3327 C3301 0.931 . S
H3328 C3308 0.932 . S
H3329 C3309 0.930 . S
H3330 C3310 0.929 . S
H3331 C3312 0.930 . S
H3332 C3314 0.932 . S
H3333 C3315 0.929 . S
H3334 C3316 0.928 . S
H3335 C3318 0.932 . S
C3336 C3337 1.264 . S
C3336 C3341 1.479 . S
C3336 C3346 1.465 . S
C3337 C3336 1.264 . S
C3337 C3339 1.339 . S
C3337 H3364 0.931 . S
C3338 C3339 1.395 . S
C3338 C3340 1.320 . S
C3339 C3337 1.339 . S
C3339 C3338 1.395 . S
C3339 H3365 0.929 . S
C3340 C3338 1.320 . S
C3340 C3341 1.405 . S
C3340 H3366 0.930 . S
C3341 C3336 1.479 . S
C3341 C3340 1.405 . S
C3341 H3367 0.931 . S
U3342 O3343 2.454 . S
U3342 O3344 2.458 . S
U3342 C3345 2.984 . S
U3342 C3346 2.847 . S
U3342 C3359 2.882 . S
U3342 O3360 2.441 . S
U3342 O3361 2.420 . S
U3342 O3362 2.455 . S
U3342 O3363 2.449 . S
O3343 U3342 2.454 . S
O3343 C3345 1.353 . S
O3344 U3342 2.458 . S
O3344 C3345 1.286 . S
C3345 U3342 2.984 . S
C3345 O3343 1.353 . S
C3345 O3344 1.286 . S
C3345 C3347 1.363 . S
C3346 C3336 1.465 . S
C3346 U3342 2.847 . S
C3346 O3360 1.249 . S
C3346 O3361 1.202 . S
C3347 C3345 1.363 . S
C3347 C3349 1.408 . S
C3347 C3352 1.342 . S
C3348 C3349 1.299 1_554 S
C3348 C3351 1.465 . S
C3348 H3368 0.940 . S
C3349 C3347 1.408 . S
C3349 C3348 1.299 1_556 S
C3349 H3369 0.930 . S
C3350 C3351 1.474 1_556 S
C3350 C3352 1.285 . S
C3350 H3370 0.929 . S
C3351 C3348 1.465 . S
C3351 C3350 1.474 1_554 S
C3352 C3347 1.342 . S
C3352 C3350 1.285 . S
C3352 H3371 0.930 . S
C3353 C3356 1.424 . S
C3353 C3358 1.245 . S
C3353 C3359 1.428 . S
C3354 C3357 1.260 . S
C3354 C3358 1.477 . S
C3354 H3372 0.932 . S
C3355 C3356 1.384 . S
C3355 C3357 1.479 . S
C3355 H3373 0.929 . S
C3356 C3353 1.424 . S
C3356 C3355 1.384 . S
C3356 H3374 0.928 . S
C3357 C3354 1.260 . S
C3357 C3355 1.479 . S
C3358 C3353 1.245 . S
C3358 C3354 1.477 . S
C3358 H3375 0.932 . S
C3359 U3342 2.882 . S
C3359 C3353 1.428 . S
C3359 O3362 1.301 . S
C3359 O3363 1.282 . S
O3360 U3342 2.441 . S
O3360 C3346 1.249 . S
O3361 U3342 2.420 . S
O3361 C3346 1.202 . S
O3362 U3342 2.455 . S
O3362 C3359 1.301 . S
O3363 U3342 2.449 . S
O3363 C3359 1.282 . S
H3364 C3337 0.931 . S
H3365 C3339 0.929 . S
H3366 C3340 0.930 . S
H3367 C3341 0.931 . S
H3368 C3348 0.940 . S
H3369 C3349 0.930 . S
H3370 C3350 0.929 . S
H3371 C3352 0.930 . S
H3372 C3354 0.932 . S
H3373 C3355 0.929 . S
H3374 C3356 0.928 . S
H3375 C3358 0.932 . S
C3376 C3377 1.264 . S
C3376 C3381 1.479 . S
C3376 C3386 1.465 . S
C3377 C3376 1.264 . S
C3377 C3379 1.339 . S
C3377 H3404 0.931 . S
C3378 C3379 1.395 . S
C3378 C3380 1.320 . S
C3379 C3377 1.339 . S
C3379 C3378 1.395 . S
C3379 H3405 0.929 . S
C3380 C3378 1.320 . S
C3380 C3381 1.405 . S
C3380 H3406 0.930 . S
C3381 C3376 1.479 . S
C3381 C3380 1.405 . S
C3381 H3407 0.931 . S
U3382 O3383 2.454 . S
U3382 O3384 2.458 . S
U3382 C3385 2.984 . S
U3382 C3386 2.847 . S
U3382 C3399 2.882 . S
U3382 O3400 2.441 . S
U3382 O3401 2.420 . S
U3382 O3402 2.455 . S
U3382 O3403 2.449 . S
O3383 U3382 2.454 . S
O3383 C3385 1.353 . S
O3384 U3382 2.458 . S
O3384 C3385 1.286 . S
C3385 U3382 2.984 . S
C3385 O3383 1.353 . S
C3385 O3384 1.286 . S
C3385 C3387 1.363 . S
C3386 C3376 1.465 . S
C3386 U3382 2.847 . S
C3386 O3400 1.249 . S
C3386 O3401 1.202 . S
C3387 C3385 1.363 . S
C3387 C3389 1.408 . S
C3387 C3392 1.342 . S
C3388 C3389 1.310 . S
C3388 C3391 1.461 . S
C3388 H3408 0.932 . S
C3389 C3387 1.408 . S
C3389 C3388 1.310 . S
C3389 H3409 0.930 . S
C3390 C3391 1.474 . S
C3390 C3392 1.285 . S
C3390 H3410 0.929 . S
C3391 C3388 1.461 . S
C3391 C3390 1.474 . S
C3392 C3387 1.342 . S
C3392 C3390 1.285 . S
C3392 H3411 0.930 . S
C3393 C3396 1.424 . S
C3393 C3398 1.245 . S
C3393 C3399 1.428 . S
C3394 C3397 1.260 . S
C3394 C3398 1.477 . S
C3394 H3412 0.932 . S
C3395 C3396 1.384 . S
C3395 C3397 1.479 . S
C3395 H3413 0.929 . S
C3396 C3393 1.424 . S
C3396 C3395 1.384 . S
C3396 H3414 0.928 . S
C3397 C3394 1.260 . S
C3397 C3395 1.479 . S
C3398 C3393 1.245 . S
C3398 C3394 1.477 . S
C3398 H3415 0.932 . S
C3399 U3382 2.882 . S
C3399 C3393 1.428 . S
C3399 O3402 1.301 . S
C3399 O3403 1.282 . S
O3400 U3382 2.441 . S
O3400 C3386 1.249 . S
O3401 U3382 2.420 . S
O3401 C3386 1.202 . S
O3402 U3382 2.455 . S
O3402 C3399 1.301 . S
O3403 U3382 2.449 . S
O3403 C3399 1.282 . S
H3404 C3377 0.931 . S
H3405 C3379 0.929 . S
H3406 C3380 0.930 . S
H3407 C3381 0.931 . S
H3408 C3388 0.932 . S
H3409 C3389 0.930 . S
H3410 C3390 0.929 . S
H3411 C3392 0.930 . S
H3412 C3394 0.932 . S
H3413 C3395 0.929 . S
H3414 C3396 0.928 . S
H3415 C3398 0.932 . S
C3416 C3417 1.264 . S
C3416 C3421 1.479 . S
C3416 C3426 1.465 . S
C3417 C3416 1.264 . S
C3417 C3419 1.339 . S
C3417 H3444 0.931 . S
C3418 C3419 1.395 . S
C3418 C3420 1.320 . S
C3419 C3417 1.339 . S
C3419 C3418 1.395 . S
C3419 H3445 0.929 . S
C3420 C3418 1.320 . S
C3420 C3421 1.405 . S
C3420 H3446 0.930 . S
C3421 C3416 1.479 . S
C3421 C3420 1.405 . S
C3421 H3447 0.931 . S
U3422 O3423 2.454 . S
U3422 O3424 2.458 . S
U3422 C3425 2.984 . S
U3422 C3426 2.847 . S
U3422 C3439 2.882 . S
U3422 O3440 2.441 . S
U3422 O3441 2.420 . S
U3422 O3442 2.455 . S
U3422 O3443 2.449 . S
O3423 U3422 2.454 . S
O3423 C3425 1.353 . S
O3424 U3422 2.458 . S
O3424 C3425 1.286 . S
C3425 U3422 2.984 . S
C3425 O3423 1.353 . S
C3425 O3424 1.286 . S
C3425 C3427 1.363 . S
C3426 C3416 1.465 . S
C3426 U3422 2.847 . S
C3426 O3440 1.249 . S
C3426 O3441 1.202 . S
C3427 C3425 1.363 . S
C3427 C3429 1.408 . S
C3427 C3432 1.342 . S
C3428 C3429 1.310 . S
C3428 C3431 1.461 . S
C3428 H3448 0.932 . S
C3429 C3427 1.408 . S
C3429 C3428 1.310 . S
C3429 H3449 0.930 . S
C3430 C3431 1.474 . S
C3430 C3432 1.285 . S
C3430 H3450 0.929 . S
C3431 C3428 1.461 . S
C3431 C3430 1.474 . S
C3432 C3427 1.342 . S
C3432 C3430 1.285 . S
C3432 H3451 0.930 . S
C3433 C3436 1.424 . S
C3433 C3438 1.245 . S
C3433 C3439 1.428 . S
C3434 C3437 1.260 . S
C3434 C3438 1.477 . S
C3434 H3452 0.932 . S
C3435 C3436 1.384 . S
C3435 C3437 1.479 . S
C3435 H3453 0.929 . S
C3436 C3433 1.424 . S
C3436 C3435 1.384 . S
C3436 H3454 0.928 . S
C3437 C3434 1.260 . S
C3437 C3435 1.479 . S
C3438 C3433 1.245 . S
C3438 C3434 1.477 . S
C3438 H3455 0.932 . S
C3439 U3422 2.882 . S
C3439 C3433 1.428 . S
C3439 O3442 1.301 . S
C3439 O3443 1.282 . S
O3440 U3422 2.441 . S
O3440 C3426 1.249 . S
O3441 U3422 2.420 . S
O3441 C3426 1.202 . S
O3442 U3422 2.455 . S
O3442 C3439 1.301 . S
O3443 U3422 2.449 . S
O3443 C3439 1.282 . S
H3444 C3417 0.931 . S
H3445 C3419 0.929 . S
H3446 C3420 0.930 . S
H3447 C3421 0.931 . S
H3448 C3428 0.932 . S
H3449 C3429 0.930 . S
H3450 C3430 0.929 . S
H3451 C3432 0.930 . S
H3452 C3434 0.932 . S
H3453 C3435 0.929 . S
H3454 C3436 0.928 . S
H3455 C3438 0.932 . S
C3456 C3457 1.264 . S
C3456 C3461 1.479 . S
C3456 C3466 1.465 . S
C3457 C3456 1.264 . S
C3457 C3459 1.339 . S
C3457 H3484 0.931 . S
C3458 C3459 1.395 . S
C3458 C3460 1.320 . S
C3459 C3457 1.339 . S
C3459 C3458 1.395 . S
C3459 H3485 0.929 . S
C3460 C3458 1.320 . S
C3460 C3461 1.405 . S
C3460 H3486 0.930 . S
C3461 C3456 1.479 . S
C3461 C3460 1.405 . S
C3461 H3487 0.931 . S
U3462 O3463 2.454 . S
U3462 O3464 2.458 . S
U3462 C3465 2.984 . S
U3462 C3466 2.847 . S
U3462 C3479 2.882 . S
U3462 O3480 2.441 . S
U3462 O3481 2.420 . S
U3462 O3482 2.455 . S
U3462 O3483 2.449 . S
O3463 U3462 2.454 . S
O3463 C3465 1.353 . S
O3464 U3462 2.458 . S
O3464 C3465 1.286 . S
C3465 U3462 2.984 . S
C3465 O3463 1.353 . S
C3465 O3464 1.286 . S
C3465 C3467 1.363 . S
C3466 C3456 1.465 . S
C3466 U3462 2.847 . S
C3466 O3480 1.249 . S
C3466 O3481 1.202 . S
C3467 C3465 1.363 . S
C3467 C3469 1.408 . S
C3467 C3472 1.342 . S
C3468 C3469 1.310 . S
C3468 C3471 1.461 . S
C3468 H3488 0.932 . S
C3469 C3467 1.408 . S
C3469 C3468 1.310 . S
C3469 H3489 0.930 . S
C3470 C3471 1.474 . S
C3470 C3472 1.285 . S
C3470 H3490 0.929 . S
C3471 C3468 1.461 . S
C3471 C3470 1.474 . S
C3472 C3467 1.342 . S
C3472 C3470 1.285 . S
C3472 H3491 0.930 . S
C3473 C3476 1.424 . S
C3473 C3478 1.245 . S
C3473 C3479 1.428 . S
C3474 C3477 1.260 . S
C3474 C3478 1.477 . S
C3474 H3492 0.932 . S
C3475 C3476 1.384 . S
C3475 C3477 1.479 . S
C3475 H3493 0.929 . S
C3476 C3473 1.424 . S
C3476 C3475 1.384 . S
C3476 H3494 0.928 . S
C3477 C3474 1.260 . S
C3477 C3475 1.479 . S
C3478 C3473 1.245 . S
C3478 C3474 1.477 . S
C3478 H3495 0.932 . S
C3479 U3462 2.882 . S
C3479 C3473 1.428 . S
C3479 O3482 1.301 . S
C3479 O3483 1.282 . S
O3480 U3462 2.441 . S
O3480 C3466 1.249 . S
O3481 U3462 2.420 . S
O3481 C3466 1.202 . S
O3482 U3462 2.455 . S
O3482 C3479 1.301 . S
O3483 U3462 2.449 . S
O3483 C3479 1.282 . S
H3484 C3457 0.931 . S
H3485 C3459 0.929 . S
H3486 C3460 0.930 . S
H3487 C3461 0.931 . S
H3488 C3468 0.932 . S
H3489 C3469 0.930 . S
H3490 C3470 0.929 . S
H3491 C3472 0.930 . S
H3492 C3474 0.932 . S
H3493 C3475 0.929 . S
H3494 C3476 0.928 . S
H3495 C3478 0.932 . S
C3496 C3497 1.264 . S
C3496 C3501 1.479 . S
C3496 C3506 1.465 . S
C3497 C3496 1.264 . S
C3497 C3499 1.339 . S
C3497 H3524 0.931 . S
C3498 C3499 1.395 . S
C3498 C3500 1.320 . S
C3499 C3497 1.339 . S
C3499 C3498 1.395 . S
C3499 H3525 0.929 . S
C3500 C3498 1.320 . S
C3500 C3501 1.405 . S
C3500 H3526 0.930 . S
C3501 C3496 1.479 . S
C3501 C3500 1.405 . S
C3501 H3527 0.931 . S
U3502 O3503 2.454 . S
U3502 O3504 2.458 . S
U3502 C3505 2.984 . S
U3502 C3506 2.847 . S
U3502 C3519 2.882 . S
U3502 O3520 2.441 . S
U3502 O3521 2.420 . S
U3502 O3522 2.455 . S
U3502 O3523 2.449 . S
O3503 U3502 2.454 . S
O3503 C3505 1.353 . S
O3504 U3502 2.458 . S
O3504 C3505 1.286 . S
C3505 U3502 2.984 . S
C3505 O3503 1.353 . S
C3505 O3504 1.286 . S
C3505 C3507 1.363 . S
C3506 C3496 1.465 . S
C3506 U3502 2.847 . S
C3506 O3520 1.249 . S
C3506 O3521 1.202 . S
C3507 C3505 1.363 . S
C3507 C3509 1.408 . S
C3507 C3512 1.342 . S
C3508 C3509 1.300 1_556 S
C3508 C3511 1.464 . S
C3508 H3528 0.939 . S
C3509 C3507 1.408 . S
C3509 C3508 1.300 1_554 S
C3509 H3529 0.930 . S
C3510 C3511 1.474 1_554 S
C3510 C3512 1.285 . S
C3510 H3530 0.929 . S
C3511 C3508 1.464 . S
C3511 C3510 1.474 1_556 S
C3512 C3507 1.342 . S
C3512 C3510 1.285 . S
C3512 H3531 0.930 . S
C3513 C3516 1.424 . S
C3513 C3518 1.245 . S
C3513 C3519 1.428 . S
C3514 C3517 1.260 . S
C3514 C3518 1.477 . S
C3514 H3532 0.932 . S
C3515 C3516 1.384 . S
C3515 C3517 1.479 . S
C3515 H3533 0.929 . S
C3516 C3513 1.424 . S
C3516 C3515 1.384 . S
C3516 H3534 0.928 . S
C3517 C3514 1.260 . S
C3517 C3515 1.479 . S
C3518 C3513 1.245 . S
C3518 C3514 1.477 . S
C3518 H3535 0.932 . S
C3519 U3502 2.882 . S
C3519 C3513 1.428 . S
C3519 O3522 1.301 . S
C3519 O3523 1.282 . S
O3520 U3502 2.441 . S
O3520 C3506 1.249 . S
O3521 U3502 2.420 . S
O3521 C3506 1.202 . S
O3522 U3502 2.455 . S
O3522 C3519 1.301 . S
O3523 U3502 2.449 . S
O3523 C3519 1.282 . S
H3524 C3497 0.931 . S
H3525 C3499 0.929 . S
H3526 C3500 0.930 . S
H3527 C3501 0.931 . S
H3528 C3508 0.939 . S
H3529 C3509 0.930 . S
H3530 C3510 0.929 . S
H3531 C3512 0.930 . S
H3532 C3514 0.932 . S
H3533 C3515 0.929 . S
H3534 C3516 0.928 . S
H3535 C3518 0.932 . S
C3536 C3537 1.264 . S
C3536 C3541 1.479 . S
C3536 C3546 1.465 . S
C3537 C3536 1.264 . S
C3537 C3539 1.339 . S
C3537 H3564 0.931 . S
C3538 C3539 1.395 . S
C3538 C3540 1.320 . S
C3539 C3537 1.339 . S
C3539 C3538 1.395 . S
C3539 H3565 0.929 . S
C3540 C3538 1.320 . S
C3540 C3541 1.405 . S
C3540 H3566 0.930 . S
C3541 C3536 1.479 . S
C3541 C3540 1.405 . S
C3541 H3567 0.931 . S
U3542 O3543 2.454 . S
U3542 O3544 2.458 . S
U3542 C3545 2.984 . S
U3542 C3546 2.847 . S
U3542 C3559 2.882 . S
U3542 O3560 2.441 . S
U3542 O3561 2.420 . S
U3542 O3562 2.455 . S
U3542 O3563 2.449 . S
O3543 U3542 2.454 . S
O3543 C3545 1.353 . S
O3544 U3542 2.458 . S
O3544 C3545 1.286 . S
C3545 U3542 2.984 . S
C3545 O3543 1.353 . S
C3545 O3544 1.286 . S
C3545 C3547 1.363 . S
C3546 C3536 1.465 . S
C3546 U3542 2.847 . S
C3546 O3560 1.249 . S
C3546 O3561 1.202 . S
C3547 C3545 1.363 . S
C3547 C3549 1.408 . S
C3547 C3552 1.342 . S
C3548 C3549 1.310 . S
C3548 C3551 1.461 . S
C3548 H3568 0.932 . S
C3549 C3547 1.408 . S
C3549 C3548 1.310 . S
C3549 H3569 0.930 . S
C3550 C3551 1.474 . S
C3550 C3552 1.285 . S
C3550 H3570 0.929 . S
C3551 C3548 1.461 . S
C3551 C3550 1.474 . S
C3552 C3547 1.342 . S
C3552 C3550 1.285 . S
C3552 H3571 0.930 . S
C3553 C3556 1.424 . S
C3553 C3558 1.245 . S
C3553 C3559 1.428 . S
C3554 C3557 1.260 . S
C3554 C3558 1.477 . S
C3554 H3572 0.932 . S
C3555 C3556 1.384 . S
C3555 C3557 1.479 . S
C3555 H3573 0.929 . S
C3556 C3553 1.424 . S
C3556 C3555 1.384 . S
C3556 H3574 0.928 . S
C3557 C3554 1.260 . S
C3557 C3555 1.479 . S
C3558 C3553 1.245 . S
C3558 C3554 1.477 . S
C3558 H3575 0.932 . S
C3559 U3542 2.882 . S
C3559 C3553 1.428 . S
C3559 O3562 1.301 . S
C3559 O3563 1.282 . S
O3560 U3542 2.441 . S
O3560 C3546 1.249 . S
O3561 U3542 2.420 . S
O3561 C3546 1.202 . S
O3562 U3542 2.455 . S
O3562 C3559 1.301 . S
O3563 U3542 2.449 . S
O3563 C3559 1.282 . S
H3564 C3537 0.931 . S
H3565 C3539 0.929 . S
H3566 C3540 0.930 . S
H3567 C3541 0.931 . S
H3568 C3548 0.932 . S
H3569 C3549 0.930 . S
H3570 C3550 0.929 . S
H3571 C3552 0.930 . S
H3572 C3554 0.932 . S
H3573 C3555 0.929 . S
H3574 C3556 0.928 . S
H3575 C3558 0.932 . S
C3576 C3577 1.264 . S
C3576 C3581 1.479 . S
C3576 C3586 1.465 . S
C3577 C3576 1.264 . S
C3577 C3579 1.339 . S
C3577 H3604 0.931 . S
C3578 C3579 1.395 . S
C3578 C3580 1.320 . S
C3579 C3577 1.339 . S
C3579 C3578 1.395 . S
C3579 H3605 0.929 . S
C3580 C3578 1.320 . S
C3580 C3581 1.405 . S
C3580 H3606 0.930 . S
C3581 C3576 1.479 . S
C3581 C3580 1.405 . S
C3581 H3607 0.931 . S
U3582 O3583 2.454 . S
U3582 O3584 2.458 . S
U3582 C3585 2.984 . S
U3582 C3586 2.847 . S
U3582 C3599 2.882 . S
U3582 O3600 2.441 . S
U3582 O3601 2.420 . S
U3582 O3602 2.455 . S
U3582 O3603 2.449 . S
O3583 U3582 2.454 . S
O3583 C3585 1.353 . S
O3584 U3582 2.458 . S
O3584 C3585 1.286 . S
C3585 U3582 2.984 . S
C3585 O3583 1.353 . S
C3585 O3584 1.286 . S
C3585 C3587 1.363 . S
C3586 C3576 1.465 . S
C3586 U3582 2.847 . S
C3586 O3600 1.249 . S
C3586 O3601 1.202 . S
C3587 C3585 1.363 . S
C3587 C3589 1.408 . S
C3587 C3592 1.342 . S
C3588 C3589 1.310 . S
C3588 C3591 1.461 . S
C3588 H3608 0.932 . S
C3589 C3587 1.408 . S
C3589 C3588 1.310 . S
C3589 H3609 0.930 . S
C3590 C3591 1.474 . S
C3590 C3592 1.285 . S
C3590 H3610 0.929 . S
C3591 C3588 1.461 . S
C3591 C3590 1.474 . S
C3592 C3587 1.342 . S
C3592 C3590 1.285 . S
C3592 H3611 0.930 . S
C3593 C3596 1.424 . S
C3593 C3598 1.245 . S
C3593 C3599 1.428 . S
C3594 C3597 1.260 . S
C3594 C3598 1.477 . S
C3594 H3612 0.932 . S
C3595 C3596 1.384 . S
C3595 C3597 1.479 . S
C3595 H3613 0.929 . S
C3596 C3593 1.424 . S
C3596 C3595 1.384 . S
C3596 H3614 0.928 . S
C3597 C3594 1.260 . S
C3597 C3595 1.479 . S
C3598 C3593 1.245 . S
C3598 C3594 1.477 . S
C3598 H3615 0.932 . S
C3599 U3582 2.882 . S
C3599 C3593 1.428 . S
C3599 O3602 1.301 . S
C3599 O3603 1.282 . S
O3600 U3582 2.441 . S
O3600 C3586 1.249 . S
O3601 U3582 2.420 . S
O3601 C3586 1.202 . S
O3602 U3582 2.455 . S
O3602 C3599 1.301 . S
O3603 U3582 2.449 . S
O3603 C3599 1.282 . S
H3604 C3577 0.931 . S
H3605 C3579 0.929 . S
H3606 C3580 0.930 . S
H3607 C3581 0.931 . S
H3608 C3588 0.932 . S
H3609 C3589 0.930 . S
H3610 C3590 0.929 . S
H3611 C3592 0.930 . S
H3612 C3594 0.932 . S
H3613 C3595 0.929 . S
H3614 C3596 0.928 . S
H3615 C3598 0.932 . S
C3616 C3617 1.264 . S
C3616 C3621 1.479 . S
C3616 C3626 1.465 . S
C3617 C3616 1.264 . S
C3617 C3619 1.339 . S
C3617 H3644 0.931 . S
C3618 C3619 1.395 . S
C3618 C3620 1.320 . S
C3619 C3617 1.339 . S
C3619 C3618 1.395 . S
C3619 H3645 0.929 . S
C3620 C3618 1.320 . S
C3620 C3621 1.405 . S
C3620 H3646 0.930 . S
C3621 C3616 1.479 . S
C3621 C3620 1.405 . S
C3621 H3647 0.931 . S
U3622 O3623 2.454 . S
U3622 O3624 2.458 . S
U3622 C3625 2.984 . S
U3622 C3626 2.847 . S
U3622 C3639 2.882 . S
U3622 O3640 2.441 . S
U3622 O3641 2.420 . S
U3622 O3642 2.455 . S
U3622 O3643 2.449 . S
O3623 U3622 2.454 . S
O3623 C3625 1.353 . S
O3624 U3622 2.458 . S
O3624 C3625 1.286 . S
C3625 U3622 2.984 . S
C3625 O3623 1.353 . S
C3625 O3624 1.286 . S
C3625 C3627 1.363 . S
C3626 C3616 1.465 . S
C3626 U3622 2.847 . S
C3626 O3640 1.249 . S
C3626 O3641 1.202 . S
C3627 C3625 1.363 . S
C3627 C3629 1.408 . S
C3627 C3632 1.342 . S
C3628 C3629 1.310 . S
C3628 C3631 1.461 . S
C3628 H3648 0.932 . S
C3629 C3627 1.408 . S
C3629 C3628 1.310 . S
C3629 H3649 0.930 . S
C3630 C3631 1.474 . S
C3630 C3632 1.285 . S
C3630 H3650 0.929 . S
C3631 C3628 1.461 . S
C3631 C3630 1.474 . S
C3632 C3627 1.342 . S
C3632 C3630 1.285 . S
C3632 H3651 0.930 . S
C3633 C3636 1.424 . S
C3633 C3638 1.245 . S
C3633 C3639 1.428 . S
C3634 C3637 1.260 . S
C3634 C3638 1.477 . S
C3634 H3652 0.932 . S
C3635 C3636 1.384 . S
C3635 C3637 1.479 . S
C3635 H3653 0.929 . S
C3636 C3633 1.424 . S
C3636 C3635 1.384 . S
C3636 H3654 0.928 . S
C3637 C3634 1.260 . S
C3637 C3635 1.479 . S
C3638 C3633 1.245 . S
C3638 C3634 1.477 . S
C3638 H3655 0.932 . S
C3639 U3622 2.882 . S
C3639 C3633 1.428 . S
C3639 O3642 1.301 . S
C3639 O3643 1.282 . S
O3640 U3622 2.441 . S
O3640 C3626 1.249 . S
O3641 U3622 2.420 . S
O3641 C3626 1.202 . S
O3642 U3622 2.455 . S
O3642 C3639 1.301 . S
O3643 U3622 2.449 . S
O3643 C3639 1.282 . S
H3644 C3617 0.931 . S
H3645 C3619 0.929 . S
H3646 C3620 0.930 . S
H3647 C3621 0.931 . S
H3648 C3628 0.932 . S
H3649 C3629 0.930 . S
H3650 C3630 0.929 . S
H3651 C3632 0.930 . S
H3652 C3634 0.932 . S
H3653 C3635 0.929 . S
H3654 C3636 0.928 . S
H3655 C3638 0.932 . S
C3656 C3657 1.264 . S
C3656 C3661 1.479 . S
C3656 C3666 1.465 . S
C3657 C3656 1.264 . S
C3657 C3659 1.339 . S
C3657 H3684 0.931 . S
C3658 C3659 1.395 . S
C3658 C3660 1.320 . S
C3659 C3657 1.339 . S
C3659 C3658 1.395 . S
C3659 H3685 0.929 . S
C3660 C3658 1.320 . S
C3660 C3661 1.405 . S
C3660 H3686 0.930 . S
C3661 C3656 1.479 . S
C3661 C3660 1.405 . S
C3661 H3687 0.931 . S
U3662 O3663 2.454 . S
U3662 O3664 2.458 . S
U3662 C3665 2.984 . S
U3662 C3666 2.847 . S
U3662 C3679 2.882 . S
U3662 O3680 2.441 . S
U3662 O3681 2.420 . S
U3662 O3682 2.455 . S
U3662 O3683 2.449 . S
O3663 U3662 2.454 . S
O3663 C3665 1.353 . S
O3664 U3662 2.458 . S
O3664 C3665 1.286 . S
C3665 U3662 2.984 . S
C3665 O3663 1.353 . S
C3665 O3664 1.286 . S
C3665 C3667 1.363 . S
C3666 C3656 1.465 . S
C3666 U3662 2.847 . S
C3666 O3680 1.249 . S
C3666 O3681 1.202 . S
C3667 C3665 1.363 . S
C3667 C3669 1.408 . S
C3667 C3672 1.342 . S
C3668 C3669 1.310 . S
C3668 C3671 1.461 . S
C3668 H3688 0.932 . S
C3669 C3667 1.408 . S
C3669 C3668 1.310 . S
C3669 H3689 0.930 . S
C3670 C3671 1.474 . S
C3670 C3672 1.285 . S
C3670 H3690 0.929 . S
C3671 C3668 1.461 . S
C3671 C3670 1.474 . S
C3672 C3667 1.342 . S
C3672 C3670 1.285 . S
C3672 H3691 0.930 . S
C3673 C3676 1.424 . S
C3673 C3678 1.245 . S
C3673 C3679 1.428 . S
C3674 C3677 1.260 . S
C3674 C3678 1.477 . S
C3674 H3692 0.932 . S
C3675 C3676 1.384 . S
C3675 C3677 1.479 . S
C3675 H3693 0.929 . S
C3676 C3673 1.424 . S
C3676 C3675 1.384 . S
C3676 H3694 0.928 . S
C3677 C3674 1.260 . S
C3677 C3675 1.479 . S
C3678 C3673 1.245 . S
C3678 C3674 1.477 . S
C3678 H3695 0.932 . S
C3679 U3662 2.882 . S
C3679 C3673 1.428 . S
C3679 O3682 1.301 . S
C3679 O3683 1.282 . S
O3680 U3662 2.441 . S
O3680 C3666 1.249 . S
O3681 U3662 2.420 . S
O3681 C3666 1.202 . S
O3682 U3662 2.455 . S
O3682 C3679 1.301 . S
O3683 U3662 2.449 . S
O3683 C3679 1.282 . S
H3684 C3657 0.931 . S
H3685 C3659 0.929 . S
H3686 C3660 0.930 . S
H3687 C3661 0.931 . S
H3688 C3668 0.932 . S
H3689 C3669 0.930 . S
H3690 C3670 0.929 . S
H3691 C3672 0.930 . S
H3692 C3674 0.932 . S
H3693 C3675 0.929 . S
H3694 C3676 0.928 . S
H3695 C3678 0.932 . S
C3696 C3697 1.264 . S
C3696 C3701 1.479 . S
C3696 C3706 1.465 . S
C3697 C3696 1.264 . S
C3697 C3699 1.339 . S
C3697 H3724 0.931 . S
C3698 C3699 1.395 . S
C3698 C3700 1.320 . S
C3699 C3697 1.339 . S
C3699 C3698 1.395 . S
C3699 H3725 0.929 . S
C3700 C3698 1.320 . S
C3700 C3701 1.405 . S
C3700 H3726 0.930 . S
C3701 C3696 1.479 . S
C3701 C3700 1.405 . S
C3701 H3727 0.931 . S
U3702 O3703 2.454 . S
U3702 O3704 2.458 . S
U3702 C3705 2.984 . S
U3702 C3706 2.847 . S
U3702 C3719 2.882 . S
U3702 O3720 2.441 . S
U3702 O3721 2.420 . S
U3702 O3722 2.455 . S
U3702 O3723 2.449 . S
O3703 U3702 2.454 . S
O3703 C3705 1.353 . S
O3704 U3702 2.458 . S
O3704 C3705 1.286 . S
C3705 U3702 2.984 . S
C3705 O3703 1.353 . S
C3705 O3704 1.286 . S
C3705 C3707 1.363 . S
C3706 C3696 1.465 . S
C3706 U3702 2.847 . S
C3706 O3720 1.249 . S
C3706 O3721 1.202 . S
C3707 C3705 1.363 . S
C3707 C3709 1.408 . S
C3707 C3712 1.342 . S
C3708 C3709 1.298 1_545 S
C3708 C3711 1.465 . S
C3708 H3728 0.940 . S
C3709 C3707 1.408 . S
C3709 C3708 1.298 1_565 S
C3709 H3729 0.930 . S
C3710 C3711 1.474 1_565 S
C3710 C3712 1.285 . S
C3710 H3730 0.929 . S
C3711 C3708 1.465 . S
C3711 C3710 1.474 1_545 S
C3712 C3707 1.342 . S
C3712 C3710 1.285 . S
C3712 H3731 0.930 . S
C3713 C3716 1.424 . S
C3713 C3718 1.245 . S
C3713 C3719 1.428 . S
C3714 C3717 1.260 . S
C3714 C3718 1.477 . S
C3714 H3732 0.932 . S
C3715 C3716 1.384 . S
C3715 C3717 1.479 . S
C3715 H3733 0.929 . S
C3716 C3713 1.424 . S
C3716 C3715 1.384 . S
C3716 H3734 0.928 . S
C3717 C3714 1.260 . S
C3717 C3715 1.479 . S
C3718 C3713 1.245 . S
C3718 C3714 1.477 . S
C3718 H3735 0.932 . S
C3719 U3702 2.882 . S
C3719 C3713 1.428 . S
C3719 O3722 1.301 . S
C3719 O3723 1.282 . S
O3720 U3702 2.441 . S
O3720 C3706 1.249 . S
O3721 U3702 2.420 . S
O3721 C3706 1.202 . S
O3722 U3702 2.455 . S
O3722 C3719 1.301 . S
O3723 U3702 2.449 . S
O3723 C3719 1.282 . S
H3724 C3697 0.931 . S
H3725 C3699 0.929 . S
H3726 C3700 0.930 . S
H3727 C3701 0.931 . S
H3728 C3708 0.940 . S
H3729 C3709 0.930 . S
H3730 C3710 0.929 . S
H3731 C3712 0.930 . S
H3732 C3714 0.932 . S
H3733 C3715 0.929 . S
H3734 C3716 0.928 . S
H3735 C3718 0.932 . S
C3736 C3737 1.264 . S
C3736 C3741 1.479 . S
C3736 C3746 1.465 . S
C3737 C3736 1.264 . S
C3737 C3739 1.339 . S
C3737 H3764 0.931 . S
C3738 C3739 1.395 . S
C3738 C3740 1.320 . S
C3739 C3737 1.339 . S
C3739 C3738 1.395 . S
C3739 H3765 0.929 . S
C3740 C3738 1.320 . S
C3740 C3741 1.405 . S
C3740 H3766 0.930 . S
C3741 C3736 1.479 . S
C3741 C3740 1.405 . S
C3741 H3767 0.931 . S
U3742 O3743 2.454 . S
U3742 O3744 2.458 . S
U3742 C3745 2.984 . S
U3742 C3746 2.847 . S
U3742 C3759 2.882 . S
U3742 O3760 2.441 . S
U3742 O3761 2.420 . S
U3742 O3762 2.455 . S
U3742 O3763 2.449 . S
O3743 U3742 2.454 . S
O3743 C3745 1.353 . S
O3744 U3742 2.458 . S
O3744 C3745 1.286 . S
C3745 U3742 2.984 . S
C3745 O3743 1.353 . S
C3745 O3744 1.286 . S
C3745 C3747 1.363 . S
C3746 C3736 1.465 . S
C3746 U3742 2.847 . S
C3746 O3760 1.249 . S
C3746 O3761 1.202 . S
C3747 C3745 1.363 . S
C3747 C3749 1.408 . S
C3747 C3752 1.342 . S
C3748 C3749 1.310 . S
C3748 C3751 1.461 . S
C3748 H3768 0.932 . S
C3749 C3747 1.408 . S
C3749 C3748 1.310 . S
C3749 H3769 0.930 . S
C3750 C3751 1.474 . S
C3750 C3752 1.285 . S
C3750 H3770 0.929 . S
C3751 C3748 1.461 . S
C3751 C3750 1.474 . S
C3752 C3747 1.342 . S
C3752 C3750 1.285 . S
C3752 H3771 0.930 . S
C3753 C3756 1.424 . S
C3753 C3758 1.245 . S
C3753 C3759 1.428 . S
C3754 C3757 1.260 . S
C3754 C3758 1.477 . S
C3754 H3772 0.932 . S
C3755 C3756 1.384 . S
C3755 C3757 1.479 . S
C3755 H3773 0.929 . S
C3756 C3753 1.424 . S
C3756 C3755 1.384 . S
C3756 H3774 0.928 . S
C3757 C3754 1.260 . S
C3757 C3755 1.479 . S
C3758 C3753 1.245 . S
C3758 C3754 1.477 . S
C3758 H3775 0.932 . S
C3759 U3742 2.882 . S
C3759 C3753 1.428 . S
C3759 O3762 1.301 . S
C3759 O3763 1.282 . S
O3760 U3742 2.441 . S
O3760 C3746 1.249 . S
O3761 U3742 2.420 . S
O3761 C3746 1.202 . S
O3762 U3742 2.455 . S
O3762 C3759 1.301 . S
O3763 U3742 2.449 . S
O3763 C3759 1.282 . S
H3764 C3737 0.931 . S
H3765 C3739 0.929 . S
H3766 C3740 0.930 . S
H3767 C3741 0.931 . S
H3768 C3748 0.932 . S
H3769 C3749 0.930 . S
H3770 C3750 0.929 . S
H3771 C3752 0.930 . S
H3772 C3754 0.932 . S
H3773 C3755 0.929 . S
H3774 C3756 0.928 . S
H3775 C3758 0.932 . S
C3776 C3777 1.264 . S
C3776 C3781 1.479 . S
C3776 C3786 1.465 . S
C3777 C3776 1.264 . S
C3777 C3779 1.339 . S
C3777 H3804 0.931 . S
C3778 C3779 1.395 . S
C3778 C3780 1.320 . S
C3779 C3777 1.339 . S
C3779 C3778 1.395 . S
C3779 H3805 0.929 . S
C3780 C3778 1.320 . S
C3780 C3781 1.405 . S
C3780 H3806 0.930 . S
C3781 C3776 1.479 . S
C3781 C3780 1.405 . S
C3781 H3807 0.931 . S
U3782 O3783 2.454 . S
U3782 O3784 2.458 . S
U3782 C3785 2.984 . S
U3782 C3786 2.847 . S
U3782 C3799 2.882 . S
U3782 O3800 2.441 . S
U3782 O3801 2.420 . S
U3782 O3802 2.455 . S
U3782 O3803 2.449 . S
O3783 U3782 2.454 . S
O3783 C3785 1.353 . S
O3784 U3782 2.458 . S
O3784 C3785 1.286 . S
C3785 U3782 2.984 . S
C3785 O3783 1.353 . S
C3785 O3784 1.286 . S
C3785 C3787 1.363 . S
C3786 C3776 1.465 . S
C3786 U3782 2.847 . S
C3786 O3800 1.249 . S
C3786 O3801 1.202 . S
C3787 C3785 1.363 . S
C3787 C3789 1.408 . S
C3787 C3792 1.342 . S
C3788 C3789 1.310 . S
C3788 C3791 1.461 . S
C3788 H3808 0.932 . S
C3789 C3787 1.408 . S
C3789 C3788 1.310 . S
C3789 H3809 0.930 . S
C3790 C3791 1.474 . S
C3790 C3792 1.285 . S
C3790 H3810 0.929 . S
C3791 C3788 1.461 . S
C3791 C3790 1.474 . S
C3792 C3787 1.342 . S
C3792 C3790 1.285 . S
C3792 H3811 0.930 . S
C3793 C3796 1.424 . S
C3793 C3798 1.245 . S
C3793 C3799 1.428 . S
C3794 C3797 1.260 . S
C3794 C3798 1.477 . S
C3794 H3812 0.932 . S
C3795 C3796 1.384 . S
C3795 C3797 1.479 . S
C3795 H3813 0.929 . S
C3796 C3793 1.424 . S
C3796 C3795 1.384 . S
C3796 H3814 0.928 . S
C3797 C3794 1.260 . S
C3797 C3795 1.479 . S
C3798 C3793 1.245 . S
C3798 C3794 1.477 . S
C3798 H3815 0.932 . S
C3799 U3782 2.882 . S
C3799 C3793 1.428 . S
C3799 O3802 1.301 . S
C3799 O3803 1.282 . S
O3800 U3782 2.441 . S
O3800 C3786 1.249 . S
O3801 U3782 2.420 . S
O3801 C3786 1.202 . S
O3802 U3782 2.455 . S
O3802 C3799 1.301 . S
O3803 U3782 2.449 . S
O3803 C3799 1.282 . S
H3804 C3777 0.931 . S
H3805 C3779 0.929 . S
H3806 C3780 0.930 . S
H3807 C3781 0.931 . S
H3808 C3788 0.932 . S
H3809 C3789 0.930 . S
H3810 C3790 0.929 . S
H3811 C3792 0.930 . S
H3812 C3794 0.932 . S
H3813 C3795 0.929 . S
H3814 C3796 0.928 . S
H3815 C3798 0.932 . S
C3816 C3817 1.264 . S
C3816 C3821 1.479 . S
C3816 C3826 1.465 . S
C3817 C3816 1.264 . S
C3817 C3819 1.339 . S
C3817 H3844 0.931 . S
C3818 C3819 1.395 . S
C3818 C3820 1.320 . S
C3819 C3817 1.339 . S
C3819 C3818 1.395 . S
C3819 H3845 0.929 . S
C3820 C3818 1.320 . S
C3820 C3821 1.405 . S
C3820 H3846 0.930 . S
C3821 C3816 1.479 . S
C3821 C3820 1.405 . S
C3821 H3847 0.931 . S
U3822 O3823 2.454 . S
U3822 O3824 2.458 . S
U3822 C3825 2.984 . S
U3822 C3826 2.847 . S
U3822 C3839 2.882 . S
U3822 O3840 2.441 . S
U3822 O3841 2.420 . S
U3822 O3842 2.455 . S
U3822 O3843 2.449 . S
O3823 U3822 2.454 . S
O3823 C3825 1.353 . S
O3824 U3822 2.458 . S
O3824 C3825 1.286 . S
C3825 U3822 2.984 . S
C3825 O3823 1.353 . S
C3825 O3824 1.286 . S
C3825 C3827 1.363 . S
C3826 C3816 1.465 . S
C3826 U3822 2.847 . S
C3826 O3840 1.249 . S
C3826 O3841 1.202 . S
C3827 C3825 1.363 . S
C3827 C3829 1.408 . S
C3827 C3832 1.342 . S
C3828 C3829 1.310 . S
C3828 C3831 1.461 . S
C3828 H3848 0.932 . S
C3829 C3827 1.408 . S
C3829 C3828 1.310 . S
C3829 H3849 0.930 . S
C3830 C3831 1.474 . S
C3830 C3832 1.285 . S
C3830 H3850 0.929 . S
C3831 C3828 1.461 . S
C3831 C3830 1.474 . S
C3832 C3827 1.342 . S
C3832 C3830 1.285 . S
C3832 H3851 0.930 . S
C3833 C3836 1.424 . S
C3833 C3838 1.245 . S
C3833 C3839 1.428 . S
C3834 C3837 1.260 . S
C3834 C3838 1.477 . S
C3834 H3852 0.932 . S
C3835 C3836 1.384 . S
C3835 C3837 1.479 . S
C3835 H3853 0.929 . S
C3836 C3833 1.424 . S
C3836 C3835 1.384 . S
C3836 H3854 0.928 . S
C3837 C3834 1.260 . S
C3837 C3835 1.479 . S
C3838 C3833 1.245 . S
C3838 C3834 1.477 . S
C3838 H3855 0.932 . S
C3839 U3822 2.882 . S
C3839 C3833 1.428 . S
C3839 O3842 1.301 . S
C3839 O3843 1.282 . S
O3840 U3822 2.441 . S
O3840 C3826 1.249 . S
O3841 U3822 2.420 . S
O3841 C3826 1.202 . S
O3842 U3822 2.455 . S
O3842 C3839 1.301 . S
O3843 U3822 2.449 . S
O3843 C3839 1.282 . S
H3844 C3817 0.931 . S
H3845 C3819 0.929 . S
H3846 C3820 0.930 . S
H3847 C3821 0.931 . S
H3848 C3828 0.932 . S
H3849 C3829 0.930 . S
H3850 C3830 0.929 . S
H3851 C3832 0.930 . S
H3852 C3834 0.932 . S
H3853 C3835 0.929 . S
H3854 C3836 0.928 . S
H3855 C3838 0.932 . S
C3856 C3857 1.264 . S
C3856 C3861 1.479 . S
C3856 C3866 1.465 . S
C3857 C3856 1.264 . S
C3857 C3859 1.339 . S
C3857 H3884 0.931 . S
C3858 C3859 1.395 . S
C3858 C3860 1.320 . S
C3859 C3857 1.339 . S
C3859 C3858 1.395 . S
C3859 H3885 0.929 . S
C3860 C3858 1.320 . S
C3860 C3861 1.405 . S
C3860 H3886 0.930 . S
C3861 C3856 1.479 . S
C3861 C3860 1.405 . S
C3861 H3887 0.931 . S
U3862 O3863 2.454 . S
U3862 O3864 2.458 . S
U3862 C3865 2.984 . S
U3862 C3866 2.847 . S
U3862 C3879 2.882 . S
U3862 O3880 2.441 . S
U3862 O3881 2.420 . S
U3862 O3882 2.455 . S
U3862 O3883 2.449 . S
O3863 U3862 2.454 . S
O3863 C3865 1.353 . S
O3864 U3862 2.458 . S
O3864 C3865 1.286 . S
C3865 U3862 2.984 . S
C3865 O3863 1.353 . S
C3865 O3864 1.286 . S
C3865 C3867 1.363 . S
C3866 C3856 1.465 . S
C3866 U3862 2.847 . S
C3866 O3880 1.249 . S
C3866 O3881 1.202 . S
C3867 C3865 1.363 . S
C3867 C3869 1.408 . S
C3867 C3872 1.342 . S
C3868 C3869 1.300 1_565 S
C3868 C3871 1.464 . S
C3868 H3888 0.939 . S
C3869 C3867 1.408 . S
C3869 C3868 1.300 1_545 S
C3869 H3889 0.930 . S
C3870 C3871 1.474 1_545 S
C3870 C3872 1.285 . S
C3870 H3890 0.929 . S
C3871 C3868 1.464 . S
C3871 C3870 1.474 1_565 S
C3872 C3867 1.342 . S
C3872 C3870 1.285 . S
C3872 H3891 0.930 . S
C3873 C3876 1.424 . S
C3873 C3878 1.245 . S
C3873 C3879 1.428 . S
C3874 C3877 1.260 . S
C3874 C3878 1.477 . S
C3874 H3892 0.932 . S
C3875 C3876 1.384 . S
C3875 C3877 1.479 . S
C3875 H3893 0.929 . S
C3876 C3873 1.424 . S
C3876 C3875 1.384 . S
C3876 H3894 0.928 . S
C3877 C3874 1.260 . S
C3877 C3875 1.479 . S
C3878 C3873 1.245 . S
C3878 C3874 1.477 . S
C3878 H3895 0.932 . S
C3879 U3862 2.882 . S
C3879 C3873 1.428 . S
C3879 O3882 1.301 . S
C3879 O3883 1.282 . S
O3880 U3862 2.441 . S
O3880 C3866 1.249 . S
O3881 U3862 2.420 . S
O3881 C3866 1.202 . S
O3882 U3862 2.455 . S
O3882 C3879 1.301 . S
O3883 U3862 2.449 . S
O3883 C3879 1.282 . S
H3884 C3857 0.931 . S
H3885 C3859 0.929 . S
H3886 C3860 0.930 . S
H3887 C3861 0.931 . S
H3888 C3868 0.939 . S
H3889 C3869 0.930 . S
H3890 C3870 0.929 . S
H3891 C3872 0.930 . S
H3892 C3874 0.932 . S
H3893 C3875 0.929 . S
H3894 C3876 0.928 . S
H3895 C3878 0.932 . S
C3896 C3897 1.264 . S
C3896 C3901 1.479 . S
C3896 C3906 1.465 . S
C3897 C3896 1.264 . S
C3897 C3899 1.339 . S
C3897 H3924 0.931 . S
C3898 C3899 1.395 . S
C3898 C3900 1.320 . S
C3899 C3897 1.339 . S
C3899 C3898 1.395 . S
C3899 H3925 0.929 . S
C3900 C3898 1.320 . S
C3900 C3901 1.405 . S
C3900 H3926 0.930 . S
C3901 C3896 1.479 . S
C3901 C3900 1.405 . S
C3901 H3927 0.931 . S
U3902 O3903 2.454 . S
U3902 O3904 2.458 . S
U3902 C3905 2.984 . S
U3902 C3906 2.847 . S
U3902 C3919 2.882 . S
U3902 O3920 2.441 . S
U3902 O3921 2.420 . S
U3902 O3922 2.455 . S
U3902 O3923 2.449 . S
O3903 U3902 2.454 . S
O3903 C3905 1.353 . S
O3904 U3902 2.458 . S
O3904 C3905 1.286 . S
C3905 U3902 2.984 . S
C3905 O3903 1.353 . S
C3905 O3904 1.286 . S
C3905 C3907 1.363 . S
C3906 C3896 1.465 . S
C3906 U3902 2.847 . S
C3906 O3920 1.249 . S
C3906 O3921 1.202 . S
C3907 C3905 1.363 . S
C3907 C3909 1.408 . S
C3907 C3912 1.342 . S
C3908 C3909 1.300 1_545 S
C3908 C3911 1.465 . S
C3908 H3928 0.939 . S
C3909 C3907 1.408 . S
C3909 C3908 1.300 1_565 S
C3909 H3929 0.930 . S
C3910 C3911 1.474 1_565 S
C3910 C3912 1.285 . S
C3910 H3930 0.929 . S
C3911 C3908 1.465 . S
C3911 C3910 1.474 1_545 S
C3912 C3907 1.342 . S
C3912 C3910 1.285 . S
C3912 H3931 0.930 . S
C3913 C3916 1.424 . S
C3913 C3918 1.245 . S
C3913 C3919 1.428 . S
C3914 C3917 1.260 . S
C3914 C3918 1.477 . S
C3914 H3932 0.932 . S
C3915 C3916 1.384 . S
C3915 C3917 1.479 . S
C3915 H3933 0.929 . S
C3916 C3913 1.424 . S
C3916 C3915 1.384 . S
C3916 H3934 0.928 . S
C3917 C3914 1.260 . S
C3917 C3915 1.479 . S
C3918 C3913 1.245 . S
C3918 C3914 1.477 . S
C3918 H3935 0.932 . S
C3919 U3902 2.882 . S
C3919 C3913 1.428 . S
C3919 O3922 1.301 . S
C3919 O3923 1.282 . S
O3920 U3902 2.441 . S
O3920 C3906 1.249 . S
O3921 U3902 2.420 . S
O3921 C3906 1.202 . S
O3922 U3902 2.455 . S
O3922 C3919 1.301 . S
O3923 U3902 2.449 . S
O3923 C3919 1.282 . S
H3924 C3897 0.931 . S
H3925 C3899 0.929 . S
H3926 C3900 0.930 . S
H3927 C3901 0.931 . S
H3928 C3908 0.939 . S
H3929 C3909 0.930 . S
H3930 C3910 0.929 . S
H3931 C3912 0.930 . S
H3932 C3914 0.932 . S
H3933 C3915 0.929 . S
H3934 C3916 0.928 . S
H3935 C3918 0.932 . S
C3936 C3937 1.264 . S
C3936 C3941 1.479 . S
C3936 C3946 1.465 . S
C3937 C3936 1.264 . S
C3937 C3939 1.339 . S
C3937 H3964 0.931 . S
C3938 C3939 1.395 . S
C3938 C3940 1.320 . S
C3939 C3937 1.339 . S
C3939 C3938 1.395 . S
C3939 H3965 0.929 . S
C3940 C3938 1.320 . S
C3940 C3941 1.405 . S
C3940 H3966 0.930 . S
C3941 C3936 1.479 . S
C3941 C3940 1.405 . S
C3941 H3967 0.931 . S
U3942 O3943 2.454 . S
U3942 O3944 2.458 . S
U3942 C3945 2.984 . S
U3942 C3946 2.847 . S
U3942 C3959 2.882 . S
U3942 O3960 2.441 . S
U3942 O3961 2.420 . S
U3942 O3962 2.455 . S
U3942 O3963 2.449 . S
O3943 U3942 2.454 . S
O3943 C3945 1.353 . S
O3944 U3942 2.458 . S
O3944 C3945 1.286 . S
C3945 U3942 2.984 . S
C3945 O3943 1.353 . S
C3945 O3944 1.286 . S
C3945 C3947 1.363 . S
C3946 C3936 1.465 . S
C3946 U3942 2.847 . S
C3946 O3960 1.249 . S
C3946 O3961 1.202 . S
C3947 C3945 1.363 . S
C3947 C3949 1.408 . S
C3947 C3952 1.342 . S
C3948 C3949 1.310 . S
C3948 C3951 1.461 . S
C3948 H3968 0.932 . S
C3949 C3947 1.408 . S
C3949 C3948 1.310 . S
C3949 H3969 0.930 . S
C3950 C3951 1.474 . S
C3950 C3952 1.285 . S
C3950 H3970 0.929 . S
C3951 C3948 1.461 . S
C3951 C3950 1.474 . S
C3952 C3947 1.342 . S
C3952 C3950 1.285 . S
C3952 H3971 0.930 . S
C3953 C3956 1.424 . S
C3953 C3958 1.245 . S
C3953 C3959 1.428 . S
C3954 C3957 1.260 . S
C3954 C3958 1.477 . S
C3954 H3972 0.932 . S
C3955 C3956 1.384 . S
C3955 C3957 1.479 . S
C3955 H3973 0.929 . S
C3956 C3953 1.424 . S
C3956 C3955 1.384 . S
C3956 H3974 0.928 . S
C3957 C3954 1.260 . S
C3957 C3955 1.479 . S
C3958 C3953 1.245 . S
C3958 C3954 1.477 . S
C3958 H3975 0.932 . S
C3959 U3942 2.882 . S
C3959 C3953 1.428 . S
C3959 O3962 1.301 . S
C3959 O3963 1.282 . S
O3960 U3942 2.441 . S
O3960 C3946 1.249 . S
O3961 U3942 2.420 . S
O3961 C3946 1.202 . S
O3962 U3942 2.455 . S
O3962 C3959 1.301 . S
O3963 U3942 2.449 . S
O3963 C3959 1.282 . S
H3964 C3937 0.931 . S
H3965 C3939 0.929 . S
H3966 C3940 0.930 . S
H3967 C3941 0.931 . S
H3968 C3948 0.932 . S
H3969 C3949 0.930 . S
H3970 C3950 0.929 . S
H3971 C3952 0.930 . S
H3972 C3954 0.932 . S
H3973 C3955 0.929 . S
H3974 C3956 0.928 . S
H3975 C3958 0.932 . S
C3976 C3977 1.264 . S
C3976 C3981 1.479 . S
C3976 C3986 1.465 . S
C3977 C3976 1.264 . S
C3977 C3979 1.339 . S
C3977 H4004 0.931 . S
C3978 C3979 1.395 . S
C3978 C3980 1.320 . S
C3979 C3977 1.339 . S
C3979 C3978 1.395 . S
C3979 H4005 0.929 . S
C3980 C3978 1.320 . S
C3980 C3981 1.405 . S
C3980 H4006 0.930 . S
C3981 C3976 1.479 . S
C3981 C3980 1.405 . S
C3981 H4007 0.931 . S
U3982 O3983 2.454 . S
U3982 O3984 2.458 . S
U3982 C3985 2.984 . S
U3982 C3986 2.847 . S
U3982 C3999 2.882 . S
U3982 O4000 2.441 . S
U3982 O4001 2.420 . S
U3982 O4002 2.455 . S
U3982 O4003 2.449 . S
O3983 U3982 2.454 . S
O3983 C3985 1.353 . S
O3984 U3982 2.458 . S
O3984 C3985 1.286 . S
C3985 U3982 2.984 . S
C3985 O3983 1.353 . S
C3985 O3984 1.286 . S
C3985 C3987 1.363 . S
C3986 C3976 1.465 . S
C3986 U3982 2.847 . S
C3986 O4000 1.249 . S
C3986 O4001 1.202 . S
C3987 C3985 1.363 . S
C3987 C3989 1.408 . S
C3987 C3992 1.342 . S
C3988 C3989 1.310 . S
C3988 C3991 1.461 . S
C3988 H4008 0.932 . S
C3989 C3987 1.408 . S
C3989 C3988 1.310 . S
C3989 H4009 0.930 . S
C3990 C3991 1.474 . S
C3990 C3992 1.285 . S
C3990 H4010 0.929 . S
C3991 C3988 1.461 . S
C3991 C3990 1.474 . S
C3992 C3987 1.342 . S
C3992 C3990 1.285 . S
C3992 H4011 0.930 . S
C3993 C3996 1.424 . S
C3993 C3998 1.245 . S
C3993 C3999 1.428 . S
C3994 C3997 1.260 . S
C3994 C3998 1.477 . S
C3994 H4012 0.932 . S
C3995 C3996 1.384 . S
C3995 C3997 1.479 . S
C3995 H4013 0.929 . S
C3996 C3993 1.424 . S
C3996 C3995 1.384 . S
C3996 H4014 0.928 . S
C3997 C3994 1.260 . S
C3997 C3995 1.479 . S
C3998 C3993 1.245 . S
C3998 C3994 1.477 . S
C3998 H4015 0.932 . S
C3999 U3982 2.882 . S
C3999 C3993 1.428 . S
C3999 O4002 1.301 . S
C3999 O4003 1.282 . S
O4000 U3982 2.441 . S
O4000 C3986 1.249 . S
O4001 U3982 2.420 . S
O4001 C3986 1.202 . S
O4002 U3982 2.455 . S
O4002 C3999 1.301 . S
O4003 U3982 2.449 . S
O4003 C3999 1.282 . S
H4004 C3977 0.931 . S
H4005 C3979 0.929 . S
H4006 C3980 0.930 . S
H4007 C3981 0.931 . S
H4008 C3988 0.932 . S
H4009 C3989 0.930 . S
H4010 C3990 0.929 . S
H4011 C3992 0.930 . S
H4012 C3994 0.932 . S
H4013 C3995 0.929 . S
H4014 C3996 0.928 . S
H4015 C3998 0.932 . S
C4016 C4017 1.264 . S
C4016 C4021 1.479 . S
C4016 C4026 1.465 . S
C4017 C4016 1.264 . S
C4017 C4019 1.339 . S
C4017 H4044 0.931 . S
C4018 C4019 1.395 . S
C4018 C4020 1.320 . S
C4019 C4017 1.339 . S
C4019 C4018 1.395 . S
C4019 H4045 0.929 . S
C4020 C4018 1.320 . S
C4020 C4021 1.405 . S
C4020 H4046 0.930 . S
C4021 C4016 1.479 . S
C4021 C4020 1.405 . S
C4021 H4047 0.931 . S
U4022 O4023 2.454 . S
U4022 O4024 2.458 . S
U4022 C4025 2.984 . S
U4022 C4026 2.847 . S
U4022 C4039 2.882 . S
U4022 O4040 2.441 . S
U4022 O4041 2.420 . S
U4022 O4042 2.455 . S
U4022 O4043 2.449 . S
O4023 U4022 2.454 . S
O4023 C4025 1.353 . S
O4024 U4022 2.458 . S
O4024 C4025 1.286 . S
C4025 U4022 2.984 . S
C4025 O4023 1.353 . S
C4025 O4024 1.286 . S
C4025 C4027 1.363 . S
C4026 C4016 1.465 . S
C4026 U4022 2.847 . S
C4026 O4040 1.249 . S
C4026 O4041 1.202 . S
C4027 C4025 1.363 . S
C4027 C4029 1.408 . S
C4027 C4032 1.342 . S
C4028 C4029 1.310 . S
C4028 C4031 1.461 . S
C4028 H4048 0.932 . S
C4029 C4027 1.408 . S
C4029 C4028 1.310 . S
C4029 H4049 0.930 . S
C4030 C4031 1.474 . S
C4030 C4032 1.285 . S
C4030 H4050 0.929 . S
C4031 C4028 1.461 . S
C4031 C4030 1.474 . S
C4032 C4027 1.342 . S
C4032 C4030 1.285 . S
C4032 H4051 0.930 . S
C4033 C4036 1.424 . S
C4033 C4038 1.245 . S
C4033 C4039 1.428 . S
C4034 C4037 1.260 . S
C4034 C4038 1.477 . S
C4034 H4052 0.932 . S
C4035 C4036 1.384 . S
C4035 C4037 1.479 . S
C4035 H4053 0.929 . S
C4036 C4033 1.424 . S
C4036 C4035 1.384 . S
C4036 H4054 0.928 . S
C4037 C4034 1.260 . S
C4037 C4035 1.479 . S
C4038 C4033 1.245 . S
C4038 C4034 1.477 . S
C4038 H4055 0.932 . S
C4039 U4022 2.882 . S
C4039 C4033 1.428 . S
C4039 O4042 1.301 . S
C4039 O4043 1.282 . S
O4040 U4022 2.441 . S
O4040 C4026 1.249 . S
O4041 U4022 2.420 . S
O4041 C4026 1.202 . S
O4042 U4022 2.455 . S
O4042 C4039 1.301 . S
O4043 U4022 2.449 . S
O4043 C4039 1.282 . S
H4044 C4017 0.931 . S
H4045 C4019 0.929 . S
H4046 C4020 0.930 . S
H4047 C4021 0.931 . S
H4048 C4028 0.932 . S
H4049 C4029 0.930 . S
H4050 C4030 0.929 . S
H4051 C4032 0.930 . S
H4052 C4034 0.932 . S
H4053 C4035 0.929 . S
H4054 C4036 0.928 . S
H4055 C4038 0.932 . S
C4056 C4057 1.264 . S
C4056 C4061 1.479 . S
C4056 C4066 1.465 . S
C4057 C4056 1.264 . S
C4057 C4059 1.339 . S
C4057 H4084 0.931 . S
C4058 C4059 1.395 . S
C4058 C4060 1.320 . S
C4059 C4057 1.339 . S
C4059 C4058 1.395 . S
C4059 H4085 0.929 . S
C4060 C4058 1.320 . S
C4060 C4061 1.405 . S
C4060 H4086 0.930 . S
C4061 C4056 1.479 . S
C4061 C4060 1.405 . S
C4061 H4087 0.931 . S
U4062 O4063 2.454 . S
U4062 O4064 2.458 . S
U4062 C4065 2.984 . S
U4062 C4066 2.847 . S
U4062 C4079 2.882 . S
U4062 O4080 2.441 . S
U4062 O4081 2.420 . S
U4062 O4082 2.455 . S
U4062 O4083 2.449 . S
O4063 U4062 2.454 . S
O4063 C4065 1.353 . S
O4064 U4062 2.458 . S
O4064 C4065 1.286 . S
C4065 U4062 2.984 . S
C4065 O4063 1.353 . S
C4065 O4064 1.286 . S
C4065 C4067 1.363 . S
C4066 C4056 1.465 . S
C4066 U4062 2.847 . S
C4066 O4080 1.249 . S
C4066 O4081 1.202 . S
C4067 C4065 1.363 . S
C4067 C4069 1.408 . S
C4067 C4072 1.342 . S
C4068 C4069 1.369 . S
C4068 C4071 1.440 1_455 S
C4068 H4088 0.897 1_455 S
C4069 C4067 1.408 . S
C4069 C4068 1.369 . S
C4069 H4089 0.930 . S
C4070 C4071 1.474 1_455 S
C4070 C4072 1.285 . S
C4070 H4090 0.929 . S
C4071 C4068 1.440 1_655 S
C4071 C4070 1.474 1_655 S
C4072 C4067 1.342 . S
C4072 C4070 1.285 . S
C4072 H4091 0.930 . S
C4073 C4076 1.424 . S
C4073 C4078 1.245 . S
C4073 C4079 1.428 . S
C4074 C4077 1.260 . S
C4074 C4078 1.477 . S
C4074 H4092 0.932 . S
C4075 C4076 1.384 . S
C4075 C4077 1.479 . S
C4075 H4093 0.929 . S
C4076 C4073 1.424 . S
C4076 C4075 1.384 . S
C4076 H4094 0.928 . S
C4077 C4074 1.260 . S
C4077 C4075 1.479 . S
C4078 C4073 1.245 . S
C4078 C4074 1.477 . S
C4078 H4095 0.932 . S
C4079 U4062 2.882 . S
C4079 C4073 1.428 . S
C4079 O4082 1.301 . S
C4079 O4083 1.282 . S
O4080 U4062 2.441 . S
O4080 C4066 1.249 . S
O4081 U4062 2.420 . S
O4081 C4066 1.202 . S
O4082 U4062 2.455 . S
O4082 C4079 1.301 . S
O4083 U4062 2.449 . S
O4083 C4079 1.282 . S
H4084 C4057 0.931 . S
H4085 C4059 0.929 . S
H4086 C4060 0.930 . S
H4087 C4061 0.931 . S
H4088 C4068 0.897 1_655 S
H4089 C4069 0.930 . S
H4090 C4070 0.929 . S
H4091 C4072 0.930 . S
H4092 C4074 0.932 . S
H4093 C4075 0.929 . S
H4094 C4076 0.928 . S
H4095 C4078 0.932 . S
C4096 C4097 1.264 . S
C4096 C4101 1.479 . S
C4096 C4106 1.465 . S
C4097 C4096 1.264 . S
C4097 C4099 1.339 . S
C4097 H4124 0.931 . S
C4098 C4099 1.395 . S
C4098 C4100 1.320 . S
C4099 C4097 1.339 . S
C4099 C4098 1.395 . S
C4099 H4125 0.929 . S
C4100 C4098 1.320 . S
C4100 C4101 1.405 . S
C4100 H4126 0.930 . S
C4101 C4096 1.479 . S
C4101 C4100 1.405 . S
C4101 H4127 0.931 . S
U4102 O4103 2.454 . S
U4102 O4104 2.458 . S
U4102 C4105 2.984 . S
U4102 C4106 2.847 . S
U4102 C4119 2.882 . S
U4102 O4120 2.441 . S
U4102 O4121 2.420 . S
U4102 O4122 2.455 . S
U4102 O4123 2.449 . S
O4103 U4102 2.454 . S
O4103 C4105 1.353 . S
O4104 U4102 2.458 . S
O4104 C4105 1.286 . S
C4105 U4102 2.984 . S
C4105 O4103 1.353 . S
C4105 O4104 1.286 . S
C4105 C4107 1.363 . S
C4106 C4096 1.465 . S
C4106 U4102 2.847 . S
C4106 O4120 1.249 . S
C4106 O4121 1.202 . S
C4107 C4105 1.363 . S
C4107 C4109 1.408 . S
C4107 C4112 1.342 . S
C4108 C4109 1.310 . S
C4108 C4111 1.461 . S
C4108 H4128 0.932 . S
C4109 C4107 1.408 . S
C4109 C4108 1.310 . S
C4109 H4129 0.930 . S
C4110 C4111 1.474 . S
C4110 C4112 1.285 . S
C4110 H4130 0.929 . S
C4111 C4108 1.461 . S
C4111 C4110 1.474 . S
C4112 C4107 1.342 . S
C4112 C4110 1.285 . S
C4112 H4131 0.930 . S
C4113 C4116 1.424 . S
C4113 C4118 1.245 . S
C4113 C4119 1.428 . S
C4114 C4117 1.260 . S
C4114 C4118 1.477 . S
C4114 H4132 0.932 . S
C4115 C4116 1.384 . S
C4115 C4117 1.479 . S
C4115 H4133 0.929 . S
C4116 C4113 1.424 . S
C4116 C4115 1.384 . S
C4116 H4134 0.928 . S
C4117 C4114 1.260 . S
C4117 C4115 1.479 . S
C4118 C4113 1.245 . S
C4118 C4114 1.477 . S
C4118 H4135 0.932 . S
C4119 U4102 2.882 . S
C4119 C4113 1.428 . S
C4119 O4122 1.301 . S
C4119 O4123 1.282 . S
O4120 U4102 2.441 . S
O4120 C4106 1.249 . S
O4121 U4102 2.420 . S
O4121 C4106 1.202 . S
O4122 U4102 2.455 . S
O4122 C4119 1.301 . S
O4123 U4102 2.449 . S
O4123 C4119 1.282 . S
H4124 C4097 0.931 . S
H4125 C4099 0.929 . S
H4126 C4100 0.930 . S
H4127 C4101 0.931 . S
H4128 C4108 0.932 . S
H4129 C4109 0.930 . S
H4130 C4110 0.929 . S
H4131 C4112 0.930 . S
H4132 C4114 0.932 . S
H4133 C4115 0.929 . S
H4134 C4116 0.928 . S
H4135 C4118 0.932 . S
C4136 C4137 1.264 . S
C4136 C4141 1.479 . S
C4136 C4146 1.465 . S
C4137 C4136 1.264 . S
C4137 C4139 1.339 . S
C4137 H4164 0.931 . S
C4138 C4139 1.395 . S
C4138 C4140 1.320 . S
C4139 C4137 1.339 . S
C4139 C4138 1.395 . S
C4139 H4165 0.929 . S
C4140 C4138 1.320 . S
C4140 C4141 1.405 . S
C4140 H4166 0.930 . S
C4141 C4136 1.479 . S
C4141 C4140 1.405 . S
C4141 H4167 0.931 . S
U4142 O4143 2.454 . S
U4142 O4144 2.458 . S
U4142 C4145 2.984 . S
U4142 C4146 2.847 . S
U4142 C4159 2.882 . S
U4142 O4160 2.441 . S
U4142 O4161 2.420 . S
U4142 O4162 2.455 . S
U4142 O4163 2.449 . S
O4143 U4142 2.454 . S
O4143 C4145 1.353 . S
O4144 U4142 2.458 . S
O4144 C4145 1.286 . S
C4145 U4142 2.984 . S
C4145 O4143 1.353 . S
C4145 O4144 1.286 . S
C4145 C4147 1.363 . S
C4146 C4136 1.465 . S
C4146 U4142 2.847 . S
C4146 O4160 1.249 . S
C4146 O4161 1.202 . S
C4147 C4145 1.363 . S
C4147 C4149 1.408 . S
C4147 C4152 1.342 . S
C4148 C4149 1.369 . S
C4148 C4151 1.440 1_455 S
C4148 H4168 0.897 1_455 S
C4149 C4147 1.408 . S
C4149 C4148 1.369 . S
C4149 H4169 0.930 . S
C4150 C4151 1.474 1_455 S
C4150 C4152 1.285 . S
C4150 H4170 0.929 . S
C4151 C4148 1.440 1_655 S
C4151 C4150 1.474 1_655 S
C4152 C4147 1.342 . S
C4152 C4150 1.285 . S
C4152 H4171 0.930 . S
C4153 C4156 1.424 . S
C4153 C4158 1.245 . S
C4153 C4159 1.428 . S
C4154 C4157 1.260 . S
C4154 C4158 1.477 . S
C4154 H4172 0.932 . S
C4155 C4156 1.384 . S
C4155 C4157 1.479 . S
C4155 H4173 0.929 . S
C4156 C4153 1.424 . S
C4156 C4155 1.384 . S
C4156 H4174 0.928 . S
C4157 C4154 1.260 . S
C4157 C4155 1.479 . S
C4158 C4153 1.245 . S
C4158 C4154 1.477 . S
C4158 H4175 0.932 . S
C4159 U4142 2.882 . S
C4159 C4153 1.428 . S
C4159 O4162 1.301 . S
C4159 O4163 1.282 . S
O4160 U4142 2.441 . S
O4160 C4146 1.249 . S
O4161 U4142 2.420 . S
O4161 C4146 1.202 . S
O4162 U4142 2.455 . S
O4162 C4159 1.301 . S
O4163 U4142 2.449 . S
O4163 C4159 1.282 . S
H4164 C4137 0.931 . S
H4165 C4139 0.929 . S
H4166 C4140 0.930 . S
H4167 C4141 0.931 . S
H4168 C4148 0.897 1_655 S
H4169 C4149 0.930 . S
H4170 C4150 0.929 . S
H4171 C4152 0.930 . S
H4172 C4154 0.932 . S
H4173 C4155 0.929 . S
H4174 C4156 0.928 . S
H4175 C4158 0.932 . S
C4176 C4177 1.264 . S
C4176 C4181 1.479 . S
C4176 C4186 1.465 . S
C4177 C4176 1.264 . S
C4177 C4179 1.339 . S
C4177 H4204 0.931 . S
C4178 C4179 1.395 . S
C4178 C4180 1.320 . S
C4179 C4177 1.339 . S
C4179 C4178 1.395 . S
C4179 H4205 0.929 . S
C4180 C4178 1.320 . S
C4180 C4181 1.405 . S
C4180 H4206 0.930 . S
C4181 C4176 1.479 . S
C4181 C4180 1.405 . S
C4181 H4207 0.931 . S
U4182 O4183 2.454 . S
U4182 O4184 2.458 . S
U4182 C4185 2.984 . S
U4182 C4186 2.847 . S
U4182 C4199 2.882 . S
U4182 O4200 2.441 . S
U4182 O4201 2.420 . S
U4182 O4202 2.455 . S
U4182 O4203 2.449 . S
O4183 U4182 2.454 . S
O4183 C4185 1.353 . S
O4184 U4182 2.458 . S
O4184 C4185 1.286 . S
C4185 U4182 2.984 . S
C4185 O4183 1.353 . S
C4185 O4184 1.286 . S
C4185 C4187 1.363 . S
C4186 C4176 1.465 . S
C4186 U4182 2.847 . S
C4186 O4200 1.249 . S
C4186 O4201 1.202 . S
C4187 C4185 1.363 . S
C4187 C4189 1.408 . S
C4187 C4192 1.342 . S
C4188 C4189 1.310 . S
C4188 C4191 1.461 . S
C4188 H4208 0.932 . S
C4189 C4187 1.408 . S
C4189 C4188 1.310 . S
C4189 H4209 0.930 . S
C4190 C4191 1.474 . S
C4190 C4192 1.285 . S
C4190 H4210 0.929 . S
C4191 C4188 1.461 . S
C4191 C4190 1.474 . S
C4192 C4187 1.342 . S
C4192 C4190 1.285 . S
C4192 H4211 0.930 . S
C4193 C4196 1.424 . S
C4193 C4198 1.245 . S
C4193 C4199 1.428 . S
C4194 C4197 1.260 . S
C4194 C4198 1.477 . S
C4194 H4212 0.932 . S
C4195 C4196 1.384 . S
C4195 C4197 1.479 . S
C4195 H4213 0.929 . S
C4196 C4193 1.424 . S
C4196 C4195 1.384 . S
C4196 H4214 0.928 . S
C4197 C4194 1.260 . S
C4197 C4195 1.479 . S
C4198 C4193 1.245 . S
C4198 C4194 1.477 . S
C4198 H4215 0.932 . S
C4199 U4182 2.882 . S
C4199 C4193 1.428 . S
C4199 O4202 1.301 . S
C4199 O4203 1.282 . S
O4200 U4182 2.441 . S
O4200 C4186 1.249 . S
O4201 U4182 2.420 . S
O4201 C4186 1.202 . S
O4202 U4182 2.455 . S
O4202 C4199 1.301 . S
O4203 U4182 2.449 . S
O4203 C4199 1.282 . S
H4204 C4177 0.931 . S
H4205 C4179 0.929 . S
H4206 C4180 0.930 . S
H4207 C4181 0.931 . S
H4208 C4188 0.932 . S
H4209 C4189 0.930 . S
H4210 C4190 0.929 . S
H4211 C4192 0.930 . S
H4212 C4194 0.932 . S
H4213 C4195 0.929 . S
H4214 C4196 0.928 . S
H4215 C4198 0.932 . S
C4216 C4217 1.264 . S
C4216 C4221 1.479 . S
C4216 C4226 1.465 . S
C4217 C4216 1.264 . S
C4217 C4219 1.339 . S
C4217 H4244 0.931 . S
C4218 C4219 1.395 . S
C4218 C4220 1.320 . S
C4219 C4217 1.339 . S
C4219 C4218 1.395 . S
C4219 H4245 0.929 . S
C4220 C4218 1.320 . S
C4220 C4221 1.405 . S
C4220 H4246 0.930 . S
C4221 C4216 1.479 . S
C4221 C4220 1.405 . S
C4221 H4247 0.931 . S
U4222 O4223 2.454 . S
U4222 O4224 2.458 . S
U4222 C4225 2.984 . S
U4222 C4226 2.847 . S
U4222 C4239 2.882 . S
U4222 O4240 2.441 . S
U4222 O4241 2.420 . S
U4222 O4242 2.455 . S
U4222 O4243 2.449 . S
O4223 U4222 2.454 . S
O4223 C4225 1.353 . S
O4224 U4222 2.458 . S
O4224 C4225 1.286 . S
C4225 U4222 2.984 . S
C4225 O4223 1.353 . S
C4225 O4224 1.286 . S
C4225 C4227 1.363 . S
C4226 C4216 1.465 . S
C4226 U4222 2.847 . S
C4226 O4240 1.249 . S
C4226 O4241 1.202 . S
C4227 C4225 1.363 . S
C4227 C4229 1.408 . S
C4227 C4232 1.342 . S
C4228 C4229 1.310 . S
C4228 C4231 1.461 . S
C4228 H4248 0.932 . S
C4229 C4227 1.408 . S
C4229 C4228 1.310 . S
C4229 H4249 0.930 . S
C4230 C4231 1.474 . S
C4230 C4232 1.285 . S
C4230 H4250 0.929 . S
C4231 C4228 1.461 . S
C4231 C4230 1.474 . S
C4232 C4227 1.342 . S
C4232 C4230 1.285 . S
C4232 H4251 0.930 . S
C4233 C4236 1.424 . S
C4233 C4238 1.245 . S
C4233 C4239 1.428 . S
C4234 C4237 1.260 . S
C4234 C4238 1.477 . S
C4234 H4252 0.932 . S
C4235 C4236 1.384 . S
C4235 C4237 1.479 . S
C4235 H4253 0.929 . S
C4236 C4233 1.424 . S
C4236 C4235 1.384 . S
C4236 H4254 0.928 . S
C4237 C4234 1.260 . S
C4237 C4235 1.479 . S
C4238 C4233 1.245 . S
C4238 C4234 1.477 . S
C4238 H4255 0.932 . S
C4239 U4222 2.882 . S
C4239 C4233 1.428 . S
C4239 O4242 1.301 . S
C4239 O4243 1.282 . S
O4240 U4222 2.441 . S
O4240 C4226 1.249 . S
O4241 U4222 2.420 . S
O4241 C4226 1.202 . S
O4242 U4222 2.455 . S
O4242 C4239 1.301 . S
O4243 U4222 2.449 . S
O4243 C4239 1.282 . S
H4244 C4217 0.931 . S
H4245 C4219 0.929 . S
H4246 C4220 0.930 . S
H4247 C4221 0.931 . S
H4248 C4228 0.932 . S
H4249 C4229 0.930 . S
H4250 C4230 0.929 . S
H4251 C4232 0.930 . S
H4252 C4234 0.932 . S
H4253 C4235 0.929 . S
H4254 C4236 0.928 . S
H4255 C4238 0.932 . S
C4256 C4257 1.264 . S
C4256 C4261 1.479 . S
C4256 C4266 1.465 . S
C4257 C4256 1.264 . S
C4257 C4259 1.339 . S
C4257 H4284 0.931 . S
C4258 C4259 1.395 . S
C4258 C4260 1.320 . S
C4259 C4257 1.339 . S
C4259 C4258 1.395 . S
C4259 H4285 0.929 . S
C4260 C4258 1.320 . S
C4260 C4261 1.405 . S
C4260 H4286 0.930 . S
C4261 C4256 1.479 . S
C4261 C4260 1.405 . S
C4261 H4287 0.931 . S
U4262 O4263 2.454 . S
U4262 O4264 2.458 . S
U4262 C4265 2.984 . S
U4262 C4266 2.847 . S
U4262 C4279 2.882 . S
U4262 O4280 2.441 . S
U4262 O4281 2.420 . S
U4262 O4282 2.455 . S
U4262 O4283 2.449 . S
O4263 U4262 2.454 . S
O4263 C4265 1.353 . S
O4264 U4262 2.458 . S
O4264 C4265 1.286 . S
C4265 U4262 2.984 . S
C4265 O4263 1.353 . S
C4265 O4264 1.286 . S
C4265 C4267 1.363 . S
C4266 C4256 1.465 . S
C4266 U4262 2.847 . S
C4266 O4280 1.249 . S
C4266 O4281 1.202 . S
C4267 C4265 1.363 . S
C4267 C4269 1.408 . S
C4267 C4272 1.342 . S
C4268 C4269 1.310 . S
C4268 C4271 1.461 . S
C4268 H4288 0.932 . S
C4269 C4267 1.408 . S
C4269 C4268 1.310 . S
C4269 H4289 0.930 . S
C4270 C4271 1.474 . S
C4270 C4272 1.285 . S
C4270 H4290 0.929 . S
C4271 C4268 1.461 . S
C4271 C4270 1.474 . S
C4272 C4267 1.342 . S
C4272 C4270 1.285 . S
C4272 H4291 0.930 . S
C4273 C4276 1.424 . S
C4273 C4278 1.245 . S
C4273 C4279 1.428 . S
C4274 C4277 1.260 . S
C4274 C4278 1.477 . S
C4274 H4292 0.932 . S
C4275 C4276 1.384 . S
C4275 C4277 1.479 . S
C4275 H4293 0.929 . S
C4276 C4273 1.424 . S
C4276 C4275 1.384 . S
C4276 H4294 0.928 . S
C4277 C4274 1.260 . S
C4277 C4275 1.479 . S
C4278 C4273 1.245 . S
C4278 C4274 1.477 . S
C4278 H4295 0.932 . S
C4279 U4262 2.882 . S
C4279 C4273 1.428 . S
C4279 O4282 1.301 . S
C4279 O4283 1.282 . S
O4280 U4262 2.441 . S
O4280 C4266 1.249 . S
O4281 U4262 2.420 . S
O4281 C4266 1.202 . S
O4282 U4262 2.455 . S
O4282 C4279 1.301 . S
O4283 U4262 2.449 . S
O4283 C4279 1.282 . S
H4284 C4257 0.931 . S
H4285 C4259 0.929 . S
H4286 C4260 0.930 . S
H4287 C4261 0.931 . S
H4288 C4268 0.932 . S
H4289 C4269 0.930 . S
H4290 C4270 0.929 . S
H4291 C4272 0.930 . S
H4292 C4274 0.932 . S
H4293 C4275 0.929 . S
H4294 C4276 0.928 . S
H4295 C4278 0.932 . S
C4296 C4297 1.264 . S
C4296 C4301 1.479 . S
C4296 C4306 1.465 . S
C4297 C4296 1.264 . S
C4297 C4299 1.339 . S
C4297 H4324 0.931 . S
C4298 C4299 1.395 . S
C4298 C4300 1.320 . S
C4299 C4297 1.339 . S
C4299 C4298 1.395 . S
C4299 H4325 0.929 . S
C4300 C4298 1.320 . S
C4300 C4301 1.405 . S
C4300 H4326 0.930 . S
C4301 C4296 1.479 . S
C4301 C4300 1.405 . S
C4301 H4327 0.931 . S
U4302 O4303 2.454 . S
U4302 O4304 2.458 . S
U4302 C4305 2.984 . S
U4302 C4306 2.847 . S
U4302 C4319 2.882 . S
U4302 O4320 2.441 . S
U4302 O4321 2.420 . S
U4302 O4322 2.455 . S
U4302 O4323 2.449 . S
O4303 U4302 2.454 . S
O4303 C4305 1.353 . S
O4304 U4302 2.458 . S
O4304 C4305 1.286 . S
C4305 U4302 2.984 . S
C4305 O4303 1.353 . S
C4305 O4304 1.286 . S
C4305 C4307 1.363 . S
C4306 C4296 1.465 . S
C4306 U4302 2.847 . S
C4306 O4320 1.249 . S
C4306 O4321 1.202 . S
C4307 C4305 1.363 . S
C4307 C4309 1.408 . S
C4307 C4312 1.342 . S
C4308 C4309 1.369 . S
C4308 C4311 1.440 1_554 S
C4308 H4328 0.897 1_554 S
C4309 C4307 1.408 . S
C4309 C4308 1.369 . S
C4309 H4329 0.930 . S
C4310 C4311 1.474 1_554 S
C4310 C4312 1.285 . S
C4310 H4330 0.929 . S
C4311 C4308 1.440 1_556 S
C4311 C4310 1.474 1_556 S
C4312 C4307 1.342 . S
C4312 C4310 1.285 . S
C4312 H4331 0.930 . S
C4313 C4316 1.424 . S
C4313 C4318 1.245 . S
C4313 C4319 1.428 . S
C4314 C4317 1.260 . S
C4314 C4318 1.477 . S
C4314 H4332 0.932 . S
C4315 C4316 1.384 . S
C4315 C4317 1.479 . S
C4315 H4333 0.929 . S
C4316 C4313 1.424 . S
C4316 C4315 1.384 . S
C4316 H4334 0.928 . S
C4317 C4314 1.260 . S
C4317 C4315 1.479 . S
C4318 C4313 1.245 . S
C4318 C4314 1.477 . S
C4318 H4335 0.932 . S
C4319 U4302 2.882 . S
C4319 C4313 1.428 . S
C4319 O4322 1.301 . S
C4319 O4323 1.282 . S
O4320 U4302 2.441 . S
O4320 C4306 1.249 . S
O4321 U4302 2.420 . S
O4321 C4306 1.202 . S
O4322 U4302 2.455 . S
O4322 C4319 1.301 . S
O4323 U4302 2.449 . S
O4323 C4319 1.282 . S
H4324 C4297 0.931 . S
H4325 C4299 0.929 . S
H4326 C4300 0.930 . S
H4327 C4301 0.931 . S
H4328 C4308 0.897 1_556 S
H4329 C4309 0.930 . S
H4330 C4310 0.929 . S
H4331 C4312 0.930 . S
H4332 C4314 0.932 . S
H4333 C4315 0.929 . S
H4334 C4316 0.928 . S
H4335 C4318 0.932 . S
C4336 C4337 1.264 . S
C4336 C4341 1.479 . S
C4336 C4346 1.465 . S
C4337 C4336 1.264 . S
C4337 C4339 1.339 . S
C4337 H4364 0.931 . S
C4338 C4339 1.395 . S
C4338 C4340 1.320 . S
C4339 C4337 1.339 . S
C4339 C4338 1.395 . S
C4339 H4365 0.929 . S
C4340 C4338 1.320 . S
C4340 C4341 1.405 . S
C4340 H4366 0.930 . S
C4341 C4336 1.479 . S
C4341 C4340 1.405 . S
C4341 H4367 0.931 . S
U4342 O4343 2.454 . S
U4342 O4344 2.458 . S
U4342 C4345 2.984 . S
U4342 C4346 2.847 . S
U4342 C4359 2.882 . S
U4342 O4360 2.441 . S
U4342 O4361 2.420 . S
U4342 O4362 2.455 . S
U4342 O4363 2.449 . S
O4343 U4342 2.454 . S
O4343 C4345 1.353 . S
O4344 U4342 2.458 . S
O4344 C4345 1.286 . S
C4345 U4342 2.984 . S
C4345 O4343 1.353 . S
C4345 O4344 1.286 . S
C4345 C4347 1.363 . S
C4346 C4336 1.465 . S
C4346 U4342 2.847 . S
C4346 O4360 1.249 . S
C4346 O4361 1.202 . S
C4347 C4345 1.363 . S
C4347 C4349 1.408 . S
C4347 C4352 1.342 . S
C4348 C4349 1.310 . S
C4348 C4351 1.461 . S
C4348 H4368 0.932 . S
C4349 C4347 1.408 . S
C4349 C4348 1.310 . S
C4349 H4369 0.930 . S
C4350 C4351 1.474 . S
C4350 C4352 1.285 . S
C4350 H4370 0.929 . S
C4351 C4348 1.461 . S
C4351 C4350 1.474 . S
C4352 C4347 1.342 . S
C4352 C4350 1.285 . S
C4352 H4371 0.930 . S
C4353 C4356 1.424 . S
C4353 C4358 1.245 . S
C4353 C4359 1.428 . S
C4354 C4357 1.260 . S
C4354 C4358 1.477 . S
C4354 H4372 0.932 . S
C4355 C4356 1.384 . S
C4355 C4357 1.479 . S
C4355 H4373 0.929 . S
C4356 C4353 1.424 . S
C4356 C4355 1.384 . S
C4356 H4374 0.928 . S
C4357 C4354 1.260 . S
C4357 C4355 1.479 . S
C4358 C4353 1.245 . S
C4358 C4354 1.477 . S
C4358 H4375 0.932 . S
C4359 U4342 2.882 . S
C4359 C4353 1.428 . S
C4359 O4362 1.301 . S
C4359 O4363 1.282 . S
O4360 U4342 2.441 . S
O4360 C4346 1.249 . S
O4361 U4342 2.420 . S
O4361 C4346 1.202 . S
O4362 U4342 2.455 . S
O4362 C4359 1.301 . S
O4363 U4342 2.449 . S
O4363 C4359 1.282 . S
H4364 C4337 0.931 . S
H4365 C4339 0.929 . S
H4366 C4340 0.930 . S
H4367 C4341 0.931 . S
H4368 C4348 0.932 . S
H4369 C4349 0.930 . S
H4370 C4350 0.929 . S
H4371 C4352 0.930 . S
H4372 C4354 0.932 . S
H4373 C4355 0.929 . S
H4374 C4356 0.928 . S
H4375 C4358 0.932 . S
C4376 C4377 1.264 . S
C4376 C4381 1.479 . S
C4376 C4386 1.465 . S
C4377 C4376 1.264 . S
C4377 C4379 1.339 . S
C4377 H4404 0.931 . S
C4378 C4379 1.395 . S
C4378 C4380 1.320 . S
C4379 C4377 1.339 . S
C4379 C4378 1.395 . S
C4379 H4405 0.929 . S
C4380 C4378 1.320 . S
C4380 C4381 1.405 . S
C4380 H4406 0.930 . S
C4381 C4376 1.479 . S
C4381 C4380 1.405 . S
C4381 H4407 0.931 . S
U4382 O4383 2.454 . S
U4382 O4384 2.458 . S
U4382 C4385 2.984 . S
U4382 C4386 2.847 . S
U4382 C4399 2.882 . S
U4382 O4400 2.441 . S
U4382 O4401 2.420 . S
U4382 O4402 2.455 . S
U4382 O4403 2.449 . S
O4383 U4382 2.454 . S
O4383 C4385 1.353 . S
O4384 U4382 2.458 . S
O4384 C4385 1.286 . S
C4385 U4382 2.984 . S
C4385 O4383 1.353 . S
C4385 O4384 1.286 . S
C4385 C4387 1.363 . S
C4386 C4376 1.465 . S
C4386 U4382 2.847 . S
C4386 O4400 1.249 . S
C4386 O4401 1.202 . S
C4387 C4385 1.363 . S
C4387 C4389 1.408 . S
C4387 C4392 1.342 . S
C4388 C4389 1.310 . S
C4388 C4391 1.461 . S
C4388 H4408 0.932 . S
C4389 C4387 1.408 . S
C4389 C4388 1.310 . S
C4389 H4409 0.930 . S
C4390 C4391 1.474 . S
C4390 C4392 1.285 . S
C4390 H4410 0.929 . S
C4391 C4388 1.461 . S
C4391 C4390 1.474 . S
C4392 C4387 1.342 . S
C4392 C4390 1.285 . S
C4392 H4411 0.930 . S
C4393 C4396 1.424 . S
C4393 C4398 1.245 . S
C4393 C4399 1.428 . S
C4394 C4397 1.260 . S
C4394 C4398 1.477 . S
C4394 H4412 0.932 . S
C4395 C4396 1.384 . S
C4395 C4397 1.479 . S
C4395 H4413 0.929 . S
C4396 C4393 1.424 . S
C4396 C4395 1.384 . S
C4396 H4414 0.928 . S
C4397 C4394 1.260 . S
C4397 C4395 1.479 . S
C4398 C4393 1.245 . S
C4398 C4394 1.477 . S
C4398 H4415 0.932 . S
C4399 U4382 2.882 . S
C4399 C4393 1.428 . S
C4399 O4402 1.301 . S
C4399 O4403 1.282 . S
O4400 U4382 2.441 . S
O4400 C4386 1.249 . S
O4401 U4382 2.420 . S
O4401 C4386 1.202 . S
O4402 U4382 2.455 . S
O4402 C4399 1.301 . S
O4403 U4382 2.449 . S
O4403 C4399 1.282 . S
H4404 C4377 0.931 . S
H4405 C4379 0.929 . S
H4406 C4380 0.930 . S
H4407 C4381 0.931 . S
H4408 C4388 0.932 . S
H4409 C4389 0.930 . S
H4410 C4390 0.929 . S
H4411 C4392 0.930 . S
H4412 C4394 0.932 . S
H4413 C4395 0.929 . S
H4414 C4396 0.928 . S
H4415 C4398 0.932 . S
C4416 C4417 1.264 . S
C4416 C4421 1.479 . S
C4416 C4426 1.465 . S
C4417 C4416 1.264 . S
C4417 C4419 1.339 . S
C4417 H4444 0.931 . S
C4418 C4419 1.395 . S
C4418 C4420 1.320 . S
C4419 C4417 1.339 . S
C4419 C4418 1.395 . S
C4419 H4445 0.929 . S
C4420 C4418 1.320 . S
C4420 C4421 1.405 . S
C4420 H4446 0.930 . S
C4421 C4416 1.479 . S
C4421 C4420 1.405 . S
C4421 H4447 0.931 . S
U4422 O4423 2.454 . S
U4422 O4424 2.458 . S
U4422 C4425 2.984 . S
U4422 C4426 2.847 . S
U4422 C4439 2.882 . S
U4422 O4440 2.441 . S
U4422 O4441 2.420 . S
U4422 O4442 2.455 . S
U4422 O4443 2.449 . S
O4423 U4422 2.454 . S
O4423 C4425 1.353 . S
O4424 U4422 2.458 . S
O4424 C4425 1.286 . S
C4425 U4422 2.984 . S
C4425 O4423 1.353 . S
C4425 O4424 1.286 . S
C4425 C4427 1.363 . S
C4426 C4416 1.465 . S
C4426 U4422 2.847 . S
C4426 O4440 1.249 . S
C4426 O4441 1.202 . S
C4427 C4425 1.363 . S
C4427 C4429 1.408 . S
C4427 C4432 1.342 . S
C4428 C4429 1.310 . S
C4428 C4431 1.461 . S
C4428 H4448 0.932 . S
C4429 C4427 1.408 . S
C4429 C4428 1.310 . S
C4429 H4449 0.930 . S
C4430 C4431 1.474 . S
C4430 C4432 1.285 . S
C4430 H4450 0.929 . S
C4431 C4428 1.461 . S
C4431 C4430 1.474 . S
C4432 C4427 1.342 . S
C4432 C4430 1.285 . S
C4432 H4451 0.930 . S
C4433 C4436 1.424 . S
C4433 C4438 1.245 . S
C4433 C4439 1.428 . S
C4434 C4437 1.260 . S
C4434 C4438 1.477 . S
C4434 H4452 0.932 . S
C4435 C4436 1.384 . S
C4435 C4437 1.479 . S
C4435 H4453 0.929 . S
C4436 C4433 1.424 . S
C4436 C4435 1.384 . S
C4436 H4454 0.928 . S
C4437 C4434 1.260 . S
C4437 C4435 1.479 . S
C4438 C4433 1.245 . S
C4438 C4434 1.477 . S
C4438 H4455 0.932 . S
C4439 U4422 2.882 . S
C4439 C4433 1.428 . S
C4439 O4442 1.301 . S
C4439 O4443 1.282 . S
O4440 U4422 2.441 . S
O4440 C4426 1.249 . S
O4441 U4422 2.420 . S
O4441 C4426 1.202 . S
O4442 U4422 2.455 . S
O4442 C4439 1.301 . S
O4443 U4422 2.449 . S
O4443 C4439 1.282 . S
H4444 C4417 0.931 . S
H4445 C4419 0.929 . S
H4446 C4420 0.930 . S
H4447 C4421 0.931 . S
H4448 C4428 0.932 . S
H4449 C4429 0.930 . S
H4450 C4430 0.929 . S
H4451 C4432 0.930 . S
H4452 C4434 0.932 . S
H4453 C4435 0.929 . S
H4454 C4436 0.928 . S
H4455 C4438 0.932 . S
C4456 C4457 1.264 . S
C4456 C4461 1.479 . S
C4456 C4466 1.465 . S
C4457 C4456 1.264 . S
C4457 C4459 1.339 . S
C4457 H4484 0.931 . S
C4458 C4459 1.395 . S
C4458 C4460 1.320 . S
C4459 C4457 1.339 . S
C4459 C4458 1.395 . S
C4459 H4485 0.929 . S
C4460 C4458 1.320 . S
C4460 C4461 1.405 . S
C4460 H4486 0.930 . S
C4461 C4456 1.479 . S
C4461 C4460 1.405 . S
C4461 H4487 0.931 . S
U4462 O4463 2.454 . S
U4462 O4464 2.458 . S
U4462 C4465 2.984 . S
U4462 C4466 2.847 . S
U4462 C4479 2.882 . S
U4462 O4480 2.441 . S
U4462 O4481 2.420 . S
U4462 O4482 2.455 . S
U4462 O4483 2.449 . S
O4463 U4462 2.454 . S
O4463 C4465 1.353 . S
O4464 U4462 2.458 . S
O4464 C4465 1.286 . S
C4465 U4462 2.984 . S
C4465 O4463 1.353 . S
C4465 O4464 1.286 . S
C4465 C4467 1.363 . S
C4466 C4456 1.465 . S
C4466 U4462 2.847 . S
C4466 O4480 1.249 . S
C4466 O4481 1.202 . S
C4467 C4465 1.363 . S
C4467 C4469 1.408 . S
C4467 C4472 1.342 . S
C4468 C4469 1.370 . S
C4468 C4471 1.439 1_556 S
C4468 H4488 0.896 1_556 S
C4469 C4467 1.408 . S
C4469 C4468 1.370 . S
C4469 H4489 0.930 . S
C4470 C4471 1.474 1_556 S
C4470 C4472 1.285 . S
C4470 H4490 0.929 . S
C4471 C4468 1.439 1_554 S
C4471 C4470 1.474 1_554 S
C4472 C4467 1.342 . S
C4472 C4470 1.285 . S
C4472 H4491 0.930 . S
C4473 C4476 1.424 . S
C4473 C4478 1.245 . S
C4473 C4479 1.428 . S
C4474 C4477 1.260 . S
C4474 C4478 1.477 . S
C4474 H4492 0.932 . S
C4475 C4476 1.384 . S
C4475 C4477 1.479 . S
C4475 H4493 0.929 . S
C4476 C4473 1.424 . S
C4476 C4475 1.384 . S
C4476 H4494 0.928 . S
C4477 C4474 1.260 . S
C4477 C4475 1.479 . S
C4478 C4473 1.245 . S
C4478 C4474 1.477 . S
C4478 H4495 0.932 . S
C4479 U4462 2.882 . S
C4479 C4473 1.428 . S
C4479 O4482 1.301 . S
C4479 O4483 1.282 . S
O4480 U4462 2.441 . S
O4480 C4466 1.249 . S
O4481 U4462 2.420 . S
O4481 C4466 1.202 . S
O4482 U4462 2.455 . S
O4482 C4479 1.301 . S
O4483 U4462 2.449 . S
O4483 C4479 1.282 . S
H4484 C4457 0.931 . S
H4485 C4459 0.929 . S
H4486 C4460 0.930 . S
H4487 C4461 0.931 . S
H4488 C4468 0.896 1_554 S
H4489 C4469 0.930 . S
H4490 C4470 0.929 . S
H4491 C4472 0.930 . S
H4492 C4474 0.932 . S
H4493 C4475 0.929 . S
H4494 C4476 0.928 . S
H4495 C4478 0.932 . S
C4496 C4497 1.264 . S
C4496 C4501 1.479 . S
C4496 C4506 1.465 . S
C4497 C4496 1.264 . S
C4497 C4499 1.339 . S
C4497 H4524 0.931 . S
C4498 C4499 1.395 . S
C4498 C4500 1.320 . S
C4499 C4497 1.339 . S
C4499 C4498 1.395 . S
C4499 H4525 0.929 . S
C4500 C4498 1.320 . S
C4500 C4501 1.405 . S
C4500 H4526 0.930 . S
C4501 C4496 1.479 . S
C4501 C4500 1.405 . S
C4501 H4527 0.931 . S
U4502 O4503 2.454 . S
U4502 O4504 2.458 . S
U4502 C4505 2.984 . S
U4502 C4506 2.847 . S
U4502 C4519 2.882 . S
U4502 O4520 2.441 . S
U4502 O4521 2.420 . S
U4502 O4522 2.455 . S
U4502 O4523 2.449 . S
O4503 U4502 2.454 . S
O4503 C4505 1.353 . S
O4504 U4502 2.458 . S
O4504 C4505 1.286 . S
C4505 U4502 2.984 . S
C4505 O4503 1.353 . S
C4505 O4504 1.286 . S
C4505 C4507 1.363 . S
C4506 C4496 1.465 . S
C4506 U4502 2.847 . S
C4506 O4520 1.249 . S
C4506 O4521 1.202 . S
C4507 C4505 1.363 . S
C4507 C4509 1.408 . S
C4507 C4512 1.342 . S
C4508 C4509 1.310 . S
C4508 C4511 1.461 . S
C4508 H4528 0.932 . S
C4509 C4507 1.408 . S
C4509 C4508 1.310 . S
C4509 H4529 0.930 . S
C4510 C4511 1.474 . S
C4510 C4512 1.285 . S
C4510 H4530 0.929 . S
C4511 C4508 1.461 . S
C4511 C4510 1.474 . S
C4512 C4507 1.342 . S
C4512 C4510 1.285 . S
C4512 H4531 0.930 . S
C4513 C4516 1.424 . S
C4513 C4518 1.245 . S
C4513 C4519 1.428 . S
C4514 C4517 1.260 . S
C4514 C4518 1.477 . S
C4514 H4532 0.932 . S
C4515 C4516 1.384 . S
C4515 C4517 1.479 . S
C4515 H4533 0.929 . S
C4516 C4513 1.424 . S
C4516 C4515 1.384 . S
C4516 H4534 0.928 . S
C4517 C4514 1.260 . S
C4517 C4515 1.479 . S
C4518 C4513 1.245 . S
C4518 C4514 1.477 . S
C4518 H4535 0.932 . S
C4519 U4502 2.882 . S
C4519 C4513 1.428 . S
C4519 O4522 1.301 . S
C4519 O4523 1.282 . S
O4520 U4502 2.441 . S
O4520 C4506 1.249 . S
O4521 U4502 2.420 . S
O4521 C4506 1.202 . S
O4522 U4502 2.455 . S
O4522 C4519 1.301 . S
O4523 U4502 2.449 . S
O4523 C4519 1.282 . S
H4524 C4497 0.931 . S
H4525 C4499 0.929 . S
H4526 C4500 0.930 . S
H4527 C4501 0.931 . S
H4528 C4508 0.932 . S
H4529 C4509 0.930 . S
H4530 C4510 0.929 . S
H4531 C4512 0.930 . S
H4532 C4514 0.932 . S
H4533 C4515 0.929 . S
H4534 C4516 0.928 . S
H4535 C4518 0.932 . S
C4536 C4537 1.264 . S
C4536 C4541 1.479 . S
C4536 C4546 1.465 . S
C4537 C4536 1.264 . S
C4537 C4539 1.339 . S
C4537 H4564 0.931 . S
C4538 C4539 1.395 . S
C4538 C4540 1.320 . S
C4539 C4537 1.339 . S
C4539 C4538 1.395 . S
C4539 H4565 0.929 . S
C4540 C4538 1.320 . S
C4540 C4541 1.405 . S
C4540 H4566 0.930 . S
C4541 C4536 1.479 . S
C4541 C4540 1.405 . S
C4541 H4567 0.931 . S
U4542 O4543 2.454 . S
U4542 O4544 2.458 . S
U4542 C4545 2.984 . S
U4542 C4546 2.847 . S
U4542 C4559 2.882 . S
U4542 O4560 2.441 . S
U4542 O4561 2.420 . S
U4542 O4562 2.455 . S
U4542 O4563 2.449 . S
O4543 U4542 2.454 . S
O4543 C4545 1.353 . S
O4544 U4542 2.458 . S
O4544 C4545 1.286 . S
C4545 U4542 2.984 . S
C4545 O4543 1.353 . S
C4545 O4544 1.286 . S
C4545 C4547 1.363 . S
C4546 C4536 1.465 . S
C4546 U4542 2.847 . S
C4546 O4560 1.249 . S
C4546 O4561 1.202 . S
C4547 C4545 1.363 . S
C4547 C4549 1.408 . S
C4547 C4552 1.342 . S
C4548 C4549 1.310 . S
C4548 C4551 1.461 . S
C4548 H4568 0.932 . S
C4549 C4547 1.408 . S
C4549 C4548 1.310 . S
C4549 H4569 0.930 . S
C4550 C4551 1.474 . S
C4550 C4552 1.285 . S
C4550 H4570 0.929 . S
C4551 C4548 1.461 . S
C4551 C4550 1.474 . S
C4552 C4547 1.342 . S
C4552 C4550 1.285 . S
C4552 H4571 0.930 . S
C4553 C4556 1.424 . S
C4553 C4558 1.245 . S
C4553 C4559 1.428 . S
C4554 C4557 1.260 . S
C4554 C4558 1.477 . S
C4554 H4572 0.932 . S
C4555 C4556 1.384 . S
C4555 C4557 1.479 . S
C4555 H4573 0.929 . S
C4556 C4553 1.424 . S
C4556 C4555 1.384 . S
C4556 H4574 0.928 . S
C4557 C4554 1.260 . S
C4557 C4555 1.479 . S
C4558 C4553 1.245 . S
C4558 C4554 1.477 . S
C4558 H4575 0.932 . S
C4559 U4542 2.882 . S
C4559 C4553 1.428 . S
C4559 O4562 1.301 . S
C4559 O4563 1.282 . S
O4560 U4542 2.441 . S
O4560 C4546 1.249 . S
O4561 U4542 2.420 . S
O4561 C4546 1.202 . S
O4562 U4542 2.455 . S
O4562 C4559 1.301 . S
O4563 U4542 2.449 . S
O4563 C4559 1.282 . S
H4564 C4537 0.931 . S
H4565 C4539 0.929 . S
H4566 C4540 0.930 . S
H4567 C4541 0.931 . S
H4568 C4548 0.932 . S
H4569 C4549 0.930 . S
H4570 C4550 0.929 . S
H4571 C4552 0.930 . S
H4572 C4554 0.932 . S
H4573 C4555 0.929 . S
H4574 C4556 0.928 . S
H4575 C4558 0.932 . S
C4576 C4577 1.264 . S
C4576 C4581 1.479 . S
C4576 C4586 1.465 . S
C4577 C4576 1.264 . S
C4577 C4579 1.339 . S
C4577 H4604 0.931 . S
C4578 C4579 1.395 . S
C4578 C4580 1.320 . S
C4579 C4577 1.339 . S
C4579 C4578 1.395 . S
C4579 H4605 0.929 . S
C4580 C4578 1.320 . S
C4580 C4581 1.405 . S
C4580 H4606 0.930 . S
C4581 C4576 1.479 . S
C4581 C4580 1.405 . S
C4581 H4607 0.931 . S
U4582 O4583 2.454 . S
U4582 O4584 2.458 . S
U4582 C4585 2.984 . S
U4582 C4586 2.847 . S
U4582 C4599 2.882 . S
U4582 O4600 2.441 . S
U4582 O4601 2.420 . S
U4582 O4602 2.455 . S
U4582 O4603 2.449 . S
O4583 U4582 2.454 . S
O4583 C4585 1.353 . S
O4584 U4582 2.458 . S
O4584 C4585 1.286 . S
C4585 U4582 2.984 . S
C4585 O4583 1.353 . S
C4585 O4584 1.286 . S
C4585 C4587 1.363 . S
C4586 C4576 1.465 . S
C4586 U4582 2.847 . S
C4586 O4600 1.249 . S
C4586 O4601 1.202 . S
C4587 C4585 1.363 . S
C4587 C4589 1.408 . S
C4587 C4592 1.342 . S
C4588 C4589 1.310 . S
C4588 C4591 1.461 . S
C4588 H4608 0.932 . S
C4589 C4587 1.408 . S
C4589 C4588 1.310 . S
C4589 H4609 0.930 . S
C4590 C4591 1.474 . S
C4590 C4592 1.285 . S
C4590 H4610 0.929 . S
C4591 C4588 1.461 . S
C4591 C4590 1.474 . S
C4592 C4587 1.342 . S
C4592 C4590 1.285 . S
C4592 H4611 0.930 . S
C4593 C4596 1.424 . S
C4593 C4598 1.245 . S
C4593 C4599 1.428 . S
C4594 C4597 1.260 . S
C4594 C4598 1.477 . S
C4594 H4612 0.932 . S
C4595 C4596 1.384 . S
C4595 C4597 1.479 . S
C4595 H4613 0.929 . S
C4596 C4593 1.424 . S
C4596 C4595 1.384 . S
C4596 H4614 0.928 . S
C4597 C4594 1.260 . S
C4597 C4595 1.479 . S
C4598 C4593 1.245 . S
C4598 C4594 1.477 . S
C4598 H4615 0.932 . S
C4599 U4582 2.882 . S
C4599 C4593 1.428 . S
C4599 O4602 1.301 . S
C4599 O4603 1.282 . S
O4600 U4582 2.441 . S
O4600 C4586 1.249 . S
O4601 U4582 2.420 . S
O4601 C4586 1.202 . S
O4602 U4582 2.455 . S
O4602 C4599 1.301 . S
O4603 U4582 2.449 . S
O4603 C4599 1.282 . S
H4604 C4577 0.931 . S
H4605 C4579 0.929 . S
H4606 C4580 0.930 . S
H4607 C4581 0.931 . S
H4608 C4588 0.932 . S
H4609 C4589 0.930 . S
H4610 C4590 0.929 . S
H4611 C4592 0.930 . S
H4612 C4594 0.932 . S
H4613 C4595 0.929 . S
H4614 C4596 0.928 . S
H4615 C4598 0.932 . S
C4616 C4617 1.264 . S
C4616 C4621 1.479 . S
C4616 C4626 1.465 . S
C4617 C4616 1.264 . S
C4617 C4619 1.339 . S
C4617 H4644 0.931 . S
C4618 C4619 1.395 . S
C4618 C4620 1.320 . S
C4619 C4617 1.339 . S
C4619 C4618 1.395 . S
C4619 H4645 0.929 . S
C4620 C4618 1.320 . S
C4620 C4621 1.405 . S
C4620 H4646 0.930 . S
C4621 C4616 1.479 . S
C4621 C4620 1.405 . S
C4621 H4647 0.931 . S
U4622 O4623 2.454 . S
U4622 O4624 2.458 . S
U4622 C4625 2.984 . S
U4622 C4626 2.847 . S
U4622 C4639 2.882 . S
U4622 O4640 2.441 . S
U4622 O4641 2.420 . S
U4622 O4642 2.455 . S
U4622 O4643 2.449 . S
O4623 U4622 2.454 . S
O4623 C4625 1.353 . S
O4624 U4622 2.458 . S
O4624 C4625 1.286 . S
C4625 U4622 2.984 . S
C4625 O4623 1.353 . S
C4625 O4624 1.286 . S
C4625 C4627 1.363 . S
C4626 C4616 1.465 . S
C4626 U4622 2.847 . S
C4626 O4640 1.249 . S
C4626 O4641 1.202 . S
C4627 C4625 1.363 . S
C4627 C4629 1.408 . S
C4627 C4632 1.342 . S
C4628 C4629 1.310 . S
C4628 C4631 1.461 . S
C4628 H4648 0.932 . S
C4629 C4627 1.408 . S
C4629 C4628 1.310 . S
C4629 H4649 0.930 . S
C4630 C4631 1.474 . S
C4630 C4632 1.285 . S
C4630 H4650 0.929 . S
C4631 C4628 1.461 . S
C4631 C4630 1.474 . S
C4632 C4627 1.342 . S
C4632 C4630 1.285 . S
C4632 H4651 0.930 . S
C4633 C4636 1.424 . S
C4633 C4638 1.245 . S
C4633 C4639 1.428 . S
C4634 C4637 1.260 . S
C4634 C4638 1.477 . S
C4634 H4652 0.932 . S
C4635 C4636 1.384 . S
C4635 C4637 1.479 . S
C4635 H4653 0.929 . S
C4636 C4633 1.424 . S
C4636 C4635 1.384 . S
C4636 H4654 0.928 . S
C4637 C4634 1.260 . S
C4637 C4635 1.479 . S
C4638 C4633 1.245 . S
C4638 C4634 1.477 . S
C4638 H4655 0.932 . S
C4639 U4622 2.882 . S
C4639 C4633 1.428 . S
C4639 O4642 1.301 . S
C4639 O4643 1.282 . S
O4640 U4622 2.441 . S
O4640 C4626 1.249 . S
O4641 U4622 2.420 . S
O4641 C4626 1.202 . S
O4642 U4622 2.455 . S
O4642 C4639 1.301 . S
O4643 U4622 2.449 . S
O4643 C4639 1.282 . S
H4644 C4617 0.931 . S
H4645 C4619 0.929 . S
H4646 C4620 0.930 . S
H4647 C4621 0.931 . S
H4648 C4628 0.932 . S
H4649 C4629 0.930 . S
H4650 C4630 0.929 . S
H4651 C4632 0.930 . S
H4652 C4634 0.932 . S
H4653 C4635 0.929 . S
H4654 C4636 0.928 . S
H4655 C4638 0.932 . S
C4656 C4657 1.264 . S
C4656 C4661 1.479 . S
C4656 C4666 1.465 . S
C4657 C4656 1.264 . S
C4657 C4659 1.339 . S
C4657 H4684 0.931 . S
C4658 C4659 1.395 . S
C4658 C4660 1.320 . S
C4659 C4657 1.339 . S
C4659 C4658 1.395 . S
C4659 H4685 0.929 . S
C4660 C4658 1.320 . S
C4660 C4661 1.405 . S
C4660 H4686 0.930 . S
C4661 C4656 1.479 . S
C4661 C4660 1.405 . S
C4661 H4687 0.931 . S
U4662 O4663 2.454 . S
U4662 O4664 2.458 . S
U4662 C4665 2.984 . S
U4662 C4666 2.847 . S
U4662 C4679 2.882 . S
U4662 O4680 2.441 . S
U4662 O4681 2.420 . S
U4662 O4682 2.455 . S
U4662 O4683 2.449 . S
O4663 U4662 2.454 . S
O4663 C4665 1.353 . S
O4664 U4662 2.458 . S
O4664 C4665 1.286 . S
C4665 U4662 2.984 . S
C4665 O4663 1.353 . S
C4665 O4664 1.286 . S
C4665 C4667 1.363 . S
C4666 C4656 1.465 . S
C4666 U4662 2.847 . S
C4666 O4680 1.249 . S
C4666 O4681 1.202 . S
C4667 C4665 1.363 . S
C4667 C4669 1.408 . S
C4667 C4672 1.342 . S
C4668 C4669 1.369 . S
C4668 C4671 1.440 1_545 S
C4668 H4688 0.897 1_545 S
C4669 C4667 1.408 . S
C4669 C4668 1.369 . S
C4669 H4689 0.930 . S
C4670 C4671 1.474 1_545 S
C4670 C4672 1.285 . S
C4670 H4690 0.929 . S
C4671 C4668 1.440 1_565 S
C4671 C4670 1.474 1_565 S
C4672 C4667 1.342 . S
C4672 C4670 1.285 . S
C4672 H4691 0.930 . S
C4673 C4676 1.424 . S
C4673 C4678 1.245 . S
C4673 C4679 1.428 . S
C4674 C4677 1.260 . S
C4674 C4678 1.477 . S
C4674 H4692 0.932 . S
C4675 C4676 1.384 . S
C4675 C4677 1.479 . S
C4675 H4693 0.929 . S
C4676 C4673 1.424 . S
C4676 C4675 1.384 . S
C4676 H4694 0.928 . S
C4677 C4674 1.260 . S
C4677 C4675 1.479 . S
C4678 C4673 1.245 . S
C4678 C4674 1.477 . S
C4678 H4695 0.932 . S
C4679 U4662 2.882 . S
C4679 C4673 1.428 . S
C4679 O4682 1.301 . S
C4679 O4683 1.282 . S
O4680 U4662 2.441 . S
O4680 C4666 1.249 . S
O4681 U4662 2.420 . S
O4681 C4666 1.202 . S
O4682 U4662 2.455 . S
O4682 C4679 1.301 . S
O4683 U4662 2.449 . S
O4683 C4679 1.282 . S
H4684 C4657 0.931 . S
H4685 C4659 0.929 . S
H4686 C4660 0.930 . S
H4687 C4661 0.931 . S
H4688 C4668 0.897 1_565 S
H4689 C4669 0.930 . S
H4690 C4670 0.929 . S
H4691 C4672 0.930 . S
H4692 C4674 0.932 . S
H4693 C4675 0.929 . S
H4694 C4676 0.928 . S
H4695 C4678 0.932 . S
C4696 C4697 1.264 . S
C4696 C4701 1.479 . S
C4696 C4706 1.465 . S
C4697 C4696 1.264 . S
C4697 C4699 1.339 . S
C4697 H4724 0.931 . S
C4698 C4699 1.395 . S
C4698 C4700 1.320 . S
C4699 C4697 1.339 . S
C4699 C4698 1.395 . S
C4699 H4725 0.929 . S
C4700 C4698 1.320 . S
C4700 C4701 1.405 . S
C4700 H4726 0.930 . S
C4701 C4696 1.479 . S
C4701 C4700 1.405 . S
C4701 H4727 0.931 . S
U4702 O4703 2.454 . S
U4702 O4704 2.458 . S
U4702 C4705 2.984 . S
U4702 C4706 2.847 . S
U4702 C4719 2.882 . S
U4702 O4720 2.441 . S
U4702 O4721 2.420 . S
U4702 O4722 2.455 . S
U4702 O4723 2.449 . S
O4703 U4702 2.454 . S
O4703 C4705 1.353 . S
O4704 U4702 2.458 . S
O4704 C4705 1.286 . S
C4705 U4702 2.984 . S
C4705 O4703 1.353 . S
C4705 O4704 1.286 . S
C4705 C4707 1.363 . S
C4706 C4696 1.465 . S
C4706 U4702 2.847 . S
C4706 O4720 1.249 . S
C4706 O4721 1.202 . S
C4707 C4705 1.363 . S
C4707 C4709 1.408 . S
C4707 C4712 1.342 . S
C4708 C4709 1.310 . S
C4708 C4711 1.461 . S
C4708 H4728 0.932 . S
C4709 C4707 1.408 . S
C4709 C4708 1.310 . S
C4709 H4729 0.930 . S
C4710 C4711 1.474 . S
C4710 C4712 1.285 . S
C4710 H4730 0.929 . S
C4711 C4708 1.461 . S
C4711 C4710 1.474 . S
C4712 C4707 1.342 . S
C4712 C4710 1.285 . S
C4712 H4731 0.930 . S
C4713 C4716 1.424 . S
C4713 C4718 1.245 . S
C4713 C4719 1.428 . S
C4714 C4717 1.260 . S
C4714 C4718 1.477 . S
C4714 H4732 0.932 . S
C4715 C4716 1.384 . S
C4715 C4717 1.479 . S
C4715 H4733 0.929 . S
C4716 C4713 1.424 . S
C4716 C4715 1.384 . S
C4716 H4734 0.928 . S
C4717 C4714 1.260 . S
C4717 C4715 1.479 . S
C4718 C4713 1.245 . S
C4718 C4714 1.477 . S
C4718 H4735 0.932 . S
C4719 U4702 2.882 . S
C4719 C4713 1.428 . S
C4719 O4722 1.301 . S
C4719 O4723 1.282 . S
O4720 U4702 2.441 . S
O4720 C4706 1.249 . S
O4721 U4702 2.420 . S
O4721 C4706 1.202 . S
O4722 U4702 2.455 . S
O4722 C4719 1.301 . S
O4723 U4702 2.449 . S
O4723 C4719 1.282 . S
H4724 C4697 0.931 . S
H4725 C4699 0.929 . S
H4726 C4700 0.930 . S
H4727 C4701 0.931 . S
H4728 C4708 0.932 . S
H4729 C4709 0.930 . S
H4730 C4710 0.929 . S
H4731 C4712 0.930 . S
H4732 C4714 0.932 . S
H4733 C4715 0.929 . S
H4734 C4716 0.928 . S
H4735 C4718 0.932 . S
C4736 C4737 1.264 . S
C4736 C4741 1.479 . S
C4736 C4746 1.465 . S
C4737 C4736 1.264 . S
C4737 C4739 1.339 . S
C4737 H4764 0.931 . S
C4738 C4739 1.395 . S
C4738 C4740 1.320 . S
C4739 C4737 1.339 . S
C4739 C4738 1.395 . S
C4739 H4765 0.929 . S
C4740 C4738 1.320 . S
C4740 C4741 1.405 . S
C4740 H4766 0.930 . S
C4741 C4736 1.479 . S
C4741 C4740 1.405 . S
C4741 H4767 0.931 . S
U4742 O4743 2.454 . S
U4742 O4744 2.458 . S
U4742 C4745 2.984 . S
U4742 C4746 2.847 . S
U4742 C4759 2.882 . S
U4742 O4760 2.441 . S
U4742 O4761 2.420 . S
U4742 O4762 2.455 . S
U4742 O4763 2.449 . S
O4743 U4742 2.454 . S
O4743 C4745 1.353 . S
O4744 U4742 2.458 . S
O4744 C4745 1.286 . S
C4745 U4742 2.984 . S
C4745 O4743 1.353 . S
C4745 O4744 1.286 . S
C4745 C4747 1.363 . S
C4746 C4736 1.465 . S
C4746 U4742 2.847 . S
C4746 O4760 1.249 . S
C4746 O4761 1.202 . S
C4747 C4745 1.363 . S
C4747 C4749 1.408 . S
C4747 C4752 1.342 . S
C4748 C4749 1.310 . S
C4748 C4751 1.461 . S
C4748 H4768 0.932 . S
C4749 C4747 1.408 . S
C4749 C4748 1.310 . S
C4749 H4769 0.930 . S
C4750 C4751 1.474 . S
C4750 C4752 1.285 . S
C4750 H4770 0.929 . S
C4751 C4748 1.461 . S
C4751 C4750 1.474 . S
C4752 C4747 1.342 . S
C4752 C4750 1.285 . S
C4752 H4771 0.930 . S
C4753 C4756 1.424 . S
C4753 C4758 1.245 . S
C4753 C4759 1.428 . S
C4754 C4757 1.260 . S
C4754 C4758 1.477 . S
C4754 H4772 0.932 . S
C4755 C4756 1.384 . S
C4755 C4757 1.479 . S
C4755 H4773 0.929 . S
C4756 C4753 1.424 . S
C4756 C4755 1.384 . S
C4756 H4774 0.928 . S
C4757 C4754 1.260 . S
C4757 C4755 1.479 . S
C4758 C4753 1.245 . S
C4758 C4754 1.477 . S
C4758 H4775 0.932 . S
C4759 U4742 2.882 . S
C4759 C4753 1.428 . S
C4759 O4762 1.301 . S
C4759 O4763 1.282 . S
O4760 U4742 2.441 . S
O4760 C4746 1.249 . S
O4761 U4742 2.420 . S
O4761 C4746 1.202 . S
O4762 U4742 2.455 . S
O4762 C4759 1.301 . S
O4763 U4742 2.449 . S
O4763 C4759 1.282 . S
H4764 C4737 0.931 . S
H4765 C4739 0.929 . S
H4766 C4740 0.930 . S
H4767 C4741 0.931 . S
H4768 C4748 0.932 . S
H4769 C4749 0.930 . S
H4770 C4750 0.929 . S
H4771 C4752 0.930 . S
H4772 C4754 0.932 . S
H4773 C4755 0.929 . S
H4774 C4756 0.928 . S
H4775 C4758 0.932 . S
C4776 C4777 1.264 . S
C4776 C4781 1.479 . S
C4776 C4786 1.465 . S
C4777 C4776 1.264 . S
C4777 C4779 1.339 . S
C4777 H4804 0.931 . S
C4778 C4779 1.395 . S
C4778 C4780 1.320 . S
C4779 C4777 1.339 . S
C4779 C4778 1.395 . S
C4779 H4805 0.929 . S
C4780 C4778 1.320 . S
C4780 C4781 1.405 . S
C4780 H4806 0.930 . S
C4781 C4776 1.479 . S
C4781 C4780 1.405 . S
C4781 H4807 0.931 . S
U4782 O4783 2.454 . S
U4782 O4784 2.458 . S
U4782 C4785 2.984 . S
U4782 C4786 2.847 . S
U4782 C4799 2.882 . S
U4782 O4800 2.441 . S
U4782 O4801 2.420 . S
U4782 O4802 2.455 . S
U4782 O4803 2.449 . S
O4783 U4782 2.454 . S
O4783 C4785 1.353 . S
O4784 U4782 2.458 . S
O4784 C4785 1.286 . S
C4785 U4782 2.984 . S
C4785 O4783 1.353 . S
C4785 O4784 1.286 . S
C4785 C4787 1.363 . S
C4786 C4776 1.465 . S
C4786 U4782 2.847 . S
C4786 O4800 1.249 . S
C4786 O4801 1.202 . S
C4787 C4785 1.363 . S
C4787 C4789 1.408 . S
C4787 C4792 1.342 . S
C4788 C4789 1.310 . S
C4788 C4791 1.461 . S
C4788 H4808 0.932 . S
C4789 C4787 1.408 . S
C4789 C4788 1.310 . S
C4789 H4809 0.930 . S
C4790 C4791 1.474 . S
C4790 C4792 1.285 . S
C4790 H4810 0.929 . S
C4791 C4788 1.461 . S
C4791 C4790 1.474 . S
C4792 C4787 1.342 . S
C4792 C4790 1.285 . S
C4792 H4811 0.930 . S
C4793 C4796 1.424 . S
C4793 C4798 1.245 . S
C4793 C4799 1.428 . S
C4794 C4797 1.260 . S
C4794 C4798 1.477 . S
C4794 H4812 0.932 . S
C4795 C4796 1.384 . S
C4795 C4797 1.479 . S
C4795 H4813 0.929 . S
C4796 C4793 1.424 . S
C4796 C4795 1.384 . S
C4796 H4814 0.928 . S
C4797 C4794 1.260 . S
C4797 C4795 1.479 . S
C4798 C4793 1.245 . S
C4798 C4794 1.477 . S
C4798 H4815 0.932 . S
C4799 U4782 2.882 . S
C4799 C4793 1.428 . S
C4799 O4802 1.301 . S
C4799 O4803 1.282 . S
O4800 U4782 2.441 . S
O4800 C4786 1.249 . S
O4801 U4782 2.420 . S
O4801 C4786 1.202 . S
O4802 U4782 2.455 . S
O4802 C4799 1.301 . S
O4803 U4782 2.449 . S
O4803 C4799 1.282 . S
H4804 C4777 0.931 . S
H4805 C4779 0.929 . S
H4806 C4780 0.930 . S
H4807 C4781 0.931 . S
H4808 C4788 0.932 . S
H4809 C4789 0.930 . S
H4810 C4790 0.929 . S
H4811 C4792 0.930 . S
H4812 C4794 0.932 . S
H4813 C4795 0.929 . S
H4814 C4796 0.928 . S
H4815 C4798 0.932 . S
C4816 C4817 1.264 . S
C4816 C4821 1.479 . S
C4816 C4826 1.465 . S
C4817 C4816 1.264 . S
C4817 C4819 1.339 . S
C4817 H4844 0.931 . S
C4818 C4819 1.395 . S
C4818 C4820 1.320 . S
C4819 C4817 1.339 . S
C4819 C4818 1.395 . S
C4819 H4845 0.929 . S
C4820 C4818 1.320 . S
C4820 C4821 1.405 . S
C4820 H4846 0.930 . S
C4821 C4816 1.479 . S
C4821 C4820 1.405 . S
C4821 H4847 0.931 . S
U4822 O4823 2.454 . S
U4822 O4824 2.458 . S
U4822 C4825 2.984 . S
U4822 C4826 2.847 . S
U4822 C4839 2.882 . S
U4822 O4840 2.441 . S
U4822 O4841 2.420 . S
U4822 O4842 2.455 . S
U4822 O4843 2.449 . S
O4823 U4822 2.454 . S
O4823 C4825 1.353 . S
O4824 U4822 2.458 . S
O4824 C4825 1.286 . S
C4825 U4822 2.984 . S
C4825 O4823 1.353 . S
C4825 O4824 1.286 . S
C4825 C4827 1.363 . S
C4826 C4816 1.465 . S
C4826 U4822 2.847 . S
C4826 O4840 1.249 . S
C4826 O4841 1.202 . S
C4827 C4825 1.363 . S
C4827 C4829 1.408 . S
C4827 C4832 1.342 . S
C4828 C4829 1.371 . S
C4828 C4831 1.439 1_565 S
C4828 H4848 0.896 1_565 S
C4829 C4827 1.408 . S
C4829 C4828 1.371 . S
C4829 H4849 0.930 . S
C4830 C4831 1.474 1_565 S
C4830 C4832 1.285 . S
C4830 H4850 0.929 . S
C4831 C4828 1.439 1_545 S
C4831 C4830 1.474 1_545 S
C4832 C4827 1.342 . S
C4832 C4830 1.285 . S
C4832 H4851 0.930 . S
C4833 C4836 1.424 . S
C4833 C4838 1.245 . S
C4833 C4839 1.428 . S
C4834 C4837 1.260 . S
C4834 C4838 1.477 . S
C4834 H4852 0.932 . S
C4835 C4836 1.384 . S
C4835 C4837 1.479 . S
C4835 H4853 0.929 . S
C4836 C4833 1.424 . S
C4836 C4835 1.384 . S
C4836 H4854 0.928 . S
C4837 C4834 1.260 . S
C4837 C4835 1.479 . S
C4838 C4833 1.245 . S
C4838 C4834 1.477 . S
C4838 H4855 0.932 . S
C4839 U4822 2.882 . S
C4839 C4833 1.428 . S
C4839 O4842 1.301 . S
C4839 O4843 1.282 . S
O4840 U4822 2.441 . S
O4840 C4826 1.249 . S
O4841 U4822 2.420 . S
O4841 C4826 1.202 . S
O4842 U4822 2.455 . S
O4842 C4839 1.301 . S
O4843 U4822 2.449 . S
O4843 C4839 1.282 . S
H4844 C4817 0.931 . S
H4845 C4819 0.929 . S
H4846 C4820 0.930 . S
H4847 C4821 0.931 . S
H4848 C4828 0.896 1_545 S
H4849 C4829 0.930 . S
H4850 C4830 0.929 . S
H4851 C4832 0.930 . S
H4852 C4834 0.932 . S
H4853 C4835 0.929 . S
H4854 C4836 0.928 . S
H4855 C4838 0.932 . S
C4856 C4857 1.264 . S
C4856 C4861 1.479 . S
C4856 C4866 1.465 . S
C4857 C4856 1.264 . S
C4857 C4859 1.339 . S
C4857 H4884 0.931 . S
C4858 C4859 1.395 . S
C4858 C4860 1.320 . S
C4859 C4857 1.339 . S
C4859 C4858 1.395 . S
C4859 H4885 0.929 . S
C4860 C4858 1.320 . S
C4860 C4861 1.405 . S
C4860 H4886 0.930 . S
C4861 C4856 1.479 . S
C4861 C4860 1.405 . S
C4861 H4887 0.931 . S
U4862 O4863 2.454 . S
U4862 O4864 2.458 . S
U4862 C4865 2.984 . S
U4862 C4866 2.847 . S
U4862 C4879 2.882 . S
U4862 O4880 2.441 . S
U4862 O4881 2.420 . S
U4862 O4882 2.455 . S
U4862 O4883 2.449 . S
O4863 U4862 2.454 . S
O4863 C4865 1.353 . S
O4864 U4862 2.458 . S
O4864 C4865 1.286 . S
C4865 U4862 2.984 . S
C4865 O4863 1.353 . S
C4865 O4864 1.286 . S
C4865 C4867 1.363 . S
C4866 C4856 1.465 . S
C4866 U4862 2.847 . S
C4866 O4880 1.249 . S
C4866 O4881 1.202 . S
C4867 C4865 1.363 . S
C4867 C4869 1.408 . S
C4867 C4872 1.342 . S
C4868 C4869 1.370 . S
C4868 C4871 1.439 1_545 S
C4868 H4888 0.896 1_545 S
C4869 C4867 1.408 . S
C4869 C4868 1.370 . S
C4869 H4889 0.930 . S
C4870 C4871 1.474 1_545 S
C4870 C4872 1.285 . S
C4870 H4890 0.929 . S
C4871 C4868 1.439 1_565 S
C4871 C4870 1.474 1_565 S
C4872 C4867 1.342 . S
C4872 C4870 1.285 . S
C4872 H4891 0.930 . S
C4873 C4876 1.424 . S
C4873 C4878 1.245 . S
C4873 C4879 1.428 . S
C4874 C4877 1.260 . S
C4874 C4878 1.477 . S
C4874 H4892 0.932 . S
C4875 C4876 1.384 . S
C4875 C4877 1.479 . S
C4875 H4893 0.929 . S
C4876 C4873 1.424 . S
C4876 C4875 1.384 . S
C4876 H4894 0.928 . S
C4877 C4874 1.260 . S
C4877 C4875 1.479 . S
C4878 C4873 1.245 . S
C4878 C4874 1.477 . S
C4878 H4895 0.932 . S
C4879 U4862 2.882 . S
C4879 C4873 1.428 . S
C4879 O4882 1.301 . S
C4879 O4883 1.282 . S
O4880 U4862 2.441 . S
O4880 C4866 1.249 . S
O4881 U4862 2.420 . S
O4881 C4866 1.202 . S
O4882 U4862 2.455 . S
O4882 C4879 1.301 . S
O4883 U4862 2.449 . S
O4883 C4879 1.282 . S
H4884 C4857 0.931 . S
H4885 C4859 0.929 . S
H4886 C4860 0.930 . S
H4887 C4861 0.931 . S
H4888 C4868 0.896 1_565 S
H4889 C4869 0.930 . S
H4890 C4870 0.929 . S
H4891 C4872 0.930 . S
H4892 C4874 0.932 . S
H4893 C4875 0.929 . S
H4894 C4876 0.928 . S
H4895 C4878 0.932 . S
C2071 C8 1.941 . S
C4031 C19 1.941 . S
C2151 C30 1.941 . S
C3951 C41 1.941 . S
C2311 C52 1.941 . S
C63 C4111 1.941 . S
C2231 C74 1.941 . S
C4191 C85 1.941 . S
C4831 C96 1.941 . S
C107 C4591 1.941 . S
C4871 C118 1.941 . S
C129 C4791 1.941 . S
C4671 C140 1.941 . S
C2791 C151 1.941 . S
C2831 C162 1.941 . S
C173 C2711 1.941 . S
C184 C4471 1.941 . S
C2471 C195 1.941 . S
C4271 C206 1.941 . S
C2391 C217 1.941 . S
C228 C2431 1.941 . S
C4551 C239 1.941 . S
C4431 C250 1.941 . S
C261 C4511 1.941 . S
C272 C1111 1.872 . S
C283 C3071 1.872 . S
C1191 C294 1.872 . S
C305 C2991 1.872 . S
C1351 C316 1.872 . S
C327 C3151 1.872 . S
C1271 C338 1.872 . S
C3231 C349 1.872 . S
C360 C3871 1.872 . S
C3631 C371 1.872 . S
C382 C3911 1.872 . S
C3831 C393 1.872 . S
C3711 C404 1.872 . S
C415 C1831 1.872 . S
C426 C1871 1.872 . S
C1751 C437 1.872 . S
C448 C3511 1.872 . S
C1511 C459 1.872 . S
C470 C3311 1.872 . S
C1431 C481 1.872 . S
C492 C1471 1.872 . S
C3591 C503 1.872 . S
C3471 C514 1.872 . S
C3551 C525 1.872 . S
C536 C3991 1.941 . S
C2111 C547 1.941 . S
C4071 C558 1.941 . S
C2031 C569 1.941 . S
C580 C4231 1.941 . S
C2191 C591 1.941 . S
C4151 C602 1.941 . S
C2271 C613 1.941 . S
C624 C2911 1.941 . S
C2671 C635 1.941 . S
C2951 C646 1.941 . S
C657 C2871 1.941 . S
C668 C2751 1.941 . S
C679 C4711 1.941 . S
C690 C4751 1.941 . S
C4631 C701 1.941 . S
C712 C2551 1.941 . S
C4391 C723 1.941 . S
C2351 C734 1.941 . S
C4311 C745 1.941 . S
C756 C4351 1.941 . S
C767 C2631 1.941 . S
C2511 C778 1.941 . S
C789 C2591 1.941 . S
C800 C3031 1.872 . S
C1151 C811 1.872 . S
C3111 C822 1.872 . S
C833 C1071 1.872 . S
C3271 C844 1.872 . S
C1231 C855 1.872 . S
C866 C3191 1.872 . S
C877 C1311 1.872 . S
C1951 C888 1.872 . S
C899 C1711 1.872 . S
C1991 C910 1.872 . S
C1911 C921 1.872 . S
C932 C1791 1.872 . S
C943 C3751 1.872 . S
C3791 C954 1.872 . S
C965 C3671 1.872 . S
C1591 C976 1.872 . S
C3431 C987 1.872 . S
C998 C1391 1.872 . S
C1009 C3351 1.872 . S
C1020 C3391 1.872 . S
C1031 C1671 1.872 . S
C1042 C1551 1.872 . S
C1631 C1053 1.872 . S
C1418 C5 1.827 . S
C1458 C16 1.826 . S
C27 C1498 1.827 . S
C38 C1378 1.825 . S
C49 C1658 1.825 . S
C1538 C60 1.827 . S
C1578 C71 1.826 . S
C82 C1618 1.827 . S
C93 C1178 1.827 . S
C104 C1058 1.826 . S
C115 C1098 1.826 . S
C1138 C126 1.826 . S
C137 C1258 1.826 . S
C148 C1298 1.826 . S
C159 C1338 1.826 . S
C170 C1218 1.827 . S
C1778 C181 1.827 . S
C192 C3858 1.826 . S
C1698 C203 1.826 . S
C3898 C214 1.827 . S
C225 C3818 1.827 . S
C236 C3778 1.826 . S
C3658 C247 1.826 . S
C3738 C258 1.827 . S
C2378 C269 3.062 . S
C2418 C280 3.061 . S
C2458 C291 3.062 . S
C302 C2338 3.060 . S
C313 C2618 3.060 . S
C2498 C324 3.062 . S
C335 C2538 3.061 . S
C2578 C346 3.062 . S
C357 C2138 3.062 . S
C2018 C368 3.060 . S
C379 C2058 3.061 . S
C2098 C390 3.061 . S
C2218 C401 3.061 . S
C412 C2258 3.061 . S
C2298 C423 3.060 . S
C2178 C434 3.062 . S
C2738 C445 3.061 . S
C4818 C456 3.061 . S
C2658 C467 3.060 . S
C478 C4858 3.061 . S
C489 C4778 3.061 . S
C4738 C500 3.060 . S
C4618 C511 3.061 . S
C4698 C522 3.061 . S
C533 C3338 1.827 . S
C3378 C544 1.826 . S
C555 C3418 1.827 . S
C3298 C566 1.825 . S
C577 C3578 1.825 . S
C588 C3458 1.827 . S
C599 C3498 1.826 . S
C610 C3538 1.827 . S
C621 C3098 1.827 . S
C2978 C632 1.826 . S
C3018 C643 1.826 . S
C654 C3058 1.826 . S
C665 C3178 1.826 . S
C676 C3218 1.826 . S
C687 C3258 1.826 . S
C698 C3138 1.827 . S
C3698 C709 1.827 . S
C1938 C720 1.826 . S
C3618 C731 1.826 . S
C1978 C742 1.827 . S
C1898 C753 1.827 . S
C1858 C764 1.826 . S
C775 C1738 1.826 . S
C1818 C786 1.827 . S
C797 C4298 3.062 . S
C808 C4338 3.061 . S
C4378 C819 3.062 . S
C830 C4258 3.060 . S
C4538 C841 3.060 . S
C852 C4418 3.062 . S
C863 C4458 3.061 . S
C4498 C874 3.062 . S
C4058 C885 3.062 . S
C3938 C896 3.060 . S
C3978 C907 3.061 . S
C4018 C918 3.061 . S
C929 C4138 3.061 . S
C4178 C940 3.061 . S
C951 C4218 3.060 . S
C962 C4098 3.062 . S
C973 C4658 3.061 . S
C984 C2898 3.061 . S
C995 C4578 3.060 . S
C2938 C1006 3.061 . S
C1017 C2858 3.061 . S
C1028 C2818 3.060 . S
C1039 C2698 3.061 . S
C2778 C1050 3.061 . S
C7 C1077 2.210 . S
C18 C1117 2.210 . S
C29 C1157 2.210 . S
C1197 C40 2.210 . S
C1237 C51 2.210 . S
C62 C1277 2.210 . S
C73 C1317 2.210 . S
C84 C1357 2.210 . S
C1397 C95 2.210 . S
C1437 C106 2.210 . S
C117 C1477 2.210 . S
C1517 C128 2.210 . S
C139 C1557 2.210 . S
C150 C1597 2.210 . S
C161 C1637 2.210 . S
C172 C1677 2.210 . S
C183 C1717 2.210 . S
C194 C1757 2.210 . S
C1797 C205 2.210 . S
C1837 C216 2.210 . S
C1877 C227 2.210 . S
C1917 C238 2.210 . S
C249 C1957 2.210 . S
C1997 C260 2.210 . S
C271 C2037 2.908 . S
C282 C2077 2.907 . S
C293 C2117 2.908 . S
C2157 C304 2.907 . S
C315 C2197 2.907 . S
C2237 C326 2.908 . S
C337 C2277 2.907 . S
C348 C2317 2.908 . S
C2357 C359 2.908 . S
C370 C2397 2.907 . S
C2437 C381 2.908 . S
C392 C2477 2.908 . S
C2517 C403 2.908 . S
C2557 C414 2.908 . S
C2597 C425 2.907 . S
C436 C2637 2.908 . S
C447 C2677 2.908 . S
C458 C2717 2.908 . S
C469 C2757 2.907 . S
C480 C2797 2.908 . S
C491 C2837 2.908 . S
C2877 C502 2.907 . S
C513 C2917 2.908 . S
C2957 C524 2.908 . S
C535 C2997 2.210 . S
C3037 C546 2.210 . S
C3077 C557 2.210 . S
C3117 C568 2.210 . S
C579 C3157 2.210 . S
C590 C3197 2.210 . S
C3237 C601 2.210 . S
C3277 C612 2.210 . S
C623 C3317 2.210 . S
C634 C3357 2.210 . S
C645 C3397 2.210 . S
C656 C3437 2.210 . S
C667 C3477 2.210 . S
C3517 C678 2.210 . S
C3557 C689 2.210 . S
C3597 C700 2.210 . S
C3637 C711 2.210 . S
C722 C3677 2.210 . S
C733 C3717 2.210 . S
C3757 C744 2.210 . S
C755 C3797 2.210 . S
C3837 C766 2.210 . S
C3877 C777 2.210 . S
C3917 C788 2.210 . S
C799 C3957 2.908 . S
C810 C3997 2.907 . S
C821 C4037 2.908 . S
C832 C4077 2.907 . S
C4117 C843 2.907 . S
C4157 C854 2.908 . S
C4197 C865 2.907 . S
C876 C4237 2.908 . S
C887 C4277 2.908 . S
C4317 C898 2.907 . S
C4357 C909 2.908 . S
C4397 C920 2.908 . S
C4437 C931 2.908 . S
C4477 C942 2.908 . S
C4517 C953 2.907 . S
C4557 C964 2.908 . S
C4597 C975 2.908 . S
C4637 C986 2.908 . S
C4677 C997 2.907 . S
C1008 C4717 2.908 . S
C4757 C1019 2.908 . S
C1030 C4797 2.907 . S
C4837 C1041 2.908 . S
C4877 C1052 2.908 . S
